# Generated by pormake.
# Topology gar, (4,6)-cn, num edge types: 1
# Building blocks:
#     Node 0, Type 0, BuildingBlock: QUQFOY_clean_sbu_3, # of connection points: 4
#     Node 1, Type 0, BuildingBlock: QUQFOY_clean_sbu_3, # of connection points: 4
#     Node 2, Type 0, BuildingBlock: QUQFOY_clean_sbu_3, # of connection points: 4
#     Node 3, Type 0, BuildingBlock: QUQFOY_clean_sbu_3, # of connection points: 4
#     Node 4, Type 0, BuildingBlock: QUQFOY_clean_sbu_3, # of connection points: 4
#     Node 5, Type 0, BuildingBlock: QUQFOY_clean_sbu_3, # of connection points: 4
#     Node 6, Type 0, BuildingBlock: QUQFOY_clean_sbu_3, # of connection points: 4
#     Node 7, Type 0, BuildingBlock: QUQFOY_clean_sbu_3, # of connection points: 4
#     Node 8, Type 0, BuildingBlock: QUQFOY_clean_sbu_3, # of connection points: 4
#     Node 9, Type 0, BuildingBlock: QUQFOY_clean_sbu_3, # of connection points: 4
#     Node 10, Type 0, BuildingBlock: QUQFOY_clean_sbu_3, # of connection points: 4
#     Node 11, Type 0, BuildingBlock: QUQFOY_clean_sbu_3, # of connection points: 4
#     Node 12, Type 0, BuildingBlock: QUQFOY_clean_sbu_3, # of connection points: 4
#     Node 13, Type 0, BuildingBlock: QUQFOY_clean_sbu_3, # of connection points: 4
#     Node 14, Type 0, BuildingBlock: QUQFOY_clean_sbu_3, # of connection points: 4
#     Node 15, Type 0, BuildingBlock: QUQFOY_clean_sbu_3, # of connection points: 4
#     Node 16, Type 0, BuildingBlock: QUQFOY_clean_sbu_3, # of connection points: 4
#     Node 17, Type 0, BuildingBlock: QUQFOY_clean_sbu_3, # of connection points: 4
#     Node 18, Type 0, BuildingBlock: QUQFOY_clean_sbu_3, # of connection points: 4
#     Node 19, Type 0, BuildingBlock: QUQFOY_clean_sbu_3, # of connection points: 4
#     Node 20, Type 0, BuildingBlock: QUQFOY_clean_sbu_3, # of connection points: 4
#     Node 21, Type 0, BuildingBlock: QUQFOY_clean_sbu_3, # of connection points: 4
#     Node 22, Type 0, BuildingBlock: QUQFOY_clean_sbu_3, # of connection points: 4
#     Node 23, Type 0, BuildingBlock: QUQFOY_clean_sbu_3, # of connection points: 4
#     Node 24, Type 1, BuildingBlock: KUMJIN_clean_sbu_0, # of connection points: 6
#     Node 25, Type 1, BuildingBlock: KUMJIN_clean_sbu_0, # of connection points: 6
#     Node 26, Type 1, BuildingBlock: KUMJIN_clean_sbu_0, # of connection points: 6
#     Node 27, Type 1, BuildingBlock: KUMJIN_clean_sbu_0, # of connection points: 6
#     Node 28, Type 1, BuildingBlock: KUMJIN_clean_sbu_0, # of connection points: 6
#     Node 29, Type 1, BuildingBlock: KUMJIN_clean_sbu_0, # of connection points: 6
#     Node 30, Type 1, BuildingBlock: KUMJIN_clean_sbu_0, # of connection points: 6
#     Node 31, Type 1, BuildingBlock: KUMJIN_clean_sbu_0, # of connection points: 6
#     Node 32, Type 1, BuildingBlock: KUMJIN_clean_sbu_0, # of connection points: 6
#     Node 33, Type 1, BuildingBlock: KUMJIN_clean_sbu_0, # of connection points: 6
#     Node 34, Type 1, BuildingBlock: KUMJIN_clean_sbu_0, # of connection points: 6
#     Node 35, Type 1, BuildingBlock: KUMJIN_clean_sbu_0, # of connection points: 6
#     Node 36, Type 1, BuildingBlock: KUMJIN_clean_sbu_0, # of connection points: 6
#     Node 37, Type 1, BuildingBlock: KUMJIN_clean_sbu_0, # of connection points: 6
#     Node 38, Type 1, BuildingBlock: KUMJIN_clean_sbu_0, # of connection points: 6
#     Node 39, Type 1, BuildingBlock: KUMJIN_clean_sbu_0, # of connection points: 6
#     Edge 40, Type (0, 1), BuildingBlock: TEMPAE_clean_linker_10, # of connection points: 2
#     Edge 41, Type (0, 1), BuildingBlock: TEMPAE_clean_linker_10, # of connection points: 2
#     Edge 42, Type (0, 1), BuildingBlock: TEMPAE_clean_linker_10, # of connection points: 2
#     Edge 43, Type (0, 1), BuildingBlock: TEMPAE_clean_linker_10, # of connection points: 2
#     Edge 44, Type (0, 1), BuildingBlock: TEMPAE_clean_linker_10, # of connection points: 2
#     Edge 45, Type (0, 1), BuildingBlock: TEMPAE_clean_linker_10, # of connection points: 2
#     Edge 46, Type (0, 1), BuildingBlock: TEMPAE_clean_linker_10, # of connection points: 2
#     Edge 47, Type (0, 1), BuildingBlock: TEMPAE_clean_linker_10, # of connection points: 2
#     Edge 48, Type (0, 1), BuildingBlock: TEMPAE_clean_linker_10, # of connection points: 2
#     Edge 49, Type (0, 1), BuildingBlock: TEMPAE_clean_linker_10, # of connection points: 2
#     Edge 50, Type (0, 1), BuildingBlock: TEMPAE_clean_linker_10, # of connection points: 2
#     Edge 51, Type (0, 1), BuildingBlock: TEMPAE_clean_linker_10, # of connection points: 2
#     Edge 52, Type (0, 1), BuildingBlock: TEMPAE_clean_linker_10, # of connection points: 2
#     Edge 53, Type (0, 1), BuildingBlock: TEMPAE_clean_linker_10, # of connection points: 2
#     Edge 54, Type (0, 1), BuildingBlock: TEMPAE_clean_linker_10, # of connection points: 2
#     Edge 55, Type (0, 1), BuildingBlock: TEMPAE_clean_linker_10, # of connection points: 2
#     Edge 56, Type (0, 1), BuildingBlock: TEMPAE_clean_linker_10, # of connection points: 2
#     Edge 57, Type (0, 1), BuildingBlock: TEMPAE_clean_linker_10, # of connection points: 2
#     Edge 58, Type (0, 1), BuildingBlock: TEMPAE_clean_linker_10, # of connection points: 2
#     Edge 59, Type (0, 1), BuildingBlock: TEMPAE_clean_linker_10, # of connection points: 2
#     Edge 60, Type (0, 1), BuildingBlock: TEMPAE_clean_linker_10, # of connection points: 2
#     Edge 61, Type (0, 1), BuildingBlock: TEMPAE_clean_linker_10, # of connection points: 2
#     Edge 62, Type (0, 1), BuildingBlock: TEMPAE_clean_linker_10, # of connection points: 2
#     Edge 63, Type (0, 1), BuildingBlock: TEMPAE_clean_linker_10, # of connection points: 2
#     Edge 64, Type (0, 1), BuildingBlock: TEMPAE_clean_linker_10, # of connection points: 2
#     Edge 65, Type (0, 1), BuildingBlock: TEMPAE_clean_linker_10, # of connection points: 2
#     Edge 66, Type (0, 1), BuildingBlock: TEMPAE_clean_linker_10, # of connection points: 2
#     Edge 67, Type (0, 1), BuildingBlock: TEMPAE_clean_linker_10, # of connection points: 2
#     Edge 68, Type (0, 1), BuildingBlock: TEMPAE_clean_linker_10, # of connection points: 2
#     Edge 69, Type (0, 1), BuildingBlock: TEMPAE_clean_linker_10, # of connection points: 2
#     Edge 70, Type (0, 1), BuildingBlock: TEMPAE_clean_linker_10, # of connection points: 2
#     Edge 71, Type (0, 1), BuildingBlock: TEMPAE_clean_linker_10, # of connection points: 2
#     Edge 72, Type (0, 1), BuildingBlock: TEMPAE_clean_linker_10, # of connection points: 2
#     Edge 73, Type (0, 1), BuildingBlock: TEMPAE_clean_linker_10, # of connection points: 2
#     Edge 74, Type (0, 1), BuildingBlock: TEMPAE_clean_linker_10, # of connection points: 2
#     Edge 75, Type (0, 1), BuildingBlock: TEMPAE_clean_linker_10, # of connection points: 2
#     Edge 76, Type (0, 1), BuildingBlock: TEMPAE_clean_linker_10, # of connection points: 2
#     Edge 77, Type (0, 1), BuildingBlock: TEMPAE_clean_linker_10, # of connection points: 2
#     Edge 78, Type (0, 1), BuildingBlock: TEMPAE_clean_linker_10, # of connection points: 2
#     Edge 79, Type (0, 1), BuildingBlock: TEMPAE_clean_linker_10, # of connection points: 2
#     Edge 80, Type (0, 1), BuildingBlock: TEMPAE_clean_linker_10, # of connection points: 2
#     Edge 81, Type (0, 1), BuildingBlock: TEMPAE_clean_linker_10, # of connection points: 2
#     Edge 82, Type (0, 1), BuildingBlock: TEMPAE_clean_linker_10, # of connection points: 2
#     Edge 83, Type (0, 1), BuildingBlock: TEMPAE_clean_linker_10, # of connection points: 2
#     Edge 84, Type (0, 1), BuildingBlock: TEMPAE_clean_linker_10, # of connection points: 2
#     Edge 85, Type (0, 1), BuildingBlock: TEMPAE_clean_linker_10, # of connection points: 2
#     Edge 86, Type (0, 1), BuildingBlock: TEMPAE_clean_linker_10, # of connection points: 2
#     Edge 87, Type (0, 1), BuildingBlock: TEMPAE_clean_linker_10, # of connection points: 2
#     Edge 88, Type (0, 1), BuildingBlock: TEMPAE_clean_linker_10, # of connection points: 2
#     Edge 89, Type (0, 1), BuildingBlock: TEMPAE_clean_linker_10, # of connection points: 2
#     Edge 90, Type (0, 1), BuildingBlock: TEMPAE_clean_linker_10, # of connection points: 2
#     Edge 91, Type (0, 1), BuildingBlock: TEMPAE_clean_linker_10, # of connection points: 2
#     Edge 92, Type (0, 1), BuildingBlock: TEMPAE_clean_linker_10, # of connection points: 2
#     Edge 93, Type (0, 1), BuildingBlock: TEMPAE_clean_linker_10, # of connection points: 2
#     Edge 94, Type (0, 1), BuildingBlock: TEMPAE_clean_linker_10, # of connection points: 2
#     Edge 95, Type (0, 1), BuildingBlock: TEMPAE_clean_linker_10, # of connection points: 2
#     Edge 96, Type (0, 1), BuildingBlock: TEMPAE_clean_linker_10, # of connection points: 2
#     Edge 97, Type (0, 1), BuildingBlock: TEMPAE_clean_linker_10, # of connection points: 2
#     Edge 98, Type (0, 1), BuildingBlock: TEMPAE_clean_linker_10, # of connection points: 2
#     Edge 99, Type (0, 1), BuildingBlock: TEMPAE_clean_linker_10, # of connection points: 2
#     Edge 100, Type (0, 1), BuildingBlock: TEMPAE_clean_linker_10, # of connection points: 2
#     Edge 101, Type (0, 1), BuildingBlock: TEMPAE_clean_linker_10, # of connection points: 2
#     Edge 102, Type (0, 1), BuildingBlock: TEMPAE_clean_linker_10, # of connection points: 2
#     Edge 103, Type (0, 1), BuildingBlock: TEMPAE_clean_linker_10, # of connection points: 2
#     Edge 104, Type (0, 1), BuildingBlock: TEMPAE_clean_linker_10, # of connection points: 2
#     Edge 105, Type (0, 1), BuildingBlock: TEMPAE_clean_linker_10, # of connection points: 2
#     Edge 106, Type (0, 1), BuildingBlock: TEMPAE_clean_linker_10, # of connection points: 2
#     Edge 107, Type (0, 1), BuildingBlock: TEMPAE_clean_linker_10, # of connection points: 2
#     Edge 108, Type (0, 1), BuildingBlock: TEMPAE_clean_linker_10, # of connection points: 2
#     Edge 109, Type (0, 1), BuildingBlock: TEMPAE_clean_linker_10, # of connection points: 2
#     Edge 110, Type (0, 1), BuildingBlock: TEMPAE_clean_linker_10, # of connection points: 2
#     Edge 111, Type (0, 1), BuildingBlock: TEMPAE_clean_linker_10, # of connection points: 2
#     Edge 112, Type (0, 1), BuildingBlock: TEMPAE_clean_linker_10, # of connection points: 2
#     Edge 113, Type (0, 1), BuildingBlock: TEMPAE_clean_linker_10, # of connection points: 2
#     Edge 114, Type (0, 1), BuildingBlock: TEMPAE_clean_linker_10, # of connection points: 2
#     Edge 115, Type (0, 1), BuildingBlock: TEMPAE_clean_linker_10, # of connection points: 2
#     Edge 116, Type (0, 1), BuildingBlock: TEMPAE_clean_linker_10, # of connection points: 2
#     Edge 117, Type (0, 1), BuildingBlock: TEMPAE_clean_linker_10, # of connection points: 2
#     Edge 118, Type (0, 1), BuildingBlock: TEMPAE_clean_linker_10, # of connection points: 2
#     Edge 119, Type (0, 1), BuildingBlock: TEMPAE_clean_linker_10, # of connection points: 2
#     Edge 120, Type (0, 1), BuildingBlock: TEMPAE_clean_linker_10, # of connection points: 2
#     Edge 121, Type (0, 1), BuildingBlock: TEMPAE_clean_linker_10, # of connection points: 2
#     Edge 122, Type (0, 1), BuildingBlock: TEMPAE_clean_linker_10, # of connection points: 2
#     Edge 123, Type (0, 1), BuildingBlock: TEMPAE_clean_linker_10, # of connection points: 2
#     Edge 124, Type (0, 1), BuildingBlock: TEMPAE_clean_linker_10, # of connection points: 2
#     Edge 125, Type (0, 1), BuildingBlock: TEMPAE_clean_linker_10, # of connection points: 2
#     Edge 126, Type (0, 1), BuildingBlock: TEMPAE_clean_linker_10, # of connection points: 2
#     Edge 127, Type (0, 1), BuildingBlock: TEMPAE_clean_linker_10, # of connection points: 2
#     Edge 128, Type (0, 1), BuildingBlock: TEMPAE_clean_linker_10, # of connection points: 2
#     Edge 129, Type (0, 1), BuildingBlock: TEMPAE_clean_linker_10, # of connection points: 2
#     Edge 130, Type (0, 1), BuildingBlock: TEMPAE_clean_linker_10, # of connection points: 2
#     Edge 131, Type (0, 1), BuildingBlock: TEMPAE_clean_linker_10, # of connection points: 2
#     Edge 132, Type (0, 1), BuildingBlock: TEMPAE_clean_linker_10, # of connection points: 2
#     Edge 133, Type (0, 1), BuildingBlock: TEMPAE_clean_linker_10, # of connection points: 2
#     Edge 134, Type (0, 1), BuildingBlock: TEMPAE_clean_linker_10, # of connection points: 2
#     Edge 135, Type (0, 1), BuildingBlock: TEMPAE_clean_linker_10, # of connection points: 2
# Relax obj value: 0.121
# Max RMSD: 0.327
# Mean RMSD: 0.148
data_MOF--net-gar--node1-QUQFOY_clean_sbu_3--node2-KUMJIN_clean_sbu_0--edge1-TEMPAE_clean_linker_10
_symmetry_space_group_name_H-M    P1
_symmetry_Int_Tables_number       1
_symmetry_cell_setting            triclinic
loop_
_symmetry_equiv_pos_as_xyz
'x, y, z'
_cell_length_a     62.243044
_cell_length_b     58.285402
_cell_length_c     57.71685
_cell_angle_alpha  101.3334
_cell_angle_beta   93.335306
_cell_angle_gamma 102.54409
loop_
_atom_site_label
_atom_site_type_symbol
_atom_site_fract_x
_atom_site_fract_y
_atom_site_fract_z
_atom_type_partial_charge
C0 C 0.07527 0.3253 0.34985 0.0
O1 O 0.08775 0.33434 0.33571 0.0
Cd2 Cd 0.12668 0.34764 0.3416 0.0
O3 O 0.08295 0.31971 0.36837 0.0
Cd4 Cd 0.11894 0.31769 0.38705 0.0
C5 C 0.12763 0.37793 0.39958 0.0
O6 O 0.1363 0.31435 0.35208 0.0
O7 O 0.15881 0.32298 0.38396 0.0
O8 O 0.1012 0.27807 0.39217 0.0
C9 C 0.15601 0.32024 0.36157 0.0
O10 O 0.13124 0.37835 0.37813 0.0
C11 C 0.10896 0.28199 0.41382 0.0
O12 O 0.1221 0.3583 0.40659 0.0
O13 O 0.12182 0.30236 0.42275 0.0
C14 C 0.97858 0.76073 0.7088 0.0
O15 O 0.99413 0.75616 0.72095 0.0
Cd16 Cd 0.02796 0.74978 0.70753 0.0
O17 O 0.98019 0.764 0.68773 0.0
Cd18 Cd 0.00744 0.76427 0.6587 0.0
C19 C 0.00201 0.70596 0.6581 0.0
O20 O 0.04061 0.77875 0.68523 0.0
O21 O 0.04427 0.7598 0.65032 0.0
O22 O 0.00273 0.8012 0.64753 0.0
C23 C 0.05329 0.77089 0.67086 0.0
O24 O 0.0144 0.71291 0.67775 0.0
C25 C 0.00244 0.7927 0.62545 0.0
O26 O 0.99514 0.72086 0.64779 0.0
O27 O 0.00217 0.7705 0.61901 0.0
C28 C 0.57611 0.83299 0.86042 0.0
O29 O 0.59 0.84506 0.84944 0.0
Cd30 Cd 0.62862 0.84939 0.84803 0.0
O31 O 0.58183 0.82003 0.87393 0.0
Cd32 Cd 0.61749 0.81411 0.88862 0.0
C33 C 0.63588 0.87561 0.90619 0.0
O34 O 0.6312 0.81066 0.85166 0.0
O35 O 0.65484 0.81056 0.88035 0.0
O36 O 0.60162 0.77428 0.89482 0.0
C37 C 0.65061 0.81008 0.85848 0.0
O38 O 0.64046 0.87815 0.88548 0.0
C39 C 0.60846 0.77985 0.91686 0.0
O40 O 0.62721 0.85506 0.91012 0.0
O41 O 0.61944 0.80126 0.92534 0.0
C42 C 0.47366 0.25449 0.20338 0.0
O43 O 0.48575 0.24426 0.21434 0.0
Cd44 Cd 0.52171 0.24021 0.20554 0.0
O45 O 0.47981 0.26351 0.18585 0.0
Cd46 Cd 0.50973 0.26722 0.16137 0.0
C47 C 0.50433 0.20825 0.14789 0.0
O48 O 0.53901 0.27431 0.19183 0.0
O49 O 0.5474 0.26375 0.1562 0.0
O50 O 0.51387 0.30813 0.15732 0.0
C51 C 0.55344 0.26927 0.17834 0.0
O52 O 0.51345 0.21051 0.16882 0.0
C53 C 0.50818 0.30241 0.13509 0.0
O54 O 0.49874 0.22568 0.14084 0.0
O55 O 0.50204 0.28022 0.12535 0.0
C56 C 0.05929 0.80183 0.14545 0.0
O57 O 0.0699 0.79042 0.15674 0.0
Cd58 Cd 0.10645 0.78441 0.15184 0.0
O59 O 0.06776 0.81202 0.1293 0.0
Cd60 Cd 0.10343 0.81839 0.10922 0.0
C61 C 0.09676 0.75544 0.09221 0.0
O62 O 0.12628 0.82197 0.1463 0.0
O63 O 0.14547 0.82554 0.11717 0.0
O64 O 0.0943 0.85813 0.10956 0.0
C65 C 0.14518 0.82418 0.13885 0.0
O66 O 0.10131 0.75568 0.11407 0.0
C67 C 0.09761 0.85953 0.08831 0.0
O68 O 0.09523 0.77471 0.08522 0.0
O69 O 0.10421 0.84203 0.0763 0.0
C70 C 0.47712 0.76904 0.39544 0.0
O71 O 0.49182 0.78147 0.38573 0.0
Cd72 Cd 0.53088 0.79003 0.39496 0.0
O73 O 0.48277 0.75922 0.41222 0.0
Cd74 Cd 0.52146 0.7608 0.43413 0.0
C75 C 0.53135 0.82255 0.45119 0.0
O76 O 0.54332 0.75517 0.39969 0.0
O77 O 0.56206 0.77499 0.43255 0.0
O78 O 0.51071 0.71754 0.43881 0.0
C79 C 0.56217 0.76395 0.41136 0.0
O80 O 0.53801 0.82191 0.43068 0.0
C81 C 0.5217 0.72089 0.45894 0.0
O82 O 0.52216 0.80308 0.45738 0.0
O83 O 0.53095 0.74267 0.46842 0.0
C84 C 0.55838 0.30621 0.64867 0.0
O85 O 0.5708 0.29972 0.66306 0.0
Cd86 Cd 0.60546 0.29145 0.65402 0.0
O87 O 0.56525 0.31167 0.62952 0.0
Cd88 Cd 0.60171 0.31851 0.61014 0.0
C89 C 0.59207 0.25624 0.59619 0.0
O90 O 0.6276 0.32779 0.64719 0.0
O91 O 0.64218 0.31738 0.61532 0.0
O92 O 0.59093 0.35733 0.60864 0.0
C93 C 0.64478 0.32415 0.63779 0.0
O94 O 0.59662 0.25857 0.61847 0.0
C95 C 0.59715 0.36 0.58859 0.0
O96 O 0.59192 0.27471 0.58723 0.0
O97 O 0.60602 0.34365 0.57798 0.0
C98 C 0.97672 0.26581 0.89091 0.0
O99 O 0.99216 0.27651 0.88071 0.0
Cd100 Cd 0.03051 0.28793 0.89398 0.0
O101 O 0.98156 0.25869 0.90991 0.0
Cd102 Cd 0.01999 0.26068 0.93377 0.0
C103 C 0.02931 0.32205 0.9497 0.0
O104 O 0.04324 0.25399 0.90068 0.0
O105 O 0.0606 0.27636 0.9332 0.0
O106 O 0.00932 0.21761 0.93895 0.0
C107 C 0.06168 0.26423 0.91271 0.0
O108 O 0.03571 0.3207 0.92902 0.0
C109 C 0.02047 0.22098 0.95899 0.0
O110 O 0.02043 0.30291 0.95664 0.0
O111 O 0.0297 0.24278 0.9684 0.0
C112 C 0.46317 0.0512 0.32737 0.0
O113 O 0.47026 0.04069 0.30898 0.0
Cd114 Cd 0.45277 0.02995 0.26982 0.0
O115 O 0.44439 0.05656 0.3264 0.0
Cd116 Cd 0.41431 0.05247 0.29567 0.0
C117 C 0.40585 0.99225 0.28069 0.0
O118 O 0.43954 0.06494 0.26981 0.0
O119 O 0.40709 0.05065 0.25186 0.0
O120 O 0.40618 0.08987 0.31517 0.0
C121 C 0.42722 0.06014 0.25063 0.0
O122 O 0.4225 0.9948 0.26881 0.0
C123 C 0.38538 0.08133 0.31203 0.0
O124 O 0.40073 0.01021 0.29351 0.0
O125 O 0.37861 0.05893 0.30342 0.0
C126 C 0.32306 0.15407 0.52068 0.0
O127 O 0.30726 0.14236 0.52975 0.0
Cd128 Cd 0.27068 0.14783 0.53178 0.0
O129 O 0.32049 0.17118 0.5108 0.0
Cd130 Cd 0.29005 0.19057 0.50146 0.0
C131 C 0.28504 0.20797 0.56072 0.0
O132 O 0.26331 0.15287 0.4931 0.0
O133 O 0.2491 0.18268 0.4904 0.0
O134 O 0.3079 0.1904 0.4652 0.0
C135 C 0.24617 0.1602 0.48891 0.0
O136 O 0.27546 0.18608 0.55966 0.0
C137 C 0.30509 0.21058 0.46222 0.0
O138 O 0.29348 0.21481 0.54283 0.0
O139 O 0.29596 0.22228 0.47819 0.0
C140 C 0.14522 0.01942 0.81564 0.0
O141 O 0.13737 0.03275 0.8041 0.0
Cd142 Cd 0.14569 0.03999 0.76508 0.0
O143 O 0.15921 0.00783 0.80579 0.0
Cd144 Cd 0.17951 1.00367 0.76292 0.0
C145 C 0.20092 0.06889 0.77127 0.0
O146 O 0.1439 1.0038 0.73525 0.0
O147 O 0.17237 1.00274 0.7171 0.0
O148 O 0.1867 0.96294 0.77378 0.0
C149 C 0.15232 1.00431 0.71565 0.0
O150 O 0.18068 0.06986 0.76946 0.0
C151 C 0.20372 0.96072 0.76305 0.0
O152 O 0.20592 0.04833 0.77052 0.0
O153 O 0.20975 0.97749 0.7519 0.0
C154 C 0.35974 0.97576 0.00832 0.0
O155 O 0.34756 0.98202 0.99342 0.0
Cd156 Cd 0.30931 0.96524 0.98355 0.0
O157 O 0.35198 0.95947 0.01946 0.0
Cd158 Cd 0.31755 0.93166 0.0237 0.0
C159 C 0.31575 0.90744 0.96533 0.0
O160 O 0.30013 0.96167 0.02173 0.0
O161 O 0.27656 0.92848 0.02113 0.0
O162 O 0.32737 0.93718 0.06613 0.0
C163 C 0.2803 0.95083 0.02129 0.0
O164 O 0.31019 0.9258 0.96021 0.0
C165 C 0.32626 0.91498 0.06503 0.0
O166 O 0.31997 0.9059 0.98668 0.0
O167 O 0.32079 0.90075 0.04483 0.0
C168 C 0.36314 0.43153 0.03668 0.0
O169 O 0.35161 0.43936 0.02249 0.0
Cd170 Cd 0.3137 0.42486 0.00721 0.0
O171 O 0.35459 0.41318 0.04496 0.0
Cd172 Cd 0.31641 0.38547 0.04106 0.0
C173 C 0.31382 0.36622 0.98075 0.0
O174 O 0.29705 0.41672 0.04092 0.0
O175 O 0.27561 0.38128 0.03338 0.0
O176 O 0.31522 0.38716 0.08326 0.0
C177 C 0.27756 0.40383 0.03673 0.0
O178 O 0.31072 0.38686 0.97953 0.0
C179 C 0.31352 0.36492 0.08228 0.0
O180 O 0.31804 0.36095 1.00074 0.0
O181 O 0.31452 0.3519 0.06211 0.0
C182 C 0.81614 0.10397 0.03403 0.0
O183 O 0.79978 0.09377 0.04341 0.0
Cd184 Cd 0.76459 0.10397 0.04349 0.0
O185 O 0.81478 0.12077 0.02338 0.0
Cd186 Cd 0.78863 0.14332 0.01459 0.0
C187 C 0.78382 0.16324 0.0711 0.0
O188 O 0.75533 0.11181 0.00587 0.0
O189 O 0.75125 0.14818 0.01437 0.0
O190 O 0.79829 0.14556 0.97485 0.0
C191 C 0.74238 0.12594 0.00802 0.0
O192 O 0.77115 0.14275 0.07053 0.0
C193 C 0.80057 0.16822 0.97893 0.0
O194 O 0.79481 0.16743 0.05391 0.0
O195 O 0.79945 0.17898 1.00002 0.0
C196 C 0.17467 0.53018 0.28402 0.0
O197 O 0.16273 0.54321 0.27719 0.0
Cd198 Cd 0.16416 0.56041 0.24366 0.0
O199 O 0.18952 0.5234 0.27195 0.0
Cd200 Cd 0.20193 0.52726 0.23253 0.0
C201 C 0.21995 0.58681 0.25443 0.0
O202 O 0.16694 0.52622 0.21581 0.0
O203 O 0.19216 0.53166 0.19212 0.0
O204 O 0.20839 0.48743 0.22656 0.0
C205 C 0.17208 0.52994 0.19588 0.0
O206 O 0.20004 0.58906 0.25408 0.0
C207 C 0.22857 0.49497 0.22349 0.0
O208 O 0.22461 0.56663 0.24749 0.0
O209 O 0.23519 0.51691 0.22256 0.0
C210 C 0.86387 0.92514 0.52968 0.0
O211 O 0.85317 0.93219 0.51413 0.0
Cd212 Cd 0.81391 0.92225 0.50433 0.0
O213 O 0.85409 0.90993 0.54106 0.0
Cd214 Cd 0.81519 0.8855 0.53856 0.0
C215 C 0.81026 0.86366 0.4789 0.0
O216 O 0.79869 0.91978 0.54064 0.0
O217 O 0.77521 0.88575 0.53489 0.0
O218 O 0.82454 0.88411 0.57987 0.0
C219 C 0.77866 0.90843 0.53829 0.0
O220 O 0.80602 0.88361 0.47689 0.0
C221 C 0.81399 0.86244 0.57786 0.0
O222 O 0.81656 0.86009 0.49903 0.0
O223 O 0.80482 0.85121 0.55734 0.0
C224 C 0.97227 0.06037 0.32279 0.0
O225 O 0.98084 0.04767 0.30715 0.0
Cd226 Cd 0.96961 0.03783 0.26474 0.0
O227 O 0.95722 0.07078 0.31562 0.0
Cd228 Cd 0.93551 0.07284 0.27091 0.0
C229 C 0.91542 0.00783 0.26516 0.0
O230 O 0.96957 0.07155 0.24546 0.0
O231 O 0.93877 0.06582 0.22485 0.0
O232 O 0.93083 0.11865 0.27982 0.0
C233 C 0.95952 0.068 0.22469 0.0
O234 O 0.93539 0.0071 0.26221 0.0
C235 C 0.91002 0.11519 0.27422 0.0
O236 O 0.91007 0.02839 0.26867 0.0
O237 O 0.90061 0.09283 0.26798 0.0
C238 C 0.31927 0.61006 0.54506 0.0
O239 O 0.30312 0.59908 0.55432 0.0
Cd240 Cd 0.26448 0.59923 0.55099 0.0
O241 O 0.31675 0.62453 0.53176 0.0
Cd242 Cd 0.28649 0.63998 0.51727 0.0
C243 C 0.26893 0.65919 0.57181 0.0
O244 O 0.26044 0.60209 0.51105 0.0
O245 O 0.24918 0.62922 0.49701 0.0
O246 O 0.30171 0.64754 0.4807 0.0
C247 C 0.24453 0.60856 0.50175 0.0
O248 O 0.26169 0.63766 0.57409 0.0
C249 C 0.29889 0.6689 0.48458 0.0
O250 O 0.27904 0.66374 0.5541 0.0
O251 O 0.29277 0.67698 0.50456 0.0
C252 C 0.47267 0.56087 0.82269 0.0
O253 O 0.47977 0.54761 0.80612 0.0
Cd254 Cd 0.46751 0.53676 0.76427 0.0
O255 O 0.45793 0.57224 0.81668 0.0
Cd256 Cd 0.4357 0.57454 0.77213 0.0
C257 C 0.41311 0.50985 0.76636 0.0
O258 O 0.4694 0.57163 0.74682 0.0
O259 O 0.43929 0.56799 0.72589 0.0
O260 O 0.43098 0.62038 0.78088 0.0
C261 C 0.45988 0.56891 0.72602 0.0
O262 O 0.43245 0.50735 0.76243 0.0
C263 C 0.4103 0.6168 0.77441 0.0
O264 O 0.4093 0.53114 0.77064 0.0
O265 O 0.40104 0.59444 0.76788 0.0
C266 C 0.66387 0.04598 0.7724 0.0
O267 O 0.65037 0.04943 0.75683 0.0
Cd268 Cd 0.65639 0.05014 0.71775 0.0
O269 O 0.6817 0.03975 0.76715 0.0
Cd270 Cd 0.69981 0.02867 0.73105 0.0
C271 C 0.70878 0.08721 0.73283 0.0
O272 O 0.66714 0.01334 0.70802 0.0
O273 O 0.69425 0.01982 0.68709 0.0
O274 O 0.70754 0.99411 0.74316 0.0
C275 C 0.67352 0.01322 0.68776 0.0
O276 O 0.68828 0.08455 0.72655 0.0
C277 C 0.72814 1.00097 0.74169 0.0
O278 O 0.71703 0.0697 0.73532 0.0
O279 O 0.73496 0.02019 0.73442 0.0
C280 C 0.82494 0.65648 0.02202 0.0
O281 O 0.80967 0.6459 0.03258 0.0
Cd282 Cd 0.77345 0.65234 0.03575 0.0
O283 O 0.82208 0.67296 0.01133 0.0
Cd284 Cd 0.79101 0.69216 1.00275 0.0
C285 C 0.78705 0.71346 0.06126 0.0
O286 O 0.76449 0.65394 0.99618 0.0
O287 O 0.75 0.68337 0.99271 0.0
O288 O 0.81017 0.69385 0.96699 0.0
C289 C 0.74723 0.66104 0.99187 0.0
O290 O 0.77794 0.69178 0.06165 0.0
C291 C 0.80298 0.71129 0.9621 0.0
O292 O 0.79517 0.7191 0.04277 0.0
O293 O 0.79122 0.7207 0.9767 0.0
C294 C 0.95111 0.54205 0.84322 0.0
O295 O 0.95955 0.52858 0.82815 0.0
Cd296 Cd 0.95264 0.52036 0.78626 0.0
O297 O 0.936 0.55198 0.83735 0.0
Cd298 Cd 0.91375 0.55129 0.80187 0.0
C299 C 0.89876 0.49091 0.78375 0.0
O300 O 0.94519 0.55751 0.78225 0.0
O301 O 0.91597 0.5555 0.75974 0.0
O302 O 0.90532 0.58946 0.81756 0.0
C303 C 0.9367 0.55741 0.76191 0.0
O304 O 0.91829 0.48995 0.77904 0.0
C305 C 0.8846 0.58034 0.8137 0.0
O306 O 0.8938 0.51039 0.79297 0.0
O307 O 0.87822 0.55776 0.80618 0.0
C308 C 0.85815 0.48282 0.50846 0.0
O309 O 0.84682 0.48926 0.49294 0.0
Cd310 Cd 0.80883 0.47088 0.47913 0.0
O311 O 0.8493 0.46646 0.51891 0.0
Cd312 Cd 0.81331 0.43957 0.51857 0.0
C313 C 0.81877 0.41504 0.46267 0.0
O314 O 0.78952 0.46588 0.51275 0.0
O315 O 0.77364 0.42806 0.50864 0.0
O316 O 0.82234 0.44372 0.56096 0.0
C317 C 0.77192 0.44934 0.50885 0.0
O318 O 0.81203 0.43223 0.45632 0.0
C319 C 0.8164 0.4212 0.55981 0.0
O320 O 0.822 0.41436 0.4844 0.0
O321 O 0.80895 0.40769 0.53963 0.0
C322 C 0.64681 0.5182 0.31739 0.0
O323 O 0.63858 0.53114 0.30568 0.0
Cd324 Cd 0.64686 0.53876 0.2667 0.0
O325 O 0.66104 0.50692 0.30761 0.0
Cd326 Cd 0.68109 0.50319 0.26452 0.0
C327 C 0.70154 0.56889 0.27344 0.0
O328 O 0.64604 0.5035 0.23585 0.0
O329 O 0.6754 0.50471 0.21883 0.0
O330 O 0.68557 0.45771 0.26187 0.0
C331 C 0.65503 0.50517 0.21671 0.0
O332 O 0.68124 0.56964 0.27178 0.0
C333 C 0.70664 0.46115 0.26451 0.0
O334 O 0.70675 0.54836 0.27218 0.0
O335 O 0.71623 0.48329 0.26658 0.0
Eu336 Eu 0.03075 0.0213 0.00566 0.0
C337 C 0.09347 0.11171 0.06767 0.0
C338 C 0.10157 0.13804 0.04009 0.0
C339 C 0.10349 0.15518 0.08224 0.0
C340 C 0.09511 0.11469 0.04463 0.0
C341 C 0.09828 0.13193 0.08681 0.0
C342 C 0.1051 0.15823 0.05891 0.0
C343 C 0.09512 0.1048 0.11376 0.0
N344 N 0.0889 0.08906 0.07156 0.0
C345 C 0.09067 0.08538 0.09425 0.0
C346 C 0.09863 0.12819 0.11003 0.0
Eu347 Eu 0.08113 0.05668 0.03772 0.0
N348 N 0.09211 0.09479 0.02691 0.0
C349 C 0.09723 0.09722 0.0046 0.0
C350 C 0.10533 0.14046 0.01698 0.0
C351 C 0.10353 0.11995 0.99925 0.0
H352 H 0.08793 0.06728 0.09727 0.0
H353 H 0.10692 0.12159 0.98139 0.0
H354 H 0.10985 0.17626 0.05569 0.0
H355 H 0.09589 0.1017 0.13164 0.0
H356 H 0.0959 0.08189 0.99035 0.0
H357 H 0.00696 0.96198 0.06805 0.0
H358 H 0.11041 0.15805 0.01282 0.0
H359 H 0.02535 0.00766 0.94656 0.0
H360 H 0.02507 0.99884 0.05682 0.0
H361 H 0.01026 0.97274 0.91357 0.0
H362 H 0.10704 0.1709 0.09669 0.0
H363 H 0.98922 0.92587 0.03731 0.0
H364 H 0.98006 0.9062 0.99429 0.0
H365 H 0.10229 0.14325 0.12517 0.0
H366 H 0.9818 0.90873 0.9524 0.0
N367 N 0.01734 0.98505 0.01929 0.0
C368 C 0.01704 0.98387 0.04278 0.0
C369 C 0.997 0.94232 0.03206 0.0
C370 C 0.99753 0.94331 0.00811 0.0
C371 C 0.00695 0.96264 0.04944 0.0
C372 C 0.00794 0.96516 1.00218 0.0
H373 H 0.9934 0.93322 0.9222 0.0
N374 N 0.01938 0.9876 0.97352 0.0
C375 C 0.01014 0.97057 0.93176 0.0
C376 C 0.00927 0.96641 0.97864 0.0
C377 C 0.01904 0.99019 0.95048 0.0
C378 C 0.00056 0.94836 0.93671 0.0
C379 C 0.99973 0.94613 0.96035 0.0
O380 O 0.00861 0.03252 0.98215 0.0
O381 O 0.04964 0.05953 0.02004 0.0
O382 O 0.05512 0.06273 0.06411 0.0
O383 O 0.02395 0.03412 0.04515 0.0
O384 O 0.03943 0.04975 0.98395 0.0
O385 O 0.99675 0.02093 0.01365 0.0
O386 O 0.10712 0.05015 0.06056 0.0
O387 O 0.06299 0.01809 0.02276 0.0
O388 O 0.0566 0.01358 0.97957 0.0
O389 O 0.08698 0.04388 0.99776 0.0
O390 O 0.07387 0.02742 0.05844 0.0
O391 O 0.11368 0.05722 0.02566 0.0
C392 C 0.04839 0.06754 1.0012 0.0
C393 C 0.97013 0.01754 0.98096 0.0
C394 C 0.93193 0.02052 0.98063 0.0
C395 C 0.95201 0.02083 0.99306 0.0
C396 C 0.92915 0.01276 0.95569 0.0
C397 C 0.96733 0.00986 0.9561 0.0
C398 C 0.94665 0.00675 0.94362 0.0
C399 C 0.03455 0.05023 0.0644 0.0
C400 C 0.99191 0.02799 0.9943 0.0
C401 C 0.98924 0.92446 0.96619 0.0
C402 C 0.98816 0.92305 0.99002 0.0
C403 C 0.06564 0.00943 0.04108 0.0
C404 C 0.14422 0.06466 0.05436 0.0
C405 C 0.16002 0.05338 0.04461 0.0
C406 C 0.18193 0.06067 0.05452 0.0
C407 C 0.18833 0.08027 0.07399 0.0
C408 C 0.15036 0.08451 0.07356 0.0
C409 C 0.17256 0.09245 0.08319 0.0
C410 C 0.07684 0.02685 0.97889 0.0
C411 C 0.1215 0.05283 0.04531 0.0
H412 H 0.95437 0.0261 0.01229 0.0
H413 H 0.91401 0.0125 0.94534 0.0
H414 H 0.98121 0.0075 0.94622 0.0
H415 H 0.94459 1.00128 0.92443 0.0
H416 H 0.15488 0.03756 0.03023 0.0
H417 H 0.20526 0.08578 0.08219 0.0
H418 H 0.13808 0.09335 0.08137 0.0
H419 H 0.17741 0.10752 0.09824 0.0
Eu420 Eu 0.31752 0.77441 0.24542 0.0
C421 C 0.29218 0.85835 0.31422 0.0
C422 C 0.32614 0.87968 0.33898 0.0
C423 C 0.29663 0.90015 0.33472 0.0
C424 C 0.31303 0.85843 0.32403 0.0
C425 C 0.2838 0.8793 0.3195 0.0
C426 C 0.31764 0.90024 0.34464 0.0
C427 C 0.24955 0.857 0.29646 0.0
N428 N 0.27984 0.83778 0.29997 0.0
C429 C 0.25828 0.83662 0.29226 0.0
C430 C 0.26244 0.87853 0.30998 0.0
Eu431 Eu 0.29397 0.80258 0.29755 0.0
N432 N 0.32073 0.83808 0.31864 0.0
C433 C 0.34242 0.83906 0.3257 0.0
C434 C 0.34759 0.87985 0.34762 0.0
C435 C 0.35594 0.85966 0.34041 0.0
H436 H 0.24741 0.81987 0.28288 0.0
H437 H 0.37294 0.85999 0.34598 0.0
H438 H 0.32736 0.91649 0.35641 0.0
H439 H 0.23268 0.8559 0.28971 0.0
H440 H 0.35019 0.82467 0.31958 0.0
H441 H 0.23538 0.72184 0.20104 0.0
H442 H 0.35809 0.89575 0.35916 0.0
H443 H 0.36081 0.75161 0.26129 0.0
H444 H 0.26021 0.75484 0.22921 0.0
H445 H 0.37326 0.71446 0.25194 0.0
H446 H 0.29036 0.91625 0.3391 0.0
H447 H 0.24858 0.68611 0.18284 0.0
H448 H 0.27883 0.66398 0.18056 0.0
H449 H 0.25551 0.89423 0.31359 0.0
H450 H 0.31579 0.66144 0.19559 0.0
N451 N 0.28885 0.74043 0.22503 0.0
C452 C 0.26706 0.74058 0.22029 0.0
C453 C 0.25992 0.70111 0.19475 0.0
C454 C 0.28152 0.69993 0.20135 0.0
C455 C 0.25247 0.72127 0.20484 0.0
C456 C 0.29558 0.71987 0.21718 0.0
H457 H 0.35009 0.67921 0.22362 0.0
N458 N 0.32872 0.73724 0.24219 0.0
C459 C 0.35695 0.71504 0.24483 0.0
C460 C 0.31604 0.71816 0.2262 0.0
C461 C 0.34935 0.73606 0.25084 0.0
C462 C 0.34394 0.69531 0.2287 0.0
C463 C 0.3234 0.69681 0.21887 0.0
O464 O 0.35238 0.78319 0.23988 0.0
O465 O 0.32065 0.8071 0.27426 0.0
O466 O 0.27607 0.80603 0.26228 0.0
O467 O 0.29015 0.78776 0.22838 0.0
O468 O 0.32322 0.81254 0.2399 0.0
O469 O 0.32731 0.77112 0.20944 0.0
O470 O 0.25925 0.78901 0.30157 0.0
O471 O 0.29149 0.76952 0.26944 0.0
O472 O 0.33762 0.77416 0.28043 0.0
O473 O 0.32225 0.79018 0.31443 0.0
O474 O 0.29083 0.76533 0.30459 0.0
O475 O 0.28265 0.80661 0.33285 0.0
C476 C 0.32348 0.82272 0.26183 0.0
C477 C 0.36211 0.79538 0.20471 0.0
C478 C 0.36774 0.82905 0.18479 0.0
C479 C 0.35419 0.81347 0.19659 0.0
C480 C 0.38934 0.82628 0.18137 0.0
C481 C 0.38369 0.79303 0.20128 0.0
C482 C 0.39723 0.80845 0.18967 0.0
C483 C 0.27615 0.79976 0.23875 0.0
C484 C 0.34842 0.77862 0.21681 0.0
C485 C 0.31019 0.67773 0.20175 0.0
C486 C 0.28922 0.67922 0.1931 0.0
C487 C 0.28976 0.75458 0.2827 0.0
C488 C 0.251 0.7772 0.33725 0.0
C489 C 0.26269 0.76371 0.34852 0.0
C490 C 0.25148 0.74644 0.3602 0.0
C491 C 0.22839 0.7428 0.3604 0.0
C492 C 0.228 0.77333 0.33757 0.0
C493 C 0.21676 0.75617 0.3491 0.0
C494 C 0.3374 0.77998 0.30395 0.0
C495 C 0.26226 0.79516 0.32473 0.0
H496 H 0.33752 0.81529 0.19928 0.0
H497 H 0.39997 0.83746 0.1717 0.0
H498 H 0.39002 0.77914 0.20748 0.0
H499 H 0.41381 0.80637 0.18682 0.0
H500 H 0.28046 0.76663 0.3482 0.0
H501 H 0.21935 0.73004 0.36975 0.0
H502 H 0.21876 0.78361 0.32891 0.0
H503 H 0.19902 0.75336 0.34944 0.0
Eu504 Eu 0.58315 0.04233 0.50929 0.0
C505 C 0.50491 0.99782 0.56239 0.0
C506 C 0.48649 0.96053 0.53516 0.0
C507 C 0.48578 0.96383 0.57773 0.0
C508 C 0.49934 0.98437 0.53941 0.0
C509 C 0.49779 0.98788 0.58179 0.0
C510 C 0.48018 0.95017 0.55446 0.0
C511 C 0.51357 0.02669 0.60761 0.0
N512 N 0.51647 0.02102 0.56571 0.0
C513 C 0.52025 0.03576 0.58782 0.0
C514 C 0.50251 1.00257 0.60463 0.0
Eu515 Eu 0.52811 0.03453 0.53138 0.0
N516 N 0.50546 0.99499 0.52116 0.0
C517 C 0.49781 0.98349 0.49825 0.0
C518 C 0.4798 0.94809 0.51164 0.0
C519 C 0.4852 0.95976 0.49311 0.0
H520 H 0.52882 0.0544 0.5903 0.0
H521 H 0.47972 0.95048 0.47487 0.0
H522 H 0.47048 0.93181 0.55156 0.0
H523 H 0.51694 0.03831 0.62515 0.0
H524 H 0.50191 0.9923 0.48377 0.0
H525 H 0.63638 0.12043 0.5706 0.0
H526 H 0.46996 0.92974 0.50763 0.0
H527 H 0.58011 0.02783 0.45001 0.0
H528 H 0.61205 0.07998 0.55901 0.0
H529 H 0.5918 0.04709 0.41678 0.0
H530 H 0.48033 0.9558 0.59243 0.0
H531 H 0.64658 0.14428 0.54022 0.0
H532 H 0.64509 0.14645 0.49716 0.0
H533 H 0.49729 0.99562 0.62 0.0
H534 H 0.63323 0.1264 0.45529 0.0
N535 N 0.6077 0.08072 0.52224 0.0
C536 C 0.61618 0.08999 0.54542 0.0
C537 C 0.63577 0.12644 0.53496 0.0
C538 C 0.62804 0.11634 0.51109 0.0
C539 C 0.63012 0.11302 0.55214 0.0
C540 C 0.614 0.09305 0.5052 0.0
H541 H 0.61363 0.08925 0.42514 0.0
N542 N 0.59476 0.05898 0.47668 0.0
C543 C 0.59624 0.05708 0.43494 0.0
C544 C 0.60738 0.0818 0.48167 0.0
C545 C 0.58971 0.04621 0.45376 0.0
C546 C 0.60851 0.0809 0.43974 0.0
C547 C 0.6145 0.09348 0.46333 0.0
O548 O 0.59861 0.01385 0.49332 0.0
O549 O 0.5534 0.01598 0.51565 0.0
O550 O 0.54966 0.02264 0.55647 0.0
O551 O 0.58402 0.04386 0.54875 0.0
O552 O 0.56572 0.0075 0.48349 0.0
O553 O 0.61362 0.03755 0.52678 0.0
O554 O 0.51332 0.06511 0.54126 0.0
O555 O 0.55813 0.06069 0.52549 0.0
O556 O 0.56108 0.05674 0.4867 0.0
O557 O 0.52745 0.03244 0.49171 0.0
O558 O 0.54488 0.06999 0.55683 0.0
O559 O 0.49527 0.03394 0.51512 0.0
C560 C 0.55117 0.99981 0.49694 0.0
C561 C 0.63682 0.01904 0.50187 0.0
C562 C 0.66825 1.00041 0.49988 0.0
C563 C 0.64869 1.00356 0.50961 0.0
C564 C 0.67606 0.01319 0.48264 0.0
C565 C 0.64493 0.03198 0.48487 0.0
C566 C 0.66454 0.02907 0.47536 0.0
C567 C 0.57085 0.03256 0.56213 0.0
C568 C 0.61505 0.01954 0.50998 0.0
C569 C 0.62773 0.11705 0.46912 0.0
C570 C 0.63447 0.12847 0.49296 0.0
C571 C 0.56036 0.07704 0.54408 0.0
C572 C 0.47497 0.05767 0.53874 0.0
C573 C 0.46454 0.07531 0.53362 0.0
C574 C 0.44667 0.08028 0.54572 0.0
C575 C 0.43925 0.06728 0.56298 0.0
C576 C 0.46738 0.04461 0.55581 0.0
C577 C 0.44953 0.04945 0.56789 0.0
C578 C 0.53997 0.04665 0.48007 0.0
C579 C 0.495 0.05503 0.52768 0.0
H580 H 0.64234 0.99336 0.52258 0.0
H581 H 0.69116 0.011 0.47496 0.0
H582 H 0.63589 0.04389 0.47864 0.0
H583 H 0.67068 0.03891 0.46211 0.0
H584 H 0.47065 0.08555 0.52059 0.0
H585 H 0.42528 0.07061 0.57235 0.0
H586 H 0.47539 0.03101 0.56 0.0
H587 H 0.44369 0.03943 0.58112 0.0
Eu588 Eu 0.28001 0.29638 0.77156 0.0
C589 C 0.35325 0.26995 0.82004 0.0
C590 C 0.37107 0.30674 0.84821 0.0
C591 C 0.36628 0.2685 0.86024 0.0
C592 C 0.36023 0.29476 0.82544 0.0
C593 C 0.35731 0.25653 0.83704 0.0
C594 C 0.37316 0.2936 0.86581 0.0
C595 C 0.34744 0.22069 0.80595 0.0
N596 N 0.34478 0.25884 0.79745 0.0
C597 C 0.34354 0.23474 0.78985 0.0
C598 C 0.35359 0.23153 0.82986 0.0
Eu599 Eu 0.33562 0.28385 0.77205 0.0
N600 N 0.3581 0.30697 0.80793 0.0
C601 C 0.36934 0.33062 0.81137 0.0
C602 C 0.38039 0.33142 0.85236 0.0
C603 C 0.38007 0.34324 0.83365 0.0
H604 H 0.33861 0.22597 0.77142 0.0
H605 H 0.3883 0.36207 0.83629 0.0
H606 H 0.38112 0.30257 0.88343 0.0
H607 H 0.34549 0.20149 0.79991 0.0
H608 H 0.37075 0.34017 0.79715 0.0
H609 H 0.24038 0.23229 0.69058 0.0
H610 H 0.38878 0.34123 0.86958 0.0
H611 H 0.27528 0.35297 0.79035 0.0
H612 H 0.26196 0.24584 0.72975 0.0
H613 H 0.26319 0.38498 0.77419 0.0
H614 H 0.36904 0.25849 0.87363 0.0
H615 H 0.22822 0.26197 0.67068 0.0
H616 H 0.22798 0.30497 0.67097 0.0
H617 H 0.3566 0.22061 0.84233 0.0
H618 H 0.23507 0.34686 0.69342 0.0
N619 N 0.26209 0.28274 0.73238 0.0
C620 C 0.25672 0.25894 0.72144 0.0
C621 C 0.23808 0.26801 0.68774 0.0
C622 C 0.24361 0.29236 0.69899 0.0
C623 C 0.24468 0.25122 0.69903 0.0
C624 C 0.2555 0.29921 0.72179 0.0
H625 H 0.24802 0.37685 0.73202 0.0
N626 N 0.26888 0.32792 0.75715 0.0
C627 C 0.26221 0.36761 0.76273 0.0
C628 C 0.25933 0.32265 0.73444 0.0
C629 C 0.26913 0.34955 0.77179 0.0
C630 C 0.25372 0.36297 0.73891 0.0
C631 C 0.25158 0.34005 0.72462 0.0
O632 O 0.26179 0.30493 0.80242 0.0
O633 O 0.30861 0.29131 0.79399 0.0
O634 O 0.31009 0.24774 0.77056 0.0
O635 O 0.27516 0.25617 0.77156 0.0
O636 O 0.29667 0.32197 0.80523 0.0
O637 O 0.24601 0.27658 0.77308 0.0
O638 O 0.34628 0.25862 0.74442 0.0
O639 O 0.30353 0.27983 0.74986 0.0
O640 O 0.30389 0.33092 0.76578 0.0
O641 O 0.33924 0.3242 0.7725 0.0
O642 O 0.33225 0.29652 0.73788 0.0
O643 O 0.36986 0.29122 0.7628 0.0
C644 C 0.31068 0.30989 0.81032 0.0
C645 C 0.22281 0.29757 0.7954 0.0
C646 C 0.18792 0.29844 0.81313 0.0
C647 C 0.2077 0.29019 0.81139 0.0
C648 C 0.18415 0.31483 0.79923 0.0
C649 C 0.21787 0.31294 0.78107 0.0
C650 C 0.19888 0.32177 0.78324 0.0
C651 C 0.28827 0.24098 0.77116 0.0
C652 C 0.24359 0.2892 0.79354 0.0
C653 C 0.24096 0.33369 0.70135 0.0
C654 C 0.23688 0.30984 0.68859 0.0
C655 C 0.31125 0.28847 0.73275 0.0
C656 C 0.38471 0.2599 0.7406 0.0
C657 C 0.4029 0.27141 0.73016 0.0
C658 C 0.41953 0.25938 0.7225 0.0
C659 C 0.41743 0.23561 0.72555 0.0
C660 C 0.38341 0.23638 0.74361 0.0
C661 C 0.3997 0.2244 0.73619 0.0
C662 C 0.3259 0.33848 0.76886 0.0
C663 C 0.36635 0.27186 0.746 0.0
H664 H 0.21115 0.27774 0.82198 0.0
H665 H 0.16971 0.32235 0.80062 0.0
H666 H 0.22862 0.3181 0.76812 0.0
H667 H 0.19549 0.33401 0.77237 0.0
H668 H 0.40392 0.28962 0.72788 0.0
H669 H 0.42927 0.22532 0.7193 0.0
H670 H 0.36957 0.22696 0.75115 0.0
H671 H 0.39836 0.2061 0.73829 0.0
Eu672 Eu 0.05296 0.06772 0.53843 0.0
C673 C 0.08022 0.99588 0.45888 0.0
C674 C 0.04771 0.98317 0.43015 0.0
C675 C 0.08391 0.98192 0.41705 0.0
C676 C 0.0576 0.99228 0.45376 0.0
C677 C 0.09359 0.99035 0.44064 0.0
C678 C 0.06102 0.9784 0.41181 0.0
C679 C 0.12495 1.00059 0.47055 0.0
N680 N 0.08909 1.004 0.48183 0.0
C681 C 0.11103 1.00582 0.488 0.0
C682 C 0.11624 0.99303 0.44673 0.0
Eu683 Eu 0.06472 0.01308 0.51037 0.0
N684 N 0.04517 0.9968 0.47193 0.0
C685 C 0.02257 0.99116 0.46779 0.0
C686 C 0.02468 0.97863 0.42572 0.0
C687 C 0.01205 0.98239 0.44467 0.0
H688 H 0.11786 0.01185 0.5064 0.0
H689 H 0.99419 0.97858 0.44151 0.0
H690 H 0.05372 0.97153 0.39357 0.0
H691 H 0.14239 1.00247 0.47547 0.0
H692 H 0.01239 0.99395 0.48206 0.0
H693 H 0.12173 0.10753 0.60836 0.0
H694 H 0.01647 0.97177 0.40784 0.0
H695 H 1.00023 0.07166 0.54016 0.0
H696 H 0.10437 0.08907 0.56791 0.0
H697 H 0.97461 0.08087 0.56988 0.0
H698 H 0.09393 0.97771 0.40278 0.0
H699 H 0.09861 0.1139 0.64132 0.0
H700 H 0.06081 0.11247 0.65456 0.0
H701 H 0.12706 0.98896 0.43323 0.0
H702 H 0.02068 0.10516 0.64411 0.0
N703 N 0.07131 0.08434 0.57735 0.0
C704 C 0.09384 0.09152 0.58189 0.0
C705 C 0.09078 0.10565 0.62348 0.0
C706 C 0.06774 0.09949 0.61859 0.0
C707 C 0.10387 0.10214 0.60494 0.0
C708 C 0.05837 0.089 0.59498 0.0
H709 H 0.98841 0.09358 0.61259 0.0
N710 N 0.0277 0.07706 0.56591 0.0
C711 C 0.99174 0.08195 0.57557 0.0
C712 C 0.03585 0.08515 0.58909 0.0
C713 C 0.00623 0.07655 0.55881 0.0
C714 C 0.99959 0.08907 0.59965 0.0
C715 C 0.02199 0.09132 0.60663 0.0
O716 O 0.03976 0.09193 0.52063 0.0
O717 O 0.05198 0.04433 0.50158 0.0
O718 O 0.08792 0.04163 0.4968 0.0
O719 O 0.08832 0.07276 0.52849 0.0
O720 O 0.0237 0.05545 0.50967 0.0
O721 O 0.07141 0.10518 0.54209 0.0
O722 O 0.08075 0.98732 0.5226 0.0
O723 O 0.06579 0.03641 0.547 0.0
O724 O 0.02744 0.03972 0.5501 0.0
O725 O 0.02975 1.0066 0.5213 0.0
O726 O 0.09401 0.02542 0.53941 0.0
O727 O 0.04526 0.97762 0.51207 0.0
C728 C 0.03268 0.04464 0.49247 0.0
C729 C 0.0511 0.13366 0.53455 0.0
C730 C 0.05327 0.17147 0.52191 0.0
C731 C 0.06159 0.15111 0.52294 0.0
C732 C 0.03532 0.17509 0.53488 0.0
C733 C 0.03342 0.13752 0.54756 0.0
C734 C 0.02584 0.15844 0.54802 0.0
C735 C 0.09685 0.06335 0.50951 0.0
C736 C 0.05635 0.11014 0.52859 0.0
C737 C 0.03107 0.10046 0.63037 0.0
C738 C 0.05392 0.10459 0.63633 0.0
C739 C 0.08501 0.03636 0.55647 0.0
C740 C 0.06336 0.94601 0.51224 0.0
C741 C 0.05574 0.93017 0.52681 0.0
C742 C 0.05612 0.90591 0.52021 0.0
C743 C 0.06437 0.89752 0.49883 0.0
C744 C 0.07182 0.93777 0.491 0.0
C745 C 0.07235 0.91349 0.48437 0.0
C746 C 0.01985 0.01727 0.53845 0.0
C747 C 0.06236 0.97098 0.52028 0.0
H748 H 0.07563 0.14793 0.5136 0.0
H749 H 0.02806 0.19026 0.53433 0.0
H750 H 0.02506 0.1241 0.55658 0.0
H751 H 0.01193 0.16126 0.55773 0.0
H752 H 0.04919 0.93668 0.54323 0.0
H753 H 0.0648 0.87875 0.49348 0.0
H754 H 0.07793 0.95 0.47969 0.0
H755 H 0.07889 0.90704 0.46801 0.0
Eu756 Eu 0.33328 0.80703 0.76109 0.0
C757 C 0.27807 0.73941 0.81506 0.0
C758 C 0.28385 0.70028 0.79702 0.0
C759 C 0.27482 0.70806 0.83779 0.0
C760 C 0.28316 0.72403 0.79571 0.0
C761 C 0.27333 0.73139 0.83611 0.0
C762 C 0.28014 0.69257 0.81831 0.0
C763 C 0.26441 0.76945 0.85169 0.0
N764 N 0.27686 0.76191 0.81297 0.0
C765 C 0.26946 0.7767 0.83055 0.0
C766 C 0.26668 0.74685 0.85464 0.0
Eu767 Eu 0.28533 0.77253 0.77653 0.0
N768 N 0.28637 0.73189 0.77526 0.0
C769 C 0.28874 0.71635 0.75501 0.0
C770 C 0.28765 0.68475 0.7767 0.0
C771 C 0.28979 0.69273 0.75551 0.0
H772 H 0.26782 0.79426 0.82846 0.0
H773 H 0.29227 0.68073 0.73956 0.0
H774 H 0.28078 0.67445 0.8197 0.0
H775 H 0.25893 0.78137 0.86576 0.0
H776 H 0.29037 0.72213 0.73844 0.0
H777 H 0.33824 0.89921 0.80998 0.0
H778 H 0.2884 0.66641 0.77702 0.0
H779 H 0.34574 0.78826 0.70616 0.0
H780 H 0.33041 0.85563 0.80435 0.0
H781 H 0.35569 0.80468 0.6709 0.0
H782 H 0.27145 0.70165 0.85391 0.0
H783 H 0.34862 0.91872 0.77665 0.0
H784 H 0.35566 0.91468 0.73402 0.0
H785 H 0.26285 0.74132 0.87108 0.0
H786 H 0.3594 0.88898 0.69595 0.0
N787 N 0.33665 0.84934 0.76779 0.0
C788 C 0.33518 0.86333 0.78944 0.0
C789 C 0.34532 0.8993 0.77396 0.0
C790 C 0.34666 0.88506 0.75183 0.0
C791 C 0.3395 0.88837 0.79281 0.0
C792 C 0.34237 0.85982 0.74927 0.0
H793 H 0.35934 0.84805 0.67224 0.0
N794 N 0.34173 0.82139 0.72635 0.0
C795 C 0.35238 0.8163 0.68668 0.0
C796 C 0.3445 0.84538 0.72781 0.0
C797 C 0.34649 0.80699 0.70655 0.0
C798 C 0.35441 0.84077 0.68752 0.0
C799 C 0.35093 0.85574 0.7084 0.0
O800 O 0.36556 0.8009 0.7534 0.0
O801 O 0.32134 0.77183 0.77303 0.0
O802 O 0.30913 0.78202 0.80956 0.0
O803 O 0.33066 0.81579 0.80057 0.0
O804 O 0.33832 0.76989 0.74372 0.0
O805 O 0.3623 0.82503 0.78631 0.0
O806 O 0.25219 0.77813 0.77911 0.0
O807 O 0.29697 0.80774 0.76393 0.0
O808 O 0.30888 0.79737 0.72849 0.0
O809 O 0.28865 0.76265 0.73723 0.0
O810 O 0.27965 0.80975 0.79261 0.0
O811 O 0.25724 0.74755 0.7535 0.0
C812 C 0.33003 0.75748 0.75863 0.0
C813 C 0.39685 0.83126 0.77097 0.0
C814 C 0.43585 0.84396 0.78462 0.0
C815 C 0.41454 0.83162 0.78701 0.0
C816 C 0.43939 0.85672 0.7664 0.0
C817 C 0.40028 0.84405 0.75277 0.0
C818 C 0.42153 0.85697 0.75067 0.0
C819 C 0.32427 0.80229 0.81583 0.0
C820 C 0.37565 0.81565 0.77284 0.0
C821 C 0.35451 0.88073 0.71068 0.0
C822 C 0.35245 0.89537 0.73237 0.0
C823 C 0.28796 0.82233 0.7778 0.0
C824 C 0.22182 0.74503 0.76747 0.0
C825 C 0.20411 0.74139 0.75026 0.0
C826 C 0.18223 0.73514 0.75573 0.0
C827 C 0.17847 0.72949 0.77803 0.0
C828 C 0.218 0.73938 0.78962 0.0
C829 C 0.19634 0.73107 0.79462 0.0
C830 C 0.29467 0.77644 0.72215 0.0
C831 C 0.24303 0.75898 0.76298 0.0
H832 H 0.4119 0.82119 0.80069 0.0
H833 H 0.45591 0.86622 0.76424 0.0
H834 H 0.3868 0.84364 0.73996 0.0
H835 H 0.42425 0.86669 0.73654 0.0
H836 H 0.20755 0.74529 0.73305 0.0
H837 H 0.16188 0.72492 0.78314 0.0
H838 H 0.23155 0.74217 0.80322 0.0
H839 H 0.19333 0.72708 0.81185 0.0
Eu840 Eu 0.56497 0.02734 0.05565 0.0
C841 C 0.5046 0.05008 0.97398 0.0
C842 C 0.48028 0.01311 0.95136 0.0
C843 C 0.4719 0.05152 0.94946 0.0
C844 C 0.49928 0.02512 0.9673 0.0
C845 C 0.49102 0.0635 0.96486 0.0
C846 C 0.46677 0.02645 0.9424 0.0
C847 C 0.51864 0.09973 0.98235 0.0
N848 N 0.5241 0.06133 0.98734 0.0
C849 C 0.53194 0.08564 0.98997 0.0
C850 C 0.4979 0.08862 0.97002 0.0
Eu851 Eu 0.54737 0.0363 0.99613 0.0
N852 N 0.51348 0.01271 0.97481 0.0
C853 C 0.50948 0.98827 0.96705 0.0
C854 C 0.4758 0.98807 0.94408 0.0
C855 C 0.49044 0.97561 0.95202 0.0
H856 H 0.54858 0.09414 0.99819 0.0
H857 H 0.48725 0.95624 0.94628 0.0
H858 H 0.45231 0.01751 0.92992 0.0
H859 H 0.52467 0.11905 0.98533 0.0
H860 H 0.52069 0.97814 0.97237 0.0
H861 H 0.60699 0.12196 0.09565 0.0
H862 H 0.4613 0.97823 0.932 0.0
H863 H 0.58535 0.97741 0.05162 0.0
H864 H 0.57611 0.08973 0.07613 0.0
H865 H 0.62034 0.96686 0.06161 0.0
H866 H 0.46141 0.06154 0.94218 0.0
H867 H 0.64303 0.11352 0.106 0.0
H868 H 0.66622 0.08386 0.10623 0.0
H869 H 0.48788 0.09949 0.96342 0.0
H870 H 0.67011 0.0422 0.09635 0.0
N871 N 0.59345 0.06153 0.07521 0.0
C872 C 0.5912 0.08483 0.08059 0.0
C873 C 0.62928 0.09882 0.0975 0.0
C874 C 0.63172 0.07517 0.09209 0.0
C875 C 0.60897 0.10364 0.09171 0.0
C876 C 0.61336 0.05658 0.08074 0.0
H877 H 0.65334 0.9988 0.07965 0.0
N878 N 0.59849 0.01537 0.06265 0.0
C879 C 0.61942 0.98554 0.0651 0.0
C880 C 0.61586 0.03301 0.07446 0.0
C881 C 0.59962 0.99169 0.05943 0.0
C882 C 0.63796 1.00361 0.0753 0.0
C883 C 0.63627 0.02758 0.08049 0.0
O884 O 0.55415 0.99386 0.06772 0.0
O885 O 0.54004 0.01424 0.02325 0.0
O886 O 0.53707 0.06331 0.02465 0.0
O887 O 0.54712 0.05731 0.06284 0.0
O888 O 0.52783 0.01709 0.05617 0.0
O889 O 0.56557 0.02834 0.09343 0.0
O890 O 0.56857 0.05984 0.97812 0.0
O891 O 0.57167 0.04976 0.0291 0.0
O892 O 0.57999 1.00662 0.02585 0.0
O893 O 0.55409 0.99959 0.99359 0.0
O894 O 0.58429 0.04769 0.99652 0.0
O895 O 0.5514 0.02354 0.95874 0.0
C896 C 0.52261 0.01109 0.03353 0.0
C897 C 0.5464 0.99501 0.10779 0.0
C898 C 0.51715 0.99466 0.134 0.0
C899 C 0.5272 1.0021 0.11461 0.0
C900 C 0.52652 0.97958 0.14586 0.0
C901 C 0.55515 0.97968 0.11949 0.0
C902 C 0.54517 0.97192 0.1384 0.0
C903 C 0.5383 0.06857 0.0482 0.0
C904 C 0.55899 1.00488 0.09007 0.0
C905 C 0.65432 0.04607 0.09181 0.0
C906 C 0.65208 0.06978 0.0975 0.0
C907 C 0.58909 0.05295 0.01903 0.0
C908 C 0.5649 0.05366 0.93708 0.0
C909 C 0.58505 0.05847 0.92779 0.0
C910 C 0.58733 0.06957 0.90853 0.0
C911 C 0.56917 0.07682 0.89907 0.0
C912 C 0.54671 0.06078 0.92783 0.0
C913 C 0.54894 0.07247 0.9088 0.0
C914 C 0.57218 0.996 0.00375 0.0
C915 C 0.56513 0.0439 0.95822 0.0
H916 H 0.52055 0.01375 0.10514 0.0
H917 H 0.51994 0.97421 0.16144 0.0
H918 H 0.5701 0.97425 0.11439 0.0
H919 H 0.55227 0.96048 0.14774 0.0
H920 H 0.59918 0.05353 0.93572 0.0
H921 H 0.57044 0.08517 0.88387 0.0
H922 H 0.53112 0.05763 0.9354 0.0
H923 H 0.53496 0.078 0.90149 0.0
Eu924 Eu 0.31801 0.3059 0.28492 0.0
C925 C 0.2273 0.23233 0.24477 0.0
C926 C 0.21456 0.21972 0.28007 0.0
C927 C 0.18847 0.21307 0.24519 0.0
C928 C 0.23198 0.22955 0.26757 0.0
C929 C 0.20548 0.2241 0.23331 0.0
C930 C 0.193 0.21091 0.26855 0.0
C931 C 0.21889 0.2372 0.19865 0.0
N932 N 0.24402 0.2433 0.2338 0.0
C933 C 0.2402 0.24475 0.21062 0.0
C934 C 0.20139 0.22695 0.2101 0.0
Eu935 Eu 0.28067 0.25001 0.25202 0.0
N936 N 0.25292 0.23908 0.27845 0.0
C937 C 0.25626 0.24234 0.30278 0.0
C938 C 0.21896 0.22043 0.30421 0.0
C939 C 0.23973 0.23246 0.31575 0.0
H940 H 0.25375 0.25027 0.20069 0.0
H941 H 0.24291 0.23474 0.3348 0.0
H942 H 0.17957 0.20311 0.27782 0.0
H943 H 0.21614 0.23857 0.18033 0.0
H944 H 0.27118 0.25348 0.31289 0.0
H945 H 0.36872 0.32493 0.21372 0.0
H946 H 0.20605 0.21319 0.3144 0.0
H947 H 0.33341 0.30939 0.34217 0.0
H948 H 0.33569 0.30564 0.22972 0.0
H949 H 0.36742 0.32244 0.37013 0.0
H950 H 0.17169 0.20651 0.23661 0.0
H951 H 0.40341 0.34332 0.24016 0.0
H952 H 0.42477 0.34875 0.27984 0.0
H953 H 0.1849 0.2208 0.2007 0.0
H954 H 0.42481 0.34607 0.32184 0.0
N955 N 0.35063 0.31425 0.26553 0.0
C956 C 0.35037 0.31394 0.24176 0.0
C957 C 0.38889 0.33457 0.24731 0.0
C958 C 0.38968 0.33275 0.27109 0.0
C959 C 0.36929 0.32452 0.23241 0.0
C960 C 0.36994 0.32263 0.27988 0.0
H961 H 0.40362 0.33594 0.35555 0.0
N962 N 0.35037 0.31262 0.31156 0.0
C963 C 0.36844 0.32187 0.35137 0.0
C964 C 0.3699 0.32129 0.3035 0.0
C965 C 0.34926 0.31415 0.33541 0.0
C966 C 0.38881 0.32952 0.34309 0.0
C967 C 0.38968 0.32986 0.319 0.0
O968 O 0.31365 0.33227 0.31559 0.0
O969 O 0.28291 0.28722 0.27115 0.0
O970 O 0.28084 0.27899 0.23003 0.0
O971 O 0.30571 0.31429 0.25056 0.0
O972 O 0.28931 0.30087 0.30697 0.0
O973 O 0.32359 0.34383 0.28292 0.0
O974 O 0.28766 0.2366 0.21572 0.0
O975 O 0.31439 0.27394 0.25617 0.0
O976 O 0.32203 0.2765 0.30435 0.0
O977 O 0.29504 0.24144 0.28603 0.0
O978 O 0.31243 0.23778 0.25536 0.0
O979 O 0.26826 0.21233 0.23467 0.0
C980 C 0.27386 0.29168 0.28972 0.0
C981 C 0.32081 0.37466 0.31684 0.0
C982 C 0.31273 0.41276 0.3146 0.0
C983 C 0.31443 0.38987 0.3035 0.0
C984 C 0.31812 0.42092 0.3392 0.0
C985 C 0.32648 0.38269 0.34147 0.0
C986 C 0.32536 0.40595 0.35256 0.0
C987 C 0.29216 0.30152 0.23166 0.0
C988 C 0.3197 0.34995 0.305 0.0
C989 C 0.40948 0.33941 0.31021 0.0
C990 C 0.40945 0.34103 0.28633 0.0
C991 C 0.32555 0.25843 0.25656 0.0
C992 C 0.29248 0.19708 0.2094 0.0
C993 C 0.30225 0.18832 0.22719 0.0
C994 C 0.31613 0.17251 0.22192 0.0
C995 C 0.31998 0.16524 0.19807 0.0
C996 C 0.29661 0.18996 0.18581 0.0
C997 C 0.3103 0.17401 0.18018 0.0
C998 C 0.31082 0.25411 0.30336 0.0
C999 C 0.27866 0.21429 0.2159 0.0
H1000 H 0.30941 0.38336 0.28458 0.0
H1001 H 0.31651 0.4386 0.34795 0.0
H1002 H 0.33149 0.37095 0.35206 0.0
H1003 H 0.32958 0.41214 0.37156 0.0
H1004 H 0.29922 0.19427 0.24538 0.0
H1005 H 0.33017 0.15256 0.1931 0.0
H1006 H 0.2893 0.19673 0.17183 0.0
H1007 H 0.31339 0.16837 0.16191 0.0
Eu1008 Eu 0.55242 0.56437 0.03724 0.0
C1009 C 0.58848 0.49564 0.96124 0.0
C1010 C 0.55882 0.48055 0.92913 0.0
C1011 C 0.59672 0.48067 0.92113 0.0
C1012 C 0.56625 0.49088 0.95329 0.0
C1013 C 0.60395 0.49035 0.94529 0.0
C1014 C 0.5742 0.47578 0.91307 0.0
C1015 C 0.63243 0.50323 0.97845 0.0
N1016 N 0.5949 0.50468 0.98474 0.0
C1017 C 0.61647 0.508 0.99361 0.0
C1018 C 0.62617 0.4945 0.95416 0.0
Eu1019 Eu 0.5668 0.51177 0.00938 0.0
N1020 N 0.55176 0.49529 0.96932 0.0
C1021 C 0.5295 0.48845 0.96257 0.0
C1022 C 0.53609 0.4747 0.92195 0.0
C1023 C 0.52136 0.47843 0.93881 0.0
H1024 H 0.62155 0.51468 0.01234 0.0
H1025 H 0.5037 0.47349 0.93357 0.0
H1026 H 0.5688 0.46791 0.89446 0.0
H1027 H 0.64953 0.50625 0.98553 0.0
H1028 H 0.51783 0.49082 0.97538 0.0
H1029 H 0.61993 0.61209 0.10653 0.0
H1030 H 0.52973 0.46679 0.90357 0.0
H1031 H 0.49772 0.55755 0.03909 0.0
H1032 H 0.60344 0.58974 0.06687 0.0
H1033 H 0.47142 0.56575 0.06828 0.0
H1034 H 0.60837 0.47652 0.90861 0.0
H1035 H 0.59617 0.61983 0.13861 0.0
H1036 H 0.55804 0.61654 0.15131 0.0
H1037 H 0.63855 0.49069 0.94247 0.0
H1038 H 0.51772 0.60397 0.14097 0.0
N1039 N 0.57017 0.58411 0.07578 0.0
C1040 C 0.59258 0.59272 0.0804 0.0
C1041 C 0.5887 0.60983 0.12109 0.0
C1042 C 0.56573 0.60174 0.11615 0.0
C1043 C 0.60215 0.60555 0.10304 0.0
C1044 C 0.55682 0.58891 0.09298 0.0
H1045 H 0.48533 0.58507 0.11014 0.0
N1046 N 0.52617 0.57103 0.06438 0.0
C1047 C 0.48901 0.57042 0.07384 0.0
C1048 C 0.53415 0.58208 0.08713 0.0
C1049 C 0.50396 0.56579 0.05736 0.0
C1050 C 0.49693 0.58125 0.09745 0.0
C1051 C 0.51974 0.58755 0.1043 0.0
O1052 O 0.53506 0.58874 0.02453 0.0
O1053 O 0.55271 0.5421 1.00038 0.0
O1054 O 0.58915 0.54099 0.99614 0.0
O1055 O 0.58819 0.57128 0.02815 0.0
O1056 O 0.52357 0.55123 0.00767 0.0
O1057 O 0.57066 0.60011 0.03467 0.0
O1058 O 0.58048 0.48574 0.02379 0.0
O1059 O 0.5665 0.53412 0.04639 0.0
O1060 O 0.53092 0.5341 0.05036 0.0
O1061 O 0.53067 0.5051 0.01697 0.0
O1062 O 0.5951 0.52416 0.03973 0.0
O1063 O 0.54656 0.47552 0.00675 0.0
C1064 C 0.53336 0.54137 0.99072 0.0
C1065 C 0.55084 0.63039 0.0345 0.0
C1066 C 0.55671 0.6702 0.02593 0.0
C1067 C 0.55994 0.64683 0.02115 0.0
C1068 C 0.5443 0.67714 0.04454 0.0
C1069 C 0.53867 0.63732 0.05326 0.0
C1070 C 0.53549 0.66076 0.05828 0.0
C1071 C 0.59739 0.56263 0.00929 0.0
C1072 C 0.55293 0.60578 0.02665 0.0
C1073 C 0.52852 0.59963 0.12755 0.0
C1074 C 0.55148 0.60675 0.13345 0.0
C1075 C 0.58569 0.53484 0.05652 0.0
C1076 C 0.56473 0.44442 0.01009 0.0
C1077 C 0.55446 0.42814 0.02292 0.0
C1078 C 0.55958 0.40571 0.02101 0.0
C1079 C 0.57365 0.3988 0.00409 0.0
C1080 C 0.57893 0.43776 0.99338 0.0
C1081 C 0.583 0.41471 0.99009 0.0
C1082 C 0.52186 0.51309 0.03631 0.0
C1083 C 0.56238 0.46892 0.01759 0.0
H1084 H 0.56887 0.64107 0.0063 0.0
H1085 H 0.5415 0.69514 0.04843 0.0
H1086 H 0.53137 0.6246 0.06362 0.0
H1087 H 0.52595 0.66615 0.0726 0.0
H1088 H 0.54325 0.4336 0.03549 0.0
H1089 H 0.57799 0.38157 1.00222 0.0
H1090 H 0.58715 0.45044 0.98345 0.0
H1091 H 0.59407 0.40949 0.97734 0.0
Eu1092 Eu 0.83175 0.30678 0.26441 0.0
C1093 C 0.77781 0.24266 0.32471 0.0
C1094 C 0.78424 0.20297 0.31057 0.0
C1095 C 0.77445 0.21414 0.35069 0.0
C1096 C 0.78339 0.22601 0.30691 0.0
C1097 C 0.7729 0.23675 0.34667 0.0
C1098 C 0.78014 0.1973 0.33268 0.0
C1099 C 0.7639 0.27534 0.35857 0.0
N1100 N 0.77636 0.26432 0.32023 0.0
C1101 C 0.76898 0.28042 0.33656 0.0
C1102 C 0.76609 0.25352 0.36376 0.0
Eu1103 Eu 0.78519 0.27136 0.28241 0.0
N1104 N 0.7869 0.2319 0.28564 0.0
C1105 C 0.78984 0.21501 0.26678 0.0
C1106 C 0.78857 0.18608 0.29167 0.0
C1107 C 0.79108 0.19204 0.26958 0.0
H1108 H 0.7672 0.29739 0.33297 0.0
H1109 H 0.79396 0.17896 0.25469 0.0
H1110 H 0.78084 0.17975 0.33586 0.0
H1111 H 0.75837 0.28832 0.37154 0.0
H1112 H 0.79158 0.21923 0.24955 0.0
H1113 H 0.82513 0.39828 0.30291 0.0
H1114 H 0.78945 0.16823 0.29379 0.0
H1115 H 0.84454 0.28429 0.21028 0.0
H1116 H 0.82737 0.35682 0.30331 0.0
H1117 H 0.8496 0.29653 0.17196 0.0
H1118 H 0.77086 0.20933 0.36749 0.0
H1119 H 0.82713 0.41273 0.2654 0.0
H1120 H 0.83228 0.40465 0.22201 0.0
H1121 H 0.76215 0.24965 0.38083 0.0
H1122 H 0.8391 0.37714 0.18652 0.0
N1123 N 0.82989 0.34724 0.26613 0.0
C1124 C 0.82822 0.36269 0.28673 0.0
C1125 C 0.82804 0.39438 0.26542 0.0
C1126 C 0.83082 0.37884 0.2446 0.0
C1127 C 0.82696 0.38632 0.28663 0.0
C1128 C 0.83181 0.35508 0.24554 0.0
H1129 H 0.8457 0.33691 0.16774 0.0
N1130 N 0.83716 0.3171 0.22724 0.0
C1131 C 0.84562 0.30879 0.18686 0.0
C1132 C 0.8356 0.33958 0.22553 0.0
C1133 C 0.84277 0.30193 0.20857 0.0
C1134 C 0.84336 0.33158 0.18454 0.0
C1135 C 0.83854 0.3474 0.20407 0.0
O1136 O 0.86499 0.30283 0.2589 0.0
O1137 O 0.82142 0.27192 0.27764 0.0
O1138 O 0.81014 0.28239 0.31449 0.0
O1139 O 0.82984 0.31649 0.30407 0.0
O1140 O 0.83923 0.27028 0.24889 0.0
O1141 O 0.86002 0.33123 0.28739 0.0
O1142 O 0.75116 0.27491 0.28213 0.0
O1143 O 0.79571 0.30594 0.26867 0.0
O1144 O 0.80601 0.29441 0.23307 0.0
O1145 O 0.79008 0.25928 0.2439 0.0
O1146 O 0.77817 0.30836 0.29726 0.0
O1147 O 0.75907 0.24495 0.25813 0.0
C1148 C 0.83081 0.2578 0.2637 0.0
C1149 C 0.89496 0.33619 0.27227 0.0
C1150 C 0.93446 0.34837 0.28447 0.0
C1151 C 0.91275 0.3399 0.28942 0.0
C1152 C 0.93781 0.35571 0.26283 0.0
C1153 C 0.89833 0.34345 0.25076 0.0
C1154 C 0.91975 0.35369 0.24632 0.0
C1155 C 0.82491 0.30303 0.31977 0.0
C1156 C 0.87419 0.32101 0.27614 0.0
C1157 C 0.83699 0.37083 0.20288 0.0
C1158 C 0.8331 0.3865 0.22309 0.0
C1159 C 0.78665 0.32051 0.2823 0.0
C1160 C 0.7226 0.2402 0.26905 0.0
C1161 C 0.70455 0.23885 0.25304 0.0
C1162 C 0.68301 0.22866 0.25731 0.0
C1163 C 0.67999 0.21776 0.27696 0.0
C1164 C 0.71958 0.22954 0.28872 0.0
C1165 C 0.69828 0.21795 0.29239 0.0
C1166 C 0.79463 0.27202 0.22762 0.0
C1167 C 0.74363 0.25541 0.26584 0.0
H1168 H 0.90966 0.33451 0.30609 0.0
H1169 H 0.95432 0.36199 0.25813 0.0
H1170 H 0.88464 0.34047 0.23721 0.0
H1171 H 0.92247 0.35897 0.22957 0.0
H1172 H 0.70729 0.24699 0.23776 0.0
H1173 H 0.66355 0.20996 0.28092 0.0
H1174 H 0.73346 0.23063 0.3014 0.0
H1175 H 0.69585 0.2099 0.3077 0.0
Eu1176 Eu 0.0609 0.52814 0.54472 0.0
C1177 C 0.99915 0.55836 0.47193 0.0
C1178 C 0.98185 0.51973 0.44627 0.0
C1179 C 0.96389 0.55299 0.44849 0.0
C1180 C 0.99956 0.53472 0.46253 0.0
C1181 C 0.98125 0.56772 0.46497 0.0
C1182 C 0.96425 0.52909 0.43907 0.0
C1183 C 1.00011 0.60645 0.48885 0.0
N1184 N 0.01662 0.57253 0.48704 0.0
C1185 C 0.01774 0.59662 0.49458 0.0
C1186 C 0.98169 0.5919 0.47409 0.0
Eu1187 Eu 0.04729 0.5555 0.49358 0.0
N1188 N 0.01734 0.52648 0.4689 0.0
C1189 C 0.01794 0.50304 0.45995 0.0
C1190 C 0.98242 0.49582 0.43739 0.0
C1191 C 0.0005 0.48741 0.4444 0.0
H1192 H 0.03242 0.6084 0.505 0.0
H1193 H 0.00107 0.46887 0.43777 0.0
H1194 H 0.9507 0.51791 0.42637 0.0
H1195 H 0.00098 0.62539 0.49536 0.0
H1196 H 0.03134 0.49563 0.46519 0.0
H1197 H 0.10802 0.61185 0.60471 0.0
H1198 H 0.96903 0.48372 0.42511 0.0
H1199 H 0.07361 0.47419 0.53508 0.0
H1200 H 0.0757 0.58509 0.5802 0.0
H1201 H 0.10609 0.457 0.54016 0.0
H1202 H 0.95013 0.55993 0.44282 0.0
H1203 H 0.14302 0.59881 0.6084 0.0
H1204 H 0.16372 0.56648 0.59863 0.0
H1205 H 0.96822 0.59967 0.46925 0.0
H1206 H 0.16337 0.52449 0.58067 0.0
N1207 N 0.09142 0.55602 0.56962 0.0
C1208 C 0.09045 0.57851 0.58149 0.0
C1209 C 0.12867 0.58665 0.59762 0.0
C1210 C 0.12953 0.5635 0.58602 0.0
C1211 C 0.10894 0.59403 0.59562 0.0
C1212 C 0.11033 0.5483 0.57221 0.0
H1213 H 0.14191 0.4835 0.55922 0.0
N1214 N 0.09109 0.51018 0.55031 0.0
C1215 C 0.10753 0.47611 0.5463 0.0
C1216 C 0.11019 0.52472 0.56211 0.0
C1217 C 0.08918 0.4859 0.54352 0.0
C1218 C 0.12773 0.49113 0.55698 0.0
C1219 C 0.12914 0.51565 0.56553 0.0
O1220 O 0.0465 0.49667 0.55846 0.0
O1221 O 0.03559 0.5326 0.51864 0.0
O1222 O 0.03558 0.57589 0.52553 0.0
O1223 O 0.04511 0.55924 0.55749 0.0
O1224 O 0.03223 0.49833 0.52423 0.0
O1225 O 0.04689 0.53279 0.57837 0.0
O1226 O 0.05996 0.58741 0.47958 0.0
O1227 O 0.07249 0.55143 0.51999 0.0
O1228 O 0.07433 0.50954 0.51328 0.0
O1229 O 0.06335 0.52436 0.48054 0.0
O1230 O 0.07691 0.58487 0.51301 0.0
O1231 O 0.05975 0.55128 0.45883 0.0
C1232 C 0.02307 0.51198 0.51381 0.0
C1233 C 0.04323 0.50199 0.59983 0.0
C1234 C 0.02869 0.50145 0.63767 0.0
C1235 C 0.02939 0.50924 0.61638 0.0
C1236 C 0.04199 0.48598 0.64245 0.0
C1237 C 0.05689 0.48685 0.60456 0.0
C1238 C 0.05622 0.47888 0.62594 0.0
C1239 C 0.03667 0.57476 0.54814 0.0
C1240 C 0.04139 0.50967 0.57746 0.0
C1241 C 0.14859 0.53106 0.57814 0.0
C1242 C 0.14877 0.55494 0.58838 0.0
C1243 C 0.08562 0.57172 0.52452 0.0
C1244 C 0.07411 0.5853 0.44125 0.0
C1245 C 0.08645 0.57298 0.42601 0.0
C1246 C 0.09737 0.58368 0.40891 0.0
C1247 C 0.09511 0.60669 0.40668 0.0
C1248 C 0.07201 0.60825 0.43897 0.0
C1249 C 0.08235 0.6188 0.42157 0.0
C1250 C 0.07277 0.50978 0.49046 0.0
C1251 C 0.06443 0.5745 0.46016 0.0
H1252 H 0.01865 0.52071 0.61244 0.0
H1253 H 0.04156 0.47971 0.65892 0.0
H1254 H 0.06773 0.48105 0.59178 0.0
H1255 H 0.06661 0.46709 0.62965 0.0
H1256 H 0.08778 0.55513 0.42769 0.0
H1257 H 0.10348 0.61552 0.39375 0.0
H1258 H 0.06247 0.61802 0.45064 0.0
H1259 H 0.08074 0.63652 0.41983 0.0
Eu1260 Eu 0.77985 0.79666 0.26907 0.0
C1261 C 0.85277 0.75994 0.3165 0.0
C1262 C 0.86836 0.79321 0.34968 0.0
C1263 C 0.86682 0.75221 0.35373 0.0
C1264 C 0.85804 0.7844 0.32621 0.0
C1265 C 0.85779 0.74365 0.32991 0.0
C1266 C 0.87206 0.77695 0.36361 0.0
C1267 C 0.84694 0.712 0.29455 0.0
N1268 N 0.84411 0.75222 0.29343 0.0
C1269 C 0.84216 0.72881 0.282 0.0
C1270 C 0.85435 0.71935 0.31874 0.0
Eu1271 Eu 0.83477 0.7817 0.27416 0.0
N1272 N 0.85432 0.79968 0.31228 0.0
C1273 C 0.86244 0.82397 0.32001 0.0
C1274 C 0.87538 0.8181 0.35819 0.0
C1275 C 0.87287 0.83351 0.34309 0.0
H1276 H 0.8362 0.7231 0.26331 0.0
H1277 H 0.87872 0.85279 0.34929 0.0
H1278 H 0.87966 0.78337 0.38178 0.0
H1279 H 0.84474 0.69337 0.28561 0.0
H1280 H 0.8605 0.83629 0.30882 0.0
H1281 H 0.73503 0.72978 0.19148 0.0
H1282 H 0.88337 0.82556 0.37609 0.0
H1283 H 0.77783 0.85444 0.28503 0.0
H1284 H 0.75657 0.74402 0.23044 0.0
H1285 H 0.76684 0.88594 0.26711 0.0
H1286 H 0.87048 0.73992 0.36442 0.0
H1287 H 0.72507 0.75895 0.16949 0.0
H1288 H 0.7269 0.80189 0.16753 0.0
H1289 H 0.85803 0.70629 0.32844 0.0
H1290 H 0.73603 0.84458 0.18791 0.0
N1291 N 0.75984 0.78126 0.23076 0.0
C1292 C 0.75261 0.75715 0.22127 0.0
C1293 C 0.73503 0.76541 0.1865 0.0
C1294 C 0.74186 0.79002 0.1965 0.0
C1295 C 0.74039 0.7489 0.19897 0.0
C1296 C 0.7541 0.79747 0.21912 0.0
H1297 H 0.75058 0.87603 0.22519 0.0
N1298 N 0.76904 0.82747 0.25316 0.0
C1299 C 0.76471 0.8679 0.25658 0.0
C1300 C 0.75908 0.82138 0.2306 0.0
C1301 C 0.77089 0.85006 0.26665 0.0
C1302 C 0.75561 0.86225 0.2329 0.0
C1303 C 0.75219 0.83863 0.21976 0.0
O1304 O 0.76139 0.80937 0.2982 0.0
O1305 O 0.80749 0.79286 0.29315 0.0
O1306 O 0.80957 0.75053 0.28383 0.0
O1307 O 0.77592 0.75598 0.26858 0.0
O1308 O 0.79519 0.82327 0.3029 0.0
O1309 O 0.74757 0.7753 0.27451 0.0
O1310 O 0.85169 0.7687 0.2439 0.0
O1311 O 0.80738 0.78591 0.24977 0.0
O1312 O 0.80442 0.82878 0.26058 0.0
O1313 O 0.83884 0.82187 0.27192 0.0
O1314 O 0.81918 0.75483 0.24072 0.0
O1315 O 0.86948 0.7987 0.2709 0.0
C1316 C 0.80913 0.81158 0.30906 0.0
C1317 C 0.72241 0.79689 0.29242 0.0
C1318 C 0.68665 0.7957 0.30876 0.0
C1319 C 0.70748 0.7896 0.30861 0.0
C1320 C 0.68148 0.80968 0.29282 0.0
C1321 C 0.71641 0.81024 0.27645 0.0
C1322 C 0.69616 0.81672 0.2768 0.0
C1323 C 0.78797 0.74249 0.27698 0.0
C1324 C 0.74441 0.79113 0.29253 0.0
C1325 C 0.74125 0.83156 0.19663 0.0
C1326 C 0.73603 0.80726 0.18504 0.0
C1327 C 0.80578 0.76698 0.23402 0.0
C1328 C 0.89045 0.77415 0.24833 0.0
C1329 C 0.9073 0.78362 0.23502 0.0
C1330 C 0.92505 0.77229 0.23021 0.0
C1331 C 0.92502 0.75103 0.23844 0.0
C1332 C 0.89176 0.75374 0.25719 0.0
C1333 C 0.90875 0.74213 0.25205 0.0
C1334 C 0.82632 0.8359 0.26536 0.0
C1335 C 0.87052 0.78405 0.25104 0.0
H1336 H 0.71198 0.77901 0.32077 0.0
H1337 H 0.66605 0.8154 0.29281 0.0
H1338 H 0.72743 0.81583 0.26381 0.0
H1339 H 0.69183 0.82732 0.2646 0.0
H1340 H 0.9065 0.79963 0.22847 0.0
H1341 H 0.93753 0.741 0.23425 0.0
H1342 H 0.87937 0.74639 0.26762 0.0
H1343 H 0.90916 0.72595 0.25843 0.0
Eu1344 Eu 0.8174 0.28009 0.75114 0.0
C1345 C 0.7865 0.35888 0.82608 0.0
C1346 C 0.82138 0.37988 0.84912 0.0
C1347 C 0.79025 0.39874 0.85104 0.0
C1348 C 0.80804 0.35916 0.83359 0.0
C1349 C 0.77748 0.37885 0.83447 0.0
C1350 C 0.8122 0.39929 0.8583 0.0
C1351 C 0.74411 0.3587 0.8087 0.0
N1352 N 0.7748 0.33973 0.80947 0.0
C1353 C 0.75369 0.33939 0.80091 0.0
C1354 C 0.756 0.37848 0.82566 0.0
Eu1355 Eu 0.7897 0.30489 0.80167 0.0
N1356 N 0.8165 0.34015 0.82411 0.0
C1357 C 0.83895 0.34247 0.8275 0.0
C1358 C 0.84383 0.38102 0.85418 0.0
C1359 C 0.85275 0.36251 0.84277 0.0
H1360 H 0.74362 0.32391 0.78857 0.0
H1361 H 0.87036 0.36377 0.84546 0.0
H1362 H 0.82214 0.41514 0.87045 0.0
H1363 H 0.72739 0.35813 0.80187 0.0
H1364 H 0.84682 0.32939 0.81799 0.0
H1365 H 0.75043 0.22007 0.687 0.0
H1366 H 0.8546 0.39664 0.86585 0.0
H1367 H 0.86671 0.27018 0.76839 0.0
H1368 H 0.76787 0.25616 0.71644 0.0
H1369 H 0.88604 0.23728 0.76377 0.0
H1370 H 0.78351 0.41409 0.85783 0.0
H1371 H 0.76841 0.18595 0.67899 0.0
H1372 H 0.80095 0.16898 0.68665 0.0
H1373 H 0.7485 0.39343 0.83171 0.0
H1374 H 0.83661 0.17264 0.70917 0.0
N1375 N 0.79624 0.24354 0.72621 0.0
C1376 C 0.77642 0.24191 0.71358 0.0
C1377 C 0.7763 0.20193 0.6923 0.0
C1378 C 0.79658 0.20359 0.70497 0.0
C1379 C 0.76617 0.22116 0.69669 0.0
C1380 C 0.80616 0.22474 0.72227 0.0
H1381 H 0.86796 0.19753 0.7386 0.0
N1382 N 0.83627 0.24834 0.74946 0.0
C1383 C 0.86921 0.234 0.75568 0.0
C1384 C 0.82656 0.22706 0.73453 0.0
C1385 C 0.85797 0.25247 0.75861 0.0
C1386 C 0.85896 0.21163 0.7415 0.0
C1387 C 0.83776 0.20821 0.72999 0.0
O1388 O 0.84923 0.29364 0.73919 0.0
O1389 O 0.80913 0.31275 0.77212 0.0
O1390 O 0.77044 0.3072 0.76744 0.0
O1391 O 0.7887 0.29325 0.73514 0.0
O1392 O 0.84228 0.31361 0.76923 0.0
O1393 O 0.8189 0.28614 0.71475 0.0
O1394 O 0.75449 0.28926 0.80137 0.0
O1395 O 0.78962 0.27337 0.77273 0.0
O1396 O 0.83274 0.27334 0.78592 0.0
O1397 O 0.81971 0.29485 0.8189 0.0
O1398 O 0.78797 0.26715 0.80711 0.0
O1399 O 0.77475 0.3054 0.83493 0.0
C1400 C 0.82809 0.32627 0.77511 0.0
C1401 C 0.85412 0.30097 0.70011 0.0
C1402 C 0.86118 0.3255 0.67068 0.0
C1403 C 0.84682 0.3146 0.68531 0.0
C1404 C 0.88266 0.32147 0.67015 0.0
C1405 C 0.87559 0.29716 0.69956 0.0
C1406 C 0.88969 0.30714 0.68436 0.0
C1407 C 0.77214 0.30183 0.74428 0.0
C1408 C 0.84041 0.29368 0.71827 0.0
C1409 C 0.82813 0.18713 0.71306 0.0
C1410 C 0.80783 0.18505 0.70024 0.0
C1411 C 0.78751 0.25756 0.78492 0.0
C1412 C 0.74373 0.27342 0.83428 0.0
C1413 C 0.7557 0.26054 0.84591 0.0
C1414 C 0.74472 0.24147 0.85546 0.0
C1415 C 0.72143 0.2351 0.85286 0.0
C1416 C 0.72054 0.26694 0.83177 0.0
C1417 C 0.70945 0.24778 0.841 0.0
C1418 C 0.83354 0.28201 0.80918 0.0
C1419 C 0.75522 0.29344 0.82444 0.0
H1420 H 0.8302 0.31745 0.68591 0.0
H1421 H 0.89419 0.32983 0.65922 0.0
H1422 H 0.88156 0.28685 0.71116 0.0
H1423 H 0.9063 0.30431 0.68406 0.0
H1424 H 0.77362 0.26543 0.84766 0.0
H1425 H 0.7125 0.22075 0.86048 0.0
H1426 H 0.71106 0.27673 0.82272 0.0
H1427 H 0.69154 0.2429 0.83918 0.0
Eu1428 Eu 0.81866 0.80781 0.78058 0.0
C1429 C 0.7299 0.72901 0.74162 0.0
C1430 C 0.71662 0.71888 0.77773 0.0
C1431 C 0.69165 0.70751 0.74139 0.0
C1432 C 0.73408 0.72854 0.76527 0.0
C1433 C 0.70847 0.71903 0.72959 0.0
C1434 C 0.69571 0.70746 0.76545 0.0
C1435 C 0.72138 0.73381 0.69552 0.0
N1436 N 0.7463 0.74123 0.73109 0.0
C1437 C 0.74234 0.74328 0.70807 0.0
C1438 C 0.70439 0.72149 0.70625 0.0
Eu1439 Eu 0.78284 0.74958 0.75054 0.0
N1440 N 0.75431 0.74063 0.7767 0.0
C1441 C 0.75667 0.7465 0.80112 0.0
C1442 C 0.72018 0.72241 0.8024 0.0
C1443 C 0.74006 0.73697 0.81418 0.0
H1444 H 0.75543 0.75115 0.6986 0.0
H1445 H 0.74251 0.74124 0.83341 0.0
H1446 H 0.68227 0.69957 0.77467 0.0
H1447 H 0.71849 0.73554 0.67734 0.0
H1448 H 0.77103 0.75894 0.81106 0.0
H1449 H 0.87168 0.82818 0.71144 0.0
H1450 H 0.70721 0.71534 0.81259 0.0
H1451 H 0.83245 0.81692 0.83863 0.0
H1452 H 0.83821 0.809 0.72646 0.0
H1453 H 0.86544 0.82914 0.86786 0.0
H1454 H 0.6752 0.69945 0.73232 0.0
H1455 H 0.9055 0.84755 0.73888 0.0
H1456 H 0.92504 0.85647 0.77996 0.0
H1457 H 0.68817 0.71411 0.69644 0.0
H1458 H 0.92413 0.85357 0.8218 0.0
N1459 N 0.85215 0.81697 0.76258 0.0
C1460 C 0.8525 0.81723 0.73894 0.0
C1461 C 0.89079 0.83865 0.74564 0.0
C1462 C 0.89079 0.83741 0.76957 0.0
C1463 C 0.87171 0.82794 0.73015 0.0
C1464 C 0.87103 0.82607 0.77755 0.0
H1465 H 0.90227 0.84227 0.85455 0.0
N1466 N 0.85048 0.81662 0.80862 0.0
C1467 C 0.86721 0.82749 0.8491 0.0
C1468 C 0.87031 0.82517 0.80117 0.0
C1469 C 0.84856 0.81941 0.83243 0.0
C1470 C 0.88791 0.83504 0.84153 0.0
C1471 C 0.88952 0.83493 0.81746 0.0
O1472 O 0.81264 0.83585 0.80847 0.0
O1473 O 0.78383 0.78767 0.76652 0.0
O1474 O 0.78501 0.7751 0.72527 0.0
O1475 O 0.80627 0.81293 0.74467 0.0
O1476 O 0.78987 0.80374 0.80222 0.0
O1477 O 0.82121 0.84406 0.7745 0.0
O1478 O 0.78946 0.73432 0.71465 0.0
O1479 O 0.81632 0.774 0.75464 0.0
O1480 O 0.82064 0.78066 0.80383 0.0
O1481 O 0.79613 0.74346 0.78603 0.0
O1482 O 0.81515 0.73845 0.75667 0.0
O1483 O 0.77075 0.71141 0.73529 0.0
C1484 C 0.77471 0.79383 0.78476 0.0
C1485 C 0.82861 0.87633 0.80816 0.0
C1486 C 0.82972 0.91862 0.81258 0.0
C1487 C 0.82222 0.8949 0.80007 0.0
C1488 C 0.84416 0.92394 0.83348 0.0
C1489 C 0.84339 0.88143 0.82884 0.0
C1490 C 0.85127 0.9053 0.84136 0.0
C1491 C 0.79446 0.79781 0.72587 0.0
C1492 C 0.81683 0.8522 0.79595 0.0
C1493 C 0.90932 0.84575 0.80952 0.0
C1494 C 0.9098 0.84753 0.78575 0.0
C1495 C 0.82787 0.75922 0.75694 0.0
C1496 C 0.79377 0.69487 0.70956 0.0
C1497 C 0.80373 0.68683 0.72764 0.0
C1498 C 0.81718 0.67075 0.72255 0.0
C1499 C 0.82097 0.66261 0.69893 0.0
C1500 C 0.7973 0.68667 0.68591 0.0
C1501 C 0.81091 0.67052 0.68063 0.0
C1502 C 0.81025 0.75814 0.80382 0.0
C1503 C 0.78036 0.71235 0.71589 0.0
H1504 H 0.81015 0.89066 0.78454 0.0
H1505 H 0.84969 0.94226 0.84363 0.0
H1506 H 0.84832 0.86715 0.83562 0.0
H1507 H 0.8624 0.90927 0.85749 0.0
H1508 H 0.80111 0.6932 0.74597 0.0
H1509 H 0.8313 0.64993 0.69465 0.0
H1510 H 0.78966 0.69282 0.67167 0.0
H1511 H 0.81364 0.66412 0.66238 0.0
Eu1512 Eu 0.53608 0.52396 0.51092 0.0
C1513 C 0.59048 0.61874 0.55504 0.0
C1514 C 0.6037 0.6365 0.52247 0.0
C1515 C 0.59638 0.66206 0.55815 0.0
C1516 C 0.59728 0.61598 0.53243 0.0
C1517 C 0.59065 0.64199 0.56836 0.0
C1518 C 0.60318 0.65934 0.53542 0.0
C1519 C 0.58498 0.62514 0.60292 0.0
N1520 N 0.5861 0.5993 0.56509 0.0
C1521 C 0.58557 0.60277 0.58923 0.0
C1522 C 0.58688 0.64476 0.59226 0.0
Eu1523 Eu 0.58699 0.56118 0.5412 0.0
N1524 N 0.5993 0.59383 0.52097 0.0
C1525 C 0.60923 0.59208 0.50021 0.0
C1526 C 0.61153 0.63381 0.50021 0.0
C1527 C 0.61455 0.61155 0.48919 0.0
H1528 H 0.58599 0.5884 0.59835 0.0
H1529 H 0.62174 0.6095 0.47248 0.0
H1530 H 0.60896 0.67523 0.52839 0.0
H1531 H 0.58374 0.62733 0.62182 0.0
H1532 H 0.61421 0.57634 0.49188 0.0
H1533 H 0.52397 0.45847 0.56778 0.0
H1534 H 0.61628 0.64904 0.49191 0.0
H1535 H 0.52561 0.51533 0.45233 0.0
H1536 H 0.53514 0.49847 0.5587 0.0
H1537 H 0.5127 0.48174 0.4174 0.0
H1538 H 0.59672 0.67995 0.56817 0.0
H1539 H 0.51124 0.42247 0.53518 0.0
H1540 H 0.50311 0.40495 0.49144 0.0
H1541 H 0.587 0.66228 0.60301 0.0
H1542 H 0.50067 0.41117 0.4505 0.0
N1543 N 0.52917 0.48568 0.52113 0.0
C1544 C 0.5296 0.4831 0.54419 0.0
C1545 C 0.51624 0.44009 0.53106 0.0
C1546 C 0.51548 0.44281 0.50751 0.0
C1547 C 0.52335 0.46034 0.54948 0.0
C1548 C 0.52202 0.46616 0.50307 0.0
H1549 H 0.50428 0.43971 0.4227 0.0
N1550 N 0.52609 0.49244 0.47673 0.0
C1551 C 0.51504 0.47804 0.43491 0.0
C1552 C 0.52068 0.46964 0.48012 0.0
C1553 C 0.52248 0.49699 0.45467 0.0
C1554 C 0.51033 0.45436 0.43798 0.0
C1555 C 0.51273 0.44992 0.46084 0.0
O1556 O 0.5106 0.53796 0.4946 0.0
O1557 O 0.55463 0.56282 0.52443 0.0
O1558 O 0.5609 0.55902 0.56917 0.0
O1559 O 0.5279 0.535 0.54943 0.0
O1560 O 0.54396 0.55171 0.48836 0.0
O1561 O 0.50218 0.51579 0.52023 0.0
O1562 O 0.60147 0.55694 0.57489 0.0
O1563 O 0.56503 0.52415 0.53596 0.0
O1564 O 0.56132 0.5177 0.48353 0.0
O1565 O 0.59386 0.54488 0.50232 0.0
O1566 O 0.59797 0.52627 0.53092 0.0
O1567 O 0.62207 0.57623 0.55253 0.0
C1568 C 0.55291 0.57004 0.50513 0.0
C1569 C 0.47293 0.52031 0.49481 0.0
C1570 C 0.43625 0.52799 0.49315 0.0
C1571 C 0.45847 0.53463 0.50236 0.0
C1572 C 0.42883 0.50715 0.47507 0.0
C1573 C 0.46564 0.4994 0.47701 0.0
C1574 C 0.44356 0.49299 0.46699 0.0
C1575 C 0.53956 0.54859 0.5692 0.0
C1576 C 0.49535 0.52844 0.50646 0.0
C1577 C 0.50676 0.42656 0.46507 0.0
C1578 C 0.50809 0.42302 0.48838 0.0
C1579 C 0.57927 0.51151 0.53125 0.0
C1580 C 0.63939 0.55856 0.57962 0.0
C1581 C 0.64994 0.54538 0.56289 0.0
C1582 C 0.66785 0.53676 0.57042 0.0
C1583 C 0.67481 0.54098 0.59483 0.0
C1584 C 0.64641 0.56267 0.60391 0.0
C1585 C 0.66405 0.55383 0.61148 0.0
C1586 C 0.58236 0.52909 0.48309 0.0
C1587 C 0.62123 0.56853 0.5723 0.0
H1588 H 0.46463 0.55109 0.51575 0.0
H1589 H 0.41167 0.50157 0.4676 0.0
H1590 H 0.47684 0.48818 0.47098 0.0
H1591 H 0.43778 0.47687 0.4532 0.0
H1592 H 0.64459 0.54233 0.54409 0.0
H1593 H 0.6885 0.53422 0.60101 0.0
H1594 H 0.63828 0.57282 0.61699 0.0
H1595 H 0.66946 0.55703 0.63024 0.0
Eu1596 Eu 0.08552 0.54218 0.01083 0.0
C1597 C 0.00564 0.49459 0.0591 0.0
C1598 C 0.98718 0.45932 0.02922 0.0
C1599 C 0.98569 0.45883 0.07111 0.0
C1600 C 1.00032 0.48304 0.03547 0.0
C1601 C 0.99792 0.48284 0.07719 0.0
C1602 C 0.98037 0.44707 0.04717 0.0
C1603 C 0.01331 0.52008 0.10574 0.0
N1604 N 0.01734 0.51781 0.06436 0.0
C1605 C 0.02053 0.53097 0.08716 0.0
C1606 C 0.00219 0.49581 0.10077 0.0
Eu1607 Eu 0.02988 0.53455 0.0321 0.0
N1608 N 0.0069 0.49548 0.01859 0.0
C1609 C 0.99951 0.48598 0.99519 0.0
C1610 C 0.98066 0.44892 0.00514 0.0
C1611 C 0.98655 0.46246 0.98808 0.0
H1612 H 0.02921 0.5497 0.09101 0.0
H1613 H 0.98122 0.45478 0.96945 0.0
H1614 H 0.97047 0.42875 0.04271 0.0
H1615 H 0.0163 0.53039 0.12386 0.0
H1616 H 0.00406 0.49624 0.98184 0.0
H1617 H 0.1363 0.62342 0.06983 0.0
H1618 H 0.97056 0.43075 0.9996 0.0
H1619 H 0.08442 0.52416 0.95178 0.0
H1620 H 0.11219 0.58269 0.05965 0.0
H1621 H 0.09777 0.54086 0.91775 0.0
H1622 H 0.9798 0.4494 0.08477 0.0
H1623 H 0.14845 0.64454 0.03799 0.0
H1624 H 0.1485 0.64396 0.9944 0.0
H1625 H 0.99652 0.48744 0.11519 0.0
H1626 H 0.13812 0.62149 0.95302 0.0
N1627 N 0.10962 0.58093 0.02237 0.0
C1628 C 0.11706 0.59168 0.04553 0.0
C1629 C 0.13754 0.62674 0.03341 0.0
C1630 C 0.1307 0.61522 0.00966 0.0
C1631 C 0.13083 0.61482 0.05141 0.0
C1632 C 0.11671 0.59191 0.00463 0.0
H1633 H 0.11955 0.58291 0.92431 0.0
N1634 N 0.09815 0.55655 0.97731 0.0
C1635 C 0.10148 0.55191 0.93555 0.0
C1636 C 0.11087 0.57931 0.98139 0.0
C1637 C 0.09395 0.5425 0.95488 0.0
C1638 C 0.11373 0.57567 0.93932 0.0
C1639 C 0.11883 0.5896 0.96248 0.0
O1640 O 0.10048 0.51218 0.99832 0.0
O1641 O 0.05517 0.51604 0.01646 0.0
O1642 O 0.0514 0.5223 0.05706 0.0
O1643 O 0.08558 0.54467 0.05047 0.0
O1644 O 0.06777 0.5079 0.98446 0.0
O1645 O 0.11656 0.53965 0.02896 0.0
O1646 O 0.01369 0.56308 0.0462 0.0
O1647 O 0.06039 0.56044 0.02731 0.0
O1648 O 0.06535 0.55818 0.9878 0.0
O1649 O 0.03083 0.53577 0.99308 0.0
O1650 O 0.04588 0.57023 0.05768 0.0
O1651 O 0.99844 0.53642 0.01453 0.0
C1652 C 0.05282 0.50022 0.99748 0.0
C1653 C 0.13888 0.51864 0.00527 0.0
C1654 C 0.16927 0.4986 1.00184 0.0
C1655 C 0.15009 0.50221 0.01207 0.0
C1656 C 0.17739 0.51172 0.98498 0.0
C1657 C 0.14722 0.5319 0.9886 0.0
C1658 C 0.16646 0.52845 0.97854 0.0
C1659 C 0.07225 0.53331 0.06374 0.0
C1660 C 0.11758 0.51999 0.01417 0.0
C1661 C 0.13202 0.61318 0.96733 0.0
C1662 C 0.13793 0.62598 0.99088 0.0
C1663 C 0.06177 0.5772 0.04537 0.0
C1664 C 0.97522 0.55543 0.03868 0.0
C1665 C 0.96452 0.57317 0.03424 0.0
C1666 C 0.94466 0.57514 0.04382 0.0
C1667 C 0.93548 0.55891 0.05772 0.0
C1668 C 0.9659 0.53928 0.05244 0.0
C1669 C 0.94603 0.54103 0.06188 0.0
C1670 C 0.04367 0.55138 0.98299 0.0
C1671 C 0.99678 0.5553 0.03009 0.0
H1672 H 0.1436 0.4918 0.02482 0.0
H1673 H 0.19222 0.50909 0.97695 0.0
H1674 H 0.1387 0.54456 0.9831 0.0
H1675 H 0.1728 0.53857 0.96556 0.0
H1676 H 0.97194 0.5858 0.02379 0.0
H1677 H 0.92001 0.55987 0.06508 0.0
H1678 H 0.97407 0.52556 0.05605 0.0
H1679 H 0.93884 0.52858 0.07254 0.0
C1680 C 0.00872 0.17821 0.96495 0.0
C1681 C 0.02433 0.20038 0.96961 0.0
C1682 C 0.01304 0.15812 0.97314 0.0
C1683 C 0.0339 0.15966 0.98553 0.0
C1684 C 0.04963 0.18212 0.99055 0.0
C1685 C 0.04454 0.20218 0.98291 0.0
C1686 C 0.99539 0.13497 0.96797 0.0
C1687 C 0.0724 0.18465 1.00274 0.0
C1688 C 0.04092 0.10876 0.01736 0.0
C1689 C 0.04739 0.0926 0.99922 0.0
C1690 C 0.03682 0.13081 0.01345 0.0
C1691 C 0.03983 0.13725 0.99109 0.0
C1692 C 0.04757 0.12147 0.97331 0.0
C1693 C 0.05066 0.09928 0.97736 0.0
C1694 C 0.02824 0.14666 0.03288 0.0
C1695 C 0.05221 0.12775 0.94965 0.0
H1696 H 0.99305 0.17652 0.95475 0.0
H1697 H 0.05691 0.21904 0.98636 0.0
H1698 H 0.0006 0.12122 0.95476 0.0
H1699 H 0.99309 0.12785 0.98437 0.0
H1700 H 0.97925 0.13737 0.96085 0.0
H1701 H 0.08177 0.20373 0.00802 0.0
H1702 H 0.07138 0.17678 0.01876 0.0
H1703 H 0.08188 0.17457 0.99045 0.0
H1704 H 0.03807 0.10367 0.03421 0.0
H1705 H 0.05571 0.08696 0.96325 0.0
H1706 H 0.01103 0.14707 0.0271 0.0
H1707 H 0.03831 0.16541 0.03629 0.0
H1708 H 0.02833 0.14019 0.04975 0.0
H1709 H 0.03648 0.12756 0.93948 0.0
H1710 H 0.06047 0.11495 0.93879 0.0
H1711 H 0.06291 0.14617 0.95236 0.0
C1712 C 0.16218 0.81087 0.17319 0.0
C1713 C 0.16494 0.82173 0.15352 0.0
C1714 C 0.18045 0.80753 0.18675 0.0
C1715 C 0.20226 0.81588 0.1811 0.0
C1716 C 0.20518 0.82726 0.16151 0.0
C1717 C 0.18654 0.82972 0.1478 0.0
C1718 C 0.17632 0.79464 0.20691 0.0
C1719 C 0.22805 0.83695 0.15509 0.0
C1720 C 0.24988 0.82535 0.23006 0.0
C1721 C 0.25837 0.8049 0.22317 0.0
C1722 C 0.23198 0.82936 0.21645 0.0
C1723 C 0.22194 0.81236 0.19542 0.0
C1724 C 0.23071 0.79187 0.18815 0.0
C1725 C 0.24905 0.78874 0.20172 0.0
C1726 C 0.22381 0.85186 0.22463 0.0
C1727 C 0.22039 0.77288 0.16628 0.0
H1728 H 0.14562 0.80444 0.17772 0.0
H1729 H 0.18892 0.83819 0.13273 0.0
H1730 H 0.18355 0.77862 0.20401 0.0
H1731 H 0.18459 0.80661 0.2239 0.0
H1732 H 0.1584 0.7887 0.20871 0.0
H1733 H 0.22767 0.84638 0.14016 0.0
H1734 H 0.23822 0.84967 0.17073 0.0
H1735 H 0.23644 0.82204 0.14998 0.0
H1736 H 0.25751 0.83852 0.24593 0.0
H1737 H 0.25567 0.77315 0.19575 0.0
H1738 H 0.20633 0.84701 0.22845 0.0
H1739 H 0.22429 0.86213 0.21031 0.0
H1740 H 0.23382 0.86373 0.24087 0.0
H1741 H 0.20255 0.76596 0.16774 0.0
H1742 H 0.22848 0.75748 0.16357 0.0
H1743 H 0.22152 0.78081 0.15031 0.0
C1744 C 0.55307 0.86427 0.46861 0.0
C1745 C 0.53322 0.84679 0.46653 0.0
C1746 C 0.55421 0.88877 0.47781 0.0
C1747 C 0.53485 0.89629 0.48451 0.0
C1748 C 0.51502 0.87854 0.48379 0.0
C1749 C 0.51448 0.85396 0.47498 0.0
C1750 C 0.57588 0.9068 0.47874 0.0
C1751 C 0.49396 0.88565 0.49058 0.0
C1752 C 0.54436 0.96297 0.51474 0.0
C1753 C 0.54295 0.97349 0.49499 0.0
C1754 C 0.54057 0.93772 0.51193 0.0
C1755 C 0.53496 0.92265 0.48887 0.0
C1756 C 0.53202 0.9333 0.46918 0.0
C1757 C 0.53644 0.95849 0.47243 0.0
C1758 C 0.5441 0.92742 0.53347 0.0
C1759 C 0.52536 0.91812 0.44436 0.0
H1760 H 0.56757 0.85886 0.462 0.0
H1761 H 0.49899 0.8406 0.47304 0.0
H1762 H 0.57475 0.91714 0.46467 0.0
H1763 H 0.57947 0.91985 0.49609 0.0
H1764 H 0.58995 0.898 0.47603 0.0
H1765 H 0.48084 0.8699 0.49217 0.0
H1766 H 0.4971 0.89905 0.50768 0.0
H1767 H 0.48775 0.89424 0.47686 0.0
H1768 H 0.54963 0.97448 0.53221 0.0
H1769 H 0.5353 0.96657 0.45714 0.0
H1770 H 0.56029 0.92235 0.53352 0.0
H1771 H 0.53112 0.91091 0.53302 0.0
H1772 H 0.54417 0.9406 0.55026 0.0
H1773 H 0.53921 0.91015 0.43816 0.0
H1774 H 0.52107 0.92878 0.43155 0.0
H1775 H 0.51093 0.90307 0.44424 0.0
C1776 C 0.53208 0.3213 0.67523 0.0
C1777 C 0.53551 0.30623 0.65437 0.0
C1778 C 0.51151 0.31758 0.68453 0.0
C1779 C 0.49419 0.29769 0.67321 0.0
C1780 C 0.49714 0.2835 0.65116 0.0
C1781 C 0.51775 0.28806 0.64191 0.0
C1782 C 0.50898 0.33376 0.70755 0.0
C1783 C 0.4793 0.26202 0.63849 0.0
C1784 C 0.45953 0.26542 0.71455 0.0
C1785 C 0.43886 0.27093 0.71093 0.0
C1786 C 0.47739 0.27392 0.7023 0.0
C1787 C 0.47504 0.28916 0.68646 0.0
C1788 C 0.45462 0.29583 0.68347 0.0
C1789 C 0.43672 0.28643 0.69551 0.0
C1790 C 0.49875 0.26618 0.70608 0.0
C1791 C 0.45158 0.3126 0.66734 0.0
H1792 H 0.54587 0.3353 0.68494 0.0
H1793 H 0.52049 0.27619 0.62595 0.0
H1794 H 0.49239 0.33787 0.7071 0.0
H1795 H 0.5106 0.3245 0.7224 0.0
H1796 H 0.52181 0.35094 0.71137 0.0
H1797 H 0.48275 0.25508 0.62008 0.0
H1798 H 0.47821 0.24741 0.64845 0.0
H1799 H 0.46294 0.26663 0.63781 0.0
H1800 H 0.46181 0.25419 0.72695 0.0
H1801 H 0.42091 0.29082 0.69235 0.0
H1802 H 0.5124 0.28215 0.71354 0.0
H1803 H 0.50322 0.25726 0.68881 0.0
H1804 H 0.49765 0.25355 0.71832 0.0
H1805 H 0.46524 0.32905 0.67167 0.0
H1806 H 0.43556 0.31798 0.66876 0.0
H1807 H 0.45219 0.30371 0.64863 0.0
C1808 C 0.99855 0.8293 0.61072 0.0
C1809 C 0.00706 0.80874 0.60877 0.0
C1810 C 0.00512 0.84587 0.59632 0.0
C1811 C 0.02128 0.84217 0.58057 0.0
C1812 C 0.03007 0.82154 0.57884 0.0
C1813 C 0.02247 0.80481 0.5926 0.0
C1814 C 0.99495 0.86733 0.59805 0.0
C1815 C 0.04803 0.81752 0.56304 0.0
C1816 C 0.02917 0.87028 0.52701 0.0
C1817 C 0.04732 0.88958 0.53564 0.0
C1818 C 0.01977 0.85542 0.5419 0.0
C1819 C 0.0292 0.85968 0.56571 0.0
C1820 C 0.04748 0.87935 0.57456 0.0
C1821 C 0.05617 0.89428 0.55942 0.0
C1822 C 0.99995 0.83496 0.53207 0.0
C1823 C 0.05833 0.88412 0.59969 0.0
H1824 H 0.9868 0.83237 0.62347 0.0
H1825 H 0.02948 0.7892 0.59159 0.0
H1826 H 0.00789 0.8842 0.60435 0.0
H1827 H 0.98763 0.86787 0.58023 0.0
H1828 H 0.98187 0.86696 0.61038 0.0
H1829 H 0.05361 0.80092 0.56438 0.0
H1830 H 0.04201 0.81615 0.54424 0.0
H1831 H 0.06254 0.83309 0.56792 0.0
H1832 H 0.02212 0.8671 0.50871 0.0
H1833 H 0.07014 0.90943 0.56602 0.0
H1834 H 0.98663 0.83545 0.54401 0.0
H1835 H 0.00463 0.81753 0.53116 0.0
H1836 H 0.99327 0.8356 0.514 0.0
H1837 H 0.04585 0.88508 0.61257 0.0
H1838 H 0.07138 0.90113 0.60425 0.0
H1839 H 0.06595 0.86904 0.60189 0.0
C1840 C 0.53559 0.81519 0.85803 0.0
C1841 C 0.55306 0.83472 0.85748 0.0
C1842 C 0.5138 0.81568 0.85096 0.0
C1843 C 0.5098 0.83619 0.84339 0.0
C1844 C 0.52715 0.85687 0.84543 0.0
C1845 C 0.54864 0.85582 0.85237 0.0
C1846 C 0.49555 0.79352 0.84955 0.0
C1847 C 0.52345 0.87928 0.83796 0.0
C1848 C 0.47095 0.83148 0.78969 0.0
C1849 C 0.45438 0.84142 0.79997 0.0
C1850 C 0.48826 0.82782 0.80391 0.0
C1851 C 0.48908 0.83476 0.82895 0.0
C1852 C 0.47182 0.84379 0.83945 0.0
C1853 C 0.45451 0.84696 0.82473 0.0
C1854 C 0.50615 0.81749 0.79212 0.0
C1855 C 0.47211 0.85107 0.86607 0.0
H1856 H 0.53907 0.79901 0.86241 0.0
H1857 H 0.56217 0.87121 0.85272 0.0
H1858 H 0.47957 0.79823 0.85323 0.0
H1859 H 0.49333 0.78214 0.83135 0.0
H1860 H 0.49967 0.78265 0.86225 0.0
H1861 H 0.53799 0.89474 0.84374 0.0
H1862 H 0.52032 0.87566 0.8183 0.0
H1863 H 0.50875 0.88447 0.84542 0.0
H1864 H 0.47027 0.82647 0.77049 0.0
H1865 H 0.44129 0.8542 0.83252 0.0
H1866 H 0.50907 0.80231 0.79985 0.0
H1867 H 0.52189 0.83147 0.79532 0.0
H1868 H 0.50189 0.81094 0.77263 0.0
H1869 H 0.47721 0.83753 0.8749 0.0
H1870 H 0.45569 0.85335 0.87135 0.0
H1871 H 0.48438 0.86841 0.87276 0.0
C1872 C 0.48683 0.17617 0.11236 0.0
C1873 C 0.50416 0.18636 0.13053 0.0
C1874 C 0.48765 0.15553 0.09549 0.0
C1875 C 0.50653 0.14582 0.09672 0.0
C1876 C 0.52421 0.15655 0.11479 0.0
C1877 C 0.52263 0.1765 0.13165 0.0
C1878 C 0.46849 0.14414 0.07654 0.0
C1879 C 0.54496 0.14711 0.11634 0.0
C1880 C 0.51378 0.08385 0.07649 0.0
C1881 C 0.52751 0.08738 0.05859 0.0
C1882 C 0.50368 0.10194 0.08684 0.0
C1883 C 0.50833 0.12419 0.07969 0.0
C1884 C 0.52062 0.127 0.0602 0.0
C1885 C 0.53026 0.10849 0.04997 0.0
C1886 C 0.49 0.09808 0.10704 0.0
C1887 C 0.52579 0.15041 0.05191 0.0
H1888 H 0.47266 0.18411 0.11158 0.0
H1889 H 0.53623 0.18488 0.14543 0.0
H1890 H 0.47417 0.14421 0.05868 0.0
H1891 H 0.46194 0.12505 0.07731 0.0
H1892 H 0.45482 0.15363 0.07845 0.0
H1893 H 0.5574 0.15821 0.13112 0.0
H1894 H 0.54074 0.1284 0.11906 0.0
H1895 H 0.55276 0.14679 0.09951 0.0
H1896 H 0.51119 0.0671 0.08261 0.0
H1897 H 0.5411 0.11122 0.03628 0.0
H1898 H 0.47639 0.10761 0.10736 0.0
H1899 H 0.50075 0.10538 0.12409 0.0
H1900 H 0.48279 0.07864 0.10578 0.0
H1901 H 0.51163 0.15914 0.05304 0.0
H1902 H 0.53014 0.14765 0.03332 0.0
H1903 H 0.54014 0.16292 0.06349 0.0
C1904 C 0.16943 0.33282 0.32516 0.0
C1905 C 0.1741 0.32913 0.34808 0.0
C1906 C 0.18641 0.33778 0.3108 0.0
C1907 C 0.20798 0.33731 0.31911 0.0
C1908 C 0.21325 0.33784 0.34348 0.0
C1909 C 0.19608 0.33361 0.35777 0.0
C1910 C 0.18072 0.33982 0.28565 0.0
C1911 C 0.23651 0.33897 0.35347 0.0
C1912 C 0.234 0.2893 0.29183 0.0
C1913 C 0.25484 0.30255 0.28951 0.0
C1914 C 0.21687 0.30045 0.29738 0.0
C1915 C 0.22136 0.32594 0.30225 0.0
C1916 C 0.24154 0.33931 0.29686 0.0
C1917 C 0.25816 0.32728 0.29033 0.0
C1918 C 0.1951 0.28495 0.30141 0.0
C1919 C 0.24657 0.36632 0.30013 0.0
H1920 H 0.1525 0.33044 0.31779 0.0
H1921 H 0.19977 0.33187 0.37585 0.0
H1922 H 0.19525 0.34981 0.27854 0.0
H1923 H 0.17517 0.32157 0.27409 0.0
H1924 H 0.16694 0.34906 0.28474 0.0
H1925 H 0.23833 0.3427 0.37321 0.0
H1926 H 0.24083 0.3215 0.34683 0.0
H1927 H 0.24852 0.35317 0.34762 0.0
H1928 H 0.23131 0.27058 0.29154 0.0
H1929 H 0.27423 0.33751 0.28769 0.0
H1930 H 0.181 0.28977 0.29249 0.0
H1931 H 0.19331 0.28769 0.3207 0.0
H1932 H 0.19389 0.26547 0.29448 0.0
H1933 H 0.23151 0.37353 0.30193 0.0
H1934 H 0.25474 0.37179 0.28481 0.0
H1935 H 0.25844 0.37466 0.31622 0.0
C1936 C 0.99048 0.0574 0.19896 0.0
C1937 C 0.97106 0.06618 0.20146 0.0
C1938 C 0.00059 0.05466 0.17711 0.0
C1939 C 0.99203 0.06173 0.15675 0.0
C1940 C 0.97279 0.07123 0.15947 0.0
C1941 C 0.96247 0.0728 0.18116 0.0
C1942 C 0.02045 0.04375 0.17578 0.0
C1943 C 0.9631 0.08018 0.13938 0.0
C1944 C 0.03102 0.07384 0.10671 0.0
C1945 C 0.0232 0.05366 0.08773 0.0
C1946 C 0.02109 0.07684 0.12863 0.0
C1947 C 0.00287 0.05899 0.13283 0.0
C1948 C 0.99504 0.03848 0.11379 0.0
C1949 C 0.00487 0.03629 0.0918 0.0
C1950 C 0.03022 0.09942 0.14739 0.0
C1951 C 0.97635 0.01833 0.11678 0.0
H1952 H 0.99755 0.05197 0.21402 0.0
H1953 H 0.94769 0.07976 0.18234 0.0
H1954 H 0.01812 0.02914 0.15964 0.0
H1955 H 0.03535 0.05763 0.17442 0.0
H1956 H 0.02357 0.03632 0.19163 0.0
H1957 H 0.94939 0.0889 0.14455 0.0
H1958 H 0.97616 0.09334 0.13341 0.0
H1959 H 0.9567 0.06498 0.12399 0.0
H1960 H 0.04492 0.0877 0.10438 0.0
H1961 H 0.99834 0.02045 0.07784 0.0
H1962 H 0.03852 0.09491 0.16284 0.0
H1963 H 0.0166 0.10769 0.1538 0.0
H1964 H 0.04242 0.11289 0.14072 0.0
H1965 H 0.98037 0.01192 0.13302 0.0
H1966 H 0.97295 1.00286 0.1013 0.0
H1967 H 0.96105 0.02496 0.11911 0.0
C1968 C 0.30833 0.67628 0.44464 0.0
C1969 C 0.29805 0.68193 0.46529 0.0
C1970 C 0.30442 0.68618 0.42491 0.0
C1971 C 0.28934 0.70127 0.42579 0.0
C1972 C 0.27922 0.70725 0.44675 0.0
C1973 C 0.28405 0.69789 0.46637 0.0
C1974 C 0.31594 0.68011 0.40302 0.0
C1975 C 0.26248 0.72269 0.44818 0.0
C1976 C 0.28361 0.74541 0.38773 0.0
C1977 C 0.26389 0.73321 0.37339 0.0
C1978 C 0.29352 0.73422 0.40335 0.0
C1979 C 0.28327 0.71047 0.4048 0.0
C1980 C 0.26447 0.69739 0.38892 0.0
C1981 C 0.25508 0.70893 0.37326 0.0
C1982 C 0.3138 0.74852 0.41979 0.0
C1983 C 0.25293 0.67206 0.38999 0.0
H1984 H 0.31907 0.66384 0.44379 0.0
H1985 H 0.27576 0.70199 0.48215 0.0
H1986 H 0.30357 0.67071 0.38761 0.0
H1987 H 0.32531 0.6969 0.39856 0.0
H1988 H 0.32756 0.66853 0.40539 0.0
H1989 H 0.25597 0.72537 0.46579 0.0
H1990 H 0.27006 0.74059 0.44474 0.0
H1991 H 0.24833 0.71417 0.43435 0.0
H1992 H 0.29055 0.76419 0.38792 0.0
H1993 H 0.24019 0.69925 0.36169 0.0
H1994 H 0.32639 0.7377 0.42016 0.0
H1995 H 0.30924 0.75307 0.43815 0.0
H1996 H 0.3213 0.76555 0.41445 0.0
H1997 H 0.26504 0.66102 0.3921 0.0
H1998 H 0.24129 0.66303 0.37382 0.0
H1999 H 0.24336 0.67264 0.40565 0.0
C2000 C 0.63571 0.01439 0.67413 0.0
C2001 C 0.65785 0.01633 0.66944 0.0
C2002 C 0.62091 0.02132 0.65958 0.0
C2003 C 0.62805 0.02869 0.63899 0.0
C2004 C 0.65031 0.03092 0.63403 0.0
C2005 C 0.66514 0.02482 0.64954 0.0
C2006 C 0.59749 0.02008 0.66586 0.0
C2007 C 0.65822 0.03918 0.61211 0.0
C2008 C 0.58514 0.00902 0.58667 0.0
C2009 C 0.58109 0.031 0.58436 0.0
C2010 C 0.60055 0.00815 0.60467 0.0
C2011 C 0.61137 0.0298 0.62075 0.0
C2012 C 0.60617 0.05192 0.61927 0.0
C2013 C 0.59103 0.05225 0.6007 0.0
C2014 C 0.60608 0.98434 0.60572 0.0
C2015 C 0.61663 0.07511 0.63685 0.0
H2016 H 0.63 0.00815 0.68971 0.0
H2017 H 0.68235 0.02687 0.64622 0.0
H2018 H 0.59232 0.03671 0.66386 0.0
H2019 H 0.586 1.00473 0.65355 0.0
H2020 H 0.59568 0.01772 0.68434 0.0
H2021 H 0.67646 0.04214 0.61207 0.0
H2022 H 0.6502 0.02544 0.59603 0.0
H2023 H 0.65339 0.05616 0.61081 0.0
H2024 H 0.57751 0.99287 0.5734 0.0
H2025 H 0.58762 0.06917 0.59829 0.0
H2026 H 0.60254 0.97966 0.62304 0.0
H2027 H 0.62399 0.98573 0.60423 0.0
H2028 H 0.59652 0.96942 0.59132 0.0
H2029 H 0.60817 0.07558 0.65328 0.0
H2030 H 0.61502 0.09113 0.62976 0.0
H2031 H 0.63441 0.07649 0.64187 0.0
C2032 C 0.3309 0.33834 0.95289 0.0
C2033 C 0.31311 0.34897 0.9581 0.0
C2034 C 0.33278 0.32705 0.92939 0.0
C2035 C 0.31631 0.32613 0.91098 0.0
C2036 C 0.2973 0.33483 0.91674 0.0
C2037 C 0.2961 0.34642 0.94015 0.0
C2038 C 0.35322 0.31795 0.92398 0.0
C2039 C 0.27903 0.33374 0.89786 0.0
C2040 C 0.32718 0.33489 0.8494 0.0
C2041 C 0.31781 0.31198 0.83552 0.0
C2042 C 0.32906 0.33904 0.87424 0.0
C2043 C 0.32027 0.32004 0.88549 0.0
C2044 C 0.31201 0.29646 0.87153 0.0
C2045 C 0.31102 0.29266 0.84659 0.0
C2046 C 0.33876 0.36431 0.88832 0.0
C2047 C 0.30225 0.27571 0.88262 0.0
H2048 H 0.34413 0.34047 0.96677 0.0
H2049 H 0.28229 0.35457 0.94424 0.0
H2050 H 0.34878 0.30006 0.91164 0.0
H2051 H 0.36411 0.33049 0.91506 0.0
H2052 H 0.36272 0.31654 0.94034 0.0
H2053 H 0.26408 0.338 0.90564 0.0
H2054 H 0.28498 0.34691 0.88678 0.0
H2055 H 0.27425 0.31561 0.88596 0.0
H2056 H 0.33218 0.34983 0.84074 0.0
H2057 H 0.30334 0.275 0.83578 0.0
H2058 H 0.3501 0.36411 0.9038 0.0
H2059 H 0.32524 0.37248 0.89521 0.0
H2060 H 0.34803 0.37592 0.87734 0.0
H2061 H 0.31165 0.2768 0.89988 0.0
H2062 H 0.30188 0.25813 0.87068 0.0
H2063 H 0.28499 0.27633 0.88601 0.0
C2064 C 0.97752 0.03694 0.35511 0.0
C2065 C 0.97893 0.05956 0.34894 0.0
C2066 C 0.98662 0.03422 0.37752 0.0
C2067 C 0.99845 0.05452 0.39509 0.0
C2068 C 1.00005 0.07751 0.38905 0.0
C2069 C 0.99041 0.07976 0.36647 0.0
C2070 C 0.98373 0.00925 0.38226 0.0
C2071 C 0.01255 0.09995 0.40638 0.0
C2072 C 0.00316 0.04883 0.4618 0.0
C2073 C 0.02472 0.04549 0.46666 0.0
C2074 C 0.99483 0.05191 0.43928 0.0
C2075 C 0.00794 0.05161 0.41986 0.0
C2076 C 0.02968 0.04778 0.42437 0.0
C2077 C 0.03778 0.04504 0.4474 0.0
C2078 C 0.97168 0.05565 0.43636 0.0
C2079 C 0.04463 0.04676 0.40479 0.0
H2080 H 0.96934 0.02093 0.34198 0.0
H2081 H 0.99263 0.09737 0.36224 0.0
H2082 H 1.00016 1.00529 0.3855 0.0
H2083 H 0.97527 0.0081 0.39854 0.0
H2084 H 0.97395 0.9952 0.36727 0.0
H2085 H 0.01263 0.11649 0.39954 0.0
H2086 H 0.00507 0.10149 0.42344 0.0
H2087 H 0.02991 0.09878 0.41024 0.0
H2088 H 0.99253 0.04934 0.47602 0.0
H2089 H 0.05448 0.04278 0.45031 0.0
H2090 H 0.9615 0.04124 0.42196 0.0
H2091 H 0.97213 0.07304 0.43107 0.0
H2092 H 0.96341 0.05566 0.45291 0.0
H2093 H 0.03646 0.03232 0.38931 0.0
H2094 H 0.06077 0.04332 0.41053 0.0
H2095 H 0.04768 0.064 0.39873 0.0
C2096 C 0.27432 0.70318 0.5885 0.0
C2097 C 0.26676 0.67931 0.59078 0.0
C2098 C 0.27562 0.72237 0.6078 0.0
C2099 C 0.2694 0.71742 0.62978 0.0
C2100 C 0.25982 0.69356 0.63154 0.0
C2101 C 0.25856 0.67475 0.61194 0.0
C2102 C 0.28547 0.74769 0.60524 0.0
C2103 C 0.25288 0.68763 0.65474 0.0
C2104 C 0.30392 0.75214 0.68638 0.0
C2105 C 0.28961 0.76533 0.69708 0.0
C2106 C 0.298 0.73762 0.66369 0.0
C2107 C 0.27699 0.73598 0.65179 0.0
C2108 C 0.26277 0.75006 0.66224 0.0
C2109 C 0.26925 0.76459 0.68506 0.0
C2110 C 0.31363 0.72281 0.65322 0.0
C2111 C 0.2403 0.74872 0.65001 0.0
H2112 H 0.28022 0.70689 0.572 0.0
H2113 H 0.2523 0.65637 0.6137 0.0
H2114 H 0.27634 0.76048 0.6146 0.0
H2115 H 0.30288 0.75334 0.61346 0.0
H2116 H 0.28533 0.74904 0.5863 0.0
H2117 H 0.24293 0.66887 0.6523 0.0
H2118 H 0.26784 0.68983 0.66717 0.0
H2119 H 0.24306 0.7001 0.66323 0.0
H2120 H 0.31924 0.75212 0.6963 0.0
H2121 H 0.2581 0.77453 0.69388 0.0
H2122 H 0.31635 0.72526 0.63495 0.0
H2123 H 0.30625 0.70344 0.65205 0.0
H2124 H 0.32996 0.72768 0.66405 0.0
H2125 H 0.24125 0.7488 0.63088 0.0
H2126 H 0.2332 0.76389 0.65831 0.0
H2127 H 0.2288 0.73164 0.65117 0.0
C2128 C 0.67568 0.05848 0.8159 0.0
C2129 C 0.65882 0.05035 0.79701 0.0
C2130 C 0.67059 0.06534 0.83922 0.0
C2131 C 0.64815 0.06336 0.84338 0.0
C2132 C 0.63112 0.05455 0.82426 0.0
C2133 C 0.63673 0.04825 0.80135 0.0
C2134 C 0.6892 0.0745 0.85908 0.0
C2135 C 0.60684 0.0518 0.82783 0.0
C2136 C 0.6174 0.05099 0.89331 0.0
C2137 C 0.60804 0.0711 0.89723 0.0
C2138 C 0.63435 0.04995 0.87872 0.0
C2139 C 0.64154 0.06922 0.86745 0.0
C2140 C 0.63489 0.09104 0.8745 0.0
C2141 C 0.61776 0.09164 0.88912 0.0
C2142 C 0.64176 0.02671 0.87228 0.0
C2143 C 0.64357 0.11249 0.86393 0.0
H2144 H 0.69282 0.06021 0.8124 0.0
H2145 H 0.62373 0.04177 0.78667 0.0
H2146 H 0.6849 0.08698 0.87426 0.0
H2147 H 0.69299 0.05899 0.8656 0.0
H2148 H 0.70449 0.08385 0.85266 0.0
H2149 H 0.59586 0.0443 0.81093 0.0
H2150 H 0.60211 0.03967 0.84021 0.0
H2151 H 0.60363 0.06953 0.8357 0.0
H2152 H 0.61018 0.03512 0.89984 0.0
H2153 H 0.61117 0.10757 0.89304 0.0
H2154 H 0.65968 0.03028 0.87009 0.0
H2155 H 0.6326 0.01598 0.85511 0.0
H2156 H 0.63845 0.01574 0.88596 0.0
H2157 H 0.66127 0.11407 0.86109 0.0
H2158 H 0.6417 0.12943 0.8755 0.0
H2159 H 0.63407 0.1102 0.84641 0.0
C2160 C 0.29461 0.36363 0.11888 0.0
C2161 C 0.30889 0.35472 0.10343 0.0
C2162 C 0.28983 0.3545 0.13922 0.0
C2163 C 0.30026 0.33667 0.14471 0.0
C2164 C 0.31464 0.3275 0.12909 0.0
C2165 C 0.31847 0.33634 0.10833 0.0
C2166 C 0.2738 0.36413 0.15495 0.0
C2167 C 0.32645 0.30886 0.13464 0.0
C2168 C 0.30777 0.33319 0.20959 0.0
C2169 C 0.29188 0.3122 0.21027 0.0
C2170 C 0.31059 0.34135 0.18841 0.0
C2171 C 0.29691 0.32851 0.1674 0.0
C2172 C 0.28009 0.30807 0.16816 0.0
C2173 C 0.27779 0.30019 0.18958 0.0
C2174 C 0.32873 0.36326 0.18839 0.0
C2175 C 0.26482 0.2942 0.14626 0.0
H2176 H 0.28691 0.37758 0.11485 0.0
H2177 H 0.3295 0.32947 0.09634 0.0
H2178 H 0.26077 0.34905 0.15806 0.0
H2179 H 0.28262 0.37399 0.17253 0.0
H2180 H 0.26572 0.37649 0.14714 0.0
H2181 H 0.33686 0.30336 0.12054 0.0
H2182 H 0.33717 0.31613 0.15171 0.0
H2183 H 0.31426 0.29265 0.13683 0.0
H2184 H 0.31874 0.34283 0.2254 0.0
H2185 H 0.26517 0.28439 0.18987 0.0
H2186 H 0.32163 0.37723 0.18233 0.0
H2187 H 0.34058 0.35837 0.17573 0.0
H2188 H 0.33799 0.37118 0.20624 0.0
H2189 H 0.25654 0.30645 0.13855 0.0
H2190 H 0.25193 0.27935 0.15008 0.0
H2191 H 0.27452 0.2864 0.13255 0.0
C2192 C 0.26982 0.98905 0.02161 0.0
C2193 C 0.26307 0.96407 0.01926 0.0
C2194 C 0.25453 1.00324 0.0229 0.0
C2195 C 0.23185 0.99208 0.02136 0.0
C2196 C 0.22465 0.96667 0.01651 0.0
C2197 C 0.24052 0.9528 0.01588 0.0
C2198 C 0.26289 0.03032 0.02811 0.0
C2199 C 0.20042 0.95425 0.01337 0.0
C2200 C 0.20455 0.03261 0.06197 0.0
C2201 C 0.19651 0.0449 0.04623 0.0
C2202 C 0.21457 0.01381 0.05364 0.0
C2203 C 0.2167 0.00749 0.02904 0.0
C2204 C 0.20802 0.0194 0.01296 0.0
C2205 C 0.19816 0.03821 0.02182 0.0
C2206 C 0.22342 1.00114 0.07122 0.0
C2207 C 0.20963 0.01276 0.98658 0.0
H2208 H 0.28726 0.99787 0.02376 0.0
H2209 H 0.23531 0.9334 0.01341 0.0
H2210 H 0.25431 0.03819 0.01538 0.0
H2211 H 0.25934 0.03814 0.04622 0.0
H2212 H 0.28099 0.03592 0.02714 0.0
H2213 H 0.1975 0.93553 1.00281 0.0
H2214 H 0.19459 0.95344 0.03105 0.0
H2215 H 0.19033 0.96419 0.00446 0.0
H2216 H 0.20232 0.03721 0.08068 0.0
H2217 H 0.19123 0.04737 0.00966 0.0
H2218 H 0.24172 1.00463 0.07179 0.0
H2219 H 0.21678 0.98142 0.06556 0.0
H2220 H 0.21906 0.00717 0.08945 0.0
H2221 H 0.22621 0.02171 0.98262 0.0
H2222 H 0.19702 0.01866 0.97622 0.0
H2223 H 0.20754 0.99305 0.98042 0.0
C2224 C 0.70653 0.64966 0.97926 0.0
C2225 C 0.72504 0.64532 0.9911 0.0
C2226 C 0.68525 0.63541 0.97953 0.0
C2227 C 0.68243 0.61701 0.99265 0.0
C2228 C 0.70115 0.61239 0.00437 0.0
C2229 C 0.72227 0.62636 0.00312 0.0
C2230 C 0.66574 0.64037 0.96623 0.0
C2231 C 0.69882 0.59338 0.01906 0.0
C2232 C 0.62818 0.59966 0.01858 0.0
C2233 C 0.61848 0.57708 0.00395 0.0
C2234 C 0.64873 0.61305 0.0147 0.0
C2235 C 0.65987 0.60371 0.99566 0.0
C2236 C 0.64992 0.58127 0.98037 0.0
C2237 C 0.62928 0.56826 0.98464 0.0
C2238 C 0.65881 0.6369 0.03145 0.0
C2239 C 0.66122 0.5708 0.95977 0.0
H2240 H 0.70872 0.6642 0.96979 0.0
H2241 H 0.73655 0.62302 0.01238 0.0
H2242 H 0.65562 0.62344 0.9548 0.0
H2243 H 0.65495 0.64756 0.97904 0.0
H2244 H 0.67094 0.65357 0.95495 0.0
H2245 H 0.71509 0.5915 0.02642 0.0
H2246 H 0.68907 0.59805 0.03406 0.0
H2247 H 0.68967 0.57569 0.00818 0.0
H2248 H 0.61989 0.60682 0.03337 0.0
H2249 H 0.62176 0.55106 0.97295 0.0
H2250 H 0.66244 0.65139 0.02135 0.0
H2251 H 0.67474 0.63614 0.0406 0.0
H2252 H 0.64778 0.64183 0.04511 0.0
H2253 H 0.66531 0.58385 0.94813 0.0
H2254 H 0.65083 0.55364 0.94895 0.0
H2255 H 0.67704 0.56736 0.96647 0.0
C2256 C 0.7426 0.44539 0.27061 0.0
C2257 C 0.71927 0.44068 0.2655 0.0
C2258 C 0.75434 0.42682 0.27218 0.0
C2259 C 0.74308 0.40199 0.26839 0.0
C2260 C 0.71957 0.3971 0.26292 0.0
C2261 C 0.70822 0.41602 0.26167 0.0
C2262 C 0.7791 0.43397 0.27823 0.0
C2263 C 0.70613 0.37152 0.25847 0.0
C2264 C 0.77519 0.34916 0.25569 0.0
C2265 C 0.77736 0.34236 0.27782 0.0
C2266 C 0.76465 0.36831 0.25241 0.0
C2267 C 0.75548 0.38161 0.27148 0.0
C2268 C 0.75804 0.37496 0.29382 0.0
C2269 C 0.76858 0.3559 0.29657 0.0
C2270 C 0.76305 0.37408 0.22817 0.0
C2271 C 0.74938 0.38797 0.31517 0.0
H2272 H 0.75191 0.46391 0.27373 0.0
H2273 H 0.69039 0.41135 0.25767 0.0
H2274 H 0.78359 0.42854 0.29491 0.0
H2275 H 0.78721 0.42438 0.26402 0.0
H2276 H 0.78581 0.45364 0.28049 0.0
H2277 H 0.68835 0.37002 0.25319 0.0
H2278 H 0.71271 0.36002 0.24426 0.0
H2279 H 0.70756 0.36432 0.27478 0.0
H2280 H 0.78141 0.33923 0.24069 0.0
H2281 H 0.76978 0.35139 0.31387 0.0
H2282 H 0.77055 0.39342 0.22936 0.0
H2283 H 0.74538 0.37071 0.22124 0.0
H2284 H 0.77148 0.36317 0.21532 0.0
H2285 H 0.75662 0.4076 0.31823 0.0
H2286 H 0.75323 0.38169 0.33157 0.0
H2287 H 0.73117 0.3852 0.31187 0.0
C2288 C 0.89309 0.49956 0.49289 0.0
C2289 C 0.88242 0.49106 0.51128 0.0
C2290 C 0.916 0.50298 0.49281 0.0
C2291 C 0.9286 0.49846 0.51185 0.0
C2292 C 0.91811 0.49117 0.53116 0.0
C2293 C 0.89503 0.48727 0.53053 0.0
C2294 C 0.92666 0.5108 0.47201 0.0
C2295 C 0.9312 0.48699 0.55218 0.0
C2296 C 0.98506 0.4856 0.50243 0.0
C2297 C 0.99885 0.50846 0.51104 0.0
C2298 C 0.96199 0.4821 0.50207 0.0
C2299 C 0.95282 0.50175 0.51157 0.0
C2300 C 0.96675 0.5248 0.52038 0.0
C2301 C 0.9895 0.52789 0.51953 0.0
C2302 C 0.94745 0.45746 0.49168 0.0
C2303 C 0.95778 0.54608 0.5314 0.0
H2304 H 0.88344 0.50233 0.47788 0.0
H2305 H 0.88681 0.48074 0.54483 0.0
H2306 H 0.93904 0.52805 0.47842 0.0
H2307 H 0.9355 0.49725 0.46359 0.0
H2308 H 0.91452 0.51325 0.45836 0.0
H2309 H 0.92065 0.48264 0.56634 0.0
H2310 H 0.93925 0.47193 0.54632 0.0
H2311 H 0.94455 0.50322 0.55984 0.0
H2312 H 0.99233 0.47057 0.49595 0.0
H2313 H 0.99994 0.5455 0.5264 0.0
H2314 H 0.93513 0.4586 0.47751 0.0
H2315 H 0.93813 0.45046 0.50561 0.0
H2316 H 0.95713 0.4444 0.48404 0.0
H2317 H 0.94531 0.54924 0.51863 0.0
H2318 H 0.97099 0.56289 0.53715 0.0
H2319 H 0.94936 0.54227 0.54713 0.0
C2320 C 0.37782 0.12219 0.32012 0.0
C2321 C 0.37026 0.09735 0.31122 0.0
C2322 C 0.36766 0.13838 0.31125 0.0
C2323 C 0.35039 0.12928 0.29251 0.0
C2324 C 0.34109 0.10424 0.28561 0.0
C2325 C 0.35074 0.08857 0.29573 0.0
C2326 C 0.3768 0.16506 0.32029 0.0
C2327 C 0.32287 0.09372 0.26537 0.0
C2328 C 0.31509 0.16091 0.26166 0.0
C2329 C 0.32626 0.16379 0.24149 0.0
C2330 C 0.32426 0.15255 0.28009 0.0
C2331 C 0.34417 0.14503 0.27748 0.0
C2332 C 0.35603 0.14865 0.25776 0.0
C2333 C 0.34715 0.15855 0.24028 0.0
C2334 C 0.31191 0.15041 0.30164 0.0
C2335 C 0.37731 0.14055 0.25421 0.0
H2336 H 0.39267 0.129 0.3325 0.0
H2337 H 0.34464 0.06935 0.28908 0.0
H2338 H 0.38893 0.17193 0.3085 0.0
H2339 H 0.36346 0.17498 0.32039 0.0
H2340 H 0.38542 0.16903 0.33853 0.0
H2341 H 0.31692 0.07392 0.26296 0.0
H2342 H 0.30858 0.10202 0.26839 0.0
H2343 H 0.32908 0.09763 0.24857 0.0
H2344 H 0.29878 0.1644 0.26294 0.0
H2345 H 0.35637 0.16156 0.22537 0.0
H2346 H 0.32355 0.15441 0.31801 0.0
H2347 H 0.30186 0.13177 0.29944 0.0
H2348 H 0.30055 0.16281 0.30408 0.0
H2349 H 0.38933 0.14806 0.27027 0.0
H2350 H 0.38514 0.14608 0.23874 0.0
H2351 H 0.37388 0.12064 0.25132 0.0
C2352 C 0.36406 0.16243 0.51758 0.0
C2353 C 0.34444 0.14701 0.52125 0.0
C2354 C 0.38442 0.15579 0.51937 0.0
C2355 C 0.38493 0.13323 0.52474 0.0
C2356 C 0.36503 0.11732 0.52754 0.0
C2357 C 0.34512 0.12446 0.52586 0.0
C2358 C 0.40536 0.17307 0.51617 0.0
C2359 C 0.36477 0.09288 0.53291 0.0
C2360 C 0.42788 0.0971 0.51595 0.0
C2361 C 0.43517 0.09828 0.53968 0.0
C2362 C 0.41332 0.11092 0.51029 0.0
C2363 C 0.40604 0.12616 0.52888 0.0
C2364 C 0.41554 0.12957 0.55255 0.0
C2365 C 0.42988 0.11536 0.55772 0.0
C2366 C 0.40385 0.10699 0.48478 0.0
C2367 C 0.40869 0.14619 0.57279 0.0
H2368 H 0.36359 0.17985 0.51389 0.0
H2369 H 0.32999 0.11227 0.5283 0.0
H2370 H 0.41598 0.17964 0.53334 0.0
H2371 H 0.41496 0.16384 0.50334 0.0
H2372 H 0.40191 0.18885 0.50983 0.0
H2373 H 0.34773 0.08232 0.53352 0.0
H2374 H 0.37267 0.08234 0.51921 0.0
H2375 H 0.37439 0.09506 0.55032 0.0
H2376 H 0.4322 0.08406 0.50194 0.0
H2377 H 0.43608 0.11673 0.57601 0.0
H2378 H 0.40085 0.12386 0.48056 0.0
H2379 H 0.38773 0.09361 0.4818 0.0
H2380 H 0.41498 0.09996 0.47227 0.0
H2381 H 0.40719 0.16321 0.56772 0.0
H2382 H 0.42064 0.15051 0.58897 0.0
H2383 H 0.39223 0.13738 0.57723 0.0
C2384 C 0.71481 0.61306 0.29282 0.0
C2385 C 0.71833 0.59285 0.2769 0.0
C2386 C 0.72739 0.63676 0.29393 0.0
C2387 C 0.74382 0.64114 0.27822 0.0
C2388 C 0.74783 0.62076 0.26238 0.0
C2389 C 0.73529 0.59703 0.26206 0.0
C2390 C 0.7225 0.65731 0.31155 0.0
C2391 C 0.76473 0.62414 0.24492 0.0
C2392 C 0.75642 0.70479 0.26387 0.0
C2393 C 0.77674 0.7166 0.27757 0.0
C2394 C 0.74602 0.68044 0.26351 0.0
C2395 C 0.75566 0.66702 0.27755 0.0
C2396 C 0.77605 0.67891 0.29166 0.0
C2397 C 0.78624 0.70324 0.29144 0.0
C2398 C 0.72453 0.66903 0.24796 0.0
C2399 C 0.78701 0.66605 0.30742 0.0
H2400 H 0.70168 0.61036 0.30424 0.0
H2401 H 0.73797 0.58189 0.24925 0.0
H2402 H 0.73805 0.66874 0.32185 0.0
H2403 H 0.71497 0.66883 0.30195 0.0
H2404 H 0.71098 0.65093 0.32417 0.0
H2405 H 0.76692 0.60673 0.23465 0.0
H2406 H 0.75947 0.63448 0.2323 0.0
H2407 H 0.78095 0.63476 0.25435 0.0
H2408 H 0.74857 0.71453 0.2531 0.0
H2409 H 0.80154 0.71197 0.30261 0.0
H2410 H 0.71105 0.66429 0.25916 0.0
H2411 H 0.72588 0.65209 0.23603 0.0
H2412 H 0.71977 0.68111 0.23693 0.0
H2413 H 0.77601 0.66118 0.32102 0.0
H2414 H 0.80318 0.67722 0.31658 0.0
H2415 H 0.7897 0.64906 0.29679 0.0
C2416 C 0.88353 0.45383 0.79663 0.0
C2417 C 0.88205 0.46873 0.78078 0.0
C2418 C 0.86857 0.43167 0.79353 0.0
C2419 C 0.8524 0.42415 0.77357 0.0
C2420 C 0.85002 0.43986 0.75828 0.0
C2421 C 0.86487 0.4624 0.76235 0.0
C2422 C 0.87117 0.41561 0.81064 0.0
C2423 C 0.83258 0.43251 0.73721 0.0
C2424 C 0.84952 0.35914 0.75863 0.0
C2425 C 0.83171 0.35064 0.7708 0.0
C2426 C 0.85401 0.38274 0.75556 0.0
C2427 C 0.84152 0.39848 0.76673 0.0
C2428 C 0.82205 0.38931 0.77652 0.0
C2429 C 0.81686 0.36497 0.77734 0.0
C2430 C 0.87355 0.39141 0.74263 0.0
C2431 C 0.80807 0.40536 0.7884 0.0
H2432 H 0.8967 0.45935 0.81116 0.0
H2433 H 0.8637 0.47457 0.75059 0.0
H2434 H 0.85482 0.40743 0.81577 0.0
H2435 H 0.87844 0.40077 0.80192 0.0
H2436 H 0.88213 0.42556 0.82703 0.0
H2437 H 0.83529 0.44523 0.72505 0.0
H2438 H 0.83225 0.41418 0.72698 0.0
H2439 H 0.81606 0.4321 0.74357 0.0
H2440 H 0.8602 0.34754 0.75177 0.0
H2441 H 0.80183 0.35751 0.78409 0.0
H2442 H 0.88803 0.40089 0.75577 0.0
H2443 H 0.8699 0.40423 0.73192 0.0
H2444 H 0.87812 0.37621 0.73064 0.0
H2445 H 0.815 0.41265 0.80723 0.0
H2446 H 0.79073 0.39518 0.7882 0.0
H2447 H 0.80806 0.42078 0.77984 0.0
C2448 C 0.08216 0.89653 0.09071 0.0
C2449 C 0.0935 0.88041 0.07826 0.0
C2450 C 0.0779 0.91622 0.08183 0.0
C2451 C 0.08554 0.9206 0.06004 0.0
C2452 C 0.09709 0.90445 0.04735 0.0
C2453 C 0.10068 0.88449 0.05643 0.0
C2454 C 0.06518 0.93245 0.0959 0.0
C2455 C 0.10615 0.90859 0.02446 0.0
C2456 C 0.06022 0.96332 0.02936 0.0
C2457 C 0.07254 0.98607 0.04158 0.0
C2458 C 0.06402 0.94183 0.03505 0.0
C2459 C 0.08231 0.94274 0.05144 0.0
C2460 C 0.09677 0.96546 0.06108 0.0
C2461 C 0.09131 0.98664 0.0568 0.0
C2462 C 0.04739 0.91846 0.02482 0.0
C2463 C 0.11774 0.9676 0.07669 0.0
H2464 H 0.07638 0.89366 0.1075 0.0
H2465 H 0.10949 0.87231 0.04658 0.0
H2466 H 0.07608 0.95064 0.1026 0.0
H2467 H 0.05112 0.93444 0.08431 0.0
H2468 H 0.05865 0.92552 0.11134 0.0
H2469 H 0.11458 0.89441 0.01656 0.0
H2470 H 0.09263 0.90908 0.01131 0.0
H2471 H 0.11813 0.92633 0.02777 0.0
H2472 H 0.04706 0.96211 0.01606 0.0
H2473 H 0.10187 1.00384 0.06572 0.0
H2474 H 0.03623 0.91417 0.03849 0.0
H2475 H 0.05553 0.90331 0.02001 0.0
H2476 H 0.0371 0.91961 0.0089 0.0
H2477 H 0.11361 0.96499 0.09457 0.0
H2478 H 0.12926 0.98552 0.07876 0.0
H2479 H 0.12641 0.95352 0.06918 0.0
C2480 C 0.93494 0.26027 0.89333 0.0
C2481 C 0.95335 0.2631 0.88025 0.0
C2482 C 0.91371 0.26108 0.88345 0.0
C2483 C 0.91073 0.26495 0.85999 0.0
C2484 C 0.9291 0.26688 0.84653 0.0
C2485 C 0.94989 0.26581 0.85668 0.0
C2486 C 0.89456 0.25838 0.89833 0.0
C2487 C 0.92712 0.27118 0.82159 0.0
C2488 C 0.85554 0.25379 0.82125 0.0
C2489 C 0.85122 0.27685 0.82487 0.0
C2490 C 0.87372 0.24922 0.83399 0.0
C2491 C 0.889 0.26844 0.8497 0.0
C2492 C 0.88455 0.2917 0.85357 0.0
C2493 C 0.86543 0.29539 0.8418 0.0
C2494 C 0.87689 0.22387 0.83001 0.0
C2495 C 0.90073 0.31312 0.86902 0.0
H2496 H 0.93724 0.25824 0.91151 0.0
H2497 H 0.96377 0.26778 0.84614 0.0
H2498 H 0.88955 0.27572 0.90293 0.0
H2499 H 0.88005 0.24485 0.8881 0.0
H2500 H 0.89879 0.25289 0.91507 0.0
H2501 H 0.94284 0.27185 0.81328 0.0
H2502 H 0.91402 0.25674 0.81016 0.0
H2503 H 0.92224 0.28844 0.82191 0.0
H2504 H 0.84472 0.23927 0.80829 0.0
H2505 H 0.86242 0.31322 0.84502 0.0
H2506 H 0.88143 0.21938 0.84718 0.0
H2507 H 0.89059 0.22222 0.81882 0.0
H2508 H 0.86172 0.21048 0.82096 0.0
H2509 H 0.90384 0.30985 0.88706 0.0
H2510 H 0.89478 0.32995 0.87062 0.0
H2511 H 0.91682 0.31582 0.86138 0.0
C2512 C 0.56791 0.21469 0.58568 0.0
C2513 C 0.58641 0.23129 0.58138 0.0
C2514 C 0.56438 0.18986 0.5759 0.0
C2515 C 0.58014 0.18108 0.56202 0.0
C2516 C 0.59848 0.19788 0.55687 0.0
C2517 C 0.60131 0.22279 0.56648 0.0
C2518 C 0.54429 0.1729 0.58146 0.0
C2519 C 0.61592 0.18944 0.5426 0.0
C2520 C 0.58082 0.11713 0.56778 0.0
C2521 C 0.56959 0.10318 0.54615 0.0
C2522 C 0.58613 0.14245 0.57214 0.0
C2523 C 0.57845 0.15434 0.55525 0.0
C2524 C 0.56729 0.14025 0.53315 0.0
C2525 C 0.5634 0.11488 0.5287 0.0
C2526 C 0.59918 0.15645 0.59536 0.0
C2527 C 0.55783 0.15173 0.51495 0.0
H2528 H 0.55651 0.2211 0.59746 0.0
H2529 H 0.61592 0.23544 0.56354 0.0
H2530 H 0.53594 0.15986 0.56506 0.0
H2531 H 0.54946 0.16242 0.59399 0.0
H2532 H 0.53217 0.18261 0.58965 0.0
H2533 H 0.62766 0.20458 0.53771 0.0
H2534 H 0.62542 0.18028 0.5532 0.0
H2535 H 0.6082 0.17614 0.52614 0.0
H2536 H 0.58529 0.10816 0.58148 0.0
H2537 H 0.55401 0.10415 0.51226 0.0
H2538 H 0.58809 0.16455 0.60712 0.0
H2539 H 0.61241 0.17135 0.59227 0.0
H2540 H 0.60689 0.14486 0.60475 0.0
H2541 H 0.5427 0.15711 0.52105 0.0
H2542 H 0.55326 0.13916 0.49732 0.0
H2543 H 0.56968 0.16822 0.51289 0.0
C2544 C 0.59409 0.79061 0.39828 0.0
C2545 C 0.58255 0.76738 0.39917 0.0
C2546 C 0.61245 0.79425 0.38517 0.0
C2547 C 0.61993 0.77418 0.37329 0.0
C2548 C 0.609 0.75073 0.37533 0.0
C2549 C 0.59013 0.74757 0.38781 0.0
C2550 C 0.62314 0.81951 0.38307 0.0
C2551 C 0.61691 0.72892 0.36384 0.0
C2552 C 0.64734 0.78115 0.31699 0.0
C2553 C 0.67001 0.78784 0.32514 0.0
C2554 C 0.63107 0.77635 0.33239 0.0
C2555 C 0.63743 0.7776 0.35664 0.0
C2556 C 0.6603 0.78308 0.36483 0.0
C2557 C 0.67631 0.78829 0.34904 0.0
C2558 C 0.60697 0.77072 0.32278 0.0
C2559 C 0.66787 0.78408 0.3904 0.0
H2560 H 0.58814 0.80592 0.40703 0.0
H2561 H 0.58132 0.72961 0.38873 0.0
H2562 H 0.64119 0.8236 0.38839 0.0
H2563 H 0.62086 0.82106 0.36427 0.0
H2564 H 0.61602 0.83324 0.39421 0.0
H2565 H 0.60853 0.71245 0.36962 0.0
H2566 H 0.61364 0.72578 0.34424 0.0
H2567 H 0.63505 0.73195 0.36819 0.0
H2568 H 0.6422 0.78005 0.29847 0.0
H2569 H 0.69371 0.79346 0.35563 0.0
H2570 H 0.59885 0.78439 0.3324 0.0
H2571 H 0.59827 0.75297 0.32573 0.0
H2572 H 0.60475 0.77043 0.30348 0.0
H2573 H 0.66424 0.80009 0.40194 0.0
H2574 H 0.68591 0.78521 0.39321 0.0
H2575 H 0.65875 0.76797 0.39623 0.0
C2576 C 0.1162 0.26367 0.44805 0.0
C2577 C 0.10214 0.2643 0.42848 0.0
C2578 C 0.10924 0.24798 0.46309 0.0
C2579 C 0.08746 0.23335 0.45884 0.0
C2580 C 0.07328 0.23379 0.43894 0.0
C2581 C 0.08095 0.24902 0.42373 0.0
C2582 C 0.12511 0.24712 0.48355 0.0
C2583 C 0.04977 0.2188 0.43419 0.0
C2584 C 0.07118 0.17847 0.48516 0.0
C2585 C 0.06241 0.18767 0.50602 0.0
C2586 C 0.08032 0.19338 0.47027 0.0
C2587 C 0.07933 0.21779 0.47538 0.0
C2588 C 0.06998 0.22718 0.49588 0.0
C2589 C 0.06214 0.21215 0.51127 0.0
C2590 C 0.09087 0.18292 0.44898 0.0
C2591 C 0.06793 0.25299 0.50135 0.0
H2592 H 0.13266 0.27541 0.45155 0.0
H2593 H 0.07005 0.24971 0.40866 0.0
H2594 H 0.11882 0.25348 0.50066 0.0
H2595 H 0.12638 0.2283 0.48287 0.0
H2596 H 0.14194 0.25842 0.48338 0.0
H2597 H 0.0408 0.22153 0.41811 0.0
H2598 H 0.04963 0.19943 0.4318 0.0
H2599 H 0.04058 0.22348 0.44968 0.0
H2600 H 0.07077 0.15948 0.4801 0.0
H2601 H 0.05578 0.21968 0.52738 0.0
H2602 H 0.10749 0.19445 0.44845 0.0
H2603 H 0.08068 0.18233 0.43238 0.0
H2604 H 0.09266 0.1644 0.44916 0.0
H2605 H 0.08458 0.26534 0.50407 0.0
H2606 H 0.05936 0.25719 0.51746 0.0
H2607 H 0.05859 0.25671 0.48608 0.0
C2608 C 0.5779 0.26631 0.2125 0.0
C2609 C 0.57301 0.26255 0.18787 0.0
C2610 C 0.59526 0.25827 0.22208 0.0
C2611 C 0.60811 0.24633 0.20662 0.0
C2612 C 0.60322 0.24231 0.18172 0.0
C2613 C 0.5857 0.25058 0.17259 0.0
C2614 C 0.60008 0.26289 0.24877 0.0
C2615 C 0.61671 0.22971 0.16478 0.0
C2616 C 0.66552 0.25384 0.23539 0.0
C2617 C 0.66403 0.23195 0.24264 0.0
C2618 C 0.64785 0.258 0.22218 0.0
C2619 C 0.62785 0.2402 0.2168 0.0
C2620 C 0.62619 0.21787 0.22357 0.0
C2621 C 0.64443 0.21394 0.23638 0.0
C2622 C 0.65027 0.28196 0.21501 0.0
C2623 C 0.60493 0.19859 0.21812 0.0
H2624 H 0.56802 0.27541 0.22435 0.0
H2625 H 0.5818 0.24742 0.15351 0.0
H2626 H 0.6005 0.24583 0.25439 0.0
H2627 H 0.6166 0.27527 0.25444 0.0
H2628 H 0.58758 0.27099 0.25824 0.0
H2629 H 0.60927 0.22572 0.14604 0.0
H2630 H 0.63365 0.24122 0.16611 0.0
H2631 H 0.61835 0.21261 0.16959 0.0
H2632 H 0.68033 0.26818 0.24067 0.0
H2633 H 0.64325 0.19692 0.24171 0.0
H2634 H 0.63973 0.29251 0.22517 0.0
H2635 H 0.64462 0.27924 0.19587 0.0
H2636 H 0.66764 0.29277 0.21834 0.0
H2637 H 0.59214 0.20473 0.22874 0.0
H2638 H 0.60707 0.18136 0.22229 0.0
H2639 H 0.59858 0.1953 0.19911 0.0
C2640 C 0.64229 0.92017 0.91995 0.0
C2641 C 0.63541 0.89702 0.9244 0.0
C2642 C 0.63578 0.93971 0.93355 0.0
C2643 C 0.62178 0.93563 0.95148 0.0
C2644 C 0.61646 0.91281 0.95738 0.0
C2645 C 0.62376 0.89387 0.94407 0.0
C2646 C 0.64245 0.96417 0.92754 0.0
C2647 C 0.60135 0.90777 0.97631 0.0
C2648 C 0.60686 0.98195 0.99849 0.0
C2649 C 0.58537 0.98166 0.98947 0.0
C2650 C 0.61981 0.96858 0.98538 0.0
C2651 C 0.61086 0.95427 0.96284 0.0
C2652 C 0.58966 0.95487 0.95297 0.0
C2653 C 0.57713 0.96867 0.96645 0.0
C2654 C 0.64253 0.96876 0.99625 0.0
C2655 C 0.57967 0.93985 0.9288 0.0
H2656 H 0.65155 0.92278 0.90496 0.0
H2657 H 0.61859 0.87611 0.94785 0.0
H2658 H 0.62834 0.96756 0.91716 0.0
H2659 H 0.64683 0.97858 0.94391 0.0
H2660 H 0.65673 0.96544 0.91679 0.0
H2661 H 0.59969 0.88928 0.97942 0.0
H2662 H 0.60762 0.9208 0.99335 0.0
H2663 H 0.58463 0.90994 0.97088 0.0
H2664 H 0.61367 0.99241 0.01594 0.0
H2665 H 0.56072 0.9688 0.95915 0.0
H2666 H 0.65465 0.96979 0.98292 0.0
H2667 H 0.64192 0.95179 1.00243 0.0
H2668 H 0.64858 0.98406 0.0117 0.0
H2669 H 0.59161 0.9423 0.91546 0.0
H2670 H 0.56421 0.94446 0.92264 0.0
H2671 H 0.57579 0.92052 0.92956 0.0
C2672 C 0.94152 0.74004 0.71623 0.0
C2673 C 0.95791 0.76126 0.71897 0.0
C2674 C 0.92117 0.74051 0.72522 0.0
C2675 C 0.91741 0.76277 0.73703 0.0
C2676 C 0.93455 0.78394 0.74069 0.0
C2677 C 0.9546 0.78297 0.73137 0.0
C2678 C 0.90351 0.71742 0.72147 0.0
C2679 C 0.93161 0.80792 0.7533 0.0
C2680 C 0.85737 0.76529 0.73087 0.0
C2681 C 0.85115 0.76239 0.75314 0.0
C2682 C 0.87925 0.76677 0.72588 0.0
C2683 C 0.89492 0.76406 0.7433 0.0
C2684 C 0.88864 0.76111 0.76593 0.0
C2685 C 0.86664 0.76024 0.7706 0.0
C2686 C 0.88546 0.77075 0.70183 0.0
C2687 C 0.90502 0.75831 0.78489 0.0
H2688 H 0.94452 0.72322 0.70673 0.0
H2689 H 0.96758 0.79924 0.73348 0.0
H2690 H 0.89706 0.715 0.73858 0.0
H2691 H 0.88939 0.71829 0.70928 0.0
H2692 H 0.90976 0.70141 0.71379 0.0
H2693 H 0.94763 0.81995 0.76192 0.0
H2694 H 0.925 0.81656 0.73993 0.0
H2695 H 0.92001 0.80591 0.76695 0.0
H2696 H 0.845 0.76625 0.71727 0.0
H2697 H 0.86147 0.75759 0.78769 0.0
H2698 H 0.89043 0.75473 0.69194 0.0
H2699 H 0.89984 0.78635 0.70403 0.0
H2700 H 0.87161 0.77417 0.69099 0.0
H2701 H 0.91092 0.74171 0.7787 0.0
H2702 H 0.89773 0.75725 0.80188 0.0
H2703 H 0.91969 0.77369 0.78826 0.0
C2704 C 0.12777 0.03742 0.85205 0.0
C2705 C 0.13758 0.01894 0.84076 0.0
C2706 C 0.11907 0.03782 0.87443 0.0
C2707 C 0.11956 0.01915 0.8869 0.0
C2708 C 0.12961 1.00043 0.87588 0.0
C2709 C 0.13848 1.00058 0.85334 0.0
C2710 C 0.10896 0.05842 0.88466 0.0
C2711 C 0.13074 0.9799 0.88782 0.0
C2712 C 0.11092 0.03397 0.95486 0.0
C2713 C 0.08829 0.02345 0.95564 0.0
C2714 C 0.12137 0.03182 0.93325 0.0
C2715 C 0.10916 0.01934 0.91093 0.0
C2716 C 0.08639 0.00856 0.91165 0.0
C2717 C 0.07654 0.01043 0.93358 0.0
C2718 C 0.14565 0.04333 0.93432 0.0
C2719 C 0.07202 0.99542 0.88896 0.0
H2720 H 0.12678 0.05199 0.84323 0.0
H2721 H 0.14567 0.98597 0.84537 0.0
H2722 H 0.0913 0.05144 0.8868 0.0
H2723 H 0.11746 0.06765 0.90256 0.0
H2724 H 0.11002 0.07187 0.87329 0.0
H2725 H 0.13973 0.96723 0.87795 0.0
H2726 H 0.1391 0.98696 0.90615 0.0
H2727 H 0.11375 0.96981 0.88927 0.0
H2728 H 0.12066 0.04405 0.97132 0.0
H2729 H 0.05926 1.00198 0.93319 0.0
H2730 H 0.14783 0.05849 0.92501 0.0
H2731 H 0.15444 0.03014 0.92504 0.0
H2732 H 0.15353 0.05027 0.95288 0.0
H2733 H 0.07108 0.00813 0.87714 0.0
H2734 H 0.05495 0.98712 0.89221 0.0
H2735 H 0.07944 0.98112 0.87935 0.0
C2736 C 0.83761 0.42165 0.59772 0.0
C2737 C 0.8197 0.41068 0.58041 0.0
C2738 C 0.8435 0.40949 0.61484 0.0
C2739 C 0.83079 0.38618 0.61479 0.0
C2740 C 0.81161 0.37594 0.59858 0.0
C2741 C 0.80645 0.38823 0.5813 0.0
C2742 C 0.86426 0.42073 0.63169 0.0
C2743 C 0.79735 0.35137 0.59847 0.0
C2744 C 0.85965 0.34112 0.63351 0.0
C2745 C 0.85386 0.34159 0.65664 0.0
C2746 C 0.85261 0.35601 0.61993 0.0
C2747 C 0.83903 0.37129 0.62956 0.0
C2748 C 0.83307 0.37189 0.65287 0.0
C2749 C 0.84085 0.35726 0.6663 0.0
C2750 C 0.85949 0.35515 0.59515 0.0
C2751 C 0.81827 0.38768 0.66348 0.0
H2752 H 0.84789 0.439 0.59688 0.0
H2753 H 0.79246 0.37991 0.56799 0.0
H2754 H 0.8611 0.41955 0.65017 0.0
H2755 H 0.87718 0.41072 0.62681 0.0
H2756 H 0.87087 0.43991 0.63118 0.0
H2757 H 0.78144 0.34756 0.58706 0.0
H2758 H 0.80634 0.33737 0.59169 0.0
H2759 H 0.79374 0.34979 0.61677 0.0
H2760 H 0.86944 0.32884 0.62587 0.0
H2761 H 0.83672 0.35812 0.68439 0.0
H2762 H 0.86763 0.37349 0.59319 0.0
H2763 H 0.84468 0.34854 0.58191 0.0
H2764 H 0.87106 0.34322 0.59085 0.0
H2765 H 0.82597 0.40683 0.66395 0.0
H2766 H 0.81497 0.38576 0.6818 0.0
H2767 H 0.80223 0.38305 0.65221 0.0
C2768 C 0.49783 0.05183 0.35116 0.0
C2769 C 0.47662 0.05637 0.3503 0.0
C2770 C 0.50984 0.05375 0.37288 0.0
C2771 C 0.50033 0.06045 0.39405 0.0
C2772 C 0.47965 0.06671 0.39341 0.0
C2773 C 0.46795 0.06457 0.3714 0.0
C2774 C 0.53186 0.04678 0.37309 0.0
C2775 C 0.46923 0.07403 0.41587 0.0
C2776 C 0.5139 0.0317 0.44395 0.0
C2777 C 0.53016 0.0503 0.45812 0.0
C2778 C 0.50407 0.03486 0.4229 0.0
C2779 C 0.51044 0.05735 0.41642 0.0
C2780 C 0.52674 0.07631 0.43085 0.0
C2781 C 0.53672 0.07241 0.45155 0.0
C2782 C 0.48707 0.01406 0.40753 0.0
C2783 C 0.53349 0.1006 0.42449 0.0
H2784 H 0.50475 0.04584 0.33487 0.0
H2785 H 0.45164 0.06832 0.3708 0.0
H2786 H 0.54447 0.06038 0.38602 0.0
H2787 H 0.53007 0.0294 0.37876 0.0
H2788 H 0.53807 0.04478 0.35532 0.0
H2789 H 0.45475 0.08164 0.41249 0.0
H2790 H 0.4636 0.05808 0.42367 0.0
H2791 H 0.4815 0.08751 0.42928 0.0
H2792 H 0.50914 0.01454 0.44913 0.0
H2793 H 0.54928 0.08675 0.46284 0.0
H2794 H 0.49256 0.00944 0.3896 0.0
H2795 H 0.47107 0.01921 0.40523 0.0
H2796 H 0.48425 0.99772 0.41519 0.0
H2797 H 0.54066 0.0987 0.40727 0.0
H2798 H 0.54584 0.11365 0.43821 0.0
H2799 H 0.51874 0.10808 0.42231 0.0
C2800 C 0.80987 0.7425 0.09602 0.0
C2801 C 0.78905 0.73154 0.0835 0.0
C2802 C 0.81177 0.75352 0.12029 0.0
C2803 C 0.79238 0.75372 0.132 0.0
C2804 C 0.7714 0.74511 0.11858 0.0
C2805 C 0.76997 0.73375 0.09457 0.0
C2806 C 0.83448 0.76265 0.13388 0.0
C2807 C 0.75041 0.74606 0.13007 0.0
C2808 C 0.79619 0.74112 0.19385 0.0
C2809 C 0.7994 0.76406 0.2084 0.0
C2810 C 0.79351 0.73766 0.16908 0.0
C2811 C 0.79385 0.75766 0.15845 0.0
C2812 C 0.79613 0.78083 0.1731 0.0
C2813 C 0.79925 0.78383 0.19799 0.0
C2814 C 0.79097 0.71256 0.15431 0.0
C2815 C 0.79618 0.80261 0.16268 0.0
H2816 H 0.82463 0.74056 0.08747 0.0
H2817 H 0.75387 0.72528 0.08478 0.0
H2818 H 0.83571 0.7803 0.14601 0.0
H2819 H 0.83736 0.74983 0.14497 0.0
H2820 H 0.84774 0.76458 0.12185 0.0
H2821 H 0.73555 0.74065 0.11685 0.0
H2822 H 0.7483 0.73388 0.14275 0.0
H2823 H 0.75151 0.7646 0.14022 0.0
H2824 H 0.7964 0.72585 0.20193 0.0
H2825 H 0.80213 0.80168 0.20923 0.0
H2826 H 0.80468 0.71223 0.14287 0.0
H2827 H 0.77523 0.70714 0.14245 0.0
H2828 H 0.79101 0.699 0.16539 0.0
H2829 H 0.81293 0.80936 0.15759 0.0
H2830 H 0.79202 0.81734 0.17571 0.0
H2831 H 0.78428 0.79813 0.14648 0.0
C2832 C 0.1476 1.00159 0.67013 0.0
C2833 C 0.1403 0.00806 0.69276 0.0
C2834 C 0.13728 1.00547 0.64879 0.0
C2835 C 0.11933 0.01719 0.64929 0.0
C2836 C 0.112 0.02399 0.67214 0.0
C2837 C 0.1221 0.01904 0.69312 0.0
C2838 C 0.14578 0.99687 0.62549 0.0
C2839 C 0.09378 0.03735 0.67463 0.0
C2840 C 0.11146 0.04743 0.59513 0.0
C2841 C 0.09141 0.03355 0.58194 0.0
C2842 C 0.11956 0.04344 0.61739 0.0
C2843 C 0.10909 0.02314 0.62634 0.0
C2844 C 0.08942 0.00813 0.61242 0.0
C2845 C 0.08068 0.01377 0.59111 0.0
C2846 C 0.13981 0.06106 0.63113 0.0
C2847 C 0.07823 0.98513 0.61921 0.0
H2848 H 0.1615 0.99314 0.66898 0.0
H2849 H 0.1161 0.02456 0.7101 0.0
H2850 H 0.13179 0.98732 0.61174 0.0
H2851 H 0.15512 0.01252 0.61916 0.0
H2852 H 0.15695 0.98464 0.62711 0.0
H2853 H 0.09042 0.04251 0.69341 0.0
H2854 H 0.09832 0.05387 0.66743 0.0
H2855 H 0.0783 0.02606 0.66412 0.0
H2856 H 0.12125 0.06153 0.58786 0.0
H2857 H 0.06602 1.00172 0.58079 0.0
H2858 H 0.15449 0.05333 0.62861 0.0
H2859 H 0.13794 0.06483 0.65043 0.0
H2860 H 0.14303 0.07834 0.6251 0.0
H2861 H 0.09003 0.97331 0.61918 0.0
H2862 H 0.06331 0.97518 0.60685 0.0
H2863 H 0.07333 0.98897 0.63747 0.0
C2864 C 0.83948 0.38356 0.44992 0.0
C2865 C 0.82348 0.3959 0.44457 0.0
C2866 C 0.84467 0.36583 0.43248 0.0
C2867 C 0.83317 0.36016 0.40952 0.0
C2868 C 0.81672 0.37233 0.40419 0.0
C2869 C 0.81227 0.39029 0.42178 0.0
C2870 C 0.86266 0.35358 0.43843 0.0
C2871 C 0.8039 0.36655 0.37985 0.0
C2872 C 0.84901 0.33561 0.35057 0.0
C2873 C 0.83321 0.31366 0.34476 0.0
C2874 C 0.85191 0.34985 0.37348 0.0
C2875 C 0.83828 0.34196 0.39047 0.0
C2876 C 0.82508 0.3182 0.38575 0.0
C2877 C 0.82309 0.30401 0.36286 0.0
C2878 C 0.86703 0.37468 0.37827 0.0
C2879 C 0.81043 0.30901 0.40348 0.0
H2880 H 0.84832 0.38817 0.46758 0.0
H2881 H 0.79983 0.3998 0.41777 0.0
H2882 H 0.85613 0.3338 0.43466 0.0
H2883 H 0.87623 0.35723 0.42705 0.0
H2884 H 0.86969 0.35976 0.45734 0.0
H2885 H 0.7909 0.37686 0.37914 0.0
H2886 H 0.81533 0.3708 0.36643 0.0
H2887 H 0.79586 0.34707 0.37467 0.0
H2888 H 0.85776 0.34267 0.33683 0.0
H2889 H 0.81193 0.28638 0.35873 0.0
H2890 H 0.87466 0.38025 0.39695 0.0
H2891 H 0.85726 0.38782 0.37515 0.0
H2892 H 0.88036 0.37555 0.36626 0.0
H2893 H 0.81851 0.31583 0.42192 0.0
H2894 H 0.80589 0.28903 0.39972 0.0
H2895 H 0.79495 0.31544 0.40233 0.0
C2896 C 0.42464 0.04584 0.20637 0.0
C2897 C 0.43742 0.05601 0.22825 0.0
C2898 C 0.43462 0.03727 0.18624 0.0
C2899 C 0.45754 0.03796 0.1886 0.0
C2900 C 0.4706 0.04942 0.21036 0.0
C2901 C 0.46048 0.05904 0.2296 0.0
C2902 C 0.42054 0.0265 0.16286 0.0
C2903 C 0.49503 0.05004 0.21394 0.0
C2904 C 0.48281 0.99032 0.15494 0.0
C2905 C 0.49825 1.0041 0.14331 0.0
C2906 C 0.4681 1.00068 0.16852 0.0
C2907 C 0.46798 0.02508 0.1694 0.0
C2908 C 0.48161 0.03827 0.15548 0.0
C2909 C 0.49686 0.02776 0.14287 0.0
C2910 C 0.45458 0.98626 0.18398 0.0
C2911 C 0.48121 0.06405 0.15535 0.0
H2912 H 0.40685 0.04377 0.20518 0.0
H2913 H 0.47057 0.06729 0.24635 0.0
H2914 H 0.42923 0.03246 0.14806 0.0
H2915 H 0.41739 1.0066 0.15939 0.0
H2916 H 0.40432 0.03153 0.16282 0.0
H2917 H 0.50255 0.05905 0.2323 0.0
H2918 H 0.49752 0.03142 0.21024 0.0
H2919 H 0.50415 0.05968 0.20143 0.0
H2920 H 0.48308 0.97174 0.15463 0.0
H2921 H 0.50856 0.03872 0.13398 0.0
H2922 H 0.43714 0.98773 0.18236 0.0
H2923 H 0.46132 0.99358 0.20287 0.0
H2924 H 0.45489 0.96692 0.17945 0.0
H2925 H 0.46457 0.06479 0.14795 0.0
H2926 H 0.49385 0.07218 0.14472 0.0
H2927 H 0.48431 0.07524 0.17366 0.0
C2928 C 0.7878 0.72139 0.92573 0.0
C2929 C 0.80602 0.71836 0.93917 0.0
C2930 C 0.78963 0.72601 0.9029 0.0
C2931 C 0.81045 0.72866 0.89373 0.0
C2932 C 0.82907 0.7262 0.90753 0.0
C2933 C 0.8265 0.72047 0.92992 0.0
C2934 C 0.76927 0.72806 0.8886 0.0
C2935 C 0.85175 0.73027 0.89893 0.0
C2936 C 0.8102 0.72581 0.82713 0.0
C2937 C 0.81254 0.75012 0.82648 0.0
C2938 C 0.81021 0.71848 0.849 0.0
C2939 C 0.81289 0.73593 0.87055 0.0
C2940 C 0.81588 0.76048 0.86987 0.0
C2941 C 0.81491 0.76705 0.84792 0.0
C2942 C 0.80644 0.69205 0.84903 0.0
C2943 C 0.81905 0.77986 0.89228 0.0
H2944 H 0.77189 0.71937 0.93281 0.0
H2945 H 0.84057 0.71812 0.94042 0.0
H2946 H 0.77117 0.74676 0.88614 0.0
H2947 H 0.76718 0.71617 0.87067 0.0
H2948 H 0.75399 0.7232 0.89734 0.0
H2949 H 0.86452 0.72766 0.91178 0.0
H2950 H 0.85145 0.71781 0.88165 0.0
H2951 H 0.85667 0.74886 0.89596 0.0
H2952 H 0.80786 0.71253 0.8106 0.0
H2953 H 0.81465 0.78536 0.84768 0.0
H2954 H 0.79065 0.68604 0.85646 0.0
H2955 H 0.81985 0.68876 0.86053 0.0
H2956 H 0.80571 0.68095 0.8309 0.0
H2957 H 0.80308 0.77922 0.9 0.0
H2958 H 0.82507 0.79814 0.8888 0.0
H2959 H 0.83105 0.777 0.90579 0.0
C2960 C 0.8388 0.07661 0.04507 0.0
C2961 C 0.83631 0.09483 0.03324 0.0
C2962 C 0.85612 0.06506 0.04094 0.0
C2963 C 0.87072 0.07168 0.02428 0.0
C2964 C 0.86939 0.09138 0.01385 0.0
C2965 C 0.85228 0.10293 0.01869 0.0
C2966 C 0.858 0.04491 0.05326 0.0
C2967 C 0.88481 0.09898 0.996 0.0
C2968 C 0.92291 0.05114 0.01316 0.0
C2969 C 0.91558 0.0317 0.99352 0.0
C2970 C 0.90812 0.063 0.02475 0.0
C2971 C 0.8857 0.05643 0.01548 0.0
C2972 C 0.878 0.03684 0.99588 0.0
C2973 C 0.89299 0.0243 0.98548 0.0
C2974 C 0.91676 0.08338 0.04608 0.0
C2975 C 0.85417 0.02996 0.98512 0.0
H2976 H 0.82676 0.07072 0.05679 0.0
H2977 H 0.85068 0.11734 0.00984 0.0
H2978 H 0.85225 0.02739 0.04046 0.0
H2979 H 0.8755 0.0465 0.05978 0.0
H2980 H 0.84787 0.04475 0.06849 0.0
H2981 H 0.88254 0.11583 0.99099 0.0
H2982 H 0.90231 0.10179 0.00315 0.0
H2983 H 0.88171 0.08452 0.97968 0.0
H2984 H 0.94036 0.05791 0.01915 0.0
H2985 H 0.88707 0.00917 0.97064 0.0
H2986 H 0.90503 0.08309 0.05984 0.0
H2987 H 0.91871 0.10086 0.04061 0.0
H2988 H 0.93313 0.08251 0.05417 0.0
H2989 H 0.84297 0.0259 0.99878 0.0
H2990 H 0.85083 0.01407 0.97007 0.0
H2991 H 0.85001 0.04529 0.97854 0.0
C2992 C 0.39436 0.46694 0.03813 0.0
C2993 C 0.38689 0.44392 0.04278 0.0
C2994 C 0.41694 0.47812 0.04076 0.0
C2995 C 0.4326 0.46605 0.04825 0.0
C2996 C 0.42518 0.44348 0.05443 0.0
C2997 C 0.40235 0.43264 0.05163 0.0
C2998 C 0.42405 0.50226 0.0341 0.0
C2999 C 0.44139 0.43025 0.06284 0.0
C3000 C 0.48712 0.48129 0.02228 0.0
C3001 C 0.49994 0.49945 0.04057 0.0
C3002 C 0.46552 0.46961 0.025 0.0
C3003 C 0.45655 0.4759 0.0467 0.0
C3004 C 0.46979 0.49335 0.0657 0.0
C3005 C 0.49129 0.50507 0.06234 0.0
C3006 C 0.4519 0.45142 0.00412 0.0
C3007 C 0.461 0.50033 0.08923 0.0
H3008 H 0.38254 0.47603 0.0317 0.0
H3009 H 0.39673 0.41494 0.05542 0.0
H3010 H 0.43576 0.51514 0.04847 0.0
H3011 H 0.43283 0.50017 0.0179 0.0
H3012 H 0.4098 0.51016 0.03057 0.0
H3013 H 0.43305 0.41469 0.07004 0.0
H3014 H 0.45028 0.42352 0.04779 0.0
H3015 H 0.45399 0.44258 0.07676 0.0
H3016 H 0.49363 0.47675 0.00541 0.0
H3017 H 0.50119 0.5189 0.07666 0.0
H3018 H 0.43778 0.45829 0.99795 0.0
H3019 H 0.44491 0.43431 0.00951 0.0
H3020 H 0.4617 0.44756 0.98895 0.0
H3021 H 0.44867 0.51115 0.08721 0.0
H3022 H 0.47435 0.51115 0.10322 0.0
H3023 H 0.45248 0.48407 0.09524 0.0
C3024 C 0.3746 0.63256 0.7672 0.0
C3025 C 0.39773 0.63737 0.77388 0.0
C3026 C 0.36288 0.65118 0.766 0.0
C3027 C 0.37398 0.67612 0.77144 0.0
C3028 C 0.39728 0.6811 0.77835 0.0
C3029 C 0.40859 0.66214 0.77951 0.0
C3030 C 0.33831 0.644 0.75859 0.0
C3031 C 0.41054 0.7068 0.78436 0.0
C3032 C 0.34926 0.72313 0.74409 0.0
C3033 C 0.33966 0.73577 0.76272 0.0
C3034 C 0.35994 0.70416 0.74665 0.0
C3035 C 0.36168 0.69659 0.76861 0.0
C3036 C 0.35169 0.70899 0.78753 0.0
C3037 C 0.34111 0.72815 0.78448 0.0
C3038 C 0.36968 0.69224 0.72551 0.0
C3039 C 0.35229 0.70211 0.81132 0.0
H3040 H 0.36545 0.61394 0.76269 0.0
H3041 H 0.42627 0.66686 0.78467 0.0
H3042 H 0.32948 0.65327 0.7723 0.0
H3043 H 0.33469 0.64976 0.74185 0.0
H3044 H 0.33158 0.62427 0.7558 0.0
H3045 H 0.4282 0.70826 0.7902 0.0
H3046 H 0.40967 0.71494 0.76859 0.0
H3047 H 0.40338 0.7175 0.79868 0.0
H3048 H 0.34861 0.72831 0.72707 0.0
H3049 H 0.33419 0.73735 0.79936 0.0
H3050 H 0.36236 0.67257 0.72125 0.0
H3051 H 0.38777 0.69483 0.72982 0.0
H3052 H 0.36681 0.69951 0.70949 0.0
H3053 H 0.34446 0.6827 0.80917 0.0
H3054 H 0.34361 0.71268 0.82417 0.0
H3055 H 0.36973 0.70496 0.81881 0.0
C3056 C 0.2047 0.60549 0.49291 0.0
C3057 C 0.22143 0.59731 0.50366 0.0
C3058 C 0.18296 0.59925 0.49832 0.0
C3059 C 0.17789 0.58435 0.51482 0.0
C3060 C 0.19436 0.57459 0.52449 0.0
C3061 C 0.2161 0.58121 0.51875 0.0
C3062 C 0.1655 0.60895 0.48663 0.0
C3063 C 0.18925 0.55807 0.54157 0.0
C3064 C 0.12485 0.59248 0.53996 0.0
C3065 C 0.10956 0.57361 0.52486 0.0
C3066 C 0.14765 0.59475 0.53862 0.0
C3067 C 0.15495 0.57853 0.52086 0.0
C3068 C 0.13953 0.55948 0.50563 0.0
C3069 C 0.11709 0.55753 0.50771 0.0
C3070 C 0.16387 0.61521 0.55521 0.0
C3071 C 0.14657 0.54203 0.48612 0.0
H3072 H 0.20876 0.61757 0.48089 0.0
H3073 H 0.229 0.57465 0.5269 0.0
H3074 H 0.15222 0.59383 0.47638 0.0
H3075 H 0.15778 0.61967 0.50037 0.0
H3076 H 0.17235 0.62049 0.47435 0.0
H3077 H 0.20297 0.54923 0.54463 0.0
H3078 H 0.18651 0.56865 0.55887 0.0
H3079 H 0.17388 0.54395 0.53492 0.0
H3080 H 0.11902 0.60568 0.55237 0.0
H3081 H 0.10546 0.54452 0.49457 0.0
H3082 H 0.1719 0.6284 0.54502 0.0
H3083 H 0.1771 0.60838 0.56341 0.0
H3084 H 0.15574 0.62464 0.56955 0.0
H3085 H 0.15853 0.55165 0.47574 0.0
H3086 H 0.13235 0.5307 0.47351 0.0
H3087 H 0.15492 0.53007 0.4942 0.0
C3088 C 0.7654 1.00195 0.7589 0.0
C3089 C 0.74386 0.98874 0.75054 0.0
C3090 C 0.78021 0.9917 0.76993 0.0
C3091 C 0.77341 0.9675 0.77189 0.0
C3092 C 0.75187 0.95372 0.76274 0.0
C3093 C 0.73711 0.96474 0.75244 0.0
C3094 C 0.80299 0.00689 0.7799 0.0
C3095 C 0.7443 0.92762 0.7641 0.0
C3096 C 0.81978 0.93724 0.78019 0.0
C3097 C 0.81981 0.93647 0.80429 0.0
C3098 C 0.80428 0.94678 0.76927 0.0
C3099 C 0.78925 0.95671 0.78314 0.0
C3100 C 0.79009 0.95738 0.80782 0.0
C3101 C 0.8054 0.94701 0.81816 0.0
C3102 C 0.80318 0.94505 0.74273 0.0
C3103 C 0.77423 0.96808 0.82297 0.0
H3104 H 0.77045 0.02064 0.75765 0.0
H3105 H 0.72035 0.95465 0.74591 0.0
H3106 H 0.80574 0.00728 0.79916 0.0
H3107 H 0.81583 0.99887 0.77111 0.0
H3108 H 0.80537 0.02568 0.77748 0.0
H3109 H 0.72861 0.91859 0.75261 0.0
H3110 H 0.75712 0.91761 0.75877 0.0
H3111 H 0.74154 0.92643 0.78268 0.0
H3112 H 0.83071 0.92852 0.76951 0.0
H3113 H 0.80509 0.94568 0.83663 0.0
H3114 H 0.8058 0.96328 0.73881 0.0
H3115 H 0.78649 0.9348 0.73421 0.0
H3116 H 0.8157 0.93604 0.73446 0.0
H3117 H 0.77489 0.98674 0.82087 0.0
H3118 H 0.77792 0.96836 0.8421 0.0
H3119 H 0.75704 0.95747 0.81704 0.0
C3120 C 0.76509 0.94197 0.52656 0.0
C3121 C 0.76061 0.92055 0.5348 0.0
C3122 C 0.74817 0.9533 0.52184 0.0
C3123 C 0.72628 0.9433 0.52605 0.0
C3124 C 0.72169 0.92192 0.53489 0.0
C3125 C 0.73892 0.91058 0.53887 0.0
C3126 C 0.75369 0.97578 0.51193 0.0
C3127 C 0.69861 0.91098 0.53993 0.0
C3128 C 0.69008 0.98823 0.53099 0.0
C3129 C 0.68055 0.98373 0.50749 0.0
C3130 C 0.70414 0.97428 0.53771 0.0
C3131 C 0.70835 0.95521 0.52057 0.0
C3132 C 0.69744 0.94959 0.49723 0.0
C3133 C 0.68386 0.96415 0.49089 0.0
C3134 C 0.71552 0.98088 0.56273 0.0
C3135 C 0.70111 0.92909 0.47859 0.0
H3136 H 0.7818 0.94958 0.52313 0.0
H3137 H 0.73547 0.89403 0.54532 0.0
H3138 H 0.74414 0.97272 0.49431 0.0
H3139 H 0.74889 0.99085 0.52379 0.0
H3140 H 0.77159 0.9813 0.50983 0.0
H3141 H 0.69803 0.89508 0.54799 0.0
H3142 H 0.69219 0.92453 0.55214 0.0
H3143 H 0.68731 0.90538 0.52321 0.0
H3144 H 0.6874 1.0034 0.54378 0.0
H3145 H 0.67617 0.96058 0.47279 0.0
H3146 H 0.73341 0.98868 0.56245 0.0
H3147 H 0.71413 0.96463 0.57035 0.0
H3148 H 0.70853 0.99422 0.57458 0.0
H3149 H 0.71819 0.93369 0.47351 0.0
H3150 H 0.68929 0.9252 0.46235 0.0
H3151 H 0.69939 0.91252 0.48571 0.0
C3152 C 0.37954 0.47504 0.74983 0.0
C3153 C 0.39627 0.48738 0.76829 0.0
C3154 C 0.36686 0.45141 0.74954 0.0
C3155 C 0.37073 0.43948 0.76816 0.0
C3156 C 0.38719 0.45228 0.78715 0.0
C3157 C 0.39978 0.47564 0.7868 0.0
C3158 C 0.34993 0.43875 0.72865 0.0
C3159 C 0.39207 0.44097 0.80764 0.0
C3160 C 0.32727 0.38362 0.77691 0.0
C3161 C 0.33665 0.36425 0.76776 0.0
C3162 C 0.33795 0.40789 0.77708 0.0
C3163 C 0.3585 0.4134 0.76738 0.0
C3164 C 0.3678 0.3938 0.75768 0.0
C3165 C 0.35706 0.3698 0.75832 0.0
C3166 C 0.32744 0.42776 0.7883 0.0
C3167 C 0.38927 0.39816 0.74659 0.0
H3168 H 0.37702 0.48341 0.73503 0.0
H3169 H 0.41296 0.48458 0.80088 0.0
H3170 H 0.35506 0.42279 0.71881 0.0
H3171 H 0.33366 0.43215 0.73488 0.0
H3172 H 0.34788 0.45062 0.71621 0.0
H3173 H 0.40381 0.45384 0.82204 0.0
H3174 H 0.37653 0.43409 0.81514 0.0
H3175 H 0.39932 0.42539 0.80127 0.0
H3176 H 0.31189 0.37993 0.78479 0.0
H3177 H 0.36464 0.35521 0.75116 0.0
H3178 H 0.32499 0.43905 0.77543 0.0
H3179 H 0.33864 0.43962 0.80371 0.0
H3180 H 0.31122 0.42073 0.79447 0.0
H3181 H 0.38814 0.40884 0.73282 0.0
H3182 H 0.39363 0.38112 0.73831 0.0
H3183 H 0.4029 0.40877 0.7603 0.0
C3184 C 0.2375 0.62548 0.28196 0.0
C3185 C 0.23802 0.60822 0.26159 0.0
C3186 C 0.25275 0.64774 0.28677 0.0
C3187 C 0.26779 0.65304 0.26999 0.0
C3188 C 0.26991 0.63461 0.2509 0.0
C3189 C 0.25503 0.61218 0.24705 0.0
C3190 C 0.25109 0.66643 0.30836 0.0
C3191 C 0.28592 0.63901 0.23283 0.0
C3192 C 0.26636 0.71524 0.26338 0.0
C3193 C 0.2866 0.72865 0.2754 0.0
C3194 C 0.26129 0.6902 0.2591 0.0
C3195 C 0.2761 0.67852 0.26904 0.0
C3196 C 0.29682 0.69201 0.28101 0.0
C3197 C 0.30182 0.71713 0.28411 0.0
C3198 C 0.23937 0.67642 0.24536 0.0
C3199 C 0.31296 0.68031 0.29202 0.0
H3200 H 0.22467 0.62192 0.29359 0.0
H3201 H 0.25558 0.59847 0.2315 0.0
H3202 H 0.26776 0.67724 0.31634 0.0
H3203 H 0.24151 0.6789 0.30304 0.0
H3204 H 0.24256 0.65808 0.32208 0.0
H3205 H 0.29294 0.62307 0.22718 0.0
H3206 H 0.27676 0.64164 0.21688 0.0
H3207 H 0.29969 0.65499 0.23964 0.0
H3208 H 0.25401 0.72438 0.25829 0.0
H3209 H 0.3172 0.72779 0.29419 0.0
H3210 H 0.22798 0.66912 0.25763 0.0
H3211 H 0.24173 0.66103 0.23182 0.0
H3212 H 0.23129 0.68793 0.23624 0.0
H3213 H 0.30801 0.67753 0.30961 0.0
H3214 H 0.33006 0.69181 0.29472 0.0
H3215 H 0.31299 0.66248 0.28094 0.0
C3216 C 0.5459 0.70257 0.48288 0.0
C3217 C 0.52568 0.70034 0.46951 0.0
C3218 C 0.55134 0.68279 0.49062 0.0
C3219 C 0.5359 0.66015 0.48597 0.0
C3220 C 0.51497 0.65814 0.47346 0.0
C3221 C 0.51033 0.67798 0.46496 0.0
C3222 C 0.57399 0.68606 0.50316 0.0
C3223 C 0.49758 0.6348 0.46861 0.0
C3224 C 0.55498 0.601 0.48032 0.0
C3225 C 0.55139 0.59472 0.50229 0.0
C3226 C 0.55083 0.62247 0.47527 0.0
C3227 C 0.54218 0.63815 0.49232 0.0
C3228 C 0.539 0.63219 0.51485 0.0
C3229 C 0.54365 0.61065 0.51957 0.0
C3230 C 0.55536 0.62813 0.45136 0.0
C3231 C 0.53001 0.6482 0.53375 0.0
H3232 H 0.55801 0.71963 0.48636 0.0
H3233 H 0.49462 0.67597 0.45472 0.0
H3234 H 0.57241 0.68483 0.52192 0.0
H3235 H 0.58183 0.6716 0.49472 0.0
H3236 H 0.58505 0.70373 0.50292 0.0
H3237 H 0.48142 0.63675 0.46102 0.0
H3238 H 0.50315 0.6209 0.45593 0.0
H3239 H 0.49518 0.62819 0.48527 0.0
H3240 H 0.56086 0.5888 0.46681 0.0
H3241 H 0.54049 0.60585 0.53648 0.0
H3242 H 0.56612 0.64648 0.4537 0.0
H3243 H 0.53961 0.62784 0.44116 0.0
H3244 H 0.56353 0.61509 0.44071 0.0
H3245 H 0.54147 0.66624 0.53876 0.0
H3246 H 0.52776 0.64078 0.55 0.0
H3247 H 0.51387 0.65065 0.52674 0.0
C3248 C 0.67278 0.33833 0.67408 0.0
C3249 C 0.66468 0.32206 0.65241 0.0
C3250 C 0.69104 0.336 0.68846 0.0
C3251 C 0.70096 0.31626 0.68166 0.0
C3252 C 0.69258 0.29957 0.65991 0.0
C3253 C 0.67494 0.30295 0.64538 0.0
C3254 C 0.69972 0.35471 0.711 0.0
C3255 C 0.70175 0.27763 0.65236 0.0
C3256 C 0.75906 0.31678 0.70898 0.0
C3257 C 0.75424 0.30546 0.72799 0.0
C3258 C 0.74202 0.32091 0.69414 0.0
C3259 C 0.71947 0.31257 0.69766 0.0
C3260 C 0.71461 0.30057 0.71655 0.0
C3261 C 0.73199 0.29766 0.73172 0.0
C3262 C 0.7482 0.33461 0.67495 0.0
C3263 C 0.691 0.29045 0.72059 0.0
H3264 H 0.66495 0.35311 0.67968 0.0
H3265 H 0.66857 0.29004 0.62889 0.0
H3266 H 0.69684 0.3465 0.72666 0.0
H3267 H 0.71785 0.36163 0.71147 0.0
H3268 H 0.69164 0.3701 0.71271 0.0
H3269 H 0.69321 0.26609 0.63523 0.0
H3270 H 0.71966 0.28311 0.65051 0.0
H3271 H 0.7 0.26676 0.66621 0.0
H3272 H 0.77623 0.32303 0.70613 0.0
H3273 H 0.72813 0.28873 0.74627 0.0
H3274 H 0.74047 0.35027 0.67697 0.0
H3275 H 0.74177 0.32294 0.65724 0.0
H3276 H 0.7664 0.3412 0.67541 0.0
H3277 H 0.68236 0.30522 0.72523 0.0
H3278 H 0.68997 0.28032 0.73507 0.0
H3279 H 0.68196 0.27825 0.70403 0.0
C3280 C 0.01359 0.35429 0.97398 0.0
C3281 C 0.03181 0.34659 0.96471 0.0
C3282 C 0.01481 0.379 0.98303 0.0
C3283 C 0.03481 0.39633 0.98319 0.0
C3284 C 0.05367 0.38826 0.97559 0.0
C3285 C 0.05183 0.36366 0.96614 0.0
C3286 C 0.9942 0.38664 0.99065 0.0
C3287 C 0.07553 0.4058 0.97597 0.0
C3288 C 0.03744 0.45923 0.97241 0.0
C3289 C 0.04432 0.47386 0.9951 0.0
C3290 C 0.03254 0.43398 0.96875 0.0
C3291 C 0.03556 0.42287 0.98807 0.0
C3292 C 0.04177 0.43758 0.01125 0.0
C3293 C 0.04586 0.46289 0.01452 0.0
C3294 C 0.02513 0.41922 0.94388 0.0
C3295 C 0.04554 0.42674 0.03236 0.0
H3296 H 0.99797 0.34126 0.9726 0.0
H3297 H 0.06596 0.35784 0.95897 0.0
H3298 H 0.99805 0.40104 0.00703 0.0
H3299 H 0.98708 0.39404 0.97646 0.0
H3300 H 0.98146 0.37131 0.99383 0.0
H3301 H 0.08925 0.39655 0.9727 0.0
H3302 H 0.07429 0.41625 0.96202 0.0
H3303 H 0.07974 0.41879 0.99333 0.0
H3304 H 0.03625 0.46765 0.95736 0.0
H3305 H 0.05148 0.4741 0.03207 0.0
H3306 H 0.01052 0.40442 0.94393 0.0
H3307 H 0.03859 0.41091 0.93704 0.0
H3308 H 0.0208 0.43026 0.93147 0.0
H3309 H 0.03175 0.41112 0.03251 0.0
H3310 H 0.04724 0.44004 0.04944 0.0
H3311 H 0.06092 0.42007 0.03112 0.0
C3312 C 0.01923 0.78287 0.14387 0.0
C3313 C 0.03682 0.80304 0.15169 0.0
C3314 C 0.99912 0.78108 0.15411 0.0
C3315 C 0.99673 0.79974 0.17296 0.0
C3316 C 0.0139 0.82099 0.17956 0.0
C3317 C 0.03381 0.82234 0.1689 0.0
C3318 C 0.98125 0.75825 0.14622 0.0
C3319 C 0.01201 0.84147 0.19926 0.0
C3320 C 0.94025 0.7929 0.19754 0.0
C3321 C 0.94364 0.78187 0.21662 0.0
C3322 C 0.95754 0.79983 0.18368 0.0
C3323 C 0.97853 0.79501 0.18854 0.0
C3324 C 0.98217 0.78457 0.20815 0.0
C3325 C 0.96497 0.77871 0.22214 0.0
C3326 C 0.9531 0.81162 0.16343 0.0
C3327 C 0.00414 0.77881 0.214 0.0
H3328 H 0.02166 0.76788 0.13067 0.0
H3329 H 0.04753 0.83784 0.17512 0.0
H3330 H 0.98068 0.74744 0.1601 0.0
H3331 H 0.96481 0.76243 0.14389 0.0
H3332 H 0.9842 0.74713 0.12927 0.0
H3333 H 0.02468 0.85817 0.19933 0.0
H3334 H 0.99532 0.84524 0.19759 0.0
H3335 H 0.01432 0.83643 0.21665 0.0
H3336 H 0.92396 0.79552 0.19294 0.0
H3337 H 0.96825 0.77117 0.23733 0.0
H3338 H 0.95133 0.79841 0.14634 0.0
H3339 H 0.96713 0.82692 0.16297 0.0
H3340 H 0.93769 0.81828 0.16475 0.0
H3341 H 0.008 0.76617 0.19863 0.0
H3342 H 0.00426 0.77054 0.22976 0.0
H3343 H 0.01758 0.79542 0.21747 0.0
C3344 C 0.49803 0.3264 0.10689 0.0
C3345 C 0.51413 0.32 0.12051 0.0
C3346 C 0.50432 0.34144 0.09105 0.0
C3347 C 0.52706 0.34903 0.08828 0.0
C3348 C 0.54329 0.3426 0.10223 0.0
C3349 C 0.53658 0.32842 0.11853 0.0
C3350 C 0.48674 0.34896 0.07714 0.0
C3351 C 0.56766 0.34992 0.09936 0.0
C3352 C 0.54405 0.36577 0.03084 0.0
C3353 C 0.55125 0.3908 0.03804 0.0
C3354 C 0.53573 0.35188 0.047 0.0
C3355 C 0.53413 0.36346 0.0706 0.0
C3356 C 0.54106 0.38871 0.07789 0.0
C3357 C 0.55005 0.402 0.06169 0.0
C3358 C 0.5291 0.32483 0.03897 0.0
C3359 C 0.53928 0.40169 0.10286 0.0
H3360 H 0.48067 0.31959 0.10858 0.0
H3361 H 0.54885 0.32296 0.12901 0.0
H3362 H 0.49074 0.36883 0.07938 0.0
H3363 H 0.48629 0.34115 0.05793 0.0
H3364 H 0.47003 0.34307 0.08279 0.0
H3365 H 0.57805 0.343 0.11141 0.0
H3366 H 0.57055 0.34301 0.08075 0.0
H3367 H 0.57328 0.3698 0.10304 0.0
H3368 H 0.54483 0.35706 0.01261 0.0
H3369 H 0.55624 0.42129 0.06769 0.0
H3370 H 0.51154 0.3181 0.04164 0.0
H3371 H 0.53923 0.31655 0.04989 0.0
H3372 H 0.53127 0.31867 0.01997 0.0
H3373 H 0.52229 0.39587 0.10778 0.0
H3374 H 0.54332 0.42156 0.10489 0.0
H3375 H 0.55077 0.39708 0.11567 0.0
C3376 C 0.04109 0.33617 0.36311 0.0
C3377 C 0.05167 0.32384 0.3457 0.0
C3378 C 0.02028 0.34029 0.35733 0.0
C3379 C 0.01003 0.33147 0.33377 0.0
C3380 C 0.01993 0.3172 0.31679 0.0
C3381 C 0.04086 0.31383 0.32293 0.0
C3382 C 0.01011 0.35549 0.37585 0.0
C3383 C 0.00916 0.3069 0.29167 0.0
C3384 C 0.95103 0.32708 0.31205 0.0
C3385 C 0.95328 0.3465 0.3005 0.0
C3386 C 0.96906 0.32338 0.32517 0.0
C3387 C 0.99006 0.33878 0.32587 0.0
C3388 C 0.99236 0.3591 0.31541 0.0
C3389 C 0.97384 0.36289 0.30306 0.0
C3390 C 0.96589 0.30187 0.33664 0.0
C3391 C 0.01466 0.37588 0.31581 0.0
H3392 H 0.04978 0.34411 0.38067 0.0
H3393 H 0.04926 0.30429 0.30962 0.0
H3394 H 0.01183 0.37365 0.37192 0.0
H3395 H 0.99217 0.34755 0.37547 0.0
H3396 H 0.01826 0.35757 0.39403 0.0
H3397 H 0.01832 0.29474 0.28128 0.0
H3398 H 0.99193 0.29667 0.29176 0.0
H3399 H 0.00841 0.32175 0.28244 0.0
H3400 H 0.93546 0.31387 0.30992 0.0
H3401 H 0.97567 0.37822 0.29472 0.0
H3402 H 0.97576 0.30642 0.35424 0.0
H3403 H 0.97164 0.28719 0.32527 0.0
H3404 H 0.94822 0.29499 0.33897 0.0
H3405 H 0.02322 0.38161 0.33412 0.0
H3406 H 0.0133 0.39215 0.30908 0.0
H3407 H 0.0252 0.36627 0.30455 0.0
C3408 C 0.01446 0.668 0.6503 0.0
C3409 C 0.99881 0.68085 0.64531 0.0
C3410 C 0.01573 0.64693 0.63468 0.0
C3411 C 1.00041 0.63814 0.6141 0.0
C3412 C 0.98271 0.64917 0.6107 0.0
C3413 C 0.98237 0.67086 0.62615 0.0
C3414 C 0.03502 0.6358 0.63884 0.0
C3415 C 0.96524 0.63925 0.58976 0.0
C3416 C 0.02894 0.61451 0.56226 0.0
C3417 C 0.02569 0.5904 0.56358 0.0
C3418 C 0.01945 0.63008 0.57774 0.0
C3419 C 0.00593 0.62092 0.59434 0.0
C3420 C 0.00109 0.59606 0.59427 0.0
C3421 C 0.0115 0.58108 0.57914 0.0
C3422 C 0.02515 0.65656 0.57734 0.0
C3423 C 0.98579 0.58542 0.61076 0.0
H3424 H 0.02707 0.67553 0.66524 0.0
H3425 H 0.96991 0.6805 0.62259 0.0
H3426 H 0.02913 0.61624 0.63784 0.0
H3427 H 0.04627 0.63806 0.6248 0.0
H3428 H 0.04472 0.64411 0.6564 0.0
H3429 H 0.94959 0.64476 0.59362 0.0
H3430 H 0.97111 0.64636 0.5742 0.0
H3431 H 0.96176 0.61931 0.58482 0.0
H3432 H 0.03977 0.62142 0.5499 0.0
H3433 H 0.00851 0.5621 0.57945 0.0
H3434 H 0.0343 0.66706 0.59458 0.0
H3435 H 0.00983 0.66297 0.57489 0.0
H3436 H 0.03549 0.66049 0.56291 0.0
H3437 H 0.99531 0.58687 0.62805 0.0
H3438 H 0.97825 0.56604 0.60335 0.0
H3439 H 0.97238 0.59507 0.61412 0.0
C3440 C 0.68903 0.81095 0.84957 0.0
C3441 C 0.66825 0.8145 0.84319 0.0
C3442 C 0.70566 0.8138 0.83453 0.0
C3443 C 0.70138 0.82096 0.81289 0.0
C3444 C 0.68099 0.82645 0.8073 0.0
C3445 C 0.66442 0.82266 0.82235 0.0
C3446 C 0.72737 0.80791 0.84139 0.0
C3447 C 0.6761 0.83544 0.78521 0.0
C3448 C 0.75668 0.82814 0.79416 0.0
C3449 C 0.75521 0.80399 0.78346 0.0
C3450 C 0.73757 0.83615 0.7992 0.0
C3451 C 0.71722 0.81899 0.79516 0.0
C3452 C 0.71535 0.79621 0.78018 0.0
C3453 C 0.73466 0.78941 0.77378 0.0
C3454 C 0.73958 0.86173 0.81219 0.0
C3455 C 0.69367 0.77758 0.77441 0.0
H3456 H 0.69201 0.80506 0.86591 0.0
H3457 H 0.64843 0.82596 0.81762 0.0
H3458 H 0.73057 0.7933 0.8275 0.0
H3459 H 0.74119 0.82394 0.84301 0.0
H3460 H 0.72758 0.80206 0.85858 0.0
H3461 H 0.667 0.84992 0.78939 0.0
H3462 H 0.69127 0.84248 0.7772 0.0
H3463 H 0.66514 0.82055 0.77186 0.0
H3464 H 0.7726 0.84038 0.80011 0.0
H3465 H 0.73361 0.77199 0.76335 0.0
H3466 H 0.74286 0.86307 0.83157 0.0
H3467 H 0.7241 0.86765 0.80889 0.0
H3468 H 0.75361 0.87409 0.80661 0.0
H3469 H 0.68945 0.7704 0.79045 0.0
H3470 H 0.69452 0.76228 0.75988 0.0
H3471 H 0.68014 0.7857 0.76913 0.0
C3472 C 0.48812 0.55271 0.69989 0.0
C3473 C 0.47179 0.5662 0.70317 0.0
C3474 C 0.49864 0.54932 0.67839 0.0
C3475 C 0.49384 0.56048 0.65938 0.0
C3476 C 0.47775 0.57463 0.66291 0.0
C3477 C 0.46673 0.57678 0.68412 0.0
C3478 C 0.51474 0.53327 0.67588 0.0
C3479 C 0.4723 0.58795 0.64429 0.0
C3480 C 0.53737 0.56934 0.61315 0.0
C3481 C 0.52799 0.55172 0.59243 0.0
C3482 C 0.52659 0.57252 0.63445 0.0
C3483 C 0.5056 0.55746 0.63615 0.0
C3484 C 0.49604 0.53949 0.61538 0.0
C3485 C 0.50702 0.53704 0.59414 0.0
C3486 C 0.53775 0.59243 0.65522 0.0
C3487 C 0.47407 0.52247 0.6156 0.0
H3488 H 0.49231 0.54412 0.714 0.0
H3489 H 0.45437 0.58737 0.68601 0.0
H3490 H 0.50968 0.51904 0.6594 0.0
H3491 H 0.53146 0.54388 0.67424 0.0
H3492 H 0.51581 0.52456 0.69125 0.0
H3493 H 0.46095 0.59974 0.65017 0.0
H3494 H 0.48771 0.59916 0.63991 0.0
H3495 H 0.46441 0.57493 0.62773 0.0
H3496 H 0.55318 0.58115 0.61283 0.0
H3497 H 0.49911 0.52322 0.57878 0.0
H3498 H 0.54173 0.58469 0.67057 0.0
H3499 H 0.52637 0.60425 0.66082 0.0
H3500 H 0.55328 0.60359 0.65099 0.0
H3501 H 0.47488 0.51317 0.63055 0.0
H3502 H 0.4691 0.50873 0.59875 0.0
H3503 H 0.46102 0.53269 0.61848 0.0
C3504 C 0.80866 0.17644 0.9391 0.0
C3505 C 0.79766 0.18018 0.95945 0.0
C3506 C 0.80335 0.1859 0.91951 0.0
C3507 C 0.78598 0.19811 0.92022 0.0
C3508 C 0.77476 0.20162 0.94077 0.0
C3509 C 0.78111 0.19305 0.96032 0.0
C3510 C 0.81615 0.18284 0.89814 0.0
C3511 C 0.75561 0.21383 0.94194 0.0
C3512 C 0.77602 0.24296 0.88511 0.0
C3513 C 0.75766 0.22933 0.86928 0.0
C3514 C 0.7871 0.23229 0.90018 0.0
C3515 C 0.77922 0.20759 0.89981 0.0
C3516 C 0.76168 0.19338 0.88282 0.0
C3517 C 0.75117 0.20445 0.86758 0.0
C3518 C 0.80592 0.24792 0.91795 0.0
C3519 C 0.75267 0.167 0.88214 0.0
H3520 H 0.82131 0.16621 0.93856 0.0
H3521 H 0.77224 0.19531 0.97594 0.0
H3522 H 0.80475 0.17336 0.88197 0.0
H3523 H 0.82433 0.20077 0.89515 0.0
H3524 H 0.82898 0.1726 0.90031 0.0
H3525 H 0.74809 0.21406 0.95896 0.0
H3526 H 0.76127 0.23267 0.93994 0.0
H3527 H 0.74255 0.20443 0.92715 0.0
H3528 H 0.78106 0.26225 0.8867 0.0
H3529 H 0.73734 0.19379 0.85494 0.0
H3530 H 0.81951 0.23858 0.9195 0.0
H3531 H 0.79992 0.2517 0.93573 0.0
H3532 H 0.81266 0.26538 0.91304 0.0
H3533 H 0.76629 0.15773 0.8838 0.0
H3534 H 0.74178 0.15776 0.86549 0.0
H3535 H 0.74286 0.16513 0.8974 0.0
C3536 C 0.1367 0.54105 0.18801 0.0
C3537 C 0.15622 0.53579 0.17978 0.0
C3538 C 0.12049 0.5449 0.17253 0.0
C3539 C 0.12388 0.54283 0.14838 0.0
C3540 C 0.14415 0.5391 0.14027 0.0
C3541 C 0.16024 0.53572 0.15624 0.0
C3542 C 0.09938 0.54992 0.18174 0.0
C3543 C 0.14832 0.5373 0.11449 0.0
C3544 C 0.07939 0.51645 0.09832 0.0
C3545 C 0.08043 0.53643 0.08828 0.0
C3546 C 0.09209 0.51876 0.11971 0.0
C3547 C 0.10551 0.54163 0.13091 0.0
C3548 C 0.10412 0.56234 0.12228 0.0
C3549 C 0.09161 0.5594 0.10072 0.0
C3550 C 0.09311 0.49635 0.12874 0.0
C3551 C 0.11761 0.58712 0.13421 0.0
H3552 H 0.13384 0.5417 0.20645 0.0
H3553 H 0.17553 0.53203 0.15009 0.0
H3554 H 0.09434 0.56426 0.17415 0.0
H3555 H 0.08583 0.53345 0.17623 0.0
H3556 H 0.10111 0.55543 0.20144 0.0
H3557 H 0.16547 0.53575 0.11151 0.0
H3558 H 0.13661 0.52128 0.10331 0.0
H3559 H 0.14543 0.55335 0.10835 0.0
H3560 H 0.07029 0.49884 0.0885 0.0
H3561 H 0.09158 0.57488 0.09294 0.0
H3562 H 0.09205 0.49944 0.14817 0.0
H3563 H 0.10919 0.49171 0.12541 0.0
H3564 H 0.07959 0.48074 0.1198 0.0
H3565 H 0.10969 0.60134 0.1299 0.0
H3566 H 0.13421 0.5899 0.1277 0.0
H3567 H 0.11992 0.58934 0.15379 0.0
C3568 C 0.82897 0.83789 0.45119 0.0
C3569 C 0.80985 0.84584 0.45686 0.0
C3570 C 0.83109 0.82709 0.42765 0.0
C3571 C 0.81352 0.82397 0.40972 0.0
C3572 C 0.79328 0.82949 0.41607 0.0
C3573 C 0.79183 0.84072 0.43952 0.0
C3574 C 0.85291 0.82148 0.42164 0.0
C3575 C 0.77389 0.82585 0.39766 0.0
C3576 C 0.82185 0.83676 0.34904 0.0
C3577 C 0.81526 0.81375 0.3345 0.0
C3578 C 0.82353 0.84003 0.37379 0.0
C3579 C 0.81741 0.8198 0.38421 0.0
C3580 C 0.81191 0.79634 0.3696 0.0
C3581 C 0.81098 0.79357 0.34478 0.0
C3582 C 0.8303 0.86534 0.38867 0.0
C3583 C 0.80526 0.77431 0.37992 0.0
H3584 H 0.84298 0.84207 0.46462 0.0
H3585 H 0.77704 0.84685 0.444 0.0
H3586 H 0.85047 0.80498 0.40747 0.0
H3587 H 0.86284 0.83659 0.41497 0.0
H3588 H 0.86255 0.81917 0.43748 0.0
H3589 H 0.7584 0.82719 0.40592 0.0
H3590 H 0.77745 0.83982 0.38692 0.0
H3591 H 0.77115 0.80802 0.38538 0.0
H3592 H 0.82507 0.85231 0.34096 0.0
H3593 H 0.80554 0.77575 0.33344 0.0
H3594 H 0.84265 0.8664 0.40373 0.0
H3595 H 0.81562 0.87056 0.39622 0.0
H3596 H 0.83748 0.87861 0.37812 0.0
H3597 H 0.81553 0.77611 0.39683 0.0
H3598 H 0.80669 0.75777 0.36732 0.0
H3599 H 0.78777 0.77215 0.38381 0.0
C3600 C 0.47577 0.57298 0.86985 0.0
C3601 C 0.48186 0.56072 0.84845 0.0
C3602 C 0.48455 0.57099 0.89296 0.0
C3603 C 0.49977 0.5561 0.89552 0.0
C3604 C 0.50588 0.54384 0.87402 0.0
C3605 C 0.49723 0.5464 0.85144 0.0
C3606 C 0.47737 0.58487 0.91481 0.0
C3607 C 0.5214 0.52729 0.87473 0.0
C3608 C 0.53849 0.56097 0.95399 0.0
C3609 C 0.52652 0.54341 0.96513 0.0
C3610 C 0.52987 0.56581 0.93222 0.0
C3611 C 0.50879 0.55241 0.92011 0.0
C3612 C 0.49693 0.53438 0.93115 0.0
C3613 C 0.50541 0.53085 0.95347 0.0
C3614 C 0.54319 0.58594 0.92249 0.0
C3615 C 0.47503 0.51857 0.91934 0.0
H3616 H 0.46405 0.58409 0.86865 0.0
H3617 H 0.50254 0.53652 0.83577 0.0
H3618 H 0.46701 0.57218 0.92399 0.0
H3619 H 0.49204 0.59501 0.92744 0.0
H3620 H 0.46768 0.59767 0.91049 0.0
H3621 H 0.52445 0.51858 0.8567 0.0
H3622 H 0.53752 0.53749 0.88468 0.0
H3623 H 0.51442 0.51303 0.88425 0.0
H3624 H 0.5543 0.57179 0.9629 0.0
H3625 H 0.4953 0.51791 0.9619 0.0
H3626 H 0.53288 0.59869 0.91969 0.0
H3627 H 0.54822 0.57861 0.90496 0.0
H3628 H 0.55829 0.596 0.93453 0.0
H3629 H 0.46268 0.52962 0.91862 0.0
H3630 H 0.46857 0.50412 0.92886 0.0
H3631 H 0.47675 0.51012 0.90076 0.0
C3632 C 0.76662 0.18289 0.10457 0.0
C3633 C 0.78494 0.18276 0.09164 0.0
C3634 C 0.76759 0.20076 0.12484 0.0
C3635 C 0.78752 0.21843 0.13247 0.0
C3636 C 0.80571 0.21909 0.11885 0.0
C3637 C 0.80411 0.20124 0.09832 0.0
C3638 C 0.74779 0.19979 0.13888 0.0
C3639 C 0.82734 0.23749 0.12688 0.0
C3640 C 0.78708 0.26912 0.18434 0.0
C3641 C 0.79288 0.25903 0.20314 0.0
C3642 C 0.78553 0.25625 0.16088 0.0
C3643 C 0.79048 0.23331 0.1566 0.0
C3644 C 0.79728 0.22364 0.17564 0.0
C3645 C 0.79819 0.23659 0.19874 0.0
C3646 C 0.77806 0.2668 0.14082 0.0
C3647 C 0.80325 0.19945 0.17171 0.0
H3648 H 0.7516 0.16884 0.09898 0.0
H3649 H 0.81819 0.20113 0.08811 0.0
H3650 H 0.75132 0.19378 0.15549 0.0
H3651 H 0.74438 0.21792 0.14402 0.0
H3652 H 0.73267 0.18716 0.12875 0.0
H3653 H 0.83867 0.23765 0.1127 0.0
H3654 H 0.82444 0.25578 0.13252 0.0
H3655 H 0.83571 0.23329 0.1425 0.0
H3656 H 0.78334 0.28672 0.18804 0.0
H3657 H 0.80345 0.2293 0.2134 0.0
H3658 H 0.76178 0.25563 0.13204 0.0
H3659 H 0.78988 0.26659 0.12717 0.0
H3660 H 0.77645 0.28557 0.14709 0.0
H3661 H 0.78841 0.18499 0.16389 0.0
H3662 H 0.80979 0.19552 0.18846 0.0
H3663 H 0.81589 0.19875 0.15898 0.0
C3664 C 0.15429 0.5097 0.31197 0.0
C3665 C 0.17278 0.52634 0.30801 0.0
C3666 C 0.14442 0.51412 0.33307 0.0
C3667 C 0.15301 0.53602 0.34974 0.0
C3668 C 0.17374 0.55072 0.34739 0.0
C3669 C 0.18359 0.54545 0.32645 0.0
C3670 C 0.12294 0.4974 0.33566 0.0
C3671 C 0.1835 0.57419 0.3648 0.0
C3672 C 0.111 0.57158 0.36966 0.0
C3673 C 0.11125 0.57082 0.39373 0.0
C3674 C 0.12432 0.55995 0.35515 0.0
C3675 C 0.13788 0.54677 0.3649 0.0
C3676 C 0.13763 0.54516 0.38897 0.0
C3677 C 0.12458 0.55758 0.40324 0.0
C3678 C 0.12409 0.56214 0.32945 0.0
C3679 C 0.15144 0.5309 0.39988 0.0
H3680 H 0.14599 0.49494 0.29752 0.0
H3681 H 0.19786 0.55834 0.3231 0.0
H3682 H 0.12144 0.49652 0.35455 0.0
H3683 H 0.10888 0.50421 0.32924 0.0
H3684 H 0.12155 0.47896 0.32501 0.0
H3685 H 0.20126 0.58112 0.36289 0.0
H3686 H 0.17438 0.58784 0.36152 0.0
H3687 H 0.18186 0.57213 0.38334 0.0
H3688 H 0.10035 0.58129 0.36212 0.0
H3689 H 0.12508 0.55717 0.42195 0.0
H3690 H 0.11867 0.54405 0.31756 0.0
H3691 H 0.14101 0.57025 0.32567 0.0
H3692 H 0.11285 0.57339 0.3249 0.0
H3693 H 0.15212 0.51417 0.38716 0.0
H3694 H 0.1449 0.52604 0.41622 0.0
H3695 H 0.16861 0.54189 0.40483 0.0
C3696 C 0.79365 0.83159 0.59817 0.0
C3697 C 0.81129 0.85136 0.59874 0.0
C3698 C 0.78973 0.8221 0.61847 0.0
C3699 C 0.80413 0.83229 0.63961 0.0
C3700 C 0.82236 0.85179 0.64009 0.0
C3701 C 0.82555 0.86131 0.6197 0.0
C3702 C 0.76992 0.80154 0.61746 0.0
C3703 C 0.83846 0.86261 0.66213 0.0
C3704 C 0.78615 0.82486 0.69996 0.0
C3705 C 0.79488 0.80548 0.70327 0.0
C3706 C 0.78821 0.83315 0.67877 0.0
C3707 C 0.80023 0.82249 0.66125 0.0
C3708 C 0.80916 0.80293 0.66474 0.0
C3709 C 0.8059 0.79429 0.68554 0.0
C3710 C 0.77778 0.85347 0.67528 0.0
C3711 C 0.82287 0.79174 0.647 0.0
H3712 H 0.78247 0.82397 0.58204 0.0
H3713 H 0.83925 0.87654 0.62016 0.0
H3714 H 0.77537 0.78575 0.62157 0.0
H3715 H 0.75904 0.80684 0.63111 0.0
H3716 H 0.76007 0.79598 0.59977 0.0
H3717 H 0.85239 0.87692 0.65919 0.0
H3718 H 0.82977 0.87046 0.67682 0.0
H3719 H 0.84533 0.84841 0.66803 0.0
H3720 H 0.7777 0.8334 0.71389 0.0
H3721 H 0.81292 0.77949 0.68852 0.0
H3722 H 0.76745 0.84848 0.65792 0.0
H3723 H 0.79088 0.86967 0.67501 0.0
H3724 H 0.76731 0.85821 0.68959 0.0
H3725 H 0.81311 0.78481 0.62936 0.0
H3726 H 0.82872 0.77673 0.65254 0.0
H3727 H 0.83751 0.8056 0.64484 0.0
C3728 C 0.74577 0.47001 0.49262 0.0
C3729 C 0.75043 0.45526 0.5077 0.0
C3730 C 0.72756 0.4804 0.49536 0.0
C3731 C 0.71493 0.47699 0.5145 0.0
C3732 C 0.71838 0.46015 0.52818 0.0
C3733 C 0.736 0.44908 0.52425 0.0
C3734 C 0.72336 0.49688 0.47935 0.0
C3735 C 0.70547 0.45626 0.54901 0.0
C3736 C 0.70268 0.53005 0.55496 0.0
C3737 C 0.67958 0.52368 0.55295 0.0
C3738 C 0.71445 0.51593 0.54089 0.0
C3739 C 0.70268 0.49503 0.52432 0.0
C3740 C 0.67932 0.48983 0.52056 0.0
C3741 C 0.66794 0.50422 0.53515 0.0
C3742 C 0.73945 0.52238 0.54519 0.0
C3743 C 0.66629 0.46832 0.50234 0.0
H3744 H 0.75691 0.4743 0.47951 0.0
H3745 H 0.73982 0.43754 0.53577 0.0
H3746 H 0.70559 0.49716 0.47729 0.0
H3747 H 0.73301 0.51547 0.48711 0.0
H3748 H 0.72874 0.49126 0.46151 0.0
H3749 H 0.70873 0.4409 0.55627 0.0
H3750 H 0.71015 0.47273 0.5634 0.0
H3751 H 0.68746 0.45288 0.5438 0.0
H3752 H 0.71156 0.54561 0.56826 0.0
H3753 H 0.64999 0.49952 0.53343 0.0
H3754 H 0.74675 0.52387 0.52834 0.0
H3755 H 0.74525 0.50801 0.55201 0.0
H3756 H 0.74591 0.53968 0.55822 0.0
H3757 H 0.67538 0.46457 0.48657 0.0
H3758 H 0.64988 0.47105 0.49646 0.0
H3759 H 0.66338 0.45221 0.51029 0.0
C3760 C 0.20529 0.14947 0.47707 0.0
C3761 C 0.22394 0.14445 0.48794 0.0
C3762 C 0.18401 0.1352 0.47741 0.0
C3763 C 0.18137 0.11612 0.48967 0.0
C3764 C 0.20023 0.11074 0.50025 0.0
C3765 C 0.2213 0.1247 0.49887 0.0
C3766 C 0.16432 0.14096 0.46526 0.0
C3767 C 0.19814 0.09101 0.51407 0.0
C3768 C 0.12851 0.09947 0.51817 0.0
C3769 C 0.11789 0.07723 0.50343 0.0
C3770 C 0.14888 0.11251 0.51349 0.0
C3771 C 0.15891 0.10322 0.49348 0.0
C3772 C 0.14805 0.08111 0.47812 0.0
C3773 C 0.12762 0.06839 0.48326 0.0
C3774 C 0.15999 0.13594 0.53042 0.0
C3775 C 0.15817 0.07073 0.45651 0.0
H3776 H 0.20734 0.16457 0.46837 0.0
H3777 H 0.23567 0.12071 0.50728 0.0
H3778 H 0.15364 0.12437 0.45382 0.0
H3779 H 0.15417 0.14821 0.47878 0.0
H3780 H 0.16934 0.1544 0.45418 0.0
H3781 H 0.21449 0.08841 0.52031 0.0
H3782 H 0.18917 0.09549 0.5298 0.0
H3783 H 0.18833 0.07373 0.503 0.0
H3784 H 0.12109 0.10663 0.53367 0.0
H3785 H 0.11937 0.05146 0.47152 0.0
H3786 H 0.1634 0.15072 0.52066 0.0
H3787 H 0.17613 0.13452 0.53852 0.0
H3788 H 0.14976 0.14091 0.5449 0.0
H3789 H 0.16189 0.08407 0.44512 0.0
H3790 H 0.14714 0.05392 0.44578 0.0
H3791 H 0.17407 0.06671 0.46205 0.0
C3792 C 0.22336 0.92741 0.74357 0.0
C3793 C 0.216 0.94011 0.76394 0.0
C3794 C 0.23412 0.90792 0.74414 0.0
C3795 C 0.23953 0.9011 0.76596 0.0
C3796 C 0.23267 0.91451 0.7867 0.0
C3797 C 0.22068 0.93283 0.7853 0.0
C3798 C 0.23941 0.89453 0.72087 0.0
C3799 C 0.23805 0.90999 0.81098 0.0
C3800 C 0.25314 0.84009 0.77621 0.0
C3801 C 0.27549 0.84148 0.77148 0.0
C3802 C 0.24127 0.85812 0.77328 0.0
C3803 C 0.25185 0.88017 0.76708 0.0
C3804 C 0.27444 0.8817 0.76217 0.0
C3805 C 0.28525 0.86234 0.76335 0.0
C3806 C 0.21702 0.85279 0.77686 0.0
C3807 C 0.28827 0.90416 0.75651 0.0
H3808 H 0.22007 0.93221 0.72672 0.0
H3809 H 0.21551 0.94208 0.80144 0.0
H3810 H 0.25638 0.90301 0.71756 0.0
H3811 H 0.2386 0.87534 0.72101 0.0
H3812 H 0.22786 0.89538 0.70582 0.0
H3813 H 0.24097 0.9269 0.82476 0.0
H3814 H 0.2237 0.89725 0.81544 0.0
H3815 H 0.25286 0.90237 0.81193 0.0
H3816 H 0.24445 0.8244 0.7821 0.0
H3817 H 0.30174 0.86422 0.75842 0.0
H3818 H 0.20789 0.8644 0.76925 0.0
H3819 H 0.2153 0.85516 0.79616 0.0
H3820 H 0.20907 0.83371 0.76857 0.0
H3821 H 0.29347 0.89983 0.7384 0.0
H3822 H 0.30356 0.91059 0.76906 0.0
H3823 H 0.27977 0.91913 0.75775 0.0
C3824 C 0.39372 0.99402 0.99216 0.0
C3825 C 0.38368 0.98551 0.01086 0.0
C3826 C 0.41672 0.99988 0.99265 0.0
C3827 C 0.42984 0.99743 0.0124 0.0
C3828 C 0.41978 0.99035 0.03205 0.0
C3829 C 0.39671 0.98421 0.03093 0.0
C3830 C 0.42685 0.00777 0.97169 0.0
C3831 C 0.43335 0.98865 0.05397 0.0
C3832 C 0.48705 0.98575 0.01217 0.0
C3833 C 0.49991 0.00848 0.02319 0.0
C3834 C 0.46422 0.98233 0.00629 0.0
C3835 C 0.45411 1.0019 0.01273 0.0
C3836 C 0.46717 0.02501 0.02307 0.0
C3837 C 0.4898 0.02782 0.02845 0.0
C3838 C 0.45072 0.95753 0.99456 0.0
C3839 C 0.45718 0.0464 0.03068 0.0
H3840 H 0.38361 0.995 0.9766 0.0
H3841 H 0.38887 0.97795 0.04556 0.0
H3842 H 0.44011 0.02436 0.97785 0.0
H3843 H 0.43433 0.99345 0.96229 0.0
H3844 H 0.41454 0.0113 0.95892 0.0
H3845 H 0.42293 0.98426 0.0682 0.0
H3846 H 0.44273 0.97454 0.04929 0.0
H3847 H 0.44558 1.00593 0.06111 0.0
H3848 H 0.49472 0.97056 0.00884 0.0
H3849 H 0.49911 0.04497 0.03811 0.0
H3850 H 0.4392 0.95855 0.97957 0.0
H3851 H 0.44058 0.94978 0.00757 0.0
H3852 H 0.46133 0.94518 0.98774 0.0
H3853 H 0.4436 0.04659 0.01747 0.0
H3854 H 0.46977 0.0637 0.03338 0.0
H3855 H 0.4501 0.04531 0.04775 0.0
C3856 C 0.85446 0.58733 0.78958 0.0
C3857 C 0.86942 0.59537 0.8101 0.0
C3858 C 0.84545 0.60346 0.77977 0.0
C3859 C 0.85019 0.62783 0.79195 0.0
C3860 C 0.86278 0.6354 0.81443 0.0
C3861 C 0.87304 0.6191 0.82297 0.0
C3862 C 0.83282 0.5948 0.75523 0.0
C3863 C 0.86649 0.66087 0.82856 0.0
C3864 C 0.84919 0.66327 0.74512 0.0
C3865 C 0.82662 0.66251 0.74237 0.0
C3866 C 0.85801 0.65475 0.76364 0.0
C3867 C 0.8437 0.64522 0.77942 0.0
C3868 C 0.82135 0.6466 0.77804 0.0
C3869 C 0.81295 0.65494 0.75925 0.0
C3870 C 0.88204 0.65359 0.76465 0.0
C3871 C 0.80577 0.63686 0.79478 0.0
H3872 H 0.85183 0.56896 0.77956 0.0
H3873 H 0.88457 0.62511 0.83895 0.0
H3874 H 0.81611 0.5985 0.75545 0.0
H3875 H 0.84166 0.60455 0.74257 0.0
H3876 H 0.83089 0.57521 0.74827 0.0
H3877 H 0.87354 0.66269 0.84714 0.0
H3878 H 0.87808 0.67321 0.82011 0.0
H3879 H 0.8507 0.66678 0.82884 0.0
H3880 H 0.85979 0.66994 0.73245 0.0
H3881 H 0.79545 0.65463 0.75721 0.0
H3882 H 0.88314 0.63486 0.75724 0.0
H3883 H 0.8899 0.65865 0.78322 0.0
H3884 H 0.89161 0.66561 0.75421 0.0
H3885 H 0.79988 0.61707 0.78863 0.0
H3886 H 0.79104 0.64476 0.79538 0.0
H3887 H 0.81424 0.64044 0.81302 0.0
C3888 C 0.86625 0.66403 0.02155 0.0
C3889 C 0.84569 0.64818 0.0212 0.0
C3890 C 0.88598 0.65605 0.02309 0.0
C3891 C 0.88487 0.63168 0.02392 0.0
C3892 C 0.86402 0.6154 0.02198 0.0
C3893 C 0.84476 0.62391 0.02088 0.0
C3894 C 0.90789 0.67392 0.02508 0.0
C3895 C 0.862 0.58912 0.02216 0.0
C3896 C 0.92905 0.59654 0.01576 0.0
C3897 C 0.9332 0.59374 0.03907 0.0
C3898 C 0.915 0.61116 0.01063 0.0
C3899 C 0.90503 0.62316 0.02929 0.0
C3900 C 0.91114 0.6224 0.05309 0.0
C3901 C 0.92505 0.60753 0.05768 0.0
C3902 C 0.90927 0.61188 0.98506 0.0
C3903 C 0.90137 0.63548 0.07357 0.0
H3904 H 0.86696 0.68281 0.02167 0.0
H3905 H 0.82884 0.61152 0.02006 0.0
H3906 H 0.91505 0.6794 0.04395 0.0
H3907 H 0.91987 0.66582 0.0147 0.0
H3908 H 0.90602 0.69033 0.01889 0.0
H3909 H 0.84456 0.57855 0.01863 0.0
H3910 H 0.87167 0.58106 0.00857 0.0
H3911 H 0.86888 0.58738 0.03974 0.0
H3912 H 0.93558 0.58609 1.00134 0.0
H3913 H 0.92881 0.60589 0.07578 0.0
H3914 H 0.90755 0.63005 0.98341 0.0
H3915 H 0.89318 0.59905 0.97824 0.0
H3916 H 0.92198 0.6067 0.97368 0.0
H3917 H 0.90162 0.65411 0.07168 0.0
H3918 H 0.91041 0.63624 0.09098 0.0
H3919 H 0.88384 0.62606 0.07356 0.0
C3920 C 0.23539 0.09584 0.75975 0.0
C3921 C 0.21788 0.09265 0.77408 0.0
C3922 C 0.24821 0.11924 0.75925 0.0
C3923 C 0.24391 0.14027 0.77372 0.0
C3924 C 0.22692 0.1369 0.78898 0.0
C3925 C 0.2141 0.11351 0.78869 0.0
C3926 C 0.26572 0.12154 0.74234 0.0
C3927 C 0.22171 0.15819 0.80524 0.0
C3928 C 0.28668 0.202 0.7858 0.0
C3929 C 0.2776 0.21485 0.77108 0.0
C3930 C 0.27625 0.17792 0.78666 0.0
C3931 C 0.25615 0.16573 0.77217 0.0
C3932 C 0.24704 0.1786 0.75708 0.0
C3933 C 0.25754 0.20283 0.75704 0.0
C3934 C 0.28648 0.1658 0.80374 0.0
C3935 C 0.22595 0.16679 0.74096 0.0
H3936 H 0.23831 0.08017 0.74794 0.0
H3937 H 0.20058 0.11156 0.79972 0.0
H3938 H 0.26106 0.13125 0.72882 0.0
H3939 H 0.28178 0.13231 0.75201 0.0
H3940 H 0.26796 0.10375 0.73308 0.0
H3941 H 0.20973 0.15263 0.81777 0.0
H3942 H 0.23707 0.16994 0.81566 0.0
H3943 H 0.2146 0.16913 0.79453 0.0
H3944 H 0.30152 0.21114 0.79751 0.0
H3945 H 0.24997 0.21233 0.74578 0.0
H3946 H 0.28914 0.14835 0.79418 0.0
H3947 H 0.27499 0.16188 0.81722 0.0
H3948 H 0.30255 0.17708 0.81305 0.0
H3949 H 0.22735 0.14928 0.73018 0.0
H3950 H 0.22194 0.1782 0.72878 0.0
H3951 H 0.21196 0.16304 0.75178 0.0
C3952 C 0.38856 0.95033 0.25905 0.0
C3953 C 0.39232 0.96809 0.27998 0.0
C3954 C 0.37542 0.92732 0.25825 0.0
C3955 C 0.36651 0.92193 0.27912 0.0
C3956 C 0.37038 0.93986 0.3003 0.0
C3957 C 0.38298 0.96288 0.30037 0.0
C3958 C 0.37131 0.90873 0.23518 0.0
C3959 C 0.36147 0.93469 0.3229 0.0
C3960 C 0.32092 0.86512 0.26758 0.0
C3961 C 0.33309 0.84825 0.27061 0.0
C3962 C 0.33127 0.88967 0.27213 0.0
C3963 C 0.35438 0.89705 0.27893 0.0
C3964 C 0.36645 0.87998 0.28294 0.0
C3965 C 0.35562 0.85566 0.27851 0.0
C3966 C 0.31774 0.90739 0.26824 0.0
C3967 C 0.39104 0.88716 0.29046 0.0
H3968 H 0.39562 0.95454 0.24322 0.0
H3969 H 0.38599 0.97669 0.31658 0.0
H3970 H 0.37869 0.89348 0.23735 0.0
H3971 H 0.35326 0.90137 0.2303 0.0
H3972 H 0.37843 0.91623 0.22029 0.0
H3973 H 0.36713 0.95018 0.33824 0.0
H3974 H 0.34316 0.93027 0.32027 0.0
H3975 H 0.36673 0.91892 0.32724 0.0
H3976 H 0.30349 0.85902 0.26105 0.0
H3977 H 0.36495 0.84227 0.28028 0.0
H3978 H 0.32177 0.91361 0.25169 0.0
H3979 H 0.32176 0.92345 0.28307 0.0
H3980 H 0.29967 0.8993 0.26663 0.0
H3981 H 0.39994 0.89283 0.27567 0.0
H3982 H 0.39738 0.87217 0.29538 0.0
H3983 H 0.39503 0.9027 0.30585 0.0
C3984 C 0.60863 0.39154 0.56381 0.0
C3985 C 0.59377 0.38105 0.57834 0.0
C3986 C 0.60605 0.41229 0.55552 0.0
C3987 C 0.58764 0.42245 0.56099 0.0
C3988 C 0.57222 0.41135 0.57498 0.0
C3989 C 0.57566 0.39124 0.58374 0.0
C3990 C 0.62347 0.42381 0.54152 0.0
C3991 C 0.55183 0.42053 0.58051 0.0
C3992 C 0.58977 0.48919 0.56157 0.0
C3993 C 0.5796 0.4884 0.53896 0.0
C3994 C 0.59288 0.46813 0.56864 0.0
C3995 C 0.58501 0.44523 0.55311 0.0
C3996 C 0.57466 0.44434 0.5302 0.0
C3997 C 0.57289 0.46592 0.52314 0.0
C3998 C 0.6051 0.4705 0.59267 0.0
C3999 C 0.56517 0.42057 0.5132 0.0
H4000 H 0.62276 0.38402 0.5596 0.0
H4001 H 0.56389 0.38322 0.59469 0.0
H4002 H 0.6159 0.42432 0.52381 0.0
H4003 H 0.63083 0.44272 0.55083 0.0
H4004 H 0.63695 0.41409 0.53897 0.0
H4005 H 0.54164 0.41038 0.59201 0.0
H4006 H 0.55646 0.43985 0.58942 0.0
H4007 H 0.54156 0.41894 0.56367 0.0
H4008 H 0.5959 0.50653 0.57359 0.0
H4009 H 0.56617 0.46518 0.5052 0.0
H4010 H 0.61923 0.46173 0.59064 0.0
H4011 H 0.59395 0.46117 0.60397 0.0
H4012 H 0.6115 0.48959 0.60202 0.0
H4013 H 0.57812 0.41032 0.50973 0.0
H4014 H 0.55792 0.42283 0.49598 0.0
H4015 H 0.55206 0.40955 0.52132 0.0
C4016 C 0.44788 0.79023 0.38683 0.0
C4017 C 0.45359 0.76839 0.38784 0.0
C4018 C 0.42744 0.79092 0.3755 0.0
C4019 C 0.41222 0.76918 0.36425 0.0
C4020 C 0.41744 0.74697 0.36611 0.0
C4021 C 0.438 0.74682 0.378 0.0
C4022 C 0.42273 0.81507 0.37448 0.0
C4023 C 0.40191 0.72335 0.35422 0.0
C4024 C 0.35383 0.77387 0.34296 0.0
C4025 C 0.35601 0.77607 0.31933 0.0
C4026 C 0.37166 0.77096 0.35763 0.0
C4027 C 0.39224 0.77001 0.34853 0.0
C4028 C 0.39437 0.77191 0.3246 0.0
C4029 C 0.37651 0.77535 0.31059 0.0
C4030 C 0.36861 0.76948 0.38307 0.0
C4031 C 0.4158 0.77097 0.31387 0.0
H4032 H 0.45988 0.80698 0.39427 0.0
H4033 H 0.44239 0.72988 0.37833 0.0
H4034 H 0.42332 0.81789 0.35605 0.0
H4035 H 0.40588 0.81568 0.37946 0.0
H4036 H 0.4349 0.83015 0.38643 0.0
H4037 H 0.40698 0.70779 0.35944 0.0
H4038 H 0.38479 0.72318 0.35869 0.0
H4039 H 0.40161 0.72108 0.33465 0.0
H4040 H 0.3382 0.77461 0.35008 0.0
H4041 H 0.37897 0.77833 0.29293 0.0
H4042 H 0.37981 0.78524 0.39519 0.0
H4043 H 0.37311 0.75312 0.38692 0.0
H4044 H 0.35132 0.76911 0.3871 0.0
H4045 H 0.42877 0.78719 0.32249 0.0
H4046 H 0.4141 0.77013 0.29443 0.0
H4047 H 0.4216 0.75503 0.31703 0.0
C4048 C 0.07105 0.71679 0.07138 0.0
C4049 C 0.0925 0.7316 0.0756 0.0
C4050 C 0.06738 0.69175 0.06243 0.0
C4051 C 0.08561 0.68116 0.05774 0.0
C4052 C 0.10713 0.69638 0.06033 0.0
C4053 C 0.11033 0.72133 0.06944 0.0
C4054 C 0.04413 0.6764 0.0598 0.0
C4055 C 0.12698 0.68608 0.05508 0.0
C4056 C 0.07718 0.61812 0.07033 0.0
C4057 C 0.07169 0.60326 0.0476 0.0
C4058 C 0.08287 0.64334 0.07365 0.0
C4059 C 0.08248 0.65425 0.05375 0.0
C4060 C 0.07774 0.63927 0.0306 0.0
C4061 C 0.0724 0.61397 0.02781 0.0
C4062 C 0.08838 0.65833 0.09865 0.0
C4063 C 0.07697 0.64981 0.0088 0.0
H4064 H 0.05728 0.72452 0.07667 0.0
H4065 H 0.12698 0.73262 0.07314 0.0
H4066 H 0.04057 0.66339 0.04243 0.0
H4067 H 0.04243 0.66586 0.07392 0.0
H4068 H 0.03155 0.68739 0.0612 0.0
H4069 H 0.14228 0.70033 0.05598 0.0
H4070 H 0.12966 0.67497 0.06806 0.0
H4071 H 0.124 0.67416 0.03712 0.0
H4072 H 0.07645 0.60995 0.08569 0.0
H4073 H 0.06768 0.60268 0.01019 0.0
H4074 H 0.07534 0.6683 0.10307 0.0
H4075 H 0.10427 0.67183 0.1001 0.0
H4076 H 0.0897 0.6472 0.11201 0.0
H4077 H 0.06121 0.65556 0.00693 0.0
H4078 H 0.07782 0.63649 0.99241 0.0
H4079 H 0.09072 0.6659 0.01034 0.0
C4080 C 0.09629 0.29046 0.90382 0.0
C4081 C 0.08251 0.26744 0.90123 0.0
C4082 C 0.11486 0.29428 0.89104 0.0
C4083 C 0.12029 0.27446 0.87599 0.0
C4084 C 0.10717 0.25096 0.87459 0.0
C4085 C 0.08813 0.2478 0.88677 0.0
C4086 C 0.12787 0.31971 0.89257 0.0
C4087 C 0.11287 0.22921 0.85966 0.0
C4088 C 0.14824 0.28672 0.82136 0.0
C4089 C 0.17083 0.29015 0.82888 0.0
C4090 C 0.13182 0.28148 0.83644 0.0
C4091 C 0.13784 0.27869 0.85957 0.0
C4092 C 0.16046 0.28079 0.86695 0.0
C4093 C 0.17671 0.28673 0.85163 0.0
C4094 C 0.108 0.27968 0.82779 0.0
C4095 C 0.16758 0.27729 0.8912 0.0
H4096 H 0.09189 0.30569 0.91491 0.0
H4097 H 0.0776 0.22996 0.88496 0.0
H4098 H 0.14574 0.32121 0.89716 0.0
H4099 H 0.12604 0.3245 0.87499 0.0
H4100 H 0.12227 0.333 0.90599 0.0
H4101 H 0.10315 0.21212 0.86323 0.0
H4102 H 0.10945 0.22906 0.84055 0.0
H4103 H 0.13076 0.22994 0.86309 0.0
H4104 H 0.14331 0.28849 0.8036 0.0
H4105 H 0.19403 0.28932 0.85775 0.0
H4106 H 0.10131 0.29311 0.83985 0.0
H4107 H 0.09774 0.26163 0.82802 0.0
H4108 H 0.1061 0.28278 0.80947 0.0
H4109 H 0.16567 0.29269 0.905 0.0
H4110 H 0.18513 0.276 0.89294 0.0
H4111 H 0.15695 0.26075 0.89487 0.0
C4112 C 0.59462 0.73807 0.92262 0.0
C4113 C 0.60315 0.76261 0.93233 0.0
C4114 C 0.58832 0.72187 0.93736 0.0
C4115 C 0.59025 0.73065 0.96224 0.0
C4116 C 0.59946 0.75528 0.97214 0.0
C4117 C 0.60595 0.77096 0.95704 0.0
C4118 C 0.57901 0.69557 0.92629 0.0
C4119 C 0.60173 0.76523 0.99862 0.0
C4120 C 0.55162 0.69816 0.99968 0.0
C4121 C 0.56554 0.68653 0.01046 0.0
C4122 C 0.55934 0.7121 0.98338 0.0
C4123 C 0.58152 0.71451 0.978 0.0
C4124 C 0.59562 0.70268 0.98874 0.0
C4125 C 0.58744 0.68881 0.0049 0.0
C4126 C 0.54382 0.7243 0.97197 0.0
C4127 C 0.61935 0.70483 0.98331 0.0
H4128 H 0.59269 0.73157 0.9035 0.0
H4129 H 0.61258 0.78994 0.96461 0.0
H4130 H 0.58708 0.68413 0.93548 0.0
H4131 H 0.56107 0.69073 0.92829 0.0
H4132 H 0.58121 0.69124 0.90708 0.0
H4133 H 0.61024 0.78462 0.0035 0.0
H4134 H 0.58508 0.76301 0.00501 0.0
H4135 H 0.61113 0.75511 0.00811 0.0
H4136 H 0.53455 0.69589 0.00359 0.0
H4137 H 0.59815 0.67967 0.01322 0.0
H4138 H 0.54274 0.71876 0.95234 0.0
H4139 H 0.55035 0.7441 0.97677 0.0
H4140 H 0.52688 0.71997 0.97753 0.0
H4141 H 0.62006 0.69992 0.96385 0.0
H4142 H 0.62764 0.69317 0.99197 0.0
H4143 H 0.62882 0.72376 0.98951 0.0
C4144 C 0.08397 0.74965 0.66652 0.0
C4145 C 0.07439 0.76686 0.67992 0.0
C4146 C 0.102 0.74283 0.67652 0.0
C4147 C 0.11054 0.75359 0.70033 0.0
C4148 C 0.10152 0.77169 0.71357 0.0
C4149 C 0.08353 0.77814 0.70316 0.0
C4150 C 0.1115 0.72369 0.66187 0.0
C4151 C 0.11046 0.78376 0.73898 0.0
C4152 C 0.14244 0.72342 0.73799 0.0
C4153 C 0.16394 0.7377 0.73939 0.0
C4154 C 0.12484 0.72777 0.72453 0.0
C4155 C 0.12907 0.74628 0.71163 0.0
C4156 C 0.15084 0.75969 0.7117 0.0
C4157 C 0.16786 0.75573 0.72608 0.0
C4158 C 0.10161 0.71342 0.72506 0.0
C4159 C 0.15604 0.77916 0.69763 0.0
H4160 H 0.07688 0.74081 0.64854 0.0
H4161 H 0.07617 0.7915 0.71348 0.0
H4162 H 0.12966 0.73018 0.66211 0.0
H4163 H 0.10866 0.70748 0.66967 0.0
H4164 H 0.10394 0.71834 0.64312 0.0
H4165 H 0.10146 0.79744 0.74677 0.0
H4166 H 0.10917 0.77007 0.75007 0.0
H4167 H 0.12823 0.79269 0.73991 0.0
H4168 H 0.13921 0.70923 0.74784 0.0
H4169 H 0.1841 0.7676 0.72748 0.0
H4170 H 0.09353 0.7056 0.70673 0.0
H4171 H 0.0916 0.72551 0.73392 0.0
H4172 H 0.10128 0.69865 0.73471 0.0
H4173 H 0.14769 0.77267 0.67925 0.0
H4174 H 0.17411 0.78528 0.69672 0.0
H4175 H 0.14978 0.79489 0.70604 0.0
C4176 C 0.13677 0.42266 0.41168 0.0
C4177 C 0.1259 0.4002 0.41545 0.0
C4178 C 0.13195 0.44379 0.42412 0.0
C4179 C 0.11545 0.44201 0.43992 0.0
C4180 C 0.10522 0.41948 0.44459 0.0
C4181 C 0.11086 0.39884 0.43253 0.0
C4182 C 0.1437 0.46778 0.41961 0.0
C4183 C 0.08734 0.41694 0.46122 0.0
C4184 C 0.10469 0.49113 0.48664 0.0
C4185 C 0.08542 0.49516 0.47599 0.0
C4186 C 0.11603 0.47539 0.47425 0.0
C4187 C 0.10767 0.46328 0.45077 0.0
C4188 C 0.08926 0.46875 0.43926 0.0
C4189 C 0.07838 0.48493 0.45207 0.0
C4190 C 0.13591 0.47042 0.48692 0.0
C4191 C 0.07993 0.45603 0.41416 0.0
H4192 H 0.14854 0.42364 0.39857 0.0
H4193 H 0.10233 0.38145 0.43534 0.0
H4194 H 0.13213 0.47484 0.40913 0.0
H4195 H 0.14927 0.48112 0.43662 0.0
H4196 H 0.15827 0.46636 0.40964 0.0
H4197 H 0.08134 0.39806 0.46307 0.0
H4198 H 0.0936 0.42833 0.47911 0.0
H4199 H 0.07306 0.42322 0.45449 0.0
H4200 H 0.11084 0.50016 0.50482 0.0
H4201 H 0.06375 0.48854 0.44377 0.0
H4202 H 0.14905 0.4688 0.47493 0.0
H4203 H 0.13093 0.45312 0.49266 0.0
H4204 H 0.14291 0.48476 0.50296 0.0
H4205 H 0.09331 0.45609 0.40229 0.0
H4206 H 0.06737 0.46443 0.40692 0.0
H4207 H 0.07201 0.43696 0.41386 0.0
C4208 C 0.44356 0.27552 0.20833 0.0
C4209 C 0.45181 0.25554 0.21047 0.0
C4210 C 0.42256 0.27695 0.21453 0.0
C4211 C 0.40957 0.25781 0.22291 0.0
C4212 C 0.41747 0.23701 0.22405 0.0
C4213 C 0.43882 0.2363 0.21819 0.0
C4214 C 0.41519 0.29958 0.21306 0.0
C4215 C 0.40336 0.21556 0.23136 0.0
C4216 C 0.36609 0.26633 0.26436 0.0
C4217 C 0.34715 0.26007 0.24826 0.0
C4218 C 0.38684 0.26715 0.25613 0.0
C4219 C 0.38812 0.25974 0.23147 0.0
C4220 C 0.3688 0.25287 0.21523 0.0
C4221 C 0.34844 0.25346 0.22389 0.0
C4222 C 0.40733 0.27578 0.2737 0.0
C4223 C 0.36958 0.24445 0.1889 0.0
H4224 H 0.45374 0.29034 0.20225 0.0
H4225 H 0.44518 0.22057 0.21915 0.0
H4226 H 0.39697 0.29669 0.21092 0.0
H4227 H 0.42207 0.31304 0.22965 0.0
H4228 H 0.42188 0.30717 0.19803 0.0
H4229 H 0.41112 0.1999 0.2289 0.0
H4230 H 0.4006 0.22045 0.25033 0.0
H4231 H 0.38687 0.21003 0.22083 0.0
H4232 H 0.36464 0.27078 0.28325 0.0
H4233 H 0.33343 0.24821 0.2117 0.0
H4234 H 0.41932 0.29013 0.26795 0.0
H4235 H 0.4155 0.26076 0.27434 0.0
H4236 H 0.40352 0.28295 0.29191 0.0
H4237 H 0.38014 0.25888 0.18184 0.0
H4238 H 0.35288 0.23938 0.17881 0.0
H4239 H 0.37711 0.22865 0.18566 0.0
C4240 C 0.64138 0.50024 0.35583 0.0
C4241 C 0.63944 0.51792 0.34268 0.0
C4242 C 0.63295 0.50035 0.37862 0.0
C4243 C 0.62239 0.51872 0.38941 0.0
C4244 C 0.62083 0.53671 0.37635 0.0
C4245 C 0.62903 0.536 0.35368 0.0
C4246 C 0.63505 0.4804 0.39107 0.0
C4247 C 0.61027 0.55701 0.38635 0.0
C4248 C 0.58082 0.51164 0.4378 0.0
C4249 C 0.59329 0.52462 0.45952 0.0
C4250 C 0.59006 0.50887 0.41551 0.0
C4251 C 0.61275 0.51934 0.4139 0.0
C4252 C 0.62562 0.53191 0.43581 0.0
C4253 C 0.61599 0.53413 0.45794 0.0
C4254 C 0.57518 0.49498 0.3934 0.0
C4255 C 0.64971 0.54369 0.43588 0.0
H4256 H 0.64907 0.48595 0.34812 0.0
H4257 H 0.62723 0.55006 0.34444 0.0
H4258 H 0.6441 0.48805 0.40901 0.0
H4259 H 0.61834 0.47031 0.39352 0.0
H4260 H 0.64383 0.46763 0.38101 0.0
H4261 H 0.61078 0.57013 0.37468 0.0
H4262 H 0.59275 0.54966 0.38876 0.0
H4263 H 0.61884 0.5667 0.4041 0.0
H4264 H 0.56346 0.5038 0.43801 0.0
H4265 H 0.62646 0.54361 0.4741 0.0
H4266 H 0.58282 0.481 0.38353 0.0
H4267 H 0.57311 0.50731 0.38148 0.0
H4268 H 0.55855 0.48616 0.39745 0.0
H4269 H 0.65857 0.53034 0.4271 0.0
H4270 H 0.65799 0.55178 0.45414 0.0
H4271 H 0.65125 0.55803 0.42555 0.0
C4272 C 0.34181 0.88655 0.08347 0.0
C4273 C 0.33178 0.90602 0.08607 0.0
C4274 C 0.34715 0.87739 0.10309 0.0
C4275 C 0.34164 0.88751 0.1257 0.0
C4276 C 0.33159 0.90732 0.12848 0.0
C4277 C 0.32705 0.91662 0.10856 0.0
C4278 C 0.35849 0.85669 0.09953 0.0
C4279 C 0.325 0.9181 0.15221 0.0
C4280 C 0.33754 0.84079 0.16261 0.0
C4281 C 0.35904 0.84695 0.17437 0.0
C4282 C 0.33068 0.8555 0.14864 0.0
C4283 C 0.34587 0.87646 0.14596 0.0
C4284 C 0.36675 0.884 0.15961 0.0
C4285 C 0.37299 0.86923 0.17389 0.0
C4286 C 0.30796 0.84736 0.13494 0.0
C4287 C 0.3834 0.9063 0.15733 0.0
H4288 H 0.34572 0.87863 0.06607 0.0
H4289 H 0.31919 0.93167 0.11042 0.0
H4290 H 0.37379 0.86121 0.11201 0.0
H4291 H 0.34744 0.8405 0.10338 0.0
H4292 H 0.36297 0.85207 0.08111 0.0
H4293 H 0.31981 0.93513 0.15199 0.0
H4294 H 0.31099 0.90508 0.15694 0.0
H4295 H 0.33883 0.92165 0.16642 0.0
H4296 H 0.32656 0.82368 0.1629 0.0
H4297 H 0.38933 0.8745 0.18364 0.0
H4298 H 0.30943 0.83943 0.11615 0.0
H4299 H 0.30021 0.86282 0.13507 0.0
H4300 H 0.29682 0.83358 0.14233 0.0
H4301 H 0.39116 0.90237 0.14061 0.0
H4302 H 0.3967 0.91224 0.1724 0.0
H4303 H 0.37534 0.92134 0.1564 0.0
C4304 C 0.96544 0.5312 0.87894 0.0
C4305 C 0.96121 0.54889 0.86746 0.0
C4306 C 0.9787 0.5377 0.90051 0.0
C4307 C 0.98843 0.56239 0.90993 0.0
C4308 C 0.9832 0.58036 0.89898 0.0
C4309 C 0.96924 0.57332 0.8778 0.0
C4310 C 0.98332 0.51809 0.91241 0.0
C4311 C 0.99358 0.60673 0.9086 0.0
C4312 C 0.01296 0.5679 0.97114 0.0
C4313 C 0.03285 0.5616 0.96608 0.0
C4314 C 0.99894 0.57139 0.95323 0.0
C4315 C 0.00547 0.56874 0.93007 0.0
C4316 C 0.0271 0.56619 0.92579 0.0
C4317 C 0.04071 0.56253 0.94411 0.0
C4318 C 0.97611 0.57436 0.95859 0.0
C4319 C 0.03474 0.56405 0.90128 0.0
H4320 H 0.95895 0.51235 0.87066 0.0
H4321 H 0.96592 0.58681 0.86846 0.0
H4322 H 0.00084 0.51706 0.91133 0.0
H4323 H 0.98071 0.52218 0.9315 0.0
H4324 H 0.97258 0.50016 0.90399 0.0
H4325 H 0.98507 0.61843 0.90024 0.0
H4326 H 0.99331 0.61155 0.92813 0.0
H4327 H 0.01117 0.61058 0.90499 0.0
H4328 H 0.00765 0.56845 0.98869 0.0
H4329 H 0.05643 0.55823 0.9406 0.0
H4330 H 0.96473 0.55629 0.95578 0.0
H4331 H 0.96938 0.58461 0.94683 0.0
H4332 H 0.97621 0.58359 0.97739 0.0
H4333 H 0.02754 0.54559 0.89068 0.0
H4334 H 0.05306 0.56733 0.902 0.0
H4335 H 0.02907 0.5769 0.89191 0.0
C4336 C 0.26884 0.22353 0.59702 0.0
C4337 C 0.28706 0.22488 0.58383 0.0
C4338 C 0.27098 0.23583 0.62078 0.0
C4339 C 0.29198 0.24951 0.63187 0.0
C4340 C 0.31033 0.25173 0.61829 0.0
C4341 C 0.30759 0.23957 0.59427 0.0
C4342 C 0.25077 0.23378 0.63405 0.0
C4343 C 0.33314 0.2656 0.62952 0.0
C4344 C 0.29893 0.29269 0.69226 0.0
C4345 C 0.30319 0.27801 0.70761 0.0
C4346 C 0.29425 0.28343 0.66761 0.0
C4347 C 0.29518 0.25935 0.65809 0.0
C4348 C 0.29958 0.24454 0.6737 0.0
C4349 C 0.30328 0.25399 0.69829 0.0
C4350 C 0.28869 0.29951 0.65178 0.0
C4351 C 0.301 0.21888 0.6644 0.0
H4352 H 0.25293 0.21223 0.58885 0.0
H4353 H 0.32177 0.2403 0.58415 0.0
H4354 H 0.25399 0.22827 0.65099 0.0
H4355 H 0.24682 0.25167 0.63826 0.0
H4356 H 0.2361 0.22068 0.62357 0.0
H4357 H 0.34534 0.26696 0.61626 0.0
H4358 H 0.33267 0.28402 0.63881 0.0
H4359 H 0.33897 0.25654 0.64305 0.0
H4360 H 0.29931 0.31141 0.69956 0.0
H4361 H 0.30712 0.24286 0.71023 0.0
H4362 H 0.27313 0.29042 0.64014 0.0
H4363 H 0.30199 0.30309 0.64009 0.0
H4364 H 0.28668 0.31698 0.66215 0.0
H4365 H 0.28501 0.20829 0.65441 0.0
H4366 H 0.30509 0.20996 0.67886 0.0
H4367 H 0.31386 0.21847 0.65188 0.0
C4368 C 0.65176 0.50488 0.17138 0.0
C4369 C 0.64301 0.50873 0.19358 0.0
C4370 C 0.64123 0.50844 0.14993 0.0
C4371 C 0.62137 0.51701 0.14982 0.0
C4372 C 0.61254 0.52114 0.17222 0.0
C4373 C 0.62305 0.5167 0.19329 0.0
C4374 C 0.65154 0.50284 0.12712 0.0
C4375 C 0.59208 0.53096 0.17414 0.0
C4376 C 0.61 0.54821 0.09698 0.0
C4377 C 0.59183 0.53206 0.08218 0.0
C4378 C 0.61848 0.54434 0.1192 0.0
C4379 C 0.61051 0.52239 0.12674 0.0
C4380 C 0.59276 0.5054 0.11135 0.0
C4381 C 0.58357 0.51053 0.08994 0.0
C4382 C 0.63656 0.56392 0.13441 0.0
C4383 C 0.58421 0.48096 0.1167 0.0
H4384 H 0.66699 0.49875 0.17065 0.0
H4385 H 0.6158 0.52011 0.20987 0.0
H4386 H 0.63884 0.49122 0.11287 0.0
H4387 H 0.65824 0.51972 0.12122 0.0
H4388 H 0.66521 0.49367 0.12913 0.0
H4389 H 0.58735 0.53396 0.19257 0.0
H4390 H 0.59491 0.54828 0.1682 0.0
H4391 H 0.57801 0.51835 0.16227 0.0
H4392 H 0.6183 0.56387 0.09088 0.0
H4393 H 0.57059 0.4969 0.07846 0.0
H4394 H 0.65268 0.55895 0.13267 0.0
H4395 H 0.63359 0.56623 0.15343 0.0
H4396 H 0.63777 0.58143 0.1291 0.0
H4397 H 0.59754 0.47097 0.11539 0.0
H4398 H 0.56965 0.47015 0.10422 0.0
H4399 H 0.57958 0.48273 0.13512 0.0
C4400 C 0.33592 0.87636 0.94951 0.0
C4401 C 0.31928 0.88856 0.9461 0.0
C4402 C 0.34093 0.85989 0.93068 0.0
C4403 C 0.32858 0.85523 0.90827 0.0
C4404 C 0.3113 0.86698 0.90497 0.0
C4405 C 0.30705 0.88378 0.92392 0.0
C4406 C 0.35985 0.84818 0.93451 0.0
C4407 C 0.29759 0.86221 0.88128 0.0
C4408 C 0.34557 0.83554 0.84812 0.0
C4409 C 0.33131 0.81262 0.84121 0.0
C4410 C 0.34715 0.84883 0.87134 0.0
C4411 C 0.33396 0.8389 0.88768 0.0
C4412 C 0.32223 0.81451 0.88177 0.0
C4413 C 0.32146 0.80142 0.85855 0.0
C4414 C 0.36068 0.87449 0.87732 0.0
C4415 C 0.30819 0.80318 0.89885 0.0
H4416 H 0.3456 0.8804 0.96666 0.0
H4417 H 0.29419 0.89325 0.92139 0.0
H4418 H 0.3542 0.82832 0.92903 0.0
H4419 H 0.37301 0.85388 0.92326 0.0
H4420 H 0.36717 0.85297 0.95334 0.0
H4421 H 0.28394 0.87178 0.88217 0.0
H4422 H 0.30827 0.86815 0.86781 0.0
H4423 H 0.29033 0.84264 0.875 0.0
H4424 H 0.35421 0.84393 0.83505 0.0
H4425 H 0.31165 0.78311 0.85361 0.0
H4426 H 0.36854 0.87946 0.89591 0.0
H4427 H 0.34966 0.88679 0.87543 0.0
H4428 H 0.37377 0.87741 0.86521 0.0
H4429 H 0.31648 0.80897 0.91725 0.0
H4430 H 0.30429 0.78321 0.8937 0.0
H4431 H 0.29237 0.80903 0.89879 0.0
C4432 C 0.93931 0.54856 0.71805 0.0
C4433 C 0.94894 0.55181 0.74135 0.0
C4434 C 0.95043 0.54058 0.69869 0.0
C4435 C 0.97128 0.53534 0.70304 0.0
C4436 C 0.98112 0.53891 0.72652 0.0
C4437 C 0.97001 0.5475 0.74534 0.0
C4438 C 0.93982 0.53738 0.67372 0.0
C4439 C 0.00325 0.53322 0.73185 0.0
C4440 C 0.9969 0.49334 0.66138 0.0
C4441 C 0.01372 0.50983 0.65433 0.0
C4442 C 0.98153 0.50141 0.67577 0.0
C4443 C 0.98345 0.52647 0.68339 0.0
C4444 C 0.99992 0.54311 0.67548 0.0
C4445 C 0.01493 0.53455 0.66105 0.0
C4446 C 0.96395 0.48321 0.68371 0.0
C4447 C 0.00245 0.56996 0.68327 0.0
H4448 H 0.92303 0.55191 0.71497 0.0
H4449 H 0.97762 0.55004 0.76332 0.0
H4450 H 0.95131 0.54762 0.66336 0.0
H4451 H 0.93631 0.51814 0.66461 0.0
H4452 H 0.9241 0.54346 0.67343 0.0
H4453 H 0.00833 0.53661 0.75123 0.0
H4454 H 0.0025 0.51405 0.72403 0.0
H4455 H 0.01626 0.54429 0.7237 0.0
H4456 H 0.99569 0.47422 0.65548 0.0
H4457 H 0.02784 0.5472 0.65517 0.0
H4458 H 0.94764 0.48787 0.68219 0.0
H4459 H 0.96822 0.48336 0.70268 0.0
H4460 H 0.96238 0.46469 0.67316 0.0
H4461 H 0.98616 0.57463 0.68173 0.0
H4462 H 0.01374 0.58018 0.67266 0.0
H4463 H 0.0093 0.5759 0.70222 0.0
C4464 C 0.30137 0.23683 0.43338 0.0
C4465 C 0.3104 0.21874 0.44004 0.0
C4466 C 0.30369 0.24223 0.41085 0.0
C4467 C 0.31546 0.22937 0.39473 0.0
C4468 C 0.32563 0.21204 0.40185 0.0
C4469 C 0.32288 0.20685 0.42438 0.0
C4470 C 0.29281 0.26104 0.40396 0.0
C4471 C 0.33873 0.19838 0.38534 0.0
C4472 C 0.29876 0.22493 0.32936 0.0
C4473 C 0.31471 0.24384 0.32441 0.0
C4474 C 0.29921 0.21952 0.35202 0.0
C4475 C 0.31617 0.23316 0.37002 0.0
C4476 C 0.33341 0.25077 0.36446 0.0
C4477 C 0.33268 0.25548 0.34156 0.0
C4478 C 0.28084 0.20011 0.35706 0.0
C4479 C 0.35189 0.26571 0.383 0.0
H4480 H 0.29171 0.24608 0.44539 0.0
H4481 H 0.33009 0.19301 0.4295 0.0
H4482 H 0.30508 0.27466 0.39762 0.0
H4483 H 0.27963 0.25246 0.38909 0.0
H4484 H 0.28534 0.27037 0.41897 0.0
H4485 H 0.34682 0.18664 0.39411 0.0
H4486 H 0.32764 0.18702 0.36961 0.0
H4487 H 0.35167 0.21109 0.37873 0.0
H4488 H 0.28521 0.21518 0.31601 0.0
H4489 H 0.34587 0.26895 0.33741 0.0
H4490 H 0.27086 0.20828 0.37023 0.0
H4491 H 0.28785 0.18706 0.3649 0.0
H4492 H 0.26967 0.1902 0.3408 0.0
H4493 H 0.3453 0.27874 0.39566 0.0
H4494 H 0.36563 0.27597 0.375 0.0
H4495 H 0.35863 0.25424 0.39335 0.0
C4496 C 0.35972 0.6173 0.54147 0.0
C4497 C 0.34014 0.60233 0.54573 0.0
C4498 C 0.3782 0.60798 0.53612 0.0
C4499 C 0.37652 0.58308 0.53418 0.0
C4500 C 0.35739 0.56837 0.54026 0.0
C4501 C 0.33953 0.57833 0.54641 0.0
C4502 C 0.39881 0.62443 0.53091 0.0
C4503 C 0.35494 0.54164 0.53816 0.0
C4504 C 0.40539 0.54852 0.48871 0.0
C4505 C 0.42121 0.54276 0.50336 0.0
C4506 C 0.39137 0.56279 0.4985 0.0
C4507 C 0.39349 0.57158 0.52343 0.0
C4508 C 0.41005 0.56672 0.53817 0.0
C4509 C 0.42342 0.55195 0.52802 0.0
C4510 C 0.37384 0.56783 0.48228 0.0
C4511 C 0.41319 0.57646 0.56472 0.0
H4512 H 0.36023 0.63597 0.54123 0.0
H4513 H 0.32437 0.56673 0.54966 0.0
H4514 H 0.41397 0.61952 0.53743 0.0
H4515 H 0.3987 0.62275 0.51142 0.0
H4516 H 0.39966 0.64355 0.53915 0.0
H4517 H 0.3395 0.53308 0.54488 0.0
H4518 H 0.35469 0.5328 0.51923 0.0
H4519 H 0.36922 0.53815 0.54814 0.0
H4520 H 0.40398 0.54188 0.46965 0.0
H4521 H 0.43549 0.54735 0.53951 0.0
H4522 H 0.37535 0.5875 0.48488 0.0
H4523 H 0.35717 0.55973 0.48675 0.0
H4524 H 0.375 0.56048 0.46323 0.0
H4525 H 0.41313 0.59586 0.56882 0.0
H4526 H 0.42891 0.57415 0.57305 0.0
H4527 H 0.39928 0.56693 0.573 0.0
C4528 C 0.90052 0.93581 0.51494 0.0
C4529 C 0.88797 0.93494 0.53422 0.0
C4530 C 0.92295 0.94769 0.51829 0.0
C4531 C 0.93288 0.95966 0.54145 0.0
C4532 C 0.92044 0.95814 0.56113 0.0
C4533 C 0.8981 0.94548 0.55729 0.0
C4534 C 0.93572 0.9484 0.49686 0.0
C4535 C 0.93035 0.97098 0.58601 0.0
C4536 C 0.99553 0.98019 0.54614 0.0
C4537 C 0.99816 1.00379 0.54291 0.0
C4538 C 0.97442 0.96599 0.5473 0.0
C4539 C 0.95556 0.97549 0.54449 0.0
C4540 C 0.95831 0.99962 0.54193 0.0
C4541 C 0.97961 0.01347 0.54124 0.0
C4542 C 0.97224 0.94049 0.55038 0.0
C4543 C 0.93866 0.01036 0.53841 0.0
H4544 H 0.89262 0.9275 0.49711 0.0
H4545 H 0.88825 0.94495 0.57215 0.0
H4546 H 0.93997 0.96706 0.49398 0.0
H4547 H 0.95148 0.94295 0.49986 0.0
H4548 H 0.92616 0.9364 0.48045 0.0
H4549 H 0.91924 0.9662 0.59958 0.0
H4550 H 0.94646 0.96664 0.5901 0.0
H4551 H 0.93361 0.99072 0.58741 0.0
H4552 H 0.00996 0.97269 0.54727 0.0
H4553 H 0.98154 0.03135 0.53786 0.0
H4554 H 0.96453 0.92775 0.53357 0.0
H4555 H 0.96127 0.93681 0.56435 0.0
H4556 H 0.98852 0.93682 0.55519 0.0
H4557 H 0.92921 1.00132 0.5209 0.0
H4558 H 0.9437 0.02998 0.539 0.0
H4559 H 0.92733 0.00739 0.55223 0.0
C4560 C 0.87414 0.13141 0.26959 0.0
C4561 C 0.89749 0.13591 0.27442 0.0
C4562 C 0.86246 0.15022 0.2692 0.0
C4563 C 0.87384 0.17504 0.27352 0.0
C4564 C 0.89739 0.1797 0.2785 0.0
C4565 C 0.90864 0.16057 0.27898 0.0
C4566 C 0.83762 0.14337 0.26385 0.0
C4567 C 0.91096 0.20522 0.28311 0.0
C4568 C 0.84772 0.22203 0.24769 0.0
C4569 C 0.83979 0.23551 0.26717 0.0
C4570 C 0.85818 0.2027 0.24947 0.0
C4571 C 0.86151 0.1957 0.27151 0.0
C4572 C 0.85317 0.20893 0.29131 0.0
C4573 C 0.8427 0.22838 0.28901 0.0
C4574 C 0.86603 0.18988 0.22743 0.0
C4575 C 0.85552 0.20268 0.31528 0.0
H4576 H 0.86476 0.11288 0.26597 0.0
H4577 H 0.92649 0.16506 0.2827 0.0
H4578 H 0.82992 0.15349 0.27809 0.0
H4579 H 0.83284 0.14835 0.24703 0.0
H4580 H 0.83074 0.1238 0.26218 0.0
H4581 H 0.92886 0.20647 0.28747 0.0
H4582 H 0.9089 0.21288 0.2672 0.0
H4583 H 0.905 0.2165 0.29803 0.0
H4584 H 0.84593 0.22684 0.23059 0.0
H4585 H 0.8371 0.23823 0.30452 0.0
H4586 H 0.85865 0.17027 0.22418 0.0
H4587 H 0.88426 0.19241 0.22999 0.0
H4588 H 0.86167 0.1965 0.21141 0.0
H4589 H 0.84783 0.18335 0.3139 0.0
H4590 H 0.84768 0.21359 0.32878 0.0
H4591 H 0.87332 0.20564 0.32145 0.0
C4592 C 0.71572 0.12127 0.03743 0.0
C4593 C 0.72004 0.11741 0.01363 0.0
C4594 C 0.69466 0.1123 0.04361 0.0
C4595 C 0.67768 0.09975 0.02538 0.0
C4596 C 0.68193 0.0964 1.00119 0.0
C4597 C 0.70334 0.105 0.99562 0.0
C4598 C 0.69096 0.1153 0.06955 0.0
C4599 C 0.66398 0.08347 0.98124 0.0
C4600 C 0.6276 0.05262 0.02886 0.0
C4601 C 0.61124 0.06562 0.0293 0.0
C4602 C 0.64989 0.06426 0.03104 0.0
C4603 C 0.65556 0.08912 0.03127 0.0
C4604 C 0.63914 0.1026 0.03276 0.0
C4605 C 0.617 0.09059 0.03207 0.0
C4606 C 0.66712 0.04958 0.03082 0.0
C4607 C 0.64457 0.12901 0.03226 0.0
H4608 H 0.72898 0.13078 0.05123 0.0
H4609 H 0.70702 0.10217 0.97728 0.0
H4610 H 0.67491 0.12003 0.0728 0.0
H4611 H 0.69046 0.09796 0.07495 0.0
H4612 H 0.70442 0.12929 0.08106 0.0
H4613 H 0.66958 0.08456 0.96347 0.0
H4614 H 0.65875 0.06421 0.98198 0.0
H4615 H 0.64923 0.09122 0.98316 0.0
H4616 H 0.62292 0.03323 0.02575 0.0
H4617 H 0.60407 0.10034 0.03135 0.0
H4618 H 0.68144 0.0592 0.04411 0.0
H4619 H 0.67331 0.04682 0.01308 0.0
H4620 H 0.66031 0.03163 0.03471 0.0
H4621 H 0.65936 0.13887 0.04479 0.0
H4622 H 0.63055 0.13745 0.0368 0.0
H4623 H 0.64847 0.13112 0.01416 0.0
C4624 C 0.24071 0.4569 0.22211 0.0
C4625 C 0.24475 0.4819 0.2294 0.0
C4626 C 0.25352 0.44416 0.23296 0.0
C4627 C 0.26944 0.45685 0.25231 0.0
C4628 C 0.27402 0.48219 0.25902 0.0
C4629 C 0.26202 0.49447 0.24691 0.0
C4630 C 0.24907 0.41717 0.22478 0.0
C4631 C 0.29008 0.49619 0.28037 0.0
C4632 C 0.28134 0.429 0.30351 0.0
C4633 C 0.30276 0.42633 0.30018 0.0
C4634 C 0.26968 0.43769 0.28713 0.0
C4635 C 0.27998 0.44395 0.26728 0.0
C4636 C 0.30155 0.44099 0.26374 0.0
C4637 C 0.31275 0.43213 0.28035 0.0
C4638 C 0.24656 0.44053 0.29128 0.0
C4639 C 0.31278 0.4474 0.24261 0.0
H4640 H 0.22714 0.44736 0.20865 0.0
H4641 H 0.26471 0.51382 0.25286 0.0
H4642 H 0.26479 0.41111 0.22447 0.0
H4643 H 0.23911 0.40842 0.23733 0.0
H4644 H 0.23979 0.4109 0.20679 0.0
H4645 H 0.29219 0.51595 0.28263 0.0
H4646 H 0.28397 0.49092 0.29671 0.0
H4647 H 0.30652 0.49195 0.27881 0.0
H4648 H 0.27351 0.42353 0.31849 0.0
H4649 H 0.32914 0.42923 0.27766 0.0
H4650 H 0.23482 0.43093 0.2754 0.0
H4651 H 0.24623 0.45984 0.29424 0.0
H4652 H 0.24058 0.43346 0.30686 0.0
H4653 H 0.30181 0.43864 0.22594 0.0
H4654 H 0.32877 0.44193 0.24135 0.0
H4655 H 0.31599 0.46712 0.24393 0.0
C4656 C 0.26249 0.43352 0.01968 0.0
C4657 C 0.25893 0.41441 0.03144 0.0
C4658 C 0.24552 0.44478 0.01509 0.0
C4659 C 0.22464 0.43723 0.02314 0.0
C4660 C 0.22084 0.4178 0.03494 0.0
C4661 C 0.23803 0.4063 0.03864 0.0
C4662 C 0.25011 0.46502 1.0019 0.0
C4663 C 0.19889 0.40964 0.04415 0.0
C4664 C 0.19373 0.48688 0.03068 0.0
C4665 C 0.18092 0.48117 0.00872 0.0
C4666 C 0.20707 0.47181 0.03633 0.0
C4667 C 0.20727 0.45048 0.01967 0.0
C4668 C 0.19312 0.44389 0.99814 0.0
C4669 C 0.18024 0.45953 0.99279 0.0
C4670 C 0.22201 0.47952 0.0594 0.0
C4671 C 0.19263 0.42114 0.98011 0.0
H4672 H 0.27861 0.43965 0.01393 0.0
H4673 H 0.23539 0.39158 0.04787 0.0
H4674 H 0.23785 0.46107 0.98605 0.0
H4675 H 0.24842 0.48199 0.0135 0.0
H4676 H 0.26697 0.46795 0.99596 0.0
H4677 H 0.19838 0.39382 0.05233 0.0
H4678 H 0.19565 0.42454 0.05766 0.0
H4679 H 0.18529 0.40496 0.02951 0.0
H4680 H 0.19407 0.50369 0.04292 0.0
H4681 H 0.17007 0.45517 0.97591 0.0
H4682 H 0.23945 0.48506 0.05564 0.0
H4683 H 0.22089 0.46432 0.06856 0.0
H4684 H 0.2179 0.49487 0.0716 0.0
H4685 H 0.20822 0.42327 0.97151 0.0
H4686 H 0.1785 0.41688 0.96608 0.0
H4687 H 0.19152 0.40566 0.98886 0.0
C4688 C 0.87752 0.97689 0.25624 0.0
C4689 C 0.89972 0.98412 0.26639 0.0
C4690 C 0.86437 0.95326 0.25547 0.0
C4691 C 0.8732 0.93633 0.26558 0.0
C4692 C 0.89532 0.944 0.27654 0.0
C4693 C 0.90815 0.96728 0.27651 0.0
C4694 C 0.84116 0.94613 0.24312 0.0
C4695 C 0.90568 0.92744 0.28824 0.0
C4696 C 0.83499 0.88099 0.28227 0.0
C4697 C 0.83743 0.86156 0.26463 0.0
C4698 C 0.84614 0.90515 0.28264 0.0
C4699 C 0.85979 0.9106 0.26455 0.0
C4700 C 0.86176 0.89097 0.24632 0.0
C4701 C 0.85096 0.8669 0.2468 0.0
C4702 C 0.84381 0.92484 0.30293 0.0
C4703 C 0.8755 0.89536 0.22627 0.0
H4704 H 0.87068 0.98932 0.24807 0.0
H4705 H 0.92515 0.97238 0.28456 0.0
H4706 H 0.83968 0.93056 0.22806 0.0
H4707 H 0.82919 0.9403 0.25552 0.0
H4708 H 0.83646 0.96107 0.23625 0.0
H4709 H 0.92245 0.93646 0.29741 0.0
H4710 H 0.89505 0.92069 0.30139 0.0
H4711 H 0.90704 0.91157 0.27471 0.0
H4712 H 0.82476 0.87718 0.29625 0.0
H4713 H 0.853 0.85216 0.23305 0.0
H4714 H 0.83761 0.93892 0.29601 0.0
H4715 H 0.86026 0.93358 0.31297 0.0
H4716 H 0.83236 0.91797 0.31539 0.0
H4717 H 0.87055 0.90936 0.21803 0.0
H4718 H 0.87379 0.87878 0.21231 0.0
H4719 H 0.8932 0.90217 0.23327 0.0
C4720 C 0.74252 0.1173 0.73004 0.0
C4721 C 0.72289 0.11124 0.74027 0.0
C4722 C 0.75655 0.14014 0.73762 0.0
C4723 C 0.75093 0.15682 0.75622 0.0
C4724 C 0.73187 0.14997 0.76779 0.0
C4725 C 0.71774 0.1273 0.75926 0.0
C4726 C 0.77637 0.14659 0.72447 0.0
C4727 C 0.72603 0.16684 0.7886 0.0
C4728 C 0.79008 0.21599 0.78555 0.0
C4729 C 0.78057 0.23182 0.77547 0.0
C4730 C 0.78131 0.19112 0.77864 0.0
C4731 C 0.76272 0.18236 0.76136 0.0
C4732 C 0.75358 0.19844 0.7507 0.0
C4733 C 0.76225 0.2231 0.75848 0.0
C4734 C 0.79115 0.17442 0.79063 0.0
C4735 C 0.73402 0.18965 0.73184 0.0
H4736 H 0.74653 0.10441 0.71565 0.0
H4737 H 0.70284 0.12197 0.76764 0.0
H4738 H 0.77078 0.1523 0.70838 0.0
H4739 H 0.78954 0.16136 0.73532 0.0
H4740 H 0.78343 0.13074 0.71851 0.0
H4741 H 0.71272 0.15747 0.79779 0.0
H4742 H 0.7408 0.17528 0.80166 0.0
H4743 H 0.7203 0.18153 0.78232 0.0
H4744 H 0.80388 0.2231 0.79928 0.0
H4745 H 0.75425 0.23565 0.75186 0.0
H4746 H 0.79474 0.15972 0.77716 0.0
H4747 H 0.77901 0.16598 0.80162 0.0
H4748 H 0.80665 0.18398 0.80224 0.0
H4749 H 0.73753 0.17586 0.71728 0.0
H4750 H 0.72997 0.20447 0.72422 0.0
H4751 H 0.7192 0.18107 0.73948 0.0
loop_
_geom_bond_atom_site_label_1
_geom_bond_atom_site_label_2
_geom_bond_distance
_geom_bond_site_symmetry_2
_ccdc_geom_bond_type
C0 O1 1.306 . S
C0 O3 1.160 . S
O1 C0 1.306 . S
O1 Cd2 2.228 . S
Cd2 O1 2.228 . S
Cd2 O6 2.273 . S
Cd2 O10 2.277 . S
O3 C0 1.160 . S
O3 Cd4 2.203 . S
Cd4 O3 2.203 . S
Cd4 O6 2.411 . S
Cd4 O7 2.333 . S
Cd4 O8 2.352 . S
Cd4 O12 2.277 . S
Cd4 O13 2.356 . S
C5 O10 1.209 . S
C5 O12 1.226 . S
O6 Cd2 2.273 . S
O6 Cd4 2.411 . S
O6 C9 1.320 . S
O7 Cd4 2.333 . S
O7 C9 1.214 . S
O8 Cd4 2.352 . S
O8 C11 1.258 . S
C9 O6 1.320 . S
C9 O7 1.214 . S
O10 Cd2 2.277 . S
O10 C5 1.209 . S
C11 O8 1.258 . S
C11 O13 1.282 . S
O12 Cd4 2.277 . S
O12 C5 1.226 . S
O13 Cd4 2.356 . S
O13 C11 1.282 . S
C14 O15 1.306 . S
C14 O17 1.160 . S
O15 C14 1.306 . S
O15 Cd16 2.228 1_655 S
Cd16 O15 2.228 1_455 S
Cd16 O20 2.273 . S
Cd16 O24 2.277 1_455 S
O17 C14 1.160 . S
O17 Cd18 2.203 1_655 S
Cd18 O17 2.203 1_455 S
Cd18 O20 2.411 . S
Cd18 O21 2.333 . S
Cd18 O22 2.352 . S
Cd18 O26 2.277 1_455 S
Cd18 O27 2.356 . S
C19 O24 1.209 . S
C19 O26 1.226 . S
O20 Cd16 2.273 . S
O20 Cd18 2.411 . S
O20 C23 1.320 . S
O21 Cd18 2.333 . S
O21 C23 1.214 . S
O22 Cd18 2.352 . S
O22 C25 1.258 . S
C23 O20 1.320 . S
C23 O21 1.214 . S
O24 Cd16 2.277 1_655 S
O24 C19 1.209 . S
C25 O22 1.258 . S
C25 O27 1.282 . S
O26 Cd18 2.277 1_655 S
O26 C19 1.226 . S
O27 Cd18 2.356 . S
O27 C25 1.282 . S
C28 O29 1.306 . S
C28 O31 1.160 . S
O29 C28 1.306 . S
O29 Cd30 2.228 . S
Cd30 O29 2.228 . S
Cd30 O34 2.273 . S
Cd30 O38 2.277 . S
O31 C28 1.160 . S
O31 Cd32 2.203 . S
Cd32 O31 2.203 . S
Cd32 O34 2.411 . S
Cd32 O35 2.333 . S
Cd32 O36 2.352 . S
Cd32 O40 2.277 . S
Cd32 O41 2.356 . S
C33 O38 1.209 . S
C33 O40 1.226 . S
O34 Cd30 2.273 . S
O34 Cd32 2.411 . S
O34 C37 1.320 . S
O35 Cd32 2.333 . S
O35 C37 1.214 . S
O36 Cd32 2.352 . S
O36 C39 1.258 . S
C37 O34 1.320 . S
C37 O35 1.214 . S
O38 Cd30 2.277 . S
O38 C33 1.209 . S
C39 O36 1.258 . S
C39 O41 1.282 . S
O40 Cd32 2.277 . S
O40 C33 1.226 . S
O41 Cd32 2.356 . S
O41 C39 1.282 . S
C42 O43 1.306 . S
C42 O45 1.160 . S
O43 C42 1.306 . S
O43 Cd44 2.228 . S
Cd44 O43 2.228 . S
Cd44 O48 2.273 . S
Cd44 O52 2.277 . S
O45 C42 1.160 . S
O45 Cd46 2.203 . S
Cd46 O45 2.203 . S
Cd46 O48 2.411 . S
Cd46 O49 2.333 . S
Cd46 O50 2.352 . S
Cd46 O54 2.277 . S
Cd46 O55 2.356 . S
C47 O52 1.209 . S
C47 O54 1.226 . S
O48 Cd44 2.273 . S
O48 Cd46 2.411 . S
O48 C51 1.320 . S
O49 Cd46 2.333 . S
O49 C51 1.214 . S
O50 Cd46 2.352 . S
O50 C53 1.258 . S
C51 O48 1.320 . S
C51 O49 1.214 . S
O52 Cd44 2.277 . S
O52 C47 1.209 . S
C53 O50 1.258 . S
C53 O55 1.282 . S
O54 Cd46 2.277 . S
O54 C47 1.226 . S
O55 Cd46 2.356 . S
O55 C53 1.282 . S
C56 O57 1.306 . S
C56 O59 1.160 . S
O57 C56 1.306 . S
O57 Cd58 2.228 . S
Cd58 O57 2.228 . S
Cd58 O62 2.273 . S
Cd58 O66 2.277 . S
O59 C56 1.160 . S
O59 Cd60 2.203 . S
Cd60 O59 2.203 . S
Cd60 O62 2.411 . S
Cd60 O63 2.333 . S
Cd60 O64 2.352 . S
Cd60 O68 2.277 . S
Cd60 O69 2.356 . S
C61 O66 1.209 . S
C61 O68 1.226 . S
O62 Cd58 2.273 . S
O62 Cd60 2.411 . S
O62 C65 1.320 . S
O63 Cd60 2.333 . S
O63 C65 1.214 . S
O64 Cd60 2.352 . S
O64 C67 1.258 . S
C65 O62 1.320 . S
C65 O63 1.214 . S
O66 Cd58 2.277 . S
O66 C61 1.209 . S
C67 O64 1.258 . S
C67 O69 1.282 . S
O68 Cd60 2.277 . S
O68 C61 1.226 . S
O69 Cd60 2.356 . S
O69 C67 1.282 . S
C70 O71 1.306 . S
C70 O73 1.160 . S
O71 C70 1.306 . S
O71 Cd72 2.228 . S
Cd72 O71 2.228 . S
Cd72 O76 2.273 . S
Cd72 O80 2.277 . S
O73 C70 1.160 . S
O73 Cd74 2.203 . S
Cd74 O73 2.203 . S
Cd74 O76 2.411 . S
Cd74 O77 2.333 . S
Cd74 O78 2.352 . S
Cd74 O82 2.277 . S
Cd74 O83 2.356 . S
C75 O80 1.209 . S
C75 O82 1.226 . S
O76 Cd72 2.273 . S
O76 Cd74 2.411 . S
O76 C79 1.320 . S
O77 Cd74 2.333 . S
O77 C79 1.214 . S
O78 Cd74 2.352 . S
O78 C81 1.258 . S
C79 O76 1.320 . S
C79 O77 1.214 . S
O80 Cd72 2.277 . S
O80 C75 1.209 . S
C81 O78 1.258 . S
C81 O83 1.282 . S
O82 Cd74 2.277 . S
O82 C75 1.226 . S
O83 Cd74 2.356 . S
O83 C81 1.282 . S
C84 O85 1.306 . S
C84 O87 1.160 . S
O85 C84 1.306 . S
O85 Cd86 2.228 . S
Cd86 O85 2.228 . S
Cd86 O90 2.273 . S
Cd86 O94 2.277 . S
O87 C84 1.160 . S
O87 Cd88 2.203 . S
Cd88 O87 2.203 . S
Cd88 O90 2.411 . S
Cd88 O91 2.333 . S
Cd88 O92 2.352 . S
Cd88 O96 2.277 . S
Cd88 O97 2.356 . S
C89 O94 1.209 . S
C89 O96 1.226 . S
O90 Cd86 2.273 . S
O90 Cd88 2.411 . S
O90 C93 1.320 . S
O91 Cd88 2.333 . S
O91 C93 1.214 . S
O92 Cd88 2.352 . S
O92 C95 1.258 . S
C93 O90 1.320 . S
C93 O91 1.214 . S
O94 Cd86 2.277 . S
O94 C89 1.209 . S
C95 O92 1.258 . S
C95 O97 1.282 . S
O96 Cd88 2.277 . S
O96 C89 1.226 . S
O97 Cd88 2.356 . S
O97 C95 1.282 . S
C98 O99 1.306 . S
C98 O101 1.160 . S
O99 C98 1.306 . S
O99 Cd100 2.228 1_655 S
Cd100 O99 2.228 1_455 S
Cd100 O104 2.273 . S
Cd100 O108 2.277 . S
O101 C98 1.160 . S
O101 Cd102 2.203 1_655 S
Cd102 O101 2.203 1_455 S
Cd102 O104 2.411 . S
Cd102 O105 2.333 . S
Cd102 O106 2.352 . S
Cd102 O110 2.277 . S
Cd102 O111 2.356 . S
C103 O108 1.209 . S
C103 O110 1.226 . S
O104 Cd100 2.273 . S
O104 Cd102 2.411 . S
O104 C107 1.320 . S
O105 Cd102 2.333 . S
O105 C107 1.214 . S
O106 Cd102 2.352 . S
O106 C109 1.258 . S
C107 O104 1.320 . S
C107 O105 1.214 . S
O108 Cd100 2.277 . S
O108 C103 1.209 . S
C109 O106 1.258 . S
C109 O111 1.282 . S
O110 Cd102 2.277 . S
O110 C103 1.226 . S
O111 Cd102 2.356 . S
O111 C109 1.282 . S
C112 O113 1.306 . S
C112 O115 1.160 . S
O113 C112 1.306 . S
O113 Cd114 2.228 1_545 S
Cd114 O113 2.228 1_565 S
Cd114 O118 2.273 1_565 S
Cd114 O122 2.277 . S
O115 C112 1.160 . S
O115 Cd116 2.203 . S
Cd116 O115 2.203 . S
Cd116 O118 2.411 . S
Cd116 O119 2.333 . S
Cd116 O120 2.352 . S
Cd116 O124 2.277 1_545 S
Cd116 O125 2.356 . S
C117 O122 1.209 . S
C117 O124 1.226 . S
O118 Cd114 2.273 1_545 S
O118 Cd116 2.411 . S
O118 C121 1.320 . S
O119 Cd116 2.333 . S
O119 C121 1.214 . S
O120 Cd116 2.352 . S
O120 C123 1.258 . S
C121 O118 1.320 . S
C121 O119 1.214 . S
O122 Cd114 2.277 . S
O122 C117 1.209 . S
C123 O120 1.258 . S
C123 O125 1.282 . S
O124 Cd116 2.277 1_565 S
O124 C117 1.226 . S
O125 Cd116 2.356 . S
O125 C123 1.282 . S
C126 O127 1.306 . S
C126 O129 1.160 . S
O127 C126 1.306 . S
O127 Cd128 2.228 . S
Cd128 O127 2.228 . S
Cd128 O132 2.273 . S
Cd128 O136 2.277 . S
O129 C126 1.160 . S
O129 Cd130 2.203 . S
Cd130 O129 2.203 . S
Cd130 O132 2.411 . S
Cd130 O133 2.333 . S
Cd130 O134 2.352 . S
Cd130 O138 2.277 . S
Cd130 O139 2.356 . S
C131 O136 1.209 . S
C131 O138 1.226 . S
O132 Cd128 2.273 . S
O132 Cd130 2.411 . S
O132 C135 1.320 . S
O133 Cd130 2.333 . S
O133 C135 1.214 . S
O134 Cd130 2.352 . S
O134 C137 1.258 . S
C135 O132 1.320 . S
C135 O133 1.214 . S
O136 Cd128 2.277 . S
O136 C131 1.209 . S
C137 O134 1.258 . S
C137 O139 1.282 . S
O138 Cd130 2.277 . S
O138 C131 1.226 . S
O139 Cd130 2.356 . S
O139 C137 1.282 . S
C140 O141 1.306 . S
C140 O143 1.160 . S
O141 C140 1.306 . S
O141 Cd142 2.228 . S
Cd142 O141 2.228 . S
Cd142 O146 2.273 1_545 S
Cd142 O150 2.277 . S
O143 C140 1.160 . S
O143 Cd144 2.203 1_545 S
Cd144 O143 2.203 1_565 S
Cd144 O146 2.411 . S
Cd144 O147 2.333 . S
Cd144 O148 2.352 . S
Cd144 O152 2.277 1_565 S
Cd144 O153 2.356 . S
C145 O150 1.209 . S
C145 O152 1.226 . S
O146 Cd142 2.273 1_565 S
O146 Cd144 2.411 . S
O146 C149 1.320 . S
O147 Cd144 2.333 . S
O147 C149 1.214 . S
O148 Cd144 2.352 . S
O148 C151 1.258 . S
C149 O146 1.320 . S
C149 O147 1.214 . S
O150 Cd142 2.277 . S
O150 C145 1.209 . S
C151 O148 1.258 . S
C151 O153 1.282 . S
O152 Cd144 2.277 1_545 S
O152 C145 1.226 . S
O153 Cd144 2.356 . S
O153 C151 1.282 . S
C154 O155 1.306 . S
C154 O157 1.160 . S
O155 C154 1.306 . S
O155 Cd156 2.228 1_554 S
Cd156 O155 2.228 1_556 S
Cd156 O160 2.273 1_556 S
Cd156 O164 2.277 . S
O157 C154 1.160 . S
O157 Cd158 2.203 . S
Cd158 O157 2.203 . S
Cd158 O160 2.411 . S
Cd158 O161 2.333 . S
Cd158 O162 2.352 . S
Cd158 O166 2.277 1_554 S
Cd158 O167 2.356 . S
C159 O164 1.209 . S
C159 O166 1.226 . S
O160 Cd156 2.273 1_554 S
O160 Cd158 2.411 . S
O160 C163 1.320 . S
O161 Cd158 2.333 . S
O161 C163 1.214 . S
O162 Cd158 2.352 . S
O162 C165 1.258 . S
C163 O160 1.320 . S
C163 O161 1.214 . S
O164 Cd156 2.277 . S
O164 C159 1.209 . S
C165 O162 1.258 . S
C165 O167 1.282 . S
O166 Cd158 2.277 1_556 S
O166 C159 1.226 . S
O167 Cd158 2.356 . S
O167 C165 1.282 . S
C168 O169 1.306 . S
C168 O171 1.160 . S
O169 C168 1.306 . S
O169 Cd170 2.228 . S
Cd170 O169 2.228 . S
Cd170 O174 2.273 . S
Cd170 O178 2.277 1_554 S
O171 C168 1.160 . S
O171 Cd172 2.203 . S
Cd172 O171 2.203 . S
Cd172 O174 2.411 . S
Cd172 O175 2.333 . S
Cd172 O176 2.352 . S
Cd172 O180 2.277 . S
Cd172 O181 2.356 . S
C173 O178 1.209 . S
C173 O180 1.226 1_556 S
O174 Cd170 2.273 . S
O174 Cd172 2.411 . S
O174 C177 1.320 . S
O175 Cd172 2.333 . S
O175 C177 1.214 . S
O176 Cd172 2.352 . S
O176 C179 1.258 . S
C177 O174 1.320 . S
C177 O175 1.214 . S
O178 Cd170 2.277 1_556 S
O178 C173 1.209 . S
C179 O176 1.258 . S
C179 O181 1.282 . S
O180 Cd172 2.277 . S
O180 C173 1.226 1_554 S
O181 Cd172 2.356 . S
O181 C179 1.282 . S
C182 O183 1.306 . S
C182 O185 1.160 . S
O183 C182 1.306 . S
O183 Cd184 2.228 . S
Cd184 O183 2.228 . S
Cd184 O188 2.273 . S
Cd184 O192 2.277 . S
O185 C182 1.160 . S
O185 Cd186 2.203 . S
Cd186 O185 2.203 . S
Cd186 O188 2.411 . S
Cd186 O189 2.333 . S
Cd186 O190 2.352 1_554 S
Cd186 O194 2.277 . S
Cd186 O195 2.356 . S
C187 O192 1.209 . S
C187 O194 1.226 . S
O188 Cd184 2.273 . S
O188 Cd186 2.411 . S
O188 C191 1.320 . S
O189 Cd186 2.333 . S
O189 C191 1.214 . S
O190 Cd186 2.352 1_556 S
O190 C193 1.258 . S
C191 O188 1.320 . S
C191 O189 1.214 . S
O192 Cd184 2.277 . S
O192 C187 1.209 . S
C193 O190 1.258 . S
C193 O195 1.282 1_556 S
O194 Cd186 2.277 . S
O194 C187 1.226 . S
O195 Cd186 2.356 . S
O195 C193 1.282 1_554 S
C196 O197 1.306 . S
C196 O199 1.160 . S
O197 C196 1.306 . S
O197 Cd198 2.228 . S
Cd198 O197 2.228 . S
Cd198 O202 2.273 . S
Cd198 O206 2.277 . S
O199 C196 1.160 . S
O199 Cd200 2.203 . S
Cd200 O199 2.203 . S
Cd200 O202 2.411 . S
Cd200 O203 2.333 . S
Cd200 O204 2.352 . S
Cd200 O208 2.277 . S
Cd200 O209 2.356 . S
C201 O206 1.209 . S
C201 O208 1.226 . S
O202 Cd198 2.273 . S
O202 Cd200 2.411 . S
O202 C205 1.320 . S
O203 Cd200 2.333 . S
O203 C205 1.214 . S
O204 Cd200 2.352 . S
O204 C207 1.258 . S
C205 O202 1.320 . S
C205 O203 1.214 . S
O206 Cd198 2.277 . S
O206 C201 1.209 . S
C207 O204 1.258 . S
C207 O209 1.282 . S
O208 Cd200 2.277 . S
O208 C201 1.226 . S
O209 Cd200 2.356 . S
O209 C207 1.282 . S
C210 O211 1.306 . S
C210 O213 1.160 . S
O211 C210 1.306 . S
O211 Cd212 2.228 . S
Cd212 O211 2.228 . S
Cd212 O216 2.273 . S
Cd212 O220 2.277 . S
O213 C210 1.160 . S
O213 Cd214 2.203 . S
Cd214 O213 2.203 . S
Cd214 O216 2.411 . S
Cd214 O217 2.333 . S
Cd214 O218 2.352 . S
Cd214 O222 2.277 . S
Cd214 O223 2.356 . S
C215 O220 1.209 . S
C215 O222 1.226 . S
O216 Cd212 2.273 . S
O216 Cd214 2.411 . S
O216 C219 1.320 . S
O217 Cd214 2.333 . S
O217 C219 1.214 . S
O218 Cd214 2.352 . S
O218 C221 1.258 . S
C219 O216 1.320 . S
C219 O217 1.214 . S
O220 Cd212 2.277 . S
O220 C215 1.209 . S
C221 O218 1.258 . S
C221 O223 1.282 . S
O222 Cd214 2.277 . S
O222 C215 1.226 . S
O223 Cd214 2.356 . S
O223 C221 1.282 . S
C224 O225 1.306 . S
C224 O227 1.160 . S
O225 C224 1.306 . S
O225 Cd226 2.228 . S
Cd226 O225 2.228 . S
Cd226 O230 2.273 . S
Cd226 O234 2.277 . S
O227 C224 1.160 . S
O227 Cd228 2.203 . S
Cd228 O227 2.203 . S
Cd228 O230 2.411 . S
Cd228 O231 2.333 . S
Cd228 O232 2.352 . S
Cd228 O236 2.277 . S
Cd228 O237 2.356 . S
C229 O234 1.209 . S
C229 O236 1.226 . S
O230 Cd226 2.273 . S
O230 Cd228 2.411 . S
O230 C233 1.320 . S
O231 Cd228 2.333 . S
O231 C233 1.214 . S
O232 Cd228 2.352 . S
O232 C235 1.258 . S
C233 O230 1.320 . S
C233 O231 1.214 . S
O234 Cd226 2.277 . S
O234 C229 1.209 . S
C235 O232 1.258 . S
C235 O237 1.282 . S
O236 Cd228 2.277 . S
O236 C229 1.226 . S
O237 Cd228 2.356 . S
O237 C235 1.282 . S
C238 O239 1.306 . S
C238 O241 1.160 . S
O239 C238 1.306 . S
O239 Cd240 2.228 . S
Cd240 O239 2.228 . S
Cd240 O244 2.273 . S
Cd240 O248 2.277 . S
O241 C238 1.160 . S
O241 Cd242 2.203 . S
Cd242 O241 2.203 . S
Cd242 O244 2.411 . S
Cd242 O245 2.333 . S
Cd242 O246 2.352 . S
Cd242 O250 2.277 . S
Cd242 O251 2.356 . S
C243 O248 1.209 . S
C243 O250 1.226 . S
O244 Cd240 2.273 . S
O244 Cd242 2.411 . S
O244 C247 1.320 . S
O245 Cd242 2.333 . S
O245 C247 1.214 . S
O246 Cd242 2.352 . S
O246 C249 1.258 . S
C247 O244 1.320 . S
C247 O245 1.214 . S
O248 Cd240 2.277 . S
O248 C243 1.209 . S
C249 O246 1.258 . S
C249 O251 1.282 . S
O250 Cd242 2.277 . S
O250 C243 1.226 . S
O251 Cd242 2.356 . S
O251 C249 1.282 . S
C252 O253 1.306 . S
C252 O255 1.160 . S
O253 C252 1.306 . S
O253 Cd254 2.228 . S
Cd254 O253 2.228 . S
Cd254 O258 2.273 . S
Cd254 O262 2.277 . S
O255 C252 1.160 . S
O255 Cd256 2.203 . S
Cd256 O255 2.203 . S
Cd256 O258 2.411 . S
Cd256 O259 2.333 . S
Cd256 O260 2.352 . S
Cd256 O264 2.277 . S
Cd256 O265 2.356 . S
C257 O262 1.209 . S
C257 O264 1.226 . S
O258 Cd254 2.273 . S
O258 Cd256 2.411 . S
O258 C261 1.320 . S
O259 Cd256 2.333 . S
O259 C261 1.214 . S
O260 Cd256 2.352 . S
O260 C263 1.258 . S
C261 O258 1.320 . S
C261 O259 1.214 . S
O262 Cd254 2.277 . S
O262 C257 1.209 . S
C263 O260 1.258 . S
C263 O265 1.282 . S
O264 Cd256 2.277 . S
O264 C257 1.226 . S
O265 Cd256 2.356 . S
O265 C263 1.282 . S
C266 O267 1.306 . S
C266 O269 1.160 . S
O267 C266 1.306 . S
O267 Cd268 2.228 . S
Cd268 O267 2.228 . S
Cd268 O272 2.273 . S
Cd268 O276 2.277 . S
O269 C266 1.160 . S
O269 Cd270 2.203 . S
Cd270 O269 2.203 . S
Cd270 O272 2.411 . S
Cd270 O273 2.333 . S
Cd270 O274 2.352 . S
Cd270 O278 2.277 . S
Cd270 O279 2.356 . S
C271 O276 1.209 . S
C271 O278 1.226 . S
O272 Cd268 2.273 . S
O272 Cd270 2.411 . S
O272 C275 1.320 . S
O273 Cd270 2.333 . S
O273 C275 1.214 . S
O274 Cd270 2.352 . S
O274 C277 1.258 . S
C275 O272 1.320 . S
C275 O273 1.214 . S
O276 Cd268 2.277 . S
O276 C271 1.209 . S
C277 O274 1.258 . S
C277 O279 1.282 . S
O278 Cd270 2.277 . S
O278 C271 1.226 . S
O279 Cd270 2.356 . S
O279 C277 1.282 . S
C280 O281 1.306 . S
C280 O283 1.160 1_554 S
O281 C280 1.306 . S
O281 Cd282 2.228 . S
Cd282 O281 2.228 . S
Cd282 O286 2.273 1_554 S
Cd282 O290 2.277 . S
O283 C280 1.160 1_556 S
O283 Cd284 2.203 . S
Cd284 O283 2.203 . S
Cd284 O286 2.411 . S
Cd284 O287 2.333 . S
Cd284 O288 2.352 . S
Cd284 O292 2.277 1_556 S
Cd284 O293 2.356 . S
C285 O290 1.209 . S
C285 O292 1.226 . S
O286 Cd282 2.273 1_556 S
O286 Cd284 2.411 . S
O286 C289 1.320 . S
O287 Cd284 2.333 . S
O287 C289 1.214 . S
O288 Cd284 2.352 . S
O288 C291 1.258 . S
C289 O286 1.320 . S
C289 O287 1.214 . S
O290 Cd282 2.277 . S
O290 C285 1.209 . S
C291 O288 1.258 . S
C291 O293 1.282 . S
O292 Cd284 2.277 1_554 S
O292 C285 1.226 . S
O293 Cd284 2.356 . S
O293 C291 1.282 . S
C294 O295 1.306 . S
C294 O297 1.160 . S
O295 C294 1.306 . S
O295 Cd296 2.228 . S
Cd296 O295 2.228 . S
Cd296 O300 2.273 . S
Cd296 O304 2.277 . S
O297 C294 1.160 . S
O297 Cd298 2.203 . S
Cd298 O297 2.203 . S
Cd298 O300 2.411 . S
Cd298 O301 2.333 . S
Cd298 O302 2.352 . S
Cd298 O306 2.277 . S
Cd298 O307 2.356 . S
C299 O304 1.209 . S
C299 O306 1.226 . S
O300 Cd296 2.273 . S
O300 Cd298 2.411 . S
O300 C303 1.320 . S
O301 Cd298 2.333 . S
O301 C303 1.214 . S
O302 Cd298 2.352 . S
O302 C305 1.258 . S
C303 O300 1.320 . S
C303 O301 1.214 . S
O304 Cd296 2.277 . S
O304 C299 1.209 . S
C305 O302 1.258 . S
C305 O307 1.282 . S
O306 Cd298 2.277 . S
O306 C299 1.226 . S
O307 Cd298 2.356 . S
O307 C305 1.282 . S
C308 O309 1.306 . S
C308 O311 1.160 . S
O309 C308 1.306 . S
O309 Cd310 2.228 . S
Cd310 O309 2.228 . S
Cd310 O314 2.273 . S
Cd310 O318 2.277 . S
O311 C308 1.160 . S
O311 Cd312 2.203 . S
Cd312 O311 2.203 . S
Cd312 O314 2.411 . S
Cd312 O315 2.333 . S
Cd312 O316 2.352 . S
Cd312 O320 2.277 . S
Cd312 O321 2.356 . S
C313 O318 1.209 . S
C313 O320 1.226 . S
O314 Cd310 2.273 . S
O314 Cd312 2.411 . S
O314 C317 1.320 . S
O315 Cd312 2.333 . S
O315 C317 1.214 . S
O316 Cd312 2.352 . S
O316 C319 1.258 . S
C317 O314 1.320 . S
C317 O315 1.214 . S
O318 Cd310 2.277 . S
O318 C313 1.209 . S
C319 O316 1.258 . S
C319 O321 1.282 . S
O320 Cd312 2.277 . S
O320 C313 1.226 . S
O321 Cd312 2.356 . S
O321 C319 1.282 . S
C322 O323 1.306 . S
C322 O325 1.160 . S
O323 C322 1.306 . S
O323 Cd324 2.228 . S
Cd324 O323 2.228 . S
Cd324 O328 2.273 . S
Cd324 O332 2.277 . S
O325 C322 1.160 . S
O325 Cd326 2.203 . S
Cd326 O325 2.203 . S
Cd326 O328 2.411 . S
Cd326 O329 2.333 . S
Cd326 O330 2.352 . S
Cd326 O334 2.277 . S
Cd326 O335 2.356 . S
C327 O332 1.209 . S
C327 O334 1.226 . S
O328 Cd324 2.273 . S
O328 Cd326 2.411 . S
O328 C331 1.320 . S
O329 Cd326 2.333 . S
O329 C331 1.214 . S
O330 Cd326 2.352 . S
O330 C333 1.258 . S
C331 O328 1.320 . S
C331 O329 1.214 . S
O332 Cd324 2.277 . S
O332 C327 1.209 . S
C333 O330 1.258 . S
C333 O335 1.282 . S
O334 Cd326 2.277 . S
O334 C327 1.226 . S
O335 Cd326 2.356 . S
O335 C333 1.282 . S
Eu336 N367 2.657 1_545 S
Eu336 N374 2.609 1_544 S
Eu336 O380 2.558 1_454 S
Eu336 O381 2.612 . S
Eu336 O383 2.339 . S
Eu336 O384 2.563 . S
Eu336 O385 2.419 1_455 S
Eu336 O387 2.380 . S
Eu336 O388 2.432 1_554 S
Eu336 C400 2.848 1_454 S
C337 C340 1.429 . S
C337 C341 1.411 . S
C337 N344 1.377 . S
C338 C340 1.420 . S
C338 C342 1.423 . S
C338 C350 1.392 . S
C339 C341 1.420 . S
C339 C342 1.351 . S
C339 H362 0.931 . S
C340 C337 1.429 . S
C340 C338 1.420 . S
C340 N348 1.362 . S
C341 C337 1.411 . S
C341 C339 1.420 . S
C341 C346 1.395 . S
C342 C338 1.423 . S
C342 C339 1.351 . S
C342 H354 0.930 . S
C343 C345 1.400 . S
C343 C346 1.386 . S
C343 H355 0.930 . S
N344 C337 1.377 . S
N344 C345 1.321 . S
N344 Eu347 2.609 . S
C345 C343 1.400 . S
C345 N344 1.321 . S
C345 H352 0.930 . S
C346 C341 1.395 . S
C346 C343 1.386 . S
C346 H365 0.930 . S
Eu347 N344 2.609 . S
Eu347 N348 2.657 . S
Eu347 O381 2.380 . S
Eu347 O382 2.432 . S
Eu347 O386 2.558 . S
Eu347 O387 2.612 . S
Eu347 O389 2.339 1_554 S
Eu347 O390 2.563 . S
Eu347 O391 2.419 . S
Eu347 C411 2.848 . S
N348 C340 1.362 . S
N348 Eu347 2.657 . S
N348 C349 1.334 1_554 S
C349 N348 1.334 1_556 S
C349 C351 1.413 . S
C349 H356 0.929 . S
C350 C338 1.392 . S
C350 C351 1.367 1_554 S
C350 H358 0.930 1_554 S
C351 C349 1.413 . S
C351 C350 1.367 1_556 S
C351 H353 0.930 . S
H352 C345 0.930 . S
H353 C351 0.930 . S
H354 C342 0.930 . S
H355 C343 0.930 . S
H356 C349 0.929 . S
H357 C371 0.930 . S
H358 C350 0.930 1_556 S
H359 C377 0.930 . S
H360 C368 0.929 . S
H361 C375 0.929 . S
H362 C339 0.931 . S
H363 C369 0.930 . S
H364 C402 0.930 1_554 S
H365 C346 0.930 . S
H366 C401 0.931 . S
N367 Eu336 2.657 1_565 S
N367 C368 1.334 . S
N367 C372 1.369 . S
C368 H360 0.929 . S
C368 N367 1.334 . S
C368 C371 1.413 . S
C369 H363 0.930 . S
C369 C370 1.392 . S
C369 C371 1.367 1_655 S
C370 C369 1.392 . S
C370 C372 1.413 1_655 S
C370 C402 1.423 1_554 S
C371 H357 0.930 . S
C371 C368 1.413 . S
C371 C369 1.367 1_455 S
C372 N367 1.369 . S
C372 C370 1.413 1_455 S
C372 C376 1.430 1_554 S
H373 C378 0.930 . S
N374 Eu336 2.609 1_566 S
N374 C376 1.379 . S
N374 C377 1.321 . S
C375 H361 0.929 . S
C375 C377 1.398 1_655 S
C375 C378 1.388 . S
C376 C372 1.430 1_556 S
C376 N374 1.379 . S
C376 C379 1.410 1_455 S
C377 H359 0.930 . S
C377 N374 1.321 . S
C377 C375 1.398 1_455 S
C378 H373 0.930 . S
C378 C375 1.388 . S
C378 C379 1.395 . S
C379 C376 1.410 1_655 S
C379 C378 1.395 . S
C379 C401 1.420 . S
O380 Eu336 2.558 1_656 S
O380 C400 1.257 . S
O381 Eu336 2.612 . S
O381 Eu347 2.380 . S
O381 C392 1.276 . S
O382 Eu347 2.432 . S
O382 C399 1.264 . S
O383 Eu336 2.339 . S
O383 C399 1.254 . S
O384 Eu336 2.563 . S
O384 C392 1.235 . S
O385 Eu336 2.419 1_655 S
O385 C400 1.249 1_554 S
O386 Eu347 2.558 . S
O386 C411 1.257 . S
O387 Eu336 2.380 . S
O387 Eu347 2.612 . S
O387 C403 1.276 1_545 S
O388 Eu336 2.432 1_556 S
O388 C410 1.264 . S
O389 Eu347 2.339 1_556 S
O389 C410 1.254 . S
O390 Eu347 2.563 . S
O390 C403 1.235 1_545 S
O391 Eu347 2.419 . S
O391 C411 1.249 . S
C392 O381 1.276 . S
C392 O384 1.235 . S
C393 C395 1.393 1_556 S
C393 C397 1.395 . S
C393 C400 1.492 . S
C394 C395 1.391 1_556 S
C394 C396 1.393 . S
C395 C393 1.393 1_554 S
C395 C394 1.391 1_554 S
C395 H412 0.930 . S
C396 C394 1.393 . S
C396 C398 1.395 . S
C396 H413 0.930 . S
C397 C393 1.395 . S
C397 C398 1.379 . S
C397 H414 0.930 . S
C398 C396 1.395 . S
C398 C397 1.379 . S
C398 H415 0.930 . S
C399 O382 1.264 . S
C399 O383 1.254 . S
C400 Eu336 2.848 1_656 S
C400 O380 1.257 . S
C400 O385 1.249 1_556 S
C400 C393 1.492 . S
C401 H366 0.931 . S
C401 C379 1.420 . S
C401 C402 1.351 . S
C402 H364 0.930 1_556 S
C402 C370 1.423 1_556 S
C402 C401 1.351 . S
C403 O387 1.276 1_565 S
C403 O390 1.235 1_565 S
C404 C405 1.393 . S
C404 C408 1.395 . S
C404 C411 1.492 . S
C405 C404 1.393 . S
C405 C406 1.392 . S
C405 H416 0.930 . S
C406 C405 1.392 . S
C406 C407 1.386 . S
C407 C406 1.386 . S
C407 C409 1.395 . S
C407 H417 0.930 . S
C408 C404 1.395 . S
C408 C409 1.379 . S
C408 H418 0.930 . S
C409 C407 1.395 . S
C409 C408 1.379 . S
C409 H419 0.930 . S
C410 O388 1.264 . S
C410 O389 1.254 . S
C411 Eu347 2.848 . S
C411 O386 1.257 . S
C411 O391 1.249 . S
C411 C404 1.492 . S
H412 C395 0.930 . S
H413 C396 0.930 . S
H414 C397 0.930 . S
H415 C398 0.930 . S
H416 C405 0.930 . S
H417 C407 0.930 . S
H418 C408 0.930 . S
H419 C409 0.930 . S
Eu420 N451 2.657 . S
Eu420 N458 2.609 . S
Eu420 O464 2.558 . S
Eu420 O465 2.612 . S
Eu420 O467 2.339 . S
Eu420 O468 2.563 . S
Eu420 O469 2.419 . S
Eu420 O471 2.380 . S
Eu420 O472 2.432 . S
Eu420 C484 2.848 . S
C421 C424 1.429 . S
C421 C425 1.411 . S
C421 N428 1.377 . S
C422 C424 1.420 . S
C422 C426 1.423 . S
C422 C434 1.392 . S
C423 C425 1.420 . S
C423 C426 1.351 . S
C423 H446 0.931 . S
C424 C421 1.429 . S
C424 C422 1.420 . S
C424 N432 1.362 . S
C425 C421 1.411 . S
C425 C423 1.420 . S
C425 C430 1.395 . S
C426 C422 1.423 . S
C426 C423 1.351 . S
C426 H438 0.930 . S
C427 C429 1.400 . S
C427 C430 1.386 . S
C427 H439 0.930 . S
N428 C421 1.377 . S
N428 C429 1.321 . S
N428 Eu431 2.609 . S
C429 C427 1.400 . S
C429 N428 1.321 . S
C429 H436 0.930 . S
C430 C425 1.395 . S
C430 C427 1.386 . S
C430 H449 0.930 . S
Eu431 N428 2.609 . S
Eu431 N432 2.657 . S
Eu431 O465 2.380 . S
Eu431 O466 2.432 . S
Eu431 O470 2.558 . S
Eu431 O471 2.612 . S
Eu431 O473 2.339 . S
Eu431 O474 2.563 . S
Eu431 O475 2.419 . S
Eu431 C495 2.848 . S
N432 C424 1.362 . S
N432 Eu431 2.657 . S
N432 C433 1.334 . S
C433 N432 1.334 . S
C433 C435 1.413 . S
C433 H440 0.929 . S
C434 C422 1.392 . S
C434 C435 1.367 . S
C434 H442 0.930 . S
C435 C433 1.413 . S
C435 C434 1.367 . S
C435 H437 0.930 . S
H436 C429 0.930 . S
H437 C435 0.930 . S
H438 C426 0.930 . S
H439 C427 0.930 . S
H440 C433 0.929 . S
H441 C455 0.930 . S
H442 C434 0.930 . S
H443 C461 0.930 . S
H444 C452 0.929 . S
H445 C459 0.930 . S
H446 C423 0.931 . S
H447 C453 0.930 . S
H448 C486 0.930 . S
H449 C430 0.930 . S
H450 C485 0.931 . S
N451 Eu420 2.657 . S
N451 C452 1.334 . S
N451 C456 1.362 . S
C452 H444 0.929 . S
C452 N451 1.334 . S
C452 C455 1.413 . S
C453 H447 0.930 . S
C453 C454 1.392 . S
C453 C455 1.367 . S
C454 C453 1.392 . S
C454 C456 1.420 . S
C454 C486 1.423 . S
C455 H441 0.930 . S
C455 C452 1.413 . S
C455 C453 1.367 . S
C456 N451 1.362 . S
C456 C454 1.420 . S
C456 C460 1.429 . S
H457 C462 0.930 . S
N458 Eu420 2.609 . S
N458 C460 1.377 . S
N458 C461 1.321 . S
C459 H445 0.930 . S
C459 C461 1.400 . S
C459 C462 1.386 . S
C460 C456 1.429 . S
C460 N458 1.377 . S
C460 C463 1.411 . S
C461 H443 0.930 . S
C461 N458 1.321 . S
C461 C459 1.400 . S
C462 H457 0.930 . S
C462 C459 1.386 . S
C462 C463 1.395 . S
C463 C460 1.411 . S
C463 C462 1.395 . S
C463 C485 1.420 . S
O464 Eu420 2.558 . S
O464 C484 1.257 . S
O465 Eu420 2.612 . S
O465 Eu431 2.380 . S
O465 C476 1.276 . S
O466 Eu431 2.432 . S
O466 C483 1.264 . S
O467 Eu420 2.339 . S
O467 C483 1.254 . S
O468 Eu420 2.563 . S
O468 C476 1.235 . S
O469 Eu420 2.419 . S
O469 C484 1.249 . S
O470 Eu431 2.558 . S
O470 C495 1.257 . S
O471 Eu420 2.380 . S
O471 Eu431 2.612 . S
O471 C487 1.276 . S
O472 Eu420 2.432 . S
O472 C494 1.264 . S
O473 Eu431 2.339 . S
O473 C494 1.254 . S
O474 Eu431 2.563 . S
O474 C487 1.235 . S
O475 Eu431 2.419 . S
O475 C495 1.249 . S
C476 O465 1.276 . S
C476 O468 1.235 . S
C477 C479 1.393 . S
C477 C481 1.395 . S
C477 C484 1.492 . S
C478 C479 1.392 . S
C478 C480 1.386 . S
C479 C477 1.393 . S
C479 C478 1.392 . S
C479 H496 0.930 . S
C480 C478 1.386 . S
C480 C482 1.395 . S
C480 H497 0.930 . S
C481 C477 1.395 . S
C481 C482 1.379 . S
C481 H498 0.930 . S
C482 C480 1.395 . S
C482 C481 1.379 . S
C482 H499 0.930 . S
C483 O466 1.264 . S
C483 O467 1.254 . S
C484 Eu420 2.848 . S
C484 O464 1.257 . S
C484 O469 1.249 . S
C484 C477 1.492 . S
C485 H450 0.931 . S
C485 C463 1.420 . S
C485 C486 1.351 . S
C486 H448 0.930 . S
C486 C454 1.423 . S
C486 C485 1.351 . S
C487 O471 1.276 . S
C487 O474 1.235 . S
C488 C489 1.393 . S
C488 C492 1.395 . S
C488 C495 1.492 . S
C489 C488 1.393 . S
C489 C490 1.392 . S
C489 H500 0.930 . S
C490 C489 1.392 . S
C490 C491 1.386 . S
C491 C490 1.386 . S
C491 C493 1.395 . S
C491 H501 0.930 . S
C492 C488 1.395 . S
C492 C493 1.379 . S
C492 H502 0.930 . S
C493 C491 1.395 . S
C493 C492 1.379 . S
C493 H503 0.930 . S
C494 O472 1.264 . S
C494 O473 1.254 . S
C495 Eu431 2.848 . S
C495 O470 1.257 . S
C495 O475 1.249 . S
C495 C488 1.492 . S
H496 C479 0.930 . S
H497 C480 0.930 . S
H498 C481 0.930 . S
H499 C482 0.930 . S
H500 C489 0.930 . S
H501 C491 0.930 . S
H502 C492 0.930 . S
H503 C493 0.930 . S
Eu504 N535 2.657 . S
Eu504 N542 2.609 . S
Eu504 O548 2.558 . S
Eu504 O549 2.612 . S
Eu504 O551 2.339 . S
Eu504 O552 2.563 1_545 S
Eu504 O553 2.419 . S
Eu504 O555 2.380 . S
Eu504 O556 2.432 . S
Eu504 C568 2.848 . S
C505 C508 1.429 . S
C505 C509 1.411 . S
C505 N512 1.377 1_565 S
C506 C508 1.420 . S
C506 C510 1.423 . S
C506 C518 1.392 . S
C507 C509 1.420 . S
C507 C510 1.351 . S
C507 H530 0.931 . S
C508 C505 1.429 . S
C508 C506 1.420 . S
C508 N516 1.362 . S
C509 C505 1.411 . S
C509 C507 1.420 . S
C509 C514 1.395 . S
C510 C506 1.423 . S
C510 C507 1.351 . S
C510 H522 0.930 . S
C511 C513 1.388 1_565 S
C511 C514 1.401 . S
C511 H523 0.927 1_565 S
N512 C505 1.377 1_545 S
N512 C513 1.321 . S
N512 Eu515 2.609 . S
C513 C511 1.388 1_545 S
C513 N512 1.321 . S
C513 H520 0.930 . S
C514 C509 1.395 . S
C514 C511 1.401 . S
C514 H533 0.930 . S
Eu515 N512 2.609 . S
Eu515 N516 2.657 1_545 S
Eu515 O549 2.380 . S
Eu515 O550 2.432 . S
Eu515 O554 2.558 . S
Eu515 O555 2.612 . S
Eu515 O557 2.339 . S
Eu515 O558 2.563 . S
Eu515 O559 2.419 . S
Eu515 C579 2.848 . S
N516 C508 1.362 . S
N516 Eu515 2.657 1_565 S
N516 C517 1.334 . S
C517 N516 1.334 . S
C517 C519 1.413 . S
C517 H524 0.929 . S
C518 C506 1.392 . S
C518 C519 1.367 . S
C518 H526 0.930 . S
C519 C517 1.413 . S
C519 C518 1.367 . S
C519 H521 0.930 . S
H520 C513 0.930 . S
H521 C519 0.930 . S
H522 C510 0.930 . S
H523 C511 0.927 1_545 S
H524 C517 0.929 . S
H525 C539 0.930 . S
H526 C518 0.930 . S
H527 C545 0.930 . S
H528 C536 0.929 . S
H529 C543 0.930 . S
H530 C507 0.931 . S
H531 C537 0.930 . S
H532 C570 0.930 . S
H533 C514 0.930 . S
H534 C569 0.931 . S
N535 Eu504 2.657 . S
N535 C536 1.334 . S
N535 C540 1.362 . S
C536 H528 0.929 . S
C536 N535 1.334 . S
C536 C539 1.413 . S
C537 H531 0.930 . S
C537 C538 1.392 . S
C537 C539 1.367 . S
C538 C537 1.392 . S
C538 C540 1.420 . S
C538 C570 1.423 . S
C539 H525 0.930 . S
C539 C536 1.413 . S
C539 C537 1.367 . S
C540 N535 1.362 . S
C540 C538 1.420 . S
C540 C544 1.429 . S
H541 C546 0.930 . S
N542 Eu504 2.609 . S
N542 C544 1.377 . S
N542 C545 1.321 . S
C543 H529 0.930 . S
C543 C545 1.400 . S
C543 C546 1.386 . S
C544 C540 1.429 . S
C544 N542 1.377 . S
C544 C547 1.411 . S
C545 H527 0.930 . S
C545 N542 1.321 . S
C545 C543 1.400 . S
C546 H541 0.930 . S
C546 C543 1.386 . S
C546 C547 1.395 . S
C547 C544 1.411 . S
C547 C546 1.395 . S
C547 C569 1.420 . S
O548 Eu504 2.558 . S
O548 C568 1.257 . S
O549 Eu504 2.612 . S
O549 Eu515 2.380 . S
O549 C560 1.276 1_545 S
O550 Eu515 2.432 . S
O550 C567 1.264 . S
O551 Eu504 2.339 . S
O551 C567 1.254 . S
O552 Eu504 2.563 1_565 S
O552 C560 1.235 . S
O553 Eu504 2.419 . S
O553 C568 1.249 . S
O554 Eu515 2.558 . S
O554 C579 1.257 . S
O555 Eu504 2.380 . S
O555 Eu515 2.612 . S
O555 C571 1.276 . S
O556 Eu504 2.432 . S
O556 C578 1.264 . S
O557 Eu515 2.339 . S
O557 C578 1.254 . S
O558 Eu515 2.563 . S
O558 C571 1.235 . S
O559 Eu515 2.419 . S
O559 C579 1.249 . S
C560 O549 1.276 1_565 S
C560 O552 1.235 . S
C561 C563 1.393 1_545 S
C561 C565 1.393 . S
C561 C568 1.492 . S
C562 C563 1.392 . S
C562 C564 1.386 . S
C563 C561 1.393 1_565 S
C563 C562 1.392 . S
C563 H580 0.930 . S
C564 C562 1.386 . S
C564 C566 1.395 . S
C564 H581 0.930 . S
C565 C561 1.393 . S
C565 C566 1.358 1_545 S
C565 H582 0.953 . S
C566 C564 1.395 . S
C566 C565 1.358 1_565 S
C566 H583 0.930 . S
C567 O550 1.264 . S
C567 O551 1.254 . S
C568 Eu504 2.848 . S
C568 O548 1.257 . S
C568 O553 1.249 . S
C568 C561 1.492 . S
C569 H534 0.931 . S
C569 C547 1.420 . S
C569 C570 1.351 . S
C570 H532 0.930 . S
C570 C538 1.423 . S
C570 C569 1.351 . S
C571 O555 1.276 . S
C571 O558 1.235 . S
C572 C573 1.393 . S
C572 C576 1.395 . S
C572 C579 1.492 . S
C573 C572 1.393 . S
C573 C574 1.392 . S
C573 H584 0.930 . S
C574 C573 1.392 . S
C574 C575 1.386 . S
C575 C574 1.386 . S
C575 C577 1.395 . S
C575 H585 0.930 . S
C576 C572 1.395 . S
C576 C577 1.379 . S
C576 H586 0.930 . S
C577 C575 1.395 . S
C577 C576 1.379 . S
C577 H587 0.930 . S
C578 O556 1.264 . S
C578 O557 1.254 . S
C579 Eu515 2.848 . S
C579 O554 1.257 . S
C579 O559 1.249 . S
C579 C572 1.492 . S
H580 C563 0.930 . S
H581 C564 0.930 . S
H582 C565 0.953 . S
H583 C566 0.930 . S
H584 C573 0.930 . S
H585 C575 0.930 . S
H586 C576 0.930 . S
H587 C577 0.930 . S
Eu588 N619 2.657 . S
Eu588 N626 2.609 . S
Eu588 O632 2.558 . S
Eu588 O633 2.612 . S
Eu588 O635 2.339 . S
Eu588 O636 2.563 . S
Eu588 O637 2.419 . S
Eu588 O639 2.380 . S
Eu588 O640 2.432 . S
Eu588 C652 2.848 . S
C589 C592 1.429 . S
C589 C593 1.411 . S
C589 N596 1.377 . S
C590 C592 1.420 . S
C590 C594 1.423 . S
C590 C602 1.392 . S
C591 C593 1.420 . S
C591 C594 1.351 . S
C591 H614 0.931 . S
C592 C589 1.429 . S
C592 C590 1.420 . S
C592 N600 1.362 . S
C593 C589 1.411 . S
C593 C591 1.420 . S
C593 C598 1.395 . S
C594 C590 1.423 . S
C594 C591 1.351 . S
C594 H606 0.930 . S
C595 C597 1.400 . S
C595 C598 1.386 . S
C595 H607 0.930 . S
N596 C589 1.377 . S
N596 C597 1.321 . S
N596 Eu599 2.609 . S
C597 C595 1.400 . S
C597 N596 1.321 . S
C597 H604 0.930 . S
C598 C593 1.395 . S
C598 C595 1.386 . S
C598 H617 0.930 . S
Eu599 N596 2.609 . S
Eu599 N600 2.657 . S
Eu599 O633 2.380 . S
Eu599 O634 2.432 . S
Eu599 O638 2.558 . S
Eu599 O639 2.612 . S
Eu599 O641 2.339 . S
Eu599 O642 2.563 . S
Eu599 O643 2.419 . S
Eu599 C663 2.848 . S
N600 C592 1.362 . S
N600 Eu599 2.657 . S
N600 C601 1.334 . S
C601 N600 1.334 . S
C601 C603 1.413 . S
C601 H608 0.929 . S
C602 C590 1.392 . S
C602 C603 1.367 . S
C602 H610 0.930 . S
C603 C601 1.413 . S
C603 C602 1.367 . S
C603 H605 0.930 . S
H604 C597 0.930 . S
H605 C603 0.930 . S
H606 C594 0.930 . S
H607 C595 0.930 . S
H608 C601 0.929 . S
H609 C623 0.930 . S
H610 C602 0.930 . S
H611 C629 0.930 . S
H612 C620 0.929 . S
H613 C627 0.930 . S
H614 C591 0.931 . S
H615 C621 0.930 . S
H616 C654 0.930 . S
H617 C598 0.930 . S
H618 C653 0.931 . S
N619 Eu588 2.657 . S
N619 C620 1.334 . S
N619 C624 1.362 . S
C620 H612 0.929 . S
C620 N619 1.334 . S
C620 C623 1.413 . S
C621 H615 0.930 . S
C621 C622 1.392 . S
C621 C623 1.367 . S
C622 C621 1.392 . S
C622 C624 1.420 . S
C622 C654 1.423 . S
C623 H609 0.930 . S
C623 C620 1.413 . S
C623 C621 1.367 . S
C624 N619 1.362 . S
C624 C622 1.420 . S
C624 C628 1.429 . S
H625 C630 0.930 . S
N626 Eu588 2.609 . S
N626 C628 1.377 . S
N626 C629 1.321 . S
C627 H613 0.930 . S
C627 C629 1.400 . S
C627 C630 1.386 . S
C628 C624 1.429 . S
C628 N626 1.377 . S
C628 C631 1.411 . S
C629 H611 0.930 . S
C629 N626 1.321 . S
C629 C627 1.400 . S
C630 H625 0.930 . S
C630 C627 1.386 . S
C630 C631 1.395 . S
C631 C628 1.411 . S
C631 C630 1.395 . S
C631 C653 1.420 . S
O632 Eu588 2.558 . S
O632 C652 1.257 . S
O633 Eu588 2.612 . S
O633 Eu599 2.380 . S
O633 C644 1.276 . S
O634 Eu599 2.432 . S
O634 C651 1.264 . S
O635 Eu588 2.339 . S
O635 C651 1.254 . S
O636 Eu588 2.563 . S
O636 C644 1.235 . S
O637 Eu588 2.419 . S
O637 C652 1.249 . S
O638 Eu599 2.558 . S
O638 C663 1.257 . S
O639 Eu588 2.380 . S
O639 Eu599 2.612 . S
O639 C655 1.276 . S
O640 Eu588 2.432 . S
O640 C662 1.264 . S
O641 Eu599 2.339 . S
O641 C662 1.254 . S
O642 Eu599 2.563 . S
O642 C655 1.235 . S
O643 Eu599 2.419 . S
O643 C663 1.249 . S
C644 O633 1.276 . S
C644 O636 1.235 . S
C645 C647 1.393 . S
C645 C649 1.395 . S
C645 C652 1.492 . S
C646 C647 1.392 . S
C646 C648 1.386 . S
C647 C645 1.393 . S
C647 C646 1.392 . S
C647 H664 0.930 . S
C648 C646 1.386 . S
C648 C650 1.395 . S
C648 H665 0.930 . S
C649 C645 1.395 . S
C649 C650 1.379 . S
C649 H666 0.930 . S
C650 C648 1.395 . S
C650 C649 1.379 . S
C650 H667 0.930 . S
C651 O634 1.264 . S
C651 O635 1.254 . S
C652 Eu588 2.848 . S
C652 O632 1.257 . S
C652 O637 1.249 . S
C652 C645 1.492 . S
C653 H618 0.931 . S
C653 C631 1.420 . S
C653 C654 1.351 . S
C654 H616 0.930 . S
C654 C622 1.423 . S
C654 C653 1.351 . S
C655 O639 1.276 . S
C655 O642 1.235 . S
C656 C657 1.393 . S
C656 C660 1.395 . S
C656 C663 1.492 . S
C657 C656 1.393 . S
C657 C658 1.392 . S
C657 H668 0.930 . S
C658 C657 1.392 . S
C658 C659 1.386 . S
C659 C658 1.386 . S
C659 C661 1.395 . S
C659 H669 0.930 . S
C660 C656 1.395 . S
C660 C661 1.379 . S
C660 H670 0.930 . S
C661 C659 1.395 . S
C661 C660 1.379 . S
C661 H671 0.930 . S
C662 O640 1.264 . S
C662 O641 1.254 . S
C663 Eu599 2.848 . S
C663 O638 1.257 . S
C663 O643 1.249 . S
C663 C656 1.492 . S
H664 C647 0.930 . S
H665 C648 0.930 . S
H666 C649 0.930 . S
H667 C650 0.930 . S
H668 C657 0.930 . S
H669 C659 0.930 . S
H670 C660 0.930 . S
H671 C661 0.930 . S
Eu672 N703 2.657 . S
Eu672 N710 2.609 . S
Eu672 O716 2.558 . S
Eu672 O717 2.612 . S
Eu672 O719 2.339 . S
Eu672 O720 2.563 . S
Eu672 O721 2.419 . S
Eu672 O723 2.380 . S
Eu672 O724 2.432 . S
Eu672 C736 2.848 . S
C673 C676 1.429 . S
C673 C677 1.411 . S
C673 N680 1.377 . S
C674 C676 1.420 . S
C674 C678 1.423 . S
C674 C686 1.392 . S
C675 C677 1.420 . S
C675 C678 1.351 . S
C675 H698 0.931 . S
C676 C673 1.429 . S
C676 C674 1.420 . S
C676 N684 1.362 . S
C677 C673 1.411 . S
C677 C675 1.420 . S
C677 C682 1.395 . S
C678 C674 1.423 . S
C678 C675 1.351 . S
C678 H690 0.930 . S
C679 C681 1.400 . S
C679 C682 1.386 . S
C679 H691 0.930 . S
N680 C673 1.377 . S
N680 C681 1.321 . S
N680 Eu683 2.610 . S
C681 C679 1.400 . S
C681 N680 1.321 . S
C681 H688 0.930 . S
C682 C677 1.395 . S
C682 C679 1.386 . S
C682 H701 0.930 . S
Eu683 N680 2.610 . S
Eu683 N684 2.657 . S
Eu683 O717 2.377 1_565 S
Eu683 O718 2.430 1_565 S
Eu683 O722 2.561 . S
Eu683 O723 2.610 1_565 S
Eu683 O725 2.343 . S
Eu683 O726 2.564 1_565 S
Eu683 O727 2.422 . S
Eu683 C747 2.851 . S
N684 C676 1.362 . S
N684 Eu683 2.657 . S
N684 C685 1.334 . S
C685 N684 1.334 . S
C685 C687 1.413 . S
C685 H692 0.929 . S
C686 C674 1.392 . S
C686 C687 1.367 . S
C686 H694 0.930 . S
C687 C685 1.413 . S
C687 C686 1.367 . S
C687 H689 0.930 1_455 S
H688 C681 0.930 . S
H689 C687 0.930 1_655 S
H690 C678 0.930 . S
H691 C679 0.930 . S
H692 C685 0.929 . S
H693 C707 0.930 . S
H694 C686 0.930 . S
H695 C713 0.930 . S
H696 C704 0.929 . S
H697 C711 0.930 1_655 S
H698 C675 0.931 . S
H699 C705 0.930 . S
H700 C738 0.930 . S
H701 C682 0.930 . S
H702 C737 0.931 . S
N703 Eu672 2.657 . S
N703 C704 1.334 . S
N703 C708 1.362 . S
C704 H696 0.929 . S
C704 N703 1.334 . S
C704 C707 1.413 . S
C705 H699 0.930 . S
C705 C706 1.392 . S
C705 C707 1.367 . S
C706 C705 1.392 . S
C706 C708 1.420 . S
C706 C738 1.423 . S
C707 H693 0.930 . S
C707 C704 1.413 . S
C707 C705 1.367 . S
C708 N703 1.362 . S
C708 C706 1.420 . S
C708 C712 1.429 . S
H709 C714 0.930 . S
N710 Eu672 2.609 . S
N710 C712 1.377 . S
N710 C713 1.321 . S
C711 H697 0.930 1_455 S
C711 C713 1.400 . S
C711 C714 1.386 . S
C712 C708 1.429 . S
C712 N710 1.377 . S
C712 C715 1.411 . S
C713 H695 0.930 . S
C713 N710 1.321 . S
C713 C711 1.400 . S
C714 H709 0.930 . S
C714 C711 1.386 . S
C714 C715 1.395 . S
C715 C712 1.411 . S
C715 C714 1.395 . S
C715 C737 1.420 . S
O716 Eu672 2.558 . S
O716 C736 1.257 . S
O717 Eu672 2.612 . S
O717 Eu683 2.377 1_545 S
O717 C728 1.276 . S
O718 Eu683 2.430 1_545 S
O718 C735 1.264 . S
O719 Eu672 2.339 . S
O719 C735 1.254 . S
O720 Eu672 2.563 . S
O720 C728 1.235 . S
O721 Eu672 2.419 . S
O721 C736 1.249 . S
O722 Eu683 2.561 . S
O722 C747 1.257 . S
O723 Eu672 2.380 . S
O723 Eu683 2.610 1_545 S
O723 C739 1.276 . S
O724 Eu672 2.432 . S
O724 C746 1.264 . S
O725 Eu683 2.343 . S
O725 C746 1.236 1_565 S
O726 Eu683 2.564 1_545 S
O726 C739 1.235 . S
O727 Eu683 2.422 . S
O727 C747 1.249 . S
C728 O717 1.276 . S
C728 O720 1.235 . S
C729 C731 1.393 . S
C729 C733 1.395 . S
C729 C736 1.492 . S
C730 C731 1.392 . S
C730 C732 1.386 . S
C731 C729 1.393 . S
C731 C730 1.392 . S
C731 H748 0.930 . S
C732 C730 1.386 . S
C732 C734 1.395 . S
C732 H749 0.930 . S
C733 C729 1.395 . S
C733 C734 1.379 . S
C733 H750 0.930 . S
C734 C732 1.395 . S
C734 C733 1.379 . S
C734 H751 0.930 . S
C735 O718 1.264 . S
C735 O719 1.254 . S
C736 Eu672 2.848 . S
C736 O716 1.257 . S
C736 O721 1.249 . S
C736 C729 1.492 . S
C737 H702 0.931 . S
C737 C715 1.420 . S
C737 C738 1.351 . S
C738 H700 0.930 . S
C738 C706 1.423 . S
C738 C737 1.351 . S
C739 O723 1.276 . S
C739 O726 1.235 . S
C740 C741 1.393 . S
C740 C744 1.395 . S
C740 C747 1.492 . S
C741 C740 1.393 . S
C741 C742 1.392 . S
C741 H752 0.930 . S
C742 C741 1.392 . S
C742 C743 1.386 . S
C743 C742 1.386 . S
C743 C745 1.395 . S
C743 H753 0.930 . S
C744 C740 1.395 . S
C744 C745 1.379 . S
C744 H754 0.930 . S
C745 C743 1.395 . S
C745 C744 1.379 . S
C745 H755 0.930 . S
C746 O724 1.264 . S
C746 O725 1.236 1_545 S
C747 Eu683 2.851 . S
C747 O722 1.257 . S
C747 O727 1.249 . S
C747 C740 1.492 . S
H748 C731 0.930 . S
H749 C732 0.930 . S
H750 C733 0.930 . S
H751 C734 0.930 . S
H752 C741 0.930 . S
H753 C743 0.930 . S
H754 C744 0.930 . S
H755 C745 0.930 . S
Eu756 N787 2.657 . S
Eu756 N794 2.609 . S
Eu756 O800 2.558 . S
Eu756 O801 2.612 . S
Eu756 O803 2.339 . S
Eu756 O804 2.563 . S
Eu756 O805 2.419 . S
Eu756 O807 2.380 . S
Eu756 O808 2.432 . S
Eu756 C820 2.848 . S
C757 C760 1.429 . S
C757 C761 1.411 . S
C757 N764 1.377 . S
C758 C760 1.420 . S
C758 C762 1.423 . S
C758 C770 1.392 . S
C759 C761 1.420 . S
C759 C762 1.351 . S
C759 H782 0.931 . S
C760 C757 1.429 . S
C760 C758 1.420 . S
C760 N768 1.362 . S
C761 C757 1.411 . S
C761 C759 1.420 . S
C761 C766 1.395 . S
C762 C758 1.423 . S
C762 C759 1.351 . S
C762 H774 0.930 . S
C763 C765 1.400 . S
C763 C766 1.386 . S
C763 H775 0.930 . S
N764 C757 1.377 . S
N764 C765 1.321 . S
N764 Eu767 2.609 . S
C765 C763 1.400 . S
C765 N764 1.321 . S
C765 H772 0.930 . S
C766 C761 1.395 . S
C766 C763 1.386 . S
C766 H785 0.930 . S
Eu767 N764 2.609 . S
Eu767 N768 2.657 . S
Eu767 O801 2.380 . S
Eu767 O802 2.432 . S
Eu767 O806 2.558 . S
Eu767 O807 2.612 . S
Eu767 O809 2.339 . S
Eu767 O810 2.563 . S
Eu767 O811 2.419 . S
Eu767 C831 2.848 . S
N768 C760 1.362 . S
N768 Eu767 2.657 . S
N768 C769 1.334 . S
C769 N768 1.334 . S
C769 C771 1.413 . S
C769 H776 0.929 . S
C770 C758 1.392 . S
C770 C771 1.367 . S
C770 H778 0.930 . S
C771 C769 1.413 . S
C771 C770 1.367 . S
C771 H773 0.930 . S
H772 C765 0.930 . S
H773 C771 0.930 . S
H774 C762 0.930 . S
H775 C763 0.930 . S
H776 C769 0.929 . S
H777 C791 0.930 . S
H778 C770 0.930 . S
H779 C797 0.930 . S
H780 C788 0.929 . S
H781 C795 0.930 . S
H782 C759 0.931 . S
H783 C789 0.930 . S
H784 C822 0.930 . S
H785 C766 0.930 . S
H786 C821 0.931 . S
N787 Eu756 2.657 . S
N787 C788 1.334 . S
N787 C792 1.362 . S
C788 H780 0.929 . S
C788 N787 1.334 . S
C788 C791 1.413 . S
C789 H783 0.930 . S
C789 C790 1.392 . S
C789 C791 1.367 . S
C790 C789 1.392 . S
C790 C792 1.420 . S
C790 C822 1.423 . S
C791 H777 0.930 . S
C791 C788 1.413 . S
C791 C789 1.367 . S
C792 N787 1.362 . S
C792 C790 1.420 . S
C792 C796 1.429 . S
H793 C798 0.930 . S
N794 Eu756 2.609 . S
N794 C796 1.377 . S
N794 C797 1.321 . S
C795 H781 0.930 . S
C795 C797 1.400 . S
C795 C798 1.386 . S
C796 C792 1.429 . S
C796 N794 1.377 . S
C796 C799 1.411 . S
C797 H779 0.930 . S
C797 N794 1.321 . S
C797 C795 1.400 . S
C798 H793 0.930 . S
C798 C795 1.386 . S
C798 C799 1.395 . S
C799 C796 1.411 . S
C799 C798 1.395 . S
C799 C821 1.420 . S
O800 Eu756 2.558 . S
O800 C820 1.257 . S
O801 Eu756 2.612 . S
O801 Eu767 2.380 . S
O801 C812 1.276 . S
O802 Eu767 2.432 . S
O802 C819 1.264 . S
O803 Eu756 2.339 . S
O803 C819 1.254 . S
O804 Eu756 2.563 . S
O804 C812 1.235 . S
O805 Eu756 2.419 . S
O805 C820 1.249 . S
O806 Eu767 2.558 . S
O806 C831 1.257 . S
O807 Eu756 2.380 . S
O807 Eu767 2.612 . S
O807 C823 1.276 . S
O808 Eu756 2.432 . S
O808 C830 1.264 . S
O809 Eu767 2.339 . S
O809 C830 1.254 . S
O810 Eu767 2.563 . S
O810 C823 1.235 . S
O811 Eu767 2.419 . S
O811 C831 1.249 . S
C812 O801 1.276 . S
C812 O804 1.235 . S
C813 C815 1.393 . S
C813 C817 1.395 . S
C813 C820 1.492 . S
C814 C815 1.392 . S
C814 C816 1.386 . S
C815 C813 1.393 . S
C815 C814 1.392 . S
C815 H832 0.930 . S
C816 C814 1.386 . S
C816 C818 1.395 . S
C816 H833 0.930 . S
C817 C813 1.395 . S
C817 C818 1.379 . S
C817 H834 0.930 . S
C818 C816 1.395 . S
C818 C817 1.379 . S
C818 H835 0.930 . S
C819 O802 1.264 . S
C819 O803 1.254 . S
C820 Eu756 2.848 . S
C820 O800 1.257 . S
C820 O805 1.249 . S
C820 C813 1.492 . S
C821 H786 0.931 . S
C821 C799 1.420 . S
C821 C822 1.351 . S
C822 H784 0.930 . S
C822 C790 1.423 . S
C822 C821 1.351 . S
C823 O807 1.276 . S
C823 O810 1.235 . S
C824 C825 1.393 . S
C824 C828 1.395 . S
C824 C831 1.492 . S
C825 C824 1.393 . S
C825 C826 1.392 . S
C825 H836 0.930 . S
C826 C825 1.392 . S
C826 C827 1.386 . S
C827 C826 1.386 . S
C827 C829 1.395 . S
C827 H837 0.930 . S
C828 C824 1.395 . S
C828 C829 1.379 . S
C828 H838 0.930 . S
C829 C827 1.395 . S
C829 C828 1.379 . S
C829 H839 0.930 . S
C830 O808 1.264 . S
C830 O809 1.254 . S
C831 Eu767 2.848 . S
C831 O806 1.257 . S
C831 O811 1.249 . S
C831 C824 1.492 . S
H832 C815 0.930 . S
H833 C816 0.930 . S
H834 C817 0.930 . S
H835 C818 0.930 . S
H836 C825 0.930 . S
H837 C827 0.930 . S
H838 C828 0.930 . S
H839 C829 0.930 . S
Eu840 N871 2.657 . S
Eu840 N878 2.609 . S
Eu840 O884 2.558 1_545 S
Eu840 O885 2.612 . S
Eu840 O887 2.339 . S
Eu840 O888 2.563 . S
Eu840 O889 2.419 . S
Eu840 O891 2.380 . S
Eu840 O892 2.432 1_545 S
Eu840 C904 2.848 . S
C841 C844 1.429 . S
C841 C845 1.411 . S
C841 N848 1.377 . S
C842 C844 1.420 . S
C842 C846 1.423 . S
C842 C854 1.392 1_545 S
C843 C845 1.420 . S
C843 C846 1.351 . S
C843 H866 0.931 . S
C844 C841 1.429 . S
C844 C842 1.420 . S
C844 N852 1.362 . S
C845 C841 1.411 . S
C845 C843 1.420 . S
C845 C850 1.395 . S
C846 C842 1.423 . S
C846 C843 1.351 . S
C846 H858 0.930 . S
C847 C849 1.400 . S
C847 C850 1.386 . S
C847 H859 0.930 . S
N848 C841 1.377 . S
N848 C849 1.321 . S
N848 Eu851 2.609 . S
C849 C847 1.400 . S
C849 N848 1.321 . S
C849 H856 0.930 . S
C850 C845 1.395 . S
C850 C847 1.386 . S
C850 H869 0.930 . S
Eu851 N848 2.609 . S
Eu851 N852 2.657 . S
Eu851 O885 2.380 1_556 S
Eu851 O886 2.432 1_556 S
Eu851 O890 2.558 . S
Eu851 O891 2.612 1_556 S
Eu851 O893 2.339 . S
Eu851 O894 2.563 . S
Eu851 O895 2.419 . S
Eu851 C915 2.848 . S
N852 C844 1.362 . S
N852 Eu851 2.657 . S
N852 C853 1.334 1_545 S
C853 N852 1.334 1_565 S
C853 C855 1.413 . S
C853 H860 0.929 . S
C854 C842 1.392 1_565 S
C854 C855 1.367 . S
C854 H862 0.930 . S
C855 C853 1.413 . S
C855 C854 1.367 . S
C855 H857 0.930 . S
H856 C849 0.930 . S
H857 C855 0.930 . S
H858 C846 0.930 . S
H859 C847 0.930 . S
H860 C853 0.929 . S
H861 C875 0.930 . S
H862 C854 0.930 . S
H863 C881 0.930 . S
H864 C872 0.929 . S
H865 C879 0.930 . S
H866 C843 0.931 . S
H867 C873 0.930 . S
H868 C906 0.930 . S
H869 C850 0.930 . S
H870 C905 0.931 . S
N871 Eu840 2.657 . S
N871 C872 1.334 . S
N871 C876 1.362 . S
C872 H864 0.929 . S
C872 N871 1.334 . S
C872 C875 1.413 . S
C873 H867 0.930 . S
C873 C874 1.392 . S
C873 C875 1.367 . S
C874 C873 1.392 . S
C874 C876 1.420 . S
C874 C906 1.423 . S
C875 H861 0.930 . S
C875 C872 1.413 . S
C875 C873 1.367 . S
C876 N871 1.362 . S
C876 C874 1.420 . S
C876 C880 1.429 . S
H877 C882 0.930 . S
N878 Eu840 2.609 . S
N878 C880 1.377 . S
N878 C881 1.321 1_545 S
C879 H865 0.930 . S
C879 C881 1.400 . S
C879 C882 1.386 . S
C880 C876 1.429 . S
C880 N878 1.377 . S
C880 C883 1.411 . S
C881 H863 0.930 . S
C881 N878 1.321 1_565 S
C881 C879 1.400 . S
C882 H877 0.930 . S
C882 C879 1.386 . S
C882 C883 1.395 1_565 S
C883 C880 1.411 . S
C883 C882 1.395 1_545 S
C883 C905 1.420 . S
O884 Eu840 2.558 1_565 S
O884 C904 1.257 1_565 S
O885 Eu840 2.612 . S
O885 Eu851 2.380 1_554 S
O885 C896 1.276 . S
O886 Eu851 2.432 1_554 S
O886 C903 1.264 . S
O887 Eu840 2.339 . S
O887 C903 1.254 . S
O888 Eu840 2.563 . S
O888 C896 1.235 . S
O889 Eu840 2.419 . S
O889 C904 1.249 . S
O890 Eu851 2.558 . S
O890 C915 1.257 . S
O891 Eu840 2.380 . S
O891 Eu851 2.612 1_554 S
O891 C907 1.276 . S
O892 Eu840 2.432 1_565 S
O892 C914 1.264 1_554 S
O893 Eu851 2.339 . S
O893 C914 1.254 1_545 S
O894 Eu851 2.563 . S
O894 C907 1.235 1_556 S
O895 Eu851 2.419 . S
O895 C915 1.249 . S
C896 O885 1.276 . S
C896 O888 1.235 . S
C897 C899 1.393 . S
C897 C901 1.395 1_545 S
C897 C904 1.492 . S
C898 C899 1.392 . S
C898 C900 1.386 1_545 S
C899 C897 1.393 . S
C899 C898 1.392 . S
C899 H916 0.930 . S
C900 C898 1.386 1_565 S
C900 C902 1.395 . S
C900 H917 0.930 . S
C901 C897 1.395 1_565 S
C901 C902 1.379 . S
C901 H918 0.930 . S
C902 C900 1.395 . S
C902 C901 1.379 . S
C902 H919 0.930 . S
C903 O886 1.264 . S
C903 O887 1.254 . S
C904 Eu840 2.848 . S
C904 O884 1.257 1_545 S
C904 O889 1.249 . S
C904 C897 1.492 . S
C905 H870 0.931 . S
C905 C883 1.420 . S
C905 C906 1.351 . S
C906 H868 0.930 . S
C906 C874 1.423 . S
C906 C905 1.351 . S
C907 O891 1.276 . S
C907 O894 1.235 1_554 S
C908 C909 1.393 . S
C908 C912 1.395 . S
C908 C915 1.492 . S
C909 C908 1.393 . S
C909 C910 1.392 . S
C909 H920 0.930 . S
C910 C909 1.392 . S
C910 C911 1.386 . S
C911 C910 1.386 . S
C911 C913 1.395 . S
C911 H921 0.930 . S
C912 C908 1.395 . S
C912 C913 1.379 . S
C912 H922 0.930 . S
C913 C911 1.395 . S
C913 C912 1.379 . S
C913 H923 0.930 . S
C914 O892 1.264 1_556 S
C914 O893 1.254 1_565 S
C915 Eu851 2.848 . S
C915 O890 1.257 . S
C915 O895 1.249 . S
C915 C908 1.492 . S
H916 C899 0.930 . S
H917 C900 0.930 . S
H918 C901 0.930 . S
H919 C902 0.930 . S
H920 C909 0.930 . S
H921 C911 0.930 . S
H922 C912 0.930 . S
H923 C913 0.930 . S
Eu924 N955 2.657 . S
Eu924 N962 2.609 . S
Eu924 O968 2.558 . S
Eu924 O969 2.612 . S
Eu924 O971 2.339 . S
Eu924 O972 2.563 . S
Eu924 O973 2.419 . S
Eu924 O975 2.380 . S
Eu924 O976 2.432 . S
Eu924 C988 2.848 . S
C925 C928 1.429 . S
C925 C929 1.411 . S
C925 N932 1.377 . S
C926 C928 1.420 . S
C926 C930 1.423 . S
C926 C938 1.392 . S
C927 C929 1.420 . S
C927 C930 1.351 . S
C927 H950 0.931 . S
C928 C925 1.429 . S
C928 C926 1.420 . S
C928 N936 1.362 . S
C929 C925 1.411 . S
C929 C927 1.420 . S
C929 C934 1.395 . S
C930 C926 1.423 . S
C930 C927 1.351 . S
C930 H942 0.930 . S
C931 C933 1.400 . S
C931 C934 1.386 . S
C931 H943 0.930 . S
N932 C925 1.377 . S
N932 C933 1.321 . S
N932 Eu935 2.609 . S
C933 C931 1.400 . S
C933 N932 1.321 . S
C933 H940 0.930 . S
C934 C929 1.395 . S
C934 C931 1.386 . S
C934 H953 0.930 . S
Eu935 N932 2.609 . S
Eu935 N936 2.657 . S
Eu935 O969 2.380 . S
Eu935 O970 2.432 . S
Eu935 O974 2.558 . S
Eu935 O975 2.612 . S
Eu935 O977 2.339 . S
Eu935 O978 2.563 . S
Eu935 O979 2.419 . S
Eu935 C999 2.848 . S
N936 C928 1.362 . S
N936 Eu935 2.657 . S
N936 C937 1.334 . S
C937 N936 1.334 . S
C937 C939 1.413 . S
C937 H944 0.929 . S
C938 C926 1.392 . S
C938 C939 1.367 . S
C938 H946 0.930 . S
C939 C937 1.413 . S
C939 C938 1.367 . S
C939 H941 0.930 . S
H940 C933 0.930 . S
H941 C939 0.930 . S
H942 C930 0.930 . S
H943 C931 0.930 . S
H944 C937 0.929 . S
H945 C959 0.930 . S
H946 C938 0.930 . S
H947 C965 0.930 . S
H948 C956 0.929 . S
H949 C963 0.930 . S
H950 C927 0.931 . S
H951 C957 0.930 . S
H952 C990 0.930 . S
H953 C934 0.930 . S
H954 C989 0.931 . S
N955 Eu924 2.657 . S
N955 C956 1.334 . S
N955 C960 1.362 . S
C956 H948 0.929 . S
C956 N955 1.334 . S
C956 C959 1.413 . S
C957 H951 0.930 . S
C957 C958 1.392 . S
C957 C959 1.367 . S
C958 C957 1.392 . S
C958 C960 1.420 . S
C958 C990 1.423 . S
C959 H945 0.930 . S
C959 C956 1.413 . S
C959 C957 1.367 . S
C960 N955 1.362 . S
C960 C958 1.420 . S
C960 C964 1.429 . S
H961 C966 0.930 . S
N962 Eu924 2.609 . S
N962 C964 1.377 . S
N962 C965 1.321 . S
C963 H949 0.930 . S
C963 C965 1.400 . S
C963 C966 1.386 . S
C964 C960 1.429 . S
C964 N962 1.377 . S
C964 C967 1.411 . S
C965 H947 0.930 . S
C965 N962 1.321 . S
C965 C963 1.400 . S
C966 H961 0.930 . S
C966 C963 1.386 . S
C966 C967 1.395 . S
C967 C964 1.411 . S
C967 C966 1.395 . S
C967 C989 1.420 . S
O968 Eu924 2.558 . S
O968 C988 1.257 . S
O969 Eu924 2.612 . S
O969 Eu935 2.380 . S
O969 C980 1.276 . S
O970 Eu935 2.432 . S
O970 C987 1.264 . S
O971 Eu924 2.339 . S
O971 C987 1.254 . S
O972 Eu924 2.563 . S
O972 C980 1.235 . S
O973 Eu924 2.419 . S
O973 C988 1.249 . S
O974 Eu935 2.558 . S
O974 C999 1.257 . S
O975 Eu924 2.380 . S
O975 Eu935 2.612 . S
O975 C991 1.276 . S
O976 Eu924 2.432 . S
O976 C998 1.264 . S
O977 Eu935 2.339 . S
O977 C998 1.254 . S
O978 Eu935 2.563 . S
O978 C991 1.235 . S
O979 Eu935 2.419 . S
O979 C999 1.249 . S
C980 O969 1.276 . S
C980 O972 1.235 . S
C981 C983 1.393 . S
C981 C985 1.395 . S
C981 C988 1.492 . S
C982 C983 1.392 . S
C982 C984 1.386 . S
C983 C981 1.393 . S
C983 C982 1.392 . S
C983 H1000 0.930 . S
C984 C982 1.386 . S
C984 C986 1.395 . S
C984 H1001 0.930 . S
C985 C981 1.395 . S
C985 C986 1.379 . S
C985 H1002 0.930 . S
C986 C984 1.395 . S
C986 C985 1.379 . S
C986 H1003 0.930 . S
C987 O970 1.264 . S
C987 O971 1.254 . S
C988 Eu924 2.848 . S
C988 O968 1.257 . S
C988 O973 1.249 . S
C988 C981 1.492 . S
C989 H954 0.931 . S
C989 C967 1.420 . S
C989 C990 1.351 . S
C990 H952 0.930 . S
C990 C958 1.423 . S
C990 C989 1.351 . S
C991 O975 1.276 . S
C991 O978 1.235 . S
C992 C993 1.393 . S
C992 C996 1.395 . S
C992 C999 1.492 . S
C993 C992 1.393 . S
C993 C994 1.392 . S
C993 H1004 0.930 . S
C994 C993 1.392 . S
C994 C995 1.386 . S
C995 C994 1.386 . S
C995 C997 1.395 . S
C995 H1005 0.930 . S
C996 C992 1.395 . S
C996 C997 1.379 . S
C996 H1006 0.930 . S
C997 C995 1.395 . S
C997 C996 1.379 . S
C997 H1007 0.930 . S
C998 O976 1.264 . S
C998 O977 1.254 . S
C999 Eu935 2.848 . S
C999 O974 1.257 . S
C999 O979 1.249 . S
C999 C992 1.492 . S
H1000 C983 0.930 . S
H1001 C984 0.930 . S
H1002 C985 0.930 . S
H1003 C986 0.930 . S
H1004 C993 0.930 . S
H1005 C995 0.930 . S
H1006 C996 0.930 . S
H1007 C997 0.930 . S
Eu1008 N1039 2.657 . S
Eu1008 N1046 2.609 . S
Eu1008 O1052 2.558 . S
Eu1008 O1053 2.612 1_554 S
Eu1008 O1055 2.339 . S
Eu1008 O1056 2.563 1_554 S
Eu1008 O1057 2.419 . S
Eu1008 O1059 2.380 . S
Eu1008 O1060 2.432 . S
Eu1008 C1072 2.848 . S
C1009 C1012 1.429 . S
C1009 C1013 1.411 . S
C1009 N1016 1.377 . S
C1010 C1012 1.420 . S
C1010 C1014 1.423 . S
C1010 C1022 1.392 . S
C1011 C1013 1.420 . S
C1011 C1014 1.351 . S
C1011 H1034 0.931 . S
C1012 C1009 1.429 . S
C1012 C1010 1.420 . S
C1012 N1020 1.362 . S
C1013 C1009 1.411 . S
C1013 C1011 1.420 . S
C1013 C1018 1.395 . S
C1014 C1010 1.423 . S
C1014 C1011 1.351 . S
C1014 H1026 0.930 . S
C1015 C1017 1.400 . S
C1015 C1018 1.386 . S
C1015 H1027 0.930 . S
N1016 C1009 1.377 . S
N1016 C1017 1.321 . S
N1016 Eu1019 2.609 1_556 S
C1017 C1015 1.400 . S
C1017 N1016 1.321 . S
C1017 H1024 0.930 . S
C1018 C1013 1.395 . S
C1018 C1015 1.386 . S
C1018 H1037 0.930 . S
Eu1019 N1016 2.609 1_554 S
Eu1019 N1020 2.657 1_554 S
Eu1019 O1053 2.380 1_554 S
Eu1019 O1054 2.432 . S
Eu1019 O1058 2.558 . S
Eu1019 O1059 2.612 . S
Eu1019 O1061 2.339 . S
Eu1019 O1062 2.563 . S
Eu1019 O1063 2.419 . S
Eu1019 C1083 2.848 . S
N1020 C1012 1.362 . S
N1020 Eu1019 2.657 1_556 S
N1020 C1021 1.334 . S
C1021 N1020 1.334 . S
C1021 C1023 1.413 . S
C1021 H1028 0.929 . S
C1022 C1010 1.392 . S
C1022 C1023 1.367 . S
C1022 H1030 0.930 . S
C1023 C1021 1.413 . S
C1023 C1022 1.367 . S
C1023 H1025 0.930 . S
H1024 C1017 0.930 . S
H1025 C1023 0.930 . S
H1026 C1014 0.930 . S
H1027 C1015 0.930 . S
H1028 C1021 0.929 . S
H1029 C1043 0.930 . S
H1030 C1022 0.930 . S
H1031 C1049 0.930 . S
H1032 C1040 0.929 . S
H1033 C1047 0.930 . S
H1034 C1011 0.931 . S
H1035 C1041 0.930 . S
H1036 C1074 0.930 . S
H1037 C1018 0.930 . S
H1038 C1073 0.931 . S
N1039 Eu1008 2.657 . S
N1039 C1040 1.334 . S
N1039 C1044 1.362 . S
C1040 H1032 0.929 . S
C1040 N1039 1.334 . S
C1040 C1043 1.413 . S
C1041 H1035 0.930 . S
C1041 C1042 1.392 . S
C1041 C1043 1.367 . S
C1042 C1041 1.392 . S
C1042 C1044 1.420 . S
C1042 C1074 1.423 . S
C1043 H1029 0.930 . S
C1043 C1040 1.413 . S
C1043 C1041 1.367 . S
C1044 N1039 1.362 . S
C1044 C1042 1.420 . S
C1044 C1048 1.429 . S
H1045 C1050 0.930 . S
N1046 Eu1008 2.609 . S
N1046 C1048 1.377 . S
N1046 C1049 1.321 . S
C1047 H1033 0.930 . S
C1047 C1049 1.400 . S
C1047 C1050 1.386 . S
C1048 C1044 1.429 . S
C1048 N1046 1.377 . S
C1048 C1051 1.411 . S
C1049 H1031 0.930 . S
C1049 N1046 1.321 . S
C1049 C1047 1.400 . S
C1050 H1045 0.930 . S
C1050 C1047 1.386 . S
C1050 C1051 1.395 . S
C1051 C1048 1.411 . S
C1051 C1050 1.395 . S
C1051 C1073 1.420 . S
O1052 Eu1008 2.558 . S
O1052 C1072 1.257 . S
O1053 Eu1008 2.612 1_556 S
O1053 Eu1019 2.380 1_556 S
O1053 C1064 1.276 . S
O1054 Eu1019 2.432 . S
O1054 C1071 1.264 . S
O1055 Eu1008 2.339 . S
O1055 C1071 1.254 . S
O1056 Eu1008 2.563 1_556 S
O1056 C1064 1.235 . S
O1057 Eu1008 2.419 . S
O1057 C1072 1.249 . S
O1058 Eu1019 2.558 . S
O1058 C1083 1.257 . S
O1059 Eu1008 2.380 . S
O1059 Eu1019 2.612 . S
O1059 C1075 1.276 . S
O1060 Eu1008 2.432 . S
O1060 C1082 1.264 . S
O1061 Eu1019 2.339 . S
O1061 C1082 1.254 . S
O1062 Eu1019 2.563 . S
O1062 C1075 1.235 . S
O1063 Eu1019 2.419 . S
O1063 C1083 1.249 . S
C1064 O1053 1.276 . S
C1064 O1056 1.235 . S
C1065 C1067 1.393 . S
C1065 C1069 1.395 . S
C1065 C1072 1.492 . S
C1066 C1067 1.392 1_556 S
C1066 C1068 1.386 1_556 S
C1067 C1065 1.393 . S
C1067 C1066 1.392 1_554 S
C1067 H1084 0.930 1_554 S
C1068 C1066 1.386 1_554 S
C1068 C1070 1.395 . S
C1068 H1085 0.930 . S
C1069 C1065 1.395 . S
C1069 C1070 1.379 . S
C1069 H1086 0.930 . S
C1070 C1068 1.395 . S
C1070 C1069 1.379 . S
C1070 H1087 0.930 . S
C1071 O1054 1.264 . S
C1071 O1055 1.254 . S
C1072 Eu1008 2.848 . S
C1072 O1052 1.257 . S
C1072 O1057 1.249 . S
C1072 C1065 1.492 . S
C1073 H1038 0.931 . S
C1073 C1051 1.420 . S
C1073 C1074 1.351 . S
C1074 H1036 0.930 . S
C1074 C1042 1.423 . S
C1074 C1073 1.351 . S
C1075 O1059 1.276 . S
C1075 O1062 1.235 . S
C1076 C1077 1.393 . S
C1076 C1080 1.395 . S
C1076 C1083 1.492 . S
C1077 C1076 1.393 . S
C1077 C1078 1.392 . S
C1077 H1088 0.930 . S
C1078 C1077 1.392 . S
C1078 C1079 1.386 . S
C1079 C1078 1.386 . S
C1079 C1081 1.395 . S
C1079 H1089 0.930 . S
C1080 C1076 1.395 . S
C1080 C1081 1.379 . S
C1080 H1090 0.930 . S
C1081 C1079 1.395 . S
C1081 C1080 1.379 . S
C1081 H1091 0.930 . S
C1082 O1060 1.264 . S
C1082 O1061 1.254 . S
C1083 Eu1019 2.848 . S
C1083 O1058 1.257 . S
C1083 O1063 1.249 . S
C1083 C1076 1.492 . S
H1084 C1067 0.930 1_556 S
H1085 C1068 0.930 . S
H1086 C1069 0.930 . S
H1087 C1070 0.930 . S
H1088 C1077 0.930 . S
H1089 C1079 0.930 . S
H1090 C1080 0.930 . S
H1091 C1081 0.930 . S
Eu1092 N1123 2.657 . S
Eu1092 N1130 2.609 . S
Eu1092 O1136 2.558 . S
Eu1092 O1137 2.612 . S
Eu1092 O1139 2.339 . S
Eu1092 O1140 2.563 . S
Eu1092 O1141 2.419 . S
Eu1092 O1143 2.380 . S
Eu1092 O1144 2.432 . S
Eu1092 C1156 2.848 . S
C1093 C1096 1.429 . S
C1093 C1097 1.411 . S
C1093 N1100 1.377 . S
C1094 C1096 1.420 . S
C1094 C1098 1.423 . S
C1094 C1106 1.392 . S
C1095 C1097 1.420 . S
C1095 C1098 1.351 . S
C1095 H1118 0.931 . S
C1096 C1093 1.429 . S
C1096 C1094 1.420 . S
C1096 N1104 1.362 . S
C1097 C1093 1.411 . S
C1097 C1095 1.420 . S
C1097 C1102 1.395 . S
C1098 C1094 1.423 . S
C1098 C1095 1.351 . S
C1098 H1110 0.930 . S
C1099 C1101 1.400 . S
C1099 C1102 1.386 . S
C1099 H1111 0.930 . S
N1100 C1093 1.377 . S
N1100 C1101 1.321 . S
N1100 Eu1103 2.609 . S
C1101 C1099 1.400 . S
C1101 N1100 1.321 . S
C1101 H1108 0.930 . S
C1102 C1097 1.395 . S
C1102 C1099 1.386 . S
C1102 H1121 0.930 . S
Eu1103 N1100 2.609 . S
Eu1103 N1104 2.657 . S
Eu1103 O1137 2.380 . S
Eu1103 O1138 2.432 . S
Eu1103 O1142 2.558 . S
Eu1103 O1143 2.612 . S
Eu1103 O1145 2.339 . S
Eu1103 O1146 2.563 . S
Eu1103 O1147 2.419 . S
Eu1103 C1167 2.848 . S
N1104 C1096 1.362 . S
N1104 Eu1103 2.657 . S
N1104 C1105 1.334 . S
C1105 N1104 1.334 . S
C1105 C1107 1.413 . S
C1105 H1112 0.929 . S
C1106 C1094 1.392 . S
C1106 C1107 1.367 . S
C1106 H1114 0.930 . S
C1107 C1105 1.413 . S
C1107 C1106 1.367 . S
C1107 H1109 0.930 . S
H1108 C1101 0.930 . S
H1109 C1107 0.930 . S
H1110 C1098 0.930 . S
H1111 C1099 0.930 . S
H1112 C1105 0.929 . S
H1113 C1127 0.930 . S
H1114 C1106 0.930 . S
H1115 C1133 0.930 . S
H1116 C1124 0.929 . S
H1117 C1131 0.930 . S
H1118 C1095 0.931 . S
H1119 C1125 0.930 . S
H1120 C1158 0.930 . S
H1121 C1102 0.930 . S
H1122 C1157 0.931 . S
N1123 Eu1092 2.657 . S
N1123 C1124 1.334 . S
N1123 C1128 1.362 . S
C1124 H1116 0.929 . S
C1124 N1123 1.334 . S
C1124 C1127 1.413 . S
C1125 H1119 0.930 . S
C1125 C1126 1.392 . S
C1125 C1127 1.367 . S
C1126 C1125 1.392 . S
C1126 C1128 1.420 . S
C1126 C1158 1.423 . S
C1127 H1113 0.930 . S
C1127 C1124 1.413 . S
C1127 C1125 1.367 . S
C1128 N1123 1.362 . S
C1128 C1126 1.420 . S
C1128 C1132 1.429 . S
H1129 C1134 0.930 . S
N1130 Eu1092 2.609 . S
N1130 C1132 1.377 . S
N1130 C1133 1.321 . S
C1131 H1117 0.930 . S
C1131 C1133 1.400 . S
C1131 C1134 1.386 . S
C1132 C1128 1.429 . S
C1132 N1130 1.377 . S
C1132 C1135 1.411 . S
C1133 H1115 0.930 . S
C1133 N1130 1.321 . S
C1133 C1131 1.400 . S
C1134 H1129 0.930 . S
C1134 C1131 1.386 . S
C1134 C1135 1.395 . S
C1135 C1132 1.411 . S
C1135 C1134 1.395 . S
C1135 C1157 1.420 . S
O1136 Eu1092 2.558 . S
O1136 C1156 1.257 . S
O1137 Eu1092 2.612 . S
O1137 Eu1103 2.380 . S
O1137 C1148 1.276 . S
O1138 Eu1103 2.432 . S
O1138 C1155 1.264 . S
O1139 Eu1092 2.339 . S
O1139 C1155 1.254 . S
O1140 Eu1092 2.563 . S
O1140 C1148 1.235 . S
O1141 Eu1092 2.419 . S
O1141 C1156 1.249 . S
O1142 Eu1103 2.558 . S
O1142 C1167 1.257 . S
O1143 Eu1092 2.380 . S
O1143 Eu1103 2.612 . S
O1143 C1159 1.276 . S
O1144 Eu1092 2.432 . S
O1144 C1166 1.264 . S
O1145 Eu1103 2.339 . S
O1145 C1166 1.254 . S
O1146 Eu1103 2.563 . S
O1146 C1159 1.235 . S
O1147 Eu1103 2.419 . S
O1147 C1167 1.249 . S
C1148 O1137 1.276 . S
C1148 O1140 1.235 . S
C1149 C1151 1.393 . S
C1149 C1153 1.395 . S
C1149 C1156 1.492 . S
C1150 C1151 1.392 . S
C1150 C1152 1.386 . S
C1151 C1149 1.393 . S
C1151 C1150 1.392 . S
C1151 H1168 0.930 . S
C1152 C1150 1.386 . S
C1152 C1154 1.395 . S
C1152 H1169 0.930 . S
C1153 C1149 1.395 . S
C1153 C1154 1.379 . S
C1153 H1170 0.930 . S
C1154 C1152 1.395 . S
C1154 C1153 1.379 . S
C1154 H1171 0.930 . S
C1155 O1138 1.264 . S
C1155 O1139 1.254 . S
C1156 Eu1092 2.848 . S
C1156 O1136 1.257 . S
C1156 O1141 1.249 . S
C1156 C1149 1.492 . S
C1157 H1122 0.931 . S
C1157 C1135 1.420 . S
C1157 C1158 1.351 . S
C1158 H1120 0.930 . S
C1158 C1126 1.423 . S
C1158 C1157 1.351 . S
C1159 O1143 1.276 . S
C1159 O1146 1.235 . S
C1160 C1161 1.393 . S
C1160 C1164 1.395 . S
C1160 C1167 1.492 . S
C1161 C1160 1.393 . S
C1161 C1162 1.392 . S
C1161 H1172 0.930 . S
C1162 C1161 1.392 . S
C1162 C1163 1.386 . S
C1163 C1162 1.386 . S
C1163 C1165 1.395 . S
C1163 H1173 0.930 . S
C1164 C1160 1.395 . S
C1164 C1165 1.379 . S
C1164 H1174 0.930 . S
C1165 C1163 1.395 . S
C1165 C1164 1.379 . S
C1165 H1175 0.930 . S
C1166 O1144 1.264 . S
C1166 O1145 1.254 . S
C1167 Eu1103 2.848 . S
C1167 O1142 1.257 . S
C1167 O1147 1.249 . S
C1167 C1160 1.492 . S
H1168 C1151 0.930 . S
H1169 C1152 0.930 . S
H1170 C1153 0.930 . S
H1171 C1154 0.930 . S
H1172 C1161 0.930 . S
H1173 C1163 0.930 . S
H1174 C1164 0.930 . S
H1175 C1165 0.930 . S
Eu1176 N1207 2.657 . S
Eu1176 N1214 2.609 . S
Eu1176 O1220 2.558 . S
Eu1176 O1221 2.612 . S
Eu1176 O1223 2.339 . S
Eu1176 O1224 2.563 . S
Eu1176 O1225 2.419 . S
Eu1176 O1227 2.380 . S
Eu1176 O1228 2.432 . S
Eu1176 C1240 2.848 . S
C1177 C1180 1.429 . S
C1177 C1181 1.411 1_455 S
C1177 N1184 1.377 . S
C1178 C1180 1.420 1_655 S
C1178 C1182 1.423 . S
C1178 C1190 1.392 . S
C1179 C1181 1.420 . S
C1179 C1182 1.351 . S
C1179 H1202 0.931 . S
C1180 C1177 1.429 . S
C1180 C1178 1.420 1_455 S
C1180 N1188 1.362 . S
C1181 C1177 1.411 1_655 S
C1181 C1179 1.420 . S
C1181 C1186 1.395 . S
C1182 C1178 1.423 . S
C1182 C1179 1.351 . S
C1182 H1194 0.930 . S
C1183 C1185 1.400 . S
C1183 C1186 1.386 1_455 S
C1183 H1195 0.930 . S
N1184 C1177 1.377 . S
N1184 C1185 1.321 . S
N1184 Eu1187 2.609 . S
C1185 C1183 1.400 . S
C1185 N1184 1.321 . S
C1185 H1192 0.930 . S
C1186 C1181 1.395 . S
C1186 C1183 1.386 1_655 S
C1186 H1205 0.930 . S
Eu1187 N1184 2.609 . S
Eu1187 N1188 2.657 . S
Eu1187 O1221 2.380 . S
Eu1187 O1222 2.432 . S
Eu1187 O1226 2.558 . S
Eu1187 O1227 2.612 . S
Eu1187 O1229 2.339 . S
Eu1187 O1230 2.563 . S
Eu1187 O1231 2.419 . S
Eu1187 C1251 2.848 . S
N1188 C1180 1.362 . S
N1188 Eu1187 2.657 . S
N1188 C1189 1.334 . S
C1189 N1188 1.334 . S
C1189 C1191 1.413 1_455 S
C1189 H1196 0.929 . S
C1190 C1178 1.392 . S
C1190 C1191 1.367 . S
C1190 H1198 0.930 . S
C1191 C1189 1.413 1_655 S
C1191 C1190 1.367 . S
C1191 H1193 0.930 . S
H1192 C1185 0.930 . S
H1193 C1191 0.930 . S
H1194 C1182 0.930 . S
H1195 C1183 0.930 . S
H1196 C1189 0.929 . S
H1197 C1211 0.930 . S
H1198 C1190 0.930 . S
H1199 C1217 0.930 . S
H1200 C1208 0.929 . S
H1201 C1215 0.930 . S
H1202 C1179 0.931 . S
H1203 C1209 0.930 . S
H1204 C1242 0.930 . S
H1205 C1186 0.930 . S
H1206 C1241 0.931 . S
N1207 Eu1176 2.657 . S
N1207 C1208 1.334 . S
N1207 C1212 1.362 . S
C1208 H1200 0.929 . S
C1208 N1207 1.334 . S
C1208 C1211 1.413 . S
C1209 H1203 0.930 . S
C1209 C1210 1.392 . S
C1209 C1211 1.367 . S
C1210 C1209 1.392 . S
C1210 C1212 1.420 . S
C1210 C1242 1.423 . S
C1211 H1197 0.930 . S
C1211 C1208 1.413 . S
C1211 C1209 1.367 . S
C1212 N1207 1.362 . S
C1212 C1210 1.420 . S
C1212 C1216 1.429 . S
H1213 C1218 0.930 . S
N1214 Eu1176 2.609 . S
N1214 C1216 1.377 . S
N1214 C1217 1.321 . S
C1215 H1201 0.930 . S
C1215 C1217 1.400 . S
C1215 C1218 1.386 . S
C1216 C1212 1.429 . S
C1216 N1214 1.377 . S
C1216 C1219 1.411 . S
C1217 H1199 0.930 . S
C1217 N1214 1.321 . S
C1217 C1215 1.400 . S
C1218 H1213 0.930 . S
C1218 C1215 1.386 . S
C1218 C1219 1.395 . S
C1219 C1216 1.411 . S
C1219 C1218 1.395 . S
C1219 C1241 1.420 . S
O1220 Eu1176 2.558 . S
O1220 C1240 1.257 . S
O1221 Eu1176 2.612 . S
O1221 Eu1187 2.380 . S
O1221 C1232 1.276 . S
O1222 Eu1187 2.432 . S
O1222 C1239 1.264 . S
O1223 Eu1176 2.339 . S
O1223 C1239 1.254 . S
O1224 Eu1176 2.563 . S
O1224 C1232 1.235 . S
O1225 Eu1176 2.419 . S
O1225 C1240 1.249 . S
O1226 Eu1187 2.558 . S
O1226 C1251 1.257 . S
O1227 Eu1176 2.380 . S
O1227 Eu1187 2.612 . S
O1227 C1243 1.276 . S
O1228 Eu1176 2.432 . S
O1228 C1250 1.264 . S
O1229 Eu1187 2.339 . S
O1229 C1250 1.254 . S
O1230 Eu1187 2.563 . S
O1230 C1243 1.235 . S
O1231 Eu1187 2.419 . S
O1231 C1251 1.249 . S
C1232 O1221 1.276 . S
C1232 O1224 1.235 . S
C1233 C1235 1.393 . S
C1233 C1237 1.395 . S
C1233 C1240 1.492 . S
C1234 C1235 1.392 . S
C1234 C1236 1.386 . S
C1235 C1233 1.393 . S
C1235 C1234 1.392 . S
C1235 H1252 0.930 . S
C1236 C1234 1.386 . S
C1236 C1238 1.395 . S
C1236 H1253 0.930 . S
C1237 C1233 1.395 . S
C1237 C1238 1.379 . S
C1237 H1254 0.930 . S
C1238 C1236 1.395 . S
C1238 C1237 1.379 . S
C1238 H1255 0.930 . S
C1239 O1222 1.264 . S
C1239 O1223 1.254 . S
C1240 Eu1176 2.848 . S
C1240 O1220 1.257 . S
C1240 O1225 1.249 . S
C1240 C1233 1.492 . S
C1241 H1206 0.931 . S
C1241 C1219 1.420 . S
C1241 C1242 1.351 . S
C1242 H1204 0.930 . S
C1242 C1210 1.423 . S
C1242 C1241 1.351 . S
C1243 O1227 1.276 . S
C1243 O1230 1.235 . S
C1244 C1245 1.393 . S
C1244 C1248 1.395 . S
C1244 C1251 1.492 . S
C1245 C1244 1.393 . S
C1245 C1246 1.392 . S
C1245 H1256 0.930 . S
C1246 C1245 1.392 . S
C1246 C1247 1.386 . S
C1247 C1246 1.386 . S
C1247 C1249 1.395 . S
C1247 H1257 0.930 . S
C1248 C1244 1.395 . S
C1248 C1249 1.379 . S
C1248 H1258 0.930 . S
C1249 C1247 1.395 . S
C1249 C1248 1.379 . S
C1249 H1259 0.930 . S
C1250 O1228 1.264 . S
C1250 O1229 1.254 . S
C1251 Eu1187 2.848 . S
C1251 O1226 1.257 . S
C1251 O1231 1.249 . S
C1251 C1244 1.492 . S
H1252 C1235 0.930 . S
H1253 C1236 0.930 . S
H1254 C1237 0.930 . S
H1255 C1238 0.930 . S
H1256 C1245 0.930 . S
H1257 C1247 0.930 . S
H1258 C1248 0.930 . S
H1259 C1249 0.930 . S
Eu1260 N1291 2.657 . S
Eu1260 N1298 2.609 . S
Eu1260 O1304 2.558 . S
Eu1260 O1305 2.612 . S
Eu1260 O1307 2.339 . S
Eu1260 O1308 2.563 . S
Eu1260 O1309 2.419 . S
Eu1260 O1311 2.380 . S
Eu1260 O1312 2.432 . S
Eu1260 C1324 2.848 . S
C1261 C1264 1.429 . S
C1261 C1265 1.411 . S
C1261 N1268 1.377 . S
C1262 C1264 1.420 . S
C1262 C1266 1.423 . S
C1262 C1274 1.392 . S
C1263 C1265 1.420 . S
C1263 C1266 1.351 . S
C1263 H1286 0.931 . S
C1264 C1261 1.429 . S
C1264 C1262 1.420 . S
C1264 N1272 1.362 . S
C1265 C1261 1.411 . S
C1265 C1263 1.420 . S
C1265 C1270 1.395 . S
C1266 C1262 1.423 . S
C1266 C1263 1.351 . S
C1266 H1278 0.930 . S
C1267 C1269 1.400 . S
C1267 C1270 1.386 . S
C1267 H1279 0.930 . S
N1268 C1261 1.377 . S
N1268 C1269 1.321 . S
N1268 Eu1271 2.609 . S
C1269 C1267 1.400 . S
C1269 N1268 1.321 . S
C1269 H1276 0.930 . S
C1270 C1265 1.395 . S
C1270 C1267 1.386 . S
C1270 H1289 0.930 . S
Eu1271 N1268 2.609 . S
Eu1271 N1272 2.657 . S
Eu1271 O1305 2.380 . S
Eu1271 O1306 2.432 . S
Eu1271 O1310 2.558 . S
Eu1271 O1311 2.612 . S
Eu1271 O1313 2.339 . S
Eu1271 O1314 2.563 . S
Eu1271 O1315 2.419 . S
Eu1271 C1335 2.848 . S
N1272 C1264 1.362 . S
N1272 Eu1271 2.657 . S
N1272 C1273 1.334 . S
C1273 N1272 1.334 . S
C1273 C1275 1.413 . S
C1273 H1280 0.929 . S
C1274 C1262 1.392 . S
C1274 C1275 1.367 . S
C1274 H1282 0.930 . S
C1275 C1273 1.413 . S
C1275 C1274 1.367 . S
C1275 H1277 0.930 . S
H1276 C1269 0.930 . S
H1277 C1275 0.930 . S
H1278 C1266 0.930 . S
H1279 C1267 0.930 . S
H1280 C1273 0.929 . S
H1281 C1295 0.930 . S
H1282 C1274 0.930 . S
H1283 C1301 0.930 . S
H1284 C1292 0.929 . S
H1285 C1299 0.930 . S
H1286 C1263 0.931 . S
H1287 C1293 0.930 . S
H1288 C1326 0.930 . S
H1289 C1270 0.930 . S
H1290 C1325 0.931 . S
N1291 Eu1260 2.657 . S
N1291 C1292 1.334 . S
N1291 C1296 1.362 . S
C1292 H1284 0.929 . S
C1292 N1291 1.334 . S
C1292 C1295 1.413 . S
C1293 H1287 0.930 . S
C1293 C1294 1.392 . S
C1293 C1295 1.367 . S
C1294 C1293 1.392 . S
C1294 C1296 1.420 . S
C1294 C1326 1.423 . S
C1295 H1281 0.930 . S
C1295 C1292 1.413 . S
C1295 C1293 1.367 . S
C1296 N1291 1.362 . S
C1296 C1294 1.420 . S
C1296 C1300 1.429 . S
H1297 C1302 0.930 . S
N1298 Eu1260 2.609 . S
N1298 C1300 1.377 . S
N1298 C1301 1.321 . S
C1299 H1285 0.930 . S
C1299 C1301 1.400 . S
C1299 C1302 1.386 . S
C1300 C1296 1.429 . S
C1300 N1298 1.377 . S
C1300 C1303 1.411 . S
C1301 H1283 0.930 . S
C1301 N1298 1.321 . S
C1301 C1299 1.400 . S
C1302 H1297 0.930 . S
C1302 C1299 1.386 . S
C1302 C1303 1.395 . S
C1303 C1300 1.411 . S
C1303 C1302 1.395 . S
C1303 C1325 1.420 . S
O1304 Eu1260 2.558 . S
O1304 C1324 1.257 . S
O1305 Eu1260 2.612 . S
O1305 Eu1271 2.380 . S
O1305 C1316 1.276 . S
O1306 Eu1271 2.432 . S
O1306 C1323 1.264 . S
O1307 Eu1260 2.339 . S
O1307 C1323 1.254 . S
O1308 Eu1260 2.563 . S
O1308 C1316 1.235 . S
O1309 Eu1260 2.419 . S
O1309 C1324 1.249 . S
O1310 Eu1271 2.558 . S
O1310 C1335 1.257 . S
O1311 Eu1260 2.380 . S
O1311 Eu1271 2.612 . S
O1311 C1327 1.276 . S
O1312 Eu1260 2.432 . S
O1312 C1334 1.264 . S
O1313 Eu1271 2.339 . S
O1313 C1334 1.254 . S
O1314 Eu1271 2.563 . S
O1314 C1327 1.235 . S
O1315 Eu1271 2.419 . S
O1315 C1335 1.249 . S
C1316 O1305 1.276 . S
C1316 O1308 1.235 . S
C1317 C1319 1.393 . S
C1317 C1321 1.395 . S
C1317 C1324 1.492 . S
C1318 C1319 1.392 . S
C1318 C1320 1.386 . S
C1319 C1317 1.393 . S
C1319 C1318 1.392 . S
C1319 H1336 0.930 . S
C1320 C1318 1.386 . S
C1320 C1322 1.395 . S
C1320 H1337 0.930 . S
C1321 C1317 1.395 . S
C1321 C1322 1.379 . S
C1321 H1338 0.930 . S
C1322 C1320 1.395 . S
C1322 C1321 1.379 . S
C1322 H1339 0.930 . S
C1323 O1306 1.264 . S
C1323 O1307 1.254 . S
C1324 Eu1260 2.848 . S
C1324 O1304 1.257 . S
C1324 O1309 1.249 . S
C1324 C1317 1.492 . S
C1325 H1290 0.931 . S
C1325 C1303 1.420 . S
C1325 C1326 1.351 . S
C1326 H1288 0.930 . S
C1326 C1294 1.423 . S
C1326 C1325 1.351 . S
C1327 O1311 1.276 . S
C1327 O1314 1.235 . S
C1328 C1329 1.393 . S
C1328 C1332 1.395 . S
C1328 C1335 1.492 . S
C1329 C1328 1.393 . S
C1329 C1330 1.392 . S
C1329 H1340 0.930 . S
C1330 C1329 1.392 . S
C1330 C1331 1.386 . S
C1331 C1330 1.386 . S
C1331 C1333 1.395 . S
C1331 H1341 0.930 . S
C1332 C1328 1.395 . S
C1332 C1333 1.379 . S
C1332 H1342 0.930 . S
C1333 C1331 1.395 . S
C1333 C1332 1.379 . S
C1333 H1343 0.930 . S
C1334 O1312 1.264 . S
C1334 O1313 1.254 . S
C1335 Eu1271 2.848 . S
C1335 O1310 1.257 . S
C1335 O1315 1.249 . S
C1335 C1328 1.492 . S
H1336 C1319 0.930 . S
H1337 C1320 0.930 . S
H1338 C1321 0.930 . S
H1339 C1322 0.930 . S
H1340 C1329 0.930 . S
H1341 C1331 0.930 . S
H1342 C1332 0.930 . S
H1343 C1333 0.930 . S
Eu1344 N1375 2.657 . S
Eu1344 N1382 2.609 . S
Eu1344 O1388 2.558 . S
Eu1344 O1389 2.612 . S
Eu1344 O1391 2.339 . S
Eu1344 O1392 2.563 . S
Eu1344 O1393 2.419 . S
Eu1344 O1395 2.380 . S
Eu1344 O1396 2.432 . S
Eu1344 C1408 2.848 . S
C1345 C1348 1.429 . S
C1345 C1349 1.411 . S
C1345 N1352 1.377 . S
C1346 C1348 1.420 . S
C1346 C1350 1.423 . S
C1346 C1358 1.392 . S
C1347 C1349 1.420 . S
C1347 C1350 1.351 . S
C1347 H1370 0.931 . S
C1348 C1345 1.429 . S
C1348 C1346 1.420 . S
C1348 N1356 1.362 . S
C1349 C1345 1.411 . S
C1349 C1347 1.420 . S
C1349 C1354 1.395 . S
C1350 C1346 1.423 . S
C1350 C1347 1.351 . S
C1350 H1362 0.930 . S
C1351 C1353 1.400 . S
C1351 C1354 1.386 . S
C1351 H1363 0.930 . S
N1352 C1345 1.377 . S
N1352 C1353 1.321 . S
N1352 Eu1355 2.609 . S
C1353 C1351 1.400 . S
C1353 N1352 1.321 . S
C1353 H1360 0.930 . S
C1354 C1349 1.395 . S
C1354 C1351 1.386 . S
C1354 H1373 0.930 . S
Eu1355 N1352 2.609 . S
Eu1355 N1356 2.657 . S
Eu1355 O1389 2.380 . S
Eu1355 O1390 2.432 . S
Eu1355 O1394 2.558 . S
Eu1355 O1395 2.612 . S
Eu1355 O1397 2.339 . S
Eu1355 O1398 2.563 . S
Eu1355 O1399 2.419 . S
Eu1355 C1419 2.848 . S
N1356 C1348 1.362 . S
N1356 Eu1355 2.657 . S
N1356 C1357 1.334 . S
C1357 N1356 1.334 . S
C1357 C1359 1.413 . S
C1357 H1364 0.929 . S
C1358 C1346 1.392 . S
C1358 C1359 1.367 . S
C1358 H1366 0.930 . S
C1359 C1357 1.413 . S
C1359 C1358 1.367 . S
C1359 H1361 0.930 . S
H1360 C1353 0.930 . S
H1361 C1359 0.930 . S
H1362 C1350 0.930 . S
H1363 C1351 0.930 . S
H1364 C1357 0.929 . S
H1365 C1379 0.930 . S
H1366 C1358 0.930 . S
H1367 C1385 0.930 . S
H1368 C1376 0.929 . S
H1369 C1383 0.930 . S
H1370 C1347 0.931 . S
H1371 C1377 0.930 . S
H1372 C1410 0.930 . S
H1373 C1354 0.930 . S
H1374 C1409 0.931 . S
N1375 Eu1344 2.657 . S
N1375 C1376 1.334 . S
N1375 C1380 1.362 . S
C1376 H1368 0.929 . S
C1376 N1375 1.334 . S
C1376 C1379 1.413 . S
C1377 H1371 0.930 . S
C1377 C1378 1.392 . S
C1377 C1379 1.367 . S
C1378 C1377 1.392 . S
C1378 C1380 1.420 . S
C1378 C1410 1.423 . S
C1379 H1365 0.930 . S
C1379 C1376 1.413 . S
C1379 C1377 1.367 . S
C1380 N1375 1.362 . S
C1380 C1378 1.420 . S
C1380 C1384 1.429 . S
H1381 C1386 0.930 . S
N1382 Eu1344 2.609 . S
N1382 C1384 1.377 . S
N1382 C1385 1.321 . S
C1383 H1369 0.930 . S
C1383 C1385 1.400 . S
C1383 C1386 1.386 . S
C1384 C1380 1.429 . S
C1384 N1382 1.377 . S
C1384 C1387 1.411 . S
C1385 H1367 0.930 . S
C1385 N1382 1.321 . S
C1385 C1383 1.400 . S
C1386 H1381 0.930 . S
C1386 C1383 1.386 . S
C1386 C1387 1.395 . S
C1387 C1384 1.411 . S
C1387 C1386 1.395 . S
C1387 C1409 1.420 . S
O1388 Eu1344 2.558 . S
O1388 C1408 1.257 . S
O1389 Eu1344 2.612 . S
O1389 Eu1355 2.380 . S
O1389 C1400 1.276 . S
O1390 Eu1355 2.432 . S
O1390 C1407 1.264 . S
O1391 Eu1344 2.339 . S
O1391 C1407 1.254 . S
O1392 Eu1344 2.563 . S
O1392 C1400 1.235 . S
O1393 Eu1344 2.419 . S
O1393 C1408 1.249 . S
O1394 Eu1355 2.558 . S
O1394 C1419 1.257 . S
O1395 Eu1344 2.380 . S
O1395 Eu1355 2.612 . S
O1395 C1411 1.276 . S
O1396 Eu1344 2.432 . S
O1396 C1418 1.264 . S
O1397 Eu1355 2.339 . S
O1397 C1418 1.254 . S
O1398 Eu1355 2.563 . S
O1398 C1411 1.235 . S
O1399 Eu1355 2.419 . S
O1399 C1419 1.249 . S
C1400 O1389 1.276 . S
C1400 O1392 1.235 . S
C1401 C1403 1.393 . S
C1401 C1405 1.395 . S
C1401 C1408 1.492 . S
C1402 C1403 1.392 . S
C1402 C1404 1.386 . S
C1403 C1401 1.393 . S
C1403 C1402 1.392 . S
C1403 H1420 0.930 . S
C1404 C1402 1.386 . S
C1404 C1406 1.395 . S
C1404 H1421 0.930 . S
C1405 C1401 1.395 . S
C1405 C1406 1.379 . S
C1405 H1422 0.930 . S
C1406 C1404 1.395 . S
C1406 C1405 1.379 . S
C1406 H1423 0.930 . S
C1407 O1390 1.264 . S
C1407 O1391 1.254 . S
C1408 Eu1344 2.848 . S
C1408 O1388 1.257 . S
C1408 O1393 1.249 . S
C1408 C1401 1.492 . S
C1409 H1374 0.931 . S
C1409 C1387 1.420 . S
C1409 C1410 1.351 . S
C1410 H1372 0.930 . S
C1410 C1378 1.423 . S
C1410 C1409 1.351 . S
C1411 O1395 1.276 . S
C1411 O1398 1.235 . S
C1412 C1413 1.393 . S
C1412 C1416 1.395 . S
C1412 C1419 1.492 . S
C1413 C1412 1.393 . S
C1413 C1414 1.392 . S
C1413 H1424 0.930 . S
C1414 C1413 1.392 . S
C1414 C1415 1.386 . S
C1415 C1414 1.386 . S
C1415 C1417 1.395 . S
C1415 H1425 0.930 . S
C1416 C1412 1.395 . S
C1416 C1417 1.379 . S
C1416 H1426 0.930 . S
C1417 C1415 1.395 . S
C1417 C1416 1.379 . S
C1417 H1427 0.930 . S
C1418 O1396 1.264 . S
C1418 O1397 1.254 . S
C1419 Eu1355 2.848 . S
C1419 O1394 1.257 . S
C1419 O1399 1.249 . S
C1419 C1412 1.492 . S
H1420 C1403 0.930 . S
H1421 C1404 0.930 . S
H1422 C1405 0.930 . S
H1423 C1406 0.930 . S
H1424 C1413 0.930 . S
H1425 C1415 0.930 . S
H1426 C1416 0.930 . S
H1427 C1417 0.930 . S
Eu1428 N1459 2.657 . S
Eu1428 N1466 2.609 . S
Eu1428 O1472 2.558 . S
Eu1428 O1473 2.612 . S
Eu1428 O1475 2.339 . S
Eu1428 O1476 2.563 . S
Eu1428 O1477 2.419 . S
Eu1428 O1479 2.380 . S
Eu1428 O1480 2.432 . S
Eu1428 C1492 2.848 . S
C1429 C1432 1.429 . S
C1429 C1433 1.411 . S
C1429 N1436 1.377 . S
C1430 C1432 1.420 . S
C1430 C1434 1.423 . S
C1430 C1442 1.392 . S
C1431 C1433 1.420 . S
C1431 C1434 1.351 . S
C1431 H1454 0.931 . S
C1432 C1429 1.429 . S
C1432 C1430 1.420 . S
C1432 N1440 1.362 . S
C1433 C1429 1.411 . S
C1433 C1431 1.420 . S
C1433 C1438 1.395 . S
C1434 C1430 1.423 . S
C1434 C1431 1.351 . S
C1434 H1446 0.930 . S
C1435 C1437 1.400 . S
C1435 C1438 1.386 . S
C1435 H1447 0.930 . S
N1436 C1429 1.377 . S
N1436 C1437 1.321 . S
N1436 Eu1439 2.609 . S
C1437 C1435 1.400 . S
C1437 N1436 1.321 . S
C1437 H1444 0.930 . S
C1438 C1433 1.395 . S
C1438 C1435 1.386 . S
C1438 H1457 0.930 . S
Eu1439 N1436 2.609 . S
Eu1439 N1440 2.657 . S
Eu1439 O1473 2.380 . S
Eu1439 O1474 2.432 . S
Eu1439 O1478 2.558 . S
Eu1439 O1479 2.612 . S
Eu1439 O1481 2.339 . S
Eu1439 O1482 2.563 . S
Eu1439 O1483 2.419 . S
Eu1439 C1503 2.848 . S
N1440 C1432 1.362 . S
N1440 Eu1439 2.657 . S
N1440 C1441 1.334 . S
C1441 N1440 1.334 . S
C1441 C1443 1.413 . S
C1441 H1448 0.929 . S
C1442 C1430 1.392 . S
C1442 C1443 1.367 . S
C1442 H1450 0.930 . S
C1443 C1441 1.413 . S
C1443 C1442 1.367 . S
C1443 H1445 0.930 . S
H1444 C1437 0.930 . S
H1445 C1443 0.930 . S
H1446 C1434 0.930 . S
H1447 C1435 0.930 . S
H1448 C1441 0.929 . S
H1449 C1463 0.930 . S
H1450 C1442 0.930 . S
H1451 C1469 0.930 . S
H1452 C1460 0.929 . S
H1453 C1467 0.930 . S
H1454 C1431 0.931 . S
H1455 C1461 0.930 . S
H1456 C1494 0.930 . S
H1457 C1438 0.930 . S
H1458 C1493 0.931 . S
N1459 Eu1428 2.657 . S
N1459 C1460 1.334 . S
N1459 C1464 1.362 . S
C1460 H1452 0.929 . S
C1460 N1459 1.334 . S
C1460 C1463 1.413 . S
C1461 H1455 0.930 . S
C1461 C1462 1.392 . S
C1461 C1463 1.367 . S
C1462 C1461 1.392 . S
C1462 C1464 1.420 . S
C1462 C1494 1.423 . S
C1463 H1449 0.930 . S
C1463 C1460 1.413 . S
C1463 C1461 1.367 . S
C1464 N1459 1.362 . S
C1464 C1462 1.420 . S
C1464 C1468 1.429 . S
H1465 C1470 0.930 . S
N1466 Eu1428 2.609 . S
N1466 C1468 1.377 . S
N1466 C1469 1.321 . S
C1467 H1453 0.930 . S
C1467 C1469 1.400 . S
C1467 C1470 1.386 . S
C1468 C1464 1.429 . S
C1468 N1466 1.377 . S
C1468 C1471 1.411 . S
C1469 H1451 0.930 . S
C1469 N1466 1.321 . S
C1469 C1467 1.400 . S
C1470 H1465 0.930 . S
C1470 C1467 1.386 . S
C1470 C1471 1.395 . S
C1471 C1468 1.411 . S
C1471 C1470 1.395 . S
C1471 C1493 1.420 . S
O1472 Eu1428 2.558 . S
O1472 C1492 1.257 . S
O1473 Eu1428 2.612 . S
O1473 Eu1439 2.380 . S
O1473 C1484 1.276 . S
O1474 Eu1439 2.432 . S
O1474 C1491 1.264 . S
O1475 Eu1428 2.339 . S
O1475 C1491 1.254 . S
O1476 Eu1428 2.563 . S
O1476 C1484 1.235 . S
O1477 Eu1428 2.419 . S
O1477 C1492 1.249 . S
O1478 Eu1439 2.558 . S
O1478 C1503 1.257 . S
O1479 Eu1428 2.380 . S
O1479 Eu1439 2.612 . S
O1479 C1495 1.276 . S
O1480 Eu1428 2.432 . S
O1480 C1502 1.264 . S
O1481 Eu1439 2.339 . S
O1481 C1502 1.254 . S
O1482 Eu1439 2.563 . S
O1482 C1495 1.235 . S
O1483 Eu1439 2.419 . S
O1483 C1503 1.249 . S
C1484 O1473 1.276 . S
C1484 O1476 1.235 . S
C1485 C1487 1.393 . S
C1485 C1489 1.395 . S
C1485 C1492 1.492 . S
C1486 C1487 1.392 . S
C1486 C1488 1.386 . S
C1487 C1485 1.393 . S
C1487 C1486 1.392 . S
C1487 H1504 0.930 . S
C1488 C1486 1.386 . S
C1488 C1490 1.395 . S
C1488 H1505 0.930 . S
C1489 C1485 1.395 . S
C1489 C1490 1.379 . S
C1489 H1506 0.930 . S
C1490 C1488 1.395 . S
C1490 C1489 1.379 . S
C1490 H1507 0.930 . S
C1491 O1474 1.264 . S
C1491 O1475 1.254 . S
C1492 Eu1428 2.848 . S
C1492 O1472 1.257 . S
C1492 O1477 1.249 . S
C1492 C1485 1.492 . S
C1493 H1458 0.931 . S
C1493 C1471 1.420 . S
C1493 C1494 1.351 . S
C1494 H1456 0.930 . S
C1494 C1462 1.423 . S
C1494 C1493 1.351 . S
C1495 O1479 1.276 . S
C1495 O1482 1.235 . S
C1496 C1497 1.393 . S
C1496 C1500 1.395 . S
C1496 C1503 1.492 . S
C1497 C1496 1.393 . S
C1497 C1498 1.392 . S
C1497 H1508 0.930 . S
C1498 C1497 1.392 . S
C1498 C1499 1.386 . S
C1499 C1498 1.386 . S
C1499 C1501 1.395 . S
C1499 H1509 0.930 . S
C1500 C1496 1.395 . S
C1500 C1501 1.379 . S
C1500 H1510 0.930 . S
C1501 C1499 1.395 . S
C1501 C1500 1.379 . S
C1501 H1511 0.930 . S
C1502 O1480 1.264 . S
C1502 O1481 1.254 . S
C1503 Eu1439 2.848 . S
C1503 O1478 1.257 . S
C1503 O1483 1.249 . S
C1503 C1496 1.492 . S
H1504 C1487 0.930 . S
H1505 C1488 0.930 . S
H1506 C1489 0.930 . S
H1507 C1490 0.930 . S
H1508 C1497 0.930 . S
H1509 C1499 0.930 . S
H1510 C1500 0.930 . S
H1511 C1501 0.930 . S
Eu1512 N1543 2.657 . S
Eu1512 N1550 2.609 . S
Eu1512 O1556 2.558 . S
Eu1512 O1557 2.612 . S
Eu1512 O1559 2.339 . S
Eu1512 O1560 2.563 . S
Eu1512 O1561 2.419 . S
Eu1512 O1563 2.380 . S
Eu1512 O1564 2.432 . S
Eu1512 C1576 2.848 . S
C1513 C1516 1.429 . S
C1513 C1517 1.411 . S
C1513 N1520 1.377 . S
C1514 C1516 1.420 . S
C1514 C1518 1.423 . S
C1514 C1526 1.392 . S
C1515 C1517 1.420 . S
C1515 C1518 1.351 . S
C1515 H1538 0.931 . S
C1516 C1513 1.429 . S
C1516 C1514 1.420 . S
C1516 N1524 1.362 . S
C1517 C1513 1.411 . S
C1517 C1515 1.420 . S
C1517 C1522 1.395 . S
C1518 C1514 1.423 . S
C1518 C1515 1.351 . S
C1518 H1530 0.930 . S
C1519 C1521 1.400 . S
C1519 C1522 1.386 . S
C1519 H1531 0.930 . S
N1520 C1513 1.377 . S
N1520 C1521 1.321 . S
N1520 Eu1523 2.609 . S
C1521 C1519 1.400 . S
C1521 N1520 1.321 . S
C1521 H1528 0.930 . S
C1522 C1517 1.395 . S
C1522 C1519 1.386 . S
C1522 H1541 0.930 . S
Eu1523 N1520 2.609 . S
Eu1523 N1524 2.657 . S
Eu1523 O1557 2.380 . S
Eu1523 O1558 2.432 . S
Eu1523 O1562 2.558 . S
Eu1523 O1563 2.612 . S
Eu1523 O1565 2.339 . S
Eu1523 O1566 2.563 . S
Eu1523 O1567 2.419 . S
Eu1523 C1587 2.848 . S
N1524 C1516 1.362 . S
N1524 Eu1523 2.657 . S
N1524 C1525 1.334 . S
C1525 N1524 1.334 . S
C1525 C1527 1.413 . S
C1525 H1532 0.929 . S
C1526 C1514 1.392 . S
C1526 C1527 1.367 . S
C1526 H1534 0.930 . S
C1527 C1525 1.413 . S
C1527 C1526 1.367 . S
C1527 H1529 0.930 . S
H1528 C1521 0.930 . S
H1529 C1527 0.930 . S
H1530 C1518 0.930 . S
H1531 C1519 0.930 . S
H1532 C1525 0.929 . S
H1533 C1547 0.930 . S
H1534 C1526 0.930 . S
H1535 C1553 0.930 . S
H1536 C1544 0.929 . S
H1537 C1551 0.930 . S
H1538 C1515 0.931 . S
H1539 C1545 0.930 . S
H1540 C1578 0.930 . S
H1541 C1522 0.930 . S
H1542 C1577 0.931 . S
N1543 Eu1512 2.657 . S
N1543 C1544 1.334 . S
N1543 C1548 1.362 . S
C1544 H1536 0.929 . S
C1544 N1543 1.334 . S
C1544 C1547 1.413 . S
C1545 H1539 0.930 . S
C1545 C1546 1.392 . S
C1545 C1547 1.367 . S
C1546 C1545 1.392 . S
C1546 C1548 1.420 . S
C1546 C1578 1.423 . S
C1547 H1533 0.930 . S
C1547 C1544 1.413 . S
C1547 C1545 1.367 . S
C1548 N1543 1.362 . S
C1548 C1546 1.420 . S
C1548 C1552 1.429 . S
H1549 C1554 0.930 . S
N1550 Eu1512 2.609 . S
N1550 C1552 1.377 . S
N1550 C1553 1.321 . S
C1551 H1537 0.930 . S
C1551 C1553 1.400 . S
C1551 C1554 1.386 . S
C1552 C1548 1.429 . S
C1552 N1550 1.377 . S
C1552 C1555 1.411 . S
C1553 H1535 0.930 . S
C1553 N1550 1.321 . S
C1553 C1551 1.400 . S
C1554 H1549 0.930 . S
C1554 C1551 1.386 . S
C1554 C1555 1.395 . S
C1555 C1552 1.411 . S
C1555 C1554 1.395 . S
C1555 C1577 1.420 . S
O1556 Eu1512 2.558 . S
O1556 C1576 1.257 . S
O1557 Eu1512 2.612 . S
O1557 Eu1523 2.380 . S
O1557 C1568 1.276 . S
O1558 Eu1523 2.432 . S
O1558 C1575 1.264 . S
O1559 Eu1512 2.339 . S
O1559 C1575 1.254 . S
O1560 Eu1512 2.563 . S
O1560 C1568 1.235 . S
O1561 Eu1512 2.419 . S
O1561 C1576 1.249 . S
O1562 Eu1523 2.558 . S
O1562 C1587 1.257 . S
O1563 Eu1512 2.380 . S
O1563 Eu1523 2.612 . S
O1563 C1579 1.276 . S
O1564 Eu1512 2.432 . S
O1564 C1586 1.264 . S
O1565 Eu1523 2.339 . S
O1565 C1586 1.254 . S
O1566 Eu1523 2.563 . S
O1566 C1579 1.235 . S
O1567 Eu1523 2.419 . S
O1567 C1587 1.249 . S
C1568 O1557 1.276 . S
C1568 O1560 1.235 . S
C1569 C1571 1.393 . S
C1569 C1573 1.395 . S
C1569 C1576 1.492 . S
C1570 C1571 1.392 . S
C1570 C1572 1.386 . S
C1571 C1569 1.393 . S
C1571 C1570 1.392 . S
C1571 H1588 0.930 . S
C1572 C1570 1.386 . S
C1572 C1574 1.395 . S
C1572 H1589 0.930 . S
C1573 C1569 1.395 . S
C1573 C1574 1.379 . S
C1573 H1590 0.930 . S
C1574 C1572 1.395 . S
C1574 C1573 1.379 . S
C1574 H1591 0.930 . S
C1575 O1558 1.264 . S
C1575 O1559 1.254 . S
C1576 Eu1512 2.848 . S
C1576 O1556 1.257 . S
C1576 O1561 1.249 . S
C1576 C1569 1.492 . S
C1577 H1542 0.931 . S
C1577 C1555 1.420 . S
C1577 C1578 1.351 . S
C1578 H1540 0.930 . S
C1578 C1546 1.423 . S
C1578 C1577 1.351 . S
C1579 O1563 1.276 . S
C1579 O1566 1.235 . S
C1580 C1581 1.393 . S
C1580 C1584 1.395 . S
C1580 C1587 1.492 . S
C1581 C1580 1.393 . S
C1581 C1582 1.392 . S
C1581 H1592 0.930 . S
C1582 C1581 1.392 . S
C1582 C1583 1.386 . S
C1583 C1582 1.386 . S
C1583 C1585 1.395 . S
C1583 H1593 0.930 . S
C1584 C1580 1.395 . S
C1584 C1585 1.379 . S
C1584 H1594 0.930 . S
C1585 C1583 1.395 . S
C1585 C1584 1.379 . S
C1585 H1595 0.930 . S
C1586 O1564 1.264 . S
C1586 O1565 1.254 . S
C1587 Eu1523 2.848 . S
C1587 O1562 1.257 . S
C1587 O1567 1.249 . S
C1587 C1580 1.492 . S
H1588 C1571 0.930 . S
H1589 C1572 0.930 . S
H1590 C1573 0.930 . S
H1591 C1574 0.930 . S
H1592 C1581 0.930 . S
H1593 C1583 0.930 . S
H1594 C1584 0.930 . S
H1595 C1585 0.930 . S
Eu1596 N1627 2.657 . S
Eu1596 N1634 2.609 1_554 S
Eu1596 O1640 2.558 1_554 S
Eu1596 O1641 2.612 . S
Eu1596 O1643 2.339 . S
Eu1596 O1644 2.560 . S
Eu1596 O1645 2.419 . S
Eu1596 O1647 2.380 . S
Eu1596 O1648 2.432 1_554 S
Eu1596 C1660 2.848 1_554 S
C1597 C1600 1.429 . S
C1597 C1601 1.411 . S
C1597 N1604 1.377 1_655 S
C1598 C1600 1.420 . S
C1598 C1602 1.423 . S
C1598 C1610 1.392 1_554 S
C1599 C1601 1.420 . S
C1599 C1602 1.351 . S
C1599 H1622 0.931 . S
C1600 C1597 1.429 . S
C1600 C1598 1.420 . S
C1600 N1608 1.362 1_655 S
C1601 C1597 1.411 . S
C1601 C1599 1.420 . S
C1601 C1606 1.395 . S
C1602 C1598 1.423 . S
C1602 C1599 1.351 . S
C1602 H1614 0.930 . S
C1603 C1605 1.400 . S
C1603 C1606 1.386 1_455 S
C1603 H1615 0.930 . S
N1604 C1597 1.377 1_455 S
N1604 C1605 1.321 . S
N1604 Eu1607 2.609 . S
C1605 C1603 1.400 . S
C1605 N1604 1.321 . S
C1605 H1612 0.930 . S
C1606 C1601 1.395 . S
C1606 C1603 1.386 1_655 S
C1606 H1625 0.930 . S
Eu1607 N1604 2.609 . S
Eu1607 N1608 2.657 . S
Eu1607 O1641 2.380 . S
Eu1607 O1642 2.432 . S
Eu1607 O1646 2.558 . S
Eu1607 O1647 2.612 . S
Eu1607 O1649 2.339 1_554 S
Eu1607 O1650 2.563 . S
Eu1607 O1651 2.419 1_455 S
Eu1607 C1671 2.848 1_455 S
N1608 C1600 1.362 1_455 S
N1608 Eu1607 2.657 . S
N1608 C1609 1.334 1_454 S
C1609 N1608 1.334 1_656 S
C1609 C1611 1.413 . S
C1609 H1616 0.929 1_655 S
C1610 C1598 1.392 1_556 S
C1610 C1611 1.367 . S
C1610 H1618 0.930 . S
C1611 C1609 1.413 . S
C1611 C1610 1.367 . S
C1611 H1613 0.930 . S
H1612 C1605 0.930 . S
H1613 C1611 0.930 . S
H1614 C1602 0.930 . S
H1615 C1603 0.930 . S
H1616 C1609 0.929 1_455 S
H1617 C1631 0.930 . S
H1618 C1610 0.930 . S
H1619 C1637 0.930 . S
H1620 C1628 0.929 . S
H1621 C1635 0.930 . S
H1622 C1599 0.931 . S
H1623 C1629 0.930 . S
H1624 C1662 0.930 . S
H1625 C1606 0.930 . S
H1626 C1661 0.931 . S
N1627 Eu1596 2.657 . S
N1627 C1628 1.334 . S
N1627 C1632 1.362 . S
C1628 H1620 0.929 . S
C1628 N1627 1.334 . S
C1628 C1631 1.413 . S
C1629 H1623 0.930 . S
C1629 C1630 1.392 . S
C1629 C1631 1.367 . S
C1630 C1629 1.392 . S
C1630 C1632 1.420 . S
C1630 C1662 1.423 . S
C1631 H1617 0.930 . S
C1631 C1628 1.413 . S
C1631 C1629 1.367 . S
C1632 N1627 1.362 . S
C1632 C1630 1.420 . S
C1632 C1636 1.429 1_554 S
H1633 C1638 0.930 . S
N1634 Eu1596 2.609 1_556 S
N1634 C1636 1.377 . S
N1634 C1637 1.321 . S
C1635 H1621 0.930 . S
C1635 C1637 1.400 . S
C1635 C1638 1.386 . S
C1636 C1632 1.429 1_556 S
C1636 N1634 1.377 . S
C1636 C1639 1.411 . S
C1637 H1619 0.930 . S
C1637 N1634 1.321 . S
C1637 C1635 1.400 . S
C1638 H1633 0.930 . S
C1638 C1635 1.386 . S
C1638 C1639 1.395 . S
C1639 C1636 1.411 . S
C1639 C1638 1.395 . S
C1639 C1661 1.420 . S
O1640 Eu1596 2.558 1_556 S
O1640 C1660 1.257 . S
O1641 Eu1596 2.612 . S
O1641 Eu1607 2.380 . S
O1641 C1652 1.276 . S
O1642 Eu1607 2.432 . S
O1642 C1659 1.264 . S
O1643 Eu1596 2.339 . S
O1643 C1659 1.254 . S
O1644 Eu1596 2.560 . S
O1644 C1652 1.251 . S
O1645 Eu1596 2.419 . S
O1645 C1660 1.249 1_554 S
O1646 Eu1607 2.558 . S
O1646 C1671 1.257 1_455 S
O1647 Eu1596 2.380 . S
O1647 Eu1607 2.612 . S
O1647 C1663 1.276 . S
O1648 Eu1596 2.432 1_556 S
O1648 C1670 1.264 . S
O1649 Eu1607 2.339 1_556 S
O1649 C1670 1.254 . S
O1650 Eu1607 2.563 . S
O1650 C1663 1.235 . S
O1651 Eu1607 2.419 1_655 S
O1651 C1671 1.249 . S
C1652 O1641 1.276 . S
C1652 O1644 1.251 . S
C1653 C1655 1.393 1_556 S
C1653 C1657 1.395 . S
C1653 C1660 1.492 . S
C1654 C1655 1.392 1_556 S
C1654 C1656 1.386 . S
C1655 C1653 1.393 1_554 S
C1655 C1654 1.392 1_554 S
C1655 H1672 0.930 . S
C1656 C1654 1.386 . S
C1656 C1658 1.395 . S
C1656 H1673 0.930 . S
C1657 C1653 1.395 . S
C1657 C1658 1.379 . S
C1657 H1674 0.930 . S
C1658 C1656 1.395 . S
C1658 C1657 1.379 . S
C1658 H1675 0.930 . S
C1659 O1642 1.264 . S
C1659 O1643 1.254 . S
C1660 Eu1596 2.848 1_556 S
C1660 O1640 1.257 . S
C1660 O1645 1.249 1_556 S
C1660 C1653 1.492 . S
C1661 H1626 0.931 . S
C1661 C1639 1.420 . S
C1661 C1662 1.351 1_556 S
C1662 H1624 0.930 . S
C1662 C1630 1.423 . S
C1662 C1661 1.351 1_554 S
C1663 O1647 1.276 . S
C1663 O1650 1.235 . S
C1664 C1665 1.393 . S
C1664 C1668 1.395 . S
C1664 C1671 1.492 . S
C1665 C1664 1.393 . S
C1665 C1666 1.392 . S
C1665 H1676 0.930 . S
C1666 C1665 1.392 . S
C1666 C1667 1.386 . S
C1667 C1666 1.386 . S
C1667 C1669 1.395 . S
C1667 H1677 0.930 . S
C1668 C1664 1.395 . S
C1668 C1669 1.379 . S
C1668 H1678 0.930 . S
C1669 C1667 1.395 . S
C1669 C1668 1.379 . S
C1669 H1679 0.930 . S
C1670 O1648 1.264 . S
C1670 O1649 1.254 . S
C1671 Eu1607 2.848 1_655 S
C1671 O1646 1.257 1_655 S
C1671 O1651 1.249 . S
C1671 C1664 1.492 . S
H1672 C1655 0.930 . S
H1673 C1656 0.930 . S
H1674 C1657 0.930 . S
H1675 C1658 0.930 . S
H1676 C1665 0.930 . S
H1677 C1667 0.930 . S
H1678 C1668 0.930 . S
H1679 C1669 0.930 . S
C1680 C1681 1.391 . S
C1680 C1682 1.394 . S
C1680 H1696 0.931 1_455 S
C1681 C1680 1.391 . S
C1681 C1685 1.376 . S
C1682 C1680 1.394 . S
C1682 C1683 1.369 . S
C1682 C1686 1.531 1_455 S
C1683 C1682 1.369 . S
C1683 C1684 1.410 . S
C1683 C1691 1.503 . S
C1684 C1683 1.410 . S
C1684 C1685 1.392 . S
C1684 C1687 1.511 . S
C1685 C1681 1.376 . S
C1685 C1684 1.392 . S
C1685 H1697 0.929 . S
C1686 C1682 1.531 1_655 S
C1686 H1698 0.960 1_655 S
C1686 H1699 0.962 . S
C1686 H1700 0.960 . S
C1687 C1684 1.511 . S
C1687 H1701 0.966 . S
C1687 H1702 0.961 1_556 S
C1687 H1703 0.961 . S
C1688 C1689 1.370 . S
C1688 C1690 1.363 . S
C1688 H1704 0.931 . S
C1689 C1688 1.370 . S
C1689 C1693 1.408 1_554 S
C1690 C1688 1.363 . S
C1690 C1691 1.370 1_554 S
C1690 C1694 1.524 . S
C1691 C1683 1.503 . S
C1691 C1690 1.370 1_556 S
C1691 C1692 1.403 . S
C1692 C1691 1.403 . S
C1692 C1693 1.404 . S
C1692 C1695 1.539 . S
C1693 C1689 1.408 1_556 S
C1693 C1692 1.404 . S
C1693 H1705 0.930 . S
C1694 C1690 1.524 . S
C1694 H1706 0.956 . S
C1694 H1707 0.961 . S
C1694 H1708 0.961 . S
C1695 C1692 1.539 . S
C1695 H1709 0.958 . S
C1695 H1710 0.961 . S
C1695 H1711 0.960 . S
H1696 C1680 0.931 1_655 S
H1697 C1685 0.929 . S
H1698 C1686 0.960 1_455 S
H1699 C1686 0.962 . S
H1700 C1686 0.960 . S
H1701 C1687 0.966 . S
H1702 C1687 0.961 1_554 S
H1703 C1687 0.961 . S
H1704 C1688 0.931 . S
H1705 C1693 0.930 . S
H1706 C1694 0.956 . S
H1707 C1694 0.961 . S
H1708 C1694 0.961 . S
H1709 C1695 0.958 . S
H1710 C1695 0.961 . S
H1711 C1695 0.960 . S
C1712 C1713 1.391 . S
C1712 C1714 1.394 . S
C1712 H1728 0.931 . S
C1713 C1712 1.391 . S
C1713 C1717 1.376 . S
C1714 C1712 1.394 . S
C1714 C1715 1.369 . S
C1714 C1718 1.531 . S
C1715 C1714 1.369 . S
C1715 C1716 1.410 . S
C1715 C1723 1.503 . S
C1716 C1715 1.410 . S
C1716 C1717 1.392 . S
C1716 C1719 1.511 . S
C1717 C1713 1.376 . S
C1717 C1716 1.392 . S
C1717 H1729 0.929 . S
C1718 C1714 1.531 . S
C1718 H1730 0.960 . S
C1718 H1731 0.962 . S
C1718 H1732 0.960 . S
C1719 C1716 1.511 . S
C1719 H1733 0.961 . S
C1719 H1734 0.961 . S
C1719 H1735 0.961 . S
C1720 C1721 1.370 . S
C1720 C1722 1.363 . S
C1720 H1736 0.931 . S
C1721 C1720 1.370 . S
C1721 C1725 1.408 . S
C1722 C1720 1.363 . S
C1722 C1723 1.370 . S
C1722 C1726 1.524 . S
C1723 C1715 1.503 . S
C1723 C1722 1.370 . S
C1723 C1724 1.403 . S
C1724 C1723 1.403 . S
C1724 C1725 1.404 . S
C1724 C1727 1.539 . S
C1725 C1721 1.408 . S
C1725 C1724 1.404 . S
C1725 H1737 0.930 . S
C1726 C1722 1.524 . S
C1726 H1738 0.956 . S
C1726 H1739 0.961 . S
C1726 H1740 0.961 . S
C1727 C1724 1.539 . S
C1727 H1741 0.958 . S
C1727 H1742 0.961 . S
C1727 H1743 0.960 . S
H1728 C1712 0.931 . S
H1729 C1717 0.929 . S
H1730 C1718 0.960 . S
H1731 C1718 0.962 . S
H1732 C1718 0.960 . S
H1733 C1719 0.961 . S
H1734 C1719 0.961 . S
H1735 C1719 0.961 . S
H1736 C1720 0.931 . S
H1737 C1725 0.930 . S
H1738 C1726 0.956 . S
H1739 C1726 0.961 . S
H1740 C1726 0.961 . S
H1741 C1727 0.958 . S
H1742 C1727 0.961 . S
H1743 C1727 0.960 . S
C1744 C1745 1.391 . S
C1744 C1746 1.394 . S
C1744 H1760 0.931 . S
C1745 C1744 1.391 . S
C1745 C1749 1.376 . S
C1746 C1744 1.394 . S
C1746 C1747 1.369 . S
C1746 C1750 1.531 . S
C1747 C1746 1.369 . S
C1747 C1748 1.410 . S
C1747 C1755 1.503 . S
C1748 C1747 1.410 . S
C1748 C1749 1.392 . S
C1748 C1751 1.511 . S
C1749 C1745 1.376 . S
C1749 C1748 1.392 . S
C1749 H1761 0.929 . S
C1750 C1746 1.531 . S
C1750 H1762 0.960 . S
C1750 H1763 0.962 . S
C1750 H1764 0.960 . S
C1751 C1748 1.511 . S
C1751 H1765 0.961 . S
C1751 H1766 0.961 . S
C1751 H1767 0.961 . S
C1752 C1753 1.370 . S
C1752 C1754 1.363 . S
C1752 H1768 0.931 . S
C1753 C1752 1.370 . S
C1753 C1757 1.408 . S
C1754 C1752 1.363 . S
C1754 C1755 1.370 . S
C1754 C1758 1.524 . S
C1755 C1747 1.503 . S
C1755 C1754 1.370 . S
C1755 C1756 1.403 . S
C1756 C1755 1.403 . S
C1756 C1757 1.404 . S
C1756 C1759 1.539 . S
C1757 C1753 1.408 . S
C1757 C1756 1.404 . S
C1757 H1769 0.930 . S
C1758 C1754 1.524 . S
C1758 H1770 0.956 . S
C1758 H1771 0.961 . S
C1758 H1772 0.961 . S
C1759 C1756 1.539 . S
C1759 H1773 0.958 . S
C1759 H1774 0.961 . S
C1759 H1775 0.960 . S
H1760 C1744 0.931 . S
H1761 C1749 0.929 . S
H1762 C1750 0.960 . S
H1763 C1750 0.962 . S
H1764 C1750 0.960 . S
H1765 C1751 0.961 . S
H1766 C1751 0.961 . S
H1767 C1751 0.961 . S
H1768 C1752 0.931 . S
H1769 C1757 0.930 . S
H1770 C1758 0.956 . S
H1771 C1758 0.961 . S
H1772 C1758 0.961 . S
H1773 C1759 0.958 . S
H1774 C1759 0.961 . S
H1775 C1759 0.960 . S
C1776 C1777 1.391 . S
C1776 C1778 1.394 . S
C1776 H1792 0.931 . S
C1777 C1776 1.391 . S
C1777 C1781 1.376 . S
C1778 C1776 1.394 . S
C1778 C1779 1.369 . S
C1778 C1782 1.531 . S
C1779 C1778 1.369 . S
C1779 C1780 1.410 . S
C1779 C1787 1.503 . S
C1780 C1779 1.410 . S
C1780 C1781 1.392 . S
C1780 C1783 1.511 . S
C1781 C1777 1.376 . S
C1781 C1780 1.392 . S
C1781 H1793 0.929 . S
C1782 C1778 1.531 . S
C1782 H1794 0.960 . S
C1782 H1795 0.962 . S
C1782 H1796 0.960 . S
C1783 C1780 1.511 . S
C1783 H1797 0.961 . S
C1783 H1798 0.961 . S
C1783 H1799 0.961 . S
C1784 C1785 1.370 . S
C1784 C1786 1.363 . S
C1784 H1800 0.931 . S
C1785 C1784 1.370 . S
C1785 C1789 1.408 . S
C1786 C1784 1.363 . S
C1786 C1787 1.370 . S
C1786 C1790 1.524 . S
C1787 C1779 1.503 . S
C1787 C1786 1.370 . S
C1787 C1788 1.403 . S
C1788 C1787 1.403 . S
C1788 C1789 1.404 . S
C1788 C1791 1.539 . S
C1789 C1785 1.408 . S
C1789 C1788 1.404 . S
C1789 H1801 0.930 . S
C1790 C1786 1.524 . S
C1790 H1802 0.956 . S
C1790 H1803 0.961 . S
C1790 H1804 0.961 . S
C1791 C1788 1.539 . S
C1791 H1805 0.958 . S
C1791 H1806 0.961 . S
C1791 H1807 0.960 . S
H1792 C1776 0.931 . S
H1793 C1781 0.929 . S
H1794 C1782 0.960 . S
H1795 C1782 0.962 . S
H1796 C1782 0.960 . S
H1797 C1783 0.961 . S
H1798 C1783 0.961 . S
H1799 C1783 0.961 . S
H1800 C1784 0.931 . S
H1801 C1789 0.930 . S
H1802 C1790 0.956 . S
H1803 C1790 0.961 . S
H1804 C1790 0.961 . S
H1805 C1791 0.958 . S
H1806 C1791 0.961 . S
H1807 C1791 0.960 . S
C1808 C1809 1.417 . S
C1808 C1810 1.402 . S
C1808 H1824 0.898 1_455 S
C1809 C1808 1.417 . S
C1809 C1813 1.376 . S
C1810 C1808 1.402 . S
C1810 C1811 1.369 . S
C1810 C1814 1.531 1_455 S
C1811 C1810 1.369 . S
C1811 C1812 1.410 . S
C1811 C1819 1.503 . S
C1812 C1811 1.410 . S
C1812 C1813 1.392 . S
C1812 C1815 1.511 . S
C1813 C1809 1.376 . S
C1813 C1812 1.392 . S
C1813 H1825 0.929 . S
C1814 C1810 1.531 1_655 S
C1814 H1826 0.960 1_655 S
C1814 H1827 0.962 . S
C1814 H1828 0.960 . S
C1815 C1812 1.511 . S
C1815 H1829 0.961 . S
C1815 H1830 0.961 . S
C1815 H1831 0.961 . S
C1816 C1817 1.370 . S
C1816 C1818 1.363 . S
C1816 H1832 0.931 . S
C1817 C1816 1.370 . S
C1817 C1821 1.408 . S
C1818 C1816 1.363 . S
C1818 C1819 1.370 . S
C1818 C1822 1.524 . S
C1819 C1811 1.503 . S
C1819 C1818 1.370 . S
C1819 C1820 1.403 . S
C1820 C1819 1.403 . S
C1820 C1821 1.404 . S
C1820 C1823 1.539 . S
C1821 C1817 1.408 . S
C1821 C1820 1.404 . S
C1821 H1833 0.930 . S
C1822 C1818 1.524 . S
C1822 H1834 0.956 1_455 S
C1822 H1835 0.961 . S
C1822 H1836 0.961 . S
C1823 C1820 1.539 . S
C1823 H1837 0.958 . S
C1823 H1838 0.961 . S
C1823 H1839 0.960 . S
H1824 C1808 0.898 1_655 S
H1825 C1813 0.929 . S
H1826 C1814 0.960 1_455 S
H1827 C1814 0.962 . S
H1828 C1814 0.960 . S
H1829 C1815 0.961 . S
H1830 C1815 0.961 . S
H1831 C1815 0.961 . S
H1832 C1816 0.931 . S
H1833 C1821 0.930 . S
H1834 C1822 0.956 1_655 S
H1835 C1822 0.961 . S
H1836 C1822 0.961 . S
H1837 C1823 0.958 . S
H1838 C1823 0.961 . S
H1839 C1823 0.960 . S
C1840 C1841 1.391 . S
C1840 C1842 1.394 . S
C1840 H1856 0.931 . S
C1841 C1840 1.391 . S
C1841 C1845 1.376 . S
C1842 C1840 1.394 . S
C1842 C1843 1.369 . S
C1842 C1846 1.531 . S
C1843 C1842 1.369 . S
C1843 C1844 1.410 . S
C1843 C1851 1.503 . S
C1844 C1843 1.410 . S
C1844 C1845 1.392 . S
C1844 C1847 1.511 . S
C1845 C1841 1.376 . S
C1845 C1844 1.392 . S
C1845 H1857 0.929 . S
C1846 C1842 1.531 . S
C1846 H1858 0.960 . S
C1846 H1859 0.962 . S
C1846 H1860 0.960 . S
C1847 C1844 1.511 . S
C1847 H1861 0.961 . S
C1847 H1862 0.961 . S
C1847 H1863 0.961 . S
C1848 C1849 1.370 . S
C1848 C1850 1.363 . S
C1848 H1864 0.931 . S
C1849 C1848 1.370 . S
C1849 C1853 1.408 . S
C1850 C1848 1.363 . S
C1850 C1851 1.370 . S
C1850 C1854 1.524 . S
C1851 C1843 1.503 . S
C1851 C1850 1.370 . S
C1851 C1852 1.403 . S
C1852 C1851 1.403 . S
C1852 C1853 1.404 . S
C1852 C1855 1.539 . S
C1853 C1849 1.408 . S
C1853 C1852 1.404 . S
C1853 H1865 0.930 . S
C1854 C1850 1.524 . S
C1854 H1866 0.956 . S
C1854 H1867 0.961 . S
C1854 H1868 0.961 . S
C1855 C1852 1.539 . S
C1855 H1869 0.958 . S
C1855 H1870 0.961 . S
C1855 H1871 0.960 . S
H1856 C1840 0.931 . S
H1857 C1845 0.929 . S
H1858 C1846 0.960 . S
H1859 C1846 0.962 . S
H1860 C1846 0.960 . S
H1861 C1847 0.961 . S
H1862 C1847 0.961 . S
H1863 C1847 0.961 . S
H1864 C1848 0.931 . S
H1865 C1853 0.930 . S
H1866 C1854 0.956 . S
H1867 C1854 0.961 . S
H1868 C1854 0.961 . S
H1869 C1855 0.958 . S
H1870 C1855 0.961 . S
H1871 C1855 0.960 . S
C1872 C1873 1.391 . S
C1872 C1874 1.394 . S
C1872 H1888 0.931 . S
C1873 C1872 1.391 . S
C1873 C1877 1.376 . S
C1874 C1872 1.394 . S
C1874 C1875 1.369 . S
C1874 C1878 1.531 . S
C1875 C1874 1.369 . S
C1875 C1876 1.410 . S
C1875 C1883 1.503 . S
C1876 C1875 1.410 . S
C1876 C1877 1.392 . S
C1876 C1879 1.511 . S
C1877 C1873 1.376 . S
C1877 C1876 1.392 . S
C1877 H1889 0.929 . S
C1878 C1874 1.531 . S
C1878 H1890 0.960 . S
C1878 H1891 0.962 . S
C1878 H1892 0.960 . S
C1879 C1876 1.511 . S
C1879 H1893 0.961 . S
C1879 H1894 0.961 . S
C1879 H1895 0.961 . S
C1880 C1881 1.370 . S
C1880 C1882 1.363 . S
C1880 H1896 0.931 . S
C1881 C1880 1.370 . S
C1881 C1885 1.408 . S
C1882 C1880 1.363 . S
C1882 C1883 1.370 . S
C1882 C1886 1.524 . S
C1883 C1875 1.503 . S
C1883 C1882 1.370 . S
C1883 C1884 1.403 . S
C1884 C1883 1.403 . S
C1884 C1885 1.404 . S
C1884 C1887 1.539 . S
C1885 C1881 1.408 . S
C1885 C1884 1.404 . S
C1885 H1897 0.930 . S
C1886 C1882 1.524 . S
C1886 H1898 0.956 . S
C1886 H1899 0.961 . S
C1886 H1900 0.961 . S
C1887 C1884 1.539 . S
C1887 H1901 0.958 . S
C1887 H1902 0.961 . S
C1887 H1903 0.960 . S
H1888 C1872 0.931 . S
H1889 C1877 0.929 . S
H1890 C1878 0.960 . S
H1891 C1878 0.962 . S
H1892 C1878 0.960 . S
H1893 C1879 0.961 . S
H1894 C1879 0.961 . S
H1895 C1879 0.961 . S
H1896 C1880 0.931 . S
H1897 C1885 0.930 . S
H1898 C1886 0.956 . S
H1899 C1886 0.961 . S
H1900 C1886 0.961 . S
H1901 C1887 0.958 . S
H1902 C1887 0.961 . S
H1903 C1887 0.960 . S
C1904 C1905 1.391 . S
C1904 C1906 1.394 . S
C1904 H1920 0.931 . S
C1905 C1904 1.391 . S
C1905 C1909 1.376 . S
C1906 C1904 1.394 . S
C1906 C1907 1.369 . S
C1906 C1910 1.531 . S
C1907 C1906 1.369 . S
C1907 C1908 1.410 . S
C1907 C1915 1.503 . S
C1908 C1907 1.410 . S
C1908 C1909 1.392 . S
C1908 C1911 1.511 . S
C1909 C1905 1.376 . S
C1909 C1908 1.392 . S
C1909 H1921 0.929 . S
C1910 C1906 1.531 . S
C1910 H1922 0.960 . S
C1910 H1923 0.962 . S
C1910 H1924 0.960 . S
C1911 C1908 1.511 . S
C1911 H1925 0.961 . S
C1911 H1926 0.961 . S
C1911 H1927 0.961 . S
C1912 C1913 1.370 . S
C1912 C1914 1.363 . S
C1912 H1928 0.931 . S
C1913 C1912 1.370 . S
C1913 C1917 1.408 . S
C1914 C1912 1.363 . S
C1914 C1915 1.370 . S
C1914 C1918 1.524 . S
C1915 C1907 1.503 . S
C1915 C1914 1.370 . S
C1915 C1916 1.403 . S
C1916 C1915 1.403 . S
C1916 C1917 1.404 . S
C1916 C1919 1.539 . S
C1917 C1913 1.408 . S
C1917 C1916 1.404 . S
C1917 H1929 0.930 . S
C1918 C1914 1.524 . S
C1918 H1930 0.956 . S
C1918 H1931 0.961 . S
C1918 H1932 0.961 . S
C1919 C1916 1.539 . S
C1919 H1933 0.958 . S
C1919 H1934 0.961 . S
C1919 H1935 0.960 . S
H1920 C1904 0.931 . S
H1921 C1909 0.929 . S
H1922 C1910 0.960 . S
H1923 C1910 0.962 . S
H1924 C1910 0.960 . S
H1925 C1911 0.961 . S
H1926 C1911 0.961 . S
H1927 C1911 0.961 . S
H1928 C1912 0.931 . S
H1929 C1917 0.930 . S
H1930 C1918 0.956 . S
H1931 C1918 0.961 . S
H1932 C1918 0.961 . S
H1933 C1919 0.958 . S
H1934 C1919 0.961 . S
H1935 C1919 0.960 . S
C1936 C1937 1.391 . S
C1936 C1938 1.394 1_655 S
C1936 H1952 0.915 1_655 S
C1937 C1936 1.391 . S
C1937 C1941 1.376 . S
C1938 C1936 1.394 1_455 S
C1938 C1939 1.369 1_455 S
C1938 C1942 1.531 . S
C1939 C1938 1.369 1_655 S
C1939 C1940 1.410 . S
C1939 C1947 1.503 1_655 S
C1940 C1939 1.410 . S
C1940 C1941 1.392 . S
C1940 C1943 1.511 . S
C1941 C1937 1.376 . S
C1941 C1940 1.392 . S
C1941 H1953 0.929 . S
C1942 C1938 1.531 . S
C1942 H1954 0.960 . S
C1942 H1955 0.962 . S
C1942 H1956 0.960 . S
C1943 C1940 1.511 . S
C1943 H1957 0.961 . S
C1943 H1958 0.961 . S
C1943 H1959 0.961 . S
C1944 C1945 1.370 . S
C1944 C1946 1.363 . S
C1944 H1960 0.931 . S
C1945 C1944 1.370 . S
C1945 C1949 1.408 . S
C1946 C1944 1.363 . S
C1946 C1947 1.370 . S
C1946 C1950 1.524 . S
C1947 C1939 1.503 1_455 S
C1947 C1946 1.370 . S
C1947 C1948 1.405 . S
C1948 C1947 1.405 . S
C1948 C1949 1.429 . S
C1948 C1951 1.512 1_455 S
C1949 C1945 1.408 . S
C1949 C1948 1.429 . S
C1949 H1961 0.930 . S
C1950 C1946 1.524 . S
C1950 H1962 0.956 . S
C1950 H1963 0.961 . S
C1950 H1964 0.961 . S
C1951 C1948 1.512 1_655 S
C1951 H1965 0.958 . S
C1951 H1966 0.961 . S
C1951 H1967 0.960 . S
H1952 C1936 0.915 1_455 S
H1953 C1941 0.929 . S
H1954 C1942 0.960 . S
H1955 C1942 0.962 . S
H1956 C1942 0.960 . S
H1957 C1943 0.961 . S
H1958 C1943 0.961 . S
H1959 C1943 0.961 . S
H1960 C1944 0.931 . S
H1961 C1949 0.930 . S
H1962 C1950 0.956 . S
H1963 C1950 0.961 . S
H1964 C1950 0.961 . S
H1965 C1951 0.958 . S
H1966 C1951 0.961 . S
H1967 C1951 0.960 . S
C1968 C1969 1.391 . S
C1968 C1970 1.394 . S
C1968 H1984 0.931 . S
C1969 C1968 1.391 . S
C1969 C1973 1.376 . S
C1970 C1968 1.394 . S
C1970 C1971 1.369 . S
C1970 C1974 1.531 . S
C1971 C1970 1.369 . S
C1971 C1972 1.410 . S
C1971 C1979 1.503 . S
C1972 C1971 1.410 . S
C1972 C1973 1.392 . S
C1972 C1975 1.511 . S
C1973 C1969 1.376 . S
C1973 C1972 1.392 . S
C1973 H1985 0.929 . S
C1974 C1970 1.531 . S
C1974 H1986 0.960 . S
C1974 H1987 0.962 . S
C1974 H1988 0.960 . S
C1975 C1972 1.511 . S
C1975 H1989 0.961 . S
C1975 H1990 0.961 . S
C1975 H1991 0.961 . S
C1976 C1977 1.370 . S
C1976 C1978 1.363 . S
C1976 H1992 0.931 . S
C1977 C1976 1.370 . S
C1977 C1981 1.408 . S
C1978 C1976 1.363 . S
C1978 C1979 1.370 . S
C1978 C1982 1.524 . S
C1979 C1971 1.503 . S
C1979 C1978 1.370 . S
C1979 C1980 1.403 . S
C1980 C1979 1.403 . S
C1980 C1981 1.404 . S
C1980 C1983 1.539 . S
C1981 C1977 1.408 . S
C1981 C1980 1.404 . S
C1981 H1993 0.930 . S
C1982 C1978 1.524 . S
C1982 H1994 0.956 . S
C1982 H1995 0.961 . S
C1982 H1996 0.961 . S
C1983 C1980 1.539 . S
C1983 H1997 0.958 . S
C1983 H1998 0.961 . S
C1983 H1999 0.960 . S
H1984 C1968 0.931 . S
H1985 C1973 0.929 . S
H1986 C1974 0.960 . S
H1987 C1974 0.962 . S
H1988 C1974 0.960 . S
H1989 C1975 0.961 . S
H1990 C1975 0.961 . S
H1991 C1975 0.961 . S
H1992 C1976 0.931 . S
H1993 C1981 0.930 . S
H1994 C1982 0.956 . S
H1995 C1982 0.961 . S
H1996 C1982 0.961 . S
H1997 C1983 0.958 . S
H1998 C1983 0.961 . S
H1999 C1983 0.960 . S
C2000 C2001 1.391 . S
C2000 C2002 1.394 . S
C2000 H2016 0.931 . S
C2001 C2000 1.391 . S
C2001 C2005 1.376 . S
C2002 C2000 1.394 . S
C2002 C2003 1.369 . S
C2002 C2006 1.531 . S
C2003 C2002 1.369 . S
C2003 C2004 1.410 . S
C2003 C2011 1.503 . S
C2004 C2003 1.410 . S
C2004 C2005 1.392 . S
C2004 C2007 1.511 . S
C2005 C2001 1.376 . S
C2005 C2004 1.392 . S
C2005 H2017 0.929 . S
C2006 C2002 1.531 . S
C2006 H2018 0.960 . S
C2006 H2019 0.962 . S
C2006 H2020 0.960 . S
C2007 C2004 1.511 . S
C2007 H2021 0.961 . S
C2007 H2022 0.961 . S
C2007 H2023 0.961 . S
C2008 C2009 1.370 . S
C2008 C2010 1.363 . S
C2008 H2024 0.931 1_545 S
C2009 C2008 1.370 . S
C2009 C2013 1.408 . S
C2010 C2008 1.363 . S
C2010 C2011 1.370 . S
C2010 C2014 1.524 1_545 S
C2011 C2003 1.503 . S
C2011 C2010 1.370 . S
C2011 C2012 1.403 . S
C2012 C2011 1.403 . S
C2012 C2013 1.404 . S
C2012 C2015 1.539 . S
C2013 C2009 1.408 . S
C2013 C2012 1.404 . S
C2013 H2025 0.930 . S
C2014 C2010 1.524 1_565 S
C2014 H2026 0.956 . S
C2014 H2027 0.961 . S
C2014 H2028 0.961 . S
C2015 C2012 1.539 . S
C2015 H2029 0.958 . S
C2015 H2030 0.961 . S
C2015 H2031 0.960 . S
H2016 C2000 0.931 . S
H2017 C2005 0.929 . S
H2018 C2006 0.960 . S
H2019 C2006 0.962 . S
H2020 C2006 0.960 . S
H2021 C2007 0.961 . S
H2022 C2007 0.961 . S
H2023 C2007 0.961 . S
H2024 C2008 0.931 1_565 S
H2025 C2013 0.930 . S
H2026 C2014 0.956 . S
H2027 C2014 0.961 . S
H2028 C2014 0.961 . S
H2029 C2015 0.958 . S
H2030 C2015 0.961 . S
H2031 C2015 0.960 . S
C2032 C2033 1.391 . S
C2032 C2034 1.394 . S
C2032 H2048 0.931 . S
C2033 C2032 1.391 . S
C2033 C2037 1.376 . S
C2034 C2032 1.394 . S
C2034 C2035 1.369 . S
C2034 C2038 1.531 . S
C2035 C2034 1.369 . S
C2035 C2036 1.410 . S
C2035 C2043 1.503 . S
C2036 C2035 1.410 . S
C2036 C2037 1.392 . S
C2036 C2039 1.511 . S
C2037 C2033 1.376 . S
C2037 C2036 1.392 . S
C2037 H2049 0.929 . S
C2038 C2034 1.531 . S
C2038 H2050 0.960 . S
C2038 H2051 0.962 . S
C2038 H2052 0.960 . S
C2039 C2036 1.511 . S
C2039 H2053 0.961 . S
C2039 H2054 0.961 . S
C2039 H2055 0.961 . S
C2040 C2041 1.370 . S
C2040 C2042 1.363 . S
C2040 H2056 0.931 . S
C2041 C2040 1.370 . S
C2041 C2045 1.408 . S
C2042 C2040 1.363 . S
C2042 C2043 1.370 . S
C2042 C2046 1.524 . S
C2043 C2035 1.503 . S
C2043 C2042 1.370 . S
C2043 C2044 1.403 . S
C2044 C2043 1.403 . S
C2044 C2045 1.404 . S
C2044 C2047 1.539 . S
C2045 C2041 1.408 . S
C2045 C2044 1.404 . S
C2045 H2057 0.930 . S
C2046 C2042 1.524 . S
C2046 H2058 0.956 . S
C2046 H2059 0.961 . S
C2046 H2060 0.961 . S
C2047 C2044 1.539 . S
C2047 H2061 0.958 . S
C2047 H2062 0.961 . S
C2047 H2063 0.960 . S
H2048 C2032 0.931 . S
H2049 C2037 0.929 . S
H2050 C2038 0.960 . S
H2051 C2038 0.962 . S
H2052 C2038 0.960 . S
H2053 C2039 0.961 . S
H2054 C2039 0.961 . S
H2055 C2039 0.961 . S
H2056 C2040 0.931 . S
H2057 C2045 0.930 . S
H2058 C2046 0.956 . S
H2059 C2046 0.961 . S
H2060 C2046 0.961 . S
H2061 C2047 0.958 . S
H2062 C2047 0.961 . S
H2063 C2047 0.960 . S
C2064 C2065 1.391 . S
C2064 C2066 1.394 . S
C2064 H2080 0.931 . S
C2065 C2064 1.391 . S
C2065 C2069 1.376 1_655 S
C2066 C2064 1.394 . S
C2066 C2067 1.369 1_655 S
C2066 C2070 1.531 . S
C2067 C2066 1.369 1_455 S
C2067 C2068 1.410 . S
C2067 C2075 1.503 . S
C2068 C2067 1.410 . S
C2068 C2069 1.392 . S
C2068 C2071 1.511 . S
C2069 C2065 1.376 1_455 S
C2069 C2068 1.392 . S
C2069 H2081 0.929 . S
C2070 C2066 1.531 . S
C2070 H2082 0.952 1_655 S
C2070 H2083 0.962 . S
C2070 H2084 0.960 . S
C2071 C2068 1.511 . S
C2071 H2085 0.961 . S
C2071 H2086 0.961 . S
C2071 H2087 0.961 . S
C2072 C2073 1.370 . S
C2072 C2074 1.363 . S
C2072 H2088 0.931 . S
C2073 C2072 1.370 . S
C2073 C2077 1.408 . S
C2074 C2072 1.363 . S
C2074 C2075 1.370 . S
C2074 C2078 1.524 1_455 S
C2075 C2067 1.503 . S
C2075 C2074 1.370 . S
C2075 C2076 1.403 . S
C2076 C2075 1.403 . S
C2076 C2077 1.404 . S
C2076 C2079 1.539 . S
C2077 C2073 1.408 . S
C2077 C2076 1.404 . S
C2077 H2089 0.930 . S
C2078 C2074 1.524 1_655 S
C2078 H2090 0.956 . S
C2078 H2091 0.961 . S
C2078 H2092 0.961 . S
C2079 C2076 1.539 . S
C2079 H2093 0.958 . S
C2079 H2094 0.961 . S
C2079 H2095 0.960 . S
H2080 C2064 0.931 . S
H2081 C2069 0.929 . S
H2082 C2070 0.952 1_455 S
H2083 C2070 0.962 . S
H2084 C2070 0.960 . S
H2085 C2071 0.961 . S
H2086 C2071 0.961 . S
H2087 C2071 0.961 . S
H2088 C2072 0.931 . S
H2089 C2077 0.930 . S
H2090 C2078 0.956 . S
H2091 C2078 0.961 . S
H2092 C2078 0.961 . S
H2093 C2079 0.958 . S
H2094 C2079 0.961 . S
H2095 C2079 0.960 . S
C2096 C2097 1.391 . S
C2096 C2098 1.394 . S
C2096 H2112 0.931 . S
C2097 C2096 1.391 . S
C2097 C2101 1.376 . S
C2098 C2096 1.394 . S
C2098 C2099 1.369 . S
C2098 C2102 1.531 . S
C2099 C2098 1.369 . S
C2099 C2100 1.410 . S
C2099 C2107 1.503 . S
C2100 C2099 1.410 . S
C2100 C2101 1.392 . S
C2100 C2103 1.511 . S
C2101 C2097 1.376 . S
C2101 C2100 1.392 . S
C2101 H2113 0.929 . S
C2102 C2098 1.531 . S
C2102 H2114 0.960 . S
C2102 H2115 0.962 . S
C2102 H2116 0.960 . S
C2103 C2100 1.511 . S
C2103 H2117 0.961 . S
C2103 H2118 0.961 . S
C2103 H2119 0.961 . S
C2104 C2105 1.370 . S
C2104 C2106 1.363 . S
C2104 H2120 0.931 . S
C2105 C2104 1.370 . S
C2105 C2109 1.408 . S
C2106 C2104 1.363 . S
C2106 C2107 1.370 . S
C2106 C2110 1.524 . S
C2107 C2099 1.503 . S
C2107 C2106 1.370 . S
C2107 C2108 1.403 . S
C2108 C2107 1.403 . S
C2108 C2109 1.404 . S
C2108 C2111 1.539 . S
C2109 C2105 1.408 . S
C2109 C2108 1.404 . S
C2109 H2121 0.930 . S
C2110 C2106 1.524 . S
C2110 H2122 0.956 . S
C2110 H2123 0.961 . S
C2110 H2124 0.961 . S
C2111 C2108 1.539 . S
C2111 H2125 0.958 . S
C2111 H2126 0.961 . S
C2111 H2127 0.960 . S
H2112 C2096 0.931 . S
H2113 C2101 0.929 . S
H2114 C2102 0.960 . S
H2115 C2102 0.962 . S
H2116 C2102 0.960 . S
H2117 C2103 0.961 . S
H2118 C2103 0.961 . S
H2119 C2103 0.961 . S
H2120 C2104 0.931 . S
H2121 C2109 0.930 . S
H2122 C2110 0.956 . S
H2123 C2110 0.961 . S
H2124 C2110 0.961 . S
H2125 C2111 0.958 . S
H2126 C2111 0.961 . S
H2127 C2111 0.960 . S
C2128 C2129 1.391 . S
C2128 C2130 1.394 . S
C2128 H2144 0.931 . S
C2129 C2128 1.391 . S
C2129 C2133 1.376 . S
C2130 C2128 1.394 . S
C2130 C2131 1.369 . S
C2130 C2134 1.531 . S
C2131 C2130 1.369 . S
C2131 C2132 1.410 . S
C2131 C2139 1.503 . S
C2132 C2131 1.410 . S
C2132 C2133 1.392 . S
C2132 C2135 1.511 . S
C2133 C2129 1.376 . S
C2133 C2132 1.392 . S
C2133 H2145 0.929 . S
C2134 C2130 1.531 . S
C2134 H2146 0.960 . S
C2134 H2147 0.962 . S
C2134 H2148 0.960 . S
C2135 C2132 1.511 . S
C2135 H2149 0.961 . S
C2135 H2150 0.961 . S
C2135 H2151 0.961 . S
C2136 C2137 1.370 . S
C2136 C2138 1.363 . S
C2136 H2152 0.931 . S
C2137 C2136 1.370 . S
C2137 C2141 1.408 . S
C2138 C2136 1.363 . S
C2138 C2139 1.370 . S
C2138 C2142 1.524 . S
C2139 C2131 1.503 . S
C2139 C2138 1.370 . S
C2139 C2140 1.403 . S
C2140 C2139 1.403 . S
C2140 C2141 1.404 . S
C2140 C2143 1.539 . S
C2141 C2137 1.408 . S
C2141 C2140 1.404 . S
C2141 H2153 0.930 . S
C2142 C2138 1.524 . S
C2142 H2154 0.956 . S
C2142 H2155 0.961 . S
C2142 H2156 0.961 1_545 S
C2143 C2140 1.539 . S
C2143 H2157 0.958 . S
C2143 H2158 0.961 . S
C2143 H2159 0.960 . S
H2144 C2128 0.931 . S
H2145 C2133 0.929 . S
H2146 C2134 0.960 . S
H2147 C2134 0.962 . S
H2148 C2134 0.960 . S
H2149 C2135 0.961 . S
H2150 C2135 0.961 . S
H2151 C2135 0.961 . S
H2152 C2136 0.931 . S
H2153 C2141 0.930 . S
H2154 C2142 0.956 . S
H2155 C2142 0.961 . S
H2156 C2142 0.961 1_565 S
H2157 C2143 0.958 . S
H2158 C2143 0.961 . S
H2159 C2143 0.960 . S
C2160 C2161 1.391 . S
C2160 C2162 1.394 . S
C2160 H2176 0.931 . S
C2161 C2160 1.391 . S
C2161 C2165 1.376 . S
C2162 C2160 1.394 . S
C2162 C2163 1.369 . S
C2162 C2166 1.531 . S
C2163 C2162 1.369 . S
C2163 C2164 1.410 . S
C2163 C2171 1.503 . S
C2164 C2163 1.410 . S
C2164 C2165 1.392 . S
C2164 C2167 1.511 . S
C2165 C2161 1.376 . S
C2165 C2164 1.392 . S
C2165 H2177 0.929 . S
C2166 C2162 1.531 . S
C2166 H2178 0.960 . S
C2166 H2179 0.962 . S
C2166 H2180 0.960 . S
C2167 C2164 1.511 . S
C2167 H2181 0.961 . S
C2167 H2182 0.961 . S
C2167 H2183 0.961 . S
C2168 C2169 1.370 . S
C2168 C2170 1.363 . S
C2168 H2184 0.931 . S
C2169 C2168 1.370 . S
C2169 C2173 1.408 . S
C2170 C2168 1.363 . S
C2170 C2171 1.370 . S
C2170 C2174 1.524 . S
C2171 C2163 1.503 . S
C2171 C2170 1.370 . S
C2171 C2172 1.403 . S
C2172 C2171 1.403 . S
C2172 C2173 1.404 . S
C2172 C2175 1.539 . S
C2173 C2169 1.408 . S
C2173 C2172 1.404 . S
C2173 H2185 0.930 . S
C2174 C2170 1.524 . S
C2174 H2186 0.956 . S
C2174 H2187 0.961 . S
C2174 H2188 0.961 . S
C2175 C2172 1.539 . S
C2175 H2189 0.958 . S
C2175 H2190 0.961 . S
C2175 H2191 0.960 . S
H2176 C2160 0.931 . S
H2177 C2165 0.929 . S
H2178 C2166 0.960 . S
H2179 C2166 0.962 . S
H2180 C2166 0.960 . S
H2181 C2167 0.961 . S
H2182 C2167 0.961 . S
H2183 C2167 0.961 . S
H2184 C2168 0.931 . S
H2185 C2173 0.930 . S
H2186 C2174 0.956 . S
H2187 C2174 0.961 . S
H2188 C2174 0.961 . S
H2189 C2175 0.958 . S
H2190 C2175 0.961 . S
H2191 C2175 0.960 . S
C2192 C2193 1.391 . S
C2192 C2194 1.394 . S
C2192 H2208 0.931 . S
C2193 C2192 1.391 . S
C2193 C2197 1.365 1_554 S
C2194 C2192 1.394 . S
C2194 C2195 1.369 . S
C2194 C2198 1.531 1_565 S
C2195 C2194 1.369 . S
C2195 C2196 1.410 . S
C2195 C2203 1.503 . S
C2196 C2195 1.410 . S
C2196 C2197 1.392 1_554 S
C2196 C2199 1.511 1_554 S
C2197 C2193 1.365 1_556 S
C2197 C2196 1.392 1_556 S
C2197 H2209 0.942 . S
C2198 C2194 1.531 1_545 S
C2198 H2210 0.960 . S
C2198 H2211 0.962 . S
C2198 H2212 0.960 . S
C2199 C2196 1.511 1_556 S
C2199 H2213 0.961 . S
C2199 H2214 0.961 . S
C2199 H2215 0.961 . S
C2200 C2201 1.370 1_565 S
C2200 C2202 1.363 . S
C2200 H2216 0.931 . S
C2201 C2200 1.370 1_545 S
C2201 C2205 1.408 . S
C2202 C2200 1.363 . S
C2202 C2203 1.370 . S
C2202 C2206 1.524 . S
C2203 C2195 1.503 . S
C2203 C2202 1.370 . S
C2203 C2204 1.379 1_565 S
C2204 C2203 1.379 1_545 S
C2204 C2205 1.421 . S
C2204 C2207 1.546 1_554 S
C2205 C2201 1.408 . S
C2205 C2204 1.421 . S
C2205 H2217 0.930 1_554 S
C2206 C2202 1.524 . S
C2206 H2218 0.956 . S
C2206 H2219 0.961 . S
C2206 H2220 0.961 . S
C2207 C2204 1.546 1_556 S
C2207 H2221 0.958 . S
C2207 H2222 0.961 . S
C2207 H2223 0.960 1_545 S
H2208 C2192 0.931 . S
H2209 C2197 0.942 . S
H2210 C2198 0.960 . S
H2211 C2198 0.962 . S
H2212 C2198 0.960 . S
H2213 C2199 0.961 . S
H2214 C2199 0.961 . S
H2215 C2199 0.961 . S
H2216 C2200 0.931 . S
H2217 C2205 0.930 1_556 S
H2218 C2206 0.956 . S
H2219 C2206 0.961 . S
H2220 C2206 0.961 . S
H2221 C2207 0.958 . S
H2222 C2207 0.961 . S
H2223 C2207 0.960 1_565 S
C2224 C2225 1.391 . S
C2224 C2226 1.394 . S
C2224 H2240 0.931 . S
C2225 C2224 1.391 . S
C2225 C2229 1.376 1_556 S
C2226 C2224 1.394 . S
C2226 C2227 1.369 . S
C2226 C2230 1.531 . S
C2227 C2226 1.369 . S
C2227 C2228 1.410 1_556 S
C2227 C2235 1.503 . S
C2228 C2227 1.410 1_554 S
C2228 C2229 1.392 . S
C2228 C2231 1.511 . S
C2229 C2225 1.376 1_554 S
C2229 C2228 1.392 . S
C2229 H2241 0.929 . S
C2230 C2226 1.531 . S
C2230 H2242 0.960 . S
C2230 H2243 0.962 . S
C2230 H2244 0.960 . S
C2231 C2228 1.511 . S
C2231 H2245 0.961 . S
C2231 H2246 0.961 . S
C2231 H2247 0.961 . S
C2232 C2233 1.364 1_554 S
C2232 C2234 1.363 . S
C2232 H2248 0.931 . S
C2233 C2232 1.364 1_556 S
C2233 C2237 1.420 . S
C2234 C2232 1.363 . S
C2234 C2235 1.370 1_554 S
C2234 C2238 1.524 . S
C2235 C2227 1.503 . S
C2235 C2234 1.370 1_556 S
C2235 C2236 1.403 . S
C2236 C2235 1.403 . S
C2236 C2237 1.404 . S
C2236 C2239 1.539 . S
C2237 C2233 1.420 . S
C2237 C2236 1.404 . S
C2237 H2249 0.930 . S
C2238 C2234 1.524 . S
C2238 H2250 0.956 . S
C2238 H2251 0.961 . S
C2238 H2252 0.961 . S
C2239 C2236 1.539 . S
C2239 H2253 0.958 . S
C2239 H2254 0.961 . S
C2239 H2255 0.960 . S
H2240 C2224 0.931 . S
H2241 C2229 0.929 . S
H2242 C2230 0.960 . S
H2243 C2230 0.962 . S
H2244 C2230 0.960 . S
H2245 C2231 0.961 . S
H2246 C2231 0.961 . S
H2247 C2231 0.961 . S
H2248 C2232 0.931 . S
H2249 C2237 0.930 . S
H2250 C2238 0.956 . S
H2251 C2238 0.961 . S
H2252 C2238 0.961 . S
H2253 C2239 0.958 . S
H2254 C2239 0.961 . S
H2255 C2239 0.960 . S
C2256 C2257 1.391 . S
C2256 C2258 1.394 . S
C2256 H2272 0.931 . S
C2257 C2256 1.391 . S
C2257 C2261 1.376 . S
C2258 C2256 1.394 . S
C2258 C2259 1.369 . S
C2258 C2262 1.531 . S
C2259 C2258 1.369 . S
C2259 C2260 1.410 . S
C2259 C2267 1.503 . S
C2260 C2259 1.410 . S
C2260 C2261 1.392 . S
C2260 C2263 1.511 . S
C2261 C2257 1.376 . S
C2261 C2260 1.392 . S
C2261 H2273 0.929 . S
C2262 C2258 1.531 . S
C2262 H2274 0.960 . S
C2262 H2275 0.962 . S
C2262 H2276 0.960 . S
C2263 C2260 1.511 . S
C2263 H2277 0.961 . S
C2263 H2278 0.961 . S
C2263 H2279 0.961 . S
C2264 C2265 1.370 . S
C2264 C2266 1.363 . S
C2264 H2280 0.931 . S
C2265 C2264 1.370 . S
C2265 C2269 1.408 . S
C2266 C2264 1.363 . S
C2266 C2267 1.370 . S
C2266 C2270 1.524 . S
C2267 C2259 1.503 . S
C2267 C2266 1.370 . S
C2267 C2268 1.403 . S
C2268 C2267 1.403 . S
C2268 C2269 1.404 . S
C2268 C2271 1.539 . S
C2269 C2265 1.408 . S
C2269 C2268 1.404 . S
C2269 H2281 0.930 . S
C2270 C2266 1.524 . S
C2270 H2282 0.956 . S
C2270 H2283 0.961 . S
C2270 H2284 0.961 . S
C2271 C2268 1.539 . S
C2271 H2285 0.958 . S
C2271 H2286 0.961 . S
C2271 H2287 0.960 . S
H2272 C2256 0.931 . S
H2273 C2261 0.929 . S
H2274 C2262 0.960 . S
H2275 C2262 0.962 . S
H2276 C2262 0.960 . S
H2277 C2263 0.961 . S
H2278 C2263 0.961 . S
H2279 C2263 0.961 . S
H2280 C2264 0.931 . S
H2281 C2269 0.930 . S
H2282 C2270 0.956 . S
H2283 C2270 0.961 . S
H2284 C2270 0.961 . S
H2285 C2271 0.958 . S
H2286 C2271 0.961 . S
H2287 C2271 0.960 . S
C2288 C2289 1.391 . S
C2288 C2290 1.394 . S
C2288 H2304 0.931 . S
C2289 C2288 1.391 . S
C2289 C2293 1.376 . S
C2290 C2288 1.394 . S
C2290 C2291 1.369 . S
C2290 C2294 1.531 . S
C2291 C2290 1.369 . S
C2291 C2292 1.410 . S
C2291 C2299 1.503 . S
C2292 C2291 1.410 . S
C2292 C2293 1.392 . S
C2292 C2295 1.511 . S
C2293 C2289 1.376 . S
C2293 C2292 1.392 . S
C2293 H2305 0.929 . S
C2294 C2290 1.531 . S
C2294 H2306 0.960 . S
C2294 H2307 0.962 . S
C2294 H2308 0.960 . S
C2295 C2292 1.511 . S
C2295 H2309 0.961 . S
C2295 H2310 0.961 . S
C2295 H2311 0.961 . S
C2296 C2297 1.364 1_655 S
C2296 C2298 1.399 . S
C2296 H2312 0.902 1_655 S
C2297 C2296 1.364 1_455 S
C2297 C2301 1.408 1_455 S
C2298 C2296 1.399 . S
C2298 C2299 1.370 . S
C2298 C2302 1.524 . S
C2299 C2291 1.503 . S
C2299 C2298 1.370 . S
C2299 C2300 1.403 . S
C2300 C2299 1.403 . S
C2300 C2301 1.404 . S
C2300 C2303 1.539 . S
C2301 C2297 1.408 1_655 S
C2301 C2300 1.404 . S
C2301 H2313 0.923 1_655 S
C2302 C2298 1.524 . S
C2302 H2314 0.956 . S
C2302 H2315 0.961 . S
C2302 H2316 0.961 . S
C2303 C2300 1.539 . S
C2303 H2317 0.958 . S
C2303 H2318 0.961 . S
C2303 H2319 0.960 . S
H2304 C2288 0.931 . S
H2305 C2293 0.929 . S
H2306 C2294 0.960 . S
H2307 C2294 0.962 . S
H2308 C2294 0.960 . S
H2309 C2295 0.961 . S
H2310 C2295 0.961 . S
H2311 C2295 0.961 . S
H2312 C2296 0.902 1_455 S
H2313 C2301 0.923 1_455 S
H2314 C2302 0.956 . S
H2315 C2302 0.961 . S
H2316 C2302 0.961 . S
H2317 C2303 0.958 . S
H2318 C2303 0.961 . S
H2319 C2303 0.960 . S
C2320 C2321 1.391 . S
C2320 C2322 1.394 . S
C2320 H2336 0.931 . S
C2321 C2320 1.391 . S
C2321 C2325 1.376 . S
C2322 C2320 1.394 . S
C2322 C2323 1.369 . S
C2322 C2326 1.531 . S
C2323 C2322 1.369 . S
C2323 C2324 1.410 . S
C2323 C2331 1.503 . S
C2324 C2323 1.410 . S
C2324 C2325 1.392 . S
C2324 C2327 1.511 . S
C2325 C2321 1.376 . S
C2325 C2324 1.392 . S
C2325 H2337 0.929 . S
C2326 C2322 1.531 . S
C2326 H2338 0.960 . S
C2326 H2339 0.962 . S
C2326 H2340 0.960 . S
C2327 C2324 1.511 . S
C2327 H2341 0.961 . S
C2327 H2342 0.961 . S
C2327 H2343 0.961 . S
C2328 C2329 1.370 . S
C2328 C2330 1.363 . S
C2328 H2344 0.931 . S
C2329 C2328 1.370 . S
C2329 C2333 1.408 . S
C2330 C2328 1.363 . S
C2330 C2331 1.370 . S
C2330 C2334 1.524 . S
C2331 C2323 1.503 . S
C2331 C2330 1.370 . S
C2331 C2332 1.403 . S
C2332 C2331 1.403 . S
C2332 C2333 1.404 . S
C2332 C2335 1.539 . S
C2333 C2329 1.408 . S
C2333 C2332 1.404 . S
C2333 H2345 0.930 . S
C2334 C2330 1.524 . S
C2334 H2346 0.956 . S
C2334 H2347 0.961 . S
C2334 H2348 0.961 . S
C2335 C2332 1.539 . S
C2335 H2349 0.958 . S
C2335 H2350 0.961 . S
C2335 H2351 0.960 . S
H2336 C2320 0.931 . S
H2337 C2325 0.929 . S
H2338 C2326 0.960 . S
H2339 C2326 0.962 . S
H2340 C2326 0.960 . S
H2341 C2327 0.961 . S
H2342 C2327 0.961 . S
H2343 C2327 0.961 . S
H2344 C2328 0.931 . S
H2345 C2333 0.930 . S
H2346 C2334 0.956 . S
H2347 C2334 0.961 . S
H2348 C2334 0.961 . S
H2349 C2335 0.958 . S
H2350 C2335 0.961 . S
H2351 C2335 0.960 . S
C2352 C2353 1.391 . S
C2352 C2354 1.394 . S
C2352 H2368 0.931 . S
C2353 C2352 1.391 . S
C2353 C2357 1.376 . S
C2354 C2352 1.394 . S
C2354 C2355 1.369 . S
C2354 C2358 1.531 . S
C2355 C2354 1.369 . S
C2355 C2356 1.410 . S
C2355 C2363 1.503 . S
C2356 C2355 1.410 . S
C2356 C2357 1.392 . S
C2356 C2359 1.511 . S
C2357 C2353 1.376 . S
C2357 C2356 1.392 . S
C2357 H2369 0.929 . S
C2358 C2354 1.531 . S
C2358 H2370 0.960 . S
C2358 H2371 0.962 . S
C2358 H2372 0.960 . S
C2359 C2356 1.511 . S
C2359 H2373 0.961 . S
C2359 H2374 0.961 . S
C2359 H2375 0.961 . S
C2360 C2361 1.370 . S
C2360 C2362 1.363 . S
C2360 H2376 0.931 . S
C2361 C2360 1.370 . S
C2361 C2365 1.408 . S
C2362 C2360 1.363 . S
C2362 C2363 1.370 . S
C2362 C2366 1.524 . S
C2363 C2355 1.503 . S
C2363 C2362 1.370 . S
C2363 C2364 1.403 . S
C2364 C2363 1.403 . S
C2364 C2365 1.404 . S
C2364 C2367 1.539 . S
C2365 C2361 1.408 . S
C2365 C2364 1.404 . S
C2365 H2377 0.930 . S
C2366 C2362 1.524 . S
C2366 H2378 0.956 . S
C2366 H2379 0.961 . S
C2366 H2380 0.961 . S
C2367 C2364 1.539 . S
C2367 H2381 0.958 . S
C2367 H2382 0.961 . S
C2367 H2383 0.960 . S
H2368 C2352 0.931 . S
H2369 C2357 0.929 . S
H2370 C2358 0.960 . S
H2371 C2358 0.962 . S
H2372 C2358 0.960 . S
H2373 C2359 0.961 . S
H2374 C2359 0.961 . S
H2375 C2359 0.961 . S
H2376 C2360 0.931 . S
H2377 C2365 0.930 . S
H2378 C2366 0.956 . S
H2379 C2366 0.961 . S
H2380 C2366 0.961 . S
H2381 C2367 0.958 . S
H2382 C2367 0.961 . S
H2383 C2367 0.960 . S
C2384 C2385 1.391 . S
C2384 C2386 1.394 . S
C2384 H2400 0.931 . S
C2385 C2384 1.391 . S
C2385 C2389 1.376 . S
C2386 C2384 1.394 . S
C2386 C2387 1.369 . S
C2386 C2390 1.531 . S
C2387 C2386 1.369 . S
C2387 C2388 1.410 . S
C2387 C2395 1.503 . S
C2388 C2387 1.410 . S
C2388 C2389 1.392 . S
C2388 C2391 1.511 . S
C2389 C2385 1.376 . S
C2389 C2388 1.392 . S
C2389 H2401 0.929 . S
C2390 C2386 1.531 . S
C2390 H2402 0.960 . S
C2390 H2403 0.962 . S
C2390 H2404 0.960 . S
C2391 C2388 1.511 . S
C2391 H2405 0.961 . S
C2391 H2406 0.961 . S
C2391 H2407 0.961 . S
C2392 C2393 1.370 . S
C2392 C2394 1.363 . S
C2392 H2408 0.931 . S
C2393 C2392 1.370 . S
C2393 C2397 1.408 . S
C2394 C2392 1.363 . S
C2394 C2395 1.370 . S
C2394 C2398 1.524 . S
C2395 C2387 1.503 . S
C2395 C2394 1.370 . S
C2395 C2396 1.403 . S
C2396 C2395 1.403 . S
C2396 C2397 1.404 . S
C2396 C2399 1.539 . S
C2397 C2393 1.408 . S
C2397 C2396 1.404 . S
C2397 H2409 0.930 . S
C2398 C2394 1.524 . S
C2398 H2410 0.956 . S
C2398 H2411 0.961 . S
C2398 H2412 0.961 . S
C2399 C2396 1.539 . S
C2399 H2413 0.958 . S
C2399 H2414 0.961 . S
C2399 H2415 0.960 . S
H2400 C2384 0.931 . S
H2401 C2389 0.929 . S
H2402 C2390 0.960 . S
H2403 C2390 0.962 . S
H2404 C2390 0.960 . S
H2405 C2391 0.961 . S
H2406 C2391 0.961 . S
H2407 C2391 0.961 . S
H2408 C2392 0.931 . S
H2409 C2397 0.930 . S
H2410 C2398 0.956 . S
H2411 C2398 0.961 . S
H2412 C2398 0.961 . S
H2413 C2399 0.958 . S
H2414 C2399 0.961 . S
H2415 C2399 0.960 . S
C2416 C2417 1.391 . S
C2416 C2418 1.394 . S
C2416 H2432 0.931 . S
C2417 C2416 1.391 . S
C2417 C2421 1.376 . S
C2418 C2416 1.394 . S
C2418 C2419 1.369 . S
C2418 C2422 1.531 . S
C2419 C2418 1.369 . S
C2419 C2420 1.410 . S
C2419 C2427 1.503 . S
C2420 C2419 1.410 . S
C2420 C2421 1.392 . S
C2420 C2423 1.511 . S
C2421 C2417 1.376 . S
C2421 C2420 1.392 . S
C2421 H2433 0.929 . S
C2422 C2418 1.531 . S
C2422 H2434 0.960 . S
C2422 H2435 0.962 . S
C2422 H2436 0.960 . S
C2423 C2420 1.511 . S
C2423 H2437 0.961 . S
C2423 H2438 0.961 . S
C2423 H2439 0.961 . S
C2424 C2425 1.370 . S
C2424 C2426 1.363 . S
C2424 H2440 0.931 . S
C2425 C2424 1.370 . S
C2425 C2429 1.408 . S
C2426 C2424 1.363 . S
C2426 C2427 1.370 . S
C2426 C2430 1.524 . S
C2427 C2419 1.503 . S
C2427 C2426 1.370 . S
C2427 C2428 1.403 . S
C2428 C2427 1.403 . S
C2428 C2429 1.404 . S
C2428 C2431 1.539 . S
C2429 C2425 1.408 . S
C2429 C2428 1.404 . S
C2429 H2441 0.930 . S
C2430 C2426 1.524 . S
C2430 H2442 0.956 . S
C2430 H2443 0.961 . S
C2430 H2444 0.961 . S
C2431 C2428 1.539 . S
C2431 H2445 0.958 . S
C2431 H2446 0.961 . S
C2431 H2447 0.960 . S
H2432 C2416 0.931 . S
H2433 C2421 0.929 . S
H2434 C2422 0.960 . S
H2435 C2422 0.962 . S
H2436 C2422 0.960 . S
H2437 C2423 0.961 . S
H2438 C2423 0.961 . S
H2439 C2423 0.961 . S
H2440 C2424 0.931 . S
H2441 C2429 0.930 . S
H2442 C2430 0.956 . S
H2443 C2430 0.961 . S
H2444 C2430 0.961 . S
H2445 C2431 0.958 . S
H2446 C2431 0.961 . S
H2447 C2431 0.960 . S
C2448 C2449 1.391 . S
C2448 C2450 1.394 . S
C2448 H2464 0.931 . S
C2449 C2448 1.391 . S
C2449 C2453 1.376 . S
C2450 C2448 1.394 . S
C2450 C2451 1.369 . S
C2450 C2454 1.531 . S
C2451 C2450 1.369 . S
C2451 C2452 1.410 . S
C2451 C2459 1.503 . S
C2452 C2451 1.410 . S
C2452 C2453 1.392 . S
C2452 C2455 1.511 . S
C2453 C2449 1.376 . S
C2453 C2452 1.392 . S
C2453 H2465 0.929 . S
C2454 C2450 1.531 . S
C2454 H2466 0.960 . S
C2454 H2467 0.962 . S
C2454 H2468 0.960 . S
C2455 C2452 1.511 . S
C2455 H2469 0.961 . S
C2455 H2470 0.961 . S
C2455 H2471 0.961 . S
C2456 C2457 1.370 . S
C2456 C2458 1.363 . S
C2456 H2472 0.931 . S
C2457 C2456 1.370 . S
C2457 C2461 1.408 . S
C2458 C2456 1.363 . S
C2458 C2459 1.370 . S
C2458 C2462 1.524 . S
C2459 C2451 1.503 . S
C2459 C2458 1.370 . S
C2459 C2460 1.403 . S
C2460 C2459 1.403 . S
C2460 C2461 1.404 . S
C2460 C2463 1.539 . S
C2461 C2457 1.408 . S
C2461 C2460 1.404 . S
C2461 H2473 0.930 . S
C2462 C2458 1.524 . S
C2462 H2474 0.956 . S
C2462 H2475 0.961 . S
C2462 H2476 0.961 . S
C2463 C2460 1.539 . S
C2463 H2477 0.958 . S
C2463 H2478 0.961 . S
C2463 H2479 0.960 . S
H2464 C2448 0.931 . S
H2465 C2453 0.929 . S
H2466 C2454 0.960 . S
H2467 C2454 0.962 . S
H2468 C2454 0.960 . S
H2469 C2455 0.961 . S
H2470 C2455 0.961 . S
H2471 C2455 0.961 . S
H2472 C2456 0.931 . S
H2473 C2461 0.930 . S
H2474 C2462 0.956 . S
H2475 C2462 0.961 . S
H2476 C2462 0.961 . S
H2477 C2463 0.958 . S
H2478 C2463 0.961 . S
H2479 C2463 0.960 . S
C2480 C2481 1.391 . S
C2480 C2482 1.394 . S
C2480 H2496 0.931 . S
C2481 C2480 1.391 . S
C2481 C2485 1.376 . S
C2482 C2480 1.394 . S
C2482 C2483 1.369 . S
C2482 C2486 1.531 . S
C2483 C2482 1.369 . S
C2483 C2484 1.410 . S
C2483 C2491 1.503 . S
C2484 C2483 1.410 . S
C2484 C2485 1.392 . S
C2484 C2487 1.511 . S
C2485 C2481 1.376 . S
C2485 C2484 1.392 . S
C2485 H2497 0.929 . S
C2486 C2482 1.531 . S
C2486 H2498 0.960 . S
C2486 H2499 0.962 . S
C2486 H2500 0.960 . S
C2487 C2484 1.511 . S
C2487 H2501 0.961 . S
C2487 H2502 0.961 . S
C2487 H2503 0.961 . S
C2488 C2489 1.370 . S
C2488 C2490 1.363 . S
C2488 H2504 0.931 . S
C2489 C2488 1.370 . S
C2489 C2493 1.408 . S
C2490 C2488 1.363 . S
C2490 C2491 1.370 . S
C2490 C2494 1.524 . S
C2491 C2483 1.503 . S
C2491 C2490 1.370 . S
C2491 C2492 1.403 . S
C2492 C2491 1.403 . S
C2492 C2493 1.404 . S
C2492 C2495 1.539 . S
C2493 C2489 1.408 . S
C2493 C2492 1.404 . S
C2493 H2505 0.930 . S
C2494 C2490 1.524 . S
C2494 H2506 0.956 . S
C2494 H2507 0.961 . S
C2494 H2508 0.961 . S
C2495 C2492 1.539 . S
C2495 H2509 0.958 . S
C2495 H2510 0.961 . S
C2495 H2511 0.960 . S
H2496 C2480 0.931 . S
H2497 C2485 0.929 . S
H2498 C2486 0.960 . S
H2499 C2486 0.962 . S
H2500 C2486 0.960 . S
H2501 C2487 0.961 . S
H2502 C2487 0.961 . S
H2503 C2487 0.961 . S
H2504 C2488 0.931 . S
H2505 C2493 0.930 . S
H2506 C2494 0.956 . S
H2507 C2494 0.961 . S
H2508 C2494 0.961 . S
H2509 C2495 0.958 . S
H2510 C2495 0.961 . S
H2511 C2495 0.960 . S
C2512 C2513 1.391 . S
C2512 C2514 1.394 . S
C2512 H2528 0.931 . S
C2513 C2512 1.391 . S
C2513 C2517 1.376 . S
C2514 C2512 1.394 . S
C2514 C2515 1.369 . S
C2514 C2518 1.531 . S
C2515 C2514 1.369 . S
C2515 C2516 1.410 . S
C2515 C2523 1.503 . S
C2516 C2515 1.410 . S
C2516 C2517 1.392 . S
C2516 C2519 1.511 . S
C2517 C2513 1.376 . S
C2517 C2516 1.392 . S
C2517 H2529 0.929 . S
C2518 C2514 1.531 . S
C2518 H2530 0.960 . S
C2518 H2531 0.962 . S
C2518 H2532 0.960 . S
C2519 C2516 1.511 . S
C2519 H2533 0.961 . S
C2519 H2534 0.961 . S
C2519 H2535 0.961 . S
C2520 C2521 1.370 . S
C2520 C2522 1.363 . S
C2520 H2536 0.931 . S
C2521 C2520 1.370 . S
C2521 C2525 1.408 . S
C2522 C2520 1.363 . S
C2522 C2523 1.370 . S
C2522 C2526 1.524 . S
C2523 C2515 1.503 . S
C2523 C2522 1.370 . S
C2523 C2524 1.403 . S
C2524 C2523 1.403 . S
C2524 C2525 1.404 . S
C2524 C2527 1.539 . S
C2525 C2521 1.408 . S
C2525 C2524 1.404 . S
C2525 H2537 0.930 . S
C2526 C2522 1.524 . S
C2526 H2538 0.956 . S
C2526 H2539 0.961 . S
C2526 H2540 0.961 . S
C2527 C2524 1.539 . S
C2527 H2541 0.958 . S
C2527 H2542 0.961 . S
C2527 H2543 0.960 . S
H2528 C2512 0.931 . S
H2529 C2517 0.929 . S
H2530 C2518 0.960 . S
H2531 C2518 0.962 . S
H2532 C2518 0.960 . S
H2533 C2519 0.961 . S
H2534 C2519 0.961 . S
H2535 C2519 0.961 . S
H2536 C2520 0.931 . S
H2537 C2525 0.930 . S
H2538 C2526 0.956 . S
H2539 C2526 0.961 . S
H2540 C2526 0.961 . S
H2541 C2527 0.958 . S
H2542 C2527 0.961 . S
H2543 C2527 0.960 . S
C2544 C2545 1.391 . S
C2544 C2546 1.394 . S
C2544 H2560 0.931 . S
C2545 C2544 1.391 . S
C2545 C2549 1.376 . S
C2546 C2544 1.394 . S
C2546 C2547 1.369 . S
C2546 C2550 1.531 . S
C2547 C2546 1.369 . S
C2547 C2548 1.410 . S
C2547 C2555 1.503 . S
C2548 C2547 1.410 . S
C2548 C2549 1.392 . S
C2548 C2551 1.511 . S
C2549 C2545 1.376 . S
C2549 C2548 1.392 . S
C2549 H2561 0.929 . S
C2550 C2546 1.531 . S
C2550 H2562 0.960 . S
C2550 H2563 0.962 . S
C2550 H2564 0.960 . S
C2551 C2548 1.511 . S
C2551 H2565 0.961 . S
C2551 H2566 0.961 . S
C2551 H2567 0.961 . S
C2552 C2553 1.370 . S
C2552 C2554 1.363 . S
C2552 H2568 0.931 . S
C2553 C2552 1.370 . S
C2553 C2557 1.408 . S
C2554 C2552 1.363 . S
C2554 C2555 1.370 . S
C2554 C2558 1.524 . S
C2555 C2547 1.503 . S
C2555 C2554 1.370 . S
C2555 C2556 1.403 . S
C2556 C2555 1.403 . S
C2556 C2557 1.404 . S
C2556 C2559 1.539 . S
C2557 C2553 1.408 . S
C2557 C2556 1.404 . S
C2557 H2569 0.930 . S
C2558 C2554 1.524 . S
C2558 H2570 0.956 . S
C2558 H2571 0.961 . S
C2558 H2572 0.961 . S
C2559 C2556 1.539 . S
C2559 H2573 0.958 . S
C2559 H2574 0.961 . S
C2559 H2575 0.960 . S
H2560 C2544 0.931 . S
H2561 C2549 0.929 . S
H2562 C2550 0.960 . S
H2563 C2550 0.962 . S
H2564 C2550 0.960 . S
H2565 C2551 0.961 . S
H2566 C2551 0.961 . S
H2567 C2551 0.961 . S
H2568 C2552 0.931 . S
H2569 C2557 0.930 . S
H2570 C2558 0.956 . S
H2571 C2558 0.961 . S
H2572 C2558 0.961 . S
H2573 C2559 0.958 . S
H2574 C2559 0.961 . S
H2575 C2559 0.960 . S
C2576 C2577 1.391 . S
C2576 C2578 1.394 . S
C2576 H2592 0.931 . S
C2577 C2576 1.391 . S
C2577 C2581 1.376 . S
C2578 C2576 1.394 . S
C2578 C2579 1.369 . S
C2578 C2582 1.531 . S
C2579 C2578 1.369 . S
C2579 C2580 1.410 . S
C2579 C2587 1.503 . S
C2580 C2579 1.410 . S
C2580 C2581 1.392 . S
C2580 C2583 1.511 . S
C2581 C2577 1.376 . S
C2581 C2580 1.392 . S
C2581 H2593 0.929 . S
C2582 C2578 1.531 . S
C2582 H2594 0.960 . S
C2582 H2595 0.962 . S
C2582 H2596 0.960 . S
C2583 C2580 1.511 . S
C2583 H2597 0.961 . S
C2583 H2598 0.961 . S
C2583 H2599 0.961 . S
C2584 C2585 1.370 . S
C2584 C2586 1.363 . S
C2584 H2600 0.931 . S
C2585 C2584 1.370 . S
C2585 C2589 1.408 . S
C2586 C2584 1.363 . S
C2586 C2587 1.370 . S
C2586 C2590 1.524 . S
C2587 C2579 1.503 . S
C2587 C2586 1.370 . S
C2587 C2588 1.403 . S
C2588 C2587 1.403 . S
C2588 C2589 1.404 . S
C2588 C2591 1.539 . S
C2589 C2585 1.408 . S
C2589 C2588 1.404 . S
C2589 H2601 0.930 . S
C2590 C2586 1.524 . S
C2590 H2602 0.956 . S
C2590 H2603 0.961 . S
C2590 H2604 0.961 . S
C2591 C2588 1.539 . S
C2591 H2605 0.958 . S
C2591 H2606 0.961 . S
C2591 H2607 0.960 . S
H2592 C2576 0.931 . S
H2593 C2581 0.929 . S
H2594 C2582 0.960 . S
H2595 C2582 0.962 . S
H2596 C2582 0.960 . S
H2597 C2583 0.961 . S
H2598 C2583 0.961 . S
H2599 C2583 0.961 . S
H2600 C2584 0.931 . S
H2601 C2589 0.930 . S
H2602 C2590 0.956 . S
H2603 C2590 0.961 . S
H2604 C2590 0.961 . S
H2605 C2591 0.958 . S
H2606 C2591 0.961 . S
H2607 C2591 0.960 . S
C2608 C2609 1.391 . S
C2608 C2610 1.394 . S
C2608 H2624 0.931 . S
C2609 C2608 1.391 . S
C2609 C2613 1.376 . S
C2610 C2608 1.394 . S
C2610 C2611 1.369 . S
C2610 C2614 1.531 . S
C2611 C2610 1.369 . S
C2611 C2612 1.410 . S
C2611 C2619 1.503 . S
C2612 C2611 1.410 . S
C2612 C2613 1.392 . S
C2612 C2615 1.511 . S
C2613 C2609 1.376 . S
C2613 C2612 1.392 . S
C2613 H2625 0.929 . S
C2614 C2610 1.531 . S
C2614 H2626 0.960 . S
C2614 H2627 0.962 . S
C2614 H2628 0.960 . S
C2615 C2612 1.511 . S
C2615 H2629 0.961 . S
C2615 H2630 0.961 . S
C2615 H2631 0.961 . S
C2616 C2617 1.370 . S
C2616 C2618 1.363 . S
C2616 H2632 0.931 . S
C2617 C2616 1.370 . S
C2617 C2621 1.408 . S
C2618 C2616 1.363 . S
C2618 C2619 1.370 . S
C2618 C2622 1.524 . S
C2619 C2611 1.503 . S
C2619 C2618 1.370 . S
C2619 C2620 1.403 . S
C2620 C2619 1.403 . S
C2620 C2621 1.404 . S
C2620 C2623 1.539 . S
C2621 C2617 1.408 . S
C2621 C2620 1.404 . S
C2621 H2633 0.930 . S
C2622 C2618 1.524 . S
C2622 H2634 0.956 . S
C2622 H2635 0.961 . S
C2622 H2636 0.961 . S
C2623 C2620 1.539 . S
C2623 H2637 0.958 . S
C2623 H2638 0.961 . S
C2623 H2639 0.960 . S
H2624 C2608 0.931 . S
H2625 C2613 0.929 . S
H2626 C2614 0.960 . S
H2627 C2614 0.962 . S
H2628 C2614 0.960 . S
H2629 C2615 0.961 . S
H2630 C2615 0.961 . S
H2631 C2615 0.961 . S
H2632 C2616 0.931 . S
H2633 C2621 0.930 . S
H2634 C2622 0.956 . S
H2635 C2622 0.961 . S
H2636 C2622 0.961 . S
H2637 C2623 0.958 . S
H2638 C2623 0.961 . S
H2639 C2623 0.960 . S
C2640 C2641 1.391 . S
C2640 C2642 1.394 . S
C2640 H2656 0.931 . S
C2641 C2640 1.391 . S
C2641 C2645 1.376 . S
C2642 C2640 1.394 . S
C2642 C2643 1.369 . S
C2642 C2646 1.531 . S
C2643 C2642 1.369 . S
C2643 C2644 1.410 . S
C2643 C2651 1.503 . S
C2644 C2643 1.410 . S
C2644 C2645 1.392 . S
C2644 C2647 1.511 . S
C2645 C2641 1.376 . S
C2645 C2644 1.392 . S
C2645 H2657 0.929 . S
C2646 C2642 1.531 . S
C2646 H2658 0.960 . S
C2646 H2659 0.962 . S
C2646 H2660 0.960 . S
C2647 C2644 1.511 . S
C2647 H2661 0.961 . S
C2647 H2662 0.961 . S
C2647 H2663 0.961 . S
C2648 C2649 1.370 . S
C2648 C2650 1.363 . S
C2648 H2664 0.931 1_556 S
C2649 C2648 1.370 . S
C2649 C2653 1.408 . S
C2650 C2648 1.363 . S
C2650 C2651 1.370 . S
C2650 C2654 1.524 . S
C2651 C2643 1.503 . S
C2651 C2650 1.370 . S
C2651 C2652 1.403 . S
C2652 C2651 1.403 . S
C2652 C2653 1.404 . S
C2652 C2655 1.539 . S
C2653 C2649 1.408 . S
C2653 C2652 1.404 . S
C2653 H2665 0.930 . S
C2654 C2650 1.524 . S
C2654 H2666 0.956 . S
C2654 H2667 0.961 . S
C2654 H2668 0.961 1_556 S
C2655 C2652 1.539 . S
C2655 H2669 0.958 . S
C2655 H2670 0.961 . S
C2655 H2671 0.960 . S
H2656 C2640 0.931 . S
H2657 C2645 0.929 . S
H2658 C2646 0.960 . S
H2659 C2646 0.962 . S
H2660 C2646 0.960 . S
H2661 C2647 0.961 . S
H2662 C2647 0.961 . S
H2663 C2647 0.961 . S
H2664 C2648 0.931 1_554 S
H2665 C2653 0.930 . S
H2666 C2654 0.956 . S
H2667 C2654 0.961 . S
H2668 C2654 0.961 1_554 S
H2669 C2655 0.958 . S
H2670 C2655 0.961 . S
H2671 C2655 0.960 . S
C2672 C2673 1.391 . S
C2672 C2674 1.394 . S
C2672 H2688 0.931 . S
C2673 C2672 1.391 . S
C2673 C2677 1.376 . S
C2674 C2672 1.394 . S
C2674 C2675 1.369 . S
C2674 C2678 1.531 . S
C2675 C2674 1.369 . S
C2675 C2676 1.410 . S
C2675 C2683 1.503 . S
C2676 C2675 1.410 . S
C2676 C2677 1.392 . S
C2676 C2679 1.511 . S
C2677 C2673 1.376 . S
C2677 C2676 1.392 . S
C2677 H2689 0.929 . S
C2678 C2674 1.531 . S
C2678 H2690 0.960 . S
C2678 H2691 0.962 . S
C2678 H2692 0.960 . S
C2679 C2676 1.511 . S
C2679 H2693 0.961 . S
C2679 H2694 0.961 . S
C2679 H2695 0.961 . S
C2680 C2681 1.370 . S
C2680 C2682 1.363 . S
C2680 H2696 0.931 . S
C2681 C2680 1.370 . S
C2681 C2685 1.408 . S
C2682 C2680 1.363 . S
C2682 C2683 1.370 . S
C2682 C2686 1.524 . S
C2683 C2675 1.503 . S
C2683 C2682 1.370 . S
C2683 C2684 1.403 . S
C2684 C2683 1.403 . S
C2684 C2685 1.404 . S
C2684 C2687 1.539 . S
C2685 C2681 1.408 . S
C2685 C2684 1.404 . S
C2685 H2697 0.930 . S
C2686 C2682 1.524 . S
C2686 H2698 0.956 . S
C2686 H2699 0.961 . S
C2686 H2700 0.961 . S
C2687 C2684 1.539 . S
C2687 H2701 0.958 . S
C2687 H2702 0.961 . S
C2687 H2703 0.960 . S
H2688 C2672 0.931 . S
H2689 C2677 0.929 . S
H2690 C2678 0.960 . S
H2691 C2678 0.962 . S
H2692 C2678 0.960 . S
H2693 C2679 0.961 . S
H2694 C2679 0.961 . S
H2695 C2679 0.961 . S
H2696 C2680 0.931 . S
H2697 C2685 0.930 . S
H2698 C2686 0.956 . S
H2699 C2686 0.961 . S
H2700 C2686 0.961 . S
H2701 C2687 0.958 . S
H2702 C2687 0.961 . S
H2703 C2687 0.960 . S
C2704 C2705 1.391 . S
C2704 C2706 1.394 . S
C2704 H2720 0.931 . S
C2705 C2704 1.391 . S
C2705 C2709 1.376 1_545 S
C2706 C2704 1.394 . S
C2706 C2707 1.369 . S
C2706 C2710 1.531 . S
C2707 C2706 1.369 . S
C2707 C2708 1.410 1_545 S
C2707 C2715 1.503 . S
C2708 C2707 1.410 1_565 S
C2708 C2709 1.392 . S
C2708 C2711 1.511 . S
C2709 C2705 1.376 1_565 S
C2709 C2708 1.392 . S
C2709 H2721 0.929 . S
C2710 C2706 1.531 . S
C2710 H2722 0.960 . S
C2710 H2723 0.962 . S
C2710 H2724 0.960 . S
C2711 C2708 1.511 . S
C2711 H2725 0.961 . S
C2711 H2726 0.961 . S
C2711 H2727 0.961 . S
C2712 C2713 1.370 . S
C2712 C2714 1.363 . S
C2712 H2728 0.931 . S
C2713 C2712 1.370 . S
C2713 C2717 1.408 . S
C2714 C2712 1.363 . S
C2714 C2715 1.370 . S
C2714 C2718 1.524 . S
C2715 C2707 1.503 . S
C2715 C2714 1.370 . S
C2715 C2716 1.403 . S
C2716 C2715 1.403 . S
C2716 C2717 1.404 . S
C2716 C2719 1.539 1_545 S
C2717 C2713 1.408 . S
C2717 C2716 1.404 . S
C2717 H2729 0.930 . S
C2718 C2714 1.524 . S
C2718 H2730 0.956 . S
C2718 H2731 0.961 . S
C2718 H2732 0.961 . S
C2719 C2716 1.539 1_565 S
C2719 H2733 0.958 1_565 S
C2719 H2734 0.961 . S
C2719 H2735 0.960 . S
H2720 C2704 0.931 . S
H2721 C2709 0.929 . S
H2722 C2710 0.960 . S
H2723 C2710 0.962 . S
H2724 C2710 0.960 . S
H2725 C2711 0.961 . S
H2726 C2711 0.961 . S
H2727 C2711 0.961 . S
H2728 C2712 0.931 . S
H2729 C2717 0.930 . S
H2730 C2718 0.956 . S
H2731 C2718 0.961 . S
H2732 C2718 0.961 . S
H2733 C2719 0.958 1_545 S
H2734 C2719 0.961 . S
H2735 C2719 0.960 . S
C2736 C2737 1.391 . S
C2736 C2738 1.394 . S
C2736 H2752 0.931 . S
C2737 C2736 1.391 . S
C2737 C2741 1.376 . S
C2738 C2736 1.394 . S
C2738 C2739 1.369 . S
C2738 C2742 1.531 . S
C2739 C2738 1.369 . S
C2739 C2740 1.410 . S
C2739 C2747 1.503 . S
C2740 C2739 1.410 . S
C2740 C2741 1.392 . S
C2740 C2743 1.511 . S
C2741 C2737 1.376 . S
C2741 C2740 1.392 . S
C2741 H2753 0.929 . S
C2742 C2738 1.531 . S
C2742 H2754 0.960 . S
C2742 H2755 0.962 . S
C2742 H2756 0.960 . S
C2743 C2740 1.511 . S
C2743 H2757 0.961 . S
C2743 H2758 0.961 . S
C2743 H2759 0.961 . S
C2744 C2745 1.370 . S
C2744 C2746 1.363 . S
C2744 H2760 0.931 . S
C2745 C2744 1.370 . S
C2745 C2749 1.408 . S
C2746 C2744 1.363 . S
C2746 C2747 1.370 . S
C2746 C2750 1.524 . S
C2747 C2739 1.503 . S
C2747 C2746 1.370 . S
C2747 C2748 1.403 . S
C2748 C2747 1.403 . S
C2748 C2749 1.404 . S
C2748 C2751 1.539 . S
C2749 C2745 1.408 . S
C2749 C2748 1.404 . S
C2749 H2761 0.930 . S
C2750 C2746 1.524 . S
C2750 H2762 0.956 . S
C2750 H2763 0.961 . S
C2750 H2764 0.961 . S
C2751 C2748 1.539 . S
C2751 H2765 0.958 . S
C2751 H2766 0.961 . S
C2751 H2767 0.960 . S
H2752 C2736 0.931 . S
H2753 C2741 0.929 . S
H2754 C2742 0.960 . S
H2755 C2742 0.962 . S
H2756 C2742 0.960 . S
H2757 C2743 0.961 . S
H2758 C2743 0.961 . S
H2759 C2743 0.961 . S
H2760 C2744 0.931 . S
H2761 C2749 0.930 . S
H2762 C2750 0.956 . S
H2763 C2750 0.961 . S
H2764 C2750 0.961 . S
H2765 C2751 0.958 . S
H2766 C2751 0.961 . S
H2767 C2751 0.960 . S
C2768 C2769 1.391 . S
C2768 C2770 1.394 . S
C2768 H2784 0.931 . S
C2769 C2768 1.391 . S
C2769 C2773 1.376 . S
C2770 C2768 1.394 . S
C2770 C2771 1.369 . S
C2770 C2774 1.531 . S
C2771 C2770 1.369 . S
C2771 C2772 1.410 . S
C2771 C2779 1.503 . S
C2772 C2771 1.410 . S
C2772 C2773 1.392 . S
C2772 C2775 1.511 . S
C2773 C2769 1.376 . S
C2773 C2772 1.392 . S
C2773 H2785 0.929 . S
C2774 C2770 1.531 . S
C2774 H2786 0.960 . S
C2774 H2787 0.987 . S
C2774 H2788 0.960 . S
C2775 C2772 1.511 . S
C2775 H2789 0.961 . S
C2775 H2790 0.961 . S
C2775 H2791 0.961 . S
C2776 C2777 1.370 . S
C2776 C2778 1.363 . S
C2776 H2792 0.931 . S
C2777 C2776 1.370 . S
C2777 C2781 1.408 . S
C2778 C2776 1.363 . S
C2778 C2779 1.370 . S
C2778 C2782 1.524 1_545 S
C2779 C2771 1.503 . S
C2779 C2778 1.370 . S
C2779 C2780 1.403 . S
C2780 C2779 1.403 . S
C2780 C2781 1.404 . S
C2780 C2783 1.539 . S
C2781 C2777 1.408 . S
C2781 C2780 1.404 . S
C2781 H2793 0.930 . S
C2782 C2778 1.524 1_565 S
C2782 H2794 0.956 . S
C2782 H2795 0.961 1_565 S
C2782 H2796 0.961 . S
C2783 C2780 1.539 . S
C2783 H2797 0.958 . S
C2783 H2798 0.961 . S
C2783 H2799 0.960 . S
H2784 C2768 0.931 . S
H2785 C2773 0.929 . S
H2786 C2774 0.960 . S
H2787 C2774 0.987 . S
H2788 C2774 0.960 . S
H2789 C2775 0.961 . S
H2790 C2775 0.961 . S
H2791 C2775 0.961 . S
H2792 C2776 0.931 . S
H2793 C2781 0.930 . S
H2794 C2782 0.956 . S
H2795 C2782 0.961 1_545 S
H2796 C2782 0.961 . S
H2797 C2783 0.958 . S
H2798 C2783 0.961 . S
H2799 C2783 0.960 . S
C2800 C2801 1.391 . S
C2800 C2802 1.394 . S
C2800 H2816 0.931 . S
C2801 C2800 1.391 . S
C2801 C2805 1.376 . S
C2802 C2800 1.394 . S
C2802 C2803 1.369 . S
C2802 C2806 1.531 . S
C2803 C2802 1.369 . S
C2803 C2804 1.410 . S
C2803 C2811 1.503 . S
C2804 C2803 1.410 . S
C2804 C2805 1.392 . S
C2804 C2807 1.511 . S
C2805 C2801 1.376 . S
C2805 C2804 1.392 . S
C2805 H2817 0.929 . S
C2806 C2802 1.531 . S
C2806 H2818 0.960 . S
C2806 H2819 0.962 . S
C2806 H2820 0.960 . S
C2807 C2804 1.511 . S
C2807 H2821 0.961 . S
C2807 H2822 0.961 . S
C2807 H2823 0.961 . S
C2808 C2809 1.370 . S
C2808 C2810 1.363 . S
C2808 H2824 0.931 . S
C2809 C2808 1.370 . S
C2809 C2813 1.408 . S
C2810 C2808 1.363 . S
C2810 C2811 1.370 . S
C2810 C2814 1.524 . S
C2811 C2803 1.503 . S
C2811 C2810 1.370 . S
C2811 C2812 1.403 . S
C2812 C2811 1.403 . S
C2812 C2813 1.404 . S
C2812 C2815 1.539 . S
C2813 C2809 1.408 . S
C2813 C2812 1.404 . S
C2813 H2825 0.930 . S
C2814 C2810 1.524 . S
C2814 H2826 0.956 . S
C2814 H2827 0.961 . S
C2814 H2828 0.961 . S
C2815 C2812 1.539 . S
C2815 H2829 0.958 . S
C2815 H2830 0.961 . S
C2815 H2831 0.960 . S
H2816 C2800 0.931 . S
H2817 C2805 0.929 . S
H2818 C2806 0.960 . S
H2819 C2806 0.962 . S
H2820 C2806 0.960 . S
H2821 C2807 0.961 . S
H2822 C2807 0.961 . S
H2823 C2807 0.961 . S
H2824 C2808 0.931 . S
H2825 C2813 0.930 . S
H2826 C2814 0.956 . S
H2827 C2814 0.961 . S
H2828 C2814 0.961 . S
H2829 C2815 0.958 . S
H2830 C2815 0.961 . S
H2831 C2815 0.960 . S
C2832 C2833 1.391 . S
C2832 C2834 1.394 . S
C2832 H2848 0.931 . S
C2833 C2832 1.391 . S
C2833 C2837 1.368 1_565 S
C2834 C2832 1.394 . S
C2834 C2835 1.369 1_565 S
C2834 C2838 1.531 . S
C2835 C2834 1.369 1_545 S
C2835 C2836 1.410 . S
C2835 C2843 1.503 . S
C2836 C2835 1.410 . S
C2836 C2837 1.400 . S
C2836 C2839 1.511 . S
C2837 C2833 1.368 1_545 S
C2837 C2836 1.400 . S
C2837 H2849 0.929 . S
C2838 C2834 1.531 . S
C2838 H2850 0.960 . S
C2838 H2851 0.962 1_565 S
C2838 H2852 0.960 . S
C2839 C2836 1.511 . S
C2839 H2853 0.961 . S
C2839 H2854 0.961 . S
C2839 H2855 0.961 1_545 S
C2840 C2841 1.370 . S
C2840 C2842 1.363 . S
C2840 H2856 0.931 . S
C2841 C2840 1.370 . S
C2841 C2845 1.408 1_545 S
C2842 C2840 1.363 . S
C2842 C2843 1.370 . S
C2842 C2846 1.524 . S
C2843 C2835 1.503 . S
C2843 C2842 1.370 . S
C2843 C2844 1.403 1_545 S
C2844 C2843 1.403 1_565 S
C2844 C2845 1.404 . S
C2844 C2847 1.539 . S
C2845 C2841 1.408 1_565 S
C2845 C2844 1.404 . S
C2845 H2857 0.930 . S
C2846 C2842 1.524 . S
C2846 H2858 0.956 . S
C2846 H2859 0.961 . S
C2846 H2860 0.961 . S
C2847 C2844 1.539 . S
C2847 H2861 0.958 . S
C2847 H2862 0.961 . S
C2847 H2863 0.960 . S
H2848 C2832 0.931 . S
H2849 C2837 0.929 . S
H2850 C2838 0.960 . S
H2851 C2838 0.962 1_545 S
H2852 C2838 0.960 . S
H2853 C2839 0.961 . S
H2854 C2839 0.961 . S
H2855 C2839 0.961 1_565 S
H2856 C2840 0.931 . S
H2857 C2845 0.930 . S
H2858 C2846 0.956 . S
H2859 C2846 0.961 . S
H2860 C2846 0.961 . S
H2861 C2847 0.958 . S
H2862 C2847 0.961 . S
H2863 C2847 0.960 . S
C2864 C2865 1.391 . S
C2864 C2866 1.394 . S
C2864 H2880 0.931 . S
C2865 C2864 1.391 . S
C2865 C2869 1.376 . S
C2866 C2864 1.394 . S
C2866 C2867 1.369 . S
C2866 C2870 1.531 . S
C2867 C2866 1.369 . S
C2867 C2868 1.410 . S
C2867 C2875 1.503 . S
C2868 C2867 1.410 . S
C2868 C2869 1.392 . S
C2868 C2871 1.511 . S
C2869 C2865 1.376 . S
C2869 C2868 1.392 . S
C2869 H2881 0.929 . S
C2870 C2866 1.531 . S
C2870 H2882 0.960 . S
C2870 H2883 0.962 . S
C2870 H2884 0.960 . S
C2871 C2868 1.511 . S
C2871 H2885 0.961 . S
C2871 H2886 0.961 . S
C2871 H2887 0.961 . S
C2872 C2873 1.370 . S
C2872 C2874 1.363 . S
C2872 H2888 0.931 . S
C2873 C2872 1.370 . S
C2873 C2877 1.408 . S
C2874 C2872 1.363 . S
C2874 C2875 1.370 . S
C2874 C2878 1.524 . S
C2875 C2867 1.503 . S
C2875 C2874 1.370 . S
C2875 C2876 1.403 . S
C2876 C2875 1.403 . S
C2876 C2877 1.404 . S
C2876 C2879 1.539 . S
C2877 C2873 1.408 . S
C2877 C2876 1.404 . S
C2877 H2889 0.930 . S
C2878 C2874 1.524 . S
C2878 H2890 0.956 . S
C2878 H2891 0.961 . S
C2878 H2892 0.961 . S
C2879 C2876 1.539 . S
C2879 H2893 0.958 . S
C2879 H2894 0.961 . S
C2879 H2895 0.960 . S
H2880 C2864 0.931 . S
H2881 C2869 0.929 . S
H2882 C2870 0.960 . S
H2883 C2870 0.962 . S
H2884 C2870 0.960 . S
H2885 C2871 0.961 . S
H2886 C2871 0.961 . S
H2887 C2871 0.961 . S
H2888 C2872 0.931 . S
H2889 C2877 0.930 . S
H2890 C2878 0.956 . S
H2891 C2878 0.961 . S
H2892 C2878 0.961 . S
H2893 C2879 0.958 . S
H2894 C2879 0.961 . S
H2895 C2879 0.960 . S
C2896 C2897 1.391 . S
C2896 C2898 1.394 . S
C2896 H2912 0.931 . S
C2897 C2896 1.391 . S
C2897 C2901 1.376 . S
C2898 C2896 1.394 . S
C2898 C2899 1.369 . S
C2898 C2902 1.531 . S
C2899 C2898 1.369 . S
C2899 C2900 1.410 . S
C2899 C2907 1.503 . S
C2900 C2899 1.410 . S
C2900 C2901 1.392 . S
C2900 C2903 1.511 . S
C2901 C2897 1.376 . S
C2901 C2900 1.392 . S
C2901 H2913 0.929 . S
C2902 C2898 1.531 . S
C2902 H2914 0.960 . S
C2902 H2915 0.962 1_545 S
C2902 H2916 0.960 . S
C2903 C2900 1.511 . S
C2903 H2917 0.961 . S
C2903 H2918 0.961 . S
C2903 H2919 0.961 . S
C2904 C2905 1.329 1_565 S
C2904 C2906 1.365 . S
C2904 H2920 0.972 . S
C2905 C2904 1.329 1_545 S
C2905 C2909 1.408 . S
C2906 C2904 1.365 . S
C2906 C2907 1.358 1_565 S
C2906 C2910 1.537 . S
C2907 C2899 1.503 . S
C2907 C2906 1.358 1_545 S
C2907 C2908 1.403 . S
C2908 C2907 1.403 . S
C2908 C2909 1.404 . S
C2908 C2911 1.539 . S
C2909 C2905 1.408 . S
C2909 C2908 1.404 . S
C2909 H2921 0.930 . S
C2910 C2906 1.537 . S
C2910 H2922 0.956 . S
C2910 H2923 0.961 . S
C2910 H2924 0.961 . S
C2911 C2908 1.539 . S
C2911 H2925 0.958 . S
C2911 H2926 0.961 . S
C2911 H2927 0.960 . S
H2912 C2896 0.931 . S
H2913 C2901 0.929 . S
H2914 C2902 0.960 . S
H2915 C2902 0.962 1_565 S
H2916 C2902 0.960 . S
H2917 C2903 0.961 . S
H2918 C2903 0.961 . S
H2919 C2903 0.961 . S
H2920 C2904 0.972 . S
H2921 C2909 0.930 . S
H2922 C2910 0.956 . S
H2923 C2910 0.961 . S
H2924 C2910 0.961 . S
H2925 C2911 0.958 . S
H2926 C2911 0.961 . S
H2927 C2911 0.960 . S
C2928 C2929 1.391 . S
C2928 C2930 1.394 . S
C2928 H2944 0.931 . S
C2929 C2928 1.391 . S
C2929 C2933 1.376 . S
C2930 C2928 1.394 . S
C2930 C2931 1.369 . S
C2930 C2934 1.531 . S
C2931 C2930 1.369 . S
C2931 C2932 1.410 . S
C2931 C2939 1.503 . S
C2932 C2931 1.410 . S
C2932 C2933 1.392 . S
C2932 C2935 1.511 . S
C2933 C2929 1.376 . S
C2933 C2932 1.392 . S
C2933 H2945 0.929 . S
C2934 C2930 1.531 . S
C2934 H2946 0.960 . S
C2934 H2947 0.962 . S
C2934 H2948 0.960 . S
C2935 C2932 1.511 . S
C2935 H2949 0.961 . S
C2935 H2950 0.961 . S
C2935 H2951 0.961 . S
C2936 C2937 1.370 . S
C2936 C2938 1.363 . S
C2936 H2952 0.931 . S
C2937 C2936 1.370 . S
C2937 C2941 1.408 . S
C2938 C2936 1.363 . S
C2938 C2939 1.370 . S
C2938 C2942 1.524 . S
C2939 C2931 1.503 . S
C2939 C2938 1.370 . S
C2939 C2940 1.403 . S
C2940 C2939 1.403 . S
C2940 C2941 1.404 . S
C2940 C2943 1.539 . S
C2941 C2937 1.408 . S
C2941 C2940 1.404 . S
C2941 H2953 0.930 . S
C2942 C2938 1.524 . S
C2942 H2954 0.956 . S
C2942 H2955 0.961 . S
C2942 H2956 0.961 . S
C2943 C2940 1.539 . S
C2943 H2957 0.958 . S
C2943 H2958 0.961 . S
C2943 H2959 0.960 . S
H2944 C2928 0.931 . S
H2945 C2933 0.929 . S
H2946 C2934 0.960 . S
H2947 C2934 0.962 . S
H2948 C2934 0.960 . S
H2949 C2935 0.961 . S
H2950 C2935 0.961 . S
H2951 C2935 0.961 . S
H2952 C2936 0.931 . S
H2953 C2941 0.930 . S
H2954 C2942 0.956 . S
H2955 C2942 0.961 . S
H2956 C2942 0.961 . S
H2957 C2943 0.958 . S
H2958 C2943 0.961 . S
H2959 C2943 0.960 . S
C2960 C2961 1.391 . S
C2960 C2962 1.394 . S
C2960 H2976 0.931 . S
C2961 C2960 1.391 . S
C2961 C2965 1.376 . S
C2962 C2960 1.394 . S
C2962 C2963 1.369 . S
C2962 C2966 1.531 . S
C2963 C2962 1.369 . S
C2963 C2964 1.410 . S
C2963 C2971 1.503 . S
C2964 C2963 1.410 . S
C2964 C2965 1.392 . S
C2964 C2967 1.511 1_554 S
C2965 C2961 1.376 . S
C2965 C2964 1.392 . S
C2965 H2977 0.929 . S
C2966 C2962 1.531 . S
C2966 H2978 0.960 . S
C2966 H2979 0.962 . S
C2966 H2980 0.960 . S
C2967 C2964 1.511 1_556 S
C2967 H2981 0.961 . S
C2967 H2982 0.961 . S
C2967 H2983 0.961 . S
C2968 C2969 1.370 . S
C2968 C2970 1.363 . S
C2968 H2984 0.931 . S
C2969 C2968 1.370 . S
C2969 C2973 1.408 1_554 S
C2970 C2968 1.363 . S
C2970 C2971 1.370 . S
C2970 C2974 1.524 . S
C2971 C2963 1.503 . S
C2971 C2970 1.370 . S
C2971 C2972 1.403 1_554 S
C2972 C2971 1.403 1_556 S
C2972 C2973 1.404 . S
C2972 C2975 1.539 . S
C2973 C2969 1.408 1_556 S
C2973 C2972 1.404 . S
C2973 H2985 0.930 . S
C2974 C2970 1.524 . S
C2974 H2986 0.956 . S
C2974 H2987 0.961 . S
C2974 H2988 0.961 . S
C2975 C2972 1.539 . S
C2975 H2989 0.958 . S
C2975 H2990 0.961 . S
C2975 H2991 0.960 . S
H2976 C2960 0.931 . S
H2977 C2965 0.929 . S
H2978 C2966 0.960 . S
H2979 C2966 0.962 . S
H2980 C2966 0.960 . S
H2981 C2967 0.961 . S
H2982 C2967 0.961 . S
H2983 C2967 0.961 . S
H2984 C2968 0.931 . S
H2985 C2973 0.930 . S
H2986 C2974 0.956 . S
H2987 C2974 0.961 . S
H2988 C2974 0.961 . S
H2989 C2975 0.958 . S
H2990 C2975 0.961 . S
H2991 C2975 0.960 . S
C2992 C2993 1.391 . S
C2992 C2994 1.394 . S
C2992 H3008 0.931 . S
C2993 C2992 1.391 . S
C2993 C2997 1.376 . S
C2994 C2992 1.394 . S
C2994 C2995 1.369 . S
C2994 C2998 1.531 . S
C2995 C2994 1.369 . S
C2995 C2996 1.410 . S
C2995 C3003 1.503 . S
C2996 C2995 1.410 . S
C2996 C2997 1.392 . S
C2996 C2999 1.511 . S
C2997 C2993 1.376 . S
C2997 C2996 1.392 . S
C2997 H3009 0.929 . S
C2998 C2994 1.531 . S
C2998 H3010 0.960 . S
C2998 H3011 0.962 . S
C2998 H3012 0.960 . S
C2999 C2996 1.511 . S
C2999 H3013 0.961 . S
C2999 H3014 0.961 . S
C2999 H3015 0.961 . S
C3000 C3001 1.370 . S
C3000 C3002 1.363 . S
C3000 H3016 0.931 . S
C3001 C3000 1.370 . S
C3001 C3005 1.408 . S
C3002 C3000 1.363 . S
C3002 C3003 1.370 . S
C3002 C3006 1.524 1_554 S
C3003 C2995 1.503 . S
C3003 C3002 1.370 . S
C3003 C3004 1.403 . S
C3004 C3003 1.403 . S
C3004 C3005 1.404 . S
C3004 C3007 1.539 . S
C3005 C3001 1.408 . S
C3005 C3004 1.404 . S
C3005 H3017 0.930 . S
C3006 C3002 1.524 1_556 S
C3006 H3018 0.956 . S
C3006 H3019 0.961 1_556 S
C3006 H3020 0.961 . S
C3007 C3004 1.539 . S
C3007 H3021 0.958 . S
C3007 H3022 0.961 . S
C3007 H3023 0.960 . S
H3008 C2992 0.931 . S
H3009 C2997 0.929 . S
H3010 C2998 0.960 . S
H3011 C2998 0.962 . S
H3012 C2998 0.960 . S
H3013 C2999 0.961 . S
H3014 C2999 0.961 . S
H3015 C2999 0.961 . S
H3016 C3000 0.931 . S
H3017 C3005 0.930 . S
H3018 C3006 0.956 . S
H3019 C3006 0.961 1_554 S
H3020 C3006 0.961 . S
H3021 C3007 0.958 . S
H3022 C3007 0.961 . S
H3023 C3007 0.960 . S
C3024 C3025 1.391 . S
C3024 C3026 1.394 . S
C3024 H3040 0.931 . S
C3025 C3024 1.391 . S
C3025 C3029 1.376 . S
C3026 C3024 1.394 . S
C3026 C3027 1.369 . S
C3026 C3030 1.531 . S
C3027 C3026 1.369 . S
C3027 C3028 1.410 . S
C3027 C3035 1.503 . S
C3028 C3027 1.410 . S
C3028 C3029 1.392 . S
C3028 C3031 1.511 . S
C3029 C3025 1.376 . S
C3029 C3028 1.392 . S
C3029 H3041 0.929 . S
C3030 C3026 1.531 . S
C3030 H3042 0.960 . S
C3030 H3043 0.962 . S
C3030 H3044 0.960 . S
C3031 C3028 1.511 . S
C3031 H3045 0.961 . S
C3031 H3046 0.961 . S
C3031 H3047 0.961 . S
C3032 C3033 1.370 . S
C3032 C3034 1.363 . S
C3032 H3048 0.931 . S
C3033 C3032 1.370 . S
C3033 C3037 1.408 . S
C3034 C3032 1.363 . S
C3034 C3035 1.370 . S
C3034 C3038 1.524 . S
C3035 C3027 1.503 . S
C3035 C3034 1.370 . S
C3035 C3036 1.403 . S
C3036 C3035 1.403 . S
C3036 C3037 1.404 . S
C3036 C3039 1.539 . S
C3037 C3033 1.408 . S
C3037 C3036 1.404 . S
C3037 H3049 0.930 . S
C3038 C3034 1.524 . S
C3038 H3050 0.956 . S
C3038 H3051 0.961 . S
C3038 H3052 0.961 . S
C3039 C3036 1.539 . S
C3039 H3053 0.958 . S
C3039 H3054 0.961 . S
C3039 H3055 0.960 . S
H3040 C3024 0.931 . S
H3041 C3029 0.929 . S
H3042 C3030 0.960 . S
H3043 C3030 0.962 . S
H3044 C3030 0.960 . S
H3045 C3031 0.961 . S
H3046 C3031 0.961 . S
H3047 C3031 0.961 . S
H3048 C3032 0.931 . S
H3049 C3037 0.930 . S
H3050 C3038 0.956 . S
H3051 C3038 0.961 . S
H3052 C3038 0.961 . S
H3053 C3039 0.958 . S
H3054 C3039 0.961 . S
H3055 C3039 0.960 . S
C3056 C3057 1.391 . S
C3056 C3058 1.394 . S
C3056 H3072 0.931 . S
C3057 C3056 1.391 . S
C3057 C3061 1.376 . S
C3058 C3056 1.394 . S
C3058 C3059 1.369 . S
C3058 C3062 1.531 . S
C3059 C3058 1.369 . S
C3059 C3060 1.410 . S
C3059 C3067 1.503 . S
C3060 C3059 1.410 . S
C3060 C3061 1.392 . S
C3060 C3063 1.511 . S
C3061 C3057 1.376 . S
C3061 C3060 1.392 . S
C3061 H3073 0.929 . S
C3062 C3058 1.531 . S
C3062 H3074 0.960 . S
C3062 H3075 0.962 . S
C3062 H3076 0.960 . S
C3063 C3060 1.511 . S
C3063 H3077 0.961 . S
C3063 H3078 0.961 . S
C3063 H3079 0.961 . S
C3064 C3065 1.370 . S
C3064 C3066 1.363 . S
C3064 H3080 0.931 . S
C3065 C3064 1.370 . S
C3065 C3069 1.408 . S
C3066 C3064 1.363 . S
C3066 C3067 1.370 . S
C3066 C3070 1.524 . S
C3067 C3059 1.503 . S
C3067 C3066 1.370 . S
C3067 C3068 1.403 . S
C3068 C3067 1.403 . S
C3068 C3069 1.404 . S
C3068 C3071 1.539 . S
C3069 C3065 1.408 . S
C3069 C3068 1.404 . S
C3069 H3081 0.930 . S
C3070 C3066 1.524 . S
C3070 H3082 0.956 . S
C3070 H3083 0.961 . S
C3070 H3084 0.961 . S
C3071 C3068 1.539 . S
C3071 H3085 0.958 . S
C3071 H3086 0.961 . S
C3071 H3087 0.960 . S
H3072 C3056 0.931 . S
H3073 C3061 0.929 . S
H3074 C3062 0.960 . S
H3075 C3062 0.962 . S
H3076 C3062 0.960 . S
H3077 C3063 0.961 . S
H3078 C3063 0.961 . S
H3079 C3063 0.961 . S
H3080 C3064 0.931 . S
H3081 C3069 0.930 . S
H3082 C3070 0.956 . S
H3083 C3070 0.961 . S
H3084 C3070 0.961 . S
H3085 C3071 0.958 . S
H3086 C3071 0.961 . S
H3087 C3071 0.960 . S
C3088 C3089 1.391 1_545 S
C3088 C3090 1.394 1_545 S
C3088 H3104 0.931 . S
C3089 C3088 1.391 1_565 S
C3089 C3093 1.376 . S
C3090 C3088 1.394 1_565 S
C3090 C3091 1.369 . S
C3090 C3094 1.537 . S
C3091 C3090 1.369 . S
C3091 C3092 1.410 . S
C3091 C3099 1.503 . S
C3092 C3091 1.410 . S
C3092 C3093 1.392 . S
C3092 C3095 1.511 . S
C3093 C3089 1.376 . S
C3093 C3092 1.392 . S
C3093 H3105 0.929 . S
C3094 C3090 1.537 . S
C3094 H3106 0.991 . S
C3094 H3107 0.970 . S
C3094 H3108 0.917 1_565 S
C3095 C3092 1.511 . S
C3095 H3109 0.961 . S
C3095 H3110 0.961 . S
C3095 H3111 0.961 . S
C3096 C3097 1.370 . S
C3096 C3098 1.363 . S
C3096 H3112 0.931 . S
C3097 C3096 1.370 . S
C3097 C3101 1.408 . S
C3098 C3096 1.363 . S
C3098 C3099 1.370 . S
C3098 C3102 1.524 . S
C3099 C3091 1.503 . S
C3099 C3098 1.370 . S
C3099 C3100 1.403 . S
C3100 C3099 1.403 . S
C3100 C3101 1.404 . S
C3100 C3103 1.539 . S
C3101 C3097 1.408 . S
C3101 C3100 1.404 . S
C3101 H3113 0.930 . S
C3102 C3098 1.524 . S
C3102 H3114 0.956 . S
C3102 H3115 0.961 . S
C3102 H3116 0.961 . S
C3103 C3100 1.539 . S
C3103 H3117 0.958 . S
C3103 H3118 0.961 . S
C3103 H3119 0.960 . S
H3104 C3088 0.931 . S
H3105 C3093 0.929 . S
H3106 C3094 0.991 . S
H3107 C3094 0.970 . S
H3108 C3094 0.917 1_545 S
H3109 C3095 0.961 . S
H3110 C3095 0.961 . S
H3111 C3095 0.961 . S
H3112 C3096 0.931 . S
H3113 C3101 0.930 . S
H3114 C3102 0.956 . S
H3115 C3102 0.961 . S
H3116 C3102 0.961 . S
H3117 C3103 0.958 . S
H3118 C3103 0.961 . S
H3119 C3103 0.960 . S
C3120 C3121 1.391 . S
C3120 C3122 1.394 . S
C3120 H3136 0.931 . S
C3121 C3120 1.391 . S
C3121 C3125 1.376 . S
C3122 C3120 1.394 . S
C3122 C3123 1.369 . S
C3122 C3126 1.531 . S
C3123 C3122 1.369 . S
C3123 C3124 1.410 . S
C3123 C3131 1.503 . S
C3124 C3123 1.410 . S
C3124 C3125 1.392 . S
C3124 C3127 1.511 . S
C3125 C3121 1.376 . S
C3125 C3124 1.392 . S
C3125 H3137 0.929 . S
C3126 C3122 1.531 . S
C3126 H3138 0.960 . S
C3126 H3139 0.962 . S
C3126 H3140 0.960 . S
C3127 C3124 1.511 . S
C3127 H3141 0.961 . S
C3127 H3142 0.961 . S
C3127 H3143 0.961 . S
C3128 C3129 1.370 . S
C3128 C3130 1.363 . S
C3128 H3144 0.931 . S
C3129 C3128 1.370 . S
C3129 C3133 1.408 . S
C3130 C3128 1.363 . S
C3130 C3131 1.370 . S
C3130 C3134 1.524 . S
C3131 C3123 1.503 . S
C3131 C3130 1.370 . S
C3131 C3132 1.403 . S
C3132 C3131 1.403 . S
C3132 C3133 1.404 . S
C3132 C3135 1.539 . S
C3133 C3129 1.408 . S
C3133 C3132 1.404 . S
C3133 H3145 0.930 . S
C3134 C3130 1.524 . S
C3134 H3146 0.956 . S
C3134 H3147 0.961 . S
C3134 H3148 0.961 . S
C3135 C3132 1.539 . S
C3135 H3149 0.958 . S
C3135 H3150 0.961 . S
C3135 H3151 0.960 . S
H3136 C3120 0.931 . S
H3137 C3125 0.929 . S
H3138 C3126 0.960 . S
H3139 C3126 0.962 . S
H3140 C3126 0.960 . S
H3141 C3127 0.961 . S
H3142 C3127 0.961 . S
H3143 C3127 0.961 . S
H3144 C3128 0.931 . S
H3145 C3133 0.930 . S
H3146 C3134 0.956 . S
H3147 C3134 0.961 . S
H3148 C3134 0.961 . S
H3149 C3135 0.958 . S
H3150 C3135 0.961 . S
H3151 C3135 0.960 . S
C3152 C3153 1.391 . S
C3152 C3154 1.394 . S
C3152 H3168 0.931 . S
C3153 C3152 1.391 . S
C3153 C3157 1.376 . S
C3154 C3152 1.394 . S
C3154 C3155 1.369 . S
C3154 C3158 1.531 . S
C3155 C3154 1.369 . S
C3155 C3156 1.410 . S
C3155 C3163 1.503 . S
C3156 C3155 1.410 . S
C3156 C3157 1.392 . S
C3156 C3159 1.511 . S
C3157 C3153 1.376 . S
C3157 C3156 1.392 . S
C3157 H3169 0.929 . S
C3158 C3154 1.531 . S
C3158 H3170 0.960 . S
C3158 H3171 0.962 . S
C3158 H3172 0.960 . S
C3159 C3156 1.511 . S
C3159 H3173 0.961 . S
C3159 H3174 0.961 . S
C3159 H3175 0.961 . S
C3160 C3161 1.370 . S
C3160 C3162 1.363 . S
C3160 H3176 0.931 . S
C3161 C3160 1.370 . S
C3161 C3165 1.408 . S
C3162 C3160 1.363 . S
C3162 C3163 1.370 . S
C3162 C3166 1.524 . S
C3163 C3155 1.503 . S
C3163 C3162 1.370 . S
C3163 C3164 1.403 . S
C3164 C3163 1.403 . S
C3164 C3165 1.404 . S
C3164 C3167 1.539 . S
C3165 C3161 1.408 . S
C3165 C3164 1.404 . S
C3165 H3177 0.930 . S
C3166 C3162 1.524 . S
C3166 H3178 0.956 . S
C3166 H3179 0.961 . S
C3166 H3180 0.961 . S
C3167 C3164 1.539 . S
C3167 H3181 0.958 . S
C3167 H3182 0.961 . S
C3167 H3183 0.960 . S
H3168 C3152 0.931 . S
H3169 C3157 0.929 . S
H3170 C3158 0.960 . S
H3171 C3158 0.962 . S
H3172 C3158 0.960 . S
H3173 C3159 0.961 . S
H3174 C3159 0.961 . S
H3175 C3159 0.961 . S
H3176 C3160 0.931 . S
H3177 C3165 0.930 . S
H3178 C3166 0.956 . S
H3179 C3166 0.961 . S
H3180 C3166 0.961 . S
H3181 C3167 0.958 . S
H3182 C3167 0.961 . S
H3183 C3167 0.960 . S
C3184 C3185 1.391 . S
C3184 C3186 1.394 . S
C3184 H3200 0.931 . S
C3185 C3184 1.391 . S
C3185 C3189 1.376 . S
C3186 C3184 1.394 . S
C3186 C3187 1.369 . S
C3186 C3190 1.531 . S
C3187 C3186 1.369 . S
C3187 C3188 1.410 . S
C3187 C3195 1.503 . S
C3188 C3187 1.410 . S
C3188 C3189 1.392 . S
C3188 C3191 1.511 . S
C3189 C3185 1.376 . S
C3189 C3188 1.392 . S
C3189 H3201 0.929 . S
C3190 C3186 1.531 . S
C3190 H3202 0.960 . S
C3190 H3203 0.962 . S
C3190 H3204 0.960 . S
C3191 C3188 1.511 . S
C3191 H3205 0.961 . S
C3191 H3206 0.961 . S
C3191 H3207 0.961 . S
C3192 C3193 1.370 . S
C3192 C3194 1.363 . S
C3192 H3208 0.931 . S
C3193 C3192 1.370 . S
C3193 C3197 1.408 . S
C3194 C3192 1.363 . S
C3194 C3195 1.370 . S
C3194 C3198 1.524 . S
C3195 C3187 1.503 . S
C3195 C3194 1.370 . S
C3195 C3196 1.403 . S
C3196 C3195 1.403 . S
C3196 C3197 1.404 . S
C3196 C3199 1.539 . S
C3197 C3193 1.408 . S
C3197 C3196 1.404 . S
C3197 H3209 0.930 . S
C3198 C3194 1.524 . S
C3198 H3210 0.956 . S
C3198 H3211 0.961 . S
C3198 H3212 0.961 . S
C3199 C3196 1.539 . S
C3199 H3213 0.958 . S
C3199 H3214 0.961 . S
C3199 H3215 0.960 . S
H3200 C3184 0.931 . S
H3201 C3189 0.929 . S
H3202 C3190 0.960 . S
H3203 C3190 0.962 . S
H3204 C3190 0.960 . S
H3205 C3191 0.961 . S
H3206 C3191 0.961 . S
H3207 C3191 0.961 . S
H3208 C3192 0.931 . S
H3209 C3197 0.930 . S
H3210 C3198 0.956 . S
H3211 C3198 0.961 . S
H3212 C3198 0.961 . S
H3213 C3199 0.958 . S
H3214 C3199 0.961 . S
H3215 C3199 0.960 . S
C3216 C3217 1.391 . S
C3216 C3218 1.394 . S
C3216 H3232 0.931 . S
C3217 C3216 1.391 . S
C3217 C3221 1.376 . S
C3218 C3216 1.394 . S
C3218 C3219 1.369 . S
C3218 C3222 1.531 . S
C3219 C3218 1.369 . S
C3219 C3220 1.410 . S
C3219 C3227 1.503 . S
C3220 C3219 1.410 . S
C3220 C3221 1.392 . S
C3220 C3223 1.511 . S
C3221 C3217 1.376 . S
C3221 C3220 1.392 . S
C3221 H3233 0.929 . S
C3222 C3218 1.531 . S
C3222 H3234 0.960 . S
C3222 H3235 0.962 . S
C3222 H3236 0.960 . S
C3223 C3220 1.511 . S
C3223 H3237 0.961 . S
C3223 H3238 0.961 . S
C3223 H3239 0.961 . S
C3224 C3225 1.370 . S
C3224 C3226 1.363 . S
C3224 H3240 0.931 . S
C3225 C3224 1.370 . S
C3225 C3229 1.408 . S
C3226 C3224 1.363 . S
C3226 C3227 1.370 . S
C3226 C3230 1.524 . S
C3227 C3219 1.503 . S
C3227 C3226 1.370 . S
C3227 C3228 1.403 . S
C3228 C3227 1.403 . S
C3228 C3229 1.404 . S
C3228 C3231 1.539 . S
C3229 C3225 1.408 . S
C3229 C3228 1.404 . S
C3229 H3241 0.930 . S
C3230 C3226 1.524 . S
C3230 H3242 0.956 . S
C3230 H3243 0.961 . S
C3230 H3244 0.961 . S
C3231 C3228 1.539 . S
C3231 H3245 0.958 . S
C3231 H3246 0.961 . S
C3231 H3247 0.960 . S
H3232 C3216 0.931 . S
H3233 C3221 0.929 . S
H3234 C3222 0.960 . S
H3235 C3222 0.962 . S
H3236 C3222 0.960 . S
H3237 C3223 0.961 . S
H3238 C3223 0.961 . S
H3239 C3223 0.961 . S
H3240 C3224 0.931 . S
H3241 C3229 0.930 . S
H3242 C3230 0.956 . S
H3243 C3230 0.961 . S
H3244 C3230 0.961 . S
H3245 C3231 0.958 . S
H3246 C3231 0.961 . S
H3247 C3231 0.960 . S
C3248 C3249 1.391 . S
C3248 C3250 1.394 . S
C3248 H3264 0.931 . S
C3249 C3248 1.391 . S
C3249 C3253 1.376 . S
C3250 C3248 1.394 . S
C3250 C3251 1.369 . S
C3250 C3254 1.531 . S
C3251 C3250 1.369 . S
C3251 C3252 1.410 . S
C3251 C3259 1.503 . S
C3252 C3251 1.410 . S
C3252 C3253 1.392 . S
C3252 C3255 1.511 . S
C3253 C3249 1.376 . S
C3253 C3252 1.392 . S
C3253 H3265 0.929 . S
C3254 C3250 1.531 . S
C3254 H3266 0.960 . S
C3254 H3267 0.962 . S
C3254 H3268 0.960 . S
C3255 C3252 1.511 . S
C3255 H3269 0.961 . S
C3255 H3270 0.961 . S
C3255 H3271 0.961 . S
C3256 C3257 1.370 . S
C3256 C3258 1.363 . S
C3256 H3272 0.931 . S
C3257 C3256 1.370 . S
C3257 C3261 1.408 . S
C3258 C3256 1.363 . S
C3258 C3259 1.370 . S
C3258 C3262 1.524 . S
C3259 C3251 1.503 . S
C3259 C3258 1.370 . S
C3259 C3260 1.403 . S
C3260 C3259 1.403 . S
C3260 C3261 1.404 . S
C3260 C3263 1.539 . S
C3261 C3257 1.408 . S
C3261 C3260 1.404 . S
C3261 H3273 0.930 . S
C3262 C3258 1.524 . S
C3262 H3274 0.956 . S
C3262 H3275 0.961 . S
C3262 H3276 0.961 . S
C3263 C3260 1.539 . S
C3263 H3277 0.958 . S
C3263 H3278 0.961 . S
C3263 H3279 0.960 . S
H3264 C3248 0.931 . S
H3265 C3253 0.929 . S
H3266 C3254 0.960 . S
H3267 C3254 0.962 . S
H3268 C3254 0.960 . S
H3269 C3255 0.961 . S
H3270 C3255 0.961 . S
H3271 C3255 0.961 . S
H3272 C3256 0.931 . S
H3273 C3261 0.930 . S
H3274 C3262 0.956 . S
H3275 C3262 0.961 . S
H3276 C3262 0.961 . S
H3277 C3263 0.958 . S
H3278 C3263 0.961 . S
H3279 C3263 0.960 . S
C3280 C3281 1.391 . S
C3280 C3282 1.394 . S
C3280 H3296 0.931 . S
C3281 C3280 1.391 . S
C3281 C3285 1.376 . S
C3282 C3280 1.394 . S
C3282 C3283 1.369 . S
C3282 C3286 1.531 1_556 S
C3283 C3282 1.369 . S
C3283 C3284 1.410 . S
C3283 C3291 1.503 . S
C3284 C3283 1.410 . S
C3284 C3285 1.392 . S
C3284 C3287 1.511 . S
C3285 C3281 1.376 . S
C3285 C3284 1.392 . S
C3285 H3297 0.929 . S
C3286 C3282 1.531 1_554 S
C3286 H3298 0.960 . S
C3286 H3299 0.962 1_454 S
C3286 H3300 0.960 1_455 S
C3287 C3284 1.511 . S
C3287 H3301 0.961 . S
C3287 H3302 0.961 . S
C3287 H3303 0.961 . S
C3288 C3289 1.370 1_556 S
C3288 C3290 1.363 . S
C3288 H3304 0.931 . S
C3289 C3288 1.370 1_554 S
C3289 C3293 1.408 . S
C3290 C3288 1.363 . S
C3290 C3291 1.370 . S
C3290 C3294 1.524 . S
C3291 C3283 1.503 . S
C3291 C3290 1.370 . S
C3291 C3292 1.403 1_556 S
C3292 C3291 1.403 1_554 S
C3292 C3293 1.404 . S
C3292 C3295 1.539 . S
C3293 C3289 1.408 . S
C3293 C3292 1.404 . S
C3293 H3305 0.930 . S
C3294 C3290 1.524 . S
C3294 H3306 0.956 . S
C3294 H3307 0.961 . S
C3294 H3308 0.961 . S
C3295 C3292 1.539 . S
C3295 H3309 0.958 . S
C3295 H3310 0.961 . S
C3295 H3311 0.960 . S
H3296 C3280 0.931 . S
H3297 C3285 0.929 . S
H3298 C3286 0.960 . S
H3299 C3286 0.962 1_656 S
H3300 C3286 0.960 1_655 S
H3301 C3287 0.961 . S
H3302 C3287 0.961 . S
H3303 C3287 0.961 . S
H3304 C3288 0.931 . S
H3305 C3293 0.930 . S
H3306 C3294 0.956 . S
H3307 C3294 0.961 . S
H3308 C3294 0.961 . S
H3309 C3295 0.958 . S
H3310 C3295 0.961 . S
H3311 C3295 0.960 . S
C3312 C3313 1.391 . S
C3312 C3314 1.394 1_455 S
C3312 H3328 0.931 . S
C3313 C3312 1.391 . S
C3313 C3317 1.376 . S
C3314 C3312 1.394 1_655 S
C3314 C3315 1.369 . S
C3314 C3318 1.531 . S
C3315 C3314 1.369 . S
C3315 C3316 1.410 1_655 S
C3315 C3323 1.503 . S
C3316 C3315 1.410 1_455 S
C3316 C3317 1.392 . S
C3316 C3319 1.511 . S
C3317 C3313 1.376 . S
C3317 C3316 1.392 . S
C3317 H3329 0.929 . S
C3318 C3314 1.531 . S
C3318 H3330 0.960 . S
C3318 H3331 0.962 . S
C3318 H3332 0.960 . S
C3319 C3316 1.511 . S
C3319 H3333 0.961 . S
C3319 H3334 0.961 . S
C3319 H3335 0.961 . S
C3320 C3321 1.370 . S
C3320 C3322 1.363 . S
C3320 H3336 0.931 . S
C3321 C3320 1.370 . S
C3321 C3325 1.408 . S
C3322 C3320 1.363 . S
C3322 C3323 1.370 . S
C3322 C3326 1.524 . S
C3323 C3315 1.503 . S
C3323 C3322 1.370 . S
C3323 C3324 1.403 . S
C3324 C3323 1.403 . S
C3324 C3325 1.404 . S
C3324 C3327 1.539 . S
C3325 C3321 1.408 . S
C3325 C3324 1.404 . S
C3325 H3337 0.930 . S
C3326 C3322 1.524 . S
C3326 H3338 0.956 . S
C3326 H3339 0.961 . S
C3326 H3340 0.961 . S
C3327 C3324 1.539 . S
C3327 H3341 0.958 . S
C3327 H3342 0.961 . S
C3327 H3343 0.960 1_655 S
H3328 C3312 0.931 . S
H3329 C3317 0.929 . S
H3330 C3318 0.960 . S
H3331 C3318 0.962 . S
H3332 C3318 0.960 . S
H3333 C3319 0.961 . S
H3334 C3319 0.961 . S
H3335 C3319 0.961 . S
H3336 C3320 0.931 . S
H3337 C3325 0.930 . S
H3338 C3326 0.956 . S
H3339 C3326 0.961 . S
H3340 C3326 0.961 . S
H3341 C3327 0.958 . S
H3342 C3327 0.961 . S
H3343 C3327 0.960 1_455 S
C3344 C3345 1.391 . S
C3344 C3346 1.394 . S
C3344 H3360 0.931 . S
C3345 C3344 1.391 . S
C3345 C3349 1.376 . S
C3346 C3344 1.394 . S
C3346 C3347 1.369 . S
C3346 C3350 1.531 . S
C3347 C3346 1.369 . S
C3347 C3348 1.410 . S
C3347 C3355 1.503 . S
C3348 C3347 1.410 . S
C3348 C3349 1.392 . S
C3348 C3351 1.511 . S
C3349 C3345 1.376 . S
C3349 C3348 1.392 . S
C3349 H3361 0.929 . S
C3350 C3346 1.531 . S
C3350 H3362 0.960 . S
C3350 H3363 0.962 . S
C3350 H3364 0.960 . S
C3351 C3348 1.511 . S
C3351 H3365 0.961 . S
C3351 H3366 0.961 . S
C3351 H3367 0.961 . S
C3352 C3353 1.370 . S
C3352 C3354 1.363 . S
C3352 H3368 0.931 . S
C3353 C3352 1.370 . S
C3353 C3357 1.408 . S
C3354 C3352 1.363 . S
C3354 C3355 1.370 . S
C3354 C3358 1.524 . S
C3355 C3347 1.503 . S
C3355 C3354 1.370 . S
C3355 C3356 1.403 . S
C3356 C3355 1.403 . S
C3356 C3357 1.404 . S
C3356 C3359 1.539 . S
C3357 C3353 1.408 . S
C3357 C3356 1.404 . S
C3357 H3369 0.930 . S
C3358 C3354 1.524 . S
C3358 H3370 0.956 . S
C3358 H3371 0.961 . S
C3358 H3372 0.961 . S
C3359 C3356 1.539 . S
C3359 H3373 0.958 . S
C3359 H3374 0.961 . S
C3359 H3375 0.960 . S
H3360 C3344 0.931 . S
H3361 C3349 0.929 . S
H3362 C3350 0.960 . S
H3363 C3350 0.962 . S
H3364 C3350 0.960 . S
H3365 C3351 0.961 . S
H3366 C3351 0.961 . S
H3367 C3351 0.961 . S
H3368 C3352 0.931 . S
H3369 C3357 0.930 . S
H3370 C3358 0.956 . S
H3371 C3358 0.961 . S
H3372 C3358 0.961 . S
H3373 C3359 0.958 . S
H3374 C3359 0.961 . S
H3375 C3359 0.960 . S
C3376 C3377 1.391 . S
C3376 C3378 1.394 . S
C3376 H3392 0.931 . S
C3377 C3376 1.391 . S
C3377 C3381 1.376 . S
C3378 C3376 1.394 . S
C3378 C3379 1.369 . S
C3378 C3382 1.531 . S
C3379 C3378 1.369 . S
C3379 C3380 1.410 . S
C3379 C3387 1.503 1_455 S
C3380 C3379 1.410 . S
C3380 C3381 1.392 . S
C3380 C3383 1.511 . S
C3381 C3377 1.376 . S
C3381 C3380 1.392 . S
C3381 H3393 0.929 . S
C3382 C3378 1.531 . S
C3382 H3394 0.960 . S
C3382 H3395 0.962 . S
C3382 H3396 0.960 . S
C3383 C3380 1.511 . S
C3383 H3397 0.961 . S
C3383 H3398 0.961 . S
C3383 H3399 0.961 . S
C3384 C3385 1.370 . S
C3384 C3386 1.363 . S
C3384 H3400 0.931 . S
C3385 C3384 1.370 . S
C3385 C3389 1.408 . S
C3386 C3384 1.363 . S
C3386 C3387 1.370 . S
C3386 C3390 1.524 . S
C3387 C3379 1.503 1_655 S
C3387 C3386 1.370 . S
C3387 C3388 1.403 . S
C3388 C3387 1.403 . S
C3388 C3389 1.404 . S
C3388 C3391 1.539 1_655 S
C3389 C3385 1.408 . S
C3389 C3388 1.404 . S
C3389 H3401 0.930 . S
C3390 C3386 1.524 . S
C3390 H3402 0.956 . S
C3390 H3403 0.961 . S
C3390 H3404 0.961 . S
C3391 C3388 1.539 1_455 S
C3391 H3405 0.958 . S
C3391 H3406 0.961 . S
C3391 H3407 0.960 . S
H3392 C3376 0.931 . S
H3393 C3381 0.929 . S
H3394 C3382 0.960 . S
H3395 C3382 0.962 . S
H3396 C3382 0.960 . S
H3397 C3383 0.961 . S
H3398 C3383 0.961 . S
H3399 C3383 0.961 . S
H3400 C3384 0.931 . S
H3401 C3389 0.930 . S
H3402 C3390 0.956 . S
H3403 C3390 0.961 . S
H3404 C3390 0.961 . S
H3405 C3391 0.958 . S
H3406 C3391 0.961 . S
H3407 C3391 0.960 . S
C3408 C3409 1.391 1_455 S
C3408 C3410 1.394 . S
C3408 H3424 0.931 . S
C3409 C3408 1.391 1_655 S
C3409 C3413 1.376 . S
C3410 C3408 1.394 . S
C3410 C3411 1.369 . S
C3410 C3414 1.531 . S
C3411 C3410 1.369 . S
C3411 C3412 1.410 1_455 S
C3411 C3419 1.503 . S
C3412 C3411 1.410 1_655 S
C3412 C3413 1.392 . S
C3412 C3415 1.511 . S
C3413 C3409 1.376 . S
C3413 C3412 1.392 . S
C3413 H3425 0.929 . S
C3414 C3410 1.531 . S
C3414 H3426 0.960 . S
C3414 H3427 0.962 . S
C3414 H3428 0.960 . S
C3415 C3412 1.511 . S
C3415 H3429 0.961 . S
C3415 H3430 0.961 . S
C3415 H3431 0.961 . S
C3416 C3417 1.370 . S
C3416 C3418 1.363 . S
C3416 H3432 0.931 . S
C3417 C3416 1.370 . S
C3417 C3421 1.408 . S
C3418 C3416 1.363 . S
C3418 C3419 1.370 . S
C3418 C3422 1.524 . S
C3419 C3411 1.503 . S
C3419 C3418 1.370 . S
C3419 C3420 1.403 . S
C3420 C3419 1.403 . S
C3420 C3421 1.404 . S
C3420 C3423 1.539 . S
C3421 C3417 1.408 . S
C3421 C3420 1.404 . S
C3421 H3433 0.930 . S
C3422 C3418 1.524 . S
C3422 H3434 0.956 . S
C3422 H3435 0.961 . S
C3422 H3436 0.961 . S
C3423 C3420 1.539 . S
C3423 H3437 0.958 . S
C3423 H3438 0.961 1_455 S
C3423 H3439 0.960 1_455 S
H3424 C3408 0.931 . S
H3425 C3413 0.929 . S
H3426 C3414 0.960 . S
H3427 C3414 0.962 . S
H3428 C3414 0.960 . S
H3429 C3415 0.961 . S
H3430 C3415 0.961 . S
H3431 C3415 0.961 . S
H3432 C3416 0.931 . S
H3433 C3421 0.930 . S
H3434 C3422 0.956 . S
H3435 C3422 0.961 . S
H3436 C3422 0.961 . S
H3437 C3423 0.958 . S
H3438 C3423 0.961 1_655 S
H3439 C3423 0.960 1_655 S
C3440 C3441 1.391 . S
C3440 C3442 1.394 . S
C3440 H3456 0.931 . S
C3441 C3440 1.391 . S
C3441 C3445 1.376 . S
C3442 C3440 1.394 . S
C3442 C3443 1.369 . S
C3442 C3446 1.531 . S
C3443 C3442 1.369 . S
C3443 C3444 1.410 . S
C3443 C3451 1.503 . S
C3444 C3443 1.410 . S
C3444 C3445 1.392 . S
C3444 C3447 1.511 . S
C3445 C3441 1.376 . S
C3445 C3444 1.392 . S
C3445 H3457 0.929 . S
C3446 C3442 1.531 . S
C3446 H3458 0.960 . S
C3446 H3459 0.962 . S
C3446 H3460 0.960 . S
C3447 C3444 1.511 . S
C3447 H3461 0.961 . S
C3447 H3462 0.961 . S
C3447 H3463 0.961 . S
C3448 C3449 1.370 . S
C3448 C3450 1.363 . S
C3448 H3464 0.931 . S
C3449 C3448 1.370 . S
C3449 C3453 1.408 . S
C3450 C3448 1.363 . S
C3450 C3451 1.370 . S
C3450 C3454 1.524 . S
C3451 C3443 1.503 . S
C3451 C3450 1.370 . S
C3451 C3452 1.403 . S
C3452 C3451 1.403 . S
C3452 C3453 1.404 . S
C3452 C3455 1.539 . S
C3453 C3449 1.408 . S
C3453 C3452 1.404 . S
C3453 H3465 0.930 . S
C3454 C3450 1.524 . S
C3454 H3466 0.956 . S
C3454 H3467 0.961 . S
C3454 H3468 0.961 . S
C3455 C3452 1.539 . S
C3455 H3469 0.958 . S
C3455 H3470 0.961 . S
C3455 H3471 0.960 . S
H3456 C3440 0.931 . S
H3457 C3445 0.929 . S
H3458 C3446 0.960 . S
H3459 C3446 0.962 . S
H3460 C3446 0.960 . S
H3461 C3447 0.961 . S
H3462 C3447 0.961 . S
H3463 C3447 0.961 . S
H3464 C3448 0.931 . S
H3465 C3453 0.930 . S
H3466 C3454 0.956 . S
H3467 C3454 0.961 . S
H3468 C3454 0.961 . S
H3469 C3455 0.958 . S
H3470 C3455 0.961 . S
H3471 C3455 0.960 . S
C3472 C3473 1.391 . S
C3472 C3474 1.394 . S
C3472 H3488 0.931 . S
C3473 C3472 1.391 . S
C3473 C3477 1.376 . S
C3474 C3472 1.394 . S
C3474 C3475 1.369 . S
C3474 C3478 1.531 . S
C3475 C3474 1.369 . S
C3475 C3476 1.410 . S
C3475 C3483 1.503 . S
C3476 C3475 1.410 . S
C3476 C3477 1.392 . S
C3476 C3479 1.511 . S
C3477 C3473 1.376 . S
C3477 C3476 1.392 . S
C3477 H3489 0.929 . S
C3478 C3474 1.531 . S
C3478 H3490 0.960 . S
C3478 H3491 0.962 . S
C3478 H3492 0.960 . S
C3479 C3476 1.511 . S
C3479 H3493 0.961 . S
C3479 H3494 0.961 . S
C3479 H3495 0.961 . S
C3480 C3481 1.370 . S
C3480 C3482 1.363 . S
C3480 H3496 0.931 . S
C3481 C3480 1.370 . S
C3481 C3485 1.408 . S
C3482 C3480 1.363 . S
C3482 C3483 1.370 . S
C3482 C3486 1.524 . S
C3483 C3475 1.503 . S
C3483 C3482 1.370 . S
C3483 C3484 1.403 . S
C3484 C3483 1.403 . S
C3484 C3485 1.404 . S
C3484 C3487 1.539 . S
C3485 C3481 1.408 . S
C3485 C3484 1.404 . S
C3485 H3497 0.930 . S
C3486 C3482 1.524 . S
C3486 H3498 0.956 . S
C3486 H3499 0.961 . S
C3486 H3500 0.961 . S
C3487 C3484 1.539 . S
C3487 H3501 0.958 . S
C3487 H3502 0.961 . S
C3487 H3503 0.960 . S
H3488 C3472 0.931 . S
H3489 C3477 0.929 . S
H3490 C3478 0.960 . S
H3491 C3478 0.962 . S
H3492 C3478 0.960 . S
H3493 C3479 0.961 . S
H3494 C3479 0.961 . S
H3495 C3479 0.961 . S
H3496 C3480 0.931 . S
H3497 C3485 0.930 . S
H3498 C3486 0.956 . S
H3499 C3486 0.961 . S
H3500 C3486 0.961 . S
H3501 C3487 0.958 . S
H3502 C3487 0.961 . S
H3503 C3487 0.960 . S
C3504 C3505 1.391 . S
C3504 C3506 1.394 . S
C3504 H3520 0.931 . S
C3505 C3504 1.391 . S
C3505 C3509 1.376 . S
C3506 C3504 1.394 . S
C3506 C3507 1.369 . S
C3506 C3510 1.531 . S
C3507 C3506 1.369 . S
C3507 C3508 1.410 . S
C3507 C3515 1.503 . S
C3508 C3507 1.410 . S
C3508 C3509 1.392 . S
C3508 C3511 1.511 . S
C3509 C3505 1.376 . S
C3509 C3508 1.392 . S
C3509 H3521 0.929 . S
C3510 C3506 1.531 . S
C3510 H3522 0.960 . S
C3510 H3523 0.962 . S
C3510 H3524 0.960 . S
C3511 C3508 1.511 . S
C3511 H3525 0.961 . S
C3511 H3526 0.961 . S
C3511 H3527 0.961 . S
C3512 C3513 1.370 . S
C3512 C3514 1.363 . S
C3512 H3528 0.931 . S
C3513 C3512 1.370 . S
C3513 C3517 1.408 . S
C3514 C3512 1.363 . S
C3514 C3515 1.370 . S
C3514 C3518 1.524 . S
C3515 C3507 1.503 . S
C3515 C3514 1.370 . S
C3515 C3516 1.403 . S
C3516 C3515 1.403 . S
C3516 C3517 1.404 . S
C3516 C3519 1.539 . S
C3517 C3513 1.408 . S
C3517 C3516 1.404 . S
C3517 H3529 0.930 . S
C3518 C3514 1.524 . S
C3518 H3530 0.956 . S
C3518 H3531 0.961 . S
C3518 H3532 0.961 . S
C3519 C3516 1.539 . S
C3519 H3533 0.958 . S
C3519 H3534 0.961 . S
C3519 H3535 0.960 . S
H3520 C3504 0.931 . S
H3521 C3509 0.929 . S
H3522 C3510 0.960 . S
H3523 C3510 0.962 . S
H3524 C3510 0.960 . S
H3525 C3511 0.961 . S
H3526 C3511 0.961 . S
H3527 C3511 0.961 . S
H3528 C3512 0.931 . S
H3529 C3517 0.930 . S
H3530 C3518 0.956 . S
H3531 C3518 0.961 . S
H3532 C3518 0.961 . S
H3533 C3519 0.958 . S
H3534 C3519 0.961 . S
H3535 C3519 0.960 . S
C3536 C3537 1.391 . S
C3536 C3538 1.394 . S
C3536 H3552 0.931 . S
C3537 C3536 1.391 . S
C3537 C3541 1.376 . S
C3538 C3536 1.394 . S
C3538 C3539 1.369 . S
C3538 C3542 1.531 . S
C3539 C3538 1.369 . S
C3539 C3540 1.410 . S
C3539 C3547 1.503 . S
C3540 C3539 1.410 . S
C3540 C3541 1.392 . S
C3540 C3543 1.511 . S
C3541 C3537 1.376 . S
C3541 C3540 1.392 . S
C3541 H3553 0.929 . S
C3542 C3538 1.531 . S
C3542 H3554 0.960 . S
C3542 H3555 0.962 . S
C3542 H3556 0.960 . S
C3543 C3540 1.511 . S
C3543 H3557 0.961 . S
C3543 H3558 0.961 . S
C3543 H3559 0.961 . S
C3544 C3545 1.370 . S
C3544 C3546 1.363 . S
C3544 H3560 0.931 . S
C3545 C3544 1.370 . S
C3545 C3549 1.408 . S
C3546 C3544 1.363 . S
C3546 C3547 1.370 . S
C3546 C3550 1.524 . S
C3547 C3539 1.503 . S
C3547 C3546 1.370 . S
C3547 C3548 1.403 . S
C3548 C3547 1.403 . S
C3548 C3549 1.404 . S
C3548 C3551 1.539 . S
C3549 C3545 1.408 . S
C3549 C3548 1.404 . S
C3549 H3561 0.930 . S
C3550 C3546 1.524 . S
C3550 H3562 0.956 . S
C3550 H3563 0.961 . S
C3550 H3564 0.961 . S
C3551 C3548 1.539 . S
C3551 H3565 0.958 . S
C3551 H3566 0.961 . S
C3551 H3567 0.960 . S
H3552 C3536 0.931 . S
H3553 C3541 0.929 . S
H3554 C3542 0.960 . S
H3555 C3542 0.962 . S
H3556 C3542 0.960 . S
H3557 C3543 0.961 . S
H3558 C3543 0.961 . S
H3559 C3543 0.961 . S
H3560 C3544 0.931 . S
H3561 C3549 0.930 . S
H3562 C3550 0.956 . S
H3563 C3550 0.961 . S
H3564 C3550 0.961 . S
H3565 C3551 0.958 . S
H3566 C3551 0.961 . S
H3567 C3551 0.960 . S
C3568 C3569 1.391 . S
C3568 C3570 1.394 . S
C3568 H3584 0.931 . S
C3569 C3568 1.391 . S
C3569 C3573 1.376 . S
C3570 C3568 1.394 . S
C3570 C3571 1.369 . S
C3570 C3574 1.531 . S
C3571 C3570 1.369 . S
C3571 C3572 1.410 . S
C3571 C3579 1.503 . S
C3572 C3571 1.410 . S
C3572 C3573 1.392 . S
C3572 C3575 1.511 . S
C3573 C3569 1.376 . S
C3573 C3572 1.392 . S
C3573 H3585 0.929 . S
C3574 C3570 1.531 . S
C3574 H3586 0.960 . S
C3574 H3587 0.962 . S
C3574 H3588 0.960 . S
C3575 C3572 1.511 . S
C3575 H3589 0.961 . S
C3575 H3590 0.961 . S
C3575 H3591 0.961 . S
C3576 C3577 1.370 . S
C3576 C3578 1.363 . S
C3576 H3592 0.931 . S
C3577 C3576 1.370 . S
C3577 C3581 1.408 . S
C3578 C3576 1.363 . S
C3578 C3579 1.370 . S
C3578 C3582 1.524 . S
C3579 C3571 1.503 . S
C3579 C3578 1.370 . S
C3579 C3580 1.403 . S
C3580 C3579 1.403 . S
C3580 C3581 1.404 . S
C3580 C3583 1.539 . S
C3581 C3577 1.408 . S
C3581 C3580 1.404 . S
C3581 H3593 0.930 . S
C3582 C3578 1.524 . S
C3582 H3594 0.956 . S
C3582 H3595 0.961 . S
C3582 H3596 0.961 . S
C3583 C3580 1.539 . S
C3583 H3597 0.958 . S
C3583 H3598 0.961 . S
C3583 H3599 0.960 . S
H3584 C3568 0.931 . S
H3585 C3573 0.929 . S
H3586 C3574 0.960 . S
H3587 C3574 0.962 . S
H3588 C3574 0.960 . S
H3589 C3575 0.961 . S
H3590 C3575 0.961 . S
H3591 C3575 0.961 . S
H3592 C3576 0.931 . S
H3593 C3581 0.930 . S
H3594 C3582 0.956 . S
H3595 C3582 0.961 . S
H3596 C3582 0.961 . S
H3597 C3583 0.958 . S
H3598 C3583 0.961 . S
H3599 C3583 0.960 . S
C3600 C3601 1.391 . S
C3600 C3602 1.394 . S
C3600 H3616 0.931 . S
C3601 C3600 1.391 . S
C3601 C3605 1.376 . S
C3602 C3600 1.394 . S
C3602 C3603 1.369 . S
C3602 C3606 1.531 . S
C3603 C3602 1.369 . S
C3603 C3604 1.410 . S
C3603 C3611 1.503 . S
C3604 C3603 1.410 . S
C3604 C3605 1.392 . S
C3604 C3607 1.511 . S
C3605 C3601 1.376 . S
C3605 C3604 1.392 . S
C3605 H3617 0.929 . S
C3606 C3602 1.531 . S
C3606 H3618 0.960 . S
C3606 H3619 0.962 . S
C3606 H3620 0.960 . S
C3607 C3604 1.511 . S
C3607 H3621 0.961 . S
C3607 H3622 0.961 . S
C3607 H3623 0.961 . S
C3608 C3609 1.370 . S
C3608 C3610 1.363 . S
C3608 H3624 0.931 . S
C3609 C3608 1.370 . S
C3609 C3613 1.408 . S
C3610 C3608 1.363 . S
C3610 C3611 1.370 . S
C3610 C3614 1.524 . S
C3611 C3603 1.503 . S
C3611 C3610 1.370 . S
C3611 C3612 1.403 . S
C3612 C3611 1.403 . S
C3612 C3613 1.404 . S
C3612 C3615 1.539 . S
C3613 C3609 1.408 . S
C3613 C3612 1.404 . S
C3613 H3625 0.930 . S
C3614 C3610 1.524 . S
C3614 H3626 0.956 . S
C3614 H3627 0.961 . S
C3614 H3628 0.961 . S
C3615 C3612 1.539 . S
C3615 H3629 0.958 . S
C3615 H3630 0.961 . S
C3615 H3631 0.960 . S
H3616 C3600 0.931 . S
H3617 C3605 0.929 . S
H3618 C3606 0.960 . S
H3619 C3606 0.962 . S
H3620 C3606 0.960 . S
H3621 C3607 0.961 . S
H3622 C3607 0.961 . S
H3623 C3607 0.961 . S
H3624 C3608 0.931 . S
H3625 C3613 0.930 . S
H3626 C3614 0.956 . S
H3627 C3614 0.961 . S
H3628 C3614 0.961 . S
H3629 C3615 0.958 . S
H3630 C3615 0.961 . S
H3631 C3615 0.960 . S
C3632 C3633 1.391 . S
C3632 C3634 1.394 . S
C3632 H3648 0.931 . S
C3633 C3632 1.391 . S
C3633 C3637 1.376 . S
C3634 C3632 1.394 . S
C3634 C3635 1.369 . S
C3634 C3638 1.531 . S
C3635 C3634 1.369 . S
C3635 C3636 1.410 . S
C3635 C3643 1.503 . S
C3636 C3635 1.410 . S
C3636 C3637 1.392 . S
C3636 C3639 1.511 . S
C3637 C3633 1.376 . S
C3637 C3636 1.392 . S
C3637 H3649 0.929 . S
C3638 C3634 1.531 . S
C3638 H3650 0.960 . S
C3638 H3651 0.962 . S
C3638 H3652 0.960 . S
C3639 C3636 1.511 . S
C3639 H3653 0.961 . S
C3639 H3654 0.961 . S
C3639 H3655 0.961 . S
C3640 C3641 1.370 . S
C3640 C3642 1.363 . S
C3640 H3656 0.931 . S
C3641 C3640 1.370 . S
C3641 C3645 1.408 . S
C3642 C3640 1.363 . S
C3642 C3643 1.370 . S
C3642 C3646 1.524 . S
C3643 C3635 1.503 . S
C3643 C3642 1.370 . S
C3643 C3644 1.403 . S
C3644 C3643 1.403 . S
C3644 C3645 1.404 . S
C3644 C3647 1.539 . S
C3645 C3641 1.408 . S
C3645 C3644 1.404 . S
C3645 H3657 0.930 . S
C3646 C3642 1.524 . S
C3646 H3658 0.956 . S
C3646 H3659 0.961 . S
C3646 H3660 0.961 . S
C3647 C3644 1.539 . S
C3647 H3661 0.958 . S
C3647 H3662 0.961 . S
C3647 H3663 0.960 . S
H3648 C3632 0.931 . S
H3649 C3637 0.929 . S
H3650 C3638 0.960 . S
H3651 C3638 0.962 . S
H3652 C3638 0.960 . S
H3653 C3639 0.961 . S
H3654 C3639 0.961 . S
H3655 C3639 0.961 . S
H3656 C3640 0.931 . S
H3657 C3645 0.930 . S
H3658 C3646 0.956 . S
H3659 C3646 0.961 . S
H3660 C3646 0.961 . S
H3661 C3647 0.958 . S
H3662 C3647 0.961 . S
H3663 C3647 0.960 . S
C3664 C3665 1.391 . S
C3664 C3666 1.394 . S
C3664 H3680 0.931 . S
C3665 C3664 1.391 . S
C3665 C3669 1.376 . S
C3666 C3664 1.394 . S
C3666 C3667 1.369 . S
C3666 C3670 1.531 . S
C3667 C3666 1.369 . S
C3667 C3668 1.410 . S
C3667 C3675 1.503 . S
C3668 C3667 1.410 . S
C3668 C3669 1.392 . S
C3668 C3671 1.511 . S
C3669 C3665 1.376 . S
C3669 C3668 1.392 . S
C3669 H3681 0.929 . S
C3670 C3666 1.531 . S
C3670 H3682 0.960 . S
C3670 H3683 0.962 . S
C3670 H3684 0.960 . S
C3671 C3668 1.511 . S
C3671 H3685 0.961 . S
C3671 H3686 0.961 . S
C3671 H3687 0.961 . S
C3672 C3673 1.370 . S
C3672 C3674 1.363 . S
C3672 H3688 0.931 . S
C3673 C3672 1.370 . S
C3673 C3677 1.408 . S
C3674 C3672 1.363 . S
C3674 C3675 1.370 . S
C3674 C3678 1.524 . S
C3675 C3667 1.503 . S
C3675 C3674 1.370 . S
C3675 C3676 1.403 . S
C3676 C3675 1.403 . S
C3676 C3677 1.404 . S
C3676 C3679 1.539 . S
C3677 C3673 1.408 . S
C3677 C3676 1.404 . S
C3677 H3689 0.930 . S
C3678 C3674 1.524 . S
C3678 H3690 0.956 . S
C3678 H3691 0.961 . S
C3678 H3692 0.961 . S
C3679 C3676 1.539 . S
C3679 H3693 0.958 . S
C3679 H3694 0.961 . S
C3679 H3695 0.960 . S
H3680 C3664 0.931 . S
H3681 C3669 0.929 . S
H3682 C3670 0.960 . S
H3683 C3670 0.962 . S
H3684 C3670 0.960 . S
H3685 C3671 0.961 . S
H3686 C3671 0.961 . S
H3687 C3671 0.961 . S
H3688 C3672 0.931 . S
H3689 C3677 0.930 . S
H3690 C3678 0.956 . S
H3691 C3678 0.961 . S
H3692 C3678 0.961 . S
H3693 C3679 0.958 . S
H3694 C3679 0.961 . S
H3695 C3679 0.960 . S
C3696 C3697 1.391 . S
C3696 C3698 1.394 . S
C3696 H3712 0.931 . S
C3697 C3696 1.391 . S
C3697 C3701 1.376 . S
C3698 C3696 1.394 . S
C3698 C3699 1.369 . S
C3698 C3702 1.531 . S
C3699 C3698 1.369 . S
C3699 C3700 1.410 . S
C3699 C3707 1.503 . S
C3700 C3699 1.410 . S
C3700 C3701 1.392 . S
C3700 C3703 1.511 . S
C3701 C3697 1.376 . S
C3701 C3700 1.392 . S
C3701 H3713 0.929 . S
C3702 C3698 1.531 . S
C3702 H3714 0.960 . S
C3702 H3715 0.962 . S
C3702 H3716 0.960 . S
C3703 C3700 1.511 . S
C3703 H3717 0.961 . S
C3703 H3718 0.961 . S
C3703 H3719 0.961 . S
C3704 C3705 1.370 . S
C3704 C3706 1.363 . S
C3704 H3720 0.931 . S
C3705 C3704 1.370 . S
C3705 C3709 1.408 . S
C3706 C3704 1.363 . S
C3706 C3707 1.370 . S
C3706 C3710 1.524 . S
C3707 C3699 1.503 . S
C3707 C3706 1.370 . S
C3707 C3708 1.403 . S
C3708 C3707 1.403 . S
C3708 C3709 1.404 . S
C3708 C3711 1.539 . S
C3709 C3705 1.408 . S
C3709 C3708 1.404 . S
C3709 H3721 0.930 . S
C3710 C3706 1.524 . S
C3710 H3722 0.956 . S
C3710 H3723 0.961 . S
C3710 H3724 0.961 . S
C3711 C3708 1.539 . S
C3711 H3725 0.958 . S
C3711 H3726 0.961 . S
C3711 H3727 0.960 . S
H3712 C3696 0.931 . S
H3713 C3701 0.929 . S
H3714 C3702 0.960 . S
H3715 C3702 0.962 . S
H3716 C3702 0.960 . S
H3717 C3703 0.961 . S
H3718 C3703 0.961 . S
H3719 C3703 0.961 . S
H3720 C3704 0.931 . S
H3721 C3709 0.930 . S
H3722 C3710 0.956 . S
H3723 C3710 0.961 . S
H3724 C3710 0.961 . S
H3725 C3711 0.958 . S
H3726 C3711 0.961 . S
H3727 C3711 0.960 . S
C3728 C3729 1.391 . S
C3728 C3730 1.394 . S
C3728 H3744 0.931 . S
C3729 C3728 1.391 . S
C3729 C3733 1.376 . S
C3730 C3728 1.394 . S
C3730 C3731 1.369 . S
C3730 C3734 1.531 . S
C3731 C3730 1.369 . S
C3731 C3732 1.410 . S
C3731 C3739 1.503 . S
C3732 C3731 1.410 . S
C3732 C3733 1.392 . S
C3732 C3735 1.511 . S
C3733 C3729 1.376 . S
C3733 C3732 1.392 . S
C3733 H3745 0.929 . S
C3734 C3730 1.531 . S
C3734 H3746 0.960 . S
C3734 H3747 0.962 . S
C3734 H3748 0.960 . S
C3735 C3732 1.511 . S
C3735 H3749 0.961 . S
C3735 H3750 0.961 . S
C3735 H3751 0.961 . S
C3736 C3737 1.370 . S
C3736 C3738 1.363 . S
C3736 H3752 0.931 . S
C3737 C3736 1.370 . S
C3737 C3741 1.408 . S
C3738 C3736 1.363 . S
C3738 C3739 1.370 . S
C3738 C3742 1.524 . S
C3739 C3731 1.503 . S
C3739 C3738 1.370 . S
C3739 C3740 1.403 . S
C3740 C3739 1.403 . S
C3740 C3741 1.404 . S
C3740 C3743 1.539 . S
C3741 C3737 1.408 . S
C3741 C3740 1.404 . S
C3741 H3753 0.930 . S
C3742 C3738 1.524 . S
C3742 H3754 0.956 . S
C3742 H3755 0.961 . S
C3742 H3756 0.961 . S
C3743 C3740 1.539 . S
C3743 H3757 0.958 . S
C3743 H3758 0.961 . S
C3743 H3759 0.960 . S
H3744 C3728 0.931 . S
H3745 C3733 0.929 . S
H3746 C3734 0.960 . S
H3747 C3734 0.962 . S
H3748 C3734 0.960 . S
H3749 C3735 0.961 . S
H3750 C3735 0.961 . S
H3751 C3735 0.961 . S
H3752 C3736 0.931 . S
H3753 C3741 0.930 . S
H3754 C3742 0.956 . S
H3755 C3742 0.961 . S
H3756 C3742 0.961 . S
H3757 C3743 0.958 . S
H3758 C3743 0.961 . S
H3759 C3743 0.960 . S
C3760 C3761 1.391 . S
C3760 C3762 1.394 . S
C3760 H3776 0.931 . S
C3761 C3760 1.391 . S
C3761 C3765 1.376 . S
C3762 C3760 1.394 . S
C3762 C3763 1.369 . S
C3762 C3766 1.531 . S
C3763 C3762 1.369 . S
C3763 C3764 1.410 . S
C3763 C3771 1.503 . S
C3764 C3763 1.410 . S
C3764 C3765 1.392 . S
C3764 C3767 1.511 . S
C3765 C3761 1.376 . S
C3765 C3764 1.392 . S
C3765 H3777 0.929 . S
C3766 C3762 1.531 . S
C3766 H3778 0.960 . S
C3766 H3779 0.962 . S
C3766 H3780 0.960 . S
C3767 C3764 1.511 . S
C3767 H3781 0.961 . S
C3767 H3782 0.961 . S
C3767 H3783 0.961 . S
C3768 C3769 1.370 . S
C3768 C3770 1.363 . S
C3768 H3784 0.931 . S
C3769 C3768 1.370 . S
C3769 C3773 1.408 . S
C3770 C3768 1.363 . S
C3770 C3771 1.370 . S
C3770 C3774 1.524 . S
C3771 C3763 1.503 . S
C3771 C3770 1.370 . S
C3771 C3772 1.403 . S
C3772 C3771 1.403 . S
C3772 C3773 1.404 . S
C3772 C3775 1.539 . S
C3773 C3769 1.408 . S
C3773 C3772 1.404 . S
C3773 H3785 0.930 . S
C3774 C3770 1.524 . S
C3774 H3786 0.956 . S
C3774 H3787 0.961 . S
C3774 H3788 0.961 . S
C3775 C3772 1.539 . S
C3775 H3789 0.958 . S
C3775 H3790 0.961 . S
C3775 H3791 0.960 . S
H3776 C3760 0.931 . S
H3777 C3765 0.929 . S
H3778 C3766 0.960 . S
H3779 C3766 0.962 . S
H3780 C3766 0.960 . S
H3781 C3767 0.961 . S
H3782 C3767 0.961 . S
H3783 C3767 0.961 . S
H3784 C3768 0.931 . S
H3785 C3773 0.930 . S
H3786 C3774 0.956 . S
H3787 C3774 0.961 . S
H3788 C3774 0.961 . S
H3789 C3775 0.958 . S
H3790 C3775 0.961 . S
H3791 C3775 0.960 . S
C3792 C3793 1.391 . S
C3792 C3794 1.394 . S
C3792 H3808 0.931 . S
C3793 C3792 1.391 . S
C3793 C3797 1.376 . S
C3794 C3792 1.394 . S
C3794 C3795 1.369 . S
C3794 C3798 1.531 . S
C3795 C3794 1.369 . S
C3795 C3796 1.410 . S
C3795 C3803 1.503 . S
C3796 C3795 1.410 . S
C3796 C3797 1.392 . S
C3796 C3799 1.511 . S
C3797 C3793 1.376 . S
C3797 C3796 1.392 . S
C3797 H3809 0.929 . S
C3798 C3794 1.531 . S
C3798 H3810 0.960 . S
C3798 H3811 0.962 . S
C3798 H3812 0.960 . S
C3799 C3796 1.511 . S
C3799 H3813 0.961 . S
C3799 H3814 0.961 . S
C3799 H3815 0.961 . S
C3800 C3801 1.370 . S
C3800 C3802 1.363 . S
C3800 H3816 0.931 . S
C3801 C3800 1.370 . S
C3801 C3805 1.408 . S
C3802 C3800 1.363 . S
C3802 C3803 1.370 . S
C3802 C3806 1.524 . S
C3803 C3795 1.503 . S
C3803 C3802 1.370 . S
C3803 C3804 1.403 . S
C3804 C3803 1.403 . S
C3804 C3805 1.404 . S
C3804 C3807 1.539 . S
C3805 C3801 1.408 . S
C3805 C3804 1.404 . S
C3805 H3817 0.930 . S
C3806 C3802 1.524 . S
C3806 H3818 0.956 . S
C3806 H3819 0.961 . S
C3806 H3820 0.961 . S
C3807 C3804 1.539 . S
C3807 H3821 0.958 . S
C3807 H3822 0.961 . S
C3807 H3823 0.960 . S
H3808 C3792 0.931 . S
H3809 C3797 0.929 . S
H3810 C3798 0.960 . S
H3811 C3798 0.962 . S
H3812 C3798 0.960 . S
H3813 C3799 0.961 . S
H3814 C3799 0.961 . S
H3815 C3799 0.961 . S
H3816 C3800 0.931 . S
H3817 C3805 0.930 . S
H3818 C3806 0.956 . S
H3819 C3806 0.961 . S
H3820 C3806 0.961 . S
H3821 C3807 0.958 . S
H3822 C3807 0.961 . S
H3823 C3807 0.960 . S
C3824 C3825 1.391 1_556 S
C3824 C3826 1.394 . S
C3824 H3840 0.931 . S
C3825 C3824 1.391 1_554 S
C3825 C3829 1.376 . S
C3826 C3824 1.394 . S
C3826 C3827 1.369 1_556 S
C3826 C3830 1.531 . S
C3827 C3826 1.369 1_554 S
C3827 C3828 1.410 . S
C3827 C3835 1.503 . S
C3828 C3827 1.410 . S
C3828 C3829 1.392 . S
C3828 C3831 1.511 . S
C3829 C3825 1.376 . S
C3829 C3828 1.392 . S
C3829 H3841 0.929 . S
C3830 C3826 1.531 . S
C3830 H3842 0.960 1_565 S
C3830 H3843 0.962 . S
C3830 H3844 0.960 . S
C3831 C3828 1.511 . S
C3831 H3845 0.961 . S
C3831 H3846 0.961 . S
C3831 H3847 0.961 1_565 S
C3832 C3833 1.370 1_565 S
C3832 C3834 1.363 . S
C3832 H3848 0.931 . S
C3833 C3832 1.370 1_545 S
C3833 C3837 1.408 . S
C3834 C3832 1.363 . S
C3834 C3835 1.370 . S
C3834 C3838 1.524 . S
C3835 C3827 1.503 . S
C3835 C3834 1.370 . S
C3835 C3836 1.403 1_565 S
C3836 C3835 1.403 1_545 S
C3836 C3837 1.404 . S
C3836 C3839 1.539 . S
C3837 C3833 1.408 . S
C3837 C3836 1.404 . S
C3837 H3849 0.930 . S
C3838 C3834 1.524 . S
C3838 H3850 0.956 1_554 S
C3838 H3851 0.961 . S
C3838 H3852 0.961 . S
C3839 C3836 1.539 . S
C3839 H3853 0.958 . S
C3839 H3854 0.961 . S
C3839 H3855 0.960 . S
H3840 C3824 0.931 . S
H3841 C3829 0.929 . S
H3842 C3830 0.960 1_545 S
H3843 C3830 0.962 . S
H3844 C3830 0.960 . S
H3845 C3831 0.961 . S
H3846 C3831 0.961 . S
H3847 C3831 0.961 1_545 S
H3848 C3832 0.931 . S
H3849 C3837 0.930 . S
H3850 C3838 0.956 1_556 S
H3851 C3838 0.961 . S
H3852 C3838 0.961 . S
H3853 C3839 0.958 . S
H3854 C3839 0.961 . S
H3855 C3839 0.960 . S
C3856 C3857 1.391 . S
C3856 C3858 1.394 . S
C3856 H3872 0.931 . S
C3857 C3856 1.391 . S
C3857 C3861 1.376 . S
C3858 C3856 1.394 . S
C3858 C3859 1.369 . S
C3858 C3862 1.531 . S
C3859 C3858 1.369 . S
C3859 C3860 1.410 . S
C3859 C3867 1.503 . S
C3860 C3859 1.410 . S
C3860 C3861 1.392 . S
C3860 C3863 1.511 . S
C3861 C3857 1.376 . S
C3861 C3860 1.392 . S
C3861 H3873 0.929 . S
C3862 C3858 1.531 . S
C3862 H3874 0.960 . S
C3862 H3875 0.962 . S
C3862 H3876 0.960 . S
C3863 C3860 1.511 . S
C3863 H3877 0.961 . S
C3863 H3878 0.961 . S
C3863 H3879 0.961 . S
C3864 C3865 1.370 . S
C3864 C3866 1.363 . S
C3864 H3880 0.931 . S
C3865 C3864 1.370 . S
C3865 C3869 1.408 . S
C3866 C3864 1.363 . S
C3866 C3867 1.370 . S
C3866 C3870 1.524 . S
C3867 C3859 1.503 . S
C3867 C3866 1.370 . S
C3867 C3868 1.403 . S
C3868 C3867 1.403 . S
C3868 C3869 1.404 . S
C3868 C3871 1.539 . S
C3869 C3865 1.408 . S
C3869 C3868 1.404 . S
C3869 H3881 0.930 . S
C3870 C3866 1.524 . S
C3870 H3882 0.956 . S
C3870 H3883 0.961 . S
C3870 H3884 0.961 . S
C3871 C3868 1.539 . S
C3871 H3885 0.958 . S
C3871 H3886 0.961 . S
C3871 H3887 0.960 . S
H3872 C3856 0.931 . S
H3873 C3861 0.929 . S
H3874 C3862 0.960 . S
H3875 C3862 0.962 . S
H3876 C3862 0.960 . S
H3877 C3863 0.961 . S
H3878 C3863 0.961 . S
H3879 C3863 0.961 . S
H3880 C3864 0.931 . S
H3881 C3869 0.930 . S
H3882 C3870 0.956 . S
H3883 C3870 0.961 . S
H3884 C3870 0.961 . S
H3885 C3871 0.958 . S
H3886 C3871 0.961 . S
H3887 C3871 0.960 . S
C3888 C3889 1.391 . S
C3888 C3890 1.394 . S
C3888 H3904 0.931 . S
C3889 C3888 1.391 . S
C3889 C3893 1.376 . S
C3890 C3888 1.394 . S
C3890 C3891 1.369 . S
C3890 C3894 1.531 . S
C3891 C3890 1.369 . S
C3891 C3892 1.410 . S
C3891 C3899 1.503 . S
C3892 C3891 1.410 . S
C3892 C3893 1.392 . S
C3892 C3895 1.511 . S
C3893 C3889 1.376 . S
C3893 C3892 1.392 . S
C3893 H3905 0.929 . S
C3894 C3890 1.531 . S
C3894 H3906 0.960 . S
C3894 H3907 0.962 . S
C3894 H3908 0.960 . S
C3895 C3892 1.511 . S
C3895 H3909 0.961 . S
C3895 H3910 0.961 . S
C3895 H3911 0.961 . S
C3896 C3897 1.370 . S
C3896 C3898 1.363 . S
C3896 H3912 0.931 1_554 S
C3897 C3896 1.370 . S
C3897 C3901 1.408 . S
C3898 C3896 1.363 . S
C3898 C3899 1.370 . S
C3898 C3902 1.524 1_554 S
C3899 C3891 1.503 . S
C3899 C3898 1.370 . S
C3899 C3900 1.403 . S
C3900 C3899 1.403 . S
C3900 C3901 1.404 . S
C3900 C3903 1.539 . S
C3901 C3897 1.408 . S
C3901 C3900 1.404 . S
C3901 H3913 0.930 . S
C3902 C3898 1.524 1_556 S
C3902 H3914 0.956 . S
C3902 H3915 0.961 . S
C3902 H3916 0.961 . S
C3903 C3900 1.539 . S
C3903 H3917 0.958 . S
C3903 H3918 0.961 . S
C3903 H3919 0.960 . S
H3904 C3888 0.931 . S
H3905 C3893 0.929 . S
H3906 C3894 0.960 . S
H3907 C3894 0.962 . S
H3908 C3894 0.960 . S
H3909 C3895 0.961 . S
H3910 C3895 0.961 . S
H3911 C3895 0.961 . S
H3912 C3896 0.931 1_556 S
H3913 C3901 0.930 . S
H3914 C3902 0.956 . S
H3915 C3902 0.961 . S
H3916 C3902 0.961 . S
H3917 C3903 0.958 . S
H3918 C3903 0.961 . S
H3919 C3903 0.960 . S
C3920 C3921 1.391 . S
C3920 C3922 1.394 . S
C3920 H3936 0.931 . S
C3921 C3920 1.391 . S
C3921 C3925 1.376 . S
C3922 C3920 1.394 . S
C3922 C3923 1.369 . S
C3922 C3926 1.531 . S
C3923 C3922 1.369 . S
C3923 C3924 1.410 . S
C3923 C3931 1.503 . S
C3924 C3923 1.410 . S
C3924 C3925 1.392 . S
C3924 C3927 1.511 . S
C3925 C3921 1.376 . S
C3925 C3924 1.392 . S
C3925 H3937 0.929 . S
C3926 C3922 1.531 . S
C3926 H3938 0.960 . S
C3926 H3939 0.962 . S
C3926 H3940 0.960 . S
C3927 C3924 1.511 . S
C3927 H3941 0.961 . S
C3927 H3942 0.961 . S
C3927 H3943 0.961 . S
C3928 C3929 1.370 . S
C3928 C3930 1.363 . S
C3928 H3944 0.931 . S
C3929 C3928 1.370 . S
C3929 C3933 1.408 . S
C3930 C3928 1.363 . S
C3930 C3931 1.370 . S
C3930 C3934 1.524 . S
C3931 C3923 1.503 . S
C3931 C3930 1.370 . S
C3931 C3932 1.403 . S
C3932 C3931 1.403 . S
C3932 C3933 1.404 . S
C3932 C3935 1.539 . S
C3933 C3929 1.408 . S
C3933 C3932 1.404 . S
C3933 H3945 0.930 . S
C3934 C3930 1.524 . S
C3934 H3946 0.956 . S
C3934 H3947 0.961 . S
C3934 H3948 0.961 . S
C3935 C3932 1.539 . S
C3935 H3949 0.958 . S
C3935 H3950 0.961 . S
C3935 H3951 0.960 . S
H3936 C3920 0.931 . S
H3937 C3925 0.929 . S
H3938 C3926 0.960 . S
H3939 C3926 0.962 . S
H3940 C3926 0.960 . S
H3941 C3927 0.961 . S
H3942 C3927 0.961 . S
H3943 C3927 0.961 . S
H3944 C3928 0.931 . S
H3945 C3933 0.930 . S
H3946 C3934 0.956 . S
H3947 C3934 0.961 . S
H3948 C3934 0.961 . S
H3949 C3935 0.958 . S
H3950 C3935 0.961 . S
H3951 C3935 0.960 . S
C3952 C3953 1.391 . S
C3952 C3954 1.394 . S
C3952 H3968 0.931 . S
C3953 C3952 1.391 . S
C3953 C3957 1.376 . S
C3954 C3952 1.394 . S
C3954 C3955 1.369 . S
C3954 C3958 1.531 . S
C3955 C3954 1.369 . S
C3955 C3956 1.410 . S
C3955 C3963 1.503 . S
C3956 C3955 1.410 . S
C3956 C3957 1.392 . S
C3956 C3959 1.511 . S
C3957 C3953 1.376 . S
C3957 C3956 1.392 . S
C3957 H3969 0.929 . S
C3958 C3954 1.531 . S
C3958 H3970 0.960 . S
C3958 H3971 0.962 . S
C3958 H3972 0.960 . S
C3959 C3956 1.511 . S
C3959 H3973 0.961 . S
C3959 H3974 0.961 . S
C3959 H3975 0.961 . S
C3960 C3961 1.370 . S
C3960 C3962 1.363 . S
C3960 H3976 0.931 . S
C3961 C3960 1.370 . S
C3961 C3965 1.408 . S
C3962 C3960 1.363 . S
C3962 C3963 1.370 . S
C3962 C3966 1.524 . S
C3963 C3955 1.503 . S
C3963 C3962 1.370 . S
C3963 C3964 1.403 . S
C3964 C3963 1.403 . S
C3964 C3965 1.404 . S
C3964 C3967 1.539 . S
C3965 C3961 1.408 . S
C3965 C3964 1.404 . S
C3965 H3977 0.930 . S
C3966 C3962 1.524 . S
C3966 H3978 0.956 . S
C3966 H3979 0.961 . S
C3966 H3980 0.961 . S
C3967 C3964 1.539 . S
C3967 H3981 0.958 . S
C3967 H3982 0.961 . S
C3967 H3983 0.960 . S
H3968 C3952 0.931 . S
H3969 C3957 0.929 . S
H3970 C3958 0.960 . S
H3971 C3958 0.962 . S
H3972 C3958 0.960 . S
H3973 C3959 0.961 . S
H3974 C3959 0.961 . S
H3975 C3959 0.961 . S
H3976 C3960 0.931 . S
H3977 C3965 0.930 . S
H3978 C3966 0.956 . S
H3979 C3966 0.961 . S
H3980 C3966 0.961 . S
H3981 C3967 0.958 . S
H3982 C3967 0.961 . S
H3983 C3967 0.960 . S
C3984 C3985 1.391 . S
C3984 C3986 1.394 . S
C3984 H4000 0.931 . S
C3985 C3984 1.391 . S
C3985 C3989 1.376 . S
C3986 C3984 1.394 . S
C3986 C3987 1.369 . S
C3986 C3990 1.531 . S
C3987 C3986 1.369 . S
C3987 C3988 1.410 . S
C3987 C3995 1.503 . S
C3988 C3987 1.410 . S
C3988 C3989 1.392 . S
C3988 C3991 1.511 . S
C3989 C3985 1.376 . S
C3989 C3988 1.392 . S
C3989 H4001 0.929 . S
C3990 C3986 1.531 . S
C3990 H4002 0.960 . S
C3990 H4003 0.962 . S
C3990 H4004 0.960 . S
C3991 C3988 1.511 . S
C3991 H4005 0.961 . S
C3991 H4006 0.961 . S
C3991 H4007 0.961 . S
C3992 C3993 1.370 . S
C3992 C3994 1.363 . S
C3992 H4008 0.931 . S
C3993 C3992 1.370 . S
C3993 C3997 1.408 . S
C3994 C3992 1.363 . S
C3994 C3995 1.370 . S
C3994 C3998 1.524 . S
C3995 C3987 1.503 . S
C3995 C3994 1.370 . S
C3995 C3996 1.403 . S
C3996 C3995 1.403 . S
C3996 C3997 1.404 . S
C3996 C3999 1.539 . S
C3997 C3993 1.408 . S
C3997 C3996 1.404 . S
C3997 H4009 0.930 . S
C3998 C3994 1.524 . S
C3998 H4010 0.956 . S
C3998 H4011 0.961 . S
C3998 H4012 0.961 . S
C3999 C3996 1.539 . S
C3999 H4013 0.958 . S
C3999 H4014 0.961 . S
C3999 H4015 0.960 . S
H4000 C3984 0.931 . S
H4001 C3989 0.929 . S
H4002 C3990 0.960 . S
H4003 C3990 0.962 . S
H4004 C3990 0.960 . S
H4005 C3991 0.961 . S
H4006 C3991 0.961 . S
H4007 C3991 0.961 . S
H4008 C3992 0.931 . S
H4009 C3997 0.930 . S
H4010 C3998 0.956 . S
H4011 C3998 0.961 . S
H4012 C3998 0.961 . S
H4013 C3999 0.958 . S
H4014 C3999 0.961 . S
H4015 C3999 0.960 . S
C4016 C4017 1.391 . S
C4016 C4018 1.394 . S
C4016 H4032 0.931 . S
C4017 C4016 1.391 . S
C4017 C4021 1.376 . S
C4018 C4016 1.394 . S
C4018 C4019 1.369 . S
C4018 C4022 1.531 . S
C4019 C4018 1.369 . S
C4019 C4020 1.410 . S
C4019 C4027 1.503 . S
C4020 C4019 1.410 . S
C4020 C4021 1.392 . S
C4020 C4023 1.511 . S
C4021 C4017 1.376 . S
C4021 C4020 1.392 . S
C4021 H4033 0.929 . S
C4022 C4018 1.531 . S
C4022 H4034 0.960 . S
C4022 H4035 0.962 . S
C4022 H4036 0.960 . S
C4023 C4020 1.511 . S
C4023 H4037 0.961 . S
C4023 H4038 0.961 . S
C4023 H4039 0.961 . S
C4024 C4025 1.370 . S
C4024 C4026 1.363 . S
C4024 H4040 0.931 . S
C4025 C4024 1.370 . S
C4025 C4029 1.408 . S
C4026 C4024 1.363 . S
C4026 C4027 1.370 . S
C4026 C4030 1.524 . S
C4027 C4019 1.503 . S
C4027 C4026 1.370 . S
C4027 C4028 1.403 . S
C4028 C4027 1.403 . S
C4028 C4029 1.404 . S
C4028 C4031 1.539 . S
C4029 C4025 1.408 . S
C4029 C4028 1.404 . S
C4029 H4041 0.930 . S
C4030 C4026 1.524 . S
C4030 H4042 0.956 . S
C4030 H4043 0.961 . S
C4030 H4044 0.961 . S
C4031 C4028 1.539 . S
C4031 H4045 0.958 . S
C4031 H4046 0.961 . S
C4031 H4047 0.960 . S
H4032 C4016 0.931 . S
H4033 C4021 0.929 . S
H4034 C4022 0.960 . S
H4035 C4022 0.962 . S
H4036 C4022 0.960 . S
H4037 C4023 0.961 . S
H4038 C4023 0.961 . S
H4039 C4023 0.961 . S
H4040 C4024 0.931 . S
H4041 C4029 0.930 . S
H4042 C4030 0.956 . S
H4043 C4030 0.961 . S
H4044 C4030 0.961 . S
H4045 C4031 0.958 . S
H4046 C4031 0.961 . S
H4047 C4031 0.960 . S
C4048 C4049 1.391 . S
C4048 C4050 1.394 . S
C4048 H4064 0.931 . S
C4049 C4048 1.391 . S
C4049 C4053 1.376 . S
C4050 C4048 1.394 . S
C4050 C4051 1.369 . S
C4050 C4054 1.531 . S
C4051 C4050 1.369 . S
C4051 C4052 1.410 . S
C4051 C4059 1.503 . S
C4052 C4051 1.410 . S
C4052 C4053 1.392 . S
C4052 C4055 1.511 . S
C4053 C4049 1.376 . S
C4053 C4052 1.392 . S
C4053 H4065 0.929 . S
C4054 C4050 1.531 . S
C4054 H4066 0.960 . S
C4054 H4067 0.962 . S
C4054 H4068 0.960 . S
C4055 C4052 1.511 . S
C4055 H4069 0.961 . S
C4055 H4070 0.961 . S
C4055 H4071 0.961 . S
C4056 C4057 1.370 . S
C4056 C4058 1.363 . S
C4056 H4072 0.931 . S
C4057 C4056 1.370 . S
C4057 C4061 1.408 . S
C4058 C4056 1.363 . S
C4058 C4059 1.370 . S
C4058 C4062 1.524 . S
C4059 C4051 1.503 . S
C4059 C4058 1.370 . S
C4059 C4060 1.403 . S
C4060 C4059 1.403 . S
C4060 C4061 1.404 . S
C4060 C4063 1.539 1_554 S
C4061 C4057 1.408 . S
C4061 C4060 1.404 . S
C4061 H4073 0.930 1_554 S
C4062 C4058 1.524 . S
C4062 H4074 0.956 . S
C4062 H4075 0.961 . S
C4062 H4076 0.961 . S
C4063 C4060 1.539 1_556 S
C4063 H4077 0.958 . S
C4063 H4078 0.961 . S
C4063 H4079 0.960 1_556 S
H4064 C4048 0.931 . S
H4065 C4053 0.929 . S
H4066 C4054 0.960 . S
H4067 C4054 0.962 . S
H4068 C4054 0.960 . S
H4069 C4055 0.961 . S
H4070 C4055 0.961 . S
H4071 C4055 0.961 . S
H4072 C4056 0.931 . S
H4073 C4061 0.930 1_556 S
H4074 C4062 0.956 . S
H4075 C4062 0.961 . S
H4076 C4062 0.961 . S
H4077 C4063 0.958 . S
H4078 C4063 0.961 . S
H4079 C4063 0.960 1_554 S
C4080 C4081 1.391 . S
C4080 C4082 1.394 . S
C4080 H4096 0.931 . S
C4081 C4080 1.391 . S
C4081 C4085 1.376 . S
C4082 C4080 1.394 . S
C4082 C4083 1.369 . S
C4082 C4086 1.531 . S
C4083 C4082 1.369 . S
C4083 C4084 1.410 . S
C4083 C4091 1.503 . S
C4084 C4083 1.410 . S
C4084 C4085 1.392 . S
C4084 C4087 1.511 . S
C4085 C4081 1.376 . S
C4085 C4084 1.392 . S
C4085 H4097 0.929 . S
C4086 C4082 1.531 . S
C4086 H4098 0.960 . S
C4086 H4099 0.962 . S
C4086 H4100 0.960 . S
C4087 C4084 1.511 . S
C4087 H4101 0.961 . S
C4087 H4102 0.961 . S
C4087 H4103 0.961 . S
C4088 C4089 1.370 . S
C4088 C4090 1.363 . S
C4088 H4104 0.931 . S
C4089 C4088 1.370 . S
C4089 C4093 1.408 . S
C4090 C4088 1.363 . S
C4090 C4091 1.370 . S
C4090 C4094 1.524 . S
C4091 C4083 1.503 . S
C4091 C4090 1.370 . S
C4091 C4092 1.403 . S
C4092 C4091 1.403 . S
C4092 C4093 1.404 . S
C4092 C4095 1.539 . S
C4093 C4089 1.408 . S
C4093 C4092 1.404 . S
C4093 H4105 0.930 . S
C4094 C4090 1.524 . S
C4094 H4106 0.956 . S
C4094 H4107 0.961 . S
C4094 H4108 0.961 . S
C4095 C4092 1.539 . S
C4095 H4109 0.958 . S
C4095 H4110 0.961 . S
C4095 H4111 0.960 . S
H4096 C4080 0.931 . S
H4097 C4085 0.929 . S
H4098 C4086 0.960 . S
H4099 C4086 0.962 . S
H4100 C4086 0.960 . S
H4101 C4087 0.961 . S
H4102 C4087 0.961 . S
H4103 C4087 0.961 . S
H4104 C4088 0.931 . S
H4105 C4093 0.930 . S
H4106 C4094 0.956 . S
H4107 C4094 0.961 . S
H4108 C4094 0.961 . S
H4109 C4095 0.958 . S
H4110 C4095 0.961 . S
H4111 C4095 0.960 . S
C4112 C4113 1.391 . S
C4112 C4114 1.394 . S
C4112 H4128 0.931 . S
C4113 C4112 1.391 . S
C4113 C4117 1.376 . S
C4114 C4112 1.394 . S
C4114 C4115 1.369 . S
C4114 C4118 1.531 . S
C4115 C4114 1.369 . S
C4115 C4116 1.410 . S
C4115 C4123 1.503 . S
C4116 C4115 1.410 . S
C4116 C4117 1.392 . S
C4116 C4119 1.511 . S
C4117 C4113 1.376 . S
C4117 C4116 1.392 . S
C4117 H4129 0.929 . S
C4118 C4114 1.531 . S
C4118 H4130 0.960 . S
C4118 H4131 0.962 . S
C4118 H4132 0.960 . S
C4119 C4116 1.511 . S
C4119 H4133 0.961 . S
C4119 H4134 0.961 . S
C4119 H4135 0.961 . S
C4120 C4121 1.370 . S
C4120 C4122 1.363 . S
C4120 H4136 0.931 . S
C4121 C4120 1.370 . S
C4121 C4125 1.408 . S
C4122 C4120 1.363 . S
C4122 C4123 1.370 . S
C4122 C4126 1.524 . S
C4123 C4115 1.503 . S
C4123 C4122 1.370 . S
C4123 C4124 1.403 . S
C4124 C4123 1.403 . S
C4124 C4125 1.404 . S
C4124 C4127 1.539 . S
C4125 C4121 1.408 . S
C4125 C4124 1.404 . S
C4125 H4137 0.930 . S
C4126 C4122 1.524 . S
C4126 H4138 0.956 . S
C4126 H4139 0.961 . S
C4126 H4140 0.961 . S
C4127 C4124 1.539 . S
C4127 H4141 0.958 . S
C4127 H4142 0.961 . S
C4127 H4143 0.960 . S
H4128 C4112 0.931 . S
H4129 C4117 0.929 . S
H4130 C4118 0.960 . S
H4131 C4118 0.962 . S
H4132 C4118 0.960 . S
H4133 C4119 0.961 . S
H4134 C4119 0.961 . S
H4135 C4119 0.961 . S
H4136 C4120 0.931 . S
H4137 C4125 0.930 . S
H4138 C4126 0.956 . S
H4139 C4126 0.961 . S
H4140 C4126 0.961 . S
H4141 C4127 0.958 . S
H4142 C4127 0.961 . S
H4143 C4127 0.960 . S
C4144 C4145 1.391 . S
C4144 C4146 1.394 . S
C4144 H4160 0.931 . S
C4145 C4144 1.391 . S
C4145 C4149 1.376 . S
C4146 C4144 1.394 . S
C4146 C4147 1.369 . S
C4146 C4150 1.531 . S
C4147 C4146 1.369 . S
C4147 C4148 1.410 . S
C4147 C4155 1.503 . S
C4148 C4147 1.410 . S
C4148 C4149 1.392 . S
C4148 C4151 1.511 . S
C4149 C4145 1.376 . S
C4149 C4148 1.392 . S
C4149 H4161 0.929 . S
C4150 C4146 1.531 . S
C4150 H4162 0.960 . S
C4150 H4163 0.962 . S
C4150 H4164 0.960 . S
C4151 C4148 1.511 . S
C4151 H4165 0.961 . S
C4151 H4166 0.961 . S
C4151 H4167 0.961 . S
C4152 C4153 1.370 . S
C4152 C4154 1.363 . S
C4152 H4168 0.931 . S
C4153 C4152 1.370 . S
C4153 C4157 1.408 . S
C4154 C4152 1.363 . S
C4154 C4155 1.370 . S
C4154 C4158 1.524 . S
C4155 C4147 1.503 . S
C4155 C4154 1.370 . S
C4155 C4156 1.403 . S
C4156 C4155 1.403 . S
C4156 C4157 1.404 . S
C4156 C4159 1.539 . S
C4157 C4153 1.408 . S
C4157 C4156 1.404 . S
C4157 H4169 0.930 . S
C4158 C4154 1.524 . S
C4158 H4170 0.956 . S
C4158 H4171 0.961 . S
C4158 H4172 0.961 . S
C4159 C4156 1.539 . S
C4159 H4173 0.958 . S
C4159 H4174 0.961 . S
C4159 H4175 0.960 . S
H4160 C4144 0.931 . S
H4161 C4149 0.929 . S
H4162 C4150 0.960 . S
H4163 C4150 0.962 . S
H4164 C4150 0.960 . S
H4165 C4151 0.961 . S
H4166 C4151 0.961 . S
H4167 C4151 0.961 . S
H4168 C4152 0.931 . S
H4169 C4157 0.930 . S
H4170 C4158 0.956 . S
H4171 C4158 0.961 . S
H4172 C4158 0.961 . S
H4173 C4159 0.958 . S
H4174 C4159 0.961 . S
H4175 C4159 0.960 . S
C4176 C4177 1.391 . S
C4176 C4178 1.394 . S
C4176 H4192 0.931 . S
C4177 C4176 1.391 . S
C4177 C4181 1.376 . S
C4178 C4176 1.394 . S
C4178 C4179 1.369 . S
C4178 C4182 1.531 . S
C4179 C4178 1.369 . S
C4179 C4180 1.410 . S
C4179 C4187 1.503 . S
C4180 C4179 1.410 . S
C4180 C4181 1.392 . S
C4180 C4183 1.511 . S
C4181 C4177 1.376 . S
C4181 C4180 1.392 . S
C4181 H4193 0.929 . S
C4182 C4178 1.531 . S
C4182 H4194 0.960 . S
C4182 H4195 0.962 . S
C4182 H4196 0.960 . S
C4183 C4180 1.511 . S
C4183 H4197 0.961 . S
C4183 H4198 0.961 . S
C4183 H4199 0.961 . S
C4184 C4185 1.370 . S
C4184 C4186 1.363 . S
C4184 H4200 0.931 . S
C4185 C4184 1.370 . S
C4185 C4189 1.408 . S
C4186 C4184 1.363 . S
C4186 C4187 1.370 . S
C4186 C4190 1.524 . S
C4187 C4179 1.503 . S
C4187 C4186 1.370 . S
C4187 C4188 1.403 . S
C4188 C4187 1.403 . S
C4188 C4189 1.404 . S
C4188 C4191 1.539 . S
C4189 C4185 1.408 . S
C4189 C4188 1.404 . S
C4189 H4201 0.930 . S
C4190 C4186 1.524 . S
C4190 H4202 0.956 . S
C4190 H4203 0.961 . S
C4190 H4204 0.961 . S
C4191 C4188 1.539 . S
C4191 H4205 0.958 . S
C4191 H4206 0.961 . S
C4191 H4207 0.960 . S
H4192 C4176 0.931 . S
H4193 C4181 0.929 . S
H4194 C4182 0.960 . S
H4195 C4182 0.962 . S
H4196 C4182 0.960 . S
H4197 C4183 0.961 . S
H4198 C4183 0.961 . S
H4199 C4183 0.961 . S
H4200 C4184 0.931 . S
H4201 C4189 0.930 . S
H4202 C4190 0.956 . S
H4203 C4190 0.961 . S
H4204 C4190 0.961 . S
H4205 C4191 0.958 . S
H4206 C4191 0.961 . S
H4207 C4191 0.960 . S
C4208 C4209 1.391 . S
C4208 C4210 1.394 . S
C4208 H4224 0.931 . S
C4209 C4208 1.391 . S
C4209 C4213 1.376 . S
C4210 C4208 1.394 . S
C4210 C4211 1.369 . S
C4210 C4214 1.531 . S
C4211 C4210 1.369 . S
C4211 C4212 1.410 . S
C4211 C4219 1.503 . S
C4212 C4211 1.410 . S
C4212 C4213 1.392 . S
C4212 C4215 1.511 . S
C4213 C4209 1.376 . S
C4213 C4212 1.392 . S
C4213 H4225 0.929 . S
C4214 C4210 1.531 . S
C4214 H4226 0.960 . S
C4214 H4227 0.962 . S
C4214 H4228 0.960 . S
C4215 C4212 1.511 . S
C4215 H4229 0.961 . S
C4215 H4230 0.961 . S
C4215 H4231 0.961 . S
C4216 C4217 1.370 . S
C4216 C4218 1.363 . S
C4216 H4232 0.931 . S
C4217 C4216 1.370 . S
C4217 C4221 1.408 . S
C4218 C4216 1.363 . S
C4218 C4219 1.370 . S
C4218 C4222 1.524 . S
C4219 C4211 1.503 . S
C4219 C4218 1.370 . S
C4219 C4220 1.403 . S
C4220 C4219 1.403 . S
C4220 C4221 1.404 . S
C4220 C4223 1.539 . S
C4221 C4217 1.408 . S
C4221 C4220 1.404 . S
C4221 H4233 0.930 . S
C4222 C4218 1.524 . S
C4222 H4234 0.956 . S
C4222 H4235 0.961 . S
C4222 H4236 0.961 . S
C4223 C4220 1.539 . S
C4223 H4237 0.958 . S
C4223 H4238 0.961 . S
C4223 H4239 0.960 . S
H4224 C4208 0.931 . S
H4225 C4213 0.929 . S
H4226 C4214 0.960 . S
H4227 C4214 0.962 . S
H4228 C4214 0.960 . S
H4229 C4215 0.961 . S
H4230 C4215 0.961 . S
H4231 C4215 0.961 . S
H4232 C4216 0.931 . S
H4233 C4221 0.930 . S
H4234 C4222 0.956 . S
H4235 C4222 0.961 . S
H4236 C4222 0.961 . S
H4237 C4223 0.958 . S
H4238 C4223 0.961 . S
H4239 C4223 0.960 . S
C4240 C4241 1.391 . S
C4240 C4242 1.394 . S
C4240 H4256 0.931 . S
C4241 C4240 1.391 . S
C4241 C4245 1.376 . S
C4242 C4240 1.394 . S
C4242 C4243 1.369 . S
C4242 C4246 1.531 . S
C4243 C4242 1.369 . S
C4243 C4244 1.410 . S
C4243 C4251 1.503 . S
C4244 C4243 1.410 . S
C4244 C4245 1.392 . S
C4244 C4247 1.511 . S
C4245 C4241 1.376 . S
C4245 C4244 1.392 . S
C4245 H4257 0.929 . S
C4246 C4242 1.531 . S
C4246 H4258 0.960 . S
C4246 H4259 0.962 . S
C4246 H4260 0.960 . S
C4247 C4244 1.511 . S
C4247 H4261 0.961 . S
C4247 H4262 0.961 . S
C4247 H4263 0.961 . S
C4248 C4249 1.370 . S
C4248 C4250 1.363 . S
C4248 H4264 0.931 . S
C4249 C4248 1.370 . S
C4249 C4253 1.408 . S
C4250 C4248 1.363 . S
C4250 C4251 1.370 . S
C4250 C4254 1.524 . S
C4251 C4243 1.503 . S
C4251 C4250 1.370 . S
C4251 C4252 1.403 . S
C4252 C4251 1.403 . S
C4252 C4253 1.404 . S
C4252 C4255 1.539 . S
C4253 C4249 1.408 . S
C4253 C4252 1.404 . S
C4253 H4265 0.930 . S
C4254 C4250 1.524 . S
C4254 H4266 0.956 . S
C4254 H4267 0.961 . S
C4254 H4268 0.961 . S
C4255 C4252 1.539 . S
C4255 H4269 0.958 . S
C4255 H4270 0.961 . S
C4255 H4271 0.960 . S
H4256 C4240 0.931 . S
H4257 C4245 0.929 . S
H4258 C4246 0.960 . S
H4259 C4246 0.962 . S
H4260 C4246 0.960 . S
H4261 C4247 0.961 . S
H4262 C4247 0.961 . S
H4263 C4247 0.961 . S
H4264 C4248 0.931 . S
H4265 C4253 0.930 . S
H4266 C4254 0.956 . S
H4267 C4254 0.961 . S
H4268 C4254 0.961 . S
H4269 C4255 0.958 . S
H4270 C4255 0.961 . S
H4271 C4255 0.960 . S
C4272 C4273 1.391 . S
C4272 C4274 1.394 . S
C4272 H4288 0.931 . S
C4273 C4272 1.391 . S
C4273 C4277 1.376 . S
C4274 C4272 1.394 . S
C4274 C4275 1.369 . S
C4274 C4278 1.531 . S
C4275 C4274 1.369 . S
C4275 C4276 1.410 . S
C4275 C4283 1.503 . S
C4276 C4275 1.410 . S
C4276 C4277 1.392 . S
C4276 C4279 1.511 . S
C4277 C4273 1.376 . S
C4277 C4276 1.392 . S
C4277 H4289 0.929 . S
C4278 C4274 1.531 . S
C4278 H4290 0.960 . S
C4278 H4291 0.962 . S
C4278 H4292 0.960 . S
C4279 C4276 1.511 . S
C4279 H4293 0.961 . S
C4279 H4294 0.961 . S
C4279 H4295 0.961 . S
C4280 C4281 1.370 . S
C4280 C4282 1.363 . S
C4280 H4296 0.931 . S
C4281 C4280 1.370 . S
C4281 C4285 1.408 . S
C4282 C4280 1.363 . S
C4282 C4283 1.370 . S
C4282 C4286 1.524 . S
C4283 C4275 1.503 . S
C4283 C4282 1.370 . S
C4283 C4284 1.403 . S
C4284 C4283 1.403 . S
C4284 C4285 1.404 . S
C4284 C4287 1.539 . S
C4285 C4281 1.408 . S
C4285 C4284 1.404 . S
C4285 H4297 0.930 . S
C4286 C4282 1.524 . S
C4286 H4298 0.956 . S
C4286 H4299 0.961 . S
C4286 H4300 0.961 . S
C4287 C4284 1.539 . S
C4287 H4301 0.958 . S
C4287 H4302 0.961 . S
C4287 H4303 0.960 . S
H4288 C4272 0.931 . S
H4289 C4277 0.929 . S
H4290 C4278 0.960 . S
H4291 C4278 0.962 . S
H4292 C4278 0.960 . S
H4293 C4279 0.961 . S
H4294 C4279 0.961 . S
H4295 C4279 0.961 . S
H4296 C4280 0.931 . S
H4297 C4285 0.930 . S
H4298 C4286 0.956 . S
H4299 C4286 0.961 . S
H4300 C4286 0.961 . S
H4301 C4287 0.958 . S
H4302 C4287 0.961 . S
H4303 C4287 0.960 . S
C4304 C4305 1.391 . S
C4304 C4306 1.394 . S
C4304 H4320 0.931 . S
C4305 C4304 1.391 . S
C4305 C4309 1.376 . S
C4306 C4304 1.394 . S
C4306 C4307 1.369 . S
C4306 C4310 1.531 . S
C4307 C4306 1.369 . S
C4307 C4308 1.410 . S
C4307 C4315 1.505 . S
C4308 C4307 1.410 . S
C4308 C4309 1.392 . S
C4308 C4311 1.511 . S
C4309 C4305 1.376 . S
C4309 C4308 1.392 . S
C4309 H4321 0.929 . S
C4310 C4306 1.531 . S
C4310 H4322 0.960 . S
C4310 H4323 0.962 . S
C4310 H4324 0.960 . S
C4311 C4308 1.511 . S
C4311 H4325 0.961 . S
C4311 H4326 0.954 1_655 S
C4311 H4327 0.961 1_655 S
C4312 C4313 1.370 . S
C4312 C4314 1.363 1_455 S
C4312 H4328 0.934 . S
C4313 C4312 1.370 . S
C4313 C4317 1.408 . S
C4314 C4312 1.363 1_655 S
C4314 C4315 1.372 . S
C4314 C4318 1.524 . S
C4315 C4307 1.505 . S
C4315 C4314 1.372 . S
C4315 C4316 1.400 1_655 S
C4316 C4315 1.400 1_455 S
C4316 C4317 1.404 . S
C4316 C4319 1.539 . S
C4317 C4313 1.408 . S
C4317 C4316 1.404 . S
C4317 H4329 0.930 . S
C4318 C4314 1.524 . S
C4318 H4330 0.956 . S
C4318 H4331 0.961 . S
C4318 H4332 0.961 . S
C4319 C4316 1.539 . S
C4319 H4333 0.958 . S
C4319 H4334 0.961 . S
C4319 H4335 0.960 . S
H4320 C4304 0.931 . S
H4321 C4309 0.929 . S
H4322 C4310 0.960 . S
H4323 C4310 0.962 . S
H4324 C4310 0.960 . S
H4325 C4311 0.961 . S
H4326 C4311 0.954 1_455 S
H4327 C4311 0.961 1_455 S
H4328 C4312 0.934 . S
H4329 C4317 0.930 . S
H4330 C4318 0.956 . S
H4331 C4318 0.961 . S
H4332 C4318 0.961 . S
H4333 C4319 0.958 . S
H4334 C4319 0.961 . S
H4335 C4319 0.960 . S
C4336 C4337 1.391 . S
C4336 C4338 1.394 . S
C4336 H4352 0.931 . S
C4337 C4336 1.391 . S
C4337 C4341 1.376 . S
C4338 C4336 1.394 . S
C4338 C4339 1.369 . S
C4338 C4342 1.531 . S
C4339 C4338 1.369 . S
C4339 C4340 1.410 . S
C4339 C4347 1.503 . S
C4340 C4339 1.410 . S
C4340 C4341 1.392 . S
C4340 C4343 1.511 . S
C4341 C4337 1.376 . S
C4341 C4340 1.392 . S
C4341 H4353 0.929 . S
C4342 C4338 1.531 . S
C4342 H4354 0.960 . S
C4342 H4355 0.962 . S
C4342 H4356 0.960 . S
C4343 C4340 1.511 . S
C4343 H4357 0.961 . S
C4343 H4358 0.961 . S
C4343 H4359 0.961 . S
C4344 C4345 1.370 . S
C4344 C4346 1.363 . S
C4344 H4360 0.931 . S
C4345 C4344 1.370 . S
C4345 C4349 1.408 . S
C4346 C4344 1.363 . S
C4346 C4347 1.370 . S
C4346 C4350 1.524 . S
C4347 C4339 1.503 . S
C4347 C4346 1.370 . S
C4347 C4348 1.403 . S
C4348 C4347 1.403 . S
C4348 C4349 1.404 . S
C4348 C4351 1.539 . S
C4349 C4345 1.408 . S
C4349 C4348 1.404 . S
C4349 H4361 0.930 . S
C4350 C4346 1.524 . S
C4350 H4362 0.956 . S
C4350 H4363 0.961 . S
C4350 H4364 0.961 . S
C4351 C4348 1.539 . S
C4351 H4365 0.958 . S
C4351 H4366 0.961 . S
C4351 H4367 0.960 . S
H4352 C4336 0.931 . S
H4353 C4341 0.929 . S
H4354 C4342 0.960 . S
H4355 C4342 0.962 . S
H4356 C4342 0.960 . S
H4357 C4343 0.961 . S
H4358 C4343 0.961 . S
H4359 C4343 0.961 . S
H4360 C4344 0.931 . S
H4361 C4349 0.930 . S
H4362 C4350 0.956 . S
H4363 C4350 0.961 . S
H4364 C4350 0.961 . S
H4365 C4351 0.958 . S
H4366 C4351 0.961 . S
H4367 C4351 0.960 . S
C4368 C4369 1.391 . S
C4368 C4370 1.394 . S
C4368 H4384 0.931 . S
C4369 C4368 1.391 . S
C4369 C4373 1.376 . S
C4370 C4368 1.394 . S
C4370 C4371 1.369 . S
C4370 C4374 1.531 . S
C4371 C4370 1.369 . S
C4371 C4372 1.410 . S
C4371 C4379 1.503 . S
C4372 C4371 1.410 . S
C4372 C4373 1.392 . S
C4372 C4375 1.511 . S
C4373 C4369 1.376 . S
C4373 C4372 1.392 . S
C4373 H4385 0.929 . S
C4374 C4370 1.531 . S
C4374 H4386 0.960 . S
C4374 H4387 0.962 . S
C4374 H4388 0.960 . S
C4375 C4372 1.511 . S
C4375 H4389 0.961 . S
C4375 H4390 0.961 . S
C4375 H4391 0.961 . S
C4376 C4377 1.370 . S
C4376 C4378 1.363 . S
C4376 H4392 0.931 . S
C4377 C4376 1.370 . S
C4377 C4381 1.408 . S
C4378 C4376 1.363 . S
C4378 C4379 1.370 . S
C4378 C4382 1.524 . S
C4379 C4371 1.503 . S
C4379 C4378 1.370 . S
C4379 C4380 1.403 . S
C4380 C4379 1.403 . S
C4380 C4381 1.404 . S
C4380 C4383 1.539 . S
C4381 C4377 1.408 . S
C4381 C4380 1.404 . S
C4381 H4393 0.930 . S
C4382 C4378 1.524 . S
C4382 H4394 0.956 . S
C4382 H4395 0.961 . S
C4382 H4396 0.961 . S
C4383 C4380 1.539 . S
C4383 H4397 0.958 . S
C4383 H4398 0.961 . S
C4383 H4399 0.960 . S
H4384 C4368 0.931 . S
H4385 C4373 0.929 . S
H4386 C4374 0.960 . S
H4387 C4374 0.962 . S
H4388 C4374 0.960 . S
H4389 C4375 0.961 . S
H4390 C4375 0.961 . S
H4391 C4375 0.961 . S
H4392 C4376 0.931 . S
H4393 C4381 0.930 . S
H4394 C4382 0.956 . S
H4395 C4382 0.961 . S
H4396 C4382 0.961 . S
H4397 C4383 0.958 . S
H4398 C4383 0.961 . S
H4399 C4383 0.960 . S
C4400 C4401 1.391 . S
C4400 C4402 1.394 . S
C4400 H4416 0.931 . S
C4401 C4400 1.391 . S
C4401 C4405 1.376 . S
C4402 C4400 1.394 . S
C4402 C4403 1.369 . S
C4402 C4406 1.531 . S
C4403 C4402 1.369 . S
C4403 C4404 1.410 . S
C4403 C4411 1.503 . S
C4404 C4403 1.410 . S
C4404 C4405 1.392 . S
C4404 C4407 1.511 . S
C4405 C4401 1.376 . S
C4405 C4404 1.392 . S
C4405 H4417 0.929 . S
C4406 C4402 1.531 . S
C4406 H4418 0.960 . S
C4406 H4419 0.962 . S
C4406 H4420 0.960 . S
C4407 C4404 1.511 . S
C4407 H4421 0.961 . S
C4407 H4422 0.961 . S
C4407 H4423 0.961 . S
C4408 C4409 1.370 . S
C4408 C4410 1.363 . S
C4408 H4424 0.931 . S
C4409 C4408 1.370 . S
C4409 C4413 1.408 . S
C4410 C4408 1.363 . S
C4410 C4411 1.370 . S
C4410 C4414 1.524 . S
C4411 C4403 1.503 . S
C4411 C4410 1.370 . S
C4411 C4412 1.403 . S
C4412 C4411 1.403 . S
C4412 C4413 1.404 . S
C4412 C4415 1.539 . S
C4413 C4409 1.408 . S
C4413 C4412 1.404 . S
C4413 H4425 0.930 . S
C4414 C4410 1.524 . S
C4414 H4426 0.956 . S
C4414 H4427 0.961 . S
C4414 H4428 0.961 . S
C4415 C4412 1.539 . S
C4415 H4429 0.958 . S
C4415 H4430 0.961 . S
C4415 H4431 0.960 . S
H4416 C4400 0.931 . S
H4417 C4405 0.929 . S
H4418 C4406 0.960 . S
H4419 C4406 0.962 . S
H4420 C4406 0.960 . S
H4421 C4407 0.961 . S
H4422 C4407 0.961 . S
H4423 C4407 0.961 . S
H4424 C4408 0.931 . S
H4425 C4413 0.930 . S
H4426 C4414 0.956 . S
H4427 C4414 0.961 . S
H4428 C4414 0.961 . S
H4429 C4415 0.958 . S
H4430 C4415 0.961 . S
H4431 C4415 0.960 . S
C4432 C4433 1.391 . S
C4432 C4434 1.394 . S
C4432 H4448 0.931 . S
C4433 C4432 1.391 . S
C4433 C4437 1.376 . S
C4434 C4432 1.394 . S
C4434 C4435 1.369 . S
C4434 C4438 1.531 . S
C4435 C4434 1.369 . S
C4435 C4436 1.410 . S
C4435 C4443 1.503 . S
C4436 C4435 1.410 . S
C4436 C4437 1.392 . S
C4436 C4439 1.511 . S
C4437 C4433 1.376 . S
C4437 C4436 1.392 . S
C4437 H4449 0.929 . S
C4438 C4434 1.531 . S
C4438 H4450 0.960 . S
C4438 H4451 0.962 . S
C4438 H4452 0.960 . S
C4439 C4436 1.511 . S
C4439 H4453 0.961 . S
C4439 H4454 0.950 1_655 S
C4439 H4455 0.961 1_655 S
C4440 C4441 1.374 . S
C4440 C4442 1.363 . S
C4440 H4456 0.931 . S
C4441 C4440 1.374 . S
C4441 C4445 1.408 1_655 S
C4442 C4440 1.363 . S
C4442 C4443 1.370 . S
C4442 C4446 1.524 . S
C4443 C4435 1.503 . S
C4443 C4442 1.370 . S
C4443 C4444 1.403 . S
C4444 C4443 1.403 . S
C4444 C4445 1.404 1_655 S
C4444 C4447 1.538 1_655 S
C4445 C4441 1.408 1_455 S
C4445 C4444 1.404 1_455 S
C4445 H4457 0.930 . S
C4446 C4442 1.524 . S
C4446 H4458 0.956 . S
C4446 H4459 0.961 . S
C4446 H4460 0.961 . S
C4447 C4444 1.538 1_455 S
C4447 H4461 0.932 1_455 S
C4447 H4462 0.994 . S
C4447 H4463 0.955 1_455 S
H4448 C4432 0.931 . S
H4449 C4437 0.929 . S
H4450 C4438 0.960 . S
H4451 C4438 0.962 . S
H4452 C4438 0.960 . S
H4453 C4439 0.961 . S
H4454 C4439 0.950 1_455 S
H4455 C4439 0.961 1_455 S
H4456 C4440 0.931 . S
H4457 C4445 0.930 . S
H4458 C4446 0.956 . S
H4459 C4446 0.961 . S
H4460 C4446 0.961 . S
H4461 C4447 0.932 1_655 S
H4462 C4447 0.994 . S
H4463 C4447 0.955 1_655 S
C4464 C4465 1.391 . S
C4464 C4466 1.394 . S
C4464 H4480 0.931 . S
C4465 C4464 1.391 . S
C4465 C4469 1.376 . S
C4466 C4464 1.394 . S
C4466 C4467 1.369 . S
C4466 C4470 1.531 . S
C4467 C4466 1.369 . S
C4467 C4468 1.410 . S
C4467 C4475 1.503 . S
C4468 C4467 1.410 . S
C4468 C4469 1.392 . S
C4468 C4471 1.511 . S
C4469 C4465 1.376 . S
C4469 C4468 1.392 . S
C4469 H4481 0.929 . S
C4470 C4466 1.531 . S
C4470 H4482 0.960 . S
C4470 H4483 0.962 . S
C4470 H4484 0.960 . S
C4471 C4468 1.511 . S
C4471 H4485 0.961 . S
C4471 H4486 0.961 . S
C4471 H4487 0.961 . S
C4472 C4473 1.370 . S
C4472 C4474 1.363 . S
C4472 H4488 0.931 . S
C4473 C4472 1.370 . S
C4473 C4477 1.408 . S
C4474 C4472 1.363 . S
C4474 C4475 1.370 . S
C4474 C4478 1.524 . S
C4475 C4467 1.503 . S
C4475 C4474 1.370 . S
C4475 C4476 1.403 . S
C4476 C4475 1.403 . S
C4476 C4477 1.404 . S
C4476 C4479 1.539 . S
C4477 C4473 1.408 . S
C4477 C4476 1.404 . S
C4477 H4489 0.930 . S
C4478 C4474 1.524 . S
C4478 H4490 0.956 . S
C4478 H4491 0.961 . S
C4478 H4492 0.961 . S
C4479 C4476 1.539 . S
C4479 H4493 0.958 . S
C4479 H4494 0.961 . S
C4479 H4495 0.960 . S
H4480 C4464 0.931 . S
H4481 C4469 0.929 . S
H4482 C4470 0.960 . S
H4483 C4470 0.962 . S
H4484 C4470 0.960 . S
H4485 C4471 0.961 . S
H4486 C4471 0.961 . S
H4487 C4471 0.961 . S
H4488 C4472 0.931 . S
H4489 C4477 0.930 . S
H4490 C4478 0.956 . S
H4491 C4478 0.961 . S
H4492 C4478 0.961 . S
H4493 C4479 0.958 . S
H4494 C4479 0.961 . S
H4495 C4479 0.960 . S
C4496 C4497 1.391 . S
C4496 C4498 1.394 . S
C4496 H4512 0.931 . S
C4497 C4496 1.391 . S
C4497 C4501 1.376 . S
C4498 C4496 1.394 . S
C4498 C4499 1.369 . S
C4498 C4502 1.531 . S
C4499 C4498 1.369 . S
C4499 C4500 1.410 . S
C4499 C4507 1.503 . S
C4500 C4499 1.410 . S
C4500 C4501 1.392 . S
C4500 C4503 1.511 . S
C4501 C4497 1.376 . S
C4501 C4500 1.392 . S
C4501 H4513 0.929 . S
C4502 C4498 1.531 . S
C4502 H4514 0.960 . S
C4502 H4515 0.962 . S
C4502 H4516 0.960 . S
C4503 C4500 1.511 . S
C4503 H4517 0.961 . S
C4503 H4518 0.961 . S
C4503 H4519 0.961 . S
C4504 C4505 1.370 . S
C4504 C4506 1.363 . S
C4504 H4520 0.931 . S
C4505 C4504 1.370 . S
C4505 C4509 1.408 . S
C4506 C4504 1.363 . S
C4506 C4507 1.370 . S
C4506 C4510 1.524 . S
C4507 C4499 1.503 . S
C4507 C4506 1.370 . S
C4507 C4508 1.403 . S
C4508 C4507 1.403 . S
C4508 C4509 1.404 . S
C4508 C4511 1.539 . S
C4509 C4505 1.408 . S
C4509 C4508 1.404 . S
C4509 H4521 0.930 . S
C4510 C4506 1.524 . S
C4510 H4522 0.956 . S
C4510 H4523 0.961 . S
C4510 H4524 0.961 . S
C4511 C4508 1.539 . S
C4511 H4525 0.958 . S
C4511 H4526 0.961 . S
C4511 H4527 0.960 . S
H4512 C4496 0.931 . S
H4513 C4501 0.929 . S
H4514 C4502 0.960 . S
H4515 C4502 0.962 . S
H4516 C4502 0.960 . S
H4517 C4503 0.961 . S
H4518 C4503 0.961 . S
H4519 C4503 0.961 . S
H4520 C4504 0.931 . S
H4521 C4509 0.930 . S
H4522 C4510 0.956 . S
H4523 C4510 0.961 . S
H4524 C4510 0.961 . S
H4525 C4511 0.958 . S
H4526 C4511 0.961 . S
H4527 C4511 0.960 . S
C4528 C4529 1.391 . S
C4528 C4530 1.394 . S
C4528 H4544 0.931 . S
C4529 C4528 1.391 . S
C4529 C4533 1.376 . S
C4530 C4528 1.394 . S
C4530 C4531 1.369 . S
C4530 C4534 1.531 . S
C4531 C4530 1.369 . S
C4531 C4532 1.410 . S
C4531 C4539 1.503 . S
C4532 C4531 1.410 . S
C4532 C4533 1.392 . S
C4532 C4535 1.511 . S
C4533 C4529 1.376 . S
C4533 C4532 1.392 . S
C4533 H4545 0.929 . S
C4534 C4530 1.531 . S
C4534 H4546 0.960 . S
C4534 H4547 0.962 . S
C4534 H4548 0.960 . S
C4535 C4532 1.511 . S
C4535 H4549 0.961 . S
C4535 H4550 0.961 . S
C4535 H4551 0.961 . S
C4536 C4537 1.370 . S
C4536 C4538 1.363 . S
C4536 H4552 0.967 . S
C4537 C4536 1.370 . S
C4537 C4541 1.380 1_565 S
C4538 C4536 1.363 . S
C4538 C4539 1.370 . S
C4538 C4542 1.524 . S
C4539 C4531 1.503 . S
C4539 C4538 1.370 . S
C4539 C4540 1.403 . S
C4540 C4539 1.403 . S
C4540 C4541 1.385 1_565 S
C4540 C4543 1.539 . S
C4541 C4537 1.380 1_545 S
C4541 C4540 1.385 1_545 S
C4541 H4553 0.977 . S
C4542 C4538 1.524 . S
C4542 H4554 0.956 . S
C4542 H4555 0.961 . S
C4542 H4556 0.961 . S
C4543 C4540 1.539 . S
C4543 H4557 0.958 . S
C4543 H4558 0.961 1_565 S
C4543 H4559 0.960 . S
H4544 C4528 0.931 . S
H4545 C4533 0.929 . S
H4546 C4534 0.960 . S
H4547 C4534 0.962 . S
H4548 C4534 0.960 . S
H4549 C4535 0.961 . S
H4550 C4535 0.961 . S
H4551 C4535 0.961 . S
H4552 C4536 0.967 . S
H4553 C4541 0.977 . S
H4554 C4542 0.956 . S
H4555 C4542 0.961 . S
H4556 C4542 0.961 . S
H4557 C4543 0.958 . S
H4558 C4543 0.961 1_545 S
H4559 C4543 0.960 . S
C4560 C4561 1.391 . S
C4560 C4562 1.394 . S
C4560 H4576 0.931 . S
C4561 C4560 1.391 . S
C4561 C4565 1.376 . S
C4562 C4560 1.394 . S
C4562 C4563 1.369 . S
C4562 C4566 1.531 . S
C4563 C4562 1.369 . S
C4563 C4564 1.410 . S
C4563 C4571 1.503 . S
C4564 C4563 1.410 . S
C4564 C4565 1.392 . S
C4564 C4567 1.511 . S
C4565 C4561 1.376 . S
C4565 C4564 1.392 . S
C4565 H4577 0.929 . S
C4566 C4562 1.531 . S
C4566 H4578 0.960 . S
C4566 H4579 0.962 . S
C4566 H4580 0.960 . S
C4567 C4564 1.511 . S
C4567 H4581 0.961 . S
C4567 H4582 0.961 . S
C4567 H4583 0.961 . S
C4568 C4569 1.370 . S
C4568 C4570 1.363 . S
C4568 H4584 0.931 . S
C4569 C4568 1.370 . S
C4569 C4573 1.408 . S
C4570 C4568 1.363 . S
C4570 C4571 1.370 . S
C4570 C4574 1.524 . S
C4571 C4563 1.503 . S
C4571 C4570 1.370 . S
C4571 C4572 1.403 . S
C4572 C4571 1.403 . S
C4572 C4573 1.404 . S
C4572 C4575 1.539 . S
C4573 C4569 1.408 . S
C4573 C4572 1.404 . S
C4573 H4585 0.930 . S
C4574 C4570 1.524 . S
C4574 H4586 0.956 . S
C4574 H4587 0.961 . S
C4574 H4588 0.961 . S
C4575 C4572 1.539 . S
C4575 H4589 0.958 . S
C4575 H4590 0.961 . S
C4575 H4591 0.960 . S
H4576 C4560 0.931 . S
H4577 C4565 0.929 . S
H4578 C4566 0.960 . S
H4579 C4566 0.962 . S
H4580 C4566 0.960 . S
H4581 C4567 0.961 . S
H4582 C4567 0.961 . S
H4583 C4567 0.961 . S
H4584 C4568 0.931 . S
H4585 C4573 0.930 . S
H4586 C4574 0.956 . S
H4587 C4574 0.961 . S
H4588 C4574 0.961 . S
H4589 C4575 0.958 . S
H4590 C4575 0.961 . S
H4591 C4575 0.960 . S
C4592 C4593 1.391 . S
C4592 C4594 1.394 . S
C4592 H4608 0.931 . S
C4593 C4592 1.391 . S
C4593 C4597 1.376 . S
C4594 C4592 1.394 . S
C4594 C4595 1.369 . S
C4594 C4598 1.531 . S
C4595 C4594 1.369 . S
C4595 C4596 1.417 . S
C4595 C4603 1.503 . S
C4596 C4595 1.417 . S
C4596 C4597 1.392 . S
C4596 C4599 1.505 1_554 S
C4597 C4593 1.376 . S
C4597 C4596 1.392 . S
C4597 H4609 0.929 1_554 S
C4598 C4594 1.531 . S
C4598 H4610 0.960 . S
C4598 H4611 0.962 . S
C4598 H4612 0.960 . S
C4599 C4596 1.505 1_556 S
C4599 H4613 0.961 . S
C4599 H4614 0.961 . S
C4599 H4615 0.961 . S
C4600 C4601 1.370 . S
C4600 C4602 1.363 . S
C4600 H4616 0.931 . S
C4601 C4600 1.370 . S
C4601 C4605 1.408 . S
C4602 C4600 1.363 . S
C4602 C4603 1.370 . S
C4602 C4606 1.524 . S
C4603 C4595 1.503 . S
C4603 C4602 1.370 . S
C4603 C4604 1.403 . S
C4604 C4603 1.403 . S
C4604 C4605 1.404 . S
C4604 C4607 1.539 . S
C4605 C4601 1.408 . S
C4605 C4604 1.404 . S
C4605 H4617 0.930 . S
C4606 C4602 1.524 . S
C4606 H4618 0.956 . S
C4606 H4619 0.961 . S
C4606 H4620 0.961 . S
C4607 C4604 1.539 . S
C4607 H4621 0.958 . S
C4607 H4622 0.961 1_554 S
C4607 H4623 0.960 1_554 S
H4608 C4592 0.931 . S
H4609 C4597 0.929 1_556 S
H4610 C4598 0.960 . S
H4611 C4598 0.962 . S
H4612 C4598 0.960 . S
H4613 C4599 0.961 . S
H4614 C4599 0.961 . S
H4615 C4599 0.961 . S
H4616 C4600 0.931 . S
H4617 C4605 0.930 . S
H4618 C4606 0.956 . S
H4619 C4606 0.961 . S
H4620 C4606 0.961 . S
H4621 C4607 0.958 . S
H4622 C4607 0.961 1_556 S
H4623 C4607 0.960 1_556 S
C4624 C4625 1.391 . S
C4624 C4626 1.394 . S
C4624 H4640 0.931 . S
C4625 C4624 1.391 . S
C4625 C4629 1.376 . S
C4626 C4624 1.394 . S
C4626 C4627 1.369 . S
C4626 C4630 1.531 . S
C4627 C4626 1.369 . S
C4627 C4628 1.410 . S
C4627 C4635 1.503 . S
C4628 C4627 1.410 . S
C4628 C4629 1.392 . S
C4628 C4631 1.511 . S
C4629 C4625 1.376 . S
C4629 C4628 1.392 . S
C4629 H4641 0.929 . S
C4630 C4626 1.531 . S
C4630 H4642 0.960 . S
C4630 H4643 0.962 . S
C4630 H4644 0.960 . S
C4631 C4628 1.511 . S
C4631 H4645 0.961 . S
C4631 H4646 0.961 . S
C4631 H4647 0.961 . S
C4632 C4633 1.370 . S
C4632 C4634 1.363 . S
C4632 H4648 0.931 . S
C4633 C4632 1.370 . S
C4633 C4637 1.408 . S
C4634 C4632 1.363 . S
C4634 C4635 1.370 . S
C4634 C4638 1.524 . S
C4635 C4627 1.503 . S
C4635 C4634 1.370 . S
C4635 C4636 1.403 . S
C4636 C4635 1.403 . S
C4636 C4637 1.404 . S
C4636 C4639 1.539 . S
C4637 C4633 1.408 . S
C4637 C4636 1.404 . S
C4637 H4649 0.930 . S
C4638 C4634 1.524 . S
C4638 H4650 0.956 . S
C4638 H4651 0.961 . S
C4638 H4652 0.961 . S
C4639 C4636 1.539 . S
C4639 H4653 0.958 . S
C4639 H4654 0.961 . S
C4639 H4655 0.960 . S
H4640 C4624 0.931 . S
H4641 C4629 0.929 . S
H4642 C4630 0.960 . S
H4643 C4630 0.962 . S
H4644 C4630 0.960 . S
H4645 C4631 0.961 . S
H4646 C4631 0.961 . S
H4647 C4631 0.961 . S
H4648 C4632 0.931 . S
H4649 C4637 0.930 . S
H4650 C4638 0.956 . S
H4651 C4638 0.961 . S
H4652 C4638 0.961 . S
H4653 C4639 0.958 . S
H4654 C4639 0.961 . S
H4655 C4639 0.960 . S
C4656 C4657 1.391 . S
C4656 C4658 1.394 . S
C4656 H4672 0.931 . S
C4657 C4656 1.391 . S
C4657 C4661 1.376 . S
C4658 C4656 1.394 . S
C4658 C4659 1.369 . S
C4658 C4662 1.531 1_554 S
C4659 C4658 1.369 . S
C4659 C4660 1.410 . S
C4659 C4667 1.503 . S
C4660 C4659 1.410 . S
C4660 C4661 1.392 . S
C4660 C4663 1.511 . S
C4661 C4657 1.376 . S
C4661 C4660 1.392 . S
C4661 H4673 0.929 . S
C4662 C4658 1.531 1_556 S
C4662 H4674 0.960 . S
C4662 H4675 0.962 . S
C4662 H4676 0.960 . S
C4663 C4660 1.511 . S
C4663 H4677 0.961 . S
C4663 H4678 0.961 . S
C4663 H4679 0.961 . S
C4664 C4665 1.370 . S
C4664 C4666 1.363 . S
C4664 H4680 0.931 . S
C4665 C4664 1.370 . S
C4665 C4669 1.408 1_554 S
C4666 C4664 1.363 . S
C4666 C4667 1.370 . S
C4666 C4670 1.524 . S
C4667 C4659 1.503 . S
C4667 C4666 1.370 . S
C4667 C4668 1.387 1_554 S
C4668 C4667 1.387 1_556 S
C4668 C4669 1.410 . S
C4668 C4671 1.548 . S
C4669 C4665 1.408 1_556 S
C4669 C4668 1.410 . S
C4669 H4681 0.930 . S
C4670 C4666 1.524 . S
C4670 H4682 0.956 . S
C4670 H4683 0.961 . S
C4670 H4684 0.961 . S
C4671 C4668 1.548 . S
C4671 H4685 0.958 . S
C4671 H4686 0.961 . S
C4671 H4687 0.960 . S
H4672 C4656 0.931 . S
H4673 C4661 0.929 . S
H4674 C4662 0.960 . S
H4675 C4662 0.962 . S
H4676 C4662 0.960 . S
H4677 C4663 0.961 . S
H4678 C4663 0.961 . S
H4679 C4663 0.961 . S
H4680 C4664 0.931 . S
H4681 C4669 0.930 . S
H4682 C4670 0.956 . S
H4683 C4670 0.961 . S
H4684 C4670 0.961 . S
H4685 C4671 0.958 . S
H4686 C4671 0.961 . S
H4687 C4671 0.960 . S
C4688 C4689 1.391 . S
C4688 C4690 1.394 . S
C4688 H4704 0.931 . S
C4689 C4688 1.391 . S
C4689 C4693 1.376 . S
C4690 C4688 1.394 . S
C4690 C4691 1.369 . S
C4690 C4694 1.531 . S
C4691 C4690 1.369 . S
C4691 C4692 1.410 . S
C4691 C4699 1.503 . S
C4692 C4691 1.410 . S
C4692 C4693 1.392 . S
C4692 C4695 1.511 . S
C4693 C4689 1.376 . S
C4693 C4692 1.392 . S
C4693 H4705 0.929 . S
C4694 C4690 1.531 . S
C4694 H4706 0.960 . S
C4694 H4707 0.962 . S
C4694 H4708 0.960 . S
C4695 C4692 1.511 . S
C4695 H4709 0.961 . S
C4695 H4710 0.961 . S
C4695 H4711 0.961 . S
C4696 C4697 1.370 . S
C4696 C4698 1.363 . S
C4696 H4712 0.931 . S
C4697 C4696 1.370 . S
C4697 C4701 1.408 . S
C4698 C4696 1.363 . S
C4698 C4699 1.370 . S
C4698 C4702 1.524 . S
C4699 C4691 1.503 . S
C4699 C4698 1.370 . S
C4699 C4700 1.403 . S
C4700 C4699 1.403 . S
C4700 C4701 1.404 . S
C4700 C4703 1.539 . S
C4701 C4697 1.408 . S
C4701 C4700 1.404 . S
C4701 H4713 0.930 . S
C4702 C4698 1.524 . S
C4702 H4714 0.956 . S
C4702 H4715 0.961 . S
C4702 H4716 0.961 . S
C4703 C4700 1.539 . S
C4703 H4717 0.958 . S
C4703 H4718 0.961 . S
C4703 H4719 0.960 . S
H4704 C4688 0.931 . S
H4705 C4693 0.929 . S
H4706 C4694 0.960 . S
H4707 C4694 0.962 . S
H4708 C4694 0.960 . S
H4709 C4695 0.961 . S
H4710 C4695 0.961 . S
H4711 C4695 0.961 . S
H4712 C4696 0.931 . S
H4713 C4701 0.930 . S
H4714 C4702 0.956 . S
H4715 C4702 0.961 . S
H4716 C4702 0.961 . S
H4717 C4703 0.958 . S
H4718 C4703 0.961 . S
H4719 C4703 0.960 . S
C4720 C4721 1.391 . S
C4720 C4722 1.394 . S
C4720 H4736 0.931 . S
C4721 C4720 1.391 . S
C4721 C4725 1.376 . S
C4722 C4720 1.394 . S
C4722 C4723 1.369 . S
C4722 C4726 1.531 . S
C4723 C4722 1.369 . S
C4723 C4724 1.410 . S
C4723 C4731 1.503 . S
C4724 C4723 1.410 . S
C4724 C4725 1.392 . S
C4724 C4727 1.511 . S
C4725 C4721 1.376 . S
C4725 C4724 1.392 . S
C4725 H4737 0.929 . S
C4726 C4722 1.531 . S
C4726 H4738 0.960 . S
C4726 H4739 0.962 . S
C4726 H4740 0.960 . S
C4727 C4724 1.511 . S
C4727 H4741 0.961 . S
C4727 H4742 0.961 . S
C4727 H4743 0.961 . S
C4728 C4729 1.370 . S
C4728 C4730 1.363 . S
C4728 H4744 0.931 . S
C4729 C4728 1.370 . S
C4729 C4733 1.408 . S
C4730 C4728 1.363 . S
C4730 C4731 1.370 . S
C4730 C4734 1.524 . S
C4731 C4723 1.503 . S
C4731 C4730 1.370 . S
C4731 C4732 1.403 . S
C4732 C4731 1.403 . S
C4732 C4733 1.404 . S
C4732 C4735 1.539 . S
C4733 C4729 1.408 . S
C4733 C4732 1.404 . S
C4733 H4745 0.930 . S
C4734 C4730 1.524 . S
C4734 H4746 0.956 . S
C4734 H4747 0.961 . S
C4734 H4748 0.961 . S
C4735 C4732 1.539 . S
C4735 H4749 0.958 . S
C4735 H4750 0.961 . S
C4735 H4751 0.960 . S
H4736 C4720 0.931 . S
H4737 C4725 0.929 . S
H4738 C4726 0.960 . S
H4739 C4726 0.962 . S
H4740 C4726 0.960 . S
H4741 C4727 0.961 . S
H4742 C4727 0.961 . S
H4743 C4727 0.961 . S
H4744 C4728 0.931 . S
H4745 C4733 0.930 . S
H4746 C4734 0.956 . S
H4747 C4734 0.961 . S
H4748 C4734 0.961 . S
H4749 C4735 0.958 . S
H4750 C4735 0.961 . S
H4751 C4735 0.960 . S
C1681 C109 1.776 . S
C1689 C392 1.645 . S
C1713 C65 2.224 . S
C1721 C483 2.157 . S
C1745 C75 1.559 . S
C1753 C560 1.477 . S
C1785 C658 1.498 . S
C1777 C84 1.612 . S
C1809 C25 1.539 . S
C1817 C742 1.518 . S
C1849 C814 0.944 . S
C1841 C28 0.961 . S
C1881 C903 0.930 . S
C1873 C47 0.887 . S
C1905 C9 1.529 . S
C1913 C980 1.320 . S
C1945 C399 2.080 . S
C1937 C233 2.190 . S
C1969 C249 0.713 . S
C1977 C490 0.683 . S
C2009 C567 1.208 . S
C2001 C275 1.276 . S
C2041 C644 1.539 . S
C2033 C173 1.647 . S
C2065 C224 2.126 . S
C2073 C728 2.025 . S
C2105 C830 1.147 . S
C2097 C243 1.212 . S
C2137 C910 0.741 . S
C2129 C266 0.771 . S
C2169 C987 1.466 . S
C2161 C179 1.570 . S
C2201 C406 1.446 . S
C2193 C163 1.523 . S
C2225 C289 1.952 . S
C2233 C1071 1.868 1_556 S
C2265 C1159 2.176 . S
C2257 C333 2.355 . S
C2297 C1232 0.546 . S
C2289 C308 0.456 . S
C2321 C123 0.955 . S
C2329 C994 0.979 . S
C2353 C126 1.451 . S
C2361 C574 1.436 . S
C2385 C327 2.286 . S
C2393 C1323 2.204 . S
C2425 C1400 0.822 . S
C2417 C299 0.805 . S
C2457 C403 1.659 . S
C2449 C67 1.819 . S
C2489 C1418 2.181 . S
C2481 C98 2.175 . S
C2513 C89 1.608 . S
C2521 C571 1.521 . S
C2545 C79 1.660 . S
C2553 C1318 1.529 . S
C2585 C730 1.508 . S
C2577 C11 1.528 . S
C2609 C51 1.007 . S
C2617 C1162 0.933 . S
C2649 C914 0.997 . S
C2641 C33 0.969 . S
C2681 C1495 1.355 . S
C2673 C14 1.485 . S
C2713 C410 2.078 . S
C2705 C140 2.173 . S
C2745 C1402 0.732 . S
C2737 C319 0.710 . S
C2769 C112 1.263 . S
C2777 C578 1.250 . S
C2801 C285 1.667 . S
C2809 C1327 1.568 . S
C2833 C149 2.219 . S
C2841 C739 2.034 . S
C2873 C1155 1.169 . S
C2865 C313 1.235 . S
C2897 C121 0.822 . S
C2905 C898 0.837 . S
C2929 C291 1.614 . S
C2937 C1502 1.502 . S
C2961 C182 1.509 . S
C2969 C394 1.404 1_554 S
C2993 C168 1.950 . S
C3001 C1082 1.902 . S
C3025 C263 2.401 . S
C3033 C812 2.249 . S
C3057 C247 0.514 . S
C3065 C1243 0.565 . S
C3097 C1486 0.924 . S
C3089 C277 0.895 1_565 S
C3121 C219 1.515 . S
C3129 C562 1.453 . S
C3161 C662 2.242 . S
C3153 C257 2.325 . S
C3193 C487 0.813 . S
C3185 C201 0.803 . S
C3217 C81 1.779 . S
C3225 C1568 1.657 . S
C3257 C1407 2.160 . S
C3249 C93 2.218 . S
C3281 C103 1.579 . S
C3289 C1652 1.489 . S
C3313 C56 1.580 . S
C3321 C1330 1.464 . S
C3345 C53 1.550 . S
C3353 C1078 1.524 . S
C3385 C1150 0.892 . S
C3377 C0 0.953 . S
C3417 C1239 0.942 . S
C3409 C19 0.956 . S
C3449 C1484 1.363 . S
C3441 C37 1.477 . S
C3481 C1575 2.085 . S
C3473 C261 2.187 . S
C3505 C193 0.717 . S
C3513 C1414 0.688 . S
C3545 C1659 1.208 . S
C3537 C205 1.280 . S
C3577 C1316 1.542 . S
C3569 C215 1.646 . S
C3609 C1064 2.021 . S
C3601 C252 2.124 . S
C3633 C187 1.237 . S
C3641 C1166 1.106 . S
C3673 C1246 0.807 . S
C3665 C196 0.806 . S
C3697 C221 1.585 . S
C3705 C1491 1.443 . S
C3737 C1582 1.446 . S
C3729 C317 1.507 . S
C3761 C135 1.952 . S
C3769 C735 1.879 . S
C3801 C823 2.196 . S
C3793 C151 2.345 . S
C3833 C896 0.560 . S
C3825 C154 0.443 . S
C3865 C1498 0.983 . S
C3857 C305 0.942 . S
C3889 C280 1.443 . S
C3897 C1666 1.431 . S
C3929 C651 2.192 . S
C3921 C145 2.275 . S
C3961 C476 0.764 . S
C3953 C117 0.819 . S
C3985 C95 1.795 . S
C3993 C1579 1.687 . S
C4025 C494 2.191 . S
C4017 C70 2.178 . S
C4049 C61 1.612 . S
C4057 C1663 1.530 . S
C4081 C107 1.660 . S
C4089 C646 1.532 . S
C4113 C39 1.558 . S
C4121 C1066 1.530 . S
C4153 C826 0.965 . S
C4145 C23 0.985 . S
C4177 C5 0.981 . S
C4185 C1250 0.999 . S
C4209 C42 1.510 . S
C4217 C991 1.319 . S
C4249 C1586 2.075 . S
C4241 C322 2.180 . S
C4273 C165 0.715 . S
C4281 C478 0.688 . S
C4313 C1670 1.237 . S
C4305 C294 1.235 . S
C4337 C131 1.654 . S
C4345 C655 1.545 . S
C4369 C331 2.218 . S
C4377 C1075 2.034 . S
C4409 C819 1.173 . S
C4401 C159 1.234 . S
C4433 C303 0.825 . S
C4441 C1234 0.817 1_655 S
C4473 C998 1.510 . S
C4465 C137 1.613 . S
C4505 C1570 1.437 . S
C4497 C238 1.511 . S
C4537 C746 1.886 1_665 S
C4529 C210 1.926 . S
C4561 C235 2.402 . S
C4569 C1148 2.247 . S
C4601 C907 0.529 . S
C4593 C191 0.474 . S
C4625 C207 0.914 . S
C4633 C982 0.927 . S
C4657 C177 1.515 . S
C4665 C1654 1.455 1_554 S
C4697 C1334 2.246 . S
C4689 C229 2.326 1_565 S
C4729 C1411 0.790 . S
C4721 C271 0.815 . S
