# Generated by pormake.
# Topology gar, (4,6)-cn, num edge types: 1
# Building blocks:
#     Node 0, Type 0, BuildingBlock: GALJAG_clean_sbu_0, # of connection points: 4
#     Node 1, Type 0, BuildingBlock: GALJAG_clean_sbu_0, # of connection points: 4
#     Node 2, Type 0, BuildingBlock: GALJAG_clean_sbu_0, # of connection points: 4
#     Node 3, Type 0, BuildingBlock: GALJAG_clean_sbu_0, # of connection points: 4
#     Node 4, Type 0, BuildingBlock: GALJAG_clean_sbu_0, # of connection points: 4
#     Node 5, Type 0, BuildingBlock: GALJAG_clean_sbu_0, # of connection points: 4
#     Node 6, Type 0, BuildingBlock: GALJAG_clean_sbu_0, # of connection points: 4
#     Node 7, Type 0, BuildingBlock: GALJAG_clean_sbu_0, # of connection points: 4
#     Node 8, Type 0, BuildingBlock: GALJAG_clean_sbu_0, # of connection points: 4
#     Node 9, Type 0, BuildingBlock: GALJAG_clean_sbu_0, # of connection points: 4
#     Node 10, Type 0, BuildingBlock: GALJAG_clean_sbu_0, # of connection points: 4
#     Node 11, Type 0, BuildingBlock: GALJAG_clean_sbu_0, # of connection points: 4
#     Node 12, Type 0, BuildingBlock: GALJAG_clean_sbu_0, # of connection points: 4
#     Node 13, Type 0, BuildingBlock: GALJAG_clean_sbu_0, # of connection points: 4
#     Node 14, Type 0, BuildingBlock: GALJAG_clean_sbu_0, # of connection points: 4
#     Node 15, Type 0, BuildingBlock: GALJAG_clean_sbu_0, # of connection points: 4
#     Node 16, Type 0, BuildingBlock: GALJAG_clean_sbu_0, # of connection points: 4
#     Node 17, Type 0, BuildingBlock: GALJAG_clean_sbu_0, # of connection points: 4
#     Node 18, Type 0, BuildingBlock: GALJAG_clean_sbu_0, # of connection points: 4
#     Node 19, Type 0, BuildingBlock: GALJAG_clean_sbu_0, # of connection points: 4
#     Node 20, Type 0, BuildingBlock: GALJAG_clean_sbu_0, # of connection points: 4
#     Node 21, Type 0, BuildingBlock: GALJAG_clean_sbu_0, # of connection points: 4
#     Node 22, Type 0, BuildingBlock: GALJAG_clean_sbu_0, # of connection points: 4
#     Node 23, Type 0, BuildingBlock: GALJAG_clean_sbu_0, # of connection points: 4
#     Node 24, Type 1, BuildingBlock: BETDIP_clean_sbu_0, # of connection points: 6
#     Node 25, Type 1, BuildingBlock: BETDIP_clean_sbu_0, # of connection points: 6
#     Node 26, Type 1, BuildingBlock: BETDIP_clean_sbu_0, # of connection points: 6
#     Node 27, Type 1, BuildingBlock: BETDIP_clean_sbu_0, # of connection points: 6
#     Node 28, Type 1, BuildingBlock: BETDIP_clean_sbu_0, # of connection points: 6
#     Node 29, Type 1, BuildingBlock: BETDIP_clean_sbu_0, # of connection points: 6
#     Node 30, Type 1, BuildingBlock: BETDIP_clean_sbu_0, # of connection points: 6
#     Node 31, Type 1, BuildingBlock: BETDIP_clean_sbu_0, # of connection points: 6
#     Node 32, Type 1, BuildingBlock: BETDIP_clean_sbu_0, # of connection points: 6
#     Node 33, Type 1, BuildingBlock: BETDIP_clean_sbu_0, # of connection points: 6
#     Node 34, Type 1, BuildingBlock: BETDIP_clean_sbu_0, # of connection points: 6
#     Node 35, Type 1, BuildingBlock: BETDIP_clean_sbu_0, # of connection points: 6
#     Node 36, Type 1, BuildingBlock: BETDIP_clean_sbu_0, # of connection points: 6
#     Node 37, Type 1, BuildingBlock: BETDIP_clean_sbu_0, # of connection points: 6
#     Node 38, Type 1, BuildingBlock: BETDIP_clean_sbu_0, # of connection points: 6
#     Node 39, Type 1, BuildingBlock: BETDIP_clean_sbu_0, # of connection points: 6
#     Edge 40, Type (0, 1), BuildingBlock: ZUJKAS_clean_linker_0, # of connection points: 2
#     Edge 41, Type (0, 1), BuildingBlock: ZUJKAS_clean_linker_0, # of connection points: 2
#     Edge 42, Type (0, 1), BuildingBlock: ZUJKAS_clean_linker_0, # of connection points: 2
#     Edge 43, Type (0, 1), BuildingBlock: ZUJKAS_clean_linker_0, # of connection points: 2
#     Edge 44, Type (0, 1), BuildingBlock: ZUJKAS_clean_linker_0, # of connection points: 2
#     Edge 45, Type (0, 1), BuildingBlock: ZUJKAS_clean_linker_0, # of connection points: 2
#     Edge 46, Type (0, 1), BuildingBlock: ZUJKAS_clean_linker_0, # of connection points: 2
#     Edge 47, Type (0, 1), BuildingBlock: ZUJKAS_clean_linker_0, # of connection points: 2
#     Edge 48, Type (0, 1), BuildingBlock: ZUJKAS_clean_linker_0, # of connection points: 2
#     Edge 49, Type (0, 1), BuildingBlock: ZUJKAS_clean_linker_0, # of connection points: 2
#     Edge 50, Type (0, 1), BuildingBlock: ZUJKAS_clean_linker_0, # of connection points: 2
#     Edge 51, Type (0, 1), BuildingBlock: ZUJKAS_clean_linker_0, # of connection points: 2
#     Edge 52, Type (0, 1), BuildingBlock: ZUJKAS_clean_linker_0, # of connection points: 2
#     Edge 53, Type (0, 1), BuildingBlock: ZUJKAS_clean_linker_0, # of connection points: 2
#     Edge 54, Type (0, 1), BuildingBlock: ZUJKAS_clean_linker_0, # of connection points: 2
#     Edge 55, Type (0, 1), BuildingBlock: ZUJKAS_clean_linker_0, # of connection points: 2
#     Edge 56, Type (0, 1), BuildingBlock: ZUJKAS_clean_linker_0, # of connection points: 2
#     Edge 57, Type (0, 1), BuildingBlock: ZUJKAS_clean_linker_0, # of connection points: 2
#     Edge 58, Type (0, 1), BuildingBlock: ZUJKAS_clean_linker_0, # of connection points: 2
#     Edge 59, Type (0, 1), BuildingBlock: ZUJKAS_clean_linker_0, # of connection points: 2
#     Edge 60, Type (0, 1), BuildingBlock: ZUJKAS_clean_linker_0, # of connection points: 2
#     Edge 61, Type (0, 1), BuildingBlock: ZUJKAS_clean_linker_0, # of connection points: 2
#     Edge 62, Type (0, 1), BuildingBlock: ZUJKAS_clean_linker_0, # of connection points: 2
#     Edge 63, Type (0, 1), BuildingBlock: ZUJKAS_clean_linker_0, # of connection points: 2
#     Edge 64, Type (0, 1), BuildingBlock: ZUJKAS_clean_linker_0, # of connection points: 2
#     Edge 65, Type (0, 1), BuildingBlock: ZUJKAS_clean_linker_0, # of connection points: 2
#     Edge 66, Type (0, 1), BuildingBlock: ZUJKAS_clean_linker_0, # of connection points: 2
#     Edge 67, Type (0, 1), BuildingBlock: ZUJKAS_clean_linker_0, # of connection points: 2
#     Edge 68, Type (0, 1), BuildingBlock: ZUJKAS_clean_linker_0, # of connection points: 2
#     Edge 69, Type (0, 1), BuildingBlock: ZUJKAS_clean_linker_0, # of connection points: 2
#     Edge 70, Type (0, 1), BuildingBlock: ZUJKAS_clean_linker_0, # of connection points: 2
#     Edge 71, Type (0, 1), BuildingBlock: ZUJKAS_clean_linker_0, # of connection points: 2
#     Edge 72, Type (0, 1), BuildingBlock: ZUJKAS_clean_linker_0, # of connection points: 2
#     Edge 73, Type (0, 1), BuildingBlock: ZUJKAS_clean_linker_0, # of connection points: 2
#     Edge 74, Type (0, 1), BuildingBlock: ZUJKAS_clean_linker_0, # of connection points: 2
#     Edge 75, Type (0, 1), BuildingBlock: ZUJKAS_clean_linker_0, # of connection points: 2
#     Edge 76, Type (0, 1), BuildingBlock: ZUJKAS_clean_linker_0, # of connection points: 2
#     Edge 77, Type (0, 1), BuildingBlock: ZUJKAS_clean_linker_0, # of connection points: 2
#     Edge 78, Type (0, 1), BuildingBlock: ZUJKAS_clean_linker_0, # of connection points: 2
#     Edge 79, Type (0, 1), BuildingBlock: ZUJKAS_clean_linker_0, # of connection points: 2
#     Edge 80, Type (0, 1), BuildingBlock: ZUJKAS_clean_linker_0, # of connection points: 2
#     Edge 81, Type (0, 1), BuildingBlock: ZUJKAS_clean_linker_0, # of connection points: 2
#     Edge 82, Type (0, 1), BuildingBlock: ZUJKAS_clean_linker_0, # of connection points: 2
#     Edge 83, Type (0, 1), BuildingBlock: ZUJKAS_clean_linker_0, # of connection points: 2
#     Edge 84, Type (0, 1), BuildingBlock: ZUJKAS_clean_linker_0, # of connection points: 2
#     Edge 85, Type (0, 1), BuildingBlock: ZUJKAS_clean_linker_0, # of connection points: 2
#     Edge 86, Type (0, 1), BuildingBlock: ZUJKAS_clean_linker_0, # of connection points: 2
#     Edge 87, Type (0, 1), BuildingBlock: ZUJKAS_clean_linker_0, # of connection points: 2
#     Edge 88, Type (0, 1), BuildingBlock: ZUJKAS_clean_linker_0, # of connection points: 2
#     Edge 89, Type (0, 1), BuildingBlock: ZUJKAS_clean_linker_0, # of connection points: 2
#     Edge 90, Type (0, 1), BuildingBlock: ZUJKAS_clean_linker_0, # of connection points: 2
#     Edge 91, Type (0, 1), BuildingBlock: ZUJKAS_clean_linker_0, # of connection points: 2
#     Edge 92, Type (0, 1), BuildingBlock: ZUJKAS_clean_linker_0, # of connection points: 2
#     Edge 93, Type (0, 1), BuildingBlock: ZUJKAS_clean_linker_0, # of connection points: 2
#     Edge 94, Type (0, 1), BuildingBlock: ZUJKAS_clean_linker_0, # of connection points: 2
#     Edge 95, Type (0, 1), BuildingBlock: ZUJKAS_clean_linker_0, # of connection points: 2
#     Edge 96, Type (0, 1), BuildingBlock: ZUJKAS_clean_linker_0, # of connection points: 2
#     Edge 97, Type (0, 1), BuildingBlock: ZUJKAS_clean_linker_0, # of connection points: 2
#     Edge 98, Type (0, 1), BuildingBlock: ZUJKAS_clean_linker_0, # of connection points: 2
#     Edge 99, Type (0, 1), BuildingBlock: ZUJKAS_clean_linker_0, # of connection points: 2
#     Edge 100, Type (0, 1), BuildingBlock: ZUJKAS_clean_linker_0, # of connection points: 2
#     Edge 101, Type (0, 1), BuildingBlock: ZUJKAS_clean_linker_0, # of connection points: 2
#     Edge 102, Type (0, 1), BuildingBlock: ZUJKAS_clean_linker_0, # of connection points: 2
#     Edge 103, Type (0, 1), BuildingBlock: ZUJKAS_clean_linker_0, # of connection points: 2
#     Edge 104, Type (0, 1), BuildingBlock: ZUJKAS_clean_linker_0, # of connection points: 2
#     Edge 105, Type (0, 1), BuildingBlock: ZUJKAS_clean_linker_0, # of connection points: 2
#     Edge 106, Type (0, 1), BuildingBlock: ZUJKAS_clean_linker_0, # of connection points: 2
#     Edge 107, Type (0, 1), BuildingBlock: ZUJKAS_clean_linker_0, # of connection points: 2
#     Edge 108, Type (0, 1), BuildingBlock: ZUJKAS_clean_linker_0, # of connection points: 2
#     Edge 109, Type (0, 1), BuildingBlock: ZUJKAS_clean_linker_0, # of connection points: 2
#     Edge 110, Type (0, 1), BuildingBlock: ZUJKAS_clean_linker_0, # of connection points: 2
#     Edge 111, Type (0, 1), BuildingBlock: ZUJKAS_clean_linker_0, # of connection points: 2
#     Edge 112, Type (0, 1), BuildingBlock: ZUJKAS_clean_linker_0, # of connection points: 2
#     Edge 113, Type (0, 1), BuildingBlock: ZUJKAS_clean_linker_0, # of connection points: 2
#     Edge 114, Type (0, 1), BuildingBlock: ZUJKAS_clean_linker_0, # of connection points: 2
#     Edge 115, Type (0, 1), BuildingBlock: ZUJKAS_clean_linker_0, # of connection points: 2
#     Edge 116, Type (0, 1), BuildingBlock: ZUJKAS_clean_linker_0, # of connection points: 2
#     Edge 117, Type (0, 1), BuildingBlock: ZUJKAS_clean_linker_0, # of connection points: 2
#     Edge 118, Type (0, 1), BuildingBlock: ZUJKAS_clean_linker_0, # of connection points: 2
#     Edge 119, Type (0, 1), BuildingBlock: ZUJKAS_clean_linker_0, # of connection points: 2
#     Edge 120, Type (0, 1), BuildingBlock: ZUJKAS_clean_linker_0, # of connection points: 2
#     Edge 121, Type (0, 1), BuildingBlock: ZUJKAS_clean_linker_0, # of connection points: 2
#     Edge 122, Type (0, 1), BuildingBlock: ZUJKAS_clean_linker_0, # of connection points: 2
#     Edge 123, Type (0, 1), BuildingBlock: ZUJKAS_clean_linker_0, # of connection points: 2
#     Edge 124, Type (0, 1), BuildingBlock: ZUJKAS_clean_linker_0, # of connection points: 2
#     Edge 125, Type (0, 1), BuildingBlock: ZUJKAS_clean_linker_0, # of connection points: 2
#     Edge 126, Type (0, 1), BuildingBlock: ZUJKAS_clean_linker_0, # of connection points: 2
#     Edge 127, Type (0, 1), BuildingBlock: ZUJKAS_clean_linker_0, # of connection points: 2
#     Edge 128, Type (0, 1), BuildingBlock: ZUJKAS_clean_linker_0, # of connection points: 2
#     Edge 129, Type (0, 1), BuildingBlock: ZUJKAS_clean_linker_0, # of connection points: 2
#     Edge 130, Type (0, 1), BuildingBlock: ZUJKAS_clean_linker_0, # of connection points: 2
#     Edge 131, Type (0, 1), BuildingBlock: ZUJKAS_clean_linker_0, # of connection points: 2
#     Edge 132, Type (0, 1), BuildingBlock: ZUJKAS_clean_linker_0, # of connection points: 2
#     Edge 133, Type (0, 1), BuildingBlock: ZUJKAS_clean_linker_0, # of connection points: 2
#     Edge 134, Type (0, 1), BuildingBlock: ZUJKAS_clean_linker_0, # of connection points: 2
#     Edge 135, Type (0, 1), BuildingBlock: ZUJKAS_clean_linker_0, # of connection points: 2
# Relax obj value: 0.166
# Max RMSD: 0.268
# Mean RMSD: 0.157
data_MOF--net-gar--node1-GALJAG_clean_sbu_0--node2-BETDIP_clean_sbu_0--edge1-ZUJKAS_clean_linker_0
_symmetry_space_group_name_H-M    P1
_symmetry_Int_Tables_number       1
_symmetry_cell_setting            triclinic
loop_
_symmetry_equiv_pos_as_xyz
'x, y, z'
_cell_length_a     79.514797
_cell_length_b     72.323685
_cell_length_c     70.156018
_cell_angle_alpha  95.623761
_cell_angle_beta   97.532797
_cell_angle_gamma 99.701304
loop_
_atom_site_label
_atom_site_type_symbol
_atom_site_fract_x
_atom_site_fract_y
_atom_site_fract_z
_atom_type_partial_charge
In0 In 0.05293 0.31336 0.37881 0.0
O1 O 0.06216 0.32641 0.35272 0.0
O2 O 0.08102 0.32112 0.37482 0.0
C3 C 0.02109 0.30054 0.35905 0.0
C4 C 0.06263 0.28239 0.39199 0.0
C5 C 0.04847 0.34095 0.40543 0.0
O6 O 0.03446 0.30131 0.35104 0.0
O7 O 0.02383 0.30619 0.37696 0.0
O8 O 0.04909 0.32435 0.40909 0.0
O9 O 0.05036 0.34381 0.38832 0.0
C10 C 0.07793 0.32691 0.35859 0.0
O11 O 0.06911 0.29892 0.39985 0.0
O12 O 0.05136 0.28145 0.37734 0.0
In13 In 0.06324 0.75584 0.7014 0.0
O14 O 0.07562 0.78035 0.68701 0.0
O15 O 0.05046 0.78079 0.69388 0.0
C16 C 0.06048 0.72837 0.67164 0.0
C17 C 0.09487 0.76099 0.72234 0.0
C18 C 0.03732 0.74827 0.72242 0.0
O19 O 0.05968 0.74526 0.66925 0.0
O20 O 0.06231 0.72518 0.68909 0.0
O21 O 0.05288 0.75319 0.73017 0.0
O22 O 0.03497 0.74672 0.70419 0.0
C23 C 0.06308 0.78893 0.68678 0.0
O24 O 0.08506 0.77291 0.72371 0.0
O25 O 0.08833 0.74602 0.71118 0.0
In26 In 0.54275 0.8193 0.87529 0.0
O27 O 0.55496 0.83088 0.85006 0.0
O28 O 0.5716 0.82559 0.87429 0.0
C29 C 0.51458 0.80648 0.84858 0.0
C30 C 0.54773 0.78962 0.89437 0.0
C31 C 0.53654 0.84735 0.90029 0.0
O32 O 0.52125 0.82379 0.85236 0.0
O33 O 0.52239 0.79563 0.85792 0.0
O34 O 0.55155 0.84603 0.89704 0.0
O35 O 0.52478 0.83456 0.89102 0.0
C36 C 0.57023 0.83091 0.85768 0.0
O37 O 0.54172 0.80328 0.9017 0.0
O38 O 0.55126 0.79099 0.8775 0.0
In39 In 0.57234 0.26038 0.20717 0.0
O40 O 0.57322 0.22902 0.20012 0.0
O41 O 0.57125 0.24554 0.17679 0.0
C42 C 0.57061 0.28984 0.18674 0.0
C43 C 0.54537 0.256 0.22711 0.0
C44 C 0.60324 0.26976 0.22997 0.0
O45 O 0.58378 0.28226 0.18898 0.0
O46 O 0.55818 0.2824 0.1946 0.0
O47 O 0.59693 0.25298 0.22266 0.0
O48 O 0.59356 0.28154 0.22658 0.0
C49 C 0.57246 0.22962 0.18211 0.0
O50 O 0.56048 0.26332 0.23508 0.0
O51 O 0.54404 0.25024 0.20934 0.0
In52 In 0.07671 0.80176 0.1513 0.0
O53 O 0.07023 0.78044 0.1237 0.0
O54 O 0.07662 0.77018 0.15053 0.0
C55 C 0.078 0.83424 0.13477 0.0
C56 C 0.04718 0.79979 0.16715 0.0
C57 C 0.10913 0.80492 0.17065 0.0
O58 O 0.07863 0.81861 0.12542 0.0
O59 O 0.07686 0.83352 0.15247 0.0
O60 O 0.09586 0.80228 0.17886 0.0
O61 O 0.10608 0.80648 0.15284 0.0
C62 C 0.07241 0.76637 0.13244 0.0
O63 O 0.06197 0.80448 0.17717 0.0
O64 O 0.04731 0.79621 0.14921 0.0
In65 In 0.52375 0.77046 0.42005 0.0
O66 O 0.53819 0.76457 0.39444 0.0
O67 O 0.55296 0.7784 0.42092 0.0
C68 C 0.49119 0.76633 0.40066 0.0
C69 C 0.5238 0.73922 0.43853 0.0
C70 C 0.52751 0.80601 0.43824 0.0
O71 O 0.50444 0.77001 0.39259 0.0
O72 O 0.49435 0.76426 0.41833 0.0
O73 O 0.53011 0.79221 0.44721 0.0
O74 O 0.52318 0.80189 0.42018 0.0
C75 C 0.55295 0.7718 0.4036 0.0
O76 O 0.52265 0.75506 0.44704 0.0
O77 O 0.52473 0.73909 0.42071 0.0
In78 In 0.5751 0.30244 0.65086 0.0
O79 O 0.56695 0.28105 0.6235 0.0
O80 O 0.57398 0.27064 0.6501 0.0
C81 C 0.57757 0.33463 0.63366 0.0
C82 C 0.54595 0.30156 0.66731 0.0
C83 C 0.60754 0.30482 0.66992 0.0
O84 O 0.57798 0.31875 0.62472 0.0
O85 O 0.57604 0.33433 0.6513 0.0
O86 O 0.59461 0.30495 0.6786 0.0
O87 O 0.60415 0.30386 0.65175 0.0
C88 C 0.56897 0.26688 0.63211 0.0
O89 O 0.56086 0.30522 0.67714 0.0
O90 O 0.54578 0.29845 0.64928 0.0
In91 In 0.02422 0.26995 0.92012 0.0
O92 O 0.02865 0.25434 0.94666 0.0
O93 O 0.01863 0.23772 0.9197 0.0
C94 C 0.02869 0.30521 0.93924 0.0
C95 C 0.05321 0.27013 0.90345 0.0
C96 C 0.99185 0.26835 0.90112 0.0
O97 O 0.02524 0.29051 0.94737 0.0
O98 O 0.02997 0.30213 0.92152 0.0
O99 O 1.00488 0.26903 0.8925 0.0
O100 O 0.99512 0.26816 0.91917 0.0
C101 C 0.0235 0.238 0.9376 0.0
O102 O 0.03823 0.26552 0.89385 0.0
O103 O 0.05353 0.27454 0.92135 0.0
In104 In 0.42177 0.05413 0.27751 0.0
O105 O 0.44638 0.05567 0.26135 0.0
O106 O 0.42243 0.05139 0.2435 0.0
C107 C 0.44111 0.05465 0.31464 0.0
C108 C 0.40507 0.08649 0.27721 0.0
C109 C 0.40274 0.01707 0.2751 0.0
O110 O 0.44786 0.05882 0.2999 0.0
O111 O 0.42486 0.05084 0.31087 0.0
O112 O 0.39839 0.03153 0.28325 0.0
O113 O 0.41626 0.02122 0.2676 0.0
C114 C 0.43862 0.05307 0.24408 0.0
O115 O 0.39752 0.0696 0.27177 0.0
O116 O 0.42104 0.0873 0.28256 0.0
In117 In 0.27605 0.16445 0.51434 0.0
O118 O 0.28476 0.19132 0.53593 0.0
O119 O 0.27837 0.16529 0.54725 0.0
C120 C 0.27433 0.18262 0.48214 0.0
C121 C 0.30447 0.14802 0.5151 0.0
C122 C 0.24311 0.14539 0.51213 0.0
O123 O 0.27356 0.19052 0.49876 0.0
O124 O 0.27572 0.16547 0.48166 0.0
O125 O 0.25487 0.13785 0.50591 0.0
O126 O 0.24788 0.1625 0.51908 0.0
C127 C 0.28336 0.18296 0.55077 0.0
O128 O 0.28953 0.1387 0.51507 0.0
O129 O 0.30503 0.16548 0.5146 0.0
In130 In 0.15655 0.05046 0.81081 0.0
O131 O 0.13773 0.03199 0.78578 0.0
O132 O 0.14436 0.06122 0.78368 0.0
C133 C 0.14092 0.05111 0.84287 0.0
C134 C 0.17347 0.02112 0.80899 0.0
C135 C 0.17872 0.08385 0.81493 0.0
O136 O 0.13261 0.04931 0.82599 0.0
O137 O 0.15702 0.05285 0.84355 0.0
O138 O 0.18366 0.06815 0.81439 0.0
O139 O 0.1626 0.08275 0.81373 0.0
C140 C 0.13606 0.04533 0.77583 0.0
O141 O 0.17684 0.03508 0.79976 0.0
O142 O 0.16153 0.02194 0.81908 0.0
In143 In 0.26384 0.89237 0.97384 0.0
O144 O 0.26033 0.86509 0.98782 0.0
O145 O 0.28444 0.88382 0.99505 0.0
C146 C 0.25195 0.87259 0.93858 0.0
C147 C 0.24262 0.91003 0.99292 0.0
C148 C 0.28988 0.9198 0.96968 0.0
O149 O 0.24562 0.86848 0.95349 0.0
O150 O 0.26391 0.88681 0.94141 0.0
O151 O 0.27481 0.92291 0.97056 0.0
O152 O 0.2916 0.90282 0.97039 0.0
C153 C 0.27519 0.86864 0.99771 0.0
O154 O 0.23996 0.90612 0.97472 0.0
O155 O 0.25576 0.90494 1.00125 0.0
In156 In 0.31885 0.4043 0.05529 0.0
O157 O 0.32108 0.3783 0.07102 0.0
O158 O 0.31754 0.40301 0.08767 0.0
C159 C 0.31394 0.38562 0.019 0.0
C160 C 0.29025 0.42034 0.05458 0.0
C161 C 0.35129 0.42459 0.05779 0.0
O162 O 0.31034 0.37755 0.03349 0.0
O163 O 0.31995 0.40308 0.0228 0.0
O164 O 0.33796 0.43194 0.05563 0.0
O165 O 0.3483 0.4071 0.05904 0.0
C166 C 0.31938 0.38601 0.08739 0.0
O167 O 0.30514 0.42925 0.06172 0.0
O168 O 0.28977 0.40338 0.04796 0.0
In169 In 0.82666 0.17128 0.06084 0.0
O170 O 0.84984 0.15656 0.06134 0.0
O171 O 0.84098 0.16673 0.03518 0.0
C172 C 0.80519 0.14523 0.07526 0.0
C173 C 0.84294 0.19946 0.08851 0.0
C174 C 0.80331 0.18117 0.03426 0.0
O175 O 0.81804 0.14131 0.06793 0.0
O176 O 0.80358 0.16232 0.07581 0.0
O177 O 0.81298 0.19308 0.04716 0.0
O178 O 0.80559 0.16437 0.03464 0.0
C179 C 0.85166 0.1583 0.04398 0.0
O180 O 0.8429 0.2007 0.07071 0.0
O181 O 0.83498 0.18398 0.09229 0.0
In182 In 0.17319 0.51511 0.29495 0.0
O183 O 0.19757 0.49952 0.29701 0.0
O184 O 0.17354 0.48174 0.29179 0.0
C185 C 0.19196 0.55223 0.29715 0.0
C186 C 0.15457 0.51412 0.25739 0.0
C187 C 0.15648 0.51663 0.32869 0.0
O188 O 0.19891 0.53815 0.3005 0.0
O189 O 0.17574 0.54775 0.29313 0.0
O190 O 0.14888 0.51022 0.31177 0.0
O191 O 0.1725 0.52188 0.32885 0.0
C192 C 0.18972 0.48254 0.29418 0.0
O193 O 0.14761 0.51261 0.27251 0.0
O194 O 0.17074 0.51532 0.26093 0.0
In195 In 0.81849 0.90745 0.55556 0.0
O196 O 0.81279 0.88053 0.57002 0.0
O197 O 0.82032 0.90659 0.58835 0.0
C198 C 0.81568 0.88738 0.52019 0.0
C199 C 0.79022 0.92394 0.55543 0.0
C200 C 0.85075 0.92822 0.5575 0.0
O201 O 0.82133 0.88134 0.5356 0.0
O202 O 0.81155 0.90341 0.52267 0.0
O203 O 0.83739 0.93311 0.54936 0.0
O204 O 0.84787 0.91308 0.56499 0.0
C205 C 0.81595 0.88884 0.58712 0.0
O206 O 0.80525 0.93278 0.56219 0.0
O207 O 0.78948 0.90682 0.5492 0.0
In208 In 0.93987 0.02271 0.26632 0.0
O209 O 0.96398 0.03007 0.25208 0.0
O210 O 0.94205 1.01245 0.23504 0.0
C211 C 0.95837 0.02995 0.30234 0.0
C212 C 0.92388 0.05252 0.26198 0.0
C213 C 0.91936 0.98851 0.26493 0.0
O214 O 0.96294 0.02033 0.28858 0.0
O215 O 0.94458 0.036 0.29789 0.0
O216 O 0.91474 1.00154 0.25599 0.0
O217 O 0.93435 0.99265 0.27446 0.0
C218 C 0.95735 0.02101 0.2358 0.0
O219 O 0.91763 0.03851 0.26986 0.0
O220 O 0.93822 0.05157 0.2565 0.0
In221 In 0.32915 0.67378 0.56037 0.0
O222 O 0.35418 0.66355 0.55729 0.0
O223 O 0.33996 0.6703 0.53188 0.0
C224 C 0.30749 0.64269 0.56645 0.0
C225 C 0.34602 0.69344 0.59391 0.0
C226 C 0.30962 0.69611 0.54268 0.0
O227 O 0.32058 0.64168 0.5583 0.0
O228 O 0.30563 0.65926 0.57185 0.0
O229 O 0.32081 0.70211 0.55738 0.0
O230 O 0.30841 0.67886 0.53668 0.0
C231 C 0.3532 0.66467 0.53936 0.0
O232 O 0.33421 0.67923 0.59329 0.0
O233 O 0.34958 0.6974 0.57762 0.0
In234 In 0.43952 0.51972 0.7612 0.0
O235 O 0.41994 0.534 0.74417 0.0
O236 O 0.43557 0.54988 0.76924 0.0
C237 C 0.41806 0.48628 0.76063 0.0
C238 C 0.45871 0.52199 0.73212 0.0
C239 C 0.45678 0.52329 0.79754 0.0
O240 O 0.41304 0.50193 0.76179 0.0
O241 O 0.43393 0.48745 0.75974 0.0
O242 O 0.46284 0.51703 0.78296 0.0
O243 O 0.44208 0.52761 0.79374 0.0
C244 C 0.42384 0.54944 0.75516 0.0
O245 O 0.46358 0.53164 0.74848 0.0
O246 O 0.44445 0.51087 0.73063 0.0
In247 In 0.67359 0.01714 0.80046 0.0
O248 O 0.698 1.00158 0.80379 0.0
O249 O 0.67409 0.98392 0.79523 0.0
C250 C 0.69197 0.05438 0.80222 0.0
C251 C 0.65503 1.01558 0.76288 0.0
C252 C 0.65714 0.01896 0.83442 0.0
O253 O 0.69919 0.04016 0.80376 0.0
O254 O 0.67573 0.04997 0.80039 0.0
O255 O 0.64923 1.01579 0.81725 0.0
O256 O 0.67328 0.02091 0.83468 0.0
C257 C 0.6902 0.98467 0.79916 0.0
O258 O 0.64831 1.00936 0.77692 0.0
O259 O 0.67102 0.02182 0.76748 0.0
In260 In 0.77558 0.66317 0.01625 0.0
O261 O 0.79028 0.63938 1.0081 0.0
O262 O 0.80427 0.66388 0.02601 0.0
C263 C 0.7432 0.64269 0.0141 0.0
C264 C 0.77841 0.68154 0.05232 0.0
C265 C 0.77728 0.68231 0.98482 0.0
O266 O 0.75656 0.63537 0.01585 0.0
O267 O 0.74613 0.66022 0.0131 0.0
O268 O 0.78134 0.69026 1.002 0.0
O269 O 0.77239 0.66465 0.98339 0.0
C270 C 0.80457 0.64776 0.01761 0.0
O271 O 0.77615 0.68961 0.03726 0.0
O272 O 0.77903 0.66421 0.04916 0.0
In273 In 0.92157 0.55568 0.77291 0.0
O274 O 0.89711 0.57102 0.76833 0.0
O275 O 0.92061 0.58873 0.77909 0.0
C276 C 0.90347 0.51838 0.7712 0.0
C277 C 0.93796 0.55409 0.73895 0.0
C278 C 0.94027 0.55686 0.81037 0.0
O279 O 0.89618 0.53266 0.77094 0.0
O280 O 0.9196 0.52279 0.77179 0.0
O281 O 0.94689 0.56337 0.7964 0.0
O282 O 0.9243 0.5505 0.80576 0.0
C283 C 0.90461 0.58789 0.77401 0.0
O284 O 0.94592 0.55829 0.75606 0.0
O285 O 0.9218 0.55105 0.73876 0.0
In286 In 0.76135 0.39627 0.48584 0.0
O287 O 0.76439 0.37313 0.50502 0.0
O288 O 0.78581 0.39554 0.50648 0.0
C289 C 0.75573 0.37422 0.4514 0.0
C290 C 0.73174 0.40123 0.49884 0.0
C291 C 0.78165 0.43004 0.48533 0.0
O292 O 0.76624 0.37196 0.46563 0.0
O293 O 0.74773 0.38759 0.45449 0.0
O294 O 0.77297 0.42658 0.49879 0.0
O295 O 0.77985 0.41655 0.47193 0.0
C296 C 0.77966 0.38039 0.51262 0.0
O297 O 0.73753 0.41007 0.48575 0.0
O298 O 0.74057 0.38951 0.50486 0.0
In299 In 0.65768 0.55019 0.30555 0.0
O300 O 0.68267 0.5389 0.30431 0.0
O301 O 0.66025 0.51951 0.30754 0.0
C302 C 0.67894 0.58384 0.3067 0.0
C303 C 0.63512 0.54464 0.27207 0.0
C304 C 0.64328 0.54865 0.33831 0.0
O305 O 0.66927 0.58045 0.31931 0.0
O306 O 0.67789 0.57029 0.29357 0.0
O307 O 0.63503 0.55153 0.32257 0.0
O308 O 0.65868 0.54692 0.3375 0.0
C309 C 0.67614 0.52215 0.30625 0.0
O310 O 0.64265 0.53192 0.27818 0.0
O311 O 0.63861 0.56008 0.28305 0.0
Tb312 Tb 0.03129 0.02901 0.03366 0.0
Tb313 Tb 0.06845 0.0466 0.04662 0.0
C314 C 1.00009 1.0139 0.0289 0.0
C315 C 0.98512 0.01949 0.01791 0.0
C316 C 0.97042 0.02061 0.02665 0.0
C317 C 0.95769 0.02977 0.01837 0.0
C318 C 0.95945 0.03793 1.00115 0.0
C319 C 0.97362 0.03558 0.99172 0.0
C320 C 0.9864 0.02655 1.00009 0.0
C321 C 0.05015 0.03224 1.00572 0.0
C322 C 0.04191 0.07137 0.02871 0.0
C323 C 0.09973 0.06145 0.05116 0.0
C324 C 0.11476 0.05387 0.05906 0.0
C325 C 0.13058 0.059 0.05252 0.0
C326 C 0.14378 0.04883 0.05668 0.0
C327 C 0.14122 0.03332 0.0673 0.0
C328 C 0.12576 0.02911 0.07496 0.0
C329 C 0.11261 0.03928 0.07082 0.0
C330 C 0.04949 0.04317 0.07447 0.0
C331 C 0.05784 1.00427 0.05112 0.0
O332 O 1.00757 0.02588 0.04406 0.0
O333 O 1.01124 1.00791 0.01874 0.0
O334 O 0.05483 0.02778 0.02224 0.0
O335 O 0.03408 0.03386 1.00399 0.0
O336 O 0.0288 0.05796 0.03023 0.0
O337 O 0.05814 0.06917 0.03292 0.0
O338 O 0.09137 0.05211 0.0348 0.0
O339 O 0.08937 0.06525 0.06344 0.0
O340 O 0.04492 0.04781 0.05801 0.0
O341 O 0.0655 0.0413 0.07618 0.0
O342 O 0.0708 0.01732 0.04842 0.0
O343 O 0.04168 1.00702 0.04836 0.0
H344 H 0.9693 1.01544 0.04051 0.0
H345 H 0.94709 0.03154 0.02621 0.0
H346 H 0.97523 0.04146 0.97832 0.0
H347 H 0.99769 0.02598 0.99308 0.0
H348 H 0.13234 0.07009 0.04325 0.0
H349 H 0.15549 0.05223 0.05039 0.0
H350 H 0.1235 0.01731 0.08328 0.0
H351 H 0.10041 0.03501 0.07589 0.0
Tb352 Tb 0.30146 0.77757 0.26512 0.0
Tb353 Tb 0.29666 0.79047 0.30739 0.0
C354 C 0.29523 0.7686 0.2292 0.0
C355 C 0.29117 0.77739 0.2117 0.0
C356 C 0.29404 0.7971 0.21212 0.0
C357 C 0.29223 0.80515 0.19483 0.0
C358 C 0.28749 0.79357 0.17697 0.0
C359 C 0.28392 0.77384 0.17678 0.0
C360 C 0.28578 0.76582 0.19403 0.0
C361 C 0.32747 0.77179 0.29056 0.0
C362 C 0.31614 0.82069 0.28236 0.0
C363 C 0.29915 0.80278 0.34244 0.0
C364 C 0.29017 0.79757 0.35873 0.0
C365 C 0.2885 0.77919 0.36396 0.0
C366 C 0.28101 0.77484 0.38023 0.0
C367 C 0.27481 0.78867 0.3915 0.0
C368 C 0.27581 0.80685 0.38569 0.0
C369 C 0.28351 0.81127 0.3695 0.0
C370 C 0.26979 0.78805 0.28053 0.0
C371 C 0.28375 0.74702 0.29099 0.0
O372 O 0.2833 0.76643 0.24049 0.0
O373 O 0.3108 0.77469 0.23881 0.0
O374 O 0.31445 0.77865 0.29329 0.0
O375 O 0.326 0.76716 0.27204 0.0
O376 O 0.3117 0.80816 0.26647 0.0
O377 O 0.31262 0.81612 0.29957 0.0
O378 O 0.3085 0.79095 0.33585 0.0
O379 O 0.29013 0.80941 0.32856 0.0
O380 O 0.28534 0.79384 0.27881 0.0
O381 O 0.26887 0.78448 0.29816 0.0
O382 O 0.28845 0.75961 0.30683 0.0
O383 O 0.28641 0.75167 0.27354 0.0
H384 H 0.29818 0.80621 0.22572 0.0
H385 H 0.29486 0.8204 0.1954 0.0
H386 H 0.28042 0.76455 0.16323 0.0
H387 H 0.2836 0.75057 0.19352 0.0
H388 H 0.29337 0.76827 0.35583 0.0
H389 H 0.28083 0.76079 0.38439 0.0
H390 H 0.27097 0.81778 0.39385 0.0
H391 H 0.28454 0.8255 0.36558 0.0
Tb392 Tb 0.5658 0.03894 0.53578 0.0
Tb393 Tb 0.52869 0.03193 0.54462 0.0
C394 C 0.59795 0.04052 0.54143 0.0
C395 C 0.61174 0.03068 0.5358 0.0
C396 C 0.61016 1.01096 0.53526 0.0
C397 C 0.62452 1.00234 0.5338 0.0
C398 C 0.64076 1.01321 0.53276 0.0
C399 C 0.64198 0.03279 0.53211 0.0
C400 C 0.62765 0.04141 0.5337 0.0
C401 C 0.54371 0.03983 0.50303 0.0
C402 C 0.54309 0.99769 0.52641 0.0
C403 C 0.49742 0.03128 0.54791 0.0
C404 C 0.48355 0.04229 0.54448 0.0
C405 C 0.48408 0.05601 0.53161 0.0
C406 C 0.4702 0.06555 0.52815 0.0
C407 C 0.45557 0.06147 0.53746 0.0
C408 C 0.45536 0.04796 0.5506 0.0
C409 C 0.46918 0.03849 0.55403 0.0
C410 C 0.55296 0.02618 0.57293 0.0
C411 C 0.54954 0.07391 0.54779 0.0
O412 O 0.58718 0.03145 0.55144 0.0
O413 O 0.59032 0.04986 0.52881 0.0
O414 O 0.54046 0.037 0.51985 0.0
O415 O 0.56042 0.04208 0.50445 0.0
O416 O 0.55873 1.00823 0.53019 0.0
O417 O 0.52905 1.00456 0.529 0.0
O418 O 0.50263 0.02355 0.53259 0.0
O419 O 0.51022 0.0385 0.56175 0.0
O420 O 0.55411 0.03909 0.56187 0.0
O421 O 0.53747 1.01638 0.56841 0.0
O422 O 0.53424 0.06261 0.5446 0.0
O423 O 0.56404 0.06738 0.54718 0.0
H424 H 0.59805 1.00231 0.53692 0.0
H425 H 0.62304 0.98727 0.53448 0.0
H426 H 0.65416 0.04157 0.53089 0.0
H427 H 0.6292 0.05663 0.53412 0.0
H428 H 0.4951 0.05916 0.5241 0.0
H429 H 0.47076 0.07579 0.51787 0.0
H430 H 0.44451 0.04471 0.55833 0.0
H431 H 0.46857 0.02802 0.56409 0.0
Tb432 Tb 0.28078 0.28478 0.78072 0.0
Tb433 Tb 0.31864 0.28154 0.78989 0.0
C434 C 0.24859 0.28159 0.77935 0.0
C435 C 0.23504 0.27983 0.792 0.0
C436 C 0.22135 0.26433 0.78771 0.0
C437 C 0.20742 0.26306 0.79806 0.0
C438 C 0.20675 0.27736 0.81291 0.0
C439 C 0.22077 0.2926 0.81766 0.0
C440 C 0.23478 0.29384 0.8073 0.0
C441 C 0.30318 0.31338 0.77343 0.0
C442 C 0.30094 0.29567 0.82406 0.0
C443 C 0.35082 0.28406 0.7918 0.0
C444 C 0.36447 0.28431 0.77943 0.0
C445 C 0.36364 0.2926 0.76212 0.0
C446 C 0.37755 0.29387 0.75159 0.0
C447 C 0.3925 0.28691 0.75824 0.0
C448 C 0.39295 0.27814 0.77529 0.0
C449 C 0.37911 0.2769 0.78576 0.0
C450 C 0.2961 0.25314 0.79734 0.0
C451 C 0.29861 0.27107 0.74641 0.0
O452 O 0.25644 0.2672 0.77699 0.0
O453 O 0.25916 0.29784 0.78088 0.0
O454 O 0.30478 0.30406 0.78755 0.0
O455 O 0.28798 0.30765 0.76334 0.0
O456 O 0.28593 0.28969 0.81261 0.0
O457 O 0.31583 0.29586 0.81755 0.0
O458 O 0.34305 0.29865 0.79258 0.0
O459 O 0.34014 0.26805 0.79113 0.0
O460 O 0.29467 0.26232 0.7831 0.0
O461 O 0.3112 0.259 0.8076 0.0
O462 O 0.3136 0.27657 0.75801 0.0
O463 O 0.28368 0.27113 0.75277 0.0
H464 H 0.22126 0.25333 0.77601 0.0
H465 H 0.19705 0.25093 0.79426 0.0
H466 H 0.22067 0.30392 0.82893 0.0
H467 H 0.24515 0.30597 0.81097 0.0
H468 H 0.35243 0.29841 0.75694 0.0
H469 H 0.37679 0.30079 0.73858 0.0
H470 H 0.40408 0.27228 0.78063 0.0
H471 H 0.37997 0.27039 0.79904 0.0
Tb472 Tb 0.04812 0.05518 0.54299 0.0
Tb473 Tb 0.04914 1.01439 0.53295 0.0
C474 C 0.05169 0.09042 0.54439 0.0
C475 C 0.05442 0.10384 0.53026 0.0
C476 C 0.06281 0.09973 0.51437 0.0
C477 C 0.06515 0.11262 0.50095 0.0
C478 C 0.059 0.1297 0.50317 0.0
C479 C 0.05057 0.13368 0.51909 0.0
C480 C 0.04831 0.12083 0.53253 0.0
C481 C 0.02107 0.03149 0.54951 0.0
C482 C 0.0372 0.03575 0.4993 0.0
C483 C 0.04488 0.97908 0.53158 0.0
C484 C 0.04772 0.96597 0.54584 0.0
C485 C 0.03676 0.94837 0.54378 0.0
C486 C 0.03886 0.93597 0.55758 0.0
C487 C 0.05197 0.94102 0.57367 0.0
C488 C 0.06297 0.9587 0.57567 0.0
C489 C 0.06083 0.97111 0.56188 0.0
C490 C 0.07617 0.03798 0.52616 0.0
C491 C 0.06082 0.0341 0.57686 0.0
O492 O 0.06442 0.08157 0.54899 0.0
O493 O 0.03664 0.07917 0.54143 0.0
O494 O 0.02902 0.03005 0.53522 0.0
O495 O 0.02765 0.04729 0.56032 0.0
O496 O 0.04408 0.05143 0.51107 0.0
O497 O 0.03557 0.01904 0.50561 0.0
O498 O 0.03269 0.98876 0.53411 0.0
O499 O 0.05871 0.98948 0.52737 0.0
O500 O 0.06825 0.03957 0.54048 0.0
O501 O 0.06965 0.02202 0.51559 0.0
O502 O 0.05579 0.01825 0.56478 0.0
O503 O 0.06048 0.05084 0.57101 0.0
H504 H 0.06752 0.08657 0.51233 0.0
H505 H 0.07157 0.10915 0.48874 0.0
H506 H 0.04591 0.14685 0.52129 0.0
H507 H 0.04179 0.12417 0.54471 0.0
H508 H 0.02653 0.94423 0.53151 0.0
H509 H 0.03034 0.92233 0.55554 0.0
H510 H 0.07306 0.96304 0.58803 0.0
H511 H 0.06935 0.98474 0.5638 0.0
Tb512 Tb 0.30326 0.77449 0.74789 0.0
Tb513 Tb 0.31195 0.81001 0.77721 0.0
C514 C 0.30429 0.74748 0.7229 0.0
C515 C 0.31476 0.73246 0.72222 0.0
C516 C 0.33286 0.73669 0.72375 0.0
C517 C 0.34257 0.72231 0.72517 0.0
C518 C 0.33435 0.70353 0.72526 0.0
C519 C 0.31625 0.69927 0.72302 0.0
C520 C 0.30656 0.71358 0.7214 0.0
C521 C 0.28898 0.77233 0.7795 0.0
C522 C 0.33816 0.78294 0.77874 0.0
C523 C 0.3114 0.83727 0.80212 0.0
C524 C 0.2993 0.85015 0.80542 0.0
C525 C 0.28138 0.84365 0.80305 0.0
C526 C 0.27013 0.85654 0.80414 0.0
C527 C 0.27664 0.87611 0.80755 0.0
C528 C 0.29462 0.88242 0.81068 0.0
C529 C 0.30581 0.86957 0.8096 0.0
C530 C 0.32636 0.81173 0.74562 0.0
C531 C 0.27665 0.8007 0.74731 0.0
O532 O 0.31222 0.76481 0.7226 0.0
O533 O 0.29363 0.74649 0.73562 0.0
O534 O 0.30398 0.78064 0.77835 0.0
O535 O 0.28175 0.76375 0.76262 0.0
O536 O 0.32941 0.7738 0.76213 0.0
O537 O 0.33238 0.79624 0.78896 0.0
O538 O 0.30658 0.81955 0.80459 0.0
O539 O 0.31861 0.83905 0.78652 0.0
O540 O 0.31121 0.80385 0.74677 0.0
O541 O 0.33381 0.81985 0.76261 0.0
O542 O 0.28514 0.80912 0.76431 0.0
O543 O 0.28316 0.78874 0.73617 0.0
H544 H 0.33955 0.75113 0.72446 0.0
H545 H 0.35651 0.72597 0.72695 0.0
H546 H 0.3096 0.68486 0.72277 0.0
H547 H 0.29263 0.70995 0.7201 0.0
H548 H 0.27604 0.82869 0.79984 0.0
H549 H 0.25635 0.85123 0.80165 0.0
H550 H 0.30006 0.89736 0.81376 0.0
H551 H 0.31959 0.87484 0.81156 0.0
Tb552 Tb 0.53511 0.04449 0.02751 0.0
Tb553 Tb 0.56115 0.02857 0.05152 0.0
C554 C 0.50824 0.05143 1.0086 0.0
C555 C 0.48959 0.04697 0.00886 0.0
C556 C 0.48199 0.02978 0.01443 0.0
C557 C 0.46407 0.02485 0.01265 0.0
C558 C 0.45343 0.0371 1.00548 0.0
C559 C 0.46119 0.05471 1.0008 0.0
C560 C 0.47913 0.05955 1.00242 0.0
C561 C 0.56197 0.06974 0.04536 0.0
C562 C 0.52911 0.0365 0.07126 0.0
C563 C 0.5882 0.02204 0.07039 0.0
C564 C 0.60671 0.02605 0.06916 0.0
C565 C 0.61413 0.04275 0.06254 0.0
C566 C 0.63194 0.04713 0.06288 0.0
C567 C 0.64266 0.03476 0.06958 0.0
C568 C 0.63504 0.01768 0.07553 0.0
C569 C 0.61721 1.01341 0.07538 0.0
C570 C 0.53416 1.00331 0.03407 0.0
C571 C 0.56699 0.03629 1.00759 0.0
O572 O 0.51551 0.0371 1.00374 0.0
O573 O 0.51743 0.06285 0.02327 0.0
O574 O 0.55432 0.05559 0.05183 0.0
O575 O 0.55393 0.07051 0.02824 0.0
O576 O 0.52196 0.03835 0.05335 0.0
O577 O 0.54536 0.03396 0.07436 0.0
O578 O 0.58124 0.03676 0.07471 0.0
O579 O 0.5785 1.00999 0.05654 0.0
O580 O 0.54179 0.01732 0.02733 0.0
O581 O 0.54234 1.00272 0.05118 0.0
O582 O 0.57414 0.03424 0.02543 0.0
O583 O 0.55084 0.03913 1.00462 0.0
H584 H 0.48987 0.0199 0.01954 0.0
H585 H 0.45859 1.01107 0.01614 0.0
H586 H 0.45341 0.06462 0.99558 0.0
H587 H 0.48483 0.07294 0.99819 0.0
H588 H 0.60622 0.05267 0.05757 0.0
H589 H 0.63731 0.06054 0.05848 0.0
H590 H 0.64286 1.00769 0.08046 0.0
H591 H 0.61165 1.00038 0.08041 0.0
Tb592 Tb 0.2804 0.27177 0.28142 0.0
Tb593 Tb 0.31453 0.2969 0.28854 0.0
C594 C 0.25256 0.24971 0.28117 0.0
C595 C 0.23493 0.25361 0.27733 0.0
C596 C 0.22372 0.25019 0.29095 0.0
C597 C 0.2085 0.25752 0.28975 0.0
C598 C 0.20421 0.26838 0.27485 0.0
C599 C 0.21494 0.27078 0.26056 0.0
C600 C 0.23018 0.26354 0.26182 0.0
C601 C 0.28974 0.28691 0.25103 0.0
C602 C 0.27991 0.31593 0.28847 0.0
C603 C 0.3418 0.31921 0.2863 0.0
C604 C 0.35865 0.31514 0.28258 0.0
C605 C 0.35957 0.2982 0.2715 0.0
C606 C 0.3755 0.2934 0.26923 0.0
C607 C 0.3909 0.3055 0.27792 0.0
C608 C 0.38996 0.32262 0.28882 0.0
C609 C 0.37393 0.32737 0.29116 0.0
C610 C 0.30521 0.28189 0.31906 0.0
C611 C 0.3148 0.25279 0.28211 0.0
O612 O 0.26183 0.2591 0.29708 0.0
O613 O 0.26121 0.24974 0.26651 0.0
O614 O 0.29941 0.28056 0.26352 0.0
O615 O 0.2741 0.28392 0.2548 0.0
O616 O 0.27076 0.29853 0.28726 0.0
O617 O 0.29699 0.31834 0.28864 0.0
O618 O 0.32913 0.3139 0.27186 0.0
O619 O 0.3373 0.31466 0.30274 0.0
O620 O 0.29555 0.2881 0.30644 0.0
O621 O 0.32093 0.28522 0.3155 0.0
O622 O 0.32358 0.27 0.28128 0.0
O623 O 0.29807 0.25062 0.28387 0.0
H624 H 0.22724 0.24279 0.30315 0.0
H625 H 0.20064 0.25559 0.30114 0.0
H626 H 0.21187 0.27881 0.24875 0.0
H627 H 0.23862 0.26654 0.25115 0.0
H628 H 0.34796 0.28846 0.26481 0.0
H629 H 0.3757 0.27997 0.26104 0.0
H630 H 0.4016 0.33232 0.29553 0.0
H631 H 0.37347 0.34045 0.29987 0.0
Tb632 Tb 0.54648 0.55425 0.03863 0.0
Tb633 Tb 0.54712 0.51302 0.03049 0.0
C634 C 0.55125 0.58953 0.03915 0.0
C635 C 0.55181 0.60309 0.02488 0.0
C636 C 0.5644 0.61958 0.02868 0.0
C637 C 0.56515 0.63284 0.01551 0.0
C638 C 0.55326 0.62985 0.99832 0.0
C639 C 0.54075 0.61318 0.99443 0.0
C640 C 0.54006 0.59987 1.00759 0.0
C641 C 0.51878 0.53143 0.04473 0.0
C642 C 0.53574 0.53315 0.99544 0.0
C643 C 0.54224 0.47776 0.03016 0.0
C644 C 0.54611 0.46462 0.04401 0.0
C645 C 0.53552 0.44681 0.04221 0.0
C646 C 0.53871 0.4342 0.05549 0.0
C647 C 0.55257 0.43924 0.07079 0.0
C648 C 0.56319 0.45714 0.07255 0.0
C649 C 0.55994 0.46978 0.05928 0.0
C650 C 0.57497 0.53587 0.02461 0.0
C651 C 0.55802 0.5341 0.07393 0.0
O652 O 0.56378 0.57988 0.04036 0.0
O653 O 0.53623 0.57909 0.03975 0.0
O654 O 0.52723 0.52921 0.03096 0.0
O655 O 0.52521 0.54751 0.05511 0.0
O656 O 0.54201 0.54931 1.00671 0.0
O657 O 0.53417 0.5168 1.00251 0.0
O658 O 0.53093 0.4881 0.03442 0.0
O659 O 0.55549 0.48749 0.02411 0.0
O660 O 0.56637 0.53802 0.03824 0.0
O661 O 0.56866 0.51973 0.01429 0.0
O662 O 0.55343 0.51792 0.06231 0.0
O663 O 0.55793 0.55059 0.06737 0.0
H664 H 0.57358 0.62227 0.04193 0.0
H665 H 0.57479 0.64566 0.01901 0.0
H666 H 0.53154 0.61043 0.98121 0.0
H667 H 0.5303 0.58714 1.00432 0.0
H668 H 0.52477 0.44266 0.03053 0.0
H669 H 0.53046 0.42042 0.05365 0.0
H670 H 0.57384 0.46145 0.08431 0.0
H671 H 0.56817 0.48357 0.06096 0.0
Tb672 Tb 0.81217 0.28478 0.25041 0.0
Tb673 Tb 0.82242 0.32259 0.2762 0.0
C674 C 0.81241 0.25655 0.22664 0.0
C675 C 0.82093 0.24017 0.22846 0.0
C676 C 0.82396 0.22948 0.21192 0.0
C677 C 0.83226 0.214 0.21376 0.0
C678 C 0.83755 0.20898 0.23219 0.0
C679 C 0.83465 0.21993 0.24871 0.0
C680 C 0.82647 0.23542 0.24686 0.0
C681 C 0.80109 0.28542 0.28411 0.0
C682 C 0.84891 0.29561 0.2783 0.0
C683 C 0.82388 0.35163 0.29963 0.0
C684 C 0.81148 0.36286 0.30605 0.0
C685 C 0.79384 0.35513 0.30403 0.0
C686 C 0.78193 0.36676 0.30761 0.0
C687 C 0.78755 0.38624 0.31349 0.0
C688 C 0.80537 0.39361 0.31662 0.0
C689 C 0.81721 0.38203 0.3128 0.0
C690 C 0.83313 0.32114 0.24228 0.0
C691 C 0.78514 0.3103 0.2507 0.0
O692 O 0.82281 0.27277 0.22741 0.0
O693 O 0.8002 0.25767 0.23732 0.0
O694 O 0.81533 0.29383 0.28062 0.0
O695 O 0.79313 0.27462 0.26863 0.0
O696 O 0.83871 0.28438 0.26373 0.0
O697 O 0.84438 0.31068 0.28696 0.0
O698 O 0.82265 0.33457 0.3047 0.0
O699 O 0.8261 0.3521 0.28152 0.0
O700 O 0.8187 0.31352 0.24592 0.0
O701 O 0.84214 0.33073 0.25795 0.0
O702 O 0.7946 0.31963 0.26683 0.0
O703 O 0.79131 0.29831 0.23921 0.0
H704 H 0.8199 0.23308 0.19761 0.0
H705 H 0.83429 0.20578 0.20078 0.0
H706 H 0.83886 0.21663 0.2631 0.0
H707 H 0.82448 0.24371 0.25983 0.0
H708 H 0.78926 0.34025 0.29916 0.0
H709 H 0.76832 0.3606 0.30505 0.0
H710 H 0.81017 0.40845 0.32158 0.0
H711 H 0.8308 0.38818 0.31457 0.0
Tb712 Tb 0.03017 0.53662 0.51911 0.0
Tb713 Tb 0.06161 0.53448 0.54646 0.0
C714 C 1.00083 0.52953 0.49891 0.0
C715 C 0.98285 0.53105 0.50038 0.0
C716 C 0.97566 0.52771 0.51723 0.0
C717 C 0.95804 0.52735 0.51741 0.0
C718 C 0.94739 0.5303 0.50074 0.0
C719 C 0.95487 0.53455 0.48425 0.0
C720 C 0.97244 0.53488 0.48408 0.0
C721 C 0.04919 0.56952 0.53401 0.0
C722 C 0.02756 0.53657 0.56546 0.0
C723 C 0.09122 0.54108 0.56604 0.0
C724 C 0.10894 0.54062 0.56248 0.0
C725 C 0.11445 0.54579 0.54523 0.0
C726 C 0.13163 0.54645 0.54263 0.0
C727 C 0.14363 0.54204 0.55729 0.0
C728 C 0.1379 0.53619 0.57425 0.0
C729 C 0.12068 0.5355 0.5768 0.0
C730 C 0.04225 0.50172 0.53181 0.0
C731 C 0.06428 0.53449 0.5002 0.0
O732 O 1.00738 0.51725 0.50878 0.0
O733 O 1.01168 0.54542 0.4996 0.0
O734 O 0.04598 0.55507 0.54239 0.0
O735 O 0.04037 0.56628 0.51675 0.0
O736 O 0.0193 0.53454 0.54723 0.0
O737 O 0.04468 0.53848 0.56862 0.0
O738 O 0.08382 0.55409 0.55842 0.0
O739 O 0.08083 0.52471 0.5641 0.0
O740 O 0.04576 0.516 0.52324 0.0
O741 O 0.0508 0.50512 0.54922 0.0
O742 O 0.0725 0.53696 0.51845 0.0
O743 O 0.04713 0.53217 0.49704 0.0
H744 H 0.9835 0.52476 0.53 0.0
H745 H 0.95263 0.52388 0.53028 0.0
H746 H 0.94705 0.53715 0.47129 0.0
H747 H 0.97782 0.53761 0.47099 0.0
H748 H 0.1056 0.5498 0.53398 0.0
H749 H 0.13561 0.5508 0.52932 0.0
H750 H 0.14686 0.53294 0.5859 0.0
H751 H 0.11663 0.53144 0.5902 0.0
Tb752 Tb 0.7822 0.78656 0.28332 0.0
Tb753 Tb 0.8201 0.78267 0.29056 0.0
C754 C 0.75017 0.78338 0.28347 0.0
C755 C 0.73707 0.78133 0.29675 0.0
C756 C 0.72643 0.76368 0.29662 0.0
C757 C 0.71253 0.76195 0.30706 0.0
C758 C 0.70887 0.77786 0.31783 0.0
C759 C 0.7199 0.79539 0.31853 0.0
C760 C 0.7338 0.79713 0.30806 0.0
C761 C 0.80448 0.81542 0.27648 0.0
C762 C 0.80363 0.79595 0.32612 0.0
C763 C 0.85223 0.78568 0.29129 0.0
C764 C 0.86553 0.78431 0.27871 0.0
C765 C 0.86294 0.78728 0.25914 0.0
C766 C 0.87642 0.78717 0.24807 0.0
C767 C 0.89267 0.78406 0.25641 0.0
C768 C 0.89499 0.7808 0.27594 0.0
C769 C 0.88157 0.78092 0.28693 0.0
C770 C 0.79766 0.75403 0.2976 0.0
C771 C 0.79858 0.77313 0.24757 0.0
O772 O 0.75791 0.76903 0.28018 0.0
O773 O 0.76071 0.79964 0.28495 0.0
O774 O 0.8064 0.80545 0.29003 0.0
O775 O 0.78903 0.81022 0.26685 0.0
O776 O 0.78833 0.79042 0.31515 0.0
O777 O 0.81821 0.79632 0.31889 0.0
O778 O 0.84395 0.79979 0.2898 0.0
O779 O 0.84207 0.76996 0.29321 0.0
O780 O 0.79592 0.76387 0.28393 0.0
O781 O 0.81301 0.75931 0.30742 0.0
O782 O 0.81388 0.77714 0.25874 0.0
O783 O 0.78404 0.77421 0.2545 0.0
H784 H 0.72854 0.75125 0.28798 0.0
H785 H 0.70447 0.74818 0.30644 0.0
H786 H 0.71737 0.80796 0.32652 0.0
H787 H 0.74162 0.81097 0.30837 0.0
H788 H 0.85062 0.78993 0.25251 0.0
H789 H 0.87411 0.78954 0.23303 0.0
H790 H 0.90736 0.77868 0.28297 0.0
H791 H 0.88385 0.77873 0.30204 0.0
Tb792 Tb 0.80196 0.27912 0.76716 0.0
Tb793 Tb 0.79623 0.29295 0.80582 0.0
C794 C 0.8036 0.2739 0.73156 0.0
C795 C 0.80841 0.28574 0.71662 0.0
C796 C 0.80598 0.30457 0.71764 0.0
C797 C 0.80995 0.31535 0.70283 0.0
C798 C 0.81638 0.30746 0.68679 0.0
C799 C 0.81931 0.28878 0.68617 0.0
C800 C 0.81533 0.27802 0.70099 0.0
C801 C 0.82531 0.27378 0.79536 0.0
C802 C 0.81591 0.32328 0.78385 0.0
C803 C 0.79411 0.29776 0.84128 0.0
C804 C 0.78452 0.28679 0.85427 0.0
C805 C 0.78397 0.26725 0.85379 0.0
C806 C 0.77472 0.25702 0.8661 0.0
C807 C 0.76587 0.26614 0.87917 0.0
C808 C 0.76618 0.28565 0.87937 0.0
C809 C 0.77542 0.29588 0.86698 0.0
C810 C 0.77281 0.29814 0.77758 0.0
C811 C 0.78203 0.24857 0.78911 0.0
O812 O 0.78953 0.27626 0.73855 0.0
O813 O 0.81616 0.27256 0.74505 0.0
O814 O 0.81871 0.28838 0.79416 0.0
O815 O 0.81924 0.26178 0.78007 0.0
O816 O 0.81049 0.31045 0.76831 0.0
O817 O 0.81368 0.31853 0.80124 0.0
O818 O 0.80642 0.29052 0.83435 0.0
O819 O 0.78464 0.30467 0.82811 0.0
O820 O 0.7795 0.28363 0.77889 0.0
O821 O 0.77869 0.31007 0.79292 0.0
O822 O 0.78595 0.26189 0.80436 0.0
O823 O 0.78584 0.25268 0.77199 0.0
H824 H 0.80073 0.31082 0.72966 0.0
H825 H 0.80774 0.32976 0.70379 0.0
H826 H 0.82404 0.28225 0.67388 0.0
H827 H 0.81733 0.26352 0.70005 0.0
H828 H 0.7909 0.25991 0.84412 0.0
H829 H 0.77503 0.24209 0.86585 0.0
H830 H 0.75944 0.29303 0.88924 0.0
H831 H 0.77558 0.31093 0.86743 0.0
Tb832 Tb 0.78075 0.77309 0.77924 0.0
Tb833 Tb 0.81364 0.79904 0.79379 0.0
C834 C 0.75011 0.75645 0.77671 0.0
C835 C 0.73378 0.76351 0.77447 0.0
C836 C 0.72107 0.75714 0.78556 0.0
C837 C 0.70658 0.76564 0.78582 0.0
C838 C 0.70448 0.78065 0.77489 0.0
C839 C 0.71698 0.78652 0.76322 0.0
C840 C 0.73155 0.77812 0.7631 0.0
C841 C 0.79657 0.78756 0.75196 0.0
C842 C 0.78061 0.81847 0.79099 0.0
C843 C 0.84422 0.81587 0.79584 0.0
C844 C 0.86007 0.80862 0.79312 0.0
C845 C 0.85955 0.7933 0.77898 0.0
C846 C 0.87428 0.78567 0.77709 0.0
C847 C 0.88999 0.79337 0.78908 0.0
C848 C 0.89053 0.80884 0.80315 0.0
C849 C 0.87565 0.81635 0.80519 0.0
C850 C 0.79758 0.78477 0.82096 0.0
C851 C 0.81369 0.75372 0.7822 0.0
O852 O 0.76012 0.76256 0.79326 0.0
O853 O 0.75865 0.75695 0.76196 0.0
O854 O 0.79545 0.79588 0.76824 0.0
O855 O 0.78764 0.77055 0.75003 0.0
O856 O 0.77179 0.80076 0.78616 0.0
O857 O 0.79779 0.82149 0.79385 0.0
O858 O 0.83266 0.814 0.78032 0.0
O859 O 0.83733 0.81117 0.81104 0.0
O860 O 0.79891 0.77629 0.80482 0.0
O861 O 0.80631 0.80191 0.82276 0.0
O862 O 0.8224 0.77152 0.78575 0.0
O863 O 0.79656 0.75061 0.78061 0.0
H864 H 0.7227 0.74609 0.79464 0.0
H865 H 0.69742 0.76096 0.79527 0.0
H866 H 0.71569 0.79788 0.75447 0.0
H867 H 0.74132 0.78346 0.7546 0.0
H868 H 0.84771 0.78704 0.76943 0.0
H869 H 0.87327 0.77356 0.76635 0.0
H870 H 0.90247 0.81527 0.81245 0.0
H871 H 0.8763 0.82814 0.81621 0.0
Tb872 Tb 0.53739 0.52948 0.52926 0.0
Tb873 Tb 0.57259 0.5489 0.54806 0.0
C874 C 0.50548 0.52132 0.51825 0.0
C875 C 0.49269 0.53346 0.51419 0.0
C876 C 0.4935 0.55034 0.52629 0.0
C877 C 0.48229 0.5626 0.52159 0.0
C878 C 0.47004 0.55827 0.50469 0.0
C879 C 0.46922 0.54138 0.49257 0.0
C880 C 0.48047 0.52904 0.49732 0.0
C881 C 0.56186 0.52799 0.50767 0.0
C882 C 0.54937 0.57405 0.52905 0.0
C883 C 0.60455 0.55712 0.5587 0.0
C884 C 0.61676 0.54588 0.56709 0.0
C885 C 0.63213 0.54547 0.5595 0.0
C886 C 0.64216 0.53204 0.56427 0.0
C887 C 0.63704 0.51882 0.57684 0.0
C888 C 0.62225 0.52021 0.58551 0.0
C889 C 0.61212 0.53351 0.58056 0.0
C890 C 0.54813 0.5501 0.56984 0.0
C891 C 0.56041 0.50407 0.54859 0.0
O892 O 0.51254 0.52243 0.53639 0.0
O893 O 0.51684 0.52145 0.50635 0.0
O894 O 0.56018 0.54195 0.51896 0.0
O895 O 0.54902 0.51425 0.50752 0.0
O896 O 0.53647 0.55984 0.52923 0.0
O897 O 0.56558 0.57217 0.53361 0.0
O898 O 0.59751 0.55098 0.54078 0.0
O899 O 0.5933 0.56173 0.56949 0.0
O900 O 0.54986 0.53636 0.55832 0.0
O901 O 0.56111 0.56376 0.57032 0.0
O902 O 0.57332 0.51868 0.55014 0.0
O903 O 0.54432 0.5055 0.54239 0.0
H904 H 0.50301 0.55427 0.53924 0.0
H905 H 0.48342 0.57567 0.53104 0.0
H906 H 0.4598 0.53764 0.47954 0.0
H907 H 0.47979 0.51617 0.48771 0.0
H908 H 0.63582 0.55477 0.54895 0.0
H909 H 0.65328 0.53126 0.55703 0.0
H910 H 0.61805 0.51045 0.59544 0.0
H911 H 0.60022 0.53345 0.58652 0.0
Tb912 Tb 0.06674 0.53886 0.02794 0.0
Tb913 Tb 0.02972 0.53276 0.03726 0.0
C914 C 0.09791 0.53804 0.02534 0.0
C915 C 0.11104 0.52605 0.02968 0.0
C916 C 0.12106 0.52824 0.04812 0.0
C917 C 0.13464 0.51837 0.05155 0.0
C918 C 0.1386 0.50612 0.03663 0.0
C919 C 0.12831 0.50359 0.01833 0.0
C920 C 0.11476 0.51349 0.01488 0.0
C921 C 0.04268 0.54489 0.99969 0.0
C922 C 0.04513 0.49711 0.0254 0.0
C923 C 0.99762 0.53184 0.03208 0.0
C924 C 0.98461 0.54328 0.03679 0.0
C925 C 0.98656 0.56245 0.03386 0.0
C926 C 0.9728 0.57212 0.0348 0.0
C927 C 0.95687 0.5629 0.03887 0.0
C928 C 0.95528 0.54407 0.04291 0.0
C929 C 0.96899 0.53433 0.04176 0.0
C930 C 0.05209 0.53166 0.06976 0.0
C931 C 0.05294 0.57376 0.04564 0.0
O932 O 0.0928 0.54695 0.04008 0.0
O933 O 0.08517 0.53136 0.01124 0.0
O934 O 0.04119 0.53214 0.01096 0.0
O935 O 0.05838 0.55422 1.00389 0.0
O936 O 0.06051 0.50818 0.02772 0.0
O937 O 0.03083 0.50387 0.02676 0.0
O938 O 1.0081 0.53865 0.02052 0.0
O939 O 1.00543 0.52403 0.04595 0.0
O940 O 0.05511 0.53425 0.05281 0.0
O941 O 0.03542 0.52982 0.06863 0.0
O942 O 0.0372 0.56346 0.04216 0.0
O943 O 0.06682 0.56656 0.0431 0.0
H944 H 0.11867 0.53789 0.05985 0.0
H945 H 0.14216 0.52048 0.06588 0.0
H946 H 0.13112 0.49446 1.00642 0.0
H947 H 0.10747 0.51168 1.00044 0.0
H948 H 0.99846 0.56978 0.03006 0.0
H949 H 0.97449 0.5867 0.03189 0.0
H950 H 0.94314 0.53657 0.04599 0.0
H951 H 0.96713 0.51954 0.04393 0.0
H952 H 1.01274 0.20133 0.92109 0.0
H953 H 1.01338 0.17262 0.93682 0.0
H954 H 0.0352 0.20662 0.9912 0.0
H955 H 0.03435 0.23536 0.97565 0.0
H956 H 0.04149 0.16064 0.95472 0.0
H957 H 0.99602 0.17013 1.00681 0.0
H958 H 0.99772 0.18374 0.98667 0.0
H959 H 1.01317 0.19011 1.00846 0.0
C960 C 0.01753 0.20269 0.93644 0.0
C961 C 0.02345 0.22061 0.94715 0.0
C962 C 0.0179 0.18627 0.94541 0.0
C963 C 0.02408 0.18745 0.96526 0.0
C964 C 0.02999 0.20535 0.97598 0.0
H965 H 0.06539 0.10278 0.02555 0.0
H966 H 0.06019 0.13056 0.01022 0.0
C967 C 0.02961 0.22176 0.96703 0.0
C968 C 0.02525 0.16999 0.97453 0.0
H969 H 1.01326 0.14648 0.01198 0.0
C970 C 0.03521 0.15749 0.96715 0.0
C971 C 0.01687 0.16573 0.99059 0.0
C972 C 1.0052 0.17803 0.9985 0.0
C973 C 0.03744 0.14115 0.97573 0.0
C974 C 0.02974 0.13736 0.99236 0.0
C975 C 0.01933 0.14953 0.99939 0.0
C976 C 0.03261 0.12097 1.00275 0.0
C977 C 0.04793 0.12801 0.96681 0.0
C978 C 0.01872 0.10667 1.00435 0.0
C979 C 0.02163 0.09075 0.01327 0.0
C980 C 0.03848 0.08891 0.02083 0.0
C981 C 0.05226 0.10362 0.01978 0.0
C982 C 0.04933 0.11949 0.0109 0.0
H983 H 0.04882 0.13001 0.95145 0.0
H984 H 0.06124 0.131 0.97494 0.0
H985 H 0.04229 0.11301 0.96749 0.0
H986 H 1.00569 0.10759 0.99826 0.0
H987 H 1.01071 0.0797 0.01381 0.0
H988 H 0.13971 0.81198 0.15641 0.0
H989 H 0.16844 0.8093 0.17231 0.0
H990 H 0.14694 0.79456 0.22328 0.0
H991 H 0.11823 0.79727 0.20757 0.0
H992 H 0.1877 0.82846 0.2105 0.0
H993 H 0.17209 0.75021 0.20599 0.0
H994 H 0.15973 0.76356 0.19091 0.0
H995 H 0.15671 0.76259 0.21575 0.0
C996 C 0.14113 0.80831 0.17106 0.0
C997 C 0.12669 0.80477 0.18072 0.0
C998 C 0.15754 0.80679 0.18011 0.0
C999 C 0.15975 0.8015 0.19885 0.0
C1000 C 0.14545 0.79843 0.2087 0.0
H1001 H 0.23629 0.77765 0.28456 0.0
H1002 H 0.21075 0.78098 0.26276 0.0
C1003 C 0.12908 0.80008 0.19974 0.0
C1004 C 0.17692 0.79885 0.2081 0.0
H1005 H 0.19826 0.76545 0.22569 0.0
C1006 C 0.19013 0.81469 0.21366 0.0
C1007 C 0.18002 0.78083 0.21208 0.0
C1008 C 0.16647 0.76326 0.20575 0.0
C1009 C 0.20614 0.81312 0.224 0.0
C1010 C 0.20908 0.79514 0.22848 0.0
C1011 C 0.19602 0.77922 0.22227 0.0
C1012 C 0.22493 0.79269 0.24108 0.0
C1013 C 0.21942 0.83083 0.23083 0.0
C1014 C 0.24148 0.79783 0.23601 0.0
C1015 C 0.25621 0.79604 0.2486 0.0
C1016 C 0.25455 0.78891 0.26633 0.0
C1017 C 0.23798 0.78325 0.27103 0.0
C1018 C 0.22335 0.78512 0.25856 0.0
H1019 H 0.21379 0.84381 0.22979 0.0
H1020 H 0.22533 0.83083 0.24608 0.0
H1021 H 0.22983 0.83143 0.22169 0.0
H1022 H 0.24302 0.80331 0.2224 0.0
H1023 H 0.26884 0.80047 0.24461 0.0
H1024 H 0.52008 0.837 0.42205 0.0
H1025 H 0.5229 0.86917 0.43809 0.0
H1026 H 0.54194 0.85134 0.49245 0.0
H1027 H 0.53879 0.81895 0.47653 0.0
H1028 H 0.51788 0.87389 0.49634 0.0
H1029 H 0.56741 0.90696 0.45523 0.0
H1030 H 0.54834 0.89415 0.43988 0.0
H1031 H 0.56162 0.88168 0.4548 0.0
C1032 C 0.52492 0.83993 0.43741 0.0
C1033 C 0.52932 0.82548 0.44801 0.0
C1034 C 0.52661 0.85835 0.44654 0.0
C1035 C 0.53294 0.86275 0.4664 0.0
C1036 C 0.53713 0.84829 0.47708 0.0
H1037 H 0.56888 0.97727 0.5239 0.0
H1038 H 0.56622 0.94429 0.51052 0.0
C1039 C 0.53536 0.82981 0.46797 0.0
C1040 C 0.53491 0.88237 0.47604 0.0
H1041 H 0.55422 0.92792 0.47417 0.0
C1042 C 0.5259 0.8857 0.49158 0.0
C1043 C 0.54557 0.89774 0.46999 0.0
C1044 C 0.55643 0.89497 0.45419 0.0
C1045 C 0.52697 0.90403 0.50097 0.0
C1046 C 0.53706 0.91949 0.49438 0.0
C1047 C 0.54634 0.9161 0.47909 0.0
C1048 C 0.5384 0.93931 0.50323 0.0
C1049 C 0.51753 0.9066 0.51807 0.0
C1050 C 0.52364 0.94756 0.50355 0.0
C1051 C 0.5251 0.96643 0.51134 0.0
C1052 C 0.54138 0.97751 0.51872 0.0
C1053 C 0.55613 0.9692 0.51833 0.0
C1054 C 0.55465 0.95032 0.51067 0.0
H1055 H 0.5147 0.89328 0.52467 0.0
H1056 H 0.52513 0.91779 0.52938 0.0
H1057 H 0.50505 0.91084 0.51315 0.0
H1058 H 0.51101 0.9395 0.49746 0.0
H1059 H 0.51349 0.97241 0.51125 0.0
H1060 H 0.51267 0.29383 0.6488 0.0
H1061 H 0.48618 0.29238 0.66333 0.0
H1062 H 0.51644 0.30573 0.72022 0.0
H1063 H 0.543 0.30742 0.70577 0.0
H1064 H 0.47429 0.2689 0.68967 0.0
H1065 H 0.48424 0.34417 0.72066 0.0
H1066 H 0.49656 0.33588 0.70281 0.0
H1067 H 0.502 0.33271 0.72783 0.0
C1068 C 0.51369 0.29656 0.6644 0.0
C1069 C 0.52994 0.30083 0.67614 0.0
C1070 C 0.49854 0.29571 0.67268 0.0
C1071 C 0.49932 0.29923 0.69285 0.0
C1072 C 0.51552 0.30336 0.70461 0.0
H1073 H 0.42659 0.2965 0.77404 0.0
H1074 H 0.45179 0.29919 0.75731 0.0
C1075 C 0.53069 0.30422 0.69634 0.0
C1076 C 0.48317 0.29803 0.70159 0.0
H1077 H 0.46144 0.32325 0.73048 0.0
C1078 C 0.4714 0.28081 0.69848 0.0
C1079 C 0.47941 0.31359 0.71305 0.0
C1080 C 0.49112 0.33269 0.71617 0.0
C1081 C 0.45624 0.27858 0.70699 0.0
C1082 C 0.45259 0.29409 0.71865 0.0
C1083 C 0.46426 0.31137 0.72156 0.0
C1084 C 0.43707 0.29251 0.72854 0.0
C1085 C 0.44455 0.25947 0.70392 0.0
C1086 C 0.42035 0.28811 0.71792 0.0
C1087 C 0.40585 0.28641 0.72748 0.0
C1088 C 0.4078 0.28913 0.74785 0.0
C1089 C 0.42459 0.29392 0.75837 0.0
C1090 C 0.43903 0.29562 0.74882 0.0
H1091 H 0.45116 0.24808 0.69853 0.0
H1092 H 0.43984 0.25595 0.71758 0.0
H1093 H 0.43318 0.25972 0.69301 0.0
H1094 H 0.41851 0.286 0.70224 0.0
H1095 H 0.39313 0.28267 0.71893 0.0
H1096 H 0.0899 0.81016 0.67391 0.0
H1097 H 0.08961 0.83881 0.65816 0.0
H1098 H 0.03599 0.83627 0.66419 0.0
H1099 H 0.03629 0.80781 0.68037 0.0
H1100 H 0.06977 0.84106 0.62434 0.0
H1101 H 0.05602 0.89152 0.68246 0.0
H1102 H 0.0629 0.86964 0.68717 0.0
H1103 H 0.04072 0.86972 0.67789 0.0
C1104 C 0.0781 0.81585 0.67209 0.0
C1105 C 0.0631 0.80678 0.67832 0.0
C1106 C 0.07797 0.83221 0.66313 0.0
C1107 C 0.06285 0.83979 0.66025 0.0
C1108 C 0.0479 0.83091 0.66669 0.0
H1109 H 0.027 0.92003 0.58987 0.0
H1110 H 0.03066 0.89638 0.61203 0.0
C1111 C 0.04805 0.81458 0.67579 0.0
C1112 C 0.06237 0.85604 0.64906 0.0
H1113 H 0.05287 0.90042 0.65039 0.0
C1114 C 0.06627 0.85412 0.63011 0.0
C1115 C 0.05777 0.87303 0.65665 0.0
C1116 C 0.05428 0.87622 0.67722 0.0
C1117 C 0.06524 0.86856 0.61832 0.0
C1118 C 0.06034 0.88538 0.62578 0.0
C1119 C 0.05662 0.88744 0.64478 0.0
C1120 C 0.05842 0.90068 0.6137 0.0
C1121 C 0.06892 0.86552 0.59779 0.0
C1122 C 0.07289 0.91108 0.60768 0.0
C1123 C 0.07084 0.92452 0.59498 0.0
C1124 C 0.05428 0.92771 0.58812 0.0
C1125 C 0.03988 0.91765 0.59469 0.0
C1126 C 0.04195 0.90427 0.60744 0.0
H1127 H 0.06951 0.85053 0.59321 0.0
H1128 H 0.05887 0.86992 0.58758 0.0
H1129 H 0.08153 0.87432 0.59667 0.0
H1130 H 0.08571 0.90854 0.61252 0.0
H1131 H 0.08215 0.93199 0.59009 0.0
H1132 H 0.49341 0.8277 0.83097 0.0
H1133 H 0.46368 0.8169 0.815 0.0
H1134 H 0.46824 0.75922 0.82172 0.0
H1135 H 0.49794 0.76996 0.83813 0.0
H1136 H 0.44724 0.79113 0.78293 0.0
H1137 H 0.4293 0.76833 0.85228 0.0
H1138 H 0.44999 0.78243 0.85089 0.0
H1139 H 0.44564 0.75756 0.84258 0.0
C1140 C 0.48819 0.81268 0.82876 0.0
C1141 C 0.49787 0.79969 0.83603 0.0
C1142 C 0.47122 0.80653 0.81961 0.0
C1143 C 0.4637 0.78732 0.81755 0.0
C1144 C 0.47373 0.77415 0.82354 0.0
H1145 H 0.35535 0.75811 0.76081 0.0
H1146 H 0.38553 0.7552 0.76933 0.0
C1147 C 0.49069 0.7803 0.83282 0.0
C1148 C 0.44498 0.78153 0.81071 0.0
H1149 H 0.40683 0.76637 0.82657 0.0
C1150 C 0.43837 0.78543 0.7923 0.0
C1151 C 0.43352 0.77427 0.82314 0.0
C1152 C 0.43988 0.77051 0.84338 0.0
C1153 C 0.42052 0.78299 0.78625 0.0
C1154 C 0.40908 0.77616 0.79888 0.0
C1155 C 0.4157 0.77148 0.81693 0.0
C1156 C 0.39037 0.77604 0.79468 0.0
C1157 C 0.41408 0.78879 0.76691 0.0
C1158 C 0.38295 0.78807 0.80662 0.0
C1159 C 0.36571 0.78965 0.80193 0.0
C1160 C 0.35557 0.7792 0.78519 0.0
C1161 C 0.36282 0.76643 0.77376 0.0
C1162 C 0.38009 0.76483 0.77851 0.0
H1163 H 0.42464 0.79686 0.76049 0.0
H1164 H 0.40818 0.77596 0.75667 0.0
H1165 H 0.40404 0.79759 0.76839 0.0
H1166 H 0.39069 0.79679 0.81922 0.0
H1167 H 0.36055 0.79956 0.81108 0.0
H1168 H 0.57002 0.2277 0.14284 0.0
H1169 H 0.57223 0.20071 0.11999 0.0
H1170 H 0.5802 0.16786 0.16738 0.0
H1171 H 0.5777 0.1947 0.19032 0.0
H1172 H 0.59933 0.18066 0.11769 0.0
H1173 H 0.5397 0.13465 0.13096 0.0
H1174 H 0.54468 0.15969 0.13904 0.0
H1175 H 0.55499 0.14362 0.15239 0.0
C1176 C 0.57215 0.21469 0.14839 0.0
C1177 C 0.57353 0.21322 0.16834 0.0
C1178 C 0.57349 0.19934 0.13533 0.0
C1179 C 0.5762 0.18226 0.14199 0.0
C1180 C 0.57782 0.18083 0.16193 0.0
H1181 H 0.57543 0.07164 0.08322 0.0
H1182 H 0.58272 0.09986 0.10693 0.0
C1183 C 0.57641 0.19616 0.17501 0.0
C1184 C 0.57709 0.16589 0.128 0.0
H1185 H 0.55691 0.1208 0.1108 0.0
C1186 C 0.59008 0.16754 0.11616 0.0
C1187 C 0.56495 0.14886 0.12602 0.0
C1188 C 0.55019 0.14658 0.13763 0.0
C1189 C 0.59137 0.15248 0.10251 0.0
C1190 C 0.57924 0.13547 0.10059 0.0
C1191 C 0.56631 0.13382 0.11247 0.0
C1192 C 0.57905 0.11929 0.08586 0.0
C1193 C 0.60574 0.15478 0.0904 0.0
C1194 C 0.57533 0.12097 0.06604 0.0
C1195 C 0.57129 0.10482 0.0524 0.0
C1196 C 0.5707 0.08681 0.05847 0.0
C1197 C 0.57579 0.08533 0.07813 0.0
C1198 C 0.5799 0.10144 0.09171 0.0
H1199 H 0.61644 0.16651 0.09703 0.0
H1200 H 0.61098 0.14155 0.08839 0.0
H1201 H 0.60062 0.15809 0.07588 0.0
H1202 H 0.57436 0.13459 0.06125 0.0
H1203 H 0.56738 0.10636 0.03735 0.0
H1204 H 0.11203 0.32631 0.36772 0.0
H1205 H 0.13309 0.32642 0.34561 0.0
H1206 H 0.09575 0.33736 0.29961 0.0
H1207 H 0.07427 0.33663 0.32172 0.0
H1208 H 0.1078 0.3077 0.28855 0.0
H1209 H 0.16404 0.36178 0.32022 0.0
H1210 H 0.15806 0.34809 0.33899 0.0
H1211 H 0.1432 0.36165 0.32788 0.0
C1212 C 0.10842 0.32928 0.35305 0.0
C1213 C 0.09147 0.33127 0.34638 0.0
C1214 C 0.12057 0.32956 0.34043 0.0
C1215 C 0.11612 0.33216 0.32096 0.0
C1216 C 0.0995 0.33545 0.31459 0.0
H1217 H 0.20306 0.30453 0.26702 0.0
H1218 H 0.1802 0.32252 0.27154 0.0
C1219 C 0.08726 0.33504 0.32723 0.0
C1220 C 0.12782 0.32803 0.30695 0.0
H1221 H 0.17073 0.3321 0.3044 0.0
C1222 C 0.12151 0.31349 0.29162 0.0
C1223 C 0.14564 0.33586 0.31042 0.0
C1224 C 0.15303 0.35287 0.32516 0.0
C1225 C 0.13276 0.30512 0.28126 0.0
C1226 C 0.15076 0.31109 0.28678 0.0
C1227 C 0.15694 0.3271 0.30049 0.0
C1228 C 0.16328 0.29949 0.28073 0.0
C1229 C 0.12524 0.28943 0.26507 0.0
C1230 C 0.16128 0.28047 0.28412 0.0
C1231 C 0.17418 0.27006 0.28125 0.0
C1232 C 0.18951 0.27855 0.27528 0.0
C1233 C 0.19128 0.29744 0.27131 0.0
C1234 C 0.17828 0.30781 0.27402 0.0
H1235 H 0.11285 0.29198 0.25743 0.0
H1236 H 0.13421 0.288 0.25437 0.0
H1237 H 0.12244 0.27588 0.27124 0.0
H1238 H 0.15007 0.27386 0.28986 0.0
H1239 H 0.17236 0.25552 0.28429 0.0
H1240 H 0.94487 1.00438 0.19886 0.0
H1241 H 0.95912 1.00702 0.1701 0.0
H1242 H 1.00429 0.04134 0.2052 0.0
H1243 H 0.99004 0.03899 0.23398 0.0
H1244 H 0.99313 0.05663 0.17184 0.0
H1245 H 0.9984 0.98135 0.1548 0.0
H1246 H 0.97704 0.9853 0.15725 0.0
H1247 H 0.99374 0.99077 0.17792 0.0
C1248 C 0.9579 1.01233 0.20048 0.0
C1249 C 0.96637 0.02144 0.21868 0.0
C1250 C 0.96604 1.01377 0.18405 0.0
C1251 C 0.98282 0.02422 0.18556 0.0
C1252 C 0.99134 0.03317 0.20375 0.0
H1253 H 0.05711 0.02766 0.10733 0.0
H1254 H 0.03971 0.02302 0.13329 0.0
C1255 C 0.98321 0.03177 0.22017 0.0
C1256 C 0.99131 0.02642 0.16813 0.0
H1257 H 1.00665 1.00198 0.13211 0.0
C1258 C 0.99606 0.04469 0.16311 0.0
C1259 C 0.99518 1.01081 0.15686 0.0
C1260 C 0.99098 0.99096 0.16202 0.0
C1261 C 1.0047 0.04781 0.14718 0.0
C1262 C 1.00844 0.03219 0.13581 0.0
C1263 C 1.00359 1.0139 0.14076 0.0
C1264 C 0.01851 0.03464 0.11961 0.0
C1265 C 1.01024 0.06784 0.14303 0.0
C1266 C 1.01226 0.04254 0.10319 0.0
C1267 C 0.02225 0.04529 0.08833 0.0
C1268 C 0.03855 0.04005 0.08967 0.0
C1269 C 0.04462 0.0319 0.10597 0.0
C1270 C 0.03467 0.02917 0.12076 0.0
H1271 H 1.00961 0.07836 0.15544 0.0
H1272 H 0.02362 0.07007 0.13959 0.0
H1273 H 1.00157 0.07054 0.13028 0.0
H1274 H 0.99971 0.04663 0.10191 0.0
H1275 H 0.01734 0.05172 0.07596 0.0
H1276 H 0.31081 0.73372 0.5527 0.0
H1277 H 0.29688 0.75514 0.53379 0.0
H1278 H 0.27193 0.70809 0.49123 0.0
H1279 H 0.28565 0.6866 0.51013 0.0
H1280 H 0.30472 0.75848 0.49745 0.0
H1281 H 0.23396 0.73967 0.49363 0.0
H1282 H 0.2489 0.73316 0.51242 0.0
H1283 H 0.24367 0.71933 0.48896 0.0
C1284 C 0.30204 0.72789 0.53954 0.0
C1285 C 0.29947 0.70855 0.53273 0.0
C1286 C 0.294 0.74012 0.52884 0.0
C1287 C 0.28319 0.73317 0.51126 0.0
C1288 C 0.27987 0.71369 0.50499 0.0
H1289 H 0.25658 0.75555 0.40007 0.0
H1290 H 0.25542 0.74611 0.43232 0.0
C1291 C 0.2879 0.70146 0.51568 0.0
C1292 C 0.27814 0.74637 0.49772 0.0
H1293 H 0.24419 0.75474 0.46678 0.0
C1294 C 0.29146 0.75811 0.49109 0.0
C1295 C 0.26084 0.7457 0.48944 0.0
C1296 C 0.24601 0.73391 0.49662 0.0
C1297 C 0.28812 0.76801 0.47528 0.0
C1298 C 0.27085 0.76663 0.46627 0.0
C1299 C 0.25739 0.75585 0.47375 0.0
C1300 C 0.26703 0.77378 0.44743 0.0
C1301 C 0.30332 0.7785 0.46742 0.0
C1302 C 0.27278 0.79277 0.44522 0.0
C1303 C 0.27408 0.79806 0.42678 0.0
C1304 C 0.26919 0.78451 0.41027 0.0
C1305 C 0.26112 0.76615 0.41251 0.0
C1306 C 0.2602 0.76079 0.43095 0.0
H1307 H 0.31578 0.77508 0.47387 0.0
H1308 H 0.30189 0.77507 0.45145 0.0
H1309 H 0.30402 0.79394 0.47082 0.0
H1310 H 0.27763 0.80313 0.45779 0.0
H1311 H 0.28024 0.81238 0.42569 0.0
H1312 H 0.62087 1.00003 0.74779 0.0
H1313 H 0.60487 1.00187 0.71579 0.0
H1314 H 0.65005 0.03594 0.70095 0.0
H1315 H 0.66617 0.03343 0.7325 0.0
H1316 H 0.59423 0.02775 0.69755 0.0
H1317 H 0.63923 1.00177 0.65239 0.0
H1318 H 0.6417 1.00079 0.67815 0.0
H1319 H 0.64974 0.02231 0.66865 0.0
C1320 C 0.6275 1.00773 0.73764 0.0
C1321 C 0.64503 1.01635 0.74295 0.0
C1322 C 0.61825 1.00886 0.71917 0.0
C1323 C 0.62609 0.01869 0.70519 0.0
C1324 C 0.64354 0.02761 0.71072 0.0
H1325 H 0.58512 0.04834 0.5889 0.0
H1326 H 0.60283 0.04692 0.62023 0.0
C1327 C 0.65283 0.0263 0.72907 0.0
C1328 C 0.61592 0.02009 0.68533 0.0
H1329 H 0.61733 1.01587 0.63612 0.0
C1330 C 0.59938 0.02499 0.68421 0.0
C1331 C 0.62222 0.0166 0.66741 0.0
C1332 C 0.6391 1.00989 0.66665 0.0
C1333 C 0.58937 0.02672 0.66631 0.0
C1334 C 0.59575 0.02341 0.64851 0.0
C1335 C 0.61229 0.01862 0.64953 0.0
C1336 C 0.58516 0.02414 0.62882 0.0
C1337 C 0.57202 0.03242 0.66667 0.0
C1338 C 0.56932 1.01169 0.62254 0.0
C1339 C 0.55929 1.01233 0.60449 0.0
C1340 C 0.56456 0.02553 0.59187 0.0
C1341 C 0.58052 0.03793 0.598 0.0
C1342 C 0.5907 0.03712 0.61607 0.0
H1343 H 0.57079 0.0391 0.68125 0.0
H1344 H 0.5698 0.04244 0.65598 0.0
H1345 H 0.56174 0.01967 0.66279 0.0
H1346 H 0.56465 1.00128 0.63162 0.0
H1347 H 0.5472 1.00245 0.60048 0.0
H1348 H 0.29964 0.34852 1.00699 0.0
H1349 H 0.29579 0.33177 0.97418 0.0
H1350 H 0.31891 0.3829 0.95355 0.0
H1351 H 0.32248 0.39981 0.9862 0.0
H1352 H 0.28959 0.36443 0.92947 0.0
H1353 H 0.33369 0.31455 0.94704 0.0
H1354 H 0.31664 0.3142 0.96152 0.0
H1355 H 0.33289 0.33512 0.96343 0.0
C1356 C 0.30391 0.35618 0.99545 0.0
C1357 C 0.31144 0.37546 0.99919 0.0
C1358 C 0.30179 0.34656 0.97674 0.0
C1359 C 0.30731 0.356 0.96147 0.0
C1360 C 0.31461 0.37531 0.96513 0.0
H1361 H 0.32901 0.31138 0.85102 0.0
H1362 H 0.32939 0.32523 0.88422 0.0
C1363 C 0.31667 0.38495 0.9838 0.0
C1364 C 0.30545 0.34586 0.94163 0.0
H1365 H 0.31807 0.30974 0.9153 0.0
C1366 C 0.29578 0.35244 0.92636 0.0
C1367 C 0.31368 0.33035 0.93758 0.0
C1368 C 0.32494 0.32321 0.9532 0.0
C1369 C 0.29418 0.34398 0.90714 0.0
C1370 C 0.30219 0.32828 0.90314 0.0
C1371 C 0.3118 0.32165 0.91843 0.0
C1372 C 0.30166 0.31923 0.88307 0.0
C1373 C 0.2844 0.35235 0.89124 0.0
C1374 C 0.28594 0.31094 0.87143 0.0
C1375 C 0.28565 0.30306 0.85231 0.0
C1376 C 0.30111 0.30317 0.84456 0.0
C1377 C 0.31685 0.31105 0.85646 0.0
C1378 C 0.3171 0.31898 0.87549 0.0
H1379 H 0.28266 0.3669 0.89611 0.0
H1380 H 0.29116 0.35276 0.87837 0.0
H1381 H 0.27141 0.34345 0.88676 0.0
H1382 H 0.27388 0.31061 0.87711 0.0
H1383 H 0.27331 0.297 0.84361 0.0
H1384 H 0.95118 0.0508 0.3338 0.0
H1385 H 0.96616 0.05495 0.36712 0.0
H1386 H 1.0019 0.02034 0.34937 0.0
H1387 H 0.98715 1.0164 0.31594 0.0
H1388 H 0.96957 0.02713 0.39001 0.0
H1389 H 0.03418 0.06544 0.38171 0.0
H1390 H 0.01555 0.06317 0.36333 0.0
H1391 H 0.02718 0.04399 0.36538 0.0
C1392 C 0.96235 0.04426 0.33695 0.0
C1393 C 0.96801 0.03329 0.32225 0.0
C1394 C 0.9709 0.04664 0.35599 0.0
C1395 C 0.98529 0.03818 0.3607 0.0
C1396 C 0.99107 0.02737 0.34601 0.0
H1397 H 0.02271 1.00654 0.47117 0.0
H1398 H 1.01055 1.00828 0.43778 0.0
C1399 C 0.98255 0.02501 0.32693 0.0
C1400 C 0.99345 0.03954 0.38119 0.0
H1401 H 0.03189 0.05237 0.4115 0.0
C1402 C 0.98316 0.03279 0.39472 0.0
C1403 C 1.01115 0.04714 0.38739 0.0
C1404 C 0.02264 0.05553 0.37374 0.0
C1405 C 0.99018 0.03292 0.41416 0.0
C1406 C 1.00803 0.03969 0.42016 0.0
C1407 C 0.01824 0.04699 0.4068 0.0
C1408 C 0.01632 0.03881 0.44017 0.0
C1409 C 0.97838 0.02585 0.42813 0.0
C1410 C 0.02415 0.05539 0.45241 0.0
C1411 C 0.03122 0.05447 0.47158 0.0
C1412 C 0.03065 0.0369 0.47876 0.0
C1413 C 0.02325 0.02031 0.46622 0.0
C1414 C 0.01622 0.02127 0.44712 0.0
H1415 H 0.96467 0.02609 0.42266 0.0
H1416 H 0.97948 1.01103 0.43003 0.0
H1417 H 0.982 0.03448 0.44253 0.0
H1418 H 0.02445 0.06907 0.44726 0.0
H1419 H 0.03689 0.06751 0.48082 0.0
H1420 H 0.37253 0.72371 0.59916 0.0
H1421 H 0.38079 0.74781 0.62742 0.0
H1422 H 0.34328 0.7162 0.65688 0.0
H1423 H 0.33552 0.69188 0.62914 0.0
H1424 H 0.35976 0.7691 0.63884 0.0
H1425 H 0.38068 0.73351 0.70136 0.0
H1426 H 0.38046 0.7235 0.67665 0.0
H1427 H 0.36111 0.72006 0.68768 0.0
C1428 C 0.36647 0.72164 0.61194 0.0
C1429 C 0.35333 0.70598 0.61196 0.0
C1430 C 0.3712 0.73541 0.62806 0.0
C1431 C 0.36284 0.73373 0.6444 0.0
C1432 C 0.35034 0.71757 0.64475 0.0
H1433 H 0.31352 0.80187 0.70765 0.0
H1434 H 0.32769 0.78727 0.68288 0.0
C1435 C 0.34577 0.70373 0.62876 0.0
C1436 C 0.36495 0.74994 0.65969 0.0
H1437 H 0.36581 0.75978 0.70831 0.0
C1438 C 0.36158 0.76724 0.65408 0.0
C1439 C 0.36778 0.74781 0.6796 0.0
C1440 C 0.37294 0.73026 0.68667 0.0
C1441 C 0.35914 0.78166 0.66772 0.0
C1442 C 0.35968 0.77848 0.68733 0.0
C1443 C 0.36494 0.76206 0.69319 0.0
C1444 C 0.35238 0.79036 0.7013 0.0
C1445 C 0.3553 0.79983 0.66083 0.0
C1446 C 0.36151 0.79698 0.7199 0.0
C1447 C 0.35332 0.80512 0.73411 0.0
C1448 C 0.33584 0.80651 0.72995 0.0
C1449 C 0.32702 0.80093 0.7111 0.0
C1450 C 0.33518 0.79276 0.69693 0.0
H1451 H 0.3622 0.80327 0.64848 0.0
H1452 H 0.34126 0.79811 0.6556 0.0
H1453 H 0.35905 0.81186 0.67257 0.0
H1454 H 0.37473 0.79511 0.72363 0.0
H1455 H 0.36035 0.80929 0.74863 0.0
H1456 H 0.62238 0.01791 0.8372 0.0
H1457 H 0.60827 0.02109 0.86617 0.0
H1458 H 0.65734 0.02606 0.90233 0.0
H1459 H 0.67149 0.02351 0.8734 0.0
H1460 H 0.60228 1.00232 0.89471 0.0
H1461 H 0.64331 0.06906 0.93056 0.0
H1462 H 0.64465 0.05981 0.90612 0.0
H1463 H 0.65579 0.05102 0.92642 0.0
C1464 C 0.63027 0.0198 0.8513 0.0
C1465 C 0.64829 0.02056 0.85256 0.0
C1466 C 0.62209 0.02161 0.86809 0.0
C1467 C 0.63149 0.02434 0.88707 0.0
C1468 C 0.64948 0.0247 0.88829 0.0
H1469 H 0.60163 0.03328 1.00658 0.0
H1470 H 0.61687 0.03027 0.97833 0.0
C1471 C 0.65768 0.02301 0.8715 0.0
C1472 C 0.62245 0.02631 0.90523 0.0
H1473 H 0.62451 0.05274 0.94962 0.0
C1474 C 0.60722 1.01349 0.90657 0.0
C1475 C 0.62845 0.04076 0.92125 0.0
C1476 C 0.64383 0.05606 0.92098 0.0
C1477 C 0.59832 1.01443 0.92297 0.0
C1478 C 0.60437 0.02881 0.93897 0.0
C1479 C 0.61962 0.04158 0.93773 0.0
C1480 C 0.59495 0.03098 0.95675 0.0
C1481 C 0.58264 0.9995 0.92314 0.0
C1482 C 0.57741 0.03282 0.95479 0.0
C1483 C 0.56865 0.0347 0.97107 0.0
C1484 C 0.57693 0.03484 0.99025 0.0
C1485 C 0.59457 0.03323 0.99228 0.0
C1486 C 0.60339 0.0315 0.97594 0.0
H1487 H 0.58264 0.98657 0.91319 0.0
H1488 H 0.58189 0.9955 0.93793 0.0
H1489 H 0.57086 1.00511 0.91823 0.0
H1490 H 0.57037 0.03299 0.94054 0.0
H1491 H 0.55518 0.03594 0.96852 0.0
H1492 H 0.3239 0.34969 0.09023 0.0
H1493 H 0.32177 0.33223 0.11827 0.0
H1494 H 0.31153 0.38142 0.15147 0.0
H1495 H 0.31393 0.39908 0.12357 0.0
H1496 H 0.33452 0.36277 0.17252 0.0
H1497 H 0.2758 0.31263 0.13594 0.0
H1498 H 0.29401 0.31373 0.12315 0.0
H1499 H 0.28401 0.33409 0.12644 0.0
C1500 C 0.32128 0.35682 0.10353 0.0
C1501 C 0.31895 0.37573 0.10464 0.0
C1502 C 0.31999 0.34679 0.11952 0.0
C1503 C 0.31622 0.35542 0.13688 0.0
C1504 C 0.3144 0.37446 0.13821 0.0
H1505 H 0.27054 0.30588 0.22811 0.0
H1506 H 0.27847 0.32217 0.20085 0.0
C1507 C 0.31573 0.38452 0.12224 0.0
C1508 C 0.31361 0.34447 0.15346 0.0
H1509 H 0.28752 0.30706 0.16706 0.0
C1510 C 0.3243 0.35054 0.17134 0.0
C1511 C 0.30015 0.32862 0.15193 0.0
C1512 C 0.28772 0.32193 0.1334 0.0
C1513 C 0.32182 0.34124 0.18774 0.0
C1514 C 0.30843 0.32532 0.18614 0.0
C1515 C 0.29787 0.31917 0.16822 0.0
C1516 C 0.30419 0.31568 0.20315 0.0
C1517 C 0.33315 0.34893 0.20679 0.0
C1518 C 0.31602 0.30652 0.21354 0.0
C1519 C 0.31149 0.29716 0.22926 0.0
C1520 C 0.29506 0.29679 0.23471 0.0
C1521 C 0.28329 0.30591 0.22424 0.0
C1522 C 0.28781 0.31523 0.20864 0.0
H1523 H 0.34038 0.36343 0.20651 0.0
H1524 H 0.32535 0.3492 0.2188 0.0
H1525 H 0.34267 0.33962 0.20993 0.0
H1526 H 0.32862 0.30637 0.20934 0.0
H1527 H 0.32072 0.29005 0.23696 0.0
H1528 H 0.21378 0.92302 0.97853 0.0
H1529 H 0.19776 0.94319 0.99637 0.0
H1530 H 0.23171 0.94176 0.04927 0.0
H1531 H 0.24755 0.92134 0.03167 0.0
H1532 H 0.19728 0.93838 0.05433 0.0
H1533 H 0.21778 0.999 0.01475 0.0
H1534 H 0.20712 0.97806 0.99903 0.0
H1535 H 0.22747 0.97815 0.0137 0.0
C1536 C 0.21771 0.92688 0.99398 0.0
C1537 C 0.23199 0.92081 1.00369 0.0
C1538 C 0.20863 0.93845 1.00412 0.0
C1539 C 0.21382 0.94423 0.02403 0.0
C1540 C 0.22761 0.93753 0.03388 0.0
H1541 H 0.17656 0.04143 0.07467 0.0
H1542 H 0.19625 0.01948 0.06891 0.0
C1543 C 0.23664 0.92591 0.02379 0.0
C1544 C 0.20525 0.95781 0.03443 0.0
H1545 H 0.19556 1.00187 0.0339 0.0
C1546 C 0.197 0.95234 0.05002 0.0
C1547 C 0.20536 0.97617 0.02909 0.0
C1548 C 0.21506 0.9833 0.01336 0.0
C1549 C 0.18811 0.96451 0.05987 0.0
C1550 C 0.18726 0.9824 0.05366 0.0
C1551 C 0.19617 0.98813 0.03863 0.0
C1552 C 0.17599 0.99479 0.06116 0.0
C1553 C 0.17969 0.95803 0.07672 0.0
C1554 C 0.15818 0.98808 0.05923 0.0
C1555 C 0.14699 1.00052 0.0626 0.0
C1556 C 0.1534 0.01995 0.06771 0.0
C1557 C 0.17131 0.02653 0.07065 0.0
C1558 C 0.18253 1.01402 0.06742 0.0
H1559 H 0.18657 0.94784 0.08392 0.0
H1560 H 0.17936 0.97013 0.08763 0.0
H1561 H 0.16624 0.9507 0.07133 0.0
H1562 H 0.15278 0.97344 0.05387 0.0
H1563 H 0.13323 0.99508 0.05987 0.0
H1564 H 0.73374 0.60479 0.01577 0.0
H1565 H 0.70478 0.58704 0.01653 0.0
H1566 H 0.68406 0.63826 0.01353 0.0
H1567 H 0.71291 0.65601 0.01242 0.0
H1568 H 0.6832 0.59151 0.04332 0.0
H1569 H 0.65183 0.60226 0.9709 0.0
H1570 H 0.67495 0.60738 0.97799 0.0
H1571 H 0.66193 0.62387 0.98585 0.0
C1572 C 0.72299 0.61224 0.0151 0.0
C1573 C 0.72561 0.63179 0.01393 0.0
C1574 C 0.70645 0.60209 0.01558 0.0
C1575 C 0.69217 0.61125 0.01481 0.0
C1576 C 0.69478 0.63078 0.01369 0.0
H1577 H 0.59319 0.56612 0.04971 0.0
H1578 H 0.62134 0.58496 0.0473 0.0
C1579 C 0.71131 0.64094 0.01317 0.0
C1580 C 0.6747 0.60047 0.01588 0.0
H1581 H 0.63335 0.58871 0.99189 0.0
C1582 C 0.67231 0.59086 0.03205 0.0
C1583 C 0.66052 0.59945 1.00108 0.0
C1584 C 0.66242 0.60863 0.98288 0.0
C1585 C 0.65613 0.58045 0.03393 0.0
C1586 C 0.64183 0.57989 0.01941 0.0
C1587 C 0.64426 0.58932 1.00313 0.0
C1588 C 0.62438 0.5691 0.02055 0.0
C1589 C 0.65461 0.56979 0.05126 0.0
C1590 C 0.61644 0.55433 1.006 0.0
C1591 C 0.60027 0.54372 1.00723 0.0
C1592 C 0.59168 0.54773 0.02299 0.0
C1593 C 0.59947 0.56276 0.03735 0.0
C1594 C 0.61563 0.57341 0.03609 0.0
H1595 H 0.66739 0.56762 0.05822 0.0
H1596 H 0.64898 0.57802 0.06218 0.0
H1597 H 0.64603 0.55578 0.04711 0.0
H1598 H 0.62289 0.5508 0.99383 0.0
H1599 H 0.59456 0.53225 0.99591 0.0
H1600 H 0.66565 0.48623 0.31436 0.0
H1601 H 0.68316 0.46166 0.31828 0.0
H1602 H 0.72709 0.49917 0.30489 0.0
H1603 H 0.7098 0.5239 0.30138 0.0
H1604 H 0.70039 0.44411 0.29268 0.0
H1605 H 0.74658 0.48283 0.35556 0.0
H1606 H 0.72658 0.49023 0.34725 0.0
H1607 H 0.74516 0.4962 0.33537 0.0
C1608 C 0.67905 0.48923 0.31226 0.0
C1609 C 0.68641 0.50702 0.3077 0.0
C1610 C 0.68903 0.47519 0.31452 0.0
C1611 C 0.70651 0.47873 0.31228 0.0
C1612 C 0.71374 0.49632 0.3072 0.0
H1613 H 0.78946 0.4212 0.30161 0.0
H1614 H 0.7687 0.44231 0.30318 0.0
C1615 C 0.70382 0.51038 0.30506 0.0
C1616 C 0.71717 0.46397 0.31488 0.0
H1617 H 0.75502 0.4561 0.3389 0.0
C1618 C 0.7122 0.44659 0.30298 0.0
C1619 C 0.73249 0.4672 0.32847 0.0
C1620 C 0.73793 0.48505 0.34253 0.0
C1621 C 0.72262 0.43274 0.30364 0.0
C1622 C 0.7383 0.43638 0.31658 0.0
C1623 C 0.74297 0.45344 0.32895 0.0
C1624 C 0.75079 0.42343 0.31628 0.0
C1625 C 0.71724 0.41465 0.28994 0.0
C1626 C 0.74762 0.40588 0.32335 0.0
C1627 C 0.75961 0.39378 0.3227 0.0
C1628 C 0.77494 0.39912 0.31499 0.0
C1629 C 0.778 0.41679 0.30803 0.0
C1630 C 0.76609 0.42884 0.30877 0.0
H1631 H 0.70552 0.41481 0.27945 0.0
H1632 H 0.72788 0.41222 0.28176 0.0
H1633 H 0.71449 0.40257 0.29837 0.0
H1634 H 0.73591 0.40158 0.32937 0.0
H1635 H 0.75694 0.38034 0.32833 0.0
H1636 H 0.7904 0.45911 0.51476 0.0
H1637 H 0.81512 0.48517 0.51892 0.0
H1638 H 0.82702 0.466 0.46291 0.0
H1639 H 0.80231 0.44009 0.45858 0.0
H1640 H 0.84782 0.47766 0.52012 0.0
H1641 H 0.83565 0.52313 0.46287 0.0
H1642 H 0.81856 0.50697 0.47042 0.0
H1643 H 0.83149 0.49857 0.4534 0.0
C1644 C 0.79802 0.46077 0.50311 0.0
C1645 C 0.79453 0.44751 0.4864 0.0
C1646 C 0.81211 0.47567 0.50551 0.0
C1647 C 0.82279 0.47764 0.49115 0.0
C1648 C 0.81873 0.46501 0.47399 0.0
H1649 H 0.92316 0.51116 0.47128 0.0
H1650 H 0.89213 0.50286 0.47094 0.0
C1651 C 0.80468 0.4501 0.4716 0.0
C1652 C 0.83957 0.49082 0.49518 0.0
H1653 H 0.86571 0.52342 0.4751 0.0
C1654 C 0.85164 0.48805 0.51061 0.0
C1655 C 0.84447 0.50432 0.48273 0.0
C1656 C 0.83179 0.50857 0.46654 0.0
C1657 C 0.86889 0.49731 0.51301 0.0
C1658 C 0.87405 0.50999 0.49984 0.0
C1659 C 0.86171 0.51367 0.48515 0.0
C1660 C 0.8925 0.51744 0.49948 0.0
C1661 C 0.88165 0.49237 0.52874 0.0
C1662 C 0.90295 0.52885 0.51545 0.0
C1663 C 0.92079 0.53359 0.51573 0.0
C1664 C 0.92838 0.52717 0.49992 0.0
C1665 C 0.91771 0.51654 0.48359 0.0
C1666 C 0.89996 0.51174 0.48338 0.0
H1667 H 0.87607 0.47993 0.53548 0.0
H1668 H 0.89333 0.48931 0.52287 0.0
H1669 H 0.88573 0.50455 0.54027 0.0
H1670 H 0.89737 0.53366 0.52789 0.0
H1671 H 0.92867 0.54201 0.52839 0.0
H1672 H 0.36992 0.08768 0.27021 0.0
H1673 H 0.35533 0.1151 0.27098 0.0
H1674 H 0.40456 0.15241 0.28584 0.0
H1675 H 0.41916 0.12502 0.28513 0.0
H1676 H 0.35326 0.14356 0.29923 0.0
H1677 H 0.38387 0.17812 0.24235 0.0
H1678 H 0.38545 0.1542 0.24651 0.0
H1679 H 0.39907 0.17384 0.26195 0.0
C1680 C 0.37775 0.10169 0.27357 0.0
C1681 C 0.39595 0.10372 0.27749 0.0
C1682 C 0.36928 0.11758 0.27406 0.0
C1683 C 0.37854 0.13639 0.27815 0.0
C1684 C 0.39675 0.13842 0.28216 0.0
H1685 H 0.34986 0.25158 0.28295 0.0
H1686 H 0.36452 0.2243 0.28249 0.0
C1687 C 0.40522 0.12252 0.28188 0.0
C1688 C 0.36923 0.1536 0.27858 0.0
H1689 H 0.36696 0.19566 0.2597 0.0
C1690 C 0.35629 0.15485 0.29045 0.0
C1691 C 0.37288 0.16886 0.26742 0.0
C1692 C 0.38595 0.1687 0.25369 0.0
C1693 C 0.3475 0.17056 0.29182 0.0
C1694 C 0.35095 0.18574 0.28043 0.0
C1695 C 0.36392 0.18445 0.26855 0.0
C1696 C 0.34153 0.20295 0.2807 0.0
C1697 C 0.33507 0.17091 0.30627 0.0
C1698 C 0.32335 0.20096 0.27954 0.0
C1699 C 0.31485 0.21682 0.28005 0.0
C1700 C 0.32398 0.23559 0.28134 0.0
C1701 C 0.3421 0.2376 0.28201 0.0
C1702 C 0.35062 0.22174 0.28169 0.0
H1703 H 0.33826 0.16245 0.31819 0.0
H1704 H 0.3351 0.18555 0.31275 0.0
H1705 H 0.32185 0.16458 0.29889 0.0
H1706 H 0.3155 0.187 0.27796 0.0
H1707 H 0.30095 0.21427 0.27927 0.0
H1708 H 0.33781 0.16562 0.51583 0.0
H1709 H 0.36375 0.15141 0.5179 0.0
H1710 H 0.33264 0.0967 0.51898 0.0
H1711 H 0.3066 0.11078 0.51668 0.0
H1712 H 0.37693 0.13198 0.54689 0.0
H1713 H 0.36149 0.08606 0.47648 0.0
H1714 H 0.35012 0.10499 0.48224 0.0
H1715 H 0.34486 0.08275 0.49149 0.0
C1716 C 0.33647 0.15053 0.51637 0.0
C1717 C 0.32013 0.13931 0.51599 0.0
C1718 C 0.35132 0.14244 0.51758 0.0
C1719 C 0.35014 0.12294 0.51831 0.0
C1720 C 0.33384 0.1117 0.51801 0.0
H1721 H 0.42127 0.04563 0.53292 0.0
H1722 H 0.39642 0.06134 0.52814 0.0
C1723 C 0.31898 0.11979 0.51681 0.0
C1724 C 0.36602 0.11449 0.52005 0.0
H1725 H 0.38533 0.081 0.49834 0.0
C1726 C 0.37884 0.12094 0.5362 0.0
C1727 C 0.36851 0.10009 0.5061 0.0
C1728 C 0.35561 0.09316 0.488 0.0
C1729 C 0.39382 0.11301 0.53907 0.0
C1730 C 0.39622 0.09845 0.52521 0.0
C1731 C 0.38349 0.09215 0.50895 0.0
C1732 C 0.41153 0.08907 0.5277 0.0
C1733 C 0.40667 0.11985 0.55723 0.0
C1734 C 0.42834 0.09935 0.5287 0.0
C1735 C 0.44265 0.09041 0.53159 0.0
C1736 C 0.44043 0.07099 0.53348 0.0
C1737 C 0.42352 0.06068 0.53194 0.0
C1738 C 0.40926 0.06961 0.52905 0.0
H1739 H 0.40101 0.12768 0.56845 0.0
H1740 H 0.41149 0.10785 0.56343 0.0
H1741 H 0.41787 0.12956 0.55364 0.0
H1742 H 0.43041 0.11432 0.52732 0.0
H1743 H 0.45546 0.0988 0.53275 0.0
H1744 H 0.70083 0.59398 0.28114 0.0
H1745 H 0.7206 0.62403 0.28233 0.0
H1746 H 0.70352 0.64504 0.33477 0.0
H1747 H 0.68353 0.61501 0.33358 0.0
H1748 H 0.70569 0.67097 0.30725 0.0
H1749 H 0.76567 0.64161 0.32037 0.0
H1750 H 0.75087 0.62945 0.29965 0.0
H1751 H 0.74484 0.62883 0.32344 0.0
C1752 C 0.70129 0.60498 0.29294 0.0
C1753 C 0.69071 0.60211 0.30733 0.0
C1754 C 0.71265 0.6221 0.29365 0.0
C1755 C 0.71371 0.63663 0.30881 0.0
C1756 C 0.70295 0.63395 0.32302 0.0
H1757 H 0.79777 0.73472 0.32905 0.0
H1758 H 0.77669 0.70721 0.33372 0.0
C1759 C 0.69157 0.6168 0.32233 0.0
C1760 C 0.72599 0.65464 0.30965 0.0
H1761 H 0.76872 0.67277 0.31122 0.0
C1762 C 0.71948 0.67143 0.30828 0.0
C1763 C 0.744 0.65524 0.31135 0.0
C1764 C 0.75181 0.63786 0.31398 0.0
C1765 C 0.73049 0.68869 0.3078 0.0
C1766 C 0.74841 0.68906 0.30843 0.0
C1767 C 0.75496 0.67242 0.31055 0.0
C1768 C 0.76055 0.70637 0.30618 0.0
C1769 C 0.72285 0.70636 0.30662 0.0
C1770 C 0.75853 0.71488 0.28909 0.0
C1771 C 0.77054 0.7305 0.2864 0.0
C1772 C 0.7848 0.73785 0.30073 0.0
C1773 C 0.78685 0.72934 0.31781 0.0
C1774 C 0.77482 0.71368 0.32051 0.0
H1775 H 0.71023 0.70486 0.31204 0.0
H1776 H 0.73169 0.71885 0.31508 0.0
H1777 H 0.72066 0.70907 0.29128 0.0
H1778 H 0.74789 0.70916 0.27762 0.0
H1779 H 0.76887 0.73655 0.2729 0.0
H1780 H 0.91732 0.48629 0.77589 0.0
H1781 H 0.90259 0.45404 0.77747 0.0
H1782 H 0.85345 0.47197 0.76868 0.0
H1783 H 0.86828 0.50449 0.76775 0.0
H1784 H 0.85167 0.44854 0.79424 0.0
H1785 H 0.87979 0.41327 0.73612 0.0
H1786 H 0.89628 0.42579 0.75504 0.0
H1787 H 0.88273 0.43864 0.74085 0.0
C1788 C 0.90336 0.48342 0.77414 0.0
C1789 C 0.89412 0.49827 0.77151 0.0
C1790 C 0.89483 0.46473 0.77489 0.0
C1791 C 0.87665 0.45994 0.77272 0.0
C1792 C 0.86741 0.47484 0.77028 0.0
H1793 H 0.82047 0.34037 0.75052 0.0
H1794 H 0.8343 0.37284 0.7478 0.0
C1795 C 0.87596 0.4936 0.76968 0.0
C1796 C 0.86737 0.43972 0.77357 0.0
H1797 H 0.8652 0.39303 0.75605 0.0
C1798 C 0.85467 0.43649 0.78577 0.0
C1799 C 0.87071 0.42357 0.76238 0.0
C1800 C 0.88298 0.42547 0.74771 0.0
C1801 C 0.84573 0.41807 0.7874 0.0
C1802 C 0.84971 0.40184 0.77695 0.0
C1803 C 0.86211 0.4051 0.76441 0.0
C1804 C 0.84111 0.38157 0.77866 0.0
C1805 C 0.83168 0.41638 0.79997 0.0
C1806 C 0.84031 0.3749 0.79684 0.0
C1807 C 0.8322 0.35625 0.79843 0.0
C1808 C 0.82475 0.34326 0.78189 0.0
C1809 C 0.8259 0.34975 0.76367 0.0
C1810 C 0.83392 0.36849 0.76209 0.0
H1811 H 0.82628 0.42956 0.80149 0.0
H1812 H 0.82097 0.40446 0.79399 0.0
H1813 H 0.83716 0.41393 0.81469 0.0
H1814 H 0.84614 0.38408 0.80999 0.0
H1815 H 0.83188 0.35198 0.81276 0.0
H1816 H 0.08355 0.84002 0.09799 0.0
H1817 H 0.08308 0.86901 0.08273 0.0
H1818 H 0.07162 0.89699 0.13538 0.0
H1819 H 0.07258 0.86826 0.15086 0.0
H1820 H 0.05728 0.8873 0.07504 0.0
H1821 H 0.11005 0.93585 0.12381 0.0
H1822 H 0.10649 0.91059 0.1242 0.0
H1823 H 0.09401 0.92487 0.13693 0.0
C1824 C 0.08112 0.85242 0.10637 0.0
C1825 C 0.07819 0.85189 0.12566 0.0
C1826 C 0.08084 0.86898 0.09763 0.0
C1827 C 0.07762 0.88534 0.10799 0.0
C1828 C 0.07462 0.88477 0.12724 0.0
H1829 H 0.03494 0.9762 0.06209 0.0
H1830 H 0.04074 0.94737 0.07478 0.0
C1831 C 0.07504 0.86828 0.13603 0.0
C1832 C 0.07642 0.90262 0.09835 0.0
H1833 H 0.09071 0.95039 0.10348 0.0
C1834 C 0.06473 0.90106 0.08117 0.0
C1835 C 0.08636 0.92056 0.10608 0.0
C1836 C 0.10006 0.92306 0.12365 0.0
C1837 C 0.06225 0.91698 0.07194 0.0
C1838 C 0.07135 0.93508 0.08039 0.0
C1839 C 0.08354 0.93657 0.09714 0.0
C1840 C 0.06797 0.95267 0.07246 0.0
C1841 C 0.04994 0.91418 0.05316 0.0
C1842 C 0.08145 0.96565 0.06749 0.0
C1843 C 0.07821 0.98237 0.06041 0.0
C1844 C 0.06141 0.98643 0.05819 0.0
C1845 C 0.048 0.97345 0.06334 0.0
C1846 C 0.05127 0.95685 0.07051 0.0
H1847 H 0.0486 0.89968 0.04554 0.0
H1848 H 0.03699 0.91612 0.0563 0.0
H1849 H 0.05427 0.92451 0.0433 0.0
H1850 H 0.09448 0.96282 0.06903 0.0
H1851 H 0.08888 0.9921 0.05672 0.0
H1852 H 0.98143 0.26787 0.86227 0.0
H1853 H 0.95248 0.26893 0.84594 0.0
H1854 H 0.93367 0.27047 0.90089 0.0
H1855 H 0.96248 0.26905 0.91726 0.0
H1856 H 0.91169 0.24593 0.87296 0.0
H1857 H 0.9294 0.31489 0.84574 0.0
H1858 H 0.9421 0.29791 0.83841 0.0
H1859 H 0.94362 0.30636 0.86368 0.0
C1860 C 0.97112 0.26842 0.87087 0.0
C1861 C 0.97426 0.26845 0.89107 0.0
C1862 C 0.9546 0.26917 0.86153 0.0
C1863 C 0.94095 0.27015 0.87222 0.0
C1864 C 0.94401 0.26983 0.89235 0.0
H1865 H 0.84318 0.30049 0.82462 0.0
H1866 H 0.87057 0.29951 0.84487 0.0
C1867 C 0.96049 0.26903 0.90168 0.0
C1868 C 0.92343 0.27123 0.86242 0.0
H1869 H 0.90149 0.29703 0.83304 0.0
C1870 C 0.90945 0.25716 0.86431 0.0
C1871 C 0.92041 0.28608 0.85143 0.0
C1872 C 0.93464 0.30228 0.84983 0.0
C1873 C 0.89266 0.25723 0.85509 0.0
C1874 C 0.8898 0.27157 0.84334 0.0
C1875 C 0.90369 0.28594 0.84189 0.0
C1876 C 0.87264 0.27168 0.83199 0.0
C1877 C 0.87812 0.24204 0.8582 0.0
C1878 C 0.86466 0.25639 0.81805 0.0
C1879 C 0.84902 0.25689 0.80657 0.0
C1880 C 0.84111 0.2728 0.80864 0.0
C1881 C 0.84896 0.28803 0.82275 0.0
C1882 C 0.86462 0.2875 0.83428 0.0
H1883 H 0.88129 0.23594 0.87188 0.0
H1884 H 0.86597 0.24761 0.85866 0.0
H1885 H 0.87587 0.23042 0.84607 0.0
H1886 H 0.87075 0.24422 0.81568 0.0
H1887 H 0.84332 0.24498 0.79575 0.0
H1888 H 0.57546 0.23506 0.64725 0.0
H1889 H 0.57098 0.20296 0.6305 0.0
H1890 H 0.55068 0.22242 0.57754 0.0
H1891 H 0.55554 0.25472 0.59413 0.0
H1892 H 0.5416 0.17983 0.61261 0.0
H1893 H 0.58696 0.19433 0.55981 0.0
H1894 H 0.58645 0.2111 0.58045 0.0
H1895 H 0.57057 0.20866 0.55917 0.0
C1896 C 0.57009 0.23253 0.63202 0.0
C1897 C 0.56594 0.24742 0.62197 0.0
C1898 C 0.56752 0.21417 0.62247 0.0
C1899 C 0.56073 0.21032 0.60269 0.0
C1900 C 0.5563 0.22512 0.59269 0.0
H1901 H 0.52287 0.09357 0.548 0.0
H1902 H 0.52463 0.12695 0.5597 0.0
C1903 C 0.55898 0.24354 0.60221 0.0
C1904 C 0.55813 0.19072 0.59276 0.0
H1905 H 0.57012 0.16357 0.55608 0.0
C1906 C 0.5478 0.17627 0.60021 0.0
C1907 C 0.56638 0.18608 0.57671 0.0
C1908 C 0.57834 0.20081 0.56864 0.0
C1909 C 0.54559 0.1573 0.5922 0.0
C1910 C 0.55361 0.15269 0.57595 0.0
C1911 C 0.56384 0.16715 0.56839 0.0
C1912 C 0.55244 0.13282 0.56738 0.0
C1913 C 0.53521 0.14233 0.60167 0.0
C1914 C 0.56753 0.12523 0.567 0.0
C1915 C 0.5666 0.10624 0.56009 0.0
C1916 C 0.55053 0.09441 0.55344 0.0
C1917 C 0.53545 0.10222 0.5532 0.0
C1918 C 0.53642 0.12128 0.55999 0.0
H1919 H 0.53364 0.14765 0.61662 0.0
H1920 H 0.52215 0.13788 0.59306 0.0
H1921 H 0.5414 0.12969 0.6023 0.0
H1922 H 0.58004 0.13389 0.57254 0.0
H1923 H 0.57848 0.10075 0.56047 0.0
H1924 H 0.5565 0.75662 0.36736 0.0
H1925 H 0.58323 0.75705 0.35339 0.0
H1926 H 0.61233 0.78896 0.40601 0.0
H1927 H 0.58575 0.78826 0.42018 0.0
H1928 H 0.60667 0.78704 0.34633 0.0
H1929 H 0.63863 0.74611 0.39833 0.0
H1930 H 0.61602 0.74735 0.39664 0.0
H1931 H 0.63207 0.76648 0.40974 0.0
C1932 C 0.56861 0.76366 0.37597 0.0
C1933 C 0.56903 0.7723 0.39492 0.0
C1934 C 0.58387 0.76391 0.36797 0.0
C1935 C 0.59985 0.77274 0.37876 0.0
C1936 C 0.60024 0.78165 0.39757 0.0
H1937 H 0.70538 0.79451 0.35369 0.0
H1938 H 0.67893 0.79333 0.36836 0.0
C1939 C 0.585 0.78135 0.4056 0.0
C1940 C 0.61603 0.77305 0.37017 0.0
H1941 H 0.65593 0.76085 0.37687 0.0
C1942 C 0.61739 0.78122 0.35295 0.0
C1943 C 0.63006 0.76547 0.37883 0.0
C1944 C 0.62911 0.75569 0.3968 0.0
C1945 C 0.63247 0.78229 0.34434 0.0
C1946 C 0.6465 0.77478 0.35304 0.0
C1947 C 0.64518 0.76664 0.37026 0.0
C1948 C 0.66259 0.77511 0.34434 0.0
C1949 C 0.6334 0.79178 0.32619 0.0
C1950 C 0.66224 0.76498 0.32614 0.0
C1951 C 0.6773 0.76563 0.31772 0.0
C1952 C 0.69307 0.77641 0.32736 0.0
C1953 C 0.69343 0.78626 0.34578 0.0
C1954 C 0.67835 0.78552 0.35423 0.0
H1955 H 0.62337 0.80069 0.32398 0.0
H1956 H 0.64628 0.80075 0.32671 0.0
H1957 H 0.63132 0.78081 0.31347 0.0
H1958 H 0.65027 0.75663 0.31837 0.0
H1959 H 0.67649 0.75803 0.30345 0.0
H1960 H 0.08789 0.28099 0.42177 0.0
H1961 H 0.09241 0.25352 0.43817 0.0
H1962 H 0.05099 0.21849 0.39782 0.0
H1963 H 0.0467 0.24577 0.38107 0.0
H1964 H 0.06833 0.23529 0.45617 0.0
H1965 H 0.0861 0.18413 0.40188 0.0
H1966 H 0.08717 0.2088 0.39883 0.0
H1967 H 0.06694 0.19248 0.39287 0.0
C1968 C 0.08001 0.26734 0.41614 0.0
C1969 C 0.06688 0.2655 0.40024 0.0
C1970 C 0.08263 0.25167 0.42549 0.0
C1971 C 0.07216 0.23393 0.41909 0.0
C1972 C 0.0595 0.23193 0.40272 0.0
H1973 H 0.03532 0.14895 0.48693 0.0
H1974 H 0.04002 0.17384 0.46598 0.0
C1975 C 0.05696 0.24757 0.39326 0.0
C1976 C 0.07283 0.21824 0.43103 0.0
H1977 H 0.0747 0.17128 0.42907 0.0
C1978 C 0.07001 0.22138 0.45031 0.0
C1979 C 0.07514 0.20014 0.42342 0.0
C1980 C 0.07919 0.19622 0.40317 0.0
C1981 C 0.0687 0.20674 0.46196 0.0
C1982 C 0.06992 0.18839 0.45398 0.0
C1983 C 0.07352 0.18535 0.435 0.0
C1984 C 0.06682 0.17215 0.46506 0.0
C1985 C 0.06583 0.21098 0.48266 0.0
C1986 C 0.08018 0.16256 0.47081 0.0
C1987 C 0.07754 0.14832 0.48279 0.0
C1988 C 0.06147 0.14353 0.48912 0.0
C1989 C 0.04792 0.15264 0.48259 0.0
C1990 C 0.05057 0.16679 0.47061 0.0
H1991 H 0.06981 0.22628 0.488 0.0
H1992 H 0.05188 0.20686 0.48354 0.0
H1993 H 0.07307 0.20287 0.49241 0.0
H1994 H 0.09279 0.16651 0.46657 0.0
H1995 H 0.08821 0.14155 0.48766 0.0
H1996 H 0.62049 0.30559 0.24273 0.0
H1997 H 0.65181 0.31597 0.24983 0.0
H1998 H 0.65866 0.25793 0.24324 0.0
H1999 H 0.62735 0.24738 0.23613 0.0
H2000 H 0.68242 0.28468 0.27502 0.0
H2001 H 0.67795 0.30806 0.20145 0.0
H2002 H 0.66424 0.3166 0.21743 0.0
H2003 H 0.66075 0.29189 0.20873 0.0
C2004 C 0.62864 0.29501 0.2433 0.0
C2005 C 0.62151 0.27569 0.23864 0.0
C2006 C 0.6465 0.30098 0.24729 0.0
C2007 C 0.65744 0.2877 0.24673 0.0
C2008 C 0.65035 0.26836 0.24365 0.0
H2009 H 0.76011 0.28838 0.22338 0.0
H2010 H 0.72891 0.28505 0.22257 0.0
C2011 C 0.63249 0.26237 0.23961 0.0
C2012 C 0.67614 0.29391 0.24717 0.0
H2013 H 0.70567 0.31206 0.21953 0.0
C2014 C 0.68756 0.29084 0.26302 0.0
C2015 C 0.68266 0.3017 0.2313 0.0
C2016 C 0.67083 0.30468 0.21366 0.0
C2017 C 0.70548 0.2953 0.26338 0.0
C2018 C 0.71199 0.30307 0.24749 0.0
C2019 C 0.70055 0.30624 0.23171 0.0
C2020 C 0.73065 0.30688 0.24652 0.0
C2021 C 0.71731 0.29115 0.28044 0.0
C2022 C 0.74181 0.32086 0.25967 0.0
C2023 C 0.75961 0.32291 0.26007 0.0
C2024 C 0.76653 0.31095 0.24739 0.0
C2025 C 0.75523 0.29781 0.23337 0.0
C2026 C 0.7374 0.29582 0.23293 0.0
H2027 H 0.71024 0.28198 0.28972 0.0
H2028 H 0.72765 0.28415 0.27547 0.0
H2029 H 0.72358 0.30463 0.28945 0.0
H2030 H 0.73676 0.32976 0.27001 0.0
H2031 H 0.76792 0.33335 0.27086 0.0
H2032 H 0.5051 0.85539 0.90578 0.0
H2033 H 0.49912 0.88141 0.92737 0.0
H2034 H 0.55369 0.89943 0.94717 0.0
H2035 H 0.55978 0.8738 0.92523 0.0
H2036 H 0.50577 0.89023 0.9663 0.0
H2037 H 0.54002 0.94756 0.93127 0.0
H2038 H 0.53522 0.92326 0.92037 0.0
H2039 H 0.5538 0.93152 0.93869 0.0
C2040 C 0.51582 0.86495 0.91471 0.0
C2041 C 0.53292 0.86271 0.91371 0.0
C2042 C 0.51238 0.87977 0.92704 0.0
C2043 C 0.52597 0.89257 0.93858 0.0
C2044 C 0.54303 0.89002 0.938 0.0
H2045 H 0.5327 0.9668 0.04146 0.0
H2046 H 0.5262 0.93897 0.01735 0.0
C2047 C 0.54649 0.87532 0.92554 0.0
C2048 C 0.52238 0.90855 0.95134 0.0
H2049 H 0.5338 0.95626 0.96305 0.0
C2050 C 0.5117 0.90472 0.96546 0.0
C2051 C 0.52974 0.92748 0.94991 0.0
C2052 C 0.54017 0.93273 0.9341 0.0
C2053 C 0.50891 0.91926 0.97882 0.0
C2054 C 0.51737 0.93801 0.97831 0.0
C2055 C 0.52737 0.94189 0.96358 0.0
C2056 C 0.51735 0.9537 0.99361 0.0
C2057 C 0.49698 0.91432 0.99334 0.0
C2058 C 0.51421 0.97124 0.98849 0.0
C2059 C 0.51834 0.98728 1.00219 0.0
C2060 C 0.52551 0.98601 0.02129 0.0
C2061 C 0.52712 0.96818 0.02685 0.0
C2062 C 0.52328 0.95219 0.01306 0.0
H2063 H 0.48684 0.9018 0.98739 0.0
H2064 H 0.50451 0.91067 1.00645 0.0
H2065 H 0.49063 0.92629 0.99768 0.0
H2066 H 0.50961 0.97275 0.97359 0.0
H2067 H 0.51697 1.00084 0.99753 0.0
H2068 H 1.00308 0.74169 0.70837 0.0
H2069 H 0.97935 0.74429 0.72663 0.0
H2070 H 1.01485 0.7535 0.78017 0.0
H2071 H 0.03886 0.75146 0.76186 0.0
H2072 H 0.96558 0.7263 0.75542 0.0
H2073 H 0.99477 0.80156 0.78183 0.0
H2074 H 1.00285 0.78803 0.76326 0.0
H2075 H 1.00766 0.78432 0.78819 0.0
C2076 C 1.00583 0.744 0.72404 0.0
C2077 C 0.02284 0.74666 0.73369 0.0
C2078 C 0.99224 0.74543 0.73447 0.0
C2079 C 0.9954 0.74947 0.75473 0.0
C2080 C 1.01221 0.7508 0.76451 0.0
H2081 H 0.91579 0.78827 0.81721 0.0
H2082 H 0.94182 0.77545 0.8125 0.0
C2083 C 0.02588 0.74953 0.75405 0.0
C2084 C 0.9812 0.75381 0.76509 0.0
H2085 H 0.96693 0.79065 0.78816 0.0
C2086 C 0.96598 0.74026 0.7629 0.0
C2087 C 0.98176 0.77206 0.77486 0.0
C2088 C 0.99756 0.78742 0.77711 0.0
C2089 C 0.95102 0.74478 0.76933 0.0
C2090 C 0.95135 0.7633 0.77807 0.0
C2091 C 0.96683 0.77646 0.78145 0.0
C2092 C 0.93533 0.77007 0.78131 0.0
C2093 C 0.93479 0.72995 0.76608 0.0
C2094 C 0.92334 0.77159 0.76529 0.0
C2095 C 0.90872 0.7792 0.76786 0.0
C2096 C 0.90571 0.78539 0.78655 0.0
C2097 C 0.91779 0.78383 0.80262 0.0
C2098 C 0.93256 0.77634 0.79999 0.0
H2099 H 0.93774 0.71545 0.76438 0.0
H2100 H 0.9273 0.73132 0.77827 0.0
H2101 H 0.92657 0.73183 0.75261 0.0
H2102 H 0.92551 0.76726 0.75072 0.0
H2103 H 0.89994 0.78058 0.75513 0.0
H2104 H 0.1067 0.04945 0.84536 0.0
H2105 H 0.09274 0.04715 0.87437 0.0
H2106 H 0.14205 0.04813 0.90883 0.0
H2107 H 0.15612 0.05091 0.88001 0.0
H2108 H 0.09154 0.01927 0.89778 0.0
H2109 H 0.12349 0.08773 0.9405 0.0
H2110 H 0.12453 0.08253 0.91504 0.0
H2111 H 0.13831 0.07341 0.93281 0.0
C2112 C 0.11458 0.04938 0.85916 0.0
C2113 C 0.1325 0.05046 0.86043 0.0
C2114 C 0.1066 0.04803 0.87571 0.0
C2115 C 0.11639 0.04774 0.89383 0.0
C2116 C 0.13429 0.0488 0.89512 0.0
H2117 H 0.08271 0.02458 1.00476 0.0
H2118 H 0.09986 0.02828 0.97814 0.0
C2119 C 0.14229 0.05027 0.8786 0.0
C2120 C 0.10772 0.04547 0.91117 0.0
H2121 H 0.10631 0.06612 0.95678 0.0
C2122 C 0.09477 0.02954 0.91065 0.0
C2123 C 0.11197 0.05887 0.928 0.0
C2124 C 0.12521 0.07669 0.92913 0.0
C2125 C 0.08596 0.02664 0.92648 0.0
C2126 C 0.09019 0.04002 0.94322 0.0
C2127 C 0.10325 0.05583 0.94392 0.0
C2128 C 0.08032 0.03837 0.95959 0.0
C2129 C 0.07208 1.00937 0.92526 0.0
C2130 C 0.06383 0.04302 0.95792 0.0
C2131 C 0.05416 0.04112 0.97306 0.0
C2132 C 0.0608 0.0345 0.99012 0.0
C2133 C 0.07738 0.02993 0.99185 0.0
C2134 C 0.08714 0.03196 0.97668 0.0
H2135 H 0.07203 0.999 0.91246 0.0
H2136 H 0.07386 1.00235 0.93858 0.0
H2137 H 0.05928 1.0137 0.9242 0.0
H2138 H 0.05843 0.04805 0.94484 0.0
H2139 H 0.04143 0.04478 0.97136 0.0
H2140 H 0.76773 0.35006 0.53029 0.0
H2141 H 0.78184 0.33946 0.55918 0.0
H2142 H 0.82695 0.38216 0.5597 0.0
H2143 H 0.8127 0.39318 0.53093 0.0
H2144 H 0.81258 0.32655 0.56802 0.0
H2145 H 0.81243 0.39472 0.61249 0.0
H2146 H 0.80054 0.38855 0.58835 0.0
H2147 H 0.82356 0.39603 0.59183 0.0
C2148 C 0.78073 0.35707 0.53642 0.0
C2149 C 0.78905 0.37258 0.52853 0.0
C2150 C 0.78879 0.35098 0.55289 0.0
C2151 C 0.80532 0.36024 0.56172 0.0
C2152 C 0.81406 0.37508 0.55328 0.0
H2153 H 0.8431 0.31018 0.66548 0.0
H2154 H 0.84484 0.32492 0.63556 0.0
C2155 C 0.80594 0.38128 0.53683 0.0
C2156 C 0.81263 0.35496 0.58046 0.0
H2157 H 0.82065 0.37027 0.6289 0.0
C2158 C 0.81468 0.33616 0.58134 0.0
C2159 C 0.81527 0.36759 0.59775 0.0
C2160 C 0.81275 0.38782 0.59771 0.0
C2161 C 0.81828 0.32931 0.59917 0.0
C2162 C 0.82021 0.34177 0.61649 0.0
C2163 C 0.81922 0.36084 0.61555 0.0
C2164 C 0.82058 0.3347 0.63558 0.0
C2165 C 0.81877 0.30855 0.59934 0.0
C2166 C 0.80673 0.33602 0.64581 0.0
C2167 C 0.80576 0.32777 0.66285 0.0
C2168 C 0.81863 0.31803 0.66998 0.0
C2169 C 0.83288 0.31739 0.66014 0.0
C2170 C 0.83389 0.32576 0.64309 0.0
H2171 H 0.81432 0.30036 0.5848 0.0
H2172 H 0.83221 0.30679 0.60416 0.0
H2173 H 0.81057 0.30244 0.60965 0.0
H2174 H 0.7963 0.34283 0.64021 0.0
H2175 H 0.79452 0.32831 0.66995 0.0
H2176 H 0.47664 0.06057 0.32644 0.0
H2177 H 0.49253 0.05789 0.35828 0.0
H2178 H 0.44443 0.0441 0.3802 0.0
H2179 H 0.42858 0.04636 0.34838 0.0
H2180 H 0.49611 0.0759 0.39371 0.0
H2181 H 0.46592 1.00241 0.39931 0.0
H2182 H 0.46273 1.01294 0.37718 0.0
H2183 H 0.45035 0.01756 0.39628 0.0
C2184 C 0.46939 0.0569 0.33799 0.0
C2185 C 0.45116 0.05361 0.33448 0.0
C2186 C 0.47857 0.05536 0.35639 0.0
C2187 C 0.46994 0.05032 0.37205 0.0
C2188 C 0.45171 0.0474 0.36859 0.0
H2189 H 0.50747 0.03628 0.49573 0.0
H2190 H 0.48937 0.03907 0.46501 0.0
C2191 C 0.44255 0.0489 0.35023 0.0
C2192 C 0.47993 0.04859 0.39189 0.0
H2193 H 0.48349 0.01938 0.42774 0.0
C2194 C 0.4933 0.06344 0.40099 0.0
C2195 C 0.47655 0.03248 0.40198 0.0
C2196 C 0.46324 1.01536 0.39313 0.0
C2197 C 0.50295 0.0628 0.41942 0.0
C2198 C 0.49966 0.04665 0.42944 0.0
C2199 C 0.4862 0.03187 0.42047 0.0
C2200 C 0.51055 0.04459 0.44859 0.0
C2201 C 0.51642 0.07981 0.42821 0.0
C2202 C 0.52861 0.04631 0.45007 0.0
C2203 C 0.53892 0.04467 0.4676 0.0
C2204 C 0.53174 0.04111 0.48456 0.0
C2205 C 0.51361 0.03906 0.48315 0.0
C2206 C 0.50321 0.04066 0.46544 0.0
H2207 H 0.51364 0.09286 0.4223 0.0
H2208 H 0.51726 0.08204 0.44421 0.0
H2209 H 0.52919 0.07761 0.42465 0.0
H2210 H 0.53487 0.0488 0.43751 0.0
H2211 H 0.55273 0.04622 0.46781 0.0
H2212 H 0.78617 0.66775 0.08659 0.0
H2213 H 0.79018 0.68456 0.11931 0.0
H2214 H 0.77942 0.73489 0.09562 0.0
H2215 H 0.77576 0.71825 0.06277 0.0
H2216 H 0.80748 0.74239 0.12445 0.0
H2217 H 0.75225 0.69793 0.14855 0.0
H2218 H 0.76729 0.68457 0.13965 0.0
H2219 H 0.75528 0.69712 0.12346 0.0
C2220 C 0.78459 0.68238 0.08834 0.0
C2221 C 0.78053 0.69165 0.07211 0.0
C2222 C 0.78681 0.69194 0.10706 0.0
C2223 C 0.78481 0.71089 0.10993 0.0
C2224 C 0.78095 0.72025 0.09374 0.0
H2225 H 0.77049 0.768 0.21939 0.0
H2226 H 0.7679 0.75432 0.18573 0.0
C2227 C 0.77881 0.71071 0.07499 0.0
C2228 C 0.78691 0.72098 0.12981 0.0
H2229 H 0.77153 0.71922 0.17292 0.0
C2230 C 0.79958 0.73739 0.13504 0.0
C2231 C 0.77644 0.71458 0.14354 0.0
C2232 C 0.76194 0.6977 0.1385 0.0
C2233 C 0.80224 0.74741 0.15372 0.0
C2234 C 0.79217 0.74061 0.16764 0.0
C2235 C 0.77935 0.72434 0.16231 0.0
C2236 C 0.79439 0.75025 0.18775 0.0
C2237 C 0.81557 0.76536 0.15824 0.0
C2238 C 0.81021 0.75268 0.2001 0.0
C2239 C 0.81179 0.76066 0.21941 0.0
C2240 C 0.79749 0.76611 0.22678 0.0
C2241 C 0.78175 0.7639 0.21426 0.0
C2242 C 0.78023 0.75606 0.19498 0.0
H2243 H 0.81859 0.77137 0.14484 0.0
H2244 H 0.81113 0.77619 0.16772 0.0
H2245 H 0.82768 0.76221 0.16593 0.0
H2246 H 0.82121 0.74794 0.19498 0.0
H2247 H 0.82406 0.76205 0.22868 0.0
H2248 H 0.13063 0.07226 0.75236 0.0
H2249 H 0.1163 0.06751 0.71877 0.0
H2250 H 0.10537 1.00731 0.72072 0.0
H2251 H 0.11951 1.01198 0.7545 0.0
H2252 H 0.12647 0.04646 0.6883 0.0
H2253 H 0.05868 0.01832 0.69679 0.0
H2254 H 0.07458 0.03034 0.71688 0.0
H2255 H 0.07469 1.00626 0.70784 0.0
C2256 C 0.12498 0.05802 0.74573 0.0
C2257 C 0.12617 0.04249 0.75607 0.0
C2258 C 0.11682 0.05533 0.72653 0.0
C2259 C 0.10964 0.03708 0.7173 0.0
C2260 C 0.11054 0.02155 0.72767 0.0
H2261 H 0.06239 1.00263 0.59566 0.0
H2262 H 0.07437 1.00178 0.62956 0.0
C2263 C 0.11869 0.02423 0.74693 0.0
C2264 C 0.1022 0.0344 0.69648 0.0
H2265 H 0.06476 0.01953 0.66477 0.0
C2266 C 0.11299 0.04054 0.68316 0.0
C2267 C 0.08464 0.02649 0.68979 0.0
C2268 C 0.07239 0.02009 0.70354 0.0
C2269 C 0.10666 0.03924 0.66337 0.0
C2270 C 0.08901 0.03187 0.65675 0.0
C2271 C 0.07829 0.02519 0.66993 0.0
C2272 C 0.0813 0.03216 0.6364 0.0
C2273 C 0.11892 0.04583 0.64968 0.0
C2274 C 0.08097 0.04951 0.62918 0.0
C2275 C 0.07419 0.05007 0.60992 0.0
C2276 C 0.06752 0.03325 0.59744 0.0
C2277 C 0.06754 1.01584 0.60482 0.0
C2278 C 0.07433 1.01531 0.62419 0.0
H2279 H 0.13257 0.0462 0.65595 0.0
H2280 H 0.11596 0.03651 0.63566 0.0
H2281 H 0.11757 0.06035 0.64675 0.0
H2282 H 0.08603 0.06268 0.63848 0.0
H2283 H 0.07431 0.06374 0.60482 0.0
H2284 H 0.77042 0.34381 0.44293 0.0
H2285 H 0.77105 0.32754 0.411 0.0
H2286 H 0.7381 0.36268 0.38477 0.0
H2287 H 0.73756 0.37932 0.41689 0.0
H2288 H 0.74474 0.30791 0.38075 0.0
H2289 H 0.78253 0.37302 0.35968 0.0
H2290 H 0.77954 0.37092 0.3845 0.0
H2291 H 0.76199 0.37449 0.36723 0.0
C2292 C 0.76313 0.34796 0.43041 0.0
C2293 C 0.75411 0.36297 0.43234 0.0
C2294 C 0.76344 0.33859 0.41219 0.0
C2295 C 0.7548 0.34408 0.39556 0.0
C2296 C 0.74503 0.35843 0.39746 0.0
H2297 H 0.76659 0.28399 0.28364 0.0
H2298 H 0.75247 0.29798 0.30907 0.0
C2299 C 0.74468 0.36784 0.41578 0.0
C2300 C 0.75738 0.33559 0.37639 0.0
H2301 H 0.78063 0.3447 0.33978 0.0
C2302 C 0.75222 0.31597 0.37148 0.0
C2303 C 0.76724 0.34622 0.36447 0.0
C2304 C 0.77328 0.36732 0.36917 0.0
C2305 C 0.75744 0.30654 0.35546 0.0
C2306 C 0.76804 0.31707 0.34417 0.0
C2307 C 0.77245 0.33677 0.34849 0.0
C2308 C 0.77615 0.30781 0.32906 0.0
C2309 C 0.75251 0.28531 0.35137 0.0
C2310 C 0.79408 0.3087 0.33202 0.0
C2311 C 0.80213 0.30071 0.31763 0.0
C2312 C 0.79238 0.29189 0.30002 0.0
C2313 C 0.77436 0.29059 0.29722 0.0
C2314 C 0.7663 0.2986 0.31165 0.0
H2315 H 0.74588 0.27905 0.36285 0.0
H2316 H 0.74372 0.28142 0.33737 0.0
H2317 H 0.76416 0.27897 0.35006 0.0
H2318 H 0.80185 0.31573 0.34543 0.0
H2319 H 0.81601 0.30169 0.32011 0.0
H2320 H 0.42477 0.04917 0.20495 0.0
H2321 H 0.43934 0.04631 0.17623 0.0
H2322 H 0.48792 0.05096 0.2132 0.0
H2323 H 0.47339 0.05372 0.24187 0.0
H2324 H 0.46443 0.06891 0.16162 0.0
H2325 H 0.49023 1.00485 0.17748 0.0
H2326 H 0.47438 1.01328 0.19055 0.0
H2327 H 0.49684 0.02395 0.19676 0.0
C2328 C 0.43857 0.04956 0.20707 0.0
C2329 C 0.4477 0.05163 0.22611 0.0
C2330 C 0.44699 0.04792 0.19044 0.0
C2331 C 0.46494 0.048 0.192 0.0
C2332 C 0.47409 0.05031 0.21106 0.0
H2333 H 0.54064 0.03678 0.11042 0.0
H2334 H 0.5252 0.03981 0.1382 0.0
C2335 C 0.46569 0.05207 0.22767 0.0
C2336 C 0.47399 0.04593 0.17393 0.0
H2337 H 0.50056 0.02028 0.15186 0.0
C2338 C 0.47223 0.05815 0.15954 0.0
C2339 C 0.48441 0.03204 0.17067 0.0
C2340 C 0.48649 0.01766 0.18456 0.0
C2341 C 0.48072 0.05728 0.14281 0.0
C2342 C 0.49112 0.04334 0.1395 0.0
C2343 C 0.49278 0.03106 0.15388 0.0
C2344 C 0.50062 0.04144 0.12171 0.0
C2345 C 0.4789 0.07199 0.12923 0.0
C2346 C 0.49239 0.04097 0.10241 0.0
C2347 C 0.50139 0.03935 0.08623 0.0
C2348 C 0.51904 0.03781 0.08847 0.0
C2349 C 0.52715 0.0379 0.10771 0.0
C2350 C 0.51819 0.03963 0.12385 0.0
H2351 H 0.47555 0.08487 0.13664 0.0
H2352 H 0.49098 0.07618 0.12314 0.0
H2353 H 0.46832 0.06614 0.11712 0.0
H2354 H 0.47881 0.04164 0.09971 0.0
H2355 H 0.49443 0.03922 0.07186 0.0
H2356 H 0.78693 0.72037 0.98481 0.0
H2357 H 0.78849 0.73794 0.9568 0.0
H2358 H 0.77161 0.68588 0.91841 0.0
H2359 H 0.76977 0.66823 0.94638 0.0
H2360 H 0.80847 0.73457 0.92785 0.0
H2361 H 0.73905 0.71916 0.89662 0.0
H2362 H 0.74669 0.71485 0.92088 0.0
H2363 H 0.74817 0.69849 0.90042 0.0
C2364 C 0.78345 0.71267 0.9704 0.0
C2365 C 0.77816 0.69291 0.96781 0.0
C2366 C 0.78436 0.72273 0.95441 0.0
C2367 C 0.77991 0.71329 0.93548 0.0
C2368 C 0.77473 0.69354 0.93285 0.0
H2369 H 0.7849 0.74725 0.82073 0.0
H2370 H 0.78 0.73034 0.84869 0.0
C2371 C 0.7738 0.68345 0.94886 0.0
C2372 C 0.78135 0.72407 0.91858 0.0
H2373 H 0.75844 0.73425 0.87739 0.0
C2374 C 0.79751 0.7346 0.91689 0.0
C2375 C 0.76705 0.72406 0.90424 0.0
C2376 C 0.74922 0.71368 0.90566 0.0
C2377 C 0.79983 0.74482 0.9011 0.0
C2378 C 0.78554 0.7448 0.88675 0.0
C2379 C 0.76937 0.73428 0.88842 0.0
C2380 C 0.78725 0.75533 0.86973 0.0
C2381 C 0.81768 0.75516 0.89966 0.0
C2382 C 0.79245 0.77508 0.8722 0.0
C2383 C 0.79524 0.78478 0.85624 0.0
C2384 C 0.79282 0.7749 0.83753 0.0
C2385 C 0.78691 0.75524 0.83499 0.0
C2386 C 0.78412 0.74556 0.85095 0.0
H2387 H 0.82783 0.75006 0.90912 0.0
H2388 H 0.82036 0.75348 0.88451 0.0
H2389 H 0.81859 0.77045 0.9043 0.0
H2390 H 0.7946 0.78296 0.88652 0.0
H2391 H 0.79968 0.79994 0.85862 0.0
H2392 H 0.87537 0.13908 0.06001 0.0
H2393 H 0.89541 0.12352 0.04373 0.0
H2394 H 0.87748 0.14355 0.99016 0.0
H2395 H 0.8571 0.15902 1.00637 0.0
H2396 H 0.878 0.10573 0.9856 0.0
H2397 H 0.94035 0.14432 0.02556 0.0
H2398 H 0.92611 0.13651 0.04215 0.0
H2399 H 0.92053 0.1533 0.02615 0.0
C2400 C 0.87584 0.1404 0.04484 0.0
C2401 C 0.8647 0.15025 0.03446 0.0
C2402 C 0.88739 0.13163 0.03558 0.0
C2403 C 0.88814 0.13269 0.01583 0.0
C2404 C 0.87719 0.14274 1.00545 0.0
H2405 H 0.96825 0.07169 0.98719 0.0
H2406 H 0.95055 0.09582 0.98298 0.0
C2407 C 0.86559 0.15154 0.01473 0.0
C2408 C 0.89936 0.12185 1.00594 0.0
H2409 H 0.93981 0.11172 0.01244 0.0
C2410 C 0.89164 0.1073 0.99109 0.0
C2411 C 0.91722 0.12425 0.01267 0.0
C2412 C 0.92655 0.1406 0.02736 0.0
C2413 C 0.90099 0.09395 0.98414 0.0
C2414 C 0.91831 0.09501 0.99264 0.0
C2415 C 0.92643 0.11065 1.0061 0.0
C2416 C 0.92755 0.07899 0.99007 0.0
C2417 C 0.89202 0.07851 0.96827 0.0
C2418 C 0.92031 0.0612 0.99469 0.0
C2419 C 0.9303 0.04722 0.99677 0.0
C2420 C 0.94783 0.05088 0.99464 0.0
C2421 C 0.95474 0.06826 0.98873 0.0
C2422 C 0.94466 0.08217 0.98643 0.0
H2423 H 0.88243 0.08379 0.95822 0.0
H2424 H 0.90133 0.07289 0.95983 0.0
H2425 H 0.8849 0.06678 0.97479 0.0
H2426 H 0.90726 0.05851 0.99802 0.0
H2427 H 0.92454 0.0339 1.00107 0.0
H2428 H 0.38158 0.41122 0.05996 0.0
H2429 H 0.41043 0.4288 0.0585 0.0
H2430 H 0.38972 0.47992 0.05441 0.0
H2431 H 0.36078 0.46235 0.05553 0.0
H2432 H 0.41101 0.47467 0.02749 0.0
H2433 H 0.44294 0.46562 0.10027 0.0
H2434 H 0.43273 0.44378 0.0858 0.0
H2435 H 0.4198 0.46046 0.09341 0.0
C2436 C 0.3832 0.42624 0.05892 0.0
C2437 C 0.3689 0.43541 0.05794 0.0
C2438 C 0.39972 0.4363 0.05819 0.0
C2439 C 0.40231 0.45576 0.05663 0.0
C2440 C 0.38806 0.46494 0.0557 0.0
H2441 H 0.49926 0.53542 0.07343 0.0
H2442 H 0.47116 0.51667 0.07601 0.0
C2443 C 0.37153 0.45489 0.05638 0.0
C2444 C 0.41974 0.46642 0.05521 0.0
H2445 H 0.46116 0.47882 0.07887 0.0
C2446 C 0.42197 0.4756 0.03874 0.0
C2447 C 0.43401 0.4678 0.06998 0.0
C2448 C 0.43228 0.45905 0.08845 0.0
C2449 C 0.43807 0.48599 0.03656 0.0
C2450 C 0.45245 0.48695 0.05108 0.0
C2451 C 0.45019 0.47791 0.06764 0.0
C2452 C 0.46979 0.49783 0.04969 0.0
C2453 C 0.43942 0.49622 0.01891 0.0
C2454 C 0.47854 0.49329 0.03421 0.0
C2455 C 0.49457 0.50407 0.03266 0.0
C2456 C 0.50221 0.51946 0.04667 0.0
C2457 C 0.49365 0.52368 0.06239 0.0
C2458 C 0.47761 0.51295 0.0639 0.0
H2459 H 0.42657 0.4981 0.01186 0.0
H2460 H 0.44786 0.51033 0.02274 0.0
H2461 H 0.44512 0.48783 1.00819 0.0
H2462 H 0.47293 0.48146 0.02327 0.0
H2463 H 0.50087 0.50049 0.02038 0.0
H2464 H 0.42612 0.58161 0.77986 0.0
H2465 H 0.41128 0.60813 0.77474 0.0
H2466 H 0.38805 0.5808 0.71769 0.0
H2467 H 0.40238 0.55396 0.723 0.0
H2468 H 0.41279 0.63273 0.74855 0.0
H2469 H 0.3463 0.59156 0.74031 0.0
H2470 H 0.36501 0.58195 0.74882 0.0
H2471 H 0.3588 0.58252 0.7233 0.0
C2472 C 0.41779 0.58124 0.76626 0.0
C2473 C 0.41525 0.56566 0.75189 0.0
C2474 C 0.40935 0.59641 0.76333 0.0
C2475 C 0.3983 0.59629 0.74597 0.0
C2476 C 0.39613 0.58096 0.7314 0.0
H2477 H 0.36105 0.69514 0.70709 0.0
H2478 H 0.37711 0.66953 0.71215 0.0
C2479 C 0.40441 0.56569 0.73441 0.0
C2480 C 0.38912 0.61227 0.74312 0.0
H2481 H 0.34906 0.62302 0.73238 0.0
C2482 C 0.39885 0.63064 0.74509 0.0
C2483 C 0.37091 0.60954 0.7389 0.0
C2484 C 0.35963 0.59036 0.7379 0.0
C2485 C 0.39087 0.64635 0.74277 0.0
C2486 C 0.37271 0.64352 0.7378 0.0
C2487 C 0.363 0.62516 0.73599 0.0
C2488 C 0.36339 0.65938 0.7349 0.0
C2489 C 0.40196 0.66582 0.74615 0.0
C2490 C 0.35006 0.66191 0.74562 0.0
C2491 C 0.3407 0.67628 0.74248 0.0
C2492 C 0.34453 0.68849 0.72861 0.0
C2493 C 0.35797 0.68608 0.718 0.0
C2494 C 0.3672 0.67151 0.72096 0.0
H2495 H 0.41453 0.66598 0.75527 0.0
H2496 H 0.40469 0.6703 0.73202 0.0
H2497 H 0.39534 0.67631 0.75329 0.0
H2498 H 0.34688 0.65272 0.75644 0.0
H2499 H 0.33052 0.67796 0.75101 0.0
H2500 H 0.30657 0.60573 0.55248 0.0
H2501 H 0.28258 0.57912 0.55118 0.0
H2502 H 0.25485 0.6158 0.58181 0.0
H2503 H 0.27873 0.64216 0.58349 0.0
H2504 H 0.2516 0.57968 0.59359 0.0
H2505 H 0.23825 0.57724 0.51323 0.0
H2506 H 0.25922 0.57387 0.52374 0.0
H2507 H 0.25303 0.59647 0.52814 0.0
C2508 C 0.29547 0.60798 0.55923 0.0
C2509 C 0.2944 0.62604 0.56789 0.0
C2510 C 0.28177 0.59282 0.55839 0.0
C2511 C 0.26685 0.5956 0.56613 0.0
C2512 C 0.26624 0.61337 0.57573 0.0
H2513 H 0.16214 0.57201 0.54412 0.0
H2514 H 0.19322 0.57946 0.54479 0.0
C2515 C 0.27988 0.62844 0.57662 0.0
C2516 C 0.25113 0.58081 0.56301 0.0
H2517 H 0.21692 0.56089 0.52837 0.0
C2518 C 0.24414 0.57512 0.57931 0.0
C2519 C 0.2415 0.57498 0.54432 0.0
C2520 C 0.24825 0.58097 0.52631 0.0
C2521 C 0.22721 0.56504 0.57759 0.0
C2522 C 0.2172 0.56026 0.55899 0.0
C2523 C 0.22469 0.56459 0.54257 0.0
C2524 C 0.19827 0.55404 0.55659 0.0
C2525 C 0.21973 0.561 0.59576 0.0
C2526 C 0.19074 0.53701 0.56255 0.0
C2527 C 0.17286 0.5327 0.56221 0.0
C2528 C 0.16228 0.54528 0.55572 0.0
C2529 C 0.16986 0.56188 0.54895 0.0
C2530 C 0.18765 0.5662 0.54937 0.0
H2531 H 0.22856 0.56785 0.60911 0.0
H2532 H 0.20727 0.56601 0.59569 0.0
H2533 H 0.21722 0.54553 0.59637 0.0
H2534 H 0.1987 0.5273 0.56786 0.0
H2535 H 0.16733 0.51968 0.56728 0.0
H2536 H 0.72528 0.98305 0.8062 0.0
H2537 H 0.73961 0.95548 0.80467 0.0
H2538 H 0.69008 0.91871 0.78945 0.0
H2539 H 0.67582 0.94628 0.79051 0.0
H2540 H 0.74141 0.92623 0.82323 0.0
H2541 H 0.71203 0.89452 0.7491 0.0
H2542 H 0.70948 0.91773 0.75876 0.0
H2543 H 0.69606 0.89694 0.7645 0.0
C2544 C 0.71735 0.96913 0.80238 0.0
C2545 C 0.69917 0.96733 0.79834 0.0
C2546 C 0.72566 0.95312 0.80153 0.0
C2547 C 0.71629 0.9344 0.79647 0.0
C2548 C 0.69808 0.93262 0.79276 0.0
H2549 H 0.7451 0.81899 0.78537 0.0
H2550 H 0.73013 0.8461 0.78703 0.0
C2551 C 0.68977 0.94863 0.79356 0.0
C2552 C 0.7255 0.91706 0.79558 0.0
H2553 H 0.7277 0.87554 0.76771 0.0
C2554 C 0.73837 0.9153 0.81093 0.0
C2555 C 0.72192 0.90222 0.77977 0.0
C2556 C 0.70926 0.90298 0.76202 0.0
C2557 C 0.74719 0.89959 0.81113 0.0
C2558 C 0.74366 0.88479 0.79531 0.0
C2559 C 0.73073 0.88649 0.78 0.0
C2560 C 0.75315 0.86769 0.79432 0.0
C2561 C 0.75988 0.89881 0.82886 0.0
C2562 C 0.77139 0.86997 0.79751 0.0
C2563 C 0.78008 0.85427 0.79658 0.0
C2564 C 0.77105 0.83537 0.79227 0.0
C2565 C 0.75279 0.83306 0.78883 0.0
C2566 C 0.7441 0.84879 0.78974 0.0
H2567 H 0.75708 0.9072 0.84182 0.0
H2568 H 0.75973 0.88405 0.83205 0.0
H2569 H 0.77306 0.90492 0.82639 0.0
H2570 H 0.77911 0.88404 0.80047 0.0
H2571 H 0.79405 0.85707 0.79915 0.0
H2572 H 0.78823 0.9604 0.56841 0.0
H2573 H 0.76276 0.97546 0.56482 0.0
H2574 H 0.7321 0.92326 0.53493 0.0
H2575 H 0.75734 0.90806 0.53883 0.0
H2576 H 0.74293 0.98088 0.53169 0.0
H2577 H 0.70244 0.93672 0.57483 0.0
H2578 H 0.72519 0.93664 0.57556 0.0
H2579 H 0.70983 0.92311 0.55593 0.0
C2580 C 0.77601 0.95209 0.56126 0.0
C2581 C 0.77478 0.933 0.55403 0.0
C2582 C 0.76148 0.96072 0.55917 0.0
C2583 C 0.74542 0.95043 0.54987 0.0
C2584 C 0.74421 0.93138 0.54259 0.0
H2585 H 0.64405 0.97813 0.51605 0.0
H2586 H 0.66954 0.96317 0.51967 0.0
C2587 C 0.75869 0.92273 0.54474 0.0
C2588 C 0.7301 0.95976 0.54713 0.0
H2589 H 0.68843 0.95673 0.5557 0.0
C2590 C 0.73106 0.97567 0.53706 0.0
C2591 C 0.71457 0.95294 0.55409 0.0
C2592 C 0.71295 0.93653 0.56587 0.0
C2593 C 0.71685 0.98473 0.53346 0.0
C2594 C 0.7013 0.97782 0.54029 0.0
C2595 C 0.70032 0.96193 0.55036 0.0
C2596 C 0.68603 0.98716 0.53755 0.0
C2597 C 0.71846 1.00143 0.52208 0.0
C2598 C 0.68681 1.00556 0.54647 0.0
C2599 C 0.67224 1.0141 0.54459 0.0
C2600 C 0.65651 1.00441 0.53372 0.0
C2601 C 0.65584 0.98597 0.52467 0.0
C2602 C 0.67043 0.97742 0.52665 0.0
H2603 H 0.72962 1.00217 0.51399 0.0
H2604 H 0.70653 1.00078 0.51165 0.0
H2605 H 0.72038 1.01465 0.5322 0.0
H2606 H 0.69861 1.0132 0.55527 0.0
H2607 H 0.6732 0.0281 0.55216 0.0
H2608 H 0.42627 0.45108 0.76088 0.0
H2609 H 0.40672 0.4212 0.76159 0.0
H2610 H 0.36373 0.45055 0.76057 0.0
H2611 H 0.38323 0.4805 0.76026 0.0
H2612 H 0.36404 0.42679 0.78818 0.0
H2613 H 0.37209 0.38927 0.71808 0.0
H2614 H 0.39207 0.39796 0.73396 0.0
H2615 H 0.37944 0.41439 0.72456 0.0
C2616 C 0.41263 0.45113 0.76069 0.0
C2617 C 0.40627 0.46812 0.76049 0.0
C2618 C 0.40146 0.43403 0.76096 0.0
C2619 C 0.38372 0.43359 0.76081 0.0
C2620 C 0.37736 0.45055 0.76058 0.0
H2621 H 0.30193 0.33415 0.74305 0.0
H2622 H 0.32155 0.36334 0.73973 0.0
C2623 C 0.38852 0.46764 0.7604 0.0
C2624 C 0.37187 0.41564 0.76182 0.0
H2625 H 0.35701 0.3708 0.73898 0.0
C2626 C 0.36245 0.41457 0.77738 0.0
C2627 C 0.36966 0.39979 0.74759 0.0
C2628 C 0.37871 0.4004 0.73 0.0
C2629 C 0.35107 0.39801 0.77927 0.0
C2630 C 0.34933 0.38194 0.76544 0.0
C2631 C 0.35852 0.38308 0.74969 0.0
C2632 C 0.33793 0.36388 0.76705 0.0
C2633 C 0.3408 0.398 0.79591 0.0
C2634 C 0.34084 0.35434 0.78331 0.0
C2635 C 0.32962 0.3378 0.78527 0.0
C2636 C 0.31542 0.33037 0.77088 0.0
C2637 C 0.31276 0.33963 0.75437 0.0
C2638 C 0.32397 0.35624 0.75244 0.0
H2639 H 0.34004 0.41258 0.80192 0.0
H2640 H 0.32748 0.3899 0.79132 0.0
H2641 H 0.34718 0.39126 0.80769 0.0
H2642 H 0.35171 0.3598 0.79459 0.0
H2643 H 0.33188 0.33106 0.79824 0.0
H2644 H 0.1793 0.58419 0.28839 0.0
H2645 H 0.19507 0.61631 0.28789 0.0
H2646 H 0.24291 0.59835 0.30651 0.0
H2647 H 0.22717 0.56608 0.30653 0.0
H2648 H 0.21382 0.64311 0.31359 0.0
H2649 H 0.2574 0.62452 0.26253 0.0
H2650 H 0.23941 0.60765 0.26714 0.0
H2651 H 0.25942 0.61251 0.28366 0.0
C2652 C 0.1932 0.58699 0.29232 0.0
C2653 C 0.20183 0.57222 0.29738 0.0
C2654 C 0.20229 0.60555 0.29207 0.0
C2655 C 0.22045 0.61017 0.29678 0.0
C2656 C 0.22906 0.59546 0.30221 0.0
H2657 H 0.27644 0.73017 0.32377 0.0
H2658 H 0.26179 0.69787 0.32575 0.0
C2659 C 0.21995 0.57686 0.3024 0.0
C2660 C 0.23013 0.63025 0.29622 0.0
H2661 H 0.26368 0.65604 0.2782 0.0
C2662 C 0.22472 0.64582 0.30581 0.0
C2663 C 0.24431 0.63436 0.28588 0.0
C2664 C 0.25039 0.61891 0.27405 0.0
C2665 C 0.23297 0.66484 0.30555 0.0
C2666 C 0.24751 0.66889 0.29575 0.0
C2667 C 0.25278 0.65334 0.28598 0.0
C2668 C 0.25698 0.68899 0.29482 0.0
C2669 C 0.22553 0.68044 0.31534 0.0
C2670 C 0.26003 0.69521 0.27692 0.0
C2671 C 0.26867 0.71376 0.27577 0.0
C2672 C 0.27476 0.72697 0.2925 0.0
C2673 C 0.27194 0.72069 0.31047 0.0
C2674 C 0.26332 0.70207 0.31161 0.0
H2675 H 0.2118 0.67562 0.31687 0.0
H2676 H 0.23287 0.68499 0.3301 0.0
H2677 H 0.22638 0.69286 0.30715 0.0
H2678 H 0.2555 0.68573 0.26362 0.0
H2679 H 0.27048 0.71775 0.2616 0.0
H2680 H 0.51898 0.73506 0.47589 0.0
H2681 H 0.52121 0.70734 0.49289 0.0
H2682 H 0.53305 0.67773 0.44133 0.0
H2683 H 0.53034 0.70515 0.42413 0.0
H2684 H 0.51055 0.65511 0.45842 0.0
H2685 H 0.56576 0.6916 0.51344 0.0
H2686 H 0.54708 0.70252 0.51293 0.0
H2687 H 0.55835 0.70202 0.49231 0.0
C2688 C 0.52201 0.72261 0.46818 0.0
C2689 C 0.52458 0.72232 0.44871 0.0
C2690 C 0.5234 0.70682 0.47795 0.0
C2691 C 0.52764 0.69056 0.46852 0.0
C2692 C 0.52984 0.69013 0.44895 0.0
H2693 H 0.57189 0.60213 0.5176 0.0
H2694 H 0.56546 0.63021 0.50368 0.0
C2695 C 0.52831 0.70583 0.43914 0.0
C2696 C 0.52991 0.67399 0.47895 0.0
H2697 H 0.55378 0.66025 0.51736 0.0
C2698 C 0.51998 0.65622 0.47134 0.0
C2699 C 0.54235 0.67542 0.49568 0.0
C2700 C 0.55412 0.69387 0.50399 0.0
C2701 C 0.52225 0.63983 0.47985 0.0
C2702 C 0.5345 0.64131 0.49677 0.0
C2703 C 0.54429 0.65913 0.5045 0.0
C2704 C 0.53823 0.62445 0.50597 0.0
C2705 C 0.51194 0.62103 0.47016 0.0
C2706 C 0.52514 0.61198 0.5123 0.0
C2707 C 0.52877 0.59573 0.52009 0.0
C2708 C 0.54561 0.59183 0.52204 0.0
C2709 C 0.55879 0.6047 0.51637 0.0
C2710 C 0.55512 0.62079 0.50837 0.0
H2711 H 0.5067 0.62174 0.45482 0.0
H2712 H 0.51994 0.60984 0.47054 0.0
H2713 H 0.50086 0.61685 0.4779 0.0
H2714 H 0.51211 0.61474 0.51113 0.0
H2715 H 0.51838 0.58622 0.52453 0.0
H2716 H 0.63674 0.30264 0.65385 0.0
H2717 H 0.66544 0.30108 0.67046 0.0
H2718 H 0.64691 0.30582 0.72549 0.0
H2719 H 0.61809 0.30706 0.70894 0.0
H2720 H 0.68799 0.32615 0.69781 0.0
H2721 H 0.66852 0.25877 0.72735 0.0
H2722 H 0.65467 0.26713 0.7089 0.0
H2723 H 0.65629 0.27648 0.73393 0.0
C2724 C 0.63878 0.30337 0.6695 0.0
C2725 C 0.62511 0.30486 0.68008 0.0
C2726 C 0.65519 0.30248 0.67897 0.0
C2727 C 0.65827 0.30298 0.6992 0.0
C2728 C 0.64475 0.30495 0.70984 0.0
H2729 H 0.75545 0.32739 0.77614 0.0
H2730 H 0.72832 0.32838 0.75572 0.0
C2731 C 0.62831 0.3058 0.70038 0.0
C2732 C 0.67565 0.30162 0.70915 0.0
H2733 H 0.69673 0.27607 0.73963 0.0
C2734 C 0.68992 0.31514 0.70688 0.0
C2735 C 0.67824 0.28704 0.72068 0.0
C2736 C 0.66366 0.27141 0.72273 0.0
C2737 C 0.70659 0.31481 0.71627 0.0
C2738 C 0.70903 0.30077 0.72855 0.0
C2739 C 0.69485 0.28693 0.73036 0.0
C2740 C 0.72603 0.3005 0.74013 0.0
C2741 C 0.72146 0.32941 0.71281 0.0
C2742 C 0.73371 0.28439 0.73839 0.0
C2743 C 0.7492 0.28374 0.7502 0.0
C2744 C 0.75719 0.29915 0.76403 0.0
C2745 C 0.74962 0.31533 0.76555 0.0
C2746 C 0.73416 0.31597 0.75379 0.0
H2747 H 0.71851 0.3352 0.69891 0.0
H2748 H 0.72397 0.34133 0.72465 0.0
H2749 H 0.7334 0.32339 0.71261 0.0
H2750 H 0.72763 0.27225 0.72803 0.0
H2751 H 0.75471 0.27105 0.74878 0.0
H2752 H 0.02434 0.31529 0.97661 0.0
H2753 H 0.02681 0.3473 0.99317 0.0
H2754 H 0.04051 0.37063 0.94184 0.0
H2755 H 0.03774 0.33872 0.9251 0.0
H2756 H 0.05431 0.37706 1.00138 0.0
H2757 H 1.00057 0.39627 0.95327 0.0
H2758 H 1.00412 0.37227 0.95323 0.0
H2759 H 0.01668 0.38851 0.94038 0.0
C2760 C 0.02786 0.32725 0.96886 0.0
C2761 C 0.03072 0.3245 0.94951 0.0
C2762 C 0.02928 0.34552 0.97834 0.0
C2763 C 0.03355 0.36134 0.96863 0.0
C2764 C 0.03681 0.35862 0.94946 0.0
H2765 H 0.07067 0.47832 0.01605 0.0
H2766 H 0.06775 0.44496 1.0039 0.0
C2767 C 0.03532 0.34038 0.93995 0.0
C2768 C 0.03467 0.38071 0.97856 0.0
H2769 H 0.01873 0.42138 0.97478 0.0
C2770 C 0.04646 0.38673 0.99565 0.0
C2771 C 0.02422 0.3932 0.97125 0.0
C2772 C 1.01056 0.3872 0.95364 0.0
C2773 C 0.04841 0.40509 1.00534 0.0
C2774 C 0.03852 0.41786 0.99751 0.0
C2775 C 0.02642 0.41166 0.9807 0.0
C2776 C 0.04061 0.43781 1.00628 0.0
C2777 C 0.06089 0.41055 0.02397 0.0
C2778 C 0.02629 0.445 0.01147 0.0
C2779 C 0.02786 0.46415 0.01823 0.0
C2780 C 0.0438 0.47653 0.0199 0.0
C2781 C 0.05822 0.46919 0.01509 0.0
C2782 C 0.05661 0.45006 1.00824 0.0
H2783 H 0.06336 0.39792 0.03095 0.0
H2784 H 0.0734 0.41802 0.02079 0.0
H2785 H 0.05599 0.42013 0.0344 0.0
H2786 H 1.01381 0.43583 0.01002 0.0
H2787 H 0.01649 0.46928 0.0218 0.0
H2788 H 0.04358 0.8047 0.20549 0.0
H2789 H 0.0167 0.8016 0.21944 0.0
H2790 H 0.98731 0.78906 0.16205 0.0
H2791 H 1.01409 0.79176 0.14804 0.0
H2792 H 0.99015 0.82118 0.21507 0.0
H2793 H 0.96619 0.74531 0.18851 0.0
H2794 H 0.98805 0.75681 0.18787 0.0
H2795 H 0.97082 0.75957 0.16963 0.0
C2796 C 0.03139 0.80123 0.19585 0.0
C2797 C 0.03096 0.79835 0.17566 0.0
C2798 C 0.01603 0.79948 0.20383 0.0
C2799 C 0.99996 0.79477 0.19182 0.0
C2800 C 0.99953 0.79225 0.17164 0.0
H2801 H 0.90183 0.80852 0.23031 0.0
H2802 H 0.92718 0.81097 0.21369 0.0
C2803 C 1.01486 0.79392 0.16365 0.0
C2804 C 0.98369 0.79278 0.2004 0.0
H2805 H 0.94669 0.76182 0.20285 0.0
C2806 C 0.98065 0.8082 0.21241 0.0
C2807 C 0.97139 0.77576 0.19712 0.0
C2808 C 0.9743 0.75835 0.18524 0.0
C2809 C 0.96561 0.80712 0.22111 0.0
C2810 C 0.95308 0.79027 0.21739 0.0
C2811 C 0.95619 0.7748 0.2055 0.0
C2812 C 0.93704 0.78811 0.22641 0.0
C2813 C 0.96352 0.82387 0.23462 0.0
C2814 C 0.93371 0.77393 0.23843 0.0
C2815 C 0.91909 0.7723 0.2477 0.0
C2816 C 0.90742 0.78481 0.24517 0.0
C2817 C 0.91047 0.79859 0.23256 0.0
C2818 C 0.9251 0.80018 0.22323 0.0
H2819 H 0.97603 0.83359 0.23978 0.0
H2820 H 0.9547 0.83194 0.22682 0.0
H2821 H 0.95787 0.81924 0.2474 0.0
H2822 H 0.94263 0.76433 0.24096 0.0
H2823 H 0.917 0.76128 0.257 0.0
H2824 H 0.59648 0.30938 0.17075 0.0
H2825 H 0.59539 0.33686 0.15316 0.0
H2826 H 0.5421 0.33457 0.16058 0.0
H2827 H 0.54319 0.30733 0.1785 0.0
H2828 H 0.57451 0.33906 0.11946 0.0
H2829 H 0.56298 0.3898 0.1787 0.0
H2830 H 0.57005 0.36793 0.18303 0.0
H2831 H 0.54765 0.36803 0.17485 0.0
C2832 C 0.58456 0.3148 0.16871 0.0
C2833 C 0.56992 0.30628 0.17602 0.0
C2834 C 0.58397 0.33049 0.15869 0.0
C2835 C 0.56877 0.33793 0.15588 0.0
C2836 C 0.55409 0.32933 0.16302 0.0
H2837 H 0.52914 0.41764 0.0884 0.0
H2838 H 0.53445 0.39383 0.10982 0.0
C2839 C 0.55468 0.31369 0.1731 0.0
C2840 C 0.568 0.35412 0.14468 0.0
H2841 H 0.55836 0.39845 0.14664 0.0
C2842 C 0.57118 0.35214 0.12545 0.0
C2843 C 0.5637 0.37116 0.15261 0.0
C2844 C 0.56106 0.37447 0.17349 0.0
C2845 C 0.56958 0.36651 0.11368 0.0
C2846 C 0.56483 0.38331 0.12146 0.0
C2847 C 0.56197 0.38548 0.14078 0.0
C2848 C 0.56198 0.39842 0.10941 0.0
C2849 C 0.5724 0.3634 0.09284 0.0
C2850 C 0.5758 0.40905 0.10245 0.0
C2851 C 0.57281 0.42263 0.09019 0.0
C2852 C 0.55595 0.42571 0.08471 0.0
C2853 C 0.54222 0.41536 0.09216 0.0
C2854 C 0.54524 0.40187 0.10447 0.0
H2855 H 0.57312 0.34845 0.08821 0.0
H2856 H 0.56185 0.36751 0.0831 0.0
H2857 H 0.58471 0.37241 0.09103 0.0
H2858 H 0.58883 0.40666 0.1063 0.0
H2859 H 0.58361 0.43035 0.08459 0.0
H2860 H 1.01175 0.2889 0.32027 0.0
H2861 H 0.98239 0.28127 0.30218 0.0
H2862 H 0.96166 0.29065 0.35539 0.0
H2863 H 0.99083 0.29804 0.37354 0.0
H2864 H 0.94292 0.25861 0.32904 0.0
H2865 H 0.95541 0.32492 0.29464 0.0
H2866 H 0.96981 0.30852 0.29163 0.0
H2867 H 0.96963 0.32048 0.31525 0.0
C2868 C 1.00091 0.2891 0.32811 0.0
C2869 C 1.00354 0.29427 0.34826 0.0
C2870 C 0.98419 0.28476 0.31777 0.0
C2871 C 0.96994 0.28561 0.32747 0.0
C2872 C 0.97253 0.28991 0.34768 0.0
H2873 H 0.87314 0.31519 0.30764 0.0
H2874 H 0.90223 0.30962 0.31729 0.0
C2875 C 0.98919 0.29422 0.358 0.0
C2876 C 0.9524 0.28371 0.31666 0.0
H2877 H 0.92713 0.30783 0.28916 0.0
C2878 C 0.93946 0.26913 0.32 0.0
C2879 C 0.94802 0.29759 0.30503 0.0
C2880 C 0.96137 0.31386 0.30145 0.0
C2881 C 0.92207 0.26852 0.31261 0.0
C2882 C 0.91768 0.28283 0.30164 0.0
C2883 C 0.93068 0.29688 0.29756 0.0
C2884 C 0.89963 0.28495 0.2963 0.0
C2885 C 0.9084 0.2533 0.31742 0.0
C2886 C 0.88855 0.27273 0.28141 0.0
C2887 C 0.87182 0.27586 0.2758 0.0
C2888 C 0.86604 0.2913 0.28501 0.0
C2889 C 0.87714 0.3032 0.30021 0.0
C2890 C 0.89379 0.30007 0.30575 0.0
H2891 H 0.9139 0.24392 0.32719 0.0
H2892 H 0.89871 0.25979 0.32444 0.0
H2893 H 0.90156 0.24454 0.30386 0.0
H2894 H 0.89295 0.26106 0.27389 0.0
H2895 H 0.86359 0.26643 0.26403 0.0
H2896 H 0.05642 0.73223 0.63311 0.0
H2897 H 0.05724 0.70841 0.60608 0.0
H2898 H 0.06487 0.66796 0.64616 0.0
H2899 H 0.06416 0.69171 0.6733 0.0
H2900 H 0.08842 0.67157 0.61735 0.0
H2901 H 0.019 0.6611 0.58547 0.0
H2902 H 0.03079 0.685 0.59031 0.0
H2903 H 0.02685 0.67173 0.61009 0.0
C2904 C 0.05816 0.71822 0.63615 0.0
C2905 C 0.06016 0.71378 0.65529 0.0
C2906 C 0.0586 0.70466 0.6207 0.0
C2907 C 0.06101 0.68646 0.62417 0.0
C2908 C 0.06299 0.68197 0.64325 0.0
H2909 H 0.06324 0.57796 0.57181 0.0
H2910 H 0.06887 0.60871 0.59128 0.0
C2911 C 0.06251 0.6955 0.6587 0.0
C2912 C 0.0616 0.67201 0.60799 0.0
H2913 H 0.03623 0.64262 0.57033 0.0
C2914 C 0.07707 0.66534 0.60693 0.0
C2915 C 0.04683 0.66415 0.59433 0.0
C2916 C 0.02986 0.67071 0.59505 0.0
C2917 C 0.078 0.65052 0.59287 0.0
C2918 C 0.06298 0.64197 0.57984 0.0
C2919 C 0.04774 0.64925 0.58033 0.0
C2920 C 0.06213 0.62407 0.56728 0.0
C2921 C 0.09499 0.64399 0.59228 0.0
C2922 C 0.05651 0.62247 0.54725 0.0
C2923 C 0.05323 0.60479 0.53603 0.0
C2924 C 0.05534 0.5885 0.54477 0.0
C2925 C 0.06165 0.59029 0.56465 0.0
C2926 C 0.06496 0.60789 0.5758 0.0
H2927 H 0.10604 0.65564 0.59802 0.0
H2928 H 0.0957 0.63246 0.60153 0.0
H2929 H 0.09637 0.63855 0.57732 0.0
H2930 H 0.05412 0.63478 0.54045 0.0
H2931 H 0.04832 0.60376 0.52074 0.0
H2932 H 0.60284 0.82555 0.86898 0.0
H2933 H 0.6261 0.82645 0.84963 0.0
H2934 H 0.59482 0.8458 0.80334 0.0
H2935 H 0.57106 0.84413 0.8225 0.0
H2936 H 0.60687 0.81745 0.78952 0.0
H2937 H 0.66184 0.86488 0.83464 0.0
H2938 H 0.65303 0.84787 0.84925 0.0
H2939 H 0.64005 0.86405 0.8397 0.0
C2940 C 0.60103 0.83042 0.85486 0.0
C2941 C 0.58512 0.83469 0.84721 0.0
C2942 C 0.61444 0.83113 0.84385 0.0
C2943 C 0.61239 0.83654 0.82512 0.0
C2944 C 0.59676 0.84171 0.8178 0.0
H2945 H 0.70489 0.81877 0.77612 0.0
H2946 H 0.68183 0.83573 0.78286 0.0
C2947 C 0.58321 0.84076 0.82875 0.0
C2948 C 0.62564 0.83412 0.8125 0.0
H2949 H 0.66917 0.83816 0.8146 0.0
C2950 C 0.62049 0.82244 0.79476 0.0
C2951 C 0.64342 0.84104 0.81886 0.0
C2952 C 0.64983 0.85534 0.83656 0.0
C2953 C 0.63266 0.81598 0.78429 0.0
C2954 C 0.65038 0.82078 0.79213 0.0
C2955 C 0.65557 0.83402 0.80878 0.0
C2956 C 0.6634 0.81055 0.78486 0.0
C2957 C 0.62632 0.80362 0.76525 0.0
C2958 C 0.66066 0.79074 0.78341 0.0
C2959 C 0.67369 0.78098 0.77917 0.0
C2960 C 0.68992 0.79085 0.77676 0.0
C2961 C 0.69249 0.81068 0.77764 0.0
C2962 C 0.67935 0.82043 0.78164 0.0
H2963 H 0.61469 0.80785 0.7576 0.0
H2964 H 0.63636 0.80432 0.7556 0.0
H2965 H 0.62253 0.78875 0.76802 0.0
H2966 H 0.64869 0.78277 0.78637 0.0
H2967 H 0.67117 0.76572 0.77834 0.0
H2968 H 0.44841 0.50621 0.69462 0.0
H2969 H 0.4635 0.51161 0.66684 0.0
H2970 H 0.50563 0.54858 0.70434 0.0
H2971 H 0.49056 0.54337 0.73226 0.0
H2972 H 0.47612 0.55045 0.65546 0.0
H2973 H 0.52682 0.50732 0.67189 0.0
H2974 H 0.50655 0.50338 0.68121 0.0
H2975 H 0.52291 0.52338 0.69141 0.0
C2976 C 0.46094 0.51538 0.69699 0.0
C2977 C 0.46833 0.52434 0.71561 0.0
C2978 C 0.4695 0.51849 0.68111 0.0
C2979 C 0.48565 0.53043 0.68362 0.0
C2980 C 0.4932 0.53922 0.7022 0.0
H2981 H 0.54499 0.57746 0.59814 0.0
H2982 H 0.52889 0.57339 0.62549 0.0
C2983 C 0.48458 0.53623 0.71809 0.0
C2984 C 0.49444 0.53395 0.66667 0.0
H2985 H 0.52833 0.52412 0.64479 0.0
C2986 C 0.48756 0.54475 0.6531 0.0
C2987 C 0.50927 0.52637 0.66369 0.0
C2988 C 0.51685 0.51435 0.67771 0.0
C2989 C 0.49524 0.54828 0.63659 0.0
C2990 C 0.51012 0.54077 0.63366 0.0
C2991 C 0.51694 0.52989 0.64718 0.0
C2992 C 0.51865 0.54372 0.61644 0.0
C2993 C 0.48731 0.55972 0.6222 0.0
C2994 C 0.51804 0.52841 0.6023 0.0
C2995 C 0.52709 0.53072 0.58668 0.0
C2996 C 0.53709 0.54833 0.58511 0.0
C2997 C 0.53736 0.56376 0.59903 0.0
C2998 C 0.52818 0.56147 0.6146 0.0
H2999 H 0.47442 0.56218 0.62512 0.0
H3000 H 0.4959 0.57364 0.62292 0.0
H3001 H 0.48601 0.55245 0.60723 0.0
H3002 H 0.51076 0.51461 0.60353 0.0
H3003 H 0.5267 0.51856 0.57619 0.0
H3004 H 0.77897 0.15771 1.0076 0.0
H3005 H 0.76039 0.16671 0.9807 0.0
H3006 H 0.78121 0.22556 1.00018 0.0
H3007 H 0.79944 0.21671 0.02734 0.0
H3008 H 0.74537 0.21832 0.98552 0.0
H3009 H 0.784 0.18475 0.93581 0.0
H3010 H 0.77293 0.16989 0.95105 0.0
H3011 H 0.79051 0.18855 0.96169 0.0
C3012 C 0.77939 0.17257 1.00627 0.0
C3013 C 0.79084 0.18653 0.01932 0.0
C3014 C 0.76878 0.17767 0.99093 0.0
C3015 C 0.76966 0.19676 0.98831 0.0
C3016 C 0.78035 0.21073 1.00198 0.0
H3017 H 0.76816 0.2778 0.91764 0.0
H3018 H 0.76135 0.25823 0.94281 0.0
C3019 C 0.79083 0.20566 0.0174 0.0
C3020 C 0.76117 0.20238 0.97033 0.0
H3021 H 0.76593 0.20393 0.92294 0.0
C3022 C 0.74953 0.21487 0.9717 0.0
C3023 C 0.76649 0.19767 0.95229 0.0
C3024 C 0.77923 0.18458 0.95 0.0
C3025 C 0.74401 0.22381 0.95577 0.0
C3026 C 0.75054 0.22035 0.93823 0.0
C3027 C 0.76093 0.20658 0.93642 0.0
C3028 C 0.74976 0.23308 0.923 0.0
C3029 C 0.73182 0.23746 0.95811 0.0
C3030 C 0.74516 0.22561 0.90341 0.0
C3031 C 0.74921 0.2368 0.88892 0.0
C3032 C 0.75799 0.25559 0.89383 0.0
C3033 C 0.76124 0.26345 0.91336 0.0
C3034 C 0.75723 0.25227 0.92781 0.0
H3035 H 0.72284 0.23292 0.96834 0.0
H3036 H 0.73937 0.2516 0.96429 0.0
H3037 H 0.72417 0.23875 0.94404 0.0
H3038 H 0.73948 0.21081 0.89939 0.0
H3039 H 0.74633 0.23046 0.87394 0.0
H3040 H 0.11958 0.51337 0.24653 0.0
H3041 H 0.10395 0.51631 0.21468 0.0
H3042 H 0.15152 0.52135 0.19088 0.0
H3043 H 0.1671 0.51813 0.22262 0.0
H3044 H 0.10509 0.54372 0.19187 0.0
H3045 H 0.12258 0.48315 0.14944 0.0
H3046 H 0.12684 0.48683 0.17555 0.0
H3047 H 0.14103 0.4999 0.16157 0.0
C3048 C 0.12675 0.51491 0.23451 0.0
C3049 C 0.14474 0.5153 0.23745 0.0
C3050 C 0.11773 0.51667 0.21612 0.0
C3051 C 0.12623 0.51875 0.19976 0.0
C3052 C 0.14426 0.51925 0.20274 0.0
H3053 H 0.08816 0.53332 0.07623 0.0
H3054 H 0.10652 0.53088 0.10689 0.0
C3055 C 0.15329 0.51752 0.22114 0.0
C3056 C 0.11637 0.521 0.18001 0.0
H3057 H 0.10817 0.50354 0.13145 0.0
C3058 C 0.1058 0.5348 0.17875 0.0
C3059 C 0.1171 0.50967 0.16241 0.0
C3060 C 0.12736 0.49394 0.16226 0.0
C3061 C 0.09633 0.53768 0.16094 0.0
C3062 C 0.09683 0.52617 0.1434 0.0
C3063 C 0.10757 0.51252 0.14457 0.0
C3064 C 0.08574 0.52758 0.12413 0.0
C3065 C 0.08616 0.5535 0.16115 0.0
C3066 C 0.06772 0.52624 0.12289 0.0
C3067 C 0.05727 0.52767 0.1054 0.0
C3068 C 0.06421 0.53038 0.08812 0.0
C3069 C 0.08222 0.53142 0.0891 0.0
C3070 C 0.09277 0.52995 0.10677 0.0
H3071 H 0.09158 0.5647 0.17345 0.0
H3072 H 0.08597 0.56004 0.14747 0.0
H3073 H 0.07268 0.54781 0.16292 0.0
H3074 H 0.06157 0.52385 0.13554 0.0
H3075 H 0.04352 0.52657 0.10544 0.0
H3076 H 0.80218 0.89717 0.48572 0.0
H3077 H 0.79945 0.87977 0.45348 0.0
H3078 H 0.82288 0.83623 0.47826 0.0
H3079 H 0.82536 0.85345 0.5107 0.0
H3080 H 0.82504 0.87036 0.43433 0.0
H3081 H 0.77993 0.80566 0.44392 0.0
H3082 H 0.78385 0.82698 0.46078 0.0
H3083 H 0.7991 0.81123 0.46161 0.0
C3084 C 0.80667 0.88383 0.48434 0.0
C3085 C 0.81395 0.87664 0.50075 0.0
C3086 C 0.8051 0.87391 0.46589 0.0
C3087 C 0.81074 0.85657 0.46346 0.0
C3088 C 0.81809 0.84937 0.47982 0.0
H3089 H 0.83234 0.80629 0.35362 0.0
H3090 H 0.834 0.82004 0.38716 0.0
C3091 C 0.81961 0.85928 0.49833 0.0
C3092 C 0.80953 0.84654 0.44369 0.0
H3093 H 0.79209 0.80516 0.41472 0.0
C3094 C 0.81782 0.85611 0.43004 0.0
C3095 C 0.79994 0.82803 0.43805 0.0
C3096 C 0.79005 0.8174 0.45178 0.0
C3097 C 0.8169 0.84765 0.41097 0.0
C3098 C 0.80772 0.82894 0.40548 0.0
C3099 C 0.79927 0.81942 0.41904 0.0
C3100 C 0.80653 0.81923 0.38558 0.0
C3101 C 0.82545 0.85899 0.39676 0.0
C3102 C 0.79044 0.81348 0.37377 0.0
C3103 C 0.78941 0.80545 0.35458 0.0
C3104 C 0.80447 0.803 0.34686 0.0
C3105 C 0.8205 0.80814 0.35899 0.0
C3106 C 0.82149 0.81609 0.37817 0.0
H3107 H 0.82796 0.8744 0.40175 0.0
H3108 H 0.83803 0.85475 0.39523 0.0
H3109 H 0.81737 0.85638 0.38227 0.0
H3110 H 0.77872 0.81567 0.37925 0.0
H3111 H 0.77685 0.80159 0.34568 0.0
H3112 H 0.48747 0.51273 0.8099 0.0
H3113 H 0.50211 0.51538 0.84335 0.0
H3114 H 0.46184 0.54166 0.86362 0.0
H3115 H 0.44701 0.53875 0.83038 0.0
H3116 H 0.51466 0.54683 0.87113 0.0
H3117 H 0.46271 0.49739 0.89533 0.0
H3118 H 0.46379 0.49954 0.8701 0.0
H3119 H 0.45534 0.51668 0.8846 0.0
C3120 C 0.48175 0.51906 0.8215 0.0
C3121 C 0.46601 0.52536 0.81756 0.0
C3122 C 0.49014 0.52061 0.84057 0.0
C3123 C 0.48291 0.52844 0.85597 0.0
C3124 C 0.46745 0.53521 0.85199 0.0
H3125 H 0.53224 0.5637 0.97581 0.0
H3126 H 0.52027 0.56318 0.94173 0.0
C3127 C 0.45903 0.53359 0.83298 0.0
C3128 C 0.49137 0.52932 0.87625 0.0
H3129 H 0.4848 0.51445 0.91981 0.0
C3130 C 0.50819 0.53972 0.88179 0.0
C3131 C 0.48296 0.51983 0.89005 0.0
C3132 C 0.46527 0.50757 0.88472 0.0
C3133 C 0.51673 0.54109 0.90087 0.0
C3134 C 0.5081 0.53205 0.91479 0.0
C3135 C 0.49135 0.52151 0.90916 0.0
C3136 C 0.51628 0.53273 0.93517 0.0
C3137 C 0.53503 0.55184 0.90583 0.0
C3138 C 0.51781 0.51581 0.94287 0.0
C3139 C 0.5244 0.51605 0.96234 0.0
C3140 C 0.52961 0.53323 0.97459 0.0
C3141 C 0.52837 0.55023 0.96678 0.0
C3142 C 0.52165 0.54997 0.94726 0.0
H3143 H 0.54124 0.55361 0.89267 0.0
H3144 H 0.53497 0.56612 0.91319 0.0
H3145 H 0.54297 0.54454 0.91578 0.0
H3146 H 0.51374 0.50235 0.93382 0.0
H3147 H 0.52524 0.50268 0.96781 0.0
H3148 H 0.8608 0.23421 0.08415 0.0
H3149 H 0.86971 0.26173 0.10894 0.0
H3150 H 0.84966 0.22824 0.15139 0.0
H3151 H 0.84132 0.20077 0.12701 0.0
H3152 H 0.84882 0.27886 0.12656 0.0
H3153 H 0.89289 0.25681 0.18326 0.0
H3154 H 0.88751 0.24401 0.15919 0.0
H3155 H 0.87396 0.2388 0.17745 0.0
C3156 C 0.85871 0.23266 0.09891 0.0
C3157 C 0.85034 0.21539 0.10368 0.0
C3158 C 0.86382 0.24837 0.11304 0.0
C3159 C 0.86065 0.247 0.13213 0.0
C3160 C 0.85279 0.22955 0.13696 0.0
H3161 H 0.81458 0.30531 0.20778 0.0
H3162 H 0.82552 0.29264 0.1794 0.0
C3163 C 0.84783 0.21386 0.12293 0.0
C3164 C 0.86314 0.2641 0.1464 0.0
H3165 H 0.87387 0.27789 0.19492 0.0
C3166 C 0.85479 0.27896 0.1414 0.0
C3167 C 0.87134 0.26465 0.16565 0.0
C3168 C 0.88209 0.25027 0.17158 0.0
C3169 C 0.85274 0.29313 0.15556 0.0
C3170 C 0.85879 0.29207 0.17522 0.0
C3171 C 0.86886 0.27849 0.1799 0.0
C3172 C 0.8525 0.30261 0.19118 0.0
C3173 C 0.84341 0.30857 0.14939 0.0
C3174 C 0.864 0.31235 0.20735 0.0
C3175 C 0.8577 0.31933 0.22378 0.0
C3176 C 0.83986 0.31648 0.22425 0.0
C3177 C 0.8284 0.30763 0.20774 0.0
C3178 C 0.83466 0.30059 0.19142 0.0
H3179 H 0.84624 0.31221 0.13497 0.0
H3180 H 0.82928 0.30348 0.14801 0.0
H3181 H 0.84705 0.32154 0.15999 0.0
H3182 H 0.87781 0.31391 0.20753 0.0
H3183 H 0.86677 0.32613 0.23639 0.0
H3184 H 0.1214 0.50865 0.33131 0.0
H3185 H 0.10675 0.51201 0.35985 0.0
H3186 H 0.15599 0.53108 0.39595 0.0
H3187 H 0.17056 0.52829 0.36736 0.0
H3188 H 0.1046 0.4968 0.39148 0.0
H3189 H 0.13376 0.57121 0.41749 0.0
H3190 H 0.13662 0.56003 0.39434 0.0
H3191 H 0.14986 0.55673 0.41621 0.0
C3192 C 0.12918 0.51367 0.34529 0.0
C3193 C 0.14735 0.51828 0.34662 0.0
C3194 C 0.1207 0.5156 0.36183 0.0
C3195 C 0.12991 0.52231 0.3806 0.0
C3196 C 0.14813 0.52653 0.38195 0.0
H3197 H 0.09992 0.53917 0.49929 0.0
H3198 H 0.11531 0.53614 0.47125 0.0
C3199 C 0.15661 0.52471 0.36539 0.0
C3200 C 0.12055 0.52441 0.39849 0.0
H3201 H 0.11807 0.55451 0.43908 0.0
C3202 C 0.10759 0.50955 0.40171 0.0
C3203 C 0.12404 0.5409 0.4124 0.0
C3204 C 0.13669 0.55819 0.40987 0.0
C3205 C 0.09859 0.5105 0.41803 0.0
C3206 C 0.10213 0.52695 0.43195 0.0
C3207 C 0.11512 0.54178 0.42881 0.0
C3208 C 0.09248 0.52907 0.44955 0.0
C3209 C 0.0856 0.49345 0.42043 0.0
C3210 C 0.07427 0.52654 0.44742 0.0
C3211 C 0.06537 0.52841 0.4636 0.0
C3212 C 0.07418 0.53294 0.48284 0.0
C3213 C 0.09242 0.53567 0.48498 0.0
C3214 C 0.10135 0.53393 0.46873 0.0
H3215 H 0.08803 0.48036 0.41243 0.0
H3216 H 0.0858 0.4914 0.43593 0.0
H3217 H 0.07249 0.49548 0.4145 0.0
H3218 H 0.06679 0.52328 0.43308 0.0
H3219 H 0.05142 0.52622 0.46094 0.0
H3220 H 0.80708 0.85075 0.58782 0.0
H3221 H 0.80503 0.83378 0.61622 0.0
H3222 H 0.82043 0.88657 0.65367 0.0
H3223 H 0.8223 0.90366 0.62533 0.0
H3224 H 0.83052 0.83267 0.64761 0.0
H3225 H 0.77599 0.86255 0.67217 0.0
H3226 H 0.78183 0.86449 0.64834 0.0
H3227 H 0.79405 0.87992 0.66895 0.0
C3228 C 0.80996 0.85876 0.6021 0.0
C3229 C 0.81475 0.87857 0.60432 0.0
C3230 C 0.80883 0.84903 0.61832 0.0
C3231 C 0.81234 0.85891 0.63707 0.0
C3232 C 0.81733 0.87867 0.63934 0.0
H3233 H 0.80848 0.82526 0.75235 0.0
H3234 H 0.8137 0.84234 0.72462 0.0
C3235 C 0.81847 0.88842 0.62312 0.0
C3236 C 0.81095 0.8485 0.65423 0.0
H3237 H 0.78949 0.84386 0.69311 0.0
C3238 C 0.82152 0.83507 0.65754 0.0
C3239 C 0.79921 0.85165 0.66718 0.0
C3240 C 0.787 0.86531 0.66395 0.0
C3241 C 0.82086 0.82491 0.67362 0.0
C3242 C 0.80909 0.82805 0.68655 0.0
C3243 C 0.79855 0.84151 0.68324 0.0
C3244 C 0.80728 0.81738 0.70349 0.0
C3245 C 0.83301 0.81121 0.67683 0.0
C3246 C 0.80204 0.79764 0.70088 0.0
C3247 C 0.79913 0.78783 0.71675 0.0
C3248 C 0.80128 0.7976 0.73548 0.0
C3249 C 0.80683 0.81732 0.73811 0.0
C3250 C 0.80975 0.82711 0.72226 0.0
H3251 H 0.84423 0.81423 0.66897 0.0
H3252 H 0.83786 0.81165 0.69249 0.0
H3253 H 0.82603 0.79666 0.67136 0.0
H3254 H 0.79971 0.78986 0.68651 0.0
H3255 H 0.79476 0.77265 0.71427 0.0
H3256 H 0.71923 0.38643 0.52958 0.0
H3257 H 0.69828 0.39795 0.54818 0.0
H3258 H 0.69105 0.43859 0.50816 0.0
H3259 H 0.71176 0.42704 0.48944 0.0
H3260 H 0.7032 0.43381 0.56637 0.0
H3261 H 0.6419 0.41918 0.51596 0.0
H3262 H 0.65968 0.40733 0.51213 0.0
H3263 H 0.6591 0.43032 0.50447 0.0
C3264 C 0.71283 0.3975 0.52449 0.0
C3265 C 0.71714 0.4059 0.5081 0.0
C3266 C 0.7009 0.40406 0.53514 0.0
C3267 C 0.69298 0.41897 0.52943 0.0
C3268 C 0.69671 0.42677 0.51257 0.0
H3269 H 0.67155 0.51762 0.57849 0.0
H3270 H 0.68401 0.48951 0.57231 0.0
C3271 C 0.70863 0.42025 0.50195 0.0
C3272 C 0.68255 0.42809 0.54217 0.0
H3273 H 0.64596 0.44682 0.54013 0.0
C3274 C 0.69047 0.43626 0.56086 0.0
C3275 C 0.6658 0.4309 0.53521 0.0
C3276 C 0.65607 0.42127 0.51591 0.0
C3277 C 0.68275 0.44866 0.57201 0.0
C3278 C 0.66691 0.45321 0.56405 0.0
C3279 C 0.65824 0.44358 0.54617 0.0
C3280 C 0.66032 0.4697 0.57236 0.0
C3281 C 0.69195 0.45728 0.59187 0.0
C3282 C 0.64294 0.46797 0.57487 0.0
C3283 C 0.63569 0.48408 0.57798 0.0
C3284 C 0.64566 0.50222 0.57852 0.0
C3285 C 0.66341 0.50388 0.57775 0.0
C3286 C 0.67064 0.48777 0.57452 0.0
H3287 H 0.69933 0.44731 0.59876 0.0
H3288 H 0.70133 0.47013 0.5905 0.0
H3289 H 0.68279 0.46129 0.60151 0.0
H3290 H 0.63473 0.45416 0.57322 0.0
H3291 H 0.622 0.48225 0.57852 0.0
H3292 H 0.21739 0.15752 0.52936 0.0
H3293 H 0.18872 0.13968 0.53105 0.0
H3294 H 0.19978 0.09195 0.4962 0.0
H3295 H 0.22871 0.10954 0.49498 0.0
H3296 H 0.1615 0.12431 0.50412 0.0
H3297 H 0.18479 0.06735 0.5416 0.0
H3298 H 0.19902 0.08876 0.53866 0.0
H3299 H 0.19276 0.06981 0.51904 0.0
C3300 C 0.21372 0.14321 0.52205 0.0
C3301 C 0.22539 0.13488 0.51216 0.0
C3302 C 0.1973 0.13303 0.52301 0.0
C3303 C 0.19215 0.11431 0.51409 0.0
C3304 C 0.20359 0.10618 0.50367 0.0
H3305 H 0.09514 0.03447 0.49684 0.0
H3306 H 0.12291 0.05373 0.49365 0.0
C3307 C 0.22009 0.1163 0.50285 0.0
C3308 C 0.17485 0.10336 0.51576 0.0
H3309 H 0.15468 0.06254 0.53011 0.0
C3310 C 0.16005 0.11085 0.50988 0.0
C3311 C 0.17289 0.08584 0.52345 0.0
C3312 C 0.18821 0.07754 0.53124 0.0
C3313 C 0.14341 0.10114 0.51116 0.0
C3314 C 0.14152 0.08351 0.51843 0.0
C3315 C 0.15623 0.07604 0.52441 0.0
C3316 C 0.12433 0.07255 0.51996 0.0
C3317 C 0.12788 0.10961 0.50461 0.0
C3318 C 0.11596 0.0768 0.53581 0.0
C3319 C 0.10016 0.06573 0.53775 0.0
C3320 C 0.09246 0.0503 0.52381 0.0
C3321 C 0.10076 0.04628 0.50781 0.0
C3322 C 0.1166 0.05725 0.50595 0.0
H3323 H 0.13141 0.12294 0.49824 0.0
H3324 H 0.11865 0.09935 0.49369 0.0
H3325 H 0.12112 0.11259 0.51713 0.0
H3326 H 0.1218 0.08848 0.54683 0.0
H3327 H 0.09418 0.06903 0.55035 0.0
H3328 H 0.2007 0.01729 0.78992 0.0
H3329 H 0.21688 0.99133 0.78959 0.0
H3330 H 0.18403 0.96329 0.82636 0.0
H3331 H 0.16772 0.98916 0.82671 0.0
H3332 H 0.23443 0.97909 0.82329 0.0
H3333 H 0.18395 0.9219 0.78083 0.0
H3334 H 0.18288 0.94664 0.7807 0.0
H3335 H 0.17761 0.93484 0.80107 0.0
C3336 C 0.19684 1.00553 0.79783 0.0
C3337 C 0.18293 1.00522 0.80832 0.0
C3338 C 0.2061 0.99074 0.79763 0.0
C3339 C 0.20151 0.97533 0.80777 0.0
C3340 C 0.18758 0.97492 0.81819 0.0
H3341 H 0.24668 0.87481 0.82322 0.0
H3342 H 0.22814 0.89866 0.82384 0.0
C3343 C 0.17835 0.98975 0.81845 0.0
C3344 C 0.21182 0.96011 0.80811 0.0
H3345 H 0.21007 0.91323 0.79382 0.0
C3346 C 0.22913 0.96469 0.81683 0.0
C3347 C 0.20477 0.94133 0.79983 0.0
C3348 C 0.18632 0.93581 0.78993 0.0
C3349 C 0.23965 0.95096 0.81754 0.0
C3350 C 0.23274 0.93225 0.80887 0.0
C3351 C 0.21533 0.92759 0.8004 0.0
C3352 C 0.24356 0.91749 0.808 0.0
C3353 C 0.25799 0.95657 0.82782 0.0
C3354 C 0.25808 0.91996 0.79849 0.0
C3355 C 0.26867 0.90643 0.7982 0.0
C3356 C 0.26489 0.89005 0.80729 0.0
C3357 C 0.24997 0.88728 0.81619 0.0
C3358 C 0.23939 0.9009 0.81657 0.0
H3359 H 0.25966 0.96951 0.83833 0.0
H3360 H 0.26197 0.94503 0.83567 0.0
H3361 H 0.26676 0.9596 0.81699 0.0
H3362 H 0.26124 0.9324 0.79129 0.0
H3363 H 0.2798 0.90876 0.79075 0.0
H3364 H 0.32344 0.91638 0.97059 0.0
H3365 H 0.34846 0.94171 0.97372 0.0
H3366 H 0.31502 0.98288 0.97097 0.0
H3367 H 0.2898 0.9575 0.96831 0.0
H3368 H 0.35819 0.96866 0.95063 0.0
H3369 H 0.34705 1.0015 0.02194 0.0
H3370 H 0.33543 0.97855 0.01089 0.0
H3371 H 0.32978 0.99956 1.00217 0.0
C3372 C 0.32138 0.9308 0.9705 0.0
C3373 C 0.3047 0.935 0.96939 0.0
C3374 C 0.33568 0.94526 0.97226 0.0
C3375 C 0.3336 0.96418 0.9729 0.0
C3376 C 0.31691 0.96839 0.97091 0.0
H3377 H 0.4308 0.0435 0.97486 0.0
H3378 H 0.40016 0.02984 0.96646 0.0
C3379 C 0.30254 0.95389 0.96927 0.0
C3380 C 0.34911 0.97927 0.97637 0.0
H3381 H 0.37231 1.01443 0.01042 0.0
C3382 C 0.36122 0.97887 0.96356 0.0
C3383 C 0.353 0.99244 0.99334 0.0
C3384 C 0.34073 0.99304 1.00799 0.0
C3385 C 0.37749 0.99063 0.9677 0.0
C3386 C 0.38153 1.00355 0.98488 0.0
C3387 C 0.36911 1.00458 0.99723 0.0
C3388 C 0.3992 1.01445 0.99135 0.0
C3389 C 0.39054 0.98822 0.95426 0.0
C3390 C 0.40851 1.01131 0.00878 0.0
C3391 C 0.42591 0.01949 0.01391 0.0
C3392 C 0.43439 0.03084 1.00161 0.0
C3393 C 0.42472 0.03488 0.98473 0.0
C3394 C 0.40724 0.02688 0.97974 0.0
H3395 H 0.38659 0.97494 0.94409 0.0
H3396 H 0.39185 1.00021 0.9455 0.0
H3397 H 0.40339 0.9881 0.96258 0.0
H3398 H 0.4025 1.0019 0.01806 0.0
H3399 H 0.43284 0.01646 0.02725 0.0
H3400 H 0.91829 0.62622 0.78528 0.0
H3401 H 0.90349 0.65348 0.78663 0.0
H3402 H 0.85499 0.61639 0.76526 0.0
H3403 H 0.86972 0.58917 0.7642 0.0
H3404 H 0.88574 0.67105 0.76163 0.0
H3405 H 0.83922 0.6445 0.80888 0.0
H3406 H 0.85703 0.63301 0.80456 0.0
H3407 H 0.83757 0.6286 0.78717 0.0
C3408 C 0.90444 0.62375 0.78094 0.0
C3409 C 0.8954 0.60505 0.77475 0.0
C3410 C 0.89586 0.63956 0.78169 0.0
C3411 C 0.87775 0.63756 0.77648 0.0
C3412 C 0.86877 0.61887 0.77002 0.0
H3413 H 0.80068 0.71506 0.77258 0.0
H3414 H 0.81607 0.68837 0.77093 0.0
C3415 C 0.87735 0.60307 0.76923 0.0
C3416 C 0.86845 0.65481 0.77748 0.0
H3417 H 0.83417 0.67165 0.79419 0.0
C3418 C 0.87452 0.67107 0.76889 0.0
C3419 C 0.85363 0.65552 0.78684 0.0
C3420 C 0.84656 0.63958 0.79756 0.0
C3421 C 0.86624 0.68721 0.76888 0.0
C3422 C 0.85136 0.68791 0.77821 0.0
C3423 C 0.84537 0.67166 0.78688 0.0
C3424 C 0.84181 0.70499 0.77905 0.0
C3425 C 0.87332 0.70308 0.75807 0.0
C3426 C 0.85056 0.72395 0.78442 0.0
C3427 C 0.84163 0.73948 0.78521 0.0
C3428 C 0.82341 0.73695 0.78094 0.0
C3429 C 0.81463 0.718 0.7759 0.0
C3430 C 0.82357 0.70249 0.775 0.0
H3431 H 0.88049 0.69803 0.74664 0.0
H3432 H 0.86288 0.70976 0.75117 0.0
H3433 H 0.8825 0.71398 0.76835 0.0
H3434 H 0.86443 0.72689 0.7884 0.0
H3435 H 0.84911 0.75356 0.78949 0.0
H3436 H 0.81029 0.61585 0.99689 0.0
H3437 H 0.83627 0.60169 1.00068 0.0
H3438 H 0.85999 0.64579 0.04698 0.0
H3439 H 0.83439 0.66036 0.04272 0.0
H3440 H 0.88245 0.63968 0.02415 0.0
H3441 H 0.85087 0.5704 0.0415 0.0
H3442 H 0.84158 0.57576 0.01846 0.0
H3443 H 0.83991 0.59024 0.04028 0.0
C3444 C 0.82106 0.6225 1.00786 0.0
C3445 C 0.82028 0.63918 0.01954 0.0
C3446 C 0.83586 0.61431 0.01014 0.0
C3447 C 0.85 0.6224 0.02442 0.0
C3448 C 0.84926 0.63919 0.03592 0.0
H3449 H 0.93343 0.56409 0.06421 0.0
H3450 H 0.90797 0.57921 0.0613 0.0
C3451 C 0.8346 0.64752 0.03347 0.0
C3452 C 0.86575 0.61373 0.02717 0.0
H3453 H 0.87984 0.57266 0.03527 0.0
C3454 C 0.88186 0.62504 0.02668 0.0
C3455 C 0.86511 0.59472 0.03084 0.0
C3456 C 0.84846 0.58213 0.03302 0.0
C3457 C 0.89724 0.61786 0.02945 0.0
C3458 C 0.89651 0.5986 0.03218 0.0
C3459 C 0.88044 0.58736 0.03298 0.0
C3460 C 0.91222 0.58981 0.03418 0.0
C3461 C 0.91413 0.63116 0.02989 0.0
C3462 C 0.92304 0.59056 0.01986 0.0
C3463 C 0.93768 0.58217 0.02164 0.0
C3464 C 0.94167 0.57248 0.03759 0.0
C3465 C 0.93069 0.57145 0.05177 0.0
C3466 C 0.91615 0.58009 0.05011 0.0
H3467 H 0.91297 0.64608 0.03398 0.0
H3468 H 0.92455 0.62761 0.04027 0.0
H3469 H 0.91797 0.63013 0.01523 0.0
H3470 H 0.92003 0.5974 1.00712 0.0
H3471 H 0.94566 0.58284 0.01026 0.0
H3472 H 0.17077 0.119 0.81299 0.0
H3473 H 0.19058 0.14849 0.81145 0.0
H3474 H 0.23359 0.11919 0.81724 0.0
H3475 H 0.21385 0.0896 0.81845 0.0
H3476 H 0.21903 0.16884 0.83685 0.0
H3477 H 0.2379 0.14278 0.76712 0.0
H3478 H 0.21971 0.13063 0.77667 0.0
H3479 H 0.24127 0.12803 0.78589 0.0
C3480 C 0.18446 0.11887 0.81404 0.0
C3481 C 0.19075 0.10196 0.81566 0.0
C3482 C 0.19575 0.13572 0.81318 0.0
C3483 C 0.21351 0.13595 0.81387 0.0
C3484 C 0.21989 0.11924 0.81626 0.0
H3485 H 0.29626 0.23422 0.82907 0.0
H3486 H 0.27573 0.20625 0.8337 0.0
C3487 C 0.20861 0.10237 0.81705 0.0
C3488 C 0.22528 0.15355 0.81162 0.0
H3489 H 0.25367 0.17225 0.78298 0.0
C3490 C 0.2266 0.16962 0.82506 0.0
C3491 C 0.23491 0.15461 0.79604 0.0
C3492 C 0.23329 0.13816 0.78049 0.0
C3493 C 0.23752 0.18667 0.82353 0.0
C3494 C 0.24759 0.18751 0.80833 0.0
C3495 C 0.24606 0.17151 0.79473 0.0
C3496 C 0.25964 0.20489 0.80601 0.0
C3497 C 0.23795 0.2037 0.83796 0.0
C3498 C 0.25761 0.21316 0.78877 0.0
C3499 C 0.2694 0.22896 0.78603 0.0
C3500 C 0.28343 0.23678 0.8005 0.0
C3501 C 0.28547 0.22852 0.81775 0.0
C3502 C 0.27369 0.21266 0.82047 0.0
H3503 H 0.22635 0.20219 0.84536 0.0
H3504 H 0.24948 0.20533 0.84918 0.0
H3505 H 0.23878 0.21679 0.8308 0.0
H3506 H 0.24695 0.20729 0.77736 0.0
H3507 H 0.26772 0.23482 0.77243 0.0
H3508 H 0.40673 0.98409 0.25395 0.0
H3509 H 0.39172 0.95158 0.25427 0.0
H3510 H 0.3631 0.97143 0.29767 0.0
H3511 H 0.37745 1.00395 0.29661 0.0
H3512 H 0.3903 0.92723 0.27801 0.0
H3513 H 0.32337 0.93945 0.26481 0.0
H3514 H 0.34149 0.95749 0.26296 0.0
H3515 H 0.33503 0.95385 0.28624 0.0
C3516 C 0.39707 0.9816 0.2634 0.0
C3517 C 0.39326 0.99696 0.27505 0.0
C3518 C 0.38845 0.96282 0.26365 0.0
C3519 C 0.37571 0.95853 0.27565 0.0
C3520 C 0.37221 0.97391 0.28762 0.0
H3521 H 0.32149 0.85233 0.30958 0.0
H3522 H 0.33561 0.8848 0.30747 0.0
C3523 C 0.38063 0.99271 0.28715 0.0
C3524 C 0.36662 0.93813 0.27604 0.0
H3525 H 0.32699 0.9099 0.27575 0.0
C3526 C 0.37643 0.92359 0.27731 0.0
C3527 C 0.34838 0.93272 0.27506 0.0
C3528 C 0.33645 0.94666 0.27198 0.0
C3529 C 0.3688 0.90446 0.27806 0.0
C3530 C 0.35071 0.89925 0.27762 0.0
C3531 C 0.34085 0.91366 0.27627 0.0
C3532 C 0.34189 0.87904 0.2787 0.0
C3533 C 0.38021 0.88986 0.27971 0.0
C3534 C 0.34036 0.86455 0.2632 0.0
C3535 C 0.332 0.84582 0.26426 0.0
C3536 C 0.32504 0.84078 0.28097 0.0
C3537 C 0.32665 0.85535 0.29646 0.0
C3538 C 0.33476 0.87411 0.29527 0.0
H3539 H 0.39413 0.89636 0.28258 0.0
H3540 H 0.37714 0.88127 0.29151 0.0
H3541 H 0.37776 0.88014 0.26598 0.0
H3542 H 0.34553 0.86776 0.25013 0.0
H3543 H 0.3311 0.83523 0.25196 0.0
H3544 H 0.58334 0.33917 0.5967 0.0
H3545 H 0.58366 0.36779 0.58064 0.0
H3546 H 0.57314 0.3978 0.6327 0.0
H3547 H 0.57327 0.36942 0.64896 0.0
H3548 H 0.55828 0.38675 0.57257 0.0
H3549 H 0.61237 0.43494 0.61972 0.0
H3550 H 0.60823 0.40977 0.62077 0.0
H3551 H 0.59637 0.42487 0.6334 0.0
C3552 C 0.58129 0.35194 0.60478 0.0
C3553 C 0.57835 0.35207 0.62412 0.0
C3554 C 0.58147 0.36828 0.59559 0.0
C3555 C 0.57872 0.38508 0.60554 0.0
C3556 C 0.57577 0.3852 0.62486 0.0
H3557 H 0.53728 0.47605 0.559 0.0
H3558 H 0.54275 0.44692 0.57131 0.0
C3559 C 0.57571 0.36891 0.6341 0.0
C3560 C 0.57788 0.40211 0.59541 0.0
H3561 H 0.59311 0.44963 0.59941 0.0
C3562 C 0.56605 0.40046 0.57834 0.0
C3563 C 0.58825 0.41995 0.60264 0.0
C3564 C 0.60215 0.42247 0.62002 0.0
C3565 C 0.56376 0.41625 0.5688 0.0
C3566 C 0.57323 0.43432 0.57683 0.0
C3567 C 0.58563 0.43584 0.5934 0.0
C3568 C 0.56994 0.45188 0.5688 0.0
C3569 C 0.55125 0.41334 0.55017 0.0
C3570 C 0.58349 0.46473 0.56379 0.0
C3571 C 0.5805 0.48174 0.5572 0.0
C3572 C 0.5638 0.48603 0.5552 0.0
C3573 C 0.55025 0.47306 0.56008 0.0
C3574 C 0.55333 0.4563 0.56702 0.0
H3575 H 0.54978 0.39876 0.54269 0.0
H3576 H 0.53837 0.4154 0.55348 0.0
H3577 H 0.55548 0.42352 0.54012 0.0
H3578 H 0.59637 0.46152 0.56495 0.0
H3579 H 0.59122 0.49144 0.55356 0.0
H3580 H 0.48143 0.77258 0.36335 0.0
H3581 H 0.45227 0.77317 0.34736 0.0
H3582 H 0.43174 0.75941 0.39918 0.0
H3583 H 0.46087 0.75866 0.41524 0.0
H3584 H 0.41257 0.7384 0.36507 0.0
H3585 H 0.42457 0.81515 0.35857 0.0
H3586 H 0.43982 0.80271 0.3487 0.0
H3587 H 0.4389 0.80435 0.37427 0.0
C3588 C 0.47071 0.76961 0.37132 0.0
C3589 C 0.47346 0.76564 0.39059 0.0
C3590 C 0.45406 0.77008 0.36221 0.0
C3591 C 0.43987 0.76667 0.37219 0.0
C3592 C 0.44252 0.76222 0.39125 0.0
H3593 H 0.33865 0.79141 0.32679 0.0
H3594 H 0.36479 0.78948 0.34894 0.0
C3595 C 0.45917 0.76178 0.4004 0.0
C3596 C 0.42225 0.76759 0.36265 0.0
H3597 H 0.39855 0.79691 0.34055 0.0
C3598 C 0.40945 0.75123 0.35984 0.0
C3599 C 0.4181 0.78443 0.35615 0.0
C3600 C 0.43101 0.80272 0.35972 0.0
C3601 C 0.39283 0.75105 0.35001 0.0
C3602 C 0.38897 0.76762 0.34261 0.0
C3603 C 0.40155 0.78418 0.34611 0.0
C3604 C 0.37236 0.76775 0.33017 0.0
C3605 C 0.37956 0.7331 0.34758 0.0
C3606 C 0.36796 0.75624 0.31231 0.0
C3607 C 0.35306 0.75727 0.2998 0.0
C3608 C 0.34221 0.76981 0.30487 0.0
C3609 C 0.34648 0.78122 0.32282 0.0
C3610 C 0.3615 0.78026 0.33535 0.0
H3611 H 0.38268 0.7238 0.35872 0.0
H3612 H 0.36646 0.73622 0.34847 0.0
H3613 H 0.37933 0.7252 0.33314 0.0
H3614 H 0.37632 0.74681 0.30779 0.0
H3615 H 0.35017 0.74847 0.28594 0.0
H3616 H 0.06103 0.75389 0.09402 0.0
H3617 H 0.05705 0.72145 0.07789 0.0
H3618 H 0.07545 0.70281 0.13204 0.0
H3619 H 0.07908 0.73499 0.14828 0.0
H3620 H 0.08027 0.69777 0.07377 0.0
H3621 H 0.03003 0.66652 0.11497 0.0
H3622 H 0.03656 0.69171 0.11543 0.0
H3623 H 0.04931 0.67874 0.13036 0.0
C3624 C 0.06415 0.74284 0.10248 0.0
C3625 C 0.07022 0.74694 0.12245 0.0
C3626 C 0.06191 0.72434 0.09325 0.0
C3627 C 0.06565 0.70964 0.10383 0.0
C3628 C 0.07206 0.71382 0.12368 0.0
H3629 H 0.08284 0.5988 0.06025 0.0
H3630 H 0.08581 0.63198 0.07334 0.0
C3631 C 0.07422 0.73225 0.13292 0.0
C3632 C 0.06309 0.68996 0.09414 0.0
H3633 H 0.04281 0.64485 0.09634 0.0
C3634 C 0.07199 0.6862 0.07861 0.0
C3635 C 0.05208 0.67492 0.10027 0.0
C3636 C 0.04131 0.67817 0.11604 0.0
C3637 C 0.07052 0.66774 0.06935 0.0
C3638 C 0.06014 0.65258 0.07608 0.0
C3639 C 0.05093 0.65643 0.09132 0.0
C3640 C 0.0585 0.63262 0.06752 0.0
C3641 C 0.0799 0.66471 0.05227 0.0
C3642 C 0.04214 0.62178 0.06029 0.0
C3643 C 0.04037 0.60274 0.05305 0.0
C3644 C 0.05495 0.59411 0.05286 0.0
C3645 C 0.07135 0.60502 0.06001 0.0
C3646 C 0.07309 0.62405 0.06739 0.0
H3647 H 0.08291 0.67788 0.04548 0.0
H3648 H 0.09228 0.66032 0.05728 0.0
H3649 H 0.07217 0.65347 0.0411 0.0
H3650 H 0.03069 0.62805 0.06031 0.0
H3651 H 0.02754 0.5948 0.04764 0.0
H3652 H 0.05588 0.26082 0.86532 0.0
H3653 H 0.08232 0.26185 0.85067 0.0
H3654 H 0.11292 0.28192 0.90656 0.0
H3655 H 0.08659 0.28066 0.92133 0.0
H3656 H 0.10819 0.29264 0.84981 0.0
H3657 H 0.13488 0.23781 0.8879 0.0
H3658 H 0.11279 0.2409 0.88754 0.0
H3659 H 0.12985 0.25648 0.90374 0.0
C3660 C 0.06824 0.26534 0.8745 0.0
C3661 C 0.06914 0.27056 0.8945 0.0
C3662 C 0.08334 0.26594 0.86611 0.0
C3663 C 0.09962 0.27168 0.87755 0.0
C3664 C 0.10053 0.27704 0.8975 0.0
H3665 H 0.20527 0.28682 0.85156 0.0
H3666 H 0.17945 0.28617 0.86733 0.0
C3667 C 0.08546 0.27642 0.9059 0.0
C3668 C 0.11562 0.27259 0.86852 0.0
H3669 H 0.15321 0.25546 0.86939 0.0
C3670 C 0.118 0.28445 0.85403 0.0
C3671 C 0.12846 0.26198 0.87411 0.0
C3672 C 0.12636 0.24844 0.88905 0.0
C3673 C 0.13294 0.28615 0.84514 0.0
C3674 C 0.14573 0.27544 0.85064 0.0
C3675 C 0.14342 0.26368 0.86522 0.0
C3676 C 0.16141 0.27592 0.84108 0.0
C3677 C 0.13503 0.29967 0.83018 0.0
C3678 C 0.15986 0.27014 0.82115 0.0
C3679 C 0.17455 0.2706 0.81209 0.0
C3680 C 0.19118 0.27669 0.82279 0.0
C3681 C 0.19269 0.28227 0.84283 0.0
C3682 C 0.17795 0.2818 0.85189 0.0
H3683 H 0.1267 0.31047 0.83153 0.0
H3684 H 0.14865 0.307 0.83146 0.0
H3685 H 0.13124 0.29165 0.81549 0.0
H3686 H 0.14726 0.26522 0.81257 0.0
H3687 H 0.17284 0.2664 0.79662 0.0
H3688 H 0.53926 0.7826 0.92974 0.0
H3689 H 0.54205 0.75453 0.94586 0.0
H3690 H 0.56402 0.73122 0.89796 0.0
H3691 H 0.56101 0.75912 0.88159 0.0
H3692 H 0.53839 0.70565 0.90897 0.0
H3693 H 0.58588 0.74029 0.97271 0.0
H3694 H 0.56713 0.75107 0.96929 0.0
H3695 H 0.5814 0.75176 0.95137 0.0
C3696 C 0.5448 0.77155 0.92271 0.0
C3697 C 0.54997 0.77305 0.90445 0.0
C3698 C 0.54647 0.75559 0.93197 0.0
C3699 C 0.55348 0.74096 0.92322 0.0
C3700 C 0.55866 0.74242 0.90498 0.0
H3701 H 0.58138 0.64966 0.98599 0.0
H3702 H 0.58202 0.67555 0.96592 0.0
C3703 C 0.55695 0.75836 0.89568 0.0
C3704 C 0.55481 0.72382 0.93278 0.0
H3705 H 0.57153 0.70889 0.97461 0.0
C3706 C 0.54576 0.70631 0.92325 0.0
C3707 C 0.56465 0.7247 0.95126 0.0
C3708 C 0.57546 0.74293 0.96169 0.0
C3709 C 0.54582 0.68969 0.93201 0.0
C3710 C 0.55491 0.69075 0.95092 0.0
C3711 C 0.56443 0.70816 0.96018 0.0
C3712 C 0.55436 0.67411 0.96168 0.0
C3713 C 0.5362 0.67119 0.92092 0.0
C3714 C 0.53859 0.66472 0.96587 0.0
C3715 C 0.53819 0.64994 0.97729 0.0
C3716 C 0.55358 0.64445 0.98491 0.0
C3717 C 0.56934 0.65371 0.98045 0.0
C3718 C 0.56972 0.66843 0.96895 0.0
H3719 H 0.5345 0.67185 0.90504 0.0
H3720 H 0.54303 0.6594 0.92408 0.0
H3721 H 0.52318 0.66799 0.92522 0.0
H3722 H 0.52663 0.66919 0.9608 0.0
H3723 H 0.52589 0.64327 0.98075 0.0
H3724 H 0.11916 0.73916 0.71773 0.0
H3725 H 0.15049 0.74949 0.72463 0.0
H3726 H 0.14388 0.80366 0.75099 0.0
H3727 H 0.11246 0.79352 0.7441 0.0
H3728 H 0.16472 0.79042 0.70967 0.0
H3729 H 0.18444 0.77913 0.78631 0.0
H3730 H 0.1665 0.76342 0.77123 0.0
H3731 H 0.16448 0.78714 0.77915 0.0
C3732 C 0.12435 0.75309 0.72546 0.0
C3733 C 0.11339 0.76559 0.73026 0.0
C3734 C 0.14222 0.75896 0.72933 0.0
C3735 C 0.14934 0.77731 0.73821 0.0
C3736 C 0.13851 0.78942 0.74416 0.0
H3737 H 0.25906 0.82454 0.76582 0.0
H3738 H 0.22779 0.82197 0.76262 0.0
C3739 C 0.12061 0.78358 0.74025 0.0
C3740 C 0.16794 0.78439 0.73924 0.0
H3741 H 0.20656 0.78985 0.76855 0.0
C3742 C 0.17392 0.79046 0.72256 0.0
C3743 C 0.17969 0.7846 0.75616 0.0
C3744 C 0.1736 0.77825 0.77433 0.0
C3745 C 0.19158 0.79637 0.72221 0.0
C3746 C 0.20348 0.79578 0.73888 0.0
C3747 C 0.19739 0.79029 0.75578 0.0
C3748 C 0.22232 0.79946 0.73875 0.0
C3749 C 0.1973 0.80313 0.70401 0.0
C3750 C 0.22959 0.78801 0.72602 0.0
C3751 C 0.24746 0.78947 0.72776 0.0
C3752 C 0.25835 0.80226 0.74243 0.0
C3753 C 0.25105 0.81448 0.75442 0.0
C3754 C 0.23317 0.81302 0.75265 0.0
H3755 H 0.18691 0.80856 0.6953 0.0
H3756 H 0.20895 0.81445 0.70741 0.0
H3757 H 0.20048 0.79111 0.69495 0.0
H3758 H 0.22143 0.7772 0.71543 0.0
H3759 H 0.25263 0.77976 0.71838 0.0
H3760 H 0.04437 0.37696 0.40037 0.0
H3761 H 0.03896 0.40115 0.42465 0.0
H3762 H 0.03977 0.36217 0.46735 0.0
H3763 H 0.04521 0.33792 0.44323 0.0
H3764 H 1.01044 0.39791 0.44895 0.0
H3765 H 0.07685 0.41052 0.49063 0.0
H3766 H 0.07195 0.3994 0.46586 0.0
H3767 H 0.06557 0.38644 0.48506 0.0
C3768 C 0.04342 0.37356 0.41494 0.0
C3769 C 0.04532 0.35562 0.41996 0.0
C3770 C 0.04025 0.38734 0.42873 0.0
C3771 C 0.03906 0.3834 0.44773 0.0
C3772 C 0.04078 0.36546 0.45276 0.0
H3773 H 0.04164 0.46794 0.5463 0.0
H3774 H 0.03703 0.43663 0.52746 0.0
C3775 C 0.04389 0.35166 0.43897 0.0
C3776 C 0.03646 0.39829 0.4624 0.0
H3777 H 0.05761 0.42895 0.50148 0.0
C3778 C 0.02066 0.40463 0.46057 0.0
C3779 C 0.04978 0.40679 0.4776 0.0
C3780 C 0.06706 0.40059 0.47997 0.0
C3781 C 0.01798 0.41965 0.47336 0.0
C3782 C 0.03161 0.42876 0.48802 0.0
C3783 C 0.04715 0.42189 0.49028 0.0
C3784 C 0.0309 0.44669 0.49977 0.0
C3785 C 1.00064 0.42568 0.47095 0.0
C3786 C 0.02852 0.46259 0.4905 0.0
C3787 C 0.03106 0.48037 0.5012 0.0
C3788 C 0.03626 0.48261 0.52133 0.0
C3789 C 0.03766 0.46657 0.53078 0.0
C3790 C 0.03505 0.44872 0.52005 0.0
H3791 H 0.99021 0.41364 0.46444 0.0
H3792 H 0.99754 0.43157 0.48501 0.0
H3793 H 1.00081 0.43671 0.46101 0.0
H3794 H 0.02573 0.46147 0.47486 0.0
H3795 H 0.02991 0.49251 0.49355 0.0
H3796 H 0.5116 0.24492 0.2113 0.0
H3797 H 0.4865 0.25133 0.22563 0.0
H3798 H 0.51938 0.27484 0.27938 0.0
H3799 H 0.5447 0.2689 0.26494 0.0
H3800 H 0.47186 0.2416 0.25768 0.0
H3801 H 0.49692 0.31901 0.26446 0.0
H3802 H 0.50646 0.30197 0.25107 0.0
H3803 H 0.51072 0.30548 0.27709 0.0
C3804 C 0.51348 0.25118 0.22627 0.0
C3805 C 0.53013 0.25665 0.23693 0.0
C3806 C 0.49912 0.25483 0.23444 0.0
C3807 C 0.50114 0.26395 0.25341 0.0
C3808 C 0.51761 0.2682 0.26456 0.0
H3809 H 0.41965 0.30996 0.30549 0.0
H3810 H 0.44697 0.29945 0.30202 0.0
C3811 C 0.53203 0.26467 0.25634 0.0
C3812 C 0.48609 0.2701 0.26078 0.0
H3813 H 0.46957 0.30948 0.27322 0.0
C3814 C 0.47142 0.25642 0.26129 0.0
C3815 C 0.48555 0.28949 0.26544 0.0
C3816 C 0.50067 0.30489 0.26437 0.0
C3817 C 0.45608 0.26163 0.26585 0.0
C3818 C 0.45539 0.281 0.26984 0.0
C3819 C 0.47023 0.29465 0.27016 0.0
C3820 C 0.43902 0.28744 0.27208 0.0
C3821 C 0.4406 0.24642 0.26603 0.0
C3822 C 0.42577 0.28458 0.25623 0.0
C3823 C 0.41031 0.29078 0.25805 0.0
C3824 C 0.40778 0.29994 0.27579 0.0
C3825 C 0.42125 0.30311 0.29158 0.0
C3826 C 0.43679 0.29698 0.28969 0.0
H3827 H 0.44436 0.23248 0.26761 0.0
H3828 H 0.43341 0.25008 0.27799 0.0
H3829 H 0.43175 0.24508 0.25214 0.0
H3830 H 0.42744 0.27763 0.24239 0.0
H3831 H 0.40037 0.28846 0.24549 0.0
H3832 H 0.65611 0.53438 0.37038 0.0
H3833 H 0.64305 0.52998 0.3996 0.0
H3834 H 0.60036 0.55489 0.37629 0.0
H3835 H 0.61306 0.55857 0.34657 0.0
H3836 H 0.63584 0.55388 0.42637 0.0
H3837 H 0.57485 0.50736 0.3912 0.0
H3838 H 0.59283 0.51352 0.37839 0.0
H3839 H 0.57815 0.52961 0.38171 0.0
C3840 C 0.64391 0.53887 0.37145 0.0
C3841 C 0.63552 0.5467 0.35616 0.0
C3842 C 0.63646 0.53635 0.38817 0.0
C3843 C 0.62055 0.54177 0.39003 0.0
C3844 C 0.61238 0.55008 0.37497 0.0
H3845 H 0.58083 0.5598 0.49821 0.0
H3846 H 0.59602 0.56266 0.47027 0.0
C3847 C 0.6197 0.55232 0.35806 0.0
C3848 C 0.61277 0.53894 0.40789 0.0
H3849 H 0.576 0.51955 0.42424 0.0
C3850 C 0.62278 0.54627 0.4259 0.0
C3851 C 0.59587 0.52868 0.40734 0.0
C3852 C 0.58487 0.51917 0.38863 0.0
C3853 C 0.61627 0.5439 0.44333 0.0
C3854 C 0.59906 0.5345 0.44272 0.0
C3855 C 0.58915 0.5269 0.42473 0.0
C3856 C 0.59088 0.53263 0.46046 0.0
C3857 C 0.62806 0.55118 0.46219 0.0
C3858 C 0.58266 0.51483 0.46412 0.0
C3859 C 0.57364 0.51322 0.47988 0.0
C3860 C 0.57278 0.52937 0.49228 0.0
C3861 C 0.58142 0.54709 0.48896 0.0
C3862 C 0.59021 0.54873 0.47306 0.0
H3863 H 0.64183 0.55197 0.46042 0.0
H3864 H 0.62626 0.56567 0.46712 0.0
H3865 H 0.62522 0.54207 0.47366 0.0
H3866 H 0.58297 0.50221 0.45458 0.0
H3867 H 0.56707 0.4994 0.48214 0.0
H3868 H 0.30487 0.87628 0.02359 0.0
H3869 H 0.31079 0.8616 0.05311 0.0
H3870 H 0.26292 0.8218 0.0368 0.0
H3871 H 0.25692 0.83634 1.00723 0.0
H3872 H 0.28758 0.86162 0.08024 0.0
H3873 H 0.29732 0.78901 0.05753 0.0
H3874 H 0.29987 0.8077 0.04224 0.0
H3875 H 0.27869 0.79538 0.04423 0.0
C3876 C 0.29584 0.86407 0.02603 0.0
C3877 C 0.28037 0.85751 0.01322 0.0
C3878 C 0.29924 0.85573 0.04289 0.0
C3879 C 0.28733 0.8406 0.04704 0.0
C3880 C 0.27239 0.83328 0.03368 0.0
H3881 H 0.26349 0.78385 0.14433 0.0
H3882 H 0.26457 0.79594 0.11304 0.0
C3883 C 0.26895 0.84165 0.01685 0.0
C3884 C 0.28923 0.83419 0.0664 0.0
H3885 H 0.29099 0.7952 0.08969 0.0
C3886 C 0.28858 0.84717 0.0824 0.0
C3887 C 0.2904 0.81533 0.06902 0.0
C3888 C 0.29177 0.80106 0.05238 0.0
C3889 C 0.28841 0.84159 0.10094 0.0
C3890 C 0.28923 0.82261 0.10351 0.0
C3891 C 0.29029 0.80973 0.08759 0.0
C3892 C 0.28852 0.81572 0.12255 0.0
C3893 C 0.28669 0.85585 0.11745 0.0
C3894 C 0.30162 0.82293 0.13819 0.0
C3895 C 0.30101 0.81611 0.15606 0.0
C3896 C 0.28736 0.80185 0.1585 0.0
C3897 C 0.27421 0.79476 0.14282 0.0
C3898 C 0.27481 0.80163 0.12498 0.0
H3899 H 0.28223 0.86847 0.11221 0.0
H3900 H 0.2775 0.84946 0.12665 0.0
H3901 H 0.29945 0.86066 0.12664 0.0
H3902 H 0.31246 0.83359 0.13647 0.0
H3903 H 0.3115 0.82157 0.16779 0.0
H3904 H 0.97422 0.57309 0.82569 0.0
H3905 H 0.99041 0.57083 0.85754 0.0
H3906 H 0.94562 0.53598 0.87215 0.0
H3907 H 0.92938 0.53835 0.84049 0.0
H3908 H 0.98395 0.58132 0.89625 0.0
H3909 H 0.98328 0.50427 0.8846 0.0
H3910 H 0.97835 0.51771 0.86488 0.0
H3911 H 0.96251 0.51103 0.8802 0.0
C3912 C 0.96776 0.56494 0.83565 0.0
C3913 C 0.95034 0.55592 0.8302 0.0
C3914 C 0.97709 0.56365 0.85402 0.0
C3915 C 0.96952 0.55297 0.86756 0.0
C3916 C 0.9521 0.54405 0.86215 0.0
H3917 H 1.01035 0.52304 0.98359 0.0
H3918 H 0.99241 0.52531 0.95275 0.0
C3919 C 0.9427 0.54554 0.84392 0.0
C3920 C 0.97967 0.55143 0.88728 0.0
H3921 H 0.99468 0.51986 0.91597 0.0
C3922 C 0.98632 0.56784 0.90045 0.0
C3923 C 0.98278 0.53393 0.89331 0.0
C3924 C 0.97651 0.51571 0.88001 0.0
C3925 C 0.99554 0.56727 0.91914 0.0
C3926 C 0.99906 0.5498 0.92506 0.0
C3927 C 0.99226 0.53335 0.91188 0.0
C3928 C 1.00999 0.54839 0.94445 0.0
C3929 C 1.00082 0.58552 0.9326 0.0
C3930 C 0.02621 0.56024 0.95057 0.0
C3931 C 0.03635 0.55914 0.9684 0.0
C3932 C 0.03099 0.54587 0.9809 0.0
C3933 C 1.01495 0.53365 0.9747 0.0
C3934 C 1.00466 0.5349 0.95683 0.0
H3935 H 0.99209 0.59561 0.92913 0.0
H3936 H 1.00074 0.5831 0.94797 0.0
H3937 H 1.01402 0.59231 0.93083 0.0
H3938 H 0.03129 0.57032 0.94139 0.0
H3939 H 0.04865 0.56868 0.9723 0.0
H3940 H 0.29605 0.22055 0.56209 0.0
H3941 H 0.30137 0.23727 0.59502 0.0
H3942 H 0.28343 0.18511 0.6172 0.0
H3943 H 0.27848 0.16827 0.58443 0.0
H3944 H 0.2789 0.24186 0.61984 0.0
H3945 H 0.32826 0.2044 0.65309 0.0
H3946 H 0.3218 0.2024 0.62722 0.0
H3947 H 0.30897 0.18843 0.64183 0.0
C3948 C 0.29339 0.21262 0.57402 0.0
C3949 C 0.28693 0.19307 0.57069 0.0
C3950 C 0.29642 0.2222 0.59283 0.0
C3951 C 0.29309 0.2124 0.60866 0.0
C3952 C 0.28654 0.19289 0.60532 0.0
H3953 H 0.27066 0.2551 0.71937 0.0
H3954 H 0.2704 0.24236 0.68584 0.0
C3955 C 0.2836 0.1833 0.58654 0.0
C3956 C 0.29565 0.2227 0.62853 0.0
H3957 H 0.31476 0.22249 0.67504 0.0
C3958 C 0.28689 0.23774 0.63187 0.0
C3959 C 0.30631 0.21758 0.6442 0.0
C3960 C 0.31702 0.20245 0.64139 0.0
C3961 C 0.28796 0.24731 0.65053 0.0
C3962 C 0.29776 0.24141 0.66638 0.0
C3963 C 0.30707 0.22686 0.66294 0.0
C3964 C 0.29805 0.24967 0.68671 0.0
C3965 C 0.27864 0.26371 0.65303 0.0
C3966 C 0.31374 0.25762 0.69859 0.0
C3967 C 0.31397 0.26477 0.71793 0.0
C3968 C 0.29849 0.26405 0.72578 0.0
C3969 C 0.28282 0.25607 0.71381 0.0
C3970 C 0.28262 0.24886 0.69455 0.0
H3971 H 0.2766 0.27018 0.63939 0.0
H3972 H 0.26576 0.25857 0.65701 0.0
H3973 H 0.28588 0.2748 0.66466 0.0
H3974 H 0.32582 0.25828 0.69289 0.0
H3975 H 0.32628 0.27078 0.72673 0.0
H3976 H 0.62068 0.57125 0.25409 0.0
H3977 H 0.60529 0.56778 0.22096 0.0
H3978 H 0.61001 0.50908 0.21342 0.0
H3979 H 0.62538 0.51241 0.24653 0.0
H3980 H 0.6204 0.5559 0.18775 0.0
H3981 H 0.55849 0.50876 0.19234 0.0
H3982 H 0.57213 0.52237 0.21342 0.0
H3983 H 0.57782 0.50124 0.20248 0.0
C3984 C 0.61819 0.55753 0.24549 0.0
C3985 C 0.62425 0.5421 0.25289 0.0
C3986 C 0.60942 0.55558 0.22658 0.0
C3987 C 0.60639 0.53814 0.21483 0.0
C3988 C 0.61198 0.52258 0.22236 0.0
H3989 H 0.56436 0.50381 0.09272 0.0
H3990 H 0.57602 0.50426 0.12691 0.0
C3991 C 0.62082 0.52453 0.24124 0.0
C3992 C 0.59871 0.53669 0.19422 0.0
H3993 H 0.56374 0.5155 0.16104 0.0
C3994 C 0.60798 0.54714 0.18191 0.0
C3995 C 0.58263 0.52503 0.18664 0.0
C3996 C 0.57207 0.51378 0.19938 0.0
C3997 C 0.60163 0.54621 0.16216 0.0
C3998 C 0.58536 0.53488 0.15462 0.0
C3999 C 0.57618 0.52422 0.16688 0.0
C4000 C 0.57756 0.53435 0.13414 0.0
C4001 C 0.61258 0.55713 0.1495 0.0
C4002 C 0.57419 0.551 0.12701 0.0
C4003 C 0.56767 0.55083 0.10752 0.0
C4004 C 0.56419 0.53392 0.09476 0.0
C4005 C 0.567 0.51709 0.1021 0.0
C4006 C 0.57363 0.51731 0.12164 0.0
H4007 H 0.62641 0.56044 0.15604 0.0
H4008 H 0.61144 0.54912 0.1349 0.0
H4009 H 0.60817 0.57071 0.14774 0.0
H4010 H 0.57672 0.56422 0.13651 0.0
H4011 H 0.56546 0.56402 0.10246 0.0
H4012 H 0.26455 0.87893 0.90525 0.0
H4013 H 0.26098 0.85684 0.87597 0.0
H4014 H 0.22531 0.81692 0.89986 0.0
H4015 H 0.22923 0.83895 0.92968 0.0
H4016 H 0.25139 0.80159 0.88809 0.0
H4017 H 0.22552 0.83897 0.8289 0.0
H4018 H 0.24169 0.85418 0.84643 0.0
H4019 H 0.22177 0.84367 0.85366 0.0
C4020 C 0.25561 0.86565 0.90412 0.0
C4021 C 0.24724 0.86061 0.91976 0.0
C4022 C 0.25341 0.8531 0.88725 0.0
C4023 C 0.2426 0.83538 0.88555 0.0
C4024 C 0.23356 0.83063 0.90081 0.0
H4025 H 0.25436 0.77079 0.77725 0.0
H4026 H 0.23889 0.78168 0.80293 0.0
C4027 C 0.23581 0.84321 0.9178 0.0
C4028 C 0.24301 0.82107 0.86913 0.0
H4029 H 0.2439 0.81699 0.82049 0.0
C4030 C 0.24925 0.80465 0.87323 0.0
C4031 C 0.23986 0.82479 0.84971 0.0
C4032 C 0.23164 0.84124 0.84432 0.0
C4033 C 0.25404 0.79285 0.85862 0.0
C4034 C 0.25292 0.79794 0.8396 0.0
C4035 C 0.24508 0.81331 0.83517 0.0
C4036 C 0.26162 0.78903 0.82477 0.0
C4037 C 0.26088 0.7755 0.86388 0.0
C4038 C 0.27948 0.78944 0.82859 0.0
C4039 C 0.28827 0.78314 0.81404 0.0
C4040 C 0.2794 0.77664 0.79536 0.0
C4041 C 0.26145 0.77565 0.79163 0.0
C4042 C 0.25263 0.78192 0.80622 0.0
H4043 H 0.25493 0.76976 0.87605 0.0
H4044 H 0.2584 0.76425 0.85135 0.0
H4045 H 0.27501 0.77936 0.86871 0.0
H4046 H 0.28676 0.79535 0.84263 0.0
H4047 H 0.30211 0.78397 0.81719 0.0
H4048 H 0.97297 0.55841 0.73606 0.0
H4049 H 0.9871 0.55549 0.70706 0.0
H4050 H 0.93738 0.54265 0.67115 0.0
H4051 H 0.92327 0.54577 0.70011 0.0
H4052 H 0.98757 0.52745 0.67937 0.0
H4053 H 0.96004 0.58139 0.64134 0.0
H4054 H 0.95794 0.57872 0.66626 0.0
H4055 H 0.94381 0.56318 0.64692 0.0
C4056 C 0.96496 0.55509 0.72201 0.0
C4057 C 0.94679 0.55251 0.7208 0.0
C4058 C 0.97315 0.55335 0.70522 0.0
C4059 C 0.96361 0.54916 0.68633 0.0
C4060 C 0.94542 0.54641 0.68515 0.0
H4061 H 0.99202 0.53343 0.56666 0.0
H4062 H 0.97692 0.53594 0.59501 0.0
C4063 C 0.93723 0.54808 0.70194 0.0
C4064 C 0.97262 0.54721 0.66819 0.0
H4065 H 0.97538 0.5623 0.62327 0.0
C4066 C 0.98488 0.53522 0.66722 0.0
C4067 C 0.96939 0.55706 0.65182 0.0
C4068 C 0.95721 0.57095 0.65163 0.0
C4069 C 0.99347 0.53257 0.65077 0.0
C4070 C 0.99038 0.54255 0.63446 0.0
C4071 C 0.97805 0.55449 0.63539 0.0
C4072 C 0.99982 0.54097 0.61661 0.0
C4073 C 1.00541 0.51843 0.65092 0.0
C4074 C 0.01801 0.5432 0.61848 0.0
C4075 C 0.02672 0.54164 0.60213 0.0
C4076 C 0.01778 0.53798 0.58293 0.0
C4077 C 0.9996 0.5361 0.58097 0.0
C4078 C 0.99085 0.53761 0.59739 0.0
H4079 H 1.00199 0.50762 0.66068 0.0
H4080 H 1.00506 0.51107 0.63619 0.0
H4081 H 0.0188 0.52588 0.6564 0.0
H4082 H 0.02567 0.54645 0.63272 0.0
H4083 H 0.04066 0.54348 0.60465 0.0
H4084 H 0.27065 0.21926 0.47973 0.0
H4085 H 0.27243 0.23672 0.45165 0.0
H4086 H 0.28067 0.18694 0.41764 0.0
H4087 H 0.27855 0.16932 0.44554 0.0
H4088 H 0.29961 0.24454 0.43285 0.0
H4089 H 0.24424 0.20383 0.38098 0.0
H4090 H 0.247 0.2012 0.40647 0.0
H4091 H 0.25863 0.18916 0.39039 0.0
C4092 C 0.27262 0.21196 0.46619 0.0
C4093 C 0.27441 0.19289 0.46484 0.0
C4094 C 0.27364 0.22197 0.45015 0.0
C4095 C 0.27643 0.2131 0.4324 0.0
C4096 C 0.27808 0.19399 0.43099 0.0
H4097 H 0.32444 0.26346 0.34268 0.0
H4098 H 0.31635 0.24759 0.37017 0.0
C4099 C 0.27699 0.18396 0.44701 0.0
C4100 C 0.27884 0.22418 0.41583 0.0
H4101 H 0.26515 0.2247 0.36762 0.0
C4102 C 0.29194 0.24029 0.41865 0.0
C4103 C 0.26869 0.21886 0.39733 0.0
C4104 C 0.25373 0.20243 0.39363 0.0
C4105 C 0.29558 0.25076 0.40338 0.0
C4106 C 0.2861 0.24479 0.38463 0.0
C4107 C 0.27255 0.22914 0.38194 0.0
C4108 C 0.29064 0.25414 0.36755 0.0
C4109 C 0.3096 0.26813 0.40748 0.0
C4110 C 0.2787 0.26265 0.35652 0.0
C4111 C 0.2833 0.27171 0.34065 0.0
C4112 C 0.29986 0.27224 0.33552 0.0
C4113 C 0.31164 0.26344 0.34639 0.0
C4114 C 0.30706 0.25441 0.36216 0.0
H4115 H 0.31191 0.27393 0.42305 0.0
H4116 H 0.32182 0.26434 0.40372 0.0
H4117 H 0.3063 0.27936 0.39871 0.0
H4118 H 0.26593 0.26253 0.36036 0.0
H4119 H 0.27401 0.2785 0.3326 0.0
H4120 H 0.38468 0.65792 0.55341 0.0
H4121 H 0.40537 0.64582 0.53521 0.0
H4122 H 0.37212 0.64651 0.4816 0.0
H4123 H 0.35117 0.65877 0.49989 0.0
H4124 H 0.38155 0.61168 0.48622 0.0
H4125 H 0.4396 0.66753 0.50103 0.0
H4126 H 0.43087 0.6639 0.52295 0.0
H4127 H 0.41831 0.67229 0.50342 0.0
C4128 C 0.38188 0.65583 0.53774 0.0
C4129 C 0.36631 0.65917 0.52806 0.0
C4130 C 0.39382 0.64912 0.52733 0.0
C4131 C 0.39043 0.64563 0.50703 0.0
C4132 C 0.37506 0.6494 0.49723 0.0
H4133 H 0.46038 0.57024 0.46957 0.0
H4134 H 0.44097 0.59278 0.46283 0.0
C4135 C 0.36313 0.65632 0.50769 0.0
C4136 C 0.40194 0.63554 0.4968 0.0
H4137 H 0.44484 0.63468 0.49897 0.0
C4138 C 0.39535 0.61694 0.48817 0.0
C4139 C 0.41989 0.64248 0.49915 0.0
C4140 C 0.42753 0.66274 0.50696 0.0
C4141 C 0.40647 0.60439 0.48427 0.0
C4142 C 0.42444 0.61072 0.48912 0.0
C4143 C 0.43099 0.62988 0.49544 0.0
C4144 C 0.43605 0.59714 0.49237 0.0
C4145 C 0.39903 0.58395 0.47702 0.0
C4146 C 0.43944 0.5922 0.51111 0.0
C4147 C 0.45029 0.57939 0.51495 0.0
C4148 C 0.45803 0.57133 0.50012 0.0
C4149 C 0.45447 0.57616 0.48123 0.0
C4150 C 0.44353 0.58907 0.47738 0.0
H4151 H 0.38499 0.58178 0.47153 0.0
H4152 H 0.40582 0.57885 0.46526 0.0
H4153 H 0.40099 0.57524 0.48903 0.0
H4154 H 0.43362 0.59825 0.52279 0.0
H4155 H 0.45257 0.57573 0.52956 0.0
H4156 H 0.86044 0.95744 0.53701 0.0
H4157 H 0.88971 0.97403 0.53586 0.0
H4158 H 0.91015 0.94023 0.57743 0.0
H4159 H 0.88095 0.92314 0.57808 0.0
H4160 H 0.91337 0.99553 0.56241 0.0
H4161 H 0.93978 0.93321 0.53633 0.0
H4162 H 0.91704 0.93226 0.53686 0.0
H4163 H 0.93128 0.93058 0.55855 0.0
C4164 C 0.87118 0.95352 0.54588 0.0
C4165 C 0.8684 0.9389 0.55754 0.0
C4166 C 0.88792 0.96302 0.54521 0.0
C4167 C 0.90224 0.95815 0.55625 0.0
C4168 C 0.89942 0.94389 0.56833 0.0
H4169 H 1.00358 0.03193 0.58036 0.0
H4170 H 0.97514 1.01371 0.58248 0.0
C4171 C 0.88269 0.93423 0.56883 0.0
C4172 C 0.92002 0.96829 0.55535 0.0
H4173 H 0.96012 0.96168 0.54692 0.0
C4174 C 0.92357 0.98812 0.55896 0.0
C4175 C 0.93331 0.95868 0.55054 0.0
C4176 C 0.93015 0.93753 0.54515 0.0
C4177 C 0.93998 0.99856 0.55809 0.0
C4178 C 0.95347 0.98891 0.55409 0.0
C4179 C 0.94988 0.96909 0.55025 0.0
C4180 C 0.97124 0.99913 0.55333 0.0
C4181 C 0.94253 0.01986 0.56096 0.0
C4182 C 0.97897 0.99635 0.53662 0.0
C4183 C 0.99538 1.0065 0.53554 0.0
C4184 C 1.00435 0.01967 0.55112 0.0
C4185 C 0.99686 0.02203 0.56805 0.0
C4186 C 0.98055 1.01173 0.56921 0.0
H4187 H 0.93009 0.02488 0.55802 0.0
H4188 H 0.94823 0.02511 0.57622 0.0
H4189 H 0.95137 0.02621 0.55137 0.0
H4190 H 0.97214 0.98662 0.52423 0.0
H4191 H 1.00086 1.00437 0.52232 0.0
H4192 H 0.93333 0.08214 0.24203 0.0
H4193 H 0.91846 0.10867 0.23684 0.0
H4194 H 0.87968 0.0859 0.27009 0.0
H4195 H 0.89443 0.05925 0.2753 0.0
H4196 H 0.88162 0.10544 0.21951 0.0
H4197 H 0.89825 0.14256 0.29469 0.0
H4198 H 0.91043 0.12573 0.28524 0.0
H4199 H 0.88976 0.11761 0.29213 0.0
C4200 C 0.92167 0.08282 0.2483 0.0
C4201 C 0.91506 0.06866 0.25912 0.0
C4202 C 0.91319 0.09794 0.24528 0.0
C4203 C 0.89809 0.09926 0.25322 0.0
C4204 C 0.89144 0.08518 0.26403 0.0
H4205 H 0.83097 0.18172 0.25587 0.0
H4206 H 0.84542 0.1548 0.26015 0.0
C4207 C 0.89985 0.06997 0.26695 0.0
C4208 C 0.88912 0.11524 0.24989 0.0
H4209 H 0.87921 0.15493 0.27278 0.0
C4210 C 0.8811 0.11632 0.2311 0.0
C4211 C 0.88847 0.12929 0.2651 0.0
C4212 C 0.89727 0.12893 0.28544 0.0
C4213 C 0.87213 0.13099 0.22716 0.0
C4214 C 0.87158 0.14517 0.24236 0.0
C4215 C 0.87966 0.14406 0.26115 0.0
C4216 C 0.86257 0.16122 0.23919 0.0
C4217 C 0.86296 0.13087 0.2069 0.0
C4218 C 0.86747 0.17382 0.22605 0.0
C4219 C 0.85917 0.18919 0.22352 0.0
C4220 C 0.84601 0.19236 0.23431 0.0
C4221 C 0.84118 0.17974 0.24749 0.0
C4222 C 0.84938 0.16433 0.24991 0.0
H4223 H 0.86054 0.11657 0.19854 0.0
H4224 H 0.85043 0.13567 0.20714 0.0
H4225 H 0.87113 0.14062 0.19912 0.0
H4226 H 0.8779 0.17197 0.21797 0.0
H4227 H 0.86334 0.19884 0.21347 0.0
H4228 H 0.80613 0.10778 0.07733 0.0
H4229 H 0.7821 0.08307 0.08141 0.0
H4230 H 0.75001 0.12514 0.08791 0.0
H4231 H 0.77402 0.14981 0.08469 0.0
H4232 H 0.74376 0.09904 0.11161 0.0
H4233 H 0.74353 0.06413 0.03721 0.0
H4234 H 0.76296 0.06542 0.0539 0.0
H4235 H 0.75686 0.08675 0.04643 0.0
C4236 C 0.79402 0.11173 0.07999 0.0
C4237 C 0.79185 0.13066 0.08048 0.0
C4238 C 0.78029 0.09761 0.08216 0.0
C4239 C 0.76415 0.10221 0.08446 0.0
C4240 C 0.76233 0.12124 0.08607 0.0
H4241 H 0.66125 0.05354 0.04483 0.0
H4242 H 0.692 0.06661 0.05012 0.0
C4243 C 0.77607 0.13534 0.08419 0.0
C4244 C 0.74867 0.08743 0.0839 0.0
H4245 H 0.72087 0.05252 0.05344 0.0
C4246 C 0.73883 0.08866 0.09903 0.0
C4247 C 0.74227 0.074 0.06737 0.0
C4248 C 0.75184 0.07251 0.05022 0.0
C4249 C 0.72229 0.0777 0.09759 0.0
C4250 C 0.71571 0.06461 0.08084 0.0
C4251 C 0.726 0.06253 0.06626 0.0
C4252 C 0.69744 0.05483 0.07699 0.0
C4253 C 0.71162 0.08127 0.11341 0.0
C4254 C 0.69034 0.04336 0.09001 0.0
C4255 C 0.6726 0.03629 0.0873 0.0
C4256 C 0.66172 0.04025 0.07129 0.0
C4257 C 0.66914 0.05065 0.05759 0.0
C4258 C 0.68678 0.05795 0.06048 0.0
H4259 H 0.71721 0.09461 0.12305 0.0
H4260 H 0.69822 0.08205 0.10717 0.0
H4261 H 0.71108 0.0695 0.12245 0.0
H4262 H 0.69841 0.04036 0.10257 0.0
H4263 H 0.66738 0.02838 0.09819 0.0
H4264 H 0.22483 0.4811 0.2977 0.0
H4265 H 0.23925 0.4536 0.29657 0.0
H4266 H 0.18984 0.41654 0.28909 0.0
H4267 H 0.17543 0.44401 0.28969 0.0
H4268 H 0.24359 0.42637 0.3171 0.0
H4269 H 0.20773 0.38876 0.24764 0.0
H4270 H 0.20572 0.41253 0.25601 0.0
H4271 H 0.1936 0.39266 0.26492 0.0
C4272 C 0.21693 0.46712 0.29567 0.0
C4273 C 0.19873 0.46521 0.29364 0.0
C4274 C 0.2253 0.45114 0.29506 0.0
C4275 C 0.21597 0.43233 0.29226 0.0
C4276 C 0.19776 0.43046 0.29058 0.0
H4277 H 0.24473 0.317 0.28671 0.0
H4278 H 0.23003 0.34427 0.28792 0.0
C4279 C 0.18938 0.44644 0.29113 0.0
C4280 C 0.22526 0.41502 0.2916 0.0
H4281 H 0.2253 0.37149 0.26622 0.0
C4282 C 0.23953 0.41452 0.3058 0.0
C4283 C 0.22041 0.39898 0.27709 0.0
C4284 C 0.20615 0.39828 0.26045 0.0
C4285 C 0.24851 0.39892 0.30617 0.0
C4286 C 0.24366 0.38291 0.29167 0.0
C4287 C 0.22936 0.38337 0.2775 0.0
C4288 C 0.25308 0.36573 0.29095 0.0
C4289 C 0.26285 0.39962 0.32272 0.0
C4290 C 0.27124 0.3678 0.2919 0.0
C4291 C 0.2798 0.35197 0.29121 0.0
C4292 C 0.27069 0.33313 0.28945 0.0
C4293 C 0.25251 0.33103 0.28824 0.0
C4294 C 0.24395 0.34686 0.28887 0.0
H4295 H 0.26141 0.40924 0.33552 0.0
H4296 H 0.26324 0.38538 0.3272 0.0
H4297 H 0.27537 0.4051 0.3181 0.0
H4298 H 0.27896 0.38178 0.29288 0.0
H4299 H 0.2937 0.35459 0.29198 0.0
H4300 H 0.25728 0.40415 0.03835 0.0
H4301 H 0.2316 0.4188 0.03608 0.0
H4302 H 0.26206 0.47073 0.06683 0.0
H4303 H 0.28787 0.45626 0.06884 0.0
H4304 H 0.21563 0.43425 0.06471 0.0
H4305 H 0.23856 0.48875 0.0189 0.0
H4306 H 0.24912 0.46892 0.02275 0.0
H4307 H 0.25296 0.4891 0.04095 0.0
C4308 C 0.25852 0.41871 0.0446 0.0
C4309 C 0.27463 0.42909 0.05367 0.0
C4310 C 0.24382 0.42705 0.04331 0.0
C4311 C 0.24493 0.44597 0.05099 0.0
C4312 C 0.26095 0.45625 0.0604 0.0
H4313 H 0.17074 0.52126 0.05655 0.0
H4314 H 0.1961 0.50622 0.06085 0.0
C4315 C 0.27567 0.44793 0.06165 0.0
C4316 C 0.22929 0.45481 0.04931 0.0
H4317 H 0.21259 0.49123 0.03133 0.0
C4318 C 0.21494 0.44667 0.05735 0.0
C4319 C 0.22838 0.47101 0.03968 0.0
C4320 C 0.243 0.47988 0.02991 0.0
C4321 C 0.19984 0.45446 0.05631 0.0
C4322 C 0.19896 0.47068 0.04674 0.0
C4323 C 0.2133 0.47883 0.03872 0.0
C4324 C 0.18327 0.4794 0.04478 0.0
C4325 C 0.18507 0.44548 0.06579 0.0
C4326 C 0.16762 0.46934 0.03426 0.0
C4327 C 0.15305 0.47787 0.03184 0.0
C4328 C 0.15385 0.49668 0.03986 0.0
C4329 C 0.16956 0.50667 0.05045 0.0
C4330 C 0.18412 0.49814 0.05281 0.0
H4331 H 0.18929 0.43624 0.07652 0.0
H4332 H 0.17908 0.45642 0.07319 0.0
H4333 H 0.17505 0.43666 0.05453 0.0
H4334 H 0.16673 0.45496 0.02766 0.0
H4335 H 0.14116 0.46974 0.02369 0.0
H4336 H 0.92503 0.96022 0.28663 0.0
H4337 H 0.90562 0.93018 0.28715 0.0
H4338 H 0.86866 0.94504 0.24334 0.0
H4339 H 0.88793 0.9752 0.24281 0.0
H4340 H 0.86859 0.92773 0.29434 0.0
H4341 H 0.87662 0.88974 0.22407 0.0
H4342 H 0.89282 0.90898 0.2371 0.0
H4343 H 0.87331 0.91379 0.22429 0.0
C4344 C 0.91282 0.95704 0.27701 0.0
C4345 C 0.90799 0.97005 0.26468 0.0
C4346 C 0.90177 0.93991 0.27734 0.0
C4347 C 0.88581 0.9354 0.26518 0.0
C4348 C 0.88102 0.94823 0.25268 0.0
H4349 H 0.80221 0.83791 0.2476 0.0
H4350 H 0.82185 0.86723 0.24481 0.0
C4351 C 0.89201 0.96545 0.25245 0.0
C4352 C 0.87384 0.91765 0.26624 0.0
H4353 H 0.85611 0.87428 0.24145 0.0
C4354 C 0.86586 0.91599 0.28282 0.0
C4355 C 0.87024 0.90253 0.25109 0.0
C4356 C 0.87872 0.90366 0.23312 0.0
C4357 C 0.8542 0.89961 0.2846 0.0
C4358 C 0.85084 0.88427 0.26961 0.0
C4359 C 0.85875 0.88601 0.25295 0.0
C4360 C 0.83922 0.86627 0.27103 0.0
C4361 C 0.8453 0.8991 0.30233 0.0
C4362 C 0.84263 0.85585 0.28649 0.0
C4363 C 0.83136 0.83926 0.28821 0.0
C4364 C 0.81666 0.83259 0.27428 0.0
C4365 C 0.81346 0.84276 0.25855 0.0
C4366 C 0.82467 0.85946 0.25692 0.0
H4367 H 0.84525 0.91356 0.30929 0.0
H4368 H 0.83177 0.89139 0.29866 0.0
H4369 H 0.85231 0.89175 0.31309 0.0
H4370 H 0.85396 0.8606 0.29732 0.0
H4371 H 0.83404 0.83182 0.3006 0.0
H4372 H 0.72726 0.06848 0.80859 0.0
H4373 H 0.7424 0.10085 0.80755 0.0
H4374 H 0.69357 0.11816 0.79274 0.0
H4375 H 0.67848 0.08609 0.79447 0.0
H4376 H 0.74642 0.12332 0.78153 0.0
H4377 H 0.71336 0.16031 0.83361 0.0
H4378 H 0.71064 0.13491 0.82998 0.0
H4379 H 0.6982 0.14716 0.81378 0.0
C4380 C 0.7197 0.0792 0.80532 0.0
C4381 C 0.70151 0.07442 0.80185 0.0
C4382 C 0.72843 0.09788 0.80465 0.0
C4383 C 0.71936 0.11259 0.80049 0.0
C4384 C 0.70117 0.10766 0.79668 0.0
H4385 H 0.76867 0.21878 0.7603 0.0
H4386 H 0.75393 0.18687 0.76306 0.0
C4387 C 0.69244 0.08906 0.79751 0.0
C4388 C 0.72886 0.13272 0.79957 0.0
H4389 H 0.7297 0.17978 0.81441 0.0
C4390 C 0.74271 0.13558 0.78884 0.0
C4391 C 0.7246 0.14917 0.80929 0.0
C4392 C 0.71102 0.14776 0.82248 0.0
C4393 C 0.75193 0.15389 0.78724 0.0
C4394 C 0.74708 0.17038 0.79613 0.0
C4395 C 0.73349 0.16751 0.80722 0.0
C4396 C 0.75599 0.19054 0.79434 0.0
C4397 C 0.76721 0.15518 0.77644 0.0
C4398 C 0.76167 0.20422 0.81077 0.0
C4399 C 0.76995 0.22286 0.80915 0.0
C4400 C 0.7729 0.22866 0.79103 0.0
C4401 C 0.76696 0.21507 0.77459 0.0
C4402 C 0.75857 0.19652 0.77619 0.0
H4403 H 0.77276 0.14207 0.77639 0.0
H4404 H 0.76295 0.15699 0.76114 0.0
H4405 H 0.77753 0.16732 0.7829 0.0
H4406 H 0.7599 0.20044 0.82502 0.0
H4407 H 0.77413 0.23269 0.82222 0.0
loop_
_geom_bond_atom_site_label_1
_geom_bond_atom_site_label_2
_geom_bond_distance
_geom_bond_site_symmetry_2
_ccdc_geom_bond_type
In0 O1 2.294 . S
In0 O2 2.326 . S
In0 O6 2.266 1_455 S
In0 O7 2.326 1_455 S
In0 O8 2.266 . S
In0 O9 2.326 . S
In0 O11 2.294 . S
In0 O12 2.326 . S
O1 In0 2.294 . S
O1 C10 1.240 . S
O2 In0 2.326 . S
O2 C10 1.252 . S
C3 O6 1.252 . S
C3 O7 1.260 . S
C4 O11 1.240 . S
C4 O12 1.252 . S
C5 O8 1.252 . S
C5 O9 1.260 . S
O6 In0 2.266 1_655 S
O6 C3 1.252 . S
O7 In0 2.326 1_655 S
O7 C3 1.260 . S
O8 In0 2.266 . S
O8 C5 1.252 . S
O9 In0 2.326 . S
O9 C5 1.260 . S
C10 O1 1.240 . S
C10 O2 1.252 . S
O11 In0 2.294 . S
O11 C4 1.240 . S
O12 In0 2.326 . S
O12 C4 1.252 . S
In13 O14 2.294 . S
In13 O15 2.326 . S
In13 O19 2.266 . S
In13 O20 2.326 . S
In13 O21 2.266 . S
In13 O22 2.326 . S
In13 O24 2.294 . S
In13 O25 2.326 . S
O14 In13 2.294 . S
O14 C23 1.240 . S
O15 In13 2.326 . S
O15 C23 1.252 . S
C16 O19 1.252 . S
C16 O20 1.260 . S
C17 O24 1.240 . S
C17 O25 1.252 . S
C18 O21 1.252 . S
C18 O22 1.260 . S
O19 In13 2.266 . S
O19 C16 1.252 . S
O20 In13 2.326 . S
O20 C16 1.260 . S
O21 In13 2.266 . S
O21 C18 1.252 . S
O22 In13 2.326 . S
O22 C18 1.260 . S
C23 O14 1.240 . S
C23 O15 1.252 . S
O24 In13 2.294 . S
O24 C17 1.240 . S
O25 In13 2.326 . S
O25 C17 1.252 . S
In26 O27 2.294 . S
In26 O28 2.326 . S
In26 O32 2.266 . S
In26 O33 2.326 . S
In26 O34 2.266 . S
In26 O35 2.326 . S
In26 O37 2.294 . S
In26 O38 2.326 . S
O27 In26 2.294 . S
O27 C36 1.240 . S
O28 In26 2.326 . S
O28 C36 1.252 . S
C29 O32 1.252 . S
C29 O33 1.260 . S
C30 O37 1.240 . S
C30 O38 1.252 . S
C31 O34 1.252 . S
C31 O35 1.260 . S
O32 In26 2.266 . S
O32 C29 1.252 . S
O33 In26 2.326 . S
O33 C29 1.260 . S
O34 In26 2.266 . S
O34 C31 1.252 . S
O35 In26 2.326 . S
O35 C31 1.260 . S
C36 O27 1.240 . S
C36 O28 1.252 . S
O37 In26 2.294 . S
O37 C30 1.240 . S
O38 In26 2.326 . S
O38 C30 1.252 . S
In39 O40 2.294 . S
In39 O41 2.326 . S
In39 O45 2.266 . S
In39 O46 2.326 . S
In39 O47 2.266 . S
In39 O48 2.326 . S
In39 O50 2.294 . S
In39 O51 2.326 . S
O40 In39 2.294 . S
O40 C49 1.240 . S
O41 In39 2.326 . S
O41 C49 1.252 . S
C42 O45 1.252 . S
C42 O46 1.260 . S
C43 O50 1.240 . S
C43 O51 1.252 . S
C44 O47 1.252 . S
C44 O48 1.260 . S
O45 In39 2.266 . S
O45 C42 1.252 . S
O46 In39 2.326 . S
O46 C42 1.260 . S
O47 In39 2.266 . S
O47 C44 1.252 . S
O48 In39 2.326 . S
O48 C44 1.260 . S
C49 O40 1.240 . S
C49 O41 1.252 . S
O50 In39 2.294 . S
O50 C43 1.240 . S
O51 In39 2.326 . S
O51 C43 1.252 . S
In52 O53 2.294 . S
In52 O54 2.326 . S
In52 O58 2.266 . S
In52 O59 2.326 . S
In52 O60 2.266 . S
In52 O61 2.326 . S
In52 O63 2.294 . S
In52 O64 2.326 . S
O53 In52 2.294 . S
O53 C62 1.240 . S
O54 In52 2.326 . S
O54 C62 1.252 . S
C55 O58 1.252 . S
C55 O59 1.260 . S
C56 O63 1.240 . S
C56 O64 1.252 . S
C57 O60 1.252 . S
C57 O61 1.260 . S
O58 In52 2.266 . S
O58 C55 1.252 . S
O59 In52 2.326 . S
O59 C55 1.260 . S
O60 In52 2.266 . S
O60 C57 1.252 . S
O61 In52 2.326 . S
O61 C57 1.260 . S
C62 O53 1.240 . S
C62 O54 1.252 . S
O63 In52 2.294 . S
O63 C56 1.240 . S
O64 In52 2.326 . S
O64 C56 1.252 . S
In65 O66 2.294 . S
In65 O67 2.326 . S
In65 O71 2.266 . S
In65 O72 2.326 . S
In65 O73 2.266 . S
In65 O74 2.326 . S
In65 O76 2.294 . S
In65 O77 2.326 . S
O66 In65 2.294 . S
O66 C75 1.240 . S
O67 In65 2.326 . S
O67 C75 1.252 . S
C68 O71 1.252 . S
C68 O72 1.260 . S
C69 O76 1.240 . S
C69 O77 1.252 . S
C70 O73 1.252 . S
C70 O74 1.260 . S
O71 In65 2.266 . S
O71 C68 1.252 . S
O72 In65 2.326 . S
O72 C68 1.260 . S
O73 In65 2.266 . S
O73 C70 1.252 . S
O74 In65 2.326 . S
O74 C70 1.260 . S
C75 O66 1.240 . S
C75 O67 1.252 . S
O76 In65 2.294 . S
O76 C69 1.240 . S
O77 In65 2.326 . S
O77 C69 1.252 . S
In78 O79 2.294 . S
In78 O80 2.326 . S
In78 O84 2.266 . S
In78 O85 2.326 . S
In78 O86 2.266 . S
In78 O87 2.326 . S
In78 O89 2.294 . S
In78 O90 2.326 . S
O79 In78 2.294 . S
O79 C88 1.240 . S
O80 In78 2.326 . S
O80 C88 1.252 . S
C81 O84 1.252 . S
C81 O85 1.260 . S
C82 O89 1.240 . S
C82 O90 1.252 . S
C83 O86 1.252 . S
C83 O87 1.260 . S
O84 In78 2.266 . S
O84 C81 1.252 . S
O85 In78 2.326 . S
O85 C81 1.260 . S
O86 In78 2.266 . S
O86 C83 1.252 . S
O87 In78 2.326 . S
O87 C83 1.260 . S
C88 O79 1.240 . S
C88 O80 1.252 . S
O89 In78 2.294 . S
O89 C82 1.240 . S
O90 In78 2.326 . S
O90 C82 1.252 . S
In91 O92 2.294 . S
In91 O93 2.326 . S
In91 O97 2.266 . S
In91 O98 2.326 . S
In91 O99 2.266 1_455 S
In91 O100 2.326 1_455 S
In91 O102 2.294 . S
In91 O103 2.326 . S
O92 In91 2.294 . S
O92 C101 1.240 . S
O93 In91 2.326 . S
O93 C101 1.252 . S
C94 O97 1.252 . S
C94 O98 1.260 . S
C95 O102 1.240 . S
C95 O103 1.252 . S
C96 O99 1.252 . S
C96 O100 1.260 . S
O97 In91 2.266 . S
O97 C94 1.252 . S
O98 In91 2.326 . S
O98 C94 1.260 . S
O99 In91 2.266 1_655 S
O99 C96 1.252 . S
O100 In91 2.326 1_655 S
O100 C96 1.260 . S
C101 O92 1.240 . S
C101 O93 1.252 . S
O102 In91 2.294 . S
O102 C95 1.240 . S
O103 In91 2.326 . S
O103 C95 1.252 . S
In104 O105 2.294 . S
In104 O106 2.326 . S
In104 O110 2.266 . S
In104 O111 2.326 . S
In104 O112 2.257 1_545 S
In104 O113 2.326 1_545 S
In104 O115 2.294 . S
In104 O116 2.326 . S
O105 In104 2.294 . S
O105 C114 1.240 . S
O106 In104 2.326 . S
O106 C114 1.252 . S
C107 O110 1.252 . S
C107 O111 1.260 . S
C108 O115 1.240 . S
C108 O116 1.252 . S
C109 O112 1.265 . S
C109 O113 1.260 . S
O110 In104 2.266 . S
O110 C107 1.252 . S
O111 In104 2.326 . S
O111 C107 1.260 . S
O112 In104 2.257 1_565 S
O112 C109 1.265 . S
O113 In104 2.326 1_565 S
O113 C109 1.260 . S
C114 O105 1.240 . S
C114 O106 1.252 . S
O115 In104 2.294 . S
O115 C108 1.240 . S
O116 In104 2.326 . S
O116 C108 1.252 . S
In117 O118 2.294 . S
In117 O119 2.326 . S
In117 O123 2.266 . S
In117 O124 2.326 . S
In117 O125 2.266 . S
In117 O126 2.326 . S
In117 O128 2.294 . S
In117 O129 2.326 . S
O118 In117 2.294 . S
O118 C127 1.240 . S
O119 In117 2.326 . S
O119 C127 1.252 . S
C120 O123 1.252 . S
C120 O124 1.260 . S
C121 O128 1.240 . S
C121 O129 1.252 . S
C122 O125 1.252 . S
C122 O126 1.260 . S
O123 In117 2.266 . S
O123 C120 1.252 . S
O124 In117 2.326 . S
O124 C120 1.260 . S
O125 In117 2.266 . S
O125 C122 1.252 . S
O126 In117 2.326 . S
O126 C122 1.260 . S
C127 O118 1.240 . S
C127 O119 1.252 . S
O128 In117 2.294 . S
O128 C121 1.240 . S
O129 In117 2.326 . S
O129 C121 1.252 . S
In130 O131 2.294 . S
In130 O132 2.326 . S
In130 O136 2.266 . S
In130 O137 2.326 . S
In130 O138 2.266 . S
In130 O139 2.326 . S
In130 O141 2.294 . S
In130 O142 2.326 1_545 S
O131 In130 2.294 . S
O131 C140 1.240 . S
O132 In130 2.326 . S
O132 C140 1.252 . S
C133 O136 1.252 . S
C133 O137 1.260 . S
C134 O141 1.240 1_565 S
C134 O142 1.252 . S
C135 O138 1.252 . S
C135 O139 1.260 . S
O136 In130 2.266 . S
O136 C133 1.252 . S
O137 In130 2.326 . S
O137 C133 1.260 . S
O138 In130 2.266 . S
O138 C135 1.252 . S
O139 In130 2.326 . S
O139 C135 1.260 . S
C140 O131 1.240 . S
C140 O132 1.252 . S
O141 In130 2.294 . S
O141 C134 1.240 1_545 S
O142 In130 2.326 1_565 S
O142 C134 1.252 . S
In143 O144 2.296 . S
In143 O145 2.329 . S
In143 O149 2.264 1_554 S
In143 O150 2.322 1_554 S
In143 O151 2.261 1_554 S
In143 O152 2.325 1_554 S
In143 O154 2.294 . S
In143 O155 2.322 . S
O144 In143 2.296 . S
O144 C153 1.240 . S
O145 In143 2.329 . S
O145 C153 1.252 . S
C146 O149 1.252 . S
C146 O150 1.260 . S
C147 O154 1.240 . S
C147 O155 1.253 . S
C148 O151 1.252 . S
C148 O152 1.260 . S
O149 In143 2.264 1_556 S
O149 C146 1.252 . S
O150 In143 2.322 1_556 S
O150 C146 1.260 . S
O151 In143 2.261 1_556 S
O151 C148 1.252 . S
O152 In143 2.325 1_556 S
O152 C148 1.260 . S
C153 O144 1.240 . S
C153 O145 1.252 . S
O154 In143 2.294 . S
O154 C147 1.240 . S
O155 In143 2.322 . S
O155 C147 1.253 . S
In156 O157 2.294 . S
In156 O158 2.326 . S
In156 O162 2.266 . S
In156 O163 2.326 1_554 S
In156 O164 2.266 . S
In156 O165 2.326 . S
In156 O167 2.294 . S
In156 O168 2.326 . S
O157 In156 2.294 . S
O157 C166 1.240 . S
O158 In156 2.326 . S
O158 C166 1.252 . S
C159 O162 1.252 1_556 S
C159 O163 1.260 . S
C160 O167 1.240 . S
C160 O168 1.252 . S
C161 O164 1.252 . S
C161 O165 1.260 . S
O162 In156 2.266 . S
O162 C159 1.252 1_554 S
O163 In156 2.326 1_556 S
O163 C159 1.260 . S
O164 In156 2.266 . S
O164 C161 1.252 . S
O165 In156 2.326 . S
O165 C161 1.260 . S
C166 O157 1.240 . S
C166 O158 1.252 . S
O167 In156 2.294 . S
O167 C160 1.240 . S
O168 In156 2.326 . S
O168 C160 1.252 . S
In169 O170 2.294 . S
In169 O171 2.326 . S
In169 O175 2.266 . S
In169 O176 2.326 . S
In169 O177 2.266 . S
In169 O178 2.326 . S
In169 O180 2.294 . S
In169 O181 2.326 . S
O170 In169 2.294 . S
O170 C179 1.240 . S
O171 In169 2.326 . S
O171 C179 1.252 . S
C172 O175 1.252 . S
C172 O176 1.260 . S
C173 O180 1.240 . S
C173 O181 1.252 . S
C174 O177 1.252 . S
C174 O178 1.260 . S
O175 In169 2.266 . S
O175 C172 1.252 . S
O176 In169 2.326 . S
O176 C172 1.260 . S
O177 In169 2.266 . S
O177 C174 1.252 . S
O178 In169 2.326 . S
O178 C174 1.260 . S
C179 O170 1.240 . S
C179 O171 1.252 . S
O180 In169 2.294 . S
O180 C173 1.240 . S
O181 In169 2.326 . S
O181 C173 1.252 . S
In182 O183 2.294 . S
In182 O184 2.326 . S
In182 O188 2.266 . S
In182 O189 2.326 . S
In182 O190 2.266 . S
In182 O191 2.326 . S
In182 O193 2.294 . S
In182 O194 2.326 . S
O183 In182 2.294 . S
O183 C192 1.240 . S
O184 In182 2.326 . S
O184 C192 1.252 . S
C185 O188 1.252 . S
C185 O189 1.260 . S
C186 O193 1.240 . S
C186 O194 1.252 . S
C187 O190 1.252 . S
C187 O191 1.260 . S
O188 In182 2.266 . S
O188 C185 1.252 . S
O189 In182 2.326 . S
O189 C185 1.260 . S
O190 In182 2.266 . S
O190 C187 1.252 . S
O191 In182 2.326 . S
O191 C187 1.260 . S
C192 O183 1.240 . S
C192 O184 1.252 . S
O193 In182 2.294 . S
O193 C186 1.240 . S
O194 In182 2.326 . S
O194 C186 1.252 . S
In195 O196 2.294 . S
In195 O197 2.326 . S
In195 O201 2.266 . S
In195 O202 2.326 . S
In195 O203 2.266 . S
In195 O204 2.326 . S
In195 O206 2.294 . S
In195 O207 2.326 . S
O196 In195 2.294 . S
O196 C205 1.240 . S
O197 In195 2.326 . S
O197 C205 1.252 . S
C198 O201 1.252 . S
C198 O202 1.260 . S
C199 O206 1.240 . S
C199 O207 1.252 . S
C200 O203 1.252 . S
C200 O204 1.260 . S
O201 In195 2.266 . S
O201 C198 1.252 . S
O202 In195 2.326 . S
O202 C198 1.260 . S
O203 In195 2.266 . S
O203 C200 1.252 . S
O204 In195 2.326 . S
O204 C200 1.260 . S
C205 O196 1.240 . S
C205 O197 1.252 . S
O206 In195 2.294 . S
O206 C199 1.240 . S
O207 In195 2.326 . S
O207 C199 1.252 . S
In208 O209 2.294 . S
In208 O210 2.326 . S
In208 O214 2.266 . S
In208 O215 2.326 . S
In208 O216 2.266 1_545 S
In208 O217 2.326 1_545 S
In208 O219 2.294 . S
In208 O220 2.326 . S
O209 In208 2.294 . S
O209 C218 1.240 . S
O210 In208 2.326 . S
O210 C218 1.252 . S
C211 O214 1.252 . S
C211 O215 1.260 . S
C212 O219 1.240 . S
C212 O220 1.252 . S
C213 O216 1.252 . S
C213 O217 1.260 . S
O214 In208 2.266 . S
O214 C211 1.252 . S
O215 In208 2.326 . S
O215 C211 1.260 . S
O216 In208 2.266 1_565 S
O216 C213 1.252 . S
O217 In208 2.326 1_565 S
O217 C213 1.260 . S
C218 O209 1.240 . S
C218 O210 1.252 . S
O219 In208 2.294 . S
O219 C212 1.240 . S
O220 In208 2.326 . S
O220 C212 1.252 . S
In221 O222 2.294 . S
In221 O223 2.326 . S
In221 O227 2.266 . S
In221 O228 2.326 . S
In221 O229 2.266 . S
In221 O230 2.326 . S
In221 O232 2.294 . S
In221 O233 2.326 . S
O222 In221 2.294 . S
O222 C231 1.240 . S
O223 In221 2.326 . S
O223 C231 1.252 . S
C224 O227 1.252 . S
C224 O228 1.260 . S
C225 O232 1.240 . S
C225 O233 1.252 . S
C226 O229 1.252 . S
C226 O230 1.260 . S
O227 In221 2.266 . S
O227 C224 1.252 . S
O228 In221 2.326 . S
O228 C224 1.260 . S
O229 In221 2.266 . S
O229 C226 1.252 . S
O230 In221 2.326 . S
O230 C226 1.260 . S
C231 O222 1.240 . S
C231 O223 1.252 . S
O232 In221 2.294 . S
O232 C225 1.240 . S
O233 In221 2.326 . S
O233 C225 1.252 . S
In234 O235 2.294 . S
In234 O236 2.326 . S
In234 O240 2.266 . S
In234 O241 2.326 . S
In234 O242 2.266 . S
In234 O243 2.326 . S
In234 O245 2.294 . S
In234 O246 2.326 . S
O235 In234 2.294 . S
O235 C244 1.240 . S
O236 In234 2.326 . S
O236 C244 1.252 . S
C237 O240 1.252 . S
C237 O241 1.260 . S
C238 O245 1.240 . S
C238 O246 1.252 . S
C239 O242 1.252 . S
C239 O243 1.260 . S
O240 In234 2.266 . S
O240 C237 1.252 . S
O241 In234 2.326 . S
O241 C237 1.260 . S
O242 In234 2.266 . S
O242 C239 1.252 . S
O243 In234 2.326 . S
O243 C239 1.260 . S
C244 O235 1.240 . S
C244 O236 1.252 . S
O245 In234 2.294 . S
O245 C238 1.240 . S
O246 In234 2.326 . S
O246 C238 1.252 . S
In247 O248 2.294 1_545 S
In247 O249 2.326 1_545 S
In247 O253 2.266 . S
In247 O254 2.326 . S
In247 O255 2.266 . S
In247 O256 2.326 . S
In247 O258 2.294 . S
In247 O259 2.326 . S
O248 In247 2.294 1_565 S
O248 C257 1.240 . S
O249 In247 2.326 1_565 S
O249 C257 1.252 . S
C250 O253 1.252 . S
C250 O254 1.260 . S
C251 O258 1.240 . S
C251 O259 1.252 . S
C252 O255 1.252 . S
C252 O256 1.260 . S
O253 In247 2.266 . S
O253 C250 1.252 . S
O254 In247 2.326 . S
O254 C250 1.260 . S
O255 In247 2.266 . S
O255 C252 1.252 . S
O256 In247 2.326 . S
O256 C252 1.260 . S
C257 O248 1.240 . S
C257 O249 1.252 . S
O258 In247 2.294 . S
O258 C251 1.240 . S
O259 In247 2.326 . S
O259 C251 1.252 . S
In260 O261 2.294 . S
In260 O262 2.326 . S
In260 O266 2.266 . S
In260 O267 2.326 . S
In260 O268 2.266 . S
In260 O269 2.326 1_554 S
In260 O271 2.294 . S
In260 O272 2.326 . S
O261 In260 2.294 . S
O261 C270 1.240 . S
O262 In260 2.326 . S
O262 C270 1.252 . S
C263 O266 1.252 . S
C263 O267 1.260 . S
C264 O271 1.240 . S
C264 O272 1.252 . S
C265 O268 1.252 1_556 S
C265 O269 1.260 . S
O266 In260 2.266 . S
O266 C263 1.252 . S
O267 In260 2.326 . S
O267 C263 1.260 . S
O268 In260 2.266 . S
O268 C265 1.252 1_554 S
O269 In260 2.326 1_556 S
O269 C265 1.260 . S
C270 O261 1.240 . S
C270 O262 1.252 . S
O271 In260 2.294 . S
O271 C264 1.240 . S
O272 In260 2.326 . S
O272 C264 1.252 . S
In273 O274 2.294 . S
In273 O275 2.326 . S
In273 O279 2.266 . S
In273 O280 2.326 . S
In273 O281 2.266 . S
In273 O282 2.326 . S
In273 O284 2.294 . S
In273 O285 2.326 . S
O274 In273 2.294 . S
O274 C283 1.240 . S
O275 In273 2.326 . S
O275 C283 1.252 . S
C276 O279 1.252 . S
C276 O280 1.260 . S
C277 O284 1.240 . S
C277 O285 1.252 . S
C278 O281 1.252 . S
C278 O282 1.260 . S
O279 In273 2.266 . S
O279 C276 1.252 . S
O280 In273 2.326 . S
O280 C276 1.260 . S
O281 In273 2.266 . S
O281 C278 1.252 . S
O282 In273 2.326 . S
O282 C278 1.260 . S
C283 O274 1.240 . S
C283 O275 1.252 . S
O284 In273 2.294 . S
O284 C277 1.240 . S
O285 In273 2.326 . S
O285 C277 1.252 . S
In286 O287 2.294 . S
In286 O288 2.326 . S
In286 O292 2.266 . S
In286 O293 2.326 . S
In286 O294 2.266 . S
In286 O295 2.326 . S
In286 O297 2.294 . S
In286 O298 2.326 . S
O287 In286 2.294 . S
O287 C296 1.240 . S
O288 In286 2.326 . S
O288 C296 1.252 . S
C289 O292 1.252 . S
C289 O293 1.260 . S
C290 O297 1.240 . S
C290 O298 1.252 . S
C291 O294 1.252 . S
C291 O295 1.260 . S
O292 In286 2.266 . S
O292 C289 1.252 . S
O293 In286 2.326 . S
O293 C289 1.260 . S
O294 In286 2.266 . S
O294 C291 1.252 . S
O295 In286 2.326 . S
O295 C291 1.260 . S
C296 O287 1.240 . S
C296 O288 1.252 . S
O297 In286 2.294 . S
O297 C290 1.240 . S
O298 In286 2.326 . S
O298 C290 1.252 . S
In299 O300 2.294 . S
In299 O301 2.326 . S
In299 O305 2.266 . S
In299 O306 2.326 . S
In299 O307 2.266 . S
In299 O308 2.326 . S
In299 O310 2.294 . S
In299 O311 2.326 . S
O300 In299 2.294 . S
O300 C309 1.240 . S
O301 In299 2.326 . S
O301 C309 1.252 . S
C302 O305 1.252 . S
C302 O306 1.260 . S
C303 O310 1.240 . S
C303 O311 1.252 . S
C304 O307 1.252 . S
C304 O308 1.260 . S
O305 In299 2.266 . S
O305 C302 1.252 . S
O306 In299 2.326 . S
O306 C302 1.260 . S
O307 In299 2.266 . S
O307 C304 1.252 . S
O308 In299 2.326 . S
O308 C304 1.260 . S
C309 O300 1.240 . S
C309 O301 1.252 . S
O310 In299 2.294 . S
O310 C303 1.240 . S
O311 In299 2.326 . S
O311 C303 1.252 . S
Tb312 C314 2.809 1_455 S
Tb312 O332 2.484 . S
Tb312 O333 2.440 . S
Tb312 O334 2.658 . S
Tb312 O335 2.401 1_554 S
Tb312 O336 2.378 . S
Tb312 O340 2.325 . S
Tb312 O343 2.288 1_545 S
Tb313 C323 2.809 . S
Tb313 O334 2.325 . S
Tb313 O337 2.341 . S
Tb313 O338 2.484 . S
Tb313 O339 2.440 . S
Tb313 O340 2.658 . S
Tb313 O341 2.409 . S
Tb313 O342 2.378 . S
C314 Tb312 2.809 1_655 S
C314 C315 1.514 . S
C314 O332 1.248 1_655 S
C314 O333 1.266 1_655 S
C315 C314 1.514 . S
C315 C316 1.359 . S
C315 C320 1.348 . S
C316 C315 1.359 . S
C316 C317 1.380 . S
C316 H344 0.929 . S
C317 C316 1.380 . S
C317 C318 1.347 . S
C317 H345 0.931 . S
C318 C317 1.347 . S
C318 C319 1.365 . S
C319 C318 1.365 . S
C319 C320 1.408 . S
C319 H346 0.935 1_554 S
C320 C315 1.348 . S
C320 C319 1.408 . S
C320 H347 0.930 1_554 S
C321 O334 1.281 . S
C321 O335 1.252 1_554 S
C322 O336 1.236 . S
C322 O337 1.266 . S
C323 Tb313 2.809 . S
C323 C324 1.514 . S
C323 O338 1.248 . S
C323 O339 1.266 . S
C324 C323 1.514 . S
C324 C325 1.359 1_545 S
C324 C329 1.348 . S
C325 C324 1.359 1_565 S
C325 C326 1.380 . S
C325 H348 0.929 . S
C326 C325 1.380 . S
C326 C327 1.347 . S
C326 H349 0.931 . S
C327 C326 1.347 . S
C327 C328 1.369 . S
C328 C327 1.369 . S
C328 C329 1.408 1_565 S
C328 H350 0.930 . S
C329 C324 1.348 . S
C329 C328 1.408 1_545 S
C329 H351 0.930 . S
C330 O340 1.281 . S
C330 O341 1.254 . S
C331 O342 1.236 1_565 S
C331 O343 1.289 . S
O332 Tb312 2.484 . S
O332 C314 1.248 1_455 S
O333 Tb312 2.440 . S
O333 C314 1.266 1_455 S
O334 Tb312 2.658 . S
O334 Tb313 2.325 . S
O334 C321 1.281 . S
O335 Tb312 2.401 1_556 S
O335 C321 1.252 1_556 S
O336 Tb312 2.378 . S
O336 C322 1.236 . S
O337 Tb313 2.341 . S
O337 C322 1.266 . S
O338 Tb313 2.484 . S
O338 C323 1.248 . S
O339 Tb313 2.440 . S
O339 C323 1.266 . S
O340 Tb312 2.325 . S
O340 Tb313 2.658 . S
O340 C330 1.281 . S
O341 Tb313 2.409 . S
O341 C330 1.254 . S
O342 Tb313 2.378 . S
O342 C331 1.236 1_545 S
O343 Tb312 2.288 1_565 S
O343 C331 1.289 . S
H344 C316 0.929 . S
H345 C317 0.931 . S
H346 C319 0.935 1_556 S
H347 C320 0.930 1_556 S
H348 C325 0.929 . S
H349 C326 0.931 . S
H350 C328 0.930 . S
H351 C329 0.930 . S
Tb352 C354 2.809 . S
Tb352 O372 2.484 . S
Tb352 O373 2.440 . S
Tb352 O374 2.658 . S
Tb352 O375 2.409 . S
Tb352 O376 2.378 . S
Tb352 O380 2.325 . S
Tb352 O383 2.341 . S
Tb353 C363 2.809 . S
Tb353 O374 2.325 . S
Tb353 O377 2.341 . S
Tb353 O378 2.484 . S
Tb353 O379 2.440 . S
Tb353 O380 2.658 . S
Tb353 O381 2.409 . S
Tb353 O382 2.378 . S
C354 Tb352 2.809 . S
C354 C355 1.514 . S
C354 O372 1.248 . S
C354 O373 1.266 . S
C355 C354 1.514 . S
C355 C356 1.359 . S
C355 C360 1.348 . S
C356 C355 1.359 . S
C356 C357 1.380 . S
C356 H384 0.929 . S
C357 C356 1.380 . S
C357 C358 1.347 . S
C357 H385 0.931 . S
C358 C357 1.347 . S
C358 C359 1.369 . S
C359 C358 1.369 . S
C359 C360 1.408 . S
C359 H386 0.930 . S
C360 C355 1.348 . S
C360 C359 1.408 . S
C360 H387 0.930 . S
C361 O374 1.281 . S
C361 O375 1.254 . S
C362 O376 1.236 . S
C362 O377 1.266 . S
C363 Tb353 2.809 . S
C363 C364 1.514 . S
C363 O378 1.248 . S
C363 O379 1.266 . S
C364 C363 1.514 . S
C364 C365 1.359 . S
C364 C369 1.348 . S
C365 C364 1.359 . S
C365 C366 1.380 . S
C365 H388 0.929 . S
C366 C365 1.380 . S
C366 C367 1.347 . S
C366 H389 0.931 . S
C367 C366 1.347 . S
C367 C368 1.369 . S
C368 C367 1.369 . S
C368 C369 1.408 . S
C368 H390 0.930 . S
C369 C364 1.348 . S
C369 C368 1.408 . S
C369 H391 0.930 . S
C370 O380 1.281 . S
C370 O381 1.254 . S
C371 O382 1.236 . S
C371 O383 1.266 . S
O372 Tb352 2.484 . S
O372 C354 1.248 . S
O373 Tb352 2.440 . S
O373 C354 1.266 . S
O374 Tb352 2.658 . S
O374 Tb353 2.325 . S
O374 C361 1.281 . S
O375 Tb352 2.409 . S
O375 C361 1.254 . S
O376 Tb352 2.378 . S
O376 C362 1.236 . S
O377 Tb353 2.341 . S
O377 C362 1.266 . S
O378 Tb353 2.484 . S
O378 C363 1.248 . S
O379 Tb353 2.440 . S
O379 C363 1.266 . S
O380 Tb352 2.325 . S
O380 Tb353 2.658 . S
O380 C370 1.281 . S
O381 Tb353 2.409 . S
O381 C370 1.254 . S
O382 Tb353 2.378 . S
O382 C371 1.236 . S
O383 Tb352 2.341 . S
O383 C371 1.266 . S
H384 C356 0.929 . S
H385 C357 0.931 . S
H386 C359 0.930 . S
H387 C360 0.930 . S
H388 C365 0.929 . S
H389 C366 0.931 . S
H390 C368 0.930 . S
H391 C369 0.930 . S
Tb392 C394 2.809 1_545 S
Tb392 O412 2.484 1_545 S
Tb392 O413 2.440 . S
Tb392 O414 2.658 . S
Tb392 O415 2.409 . S
Tb392 O416 2.378 1_545 S
Tb392 O420 2.325 . S
Tb392 O423 2.341 . S
Tb393 C403 2.809 . S
Tb393 O414 2.325 . S
Tb393 O417 2.341 1_545 S
Tb393 O418 2.484 . S
Tb393 O419 2.440 . S
Tb393 O420 2.658 . S
Tb393 O421 2.409 . S
Tb393 O422 2.378 . S
C394 Tb392 2.809 1_565 S
C394 C395 1.514 . S
C394 O412 1.248 . S
C394 O413 1.266 1_565 S
C395 C394 1.514 . S
C395 C396 1.359 . S
C395 C400 1.348 . S
C396 C395 1.359 . S
C396 C397 1.380 . S
C396 H424 0.929 . S
C397 C396 1.380 . S
C397 C398 1.347 . S
C397 H425 0.931 . S
C398 C397 1.347 . S
C398 C399 1.369 . S
C399 C398 1.369 . S
C399 C400 1.408 . S
C399 H426 0.930 . S
C400 C395 1.348 . S
C400 C399 1.408 . S
C400 H427 0.930 . S
C401 O414 1.281 . S
C401 O415 1.254 . S
C402 O416 1.236 . S
C402 O417 1.266 . S
C403 Tb393 2.809 . S
C403 C404 1.514 . S
C403 O418 1.248 . S
C403 O419 1.266 . S
C404 C403 1.514 . S
C404 C405 1.359 . S
C404 C409 1.348 . S
C405 C404 1.359 . S
C405 C406 1.380 . S
C405 H428 0.929 . S
C406 C405 1.380 . S
C406 C407 1.347 . S
C406 H429 0.931 . S
C407 C406 1.347 . S
C407 C408 1.369 . S
C408 C407 1.369 . S
C408 C409 1.408 . S
C408 H430 0.930 . S
C409 C404 1.348 . S
C409 C408 1.408 . S
C409 H431 0.930 . S
C410 O420 1.281 . S
C410 O421 1.254 . S
C411 O422 1.236 . S
C411 O423 1.266 . S
O412 Tb392 2.484 1_565 S
O412 C394 1.248 . S
O413 Tb392 2.440 . S
O413 C394 1.266 1_545 S
O414 Tb392 2.658 . S
O414 Tb393 2.325 . S
O414 C401 1.281 . S
O415 Tb392 2.409 . S
O415 C401 1.254 . S
O416 Tb392 2.378 1_565 S
O416 C402 1.236 . S
O417 Tb393 2.341 1_565 S
O417 C402 1.266 . S
O418 Tb393 2.484 . S
O418 C403 1.248 . S
O419 Tb393 2.440 . S
O419 C403 1.266 . S
O420 Tb392 2.325 . S
O420 Tb393 2.658 . S
O420 C410 1.281 . S
O421 Tb393 2.409 . S
O421 C410 1.254 . S
O422 Tb393 2.378 . S
O422 C411 1.236 . S
O423 Tb392 2.341 . S
O423 C411 1.266 . S
H424 C396 0.929 . S
H425 C397 0.931 . S
H426 C399 0.930 . S
H427 C400 0.930 . S
H428 C405 0.929 . S
H429 C406 0.931 . S
H430 C408 0.930 . S
H431 C409 0.930 . S
Tb432 C434 2.809 . S
Tb432 O452 2.484 . S
Tb432 O453 2.440 . S
Tb432 O454 2.658 . S
Tb432 O455 2.409 . S
Tb432 O456 2.378 . S
Tb432 O460 2.325 . S
Tb432 O463 2.341 . S
Tb433 C443 2.809 . S
Tb433 O454 2.325 . S
Tb433 O457 2.341 . S
Tb433 O458 2.484 . S
Tb433 O459 2.440 . S
Tb433 O460 2.658 . S
Tb433 O461 2.409 . S
Tb433 O462 2.378 . S
C434 Tb432 2.809 . S
C434 C435 1.514 . S
C434 O452 1.248 . S
C434 O453 1.266 . S
C435 C434 1.514 . S
C435 C436 1.359 . S
C435 C440 1.348 . S
C436 C435 1.359 . S
C436 C437 1.380 . S
C436 H464 0.929 . S
C437 C436 1.380 . S
C437 C438 1.347 . S
C437 H465 0.931 . S
C438 C437 1.347 . S
C438 C439 1.369 . S
C439 C438 1.369 . S
C439 C440 1.408 . S
C439 H466 0.930 . S
C440 C435 1.348 . S
C440 C439 1.408 . S
C440 H467 0.930 . S
C441 O454 1.281 . S
C441 O455 1.254 . S
C442 O456 1.236 . S
C442 O457 1.266 . S
C443 Tb433 2.809 . S
C443 C444 1.514 . S
C443 O458 1.248 . S
C443 O459 1.266 . S
C444 C443 1.514 . S
C444 C445 1.359 . S
C444 C449 1.348 . S
C445 C444 1.359 . S
C445 C446 1.380 . S
C445 H468 0.929 . S
C446 C445 1.380 . S
C446 C447 1.347 . S
C446 H469 0.931 . S
C447 C446 1.347 . S
C447 C448 1.369 . S
C448 C447 1.369 . S
C448 C449 1.408 . S
C448 H470 0.930 . S
C449 C444 1.348 . S
C449 C448 1.408 . S
C449 H471 0.930 . S
C450 O460 1.281 . S
C450 O461 1.254 . S
C451 O462 1.236 . S
C451 O463 1.266 . S
O452 Tb432 2.484 . S
O452 C434 1.248 . S
O453 Tb432 2.440 . S
O453 C434 1.266 . S
O454 Tb432 2.658 . S
O454 Tb433 2.325 . S
O454 C441 1.281 . S
O455 Tb432 2.409 . S
O455 C441 1.254 . S
O456 Tb432 2.378 . S
O456 C442 1.236 . S
O457 Tb433 2.341 . S
O457 C442 1.266 . S
O458 Tb433 2.484 . S
O458 C443 1.248 . S
O459 Tb433 2.440 . S
O459 C443 1.266 . S
O460 Tb432 2.325 . S
O460 Tb433 2.658 . S
O460 C450 1.281 . S
O461 Tb433 2.409 . S
O461 C450 1.254 . S
O462 Tb433 2.378 . S
O462 C451 1.236 . S
O463 Tb432 2.341 . S
O463 C451 1.266 . S
H464 C436 0.929 . S
H465 C437 0.931 . S
H466 C439 0.930 . S
H467 C440 0.930 . S
H468 C445 0.929 . S
H469 C446 0.931 . S
H470 C448 0.930 . S
H471 C449 0.930 . S
Tb472 C474 2.809 . S
Tb472 O492 2.484 . S
Tb472 O493 2.440 . S
Tb472 O494 2.672 . S
Tb472 O495 2.409 . S
Tb472 O496 2.378 . S
Tb472 O500 2.325 . S
Tb472 O503 2.341 . S
Tb473 C483 2.809 . S
Tb473 O494 2.318 1_565 S
Tb473 O497 2.341 . S
Tb473 O498 2.484 . S
Tb473 O499 2.440 . S
Tb473 O500 2.658 1_565 S
Tb473 O501 2.409 1_565 S
Tb473 O502 2.378 1_565 S
C474 Tb472 2.809 . S
C474 C475 1.514 . S
C474 O492 1.248 . S
C474 O493 1.266 . S
C475 C474 1.514 . S
C475 C476 1.359 . S
C475 C480 1.348 . S
C476 C475 1.359 . S
C476 C477 1.380 . S
C476 H504 0.929 . S
C477 C476 1.380 . S
C477 C478 1.347 . S
C477 H505 0.931 . S
C478 C477 1.347 . S
C478 C479 1.369 . S
C479 C478 1.369 . S
C479 C480 1.408 . S
C479 H506 0.930 1_455 S
C480 C475 1.348 . S
C480 C479 1.408 . S
C480 H507 0.930 . S
C481 O494 1.285 . S
C481 O495 1.254 . S
C482 O496 1.236 . S
C482 O497 1.266 1_545 S
C483 Tb473 2.809 . S
C483 C484 1.514 . S
C483 O498 1.248 . S
C483 O499 1.266 . S
C484 C483 1.514 . S
C484 C485 1.359 . S
C484 C489 1.348 . S
C485 C484 1.359 . S
C485 C486 1.380 . S
C485 H508 0.929 . S
C486 C485 1.380 . S
C486 C487 1.347 . S
C486 H509 0.931 . S
C487 C486 1.347 . S
C487 C488 1.369 . S
C488 C487 1.369 . S
C488 C489 1.408 . S
C488 H510 0.930 . S
C489 C484 1.348 . S
C489 C488 1.408 . S
C489 H511 0.930 . S
C490 O500 1.281 . S
C490 O501 1.254 . S
C491 O502 1.236 . S
C491 O503 1.266 . S
O492 Tb472 2.484 . S
O492 C474 1.248 . S
O493 Tb472 2.440 . S
O493 C474 1.266 . S
O494 Tb472 2.672 . S
O494 Tb473 2.318 1_545 S
O494 C481 1.285 . S
O495 Tb472 2.409 . S
O495 C481 1.254 . S
O496 Tb472 2.378 . S
O496 C482 1.236 . S
O497 Tb473 2.341 . S
O497 C482 1.266 1_565 S
O498 Tb473 2.484 . S
O498 C483 1.248 . S
O499 Tb473 2.440 . S
O499 C483 1.266 . S
O500 Tb472 2.325 . S
O500 Tb473 2.658 1_545 S
O500 C490 1.281 . S
O501 Tb473 2.409 1_545 S
O501 C490 1.254 . S
O502 Tb473 2.378 1_545 S
O502 C491 1.236 . S
O503 Tb472 2.341 . S
O503 C491 1.266 . S
H504 C476 0.929 . S
H505 C477 0.931 . S
H506 C479 0.930 1_655 S
H507 C480 0.930 . S
H508 C485 0.929 . S
H509 C486 0.931 . S
H510 C488 0.930 . S
H511 C489 0.930 . S
Tb512 C514 2.809 . S
Tb512 O532 2.484 . S
Tb512 O533 2.440 . S
Tb512 O534 2.658 . S
Tb512 O535 2.409 . S
Tb512 O536 2.378 . S
Tb512 O540 2.325 . S
Tb512 O543 2.341 . S
Tb513 C523 2.809 . S
Tb513 O534 2.325 . S
Tb513 O537 2.341 . S
Tb513 O538 2.484 . S
Tb513 O539 2.440 . S
Tb513 O540 2.658 . S
Tb513 O541 2.409 . S
Tb513 O542 2.378 . S
C514 Tb512 2.809 . S
C514 C515 1.514 . S
C514 O532 1.248 . S
C514 O533 1.266 . S
C515 C514 1.514 . S
C515 C516 1.359 . S
C515 C520 1.348 . S
C516 C515 1.359 . S
C516 C517 1.380 . S
C516 H544 0.929 . S
C517 C516 1.380 . S
C517 C518 1.347 . S
C517 H545 0.931 . S
C518 C517 1.347 . S
C518 C519 1.369 . S
C519 C518 1.369 . S
C519 C520 1.408 . S
C519 H546 0.930 . S
C520 C515 1.348 . S
C520 C519 1.408 . S
C520 H547 0.930 . S
C521 O534 1.281 . S
C521 O535 1.254 . S
C522 O536 1.236 . S
C522 O537 1.266 . S
C523 Tb513 2.809 . S
C523 C524 1.514 . S
C523 O538 1.248 . S
C523 O539 1.266 . S
C524 C523 1.514 . S
C524 C525 1.359 . S
C524 C529 1.348 . S
C525 C524 1.359 . S
C525 C526 1.380 . S
C525 H548 0.929 . S
C526 C525 1.380 . S
C526 C527 1.347 . S
C526 H549 0.931 . S
C527 C526 1.347 . S
C527 C528 1.369 . S
C528 C527 1.369 . S
C528 C529 1.408 . S
C528 H550 0.930 . S
C529 C524 1.348 . S
C529 C528 1.408 . S
C529 H551 0.930 . S
C530 O540 1.281 . S
C530 O541 1.254 . S
C531 O542 1.236 . S
C531 O543 1.266 . S
O532 Tb512 2.484 . S
O532 C514 1.248 . S
O533 Tb512 2.440 . S
O533 C514 1.266 . S
O534 Tb512 2.658 . S
O534 Tb513 2.325 . S
O534 C521 1.281 . S
O535 Tb512 2.409 . S
O535 C521 1.254 . S
O536 Tb512 2.378 . S
O536 C522 1.236 . S
O537 Tb513 2.341 . S
O537 C522 1.266 . S
O538 Tb513 2.484 . S
O538 C523 1.248 . S
O539 Tb513 2.440 . S
O539 C523 1.266 . S
O540 Tb512 2.325 . S
O540 Tb513 2.658 . S
O540 C530 1.281 . S
O541 Tb513 2.409 . S
O541 C530 1.254 . S
O542 Tb513 2.378 . S
O542 C531 1.236 . S
O543 Tb512 2.341 . S
O543 C531 1.266 . S
H544 C516 0.929 . S
H545 C517 0.931 . S
H546 C519 0.930 . S
H547 C520 0.930 . S
H548 C525 0.929 . S
H549 C526 0.931 . S
H550 C528 0.930 . S
H551 C529 0.930 . S
Tb552 C554 2.809 . S
Tb552 O572 2.484 . S
Tb552 O573 2.440 . S
Tb552 O574 2.658 1_556 S
Tb552 O575 2.409 1_556 S
Tb552 O576 2.378 1_556 S
Tb552 O580 2.324 1_556 S
Tb552 O583 2.341 . S
Tb553 C563 2.809 . S
Tb553 O574 2.325 . S
Tb553 O577 2.341 . S
Tb553 O578 2.484 . S
Tb553 O579 2.440 . S
Tb553 O580 2.659 . S
Tb553 O581 2.409 1_545 S
Tb553 O582 2.378 1_554 S
C554 Tb552 2.809 . S
C554 C555 1.514 . S
C554 O572 1.248 . S
C554 O573 1.266 . S
C555 C554 1.514 . S
C555 C556 1.359 1_545 S
C555 C560 1.348 . S
C556 C555 1.359 1_565 S
C556 C557 1.380 . S
C556 H584 0.929 . S
C557 C556 1.380 . S
C557 C558 1.347 . S
C557 H585 0.931 . S
C558 C557 1.347 . S
C558 C559 1.364 1_565 S
C559 C558 1.364 1_545 S
C559 C560 1.417 . S
C559 H586 0.928 1_556 S
C560 C555 1.348 . S
C560 C559 1.417 . S
C560 H587 0.930 . S
C561 O574 1.281 . S
C561 O575 1.254 . S
C562 O576 1.236 . S
C562 O577 1.266 . S
C563 Tb553 2.809 . S
C563 C564 1.514 . S
C563 O578 1.248 . S
C563 O579 1.266 . S
C564 C563 1.514 . S
C564 C565 1.359 . S
C564 C569 1.348 . S
C565 C564 1.359 . S
C565 C566 1.380 . S
C565 H588 0.929 . S
C566 C565 1.380 . S
C566 C567 1.347 . S
C566 H589 0.931 . S
C567 C566 1.347 . S
C567 C568 1.369 . S
C568 C567 1.369 . S
C568 C569 1.408 . S
C568 H590 0.930 . S
C569 C564 1.348 . S
C569 C568 1.408 . S
C569 H591 0.930 . S
C570 O580 1.281 1_566 S
C570 O581 1.254 1_556 S
C571 O582 1.236 . S
C571 O583 1.266 . S
O572 Tb552 2.484 . S
O572 C554 1.248 . S
O573 Tb552 2.440 . S
O573 C554 1.266 . S
O574 Tb552 2.658 1_554 S
O574 Tb553 2.325 . S
O574 C561 1.281 . S
O575 Tb552 2.409 1_554 S
O575 C561 1.254 . S
O576 Tb552 2.378 1_554 S
O576 C562 1.236 . S
O577 Tb553 2.341 . S
O577 C562 1.266 . S
O578 Tb553 2.484 . S
O578 C563 1.248 . S
O579 Tb553 2.440 . S
O579 C563 1.266 . S
O580 Tb552 2.324 1_554 S
O580 Tb553 2.659 . S
O580 C570 1.281 1_544 S
O581 Tb553 2.409 1_565 S
O581 C570 1.254 1_554 S
O582 Tb553 2.378 1_556 S
O582 C571 1.236 . S
O583 Tb552 2.341 . S
O583 C571 1.266 . S
H584 C556 0.929 . S
H585 C557 0.931 . S
H586 C559 0.928 1_554 S
H587 C560 0.930 . S
H588 C565 0.929 . S
H589 C566 0.931 . S
H590 C568 0.930 . S
H591 C569 0.930 . S
Tb592 C594 2.809 . S
Tb592 O612 2.484 . S
Tb592 O613 2.440 . S
Tb592 O614 2.658 . S
Tb592 O615 2.409 . S
Tb592 O616 2.378 . S
Tb592 O620 2.325 . S
Tb592 O623 2.341 . S
Tb593 C603 2.809 . S
Tb593 O614 2.325 . S
Tb593 O617 2.341 . S
Tb593 O618 2.484 . S
Tb593 O619 2.440 . S
Tb593 O620 2.658 . S
Tb593 O621 2.409 . S
Tb593 O622 2.378 . S
C594 Tb592 2.809 . S
C594 C595 1.514 . S
C594 O612 1.248 . S
C594 O613 1.266 . S
C595 C594 1.514 . S
C595 C596 1.359 . S
C595 C600 1.348 . S
C596 C595 1.359 . S
C596 C597 1.380 . S
C596 H624 0.929 . S
C597 C596 1.380 . S
C597 C598 1.347 . S
C597 H625 0.931 . S
C598 C597 1.347 . S
C598 C599 1.369 . S
C599 C598 1.369 . S
C599 C600 1.408 . S
C599 H626 0.930 . S
C600 C595 1.348 . S
C600 C599 1.408 . S
C600 H627 0.930 . S
C601 O614 1.281 . S
C601 O615 1.254 . S
C602 O616 1.236 . S
C602 O617 1.266 . S
C603 Tb593 2.809 . S
C603 C604 1.514 . S
C603 O618 1.248 . S
C603 O619 1.266 . S
C604 C603 1.514 . S
C604 C605 1.359 . S
C604 C609 1.348 . S
C605 C604 1.359 . S
C605 C606 1.380 . S
C605 H628 0.929 . S
C606 C605 1.380 . S
C606 C607 1.347 . S
C606 H629 0.931 . S
C607 C606 1.347 . S
C607 C608 1.369 . S
C608 C607 1.369 . S
C608 C609 1.408 . S
C608 H630 0.930 . S
C609 C604 1.348 . S
C609 C608 1.408 . S
C609 H631 0.930 . S
C610 O620 1.281 . S
C610 O621 1.254 . S
C611 O622 1.236 . S
C611 O623 1.266 . S
O612 Tb592 2.484 . S
O612 C594 1.248 . S
O613 Tb592 2.440 . S
O613 C594 1.266 . S
O614 Tb592 2.658 . S
O614 Tb593 2.325 . S
O614 C601 1.281 . S
O615 Tb592 2.409 . S
O615 C601 1.254 . S
O616 Tb592 2.378 . S
O616 C602 1.236 . S
O617 Tb593 2.341 . S
O617 C602 1.266 . S
O618 Tb593 2.484 . S
O618 C603 1.248 . S
O619 Tb593 2.440 . S
O619 C603 1.266 . S
O620 Tb592 2.325 . S
O620 Tb593 2.658 . S
O620 C610 1.281 . S
O621 Tb593 2.409 . S
O621 C610 1.254 . S
O622 Tb593 2.378 . S
O622 C611 1.236 . S
O623 Tb592 2.341 . S
O623 C611 1.266 . S
H624 C596 0.929 . S
H625 C597 0.931 . S
H626 C599 0.930 . S
H627 C600 0.930 . S
H628 C605 0.929 . S
H629 C606 0.931 . S
H630 C608 0.930 . S
H631 C609 0.930 . S
Tb632 C634 2.809 1_554 S
Tb632 O652 2.441 1_554 S
Tb632 O653 2.440 . S
Tb632 O654 2.658 . S
Tb632 O655 2.409 . S
Tb632 O656 2.378 1_554 S
Tb632 O660 2.325 . S
Tb632 O663 2.341 . S
Tb633 C643 2.809 . S
Tb633 O654 2.325 . S
Tb633 O657 2.341 1_554 S
Tb633 O658 2.484 . S
Tb633 O659 2.440 . S
Tb633 O660 2.658 . S
Tb633 O661 2.409 . S
Tb633 O662 2.378 . S
C634 Tb632 2.809 1_556 S
C634 C635 1.514 . S
C634 O652 1.246 . S
C634 O653 1.266 1_556 S
C635 C634 1.514 . S
C635 C636 1.359 . S
C635 C640 1.348 . S
C636 C635 1.359 . S
C636 C637 1.380 . S
C636 H664 0.929 . S
C637 C636 1.380 . S
C637 C638 1.347 . S
C637 H665 0.931 . S
C638 C637 1.347 . S
C638 C639 1.369 . S
C639 C638 1.369 . S
C639 C640 1.408 . S
C639 H666 0.930 . S
C640 C635 1.348 . S
C640 C639 1.408 . S
C640 H667 0.930 . S
C641 O654 1.281 . S
C641 O655 1.254 . S
C642 O656 1.236 . S
C642 O657 1.266 . S
C643 Tb633 2.809 . S
C643 C644 1.514 . S
C643 O658 1.248 . S
C643 O659 1.266 . S
C644 C643 1.514 . S
C644 C645 1.359 . S
C644 C649 1.348 . S
C645 C644 1.359 . S
C645 C646 1.380 . S
C645 H668 0.929 . S
C646 C645 1.380 . S
C646 C647 1.347 . S
C646 H669 0.931 . S
C647 C646 1.347 . S
C647 C648 1.369 . S
C648 C647 1.369 . S
C648 C649 1.408 . S
C648 H670 0.930 . S
C649 C644 1.348 . S
C649 C648 1.408 . S
C649 H671 0.930 . S
C650 O660 1.281 . S
C650 O661 1.254 . S
C651 O662 1.236 . S
C651 O663 1.266 . S
O652 Tb632 2.441 1_556 S
O652 C634 1.246 . S
O653 Tb632 2.440 . S
O653 C634 1.266 1_554 S
O654 Tb632 2.658 . S
O654 Tb633 2.325 . S
O654 C641 1.281 . S
O655 Tb632 2.409 . S
O655 C641 1.254 . S
O656 Tb632 2.378 1_556 S
O656 C642 1.236 . S
O657 Tb633 2.341 1_556 S
O657 C642 1.266 . S
O658 Tb633 2.484 . S
O658 C643 1.248 . S
O659 Tb633 2.440 . S
O659 C643 1.266 . S
O660 Tb632 2.325 . S
O660 Tb633 2.658 . S
O660 C650 1.281 . S
O661 Tb633 2.409 . S
O661 C650 1.254 . S
O662 Tb633 2.378 . S
O662 C651 1.236 . S
O663 Tb632 2.341 . S
O663 C651 1.266 . S
H664 C636 0.929 . S
H665 C637 0.931 . S
H666 C639 0.930 . S
H667 C640 0.930 . S
H668 C645 0.929 . S
H669 C646 0.931 . S
H670 C648 0.930 . S
H671 C649 0.930 . S
Tb672 C674 2.809 . S
Tb672 O692 2.484 . S
Tb672 O693 2.440 . S
Tb672 O694 2.658 . S
Tb672 O695 2.409 . S
Tb672 O696 2.378 . S
Tb672 O700 2.325 . S
Tb672 O703 2.341 . S
Tb673 C683 2.809 . S
Tb673 O694 2.325 . S
Tb673 O697 2.341 . S
Tb673 O698 2.484 . S
Tb673 O699 2.440 . S
Tb673 O700 2.658 . S
Tb673 O701 2.409 . S
Tb673 O702 2.378 . S
C674 Tb672 2.809 . S
C674 C675 1.514 . S
C674 O692 1.248 . S
C674 O693 1.266 . S
C675 C674 1.514 . S
C675 C676 1.359 . S
C675 C680 1.348 . S
C676 C675 1.359 . S
C676 C677 1.380 . S
C676 H704 0.929 . S
C677 C676 1.380 . S
C677 C678 1.347 . S
C677 H705 0.931 . S
C678 C677 1.347 . S
C678 C679 1.369 . S
C679 C678 1.369 . S
C679 C680 1.408 . S
C679 H706 0.930 . S
C680 C675 1.348 . S
C680 C679 1.408 . S
C680 H707 0.930 . S
C681 O694 1.281 . S
C681 O695 1.254 . S
C682 O696 1.236 . S
C682 O697 1.266 . S
C683 Tb673 2.809 . S
C683 C684 1.514 . S
C683 O698 1.248 . S
C683 O699 1.266 . S
C684 C683 1.514 . S
C684 C685 1.359 . S
C684 C689 1.348 . S
C685 C684 1.359 . S
C685 C686 1.380 . S
C685 H708 0.929 . S
C686 C685 1.380 . S
C686 C687 1.347 . S
C686 H709 0.931 . S
C687 C686 1.347 . S
C687 C688 1.369 . S
C688 C687 1.369 . S
C688 C689 1.408 . S
C688 H710 0.930 . S
C689 C684 1.348 . S
C689 C688 1.408 . S
C689 H711 0.930 . S
C690 O700 1.281 . S
C690 O701 1.254 . S
C691 O702 1.236 . S
C691 O703 1.266 . S
O692 Tb672 2.484 . S
O692 C674 1.248 . S
O693 Tb672 2.440 . S
O693 C674 1.266 . S
O694 Tb672 2.658 . S
O694 Tb673 2.325 . S
O694 C681 1.281 . S
O695 Tb672 2.409 . S
O695 C681 1.254 . S
O696 Tb672 2.378 . S
O696 C682 1.236 . S
O697 Tb673 2.341 . S
O697 C682 1.266 . S
O698 Tb673 2.484 . S
O698 C683 1.248 . S
O699 Tb673 2.440 . S
O699 C683 1.266 . S
O700 Tb672 2.325 . S
O700 Tb673 2.658 . S
O700 C690 1.281 . S
O701 Tb673 2.409 . S
O701 C690 1.254 . S
O702 Tb673 2.378 . S
O702 C691 1.236 . S
O703 Tb672 2.341 . S
O703 C691 1.266 . S
H704 C676 0.929 . S
H705 C677 0.931 . S
H706 C679 0.930 . S
H707 C680 0.930 . S
H708 C685 0.929 . S
H709 C686 0.931 . S
H710 C688 0.930 . S
H711 C689 0.930 . S
Tb712 C714 2.809 . S
Tb712 O732 2.484 . S
Tb712 O733 2.440 . S
Tb712 O734 2.658 1_655 S
Tb712 O735 2.409 1_655 S
Tb712 O736 2.378 . S
Tb712 O740 2.325 1_655 S
Tb712 O743 2.341 1_655 S
Tb713 C723 2.809 . S
Tb713 O734 2.325 . S
Tb713 O737 2.341 . S
Tb713 O738 2.484 . S
Tb713 O739 2.440 . S
Tb713 O740 2.658 . S
Tb713 O741 2.409 . S
Tb713 O742 2.378 . S
C714 Tb712 2.809 . S
C714 C715 1.514 . S
C714 O732 1.248 . S
C714 O733 1.266 . S
C715 C714 1.514 . S
C715 C716 1.359 . S
C715 C720 1.348 . S
C716 C715 1.359 . S
C716 C717 1.380 . S
C716 H744 0.929 . S
C717 C716 1.380 . S
C717 C718 1.347 . S
C717 H745 0.931 . S
C718 C717 1.347 . S
C718 C719 1.369 . S
C719 C718 1.369 . S
C719 C720 1.408 . S
C719 H746 0.930 . S
C720 C715 1.348 . S
C720 C719 1.408 . S
C720 H747 0.930 . S
C721 O734 1.281 . S
C721 O735 1.254 . S
C722 O736 1.236 1_455 S
C722 O737 1.266 . S
C723 Tb713 2.809 . S
C723 C724 1.514 . S
C723 O738 1.248 . S
C723 O739 1.266 . S
C724 C723 1.514 . S
C724 C725 1.359 . S
C724 C729 1.348 . S
C725 C724 1.359 . S
C725 C726 1.380 . S
C725 H748 0.929 . S
C726 C725 1.380 . S
C726 C727 1.347 . S
C726 H749 0.931 . S
C727 C726 1.347 . S
C727 C728 1.369 . S
C728 C727 1.369 . S
C728 C729 1.408 . S
C728 H750 0.930 . S
C729 C724 1.348 . S
C729 C728 1.408 . S
C729 H751 0.930 . S
C730 O740 1.281 . S
C730 O741 1.254 . S
C731 O742 1.236 . S
C731 O743 1.266 . S
O732 Tb712 2.484 . S
O732 C714 1.248 . S
O733 Tb712 2.440 . S
O733 C714 1.266 . S
O734 Tb712 2.658 1_455 S
O734 Tb713 2.325 . S
O734 C721 1.281 . S
O735 Tb712 2.409 1_455 S
O735 C721 1.254 . S
O736 Tb712 2.378 . S
O736 C722 1.236 1_655 S
O737 Tb713 2.341 . S
O737 C722 1.266 . S
O738 Tb713 2.484 . S
O738 C723 1.248 . S
O739 Tb713 2.440 . S
O739 C723 1.266 . S
O740 Tb712 2.325 1_455 S
O740 Tb713 2.658 . S
O740 C730 1.281 . S
O741 Tb713 2.409 . S
O741 C730 1.254 . S
O742 Tb713 2.378 . S
O742 C731 1.236 . S
O743 Tb712 2.341 1_455 S
O743 C731 1.266 . S
H744 C716 0.929 . S
H745 C717 0.931 . S
H746 C719 0.930 . S
H747 C720 0.930 . S
H748 C725 0.929 . S
H749 C726 0.931 . S
H750 C728 0.930 . S
H751 C729 0.930 . S
Tb752 C754 2.809 . S
Tb752 O772 2.484 . S
Tb752 O773 2.440 . S
Tb752 O774 2.658 . S
Tb752 O775 2.409 . S
Tb752 O776 2.378 . S
Tb752 O780 2.325 . S
Tb752 O783 2.341 . S
Tb753 C763 2.809 . S
Tb753 O774 2.325 . S
Tb753 O777 2.341 . S
Tb753 O778 2.484 . S
Tb753 O779 2.440 . S
Tb753 O780 2.658 . S
Tb753 O781 2.409 . S
Tb753 O782 2.378 . S
C754 Tb752 2.809 . S
C754 C755 1.514 . S
C754 O772 1.248 . S
C754 O773 1.266 . S
C755 C754 1.514 . S
C755 C756 1.359 . S
C755 C760 1.348 . S
C756 C755 1.359 . S
C756 C757 1.380 . S
C756 H784 0.929 . S
C757 C756 1.380 . S
C757 C758 1.347 . S
C757 H785 0.931 . S
C758 C757 1.347 . S
C758 C759 1.369 . S
C759 C758 1.369 . S
C759 C760 1.408 . S
C759 H786 0.930 . S
C760 C755 1.348 . S
C760 C759 1.408 . S
C760 H787 0.930 . S
C761 O774 1.281 . S
C761 O775 1.254 . S
C762 O776 1.236 . S
C762 O777 1.266 . S
C763 Tb753 2.809 . S
C763 C764 1.514 . S
C763 O778 1.248 . S
C763 O779 1.266 . S
C764 C763 1.514 . S
C764 C765 1.359 . S
C764 C769 1.348 . S
C765 C764 1.359 . S
C765 C766 1.380 . S
C765 H788 0.929 . S
C766 C765 1.380 . S
C766 C767 1.347 . S
C766 H789 0.931 . S
C767 C766 1.347 . S
C767 C768 1.369 . S
C768 C767 1.369 . S
C768 C769 1.408 . S
C768 H790 0.930 . S
C769 C764 1.348 . S
C769 C768 1.408 . S
C769 H791 0.930 . S
C770 O780 1.281 . S
C770 O781 1.254 . S
C771 O782 1.236 . S
C771 O783 1.266 . S
O772 Tb752 2.484 . S
O772 C754 1.248 . S
O773 Tb752 2.440 . S
O773 C754 1.266 . S
O774 Tb752 2.658 . S
O774 Tb753 2.325 . S
O774 C761 1.281 . S
O775 Tb752 2.409 . S
O775 C761 1.254 . S
O776 Tb752 2.378 . S
O776 C762 1.236 . S
O777 Tb753 2.341 . S
O777 C762 1.266 . S
O778 Tb753 2.484 . S
O778 C763 1.248 . S
O779 Tb753 2.440 . S
O779 C763 1.266 . S
O780 Tb752 2.325 . S
O780 Tb753 2.658 . S
O780 C770 1.281 . S
O781 Tb753 2.409 . S
O781 C770 1.254 . S
O782 Tb753 2.378 . S
O782 C771 1.236 . S
O783 Tb752 2.341 . S
O783 C771 1.266 . S
H784 C756 0.929 . S
H785 C757 0.931 . S
H786 C759 0.930 . S
H787 C760 0.930 . S
H788 C765 0.929 . S
H789 C766 0.931 . S
H790 C768 0.930 . S
H791 C769 0.930 . S
Tb792 C794 2.809 . S
Tb792 O812 2.484 . S
Tb792 O813 2.440 . S
Tb792 O814 2.658 . S
Tb792 O815 2.409 . S
Tb792 O816 2.378 . S
Tb792 O820 2.325 . S
Tb792 O823 2.341 . S
Tb793 C803 2.809 . S
Tb793 O814 2.325 . S
Tb793 O817 2.341 . S
Tb793 O818 2.484 . S
Tb793 O819 2.440 . S
Tb793 O820 2.658 . S
Tb793 O821 2.409 . S
Tb793 O822 2.378 . S
C794 Tb792 2.809 . S
C794 C795 1.514 . S
C794 O812 1.248 . S
C794 O813 1.266 . S
C795 C794 1.514 . S
C795 C796 1.359 . S
C795 C800 1.348 . S
C796 C795 1.359 . S
C796 C797 1.380 . S
C796 H824 0.929 . S
C797 C796 1.380 . S
C797 C798 1.347 . S
C797 H825 0.931 . S
C798 C797 1.347 . S
C798 C799 1.369 . S
C799 C798 1.369 . S
C799 C800 1.408 . S
C799 H826 0.930 . S
C800 C795 1.348 . S
C800 C799 1.408 . S
C800 H827 0.930 . S
C801 O814 1.281 . S
C801 O815 1.254 . S
C802 O816 1.236 . S
C802 O817 1.266 . S
C803 Tb793 2.809 . S
C803 C804 1.514 . S
C803 O818 1.248 . S
C803 O819 1.266 . S
C804 C803 1.514 . S
C804 C805 1.359 . S
C804 C809 1.348 . S
C805 C804 1.359 . S
C805 C806 1.380 . S
C805 H828 0.929 . S
C806 C805 1.380 . S
C806 C807 1.347 . S
C806 H829 0.931 . S
C807 C806 1.347 . S
C807 C808 1.369 . S
C808 C807 1.369 . S
C808 C809 1.408 . S
C808 H830 0.930 . S
C809 C804 1.348 . S
C809 C808 1.408 . S
C809 H831 0.930 . S
C810 O820 1.281 . S
C810 O821 1.254 . S
C811 O822 1.236 . S
C811 O823 1.266 . S
O812 Tb792 2.484 . S
O812 C794 1.248 . S
O813 Tb792 2.440 . S
O813 C794 1.266 . S
O814 Tb792 2.658 . S
O814 Tb793 2.325 . S
O814 C801 1.281 . S
O815 Tb792 2.409 . S
O815 C801 1.254 . S
O816 Tb792 2.378 . S
O816 C802 1.236 . S
O817 Tb793 2.341 . S
O817 C802 1.266 . S
O818 Tb793 2.484 . S
O818 C803 1.248 . S
O819 Tb793 2.440 . S
O819 C803 1.266 . S
O820 Tb792 2.325 . S
O820 Tb793 2.658 . S
O820 C810 1.281 . S
O821 Tb793 2.409 . S
O821 C810 1.254 . S
O822 Tb793 2.378 . S
O822 C811 1.236 . S
O823 Tb792 2.341 . S
O823 C811 1.266 . S
H824 C796 0.929 . S
H825 C797 0.931 . S
H826 C799 0.930 . S
H827 C800 0.930 . S
H828 C805 0.929 . S
H829 C806 0.931 . S
H830 C808 0.930 . S
H831 C809 0.930 . S
Tb832 C834 2.809 . S
Tb832 O852 2.484 . S
Tb832 O853 2.440 . S
Tb832 O854 2.658 . S
Tb832 O855 2.409 . S
Tb832 O856 2.378 . S
Tb832 O860 2.325 . S
Tb832 O863 2.341 . S
Tb833 C843 2.809 . S
Tb833 O854 2.325 . S
Tb833 O857 2.341 . S
Tb833 O858 2.484 . S
Tb833 O859 2.440 . S
Tb833 O860 2.658 . S
Tb833 O861 2.409 . S
Tb833 O862 2.378 . S
C834 Tb832 2.809 . S
C834 C835 1.514 . S
C834 O852 1.248 . S
C834 O853 1.266 . S
C835 C834 1.514 . S
C835 C836 1.359 . S
C835 C840 1.348 . S
C836 C835 1.359 . S
C836 C837 1.380 . S
C836 H864 0.929 . S
C837 C836 1.380 . S
C837 C838 1.347 . S
C837 H865 0.931 . S
C838 C837 1.347 . S
C838 C839 1.369 . S
C839 C838 1.369 . S
C839 C840 1.408 . S
C839 H866 0.930 . S
C840 C835 1.348 . S
C840 C839 1.408 . S
C840 H867 0.930 . S
C841 O854 1.281 . S
C841 O855 1.254 . S
C842 O856 1.236 . S
C842 O857 1.266 . S
C843 Tb833 2.809 . S
C843 C844 1.514 . S
C843 O858 1.248 . S
C843 O859 1.266 . S
C844 C843 1.514 . S
C844 C845 1.359 . S
C844 C849 1.348 . S
C845 C844 1.359 . S
C845 C846 1.380 . S
C845 H868 0.929 . S
C846 C845 1.380 . S
C846 C847 1.347 . S
C846 H869 0.931 . S
C847 C846 1.347 . S
C847 C848 1.369 . S
C848 C847 1.369 . S
C848 C849 1.408 . S
C848 H870 0.930 . S
C849 C844 1.348 . S
C849 C848 1.408 . S
C849 H871 0.930 . S
C850 O860 1.281 . S
C850 O861 1.254 . S
C851 O862 1.236 . S
C851 O863 1.266 . S
O852 Tb832 2.484 . S
O852 C834 1.248 . S
O853 Tb832 2.440 . S
O853 C834 1.266 . S
O854 Tb832 2.658 . S
O854 Tb833 2.325 . S
O854 C841 1.281 . S
O855 Tb832 2.409 . S
O855 C841 1.254 . S
O856 Tb832 2.378 . S
O856 C842 1.236 . S
O857 Tb833 2.341 . S
O857 C842 1.266 . S
O858 Tb833 2.484 . S
O858 C843 1.248 . S
O859 Tb833 2.440 . S
O859 C843 1.266 . S
O860 Tb832 2.325 . S
O860 Tb833 2.658 . S
O860 C850 1.281 . S
O861 Tb833 2.409 . S
O861 C850 1.254 . S
O862 Tb833 2.378 . S
O862 C851 1.236 . S
O863 Tb832 2.341 . S
O863 C851 1.266 . S
H864 C836 0.929 . S
H865 C837 0.931 . S
H866 C839 0.930 . S
H867 C840 0.930 . S
H868 C845 0.929 . S
H869 C846 0.931 . S
H870 C848 0.930 . S
H871 C849 0.930 . S
Tb872 C874 2.809 . S
Tb872 O892 2.484 . S
Tb872 O893 2.440 . S
Tb872 O894 2.658 . S
Tb872 O895 2.409 . S
Tb872 O896 2.378 . S
Tb872 O900 2.325 . S
Tb872 O903 2.341 . S
Tb873 C883 2.809 . S
Tb873 O894 2.325 . S
Tb873 O897 2.341 . S
Tb873 O898 2.484 . S
Tb873 O899 2.440 . S
Tb873 O900 2.658 . S
Tb873 O901 2.409 . S
Tb873 O902 2.378 . S
C874 Tb872 2.809 . S
C874 C875 1.514 . S
C874 O892 1.248 . S
C874 O893 1.266 . S
C875 C874 1.514 . S
C875 C876 1.359 . S
C875 C880 1.348 . S
C876 C875 1.359 . S
C876 C877 1.380 . S
C876 H904 0.929 . S
C877 C876 1.380 . S
C877 C878 1.347 . S
C877 H905 0.931 . S
C878 C877 1.347 . S
C878 C879 1.369 . S
C879 C878 1.369 . S
C879 C880 1.408 . S
C879 H906 0.930 . S
C880 C875 1.348 . S
C880 C879 1.408 . S
C880 H907 0.930 . S
C881 O894 1.281 . S
C881 O895 1.254 . S
C882 O896 1.236 . S
C882 O897 1.266 . S
C883 Tb873 2.809 . S
C883 C884 1.514 . S
C883 O898 1.248 . S
C883 O899 1.266 . S
C884 C883 1.514 . S
C884 C885 1.359 . S
C884 C889 1.348 . S
C885 C884 1.359 . S
C885 C886 1.380 . S
C885 H908 0.929 . S
C886 C885 1.380 . S
C886 C887 1.347 . S
C886 H909 0.931 . S
C887 C886 1.347 . S
C887 C888 1.369 . S
C888 C887 1.369 . S
C888 C889 1.408 . S
C888 H910 0.930 . S
C889 C884 1.348 . S
C889 C888 1.408 . S
C889 H911 0.930 . S
C890 O900 1.281 . S
C890 O901 1.254 . S
C891 O902 1.236 . S
C891 O903 1.266 . S
O892 Tb872 2.484 . S
O892 C874 1.248 . S
O893 Tb872 2.440 . S
O893 C874 1.266 . S
O894 Tb872 2.658 . S
O894 Tb873 2.325 . S
O894 C881 1.281 . S
O895 Tb872 2.409 . S
O895 C881 1.254 . S
O896 Tb872 2.378 . S
O896 C882 1.236 . S
O897 Tb873 2.341 . S
O897 C882 1.266 . S
O898 Tb873 2.484 . S
O898 C883 1.248 . S
O899 Tb873 2.440 . S
O899 C883 1.266 . S
O900 Tb872 2.325 . S
O900 Tb873 2.658 . S
O900 C890 1.281 . S
O901 Tb873 2.409 . S
O901 C890 1.254 . S
O902 Tb873 2.378 . S
O902 C891 1.236 . S
O903 Tb872 2.341 . S
O903 C891 1.266 . S
H904 C876 0.929 . S
H905 C877 0.931 . S
H906 C879 0.930 . S
H907 C880 0.930 . S
H908 C885 0.929 . S
H909 C886 0.931 . S
H910 C888 0.930 . S
H911 C889 0.930 . S
Tb912 C914 2.809 . S
Tb912 O932 2.484 . S
Tb912 O933 2.440 . S
Tb912 O934 2.658 . S
Tb912 O935 2.409 1_554 S
Tb912 O936 2.378 . S
Tb912 O940 2.325 . S
Tb912 O943 2.341 . S
Tb913 C923 2.809 1_455 S
Tb913 O934 2.325 . S
Tb913 O937 2.341 . S
Tb913 O938 2.484 1_455 S
Tb913 O939 2.440 1_455 S
Tb913 O940 2.658 . S
Tb913 O941 2.409 . S
Tb913 O942 2.378 . S
C914 Tb912 2.809 . S
C914 C915 1.514 . S
C914 O932 1.248 . S
C914 O933 1.266 . S
C915 C914 1.514 . S
C915 C916 1.359 . S
C915 C920 1.348 1_554 S
C916 C915 1.359 . S
C916 C917 1.380 . S
C916 H944 0.929 . S
C917 C916 1.380 . S
C917 C918 1.347 . S
C917 H945 0.931 . S
C918 C917 1.347 . S
C918 C919 1.369 1_554 S
C919 C918 1.369 1_556 S
C919 C920 1.408 . S
C919 H946 0.930 . S
C920 C915 1.348 1_556 S
C920 C919 1.408 . S
C920 H947 0.930 . S
C921 O934 1.281 1_556 S
C921 O935 1.254 . S
C922 O936 1.236 . S
C922 O937 1.266 . S
C923 Tb913 2.809 1_655 S
C923 C924 1.514 . S
C923 O938 1.248 . S
C923 O939 1.266 . S
C924 C923 1.514 . S
C924 C925 1.359 . S
C924 C929 1.348 . S
C925 C924 1.359 . S
C925 C926 1.380 . S
C925 H948 0.929 . S
C926 C925 1.380 . S
C926 C927 1.347 . S
C926 H949 0.931 . S
C927 C926 1.347 . S
C927 C928 1.369 . S
C928 C927 1.369 . S
C928 C929 1.408 . S
C928 H950 0.930 . S
C929 C924 1.348 . S
C929 C928 1.408 . S
C929 H951 0.930 . S
C930 O940 1.281 . S
C930 O941 1.254 . S
C931 O942 1.236 . S
C931 O943 1.266 . S
O932 Tb912 2.484 . S
O932 C914 1.248 . S
O933 Tb912 2.440 . S
O933 C914 1.266 . S
O934 Tb912 2.658 . S
O934 Tb913 2.325 . S
O934 C921 1.281 1_554 S
O935 Tb912 2.409 1_556 S
O935 C921 1.254 . S
O936 Tb912 2.378 . S
O936 C922 1.236 . S
O937 Tb913 2.341 . S
O937 C922 1.266 . S
O938 Tb913 2.484 1_655 S
O938 C923 1.248 . S
O939 Tb913 2.440 1_655 S
O939 C923 1.266 . S
O940 Tb912 2.325 . S
O940 Tb913 2.658 . S
O940 C930 1.281 . S
O941 Tb913 2.409 . S
O941 C930 1.254 . S
O942 Tb913 2.378 . S
O942 C931 1.236 . S
O943 Tb912 2.341 . S
O943 C931 1.266 . S
H944 C916 0.929 . S
H945 C917 0.931 . S
H946 C919 0.930 . S
H947 C920 0.930 . S
H948 C925 0.929 . S
H949 C926 0.931 . S
H950 C928 0.930 . S
H951 C929 0.930 . S
H952 C960 0.929 . S
H953 C962 0.930 . S
H954 C964 0.930 . S
H955 C967 0.929 . S
H956 C970 0.930 . S
H957 C972 0.960 . S
H958 C972 0.960 . S
H959 C972 0.960 . S
C960 H952 0.929 . S
C960 C961 1.377 . S
C960 C962 1.384 . S
C961 C960 1.377 . S
C961 C967 1.390 . S
C962 H953 0.930 . S
C962 C960 1.384 . S
C962 C963 1.372 . S
C963 C962 1.372 . S
C963 C964 1.400 . S
C963 C968 1.490 . S
C964 H954 0.930 . S
C964 C963 1.400 . S
C964 C967 1.386 . S
H965 C981 0.930 . S
H966 C982 0.931 . S
C967 H955 0.929 . S
C967 C961 1.390 . S
C967 C964 1.386 . S
C968 C963 1.490 . S
C968 C970 1.395 . S
C968 C971 1.369 1_556 S
H969 C975 0.930 . S
C970 H956 0.930 . S
C970 C968 1.395 . S
C970 C973 1.403 . S
C971 C968 1.369 1_554 S
C971 C972 1.543 . S
C971 C975 1.416 . S
C972 H957 0.960 . S
C972 H958 0.960 . S
C972 H959 0.960 . S
C972 C971 1.543 . S
C973 C970 1.403 . S
C973 C974 1.392 . S
C973 C977 1.495 . S
C974 C973 1.392 . S
C974 C975 1.385 1_556 S
C974 C976 1.478 1_556 S
C975 H969 0.930 . S
C975 C971 1.416 . S
C975 C974 1.385 1_554 S
C976 C974 1.478 1_554 S
C976 C978 1.381 . S
C976 C982 1.383 . S
C977 C973 1.495 . S
C977 H983 0.959 . S
C977 H984 0.961 . S
C977 H985 0.960 . S
C978 C976 1.381 . S
C978 C979 1.394 . S
C978 H986 0.930 1_554 S
C979 C978 1.394 . S
C979 C980 1.383 . S
C979 H987 0.929 . S
C980 C979 1.383 . S
C980 C981 1.377 . S
C981 H965 0.930 . S
C981 C980 1.377 . S
C981 C982 1.379 . S
C982 H966 0.931 . S
C982 C976 1.383 . S
C982 C981 1.379 . S
H983 C977 0.959 . S
H984 C977 0.961 . S
H985 C977 0.960 . S
H986 C978 0.930 1_556 S
H987 C979 0.929 . S
H988 C996 0.929 . S
H989 C998 0.930 . S
H990 C1000 0.930 . S
H991 C1003 0.929 . S
H992 C1006 0.930 . S
H993 C1008 0.960 . S
H994 C1008 0.960 . S
H995 C1008 0.960 . S
C996 H988 0.929 . S
C996 C997 1.377 . S
C996 C998 1.384 . S
C997 C996 1.377 . S
C997 C1003 1.390 . S
C998 H989 0.930 . S
C998 C996 1.384 . S
C998 C999 1.372 . S
C999 C998 1.372 . S
C999 C1000 1.400 . S
C999 C1004 1.490 . S
C1000 H990 0.930 . S
C1000 C999 1.400 . S
C1000 C1003 1.386 . S
H1001 C1017 0.930 . S
H1002 C1018 0.931 . S
C1003 H991 0.929 . S
C1003 C997 1.390 . S
C1003 C1000 1.386 . S
C1004 C999 1.490 . S
C1004 C1006 1.395 . S
C1004 C1007 1.403 . S
H1005 C1011 0.930 . S
C1006 H992 0.930 . S
C1006 C1004 1.395 . S
C1006 C1009 1.403 . S
C1007 C1004 1.403 . S
C1007 C1008 1.524 . S
C1007 C1011 1.400 . S
C1008 H993 0.960 . S
C1008 H994 0.960 . S
C1008 H995 0.960 . S
C1008 C1007 1.524 . S
C1009 C1006 1.403 . S
C1009 C1010 1.392 . S
C1009 C1013 1.495 . S
C1010 C1009 1.392 . S
C1010 C1011 1.385 . S
C1010 C1012 1.478 . S
C1011 H1005 0.930 . S
C1011 C1007 1.400 . S
C1011 C1010 1.385 . S
C1012 C1010 1.478 . S
C1012 C1014 1.381 . S
C1012 C1018 1.383 . S
C1013 C1009 1.495 . S
C1013 H1019 0.959 . S
C1013 H1020 0.961 . S
C1013 H1021 0.960 . S
C1014 C1012 1.381 . S
C1014 C1015 1.394 . S
C1014 H1022 0.930 . S
C1015 C1014 1.394 . S
C1015 C1016 1.383 . S
C1015 H1023 0.929 . S
C1016 C1015 1.383 . S
C1016 C1017 1.377 . S
C1017 H1001 0.930 . S
C1017 C1016 1.377 . S
C1017 C1018 1.379 . S
C1018 H1002 0.931 . S
C1018 C1012 1.383 . S
C1018 C1017 1.379 . S
H1019 C1013 0.959 . S
H1020 C1013 0.961 . S
H1021 C1013 0.960 . S
H1022 C1014 0.930 . S
H1023 C1015 0.929 . S
H1024 C1032 0.929 . S
H1025 C1034 0.930 . S
H1026 C1036 0.930 . S
H1027 C1039 0.929 . S
H1028 C1042 0.930 . S
H1029 C1044 0.960 . S
H1030 C1044 0.960 . S
H1031 C1044 0.960 . S
C1032 H1024 0.929 . S
C1032 C1033 1.377 . S
C1032 C1034 1.384 . S
C1033 C1032 1.377 . S
C1033 C1039 1.390 . S
C1034 H1025 0.930 . S
C1034 C1032 1.384 . S
C1034 C1035 1.372 . S
C1035 C1034 1.372 . S
C1035 C1036 1.400 . S
C1035 C1040 1.490 . S
C1036 H1026 0.930 . S
C1036 C1035 1.400 . S
C1036 C1039 1.386 . S
H1037 C1053 0.930 . S
H1038 C1054 0.931 . S
C1039 H1027 0.929 . S
C1039 C1033 1.390 . S
C1039 C1036 1.386 . S
C1040 C1035 1.490 . S
C1040 C1042 1.395 . S
C1040 C1043 1.403 . S
H1041 C1047 0.930 . S
C1042 H1028 0.930 . S
C1042 C1040 1.395 . S
C1042 C1045 1.403 . S
C1043 C1040 1.403 . S
C1043 C1044 1.524 . S
C1043 C1047 1.400 . S
C1044 H1029 0.960 . S
C1044 H1030 0.960 . S
C1044 H1031 0.960 . S
C1044 C1043 1.524 . S
C1045 C1042 1.403 . S
C1045 C1046 1.392 . S
C1045 C1049 1.495 . S
C1046 C1045 1.392 . S
C1046 C1047 1.385 . S
C1046 C1048 1.478 . S
C1047 H1041 0.930 . S
C1047 C1043 1.400 . S
C1047 C1046 1.385 . S
C1048 C1046 1.478 . S
C1048 C1050 1.381 . S
C1048 C1054 1.383 . S
C1049 C1045 1.495 . S
C1049 H1055 0.959 . S
C1049 H1056 0.961 . S
C1049 H1057 0.960 . S
C1050 C1048 1.381 . S
C1050 C1051 1.394 . S
C1050 H1058 0.930 . S
C1051 C1050 1.394 . S
C1051 C1052 1.383 . S
C1051 H1059 0.929 . S
C1052 C1051 1.383 . S
C1052 C1053 1.377 . S
C1053 H1037 0.930 . S
C1053 C1052 1.377 . S
C1053 C1054 1.379 . S
C1054 H1038 0.931 . S
C1054 C1048 1.383 . S
C1054 C1053 1.379 . S
H1055 C1049 0.959 . S
H1056 C1049 0.961 . S
H1057 C1049 0.960 . S
H1058 C1050 0.930 . S
H1059 C1051 0.929 . S
H1060 C1068 0.929 . S
H1061 C1070 0.930 . S
H1062 C1072 0.930 . S
H1063 C1075 0.929 . S
H1064 C1078 0.930 . S
H1065 C1080 0.960 . S
H1066 C1080 0.960 . S
H1067 C1080 0.960 . S
C1068 H1060 0.929 . S
C1068 C1069 1.377 . S
C1068 C1070 1.384 . S
C1069 C1068 1.377 . S
C1069 C1075 1.390 . S
C1070 H1061 0.930 . S
C1070 C1068 1.384 . S
C1070 C1071 1.372 . S
C1071 C1070 1.372 . S
C1071 C1072 1.400 . S
C1071 C1076 1.490 . S
C1072 H1062 0.930 . S
C1072 C1071 1.400 . S
C1072 C1075 1.386 . S
H1073 C1089 0.930 . S
H1074 C1090 0.931 . S
C1075 H1063 0.929 . S
C1075 C1069 1.390 . S
C1075 C1072 1.386 . S
C1076 C1071 1.490 . S
C1076 C1078 1.395 . S
C1076 C1079 1.403 . S
H1077 C1083 0.930 . S
C1078 H1064 0.930 . S
C1078 C1076 1.395 . S
C1078 C1081 1.403 . S
C1079 C1076 1.403 . S
C1079 C1080 1.524 . S
C1079 C1083 1.400 . S
C1080 H1065 0.960 . S
C1080 H1066 0.960 . S
C1080 H1067 0.960 . S
C1080 C1079 1.524 . S
C1081 C1078 1.403 . S
C1081 C1082 1.392 . S
C1081 C1085 1.495 . S
C1082 C1081 1.392 . S
C1082 C1083 1.385 . S
C1082 C1084 1.478 . S
C1083 H1077 0.930 . S
C1083 C1079 1.400 . S
C1083 C1082 1.385 . S
C1084 C1082 1.478 . S
C1084 C1086 1.381 . S
C1084 C1090 1.383 . S
C1085 C1081 1.495 . S
C1085 H1091 0.959 . S
C1085 H1092 0.961 . S
C1085 H1093 0.960 . S
C1086 C1084 1.381 . S
C1086 C1087 1.394 . S
C1086 H1094 0.930 . S
C1087 C1086 1.394 . S
C1087 C1088 1.383 . S
C1087 H1095 0.929 . S
C1088 C1087 1.383 . S
C1088 C1089 1.377 . S
C1089 H1073 0.930 . S
C1089 C1088 1.377 . S
C1089 C1090 1.379 . S
C1090 H1074 0.931 . S
C1090 C1084 1.383 . S
C1090 C1089 1.379 . S
H1091 C1085 0.959 . S
H1092 C1085 0.961 . S
H1093 C1085 0.960 . S
H1094 C1086 0.930 . S
H1095 C1087 0.929 . S
H1096 C1104 0.929 . S
H1097 C1106 0.930 . S
H1098 C1108 0.930 . S
H1099 C1111 0.929 . S
H1100 C1114 0.930 . S
H1101 C1116 0.960 . S
H1102 C1116 0.960 . S
H1103 C1116 0.960 . S
C1104 H1096 0.929 . S
C1104 C1105 1.377 . S
C1104 C1106 1.384 . S
C1105 C1104 1.377 . S
C1105 C1111 1.390 . S
C1106 H1097 0.930 . S
C1106 C1104 1.384 . S
C1106 C1107 1.372 . S
C1107 C1106 1.372 . S
C1107 C1108 1.400 . S
C1107 C1112 1.490 . S
C1108 H1098 0.930 . S
C1108 C1107 1.400 . S
C1108 C1111 1.386 . S
H1109 C1125 0.930 . S
H1110 C1126 0.931 . S
C1111 H1099 0.929 . S
C1111 C1105 1.390 . S
C1111 C1108 1.386 . S
C1112 C1107 1.490 . S
C1112 C1114 1.395 . S
C1112 C1115 1.403 . S
H1113 C1119 0.930 . S
C1114 H1100 0.930 . S
C1114 C1112 1.395 . S
C1114 C1117 1.403 . S
C1115 C1112 1.403 . S
C1115 C1116 1.524 . S
C1115 C1119 1.400 . S
C1116 H1101 0.960 . S
C1116 H1102 0.960 . S
C1116 H1103 0.960 . S
C1116 C1115 1.524 . S
C1117 C1114 1.403 . S
C1117 C1118 1.392 . S
C1117 C1121 1.495 . S
C1118 C1117 1.392 . S
C1118 C1119 1.385 . S
C1118 C1120 1.478 . S
C1119 H1113 0.930 . S
C1119 C1115 1.400 . S
C1119 C1118 1.385 . S
C1120 C1118 1.478 . S
C1120 C1122 1.381 . S
C1120 C1126 1.383 . S
C1121 C1117 1.495 . S
C1121 H1127 0.959 . S
C1121 H1128 0.961 . S
C1121 H1129 0.960 . S
C1122 C1120 1.381 . S
C1122 C1123 1.394 . S
C1122 H1130 0.930 . S
C1123 C1122 1.394 . S
C1123 C1124 1.383 . S
C1123 H1131 0.929 . S
C1124 C1123 1.383 . S
C1124 C1125 1.377 . S
C1125 H1109 0.930 . S
C1125 C1124 1.377 . S
C1125 C1126 1.379 . S
C1126 H1110 0.931 . S
C1126 C1120 1.383 . S
C1126 C1125 1.379 . S
H1127 C1121 0.959 . S
H1128 C1121 0.961 . S
H1129 C1121 0.960 . S
H1130 C1122 0.930 . S
H1131 C1123 0.929 . S
H1132 C1140 0.929 . S
H1133 C1142 0.930 . S
H1134 C1144 0.930 . S
H1135 C1147 0.929 . S
H1136 C1150 0.930 . S
H1137 C1152 0.960 . S
H1138 C1152 0.960 . S
H1139 C1152 0.960 . S
C1140 H1132 0.929 . S
C1140 C1141 1.377 . S
C1140 C1142 1.384 . S
C1141 C1140 1.377 . S
C1141 C1147 1.390 . S
C1142 H1133 0.930 . S
C1142 C1140 1.384 . S
C1142 C1143 1.372 . S
C1143 C1142 1.372 . S
C1143 C1144 1.400 . S
C1143 C1148 1.490 . S
C1144 H1134 0.930 . S
C1144 C1143 1.400 . S
C1144 C1147 1.386 . S
H1145 C1161 0.930 . S
H1146 C1162 0.931 . S
C1147 H1135 0.929 . S
C1147 C1141 1.390 . S
C1147 C1144 1.386 . S
C1148 C1143 1.490 . S
C1148 C1150 1.395 . S
C1148 C1151 1.403 . S
H1149 C1155 0.930 . S
C1150 H1136 0.930 . S
C1150 C1148 1.395 . S
C1150 C1153 1.403 . S
C1151 C1148 1.403 . S
C1151 C1152 1.524 . S
C1151 C1155 1.400 . S
C1152 H1137 0.960 . S
C1152 H1138 0.960 . S
C1152 H1139 0.960 . S
C1152 C1151 1.524 . S
C1153 C1150 1.403 . S
C1153 C1154 1.392 . S
C1153 C1157 1.495 . S
C1154 C1153 1.392 . S
C1154 C1155 1.385 . S
C1154 C1156 1.478 . S
C1155 H1149 0.930 . S
C1155 C1151 1.400 . S
C1155 C1154 1.385 . S
C1156 C1154 1.478 . S
C1156 C1158 1.381 . S
C1156 C1162 1.383 . S
C1157 C1153 1.495 . S
C1157 H1163 0.959 . S
C1157 H1164 0.961 . S
C1157 H1165 0.960 . S
C1158 C1156 1.381 . S
C1158 C1159 1.394 . S
C1158 H1166 0.930 . S
C1159 C1158 1.394 . S
C1159 C1160 1.383 . S
C1159 H1167 0.929 . S
C1160 C1159 1.383 . S
C1160 C1161 1.377 . S
C1161 H1145 0.930 . S
C1161 C1160 1.377 . S
C1161 C1162 1.379 . S
C1162 H1146 0.931 . S
C1162 C1156 1.383 . S
C1162 C1161 1.379 . S
H1163 C1157 0.959 . S
H1164 C1157 0.961 . S
H1165 C1157 0.960 . S
H1166 C1158 0.930 . S
H1167 C1159 0.929 . S
H1168 C1176 0.929 . S
H1169 C1178 0.930 . S
H1170 C1180 0.930 . S
H1171 C1183 0.929 . S
H1172 C1186 0.930 . S
H1173 C1188 0.960 . S
H1174 C1188 0.960 . S
H1175 C1188 0.960 . S
C1176 H1168 0.929 . S
C1176 C1177 1.377 . S
C1176 C1178 1.384 . S
C1177 C1176 1.377 . S
C1177 C1183 1.390 . S
C1178 H1169 0.930 . S
C1178 C1176 1.384 . S
C1178 C1179 1.372 . S
C1179 C1178 1.372 . S
C1179 C1180 1.400 . S
C1179 C1184 1.490 . S
C1180 H1170 0.930 . S
C1180 C1179 1.400 . S
C1180 C1183 1.386 . S
H1181 C1197 0.930 . S
H1182 C1198 0.931 . S
C1183 H1171 0.929 . S
C1183 C1177 1.390 . S
C1183 C1180 1.386 . S
C1184 C1179 1.490 . S
C1184 C1186 1.395 . S
C1184 C1187 1.403 . S
H1185 C1191 0.930 . S
C1186 H1172 0.930 . S
C1186 C1184 1.395 . S
C1186 C1189 1.403 . S
C1187 C1184 1.403 . S
C1187 C1188 1.524 . S
C1187 C1191 1.400 . S
C1188 H1173 0.960 . S
C1188 H1174 0.960 . S
C1188 H1175 0.960 . S
C1188 C1187 1.524 . S
C1189 C1186 1.403 . S
C1189 C1190 1.392 . S
C1189 C1193 1.495 . S
C1190 C1189 1.392 . S
C1190 C1191 1.385 . S
C1190 C1192 1.478 . S
C1191 H1185 0.930 . S
C1191 C1187 1.400 . S
C1191 C1190 1.385 . S
C1192 C1190 1.478 . S
C1192 C1194 1.381 . S
C1192 C1198 1.383 . S
C1193 C1189 1.495 . S
C1193 H1199 0.959 . S
C1193 H1200 0.961 . S
C1193 H1201 0.960 . S
C1194 C1192 1.381 . S
C1194 C1195 1.394 . S
C1194 H1202 0.930 . S
C1195 C1194 1.394 . S
C1195 C1196 1.383 . S
C1195 H1203 0.929 . S
C1196 C1195 1.383 . S
C1196 C1197 1.377 . S
C1197 H1181 0.930 . S
C1197 C1196 1.377 . S
C1197 C1198 1.379 . S
C1198 H1182 0.931 . S
C1198 C1192 1.383 . S
C1198 C1197 1.379 . S
H1199 C1193 0.959 . S
H1200 C1193 0.961 . S
H1201 C1193 0.960 . S
H1202 C1194 0.930 . S
H1203 C1195 0.929 . S
H1204 C1212 0.929 . S
H1205 C1214 0.930 . S
H1206 C1216 0.930 . S
H1207 C1219 0.929 . S
H1208 C1222 0.930 . S
H1209 C1224 0.960 . S
H1210 C1224 0.960 . S
H1211 C1224 0.960 . S
C1212 H1204 0.929 . S
C1212 C1213 1.377 . S
C1212 C1214 1.384 . S
C1213 C1212 1.377 . S
C1213 C1219 1.390 . S
C1214 H1205 0.930 . S
C1214 C1212 1.384 . S
C1214 C1215 1.372 . S
C1215 C1214 1.372 . S
C1215 C1216 1.400 . S
C1215 C1220 1.490 . S
C1216 H1206 0.930 . S
C1216 C1215 1.400 . S
C1216 C1219 1.386 . S
H1217 C1233 0.930 . S
H1218 C1234 0.931 . S
C1219 H1207 0.929 . S
C1219 C1213 1.390 . S
C1219 C1216 1.386 . S
C1220 C1215 1.490 . S
C1220 C1222 1.395 . S
C1220 C1223 1.403 . S
H1221 C1227 0.930 . S
C1222 H1208 0.930 . S
C1222 C1220 1.395 . S
C1222 C1225 1.403 . S
C1223 C1220 1.403 . S
C1223 C1224 1.524 . S
C1223 C1227 1.400 . S
C1224 H1209 0.960 . S
C1224 H1210 0.960 . S
C1224 H1211 0.960 . S
C1224 C1223 1.524 . S
C1225 C1222 1.403 . S
C1225 C1226 1.392 . S
C1225 C1229 1.495 . S
C1226 C1225 1.392 . S
C1226 C1227 1.385 . S
C1226 C1228 1.478 . S
C1227 H1221 0.930 . S
C1227 C1223 1.400 . S
C1227 C1226 1.385 . S
C1228 C1226 1.478 . S
C1228 C1230 1.381 . S
C1228 C1234 1.383 . S
C1229 C1225 1.495 . S
C1229 H1235 0.959 . S
C1229 H1236 0.961 . S
C1229 H1237 0.960 . S
C1230 C1228 1.381 . S
C1230 C1231 1.394 . S
C1230 H1238 0.930 . S
C1231 C1230 1.394 . S
C1231 C1232 1.383 . S
C1231 H1239 0.929 . S
C1232 C1231 1.383 . S
C1232 C1233 1.377 . S
C1233 H1217 0.930 . S
C1233 C1232 1.377 . S
C1233 C1234 1.379 . S
C1234 H1218 0.931 . S
C1234 C1228 1.383 . S
C1234 C1233 1.379 . S
H1235 C1229 0.959 . S
H1236 C1229 0.961 . S
H1237 C1229 0.960 . S
H1238 C1230 0.930 . S
H1239 C1231 0.929 . S
H1240 C1248 0.929 . S
H1241 C1250 0.930 . S
H1242 C1252 0.930 . S
H1243 C1255 0.939 . S
H1244 C1258 0.930 . S
H1245 C1260 0.960 . S
H1246 C1260 0.960 . S
H1247 C1260 0.960 . S
C1248 H1240 0.929 . S
C1248 C1249 1.377 . S
C1248 C1250 1.384 . S
C1249 C1248 1.377 . S
C1249 C1255 1.390 . S
C1250 H1241 0.930 . S
C1250 C1248 1.384 . S
C1250 C1251 1.372 . S
C1251 C1250 1.372 . S
C1251 C1252 1.400 . S
C1251 C1256 1.490 . S
C1252 H1242 0.930 . S
C1252 C1251 1.400 . S
C1252 C1255 1.386 . S
H1253 C1269 0.930 . S
H1254 C1270 0.931 . S
C1255 H1243 0.939 . S
C1255 C1249 1.390 . S
C1255 C1252 1.386 . S
C1256 C1251 1.490 . S
C1256 C1258 1.395 . S
C1256 C1259 1.403 . S
H1257 C1263 0.954 . S
C1258 H1244 0.930 . S
C1258 C1256 1.395 . S
C1258 C1261 1.403 1_655 S
C1259 C1256 1.403 . S
C1259 C1260 1.524 1_545 S
C1259 C1263 1.400 . S
C1260 H1245 0.960 . S
C1260 H1246 0.960 . S
C1260 H1247 0.960 . S
C1260 C1259 1.524 1_565 S
C1261 C1258 1.403 1_455 S
C1261 C1262 1.392 . S
C1261 C1265 1.495 . S
C1262 C1261 1.392 . S
C1262 C1263 1.385 1_455 S
C1262 C1264 1.478 . S
C1263 H1257 0.954 . S
C1263 C1259 1.400 . S
C1263 C1262 1.385 1_655 S
C1264 C1262 1.478 . S
C1264 C1266 1.381 . S
C1264 C1270 1.383 . S
C1265 C1261 1.495 . S
C1265 H1271 0.959 . S
C1265 H1272 0.961 . S
C1265 H1273 0.960 . S
C1266 C1264 1.381 . S
C1266 C1267 1.394 . S
C1266 H1274 0.925 1_455 S
C1267 C1266 1.394 . S
C1267 C1268 1.383 . S
C1267 H1275 0.929 . S
C1268 C1267 1.383 . S
C1268 C1269 1.377 . S
C1269 H1253 0.930 . S
C1269 C1268 1.377 . S
C1269 C1270 1.379 . S
C1270 H1254 0.931 . S
C1270 C1264 1.383 . S
C1270 C1269 1.379 . S
H1271 C1265 0.959 . S
H1272 C1265 0.961 . S
H1273 C1265 0.960 . S
H1274 C1266 0.925 1_655 S
H1275 C1267 0.929 . S
H1276 C1284 0.929 . S
H1277 C1286 0.930 . S
H1278 C1288 0.930 . S
H1279 C1291 0.929 . S
H1280 C1294 0.930 . S
H1281 C1296 0.960 . S
H1282 C1296 0.960 . S
H1283 C1296 0.960 . S
C1284 H1276 0.929 . S
C1284 C1285 1.377 . S
C1284 C1286 1.384 . S
C1285 C1284 1.377 . S
C1285 C1291 1.390 . S
C1286 H1277 0.930 . S
C1286 C1284 1.384 . S
C1286 C1287 1.372 . S
C1287 C1286 1.372 . S
C1287 C1288 1.400 . S
C1287 C1292 1.490 . S
C1288 H1278 0.930 . S
C1288 C1287 1.400 . S
C1288 C1291 1.386 . S
H1289 C1305 0.930 . S
H1290 C1306 0.931 . S
C1291 H1279 0.929 . S
C1291 C1285 1.390 . S
C1291 C1288 1.386 . S
C1292 C1287 1.490 . S
C1292 C1294 1.395 . S
C1292 C1295 1.403 . S
H1293 C1299 0.930 . S
C1294 H1280 0.930 . S
C1294 C1292 1.395 . S
C1294 C1297 1.403 . S
C1295 C1292 1.403 . S
C1295 C1296 1.524 . S
C1295 C1299 1.400 . S
C1296 H1281 0.960 . S
C1296 H1282 0.960 . S
C1296 H1283 0.960 . S
C1296 C1295 1.524 . S
C1297 C1294 1.403 . S
C1297 C1298 1.392 . S
C1297 C1301 1.495 . S
C1298 C1297 1.392 . S
C1298 C1299 1.385 . S
C1298 C1300 1.478 . S
C1299 H1293 0.930 . S
C1299 C1295 1.400 . S
C1299 C1298 1.385 . S
C1300 C1298 1.478 . S
C1300 C1302 1.381 . S
C1300 C1306 1.383 . S
C1301 C1297 1.495 . S
C1301 H1307 0.959 . S
C1301 H1308 0.961 . S
C1301 H1309 0.960 . S
C1302 C1300 1.381 . S
C1302 C1303 1.394 . S
C1302 H1310 0.930 . S
C1303 C1302 1.394 . S
C1303 C1304 1.383 . S
C1303 H1311 0.929 . S
C1304 C1303 1.383 . S
C1304 C1305 1.377 . S
C1305 H1289 0.930 . S
C1305 C1304 1.377 . S
C1305 C1306 1.379 . S
C1306 H1290 0.931 . S
C1306 C1300 1.383 . S
C1306 C1305 1.379 . S
H1307 C1301 0.959 . S
H1308 C1301 0.961 . S
H1309 C1301 0.960 . S
H1310 C1302 0.930 . S
H1311 C1303 0.929 . S
H1312 C1320 0.929 . S
H1313 C1322 0.930 . S
H1314 C1324 0.930 . S
H1315 C1327 0.929 . S
H1316 C1330 0.930 . S
H1317 C1332 0.960 . S
H1318 C1332 0.960 . S
H1319 C1332 0.960 . S
C1320 H1312 0.929 . S
C1320 C1321 1.377 1_565 S
C1320 C1322 1.384 . S
C1321 C1320 1.377 1_545 S
C1321 C1327 1.390 . S
C1322 H1313 0.930 . S
C1322 C1320 1.384 . S
C1322 C1323 1.372 1_565 S
C1323 C1322 1.372 1_545 S
C1323 C1324 1.400 . S
C1323 C1328 1.490 . S
C1324 H1314 0.930 . S
C1324 C1323 1.400 . S
C1324 C1327 1.386 . S
H1325 C1341 0.930 . S
H1326 C1342 0.931 . S
C1327 H1315 0.929 . S
C1327 C1321 1.390 . S
C1327 C1324 1.386 . S
C1328 C1323 1.490 . S
C1328 C1330 1.395 1_545 S
C1328 C1331 1.403 . S
H1329 C1335 0.930 . S
C1330 H1316 0.930 . S
C1330 C1328 1.395 1_565 S
C1330 C1333 1.403 . S
C1331 C1328 1.403 . S
C1331 C1332 1.524 . S
C1331 C1335 1.400 . S
C1332 H1317 0.960 . S
C1332 H1318 0.960 . S
C1332 H1319 0.960 . S
C1332 C1331 1.524 . S
C1333 C1330 1.403 . S
C1333 C1334 1.392 1_565 S
C1333 C1337 1.495 . S
C1334 C1333 1.392 1_545 S
C1334 C1335 1.385 . S
C1334 C1336 1.478 . S
C1335 H1329 0.930 . S
C1335 C1331 1.400 . S
C1335 C1334 1.385 . S
C1336 C1334 1.478 . S
C1336 C1338 1.381 1_545 S
C1336 C1342 1.383 . S
C1337 C1333 1.495 . S
C1337 H1343 0.959 . S
C1337 H1344 0.961 . S
C1337 H1345 0.960 . S
C1338 C1336 1.381 1_565 S
C1338 C1339 1.394 . S
C1338 H1346 0.930 . S
C1339 C1338 1.394 . S
C1339 C1340 1.383 1_565 S
C1339 H1347 0.929 . S
C1340 C1339 1.383 1_545 S
C1340 C1341 1.377 . S
C1341 H1325 0.930 . S
C1341 C1340 1.377 . S
C1341 C1342 1.379 . S
C1342 H1326 0.931 . S
C1342 C1336 1.383 . S
C1342 C1341 1.379 . S
H1343 C1337 0.959 . S
H1344 C1337 0.961 . S
H1345 C1337 0.960 . S
H1346 C1338 0.930 . S
H1347 C1339 0.929 . S
H1348 C1356 0.929 . S
H1349 C1358 0.930 . S
H1350 C1360 0.930 . S
H1351 C1363 0.929 . S
H1352 C1366 0.930 . S
H1353 C1368 0.960 . S
H1354 C1368 0.960 . S
H1355 C1368 0.960 . S
C1356 H1348 0.929 . S
C1356 C1357 1.377 . S
C1356 C1358 1.384 . S
C1357 C1356 1.377 . S
C1357 C1363 1.390 . S
C1358 H1349 0.930 . S
C1358 C1356 1.384 . S
C1358 C1359 1.372 . S
C1359 C1358 1.372 . S
C1359 C1360 1.400 . S
C1359 C1364 1.490 . S
C1360 H1350 0.930 . S
C1360 C1359 1.400 . S
C1360 C1363 1.386 . S
H1361 C1377 0.930 . S
H1362 C1378 0.931 . S
C1363 H1351 0.929 . S
C1363 C1357 1.390 . S
C1363 C1360 1.386 . S
C1364 C1359 1.490 . S
C1364 C1366 1.395 . S
C1364 C1367 1.403 . S
H1365 C1371 0.930 . S
C1366 H1352 0.930 . S
C1366 C1364 1.395 . S
C1366 C1369 1.403 . S
C1367 C1364 1.403 . S
C1367 C1368 1.524 . S
C1367 C1371 1.400 . S
C1368 H1353 0.960 . S
C1368 H1354 0.960 . S
C1368 H1355 0.960 . S
C1368 C1367 1.524 . S
C1369 C1366 1.403 . S
C1369 C1370 1.392 . S
C1369 C1373 1.495 . S
C1370 C1369 1.392 . S
C1370 C1371 1.385 . S
C1370 C1372 1.478 . S
C1371 H1365 0.930 . S
C1371 C1367 1.400 . S
C1371 C1370 1.385 . S
C1372 C1370 1.478 . S
C1372 C1374 1.381 . S
C1372 C1378 1.383 . S
C1373 C1369 1.495 . S
C1373 H1379 0.959 . S
C1373 H1380 0.961 . S
C1373 H1381 0.960 . S
C1374 C1372 1.381 . S
C1374 C1375 1.394 . S
C1374 H1382 0.930 . S
C1375 C1374 1.394 . S
C1375 C1376 1.383 . S
C1375 H1383 0.929 . S
C1376 C1375 1.383 . S
C1376 C1377 1.377 . S
C1377 H1361 0.930 . S
C1377 C1376 1.377 . S
C1377 C1378 1.379 . S
C1378 H1362 0.931 . S
C1378 C1372 1.383 . S
C1378 C1377 1.379 . S
H1379 C1373 0.959 . S
H1380 C1373 0.961 . S
H1381 C1373 0.960 . S
H1382 C1374 0.930 . S
H1383 C1375 0.929 . S
H1384 C1392 0.929 . S
H1385 C1394 0.930 . S
H1386 C1396 0.930 . S
H1387 C1399 0.929 . S
H1388 C1402 0.930 . S
H1389 C1404 0.938 1_565 S
H1390 C1404 1.000 . S
H1391 C1404 0.946 1_565 S
C1392 H1384 0.929 . S
C1392 C1393 1.377 . S
C1392 C1394 1.384 . S
C1393 C1392 1.377 . S
C1393 C1399 1.390 1_545 S
C1394 H1385 0.930 . S
C1394 C1392 1.384 . S
C1394 C1395 1.372 . S
C1395 C1394 1.372 . S
C1395 C1396 1.400 1_545 S
C1395 C1400 1.490 . S
C1396 H1386 0.930 . S
C1396 C1395 1.400 1_565 S
C1396 C1399 1.386 . S
H1397 C1413 0.930 . S
H1398 C1414 0.931 . S
C1399 H1387 0.929 . S
C1399 C1393 1.390 1_565 S
C1399 C1396 1.386 . S
C1400 C1395 1.490 . S
C1400 C1402 1.395 . S
C1400 C1403 1.403 . S
H1401 C1407 0.930 . S
C1402 H1388 0.930 . S
C1402 C1400 1.395 . S
C1402 C1405 1.403 . S
C1403 C1400 1.403 . S
C1403 C1404 1.539 1_655 S
C1403 C1407 1.400 1_655 S
C1404 H1389 0.938 1_545 S
C1404 H1390 1.000 . S
C1404 H1391 0.946 1_545 S
C1404 C1403 1.539 1_455 S
C1405 C1402 1.403 . S
C1405 C1406 1.429 . S
C1405 C1409 1.495 . S
C1406 C1405 1.429 . S
C1406 C1407 1.363 1_655 S
C1406 C1408 1.463 1_655 S
C1407 H1401 0.930 . S
C1407 C1403 1.400 1_455 S
C1407 C1406 1.363 1_455 S
C1408 C1406 1.463 1_455 S
C1408 C1410 1.381 . S
C1408 C1414 1.383 1_545 S
C1409 C1405 1.495 . S
C1409 H1415 0.959 . S
C1409 H1416 0.961 . S
C1409 H1417 0.960 . S
C1410 C1408 1.381 . S
C1410 C1411 1.394 . S
C1410 H1418 0.930 . S
C1411 C1410 1.394 . S
C1411 C1412 1.383 . S
C1411 H1419 0.929 . S
C1412 C1411 1.383 . S
C1412 C1413 1.377 1_545 S
C1413 H1397 0.930 . S
C1413 C1412 1.377 1_565 S
C1413 C1414 1.379 . S
C1414 H1398 0.931 . S
C1414 C1408 1.383 1_565 S
C1414 C1413 1.379 . S
H1415 C1409 0.959 . S
H1416 C1409 0.961 . S
H1417 C1409 0.960 . S
H1418 C1410 0.930 . S
H1419 C1411 0.929 . S
H1420 C1428 0.929 . S
H1421 C1430 0.930 . S
H1422 C1432 0.930 . S
H1423 C1435 0.929 . S
H1424 C1438 0.930 . S
H1425 C1440 0.960 . S
H1426 C1440 0.960 . S
H1427 C1440 0.960 . S
C1428 H1420 0.929 . S
C1428 C1429 1.377 . S
C1428 C1430 1.384 . S
C1429 C1428 1.377 . S
C1429 C1435 1.390 . S
C1430 H1421 0.930 . S
C1430 C1428 1.384 . S
C1430 C1431 1.372 . S
C1431 C1430 1.372 . S
C1431 C1432 1.400 . S
C1431 C1436 1.490 . S
C1432 H1422 0.930 . S
C1432 C1431 1.400 . S
C1432 C1435 1.386 . S
H1433 C1449 0.930 . S
H1434 C1450 0.931 . S
C1435 H1423 0.929 . S
C1435 C1429 1.390 . S
C1435 C1432 1.386 . S
C1436 C1431 1.490 . S
C1436 C1438 1.395 . S
C1436 C1439 1.403 . S
H1437 C1443 0.930 . S
C1438 H1424 0.930 . S
C1438 C1436 1.395 . S
C1438 C1441 1.403 . S
C1439 C1436 1.403 . S
C1439 C1440 1.524 . S
C1439 C1443 1.400 . S
C1440 H1425 0.960 . S
C1440 H1426 0.960 . S
C1440 H1427 0.960 . S
C1440 C1439 1.524 . S
C1441 C1438 1.403 . S
C1441 C1442 1.392 . S
C1441 C1445 1.495 . S
C1442 C1441 1.392 . S
C1442 C1443 1.385 . S
C1442 C1444 1.478 . S
C1443 H1437 0.930 . S
C1443 C1439 1.400 . S
C1443 C1442 1.385 . S
C1444 C1442 1.478 . S
C1444 C1446 1.381 . S
C1444 C1450 1.383 . S
C1445 C1441 1.495 . S
C1445 H1451 0.959 . S
C1445 H1452 0.961 . S
C1445 H1453 0.960 . S
C1446 C1444 1.381 . S
C1446 C1447 1.394 . S
C1446 H1454 0.930 . S
C1447 C1446 1.394 . S
C1447 C1448 1.383 . S
C1447 H1455 0.929 . S
C1448 C1447 1.383 . S
C1448 C1449 1.377 . S
C1449 H1433 0.930 . S
C1449 C1448 1.377 . S
C1449 C1450 1.379 . S
C1450 H1434 0.931 . S
C1450 C1444 1.383 . S
C1450 C1449 1.379 . S
H1451 C1445 0.959 . S
H1452 C1445 0.961 . S
H1453 C1445 0.960 . S
H1454 C1446 0.930 . S
H1455 C1447 0.929 . S
H1456 C1464 0.929 . S
H1457 C1466 0.930 . S
H1458 C1468 0.930 . S
H1459 C1471 0.929 . S
H1460 C1474 0.930 . S
H1461 C1476 0.960 . S
H1462 C1476 0.960 . S
H1463 C1476 0.960 . S
C1464 H1456 0.929 . S
C1464 C1465 1.377 . S
C1464 C1466 1.384 . S
C1465 C1464 1.377 . S
C1465 C1471 1.390 . S
C1466 H1457 0.930 . S
C1466 C1464 1.384 . S
C1466 C1467 1.372 . S
C1467 C1466 1.372 . S
C1467 C1468 1.400 . S
C1467 C1472 1.490 . S
C1468 H1458 0.930 . S
C1468 C1467 1.400 . S
C1468 C1471 1.386 . S
H1469 C1485 0.930 . S
H1470 C1486 0.931 . S
C1471 H1459 0.929 . S
C1471 C1465 1.390 . S
C1471 C1468 1.386 . S
C1472 C1467 1.490 . S
C1472 C1474 1.395 . S
C1472 C1475 1.403 . S
H1473 C1479 0.930 . S
C1474 H1460 0.930 . S
C1474 C1472 1.395 . S
C1474 C1477 1.403 . S
C1475 C1472 1.403 . S
C1475 C1476 1.524 . S
C1475 C1479 1.400 . S
C1476 H1461 0.960 . S
C1476 H1462 0.960 . S
C1476 H1463 0.960 . S
C1476 C1475 1.524 . S
C1477 C1474 1.403 . S
C1477 C1478 1.392 . S
C1477 C1481 1.495 . S
C1478 C1477 1.392 . S
C1478 C1479 1.385 . S
C1478 C1480 1.478 . S
C1479 H1473 0.930 . S
C1479 C1475 1.400 . S
C1479 C1478 1.385 . S
C1480 C1478 1.478 . S
C1480 C1482 1.381 . S
C1480 C1486 1.383 . S
C1481 C1477 1.495 . S
C1481 H1487 0.959 . S
C1481 H1488 0.961 . S
C1481 H1489 0.960 . S
C1482 C1480 1.381 . S
C1482 C1483 1.394 . S
C1482 H1490 0.930 . S
C1483 C1482 1.394 . S
C1483 C1484 1.383 . S
C1483 H1491 0.929 . S
C1484 C1483 1.383 . S
C1484 C1485 1.377 . S
C1485 H1469 0.930 . S
C1485 C1484 1.377 . S
C1485 C1486 1.379 . S
C1486 H1470 0.931 . S
C1486 C1480 1.383 . S
C1486 C1485 1.379 . S
H1487 C1481 0.959 . S
H1488 C1481 0.961 . S
H1489 C1481 0.960 . S
H1490 C1482 0.930 . S
H1491 C1483 0.929 . S
H1492 C1500 0.929 . S
H1493 C1502 0.930 . S
H1494 C1504 0.930 . S
H1495 C1507 0.929 . S
H1496 C1510 0.930 . S
H1497 C1512 0.960 . S
H1498 C1512 0.960 . S
H1499 C1512 0.960 . S
C1500 H1492 0.929 . S
C1500 C1501 1.377 . S
C1500 C1502 1.384 . S
C1501 C1500 1.377 . S
C1501 C1507 1.390 . S
C1502 H1493 0.930 . S
C1502 C1500 1.384 . S
C1502 C1503 1.372 . S
C1503 C1502 1.372 . S
C1503 C1504 1.400 . S
C1503 C1508 1.490 . S
C1504 H1494 0.930 . S
C1504 C1503 1.400 . S
C1504 C1507 1.386 . S
H1505 C1521 0.930 . S
H1506 C1522 0.931 . S
C1507 H1495 0.929 . S
C1507 C1501 1.390 . S
C1507 C1504 1.386 . S
C1508 C1503 1.490 . S
C1508 C1510 1.395 . S
C1508 C1511 1.403 . S
H1509 C1515 0.930 . S
C1510 H1496 0.930 . S
C1510 C1508 1.395 . S
C1510 C1513 1.403 . S
C1511 C1508 1.403 . S
C1511 C1512 1.524 . S
C1511 C1515 1.400 . S
C1512 H1497 0.960 . S
C1512 H1498 0.960 . S
C1512 H1499 0.960 . S
C1512 C1511 1.524 . S
C1513 C1510 1.403 . S
C1513 C1514 1.392 . S
C1513 C1517 1.495 . S
C1514 C1513 1.392 . S
C1514 C1515 1.385 . S
C1514 C1516 1.478 . S
C1515 H1509 0.930 . S
C1515 C1511 1.400 . S
C1515 C1514 1.385 . S
C1516 C1514 1.478 . S
C1516 C1518 1.381 . S
C1516 C1522 1.383 . S
C1517 C1513 1.495 . S
C1517 H1523 0.959 . S
C1517 H1524 0.961 . S
C1517 H1525 0.960 . S
C1518 C1516 1.381 . S
C1518 C1519 1.394 . S
C1518 H1526 0.930 . S
C1519 C1518 1.394 . S
C1519 C1520 1.383 . S
C1519 H1527 0.929 . S
C1520 C1519 1.383 . S
C1520 C1521 1.377 . S
C1521 H1505 0.930 . S
C1521 C1520 1.377 . S
C1521 C1522 1.379 . S
C1522 H1506 0.931 . S
C1522 C1516 1.383 . S
C1522 C1521 1.379 . S
H1523 C1517 0.959 . S
H1524 C1517 0.961 . S
H1525 C1517 0.960 . S
H1526 C1518 0.930 . S
H1527 C1519 0.929 . S
H1528 C1536 0.929 . S
H1529 C1538 0.930 1_556 S
H1530 C1540 0.930 . S
H1531 C1543 0.929 . S
H1532 C1546 0.930 . S
H1533 C1548 0.960 . S
H1534 C1548 0.960 . S
H1535 C1548 0.960 . S
C1536 H1528 0.929 . S
C1536 C1537 1.377 1_556 S
C1536 C1538 1.384 1_556 S
C1537 C1536 1.377 1_554 S
C1537 C1543 1.390 . S
C1538 H1529 0.930 1_554 S
C1538 C1536 1.384 1_554 S
C1538 C1539 1.372 . S
C1539 C1538 1.372 . S
C1539 C1540 1.400 . S
C1539 C1544 1.490 . S
C1540 H1530 0.930 . S
C1540 C1539 1.400 . S
C1540 C1543 1.386 . S
H1541 C1557 0.930 . S
H1542 C1558 0.931 . S
C1543 H1531 0.929 . S
C1543 C1537 1.390 . S
C1543 C1540 1.386 . S
C1544 C1539 1.490 . S
C1544 C1546 1.395 . S
C1544 C1547 1.403 . S
H1545 C1551 0.930 . S
C1546 H1532 0.930 . S
C1546 C1544 1.395 . S
C1546 C1549 1.403 . S
C1547 C1544 1.403 . S
C1547 C1548 1.524 . S
C1547 C1551 1.400 . S
C1548 H1533 0.960 . S
C1548 H1534 0.960 . S
C1548 H1535 0.960 . S
C1548 C1547 1.524 . S
C1549 C1546 1.403 . S
C1549 C1550 1.392 . S
C1549 C1553 1.495 . S
C1550 C1549 1.392 . S
C1550 C1551 1.385 . S
C1550 C1552 1.478 . S
C1551 H1545 0.930 . S
C1551 C1547 1.400 . S
C1551 C1550 1.385 . S
C1552 C1550 1.478 . S
C1552 C1554 1.381 . S
C1552 C1558 1.383 . S
C1553 C1549 1.495 . S
C1553 H1559 0.959 . S
C1553 H1560 0.961 . S
C1553 H1561 0.960 . S
C1554 C1552 1.381 . S
C1554 C1555 1.394 . S
C1554 H1562 0.930 . S
C1555 C1554 1.394 . S
C1555 C1556 1.383 . S
C1555 H1563 0.929 . S
C1556 C1555 1.383 . S
C1556 C1557 1.377 . S
C1557 H1541 0.930 . S
C1557 C1556 1.377 . S
C1557 C1558 1.379 . S
C1558 H1542 0.931 . S
C1558 C1552 1.383 . S
C1558 C1557 1.379 . S
H1559 C1553 0.959 . S
H1560 C1553 0.961 . S
H1561 C1553 0.960 . S
H1562 C1554 0.930 . S
H1563 C1555 0.929 . S
H1564 C1572 0.929 . S
H1565 C1574 0.930 . S
H1566 C1576 0.930 . S
H1567 C1579 0.929 . S
H1568 C1582 0.930 . S
H1569 C1584 0.960 . S
H1570 C1584 0.960 . S
H1571 C1584 0.960 . S
C1572 H1564 0.929 . S
C1572 C1573 1.377 1_556 S
C1572 C1574 1.384 . S
C1573 C1572 1.377 1_554 S
C1573 C1579 1.390 . S
C1574 H1565 0.930 . S
C1574 C1572 1.384 . S
C1574 C1575 1.372 1_556 S
C1575 C1574 1.372 1_554 S
C1575 C1576 1.400 . S
C1575 C1580 1.490 . S
C1576 H1566 0.930 . S
C1576 C1575 1.400 . S
C1576 C1579 1.386 . S
H1577 C1593 0.930 . S
H1578 C1594 0.931 . S
C1579 H1567 0.929 . S
C1579 C1573 1.390 . S
C1579 C1576 1.386 . S
C1580 C1575 1.490 . S
C1580 C1582 1.395 . S
C1580 C1583 1.403 . S
H1581 C1587 0.930 . S
C1582 H1568 0.930 . S
C1582 C1580 1.395 . S
C1582 C1585 1.403 . S
C1583 C1580 1.403 . S
C1583 C1584 1.524 . S
C1583 C1587 1.400 . S
C1584 H1569 0.960 . S
C1584 H1570 0.960 . S
C1584 H1571 0.960 . S
C1584 C1583 1.524 . S
C1585 C1582 1.403 . S
C1585 C1586 1.392 . S
C1585 C1589 1.495 . S
C1586 C1585 1.392 . S
C1586 C1587 1.385 . S
C1586 C1588 1.478 . S
C1587 H1581 0.930 . S
C1587 C1583 1.400 . S
C1587 C1586 1.385 . S
C1588 C1586 1.478 . S
C1588 C1590 1.381 1_554 S
C1588 C1594 1.383 . S
C1589 C1585 1.495 . S
C1589 H1595 0.959 . S
C1589 H1596 0.961 . S
C1589 H1597 0.960 1_554 S
C1590 C1588 1.381 1_556 S
C1590 C1591 1.394 . S
C1590 H1598 0.930 . S
C1591 C1590 1.394 . S
C1591 C1592 1.383 1_556 S
C1591 H1599 0.929 . S
C1592 C1591 1.383 1_554 S
C1592 C1593 1.377 . S
C1593 H1577 0.930 . S
C1593 C1592 1.377 . S
C1593 C1594 1.379 . S
C1594 H1578 0.931 . S
C1594 C1588 1.383 . S
C1594 C1593 1.379 . S
H1595 C1589 0.959 . S
H1596 C1589 0.961 . S
H1597 C1589 0.960 1_556 S
H1598 C1590 0.930 . S
H1599 C1591 0.929 . S
H1600 C1608 0.929 . S
H1601 C1610 0.930 . S
H1602 C1612 0.930 . S
H1603 C1615 0.929 . S
H1604 C1618 0.930 . S
H1605 C1620 0.960 . S
H1606 C1620 0.960 . S
H1607 C1620 0.960 . S
C1608 H1600 0.929 . S
C1608 C1609 1.377 . S
C1608 C1610 1.384 . S
C1609 C1608 1.377 . S
C1609 C1615 1.390 . S
C1610 H1601 0.930 . S
C1610 C1608 1.384 . S
C1610 C1611 1.372 . S
C1611 C1610 1.372 . S
C1611 C1612 1.400 . S
C1611 C1616 1.490 . S
C1612 H1602 0.930 . S
C1612 C1611 1.400 . S
C1612 C1615 1.386 . S
H1613 C1629 0.930 . S
H1614 C1630 0.931 . S
C1615 H1603 0.929 . S
C1615 C1609 1.390 . S
C1615 C1612 1.386 . S
C1616 C1611 1.490 . S
C1616 C1618 1.395 . S
C1616 C1619 1.403 . S
H1617 C1623 0.930 . S
C1618 H1604 0.930 . S
C1618 C1616 1.395 . S
C1618 C1621 1.403 . S
C1619 C1616 1.403 . S
C1619 C1620 1.524 . S
C1619 C1623 1.400 . S
C1620 H1605 0.960 . S
C1620 H1606 0.960 . S
C1620 H1607 0.960 . S
C1620 C1619 1.524 . S
C1621 C1618 1.403 . S
C1621 C1622 1.392 . S
C1621 C1625 1.495 . S
C1622 C1621 1.392 . S
C1622 C1623 1.385 . S
C1622 C1624 1.478 . S
C1623 H1617 0.930 . S
C1623 C1619 1.400 . S
C1623 C1622 1.385 . S
C1624 C1622 1.478 . S
C1624 C1626 1.381 . S
C1624 C1630 1.383 . S
C1625 C1621 1.495 . S
C1625 H1631 0.959 . S
C1625 H1632 0.961 . S
C1625 H1633 0.960 . S
C1626 C1624 1.381 . S
C1626 C1627 1.394 . S
C1626 H1634 0.930 . S
C1627 C1626 1.394 . S
C1627 C1628 1.383 . S
C1627 H1635 0.929 . S
C1628 C1627 1.383 . S
C1628 C1629 1.377 . S
C1629 H1613 0.930 . S
C1629 C1628 1.377 . S
C1629 C1630 1.379 . S
C1630 H1614 0.931 . S
C1630 C1624 1.383 . S
C1630 C1629 1.379 . S
H1631 C1625 0.959 . S
H1632 C1625 0.961 . S
H1633 C1625 0.960 . S
H1634 C1626 0.930 . S
H1635 C1627 0.929 . S
H1636 C1644 0.929 . S
H1637 C1646 0.930 . S
H1638 C1648 0.930 . S
H1639 C1651 0.929 . S
H1640 C1654 0.930 . S
H1641 C1656 0.960 . S
H1642 C1656 0.960 . S
H1643 C1656 0.960 . S
C1644 H1636 0.929 . S
C1644 C1645 1.377 . S
C1644 C1646 1.384 . S
C1645 C1644 1.377 . S
C1645 C1651 1.390 . S
C1646 H1637 0.930 . S
C1646 C1644 1.384 . S
C1646 C1647 1.372 . S
C1647 C1646 1.372 . S
C1647 C1648 1.400 . S
C1647 C1652 1.490 . S
C1648 H1638 0.930 . S
C1648 C1647 1.400 . S
C1648 C1651 1.386 . S
H1649 C1665 0.930 . S
H1650 C1666 0.931 . S
C1651 H1639 0.929 . S
C1651 C1645 1.390 . S
C1651 C1648 1.386 . S
C1652 C1647 1.490 . S
C1652 C1654 1.395 . S
C1652 C1655 1.403 . S
H1653 C1659 0.930 . S
C1654 H1640 0.930 . S
C1654 C1652 1.395 . S
C1654 C1657 1.403 . S
C1655 C1652 1.403 . S
C1655 C1656 1.524 . S
C1655 C1659 1.400 . S
C1656 H1641 0.960 . S
C1656 H1642 0.960 . S
C1656 H1643 0.960 . S
C1656 C1655 1.524 . S
C1657 C1654 1.403 . S
C1657 C1658 1.392 . S
C1657 C1661 1.495 . S
C1658 C1657 1.392 . S
C1658 C1659 1.385 . S
C1658 C1660 1.478 . S
C1659 H1653 0.930 . S
C1659 C1655 1.400 . S
C1659 C1658 1.385 . S
C1660 C1658 1.478 . S
C1660 C1662 1.381 . S
C1660 C1666 1.383 . S
C1661 C1657 1.495 . S
C1661 H1667 0.959 . S
C1661 H1668 0.961 . S
C1661 H1669 0.960 . S
C1662 C1660 1.381 . S
C1662 C1663 1.394 . S
C1662 H1670 0.930 . S
C1663 C1662 1.394 . S
C1663 C1664 1.383 . S
C1663 H1671 0.929 . S
C1664 C1663 1.383 . S
C1664 C1665 1.377 . S
C1665 H1649 0.930 . S
C1665 C1664 1.377 . S
C1665 C1666 1.379 . S
C1666 H1650 0.931 . S
C1666 C1660 1.383 . S
C1666 C1665 1.379 . S
H1667 C1661 0.959 . S
H1668 C1661 0.961 . S
H1669 C1661 0.960 . S
H1670 C1662 0.930 . S
H1671 C1663 0.929 . S
H1672 C1680 0.929 . S
H1673 C1682 0.930 . S
H1674 C1684 0.930 . S
H1675 C1687 0.929 . S
H1676 C1690 0.930 . S
H1677 C1692 0.960 . S
H1678 C1692 0.960 . S
H1679 C1692 0.960 . S
C1680 H1672 0.929 . S
C1680 C1681 1.377 . S
C1680 C1682 1.384 . S
C1681 C1680 1.377 . S
C1681 C1687 1.390 . S
C1682 H1673 0.930 . S
C1682 C1680 1.384 . S
C1682 C1683 1.372 . S
C1683 C1682 1.372 . S
C1683 C1684 1.400 . S
C1683 C1688 1.490 . S
C1684 H1674 0.930 . S
C1684 C1683 1.400 . S
C1684 C1687 1.386 . S
H1685 C1701 0.930 . S
H1686 C1702 0.931 . S
C1687 H1675 0.929 . S
C1687 C1681 1.390 . S
C1687 C1684 1.386 . S
C1688 C1683 1.490 . S
C1688 C1690 1.395 . S
C1688 C1691 1.403 . S
H1689 C1695 0.930 . S
C1690 H1676 0.930 . S
C1690 C1688 1.395 . S
C1690 C1693 1.403 . S
C1691 C1688 1.403 . S
C1691 C1692 1.524 . S
C1691 C1695 1.400 . S
C1692 H1677 0.960 . S
C1692 H1678 0.960 . S
C1692 H1679 0.960 . S
C1692 C1691 1.524 . S
C1693 C1690 1.403 . S
C1693 C1694 1.392 . S
C1693 C1697 1.495 . S
C1694 C1693 1.392 . S
C1694 C1695 1.385 . S
C1694 C1696 1.478 . S
C1695 H1689 0.930 . S
C1695 C1691 1.400 . S
C1695 C1694 1.385 . S
C1696 C1694 1.478 . S
C1696 C1698 1.381 . S
C1696 C1702 1.383 . S
C1697 C1693 1.495 . S
C1697 H1703 0.959 . S
C1697 H1704 0.961 . S
C1697 H1705 0.960 . S
C1698 C1696 1.381 . S
C1698 C1699 1.394 . S
C1698 H1706 0.930 . S
C1699 C1698 1.394 . S
C1699 C1700 1.383 . S
C1699 H1707 0.929 . S
C1700 C1699 1.383 . S
C1700 C1701 1.377 . S
C1701 H1685 0.930 . S
C1701 C1700 1.377 . S
C1701 C1702 1.379 . S
C1702 H1686 0.931 . S
C1702 C1696 1.383 . S
C1702 C1701 1.379 . S
H1703 C1697 0.959 . S
H1704 C1697 0.961 . S
H1705 C1697 0.960 . S
H1706 C1698 0.930 . S
H1707 C1699 0.929 . S
H1708 C1716 0.929 . S
H1709 C1718 0.930 . S
H1710 C1720 0.930 . S
H1711 C1723 0.929 . S
H1712 C1726 0.930 . S
H1713 C1728 0.960 . S
H1714 C1728 0.960 . S
H1715 C1728 0.960 . S
C1716 H1708 0.929 . S
C1716 C1717 1.377 . S
C1716 C1718 1.384 . S
C1717 C1716 1.377 . S
C1717 C1723 1.390 . S
C1718 H1709 0.930 . S
C1718 C1716 1.384 . S
C1718 C1719 1.372 . S
C1719 C1718 1.372 . S
C1719 C1720 1.400 . S
C1719 C1724 1.490 . S
C1720 H1710 0.930 . S
C1720 C1719 1.400 . S
C1720 C1723 1.386 . S
H1721 C1737 0.930 . S
H1722 C1738 0.931 . S
C1723 H1711 0.929 . S
C1723 C1717 1.390 . S
C1723 C1720 1.386 . S
C1724 C1719 1.490 . S
C1724 C1726 1.395 . S
C1724 C1727 1.403 . S
H1725 C1731 0.930 . S
C1726 H1712 0.930 . S
C1726 C1724 1.395 . S
C1726 C1729 1.403 . S
C1727 C1724 1.403 . S
C1727 C1728 1.524 . S
C1727 C1731 1.400 . S
C1728 H1713 0.960 . S
C1728 H1714 0.960 . S
C1728 H1715 0.960 . S
C1728 C1727 1.524 . S
C1729 C1726 1.403 . S
C1729 C1730 1.392 . S
C1729 C1733 1.495 . S
C1730 C1729 1.392 . S
C1730 C1731 1.385 . S
C1730 C1732 1.478 . S
C1731 H1725 0.930 . S
C1731 C1727 1.400 . S
C1731 C1730 1.385 . S
C1732 C1730 1.478 . S
C1732 C1734 1.381 . S
C1732 C1738 1.383 . S
C1733 C1729 1.495 . S
C1733 H1739 0.959 . S
C1733 H1740 0.961 . S
C1733 H1741 0.960 . S
C1734 C1732 1.381 . S
C1734 C1735 1.394 . S
C1734 H1742 0.930 . S
C1735 C1734 1.394 . S
C1735 C1736 1.383 . S
C1735 H1743 0.929 . S
C1736 C1735 1.383 . S
C1736 C1737 1.377 . S
C1737 H1721 0.930 . S
C1737 C1736 1.377 . S
C1737 C1738 1.379 . S
C1738 H1722 0.931 . S
C1738 C1732 1.383 . S
C1738 C1737 1.379 . S
H1739 C1733 0.959 . S
H1740 C1733 0.961 . S
H1741 C1733 0.960 . S
H1742 C1734 0.930 . S
H1743 C1735 0.929 . S
H1744 C1752 0.929 . S
H1745 C1754 0.930 . S
H1746 C1756 0.930 . S
H1747 C1759 0.929 . S
H1748 C1762 0.930 . S
H1749 C1764 0.960 . S
H1750 C1764 0.960 . S
H1751 C1764 0.960 . S
C1752 H1744 0.929 . S
C1752 C1753 1.377 . S
C1752 C1754 1.384 . S
C1753 C1752 1.377 . S
C1753 C1759 1.390 . S
C1754 H1745 0.930 . S
C1754 C1752 1.384 . S
C1754 C1755 1.372 . S
C1755 C1754 1.372 . S
C1755 C1756 1.400 . S
C1755 C1760 1.490 . S
C1756 H1746 0.930 . S
C1756 C1755 1.400 . S
C1756 C1759 1.386 . S
H1757 C1773 0.930 . S
H1758 C1774 0.931 . S
C1759 H1747 0.929 . S
C1759 C1753 1.390 . S
C1759 C1756 1.386 . S
C1760 C1755 1.490 . S
C1760 C1762 1.395 . S
C1760 C1763 1.403 . S
H1761 C1767 0.930 . S
C1762 H1748 0.930 . S
C1762 C1760 1.395 . S
C1762 C1765 1.403 . S
C1763 C1760 1.403 . S
C1763 C1764 1.524 . S
C1763 C1767 1.400 . S
C1764 H1749 0.960 . S
C1764 H1750 0.960 . S
C1764 H1751 0.960 . S
C1764 C1763 1.524 . S
C1765 C1762 1.403 . S
C1765 C1766 1.392 . S
C1765 C1769 1.495 . S
C1766 C1765 1.392 . S
C1766 C1767 1.385 . S
C1766 C1768 1.478 . S
C1767 H1761 0.930 . S
C1767 C1763 1.400 . S
C1767 C1766 1.385 . S
C1768 C1766 1.478 . S
C1768 C1770 1.381 . S
C1768 C1774 1.383 . S
C1769 C1765 1.495 . S
C1769 H1775 0.959 . S
C1769 H1776 0.961 . S
C1769 H1777 0.960 . S
C1770 C1768 1.381 . S
C1770 C1771 1.394 . S
C1770 H1778 0.930 . S
C1771 C1770 1.394 . S
C1771 C1772 1.383 . S
C1771 H1779 0.929 . S
C1772 C1771 1.383 . S
C1772 C1773 1.377 . S
C1773 H1757 0.930 . S
C1773 C1772 1.377 . S
C1773 C1774 1.379 . S
C1774 H1758 0.931 . S
C1774 C1768 1.383 . S
C1774 C1773 1.379 . S
H1775 C1769 0.959 . S
H1776 C1769 0.961 . S
H1777 C1769 0.960 . S
H1778 C1770 0.930 . S
H1779 C1771 0.929 . S
H1780 C1788 0.929 . S
H1781 C1790 0.930 . S
H1782 C1792 0.930 . S
H1783 C1795 0.929 . S
H1784 C1798 0.930 . S
H1785 C1800 0.960 . S
H1786 C1800 0.960 . S
H1787 C1800 0.960 . S
C1788 H1780 0.929 . S
C1788 C1789 1.377 . S
C1788 C1790 1.384 . S
C1789 C1788 1.377 . S
C1789 C1795 1.390 . S
C1790 H1781 0.930 . S
C1790 C1788 1.384 . S
C1790 C1791 1.372 . S
C1791 C1790 1.372 . S
C1791 C1792 1.400 . S
C1791 C1796 1.490 . S
C1792 H1782 0.930 . S
C1792 C1791 1.400 . S
C1792 C1795 1.386 . S
H1793 C1809 0.930 . S
H1794 C1810 0.931 . S
C1795 H1783 0.929 . S
C1795 C1789 1.390 . S
C1795 C1792 1.386 . S
C1796 C1791 1.490 . S
C1796 C1798 1.395 . S
C1796 C1799 1.403 . S
H1797 C1803 0.930 . S
C1798 H1784 0.930 . S
C1798 C1796 1.395 . S
C1798 C1801 1.403 . S
C1799 C1796 1.403 . S
C1799 C1800 1.524 . S
C1799 C1803 1.400 . S
C1800 H1785 0.960 . S
C1800 H1786 0.960 . S
C1800 H1787 0.960 . S
C1800 C1799 1.524 . S
C1801 C1798 1.403 . S
C1801 C1802 1.392 . S
C1801 C1805 1.495 . S
C1802 C1801 1.392 . S
C1802 C1803 1.385 . S
C1802 C1804 1.478 . S
C1803 H1797 0.930 . S
C1803 C1799 1.400 . S
C1803 C1802 1.385 . S
C1804 C1802 1.478 . S
C1804 C1806 1.381 . S
C1804 C1810 1.383 . S
C1805 C1801 1.495 . S
C1805 H1811 0.959 . S
C1805 H1812 0.961 . S
C1805 H1813 0.960 . S
C1806 C1804 1.381 . S
C1806 C1807 1.394 . S
C1806 H1814 0.930 . S
C1807 C1806 1.394 . S
C1807 C1808 1.383 . S
C1807 H1815 0.929 . S
C1808 C1807 1.383 . S
C1808 C1809 1.377 . S
C1809 H1793 0.930 . S
C1809 C1808 1.377 . S
C1809 C1810 1.379 . S
C1810 H1794 0.931 . S
C1810 C1804 1.383 . S
C1810 C1809 1.379 . S
H1811 C1805 0.959 . S
H1812 C1805 0.961 . S
H1813 C1805 0.960 . S
H1814 C1806 0.930 . S
H1815 C1807 0.929 . S
H1816 C1824 0.929 . S
H1817 C1826 0.930 . S
H1818 C1828 0.930 . S
H1819 C1831 0.929 . S
H1820 C1834 0.930 . S
H1821 C1836 0.960 . S
H1822 C1836 0.960 . S
H1823 C1836 0.960 . S
C1824 H1816 0.929 . S
C1824 C1825 1.377 . S
C1824 C1826 1.384 . S
C1825 C1824 1.377 . S
C1825 C1831 1.390 . S
C1826 H1817 0.930 . S
C1826 C1824 1.384 . S
C1826 C1827 1.372 . S
C1827 C1826 1.372 . S
C1827 C1828 1.400 . S
C1827 C1832 1.490 . S
C1828 H1818 0.930 . S
C1828 C1827 1.400 . S
C1828 C1831 1.386 . S
H1829 C1845 0.930 . S
H1830 C1846 0.931 . S
C1831 H1819 0.929 . S
C1831 C1825 1.390 . S
C1831 C1828 1.386 . S
C1832 C1827 1.490 . S
C1832 C1834 1.395 . S
C1832 C1835 1.403 . S
H1833 C1839 0.930 . S
C1834 H1820 0.930 . S
C1834 C1832 1.395 . S
C1834 C1837 1.403 . S
C1835 C1832 1.403 . S
C1835 C1836 1.524 . S
C1835 C1839 1.400 . S
C1836 H1821 0.960 . S
C1836 H1822 0.960 . S
C1836 H1823 0.960 . S
C1836 C1835 1.524 . S
C1837 C1834 1.403 . S
C1837 C1838 1.392 . S
C1837 C1841 1.495 . S
C1838 C1837 1.392 . S
C1838 C1839 1.385 . S
C1838 C1840 1.478 . S
C1839 H1833 0.930 . S
C1839 C1835 1.400 . S
C1839 C1838 1.385 . S
C1840 C1838 1.478 . S
C1840 C1842 1.381 . S
C1840 C1846 1.383 . S
C1841 C1837 1.495 . S
C1841 H1847 0.959 . S
C1841 H1848 0.961 . S
C1841 H1849 0.960 . S
C1842 C1840 1.381 . S
C1842 C1843 1.394 . S
C1842 H1850 0.930 . S
C1843 C1842 1.394 . S
C1843 C1844 1.383 . S
C1843 H1851 0.929 . S
C1844 C1843 1.383 . S
C1844 C1845 1.377 . S
C1845 H1829 0.930 . S
C1845 C1844 1.377 . S
C1845 C1846 1.379 . S
C1846 H1830 0.931 . S
C1846 C1840 1.383 . S
C1846 C1845 1.379 . S
H1847 C1841 0.959 . S
H1848 C1841 0.961 . S
H1849 C1841 0.960 . S
H1850 C1842 0.930 . S
H1851 C1843 0.929 . S
H1852 C1860 0.929 . S
H1853 C1862 0.930 . S
H1854 C1864 0.930 . S
H1855 C1867 0.929 . S
H1856 C1870 0.930 . S
H1857 C1872 0.960 . S
H1858 C1872 0.960 . S
H1859 C1872 0.960 . S
C1860 H1852 0.929 . S
C1860 C1861 1.377 . S
C1860 C1862 1.384 . S
C1861 C1860 1.377 . S
C1861 C1867 1.390 . S
C1862 H1853 0.930 . S
C1862 C1860 1.384 . S
C1862 C1863 1.372 . S
C1863 C1862 1.372 . S
C1863 C1864 1.400 . S
C1863 C1868 1.490 . S
C1864 H1854 0.930 . S
C1864 C1863 1.400 . S
C1864 C1867 1.386 . S
H1865 C1881 0.930 . S
H1866 C1882 0.931 . S
C1867 H1855 0.929 . S
C1867 C1861 1.390 . S
C1867 C1864 1.386 . S
C1868 C1863 1.490 . S
C1868 C1870 1.395 . S
C1868 C1871 1.403 . S
H1869 C1875 0.930 . S
C1870 H1856 0.930 . S
C1870 C1868 1.395 . S
C1870 C1873 1.403 . S
C1871 C1868 1.403 . S
C1871 C1872 1.524 . S
C1871 C1875 1.400 . S
C1872 H1857 0.960 . S
C1872 H1858 0.960 . S
C1872 H1859 0.960 . S
C1872 C1871 1.524 . S
C1873 C1870 1.403 . S
C1873 C1874 1.392 . S
C1873 C1877 1.495 . S
C1874 C1873 1.392 . S
C1874 C1875 1.385 . S
C1874 C1876 1.478 . S
C1875 H1869 0.930 . S
C1875 C1871 1.400 . S
C1875 C1874 1.385 . S
C1876 C1874 1.478 . S
C1876 C1878 1.381 . S
C1876 C1882 1.383 . S
C1877 C1873 1.495 . S
C1877 H1883 0.959 . S
C1877 H1884 0.961 . S
C1877 H1885 0.960 . S
C1878 C1876 1.381 . S
C1878 C1879 1.394 . S
C1878 H1886 0.930 . S
C1879 C1878 1.394 . S
C1879 C1880 1.383 . S
C1879 H1887 0.929 . S
C1880 C1879 1.383 . S
C1880 C1881 1.377 . S
C1881 H1865 0.930 . S
C1881 C1880 1.377 . S
C1881 C1882 1.379 . S
C1882 H1866 0.931 . S
C1882 C1876 1.383 . S
C1882 C1881 1.379 . S
H1883 C1877 0.959 . S
H1884 C1877 0.961 . S
H1885 C1877 0.960 . S
H1886 C1878 0.930 . S
H1887 C1879 0.929 . S
H1888 C1896 0.929 . S
H1889 C1898 0.930 . S
H1890 C1900 0.930 . S
H1891 C1903 0.929 . S
H1892 C1906 0.930 . S
H1893 C1908 0.960 . S
H1894 C1908 0.960 . S
H1895 C1908 0.960 . S
C1896 H1888 0.929 . S
C1896 C1897 1.377 . S
C1896 C1898 1.384 . S
C1897 C1896 1.377 . S
C1897 C1903 1.390 . S
C1898 H1889 0.930 . S
C1898 C1896 1.384 . S
C1898 C1899 1.372 . S
C1899 C1898 1.372 . S
C1899 C1900 1.400 . S
C1899 C1904 1.490 . S
C1900 H1890 0.930 . S
C1900 C1899 1.400 . S
C1900 C1903 1.386 . S
H1901 C1917 0.930 . S
H1902 C1918 0.931 . S
C1903 H1891 0.929 . S
C1903 C1897 1.390 . S
C1903 C1900 1.386 . S
C1904 C1899 1.490 . S
C1904 C1906 1.395 . S
C1904 C1907 1.403 . S
H1905 C1911 0.930 . S
C1906 H1892 0.930 . S
C1906 C1904 1.395 . S
C1906 C1909 1.403 . S
C1907 C1904 1.403 . S
C1907 C1908 1.524 . S
C1907 C1911 1.400 . S
C1908 H1893 0.960 . S
C1908 H1894 0.960 . S
C1908 H1895 0.960 . S
C1908 C1907 1.524 . S
C1909 C1906 1.403 . S
C1909 C1910 1.392 . S
C1909 C1913 1.495 . S
C1910 C1909 1.392 . S
C1910 C1911 1.385 . S
C1910 C1912 1.478 . S
C1911 H1905 0.930 . S
C1911 C1907 1.400 . S
C1911 C1910 1.385 . S
C1912 C1910 1.478 . S
C1912 C1914 1.381 . S
C1912 C1918 1.383 . S
C1913 C1909 1.495 . S
C1913 H1919 0.959 . S
C1913 H1920 0.961 . S
C1913 H1921 0.960 . S
C1914 C1912 1.381 . S
C1914 C1915 1.394 . S
C1914 H1922 0.930 . S
C1915 C1914 1.394 . S
C1915 C1916 1.383 . S
C1915 H1923 0.929 . S
C1916 C1915 1.383 . S
C1916 C1917 1.377 . S
C1917 H1901 0.930 . S
C1917 C1916 1.377 . S
C1917 C1918 1.379 . S
C1918 H1902 0.931 . S
C1918 C1912 1.383 . S
C1918 C1917 1.379 . S
H1919 C1913 0.959 . S
H1920 C1913 0.961 . S
H1921 C1913 0.960 . S
H1922 C1914 0.930 . S
H1923 C1915 0.929 . S
H1924 C1932 0.929 . S
H1925 C1934 0.930 . S
H1926 C1936 0.930 . S
H1927 C1939 0.929 . S
H1928 C1942 0.930 . S
H1929 C1944 0.960 . S
H1930 C1944 0.960 . S
H1931 C1944 0.960 . S
C1932 H1924 0.929 . S
C1932 C1933 1.377 . S
C1932 C1934 1.384 . S
C1933 C1932 1.377 . S
C1933 C1939 1.390 . S
C1934 H1925 0.930 . S
C1934 C1932 1.384 . S
C1934 C1935 1.372 . S
C1935 C1934 1.372 . S
C1935 C1936 1.400 . S
C1935 C1940 1.490 . S
C1936 H1926 0.930 . S
C1936 C1935 1.400 . S
C1936 C1939 1.386 . S
H1937 C1953 0.930 . S
H1938 C1954 0.931 . S
C1939 H1927 0.929 . S
C1939 C1933 1.390 . S
C1939 C1936 1.386 . S
C1940 C1935 1.490 . S
C1940 C1942 1.395 . S
C1940 C1943 1.403 . S
H1941 C1947 0.930 . S
C1942 H1928 0.930 . S
C1942 C1940 1.395 . S
C1942 C1945 1.403 . S
C1943 C1940 1.403 . S
C1943 C1944 1.524 . S
C1943 C1947 1.400 . S
C1944 H1929 0.960 . S
C1944 H1930 0.960 . S
C1944 H1931 0.960 . S
C1944 C1943 1.524 . S
C1945 C1942 1.403 . S
C1945 C1946 1.392 . S
C1945 C1949 1.495 . S
C1946 C1945 1.392 . S
C1946 C1947 1.385 . S
C1946 C1948 1.478 . S
C1947 H1941 0.930 . S
C1947 C1943 1.400 . S
C1947 C1946 1.385 . S
C1948 C1946 1.478 . S
C1948 C1950 1.381 . S
C1948 C1954 1.383 . S
C1949 C1945 1.495 . S
C1949 H1955 0.959 . S
C1949 H1956 0.961 . S
C1949 H1957 0.960 . S
C1950 C1948 1.381 . S
C1950 C1951 1.394 . S
C1950 H1958 0.930 . S
C1951 C1950 1.394 . S
C1951 C1952 1.383 . S
C1951 H1959 0.929 . S
C1952 C1951 1.383 . S
C1952 C1953 1.377 . S
C1953 H1937 0.930 . S
C1953 C1952 1.377 . S
C1953 C1954 1.379 . S
C1954 H1938 0.931 . S
C1954 C1948 1.383 . S
C1954 C1953 1.379 . S
H1955 C1949 0.959 . S
H1956 C1949 0.961 . S
H1957 C1949 0.960 . S
H1958 C1950 0.930 . S
H1959 C1951 0.929 . S
H1960 C1968 0.929 . S
H1961 C1970 0.930 . S
H1962 C1972 0.930 . S
H1963 C1975 0.929 . S
H1964 C1978 0.930 . S
H1965 C1980 0.960 . S
H1966 C1980 0.960 . S
H1967 C1980 0.960 . S
C1968 H1960 0.929 . S
C1968 C1969 1.377 . S
C1968 C1970 1.384 . S
C1969 C1968 1.377 . S
C1969 C1975 1.390 1_455 S
C1970 H1961 0.930 . S
C1970 C1968 1.384 . S
C1970 C1971 1.372 . S
C1971 C1970 1.372 . S
C1971 C1972 1.400 1_455 S
C1971 C1976 1.490 . S
C1972 H1962 0.930 . S
C1972 C1971 1.400 1_655 S
C1972 C1975 1.386 . S
H1973 C1989 0.930 1_655 S
H1974 C1990 0.888 1_655 S
C1975 H1963 0.929 . S
C1975 C1969 1.390 1_655 S
C1975 C1972 1.386 . S
C1976 C1971 1.490 . S
C1976 C1978 1.395 . S
C1976 C1979 1.403 . S
H1977 C1983 0.930 . S
C1978 H1964 0.930 . S
C1978 C1976 1.395 . S
C1978 C1981 1.403 . S
C1979 C1976 1.403 . S
C1979 C1980 1.524 . S
C1979 C1983 1.400 . S
C1980 H1965 0.960 . S
C1980 H1966 0.960 . S
C1980 H1967 0.960 . S
C1980 C1979 1.524 . S
C1981 C1978 1.403 . S
C1981 C1982 1.392 . S
C1981 C1985 1.495 . S
C1982 C1981 1.392 . S
C1982 C1983 1.385 . S
C1982 C1984 1.478 . S
C1983 H1977 0.930 . S
C1983 C1979 1.400 . S
C1983 C1982 1.385 . S
C1984 C1982 1.478 . S
C1984 C1986 1.381 . S
C1984 C1990 1.417 . S
C1985 C1981 1.495 . S
C1985 H1991 0.959 . S
C1985 H1992 0.961 . S
C1985 H1993 0.960 . S
C1986 C1984 1.381 . S
C1986 C1987 1.394 . S
C1986 H1994 0.930 . S
C1987 C1986 1.394 . S
C1987 C1988 1.383 . S
C1987 H1995 0.929 . S
C1988 C1987 1.383 . S
C1988 C1989 1.377 . S
C1989 H1973 0.930 1_455 S
C1989 C1988 1.377 . S
C1989 C1990 1.389 . S
C1990 H1974 0.888 1_455 S
C1990 C1984 1.417 . S
C1990 C1989 1.389 . S
H1991 C1985 0.959 . S
H1992 C1985 0.961 . S
H1993 C1985 0.960 . S
H1994 C1986 0.930 . S
H1995 C1987 0.929 . S
H1996 C2004 0.929 . S
H1997 C2006 0.930 . S
H1998 C2008 0.930 . S
H1999 C2011 0.929 . S
H2000 C2014 0.930 . S
H2001 C2016 0.960 . S
H2002 C2016 0.960 . S
H2003 C2016 0.960 . S
C2004 H1996 0.929 . S
C2004 C2005 1.377 . S
C2004 C2006 1.384 . S
C2005 C2004 1.377 . S
C2005 C2011 1.390 . S
C2006 H1997 0.930 . S
C2006 C2004 1.384 . S
C2006 C2007 1.372 . S
C2007 C2006 1.372 . S
C2007 C2008 1.400 . S
C2007 C2012 1.490 . S
C2008 H1998 0.930 . S
C2008 C2007 1.400 . S
C2008 C2011 1.386 . S
H2009 C2025 0.930 . S
H2010 C2026 0.931 . S
C2011 H1999 0.929 . S
C2011 C2005 1.390 . S
C2011 C2008 1.386 . S
C2012 C2007 1.490 . S
C2012 C2014 1.395 . S
C2012 C2015 1.403 . S
H2013 C2019 0.930 . S
C2014 H2000 0.930 . S
C2014 C2012 1.395 . S
C2014 C2017 1.403 . S
C2015 C2012 1.403 . S
C2015 C2016 1.524 . S
C2015 C2019 1.400 . S
C2016 H2001 0.960 . S
C2016 H2002 0.960 . S
C2016 H2003 0.960 . S
C2016 C2015 1.524 . S
C2017 C2014 1.403 . S
C2017 C2018 1.392 . S
C2017 C2021 1.495 . S
C2018 C2017 1.392 . S
C2018 C2019 1.385 . S
C2018 C2020 1.478 . S
C2019 H2013 0.930 . S
C2019 C2015 1.400 . S
C2019 C2018 1.385 . S
C2020 C2018 1.478 . S
C2020 C2022 1.381 . S
C2020 C2026 1.383 . S
C2021 C2017 1.495 . S
C2021 H2027 0.959 . S
C2021 H2028 0.961 . S
C2021 H2029 0.960 . S
C2022 C2020 1.381 . S
C2022 C2023 1.394 . S
C2022 H2030 0.930 . S
C2023 C2022 1.394 . S
C2023 C2024 1.383 . S
C2023 H2031 0.929 . S
C2024 C2023 1.383 . S
C2024 C2025 1.377 . S
C2025 H2009 0.930 . S
C2025 C2024 1.377 . S
C2025 C2026 1.379 . S
C2026 H2010 0.931 . S
C2026 C2020 1.383 . S
C2026 C2025 1.379 . S
H2027 C2021 0.959 . S
H2028 C2021 0.961 . S
H2029 C2021 0.960 . S
H2030 C2022 0.930 . S
H2031 C2023 0.929 . S
H2032 C2040 0.929 . S
H2033 C2042 0.930 . S
H2034 C2044 0.930 . S
H2035 C2047 0.929 . S
H2036 C2050 0.930 . S
H2037 C2052 0.960 . S
H2038 C2052 0.960 . S
H2039 C2052 0.960 . S
C2040 H2032 0.929 . S
C2040 C2041 1.377 . S
C2040 C2042 1.384 . S
C2041 C2040 1.377 . S
C2041 C2047 1.390 . S
C2042 H2033 0.930 . S
C2042 C2040 1.384 . S
C2042 C2043 1.372 . S
C2043 C2042 1.372 . S
C2043 C2044 1.400 . S
C2043 C2048 1.490 . S
C2044 H2034 0.930 . S
C2044 C2043 1.400 . S
C2044 C2047 1.386 . S
H2045 C2061 0.930 . S
H2046 C2062 0.931 . S
C2047 H2035 0.929 . S
C2047 C2041 1.390 . S
C2047 C2044 1.386 . S
C2048 C2043 1.490 . S
C2048 C2050 1.395 . S
C2048 C2051 1.403 . S
H2049 C2055 0.930 . S
C2050 H2036 0.930 . S
C2050 C2048 1.395 . S
C2050 C2053 1.403 . S
C2051 C2048 1.403 . S
C2051 C2052 1.524 . S
C2051 C2055 1.400 . S
C2052 H2037 0.960 . S
C2052 H2038 0.960 . S
C2052 H2039 0.960 . S
C2052 C2051 1.524 . S
C2053 C2050 1.403 . S
C2053 C2054 1.392 . S
C2053 C2057 1.495 . S
C2054 C2053 1.392 . S
C2054 C2055 1.385 . S
C2054 C2056 1.478 . S
C2055 H2049 0.930 . S
C2055 C2051 1.400 . S
C2055 C2054 1.385 . S
C2056 C2054 1.478 . S
C2056 C2058 1.381 . S
C2056 C2062 1.383 . S
C2057 C2053 1.495 . S
C2057 H2063 0.959 . S
C2057 H2064 0.961 . S
C2057 H2065 0.960 . S
C2058 C2056 1.381 . S
C2058 C2059 1.394 . S
C2058 H2066 0.930 . S
C2059 C2058 1.394 . S
C2059 C2060 1.383 . S
C2059 H2067 0.929 . S
C2060 C2059 1.383 . S
C2060 C2061 1.377 . S
C2061 H2045 0.930 . S
C2061 C2060 1.377 . S
C2061 C2062 1.379 . S
C2062 H2046 0.931 . S
C2062 C2056 1.383 . S
C2062 C2061 1.379 . S
H2063 C2057 0.959 . S
H2064 C2057 0.961 . S
H2065 C2057 0.960 . S
H2066 C2058 0.930 . S
H2067 C2059 0.929 . S
H2068 C2076 0.929 . S
H2069 C2078 0.930 . S
H2070 C2080 0.930 . S
H2071 C2083 0.929 . S
H2072 C2086 0.930 . S
H2073 C2088 0.960 . S
H2074 C2088 0.960 . S
H2075 C2088 0.960 . S
C2076 H2068 0.929 . S
C2076 C2077 1.377 . S
C2076 C2078 1.384 1_455 S
C2077 C2076 1.377 . S
C2077 C2083 1.390 . S
C2078 H2069 0.930 . S
C2078 C2076 1.384 1_655 S
C2078 C2079 1.372 . S
C2079 C2078 1.372 . S
C2079 C2080 1.400 . S
C2079 C2084 1.490 . S
C2080 H2070 0.930 . S
C2080 C2079 1.400 . S
C2080 C2083 1.386 1_655 S
H2081 C2097 0.930 . S
H2082 C2098 0.931 . S
C2083 H2071 0.929 . S
C2083 C2077 1.390 . S
C2083 C2080 1.386 1_455 S
C2084 C2079 1.490 . S
C2084 C2086 1.395 . S
C2084 C2087 1.403 . S
H2085 C2091 0.930 . S
C2086 H2072 0.930 . S
C2086 C2084 1.395 . S
C2086 C2089 1.403 . S
C2087 C2084 1.403 . S
C2087 C2088 1.524 . S
C2087 C2091 1.400 . S
C2088 H2073 0.960 . S
C2088 H2074 0.960 . S
C2088 H2075 0.960 . S
C2088 C2087 1.524 . S
C2089 C2086 1.403 . S
C2089 C2090 1.392 . S
C2089 C2093 1.495 . S
C2090 C2089 1.392 . S
C2090 C2091 1.385 . S
C2090 C2092 1.478 . S
C2091 H2085 0.930 . S
C2091 C2087 1.400 . S
C2091 C2090 1.385 . S
C2092 C2090 1.478 . S
C2092 C2094 1.381 . S
C2092 C2098 1.383 . S
C2093 C2089 1.495 . S
C2093 H2099 0.959 . S
C2093 H2100 0.961 . S
C2093 H2101 0.960 . S
C2094 C2092 1.381 . S
C2094 C2095 1.394 . S
C2094 H2102 0.930 . S
C2095 C2094 1.394 . S
C2095 C2096 1.383 . S
C2095 H2103 0.929 . S
C2096 C2095 1.383 . S
C2096 C2097 1.377 . S
C2097 H2081 0.930 . S
C2097 C2096 1.377 . S
C2097 C2098 1.379 . S
C2098 H2082 0.931 . S
C2098 C2092 1.383 . S
C2098 C2097 1.379 . S
H2099 C2093 0.959 . S
H2100 C2093 0.961 . S
H2101 C2093 0.960 . S
H2102 C2094 0.930 . S
H2103 C2095 0.929 . S
H2104 C2112 0.929 . S
H2105 C2114 0.930 . S
H2106 C2116 0.930 . S
H2107 C2119 0.929 . S
H2108 C2122 0.930 . S
H2109 C2124 0.960 . S
H2110 C2124 0.960 . S
H2111 C2124 0.960 . S
C2112 H2104 0.929 . S
C2112 C2113 1.377 . S
C2112 C2114 1.384 . S
C2113 C2112 1.377 . S
C2113 C2119 1.390 . S
C2114 H2105 0.930 . S
C2114 C2112 1.384 . S
C2114 C2115 1.372 . S
C2115 C2114 1.372 . S
C2115 C2116 1.400 . S
C2115 C2120 1.490 . S
C2116 H2106 0.930 . S
C2116 C2115 1.400 . S
C2116 C2119 1.386 . S
H2117 C2133 0.930 . S
H2118 C2134 0.931 . S
C2119 H2107 0.929 . S
C2119 C2113 1.390 . S
C2119 C2116 1.386 . S
C2120 C2115 1.490 . S
C2120 C2122 1.395 . S
C2120 C2123 1.403 . S
H2121 C2127 0.930 . S
C2122 H2108 0.930 . S
C2122 C2120 1.395 . S
C2122 C2125 1.403 . S
C2123 C2120 1.403 . S
C2123 C2124 1.524 . S
C2123 C2127 1.400 . S
C2124 H2109 0.960 . S
C2124 H2110 0.960 . S
C2124 H2111 0.960 . S
C2124 C2123 1.524 . S
C2125 C2122 1.403 . S
C2125 C2126 1.392 . S
C2125 C2129 1.495 . S
C2126 C2125 1.392 . S
C2126 C2127 1.385 . S
C2126 C2128 1.478 . S
C2127 H2121 0.930 . S
C2127 C2123 1.400 . S
C2127 C2126 1.385 . S
C2128 C2126 1.478 . S
C2128 C2130 1.381 . S
C2128 C2134 1.383 . S
C2129 C2125 1.495 . S
C2129 H2135 0.959 . S
C2129 H2136 0.961 1_545 S
C2129 H2137 0.960 . S
C2130 C2128 1.381 . S
C2130 C2131 1.394 . S
C2130 H2138 0.930 . S
C2131 C2130 1.394 . S
C2131 C2132 1.383 . S
C2131 H2139 0.929 . S
C2132 C2131 1.383 . S
C2132 C2133 1.377 . S
C2133 H2117 0.930 . S
C2133 C2132 1.377 . S
C2133 C2134 1.379 . S
C2134 H2118 0.931 . S
C2134 C2128 1.383 . S
C2134 C2133 1.379 . S
H2135 C2129 0.959 . S
H2136 C2129 0.961 1_565 S
H2137 C2129 0.960 . S
H2138 C2130 0.930 . S
H2139 C2131 0.929 . S
H2140 C2148 0.929 . S
H2141 C2150 0.930 . S
H2142 C2152 0.930 . S
H2143 C2155 0.929 . S
H2144 C2158 0.930 . S
H2145 C2160 0.960 . S
H2146 C2160 0.960 . S
H2147 C2160 0.960 . S
C2148 H2140 0.929 . S
C2148 C2149 1.377 . S
C2148 C2150 1.384 . S
C2149 C2148 1.377 . S
C2149 C2155 1.390 . S
C2150 H2141 0.930 . S
C2150 C2148 1.384 . S
C2150 C2151 1.372 . S
C2151 C2150 1.372 . S
C2151 C2152 1.400 . S
C2151 C2156 1.490 . S
C2152 H2142 0.930 . S
C2152 C2151 1.400 . S
C2152 C2155 1.386 . S
H2153 C2169 0.930 . S
H2154 C2170 0.931 . S
C2155 H2143 0.929 . S
C2155 C2149 1.390 . S
C2155 C2152 1.386 . S
C2156 C2151 1.490 . S
C2156 C2158 1.395 . S
C2156 C2159 1.403 . S
H2157 C2163 0.930 . S
C2158 H2144 0.930 . S
C2158 C2156 1.395 . S
C2158 C2161 1.403 . S
C2159 C2156 1.403 . S
C2159 C2160 1.524 . S
C2159 C2163 1.400 . S
C2160 H2145 0.960 . S
C2160 H2146 0.960 . S
C2160 H2147 0.960 . S
C2160 C2159 1.524 . S
C2161 C2158 1.403 . S
C2161 C2162 1.392 . S
C2161 C2165 1.495 . S
C2162 C2161 1.392 . S
C2162 C2163 1.385 . S
C2162 C2164 1.478 . S
C2163 H2157 0.930 . S
C2163 C2159 1.400 . S
C2163 C2162 1.385 . S
C2164 C2162 1.478 . S
C2164 C2166 1.381 . S
C2164 C2170 1.383 . S
C2165 C2161 1.495 . S
C2165 H2171 0.959 . S
C2165 H2172 0.961 . S
C2165 H2173 0.960 . S
C2166 C2164 1.381 . S
C2166 C2167 1.394 . S
C2166 H2174 0.930 . S
C2167 C2166 1.394 . S
C2167 C2168 1.383 . S
C2167 H2175 0.929 . S
C2168 C2167 1.383 . S
C2168 C2169 1.377 . S
C2169 H2153 0.930 . S
C2169 C2168 1.377 . S
C2169 C2170 1.379 . S
C2170 H2154 0.931 . S
C2170 C2164 1.383 . S
C2170 C2169 1.379 . S
H2171 C2165 0.959 . S
H2172 C2165 0.961 . S
H2173 C2165 0.960 . S
H2174 C2166 0.930 . S
H2175 C2167 0.929 . S
H2176 C2184 0.929 . S
H2177 C2186 0.930 . S
H2178 C2188 0.930 . S
H2179 C2191 0.929 . S
H2180 C2194 0.930 . S
H2181 C2196 0.960 . S
H2182 C2196 0.960 . S
H2183 C2196 0.960 . S
C2184 H2176 0.929 . S
C2184 C2185 1.377 . S
C2184 C2186 1.384 . S
C2185 C2184 1.377 . S
C2185 C2191 1.390 . S
C2186 H2177 0.930 . S
C2186 C2184 1.384 . S
C2186 C2187 1.372 . S
C2187 C2186 1.372 . S
C2187 C2188 1.400 . S
C2187 C2192 1.490 . S
C2188 H2178 0.930 . S
C2188 C2187 1.400 . S
C2188 C2191 1.386 . S
H2189 C2205 0.930 . S
H2190 C2206 0.931 . S
C2191 H2179 0.929 . S
C2191 C2185 1.390 . S
C2191 C2188 1.386 . S
C2192 C2187 1.490 . S
C2192 C2194 1.395 . S
C2192 C2195 1.403 . S
H2193 C2199 0.930 1_565 S
C2194 H2180 0.930 . S
C2194 C2192 1.395 . S
C2194 C2197 1.403 . S
C2195 C2192 1.403 . S
C2195 C2196 1.524 1_545 S
C2195 C2199 1.400 . S
C2196 H2181 0.960 . S
C2196 H2182 0.960 . S
C2196 H2183 0.960 . S
C2196 C2195 1.524 1_565 S
C2197 C2194 1.403 . S
C2197 C2198 1.392 . S
C2197 C2201 1.495 . S
C2198 C2197 1.392 . S
C2198 C2199 1.385 . S
C2198 C2200 1.478 . S
C2199 H2193 0.930 1_545 S
C2199 C2195 1.400 . S
C2199 C2198 1.385 . S
C2200 C2198 1.478 . S
C2200 C2202 1.381 . S
C2200 C2206 1.383 . S
C2201 C2197 1.495 . S
C2201 H2207 0.959 . S
C2201 H2208 0.961 . S
C2201 H2209 0.960 . S
C2202 C2200 1.381 . S
C2202 C2203 1.394 . S
C2202 H2210 0.930 . S
C2203 C2202 1.394 . S
C2203 C2204 1.383 . S
C2203 H2211 0.929 . S
C2204 C2203 1.383 . S
C2204 C2205 1.377 . S
C2205 H2189 0.930 . S
C2205 C2204 1.377 . S
C2205 C2206 1.379 . S
C2206 H2190 0.931 . S
C2206 C2200 1.383 . S
C2206 C2205 1.379 . S
H2207 C2201 0.959 . S
H2208 C2201 0.961 . S
H2209 C2201 0.960 . S
H2210 C2202 0.930 . S
H2211 C2203 0.929 . S
H2212 C2220 0.929 . S
H2213 C2222 0.930 . S
H2214 C2224 0.930 . S
H2215 C2227 0.929 . S
H2216 C2230 0.930 . S
H2217 C2232 0.960 . S
H2218 C2232 0.960 . S
H2219 C2232 0.960 . S
C2220 H2212 0.929 . S
C2220 C2221 1.377 . S
C2220 C2222 1.384 . S
C2221 C2220 1.377 . S
C2221 C2227 1.390 . S
C2222 H2213 0.930 . S
C2222 C2220 1.384 . S
C2222 C2223 1.372 . S
C2223 C2222 1.372 . S
C2223 C2224 1.400 . S
C2223 C2228 1.490 . S
C2224 H2214 0.930 . S
C2224 C2223 1.400 . S
C2224 C2227 1.386 . S
H2225 C2241 0.930 . S
H2226 C2242 0.931 . S
C2227 H2215 0.929 . S
C2227 C2221 1.390 . S
C2227 C2224 1.386 . S
C2228 C2223 1.490 . S
C2228 C2230 1.395 . S
C2228 C2231 1.403 . S
H2229 C2235 0.930 . S
C2230 H2216 0.930 . S
C2230 C2228 1.395 . S
C2230 C2233 1.403 . S
C2231 C2228 1.403 . S
C2231 C2232 1.524 . S
C2231 C2235 1.400 . S
C2232 H2217 0.960 . S
C2232 H2218 0.960 . S
C2232 H2219 0.960 . S
C2232 C2231 1.524 . S
C2233 C2230 1.403 . S
C2233 C2234 1.392 . S
C2233 C2237 1.495 . S
C2234 C2233 1.392 . S
C2234 C2235 1.385 . S
C2234 C2236 1.478 . S
C2235 H2229 0.930 . S
C2235 C2231 1.400 . S
C2235 C2234 1.385 . S
C2236 C2234 1.478 . S
C2236 C2238 1.381 . S
C2236 C2242 1.383 . S
C2237 C2233 1.495 . S
C2237 H2243 0.959 . S
C2237 H2244 0.961 . S
C2237 H2245 0.960 . S
C2238 C2236 1.381 . S
C2238 C2239 1.394 . S
C2238 H2246 0.930 . S
C2239 C2238 1.394 . S
C2239 C2240 1.383 . S
C2239 H2247 0.929 . S
C2240 C2239 1.383 . S
C2240 C2241 1.377 . S
C2241 H2225 0.930 . S
C2241 C2240 1.377 . S
C2241 C2242 1.379 . S
C2242 H2226 0.931 . S
C2242 C2236 1.383 . S
C2242 C2241 1.379 . S
H2243 C2237 0.959 . S
H2244 C2237 0.961 . S
H2245 C2237 0.960 . S
H2246 C2238 0.930 . S
H2247 C2239 0.929 . S
H2248 C2256 0.929 . S
H2249 C2258 0.930 . S
H2250 C2260 0.930 1_565 S
H2251 C2263 0.929 1_565 S
H2252 C2266 0.930 . S
H2253 C2268 0.960 . S
H2254 C2268 0.960 1_545 S
H2255 C2268 0.960 . S
C2256 H2248 0.929 . S
C2256 C2257 1.377 . S
C2256 C2258 1.384 . S
C2257 C2256 1.377 . S
C2257 C2263 1.390 . S
C2258 H2249 0.930 . S
C2258 C2256 1.384 . S
C2258 C2259 1.372 . S
C2259 C2258 1.372 . S
C2259 C2260 1.400 . S
C2259 C2264 1.490 . S
C2260 H2250 0.930 1_545 S
C2260 C2259 1.400 . S
C2260 C2263 1.386 . S
H2261 C2277 0.930 . S
H2262 C2278 0.964 . S
C2263 H2251 0.929 1_545 S
C2263 C2257 1.390 . S
C2263 C2260 1.386 . S
C2264 C2259 1.490 . S
C2264 C2266 1.395 . S
C2264 C2267 1.403 . S
H2265 C2271 0.930 . S
C2266 H2252 0.930 . S
C2266 C2264 1.395 . S
C2266 C2269 1.403 . S
C2267 C2264 1.403 . S
C2267 C2268 1.524 1_545 S
C2267 C2271 1.400 . S
C2268 H2253 0.960 . S
C2268 H2254 0.960 1_565 S
C2268 H2255 0.960 . S
C2268 C2267 1.524 1_565 S
C2269 C2266 1.403 . S
C2269 C2270 1.392 . S
C2269 C2273 1.495 . S
C2270 C2269 1.392 . S
C2270 C2271 1.385 . S
C2270 C2272 1.478 . S
C2271 H2265 0.930 . S
C2271 C2267 1.400 . S
C2271 C2270 1.385 . S
C2272 C2270 1.478 . S
C2272 C2274 1.381 . S
C2272 C2278 1.354 1_545 S
C2273 C2269 1.495 . S
C2273 H2279 0.959 . S
C2273 H2280 0.961 . S
C2273 H2281 0.960 . S
C2274 C2272 1.381 . S
C2274 C2275 1.394 . S
C2274 H2282 0.930 . S
C2275 C2274 1.394 . S
C2275 C2276 1.383 . S
C2275 H2283 0.929 . S
C2276 C2275 1.383 . S
C2276 C2277 1.377 1_545 S
C2277 H2261 0.930 . S
C2277 C2276 1.377 1_565 S
C2277 C2278 1.376 . S
C2278 H2262 0.964 . S
C2278 C2272 1.354 1_565 S
C2278 C2277 1.376 . S
H2279 C2273 0.959 . S
H2280 C2273 0.961 . S
H2281 C2273 0.960 . S
H2282 C2274 0.930 . S
H2283 C2275 0.929 . S
H2284 C2292 0.929 . S
H2285 C2294 0.930 . S
H2286 C2296 0.930 . S
H2287 C2299 0.929 . S
H2288 C2302 0.930 . S
H2289 C2304 0.960 . S
H2290 C2304 0.960 . S
H2291 C2304 0.960 . S
C2292 H2284 0.929 . S
C2292 C2293 1.377 . S
C2292 C2294 1.384 . S
C2293 C2292 1.377 . S
C2293 C2299 1.390 . S
C2294 H2285 0.930 . S
C2294 C2292 1.384 . S
C2294 C2295 1.372 . S
C2295 C2294 1.372 . S
C2295 C2296 1.400 . S
C2295 C2300 1.490 . S
C2296 H2286 0.930 . S
C2296 C2295 1.400 . S
C2296 C2299 1.386 . S
H2297 C2313 0.930 . S
H2298 C2314 0.931 . S
C2299 H2287 0.929 . S
C2299 C2293 1.390 . S
C2299 C2296 1.386 . S
C2300 C2295 1.490 . S
C2300 C2302 1.395 . S
C2300 C2303 1.403 . S
H2301 C2307 0.930 . S
C2302 H2288 0.930 . S
C2302 C2300 1.395 . S
C2302 C2305 1.403 . S
C2303 C2300 1.403 . S
C2303 C2304 1.524 . S
C2303 C2307 1.400 . S
C2304 H2289 0.960 . S
C2304 H2290 0.960 . S
C2304 H2291 0.960 . S
C2304 C2303 1.524 . S
C2305 C2302 1.403 . S
C2305 C2306 1.392 . S
C2305 C2309 1.495 . S
C2306 C2305 1.392 . S
C2306 C2307 1.385 . S
C2306 C2308 1.478 . S
C2307 H2301 0.930 . S
C2307 C2303 1.400 . S
C2307 C2306 1.385 . S
C2308 C2306 1.478 . S
C2308 C2310 1.381 . S
C2308 C2314 1.383 . S
C2309 C2305 1.495 . S
C2309 H2315 0.959 . S
C2309 H2316 0.961 . S
C2309 H2317 0.960 . S
C2310 C2308 1.381 . S
C2310 C2311 1.394 . S
C2310 H2318 0.930 . S
C2311 C2310 1.394 . S
C2311 C2312 1.383 . S
C2311 H2319 0.929 . S
C2312 C2311 1.383 . S
C2312 C2313 1.377 . S
C2313 H2297 0.930 . S
C2313 C2312 1.377 . S
C2313 C2314 1.379 . S
C2314 H2298 0.931 . S
C2314 C2308 1.383 . S
C2314 C2313 1.379 . S
H2315 C2309 0.959 . S
H2316 C2309 0.961 . S
H2317 C2309 0.960 . S
H2318 C2310 0.930 . S
H2319 C2311 0.929 . S
H2320 C2328 0.929 . S
H2321 C2330 0.930 . S
H2322 C2332 0.930 . S
H2323 C2335 0.929 . S
H2324 C2338 0.930 . S
H2325 C2340 0.960 . S
H2326 C2340 0.960 . S
H2327 C2340 0.960 . S
C2328 H2320 0.929 . S
C2328 C2329 1.377 . S
C2328 C2330 1.384 . S
C2329 C2328 1.377 . S
C2329 C2335 1.390 . S
C2330 H2321 0.930 . S
C2330 C2328 1.384 . S
C2330 C2331 1.372 . S
C2331 C2330 1.372 . S
C2331 C2332 1.400 . S
C2331 C2336 1.490 . S
C2332 H2322 0.930 . S
C2332 C2331 1.400 . S
C2332 C2335 1.386 . S
H2333 C2349 0.931 . S
H2334 C2350 0.931 . S
C2335 H2323 0.929 . S
C2335 C2329 1.390 . S
C2335 C2332 1.386 . S
C2336 C2331 1.490 . S
C2336 C2338 1.395 . S
C2336 C2339 1.403 . S
H2337 C2343 0.930 1_565 S
C2338 H2324 0.930 . S
C2338 C2336 1.395 . S
C2338 C2341 1.403 . S
C2339 C2336 1.403 . S
C2339 C2340 1.524 1_545 S
C2339 C2343 1.400 . S
C2340 H2325 0.960 . S
C2340 H2326 0.960 . S
C2340 H2327 0.960 . S
C2340 C2339 1.524 1_565 S
C2341 C2338 1.403 . S
C2341 C2342 1.392 . S
C2341 C2345 1.495 . S
C2342 C2341 1.392 . S
C2342 C2343 1.385 . S
C2342 C2344 1.478 . S
C2343 H2337 0.930 1_545 S
C2343 C2339 1.400 . S
C2343 C2342 1.385 . S
C2344 C2342 1.478 . S
C2344 C2346 1.381 . S
C2344 C2350 1.383 . S
C2345 C2341 1.495 . S
C2345 H2351 0.959 . S
C2345 H2352 0.961 . S
C2345 H2353 0.960 . S
C2346 C2344 1.381 . S
C2346 C2347 1.394 . S
C2346 H2354 0.930 . S
C2347 C2346 1.394 . S
C2347 C2348 1.383 . S
C2347 H2355 0.929 . S
C2348 C2347 1.383 . S
C2348 C2349 1.377 . S
C2349 H2333 0.931 . S
C2349 C2348 1.377 . S
C2349 C2350 1.379 . S
C2350 H2334 0.931 . S
C2350 C2344 1.383 . S
C2350 C2349 1.379 . S
H2351 C2345 0.959 . S
H2352 C2345 0.961 . S
H2353 C2345 0.960 . S
H2354 C2346 0.930 . S
H2355 C2347 0.929 . S
H2356 C2364 0.929 . S
H2357 C2366 0.930 . S
H2358 C2368 0.930 . S
H2359 C2371 0.929 . S
H2360 C2374 0.930 . S
H2361 C2376 0.960 . S
H2362 C2376 0.960 . S
H2363 C2376 0.960 . S
C2364 H2356 0.929 . S
C2364 C2365 1.377 . S
C2364 C2366 1.384 . S
C2365 C2364 1.377 . S
C2365 C2371 1.390 . S
C2366 H2357 0.930 . S
C2366 C2364 1.384 . S
C2366 C2367 1.372 . S
C2367 C2366 1.372 . S
C2367 C2368 1.400 . S
C2367 C2372 1.490 . S
C2368 H2358 0.930 . S
C2368 C2367 1.400 . S
C2368 C2371 1.386 . S
H2369 C2385 0.930 . S
H2370 C2386 0.931 . S
C2371 H2359 0.929 . S
C2371 C2365 1.390 . S
C2371 C2368 1.386 . S
C2372 C2367 1.490 . S
C2372 C2374 1.395 . S
C2372 C2375 1.403 . S
H2373 C2379 0.930 . S
C2374 H2360 0.930 . S
C2374 C2372 1.395 . S
C2374 C2377 1.403 . S
C2375 C2372 1.403 . S
C2375 C2376 1.524 . S
C2375 C2379 1.400 . S
C2376 H2361 0.960 . S
C2376 H2362 0.960 . S
C2376 H2363 0.960 . S
C2376 C2375 1.524 . S
C2377 C2374 1.403 . S
C2377 C2378 1.392 . S
C2377 C2381 1.495 . S
C2378 C2377 1.392 . S
C2378 C2379 1.385 . S
C2378 C2380 1.478 . S
C2379 H2373 0.930 . S
C2379 C2375 1.400 . S
C2379 C2378 1.385 . S
C2380 C2378 1.478 . S
C2380 C2382 1.381 . S
C2380 C2386 1.383 . S
C2381 C2377 1.495 . S
C2381 H2387 0.959 . S
C2381 H2388 0.961 . S
C2381 H2389 0.960 . S
C2382 C2380 1.381 . S
C2382 C2383 1.394 . S
C2382 H2390 0.930 . S
C2383 C2382 1.394 . S
C2383 C2384 1.383 . S
C2383 H2391 0.929 . S
C2384 C2383 1.383 . S
C2384 C2385 1.377 . S
C2385 H2369 0.930 . S
C2385 C2384 1.377 . S
C2385 C2386 1.379 . S
C2386 H2370 0.931 . S
C2386 C2380 1.383 . S
C2386 C2385 1.379 . S
H2387 C2381 0.959 . S
H2388 C2381 0.961 . S
H2389 C2381 0.960 . S
H2390 C2382 0.930 . S
H2391 C2383 0.929 . S
H2392 C2400 0.929 . S
H2393 C2402 0.930 . S
H2394 C2404 0.930 . S
H2395 C2407 0.929 . S
H2396 C2410 0.930 . S
H2397 C2412 0.960 . S
H2398 C2412 0.960 . S
H2399 C2412 0.960 . S
C2400 H2392 0.929 . S
C2400 C2401 1.377 . S
C2400 C2402 1.384 . S
C2401 C2400 1.377 . S
C2401 C2407 1.390 . S
C2402 H2393 0.930 . S
C2402 C2400 1.384 . S
C2402 C2403 1.372 . S
C2403 C2402 1.372 . S
C2403 C2404 1.400 . S
C2403 C2408 1.490 . S
C2404 H2394 0.930 . S
C2404 C2403 1.400 . S
C2404 C2407 1.386 . S
H2405 C2421 0.930 1_556 S
H2406 C2422 0.931 . S
C2407 H2395 0.929 . S
C2407 C2401 1.390 . S
C2407 C2404 1.386 . S
C2408 C2403 1.490 . S
C2408 C2410 1.395 . S
C2408 C2411 1.403 . S
H2409 C2415 0.930 . S
C2410 H2396 0.930 . S
C2410 C2408 1.395 . S
C2410 C2413 1.403 . S
C2411 C2408 1.403 . S
C2411 C2412 1.524 . S
C2411 C2415 1.400 . S
C2412 H2397 0.960 . S
C2412 H2398 0.960 . S
C2412 H2399 0.960 . S
C2412 C2411 1.524 . S
C2413 C2410 1.403 . S
C2413 C2414 1.392 . S
C2413 C2417 1.495 . S
C2414 C2413 1.392 . S
C2414 C2415 1.385 . S
C2414 C2416 1.478 . S
C2415 H2409 0.930 . S
C2415 C2411 1.400 . S
C2415 C2414 1.385 . S
C2416 C2414 1.478 . S
C2416 C2418 1.381 . S
C2416 C2422 1.383 . S
C2417 C2413 1.495 . S
C2417 H2423 0.959 . S
C2417 H2424 0.961 1_554 S
C2417 H2425 0.960 . S
C2418 C2416 1.381 . S
C2418 C2419 1.394 . S
C2418 H2426 0.930 . S
C2419 C2418 1.394 . S
C2419 C2420 1.383 . S
C2419 H2427 0.929 . S
C2420 C2419 1.383 . S
C2420 C2421 1.377 . S
C2421 H2405 0.930 1_554 S
C2421 C2420 1.377 . S
C2421 C2422 1.379 . S
C2422 H2406 0.931 . S
C2422 C2416 1.383 . S
C2422 C2421 1.379 . S
H2423 C2417 0.959 . S
H2424 C2417 0.961 1_556 S
H2425 C2417 0.960 . S
H2426 C2418 0.930 . S
H2427 C2419 0.929 . S
H2428 C2436 0.929 . S
H2429 C2438 0.930 . S
H2430 C2440 0.930 . S
H2431 C2443 0.929 . S
H2432 C2446 0.930 . S
H2433 C2448 0.960 . S
H2434 C2448 0.960 . S
H2435 C2448 0.960 . S
C2436 H2428 0.929 . S
C2436 C2437 1.377 . S
C2436 C2438 1.384 . S
C2437 C2436 1.377 . S
C2437 C2443 1.390 . S
C2438 H2429 0.930 . S
C2438 C2436 1.384 . S
C2438 C2439 1.372 . S
C2439 C2438 1.372 . S
C2439 C2440 1.400 . S
C2439 C2444 1.490 . S
C2440 H2430 0.930 . S
C2440 C2439 1.400 . S
C2440 C2443 1.386 . S
H2441 C2457 0.930 . S
H2442 C2458 0.931 . S
C2443 H2431 0.929 . S
C2443 C2437 1.390 . S
C2443 C2440 1.386 . S
C2444 C2439 1.490 . S
C2444 C2446 1.395 . S
C2444 C2447 1.403 . S
H2445 C2451 0.930 . S
C2446 H2432 0.930 . S
C2446 C2444 1.395 . S
C2446 C2449 1.403 . S
C2447 C2444 1.403 . S
C2447 C2448 1.524 . S
C2447 C2451 1.400 . S
C2448 H2433 0.960 . S
C2448 H2434 0.960 . S
C2448 H2435 0.960 . S
C2448 C2447 1.524 . S
C2449 C2446 1.403 . S
C2449 C2450 1.392 . S
C2449 C2453 1.495 1_554 S
C2450 C2449 1.392 . S
C2450 C2451 1.385 . S
C2450 C2452 1.478 . S
C2451 H2445 0.930 . S
C2451 C2447 1.400 . S
C2451 C2450 1.385 . S
C2452 C2450 1.478 . S
C2452 C2454 1.381 . S
C2452 C2458 1.383 . S
C2453 C2449 1.495 1_556 S
C2453 H2459 0.959 . S
C2453 H2460 0.961 . S
C2453 H2461 0.960 1_556 S
C2454 C2452 1.381 . S
C2454 C2455 1.394 . S
C2454 H2462 0.930 . S
C2455 C2454 1.394 . S
C2455 C2456 1.383 . S
C2455 H2463 0.929 . S
C2456 C2455 1.383 . S
C2456 C2457 1.377 . S
C2457 H2441 0.930 . S
C2457 C2456 1.377 . S
C2457 C2458 1.379 . S
C2458 H2442 0.931 . S
C2458 C2452 1.383 . S
C2458 C2457 1.379 . S
H2459 C2453 0.959 . S
H2460 C2453 0.961 . S
H2461 C2453 0.960 1_554 S
H2462 C2454 0.930 . S
H2463 C2455 0.929 . S
H2464 C2472 0.929 . S
H2465 C2474 0.930 . S
H2466 C2476 0.930 . S
H2467 C2479 0.929 . S
H2468 C2482 0.930 . S
H2469 C2484 0.960 . S
H2470 C2484 0.960 . S
H2471 C2484 0.960 . S
C2472 H2464 0.929 . S
C2472 C2473 1.377 . S
C2472 C2474 1.384 . S
C2473 C2472 1.377 . S
C2473 C2479 1.390 . S
C2474 H2465 0.930 . S
C2474 C2472 1.384 . S
C2474 C2475 1.372 . S
C2475 C2474 1.372 . S
C2475 C2476 1.400 . S
C2475 C2480 1.490 . S
C2476 H2466 0.930 . S
C2476 C2475 1.400 . S
C2476 C2479 1.386 . S
H2477 C2493 0.930 . S
H2478 C2494 0.931 . S
C2479 H2467 0.929 . S
C2479 C2473 1.390 . S
C2479 C2476 1.386 . S
C2480 C2475 1.490 . S
C2480 C2482 1.395 . S
C2480 C2483 1.403 . S
H2481 C2487 0.930 . S
C2482 H2468 0.930 . S
C2482 C2480 1.395 . S
C2482 C2485 1.403 . S
C2483 C2480 1.403 . S
C2483 C2484 1.524 . S
C2483 C2487 1.400 . S
C2484 H2469 0.960 . S
C2484 H2470 0.960 . S
C2484 H2471 0.960 . S
C2484 C2483 1.524 . S
C2485 C2482 1.403 . S
C2485 C2486 1.392 . S
C2485 C2489 1.495 . S
C2486 C2485 1.392 . S
C2486 C2487 1.385 . S
C2486 C2488 1.478 . S
C2487 H2481 0.930 . S
C2487 C2483 1.400 . S
C2487 C2486 1.385 . S
C2488 C2486 1.478 . S
C2488 C2490 1.381 . S
C2488 C2494 1.383 . S
C2489 C2485 1.495 . S
C2489 H2495 0.959 . S
C2489 H2496 0.961 . S
C2489 H2497 0.960 . S
C2490 C2488 1.381 . S
C2490 C2491 1.394 . S
C2490 H2498 0.930 . S
C2491 C2490 1.394 . S
C2491 C2492 1.383 . S
C2491 H2499 0.929 . S
C2492 C2491 1.383 . S
C2492 C2493 1.377 . S
C2493 H2477 0.930 . S
C2493 C2492 1.377 . S
C2493 C2494 1.379 . S
C2494 H2478 0.931 . S
C2494 C2488 1.383 . S
C2494 C2493 1.379 . S
H2495 C2489 0.959 . S
H2496 C2489 0.961 . S
H2497 C2489 0.960 . S
H2498 C2490 0.930 . S
H2499 C2491 0.929 . S
H2500 C2508 0.929 . S
H2501 C2510 0.930 . S
H2502 C2512 0.930 . S
H2503 C2515 0.929 . S
H2504 C2518 0.930 . S
H2505 C2520 0.960 . S
H2506 C2520 0.960 . S
H2507 C2520 0.960 . S
C2508 H2500 0.929 . S
C2508 C2509 1.377 . S
C2508 C2510 1.384 . S
C2509 C2508 1.377 . S
C2509 C2515 1.390 . S
C2510 H2501 0.930 . S
C2510 C2508 1.384 . S
C2510 C2511 1.372 . S
C2511 C2510 1.372 . S
C2511 C2512 1.400 . S
C2511 C2516 1.490 . S
C2512 H2502 0.930 . S
C2512 C2511 1.400 . S
C2512 C2515 1.386 . S
H2513 C2529 0.930 . S
H2514 C2530 0.931 . S
C2515 H2503 0.929 . S
C2515 C2509 1.390 . S
C2515 C2512 1.386 . S
C2516 C2511 1.490 . S
C2516 C2518 1.395 . S
C2516 C2519 1.403 . S
H2517 C2523 0.930 . S
C2518 H2504 0.930 . S
C2518 C2516 1.395 . S
C2518 C2521 1.403 . S
C2519 C2516 1.403 . S
C2519 C2520 1.524 . S
C2519 C2523 1.400 . S
C2520 H2505 0.960 . S
C2520 H2506 0.960 . S
C2520 H2507 0.960 . S
C2520 C2519 1.524 . S
C2521 C2518 1.403 . S
C2521 C2522 1.392 . S
C2521 C2525 1.495 . S
C2522 C2521 1.392 . S
C2522 C2523 1.385 . S
C2522 C2524 1.478 . S
C2523 H2517 0.930 . S
C2523 C2519 1.400 . S
C2523 C2522 1.385 . S
C2524 C2522 1.478 . S
C2524 C2526 1.381 . S
C2524 C2530 1.383 . S
C2525 C2521 1.495 . S
C2525 H2531 0.959 . S
C2525 H2532 0.961 . S
C2525 H2533 0.960 . S
C2526 C2524 1.381 . S
C2526 C2527 1.394 . S
C2526 H2534 0.930 . S
C2527 C2526 1.394 . S
C2527 C2528 1.383 . S
C2527 H2535 0.929 . S
C2528 C2527 1.383 . S
C2528 C2529 1.377 . S
C2529 H2513 0.930 . S
C2529 C2528 1.377 . S
C2529 C2530 1.379 . S
C2530 H2514 0.931 . S
C2530 C2524 1.383 . S
C2530 C2529 1.379 . S
H2531 C2525 0.959 . S
H2532 C2525 0.961 . S
H2533 C2525 0.960 . S
H2534 C2526 0.930 . S
H2535 C2527 0.929 . S
H2536 C2544 0.929 . S
H2537 C2546 0.930 . S
H2538 C2548 0.930 . S
H2539 C2551 0.929 . S
H2540 C2554 0.930 . S
H2541 C2556 0.960 . S
H2542 C2556 0.960 . S
H2543 C2556 0.960 . S
C2544 H2536 0.929 . S
C2544 C2545 1.377 . S
C2544 C2546 1.384 . S
C2545 C2544 1.377 . S
C2545 C2551 1.390 . S
C2546 H2537 0.930 . S
C2546 C2544 1.384 . S
C2546 C2547 1.372 . S
C2547 C2546 1.372 . S
C2547 C2548 1.400 . S
C2547 C2552 1.490 . S
C2548 H2538 0.930 . S
C2548 C2547 1.400 . S
C2548 C2551 1.386 . S
H2549 C2565 0.930 . S
H2550 C2566 0.931 . S
C2551 H2539 0.929 . S
C2551 C2545 1.390 . S
C2551 C2548 1.386 . S
C2552 C2547 1.490 . S
C2552 C2554 1.395 . S
C2552 C2555 1.403 . S
H2553 C2559 0.930 . S
C2554 H2540 0.930 . S
C2554 C2552 1.395 . S
C2554 C2557 1.403 . S
C2555 C2552 1.403 . S
C2555 C2556 1.524 . S
C2555 C2559 1.400 . S
C2556 H2541 0.960 . S
C2556 H2542 0.960 . S
C2556 H2543 0.960 . S
C2556 C2555 1.524 . S
C2557 C2554 1.403 . S
C2557 C2558 1.392 . S
C2557 C2561 1.495 . S
C2558 C2557 1.392 . S
C2558 C2559 1.385 . S
C2558 C2560 1.478 . S
C2559 H2553 0.930 . S
C2559 C2555 1.400 . S
C2559 C2558 1.385 . S
C2560 C2558 1.478 . S
C2560 C2562 1.381 . S
C2560 C2566 1.383 . S
C2561 C2557 1.495 . S
C2561 H2567 0.959 . S
C2561 H2568 0.961 . S
C2561 H2569 0.960 . S
C2562 C2560 1.381 . S
C2562 C2563 1.394 . S
C2562 H2570 0.930 . S
C2563 C2562 1.394 . S
C2563 C2564 1.383 . S
C2563 H2571 0.929 . S
C2564 C2563 1.383 . S
C2564 C2565 1.377 . S
C2565 H2549 0.930 . S
C2565 C2564 1.377 . S
C2565 C2566 1.379 . S
C2566 H2550 0.931 . S
C2566 C2560 1.383 . S
C2566 C2565 1.379 . S
H2567 C2561 0.959 . S
H2568 C2561 0.961 . S
H2569 C2561 0.960 . S
H2570 C2562 0.930 . S
H2571 C2563 0.929 . S
H2572 C2580 0.929 . S
H2573 C2582 0.930 . S
H2574 C2584 0.930 . S
H2575 C2587 0.929 . S
H2576 C2590 0.930 . S
H2577 C2592 0.960 . S
H2578 C2592 0.960 . S
H2579 C2592 0.960 . S
C2580 H2572 0.929 . S
C2580 C2581 1.377 . S
C2580 C2582 1.384 . S
C2581 C2580 1.377 . S
C2581 C2587 1.390 . S
C2582 H2573 0.930 . S
C2582 C2580 1.384 . S
C2582 C2583 1.372 . S
C2583 C2582 1.372 . S
C2583 C2584 1.400 . S
C2583 C2588 1.490 . S
C2584 H2574 0.930 . S
C2584 C2583 1.400 . S
C2584 C2587 1.386 . S
H2585 C2601 0.930 . S
H2586 C2602 0.931 . S
C2587 H2575 0.929 . S
C2587 C2581 1.390 . S
C2587 C2584 1.386 . S
C2588 C2583 1.490 . S
C2588 C2590 1.395 . S
C2588 C2591 1.403 . S
H2589 C2595 0.930 . S
C2590 H2576 0.930 . S
C2590 C2588 1.395 . S
C2590 C2593 1.403 . S
C2591 C2588 1.403 . S
C2591 C2592 1.524 . S
C2591 C2595 1.400 . S
C2592 H2577 0.960 . S
C2592 H2578 0.960 . S
C2592 H2579 0.960 . S
C2592 C2591 1.524 . S
C2593 C2590 1.403 . S
C2593 C2594 1.392 . S
C2593 C2597 1.495 . S
C2594 C2593 1.392 . S
C2594 C2595 1.385 . S
C2594 C2596 1.478 . S
C2595 H2589 0.930 . S
C2595 C2591 1.400 . S
C2595 C2594 1.385 . S
C2596 C2594 1.478 . S
C2596 C2598 1.381 . S
C2596 C2602 1.383 . S
C2597 C2593 1.495 . S
C2597 H2603 0.959 . S
C2597 H2604 0.961 . S
C2597 H2605 0.960 . S
C2598 C2596 1.381 . S
C2598 C2599 1.394 . S
C2598 H2606 0.930 . S
C2599 C2598 1.394 . S
C2599 C2600 1.383 . S
C2599 H2607 0.929 . S
C2600 C2599 1.383 . S
C2600 C2601 1.377 . S
C2601 H2585 0.930 . S
C2601 C2600 1.377 . S
C2601 C2602 1.379 . S
C2602 H2586 0.931 . S
C2602 C2596 1.383 . S
C2602 C2601 1.379 . S
H2603 C2597 0.959 . S
H2604 C2597 0.961 . S
H2605 C2597 0.960 . S
H2606 C2598 0.930 . S
H2607 C2599 0.929 . S
H2608 C2616 0.929 . S
H2609 C2618 0.930 . S
H2610 C2620 0.930 . S
H2611 C2623 0.929 . S
H2612 C2626 0.930 . S
H2613 C2628 0.960 . S
H2614 C2628 0.960 . S
H2615 C2628 0.960 . S
C2616 H2608 0.929 . S
C2616 C2617 1.377 . S
C2616 C2618 1.384 . S
C2617 C2616 1.377 . S
C2617 C2623 1.390 . S
C2618 H2609 0.930 . S
C2618 C2616 1.384 . S
C2618 C2619 1.372 . S
C2619 C2618 1.372 . S
C2619 C2620 1.400 . S
C2619 C2624 1.490 . S
C2620 H2610 0.930 . S
C2620 C2619 1.400 . S
C2620 C2623 1.386 . S
H2621 C2637 0.930 . S
H2622 C2638 0.931 . S
C2623 H2611 0.929 . S
C2623 C2617 1.390 . S
C2623 C2620 1.386 . S
C2624 C2619 1.490 . S
C2624 C2626 1.395 . S
C2624 C2627 1.403 . S
H2625 C2631 0.930 . S
C2626 H2612 0.930 . S
C2626 C2624 1.395 . S
C2626 C2629 1.403 . S
C2627 C2624 1.403 . S
C2627 C2628 1.524 . S
C2627 C2631 1.400 . S
C2628 H2613 0.960 . S
C2628 H2614 0.960 . S
C2628 H2615 0.960 . S
C2628 C2627 1.524 . S
C2629 C2626 1.403 . S
C2629 C2630 1.392 . S
C2629 C2633 1.495 . S
C2630 C2629 1.392 . S
C2630 C2631 1.385 . S
C2630 C2632 1.478 . S
C2631 H2625 0.930 . S
C2631 C2627 1.400 . S
C2631 C2630 1.385 . S
C2632 C2630 1.478 . S
C2632 C2634 1.381 . S
C2632 C2638 1.383 . S
C2633 C2629 1.495 . S
C2633 H2639 0.959 . S
C2633 H2640 0.961 . S
C2633 H2641 0.960 . S
C2634 C2632 1.381 . S
C2634 C2635 1.394 . S
C2634 H2642 0.930 . S
C2635 C2634 1.394 . S
C2635 C2636 1.383 . S
C2635 H2643 0.929 . S
C2636 C2635 1.383 . S
C2636 C2637 1.377 . S
C2637 H2621 0.930 . S
C2637 C2636 1.377 . S
C2637 C2638 1.379 . S
C2638 H2622 0.931 . S
C2638 C2632 1.383 . S
C2638 C2637 1.379 . S
H2639 C2633 0.959 . S
H2640 C2633 0.961 . S
H2641 C2633 0.960 . S
H2642 C2634 0.930 . S
H2643 C2635 0.929 . S
H2644 C2652 0.929 . S
H2645 C2654 0.930 . S
H2646 C2656 0.930 . S
H2647 C2659 0.929 . S
H2648 C2662 0.930 . S
H2649 C2664 0.960 . S
H2650 C2664 0.960 . S
H2651 C2664 0.960 . S
C2652 H2644 0.929 . S
C2652 C2653 1.377 . S
C2652 C2654 1.384 . S
C2653 C2652 1.377 . S
C2653 C2659 1.390 . S
C2654 H2645 0.930 . S
C2654 C2652 1.384 . S
C2654 C2655 1.372 . S
C2655 C2654 1.372 . S
C2655 C2656 1.400 . S
C2655 C2660 1.490 . S
C2656 H2646 0.930 . S
C2656 C2655 1.400 . S
C2656 C2659 1.386 . S
H2657 C2673 0.930 . S
H2658 C2674 0.931 . S
C2659 H2647 0.929 . S
C2659 C2653 1.390 . S
C2659 C2656 1.386 . S
C2660 C2655 1.490 . S
C2660 C2662 1.395 . S
C2660 C2663 1.403 . S
H2661 C2667 0.930 . S
C2662 H2648 0.930 . S
C2662 C2660 1.395 . S
C2662 C2665 1.403 . S
C2663 C2660 1.403 . S
C2663 C2664 1.524 . S
C2663 C2667 1.400 . S
C2664 H2649 0.960 . S
C2664 H2650 0.960 . S
C2664 H2651 0.960 . S
C2664 C2663 1.524 . S
C2665 C2662 1.403 . S
C2665 C2666 1.392 . S
C2665 C2669 1.495 . S
C2666 C2665 1.392 . S
C2666 C2667 1.385 . S
C2666 C2668 1.478 . S
C2667 H2661 0.930 . S
C2667 C2663 1.400 . S
C2667 C2666 1.385 . S
C2668 C2666 1.478 . S
C2668 C2670 1.381 . S
C2668 C2674 1.383 . S
C2669 C2665 1.495 . S
C2669 H2675 0.959 . S
C2669 H2676 0.961 . S
C2669 H2677 0.960 . S
C2670 C2668 1.381 . S
C2670 C2671 1.394 . S
C2670 H2678 0.930 . S
C2671 C2670 1.394 . S
C2671 C2672 1.383 . S
C2671 H2679 0.929 . S
C2672 C2671 1.383 . S
C2672 C2673 1.377 . S
C2673 H2657 0.930 . S
C2673 C2672 1.377 . S
C2673 C2674 1.379 . S
C2674 H2658 0.931 . S
C2674 C2668 1.383 . S
C2674 C2673 1.379 . S
H2675 C2669 0.959 . S
H2676 C2669 0.961 . S
H2677 C2669 0.960 . S
H2678 C2670 0.930 . S
H2679 C2671 0.929 . S
H2680 C2688 0.929 . S
H2681 C2690 0.930 . S
H2682 C2692 0.930 . S
H2683 C2695 0.929 . S
H2684 C2698 0.930 . S
H2685 C2700 0.960 . S
H2686 C2700 0.960 . S
H2687 C2700 0.960 . S
C2688 H2680 0.929 . S
C2688 C2689 1.377 . S
C2688 C2690 1.384 . S
C2689 C2688 1.377 . S
C2689 C2695 1.390 . S
C2690 H2681 0.930 . S
C2690 C2688 1.384 . S
C2690 C2691 1.372 . S
C2691 C2690 1.372 . S
C2691 C2692 1.400 . S
C2691 C2696 1.490 . S
C2692 H2682 0.930 . S
C2692 C2691 1.400 . S
C2692 C2695 1.386 . S
H2693 C2709 0.930 . S
H2694 C2710 0.931 . S
C2695 H2683 0.929 . S
C2695 C2689 1.390 . S
C2695 C2692 1.386 . S
C2696 C2691 1.490 . S
C2696 C2698 1.395 . S
C2696 C2699 1.403 . S
H2697 C2703 0.930 . S
C2698 H2684 0.930 . S
C2698 C2696 1.395 . S
C2698 C2701 1.403 . S
C2699 C2696 1.403 . S
C2699 C2700 1.524 . S
C2699 C2703 1.400 . S
C2700 H2685 0.960 . S
C2700 H2686 0.960 . S
C2700 H2687 0.960 . S
C2700 C2699 1.524 . S
C2701 C2698 1.403 . S
C2701 C2702 1.392 . S
C2701 C2705 1.495 . S
C2702 C2701 1.392 . S
C2702 C2703 1.385 . S
C2702 C2704 1.478 . S
C2703 H2697 0.930 . S
C2703 C2699 1.400 . S
C2703 C2702 1.385 . S
C2704 C2702 1.478 . S
C2704 C2706 1.381 . S
C2704 C2710 1.383 . S
C2705 C2701 1.495 . S
C2705 H2711 0.959 . S
C2705 H2712 0.961 . S
C2705 H2713 0.960 . S
C2706 C2704 1.381 . S
C2706 C2707 1.394 . S
C2706 H2714 0.930 . S
C2707 C2706 1.394 . S
C2707 C2708 1.383 . S
C2707 H2715 0.929 . S
C2708 C2707 1.383 . S
C2708 C2709 1.377 . S
C2709 H2693 0.930 . S
C2709 C2708 1.377 . S
C2709 C2710 1.379 . S
C2710 H2694 0.931 . S
C2710 C2704 1.383 . S
C2710 C2709 1.379 . S
H2711 C2705 0.959 . S
H2712 C2705 0.961 . S
H2713 C2705 0.960 . S
H2714 C2706 0.930 . S
H2715 C2707 0.929 . S
H2716 C2724 0.929 . S
H2717 C2726 0.930 . S
H2718 C2728 0.930 . S
H2719 C2731 0.929 . S
H2720 C2734 0.930 . S
H2721 C2736 0.960 . S
H2722 C2736 0.960 . S
H2723 C2736 0.960 . S
C2724 H2716 0.929 . S
C2724 C2725 1.377 . S
C2724 C2726 1.384 . S
C2725 C2724 1.377 . S
C2725 C2731 1.390 . S
C2726 H2717 0.930 . S
C2726 C2724 1.384 . S
C2726 C2727 1.372 . S
C2727 C2726 1.372 . S
C2727 C2728 1.400 . S
C2727 C2732 1.490 . S
C2728 H2718 0.930 . S
C2728 C2727 1.400 . S
C2728 C2731 1.386 . S
H2729 C2745 0.930 . S
H2730 C2746 0.931 . S
C2731 H2719 0.929 . S
C2731 C2725 1.390 . S
C2731 C2728 1.386 . S
C2732 C2727 1.490 . S
C2732 C2734 1.395 . S
C2732 C2735 1.403 . S
H2733 C2739 0.930 . S
C2734 H2720 0.930 . S
C2734 C2732 1.395 . S
C2734 C2737 1.403 . S
C2735 C2732 1.403 . S
C2735 C2736 1.524 . S
C2735 C2739 1.400 . S
C2736 H2721 0.960 . S
C2736 H2722 0.960 . S
C2736 H2723 0.960 . S
C2736 C2735 1.524 . S
C2737 C2734 1.403 . S
C2737 C2738 1.392 . S
C2737 C2741 1.495 . S
C2738 C2737 1.392 . S
C2738 C2739 1.385 . S
C2738 C2740 1.478 . S
C2739 H2733 0.930 . S
C2739 C2735 1.400 . S
C2739 C2738 1.385 . S
C2740 C2738 1.478 . S
C2740 C2742 1.381 . S
C2740 C2746 1.383 . S
C2741 C2737 1.495 . S
C2741 H2747 0.959 . S
C2741 H2748 0.961 . S
C2741 H2749 0.960 . S
C2742 C2740 1.381 . S
C2742 C2743 1.394 . S
C2742 H2750 0.930 . S
C2743 C2742 1.394 . S
C2743 C2744 1.383 . S
C2743 H2751 0.929 . S
C2744 C2743 1.383 . S
C2744 C2745 1.377 . S
C2745 H2729 0.930 . S
C2745 C2744 1.377 . S
C2745 C2746 1.379 . S
C2746 H2730 0.931 . S
C2746 C2740 1.383 . S
C2746 C2745 1.379 . S
H2747 C2741 0.959 . S
H2748 C2741 0.961 . S
H2749 C2741 0.960 . S
H2750 C2742 0.930 . S
H2751 C2743 0.929 . S
H2752 C2760 0.929 1_655 S
H2753 C2762 0.930 1_655 S
H2754 C2764 0.930 . S
H2755 C2767 0.929 . S
H2756 C2770 0.930 . S
H2757 C2772 0.960 . S
H2758 C2772 0.960 . S
H2759 C2772 0.960 . S
C2760 H2752 0.929 1_455 S
C2760 C2761 1.377 . S
C2760 C2762 1.384 . S
C2761 C2760 1.377 . S
C2761 C2767 1.390 . S
C2762 H2753 0.930 1_455 S
C2762 C2760 1.384 . S
C2762 C2763 1.372 . S
C2763 C2762 1.372 . S
C2763 C2764 1.400 . S
C2763 C2768 1.490 . S
C2764 H2754 0.930 . S
C2764 C2763 1.400 . S
C2764 C2767 1.386 . S
H2765 C2781 0.930 . S
H2766 C2782 0.931 . S
C2767 H2755 0.929 . S
C2767 C2761 1.390 . S
C2767 C2764 1.386 . S
C2768 C2763 1.490 . S
C2768 C2770 1.395 . S
C2768 C2771 1.403 . S
H2769 C2775 0.930 . S
C2770 H2756 0.930 . S
C2770 C2768 1.395 . S
C2770 C2773 1.403 1_556 S
C2771 C2768 1.403 . S
C2771 C2772 1.524 . S
C2771 C2775 1.400 . S
C2772 H2757 0.960 . S
C2772 H2758 0.960 . S
C2772 H2759 0.960 . S
C2772 C2771 1.524 . S
C2773 C2770 1.403 1_554 S
C2773 C2774 1.392 1_554 S
C2773 C2777 1.495 . S
C2774 C2773 1.392 1_556 S
C2774 C2775 1.385 . S
C2774 C2776 1.478 1_556 S
C2775 H2769 0.930 . S
C2775 C2771 1.400 . S
C2775 C2774 1.385 . S
C2776 C2774 1.478 1_554 S
C2776 C2778 1.381 . S
C2776 C2782 1.383 . S
C2777 C2773 1.495 . S
C2777 H2783 0.973 . S
C2777 H2784 0.961 . S
C2777 H2785 0.960 1_455 S
C2778 C2776 1.381 . S
C2778 C2779 1.394 . S
C2778 H2786 0.923 1_454 S
C2779 C2778 1.394 . S
C2779 C2780 1.383 . S
C2779 H2787 0.925 1_455 S
C2780 C2779 1.383 . S
C2780 C2781 1.377 . S
C2781 H2765 0.930 . S
C2781 C2780 1.377 . S
C2781 C2782 1.379 . S
C2782 H2766 0.931 . S
C2782 C2776 1.383 . S
C2782 C2781 1.379 . S
H2783 C2777 0.973 . S
H2784 C2777 0.961 . S
H2785 C2777 0.960 1_655 S
H2786 C2778 0.923 1_656 S
H2787 C2779 0.925 1_655 S
H2788 C2796 0.973 . S
H2789 C2798 0.930 . S
H2790 C2800 0.930 . S
H2791 C2803 0.929 . S
H2792 C2806 0.930 . S
H2793 C2808 0.960 . S
H2794 C2808 0.960 . S
H2795 C2808 0.960 . S
C2796 H2788 0.973 . S
C2796 C2797 1.384 . S
C2796 C2798 1.337 1_455 S
C2797 C2796 1.384 . S
C2797 C2803 1.390 1_455 S
C2798 H2789 0.930 . S
C2798 C2796 1.337 1_655 S
C2798 C2799 1.372 . S
C2799 C2798 1.372 . S
C2799 C2800 1.400 . S
C2799 C2804 1.490 . S
C2800 H2790 0.930 . S
C2800 C2799 1.400 . S
C2800 C2803 1.386 . S
H2801 C2817 0.930 . S
H2802 C2818 0.931 . S
C2803 H2791 0.929 . S
C2803 C2797 1.390 1_655 S
C2803 C2800 1.386 . S
C2804 C2799 1.490 . S
C2804 C2806 1.395 . S
C2804 C2807 1.403 . S
H2805 C2811 0.930 . S
C2806 H2792 0.930 . S
C2806 C2804 1.395 . S
C2806 C2809 1.403 . S
C2807 C2804 1.403 . S
C2807 C2808 1.524 . S
C2807 C2811 1.400 . S
C2808 H2793 0.960 . S
C2808 H2794 0.960 . S
C2808 H2795 0.960 . S
C2808 C2807 1.524 . S
C2809 C2806 1.403 . S
C2809 C2810 1.392 . S
C2809 C2813 1.495 . S
C2810 C2809 1.392 . S
C2810 C2811 1.385 . S
C2810 C2812 1.478 . S
C2811 H2805 0.930 . S
C2811 C2807 1.400 . S
C2811 C2810 1.385 . S
C2812 C2810 1.478 . S
C2812 C2814 1.381 . S
C2812 C2818 1.383 . S
C2813 C2809 1.495 . S
C2813 H2819 0.959 . S
C2813 H2820 0.961 . S
C2813 H2821 0.960 . S
C2814 C2812 1.381 . S
C2814 C2815 1.394 . S
C2814 H2822 0.930 . S
C2815 C2814 1.394 . S
C2815 C2816 1.383 . S
C2815 H2823 0.929 . S
C2816 C2815 1.383 . S
C2816 C2817 1.377 . S
C2817 H2801 0.930 . S
C2817 C2816 1.377 . S
C2817 C2818 1.379 . S
C2818 H2802 0.931 . S
C2818 C2812 1.383 . S
C2818 C2817 1.379 . S
H2819 C2813 0.959 . S
H2820 C2813 0.961 . S
H2821 C2813 0.960 . S
H2822 C2814 0.930 . S
H2823 C2815 0.929 . S
H2824 C2832 0.929 . S
H2825 C2834 0.930 . S
H2826 C2836 0.930 . S
H2827 C2839 0.929 . S
H2828 C2842 0.930 . S
H2829 C2844 0.960 . S
H2830 C2844 0.960 . S
H2831 C2844 0.960 . S
C2832 H2824 0.929 . S
C2832 C2833 1.377 . S
C2832 C2834 1.384 . S
C2833 C2832 1.377 . S
C2833 C2839 1.390 . S
C2834 H2825 0.930 . S
C2834 C2832 1.384 . S
C2834 C2835 1.372 . S
C2835 C2834 1.372 . S
C2835 C2836 1.400 . S
C2835 C2840 1.490 . S
C2836 H2826 0.930 . S
C2836 C2835 1.400 . S
C2836 C2839 1.386 . S
H2837 C2853 0.930 . S
H2838 C2854 0.931 . S
C2839 H2827 0.929 . S
C2839 C2833 1.390 . S
C2839 C2836 1.386 . S
C2840 C2835 1.490 . S
C2840 C2842 1.395 . S
C2840 C2843 1.403 . S
H2841 C2847 0.930 . S
C2842 H2828 0.930 . S
C2842 C2840 1.395 . S
C2842 C2845 1.403 . S
C2843 C2840 1.403 . S
C2843 C2844 1.524 . S
C2843 C2847 1.400 . S
C2844 H2829 0.960 . S
C2844 H2830 0.960 . S
C2844 H2831 0.960 . S
C2844 C2843 1.524 . S
C2845 C2842 1.403 . S
C2845 C2846 1.392 . S
C2845 C2849 1.495 . S
C2846 C2845 1.392 . S
C2846 C2847 1.385 . S
C2846 C2848 1.478 . S
C2847 H2841 0.930 . S
C2847 C2843 1.400 . S
C2847 C2846 1.385 . S
C2848 C2846 1.478 . S
C2848 C2850 1.381 . S
C2848 C2854 1.383 . S
C2849 C2845 1.495 . S
C2849 H2855 0.959 . S
C2849 H2856 0.961 . S
C2849 H2857 0.960 . S
C2850 C2848 1.381 . S
C2850 C2851 1.394 . S
C2850 H2858 0.930 . S
C2851 C2850 1.394 . S
C2851 C2852 1.383 . S
C2851 H2859 0.929 . S
C2852 C2851 1.383 . S
C2852 C2853 1.377 . S
C2853 H2837 0.930 . S
C2853 C2852 1.377 . S
C2853 C2854 1.379 . S
C2854 H2838 0.931 . S
C2854 C2848 1.383 . S
C2854 C2853 1.379 . S
H2855 C2849 0.959 . S
H2856 C2849 0.961 . S
H2857 C2849 0.960 . S
H2858 C2850 0.930 . S
H2859 C2851 0.929 . S
H2860 C2868 0.929 . S
H2861 C2870 0.930 . S
H2862 C2872 0.930 . S
H2863 C2875 0.929 . S
H2864 C2878 0.930 . S
H2865 C2880 0.960 . S
H2866 C2880 0.960 . S
H2867 C2880 0.960 . S
C2868 H2860 0.929 . S
C2868 C2869 1.377 . S
C2868 C2870 1.384 . S
C2869 C2868 1.377 . S
C2869 C2875 1.390 . S
C2870 H2861 0.930 . S
C2870 C2868 1.384 . S
C2870 C2871 1.372 . S
C2871 C2870 1.372 . S
C2871 C2872 1.400 . S
C2871 C2876 1.490 . S
C2872 H2862 0.930 . S
C2872 C2871 1.400 . S
C2872 C2875 1.386 . S
H2873 C2889 0.930 . S
H2874 C2890 0.931 . S
C2875 H2863 0.929 . S
C2875 C2869 1.390 . S
C2875 C2872 1.386 . S
C2876 C2871 1.490 . S
C2876 C2878 1.395 . S
C2876 C2879 1.403 . S
H2877 C2883 0.930 . S
C2878 H2864 0.930 . S
C2878 C2876 1.395 . S
C2878 C2881 1.403 . S
C2879 C2876 1.403 . S
C2879 C2880 1.524 . S
C2879 C2883 1.400 . S
C2880 H2865 0.960 . S
C2880 H2866 0.960 . S
C2880 H2867 0.960 . S
C2880 C2879 1.524 . S
C2881 C2878 1.403 . S
C2881 C2882 1.392 . S
C2881 C2885 1.495 . S
C2882 C2881 1.392 . S
C2882 C2883 1.385 . S
C2882 C2884 1.478 . S
C2883 H2877 0.930 . S
C2883 C2879 1.400 . S
C2883 C2882 1.385 . S
C2884 C2882 1.478 . S
C2884 C2886 1.381 . S
C2884 C2890 1.383 . S
C2885 C2881 1.495 . S
C2885 H2891 0.959 . S
C2885 H2892 0.961 . S
C2885 H2893 0.960 . S
C2886 C2884 1.381 . S
C2886 C2887 1.394 . S
C2886 H2894 0.930 . S
C2887 C2886 1.394 . S
C2887 C2888 1.383 . S
C2887 H2895 0.929 . S
C2888 C2887 1.383 . S
C2888 C2889 1.377 . S
C2889 H2873 0.930 . S
C2889 C2888 1.377 . S
C2889 C2890 1.379 . S
C2890 H2874 0.931 . S
C2890 C2884 1.383 . S
C2890 C2889 1.379 . S
H2891 C2885 0.959 . S
H2892 C2885 0.961 . S
H2893 C2885 0.960 . S
H2894 C2886 0.930 . S
H2895 C2887 0.929 . S
H2896 C2904 0.929 . S
H2897 C2906 0.930 . S
H2898 C2908 0.930 . S
H2899 C2911 0.929 . S
H2900 C2914 0.930 . S
H2901 C2916 0.960 1_655 S
H2902 C2916 0.960 . S
H2903 C2916 0.960 . S
C2904 H2896 0.929 . S
C2904 C2905 1.377 . S
C2904 C2906 1.384 . S
C2905 C2904 1.377 . S
C2905 C2911 1.390 . S
C2906 H2897 0.930 . S
C2906 C2904 1.384 . S
C2906 C2907 1.372 . S
C2907 C2906 1.372 . S
C2907 C2908 1.400 . S
C2907 C2912 1.490 . S
C2908 H2898 0.930 . S
C2908 C2907 1.400 . S
C2908 C2911 1.386 . S
H2909 C2925 0.930 . S
H2910 C2926 0.931 . S
C2911 H2899 0.929 . S
C2911 C2905 1.390 . S
C2911 C2908 1.386 . S
C2912 C2907 1.490 . S
C2912 C2914 1.395 . S
C2912 C2915 1.403 . S
H2913 C2919 0.930 . S
C2914 H2900 0.930 . S
C2914 C2912 1.395 . S
C2914 C2917 1.403 . S
C2915 C2912 1.403 . S
C2915 C2916 1.524 . S
C2915 C2919 1.400 . S
C2916 H2901 0.960 1_455 S
C2916 H2902 0.960 . S
C2916 H2903 0.960 . S
C2916 C2915 1.524 . S
C2917 C2914 1.403 . S
C2917 C2918 1.392 . S
C2917 C2921 1.495 . S
C2918 C2917 1.392 . S
C2918 C2919 1.385 . S
C2918 C2920 1.478 . S
C2919 H2913 0.930 . S
C2919 C2915 1.400 . S
C2919 C2918 1.385 . S
C2920 C2918 1.478 . S
C2920 C2922 1.381 . S
C2920 C2926 1.383 . S
C2921 C2917 1.495 . S
C2921 H2927 0.959 . S
C2921 H2928 0.961 . S
C2921 H2929 0.960 . S
C2922 C2920 1.381 . S
C2922 C2923 1.394 . S
C2922 H2930 0.930 . S
C2923 C2922 1.394 . S
C2923 C2924 1.383 . S
C2923 H2931 0.929 . S
C2924 C2923 1.383 . S
C2924 C2925 1.377 . S
C2925 H2909 0.930 . S
C2925 C2924 1.377 . S
C2925 C2926 1.379 . S
C2926 H2910 0.931 . S
C2926 C2920 1.383 . S
C2926 C2925 1.379 . S
H2927 C2921 0.959 . S
H2928 C2921 0.961 . S
H2929 C2921 0.960 . S
H2930 C2922 0.930 . S
H2931 C2923 0.929 . S
H2932 C2940 0.929 . S
H2933 C2942 0.930 . S
H2934 C2944 0.930 . S
H2935 C2947 0.929 . S
H2936 C2950 0.930 . S
H2937 C2952 0.960 . S
H2938 C2952 0.960 . S
H2939 C2952 0.960 . S
C2940 H2932 0.929 . S
C2940 C2941 1.377 . S
C2940 C2942 1.384 . S
C2941 C2940 1.377 . S
C2941 C2947 1.390 . S
C2942 H2933 0.930 . S
C2942 C2940 1.384 . S
C2942 C2943 1.372 . S
C2943 C2942 1.372 . S
C2943 C2944 1.400 . S
C2943 C2948 1.490 . S
C2944 H2934 0.930 . S
C2944 C2943 1.400 . S
C2944 C2947 1.386 . S
H2945 C2961 0.930 . S
H2946 C2962 0.931 . S
C2947 H2935 0.929 . S
C2947 C2941 1.390 . S
C2947 C2944 1.386 . S
C2948 C2943 1.490 . S
C2948 C2950 1.395 . S
C2948 C2951 1.403 . S
H2949 C2955 0.930 . S
C2950 H2936 0.930 . S
C2950 C2948 1.395 . S
C2950 C2953 1.403 . S
C2951 C2948 1.403 . S
C2951 C2952 1.524 . S
C2951 C2955 1.400 . S
C2952 H2937 0.960 . S
C2952 H2938 0.960 . S
C2952 H2939 0.960 . S
C2952 C2951 1.524 . S
C2953 C2950 1.403 . S
C2953 C2954 1.392 . S
C2953 C2957 1.495 . S
C2954 C2953 1.392 . S
C2954 C2955 1.385 . S
C2954 C2956 1.478 . S
C2955 H2949 0.930 . S
C2955 C2951 1.400 . S
C2955 C2954 1.385 . S
C2956 C2954 1.478 . S
C2956 C2958 1.381 . S
C2956 C2962 1.383 . S
C2957 C2953 1.495 . S
C2957 H2963 0.959 . S
C2957 H2964 0.961 . S
C2957 H2965 0.960 . S
C2958 C2956 1.381 . S
C2958 C2959 1.394 . S
C2958 H2966 0.930 . S
C2959 C2958 1.394 . S
C2959 C2960 1.383 . S
C2959 H2967 0.929 . S
C2960 C2959 1.383 . S
C2960 C2961 1.377 . S
C2961 H2945 0.930 . S
C2961 C2960 1.377 . S
C2961 C2962 1.379 . S
C2962 H2946 0.931 . S
C2962 C2956 1.383 . S
C2962 C2961 1.379 . S
H2963 C2957 0.959 . S
H2964 C2957 0.961 . S
H2965 C2957 0.960 . S
H2966 C2958 0.930 . S
H2967 C2959 0.929 . S
H2968 C2976 0.929 . S
H2969 C2978 0.930 . S
H2970 C2980 0.930 . S
H2971 C2983 0.929 . S
H2972 C2986 0.930 . S
H2973 C2988 0.960 . S
H2974 C2988 0.960 . S
H2975 C2988 0.960 . S
C2976 H2968 0.929 . S
C2976 C2977 1.377 . S
C2976 C2978 1.384 . S
C2977 C2976 1.377 . S
C2977 C2983 1.390 . S
C2978 H2969 0.930 . S
C2978 C2976 1.384 . S
C2978 C2979 1.372 . S
C2979 C2978 1.372 . S
C2979 C2980 1.400 . S
C2979 C2984 1.490 . S
C2980 H2970 0.930 . S
C2980 C2979 1.400 . S
C2980 C2983 1.386 . S
H2981 C2997 0.930 . S
H2982 C2998 0.931 . S
C2983 H2971 0.929 . S
C2983 C2977 1.390 . S
C2983 C2980 1.386 . S
C2984 C2979 1.490 . S
C2984 C2986 1.395 . S
C2984 C2987 1.403 . S
H2985 C2991 0.930 . S
C2986 H2972 0.930 . S
C2986 C2984 1.395 . S
C2986 C2989 1.403 . S
C2987 C2984 1.403 . S
C2987 C2988 1.524 . S
C2987 C2991 1.400 . S
C2988 H2973 0.960 . S
C2988 H2974 0.960 . S
C2988 H2975 0.960 . S
C2988 C2987 1.524 . S
C2989 C2986 1.403 . S
C2989 C2990 1.392 . S
C2989 C2993 1.495 . S
C2990 C2989 1.392 . S
C2990 C2991 1.385 . S
C2990 C2992 1.478 . S
C2991 H2985 0.930 . S
C2991 C2987 1.400 . S
C2991 C2990 1.385 . S
C2992 C2990 1.478 . S
C2992 C2994 1.381 . S
C2992 C2998 1.383 . S
C2993 C2989 1.495 . S
C2993 H2999 0.959 . S
C2993 H3000 0.961 . S
C2993 H3001 0.960 . S
C2994 C2992 1.381 . S
C2994 C2995 1.394 . S
C2994 H3002 0.930 . S
C2995 C2994 1.394 . S
C2995 C2996 1.383 . S
C2995 H3003 0.929 . S
C2996 C2995 1.383 . S
C2996 C2997 1.377 . S
C2997 H2981 0.930 . S
C2997 C2996 1.377 . S
C2997 C2998 1.379 . S
C2998 H2982 0.931 . S
C2998 C2992 1.383 . S
C2998 C2997 1.379 . S
H2999 C2993 0.959 . S
H3000 C2993 0.961 . S
H3001 C2993 0.960 . S
H3002 C2994 0.930 . S
H3003 C2995 0.929 . S
H3004 C3012 0.929 . S
H3005 C3014 0.930 . S
H3006 C3016 0.930 . S
H3007 C3019 0.929 . S
H3008 C3022 0.930 . S
H3009 C3024 0.960 . S
H3010 C3024 0.960 . S
H3011 C3024 0.960 . S
C3012 H3004 0.929 . S
C3012 C3013 1.377 1_556 S
C3012 C3014 1.384 . S
C3013 C3012 1.377 1_554 S
C3013 C3019 1.390 . S
C3014 H3005 0.930 . S
C3014 C3012 1.384 . S
C3014 C3015 1.372 . S
C3015 C3014 1.372 . S
C3015 C3016 1.400 . S
C3015 C3020 1.490 . S
C3016 H3006 0.930 . S
C3016 C3015 1.400 . S
C3016 C3019 1.386 1_556 S
H3017 C3033 0.930 . S
H3018 C3034 0.931 . S
C3019 H3007 0.929 . S
C3019 C3013 1.390 . S
C3019 C3016 1.386 1_554 S
C3020 C3015 1.490 . S
C3020 C3022 1.395 . S
C3020 C3023 1.403 . S
H3021 C3027 0.930 . S
C3022 H3008 0.930 . S
C3022 C3020 1.395 . S
C3022 C3025 1.403 . S
C3023 C3020 1.403 . S
C3023 C3024 1.524 . S
C3023 C3027 1.400 . S
C3024 H3009 0.960 . S
C3024 H3010 0.960 . S
C3024 H3011 0.960 . S
C3024 C3023 1.524 . S
C3025 C3022 1.403 . S
C3025 C3026 1.392 . S
C3025 C3029 1.495 . S
C3026 C3025 1.392 . S
C3026 C3027 1.385 . S
C3026 C3028 1.478 . S
C3027 H3021 0.930 . S
C3027 C3023 1.400 . S
C3027 C3026 1.385 . S
C3028 C3026 1.478 . S
C3028 C3030 1.381 . S
C3028 C3034 1.383 . S
C3029 C3025 1.495 . S
C3029 H3035 0.959 . S
C3029 H3036 0.961 . S
C3029 H3037 0.960 . S
C3030 C3028 1.381 . S
C3030 C3031 1.394 . S
C3030 H3038 0.930 . S
C3031 C3030 1.394 . S
C3031 C3032 1.383 . S
C3031 H3039 0.929 . S
C3032 C3031 1.383 . S
C3032 C3033 1.377 . S
C3033 H3017 0.930 . S
C3033 C3032 1.377 . S
C3033 C3034 1.379 . S
C3034 H3018 0.931 . S
C3034 C3028 1.383 . S
C3034 C3033 1.379 . S
H3035 C3029 0.959 . S
H3036 C3029 0.961 . S
H3037 C3029 0.960 . S
H3038 C3030 0.930 . S
H3039 C3031 0.929 . S
H3040 C3048 0.929 . S
H3041 C3050 0.930 . S
H3042 C3052 0.930 . S
H3043 C3055 0.929 . S
H3044 C3058 0.930 . S
H3045 C3060 0.960 . S
H3046 C3060 0.960 . S
H3047 C3060 0.960 . S
C3048 H3040 0.929 . S
C3048 C3049 1.377 . S
C3048 C3050 1.384 . S
C3049 C3048 1.377 . S
C3049 C3055 1.390 . S
C3050 H3041 0.930 . S
C3050 C3048 1.384 . S
C3050 C3051 1.372 . S
C3051 C3050 1.372 . S
C3051 C3052 1.400 . S
C3051 C3056 1.490 . S
C3052 H3042 0.930 . S
C3052 C3051 1.400 . S
C3052 C3055 1.386 . S
H3053 C3069 0.930 . S
H3054 C3070 0.931 . S
C3055 H3043 0.929 . S
C3055 C3049 1.390 . S
C3055 C3052 1.386 . S
C3056 C3051 1.490 . S
C3056 C3058 1.395 . S
C3056 C3059 1.403 . S
H3057 C3063 0.930 . S
C3058 H3044 0.930 . S
C3058 C3056 1.395 . S
C3058 C3061 1.403 . S
C3059 C3056 1.403 . S
C3059 C3060 1.524 . S
C3059 C3063 1.400 . S
C3060 H3045 0.960 . S
C3060 H3046 0.960 . S
C3060 H3047 0.960 . S
C3060 C3059 1.524 . S
C3061 C3058 1.403 . S
C3061 C3062 1.392 . S
C3061 C3065 1.495 . S
C3062 C3061 1.392 . S
C3062 C3063 1.385 . S
C3062 C3064 1.478 . S
C3063 H3057 0.930 . S
C3063 C3059 1.400 . S
C3063 C3062 1.385 . S
C3064 C3062 1.478 . S
C3064 C3066 1.381 . S
C3064 C3070 1.383 . S
C3065 C3061 1.495 . S
C3065 H3071 0.959 . S
C3065 H3072 0.961 . S
C3065 H3073 0.960 . S
C3066 C3064 1.381 . S
C3066 C3067 1.394 . S
C3066 H3074 0.930 . S
C3067 C3066 1.394 . S
C3067 C3068 1.383 . S
C3067 H3075 0.929 . S
C3068 C3067 1.383 . S
C3068 C3069 1.377 . S
C3069 H3053 0.930 . S
C3069 C3068 1.377 . S
C3069 C3070 1.379 . S
C3070 H3054 0.931 . S
C3070 C3064 1.383 . S
C3070 C3069 1.379 . S
H3071 C3065 0.959 . S
H3072 C3065 0.961 . S
H3073 C3065 0.960 . S
H3074 C3066 0.930 . S
H3075 C3067 0.929 . S
H3076 C3084 0.929 . S
H3077 C3086 0.930 . S
H3078 C3088 0.930 . S
H3079 C3091 0.929 . S
H3080 C3094 0.930 . S
H3081 C3096 0.960 . S
H3082 C3096 0.960 . S
H3083 C3096 0.960 . S
C3084 H3076 0.929 . S
C3084 C3085 1.377 . S
C3084 C3086 1.384 . S
C3085 C3084 1.377 . S
C3085 C3091 1.390 . S
C3086 H3077 0.930 . S
C3086 C3084 1.384 . S
C3086 C3087 1.372 . S
C3087 C3086 1.372 . S
C3087 C3088 1.400 . S
C3087 C3092 1.490 . S
C3088 H3078 0.930 . S
C3088 C3087 1.400 . S
C3088 C3091 1.386 . S
H3089 C3105 0.930 . S
H3090 C3106 0.931 . S
C3091 H3079 0.929 . S
C3091 C3085 1.390 . S
C3091 C3088 1.386 . S
C3092 C3087 1.490 . S
C3092 C3094 1.395 . S
C3092 C3095 1.403 . S
H3093 C3099 0.930 . S
C3094 H3080 0.930 . S
C3094 C3092 1.395 . S
C3094 C3097 1.403 . S
C3095 C3092 1.403 . S
C3095 C3096 1.524 . S
C3095 C3099 1.400 . S
C3096 H3081 0.960 . S
C3096 H3082 0.960 . S
C3096 H3083 0.960 . S
C3096 C3095 1.524 . S
C3097 C3094 1.403 . S
C3097 C3098 1.392 . S
C3097 C3101 1.495 . S
C3098 C3097 1.392 . S
C3098 C3099 1.385 . S
C3098 C3100 1.478 . S
C3099 H3093 0.930 . S
C3099 C3095 1.400 . S
C3099 C3098 1.385 . S
C3100 C3098 1.478 . S
C3100 C3102 1.381 . S
C3100 C3106 1.383 . S
C3101 C3097 1.495 . S
C3101 H3107 0.959 . S
C3101 H3108 0.961 . S
C3101 H3109 0.960 . S
C3102 C3100 1.381 . S
C3102 C3103 1.394 . S
C3102 H3110 0.930 . S
C3103 C3102 1.394 . S
C3103 C3104 1.383 . S
C3103 H3111 0.929 . S
C3104 C3103 1.383 . S
C3104 C3105 1.377 . S
C3105 H3089 0.930 . S
C3105 C3104 1.377 . S
C3105 C3106 1.379 . S
C3106 H3090 0.931 . S
C3106 C3100 1.383 . S
C3106 C3105 1.379 . S
H3107 C3101 0.959 . S
H3108 C3101 0.961 . S
H3109 C3101 0.960 . S
H3110 C3102 0.930 . S
H3111 C3103 0.929 . S
H3112 C3120 0.929 . S
H3113 C3122 0.930 . S
H3114 C3124 0.930 . S
H3115 C3127 0.929 . S
H3116 C3130 0.930 . S
H3117 C3132 0.960 . S
H3118 C3132 0.960 . S
H3119 C3132 0.960 . S
C3120 H3112 0.929 . S
C3120 C3121 1.377 . S
C3120 C3122 1.384 . S
C3121 C3120 1.377 . S
C3121 C3127 1.390 . S
C3122 H3113 0.930 . S
C3122 C3120 1.384 . S
C3122 C3123 1.372 . S
C3123 C3122 1.372 . S
C3123 C3124 1.400 . S
C3123 C3128 1.490 . S
C3124 H3114 0.930 . S
C3124 C3123 1.400 . S
C3124 C3127 1.386 . S
H3125 C3141 0.930 . S
H3126 C3142 0.931 . S
C3127 H3115 0.929 . S
C3127 C3121 1.390 . S
C3127 C3124 1.386 . S
C3128 C3123 1.490 . S
C3128 C3130 1.395 . S
C3128 C3131 1.403 . S
H3129 C3135 0.930 . S
C3130 H3116 0.930 . S
C3130 C3128 1.395 . S
C3130 C3133 1.403 . S
C3131 C3128 1.403 . S
C3131 C3132 1.524 . S
C3131 C3135 1.400 . S
C3132 H3117 0.960 . S
C3132 H3118 0.960 . S
C3132 H3119 0.960 . S
C3132 C3131 1.524 . S
C3133 C3130 1.403 . S
C3133 C3134 1.392 . S
C3133 C3137 1.495 . S
C3134 C3133 1.392 . S
C3134 C3135 1.385 . S
C3134 C3136 1.478 . S
C3135 H3129 0.930 . S
C3135 C3131 1.400 . S
C3135 C3134 1.385 . S
C3136 C3134 1.478 . S
C3136 C3138 1.381 . S
C3136 C3142 1.383 . S
C3137 C3133 1.495 . S
C3137 H3143 0.959 . S
C3137 H3144 0.961 . S
C3137 H3145 0.960 . S
C3138 C3136 1.381 . S
C3138 C3139 1.394 . S
C3138 H3146 0.930 . S
C3139 C3138 1.394 . S
C3139 C3140 1.383 . S
C3139 H3147 0.929 . S
C3140 C3139 1.383 . S
C3140 C3141 1.377 . S
C3141 H3125 0.930 . S
C3141 C3140 1.377 . S
C3141 C3142 1.379 . S
C3142 H3126 0.931 . S
C3142 C3136 1.383 . S
C3142 C3141 1.379 . S
H3143 C3137 0.959 . S
H3144 C3137 0.961 . S
H3145 C3137 0.960 . S
H3146 C3138 0.930 . S
H3147 C3139 0.929 . S
H3148 C3156 0.929 . S
H3149 C3158 0.930 . S
H3150 C3160 0.930 . S
H3151 C3163 0.929 . S
H3152 C3166 0.930 . S
H3153 C3168 0.960 . S
H3154 C3168 0.960 . S
H3155 C3168 0.960 . S
C3156 H3148 0.929 . S
C3156 C3157 1.377 . S
C3156 C3158 1.384 . S
C3157 C3156 1.377 . S
C3157 C3163 1.390 . S
C3158 H3149 0.930 . S
C3158 C3156 1.384 . S
C3158 C3159 1.372 . S
C3159 C3158 1.372 . S
C3159 C3160 1.400 . S
C3159 C3164 1.490 . S
C3160 H3150 0.930 . S
C3160 C3159 1.400 . S
C3160 C3163 1.386 . S
H3161 C3177 0.930 . S
H3162 C3178 0.931 . S
C3163 H3151 0.929 . S
C3163 C3157 1.390 . S
C3163 C3160 1.386 . S
C3164 C3159 1.490 . S
C3164 C3166 1.395 . S
C3164 C3167 1.403 . S
H3165 C3171 0.930 . S
C3166 H3152 0.930 . S
C3166 C3164 1.395 . S
C3166 C3169 1.403 . S
C3167 C3164 1.403 . S
C3167 C3168 1.524 . S
C3167 C3171 1.400 . S
C3168 H3153 0.960 . S
C3168 H3154 0.960 . S
C3168 H3155 0.960 . S
C3168 C3167 1.524 . S
C3169 C3166 1.403 . S
C3169 C3170 1.392 . S
C3169 C3173 1.495 . S
C3170 C3169 1.392 . S
C3170 C3171 1.385 . S
C3170 C3172 1.478 . S
C3171 H3165 0.930 . S
C3171 C3167 1.400 . S
C3171 C3170 1.385 . S
C3172 C3170 1.478 . S
C3172 C3174 1.381 . S
C3172 C3178 1.383 . S
C3173 C3169 1.495 . S
C3173 H3179 0.959 . S
C3173 H3180 0.961 . S
C3173 H3181 0.960 . S
C3174 C3172 1.381 . S
C3174 C3175 1.394 . S
C3174 H3182 0.930 . S
C3175 C3174 1.394 . S
C3175 C3176 1.383 . S
C3175 H3183 0.929 . S
C3176 C3175 1.383 . S
C3176 C3177 1.377 . S
C3177 H3161 0.930 . S
C3177 C3176 1.377 . S
C3177 C3178 1.379 . S
C3178 H3162 0.931 . S
C3178 C3172 1.383 . S
C3178 C3177 1.379 . S
H3179 C3173 0.959 . S
H3180 C3173 0.961 . S
H3181 C3173 0.960 . S
H3182 C3174 0.930 . S
H3183 C3175 0.929 . S
H3184 C3192 0.929 . S
H3185 C3194 0.930 . S
H3186 C3196 0.930 . S
H3187 C3199 0.929 . S
H3188 C3202 0.930 . S
H3189 C3204 0.960 . S
H3190 C3204 0.960 . S
H3191 C3204 0.960 . S
C3192 H3184 0.929 . S
C3192 C3193 1.377 . S
C3192 C3194 1.384 . S
C3193 C3192 1.377 . S
C3193 C3199 1.390 . S
C3194 H3185 0.930 . S
C3194 C3192 1.384 . S
C3194 C3195 1.372 . S
C3195 C3194 1.372 . S
C3195 C3196 1.400 . S
C3195 C3200 1.490 . S
C3196 H3186 0.930 . S
C3196 C3195 1.400 . S
C3196 C3199 1.386 . S
H3197 C3213 0.930 . S
H3198 C3214 0.931 . S
C3199 H3187 0.929 . S
C3199 C3193 1.390 . S
C3199 C3196 1.386 . S
C3200 C3195 1.490 . S
C3200 C3202 1.395 . S
C3200 C3203 1.403 . S
H3201 C3207 0.930 . S
C3202 H3188 0.930 . S
C3202 C3200 1.395 . S
C3202 C3205 1.403 . S
C3203 C3200 1.403 . S
C3203 C3204 1.524 . S
C3203 C3207 1.400 . S
C3204 H3189 0.960 . S
C3204 H3190 0.960 . S
C3204 H3191 0.960 . S
C3204 C3203 1.524 . S
C3205 C3202 1.403 . S
C3205 C3206 1.392 . S
C3205 C3209 1.495 . S
C3206 C3205 1.392 . S
C3206 C3207 1.385 . S
C3206 C3208 1.478 . S
C3207 H3201 0.930 . S
C3207 C3203 1.400 . S
C3207 C3206 1.385 . S
C3208 C3206 1.478 . S
C3208 C3210 1.381 . S
C3208 C3214 1.383 . S
C3209 C3205 1.495 . S
C3209 H3215 0.959 . S
C3209 H3216 0.961 . S
C3209 H3217 0.960 . S
C3210 C3208 1.381 . S
C3210 C3211 1.394 . S
C3210 H3218 0.930 . S
C3211 C3210 1.394 . S
C3211 C3212 1.383 . S
C3211 H3219 0.929 . S
C3212 C3211 1.383 . S
C3212 C3213 1.377 . S
C3213 H3197 0.930 . S
C3213 C3212 1.377 . S
C3213 C3214 1.379 . S
C3214 H3198 0.931 . S
C3214 C3208 1.383 . S
C3214 C3213 1.379 . S
H3215 C3209 0.959 . S
H3216 C3209 0.961 . S
H3217 C3209 0.960 . S
H3218 C3210 0.930 . S
H3219 C3211 0.929 . S
H3220 C3228 0.929 . S
H3221 C3230 0.930 . S
H3222 C3232 0.930 . S
H3223 C3235 0.929 . S
H3224 C3238 0.930 . S
H3225 C3240 0.960 . S
H3226 C3240 0.960 . S
H3227 C3240 0.960 . S
C3228 H3220 0.929 . S
C3228 C3229 1.377 . S
C3228 C3230 1.384 . S
C3229 C3228 1.377 . S
C3229 C3235 1.390 . S
C3230 H3221 0.930 . S
C3230 C3228 1.384 . S
C3230 C3231 1.372 . S
C3231 C3230 1.372 . S
C3231 C3232 1.400 . S
C3231 C3236 1.490 . S
C3232 H3222 0.930 . S
C3232 C3231 1.400 . S
C3232 C3235 1.386 . S
H3233 C3249 0.930 . S
H3234 C3250 0.931 . S
C3235 H3223 0.929 . S
C3235 C3229 1.390 . S
C3235 C3232 1.386 . S
C3236 C3231 1.490 . S
C3236 C3238 1.395 . S
C3236 C3239 1.403 . S
H3237 C3243 0.930 . S
C3238 H3224 0.930 . S
C3238 C3236 1.395 . S
C3238 C3241 1.403 . S
C3239 C3236 1.403 . S
C3239 C3240 1.524 . S
C3239 C3243 1.400 . S
C3240 H3225 0.960 . S
C3240 H3226 0.960 . S
C3240 H3227 0.960 . S
C3240 C3239 1.524 . S
C3241 C3238 1.403 . S
C3241 C3242 1.392 . S
C3241 C3245 1.495 . S
C3242 C3241 1.392 . S
C3242 C3243 1.385 . S
C3242 C3244 1.478 . S
C3243 H3237 0.930 . S
C3243 C3239 1.400 . S
C3243 C3242 1.385 . S
C3244 C3242 1.478 . S
C3244 C3246 1.381 . S
C3244 C3250 1.383 . S
C3245 C3241 1.495 . S
C3245 H3251 0.959 . S
C3245 H3252 0.961 . S
C3245 H3253 0.960 . S
C3246 C3244 1.381 . S
C3246 C3247 1.394 . S
C3246 H3254 0.930 . S
C3247 C3246 1.394 . S
C3247 C3248 1.383 . S
C3247 H3255 0.929 . S
C3248 C3247 1.383 . S
C3248 C3249 1.377 . S
C3249 H3233 0.930 . S
C3249 C3248 1.377 . S
C3249 C3250 1.379 . S
C3250 H3234 0.931 . S
C3250 C3244 1.383 . S
C3250 C3249 1.379 . S
H3251 C3245 0.959 . S
H3252 C3245 0.961 . S
H3253 C3245 0.960 . S
H3254 C3246 0.930 . S
H3255 C3247 0.929 . S
H3256 C3264 0.929 . S
H3257 C3266 0.930 . S
H3258 C3268 0.930 . S
H3259 C3271 0.929 . S
H3260 C3274 0.930 . S
H3261 C3276 0.960 . S
H3262 C3276 0.960 . S
H3263 C3276 0.960 . S
C3264 H3256 0.929 . S
C3264 C3265 1.377 . S
C3264 C3266 1.384 . S
C3265 C3264 1.377 . S
C3265 C3271 1.390 . S
C3266 H3257 0.930 . S
C3266 C3264 1.384 . S
C3266 C3267 1.372 . S
C3267 C3266 1.372 . S
C3267 C3268 1.400 . S
C3267 C3272 1.490 . S
C3268 H3258 0.930 . S
C3268 C3267 1.400 . S
C3268 C3271 1.386 . S
H3269 C3285 0.930 . S
H3270 C3286 0.931 . S
C3271 H3259 0.929 . S
C3271 C3265 1.390 . S
C3271 C3268 1.386 . S
C3272 C3267 1.490 . S
C3272 C3274 1.395 . S
C3272 C3275 1.403 . S
H3273 C3279 0.930 . S
C3274 H3260 0.930 . S
C3274 C3272 1.395 . S
C3274 C3277 1.403 . S
C3275 C3272 1.403 . S
C3275 C3276 1.524 . S
C3275 C3279 1.400 . S
C3276 H3261 0.960 . S
C3276 H3262 0.960 . S
C3276 H3263 0.960 . S
C3276 C3275 1.524 . S
C3277 C3274 1.403 . S
C3277 C3278 1.392 . S
C3277 C3281 1.495 . S
C3278 C3277 1.392 . S
C3278 C3279 1.385 . S
C3278 C3280 1.478 . S
C3279 H3273 0.930 . S
C3279 C3275 1.400 . S
C3279 C3278 1.385 . S
C3280 C3278 1.478 . S
C3280 C3282 1.381 . S
C3280 C3286 1.383 . S
C3281 C3277 1.495 . S
C3281 H3287 0.959 . S
C3281 H3288 0.961 . S
C3281 H3289 0.960 . S
C3282 C3280 1.381 . S
C3282 C3283 1.394 . S
C3282 H3290 0.930 . S
C3283 C3282 1.394 . S
C3283 C3284 1.383 . S
C3283 H3291 0.929 . S
C3284 C3283 1.383 . S
C3284 C3285 1.377 . S
C3285 H3269 0.930 . S
C3285 C3284 1.377 . S
C3285 C3286 1.379 . S
C3286 H3270 0.931 . S
C3286 C3280 1.383 . S
C3286 C3285 1.379 . S
H3287 C3281 0.959 . S
H3288 C3281 0.961 . S
H3289 C3281 0.960 . S
H3290 C3282 0.930 . S
H3291 C3283 0.929 . S
H3292 C3300 0.929 . S
H3293 C3302 0.930 . S
H3294 C3304 0.930 . S
H3295 C3307 0.929 . S
H3296 C3310 0.930 . S
H3297 C3312 0.960 . S
H3298 C3312 0.960 . S
H3299 C3312 0.960 . S
C3300 H3292 0.929 . S
C3300 C3301 1.377 . S
C3300 C3302 1.384 . S
C3301 C3300 1.377 . S
C3301 C3307 1.390 . S
C3302 H3293 0.930 . S
C3302 C3300 1.384 . S
C3302 C3303 1.372 . S
C3303 C3302 1.372 . S
C3303 C3304 1.400 . S
C3303 C3308 1.490 . S
C3304 H3294 0.930 . S
C3304 C3303 1.400 . S
C3304 C3307 1.386 . S
H3305 C3321 0.930 . S
H3306 C3322 0.931 . S
C3307 H3295 0.929 . S
C3307 C3301 1.390 . S
C3307 C3304 1.386 . S
C3308 C3303 1.490 . S
C3308 C3310 1.395 . S
C3308 C3311 1.403 . S
H3309 C3315 0.930 . S
C3310 H3296 0.930 . S
C3310 C3308 1.395 . S
C3310 C3313 1.403 . S
C3311 C3308 1.403 . S
C3311 C3312 1.524 . S
C3311 C3315 1.400 . S
C3312 H3297 0.960 . S
C3312 H3298 0.960 . S
C3312 H3299 0.960 . S
C3312 C3311 1.524 . S
C3313 C3310 1.403 . S
C3313 C3314 1.392 . S
C3313 C3317 1.495 . S
C3314 C3313 1.392 . S
C3314 C3315 1.385 . S
C3314 C3316 1.478 . S
C3315 H3309 0.930 . S
C3315 C3311 1.400 . S
C3315 C3314 1.385 . S
C3316 C3314 1.478 . S
C3316 C3318 1.381 . S
C3316 C3322 1.383 . S
C3317 C3313 1.495 . S
C3317 H3323 0.959 . S
C3317 H3324 0.961 . S
C3317 H3325 0.960 . S
C3318 C3316 1.381 . S
C3318 C3319 1.394 . S
C3318 H3326 0.930 . S
C3319 C3318 1.394 . S
C3319 C3320 1.383 . S
C3319 H3327 0.929 . S
C3320 C3319 1.383 . S
C3320 C3321 1.377 . S
C3321 H3305 0.930 . S
C3321 C3320 1.377 . S
C3321 C3322 1.379 . S
C3322 H3306 0.931 . S
C3322 C3316 1.383 . S
C3322 C3321 1.379 . S
H3323 C3317 0.959 . S
H3324 C3317 0.961 . S
H3325 C3317 0.960 . S
H3326 C3318 0.930 . S
H3327 C3319 0.929 . S
H3328 C3336 0.929 . S
H3329 C3338 0.930 . S
H3330 C3340 0.930 . S
H3331 C3343 0.929 . S
H3332 C3346 0.930 . S
H3333 C3348 0.960 . S
H3334 C3348 0.960 . S
H3335 C3348 0.960 . S
C3336 H3328 0.929 . S
C3336 C3337 1.377 . S
C3336 C3338 1.384 . S
C3337 C3336 1.377 . S
C3337 C3343 1.390 . S
C3338 H3329 0.930 . S
C3338 C3336 1.384 . S
C3338 C3339 1.372 . S
C3339 C3338 1.372 . S
C3339 C3340 1.400 . S
C3339 C3344 1.490 . S
C3340 H3330 0.930 . S
C3340 C3339 1.400 . S
C3340 C3343 1.386 . S
H3341 C3357 0.930 . S
H3342 C3358 0.931 . S
C3343 H3331 0.929 . S
C3343 C3337 1.390 . S
C3343 C3340 1.386 . S
C3344 C3339 1.490 . S
C3344 C3346 1.395 . S
C3344 C3347 1.403 . S
H3345 C3351 0.930 . S
C3346 H3332 0.930 . S
C3346 C3344 1.395 . S
C3346 C3349 1.403 . S
C3347 C3344 1.403 . S
C3347 C3348 1.524 . S
C3347 C3351 1.400 . S
C3348 H3333 0.960 . S
C3348 H3334 0.960 . S
C3348 H3335 0.960 . S
C3348 C3347 1.524 . S
C3349 C3346 1.403 . S
C3349 C3350 1.392 . S
C3349 C3353 1.495 . S
C3350 C3349 1.392 . S
C3350 C3351 1.385 . S
C3350 C3352 1.478 . S
C3351 H3345 0.930 . S
C3351 C3347 1.400 . S
C3351 C3350 1.385 . S
C3352 C3350 1.478 . S
C3352 C3354 1.381 . S
C3352 C3358 1.383 . S
C3353 C3349 1.495 . S
C3353 H3359 0.959 . S
C3353 H3360 0.961 . S
C3353 H3361 0.960 . S
C3354 C3352 1.381 . S
C3354 C3355 1.394 . S
C3354 H3362 0.930 . S
C3355 C3354 1.394 . S
C3355 C3356 1.383 . S
C3355 H3363 0.929 . S
C3356 C3355 1.383 . S
C3356 C3357 1.377 . S
C3357 H3341 0.930 . S
C3357 C3356 1.377 . S
C3357 C3358 1.379 . S
C3358 H3342 0.931 . S
C3358 C3352 1.383 . S
C3358 C3357 1.379 . S
H3359 C3353 0.959 . S
H3360 C3353 0.961 . S
H3361 C3353 0.960 . S
H3362 C3354 0.930 . S
H3363 C3355 0.929 . S
H3364 C3372 0.929 . S
H3365 C3374 0.930 . S
H3366 C3376 0.930 . S
H3367 C3379 0.929 . S
H3368 C3382 0.930 . S
H3369 C3384 0.960 . S
H3370 C3384 0.960 . S
H3371 C3384 0.960 . S
C3372 H3364 0.929 . S
C3372 C3373 1.384 . S
C3372 C3374 1.384 . S
C3373 C3372 1.384 . S
C3373 C3379 1.379 1_554 S
C3374 H3365 0.930 . S
C3374 C3372 1.384 . S
C3374 C3375 1.383 . S
C3375 C3374 1.383 . S
C3375 C3376 1.393 1_554 S
C3375 C3380 1.484 1_554 S
C3376 H3366 0.930 . S
C3376 C3375 1.393 1_556 S
C3376 C3379 1.386 . S
H3377 C3393 0.930 1_545 S
H3378 C3394 0.931 . S
C3379 H3367 0.929 . S
C3379 C3373 1.379 1_556 S
C3379 C3376 1.386 . S
C3380 C3375 1.484 1_556 S
C3380 C3382 1.398 . S
C3380 C3383 1.401 1_556 S
H3381 C3387 0.930 . S
C3382 H3368 0.930 . S
C3382 C3380 1.398 . S
C3382 C3385 1.403 . S
C3383 C3380 1.401 1_554 S
C3383 C3384 1.524 . S
C3383 C3387 1.400 . S
C3384 H3369 0.960 . S
C3384 H3370 0.960 . S
C3384 H3371 0.960 . S
C3384 C3383 1.524 . S
C3385 C3382 1.403 . S
C3385 C3386 1.392 . S
C3385 C3389 1.495 . S
C3386 C3385 1.392 . S
C3386 C3387 1.385 1_556 S
C3386 C3388 1.478 . S
C3387 H3381 0.930 . S
C3387 C3383 1.400 . S
C3387 C3386 1.385 1_554 S
C3388 C3386 1.478 . S
C3388 C3390 1.381 1_556 S
C3388 C3394 1.383 . S
C3389 C3385 1.495 . S
C3389 H3395 0.959 . S
C3389 H3396 0.961 . S
C3389 H3397 0.960 . S
C3390 C3388 1.381 1_554 S
C3390 C3391 1.394 . S
C3390 H3398 0.930 . S
C3391 C3390 1.394 . S
C3391 C3392 1.383 1_554 S
C3391 H3399 0.929 . S
C3392 C3391 1.383 1_556 S
C3392 C3393 1.377 . S
C3393 H3377 0.930 1_565 S
C3393 C3392 1.377 . S
C3393 C3394 1.379 . S
C3394 H3378 0.931 . S
C3394 C3388 1.383 . S
C3394 C3393 1.379 . S
H3395 C3389 0.959 . S
H3396 C3389 0.961 . S
H3397 C3389 0.960 . S
H3398 C3390 0.930 . S
H3399 C3391 0.929 . S
H3400 C3408 0.929 . S
H3401 C3410 0.930 . S
H3402 C3412 0.930 . S
H3403 C3415 0.929 . S
H3404 C3418 0.930 . S
H3405 C3420 0.960 . S
H3406 C3420 0.960 . S
H3407 C3420 0.960 . S
C3408 H3400 0.929 . S
C3408 C3409 1.377 . S
C3408 C3410 1.384 . S
C3409 C3408 1.377 . S
C3409 C3415 1.390 . S
C3410 H3401 0.930 . S
C3410 C3408 1.384 . S
C3410 C3411 1.372 . S
C3411 C3410 1.372 . S
C3411 C3412 1.400 . S
C3411 C3416 1.490 . S
C3412 H3402 0.930 . S
C3412 C3411 1.400 . S
C3412 C3415 1.386 . S
H3413 C3429 0.930 . S
H3414 C3430 0.931 . S
C3415 H3403 0.929 . S
C3415 C3409 1.390 . S
C3415 C3412 1.386 . S
C3416 C3411 1.490 . S
C3416 C3418 1.395 . S
C3416 C3419 1.403 . S
H3417 C3423 0.930 . S
C3418 H3404 0.930 . S
C3418 C3416 1.395 . S
C3418 C3421 1.403 . S
C3419 C3416 1.403 . S
C3419 C3420 1.524 . S
C3419 C3423 1.400 . S
C3420 H3405 0.960 . S
C3420 H3406 0.960 . S
C3420 H3407 0.960 . S
C3420 C3419 1.524 . S
C3421 C3418 1.403 . S
C3421 C3422 1.392 . S
C3421 C3425 1.495 . S
C3422 C3421 1.392 . S
C3422 C3423 1.385 . S
C3422 C3424 1.478 . S
C3423 H3417 0.930 . S
C3423 C3419 1.400 . S
C3423 C3422 1.385 . S
C3424 C3422 1.478 . S
C3424 C3426 1.381 . S
C3424 C3430 1.383 . S
C3425 C3421 1.495 . S
C3425 H3431 0.959 . S
C3425 H3432 0.961 . S
C3425 H3433 0.960 . S
C3426 C3424 1.381 . S
C3426 C3427 1.394 . S
C3426 H3434 0.930 . S
C3427 C3426 1.394 . S
C3427 C3428 1.383 . S
C3427 H3435 0.929 . S
C3428 C3427 1.383 . S
C3428 C3429 1.377 . S
C3429 H3413 0.930 . S
C3429 C3428 1.377 . S
C3429 C3430 1.379 . S
C3430 H3414 0.931 . S
C3430 C3424 1.383 . S
C3430 C3429 1.379 . S
H3431 C3425 0.959 . S
H3432 C3425 0.961 . S
H3433 C3425 0.960 . S
H3434 C3426 0.930 . S
H3435 C3427 0.929 . S
H3436 C3444 0.929 . S
H3437 C3446 0.930 . S
H3438 C3448 0.930 . S
H3439 C3451 0.929 . S
H3440 C3454 0.930 . S
H3441 C3456 0.960 . S
H3442 C3456 0.960 . S
H3443 C3456 0.960 . S
C3444 H3436 0.929 . S
C3444 C3445 1.377 . S
C3444 C3446 1.384 . S
C3445 C3444 1.377 . S
C3445 C3451 1.390 . S
C3446 H3437 0.930 . S
C3446 C3444 1.384 . S
C3446 C3447 1.372 . S
C3447 C3446 1.372 . S
C3447 C3448 1.400 . S
C3447 C3452 1.490 . S
C3448 H3438 0.930 . S
C3448 C3447 1.400 . S
C3448 C3451 1.386 . S
H3449 C3465 0.930 . S
H3450 C3466 0.931 . S
C3451 H3439 0.929 . S
C3451 C3445 1.390 . S
C3451 C3448 1.386 . S
C3452 C3447 1.490 . S
C3452 C3454 1.395 . S
C3452 C3455 1.403 . S
H3453 C3459 0.930 . S
C3454 H3440 0.930 . S
C3454 C3452 1.395 . S
C3454 C3457 1.403 . S
C3455 C3452 1.403 . S
C3455 C3456 1.524 . S
C3455 C3459 1.400 . S
C3456 H3441 0.960 . S
C3456 H3442 0.960 . S
C3456 H3443 0.960 . S
C3456 C3455 1.524 . S
C3457 C3454 1.403 . S
C3457 C3458 1.392 . S
C3457 C3461 1.495 . S
C3458 C3457 1.392 . S
C3458 C3459 1.385 . S
C3458 C3460 1.478 . S
C3459 H3453 0.930 . S
C3459 C3455 1.400 . S
C3459 C3458 1.385 . S
C3460 C3458 1.478 . S
C3460 C3462 1.381 . S
C3460 C3466 1.383 . S
C3461 C3457 1.495 . S
C3461 H3467 0.959 . S
C3461 H3468 0.961 . S
C3461 H3469 0.960 . S
C3462 C3460 1.381 . S
C3462 C3463 1.394 . S
C3462 H3470 0.930 . S
C3463 C3462 1.394 . S
C3463 C3464 1.383 . S
C3463 H3471 0.929 . S
C3464 C3463 1.383 . S
C3464 C3465 1.377 . S
C3465 H3449 0.930 . S
C3465 C3464 1.377 . S
C3465 C3466 1.379 . S
C3466 H3450 0.931 . S
C3466 C3460 1.383 . S
C3466 C3465 1.379 . S
H3467 C3461 0.959 . S
H3468 C3461 0.961 . S
H3469 C3461 0.960 . S
H3470 C3462 0.930 . S
H3471 C3463 0.929 . S
H3472 C3480 0.929 . S
H3473 C3482 0.930 . S
H3474 C3484 0.930 . S
H3475 C3487 0.929 . S
H3476 C3490 0.930 . S
H3477 C3492 0.960 . S
H3478 C3492 0.960 . S
H3479 C3492 0.960 . S
C3480 H3472 0.929 . S
C3480 C3481 1.377 . S
C3480 C3482 1.384 . S
C3481 C3480 1.377 . S
C3481 C3487 1.390 . S
C3482 H3473 0.930 . S
C3482 C3480 1.384 . S
C3482 C3483 1.372 . S
C3483 C3482 1.372 . S
C3483 C3484 1.400 . S
C3483 C3488 1.490 . S
C3484 H3474 0.930 . S
C3484 C3483 1.400 . S
C3484 C3487 1.386 . S
H3485 C3501 0.930 . S
H3486 C3502 0.931 . S
C3487 H3475 0.929 . S
C3487 C3481 1.390 . S
C3487 C3484 1.386 . S
C3488 C3483 1.490 . S
C3488 C3490 1.395 . S
C3488 C3491 1.403 . S
H3489 C3495 0.930 . S
C3490 H3476 0.930 . S
C3490 C3488 1.395 . S
C3490 C3493 1.403 . S
C3491 C3488 1.403 . S
C3491 C3492 1.524 . S
C3491 C3495 1.400 . S
C3492 H3477 0.960 . S
C3492 H3478 0.960 . S
C3492 H3479 0.960 . S
C3492 C3491 1.524 . S
C3493 C3490 1.403 . S
C3493 C3494 1.392 . S
C3493 C3497 1.495 . S
C3494 C3493 1.392 . S
C3494 C3495 1.385 . S
C3494 C3496 1.478 . S
C3495 H3489 0.930 . S
C3495 C3491 1.400 . S
C3495 C3494 1.385 . S
C3496 C3494 1.478 . S
C3496 C3498 1.381 . S
C3496 C3502 1.383 . S
C3497 C3493 1.495 . S
C3497 H3503 0.959 . S
C3497 H3504 0.961 . S
C3497 H3505 0.960 . S
C3498 C3496 1.381 . S
C3498 C3499 1.394 . S
C3498 H3506 0.930 . S
C3499 C3498 1.394 . S
C3499 C3500 1.383 . S
C3499 H3507 0.929 . S
C3500 C3499 1.383 . S
C3500 C3501 1.377 . S
C3501 H3485 0.930 . S
C3501 C3500 1.377 . S
C3501 C3502 1.379 . S
C3502 H3486 0.931 . S
C3502 C3496 1.383 . S
C3502 C3501 1.379 . S
H3503 C3497 0.959 . S
H3504 C3497 0.961 . S
H3505 C3497 0.960 . S
H3506 C3498 0.930 . S
H3507 C3499 0.929 . S
H3508 C3516 0.929 . S
H3509 C3518 0.930 . S
H3510 C3520 0.930 . S
H3511 C3523 0.929 . S
H3512 C3526 0.930 . S
H3513 C3528 0.960 . S
H3514 C3528 0.960 . S
H3515 C3528 0.960 . S
C3516 H3508 0.929 . S
C3516 C3517 1.377 . S
C3516 C3518 1.384 . S
C3517 C3516 1.377 . S
C3517 C3523 1.390 . S
C3518 H3509 0.930 . S
C3518 C3516 1.384 . S
C3518 C3519 1.372 . S
C3519 C3518 1.372 . S
C3519 C3520 1.400 . S
C3519 C3524 1.490 . S
C3520 H3510 0.930 . S
C3520 C3519 1.400 . S
C3520 C3523 1.386 . S
H3521 C3537 0.930 . S
H3522 C3538 0.931 . S
C3523 H3511 0.929 . S
C3523 C3517 1.390 . S
C3523 C3520 1.386 . S
C3524 C3519 1.490 . S
C3524 C3526 1.395 . S
C3524 C3527 1.403 . S
H3525 C3531 0.930 . S
C3526 H3512 0.930 . S
C3526 C3524 1.395 . S
C3526 C3529 1.403 . S
C3527 C3524 1.403 . S
C3527 C3528 1.524 . S
C3527 C3531 1.400 . S
C3528 H3513 0.960 . S
C3528 H3514 0.960 . S
C3528 H3515 0.960 . S
C3528 C3527 1.524 . S
C3529 C3526 1.403 . S
C3529 C3530 1.392 . S
C3529 C3533 1.495 . S
C3530 C3529 1.392 . S
C3530 C3531 1.385 . S
C3530 C3532 1.478 . S
C3531 H3525 0.930 . S
C3531 C3527 1.400 . S
C3531 C3530 1.385 . S
C3532 C3530 1.478 . S
C3532 C3534 1.381 . S
C3532 C3538 1.383 . S
C3533 C3529 1.495 . S
C3533 H3539 0.959 . S
C3533 H3540 0.961 . S
C3533 H3541 0.960 . S
C3534 C3532 1.381 . S
C3534 C3535 1.394 . S
C3534 H3542 0.930 . S
C3535 C3534 1.394 . S
C3535 C3536 1.383 . S
C3535 H3543 0.929 . S
C3536 C3535 1.383 . S
C3536 C3537 1.377 . S
C3537 H3521 0.930 . S
C3537 C3536 1.377 . S
C3537 C3538 1.379 . S
C3538 H3522 0.931 . S
C3538 C3532 1.383 . S
C3538 C3537 1.379 . S
H3539 C3533 0.959 . S
H3540 C3533 0.961 . S
H3541 C3533 0.960 . S
H3542 C3534 0.930 . S
H3543 C3535 0.929 . S
H3544 C3552 0.929 . S
H3545 C3554 0.930 . S
H3546 C3556 0.930 . S
H3547 C3559 0.929 . S
H3548 C3562 0.930 . S
H3549 C3564 0.960 . S
H3550 C3564 0.960 . S
H3551 C3564 0.960 . S
C3552 H3544 0.929 . S
C3552 C3553 1.377 . S
C3552 C3554 1.384 . S
C3553 C3552 1.377 . S
C3553 C3559 1.390 . S
C3554 H3545 0.930 . S
C3554 C3552 1.384 . S
C3554 C3555 1.372 . S
C3555 C3554 1.372 . S
C3555 C3556 1.400 . S
C3555 C3560 1.490 . S
C3556 H3546 0.930 . S
C3556 C3555 1.400 . S
C3556 C3559 1.386 . S
H3557 C3573 0.930 . S
H3558 C3574 0.931 . S
C3559 H3547 0.929 . S
C3559 C3553 1.390 . S
C3559 C3556 1.386 . S
C3560 C3555 1.490 . S
C3560 C3562 1.395 . S
C3560 C3563 1.403 . S
H3561 C3567 0.930 . S
C3562 H3548 0.930 . S
C3562 C3560 1.395 . S
C3562 C3565 1.403 . S
C3563 C3560 1.403 . S
C3563 C3564 1.524 . S
C3563 C3567 1.400 . S
C3564 H3549 0.960 . S
C3564 H3550 0.960 . S
C3564 H3551 0.960 . S
C3564 C3563 1.524 . S
C3565 C3562 1.403 . S
C3565 C3566 1.392 . S
C3565 C3569 1.495 . S
C3566 C3565 1.392 . S
C3566 C3567 1.385 . S
C3566 C3568 1.478 . S
C3567 H3561 0.930 . S
C3567 C3563 1.400 . S
C3567 C3566 1.385 . S
C3568 C3566 1.478 . S
C3568 C3570 1.381 . S
C3568 C3574 1.383 . S
C3569 C3565 1.495 . S
C3569 H3575 0.959 . S
C3569 H3576 0.961 . S
C3569 H3577 0.960 . S
C3570 C3568 1.381 . S
C3570 C3571 1.394 . S
C3570 H3578 0.930 . S
C3571 C3570 1.394 . S
C3571 C3572 1.383 . S
C3571 H3579 0.929 . S
C3572 C3571 1.383 . S
C3572 C3573 1.377 . S
C3573 H3557 0.930 . S
C3573 C3572 1.377 . S
C3573 C3574 1.379 . S
C3574 H3558 0.931 . S
C3574 C3568 1.383 . S
C3574 C3573 1.379 . S
H3575 C3569 0.959 . S
H3576 C3569 0.961 . S
H3577 C3569 0.960 . S
H3578 C3570 0.930 . S
H3579 C3571 0.929 . S
H3580 C3588 0.929 . S
H3581 C3590 0.930 . S
H3582 C3592 0.930 . S
H3583 C3595 0.929 . S
H3584 C3598 0.930 . S
H3585 C3600 0.960 . S
H3586 C3600 0.960 . S
H3587 C3600 0.960 . S
C3588 H3580 0.929 . S
C3588 C3589 1.377 . S
C3588 C3590 1.384 . S
C3589 C3588 1.377 . S
C3589 C3595 1.390 . S
C3590 H3581 0.930 . S
C3590 C3588 1.384 . S
C3590 C3591 1.372 . S
C3591 C3590 1.372 . S
C3591 C3592 1.400 . S
C3591 C3596 1.490 . S
C3592 H3582 0.930 . S
C3592 C3591 1.400 . S
C3592 C3595 1.386 . S
H3593 C3609 0.930 . S
H3594 C3610 0.931 . S
C3595 H3583 0.929 . S
C3595 C3589 1.390 . S
C3595 C3592 1.386 . S
C3596 C3591 1.490 . S
C3596 C3598 1.395 . S
C3596 C3599 1.403 . S
H3597 C3603 0.930 . S
C3598 H3584 0.930 . S
C3598 C3596 1.395 . S
C3598 C3601 1.403 . S
C3599 C3596 1.403 . S
C3599 C3600 1.524 . S
C3599 C3603 1.400 . S
C3600 H3585 0.960 . S
C3600 H3586 0.960 . S
C3600 H3587 0.960 . S
C3600 C3599 1.524 . S
C3601 C3598 1.403 . S
C3601 C3602 1.392 . S
C3601 C3605 1.495 . S
C3602 C3601 1.392 . S
C3602 C3603 1.385 . S
C3602 C3604 1.478 . S
C3603 H3597 0.930 . S
C3603 C3599 1.400 . S
C3603 C3602 1.385 . S
C3604 C3602 1.478 . S
C3604 C3606 1.381 . S
C3604 C3610 1.383 . S
C3605 C3601 1.495 . S
C3605 H3611 0.959 . S
C3605 H3612 0.961 . S
C3605 H3613 0.960 . S
C3606 C3604 1.381 . S
C3606 C3607 1.394 . S
C3606 H3614 0.930 . S
C3607 C3606 1.394 . S
C3607 C3608 1.383 . S
C3607 H3615 0.929 . S
C3608 C3607 1.383 . S
C3608 C3609 1.377 . S
C3609 H3593 0.930 . S
C3609 C3608 1.377 . S
C3609 C3610 1.379 . S
C3610 H3594 0.931 . S
C3610 C3604 1.383 . S
C3610 C3609 1.379 . S
H3611 C3605 0.959 . S
H3612 C3605 0.961 . S
H3613 C3605 0.960 . S
H3614 C3606 0.930 . S
H3615 C3607 0.929 . S
H3616 C3624 0.929 . S
H3617 C3626 0.930 . S
H3618 C3628 0.930 . S
H3619 C3631 0.929 . S
H3620 C3634 0.930 . S
H3621 C3636 0.960 . S
H3622 C3636 0.960 . S
H3623 C3636 0.960 . S
C3624 H3616 0.929 . S
C3624 C3625 1.377 . S
C3624 C3626 1.384 . S
C3625 C3624 1.377 . S
C3625 C3631 1.390 . S
C3626 H3617 0.930 . S
C3626 C3624 1.384 . S
C3626 C3627 1.372 . S
C3627 C3626 1.372 . S
C3627 C3628 1.400 . S
C3627 C3632 1.490 . S
C3628 H3618 0.930 . S
C3628 C3627 1.400 . S
C3628 C3631 1.386 . S
H3629 C3645 0.930 . S
H3630 C3646 0.931 . S
C3631 H3619 0.929 . S
C3631 C3625 1.390 . S
C3631 C3628 1.386 . S
C3632 C3627 1.490 . S
C3632 C3634 1.395 . S
C3632 C3635 1.403 . S
H3633 C3639 0.930 . S
C3634 H3620 0.930 . S
C3634 C3632 1.395 . S
C3634 C3637 1.403 . S
C3635 C3632 1.403 . S
C3635 C3636 1.524 . S
C3635 C3639 1.400 . S
C3636 H3621 0.960 . S
C3636 H3622 0.960 . S
C3636 H3623 0.960 . S
C3636 C3635 1.524 . S
C3637 C3634 1.403 . S
C3637 C3638 1.392 . S
C3637 C3641 1.495 . S
C3638 C3637 1.392 . S
C3638 C3639 1.385 . S
C3638 C3640 1.478 . S
C3639 H3633 0.930 . S
C3639 C3635 1.400 . S
C3639 C3638 1.385 . S
C3640 C3638 1.478 . S
C3640 C3642 1.381 . S
C3640 C3646 1.383 . S
C3641 C3637 1.495 . S
C3641 H3647 0.959 . S
C3641 H3648 0.961 . S
C3641 H3649 0.960 . S
C3642 C3640 1.381 . S
C3642 C3643 1.394 . S
C3642 H3650 0.930 . S
C3643 C3642 1.394 . S
C3643 C3644 1.383 . S
C3643 H3651 0.929 . S
C3644 C3643 1.383 . S
C3644 C3645 1.377 . S
C3645 H3629 0.930 . S
C3645 C3644 1.377 . S
C3645 C3646 1.379 . S
C3646 H3630 0.931 . S
C3646 C3640 1.383 . S
C3646 C3645 1.379 . S
H3647 C3641 0.959 . S
H3648 C3641 0.961 . S
H3649 C3641 0.960 . S
H3650 C3642 0.930 . S
H3651 C3643 0.929 . S
H3652 C3660 0.929 . S
H3653 C3662 0.930 . S
H3654 C3664 0.930 . S
H3655 C3667 0.929 . S
H3656 C3670 0.930 . S
H3657 C3672 0.960 . S
H3658 C3672 0.960 . S
H3659 C3672 0.960 . S
C3660 H3652 0.929 . S
C3660 C3661 1.377 . S
C3660 C3662 1.384 . S
C3661 C3660 1.377 . S
C3661 C3667 1.390 . S
C3662 H3653 0.930 . S
C3662 C3660 1.384 . S
C3662 C3663 1.372 . S
C3663 C3662 1.372 . S
C3663 C3664 1.400 . S
C3663 C3668 1.490 . S
C3664 H3654 0.930 . S
C3664 C3663 1.400 . S
C3664 C3667 1.386 . S
H3665 C3681 0.930 . S
H3666 C3682 0.931 . S
C3667 H3655 0.929 . S
C3667 C3661 1.390 . S
C3667 C3664 1.386 . S
C3668 C3663 1.490 . S
C3668 C3670 1.395 . S
C3668 C3671 1.403 . S
H3669 C3675 0.930 . S
C3670 H3656 0.930 . S
C3670 C3668 1.395 . S
C3670 C3673 1.403 . S
C3671 C3668 1.403 . S
C3671 C3672 1.524 . S
C3671 C3675 1.400 . S
C3672 H3657 0.960 . S
C3672 H3658 0.960 . S
C3672 H3659 0.960 . S
C3672 C3671 1.524 . S
C3673 C3670 1.403 . S
C3673 C3674 1.392 . S
C3673 C3677 1.495 . S
C3674 C3673 1.392 . S
C3674 C3675 1.385 . S
C3674 C3676 1.478 . S
C3675 H3669 0.930 . S
C3675 C3671 1.400 . S
C3675 C3674 1.385 . S
C3676 C3674 1.478 . S
C3676 C3678 1.381 . S
C3676 C3682 1.383 . S
C3677 C3673 1.495 . S
C3677 H3683 0.959 . S
C3677 H3684 0.961 . S
C3677 H3685 0.960 . S
C3678 C3676 1.381 . S
C3678 C3679 1.394 . S
C3678 H3686 0.930 . S
C3679 C3678 1.394 . S
C3679 C3680 1.383 . S
C3679 H3687 0.929 . S
C3680 C3679 1.383 . S
C3680 C3681 1.377 . S
C3681 H3665 0.930 . S
C3681 C3680 1.377 . S
C3681 C3682 1.379 . S
C3682 H3666 0.931 . S
C3682 C3676 1.383 . S
C3682 C3681 1.379 . S
H3683 C3677 0.959 . S
H3684 C3677 0.961 . S
H3685 C3677 0.960 . S
H3686 C3678 0.930 . S
H3687 C3679 0.929 . S
H3688 C3696 0.929 . S
H3689 C3698 0.930 . S
H3690 C3700 0.930 . S
H3691 C3703 0.929 . S
H3692 C3706 0.930 . S
H3693 C3708 0.960 . S
H3694 C3708 0.960 . S
H3695 C3708 0.960 . S
C3696 H3688 0.929 . S
C3696 C3697 1.377 . S
C3696 C3698 1.384 . S
C3697 C3696 1.377 . S
C3697 C3703 1.390 . S
C3698 H3689 0.930 . S
C3698 C3696 1.384 . S
C3698 C3699 1.372 . S
C3699 C3698 1.372 . S
C3699 C3700 1.400 . S
C3699 C3704 1.490 . S
C3700 H3690 0.930 . S
C3700 C3699 1.400 . S
C3700 C3703 1.386 . S
H3701 C3717 0.930 . S
H3702 C3718 0.931 . S
C3703 H3691 0.929 . S
C3703 C3697 1.390 . S
C3703 C3700 1.386 . S
C3704 C3699 1.490 . S
C3704 C3706 1.395 . S
C3704 C3707 1.403 . S
H3705 C3711 0.930 . S
C3706 H3692 0.930 . S
C3706 C3704 1.395 . S
C3706 C3709 1.403 . S
C3707 C3704 1.403 . S
C3707 C3708 1.524 . S
C3707 C3711 1.400 . S
C3708 H3693 0.960 . S
C3708 H3694 0.960 . S
C3708 H3695 0.960 . S
C3708 C3707 1.524 . S
C3709 C3706 1.403 . S
C3709 C3710 1.392 . S
C3709 C3713 1.495 . S
C3710 C3709 1.392 . S
C3710 C3711 1.385 . S
C3710 C3712 1.478 . S
C3711 H3705 0.930 . S
C3711 C3707 1.400 . S
C3711 C3710 1.385 . S
C3712 C3710 1.478 . S
C3712 C3714 1.381 . S
C3712 C3718 1.383 . S
C3713 C3709 1.495 . S
C3713 H3719 0.959 . S
C3713 H3720 0.961 . S
C3713 H3721 0.960 . S
C3714 C3712 1.381 . S
C3714 C3715 1.394 . S
C3714 H3722 0.930 . S
C3715 C3714 1.394 . S
C3715 C3716 1.383 . S
C3715 H3723 0.929 . S
C3716 C3715 1.383 . S
C3716 C3717 1.377 . S
C3717 H3701 0.930 . S
C3717 C3716 1.377 . S
C3717 C3718 1.379 . S
C3718 H3702 0.931 . S
C3718 C3712 1.383 . S
C3718 C3717 1.379 . S
H3719 C3713 0.959 . S
H3720 C3713 0.961 . S
H3721 C3713 0.960 . S
H3722 C3714 0.930 . S
H3723 C3715 0.929 . S
H3724 C3732 0.929 . S
H3725 C3734 0.930 . S
H3726 C3736 0.930 . S
H3727 C3739 0.929 . S
H3728 C3742 0.930 . S
H3729 C3744 0.960 . S
H3730 C3744 0.960 . S
H3731 C3744 0.960 . S
C3732 H3724 0.929 . S
C3732 C3733 1.377 . S
C3732 C3734 1.384 . S
C3733 C3732 1.377 . S
C3733 C3739 1.390 . S
C3734 H3725 0.930 . S
C3734 C3732 1.384 . S
C3734 C3735 1.372 . S
C3735 C3734 1.372 . S
C3735 C3736 1.400 . S
C3735 C3740 1.490 . S
C3736 H3726 0.930 . S
C3736 C3735 1.400 . S
C3736 C3739 1.386 . S
H3737 C3753 0.930 . S
H3738 C3754 0.931 . S
C3739 H3727 0.929 . S
C3739 C3733 1.390 . S
C3739 C3736 1.386 . S
C3740 C3735 1.490 . S
C3740 C3742 1.395 . S
C3740 C3743 1.403 . S
H3741 C3747 0.930 . S
C3742 H3728 0.930 . S
C3742 C3740 1.395 . S
C3742 C3745 1.403 . S
C3743 C3740 1.403 . S
C3743 C3744 1.524 . S
C3743 C3747 1.400 . S
C3744 H3729 0.960 . S
C3744 H3730 0.960 . S
C3744 H3731 0.960 . S
C3744 C3743 1.524 . S
C3745 C3742 1.403 . S
C3745 C3746 1.392 . S
C3745 C3749 1.495 . S
C3746 C3745 1.392 . S
C3746 C3747 1.385 . S
C3746 C3748 1.478 . S
C3747 H3741 0.930 . S
C3747 C3743 1.400 . S
C3747 C3746 1.385 . S
C3748 C3746 1.478 . S
C3748 C3750 1.381 . S
C3748 C3754 1.383 . S
C3749 C3745 1.495 . S
C3749 H3755 0.959 . S
C3749 H3756 0.961 . S
C3749 H3757 0.960 . S
C3750 C3748 1.381 . S
C3750 C3751 1.394 . S
C3750 H3758 0.930 . S
C3751 C3750 1.394 . S
C3751 C3752 1.383 . S
C3751 H3759 0.929 . S
C3752 C3751 1.383 . S
C3752 C3753 1.377 . S
C3753 H3737 0.930 . S
C3753 C3752 1.377 . S
C3753 C3754 1.379 . S
C3754 H3738 0.931 . S
C3754 C3748 1.383 . S
C3754 C3753 1.379 . S
H3755 C3749 0.959 . S
H3756 C3749 0.961 . S
H3757 C3749 0.960 . S
H3758 C3750 0.930 . S
H3759 C3751 0.929 . S
H3760 C3768 0.929 1_655 S
H3761 C3770 0.930 . S
H3762 C3772 0.930 . S
H3763 C3775 0.929 . S
H3764 C3778 0.930 . S
H3765 C3780 0.960 . S
H3766 C3780 0.960 . S
H3767 C3780 0.960 . S
C3768 H3760 0.929 1_455 S
C3768 C3769 1.377 . S
C3768 C3770 1.384 . S
C3769 C3768 1.377 . S
C3769 C3775 1.390 . S
C3770 H3761 0.930 . S
C3770 C3768 1.384 . S
C3770 C3771 1.372 . S
C3771 C3770 1.372 . S
C3771 C3772 1.400 . S
C3771 C3776 1.490 . S
C3772 H3762 0.930 . S
C3772 C3771 1.400 . S
C3772 C3775 1.386 . S
H3773 C3789 0.930 . S
H3774 C3790 0.931 . S
C3775 H3763 0.929 . S
C3775 C3769 1.390 . S
C3775 C3772 1.386 . S
C3776 C3771 1.490 . S
C3776 C3778 1.395 1_455 S
C3776 C3779 1.403 . S
H3777 C3783 0.930 . S
C3778 H3764 0.930 . S
C3778 C3776 1.395 1_655 S
C3778 C3781 1.403 . S
C3779 C3776 1.403 . S
C3779 C3780 1.524 . S
C3779 C3783 1.400 . S
C3780 H3765 0.960 . S
C3780 H3766 0.960 . S
C3780 H3767 0.960 . S
C3780 C3779 1.524 . S
C3781 C3778 1.403 . S
C3781 C3782 1.392 1_655 S
C3781 C3785 1.495 . S
C3782 C3781 1.392 1_455 S
C3782 C3783 1.385 . S
C3782 C3784 1.478 . S
C3783 H3777 0.930 . S
C3783 C3779 1.400 . S
C3783 C3782 1.385 . S
C3784 C3782 1.478 . S
C3784 C3786 1.381 . S
C3784 C3790 1.383 . S
C3785 C3781 1.495 . S
C3785 H3791 0.959 . S
C3785 H3792 0.961 . S
C3785 H3793 0.960 . S
C3786 C3784 1.381 . S
C3786 C3787 1.394 . S
C3786 H3794 0.930 . S
C3787 C3786 1.394 . S
C3787 C3788 1.383 . S
C3787 H3795 0.929 . S
C3788 C3787 1.383 . S
C3788 C3789 1.377 . S
C3789 H3773 0.930 . S
C3789 C3788 1.377 . S
C3789 C3790 1.379 . S
C3790 H3774 0.931 . S
C3790 C3784 1.383 . S
C3790 C3789 1.379 . S
H3791 C3785 0.959 . S
H3792 C3785 0.961 . S
H3793 C3785 0.960 . S
H3794 C3786 0.930 . S
H3795 C3787 0.929 . S
H3796 C3804 0.929 . S
H3797 C3806 0.930 . S
H3798 C3808 0.930 . S
H3799 C3811 0.929 . S
H3800 C3814 0.930 . S
H3801 C3816 0.960 . S
H3802 C3816 0.960 . S
H3803 C3816 0.960 . S
C3804 H3796 0.929 . S
C3804 C3805 1.377 . S
C3804 C3806 1.384 . S
C3805 C3804 1.377 . S
C3805 C3811 1.390 . S
C3806 H3797 0.930 . S
C3806 C3804 1.384 . S
C3806 C3807 1.372 . S
C3807 C3806 1.372 . S
C3807 C3808 1.400 . S
C3807 C3812 1.490 . S
C3808 H3798 0.930 . S
C3808 C3807 1.400 . S
C3808 C3811 1.386 . S
H3809 C3825 0.930 . S
H3810 C3826 0.931 . S
C3811 H3799 0.929 . S
C3811 C3805 1.390 . S
C3811 C3808 1.386 . S
C3812 C3807 1.490 . S
C3812 C3814 1.395 . S
C3812 C3815 1.403 . S
H3813 C3819 0.930 . S
C3814 H3800 0.930 . S
C3814 C3812 1.395 . S
C3814 C3817 1.403 . S
C3815 C3812 1.403 . S
C3815 C3816 1.524 . S
C3815 C3819 1.400 . S
C3816 H3801 0.960 . S
C3816 H3802 0.960 . S
C3816 H3803 0.960 . S
C3816 C3815 1.524 . S
C3817 C3814 1.403 . S
C3817 C3818 1.392 . S
C3817 C3821 1.495 . S
C3818 C3817 1.392 . S
C3818 C3819 1.385 . S
C3818 C3820 1.478 . S
C3819 H3813 0.930 . S
C3819 C3815 1.400 . S
C3819 C3818 1.385 . S
C3820 C3818 1.478 . S
C3820 C3822 1.381 . S
C3820 C3826 1.383 . S
C3821 C3817 1.495 . S
C3821 H3827 0.959 . S
C3821 H3828 0.961 . S
C3821 H3829 0.960 . S
C3822 C3820 1.381 . S
C3822 C3823 1.394 . S
C3822 H3830 0.930 . S
C3823 C3822 1.394 . S
C3823 C3824 1.383 . S
C3823 H3831 0.929 . S
C3824 C3823 1.383 . S
C3824 C3825 1.377 . S
C3825 H3809 0.930 . S
C3825 C3824 1.377 . S
C3825 C3826 1.379 . S
C3826 H3810 0.931 . S
C3826 C3820 1.383 . S
C3826 C3825 1.379 . S
H3827 C3821 0.959 . S
H3828 C3821 0.961 . S
H3829 C3821 0.960 . S
H3830 C3822 0.930 . S
H3831 C3823 0.929 . S
H3832 C3840 0.929 . S
H3833 C3842 0.930 . S
H3834 C3844 0.930 . S
H3835 C3847 0.929 . S
H3836 C3850 0.930 . S
H3837 C3852 0.960 . S
H3838 C3852 0.960 . S
H3839 C3852 0.960 . S
C3840 H3832 0.929 . S
C3840 C3841 1.377 . S
C3840 C3842 1.384 . S
C3841 C3840 1.377 . S
C3841 C3847 1.390 . S
C3842 H3833 0.930 . S
C3842 C3840 1.384 . S
C3842 C3843 1.372 . S
C3843 C3842 1.372 . S
C3843 C3844 1.400 . S
C3843 C3848 1.490 . S
C3844 H3834 0.930 . S
C3844 C3843 1.400 . S
C3844 C3847 1.386 . S
H3845 C3861 0.930 . S
H3846 C3862 0.931 . S
C3847 H3835 0.929 . S
C3847 C3841 1.390 . S
C3847 C3844 1.386 . S
C3848 C3843 1.490 . S
C3848 C3850 1.395 . S
C3848 C3851 1.403 . S
H3849 C3855 0.930 . S
C3850 H3836 0.930 . S
C3850 C3848 1.395 . S
C3850 C3853 1.403 . S
C3851 C3848 1.403 . S
C3851 C3852 1.524 . S
C3851 C3855 1.400 . S
C3852 H3837 0.960 . S
C3852 H3838 0.960 . S
C3852 H3839 0.960 . S
C3852 C3851 1.524 . S
C3853 C3850 1.403 . S
C3853 C3854 1.392 . S
C3853 C3857 1.495 . S
C3854 C3853 1.392 . S
C3854 C3855 1.385 . S
C3854 C3856 1.478 . S
C3855 H3849 0.930 . S
C3855 C3851 1.400 . S
C3855 C3854 1.385 . S
C3856 C3854 1.478 . S
C3856 C3858 1.381 . S
C3856 C3862 1.383 . S
C3857 C3853 1.495 . S
C3857 H3863 0.959 . S
C3857 H3864 0.961 . S
C3857 H3865 0.960 . S
C3858 C3856 1.381 . S
C3858 C3859 1.394 . S
C3858 H3866 0.930 . S
C3859 C3858 1.394 . S
C3859 C3860 1.383 . S
C3859 H3867 0.929 . S
C3860 C3859 1.383 . S
C3860 C3861 1.377 . S
C3861 H3845 0.930 . S
C3861 C3860 1.377 . S
C3861 C3862 1.379 . S
C3862 H3846 0.931 . S
C3862 C3856 1.383 . S
C3862 C3861 1.379 . S
H3863 C3857 0.959 . S
H3864 C3857 0.961 . S
H3865 C3857 0.960 . S
H3866 C3858 0.930 . S
H3867 C3859 0.929 . S
H3868 C3876 0.929 . S
H3869 C3878 0.930 . S
H3870 C3880 0.930 . S
H3871 C3883 0.929 . S
H3872 C3886 0.930 . S
H3873 C3888 0.960 . S
H3874 C3888 0.960 . S
H3875 C3888 0.960 . S
C3876 H3868 0.929 . S
C3876 C3877 1.377 . S
C3876 C3878 1.384 . S
C3877 C3876 1.377 . S
C3877 C3883 1.390 . S
C3878 H3869 0.930 . S
C3878 C3876 1.384 . S
C3878 C3879 1.372 . S
C3879 C3878 1.372 . S
C3879 C3880 1.400 . S
C3879 C3884 1.490 . S
C3880 H3870 0.930 . S
C3880 C3879 1.400 . S
C3880 C3883 1.386 . S
H3881 C3897 0.930 . S
H3882 C3898 0.931 . S
C3883 H3871 0.929 . S
C3883 C3877 1.390 . S
C3883 C3880 1.386 . S
C3884 C3879 1.490 . S
C3884 C3886 1.395 . S
C3884 C3887 1.403 . S
H3885 C3891 0.930 . S
C3886 H3872 0.930 . S
C3886 C3884 1.395 . S
C3886 C3889 1.403 . S
C3887 C3884 1.403 . S
C3887 C3888 1.524 . S
C3887 C3891 1.400 . S
C3888 H3873 0.960 . S
C3888 H3874 0.960 . S
C3888 H3875 0.960 . S
C3888 C3887 1.524 . S
C3889 C3886 1.403 . S
C3889 C3890 1.392 . S
C3889 C3893 1.495 . S
C3890 C3889 1.392 . S
C3890 C3891 1.385 . S
C3890 C3892 1.478 . S
C3891 H3885 0.930 . S
C3891 C3887 1.400 . S
C3891 C3890 1.385 . S
C3892 C3890 1.478 . S
C3892 C3894 1.381 . S
C3892 C3898 1.383 . S
C3893 C3889 1.495 . S
C3893 H3899 0.959 . S
C3893 H3900 0.961 . S
C3893 H3901 0.960 . S
C3894 C3892 1.381 . S
C3894 C3895 1.394 . S
C3894 H3902 0.930 . S
C3895 C3894 1.394 . S
C3895 C3896 1.383 . S
C3895 H3903 0.929 . S
C3896 C3895 1.383 . S
C3896 C3897 1.377 . S
C3897 H3881 0.930 . S
C3897 C3896 1.377 . S
C3897 C3898 1.379 . S
C3898 H3882 0.931 . S
C3898 C3892 1.383 . S
C3898 C3897 1.379 . S
H3899 C3893 0.959 . S
H3900 C3893 0.961 . S
H3901 C3893 0.960 . S
H3902 C3894 0.930 . S
H3903 C3895 0.929 . S
H3904 C3912 0.929 . S
H3905 C3914 0.930 . S
H3906 C3916 0.930 . S
H3907 C3919 0.929 . S
H3908 C3922 0.930 . S
H3909 C3924 0.960 . S
H3910 C3924 0.960 . S
H3911 C3924 0.960 . S
C3912 H3904 0.929 . S
C3912 C3913 1.377 . S
C3912 C3914 1.384 . S
C3913 C3912 1.377 . S
C3913 C3919 1.390 . S
C3914 H3905 0.930 . S
C3914 C3912 1.384 . S
C3914 C3915 1.372 . S
C3915 C3914 1.372 . S
C3915 C3916 1.400 . S
C3915 C3920 1.490 . S
C3916 H3906 0.930 . S
C3916 C3915 1.400 . S
C3916 C3919 1.386 . S
H3917 C3933 0.930 . S
H3918 C3934 0.931 . S
C3919 H3907 0.929 . S
C3919 C3913 1.390 . S
C3919 C3916 1.386 . S
C3920 C3915 1.490 . S
C3920 C3922 1.395 . S
C3920 C3923 1.403 . S
H3921 C3927 0.930 . S
C3922 H3908 0.930 . S
C3922 C3920 1.395 . S
C3922 C3925 1.403 . S
C3923 C3920 1.403 . S
C3923 C3924 1.524 . S
C3923 C3927 1.400 . S
C3924 H3909 0.960 . S
C3924 H3910 0.960 . S
C3924 H3911 0.960 . S
C3924 C3923 1.524 . S
C3925 C3922 1.403 . S
C3925 C3926 1.392 . S
C3925 C3929 1.495 . S
C3926 C3925 1.392 . S
C3926 C3927 1.385 . S
C3926 C3928 1.478 . S
C3927 H3921 0.930 . S
C3927 C3923 1.400 . S
C3927 C3926 1.385 . S
C3928 C3926 1.478 . S
C3928 C3930 1.360 1_655 S
C3928 C3934 1.383 . S
C3929 C3925 1.495 . S
C3929 H3935 0.959 . S
C3929 H3936 0.961 . S
C3929 H3937 0.960 . S
C3930 C3928 1.360 1_455 S
C3930 C3931 1.405 . S
C3930 H3938 0.942 . S
C3931 C3930 1.405 . S
C3931 C3932 1.383 . S
C3931 H3939 0.929 . S
C3932 C3931 1.383 . S
C3932 C3933 1.377 1_455 S
C3933 H3917 0.930 . S
C3933 C3932 1.377 1_655 S
C3933 C3934 1.379 . S
C3934 H3918 0.931 . S
C3934 C3928 1.383 . S
C3934 C3933 1.379 . S
H3935 C3929 0.959 . S
H3936 C3929 0.961 . S
H3937 C3929 0.960 . S
H3938 C3930 0.942 . S
H3939 C3931 0.929 . S
H3940 C3948 0.929 . S
H3941 C3950 0.930 . S
H3942 C3952 0.930 . S
H3943 C3955 0.929 . S
H3944 C3958 0.930 . S
H3945 C3960 0.960 . S
H3946 C3960 0.960 . S
H3947 C3960 0.960 . S
C3948 H3940 0.929 . S
C3948 C3949 1.377 . S
C3948 C3950 1.384 . S
C3949 C3948 1.377 . S
C3949 C3955 1.390 . S
C3950 H3941 0.930 . S
C3950 C3948 1.384 . S
C3950 C3951 1.372 . S
C3951 C3950 1.372 . S
C3951 C3952 1.400 . S
C3951 C3956 1.490 . S
C3952 H3942 0.930 . S
C3952 C3951 1.400 . S
C3952 C3955 1.386 . S
H3953 C3969 0.930 . S
H3954 C3970 0.931 . S
C3955 H3943 0.929 . S
C3955 C3949 1.390 . S
C3955 C3952 1.386 . S
C3956 C3951 1.490 . S
C3956 C3958 1.395 . S
C3956 C3959 1.403 . S
H3957 C3963 0.930 . S
C3958 H3944 0.930 . S
C3958 C3956 1.395 . S
C3958 C3961 1.403 . S
C3959 C3956 1.403 . S
C3959 C3960 1.524 . S
C3959 C3963 1.400 . S
C3960 H3945 0.960 . S
C3960 H3946 0.960 . S
C3960 H3947 0.960 . S
C3960 C3959 1.524 . S
C3961 C3958 1.403 . S
C3961 C3962 1.392 . S
C3961 C3965 1.495 . S
C3962 C3961 1.392 . S
C3962 C3963 1.385 . S
C3962 C3964 1.478 . S
C3963 H3957 0.930 . S
C3963 C3959 1.400 . S
C3963 C3962 1.385 . S
C3964 C3962 1.478 . S
C3964 C3966 1.381 . S
C3964 C3970 1.383 . S
C3965 C3961 1.495 . S
C3965 H3971 0.959 . S
C3965 H3972 0.961 . S
C3965 H3973 0.960 . S
C3966 C3964 1.381 . S
C3966 C3967 1.394 . S
C3966 H3974 0.930 . S
C3967 C3966 1.394 . S
C3967 C3968 1.383 . S
C3967 H3975 0.929 . S
C3968 C3967 1.383 . S
C3968 C3969 1.377 . S
C3969 H3953 0.930 . S
C3969 C3968 1.377 . S
C3969 C3970 1.379 . S
C3970 H3954 0.931 . S
C3970 C3964 1.383 . S
C3970 C3969 1.379 . S
H3971 C3965 0.959 . S
H3972 C3965 0.961 . S
H3973 C3965 0.960 . S
H3974 C3966 0.930 . S
H3975 C3967 0.929 . S
H3976 C3984 0.929 . S
H3977 C3986 0.930 . S
H3978 C3988 0.930 . S
H3979 C3991 0.929 . S
H3980 C3994 0.930 . S
H3981 C3996 0.960 . S
H3982 C3996 0.960 . S
H3983 C3996 0.960 . S
C3984 H3976 0.929 . S
C3984 C3985 1.377 . S
C3984 C3986 1.384 . S
C3985 C3984 1.377 . S
C3985 C3991 1.390 . S
C3986 H3977 0.930 . S
C3986 C3984 1.384 . S
C3986 C3987 1.372 . S
C3987 C3986 1.372 . S
C3987 C3988 1.400 . S
C3987 C3992 1.490 . S
C3988 H3978 0.930 . S
C3988 C3987 1.400 . S
C3988 C3991 1.386 . S
H3989 C4005 0.930 . S
H3990 C4006 0.931 . S
C3991 H3979 0.929 . S
C3991 C3985 1.390 . S
C3991 C3988 1.386 . S
C3992 C3987 1.490 . S
C3992 C3994 1.395 . S
C3992 C3995 1.403 . S
H3993 C3999 0.930 . S
C3994 H3980 0.930 . S
C3994 C3992 1.395 . S
C3994 C3997 1.403 . S
C3995 C3992 1.403 . S
C3995 C3996 1.524 . S
C3995 C3999 1.400 . S
C3996 H3981 0.960 . S
C3996 H3982 0.960 . S
C3996 H3983 0.960 . S
C3996 C3995 1.524 . S
C3997 C3994 1.403 . S
C3997 C3998 1.392 . S
C3997 C4001 1.495 . S
C3998 C3997 1.392 . S
C3998 C3999 1.385 . S
C3998 C4000 1.478 . S
C3999 H3993 0.930 . S
C3999 C3995 1.400 . S
C3999 C3998 1.385 . S
C4000 C3998 1.478 . S
C4000 C4002 1.381 . S
C4000 C4006 1.383 . S
C4001 C3997 1.495 . S
C4001 H4007 0.959 . S
C4001 H4008 0.961 . S
C4001 H4009 0.960 . S
C4002 C4000 1.381 . S
C4002 C4003 1.394 . S
C4002 H4010 0.930 . S
C4003 C4002 1.394 . S
C4003 C4004 1.383 . S
C4003 H4011 0.929 . S
C4004 C4003 1.383 . S
C4004 C4005 1.377 . S
C4005 H3989 0.930 . S
C4005 C4004 1.377 . S
C4005 C4006 1.379 . S
C4006 H3990 0.931 . S
C4006 C4000 1.383 . S
C4006 C4005 1.379 . S
H4007 C4001 0.959 . S
H4008 C4001 0.961 . S
H4009 C4001 0.960 . S
H4010 C4002 0.930 . S
H4011 C4003 0.929 . S
H4012 C4020 0.929 . S
H4013 C4022 0.930 . S
H4014 C4024 0.930 . S
H4015 C4027 0.929 . S
H4016 C4030 0.930 . S
H4017 C4032 0.960 . S
H4018 C4032 0.960 . S
H4019 C4032 0.960 . S
C4020 H4012 0.929 . S
C4020 C4021 1.377 . S
C4020 C4022 1.384 . S
C4021 C4020 1.377 . S
C4021 C4027 1.390 . S
C4022 H4013 0.930 . S
C4022 C4020 1.384 . S
C4022 C4023 1.372 . S
C4023 C4022 1.372 . S
C4023 C4024 1.400 . S
C4023 C4028 1.490 . S
C4024 H4014 0.930 . S
C4024 C4023 1.400 . S
C4024 C4027 1.386 . S
H4025 C4041 0.930 . S
H4026 C4042 0.931 . S
C4027 H4015 0.929 . S
C4027 C4021 1.390 . S
C4027 C4024 1.386 . S
C4028 C4023 1.490 . S
C4028 C4030 1.395 . S
C4028 C4031 1.403 . S
H4029 C4035 0.930 . S
C4030 H4016 0.930 . S
C4030 C4028 1.395 . S
C4030 C4033 1.403 . S
C4031 C4028 1.403 . S
C4031 C4032 1.524 . S
C4031 C4035 1.400 . S
C4032 H4017 0.960 . S
C4032 H4018 0.960 . S
C4032 H4019 0.960 . S
C4032 C4031 1.524 . S
C4033 C4030 1.403 . S
C4033 C4034 1.392 . S
C4033 C4037 1.495 . S
C4034 C4033 1.392 . S
C4034 C4035 1.385 . S
C4034 C4036 1.478 . S
C4035 H4029 0.930 . S
C4035 C4031 1.400 . S
C4035 C4034 1.385 . S
C4036 C4034 1.478 . S
C4036 C4038 1.381 . S
C4036 C4042 1.383 . S
C4037 C4033 1.495 . S
C4037 H4043 0.959 . S
C4037 H4044 0.961 . S
C4037 H4045 0.960 . S
C4038 C4036 1.381 . S
C4038 C4039 1.394 . S
C4038 H4046 0.930 . S
C4039 C4038 1.394 . S
C4039 C4040 1.383 . S
C4039 H4047 0.929 . S
C4040 C4039 1.383 . S
C4040 C4041 1.377 . S
C4041 H4025 0.930 . S
C4041 C4040 1.377 . S
C4041 C4042 1.379 . S
C4042 H4026 0.931 . S
C4042 C4036 1.383 . S
C4042 C4041 1.379 . S
H4043 C4037 0.959 . S
H4044 C4037 0.961 . S
H4045 C4037 0.960 . S
H4046 C4038 0.930 . S
H4047 C4039 0.929 . S
H4048 C4056 0.929 . S
H4049 C4058 0.930 . S
H4050 C4060 0.930 . S
H4051 C4063 0.929 . S
H4052 C4066 0.930 . S
H4053 C4068 0.960 . S
H4054 C4068 0.960 . S
H4055 C4068 0.960 . S
C4056 H4048 0.929 . S
C4056 C4057 1.377 . S
C4056 C4058 1.384 . S
C4057 C4056 1.377 . S
C4057 C4063 1.390 . S
C4058 H4049 0.930 . S
C4058 C4056 1.384 . S
C4058 C4059 1.372 . S
C4059 C4058 1.372 . S
C4059 C4060 1.400 . S
C4059 C4064 1.490 . S
C4060 H4050 0.930 . S
C4060 C4059 1.400 . S
C4060 C4063 1.386 . S
H4061 C4077 0.930 . S
H4062 C4078 0.931 . S
C4063 H4051 0.929 . S
C4063 C4057 1.390 . S
C4063 C4060 1.386 . S
C4064 C4059 1.490 . S
C4064 C4066 1.395 . S
C4064 C4067 1.403 . S
H4065 C4071 0.930 . S
C4066 H4052 0.930 . S
C4066 C4064 1.395 . S
C4066 C4069 1.403 . S
C4067 C4064 1.403 . S
C4067 C4068 1.524 . S
C4067 C4071 1.400 . S
C4068 H4053 0.960 . S
C4068 H4054 0.960 . S
C4068 H4055 0.960 . S
C4068 C4067 1.524 . S
C4069 C4066 1.403 . S
C4069 C4070 1.392 . S
C4069 C4073 1.495 . S
C4070 C4069 1.392 . S
C4070 C4071 1.385 . S
C4070 C4072 1.478 . S
C4071 H4065 0.930 . S
C4071 C4067 1.400 . S
C4071 C4070 1.385 . S
C4072 C4070 1.478 . S
C4072 C4074 1.381 . S
C4072 C4078 1.383 . S
C4073 C4069 1.495 . S
C4073 H4079 0.959 . S
C4073 H4080 0.961 . S
C4073 H4081 0.960 . S
C4074 C4072 1.381 . S
C4074 C4075 1.386 1_655 S
C4074 H4082 0.930 . S
C4075 C4074 1.386 1_455 S
C4075 C4076 1.379 1_455 S
C4075 H4083 0.943 . S
C4076 C4075 1.379 1_655 S
C4076 C4077 1.377 . S
C4077 H4061 0.930 . S
C4077 C4076 1.377 . S
C4077 C4078 1.379 . S
C4078 H4062 0.931 . S
C4078 C4072 1.383 . S
C4078 C4077 1.379 . S
H4079 C4073 0.959 . S
H4080 C4073 0.961 . S
H4081 C4073 0.960 . S
H4082 C4074 0.930 . S
H4083 C4075 0.943 . S
H4084 C4092 0.929 . S
H4085 C4094 0.930 . S
H4086 C4096 0.930 . S
H4087 C4099 0.929 . S
H4088 C4102 0.930 . S
H4089 C4104 0.960 . S
H4090 C4104 0.960 . S
H4091 C4104 0.960 . S
C4092 H4084 0.929 . S
C4092 C4093 1.377 . S
C4092 C4094 1.384 . S
C4093 C4092 1.377 . S
C4093 C4099 1.390 . S
C4094 H4085 0.930 . S
C4094 C4092 1.384 . S
C4094 C4095 1.372 . S
C4095 C4094 1.372 . S
C4095 C4096 1.400 . S
C4095 C4100 1.490 . S
C4096 H4086 0.930 . S
C4096 C4095 1.400 . S
C4096 C4099 1.386 . S
H4097 C4113 0.930 . S
H4098 C4114 0.931 . S
C4099 H4087 0.929 . S
C4099 C4093 1.390 . S
C4099 C4096 1.386 . S
C4100 C4095 1.490 . S
C4100 C4102 1.395 . S
C4100 C4103 1.403 . S
H4101 C4107 0.930 . S
C4102 H4088 0.930 . S
C4102 C4100 1.395 . S
C4102 C4105 1.403 . S
C4103 C4100 1.403 . S
C4103 C4104 1.524 . S
C4103 C4107 1.400 . S
C4104 H4089 0.960 . S
C4104 H4090 0.960 . S
C4104 H4091 0.960 . S
C4104 C4103 1.524 . S
C4105 C4102 1.403 . S
C4105 C4106 1.392 . S
C4105 C4109 1.495 . S
C4106 C4105 1.392 . S
C4106 C4107 1.385 . S
C4106 C4108 1.478 . S
C4107 H4101 0.930 . S
C4107 C4103 1.400 . S
C4107 C4106 1.385 . S
C4108 C4106 1.478 . S
C4108 C4110 1.381 . S
C4108 C4114 1.383 . S
C4109 C4105 1.495 . S
C4109 H4115 0.959 . S
C4109 H4116 0.961 . S
C4109 H4117 0.960 . S
C4110 C4108 1.381 . S
C4110 C4111 1.394 . S
C4110 H4118 0.930 . S
C4111 C4110 1.394 . S
C4111 C4112 1.383 . S
C4111 H4119 0.929 . S
C4112 C4111 1.383 . S
C4112 C4113 1.377 . S
C4113 H4097 0.930 . S
C4113 C4112 1.377 . S
C4113 C4114 1.379 . S
C4114 H4098 0.931 . S
C4114 C4108 1.383 . S
C4114 C4113 1.379 . S
H4115 C4109 0.959 . S
H4116 C4109 0.961 . S
H4117 C4109 0.960 . S
H4118 C4110 0.930 . S
H4119 C4111 0.929 . S
H4120 C4128 0.929 . S
H4121 C4130 0.930 . S
H4122 C4132 0.930 . S
H4123 C4135 0.929 . S
H4124 C4138 0.930 . S
H4125 C4140 0.960 . S
H4126 C4140 0.960 . S
H4127 C4140 0.960 . S
C4128 H4120 0.929 . S
C4128 C4129 1.377 . S
C4128 C4130 1.384 . S
C4129 C4128 1.377 . S
C4129 C4135 1.390 . S
C4130 H4121 0.930 . S
C4130 C4128 1.384 . S
C4130 C4131 1.372 . S
C4131 C4130 1.372 . S
C4131 C4132 1.400 . S
C4131 C4136 1.490 . S
C4132 H4122 0.930 . S
C4132 C4131 1.400 . S
C4132 C4135 1.386 . S
H4133 C4149 0.930 . S
H4134 C4150 0.931 . S
C4135 H4123 0.929 . S
C4135 C4129 1.390 . S
C4135 C4132 1.386 . S
C4136 C4131 1.490 . S
C4136 C4138 1.395 . S
C4136 C4139 1.403 . S
H4137 C4143 0.930 . S
C4138 H4124 0.930 . S
C4138 C4136 1.395 . S
C4138 C4141 1.403 . S
C4139 C4136 1.403 . S
C4139 C4140 1.524 . S
C4139 C4143 1.400 . S
C4140 H4125 0.960 . S
C4140 H4126 0.960 . S
C4140 H4127 0.960 . S
C4140 C4139 1.524 . S
C4141 C4138 1.403 . S
C4141 C4142 1.392 . S
C4141 C4145 1.495 . S
C4142 C4141 1.392 . S
C4142 C4143 1.385 . S
C4142 C4144 1.478 . S
C4143 H4137 0.930 . S
C4143 C4139 1.400 . S
C4143 C4142 1.385 . S
C4144 C4142 1.478 . S
C4144 C4146 1.381 . S
C4144 C4150 1.383 . S
C4145 C4141 1.495 . S
C4145 H4151 0.959 . S
C4145 H4152 0.961 . S
C4145 H4153 0.960 . S
C4146 C4144 1.381 . S
C4146 C4147 1.394 . S
C4146 H4154 0.930 . S
C4147 C4146 1.394 . S
C4147 C4148 1.383 . S
C4147 H4155 0.929 . S
C4148 C4147 1.383 . S
C4148 C4149 1.377 . S
C4149 H4133 0.930 . S
C4149 C4148 1.377 . S
C4149 C4150 1.379 . S
C4150 H4134 0.931 . S
C4150 C4144 1.383 . S
C4150 C4149 1.379 . S
H4151 C4145 0.959 . S
H4152 C4145 0.961 . S
H4153 C4145 0.960 . S
H4154 C4146 0.930 . S
H4155 C4147 0.929 . S
H4156 C4164 0.929 . S
H4157 C4166 0.930 . S
H4158 C4168 0.930 . S
H4159 C4171 0.929 . S
H4160 C4174 0.930 . S
H4161 C4176 0.960 . S
H4162 C4176 0.960 . S
H4163 C4176 0.960 . S
C4164 H4156 0.929 . S
C4164 C4165 1.377 . S
C4164 C4166 1.384 . S
C4165 C4164 1.377 . S
C4165 C4171 1.390 . S
C4166 H4157 0.930 . S
C4166 C4164 1.384 . S
C4166 C4167 1.372 . S
C4167 C4166 1.372 . S
C4167 C4168 1.400 . S
C4167 C4172 1.490 . S
C4168 H4158 0.930 . S
C4168 C4167 1.400 . S
C4168 C4171 1.386 . S
H4169 C4185 0.930 . S
H4170 C4186 0.931 . S
C4171 H4159 0.929 . S
C4171 C4165 1.390 . S
C4171 C4168 1.386 . S
C4172 C4167 1.490 . S
C4172 C4174 1.395 . S
C4172 C4175 1.403 . S
H4173 C4179 0.930 . S
C4174 H4160 0.930 . S
C4174 C4172 1.395 . S
C4174 C4177 1.403 . S
C4175 C4172 1.403 . S
C4175 C4176 1.524 . S
C4175 C4179 1.400 . S
C4176 H4161 0.960 . S
C4176 H4162 0.960 . S
C4176 H4163 0.960 . S
C4176 C4175 1.524 . S
C4177 C4174 1.403 . S
C4177 C4178 1.392 . S
C4177 C4181 1.495 . S
C4178 C4177 1.392 . S
C4178 C4179 1.385 . S
C4178 C4180 1.478 . S
C4179 H4173 0.930 . S
C4179 C4175 1.400 . S
C4179 C4178 1.385 . S
C4180 C4178 1.478 . S
C4180 C4182 1.381 . S
C4180 C4186 1.383 . S
C4181 C4177 1.495 . S
C4181 H4187 0.959 . S
C4181 H4188 0.961 . S
C4181 H4189 0.960 . S
C4182 C4180 1.381 . S
C4182 C4183 1.394 . S
C4182 H4190 0.930 . S
C4183 C4182 1.394 . S
C4183 C4184 1.383 . S
C4183 H4191 0.929 . S
C4184 C4183 1.383 . S
C4184 C4185 1.377 . S
C4185 H4169 0.930 . S
C4185 C4184 1.377 . S
C4185 C4186 1.379 . S
C4186 H4170 0.931 . S
C4186 C4180 1.383 . S
C4186 C4185 1.379 . S
H4187 C4181 0.959 . S
H4188 C4181 0.961 . S
H4189 C4181 0.960 . S
H4190 C4182 0.930 . S
H4191 C4183 0.929 . S
H4192 C4200 0.929 . S
H4193 C4202 0.930 . S
H4194 C4204 0.930 . S
H4195 C4207 0.929 . S
H4196 C4210 0.930 . S
H4197 C4212 0.960 . S
H4198 C4212 0.960 . S
H4199 C4212 0.960 . S
C4200 H4192 0.929 . S
C4200 C4201 1.377 . S
C4200 C4202 1.384 . S
C4201 C4200 1.377 . S
C4201 C4207 1.390 . S
C4202 H4193 0.930 . S
C4202 C4200 1.384 . S
C4202 C4203 1.372 . S
C4203 C4202 1.372 . S
C4203 C4204 1.400 . S
C4203 C4208 1.490 . S
C4204 H4194 0.930 . S
C4204 C4203 1.400 . S
C4204 C4207 1.386 . S
H4205 C4221 0.930 . S
H4206 C4222 0.931 . S
C4207 H4195 0.929 . S
C4207 C4201 1.390 . S
C4207 C4204 1.386 . S
C4208 C4203 1.490 . S
C4208 C4210 1.395 . S
C4208 C4211 1.403 . S
H4209 C4215 0.930 . S
C4210 H4196 0.930 . S
C4210 C4208 1.395 . S
C4210 C4213 1.403 . S
C4211 C4208 1.403 . S
C4211 C4212 1.524 . S
C4211 C4215 1.400 . S
C4212 H4197 0.960 . S
C4212 H4198 0.960 . S
C4212 H4199 0.960 . S
C4212 C4211 1.524 . S
C4213 C4210 1.403 . S
C4213 C4214 1.392 . S
C4213 C4217 1.495 . S
C4214 C4213 1.392 . S
C4214 C4215 1.385 . S
C4214 C4216 1.478 . S
C4215 H4209 0.930 . S
C4215 C4211 1.400 . S
C4215 C4214 1.385 . S
C4216 C4214 1.478 . S
C4216 C4218 1.381 . S
C4216 C4222 1.383 . S
C4217 C4213 1.495 . S
C4217 H4223 0.959 . S
C4217 H4224 0.961 . S
C4217 H4225 0.960 . S
C4218 C4216 1.381 . S
C4218 C4219 1.394 . S
C4218 H4226 0.930 . S
C4219 C4218 1.394 . S
C4219 C4220 1.383 . S
C4219 H4227 0.929 . S
C4220 C4219 1.383 . S
C4220 C4221 1.377 . S
C4221 H4205 0.930 . S
C4221 C4220 1.377 . S
C4221 C4222 1.379 . S
C4222 H4206 0.931 . S
C4222 C4216 1.383 . S
C4222 C4221 1.379 . S
H4223 C4217 0.959 . S
H4224 C4217 0.961 . S
H4225 C4217 0.960 . S
H4226 C4218 0.930 . S
H4227 C4219 0.929 . S
H4228 C4236 0.929 . S
H4229 C4238 0.930 . S
H4230 C4240 0.930 . S
H4231 C4243 0.929 . S
H4232 C4246 0.930 . S
H4233 C4248 0.960 . S
H4234 C4248 0.960 1_554 S
H4235 C4248 0.960 . S
C4236 H4228 0.929 . S
C4236 C4237 1.377 . S
C4236 C4238 1.384 . S
C4237 C4236 1.377 . S
C4237 C4243 1.390 . S
C4238 H4229 0.930 . S
C4238 C4236 1.384 . S
C4238 C4239 1.372 . S
C4239 C4238 1.372 . S
C4239 C4240 1.400 . S
C4239 C4244 1.490 . S
C4240 H4230 0.930 . S
C4240 C4239 1.400 . S
C4240 C4243 1.386 . S
H4241 C4257 0.930 1_556 S
H4242 C4258 0.952 . S
C4243 H4231 0.929 . S
C4243 C4237 1.390 . S
C4243 C4240 1.386 . S
C4244 C4239 1.490 . S
C4244 C4246 1.395 . S
C4244 C4247 1.403 . S
H4245 C4251 0.930 . S
C4246 H4232 0.930 . S
C4246 C4244 1.395 . S
C4246 C4249 1.403 . S
C4247 C4244 1.403 . S
C4247 C4248 1.524 1_554 S
C4247 C4251 1.400 . S
C4248 H4233 0.960 . S
C4248 H4234 0.960 1_556 S
C4248 H4235 0.960 . S
C4248 C4247 1.524 1_556 S
C4249 C4246 1.403 . S
C4249 C4250 1.392 . S
C4249 C4253 1.495 . S
C4250 C4249 1.392 . S
C4250 C4251 1.385 . S
C4250 C4252 1.478 . S
C4251 H4245 0.930 . S
C4251 C4247 1.400 . S
C4251 C4250 1.385 . S
C4252 C4250 1.478 . S
C4252 C4254 1.381 . S
C4252 C4258 1.383 . S
C4253 C4249 1.495 . S
C4253 H4259 0.959 . S
C4253 H4260 0.961 . S
C4253 H4261 0.960 . S
C4254 C4252 1.381 . S
C4254 C4255 1.394 . S
C4254 H4262 0.930 . S
C4255 C4254 1.394 . S
C4255 C4256 1.383 . S
C4255 H4263 0.929 . S
C4256 C4255 1.383 . S
C4256 C4257 1.377 . S
C4257 H4241 0.930 1_554 S
C4257 C4256 1.377 . S
C4257 C4258 1.379 . S
C4258 H4242 0.952 . S
C4258 C4252 1.383 . S
C4258 C4257 1.379 . S
H4259 C4253 0.959 . S
H4260 C4253 0.961 . S
H4261 C4253 0.960 . S
H4262 C4254 0.930 . S
H4263 C4255 0.929 . S
H4264 C4272 0.929 . S
H4265 C4274 0.930 . S
H4266 C4276 0.930 . S
H4267 C4279 0.929 . S
H4268 C4282 0.930 . S
H4269 C4284 0.960 . S
H4270 C4284 0.960 . S
H4271 C4284 0.960 . S
C4272 H4264 0.929 . S
C4272 C4273 1.377 . S
C4272 C4274 1.384 . S
C4273 C4272 1.377 . S
C4273 C4279 1.390 . S
C4274 H4265 0.930 . S
C4274 C4272 1.384 . S
C4274 C4275 1.372 . S
C4275 C4274 1.372 . S
C4275 C4276 1.400 . S
C4275 C4280 1.490 . S
C4276 H4266 0.930 . S
C4276 C4275 1.400 . S
C4276 C4279 1.386 . S
H4277 C4293 0.930 . S
H4278 C4294 0.931 . S
C4279 H4267 0.929 . S
C4279 C4273 1.390 . S
C4279 C4276 1.386 . S
C4280 C4275 1.490 . S
C4280 C4282 1.395 . S
C4280 C4283 1.403 . S
H4281 C4287 0.930 . S
C4282 H4268 0.930 . S
C4282 C4280 1.395 . S
C4282 C4285 1.403 . S
C4283 C4280 1.403 . S
C4283 C4284 1.524 . S
C4283 C4287 1.400 . S
C4284 H4269 0.960 . S
C4284 H4270 0.960 . S
C4284 H4271 0.960 . S
C4284 C4283 1.524 . S
C4285 C4282 1.403 . S
C4285 C4286 1.392 . S
C4285 C4289 1.495 . S
C4286 C4285 1.392 . S
C4286 C4287 1.385 . S
C4286 C4288 1.478 . S
C4287 H4281 0.930 . S
C4287 C4283 1.400 . S
C4287 C4286 1.385 . S
C4288 C4286 1.478 . S
C4288 C4290 1.381 . S
C4288 C4294 1.383 . S
C4289 C4285 1.495 . S
C4289 H4295 0.959 . S
C4289 H4296 0.961 . S
C4289 H4297 0.960 . S
C4290 C4288 1.381 . S
C4290 C4291 1.394 . S
C4290 H4298 0.930 . S
C4291 C4290 1.394 . S
C4291 C4292 1.383 . S
C4291 H4299 0.929 . S
C4292 C4291 1.383 . S
C4292 C4293 1.377 . S
C4293 H4277 0.930 . S
C4293 C4292 1.377 . S
C4293 C4294 1.379 . S
C4294 H4278 0.931 . S
C4294 C4288 1.383 . S
C4294 C4293 1.379 . S
H4295 C4289 0.959 . S
H4296 C4289 0.961 . S
H4297 C4289 0.960 . S
H4298 C4290 0.930 . S
H4299 C4291 0.929 . S
H4300 C4308 0.929 . S
H4301 C4310 0.896 1_556 S
H4302 C4312 0.930 . S
H4303 C4315 0.929 . S
H4304 C4318 0.930 . S
H4305 C4320 0.960 . S
H4306 C4320 0.960 . S
H4307 C4320 0.960 . S
C4308 H4300 0.929 . S
C4308 C4309 1.377 . S
C4308 C4310 1.384 . S
C4309 C4308 1.377 . S
C4309 C4315 1.390 . S
C4310 H4301 0.896 1_554 S
C4310 C4308 1.384 . S
C4310 C4311 1.372 . S
C4311 C4310 1.372 . S
C4311 C4312 1.400 . S
C4311 C4316 1.490 . S
C4312 H4302 0.930 . S
C4312 C4311 1.400 . S
C4312 C4315 1.386 . S
H4313 C4329 0.930 . S
H4314 C4330 0.931 . S
C4315 H4303 0.929 . S
C4315 C4309 1.390 . S
C4315 C4312 1.386 . S
C4316 C4311 1.490 . S
C4316 C4318 1.395 . S
C4316 C4319 1.403 . S
H4317 C4323 0.930 . S
C4318 H4304 0.930 . S
C4318 C4316 1.395 . S
C4318 C4321 1.403 . S
C4319 C4316 1.403 . S
C4319 C4320 1.524 . S
C4319 C4323 1.400 . S
C4320 H4305 0.960 . S
C4320 H4306 0.960 . S
C4320 H4307 0.960 . S
C4320 C4319 1.524 . S
C4321 C4318 1.403 . S
C4321 C4322 1.392 . S
C4321 C4325 1.495 . S
C4322 C4321 1.392 . S
C4322 C4323 1.385 . S
C4322 C4324 1.478 . S
C4323 H4317 0.930 . S
C4323 C4319 1.400 . S
C4323 C4322 1.385 . S
C4324 C4322 1.478 . S
C4324 C4326 1.381 1_554 S
C4324 C4330 1.383 . S
C4325 C4321 1.495 . S
C4325 H4331 0.959 . S
C4325 H4332 0.961 . S
C4325 H4333 0.960 . S
C4326 C4324 1.381 1_556 S
C4326 C4327 1.394 . S
C4326 H4334 0.930 . S
C4327 C4326 1.394 . S
C4327 C4328 1.383 1_556 S
C4327 H4335 0.929 . S
C4328 C4327 1.383 1_554 S
C4328 C4329 1.377 . S
C4329 H4313 0.930 . S
C4329 C4328 1.377 . S
C4329 C4330 1.379 . S
C4330 H4314 0.931 . S
C4330 C4324 1.383 . S
C4330 C4329 1.379 . S
H4331 C4325 0.959 . S
H4332 C4325 0.961 . S
H4333 C4325 0.960 . S
H4334 C4326 0.930 . S
H4335 C4327 0.929 . S
H4336 C4344 0.929 . S
H4337 C4346 0.930 . S
H4338 C4348 0.930 . S
H4339 C4351 0.929 . S
H4340 C4354 0.930 . S
H4341 C4356 0.960 . S
H4342 C4356 0.960 . S
H4343 C4356 0.960 . S
C4344 H4336 0.929 . S
C4344 C4345 1.377 . S
C4344 C4346 1.384 . S
C4345 C4344 1.377 . S
C4345 C4351 1.390 . S
C4346 H4337 0.930 . S
C4346 C4344 1.384 . S
C4346 C4347 1.372 . S
C4347 C4346 1.372 . S
C4347 C4348 1.400 . S
C4347 C4352 1.490 . S
C4348 H4338 0.930 . S
C4348 C4347 1.400 . S
C4348 C4351 1.386 . S
H4349 C4365 0.930 . S
H4350 C4366 0.931 . S
C4351 H4339 0.929 . S
C4351 C4345 1.390 . S
C4351 C4348 1.386 . S
C4352 C4347 1.490 . S
C4352 C4354 1.395 . S
C4352 C4355 1.403 . S
H4353 C4359 0.930 . S
C4354 H4340 0.930 . S
C4354 C4352 1.395 . S
C4354 C4357 1.403 . S
C4355 C4352 1.403 . S
C4355 C4356 1.524 . S
C4355 C4359 1.400 . S
C4356 H4341 0.960 . S
C4356 H4342 0.960 . S
C4356 H4343 0.960 . S
C4356 C4355 1.524 . S
C4357 C4354 1.403 . S
C4357 C4358 1.392 . S
C4357 C4361 1.495 . S
C4358 C4357 1.392 . S
C4358 C4359 1.385 . S
C4358 C4360 1.478 . S
C4359 H4353 0.930 . S
C4359 C4355 1.400 . S
C4359 C4358 1.385 . S
C4360 C4358 1.478 . S
C4360 C4362 1.381 . S
C4360 C4366 1.383 . S
C4361 C4357 1.495 . S
C4361 H4367 0.959 . S
C4361 H4368 0.961 . S
C4361 H4369 0.960 . S
C4362 C4360 1.381 . S
C4362 C4363 1.394 . S
C4362 H4370 0.930 . S
C4363 C4362 1.394 . S
C4363 C4364 1.383 . S
C4363 H4371 0.929 . S
C4364 C4363 1.383 . S
C4364 C4365 1.377 . S
C4365 H4349 0.930 . S
C4365 C4364 1.377 . S
C4365 C4366 1.379 . S
C4366 H4350 0.931 . S
C4366 C4360 1.383 . S
C4366 C4365 1.379 . S
H4367 C4361 0.959 . S
H4368 C4361 0.961 . S
H4369 C4361 0.960 . S
H4370 C4362 0.930 . S
H4371 C4363 0.929 . S
H4372 C4380 0.929 . S
H4373 C4382 0.930 . S
H4374 C4384 0.930 . S
H4375 C4387 0.929 . S
H4376 C4390 0.930 . S
H4377 C4392 0.960 . S
H4378 C4392 0.960 . S
H4379 C4392 0.960 . S
C4380 H4372 0.929 . S
C4380 C4381 1.377 . S
C4380 C4382 1.384 . S
C4381 C4380 1.377 . S
C4381 C4387 1.390 . S
C4382 H4373 0.930 . S
C4382 C4380 1.384 . S
C4382 C4383 1.372 . S
C4383 C4382 1.372 . S
C4383 C4384 1.400 . S
C4383 C4388 1.490 . S
C4384 H4374 0.930 . S
C4384 C4383 1.400 . S
C4384 C4387 1.386 . S
H4385 C4401 0.930 . S
H4386 C4402 0.931 . S
C4387 H4375 0.929 . S
C4387 C4381 1.390 . S
C4387 C4384 1.386 . S
C4388 C4383 1.490 . S
C4388 C4390 1.395 . S
C4388 C4391 1.403 . S
H4389 C4395 0.930 . S
C4390 H4376 0.930 . S
C4390 C4388 1.395 . S
C4390 C4393 1.403 . S
C4391 C4388 1.403 . S
C4391 C4392 1.524 . S
C4391 C4395 1.400 . S
C4392 H4377 0.960 . S
C4392 H4378 0.960 . S
C4392 H4379 0.960 . S
C4392 C4391 1.524 . S
C4393 C4390 1.403 . S
C4393 C4394 1.392 . S
C4393 C4397 1.495 . S
C4394 C4393 1.392 . S
C4394 C4395 1.385 . S
C4394 C4396 1.478 . S
C4395 H4389 0.930 . S
C4395 C4391 1.400 . S
C4395 C4394 1.385 . S
C4396 C4394 1.478 . S
C4396 C4398 1.381 . S
C4396 C4402 1.383 . S
C4397 C4393 1.495 . S
C4397 H4403 0.959 . S
C4397 H4404 0.961 . S
C4397 H4405 0.960 . S
C4398 C4396 1.381 . S
C4398 C4399 1.394 . S
C4398 H4406 0.930 . S
C4399 C4398 1.394 . S
C4399 C4400 1.383 . S
C4399 H4407 0.929 . S
C4400 C4399 1.383 . S
C4400 C4401 1.377 . S
C4401 H4385 0.930 . S
C4401 C4400 1.377 . S
C4401 C4402 1.379 . S
C4402 H4386 0.931 . S
C4402 C4396 1.383 . S
C4402 C4401 1.379 . S
H4403 C4397 0.959 . S
H4404 C4397 0.961 . S
H4405 C4397 0.960 . S
H4406 C4398 0.930 . S
H4407 C4399 0.929 . S
C961 C101 2.217 . S
C980 C322 2.107 . S
C997 C57 1.900 . S
C1016 C370 1.903 . S
C1033 C70 0.918 . S
C1052 C402 0.910 . S
C1088 C447 1.561 . S
C1069 C82 1.595 . S
C1105 C23 0.837 . S
C1124 C487 0.826 . S
C1160 C522 0.630 . S
C1141 C29 0.549 . S
C1196 C561 1.207 . S
C1177 C49 1.215 . S
C1213 C10 1.169 . S
C1232 C598 1.157 . S
C1268 C330 1.879 . S
C1249 C218 1.881 . S
C1285 C226 0.347 . S
C1304 C367 0.514 . S
C1340 C410 2.328 . S
C1321 C251 2.343 . S
C1376 C442 0.815 . S
C1357 C159 0.801 . S
C1393 C211 0.936 . S
C1412 C482 0.891 . S
C1448 C530 0.283 . S
C1429 C225 0.358 . S
C1484 C571 1.710 . S
C1465 C252 1.792 . S
C1520 C601 1.883 . S
C1501 C166 1.900 . S
C1556 C327 1.191 . S
C1537 C147 1.224 . S
C1573 C263 2.067 . S
C1592 C650 2.047 . S
C1628 C687 1.186 . S
C1609 C309 1.202 . S
C1664 C718 0.391 . S
C1645 C291 0.340 . S
C1681 C108 2.755 . S
C1700 C611 2.701 . S
C1717 C121 1.398 . S
C1736 C407 1.380 . S
C1753 C302 1.673 . S
C1772 C770 1.707 . S
C1808 C802 1.610 . S
C1789 C276 1.635 . S
C1844 C331 2.327 . S
C1825 C55 2.371 . S
C1880 C801 2.347 . S
C1861 C96 2.377 . S
C1897 C88 1.370 . S
C1916 C411 1.332 . S
C1933 C75 1.818 . S
C1952 C758 1.794 . S
C1988 C478 1.102 . S
C1969 C4 1.110 . S
C2005 C44 1.205 . S
C2024 C691 1.212 . S
C2060 C570 1.331 . S
C2041 C31 1.350 . S
C2096 C847 1.389 . S
C2077 C18 1.402 . S
C2132 C321 2.171 1_556 S
C2113 C133 2.204 . S
C2168 C798 0.307 . S
C2149 C296 0.226 . S
C2185 C107 2.705 . S
C2204 C401 2.663 . S
C2221 C264 1.267 . S
C2240 C771 1.270 . S
C2257 C140 1.410 . S
C2276 C491 1.371 . S
C2312 C681 0.734 . S
C2293 C289 0.774 . S
C2329 C114 2.222 . S
C2348 C562 2.136 . S
C2365 C265 2.087 . S
C2384 C850 2.039 . S
C2401 C179 1.136 . S
C2420 C318 1.134 . S
C2437 C161 2.490 . S
C2456 C641 2.454 . S
C2473 C244 1.355 . S
C2492 C518 1.345 . S
C2509 C224 0.358 . S
C2528 C727 0.432 . S
C2564 C842 2.974 . S
C2545 C257 3.028 . S
C2581 C199 1.641 . S
C2600 C398 1.632 . S
C2636 C441 2.009 . S
C2617 C237 2.023 . S
C2672 C371 1.968 . S
C2653 C185 1.989 . S
C2689 C69 2.217 . S
C2708 C882 2.118 . S
C2744 C810 1.915 . S
C2725 C83 1.897 . S
C2761 C94 0.920 . S
C2780 C922 0.931 . S
C2797 C56 1.594 . S
C2816 C767 1.567 . S
C2833 C42 0.848 . S
C2852 C647 0.837 . S
C2888 C682 0.565 . S
C2869 C3 0.549 . S
C2924 C721 1.242 . S
C2905 C16 1.220 . S
C2960 C838 1.169 . S
C2941 C36 1.168 . S
C2996 C890 1.885 . S
C2977 C238 1.880 . S
C3013 C174 0.372 . S
C3032 C807 0.631 . S
C3068 C930 2.343 . S
C3049 C186 2.341 . S
C3104 C762 0.754 . S
C3085 C198 0.802 . S
C3140 C642 0.944 . S
C3121 C239 0.938 . S
C3157 C173 0.345 . S
C3176 C690 0.354 . S
C3212 C731 1.696 . S
C3193 C187 1.793 . S
C3229 C205 1.899 . S
C3248 C841 1.894 . S
C3284 C887 1.238 . S
C3265 C290 1.227 . S
C3301 C122 2.064 . S
C3320 C490 2.068 . S
C3356 C527 1.208 . S
C3337 C134 1.206 . S
C3392 C558 0.354 . S
C3373 C148 0.361 1_554 S
C3428 C851 2.704 . S
C3409 C283 2.749 . S
C3445 C270 1.395 . S
C3464 C927 1.371 . S
C3500 C450 1.701 . S
C3481 C135 1.674 . S
C3536 C362 1.576 . S
C3517 C109 1.633 . S
C3553 C81 2.370 . S
C3572 C891 2.327 . S
C3608 C361 2.349 . S
C3589 C68 2.377 . S
C3625 C62 1.371 . S
C3644 C931 1.367 . S
C3661 C95 1.818 . S
C3680 C438 1.783 . S
C3697 C30 1.110 . S
C3716 C638 1.116 . S
C3752 C531 1.164 . S
C3733 C17 1.196 . S
C3769 C5 1.351 . S
C3788 C730 1.346 . S
C3805 C43 1.396 . S
C3824 C607 1.385 . S
C3860 C881 2.190 . S
C3841 C304 2.202 . S
C3877 C153 0.197 . S
C3896 C358 0.333 . S
C3932 C921 2.669 . S
C3913 C278 2.705 . S
C3949 C127 1.268 . S
C3968 C451 1.250 . S
C3985 C303 1.405 . S
C4004 C651 1.368 . S
C4040 C521 0.788 . S
C4021 C146 0.782 . S
C4057 C277 2.216 . S
C4076 C722 2.158 1_655 S
C4112 C610 2.049 . S
C4093 C120 2.084 . S
C4148 C878 1.118 . S
C4129 C231 1.136 . S
C4184 C481 2.432 1_665 S
C4165 C200 2.488 . S
C4201 C212 1.360 . S
C4220 C678 1.337 . S
C4256 C567 0.339 . S
C4237 C172 0.349 . S
C4273 C192 3.025 . S
C4292 C602 2.971 . S
C4309 C160 1.639 . S
C4328 C918 1.622 . S
C4364 C761 2.013 . S
C4345 C213 2.025 . S
C4400 C811 1.991 . S
C4381 C250 1.995 . S
