# Generated by pormake.
# Topology pth, (4,4)-cn, num edge types: 1
# Building blocks:
#     Node 0, Type 0, BuildingBlock: QUQFOY_clean_sbu_1, # of connection points: 4
#     Node 1, Type 0, BuildingBlock: QUQFOY_clean_sbu_1, # of connection points: 4
#     Node 2, Type 0, BuildingBlock: QUQFOY_clean_sbu_1, # of connection points: 4
#     Node 3, Type 1, BuildingBlock: KOZSID_clean_sbu_0, # of connection points: 4
#     Node 4, Type 1, BuildingBlock: KOZSID_clean_sbu_0, # of connection points: 4
#     Node 5, Type 1, BuildingBlock: KOZSID_clean_sbu_0, # of connection points: 4
#     Edge 6, Type (0, 1), BuildingBlock: TEMPAE_clean_linker_10, # of connection points: 2
#     Edge 7, Type (0, 1), BuildingBlock: TEMPAE_clean_linker_10, # of connection points: 2
#     Edge 8, Type (0, 1), BuildingBlock: TEMPAE_clean_linker_10, # of connection points: 2
#     Edge 9, Type (0, 1), BuildingBlock: TEMPAE_clean_linker_10, # of connection points: 2
#     Edge 10, Type (0, 1), BuildingBlock: TEMPAE_clean_linker_10, # of connection points: 2
#     Edge 11, Type (0, 1), BuildingBlock: TEMPAE_clean_linker_10, # of connection points: 2
#     Edge 12, Type (0, 1), BuildingBlock: TEMPAE_clean_linker_10, # of connection points: 2
#     Edge 13, Type (0, 1), BuildingBlock: TEMPAE_clean_linker_10, # of connection points: 2
#     Edge 14, Type (0, 1), BuildingBlock: TEMPAE_clean_linker_10, # of connection points: 2
#     Edge 15, Type (0, 1), BuildingBlock: TEMPAE_clean_linker_10, # of connection points: 2
#     Edge 16, Type (0, 1), BuildingBlock: TEMPAE_clean_linker_10, # of connection points: 2
#     Edge 17, Type (0, 1), BuildingBlock: TEMPAE_clean_linker_10, # of connection points: 2
# Relax obj value: 0.022
# Max RMSD: 0.125
# Mean RMSD: 0.072
data_MOF--net-pth--node1-QUQFOY_clean_sbu_1--node2-KOZSID_clean_sbu_0--edge1-TEMPAE_clean_linker_10
_symmetry_space_group_name_H-M    P1
_symmetry_Int_Tables_number       1
_symmetry_cell_setting            triclinic
loop_
_symmetry_equiv_pos_as_xyz
'x, y, z'
_cell_length_a     25.91932
_cell_length_b     28.303515
_cell_length_c     63.195263
_cell_angle_alpha  87.425286
_cell_angle_beta   87.290038
_cell_angle_gamma 120.12081
loop_
_atom_site_label
_atom_site_type_symbol
_atom_site_fract_x
_atom_site_fract_y
_atom_site_fract_z
_atom_type_partial_charge
O0 O 0.10999 0.12824 0.03186 0.0
Cd1 Cd 0.0365 0.07519 0.05184 0.0
Cd2 Cd 0.09795 0.02047 0.05352 0.0
O3 O 0.16798 0.09444 0.03919 0.0
O4 O 1.00072 0.12051 0.06015 0.0
O5 O 0.04222 0.09037 0.08278 0.0
C6 C 0.01826 0.12007 0.07889 0.0
C7 C 0.10691 0.97069 0.08223 0.0
C8 C 0.16071 0.13151 0.03005 0.0
C9 C 0.98176 0.96837 0.03237 0.0
O10 O 0.03092 0.97007 0.03513 0.0
O11 O 0.97186 0.00486 0.03933 0.0
O12 O 0.13236 0.97497 0.06364 0.0
O13 O 0.0799 0.99817 0.08495 0.0
O14 O 0.01851 0.11174 0.39432 0.0
Cd15 Cd 0.08568 0.12503 0.3718 0.0
Cd16 Cd 0.02574 0.0151 0.37692 0.0
O17 O 0.95754 0.02373 0.39122 0.0
O18 O 0.11742 0.20191 0.35967 0.0
O19 O 0.06725 0.12967 0.34138 0.0
C20 C 0.09251 0.18205 0.34253 0.0
C21 C 0.01249 0.95046 0.35276 0.0
C22 C 0.968 0.06845 0.39873 0.0
C23 C 0.14759 0.07658 0.39385 0.0
O24 O 0.0966 0.0333 0.39488 0.0
O25 O 0.15694 0.11907 0.38266 0.0
O26 O 0.99609 0.93637 0.3727 0.0
O27 O 0.03246 1.00097 0.34611 0.0
O28 O 0.98763 0.02935 0.70048 0.0
Cd29 Cd 0.03692 0.00382 0.71708 0.0
Cd30 Cd 0.11231 0.11731 0.71461 0.0
O31 O 0.04313 0.1194 0.70013 0.0
O32 O 0.9752 0.92623 0.72605 0.0
O33 O 0.01978 0.98893 0.74894 0.0
C34 C 0.98002 0.93961 0.74537 0.0
C35 C 0.16446 0.17603 0.74056 0.0
C36 C 0.99605 0.07679 0.69544 0.0
C37 C 0.15613 0.04814 0.69304 0.0
O38 O 0.16361 0.09488 0.69666 0.0
O39 O 0.10873 0.00464 0.70049 0.0
O40 O 0.17246 0.19337 0.7208 0.0
O41 O 0.124 0.12563 0.7459 0.0
C42 C 0.10714 0.64845 0.18045 0.0
C43 C 0.16348 0.68776 0.17143 0.0
C44 C 0.20386 0.67956 0.18163 0.0
C45 C 0.17006 0.63558 0.19606 0.0
N46 N 0.11043 0.61439 0.19541 0.0
Co47 Co 0.04523 0.55034 0.21357 0.0
N48 N 0.10483 0.54293 0.23041 0.0
C49 C 0.16502 0.57582 0.22837 0.0
C50 C 0.19422 0.56043 0.24211 0.0
C51 C 0.15017 0.51414 0.2533 0.0
C52 C 0.0965 0.5037 0.2455 0.0
N53 N 0.98013 0.48548 0.23159 0.0
C54 C 0.98388 0.45 0.2458 0.0
C55 C 0.92763 0.4071 0.2532 0.0
C56 C 0.88699 0.41544 0.24321 0.0
C57 C 0.92047 0.46251 0.2302 0.0
N58 N 0.9857 0.55871 0.19686 0.0
C59 C 0.92533 0.52716 0.19954 0.0
C60 C 0.89604 0.54577 0.18727 0.0
C61 C 0.94016 0.59262 0.17638 0.0
C62 C 0.99423 0.59974 0.18251 0.0
N63 N 0.04717 0.49891 0.19341 0.0
C64 C 0.04551 0.41602 0.16954 0.0
C65 C 0.99338 0.4177 0.17439 0.0
C66 C 0.99524 0.45905 0.18611 0.0
C67 C 0.09923 0.45833 0.17594 0.0
C68 C 0.09908 0.49918 0.18771 0.0
N69 N 0.04273 0.60135 0.2338 0.0
C70 C 0.98577 0.63418 0.25325 0.0
C71 C 0.03771 0.67829 0.25989 0.0
C72 C 0.09241 0.68226 0.2534 0.0
C73 C 0.09392 0.64418 0.24028 0.0
C74 C 0.98922 0.59618 0.24083 0.0
H75 H 0.13704 0.65049 0.23543 0.0
H76 H 0.94772 0.56342 0.23683 0.0
H77 H 0.95363 0.45706 0.1894 0.0
H78 H 0.14124 0.52984 0.19242 0.0
C79 C 0.19298 0.61717 0.21189 0.0
C80 C 0.05235 0.64763 0.17533 0.0
C81 C 0.03967 0.45367 0.25163 0.0
C82 C 0.89755 0.48323 0.21513 0.0
H83 H 0.17434 0.72024 0.15927 0.0
H84 H 0.25217 0.70419 0.17942 0.0
H85 H 0.242 0.57918 0.24321 0.0
H86 H 0.15697 0.48958 0.26523 0.0
H87 H 0.91692 0.3723 0.26411 0.0
H88 H 0.83885 0.38894 0.24454 0.0
H89 H 0.84822 0.52871 0.18701 0.0
H90 H 0.93293 0.61936 0.16575 0.0
H91 H 0.95089 0.38696 0.16924 0.0
H92 H 0.141 0.45918 0.17245 0.0
H93 H 0.94204 0.62893 0.25719 0.0
H94 H 0.13424 0.71447 0.25835 0.0
C95 C 0.45942 0.01085 0.57804 0.0
C96 C 0.41506 0.95868 0.58599 0.0
C97 C 0.42437 0.92261 0.57523 0.0
C98 C 0.4735 0.9546 0.56137 0.0
N99 N 0.49631 0.00905 0.56255 0.0
Co100 Co 0.56766 0.07 0.54522 0.0
N101 N 0.58048 0.01647 0.52924 0.0
C102 C 0.54683 0.96114 0.53156 0.0
C103 C 0.56598 0.93525 0.51822 0.0
C104 C 0.61495 0.97644 0.50665 0.0
C105 C 0.62293 0.02528 0.51372 0.0
N106 N 0.6395 0.13087 0.52806 0.0
C107 C 0.67678 0.1288 0.51278 0.0
C108 C 0.72202 0.18081 0.50513 0.0
C109 C 0.71307 0.2171 0.51594 0.0
C110 C 0.66318 0.18535 0.52956 0.0
N111 N 0.55415 0.12343 0.56105 0.0
C112 C 0.58692 0.17882 0.55838 0.0
C113 C 0.5667 0.2045 0.57141 0.0
C114 C 0.51796 0.16313 0.58309 0.0
C115 C 0.51119 0.11437 0.57645 0.0
N116 N 0.62058 0.06981 0.56701 0.0
C117 C 0.69835 0.07123 0.59706 0.0
C118 C 0.69909 0.11909 0.59025 0.0
C119 C 0.66058 0.11754 0.57526 0.0
C120 C 0.65771 0.02239 0.58875 0.0
C121 C 0.61904 0.0225 0.57401 0.0
N122 N 0.51512 0.0707 0.52339 0.0
C123 C 0.48503 0.12145 0.50022 0.0
C124 C 0.44073 0.07326 0.49273 0.0
C125 C 0.43449 0.0236 0.50064 0.0
C126 C 0.47158 0.02322 0.516 0.0
C127 C 0.52163 0.1193 0.51525 0.0
H128 H 0.464 0.98409 0.52174 0.0
H129 H 0.55484 0.15764 0.52002 0.0
H130 H 0.66454 0.15574 0.57051 0.0
H131 H 0.58844 0.9839 0.56847 0.0
C132 C 0.49825 0.93464 0.54674 0.0
C133 C 0.46371 0.06063 0.58546 0.0
C134 C 0.67172 0.0788 0.50523 0.0
C135 C 0.63714 0.20545 0.54373 0.0
H136 H 0.37934 0.94776 0.59818 0.0
H137 H 0.39811 0.87832 0.57716 0.0
H138 H 0.5468 0.89162 0.51712 0.0
H139 H 0.64187 0.97111 0.49443 0.0
H140 H 0.75789 0.19138 0.49303 0.0
H141 H 0.73979 0.26137 0.51411 0.0
H142 H 0.58536 0.24811 0.57239 0.0
H143 H 0.49063 0.16826 0.59522 0.0
H144 H 0.73029 0.15797 0.59611 0.0
H145 H 0.65533 0.98419 0.59376 0.0
H146 H 0.49187 0.16092 0.49436 0.0
H147 H 0.40032 0.98516 0.49535 0.0
C148 C 0.68217 0.60728 0.86041 0.0
C149 C 0.73244 0.60531 0.85304 0.0
C150 C 0.72895 0.5603 0.86325 0.0
C151 C 0.67755 0.53778 0.87644 0.0
N152 N 0.64749 0.56536 0.87522 0.0
Co153 Co 0.57412 0.54977 0.89345 0.0
N154 N 0.5718 0.48576 0.90944 0.0
C155 C 0.60966 0.46656 0.90616 0.0
C156 C 0.59589 0.421 0.91912 0.0
C157 C 0.54571 0.40991 0.93131 0.0
C158 C 0.53179 0.44955 0.925 0.0
N159 N 0.50165 0.53498 0.91208 0.0
C160 C 0.46911 0.49482 0.92774 0.0
C161 C 0.42184 0.49926 0.9366 0.0
C162 C 0.42426 0.54358 0.92606 0.0
C163 C 0.47269 0.56362 0.91145 0.0
N164 N 0.57587 0.61314 0.87717 0.0
C165 C 0.53573 0.63013 0.8796 0.0
C166 C 0.54787 0.67402 0.8659 0.0
C167 C 0.59907 0.68614 0.8541 0.0
C168 C 0.61567 0.64909 0.86143 0.0
N169 N 0.52146 0.49949 0.87278 0.0
C170 C 0.44422 0.42691 0.84416 0.0
C171 C 0.42934 0.46064 0.85524 0.0
C172 C 0.4684 0.49664 0.86898 0.0
C173 C 0.49887 0.43025 0.84781 0.0
C174 C 0.53614 0.46604 0.8622 0.0
N175 N 0.62636 0.60013 0.91408 0.0
C176 C 0.65144 0.6756 0.93599 0.0
C177 C 0.7019 0.67476 0.9421 0.0
C178 C 0.7139 0.63569 0.93418 0.0
C179 C 0.67527 0.59844 0.92051 0.0
C180 C 0.61502 0.6387 0.92192 0.0
H181 H 0.686 0.5689 0.91526 0.0
H182 H 0.57834 0.64273 0.91745 0.0
H183 H 0.45413 0.52148 0.8764 0.0
H184 H 0.57657 0.46593 0.8645 0.0
C185 C 0.65774 0.49214 0.8908 0.0
C186 C 0.6701 0.65035 0.85317 0.0
C187 C 0.4795 0.45028 0.93405 0.0
C188 C 0.48949 0.60651 0.89585 0.0
H189 H 0.76875 0.63388 0.84176 0.0
H190 H 0.76091 0.54644 0.86166 0.0
H191 H 0.6193 0.39833 0.91954 0.0
H192 H 0.52175 0.37619 0.94336 0.0
H193 H 0.38829 0.47251 0.94907 0.0
H194 H 0.39341 0.55849 0.92837 0.0
H195 H 0.5231 0.69539 0.8649 0.0
H196 H 0.622 0.71902 0.84167 0.0
H197 H 0.3872 0.45921 0.85361 0.0
H198 H 0.51345 0.40584 0.83952 0.0
H199 H 0.64089 0.7056 0.94166 0.0
H200 H 0.75257 0.6336 0.93867 0.0
C201 C 0.98935 0.18813 0.08983 0.0
C202 C 0.01637 0.157 0.09453 0.0
C203 C 0.99354 0.22841 0.103 0.0
C204 C 0.02569 0.23809 0.12136 0.0
C205 C 0.05145 0.20562 0.12658 0.0
C206 C 0.04641 0.16541 0.11313 0.0
C207 C 0.96491 0.26169 0.09693 0.0
C208 C 0.08593 0.21453 0.14603 0.0
C209 C 0.08644 0.37989 0.14164 0.0
C210 C 0.04296 0.37007 0.15802 0.0
C211 C 0.08217 0.33709 0.12993 0.0
C212 C 0.03332 0.28308 0.13472 0.0
C213 C 0.99025 0.27268 0.15162 0.0
C214 C 0.99563 0.31617 0.16305 0.0
C215 C 0.1291 0.34994 0.11204 0.0
C216 C 0.93768 0.21577 0.15733 0.0
H217 H 0.96601 0.18199 0.07551 0.0
H218 H 0.0677 0.1418 0.11685 0.0
H219 H 0.934 0.25914 0.11027 0.0
H220 H 0.9999 0.30546 0.09369 0.0
H221 H 0.93953 0.2477 0.08262 0.0
H222 H 0.10053 0.18403 0.14852 0.0
H223 H 0.12613 0.25616 0.14442 0.0
H224 H 0.05814 0.21214 0.16039 0.0
H225 H 0.12292 0.42136 0.13754 0.0
H226 H 0.96244 0.30795 0.17596 0.0
H227 H 0.10822 0.34168 0.09669 0.0
H228 H 0.14846 0.32303 0.11416 0.0
H229 H 0.16592 0.39333 0.11105 0.0
H230 H 0.90919 0.20178 0.14379 0.0
H231 H 0.90968 0.21399 0.17155 0.0
H232 H 0.95356 0.18649 0.16045 0.0
C233 C 0.86748 0.02331 0.41955 0.0
C234 C 0.92253 0.07063 0.41323 0.0
C235 C 0.82568 0.0251 0.43403 0.0
C236 C 0.83928 0.07535 0.44239 0.0
C237 C 0.89425 0.12335 0.4358 0.0
C238 C 0.93509 0.12043 0.42133 0.0
C239 C 0.76737 0.97306 0.44065 0.0
C240 C 0.91045 0.17771 0.44434 0.0
C241 C 0.71292 0.09101 0.46757 0.0
C242 C 0.71701 0.08164 0.48917 0.0
C243 C 0.75247 0.08912 0.4521 0.0
C244 C 0.79692 0.07757 0.45853 0.0
C245 C 0.80141 0.06872 0.48045 0.0
C246 C 0.76121 0.07077 0.49553 0.0
C247 C 0.74628 0.09881 0.42892 0.0
C248 C 0.84827 0.05654 0.48796 0.0
H249 H 0.85729 0.98468 0.41339 0.0
H250 H 0.97736 0.15734 0.41655 0.0
H251 H 0.76438 0.96287 0.45799 0.0
H252 H 0.72913 0.97895 0.43752 0.0
H253 H 0.76265 0.93774 0.43216 0.0
H254 H 0.95421 0.21159 0.43713 0.0
H255 H 0.87545 0.18821 0.44128 0.0
H256 H 0.91255 0.17486 0.46182 0.0
H257 H 0.67809 0.09886 0.46281 0.0
H258 H 0.76361 0.06309 0.51232 0.0
H259 H 0.73717 0.06221 0.42046 0.0
H260 H 0.78879 0.13371 0.42142 0.0
H261 H 0.70967 0.10768 0.42659 0.0
H262 H 0.84247 0.01871 0.4813 0.0
H263 H 0.84602 0.05106 0.50557 0.0
H264 H 0.89358 0.0904 0.48214 0.0
C265 C 0.95293 0.87704 0.77835 0.0
C266 C 0.93621 0.90122 0.76236 0.0
C267 C 0.90967 0.83733 0.79358 0.0
C268 C 0.84883 0.82296 0.79305 0.0
C269 C 0.83246 0.849 0.77727 0.0
C270 C 0.87625 0.88714 0.7619 0.0
C271 C 0.92866 0.80952 0.80981 0.0
C272 C 0.76858 0.83611 0.77646 0.0
C273 C 0.72559 0.68328 0.81709 0.0
C274 C 0.71347 0.69531 0.83734 0.0
C275 C 0.77023 0.72426 0.80269 0.0
C276 C 0.80183 0.77906 0.80837 0.0
C277 C 0.78791 0.79177 0.82852 0.0
C278 C 0.74443 0.74955 0.8429 0.0
C279 C 0.78439 0.70868 0.78156 0.0
C280 C 0.81903 0.84989 0.8349 0.0
H281 H 0.9994 0.88789 0.77851 0.0
H282 H 0.86368 0.90622 0.74948 0.0
H283 H 0.91585 0.81507 0.8261 0.0
H284 H 0.90512 0.7648 0.80799 0.0
H285 H 0.97768 0.82563 0.80821 0.0
H286 H 0.76417 0.86309 0.76426 0.0
H287 H 0.73977 0.79294 0.7728 0.0
H288 H 0.75128 0.8407 0.79217 0.0
H289 H 0.70123 0.64131 0.81279 0.0
H290 H 0.73485 0.75875 0.85857 0.0
H291 H 0.83249 0.72129 0.77968 0.0
H292 H 0.77594 0.73054 0.7684 0.0
H293 H 0.75729 0.66392 0.77993 0.0
H294 H 0.86762 0.86543 0.8354 0.0
H295 H 0.80102 0.85326 0.85071 0.0
H296 H 0.814 0.87689 0.82292 0.0
C297 C 0.05437 0.90525 0.11432 0.0
C298 C 0.10333 0.93059 0.09902 0.0
C299 C 0.04491 0.86057 0.12804 0.0
C300 C 0.08621 0.84168 0.12677 0.0
C301 C 0.1375 0.86919 0.11215 0.0
C302 C 0.145 0.91278 0.09827 0.0
C303 C 0.98911 0.83181 0.1431 0.0
C304 C 0.1835 0.85139 0.11065 0.0
C305 C 0.08504 0.74751 0.17207 0.0
C306 C 0.05682 0.6965 0.16344 0.0
C307 C 0.09456 0.79509 0.16042 0.0
C308 C 0.07425 0.79134 0.13981 0.0
C309 C 0.04432 0.73954 0.13127 0.0
C310 C 0.03687 0.69291 0.14305 0.0
C311 C 0.1279 0.84955 0.16992 0.0
C312 C 0.021 0.73349 0.10952 0.0
H313 H 0.02162 0.9184 0.11481 0.0
H314 H 0.183 0.9323 0.08651 0.0
H315 H 0.95997 0.78952 0.13851 0.0
H316 H 1.00078 0.82839 0.15953 0.0
H317 H 0.96323 0.85339 0.14304 0.0
H318 H 0.22361 0.88027 0.09999 0.0
H319 H 0.1979 0.84806 0.12664 0.0
H320 H 0.16347 0.81025 0.10449 0.0
H321 H 0.10095 0.75026 0.18778 0.0
H322 H 0.01604 0.65363 0.13624 0.0
H323 H 0.10069 0.86977 0.17023 0.0
H324 H 0.16987 0.87706 0.1599 0.0
H325 H 0.13938 0.84529 0.18635 0.0
H326 H 0.99206 0.75186 0.10838 0.0
H327 H 0.9949 0.68994 0.10585 0.0
H328 H 0.05894 0.75584 0.09723 0.0
C329 C 0.17784 0.03552 0.42303 0.0
C330 C 0.19426 0.0772 0.40678 0.0
C331 C 0.2199 0.03569 0.43621 0.0
C332 C 0.28038 0.07811 0.43292 0.0
C333 C 0.29774 0.11975 0.41626 0.0
C334 C 0.25433 0.1191 0.40349 0.0
C335 C 0.19922 0.99103 0.454 0.0
C336 C 0.36204 0.16515 0.41206 0.0
C337 C 0.37239 0.10555 0.48067 0.0
C338 C 0.40078 0.07522 0.47709 0.0
C339 C 0.33404 0.10771 0.46621 0.0
C340 C 0.32457 0.07955 0.44752 0.0
C341 C 0.35417 0.04979 0.4436 0.0
C342 C 0.39148 0.04751 0.45856 0.0
C343 C 0.30236 0.13888 0.47123 0.0
C344 C 0.3459 0.0199 0.42372 0.0
H345 H 0.13151 0.00308 0.42583 0.0
H346 H 0.26743 0.15129 0.39092 0.0
H347 H 0.22436 0.96903 0.45233 0.0
H348 H 0.20849 0.00936 0.46952 0.0
H349 H 0.15063 0.96073 0.45432 0.0
H350 H 0.36887 0.19271 0.39781 0.0
H351 H 0.37634 0.18995 0.426 0.0
H352 H 0.39155 0.14757 0.40978 0.0
H353 H 0.37922 0.12668 0.49508 0.0
H354 H 0.41396 0.02455 0.45567 0.0
H355 H 0.25326 0.11028 0.47297 0.0
H356 H 0.31173 0.16987 0.45799 0.0
H357 H 0.31605 0.15999 0.4861 0.0
H358 H 0.29872 0.98641 0.42375 0.0
H359 H 0.37535 1.00198 0.42231 0.0
H360 H 0.3555 0.04825 0.40946 0.0
C361 C 0.26165 0.25453 0.74933 0.0
C362 C 0.20369 0.21212 0.75619 0.0
C363 C 0.30108 0.28789 0.7638 0.0
C364 C 0.28156 0.27984 0.78565 0.0
C365 C 0.22273 0.2375 0.79266 0.0
C366 C 0.18478 0.20353 0.77788 0.0
C367 C 0.36388 0.33147 0.75571 0.0
C368 C 0.19965 0.22862 0.81572 0.0
C369 C 0.39874 0.33828 0.82605 0.0
C370 C 0.40287 0.38897 0.82903 0.0
C371 C 0.35968 0.30245 0.81197 0.0
C372 C 0.32243 0.31672 0.80099 0.0
C373 C 0.32569 0.36731 0.80408 0.0
C374 C 0.36646 0.40309 0.81769 0.0
C375 C 0.35868 0.24949 0.80869 0.0
C376 C 0.28616 0.38383 0.79295 0.0
H377 H 0.27681 0.26085 0.73261 0.0
H378 H 0.14 0.17082 0.78323 0.0
H379 H 0.37121 0.3726 0.75875 0.0
H380 H 0.3969 0.32577 0.76435 0.0
H381 H 0.37298 0.33071 0.73841 0.0
H382 H 0.15259 0.1945 0.81856 0.0
H383 H 0.22798 0.21946 0.82576 0.0
H384 H 0.20229 0.26661 0.82098 0.0
H385 H 0.42561 0.32615 0.83486 0.0
H386 H 0.36996 0.44251 0.81924 0.0
H387 H 0.36907 0.24764 0.79161 0.0
H388 H 0.31332 0.21414 0.81332 0.0
H389 H 0.39135 0.2449 0.81804 0.0
H390 H 0.29739 0.3891 0.77554 0.0
H391 H 0.29105 0.42269 0.79823 0.0
H392 H 0.23855 0.35112 0.79598 0.0
C393 C 0.89171 0.03781 0.68493 0.0
C394 C 0.95119 0.0812 0.68315 0.0
C395 C 0.84947 0.03793 0.67189 0.0
C396 C 0.86738 0.08197 0.65633 0.0
C397 C 0.927 0.12667 0.65482 0.0
C398 C 0.96811 0.12603 0.66844 0.0
C399 C 0.78606 0.99011 0.67438 0.0
C400 C 0.94798 0.17403 0.63825 0.0
C401 C 0.77596 0.0494 0.60817 0.0
C402 C 0.74061 0.07293 0.61247 0.0
C403 C 0.81815 0.05295 0.62213 0.0
C404 C 0.8243 0.07979 0.64105 0.0
C405 C 0.78815 0.10306 0.64557 0.0
C406 C 0.74711 0.09977 0.63113 0.0
C407 C 0.85639 0.02822 0.61659 0.0
C408 C 0.79241 0.13095 0.66576 0.0
H409 H 0.87828 0.00323 0.69642 0.0
H410 H 0.01414 0.15944 0.6669 0.0
H411 H 0.75393 0.00498 0.67616 0.0
H412 H 0.77622 0.9672 0.65991 0.0
H413 H 0.77821 0.96133 0.68833 0.0
H414 H 0.99488 0.20676 0.63977 0.0
H415 H 0.94496 0.1591 0.62216 0.0
H416 H 0.91866 0.19203 0.63948 0.0
H417 H 0.7715 0.02922 0.59362 0.0
H418 H 0.71949 0.1177 0.63453 0.0
H419 H 0.84779 0.9954 0.62891 0.0
H420 H 0.90446 0.05989 0.61628 0.0
H421 H 0.84762 0.01054 0.60092 0.0
H422 H 0.78223 0.10166 0.67976 0.0
H423 H 0.76113 0.14696 0.66692 0.0
H424 H 0.83866 0.16547 0.66662 0.0
C425 C 0.89921 0.9327 0.00785 0.0
C426 C 0.93678 0.92381 0.02061 0.0
C427 C 0.85999 0.89184 0.99529 0.0
C428 C 0.8571 0.84041 0.99602 0.0
C429 C 0.89343 0.83067 0.0095 0.0
C430 C 0.93343 0.87273 0.02138 0.0
C431 C 0.82298 0.90425 0.98076 0.0
C432 C 0.8905 0.77597 0.01124 0.0
C433 C 0.71977 0.71983 0.97624 0.0
C434 C 0.74218 0.71548 0.95626 0.0
C435 C 0.75684 0.75979 0.98949 0.0
C436 C 0.81729 0.79722 0.9823 0.0
C437 C 0.83994 0.79308 0.96203 0.0
C438 C 0.80226 0.75174 0.94936 0.0
C439 C 0.73139 0.76184 0.01119 0.0
C440 C 0.90372 0.83286 0.95359 0.0
H441 H 0.90206 0.97229 0.00709 0.0
H442 H 0.96208 0.86556 0.03138 0.0
H443 H 0.83463 0.90058 0.96402 0.0
H444 H 0.77475 0.87405 0.98443 0.0
H445 H 0.83007 0.94606 0.98215 0.0
H446 H 0.91884 0.77386 0.02347 0.0
H447 H 0.84363 0.74255 0.01528 0.0
H448 H 0.90554 0.76824 0.99572 0.0
H449 H 0.67323 0.69161 0.98153 0.0
H450 H 0.81926 0.74867 0.93379 0.0
H451 H 0.73386 0.80189 0.01238 0.0
H452 H 0.75833 0.75814 0.0236 0.0
H453 H 0.68405 0.7287 0.01465 0.0
H454 H 0.91225 0.87543 0.95337 0.0
H455 H 0.91387 0.82505 0.93727 0.0
H456 H 0.93514 0.83006 0.96419 0.0
C457 C 0.03178 0.87448 0.34639 0.0
C458 C 0.01425 0.911 0.33859 0.0
C459 C 0.03753 0.83855 0.33318 0.0
C460 C 0.02299 0.83742 0.31182 0.0
C461 C 0.00413 0.87359 0.30395 0.0
C462 C 1.00128 0.91088 0.31732 0.0
C463 C 0.06001 0.80233 0.34204 0.0
C464 C 0.98602 0.87223 0.28154 0.0
C465 C 0.08179 0.7741 0.27229 0.0
C466 C 0.03434 0.7195 0.27325 0.0
C467 C 0.07891 0.81278 0.28479 0.0
C468 C 0.02638 0.79744 0.29799 0.0
C469 C 0.97787 0.74301 0.29873 0.0
C470 C 0.98298 0.70459 0.28685 0.0
C471 C 0.13253 0.86991 0.2841 0.0
C472 C 0.92041 0.72514 0.3122 0.0
H473 H 0.04283 0.87519 0.36276 0.0
H474 H 0.98775 0.93915 0.31129 0.0
H475 H 0.02493 0.75863 0.34194 0.0
H476 H 0.0994 0.80856 0.3319 0.0
H477 H 0.07294 0.81065 0.35856 0.0
H478 H 0.9707 0.90183 0.27804 0.0
H479 H 0.0242 0.88181 0.27 0.0
H480 H 0.94937 0.83043 0.27897 0.0
H481 H 0.12136 0.7871 0.26167 0.0
H482 H 0.94644 0.66259 0.28847 0.0
H483 H 0.14732 0.87957 0.30034 0.0
H484 H 0.12033 0.90035 0.27839 0.0
H485 H 0.17076 0.87491 0.27356 0.0
H486 H 0.92868 0.72616 0.32927 0.0
H487 H 0.88477 0.68304 0.30939 0.0
H488 H 0.90381 0.75379 0.30879 0.0
C489 C 0.25796 0.09352 0.67384 0.0
C490 C 0.2025 0.04566 0.67918 0.0
C491 C 0.30089 0.09396 0.65936 0.0
C492 C 0.28822 0.04539 0.64983 0.0
C493 C 0.23312 0.99646 0.65557 0.0
C494 C 0.19092 0.99712 0.67024 0.0
C495 C 0.35924 0.1469 0.65382 0.0
C496 C 0.21808 0.94387 0.64573 0.0
C497 C 0.37272 0.06557 0.59627 0.0
C498 C 0.41854 0.05631 0.60199 0.0
C499 C 0.32919 0.06095 0.61165 0.0
C500 C 0.33184 0.04681 0.63322 0.0
C501 C 0.378 0.03696 0.63897 0.0
C502 C 0.4209 0.04185 0.62323 0.0
C503 C 0.28083 0.07187 0.60485 0.0
C504 C 0.38253 0.02205 0.66177 0.0
H505 H 0.26767 0.1312 0.68077 0.0
H506 H 0.14822 0.96001 0.67422 0.0
H507 H 0.39757 0.14073 0.6564 0.0
H508 H 0.36281 0.16007 0.63675 0.0
H509 H 0.36336 0.18044 0.66339 0.0
H510 H 0.17493 0.9087 0.65274 0.0
H511 H 0.21522 0.9489 0.62839 0.0
H512 H 0.25403 0.93407 0.64782 0.0
H513 H 0.3711 0.07645 0.57974 0.0
H514 H 0.45649 0.03454 0.62749 0.0
H515 H 0.28434 0.10764 0.61263 0.0
H516 H 0.23608 0.03617 0.61 0.0
H517 H 0.28371 0.08028 0.58736 0.0
H518 H 0.38992 0.05602 0.67164 0.0
H519 H 0.41965 0.01357 0.66347 0.0
H520 H 0.33999 0.98534 0.66821 0.0
C521 C 0.2028 0.22155 0.00879 0.0
C522 C 0.21066 0.1788 0.01699 0.0
C523 C 0.24817 0.26596 0.99584 0.0
C524 C 0.30299 0.2679 0.99083 0.0
C525 C 0.31174 0.22538 0.99923 0.0
C526 C 0.26549 0.18134 0.01225 0.0
C527 C 0.23705 0.31051 0.98728 0.0
C528 C 0.36965 0.22609 0.99421 0.0
C529 C 0.39299 0.35493 0.9405 0.0
C530 C 0.43478 0.4035 0.94871 0.0
C531 C 0.35059 0.31001 0.95407 0.0
C532 C 0.35033 0.31394 0.97636 0.0
C533 C 0.39325 0.36296 0.98467 0.0
C534 C 0.43504 0.4073 0.97069 0.0
C535 C 0.30549 0.25868 0.94456 0.0
C536 C 0.39446 0.36879 0.00829 0.0
H537 H 0.16082 0.22032 0.01241 0.0
H538 H 0.27202 0.14858 0.01848 0.0
H539 H 0.27196 0.3509 0.99197 0.0
H540 H 0.23992 0.31268 0.96966 0.0
H541 H 0.19248 0.30359 0.99311 0.0
H542 H 0.37011 0.19082 1.00245 0.0
H543 H 0.37683 0.22503 0.97683 0.0
H544 H 0.40785 0.26462 0.9989 0.0
H545 H 0.39342 0.35234 0.92343 0.0
H546 H 0.46791 0.44504 0.97688 0.0
H547 H 0.25966 0.25102 0.94859 0.0
H548 H 0.30729 0.22277 0.95137 0.0
H549 H 0.31323 0.26149 0.92699 0.0
H550 H 0.35199 0.36531 0.01471 0.0
H551 H 0.4323 0.40866 0.01222 0.0
H552 H 0.39809 0.33522 0.0165 0.0
C553 C 0.12743 0.27472 0.32445 0.0
C554 C 0.08778 0.21796 0.32585 0.0
C555 C 0.11879 0.31033 0.31083 0.0
C556 C 0.06839 0.28885 0.29866 0.0
C557 C 0.02914 0.23141 0.29953 0.0
C558 C 0.03969 0.19659 0.31294 0.0
C559 C 0.16261 0.37116 0.30999 0.0
C560 C 0.97442 0.20692 0.28708 0.0
C561 C 0.01671 0.38968 0.28411 0.0
C562 C 0.04023 0.40656 0.26296 0.0
C563 C 0.02325 0.34955 0.29561 0.0
C564 C 0.05551 0.32691 0.28588 0.0
C565 C 0.07839 0.34323 0.26436 0.0
C566 C 0.07005 0.38255 0.25312 0.0
C567 C 0.99728 0.3327 0.31839 0.0
C568 C 0.11396 0.32101 0.25348 0.0
H569 H 0.16476 0.29147 0.33435 0.0
H570 H 0.00848 0.15282 0.31412 0.0
H571 H 0.17834 0.38815 0.29326 0.0
H572 H 0.14015 0.39231 0.31677 0.0
H573 H 0.20213 0.38085 0.31897 0.0
H574 H 0.95027 0.16141 0.2885 0.0
H575 H 0.94333 0.22055 0.29294 0.0
H576 H 0.98707 0.22154 0.27003 0.0
H577 H 0.99454 0.40894 0.2918 0.0
H578 H 0.0887 0.39611 0.2368 0.0
H579 H 0.034 0.34659 0.32913 0.0
H580 H 0.96996 0.28739 0.32095 0.0
H581 H 0.96889 0.3503 0.32298 0.0
H582 H 0.15604 0.33431 0.26131 0.0
H583 H 0.12551 0.33529 0.23635 0.0
H584 H 0.08849 0.27557 0.25501 0.0
loop_
_geom_bond_atom_site_label_1
_geom_bond_atom_site_label_2
_geom_bond_distance
_geom_bond_site_symmetry_2
_ccdc_geom_bond_type
O0 Cd1 2.223 . S
O0 C8 1.315 . S
Cd1 O0 2.223 . S
Cd1 O4 2.297 . S
Cd1 O5 2.439 . S
Cd1 O11 2.264 . S
Cd2 O3 2.240 . S
Cd2 O10 2.223 1_545 S
Cd2 O12 2.297 1_545 S
Cd2 O13 2.439 1_545 S
O3 Cd2 2.240 . S
O3 C8 1.279 . S
O4 Cd1 2.297 . S
O4 C6 1.247 . S
O5 Cd1 2.439 . S
O5 C6 1.208 . S
C6 O4 1.247 . S
C6 O5 1.208 . S
C7 O12 1.247 . S
C7 O13 1.208 . S
C8 O0 1.315 . S
C8 O3 1.279 . S
C9 O10 1.315 . S
C9 O11 1.267 1_565 S
O10 Cd2 2.223 1_565 S
O10 C9 1.315 . S
O11 Cd1 2.264 . S
O11 C9 1.267 1_545 S
O12 Cd2 2.297 1_565 S
O12 C7 1.247 . S
O13 Cd2 2.439 1_565 S
O13 C7 1.208 . S
O14 Cd15 2.223 . S
O14 C22 1.315 1_455 S
Cd15 O14 2.223 . S
Cd15 O18 2.297 . S
Cd15 O19 2.439 . S
Cd15 O25 2.240 . S
Cd16 O17 2.240 1_565 S
Cd16 O24 2.223 1_665 S
Cd16 O26 2.297 1_655 S
Cd16 O27 2.439 1_665 S
O17 Cd16 2.240 1_545 S
O17 C22 1.279 . S
O18 Cd15 2.297 . S
O18 C20 1.247 . S
O19 Cd15 2.439 . S
O19 C20 1.208 . S
C20 O18 1.247 . S
C20 O19 1.208 . S
C21 O26 1.247 . S
C21 O27 1.208 1_565 S
C22 O14 1.315 1_655 S
C22 O17 1.279 . S
C23 O24 1.315 . S
C23 O25 1.279 . S
O24 Cd16 2.223 1_445 S
O24 C23 1.315 . S
O25 Cd15 2.240 . S
O25 C23 1.279 . S
O26 Cd16 2.297 1_455 S
O26 C21 1.247 . S
O27 Cd16 2.439 1_445 S
O27 C21 1.208 1_545 S
O28 Cd29 2.223 1_655 S
O28 C36 1.315 1_565 S
Cd29 O28 2.223 1_455 S
Cd29 O32 2.297 1_455 S
Cd29 O33 2.439 1_455 S
Cd29 O39 2.240 1_565 S
Cd30 O31 2.240 . S
Cd30 O38 2.223 . S
Cd30 O40 2.297 . S
Cd30 O41 2.439 . S
O31 Cd30 2.240 . S
O31 C36 1.279 1_455 S
O32 Cd29 2.297 1_655 S
O32 C34 1.247 . S
O33 Cd29 2.439 1_655 S
O33 C34 1.208 . S
C34 O32 1.247 . S
C34 O33 1.208 . S
C35 O40 1.247 . S
C35 O41 1.208 . S
C36 O28 1.315 1_545 S
C36 O31 1.279 1_655 S
C37 O38 1.315 . S
C37 O39 1.279 . S
O38 Cd30 2.223 . S
O38 C37 1.315 . S
O39 Cd29 2.240 1_545 S
O39 C37 1.279 . S
O40 Cd30 2.297 . S
O40 C35 1.247 . S
O41 Cd30 2.439 . S
O41 C35 1.208 . S
C42 C43 1.443 . S
C42 N46 1.376 . S
C42 C80 1.389 . S
C43 C42 1.443 . S
C43 C44 1.340 . S
C43 H83 0.951 . S
C44 C43 1.340 . S
C44 C45 1.439 . S
C44 H84 0.950 . S
C45 C44 1.439 . S
C45 N46 1.374 . S
C45 C79 1.395 . S
N46 C42 1.376 . S
N46 C45 1.374 . S
N46 Co47 2.008 . S
Co47 N46 2.008 . S
Co47 N48 1.995 . S
Co47 N53 2.008 1_455 S
Co47 N58 1.995 1_455 S
Co47 N63 2.282 . S
Co47 N69 2.282 . S
N48 Co47 1.995 . S
N48 C49 1.376 . S
N48 C52 1.383 . S
C49 N48 1.376 . S
C49 C50 1.446 . S
C49 C79 1.391 . S
C50 C49 1.446 . S
C50 C51 1.339 . S
C50 H85 0.949 . S
C51 C50 1.339 . S
C51 C52 1.439 . S
C51 H86 0.950 . S
C52 N48 1.383 . S
C52 C51 1.439 . S
C52 C81 1.392 . S
N53 Co47 2.008 1_655 S
N53 C54 1.376 . S
N53 C57 1.374 . S
C54 N53 1.376 . S
C54 C55 1.443 . S
C54 C81 1.389 1_655 S
C55 C54 1.443 . S
C55 C56 1.340 . S
C55 H87 0.951 . S
C56 C55 1.340 . S
C56 C57 1.439 . S
C56 H88 0.950 . S
C57 N53 1.374 . S
C57 C56 1.439 . S
C57 C82 1.395 . S
N58 Co47 1.995 1_655 S
N58 C59 1.376 . S
N58 C62 1.383 . S
C59 N58 1.376 . S
C59 C60 1.446 . S
C59 C82 1.391 . S
C60 C59 1.446 . S
C60 C61 1.339 . S
C60 H89 0.949 . S
C61 C60 1.339 . S
C61 C62 1.439 . S
C61 H90 0.950 . S
C62 N58 1.383 . S
C62 C61 1.439 . S
C62 C80 1.392 1_655 S
N63 Co47 2.282 . S
N63 C66 1.332 . S
N63 C68 1.332 . S
C64 C65 1.395 . S
C64 C67 1.388 . S
C65 C64 1.395 . S
C65 C66 1.378 . S
C65 H91 0.944 1_455 S
C66 N63 1.332 . S
C66 C65 1.378 . S
C66 H77 0.952 1_455 S
C67 C64 1.388 . S
C67 C68 1.382 . S
C67 H92 0.950 . S
C68 N63 1.332 . S
C68 C67 1.382 . S
C68 H78 0.948 . S
N69 Co47 2.282 . S
N69 C73 1.332 . S
N69 C74 1.332 1_455 S
C70 C71 1.388 1_655 S
C70 C74 1.382 . S
C70 H93 0.950 . S
C71 C70 1.388 1_455 S
C71 C72 1.386 . S
C72 C71 1.386 . S
C72 C73 1.382 . S
C72 H94 0.950 . S
C73 N69 1.332 . S
C73 C72 1.382 . S
C73 H75 0.952 . S
C74 N69 1.332 1_655 S
C74 C70 1.382 . S
C74 H76 0.948 . S
H75 C73 0.952 . S
H76 C74 0.948 . S
H77 C66 0.952 1_655 S
H78 C68 0.948 . S
C79 C45 1.395 . S
C79 C49 1.391 . S
C80 C42 1.389 . S
C80 C62 1.392 1_455 S
C81 C52 1.392 . S
C81 C54 1.389 1_455 S
C82 C57 1.395 . S
C82 C59 1.391 . S
H83 C43 0.951 . S
H84 C44 0.950 . S
H85 C50 0.949 . S
H86 C51 0.950 . S
H87 C55 0.951 . S
H88 C56 0.950 . S
H89 C60 0.949 . S
H90 C61 0.950 . S
H91 C65 0.944 1_655 S
H92 C67 0.950 . S
H93 C70 0.950 . S
H94 C72 0.950 . S
C95 C96 1.443 1_545 S
C95 N99 1.376 . S
C95 C133 1.389 . S
C96 C95 1.443 1_565 S
C96 C97 1.340 . S
C96 H136 0.951 . S
C97 C96 1.340 . S
C97 C98 1.439 . S
C97 H137 0.950 . S
C98 C97 1.439 . S
C98 N99 1.374 1_565 S
C98 C132 1.395 . S
N99 C95 1.376 . S
N99 C98 1.374 1_545 S
N99 Co100 2.008 . S
Co100 N99 2.008 . S
Co100 N101 1.995 . S
Co100 N106 2.008 . S
Co100 N111 1.995 . S
Co100 N116 2.282 . S
Co100 N122 2.282 . S
N101 Co100 1.995 . S
N101 C102 1.376 1_545 S
N101 C105 1.383 . S
C102 N101 1.376 1_565 S
C102 C103 1.446 . S
C102 C132 1.391 . S
C103 C102 1.446 . S
C103 C104 1.339 . S
C103 H138 0.949 . S
C104 C103 1.339 . S
C104 C105 1.439 1_565 S
C104 H139 0.950 . S
C105 N101 1.383 . S
C105 C104 1.439 1_545 S
C105 C134 1.392 . S
N106 Co100 2.008 . S
N106 C107 1.376 . S
N106 C110 1.374 . S
C107 N106 1.376 . S
C107 C108 1.443 . S
C107 C134 1.389 . S
C108 C107 1.443 . S
C108 C109 1.340 . S
C108 H140 0.951 . S
C109 C108 1.340 . S
C109 C110 1.439 . S
C109 H141 0.950 . S
C110 N106 1.374 . S
C110 C109 1.439 . S
C110 C135 1.395 . S
N111 Co100 1.995 . S
N111 C112 1.376 . S
N111 C115 1.383 . S
C112 N111 1.376 . S
C112 C113 1.446 . S
C112 C135 1.391 . S
C113 C112 1.446 . S
C113 C114 1.339 . S
C113 H142 0.949 . S
C114 C113 1.339 . S
C114 C115 1.439 . S
C114 H143 0.950 . S
C115 N111 1.383 . S
C115 C114 1.439 . S
C115 C133 1.392 . S
N116 Co100 2.282 . S
N116 C119 1.332 . S
N116 C121 1.332 . S
C117 C118 1.386 . S
C117 C120 1.388 . S
C118 C117 1.386 . S
C118 C119 1.382 . S
C118 H144 0.950 . S
C119 N116 1.332 . S
C119 C118 1.382 . S
C119 H130 0.952 . S
C120 C117 1.388 . S
C120 C121 1.382 . S
C120 H145 0.950 1_545 S
C121 N116 1.332 . S
C121 C120 1.382 . S
C121 H131 0.948 1_545 S
N122 Co100 2.282 . S
N122 C126 1.332 . S
N122 C127 1.332 . S
C123 C124 1.388 . S
C123 C127 1.382 . S
C123 H146 0.950 . S
C124 C123 1.388 . S
C124 C125 1.386 . S
C125 C124 1.386 . S
C125 C126 1.382 . S
C125 H147 0.950 1_545 S
C126 N122 1.332 . S
C126 C125 1.382 . S
C126 H128 0.952 1_545 S
C127 N122 1.332 . S
C127 C123 1.382 . S
C127 H129 0.948 . S
H128 C126 0.952 1_565 S
H129 C127 0.948 . S
H130 C119 0.952 . S
H131 C121 0.948 1_565 S
C132 C98 1.395 . S
C132 C102 1.391 . S
C133 C95 1.389 . S
C133 C115 1.392 . S
C134 C105 1.392 . S
C134 C107 1.389 . S
C135 C110 1.395 . S
C135 C112 1.391 . S
H136 C96 0.951 . S
H137 C97 0.950 . S
H138 C103 0.949 . S
H139 C104 0.950 . S
H140 C108 0.951 . S
H141 C109 0.950 . S
H142 C113 0.949 . S
H143 C114 0.950 . S
H144 C118 0.950 . S
H145 C120 0.950 1_565 S
H146 C123 0.950 . S
H147 C125 0.950 1_565 S
C148 C149 1.443 . S
C148 N152 1.376 . S
C148 C186 1.389 . S
C149 C148 1.443 . S
C149 C150 1.340 . S
C149 H189 0.951 . S
C150 C149 1.340 . S
C150 C151 1.439 . S
C150 H190 0.950 . S
C151 C150 1.439 . S
C151 N152 1.374 . S
C151 C185 1.395 . S
N152 C148 1.376 . S
N152 C151 1.374 . S
N152 Co153 2.008 . S
Co153 N152 2.008 . S
Co153 N154 1.995 . S
Co153 N159 2.008 . S
Co153 N164 1.995 . S
Co153 N169 2.282 . S
Co153 N175 2.282 . S
N154 Co153 1.995 . S
N154 C155 1.376 . S
N154 C158 1.383 . S
C155 N154 1.376 . S
C155 C156 1.446 . S
C155 C185 1.391 . S
C156 C155 1.446 . S
C156 C157 1.339 . S
C156 H191 0.949 . S
C157 C156 1.339 . S
C157 C158 1.439 . S
C157 H192 0.950 . S
C158 N154 1.383 . S
C158 C157 1.439 . S
C158 C187 1.392 . S
N159 Co153 2.008 . S
N159 C160 1.376 . S
N159 C163 1.374 . S
C160 N159 1.376 . S
C160 C161 1.443 . S
C160 C187 1.389 . S
C161 C160 1.443 . S
C161 C162 1.340 . S
C161 H193 0.951 . S
C162 C161 1.340 . S
C162 C163 1.439 . S
C162 H194 0.950 . S
C163 N159 1.374 . S
C163 C162 1.439 . S
C163 C188 1.395 . S
N164 Co153 1.995 . S
N164 C165 1.376 . S
N164 C168 1.383 . S
C165 N164 1.376 . S
C165 C166 1.446 . S
C165 C188 1.391 . S
C166 C165 1.446 . S
C166 C167 1.339 . S
C166 H195 0.949 . S
C167 C166 1.339 . S
C167 C168 1.439 . S
C167 H196 0.950 . S
C168 N164 1.383 . S
C168 C167 1.439 . S
C168 C186 1.392 . S
N169 Co153 2.282 . S
N169 C172 1.332 . S
N169 C174 1.332 . S
C170 C171 1.386 . S
C170 C173 1.388 . S
C171 C170 1.386 . S
C171 C172 1.382 . S
C171 H197 0.950 . S
C172 N169 1.332 . S
C172 C171 1.382 . S
C172 H183 0.952 . S
C173 C170 1.388 . S
C173 C174 1.382 . S
C173 H198 0.950 . S
C174 N169 1.332 . S
C174 C173 1.382 . S
C174 H184 0.948 . S
N175 Co153 2.282 . S
N175 C179 1.332 . S
N175 C180 1.332 . S
C176 C177 1.388 . S
C176 C180 1.382 . S
C176 H199 0.950 . S
C177 C176 1.388 . S
C177 C178 1.386 . S
C178 C177 1.386 . S
C178 C179 1.382 . S
C178 H200 0.950 . S
C179 N175 1.332 . S
C179 C178 1.382 . S
C179 H181 0.952 . S
C180 N175 1.332 . S
C180 C176 1.382 . S
C180 H182 0.948 . S
H181 C179 0.952 . S
H182 C180 0.948 . S
H183 C172 0.952 . S
H184 C174 0.948 . S
C185 C151 1.395 . S
C185 C155 1.391 . S
C186 C148 1.389 . S
C186 C168 1.392 . S
C187 C158 1.392 . S
C187 C160 1.389 . S
C188 C163 1.395 . S
C188 C165 1.391 . S
H189 C149 0.951 . S
H190 C150 0.950 . S
H191 C156 0.949 . S
H192 C157 0.950 . S
H193 C161 0.951 . S
H194 C162 0.950 . S
H195 C166 0.949 . S
H196 C167 0.950 . S
H197 C171 0.950 . S
H198 C173 0.950 . S
H199 C176 0.950 . S
H200 C178 0.950 . S
C201 C202 1.391 . S
C201 C203 1.394 . S
C201 H217 0.931 1_455 S
C202 C201 1.391 . S
C202 C206 1.376 . S
C203 C201 1.394 . S
C203 C204 1.369 . S
C203 C207 1.531 1_455 S
C204 C203 1.369 . S
C204 C205 1.410 . S
C204 C212 1.503 . S
C205 C204 1.410 . S
C205 C206 1.392 . S
C205 C208 1.511 . S
C206 C202 1.376 . S
C206 C205 1.392 . S
C206 H218 0.929 . S
C207 C203 1.531 1_655 S
C207 H219 0.960 . S
C207 H220 0.962 . S
C207 H221 0.960 . S
C208 C205 1.511 . S
C208 H222 0.961 . S
C208 H223 0.961 . S
C208 H224 0.961 . S
C209 C210 1.370 . S
C209 C211 1.363 . S
C209 H225 0.931 . S
C210 C209 1.370 . S
C210 C214 1.408 . S
C211 C209 1.363 . S
C211 C212 1.370 . S
C211 C215 1.524 . S
C212 C204 1.503 . S
C212 C211 1.370 . S
C212 C213 1.403 . S
C213 C212 1.403 . S
C213 C214 1.404 . S
C213 C216 1.539 . S
C214 C210 1.408 . S
C214 C213 1.404 . S
C214 H226 0.930 . S
C215 C211 1.524 . S
C215 H227 0.956 . S
C215 H228 0.961 . S
C215 H229 0.961 . S
C216 C213 1.539 . S
C216 H230 0.958 . S
C216 H231 0.961 . S
C216 H232 0.960 . S
H217 C201 0.931 1_655 S
H218 C206 0.929 . S
H219 C207 0.960 . S
H220 C207 0.962 . S
H221 C207 0.960 . S
H222 C208 0.961 . S
H223 C208 0.961 . S
H224 C208 0.961 . S
H225 C209 0.931 . S
H226 C214 0.930 . S
H227 C215 0.956 . S
H228 C215 0.961 . S
H229 C215 0.961 . S
H230 C216 0.958 . S
H231 C216 0.961 . S
H232 C216 0.960 . S
C233 C234 1.391 . S
C233 C235 1.394 . S
C233 H249 0.931 1_545 S
C234 C233 1.391 . S
C234 C238 1.376 . S
C235 C233 1.394 . S
C235 C236 1.369 . S
C235 C239 1.531 1_545 S
C236 C235 1.369 . S
C236 C237 1.410 . S
C236 C244 1.503 . S
C237 C236 1.410 . S
C237 C238 1.392 . S
C237 C240 1.511 . S
C238 C234 1.376 . S
C238 C237 1.392 . S
C238 H250 0.929 . S
C239 C235 1.531 1_565 S
C239 H251 0.960 . S
C239 H252 0.962 . S
C239 H253 0.960 . S
C240 C237 1.511 . S
C240 H254 0.961 . S
C240 H255 0.961 . S
C240 H256 0.961 . S
C241 C242 1.370 . S
C241 C243 1.363 . S
C241 H257 0.931 . S
C242 C241 1.370 . S
C242 C246 1.408 . S
C243 C241 1.363 . S
C243 C244 1.370 . S
C243 C247 1.524 . S
C244 C236 1.503 . S
C244 C243 1.370 . S
C244 C245 1.403 . S
C245 C244 1.403 . S
C245 C246 1.404 . S
C245 C248 1.539 . S
C246 C242 1.408 . S
C246 C245 1.404 . S
C246 H258 0.930 . S
C247 C243 1.524 . S
C247 H259 0.956 . S
C247 H260 0.961 . S
C247 H261 0.961 . S
C248 C245 1.539 . S
C248 H262 0.958 1_545 S
C248 H263 0.961 . S
C248 H264 0.960 . S
H249 C233 0.931 1_565 S
H250 C238 0.929 . S
H251 C239 0.960 . S
H252 C239 0.962 . S
H253 C239 0.960 . S
H254 C240 0.961 . S
H255 C240 0.961 . S
H256 C240 0.961 . S
H257 C241 0.931 . S
H258 C246 0.930 . S
H259 C247 0.956 . S
H260 C247 0.961 . S
H261 C247 0.961 . S
H262 C248 0.958 1_565 S
H263 C248 0.961 . S
H264 C248 0.960 . S
C265 C266 1.391 . S
C265 C267 1.394 . S
C265 H281 0.931 . S
C266 C265 1.391 . S
C266 C270 1.376 . S
C267 C265 1.394 . S
C267 C268 1.369 . S
C267 C271 1.531 . S
C268 C267 1.369 . S
C268 C269 1.410 . S
C268 C276 1.503 . S
C269 C268 1.410 . S
C269 C270 1.392 . S
C269 C272 1.511 . S
C270 C266 1.376 . S
C270 C269 1.392 . S
C270 H282 0.929 . S
C271 C267 1.531 . S
C271 H283 0.960 . S
C271 H284 0.962 . S
C271 H285 0.960 . S
C272 C269 1.511 . S
C272 H286 0.961 . S
C272 H287 0.961 . S
C272 H288 0.961 . S
C273 C274 1.370 . S
C273 C275 1.363 . S
C273 H289 0.931 . S
C274 C273 1.370 . S
C274 C278 1.408 . S
C275 C273 1.363 . S
C275 C276 1.370 . S
C275 C279 1.524 . S
C276 C268 1.503 . S
C276 C275 1.370 . S
C276 C277 1.403 . S
C277 C276 1.403 . S
C277 C278 1.404 . S
C277 C280 1.539 . S
C278 C274 1.408 . S
C278 C277 1.404 . S
C278 H290 0.930 . S
C279 C275 1.524 . S
C279 H291 0.956 . S
C279 H292 0.961 . S
C279 H293 0.961 . S
C280 C277 1.539 . S
C280 H294 0.958 . S
C280 H295 0.961 . S
C280 H296 0.960 . S
H281 C265 0.931 . S
H282 C270 0.929 . S
H283 C271 0.960 . S
H284 C271 0.962 . S
H285 C271 0.960 . S
H286 C272 0.961 . S
H287 C272 0.961 . S
H288 C272 0.961 . S
H289 C273 0.931 . S
H290 C278 0.930 . S
H291 C279 0.956 . S
H292 C279 0.961 . S
H293 C279 0.961 . S
H294 C280 0.958 . S
H295 C280 0.961 . S
H296 C280 0.960 . S
C297 C298 1.391 . S
C297 C299 1.394 . S
C297 H313 0.931 1_455 S
C298 C297 1.391 . S
C298 C302 1.376 . S
C299 C297 1.394 . S
C299 C300 1.369 . S
C299 C303 1.531 1_455 S
C300 C299 1.369 . S
C300 C301 1.410 . S
C300 C308 1.503 . S
C301 C300 1.410 . S
C301 C302 1.392 . S
C301 C304 1.511 . S
C302 C298 1.376 . S
C302 C301 1.392 . S
C302 H314 0.929 . S
C303 C299 1.531 1_655 S
C303 H315 0.960 . S
C303 H316 0.962 . S
C303 H317 0.960 . S
C304 C301 1.511 . S
C304 H318 0.961 . S
C304 H319 0.961 . S
C304 H320 0.961 . S
C305 C306 1.370 . S
C305 C307 1.363 . S
C305 H321 0.931 . S
C306 C305 1.370 . S
C306 C310 1.408 . S
C307 C305 1.363 . S
C307 C308 1.370 . S
C307 C311 1.524 . S
C308 C300 1.503 . S
C308 C307 1.370 . S
C308 C309 1.403 . S
C309 C308 1.403 . S
C309 C310 1.404 . S
C309 C312 1.539 . S
C310 C306 1.408 . S
C310 C309 1.404 . S
C310 H322 0.930 . S
C311 C307 1.524 . S
C311 H323 0.956 1_455 S
C311 H324 0.961 . S
C311 H325 0.961 . S
C312 C309 1.539 . S
C312 H326 0.958 . S
C312 H327 0.961 . S
C312 H328 0.960 . S
H313 C297 0.931 1_655 S
H314 C302 0.929 . S
H315 C303 0.960 . S
H316 C303 0.962 . S
H317 C303 0.960 . S
H318 C304 0.961 . S
H319 C304 0.961 . S
H320 C304 0.961 . S
H321 C305 0.931 . S
H322 C310 0.930 . S
H323 C311 0.956 1_655 S
H324 C311 0.961 . S
H325 C311 0.961 . S
H326 C312 0.958 . S
H327 C312 0.961 . S
H328 C312 0.960 . S
C329 C330 1.391 . S
C329 C331 1.394 . S
C329 H345 0.931 1_545 S
C330 C329 1.391 . S
C330 C334 1.376 . S
C331 C329 1.394 . S
C331 C332 1.369 . S
C331 C335 1.531 1_545 S
C332 C331 1.369 . S
C332 C333 1.410 . S
C332 C340 1.503 . S
C333 C332 1.410 . S
C333 C334 1.392 . S
C333 C336 1.511 . S
C334 C330 1.376 . S
C334 C333 1.392 . S
C334 H346 0.929 . S
C335 C331 1.531 1_565 S
C335 H347 0.960 . S
C335 H348 0.962 . S
C335 H349 0.960 . S
C336 C333 1.511 . S
C336 H350 0.961 . S
C336 H351 0.961 . S
C336 H352 0.961 . S
C337 C338 1.370 . S
C337 C339 1.363 . S
C337 H353 0.931 . S
C338 C337 1.370 . S
C338 C342 1.408 . S
C339 C337 1.363 . S
C339 C340 1.370 . S
C339 C343 1.524 . S
C340 C332 1.503 . S
C340 C339 1.370 . S
C340 C341 1.403 . S
C341 C340 1.403 . S
C341 C342 1.404 . S
C341 C344 1.539 . S
C342 C338 1.408 . S
C342 C341 1.404 . S
C342 H354 0.930 . S
C343 C339 1.524 . S
C343 H355 0.956 . S
C343 H356 0.961 . S
C343 H357 0.961 . S
C344 C341 1.539 . S
C344 H358 0.958 1_545 S
C344 H359 0.961 . S
C344 H360 0.960 . S
H345 C329 0.931 1_565 S
H346 C334 0.929 . S
H347 C335 0.960 . S
H348 C335 0.962 . S
H349 C335 0.960 . S
H350 C336 0.961 . S
H351 C336 0.961 . S
H352 C336 0.961 . S
H353 C337 0.931 . S
H354 C342 0.930 . S
H355 C343 0.956 . S
H356 C343 0.961 . S
H357 C343 0.961 . S
H358 C344 0.958 1_565 S
H359 C344 0.961 . S
H360 C344 0.960 . S
C361 C362 1.391 . S
C361 C363 1.394 . S
C361 H377 0.931 . S
C362 C361 1.391 . S
C362 C366 1.376 . S
C363 C361 1.394 . S
C363 C364 1.369 . S
C363 C367 1.531 . S
C364 C363 1.369 . S
C364 C365 1.410 . S
C364 C372 1.503 . S
C365 C364 1.410 . S
C365 C366 1.392 . S
C365 C368 1.511 . S
C366 C362 1.376 . S
C366 C365 1.392 . S
C366 H378 0.929 . S
C367 C363 1.531 . S
C367 H379 0.960 . S
C367 H380 0.962 . S
C367 H381 0.960 . S
C368 C365 1.511 . S
C368 H382 0.961 . S
C368 H383 0.961 . S
C368 H384 0.961 . S
C369 C370 1.370 . S
C369 C371 1.363 . S
C369 H385 0.931 . S
C370 C369 1.370 . S
C370 C374 1.408 . S
C371 C369 1.363 . S
C371 C372 1.370 . S
C371 C375 1.524 . S
C372 C364 1.503 . S
C372 C371 1.370 . S
C372 C373 1.403 . S
C373 C372 1.403 . S
C373 C374 1.404 . S
C373 C376 1.539 . S
C374 C370 1.408 . S
C374 C373 1.404 . S
C374 H386 0.930 . S
C375 C371 1.524 . S
C375 H387 0.956 . S
C375 H388 0.961 . S
C375 H389 0.961 . S
C376 C373 1.539 . S
C376 H390 0.958 . S
C376 H391 0.961 . S
C376 H392 0.960 . S
H377 C361 0.931 . S
H378 C366 0.929 . S
H379 C367 0.960 . S
H380 C367 0.962 . S
H381 C367 0.960 . S
H382 C368 0.961 . S
H383 C368 0.961 . S
H384 C368 0.961 . S
H385 C369 0.931 . S
H386 C374 0.930 . S
H387 C375 0.956 . S
H388 C375 0.961 . S
H389 C375 0.961 . S
H390 C376 0.958 . S
H391 C376 0.961 . S
H392 C376 0.960 . S
C393 C394 1.391 . S
C393 C395 1.394 . S
C393 H409 0.931 . S
C394 C393 1.391 . S
C394 C398 1.376 . S
C395 C393 1.394 . S
C395 C396 1.369 . S
C395 C399 1.531 . S
C396 C395 1.369 . S
C396 C397 1.410 . S
C396 C404 1.503 . S
C397 C396 1.410 . S
C397 C398 1.392 . S
C397 C400 1.511 . S
C398 C394 1.376 . S
C398 C397 1.392 . S
C398 H410 0.929 1_655 S
C399 C395 1.531 . S
C399 H411 0.960 . S
C399 H412 0.962 1_545 S
C399 H413 0.960 . S
C400 C397 1.511 . S
C400 H414 0.961 1_655 S
C400 H415 0.961 . S
C400 H416 0.961 . S
C401 C402 1.370 . S
C401 C403 1.363 . S
C401 H417 0.931 1_545 S
C402 C401 1.370 . S
C402 C406 1.408 . S
C403 C401 1.363 . S
C403 C404 1.370 . S
C403 C407 1.524 1_545 S
C404 C396 1.503 . S
C404 C403 1.370 . S
C404 C405 1.403 . S
C405 C404 1.403 . S
C405 C406 1.404 . S
C405 C408 1.539 . S
C406 C402 1.408 . S
C406 C405 1.404 . S
C406 H418 0.930 . S
C407 C403 1.524 1_565 S
C407 H419 0.956 . S
C407 H420 0.961 . S
C407 H421 0.961 . S
C408 C405 1.539 . S
C408 H422 0.958 . S
C408 H423 0.961 . S
C408 H424 0.960 . S
H409 C393 0.931 . S
H410 C398 0.929 1_455 S
H411 C399 0.960 . S
H412 C399 0.962 1_565 S
H413 C399 0.960 . S
H414 C400 0.961 1_455 S
H415 C400 0.961 . S
H416 C400 0.961 . S
H417 C401 0.931 1_565 S
H418 C406 0.930 . S
H419 C407 0.956 . S
H420 C407 0.961 . S
H421 C407 0.961 . S
H422 C408 0.958 . S
H423 C408 0.961 . S
H424 C408 0.960 . S
C425 C426 1.391 1_556 S
C425 C427 1.394 . S
C425 H441 0.931 . S
C426 C425 1.391 1_554 S
C426 C430 1.376 . S
C427 C425 1.394 . S
C427 C428 1.369 . S
C427 C431 1.531 . S
C428 C427 1.369 . S
C428 C429 1.410 . S
C428 C436 1.503 . S
C429 C428 1.410 . S
C429 C430 1.392 1_556 S
C429 C432 1.511 1_556 S
C430 C426 1.376 . S
C430 C429 1.392 1_554 S
C430 H442 0.929 . S
C431 C427 1.531 . S
C431 H443 0.960 . S
C431 H444 0.962 . S
C431 H445 0.960 . S
C432 C429 1.511 1_554 S
C432 H446 0.961 . S
C432 H447 0.961 1_554 S
C432 H448 0.961 1_554 S
C433 C434 1.370 . S
C433 C435 1.363 . S
C433 H449 0.931 . S
C434 C433 1.370 . S
C434 C438 1.408 . S
C435 C433 1.363 . S
C435 C436 1.370 . S
C435 C439 1.524 . S
C436 C428 1.503 . S
C436 C435 1.370 . S
C436 C437 1.403 . S
C437 C436 1.403 . S
C437 C438 1.404 . S
C437 C440 1.539 . S
C438 C434 1.408 . S
C438 C437 1.404 . S
C438 H450 0.930 . S
C439 C435 1.524 . S
C439 H451 0.956 . S
C439 H452 0.961 1_556 S
C439 H453 0.961 . S
C440 C437 1.539 . S
C440 H454 0.958 . S
C440 H455 0.961 . S
C440 H456 0.960 . S
H441 C425 0.931 . S
H442 C430 0.929 . S
H443 C431 0.960 . S
H444 C431 0.962 . S
H445 C431 0.960 . S
H446 C432 0.961 . S
H447 C432 0.961 1_556 S
H448 C432 0.961 1_556 S
H449 C433 0.931 . S
H450 C438 0.930 . S
H451 C439 0.956 . S
H452 C439 0.961 1_554 S
H453 C439 0.961 . S
H454 C440 0.958 . S
H455 C440 0.961 . S
H456 C440 0.960 . S
C457 C458 1.391 . S
C457 C459 1.394 . S
C457 H473 0.931 . S
C458 C457 1.391 . S
C458 C462 1.376 . S
C459 C457 1.394 . S
C459 C460 1.369 . S
C459 C463 1.531 . S
C460 C459 1.369 . S
C460 C461 1.400 1_455 S
C460 C468 1.503 . S
C461 C460 1.400 1_655 S
C461 C462 1.396 1_655 S
C461 C464 1.518 . S
C462 C458 1.376 . S
C462 C461 1.396 1_455 S
C462 H474 0.929 1_455 S
C463 C459 1.531 . S
C463 H475 0.960 . S
C463 H476 0.962 . S
C463 H477 0.960 . S
C464 C461 1.518 . S
C464 H478 0.961 . S
C464 H479 0.961 . S
C464 H480 0.961 . S
C465 C466 1.370 . S
C465 C467 1.363 . S
C465 H481 0.931 . S
C466 C465 1.370 . S
C466 C470 1.408 1_455 S
C467 C465 1.363 . S
C467 C468 1.370 . S
C467 C471 1.524 . S
C468 C460 1.503 . S
C468 C467 1.370 . S
C468 C469 1.403 1_455 S
C469 C468 1.403 1_655 S
C469 C470 1.404 . S
C469 C472 1.539 . S
C470 C466 1.408 1_655 S
C470 C469 1.404 . S
C470 H482 0.930 . S
C471 C467 1.524 . S
C471 H483 0.956 . S
C471 H484 0.961 . S
C471 H485 0.961 . S
C472 C469 1.539 . S
C472 H486 0.958 . S
C472 H487 0.961 . S
C472 H488 0.960 . S
H473 C457 0.931 . S
H474 C462 0.929 1_655 S
H475 C463 0.960 . S
H476 C463 0.962 . S
H477 C463 0.960 . S
H478 C464 0.961 . S
H479 C464 0.961 . S
H480 C464 0.961 . S
H481 C465 0.931 . S
H482 C470 0.930 . S
H483 C471 0.956 . S
H484 C471 0.961 . S
H485 C471 0.961 . S
H486 C472 0.958 . S
H487 C472 0.961 . S
H488 C472 0.960 . S
C489 C490 1.391 . S
C489 C491 1.394 . S
C489 H505 0.931 . S
C490 C489 1.391 . S
C490 C494 1.376 . S
C491 C489 1.394 . S
C491 C492 1.369 . S
C491 C495 1.531 . S
C492 C491 1.369 . S
C492 C493 1.410 . S
C492 C500 1.503 . S
C493 C492 1.410 . S
C493 C494 1.392 . S
C493 C496 1.511 . S
C494 C490 1.376 . S
C494 C493 1.392 . S
C494 H506 0.929 . S
C495 C491 1.531 . S
C495 H507 0.960 . S
C495 H508 0.962 . S
C495 H509 0.960 . S
C496 C493 1.511 . S
C496 H510 0.961 . S
C496 H511 0.961 . S
C496 H512 0.961 . S
C497 C498 1.370 . S
C497 C499 1.363 . S
C497 H513 0.931 . S
C498 C497 1.370 . S
C498 C502 1.408 . S
C499 C497 1.363 . S
C499 C500 1.370 . S
C499 C503 1.524 . S
C500 C492 1.503 . S
C500 C499 1.370 . S
C500 C501 1.403 . S
C501 C500 1.403 . S
C501 C502 1.404 . S
C501 C504 1.539 1_545 S
C502 C498 1.408 . S
C502 C501 1.404 . S
C502 H514 0.930 1_545 S
C503 C499 1.524 . S
C503 H515 0.956 . S
C503 H516 0.961 . S
C503 H517 0.961 . S
C504 C501 1.539 1_565 S
C504 H518 0.958 . S
C504 H519 0.961 . S
C504 H520 0.960 . S
H505 C489 0.931 . S
H506 C494 0.929 . S
H507 C495 0.960 . S
H508 C495 0.962 . S
H509 C495 0.960 . S
H510 C496 0.961 . S
H511 C496 0.961 . S
H512 C496 0.961 . S
H513 C497 0.931 . S
H514 C502 0.930 1_565 S
H515 C503 0.956 . S
H516 C503 0.961 . S
H517 C503 0.961 . S
H518 C504 0.958 . S
H519 C504 0.961 . S
H520 C504 0.960 . S
C521 C522 1.391 . S
C521 C523 1.394 1_554 S
C521 H537 0.931 . S
C522 C521 1.391 . S
C522 C526 1.376 1_554 S
C523 C521 1.394 1_556 S
C523 C524 1.369 . S
C523 C527 1.531 . S
C524 C523 1.369 . S
C524 C525 1.410 . S
C524 C532 1.503 . S
C525 C524 1.410 . S
C525 C526 1.392 . S
C525 C528 1.511 . S
C526 C522 1.376 1_556 S
C526 C525 1.392 . S
C526 H538 0.929 . S
C527 C523 1.531 . S
C527 H539 0.960 . S
C527 H540 0.962 . S
C527 H541 0.960 1_556 S
C528 C525 1.511 . S
C528 H542 0.961 . S
C528 H543 0.961 . S
C528 H544 0.961 . S
C529 C530 1.370 . S
C529 C531 1.363 . S
C529 H545 0.931 . S
C530 C529 1.370 . S
C530 C534 1.408 . S
C531 C529 1.363 . S
C531 C532 1.370 . S
C531 C535 1.524 . S
C532 C524 1.503 . S
C532 C531 1.370 . S
C532 C533 1.403 . S
C533 C532 1.403 . S
C533 C534 1.404 . S
C533 C536 1.539 . S
C534 C530 1.408 . S
C534 C533 1.404 . S
C534 H546 0.930 . S
C535 C531 1.524 . S
C535 H547 0.956 . S
C535 H548 0.961 . S
C535 H549 0.961 . S
C536 C533 1.539 . S
C536 H550 0.958 . S
C536 H551 0.961 . S
C536 H552 0.960 . S
H537 C521 0.931 . S
H538 C526 0.929 . S
H539 C527 0.960 . S
H540 C527 0.962 . S
H541 C527 0.960 1_554 S
H542 C528 0.961 . S
H543 C528 0.961 . S
H544 C528 0.961 . S
H545 C529 0.931 . S
H546 C534 0.930 . S
H547 C535 0.956 . S
H548 C535 0.961 . S
H549 C535 0.961 . S
H550 C536 0.958 . S
H551 C536 0.961 . S
H552 C536 0.960 . S
C553 C554 1.391 . S
C553 C555 1.394 . S
C553 H569 0.931 . S
C554 C553 1.391 . S
C554 C558 1.376 . S
C555 C553 1.394 . S
C555 C556 1.369 . S
C555 C559 1.531 . S
C556 C555 1.369 . S
C556 C557 1.410 . S
C556 C564 1.503 . S
C557 C556 1.410 . S
C557 C558 1.392 . S
C557 C560 1.511 1_455 S
C558 C554 1.376 . S
C558 C557 1.392 . S
C558 H570 0.929 1_455 S
C559 C555 1.531 . S
C559 H571 0.960 . S
C559 H572 0.962 . S
C559 H573 0.960 . S
C560 C557 1.511 1_655 S
C560 H574 0.961 . S
C560 H575 0.961 1_655 S
C560 H576 0.961 . S
C561 C562 1.370 . S
C561 C563 1.363 . S
C561 H577 0.931 . S
C562 C561 1.370 . S
C562 C566 1.408 1_455 S
C563 C561 1.363 . S
C563 C564 1.370 . S
C563 C567 1.524 . S
C564 C556 1.503 . S
C564 C563 1.370 . S
C564 C565 1.403 1_455 S
C565 C564 1.403 1_655 S
C565 C566 1.404 . S
C565 C568 1.539 . S
C566 C562 1.408 1_655 S
C566 C565 1.404 . S
C566 H578 0.930 . S
C567 C563 1.524 . S
C567 H579 0.956 . S
C567 H580 0.961 . S
C567 H581 0.961 . S
C568 C565 1.539 . S
C568 H582 0.958 . S
C568 H583 0.961 . S
C568 H584 0.960 . S
H569 C553 0.931 . S
H570 C558 0.929 1_655 S
H571 C559 0.960 . S
H572 C559 0.962 . S
H573 C559 0.960 . S
H574 C560 0.961 . S
H575 C560 0.961 1_455 S
H576 C560 0.961 . S
H577 C561 0.931 . S
H578 C566 0.930 . S
H579 C567 0.956 . S
H580 C567 0.961 . S
H581 C567 0.961 . S
H582 C568 0.958 . S
H583 C568 0.961 . S
H584 C568 0.960 . S
C210 C64 1.484 . S
C202 C6 1.474 . S
C234 C22 1.582 . S
C242 C134 1.599 . S
C266 C34 1.280 . S
C274 C186 1.277 . S
C298 C7 1.441 . S
C306 C80 1.482 . S
C338 C124 1.589 . S
C330 C23 1.550 . S
C362 C35 1.243 . S
C370 C170 1.284 . S
C402 C117 1.591 . S
C394 C36 1.580 . S
C426 C9 1.752 1_655 S
C434 C177 1.803 . S
C466 C71 1.481 . S
C458 C21 1.431 . S
C498 C133 1.596 . S
C490 C37 1.590 . S
C530 C187 1.832 . S
C522 C8 1.797 . S
C554 C20 1.473 . S
C562 C81 1.480 . S
