# Generated by pormake.
# Topology gar, (4,6)-cn, num edge types: 1
# Building blocks:
#     Node 0, Type 0, BuildingBlock: AZAVOO_clean_sbu_0, # of connection points: 4
#     Node 1, Type 0, BuildingBlock: AZAVOO_clean_sbu_0, # of connection points: 4
#     Node 2, Type 0, BuildingBlock: AZAVOO_clean_sbu_0, # of connection points: 4
#     Node 3, Type 0, BuildingBlock: AZAVOO_clean_sbu_0, # of connection points: 4
#     Node 4, Type 0, BuildingBlock: AZAVOO_clean_sbu_0, # of connection points: 4
#     Node 5, Type 0, BuildingBlock: AZAVOO_clean_sbu_0, # of connection points: 4
#     Node 6, Type 0, BuildingBlock: AZAVOO_clean_sbu_0, # of connection points: 4
#     Node 7, Type 0, BuildingBlock: AZAVOO_clean_sbu_0, # of connection points: 4
#     Node 8, Type 0, BuildingBlock: AZAVOO_clean_sbu_0, # of connection points: 4
#     Node 9, Type 0, BuildingBlock: AZAVOO_clean_sbu_0, # of connection points: 4
#     Node 10, Type 0, BuildingBlock: AZAVOO_clean_sbu_0, # of connection points: 4
#     Node 11, Type 0, BuildingBlock: AZAVOO_clean_sbu_0, # of connection points: 4
#     Node 12, Type 0, BuildingBlock: AZAVOO_clean_sbu_0, # of connection points: 4
#     Node 13, Type 0, BuildingBlock: AZAVOO_clean_sbu_0, # of connection points: 4
#     Node 14, Type 0, BuildingBlock: AZAVOO_clean_sbu_0, # of connection points: 4
#     Node 15, Type 0, BuildingBlock: AZAVOO_clean_sbu_0, # of connection points: 4
#     Node 16, Type 0, BuildingBlock: AZAVOO_clean_sbu_0, # of connection points: 4
#     Node 17, Type 0, BuildingBlock: AZAVOO_clean_sbu_0, # of connection points: 4
#     Node 18, Type 0, BuildingBlock: AZAVOO_clean_sbu_0, # of connection points: 4
#     Node 19, Type 0, BuildingBlock: AZAVOO_clean_sbu_0, # of connection points: 4
#     Node 20, Type 0, BuildingBlock: AZAVOO_clean_sbu_0, # of connection points: 4
#     Node 21, Type 0, BuildingBlock: AZAVOO_clean_sbu_0, # of connection points: 4
#     Node 22, Type 0, BuildingBlock: AZAVOO_clean_sbu_0, # of connection points: 4
#     Node 23, Type 0, BuildingBlock: AZAVOO_clean_sbu_0, # of connection points: 4
#     Node 24, Type 1, BuildingBlock: CUKXOW_clean_sbu_0, # of connection points: 6
#     Node 25, Type 1, BuildingBlock: CUKXOW_clean_sbu_0, # of connection points: 6
#     Node 26, Type 1, BuildingBlock: CUKXOW_clean_sbu_0, # of connection points: 6
#     Node 27, Type 1, BuildingBlock: CUKXOW_clean_sbu_0, # of connection points: 6
#     Node 28, Type 1, BuildingBlock: CUKXOW_clean_sbu_0, # of connection points: 6
#     Node 29, Type 1, BuildingBlock: CUKXOW_clean_sbu_0, # of connection points: 6
#     Node 30, Type 1, BuildingBlock: CUKXOW_clean_sbu_0, # of connection points: 6
#     Node 31, Type 1, BuildingBlock: CUKXOW_clean_sbu_0, # of connection points: 6
#     Node 32, Type 1, BuildingBlock: CUKXOW_clean_sbu_0, # of connection points: 6
#     Node 33, Type 1, BuildingBlock: CUKXOW_clean_sbu_0, # of connection points: 6
#     Node 34, Type 1, BuildingBlock: CUKXOW_clean_sbu_0, # of connection points: 6
#     Node 35, Type 1, BuildingBlock: CUKXOW_clean_sbu_0, # of connection points: 6
#     Node 36, Type 1, BuildingBlock: CUKXOW_clean_sbu_0, # of connection points: 6
#     Node 37, Type 1, BuildingBlock: CUKXOW_clean_sbu_0, # of connection points: 6
#     Node 38, Type 1, BuildingBlock: CUKXOW_clean_sbu_0, # of connection points: 6
#     Node 39, Type 1, BuildingBlock: CUKXOW_clean_sbu_0, # of connection points: 6
#     Edge 40, Type (0, 1), BuildingBlock: CIFDUS_clean_linker_0, # of connection points: 2
#     Edge 41, Type (0, 1), BuildingBlock: CIFDUS_clean_linker_0, # of connection points: 2
#     Edge 42, Type (0, 1), BuildingBlock: CIFDUS_clean_linker_0, # of connection points: 2
#     Edge 43, Type (0, 1), BuildingBlock: CIFDUS_clean_linker_0, # of connection points: 2
#     Edge 44, Type (0, 1), BuildingBlock: CIFDUS_clean_linker_0, # of connection points: 2
#     Edge 45, Type (0, 1), BuildingBlock: CIFDUS_clean_linker_0, # of connection points: 2
#     Edge 46, Type (0, 1), BuildingBlock: CIFDUS_clean_linker_0, # of connection points: 2
#     Edge 47, Type (0, 1), BuildingBlock: CIFDUS_clean_linker_0, # of connection points: 2
#     Edge 48, Type (0, 1), BuildingBlock: CIFDUS_clean_linker_0, # of connection points: 2
#     Edge 49, Type (0, 1), BuildingBlock: CIFDUS_clean_linker_0, # of connection points: 2
#     Edge 50, Type (0, 1), BuildingBlock: CIFDUS_clean_linker_0, # of connection points: 2
#     Edge 51, Type (0, 1), BuildingBlock: CIFDUS_clean_linker_0, # of connection points: 2
#     Edge 52, Type (0, 1), BuildingBlock: CIFDUS_clean_linker_0, # of connection points: 2
#     Edge 53, Type (0, 1), BuildingBlock: CIFDUS_clean_linker_0, # of connection points: 2
#     Edge 54, Type (0, 1), BuildingBlock: CIFDUS_clean_linker_0, # of connection points: 2
#     Edge 55, Type (0, 1), BuildingBlock: CIFDUS_clean_linker_0, # of connection points: 2
#     Edge 56, Type (0, 1), BuildingBlock: CIFDUS_clean_linker_0, # of connection points: 2
#     Edge 57, Type (0, 1), BuildingBlock: CIFDUS_clean_linker_0, # of connection points: 2
#     Edge 58, Type (0, 1), BuildingBlock: CIFDUS_clean_linker_0, # of connection points: 2
#     Edge 59, Type (0, 1), BuildingBlock: CIFDUS_clean_linker_0, # of connection points: 2
#     Edge 60, Type (0, 1), BuildingBlock: CIFDUS_clean_linker_0, # of connection points: 2
#     Edge 61, Type (0, 1), BuildingBlock: CIFDUS_clean_linker_0, # of connection points: 2
#     Edge 62, Type (0, 1), BuildingBlock: CIFDUS_clean_linker_0, # of connection points: 2
#     Edge 63, Type (0, 1), BuildingBlock: CIFDUS_clean_linker_0, # of connection points: 2
#     Edge 64, Type (0, 1), BuildingBlock: CIFDUS_clean_linker_0, # of connection points: 2
#     Edge 65, Type (0, 1), BuildingBlock: CIFDUS_clean_linker_0, # of connection points: 2
#     Edge 66, Type (0, 1), BuildingBlock: CIFDUS_clean_linker_0, # of connection points: 2
#     Edge 67, Type (0, 1), BuildingBlock: CIFDUS_clean_linker_0, # of connection points: 2
#     Edge 68, Type (0, 1), BuildingBlock: CIFDUS_clean_linker_0, # of connection points: 2
#     Edge 69, Type (0, 1), BuildingBlock: CIFDUS_clean_linker_0, # of connection points: 2
#     Edge 70, Type (0, 1), BuildingBlock: CIFDUS_clean_linker_0, # of connection points: 2
#     Edge 71, Type (0, 1), BuildingBlock: CIFDUS_clean_linker_0, # of connection points: 2
#     Edge 72, Type (0, 1), BuildingBlock: CIFDUS_clean_linker_0, # of connection points: 2
#     Edge 73, Type (0, 1), BuildingBlock: CIFDUS_clean_linker_0, # of connection points: 2
#     Edge 74, Type (0, 1), BuildingBlock: CIFDUS_clean_linker_0, # of connection points: 2
#     Edge 75, Type (0, 1), BuildingBlock: CIFDUS_clean_linker_0, # of connection points: 2
#     Edge 76, Type (0, 1), BuildingBlock: CIFDUS_clean_linker_0, # of connection points: 2
#     Edge 77, Type (0, 1), BuildingBlock: CIFDUS_clean_linker_0, # of connection points: 2
#     Edge 78, Type (0, 1), BuildingBlock: CIFDUS_clean_linker_0, # of connection points: 2
#     Edge 79, Type (0, 1), BuildingBlock: CIFDUS_clean_linker_0, # of connection points: 2
#     Edge 80, Type (0, 1), BuildingBlock: CIFDUS_clean_linker_0, # of connection points: 2
#     Edge 81, Type (0, 1), BuildingBlock: CIFDUS_clean_linker_0, # of connection points: 2
#     Edge 82, Type (0, 1), BuildingBlock: CIFDUS_clean_linker_0, # of connection points: 2
#     Edge 83, Type (0, 1), BuildingBlock: CIFDUS_clean_linker_0, # of connection points: 2
#     Edge 84, Type (0, 1), BuildingBlock: CIFDUS_clean_linker_0, # of connection points: 2
#     Edge 85, Type (0, 1), BuildingBlock: CIFDUS_clean_linker_0, # of connection points: 2
#     Edge 86, Type (0, 1), BuildingBlock: CIFDUS_clean_linker_0, # of connection points: 2
#     Edge 87, Type (0, 1), BuildingBlock: CIFDUS_clean_linker_0, # of connection points: 2
#     Edge 88, Type (0, 1), BuildingBlock: CIFDUS_clean_linker_0, # of connection points: 2
#     Edge 89, Type (0, 1), BuildingBlock: CIFDUS_clean_linker_0, # of connection points: 2
#     Edge 90, Type (0, 1), BuildingBlock: CIFDUS_clean_linker_0, # of connection points: 2
#     Edge 91, Type (0, 1), BuildingBlock: CIFDUS_clean_linker_0, # of connection points: 2
#     Edge 92, Type (0, 1), BuildingBlock: CIFDUS_clean_linker_0, # of connection points: 2
#     Edge 93, Type (0, 1), BuildingBlock: CIFDUS_clean_linker_0, # of connection points: 2
#     Edge 94, Type (0, 1), BuildingBlock: CIFDUS_clean_linker_0, # of connection points: 2
#     Edge 95, Type (0, 1), BuildingBlock: CIFDUS_clean_linker_0, # of connection points: 2
#     Edge 96, Type (0, 1), BuildingBlock: CIFDUS_clean_linker_0, # of connection points: 2
#     Edge 97, Type (0, 1), BuildingBlock: CIFDUS_clean_linker_0, # of connection points: 2
#     Edge 98, Type (0, 1), BuildingBlock: CIFDUS_clean_linker_0, # of connection points: 2
#     Edge 99, Type (0, 1), BuildingBlock: CIFDUS_clean_linker_0, # of connection points: 2
#     Edge 100, Type (0, 1), BuildingBlock: CIFDUS_clean_linker_0, # of connection points: 2
#     Edge 101, Type (0, 1), BuildingBlock: CIFDUS_clean_linker_0, # of connection points: 2
#     Edge 102, Type (0, 1), BuildingBlock: CIFDUS_clean_linker_0, # of connection points: 2
#     Edge 103, Type (0, 1), BuildingBlock: CIFDUS_clean_linker_0, # of connection points: 2
#     Edge 104, Type (0, 1), BuildingBlock: CIFDUS_clean_linker_0, # of connection points: 2
#     Edge 105, Type (0, 1), BuildingBlock: CIFDUS_clean_linker_0, # of connection points: 2
#     Edge 106, Type (0, 1), BuildingBlock: CIFDUS_clean_linker_0, # of connection points: 2
#     Edge 107, Type (0, 1), BuildingBlock: CIFDUS_clean_linker_0, # of connection points: 2
#     Edge 108, Type (0, 1), BuildingBlock: CIFDUS_clean_linker_0, # of connection points: 2
#     Edge 109, Type (0, 1), BuildingBlock: CIFDUS_clean_linker_0, # of connection points: 2
#     Edge 110, Type (0, 1), BuildingBlock: CIFDUS_clean_linker_0, # of connection points: 2
#     Edge 111, Type (0, 1), BuildingBlock: CIFDUS_clean_linker_0, # of connection points: 2
#     Edge 112, Type (0, 1), BuildingBlock: CIFDUS_clean_linker_0, # of connection points: 2
#     Edge 113, Type (0, 1), BuildingBlock: CIFDUS_clean_linker_0, # of connection points: 2
#     Edge 114, Type (0, 1), BuildingBlock: CIFDUS_clean_linker_0, # of connection points: 2
#     Edge 115, Type (0, 1), BuildingBlock: CIFDUS_clean_linker_0, # of connection points: 2
#     Edge 116, Type (0, 1), BuildingBlock: CIFDUS_clean_linker_0, # of connection points: 2
#     Edge 117, Type (0, 1), BuildingBlock: CIFDUS_clean_linker_0, # of connection points: 2
#     Edge 118, Type (0, 1), BuildingBlock: CIFDUS_clean_linker_0, # of connection points: 2
#     Edge 119, Type (0, 1), BuildingBlock: CIFDUS_clean_linker_0, # of connection points: 2
#     Edge 120, Type (0, 1), BuildingBlock: CIFDUS_clean_linker_0, # of connection points: 2
#     Edge 121, Type (0, 1), BuildingBlock: CIFDUS_clean_linker_0, # of connection points: 2
#     Edge 122, Type (0, 1), BuildingBlock: CIFDUS_clean_linker_0, # of connection points: 2
#     Edge 123, Type (0, 1), BuildingBlock: CIFDUS_clean_linker_0, # of connection points: 2
#     Edge 124, Type (0, 1), BuildingBlock: CIFDUS_clean_linker_0, # of connection points: 2
#     Edge 125, Type (0, 1), BuildingBlock: CIFDUS_clean_linker_0, # of connection points: 2
#     Edge 126, Type (0, 1), BuildingBlock: CIFDUS_clean_linker_0, # of connection points: 2
#     Edge 127, Type (0, 1), BuildingBlock: CIFDUS_clean_linker_0, # of connection points: 2
#     Edge 128, Type (0, 1), BuildingBlock: CIFDUS_clean_linker_0, # of connection points: 2
#     Edge 129, Type (0, 1), BuildingBlock: CIFDUS_clean_linker_0, # of connection points: 2
#     Edge 130, Type (0, 1), BuildingBlock: CIFDUS_clean_linker_0, # of connection points: 2
#     Edge 131, Type (0, 1), BuildingBlock: CIFDUS_clean_linker_0, # of connection points: 2
#     Edge 132, Type (0, 1), BuildingBlock: CIFDUS_clean_linker_0, # of connection points: 2
#     Edge 133, Type (0, 1), BuildingBlock: CIFDUS_clean_linker_0, # of connection points: 2
#     Edge 134, Type (0, 1), BuildingBlock: CIFDUS_clean_linker_0, # of connection points: 2
#     Edge 135, Type (0, 1), BuildingBlock: CIFDUS_clean_linker_0, # of connection points: 2
# Relax obj value: 0.136
# Max RMSD: 0.236
# Mean RMSD: 0.170
data_MOF--net-gar--node1-AZAVOO_clean_sbu_0--node2-CUKXOW_clean_sbu_0--edge1-CIFDUS_clean_linker_0
_symmetry_space_group_name_H-M    P1
_symmetry_Int_Tables_number       1
_symmetry_cell_setting            triclinic
loop_
_symmetry_equiv_pos_as_xyz
'x, y, z'
_cell_length_a     49.592389
_cell_length_b     45.754875
_cell_length_c     47.375048
_cell_angle_alpha  96.955847
_cell_angle_beta   94.721268
_cell_angle_gamma 99.809406
loop_
_atom_site_label
_atom_site_type_symbol
_atom_site_fract_x
_atom_site_fract_y
_atom_site_fract_z
_atom_type_partial_charge
Mg0 Mg 0.01523 0.26614 0.41695 0.0
O1 O 0.01282 0.30746 0.4492 0.0
O2 O 0.9718 0.2968 0.46565 0.0
Mg3 Mg 0.94734 0.2522 0.44304 0.0
C4 C 0.99478 0.31426 0.46542 0.0
C5 C 0.06986 0.30323 0.40374 0.0
O6 O 0.05378 0.32287 0.40044 0.0
O7 O 0.02139 0.23791 0.45253 0.0
O8 O 0.97776 0.22592 0.46214 0.0
O9 O 0.99615 0.28555 0.38085 0.0
O10 O 0.97315 0.25675 0.40823 0.0
C11 C 0.0029 0.22277 0.46487 0.0
C12 C 0.9728 0.27208 0.38731 0.0
O13 O 0.06082 0.27965 0.41421 0.0
Mg14 Mg 0.0209 0.8297 0.64245 0.0
O15 O 0.00791 0.78365 0.61533 0.0
O16 O 0.96314 0.77719 0.59983 0.0
Mg17 Mg 0.9477 0.8203 0.61433 0.0
C18 C 0.98594 0.76777 0.60167 0.0
C19 C 0.0499 0.88168 0.69177 0.0
O20 O 0.0511 0.907 0.70853 0.0
O21 O 0.02175 0.85185 0.60141 0.0
O22 O 0.97689 0.84509 0.58644 0.0
O23 O 0.00356 0.81033 0.68136 0.0
O24 O 0.97973 0.82982 0.65057 0.0
C25 C 0.00205 0.8549 0.58343 0.0
C26 C 0.98037 0.81687 0.67285 0.0
O27 O 0.03239 0.87529 0.66978 0.0
Mg28 Mg 0.50692 0.7637 0.91264 0.0
O29 O 0.50614 0.80675 0.94363 0.0
O30 O 0.46607 0.7971 0.96221 0.0
Mg31 Mg 0.44118 0.75147 0.94322 0.0
C32 C 0.48879 0.81437 0.96041 0.0
C33 C 0.55353 0.76327 0.88059 0.0
O34 O 0.53184 0.74432 0.86768 0.0
O35 O 0.51577 0.73821 0.94973 0.0
O36 O 0.47358 0.72838 0.96376 0.0
O37 O 0.48605 0.78134 0.8769 0.0
O38 O 0.46445 0.75396 0.90634 0.0
C39 C 0.49879 0.72539 0.96528 0.0
C40 C 0.46315 0.76869 0.88499 0.0
O41 O 0.55165 0.77719 0.9051 0.0
Mg42 Mg 0.49724 0.33642 0.12305 0.0
O43 O 0.49538 0.28908 0.09983 0.0
O44 O 0.45261 0.27296 0.07857 0.0
Mg45 Mg 0.42675 0.30876 0.08999 0.0
C46 C 0.47735 0.26923 0.08407 0.0
C47 C 0.55297 0.35189 0.15536 0.0
O48 O 0.53595 0.35899 0.17378 0.0
O49 O 0.49624 0.35384 0.08059 0.0
O50 O 0.452 0.33968 0.06302 0.0
O51 O 0.48566 0.31891 0.16273 0.0
O52 O 0.45587 0.32649 0.12809 0.0
C53 C 0.47642 0.35348 0.0615 0.0
C54 C 0.46042 0.31721 0.15233 0.0
O55 O 0.54367 0.34327 0.12936 0.0
Mg56 Mg 0.98743 0.77243 0.17994 0.0
O57 O 0.9889 0.72699 0.15321 0.0
O58 O 0.95317 0.71694 0.1195 0.0
Mg59 Mg 0.92487 0.75122 0.13 0.0
C60 C 0.9754 0.71088 0.13095 0.0
C61 C 0.05137 0.80077 0.19467 0.0
O62 O 0.04293 0.82313 0.1838 0.0
O63 O 0.99648 0.79786 0.14164 0.0
O64 O 0.95583 0.78785 0.11484 0.0
O65 O 0.96298 0.7505 0.21263 0.0
O66 O 0.94392 0.76561 0.1748 0.0
C67 C 0.98067 0.80189 0.12022 0.0
C68 C 0.94082 0.75419 0.19809 0.0
O69 O 0.03388 0.77714 0.19589 0.0
Mg70 Mg 0.51378 0.77756 0.35935 0.0
O71 O 0.51417 0.82255 0.38866 0.0
O72 O 0.47144 0.81908 0.4018 0.0
Mg73 Mg 0.445 0.7735 0.38514 0.0
C74 C 0.49589 0.8335 0.40196 0.0
C75 C 0.56826 0.7909 0.3312 0.0
O76 O 0.54872 0.7907 0.31067 0.0
O77 O 0.51762 0.75396 0.40005 0.0
O78 O 0.47466 0.75219 0.41183 0.0
O79 O 0.49366 0.79482 0.32068 0.0
O80 O 0.47062 0.77009 0.35048 0.0
C81 C 0.49883 0.7464 0.41625 0.0
C82 C 0.47013 0.78353 0.32835 0.0
O83 O 0.56127 0.78747 0.35612 0.0
Mg84 Mg 0.48398 0.27448 0.67094 0.0
O85 O 0.48226 0.22994 0.6415 0.0
O86 O 0.44553 0.22428 0.60959 0.0
Mg87 Mg 0.42149 0.26207 0.62048 0.0
C88 C 0.46715 0.21559 0.61935 0.0
C89 C 0.54613 0.29425 0.70008 0.0
O90 O 0.53945 0.32095 0.70323 0.0
O91 O 0.49704 0.30091 0.63423 0.0
O92 O 0.45684 0.29477 0.60696 0.0
O93 O 0.45645 0.25342 0.70202 0.0
O94 O 0.44123 0.27214 0.66464 0.0
C95 C 0.48235 0.30637 0.61259 0.0
C96 C 0.43582 0.25987 0.68697 0.0
O97 O 0.52841 0.27202 0.68757 0.0
Mg98 Mg 0.01454 0.27931 0.84818 0.0
O99 O 0.0162 0.32238 0.88041 0.0
O100 O 0.9781 0.3136 0.90268 0.0
Mg101 Mg 0.95142 0.26853 0.88432 0.0
C102 C 1.00069 0.33022 0.89918 0.0
C103 C 0.06559 0.30528 0.81826 0.0
O104 O 0.04532 0.31314 0.80306 0.0
O105 O 0.02513 0.25329 0.88533 0.0
O106 O 0.98492 0.24615 0.90408 0.0
O107 O 0.98997 0.29773 0.8143 0.0
O108 O 0.97145 0.27013 0.84504 0.0
C109 C 0.00985 0.24246 0.9035 0.0
C110 C 0.96805 0.28514 0.82424 0.0
O111 O 0.06021 0.29238 0.84005 0.0
Mg112 Mg 0.41948 0.08662 0.27001 0.0
O113 O 0.38318 0.0472 0.27081 0.0
O114 O 0.36684 0.05723 0.3129 0.0
Mg115 Mg 0.39109 0.10022 0.33866 0.0
C116 C 0.36612 0.04068 0.28902 0.0
C117 C 0.45108 0.07445 0.22077 0.0
O118 O 0.46805 0.08391 0.24412 0.0
O119 O 0.38878 0.11814 0.26105 0.0
O120 O 0.3751 0.12675 0.30476 0.0
O121 O 0.44845 0.0618 0.29176 0.0
O122 O 0.4259 0.09273 0.31505 0.0
C123 C 0.37478 0.13106 0.27862 0.0
C124 C 0.44236 0.07384 0.31593 0.0
O125 O 0.42538 0.07317 0.22253 0.0
Mg126 Mg 0.27212 0.11902 0.48031 0.0
O127 O 0.27546 0.14835 0.52416 0.0
O128 O 0.32002 0.17012 0.53269 0.0
Mg129 Mg 0.34372 0.15674 0.49571 0.0
C130 C 0.29559 0.1655 0.54001 0.0
C131 C 0.21862 0.08155 0.46482 0.0
O132 O 0.23769 0.06599 0.45815 0.0
O133 O 0.27383 0.16064 0.4594 0.0
O134 O 0.31815 0.18234 0.46739 0.0
O135 O 0.2809 0.08099 0.50136 0.0
O136 O 0.31287 0.1155 0.48849 0.0
C137 C 0.29347 0.18167 0.45671 0.0
C138 C 0.30658 0.09247 0.50157 0.0
O139 O 0.22578 0.10904 0.47507 0.0
Mg140 Mg 0.11756 1.00059 0.7798 0.0
O141 O 0.14992 0.04411 0.79054 0.0
O142 O 0.17067 0.0451 0.83431 0.0
Mg143 Mg 0.15264 1.00102 0.85025 0.0
C144 C 0.16731 0.05709 0.81161 0.0
C145 C 0.09551 0.9886 0.71708 0.0
O146 O 0.08254 0.96569 0.72781 0.0
O147 O 0.15014 0.97231 0.77068 0.0
O148 O 0.17012 0.97236 0.81471 0.0
O149 O 0.08662 0.02325 0.8006 0.0
O150 O 0.11349 0.99751 0.82299 0.0
C151 C 0.16764 0.96389 0.7877 0.0
C152 C 0.09452 0.01357 0.82393 0.0
O153 O 0.11268 0.00841 0.73355 0.0
Mg154 Mg 0.22066 0.89889 0.02524 0.0
O155 O 0.21646 0.86658 0.98101 0.0
O156 O 0.25564 0.84846 0.9845 0.0
Mg157 Mg 0.28469 0.86832 0.02492 0.0
C158 C 0.23281 0.85001 0.97062 0.0
C159 C 0.18094 0.9383 0.03555 0.0
O160 O 0.20589 0.9495 0.0479 0.0
O161 O 0.21372 0.86077 0.05524 0.0
O162 O 0.25594 0.84955 0.05634 0.0
O163 O 0.24275 0.93651 0.00393 0.0
O164 O 0.26342 0.906 0.02647 0.0
C165 C 0.23236 0.84742 0.06567 0.0
C166 C 0.26533 0.92808 0.01208 0.0
O167 O 0.1767 0.9114 0.02268 0.0
Mg168 Mg 0.29104 0.43611 0.06487 0.0
O169 O 0.29247 0.40136 0.02582 0.0
O170 O 0.32679 0.37712 0.03585 0.0
Mg171 Mg 0.34627 0.395 0.0812 0.0
C172 C 0.30713 0.38175 0.01882 0.0
C173 C 0.24534 0.46851 0.04079 0.0
O174 O 0.26627 0.49099 0.04533 0.0
O175 O 0.27082 0.39958 0.08886 0.0
O176 O 0.30569 0.37594 0.09844 0.0
O177 O 0.32132 0.46916 0.04777 0.0
O178 O 0.33311 0.438 0.07668 0.0
C179 C 0.28066 0.379 0.09979 0.0
C180 C 0.34055 0.45825 0.06076 0.0
O181 O 0.24902 0.44292 0.04643 0.0
Mg182 Mg 0.80085 0.15644 0.99349 0.0
O183 O 0.80607 0.1891 0.03595 0.0
O184 O 0.84869 0.2151 0.04182 0.0
Mg185 Mg 0.86952 0.1998 0.00185 0.0
C186 C 0.82506 0.20863 0.0507 0.0
C187 C 0.74753 0.13822 0.02127 0.0
O188 O 0.76684 0.13599 0.0412 0.0
O189 O 0.79626 0.19339 0.96478 0.0
O190 O 0.83982 0.21717 0.96929 0.0
O191 O 0.81715 0.12248 0.01675 0.0
O192 O 0.84405 0.15374 0.99485 0.0
C193 C 0.81488 0.21349 0.95793 0.0
C194 C 0.84155 0.13191 0.00999 0.0
O195 O 0.75461 0.14691 0.99798 0.0
Mg196 Mg 0.10101 0.47796 0.2937 0.0
O197 O 0.13001 0.52199 0.2913 0.0
O198 O 0.15646 0.53634 0.33267 0.0
Mg199 Mg 0.14298 0.50136 0.36216 0.0
C200 C 0.14917 0.54029 0.30713 0.0
C201 C 0.06488 0.46978 0.23677 0.0
O202 O 0.04697 0.46571 0.25553 0.0
O203 O 0.13651 0.4522 0.29018 0.0
O204 O 0.16025 0.46562 0.33336 0.0
O205 O 0.06971 0.50265 0.3101 0.0
O206 O 0.10124 0.48844 0.33839 0.0
C207 C 0.15641 0.45032 0.30843 0.0
C208 C 0.08055 0.50205 0.33575 0.0
O209 O 0.09039 0.47357 0.24535 0.0
Mg210 Mg 0.76204 0.93681 0.55946 0.0
O211 O 0.7634 0.90518 0.51856 0.0
O212 O 0.79744 0.87948 0.52439 0.0
Mg213 Mg 0.81715 0.89361 0.57016 0.0
C214 C 0.77736 0.88581 0.50915 0.0
C215 C 0.70282 0.92884 0.52489 0.0
O216 O 0.7047 0.90039 0.52038 0.0
O217 O 0.74072 0.89716 0.57915 0.0
O218 O 0.77601 0.87294 0.58429 0.0
O219 O 0.7929 0.97094 0.54487 0.0
O220 O 0.80358 0.93683 0.57104 0.0
C221 C 0.75087 0.87502 0.58648 0.0
C222 C 0.81147 0.95799 0.55632 0.0
O223 O 0.72182 0.94735 0.54052 0.0
Mg224 Mg 0.86656 0.05651 0.21002 0.0
O225 O 0.83935 0.01431 0.22146 0.0
O226 O 0.8371 0.02016 0.26856 0.0
Mg227 Mg 0.86268 0.06634 0.28734 0.0
C228 C 0.83105 0.00445 0.24394 0.0
C229 C 0.85685 0.04643 0.1393 0.0
O230 O 0.83939 0.03736 0.11626 0.0
O231 O 0.83309 0.08524 0.21665 0.0
O232 O 0.83398 0.09254 0.26423 0.0
O233 O 0.90343 0.03455 0.21906 0.0
O234 O 0.88752 0.06474 0.25083 0.0
C235 C 0.82506 0.09739 0.23946 0.0
C236 C 0.9045 0.04711 0.24526 0.0
O237 O 0.84856 0.04228 0.16346 0.0
Mg238 Mg 0.31264 0.66284 0.48399 0.0
O239 O 0.30709 0.69059 0.52677 0.0
O240 O 0.34361 0.72635 0.5397 0.0
Mg241 Mg 0.3725 0.71973 0.50387 0.0
C242 C 0.31994 0.71295 0.54425 0.0
C243 C 0.25866 0.6297 0.50248 0.0
O244 O 0.27683 0.62629 0.52305 0.0
O245 O 0.30372 0.69968 0.45698 0.0
O246 O 0.34295 0.73255 0.46808 0.0
O247 O 0.33412 0.63186 0.50688 0.0
O248 O 0.35697 0.67037 0.48995 0.0
C249 C 0.31939 0.72391 0.45342 0.0
C250 C 0.35762 0.64683 0.50245 0.0
O251 O 0.2669 0.64361 0.4822 0.0
Mg252 Mg 0.36994 0.56484 0.73517 0.0
O253 O 0.34272 0.52059 0.74479 0.0
O254 O 0.33502 0.53183 0.79035 0.0
Mg255 Mg 0.35626 0.57931 0.80943 0.0
C256 C 0.33208 0.51333 0.76735 0.0
C257 C 0.37672 0.57294 0.67412 0.0
O258 O 0.37671 0.60013 0.68678 0.0
O259 O 0.33316 0.58926 0.73223 0.0
O260 O 0.32932 0.6009 0.77871 0.0
O261 O 0.40727 0.54805 0.74924 0.0
O262 O 0.38598 0.57571 0.77817 0.0
C263 C 0.32237 0.6027 0.75244 0.0
C264 C 0.40527 0.56035 0.77481 0.0
O265 O 0.36855 0.55091 0.68726 0.0
Mg266 Mg 0.60561 0.98289 0.79078 0.0
O267 O 0.63782 0.02648 0.7956 0.0
O268 O 0.66115 0.03125 0.83885 0.0
Mg269 Mg 0.64552 0.99076 0.86074 0.0
C270 C 0.65636 0.04083 0.81506 0.0
C271 C 0.56933 0.98252 0.73619 0.0
O272 O 0.55248 0.97665 0.75561 0.0
O273 O 0.63891 0.95482 0.78261 0.0
O274 O 0.66128 0.95953 0.82637 0.0
O275 O 0.5759 0.00749 0.81185 0.0
O276 O 0.60548 0.9858 0.83528 0.0
C277 C 0.6577 0.94868 0.79988 0.0
C278 C 0.58647 1.00181 0.83602 0.0
O279 O 0.59509 0.9858 0.74333 0.0
Mg280 Mg 0.79754 0.64696 0.96799 0.0
O281 O 0.79064 0.67323 0.00991 0.0
O282 O 0.83085 0.70185 0.02825 0.0
Mg283 Mg 0.86387 0.69166 0.99928 0.0
C284 C 0.80515 0.69274 0.02923 0.0
C285 C 0.74065 0.60897 0.94874 0.0
O286 O 0.75665 0.58882 0.94788 0.0
O287 O 0.80175 0.68922 0.94756 0.0
O288 O 0.84433 0.71372 0.96355 0.0
O289 O 0.80602 0.60953 0.99095 0.0
O290 O 0.83772 0.64766 0.98406 0.0
C291 C 0.82163 0.71099 0.94781 0.0
C292 C 0.8312 0.62376 0.99575 0.0
O293 O 0.75149 0.6364 0.95548 0.0
Mg294 Mg 0.92405 0.59598 0.77697 0.0
O295 O 0.8922 0.55191 0.77457 0.0
O296 O 0.87074 0.55574 0.81424 0.0
Mg297 Mg 0.88735 0.60058 0.84159 0.0
C298 C 0.87436 0.54125 0.79049 0.0
C299 C 0.93206 0.55942 0.71597 0.0
O300 O 0.92248 0.53577 0.72775 0.0
O301 O 0.88898 0.62157 0.76473 0.0
O302 O 0.87003 0.62345 0.80596 0.0
O303 O 0.95553 0.57684 0.80315 0.0
O304 O 0.9257 0.60174 0.8219 0.0
C305 C 0.87103 0.62971 0.78049 0.0
C306 C 0.94508 0.58681 0.82574 0.0
O307 O 0.9336 0.58541 0.72993 0.0
Mg308 Mg 0.73247 0.40847 0.53288 0.0
O309 O 0.73378 0.37763 0.48857 0.0
O310 O 0.77128 0.35765 0.49685 0.0
Mg311 Mg 0.79554 0.37537 0.54057 0.0
C312 C 0.75053 0.36053 0.48024 0.0
C313 C 0.67438 0.42915 0.54053 0.0
O314 O 0.6824 0.42819 0.56747 0.0
O315 O 0.72039 0.36908 0.56086 0.0
O316 O 0.76214 0.3569 0.567 0.0
O317 O 0.76112 0.44787 0.51862 0.0
O318 O 0.7751 0.41368 0.54161 0.0
C319 C 0.73746 0.35511 0.57332 0.0
C320 C 0.7813 0.4376 0.53042 0.0
O321 O 0.6886 0.41938 0.52132 0.0
Mg322 Mg 0.62879 0.48849 0.28312 0.0
O323 O 0.65287 0.53754 0.28952 0.0
O324 O 0.67082 0.54681 0.3352 0.0
Mg325 Mg 0.65748 0.50601 0.35789 0.0
C326 C 0.66736 0.55501 0.31051 0.0
C327 C 0.61138 0.46452 0.21908 0.0
O328 O 0.59976 0.44161 0.23079 0.0
O329 O 0.66876 0.47039 0.28408 0.0
O330 O 0.68336 0.47825 0.33072 0.0
O331 O 0.5899 0.50279 0.29517 0.0
O332 O 0.62147 0.49197 0.32587 0.0
C333 C 0.68564 0.46756 0.30497 0.0
C334 C 0.59831 0.50066 0.32131 0.0
O335 O 0.62578 0.48706 0.23506 0.0
Tb336 Tb 0.02045 0.06503 0.01896 0.0
C337 C 0.02128 0.01566 0.96785 0.0
Tb338 Tb 0.99674 0.99847 0.02415 0.0
O339 O 0.06373 0.05873 0.02462 0.0
O340 O 0.03294 0.02968 0.03865 0.0
O341 O 0.01634 0.04303 0.97508 0.0
C342 C 0.99186 0.94222 0.03587 0.0
O343 O 0.01736 0.99476 0.98503 0.0
C344 C 0.96035 0.03218 0.01109 0.0
C345 C 0.99342 0.04863 0.07498 0.0
O346 O 0.97851 0.9505 0.01424 0.0
O347 O 0.00761 0.9655 0.05057 0.0
O348 O 0.9548 0.00842 0.02365 0.0
O349 O 0.9843 0.03361 0.00346 0.0
O350 O 0.99404 0.01993 0.06709 0.0
O351 O 0.00177 0.07005 0.05928 0.0
C352 C 0.02499 0.12149 0.0074 0.0
O353 O 0.00725 0.10863 0.02279 0.0
O354 O 0.04076 0.10285 0.99945 0.0
C355 C 0.05772 0.03285 0.03346 0.0
Tb356 Tb 0.26807 0.81625 0.26549 0.0
C357 C 0.3127 0.77486 0.26842 0.0
Tb358 Tb 0.24796 0.74901 0.2586 0.0
O359 O 0.28482 0.8172 0.30982 0.0
O360 O 0.2509 0.78486 0.29217 0.0
O361 O 0.30801 0.80209 0.26533 0.0
C362 C 0.2347 0.69238 0.26934 0.0
O363 O 0.29249 0.75125 0.26661 0.0
C364 C 0.24906 0.77297 0.21044 0.0
C365 C 0.20409 0.78962 0.25804 0.0
O366 O 0.25277 0.71334 0.28455 0.0
O367 O 0.22462 0.70305 0.24745 0.0
O368 O 0.23237 0.74868 0.21341 0.0
O369 O 0.26594 0.78015 0.2326 0.0
O370 O 0.21057 0.76535 0.2675 0.0
O371 O 0.22347 0.81165 0.25271 0.0
C372 C 0.28365 0.87325 0.25737 0.0
O373 O 0.27044 0.86441 0.27831 0.0
O374 O 0.28746 0.84995 0.24078 0.0
C375 C 0.26864 0.79294 0.31379 0.0
Tb376 Tb 0.53905 0.03055 0.5149 0.0
C377 C 0.53097 0.01453 0.57679 0.0
Tb378 Tb 0.48282 0.03061 0.53633 0.0
O379 O 0.55554 0.07163 0.54555 0.0
O380 O 0.51508 0.06273 0.52738 0.0
O381 O 0.5461 0.01315 0.55504 0.0
C382 C 0.44047 0.04635 0.56185 0.0
O383 O 0.50636 0.02235 0.57473 0.0
C384 C 0.48631 0.98247 0.50248 0.0
C385 C 0.49118 0.04675 0.47434 0.0
O386 O 0.44084 0.02032 0.54769 0.0
O387 O 0.46442 0.06304 0.56231 0.0
O388 O 0.46361 0.99249 0.50557 0.0
O389 O 0.50528 0.99736 0.52086 0.0
O390 O 0.4771 0.05006 0.49689 0.0
O391 O 0.5151 0.03715 0.47577 0.0
C392 C 0.5824 0.01455 0.49137 0.0
O393 O 0.58083 0.04151 0.50252 0.0
O394 O 0.55911 0.99719 0.49249 0.0
C395 C 0.53197 0.08043 0.54529 0.0
Tb396 Tb 0.26559 0.28493 0.80127 0.0
C397 C 0.27573 0.33675 0.76072 0.0
Tb398 Tb 0.25102 0.26986 0.73756 0.0
O399 O 0.30109 0.26257 0.79962 0.0
O400 O 0.2882 0.28275 0.76507 0.0
O401 O 0.27295 0.32977 0.78701 0.0
C402 C 0.25351 0.24489 0.68432 0.0
O403 O 0.2711 0.31601 0.73788 0.0
C404 C 0.21201 0.28746 0.76619 0.0
C405 C 0.23927 0.218 0.77709 0.0
O406 O 0.23386 0.25843 0.69241 0.0
O407 O 0.27128 0.24549 0.70604 0.0
O408 O 0.21471 0.29149 0.73975 0.0
O409 O 0.22892 0.27162 0.77382 0.0
O410 O 0.24285 0.22527 0.75114 0.0
O411 O 0.24395 0.23863 0.80018 0.0
C412 C 0.26755 0.30844 0.85599 0.0
O413 O 0.28423 0.292 0.84562 0.0
O414 O 0.24964 0.31158 0.83556 0.0
C415 C 0.30455 0.26642 0.77337 0.0
Tb416 Tb 0.99463 0.00722 0.44436 0.0
C417 C 0.9541 0.9935 0.49047 0.0
Tb418 Tb 0.01953 0.00549 0.50571 0.0
O419 O 0.98096 0.95845 0.43943 0.0
O420 O 0.01632 0.97881 0.46578 0.0
O421 O 0.95714 1.00224 0.46502 0.0
C422 C 0.03689 0.99145 0.55628 0.0
O423 O 0.9753 0.99122 0.50879 0.0
C424 C 0.01302 0.05836 0.49407 0.0
C425 C 0.05863 0.02233 0.46044 0.0
O426 O 0.04682 0.0152 0.54553 0.0
O427 O 0.01701 0.97542 0.53855 0.0
O428 O 0.03121 0.05437 0.51376 0.0
O429 O 0.99776 0.03371 0.48478 0.0
O430 O 0.05524 0.00654 0.48202 0.0
O431 O 0.03757 0.02834 0.4445 0.0
C432 C 0.9774 0.0243 0.39503 0.0
O433 O 0.97775 0.03891 0.42032 0.0
O434 O 0.9869 0.99982 0.39737 0.0
C435 C 1.00035 0.95425 0.45789 0.0
Tb436 Tb 0.28404 0.79544 0.76351 0.0
C437 C 0.23781 0.80548 0.80281 0.0
Tb438 Tb 0.22551 0.78908 0.73431 0.0
O439 O 0.28761 0.84263 0.77836 0.0
O440 O 0.26115 0.82314 0.74189 0.0
O441 O 0.26191 0.79666 0.80143 0.0
C442 C 0.17705 0.80011 0.71332 0.0
O443 O 0.22182 0.80763 0.77927 0.0
C444 C 0.24161 0.73877 0.74352 0.0
C445 C 0.27309 0.77721 0.69582 0.0
O446 O 0.18104 0.78695 0.7357 0.0
O447 O 0.20022 0.80671 0.70267 0.0
O448 O 0.22281 0.74001 0.72312 0.0
O449 O 0.24745 0.7638 0.75864 0.0
O450 O 0.24782 0.78351 0.69607 0.0
O451 O 0.28934 0.77791 0.71969 0.0
C452 C 0.33302 0.7881 0.78508 0.0
O453 O 0.32878 0.80782 0.76856 0.0
O454 O 0.30972 0.7723 0.78922 0.0
C455 C 0.26815 0.84664 0.76002 0.0
Tb456 Tb 0.47207 0.03481 0.0079 0.0
C457 C 0.51359 0.98875 0.01262 0.0
Tb458 Tb 0.53367 0.05849 0.02338 0.0
O459 O 0.47423 0.04441 0.96376 0.0
O460 O 0.50808 0.03492 0.98718 0.0
O461 O 0.48793 0.99361 0.01303 0.0
C462 C 0.58542 0.08413 0.01882 0.0
O463 O 0.53485 0.01086 0.01291 0.0
C464 C 0.5049 0.04915 0.06689 0.0
C465 C 0.49185 0.10452 0.01931 0.0
O466 O 0.577 0.07211 0.04076 0.0
O467 O 0.56467 0.08191 0.99964 0.0
O468 O 0.53103 0.04822 0.06742 0.0
O469 O 0.49751 0.05828 0.04408 0.0
O470 O 0.51781 0.10024 0.01957 0.0
O471 O 0.47075 0.08207 0.01835 0.0
C472 C 0.42135 0.00623 0.0119 0.0
O473 O 0.4283 0.02201 0.99174 0.0
O474 O 0.4428 0.00688 0.02969 0.0
C475 C 0.5004 0.04387 0.96436 0.0
Tb476 Tb 0.23669 0.27874 0.2843 0.0
C477 C 0.2829 0.28581 0.33771 0.0
Tb478 Tb 0.29699 0.30208 0.27806 0.0
O479 O 0.23896 0.23402 0.26235 0.0
O480 O 0.27349 0.26151 0.28535 0.0
O481 O 0.25656 0.28477 0.3286 0.0
C482 C 0.34515 0.30353 0.25715 0.0
O483 O 0.30239 0.2885 0.32012 0.0
C484 C 0.26792 0.34337 0.29253 0.0
C485 C 0.2516 0.28969 0.22359 0.0
O486 O 0.34097 0.32095 0.27954 0.0
O487 O 0.32244 0.28578 0.24684 0.0
O488 O 0.29439 0.34717 0.29884 0.0
O489 O 0.26019 0.31918 0.27616 0.0
O490 O 0.27784 0.29324 0.23392 0.0
O491 O 0.23112 0.2875 0.24008 0.0
C492 C 0.18848 0.27858 0.30528 0.0
O493 O 0.19646 0.25514 0.29269 0.0
O494 O 0.20729 0.30198 0.30527 0.0
C495 C 0.26553 0.2376 0.26852 0.0
Tb496 Tb 0.52349 0.53719 0.96219 0.0
C497 C 0.48664 0.5216 0.01115 0.0
Tb498 Tb 0.55203 0.52803 0.01938 0.0
O499 O 0.50455 0.48976 0.95422 0.0
O500 O 0.54273 0.50374 0.97801 0.0
O501 O 0.48855 0.53335 0.98695 0.0
C502 C 0.57411 0.51224 0.06725 0.0
O503 O 0.5084 0.51594 0.0266 0.0
C504 C 0.55014 0.58345 0.01198 0.0
C505 C 0.58757 0.5412 0.97005 0.0
O506 O 0.55457 0.49537 0.04963 0.0
O507 O 0.58081 0.53763 0.05795 0.0
O508 O 0.56998 0.57608 0.02737 0.0
O509 O 0.53189 0.56085 0.00389 0.0
O510 O 0.58397 0.52466 0.99107 0.0
O511 O 0.56722 0.5525 0.958 0.0
C512 C 0.50196 0.55681 0.9163 0.0
O513 O 0.51245 0.53267 0.91615 0.0
O514 O 0.50432 0.57042 0.9423 0.0
C515 C 0.524 0.48148 0.96965 0.0
Tb516 Tb 0.79342 0.2954 0.26655 0.0
C517 C 0.75216 0.30985 0.31109 0.0
Tb518 Tb 0.73286 0.28852 0.2443 0.0
O519 O 0.7964 0.34361 0.27828 0.0
O520 O 0.7689 0.32038 0.24417 0.0
O521 O 0.77594 0.30085 0.30747 0.0
C522 C 0.68434 0.30096 0.22678 0.0
O523 O 0.73372 0.31009 0.289 0.0
C524 C 0.74937 0.2386 0.25295 0.0
C525 C 0.77421 0.27199 0.20017 0.0
O526 O 0.68844 0.2845 0.24668 0.0
O527 O 0.70732 0.30985 0.21665 0.0
O528 O 0.72876 0.2396 0.23447 0.0
O529 O 0.75714 0.26407 0.26733 0.0
O530 O 0.74959 0.27893 0.20362 0.0
O531 O 0.7937 0.27483 0.22195 0.0
C532 C 0.84359 0.28825 0.28446 0.0
O533 O 0.83814 0.30887 0.26951 0.0
O534 O 0.82088 0.27156 0.28887 0.0
C535 C 0.77643 0.34546 0.25946 0.0
Tb536 Tb 0.98857 0.53892 0.52679 0.0
C537 C 0.02362 0.48791 0.52511 0.0
Tb538 Tb 0.0518 0.55655 0.54017 0.0
O539 O 0.99197 0.52223 0.48199 0.0
O540 O 0.02252 0.55523 0.50513 0.0
O541 O 0.99913 0.49495 0.52874 0.0
C542 C 0.10562 0.56928 0.53553 0.0
O543 O 0.04636 0.50832 0.52634 0.0
C544 C 0.02396 0.55876 0.58493 0.0
C545 C 0.01662 0.6074 0.54254 0.0
O546 O 0.09456 0.55467 0.55486 0.0
O547 O 0.08642 0.57664 0.51905 0.0
O548 O 0.04825 0.57457 0.58429 0.0
O549 O 0.01794 0.54026 0.56229 0.0
O550 O 0.04106 0.6004 0.53854 0.0
O551 O 0.99393 0.58691 0.54154 0.0
C552 C 0.93407 0.52615 0.52762 0.0
O553 O 0.94663 0.54144 0.50963 0.0
O554 O 0.95224 0.51865 0.54534 0.0
C555 C 0.01657 0.53748 0.48214 0.0
Tb556 Tb 0.76065 0.78066 0.29848 0.0
C557 C 0.76859 0.83523 0.26347 0.0
Tb558 Tb 0.74901 0.7681 0.23187 0.0
O559 O 0.80505 0.79159 0.29429 0.0
O560 O 0.77898 0.76113 0.26353 0.0
O561 O 0.76405 0.82604 0.28843 0.0
C562 C 0.76324 0.75864 0.17912 0.0
O563 O 0.76634 0.81639 0.23929 0.0
C564 C 0.70559 0.78309 0.25482 0.0
C565 C 0.73311 0.71513 0.26864 0.0
O566 O 0.77738 0.77712 0.20011 0.0
O567 O 0.74058 0.74539 0.18766 0.0
O568 O 0.7068 0.77741 0.22733 0.0
O569 O 0.72857 0.78069 0.26688 0.0
O570 O 0.73863 0.72259 0.24305 0.0
O571 O 0.73807 0.7347 0.29249 0.0
C572 C 0.75917 0.79132 0.35466 0.0
O573 O 0.77391 0.77382 0.34202 0.0
O574 O 0.74494 0.80218 0.3356 0.0
C575 C 0.80331 0.77521 0.26964 0.0
Tb576 Tb 0.76595 0.31987 0.77744 0.0
C577 C 0.80846 0.27685 0.77502 0.0
Tb578 Tb 0.74352 0.25323 0.76445 0.0
O579 O 0.78371 0.31557 0.8201 0.0
O580 O 0.7484 0.28586 0.80143 0.0
O581 O 0.80445 0.30429 0.77209 0.0
C582 C 0.72713 0.19546 0.76941 0.0
O583 O 0.78774 0.25398 0.77437 0.0
C584 C 0.74447 0.28217 0.71937 0.0
C585 C 0.70131 0.29654 0.76416 0.0
O586 O 0.73508 0.20547 0.74635 0.0
O587 O 0.72864 0.21784 0.78933 0.0
O588 O 0.72691 0.25801 0.72093 0.0
O589 O 0.76195 0.28693 0.74118 0.0
O590 O 0.705 0.26924 0.76813 0.0
O591 O 0.72224 0.31907 0.76461 0.0
C592 C 0.78206 0.37878 0.77813 0.0
O593 O 0.76698 0.36629 0.79608 0.0
O594 O 0.78769 0.35808 0.7595 0.0
C595 C 0.76685 0.2913 0.8226 0.0
Tb596 Tb 0.72466 0.77098 0.76443 0.0
C597 C 0.77236 0.78137 0.81451 0.0
Tb598 Tb 0.78485 0.78974 0.75292 0.0
O599 O 0.73169 0.72811 0.77656 0.0
O600 O 0.75622 0.7491 0.74878 0.0
O601 O 0.74701 0.78512 0.80678 0.0
C602 C 0.83336 0.79931 0.73195 0.0
O603 O 0.79052 0.7785 0.79584 0.0
C604 C 0.75948 0.83298 0.77243 0.0
C605 C 0.73671 0.77527 0.70144 0.0
O606 O 0.82592 0.77877 0.74793 0.0
O607 O 0.81367 0.8142 0.72812 0.0
O608 O 0.78558 0.83367 0.77839 0.0
O609 O 0.74967 0.80992 0.75525 0.0
O610 O 0.7633 0.77696 0.70982 0.0
O611 O 0.71756 0.7751 0.71942 0.0
C612 C 0.67465 0.77204 0.78011 0.0
O613 O 0.68071 0.75207 0.76077 0.0
O614 O 0.69655 0.79172 0.78972 0.0
C615 C 0.75353 0.72772 0.76335 0.0
Tb616 Tb 0.52344 0.56768 0.52045 0.0
C617 C 0.52868 0.52501 0.46577 0.0
Tb618 Tb 0.50209 0.50043 0.51838 0.0
O619 O 0.56611 0.55906 0.524 0.0
O620 O 0.53539 0.53186 0.54032 0.0
O621 O 0.52372 0.55173 0.47542 0.0
C622 C 0.50083 0.44301 0.52492 0.0
O623 O 0.52441 0.50198 0.48039 0.0
C624 C 0.46374 0.53194 0.50651 0.0
C625 C 0.49146 0.54436 0.57117 0.0
O626 O 0.484 0.45262 0.50717 0.0
O627 O 0.51831 0.46566 0.53838 0.0
O628 O 0.45927 0.50604 0.51571 0.0
O629 O 0.48845 0.53678 0.5003 0.0
O630 O 0.49343 0.51649 0.56117 0.0
O631 O 0.50149 0.568 0.55883 0.0
C632 C 0.53101 0.62619 0.51497 0.0
O633 O 0.54993 0.60988 0.51525 0.0
O634 O 0.50809 0.60978 0.51929 0.0
C635 C 0.56017 0.53476 0.53542 0.0
Tb636 Tb 0.05249 0.53262 0.01909 0.0
C637 C 0.03818 0.51223 0.0794 0.0
Tb638 Tb 0.9945 0.52484 0.03352 0.0
O639 O 0.05317 0.5813 0.02149 0.0
O640 O 0.03056 0.55592 0.04793 0.0
O641 O 0.05608 0.51514 0.0601 0.0
C642 C 0.94574 0.53808 0.04418 0.0
O643 O 0.0129 0.51781 0.07484 0.0
C644 C 0.00927 0.4748 0.01353 0.0
C645 C 0.00907 0.54135 0.97173 0.0
O646 O 0.9497 0.51239 0.03204 0.0
O647 O 0.96925 0.55595 0.05053 0.0
O648 O 0.99152 0.47691 0.03209 0.0
O649 O 0.01626 0.50004 0.00524 0.0
O650 O 0.99198 0.54238 0.99197 0.0
O651 O 0.0335 0.53379 0.97652 0.0
C652 C 0.10318 0.52298 0.01121 0.0
O653 O 0.09616 0.54909 0.01557 0.0
O654 O 0.08158 0.50247 0.01079 0.0
C655 C 0.0361 0.58162 0.04085 0.0
H656 H 0.98814 0.22768 0.95163 0.0
H657 H 0.05477 0.21461 0.90112 0.0
H658 H 0.06738 0.17807 0.93119 0.0
H659 H 0.05622 0.146 0.96864 0.0
H660 H 0.9886 0.1586 0.01777 0.0
H661 H 0.97977 0.19937 0.99155 0.0
C662 C 0.00561 0.21708 0.94727 0.0
C663 C 0.02024 0.2236 0.92383 0.0
C664 C 0.01249 0.19591 0.96438 0.0
C665 C 0.04308 0.20997 0.91891 0.0
C666 C 0.05022 0.18897 0.93604 0.0
C667 C 0.03991 0.15811 0.97396 0.0
C668 C 0.02302 0.1493 0.99506 0.0
C669 C 0.03463 0.18121 0.95838 0.0
C670 C 0.00191 0.16503 0.00168 0.0
C671 C 0.99675 0.18822 0.98658 0.0
H672 H 0.07466 0.76533 0.22851 0.0
H673 H 0.09478 0.84249 0.18499 0.0
H674 H 0.14339 0.84713 0.20187 0.0
H675 H 0.18074 0.82835 0.22788 0.0
H676 H 0.16012 0.75162 0.27199 0.0
H677 H 0.11156 0.7481 0.25632 0.0
C678 C 0.08966 0.78316 0.2227 0.0
C679 C 0.08095 0.80338 0.20533 0.0
C680 C 0.11769 0.78595 0.23275 0.0
C681 C 0.10077 0.82653 0.1983 0.0
C682 C 0.12867 0.82925 0.20797 0.0
C683 C 0.16561 0.81114 0.23442 0.0
C684 C 0.17432 0.79032 0.25114 0.0
C685 C 0.13744 0.80903 0.22515 0.0
C686 C 0.15425 0.768 0.25912 0.0
C687 C 0.12634 0.76585 0.25008 0.0
H688 H 0.46488 0.87588 0.40214 0.0
H689 H 0.54132 0.85822 0.44006 0.0
H690 H 0.54669 0.9043 0.47435 0.0
H691 H 0.52618 0.94674 0.49686 0.0
H692 H 0.45014 0.96342 0.4562 0.0
H693 H 0.44799 0.92067 0.41997 0.0
C694 C 0.48297 0.88242 0.41761 0.0
C695 C 0.50255 0.86371 0.41878 0.0
C696 C 0.48575 0.9086 0.4371 0.0
C697 C 0.52603 0.87244 0.43871 0.0
C698 C 0.52893 0.89862 0.45847 0.0
C699 C 0.50957 0.94136 0.47967 0.0
C700 C 0.48823 0.95816 0.47945 0.0
C701 C 0.50846 0.9165 0.4584 0.0
C702 C 0.46664 0.95067 0.4572 0.0
C703 C 0.46537 0.92623 0.43633 0.0
H704 H 0.41793 0.2386 0.73518 0.0
H705 H 0.39068 0.2766 0.6612 0.0
H706 H 0.34745 0.28122 0.68073 0.0
H707 H 0.31911 0.27928 0.72108 0.0
H708 H 0.34509 0.23918 0.79407 0.0
H709 H 0.38705 0.23122 0.77302 0.0
C710 C 0.40235 0.2474 0.72308 0.0
C711 C 0.40782 0.2574 0.6968 0.0
C712 C 0.37739 0.25024 0.73456 0.0
C713 C 0.38724 0.26872 0.68148 0.0
C714 C 0.36247 0.2716 0.69274 0.0
C715 C 0.33364 0.26821 0.73209 0.0
C716 C 0.32889 0.25986 0.75913 0.0
C717 C 0.35759 0.26317 0.7196 0.0
C718 C 0.34823 0.24596 0.77327 0.0
C719 C 0.37227 0.24134 0.76123 0.0
H720 H 0.96631 0.85808 0.53787 0.0
H721 H 0.05096 0.88831 0.57326 0.0
H722 H 0.0588 0.91895 0.5348 0.0
H723 H 0.04026 0.94081 0.49389 0.0
H724 H 0.95508 0.91201 0.46034 0.0
H725 H 0.94893 0.87659 0.49499 0.0
C726 C 0.98659 0.87116 0.53714 0.0
C727 C 0.00793 0.87113 0.5587 0.0
C728 C 0.99084 0.88891 0.51522 0.0
C729 C 0.03414 0.88791 0.55704 0.0
C730 C 0.03863 0.90547 0.53505 0.0
C731 C 0.02051 0.92634 0.4939 0.0
C732 C 0.99806 0.92918 0.4749 0.0
C733 C 0.01696 0.90663 0.5144 0.0
C734 C 0.97262 0.91026 0.47484 0.0
C735 C 0.96905 0.89019 0.49479 0.0
H736 H 0.45412 0.80026 0.84146 0.0
H737 H 0.4125 0.73973 0.89386 0.0
H738 H 0.36863 0.73943 0.86654 0.0
H739 H 0.34216 0.75603 0.82764 0.0
H740 H 0.38328 0.8172 0.77567 0.0
H741 H 0.42753 0.81719 0.80268 0.0
C742 C 0.43542 0.78715 0.847 0.0
C743 C 0.43651 0.77023 0.86974 0.0
C744 C 0.41031 0.7869 0.83109 0.0
C745 C 0.41217 0.75324 0.87664 0.0
C746 C 0.38709 0.75286 0.86091 0.0
C747 C 0.36087 0.76917 0.82214 0.0
C748 C 0.35972 0.78648 0.79978 0.0
C749 C 0.38597 0.76948 0.83804 0.0
C750 C 0.38389 0.80363 0.79286 0.0
C751 C 0.40909 0.80373 0.80832 0.0
H752 H 0.44493 0.22217 0.04979 0.0
H753 H 0.52785 0.25266 0.09047 0.0
H754 H 0.54046 0.20543 0.07142 0.0
H755 H 0.52719 0.15426 0.04568 0.0
H756 H 0.4438 0.12345 0.0067 0.0
H757 H 0.4323 0.17222 0.02227 0.0
C758 C 0.46582 0.21862 0.05445 0.0
C759 C 0.48531 0.24094 0.07176 0.0
C760 C 0.4729 0.19135 0.04362 0.0
C761 C 0.51232 0.23586 0.07737 0.0
C762 C 0.5196 0.20885 0.06644 0.0
C763 C 0.50665 0.15841 0.04014 0.0
C764 C 0.48637 0.13528 0.02508 0.0
C765 C 0.49997 0.1863 0.04981 0.0
C766 C 0.45975 0.14088 0.01837 0.0
C767 C 0.45313 0.16872 0.02735 0.0
H768 H 0.09029 0.25602 0.3803 0.0
H769 H 0.10373 0.35256 0.39121 0.0
H770 H 0.1415 0.35345 0.36082 0.0
H771 H 0.1699 0.32648 0.33041 0.0
H772 H 0.15415 0.22987 0.31747 0.0
H773 H 0.11753 0.22923 0.34907 0.0
C774 C 0.10176 0.2773 0.37642 0.0
C775 C 0.0946 0.30424 0.38833 0.0
C776 C 0.1226 0.27755 0.35817 0.0
C777 C 0.10913 0.33159 0.38249 0.0
C778 C 0.13055 0.33207 0.365 0.0
C779 C 0.15826 0.30532 0.33438 0.0
C780 C 0.16456 0.27824 0.32169 0.0
C781 C 0.13725 0.30516 0.3525 0.0
C782 C 0.14945 0.25095 0.32689 0.0
C783 C 0.1287 0.25059 0.3451 0.0
H784 H 0.90389 0.02883 0.15793 0.0
H785 H 0.87279 0.09293 0.11074 0.0
H786 H 0.91702 0.10532 0.09172 0.0
H787 H 0.95998 0.08947 0.08006 0.0
H788 H 0.98891 0.02085 0.12264 0.0
H789 H 0.95075 0.01911 0.1523 0.0
C790 C 0.9073 0.04638 0.14446 0.0
C791 C 0.88532 0.06012 0.13585 0.0
C792 C 0.93233 0.05211 0.13227 0.0
C793 C 0.88959 0.08226 0.11777 0.0
C794 C 0.91479 0.08914 0.10669 0.0
C795 C 0.95861 0.07508 0.09668 0.0
C796 C 0.97717 0.05522 0.09906 0.0
C797 C 0.93575 0.07301 0.11253 0.0
C798 C 0.97482 0.03631 0.12036 0.0
C799 C 0.95284 0.0351 0.13715 0.0
H800 H 0.27378 0.71067 0.41291 0.0
H801 H 0.3475 0.77653 0.44063 0.0
H802 H 0.33801 0.80314 0.40058 0.0
H803 H 0.31014 0.80722 0.3566 0.0
H804 H 0.2356 0.74324 0.32862 0.0
H805 H 0.24416 0.71641 0.36943 0.0
C806 C 0.28764 0.73101 0.4104 0.0
C807 C 0.31146 0.74135 0.43009 0.0
C808 C 0.28208 0.74646 0.38697 0.0
C809 C 0.32907 0.7678 0.42612 0.0
C810 C 0.3237 0.78311 0.40305 0.0
C811 C 0.29562 0.78748 0.35945 0.0
C812 C 0.27247 0.777 0.33918 0.0
C813 C 0.30048 0.77253 0.38319 0.0
C814 C 0.25386 0.75149 0.34348 0.0
C815 C 0.2587 0.73625 0.36698 0.0
H816 H 0.59685 0.98961 0.68895 0.0
H817 H 0.5164 0.9854 0.71856 0.0
H818 H 0.49748 0.99452 0.67208 0.0
H819 H 0.50368 0.00478 0.62331 0.0
H820 H 0.58367 0.008 0.59283 0.0
H821 H 0.60267 0.99807 0.63916 0.0
C822 C 0.57518 0.9906 0.68518 0.0
C823 C 0.55815 0.98692 0.70731 0.0
C824 C 0.56426 0.99571 0.6582 0.0
C825 C 0.53005 0.98812 0.70198 0.0
C826 C 0.51915 0.9934 0.67537 0.0
C827 C 0.52526 1.00327 0.62673 0.0
C828 C 0.54217 0.00726 0.60458 0.0
C829 C 0.53607 0.9974 0.65338 0.0
C830 C 0.57008 0.00498 0.60943 0.0
C831 C 0.58103 0.99937 0.63598 0.0
H832 H 0.26711 0.38416 0.97629 0.0
H833 H 0.3354 0.34 0.9959 0.0
H834 H 0.32844 0.31281 0.94769 0.0
H835 H 0.30419 0.30271 0.8994 0.0
H836 H 0.23606 0.34652 0.87923 0.0
H837 H 0.24167 0.37258 0.92824 0.0
C838 C 0.28042 0.36851 0.97009 0.0
C839 C 0.30184 0.36433 0.98978 0.0
C840 C 0.27638 0.35289 0.9422 0.0
C841 C 0.31878 0.34381 0.98129 0.0
C842 C 0.31486 0.32821 0.95366 0.0
C843 C 0.29049 0.31785 0.90581 0.0
C844 C 0.26983 0.32283 0.88584 0.0
C845 C 0.29391 0.33276 0.93389 0.0
C846 C 0.25215 0.3424 0.89433 0.0
C847 C 0.25538 0.35732 0.9223 0.0
H848 H 0.91848 0.07921 0.2973 0.0
H849 H 0.93024 0.99836 0.24668 0.0
H850 H 0.95535 0.98453 0.28849 0.0
H851 H 0.9712 0.99423 0.34058 0.0
H852 H 0.95818 0.07532 0.39003 0.0
H853 H 0.93624 0.09022 0.34751 0.0
C854 C 0.9266 0.05856 0.29531 0.0
C855 C 0.92223 0.03965 0.26904 0.0
C856 C 0.94065 0.05076 0.31931 0.0
C857 C 0.93331 0.01328 0.26671 0.0
C858 C 0.94753 0.00532 0.29064 0.0
C859 C 0.96374 0.01524 0.34188 0.0
C860 C 0.96612 0.03358 0.36841 0.0
C861 C 0.95092 0.02367 0.31721 0.0
C862 C 0.95646 0.06078 0.36988 0.0
C863 C 0.9439 0.06932 0.34559 0.0
H864 H 0.344 0.75064 0.59291 0.0
H865 H 0.26588 0.69888 0.55444 0.0
H866 H 0.24398 0.7154 0.59639 0.0
H867 H 0.24695 0.74384 0.64523 0.0
H868 H 0.3259 0.7926 0.68447 0.0
H869 H 0.34711 0.77831 0.64145 0.0
C870 C 0.32215 0.74303 0.59358 0.0
C871 C 0.30677 0.72351 0.57021 0.0
C872 C 0.30963 0.75222 0.61818 0.0
C873 C 0.27845 0.71381 0.57191 0.0
C874 C 0.2658 0.72333 0.596 0.0
C875 C 0.26871 0.75159 0.6442 0.0
C876 C 0.28469 0.76954 0.66817 0.0
C877 C 0.28114 0.74249 0.6194 0.0
C878 C 0.31302 0.77883 0.66649 0.0
C879 C 0.32524 0.77062 0.64181 0.0
H880 H 0.5434 0.03065 0.84297 0.0
H881 H 0.60621 0.99607 0.89036 0.0
H882 H 0.58653 0.00888 0.93472 0.0
H883 H 0.54935 0.02604 0.95945 0.0
H884 H 0.48502 0.05802 0.9119 0.0
H885 H 0.50754 0.05032 0.8682 0.0
C886 C 0.55301 0.02624 0.86303 0.0
C887 C 0.57627 0.01238 0.86327 0.0
C888 C 0.54119 0.03304 0.88841 0.0
C889 C 0.58837 0.00675 0.88948 0.0
C890 C 0.57705 0.01398 0.9149 0.0
C891 C 0.54044 0.03167 0.9396 0.0
C892 C 0.51549 0.04242 0.9388 0.0
C893 C 0.55316 0.02657 0.91452 0.0
C894 C 0.50416 0.0496 0.91296 0.0
C895 C 0.51699 0.04513 0.88799 0.0
H896 H 0.28427 0.32241 0.10828 0.0
H897 H 0.23937 0.39318 0.1307 0.0
H898 H 0.21992 0.36676 0.16837 0.0
H899 H 0.22406 0.32913 0.2011 0.0
H900 H 0.27102 0.26013 0.17942 0.0
H901 H 0.2805 0.27951 0.13481 0.0
C902 C 0.2697 0.33167 0.12098 0.0
C903 C 0.26377 0.35997 0.11725 0.0
C904 C 0.25897 0.3166 0.14279 0.0
C905 C 0.24445 0.37151 0.13338 0.0
C906 C 0.23342 0.35647 0.15502 0.0
C907 C 0.23516 0.31756 0.18586 0.0
C908 C 0.2469 0.29335 0.19335 0.0
C909 C 0.24161 0.32973 0.16082 0.0
C910 C 0.26174 0.27876 0.17386 0.0
C911 C 0.26747 0.29007 0.14856 0.0
H912 H 0.12367 0.92425 0.02408 0.0
H913 H 0.19145 0.99859 0.04711 0.0
H914 H 0.15988 0.03355 0.04883 0.0
H915 H 0.11308 0.04406 0.04403 0.0
H916 H 0.04475 0.97118 0.02078 0.0
H917 H 0.07585 0.93519 0.01944 0.0
C918 C 0.13147 0.94807 0.02941 0.0
C919 C 0.1601 0.95848 0.03552 0.0
C920 C 0.11294 0.96859 0.03076 0.0
C921 C 0.16966 0.98959 0.04248 0.0
C922 C 0.15157 0.00984 0.04347 0.0
C923 C 0.10496 0.02026 0.03892 0.0
C924 C 0.07636 0.0104 0.0336 0.0
C925 C 0.12318 0.99969 0.03777 0.0
C926 C 0.06636 0.97948 0.02652 0.0
C927 C 0.08434 0.95881 0.02518 0.0
H928 H 0.71222 0.55366 0.9514 0.0
H929 H 0.70142 0.64348 0.94094 0.0
H930 H 0.65184 0.62914 0.94287 0.0
H931 H 0.61241 0.59235 0.95262 0.0
H932 H 0.62466 0.50417 0.96746 0.0
H933 H 0.67278 0.51642 0.95843 0.0
C934 C 0.69899 0.57 0.94907 0.0
C935 C 0.71046 0.5996 0.94617 0.0
C936 C 0.67077 0.56189 0.95116 0.0
C937 C 0.69306 0.62056 0.94336 0.0
C938 C 0.66473 0.6124 0.9445 0.0
C939 C 0.62556 0.57571 0.95326 0.0
C940 C 0.6152 0.54745 0.96063 0.0
C941 C 0.65347 0.58331 0.94912 0.0
C942 C 0.63237 0.52612 0.96191 0.0
C943 C 0.65984 0.53312 0.9568 0.0
H944 H 0.69231 0.43403 0.2551 0.0
H945 H 0.72698 0.45896 0.3432 0.0
H946 H 0.75907 0.42454 0.33623 0.0
H947 H 0.77549 0.38524 0.30613 0.0
H948 H 0.74107 0.35975 0.2183 0.0
H949 H 0.71053 0.39644 0.22416 0.0
C950 C 0.70711 0.43227 0.27271 0.0
C951 C 0.70709 0.4491 0.29968 0.0
C952 C 0.72536 0.41212 0.26868 0.0
C953 C 0.72641 0.44632 0.32222 0.0
C954 C 0.74478 0.42658 0.31829 0.0
C955 C 0.76155 0.38801 0.28817 0.0
C956 C 0.76007 0.36953 0.26195 0.0
C957 C 0.74418 0.40909 0.29176 0.0
C958 C 0.74194 0.37325 0.23888 0.0
C959 C 0.72468 0.39435 0.24219 0.0
H960 H 0.80519 0.48224 0.50114 0.0
H961 H 0.82306 0.42695 0.56551 0.0
H962 H 0.87104 0.45068 0.57132 0.0
H963 H 0.90843 0.48617 0.55802 0.0
H964 H 0.89294 0.54072 0.49261 0.0
H965 H 0.84372 0.5187 0.48759 0.0
C966 C 0.81966 0.47543 0.51634 0.0
C967 C 0.81048 0.45255 0.53255 0.0
C968 C 0.84768 0.48918 0.51959 0.0
C969 C 0.82949 0.44407 0.5523 0.0
C970 C 0.85702 0.45778 0.55587 0.0
C971 C 0.89426 0.49344 0.54282 0.0
C972 C 0.90417 0.51505 0.52581 0.0
C973 C 0.86636 0.48023 0.53961 0.0
C974 C 0.88566 0.52412 0.50603 0.0
C975 C 0.85757 0.51145 0.50309 0.0
H976 H 0.32179 0.12328 0.25462 0.0
H977 H 0.39334 0.19036 0.28617 0.0
H978 H 0.36586 0.22983 0.28435 0.0
H979 H 0.32067 0.24438 0.27971 0.0
H980 H 0.24875 0.17839 0.24652 0.0
H981 H 0.27698 0.13919 0.24332 0.0
C982 C 0.3314 0.14664 0.26014 0.0
C983 C 0.35956 0.1541 0.27011 0.0
C984 C 0.3153 0.16922 0.25939 0.0
C985 C 0.37179 0.18429 0.27796 0.0
C986 C 0.35603 0.20678 0.27722 0.0
C987 C 0.31124 0.22159 0.27104 0.0
C988 C 0.28266 0.21431 0.26336 0.0
C989 C 0.32764 0.19941 0.26884 0.0
C990 C 0.27072 0.18455 0.25259 0.0
C991 C 0.28687 0.16214 0.25079 0.0
H992 H 0.35317 0.12212 0.5339 0.0
H993 H 0.30559 0.03403 0.50476 0.0
H994 H 0.34118 0.01121 0.52752 0.0
H995 H 0.38843 0.01636 0.54922 0.0
H996 H 0.43611 0.10406 0.57927 0.0
H997 H 0.39745 0.12721 0.56376 0.0
C998 C 0.3507 0.09798 0.53268 0.0
C999 C 0.32743 0.07962 0.51704 0.0
C1000 C 0.37103 0.08506 0.54621 0.0
C1001 C 0.32372 0.04844 0.51636 0.0
C1002 C 0.34394 0.03541 0.52944 0.0
C1003 C 0.39 0.04048 0.55327 0.0
C1004 C 0.41521 0.05866 0.56429 0.0
C1005 C 0.36802 0.05348 0.54366 0.0
C1006 C 0.41697 0.0898 0.57004 0.0
C1007 C 0.39499 0.103 0.56094 0.0
H1008 H 0.67427 0.57906 0.26038 0.0
H1009 H 0.69022 0.60091 0.35222 0.0
H1010 H 0.7119 0.65154 0.34722 0.0
H1011 H 0.72628 0.68994 0.31733 0.0
H1012 H 0.71169 0.66909 0.22543 0.0
H1013 H 0.68979 0.61795 0.23 0.0
C1014 C 0.68244 0.59491 0.2793 0.0
C1015 C 0.68046 0.58595 0.30666 0.0
C1016 C 0.69526 0.62427 0.27632 0.0
C1017 C 0.69141 0.6069 0.33087 0.0
C1018 C 0.70385 0.636 0.32807 0.0
C1019 C 0.71836 0.67431 0.29819 0.0
C1020 C 0.72064 0.68358 0.27106 0.0
C1021 C 0.70589 0.64495 0.30096 0.0
C1022 C 0.71034 0.66271 0.24662 0.0
C1023 C 0.69771 0.63341 0.24922 0.0
H1024 H 0.83075 0.51524 0.81537 0.0
H1025 H 0.88016 0.49858 0.74631 0.0
H1026 H 0.85446 0.44731 0.73493 0.0
H1027 H 0.81984 0.40616 0.74674 0.0
H1028 H 0.77147 0.42327 0.81651 0.0
H1029 H 0.79478 0.47552 0.82532 0.0
C1030 C 0.83592 0.50052 0.79772 0.0
C1031 C 0.85763 0.51079 0.78193 0.0
C1032 C 0.82122 0.47109 0.79144 0.0
C1033 C 0.86368 0.49135 0.75892 0.0
C1034 C 0.849 0.46197 0.75243 0.0
C1035 C 0.81421 0.42148 0.76363 0.0
C1036 C 0.79407 0.41093 0.78105 0.0
C1037 C 0.828 0.45145 0.76883 0.0
C1038 C 0.78696 0.4309 0.80288 0.0
C1039 C 0.80033 0.46074 0.80797 0.0
H1040 H 0.9541 0.8149 0.0718 0.0
H1041 H 0.028 0.84413 0.13031 0.0
H1042 H 0.039 0.88911 0.10752 0.0
H1043 H 0.02504 0.92271 0.0746 0.0
H1044 H 0.95118 0.894 0.01631 0.0
H1045 H 0.94279 0.84612 0.03533 0.0
C1046 C 0.97284 0.83086 0.07937 0.0
C1047 C 0.98996 0.82622 0.10311 0.0
C1048 C 0.97888 0.85693 0.06639 0.0
C1049 C 0.01432 0.84706 0.11227 0.0
C1050 C 0.02057 0.87293 0.09932 0.0
C1051 C 0.00727 0.9058 0.06585 0.0
C1052 C 0.98852 0.91191 0.04437 0.0
C1053 C 0.00258 0.87851 0.07698 0.0
C1054 C 0.9658 0.88977 0.03293 0.0
C1055 C 0.96098 0.86248 0.04388 0.0
H1056 H 0.92037 0.24733 0.82714 0.0
H1057 H 0.9531 0.32841 0.79424 0.0
H1058 H 0.90668 0.33239 0.7749 0.0
H1059 H 0.85659 0.31338 0.76849 0.0
H1060 H 0.82455 0.23094 0.79976 0.0
H1061 H 0.87092 0.22672 0.81816 0.0
C1062 C 0.91733 0.26593 0.81581 0.0
C1063 C 0.94008 0.28776 0.81243 0.0
C1064 C 0.89072 0.26767 0.80422 0.0
C1065 C 0.9359 0.31141 0.79723 0.0
C1066 C 0.90937 0.31366 0.78615 0.0
C1067 C 0.85977 0.29431 0.77906 0.0
C1068 C 0.83702 0.27249 0.78267 0.0
C1069 C 0.8866 0.29196 0.7896 0.0
C1070 C 0.84161 0.24792 0.79637 0.0
C1071 C 0.86814 0.2456 0.80714 0.0
H1072 H 0.51253 0.19016 0.63168 0.0
H1073 H 0.44187 0.18238 0.56956 0.0
H1074 H 0.45694 0.14177 0.54075 0.0
H1075 H 0.48937 0.10775 0.53315 0.0
H1076 H 0.5596 0.11345 0.5948 0.0
H1077 H 0.54569 0.15572 0.62364 0.0
C1078 C 0.5003 0.17945 0.61196 0.0
C1079 C 0.47594 0.18945 0.60303 0.0
C1080 C 0.50905 0.15575 0.59531 0.0
C1081 C 0.46058 0.1753 0.57721 0.0
C1082 C 0.46927 0.15208 0.56054 0.0
C1083 C 0.50165 0.11821 0.55294 0.0
C1084 C 0.5253 0.10731 0.56204 0.0
C1085 C 0.49332 0.14204 0.56943 0.0
C1086 C 0.54127 0.12142 0.58741 0.0
C1087 C 0.53321 0.14545 0.60394 0.0
H1088 H 0.58817 0.8051 0.28224 0.0
H1089 H 0.61364 0.77979 0.36363 0.0
H1090 H 0.65951 0.77723 0.34842 0.0
H1091 H 0.6914 0.77845 0.30987 0.0
H1092 H 0.66353 0.80269 0.22867 0.0
H1093 H 0.61988 0.8094 0.24592 0.0
C1094 C 0.60373 0.79921 0.29687 0.0
C1095 C 0.59723 0.79243 0.324 0.0
C1096 C 0.62979 0.79743 0.28786 0.0
C1097 C 0.61795 0.78513 0.34261 0.0
C1098 C 0.64419 0.78354 0.33384 0.0
C1099 C 0.6759 0.7857 0.29624 0.0
C1100 C 0.68079 0.79005 0.26794 0.0
C1101 C 0.65026 0.78912 0.30624 0.0
C1102 C 0.66035 0.79907 0.25043 0.0
C1103 C 0.63528 0.8029 0.26027 0.0
H1104 H 0.96739 0.17194 0.466 0.0
H1105 H 0.05247 0.21345 0.48932 0.0
H1106 H 0.06292 0.16583 0.50203 0.0
H1107 H 0.04809 0.11148 0.503 0.0
H1108 H 0.96386 0.07021 0.47434 0.0
H1109 H 0.9528 0.11881 0.46677 0.0
C1110 C 0.98816 0.17086 0.47444 0.0
C1111 C 0.00909 0.19624 0.4771 0.0
C1112 C 0.99417 0.14333 0.48016 0.0
C1113 C 0.036 0.19421 0.48736 0.0
C1114 C 0.04198 0.16699 0.49439 0.0
C1115 C 0.02734 0.11333 0.4952 0.0
C1116 C 0.00677 0.08757 0.48916 0.0
C1117 C 0.02131 0.14126 0.49027 0.0
C1118 C 0.98 0.08985 0.47887 0.0
C1119 C 0.97365 0.11759 0.47471 0.0
H1120 H 0.56691 0.33324 0.2052 0.0
H1121 H 0.59974 0.35872 0.12842 0.0
H1122 H 0.64409 0.34609 0.14455 0.0
H1123 H 0.67253 0.32573 0.1796 0.0
H1124 H 0.63802 0.29608 0.25413 0.0
H1125 H 0.59495 0.31223 0.23971 0.0
C1126 C 0.58393 0.33644 0.19221 0.0
C1127 C 0.58037 0.34716 0.16586 0.0
C1128 C 0.60877 0.32801 0.20106 0.0
C1129 C 0.60224 0.35059 0.14885 0.0
C1130 C 0.62745 0.34329 0.15802 0.0
C1131 C 0.65552 0.32282 0.19262 0.0
C1132 C 0.65821 0.30974 0.2178 0.0
C1133 C 0.63078 0.33158 0.18389 0.0
C1134 C 0.63618 0.30593 0.23455 0.0
C1135 C 0.61169 0.31527 0.22638 0.0
H1136 H 0.53065 0.86172 0.95826 0.0
H1137 H 0.45775 0.8358 1.00006 0.0
H1138 H 0.46103 0.887 0.02246 0.0
H1139 H 0.48125 0.93994 0.02618 0.0
H1140 H 0.5539 0.9671 0.98483 0.0
H1141 H 0.55436 0.91471 0.96683 0.0
C1142 C 0.51573 0.86718 0.97259 0.0
C1143 C 0.4937 0.84486 0.97694 0.0
C1144 C 0.5176 0.89698 0.98548 0.0
C1145 C 0.47471 0.85243 0.99585 0.0
C1146 C 0.47653 0.8818 0.00877 0.0
C1147 C 0.49746 0.93435 0.01362 0.0
C1148 C 0.51733 0.95732 0.00663 0.0
C1149 C 0.49738 0.90436 0.00309 0.0
C1150 C 0.5384 0.94978 0.99061 0.0
C1151 C 0.53853 0.91983 0.9801 0.0
H1152 H 0.93434 0.83954 0.66536 0.0
H1153 H 0.96992 0.77802 0.71251 0.0
H1154 H 0.92716 0.76646 0.73506 0.0
H1155 H 0.87924 0.77419 0.74101 0.0
H1156 H 0.84578 0.83721 0.69384 0.0
H1157 H 0.88811 0.84766 0.67148 0.0
C1158 C 0.93277 0.82339 0.68041 0.0
C1159 C 0.95512 0.80942 0.68704 0.0
C1160 C 0.90846 0.81717 0.69328 0.0
C1161 C 0.95291 0.78902 0.70701 0.0
C1162 C 0.92848 0.7824 0.71985 0.0
C1163 C 0.88136 0.79017 0.72584 0.0
C1164 C 0.85947 0.80492 0.71905 0.0
C1165 C 0.90606 0.79637 0.71312 0.0
C1166 C 0.86236 0.82563 0.69945 0.0
C1167 C 0.88655 0.83162 0.68661 0.0
H1168 H 0.08987 0.97943 0.86685 0.0
H1169 H 0.06744 0.05918 0.83899 0.0
H1170 H 0.04179 0.06617 0.88049 0.0
H1171 H 0.02562 0.04951 0.92446 0.0
H1172 H 0.04648 0.96858 0.95143 0.0
H1173 H 0.07235 0.96181 0.91015 0.0
C1174 C 0.07959 0.9985 0.87006 0.0
C1175 C 0.08079 0.01897 0.8501 0.0
C1176 C 0.06423 1.00187 0.89351 0.0
C1177 C 0.06692 0.04323 0.85417 0.0
C1178 C 0.05217 0.04715 0.87781 0.0
C1179 C 0.03561 0.03022 0.92122 0.0
C1180 C 0.03399 0.00954 0.94102 0.0
C1181 C 0.05054 0.02652 0.89751 0.0
C1182 C 0.04709 0.98468 0.9364 0.0
C1183 C 0.06212 0.98093 0.91293 0.0
H1184 H 0.77266 0.35917 0.6202 0.0
H1185 H 0.68954 0.31928 0.58598 0.0
H1186 H 0.68414 0.29325 0.62846 0.0
H1187 H 0.70448 0.28019 0.67471 0.0
H1188 H 0.78751 0.32235 0.7077 0.0
H1189 H 0.79152 0.34909 0.6663 0.0
C1190 C 0.75324 0.34476 0.62188 0.0
C1191 C 0.73165 0.34085 0.59956 0.0
C1192 C 0.75039 0.33019 0.64621 0.0
C1193 C 0.70651 0.32267 0.60265 0.0
C1194 C 0.70353 0.30769 0.62693 0.0
C1195 C 0.7234 0.2953 0.67279 0.0
C1196 C 0.7458 0.2991 0.69434 0.0
C1197 C 0.72552 0.31096 0.64872 0.0
C1198 C 0.77001 0.31901 0.69164 0.0
C1199 C 0.77234 0.33427 0.66787 0.0
H1200 H 0.43174 0.09307 0.37006 0.0
H1201 H 0.47873 0.03625 0.32324 0.0
H1202 H 0.49861 0.02352 0.36796 0.0
H1203 H 0.50268 0.02837 0.42052 0.0
H1204 H 0.4543 0.08374 0.46708 0.0
H1205 H 0.43494 0.09703 0.42238 0.0
C1206 C 0.44615 0.07774 0.36957 0.0
C1207 C 0.45358 0.06558 0.34325 0.0
C1208 C 0.45738 0.07028 0.39539 0.0
C1209 C 0.47252 0.0459 0.34315 0.0
C1210 C 0.48398 0.03862 0.36875 0.0
C1211 C 0.48803 0.04349 0.42087 0.0
C1212 C 0.48007 0.05514 0.4471 0.0
C1213 C 0.47661 0.05072 0.39501 0.0
C1214 C 0.46076 0.07437 0.44718 0.0
C1215 C 0.44967 0.08203 0.42162 0.0
H1216 H 0.82757 0.73741 0.07207 0.0
H1217 H 0.75311 0.67322 0.04281 0.0
H1218 H 0.73283 0.68906 0.08599 0.0
H1219 H 0.73728 0.71916 0.13353 0.0
H1220 H 0.81189 0.78302 0.16239 0.0
H1221 H 0.83099 0.76933 0.1179 0.0
C1222 C 0.80685 0.72696 0.075 0.0
C1223 C 0.79204 0.70399 0.0543 0.0
C1224 C 0.79533 0.73605 0.0999 0.0
C1225 C 0.76508 0.69092 0.05841 0.0
C1226 C 0.75344 0.6999 0.08315 0.0
C1227 C 0.75758 0.73021 0.12986 0.0
C1228 C 0.77322 0.7519 0.15113 0.0
C1229 C 0.76852 0.72214 0.10423 0.0
C1230 C 0.79949 0.76618 0.14626 0.0
C1231 C 0.81046 0.75834 0.12087 0.0
H1232 H 0.05763 0.95211 0.67771 0.0
H1233 H 0.11922 0.03273 0.68823 0.0
H1234 H 0.10723 0.03973 0.63883 0.0
H1235 H 0.07801 0.02423 0.59344 0.0
H1236 H 0.01574 0.94439 0.58295 0.0
H1237 H 0.02954 0.93543 0.63156 0.0
C1238 C 0.06859 0.97108 0.66918 0.0
C1239 C 0.08921 0.99192 0.68672 0.0
C1240 C 0.06148 0.97507 0.64081 0.0
C1241 C 0.10318 0.01642 0.67526 0.0
C1242 C 0.09634 0.02045 0.64702 0.0
C1243 C 0.06757 0.0048 0.60178 0.0
C1244 C 0.04593 0.98497 0.58482 0.0
C1245 C 0.07533 1.00013 0.62974 0.0
C1246 C 0.03253 0.95986 0.59572 0.0
C1247 C 0.04034 0.95484 0.62349 0.0
H1248 H 0.72415 0.37379 0.43007 0.0
H1249 H 0.77303 0.31267 0.46155 0.0
H1250 H 0.77767 0.29191 0.41297 0.0
H1251 H 0.77079 0.29267 0.36121 0.0
H1252 H 0.72068 0.35155 0.32813 0.0
H1253 H 0.71373 0.37133 0.37699 0.0
C1254 C 0.73534 0.35554 0.42631 0.0
C1255 C 0.74836 0.34515 0.44991 0.0
C1256 C 0.73811 0.34341 0.39776 0.0
C1257 C 0.76292 0.32152 0.4442 0.0
C1258 C 0.76571 0.30955 0.41623 0.0
C1259 C 0.75822 0.30974 0.36463 0.0
C1260 C 0.74645 0.32064 0.34084 0.0
C1261 C 0.75394 0.32068 0.39283 0.0
C1262 C 0.72996 0.34257 0.34589 0.0
C1263 C 0.72602 0.35397 0.37395 0.0
H1264 H 0.42817 0.07046 0.16505 0.0
H1265 H 0.50045 0.05793 0.21608 0.0
H1266 H 0.52256 0.04674 0.17317 0.0
H1267 H 0.523 0.0436 0.12126 0.0
H1268 H 0.45214 0.05827 0.06962 0.0
H1269 H 0.42793 0.0651 0.11221 0.0
C1270 C 0.44861 0.06495 0.16668 0.0
C1271 C 0.46264 0.06528 0.19382 0.0
C1272 C 0.46161 0.05897 0.14171 0.0
C1273 C 0.48921 0.05819 0.19553 0.0
C1274 C 0.50195 0.05171 0.17096 0.0
C1275 C 0.50216 0.04797 0.11931 0.0
C1276 C 0.48943 0.05041 0.09235 0.0
C1277 C 0.48859 0.05254 0.14396 0.0
C1278 C 0.46241 0.05619 0.09016 0.0
C1279 C 0.44857 0.06023 0.11455 0.0
H1280 H 0.77569 0.73096 0.93106 0.0
H1281 H 0.86146 0.73769 0.9182 0.0
H1282 H 0.85454 0.76405 0.87696 0.0
H1283 H 0.82254 0.77846 0.84089 0.0
H1284 H 0.73681 0.77209 0.85472 0.0
H1285 H 0.74543 0.75286 0.89958 0.0
C1286 C 0.79294 0.73874 0.9195 0.0
C1287 C 0.81888 0.73207 0.92717 0.0
C1288 C 0.78879 0.75373 0.89593 0.0
C1289 C 0.84126 0.7426 0.91251 0.0
C1290 C 0.83727 0.75747 0.88886 0.0
C1291 C 0.80587 0.77341 0.85399 0.0
C1292 C 0.77901 0.77612 0.84416 0.0
C1293 C 0.81089 0.76216 0.87978 0.0
C1294 C 0.75768 0.76997 0.8616 0.0
C1295 C 0.76252 0.75881 0.88724 0.0
H1296 H 0.89142 0.13378 0.98705 0.0
H1297 H 0.8424 0.091 0.0469 0.0
H1298 H 0.87468 0.05712 0.05266 0.0
H1299 H 0.9154 0.03729 0.039 0.0
H1300 H 0.96517 0.07905 0.97943 0.0
H1301 H 0.93458 0.11565 0.97565 0.0
C1302 C 0.88809 0.11743 0.00175 0.0
C1303 C 0.86423 0.11504 0.01638 0.0
C1304 C 0.90687 0.09754 0.0049 0.0
C1305 C 0.86034 0.09345 0.03519 0.0
C1306 C 0.87881 0.07388 0.03848 0.0
C1307 C 0.91957 0.05438 0.02515 0.0
C1308 C 0.94244 0.05518 0.0093 0.0
C1309 C 0.90185 0.07529 0.02308 0.0
C1310 C 0.9477 0.07782 0.99181 0.0
C1311 C 0.93014 0.09876 0.98963 0.0
H1312 H 0.3611 0.50102 0.02967 0.0
H1313 H 0.38578 0.43679 0.08138 0.0
H1314 H 0.43353 0.45147 0.07174 0.0
H1315 H 0.46821 0.48176 0.04715 0.0
H1316 H 0.44245 0.54603 0.99597 0.0
H1317 H 0.39541 0.53234 0.00718 0.0
C1318 C 0.37688 0.49021 0.03891 0.0
C1319 C 0.36973 0.46755 0.05591 0.0
C1320 C 0.40425 0.4989 0.03348 0.0
C1321 C 0.39057 0.45404 0.06791 0.0
C1322 C 0.41795 0.46251 0.0625 0.0
C1323 C 0.45235 0.49302 0.03882 0.0
C1324 C 0.45887 0.51482 0.02069 0.0
C1325 C 0.42504 0.48484 0.04515 0.0
C1326 C 0.43801 0.529 0.0098 0.0
C1327 C 0.41104 0.52121 0.01618 0.0
H1328 H 0.30591 0.64429 0.7897 0.0
H1329 H 0.29655 0.60864 0.70014 0.0
H1330 H 0.26878 0.6462 0.68944 0.0
H1331 H 0.2494 0.69151 0.70545 0.0
H1332 H 0.26219 0.72805 0.7948 0.0
H1333 H 0.28626 0.68789 0.80561 0.0
C1334 C 0.29756 0.64436 0.76783 0.0
C1335 C 0.30332 0.62347 0.74581 0.0
C1336 C 0.28229 0.66643 0.76176 0.0
C1337 C 0.29247 0.62435 0.71757 0.0
C1338 C 0.27662 0.6459 0.71142 0.0
C1339 C 0.25717 0.69031 0.72728 0.0
C1340 C 0.25401 0.71263 0.74934 0.0
C1341 C 0.27169 0.66737 0.7333 0.0
C1342 C 0.26448 0.71117 0.77748 0.0
C1343 C 0.27823 0.6882 0.78369 0.0
H1344 H 0.23502 0.59916 0.54261 0.0
H1345 H 0.21552 0.6357 0.46515 0.0
H1346 H 0.16649 0.61951 0.46833 0.0
H1347 H 0.12913 0.59628 0.49378 0.0
H1348 H 0.14837 0.55969 0.57113 0.0
H1349 H 0.19764 0.57454 0.56729 0.0
C1350 C 0.22008 0.6035 0.52635 0.0
C1351 C 0.22898 0.61873 0.50373 0.0
C1352 C 0.1919 0.59419 0.52833 0.0
C1353 C 0.20928 0.62407 0.48281 0.0
C1354 C 0.18122 0.61485 0.48462 0.0
C1355 C 0.14414 0.59151 0.50975 0.0
C1356 C 0.13527 0.57708 0.53278 0.0
C1357 C 0.17231 0.60011 0.50739 0.0
C1358 C 0.15481 0.57083 0.55325 0.0
C1359 C 0.18293 0.57934 0.55107 0.0
H1360 H 0.70704 0.94098 0.82469 0.0
H1361 H 0.64669 0.90688 0.75208 0.0
H1362 H 0.67272 0.86781 0.73754 0.0
H1363 H 0.71178 0.84228 0.74634 0.0
H1364 H 0.77337 0.87769 0.81739 0.0
H1365 H 0.74758 0.91725 0.83185 0.0
C1366 C 0.69963 0.9251 0.8056 0.0
C1367 C 0.67483 0.92679 0.7896 0.0
C1368 C 0.7148 0.90281 0.79724 0.0
C1369 C 0.66573 0.9062 0.76474 0.0
C1370 C 0.68052 0.88373 0.7565 0.0
C1371 C 0.71952 0.8587 0.765 0.0
C1372 C 0.74427 0.85706 0.78099 0.0
C1373 C 0.70491 0.88164 0.77275 0.0
C1374 C 0.75432 0.87858 0.80486 0.0
C1375 C 0.73959 0.90114 0.81309 0.0
H1376 H 0.69917 0.98603 0.5183 0.0
H1377 H 0.6529 0.89575 0.50201 0.0
H1378 H 0.61206 0.91444 0.48479 0.0
H1379 H 0.58837 0.95686 0.48024 0.0
H1380 H 0.6344 0.04713 0.49829 0.0
H1381 H 0.67682 0.02794 0.50805 0.0
C1382 C 0.6802 0.9704 0.51082 0.0
C1383 C 0.67885 0.93962 0.51202 0.0
C1384 C 0.65688 0.9813 0.50107 0.0
C1385 C 0.65435 0.91959 0.50162 0.0
C1386 C 0.63102 0.93025 0.49175 0.0
C1387 C 0.60783 0.9723 0.48556 0.0
C1388 C 0.60833 1.00335 0.48887 0.0
C1389 C 0.63188 0.96112 0.49213 0.0
C1390 C 0.63358 0.02314 0.49567 0.0
C1391 C 0.65775 0.01217 0.50155 0.0
H1392 H 0.32702 0.46322 0.72697 0.0
H1393 H 0.30495 0.49246 0.81073 0.0
H1394 H 0.28577 0.44119 0.81601 0.0
H1395 H 0.27674 0.38743 0.79816 0.0
H1396 H 0.29749 0.35759 0.71413 0.0
H1397 H 0.31545 0.40924 0.70784 0.0
C1398 C 0.31775 0.45845 0.74624 0.0
C1399 C 0.31774 0.48199 0.76842 0.0
C1400 C 0.30659 0.42856 0.74931 0.0
C1401 C 0.30554 0.47507 0.79324 0.0
C1402 C 0.29453 0.4456 0.7964 0.0
C1403 C 0.28516 0.39219 0.77845 0.0
C1404 C 0.28586 0.36848 0.75678 0.0
C1405 C 0.29528 0.42208 0.7748 0.0
C1406 C 0.29661 0.37527 0.73125 0.0
C1407 C 0.30696 0.4049 0.7276 0.0
H1408 H 0.1947 0.58082 0.33121 0.0
H1409 H 0.13544 0.55946 0.25628 0.0
H1410 H 0.15769 0.60345 0.23713 0.0
H1411 H 0.1929 0.64927 0.24239 0.0
H1412 H 0.25192 0.67081 0.31731 0.0
H1413 H 0.23106 0.62541 0.33551 0.0
C1414 C 0.18663 0.58572 0.31068 0.0
C1415 C 0.16326 0.56684 0.29538 0.0
C1416 C 0.19958 0.61109 0.29967 0.0
C1417 C 0.15332 0.57354 0.26865 0.0
C1418 C 0.16605 0.59874 0.25762 0.0
C1419 C 0.20137 0.64378 0.26252 0.0
C1420 C 0.22393 0.66327 0.27846 0.0
C1421 C 0.18907 0.6178 0.27301 0.0
C1422 C 0.23464 0.65604 0.30458 0.0
C1423 C 0.22263 0.63017 0.31507 0.0
H1424 H 0.54525 0.72401 0.4324 0.0
H1425 H 0.46312 0.72929 0.45431 0.0
H1426 H 0.46728 0.69557 0.48937 0.0
H1427 H 0.49182 0.66014 0.5103 0.0
H1428 H 0.57379 0.65397 0.48944 0.0
H1429 H 0.57233 0.69278 0.45829 0.0
C1430 C 0.52845 0.71813 0.44512 0.0
C1431 C 0.50375 0.7289 0.44011 0.0
C1432 C 0.53087 0.69847 0.4656 0.0
C1433 C 0.48229 0.72115 0.45715 0.0
C1434 C 0.48459 0.7018 0.47739 0.0
C1435 C 0.50961 0.66782 0.49947 0.0
C1436 C 0.53277 0.65414 0.502 0.0
C1437 C 0.50845 0.68971 0.48127 0.0
C1438 C 0.5557 0.66426 0.48786 0.0
C1439 C 0.55479 0.68627 0.46983 0.0
H1440 H 0.58999 0.33705 0.72439 0.0
H1441 H 0.56442 0.2414 0.70216 0.0
H1442 H 0.60937 0.23374 0.72163 0.0
H1443 H 0.65628 0.25401 0.74396 0.0
H1444 H 0.68276 0.34965 0.76462 0.0
H1445 H 0.6371 0.3574 0.74704 0.0
C1446 C 0.5942 0.31451 0.72382 0.0
C1447 C 0.57373 0.28986 0.71175 0.0
C1448 C 0.62027 0.31022 0.73492 0.0
C1449 C 0.5797 0.26083 0.71119 0.0
C1450 C 0.60543 0.25639 0.72241 0.0
C1451 C 0.65202 0.27657 0.74499 0.0
C1452 C 0.67295 0.30121 0.75584 0.0
C1453 C 0.62589 0.2809 0.73427 0.0
C1454 C 0.66707 0.33027 0.75649 0.0
C1455 C 0.64096 0.33472 0.74635 0.0
H1456 H 0.99021 0.34191 0.95378 0.0
H1457 H 0.02946 0.38348 0.88717 0.0
H1458 H 0.03787 0.4323 0.9176 0.0
H1459 H 0.03028 0.4637 0.96206 0.0
H1460 H 0.99165 0.42027 0.0282 0.0
H1461 H 0.9871 0.37168 0.99922 0.0
C1462 C 1.00077 0.36162 0.94595 0.0
C1463 C 0.00882 0.35921 0.91813 0.0
C1464 C 0.00561 0.38932 0.96352 0.0
C1465 C 0.02298 0.38481 0.9085 0.0
C1466 C 0.02769 0.41272 0.92586 0.0
C1467 C 0.02129 0.44351 0.97022 0.0
C1468 C 0.01095 0.44563 0.9971 0.0
C1469 C 0.01859 0.41536 0.95326 0.0
C1470 C 0.99948 0.4193 0.00749 0.0
C1471 C 0.99681 0.39146 0.9909 0.0
H1472 H 0.90068 0.78707 0.19096 0.0
H1473 H 0.92116 0.71484 0.23409 0.0
H1474 H 0.87934 0.71348 0.25859 0.0
H1475 H 0.83808 0.73506 0.27001 0.0
H1476 H 0.82153 0.81148 0.23135 0.0
H1477 H 0.86032 0.80905 0.20287 0.0
C1478 C 0.89574 0.77065 0.20533 0.0
C1479 C 0.91386 0.75073 0.21032 0.0
C1480 C 0.87233 0.77098 0.22034 0.0
C1481 C 0.90748 0.7302 0.22964 0.0
C1482 C 0.88361 0.72954 0.24377 0.0
C1483 C 0.84293 0.75095 0.25512 0.0
C1484 C 0.82654 0.77293 0.25213 0.0
C1485 C 0.86608 0.75014 0.23966 0.0
C1486 C 0.8334 0.79391 0.23342 0.0
C1487 C 0.8557 0.79262 0.21727 0.0
H1488 H 0.5256 0.38195 0.0487 0.0
H1489 H 0.43828 0.36662 0.02222 0.0
H1490 H 0.44589 0.40287 0.98868 0.0
H1491 H 0.47667 0.44279 0.9709 0.0
H1492 H 0.56363 0.45917 0.99842 0.0
H1493 H 0.55686 0.41834 0.02746 0.0
C1494 C 0.50824 0.38622 0.03536 0.0
C1495 C 0.4814 0.37189 0.03827 0.0
C1496 C 0.51268 0.40736 0.01643 0.0
C1497 C 0.45918 0.37744 0.02054 0.0
C1498 C 0.46347 0.39824 1.0014 0.0
C1499 C 0.49417 0.43696 0.9828 0.0
C1500 C 0.52053 0.45399 0.98296 0.0
C1501 C 0.49003 0.41388 0.99974 0.0
C1502 C 0.54311 0.44638 0.99834 0.0
C1503 C 0.53924 0.42314 0.01494 0.0
H1504 H 0.9642 0.30501 0.34432 0.0
H1505 H 0.92279 0.23965 0.3924 0.0
H1506 H 0.87974 0.23754 0.36326 0.0
H1507 H 0.8537 0.25411 0.32456 0.0
H1508 H 0.89346 0.32068 0.27699 0.0
H1509 H 0.93759 0.32199 0.30509 0.0
C1510 C 0.9457 0.29048 0.34848 0.0
C1511 C 0.94664 0.27277 0.37065 0.0
C1512 C 0.92088 0.28925 0.33152 0.0
C1513 C 0.92257 0.25388 0.37575 0.0
C1514 C 0.89795 0.25242 0.35895 0.0
C1515 C 0.8721 0.2687 0.32016 0.0
C1516 C 0.8706 0.28717 0.29882 0.0
C1517 C 0.89691 0.26992 0.33679 0.0
C1518 C 0.89437 0.30617 0.29336 0.0
C1519 C 0.91946 0.30704 0.30949 0.0
H1520 H 0.03115 0.74468 0.58903 0.0
H1521 H 0.94256 0.72201 0.58368 0.0
H1522 H 0.94411 0.6707 0.56353 0.0
H1523 H 0.97075 0.63175 0.54951 0.0
H1524 H 0.05935 0.65485 0.55437 0.0
H1525 H 0.05753 0.70654 0.57238 0.0
C1526 C 0.01216 0.72854 0.58342 0.0
C1527 C 0.98682 0.73712 0.5881 0.0
C1528 C 0.01316 0.69914 0.57171 0.0
C1529 C 0.96238 0.71602 0.58033 0.0
C1530 C 0.96323 0.68664 0.56885 0.0
C1531 C 0.98966 0.64811 0.55428 0.0
C1532 C 0.01513 0.63929 0.55071 0.0
C1533 C 0.98853 0.67788 0.56473 0.0
C1534 C 0.03941 0.6609 0.55687 0.0
C1535 C 0.03844 0.69051 0.5673 0.0
H1536 H 0.56169 0.73607 0.82894 0.0
H1537 H 0.60111 0.80411 0.89808 0.0
H1538 H 0.64134 0.81449 0.87169 0.0
H1539 H 0.66553 0.80327 0.82944 0.0
H1540 H 0.62639 0.73402 0.76136 0.0
H1541 H 0.58534 0.72544 0.78672 0.0
C1542 C 0.57905 0.75319 0.83835 0.0
C1543 C 0.57844 0.76923 0.86553 0.0
C1544 C 0.60195 0.75899 0.8231 0.0
C1545 C 0.60113 0.79133 0.87729 0.0
C1546 C 0.62406 0.79736 0.86215 0.0
C1547 C 0.64784 0.78658 0.82002 0.0
C1548 C 0.6488 0.76935 0.79355 0.0
C1549 C 0.62468 0.78128 0.83507 0.0
C1550 C 0.62598 0.74759 0.78165 0.0
C1551 C 0.60262 0.74259 0.79622 0.0
H1552 H 0.40858 0.53084 0.66456 0.0
H1553 H 0.3858 0.6084 0.63237 0.0
H1554 H 0.42094 0.60794 0.59895 0.0
H1555 H 0.45916 0.58631 0.57999 0.0
H1556 H 0.48208 0.50912 0.61292 0.0
H1557 H 0.44653 0.50925 0.64564 0.0
C1558 C 0.41092 0.54728 0.64984 0.0
C1559 C 0.39433 0.56936 0.65064 0.0
C1560 C 0.43181 0.54754 0.63149 0.0
C1561 C 0.39812 0.59097 0.63192 0.0
C1562 C 0.41841 0.59093 0.61306 0.0
C1563 C 0.45677 0.56995 0.59479 0.0
C1564 C 0.47354 0.54802 0.59434 0.0
C1565 C 0.43575 0.56966 0.61304 0.0
C1566 C 0.46965 0.52643 0.61307 0.0
C1567 C 0.44913 0.5263 0.63159 0.0
H1568 H 0.76698 0.20722 0.92102 0.0
H1569 H 0.84835 0.26092 0.94173 0.0
H1570 H 0.84052 0.28866 0.90214 0.0
H1571 H 0.81153 0.29748 0.86086 0.0
H1572 H 0.72965 0.24594 0.83977 0.0
H1573 H 0.73685 0.21745 0.87968 0.0
C1574 C 0.78292 0.22517 0.91707 0.0
C1575 C 0.80832 0.23175 0.93472 0.0
C1576 C 0.77834 0.24127 0.89381 0.0
C1577 C 0.82864 0.25509 0.92884 0.0
C1578 C 0.82421 0.27106 0.90602 0.0
C1579 C 0.79514 0.28005 0.86495 0.0
C1580 C 0.77021 0.27354 0.84683 0.0
C1581 C 0.79929 0.26425 0.88825 0.0
C1582 C 0.74929 0.25092 0.85271 0.0
C1583 C 0.75335 0.23484 0.87582 0.0
H1584 H 0.09625 0.48267 0.19361 0.0
H1585 H 0.01206 0.46623 0.21354 0.0
H1586 H 0.99634 0.47759 0.16668 0.0
H1587 H 0.00651 0.49429 0.12074 0.0
H1588 H 0.09065 0.51024 0.10056 0.0
H1589 H 0.10622 0.49701 0.14669 0.0
C1590 C 0.07445 0.48129 0.18762 0.0
C1591 C 0.05543 0.47373 0.20719 0.0
C1592 C 0.06547 0.48801 0.16061 0.0
C1593 C 0.02722 0.47204 0.19898 0.0
C1594 C 0.01816 0.47863 0.17218 0.0
C1595 C 0.02825 0.49488 0.12641 0.0
C1596 C 0.04734 0.50349 0.10724 0.0
C1597 C 0.03713 0.48706 0.15297 0.0
C1598 C 0.07543 0.50377 0.11487 0.0
C1599 C 0.08441 0.49621 0.1413 0.0
H1600 H 0.79708 0.83811 0.48425 0.0
H1601 H 0.73958 0.89687 0.46833 0.0
H1602 H 0.72698 0.87065 0.41988 0.0
H1603 H 0.73401 0.8329 0.38128 0.0
H1604 H 0.79202 0.77478 0.39658 0.0
H1605 H 0.80234 0.79858 0.44634 0.0
C1606 C 0.78179 0.84523 0.47021 0.0
C1607 C 0.76954 0.86965 0.47987 0.0
C1608 C 0.77459 0.83004 0.44237 0.0
C1609 C 0.7495 0.87828 0.46145 0.0
C1610 C 0.74222 0.86327 0.43374 0.0
C1611 C 0.74863 0.82518 0.39564 0.0
C1612 C 0.76233 0.80226 0.38543 0.0
C1613 C 0.75482 0.83934 0.42391 0.0
C1614 C 0.78122 0.79241 0.40411 0.0
C1615 C 0.78724 0.80613 0.43245 0.0
H1616 H 0.41637 0.59354 0.8276 0.0
H1617 H 0.43735 0.51804 0.77575 0.0
H1618 H 0.47046 0.51167 0.81438 0.0
H1619 H 0.49291 0.52677 0.86301 0.0
H1620 H 0.47281 0.60226 0.9154 0.0
H1621 H 0.44029 0.60983 0.87628 0.0
C1622 C 0.4281 0.57563 0.8249 0.0
C1623 C 0.42431 0.55618 0.79896 0.0
C1624 C 0.44747 0.57231 0.84712 0.0
C1625 C 0.43987 0.53329 0.79554 0.0
C1626 C 0.45887 0.52965 0.81758 0.0
C1627 C 0.48163 0.54509 0.86573 0.0
C1628 C 0.48517 0.56395 0.8919 0.0
C1629 C 0.46285 0.54901 0.8434 0.0
C1630 C 0.47044 0.58755 0.89529 0.0
C1631 C 0.45174 0.59174 0.87303 0.0
H1632 H 0.77562 0.21032 0.07263 0.0
H1633 H 0.86314 0.23936 0.09407 0.0
H1634 H 0.85548 0.26088 0.14187 0.0
H1635 H 0.82392 0.27111 0.17831 0.0
H1636 H 0.73635 0.24431 0.15577 0.0
H1637 H 0.74408 0.22248 0.10818 0.0
C1638 C 0.79306 0.22144 0.08768 0.0
C1639 C 0.81998 0.22305 0.07949 0.0
C1640 C 0.78851 0.23423 0.11521 0.0
C1641 C 0.84219 0.23778 0.09948 0.0
C1642 C 0.83783 0.25006 0.12699 0.0
C1643 C 0.80652 0.26053 0.16298 0.0
C1644 C 0.77955 0.25944 0.17086 0.0
C1645 C 0.81109 0.24836 0.1352 0.0
C1646 C 0.75732 0.24575 0.15046 0.0
C1647 C 0.76172 0.23313 0.12314 0.0
H1648 H 0.0995 0.50902 0.39277 0.0
H1649 H 0.03164 0.52112 0.33483 0.0
H1650 H 0.00639 0.53411 0.37498 0.0
H1651 H 0.00185 0.53849 0.42647 0.0
H1652 H 0.06984 0.5285 0.48484 0.0
H1653 H 0.09672 0.51855 0.44497 0.0
C1654 C 0.07936 0.51489 0.38897 0.0
C1655 C 0.06746 0.5138 0.36075 0.0
C1656 C 0.06485 0.52265 0.41231 0.0
C1657 C 0.04137 0.52168 0.35626 0.0
C1658 C 0.02678 0.52902 0.37924 0.0
C1659 C 0.02271 0.53452 0.43039 0.0
C1660 C 0.03398 0.53455 0.45852 0.0
C1661 C 0.03806 0.529 0.40731 0.0
C1662 C 0.06094 0.52933 0.46346 0.0
C1663 C 0.07623 0.52331 0.44057 0.0
H1664 H 0.75721 0.81788 0.58677 0.0
H1665 H 0.70829 0.88149 0.61871 0.0
H1666 H 0.69257 0.84943 0.65409 0.0
H1667 H 0.70287 0.81079 0.68313 0.0
H1668 H 0.75669 0.75133 0.65412 0.0
H1669 H 0.7598 0.7736 0.60994 0.0
C1670 C 0.74251 0.82431 0.60099 0.0
C1671 C 0.73456 0.85233 0.60086 0.0
C1672 C 0.73468 0.80653 0.62198 0.0
C1673 C 0.71496 0.86015 0.61873 0.0
C1674 C 0.70616 0.84193 0.6391 0.0
C1675 C 0.71422 0.80185 0.66651 0.0
C1676 C 0.72981 0.77979 0.67179 0.0
C1677 C 0.71732 0.81609 0.64205 0.0
C1678 C 0.74471 0.76847 0.6504 0.0
C1679 C 0.74669 0.78139 0.62532 0.0
H1680 H 0.63195 0.43999 0.57153 0.0
H1681 H 0.66757 0.45846 0.49409 0.0
H1682 H 0.63614 0.49317 0.48614 0.0
H1683 H 0.60025 0.52064 0.50268 0.0
H1684 H 0.56178 0.49923 0.57763 0.0
H1685 H 0.5926 0.46365 0.58526 0.0
C1686 C 0.6326 0.4513 0.5527 0.0
C1687 C 0.65231 0.44656 0.5335 0.0
C1688 C 0.61412 0.47106 0.54803 0.0
C1689 C 0.65263 0.46138 0.50915 0.0
C1690 C 0.63476 0.48149 0.5047 0.0
C1691 C 0.59844 0.50805 0.52052 0.0
C1692 C 0.57869 0.51272 0.53957 0.0
C1693 C 0.61573 0.48691 0.52424 0.0
C1694 C 0.57671 0.49608 0.56261 0.0
C1695 C 0.59437 0.47572 0.56698 0.0
H1696 H 0.17239 0.10324 0.45097 0.0
H1697 H 0.2013 0.0251 0.47503 0.0
H1698 H 0.15402 0.99904 0.47451 0.0
H1699 H 0.10458 0.9993 0.46929 0.0
H1700 H 0.07509 0.07587 0.44218 0.0
H1701 H 0.12242 0.10162 0.44128 0.0
C1702 C 0.16818 0.08051 0.45601 0.0
C1703 C 0.19003 0.06612 0.4633 0.0
C1704 C 0.14095 0.06537 0.45493 0.0
C1705 C 0.18462 0.03652 0.46936 0.0
C1706 C 0.15766 0.02164 0.4691 0.0
C1707 C 0.1086 0.02147 0.46286 0.0
C1708 C 0.08665 0.03578 0.4559 0.0
C1709 C 0.1357 0.03593 0.46215 0.0
C1710 C 0.09185 0.06438 0.44737 0.0
C1711 C 0.11885 0.0792 0.4471 0.0
H1712 H 0.21631 0.95472 0.81158 0.0
H1713 H 0.15634 0.92384 0.73826 0.0
H1714 H 0.18229 0.88503 0.72202 0.0
H1715 H 0.22176 0.85862 0.72999 0.0
H1716 H 0.28111 0.89139 0.80366 0.0
H1717 H 0.25599 0.93068 0.81805 0.0
C1718 C 0.20898 0.93965 0.79193 0.0
C1719 C 0.18443 0.94216 0.77625 0.0
C1720 C 0.22399 0.91762 0.78269 0.0
C1721 C 0.17534 0.92255 0.75068 0.0
C1722 C 0.19011 0.90025 0.74143 0.0
C1723 C 0.22912 0.87441 0.74906 0.0
C1724 C 0.25311 0.87172 0.76581 0.0
C1725 C 0.21442 0.89736 0.75743 0.0
C1726 C 0.26264 0.89271 0.79034 0.0
C1727 C 0.24827 0.91529 0.79872 0.0
H1728 H 0.31439 0.92394 0.03831 0.0
H1729 H 0.27713 0.96762 0.97364 0.0
H1730 H 0.32257 0.9953 0.96699 0.0
H1731 H 0.37294 0.00809 0.98099 0.0
H1732 H 0.40861 0.96562 0.04768 0.0
H1733 H 0.36366 0.93637 0.05212 0.0
C1734 C 0.31617 0.93923 0.02248 0.0
C1735 C 0.29251 0.94358 0.00632 0.0
C1736 C 0.34207 0.95542 0.01932 0.0
C1737 C 0.29512 0.96387 0.98628 0.0
C1738 C 0.32106 0.97971 0.98253 0.0
C1739 C 0.37075 0.99236 0.99641 0.0
C1740 C 0.39392 0.98896 0.01401 0.0
C1741 C 0.34467 0.97587 0.99916 0.0
C1742 C 0.39098 0.96867 0.034 0.0
C1743 C 0.36533 0.95189 0.03651 0.0
H1744 H 0.82269 0.6337 0.80087 0.0
H1745 H 0.87339 0.66561 0.73726 0.0
H1746 H 0.84112 0.69877 0.72545 0.0
H1747 H 0.79915 0.72039 0.73539 0.0
H1748 H 0.75049 0.68757 0.80032 0.0
H1749 H 0.78142 0.65321 0.8095 0.0
C1750 C 0.82679 0.6478 0.7843 0.0
C1751 C 0.85059 0.64734 0.77016 0.0
C1752 C 0.80852 0.66684 0.77801 0.0
C1753 C 0.85519 0.66545 0.74844 0.0
C1754 C 0.83682 0.68455 0.74184 0.0
C1755 C 0.79546 0.70569 0.75151 0.0
C1756 C 0.77263 0.70666 0.76728 0.0
C1757 C 0.81357 0.68577 0.75684 0.0
C1758 C 0.76786 0.6873 0.78789 0.0
C1759 C 0.78556 0.66761 0.79319 0.0
H1760 H 0.83182 0.56625 0.00287 0.0
H1761 H 0.87694 0.65616 0.02828 0.0
H1762 H 0.91489 0.63687 0.05091 0.0
H1763 H 0.93781 0.59456 0.05689 0.0
H1764 H 0.89472 0.50448 0.02762 0.0
H1765 H 0.853 0.52357 0.01392 0.0
C1766 C 0.84975 0.58158 0.01387 0.0
C1767 C 0.85194 0.61251 0.01336 0.0
C1768 C 0.87182 0.57024 0.0261 0.0
C1769 C 0.87516 0.63223 0.02768 0.0
C1770 C 0.89679 0.62121 0.04079 0.0
C1771 C 0.91906 0.57906 0.04818 0.0
C1772 C 0.91924 0.54827 0.04291 0.0
C1773 C 0.89576 0.59026 0.03912 0.0
C1774 C 0.89494 0.52834 0.03169 0.0
C1775 C 0.87122 0.53926 0.02367 0.0
H1776 H 0.17624 0.08388 0.76401 0.0
H1777 H 0.19438 0.09876 0.85579 0.0
H1778 H 0.21853 0.14955 0.85351 0.0
H1779 H 0.23342 0.19058 0.8254 0.0
H1780 H 0.21637 0.1742 0.73341 0.0
H1781 H 0.19315 0.12349 0.73595 0.0
C1782 C 0.18551 0.09817 0.78354 0.0
C1783 C 0.18328 0.08744 0.81003 0.0
C1784 C 0.19964 0.12729 0.78208 0.0
C1785 C 0.19575 0.1063 0.83506 0.0
C1786 C 0.20954 0.13545 0.8338 0.0
C1787 C 0.22473 0.17588 0.80592 0.0
C1788 C 0.22664 0.18648 0.77929 0.0
C1789 C 0.21146 0.14632 0.80742 0.0
C1790 C 0.21536 0.16689 0.75426 0.0
C1791 C 0.20193 0.13776 0.75564 0.0
H1792 H 0.3616 0.99409 0.24543 0.0
H1793 H 0.32424 0.02329 0.32059 0.0
H1794 H 0.29373 0.97507 0.3158 0.0
H1795 H 0.28025 0.92303 0.29307 0.0
H1796 H 0.31735 0.89293 0.21833 0.0
H1797 H 0.34492 0.94297 0.21993 0.0
C1798 C 0.34656 0.99005 0.26054 0.0
C1799 C 0.34562 0.01231 0.28355 0.0
C1800 C 0.329 0.96197 0.25784 0.0
C1801 C 0.32581 0.00659 0.30283 0.0
C1802 C 0.30824 0.97894 0.30015 0.0
C1803 C 0.29405 0.92758 0.27688 0.0
C1804 C 0.29693 0.90436 0.25577 0.0
C1805 C 0.31007 0.95625 0.27816 0.0
C1806 C 0.31484 0.9105 0.23487 0.0
C1807 C 0.33071 0.93908 0.23584 0.0
H1808 H 0.45947 0.31767 0.56188 0.0
H1809 H 0.53093 0.34692 0.62369 0.0
H1810 H 0.5449 0.39031 0.59925 0.0
H1811 H 0.53335 0.42323 0.56435 0.0
H1812 H 0.46071 0.3949 0.50417 0.0
H1813 H 0.45077 0.34764 0.52384 0.0
C1814 C 0.47834 0.33327 0.56987 0.0
C1815 C 0.49387 0.32924 0.59494 0.0
C1816 C 0.48587 0.35848 0.55613 0.0
C1817 C 0.51848 0.34948 0.60458 0.0
C1818 C 0.5264 0.37442 0.5907 0.0
C1819 C 0.51561 0.40645 0.55523 0.0
C1820 C 0.49757 0.41258 0.53306 0.0
C1821 C 0.50973 0.37966 0.56707 0.0
C1822 C 0.47479 0.39068 0.5213 0.0
C1823 C 0.46905 0.36375 0.53263 0.0
H1824 H 0.42245 0.74455 0.325 0.0
H1825 H 0.45765 0.82782 0.29756 0.0
H1826 H 0.41213 0.83225 0.27544 0.0
H1827 H 0.36164 0.81313 0.26592 0.0
H1828 H 0.32821 0.72813 0.29181 0.0
H1829 H 0.37367 0.72362 0.31216 0.0
C1830 C 0.42021 0.76367 0.3141 0.0
C1831 C 0.44333 0.78602 0.31322 0.0
C1832 C 0.39423 0.76569 0.30105 0.0
C1833 C 0.44016 0.81036 0.29859 0.0
C1834 C 0.41412 0.81289 0.286 0.0
C1835 C 0.36437 0.79345 0.2757 0.0
C1836 C 0.34131 0.77102 0.27726 0.0
C1837 C 0.39089 0.79078 0.28733 0.0
C1838 C 0.34539 0.74567 0.29 0.0
C1839 C 0.37145 0.74312 0.30188 0.0
H1840 H 0.98577 0.69784 0.07567 0.0
H1841 H 0.98957 0.66534 0.15727 0.0
H1842 H 0.00755 0.62185 0.13636 0.0
H1843 H 0.02278 0.59327 0.0949 0.0
H1844 H 0.0242 0.62857 0.01467 0.0
H1845 H 0.00377 0.6707 0.03478 0.0
C1846 C 0.99047 0.68111 0.08876 0.0
C1847 C 0.98608 0.68455 0.11791 0.0
C1848 C 0.00188 0.65677 0.07681 0.0
C1849 C 0.9927 0.66308 0.1348 0.0
C1850 C 0.00299 0.63824 0.12284 0.0
C1851 C 0.01868 0.61028 0.08189 0.0
C1852 C 0.02492 0.60784 0.05332 0.0
C1853 C 0.00777 0.6349 0.09391 0.0
C1854 C 0.01973 0.6301 0.03674 0.0
C1855 C 0.00794 0.6541 0.04822 0.0
H1856 H 0.11105 0.28502 0.83971 0.0
H1857 H 0.08241 0.33177 0.77261 0.0
H1858 H 0.12554 0.33187 0.75146 0.0
H1859 H 0.17036 0.3157 0.74989 0.0
H1860 H 0.19911 0.26885 0.8167 0.0
H1861 H 0.15735 0.27197 0.84001 0.0
C1862 C 0.11436 0.29555 0.82067 0.0
C1863 C 0.09329 0.30815 0.80774 0.0
C1864 C 0.13929 0.29535 0.80835 0.0
C1865 C 0.09808 0.32172 0.78304 0.0
C1866 C 0.1228 0.32176 0.77081 0.0
C1867 C 0.16755 0.30642 0.76968 0.0
C1868 C 0.18773 0.29189 0.7814 0.0
C1869 C 0.14335 0.30815 0.78294 0.0
C1870 C 0.18387 0.28009 0.80715 0.0
C1871 C 0.15994 0.28181 0.82049 0.0
H1872 H 0.54933 0.70915 0.97261 0.0
H1873 H 0.46624 0.68975 0.99576 0.0
H1874 H 0.4756 0.64469 0.01372 0.0
H1875 H 0.50517 0.60745 0.01717 0.0
H1876 H 0.58886 0.6268 0.99693 0.0
H1877 H 0.58152 0.67529 0.98341 0.0
C1878 C 0.53346 0.69542 0.98213 0.0
C1879 C 0.50694 0.70254 0.98215 0.0
C1880 C 0.53892 0.66931 0.9925 0.0
C1881 C 0.48674 0.6847 0.99501 0.0
C1882 C 0.49198 0.65875 0.00521 0.0
C1883 C 0.52185 0.62258 0.01018 0.0
C1884 C 0.54731 0.61385 0.00757 0.0
C1885 C 0.5176 0.65032 0.00306 0.0
C1886 C 0.56906 0.63342 0.99896 0.0
C1887 C 0.56483 0.66097 0.99119 0.0
H1888 H 0.08057 0.85386 0.65632 0.0
H1889 H 0.06218 0.86562 0.74382 0.0
H1890 H 0.09812 0.83794 0.75772 0.0
H1891 H 0.13762 0.81451 0.74576 0.0
H1892 H 0.15998 0.80878 0.65957 0.0
H1893 H 0.11978 0.82973 0.64421 0.0
C1894 C 0.08413 0.84972 0.67827 0.0
C1895 C 0.06866 0.86132 0.699 0.0
C1896 C 0.10576 0.83513 0.68633 0.0
C1897 C 0.07381 0.85664 0.72753 0.0
C1898 C 0.0944 0.84095 0.73549 0.0
C1899 C 0.13333 0.8174 0.72354 0.0
C1900 C 0.15142 0.8099 0.70371 0.0
C1901 C 0.11092 0.83068 0.7152 0.0
C1902 C 0.14616 0.81433 0.67512 0.0
C1903 C 0.12324 0.82634 0.66637 0.0
H1904 H 0.03819 0.36075 0.46761 0.0
H1905 H 0.96088 0.33567 0.50213 0.0
H1906 H 0.96418 0.38663 0.52547 0.0
H1907 H 0.9866 0.43924 0.53261 0.0
H1908 H 0.06384 0.465 0.49847 0.0
H1909 H 0.06307 0.41291 0.47887 0.0
C1910 C 0.02225 0.36631 0.48055 0.0
C1911 C 0.99915 0.34434 0.48268 0.0
C1912 C 0.02413 0.39589 0.49392 0.0
C1913 C 0.9788 0.35204 0.49976 0.0
C1914 C 0.9806 0.38127 0.51316 0.0
C1915 C 0.00343 0.43343 0.52116 0.0
C1916 C 0.02509 0.45602 0.51682 0.0
C1917 C 0.00279 0.40351 0.5098 0.0
C1918 C 0.04691 0.44805 0.5022 0.0
C1919 C 0.04641 0.41827 0.49082 0.0
H1920 H 0.45965 0.33025 0.20891 0.0
H1921 H 0.41051 0.28318 0.13238 0.0
H1922 H 0.37092 0.2722 0.15946 0.0
H1923 H 0.3496 0.27975 0.20376 0.0
H1924 H 0.397 0.33163 0.27922 0.0
H1925 H 0.43835 0.33698 0.25379 0.0
C1926 C 0.44035 0.31715 0.19838 0.0
C1927 C 0.43774 0.30743 0.16886 0.0
C1928 C 0.41752 0.31212 0.21381 0.0
C1929 C 0.41271 0.29096 0.1551 0.0
C1930 C 0.39018 0.28472 0.17055 0.0
C1931 C 0.36907 0.29197 0.21472 0.0
C1932 C 0.3705 0.30535 0.24318 0.0
C1933 C 0.39223 0.29579 0.19973 0.0
C1934 C 0.39562 0.3213 0.2572 0.0
C1935 C 0.41915 0.32432 0.2427 0.0
H1936 H 0.61562 0.52318 0.37665 0.0
H1937 H 0.54249 0.48999 0.31827 0.0
H1938 H 0.51387 0.49366 0.35783 0.0
H1939 H 0.50991 0.50463 0.40984 0.0
H1940 H 0.58289 0.54286 0.46668 0.0
H1941 H 0.61143 0.53853 0.42728 0.0
C1942 C 0.59343 0.51686 0.37262 0.0
C1943 C 0.58117 0.50608 0.34474 0.0
C1944 C 0.57715 0.51954 0.39533 0.0
C1945 C 0.55235 0.49848 0.33964 0.0
C1946 C 0.536 0.50039 0.36226 0.0
C1947 C 0.53205 0.51188 0.41338 0.0
C1948 C 0.54464 0.52291 0.44111 0.0
C1949 C 0.54818 0.51055 0.39029 0.0
C1950 C 0.57314 0.53313 0.4456 0.0
C1951 C 0.58937 0.53101 0.42305 0.0
H1952 H 0.27227 0.84618 0.10738 0.0
H1953 H 0.18545 0.81487 0.08348 0.0
H1954 H 0.18288 0.78852 0.1259 0.0
H1955 H 0.20616 0.7735 0.16963 0.0
H1956 H 0.29253 0.80838 0.19347 0.0
H1957 H 0.29443 0.83415 0.15128 0.0
C1958 C 0.25268 0.83351 0.11125 0.0
C1959 C 0.22914 0.83217 0.09183 0.0
C1960 C 0.25137 0.81899 0.13579 0.0
C1961 C 0.20391 0.81623 0.09784 0.0
C1962 C 0.20251 0.80109 0.1221 0.0
C1963 C 0.22537 0.78671 0.16547 0.0
C1964 C 0.2493 0.7888 0.18466 0.0
C1965 C 0.2262 0.8021 0.14117 0.0
C1966 C 0.27388 0.8064 0.1792 0.0
C1967 C 0.27498 0.8211 0.15499 0.0
H1968 H 0.98461 0.55485 0.84102 0.0
H1969 H 0.92632 0.60537 0.87631 0.0
H1970 H 0.93997 0.59484 0.9239 0.0
H1971 H 0.96887 0.57186 0.95612 0.0
H1972 H 0.02936 0.52405 0.92176 0.0
H1973 H 0.01468 0.53315 0.87362 0.0
C1974 C 0.97483 0.56348 0.8591 0.0
C1975 C 0.95398 0.58035 0.85477 0.0
C1976 C 0.98333 0.55798 0.88681 0.0
C1977 C 0.94188 0.59169 0.87863 0.0
C1978 C 0.94985 0.58587 0.90606 0.0
C1979 C 0.97879 0.56336 0.93809 0.0
C1980 C 1.00014 0.54725 0.9426 0.0
C1981 C 0.97053 0.56904 0.91044 0.0
C1982 C 0.01296 0.53667 0.91898 0.0
C1983 C 0.00452 0.54178 0.89138 0.0
H1984 H 0.2482 0.18133 0.55747 0.0
H1985 H 0.33343 0.18255 0.58605 0.0
H1986 H 0.32766 0.20741 0.63291 0.0
H1987 H 0.29882 0.22857 0.66583 0.0
H1988 H 0.2141 0.23002 0.63823 0.0
H1989 H 0.21921 0.20445 0.59077 0.0
C1990 C 0.2654 0.18694 0.57405 0.0
C1991 C 0.29117 0.18006 0.56833 0.0
C1992 C 0.26207 0.20176 0.60099 0.0
C1993 C 0.31342 0.18774 0.58986 0.0
C1994 C 0.31016 0.20191 0.61669 0.0
C1995 C 0.28145 0.22329 0.64941 0.0
C1996 C 0.2561 0.23088 0.65535 0.0
C1997 C 0.28465 0.20902 0.62245 0.0
C1998 C 0.23382 0.22431 0.63394 0.0
C1999 C 0.23674 0.20964 0.60694 0.0
H2000 H 0.63087 0.50924 0.18967 0.0
H2001 H 0.57697 0.42315 0.17941 0.0
H2002 H 0.56168 0.4292 0.13036 0.0
H2003 H 0.56079 0.46132 0.09178 0.0
H2004 H 0.61447 0.54763 0.10363 0.0
H2005 H 0.63261 0.53912 0.15063 0.0
C2006 C 0.61597 0.49162 0.17668 0.0
C2007 C 0.6048 0.46601 0.18833 0.0
C2008 C 0.607 0.49544 0.14881 0.0
C2009 C 0.58574 0.44325 0.17103 0.0
C2010 C 0.5769 0.44674 0.14301 0.0
C2011 C 0.57661 0.47805 0.10464 0.0
C2012 C 0.58611 0.50516 0.09448 0.0
C2013 C 0.5869 0.47311 0.1319 0.0
C2014 C 0.60672 0.52666 0.11113 0.0
C2015 C 0.61712 0.52184 0.13801 0.0
H2016 H 0.20917 0.86765 0.92163 0.0
H2017 H 0.24711 0.79733 0.95146 0.0
H2018 H 0.25075 0.77665 0.90244 0.0
H2019 H 0.24803 0.78127 0.85129 0.0
H2020 H 0.20942 0.85015 0.81983 0.0
H2021 H 0.20115 0.86843 0.86875 0.0
C2022 C 0.21743 0.84729 0.91735 0.0
C2023 C 0.22787 0.83417 0.94051 0.0
C2024 C 0.21987 0.83549 0.88865 0.0
C2025 C 0.23893 0.80802 0.9343 0.0
C2026 C 0.24121 0.79621 0.90615 0.0
C2027 C 0.23748 0.80007 0.85507 0.0
C2028 C 0.22952 0.81438 0.83185 0.0
C2029 C 0.23259 0.81025 0.88321 0.0
C2030 C 0.21565 0.83856 0.8372 0.0
C2031 C 0.21104 0.84912 0.86528 0.0
H2032 H 0.96741 0.60061 0.69343 0.0
H2033 H 0.92368 0.50936 0.67601 0.0
H2034 H 0.94638 0.50147 0.63249 0.0
H2035 H 0.98144 0.51954 0.60097 0.0
H2036 H 0.02689 0.60989 0.62077 0.0
H2037 H 1.00081 0.61907 0.66139 0.0
C2038 C 0.96256 0.57909 0.67996 0.0
C2039 C 0.94385 0.55563 0.6881 0.0
C2040 C 0.97625 0.57445 0.65535 0.0
C2041 C 0.93806 0.52782 0.67039 0.0
C2042 C 0.95108 0.52326 0.64547 0.0
C2043 C 0.98533 0.54128 0.61404 0.0
C2044 C 0.00615 0.56396 0.60797 0.0
C2045 C 0.97063 0.54624 0.63797 0.0
C2046 C 0.01116 0.59198 0.62518 0.0
C2047 C 0.99622 0.59728 0.64841 0.0
H2048 H 0.32995 0.22314 0.43577 0.0
H2049 H 0.24302 0.19333 0.43957 0.0
H2050 H 0.23224 0.22767 0.40669 0.0
H2051 H 0.24714 0.26077 0.37214 0.0
H2052 H 0.33386 0.28835 0.36571 0.0
H2053 H 0.34501 0.26097 0.40493 0.0
C2054 C 0.30867 0.22447 0.42975 0.0
C2055 C 0.28736 0.20526 0.4397 0.0
C2056 C 0.30252 0.24387 0.41032 0.0
C2057 C 0.25987 0.20745 0.43183 0.0
C2058 C 0.25363 0.22716 0.41307 0.0
C2059 C 0.26851 0.26145 0.37972 0.0
C2060 C 0.28962 0.27621 0.36571 0.0
C2061 C 0.27476 0.24473 0.40147 0.0
C2062 C 0.31719 0.2769 0.37594 0.0
C2063 C 0.3236 0.26108 0.39825 0.0
H2064 H 0.36518 0.59985 0.53045 0.0
H2065 H 0.40686 0.66163 0.47951 0.0
H2066 H 0.44414 0.63266 0.47657 0.0
H2067 H 0.46293 0.58635 0.48492 0.0
H2068 H 0.41993 0.52597 0.53651 0.0
H2069 H 0.38556 0.55739 0.54239 0.0
C2070 C 0.38259 0.60735 0.51904 0.0
C2071 C 0.38291 0.63292 0.50512 0.0
C2072 C 0.40377 0.59035 0.5171 0.0
C2073 C 0.4059 0.64215 0.49056 0.0
C2074 C 0.4272 0.62537 0.48865 0.0
C2075 C 0.44628 0.58037 0.49777 0.0
C2076 C 0.44421 0.55352 0.5101 0.0
C2077 C 0.42609 0.5989 0.50125 0.0
C2078 C 0.42212 0.54612 0.52638 0.0
C2079 C 0.40234 0.56422 0.52993 0.0
H2080 H 0.82986 0.98539 0.51243 0.0
H2081 H 0.85691 0.94338 0.58373 0.0
H2082 H 0.90375 0.95063 0.56976 0.0
H2083 H 0.93672 0.96813 0.53657 0.0
H2084 H 0.90846 0.00863 0.46452 0.0
H2085 H 0.86238 1.00251 0.47946 0.0
C2086 C 0.84605 0.97807 0.52508 0.0
C2087 C 0.84002 0.96398 0.54909 0.0
C2088 C 0.87267 0.9818 0.51666 0.0
C2089 C 0.86111 0.95425 0.56508 0.0
C2090 C 0.88785 0.95836 0.5571 0.0
C2091 C 0.92048 0.97563 0.52418 0.0
C2092 C 0.92609 0.98878 0.49948 0.0
C2093 C 0.89383 0.97193 0.53279 0.0
C2094 C 0.90476 0.99824 0.48354 0.0
C2095 C 0.87836 0.99489 0.49211 0.0
H2096 H 0.8181 0.14024 0.28172 0.0
H2097 H 0.7921 0.10636 0.19288 0.0
H2098 H 0.76511 0.1462 0.18957 0.0
H2099 H 0.75041 0.19211 0.21161 0.0
H2100 H 0.77906 0.22707 0.29958 0.0
H2101 H 0.80357 0.18544 0.30356 0.0
C2102 C 0.80628 0.14126 0.26167 0.0
C2103 C 0.80701 0.12011 0.23763 0.0
C2104 C 0.79143 0.16462 0.25975 0.0
C2105 C 0.79189 0.12224 0.21174 0.0
C2106 C 0.77648 0.14507 0.20983 0.0
C2107 C 0.76183 0.19035 0.23168 0.0
C2108 C 0.76299 0.21255 0.25531 0.0
C2109 C 0.7763 0.16657 0.23363 0.0
C2110 C 0.77808 0.21033 0.28109 0.0
C2111 C 0.79201 0.1865 0.28338 0.0
H2112 H 0.70222 0.13585 0.98347 0.0
H2113 H 0.72681 0.12033 0.06915 0.0
H2114 H 0.67892 0.10305 0.07621 0.0
H2115 H 0.63003 0.09066 0.05767 0.0
H2116 H 0.60515 0.10582 0.9721 0.0
H2117 H 0.65303 0.12492 0.96542 0.0
C2118 C 0.6971 0.12884 0.00373 0.0
C2119 C 0.71817 0.12928 0.02566 0.0
C2120 C 0.66941 0.11875 0.00767 0.0
C2121 C 0.71109 0.12014 0.05181 0.0
C2122 C 0.68367 0.11021 0.05591 0.0
C2123 C 0.63512 0.0983 0.03763 0.0
C2124 C 0.61419 0.09684 0.01541 0.0
C2125 C 0.66268 0.10916 0.03393 0.0
C2126 C 0.62098 0.10678 0.98954 0.0
C2127 C 0.64834 0.11766 0.98569 0.0
H2128 H 0.20673 0.44814 0.33546 0.0
H2129 H 0.14762 0.40373 0.26477 0.0
H2130 H 0.17666 0.36665 0.25395 0.0
H2131 H 0.21855 0.34628 0.26487 0.0
H2132 H 0.27857 0.39154 0.33419 0.0
H2133 H 0.24951 0.42883 0.34524 0.0
C2134 C 0.2002 0.43041 0.31763 0.0
C2135 C 0.17492 0.42878 0.30103 0.0
C2136 C 0.21715 0.40924 0.31133 0.0
C2137 C 0.16697 0.4057 0.27787 0.0
C2138 C 0.18353 0.38437 0.27171 0.0
C2139 C 0.22521 0.3643 0.28243 0.0
C2140 C 0.25054 0.36609 0.29887 0.0
C2141 C 0.20858 0.38583 0.28836 0.0
C2142 C 0.25913 0.38972 0.32129 0.0
C2143 C 0.2425 0.411 0.32761 0.0
H2144 H 0.22973 0.52116 0.03177 0.0
H2145 H 0.19821 0.42664 0.02811 0.0
H2146 H 0.15163 0.43497 0.01587 0.0
H2147 H 0.11945 0.46949 0.00976 0.0
H2148 H 0.15051 0.56414 0.01505 0.0
H2149 H 0.19773 0.55535 0.02273 0.0
C2150 C 0.21272 0.50233 0.02806 0.0
C2151 C 0.21747 0.47336 0.03113 0.0
C2152 C 0.1859 0.50732 0.02135 0.0
C2153 C 0.19516 0.44921 0.02612 0.0
C2154 C 0.16849 0.45394 0.01911 0.0
C2155 C 0.13661 0.48812 0.0122 0.0
C2156 C 0.13162 0.51741 0.01195 0.0
C2157 C 0.16357 0.48295 0.01717 0.0
C2158 C 0.15393 0.5414 0.01518 0.0
C2159 C 0.18089 0.53638 0.01969 0.0
H2160 H 0.81016 0.97541 0.28664 0.0
H2161 H 0.81931 0.96177 0.19642 0.0
H2162 H 0.79998 0.90862 0.19405 0.0
H2163 H 0.78285 0.86514 0.21823 0.0
H2164 H 0.77408 0.87969 0.30859 0.0
H2165 H 0.7908 0.93296 0.31003 0.0
C2166 C 0.80771 0.96096 0.26634 0.0
C2167 C 0.81637 0.97281 0.24181 0.0
C2168 C 0.79678 0.93029 0.26512 0.0
C2169 C 0.81287 0.95349 0.21573 0.0
C2170 C 0.80189 0.92295 0.21435 0.0
C2171 C 0.78439 0.87996 0.23819 0.0
C2172 C 0.77729 0.86807 0.26326 0.0
C2173 C 0.79415 0.91096 0.23901 0.0
C2174 C 0.77945 0.88787 0.2889 0.0
C2175 C 0.78905 0.91852 0.28981 0.0
H2176 H 0.66628 0.06168 0.76444 0.0
H2177 H 0.6818 0.08607 0.85602 0.0
H2178 H 0.70593 0.1355 0.84978 0.0
H2179 H 0.72098 0.17262 0.81861 0.0
H2180 H 0.7077 0.14856 0.72709 0.0
H2181 H 0.68457 0.0981 0.73293 0.0
C2182 C 0.67501 0.07781 0.78299 0.0
C2183 C 0.67205 0.07022 0.81066 0.0
C2184 C 0.68929 0.10621 0.77927 0.0
C2185 C 0.6838 0.09125 0.83449 0.0
C2186 C 0.69756 0.11959 0.83097 0.0
C2187 C 0.7132 0.15622 0.79995 0.0
C2188 C 0.71581 0.16419 0.77248 0.0
C2189 C 0.70021 0.12739 0.80351 0.0
C2190 C 0.70592 0.14279 0.74845 0.0
C2191 C 0.6926 0.11404 0.75181 0.0
loop_
_geom_bond_atom_site_label_1
_geom_bond_atom_site_label_2
_geom_bond_distance
_geom_bond_site_symmetry_2
_ccdc_geom_bond_type
Mg0 O1 2.028 . S
Mg0 O7 1.986 . S
Mg0 O9 2.114 1_455 S
Mg0 O10 2.251 1_455 S
Mg0 O13 2.010 . S
O1 Mg0 2.028 . S
O1 C4 1.250 . S
O2 Mg3 2.028 . S
O2 C4 1.248 1_655 S
Mg3 O2 2.028 . S
Mg3 O8 2.032 . S
Mg3 O10 2.079 . S
C4 O1 1.250 . S
C4 O2 1.248 1_455 S
C5 O6 1.264 . S
C5 O13 1.249 . S
O6 C5 1.264 . S
O7 Mg0 1.986 . S
O7 C11 1.246 . S
O8 Mg3 2.032 . S
O8 C11 1.259 1_655 S
O9 Mg0 2.114 1_655 S
O9 C12 1.252 . S
O10 Mg0 2.251 1_655 S
O10 Mg3 2.079 . S
O10 C12 1.273 . S
C11 O7 1.246 . S
C11 O8 1.259 1_455 S
C12 O9 1.252 . S
C12 O10 1.273 . S
O13 Mg0 2.010 . S
O13 C5 1.249 . S
Mg14 O15 2.028 . S
Mg14 O21 1.986 . S
Mg14 O23 2.114 1_455 S
Mg14 O24 2.251 1_455 S
Mg14 O27 2.010 . S
O15 Mg14 2.028 . S
O15 C18 1.250 1_455 S
O16 Mg17 2.028 . S
O16 C18 1.248 . S
Mg17 O16 2.028 . S
Mg17 O22 2.032 . S
Mg17 O24 2.079 . S
C18 O15 1.250 1_655 S
C18 O16 1.248 . S
C19 O20 1.264 . S
C19 O27 1.249 . S
O20 C19 1.264 . S
O21 Mg14 1.986 . S
O21 C25 1.246 1_455 S
O22 Mg17 2.032 . S
O22 C25 1.259 . S
O23 Mg14 2.114 1_655 S
O23 C26 1.252 . S
O24 Mg14 2.251 1_655 S
O24 Mg17 2.079 . S
O24 C26 1.273 . S
C25 O21 1.246 1_655 S
C25 O22 1.259 . S
C26 O23 1.252 . S
C26 O24 1.273 . S
O27 Mg14 2.010 . S
O27 C19 1.249 . S
Mg28 O29 2.028 . S
Mg28 O35 1.986 . S
Mg28 O37 2.114 . S
Mg28 O38 2.251 . S
Mg28 O41 2.010 . S
O29 Mg28 2.028 . S
O29 C32 1.250 . S
O30 Mg31 2.028 . S
O30 C32 1.248 . S
Mg31 O30 2.028 . S
Mg31 O36 2.032 . S
Mg31 O38 2.079 . S
C32 O29 1.250 . S
C32 O30 1.248 . S
C33 O34 1.264 . S
C33 O41 1.249 . S
O34 C33 1.264 . S
O35 Mg28 1.986 . S
O35 C39 1.246 . S
O36 Mg31 2.032 . S
O36 C39 1.259 . S
O37 Mg28 2.114 . S
O37 C40 1.252 . S
O38 Mg28 2.251 . S
O38 Mg31 2.079 . S
O38 C40 1.273 . S
C39 O35 1.246 . S
C39 O36 1.259 . S
C40 O37 1.252 . S
C40 O38 1.273 . S
O41 Mg28 2.010 . S
O41 C33 1.249 . S
Mg42 O43 2.028 . S
Mg42 O49 1.986 . S
Mg42 O51 2.114 . S
Mg42 O52 2.251 . S
Mg42 O55 2.010 . S
O43 Mg42 2.028 . S
O43 C46 1.250 . S
O44 Mg45 2.028 . S
O44 C46 1.248 . S
Mg45 O44 2.028 . S
Mg45 O50 2.032 . S
Mg45 O52 2.079 . S
C46 O43 1.250 . S
C46 O44 1.248 . S
C47 O48 1.264 . S
C47 O55 1.249 . S
O48 C47 1.264 . S
O49 Mg42 1.986 . S
O49 C53 1.246 . S
O50 Mg45 2.032 . S
O50 C53 1.259 . S
O51 Mg42 2.114 . S
O51 C54 1.252 . S
O52 Mg42 2.251 . S
O52 Mg45 2.079 . S
O52 C54 1.273 . S
C53 O49 1.246 . S
C53 O50 1.259 . S
C54 O51 1.252 . S
C54 O52 1.273 . S
O55 Mg42 2.010 . S
O55 C47 1.249 . S
Mg56 O57 2.028 . S
Mg56 O63 1.986 . S
Mg56 O65 2.114 1_455 S
Mg56 O66 2.251 1_455 S
Mg56 O69 2.010 . S
O57 Mg56 2.028 . S
O57 C60 1.250 1_455 S
O58 Mg59 2.028 . S
O58 C60 1.248 . S
Mg59 O58 2.028 . S
Mg59 O64 2.032 . S
Mg59 O66 2.079 . S
C60 O57 1.250 1_655 S
C60 O58 1.248 . S
C61 O62 1.264 . S
C61 O69 1.249 . S
O62 C61 1.264 . S
O63 Mg56 1.986 . S
O63 C67 1.246 . S
O64 Mg59 2.032 . S
O64 C67 1.259 1_655 S
O65 Mg56 2.114 1_655 S
O65 C68 1.252 . S
O66 Mg56 2.251 1_655 S
O66 Mg59 2.079 . S
O66 C68 1.273 . S
C67 O63 1.246 . S
C67 O64 1.259 1_455 S
C68 O65 1.252 . S
C68 O66 1.273 . S
O69 Mg56 2.010 . S
O69 C61 1.249 . S
Mg70 O71 2.028 . S
Mg70 O77 1.986 . S
Mg70 O79 2.114 . S
Mg70 O80 2.251 . S
Mg70 O83 2.010 . S
O71 Mg70 2.028 . S
O71 C74 1.250 . S
O72 Mg73 2.028 . S
O72 C74 1.248 . S
Mg73 O72 2.028 . S
Mg73 O78 2.032 . S
Mg73 O80 2.079 . S
C74 O71 1.250 . S
C74 O72 1.248 . S
C75 O76 1.264 . S
C75 O83 1.249 . S
O76 C75 1.264 . S
O77 Mg70 1.986 . S
O77 C81 1.246 . S
O78 Mg73 2.032 . S
O78 C81 1.259 . S
O79 Mg70 2.114 . S
O79 C82 1.252 . S
O80 Mg70 2.251 . S
O80 Mg73 2.079 . S
O80 C82 1.273 . S
C81 O77 1.246 . S
C81 O78 1.259 . S
C82 O79 1.252 . S
C82 O80 1.273 . S
O83 Mg70 2.010 . S
O83 C75 1.249 . S
Mg84 O85 2.028 . S
Mg84 O91 1.986 . S
Mg84 O93 2.114 . S
Mg84 O94 2.251 . S
Mg84 O97 2.010 . S
O85 Mg84 2.028 . S
O85 C88 1.250 . S
O86 Mg87 2.028 . S
O86 C88 1.248 . S
Mg87 O86 2.028 . S
Mg87 O92 2.032 . S
Mg87 O94 2.079 . S
C88 O85 1.250 . S
C88 O86 1.248 . S
C89 O90 1.264 . S
C89 O97 1.249 . S
O90 C89 1.264 . S
O91 Mg84 1.986 . S
O91 C95 1.246 . S
O92 Mg87 2.032 . S
O92 C95 1.259 . S
O93 Mg84 2.114 . S
O93 C96 1.252 . S
O94 Mg84 2.251 . S
O94 Mg87 2.079 . S
O94 C96 1.273 . S
C95 O91 1.246 . S
C95 O92 1.259 . S
C96 O93 1.252 . S
C96 O94 1.273 . S
O97 Mg84 2.010 . S
O97 C89 1.249 . S
Mg98 O99 2.028 . S
Mg98 O105 1.986 . S
Mg98 O107 2.114 1_455 S
Mg98 O108 2.251 1_455 S
Mg98 O111 2.010 . S
O99 Mg98 2.028 . S
O99 C102 1.250 . S
O100 Mg101 2.028 . S
O100 C102 1.248 1_655 S
Mg101 O100 2.028 . S
Mg101 O106 2.032 . S
Mg101 O108 2.079 . S
C102 O99 1.250 . S
C102 O100 1.248 1_455 S
C103 O104 1.264 . S
C103 O111 1.249 . S
O104 C103 1.264 . S
O105 Mg98 1.986 . S
O105 C109 1.246 . S
O106 Mg101 2.032 . S
O106 C109 1.259 1_655 S
O107 Mg98 2.114 1_655 S
O107 C110 1.252 . S
O108 Mg98 2.251 1_655 S
O108 Mg101 2.079 . S
O108 C110 1.273 . S
C109 O105 1.246 . S
C109 O106 1.259 1_455 S
C110 O107 1.252 . S
C110 O108 1.273 . S
O111 Mg98 2.010 . S
O111 C103 1.249 . S
Mg112 O113 2.028 . S
Mg112 O119 1.986 . S
Mg112 O121 2.114 . S
Mg112 O122 2.251 . S
Mg112 O125 2.010 . S
O113 Mg112 2.028 . S
O113 C116 1.250 . S
O114 Mg115 2.028 . S
O114 C116 1.248 . S
Mg115 O114 2.028 . S
Mg115 O120 2.032 . S
Mg115 O122 2.079 . S
C116 O113 1.250 . S
C116 O114 1.248 . S
C117 O118 1.264 . S
C117 O125 1.249 . S
O118 C117 1.264 . S
O119 Mg112 1.986 . S
O119 C123 1.246 . S
O120 Mg115 2.032 . S
O120 C123 1.259 . S
O121 Mg112 2.114 . S
O121 C124 1.252 . S
O122 Mg112 2.251 . S
O122 Mg115 2.079 . S
O122 C124 1.273 . S
C123 O119 1.246 . S
C123 O120 1.259 . S
C124 O121 1.252 . S
C124 O122 1.273 . S
O125 Mg112 2.010 . S
O125 C117 1.249 . S
Mg126 O127 2.028 . S
Mg126 O133 1.986 . S
Mg126 O135 2.114 . S
Mg126 O136 2.251 . S
Mg126 O139 2.010 . S
O127 Mg126 2.028 . S
O127 C130 1.250 . S
O128 Mg129 2.028 . S
O128 C130 1.248 . S
Mg129 O128 2.028 . S
Mg129 O134 2.032 . S
Mg129 O136 2.079 . S
C130 O127 1.250 . S
C130 O128 1.248 . S
C131 O132 1.264 . S
C131 O139 1.249 . S
O132 C131 1.264 . S
O133 Mg126 1.986 . S
O133 C137 1.246 . S
O134 Mg129 2.032 . S
O134 C137 1.259 . S
O135 Mg126 2.114 . S
O135 C138 1.252 . S
O136 Mg126 2.251 . S
O136 Mg129 2.079 . S
O136 C138 1.273 . S
C137 O133 1.246 . S
C137 O134 1.259 . S
C138 O135 1.252 . S
C138 O136 1.273 . S
O139 Mg126 2.010 . S
O139 C131 1.249 . S
Mg140 O141 2.028 1_565 S
Mg140 O147 1.986 . S
Mg140 O149 2.114 1_565 S
Mg140 O150 2.251 . S
Mg140 O153 2.010 . S
O141 Mg140 2.028 1_545 S
O141 C144 1.250 . S
O142 Mg143 2.028 . S
O142 C144 1.248 . S
Mg143 O142 2.028 . S
Mg143 O148 2.032 1_545 S
Mg143 O150 2.079 1_545 S
C144 O141 1.250 . S
C144 O142 1.248 . S
C145 O146 1.264 . S
C145 O153 1.249 . S
O146 C145 1.264 . S
O147 Mg140 1.986 . S
O147 C151 1.246 . S
O148 Mg143 2.032 1_565 S
O148 C151 1.259 . S
O149 Mg140 2.114 1_545 S
O149 C152 1.252 . S
O150 Mg140 2.251 . S
O150 Mg143 2.079 1_565 S
O150 C152 1.273 1_565 S
C151 O147 1.246 . S
C151 O148 1.259 . S
C152 O149 1.252 . S
C152 O150 1.273 1_545 S
O153 Mg140 2.010 . S
O153 C145 1.249 . S
Mg154 O155 2.028 . S
Mg154 O161 1.986 . S
Mg154 O163 2.114 . S
Mg154 O164 2.251 . S
Mg154 O167 2.010 . S
O155 Mg154 2.028 . S
O155 C158 1.250 1_554 S
O156 Mg157 2.028 1_556 S
O156 C158 1.248 . S
Mg157 O156 2.028 1_554 S
Mg157 O162 2.032 . S
Mg157 O164 2.079 . S
C158 O155 1.250 1_556 S
C158 O156 1.248 . S
C159 O160 1.264 . S
C159 O167 1.249 . S
O160 C159 1.264 . S
O161 Mg154 1.986 . S
O161 C165 1.246 . S
O162 Mg157 2.032 . S
O162 C165 1.259 . S
O163 Mg154 2.114 . S
O163 C166 1.252 . S
O164 Mg154 2.251 . S
O164 Mg157 2.079 . S
O164 C166 1.273 . S
C165 O161 1.246 . S
C165 O162 1.259 . S
C166 O163 1.252 . S
C166 O164 1.273 . S
O167 Mg154 2.010 . S
O167 C159 1.249 . S
Mg168 O169 2.028 . S
Mg168 O175 1.986 . S
Mg168 O177 2.114 . S
Mg168 O178 2.251 . S
Mg168 O181 2.010 . S
O169 Mg168 2.028 . S
O169 C172 1.250 1_554 S
O170 Mg171 2.028 1_556 S
O170 C172 1.248 . S
Mg171 O170 2.028 1_554 S
Mg171 O176 2.032 . S
Mg171 O178 2.079 . S
C172 O169 1.250 1_556 S
C172 O170 1.248 . S
C173 O174 1.264 . S
C173 O181 1.249 . S
O174 C173 1.264 . S
O175 Mg168 1.986 . S
O175 C179 1.246 . S
O176 Mg171 2.032 . S
O176 C179 1.259 . S
O177 Mg168 2.114 . S
O177 C180 1.252 . S
O178 Mg168 2.251 . S
O178 Mg171 2.079 . S
O178 C180 1.273 . S
C179 O175 1.246 . S
C179 O176 1.259 . S
C180 O177 1.252 . S
C180 O178 1.273 . S
O181 Mg168 2.010 . S
O181 C173 1.249 . S
Mg182 O183 2.028 1_556 S
Mg182 O189 1.986 . S
Mg182 O191 2.114 1_556 S
Mg182 O192 2.251 . S
Mg182 O195 2.010 . S
O183 Mg182 2.028 1_554 S
O183 C186 1.250 . S
O184 Mg185 2.028 . S
O184 C186 1.248 . S
Mg185 O184 2.028 . S
Mg185 O190 2.032 1_554 S
Mg185 O192 2.079 1_554 S
C186 O183 1.250 . S
C186 O184 1.248 . S
C187 O188 1.264 . S
C187 O195 1.249 . S
O188 C187 1.264 . S
O189 Mg182 1.986 . S
O189 C193 1.246 . S
O190 Mg185 2.032 1_556 S
O190 C193 1.259 . S
O191 Mg182 2.114 1_554 S
O191 C194 1.252 . S
O192 Mg182 2.251 . S
O192 Mg185 2.079 1_556 S
O192 C194 1.273 1_556 S
C193 O189 1.246 . S
C193 O190 1.259 . S
C194 O191 1.252 . S
C194 O192 1.273 1_554 S
O195 Mg182 2.010 . S
O195 C187 1.249 . S
Mg196 O197 2.028 . S
Mg196 O203 1.986 . S
Mg196 O205 2.114 . S
Mg196 O206 2.251 . S
Mg196 O209 2.010 . S
O197 Mg196 2.028 . S
O197 C200 1.250 . S
O198 Mg199 2.028 . S
O198 C200 1.248 . S
Mg199 O198 2.028 . S
Mg199 O204 2.032 . S
Mg199 O206 2.079 . S
C200 O197 1.250 . S
C200 O198 1.248 . S
C201 O202 1.264 . S
C201 O209 1.249 . S
O202 C201 1.264 . S
O203 Mg196 1.986 . S
O203 C207 1.246 . S
O204 Mg199 2.032 . S
O204 C207 1.259 . S
O205 Mg196 2.114 . S
O205 C208 1.252 . S
O206 Mg196 2.251 . S
O206 Mg199 2.079 . S
O206 C208 1.273 . S
C207 O203 1.246 . S
C207 O204 1.259 . S
C208 O205 1.252 . S
C208 O206 1.273 . S
O209 Mg196 2.010 . S
O209 C201 1.249 . S
Mg210 O211 2.028 . S
Mg210 O217 1.986 . S
Mg210 O219 2.114 . S
Mg210 O220 2.251 . S
Mg210 O223 2.010 . S
O211 Mg210 2.028 . S
O211 C214 1.250 . S
O212 Mg213 2.028 . S
O212 C214 1.248 . S
Mg213 O212 2.028 . S
Mg213 O218 2.032 . S
Mg213 O220 2.079 . S
C214 O211 1.250 . S
C214 O212 1.248 . S
C215 O216 1.264 . S
C215 O223 1.249 . S
O216 C215 1.264 . S
O217 Mg210 1.986 . S
O217 C221 1.246 . S
O218 Mg213 2.032 . S
O218 C221 1.259 . S
O219 Mg210 2.114 . S
O219 C222 1.252 . S
O220 Mg210 2.251 . S
O220 Mg213 2.079 . S
O220 C222 1.273 . S
C221 O217 1.246 . S
C221 O218 1.259 . S
C222 O219 1.252 . S
C222 O220 1.273 . S
O223 Mg210 2.010 . S
O223 C215 1.249 . S
Mg224 O225 2.028 . S
Mg224 O231 1.986 . S
Mg224 O233 2.114 . S
Mg224 O234 2.251 . S
Mg224 O237 2.010 . S
O225 Mg224 2.028 . S
O225 C228 1.250 . S
O226 Mg227 2.028 . S
O226 C228 1.248 . S
Mg227 O226 2.028 . S
Mg227 O232 2.032 . S
Mg227 O234 2.079 . S
C228 O225 1.250 . S
C228 O226 1.248 . S
C229 O230 1.264 . S
C229 O237 1.249 . S
O230 C229 1.264 . S
O231 Mg224 1.986 . S
O231 C235 1.246 . S
O232 Mg227 2.032 . S
O232 C235 1.259 . S
O233 Mg224 2.114 . S
O233 C236 1.252 . S
O234 Mg224 2.251 . S
O234 Mg227 2.079 . S
O234 C236 1.273 . S
C235 O231 1.246 . S
C235 O232 1.259 . S
C236 O233 1.252 . S
C236 O234 1.273 . S
O237 Mg224 2.010 . S
O237 C229 1.249 . S
Mg238 O239 2.028 . S
Mg238 O245 1.986 . S
Mg238 O247 2.114 . S
Mg238 O248 2.251 . S
Mg238 O251 2.010 . S
O239 Mg238 2.028 . S
O239 C242 1.250 . S
O240 Mg241 2.028 . S
O240 C242 1.248 . S
Mg241 O240 2.028 . S
Mg241 O246 2.032 . S
Mg241 O248 2.079 . S
C242 O239 1.250 . S
C242 O240 1.248 . S
C243 O244 1.264 . S
C243 O251 1.249 . S
O244 C243 1.264 . S
O245 Mg238 1.986 . S
O245 C249 1.246 . S
O246 Mg241 2.032 . S
O246 C249 1.259 . S
O247 Mg238 2.114 . S
O247 C250 1.252 . S
O248 Mg238 2.251 . S
O248 Mg241 2.079 . S
O248 C250 1.273 . S
C249 O245 1.246 . S
C249 O246 1.259 . S
C250 O247 1.252 . S
C250 O248 1.273 . S
O251 Mg238 2.010 . S
O251 C243 1.249 . S
Mg252 O253 2.028 . S
Mg252 O259 1.986 . S
Mg252 O261 2.114 . S
Mg252 O262 2.251 . S
Mg252 O265 2.010 . S
O253 Mg252 2.028 . S
O253 C256 1.250 . S
O254 Mg255 2.028 . S
O254 C256 1.248 . S
Mg255 O254 2.028 . S
Mg255 O260 2.032 . S
Mg255 O262 2.079 . S
C256 O253 1.250 . S
C256 O254 1.248 . S
C257 O258 1.264 . S
C257 O265 1.249 . S
O258 C257 1.264 . S
O259 Mg252 1.986 . S
O259 C263 1.246 . S
O260 Mg255 2.032 . S
O260 C263 1.259 . S
O261 Mg252 2.114 . S
O261 C264 1.252 . S
O262 Mg252 2.251 . S
O262 Mg255 2.079 . S
O262 C264 1.273 . S
C263 O259 1.246 . S
C263 O260 1.259 . S
C264 O261 1.252 . S
C264 O262 1.273 . S
O265 Mg252 2.010 . S
O265 C257 1.249 . S
Mg266 O267 2.036 . S
Mg266 O273 1.980 1_545 S
Mg266 O275 2.118 . S
Mg266 O276 2.251 . S
Mg266 O279 2.010 1_545 S
O267 Mg266 2.036 . S
O267 C270 1.250 . S
O268 Mg269 2.028 . S
O268 C270 1.248 . S
Mg269 O268 2.028 . S
Mg269 O274 2.032 1_545 S
Mg269 O276 2.079 . S
C270 O267 1.250 . S
C270 O268 1.248 . S
C271 O272 1.264 . S
C271 O279 1.249 . S
O272 C271 1.264 . S
O273 Mg266 1.980 1_565 S
O273 C277 1.246 . S
O274 Mg269 2.032 1_565 S
O274 C277 1.259 . S
O275 Mg266 2.118 . S
O275 C278 1.252 . S
O276 Mg266 2.251 . S
O276 Mg269 2.079 . S
O276 C278 1.273 . S
C277 O273 1.246 . S
C277 O274 1.259 . S
C278 O275 1.252 . S
C278 O276 1.273 . S
O279 Mg266 2.010 1_565 S
O279 C271 1.249 . S
Mg280 O281 2.028 1_556 S
Mg280 O287 1.986 . S
Mg280 O289 2.114 1_556 S
Mg280 O290 2.251 . S
Mg280 O293 2.010 . S
O281 Mg280 2.028 1_554 S
O281 C284 1.250 . S
O282 Mg283 2.028 . S
O282 C284 1.248 . S
Mg283 O282 2.028 . S
Mg283 O288 2.032 1_554 S
Mg283 O290 2.079 1_554 S
C284 O281 1.250 . S
C284 O282 1.248 . S
C285 O286 1.264 . S
C285 O293 1.249 . S
O286 C285 1.264 . S
O287 Mg280 1.986 . S
O287 C291 1.246 . S
O288 Mg283 2.032 1_556 S
O288 C291 1.259 . S
O289 Mg280 2.114 1_554 S
O289 C292 1.252 . S
O290 Mg280 2.251 . S
O290 Mg283 2.079 1_556 S
O290 C292 1.273 1_556 S
C291 O287 1.246 . S
C291 O288 1.259 . S
C292 O289 1.252 . S
C292 O290 1.273 1_554 S
O293 Mg280 2.010 . S
O293 C285 1.249 . S
Mg294 O295 2.028 . S
Mg294 O301 1.986 . S
Mg294 O303 2.114 . S
Mg294 O304 2.251 . S
Mg294 O307 2.010 . S
O295 Mg294 2.028 . S
O295 C298 1.250 . S
O296 Mg297 2.028 . S
O296 C298 1.248 . S
Mg297 O296 2.028 . S
Mg297 O302 2.032 . S
Mg297 O304 2.079 . S
C298 O295 1.250 . S
C298 O296 1.248 . S
C299 O300 1.264 . S
C299 O307 1.249 . S
O300 C299 1.264 . S
O301 Mg294 1.986 . S
O301 C305 1.246 . S
O302 Mg297 2.032 . S
O302 C305 1.259 . S
O303 Mg294 2.114 . S
O303 C306 1.252 . S
O304 Mg294 2.251 . S
O304 Mg297 2.079 . S
O304 C306 1.273 . S
C305 O301 1.246 . S
C305 O302 1.259 . S
C306 O303 1.252 . S
C306 O304 1.273 . S
O307 Mg294 2.010 . S
O307 C299 1.249 . S
Mg308 O309 2.028 . S
Mg308 O315 1.986 . S
Mg308 O317 2.114 . S
Mg308 O318 2.251 . S
Mg308 O321 2.010 . S
O309 Mg308 2.028 . S
O309 C312 1.250 . S
O310 Mg311 2.028 . S
O310 C312 1.248 . S
Mg311 O310 2.028 . S
Mg311 O316 2.032 . S
Mg311 O318 2.079 . S
C312 O309 1.250 . S
C312 O310 1.248 . S
C313 O314 1.264 . S
C313 O321 1.249 . S
O314 C313 1.264 . S
O315 Mg308 1.986 . S
O315 C319 1.246 . S
O316 Mg311 2.032 . S
O316 C319 1.259 . S
O317 Mg308 2.114 . S
O317 C320 1.252 . S
O318 Mg308 2.251 . S
O318 Mg311 2.079 . S
O318 C320 1.273 . S
C319 O315 1.246 . S
C319 O316 1.259 . S
C320 O317 1.252 . S
C320 O318 1.273 . S
O321 Mg308 2.010 . S
O321 C313 1.249 . S
Mg322 O323 2.028 . S
Mg322 O329 1.986 . S
Mg322 O331 2.114 . S
Mg322 O332 2.251 . S
Mg322 O335 2.010 . S
O323 Mg322 2.028 . S
O323 C326 1.250 . S
O324 Mg325 2.028 . S
O324 C326 1.248 . S
Mg325 O324 2.028 . S
Mg325 O330 2.032 . S
Mg325 O332 2.079 . S
C326 O323 1.250 . S
C326 O324 1.248 . S
C327 O328 1.264 . S
C327 O335 1.249 . S
O328 C327 1.264 . S
O329 Mg322 1.986 . S
O329 C333 1.246 . S
O330 Mg325 2.032 . S
O330 C333 1.259 . S
O331 Mg322 2.114 . S
O331 C334 1.252 . S
O332 Mg322 2.251 . S
O332 Mg325 2.079 . S
O332 C334 1.273 . S
C333 O329 1.246 . S
C333 O330 1.259 . S
C334 O331 1.252 . S
C334 O332 1.273 . S
O335 Mg322 2.010 . S
O335 C327 1.249 . S
Tb336 O339 2.453 . S
Tb336 O340 2.596 . S
Tb336 O341 2.374 1_554 S
Tb336 O349 2.347 1_455 S
Tb336 O351 2.353 . S
Tb336 O353 2.427 . S
Tb336 O354 2.513 1_554 S
C337 O341 1.251 . S
C337 O343 1.263 1_445 S
Tb338 O340 2.343 1_665 S
Tb338 O343 2.353 1_554 S
Tb338 O346 2.429 . S
Tb338 O347 2.513 . S
Tb338 O348 2.453 1_564 S
Tb338 O349 2.606 1_565 S
Tb338 O350 2.374 1_565 S
O339 Tb336 2.453 . S
O339 C355 1.245 . S
O340 Tb336 2.596 . S
O340 Tb338 2.343 1_445 S
O340 C355 1.259 . S
O341 Tb336 2.374 1_556 S
O341 C337 1.251 . S
C342 O346 1.303 1_455 S
C342 O347 1.246 1_455 S
O343 C337 1.263 1_665 S
O343 Tb338 2.353 1_556 S
C344 O348 1.245 . S
C344 O349 1.255 1_556 S
C345 O350 1.250 . S
C345 O351 1.263 1_655 S
O346 Tb338 2.429 . S
O346 C342 1.303 1_655 S
O347 Tb338 2.513 . S
O347 C342 1.246 1_655 S
O348 Tb338 2.453 1_546 S
O348 C344 1.245 . S
O349 Tb336 2.347 1_655 S
O349 Tb338 2.606 1_545 S
O349 C344 1.255 1_554 S
O350 Tb338 2.374 1_545 S
O350 C345 1.250 . S
O351 Tb336 2.353 . S
O351 C345 1.263 1_455 S
C352 O353 1.275 1_556 S
C352 O354 1.246 . S
O353 Tb336 2.427 . S
O353 C352 1.275 1_554 S
O354 Tb336 2.513 1_556 S
O354 C352 1.246 . S
C355 O339 1.245 . S
C355 O340 1.259 . S
Tb356 O359 2.453 . S
Tb356 O360 2.596 . S
Tb356 O361 2.374 . S
Tb356 O369 2.343 . S
Tb356 O371 2.353 . S
Tb356 O373 2.427 . S
Tb356 O374 2.513 . S
C357 O361 1.251 . S
C357 O363 1.263 . S
Tb358 O360 2.343 . S
Tb358 O363 2.353 . S
Tb358 O366 2.427 . S
Tb358 O367 2.513 . S
Tb358 O368 2.453 . S
Tb358 O369 2.596 . S
Tb358 O370 2.374 . S
O359 Tb356 2.453 . S
O359 C375 1.245 . S
O360 Tb356 2.596 . S
O360 Tb358 2.343 . S
O360 C375 1.259 . S
O361 Tb356 2.374 . S
O361 C357 1.251 . S
C362 O366 1.275 . S
C362 O367 1.246 . S
O363 C357 1.263 . S
O363 Tb358 2.353 . S
C364 O368 1.245 . S
C364 O369 1.259 . S
C365 O370 1.250 . S
C365 O371 1.263 . S
O366 Tb358 2.427 . S
O366 C362 1.275 . S
O367 Tb358 2.513 . S
O367 C362 1.246 . S
O368 Tb358 2.453 . S
O368 C364 1.245 . S
O369 Tb356 2.343 . S
O369 Tb358 2.596 . S
O369 C364 1.259 . S
O370 Tb358 2.374 . S
O370 C365 1.250 . S
O371 Tb356 2.353 . S
O371 C365 1.263 . S
C372 O373 1.275 . S
C372 O374 1.246 . S
O373 Tb356 2.427 . S
O373 C372 1.275 . S
O374 Tb356 2.513 . S
O374 C372 1.246 . S
C375 O359 1.245 . S
C375 O360 1.259 . S
Tb376 O379 2.453 . S
Tb376 O380 2.596 . S
Tb376 O381 2.374 . S
Tb376 O389 2.343 . S
Tb376 O391 2.353 . S
Tb376 O393 2.427 . S
Tb376 O394 2.513 . S
C377 O381 1.251 . S
C377 O383 1.263 . S
Tb378 O380 2.343 . S
Tb378 O383 2.353 . S
Tb378 O386 2.427 . S
Tb378 O387 2.513 . S
Tb378 O388 2.453 1_545 S
Tb378 O389 2.596 . S
Tb378 O390 2.374 . S
O379 Tb376 2.453 . S
O379 C395 1.245 . S
O380 Tb376 2.596 . S
O380 Tb378 2.343 . S
O380 C395 1.259 . S
O381 Tb376 2.374 . S
O381 C377 1.251 . S
C382 O386 1.275 . S
C382 O387 1.246 . S
O383 C377 1.263 . S
O383 Tb378 2.353 . S
C384 O388 1.245 . S
C384 O389 1.259 1_565 S
C385 O390 1.250 . S
C385 O391 1.263 . S
O386 Tb378 2.427 . S
O386 C382 1.275 . S
O387 Tb378 2.513 . S
O387 C382 1.246 . S
O388 Tb378 2.453 1_565 S
O388 C384 1.245 . S
O389 Tb376 2.343 . S
O389 Tb378 2.596 . S
O389 C384 1.259 1_545 S
O390 Tb378 2.374 . S
O390 C385 1.250 . S
O391 Tb376 2.353 . S
O391 C385 1.263 . S
C392 O393 1.272 1_565 S
C392 O394 1.246 1_565 S
O393 Tb376 2.427 . S
O393 C392 1.272 1_545 S
O394 Tb376 2.513 . S
O394 C392 1.246 1_545 S
C395 O379 1.245 . S
C395 O380 1.259 . S
Tb396 O399 2.453 . S
Tb396 O400 2.596 . S
Tb396 O401 2.374 . S
Tb396 O409 2.343 . S
Tb396 O411 2.353 . S
Tb396 O413 2.427 . S
Tb396 O414 2.513 . S
C397 O401 1.251 . S
C397 O403 1.263 . S
Tb398 O400 2.343 . S
Tb398 O403 2.353 . S
Tb398 O406 2.427 . S
Tb398 O407 2.513 . S
Tb398 O408 2.453 . S
Tb398 O409 2.596 . S
Tb398 O410 2.374 . S
O399 Tb396 2.453 . S
O399 C415 1.245 . S
O400 Tb396 2.596 . S
O400 Tb398 2.343 . S
O400 C415 1.259 . S
O401 Tb396 2.374 . S
O401 C397 1.251 . S
C402 O406 1.275 . S
C402 O407 1.246 . S
O403 C397 1.263 . S
O403 Tb398 2.353 . S
C404 O408 1.245 . S
C404 O409 1.259 . S
C405 O410 1.250 . S
C405 O411 1.263 . S
O406 Tb398 2.427 . S
O406 C402 1.275 . S
O407 Tb398 2.513 . S
O407 C402 1.246 . S
O408 Tb398 2.453 . S
O408 C404 1.245 . S
O409 Tb396 2.343 . S
O409 Tb398 2.596 . S
O409 C404 1.259 . S
O410 Tb398 2.374 . S
O410 C405 1.250 . S
O411 Tb396 2.353 . S
O411 C405 1.263 . S
C412 O413 1.275 . S
C412 O414 1.246 . S
O413 Tb396 2.427 . S
O413 C412 1.275 . S
O414 Tb396 2.513 . S
O414 C412 1.246 . S
C415 O399 1.245 . S
C415 O400 1.259 . S
Tb416 O419 2.453 1_645 S
Tb416 O420 2.596 1_655 S
Tb416 O421 2.374 . S
Tb416 O429 2.336 . S
Tb416 O431 2.353 1_655 S
Tb416 O433 2.427 1_655 S
Tb416 O434 2.513 . S
C417 O421 1.251 . S
C417 O423 1.263 . S
Tb418 O420 2.343 . S
Tb418 O423 2.353 1_455 S
Tb418 O426 2.432 . S
Tb418 O427 2.513 . S
Tb418 O428 2.453 1_455 S
Tb418 O429 2.592 1_455 S
Tb418 O430 2.374 . S
O419 Tb416 2.453 1_465 S
O419 C435 1.245 . S
O420 Tb416 2.596 1_455 S
O420 Tb418 2.343 . S
O420 C435 1.259 1_545 S
O421 Tb416 2.374 . S
O421 C417 1.251 . S
C422 O426 1.301 . S
C422 O427 1.246 . S
O423 C417 1.263 . S
O423 Tb418 2.353 1_655 S
C424 O428 1.252 . S
C424 O429 1.260 . S
C425 O430 1.250 . S
C425 O431 1.263 . S
O426 Tb418 2.432 . S
O426 C422 1.301 . S
O427 Tb418 2.513 . S
O427 C422 1.246 . S
O428 Tb418 2.453 1_655 S
O428 C424 1.252 . S
O429 Tb416 2.336 . S
O429 Tb418 2.592 1_655 S
O429 C424 1.260 . S
O430 Tb418 2.374 . S
O430 C425 1.250 . S
O431 Tb416 2.353 1_455 S
O431 C425 1.263 . S
C432 O433 1.275 1_655 S
C432 O434 1.246 . S
O433 Tb416 2.427 1_455 S
O433 C432 1.275 1_455 S
O434 Tb416 2.513 . S
O434 C432 1.246 . S
C435 O419 1.245 . S
C435 O420 1.259 1_565 S
Tb436 O439 2.453 . S
Tb436 O440 2.596 . S
Tb436 O441 2.374 . S
Tb436 O449 2.343 . S
Tb436 O451 2.353 . S
Tb436 O453 2.427 . S
Tb436 O454 2.513 . S
C437 O441 1.251 . S
C437 O443 1.263 . S
Tb438 O440 2.343 . S
Tb438 O443 2.353 . S
Tb438 O446 2.427 . S
Tb438 O447 2.513 . S
Tb438 O448 2.453 . S
Tb438 O449 2.596 . S
Tb438 O450 2.374 . S
O439 Tb436 2.453 . S
O439 C455 1.245 . S
O440 Tb436 2.596 . S
O440 Tb438 2.343 . S
O440 C455 1.259 . S
O441 Tb436 2.374 . S
O441 C437 1.251 . S
C442 O446 1.275 . S
C442 O447 1.246 . S
O443 C437 1.263 . S
O443 Tb438 2.353 . S
C444 O448 1.245 . S
C444 O449 1.259 . S
C445 O450 1.250 . S
C445 O451 1.263 . S
O446 Tb438 2.427 . S
O446 C442 1.275 . S
O447 Tb438 2.513 . S
O447 C442 1.246 . S
O448 Tb438 2.453 . S
O448 C444 1.245 . S
O449 Tb436 2.343 . S
O449 Tb438 2.596 . S
O449 C444 1.259 . S
O450 Tb438 2.374 . S
O450 C445 1.250 . S
O451 Tb436 2.353 . S
O451 C445 1.263 . S
C452 O453 1.275 . S
C452 O454 1.246 . S
O453 Tb436 2.427 . S
O453 C452 1.275 . S
O454 Tb436 2.513 . S
O454 C452 1.246 . S
C455 O439 1.245 . S
C455 O440 1.259 . S
Tb456 O459 2.453 . S
Tb456 O460 2.596 . S
Tb456 O461 2.374 1_545 S
Tb456 O469 2.343 1_556 S
Tb456 O471 2.353 1_556 S
Tb456 O473 2.427 1_556 S
Tb456 O474 2.513 1_546 S
C457 O461 1.251 . S
C457 O463 1.263 1_556 S
Tb458 O460 2.343 1_554 S
Tb458 O463 2.353 1_545 S
Tb458 O466 2.427 . S
Tb458 O467 2.513 . S
Tb458 O468 2.453 . S
Tb458 O469 2.596 . S
Tb458 O470 2.374 . S
O459 Tb456 2.453 . S
O459 C475 1.245 . S
O460 Tb456 2.596 . S
O460 Tb458 2.343 1_556 S
O460 C475 1.259 . S
O461 Tb456 2.374 1_565 S
O461 C457 1.251 . S
C462 O466 1.275 . S
C462 O467 1.246 . S
O463 C457 1.263 1_554 S
O463 Tb458 2.353 1_565 S
C464 O468 1.245 . S
C464 O469 1.259 . S
C465 O470 1.250 . S
C465 O471 1.263 . S
O466 Tb458 2.427 . S
O466 C462 1.275 . S
O467 Tb458 2.513 . S
O467 C462 1.246 . S
O468 Tb458 2.453 . S
O468 C464 1.245 . S
O469 Tb456 2.343 1_554 S
O469 Tb458 2.596 . S
O469 C464 1.259 . S
O470 Tb458 2.374 . S
O470 C465 1.250 . S
O471 Tb456 2.353 1_554 S
O471 C465 1.263 . S
C472 O473 1.275 . S
C472 O474 1.246 1_545 S
O473 Tb456 2.427 1_554 S
O473 C472 1.275 . S
O474 Tb456 2.513 1_564 S
O474 C472 1.246 1_565 S
C475 O459 1.245 . S
C475 O460 1.259 . S
Tb476 O479 2.453 . S
Tb476 O480 2.596 . S
Tb476 O481 2.374 . S
Tb476 O489 2.343 . S
Tb476 O491 2.353 . S
Tb476 O493 2.427 . S
Tb476 O494 2.513 . S
C477 O481 1.251 . S
C477 O483 1.263 . S
Tb478 O480 2.343 . S
Tb478 O483 2.353 . S
Tb478 O486 2.427 . S
Tb478 O487 2.513 . S
Tb478 O488 2.453 . S
Tb478 O489 2.596 . S
Tb478 O490 2.374 . S
O479 Tb476 2.453 . S
O479 C495 1.245 . S
O480 Tb476 2.596 . S
O480 Tb478 2.343 . S
O480 C495 1.259 . S
O481 Tb476 2.374 . S
O481 C477 1.251 . S
C482 O486 1.275 . S
C482 O487 1.246 . S
O483 C477 1.263 . S
O483 Tb478 2.353 . S
C484 O488 1.245 . S
C484 O489 1.259 . S
C485 O490 1.250 . S
C485 O491 1.263 . S
O486 Tb478 2.427 . S
O486 C482 1.275 . S
O487 Tb478 2.513 . S
O487 C482 1.246 . S
O488 Tb478 2.453 . S
O488 C484 1.245 . S
O489 Tb476 2.343 . S
O489 Tb478 2.596 . S
O489 C484 1.259 . S
O490 Tb478 2.374 . S
O490 C485 1.250 . S
O491 Tb476 2.353 . S
O491 C485 1.263 . S
C492 O493 1.275 . S
C492 O494 1.246 . S
O493 Tb476 2.427 . S
O493 C492 1.275 . S
O494 Tb476 2.513 . S
O494 C492 1.246 . S
C495 O479 1.245 . S
C495 O480 1.259 . S
Tb496 O499 2.453 1_556 S
Tb496 O500 2.596 1_556 S
Tb496 O501 2.374 . S
Tb496 O509 2.343 . S
Tb496 O511 2.353 . S
Tb496 O513 2.427 . S
Tb496 O514 2.513 . S
C497 O501 1.251 1_554 S
C497 O503 1.263 . S
Tb498 O500 2.343 . S
Tb498 O503 2.353 . S
Tb498 O506 2.427 . S
Tb498 O507 2.513 . S
Tb498 O508 2.453 . S
Tb498 O509 2.596 1_554 S
Tb498 O510 2.374 . S
O499 Tb496 2.453 1_554 S
O499 C515 1.245 . S
O500 Tb496 2.596 1_554 S
O500 Tb498 2.343 . S
O500 C515 1.259 . S
O501 Tb496 2.374 . S
O501 C497 1.251 1_556 S
C502 O506 1.275 . S
C502 O507 1.246 . S
O503 C497 1.263 . S
O503 Tb498 2.353 . S
C504 O508 1.245 . S
C504 O509 1.259 1_554 S
C505 O510 1.250 . S
C505 O511 1.263 1_554 S
O506 Tb498 2.427 . S
O506 C502 1.275 . S
O507 Tb498 2.513 . S
O507 C502 1.246 . S
O508 Tb498 2.453 . S
O508 C504 1.245 . S
O509 Tb496 2.343 . S
O509 Tb498 2.596 1_556 S
O509 C504 1.259 1_556 S
O510 Tb498 2.374 . S
O510 C505 1.250 . S
O511 Tb496 2.353 . S
O511 C505 1.263 1_556 S
C512 O513 1.275 . S
C512 O514 1.246 . S
O513 Tb496 2.427 . S
O513 C512 1.275 . S
O514 Tb496 2.513 . S
O514 C512 1.246 . S
C515 O499 1.245 . S
C515 O500 1.259 . S
Tb516 O519 2.453 . S
Tb516 O520 2.596 . S
Tb516 O521 2.374 . S
Tb516 O529 2.343 . S
Tb516 O531 2.353 . S
Tb516 O533 2.427 . S
Tb516 O534 2.513 . S
C517 O521 1.251 . S
C517 O523 1.263 . S
Tb518 O520 2.343 . S
Tb518 O523 2.353 . S
Tb518 O526 2.427 . S
Tb518 O527 2.513 . S
Tb518 O528 2.453 . S
Tb518 O529 2.596 . S
Tb518 O530 2.374 . S
O519 Tb516 2.453 . S
O519 C535 1.245 . S
O520 Tb516 2.596 . S
O520 Tb518 2.343 . S
O520 C535 1.259 . S
O521 Tb516 2.374 . S
O521 C517 1.251 . S
C522 O526 1.275 . S
C522 O527 1.246 . S
O523 C517 1.263 . S
O523 Tb518 2.353 . S
C524 O528 1.245 . S
C524 O529 1.259 . S
C525 O530 1.250 . S
C525 O531 1.263 . S
O526 Tb518 2.427 . S
O526 C522 1.275 . S
O527 Tb518 2.513 . S
O527 C522 1.246 . S
O528 Tb518 2.453 . S
O528 C524 1.245 . S
O529 Tb516 2.343 . S
O529 Tb518 2.596 . S
O529 C524 1.259 . S
O530 Tb518 2.374 . S
O530 C525 1.250 . S
O531 Tb516 2.353 . S
O531 C525 1.263 . S
C532 O533 1.275 . S
C532 O534 1.246 . S
O533 Tb516 2.427 . S
O533 C532 1.275 . S
O534 Tb516 2.513 . S
O534 C532 1.246 . S
C535 O519 1.245 . S
C535 O520 1.259 . S
Tb536 O539 2.471 . S
Tb536 O540 2.596 1_655 S
Tb536 O541 2.374 . S
Tb536 O549 2.343 . S
Tb536 O551 2.353 . S
Tb536 O553 2.427 . S
Tb536 O554 2.513 . S
C537 O541 1.251 1_455 S
C537 O543 1.263 . S
Tb538 O540 2.343 . S
Tb538 O543 2.353 . S
Tb538 O546 2.427 . S
Tb538 O547 2.513 . S
Tb538 O548 2.453 . S
Tb538 O549 2.596 1_455 S
Tb538 O550 2.374 . S
O539 Tb536 2.471 . S
O539 C555 1.216 1_655 S
O540 Tb536 2.596 1_455 S
O540 Tb538 2.343 . S
O540 C555 1.259 . S
O541 Tb536 2.374 . S
O541 C537 1.251 1_655 S
C542 O546 1.275 . S
C542 O547 1.246 . S
O543 C537 1.263 . S
O543 Tb538 2.353 . S
C544 O548 1.245 1_655 S
C544 O549 1.259 . S
C545 O550 1.250 . S
C545 O551 1.263 1_455 S
O546 Tb538 2.427 . S
O546 C542 1.275 . S
O547 Tb538 2.513 . S
O547 C542 1.246 . S
O548 Tb538 2.453 . S
O548 C544 1.245 1_455 S
O549 Tb536 2.343 . S
O549 Tb538 2.596 1_655 S
O549 C544 1.259 . S
O550 Tb538 2.374 . S
O550 C545 1.250 . S
O551 Tb536 2.353 . S
O551 C545 1.263 1_655 S
C552 O553 1.275 . S
C552 O554 1.246 . S
O553 Tb536 2.427 . S
O553 C552 1.275 . S
O554 Tb536 2.513 . S
O554 C552 1.246 . S
C555 O539 1.216 1_455 S
C555 O540 1.259 . S
Tb556 O559 2.453 . S
Tb556 O560 2.596 . S
Tb556 O561 2.374 . S
Tb556 O569 2.343 . S
Tb556 O571 2.353 . S
Tb556 O573 2.427 . S
Tb556 O574 2.513 . S
C557 O561 1.251 . S
C557 O563 1.263 . S
Tb558 O560 2.343 . S
Tb558 O563 2.353 . S
Tb558 O566 2.427 . S
Tb558 O567 2.513 . S
Tb558 O568 2.453 . S
Tb558 O569 2.596 . S
Tb558 O570 2.374 . S
O559 Tb556 2.453 . S
O559 C575 1.245 . S
O560 Tb556 2.596 . S
O560 Tb558 2.343 . S
O560 C575 1.259 . S
O561 Tb556 2.374 . S
O561 C557 1.251 . S
C562 O566 1.275 . S
C562 O567 1.246 . S
O563 C557 1.263 . S
O563 Tb558 2.353 . S
C564 O568 1.245 . S
C564 O569 1.259 . S
C565 O570 1.250 . S
C565 O571 1.263 . S
O566 Tb558 2.427 . S
O566 C562 1.275 . S
O567 Tb558 2.513 . S
O567 C562 1.246 . S
O568 Tb558 2.453 . S
O568 C564 1.245 . S
O569 Tb556 2.343 . S
O569 Tb558 2.596 . S
O569 C564 1.259 . S
O570 Tb558 2.374 . S
O570 C565 1.250 . S
O571 Tb556 2.353 . S
O571 C565 1.263 . S
C572 O573 1.275 . S
C572 O574 1.246 . S
O573 Tb556 2.427 . S
O573 C572 1.275 . S
O574 Tb556 2.513 . S
O574 C572 1.246 . S
C575 O559 1.245 . S
C575 O560 1.259 . S
Tb576 O579 2.453 . S
Tb576 O580 2.596 . S
Tb576 O581 2.374 . S
Tb576 O589 2.343 . S
Tb576 O591 2.353 . S
Tb576 O593 2.427 . S
Tb576 O594 2.513 . S
C577 O581 1.251 . S
C577 O583 1.263 . S
Tb578 O580 2.343 . S
Tb578 O583 2.353 . S
Tb578 O586 2.427 . S
Tb578 O587 2.513 . S
Tb578 O588 2.453 . S
Tb578 O589 2.596 . S
Tb578 O590 2.374 . S
O579 Tb576 2.453 . S
O579 C595 1.245 . S
O580 Tb576 2.596 . S
O580 Tb578 2.343 . S
O580 C595 1.259 . S
O581 Tb576 2.374 . S
O581 C577 1.251 . S
C582 O586 1.275 . S
C582 O587 1.246 . S
O583 C577 1.263 . S
O583 Tb578 2.353 . S
C584 O588 1.245 . S
C584 O589 1.259 . S
C585 O590 1.250 . S
C585 O591 1.263 . S
O586 Tb578 2.427 . S
O586 C582 1.275 . S
O587 Tb578 2.513 . S
O587 C582 1.246 . S
O588 Tb578 2.453 . S
O588 C584 1.245 . S
O589 Tb576 2.343 . S
O589 Tb578 2.596 . S
O589 C584 1.259 . S
O590 Tb578 2.374 . S
O590 C585 1.250 . S
O591 Tb576 2.353 . S
O591 C585 1.263 . S
C592 O593 1.275 . S
C592 O594 1.246 . S
O593 Tb576 2.427 . S
O593 C592 1.275 . S
O594 Tb576 2.513 . S
O594 C592 1.246 . S
C595 O579 1.245 . S
C595 O580 1.259 . S
Tb596 O599 2.453 . S
Tb596 O600 2.596 . S
Tb596 O601 2.374 . S
Tb596 O609 2.343 . S
Tb596 O611 2.353 . S
Tb596 O613 2.427 . S
Tb596 O614 2.513 . S
C597 O601 1.251 . S
C597 O603 1.263 . S
Tb598 O600 2.343 . S
Tb598 O603 2.353 . S
Tb598 O606 2.427 . S
Tb598 O607 2.513 . S
Tb598 O608 2.453 . S
Tb598 O609 2.596 . S
Tb598 O610 2.374 . S
O599 Tb596 2.453 . S
O599 C615 1.245 . S
O600 Tb596 2.596 . S
O600 Tb598 2.343 . S
O600 C615 1.259 . S
O601 Tb596 2.374 . S
O601 C597 1.251 . S
C602 O606 1.275 . S
C602 O607 1.246 . S
O603 C597 1.263 . S
O603 Tb598 2.353 . S
C604 O608 1.245 . S
C604 O609 1.259 . S
C605 O610 1.250 . S
C605 O611 1.263 . S
O606 Tb598 2.427 . S
O606 C602 1.275 . S
O607 Tb598 2.513 . S
O607 C602 1.246 . S
O608 Tb598 2.453 . S
O608 C604 1.245 . S
O609 Tb596 2.343 . S
O609 Tb598 2.596 . S
O609 C604 1.259 . S
O610 Tb598 2.374 . S
O610 C605 1.250 . S
O611 Tb596 2.353 . S
O611 C605 1.263 . S
C612 O613 1.275 . S
C612 O614 1.246 . S
O613 Tb596 2.427 . S
O613 C612 1.275 . S
O614 Tb596 2.513 . S
O614 C612 1.246 . S
C615 O599 1.245 . S
C615 O600 1.259 . S
Tb616 O619 2.453 . S
Tb616 O620 2.596 . S
Tb616 O621 2.374 . S
Tb616 O629 2.343 . S
Tb616 O631 2.353 . S
Tb616 O633 2.427 . S
Tb616 O634 2.513 . S
C617 O621 1.251 . S
C617 O623 1.263 . S
Tb618 O620 2.343 . S
Tb618 O623 2.353 . S
Tb618 O626 2.427 . S
Tb618 O627 2.513 . S
Tb618 O628 2.453 . S
Tb618 O629 2.596 . S
Tb618 O630 2.374 . S
O619 Tb616 2.453 . S
O619 C635 1.245 . S
O620 Tb616 2.596 . S
O620 Tb618 2.343 . S
O620 C635 1.259 . S
O621 Tb616 2.374 . S
O621 C617 1.251 . S
C622 O626 1.275 . S
C622 O627 1.246 . S
O623 C617 1.263 . S
O623 Tb618 2.353 . S
C624 O628 1.245 . S
C624 O629 1.259 . S
C625 O630 1.250 . S
C625 O631 1.263 . S
O626 Tb618 2.427 . S
O626 C622 1.275 . S
O627 Tb618 2.513 . S
O627 C622 1.246 . S
O628 Tb618 2.453 . S
O628 C624 1.245 . S
O629 Tb616 2.343 . S
O629 Tb618 2.596 . S
O629 C624 1.259 . S
O630 Tb618 2.374 . S
O630 C625 1.250 . S
O631 Tb616 2.353 . S
O631 C625 1.263 . S
C632 O633 1.275 . S
C632 O634 1.246 . S
O633 Tb616 2.427 . S
O633 C632 1.275 . S
O634 Tb616 2.513 . S
O634 C632 1.246 . S
C635 O619 1.245 . S
C635 O620 1.259 . S
Tb636 O639 2.453 . S
Tb636 O640 2.596 . S
Tb636 O641 2.374 . S
Tb636 O649 2.345 . S
Tb636 O651 2.353 1_554 S
Tb636 O653 2.427 1_554 S
Tb636 O654 2.513 . S
C637 O641 1.251 . S
C637 O643 1.263 1_455 S
Tb638 O640 2.343 1_655 S
Tb638 O643 2.353 . S
Tb638 O646 2.427 . S
Tb638 O647 2.513 . S
Tb638 O648 2.453 1_554 S
Tb638 O649 2.606 1_655 S
Tb638 O650 2.374 1_554 S
O639 Tb636 2.453 . S
O639 C655 1.245 . S
O640 Tb636 2.596 . S
O640 Tb638 2.343 1_455 S
O640 C655 1.259 . S
O641 Tb636 2.374 . S
O641 C637 1.251 . S
C642 O646 1.275 . S
C642 O647 1.246 . S
O643 C637 1.263 1_655 S
O643 Tb638 2.353 . S
C644 O648 1.245 . S
C644 O649 1.254 1_656 S
C645 O650 1.250 . S
C645 O651 1.263 1_655 S
O646 Tb638 2.427 . S
O646 C642 1.275 . S
O647 Tb638 2.513 . S
O647 C642 1.246 . S
O648 Tb638 2.453 1_556 S
O648 C644 1.245 . S
O649 Tb636 2.345 . S
O649 Tb638 2.606 1_455 S
O649 C644 1.254 1_454 S
O650 Tb638 2.374 1_556 S
O650 C645 1.250 . S
O651 Tb636 2.353 1_556 S
O651 C645 1.263 1_455 S
C652 O653 1.275 . S
C652 O654 1.246 1_556 S
O653 Tb636 2.427 1_556 S
O653 C652 1.275 . S
O654 Tb636 2.513 . S
O654 C652 1.246 1_554 S
C655 O639 1.245 . S
C655 O640 1.259 . S
H656 C662 0.930 . S
H657 C665 0.930 . S
H658 C666 0.930 . S
H659 C667 0.930 . S
H660 C670 0.930 . S
H661 C671 0.930 . S
C662 H656 0.930 . S
C662 C663 1.355 1_655 S
C662 C664 1.415 . S
C663 C662 1.355 1_455 S
C663 C665 1.419 . S
C664 C662 1.415 . S
C664 C669 1.425 1_655 S
C664 C671 1.409 . S
C665 H657 0.930 . S
C665 C663 1.419 . S
C665 C666 1.362 . S
C666 H658 0.930 . S
C666 C665 1.362 . S
C666 C669 1.409 . S
C667 H659 0.930 . S
C667 C668 1.355 . S
C667 C669 1.415 . S
C668 C667 1.355 . S
C668 C670 1.419 1_455 S
C669 C664 1.425 1_455 S
C669 C666 1.409 . S
C669 C667 1.415 . S
C670 H660 0.930 . S
C670 C668 1.419 1_655 S
C670 C671 1.362 . S
C671 H661 0.930 . S
C671 C664 1.409 . S
C671 C670 1.362 . S
H672 C678 0.930 . S
H673 C681 0.930 . S
H674 C682 0.930 . S
H675 C683 0.930 . S
H676 C686 0.930 . S
H677 C687 0.930 . S
C678 H672 0.930 . S
C678 C679 1.355 . S
C678 C680 1.415 . S
C679 C678 1.355 . S
C679 C681 1.419 . S
C680 C678 1.415 . S
C680 C685 1.425 . S
C680 C687 1.409 . S
C681 H673 0.930 . S
C681 C679 1.419 . S
C681 C682 1.362 . S
C682 H674 0.930 . S
C682 C681 1.362 . S
C682 C685 1.409 . S
C683 H675 0.930 . S
C683 C684 1.355 . S
C683 C685 1.415 . S
C684 C683 1.355 . S
C684 C686 1.419 . S
C685 C680 1.425 . S
C685 C682 1.409 . S
C685 C683 1.415 . S
C686 H676 0.930 . S
C686 C684 1.419 . S
C686 C687 1.362 . S
C687 H677 0.930 . S
C687 C680 1.409 . S
C687 C686 1.362 . S
H688 C694 0.930 . S
H689 C697 0.930 . S
H690 C698 0.930 . S
H691 C699 0.930 . S
H692 C702 0.930 . S
H693 C703 0.930 . S
C694 H688 0.930 . S
C694 C695 1.355 . S
C694 C696 1.415 . S
C695 C694 1.355 . S
C695 C697 1.419 . S
C696 C694 1.415 . S
C696 C701 1.425 . S
C696 C703 1.409 . S
C697 H689 0.930 . S
C697 C695 1.419 . S
C697 C698 1.362 . S
C698 H690 0.930 . S
C698 C697 1.362 . S
C698 C701 1.409 . S
C699 H691 0.930 . S
C699 C700 1.355 . S
C699 C701 1.415 . S
C700 C699 1.355 . S
C700 C702 1.419 . S
C701 C696 1.425 . S
C701 C698 1.409 . S
C701 C699 1.415 . S
C702 H692 0.930 . S
C702 C700 1.419 . S
C702 C703 1.362 . S
C703 H693 0.930 . S
C703 C696 1.409 . S
C703 C702 1.362 . S
H704 C710 0.930 . S
H705 C713 0.930 . S
H706 C714 0.930 . S
H707 C715 0.930 . S
H708 C718 0.930 . S
H709 C719 0.930 . S
C710 H704 0.930 . S
C710 C711 1.355 . S
C710 C712 1.415 . S
C711 C710 1.355 . S
C711 C713 1.419 . S
C712 C710 1.415 . S
C712 C717 1.425 . S
C712 C719 1.409 . S
C713 H705 0.930 . S
C713 C711 1.419 . S
C713 C714 1.362 . S
C714 H706 0.930 . S
C714 C713 1.362 . S
C714 C717 1.409 . S
C715 H707 0.930 . S
C715 C716 1.355 . S
C715 C717 1.415 . S
C716 C715 1.355 . S
C716 C718 1.419 . S
C717 C712 1.425 . S
C717 C714 1.409 . S
C717 C715 1.415 . S
C718 H708 0.930 . S
C718 C716 1.419 . S
C718 C719 1.362 . S
C719 H709 0.930 . S
C719 C712 1.409 . S
C719 C718 1.362 . S
H720 C726 0.930 . S
H721 C729 0.930 . S
H722 C730 0.930 . S
H723 C731 0.930 . S
H724 C734 0.930 . S
H725 C735 0.930 . S
C726 H720 0.930 . S
C726 C727 1.355 1_655 S
C726 C728 1.415 . S
C727 C726 1.355 1_455 S
C727 C729 1.419 . S
C728 C726 1.415 . S
C728 C733 1.425 1_655 S
C728 C735 1.409 . S
C729 H721 0.930 . S
C729 C727 1.419 . S
C729 C730 1.362 . S
C730 H722 0.930 . S
C730 C729 1.362 . S
C730 C733 1.409 . S
C731 H723 0.930 . S
C731 C732 1.355 . S
C731 C733 1.415 . S
C732 C731 1.355 . S
C732 C734 1.419 1_455 S
C733 C728 1.425 1_455 S
C733 C730 1.409 . S
C733 C731 1.415 . S
C734 H724 0.930 . S
C734 C732 1.419 1_655 S
C734 C735 1.362 . S
C735 H725 0.930 . S
C735 C728 1.409 . S
C735 C734 1.362 . S
H736 C742 0.930 . S
H737 C745 0.930 . S
H738 C746 0.930 . S
H739 C747 0.930 . S
H740 C750 0.930 . S
H741 C751 0.930 . S
C742 H736 0.930 . S
C742 C743 1.355 . S
C742 C744 1.415 . S
C743 C742 1.355 . S
C743 C745 1.419 . S
C744 C742 1.415 . S
C744 C749 1.425 . S
C744 C751 1.409 . S
C745 H737 0.930 . S
C745 C743 1.419 . S
C745 C746 1.362 . S
C746 H738 0.930 . S
C746 C745 1.362 . S
C746 C749 1.409 . S
C747 H739 0.930 . S
C747 C748 1.355 . S
C747 C749 1.415 . S
C748 C747 1.355 . S
C748 C750 1.419 . S
C749 C744 1.425 . S
C749 C746 1.409 . S
C749 C747 1.415 . S
C750 H740 0.930 . S
C750 C748 1.419 . S
C750 C751 1.362 . S
C751 H741 0.930 . S
C751 C744 1.409 . S
C751 C750 1.362 . S
H752 C758 0.930 . S
H753 C761 0.930 . S
H754 C762 0.930 . S
H755 C763 0.930 . S
H756 C766 0.930 . S
H757 C767 0.930 . S
C758 H752 0.930 . S
C758 C759 1.355 . S
C758 C760 1.415 . S
C759 C758 1.355 . S
C759 C761 1.419 . S
C760 C758 1.415 . S
C760 C765 1.425 . S
C760 C767 1.409 . S
C761 H753 0.930 . S
C761 C759 1.419 . S
C761 C762 1.362 . S
C762 H754 0.930 . S
C762 C761 1.362 . S
C762 C765 1.409 . S
C763 H755 0.930 . S
C763 C764 1.355 . S
C763 C765 1.415 . S
C764 C763 1.355 . S
C764 C766 1.419 . S
C765 C760 1.425 . S
C765 C762 1.409 . S
C765 C763 1.415 . S
C766 H756 0.930 . S
C766 C764 1.419 . S
C766 C767 1.362 . S
C767 H757 0.930 . S
C767 C760 1.409 . S
C767 C766 1.362 . S
H768 C774 0.930 . S
H769 C777 0.930 . S
H770 C778 0.930 . S
H771 C779 0.930 . S
H772 C782 0.930 . S
H773 C783 0.930 . S
C774 H768 0.930 . S
C774 C775 1.355 . S
C774 C776 1.415 . S
C775 C774 1.355 . S
C775 C777 1.419 . S
C776 C774 1.415 . S
C776 C781 1.425 . S
C776 C783 1.409 . S
C777 H769 0.930 . S
C777 C775 1.419 . S
C777 C778 1.362 . S
C778 H770 0.930 . S
C778 C777 1.362 . S
C778 C781 1.409 . S
C779 H771 0.930 . S
C779 C780 1.355 . S
C779 C781 1.415 . S
C780 C779 1.355 . S
C780 C782 1.419 . S
C781 C776 1.425 . S
C781 C778 1.409 . S
C781 C779 1.415 . S
C782 H772 0.930 . S
C782 C780 1.419 . S
C782 C783 1.362 . S
C783 H773 0.930 . S
C783 C776 1.409 . S
C783 C782 1.362 . S
H784 C790 0.930 . S
H785 C793 0.930 . S
H786 C794 0.930 1_455 S
H787 C795 0.930 1_455 S
H788 C798 0.930 . S
H789 C799 0.930 . S
C790 H784 0.930 . S
C790 C791 1.355 . S
C790 C792 1.415 . S
C791 C790 1.355 . S
C791 C793 1.419 . S
C792 C790 1.415 . S
C792 C797 1.425 . S
C792 C799 1.409 . S
C793 H785 0.930 . S
C793 C791 1.419 . S
C793 C794 1.362 . S
C794 H786 0.930 1_655 S
C794 C793 1.362 . S
C794 C797 1.409 . S
C795 H787 0.930 1_655 S
C795 C796 1.355 . S
C795 C797 1.415 . S
C796 C795 1.355 . S
C796 C798 1.419 . S
C797 C792 1.425 . S
C797 C794 1.409 . S
C797 C795 1.415 . S
C798 H788 0.930 . S
C798 C796 1.419 . S
C798 C799 1.362 . S
C799 H789 0.930 . S
C799 C792 1.409 . S
C799 C798 1.362 . S
H800 C806 0.930 . S
H801 C809 0.930 . S
H802 C810 0.930 . S
H803 C811 0.930 . S
H804 C814 0.930 . S
H805 C815 0.930 . S
C806 H800 0.930 . S
C806 C807 1.355 . S
C806 C808 1.415 . S
C807 C806 1.355 . S
C807 C809 1.419 . S
C808 C806 1.415 . S
C808 C813 1.425 . S
C808 C815 1.409 . S
C809 H801 0.930 . S
C809 C807 1.419 . S
C809 C810 1.362 . S
C810 H802 0.930 . S
C810 C809 1.362 . S
C810 C813 1.409 . S
C811 H803 0.930 . S
C811 C812 1.355 . S
C811 C813 1.415 . S
C812 C811 1.355 . S
C812 C814 1.419 . S
C813 C808 1.425 . S
C813 C810 1.409 . S
C813 C811 1.415 . S
C814 H804 0.930 . S
C814 C812 1.419 . S
C814 C815 1.362 . S
C815 H805 0.930 . S
C815 C808 1.409 . S
C815 C814 1.362 . S
H816 C822 0.930 . S
H817 C825 0.930 1_565 S
H818 C826 0.930 1_565 S
H819 C827 0.930 . S
H820 C830 0.930 . S
H821 C831 0.930 . S
C822 H816 0.930 . S
C822 C823 1.355 . S
C822 C824 1.415 . S
C823 C822 1.355 . S
C823 C825 1.419 . S
C824 C822 1.415 . S
C824 C829 1.425 . S
C824 C831 1.409 . S
C825 H817 0.930 1_545 S
C825 C823 1.419 . S
C825 C826 1.362 . S
C826 H818 0.930 1_545 S
C826 C825 1.362 . S
C826 C829 1.409 . S
C827 H819 0.930 . S
C827 C828 1.355 . S
C827 C829 1.415 . S
C828 C827 1.355 . S
C828 C830 1.419 . S
C829 C824 1.425 . S
C829 C826 1.409 . S
C829 C827 1.415 . S
C830 H820 0.930 . S
C830 C828 1.419 . S
C830 C831 1.362 . S
C831 H821 0.930 . S
C831 C824 1.409 . S
C831 C830 1.362 . S
H832 C838 0.930 . S
H833 C841 0.930 . S
H834 C842 0.930 . S
H835 C843 0.930 . S
H836 C846 0.930 . S
H837 C847 0.930 . S
C838 H832 0.930 . S
C838 C839 1.355 . S
C838 C840 1.415 . S
C839 C838 1.355 . S
C839 C841 1.419 . S
C840 C838 1.415 . S
C840 C845 1.425 . S
C840 C847 1.409 . S
C841 H833 0.930 . S
C841 C839 1.419 . S
C841 C842 1.362 . S
C842 H834 0.930 . S
C842 C841 1.362 . S
C842 C845 1.409 . S
C843 H835 0.930 . S
C843 C844 1.355 . S
C843 C845 1.415 . S
C844 C843 1.355 . S
C844 C846 1.419 . S
C845 C840 1.425 . S
C845 C842 1.409 . S
C845 C843 1.415 . S
C846 H836 0.930 . S
C846 C844 1.419 . S
C846 C847 1.362 . S
C847 H837 0.930 . S
C847 C840 1.409 . S
C847 C846 1.362 . S
H848 C854 0.930 . S
H849 C857 0.930 . S
H850 C858 0.930 1_565 S
H851 C859 0.930 . S
H852 C862 0.930 . S
H853 C863 0.930 . S
C854 H848 0.930 . S
C854 C855 1.355 . S
C854 C856 1.415 . S
C855 C854 1.355 . S
C855 C857 1.419 . S
C856 C854 1.415 . S
C856 C861 1.425 . S
C856 C863 1.409 . S
C857 H849 0.930 . S
C857 C855 1.419 . S
C857 C858 1.362 . S
C858 H850 0.930 1_545 S
C858 C857 1.362 . S
C858 C861 1.409 . S
C859 H851 0.930 . S
C859 C860 1.355 . S
C859 C861 1.415 . S
C860 C859 1.355 . S
C860 C862 1.419 . S
C861 C856 1.425 . S
C861 C858 1.409 . S
C861 C859 1.415 . S
C862 H852 0.930 . S
C862 C860 1.419 . S
C862 C863 1.362 . S
C863 H853 0.930 . S
C863 C856 1.409 . S
C863 C862 1.362 . S
H864 C870 0.930 . S
H865 C873 0.930 . S
H866 C874 0.930 . S
H867 C875 0.930 . S
H868 C878 0.930 . S
H869 C879 0.930 . S
C870 H864 0.930 . S
C870 C871 1.355 . S
C870 C872 1.415 . S
C871 C870 1.355 . S
C871 C873 1.419 . S
C872 C870 1.415 . S
C872 C877 1.425 . S
C872 C879 1.409 . S
C873 H865 0.930 . S
C873 C871 1.419 . S
C873 C874 1.362 . S
C874 H866 0.930 . S
C874 C873 1.362 . S
C874 C877 1.409 . S
C875 H867 0.930 . S
C875 C876 1.355 . S
C875 C877 1.415 . S
C876 C875 1.355 . S
C876 C878 1.419 . S
C877 C872 1.425 . S
C877 C874 1.409 . S
C877 C875 1.415 . S
C878 H868 0.930 . S
C878 C876 1.419 . S
C878 C879 1.362 . S
C879 H869 0.930 . S
C879 C872 1.409 . S
C879 C878 1.362 . S
H880 C886 0.930 . S
H881 C889 0.930 . S
H882 C890 0.930 . S
H883 C891 0.930 . S
H884 C894 0.930 . S
H885 C895 0.930 . S
C886 H880 0.930 . S
C886 C887 1.355 . S
C886 C888 1.415 . S
C887 C886 1.355 . S
C887 C889 1.419 . S
C888 C886 1.415 . S
C888 C893 1.425 . S
C888 C895 1.409 . S
C889 H881 0.930 . S
C889 C887 1.419 . S
C889 C890 1.362 . S
C890 H882 0.930 . S
C890 C889 1.362 . S
C890 C893 1.409 . S
C891 H883 0.930 . S
C891 C892 1.355 . S
C891 C893 1.415 . S
C892 C891 1.355 . S
C892 C894 1.419 . S
C893 C888 1.425 . S
C893 C890 1.409 . S
C893 C891 1.415 . S
C894 H884 0.930 . S
C894 C892 1.419 . S
C894 C895 1.362 . S
C895 H885 0.930 . S
C895 C888 1.409 . S
C895 C894 1.362 . S
H896 C902 0.930 . S
H897 C905 0.930 . S
H898 C906 0.930 . S
H899 C907 0.930 . S
H900 C910 0.930 . S
H901 C911 0.930 . S
C902 H896 0.930 . S
C902 C903 1.355 . S
C902 C904 1.415 . S
C903 C902 1.355 . S
C903 C905 1.419 . S
C904 C902 1.415 . S
C904 C909 1.425 . S
C904 C911 1.409 . S
C905 H897 0.930 . S
C905 C903 1.419 . S
C905 C906 1.362 . S
C906 H898 0.930 . S
C906 C905 1.362 . S
C906 C909 1.409 . S
C907 H899 0.930 . S
C907 C908 1.355 . S
C907 C909 1.415 . S
C908 C907 1.355 . S
C908 C910 1.419 . S
C909 C904 1.425 . S
C909 C906 1.409 . S
C909 C907 1.415 . S
C910 H900 0.930 . S
C910 C908 1.419 . S
C910 C911 1.362 . S
C911 H901 0.930 . S
C911 C904 1.409 . S
C911 C910 1.362 . S
H912 C918 0.930 1_556 S
H913 C921 0.930 . S
H914 C922 0.930 1_545 S
H915 C923 0.937 . S
H916 C926 0.930 1_556 S
H917 C927 0.930 1_556 S
C918 H912 0.930 1_554 S
C918 C919 1.355 . S
C918 C920 1.415 . S
C919 C918 1.355 . S
C919 C921 1.419 . S
C920 C918 1.415 . S
C920 C925 1.425 . S
C920 C927 1.409 . S
C921 H913 0.930 . S
C921 C919 1.419 . S
C921 C922 1.362 . S
C922 H914 0.930 1_565 S
C922 C921 1.362 . S
C922 C925 1.409 . S
C923 H915 0.937 . S
C923 C924 1.354 1_545 S
C923 C925 1.408 1_545 S
C924 C923 1.354 1_565 S
C924 C926 1.419 . S
C925 C920 1.425 . S
C925 C922 1.409 . S
C925 C923 1.408 1_565 S
C926 H916 0.930 1_554 S
C926 C924 1.419 . S
C926 C927 1.362 . S
C927 H917 0.930 1_554 S
C927 C920 1.409 . S
C927 C926 1.362 . S
H928 C934 0.929 . S
H929 C937 0.930 . S
H930 C938 0.930 . S
H931 C939 0.930 . S
H932 C942 0.930 . S
H933 C943 0.930 . S
C934 H928 0.929 . S
C934 C935 1.355 1_554 S
C934 C936 1.409 . S
C935 C934 1.355 1_556 S
C935 C937 1.419 . S
C936 C934 1.409 . S
C936 C941 1.421 1_554 S
C936 C943 1.421 . S
C937 H929 0.930 . S
C937 C935 1.419 . S
C937 C938 1.362 . S
C938 H930 0.930 . S
C938 C937 1.362 . S
C938 C941 1.409 . S
C939 H931 0.930 . S
C939 C940 1.355 1_556 S
C939 C941 1.415 . S
C940 C939 1.355 1_554 S
C940 C942 1.419 . S
C941 C936 1.421 1_556 S
C941 C938 1.409 . S
C941 C939 1.415 . S
C942 H932 0.930 . S
C942 C940 1.419 . S
C942 C943 1.362 . S
C943 H933 0.930 . S
C943 C936 1.421 . S
C943 C942 1.362 . S
H944 C950 0.930 . S
H945 C953 0.930 . S
H946 C954 0.930 . S
H947 C955 0.930 . S
H948 C958 0.930 . S
H949 C959 0.930 . S
C950 H944 0.930 . S
C950 C951 1.355 . S
C950 C952 1.415 . S
C951 C950 1.355 . S
C951 C953 1.419 . S
C952 C950 1.415 . S
C952 C957 1.425 . S
C952 C959 1.409 . S
C953 H945 0.930 . S
C953 C951 1.419 . S
C953 C954 1.362 . S
C954 H946 0.930 . S
C954 C953 1.362 . S
C954 C957 1.409 . S
C955 H947 0.930 . S
C955 C956 1.355 . S
C955 C957 1.415 . S
C956 C955 1.355 . S
C956 C958 1.419 . S
C957 C952 1.425 . S
C957 C954 1.409 . S
C957 C955 1.415 . S
C958 H948 0.930 . S
C958 C956 1.419 . S
C958 C959 1.362 . S
C959 H949 0.930 . S
C959 C952 1.409 . S
C959 C958 1.362 . S
H960 C966 0.930 . S
H961 C969 0.930 . S
H962 C970 0.930 . S
H963 C971 0.930 . S
H964 C974 0.930 . S
H965 C975 0.930 . S
C966 H960 0.930 . S
C966 C967 1.355 . S
C966 C968 1.415 . S
C967 C966 1.355 . S
C967 C969 1.419 . S
C968 C966 1.415 . S
C968 C973 1.425 . S
C968 C975 1.409 . S
C969 H961 0.930 . S
C969 C967 1.419 . S
C969 C970 1.362 . S
C970 H962 0.930 . S
C970 C969 1.362 . S
C970 C973 1.409 . S
C971 H963 0.930 . S
C971 C972 1.355 . S
C971 C973 1.415 . S
C972 C971 1.355 . S
C972 C974 1.419 . S
C973 C968 1.425 . S
C973 C970 1.409 . S
C973 C971 1.415 . S
C974 H964 0.930 . S
C974 C972 1.419 . S
C974 C975 1.362 . S
C975 H965 0.930 . S
C975 C968 1.409 . S
C975 C974 1.362 . S
H976 C982 0.930 . S
H977 C985 0.930 . S
H978 C986 0.930 . S
H979 C987 0.930 . S
H980 C990 0.930 . S
H981 C991 0.930 . S
C982 H976 0.930 . S
C982 C983 1.355 . S
C982 C984 1.415 . S
C983 C982 1.355 . S
C983 C985 1.419 . S
C984 C982 1.415 . S
C984 C989 1.425 . S
C984 C991 1.409 . S
C985 H977 0.930 . S
C985 C983 1.419 . S
C985 C986 1.362 . S
C986 H978 0.930 . S
C986 C985 1.362 . S
C986 C989 1.409 . S
C987 H979 0.930 . S
C987 C988 1.355 . S
C987 C989 1.415 . S
C988 C987 1.355 . S
C988 C990 1.419 . S
C989 C984 1.425 . S
C989 C986 1.409 . S
C989 C987 1.415 . S
C990 H980 0.930 . S
C990 C988 1.419 . S
C990 C991 1.362 . S
C991 H981 0.930 . S
C991 C984 1.409 . S
C991 C990 1.362 . S
H992 C998 0.930 . S
H993 C1001 0.930 . S
H994 C1002 0.930 . S
H995 C1003 0.930 . S
H996 C1006 0.930 . S
H997 C1007 0.930 . S
C998 H992 0.930 . S
C998 C999 1.355 . S
C998 C1000 1.415 . S
C999 C998 1.355 . S
C999 C1001 1.419 . S
C1000 C998 1.415 . S
C1000 C1005 1.425 . S
C1000 C1007 1.409 . S
C1001 H993 0.930 . S
C1001 C999 1.419 . S
C1001 C1002 1.362 . S
C1002 H994 0.930 . S
C1002 C1001 1.362 . S
C1002 C1005 1.409 . S
C1003 H995 0.930 . S
C1003 C1004 1.355 . S
C1003 C1005 1.415 . S
C1004 C1003 1.355 . S
C1004 C1006 1.419 . S
C1005 C1000 1.425 . S
C1005 C1002 1.409 . S
C1005 C1003 1.415 . S
C1006 H996 0.930 . S
C1006 C1004 1.419 . S
C1006 C1007 1.362 . S
C1007 H997 0.930 . S
C1007 C1000 1.409 . S
C1007 C1006 1.362 . S
H1008 C1014 0.930 . S
H1009 C1017 0.930 . S
H1010 C1018 0.930 . S
H1011 C1019 0.930 . S
H1012 C1022 0.930 . S
H1013 C1023 0.930 . S
C1014 H1008 0.930 . S
C1014 C1015 1.355 . S
C1014 C1016 1.415 . S
C1015 C1014 1.355 . S
C1015 C1017 1.419 . S
C1016 C1014 1.415 . S
C1016 C1021 1.425 . S
C1016 C1023 1.409 . S
C1017 H1009 0.930 . S
C1017 C1015 1.419 . S
C1017 C1018 1.362 . S
C1018 H1010 0.930 . S
C1018 C1017 1.362 . S
C1018 C1021 1.409 . S
C1019 H1011 0.930 . S
C1019 C1020 1.355 . S
C1019 C1021 1.415 . S
C1020 C1019 1.355 . S
C1020 C1022 1.419 . S
C1021 C1016 1.425 . S
C1021 C1018 1.409 . S
C1021 C1019 1.415 . S
C1022 H1012 0.930 . S
C1022 C1020 1.419 . S
C1022 C1023 1.362 . S
C1023 H1013 0.930 . S
C1023 C1016 1.409 . S
C1023 C1022 1.362 . S
H1024 C1030 0.930 . S
H1025 C1033 0.930 . S
H1026 C1034 0.930 . S
H1027 C1035 0.930 . S
H1028 C1038 0.930 . S
H1029 C1039 0.930 . S
C1030 H1024 0.930 . S
C1030 C1031 1.355 . S
C1030 C1032 1.415 . S
C1031 C1030 1.355 . S
C1031 C1033 1.419 . S
C1032 C1030 1.415 . S
C1032 C1037 1.425 . S
C1032 C1039 1.409 . S
C1033 H1025 0.930 . S
C1033 C1031 1.419 . S
C1033 C1034 1.362 . S
C1034 H1026 0.930 . S
C1034 C1033 1.362 . S
C1034 C1037 1.409 . S
C1035 H1027 0.930 . S
C1035 C1036 1.355 . S
C1035 C1037 1.415 . S
C1036 C1035 1.355 . S
C1036 C1038 1.419 . S
C1037 C1032 1.425 . S
C1037 C1034 1.409 . S
C1037 C1035 1.415 . S
C1038 H1028 0.930 . S
C1038 C1036 1.419 . S
C1038 C1039 1.362 . S
C1039 H1029 0.930 . S
C1039 C1032 1.409 . S
C1039 C1038 1.362 . S
H1040 C1046 0.930 . S
H1041 C1049 0.930 . S
H1042 C1050 0.930 . S
H1043 C1051 0.930 . S
H1044 C1054 0.930 1_556 S
H1045 C1055 0.930 . S
C1046 H1040 0.930 . S
C1046 C1047 1.355 . S
C1046 C1048 1.415 . S
C1047 C1046 1.355 . S
C1047 C1049 1.419 . S
C1048 C1046 1.415 . S
C1048 C1053 1.425 . S
C1048 C1055 1.409 . S
C1049 H1041 0.930 . S
C1049 C1047 1.419 . S
C1049 C1050 1.362 . S
C1050 H1042 0.930 . S
C1050 C1049 1.362 . S
C1050 C1053 1.409 . S
C1051 H1043 0.930 . S
C1051 C1052 1.355 . S
C1051 C1053 1.415 . S
C1052 C1051 1.355 . S
C1052 C1054 1.419 . S
C1053 C1048 1.425 . S
C1053 C1050 1.409 . S
C1053 C1051 1.415 . S
C1054 H1044 0.930 1_554 S
C1054 C1052 1.419 . S
C1054 C1055 1.362 . S
C1055 H1045 0.930 . S
C1055 C1048 1.409 . S
C1055 C1054 1.362 . S
H1056 C1062 0.930 . S
H1057 C1065 0.930 . S
H1058 C1066 0.930 . S
H1059 C1067 0.930 . S
H1060 C1070 0.930 . S
H1061 C1071 0.930 . S
C1062 H1056 0.930 . S
C1062 C1063 1.355 . S
C1062 C1064 1.415 . S
C1063 C1062 1.355 . S
C1063 C1065 1.419 . S
C1064 C1062 1.415 . S
C1064 C1069 1.425 . S
C1064 C1071 1.409 . S
C1065 H1057 0.930 . S
C1065 C1063 1.419 . S
C1065 C1066 1.362 . S
C1066 H1058 0.930 . S
C1066 C1065 1.362 . S
C1066 C1069 1.409 . S
C1067 H1059 0.930 . S
C1067 C1068 1.355 . S
C1067 C1069 1.415 . S
C1068 C1067 1.355 . S
C1068 C1070 1.419 . S
C1069 C1064 1.425 . S
C1069 C1066 1.409 . S
C1069 C1067 1.415 . S
C1070 H1060 0.930 . S
C1070 C1068 1.419 . S
C1070 C1071 1.362 . S
C1071 H1061 0.930 . S
C1071 C1064 1.409 . S
C1071 C1070 1.362 . S
H1072 C1078 0.930 . S
H1073 C1081 0.930 . S
H1074 C1082 0.930 . S
H1075 C1083 0.930 . S
H1076 C1086 0.930 . S
H1077 C1087 0.930 . S
C1078 H1072 0.930 . S
C1078 C1079 1.355 . S
C1078 C1080 1.415 . S
C1079 C1078 1.355 . S
C1079 C1081 1.419 . S
C1080 C1078 1.415 . S
C1080 C1085 1.425 . S
C1080 C1087 1.409 . S
C1081 H1073 0.930 . S
C1081 C1079 1.419 . S
C1081 C1082 1.362 . S
C1082 H1074 0.930 . S
C1082 C1081 1.362 . S
C1082 C1085 1.409 . S
C1083 H1075 0.930 . S
C1083 C1084 1.355 . S
C1083 C1085 1.415 . S
C1084 C1083 1.355 . S
C1084 C1086 1.419 . S
C1085 C1080 1.425 . S
C1085 C1082 1.409 . S
C1085 C1083 1.415 . S
C1086 H1076 0.930 . S
C1086 C1084 1.419 . S
C1086 C1087 1.362 . S
C1087 H1077 0.930 . S
C1087 C1080 1.409 . S
C1087 C1086 1.362 . S
H1088 C1094 0.930 . S
H1089 C1097 0.930 . S
H1090 C1098 0.930 . S
H1091 C1099 0.930 . S
H1092 C1102 0.930 . S
H1093 C1103 0.930 . S
C1094 H1088 0.930 . S
C1094 C1095 1.355 . S
C1094 C1096 1.415 . S
C1095 C1094 1.355 . S
C1095 C1097 1.419 . S
C1096 C1094 1.415 . S
C1096 C1101 1.425 . S
C1096 C1103 1.409 . S
C1097 H1089 0.930 . S
C1097 C1095 1.419 . S
C1097 C1098 1.362 . S
C1098 H1090 0.930 . S
C1098 C1097 1.362 . S
C1098 C1101 1.409 . S
C1099 H1091 0.930 . S
C1099 C1100 1.355 . S
C1099 C1101 1.415 . S
C1100 C1099 1.355 . S
C1100 C1102 1.419 . S
C1101 C1096 1.425 . S
C1101 C1098 1.409 . S
C1101 C1099 1.415 . S
C1102 H1092 0.930 . S
C1102 C1100 1.419 . S
C1102 C1103 1.362 . S
C1103 H1093 0.930 . S
C1103 C1096 1.409 . S
C1103 C1102 1.362 . S
H1104 C1110 0.930 . S
H1105 C1113 0.930 . S
H1106 C1114 0.930 . S
H1107 C1115 0.930 . S
H1108 C1118 0.930 . S
H1109 C1119 0.930 . S
C1110 H1104 0.930 . S
C1110 C1111 1.355 . S
C1110 C1112 1.415 . S
C1111 C1110 1.355 . S
C1111 C1113 1.419 . S
C1112 C1110 1.415 . S
C1112 C1117 1.425 . S
C1112 C1119 1.409 1_455 S
C1113 H1105 0.930 . S
C1113 C1111 1.419 . S
C1113 C1114 1.362 . S
C1114 H1106 0.930 . S
C1114 C1113 1.362 . S
C1114 C1117 1.409 . S
C1115 H1107 0.930 . S
C1115 C1116 1.355 . S
C1115 C1117 1.415 . S
C1116 C1115 1.355 . S
C1116 C1118 1.419 1_455 S
C1117 C1112 1.425 . S
C1117 C1114 1.409 . S
C1117 C1115 1.415 . S
C1118 H1108 0.930 . S
C1118 C1116 1.419 1_655 S
C1118 C1119 1.362 . S
C1119 H1109 0.930 . S
C1119 C1112 1.409 1_655 S
C1119 C1118 1.362 . S
H1120 C1126 0.930 . S
H1121 C1129 0.930 . S
H1122 C1130 0.930 . S
H1123 C1131 0.930 . S
H1124 C1134 0.930 . S
H1125 C1135 0.930 . S
C1126 H1120 0.930 . S
C1126 C1127 1.355 . S
C1126 C1128 1.415 . S
C1127 C1126 1.355 . S
C1127 C1129 1.419 . S
C1128 C1126 1.415 . S
C1128 C1133 1.425 . S
C1128 C1135 1.409 . S
C1129 H1121 0.930 . S
C1129 C1127 1.419 . S
C1129 C1130 1.362 . S
C1130 H1122 0.930 . S
C1130 C1129 1.362 . S
C1130 C1133 1.409 . S
C1131 H1123 0.930 . S
C1131 C1132 1.355 . S
C1131 C1133 1.415 . S
C1132 C1131 1.355 . S
C1132 C1134 1.419 . S
C1133 C1128 1.425 . S
C1133 C1130 1.409 . S
C1133 C1131 1.415 . S
C1134 H1124 0.930 . S
C1134 C1132 1.419 . S
C1134 C1135 1.362 . S
C1135 H1125 0.930 . S
C1135 C1128 1.409 . S
C1135 C1134 1.362 . S
H1136 C1142 0.930 . S
H1137 C1145 0.930 . S
H1138 C1146 0.928 . S
H1139 C1147 0.930 1_554 S
H1140 C1150 0.930 . S
H1141 C1151 0.930 . S
C1142 H1136 0.930 . S
C1142 C1143 1.355 . S
C1142 C1144 1.415 . S
C1143 C1142 1.355 . S
C1143 C1145 1.419 . S
C1144 C1142 1.415 . S
C1144 C1149 1.425 . S
C1144 C1151 1.409 . S
C1145 H1137 0.930 . S
C1145 C1143 1.419 . S
C1145 C1146 1.362 . S
C1146 H1138 0.928 . S
C1146 C1145 1.362 . S
C1146 C1149 1.409 . S
C1147 H1139 0.930 1_556 S
C1147 C1148 1.355 . S
C1147 C1149 1.415 . S
C1148 C1147 1.355 . S
C1148 C1150 1.419 . S
C1149 C1144 1.425 . S
C1149 C1146 1.409 . S
C1149 C1147 1.415 . S
C1150 H1140 0.930 . S
C1150 C1148 1.419 . S
C1150 C1151 1.362 . S
C1151 H1141 0.930 . S
C1151 C1144 1.409 . S
C1151 C1150 1.362 . S
H1152 C1158 0.930 . S
H1153 C1161 0.930 . S
H1154 C1162 0.930 . S
H1155 C1163 0.930 . S
H1156 C1166 0.930 . S
H1157 C1167 0.930 . S
C1158 H1152 0.930 . S
C1158 C1159 1.355 . S
C1158 C1160 1.415 . S
C1159 C1158 1.355 . S
C1159 C1161 1.419 . S
C1160 C1158 1.415 . S
C1160 C1165 1.425 . S
C1160 C1167 1.409 . S
C1161 H1153 0.930 . S
C1161 C1159 1.419 . S
C1161 C1162 1.362 . S
C1162 H1154 0.930 . S
C1162 C1161 1.362 . S
C1162 C1165 1.409 . S
C1163 H1155 0.930 . S
C1163 C1164 1.355 . S
C1163 C1165 1.415 . S
C1164 C1163 1.355 . S
C1164 C1166 1.419 . S
C1165 C1160 1.425 . S
C1165 C1162 1.409 . S
C1165 C1163 1.415 . S
C1166 H1156 0.930 . S
C1166 C1164 1.419 . S
C1166 C1167 1.362 . S
C1167 H1157 0.930 . S
C1167 C1160 1.409 . S
C1167 C1166 1.362 . S
H1168 C1174 0.930 . S
H1169 C1177 0.930 . S
H1170 C1178 0.930 . S
H1171 C1179 0.929 . S
H1172 C1182 0.930 . S
H1173 C1183 0.930 . S
C1174 H1168 0.930 . S
C1174 C1175 1.355 . S
C1174 C1176 1.415 . S
C1175 C1174 1.355 . S
C1175 C1177 1.419 1_545 S
C1176 C1174 1.415 . S
C1176 C1181 1.425 . S
C1176 C1183 1.409 . S
C1177 H1169 0.930 . S
C1177 C1175 1.419 1_565 S
C1177 C1178 1.362 . S
C1178 H1170 0.930 . S
C1178 C1177 1.362 . S
C1178 C1181 1.409 1_565 S
C1179 H1171 0.929 . S
C1179 C1180 1.355 . S
C1179 C1181 1.415 . S
C1180 C1179 1.355 . S
C1180 C1182 1.419 . S
C1181 C1176 1.425 . S
C1181 C1178 1.409 1_545 S
C1181 C1179 1.415 . S
C1182 H1172 0.930 . S
C1182 C1180 1.419 . S
C1182 C1183 1.362 . S
C1183 H1173 0.930 . S
C1183 C1176 1.409 . S
C1183 C1182 1.362 . S
H1184 C1190 0.930 . S
H1185 C1193 0.930 . S
H1186 C1194 0.930 . S
H1187 C1195 0.930 . S
H1188 C1198 0.930 . S
H1189 C1199 0.930 . S
C1190 H1184 0.930 . S
C1190 C1191 1.355 . S
C1190 C1192 1.415 . S
C1191 C1190 1.355 . S
C1191 C1193 1.419 . S
C1192 C1190 1.415 . S
C1192 C1197 1.425 . S
C1192 C1199 1.409 . S
C1193 H1185 0.930 . S
C1193 C1191 1.419 . S
C1193 C1194 1.362 . S
C1194 H1186 0.930 . S
C1194 C1193 1.362 . S
C1194 C1197 1.409 . S
C1195 H1187 0.930 . S
C1195 C1196 1.355 . S
C1195 C1197 1.415 . S
C1196 C1195 1.355 . S
C1196 C1198 1.419 . S
C1197 C1192 1.425 . S
C1197 C1194 1.409 . S
C1197 C1195 1.415 . S
C1198 H1188 0.930 . S
C1198 C1196 1.419 . S
C1198 C1199 1.362 . S
C1199 H1189 0.930 . S
C1199 C1192 1.409 . S
C1199 C1198 1.362 . S
H1200 C1206 0.930 . S
H1201 C1209 0.930 . S
H1202 C1210 0.930 1_565 S
H1203 C1211 0.930 . S
H1204 C1214 0.930 . S
H1205 C1215 0.930 . S
C1206 H1200 0.930 . S
C1206 C1207 1.355 . S
C1206 C1208 1.415 . S
C1207 C1206 1.355 . S
C1207 C1209 1.419 . S
C1208 C1206 1.415 . S
C1208 C1213 1.425 . S
C1208 C1215 1.409 . S
C1209 H1201 0.930 . S
C1209 C1207 1.419 . S
C1209 C1210 1.362 . S
C1210 H1202 0.930 1_545 S
C1210 C1209 1.362 . S
C1210 C1213 1.409 . S
C1211 H1203 0.930 . S
C1211 C1212 1.355 . S
C1211 C1213 1.415 . S
C1212 C1211 1.355 . S
C1212 C1214 1.419 . S
C1213 C1208 1.425 . S
C1213 C1210 1.409 . S
C1213 C1211 1.415 . S
C1214 H1204 0.930 . S
C1214 C1212 1.419 . S
C1214 C1215 1.362 . S
C1215 H1205 0.930 . S
C1215 C1208 1.409 . S
C1215 C1214 1.362 . S
H1216 C1222 0.930 . S
H1217 C1225 0.930 . S
H1218 C1226 0.930 . S
H1219 C1227 0.930 . S
H1220 C1230 0.930 . S
H1221 C1231 0.930 . S
C1222 H1216 0.930 . S
C1222 C1223 1.355 . S
C1222 C1224 1.415 . S
C1223 C1222 1.355 . S
C1223 C1225 1.419 . S
C1224 C1222 1.415 . S
C1224 C1229 1.425 . S
C1224 C1231 1.409 . S
C1225 H1217 0.930 . S
C1225 C1223 1.419 . S
C1225 C1226 1.362 . S
C1226 H1218 0.930 . S
C1226 C1225 1.362 . S
C1226 C1229 1.409 . S
C1227 H1219 0.930 . S
C1227 C1228 1.355 . S
C1227 C1229 1.415 . S
C1228 C1227 1.355 . S
C1228 C1230 1.419 . S
C1229 C1224 1.425 . S
C1229 C1226 1.409 . S
C1229 C1227 1.415 . S
C1230 H1220 0.930 . S
C1230 C1228 1.419 . S
C1230 C1231 1.362 . S
C1231 H1221 0.930 . S
C1231 C1224 1.409 . S
C1231 C1230 1.362 . S
H1232 C1238 0.930 . S
H1233 C1241 0.930 . S
H1234 C1242 0.930 . S
H1235 C1243 0.930 . S
H1236 C1246 0.930 . S
H1237 C1247 0.930 . S
C1238 H1232 0.930 . S
C1238 C1239 1.339 1_565 S
C1238 C1240 1.415 . S
C1239 C1238 1.339 1_545 S
C1239 C1241 1.454 . S
C1240 C1238 1.415 . S
C1240 C1245 1.425 1_565 S
C1240 C1247 1.409 . S
C1241 H1233 0.930 . S
C1241 C1239 1.454 . S
C1241 C1242 1.362 . S
C1242 H1234 0.930 . S
C1242 C1241 1.362 . S
C1242 C1245 1.409 . S
C1243 H1235 0.930 . S
C1243 C1244 1.355 . S
C1243 C1245 1.415 . S
C1244 C1243 1.355 . S
C1244 C1246 1.419 1_545 S
C1245 C1240 1.425 1_545 S
C1245 C1242 1.409 . S
C1245 C1243 1.415 . S
C1246 H1236 0.930 . S
C1246 C1244 1.419 1_565 S
C1246 C1247 1.362 . S
C1247 H1237 0.930 . S
C1247 C1240 1.409 . S
C1247 C1246 1.362 . S
H1248 C1254 0.930 . S
H1249 C1257 0.930 . S
H1250 C1258 0.930 . S
H1251 C1259 0.930 . S
H1252 C1262 0.930 . S
H1253 C1263 0.930 . S
C1254 H1248 0.930 . S
C1254 C1255 1.355 . S
C1254 C1256 1.415 . S
C1255 C1254 1.355 . S
C1255 C1257 1.419 . S
C1256 C1254 1.415 . S
C1256 C1261 1.425 . S
C1256 C1263 1.409 . S
C1257 H1249 0.930 . S
C1257 C1255 1.419 . S
C1257 C1258 1.362 . S
C1258 H1250 0.930 . S
C1258 C1257 1.362 . S
C1258 C1261 1.409 . S
C1259 H1251 0.930 . S
C1259 C1260 1.355 . S
C1259 C1261 1.415 . S
C1260 C1259 1.355 . S
C1260 C1262 1.419 . S
C1261 C1256 1.425 . S
C1261 C1258 1.409 . S
C1261 C1259 1.415 . S
C1262 H1252 0.930 . S
C1262 C1260 1.419 . S
C1262 C1263 1.362 . S
C1263 H1253 0.930 . S
C1263 C1256 1.409 . S
C1263 C1262 1.362 . S
H1264 C1270 0.930 . S
H1265 C1273 0.930 . S
H1266 C1274 0.930 . S
H1267 C1275 0.930 . S
H1268 C1278 0.930 . S
H1269 C1279 0.930 . S
C1270 H1264 0.930 . S
C1270 C1271 1.355 . S
C1270 C1272 1.415 . S
C1271 C1270 1.355 . S
C1271 C1273 1.419 . S
C1272 C1270 1.415 . S
C1272 C1277 1.425 . S
C1272 C1279 1.409 . S
C1273 H1265 0.930 . S
C1273 C1271 1.419 . S
C1273 C1274 1.362 . S
C1274 H1266 0.930 . S
C1274 C1273 1.362 . S
C1274 C1277 1.409 . S
C1275 H1267 0.930 . S
C1275 C1276 1.355 . S
C1275 C1277 1.415 . S
C1276 C1275 1.355 . S
C1276 C1278 1.419 . S
C1277 C1272 1.425 . S
C1277 C1274 1.409 . S
C1277 C1275 1.415 . S
C1278 H1268 0.930 . S
C1278 C1276 1.419 . S
C1278 C1279 1.362 . S
C1279 H1269 0.930 . S
C1279 C1272 1.409 . S
C1279 C1278 1.362 . S
H1280 C1286 0.930 . S
H1281 C1289 0.930 . S
H1282 C1290 0.930 . S
H1283 C1291 0.930 . S
H1284 C1294 0.930 . S
H1285 C1295 0.930 . S
C1286 H1280 0.930 . S
C1286 C1287 1.355 . S
C1286 C1288 1.415 . S
C1287 C1286 1.355 . S
C1287 C1289 1.419 . S
C1288 C1286 1.415 . S
C1288 C1293 1.425 . S
C1288 C1295 1.409 . S
C1289 H1281 0.930 . S
C1289 C1287 1.419 . S
C1289 C1290 1.362 . S
C1290 H1282 0.930 . S
C1290 C1289 1.362 . S
C1290 C1293 1.409 . S
C1291 H1283 0.930 . S
C1291 C1292 1.355 . S
C1291 C1293 1.415 . S
C1292 C1291 1.355 . S
C1292 C1294 1.419 . S
C1293 C1288 1.425 . S
C1293 C1290 1.409 . S
C1293 C1291 1.415 . S
C1294 H1284 0.930 . S
C1294 C1292 1.419 . S
C1294 C1295 1.362 . S
C1295 H1285 0.930 . S
C1295 C1288 1.409 . S
C1295 C1294 1.362 . S
H1296 C1302 0.930 . S
H1297 C1305 0.930 . S
H1298 C1306 0.930 . S
H1299 C1307 0.930 . S
H1300 C1310 0.930 . S
H1301 C1311 0.930 . S
C1302 H1296 0.930 . S
C1302 C1303 1.355 . S
C1302 C1304 1.415 . S
C1303 C1302 1.355 . S
C1303 C1305 1.419 1_554 S
C1304 C1302 1.415 . S
C1304 C1309 1.425 1_554 S
C1304 C1311 1.409 . S
C1305 H1297 0.930 . S
C1305 C1303 1.419 1_556 S
C1305 C1306 1.362 . S
C1306 H1298 0.930 . S
C1306 C1305 1.362 . S
C1306 C1309 1.409 . S
C1307 H1299 0.930 . S
C1307 C1308 1.355 . S
C1307 C1309 1.415 . S
C1308 C1307 1.355 . S
C1308 C1310 1.419 1_556 S
C1309 C1304 1.425 1_556 S
C1309 C1306 1.409 . S
C1309 C1307 1.415 . S
C1310 H1300 0.930 . S
C1310 C1308 1.419 1_554 S
C1310 C1311 1.362 . S
C1311 H1301 0.930 . S
C1311 C1304 1.409 . S
C1311 C1310 1.362 . S
H1312 C1318 0.930 . S
H1313 C1321 0.930 . S
H1314 C1322 0.930 . S
H1315 C1323 0.930 . S
H1316 C1326 0.930 . S
H1317 C1327 0.930 . S
C1318 H1312 0.930 . S
C1318 C1319 1.355 . S
C1318 C1320 1.415 . S
C1319 C1318 1.355 . S
C1319 C1321 1.419 . S
C1320 C1318 1.415 . S
C1320 C1325 1.425 . S
C1320 C1327 1.409 . S
C1321 H1313 0.930 . S
C1321 C1319 1.419 . S
C1321 C1322 1.362 . S
C1322 H1314 0.930 . S
C1322 C1321 1.362 . S
C1322 C1325 1.409 . S
C1323 H1315 0.930 . S
C1323 C1324 1.355 . S
C1323 C1325 1.415 . S
C1324 C1323 1.355 . S
C1324 C1326 1.419 . S
C1325 C1320 1.425 . S
C1325 C1322 1.409 . S
C1325 C1323 1.415 . S
C1326 H1316 0.930 . S
C1326 C1324 1.419 . S
C1326 C1327 1.362 . S
C1327 H1317 0.930 . S
C1327 C1320 1.409 . S
C1327 C1326 1.362 . S
H1328 C1334 0.930 . S
H1329 C1337 0.930 . S
H1330 C1338 0.930 . S
H1331 C1339 0.930 . S
H1332 C1342 0.930 . S
H1333 C1343 0.930 . S
C1334 H1328 0.930 . S
C1334 C1335 1.355 . S
C1334 C1336 1.415 . S
C1335 C1334 1.355 . S
C1335 C1337 1.419 . S
C1336 C1334 1.415 . S
C1336 C1341 1.425 . S
C1336 C1343 1.409 . S
C1337 H1329 0.930 . S
C1337 C1335 1.419 . S
C1337 C1338 1.362 . S
C1338 H1330 0.930 . S
C1338 C1337 1.362 . S
C1338 C1341 1.409 . S
C1339 H1331 0.930 . S
C1339 C1340 1.355 . S
C1339 C1341 1.415 . S
C1340 C1339 1.355 . S
C1340 C1342 1.419 . S
C1341 C1336 1.425 . S
C1341 C1338 1.409 . S
C1341 C1339 1.415 . S
C1342 H1332 0.930 . S
C1342 C1340 1.419 . S
C1342 C1343 1.362 . S
C1343 H1333 0.930 . S
C1343 C1336 1.409 . S
C1343 C1342 1.362 . S
H1344 C1350 0.930 . S
H1345 C1353 0.930 . S
H1346 C1354 0.930 . S
H1347 C1355 0.930 . S
H1348 C1358 0.930 . S
H1349 C1359 0.930 . S
C1350 H1344 0.930 . S
C1350 C1351 1.355 . S
C1350 C1352 1.415 . S
C1351 C1350 1.355 . S
C1351 C1353 1.419 . S
C1352 C1350 1.415 . S
C1352 C1357 1.425 . S
C1352 C1359 1.409 . S
C1353 H1345 0.930 . S
C1353 C1351 1.419 . S
C1353 C1354 1.362 . S
C1354 H1346 0.930 . S
C1354 C1353 1.362 . S
C1354 C1357 1.409 . S
C1355 H1347 0.930 . S
C1355 C1356 1.355 . S
C1355 C1357 1.415 . S
C1356 C1355 1.355 . S
C1356 C1358 1.419 . S
C1357 C1352 1.425 . S
C1357 C1354 1.409 . S
C1357 C1355 1.415 . S
C1358 H1348 0.930 . S
C1358 C1356 1.419 . S
C1358 C1359 1.362 . S
C1359 H1349 0.930 . S
C1359 C1352 1.409 . S
C1359 C1358 1.362 . S
H1360 C1366 0.930 . S
H1361 C1369 0.930 . S
H1362 C1370 0.930 . S
H1363 C1371 0.930 . S
H1364 C1374 0.930 . S
H1365 C1375 0.930 . S
C1366 H1360 0.930 . S
C1366 C1367 1.355 . S
C1366 C1368 1.415 . S
C1367 C1366 1.355 . S
C1367 C1369 1.419 . S
C1368 C1366 1.415 . S
C1368 C1373 1.425 . S
C1368 C1375 1.409 . S
C1369 H1361 0.930 . S
C1369 C1367 1.419 . S
C1369 C1370 1.362 . S
C1370 H1362 0.930 . S
C1370 C1369 1.362 . S
C1370 C1373 1.409 . S
C1371 H1363 0.930 . S
C1371 C1372 1.355 . S
C1371 C1373 1.415 . S
C1372 C1371 1.355 . S
C1372 C1374 1.419 . S
C1373 C1368 1.425 . S
C1373 C1370 1.409 . S
C1373 C1371 1.415 . S
C1374 H1364 0.930 . S
C1374 C1372 1.419 . S
C1374 C1375 1.362 . S
C1375 H1365 0.930 . S
C1375 C1368 1.409 . S
C1375 C1374 1.362 . S
H1376 C1382 0.930 . S
H1377 C1385 0.930 . S
H1378 C1386 0.930 . S
H1379 C1387 0.930 . S
H1380 C1390 0.930 . S
H1381 C1391 0.930 1_545 S
C1382 H1376 0.930 . S
C1382 C1383 1.355 . S
C1382 C1384 1.415 . S
C1383 C1382 1.355 . S
C1383 C1385 1.419 . S
C1384 C1382 1.415 . S
C1384 C1389 1.425 . S
C1384 C1391 1.409 . S
C1385 H1377 0.930 . S
C1385 C1383 1.419 . S
C1385 C1386 1.362 . S
C1386 H1378 0.930 . S
C1386 C1385 1.362 . S
C1386 C1389 1.409 . S
C1387 H1379 0.930 . S
C1387 C1388 1.355 . S
C1387 C1389 1.415 . S
C1388 C1387 1.355 . S
C1388 C1390 1.419 1_565 S
C1389 C1384 1.425 . S
C1389 C1386 1.409 . S
C1389 C1387 1.415 . S
C1390 H1380 0.930 . S
C1390 C1388 1.419 1_545 S
C1390 C1391 1.362 1_545 S
C1391 H1381 0.930 1_565 S
C1391 C1384 1.409 . S
C1391 C1390 1.362 1_565 S
H1392 C1398 0.930 . S
H1393 C1401 0.930 . S
H1394 C1402 0.930 . S
H1395 C1403 0.930 . S
H1396 C1406 0.930 . S
H1397 C1407 0.930 . S
C1398 H1392 0.930 . S
C1398 C1399 1.355 . S
C1398 C1400 1.415 . S
C1399 C1398 1.355 . S
C1399 C1401 1.419 . S
C1400 C1398 1.415 . S
C1400 C1405 1.425 . S
C1400 C1407 1.409 . S
C1401 H1393 0.930 . S
C1401 C1399 1.419 . S
C1401 C1402 1.362 . S
C1402 H1394 0.930 . S
C1402 C1401 1.362 . S
C1402 C1405 1.409 . S
C1403 H1395 0.930 . S
C1403 C1404 1.355 . S
C1403 C1405 1.415 . S
C1404 C1403 1.355 . S
C1404 C1406 1.419 . S
C1405 C1400 1.425 . S
C1405 C1402 1.409 . S
C1405 C1403 1.415 . S
C1406 H1396 0.930 . S
C1406 C1404 1.419 . S
C1406 C1407 1.362 . S
C1407 H1397 0.930 . S
C1407 C1400 1.409 . S
C1407 C1406 1.362 . S
H1408 C1414 0.930 . S
H1409 C1417 0.930 . S
H1410 C1418 0.930 . S
H1411 C1419 0.930 . S
H1412 C1422 0.930 . S
H1413 C1423 0.930 . S
C1414 H1408 0.930 . S
C1414 C1415 1.355 . S
C1414 C1416 1.415 . S
C1415 C1414 1.355 . S
C1415 C1417 1.419 . S
C1416 C1414 1.415 . S
C1416 C1421 1.425 . S
C1416 C1423 1.409 . S
C1417 H1409 0.930 . S
C1417 C1415 1.419 . S
C1417 C1418 1.362 . S
C1418 H1410 0.930 . S
C1418 C1417 1.362 . S
C1418 C1421 1.409 . S
C1419 H1411 0.930 . S
C1419 C1420 1.355 . S
C1419 C1421 1.415 . S
C1420 C1419 1.355 . S
C1420 C1422 1.419 . S
C1421 C1416 1.425 . S
C1421 C1418 1.409 . S
C1421 C1419 1.415 . S
C1422 H1412 0.930 . S
C1422 C1420 1.419 . S
C1422 C1423 1.362 . S
C1423 H1413 0.930 . S
C1423 C1416 1.409 . S
C1423 C1422 1.362 . S
H1424 C1430 0.930 . S
H1425 C1433 0.930 . S
H1426 C1434 0.930 . S
H1427 C1435 0.930 . S
H1428 C1438 0.930 . S
H1429 C1439 0.930 . S
C1430 H1424 0.930 . S
C1430 C1431 1.355 . S
C1430 C1432 1.415 . S
C1431 C1430 1.355 . S
C1431 C1433 1.419 . S
C1432 C1430 1.415 . S
C1432 C1437 1.425 . S
C1432 C1439 1.409 . S
C1433 H1425 0.930 . S
C1433 C1431 1.419 . S
C1433 C1434 1.362 . S
C1434 H1426 0.930 . S
C1434 C1433 1.362 . S
C1434 C1437 1.409 . S
C1435 H1427 0.930 . S
C1435 C1436 1.355 . S
C1435 C1437 1.415 . S
C1436 C1435 1.355 . S
C1436 C1438 1.419 . S
C1437 C1432 1.425 . S
C1437 C1434 1.409 . S
C1437 C1435 1.415 . S
C1438 H1428 0.930 . S
C1438 C1436 1.419 . S
C1438 C1439 1.362 . S
C1439 H1429 0.930 . S
C1439 C1432 1.409 . S
C1439 C1438 1.362 . S
H1440 C1446 0.930 . S
H1441 C1449 0.930 . S
H1442 C1450 0.930 . S
H1443 C1451 0.930 . S
H1444 C1454 0.930 . S
H1445 C1455 0.930 . S
C1446 H1440 0.930 . S
C1446 C1447 1.355 . S
C1446 C1448 1.415 . S
C1447 C1446 1.355 . S
C1447 C1449 1.419 . S
C1448 C1446 1.415 . S
C1448 C1453 1.425 . S
C1448 C1455 1.409 . S
C1449 H1441 0.930 . S
C1449 C1447 1.419 . S
C1449 C1450 1.362 . S
C1450 H1442 0.930 . S
C1450 C1449 1.362 . S
C1450 C1453 1.409 . S
C1451 H1443 0.930 . S
C1451 C1452 1.355 . S
C1451 C1453 1.415 . S
C1452 C1451 1.355 . S
C1452 C1454 1.419 . S
C1453 C1448 1.425 . S
C1453 C1450 1.409 . S
C1453 C1451 1.415 . S
C1454 H1444 0.930 . S
C1454 C1452 1.419 . S
C1454 C1455 1.362 . S
C1455 H1445 0.930 . S
C1455 C1448 1.409 . S
C1455 C1454 1.362 . S
H1456 C1462 0.930 . S
H1457 C1465 0.930 . S
H1458 C1466 0.930 . S
H1459 C1467 0.930 . S
H1460 C1470 0.930 . S
H1461 C1471 0.930 . S
C1462 H1456 0.930 . S
C1462 C1463 1.355 1_655 S
C1462 C1464 1.415 . S
C1463 C1462 1.355 1_455 S
C1463 C1465 1.419 . S
C1464 C1462 1.415 . S
C1464 C1469 1.425 1_655 S
C1464 C1471 1.409 . S
C1465 H1457 0.930 . S
C1465 C1463 1.419 . S
C1465 C1466 1.362 . S
C1466 H1458 0.930 . S
C1466 C1465 1.362 . S
C1466 C1469 1.409 . S
C1467 H1459 0.930 . S
C1467 C1468 1.355 . S
C1467 C1469 1.415 . S
C1468 C1467 1.355 . S
C1468 C1470 1.419 1_455 S
C1469 C1464 1.425 1_455 S
C1469 C1466 1.409 . S
C1469 C1467 1.415 . S
C1470 H1460 0.930 . S
C1470 C1468 1.419 1_655 S
C1470 C1471 1.362 . S
C1471 H1461 0.930 . S
C1471 C1464 1.409 . S
C1471 C1470 1.362 . S
H1472 C1478 0.930 . S
H1473 C1481 0.930 . S
H1474 C1482 0.930 . S
H1475 C1483 0.930 . S
H1476 C1486 0.930 . S
H1477 C1487 0.930 . S
C1478 H1472 0.930 . S
C1478 C1479 1.355 . S
C1478 C1480 1.415 . S
C1479 C1478 1.355 . S
C1479 C1481 1.419 . S
C1480 C1478 1.415 . S
C1480 C1485 1.425 . S
C1480 C1487 1.409 . S
C1481 H1473 0.930 . S
C1481 C1479 1.419 . S
C1481 C1482 1.362 . S
C1482 H1474 0.930 . S
C1482 C1481 1.362 . S
C1482 C1485 1.409 . S
C1483 H1475 0.930 . S
C1483 C1484 1.355 . S
C1483 C1485 1.415 . S
C1484 C1483 1.355 . S
C1484 C1486 1.419 . S
C1485 C1480 1.425 . S
C1485 C1482 1.409 . S
C1485 C1483 1.415 . S
C1486 H1476 0.930 . S
C1486 C1484 1.419 . S
C1486 C1487 1.362 . S
C1487 H1477 0.930 . S
C1487 C1480 1.409 . S
C1487 C1486 1.362 . S
H1488 C1494 0.930 . S
H1489 C1497 0.930 . S
H1490 C1498 0.930 . S
H1491 C1499 0.930 . S
H1492 C1502 0.930 . S
H1493 C1503 0.930 . S
C1494 H1488 0.930 . S
C1494 C1495 1.355 . S
C1494 C1496 1.415 . S
C1495 C1494 1.355 . S
C1495 C1497 1.419 . S
C1496 C1494 1.415 . S
C1496 C1501 1.425 . S
C1496 C1503 1.409 . S
C1497 H1489 0.930 . S
C1497 C1495 1.419 . S
C1497 C1498 1.362 . S
C1498 H1490 0.930 . S
C1498 C1497 1.362 . S
C1498 C1501 1.409 . S
C1499 H1491 0.930 . S
C1499 C1500 1.355 . S
C1499 C1501 1.415 . S
C1500 C1499 1.355 . S
C1500 C1502 1.419 . S
C1501 C1496 1.425 . S
C1501 C1498 1.409 . S
C1501 C1499 1.415 . S
C1502 H1492 0.930 . S
C1502 C1500 1.419 . S
C1502 C1503 1.362 . S
C1503 H1493 0.930 . S
C1503 C1496 1.409 . S
C1503 C1502 1.362 . S
H1504 C1510 0.930 . S
H1505 C1513 0.930 . S
H1506 C1514 0.930 . S
H1507 C1515 0.930 . S
H1508 C1518 0.930 . S
H1509 C1519 0.930 . S
C1510 H1504 0.930 . S
C1510 C1511 1.355 . S
C1510 C1512 1.415 . S
C1511 C1510 1.355 . S
C1511 C1513 1.419 . S
C1512 C1510 1.415 . S
C1512 C1517 1.425 . S
C1512 C1519 1.409 . S
C1513 H1505 0.930 . S
C1513 C1511 1.419 . S
C1513 C1514 1.362 . S
C1514 H1506 0.930 . S
C1514 C1513 1.362 . S
C1514 C1517 1.409 . S
C1515 H1507 0.930 . S
C1515 C1516 1.355 . S
C1515 C1517 1.415 . S
C1516 C1515 1.355 . S
C1516 C1518 1.419 . S
C1517 C1512 1.425 . S
C1517 C1514 1.409 . S
C1517 C1515 1.415 . S
C1518 H1508 0.930 . S
C1518 C1516 1.419 . S
C1518 C1519 1.362 . S
C1519 H1509 0.930 . S
C1519 C1512 1.409 . S
C1519 C1518 1.362 . S
H1520 C1526 0.930 . S
H1521 C1529 0.930 . S
H1522 C1530 0.930 . S
H1523 C1531 0.930 . S
H1524 C1534 0.930 . S
H1525 C1535 0.930 . S
C1526 H1520 0.930 . S
C1526 C1527 1.355 1_455 S
C1526 C1528 1.415 . S
C1527 C1526 1.355 1_655 S
C1527 C1529 1.419 . S
C1528 C1526 1.415 . S
C1528 C1533 1.425 1_455 S
C1528 C1535 1.409 . S
C1529 H1521 0.930 . S
C1529 C1527 1.419 . S
C1529 C1530 1.362 . S
C1530 H1522 0.930 . S
C1530 C1529 1.362 . S
C1530 C1533 1.409 . S
C1531 H1523 0.930 . S
C1531 C1532 1.355 1_655 S
C1531 C1533 1.415 . S
C1532 C1531 1.355 1_455 S
C1532 C1534 1.419 . S
C1533 C1528 1.425 1_655 S
C1533 C1530 1.409 . S
C1533 C1531 1.415 . S
C1534 H1524 0.930 . S
C1534 C1532 1.419 . S
C1534 C1535 1.362 . S
C1535 H1525 0.930 . S
C1535 C1528 1.409 . S
C1535 C1534 1.362 . S
H1536 C1542 0.930 . S
H1537 C1545 0.930 . S
H1538 C1546 0.930 . S
H1539 C1547 0.930 . S
H1540 C1550 0.930 . S
H1541 C1551 0.930 . S
C1542 H1536 0.930 . S
C1542 C1543 1.355 . S
C1542 C1544 1.415 . S
C1543 C1542 1.355 . S
C1543 C1545 1.419 . S
C1544 C1542 1.415 . S
C1544 C1549 1.425 . S
C1544 C1551 1.409 . S
C1545 H1537 0.930 . S
C1545 C1543 1.419 . S
C1545 C1546 1.362 . S
C1546 H1538 0.930 . S
C1546 C1545 1.362 . S
C1546 C1549 1.409 . S
C1547 H1539 0.930 . S
C1547 C1548 1.355 . S
C1547 C1549 1.415 . S
C1548 C1547 1.355 . S
C1548 C1550 1.419 . S
C1549 C1544 1.425 . S
C1549 C1546 1.409 . S
C1549 C1547 1.415 . S
C1550 H1540 0.930 . S
C1550 C1548 1.419 . S
C1550 C1551 1.362 . S
C1551 H1541 0.930 . S
C1551 C1544 1.409 . S
C1551 C1550 1.362 . S
H1552 C1558 0.930 . S
H1553 C1561 0.930 . S
H1554 C1562 0.930 . S
H1555 C1563 0.930 . S
H1556 C1566 0.930 . S
H1557 C1567 0.930 . S
C1558 H1552 0.930 . S
C1558 C1559 1.355 . S
C1558 C1560 1.415 . S
C1559 C1558 1.355 . S
C1559 C1561 1.419 . S
C1560 C1558 1.415 . S
C1560 C1565 1.425 . S
C1560 C1567 1.409 . S
C1561 H1553 0.930 . S
C1561 C1559 1.419 . S
C1561 C1562 1.362 . S
C1562 H1554 0.930 . S
C1562 C1561 1.362 . S
C1562 C1565 1.409 . S
C1563 H1555 0.930 . S
C1563 C1564 1.355 . S
C1563 C1565 1.415 . S
C1564 C1563 1.355 . S
C1564 C1566 1.419 . S
C1565 C1560 1.425 . S
C1565 C1562 1.409 . S
C1565 C1563 1.415 . S
C1566 H1556 0.930 . S
C1566 C1564 1.419 . S
C1566 C1567 1.362 . S
C1567 H1557 0.930 . S
C1567 C1560 1.409 . S
C1567 C1566 1.362 . S
H1568 C1574 0.930 . S
H1569 C1577 0.930 . S
H1570 C1578 0.930 . S
H1571 C1579 0.930 . S
H1572 C1582 0.930 . S
H1573 C1583 0.930 . S
C1574 H1568 0.930 . S
C1574 C1575 1.355 . S
C1574 C1576 1.415 . S
C1575 C1574 1.355 . S
C1575 C1577 1.419 . S
C1576 C1574 1.415 . S
C1576 C1581 1.425 . S
C1576 C1583 1.409 . S
C1577 H1569 0.930 . S
C1577 C1575 1.419 . S
C1577 C1578 1.362 . S
C1578 H1570 0.930 . S
C1578 C1577 1.362 . S
C1578 C1581 1.409 . S
C1579 H1571 0.930 . S
C1579 C1580 1.355 . S
C1579 C1581 1.415 . S
C1580 C1579 1.355 . S
C1580 C1582 1.419 . S
C1581 C1576 1.425 . S
C1581 C1578 1.409 . S
C1581 C1579 1.415 . S
C1582 H1572 0.930 . S
C1582 C1580 1.419 . S
C1582 C1583 1.362 . S
C1583 H1573 0.930 . S
C1583 C1576 1.409 . S
C1583 C1582 1.362 . S
H1584 C1590 0.930 . S
H1585 C1593 0.930 . S
H1586 C1594 0.914 1_655 S
H1587 C1595 0.930 1_655 S
H1588 C1598 0.930 . S
H1589 C1599 0.930 . S
C1590 H1584 0.930 . S
C1590 C1591 1.355 . S
C1590 C1592 1.415 . S
C1591 C1590 1.355 . S
C1591 C1593 1.419 . S
C1592 C1590 1.415 . S
C1592 C1597 1.425 . S
C1592 C1599 1.409 . S
C1593 H1585 0.930 . S
C1593 C1591 1.419 . S
C1593 C1594 1.362 . S
C1594 H1586 0.914 1_455 S
C1594 C1593 1.362 . S
C1594 C1597 1.409 . S
C1595 H1587 0.930 1_455 S
C1595 C1596 1.355 . S
C1595 C1597 1.415 . S
C1596 C1595 1.355 . S
C1596 C1598 1.419 . S
C1597 C1592 1.425 . S
C1597 C1594 1.409 . S
C1597 C1595 1.415 . S
C1598 H1588 0.930 . S
C1598 C1596 1.419 . S
C1598 C1599 1.362 . S
C1599 H1589 0.930 . S
C1599 C1592 1.409 . S
C1599 C1598 1.362 . S
H1600 C1606 0.930 . S
H1601 C1609 0.930 . S
H1602 C1610 0.930 . S
H1603 C1611 0.930 . S
H1604 C1614 0.930 . S
H1605 C1615 0.930 . S
C1606 H1600 0.930 . S
C1606 C1607 1.355 . S
C1606 C1608 1.415 . S
C1607 C1606 1.355 . S
C1607 C1609 1.419 . S
C1608 C1606 1.415 . S
C1608 C1613 1.425 . S
C1608 C1615 1.409 . S
C1609 H1601 0.930 . S
C1609 C1607 1.419 . S
C1609 C1610 1.362 . S
C1610 H1602 0.930 . S
C1610 C1609 1.362 . S
C1610 C1613 1.409 . S
C1611 H1603 0.930 . S
C1611 C1612 1.355 . S
C1611 C1613 1.415 . S
C1612 C1611 1.355 . S
C1612 C1614 1.419 . S
C1613 C1608 1.425 . S
C1613 C1610 1.409 . S
C1613 C1611 1.415 . S
C1614 H1604 0.930 . S
C1614 C1612 1.419 . S
C1614 C1615 1.362 . S
C1615 H1605 0.930 . S
C1615 C1608 1.409 . S
C1615 C1614 1.362 . S
H1616 C1622 0.930 . S
H1617 C1625 0.930 . S
H1618 C1626 0.930 . S
H1619 C1627 0.930 . S
H1620 C1630 0.930 . S
H1621 C1631 0.930 . S
C1622 H1616 0.930 . S
C1622 C1623 1.355 . S
C1622 C1624 1.415 . S
C1623 C1622 1.355 . S
C1623 C1625 1.419 . S
C1624 C1622 1.415 . S
C1624 C1629 1.425 . S
C1624 C1631 1.409 . S
C1625 H1617 0.930 . S
C1625 C1623 1.419 . S
C1625 C1626 1.362 . S
C1626 H1618 0.930 . S
C1626 C1625 1.362 . S
C1626 C1629 1.409 . S
C1627 H1619 0.930 . S
C1627 C1628 1.355 . S
C1627 C1629 1.415 . S
C1628 C1627 1.355 . S
C1628 C1630 1.419 . S
C1629 C1624 1.425 . S
C1629 C1626 1.409 . S
C1629 C1627 1.415 . S
C1630 H1620 0.930 . S
C1630 C1628 1.419 . S
C1630 C1631 1.362 . S
C1631 H1621 0.930 . S
C1631 C1624 1.409 . S
C1631 C1630 1.362 . S
H1632 C1638 0.930 . S
H1633 C1641 0.930 . S
H1634 C1642 0.930 . S
H1635 C1643 0.930 . S
H1636 C1646 0.930 . S
H1637 C1647 0.930 . S
C1638 H1632 0.930 . S
C1638 C1639 1.355 . S
C1638 C1640 1.415 . S
C1639 C1638 1.355 . S
C1639 C1641 1.419 . S
C1640 C1638 1.415 . S
C1640 C1645 1.425 . S
C1640 C1647 1.409 . S
C1641 H1633 0.930 . S
C1641 C1639 1.419 . S
C1641 C1642 1.362 . S
C1642 H1634 0.930 . S
C1642 C1641 1.362 . S
C1642 C1645 1.409 . S
C1643 H1635 0.930 . S
C1643 C1644 1.355 . S
C1643 C1645 1.415 . S
C1644 C1643 1.355 . S
C1644 C1646 1.419 . S
C1645 C1640 1.425 . S
C1645 C1642 1.409 . S
C1645 C1643 1.415 . S
C1646 H1636 0.930 . S
C1646 C1644 1.419 . S
C1646 C1647 1.362 . S
C1647 H1637 0.930 . S
C1647 C1640 1.409 . S
C1647 C1646 1.362 . S
H1648 C1654 0.930 . S
H1649 C1657 0.930 . S
H1650 C1658 0.930 . S
H1651 C1659 0.930 . S
H1652 C1662 0.930 . S
H1653 C1663 0.930 . S
C1654 H1648 0.930 . S
C1654 C1655 1.355 . S
C1654 C1656 1.415 . S
C1655 C1654 1.355 . S
C1655 C1657 1.419 . S
C1656 C1654 1.415 . S
C1656 C1661 1.425 . S
C1656 C1663 1.409 . S
C1657 H1649 0.930 . S
C1657 C1655 1.419 . S
C1657 C1658 1.362 . S
C1658 H1650 0.930 . S
C1658 C1657 1.362 . S
C1658 C1661 1.409 . S
C1659 H1651 0.930 . S
C1659 C1660 1.355 . S
C1659 C1661 1.415 . S
C1660 C1659 1.355 . S
C1660 C1662 1.419 . S
C1661 C1656 1.425 . S
C1661 C1658 1.409 . S
C1661 C1659 1.415 . S
C1662 H1652 0.930 . S
C1662 C1660 1.419 . S
C1662 C1663 1.362 . S
C1663 H1653 0.930 . S
C1663 C1656 1.409 . S
C1663 C1662 1.362 . S
H1664 C1670 0.930 . S
H1665 C1673 0.930 . S
H1666 C1674 0.930 . S
H1667 C1675 0.930 . S
H1668 C1678 0.930 . S
H1669 C1679 0.930 . S
C1670 H1664 0.930 . S
C1670 C1671 1.355 . S
C1670 C1672 1.415 . S
C1671 C1670 1.355 . S
C1671 C1673 1.419 . S
C1672 C1670 1.415 . S
C1672 C1677 1.425 . S
C1672 C1679 1.409 . S
C1673 H1665 0.930 . S
C1673 C1671 1.419 . S
C1673 C1674 1.362 . S
C1674 H1666 0.930 . S
C1674 C1673 1.362 . S
C1674 C1677 1.409 . S
C1675 H1667 0.930 . S
C1675 C1676 1.355 . S
C1675 C1677 1.415 . S
C1676 C1675 1.355 . S
C1676 C1678 1.419 . S
C1677 C1672 1.425 . S
C1677 C1674 1.409 . S
C1677 C1675 1.415 . S
C1678 H1668 0.930 . S
C1678 C1676 1.419 . S
C1678 C1679 1.362 . S
C1679 H1669 0.930 . S
C1679 C1672 1.409 . S
C1679 C1678 1.362 . S
H1680 C1686 0.930 . S
H1681 C1689 0.930 . S
H1682 C1690 0.930 . S
H1683 C1691 0.930 . S
H1684 C1694 0.930 . S
H1685 C1695 0.930 . S
C1686 H1680 0.930 . S
C1686 C1687 1.355 . S
C1686 C1688 1.415 . S
C1687 C1686 1.355 . S
C1687 C1689 1.419 . S
C1688 C1686 1.415 . S
C1688 C1693 1.425 . S
C1688 C1695 1.409 . S
C1689 H1681 0.930 . S
C1689 C1687 1.419 . S
C1689 C1690 1.362 . S
C1690 H1682 0.930 . S
C1690 C1689 1.362 . S
C1690 C1693 1.409 . S
C1691 H1683 0.930 . S
C1691 C1692 1.355 . S
C1691 C1693 1.415 . S
C1692 C1691 1.355 . S
C1692 C1694 1.419 . S
C1693 C1688 1.425 . S
C1693 C1690 1.409 . S
C1693 C1691 1.415 . S
C1694 H1684 0.930 . S
C1694 C1692 1.419 . S
C1694 C1695 1.362 . S
C1695 H1685 0.930 . S
C1695 C1688 1.409 . S
C1695 C1694 1.362 . S
H1696 C1702 0.930 . S
H1697 C1705 0.930 . S
H1698 C1706 0.930 . S
H1699 C1707 0.930 . S
H1700 C1710 0.930 . S
H1701 C1711 0.930 . S
C1702 H1696 0.930 . S
C1702 C1703 1.355 . S
C1702 C1704 1.415 . S
C1703 C1702 1.355 . S
C1703 C1705 1.419 . S
C1704 C1702 1.415 . S
C1704 C1709 1.425 . S
C1704 C1711 1.409 . S
C1705 H1697 0.930 . S
C1705 C1703 1.419 . S
C1705 C1706 1.362 . S
C1706 H1698 0.930 . S
C1706 C1705 1.362 . S
C1706 C1709 1.409 . S
C1707 H1699 0.930 . S
C1707 C1708 1.355 . S
C1707 C1709 1.415 . S
C1708 C1707 1.355 . S
C1708 C1710 1.419 . S
C1709 C1704 1.425 . S
C1709 C1706 1.409 . S
C1709 C1707 1.415 . S
C1710 H1700 0.930 . S
C1710 C1708 1.419 . S
C1710 C1711 1.362 . S
C1711 H1701 0.930 . S
C1711 C1704 1.409 . S
C1711 C1710 1.362 . S
H1712 C1718 0.930 . S
H1713 C1721 0.930 . S
H1714 C1722 0.930 . S
H1715 C1723 0.930 . S
H1716 C1726 0.930 . S
H1717 C1727 0.930 . S
C1718 H1712 0.930 . S
C1718 C1719 1.355 . S
C1718 C1720 1.415 . S
C1719 C1718 1.355 . S
C1719 C1721 1.419 . S
C1720 C1718 1.415 . S
C1720 C1725 1.425 . S
C1720 C1727 1.409 . S
C1721 H1713 0.930 . S
C1721 C1719 1.419 . S
C1721 C1722 1.362 . S
C1722 H1714 0.930 . S
C1722 C1721 1.362 . S
C1722 C1725 1.409 . S
C1723 H1715 0.930 . S
C1723 C1724 1.355 . S
C1723 C1725 1.415 . S
C1724 C1723 1.355 . S
C1724 C1726 1.419 . S
C1725 C1720 1.425 . S
C1725 C1722 1.409 . S
C1725 C1723 1.415 . S
C1726 H1716 0.930 . S
C1726 C1724 1.419 . S
C1726 C1727 1.362 . S
C1727 H1717 0.930 . S
C1727 C1720 1.409 . S
C1727 C1726 1.362 . S
H1728 C1734 0.930 . S
H1729 C1737 0.930 . S
H1730 C1738 0.930 1_545 S
H1731 C1739 0.930 . S
H1732 C1742 0.930 . S
H1733 C1743 0.940 . S
C1734 H1728 0.930 . S
C1734 C1735 1.355 . S
C1734 C1736 1.415 . S
C1735 C1734 1.355 . S
C1735 C1737 1.419 . S
C1736 C1734 1.415 . S
C1736 C1741 1.425 . S
C1736 C1743 1.409 . S
C1737 H1729 0.930 . S
C1737 C1735 1.419 . S
C1737 C1738 1.362 . S
C1738 H1730 0.930 1_565 S
C1738 C1737 1.362 . S
C1738 C1741 1.409 . S
C1739 H1731 0.930 . S
C1739 C1740 1.355 1_545 S
C1739 C1741 1.415 1_545 S
C1740 C1739 1.355 1_565 S
C1740 C1742 1.419 . S
C1741 C1736 1.425 . S
C1741 C1738 1.409 . S
C1741 C1739 1.415 1_565 S
C1742 H1732 0.930 . S
C1742 C1740 1.419 . S
C1742 C1743 1.362 . S
C1743 H1733 0.940 . S
C1743 C1736 1.409 . S
C1743 C1742 1.362 . S
H1744 C1750 0.930 . S
H1745 C1753 0.930 . S
H1746 C1754 0.930 . S
H1747 C1755 0.930 . S
H1748 C1758 0.930 . S
H1749 C1759 0.930 . S
C1750 H1744 0.930 . S
C1750 C1751 1.355 . S
C1750 C1752 1.415 . S
C1751 C1750 1.355 . S
C1751 C1753 1.419 . S
C1752 C1750 1.415 . S
C1752 C1757 1.425 . S
C1752 C1759 1.409 . S
C1753 H1745 0.930 . S
C1753 C1751 1.419 . S
C1753 C1754 1.362 . S
C1754 H1746 0.930 . S
C1754 C1753 1.362 . S
C1754 C1757 1.409 . S
C1755 H1747 0.930 . S
C1755 C1756 1.355 . S
C1755 C1757 1.415 . S
C1756 C1755 1.355 . S
C1756 C1758 1.419 . S
C1757 C1752 1.425 . S
C1757 C1754 1.409 . S
C1757 C1755 1.415 . S
C1758 H1748 0.930 . S
C1758 C1756 1.419 . S
C1758 C1759 1.362 . S
C1759 H1749 0.930 . S
C1759 C1752 1.409 . S
C1759 C1758 1.362 . S
H1760 C1766 0.930 . S
H1761 C1769 0.930 . S
H1762 C1770 0.930 . S
H1763 C1771 0.930 . S
H1764 C1774 0.930 . S
H1765 C1775 0.930 . S
C1766 H1760 0.930 . S
C1766 C1767 1.355 . S
C1766 C1768 1.415 . S
C1767 C1766 1.355 . S
C1767 C1769 1.419 . S
C1768 C1766 1.415 . S
C1768 C1773 1.425 . S
C1768 C1775 1.409 . S
C1769 H1761 0.930 . S
C1769 C1767 1.419 . S
C1769 C1770 1.362 . S
C1770 H1762 0.930 . S
C1770 C1769 1.362 . S
C1770 C1773 1.409 . S
C1771 H1763 0.930 . S
C1771 C1772 1.355 . S
C1771 C1773 1.415 . S
C1772 C1771 1.355 . S
C1772 C1774 1.419 . S
C1773 C1768 1.425 . S
C1773 C1770 1.409 . S
C1773 C1771 1.415 . S
C1774 H1764 0.930 . S
C1774 C1772 1.419 . S
C1774 C1775 1.362 . S
C1775 H1765 0.930 . S
C1775 C1768 1.409 . S
C1775 C1774 1.362 . S
H1776 C1782 0.930 . S
H1777 C1785 0.930 . S
H1778 C1786 0.930 . S
H1779 C1787 0.930 . S
H1780 C1790 0.930 . S
H1781 C1791 0.930 . S
C1782 H1776 0.930 . S
C1782 C1783 1.355 . S
C1782 C1784 1.415 . S
C1783 C1782 1.355 . S
C1783 C1785 1.419 . S
C1784 C1782 1.415 . S
C1784 C1789 1.425 . S
C1784 C1791 1.409 . S
C1785 H1777 0.930 . S
C1785 C1783 1.419 . S
C1785 C1786 1.362 . S
C1786 H1778 0.930 . S
C1786 C1785 1.362 . S
C1786 C1789 1.409 . S
C1787 H1779 0.930 . S
C1787 C1788 1.355 . S
C1787 C1789 1.415 . S
C1788 C1787 1.355 . S
C1788 C1790 1.419 . S
C1789 C1784 1.425 . S
C1789 C1786 1.409 . S
C1789 C1787 1.415 . S
C1790 H1780 0.930 . S
C1790 C1788 1.419 . S
C1790 C1791 1.362 . S
C1791 H1781 0.930 . S
C1791 C1784 1.409 . S
C1791 C1790 1.362 . S
H1792 C1798 0.930 . S
H1793 C1801 0.930 1_545 S
H1794 C1802 0.930 . S
H1795 C1803 0.930 . S
H1796 C1806 0.930 . S
H1797 C1807 0.930 . S
C1798 H1792 0.930 . S
C1798 C1799 1.355 . S
C1798 C1800 1.415 . S
C1799 C1798 1.355 . S
C1799 C1801 1.419 . S
C1800 C1798 1.415 . S
C1800 C1805 1.425 . S
C1800 C1807 1.409 . S
C1801 H1793 0.930 1_565 S
C1801 C1799 1.419 . S
C1801 C1802 1.362 . S
C1802 H1794 0.930 . S
C1802 C1801 1.362 . S
C1802 C1805 1.409 . S
C1803 H1795 0.930 . S
C1803 C1804 1.355 . S
C1803 C1805 1.415 . S
C1804 C1803 1.355 . S
C1804 C1806 1.419 . S
C1805 C1800 1.425 . S
C1805 C1802 1.409 . S
C1805 C1803 1.415 . S
C1806 H1796 0.930 . S
C1806 C1804 1.419 . S
C1806 C1807 1.362 . S
C1807 H1797 0.930 . S
C1807 C1800 1.409 . S
C1807 C1806 1.362 . S
H1808 C1814 0.930 . S
H1809 C1817 0.930 . S
H1810 C1818 0.930 . S
H1811 C1819 0.930 . S
H1812 C1822 0.930 . S
H1813 C1823 0.930 . S
C1814 H1808 0.930 . S
C1814 C1815 1.355 . S
C1814 C1816 1.415 . S
C1815 C1814 1.355 . S
C1815 C1817 1.419 . S
C1816 C1814 1.415 . S
C1816 C1821 1.425 . S
C1816 C1823 1.409 . S
C1817 H1809 0.930 . S
C1817 C1815 1.419 . S
C1817 C1818 1.362 . S
C1818 H1810 0.930 . S
C1818 C1817 1.362 . S
C1818 C1821 1.409 . S
C1819 H1811 0.930 . S
C1819 C1820 1.355 . S
C1819 C1821 1.415 . S
C1820 C1819 1.355 . S
C1820 C1822 1.419 . S
C1821 C1816 1.425 . S
C1821 C1818 1.409 . S
C1821 C1819 1.415 . S
C1822 H1812 0.930 . S
C1822 C1820 1.419 . S
C1822 C1823 1.362 . S
C1823 H1813 0.930 . S
C1823 C1816 1.409 . S
C1823 C1822 1.362 . S
H1824 C1830 0.930 . S
H1825 C1833 0.930 . S
H1826 C1834 0.930 . S
H1827 C1835 0.930 . S
H1828 C1838 0.930 . S
H1829 C1839 0.930 . S
C1830 H1824 0.930 . S
C1830 C1831 1.355 . S
C1830 C1832 1.415 . S
C1831 C1830 1.355 . S
C1831 C1833 1.419 . S
C1832 C1830 1.415 . S
C1832 C1837 1.425 . S
C1832 C1839 1.409 . S
C1833 H1825 0.930 . S
C1833 C1831 1.419 . S
C1833 C1834 1.362 . S
C1834 H1826 0.930 . S
C1834 C1833 1.362 . S
C1834 C1837 1.409 . S
C1835 H1827 0.930 . S
C1835 C1836 1.355 . S
C1835 C1837 1.415 . S
C1836 C1835 1.355 . S
C1836 C1838 1.419 . S
C1837 C1832 1.425 . S
C1837 C1834 1.409 . S
C1837 C1835 1.415 . S
C1838 H1828 0.930 . S
C1838 C1836 1.419 . S
C1838 C1839 1.362 . S
C1839 H1829 0.930 . S
C1839 C1832 1.409 . S
C1839 C1838 1.362 . S
H1840 C1846 0.930 . S
H1841 C1849 0.930 . S
H1842 C1850 0.930 . S
H1843 C1851 0.930 . S
H1844 C1854 0.930 . S
H1845 C1855 0.930 . S
C1846 H1840 0.930 . S
C1846 C1847 1.355 . S
C1846 C1848 1.415 . S
C1847 C1846 1.355 . S
C1847 C1849 1.419 1_455 S
C1848 C1846 1.415 . S
C1848 C1853 1.425 . S
C1848 C1855 1.409 . S
C1849 H1841 0.930 . S
C1849 C1847 1.419 1_655 S
C1849 C1850 1.362 . S
C1850 H1842 0.930 . S
C1850 C1849 1.362 . S
C1850 C1853 1.409 1_655 S
C1851 H1843 0.930 . S
C1851 C1852 1.355 . S
C1851 C1853 1.415 . S
C1852 C1851 1.355 . S
C1852 C1854 1.419 . S
C1853 C1848 1.425 . S
C1853 C1850 1.409 1_455 S
C1853 C1851 1.415 . S
C1854 H1844 0.930 . S
C1854 C1852 1.419 . S
C1854 C1855 1.362 . S
C1855 H1845 0.930 . S
C1855 C1848 1.409 . S
C1855 C1854 1.362 . S
H1856 C1862 0.930 . S
H1857 C1865 0.930 . S
H1858 C1866 0.930 . S
H1859 C1867 0.930 . S
H1860 C1870 0.930 . S
H1861 C1871 0.930 . S
C1862 H1856 0.930 . S
C1862 C1863 1.355 . S
C1862 C1864 1.415 . S
C1863 C1862 1.355 . S
C1863 C1865 1.419 . S
C1864 C1862 1.415 . S
C1864 C1869 1.425 . S
C1864 C1871 1.409 . S
C1865 H1857 0.930 . S
C1865 C1863 1.419 . S
C1865 C1866 1.362 . S
C1866 H1858 0.930 . S
C1866 C1865 1.362 . S
C1866 C1869 1.409 . S
C1867 H1859 0.930 . S
C1867 C1868 1.355 . S
C1867 C1869 1.415 . S
C1868 C1867 1.355 . S
C1868 C1870 1.419 . S
C1869 C1864 1.425 . S
C1869 C1866 1.409 . S
C1869 C1867 1.415 . S
C1870 H1860 0.930 . S
C1870 C1868 1.419 . S
C1870 C1871 1.362 . S
C1871 H1861 0.930 . S
C1871 C1864 1.409 . S
C1871 C1870 1.362 . S
H1872 C1878 0.930 . S
H1873 C1881 0.930 . S
H1874 C1882 0.930 . S
H1875 C1883 0.930 . S
H1876 C1886 0.930 . S
H1877 C1887 0.930 . S
C1878 H1872 0.930 . S
C1878 C1879 1.355 . S
C1878 C1880 1.415 . S
C1879 C1878 1.355 . S
C1879 C1881 1.419 . S
C1880 C1878 1.415 . S
C1880 C1885 1.425 . S
C1880 C1887 1.409 . S
C1881 H1873 0.930 . S
C1881 C1879 1.419 . S
C1881 C1882 1.362 . S
C1882 H1874 0.930 . S
C1882 C1881 1.362 . S
C1882 C1885 1.409 . S
C1883 H1875 0.930 . S
C1883 C1884 1.355 . S
C1883 C1885 1.415 . S
C1884 C1883 1.355 . S
C1884 C1886 1.419 . S
C1885 C1880 1.425 . S
C1885 C1882 1.409 . S
C1885 C1883 1.415 . S
C1886 H1876 0.930 . S
C1886 C1884 1.419 . S
C1886 C1887 1.362 . S
C1887 H1877 0.930 . S
C1887 C1880 1.409 . S
C1887 C1886 1.362 . S
H1888 C1894 0.930 . S
H1889 C1897 0.930 . S
H1890 C1898 0.930 . S
H1891 C1899 0.930 . S
H1892 C1902 0.930 . S
H1893 C1903 0.930 . S
C1894 H1888 0.930 . S
C1894 C1895 1.355 . S
C1894 C1896 1.415 . S
C1895 C1894 1.355 . S
C1895 C1897 1.419 . S
C1896 C1894 1.415 . S
C1896 C1901 1.425 . S
C1896 C1903 1.409 . S
C1897 H1889 0.930 . S
C1897 C1895 1.419 . S
C1897 C1898 1.362 . S
C1898 H1890 0.930 . S
C1898 C1897 1.362 . S
C1898 C1901 1.409 . S
C1899 H1891 0.930 . S
C1899 C1900 1.355 . S
C1899 C1901 1.415 . S
C1900 C1899 1.355 . S
C1900 C1902 1.419 . S
C1901 C1896 1.425 . S
C1901 C1898 1.409 . S
C1901 C1899 1.415 . S
C1902 H1892 0.930 . S
C1902 C1900 1.419 . S
C1902 C1903 1.362 . S
C1903 H1893 0.930 . S
C1903 C1896 1.409 . S
C1903 C1902 1.362 . S
H1904 C1910 0.930 . S
H1905 C1913 0.930 . S
H1906 C1914 0.930 . S
H1907 C1915 0.888 1_655 S
H1908 C1918 0.930 . S
H1909 C1919 0.930 . S
C1910 H1904 0.930 . S
C1910 C1911 1.355 . S
C1910 C1912 1.415 . S
C1911 C1910 1.355 . S
C1911 C1913 1.419 1_455 S
C1912 C1910 1.415 . S
C1912 C1917 1.425 . S
C1912 C1919 1.409 . S
C1913 H1905 0.930 . S
C1913 C1911 1.419 1_655 S
C1913 C1914 1.362 . S
C1914 H1906 0.930 . S
C1914 C1913 1.362 . S
C1914 C1917 1.409 1_655 S
C1915 H1907 0.888 1_455 S
C1915 C1916 1.378 . S
C1915 C1917 1.433 . S
C1916 C1915 1.378 . S
C1916 C1918 1.419 . S
C1917 C1912 1.425 . S
C1917 C1914 1.409 1_455 S
C1917 C1915 1.433 . S
C1918 H1908 0.930 . S
C1918 C1916 1.419 . S
C1918 C1919 1.362 . S
C1919 H1909 0.930 . S
C1919 C1912 1.409 . S
C1919 C1918 1.362 . S
H1920 C1926 0.930 . S
H1921 C1929 0.930 . S
H1922 C1930 0.930 . S
H1923 C1931 0.930 . S
H1924 C1934 0.930 . S
H1925 C1935 0.930 . S
C1926 H1920 0.930 . S
C1926 C1927 1.355 . S
C1926 C1928 1.415 . S
C1927 C1926 1.355 . S
C1927 C1929 1.419 . S
C1928 C1926 1.415 . S
C1928 C1933 1.425 . S
C1928 C1935 1.409 . S
C1929 H1921 0.930 . S
C1929 C1927 1.419 . S
C1929 C1930 1.362 . S
C1930 H1922 0.930 . S
C1930 C1929 1.362 . S
C1930 C1933 1.409 . S
C1931 H1923 0.930 . S
C1931 C1932 1.355 . S
C1931 C1933 1.415 . S
C1932 C1931 1.355 . S
C1932 C1934 1.419 . S
C1933 C1928 1.425 . S
C1933 C1930 1.409 . S
C1933 C1931 1.415 . S
C1934 H1924 0.930 . S
C1934 C1932 1.419 . S
C1934 C1935 1.362 . S
C1935 H1925 0.930 . S
C1935 C1928 1.409 . S
C1935 C1934 1.362 . S
H1936 C1942 0.930 . S
H1937 C1945 0.930 . S
H1938 C1946 0.930 . S
H1939 C1947 0.930 . S
H1940 C1950 0.930 . S
H1941 C1951 0.930 . S
C1942 H1936 0.930 . S
C1942 C1943 1.355 . S
C1942 C1944 1.415 . S
C1943 C1942 1.355 . S
C1943 C1945 1.419 . S
C1944 C1942 1.415 . S
C1944 C1949 1.425 . S
C1944 C1951 1.409 . S
C1945 H1937 0.930 . S
C1945 C1943 1.419 . S
C1945 C1946 1.362 . S
C1946 H1938 0.930 . S
C1946 C1945 1.362 . S
C1946 C1949 1.409 . S
C1947 H1939 0.930 . S
C1947 C1948 1.355 . S
C1947 C1949 1.415 . S
C1948 C1947 1.355 . S
C1948 C1950 1.419 . S
C1949 C1944 1.425 . S
C1949 C1946 1.409 . S
C1949 C1947 1.415 . S
C1950 H1940 0.930 . S
C1950 C1948 1.419 . S
C1950 C1951 1.362 . S
C1951 H1941 0.930 . S
C1951 C1944 1.409 . S
C1951 C1950 1.362 . S
H1952 C1958 0.930 . S
H1953 C1961 0.930 . S
H1954 C1962 0.930 . S
H1955 C1963 0.930 . S
H1956 C1966 0.930 . S
H1957 C1967 0.930 . S
C1958 H1952 0.930 . S
C1958 C1959 1.355 . S
C1958 C1960 1.415 . S
C1959 C1958 1.355 . S
C1959 C1961 1.419 . S
C1960 C1958 1.415 . S
C1960 C1965 1.425 . S
C1960 C1967 1.409 . S
C1961 H1953 0.930 . S
C1961 C1959 1.419 . S
C1961 C1962 1.362 . S
C1962 H1954 0.930 . S
C1962 C1961 1.362 . S
C1962 C1965 1.409 . S
C1963 H1955 0.930 . S
C1963 C1964 1.355 . S
C1963 C1965 1.415 . S
C1964 C1963 1.355 . S
C1964 C1966 1.419 . S
C1965 C1960 1.425 . S
C1965 C1962 1.409 . S
C1965 C1963 1.415 . S
C1966 H1956 0.930 . S
C1966 C1964 1.419 . S
C1966 C1967 1.362 . S
C1967 H1957 0.930 . S
C1967 C1960 1.409 . S
C1967 C1966 1.362 . S
H1968 C1974 0.930 . S
H1969 C1977 0.930 . S
H1970 C1978 0.930 . S
H1971 C1979 0.930 . S
H1972 C1982 0.930 . S
H1973 C1983 0.930 . S
C1974 H1968 0.930 . S
C1974 C1975 1.355 . S
C1974 C1976 1.415 . S
C1975 C1974 1.355 . S
C1975 C1977 1.419 . S
C1976 C1974 1.415 . S
C1976 C1981 1.425 . S
C1976 C1983 1.409 . S
C1977 H1969 0.930 . S
C1977 C1975 1.419 . S
C1977 C1978 1.362 . S
C1978 H1970 0.930 . S
C1978 C1977 1.362 . S
C1978 C1981 1.409 . S
C1979 H1971 0.930 . S
C1979 C1980 1.355 . S
C1979 C1981 1.415 . S
C1980 C1979 1.355 . S
C1980 C1982 1.419 . S
C1981 C1976 1.425 . S
C1981 C1978 1.409 . S
C1981 C1979 1.415 . S
C1982 H1972 0.930 . S
C1982 C1980 1.419 . S
C1982 C1983 1.362 . S
C1983 H1973 0.930 . S
C1983 C1976 1.409 . S
C1983 C1982 1.362 . S
H1984 C1990 0.930 . S
H1985 C1993 0.930 . S
H1986 C1994 0.930 . S
H1987 C1995 0.930 . S
H1988 C1998 0.930 . S
H1989 C1999 0.930 . S
C1990 H1984 0.930 . S
C1990 C1991 1.355 . S
C1990 C1992 1.415 . S
C1991 C1990 1.355 . S
C1991 C1993 1.419 . S
C1992 C1990 1.415 . S
C1992 C1997 1.425 . S
C1992 C1999 1.409 . S
C1993 H1985 0.930 . S
C1993 C1991 1.419 . S
C1993 C1994 1.362 . S
C1994 H1986 0.930 . S
C1994 C1993 1.362 . S
C1994 C1997 1.409 . S
C1995 H1987 0.930 . S
C1995 C1996 1.355 . S
C1995 C1997 1.415 . S
C1996 C1995 1.355 . S
C1996 C1998 1.419 . S
C1997 C1992 1.425 . S
C1997 C1994 1.409 . S
C1997 C1995 1.415 . S
C1998 H1988 0.930 . S
C1998 C1996 1.419 . S
C1998 C1999 1.362 . S
C1999 H1989 0.930 . S
C1999 C1992 1.409 . S
C1999 C1998 1.362 . S
H2000 C2006 0.930 . S
H2001 C2009 0.930 . S
H2002 C2010 0.930 . S
H2003 C2011 0.930 . S
H2004 C2014 0.930 . S
H2005 C2015 0.930 . S
C2006 H2000 0.930 . S
C2006 C2007 1.355 . S
C2006 C2008 1.415 . S
C2007 C2006 1.355 . S
C2007 C2009 1.419 . S
C2008 C2006 1.415 . S
C2008 C2013 1.425 . S
C2008 C2015 1.409 . S
C2009 H2001 0.930 . S
C2009 C2007 1.419 . S
C2009 C2010 1.362 . S
C2010 H2002 0.930 . S
C2010 C2009 1.362 . S
C2010 C2013 1.409 . S
C2011 H2003 0.930 . S
C2011 C2012 1.355 . S
C2011 C2013 1.415 . S
C2012 C2011 1.355 . S
C2012 C2014 1.419 . S
C2013 C2008 1.425 . S
C2013 C2010 1.409 . S
C2013 C2011 1.415 . S
C2014 H2004 0.930 . S
C2014 C2012 1.419 . S
C2014 C2015 1.362 . S
C2015 H2005 0.930 . S
C2015 C2008 1.409 . S
C2015 C2014 1.362 . S
H2016 C2022 0.930 . S
H2017 C2025 0.930 . S
H2018 C2026 0.930 . S
H2019 C2027 0.930 . S
H2020 C2030 0.930 . S
H2021 C2031 0.930 . S
C2022 H2016 0.930 . S
C2022 C2023 1.355 . S
C2022 C2024 1.415 . S
C2023 C2022 1.355 . S
C2023 C2025 1.419 . S
C2024 C2022 1.415 . S
C2024 C2029 1.425 . S
C2024 C2031 1.409 . S
C2025 H2017 0.930 . S
C2025 C2023 1.419 . S
C2025 C2026 1.362 . S
C2026 H2018 0.930 . S
C2026 C2025 1.362 . S
C2026 C2029 1.409 . S
C2027 H2019 0.930 . S
C2027 C2028 1.355 . S
C2027 C2029 1.415 . S
C2028 C2027 1.355 . S
C2028 C2030 1.419 . S
C2029 C2024 1.425 . S
C2029 C2026 1.409 . S
C2029 C2027 1.415 . S
C2030 H2020 0.930 . S
C2030 C2028 1.419 . S
C2030 C2031 1.362 . S
C2031 H2021 0.930 . S
C2031 C2024 1.409 . S
C2031 C2030 1.362 . S
H2032 C2038 0.930 . S
H2033 C2041 0.930 . S
H2034 C2042 0.930 . S
H2035 C2043 0.930 . S
H2036 C2046 0.930 . S
H2037 C2047 0.930 . S
C2038 H2032 0.930 . S
C2038 C2039 1.355 . S
C2038 C2040 1.415 . S
C2039 C2038 1.355 . S
C2039 C2041 1.419 . S
C2040 C2038 1.415 . S
C2040 C2045 1.425 . S
C2040 C2047 1.409 . S
C2041 H2033 0.930 . S
C2041 C2039 1.419 . S
C2041 C2042 1.362 . S
C2042 H2034 0.930 . S
C2042 C2041 1.362 . S
C2042 C2045 1.409 . S
C2043 H2035 0.930 . S
C2043 C2044 1.355 . S
C2043 C2045 1.415 . S
C2044 C2043 1.355 . S
C2044 C2046 1.419 . S
C2045 C2040 1.425 . S
C2045 C2042 1.409 . S
C2045 C2043 1.415 . S
C2046 H2036 0.930 . S
C2046 C2044 1.419 . S
C2046 C2047 1.362 . S
C2047 H2037 0.930 . S
C2047 C2040 1.409 . S
C2047 C2046 1.362 . S
H2048 C2054 0.930 . S
H2049 C2057 0.930 . S
H2050 C2058 0.930 . S
H2051 C2059 0.930 . S
H2052 C2062 0.930 . S
H2053 C2063 0.930 . S
C2054 H2048 0.930 . S
C2054 C2055 1.355 . S
C2054 C2056 1.415 . S
C2055 C2054 1.355 . S
C2055 C2057 1.419 . S
C2056 C2054 1.415 . S
C2056 C2061 1.425 . S
C2056 C2063 1.409 . S
C2057 H2049 0.930 . S
C2057 C2055 1.419 . S
C2057 C2058 1.362 . S
C2058 H2050 0.930 . S
C2058 C2057 1.362 . S
C2058 C2061 1.409 . S
C2059 H2051 0.930 . S
C2059 C2060 1.355 . S
C2059 C2061 1.415 . S
C2060 C2059 1.355 . S
C2060 C2062 1.419 . S
C2061 C2056 1.425 . S
C2061 C2058 1.409 . S
C2061 C2059 1.415 . S
C2062 H2052 0.930 . S
C2062 C2060 1.419 . S
C2062 C2063 1.362 . S
C2063 H2053 0.930 . S
C2063 C2056 1.409 . S
C2063 C2062 1.362 . S
H2064 C2070 0.930 . S
H2065 C2073 0.930 . S
H2066 C2074 0.930 . S
H2067 C2075 0.930 . S
H2068 C2078 0.930 . S
H2069 C2079 0.930 . S
C2070 H2064 0.930 . S
C2070 C2071 1.355 . S
C2070 C2072 1.415 . S
C2071 C2070 1.355 . S
C2071 C2073 1.419 . S
C2072 C2070 1.415 . S
C2072 C2077 1.425 . S
C2072 C2079 1.409 . S
C2073 H2065 0.930 . S
C2073 C2071 1.419 . S
C2073 C2074 1.362 . S
C2074 H2066 0.930 . S
C2074 C2073 1.362 . S
C2074 C2077 1.409 . S
C2075 H2067 0.930 . S
C2075 C2076 1.355 . S
C2075 C2077 1.415 . S
C2076 C2075 1.355 . S
C2076 C2078 1.419 . S
C2077 C2072 1.425 . S
C2077 C2074 1.409 . S
C2077 C2075 1.415 . S
C2078 H2068 0.930 . S
C2078 C2076 1.419 . S
C2078 C2079 1.362 . S
C2079 H2069 0.930 . S
C2079 C2072 1.409 . S
C2079 C2078 1.362 . S
H2080 C2086 0.930 . S
H2081 C2089 0.930 . S
H2082 C2090 0.930 . S
H2083 C2091 0.930 . S
H2084 C2094 0.930 . S
H2085 C2095 0.930 . S
C2086 H2080 0.930 . S
C2086 C2087 1.355 . S
C2086 C2088 1.415 . S
C2087 C2086 1.355 . S
C2087 C2089 1.419 . S
C2088 C2086 1.415 . S
C2088 C2093 1.425 . S
C2088 C2095 1.409 1_565 S
C2089 H2081 0.930 . S
C2089 C2087 1.419 . S
C2089 C2090 1.362 . S
C2090 H2082 0.930 . S
C2090 C2089 1.362 . S
C2090 C2093 1.409 . S
C2091 H2083 0.930 . S
C2091 C2092 1.355 . S
C2091 C2093 1.415 . S
C2092 C2091 1.355 . S
C2092 C2094 1.419 1_565 S
C2093 C2088 1.425 . S
C2093 C2090 1.409 . S
C2093 C2091 1.415 . S
C2094 H2084 0.930 . S
C2094 C2092 1.419 1_545 S
C2094 C2095 1.362 . S
C2095 H2085 0.930 . S
C2095 C2088 1.409 1_545 S
C2095 C2094 1.362 . S
H2096 C2102 0.930 . S
H2097 C2105 0.930 . S
H2098 C2106 0.930 . S
H2099 C2107 0.930 . S
H2100 C2110 0.930 . S
H2101 C2111 0.930 . S
C2102 H2096 0.930 . S
C2102 C2103 1.355 . S
C2102 C2104 1.415 . S
C2103 C2102 1.355 . S
C2103 C2105 1.419 . S
C2104 C2102 1.415 . S
C2104 C2109 1.425 . S
C2104 C2111 1.409 . S
C2105 H2097 0.930 . S
C2105 C2103 1.419 . S
C2105 C2106 1.362 . S
C2106 H2098 0.930 . S
C2106 C2105 1.362 . S
C2106 C2109 1.409 . S
C2107 H2099 0.930 . S
C2107 C2108 1.355 . S
C2107 C2109 1.415 . S
C2108 C2107 1.355 . S
C2108 C2110 1.419 . S
C2109 C2104 1.425 . S
C2109 C2106 1.409 . S
C2109 C2107 1.415 . S
C2110 H2100 0.930 . S
C2110 C2108 1.419 . S
C2110 C2111 1.362 . S
C2111 H2101 0.930 . S
C2111 C2104 1.409 . S
C2111 C2110 1.362 . S
H2112 C2118 0.930 . S
H2113 C2121 0.930 . S
H2114 C2122 0.930 . S
H2115 C2123 0.930 . S
H2116 C2126 0.930 . S
H2117 C2127 0.930 . S
C2118 H2112 0.930 . S
C2118 C2119 1.355 1_554 S
C2118 C2120 1.415 . S
C2119 C2118 1.355 1_556 S
C2119 C2121 1.419 . S
C2120 C2118 1.415 . S
C2120 C2125 1.425 1_554 S
C2120 C2127 1.409 . S
C2121 H2113 0.930 . S
C2121 C2119 1.419 . S
C2121 C2122 1.362 . S
C2122 H2114 0.930 . S
C2122 C2121 1.362 . S
C2122 C2125 1.409 . S
C2123 H2115 0.930 . S
C2123 C2124 1.355 1_556 S
C2123 C2125 1.415 . S
C2124 C2123 1.355 1_554 S
C2124 C2126 1.419 . S
C2125 C2120 1.425 1_556 S
C2125 C2122 1.409 . S
C2125 C2123 1.415 . S
C2126 H2116 0.930 . S
C2126 C2124 1.419 . S
C2126 C2127 1.362 . S
C2127 H2117 0.930 . S
C2127 C2120 1.409 . S
C2127 C2126 1.362 . S
H2128 C2134 0.930 . S
H2129 C2137 0.930 . S
H2130 C2138 0.930 . S
H2131 C2139 0.930 . S
H2132 C2142 0.930 . S
H2133 C2143 0.930 . S
C2134 H2128 0.930 . S
C2134 C2135 1.355 . S
C2134 C2136 1.415 . S
C2135 C2134 1.355 . S
C2135 C2137 1.419 . S
C2136 C2134 1.415 . S
C2136 C2141 1.425 . S
C2136 C2143 1.409 . S
C2137 H2129 0.930 . S
C2137 C2135 1.419 . S
C2137 C2138 1.362 . S
C2138 H2130 0.930 . S
C2138 C2137 1.362 . S
C2138 C2141 1.409 . S
C2139 H2131 0.930 . S
C2139 C2140 1.355 . S
C2139 C2141 1.415 . S
C2140 C2139 1.355 . S
C2140 C2142 1.419 . S
C2141 C2136 1.425 . S
C2141 C2138 1.409 . S
C2141 C2139 1.415 . S
C2142 H2132 0.930 . S
C2142 C2140 1.419 . S
C2142 C2143 1.362 . S
C2143 H2133 0.930 . S
C2143 C2136 1.409 . S
C2143 C2142 1.362 . S
H2144 C2150 0.930 . S
H2145 C2153 0.930 . S
H2146 C2154 0.930 . S
H2147 C2155 0.930 . S
H2148 C2158 0.930 . S
H2149 C2159 0.930 . S
C2150 H2144 0.930 . S
C2150 C2151 1.355 . S
C2150 C2152 1.415 . S
C2151 C2150 1.355 . S
C2151 C2153 1.419 1_554 S
C2152 C2150 1.415 . S
C2152 C2157 1.425 1_554 S
C2152 C2159 1.409 . S
C2153 H2145 0.930 . S
C2153 C2151 1.419 1_556 S
C2153 C2154 1.362 . S
C2154 H2146 0.930 . S
C2154 C2153 1.362 . S
C2154 C2157 1.409 . S
C2155 H2147 0.930 . S
C2155 C2156 1.355 . S
C2155 C2157 1.415 . S
C2156 C2155 1.355 . S
C2156 C2158 1.419 1_556 S
C2157 C2152 1.425 1_556 S
C2157 C2154 1.409 . S
C2157 C2155 1.415 . S
C2158 H2148 0.930 . S
C2158 C2156 1.419 1_554 S
C2158 C2159 1.362 . S
C2159 H2149 0.930 . S
C2159 C2152 1.409 . S
C2159 C2158 1.362 . S
H2160 C2166 0.930 . S
H2161 C2169 0.930 . S
H2162 C2170 0.930 . S
H2163 C2171 0.930 . S
H2164 C2174 0.930 . S
H2165 C2175 0.930 . S
C2166 H2160 0.930 . S
C2166 C2167 1.355 . S
C2166 C2168 1.415 . S
C2167 C2166 1.355 . S
C2167 C2169 1.419 . S
C2168 C2166 1.415 . S
C2168 C2173 1.425 . S
C2168 C2175 1.409 . S
C2169 H2161 0.930 . S
C2169 C2167 1.419 . S
C2169 C2170 1.362 . S
C2170 H2162 0.930 . S
C2170 C2169 1.362 . S
C2170 C2173 1.409 . S
C2171 H2163 0.930 . S
C2171 C2172 1.355 . S
C2171 C2173 1.415 . S
C2172 C2171 1.355 . S
C2172 C2174 1.419 . S
C2173 C2168 1.425 . S
C2173 C2170 1.409 . S
C2173 C2171 1.415 . S
C2174 H2164 0.930 . S
C2174 C2172 1.419 . S
C2174 C2175 1.362 . S
C2175 H2165 0.930 . S
C2175 C2168 1.409 . S
C2175 C2174 1.362 . S
H2176 C2182 0.930 . S
H2177 C2185 0.930 . S
H2178 C2186 0.930 . S
H2179 C2187 0.930 . S
H2180 C2190 0.930 . S
H2181 C2191 0.930 . S
C2182 H2176 0.930 . S
C2182 C2183 1.355 . S
C2182 C2184 1.415 . S
C2183 C2182 1.355 . S
C2183 C2185 1.419 . S
C2184 C2182 1.415 . S
C2184 C2189 1.425 . S
C2184 C2191 1.409 . S
C2185 H2177 0.930 . S
C2185 C2183 1.419 . S
C2185 C2186 1.362 . S
C2186 H2178 0.930 . S
C2186 C2185 1.362 . S
C2186 C2189 1.409 . S
C2187 H2179 0.930 . S
C2187 C2188 1.355 . S
C2187 C2189 1.415 . S
C2188 C2187 1.355 . S
C2188 C2190 1.419 . S
C2189 C2184 1.425 . S
C2189 C2186 1.409 . S
C2189 C2187 1.415 . S
C2190 H2180 0.930 . S
C2190 C2188 1.419 . S
C2190 C2191 1.362 . S
C2191 H2181 0.930 . S
C2191 C2184 1.409 . S
C2191 C2190 1.362 . S
C663 C109 1.176 . S
C668 C352 1.147 . S
C679 C61 1.116 . S
C684 C365 1.314 . S
C695 C74 1.276 . S
C700 C384 1.381 . S
C716 C415 1.849 . S
C711 C96 1.923 . S
C727 C25 1.631 1_455 S
C732 C435 1.592 . S
C748 C452 0.872 . S
C743 C40 0.886 . S
C764 C465 1.485 . S
C759 C46 1.494 . S
C775 C5 0.968 . S
C780 C492 0.952 . S
C796 C345 1.125 . S
C791 C229 0.954 . S
C807 C249 1.499 . S
C812 C375 1.434 . S
C828 C377 1.546 . S
C823 C271 1.434 1_545 S
C844 C412 0.994 . S
C839 C172 0.970 . S
C855 C236 1.104 . S
C860 C432 1.147 . S
C876 C445 1.879 . S
C871 C242 1.894 . S
C892 C475 1.201 . S
C887 C278 1.266 . S
C908 C485 1.220 . S
C903 C179 1.289 . S
C924 C355 1.600 1_565 S
C919 C159 1.289 . S
C935 C285 1.473 . S
C940 C505 1.628 . S
C956 C535 1.496 . S
C951 C333 1.485 . S
C972 C552 1.159 . S
C967 C320 1.217 . S
C983 C123 1.771 . S
C988 C495 1.734 . S
C999 C138 1.297 . S
C1004 C382 1.274 . S
C1015 C326 1.915 . S
C1020 C565 1.916 . S
C1036 C592 1.055 . S
C1031 C298 1.078 . S
C1052 C342 1.171 . S
C1047 C67 1.197 . S
C1068 C577 1.284 . S
C1063 C110 1.309 . S
C1079 C88 1.349 . S
C1084 C395 1.350 . S
C1095 C75 1.588 . S
C1100 C564 1.777 . S
C1116 C424 1.578 1_455 S
C1111 C11 1.567 . S
C1127 C47 0.760 . S
C1132 C522 0.864 . S
C1148 C457 1.424 . S
C1143 C32 1.399 . S
C1164 C602 0.988 . S
C1159 C26 1.030 . S
C1180 C337 1.192 . S
C1175 C152 1.220 . S
C1196 C584 1.459 . S
C1191 C319 1.421 . S
C1207 C124 1.604 . S
C1212 C385 1.535 . S
C1223 C284 1.015 . S
C1228 C562 1.020 . S
C1239 C145 1.064 1_545 S
C1244 C422 1.124 . S
C1260 C517 1.820 . S
C1255 C312 1.705 . S
C1271 C117 1.067 . S
C1276 C464 1.144 . S
C1287 C291 1.172 . S
C1292 C597 1.137 . S
C1303 C194 1.619 . S
C1308 C344 1.610 . S
C1319 C180 1.647 . S
C1324 C497 1.631 . S
C1335 C263 1.385 . S
C1340 C444 1.394 . S
C1351 C243 1.076 . S
C1356 C542 1.144 . S
C1372 C604 1.772 . S
C1367 C277 1.810 . S
C1383 C215 1.110 . S
C1388 C392 1.198 . S
C1404 C397 1.846 . S
C1399 C256 1.788 . S
C1420 C362 1.144 . S
C1415 C200 1.150 . S
C1431 C81 1.158 . S
C1436 C632 1.121 . S
C1452 C585 1.318 . S
C1447 C89 1.221 . S
C1463 C102 1.349 . S
C1468 C644 1.329 1_455 S
C1479 C68 1.938 . S
C1484 C575 1.887 . S
C1495 C53 1.598 . S
C1500 C515 1.596 . S
C1516 C532 0.906 . S
C1511 C12 0.862 . S
C1532 C545 1.468 . S
C1527 C18 1.468 . S
C1548 C612 0.937 . S
C1543 C33 0.930 . S
C1564 C625 1.133 . S
C1559 C257 0.980 . S
C1575 C193 1.497 . S
C1580 C595 1.411 . S
C1596 C637 1.543 . S
C1591 C201 1.441 . S
C1612 C572 1.001 . S
C1607 C214 0.969 . S
C1628 C512 1.107 . S
C1623 C264 1.148 . S
C1639 C186 1.887 . S
C1644 C525 1.874 . S
C1660 C555 1.271 . S
C1655 C208 1.275 . S
C1671 C221 1.290 . S
C1676 C605 1.220 . S
C1692 C635 1.569 . S
C1687 C313 1.409 . S
C1703 C131 1.477 . S
C1708 C425 1.669 . S
C1724 C455 1.441 . S
C1719 C151 1.512 . S
C1740 C472 1.161 1_565 S
C1735 C166 1.220 . S
C1756 C615 1.754 . S
C1751 C305 1.794 . S
C1767 C292 1.278 . S
C1772 C642 1.195 . S
C1788 C405 1.923 . S
C1783 C144 1.917 . S
C1804 C372 1.024 . S
C1799 C116 1.001 1_565 S
C1815 C95 1.201 . S
C1820 C622 1.121 . S
C1836 C357 1.304 . S
C1831 C82 1.306 . S
C1847 C60 1.362 1_455 S
C1852 C655 1.321 . S
C1863 C103 1.570 . S
C1868 C404 1.836 . S
C1879 C39 1.557 . S
C1884 C504 1.536 1_556 S
C1900 C442 0.876 . S
C1895 C19 0.827 . S
C1911 C4 1.346 . S
C1916 C537 1.442 . S
C1927 C54 1.067 . S
C1932 C482 1.048 . S
C1948 C617 1.171 . S
C1943 C334 1.222 . S
C1959 C165 1.418 . S
C1964 C364 1.454 . S
C1980 C645 1.597 . S
C1975 C306 1.607 . S
C1991 C130 1.002 . S
C1996 C402 0.976 . S
C2007 C327 1.055 . S
C2012 C502 1.110 . S
C2028 C437 1.817 . S
C2023 C158 1.700 . S
C2039 C299 1.118 . S
C2044 C544 1.092 . S
C2060 C477 1.215 . S
C2055 C137 1.221 . S
C2076 C624 1.582 . S
C2071 C250 1.631 . S
C2092 C417 1.639 1_565 S
C2087 C222 1.647 . S
C2103 C235 1.397 . S
C2108 C524 1.373 . S
C2124 C462 1.111 . S
C2119 C187 0.978 . S
C2135 C207 1.812 . S
C2140 C484 1.772 . S
C2151 C173 1.173 . S
C2156 C652 1.147 . S
C2172 C557 1.818 . S
C2167 C228 1.798 1_565 S
C2188 C582 1.086 . S
C2183 C270 1.108 . S
