# Generated by pormake.
# Topology sit, (3,6)-cn, num edge types: 1
# Building blocks:
#     Node 0, Type 0, BuildingBlock: WUSLED_clean_sbu_0, # of connection points: 3
#     Node 1, Type 0, BuildingBlock: WUSLED_clean_sbu_0, # of connection points: 3
#     Node 2, Type 0, BuildingBlock: WUSLED_clean_sbu_0, # of connection points: 3
#     Node 3, Type 0, BuildingBlock: WUSLED_clean_sbu_0, # of connection points: 3
#     Node 4, Type 1, BuildingBlock: MIDCAF_clean_sbu_0, # of connection points: 6
#     Node 5, Type 1, BuildingBlock: MIDCAF_clean_sbu_0, # of connection points: 6
#     Edge 6, Type (0, 1), BuildingBlock: OJICUG_clean_linker_0, # of connection points: 2
#     Edge 7, Type (0, 1), BuildingBlock: OJICUG_clean_linker_0, # of connection points: 2
#     Edge 8, Type (0, 1), BuildingBlock: OJICUG_clean_linker_0, # of connection points: 2
#     Edge 9, Type (0, 1), BuildingBlock: OJICUG_clean_linker_0, # of connection points: 2
#     Edge 10, Type (0, 1), BuildingBlock: OJICUG_clean_linker_0, # of connection points: 2
#     Edge 11, Type (0, 1), BuildingBlock: OJICUG_clean_linker_0, # of connection points: 2
#     Edge 12, Type (0, 1), BuildingBlock: OJICUG_clean_linker_0, # of connection points: 2
#     Edge 13, Type (0, 1), BuildingBlock: OJICUG_clean_linker_0, # of connection points: 2
#     Edge 14, Type (0, 1), BuildingBlock: OJICUG_clean_linker_0, # of connection points: 2
#     Edge 15, Type (0, 1), BuildingBlock: OJICUG_clean_linker_0, # of connection points: 2
#     Edge 16, Type (0, 1), BuildingBlock: OJICUG_clean_linker_0, # of connection points: 2
#     Edge 17, Type (0, 1), BuildingBlock: OJICUG_clean_linker_0, # of connection points: 2
# Relax obj value: 0.107
# Max RMSD: 0.192
# Mean RMSD: 0.104
data_MOF--net-sit--node1-WUSLED_clean_sbu_0--node2-MIDCAF_clean_sbu_0--edge1-OJICUG_clean_linker_0
_symmetry_space_group_name_H-M    P1
_symmetry_Int_Tables_number       1
_symmetry_cell_setting            triclinic
loop_
_symmetry_equiv_pos_as_xyz
'x, y, z'
_cell_length_a     24.22081
_cell_length_b     30.002714
_cell_length_c     37.43043
_cell_angle_alpha  90.305413
_cell_angle_beta   88.905946
_cell_angle_gamma 84.489196
loop_
_atom_site_label
_atom_site_type_symbol
_atom_site_fract_x
_atom_site_fract_y
_atom_site_fract_z
_atom_type_partial_charge
C0 C 0.9078 0.41539 0.01438 0.0
C1 C 0.92621 0.44238 0.98692 0.0
C2 C 0.83089 0.46806 0.97306 0.0
C3 C 0.88809 0.46831 0.96631 0.0
C4 C 0.81268 0.44314 0.00201 0.0
C5 C 0.85094 0.41675 0.02243 0.0
U6 U 0.05624 0.374 0.02645 0.0
O7 O 0.10568 0.34959 0.07223 0.0
O8 O 0.09944 0.30591 0.02552 0.0
C9 C 0.11739 0.30939 0.05824 0.0
C10 C 0.94787 0.38344 0.03225 0.0
C11 C 0.10926 0.27162 0.08212 0.0
C12 C 0.05411 0.23489 0.12598 0.0
C13 C 0.05893 0.26873 0.10076 0.0
C14 C 0.14898 0.20533 0.11289 0.0
C15 C 0.09958 0.20344 0.133 0.0
C16 C 0.15372 0.23913 0.08773 0.0
C17 C 0.1571 0.44233 0.97347 0.0
C18 C 0.2534 0.41944 0.9579 0.0
C19 C 0.21551 0.49612 0.94839 0.0
C20 C 0.16426 0.48585 0.96209 0.0
C21 C 0.26053 0.46291 0.94575 0.0
C22 C 0.20208 0.40924 0.97171 0.0
C23 C 0.10194 0.43216 0.986 0.0
O24 O 0.97524 0.35439 0.01042 0.0
O25 O 0.97998 0.40105 0.05531 0.0
O26 O 0.09107 0.43872 0.02024 0.0
O27 O 0.08451 0.39501 0.97359 0.0
H28 H 0.97006 0.44188 0.98044 0.0
H29 H 0.90318 0.48729 0.94423 0.0
H30 H 0.76877 0.44197 0.00751 0.0
H31 H 0.83605 0.39611 0.04352 0.0
H32 H 0.01571 0.23481 0.14127 0.0
H33 H 0.02406 0.29348 0.09668 0.0
H34 H 0.18456 0.18142 0.11735 0.0
H35 H 0.19277 0.24066 0.07339 0.0
H36 H 0.28706 0.39299 0.95592 0.0
H37 H 0.21989 0.53005 0.93985 0.0
H38 H 0.12997 0.51186 0.96345 0.0
H39 H 0.19728 0.37544 0.98047 0.0
C40 C 0.86232 0.74056 0.01424 0.0
C41 C 0.87128 0.69511 0.0044 0.0
C42 C 0.7806 0.69905 0.97668 0.0
C43 C 0.83068 0.67448 0.98595 0.0
C44 C 0.77206 0.74458 0.98676 0.0
C45 C 0.81236 0.76499 0.00542 0.0
U46 U 0.0146 0.75278 0.02546 0.0
O47 O 0.06013 0.81293 0.02525 0.0
O48 O 0.06474 0.76827 0.07151 0.0
C49 C 0.07777 0.80632 0.05797 0.0
C50 C 0.90619 0.76387 0.03097 0.0
C51 C 0.07014 0.84525 0.08237 0.0
C52 C 0.01061 0.89907 0.11788 0.0
C53 C 0.01704 0.86491 0.09203 0.0
C54 C 0.11035 0.89554 0.12358 0.0
C55 C 0.05715 0.91403 0.1347 0.0
C56 C 0.1167 0.86147 0.09771 0.0
C57 C 0.11295 0.66774 0.97142 0.0
C58 C 0.21353 0.66206 0.97316 0.0
C59 C 0.16792 0.6262 0.92524 0.0
C60 C 0.11634 0.64126 0.94037 0.0
C61 C 0.21697 0.63721 0.94108 0.0
C62 C 0.16177 0.67748 0.98815 0.0
C63 C 0.05813 0.6867 0.98448 0.0
O64 O 0.93726 0.74067 0.05411 0.0
O65 O 0.93487 0.78669 0.00864 0.0
O66 O 0.04165 0.72668 0.97234 0.0
O67 O 0.04736 0.68218 0.01875 0.0
H68 H 0.90996 0.67571 0.01051 0.0
H69 H 0.83861 0.63936 0.97894 0.0
H70 H 0.73477 0.76501 0.97942 0.0
H71 H 0.80504 0.80024 0.01224 0.0
H72 H 0.96905 0.91286 0.12548 0.0
H73 H 0.98057 0.85295 0.08035 0.0
H74 H 0.14707 0.90563 0.13622 0.0
H75 H 0.15804 0.84668 0.09056 0.0
H76 H 0.25075 0.6714 0.98566 0.0
H77 H 0.1695 0.60688 0.90064 0.0
H78 H 0.07899 0.63334 0.92721 0.0
H79 H 0.15982 0.69805 0.0121 0.0
C80 C 0.41995 0.90876 0.51059 0.0
C81 C 0.43793 0.93277 0.48115 0.0
C82 C 0.34257 0.95923 0.46813 0.0
C83 C 0.39954 0.95754 0.45997 0.0
C84 C 0.32488 0.93722 0.4988 0.0
C85 C 0.36338 0.91193 0.51981 0.0
U86 U 0.56872 0.87335 0.52803 0.0
O87 O 0.61477 0.85179 0.5761 0.0
O88 O 0.61574 0.80695 0.52953 0.0
C89 C 0.62915 0.81141 0.56315 0.0
C90 C 0.46022 0.87876 0.53009 0.0
C91 C 0.61767 0.77426 0.58691 0.0
C92 C 0.55472 0.72307 0.61104 0.0
C93 C 0.56647 0.75602 0.58643 0.0
C94 C 0.64578 0.72534 0.63622 0.0
C95 C 0.59374 0.70805 0.63684 0.0
C96 C 0.65756 0.7581 0.61148 0.0
C97 C 0.66854 0.94489 0.47692 0.0
C98 C 0.76597 0.92541 0.4626 0.0
C99 C 0.72419 1.00079 0.45211 0.0
C100 C 0.67347 0.9887 0.46535 0.0
C101 C 0.77087 0.96911 0.45014 0.0
C102 C 0.71522 0.91341 0.47595 0.0
C103 C 0.61378 0.93253 0.48829 0.0
O104 O 0.49086 0.85009 0.5096 0.0
O105 O 0.48911 0.89834 0.55393 0.0
O106 O 0.60031 0.93941 0.52217 0.0
O107 O 0.59968 0.89425 0.47583 0.0
H108 H 0.48158 0.93103 0.47382 0.0
H109 H 0.41421 0.97432 0.43656 0.0
H110 H 0.2811 0.93764 0.50543 0.0
H111 H 0.34885 0.89372 0.5425 0.0
H112 H 0.51447 0.71022 0.61046 0.0
H113 H 0.53509 0.768 0.56761 0.0
H114 H 0.67651 0.71524 0.65597 0.0
H115 H 0.6973 0.77184 0.61227 0.0
H116 H 0.80094 0.90006 0.46108 0.0
H117 H 0.72677 1.03487 0.44326 0.0
H118 H 0.63778 1.01345 0.46606 0.0
H119 H 0.71213 0.8794 0.48481 0.0
C120 C 0.37302 0.23802 0.51397 0.0
C121 C 0.38609 0.1939 0.50151 0.0
C122 C 0.29312 0.1928 0.47771 0.0
C123 C 0.34643 0.17141 0.48372 0.0
C124 C 0.28044 0.23697 0.49051 0.0
C125 C 0.31986 0.25918 0.50852 0.0
U126 U 0.52325 0.2601 0.52119 0.0
O127 O 0.56233 0.3234 0.52211 0.0
O128 O 0.57478 0.2762 0.56644 0.0
C129 C 0.58305 0.31596 0.55398 0.0
C130 C 0.41538 0.26355 0.53012 0.0
C131 C 0.57423 0.35325 0.57991 0.0
C132 C 0.51342 0.40563 0.61593 0.0
C133 C 0.52079 0.37247 0.58928 0.0
C134 C 0.61286 0.40166 0.62331 0.0
C135 C 0.55932 0.41998 0.63389 0.0
C136 C 0.62015 0.36866 0.59662 0.0
C137 C 0.62522 0.18394 0.46185 0.0
C138 C 0.72578 0.17567 0.46501 0.0
C139 C 0.68083 0.15077 0.41218 0.0
C140 C 0.62908 0.16414 0.42781 0.0
C141 C 0.72973 0.15682 0.43044 0.0
C142 C 0.67384 0.18938 0.48056 0.0
C143 C 0.57001 0.19909 0.47675 0.0
O144 O 0.45037 0.24112 0.55145 0.0
O145 O 0.43958 0.28957 0.50781 0.0
O146 O 0.54909 0.23891 0.46653 0.0
O147 O 0.56176 0.19173 0.51094 0.0
H148 H 0.42721 0.17706 0.50506 0.0
H149 H 0.35768 0.1374 0.47457 0.0
H150 H 0.24049 0.25513 0.48571 0.0
H151 H 0.30923 0.29341 0.51744 0.0
H152 H 0.47162 0.41929 0.62306 0.0
H153 H 0.48479 0.36112 0.57656 0.0
H154 H 0.64914 0.41118 0.63681 0.0
H155 H 0.66174 0.35419 0.58974 0.0
H156 H 0.76285 0.18113 0.47951 0.0
H157 H 0.68267 0.13598 0.38567 0.0
H158 H 0.59194 0.15951 0.41308 0.0
H159 H 0.67166 0.20475 0.50687 0.0
Zn160 Zn 0.04376 0.15129 0.3379 0.0
Zn161 Zn 0.07307 0.98122 0.34429 0.0
Zn162 Zn 0.05921 0.06533 0.33898 0.0
C163 C 0.05634 0.99892 0.27211 0.0
C164 C 0.97758 1.0047 0.38195 0.0
O165 O 0.12482 0.09176 0.37193 0.0
O166 O 0.09322 0.16311 0.37782 0.0
C167 C 0.07527 0.12368 0.26868 0.0
O168 O 0.06385 1.03884 0.28276 0.0
O169 O 0.05442 0.96785 0.29454 0.0
O170 O 0.01502 0.97242 0.38103 0.0
O171 O -0.01483 1.04149 0.36572 0.0
O172 O 0.07138 0.15816 0.28836 0.0
O173 O 0.06803 0.08506 0.28197 0.0
O174 O 0.97645 0.0886 0.36273 0.0
O175 O 0.96284 0.16001 0.34785 0.0
C176 C 0.94527 0.12592 0.36204 0.0
O177 O 0.1351 1.04523 0.37006 0.0
O178 O 0.1515 0.97279 0.35856 0.0
C179 C 0.12786 0.13081 0.38593 0.0
C180 C 0.16609 1.008 0.37261 0.0
Zn181 Zn 0.52076 0.65391 0.84233 0.0
Zn182 Zn 0.56787 0.4813 0.84468 0.0
Zn183 Zn 0.54778 0.56698 0.84079 0.0
C184 C 0.55381 0.50249 0.77222 0.0
C185 C 0.46924 0.49899 0.88006 0.0
O186 O 0.61082 0.59675 0.87358 0.0
O187 O 0.57746 0.66798 0.87725 0.0
C188 C 0.54687 0.62969 0.77099 0.0
O189 O 0.55589 0.54273 0.78413 0.0
O190 O 0.55492 0.47008 0.79363 0.0
O191 O 0.5078 0.46758 0.87863 0.0
O192 O 0.47623 0.53722 0.8659 0.0
O193 O 0.5334 0.66321 0.7909 0.0
O194 O 0.55379 0.59 0.7843 0.0
O195 O 0.46377 0.58406 0.86571 0.0
O196 O 0.4433 0.6571 0.85945 0.0
C197 C 0.42993 0.61971 0.86991 0.0
O198 O 0.62404 0.55025 0.87229 0.0
O199 O 0.64476 0.47786 0.86193 0.0
C200 C 0.61336 0.63676 0.88584 0.0
C201 C 0.65677 0.51407 0.8757 0.0
C202 C 0.04956 0.15183 0.17276 0.0
C203 C 0.09769 0.17273 0.16408 0.0
H204 H 0.00548 0.11768 0.21303 0.0
C205 C 0.14218 0.16857 0.18783 0.0
H206 H 0.0148 0.15406 0.15487 0.0
C207 C 0.13678 0.14774 0.2208 0.0
C208 C 0.08725 0.12997 0.23052 0.0
H209 H 0.1796 0.18458 0.1823 0.0
H210 H 0.16982 0.14853 0.23985 0.0
C211 C 0.04448 0.13044 0.20574 0.0
C212 C 0.08739 0.97632 0.17389 0.0
C213 C 0.05027 0.94395 0.16683 0.0
H214 H 0.11757 1.02073 0.21292 0.0
C215 C 0.00994 0.93634 0.19297 0.0
H216 H 0.11859 0.98338 0.15415 0.0
C217 C 0.00952 0.95755 0.2262 0.0
C218 C 0.049 0.98728 0.2342 0.0
H219 H 0.98104 0.91149 0.18885 0.0
H220 H 0.98012 0.94864 0.24652 0.0
C221 C 0.08651 0.9981 0.20731 0.0
C222 C 0.61677 0.64695 0.68216 0.0
C223 C 0.57797 0.67913 0.66695 0.0
H224 H 0.63676 0.60471 0.72732 0.0
C225 C 0.52545 0.68763 0.68356 0.0
H226 H 0.65738 0.63918 0.66981 0.0
C227 C 0.51375 0.66763 0.71601 0.0
C228 C 0.55396 0.63835 0.73256 0.0
H229 H 0.49466 0.71243 0.67304 0.0
H230 H 0.4744 0.67748 0.72946 0.0
C231 C 0.60478 0.62663 0.71475 0.0
C232 C 0.58913 0.48094 0.67455 0.0
C233 C 0.55141 0.44949 0.66625 0.0
H234 H 0.61897 0.52363 0.7149 0.0
C235 C 0.50932 0.44244 0.69136 0.0
H236 H 0.6217 0.48761 0.65567 0.0
C237 C 0.50765 0.46329 0.7248 0.0
C238 C 0.54762 0.49205 0.73402 0.0
H239 H 0.47991 0.41825 0.68633 0.0
H240 H 0.47696 0.45471 0.7444 0.0
C241 C 0.58717 0.50215 0.70821 0.0
C242 C 0.36475 0.45556 0.94399 0.0
C243 C 0.31422 0.47329 0.92953 0.0
H244 H 0.45352 0.4501 0.93965 0.0
C245 C 0.31533 0.50019 0.89889 0.0
H246 H 0.36536 0.43511 0.96776 0.0
C247 C 0.3658 0.50884 0.88296 0.0
C248 C 0.41607 0.4912 0.89754 0.0
H249 H 0.27719 0.51377 0.88671 0.0
H250 H 0.36549 0.52871 0.85887 0.0
C251 C 0.41517 0.46425 0.92803 0.0
C252 C 0.75282 0.64716 0.92792 0.0
C253 C 0.73781 0.67819 0.95572 0.0
H254 H 0.72496 0.60933 0.88384 0.0
C255 C 0.68118 0.69139 0.96206 0.0
H256 H 0.79599 0.63635 0.92206 0.0
C257 C 0.64105 0.67647 0.93991 0.0
C258 C 0.6562 0.64717 0.91129 0.0
H259 H 0.66772 0.71408 0.98379 0.0
H260 H 0.59793 0.68851 0.94484 0.0
C261 C 0.71227 0.63166 0.90595 0.0
C262 C 0.79746 0.47679 0.91076 0.0
C263 C 0.7905 0.48827 0.94711 0.0
H264 H 0.75992 0.4764 0.85944 0.0
C265 C 0.74214 0.51456 0.95853 0.0
H266 H 0.83406 0.45621 0.90127 0.0
C267 C 0.7001 0.52692 0.93428 0.0
C268 C 0.7056 0.5124 0.89856 0.0
H269 H 0.73594 0.52393 0.98641 0.0
H270 H 0.66184 0.54503 0.94398 0.0
C271 C 0.75513 0.48831 0.88681 0.0
C272 C 0.31823 0.60899 0.94009 0.0
C273 C 0.27096 0.62725 0.9221 0.0
H274 H 0.40637 0.59117 0.937 0.0
C275 C 0.27612 0.63938 0.88607 0.0
H276 H 0.31519 0.59923 0.96782 0.0
C277 C 0.32786 0.63526 0.8688 0.0
C278 C 0.37516 0.61803 0.88696 0.0
H279 H 0.24051 0.65403 0.87171 0.0
H280 H 0.33119 0.64653 0.84145 0.0
C281 C 0.37007 0.60417 0.92252 0.0
C282 C 0.82414 1.00714 0.40286 0.0
C283 C 0.82393 0.98102 0.43399 0.0
H284 H 0.87324 1.03473 0.36176 0.0
C285 C 0.87488 0.96473 0.44865 0.0
H286 H 0.78564 1.01969 0.39058 0.0
C287 C 0.92482 0.9734 0.43209 0.0
C288 C 0.92487 0.99892 0.40079 0.0
H289 H 0.87619 0.94504 0.47283 0.0
H290 H 0.96351 0.95988 0.44367 0.0
C291 C 0.87419 1.01582 0.38633 0.0
C292 C 0.19444 0.17926 0.46531 0.0
C293 C 0.25132 0.17042 0.45695 0.0
H294 H 0.11111 0.17354 0.44919 0.0
C295 C 0.26718 0.14288 0.42707 0.0
H296 H 0.18047 0.199 0.48864 0.0
C297 C 0.22698 0.12715 0.40495 0.0
C298 C 0.17044 0.13908 0.41215 0.0
H299 H 0.31049 0.13541 0.41963 0.0
H300 H 0.2401 0.10792 0.38119 0.0
C301 C 0.15459 0.1643 0.44294 0.0
C302 C 0.30575 0.96481 0.40651 0.0
C303 C 0.30155 0.97886 0.44239 0.0
H304 H 0.2656 0.96343 0.3561 0.0
C305 C 0.25549 1.0079 0.45377 0.0
H306 H 0.34056 0.94211 0.39712 0.0
C307 C 0.21302 1.02081 0.42999 0.0
C308 C 0.21574 1.00418 0.3948 0.0
H309 H 0.25147 1.01925 0.4813 0.0
H310 H 0.17651 1.04127 0.43975 0.0
C311 C 0.26295 0.97696 0.38305 0.0
C312 C 0.79316 0.16083 0.3774 0.0
C313 C 0.78449 0.14615 0.41247 0.0
H314 H 0.85123 0.16581 0.33405 0.0
C315 C 0.82882 0.12289 0.43038 0.0
H316 H 0.75998 0.17937 0.36314 0.0
C317 C 0.88098 0.11491 0.41355 0.0
C318 C 0.88952 0.13019 0.37869 0.0
H319 H 0.82315 0.11103 0.45735 0.0
H320 H 0.91491 0.09767 0.42801 0.0
C321 C 0.84529 0.15326 0.3608 0.0
loop_
_geom_bond_atom_site_label_1
_geom_bond_atom_site_label_2
_geom_bond_distance
_geom_bond_site_symmetry_2
_ccdc_geom_bond_type
C0 C1 1.264 . S
C0 C5 1.479 . S
C0 C10 1.465 1_656 S
C1 C0 1.264 . S
C1 C3 1.339 . S
C1 H28 0.931 . S
C2 C3 1.395 . S
C2 C4 1.320 . S
C3 C1 1.339 . S
C3 C2 1.395 . S
C3 H29 0.929 . S
C4 C2 1.320 . S
C4 C5 1.405 . S
C4 H30 0.930 . S
C5 C0 1.479 . S
C5 C4 1.405 . S
C5 H31 0.931 1_556 S
U6 O7 2.454 . S
U6 O8 2.458 . S
U6 C9 2.984 . S
U6 C10 2.847 . S
U6 C23 2.882 . S
U6 O24 2.441 . S
U6 O25 2.420 . S
U6 O26 2.455 . S
U6 O27 2.449 . S
O7 U6 2.454 . S
O7 C9 1.353 . S
O8 U6 2.458 . S
O8 C9 1.286 . S
C9 U6 2.984 . S
C9 O7 1.353 . S
C9 O8 1.286 . S
C9 C11 1.363 . S
C10 C0 1.465 1_454 S
C10 U6 2.847 . S
C10 O24 1.249 . S
C10 O25 1.202 . S
C11 C9 1.363 . S
C11 C13 1.408 . S
C11 C16 1.342 . S
C12 C13 1.310 . S
C12 C15 1.461 . S
C12 H32 0.932 . S
C13 C11 1.408 . S
C13 C12 1.310 . S
C13 H33 0.930 . S
C14 C15 1.474 . S
C14 C16 1.285 . S
C14 H34 0.929 . S
C15 C12 1.461 . S
C15 C14 1.474 . S
C16 C11 1.342 . S
C16 C14 1.285 . S
C16 H35 0.930 . S
C17 C20 1.424 . S
C17 C22 1.245 1_556 S
C17 C23 1.428 1_556 S
C18 C21 1.260 . S
C18 C22 1.477 1_556 S
C18 H36 0.932 . S
C19 C20 1.384 . S
C19 C21 1.479 . S
C19 H37 0.929 . S
C20 C17 1.424 . S
C20 C19 1.384 . S
C20 H38 0.928 . S
C21 C18 1.260 . S
C21 C19 1.479 . S
C22 C17 1.245 1_554 S
C22 C18 1.477 1_554 S
C22 H39 0.932 . S
C23 U6 2.882 . S
C23 C17 1.428 1_554 S
C23 O26 1.301 . S
C23 O27 1.282 . S
O24 U6 2.441 . S
O24 C10 1.249 . S
O25 U6 2.420 . S
O25 C10 1.202 . S
O26 U6 2.455 . S
O26 C23 1.301 . S
O27 U6 2.449 . S
O27 C23 1.282 . S
H28 C1 0.931 . S
H29 C3 0.929 . S
H30 C4 0.930 . S
H31 C5 0.931 1_554 S
H32 C12 0.932 . S
H33 C13 0.930 . S
H34 C14 0.929 . S
H35 C16 0.930 . S
H36 C18 0.932 . S
H37 C19 0.929 . S
H38 C20 0.928 . S
H39 C22 0.932 . S
C40 C41 1.264 . S
C40 C45 1.479 . S
C40 C50 1.465 . S
C41 C40 1.264 . S
C41 C43 1.339 . S
C41 H68 0.931 . S
C42 C43 1.395 . S
C42 C44 1.320 . S
C43 C41 1.339 . S
C43 C42 1.395 . S
C43 H69 0.929 . S
C44 C42 1.320 . S
C44 C45 1.405 . S
C44 H70 0.930 . S
C45 C40 1.479 . S
C45 C44 1.405 . S
C45 H71 0.931 1_556 S
U46 O47 2.454 . S
U46 O48 2.458 1_655 S
U46 C49 2.984 . S
U46 C50 2.847 1_554 S
U46 C63 2.882 1_654 S
U46 O64 2.441 . S
U46 O65 2.420 1_554 S
U46 O66 2.455 1_655 S
U46 O67 2.449 1_654 S
O47 U46 2.454 . S
O47 C49 1.353 . S
O48 U46 2.458 1_455 S
O48 C49 1.286 1_455 S
C49 U46 2.984 . S
C49 O47 1.353 . S
C49 O48 1.286 1_655 S
C49 C51 1.363 . S
C50 C40 1.465 . S
C50 U46 2.847 1_556 S
C50 O64 1.249 1_556 S
C50 O65 1.202 . S
C51 C49 1.363 . S
C51 C53 1.408 . S
C51 C56 1.342 1_655 S
C52 C53 1.310 . S
C52 C55 1.461 . S
C52 H72 0.932 . S
C53 C51 1.408 . S
C53 C52 1.310 . S
C53 H73 0.930 . S
C54 C55 1.474 1_455 S
C54 C56 1.285 . S
C54 H74 0.929 . S
C55 C52 1.461 . S
C55 C54 1.474 1_655 S
C56 C51 1.342 1_455 S
C56 C54 1.285 . S
C56 H75 0.930 . S
C57 C60 1.424 . S
C57 C62 1.245 . S
C57 C63 1.428 . S
C58 C61 1.260 . S
C58 C62 1.477 . S
C58 H76 0.932 . S
C59 C60 1.384 . S
C59 C61 1.479 . S
C59 H77 0.929 . S
C60 C57 1.424 . S
C60 C59 1.384 . S
C60 H78 0.928 . S
C61 C58 1.260 . S
C61 C59 1.479 . S
C62 C57 1.245 . S
C62 C58 1.477 . S
C62 H79 0.932 . S
C63 U46 2.882 1_456 S
C63 C57 1.428 . S
C63 O66 1.301 1_556 S
C63 O67 1.282 . S
O64 U46 2.441 . S
O64 C50 1.249 1_554 S
O65 U46 2.420 1_556 S
O65 C50 1.202 . S
O66 U46 2.455 1_455 S
O66 C63 1.301 1_554 S
O67 U46 2.449 1_456 S
O67 C63 1.282 . S
H68 C41 0.931 . S
H69 C43 0.929 . S
H70 C44 0.930 . S
H71 C45 0.931 1_554 S
H72 C52 0.932 . S
H73 C53 0.930 . S
H74 C54 0.929 . S
H75 C56 0.930 . S
H76 C58 0.932 . S
H77 C59 0.929 . S
H78 C60 0.928 . S
H79 C62 0.932 . S
C80 C81 1.264 . S
C80 C85 1.479 . S
C80 C90 1.465 . S
C81 C80 1.264 . S
C81 C83 1.339 . S
C81 H108 0.931 . S
C82 C83 1.395 . S
C82 C84 1.320 . S
C83 C81 1.339 . S
C83 C82 1.395 . S
C83 H109 0.929 . S
C84 C82 1.320 . S
C84 C85 1.405 . S
C84 H110 0.930 . S
C85 C80 1.479 . S
C85 C84 1.405 . S
C85 H111 0.931 . S
U86 O87 2.454 . S
U86 O88 2.458 . S
U86 C89 2.984 . S
U86 C90 2.847 . S
U86 C103 2.882 . S
U86 O104 2.441 . S
U86 O105 2.420 . S
U86 O106 2.455 . S
U86 O107 2.449 . S
O87 U86 2.454 . S
O87 C89 1.353 . S
O88 U86 2.458 . S
O88 C89 1.286 . S
C89 U86 2.984 . S
C89 O87 1.353 . S
C89 O88 1.286 . S
C89 C91 1.363 . S
C90 C80 1.465 . S
C90 U86 2.847 . S
C90 O104 1.249 . S
C90 O105 1.202 . S
C91 C89 1.363 . S
C91 C93 1.408 . S
C91 C96 1.342 . S
C92 C93 1.310 . S
C92 C95 1.461 . S
C92 H112 0.932 . S
C93 C91 1.408 . S
C93 C92 1.310 . S
C93 H113 0.930 . S
C94 C95 1.474 . S
C94 C96 1.285 . S
C94 H114 0.929 . S
C95 C92 1.461 . S
C95 C94 1.474 . S
C96 C91 1.342 . S
C96 C94 1.285 . S
C96 H115 0.930 . S
C97 C100 1.424 . S
C97 C102 1.245 . S
C97 C103 1.428 . S
C98 C101 1.260 . S
C98 C102 1.477 . S
C98 H116 0.932 . S
C99 C100 1.384 . S
C99 C101 1.479 . S
C99 H117 0.929 . S
C100 C97 1.424 . S
C100 C99 1.384 . S
C100 H118 0.928 . S
C101 C98 1.260 . S
C101 C99 1.479 . S
C102 C97 1.245 . S
C102 C98 1.477 . S
C102 H119 0.932 . S
C103 U86 2.882 . S
C103 C97 1.428 . S
C103 O106 1.301 . S
C103 O107 1.282 . S
O104 U86 2.441 . S
O104 C90 1.249 . S
O105 U86 2.420 . S
O105 C90 1.202 . S
O106 U86 2.455 . S
O106 C103 1.301 . S
O107 U86 2.449 . S
O107 C103 1.282 . S
H108 C81 0.931 . S
H109 C83 0.929 . S
H110 C84 0.930 . S
H111 C85 0.931 . S
H112 C92 0.932 . S
H113 C93 0.930 . S
H114 C94 0.929 . S
H115 C96 0.930 . S
H116 C98 0.932 . S
H117 C99 0.929 . S
H118 C100 0.928 . S
H119 C102 0.932 . S
C120 C121 1.264 . S
C120 C125 1.479 . S
C120 C130 1.465 . S
C121 C120 1.264 . S
C121 C123 1.339 . S
C121 H148 0.931 . S
C122 C123 1.395 . S
C122 C124 1.320 . S
C123 C121 1.339 . S
C123 C122 1.395 . S
C123 H149 0.929 . S
C124 C122 1.320 . S
C124 C125 1.405 . S
C124 H150 0.930 . S
C125 C120 1.479 . S
C125 C124 1.405 . S
C125 H151 0.931 . S
U126 O127 2.454 . S
U126 O128 2.458 . S
U126 C129 2.984 . S
U126 C130 2.847 . S
U126 C143 2.882 . S
U126 O144 2.441 . S
U126 O145 2.420 . S
U126 O146 2.455 . S
U126 O147 2.449 . S
O127 U126 2.454 . S
O127 C129 1.353 . S
O128 U126 2.458 . S
O128 C129 1.286 . S
C129 U126 2.984 . S
C129 O127 1.353 . S
C129 O128 1.286 . S
C129 C131 1.363 . S
C130 C120 1.465 . S
C130 U126 2.847 . S
C130 O144 1.249 . S
C130 O145 1.202 . S
C131 C129 1.363 . S
C131 C133 1.408 . S
C131 C136 1.342 . S
C132 C133 1.310 . S
C132 C135 1.461 . S
C132 H152 0.932 . S
C133 C131 1.408 . S
C133 C132 1.310 . S
C133 H153 0.930 . S
C134 C135 1.474 . S
C134 C136 1.285 . S
C134 H154 0.929 . S
C135 C132 1.461 . S
C135 C134 1.474 . S
C136 C131 1.342 . S
C136 C134 1.285 . S
C136 H155 0.930 . S
C137 C140 1.424 . S
C137 C142 1.245 . S
C137 C143 1.428 . S
C138 C141 1.260 . S
C138 C142 1.477 . S
C138 H156 0.932 . S
C139 C140 1.384 . S
C139 C141 1.479 . S
C139 H157 0.929 . S
C140 C137 1.424 . S
C140 C139 1.384 . S
C140 H158 0.928 . S
C141 C138 1.260 . S
C141 C139 1.479 . S
C142 C137 1.245 . S
C142 C138 1.477 . S
C142 H159 0.932 . S
C143 U126 2.882 . S
C143 C137 1.428 . S
C143 O146 1.301 . S
C143 O147 1.282 . S
O144 U126 2.441 . S
O144 C130 1.249 . S
O145 U126 2.420 . S
O145 C130 1.202 . S
O146 U126 2.455 . S
O146 C143 1.301 . S
O147 U126 2.449 . S
O147 C143 1.282 . S
H148 C121 0.931 . S
H149 C123 0.929 . S
H150 C124 0.930 . S
H151 C125 0.931 . S
H152 C132 0.932 . S
H153 C133 0.930 . S
H154 C134 0.929 . S
H155 C136 0.930 . S
H156 C138 0.932 . S
H157 C139 0.929 . S
H158 C140 0.928 . S
H159 C142 0.932 . S
Zn160 O166 1.920 . S
Zn160 O172 1.898 . S
Zn160 O175 1.905 1_455 S
Zn161 O169 1.905 . S
Zn161 O170 1.898 . S
Zn161 O178 1.920 . S
Zn162 O165 2.080 . S
Zn162 O168 2.114 1_545 S
Zn162 O171 2.120 1_545 S
Zn162 O173 2.120 . S
Zn162 O174 2.114 1_455 S
Zn162 O177 2.080 1_545 S
C163 O168 1.166 . S
C163 O169 1.182 . S
C164 O170 1.167 . S
C164 O171 1.299 . S
O165 Zn162 2.080 . S
O165 C179 1.305 . S
O166 Zn160 1.920 . S
O166 C179 1.234 . S
C167 O172 1.167 . S
C167 O173 1.299 . S
O168 Zn162 2.114 1_565 S
O168 C163 1.166 . S
O169 Zn161 1.905 . S
O169 C163 1.182 . S
O170 Zn161 1.898 . S
O170 C164 1.167 . S
O171 Zn162 2.120 1_565 S
O171 C164 1.299 . S
O172 Zn160 1.898 . S
O172 C167 1.167 . S
O173 Zn162 2.120 . S
O173 C167 1.299 . S
O174 Zn162 2.114 1_655 S
O174 C176 1.166 . S
O175 Zn160 1.905 1_655 S
O175 C176 1.182 . S
C176 O174 1.166 . S
C176 O175 1.182 . S
O177 Zn162 2.080 1_565 S
O177 C180 1.305 . S
O178 Zn161 1.920 . S
O178 C180 1.234 . S
C179 O165 1.305 . S
C179 O166 1.234 . S
C180 O177 1.305 . S
C180 O178 1.234 . S
Zn181 O187 1.920 . S
Zn181 O193 1.898 . S
Zn181 O196 1.905 . S
Zn182 O190 1.905 . S
Zn182 O191 1.898 . S
Zn182 O199 1.920 . S
Zn183 O186 2.080 . S
Zn183 O189 2.114 . S
Zn183 O192 2.120 . S
Zn183 O194 2.120 . S
Zn183 O195 2.114 . S
Zn183 O198 2.080 . S
C184 O189 1.166 . S
C184 O190 1.182 . S
C185 O191 1.167 . S
C185 O192 1.299 . S
O186 Zn183 2.080 . S
O186 C200 1.305 . S
O187 Zn181 1.920 . S
O187 C200 1.234 . S
C188 O193 1.167 . S
C188 O194 1.299 . S
O189 Zn183 2.114 . S
O189 C184 1.166 . S
O190 Zn182 1.905 . S
O190 C184 1.182 . S
O191 Zn182 1.898 . S
O191 C185 1.167 . S
O192 Zn183 2.120 . S
O192 C185 1.299 . S
O193 Zn181 1.898 . S
O193 C188 1.167 . S
O194 Zn183 2.120 . S
O194 C188 1.299 . S
O195 Zn183 2.114 . S
O195 C197 1.166 . S
O196 Zn181 1.905 . S
O196 C197 1.182 . S
C197 O195 1.166 . S
C197 O196 1.182 . S
O198 Zn183 2.080 . S
O198 C201 1.305 . S
O199 Zn182 1.920 . S
O199 C201 1.234 . S
C200 O186 1.305 . S
C200 O187 1.234 . S
C201 O198 1.305 . S
C201 O199 1.234 . S
C202 C203 1.387 . S
C202 H206 0.950 . S
C202 C211 1.390 . S
C203 C202 1.387 . S
C203 C205 1.387 . S
H204 C211 0.950 . S
C205 C203 1.387 . S
C205 C207 1.390 . S
C205 H209 0.950 . S
H206 C202 0.950 . S
C207 C205 1.390 . S
C207 C208 1.387 . S
C207 H210 0.950 . S
C208 C207 1.387 . S
C208 C211 1.387 . S
H209 C205 0.950 . S
H210 C207 0.950 . S
C211 C202 1.390 . S
C211 H204 0.950 . S
C211 C208 1.387 . S
C212 C213 1.387 . S
C212 H216 0.950 . S
C212 C221 1.390 . S
C213 C212 1.387 . S
C213 C215 1.387 . S
H214 C221 0.950 . S
C215 C213 1.387 . S
C215 C217 1.390 . S
C215 H219 0.950 . S
H216 C212 0.950 . S
C217 C215 1.390 . S
C217 C218 1.387 . S
C217 H220 0.950 . S
C218 C217 1.387 . S
C218 C221 1.387 . S
H219 C215 0.950 . S
H220 C217 0.950 . S
C221 C212 1.390 . S
C221 H214 0.950 . S
C221 C218 1.387 . S
C222 C223 1.387 . S
C222 H226 0.950 . S
C222 C231 1.390 . S
C223 C222 1.387 . S
C223 C225 1.387 . S
H224 C231 0.950 . S
C225 C223 1.387 . S
C225 C227 1.390 . S
C225 H229 0.950 . S
H226 C222 0.950 . S
C227 C225 1.390 . S
C227 C228 1.387 . S
C227 H230 0.950 . S
C228 C227 1.387 . S
C228 C231 1.387 . S
H229 C225 0.950 . S
H230 C227 0.950 . S
C231 C222 1.390 . S
C231 H224 0.950 . S
C231 C228 1.387 . S
C232 C233 1.387 . S
C232 H236 0.950 . S
C232 C241 1.390 . S
C233 C232 1.387 . S
C233 C235 1.387 . S
H234 C241 0.950 . S
C235 C233 1.387 . S
C235 C237 1.390 . S
C235 H239 0.950 . S
H236 C232 0.950 . S
C237 C235 1.390 . S
C237 C238 1.387 . S
C237 H240 0.950 . S
C238 C237 1.387 . S
C238 C241 1.387 . S
H239 C235 0.950 . S
H240 C237 0.950 . S
C241 C232 1.390 . S
C241 H234 0.950 . S
C241 C238 1.387 . S
C242 C243 1.387 . S
C242 H246 0.950 . S
C242 C251 1.390 . S
C243 C242 1.387 . S
C243 C245 1.387 . S
H244 C251 0.950 . S
C245 C243 1.387 . S
C245 C247 1.390 . S
C245 H249 0.950 . S
H246 C242 0.950 . S
C247 C245 1.390 . S
C247 C248 1.387 . S
C247 H250 0.950 . S
C248 C247 1.387 . S
C248 C251 1.387 . S
H249 C245 0.950 . S
H250 C247 0.950 . S
C251 C242 1.390 . S
C251 H244 0.950 . S
C251 C248 1.387 . S
C252 C253 1.387 . S
C252 H256 0.950 . S
C252 C261 1.390 . S
C253 C252 1.387 . S
C253 C255 1.387 . S
H254 C261 0.950 . S
C255 C253 1.387 . S
C255 C257 1.390 . S
C255 H259 0.950 . S
H256 C252 0.950 . S
C257 C255 1.390 . S
C257 C258 1.387 . S
C257 H260 0.950 . S
C258 C257 1.387 . S
C258 C261 1.387 . S
H259 C255 0.950 . S
H260 C257 0.950 . S
C261 C252 1.390 . S
C261 H254 0.950 . S
C261 C258 1.387 . S
C262 C263 1.387 . S
C262 H266 0.950 . S
C262 C271 1.390 . S
C263 C262 1.387 . S
C263 C265 1.387 . S
H264 C271 0.950 . S
C265 C263 1.387 . S
C265 C267 1.390 . S
C265 H269 0.950 . S
H266 C262 0.950 . S
C267 C265 1.390 . S
C267 C268 1.387 . S
C267 H270 0.950 . S
C268 C267 1.387 . S
C268 C271 1.387 . S
H269 C265 0.950 . S
H270 C267 0.950 . S
C271 C262 1.390 . S
C271 H264 0.950 . S
C271 C268 1.387 . S
C272 C273 1.387 . S
C272 H276 0.950 . S
C272 C281 1.390 . S
C273 C272 1.387 . S
C273 C275 1.387 . S
H274 C281 0.950 . S
C275 C273 1.387 . S
C275 C277 1.390 . S
C275 H279 0.950 . S
H276 C272 0.950 . S
C277 C275 1.390 . S
C277 C278 1.387 . S
C277 H280 0.950 . S
C278 C277 1.387 . S
C278 C281 1.387 . S
H279 C275 0.950 . S
H280 C277 0.950 . S
C281 C272 1.390 . S
C281 H274 0.950 . S
C281 C278 1.387 . S
C282 C283 1.387 . S
C282 H286 0.950 . S
C282 C291 1.390 . S
C283 C282 1.387 . S
C283 C285 1.387 . S
H284 C291 0.950 . S
C285 C283 1.387 . S
C285 C287 1.390 . S
C285 H289 0.950 . S
H286 C282 0.950 . S
C287 C285 1.390 . S
C287 C288 1.387 . S
C287 H290 0.950 . S
C288 C287 1.387 . S
C288 C291 1.387 . S
H289 C285 0.950 . S
H290 C287 0.950 . S
C291 C282 1.390 . S
C291 H284 0.950 . S
C291 C288 1.387 . S
C292 C293 1.387 . S
C292 H296 0.950 . S
C292 C301 1.390 . S
C293 C292 1.387 . S
C293 C295 1.387 . S
H294 C301 0.950 . S
C295 C293 1.387 . S
C295 C297 1.390 . S
C295 H299 0.950 . S
H296 C292 0.950 . S
C297 C295 1.390 . S
C297 C298 1.387 . S
C297 H300 0.950 . S
C298 C297 1.387 . S
C298 C301 1.387 . S
H299 C295 0.950 . S
H300 C297 0.950 . S
C301 C292 1.390 . S
C301 H294 0.950 . S
C301 C298 1.387 . S
C302 C303 1.387 . S
C302 H306 0.950 . S
C302 C311 1.390 . S
C303 C302 1.387 . S
C303 C305 1.387 . S
H304 C311 0.950 . S
C305 C303 1.387 . S
C305 C307 1.390 . S
C305 H309 0.950 . S
H306 C302 0.950 . S
C307 C305 1.390 . S
C307 C308 1.387 . S
C307 H310 0.950 . S
C308 C307 1.387 . S
C308 C311 1.387 . S
H309 C305 0.950 . S
H310 C307 0.950 . S
C311 C302 1.390 . S
C311 H304 0.950 . S
C311 C308 1.387 . S
C312 C313 1.387 . S
C312 H316 0.950 . S
C312 C321 1.390 . S
C313 C312 1.387 . S
C313 C315 1.387 . S
H314 C321 0.950 . S
C315 C313 1.387 . S
C315 C317 1.390 . S
C315 H319 0.950 . S
H316 C312 0.950 . S
C317 C315 1.390 . S
C317 C318 1.387 . S
C317 H320 0.950 . S
C318 C317 1.387 . S
C318 C321 1.387 . S
H319 C315 0.950 . S
H320 C317 0.950 . S
C321 C312 1.390 . S
C321 H314 0.950 . S
C321 C318 1.387 . S
C208 C167 1.557 . S
C203 C15 1.579 . S
C218 C163 1.546 . S
C213 C55 1.576 1_455 S
C228 C188 1.555 . S
C223 C95 1.581 . S
C233 C135 1.576 . S
C238 C184 1.546 . S
C243 C21 1.322 . S
C248 C185 1.154 . S
C258 C200 1.172 . S
C253 C42 1.438 . S
C263 C2 1.675 . S
C268 C201 1.529 . S
C278 C197 1.560 . S
C273 C61 1.732 . S
C288 C164 1.159 1_655 S
C283 C101 1.327 . S
C293 C122 1.436 . S
C298 C179 1.168 . S
C308 C180 1.529 . S
C303 C82 1.675 . S
C318 C176 1.556 . S
C313 C141 1.731 . S
