# Generated by pormake.
# Topology gar, (4,6)-cn, num edge types: 1
# Building blocks:
#     Node 0, Type 0, BuildingBlock: TATPOV_clean_sbu_0, # of connection points: 4
#     Node 1, Type 0, BuildingBlock: TATPOV_clean_sbu_0, # of connection points: 4
#     Node 2, Type 0, BuildingBlock: TATPOV_clean_sbu_0, # of connection points: 4
#     Node 3, Type 0, BuildingBlock: TATPOV_clean_sbu_0, # of connection points: 4
#     Node 4, Type 0, BuildingBlock: TATPOV_clean_sbu_0, # of connection points: 4
#     Node 5, Type 0, BuildingBlock: TATPOV_clean_sbu_0, # of connection points: 4
#     Node 6, Type 0, BuildingBlock: TATPOV_clean_sbu_0, # of connection points: 4
#     Node 7, Type 0, BuildingBlock: TATPOV_clean_sbu_0, # of connection points: 4
#     Node 8, Type 0, BuildingBlock: TATPOV_clean_sbu_0, # of connection points: 4
#     Node 9, Type 0, BuildingBlock: TATPOV_clean_sbu_0, # of connection points: 4
#     Node 10, Type 0, BuildingBlock: TATPOV_clean_sbu_0, # of connection points: 4
#     Node 11, Type 0, BuildingBlock: TATPOV_clean_sbu_0, # of connection points: 4
#     Node 12, Type 0, BuildingBlock: TATPOV_clean_sbu_0, # of connection points: 4
#     Node 13, Type 0, BuildingBlock: TATPOV_clean_sbu_0, # of connection points: 4
#     Node 14, Type 0, BuildingBlock: TATPOV_clean_sbu_0, # of connection points: 4
#     Node 15, Type 0, BuildingBlock: TATPOV_clean_sbu_0, # of connection points: 4
#     Node 16, Type 0, BuildingBlock: TATPOV_clean_sbu_0, # of connection points: 4
#     Node 17, Type 0, BuildingBlock: TATPOV_clean_sbu_0, # of connection points: 4
#     Node 18, Type 0, BuildingBlock: TATPOV_clean_sbu_0, # of connection points: 4
#     Node 19, Type 0, BuildingBlock: TATPOV_clean_sbu_0, # of connection points: 4
#     Node 20, Type 0, BuildingBlock: TATPOV_clean_sbu_0, # of connection points: 4
#     Node 21, Type 0, BuildingBlock: TATPOV_clean_sbu_0, # of connection points: 4
#     Node 22, Type 0, BuildingBlock: TATPOV_clean_sbu_0, # of connection points: 4
#     Node 23, Type 0, BuildingBlock: TATPOV_clean_sbu_0, # of connection points: 4
#     Node 24, Type 1, BuildingBlock: PAMTUU_clean_sbu_0, # of connection points: 6
#     Node 25, Type 1, BuildingBlock: PAMTUU_clean_sbu_0, # of connection points: 6
#     Node 26, Type 1, BuildingBlock: PAMTUU_clean_sbu_0, # of connection points: 6
#     Node 27, Type 1, BuildingBlock: PAMTUU_clean_sbu_0, # of connection points: 6
#     Node 28, Type 1, BuildingBlock: PAMTUU_clean_sbu_0, # of connection points: 6
#     Node 29, Type 1, BuildingBlock: PAMTUU_clean_sbu_0, # of connection points: 6
#     Node 30, Type 1, BuildingBlock: PAMTUU_clean_sbu_0, # of connection points: 6
#     Node 31, Type 1, BuildingBlock: PAMTUU_clean_sbu_0, # of connection points: 6
#     Node 32, Type 1, BuildingBlock: PAMTUU_clean_sbu_0, # of connection points: 6
#     Node 33, Type 1, BuildingBlock: PAMTUU_clean_sbu_0, # of connection points: 6
#     Node 34, Type 1, BuildingBlock: PAMTUU_clean_sbu_0, # of connection points: 6
#     Node 35, Type 1, BuildingBlock: PAMTUU_clean_sbu_0, # of connection points: 6
#     Node 36, Type 1, BuildingBlock: PAMTUU_clean_sbu_0, # of connection points: 6
#     Node 37, Type 1, BuildingBlock: PAMTUU_clean_sbu_0, # of connection points: 6
#     Node 38, Type 1, BuildingBlock: PAMTUU_clean_sbu_0, # of connection points: 6
#     Node 39, Type 1, BuildingBlock: PAMTUU_clean_sbu_0, # of connection points: 6
#     Edge 40, Type (0, 1), None
#     Edge 41, Type (0, 1), None
#     Edge 42, Type (0, 1), None
#     Edge 43, Type (0, 1), None
#     Edge 44, Type (0, 1), None
#     Edge 45, Type (0, 1), None
#     Edge 46, Type (0, 1), None
#     Edge 47, Type (0, 1), None
#     Edge 48, Type (0, 1), None
#     Edge 49, Type (0, 1), None
#     Edge 50, Type (0, 1), None
#     Edge 51, Type (0, 1), None
#     Edge 52, Type (0, 1), None
#     Edge 53, Type (0, 1), None
#     Edge 54, Type (0, 1), None
#     Edge 55, Type (0, 1), None
#     Edge 56, Type (0, 1), None
#     Edge 57, Type (0, 1), None
#     Edge 58, Type (0, 1), None
#     Edge 59, Type (0, 1), None
#     Edge 60, Type (0, 1), None
#     Edge 61, Type (0, 1), None
#     Edge 62, Type (0, 1), None
#     Edge 63, Type (0, 1), None
#     Edge 64, Type (0, 1), None
#     Edge 65, Type (0, 1), None
#     Edge 66, Type (0, 1), None
#     Edge 67, Type (0, 1), None
#     Edge 68, Type (0, 1), None
#     Edge 69, Type (0, 1), None
#     Edge 70, Type (0, 1), None
#     Edge 71, Type (0, 1), None
#     Edge 72, Type (0, 1), None
#     Edge 73, Type (0, 1), None
#     Edge 74, Type (0, 1), None
#     Edge 75, Type (0, 1), None
#     Edge 76, Type (0, 1), None
#     Edge 77, Type (0, 1), None
#     Edge 78, Type (0, 1), None
#     Edge 79, Type (0, 1), None
#     Edge 80, Type (0, 1), None
#     Edge 81, Type (0, 1), None
#     Edge 82, Type (0, 1), None
#     Edge 83, Type (0, 1), None
#     Edge 84, Type (0, 1), None
#     Edge 85, Type (0, 1), None
#     Edge 86, Type (0, 1), None
#     Edge 87, Type (0, 1), None
#     Edge 88, Type (0, 1), None
#     Edge 89, Type (0, 1), None
#     Edge 90, Type (0, 1), None
#     Edge 91, Type (0, 1), None
#     Edge 92, Type (0, 1), None
#     Edge 93, Type (0, 1), None
#     Edge 94, Type (0, 1), None
#     Edge 95, Type (0, 1), None
#     Edge 96, Type (0, 1), None
#     Edge 97, Type (0, 1), None
#     Edge 98, Type (0, 1), None
#     Edge 99, Type (0, 1), None
#     Edge 100, Type (0, 1), None
#     Edge 101, Type (0, 1), None
#     Edge 102, Type (0, 1), None
#     Edge 103, Type (0, 1), None
#     Edge 104, Type (0, 1), None
#     Edge 105, Type (0, 1), None
#     Edge 106, Type (0, 1), None
#     Edge 107, Type (0, 1), None
#     Edge 108, Type (0, 1), None
#     Edge 109, Type (0, 1), None
#     Edge 110, Type (0, 1), None
#     Edge 111, Type (0, 1), None
#     Edge 112, Type (0, 1), None
#     Edge 113, Type (0, 1), None
#     Edge 114, Type (0, 1), None
#     Edge 115, Type (0, 1), None
#     Edge 116, Type (0, 1), None
#     Edge 117, Type (0, 1), None
#     Edge 118, Type (0, 1), None
#     Edge 119, Type (0, 1), None
#     Edge 120, Type (0, 1), None
#     Edge 121, Type (0, 1), None
#     Edge 122, Type (0, 1), None
#     Edge 123, Type (0, 1), None
#     Edge 124, Type (0, 1), None
#     Edge 125, Type (0, 1), None
#     Edge 126, Type (0, 1), None
#     Edge 127, Type (0, 1), None
#     Edge 128, Type (0, 1), None
#     Edge 129, Type (0, 1), None
#     Edge 130, Type (0, 1), None
#     Edge 131, Type (0, 1), None
#     Edge 132, Type (0, 1), None
#     Edge 133, Type (0, 1), None
#     Edge 134, Type (0, 1), None
#     Edge 135, Type (0, 1), None
# Relax obj value: 0.441
# Max RMSD: 0.478
# Mean RMSD: 0.230
data_MOF--net-gar--node1-TATPOV_clean_sbu_0--node2-PAMTUU_clean_sbu_0--edge1-none
_symmetry_space_group_name_H-M    P1
_symmetry_Int_Tables_number       1
_symmetry_cell_setting            triclinic
loop_
_symmetry_equiv_pos_as_xyz
'x, y, z'
_cell_length_a     30.172248
_cell_length_b     26.592197
_cell_length_c     29.065194
_cell_angle_alpha  94.143733
_cell_angle_beta   96.865813
_cell_angle_gamma 110.63511
loop_
_atom_site_label
_atom_site_type_symbol
_atom_site_fract_x
_atom_site_fract_y
_atom_site_fract_z
_atom_type_partial_charge
Zn0 Zn 0.07661 0.3518 0.50455 0.0
Zn1 Zn 0.14714 0.37572 0.45016 0.0
O2 O 0.1547 0.45754 0.49914 0.0
O3 O 0.099 0.42598 0.54344 0.0
O4 O 0.22692 0.38103 0.41413 0.0
O5 O 0.07965 0.28305 0.5331 0.0
O6 O 0.13661 0.29454 0.49003 0.0
C7 C 0.1302 0.46708 0.53146 0.0
C8 C 1.02611 0.36585 0.41744 0.0
O9 O 0.0697 0.37483 0.40584 0.0
O10 O 1.0198 0.3492 0.45684 0.0
C11 C 0.24844 0.37476 0.37634 0.0
O12 O 0.22003 0.36122 0.33597 0.0
C13 C 0.11042 0.26556 0.51913 0.0
Zn14 Zn 0.1188 0.81116 0.79158 0.0
Zn15 Zn 0.13752 0.89315 0.73847 0.0
O16 O 0.06719 0.88938 0.77945 0.0
O17 O 0.0551 0.82269 0.82126 0.0
O18 O 0.14801 0.9756 0.70293 0.0
O19 O 0.19623 0.83337 0.82003 0.0
O20 O 0.21539 0.90011 0.77722 0.0
C21 C 1.04075 0.86057 0.80875 0.0
C22 C 0.11907 0.7641 0.69269 0.0
O23 O 0.12812 0.81504 0.68582 0.0
O24 O 0.10923 0.75224 0.73304 0.0
C25 C 0.14387 0.98868 0.66012 0.0
O26 O 0.13237 0.9487 0.6263 0.0
C27 C 0.23009 0.87032 0.80521 0.0
Zn28 Zn 0.5742 0.85249 1.0063 0.0
Zn29 Zn 0.64577 0.87572 0.95095 0.0
O30 O 0.65402 0.9576 1.00089 0.0
O31 O 0.59725 0.92781 0.04453 0.0
O32 O 0.72583 0.88131 0.91437 0.0
O33 O 0.57929 0.78393 0.03464 0.0
O34 O 0.63543 0.79464 0.9906 0.0
C35 C 0.62966 0.96822 0.033 0.0
C36 C 0.52341 0.86399 0.91783 0.0
O37 O 0.56736 0.87361 0.90672 0.0
O38 O 0.51707 0.84805 0.9575 0.0
C39 C 0.74684 0.87353 0.87651 0.0
O40 O 0.71756 0.85708 0.83669 0.0
C41 C 0.60964 0.76603 1.02013 0.0
Zn42 Zn 0.62146 0.313 0.29418 0.0
Zn43 Zn 0.63881 0.39336 0.23937 0.0
O44 O 0.56809 0.38869 0.28022 0.0
O45 O 0.55676 0.3228 0.32292 0.0
O46 O 0.64816 0.47538 0.2029 0.0
O47 O 0.6983 0.33609 0.32388 0.0
O48 O 0.71682 0.40059 0.27869 0.0
C49 C 0.54184 0.36003 0.30976 0.0
C50 C 0.62328 0.26537 0.19532 0.0
O51 O 0.63017 0.31545 0.18705 0.0
O52 O 0.61466 0.25461 0.23625 0.0
C53 C 0.64585 0.4885 0.15995 0.0
O54 O 0.63748 0.44891 0.12648 0.0
C55 C 0.73187 0.37214 0.30795 0.0
Zn56 Zn 0.2469 0.90767 0.14928 0.0
Zn57 Zn 0.18871 0.88843 0.20098 0.0
O58 O 0.16399 0.94989 0.17126 0.0
O59 O 0.217 0.97178 0.12483 0.0
O60 O 0.1482 0.87119 0.24643 0.0
O61 O 0.21629 0.81893 0.12718 0.0
O62 O 0.16019 0.80805 0.17013 0.0
C63 C 0.18087 0.97915 0.13966 0.0
C64 C 0.29742 0.91267 0.2444 0.0
O65 O 0.25327 0.90195 0.24833 0.0
O66 O 0.30881 0.92214 0.20413 0.0
C67 C 0.14723 0.90239 0.28048 0.0
O68 O 0.17336 0.95424 0.2854 0.0
C69 C 0.18043 0.78672 0.14312 0.0
Zn70 Zn 0.52232 0.82037 0.55134 0.0
Zn71 Zn 0.5801 0.83925 0.49661 0.0
O72 O 0.60677 0.9194 0.53082 0.0
O73 O 0.55169 0.90747 0.57527 0.0
O74 O 0.62411 0.85407 0.45268 0.0
O75 O 0.55366 0.75843 0.57593 0.0
O76 O 0.60301 0.77806 0.52571 0.0
C77 C 0.58712 0.94002 0.55921 0.0
C78 C 0.47137 0.81414 0.45547 0.0
O79 O 0.51516 0.82465 0.45014 0.0
O80 O 0.46104 0.80583 0.49626 0.0
C81 C 0.63107 0.89727 0.43429 0.0
O82 O 0.60234 0.92405 0.43814 0.0
C83 C 0.58847 0.7506 0.55884 0.0
Zn84 Zn 0.74391 0.40836 0.64672 0.0
Zn85 Zn 0.68653 0.38871 0.69883 0.0
O86 O 0.66074 0.44912 0.66972 0.0
O87 O 0.71211 0.47082 0.62166 0.0
O88 O 0.64671 0.3722 0.74437 0.0
O89 O 0.7147 0.31961 0.62564 0.0
O90 O 0.6588 0.30812 0.66892 0.0
C91 C 0.67626 0.47782 0.63742 0.0
C92 C 0.79473 0.41469 0.74213 0.0
O93 O 0.75066 0.40351 0.74623 0.0
O94 O 0.80592 0.42394 0.70176 0.0
C95 C 0.64856 0.40322 0.7798 0.0
O96 O 0.67748 0.45415 0.78605 0.0
C97 C 0.6794 0.28711 0.64208 0.0
Zn98 Zn 1.01817 0.32069 0.0451 0.0
Zn99 Zn 0.07113 0.33393 1.00354 0.0
O100 O 0.10335 0.41655 0.03309 0.0
O101 O 1.04502 0.40731 0.07196 0.0
O102 O 0.12067 0.33524 0.96623 0.0
O103 O 0.0629 0.26311 0.05017 0.0
O104 O 0.06553 0.26708 0.0493 0.0
C105 C 0.08265 0.43896 0.05863 0.0
C106 C 0.96719 0.31611 0.9537 0.0
O107 O 1.01145 0.32651 0.95091 0.0
O108 O 0.95484 0.30584 0.99332 0.0
C109 C 0.1261 0.37352 0.94118 0.0
O110 O 0.09539 0.3984 0.93877 0.0
C111 C 0.10575 0.26101 0.05879 0.0
Zn112 Zn 0.53107 0.97657 0.46723 0.0
Zn113 Zn 0.47364 0.06229 0.44257 0.0
O114 O 0.52176 0.11475 0.48839 0.0
O115 O 0.55876 0.05533 0.49552 0.0
O116 O 0.4445 0.09571 0.39544 0.0
O117 O 0.55201 0.98143 0.40128 0.0
O118 O 0.51398 0.03615 0.40855 0.0
C119 C 0.55743 0.10243 0.50314 0.0
C120 C 0.43275 0.95843 0.46006 0.0
O121 O 0.43218 1.00404 0.47499 0.0
O122 O 0.46234 0.94198 0.48292 0.0
C123 C 0.40427 0.0697 0.37058 0.0
O124 O 0.37603 0.02487 0.38333 0.0
C125 C 0.5402 0.01924 0.38639 0.0
Zn126 Zn 0.33399 0.36428 0.59223 0.0
Zn127 Zn 0.36999 0.29821 0.59267 0.0
O128 O 0.3891 0.32301 0.52408 0.0
O129 O 0.36315 0.38899 0.5232 0.0
O130 O 0.41013 0.25746 0.60028 0.0
O131 O 0.35165 0.3876 0.67074 0.0
O132 O 0.3815 0.32481 0.66886 0.0
C133 C 0.38274 0.3603 0.50154 0.0
C134 C 0.26746 0.24764 0.58572 0.0
O135 O 0.30493 0.23783 0.58149 0.0
O136 O 0.26963 0.29651 0.58896 0.0
C137 C 0.40063 0.22479 0.63041 0.0
O138 O 0.3643 0.21974 0.65286 0.0
C139 C 0.3688 0.35749 0.69392 0.0
Zn140 Zn 0.24208 0.26824 0.98774 0.0
Zn141 Zn 0.28171 0.18528 0.95698 0.0
O142 O 0.2543 0.16027 1.01333 0.0
O143 O 0.19779 0.19461 1.00003 0.0
O144 O 0.3209 0.14412 0.93539 0.0
O145 O 0.20076 0.23122 0.92369 0.0
O146 O 0.22505 0.16313 0.90774 0.0
C147 C 0.21097 0.15653 1.01179 0.0
C148 C 0.2993 0.27933 0.91957 0.0
O149 O 0.31845 0.26224 0.95322 0.0
O150 O 0.26109 0.28756 0.92349 0.0
C151 C 0.3642 0.16581 0.92885 0.0
O152 O 0.38847 0.21715 0.94386 0.0
C153 C 0.19651 0.18784 0.89855 0.0
Zn154 Zn 0.46637 0.93762 0.99089 0.0
Zn155 Zn 0.39573 1.00345 0.04566 0.0
O156 O 0.34489 0.96379 0.98621 0.0
O157 O 0.40702 0.94433 0.99453 0.0
O158 O 0.36888 0.04707 0.08739 0.0
O159 O 0.46729 0.91889 0.05708 0.0
O160 O 0.41335 0.9505 0.08345 0.0
C161 C 0.36683 0.93474 0.9721 0.0
C162 C 0.50319 0.05501 1.02052 0.0
O163 O 0.46457 0.05002 0.03714 0.0
O164 O 0.50845 0.01647 0.9957 0.0
C165 C 0.39308 0.09609 0.10411 0.0
O166 O 0.43665 0.11924 0.09469 0.0
C167 C 0.44275 0.9255 0.08831 0.0
Zn168 Zn 0.45146 0.38434 0.10562 0.0
Zn169 Zn 0.40564 0.44014 0.10486 0.0
O170 O 0.3939 0.40782 0.03034 0.0
O171 O 0.43146 0.35246 0.02893 0.0
O172 O 0.35474 0.46599 0.09369 0.0
O173 O 0.42815 0.3586 0.17608 0.0
O174 O 0.39299 0.4168 0.17507 0.0
C175 C 0.40847 0.37704 1.0055 0.0
C176 C 0.5047 0.50645 0.10749 0.0
O177 O 0.46469 0.50997 0.11232 0.0
O178 O 0.50818 0.45991 0.10515 0.0
C179 C 0.35718 0.49228 0.05889 0.0
O180 O 0.39484 0.50356 0.03745 0.0
C181 C 0.40561 0.3834 0.19806 0.0
Zn182 Zn 0.76617 0.24763 0.20017 0.0
Zn183 Zn 0.84319 0.20175 0.16523 0.0
O184 O 0.82572 0.24389 0.11678 0.0
O185 O 0.7637 0.26472 0.1339 0.0
O186 O 0.89176 0.16738 0.13984 0.0
O187 O 0.82691 0.30453 0.2269 0.0
O188 O 0.8744 0.25639 0.22394 0.0
C189 C 0.79449 0.26534 0.10756 0.0
C190 C 0.75359 0.14004 0.18968 0.0
O191 O 0.78516 0.13554 0.1668 0.0
O192 O 0.76744 0.17799 0.22258 0.0
C193 C 0.8906 0.15471 0.09604 0.0
O194 O 0.89373 0.16651 0.14092 0.0
C195 C 0.86691 0.29935 0.23705 0.0
Zn196 Zn 0.22944 0.74852 0.23158 0.0
Zn197 Zn 0.28804 0.67304 0.26058 0.0
O198 O 0.24909 0.68655 0.30759 0.0
O199 O 0.21068 0.74303 0.29708 0.0
O200 O 0.34092 0.65731 0.29374 0.0
O201 O 0.20718 0.66864 0.20774 0.0
O202 O 0.24317 0.61009 0.222 0.0
C203 C 0.22151 0.70946 0.32085 0.0
C204 C 0.32108 0.77387 0.23475 0.0
O205 O 0.30756 0.72564 0.21676 0.0
O206 O 0.29552 0.79979 0.22005 0.0
C207 C 0.35723 0.67293 0.3368 0.0
O208 O 0.34247 0.70622 0.36052 0.0
C209 C 0.20843 0.62135 0.20302 0.0
Zn210 Zn 0.95108 0.88541 0.60439 0.0
Zn211 Zn 0.90553 0.94139 0.60387 0.0
O212 O 0.89368 0.90937 0.52931 0.0
O213 O 0.93105 0.85388 0.52755 0.0
O214 O 0.85435 0.96678 0.59248 0.0
O215 O 0.92767 0.85966 0.675 0.0
O216 O 0.89272 0.91803 0.67411 0.0
C217 C 0.90818 0.87872 0.50429 0.0
C218 C 1.00457 1.00746 0.60591 0.0
O219 O 0.9647 1.01117 0.61114 0.0
O220 O 1.00792 0.96086 0.6036 0.0
C221 C 0.85652 0.9926 0.5574 0.0
O222 O 0.89451 1.00465 0.5364 0.0
C223 C 0.90517 0.88447 0.69704 0.0
Zn224 Zn 1.02027 0.97294 0.20427 0.0
Zn225 Zn 0.98221 0.05478 0.23497 0.0
O226 O 1.03545 0.07948 0.28571 0.0
O227 O 0.06672 0.01909 0.26432 0.0
O228 O 0.94207 0.09747 0.25304 0.0
O229 O 0.07191 0.04331 0.19826 0.0
O230 O 1.01747 0.0799 0.18166 0.0
C231 C 0.06763 0.05923 0.29195 0.0
C232 C 0.97085 0.96077 0.27629 0.0
O233 O 0.94887 0.97774 0.24444 0.0
O234 O 1.0082 0.95268 0.26893 0.0
C235 C 0.90309 0.07591 0.26908 0.0
O236 O 0.88341 0.023 0.266 0.0
C237 C 0.06085 0.08257 0.18606 0.0
Zn238 Zn 0.25641 0.75246 0.70327 0.0
Zn239 Zn 0.33162 0.69693 0.66558 0.0
O240 O 0.31008 0.73936 0.62008 0.0
O241 O 0.25589 0.77346 0.63805 0.0
O242 O 0.37877 0.66733 0.63224 0.0
O243 O 0.32113 0.80347 0.72958 0.0
O244 O 0.36708 0.75353 0.72199 0.0
C245 C 0.28391 0.76699 0.61092 0.0
C246 C 0.24788 0.64284 0.69303 0.0
O247 O 0.27758 0.62904 0.67375 0.0
O248 O 0.26542 0.68526 0.7214 0.0
C249 C 0.36283 0.62667 0.59995 0.0
O250 O 0.38125 0.66798 0.63239 0.0
C251 C 0.36098 0.79691 0.73667 0.0
Zn252 Zn 0.51893 0.46462 0.70563 0.0
Zn253 Zn 0.48131 0.54873 0.73161 0.0
O254 O 0.53592 0.57743 0.7811 0.0
O255 O 0.56579 0.51449 0.76384 0.0
O256 O 0.4414 0.59259 0.74729 0.0
O257 O 0.57022 0.53356 0.69553 0.0
O258 O 0.51414 0.56708 0.67572 0.0
C259 C 0.56774 0.55692 0.789 0.0
C260 C 0.47034 0.4592 0.7791 0.0
O261 O 0.44783 0.47396 0.74616 0.0
O262 O 0.50756 0.45051 0.77218 0.0
C263 C 0.40226 0.57129 0.76317 0.0
O264 O 0.38245 0.51841 0.76039 0.0
C265 C 0.55785 0.57088 0.68064 0.0
Zn266 Zn 0.72991 0.25021 0.72991 0.0
Zn267 Zn 0.78871 0.17508 0.761 0.0
O268 O 0.74859 0.18818 0.80745 0.0
O269 O 0.71007 0.24432 0.79498 0.0
O270 O 0.84162 0.15968 0.79476 0.0
O271 O 0.70856 0.17021 0.70732 0.0
O272 O 0.74451 0.11185 0.72242 0.0
C273 C 0.72048 0.21104 0.81951 0.0
C274 C 0.82113 0.2756 0.73473 0.0
O275 O 0.80862 0.2275 0.7167 0.0
O276 O 0.79611 0.30141 0.71847 0.0
C277 C 0.85686 0.17469 0.83805 0.0
O278 O 0.84038 0.20637 0.86165 0.0
C279 C 0.70983 0.12294 0.70308 0.0
Zn280 Zn 0.83307 0.86423 0.09093 0.0
Zn281 Zn 0.8687 0.79789 0.09115 0.0
O282 O 0.88777 0.82319 1.02275 0.0
O283 O 0.86268 0.88991 1.0223 0.0
O284 O 0.90928 0.75769 0.09926 0.0
O285 O 0.85045 0.88762 0.16938 0.0
O286 O 0.87951 0.82419 0.1674 0.0
C287 C 0.88185 0.86086 1.00046 0.0
C288 C 0.7665 0.747 0.08354 0.0
O289 O 0.80394 0.73718 0.07927 0.0
O290 O 0.7688 0.79594 0.08726 0.0
C291 C 0.89965 0.72523 0.12955 0.0
O292 O 0.86271 0.71964 0.15121 0.0
C293 C 0.86711 0.8571 0.1925 0.0
Zn294 Zn 1.03132 0.47591 0.96855 0.0
Zn295 Zn 0.97572 0.56197 0.93935 0.0
O296 O 1.02268 0.61604 0.98495 0.0
O297 O 0.05758 0.55534 0.99636 0.0
O298 O 0.94726 0.59369 0.88984 0.0
O299 O 0.05522 0.47827 0.90372 0.0
O300 O 1.01636 0.53231 0.90932 0.0
C301 C 0.05683 0.60285 1.00277 0.0
C302 C 0.93261 0.4588 0.95701 0.0
O303 O 0.93462 0.50522 0.97302 0.0
O304 O 0.96071 0.43948 0.97878 0.0
C305 C 0.90581 0.56981 0.86657 0.0
O306 O 0.87601 0.52744 0.88132 0.0
C307 C 1.04268 0.51511 0.88759 0.0
Zn308 Zn 1.00056 0.46323 0.4886 0.0
Zn309 Zn 0.91802 0.53161 0.54309 0.0
O310 O 0.86821 0.48178 0.48898 0.0
O311 O 0.93472 0.4696 0.48691 0.0
O312 O 0.88534 0.56348 0.58665 0.0
O313 O 0.99998 0.44147 0.55413 0.0
O314 O 0.95119 0.48357 0.57563 0.0
C315 C 0.89022 0.45369 0.47256 0.0
C316 C 0.9978 0.57539 0.50827 0.0
O317 O 0.9687 0.59517 0.52213 0.0
O318 O 0.97902 0.52844 0.48538 0.0
C319 C 0.90323 0.60437 0.61798 0.0
O320 O 0.94998 0.62856 0.62837 0.0
C321 C 0.97606 0.45369 0.58375 0.0
Zn322 Zn 0.7373 0.76849 0.48796 0.0
Zn323 Zn 0.77743 0.68614 0.46045 0.0
O324 O 0.74728 0.66363 0.51672 0.0
O325 O 0.69003 0.69605 0.49944 0.0
O326 O 0.81748 0.64401 0.44192 0.0
O327 O 0.6969 0.72967 0.42397 0.0
O328 O 0.72214 0.662 0.40986 0.0
C329 C 0.70356 0.65915 0.51357 0.0
C330 C 0.79508 0.77907 0.41945 0.0
O331 O 0.81462 0.76235 0.45311 0.0
O332 O 0.7569 0.78738 0.42363 0.0
C333 C 0.86026 0.66629 0.43389 0.0
O334 O 0.88319 0.71849 0.44596 0.0
C335 C 0.69352 0.68626 0.39946 0.0
Tb336 Tb 0.18985 0.15733 0.13093 0.0
Tb337 Tb 0.08568 0.07774 0.06991 0.0
C338 C 0.09647 0.12516 0.16838 0.0
C339 C 0.31461 0.18834 0.15739 0.0
C340 C 0.36945 0.12952 0.12605 0.0
C341 C 0.33983 0.1106 0.15968 0.0
C342 C 0.31293 0.13999 0.17554 0.0
C343 C 0.34662 0.20859 0.12593 0.0
C344 C 0.37386 0.17959 0.11058 0.0
C345 C 0.27597 0.21004 0.16154 0.0
O346 O 0.19518 0.0771 0.14031 0.0
O347 O 0.12143 0.01984 0.10021 0.0
O348 O 0.13189 0.1012 1.0179 0.0
O349 O 0.19157 0.10505 0.0721 0.0
O350 O 1.02129 0.01953 0.08149 0.0
O351 O 1.02846 0.04734 1.01363 0.0
O352 O 0.08216 0.15951 0.05889 0.0
O353 O 0.15662 0.21481 0.09903 0.0
O354 O 0.14157 0.13357 0.18154 0.0
O355 O 0.08433 0.1328 0.12655 0.0
C356 C 0.16416 0.02711 0.12639 0.0
O357 O 0.25483 0.21611 0.12149 0.0
O358 O 0.24493 0.18779 0.18894 0.0
C359 C 0.1776 0.11274 0.03058 0.0
C360 C 0.96106 0.04929 0.04861 0.0
C361 C 0.91257 0.11665 0.07863 0.0
C362 C 0.93068 0.12204 0.03618 0.0
C363 C 0.95529 0.08918 1.02156 0.0
C364 C 0.93831 0.04045 0.08843 0.0
C365 C 0.91514 0.07427 0.10372 0.0
C366 C 0.99866 0.02609 0.04244 0.0
C367 C 0.11468 0.20905 0.07282 0.0
H368 H 0.33631 0.07234 0.17254 0.0
H369 H 0.28851 0.1229 0.19961 0.0
H370 H 0.34804 0.24498 0.1106 0.0
H371 H 0.39611 0.1947 0.08427 0.0
H372 H 0.92809 0.15357 1.01558 0.0
H373 H 0.97204 0.09712 0.99056 0.0
H374 H 0.94138 1.00973 0.10979 0.0
H375 H 0.90004 0.06789 0.13577 0.0
Tb376 Tb 0.33994 0.84987 0.37845 0.0
Tb377 Tb 0.42938 0.87701 0.32301 0.0
C378 C 0.33092 0.90309 0.28456 0.0
C379 C 0.28065 0.82157 0.47791 0.0
C380 C 0.28594 0.7906 0.56712 0.0
C381 C 0.25914 0.82298 0.55513 0.0
C382 C 0.25636 0.83827 0.51028 0.0
C383 C 0.30961 0.79224 0.49097 0.0
C384 C 0.31247 0.77714 0.5352 0.0
C385 C 0.2778 0.83548 0.43074 0.0
O386 O 0.31337 0.80031 0.31169 0.0
O387 O 0.38385 0.79538 0.29791 0.0
O388 O 0.45472 0.83709 0.37782 0.0
O389 O 0.39398 0.82349 0.42181 0.0
O390 O 0.47025 0.85125 0.27972 0.0
O391 O 0.49016 0.93511 0.30675 0.0
O392 O 0.45213 0.9233 0.39147 0.0
O393 O 0.38274 0.93343 0.38805 0.0
O394 O 0.31078 0.8829 0.32031 0.0
O395 O 0.37556 0.90571 0.28084 0.0
C396 C 0.3385 0.78412 0.28468 0.0
O397 O 0.30767 0.88336 0.42612 0.0
O398 O 0.27858 0.79833 0.39937 0.0
C399 C 0.43671 0.82186 0.41579 0.0
C400 C 0.48997 0.91413 0.22849 0.0
C401 C 0.45667 0.91646 0.13569 0.0
C402 C 0.49298 0.89557 0.14678 0.0
C403 C 0.50919 0.89372 0.19342 0.0
C404 C 0.45568 0.93723 0.21705 0.0
C405 C 0.43846 0.93736 0.17142 0.0
C406 C 0.49585 0.90118 0.27559 0.0
C407 C 0.42563 0.94597 0.40961 0.0
H408 H 0.23878 0.83431 0.57949 0.0
H409 H 0.23454 0.86176 0.50057 0.0
H410 H 0.32867 0.77899 0.46646 0.0
H411 H 0.33378 0.75268 0.54341 0.0
H412 H 0.50863 0.88072 0.11972 0.0
H413 H 0.5354 0.87525 0.20202 0.0
H414 H 0.4414 0.9549 0.24343 0.0
H415 H 0.41168 0.9555 0.16462 0.0
Tb416 Tb 0.58457 0.10205 0.62635 0.0
Tb417 Tb 0.68369 0.12402 0.58126 0.0
C418 C 0.66909 0.08237 0.67638 0.0
C419 C 0.47635 0.1193 0.6434 0.0
C420 C 0.42807 0.19029 0.63705 0.0
C421 C 0.41804 0.15261 0.66938 0.0
C422 C 0.44232 0.11697 0.67253 0.0
C423 C 0.48742 0.15813 0.6123 0.0
C424 C 0.46349 0.1935 0.60915 0.0
C425 C 0.50356 0.08461 0.64726 0.0
O426 O 0.62256 0.19246 0.64308 0.0
O427 O 0.69149 0.20624 0.61047 0.0
O428 O 0.63728 0.13316 0.52442 0.0
O429 O 0.59265 0.15489 0.57244 0.0
O430 O 0.75808 0.15316 0.59987 0.0
O431 O 0.72349 0.12691 0.52711 0.0
O432 O 0.64494 0.03457 0.56071 0.0
O433 O 0.57727 0.02035 0.59546 0.0
O434 O 0.62998 0.09001 0.68297 0.0
O435 O 0.67446 0.06958 0.63421 0.0
C436 C 0.66375 0.22562 0.63192 0.0
O437 O 0.51055 0.06566 0.60702 0.0
O438 O 0.54266 0.10474 0.67797 0.0
C439 C 0.59844 0.14144 0.53067 0.0
C440 C 0.78321 0.0977 0.5533 0.0
C441 C 0.82329 0.01973 0.54818 0.0
C442 C 0.83118 0.05741 0.51583 0.0
C443 C 0.81127 0.09693 0.51871 0.0
C444 C 0.77017 0.05559 0.58121 0.0
C445 C 0.78979 0.01623 0.57834 0.0
C446 C 0.76247 0.13833 0.55713 0.0
C447 C 0.60392 1.00133 0.57183 0.0
H448 H 0.39126 0.15028 0.69169 0.0
H449 H 0.43468 0.08785 0.69748 0.0
H450 H 0.51445 0.16106 0.59026 0.0
H451 H 0.47231 0.22264 0.58428 0.0
H452 H 0.85544 0.05895 0.49088 0.0
H453 H 0.81888 0.12763 0.49516 0.0
H454 H 0.74627 0.05414 0.60643 0.0
H455 H 0.78181 0.98608 0.60241 0.0
Tb456 Tb 0.41947 0.32914 0.84922 0.0
Tb457 Tb 0.34992 0.39951 0.85043 0.0
C458 C 0.31901 0.28492 0.8759 0.0
C459 C 0.52448 0.31056 0.82685 0.0
C460 C 0.60841 0.38345 0.80398 0.0
C461 C 0.61101 0.35159 0.83972 0.0
C462 C 0.56898 0.3155 0.85151 0.0
C463 C 0.52235 0.34191 0.79049 0.0
C464 C 0.56409 0.37812 0.77922 0.0
C465 C 0.48172 0.28778 0.84779 0.0
O466 O 0.39382 0.32876 0.77182 0.0
O467 O 0.35358 0.38808 0.77321 0.0
O468 O 0.40899 0.45143 0.82264 0.0
O469 O 0.46266 0.41297 0.84684 0.0
O470 O 0.28421 0.40415 0.82484 0.0
O471 O 0.33506 0.46611 0.8776 0.0
O472 O 0.37689 0.40028 0.92762 0.0
O473 O 0.41965 0.34384 0.92616 0.0
O474 O 0.35862 0.27609 0.87526 0.0
O475 O 0.30773 0.315 0.84684 0.0
C476 C 0.37225 0.35809 0.74889 0.0
O477 O 0.48125 0.32127 0.88236 0.0
O478 O 0.4407 0.26822 0.81954 0.0
C479 C 0.44938 0.4449 0.82101 0.0
C480 C 0.2533 0.43761 0.88254 0.0
C481 C 0.1698 0.39563 0.92113 0.0
C482 C 0.17166 0.42932 0.88583 0.0
C483 C 0.2133 0.44991 0.86626 0.0
C484 C 0.25239 0.40662 0.91964 0.0
C485 C 0.21069 0.38541 0.93873 0.0
C486 C 0.29135 0.44624 0.85471 0.0
C487 C 0.40103 0.37338 0.95048 0.0
H488 H 0.6454 0.35307 0.85704 0.0
H489 H 0.57104 0.29268 0.88058 0.0
H490 H 0.48834 0.33974 0.77174 0.0
H491 H 0.56207 0.39973 0.74926 0.0
H492 H 0.14052 0.43818 0.87228 0.0
H493 H 0.21352 0.47306 0.83703 0.0
H494 H 0.28313 0.39653 0.93215 0.0
H495 H 0.21034 0.36059 0.96677 0.0
Tb496 Tb 0.12848 0.16084 0.63729 0.0
Tb497 Tb 0.14099 0.10232 0.55018 0.0
C498 C 1.04613 0.05548 0.59878 0.0
C499 C 0.14485 0.19516 0.76107 0.0
C500 C 0.16989 0.17765 0.85177 0.0
C501 C 0.13476 0.2003 0.8419 0.0
C502 C 0.12239 0.20927 0.79645 0.0
C503 C 0.17605 0.16714 0.77026 0.0
C504 C 0.18844 0.15834 0.81539 0.0
C505 C 0.13825 0.21205 0.71524 0.0
O506 O 0.13798 0.08456 0.66398 0.0
O507 O 0.1605 0.05154 0.60024 0.0
O508 O 0.21462 0.15303 0.57651 0.0
O509 O 0.18991 0.21528 0.60957 0.0
O510 O 0.10373 0.04056 0.49637 0.0
O511 O 0.17964 0.08557 0.49956 0.0
O512 O 0.1303 0.1776 0.52257 0.0
O513 O 0.10541 0.20913 0.58564 0.0
O514 O 0.055 0.10366 0.62034 0.0
O515 O 0.07624 0.04726 0.57299 0.0
C516 C 0.15054 0.04606 0.64312 0.0
O517 O 0.17363 0.2163 0.69218 0.0
O518 O 0.09633 0.1872 0.68969 0.0
C519 C 0.22278 0.20335 0.59108 0.0
C520 C 0.13068 0.06355 0.42779 0.0
C521 C 0.09775 0.07195 0.33699 0.0
C522 C 0.13175 0.04754 0.3458 0.0
C523 C 0.14796 0.0429 0.39142 0.0
C524 C 0.10067 0.0929 0.41921 0.0
C525 C 0.08437 0.09729 0.37395 0.0
C526 C 0.14053 0.05151 0.47443 0.0
C527 C 0.11631 0.21532 0.54278 0.0
H528 H 0.11999 0.21514 0.86976 0.0
H529 H 0.09754 0.22989 0.78943 0.0
H530 H 0.19335 0.15506 0.74318 0.0
H531 H 0.21607 0.14136 0.8221 0.0
H532 H 0.14269 0.02831 0.31751 0.0
H533 H 0.17163 0.02075 0.3981 0.0
H534 H 0.08706 0.10909 0.44727 0.0
H535 H 0.05789 0.11602 0.3682 0.0
Tb536 Tb 0.40557 0.93131 0.83708 0.0
Tb537 Tb 0.35831 0.81037 0.86031 0.0
C538 C 0.39722 0.83752 0.7698 0.0
C539 C 0.42233 0.07088 0.84686 0.0
C540 C 0.3847 0.13448 0.89981 0.0
C541 C 0.43316 0.15506 0.89358 0.0
C542 C 0.45201 0.12311 0.86756 0.0
C543 C 0.37337 0.05236 0.85034 0.0
C544 C 0.35485 0.0834 0.87682 0.0
C545 C 0.44276 0.03096 0.83192 0.0
O546 O 0.32464 0.91503 0.81429 0.0
O547 O 0.29199 0.83077 0.83705 0.0
O548 O 0.35924 0.8573 0.92379 0.0
O549 O 0.36503 0.93557 0.8927 0.0
O550 O 0.31258 0.73523 0.82509 0.0
O551 O 0.34704 0.74212 0.89632 0.0
O552 O 0.43422 0.82722 0.89334 0.0
O553 O 0.47136 0.90854 0.86703 0.0
O554 O 0.39563 0.88559 0.77049 0.0
O555 O 0.407 0.82264 0.80975 0.0
C556 C 0.28501 0.87304 0.8192 0.0
O557 O 0.45544 1.00761 0.86633 0.0
O558 O 0.41816 0.99562 0.79597 0.0
C559 C 0.35672 0.90551 0.92641 0.0
C560 C 0.34671 0.67206 0.84169 0.0
C561 C 0.3829 0.60566 0.79031 0.0
C562 C 0.33862 0.58326 0.80641 0.0
C563 C 0.32041 0.61643 0.83164 0.0
C564 C 0.39217 0.69369 0.82829 0.0
C565 C 0.4099 0.66103 0.80246 0.0
C566 C 0.32451 0.70948 0.85813 0.0
C567 C 0.4752 0.8662 0.88847 0.0
H568 H 0.45682 0.19484 0.91017 0.0
H569 H 0.49002 0.13799 0.86563 0.0
H570 H 0.34964 1.01247 0.83475 0.0
H571 H 0.31715 0.06665 0.87997 0.0
H572 H 0.31745 0.54044 0.79844 0.0
H573 H 0.28523 0.59909 0.8417 0.0
H574 H 0.41326 0.73641 0.83609 0.0
H575 H 0.44462 0.6794 0.79169 0.0
Tb576 Tb 0.59734 0.08864 0.13989 0.0
Tb577 Tb 0.6533 0.15527 0.07021 0.0
C578 C 0.70875 0.13307 0.1608 0.0
C579 C 0.55392 0.04739 0.24744 0.0
C580 C 0.55078 0.03916 0.34195 0.0
C581 C 0.59011 0.03553 0.3229 0.0
C582 C 0.5919 0.03997 0.27565 0.0
C583 C 0.51842 0.0587 0.26818 0.0
C584 C 0.517 0.05496 0.31535 0.0
C585 C 0.54805 0.03832 0.19643 0.0
O586 O 0.62041 0.17078 0.17925 0.0
O587 O 0.63517 0.2177 0.11731 0.0
O588 O 0.58703 0.10025 0.03067 0.0
O589 O 0.54936 0.10966 0.08943 0.0
O590 O 0.71131 0.18774 0.03541 0.0
O591 O 0.64763 0.20763 1.02107 0.0
O592 O 0.65861 0.07366 0.04673 0.0
O593 O 0.60273 0.0239 0.08841 0.0
O594 O 0.66885 0.10367 0.17375 0.0
O595 O 0.7104 0.15954 0.1244 0.0
C596 C 0.6263 0.21674 0.16153 0.0
O597 O 0.53758 0.07439 0.17422 0.0
O598 O 0.57945 0.02295 0.17857 0.0
C599 C 0.54723 0.09634 0.04509 0.0
C600 C 0.68818 0.20033 0.95775 0.0
C601 C 0.70344 0.20095 0.86457 0.0
C602 C 0.67166 0.22386 0.88007 0.0
C603 C 0.66431 0.22378 0.92656 0.0
C604 C 0.7162 0.17286 0.94101 0.0
C605 C 0.72357 0.17297 0.8948 0.0
C606 C 0.68814 0.2101 1.00807 0.0
C607 C 0.6325 0.02511 0.05752 0.0
H608 H 0.61765 0.02608 0.34373 0.0
H609 H 0.62114 0.03389 0.26079 0.0
H610 H 0.48949 0.06581 0.24722 0.0
H611 H 0.4866 0.05871 0.32956 0.0
H612 H 0.65502 0.24482 0.85726 0.0
H613 H 0.64215 0.24476 0.93873 0.0
H614 H 0.73478 0.15397 0.96408 0.0
H615 H 0.74764 0.15403 0.88378 0.0
Tb616 Tb 0.37707 0.31223 0.34116 0.0
Tb617 Tb 0.41834 0.43047 0.35727 0.0
C618 C 0.3972 0.377 0.25072 0.0
C619 C 0.34857 0.16867 0.30068 0.0
C620 C 0.38597 0.09525 0.33385 0.0
C621 C 0.33634 0.0788 0.31986 0.0
C622 C 0.3175 0.11601 0.30329 0.0
C623 C 0.39768 0.17922 0.30171 0.0
C624 C 0.41675 0.14285 0.31971 0.0
C625 C 0.33515 0.21197 0.32059 0.0
O626 O 0.4547 0.32059 0.33224 0.0
O627 O 0.48552 0.41179 0.3385 0.0
O628 O 0.40458 0.41214 0.43097 0.0
O629 O 0.38937 0.32238 0.42034 0.0
O630 O 0.43892 0.50356 0.32892 0.0
O631 O 0.45704 0.50289 0.40254 0.0
O632 O 0.34148 0.42056 0.37217 0.0
O633 O 0.30932 0.3306 0.35409 0.0
O634 O 0.39667 0.33343 0.27017 0.0
O635 O 0.39298 0.41602 0.2791 0.0
C636 C 0.49209 0.36491 0.32698 0.0
O637 O 0.36079 0.23529 0.36106 0.0
O638 O 0.32895 0.24669 0.29347 0.0
C639 C 0.39342 0.36555 0.44911 0.0
C640 C 0.42709 0.56877 0.37679 0.0
C641 C 0.37896 0.63948 0.36096 0.0
C642 C 0.42696 0.66012 0.38261 0.0
C643 C 0.45122 0.62447 0.39056 0.0
C644 C 0.37771 0.54874 0.36025 0.0
C645 C 0.35378 0.58369 0.35275 0.0
C646 C 0.45312 0.53242 0.36959 0.0
C647 C 0.30306 0.37534 0.37194 0.0
H648 H 0.31195 0.04084 0.32818 0.0
H649 H 0.27926 0.1067 0.30087 0.0
H650 H 0.42199 0.21924 0.2978 0.0
H651 H 0.45536 0.15509 0.32803 0.0
H652 H 0.44659 0.7034 0.38918 0.0
H653 H 0.48933 0.64058 0.40346 0.0
H654 H 0.35859 0.50666 0.34743 0.0
H655 H 0.3167 0.56719 0.3358 0.0
Tb656 Tb 0.62866 0.66015 0.13726 0.0
Tb657 Tb 0.6389 0.60154 0.04924 0.0
C658 C 0.54606 0.55445 0.10007 0.0
C659 C 0.64563 0.69451 0.26124 0.0
C660 C 0.66832 0.67591 0.35211 0.0
C661 C 0.63223 0.69688 0.34116 0.0
C662 C 0.621 0.70636 0.29564 0.0
C663 C 0.6781 0.66827 0.27139 0.0
C664 C 0.68931 0.65892 0.31661 0.0
C665 C 0.63931 0.71137 0.21536 0.0
O666 O 0.63921 0.5843 0.16391 0.0
O667 O 0.65864 0.55008 0.09871 0.0
O668 O 0.71303 0.65258 0.07283 0.0
O669 O 0.68987 0.71448 0.10916 0.0
O670 O 0.59819 0.54336 0.99411 0.0
O671 O 0.6754 0.58056 0.99846 0.0
O672 O 0.62881 0.67752 1.02255 0.0
O673 O 0.60531 0.70919 0.08645 0.0
O674 O 0.55505 0.60283 0.12128 0.0
O675 O 0.57584 0.54609 0.07401 0.0
C676 C 0.65053 0.54524 0.14227 0.0
O677 O 0.67448 0.71497 0.19214 0.0
O678 O 0.59722 0.68711 0.18994 0.0
C679 C 0.72182 0.70267 0.08884 0.0
C680 C 0.62783 0.56371 0.92596 0.0
C681 C 0.59792 0.57175 0.83416 0.0
C682 C 0.63138 0.54697 0.84458 0.0
C683 C 0.64598 0.54244 0.89066 0.0
C684 C 0.59901 0.59413 0.91588 0.0
C685 C 0.58417 0.59829 0.87008 0.0
C686 C 0.63505 0.55039 0.97266 0.0
C687 C 0.61552 0.71548 0.04338 0.0
H688 H 0.6157 0.71005 0.36837 0.0
H689 H 0.59518 0.72556 0.28784 0.0
H690 H 0.69707 0.65783 0.2451 0.0
H691 H 0.71781 0.64343 0.32425 0.0
H692 H 0.64262 0.52678 0.81713 0.0
H693 H 0.66878 0.51952 0.89847 0.0
H694 H 0.58491 0.6111 0.94309 0.0
H695 H 0.55811 0.61737 0.86306 0.0
Tb696 Tb 0.90688 0.43361 0.33982 0.0
Tb697 Tb 0.86122 0.31504 0.36636 0.0
C698 C 0.89936 0.33903 0.27339 0.0
C699 C 0.92025 0.57214 0.35312 0.0
C700 C 0.88138 0.63472 0.4058 0.0
C701 C 0.92904 0.65709 0.39724 0.0
C702 C 0.94852 0.62571 0.37136 0.0
C703 C 0.872 0.55136 0.35925 0.0
C704 C 0.85288 0.58195 0.38557 0.0
C705 C 0.94212 0.53392 0.33737 0.0
O706 O 0.82619 0.41558 0.31412 0.0
O707 O 0.79457 0.33592 0.34463 0.0
O708 O 0.87501 0.36678 0.4317 0.0
O709 O 0.86303 0.4322 0.39335 0.0
O710 O 0.81391 0.23943 0.33322 0.0
O711 O 0.84987 0.24784 0.40394 0.0
O712 O 0.93756 0.32942 0.39418 0.0
O713 O 0.97348 0.41145 0.3686 0.0
O714 O 0.89783 0.38721 0.27406 0.0
O715 O 0.90677 0.32169 0.31291 0.0
C716 C 0.78688 0.37546 0.32246 0.0
O717 O 0.95497 0.50985 0.37118 0.0
O718 O 0.91865 0.49943 0.30051 0.0
C719 C 0.86945 0.41334 0.43226 0.0
C720 C 0.84842 0.17643 0.34955 0.0
C721 C 0.88386 0.11012 0.29668 0.0
C722 C 0.83904 0.08806 0.31181 0.0
C723 C 0.82127 0.12112 0.33787 0.0
C724 C 0.89416 0.1976 0.33661 0.0
C725 C 0.91152 0.16508 0.31014 0.0
C726 C 0.82666 0.21438 0.36636 0.0
C727 C 0.97797 0.36863 0.38889 0.0
H728 H 0.95164 0.69811 0.4117 0.0
H729 H 0.986 0.64237 0.36742 0.0
H730 H 0.84943 0.51032 0.34572 0.0
H731 H 0.81582 0.56371 0.39059 0.0
H732 H 0.81707 0.04572 0.30222 0.0
H733 H 0.78573 0.10404 0.34717 0.0
H734 H 0.9159 0.23994 0.34524 0.0
H735 H 0.94654 0.18327 0.29992 0.0
Tb736 Tb 0.09519 0.58237 0.63746 0.0
Tb737 Tb 0.15135 0.65567 0.57081 0.0
C738 C 0.20364 0.63475 0.66288 0.0
C739 C 0.05731 0.54453 0.74894 0.0
C740 C 0.05282 0.53389 0.84282 0.0
C741 C 0.09231 0.53045 0.82408 0.0
C742 C 0.09491 0.53646 0.77724 0.0
C743 C 1.02104 0.5545 0.76923 0.0
C744 C 1.01921 0.55004 0.81622 0.0
C745 C 0.05158 0.53442 0.69819 0.0
O746 O 0.10473 0.66614 0.66998 0.0
O747 O 0.14072 0.7216 0.6186 0.0
O748 O 0.07862 0.63252 0.53595 0.0
O749 O 1.0434 0.5612 0.57456 0.0
O750 O 0.21103 0.67661 0.53641 0.0
O751 O 0.15846 0.71464 0.52534 0.0
O752 O 0.15171 0.57204 0.54313 0.0
O753 O 0.10597 0.51899 0.591 0.0
O754 O 0.16691 0.5918 0.66449 0.0
O755 O 0.20191 0.67006 0.63444 0.0
C756 C 0.12077 0.71582 0.65745 0.0
O757 O 1.0368 0.5666 0.6741 0.0
O758 O 0.08509 0.52236 0.68128 0.0
C759 C 1.04277 0.58905 0.53965 0.0
C760 C 0.19326 0.69756 0.46022 0.0
C761 C 0.20581 0.69899 0.36635 0.0
C762 C 0.17403 0.72106 0.38308 0.0
C763 C 0.1679 0.72046 0.42989 0.0
C764 C 0.22159 0.67132 0.44234 0.0
C765 C 0.22741 0.67153 0.39576 0.0
C766 C 0.1949 0.70668 0.51086 0.0
C767 C 0.13167 0.52292 0.55653 0.0
H768 H 0.11948 0.52012 0.84476 0.0
H769 H 0.12436 0.53061 0.76261 0.0
H770 H 0.992 0.56127 0.7481 0.0
H771 H 0.98854 0.55329 0.83017 0.0
H772 H 0.15634 0.74163 0.36092 0.0
H773 H 0.14555 0.74068 0.44286 0.0
H774 H 0.24154 0.65326 0.4648 0.0
H775 H 0.25158 0.65329 0.38381 0.0
Tb776 Tb 0.91774 0.82974 0.34792 0.0
Tb777 Tb 0.8505 0.90248 0.3491 0.0
C778 C 0.81678 0.78895 0.37705 0.0
C779 C 1.02145 0.80844 0.32544 0.0
C780 C 0.1062 0.88101 0.30342 0.0
C781 C 0.10811 0.84813 0.33852 0.0
C782 C 0.06571 0.81226 0.34991 0.0
C783 C 1.02002 0.84057 0.28948 0.0
C784 C 0.06218 0.87651 0.27854 0.0
C785 C 0.97855 0.78631 0.3465 0.0
O786 O 0.89186 0.82829 0.27047 0.0
O787 O 0.8523 0.88816 0.27174 0.0
O788 O 0.90938 0.95113 0.31952 0.0
O789 O 0.96289 0.91201 0.34262 0.0
O790 O 0.7861 0.91083 0.32452 0.0
O791 O 0.84095 0.97331 0.37409 0.0
O792 O 0.87693 0.90272 0.42645 0.0
O793 O 0.91922 0.84579 0.4249 0.0
O794 O 0.85638 0.77993 0.37582 0.0
O795 O 0.80489 0.81982 0.34918 0.0
C796 C 0.8706 0.8578 0.24746 0.0
O797 O 0.97867 0.82005 0.38116 0.0
O798 O 0.93737 0.76733 0.31845 0.0
C799 C 0.94954 0.94445 0.31755 0.0
C800 C 0.76037 0.95501 0.37974 0.0
C801 C 0.67633 0.92179 0.41782 0.0
C802 C 0.67976 0.95263 0.38051 0.0
C803 C 0.72189 0.96902 0.36117 0.0
C804 C 0.75825 0.92838 0.41963 0.0
C805 C 0.71636 0.91187 0.43865 0.0
C806 C 0.79701 0.956 0.35181 0.0
C807 C 0.90075 0.8754 0.44927 0.0
H808 H 0.14226 0.84899 0.35592 0.0
H809 H 0.06733 0.7889 0.37867 0.0
H810 H 0.98625 0.83934 0.2709 0.0
H811 H 0.06068 0.89885 0.249 0.0
H812 H 0.64902 0.96051 0.36444 0.0
H813 H 0.7232 0.98893 0.32984 0.0
H814 H 0.78759 0.91674 0.43389 0.0
H815 H 0.71461 0.88919 0.46835 0.0
Tb816 Tb 0.83703 0.35248 0.87639 0.0
Tb817 Tb 0.92617 0.37821 0.81885 0.0
C818 C 0.82834 0.40563 0.78224 0.0
C819 C 0.78008 0.32079 0.97582 0.0
C820 C 0.79239 0.28843 0.0638 0.0
C821 C 0.76584 0.32201 0.05566 0.0
C822 C 0.75982 0.33834 1.01154 0.0
C823 C 0.80756 0.28864 0.98459 0.0
C824 C 0.8141 0.27306 0.02826 0.0
C825 C 0.77617 0.33825 0.92999 0.0
O826 O 0.81002 0.30282 0.80998 0.0
O827 O 0.88026 0.2954 0.80098 0.0
O828 O 0.95407 0.34412 0.87705 0.0
O829 O 0.89009 0.32336 0.91768 0.0
O830 O 0.96234 0.34781 0.77324 0.0
O831 O 0.98634 0.43294 0.79837 0.0
O832 O 0.95113 0.42613 0.88657 0.0
O833 O 0.88135 0.43544 0.8856 0.0
O834 O 0.80855 0.38643 0.81852 0.0
O835 O 0.87256 0.4075 0.77782 0.0
C836 C 0.83562 0.28491 0.78507 0.0
O837 O 0.80741 0.38589 0.92683 0.0
O838 O 0.77419 0.3024 0.89604 0.0
C839 C 0.93425 0.32535 0.91339 0.0
C840 C 0.98668 0.4092 0.72048 0.0
C841 C 0.97771 0.43434 0.62935 0.0
C842 C 1.01002 0.40912 0.64397 0.0
C843 C 1.01453 0.39663 0.6897 0.0
C844 C 0.95333 0.43237 0.70518 0.0
C845 C 0.94857 0.44447 0.66003 0.0
C846 C 0.99 0.39661 0.76808 0.0
C847 C 0.92452 0.44746 0.90635 0.0
H848 H 0.74888 0.33441 0.08285 0.0
H849 H 0.73907 0.3638 1.00516 0.0
H850 H 0.82303 0.27409 0.95733 0.0
H851 H 0.83439 0.2469 0.03341 0.0
H852 H 1.03285 0.40086 0.62079 0.0
H853 H 1.04002 0.37814 0.70117 0.0
H854 H 0.93203 0.4431 0.72853 0.0
H855 H 0.92324 0.46367 0.64992 0.0
Tb856 Tb 0.87632 0.81275 0.8401 0.0
Tb857 Tb 0.91697 0.93104 0.8562 0.0
C858 C 0.89656 0.87788 0.74968 0.0
C859 C 0.8505 0.67032 0.79855 0.0
C860 C 0.88821 0.59632 0.83005 0.0
C861 C 0.83873 0.57951 0.81474 0.0
C862 C 0.81973 0.61699 0.79906 0.0
C863 C 0.89989 0.68183 0.80068 0.0
C864 C 0.91907 0.64511 0.81778 0.0
C865 C 0.83576 0.71245 0.81885 0.0
O866 O 0.95408 0.82152 0.83196 0.0
O867 O 0.98428 0.9126 0.83707 0.0
O868 O 0.90358 0.91273 0.92995 0.0
O869 O 0.88829 0.8229 0.91926 0.0
O870 O 0.93573 1.00408 0.82785 0.0
O871 O 0.95664 1.00357 0.90107 0.0
O872 O 0.84005 0.92042 0.87188 0.0
O873 O 0.80828 0.83049 0.85333 0.0
O874 O 0.89621 0.83441 0.76922 0.0
O875 O 0.89193 0.91668 0.778 0.0
C876 C 0.99118 0.86576 0.82617 0.0
O877 O 0.86078 0.73566 0.85959 0.0
O878 O 0.8288 0.74714 0.7921 0.0
C879 C 0.89247 0.86611 0.94805 0.0
C880 C 0.92626 0.0699 0.87702 0.0
C881 C 0.8787 0.1414 0.86229 0.0
C882 C 0.92726 0.16171 0.88211 0.0
C883 C 0.95122 0.12568 0.88949 0.0
C884 C 0.87652 0.05034 0.86245 0.0
C885 C 0.8529 0.08571 0.85537 0.0
C886 C 0.95152 0.03304 0.86841 0.0
C887 C 0.80175 0.87496 0.87153 0.0
H888 H 0.81432 0.54065 0.82136 0.0
H889 H 0.78133 0.60694 0.79564 0.0
H890 H 0.92405 0.72235 0.79813 0.0
H891 H 0.95764 0.65785 0.827 0.0
H892 H 0.9474 0.20491 0.88756 0.0
H893 H 0.98962 0.14146 0.90081 0.0
H894 H 0.85668 1.00814 0.85072 0.0
H895 H 0.81544 0.06949 0.83961 0.0
Tb896 Tb 0.68403 0.65743 0.63211 0.0
Tb897 Tb 0.57921 0.57179 0.56549 0.0
C898 C 0.5936 0.61674 0.66669 0.0
C899 C 0.80724 0.68239 0.65445 0.0
C900 C 0.87072 0.62961 0.63521 0.0
C901 C 0.88696 0.67765 0.6669 0.0
C902 C 0.85513 0.70386 0.67672 0.0
C903 C 0.79174 0.63392 0.62444 0.0
C904 C 0.82235 0.60759 0.6154 0.0
C905 C 0.77172 0.70819 0.65994 0.0
O906 O 0.68525 0.57485 0.64276 0.0
O907 O 0.61719 0.51528 0.59347 0.0
O908 O 0.62408 0.59594 0.51235 0.0
O909 O 0.67899 0.60363 0.57149 0.0
O910 O 0.51373 0.51762 0.57964 0.0
O911 O 0.5195 0.54415 0.51152 0.0
O912 O 0.58052 0.65441 0.55208 0.0
O913 O 0.64638 0.71373 0.60399 0.0
O914 O 0.63842 0.63198 0.68463 0.0
O915 O 0.58612 0.62732 0.62499 0.0
C916 C 0.65779 0.52437 0.62409 0.0
O917 O 0.74947 0.7139 0.6203 0.0
O918 O 0.7414 0.68714 0.68823 0.0
C919 C 0.66932 0.61339 0.52965 0.0
C920 C 0.45634 0.55212 0.54933 0.0
C921 C 0.39489 0.60317 0.57924 0.0
C922 C 0.37614 0.55446 0.54845 0.0
C923 C 0.40679 0.529 0.53349 0.0
C924 C 0.47436 0.60233 0.57729 0.0
C925 C 0.44458 0.62754 0.59203 0.0
C926 C 0.49038 0.52456 0.54123 0.0
C927 C 0.60701 0.70461 0.57192 0.0
H928 H 0.92417 0.69555 0.68302 0.0
H929 H 0.86805 0.74103 0.7005 0.0
H930 H 0.75596 0.61671 0.6062 0.0
H931 H 0.80807 0.57092 0.59088 0.0
H932 H 0.33783 0.53527 0.53727 0.0
H933 H 0.39178 0.49104 0.51081 0.0
H934 H 0.51161 0.62169 0.58991 0.0
H935 H 0.46078 0.66541 0.61491 0.0
Tb936 Tb 0.08354 0.60221 0.12659 0.0
Tb937 Tb 0.18219 0.62252 0.08125 0.0
C938 C 0.16754 0.58091 0.17624 0.0
C939 C 0.97649 0.62127 0.14504 0.0
C940 C 0.92771 0.69159 0.13736 0.0
C941 C 0.91735 0.65396 0.16971 0.0
C942 C 0.94187 0.61861 0.17352 0.0
C943 C 0.98817 0.66037 0.11424 0.0
C944 C 0.96398 0.69542 0.11042 0.0
C945 C 1.00316 0.58605 0.14868 0.0
O946 O 0.12231 0.69247 0.14339 0.0
O947 O 0.19106 0.70505 0.11086 0.0
O948 O 0.13644 0.63332 0.02469 0.0
O949 O 0.09148 0.65494 0.07254 0.0
O950 O 0.25655 0.65202 0.09984 0.0
O951 O 0.22195 0.62406 0.02725 0.0
O952 O 0.14257 0.53297 0.06104 0.0
O953 O 0.07443 0.52036 0.09463 0.0
O954 O 0.12857 0.58887 0.18286 0.0
O955 O 0.17275 0.56795 0.13405 0.0
C956 C 0.16375 0.72509 0.13235 0.0
O957 O 1.00938 0.56661 0.10828 0.0
O958 O 1.04263 0.60592 0.1789 0.0
C959 C 0.09762 0.64177 0.03077 0.0
C960 C 0.28286 0.59694 0.05428 0.0
C961 C 0.3245 0.52023 0.05023 0.0
C962 C 0.33252 0.5581 1.01804 0.0
C963 C 0.31179 0.59693 1.02034 0.0
C964 C 0.27031 0.5551 0.08248 0.0
C965 C 0.29078 0.51646 0.08021 0.0
C966 C 0.26111 0.63671 0.05731 0.0
C967 C 0.10084 0.50047 0.07147 0.0
H968 H 0.88996 0.65124 0.19137 0.0
H969 H 0.93377 0.58927 0.19825 0.0
H970 H 1.01564 0.66352 0.09272 0.0
H971 H 0.97312 0.72461 0.08563 0.0
H972 H 0.35716 0.56007 0.99341 0.0
H973 H 0.31928 0.62758 0.99675 0.0
H974 H 0.24595 0.55323 0.10733 0.0
H975 H 0.28287 0.48633 0.10431 0.0
loop_
_geom_bond_atom_site_label_1
_geom_bond_atom_site_label_2
_geom_bond_distance
_geom_bond_site_symmetry_2
_ccdc_geom_bond_type
Zn0 O3 2.031 . S
Zn0 O5 2.049 . S
Zn0 O10 2.067 1_455 S
Zn1 O2 1.962 . S
Zn1 O4 1.986 . S
Zn1 O6 1.996 . S
Zn1 O9 1.943 . S
O2 Zn1 1.962 . S
O2 C7 1.254 . S
O3 Zn0 2.031 . S
O3 C7 1.269 . S
O4 Zn1 1.986 . S
O4 C11 1.262 . S
O5 Zn0 2.049 . S
O5 C13 1.260 . S
O6 Zn1 1.996 . S
O6 C13 1.257 . S
C7 O2 1.254 . S
C7 O3 1.269 . S
C8 O9 1.249 . S
C8 O10 1.270 1_455 S
O9 Zn1 1.943 . S
O9 C8 1.249 . S
O10 Zn0 2.067 1_655 S
O10 C8 1.270 1_655 S
C11 O4 1.262 . S
C11 O12 1.232 . S
O12 C11 1.232 . S
C13 O5 1.260 . S
C13 O6 1.257 . S
Zn14 O17 2.031 . S
Zn14 O19 2.049 . S
Zn14 O24 2.067 . S
Zn15 O16 1.962 . S
Zn15 O18 1.986 . S
Zn15 O20 1.996 . S
Zn15 O23 1.943 . S
O16 Zn15 1.962 . S
O16 C21 1.254 . S
O17 Zn14 2.031 . S
O17 C21 1.269 . S
O18 Zn15 1.986 . S
O18 C25 1.262 . S
O19 Zn14 2.049 . S
O19 C27 1.260 . S
O20 Zn15 1.996 . S
O20 C27 1.257 . S
C21 O16 1.254 . S
C21 O17 1.269 . S
C22 O23 1.249 . S
C22 O24 1.270 . S
O23 Zn15 1.943 . S
O23 C22 1.249 . S
O24 Zn14 2.067 . S
O24 C22 1.270 . S
C25 O18 1.262 . S
C25 O26 1.232 . S
O26 C25 1.232 . S
C27 O19 1.260 . S
C27 O20 1.257 . S
Zn28 O31 2.031 . S
Zn28 O33 2.049 . S
Zn28 O38 2.067 . S
Zn29 O30 1.962 . S
Zn29 O32 1.986 . S
Zn29 O34 1.996 . S
Zn29 O37 1.943 . S
O30 Zn29 1.962 . S
O30 C35 1.254 . S
O31 Zn28 2.031 . S
O31 C35 1.269 . S
O32 Zn29 1.986 . S
O32 C39 1.262 . S
O33 Zn28 2.049 . S
O33 C41 1.260 . S
O34 Zn29 1.996 . S
O34 C41 1.257 . S
C35 O30 1.254 . S
C35 O31 1.269 . S
C36 O37 1.249 . S
C36 O38 1.270 . S
O37 Zn29 1.943 . S
O37 C36 1.249 . S
O38 Zn28 2.067 . S
O38 C36 1.270 . S
C39 O32 1.262 . S
C39 O40 1.232 . S
O40 C39 1.232 . S
C41 O33 1.260 . S
C41 O34 1.257 . S
Zn42 O45 2.031 . S
Zn42 O47 2.049 . S
Zn42 O52 2.067 . S
Zn43 O44 1.962 . S
Zn43 O46 1.986 . S
Zn43 O48 1.996 . S
Zn43 O51 1.943 . S
O44 Zn43 1.962 . S
O44 C49 1.254 . S
O45 Zn42 2.031 . S
O45 C49 1.269 . S
O46 Zn43 1.986 . S
O46 C53 1.262 . S
O47 Zn42 2.049 . S
O47 C55 1.260 . S
O48 Zn43 1.996 . S
O48 C55 1.257 . S
C49 O44 1.254 . S
C49 O45 1.269 . S
C50 O51 1.249 . S
C50 O52 1.270 . S
O51 Zn43 1.943 . S
O51 C50 1.249 . S
O52 Zn42 2.067 . S
O52 C50 1.270 . S
C53 O46 1.262 . S
C53 O54 1.232 . S
O54 C53 1.232 . S
C55 O47 1.260 . S
C55 O48 1.257 . S
Zn56 O59 2.031 . S
Zn56 O61 2.049 . S
Zn56 O66 2.067 . S
Zn57 O58 1.962 . S
Zn57 O60 1.986 . S
Zn57 O62 1.996 . S
Zn57 O65 1.943 . S
O58 Zn57 1.962 . S
O58 C63 1.254 . S
O59 Zn56 2.031 . S
O59 C63 1.269 . S
O60 Zn57 1.986 . S
O60 C67 1.262 . S
O61 Zn56 2.049 . S
O61 C69 1.260 . S
O62 Zn57 1.996 . S
O62 C69 1.257 . S
C63 O58 1.254 . S
C63 O59 1.269 . S
C64 O65 1.249 . S
C64 O66 1.270 . S
O65 Zn57 1.943 . S
O65 C64 1.249 . S
O66 Zn56 2.067 . S
O66 C64 1.270 . S
C67 O60 1.262 . S
C67 O68 1.232 . S
O68 C67 1.232 . S
C69 O61 1.260 . S
C69 O62 1.257 . S
Zn70 O73 2.031 . S
Zn70 O75 2.049 . S
Zn70 O80 2.067 . S
Zn71 O72 1.962 . S
Zn71 O74 1.986 . S
Zn71 O76 1.996 . S
Zn71 O79 1.943 . S
O72 Zn71 1.962 . S
O72 C77 1.254 . S
O73 Zn70 2.031 . S
O73 C77 1.269 . S
O74 Zn71 1.986 . S
O74 C81 1.262 . S
O75 Zn70 2.049 . S
O75 C83 1.260 . S
O76 Zn71 1.996 . S
O76 C83 1.257 . S
C77 O72 1.254 . S
C77 O73 1.269 . S
C78 O79 1.249 . S
C78 O80 1.270 . S
O79 Zn71 1.943 . S
O79 C78 1.249 . S
O80 Zn70 2.067 . S
O80 C78 1.270 . S
C81 O74 1.262 . S
C81 O82 1.232 . S
O82 C81 1.232 . S
C83 O75 1.260 . S
C83 O76 1.257 . S
Zn84 O87 2.031 . S
Zn84 O89 2.049 . S
Zn84 O94 2.067 . S
Zn85 O86 1.962 . S
Zn85 O88 1.986 . S
Zn85 O90 1.996 . S
Zn85 O93 1.943 . S
O86 Zn85 1.962 . S
O86 C91 1.254 . S
O87 Zn84 2.031 . S
O87 C91 1.269 . S
O88 Zn85 1.986 . S
O88 C95 1.262 . S
O89 Zn84 2.049 . S
O89 C97 1.260 . S
O90 Zn85 1.996 . S
O90 C97 1.257 . S
C91 O86 1.254 . S
C91 O87 1.269 . S
C92 O93 1.249 . S
C92 O94 1.270 . S
O93 Zn85 1.943 . S
O93 C92 1.249 . S
O94 Zn84 2.067 . S
O94 C92 1.270 . S
C95 O88 1.262 . S
C95 O96 1.232 . S
O96 C95 1.232 . S
C97 O89 1.260 . S
C97 O90 1.257 . S
Zn98 O101 2.031 . S
Zn98 O103 2.049 . S
Zn98 O108 2.067 1_554 S
Zn99 O100 1.962 1_556 S
Zn99 O102 1.986 . S
Zn99 O104 1.996 1_456 S
Zn99 O107 1.943 1_455 S
O100 Zn99 1.962 1_554 S
O100 C105 1.254 . S
O101 Zn98 2.031 . S
O101 C105 1.269 1_655 S
O102 Zn99 1.986 . S
O102 C109 1.262 . S
O103 Zn98 2.049 . S
O103 C111 1.260 . S
O104 Zn99 1.996 1_654 S
O104 C111 1.257 . S
C105 O100 1.254 . S
C105 O101 1.269 1_455 S
C106 O107 1.249 . S
C106 O108 1.270 . S
O107 Zn99 1.943 1_655 S
O107 C106 1.249 . S
O108 Zn98 2.067 1_556 S
O108 C106 1.270 . S
C109 O102 1.262 . S
C109 O110 1.232 . S
O110 C109 1.232 . S
C111 O103 1.260 . S
C111 O104 1.257 . S
Zn112 O115 2.031 1_565 S
Zn112 O117 2.051 . S
Zn112 O122 2.067 . S
Zn113 O114 1.962 . S
Zn113 O116 1.986 . S
Zn113 O118 1.996 . S
Zn113 O121 1.943 1_545 S
O114 Zn113 1.962 . S
O114 C119 1.254 . S
O115 Zn112 2.031 1_545 S
O115 C119 1.269 . S
O116 Zn113 1.986 . S
O116 C123 1.262 . S
O117 Zn112 2.051 . S
O117 C125 1.252 1_565 S
O118 Zn113 1.996 . S
O118 C125 1.257 . S
C119 O114 1.254 . S
C119 O115 1.269 . S
C120 O121 1.249 . S
C120 O122 1.270 . S
O121 Zn113 1.943 1_565 S
O121 C120 1.249 . S
O122 Zn112 2.067 . S
O122 C120 1.270 . S
C123 O116 1.262 . S
C123 O124 1.232 . S
O124 C123 1.232 . S
C125 O117 1.252 1_545 S
C125 O118 1.257 . S
Zn126 O129 2.031 . S
Zn126 O131 2.049 . S
Zn126 O136 2.067 . S
Zn127 O128 1.962 . S
Zn127 O130 1.986 . S
Zn127 O132 1.996 . S
Zn127 O135 1.943 . S
O128 Zn127 1.962 . S
O128 C133 1.254 . S
O129 Zn126 2.031 . S
O129 C133 1.269 . S
O130 Zn127 1.986 . S
O130 C137 1.262 . S
O131 Zn126 2.049 . S
O131 C139 1.260 . S
O132 Zn127 1.996 . S
O132 C139 1.257 . S
C133 O128 1.254 . S
C133 O129 1.269 . S
C134 O135 1.249 . S
C134 O136 1.270 . S
O135 Zn127 1.943 . S
O135 C134 1.249 . S
O136 Zn126 2.067 . S
O136 C134 1.270 . S
C137 O130 1.262 . S
C137 O138 1.232 . S
O138 C137 1.232 . S
C139 O131 1.260 . S
C139 O132 1.257 . S
Zn140 O143 2.031 . S
Zn140 O145 2.049 . S
Zn140 O150 2.067 . S
Zn141 O142 1.962 . S
Zn141 O144 1.986 . S
Zn141 O146 1.996 . S
Zn141 O149 1.943 . S
O142 Zn141 1.962 . S
O142 C147 1.254 1_556 S
O143 Zn140 2.031 . S
O143 C147 1.269 1_556 S
O144 Zn141 1.986 . S
O144 C151 1.262 . S
O145 Zn140 2.049 . S
O145 C153 1.260 . S
O146 Zn141 1.996 . S
O146 C153 1.257 . S
C147 O142 1.254 1_554 S
C147 O143 1.269 1_554 S
C148 O149 1.249 . S
C148 O150 1.270 . S
O149 Zn141 1.943 . S
O149 C148 1.249 . S
O150 Zn140 2.067 . S
O150 C148 1.270 . S
C151 O144 1.262 . S
C151 O152 1.232 . S
O152 C151 1.232 . S
C153 O145 1.260 . S
C153 O146 1.257 . S
Zn154 O157 2.031 1_554 S
Zn154 O159 2.049 . S
Zn154 O164 2.067 1_565 S
Zn155 O156 1.962 . S
Zn155 O158 1.986 1_566 S
Zn155 O160 1.996 1_556 S
Zn155 O163 1.943 1_566 S
O156 Zn155 1.962 . S
O156 C161 1.254 . S
O157 Zn154 2.031 1_556 S
O157 C161 1.269 . S
O158 Zn155 1.986 1_544 S
O158 C165 1.262 1_554 S
O159 Zn154 2.049 . S
O159 C167 1.260 . S
O160 Zn155 1.996 1_554 S
O160 C167 1.257 . S
C161 O156 1.254 . S
C161 O157 1.269 . S
C162 O163 1.249 . S
C162 O164 1.270 . S
O163 Zn155 1.943 1_544 S
O163 C162 1.249 . S
O164 Zn154 2.067 1_545 S
O164 C162 1.270 . S
C165 O158 1.262 1_556 S
C165 O166 1.232 . S
O166 C165 1.232 . S
C167 O159 1.260 . S
C167 O160 1.257 . S
Zn168 O171 2.031 . S
Zn168 O173 2.049 . S
Zn168 O178 2.067 . S
Zn169 O170 1.962 . S
Zn169 O172 1.986 . S
Zn169 O174 1.996 . S
Zn169 O177 1.943 . S
O170 Zn169 1.962 . S
O170 C175 1.254 . S
O171 Zn168 2.031 . S
O171 C175 1.269 . S
O172 Zn169 1.986 . S
O172 C179 1.262 . S
O173 Zn168 2.049 . S
O173 C181 1.260 . S
O174 Zn169 1.996 . S
O174 C181 1.257 . S
C175 O170 1.254 . S
C175 O171 1.269 . S
C176 O177 1.249 . S
C176 O178 1.270 . S
O177 Zn169 1.943 . S
O177 C176 1.249 . S
O178 Zn168 2.067 . S
O178 C176 1.270 . S
C179 O172 1.262 . S
C179 O180 1.232 . S
O180 C179 1.232 . S
C181 O173 1.260 . S
C181 O174 1.257 . S
Zn182 O185 2.031 . S
Zn182 O187 2.049 . S
Zn182 O192 2.067 . S
Zn183 O184 1.962 . S
Zn183 O186 1.986 . S
Zn183 O188 1.996 . S
Zn183 O191 1.943 . S
O184 Zn183 1.962 . S
O184 C189 1.254 . S
O185 Zn182 2.031 . S
O185 C189 1.269 . S
O186 Zn183 1.986 . S
O186 C193 1.262 . S
O187 Zn182 2.049 . S
O187 C195 1.260 . S
O188 Zn183 1.996 . S
O188 C195 1.257 . S
C189 O184 1.254 . S
C189 O185 1.269 . S
C190 O191 1.249 . S
C190 O192 1.270 . S
O191 Zn183 1.943 . S
O191 C190 1.249 . S
O192 Zn182 2.067 . S
O192 C190 1.270 . S
C193 O186 1.262 . S
C193 O194 1.232 . S
O194 C193 1.232 . S
C195 O187 1.260 . S
C195 O188 1.257 . S
Zn196 O199 2.031 . S
Zn196 O201 2.049 . S
Zn196 O206 2.067 . S
Zn197 O198 1.962 . S
Zn197 O200 1.986 . S
Zn197 O202 1.996 . S
Zn197 O205 1.943 . S
O198 Zn197 1.962 . S
O198 C203 1.254 . S
O199 Zn196 2.031 . S
O199 C203 1.269 . S
O200 Zn197 1.986 . S
O200 C207 1.262 . S
O201 Zn196 2.049 . S
O201 C209 1.260 . S
O202 Zn197 1.996 . S
O202 C209 1.257 . S
C203 O198 1.254 . S
C203 O199 1.269 . S
C204 O205 1.249 . S
C204 O206 1.270 . S
O205 Zn197 1.943 . S
O205 C204 1.249 . S
O206 Zn196 2.067 . S
O206 C204 1.270 . S
C207 O200 1.262 . S
C207 O208 1.232 . S
O208 C207 1.232 . S
C209 O201 1.260 . S
C209 O202 1.257 . S
Zn210 O213 2.031 . S
Zn210 O215 2.049 . S
Zn210 O220 2.067 . S
Zn211 O212 1.962 . S
Zn211 O214 1.986 . S
Zn211 O216 1.996 . S
Zn211 O219 1.943 . S
O212 Zn211 1.962 . S
O212 C217 1.254 . S
O213 Zn210 2.031 . S
O213 C217 1.269 . S
O214 Zn211 1.986 . S
O214 C221 1.262 . S
O215 Zn210 2.049 . S
O215 C223 1.260 . S
O216 Zn211 1.996 . S
O216 C223 1.257 . S
C217 O212 1.254 . S
C217 O213 1.269 . S
C218 O219 1.249 . S
C218 O220 1.270 . S
O219 Zn211 1.943 . S
O219 C218 1.249 . S
O220 Zn210 2.067 . S
O220 C218 1.270 . S
C221 O214 1.262 . S
C221 O222 1.232 . S
O222 C221 1.232 . S
C223 O215 1.260 . S
C223 O216 1.257 . S
Zn224 O227 2.031 . S
Zn224 O229 2.049 . S
Zn224 O234 2.067 . S
Zn225 O226 1.962 . S
Zn225 O228 1.986 . S
Zn225 O230 1.996 . S
Zn225 O233 1.943 1_545 S
O226 Zn225 1.962 . S
O226 C231 1.254 . S
O227 Zn224 2.031 . S
O227 C231 1.269 1_565 S
O228 Zn225 1.986 . S
O228 C235 1.262 . S
O229 Zn224 2.049 . S
O229 C237 1.260 . S
O230 Zn225 1.996 . S
O230 C237 1.257 1_545 S
C231 O226 1.254 . S
C231 O227 1.269 1_545 S
C232 O233 1.249 . S
C232 O234 1.270 . S
O233 Zn225 1.943 1_565 S
O233 C232 1.249 . S
O234 Zn224 2.067 . S
O234 C232 1.270 . S
C235 O228 1.262 . S
C235 O236 1.232 . S
O236 C235 1.232 . S
C237 O229 1.260 . S
C237 O230 1.257 1_565 S
Zn238 O241 2.031 . S
Zn238 O243 2.049 . S
Zn238 O248 2.067 . S
Zn239 O240 1.962 . S
Zn239 O242 1.986 . S
Zn239 O244 1.996 . S
Zn239 O247 1.943 . S
O240 Zn239 1.962 . S
O240 C245 1.254 . S
O241 Zn238 2.031 . S
O241 C245 1.269 . S
O242 Zn239 1.986 . S
O242 C249 1.262 . S
O243 Zn238 2.049 . S
O243 C251 1.260 . S
O244 Zn239 1.996 . S
O244 C251 1.257 . S
C245 O240 1.254 . S
C245 O241 1.269 . S
C246 O247 1.249 . S
C246 O248 1.270 . S
O247 Zn239 1.943 . S
O247 C246 1.249 . S
O248 Zn238 2.067 . S
O248 C246 1.270 . S
C249 O242 1.262 . S
C249 O250 1.232 . S
O250 C249 1.232 . S
C251 O243 1.260 . S
C251 O244 1.257 . S
Zn252 O255 2.031 . S
Zn252 O257 2.049 . S
Zn252 O262 2.067 . S
Zn253 O254 1.962 . S
Zn253 O256 1.986 . S
Zn253 O258 1.996 . S
Zn253 O261 1.943 . S
O254 Zn253 1.962 . S
O254 C259 1.254 . S
O255 Zn252 2.031 . S
O255 C259 1.269 . S
O256 Zn253 1.986 . S
O256 C263 1.262 . S
O257 Zn252 2.049 . S
O257 C265 1.260 . S
O258 Zn253 1.996 . S
O258 C265 1.257 . S
C259 O254 1.254 . S
C259 O255 1.269 . S
C260 O261 1.249 . S
C260 O262 1.270 . S
O261 Zn253 1.943 . S
O261 C260 1.249 . S
O262 Zn252 2.067 . S
O262 C260 1.270 . S
C263 O256 1.262 . S
C263 O264 1.232 . S
O264 C263 1.232 . S
C265 O257 1.260 . S
C265 O258 1.257 . S
Zn266 O269 2.031 . S
Zn266 O271 2.049 . S
Zn266 O276 2.067 . S
Zn267 O268 1.962 . S
Zn267 O270 1.986 . S
Zn267 O272 1.996 . S
Zn267 O275 1.943 . S
O268 Zn267 1.962 . S
O268 C273 1.254 . S
O269 Zn266 2.031 . S
O269 C273 1.269 . S
O270 Zn267 1.986 . S
O270 C277 1.262 . S
O271 Zn266 2.049 . S
O271 C279 1.260 . S
O272 Zn267 1.996 . S
O272 C279 1.257 . S
C273 O268 1.254 . S
C273 O269 1.269 . S
C274 O275 1.249 . S
C274 O276 1.270 . S
O275 Zn267 1.943 . S
O275 C274 1.249 . S
O276 Zn266 2.067 . S
O276 C274 1.270 . S
C277 O270 1.262 . S
C277 O278 1.232 . S
O278 C277 1.232 . S
C279 O271 1.260 . S
C279 O272 1.257 . S
Zn280 O283 2.031 . S
Zn280 O285 2.049 . S
Zn280 O290 2.067 . S
Zn281 O282 1.962 . S
Zn281 O284 1.986 . S
Zn281 O286 1.996 . S
Zn281 O289 1.943 . S
O282 Zn281 1.962 . S
O282 C287 1.254 . S
O283 Zn280 2.031 . S
O283 C287 1.269 . S
O284 Zn281 1.986 . S
O284 C291 1.262 . S
O285 Zn280 2.049 . S
O285 C293 1.260 . S
O286 Zn281 1.996 . S
O286 C293 1.257 . S
C287 O282 1.254 . S
C287 O283 1.269 . S
C288 O289 1.249 . S
C288 O290 1.270 . S
O289 Zn281 1.943 . S
O289 C288 1.249 . S
O290 Zn280 2.067 . S
O290 C288 1.270 . S
C291 O284 1.262 . S
C291 O292 1.232 . S
O292 C291 1.232 . S
C293 O285 1.260 . S
C293 O286 1.257 . S
Zn294 O297 2.031 . S
Zn294 O299 2.049 . S
Zn294 O304 2.067 1_455 S
Zn295 O296 1.962 1_655 S
Zn295 O298 1.986 . S
Zn295 O300 1.996 1_655 S
Zn295 O303 1.943 . S
O296 Zn295 1.962 1_455 S
O296 C301 1.254 . S
O297 Zn294 2.031 . S
O297 C301 1.269 . S
O298 Zn295 1.986 . S
O298 C305 1.262 . S
O299 Zn294 2.049 . S
O299 C307 1.260 . S
O300 Zn295 1.996 1_455 S
O300 C307 1.257 . S
C301 O296 1.254 . S
C301 O297 1.269 . S
C302 O303 1.249 . S
C302 O304 1.270 . S
O303 Zn295 1.943 . S
O303 C302 1.249 . S
O304 Zn294 2.067 1_655 S
O304 C302 1.270 . S
C305 O298 1.262 . S
C305 O306 1.232 . S
O306 C305 1.232 . S
C307 O299 1.260 . S
C307 O300 1.257 . S
Zn308 O311 2.031 . S
Zn308 O313 2.049 . S
Zn308 O318 2.067 . S
Zn309 O310 1.962 . S
Zn309 O312 1.986 . S
Zn309 O314 1.996 . S
Zn309 O317 1.943 . S
O310 Zn309 1.962 . S
O310 C315 1.254 . S
O311 Zn308 2.031 . S
O311 C315 1.269 . S
O312 Zn309 1.986 . S
O312 C319 1.262 . S
O313 Zn308 2.049 . S
O313 C321 1.260 . S
O314 Zn309 1.996 . S
O314 C321 1.257 . S
C315 O310 1.254 . S
C315 O311 1.269 . S
C316 O317 1.249 . S
C316 O318 1.270 . S
O317 Zn309 1.943 . S
O317 C316 1.249 . S
O318 Zn308 2.067 . S
O318 C316 1.270 . S
C319 O312 1.262 . S
C319 O320 1.232 . S
O320 C319 1.232 . S
C321 O313 1.260 . S
C321 O314 1.257 . S
Zn322 O325 2.031 . S
Zn322 O327 2.049 . S
Zn322 O332 2.067 . S
Zn323 O324 1.962 . S
Zn323 O326 1.986 . S
Zn323 O328 1.996 . S
Zn323 O331 1.943 . S
O324 Zn323 1.962 . S
O324 C329 1.254 . S
O325 Zn322 2.031 . S
O325 C329 1.269 . S
O326 Zn323 1.986 . S
O326 C333 1.262 . S
O327 Zn322 2.049 . S
O327 C335 1.260 . S
O328 Zn323 1.996 . S
O328 C335 1.257 . S
C329 O324 1.254 . S
C329 O325 1.269 . S
C330 O331 1.249 . S
C330 O332 1.270 . S
O331 Zn323 1.943 . S
O331 C330 1.249 . S
O332 Zn322 2.067 . S
O332 C330 1.270 . S
C333 O326 1.262 . S
C333 O334 1.232 . S
O334 C333 1.232 . S
C335 O327 1.260 . S
C335 O328 1.257 . S
Tb336 C345 2.764 . S
Tb336 O346 2.325 . S
Tb336 O349 2.303 . S
Tb336 O353 2.322 . S
Tb336 O354 2.349 . S
Tb336 O357 2.415 . S
Tb336 O358 2.399 . S
Tb337 O347 2.322 . S
Tb337 O348 2.349 1_554 S
Tb337 O350 2.415 1_455 S
Tb337 O351 2.399 1_454 S
Tb337 O352 2.325 . S
Tb337 O355 2.303 . S
Tb337 C366 2.764 1_455 S
C338 O354 1.261 . S
C338 O355 1.257 . S
C339 C342 1.358 . S
C339 C343 1.332 . S
C339 C345 1.504 . S
C340 C341 1.373 . S
C340 C344 1.308 . S
C341 C340 1.373 . S
C341 C342 1.429 . S
C341 H368 0.932 . S
C342 C339 1.358 . S
C342 C341 1.429 . S
C342 H369 0.930 . S
C343 C339 1.332 . S
C343 C344 1.394 . S
C343 H370 0.932 . S
C344 C340 1.308 . S
C344 C343 1.394 . S
C344 H371 0.929 . S
C345 Tb336 2.764 . S
C345 C339 1.504 . S
C345 O357 1.239 . S
C345 O358 1.263 . S
O346 Tb336 2.325 . S
O346 C356 1.236 . S
O347 Tb337 2.322 . S
O347 C356 1.257 . S
O348 Tb337 2.349 1_556 S
O348 C359 1.261 1_556 S
O349 Tb336 2.303 . S
O349 C359 1.257 . S
O350 Tb337 2.415 1_655 S
O350 C366 1.239 . S
O351 Tb337 2.399 1_656 S
O351 C366 1.263 1_556 S
O352 Tb337 2.325 . S
O352 C367 1.236 . S
O353 Tb336 2.322 . S
O353 C367 1.257 . S
O354 Tb336 2.349 . S
O354 C338 1.261 . S
O355 Tb337 2.303 . S
O355 C338 1.257 . S
C356 O346 1.236 . S
C356 O347 1.257 . S
O357 Tb336 2.415 . S
O357 C345 1.239 . S
O358 Tb336 2.399 . S
O358 C345 1.263 . S
C359 O348 1.261 1_554 S
C359 O349 1.257 . S
C360 C363 1.358 1_554 S
C360 C364 1.332 . S
C360 C366 1.504 . S
C361 C362 1.373 . S
C361 C365 1.308 1_556 S
C362 C361 1.373 . S
C362 C363 1.429 . S
C362 H372 0.932 . S
C363 C360 1.358 1_556 S
C363 C362 1.429 . S
C363 H373 0.930 . S
C364 C360 1.332 . S
C364 C365 1.394 . S
C364 H374 0.932 . S
C365 C361 1.308 1_554 S
C365 C364 1.394 . S
C365 H375 0.929 . S
C366 Tb337 2.764 1_655 S
C366 O350 1.239 . S
C366 O351 1.263 1_554 S
C366 C360 1.504 . S
C367 O352 1.236 . S
C367 O353 1.257 . S
H368 C341 0.932 . S
H369 C342 0.930 . S
H370 C343 0.932 . S
H371 C344 0.929 . S
H372 C362 0.932 . S
H373 C363 0.930 . S
H374 C364 0.932 . S
H375 C365 0.929 . S
Tb376 C385 2.764 . S
Tb376 O386 2.325 . S
Tb376 O389 2.303 . S
Tb376 O393 2.322 . S
Tb376 O394 2.349 . S
Tb376 O397 2.415 . S
Tb376 O398 2.399 . S
Tb377 O387 2.322 . S
Tb377 O388 2.349 . S
Tb377 O390 2.415 . S
Tb377 O391 2.399 . S
Tb377 O392 2.325 . S
Tb377 O395 2.303 . S
Tb377 C406 2.764 . S
C378 O394 1.261 . S
C378 O395 1.257 . S
C379 C382 1.358 . S
C379 C383 1.332 . S
C379 C385 1.504 . S
C380 C381 1.373 . S
C380 C384 1.308 . S
C381 C380 1.373 . S
C381 C382 1.429 . S
C381 H408 0.932 . S
C382 C379 1.358 . S
C382 C381 1.429 . S
C382 H409 0.930 . S
C383 C379 1.332 . S
C383 C384 1.394 . S
C383 H410 0.932 . S
C384 C380 1.308 . S
C384 C383 1.394 . S
C384 H411 0.929 . S
C385 Tb376 2.764 . S
C385 C379 1.504 . S
C385 O397 1.239 . S
C385 O398 1.263 . S
O386 Tb376 2.325 . S
O386 C396 1.236 . S
O387 Tb377 2.322 . S
O387 C396 1.257 . S
O388 Tb377 2.349 . S
O388 C399 1.261 . S
O389 Tb376 2.303 . S
O389 C399 1.257 . S
O390 Tb377 2.415 . S
O390 C406 1.239 . S
O391 Tb377 2.399 . S
O391 C406 1.263 . S
O392 Tb377 2.325 . S
O392 C407 1.236 . S
O393 Tb376 2.322 . S
O393 C407 1.257 . S
O394 Tb376 2.349 . S
O394 C378 1.261 . S
O395 Tb377 2.303 . S
O395 C378 1.257 . S
C396 O386 1.236 . S
C396 O387 1.257 . S
O397 Tb376 2.415 . S
O397 C385 1.239 . S
O398 Tb376 2.399 . S
O398 C385 1.263 . S
C399 O388 1.261 . S
C399 O389 1.257 . S
C400 C403 1.358 . S
C400 C404 1.332 . S
C400 C406 1.504 . S
C401 C402 1.373 1_545 S
C401 C405 1.308 . S
C402 C401 1.373 1_565 S
C402 C403 1.429 . S
C402 H412 0.932 . S
C403 C400 1.358 . S
C403 C402 1.429 . S
C403 H413 0.930 . S
C404 C400 1.332 . S
C404 C405 1.394 1_565 S
C404 H414 0.932 . S
C405 C401 1.308 . S
C405 C404 1.394 1_545 S
C405 H415 0.929 . S
C406 Tb377 2.764 . S
C406 O390 1.239 . S
C406 O391 1.263 . S
C406 C400 1.504 . S
C407 O392 1.236 . S
C407 O393 1.257 . S
H408 C381 0.932 . S
H409 C382 0.930 . S
H410 C383 0.932 . S
H411 C384 0.929 . S
H412 C402 0.932 . S
H413 C403 0.930 . S
H414 C404 0.932 . S
H415 C405 0.929 . S
Tb416 C425 2.764 . S
Tb416 O426 2.325 . S
Tb416 O429 2.303 . S
Tb416 O433 2.322 . S
Tb416 O434 2.349 . S
Tb416 O437 2.415 . S
Tb416 O438 2.399 . S
Tb417 O427 2.322 . S
Tb417 O428 2.349 . S
Tb417 O430 2.415 . S
Tb417 O431 2.399 . S
Tb417 O432 2.325 . S
Tb417 O435 2.303 . S
Tb417 C446 2.764 . S
C418 O434 1.261 . S
C418 O435 1.257 . S
C419 C422 1.358 . S
C419 C423 1.332 . S
C419 C425 1.504 . S
C420 C421 1.373 . S
C420 C424 1.308 . S
C421 C420 1.373 . S
C421 C422 1.429 . S
C421 H448 0.932 . S
C422 C419 1.358 . S
C422 C421 1.429 . S
C422 H449 0.930 . S
C423 C419 1.332 . S
C423 C424 1.394 . S
C423 H450 0.932 . S
C424 C420 1.308 . S
C424 C423 1.394 . S
C424 H451 0.929 . S
C425 Tb416 2.764 . S
C425 C419 1.504 . S
C425 O437 1.239 . S
C425 O438 1.263 . S
O426 Tb416 2.325 . S
O426 C436 1.236 . S
O427 Tb417 2.322 . S
O427 C436 1.257 . S
O428 Tb417 2.349 . S
O428 C439 1.261 . S
O429 Tb416 2.303 . S
O429 C439 1.257 . S
O430 Tb417 2.415 . S
O430 C446 1.239 . S
O431 Tb417 2.399 . S
O431 C446 1.263 . S
O432 Tb417 2.325 . S
O432 C447 1.236 1_545 S
O433 Tb416 2.322 . S
O433 C447 1.257 1_545 S
O434 Tb416 2.349 . S
O434 C418 1.261 . S
O435 Tb417 2.303 . S
O435 C418 1.257 . S
C436 O426 1.236 . S
C436 O427 1.257 . S
O437 Tb416 2.415 . S
O437 C425 1.239 . S
O438 Tb416 2.399 . S
O438 C425 1.263 . S
C439 O428 1.261 . S
C439 O429 1.257 . S
C440 C443 1.358 . S
C440 C444 1.332 . S
C440 C446 1.504 . S
C441 C442 1.373 1_565 S
C441 C445 1.308 . S
C442 C441 1.373 1_545 S
C442 C443 1.429 . S
C442 H452 0.932 . S
C443 C440 1.358 . S
C443 C442 1.429 . S
C443 H453 0.930 . S
C444 C440 1.332 . S
C444 C445 1.394 1_545 S
C444 H454 0.932 . S
C445 C441 1.308 . S
C445 C444 1.394 1_565 S
C445 H455 0.929 . S
C446 Tb417 2.764 . S
C446 O430 1.239 . S
C446 O431 1.263 . S
C446 C440 1.504 . S
C447 O432 1.236 1_565 S
C447 O433 1.257 1_565 S
H448 C421 0.932 . S
H449 C422 0.930 . S
H450 C423 0.932 . S
H451 C424 0.929 . S
H452 C442 0.932 . S
H453 C443 0.930 . S
H454 C444 0.932 . S
H455 C445 0.929 . S
Tb456 C465 2.764 . S
Tb456 O466 2.325 . S
Tb456 O469 2.303 . S
Tb456 O473 2.322 . S
Tb456 O474 2.349 . S
Tb456 O477 2.415 . S
Tb456 O478 2.399 . S
Tb457 O467 2.322 . S
Tb457 O468 2.349 . S
Tb457 O470 2.415 . S
Tb457 O471 2.399 . S
Tb457 O472 2.325 . S
Tb457 O475 2.303 . S
Tb457 C486 2.764 . S
C458 O474 1.261 . S
C458 O475 1.257 . S
C459 C462 1.358 . S
C459 C463 1.332 . S
C459 C465 1.504 . S
C460 C461 1.373 . S
C460 C464 1.308 . S
C461 C460 1.373 . S
C461 C462 1.429 . S
C461 H488 0.932 . S
C462 C459 1.358 . S
C462 C461 1.429 . S
C462 H489 0.930 . S
C463 C459 1.332 . S
C463 C464 1.394 . S
C463 H490 0.932 . S
C464 C460 1.308 . S
C464 C463 1.394 . S
C464 H491 0.929 . S
C465 Tb456 2.764 . S
C465 C459 1.504 . S
C465 O477 1.239 . S
C465 O478 1.263 . S
O466 Tb456 2.325 . S
O466 C476 1.236 . S
O467 Tb457 2.322 . S
O467 C476 1.257 . S
O468 Tb457 2.349 . S
O468 C479 1.261 . S
O469 Tb456 2.303 . S
O469 C479 1.257 . S
O470 Tb457 2.415 . S
O470 C486 1.239 . S
O471 Tb457 2.399 . S
O471 C486 1.263 . S
O472 Tb457 2.325 . S
O472 C487 1.236 . S
O473 Tb456 2.322 . S
O473 C487 1.257 . S
O474 Tb456 2.349 . S
O474 C458 1.261 . S
O475 Tb457 2.303 . S
O475 C458 1.257 . S
C476 O466 1.236 . S
C476 O467 1.257 . S
O477 Tb456 2.415 . S
O477 C465 1.239 . S
O478 Tb456 2.399 . S
O478 C465 1.263 . S
C479 O468 1.261 . S
C479 O469 1.257 . S
C480 C483 1.358 . S
C480 C484 1.332 . S
C480 C486 1.504 . S
C481 C482 1.373 . S
C481 C485 1.308 . S
C482 C481 1.373 . S
C482 C483 1.429 . S
C482 H492 0.932 . S
C483 C480 1.358 . S
C483 C482 1.429 . S
C483 H493 0.930 . S
C484 C480 1.332 . S
C484 C485 1.394 . S
C484 H494 0.932 . S
C485 C481 1.308 . S
C485 C484 1.394 . S
C485 H495 0.929 . S
C486 Tb457 2.764 . S
C486 O470 1.239 . S
C486 O471 1.263 . S
C486 C480 1.504 . S
C487 O472 1.236 . S
C487 O473 1.257 . S
H488 C461 0.932 . S
H489 C462 0.930 . S
H490 C463 0.932 . S
H491 C464 0.929 . S
H492 C482 0.932 . S
H493 C483 0.930 . S
H494 C484 0.932 . S
H495 C485 0.929 . S
Tb496 C505 2.764 . S
Tb496 O506 2.325 . S
Tb496 O509 2.303 . S
Tb496 O513 2.322 . S
Tb496 O514 2.349 . S
Tb496 O517 2.415 . S
Tb496 O518 2.399 . S
Tb497 O507 2.322 . S
Tb497 O508 2.349 . S
Tb497 O510 2.415 . S
Tb497 O511 2.399 . S
Tb497 O512 2.325 . S
Tb497 O515 2.303 . S
Tb497 C526 2.764 . S
C498 O514 1.261 1_655 S
C498 O515 1.257 1_655 S
C499 C502 1.358 . S
C499 C503 1.332 . S
C499 C505 1.504 . S
C500 C501 1.373 . S
C500 C504 1.308 . S
C501 C500 1.373 . S
C501 C502 1.429 . S
C501 H528 0.932 . S
C502 C499 1.358 . S
C502 C501 1.429 . S
C502 H529 0.930 . S
C503 C499 1.332 . S
C503 C504 1.394 . S
C503 H530 0.932 . S
C504 C500 1.308 . S
C504 C503 1.394 . S
C504 H531 0.929 . S
C505 Tb496 2.764 . S
C505 C499 1.504 . S
C505 O517 1.239 . S
C505 O518 1.263 . S
O506 Tb496 2.325 . S
O506 C516 1.236 . S
O507 Tb497 2.322 . S
O507 C516 1.257 . S
O508 Tb497 2.349 . S
O508 C519 1.261 . S
O509 Tb496 2.303 . S
O509 C519 1.257 . S
O510 Tb497 2.415 . S
O510 C526 1.239 . S
O511 Tb497 2.399 . S
O511 C526 1.263 . S
O512 Tb497 2.325 . S
O512 C527 1.236 . S
O513 Tb496 2.322 . S
O513 C527 1.257 . S
O514 Tb496 2.349 . S
O514 C498 1.261 1_455 S
O515 Tb497 2.303 . S
O515 C498 1.257 1_455 S
C516 O506 1.236 . S
C516 O507 1.257 . S
O517 Tb496 2.415 . S
O517 C505 1.239 . S
O518 Tb496 2.399 . S
O518 C505 1.263 . S
C519 O508 1.261 . S
C519 O509 1.257 . S
C520 C523 1.358 . S
C520 C524 1.332 1_455 S
C520 C526 1.504 . S
C521 C522 1.373 1_655 S
C521 C525 1.308 . S
C522 C521 1.373 1_455 S
C522 C523 1.429 . S
C522 H532 0.932 . S
C523 C520 1.358 . S
C523 C522 1.429 . S
C523 H533 0.930 . S
C524 C520 1.332 1_655 S
C524 C525 1.394 . S
C524 H534 0.932 . S
C525 C521 1.308 . S
C525 C524 1.394 . S
C525 H535 0.929 . S
C526 Tb497 2.764 . S
C526 O510 1.239 . S
C526 O511 1.263 . S
C526 C520 1.504 . S
C527 O512 1.236 . S
C527 O513 1.257 . S
H528 C501 0.932 . S
H529 C502 0.930 . S
H530 C503 0.932 . S
H531 C504 0.929 . S
H532 C522 0.932 . S
H533 C523 0.930 . S
H534 C524 0.932 . S
H535 C525 0.929 . S
Tb536 C545 2.764 1_565 S
Tb536 O546 2.325 . S
Tb536 O549 2.303 . S
Tb536 O553 2.322 . S
Tb536 O554 2.349 . S
Tb536 O557 2.415 . S
Tb536 O558 2.399 . S
Tb537 O547 2.322 . S
Tb537 O548 2.349 . S
Tb537 O550 2.415 . S
Tb537 O551 2.399 . S
Tb537 O552 2.325 . S
Tb537 O555 2.303 . S
Tb537 C566 2.764 . S
C538 O554 1.261 . S
C538 O555 1.257 . S
C539 C542 1.358 . S
C539 C543 1.332 . S
C539 C545 1.504 . S
C540 C541 1.373 . S
C540 C544 1.308 . S
C541 C540 1.373 . S
C541 C542 1.429 . S
C541 H568 0.932 . S
C542 C539 1.358 . S
C542 C541 1.429 . S
C542 H569 0.930 . S
C543 C539 1.332 . S
C543 C544 1.394 . S
C543 H570 0.932 . S
C544 C540 1.308 . S
C544 C543 1.394 . S
C544 H571 0.929 . S
C545 Tb536 2.764 1_545 S
C545 C539 1.504 . S
C545 O557 1.239 1_545 S
C545 O558 1.263 1_545 S
O546 Tb536 2.325 . S
O546 C556 1.236 . S
O547 Tb537 2.322 . S
O547 C556 1.257 . S
O548 Tb537 2.349 . S
O548 C559 1.261 . S
O549 Tb536 2.303 . S
O549 C559 1.257 . S
O550 Tb537 2.415 . S
O550 C566 1.239 . S
O551 Tb537 2.399 . S
O551 C566 1.263 . S
O552 Tb537 2.325 . S
O552 C567 1.236 . S
O553 Tb536 2.322 . S
O553 C567 1.257 . S
O554 Tb536 2.349 . S
O554 C538 1.261 . S
O555 Tb537 2.303 . S
O555 C538 1.257 . S
C556 O546 1.236 . S
C556 O547 1.257 . S
O557 Tb536 2.415 . S
O557 C545 1.239 1_565 S
O558 Tb536 2.399 . S
O558 C545 1.263 1_565 S
C559 O548 1.261 . S
C559 O549 1.257 . S
C560 C563 1.358 . S
C560 C564 1.332 . S
C560 C566 1.504 . S
C561 C562 1.373 . S
C561 C565 1.308 . S
C562 C561 1.373 . S
C562 C563 1.429 . S
C562 H572 0.932 . S
C563 C560 1.358 . S
C563 C562 1.429 . S
C563 H573 0.930 . S
C564 C560 1.332 . S
C564 C565 1.394 . S
C564 H574 0.932 . S
C565 C561 1.308 . S
C565 C564 1.394 . S
C565 H575 0.929 . S
C566 Tb537 2.764 . S
C566 O550 1.239 . S
C566 O551 1.263 . S
C566 C560 1.504 . S
C567 O552 1.236 . S
C567 O553 1.257 . S
H568 C541 0.932 . S
H569 C542 0.930 . S
H570 C543 0.932 . S
H571 C544 0.929 . S
H572 C562 0.932 . S
H573 C563 0.930 . S
H574 C564 0.932 . S
H575 C565 0.929 . S
Tb576 C585 2.764 . S
Tb576 O586 2.325 . S
Tb576 O589 2.303 . S
Tb576 O593 2.322 . S
Tb576 O594 2.349 . S
Tb576 O597 2.415 . S
Tb576 O598 2.399 . S
Tb577 O587 2.322 . S
Tb577 O588 2.349 . S
Tb577 O590 2.415 1_554 S
Tb577 O591 2.399 1_554 S
Tb577 O592 2.325 . S
Tb577 O595 2.303 . S
Tb577 C606 2.764 1_554 S
C578 O594 1.261 . S
C578 O595 1.257 . S
C579 C582 1.358 . S
C579 C583 1.332 . S
C579 C585 1.504 . S
C580 C581 1.373 . S
C580 C584 1.308 . S
C581 C580 1.373 . S
C581 C582 1.429 . S
C581 H608 0.932 . S
C582 C579 1.358 . S
C582 C581 1.429 . S
C582 H609 0.930 . S
C583 C579 1.332 . S
C583 C584 1.394 . S
C583 H610 0.932 . S
C584 C580 1.308 . S
C584 C583 1.394 . S
C584 H611 0.929 . S
C585 Tb576 2.764 . S
C585 C579 1.504 . S
C585 O597 1.239 . S
C585 O598 1.263 . S
O586 Tb576 2.325 . S
O586 C596 1.236 . S
O587 Tb577 2.322 . S
O587 C596 1.257 . S
O588 Tb577 2.349 . S
O588 C599 1.261 . S
O589 Tb576 2.303 . S
O589 C599 1.257 . S
O590 Tb577 2.415 1_556 S
O590 C606 1.239 . S
O591 Tb577 2.399 1_556 S
O591 C606 1.263 . S
O592 Tb577 2.325 . S
O592 C607 1.236 . S
O593 Tb576 2.322 . S
O593 C607 1.257 . S
O594 Tb576 2.349 . S
O594 C578 1.261 . S
O595 Tb577 2.303 . S
O595 C578 1.257 . S
C596 O586 1.236 . S
C596 O587 1.257 . S
O597 Tb576 2.415 . S
O597 C585 1.239 . S
O598 Tb576 2.399 . S
O598 C585 1.263 . S
C599 O588 1.261 . S
C599 O589 1.257 . S
C600 C603 1.358 . S
C600 C604 1.332 . S
C600 C606 1.504 . S
C601 C602 1.373 . S
C601 C605 1.308 . S
C602 C601 1.373 . S
C602 C603 1.429 . S
C602 H612 0.932 . S
C603 C600 1.358 . S
C603 C602 1.429 . S
C603 H613 0.930 . S
C604 C600 1.332 . S
C604 C605 1.394 . S
C604 H614 0.932 . S
C605 C601 1.308 . S
C605 C604 1.394 . S
C605 H615 0.929 . S
C606 Tb577 2.764 1_556 S
C606 O590 1.239 . S
C606 O591 1.263 . S
C606 C600 1.504 . S
C607 O592 1.236 . S
C607 O593 1.257 . S
H608 C581 0.932 . S
H609 C582 0.930 . S
H610 C583 0.932 . S
H611 C584 0.929 . S
H612 C602 0.932 . S
H613 C603 0.930 . S
H614 C604 0.932 . S
H615 C605 0.929 . S
Tb616 C625 2.764 . S
Tb616 O626 2.325 . S
Tb616 O629 2.303 . S
Tb616 O633 2.322 . S
Tb616 O634 2.349 . S
Tb616 O637 2.415 . S
Tb616 O638 2.399 . S
Tb617 O627 2.322 . S
Tb617 O628 2.349 . S
Tb617 O630 2.415 . S
Tb617 O631 2.399 . S
Tb617 O632 2.325 . S
Tb617 O635 2.303 . S
Tb617 C646 2.764 . S
C618 O634 1.261 . S
C618 O635 1.257 . S
C619 C622 1.358 . S
C619 C623 1.332 . S
C619 C625 1.504 . S
C620 C621 1.373 . S
C620 C624 1.308 . S
C621 C620 1.373 . S
C621 C622 1.429 . S
C621 H648 0.932 . S
C622 C619 1.358 . S
C622 C621 1.429 . S
C622 H649 0.930 . S
C623 C619 1.332 . S
C623 C624 1.394 . S
C623 H650 0.932 . S
C624 C620 1.308 . S
C624 C623 1.394 . S
C624 H651 0.929 . S
C625 Tb616 2.764 . S
C625 C619 1.504 . S
C625 O637 1.239 . S
C625 O638 1.263 . S
O626 Tb616 2.325 . S
O626 C636 1.236 . S
O627 Tb617 2.322 . S
O627 C636 1.257 . S
O628 Tb617 2.349 . S
O628 C639 1.261 . S
O629 Tb616 2.303 . S
O629 C639 1.257 . S
O630 Tb617 2.415 . S
O630 C646 1.239 . S
O631 Tb617 2.399 . S
O631 C646 1.263 . S
O632 Tb617 2.325 . S
O632 C647 1.236 . S
O633 Tb616 2.322 . S
O633 C647 1.257 . S
O634 Tb616 2.349 . S
O634 C618 1.261 . S
O635 Tb617 2.303 . S
O635 C618 1.257 . S
C636 O626 1.236 . S
C636 O627 1.257 . S
O637 Tb616 2.415 . S
O637 C625 1.239 . S
O638 Tb616 2.399 . S
O638 C625 1.263 . S
C639 O628 1.261 . S
C639 O629 1.257 . S
C640 C643 1.358 . S
C640 C644 1.332 . S
C640 C646 1.504 . S
C641 C642 1.373 . S
C641 C645 1.308 . S
C642 C641 1.373 . S
C642 C643 1.429 . S
C642 H652 0.932 . S
C643 C640 1.358 . S
C643 C642 1.429 . S
C643 H653 0.930 . S
C644 C640 1.332 . S
C644 C645 1.394 . S
C644 H654 0.932 . S
C645 C641 1.308 . S
C645 C644 1.394 . S
C645 H655 0.929 . S
C646 Tb617 2.764 . S
C646 O630 1.239 . S
C646 O631 1.263 . S
C646 C640 1.504 . S
C647 O632 1.236 . S
C647 O633 1.257 . S
H648 C621 0.932 . S
H649 C622 0.930 . S
H650 C623 0.932 . S
H651 C624 0.929 . S
H652 C642 0.932 . S
H653 C643 0.930 . S
H654 C644 0.932 . S
H655 C645 0.929 . S
Tb656 C665 2.764 . S
Tb656 O666 2.325 . S
Tb656 O669 2.303 . S
Tb656 O673 2.322 . S
Tb656 O674 2.349 . S
Tb656 O677 2.415 . S
Tb656 O678 2.399 . S
Tb657 O667 2.322 . S
Tb657 O668 2.349 . S
Tb657 O670 2.415 1_554 S
Tb657 O671 2.399 1_554 S
Tb657 O672 2.325 . S
Tb657 O675 2.303 . S
Tb657 C686 2.764 1_554 S
C658 O674 1.261 . S
C658 O675 1.257 . S
C659 C662 1.358 . S
C659 C663 1.332 . S
C659 C665 1.504 . S
C660 C661 1.373 . S
C660 C664 1.308 . S
C661 C660 1.373 . S
C661 C662 1.429 . S
C661 H688 0.932 . S
C662 C659 1.358 . S
C662 C661 1.429 . S
C662 H689 0.930 . S
C663 C659 1.332 . S
C663 C664 1.394 . S
C663 H690 0.932 . S
C664 C660 1.308 . S
C664 C663 1.394 . S
C664 H691 0.929 . S
C665 Tb656 2.764 . S
C665 C659 1.504 . S
C665 O677 1.239 . S
C665 O678 1.263 . S
O666 Tb656 2.325 . S
O666 C676 1.236 . S
O667 Tb657 2.322 . S
O667 C676 1.257 . S
O668 Tb657 2.349 . S
O668 C679 1.261 . S
O669 Tb656 2.303 . S
O669 C679 1.257 . S
O670 Tb657 2.415 1_556 S
O670 C686 1.239 . S
O671 Tb657 2.399 1_556 S
O671 C686 1.263 . S
O672 Tb657 2.325 . S
O672 C687 1.236 . S
O673 Tb656 2.322 . S
O673 C687 1.257 . S
O674 Tb656 2.349 . S
O674 C658 1.261 . S
O675 Tb657 2.303 . S
O675 C658 1.257 . S
C676 O666 1.236 . S
C676 O667 1.257 . S
O677 Tb656 2.415 . S
O677 C665 1.239 . S
O678 Tb656 2.399 . S
O678 C665 1.263 . S
C679 O668 1.261 . S
C679 O669 1.257 . S
C680 C683 1.358 . S
C680 C684 1.332 . S
C680 C686 1.504 . S
C681 C682 1.373 . S
C681 C685 1.308 . S
C682 C681 1.373 . S
C682 C683 1.429 . S
C682 H692 0.932 . S
C683 C680 1.358 . S
C683 C682 1.429 . S
C683 H693 0.930 . S
C684 C680 1.332 . S
C684 C685 1.394 . S
C684 H694 0.932 . S
C685 C681 1.308 . S
C685 C684 1.394 . S
C685 H695 0.929 . S
C686 Tb657 2.764 1_556 S
C686 O670 1.239 . S
C686 O671 1.263 . S
C686 C680 1.504 . S
C687 O672 1.236 . S
C687 O673 1.257 . S
H688 C661 0.932 . S
H689 C662 0.930 . S
H690 C663 0.932 . S
H691 C664 0.929 . S
H692 C682 0.932 . S
H693 C683 0.930 . S
H694 C684 0.932 . S
H695 C685 0.929 . S
Tb696 C705 2.764 . S
Tb696 O706 2.325 . S
Tb696 O709 2.303 . S
Tb696 O713 2.322 . S
Tb696 O714 2.349 . S
Tb696 O717 2.415 . S
Tb696 O718 2.399 . S
Tb697 O707 2.322 . S
Tb697 O708 2.349 . S
Tb697 O710 2.415 . S
Tb697 O711 2.399 . S
Tb697 O712 2.325 . S
Tb697 O715 2.303 . S
Tb697 C726 2.764 . S
C698 O714 1.261 . S
C698 O715 1.257 . S
C699 C702 1.358 . S
C699 C703 1.332 . S
C699 C705 1.504 . S
C700 C701 1.373 . S
C700 C704 1.308 . S
C701 C700 1.373 . S
C701 C702 1.429 . S
C701 H728 0.932 . S
C702 C699 1.358 . S
C702 C701 1.429 . S
C702 H729 0.930 . S
C703 C699 1.332 . S
C703 C704 1.394 . S
C703 H730 0.932 . S
C704 C700 1.308 . S
C704 C703 1.394 . S
C704 H731 0.929 . S
C705 Tb696 2.764 . S
C705 C699 1.504 . S
C705 O717 1.239 . S
C705 O718 1.263 . S
O706 Tb696 2.325 . S
O706 C716 1.236 . S
O707 Tb697 2.322 . S
O707 C716 1.257 . S
O708 Tb697 2.349 . S
O708 C719 1.261 . S
O709 Tb696 2.303 . S
O709 C719 1.257 . S
O710 Tb697 2.415 . S
O710 C726 1.239 . S
O711 Tb697 2.399 . S
O711 C726 1.263 . S
O712 Tb697 2.325 . S
O712 C727 1.236 . S
O713 Tb696 2.322 . S
O713 C727 1.257 . S
O714 Tb696 2.349 . S
O714 C698 1.261 . S
O715 Tb697 2.303 . S
O715 C698 1.257 . S
C716 O706 1.236 . S
C716 O707 1.257 . S
O717 Tb696 2.415 . S
O717 C705 1.239 . S
O718 Tb696 2.399 . S
O718 C705 1.263 . S
C719 O708 1.261 . S
C719 O709 1.257 . S
C720 C723 1.358 . S
C720 C724 1.332 . S
C720 C726 1.504 . S
C721 C722 1.373 . S
C721 C725 1.308 . S
C722 C721 1.373 . S
C722 C723 1.429 . S
C722 H732 0.932 . S
C723 C720 1.358 . S
C723 C722 1.429 . S
C723 H733 0.930 . S
C724 C720 1.332 . S
C724 C725 1.394 . S
C724 H734 0.932 . S
C725 C721 1.308 . S
C725 C724 1.394 . S
C725 H735 0.929 . S
C726 Tb697 2.764 . S
C726 O710 1.239 . S
C726 O711 1.263 . S
C726 C720 1.504 . S
C727 O712 1.236 . S
C727 O713 1.257 . S
H728 C701 0.932 . S
H729 C702 0.930 . S
H730 C703 0.932 . S
H731 C704 0.929 . S
H732 C722 0.932 . S
H733 C723 0.930 . S
H734 C724 0.932 . S
H735 C725 0.929 . S
Tb736 C745 2.764 . S
Tb736 O746 2.325 . S
Tb736 O749 2.303 . S
Tb736 O753 2.322 . S
Tb736 O754 2.349 . S
Tb736 O757 2.415 . S
Tb736 O758 2.399 . S
Tb737 O747 2.322 . S
Tb737 O748 2.349 . S
Tb737 O750 2.415 . S
Tb737 O751 2.399 . S
Tb737 O752 2.325 . S
Tb737 O755 2.303 . S
Tb737 C766 2.764 . S
C738 O754 1.261 . S
C738 O755 1.257 . S
C739 C742 1.358 . S
C739 C743 1.332 1_455 S
C739 C745 1.504 . S
C740 C741 1.373 1_655 S
C740 C744 1.308 . S
C741 C740 1.373 1_455 S
C741 C742 1.429 . S
C741 H768 0.932 . S
C742 C739 1.358 . S
C742 C741 1.429 . S
C742 H769 0.930 . S
C743 C739 1.332 1_655 S
C743 C744 1.394 . S
C743 H770 0.932 . S
C744 C740 1.308 . S
C744 C743 1.394 . S
C744 H771 0.929 . S
C745 Tb736 2.764 . S
C745 C739 1.504 . S
C745 O757 1.239 . S
C745 O758 1.263 . S
O746 Tb736 2.325 . S
O746 C756 1.236 . S
O747 Tb737 2.322 . S
O747 C756 1.257 . S
O748 Tb737 2.349 . S
O748 C759 1.261 1_455 S
O749 Tb736 2.303 . S
O749 C759 1.257 1_455 S
O750 Tb737 2.415 . S
O750 C766 1.239 . S
O751 Tb737 2.399 . S
O751 C766 1.263 . S
O752 Tb737 2.325 . S
O752 C767 1.236 . S
O753 Tb736 2.322 . S
O753 C767 1.257 . S
O754 Tb736 2.349 . S
O754 C738 1.261 . S
O755 Tb737 2.303 . S
O755 C738 1.257 . S
C756 O746 1.236 . S
C756 O747 1.257 . S
O757 Tb736 2.415 . S
O757 C745 1.239 . S
O758 Tb736 2.399 . S
O758 C745 1.263 . S
C759 O748 1.261 1_655 S
C759 O749 1.257 1_655 S
C760 C763 1.358 . S
C760 C764 1.332 . S
C760 C766 1.504 . S
C761 C762 1.373 . S
C761 C765 1.308 . S
C762 C761 1.373 . S
C762 C763 1.429 . S
C762 H772 0.932 . S
C763 C760 1.358 . S
C763 C762 1.429 . S
C763 H773 0.930 . S
C764 C760 1.332 . S
C764 C765 1.394 . S
C764 H774 0.932 . S
C765 C761 1.308 . S
C765 C764 1.394 . S
C765 H775 0.929 . S
C766 Tb737 2.764 . S
C766 O750 1.239 . S
C766 O751 1.263 . S
C766 C760 1.504 . S
C767 O752 1.236 . S
C767 O753 1.257 . S
H768 C741 0.932 . S
H769 C742 0.930 . S
H770 C743 0.932 . S
H771 C744 0.929 . S
H772 C762 0.932 . S
H773 C763 0.930 . S
H774 C764 0.932 . S
H775 C765 0.929 . S
Tb776 C785 2.764 . S
Tb776 O786 2.325 . S
Tb776 O789 2.303 . S
Tb776 O793 2.322 . S
Tb776 O794 2.349 . S
Tb776 O797 2.415 . S
Tb776 O798 2.399 . S
Tb777 O787 2.322 . S
Tb777 O788 2.349 . S
Tb777 O790 2.415 . S
Tb777 O791 2.399 . S
Tb777 O792 2.325 . S
Tb777 O795 2.303 . S
Tb777 C806 2.764 . S
C778 O794 1.261 . S
C778 O795 1.257 . S
C779 C782 1.358 1_655 S
C779 C783 1.332 1_655 S
C779 C785 1.504 . S
C780 C781 1.373 . S
C780 C784 1.308 . S
C781 C780 1.373 . S
C781 C782 1.429 . S
C781 H808 0.932 . S
C782 C779 1.358 1_455 S
C782 C781 1.429 . S
C782 H809 0.930 1_455 S
C783 C779 1.332 1_455 S
C783 C784 1.394 . S
C783 H810 0.932 1_455 S
C784 C780 1.308 . S
C784 C783 1.394 . S
C784 H811 0.929 . S
C785 Tb776 2.764 . S
C785 C779 1.504 . S
C785 O797 1.239 . S
C785 O798 1.263 . S
O786 Tb776 2.325 . S
O786 C796 1.236 . S
O787 Tb777 2.322 . S
O787 C796 1.257 . S
O788 Tb777 2.349 . S
O788 C799 1.261 . S
O789 Tb776 2.303 . S
O789 C799 1.257 . S
O790 Tb777 2.415 . S
O790 C806 1.239 . S
O791 Tb777 2.399 . S
O791 C806 1.263 . S
O792 Tb777 2.325 . S
O792 C807 1.236 . S
O793 Tb776 2.322 . S
O793 C807 1.257 . S
O794 Tb776 2.349 . S
O794 C778 1.261 . S
O795 Tb777 2.303 . S
O795 C778 1.257 . S
C796 O786 1.236 . S
C796 O787 1.257 . S
O797 Tb776 2.415 . S
O797 C785 1.239 . S
O798 Tb776 2.399 . S
O798 C785 1.263 . S
C799 O788 1.261 . S
C799 O789 1.257 . S
C800 C803 1.358 . S
C800 C804 1.332 . S
C800 C806 1.504 . S
C801 C802 1.373 . S
C801 C805 1.308 . S
C802 C801 1.373 . S
C802 C803 1.429 . S
C802 H812 0.932 . S
C803 C800 1.358 . S
C803 C802 1.429 . S
C803 H813 0.930 . S
C804 C800 1.332 . S
C804 C805 1.394 . S
C804 H814 0.932 . S
C805 C801 1.308 . S
C805 C804 1.394 . S
C805 H815 0.929 . S
C806 Tb777 2.764 . S
C806 O790 1.239 . S
C806 O791 1.263 . S
C806 C800 1.504 . S
C807 O792 1.236 . S
C807 O793 1.257 . S
H808 C781 0.932 . S
H809 C782 0.930 1_655 S
H810 C783 0.932 1_655 S
H811 C784 0.929 . S
H812 C802 0.932 . S
H813 C803 0.930 . S
H814 C804 0.932 . S
H815 C805 0.929 . S
Tb816 C825 2.764 . S
Tb816 O826 2.325 . S
Tb816 O829 2.303 . S
Tb816 O833 2.322 . S
Tb816 O834 2.349 . S
Tb816 O837 2.415 . S
Tb816 O838 2.399 . S
Tb817 O827 2.322 . S
Tb817 O828 2.349 . S
Tb817 O830 2.415 . S
Tb817 O831 2.399 . S
Tb817 O832 2.325 . S
Tb817 O835 2.303 . S
Tb817 C846 2.764 . S
C818 O834 1.261 . S
C818 O835 1.257 . S
C819 C822 1.358 . S
C819 C823 1.332 . S
C819 C825 1.504 . S
C820 C821 1.373 . S
C820 C824 1.308 . S
C821 C820 1.373 . S
C821 C822 1.429 1_554 S
C821 H848 0.932 . S
C822 C819 1.358 . S
C822 C821 1.429 1_556 S
C822 H849 0.930 . S
C823 C819 1.332 . S
C823 C824 1.394 1_556 S
C823 H850 0.932 . S
C824 C820 1.308 . S
C824 C823 1.394 1_554 S
C824 H851 0.929 . S
C825 Tb816 2.764 . S
C825 C819 1.504 . S
C825 O837 1.239 . S
C825 O838 1.263 . S
O826 Tb816 2.325 . S
O826 C836 1.236 . S
O827 Tb817 2.322 . S
O827 C836 1.257 . S
O828 Tb817 2.349 . S
O828 C839 1.261 . S
O829 Tb816 2.303 . S
O829 C839 1.257 . S
O830 Tb817 2.415 . S
O830 C846 1.239 . S
O831 Tb817 2.399 . S
O831 C846 1.263 . S
O832 Tb817 2.325 . S
O832 C847 1.236 . S
O833 Tb816 2.322 . S
O833 C847 1.257 . S
O834 Tb816 2.349 . S
O834 C818 1.261 . S
O835 Tb817 2.303 . S
O835 C818 1.257 . S
C836 O826 1.236 . S
C836 O827 1.257 . S
O837 Tb816 2.415 . S
O837 C825 1.239 . S
O838 Tb816 2.399 . S
O838 C825 1.263 . S
C839 O828 1.261 . S
C839 O829 1.257 . S
C840 C843 1.358 . S
C840 C844 1.332 . S
C840 C846 1.504 . S
C841 C842 1.373 . S
C841 C845 1.308 . S
C842 C841 1.373 . S
C842 C843 1.429 . S
C842 H852 0.932 1_655 S
C843 C840 1.358 . S
C843 C842 1.429 . S
C843 H853 0.930 . S
C844 C840 1.332 . S
C844 C845 1.394 . S
C844 H854 0.932 . S
C845 C841 1.308 . S
C845 C844 1.394 . S
C845 H855 0.929 . S
C846 Tb817 2.764 . S
C846 O830 1.239 . S
C846 O831 1.263 . S
C846 C840 1.504 . S
C847 O832 1.236 . S
C847 O833 1.257 . S
H848 C821 0.932 . S
H849 C822 0.930 . S
H850 C823 0.932 . S
H851 C824 0.929 . S
H852 C842 0.932 1_455 S
H853 C843 0.930 . S
H854 C844 0.932 . S
H855 C845 0.929 . S
Tb856 C865 2.764 . S
Tb856 O866 2.325 . S
Tb856 O869 2.303 . S
Tb856 O873 2.322 . S
Tb856 O874 2.349 . S
Tb856 O877 2.415 . S
Tb856 O878 2.399 . S
Tb857 O867 2.322 . S
Tb857 O868 2.349 . S
Tb857 O870 2.415 . S
Tb857 O871 2.390 1_565 S
Tb857 O872 2.325 . S
Tb857 O875 2.303 . S
Tb857 C886 2.764 1_565 S
C858 O874 1.261 . S
C858 O875 1.257 . S
C859 C862 1.358 . S
C859 C863 1.332 . S
C859 C865 1.504 . S
C860 C861 1.373 . S
C860 C864 1.308 . S
C861 C860 1.373 . S
C861 C862 1.429 . S
C861 H888 0.932 . S
C862 C859 1.358 . S
C862 C861 1.429 . S
C862 H889 0.930 . S
C863 C859 1.332 . S
C863 C864 1.394 . S
C863 H890 0.932 . S
C864 C860 1.308 . S
C864 C863 1.394 . S
C864 H891 0.929 . S
C865 Tb856 2.764 . S
C865 C859 1.504 . S
C865 O877 1.239 . S
C865 O878 1.263 . S
O866 Tb856 2.325 . S
O866 C876 1.236 . S
O867 Tb857 2.322 . S
O867 C876 1.257 . S
O868 Tb857 2.349 . S
O868 C879 1.261 . S
O869 Tb856 2.303 . S
O869 C879 1.257 . S
O870 Tb857 2.415 . S
O870 C886 1.239 1_565 S
O871 Tb857 2.390 1_545 S
O871 C886 1.267 . S
O872 Tb857 2.325 . S
O872 C887 1.236 . S
O873 Tb856 2.322 . S
O873 C887 1.257 . S
O874 Tb856 2.349 . S
O874 C858 1.261 . S
O875 Tb857 2.303 . S
O875 C858 1.257 . S
C876 O866 1.236 . S
C876 O867 1.257 . S
O877 Tb856 2.415 . S
O877 C865 1.239 . S
O878 Tb856 2.399 . S
O878 C865 1.263 . S
C879 O868 1.261 . S
C879 O869 1.257 . S
C880 C883 1.358 . S
C880 C884 1.332 . S
C880 C886 1.504 . S
C881 C882 1.373 . S
C881 C885 1.308 . S
C882 C881 1.373 . S
C882 C883 1.429 . S
C882 H892 0.932 . S
C883 C880 1.358 . S
C883 C882 1.429 . S
C883 H893 0.930 . S
C884 C880 1.332 . S
C884 C885 1.394 . S
C884 H894 0.932 . S
C885 C881 1.308 . S
C885 C884 1.394 . S
C885 H895 0.929 . S
C886 Tb857 2.764 1_545 S
C886 O870 1.239 1_545 S
C886 O871 1.267 . S
C886 C880 1.504 . S
C887 O872 1.236 . S
C887 O873 1.257 . S
H888 C861 0.932 . S
H889 C862 0.930 . S
H890 C863 0.932 . S
H891 C864 0.929 . S
H892 C882 0.932 . S
H893 C883 0.930 . S
H894 C884 0.932 . S
H895 C885 0.929 . S
Tb896 C905 2.764 . S
Tb896 O906 2.325 . S
Tb896 O909 2.303 . S
Tb896 O913 2.322 . S
Tb896 O914 2.349 . S
Tb896 O917 2.415 . S
Tb896 O918 2.399 . S
Tb897 O907 2.322 . S
Tb897 O908 2.349 . S
Tb897 O910 2.415 . S
Tb897 O911 2.399 . S
Tb897 O912 2.325 . S
Tb897 O915 2.303 . S
Tb897 C926 2.764 . S
C898 O914 1.261 . S
C898 O915 1.257 . S
C899 C902 1.358 . S
C899 C903 1.332 . S
C899 C905 1.504 . S
C900 C901 1.373 . S
C900 C904 1.308 . S
C901 C900 1.373 . S
C901 C902 1.429 . S
C901 H928 0.932 . S
C902 C899 1.358 . S
C902 C901 1.429 . S
C902 H929 0.930 . S
C903 C899 1.332 . S
C903 C904 1.394 . S
C903 H930 0.932 . S
C904 C900 1.308 . S
C904 C903 1.394 . S
C904 H931 0.929 . S
C905 Tb896 2.764 . S
C905 C899 1.504 . S
C905 O917 1.239 . S
C905 O918 1.263 . S
O906 Tb896 2.325 . S
O906 C916 1.236 . S
O907 Tb897 2.322 . S
O907 C916 1.257 . S
O908 Tb897 2.349 . S
O908 C919 1.261 . S
O909 Tb896 2.303 . S
O909 C919 1.257 . S
O910 Tb897 2.415 . S
O910 C926 1.239 . S
O911 Tb897 2.399 . S
O911 C926 1.263 . S
O912 Tb897 2.325 . S
O912 C927 1.236 . S
O913 Tb896 2.322 . S
O913 C927 1.257 . S
O914 Tb896 2.349 . S
O914 C898 1.261 . S
O915 Tb897 2.303 . S
O915 C898 1.257 . S
C916 O906 1.236 . S
C916 O907 1.257 . S
O917 Tb896 2.415 . S
O917 C905 1.239 . S
O918 Tb896 2.399 . S
O918 C905 1.263 . S
C919 O908 1.261 . S
C919 O909 1.257 . S
C920 C923 1.358 . S
C920 C924 1.332 . S
C920 C926 1.504 . S
C921 C922 1.373 . S
C921 C925 1.308 . S
C922 C921 1.373 . S
C922 C923 1.429 . S
C922 H932 0.932 . S
C923 C920 1.358 . S
C923 C922 1.429 . S
C923 H933 0.930 . S
C924 C920 1.332 . S
C924 C925 1.394 . S
C924 H934 0.932 . S
C925 C921 1.308 . S
C925 C924 1.394 . S
C925 H935 0.929 . S
C926 Tb897 2.764 . S
C926 O910 1.239 . S
C926 O911 1.263 . S
C926 C920 1.504 . S
C927 O912 1.236 . S
C927 O913 1.257 . S
H928 C901 0.932 . S
H929 C902 0.930 . S
H930 C903 0.932 . S
H931 C904 0.929 . S
H932 C922 0.932 . S
H933 C923 0.930 . S
H934 C924 0.932 . S
H935 C925 0.929 . S
Tb936 C945 2.764 1_455 S
Tb936 O946 2.325 . S
Tb936 O949 2.303 . S
Tb936 O953 2.322 . S
Tb936 O954 2.349 . S
Tb936 O957 2.415 1_455 S
Tb936 O958 2.399 1_455 S
Tb937 O947 2.322 . S
Tb937 O948 2.349 1_554 S
Tb937 O950 2.415 . S
Tb937 O951 2.399 . S
Tb937 O952 2.325 . S
Tb937 O955 2.303 . S
Tb937 C966 2.764 . S
C938 O954 1.261 . S
C938 O955 1.257 . S
C939 C942 1.358 . S
C939 C943 1.332 . S
C939 C945 1.504 . S
C940 C941 1.373 . S
C940 C944 1.308 . S
C941 C940 1.373 . S
C941 C942 1.429 . S
C941 H968 0.932 . S
C942 C939 1.358 . S
C942 C941 1.429 . S
C942 H969 0.930 . S
C943 C939 1.332 . S
C943 C944 1.394 . S
C943 H970 0.932 . S
C944 C940 1.308 . S
C944 C943 1.394 . S
C944 H971 0.929 . S
C945 Tb936 2.764 1_655 S
C945 C939 1.504 . S
C945 O957 1.239 . S
C945 O958 1.263 . S
O946 Tb936 2.325 . S
O946 C956 1.236 . S
O947 Tb937 2.322 . S
O947 C956 1.257 . S
O948 Tb937 2.349 1_556 S
O948 C959 1.261 . S
O949 Tb936 2.303 . S
O949 C959 1.257 1_554 S
O950 Tb937 2.415 . S
O950 C966 1.239 . S
O951 Tb937 2.399 . S
O951 C966 1.263 . S
O952 Tb937 2.325 . S
O952 C967 1.236 . S
O953 Tb936 2.322 . S
O953 C967 1.257 . S
O954 Tb936 2.349 . S
O954 C938 1.261 . S
O955 Tb937 2.303 . S
O955 C938 1.257 . S
C956 O946 1.236 . S
C956 O947 1.257 . S
O957 Tb936 2.415 1_655 S
O957 C945 1.239 . S
O958 Tb936 2.399 1_655 S
O958 C945 1.263 . S
C959 O948 1.261 . S
C959 O949 1.257 1_556 S
C960 C963 1.358 1_554 S
C960 C964 1.332 . S
C960 C966 1.504 . S
C961 C962 1.373 1_554 S
C961 C965 1.308 . S
C962 C961 1.373 1_556 S
C962 C963 1.429 . S
C962 H972 0.932 . S
C963 C960 1.358 1_556 S
C963 C962 1.429 . S
C963 H973 0.930 . S
C964 C960 1.332 . S
C964 C965 1.394 . S
C964 H974 0.932 . S
C965 C961 1.308 . S
C965 C964 1.394 . S
C965 H975 0.929 . S
C966 Tb937 2.764 . S
C966 O950 1.239 . S
C966 O951 1.263 . S
C966 C960 1.504 . S
C967 O952 1.236 . S
C967 O953 1.257 . S
H968 C941 0.932 . S
H969 C942 0.930 . S
H970 C943 0.932 . S
H971 C944 0.929 . S
H972 C962 0.932 . S
H973 C963 0.930 . S
H974 C964 0.932 . S
H975 C965 0.929 . S
C111 C367 4.275 1_655 S
C64 C378 3.174 . S
C77 C447 2.396 . S
C460 C95 1.166 . S
C25 C516 3.294 1_565 S
C567 C36 3.734 . S
C596 C50 3.202 . S
C11 C647 3.861 . S
C338 C237 3.005 1_445 S
C245 C380 2.483 . S
C418 C279 1.255 . S
C487 C175 3.193 1_556 S
C231 C521 0.167 . S
C538 C251 1.713 . S
C601 C273 0.876 . S
C618 C181 3.345 . S
C340 C165 5.725 1_554 S
C288 C679 2.240 . S
C700 C333 4.640 . S
C759 C316 0.506 . S
C123 C620 2.825 . S
C137 C420 2.448 . S
C330 C778 3.039 . S
C847 C302 1.463 . S
C356 C63 4.291 1_545 S
C839 C106 3.303 . S
C97 C436 2.436 . S
C81 C801 1.159 . S
C527 C13 3.449 . S
C55 C716 3.312 . S
C607 C35 3.120 1_544 S
C876 C21 4.139 1_655 S
C359 C147 3.243 . S
C841 C321 2.406 . S
C119 C439 1.188 . S
C293 C796 3.445 . S
C153 C500 0.344 . S
C719 C315 1.658 . S
C125 C580 1.639 . S
C287 C879 3.482 1_554 S
C193 C361 5.356 1_554 S
C176 C658 2.264 . S
C263 C561 4.258 . S
C246 C738 0.948 . S
C881 C277 2.526 . S
C221 C441 2.039 . S
C479 C260 3.333 . S
C396 C204 1.668 . S
C83 C927 4.256 . S
C818 C92 3.182 . S
C105 C967 2.401 . S
C67 C780 1.160 . S
C53 C676 3.281 . S
C727 C8 3.760 1_655 S
C756 C22 3.158 . S
C887 C39 3.854 . S
C898 C265 3.136 . S
C189 C820 2.495 . S
C938 C209 1.254 . S
C807 C217 3.194 . S
C681 C259 0.243 . S
C195 C698 1.780 . S
C761 C203 0.903 . S
C223 C858 3.347 . S
C900 C319 5.590 . S
C134 C519 2.217 . S
C540 C151 4.585 . S
C599 C162 0.663 . S
C860 C305 2.880 . S
C291 C940 2.464 . S
C458 C148 3.028 . S
C407 C120 1.449 . S
C91 C916 4.289 . S
C399 C78 3.288 . S
C69 C956 2.432 . S
C109 C481 1.079 . S
C41 C687 3.452 1_556 S
C556 C27 3.308 . S
C7 C767 3.123 . S
C49 C636 4.141 . S
C919 C329 3.221 . S
C167 C401 2.577 1_565 S
C959 C301 1.154 . S
C139 C476 3.481 . S
C335 C660 0.376 . S
C559 C161 1.481 . S
C307 C740 1.681 1_455 S
C639 C133 3.490 . S
C921 C249 5.411 . S
C498 C218 2.294 1_545 S
C235 C721 4.309 . S
C578 C190 0.981 . S
C207 C641 2.540 . S
C179 C961 2.037 . S
C799 C232 3.284 . S
C836 C274 1.659 . S
