# Generated by pormake.
# Topology gar, (4,6)-cn, num edge types: 1
# Building blocks:
#     Node 0, Type 0, BuildingBlock: CEKHIL_clean_sbu_0, # of connection points: 4
#     Node 1, Type 0, BuildingBlock: CEKHIL_clean_sbu_0, # of connection points: 4
#     Node 2, Type 0, BuildingBlock: CEKHIL_clean_sbu_0, # of connection points: 4
#     Node 3, Type 0, BuildingBlock: CEKHIL_clean_sbu_0, # of connection points: 4
#     Node 4, Type 0, BuildingBlock: CEKHIL_clean_sbu_0, # of connection points: 4
#     Node 5, Type 0, BuildingBlock: CEKHIL_clean_sbu_0, # of connection points: 4
#     Node 6, Type 0, BuildingBlock: CEKHIL_clean_sbu_0, # of connection points: 4
#     Node 7, Type 0, BuildingBlock: CEKHIL_clean_sbu_0, # of connection points: 4
#     Node 8, Type 0, BuildingBlock: CEKHIL_clean_sbu_0, # of connection points: 4
#     Node 9, Type 0, BuildingBlock: CEKHIL_clean_sbu_0, # of connection points: 4
#     Node 10, Type 0, BuildingBlock: CEKHIL_clean_sbu_0, # of connection points: 4
#     Node 11, Type 0, BuildingBlock: CEKHIL_clean_sbu_0, # of connection points: 4
#     Node 12, Type 0, BuildingBlock: CEKHIL_clean_sbu_0, # of connection points: 4
#     Node 13, Type 0, BuildingBlock: CEKHIL_clean_sbu_0, # of connection points: 4
#     Node 14, Type 0, BuildingBlock: CEKHIL_clean_sbu_0, # of connection points: 4
#     Node 15, Type 0, BuildingBlock: CEKHIL_clean_sbu_0, # of connection points: 4
#     Node 16, Type 0, BuildingBlock: CEKHIL_clean_sbu_0, # of connection points: 4
#     Node 17, Type 0, BuildingBlock: CEKHIL_clean_sbu_0, # of connection points: 4
#     Node 18, Type 0, BuildingBlock: CEKHIL_clean_sbu_0, # of connection points: 4
#     Node 19, Type 0, BuildingBlock: CEKHIL_clean_sbu_0, # of connection points: 4
#     Node 20, Type 0, BuildingBlock: CEKHIL_clean_sbu_0, # of connection points: 4
#     Node 21, Type 0, BuildingBlock: CEKHIL_clean_sbu_0, # of connection points: 4
#     Node 22, Type 0, BuildingBlock: CEKHIL_clean_sbu_0, # of connection points: 4
#     Node 23, Type 0, BuildingBlock: CEKHIL_clean_sbu_0, # of connection points: 4
#     Node 24, Type 1, BuildingBlock: INOVEN_clean_sbu_0, # of connection points: 6
#     Node 25, Type 1, BuildingBlock: INOVEN_clean_sbu_0, # of connection points: 6
#     Node 26, Type 1, BuildingBlock: INOVEN_clean_sbu_0, # of connection points: 6
#     Node 27, Type 1, BuildingBlock: INOVEN_clean_sbu_0, # of connection points: 6
#     Node 28, Type 1, BuildingBlock: INOVEN_clean_sbu_0, # of connection points: 6
#     Node 29, Type 1, BuildingBlock: INOVEN_clean_sbu_0, # of connection points: 6
#     Node 30, Type 1, BuildingBlock: INOVEN_clean_sbu_0, # of connection points: 6
#     Node 31, Type 1, BuildingBlock: INOVEN_clean_sbu_0, # of connection points: 6
#     Node 32, Type 1, BuildingBlock: INOVEN_clean_sbu_0, # of connection points: 6
#     Node 33, Type 1, BuildingBlock: INOVEN_clean_sbu_0, # of connection points: 6
#     Node 34, Type 1, BuildingBlock: INOVEN_clean_sbu_0, # of connection points: 6
#     Node 35, Type 1, BuildingBlock: INOVEN_clean_sbu_0, # of connection points: 6
#     Node 36, Type 1, BuildingBlock: INOVEN_clean_sbu_0, # of connection points: 6
#     Node 37, Type 1, BuildingBlock: INOVEN_clean_sbu_0, # of connection points: 6
#     Node 38, Type 1, BuildingBlock: INOVEN_clean_sbu_0, # of connection points: 6
#     Node 39, Type 1, BuildingBlock: INOVEN_clean_sbu_0, # of connection points: 6
#     Edge 40, Type (0, 1), BuildingBlock: AJUNOK_clean_linker_0, # of connection points: 2
#     Edge 41, Type (0, 1), BuildingBlock: AJUNOK_clean_linker_0, # of connection points: 2
#     Edge 42, Type (0, 1), BuildingBlock: AJUNOK_clean_linker_0, # of connection points: 2
#     Edge 43, Type (0, 1), BuildingBlock: AJUNOK_clean_linker_0, # of connection points: 2
#     Edge 44, Type (0, 1), BuildingBlock: AJUNOK_clean_linker_0, # of connection points: 2
#     Edge 45, Type (0, 1), BuildingBlock: AJUNOK_clean_linker_0, # of connection points: 2
#     Edge 46, Type (0, 1), BuildingBlock: AJUNOK_clean_linker_0, # of connection points: 2
#     Edge 47, Type (0, 1), BuildingBlock: AJUNOK_clean_linker_0, # of connection points: 2
#     Edge 48, Type (0, 1), BuildingBlock: AJUNOK_clean_linker_0, # of connection points: 2
#     Edge 49, Type (0, 1), BuildingBlock: AJUNOK_clean_linker_0, # of connection points: 2
#     Edge 50, Type (0, 1), BuildingBlock: AJUNOK_clean_linker_0, # of connection points: 2
#     Edge 51, Type (0, 1), BuildingBlock: AJUNOK_clean_linker_0, # of connection points: 2
#     Edge 52, Type (0, 1), BuildingBlock: AJUNOK_clean_linker_0, # of connection points: 2
#     Edge 53, Type (0, 1), BuildingBlock: AJUNOK_clean_linker_0, # of connection points: 2
#     Edge 54, Type (0, 1), BuildingBlock: AJUNOK_clean_linker_0, # of connection points: 2
#     Edge 55, Type (0, 1), BuildingBlock: AJUNOK_clean_linker_0, # of connection points: 2
#     Edge 56, Type (0, 1), BuildingBlock: AJUNOK_clean_linker_0, # of connection points: 2
#     Edge 57, Type (0, 1), BuildingBlock: AJUNOK_clean_linker_0, # of connection points: 2
#     Edge 58, Type (0, 1), BuildingBlock: AJUNOK_clean_linker_0, # of connection points: 2
#     Edge 59, Type (0, 1), BuildingBlock: AJUNOK_clean_linker_0, # of connection points: 2
#     Edge 60, Type (0, 1), BuildingBlock: AJUNOK_clean_linker_0, # of connection points: 2
#     Edge 61, Type (0, 1), BuildingBlock: AJUNOK_clean_linker_0, # of connection points: 2
#     Edge 62, Type (0, 1), BuildingBlock: AJUNOK_clean_linker_0, # of connection points: 2
#     Edge 63, Type (0, 1), BuildingBlock: AJUNOK_clean_linker_0, # of connection points: 2
#     Edge 64, Type (0, 1), BuildingBlock: AJUNOK_clean_linker_0, # of connection points: 2
#     Edge 65, Type (0, 1), BuildingBlock: AJUNOK_clean_linker_0, # of connection points: 2
#     Edge 66, Type (0, 1), BuildingBlock: AJUNOK_clean_linker_0, # of connection points: 2
#     Edge 67, Type (0, 1), BuildingBlock: AJUNOK_clean_linker_0, # of connection points: 2
#     Edge 68, Type (0, 1), BuildingBlock: AJUNOK_clean_linker_0, # of connection points: 2
#     Edge 69, Type (0, 1), BuildingBlock: AJUNOK_clean_linker_0, # of connection points: 2
#     Edge 70, Type (0, 1), BuildingBlock: AJUNOK_clean_linker_0, # of connection points: 2
#     Edge 71, Type (0, 1), BuildingBlock: AJUNOK_clean_linker_0, # of connection points: 2
#     Edge 72, Type (0, 1), BuildingBlock: AJUNOK_clean_linker_0, # of connection points: 2
#     Edge 73, Type (0, 1), BuildingBlock: AJUNOK_clean_linker_0, # of connection points: 2
#     Edge 74, Type (0, 1), BuildingBlock: AJUNOK_clean_linker_0, # of connection points: 2
#     Edge 75, Type (0, 1), BuildingBlock: AJUNOK_clean_linker_0, # of connection points: 2
#     Edge 76, Type (0, 1), BuildingBlock: AJUNOK_clean_linker_0, # of connection points: 2
#     Edge 77, Type (0, 1), BuildingBlock: AJUNOK_clean_linker_0, # of connection points: 2
#     Edge 78, Type (0, 1), BuildingBlock: AJUNOK_clean_linker_0, # of connection points: 2
#     Edge 79, Type (0, 1), BuildingBlock: AJUNOK_clean_linker_0, # of connection points: 2
#     Edge 80, Type (0, 1), BuildingBlock: AJUNOK_clean_linker_0, # of connection points: 2
#     Edge 81, Type (0, 1), BuildingBlock: AJUNOK_clean_linker_0, # of connection points: 2
#     Edge 82, Type (0, 1), BuildingBlock: AJUNOK_clean_linker_0, # of connection points: 2
#     Edge 83, Type (0, 1), BuildingBlock: AJUNOK_clean_linker_0, # of connection points: 2
#     Edge 84, Type (0, 1), BuildingBlock: AJUNOK_clean_linker_0, # of connection points: 2
#     Edge 85, Type (0, 1), BuildingBlock: AJUNOK_clean_linker_0, # of connection points: 2
#     Edge 86, Type (0, 1), BuildingBlock: AJUNOK_clean_linker_0, # of connection points: 2
#     Edge 87, Type (0, 1), BuildingBlock: AJUNOK_clean_linker_0, # of connection points: 2
#     Edge 88, Type (0, 1), BuildingBlock: AJUNOK_clean_linker_0, # of connection points: 2
#     Edge 89, Type (0, 1), BuildingBlock: AJUNOK_clean_linker_0, # of connection points: 2
#     Edge 90, Type (0, 1), BuildingBlock: AJUNOK_clean_linker_0, # of connection points: 2
#     Edge 91, Type (0, 1), BuildingBlock: AJUNOK_clean_linker_0, # of connection points: 2
#     Edge 92, Type (0, 1), BuildingBlock: AJUNOK_clean_linker_0, # of connection points: 2
#     Edge 93, Type (0, 1), BuildingBlock: AJUNOK_clean_linker_0, # of connection points: 2
#     Edge 94, Type (0, 1), BuildingBlock: AJUNOK_clean_linker_0, # of connection points: 2
#     Edge 95, Type (0, 1), BuildingBlock: AJUNOK_clean_linker_0, # of connection points: 2
#     Edge 96, Type (0, 1), BuildingBlock: AJUNOK_clean_linker_0, # of connection points: 2
#     Edge 97, Type (0, 1), BuildingBlock: AJUNOK_clean_linker_0, # of connection points: 2
#     Edge 98, Type (0, 1), BuildingBlock: AJUNOK_clean_linker_0, # of connection points: 2
#     Edge 99, Type (0, 1), BuildingBlock: AJUNOK_clean_linker_0, # of connection points: 2
#     Edge 100, Type (0, 1), BuildingBlock: AJUNOK_clean_linker_0, # of connection points: 2
#     Edge 101, Type (0, 1), BuildingBlock: AJUNOK_clean_linker_0, # of connection points: 2
#     Edge 102, Type (0, 1), BuildingBlock: AJUNOK_clean_linker_0, # of connection points: 2
#     Edge 103, Type (0, 1), BuildingBlock: AJUNOK_clean_linker_0, # of connection points: 2
#     Edge 104, Type (0, 1), BuildingBlock: AJUNOK_clean_linker_0, # of connection points: 2
#     Edge 105, Type (0, 1), BuildingBlock: AJUNOK_clean_linker_0, # of connection points: 2
#     Edge 106, Type (0, 1), BuildingBlock: AJUNOK_clean_linker_0, # of connection points: 2
#     Edge 107, Type (0, 1), BuildingBlock: AJUNOK_clean_linker_0, # of connection points: 2
#     Edge 108, Type (0, 1), BuildingBlock: AJUNOK_clean_linker_0, # of connection points: 2
#     Edge 109, Type (0, 1), BuildingBlock: AJUNOK_clean_linker_0, # of connection points: 2
#     Edge 110, Type (0, 1), BuildingBlock: AJUNOK_clean_linker_0, # of connection points: 2
#     Edge 111, Type (0, 1), BuildingBlock: AJUNOK_clean_linker_0, # of connection points: 2
#     Edge 112, Type (0, 1), BuildingBlock: AJUNOK_clean_linker_0, # of connection points: 2
#     Edge 113, Type (0, 1), BuildingBlock: AJUNOK_clean_linker_0, # of connection points: 2
#     Edge 114, Type (0, 1), BuildingBlock: AJUNOK_clean_linker_0, # of connection points: 2
#     Edge 115, Type (0, 1), BuildingBlock: AJUNOK_clean_linker_0, # of connection points: 2
#     Edge 116, Type (0, 1), BuildingBlock: AJUNOK_clean_linker_0, # of connection points: 2
#     Edge 117, Type (0, 1), BuildingBlock: AJUNOK_clean_linker_0, # of connection points: 2
#     Edge 118, Type (0, 1), BuildingBlock: AJUNOK_clean_linker_0, # of connection points: 2
#     Edge 119, Type (0, 1), BuildingBlock: AJUNOK_clean_linker_0, # of connection points: 2
#     Edge 120, Type (0, 1), BuildingBlock: AJUNOK_clean_linker_0, # of connection points: 2
#     Edge 121, Type (0, 1), BuildingBlock: AJUNOK_clean_linker_0, # of connection points: 2
#     Edge 122, Type (0, 1), BuildingBlock: AJUNOK_clean_linker_0, # of connection points: 2
#     Edge 123, Type (0, 1), BuildingBlock: AJUNOK_clean_linker_0, # of connection points: 2
#     Edge 124, Type (0, 1), BuildingBlock: AJUNOK_clean_linker_0, # of connection points: 2
#     Edge 125, Type (0, 1), BuildingBlock: AJUNOK_clean_linker_0, # of connection points: 2
#     Edge 126, Type (0, 1), BuildingBlock: AJUNOK_clean_linker_0, # of connection points: 2
#     Edge 127, Type (0, 1), BuildingBlock: AJUNOK_clean_linker_0, # of connection points: 2
#     Edge 128, Type (0, 1), BuildingBlock: AJUNOK_clean_linker_0, # of connection points: 2
#     Edge 129, Type (0, 1), BuildingBlock: AJUNOK_clean_linker_0, # of connection points: 2
#     Edge 130, Type (0, 1), BuildingBlock: AJUNOK_clean_linker_0, # of connection points: 2
#     Edge 131, Type (0, 1), BuildingBlock: AJUNOK_clean_linker_0, # of connection points: 2
#     Edge 132, Type (0, 1), BuildingBlock: AJUNOK_clean_linker_0, # of connection points: 2
#     Edge 133, Type (0, 1), BuildingBlock: AJUNOK_clean_linker_0, # of connection points: 2
#     Edge 134, Type (0, 1), BuildingBlock: AJUNOK_clean_linker_0, # of connection points: 2
#     Edge 135, Type (0, 1), BuildingBlock: AJUNOK_clean_linker_0, # of connection points: 2
# Relax obj value: 0.230
# Max RMSD: 0.339
# Mean RMSD: 0.169
data_MOF--net-gar--node1-CEKHIL_clean_sbu_0--node2-INOVEN_clean_sbu_0--edge1-AJUNOK_clean_linker_0
_symmetry_space_group_name_H-M    P1
_symmetry_Int_Tables_number       1
_symmetry_cell_setting            triclinic
loop_
_symmetry_equiv_pos_as_xyz
'x, y, z'
_cell_length_a     48.388957
_cell_length_b     42.078053
_cell_length_c     41.735469
_cell_angle_alpha  99.498417
_cell_angle_beta   95.569386
_cell_angle_gamma 102.03828
loop_
_atom_site_label
_atom_site_type_symbol
_atom_site_fract_x
_atom_site_fract_y
_atom_site_fract_z
_atom_type_partial_charge
Co0 Co 0.16638 0.38721 0.3999 0.0
O1 O 0.20754 0.39244 0.40483 0.0
O2 O 0.17781 0.37222 0.35853 0.0
C3 C 0.16209 0.43601 0.42978 0.0
O4 O 0.12471 0.37832 0.38352 0.0
Co5 Co 0.13128 0.38359 0.45917 0.0
O6 O 0.09785 0.37612 0.42465 0.0
C7 C 0.16231 0.33689 0.43987 0.0
C8 C 0.20357 0.37907 0.37374 0.0
C9 C 0.10069 0.37447 0.3944 0.0
O10 O 0.16075 0.3413 0.41015 0.0
O11 O 0.16363 0.36121 0.46287 0.0
O12 O 0.16922 0.4351 0.40031 0.0
O13 O 0.16217 0.40942 0.44114 0.0
Co14 Co 1.01827 0.77071 0.67111 0.0
O15 O 0.9777 0.76875 0.66521 0.0
O16 O 1.00341 0.76693 0.71163 0.0
C17 C 0.03278 0.81383 0.64605 0.0
O18 O 0.05903 0.77368 0.68838 0.0
Co19 Co 0.0541 0.7607 0.61232 0.0
O20 O 0.08692 0.77244 0.64815 0.0
C21 C 1.01266 0.70772 0.62623 0.0
C22 C 0.97916 0.76843 0.69649 0.0
C23 C 0.08326 0.77527 0.67827 0.0
O24 O 1.01295 0.72126 0.65631 0.0
O25 O 1.01773 0.72547 0.6046 0.0
O26 O 0.02668 0.81918 0.67587 0.0
O27 O 0.02698 0.78327 0.63174 0.0
Co28 Co 0.66744 0.89168 0.9027 0.0
O29 O 0.70741 0.88964 0.90561 0.0
O30 O 0.67582 0.87205 0.86071 0.0
C31 C 0.67354 0.94412 0.93124 0.0
O32 O 0.62626 0.88915 0.88776 0.0
Co33 Co 0.63303 0.90913 0.96102 0.0
O34 O 0.60266 0.91029 0.92639 0.0
C35 C 0.64485 0.84167 0.94246 0.0
C36 C 0.70177 0.87617 0.87457 0.0
C37 C 0.60392 0.8975 0.89687 0.0
O38 O 0.65635 0.84732 0.91664 0.0
O39 O 0.63631 0.86329 0.96187 0.0
O40 O 0.67674 0.93952 0.90027 0.0
O41 O 0.66847 0.91797 0.94343 0.0
Co42 Co 0.52122 0.27019 0.17021 0.0
O43 O 0.48087 0.26939 0.16532 0.0
O44 O 0.50647 0.26552 0.2109 0.0
C45 C 0.53614 0.31409 0.14651 0.0
O46 O 0.56205 0.27148 0.18578 0.0
Co47 Co 0.55492 0.25969 0.10891 0.0
O48 O 0.58638 0.25982 0.14356 0.0
C49 C 0.51289 0.20947 0.123 0.0
C50 C 0.48228 0.268 0.19636 0.0
C51 C 0.58462 0.26636 0.1742 0.0
O52 O 0.51472 0.22081 0.15385 0.0
O53 O 0.51597 0.22971 0.10345 0.0
O54 O 0.5305 0.31877 0.17654 0.0
O55 O 0.52981 0.28389 0.13106 0.0
Co56 Co 0.13182 0.84601 0.13301 0.0
O57 O 0.09028 0.83842 0.12115 0.0
O58 O 0.11102 0.83383 0.16869 0.0
C59 C 0.13771 0.89606 0.11177 0.0
O60 O 0.1733 0.84996 0.15929 0.0
Co61 Co 0.17442 0.84951 0.09167 0.0
O62 O 0.20667 0.85275 0.12652 0.0
C63 C 0.13844 0.7837 0.08813 0.0
C64 C 0.08748 0.83191 0.15008 0.0
C65 C 0.19984 0.85089 0.15483 0.0
O66 O 0.12886 0.79709 0.11358 0.0
O67 O 0.15606 0.80141 0.07366 0.0
O68 O 0.13432 0.89469 0.14206 0.0
O69 O 0.14017 0.86794 0.09513 0.0
Co70 Co 0.55176 0.80764 0.43494 0.0
O71 O 0.59308 0.81964 0.4477 0.0
O72 O 0.57193 0.7986 0.39737 0.0
C73 C 0.54647 0.85792 0.46173 0.0
O74 O 0.50951 0.7962 0.4092 0.0
Co75 Co 0.51071 0.79788 0.4797 0.0
O76 O 0.48113 0.80526 0.44668 0.0
C77 C 0.54533 0.74871 0.47243 0.0
C78 C 0.5956 0.81087 0.41713 0.0
C79 C 0.485 0.80134 0.41674 0.0
O80 O 0.55228 0.76129 0.44707 0.0
O81 O 0.52885 0.76091 0.4906 0.0
O82 O 0.55232 0.85312 0.43198 0.0
O83 O 0.54417 0.83217 0.47575 0.0
Co84 Co 0.63332 0.34898 0.63475 0.0
O85 O 0.5917 0.34083 0.62392 0.0
O86 O 0.61362 0.33784 0.67144 0.0
C87 C 0.63938 0.39788 0.61216 0.0
O88 O 0.67522 0.35442 0.6598 0.0
Co89 Co 0.67364 0.3485 0.59034 0.0
O90 O 0.70497 0.34595 0.62385 0.0
C91 C 0.63756 0.28474 0.59119 0.0
C92 C 0.58962 0.33487 0.6532 0.0
C93 C 0.70003 0.34942 0.65336 0.0
O94 O 0.63023 0.29981 0.61733 0.0
O95 O 0.65375 0.30078 0.57409 0.0
O96 O 0.63605 0.39743 0.64261 0.0
O97 O 0.6408 0.36922 0.59576 0.0
Co98 Co 0.05135 0.30619 0.93481 0.0
O99 O 0.09275 0.31728 0.94769 0.0
O100 O 0.07144 0.2969 0.89732 0.0
C101 C 0.04614 0.35601 0.96202 0.0
O102 O 1.00939 0.2958 0.90861 0.0
Co103 Co 1.008 0.29819 0.9785 0.0
O104 O 0.97982 0.30686 0.94441 0.0
C105 C 0.04284 0.24806 0.97299 0.0
C106 C 0.09519 0.3089 0.91698 0.0
C107 C 0.98501 0.30238 0.91493 0.0
O108 O 0.05053 0.25955 0.94723 0.0
O109 O 0.02649 0.26172 0.99029 0.0
O110 O 0.0529 0.35231 0.9326 0.0
O111 O 0.04327 0.32981 0.97523 0.0
Co112 Co 0.4691 0.06102 0.332 0.0
O113 O 0.46865 0.0971 0.30937 0.0
O114 O 0.4309 0.06538 0.32387 0.0
C115 C 0.50616 0.08337 0.37087 0.0
O116 O 0.46148 1.0237 0.35657 0.0
Co117 Co 0.51739 1.02389 0.3351 0.0
O118 O 0.48635 0.98699 0.33966 0.0
C119 C 0.48445 1.02248 0.27387 0.0
C120 C 0.44111 0.08923 0.30913 0.0
C121 C 0.46344 0.99393 0.34799 0.0
O122 O 0.46399 0.02991 0.2886 0.0
O123 O 0.50981 0.02781 0.28853 0.0
O124 O 0.48162 0.09086 0.37413 0.0
O125 O 0.50827 0.0672 0.3426 0.0
Co126 Co 0.31317 0.21919 0.50556 0.0
O127 O 0.35498 0.23253 0.51276 0.0
O128 O 0.32983 0.18444 0.51866 0.0
C129 C 0.31024 0.23958 0.45579 0.0
O130 O 0.27053 0.19194 0.50082 0.0
Co131 Co 0.27345 0.2617 0.50474 0.0
O132 O 0.23971 0.22448 0.50173 0.0
C133 C 0.30371 0.2623 0.56911 0.0
C134 C 0.35475 0.20397 0.52087 0.0
C135 C 0.24463 0.19596 0.50105 0.0
O136 O 0.31289 0.23787 0.55438 0.0
O137 O 0.28876 0.27744 0.55279 0.0
O138 O 0.31392 0.21009 0.45731 0.0
O139 O 0.30765 0.25618 0.48419 0.0
Co140 Co 0.2148 0.0436 0.79861 0.0
O141 O 0.21224 0.99181 0.79423 0.0
O142 O 0.24971 1.02293 0.7876 0.0
C143 C 0.1907 0.05145 0.85158 0.0
O144 O 0.23733 0.09565 0.80115 0.0
Co145 Co 0.17819 0.09115 0.80388 0.0
O146 O 0.20987 0.13166 0.80959 0.0
C147 C 0.17745 0.05754 0.73501 0.0
C148 C 0.23852 0.99242 0.78877 0.0
C149 C 0.23426 0.12662 0.80488 0.0
O150 O 0.1966 0.04196 0.74701 0.0
O151 O 0.16712 0.07682 0.75507 0.0
O152 O 0.21678 0.04779 0.85017 0.0
O153 O 0.17998 0.05095 0.82175 0.0
Co154 Co 0.36009 0.97775 1.0037 0.0
O155 O 0.32064 0.97354 1.00759 0.0
O156 O 0.354 1.02055 0.02205 0.0
C157 C 0.35554 0.94716 0.95418 0.0
O158 O 0.40229 0.98936 1.00201 0.0
Co159 Co 0.38128 0.9103 0.9965 0.0
O160 O 0.41753 0.94152 0.99464 0.0
C161 C 0.36254 0.93957 0.05471 0.0
C162 C 0.32746 1.00489 0.02001 0.0
C163 C 0.42159 0.97284 0.99742 0.0
O164 O 0.36786 0.96857 0.04818 0.0
O165 O 0.35703 0.9136 0.03242 0.0
O166 O 0.35302 0.97769 0.95657 0.0
O167 O 0.35624 0.93582 0.98071 0.0
Co168 Co 0.36917 0.42236 0.04825 0.0
O169 O 0.32803 0.40728 0.03708 0.0
O170 O 0.35012 0.45817 0.0608 0.0
C171 C 0.37661 0.39899 0.9963 0.0
O172 O 0.41133 0.45057 0.05926 0.0
Co173 Co 0.40855 0.37936 0.05184 0.0
O174 O 0.44027 0.41655 0.04836 0.0
C175 C 0.37391 0.3836 0.10575 0.0
C176 C 0.32638 0.43748 0.04743 0.0
C177 C 0.43635 0.44573 0.05436 0.0
O178 O 0.36651 0.40797 0.09415 0.0
O179 O 0.38992 0.36725 0.09083 0.0
O180 O 0.37153 0.42817 1.00319 0.0
O181 O 0.37673 0.38354 0.02094 0.0
Co182 Co 0.82731 0.17271 0.04689 0.0
O183 O 0.86802 0.17942 0.05015 0.0
O184 O 0.83841 0.13234 0.0528 0.0
C185 C 0.82305 0.19599 1.00281 0.0
O186 O 0.78473 0.15673 0.04377 0.0
Co187 Co 0.79537 0.23104 0.0442 0.0
O188 O 0.76226 0.1943 0.02738 0.0
C189 C 0.81407 0.21145 0.10751 0.0
C190 C 0.86413 0.14803 0.0504 0.0
C191 C 0.7622 0.16613 0.03463 0.0
O192 O 0.8277 0.18992 0.09515 0.0
O193 O 0.80168 0.22865 0.09089 0.0
O194 O 0.8247 0.1652 0.99885 0.0
O195 O 0.82592 0.21134 0.03242 0.0
Co196 Co 0.21565 0.58608 0.25426 0.0
O197 O 0.21313 0.54535 0.26927 0.0
O198 O 0.24663 0.56784 0.24145 0.0
C199 C 0.2095 0.61449 0.3018 0.0
O200 O 0.22492 0.62736 0.23602 0.0
Co201 Co 0.16714 0.62478 0.25313 0.0
O202 O 0.20079 0.66214 0.25975 0.0
C203 C 0.17213 0.57412 0.19636 0.0
C204 C 0.23723 0.5452 0.25808 0.0
C205 C 0.22322 0.65639 0.24885 0.0
O206 O 0.19182 0.56426 0.21187 0.0
O207 O 0.1602 0.59693 0.20845 0.0
O208 O 0.23437 0.60935 0.29714 0.0
O209 O 0.1885 0.60075 0.27855 0.0
Co210 Co 0.86927 0.92153 0.54841 0.0
O211 O 0.82766 0.90908 0.5387 0.0
O212 O 0.85257 0.95921 0.56072 0.0
C213 C 0.87547 0.89649 0.49666 0.0
O214 O 0.9122 0.94766 0.55836 0.0
Co215 Co 0.90747 0.87683 0.55113 0.0
O216 O 0.93865 0.9123 0.54245 0.0
C217 C 0.87335 0.88265 0.6059 0.0
C218 C 0.82785 0.94004 0.54844 0.0
C219 C 0.93608 0.94198 0.54972 0.0
O220 O 0.86654 0.90753 0.5946 0.0
O221 O 0.88901 0.86593 0.59069 0.0
O222 O 0.87141 0.9262 0.50274 0.0
O223 O 0.875 0.8816 0.52165 0.0
Co224 Co 0.97014 0.09869 0.2818 0.0
O225 O 0.97374 0.15067 0.28916 0.0
O226 O 0.9344 0.11825 0.27136 0.0
C227 C 0.99623 0.0941 0.33525 0.0
O228 O 0.94794 0.04604 0.27467 0.0
Co229 Co 1.01055 0.05319 0.27878 0.0
O230 O 0.97911 1.0147 0.28188 0.0
C231 C 1.00857 0.08512 0.22063 0.0
C232 C 0.94669 0.14939 0.28069 0.0
C233 C 0.95318 1.01685 0.27768 0.0
O234 O 0.98637 0.09608 0.23239 0.0
O235 O 1.02194 0.06916 0.23787 0.0
O236 O 0.97073 0.09983 0.33186 0.0
O237 O 1.00578 0.09324 0.30729 0.0
Co238 Co 0.32447 0.6688 0.54507 0.0
O239 O 0.36331 0.6785 0.53596 0.0
O240 O 0.34115 0.63184 0.54962 0.0
C241 C 0.30593 0.68727 0.5021 0.0
O242 O 0.28477 0.64875 0.55412 0.0
Co243 Co 0.28847 0.72062 0.55911 0.0
O244 O 0.25811 0.6824 0.53856 0.0
C245 C 0.32438 0.70673 0.61272 0.0
C246 C 0.36387 0.649 0.54106 0.0
C247 C 0.26077 0.65445 0.54401 0.0
O248 O 0.33663 0.6892 0.59292 0.0
O249 O 0.30319 0.71837 0.60398 0.0
O250 O 0.31106 0.6578 0.49797 0.0
O251 O 0.31414 0.70519 0.53096 0.0
Co252 Co 0.47029 0.59906 0.78309 0.0
O253 O 0.47318 0.65122 0.79122 0.0
O254 O 0.4343 0.6185 0.77293 0.0
C255 C 0.49663 0.59341 0.83622 0.0
O256 O 0.44806 0.54644 0.77546 0.0
Co257 Co 0.51023 0.5533 0.77817 0.0
O258 O 0.47896 0.51461 0.78188 0.0
C259 C 0.50789 0.58593 0.72065 0.0
C260 C 0.44608 0.64974 0.7827 0.0
C261 C 0.45309 0.51711 0.77828 0.0
O262 O 0.48614 0.59708 0.73344 0.0
O263 O 0.52145 0.56944 0.73703 0.0
O264 O 0.47119 0.59939 0.8331 0.0
O265 O 0.50614 0.59306 0.80821 0.0
Co266 Co 0.7146 0.08672 0.75181 0.0
O267 O 0.71697 0.04692 0.76653 0.0
O268 O 0.74909 0.07532 0.74063 0.0
C269 C 0.70291 0.10918 0.7987 0.0
O270 O 0.7186 0.12794 0.73347 0.0
Co271 Co 0.66294 0.1199 0.75005 0.0
O272 O 0.69435 0.16054 0.75933 0.0
C273 C 0.67463 0.07291 0.69271 0.0
C274 C 0.74172 0.05129 0.75631 0.0
C275 C 0.71697 0.15633 0.74778 0.0
O276 O 0.69409 0.06329 0.70873 0.0
O277 O 0.66056 0.09353 0.70505 0.0
O278 O 0.72952 0.11096 0.79548 0.0
O279 O 0.68391 0.09436 0.77382 0.0
Co280 Co 0.81246 0.71821 1.00718 0.0
O281 O 0.85409 0.73149 1.01368 0.0
O282 O 0.82937 0.68283 0.01861 0.0
C283 C 0.80928 0.73935 0.95814 0.0
O284 O 0.76973 0.69144 1.00174 0.0
Co285 Co 0.7751 0.76256 1.01033 0.0
O286 O 0.74127 0.72622 1.01059 0.0
C287 C 0.80741 0.76241 0.07198 0.0
C288 C 0.85422 0.70246 0.02027 0.0
C289 C 0.74472 0.69681 1.00581 0.0
O290 O 0.81269 0.73556 0.05656 0.0
O291 O 0.7946 0.78018 0.05668 0.0
O292 O 0.81241 0.7096 0.95904 0.0
O293 O 0.8077 0.75616 0.98686 0.0
Co294 Co 0.96716 0.56151 0.83724 0.0
O295 O 0.96912 0.59952 0.81729 0.0
O296 O 0.93001 0.56052 0.81651 0.0
C297 C 0.99269 0.58577 0.88514 0.0
O298 O 0.95749 0.5209 0.85618 0.0
Co299 Co 1.01805 0.5323 0.85823 0.0
O300 O 0.98811 0.49 0.84545 0.0
C301 C 0.99669 0.52439 0.78829 0.0
C302 C 0.94195 0.58784 0.80778 0.0
C303 C 0.96254 0.4931 0.84496 0.0
O304 O 0.97513 0.53582 0.79576 0.0
O305 O 1.01753 0.52419 0.80957 0.0
O306 O 0.96609 0.58723 0.88001 0.0
O307 O 1.00359 0.57284 0.86058 0.0
Co308 Co 0.85709 0.47611 0.5039 0.0
O309 O 0.81823 0.47339 0.50965 0.0
O310 O 0.85136 0.52036 0.51655 0.0
C311 C 0.84962 0.43839 0.45744 0.0
O312 O 0.89932 0.48579 0.50046 0.0
Co313 Co 0.87824 0.40886 0.50496 0.0
O314 O 0.91429 0.43779 0.49829 0.0
C315 C 0.86335 0.44654 0.5603 0.0
C316 C 0.82532 0.50527 0.51855 0.0
C317 C 0.91862 0.46881 0.49832 0.0
O318 O 0.86685 0.47404 0.55061 0.0
O319 O 0.85408 0.41945 0.53986 0.0
O320 O 0.84814 0.46868 0.45577 0.0
O321 O 0.85217 0.43208 0.48636 0.0
Co322 Co 0.7162 0.54313 0.30021 0.0
O323 O 0.71416 0.49164 0.29695 0.0
O324 O 0.75152 0.52283 0.28999 0.0
C325 C 0.69121 0.55124 0.35233 0.0
O326 O 0.73813 0.59544 0.30296 0.0
Co327 Co 0.67701 0.58794 0.30157 0.0
O328 O 0.70787 0.62856 0.30374 0.0
C329 C 0.6779 0.55314 0.23462 0.0
C330 C 0.74047 0.49239 0.29161 0.0
C331 C 0.73336 0.62536 0.30289 0.0
O332 O 0.6985 0.5404 0.24817 0.0
O333 O 0.66543 0.57124 0.25314 0.0
O334 O 0.71752 0.54817 0.35174 0.0
O335 O 0.68075 0.54969 0.32213 0.0
Gd336 Gd 0.07397 0.05323 1.01381 0.0
Gd337 Gd 0.11412 0.08793 0.05286 0.0
C338 C 0.08211 0.13337 0.01817 0.0
C339 C 1.02159 0.035 0.98447 0.0
C340 C 0.99807 0.05186 0.99075 0.0
C341 C 0.97304 0.04544 0.96839 0.0
C342 C 1.00138 0.07612 0.01909 0.0
C343 C 0.95393 0.08517 1.00467 0.0
C344 C 0.97987 0.09277 0.02568 0.0
C345 C 0.95118 0.062 0.97522 0.0
C346 C 0.11954 0.05372 0.97412 0.0
C347 C 0.10478 1.00794 0.05232 0.0
C348 C 0.1666 0.1081 0.08152 0.0
C349 C 0.18998 0.09075 0.07833 0.0
C350 C 0.21756 0.10507 0.09475 0.0
C351 C 0.18494 0.06002 0.05705 0.0
C352 C 0.23497 0.05937 0.06599 0.0
C353 C 0.20681 0.04375 0.05228 0.0
C354 C 0.24005 0.08964 0.08833 0.0
C355 C 0.06783 0.0881 0.09104 0.0
O356 O 0.06446 0.10414 1.00996 0.0
O357 O 0.10624 0.13491 0.03632 0.0
O358 O 0.04241 0.0516 0.97223 0.0
O359 O 0.03112 1.02199 1.00833 0.0
O360 O 0.09887 0.02876 0.97554 0.0
O361 O 0.11585 0.07784 0.99627 0.0
O362 O 0.12095 0.03777 0.06306 0.0
O363 O 0.08238 1.0059 0.03066 0.0
O364 O 0.14576 0.09428 0.09565 0.0
O365 O 0.15724 0.11705 0.05494 0.0
O366 O 0.08836 0.11319 0.0894 0.0
O367 O 0.07255 0.06361 0.07026 0.0
H368 H 0.97034 0.02762 0.94577 0.0
H369 H 1.02065 0.08208 0.03645 0.0
H370 H 0.98341 0.1112 0.04786 0.0
H371 H 0.93234 0.05673 0.95727 0.0
H372 H 0.22195 0.12879 0.11126 0.0
H373 H 0.16447 0.04909 0.04261 0.0
H374 H 0.20183 1.01974 0.03619 0.0
H375 H 0.26151 0.10219 0.09955 0.0
Gd376 Gd 0.35728 0.81792 0.26206 0.0
Gd377 Gd 0.32646 0.8313 0.30961 0.0
C378 C 0.3662 0.89339 0.29581 0.0
C379 C 0.38254 0.81636 0.21038 0.0
C380 C 0.39404 0.84428 0.19558 0.0
C381 C 0.41269 0.84183 0.17219 0.0
C382 C 0.38639 0.87431 0.20559 0.0
C383 C 0.41008 0.89682 0.164 0.0
C384 C 0.39639 0.90136 0.19175 0.0
C385 C 0.42055 0.86818 0.15601 0.0
C386 C 0.38669 0.80693 0.31764 0.0
C387 C 0.32184 0.75855 0.28263 0.0
C388 C 0.30186 0.83917 0.36122 0.0
C389 C 0.29365 0.81268 0.37953 0.0
C390 C 0.26575 0.80414 0.38704 0.0
C391 C 0.31221 0.79175 0.38385 0.0
C392 C 0.27606 0.75534 0.40516 0.0
C393 C 0.30358 0.76353 0.39659 0.0
C394 C 0.25694 0.77551 0.39979 0.0
C395 C 0.29229 0.82513 0.2504 0.0
O396 O 0.37571 0.87127 0.27701 0.0
O397 O 0.34443 0.8845 0.31108 0.0
O398 O 0.39557 0.81782 0.23945 0.0
O399 O 0.35479 0.809 0.20905 0.0
O400 O 0.38197 0.78788 0.289 0.0
O401 O 0.37367 0.83051 0.31641 0.0
O402 O 0.3273 0.77905 0.31062 0.0
O403 O 0.32677 0.77012 0.25616 0.0
O404 O 0.288 0.83314 0.33183 0.0
O405 O 0.32921 0.85045 0.36176 0.0
O406 O 0.28582 0.80912 0.27356 0.0
O407 O 0.31854 0.84076 0.25804 0.0
H408 H 0.41915 0.81889 0.16465 0.0
H409 H 0.37073 0.87625 0.222 0.0
H410 H 0.38787 0.92317 0.19786 0.0
H411 H 0.43119 0.86444 0.13449 0.0
H412 H 0.25077 0.81934 0.38267 0.0
H413 H 0.33337 0.79682 0.37691 0.0
H414 H 0.31903 0.7489 0.40107 0.0
H415 H 0.23559 0.76966 0.40635 0.0
Gd416 Gd 0.61946 0.07012 0.52825 0.0
Gd417 Gd 0.55697 0.06858 0.54754 0.0
C418 C 0.57282 0.9985 0.52412 0.0
C419 C 0.67046 0.06037 0.52632 0.0
C420 C 0.68673 0.03388 0.52324 0.0
C421 C 0.70286 0.03013 0.49719 0.0
C422 C 0.68923 1.01502 0.54785 0.0
C423 C 0.72685 0.99338 0.52306 0.0
C424 C 0.709 0.99487 0.54765 0.0
C425 C 0.72261 1.01001 0.49701 0.0
C426 C 0.58087 0.07728 0.48293 0.0
C427 C 0.60326 0.14009 0.54909 0.0
C428 C 0.50672 0.07945 0.55283 0.0
C429 C 0.49134 0.1067 0.55307 0.0
C430 C 0.48204 0.1204 0.58205 0.0
C431 C 0.48333 0.11704 0.52386 0.0
C432 C 0.45434 0.15096 0.55169 0.0
C433 C 0.46522 0.13896 0.52323 0.0
C434 C 0.46393 0.14246 0.58143 0.0
C435 C 0.5983 0.06689 0.5931 0.0
O436 O 0.59954 1.01533 0.52501 0.0
O437 O 0.5517 1.01346 0.53011 0.0
O438 O 0.65398 0.06252 0.50027 0.0
O439 O 0.65967 0.06698 0.55364 0.0
O440 O 0.60801 0.08934 0.48363 0.0
O441 O 0.57595 0.05816 0.5028 0.0
O442 O 0.57639 0.1235 0.54834 0.0
O443 O 0.62451 0.12503 0.54457 0.0
O444 O 0.52553 0.08125 0.57828 0.0
O445 O 0.51457 0.06748 0.52496 0.0
O446 O 0.57238 0.04991 0.59248 0.0
O447 O 0.59999 0.08357 0.57127 0.0
H448 H 0.70131 0.04415 0.47778 0.0
H449 H 0.67699 1.01709 0.56819 0.0
H450 H 0.71168 0.98225 0.56796 0.0
H451 H 0.73565 1.00884 0.47736 0.0
H452 H 0.48789 0.11309 0.60501 0.0
H453 H 0.48991 0.10705 0.50101 0.0
H454 H 0.45835 0.14489 0.4999 0.0
H455 H 0.45664 0.15193 0.60404 0.0
Gd456 Gd 0.31815 0.33547 0.78681 0.0
Gd457 Gd 0.36775 0.30417 0.78342 0.0
C458 C 0.35731 0.33764 0.85556 0.0
C459 C 0.26773 0.34441 0.79691 0.0
C460 C 0.2471 0.34119 0.82121 0.0
C461 C 0.23707 0.36904 0.83405 0.0
C462 C 0.23596 0.31087 0.83046 0.0
C463 C 0.20278 0.33567 0.8616 0.0
C464 C 0.2141 0.3082 0.8505 0.0
C465 C 0.2154 0.36641 0.85414 0.0
C466 C 0.36313 0.3874 0.77908 0.0
C467 C 0.32945 0.3041 0.71434 0.0
C468 C 0.4178 0.29366 0.77327 0.0
C469 C 0.43873 0.29704 0.74937 0.0
C470 C 0.45488 0.273 0.74369 0.0
C471 C 0.44365 0.32395 0.73296 0.0
C472 C 0.4823 0.30411 0.70828 0.0
C473 C 0.46531 0.32746 0.71266 0.0
C474 C 0.47646 0.27652 0.72348 0.0
C475 C 0.32229 0.25298 0.79233 0.0
O476 O 0.33358 0.34235 0.84079 0.0
O477 O 0.37494 0.32363 0.83874 0.0
O478 O 0.29116 0.36735 0.80591 0.0
O479 O 0.2719 0.31756 0.77916 0.0
O480 O 0.33647 0.38787 0.7794 0.0
O481 O 0.36463 0.3571 0.78066 0.0
O482 O 0.35326 0.29937 0.72908 0.0
O483 O 0.31153 0.31693 0.73166 0.0
O484 O 0.39392 0.27164 0.76334 0.0
O485 O 0.41415 0.3205 0.79155 0.0
O486 O 0.34853 0.25133 0.79039 0.0
O487 O 0.32159 0.28327 0.79028 0.0
H488 H 0.24544 0.39282 0.82771 0.0
H489 H 0.24344 0.28899 0.82139 0.0
H490 H 0.2051 0.28421 0.85596 0.0
H491 H 0.20795 0.38835 0.86307 0.0
H492 H 0.45142 0.2519 0.7558 0.0
H493 H 0.43136 0.34271 0.73657 0.0
H494 H 0.46957 0.34912 0.70145 0.0
H495 H 0.48939 0.25835 0.72079 0.0
Gd496 Gd 0.08376 0.10078 0.54598 0.0
Gd497 Gd 0.09983 0.03748 0.51306 0.0
C498 C 0.06237 0.07338 0.46378 0.0
C499 C 0.08402 0.1626 0.55566 0.0
C500 C 0.08821 0.1839 0.53119 0.0
C501 C 0.07856 0.21325 0.53421 0.0
C502 C 0.10154 0.17426 0.50389 0.0
C503 C 0.10029 0.2259 0.48626 0.0
C504 C 0.10746 0.1951 0.48151 0.0
C505 C 0.08468 0.23428 0.51186 0.0
C506 C 0.03954 0.04869 0.5487 0.0
C507 C 0.11998 0.0647 0.59594 0.0
C508 C 0.1014 0.97596 0.50431 0.0
C509 C 0.0967 0.95409 0.52846 0.0
C510 C 0.10896 0.92664 0.52761 0.0
C511 C 0.08116 0.96206 0.5541 0.0
C512 C 0.0864 0.91274 0.57507 0.0
C513 C 0.07526 0.94116 0.57643 0.0
C514 C 0.10408 0.9063 0.55093 0.0
C515 C 0.14264 0.09051 0.508 0.0
O516 O 0.06549 0.09691 0.49066 0.0
O517 O 0.07344 0.04683 0.4662 0.0
O518 O 0.06045 0.13961 0.54898 0.0
O519 O 0.10626 0.15157 0.56537 0.0
O520 O 0.04168 0.07924 0.56254 0.0
O521 O 0.06263 0.04738 0.53654 0.0
O522 O 0.11733 0.04133 0.56895 0.0
O523 O 0.10898 0.09111 0.59307 0.0
O524 O 0.12436 0.9998 0.51232 0.0
O525 O 0.0791 0.98611 0.4931 0.0
O526 O 0.14095 0.06011 0.49402 0.0
O527 O 0.12 0.09072 0.52121 0.0
H528 H 0.06757 0.2206 0.55462 0.0
H529 H 0.10868 0.15133 0.50076 0.0
H530 H 0.11991 0.18849 0.46227 0.0
H531 H 0.07932 0.25825 0.51608 0.0
H532 H 0.1221 0.92084 0.50889 0.0
H533 H 0.07326 0.98442 0.55669 0.0
H534 H 0.06108 0.94684 0.59395 0.0
H535 H 0.11358 0.88506 0.54955 0.0
Gd536 Gd 0.3672 0.84524 0.77722 0.0
Gd537 Gd 0.31815 0.7989 0.79286 0.0
C538 C 0.37675 0.76679 0.78986 0.0
C539 C 0.41802 0.88054 0.78438 0.0
C540 C 0.44527 0.87072 0.78814 0.0
C541 C 0.4688 0.8871 0.7755 0.0
C542 C 0.44852 0.84667 0.80704 0.0
C543 C 0.49932 0.86136 0.80723 0.0
C544 C 0.47534 0.84162 0.81604 0.0
C545 C 0.49591 0.88244 0.78508 0.0
C546 C 0.33924 0.80123 0.72542 0.0
C547 C 0.30793 0.87601 0.77806 0.0
C548 C 0.26695 0.76419 0.78512 0.0
C549 C 0.23978 0.77391 0.77825 0.0
C550 C 0.21846 0.76856 0.79855 0.0
C551 C 0.23485 0.78832 0.75074 0.0
C552 C 0.1867 0.78819 0.76165 0.0
C553 C 0.2086 0.79531 0.74254 0.0
C554 C 0.19192 0.7755 0.79018 0.0
C555 C 0.34699 0.84365 0.84435 0.0
O556 O 0.3878 0.79784 0.78467 0.0
O557 O 0.34894 0.76117 0.79432 0.0
O558 O 0.40252 0.87032 0.75552 0.0
O559 O 0.40331 0.87739 0.80894 0.0
O560 O 0.34902 0.83231 0.7242 0.0
O561 O 0.34451 0.79614 0.75387 0.0
O562 O 0.29688 0.84469 0.78243 0.0
O563 O 0.33611 0.88257 0.77542 0.0
O564 O 0.28153 0.77607 0.81434 0.0
O565 O 0.28285 0.76505 0.7615 0.0
O566 O 0.33677 0.81288 0.84637 0.0
O567 O 0.34079 0.84816 0.81592 0.0
H568 H 0.46657 0.90533 0.76047 0.0
H569 H 0.43087 0.83391 0.8175 0.0
H570 H 0.47768 0.82531 0.83321 0.0
H571 H 0.51434 0.89794 0.77816 0.0
H572 H 0.222 0.75801 0.82016 0.0
H573 H 0.25092 0.79327 0.73473 0.0
H574 H 0.20487 0.80438 0.72004 0.0
H575 H 0.17514 0.76972 0.80512 0.0
Gd576 Gd 0.59705 0.06143 0.06416 0.0
Gd577 Gd 0.59007 0.08466 1.00428 0.0
C578 C 0.53943 0.03362 1.01452 0.0
C579 C 0.587 0.03792 0.11562 0.0
C580 C 0.55957 1.02452 0.12602 0.0
C581 C 0.55141 0.99059 0.12628 0.0
C582 C 0.54069 0.04483 0.134 0.0
C583 C 0.50868 0.99882 0.14925 0.0
C584 C 0.51556 0.03215 0.14569 0.0
C585 C 0.52581 0.97767 0.13704 0.0
C586 C 0.62247 0.03008 0.01759 0.0
C587 C 0.65022 0.10857 0.05174 0.0
C588 C 0.59614 0.10977 0.9527 0.0
C589 C 0.62019 0.1325 0.94433 0.0
C590 C 0.61517 0.15443 0.92386 0.0
C591 C 0.64831 0.13175 0.95558 0.0
C592 C 0.66463 0.16389 0.91583 0.0
C593 C 0.67079 0.149 0.94248 0.0
C594 C 0.63771 0.17091 0.91008 0.0
C595 C 0.56244 0.11338 0.04995 0.0
O596 O 0.55056 0.04381 0.04538 0.0
O597 O 0.55378 0.04145 0.99087 0.0
O598 O 0.59257 1.02025 0.08933 0.0
O599 O 0.59365 0.06984 0.11603 0.0
O600 O 0.63275 0.03969 0.04825 0.0
O601 O 0.59824 0.03673 1.01237 0.0
O602 O 0.63624 0.10335 0.02224 0.0
O603 O 0.63812 0.09876 0.07624 0.0
O604 O 0.58433 0.12255 0.97682 0.0
O605 O 0.59959 0.08003 0.9544 0.0
O606 O 0.5525 0.10262 0.01936 0.0
O607 O 0.58752 0.10885 0.05572 0.0
H608 H 0.56527 0.97425 0.11916 0.0
H609 H 0.54588 0.07089 0.13281 0.0
H610 H 0.50323 0.04948 0.15497 0.0
H611 H 0.52086 0.95175 0.13884 0.0
H612 H 0.59364 0.15632 0.91611 0.0
H613 H 0.65284 0.11535 0.97168 0.0
H614 H 0.69175 0.14413 0.94774 0.0
H615 H 0.63291 0.18343 0.89026 0.0
Gd616 Gd 0.35997 0.35242 0.30388 0.0
Gd617 Gd 0.32101 0.28465 0.26414 0.0
C618 C 0.29009 0.33607 0.301 0.0
C619 C 0.37651 0.41552 0.3187 0.0
C620 C 0.35721 0.43745 0.31363 0.0
C621 C 0.35822 0.46612 0.33675 0.0
C622 C 0.33463 0.42669 0.28766 0.0
C623 C 0.31478 0.47308 0.30724 0.0
C624 C 0.31352 0.4442 0.28467 0.0
C625 C 0.33723 0.48423 0.33327 0.0
C626 C 0.34763 0.30831 0.34623 0.0
C627 C 0.39125 0.30111 0.26747 0.0
C628 C 0.30568 0.22149 0.24917 0.0
C629 C 0.32581 0.19999 0.25148 0.0
C630 C 0.32356 0.17157 0.2276 0.0
C631 C 0.34964 0.2103 0.27593 0.0
C632 C 0.36747 0.16281 0.25442 0.0
C633 C 0.37039 0.19207 0.27719 0.0
C634 C 0.34419 0.15278 0.22928 0.0
C635 C 0.33177 0.32748 0.22085 0.0
O636 O 0.31453 0.35816 0.30403 0.0
O637 O 0.28672 0.30496 0.28621 0.0
O638 O 0.37 0.39751 0.3407 0.0
O639 O 0.38229 0.39843 0.29197 0.0
O640 O 0.36454 0.33759 0.3544 0.0
O641 O 0.34076 0.30393 0.31525 0.0
O642 O 0.36633 0.27968 0.26212 0.0
O643 O 0.39516 0.33168 0.284 0.0
O644 O 0.30965 0.23982 0.22693 0.0
O645 O 0.30159 0.23804 0.27711 0.0
O646 O 0.31368 0.29895 0.21448 0.0
O647 O 0.34017 0.33346 0.25184 0.0
H648 H 0.37503 0.47429 0.35742 0.0
H649 H 0.33295 0.40429 0.26987 0.0
H650 H 0.29656 0.43567 0.26414 0.0
H651 H 0.33856 0.50688 0.35061 0.0
H652 H 0.3058 0.1638 0.20799 0.0
H653 H 0.35224 0.23251 0.29427 0.0
H654 H 0.38799 0.19993 0.29702 0.0
H655 H 0.34164 0.13004 0.21163 0.0
Gd656 Gd 0.58604 0.59779 0.0464 0.0
Gd657 Gd 0.60009 0.53802 1.01518 0.0
C658 C 0.56372 0.57289 0.96503 0.0
C659 C 0.5867 0.65958 0.05676 0.0
C660 C 0.59088 0.68084 0.03227 0.0
C661 C 0.57395 0.70369 0.0293 0.0
C662 C 0.61009 0.67627 1.00963 0.0
C663 C 0.59968 0.72177 0.98591 0.0
C664 C 0.61461 0.69677 0.98672 0.0
C665 C 0.57821 0.72397 1.00606 0.0
C666 C 0.54008 0.54877 0.05089 0.0
C667 C 0.62128 0.56335 0.09772 0.0
C668 C 0.60436 0.47686 1.00581 0.0
C669 C 0.60089 0.45405 0.02933 0.0
C670 C 0.60458 0.42156 0.02149 0.0
C671 C 0.59231 0.46456 0.05972 0.0
C672 C 0.5886 0.41005 0.07296 0.0
C673 C 0.58703 0.44309 0.08162 0.0
C674 C 0.59826 0.39954 0.04314 0.0
C675 C 0.63935 0.5929 1.00745 0.0
O676 O 0.57174 0.59799 0.99066 0.0
O677 O 0.57049 0.54439 0.96924 0.0
O678 O 0.563 0.63689 0.0502 0.0
O679 O 0.6087 0.64837 0.06673 0.0
O680 O 0.54354 0.57962 0.06397 0.0
O681 O 0.56211 0.54488 0.03781 0.0
O682 O 0.62037 0.54166 0.07004 0.0
O683 O 0.60852 0.58846 0.09541 0.0
O684 O 0.62646 0.50185 1.01344 0.0
O685 O 0.58122 0.48597 0.99616 0.0
O686 O 0.62977 0.56627 0.98504 0.0
O687 O 0.62767 0.58857 0.03297 0.0
H688 H 0.55818 0.7066 0.04562 0.0
H689 H 0.62233 0.65759 1.01034 0.0
H690 H 0.63137 0.69486 0.97156 0.0
H691 H 0.5666 0.74336 1.00583 0.0
H692 H 0.61122 0.41289 0.99822 0.0
H693 H 0.58848 0.48898 0.06611 0.0
H694 H 0.5806 0.4519 0.10495 0.0
H695 H 0.59966 0.37405 0.036 0.0
Gd696 Gd 0.86799 0.34421 0.2758 0.0
Gd697 Gd 0.82089 0.29865 0.29553 0.0
C698 C 0.87886 0.26673 0.28915 0.0
C699 C 0.91858 0.37925 0.27887 0.0
C700 C 0.94588 0.37012 0.28544 0.0
C701 C 0.96907 0.38215 0.26969 0.0
C702 C 0.94926 0.35046 0.30905 0.0
C703 C 0.99958 0.35996 0.30529 0.0
C704 C 0.97594 0.34534 0.31881 0.0
C705 C 0.99602 0.37726 0.27978 0.0
C706 C 0.8355 0.29999 0.22674 0.0
C707 C 0.81013 0.37635 0.28281 0.0
C708 C 0.77 0.26367 0.28996 0.0
C709 C 0.74266 0.27252 0.28221 0.0
C710 C 0.71909 0.2606 0.29746 0.0
C711 C 0.73951 0.29128 0.25769 0.0
C712 C 0.68879 0.28074 0.25962 0.0
C713 C 0.71271 0.29522 0.24641 0.0
C714 C 0.69213 0.26471 0.28616 0.0
C715 C 0.85415 0.34 0.34611 0.0
O716 O 0.88936 0.29754 0.283 0.0
O717 O 0.85153 0.26099 0.29526 0.0
O718 O 0.90298 0.36469 0.25083 0.0
O719 O 0.90392 0.38051 0.30365 0.0
O720 O 0.84543 0.33054 0.22383 0.0
O721 O 0.84405 0.29528 0.25428 0.0
O722 O 0.80002 0.34602 0.29012 0.0
O723 O 0.83699 0.38155 0.27519 0.0
O724 O 0.78474 0.27774 0.31866 0.0
O725 O 0.78556 0.26291 0.26596 0.0
O726 O 0.84384 0.30875 0.34628 0.0
O727 O 0.8461 0.34696 0.31902 0.0
H728 H 0.96667 0.39686 0.25104 0.0
H729 H 0.93168 0.34068 0.32149 0.0
H730 H 0.97855 0.33245 0.33896 0.0
H731 H 1.01431 0.38892 0.26944 0.0
H732 H 0.72127 0.2466 0.31677 0.0
H733 H 0.75743 0.30125 0.24582 0.0
H734 H 0.71034 0.30748 0.22574 0.0
H735 H 0.67369 0.25332 0.29644 0.0
Gd736 Gd 0.09563 0.56526 0.56338 0.0
Gd737 Gd 0.08099 0.58919 0.49901 0.0
C738 C 0.03714 0.53175 0.51568 0.0
C739 C 0.09213 0.55117 0.61982 0.0
C740 C 0.06622 0.53428 0.63088 0.0
C741 C 0.06237 0.50074 0.63302 0.0
C742 C 0.04429 0.55062 0.6373 0.0
C743 C 1.01955 0.50347 0.6576 0.0
C744 C 1.021 0.53524 0.6505 0.0
C745 C 0.03866 0.4851 0.64544 0.0
C746 C 0.1167 0.53065 0.51385 0.0
C747 C 0.144 0.61469 0.54376 0.0
C748 C 0.08341 0.61184 0.44611 0.0
C749 C 0.10868 0.62324 0.43081 0.0
C750 C 0.11803 0.65711 0.43063 0.0
C751 C 0.12555 0.6013 0.42011 0.0
C752 C 0.16052 0.6469 0.40881 0.0
C753 C 0.15113 0.61303 0.4091 0.0
C754 C 0.14385 0.66892 0.41972 0.0
C755 C 0.05558 0.61192 0.55 0.0
O756 O 0.04961 0.5417 0.54622 0.0
O757 O 0.04865 0.5419 0.49081 0.0
O758 O 0.10167 0.53284 0.59702 0.0
O759 O 0.09297 0.58125 0.6147 0.0
O760 O 0.11924 0.52645 0.54387 0.0
O761 O 0.10325 0.55292 0.5121 0.0
O762 O 0.12825 0.60918 0.5147 0.0
O763 O 0.13401 0.60475 0.56936 0.0
O764 O 0.08244 0.6304 0.47427 0.0
O765 O 0.07615 0.57994 0.4461 0.0
O766 O 0.04344 0.60395 0.51985 0.0
O767 O 0.08109 0.60893 0.55144 0.0
H768 H 0.07838 0.48711 0.62668 0.0
H769 H 0.04588 0.57596 0.63414 0.0
H770 H 1.00642 0.55003 0.6591 0.0
H771 H 0.03751 0.46023 0.6499 0.0
H772 H 0.10539 0.67445 0.43908 0.0
H773 H 0.11903 0.57504 0.42004 0.0
H774 H 0.1628 0.59524 0.39906 0.0
H775 H 0.1503 0.69492 0.41861 0.0
Gd776 Gd 0.81895 0.83528 0.28821 0.0
Gd777 Gd 0.86846 0.80406 0.28443 0.0
C778 C 0.85813 0.83641 0.3563 0.0
C779 C 0.76997 0.84822 0.29949 0.0
C780 C 0.74829 0.84414 0.32248 0.0
C781 C 0.73974 0.87214 0.33781 0.0
C782 C 0.73525 0.81309 0.32867 0.0
C783 C 0.7031 0.83766 0.36173 0.0
C784 C 0.71283 0.80982 0.34781 0.0
C785 C 0.7178 0.86904 0.35755 0.0
C786 C 0.86419 0.88722 0.28028 0.0
C787 C 0.83009 0.80405 0.21606 0.0
C788 C 0.9172 0.79052 0.27243 0.0
C789 C 0.9383 0.79457 0.24883 0.0
C790 C 0.95692 0.77303 0.24544 0.0
C791 C 0.94021 0.81914 0.22953 0.0
C792 C 0.98117 0.80294 0.20693 0.0
C793 C 0.96179 0.82371 0.20926 0.0
C794 C 0.97797 0.777 0.22457 0.0
C795 C 0.82309 0.75267 0.29386 0.0
O796 O 0.83257 0.83633 0.34204 0.0
O797 O 0.87752 0.82745 0.3387 0.0
O798 O 0.79457 0.86811 0.31151 0.0
O799 O 0.77241 0.82234 0.27862 0.0
O800 O 0.83774 0.88802 0.28134 0.0
O801 O 0.86545 0.85691 0.2818 0.0
O802 O 0.85494 0.8022 0.23057 0.0
O803 O 0.81099 0.81427 0.23333 0.0
O804 O 0.89244 0.7708 0.2609 0.0
O805 O 0.91504 0.81673 0.29298 0.0
O806 O 0.84963 0.75187 0.29347 0.0
O807 O 0.82212 0.7829 0.29177 0.0
H808 H 0.74979 0.89655 0.33409 0.0
H809 H 0.74198 0.79127 0.31821 0.0
H810 H 0.70244 0.78523 0.35064 0.0
H811 H 0.71215 0.89134 0.3691 0.0
H812 H 0.95554 0.75343 0.2595 0.0
H813 H 0.92532 0.83507 0.23052 0.0
H814 H 0.96367 0.84381 0.19581 0.0
H815 H 0.99261 0.76069 0.22334 0.0
Gd816 Gd 0.85609 0.31513 0.7604 0.0
Gd817 Gd 0.82776 0.33387 0.80875 0.0
C818 C 0.86641 0.39102 0.7882 0.0
C819 C 0.88233 0.31201 0.70981 0.0
C820 C 0.88748 0.33818 0.69063 0.0
C821 C 0.91531 0.35175 0.68533 0.0
C822 C 0.86543 0.35379 0.68297 0.0
C823 C 0.89874 0.39595 0.6644 0.0
C824 C 0.87099 0.38224 0.6699 0.0
C825 C 0.92092 0.38047 0.67209 0.0
C826 C 0.88573 0.30802 0.81817 0.0
C827 C 0.81775 0.25818 0.77971 0.0
C828 C 0.79989 0.33575 0.8585 0.0
C829 C 0.79134 0.30912 0.87637 0.0
C830 C 0.76655 0.30623 0.89151 0.0
C831 C 0.80694 0.28455 0.87573 0.0
C832 C 0.77508 0.25605 0.90795 0.0
C833 C 0.79824 0.2576 0.89019 0.0
C834 C 0.75873 0.28004 0.90795 0.0
C835 C 0.79775 0.3417 0.75192 0.0
O836 O 0.86213 0.36935 0.7609 0.0
O837 O 0.85692 0.3823 0.81435 0.0
O838 O 0.89568 0.32059 0.73956 0.0
O839 O 0.85577 0.29664 0.70863 0.0
O840 O 0.87859 0.28604 0.79139 0.0
O841 O 0.87475 0.33257 0.81414 0.0
O842 O 0.82264 0.27972 0.80698 0.0
O843 O 0.82655 0.267 0.75345 0.0
O844 O 0.78761 0.32918 0.82834 0.0
O845 O 0.82728 0.34811 0.86109 0.0
O846 O 0.80471 0.36313 0.77908 0.0
O847 O 0.80925 0.31723 0.75502 0.0
H848 H 0.93269 0.34048 0.69196 0.0
H849 H 0.84385 0.3444 0.68756 0.0
H850 H 0.8532 0.39275 0.66291 0.0
H851 H 0.94234 0.39024 0.66729 0.0
H852 H 0.75404 0.3248 0.89172 0.0
H853 H 0.82669 0.28682 0.86535 0.0
H854 H 0.81176 0.24008 0.8909 0.0
H855 H 0.74123 0.27958 0.92234 0.0
Gd856 Gd 0.85633 0.85127 0.80517 0.0
Gd857 Gd 0.82019 0.78386 0.76464 0.0
C858 C 0.78687 0.83331 0.79945 0.0
C859 C 0.87412 0.91429 0.82319 0.0
C860 C 0.85912 0.93871 0.81353 0.0
C861 C 0.86111 0.96903 0.83449 0.0
C862 C 0.839 0.9291 0.78521 0.0
C863 C 0.82321 0.97996 0.79825 0.0
C864 C 0.82131 0.94956 0.77757 0.0
C865 C 0.84324 0.98971 0.82681 0.0
C866 C 0.84627 0.8073 0.84793 0.0
C867 C 0.88926 0.80174 0.76914 0.0
C868 C 0.80592 0.72064 0.74569 0.0
C869 C 0.82493 0.69826 0.75072 0.0
C870 C 0.82426 0.67027 0.72687 0.0
C871 C 0.84698 0.7079 0.77724 0.0
C872 C 0.86711 0.66179 0.75666 0.0
C873 C 0.86767 0.68979 0.78033 0.0
C874 C 0.84514 0.65193 0.72997 0.0
C875 C 0.83031 0.82752 0.72155 0.0
O876 O 0.81043 0.85636 0.80074 0.0
O877 O 0.78506 0.80177 0.78753 0.0
O878 O 0.86032 0.89575 0.84129 0.0
O879 O 0.88408 0.89718 0.79964 0.0
O880 O 0.86305 0.83656 0.85514 0.0
O881 O 0.83858 0.80186 0.81695 0.0
O882 O 0.86568 0.7791 0.76785 0.0
O883 O 0.89167 0.83297 0.78273 0.0
O884 O 0.8143 0.74071 0.72608 0.0
O885 O 0.79788 0.73569 0.77202 0.0
O886 O 0.81295 0.79859 0.71502 0.0
O887 O 0.83822 0.83356 0.75258 0.0
H888 H 0.87593 0.97628 0.857 0.0
H889 H 0.83626 0.90516 0.76951 0.0
H890 H 0.80559 0.94121 0.75582 0.0
H891 H 0.84503 1.01316 0.84307 0.0
H892 H 0.80797 0.66301 0.70566 0.0
H893 H 0.84875 0.73003 0.79531 0.0
H894 H 0.88396 0.69751 0.80156 0.0
H895 H 0.84428 0.63025 0.71151 0.0
Gd896 Gd 0.57494 0.55339 0.51526 0.0
Gd897 Gd 0.61485 0.5885 0.55329 0.0
C898 C 0.58187 0.63298 0.51796 0.0
C899 C 0.52217 0.53384 0.48771 0.0
C900 C 0.49851 0.54975 0.49587 0.0
C901 C 0.47262 0.54247 0.47491 0.0
C902 C 0.50262 0.57418 0.52433 0.0
C903 C 0.45527 0.58355 0.51128 0.0
C904 C 0.48138 0.591 0.53188 0.0
C905 C 0.45114 0.55925 0.48256 0.0
C906 C 0.62 0.55379 0.47467 0.0
C907 C 0.60801 0.50919 0.55166 0.0
C908 C 0.66663 0.60853 0.58351 0.0
C909 C 0.69022 0.59168 0.57919 0.0
C910 C 0.71437 0.59888 0.60296 0.0
C911 C 0.68829 0.56749 0.55096 0.0
C912 C 0.73543 0.56044 0.56861 0.0
C913 C 0.71065 0.55194 0.54578 0.0
C914 C 0.73697 0.58336 0.59765 0.0
C915 C 0.56938 0.58836 0.59279 0.0
O916 O 0.56445 0.60358 0.51116 0.0
O917 O 0.60666 0.63485 0.53504 0.0
O918 O 0.54205 0.55152 0.47502 0.0
O919 O 0.53293 0.52045 0.5105 0.0
O920 O 0.59909 0.52907 0.47609 0.0
O921 O 0.6166 0.57803 0.49686 0.0
O922 O 0.62519 0.53871 0.55897 0.0
O923 O 0.58376 0.50692 0.53318 0.0
O924 O 0.64571 0.59284 0.59625 0.0
O925 O 0.65748 0.61985 0.55827 0.0
O926 O 0.58961 0.61344 0.59061 0.0
O927 O 0.57361 0.56384 0.57164 0.0
H928 H 0.46906 0.52401 0.45263 0.0
H929 H 0.52254 0.58066 0.54064 0.0
H930 H 0.4856 0.61023 0.55364 0.0
H931 H 0.43122 0.55305 0.46617 0.0
H932 H 0.71605 0.61706 0.62512 0.0
H933 H 0.66979 0.56126 0.53236 0.0
H934 H 0.7091 0.53422 0.52329 0.0
H935 H 0.75606 0.5902 0.61547 0.0
Gd936 Gd 0.11912 0.56668 0.02032 0.0
Gd937 Gd 0.05801 0.56798 0.04208 0.0
C938 C 0.07185 0.49666 0.02011 0.0
C939 C 0.16962 0.55626 1.01495 0.0
C940 C 0.18623 0.53023 1.01341 0.0
C941 C 0.20698 0.53004 0.99211 0.0
C942 C 0.18433 0.50839 0.03568 0.0
C943 C 0.22612 0.49003 0.01832 0.0
C944 C 0.20418 0.48863 0.0382 0.0
C945 C 0.22668 0.51005 0.99443 0.0
C946 C 0.07789 0.57039 0.97527 0.0
C947 C 0.10476 0.63836 0.04275 0.0
C948 C 1.00752 0.5784 0.04619 0.0
C949 C 0.99186 0.60535 0.04694 0.0
C950 C 0.98088 0.6168 0.07554 0.0
C951 C 0.98502 0.61729 0.01831 0.0
C952 C 0.95437 0.64892 0.04597 0.0
C953 C 0.9665 0.63875 0.01785 0.0
C954 C 0.96236 0.63837 0.07508 0.0
C955 C 0.09891 0.56312 0.08684 0.0
O956 O 0.09904 0.51229 0.02118 0.0
O957 O 0.05145 0.51303 0.02476 0.0
O958 O 0.15114 0.55543 0.98951 0.0
O959 O 0.16078 0.56537 0.04295 0.0
O960 O 0.10439 0.58512 0.97536 0.0
O961 O 0.07529 0.55356 0.99717 0.0
O962 O 0.07792 0.62258 0.0431 0.0
O963 O 0.1252 0.62223 0.03662 0.0
O964 O 1.0256 0.5792 0.07202 0.0
O965 O 1.01637 0.56807 0.01845 0.0
O966 O 0.0722 0.54923 0.08697 0.0
O967 O 0.10182 0.58045 0.06529 0.0
H968 H 0.20894 0.54668 0.9748 0.0
H969 H 0.16841 0.50777 0.05226 0.0
H970 H 0.20311 0.4732 0.05662 0.0
H971 H 0.24342 0.51184 0.97893 0.0
H972 H 0.98567 0.60799 0.09795 0.0
H973 H 0.99292 0.60895 0.99574 0.0
H974 H 0.9604 0.6458 0.99484 0.0
H975 H 0.95346 0.64585 0.09718 0.0
C976 C 0.07485 0.20491 0.97067 0.0
C977 C 0.0531 0.21856 0.98425 0.0
C978 C 0.08481 0.17842 0.98219 0.0
C979 C 0.07358 0.1638 1.0079 0.0
H980 H 0.08445 0.21483 0.95097 0.0
H981 H 0.1012 0.16894 0.9704 0.0
S982 S 1.01762 0.19018 0.05348 0.0
N983 N 1.02175 0.21485 0.02653 0.0
N984 N 0.03997 0.16582 0.04688 0.0
C985 C 0.05218 0.17722 0.02177 0.0
C986 C 0.04221 0.20422 1.01044 0.0
C987 C 0.21721 0.82739 0.20559 0.0
C988 C 0.22316 0.84726 0.18162 0.0
C989 C 0.2393 0.82045 0.22716 0.0
C990 C 0.26897 0.83312 0.22663 0.0
H991 H 0.19523 0.81612 0.20712 0.0
H992 H 0.2329 0.80468 0.24445 0.0
S993 S 0.29672 0.88961 0.17174 0.0
N994 N 0.26185 0.88119 0.16089 0.0
N995 N 0.30225 0.8688 0.20106 0.0
C996 C 0.27509 0.85385 0.20365 0.0
C997 C 0.25271 0.86063 0.18147 0.0
C998 C 0.57668 0.91564 0.47384 0.0
C999 C 0.55342 0.8927 0.4808 0.0
C1000 C 0.58322 0.94916 0.48907 0.0
C1001 C 0.56642 0.96182 0.51152 0.0
H1002 H 0.59001 0.90767 0.45615 0.0
H1003 H 0.60112 0.96553 0.48213 0.0
S1004 S 0.50432 0.91186 0.54032 0.0
N1005 N 0.51467 0.88462 0.51359 0.0
N1006 N 0.52629 0.94799 0.54149 0.0
C1007 C 0.5435 0.93904 0.51949 0.0
C1008 C 0.53722 0.90447 0.50442 0.0
C1009 C 0.56039 0.33479 0.69964 0.0
C1010 C 0.56163 0.32612 0.66584 0.0
C1011 C 0.5346 0.32766 0.71273 0.0
C1012 C 0.50888 0.31117 0.69273 0.0
H1013 H 0.57953 0.34769 0.71622 0.0
H1014 H 0.53476 0.33515 0.73887 0.0
S1015 S 0.50053 0.27964 0.6031 0.0
N1016 N 0.53474 0.29807 0.61275 0.0
N1017 N 0.48637 0.28421 0.63761 0.0
C1018 C 0.50971 0.30142 0.65897 0.0
C1019 C 0.53603 0.30904 0.64548 0.0
C1020 C 0.05565 0.83065 0.59859 0.0
C1021 C 0.04876 0.83977 0.63032 0.0
C1022 C 0.06928 0.85422 0.58183 0.0
C1023 C 0.07675 0.88809 0.596 0.0
H1024 H 0.04973 0.80509 0.58595 0.0
H1025 H 0.07262 0.8458 0.55686 0.0
S1026 S 0.06752 0.92446 0.68064 0.0
N1027 N 0.05294 0.88463 0.67664 0.0
N1028 N 0.07947 0.92906 0.64556 0.0
C1029 C 0.07167 0.89738 0.62862 0.0
C1030 C 0.05747 0.87324 0.64564 0.0
C1031 C 0.55179 0.89116 0.88372 0.0
C1032 C 0.57791 0.88862 0.87278 0.0
C1033 C 0.52649 0.88099 0.86223 0.0
C1034 C 0.52629 0.86804 0.82895 0.0
H1035 H 0.55071 0.90087 0.90916 0.0
H1036 H 0.50689 0.88401 0.87163 0.0
S1037 S 0.5883 0.85529 0.78751 0.0
N1038 N 0.60188 0.87149 0.82604 0.0
N1039 N 0.55361 0.85254 0.78567 0.0
C1040 C 0.55195 0.86512 0.81739 0.0
C1041 C 0.57795 0.87536 0.83933 0.0
C1042 C 0.54643 0.17139 0.1232 0.0
C1043 C 0.52032 0.17768 0.11075 0.0
C1044 C 0.55969 0.14937 0.10425 0.0
C1045 C 0.54729 0.13313 0.07224 0.0
H1046 H 0.55785 0.18562 0.14648 0.0
H1047 H 0.5804 0.14646 0.11402 0.0
S1048 S 0.4779 0.13947 0.02976 0.0
N1049 N 0.48185 0.1643 0.06568 0.0
N1050 N 0.50612 0.12324 0.03023 0.0
C1051 C 0.52027 0.13772 0.06062 0.0
C1052 C 0.50693 0.15983 0.07985 0.0
C1053 C 0.24973 0.39084 0.35086 0.0
C1054 C 0.22613 0.36802 0.35668 0.0
C1055 C 0.26963 0.38039 0.33163 0.0
C1056 C 0.26684 0.34662 0.31793 0.0
H1057 H 0.25257 0.41693 0.3608 0.0
H1058 H 0.28752 0.399 0.32787 0.0
S1059 S 0.20974 0.27693 0.32956 0.0
N1060 N 0.2015 0.31035 0.34921 0.0
N1061 N 0.23911 0.29031 0.31398 0.0
C1062 C 0.24345 0.32353 0.32444 0.0
C1063 C 0.22309 0.33433 0.34365 0.0
C1064 C 0.05106 0.08609 0.18428 0.0
C1065 C 1.02201 0.0888 0.18668 0.0
C1066 C 0.06479 0.08545 0.15463 0.0
C1067 C 0.05108 0.08662 0.12309 0.0
H1068 H 0.06403 0.08435 0.20628 0.0
H1069 H 0.08692 0.08385 0.15669 0.0
S1070 S 0.97502 0.09439 0.1125 0.0
N1071 N 0.98049 0.09326 0.15193 0.0
N1072 N 1.00522 0.09178 0.0979 0.0
C1073 C 1.02206 0.08971 0.12491 0.0
C1074 C 1.00805 0.09076 0.1555 0.0
C1075 C 0.28946 0.6855 0.44333 0.0
C1076 C 0.28985 0.69915 0.47643 0.0
C1077 C 0.28001 0.70098 0.41853 0.0
C1078 C 0.27082 0.7306 0.42629 0.0
H1079 H 0.29876 0.66445 0.43663 0.0
H1080 H 0.28293 0.69189 0.39353 0.0
S1081 S 0.26088 0.77185 0.50838 0.0
N1082 N 0.2753 0.74094 0.51491 0.0
N1083 N 0.257 0.76902 0.46831 0.0
C1084 C 0.26712 0.74159 0.45872 0.0
C1085 C 0.27719 0.72636 0.48395 0.0
C1086 C 0.6494 0.03466 0.64485 0.0
C1087 C 0.66981 0.064 0.65751 0.0
C1088 C 0.62598 0.03516 0.62285 0.0
C1089 C 0.62374 0.06469 0.61271 0.0
H1090 H 0.64894 1.01312 0.65605 0.0
H1091 H 0.6089 1.01316 0.61541 0.0
S1092 S 0.67738 0.14472 0.63121 0.0
N1093 N 0.69126 0.12 0.65158 0.0
N1094 N 0.64659 0.12191 0.61151 0.0
C1095 C 0.64683 0.09238 0.62074 0.0
C1096 C 0.67091 0.09127 0.64197 0.0
C1097 C 0.3694 0.40037 0.93585 0.0
C1098 C 0.37424 0.38233 0.96075 0.0
C1099 C 0.36462 0.38567 0.90232 0.0
C1100 C 0.36499 0.35226 0.89156 0.0
H1101 H 0.36861 0.42615 0.94222 0.0
H1102 H 0.36036 0.40071 0.88452 0.0
S1103 S 0.37599 0.29326 0.94587 0.0
N1104 N 0.37849 0.3284 0.97165 0.0
N1105 N 0.37023 0.3012 0.9086 0.0
C1106 C 0.37023 0.33385 0.91588 0.0
C1107 C 0.37467 0.34873 0.95034 0.0
C1108 C 0.99987 0.07682 0.39422 0.0
C1109 C 1.01329 0.08868 0.36804 0.0
C1110 C 1.01533 0.07151 0.42384 0.0
C1111 C 0.04576 0.07759 0.43031 0.0
H1112 H 0.97681 0.07122 0.39181 0.0
H1113 H 1.00302 0.06247 0.44213 0.0
S1114 S 0.09265 0.11238 0.37269 0.0
N1115 N 0.06031 0.10822 0.3532 0.0
N1116 N 0.08832 0.09898 0.40734 0.0
C1117 C 0.05946 0.09016 0.40476 0.0
C1118 C 0.04376 0.09535 0.37451 0.0
C1119 C 0.35266 0.75726 0.64464 0.0
C1120 C 0.3393 0.72417 0.64439 0.0
C1121 C 0.3517 0.78229 0.67056 0.0
C1122 C 0.33884 0.77471 0.69785 0.0
H1123 H 0.36044 0.76436 0.62274 0.0
H1124 H 0.36059 0.8077 0.66881 0.0
S1125 S 0.3077 0.69076 0.71249 0.0
N1126 N 0.31643 0.68438 0.67504 0.0
N1127 N 0.31752 0.73116 0.72591 0.0
C1128 C 0.32871 0.74123 0.69968 0.0
C1129 C 0.32854 0.7159 0.67253 0.0
C1130 C 0.67481 0.1045 0.84365 0.0
C1131 C 0.69448 0.12427 0.8287 0.0
C1132 C 0.66592 0.11797 0.87233 0.0
C1133 C 0.67603 0.15174 0.88643 0.0
H1134 H 0.66648 0.07847 0.83327 0.0
H1135 H 0.65067 0.10194 0.88343 0.0
S1136 S 0.72371 0.21438 0.85278 0.0
N1137 N 0.72227 0.1791 0.82791 0.0
N1138 N 0.70375 0.20527 0.88142 0.0
C1139 C 0.69471 0.17207 0.87095 0.0
C1140 C 0.7045 0.15801 0.84211 0.0
C1141 C 0.36069 0.39173 0.1658 0.0
C1142 C 0.36231 0.37113 0.13567 0.0
C1143 C 0.35193 0.37843 0.19387 0.0
C1144 C 0.3437 0.34382 0.19305 0.0
H1145 H 0.36677 0.41833 0.168 0.0
H1146 H 0.35114 0.39542 0.21606 0.0
S1147 S 0.34299 0.2791 0.12004 0.0
N1148 N 0.35422 0.31415 0.10755 0.0
N1149 N 0.33768 0.28978 0.15838 0.0
C1150 C 0.34495 0.32337 0.16285 0.0
C1151 C 0.35418 0.33674 0.13491 0.0
C1152 C 0.30603 0.03389 0.06467 0.0
C1153 C 0.30539 1.02125 0.03125 0.0
C1154 C 0.28305 0.0459 0.07598 0.0
C1155 C 0.25895 0.04587 0.05407 0.0
H1156 H 0.32395 0.03352 0.08222 0.0
H1157 H 0.28397 0.05478 0.10203 0.0
S1158 S 0.24843 1.01648 0.96364 0.0
N1159 N 0.27949 1.00926 0.97643 0.0
N1160 N 0.23707 0.03356 0.99684 0.0
C1161 C 0.25862 0.03369 0.02038 0.0
C1162 C 0.28167 1.02093 1.00919 0.0
C1163 C 0.70224 0.67075 0.03222 0.0
C1164 C 0.71911 0.66875 1.00636 0.0
C1165 C 0.67718 0.6462 0.03274 0.0
C1166 C 0.66686 0.61862 1.00689 0.0
H1167 H 0.70855 0.69161 0.0525 0.0
H1168 H 0.66551 0.64925 0.05347 0.0
S1169 S 0.70269 0.60149 0.9329 0.0
N1170 N 0.72355 0.63616 0.95438 0.0
N1171 N 0.67639 0.59124 0.9544 0.0
C1172 C 0.68362 0.61634 0.98086 0.0
C1173 C 0.70958 0.64093 0.98082 0.0
C1174 C 0.76855 0.44822 0.26036 0.0
C1175 C 0.75741 0.46186 0.28914 0.0
C1176 C 0.78461 0.42181 0.25834 0.0
C1177 C 0.79166 0.40545 0.28484 0.0
H1178 H 0.76477 0.45813 0.23842 0.0
H1179 H 0.79153 0.41396 0.23503 0.0
S1180 S 0.77253 0.43328 0.36807 0.0
N1181 N 0.75843 0.45678 0.34624 0.0
N1182 N 0.78713 0.40938 0.34258 0.0
C1183 C 0.78129 0.41942 0.31393 0.0
C1184 C 0.76499 0.44635 0.316 0.0
C1185 C 0.95935 0.5147 0.52407 0.0
C1186 C 0.9482 0.48634 0.49976 0.0
C1187 C 0.98855 0.52885 0.52955 0.0
C1188 C 1.00712 0.51543 0.51032 0.0
H1189 H 0.94563 0.52516 0.53978 0.0
H1190 H 0.99661 0.55052 0.54875 0.0
S1191 S 0.98843 0.44205 0.4435 0.0
N1192 N 0.95779 0.44536 0.45651 0.0
N1193 N 1.01284 0.47315 0.46611 0.0
C1194 C 0.99625 0.48772 0.48555 0.0
C1195 C 0.96666 0.47281 0.48045 0.0
C1196 C 0.43345 0.13367 0.27877 0.0
C1197 C 0.42201 0.10573 0.29177 0.0
C1198 C 0.41559 0.15098 0.26411 0.0
C1199 C 0.3858 0.1404 0.26145 0.0
H1200 H 0.45632 0.14298 0.281 0.0
H1201 H 0.42505 0.17352 0.2561 0.0
S1202 S 0.34509 0.06786 0.28955 0.0
N1203 N 0.37885 0.06751 0.2995 0.0
N1204 N 0.34555 0.09997 0.27149 0.0
C1205 C 0.37411 0.11165 0.27271 0.0
C1206 C 0.39216 0.09432 0.28806 0.0
C1207 C 0.4074 0.20583 0.52166 0.0
C1208 C 0.38124 0.19394 0.53258 0.0
C1209 C 0.43154 0.19326 0.52945 0.0
C1210 C 0.43062 0.16871 0.54894 0.0
H1211 H 0.40891 0.22384 0.50575 0.0
H1212 H 0.45084 0.20208 0.51931 0.0
S1213 S 0.36844 0.13335 0.58794 0.0
N1214 N 0.3569 0.15916 0.56703 0.0
N1215 N 0.40187 0.13562 0.58158 0.0
C1216 C 0.40514 0.15851 0.56193 0.0
C1217 C 0.38058 0.17103 0.55372 0.0
C1218 C 0.78668 0.66127 0.30547 0.0
C1219 C 0.75658 0.65782 0.30064 0.0
C1220 C 0.80703 0.69141 0.30362 0.0
C1221 C 0.79943 0.72106 0.29672 0.0
H1222 H 0.79486 0.64042 0.31093 0.0
H1223 H 0.82944 0.69131 0.30768 0.0
S1224 S 0.7238 0.72573 0.27798 0.0
N1225 N 0.72094 0.68821 0.28616 0.0
N1226 N 0.75831 0.74256 0.28237 0.0
C1227 C 0.76951 0.71773 0.29103 0.0
C1228 C 0.74872 0.68719 0.29305 0.0
C1229 C 0.9108 0.4732 0.82608 0.0
C1230 C 0.93842 0.46698 0.82712 0.0
C1231 C 0.88707 0.44943 0.80974 0.0
C1232 C 0.89028 0.41905 0.79341 0.0
H1233 H 0.90719 0.49622 0.83891 0.0
H1234 H 0.86599 0.45403 0.81157 0.0
S1235 S 0.95737 0.39096 0.78567 0.0
N1236 N 0.96748 0.42866 0.8081 0.0
N1237 N 0.9224 0.38398 0.77696 0.0
C1238 C 0.91765 0.41312 0.7921 0.0
C1239 C 0.94191 0.43708 0.80922 0.0
C1240 C 0.14306 0.95752 0.1065 0.0
C1241 C 0.12931 0.92379 0.09526 0.0
C1242 C 0.13525 0.98362 0.0922 0.0
C1243 C 0.11252 0.97821 0.0661 0.0
H1244 H 0.1604 0.96396 0.12657 0.0
H1245 H 0.14721 1.00865 0.1022 0.0
S1246 S 0.06751 0.89468 0.02875 0.0
N1247 N 0.09064 0.88686 0.05653 0.0
N1248 N 0.07557 0.9352 0.03085 0.0
C1249 C 0.09814 0.94454 0.05503 0.0
C1250 C 0.10654 0.91781 0.06918 0.0
C1251 C 0.95734 0.33361 0.87932 0.0
C1252 C 0.9612 0.30336 0.88802 0.0
C1253 C 0.93303 0.3356 0.85772 0.0
C1254 C 0.91094 0.30741 0.8436 0.0
H1255 H 0.97317 0.3562 0.88968 0.0
H1256 H 0.93177 0.3594 0.85177 0.0
S1257 S 0.90908 0.22275 0.85997 0.0
N1258 N 0.93931 0.24508 0.88164 0.0
N1259 N 0.8948 0.24843 0.84142 0.0
C1260 C 0.91457 0.27726 0.85239 0.0
C1261 C 0.9391 0.27534 0.87443 0.0
C1262 C 0.63541 0.23152 0.55145 0.0
C1263 C 0.6276 0.24773 0.58053 0.0
C1264 C 0.62722 0.19686 0.54116 0.0
C1265 C 0.61031 0.17684 0.55904 0.0
H1266 H 0.64829 0.24565 0.53653 0.0
H1267 H 0.63413 0.18565 0.51897 0.0
S1268 S 0.58458 0.20565 0.63708 0.0
N1269 N 0.60229 0.23996 0.62735 0.0
N1270 N 0.58651 0.17524 0.60743 0.0
C1271 C 0.60204 0.19243 0.58781 0.0
C1272 C 0.61074 0.22768 0.59868 0.0
C1273 C 0.6453 0.80269 0.41185 0.0
C1274 C 0.62357 0.81909 0.40487 0.0
C1275 C 0.67128 0.80954 0.39878 0.0
C1276 C 0.67673 0.83343 0.37859 0.0
H1277 H 0.64195 0.78388 0.42684 0.0
H1278 H 0.68712 0.79575 0.4043 0.0
S1279 S 0.62771 0.88653 0.35738 0.0
N1280 N 0.6101 0.86253 0.37976 0.0
N1281 N 0.6583 0.87538 0.35492 0.0
C1282 C 0.65552 0.85125 0.37316 0.0
C1283 C 0.62913 0.84405 0.3863 0.0
C1284 C 0.12704 0.2821 0.42769 0.0
C1285 C 0.15074 0.30424 0.4477 0.0
C1286 C 0.11042 0.2562 0.43981 0.0
C1287 C 0.11693 0.25237 0.47232 0.0
H1288 H 0.12029 0.28598 0.40339 0.0
H1289 H 0.092 0.23989 0.42421 0.0
S1290 S 0.17742 0.30199 0.53349 0.0
N1291 N 0.18066 0.31878 0.5006 0.0
N1292 N 0.14904 0.27103 0.52337 0.0
C1293 C 0.14102 0.27341 0.49186 0.0
C1294 C 0.1581 0.29905 0.47951 0.0
C1295 C 0.62916 0.24919 0.19005 0.0
C1296 C 0.61 0.26922 0.19771 0.0
C1297 C 0.65409 0.25242 0.21125 0.0
C1298 C 0.66072 0.27587 0.2406 0.0
H1299 H 0.62494 0.23106 0.16744 0.0
H1300 H 0.66871 0.23699 0.20432 0.0
S1301 S 0.61758 0.33397 0.27222 0.0
N1302 N 0.59894 0.31288 0.2371 0.0
N1303 N 0.64644 0.31908 0.27681 0.0
C1304 C 0.6416 0.29557 0.24907 0.0
C1305 C 0.61599 0.29216 0.2276 0.0
C1306 C 0.64374 0.98683 0.93822 0.0
C1307 C 0.66604 0.97331 0.95039 0.0
C1308 C 0.62929 1.00512 0.95979 0.0
C1309 C 0.6364 1.00992 0.99413 0.0
H1310 H 0.63623 0.98147 0.91217 0.0
H1311 H 0.61215 1.01495 0.94959 0.0
S1312 S 0.69272 0.97862 0.03795 0.0
N1313 N 0.69469 0.96665 0.99875 0.0
N1314 N 0.66696 0.9988 0.03883 0.0
C1315 C 0.65878 0.9966 1.00626 0.0
C1316 C 0.67386 0.97916 0.98453 0.0
C1317 C 0.9623 0.80128 0.74266 0.0
C1318 C 0.95609 0.77513 0.71533 0.0
C1319 C 0.94075 0.80971 0.76031 0.0
C1320 C 0.91235 0.79159 0.75183 0.0
H1321 H 0.98392 0.81595 0.7499 0.0
H1322 H 0.94637 0.83056 0.78064 0.0
S1323 S 0.8853 0.72044 0.68225 0.0
N1324 N 0.91984 0.73138 0.68037 0.0
N1325 N 0.87932 0.74605 0.7139 0.0
C1326 C 0.90605 0.76495 0.7247 0.0
C1327 C 0.92791 0.75704 0.70631 0.0
C1328 C 0.14838 0.02833 0.88621 0.0
C1329 C 0.17328 0.05286 0.88361 0.0
C1330 C 0.13227 0.02897 0.91436 0.0
C1331 C 0.1383 0.05475 0.94324 0.0
H1332 H 0.14112 1.00752 0.86602 0.0
H1333 H 0.11424 1.00846 0.9131 0.0
S1334 S 0.19971 0.1275 0.95058 0.0
N1335 N 0.20189 0.10519 0.91477 0.0
N1336 N 0.17214 0.10695 0.96495 0.0
C1337 C 0.16275 0.07993 0.94071 0.0
C1338 C 0.17965 0.07887 0.91229 0.0
C1339 C 0.90075 0.42434 0.58647 0.0
C1340 C 0.88139 0.44495 0.58965 0.0
C1341 C 0.91132 0.41288 0.61345 0.0
C1342 C 0.90228 0.42141 0.64398 0.0
H1343 H 0.90546 0.41437 0.56248 0.0
H1344 H 0.92305 0.39362 0.60917 0.0
S1345 S 0.86009 0.48381 0.66637 0.0
N1346 N 0.85988 0.48054 0.62633 0.0
N1347 N 0.8796 0.45862 0.6777 0.0
C1348 C 0.88733 0.4468 0.64843 0.0
C1349 C 0.87664 0.45857 0.62085 0.0
C1350 C 0.52143 0.0963 0.43115 0.0
C1351 C 0.52623 0.08296 0.39952 0.0
C1352 C 0.53888 0.09368 0.45883 0.0
C1353 C 0.56057 0.07656 0.45535 0.0
H1354 H 0.50437 0.10907 0.43457 0.0
H1355 H 0.53591 0.10568 0.48285 0.0
S1356 S 0.58139 0.03529 0.37964 0.0
N1357 N 0.55612 0.05327 0.36741 0.0
N1358 N 0.58495 0.04375 0.41997 0.0
C1359 C 0.56488 0.06183 0.42459 0.0
C1360 C 0.54869 0.06628 0.3964 0.0
C1361 C 0.80512 0.75092 0.12975 0.0
C1362 C 0.81483 0.77262 0.1087 0.0
C1363 C 0.80946 0.76145 0.16432 0.0
C1364 C 0.82401 0.794 0.17936 0.0
H1365 H 0.79345 0.72583 0.11942 0.0
H1366 H 0.8015 0.7439 0.17942 0.0
S1367 S 0.85674 0.85925 0.13582 0.0
N1368 N 0.84133 0.82766 0.106 0.0
N1369 N 0.85024 0.84679 0.17044 0.0
C1370 C 0.8348 0.81542 0.15869 0.0
C1371 C 0.82996 0.80496 0.12358 0.0
C1372 C 0.15355 0.08431 0.69045 0.0
C1373 C 0.16558 0.05731 0.69757 0.0
C1374 C 0.1396 0.08623 0.65888 0.0
C1375 C 0.13584 0.06128 0.63037 0.0
H1376 H 0.15468 0.10506 0.71007 0.0
H1377 H 0.13141 0.10802 0.65703 0.0
S1378 S 0.16216 0.98384 0.63223 0.0
N1379 N 0.17177 1.00406 0.67054 0.0
N1380 N 0.14622 1.00745 0.61239 0.0
C1381 C 0.14784 0.03393 0.63652 0.0
C1382 C 0.1623 0.032 0.66914 0.0
C1383 C 0.85901 0.42265 0.39978 0.0
C1384 C 0.85248 0.41355 0.42949 0.0
C1385 C 0.86194 0.39884 0.37343 0.0
C1386 C 0.85844 0.36528 0.37605 0.0
H1387 H 0.86149 0.44811 0.39671 0.0
H1388 H 0.86573 0.40655 0.35041 0.0
S1389 S 0.84318 0.32928 0.44945 0.0
N1390 N 0.84361 0.36887 0.4604 0.0
N1391 N 0.85031 0.32472 0.41136 0.0
C1392 C 0.85351 0.35629 0.40618 0.0
C1393 C 0.85006 0.38028 0.43275 0.0
C1394 C 0.49733 0.98318 0.23128 0.0
C1395 C 0.47959 1.00479 0.23981 0.0
C1396 C 0.50283 0.97581 0.19925 0.0
C1397 C 0.49077 0.99001 0.17471 0.0
H1398 H 0.50969 0.97498 0.25008 0.0
H1399 H 0.51985 0.96311 0.19526 0.0
S1400 S 0.43247 0.0345 0.18207 0.0
N1401 N 0.44258 0.03081 0.22003 0.0
N1402 N 0.45253 1.01615 0.15877 0.0
C1403 C 0.46829 1.00547 0.18172 0.0
C1404 C 0.46281 1.01325 0.21471 0.0
C1405 C 0.83028 0.78996 0.93377 0.0
C1406 C 0.81699 0.75596 0.92901 0.0
C1407 C 0.83948 0.80544 0.90757 0.0
C1408 C 0.83543 0.78834 0.87453 0.0
H1409 H 0.83434 0.8048 0.95827 0.0
H1410 H 0.84988 0.8315 0.91346 0.0
S1411 S 0.80108 0.69895 0.8479 0.0
N1412 N 0.80053 0.70557 0.88795 0.0
N1413 N 0.81613 0.73493 0.83918 0.0
C1414 C 0.82162 0.75449 0.8693 0.0
C1415 C 0.81296 0.73838 0.89622 0.0
C1416 C 0.91512 0.14802 0.04555 0.0
C1417 C 0.88653 0.13045 0.04093 0.0
C1418 C 0.93633 0.13363 0.03272 0.0
C1419 C 0.93009 0.10083 1.01484 0.0
H1420 H 0.92115 0.1734 0.05876 0.0
H1421 H 0.95783 0.14867 0.0367 0.0
S1422 S 0.8576 0.04539 0.99305 0.0
N1423 N 0.85242 0.07956 1.01488 0.0
N1424 N 0.89229 0.05187 0.99192 0.0
C1425 C 0.90129 0.08323 1.00944 0.0
C1426 C 0.87961 0.09807 0.02238 0.0
C1427 C 0.46135 0.49983 0.0383 0.0
C1428 C 0.46198 0.47407 0.05604 0.0
C1429 C 0.4866 0.52356 0.03644 0.0
C1430 C 0.51369 0.52245 0.05187 0.0
H1431 H 0.44138 0.50115 0.025 0.0
H1432 H 0.48494 0.54273 0.02241 0.0
S1433 S 0.52589 0.46446 0.10663 0.0
N1434 N 0.49162 0.45185 0.09253 0.0
N1435 N 0.53833 0.49607 0.08924 0.0
C1436 C 0.51423 0.49783 0.07079 0.0
C1437 C 0.48868 0.47382 0.07273 0.0
C1438 C 0.44083 0.71443 0.78336 0.0
C1439 C 0.42895 0.68028 0.78504 0.0
C1440 C 0.42486 0.74104 0.78479 0.0
C1441 C 0.39502 0.73731 0.78882 0.0
H1442 H 0.46313 0.72099 0.78032 0.0
H1443 H 0.43653 0.76535 0.78267 0.0
S1444 S 0.35232 0.65454 0.79721 0.0
N1445 N 0.38378 0.64646 0.79234 0.0
N1446 N 0.35549 0.69411 0.79581 0.0
C1447 C 0.38317 0.70348 0.79122 0.0
C1448 C 0.39925 0.67635 0.78919 0.0
C1449 C 0.21596 0.62127 0.51646 0.0
C1450 C 0.23432 0.63241 0.546 0.0
C1451 C 0.1868 0.61802 0.51601 0.0
C1452 C 0.17494 0.62361 0.54525 0.0
H1453 H 0.22444 0.61892 0.49327 0.0
H1454 H 0.17361 0.61188 0.49244 0.0
S1455 S 0.21469 0.65266 0.62919 0.0
N1456 N 0.23949 0.6491 0.60516 0.0
N1457 N 0.18396 0.64073 0.60475 0.0
C1458 C 0.19311 0.63306 0.57527 0.0
C1459 C 0.22299 0.63725 0.57557 0.0
C1460 C 0.78105 1.02334 0.74634 0.0
C1461 C 0.7625 0.03363 0.76737 0.0
C1462 C 0.80134 1.00688 0.75707 0.0
C1463 C 0.80394 1.00082 0.78929 0.0
H1464 H 0.77952 0.0275 0.72135 0.0
H1465 H 0.81492 0.99846 0.73993 0.0
S1466 S 0.7622 0.02685 0.8548 0.0
N1467 N 0.74916 0.03955 0.8224 0.0
N1468 N 0.78743 1.00842 0.84273 0.0
C1469 C 0.78623 1.01239 0.81099 0.0
C1470 C 0.76536 0.0288 0.79992 0.0
C1471 C 0.77428 0.93383 0.54003 0.0
C1472 C 0.80204 0.9535 0.54185 0.0
C1473 C 0.74989 0.94644 0.5334 0.0
C1474 C 0.75235 0.97881 0.52727 0.0
H1475 H 0.77138 0.90873 0.54433 0.0
H1476 H 0.72899 0.93079 0.53308 0.0
S1477 S 0.81992 0.03926 0.52609 0.0
N1478 N 0.83022 1.0064 0.53511 0.0
N1479 N 0.78475 0.02958 0.52205 0.0
C1480 C 0.77992 0.99815 0.52782 0.0
C1481 C 0.80463 0.98567 0.53526 0.0
C1482 C 0.4367 0.45292 0.77861 0.0
C1483 C 0.42939 0.48421 0.77746 0.0
C1484 C 0.4163 0.42231 0.77885 0.0
C1485 C 0.38648 0.42001 0.77805 0.0
H1486 H 0.45891 0.45185 0.77948 0.0
H1487 H 0.42421 0.4002 0.77987 0.0
S1488 S 0.3545 0.49359 0.77572 0.0
N1489 N 0.38878 0.50932 0.77599 0.0
N1490 N 0.3514 0.45389 0.77648 0.0
C1491 C 0.3789 0.45114 0.777 0.0
C1492 C 0.3997 0.4822 0.7767 0.0
C1493 C 0.25289 0.7047 0.28698 0.0
C1494 C 0.24961 0.6813 0.25793 0.0
C1495 C 0.27855 0.72749 0.29775 0.0
C1496 C 0.30127 0.72777 0.2793 0.0
H1497 H 0.23552 0.70562 0.30141 0.0
H1498 H 0.27966 0.7466 0.31903 0.0
S1499 S 0.30493 0.66874 0.20459 0.0
N1500 N 0.27211 0.65718 0.21308 0.0
N1501 N 0.32072 0.70088 0.23357 0.0
C1502 C 0.29913 0.70303 0.25179 0.0
C1503 C 0.27303 0.67968 0.24081 0.0
C1504 C 0.58383 0.7206 0.49535 0.0
C1505 C 0.5555 0.71856 0.48107 0.0
C1506 C 0.59226 0.69354 0.50741 0.0
C1507 C 0.57293 0.66265 0.50572 0.0
H1508 H 0.59955 0.74366 0.49802 0.0
H1509 H 0.6142 0.69696 0.51819 0.0
S1510 S 0.49633 0.64406 0.46986 0.0
N1511 N 0.50838 0.6828 0.46621 0.0
N1512 N 0.5238 0.6325 0.48718 0.0
C1513 C 0.54469 0.66045 0.49094 0.0
C1514 C 0.53615 0.68804 0.47924 0.0
C1515 C 0.74568 0.33022 0.67079 0.0
C1516 C 0.72368 0.34641 0.67979 0.0
C1517 C 0.76855 0.32747 0.69383 0.0
C1518 C 0.77146 0.34136 0.72753 0.0
H1519 H 0.74534 0.31939 0.64531 0.0
H1520 H 0.78461 0.31515 0.68489 0.0
S1521 S 0.71883 0.38373 0.76563 0.0
N1522 N 0.70582 0.3742 0.72629 0.0
N1523 N 0.74845 0.37014 0.76887 0.0
C1524 C 0.74918 0.35676 0.73712 0.0
C1525 C 0.72557 0.35895 0.7137 0.0
C1526 C 0.0777 0.40632 0.99893 0.0
C1527 C 0.05063 0.38999 0.98169 0.0
C1528 C 0.08412 0.44048 1.01248 0.0
C1529 C 0.06364 0.45968 1.00954 0.0
H1530 H 0.09445 0.3929 1.0007 0.0
H1531 H 0.10555 0.4521 0.02456 0.0
S1532 S 0.98918 0.42796 0.96747 0.0
N1533 N 1.00314 0.39513 0.96298 0.0
N1534 N 1.01459 0.45878 0.9888 0.0
C1535 C 0.03609 0.44309 0.99347 0.0
C1536 C 0.02978 0.40846 0.97937 0.0
C1537 C 0.0545 0.84533 0.19029 0.0
C1538 C 0.05926 0.8247 0.16224 0.0
C1539 C 0.02868 0.83874 0.2035 0.0
C1540 C 1.00679 0.81071 0.18976 0.0
H1541 H 0.07096 0.86681 0.20223 0.0
H1542 H 1.02614 0.85521 0.22532 0.0
S1543 S 1.00842 0.74858 0.11606 0.0
N1544 N 0.03953 0.77533 0.12055 0.0
N1545 N 0.99152 0.7621 0.14624 0.0
C1546 C 1.01115 0.78982 0.16156 0.0
C1547 C 0.03723 0.79705 0.14756 0.0
C1548 C 0.53482 0.35978 0.11616 0.0
C1549 C 0.55079 0.34081 0.1313 0.0
C1550 C 0.54744 0.38217 0.09747 0.0
C1551 C 0.5764 0.38622 0.09317 0.0
H1552 H 0.51226 0.35658 0.11798 0.0
H1553 H 0.53425 0.39583 0.08554 0.0
S1554 S 0.62768 0.34348 0.12942 0.0
N1555 N 0.59722 0.3284 0.14212 0.0
N1556 N 0.62091 0.37029 0.10663 0.0
C1557 C 0.5927 0.36773 0.10862 0.0
C1558 C 0.57987 0.34507 0.12783 0.0
C1559 C 0.05924 0.39418 0.37387 0.0
C1560 C 0.07559 0.37033 0.37059 0.0
C1561 C 0.03563 0.39155 0.35085 0.0
C1562 C 0.02756 0.36479 0.32427 0.0
H1563 H 0.06479 0.41496 0.3943 0.0
H1564 H 1.0229 0.40988 0.35449 0.0
S1565 S 0.06407 0.29651 0.30447 0.0
N1566 N 0.08332 0.32011 0.33822 0.0
N1567 N 0.0377 0.31436 0.29545 0.0
C1568 C 0.04401 0.3411 0.32031 0.0
C1569 C 0.06848 0.34414 0.34342 0.0
C1570 C 1.00226 0.65241 0.59113 0.0
C1571 C 1.01926 0.67496 0.61789 0.0
C1572 C 1.01383 0.62999 0.57089 0.0
C1573 C 0.04293 0.62963 0.5764 0.0
H1574 H 0.98069 0.65443 0.58378 0.0
H1575 H 1.00035 0.61467 0.54927 0.0
S1576 S 0.09566 0.68096 0.6456 0.0
N1577 N 0.06578 0.69297 0.65106 0.0
N1578 N 0.08773 0.65131 0.61264 0.0
C1579 C 0.05949 0.64976 0.60488 0.0
C1580 C 0.04754 0.67227 0.62578 0.0
C1581 C 0.73184 0.83614 0.85818 0.0
C1582 C 0.72357 0.86577 0.8554 0.0
C1583 C 0.75123 0.82487 0.83857 0.0
C1584 C 0.76331 0.84314 0.81592 0.0
H1585 H 0.72315 0.82152 0.87547 0.0
H1586 H 0.75755 0.80229 0.84199 0.0
S1587 S 0.7477 0.9217 0.79871 0.0
N1588 N 0.72786 0.91238 0.8274 0.0
N1589 N 0.76507 0.89192 0.7915 0.0
C1590 C 0.75501 0.87267 0.81285 0.0
C1591 C 0.73487 0.88376 0.83231 0.0
C1592 C 0.55073 0.60345 0.68648 0.0
C1593 C 0.52067 0.59092 0.6866 0.0
C1594 C 0.56533 0.60267 0.65734 0.0
C1595 C 0.55211 0.58749 0.62456 0.0
H1596 H 0.56376 0.61399 0.70992 0.0
H1597 H 0.588 0.61361 0.66097 0.0
S1598 S 0.47401 0.54793 0.60822 0.0
N1599 N 0.47873 0.56148 0.6483 0.0
N1600 N 0.5054 0.55855 0.59563 0.0
C1601 C 0.52211 0.57417 0.62412 0.0
C1602 C 0.50697 0.57598 0.6539 0.0
C1603 C 0.79154 0.19002 0.94979 0.0
C1604 C 0.80852 0.21007 0.97807 0.0
C1605 C 0.776 0.20403 0.92802 0.0
C1606 C 0.77633 0.23805 0.93484 0.0
H1607 H 0.79086 0.16378 0.94407 0.0
H1608 H 0.76554 0.18893 0.90469 0.0
S1609 S 0.81475 0.3002 1.00708 0.0
N1610 N 0.82414 0.26561 1.01168 0.0
N1611 N 0.79175 0.29022 0.97326 0.0
C1612 C 0.79065 0.25727 0.96465 0.0
C1613 C 0.80803 0.24389 0.98535 0.0
C1614 C 0.13925 0.53512 0.15351 0.0
C1615 C 0.16351 0.56109 0.16187 0.0
C1616 C 0.11892 0.53461 0.1273 0.0
C1617 C 0.12274 0.55997 0.1091 0.0
H1618 H 0.13414 0.51785 0.16983 0.0
H1619 H 0.09918 0.51583 0.12297 0.0
S1620 S 0.18624 0.62936 0.11767 0.0
N1621 N 0.19336 0.6088 0.14672 0.0
N1622 N 0.15454 0.60909 0.09823 0.0
C1623 C 0.14877 0.58366 0.11471 0.0
C1624 C 0.16965 0.58358 0.14082 0.0
C1625 C 0.85429 0.84862 0.44913 0.0
C1626 C 0.87395 0.87905 0.46177 0.0
C1627 C 0.84972 0.83447 0.41521 0.0
C1628 C 0.86535 0.84948 0.39262 0.0
H1629 H 0.84135 0.83643 0.4653 0.0
H1630 H 0.83351 0.81183 0.40651 0.0
S1631 S 0.91937 0.9291 0.41292 0.0
N1632 N 0.90877 0.92377 0.44852 0.0
N1633 N 0.90129 0.89651 0.38566 0.0
C1634 C 0.88553 0.87938 0.40512 0.0
C1635 C 0.88953 0.89428 0.43936 0.0
C1636 C 0.50499 0.56113 0.88546 0.0
C1637 C 0.5139 0.58816 0.8691 0.0
C1638 C 0.52102 0.55581 0.91481 0.0
C1639 C 0.54714 0.57755 0.93146 0.0
H1640 H 0.48531 0.54328 0.87517 0.0
H1641 H 0.51229 0.53444 0.92502 0.0
S1642 S 0.58115 0.65248 0.90031 0.0
N1643 N 0.55231 0.63658 0.87316 0.0
N1644 N 0.58053 0.62796 0.92747 0.0
C1645 C 0.55608 0.60481 0.91553 0.0
C1646 C 0.54029 0.60962 0.88509 0.0
C1647 C 0.79454 0.24006 0.1531 0.0
C1648 C 0.8149 0.22209 0.14293 0.0
C1649 C 0.80146 0.26567 0.18032 0.0
C1650 C 0.82803 0.27233 0.19927 0.0
H1651 H 0.77444 0.23707 0.13769 0.0
H1652 H 0.78639 0.28088 0.18597 0.0
S1653 S 0.88341 0.2234 0.19099 0.0
N1654 N 0.85908 0.20669 0.15875 0.0
N1655 N 0.87155 0.25359 0.21178 0.0
C1656 C 0.84636 0.25072 0.19287 0.0
C1657 C 0.83966 0.22534 0.16442 0.0
C1658 C 0.18465 0.65372 0.33088 0.0
C1659 C 0.20541 0.635 0.33188 0.0
C1660 C 0.17428 0.66533 0.3594 0.0
C1661 C 0.18316 0.65647 0.38902 0.0
H1662 H 0.17432 0.65676 0.30781 0.0
H1663 H 0.15585 0.67605 0.35695 0.0
S1664 S 0.24169 0.61477 0.40547 0.0
N1665 N 0.23902 0.6146 0.36569 0.0
N1666 N 0.21816 0.635 0.41941 0.0
C1667 C 0.20728 0.64293 0.39129 0.0
C1668 C 0.21843 0.63186 0.36234 0.0
C1669 C 0.85751 0.89103 0.6649 0.0
C1670 C 0.86194 0.8703 0.63615 0.0
C1671 C 0.8485 0.87817 0.69312 0.0
C1672 C 0.84293 0.84379 0.69398 0.0
H1673 H 0.86139 0.91747 0.66585 0.0
H1674 H 0.84529 0.89528 0.714 0.0
S1675 S 0.85025 0.77855 0.62533 0.0
N1676 N 0.85919 0.81314 0.61127 0.0
N1677 N 0.84264 0.78976 0.66259 0.0
C1678 C 0.84711 0.82316 0.66529 0.0
C1679 C 0.85643 0.83607 0.63711 0.0
C1680 C 0.79693 0.54843 0.52243 0.0
C1681 C 0.80528 0.52221 0.53439 0.0
C1682 C 0.77472 0.56128 0.53461 0.0
C1683 C 0.76071 0.54869 0.55944 0.0
H1684 H 0.80663 0.55796 0.50259 0.0
H1685 H 0.7679 0.58066 0.52398 0.0
S1686 S 0.77675 0.48182 0.60065 0.0
N1687 N 0.79933 0.48518 0.57347 0.0
N1688 N 0.75783 0.50982 0.59677 0.0
C1689 C 0.76979 0.52343 0.5726 0.0
C1690 C 0.79209 0.51006 0.55991 0.0
C1691 C 0.20168 0.14873 0.4748 0.0
C1692 C 0.21977 0.16768 0.50311 0.0
C1693 C 0.17664 0.12468 0.47671 0.0
C1694 C 0.16762 0.11906 0.50699 0.0
H1695 H 0.20685 0.15256 0.45086 0.0
H1696 H 0.16406 0.1104 0.45407 0.0
S1697 S 0.20822 0.16023 0.5886 0.0
N1698 N 0.22733 0.17749 0.56261 0.0
N1699 N 0.18045 0.13345 0.56606 0.0
C1700 C 0.18567 0.13763 0.53547 0.0
C1701 C 0.21149 0.1616 0.53354 0.0
C1702 C 0.284 0.96472 0.77703 0.0
C1703 C 0.25529 0.9617 0.78504 0.0
C1704 C 0.29989 0.93821 0.77438 0.0
C1705 C 0.28919 0.90488 0.77917 0.0
H1706 H 0.29493 0.98856 0.77282 0.0
H1707 H 0.32145 0.94439 0.76859 0.0
S1708 S 0.2163 0.88154 0.80376 0.0
N1709 N 0.21819 0.92029 0.79962 0.0
N1710 N 0.24651 0.87254 0.79435 0.0
C1711 C 0.2605 0.90144 0.78726 0.0
C1712 C 0.24439 0.9286 0.79027 0.0
C1713 C 0.46163 1.02018 0.02055 0.0
C1714 C 0.45063 0.99084 0.99755 0.0
C1715 C 0.49074 0.03425 0.0256 0.0
C1716 C 0.5092 1.01969 1.00719 0.0
H1717 H 0.44801 0.03119 0.03598 0.0
H1718 H 0.49892 0.05625 0.04439 0.0
S1719 S 0.4904 0.9451 0.9418 0.0
N1720 N 0.45983 0.94907 0.95463 0.0
N1721 N 0.51487 0.97647 0.96385 0.0
C1722 C 0.49833 0.99173 0.98279 0.0
C1723 C 0.46881 0.977 0.97801 0.0
C1724 C 0.89614 0.59027 0.77686 0.0
C1725 C 0.92482 0.60541 0.78909 0.0
C1726 C 0.87801 0.60804 0.76359 0.0
C1727 C 0.88797 0.64152 0.76222 0.0
H1728 H 0.88721 0.56496 0.77891 0.0
H1729 H 0.85563 0.59613 0.7565 0.0
S1730 S 0.96243 0.69082 0.78529 0.0
N1731 N 0.9633 0.65447 0.79485 0.0
N1732 N 0.92909 0.68785 0.76968 0.0
C1733 C 0.91716 0.6561 0.77165 0.0
C1734 C 0.93566 0.63801 0.78514 0.0
C1735 C 0.88042 0.66631 0.04734 0.0
C1736 C 0.8811 0.69205 0.02951 0.0
C1737 C 0.90473 0.65404 0.05437 0.0
C1738 C 0.93073 0.66664 0.04348 0.0
H1739 H 0.86074 0.65506 0.05546 0.0
H1740 H 0.90271 0.63336 0.06705 0.0
S1741 S 0.94496 0.73659 0.99912 0.0
N1742 N 0.91085 0.73169 1.00358 0.0
N1743 N 0.95644 0.70846 1.01667 0.0
C1744 C 0.93217 0.69354 0.02714 0.0
C1745 C 0.90744 0.7063 0.02023 0.0
C1746 C 0.25951 0.19027 0.82129 0.0
C1747 C 0.25806 0.15814 0.80222 0.0
C1748 C 0.2788 0.22048 0.81763 0.0
C1749 C 0.29821 0.2215 0.79407 0.0
H1750 H 0.24543 0.19224 0.83979 0.0
H1751 H 0.27879 0.24325 0.83407 0.0
S1752 S 0.3011 0.14647 0.73368 0.0
N1753 N 0.27695 0.13148 0.75603 0.0
N1754 N 0.31231 0.1864 0.74932 0.0
C1755 C 0.29642 0.18977 0.77421 0.0
C1756 C 0.27684 0.15905 0.77804 0.0
C1757 C 0.43411 0.95339 0.30262 0.0
C1758 C 0.43696 0.97006 0.33509 0.0
C1759 C 0.40852 0.93249 0.28783 0.0
C1760 C 0.38546 0.92592 0.30565 0.0
H1761 H 0.45178 0.95649 0.28843 0.0
H1762 H 0.40788 0.91902 0.26328 0.0
S1763 S 0.38036 0.96976 0.38867 0.0
N1764 N 0.4134 0.98453 0.38242 0.0
N1765 N 0.36512 0.9426 0.35513 0.0
C1766 C 0.38701 0.94504 0.33694 0.0
C1767 C 0.41304 0.96743 0.35173 0.0
C1768 C 0.6119 0.42006 0.56709 0.0
C1769 C 0.63233 0.42597 0.59557 0.0
C1770 C 0.60384 0.44636 0.55311 0.0
C1771 C 0.6163 0.48027 0.56616 0.0
H1772 H 0.60141 0.39478 0.55588 0.0
H1773 H 0.58777 0.43994 0.53172 0.0
S1774 S 0.67129 0.50959 0.64014 0.0
N1775 N 0.66445 0.46891 0.63607 0.0
N1776 N 0.65077 0.51733 0.60978 0.0
C1777 C 0.63704 0.48623 0.59434 0.0
C1778 C 0.64458 0.4596 0.60895 0.0
C1779 C 0.46101 0.79744 0.35675 0.0
C1780 C 0.46006 0.80294 0.39105 0.0
C1781 C 0.43768 0.79906 0.33354 0.0
C1782 C 0.41217 0.80725 0.34304 0.0
H1783 H 0.47987 0.79151 0.34759 0.0
H1784 H 0.4398 0.79402 0.30771 0.0
S1785 S 0.39771 0.82403 0.42906 0.0
N1786 N 0.42989 0.81648 0.43247 0.0
N1787 N 0.38799 0.82103 0.38949 0.0
C1788 C 0.41118 0.81345 0.37701 0.0
C1789 C 0.4344 0.81092 0.4006 0.0
C1790 C 0.10822 0.72641 0.08877 0.0
C1791 C 0.12931 0.74669 0.07524 0.0
C1792 C 0.09987 0.69175 0.07748 0.0
C1793 C 0.1125 0.67548 0.05247 0.0
H1794 H 0.09808 0.73733 0.10843 0.0
H1795 H 0.08386 0.67745 0.08911 0.0
S1796 S 0.16658 0.71657 1.00628 0.0
N1797 N 0.16101 0.74725 0.0332 0.0
N1798 N 0.14572 0.68259 1.01297 0.0
C1799 C 0.13303 0.69533 0.03816 0.0
C1800 C 0.14127 0.73066 0.04922 0.0
C1801 C 0.14714 0.30668 0.9168 0.0
C1802 C 0.12311 0.31712 0.90436 0.0
C1803 C 0.17307 0.31329 0.90348 0.0
C1804 C 0.17621 0.33146 0.87793 0.0
H1805 H 0.14563 0.2925 0.93624 0.0
H1806 H 0.19073 0.30392 0.9131 0.0
S1807 S 0.1207 0.36838 0.84037 0.0
N1808 N 0.10493 0.34905 0.86738 0.0
N1809 N 0.15328 0.36197 0.84285 0.0
C1810 C 0.1527 0.34358 0.86678 0.0
C1811 C 0.1263 0.33629 0.87984 0.0
C1812 C 0.62639 0.77994 0.92891 0.0
C1813 C 0.63959 0.80895 0.9518 0.0
C1814 C 0.61342 0.75104 0.93964 0.0
C1815 C 0.61279 0.75109 0.97331 0.0
H1816 H 0.62463 0.78015 0.90288 0.0
H1817 H 0.60299 0.72912 0.92167 0.0
S1818 S 0.64631 0.81962 0.04263 0.0
N1819 N 0.65362 0.83451 1.00949 0.0
N1820 N 0.62783 0.78133 0.0291 0.0
C1821 C 0.62691 0.7794 0.99611 0.0
C1822 C 0.64081 0.808 0.98548 0.0
C1823 C 0.11258 0.75403 0.71787 0.0
C1824 C 0.10783 0.78036 0.70309 0.0
C1825 C 0.13726 0.75779 0.73984 0.0
C1826 C 0.15757 0.78809 0.74773 0.0
H1827 H 0.09777 0.73009 0.71141 0.0
H1828 H 0.14142 0.73627 0.74882 0.0
S1829 S 0.15098 0.8663 0.72106 0.0
N1830 N 0.12227 0.83877 0.70163 0.0
N1831 N 0.16896 0.84608 0.74301 0.0
C1832 C 0.15151 0.81536 0.73536 0.0
C1833 C 0.12648 0.81142 0.71293 0.0
C1834 C 0.12709 0.45182 0.46612 0.0
C1835 C 0.14845 0.46162 0.44673 0.0
C1836 C 0.11565 0.47457 0.48566 0.0
C1837 C 0.12478 0.50851 0.48684 0.0
H1838 H 0.11922 0.42642 0.46733 0.0
H1839 H 0.10019 0.46544 0.50108 0.0
S1840 S 0.17963 0.54825 0.44074 0.0
N1841 N 0.17779 0.50824 0.42942 0.0
N1842 N 0.1559 0.55144 0.46636 0.0
C1843 C 0.14515 0.51912 0.46665 0.0
C1844 C 0.15704 0.49561 0.44653 0.0
C1845 C 0.46504 0.29359 0.24693 0.0
C1846 C 0.45881 0.27362 0.2153 0.0
C1847 C 0.44324 0.30243 0.26405 0.0
C1848 C 0.41443 0.29071 0.25052 0.0
H1849 H 0.48699 0.30349 0.25805 0.0
H1850 H 0.44898 0.31856 0.2879 0.0
S1851 S 0.38692 0.23677 0.16891 0.0
N1852 N 0.4219 0.24225 0.17138 0.0
N1853 N 0.38092 0.25762 0.20363 0.0
C1854 C 0.40799 0.27001 0.21922 0.0
C1855 C 0.43016 0.26179 0.20158 0.0
C1856 C 0.68445 0.56935 0.41705 0.0
C1857 C 0.67318 0.55261 0.38384 0.0
C1858 C 0.66791 0.57087 0.44499 0.0
C1859 C 0.63824 0.55492 0.44342 0.0
H1860 H 0.70672 0.58212 0.42178 0.0
H1861 H 0.67906 0.58435 0.46863 0.0
S1862 S 0.59678 0.50628 0.36359 0.0
N1863 N 0.62855 0.51958 0.35293 0.0
N1864 N 0.59928 0.5207 0.40332 0.0
C1865 C 0.62692 0.5377 0.41047 0.0
C1866 C 0.64347 0.53707 0.38192 0.0
C1867 C 0.39968 0.95061 0.10236 0.0
C1868 C 0.37175 0.93489 0.08719 0.0
C1869 C 0.41284 0.93803 0.12723 0.0
C1870 C 0.3982 0.90977 0.13704 0.0
H1871 H 0.41207 0.97105 0.09337 0.0
H1872 H 0.43459 0.9495 0.138 0.0
S1873 S 0.32537 0.85972 0.10413 0.0
N1874 N 0.33008 0.89045 0.08383 0.0
N1875 N 0.35495 0.86621 0.12991 0.0
C1876 C 0.37018 0.89443 0.12243 0.0
C1877 C 0.35678 0.90742 0.09784 0.0
C1878 C 1.00571 0.5564 0.92738 0.0
C1879 C 1.00684 0.58692 0.91751 0.0
C1880 C 0.02879 0.55154 0.9471 0.0
C1881 C 0.05333 0.57714 0.95727 0.0
H1882 H 0.98835 0.53527 0.91702 0.0
H1883 H 0.02812 0.52716 0.95275 0.0
S1884 S 0.06315 0.66348 0.9448 0.0
N1885 N 0.03167 0.6443 0.92387 0.0
N1886 N 0.07529 0.63535 0.96171 0.0
C1887 C 0.05331 0.60862 0.95067 0.0
C1888 C 0.02976 0.61353 0.93071 0.0
C1889 C 0.33048 0.26164 0.62497 0.0
C1890 C 0.31015 0.27324 0.60617 0.0
C1891 C 0.33676 0.27195 0.65952 0.0
C1892 C 0.32279 0.29408 0.6773 0.0
H1893 H 0.34185 0.24454 0.61291 0.0
H1894 H 0.35256 0.26209 0.67243 0.0
S1895 S 0.26807 0.33237 0.64034 0.0
N1896 N 0.27638 0.30884 0.60871 0.0
N1897 N 0.28789 0.32753 0.67285 0.0
C1898 C 0.30248 0.30584 0.65885 0.0
C1899 C 0.29629 0.29567 0.6237 0.0
C1900 C 0.68022 0.56733 0.17469 0.0
C1901 C 0.66597 0.54904 0.19676 0.0
C1902 C 0.6663 0.57152 0.14354 0.0
C1903 C 0.63659 0.55855 0.13173 0.0
H1904 H 0.70239 0.57992 0.18213 0.0
H1905 H 0.6791 0.58597 0.12881 0.0
S1906 S 0.58801 0.50938 0.17884 0.0
N1907 N 0.61895 0.51846 0.20278 0.0
N1908 N 0.59388 0.52597 0.14621 0.0
C1909 C 0.62219 0.54014 0.15333 0.0
C1910 C 0.6363 0.53579 0.18485 0.0
C1911 C 0.37524 0.90342 0.92361 0.0
C1912 C 0.35702 0.92558 0.92374 0.0
C1913 C 0.37192 0.87659 0.89782 0.0
C1914 C 0.34996 0.871 0.87187 0.0
H1915 H 0.39162 0.90605 0.9439 0.0
H1916 H 0.38629 0.86002 0.89836 0.0
S1917 S 0.29567 0.9208 0.86248 0.0
N1918 N 0.31675 0.94048 0.89636 0.0
N1919 N 0.30879 0.88871 0.84876 0.0
C1920 C 0.33176 0.89317 0.87174 0.0
C1921 C 0.33583 0.92099 0.89744 0.0
C1922 C 1.02182 0.4992 0.7455 0.0
C1923 C 0.99797 0.51131 0.75361 0.0
C1924 C 0.02647 0.49189 0.7131 0.0
C1925 C 1.00753 0.49656 0.68744 0.0
H1926 H 0.03816 0.49733 0.76432 0.0
H1927 H 0.04671 0.48602 0.70873 0.0
S1928 S 0.93872 0.52047 0.69477 0.0
N1929 N 0.95261 0.52226 0.73294 0.0
N1930 N 0.9616 0.50811 0.67146 0.0
C1931 C 0.98191 0.50476 0.69474 0.0
C1932 C 0.97713 0.51242 0.72798 0.0
C1933 C 0.32588 0.23944 0.39783 0.0
C1934 C 0.317 0.25619 0.42615 0.0
C1935 C 0.3343 0.25533 0.37129 0.0
C1936 C 0.33461 0.28908 0.37154 0.0
H1937 H 0.327 0.21382 0.39638 0.0
H1938 H 0.34168 0.24131 0.35107 0.0
S1939 S 0.31174 0.34425 0.43802 0.0
N1940 N 0.30787 0.30873 0.45093 0.0
N1941 N 0.32382 0.33808 0.40238 0.0
C1942 C 0.32521 0.30581 0.39926 0.0
C1943 C 0.31641 0.28965 0.42598 0.0
C1944 C 0.39741 0.63202 0.5037 0.0
C1945 C 0.38834 0.63444 0.5348 0.0
C1946 C 0.41898 0.61539 0.49618 0.0
C1947 C 0.43256 0.60127 0.51976 0.0
H1948 H 0.3872 0.6422 0.4848 0.0
H1949 H 0.42513 0.61369 0.47179 0.0
S1950 S 0.41732 0.60307 0.60551 0.0
N1951 N 0.39477 0.62262 0.58955 0.0
N1952 N 0.43575 0.59209 0.57595 0.0
C1953 C 0.42405 0.60452 0.55127 0.0
C1954 C 0.40177 0.62087 0.55864 0.0
C1955 C 0.98761 0.96255 0.53941 0.0
C1956 C 0.96183 0.9699 0.54876 0.0
C1957 C 1.01207 0.98753 0.53805 0.0
C1958 C 1.01271 1.02147 0.54707 0.0
H1959 H 0.98902 0.93702 0.53276 0.0
H1960 H 0.03052 0.97999 0.52973 0.0
S1961 S 0.94958 0.05499 0.56681 0.0
N1962 N 0.93771 1.01454 0.56216 0.0
N1963 N 0.98341 0.06091 0.56099 0.0
C1964 C 0.98664 0.02925 0.55475 0.0
C1965 C 0.96149 1.00382 0.5554 0.0
C1966 C 0.90394 0.18005 0.2966 0.0
C1967 C 0.93027 0.18027 0.28302 0.0
C1968 C 0.88852 0.20691 0.29879 0.0
C1969 C 0.89719 0.23758 0.28742 0.0
H1970 H 0.89484 0.15844 0.30625 0.0
H1971 H 0.86906 0.20326 0.30984 0.0
S1972 S 0.96265 0.25199 0.24565 0.0
N1973 N 0.96254 0.21553 0.25561 0.0
N1974 N 0.93474 0.26377 0.25934 0.0
C1975 C 0.92325 0.23796 0.27318 0.0
C1976 C 0.93908 0.2106 0.27112 0.0
C1977 C 0.72228 0.16432 0.06655 0.0
C1978 C 0.73556 0.14832 0.04221 0.0
C1979 C 0.69516 0.14961 0.07251 0.0
C1980 C 0.68093 0.11883 0.05395 0.0
H1981 H 0.73253 0.1889 0.08014 0.0
H1982 H 0.68454 0.16335 0.08973 0.0
S1983 S 0.70835 0.06568 0.99019 0.0
N1984 N 0.73436 0.09917 1.00216 0.0
N1985 N 0.68283 0.07156 1.01248 0.0
C1986 C 0.695 0.10168 0.03125 0.0
C1987 C 0.72263 0.11647 0.02553 0.0
C1988 C 0.2856 0.53579 0.26977 0.0
C1989 C 0.25609 0.52545 0.2702 0.0
C1990 C 0.30472 0.52019 0.28448 0.0
C1991 C 0.29496 0.49354 0.29972 0.0
H1992 H 0.29414 0.55636 0.25833 0.0
H1993 H 0.32724 0.52814 0.28277 0.0
S1994 S 0.22014 0.45779 0.30908 0.0
N1995 N 0.21809 0.48781 0.28859 0.0
N1996 N 0.25439 0.45783 0.31553 0.0
C1997 C 0.26566 0.48321 0.30095 0.0
C1998 C 0.2461 0.49933 0.2863 0.0
C1999 C 0.29031 0.46985 0.06422 0.0
C2000 C 0.29965 0.44863 0.04014 0.0
C2001 C 0.26587 0.48195 0.0571 0.0
C2002 C 0.25031 0.47414 0.02537 0.0
H2003 H 0.30199 0.47719 0.08874 0.0
H2004 H 0.2596 0.49847 0.07638 0.0
S2005 S 0.26661 0.42043 0.95317 0.0
N2006 N 0.29157 0.42036 0.98313 0.0
N2007 N 0.24631 0.44404 0.96953 0.0
C2008 C 0.25954 0.45306 1.00097 0.0
C2009 C 0.28401 0.44006 1.00843 0.0
C2010 C 0.90112 0.98215 0.28244 0.0
C2011 C 0.92979 0.9836 0.2765 0.0
C2012 C 0.88107 0.95158 0.28354 0.0
C2013 C 0.88764 0.91952 0.279 0.0
H2014 H 0.89402 1.00504 0.28689 0.0
H2015 H 0.85982 0.95333 0.28841 0.0
S2016 S 0.9589 0.90742 0.26096 0.0
N2017 N 0.96261 0.94781 0.26458 0.0
N2018 N 0.92594 0.89255 0.26735 0.0
C2019 C 0.91605 0.92055 0.27281 0.0
C2020 C 0.93648 0.95154 0.27143 0.0
C2021 C 0.74298 0.21312 0.77355 0.0
C2022 C 0.74304 0.18244 0.75455 0.0
C2023 C 0.76832 0.23646 0.78468 0.0
C2024 C 0.79416 0.2303 0.77572 0.0
H2025 H 0.72332 0.21903 0.78028 0.0
H2026 H 0.76743 0.2602 0.7988 0.0
S2027 S 0.80619 0.15536 0.72479 0.0
N2028 N 0.77156 0.14753 0.72656 0.0
N2029 N 0.81909 0.19294 0.74658 0.0
C2030 C 0.79477 0.20033 0.75634 0.0
C2031 C 0.76913 0.17607 0.7456 0.0
loop_
_geom_bond_atom_site_label_1
_geom_bond_atom_site_label_2
_geom_bond_distance
_geom_bond_site_symmetry_2
_ccdc_geom_bond_type
Co0 O1 2.216 . S
Co0 O2 2.091 . S
Co0 O4 2.004 . S
Co0 O10 2.021 . S
Co0 O12 2.137 . S
Co0 O13 2.244 . S
O1 Co0 2.216 . S
O1 C8 1.247 . S
O2 Co0 2.091 . S
O2 C8 1.261 . S
C3 O12 1.247 . S
C3 O13 1.272 . S
O4 Co0 2.004 . S
O4 C9 1.259 . S
Co5 O6 2.061 . S
Co5 O11 2.052 . S
Co5 O13 2.135 . S
O6 Co5 2.061 . S
O6 C9 1.235 . S
C7 O10 1.238 . S
C7 O11 1.241 . S
C8 O1 1.247 . S
C8 O2 1.261 . S
C9 O4 1.259 . S
C9 O6 1.235 . S
O10 Co0 2.021 . S
O10 C7 1.238 . S
O11 Co5 2.052 . S
O11 C7 1.241 . S
O12 Co0 2.137 . S
O12 C3 1.247 . S
O13 Co0 2.244 . S
O13 C3 1.272 . S
O13 Co5 2.135 . S
Co14 O15 2.216 . S
Co14 O16 2.091 . S
Co14 O18 2.004 1_655 S
Co14 O24 2.021 . S
Co14 O26 2.138 1_655 S
Co14 O27 2.244 1_655 S
O15 Co14 2.216 . S
O15 C22 1.247 . S
O16 Co14 2.091 . S
O16 C22 1.261 . S
C17 O26 1.248 . S
C17 O27 1.272 . S
O18 Co14 2.004 1_455 S
O18 C23 1.259 . S
Co19 O20 2.061 . S
Co19 O25 2.052 . S
Co19 O27 2.135 . S
O20 Co19 2.061 . S
O20 C23 1.235 . S
C21 O24 1.238 . S
C21 O25 1.241 1_655 S
C22 O15 1.247 . S
C22 O16 1.261 . S
C23 O18 1.259 . S
C23 O20 1.235 . S
O24 Co14 2.021 . S
O24 C21 1.238 . S
O25 Co19 2.052 . S
O25 C21 1.241 1_455 S
O26 Co14 2.138 1_455 S
O26 C17 1.248 . S
O27 Co14 2.244 1_455 S
O27 C17 1.272 . S
O27 Co19 2.135 . S
Co28 O29 2.216 . S
Co28 O30 2.091 . S
Co28 O32 2.004 . S
Co28 O38 2.021 . S
Co28 O40 2.137 . S
Co28 O41 2.244 . S
O29 Co28 2.216 . S
O29 C36 1.247 . S
O30 Co28 2.091 . S
O30 C36 1.261 . S
C31 O40 1.247 . S
C31 O41 1.272 . S
O32 Co28 2.004 . S
O32 C37 1.259 . S
Co33 O34 2.061 . S
Co33 O39 2.052 . S
Co33 O41 2.135 . S
O34 Co33 2.061 . S
O34 C37 1.235 . S
C35 O38 1.238 . S
C35 O39 1.241 . S
C36 O29 1.247 . S
C36 O30 1.261 . S
C37 O32 1.259 . S
C37 O34 1.235 . S
O38 Co28 2.021 . S
O38 C35 1.238 . S
O39 Co33 2.052 . S
O39 C35 1.241 . S
O40 Co28 2.137 . S
O40 C31 1.247 . S
O41 Co28 2.244 . S
O41 C31 1.272 . S
O41 Co33 2.135 . S
Co42 O43 2.216 . S
Co42 O44 2.091 . S
Co42 O46 2.004 . S
Co42 O52 2.021 . S
Co42 O54 2.137 . S
Co42 O55 2.244 . S
O43 Co42 2.216 . S
O43 C50 1.247 . S
O44 Co42 2.091 . S
O44 C50 1.261 . S
C45 O54 1.247 . S
C45 O55 1.272 . S
O46 Co42 2.004 . S
O46 C51 1.259 . S
Co47 O48 2.061 . S
Co47 O53 2.052 . S
Co47 O55 2.135 . S
O48 Co47 2.061 . S
O48 C51 1.235 . S
C49 O52 1.238 . S
C49 O53 1.241 . S
C50 O43 1.247 . S
C50 O44 1.261 . S
C51 O46 1.259 . S
C51 O48 1.235 . S
O52 Co42 2.021 . S
O52 C49 1.238 . S
O53 Co47 2.052 . S
O53 C49 1.241 . S
O54 Co42 2.137 . S
O54 C45 1.247 . S
O55 Co42 2.244 . S
O55 C45 1.272 . S
O55 Co47 2.135 . S
Co56 O57 2.216 . S
Co56 O58 2.091 . S
Co56 O60 2.004 . S
Co56 O66 2.021 . S
Co56 O68 2.137 . S
Co56 O69 2.244 . S
O57 Co56 2.216 . S
O57 C64 1.247 . S
O58 Co56 2.091 . S
O58 C64 1.261 . S
C59 O68 1.247 . S
C59 O69 1.272 . S
O60 Co56 2.004 . S
O60 C65 1.259 . S
Co61 O62 2.061 . S
Co61 O67 2.052 . S
Co61 O69 2.135 . S
O62 Co61 2.061 . S
O62 C65 1.235 . S
C63 O66 1.238 . S
C63 O67 1.241 . S
C64 O57 1.247 . S
C64 O58 1.261 . S
C65 O60 1.259 . S
C65 O62 1.235 . S
O66 Co56 2.021 . S
O66 C63 1.238 . S
O67 Co61 2.052 . S
O67 C63 1.241 . S
O68 Co56 2.137 . S
O68 C59 1.247 . S
O69 Co56 2.244 . S
O69 C59 1.272 . S
O69 Co61 2.135 . S
Co70 O71 2.216 . S
Co70 O72 2.091 . S
Co70 O74 2.004 . S
Co70 O80 2.021 . S
Co70 O82 2.137 . S
Co70 O83 2.244 . S
O71 Co70 2.216 . S
O71 C78 1.247 . S
O72 Co70 2.091 . S
O72 C78 1.261 . S
C73 O82 1.247 . S
C73 O83 1.272 . S
O74 Co70 2.004 . S
O74 C79 1.259 . S
Co75 O76 2.061 . S
Co75 O81 2.052 . S
Co75 O83 2.135 . S
O76 Co75 2.061 . S
O76 C79 1.235 . S
C77 O80 1.238 . S
C77 O81 1.241 . S
C78 O71 1.247 . S
C78 O72 1.261 . S
C79 O74 1.259 . S
C79 O76 1.235 . S
O80 Co70 2.021 . S
O80 C77 1.238 . S
O81 Co75 2.052 . S
O81 C77 1.241 . S
O82 Co70 2.137 . S
O82 C73 1.247 . S
O83 Co70 2.244 . S
O83 C73 1.272 . S
O83 Co75 2.135 . S
Co84 O85 2.216 . S
Co84 O86 2.091 . S
Co84 O88 2.004 . S
Co84 O94 2.021 . S
Co84 O96 2.137 . S
Co84 O97 2.244 . S
O85 Co84 2.216 . S
O85 C92 1.247 . S
O86 Co84 2.091 . S
O86 C92 1.261 . S
C87 O96 1.247 . S
C87 O97 1.272 . S
O88 Co84 2.004 . S
O88 C93 1.259 . S
Co89 O90 2.061 . S
Co89 O95 2.052 . S
Co89 O97 2.135 . S
O90 Co89 2.061 . S
O90 C93 1.235 . S
C91 O94 1.238 . S
C91 O95 1.241 . S
C92 O85 1.247 . S
C92 O86 1.261 . S
C93 O88 1.259 . S
C93 O90 1.235 . S
O94 Co84 2.021 . S
O94 C91 1.238 . S
O95 Co89 2.052 . S
O95 C91 1.241 . S
O96 Co84 2.137 . S
O96 C87 1.247 . S
O97 Co84 2.244 . S
O97 C87 1.272 . S
O97 Co89 2.135 . S
Co98 O99 2.216 . S
Co98 O100 2.091 . S
Co98 O102 2.004 1_455 S
Co98 O108 2.021 . S
Co98 O110 2.137 . S
Co98 O111 2.244 . S
O99 Co98 2.216 . S
O99 C106 1.247 . S
O100 Co98 2.091 . S
O100 C106 1.261 . S
C101 O110 1.247 . S
C101 O111 1.272 . S
O102 Co98 2.004 1_655 S
O102 C107 1.259 . S
Co103 O104 2.061 . S
Co103 O109 2.052 1_655 S
Co103 O111 2.135 1_655 S
O104 Co103 2.061 . S
O104 C107 1.235 . S
C105 O108 1.238 . S
C105 O109 1.241 . S
C106 O99 1.247 . S
C106 O100 1.261 . S
C107 O102 1.259 . S
C107 O104 1.235 . S
O108 Co98 2.021 . S
O108 C105 1.238 . S
O109 Co103 2.052 1_455 S
O109 C105 1.241 . S
O110 Co98 2.137 . S
O110 C101 1.247 . S
O111 Co98 2.244 . S
O111 C101 1.272 . S
O111 Co103 2.135 1_455 S
Co112 O113 2.216 . S
Co112 O114 2.091 . S
Co112 O116 2.004 1_545 S
Co112 O122 2.021 1_545 S
Co112 O124 2.137 . S
Co112 O125 2.258 . S
O113 Co112 2.216 . S
O113 C120 1.247 . S
O114 Co112 2.091 . S
O114 C120 1.261 . S
C115 O124 1.247 . S
C115 O125 1.280 . S
O116 Co112 2.004 1_565 S
O116 C121 1.259 . S
Co117 O118 2.061 . S
Co117 O123 2.052 . S
Co117 O125 2.110 1_565 S
O118 Co117 2.061 . S
O118 C121 1.235 . S
C119 O122 1.238 . S
C119 O123 1.241 . S
C120 O113 1.247 . S
C120 O114 1.261 . S
C121 O116 1.259 . S
C121 O118 1.235 . S
O122 Co112 2.021 1_565 S
O122 C119 1.238 . S
O123 Co117 2.052 . S
O123 C119 1.241 . S
O124 Co112 2.137 . S
O124 C115 1.247 . S
O125 Co112 2.258 . S
O125 C115 1.280 . S
O125 Co117 2.110 1_545 S
Co126 O127 2.216 . S
Co126 O128 2.091 . S
Co126 O130 2.004 . S
Co126 O136 2.021 . S
Co126 O138 2.137 . S
Co126 O139 2.244 . S
O127 Co126 2.216 . S
O127 C134 1.247 . S
O128 Co126 2.091 . S
O128 C134 1.261 . S
C129 O138 1.247 . S
C129 O139 1.272 . S
O130 Co126 2.004 . S
O130 C135 1.259 . S
Co131 O132 2.061 . S
Co131 O137 2.052 . S
Co131 O139 2.135 . S
O132 Co131 2.061 . S
O132 C135 1.235 . S
C133 O136 1.238 . S
C133 O137 1.241 . S
C134 O127 1.247 . S
C134 O128 1.261 . S
C135 O130 1.259 . S
C135 O132 1.235 . S
O136 Co126 2.021 . S
O136 C133 1.238 . S
O137 Co131 2.052 . S
O137 C133 1.241 . S
O138 Co126 2.137 . S
O138 C129 1.247 . S
O139 Co126 2.244 . S
O139 C129 1.272 . S
O139 Co131 2.135 . S
Co140 O141 2.216 1_545 S
Co140 O142 2.091 1_545 S
Co140 O144 2.004 . S
Co140 O150 2.021 . S
Co140 O152 2.137 . S
Co140 O153 2.244 . S
O141 Co140 2.216 1_565 S
O141 C148 1.247 . S
O142 Co140 2.091 1_565 S
O142 C148 1.261 . S
C143 O152 1.247 . S
C143 O153 1.272 . S
O144 Co140 2.004 . S
O144 C149 1.259 . S
Co145 O146 2.061 . S
Co145 O151 2.052 . S
Co145 O153 2.135 . S
O146 Co145 2.061 . S
O146 C149 1.235 . S
C147 O150 1.238 . S
C147 O151 1.241 . S
C148 O141 1.247 . S
C148 O142 1.261 . S
C149 O144 1.259 . S
C149 O146 1.235 . S
O150 Co140 2.021 . S
O150 C147 1.238 . S
O151 Co145 2.052 . S
O151 C147 1.241 . S
O152 Co140 2.137 . S
O152 C143 1.247 . S
O153 Co140 2.244 . S
O153 C143 1.272 . S
O153 Co145 2.135 . S
Co154 O155 2.216 . S
Co154 O156 2.091 1_556 S
Co154 O158 2.004 1_556 S
Co154 O164 2.021 1_556 S
Co154 O166 2.137 . S
Co154 O167 2.244 . S
O155 Co154 2.216 . S
O155 C162 1.247 1_556 S
O156 Co154 2.091 1_554 S
O156 C162 1.261 . S
C157 O166 1.247 . S
C157 O167 1.272 . S
O158 Co154 2.004 1_554 S
O158 C163 1.259 . S
Co159 O160 2.061 1_556 S
Co159 O165 2.052 1_556 S
Co159 O167 2.135 . S
O160 Co159 2.061 1_554 S
O160 C163 1.235 . S
C161 O164 1.238 . S
C161 O165 1.241 . S
C162 O155 1.247 1_554 S
C162 O156 1.261 . S
C163 O158 1.259 . S
C163 O160 1.235 . S
O164 Co154 2.021 1_554 S
O164 C161 1.238 . S
O165 Co159 2.052 1_554 S
O165 C161 1.241 . S
O166 Co154 2.137 . S
O166 C157 1.247 . S
O167 Co154 2.244 . S
O167 C157 1.272 . S
O167 Co159 2.135 . S
Co168 O169 2.216 . S
Co168 O170 2.091 . S
Co168 O172 2.004 . S
Co168 O178 2.021 . S
Co168 O180 2.137 1_554 S
Co168 O181 2.244 1_554 S
O169 Co168 2.216 . S
O169 C176 1.247 . S
O170 Co168 2.091 . S
O170 C176 1.261 . S
C171 O180 1.247 . S
C171 O181 1.272 . S
O172 Co168 2.004 . S
O172 C177 1.259 . S
Co173 O174 2.061 . S
Co173 O179 2.052 . S
Co173 O181 2.135 1_554 S
O174 Co173 2.061 . S
O174 C177 1.235 . S
C175 O178 1.238 . S
C175 O179 1.241 . S
C176 O169 1.247 . S
C176 O170 1.261 . S
C177 O172 1.259 . S
C177 O174 1.235 . S
O178 Co168 2.021 . S
O178 C175 1.238 . S
O179 Co173 2.052 . S
O179 C175 1.241 . S
O180 Co168 2.137 1_556 S
O180 C171 1.247 . S
O181 Co168 2.244 1_556 S
O181 C171 1.272 . S
O181 Co173 2.135 1_556 S
Co182 O183 2.216 . S
Co182 O184 2.091 . S
Co182 O186 2.004 . S
Co182 O192 2.021 . S
Co182 O194 2.137 1_554 S
Co182 O195 2.244 . S
O183 Co182 2.216 . S
O183 C190 1.247 . S
O184 Co182 2.091 . S
O184 C190 1.261 . S
C185 O194 1.247 . S
C185 O195 1.272 1_556 S
O186 Co182 2.004 . S
O186 C191 1.259 . S
Co187 O188 2.061 . S
Co187 O193 2.052 . S
Co187 O195 2.135 . S
O188 Co187 2.061 . S
O188 C191 1.235 . S
C189 O192 1.238 . S
C189 O193 1.241 . S
C190 O183 1.247 . S
C190 O184 1.261 . S
C191 O186 1.259 . S
C191 O188 1.235 . S
O192 Co182 2.021 . S
O192 C189 1.238 . S
O193 Co187 2.052 . S
O193 C189 1.241 . S
O194 Co182 2.137 1_556 S
O194 C185 1.247 . S
O195 Co182 2.244 . S
O195 C185 1.272 1_554 S
O195 Co187 2.135 . S
Co196 O197 2.216 . S
Co196 O198 2.091 . S
Co196 O200 2.004 . S
Co196 O206 2.021 . S
Co196 O208 2.137 . S
Co196 O209 2.244 . S
O197 Co196 2.216 . S
O197 C204 1.247 . S
O198 Co196 2.091 . S
O198 C204 1.261 . S
C199 O208 1.247 . S
C199 O209 1.272 . S
O200 Co196 2.004 . S
O200 C205 1.259 . S
Co201 O202 2.061 . S
Co201 O207 2.052 . S
Co201 O209 2.135 . S
O202 Co201 2.061 . S
O202 C205 1.235 . S
C203 O206 1.238 . S
C203 O207 1.241 . S
C204 O197 1.247 . S
C204 O198 1.261 . S
C205 O200 1.259 . S
C205 O202 1.235 . S
O206 Co196 2.021 . S
O206 C203 1.238 . S
O207 Co201 2.052 . S
O207 C203 1.241 . S
O208 Co196 2.137 . S
O208 C199 1.247 . S
O209 Co196 2.244 . S
O209 C199 1.272 . S
O209 Co201 2.135 . S
Co210 O211 2.216 . S
Co210 O212 2.091 . S
Co210 O214 2.004 . S
Co210 O220 2.021 . S
Co210 O222 2.137 . S
Co210 O223 2.244 . S
O211 Co210 2.216 . S
O211 C218 1.247 . S
O212 Co210 2.091 . S
O212 C218 1.261 . S
C213 O222 1.247 . S
C213 O223 1.272 . S
O214 Co210 2.004 . S
O214 C219 1.259 . S
Co215 O216 2.061 . S
Co215 O221 2.052 . S
Co215 O223 2.135 . S
O216 Co215 2.061 . S
O216 C219 1.235 . S
C217 O220 1.238 . S
C217 O221 1.241 . S
C218 O211 1.247 . S
C218 O212 1.261 . S
C219 O214 1.259 . S
C219 O216 1.235 . S
O220 Co210 2.021 . S
O220 C217 1.238 . S
O221 Co215 2.052 . S
O221 C217 1.241 . S
O222 Co210 2.137 . S
O222 C213 1.247 . S
O223 Co210 2.244 . S
O223 C213 1.272 . S
O223 Co215 2.135 . S
Co224 O225 2.216 . S
Co224 O226 2.091 . S
Co224 O228 2.004 . S
Co224 O234 2.021 . S
Co224 O236 2.137 . S
Co224 O237 2.244 . S
O225 Co224 2.216 . S
O225 C232 1.247 . S
O226 Co224 2.091 . S
O226 C232 1.261 . S
C227 O236 1.247 . S
C227 O237 1.272 . S
O228 Co224 2.004 . S
O228 C233 1.259 . S
Co229 O230 2.061 . S
Co229 O235 2.052 . S
Co229 O237 2.135 . S
O230 Co229 2.061 . S
O230 C233 1.235 . S
C231 O234 1.238 . S
C231 O235 1.241 . S
C232 O225 1.247 . S
C232 O226 1.261 . S
C233 O228 1.259 . S
C233 O230 1.235 . S
O234 Co224 2.021 . S
O234 C231 1.238 . S
O235 Co229 2.052 . S
O235 C231 1.241 . S
O236 Co224 2.137 . S
O236 C227 1.247 . S
O237 Co224 2.244 . S
O237 C227 1.272 . S
O237 Co229 2.135 . S
Co238 O239 2.216 . S
Co238 O240 2.091 . S
Co238 O242 2.004 . S
Co238 O248 2.021 . S
Co238 O250 2.137 . S
Co238 O251 2.244 . S
O239 Co238 2.216 . S
O239 C246 1.247 . S
O240 Co238 2.091 . S
O240 C246 1.261 . S
C241 O250 1.247 . S
C241 O251 1.272 . S
O242 Co238 2.004 . S
O242 C247 1.259 . S
Co243 O244 2.061 . S
Co243 O249 2.052 . S
Co243 O251 2.135 . S
O244 Co243 2.061 . S
O244 C247 1.235 . S
C245 O248 1.238 . S
C245 O249 1.241 . S
C246 O239 1.247 . S
C246 O240 1.261 . S
C247 O242 1.259 . S
C247 O244 1.235 . S
O248 Co238 2.021 . S
O248 C245 1.238 . S
O249 Co243 2.052 . S
O249 C245 1.241 . S
O250 Co238 2.137 . S
O250 C241 1.247 . S
O251 Co238 2.244 . S
O251 C241 1.272 . S
O251 Co243 2.135 . S
Co252 O253 2.216 . S
Co252 O254 2.091 . S
Co252 O256 2.004 . S
Co252 O262 2.021 . S
Co252 O264 2.137 . S
Co252 O265 2.244 . S
O253 Co252 2.216 . S
O253 C260 1.247 . S
O254 Co252 2.091 . S
O254 C260 1.261 . S
C255 O264 1.247 . S
C255 O265 1.272 . S
O256 Co252 2.004 . S
O256 C261 1.259 . S
Co257 O258 2.061 . S
Co257 O263 2.052 . S
Co257 O265 2.135 . S
O258 Co257 2.061 . S
O258 C261 1.235 . S
C259 O262 1.238 . S
C259 O263 1.241 . S
C260 O253 1.247 . S
C260 O254 1.261 . S
C261 O256 1.259 . S
C261 O258 1.235 . S
O262 Co252 2.021 . S
O262 C259 1.238 . S
O263 Co257 2.052 . S
O263 C259 1.241 . S
O264 Co252 2.137 . S
O264 C255 1.247 . S
O265 Co252 2.244 . S
O265 C255 1.272 . S
O265 Co257 2.135 . S
Co266 O267 2.216 . S
Co266 O268 2.091 . S
Co266 O270 2.004 . S
Co266 O276 2.021 . S
Co266 O278 2.137 . S
Co266 O279 2.244 . S
O267 Co266 2.216 . S
O267 C274 1.247 . S
O268 Co266 2.091 . S
O268 C274 1.261 . S
C269 O278 1.247 . S
C269 O279 1.272 . S
O270 Co266 2.004 . S
O270 C275 1.259 . S
Co271 O272 2.061 . S
Co271 O277 2.052 . S
Co271 O279 2.135 . S
O272 Co271 2.061 . S
O272 C275 1.235 . S
C273 O276 1.238 . S
C273 O277 1.241 . S
C274 O267 1.247 . S
C274 O268 1.261 . S
C275 O270 1.259 . S
C275 O272 1.235 . S
O276 Co266 2.021 . S
O276 C273 1.238 . S
O277 Co271 2.052 . S
O277 C273 1.241 . S
O278 Co266 2.137 . S
O278 C269 1.247 . S
O279 Co266 2.244 . S
O279 C269 1.272 . S
O279 Co271 2.135 . S
Co280 O281 2.217 1_556 S
Co280 O282 2.085 1_556 S
Co280 O284 2.003 . S
Co280 O290 1.999 1_556 S
Co280 O292 2.161 . S
Co280 O293 2.255 . S
O281 Co280 2.217 1_554 S
O281 C288 1.247 . S
O282 Co280 2.085 1_554 S
O282 C288 1.259 . S
C283 O292 1.247 . S
C283 O293 1.272 . S
O284 Co280 2.003 . S
O284 C289 1.259 . S
Co285 O286 2.061 . S
Co285 O291 2.052 . S
Co285 O293 2.135 1_554 S
O286 Co285 2.061 . S
O286 C289 1.235 1_554 S
C287 O290 1.238 . S
C287 O291 1.241 . S
C288 O281 1.247 . S
C288 O282 1.259 . S
C289 O284 1.259 . S
C289 O286 1.235 1_556 S
O290 Co280 1.999 1_554 S
O290 C287 1.238 . S
O291 Co285 2.052 . S
O291 C287 1.241 . S
O292 Co280 2.161 . S
O292 C283 1.247 . S
O293 Co280 2.255 . S
O293 C283 1.272 . S
O293 Co285 2.135 1_556 S
Co294 O295 2.216 . S
Co294 O296 2.091 . S
Co294 O298 2.004 . S
Co294 O304 2.021 . S
Co294 O306 2.137 . S
Co294 O307 2.244 . S
O295 Co294 2.216 . S
O295 C302 1.247 . S
O296 Co294 2.091 . S
O296 C302 1.261 . S
C297 O306 1.247 . S
C297 O307 1.272 . S
O298 Co294 2.004 . S
O298 C303 1.259 . S
Co299 O300 2.061 . S
Co299 O305 2.052 . S
Co299 O307 2.135 . S
O300 Co299 2.061 . S
O300 C303 1.235 . S
C301 O304 1.238 . S
C301 O305 1.241 . S
C302 O295 1.247 . S
C302 O296 1.261 . S
C303 O298 1.259 . S
C303 O300 1.235 . S
O304 Co294 2.021 . S
O304 C301 1.238 . S
O305 Co299 2.052 . S
O305 C301 1.241 . S
O306 Co294 2.137 . S
O306 C297 1.247 . S
O307 Co294 2.244 . S
O307 C297 1.272 . S
O307 Co299 2.135 . S
Co308 O309 2.216 . S
Co308 O310 2.091 . S
Co308 O312 2.004 . S
Co308 O318 2.021 . S
Co308 O320 2.137 . S
Co308 O321 2.244 . S
O309 Co308 2.216 . S
O309 C316 1.247 . S
O310 Co308 2.091 . S
O310 C316 1.261 . S
C311 O320 1.247 . S
C311 O321 1.272 . S
O312 Co308 2.004 . S
O312 C317 1.259 . S
Co313 O314 2.061 . S
Co313 O319 2.052 . S
Co313 O321 2.135 . S
O314 Co313 2.061 . S
O314 C317 1.235 . S
C315 O318 1.238 . S
C315 O319 1.241 . S
C316 O309 1.247 . S
C316 O310 1.261 . S
C317 O312 1.259 . S
C317 O314 1.235 . S
O318 Co308 2.021 . S
O318 C315 1.238 . S
O319 Co313 2.052 . S
O319 C315 1.241 . S
O320 Co308 2.137 . S
O320 C311 1.247 . S
O321 Co308 2.244 . S
O321 C311 1.272 . S
O321 Co313 2.135 . S
Co322 O323 2.216 . S
Co322 O324 2.091 . S
Co322 O326 2.004 . S
Co322 O332 2.021 . S
Co322 O334 2.137 . S
Co322 O335 2.244 . S
O323 Co322 2.216 . S
O323 C330 1.247 . S
O324 Co322 2.091 . S
O324 C330 1.261 . S
C325 O334 1.247 . S
C325 O335 1.272 . S
O326 Co322 2.004 . S
O326 C331 1.259 . S
Co327 O328 2.061 . S
Co327 O333 2.052 . S
Co327 O335 2.135 . S
O328 Co327 2.061 . S
O328 C331 1.235 . S
C329 O332 1.238 . S
C329 O333 1.241 . S
C330 O323 1.247 . S
C330 O324 1.261 . S
C331 O326 1.259 . S
C331 O328 1.235 . S
O332 Co322 2.021 . S
O332 C329 1.238 . S
O333 Co327 2.052 . S
O333 C329 1.241 . S
O334 Co322 2.137 . S
O334 C325 1.247 . S
O335 Co322 2.244 . S
O335 C325 1.272 . S
O335 Co327 2.135 . S
Gd336 C339 2.818 1_455 S
Gd336 O356 2.377 . S
Gd336 O358 2.449 1_455 S
Gd336 O359 2.506 1_456 S
Gd336 O360 2.436 . S
Gd336 O361 2.718 . S
Gd336 O363 2.395 1_546 S
Gd336 O367 2.327 1_556 S
Gd337 C348 2.818 . S
Gd337 O357 2.395 . S
Gd337 O361 2.327 1_554 S
Gd337 O362 2.377 . S
Gd337 O364 2.448 . S
Gd337 O365 2.506 . S
Gd337 O366 2.435 . S
Gd337 O367 2.717 . S
C338 O356 1.240 1_554 S
C338 O357 1.240 . S
C339 Gd336 2.818 1_655 S
C339 C340 1.510 . S
C339 O358 1.249 . S
C339 O359 1.252 1_556 S
C340 C339 1.510 . S
C340 C341 1.404 . S
C340 C342 1.352 1_556 S
C341 C340 1.404 . S
C341 C345 1.389 . S
C341 H368 0.930 . S
C342 C340 1.352 1_554 S
C342 C344 1.374 1_554 S
C342 H369 0.931 . S
C343 C344 1.359 . S
C343 C345 1.364 . S
C344 C342 1.374 1_556 S
C344 C343 1.359 . S
C344 H370 0.931 1_556 S
C345 C341 1.389 . S
C345 C343 1.364 . S
C345 H371 0.931 . S
C346 O360 1.256 . S
C346 O361 1.257 . S
C347 O362 1.240 1_565 S
C347 O363 1.240 . S
C348 Gd337 2.818 . S
C348 C349 1.510 . S
C348 O364 1.249 . S
C348 O365 1.252 . S
C349 C348 1.510 . S
C349 C350 1.404 . S
C349 C351 1.352 . S
C350 C349 1.404 . S
C350 C354 1.389 . S
C350 H372 0.930 . S
C351 C349 1.352 . S
C351 C353 1.374 . S
C351 H373 0.931 . S
C352 C353 1.359 . S
C352 C354 1.364 . S
C353 C351 1.374 . S
C353 C352 1.359 . S
C353 H374 0.931 1_545 S
C354 C350 1.389 . S
C354 C352 1.364 . S
C354 H375 0.931 . S
C355 O366 1.256 . S
C355 O367 1.257 . S
O356 Gd336 2.377 . S
O356 C338 1.240 1_556 S
O357 Gd337 2.395 . S
O357 C338 1.240 . S
O358 Gd336 2.449 1_655 S
O358 C339 1.249 . S
O359 Gd336 2.506 1_654 S
O359 C339 1.252 1_554 S
O360 Gd336 2.436 . S
O360 C346 1.256 . S
O361 Gd336 2.718 . S
O361 Gd337 2.327 1_556 S
O361 C346 1.257 . S
O362 Gd337 2.377 . S
O362 C347 1.240 1_545 S
O363 Gd336 2.395 1_564 S
O363 C347 1.240 . S
O364 Gd337 2.448 . S
O364 C348 1.249 . S
O365 Gd337 2.506 . S
O365 C348 1.252 . S
O366 Gd337 2.435 . S
O366 C355 1.256 . S
O367 Gd336 2.327 1_554 S
O367 Gd337 2.717 . S
O367 C355 1.257 . S
H368 C341 0.930 . S
H369 C342 0.931 . S
H370 C344 0.931 1_554 S
H371 C345 0.931 . S
H372 C350 0.930 . S
H373 C351 0.931 . S
H374 C353 0.931 1_565 S
H375 C354 0.931 . S
Gd376 C379 2.818 . S
Gd376 O396 2.377 . S
Gd376 O398 2.448 . S
Gd376 O399 2.506 . S
Gd376 O400 2.435 . S
Gd376 O401 2.717 . S
Gd376 O403 2.395 . S
Gd376 O407 2.327 . S
Gd377 C388 2.818 . S
Gd377 O397 2.395 . S
Gd377 O401 2.327 . S
Gd377 O402 2.377 . S
Gd377 O404 2.448 . S
Gd377 O405 2.506 . S
Gd377 O406 2.435 . S
Gd377 O407 2.717 . S
C378 O396 1.240 . S
C378 O397 1.240 . S
C379 Gd376 2.818 . S
C379 C380 1.510 . S
C379 O398 1.249 . S
C379 O399 1.252 . S
C380 C379 1.510 . S
C380 C381 1.404 . S
C380 C382 1.352 . S
C381 C380 1.404 . S
C381 C385 1.389 . S
C381 H408 0.930 . S
C382 C380 1.352 . S
C382 C384 1.374 . S
C382 H409 0.931 . S
C383 C384 1.359 . S
C383 C385 1.364 . S
C384 C382 1.374 . S
C384 C383 1.359 . S
C384 H410 0.931 . S
C385 C381 1.389 . S
C385 C383 1.364 . S
C385 H411 0.931 . S
C386 O400 1.256 . S
C386 O401 1.257 . S
C387 O402 1.240 . S
C387 O403 1.240 . S
C388 Gd377 2.818 . S
C388 C389 1.510 . S
C388 O404 1.249 . S
C388 O405 1.252 . S
C389 C388 1.510 . S
C389 C390 1.404 . S
C389 C391 1.352 . S
C390 C389 1.404 . S
C390 C394 1.389 . S
C390 H412 0.930 . S
C391 C389 1.352 . S
C391 C393 1.374 . S
C391 H413 0.931 . S
C392 C393 1.359 . S
C392 C394 1.364 . S
C393 C391 1.374 . S
C393 C392 1.359 . S
C393 H414 0.931 . S
C394 C390 1.389 . S
C394 C392 1.364 . S
C394 H415 0.931 . S
C395 O406 1.256 . S
C395 O407 1.257 . S
O396 Gd376 2.377 . S
O396 C378 1.240 . S
O397 Gd377 2.395 . S
O397 C378 1.240 . S
O398 Gd376 2.448 . S
O398 C379 1.249 . S
O399 Gd376 2.506 . S
O399 C379 1.252 . S
O400 Gd376 2.435 . S
O400 C386 1.256 . S
O401 Gd376 2.717 . S
O401 Gd377 2.327 . S
O401 C386 1.257 . S
O402 Gd377 2.377 . S
O402 C387 1.240 . S
O403 Gd376 2.395 . S
O403 C387 1.240 . S
O404 Gd377 2.448 . S
O404 C388 1.249 . S
O405 Gd377 2.506 . S
O405 C388 1.252 . S
O406 Gd377 2.435 . S
O406 C395 1.256 . S
O407 Gd376 2.327 . S
O407 Gd377 2.717 . S
O407 C395 1.257 . S
H408 C381 0.930 . S
H409 C382 0.931 . S
H410 C384 0.931 . S
H411 C385 0.931 . S
H412 C390 0.930 . S
H413 C391 0.931 . S
H414 C393 0.931 . S
H415 C394 0.931 . S
Gd416 C419 2.818 . S
Gd416 O436 2.377 1_545 S
Gd416 O438 2.448 . S
Gd416 O439 2.506 . S
Gd416 O440 2.435 . S
Gd416 O441 2.717 . S
Gd416 O443 2.395 . S
Gd416 O447 2.327 . S
Gd417 C428 2.818 . S
Gd417 O437 2.395 1_545 S
Gd417 O441 2.327 . S
Gd417 O442 2.377 . S
Gd417 O444 2.448 . S
Gd417 O445 2.506 . S
Gd417 O446 2.435 . S
Gd417 O447 2.717 . S
C418 O436 1.240 . S
C418 O437 1.240 . S
C419 Gd416 2.818 . S
C419 C420 1.510 1_545 S
C419 O438 1.249 . S
C419 O439 1.252 . S
C420 C419 1.510 1_565 S
C420 C421 1.404 . S
C420 C422 1.352 . S
C421 C420 1.404 . S
C421 C425 1.389 . S
C421 H448 0.930 . S
C422 C420 1.352 . S
C422 C424 1.374 . S
C422 H449 0.931 . S
C423 C424 1.359 . S
C423 C425 1.364 . S
C424 C422 1.374 . S
C424 C423 1.359 . S
C424 H450 0.931 . S
C425 C421 1.389 . S
C425 C423 1.364 . S
C425 H451 0.931 . S
C426 O440 1.256 . S
C426 O441 1.257 . S
C427 O442 1.240 . S
C427 O443 1.240 . S
C428 Gd417 2.818 . S
C428 C429 1.510 . S
C428 O444 1.249 . S
C428 O445 1.252 . S
C429 C428 1.510 . S
C429 C430 1.404 . S
C429 C431 1.352 . S
C430 C429 1.404 . S
C430 C434 1.389 . S
C430 H452 0.930 . S
C431 C429 1.352 . S
C431 C433 1.374 . S
C431 H453 0.931 . S
C432 C433 1.359 . S
C432 C434 1.364 . S
C433 C431 1.374 . S
C433 C432 1.359 . S
C433 H454 0.931 . S
C434 C430 1.389 . S
C434 C432 1.364 . S
C434 H455 0.931 . S
C435 O446 1.256 . S
C435 O447 1.257 . S
O436 Gd416 2.377 1_565 S
O436 C418 1.240 . S
O437 Gd417 2.395 1_565 S
O437 C418 1.240 . S
O438 Gd416 2.448 . S
O438 C419 1.249 . S
O439 Gd416 2.506 . S
O439 C419 1.252 . S
O440 Gd416 2.435 . S
O440 C426 1.256 . S
O441 Gd416 2.717 . S
O441 Gd417 2.327 . S
O441 C426 1.257 . S
O442 Gd417 2.377 . S
O442 C427 1.240 . S
O443 Gd416 2.395 . S
O443 C427 1.240 . S
O444 Gd417 2.448 . S
O444 C428 1.249 . S
O445 Gd417 2.506 . S
O445 C428 1.252 . S
O446 Gd417 2.435 . S
O446 C435 1.256 . S
O447 Gd416 2.327 . S
O447 Gd417 2.717 . S
O447 C435 1.257 . S
H448 C421 0.930 . S
H449 C422 0.931 . S
H450 C424 0.931 . S
H451 C425 0.931 . S
H452 C430 0.930 . S
H453 C431 0.931 . S
H454 C433 0.931 . S
H455 C434 0.931 . S
Gd456 C459 2.818 . S
Gd456 O476 2.377 . S
Gd456 O478 2.448 . S
Gd456 O479 2.506 . S
Gd456 O480 2.435 . S
Gd456 O481 2.717 . S
Gd456 O483 2.395 . S
Gd456 O487 2.327 . S
Gd457 C468 2.818 . S
Gd457 O477 2.395 . S
Gd457 O481 2.327 . S
Gd457 O482 2.377 . S
Gd457 O484 2.448 . S
Gd457 O485 2.506 . S
Gd457 O486 2.435 . S
Gd457 O487 2.717 . S
C458 O476 1.240 . S
C458 O477 1.240 . S
C459 Gd456 2.818 . S
C459 C460 1.510 . S
C459 O478 1.249 . S
C459 O479 1.252 . S
C460 C459 1.510 . S
C460 C461 1.404 . S
C460 C462 1.352 . S
C461 C460 1.404 . S
C461 C465 1.389 . S
C461 H488 0.930 . S
C462 C460 1.352 . S
C462 C464 1.374 . S
C462 H489 0.931 . S
C463 C464 1.359 . S
C463 C465 1.364 . S
C464 C462 1.374 . S
C464 C463 1.359 . S
C464 H490 0.931 . S
C465 C461 1.389 . S
C465 C463 1.364 . S
C465 H491 0.931 . S
C466 O480 1.256 . S
C466 O481 1.257 . S
C467 O482 1.240 . S
C467 O483 1.240 . S
C468 Gd457 2.818 . S
C468 C469 1.510 . S
C468 O484 1.249 . S
C468 O485 1.252 . S
C469 C468 1.510 . S
C469 C470 1.404 . S
C469 C471 1.352 . S
C470 C469 1.404 . S
C470 C474 1.389 . S
C470 H492 0.930 . S
C471 C469 1.352 . S
C471 C473 1.374 . S
C471 H493 0.931 . S
C472 C473 1.359 . S
C472 C474 1.364 . S
C473 C471 1.374 . S
C473 C472 1.359 . S
C473 H494 0.931 . S
C474 C470 1.389 . S
C474 C472 1.364 . S
C474 H495 0.931 . S
C475 O486 1.256 . S
C475 O487 1.257 . S
O476 Gd456 2.377 . S
O476 C458 1.240 . S
O477 Gd457 2.395 . S
O477 C458 1.240 . S
O478 Gd456 2.448 . S
O478 C459 1.249 . S
O479 Gd456 2.506 . S
O479 C459 1.252 . S
O480 Gd456 2.435 . S
O480 C466 1.256 . S
O481 Gd456 2.717 . S
O481 Gd457 2.327 . S
O481 C466 1.257 . S
O482 Gd457 2.377 . S
O482 C467 1.240 . S
O483 Gd456 2.395 . S
O483 C467 1.240 . S
O484 Gd457 2.448 . S
O484 C468 1.249 . S
O485 Gd457 2.506 . S
O485 C468 1.252 . S
O486 Gd457 2.435 . S
O486 C475 1.256 . S
O487 Gd456 2.327 . S
O487 Gd457 2.717 . S
O487 C475 1.257 . S
H488 C461 0.930 . S
H489 C462 0.931 . S
H490 C464 0.931 . S
H491 C465 0.931 . S
H492 C470 0.930 . S
H493 C471 0.931 . S
H494 C473 0.931 . S
H495 C474 0.931 . S
Gd496 C499 2.818 . S
Gd496 O516 2.377 . S
Gd496 O518 2.448 . S
Gd496 O519 2.506 . S
Gd496 O520 2.435 . S
Gd496 O521 2.717 . S
Gd496 O523 2.395 . S
Gd496 O527 2.327 . S
Gd497 C508 2.802 1_545 S
Gd497 O517 2.407 . S
Gd497 O521 2.337 . S
Gd497 O522 2.379 . S
Gd497 O524 2.433 1_545 S
Gd497 O525 2.493 1_545 S
Gd497 O526 2.440 . S
Gd497 O527 2.733 . S
C498 O516 1.240 . S
C498 O517 1.240 . S
C499 Gd496 2.818 . S
C499 C500 1.510 . S
C499 O518 1.249 . S
C499 O519 1.252 . S
C500 C499 1.510 . S
C500 C501 1.404 . S
C500 C502 1.352 . S
C501 C500 1.404 . S
C501 C505 1.389 . S
C501 H528 0.930 . S
C502 C500 1.352 . S
C502 C504 1.374 . S
C502 H529 0.931 . S
C503 C504 1.359 . S
C503 C505 1.364 . S
C504 C502 1.374 . S
C504 C503 1.359 . S
C504 H530 0.931 . S
C505 C501 1.389 . S
C505 C503 1.364 . S
C505 H531 0.931 . S
C506 O520 1.256 . S
C506 O521 1.257 . S
C507 O522 1.240 . S
C507 O523 1.240 . S
C508 Gd497 2.802 1_565 S
C508 C509 1.510 . S
C508 O524 1.249 . S
C508 O525 1.252 . S
C509 C508 1.510 . S
C509 C510 1.404 . S
C509 C511 1.352 . S
C510 C509 1.404 . S
C510 C514 1.389 . S
C510 H532 0.930 . S
C511 C509 1.352 . S
C511 C513 1.374 . S
C511 H533 0.931 . S
C512 C513 1.359 . S
C512 C514 1.364 . S
C513 C511 1.374 . S
C513 C512 1.359 . S
C513 H534 0.931 . S
C514 C510 1.389 . S
C514 C512 1.364 . S
C514 H535 0.931 . S
C515 O526 1.256 . S
C515 O527 1.257 . S
O516 Gd496 2.377 . S
O516 C498 1.240 . S
O517 Gd497 2.407 . S
O517 C498 1.240 . S
O518 Gd496 2.448 . S
O518 C499 1.249 . S
O519 Gd496 2.506 . S
O519 C499 1.252 . S
O520 Gd496 2.435 . S
O520 C506 1.256 . S
O521 Gd496 2.717 . S
O521 Gd497 2.337 . S
O521 C506 1.257 . S
O522 Gd497 2.379 . S
O522 C507 1.240 . S
O523 Gd496 2.395 . S
O523 C507 1.240 . S
O524 Gd497 2.433 1_565 S
O524 C508 1.249 . S
O525 Gd497 2.493 1_565 S
O525 C508 1.252 . S
O526 Gd497 2.440 . S
O526 C515 1.256 . S
O527 Gd496 2.327 . S
O527 Gd497 2.733 . S
O527 C515 1.257 . S
H528 C501 0.930 . S
H529 C502 0.931 . S
H530 C504 0.931 . S
H531 C505 0.931 . S
H532 C510 0.930 . S
H533 C511 0.931 . S
H534 C513 0.931 . S
H535 C514 0.931 . S
Gd536 C539 2.818 . S
Gd536 O556 2.377 . S
Gd536 O558 2.448 . S
Gd536 O559 2.506 . S
Gd536 O560 2.435 . S
Gd536 O561 2.717 . S
Gd536 O563 2.395 . S
Gd536 O567 2.327 . S
Gd537 C548 2.818 . S
Gd537 O557 2.395 . S
Gd537 O561 2.327 . S
Gd537 O562 2.377 . S
Gd537 O564 2.448 . S
Gd537 O565 2.506 . S
Gd537 O566 2.435 . S
Gd537 O567 2.717 . S
C538 O556 1.240 . S
C538 O557 1.240 . S
C539 Gd536 2.818 . S
C539 C540 1.510 . S
C539 O558 1.249 . S
C539 O559 1.252 . S
C540 C539 1.510 . S
C540 C541 1.404 . S
C540 C542 1.352 . S
C541 C540 1.404 . S
C541 C545 1.389 . S
C541 H568 0.930 . S
C542 C540 1.352 . S
C542 C544 1.374 . S
C542 H569 0.931 . S
C543 C544 1.359 . S
C543 C545 1.364 . S
C544 C542 1.374 . S
C544 C543 1.359 . S
C544 H570 0.931 . S
C545 C541 1.389 . S
C545 C543 1.364 . S
C545 H571 0.931 . S
C546 O560 1.256 . S
C546 O561 1.257 . S
C547 O562 1.240 . S
C547 O563 1.240 . S
C548 Gd537 2.818 . S
C548 C549 1.510 . S
C548 O564 1.249 . S
C548 O565 1.252 . S
C549 C548 1.510 . S
C549 C550 1.404 . S
C549 C551 1.352 . S
C550 C549 1.404 . S
C550 C554 1.389 . S
C550 H572 0.930 . S
C551 C549 1.352 . S
C551 C553 1.374 . S
C551 H573 0.931 . S
C552 C553 1.359 . S
C552 C554 1.364 . S
C553 C551 1.374 . S
C553 C552 1.359 . S
C553 H574 0.931 . S
C554 C550 1.389 . S
C554 C552 1.364 . S
C554 H575 0.931 . S
C555 O566 1.256 . S
C555 O567 1.257 . S
O556 Gd536 2.377 . S
O556 C538 1.240 . S
O557 Gd537 2.395 . S
O557 C538 1.240 . S
O558 Gd536 2.448 . S
O558 C539 1.249 . S
O559 Gd536 2.506 . S
O559 C539 1.252 . S
O560 Gd536 2.435 . S
O560 C546 1.256 . S
O561 Gd536 2.717 . S
O561 Gd537 2.327 . S
O561 C546 1.257 . S
O562 Gd537 2.377 . S
O562 C547 1.240 . S
O563 Gd536 2.395 . S
O563 C547 1.240 . S
O564 Gd537 2.448 . S
O564 C548 1.249 . S
O565 Gd537 2.506 . S
O565 C548 1.252 . S
O566 Gd537 2.435 . S
O566 C555 1.256 . S
O567 Gd536 2.327 . S
O567 Gd537 2.717 . S
O567 C555 1.257 . S
H568 C541 0.930 . S
H569 C542 0.931 . S
H570 C544 0.931 . S
H571 C545 0.931 . S
H572 C550 0.930 . S
H573 C551 0.931 . S
H574 C553 0.931 . S
H575 C554 0.931 . S
Gd576 C579 2.818 . S
Gd576 O596 2.377 . S
Gd576 O598 2.462 . S
Gd576 O599 2.506 . S
Gd576 O600 2.435 1_545 S
Gd576 O601 2.717 1_554 S
Gd576 O603 2.395 . S
Gd576 O607 2.327 . S
Gd577 C588 2.818 . S
Gd577 O597 2.395 . S
Gd577 O601 2.327 . S
Gd577 O602 2.377 1_556 S
Gd577 O604 2.448 . S
Gd577 O605 2.506 . S
Gd577 O606 2.435 1_556 S
Gd577 O607 2.717 1_556 S
C578 O596 1.240 . S
C578 O597 1.240 1_554 S
C579 Gd576 2.818 . S
C579 C580 1.510 . S
C579 O598 1.262 . S
C579 O599 1.252 . S
C580 C579 1.510 . S
C580 C581 1.404 1_545 S
C580 C582 1.352 . S
C581 C580 1.404 1_565 S
C581 C585 1.389 . S
C581 H608 0.930 . S
C582 C580 1.352 . S
C582 C584 1.374 . S
C582 H609 0.931 . S
C583 C584 1.359 1_565 S
C583 C585 1.364 . S
C584 C582 1.374 . S
C584 C583 1.359 1_545 S
C584 H610 0.931 . S
C585 C581 1.389 . S
C585 C583 1.364 . S
C585 H611 0.931 . S
C586 O600 1.256 1_556 S
C586 O601 1.257 1_565 S
C587 O602 1.240 . S
C587 O603 1.240 . S
C588 Gd577 2.818 . S
C588 C589 1.510 . S
C588 O604 1.249 . S
C588 O605 1.252 . S
C589 C588 1.510 . S
C589 C590 1.404 . S
C589 C591 1.352 . S
C590 C589 1.404 . S
C590 C594 1.389 . S
C590 H612 0.930 . S
C591 C589 1.352 . S
C591 C593 1.374 . S
C591 H613 0.931 . S
C592 C593 1.359 . S
C592 C594 1.364 . S
C593 C591 1.374 . S
C593 C592 1.359 . S
C593 H614 0.931 . S
C594 C590 1.389 . S
C594 C592 1.364 . S
C594 H615 0.931 . S
C595 O606 1.256 . S
C595 O607 1.257 . S
O596 Gd576 2.377 . S
O596 C578 1.240 . S
O597 Gd577 2.395 . S
O597 C578 1.240 1_556 S
O598 Gd576 2.462 . S
O598 C579 1.262 . S
O599 Gd576 2.506 . S
O599 C579 1.252 . S
O600 Gd576 2.435 1_565 S
O600 C586 1.256 1_554 S
O601 Gd576 2.717 1_556 S
O601 Gd577 2.327 . S
O601 C586 1.257 1_545 S
O602 Gd577 2.377 1_554 S
O602 C587 1.240 . S
O603 Gd576 2.395 . S
O603 C587 1.240 . S
O604 Gd577 2.448 . S
O604 C588 1.249 . S
O605 Gd577 2.506 . S
O605 C588 1.252 . S
O606 Gd577 2.435 1_554 S
O606 C595 1.256 . S
O607 Gd576 2.327 . S
O607 Gd577 2.717 1_554 S
O607 C595 1.257 . S
H608 C581 0.930 . S
H609 C582 0.931 . S
H610 C584 0.931 . S
H611 C585 0.931 . S
H612 C590 0.930 . S
H613 C591 0.931 . S
H614 C593 0.931 . S
H615 C594 0.931 . S
Gd616 C619 2.818 . S
Gd616 O636 2.377 . S
Gd616 O638 2.448 . S
Gd616 O639 2.506 . S
Gd616 O640 2.435 . S
Gd616 O641 2.717 . S
Gd616 O643 2.395 . S
Gd616 O647 2.327 . S
Gd617 C628 2.818 . S
Gd617 O637 2.395 . S
Gd617 O641 2.327 . S
Gd617 O642 2.377 . S
Gd617 O644 2.448 . S
Gd617 O645 2.506 . S
Gd617 O646 2.435 . S
Gd617 O647 2.717 . S
C618 O636 1.240 . S
C618 O637 1.240 . S
C619 Gd616 2.818 . S
C619 C620 1.510 . S
C619 O638 1.249 . S
C619 O639 1.252 . S
C620 C619 1.510 . S
C620 C621 1.404 . S
C620 C622 1.352 . S
C621 C620 1.404 . S
C621 C625 1.389 . S
C621 H648 0.930 . S
C622 C620 1.352 . S
C622 C624 1.374 . S
C622 H649 0.931 . S
C623 C624 1.359 . S
C623 C625 1.364 . S
C624 C622 1.374 . S
C624 C623 1.359 . S
C624 H650 0.931 . S
C625 C621 1.389 . S
C625 C623 1.364 . S
C625 H651 0.931 . S
C626 O640 1.256 . S
C626 O641 1.257 . S
C627 O642 1.240 . S
C627 O643 1.240 . S
C628 Gd617 2.818 . S
C628 C629 1.510 . S
C628 O644 1.249 . S
C628 O645 1.252 . S
C629 C628 1.510 . S
C629 C630 1.404 . S
C629 C631 1.352 . S
C630 C629 1.404 . S
C630 C634 1.389 . S
C630 H652 0.930 . S
C631 C629 1.352 . S
C631 C633 1.374 . S
C631 H653 0.931 . S
C632 C633 1.359 . S
C632 C634 1.364 . S
C633 C631 1.374 . S
C633 C632 1.359 . S
C633 H654 0.931 . S
C634 C630 1.389 . S
C634 C632 1.364 . S
C634 H655 0.931 . S
C635 O646 1.256 . S
C635 O647 1.257 . S
O636 Gd616 2.377 . S
O636 C618 1.240 . S
O637 Gd617 2.395 . S
O637 C618 1.240 . S
O638 Gd616 2.448 . S
O638 C619 1.249 . S
O639 Gd616 2.506 . S
O639 C619 1.252 . S
O640 Gd616 2.435 . S
O640 C626 1.256 . S
O641 Gd616 2.717 . S
O641 Gd617 2.327 . S
O641 C626 1.257 . S
O642 Gd617 2.377 . S
O642 C627 1.240 . S
O643 Gd616 2.395 . S
O643 C627 1.240 . S
O644 Gd617 2.448 . S
O644 C628 1.249 . S
O645 Gd617 2.506 . S
O645 C628 1.252 . S
O646 Gd617 2.435 . S
O646 C635 1.256 . S
O647 Gd616 2.327 . S
O647 Gd617 2.717 . S
O647 C635 1.257 . S
H648 C621 0.930 . S
H649 C622 0.931 . S
H650 C624 0.931 . S
H651 C625 0.931 . S
H652 C630 0.930 . S
H653 C631 0.931 . S
H654 C633 0.931 . S
H655 C634 0.931 . S
Gd656 C659 2.818 . S
Gd656 O676 2.377 1_554 S
Gd656 O678 2.448 . S
Gd656 O679 2.506 . S
Gd656 O680 2.435 . S
Gd656 O681 2.717 . S
Gd656 O683 2.395 . S
Gd656 O687 2.327 . S
Gd657 C668 2.818 1_556 S
Gd657 O677 2.395 . S
Gd657 O681 2.327 1_556 S
Gd657 O682 2.377 1_556 S
Gd657 O684 2.448 1_556 S
Gd657 O685 2.506 1_556 S
Gd657 O686 2.435 . S
Gd657 O687 2.717 1_556 S
C658 O676 1.240 . S
C658 O677 1.240 . S
C659 Gd656 2.818 . S
C659 C660 1.510 1_554 S
C659 O678 1.249 . S
C659 O679 1.252 . S
C660 C659 1.510 1_556 S
C660 C661 1.404 . S
C660 C662 1.352 . S
C661 C660 1.404 . S
C661 C665 1.389 . S
C661 H688 0.930 1_556 S
C662 C660 1.352 . S
C662 C664 1.374 . S
C662 H689 0.931 . S
C663 C664 1.359 . S
C663 C665 1.364 . S
C664 C662 1.374 . S
C664 C663 1.359 . S
C664 H690 0.931 . S
C665 C661 1.389 . S
C665 C663 1.364 . S
C665 H691 0.931 . S
C666 O680 1.256 . S
C666 O681 1.257 . S
C667 O682 1.240 . S
C667 O683 1.240 . S
C668 Gd657 2.818 1_554 S
C668 C669 1.510 . S
C668 O684 1.249 . S
C668 O685 1.252 . S
C669 C668 1.510 . S
C669 C670 1.404 . S
C669 C671 1.352 . S
C670 C669 1.404 . S
C670 C674 1.389 . S
C670 H692 0.930 . S
C671 C669 1.352 . S
C671 C673 1.374 . S
C671 H693 0.931 . S
C672 C673 1.359 . S
C672 C674 1.364 . S
C673 C671 1.374 . S
C673 C672 1.359 . S
C673 H694 0.931 . S
C674 C670 1.389 . S
C674 C672 1.364 . S
C674 H695 0.931 . S
C675 O686 1.256 1_554 S
C675 O687 1.257 . S
O676 Gd656 2.377 1_556 S
O676 C658 1.240 . S
O677 Gd657 2.395 . S
O677 C658 1.240 . S
O678 Gd656 2.448 . S
O678 C659 1.249 . S
O679 Gd656 2.506 . S
O679 C659 1.252 . S
O680 Gd656 2.435 . S
O680 C666 1.256 . S
O681 Gd656 2.717 . S
O681 Gd657 2.327 1_554 S
O681 C666 1.257 . S
O682 Gd657 2.377 1_554 S
O682 C667 1.240 . S
O683 Gd656 2.395 . S
O683 C667 1.240 . S
O684 Gd657 2.448 1_554 S
O684 C668 1.249 . S
O685 Gd657 2.506 1_554 S
O685 C668 1.252 . S
O686 Gd657 2.435 . S
O686 C675 1.256 1_556 S
O687 Gd656 2.327 . S
O687 Gd657 2.717 1_554 S
O687 C675 1.257 . S
H688 C661 0.930 1_554 S
H689 C662 0.931 . S
H690 C664 0.931 . S
H691 C665 0.931 . S
H692 C670 0.930 . S
H693 C671 0.931 . S
H694 C673 0.931 . S
H695 C674 0.931 . S
Gd696 C699 2.818 . S
Gd696 O716 2.377 . S
Gd696 O718 2.448 . S
Gd696 O719 2.506 . S
Gd696 O720 2.435 . S
Gd696 O721 2.717 . S
Gd696 O723 2.395 . S
Gd696 O727 2.327 . S
Gd697 C708 2.818 . S
Gd697 O717 2.395 . S
Gd697 O721 2.327 . S
Gd697 O722 2.377 . S
Gd697 O724 2.448 . S
Gd697 O725 2.506 . S
Gd697 O726 2.435 . S
Gd697 O727 2.717 . S
C698 O716 1.240 . S
C698 O717 1.240 . S
C699 Gd696 2.818 . S
C699 C700 1.510 . S
C699 O718 1.249 . S
C699 O719 1.252 . S
C700 C699 1.510 . S
C700 C701 1.404 . S
C700 C702 1.352 . S
C701 C700 1.404 . S
C701 C705 1.389 . S
C701 H728 0.930 . S
C702 C700 1.352 . S
C702 C704 1.374 . S
C702 H729 0.931 . S
C703 C704 1.359 . S
C703 C705 1.364 . S
C704 C702 1.374 . S
C704 C703 1.359 . S
C704 H730 0.931 . S
C705 C701 1.389 . S
C705 C703 1.364 . S
C705 H731 0.931 . S
C706 O720 1.256 . S
C706 O721 1.257 . S
C707 O722 1.240 . S
C707 O723 1.240 . S
C708 Gd697 2.818 . S
C708 C709 1.510 . S
C708 O724 1.249 . S
C708 O725 1.252 . S
C709 C708 1.510 . S
C709 C710 1.404 . S
C709 C711 1.352 . S
C710 C709 1.404 . S
C710 C714 1.389 . S
C710 H732 0.930 . S
C711 C709 1.352 . S
C711 C713 1.374 . S
C711 H733 0.931 . S
C712 C713 1.359 . S
C712 C714 1.364 . S
C713 C711 1.374 . S
C713 C712 1.359 . S
C713 H734 0.931 . S
C714 C710 1.389 . S
C714 C712 1.364 . S
C714 H735 0.931 . S
C715 O726 1.256 . S
C715 O727 1.257 . S
O716 Gd696 2.377 . S
O716 C698 1.240 . S
O717 Gd697 2.395 . S
O717 C698 1.240 . S
O718 Gd696 2.448 . S
O718 C699 1.249 . S
O719 Gd696 2.506 . S
O719 C699 1.252 . S
O720 Gd696 2.435 . S
O720 C706 1.256 . S
O721 Gd696 2.717 . S
O721 Gd697 2.327 . S
O721 C706 1.257 . S
O722 Gd697 2.377 . S
O722 C707 1.240 . S
O723 Gd696 2.395 . S
O723 C707 1.240 . S
O724 Gd697 2.448 . S
O724 C708 1.249 . S
O725 Gd697 2.506 . S
O725 C708 1.252 . S
O726 Gd697 2.435 . S
O726 C715 1.256 . S
O727 Gd696 2.327 . S
O727 Gd697 2.717 . S
O727 C715 1.257 . S
H728 C701 0.930 . S
H729 C702 0.931 . S
H730 C704 0.931 . S
H731 C705 0.931 . S
H732 C710 0.930 . S
H733 C711 0.931 . S
H734 C713 0.931 . S
H735 C714 0.931 . S
Gd736 C739 2.818 . S
Gd736 O756 2.377 . S
Gd736 O758 2.448 . S
Gd736 O759 2.506 . S
Gd736 O760 2.435 . S
Gd736 O761 2.717 . S
Gd736 O763 2.395 . S
Gd736 O767 2.327 . S
Gd737 C748 2.818 . S
Gd737 O757 2.395 . S
Gd737 O761 2.327 . S
Gd737 O762 2.377 . S
Gd737 O764 2.448 . S
Gd737 O765 2.506 . S
Gd737 O766 2.435 . S
Gd737 O767 2.717 . S
C738 O756 1.240 . S
C738 O757 1.240 . S
C739 Gd736 2.818 . S
C739 C740 1.510 . S
C739 O758 1.249 . S
C739 O759 1.252 . S
C740 C739 1.510 . S
C740 C741 1.404 . S
C740 C742 1.352 . S
C741 C740 1.404 . S
C741 C745 1.389 . S
C741 H768 0.930 . S
C742 C740 1.352 . S
C742 C744 1.374 1_455 S
C742 H769 0.933 . S
C743 C744 1.359 . S
C743 C745 1.364 1_655 S
C744 C742 1.374 1_655 S
C744 C743 1.359 . S
C744 H770 0.931 . S
C745 C741 1.389 . S
C745 C743 1.364 1_455 S
C745 H771 0.931 . S
C746 O760 1.256 . S
C746 O761 1.257 . S
C747 O762 1.240 . S
C747 O763 1.240 . S
C748 Gd737 2.818 . S
C748 C749 1.510 . S
C748 O764 1.249 . S
C748 O765 1.252 . S
C749 C748 1.510 . S
C749 C750 1.404 . S
C749 C751 1.352 . S
C750 C749 1.404 . S
C750 C754 1.389 . S
C750 H772 0.930 . S
C751 C749 1.352 . S
C751 C753 1.374 . S
C751 H773 0.931 . S
C752 C753 1.359 . S
C752 C754 1.364 . S
C753 C751 1.374 . S
C753 C752 1.359 . S
C753 H774 0.931 . S
C754 C750 1.389 . S
C754 C752 1.364 . S
C754 H775 0.931 . S
C755 O766 1.256 . S
C755 O767 1.257 . S
O756 Gd736 2.377 . S
O756 C738 1.240 . S
O757 Gd737 2.395 . S
O757 C738 1.240 . S
O758 Gd736 2.448 . S
O758 C739 1.249 . S
O759 Gd736 2.506 . S
O759 C739 1.252 . S
O760 Gd736 2.435 . S
O760 C746 1.256 . S
O761 Gd736 2.717 . S
O761 Gd737 2.327 . S
O761 C746 1.257 . S
O762 Gd737 2.377 . S
O762 C747 1.240 . S
O763 Gd736 2.395 . S
O763 C747 1.240 . S
O764 Gd737 2.448 . S
O764 C748 1.249 . S
O765 Gd737 2.506 . S
O765 C748 1.252 . S
O766 Gd737 2.435 . S
O766 C755 1.256 . S
O767 Gd736 2.327 . S
O767 Gd737 2.717 . S
O767 C755 1.257 . S
H768 C741 0.930 . S
H769 C742 0.933 . S
H770 C744 0.931 . S
H771 C745 0.931 . S
H772 C750 0.930 . S
H773 C751 0.931 . S
H774 C753 0.931 . S
H775 C754 0.931 . S
Gd776 C779 2.818 . S
Gd776 O796 2.377 . S
Gd776 O798 2.448 . S
Gd776 O799 2.506 . S
Gd776 O800 2.435 . S
Gd776 O801 2.717 . S
Gd776 O803 2.395 . S
Gd776 O807 2.327 . S
Gd777 C788 2.818 . S
Gd777 O797 2.395 . S
Gd777 O801 2.327 . S
Gd777 O802 2.377 . S
Gd777 O804 2.448 . S
Gd777 O805 2.506 . S
Gd777 O806 2.435 . S
Gd777 O807 2.717 . S
C778 O796 1.240 . S
C778 O797 1.240 . S
C779 Gd776 2.818 . S
C779 C780 1.510 . S
C779 O798 1.249 . S
C779 O799 1.252 . S
C780 C779 1.510 . S
C780 C781 1.404 . S
C780 C782 1.352 . S
C781 C780 1.404 . S
C781 C785 1.389 . S
C781 H808 0.930 . S
C782 C780 1.352 . S
C782 C784 1.374 . S
C782 H809 0.931 . S
C783 C784 1.359 . S
C783 C785 1.364 . S
C784 C782 1.374 . S
C784 C783 1.359 . S
C784 H810 0.931 . S
C785 C781 1.389 . S
C785 C783 1.364 . S
C785 H811 0.931 . S
C786 O800 1.256 . S
C786 O801 1.257 . S
C787 O802 1.240 . S
C787 O803 1.240 . S
C788 Gd777 2.818 . S
C788 C789 1.510 . S
C788 O804 1.249 . S
C788 O805 1.252 . S
C789 C788 1.510 . S
C789 C790 1.404 . S
C789 C791 1.352 . S
C790 C789 1.404 . S
C790 C794 1.389 . S
C790 H812 0.930 . S
C791 C789 1.352 . S
C791 C793 1.374 . S
C791 H813 0.931 . S
C792 C793 1.359 . S
C792 C794 1.364 . S
C793 C791 1.374 . S
C793 C792 1.359 . S
C793 H814 0.931 . S
C794 C790 1.389 . S
C794 C792 1.364 . S
C794 H815 0.931 . S
C795 O806 1.256 . S
C795 O807 1.257 . S
O796 Gd776 2.377 . S
O796 C778 1.240 . S
O797 Gd777 2.395 . S
O797 C778 1.240 . S
O798 Gd776 2.448 . S
O798 C779 1.249 . S
O799 Gd776 2.506 . S
O799 C779 1.252 . S
O800 Gd776 2.435 . S
O800 C786 1.256 . S
O801 Gd776 2.717 . S
O801 Gd777 2.327 . S
O801 C786 1.257 . S
O802 Gd777 2.377 . S
O802 C787 1.240 . S
O803 Gd776 2.395 . S
O803 C787 1.240 . S
O804 Gd777 2.448 . S
O804 C788 1.249 . S
O805 Gd777 2.506 . S
O805 C788 1.252 . S
O806 Gd777 2.435 . S
O806 C795 1.256 . S
O807 Gd776 2.327 . S
O807 Gd777 2.717 . S
O807 C795 1.257 . S
H808 C781 0.930 . S
H809 C782 0.931 . S
H810 C784 0.931 . S
H811 C785 0.931 . S
H812 C790 0.930 . S
H813 C791 0.931 . S
H814 C793 0.931 . S
H815 C794 0.931 . S
Gd816 C819 2.818 . S
Gd816 O836 2.377 . S
Gd816 O838 2.448 . S
Gd816 O839 2.506 . S
Gd816 O840 2.435 . S
Gd816 O841 2.717 . S
Gd816 O843 2.395 . S
Gd816 O847 2.327 . S
Gd817 C828 2.818 . S
Gd817 O837 2.395 . S
Gd817 O841 2.327 . S
Gd817 O842 2.377 . S
Gd817 O844 2.448 . S
Gd817 O845 2.506 . S
Gd817 O846 2.435 . S
Gd817 O847 2.717 . S
C818 O836 1.240 . S
C818 O837 1.240 . S
C819 Gd816 2.818 . S
C819 C820 1.510 . S
C819 O838 1.249 . S
C819 O839 1.252 . S
C820 C819 1.510 . S
C820 C821 1.404 . S
C820 C822 1.352 . S
C821 C820 1.404 . S
C821 C825 1.389 . S
C821 H848 0.930 . S
C822 C820 1.352 . S
C822 C824 1.374 . S
C822 H849 0.931 . S
C823 C824 1.359 . S
C823 C825 1.364 . S
C824 C822 1.374 . S
C824 C823 1.359 . S
C824 H850 0.931 . S
C825 C821 1.389 . S
C825 C823 1.364 . S
C825 H851 0.931 . S
C826 O840 1.256 . S
C826 O841 1.257 . S
C827 O842 1.240 . S
C827 O843 1.240 . S
C828 Gd817 2.818 . S
C828 C829 1.510 . S
C828 O844 1.249 . S
C828 O845 1.252 . S
C829 C828 1.510 . S
C829 C830 1.404 . S
C829 C831 1.352 . S
C830 C829 1.404 . S
C830 C834 1.389 . S
C830 H852 0.930 . S
C831 C829 1.352 . S
C831 C833 1.374 . S
C831 H853 0.931 . S
C832 C833 1.359 . S
C832 C834 1.364 . S
C833 C831 1.374 . S
C833 C832 1.359 . S
C833 H854 0.931 . S
C834 C830 1.389 . S
C834 C832 1.364 . S
C834 H855 0.931 . S
C835 O846 1.256 . S
C835 O847 1.257 . S
O836 Gd816 2.377 . S
O836 C818 1.240 . S
O837 Gd817 2.395 . S
O837 C818 1.240 . S
O838 Gd816 2.448 . S
O838 C819 1.249 . S
O839 Gd816 2.506 . S
O839 C819 1.252 . S
O840 Gd816 2.435 . S
O840 C826 1.256 . S
O841 Gd816 2.717 . S
O841 Gd817 2.327 . S
O841 C826 1.257 . S
O842 Gd817 2.377 . S
O842 C827 1.240 . S
O843 Gd816 2.395 . S
O843 C827 1.240 . S
O844 Gd817 2.448 . S
O844 C828 1.249 . S
O845 Gd817 2.506 . S
O845 C828 1.252 . S
O846 Gd817 2.435 . S
O846 C835 1.256 . S
O847 Gd816 2.327 . S
O847 Gd817 2.717 . S
O847 C835 1.257 . S
H848 C821 0.930 . S
H849 C822 0.931 . S
H850 C824 0.931 . S
H851 C825 0.931 . S
H852 C830 0.930 . S
H853 C831 0.931 . S
H854 C833 0.931 . S
H855 C834 0.931 . S
Gd856 C859 2.818 . S
Gd856 O876 2.377 . S
Gd856 O878 2.448 . S
Gd856 O879 2.506 . S
Gd856 O880 2.435 . S
Gd856 O881 2.717 . S
Gd856 O883 2.395 . S
Gd856 O887 2.327 . S
Gd857 C868 2.818 . S
Gd857 O877 2.395 . S
Gd857 O881 2.327 . S
Gd857 O882 2.377 . S
Gd857 O884 2.448 . S
Gd857 O885 2.506 . S
Gd857 O886 2.435 . S
Gd857 O887 2.717 . S
C858 O876 1.240 . S
C858 O877 1.240 . S
C859 Gd856 2.818 . S
C859 C860 1.510 . S
C859 O878 1.249 . S
C859 O879 1.252 . S
C860 C859 1.510 . S
C860 C861 1.404 . S
C860 C862 1.352 . S
C861 C860 1.404 . S
C861 C865 1.389 . S
C861 H888 0.930 . S
C862 C860 1.352 . S
C862 C864 1.374 . S
C862 H889 0.931 . S
C863 C864 1.359 . S
C863 C865 1.364 . S
C864 C862 1.374 . S
C864 C863 1.359 . S
C864 H890 0.931 . S
C865 C861 1.389 . S
C865 C863 1.364 . S
C865 H891 0.931 . S
C866 O880 1.256 . S
C866 O881 1.257 . S
C867 O882 1.240 . S
C867 O883 1.240 . S
C868 Gd857 2.818 . S
C868 C869 1.510 . S
C868 O884 1.249 . S
C868 O885 1.252 . S
C869 C868 1.510 . S
C869 C870 1.404 . S
C869 C871 1.352 . S
C870 C869 1.404 . S
C870 C874 1.389 . S
C870 H892 0.930 . S
C871 C869 1.352 . S
C871 C873 1.374 . S
C871 H893 0.931 . S
C872 C873 1.359 . S
C872 C874 1.364 . S
C873 C871 1.374 . S
C873 C872 1.359 . S
C873 H894 0.931 . S
C874 C870 1.389 . S
C874 C872 1.364 . S
C874 H895 0.931 . S
C875 O886 1.256 . S
C875 O887 1.257 . S
O876 Gd856 2.377 . S
O876 C858 1.240 . S
O877 Gd857 2.395 . S
O877 C858 1.240 . S
O878 Gd856 2.448 . S
O878 C859 1.249 . S
O879 Gd856 2.506 . S
O879 C859 1.252 . S
O880 Gd856 2.435 . S
O880 C866 1.256 . S
O881 Gd856 2.717 . S
O881 Gd857 2.327 . S
O881 C866 1.257 . S
O882 Gd857 2.377 . S
O882 C867 1.240 . S
O883 Gd856 2.395 . S
O883 C867 1.240 . S
O884 Gd857 2.448 . S
O884 C868 1.249 . S
O885 Gd857 2.506 . S
O885 C868 1.252 . S
O886 Gd857 2.435 . S
O886 C875 1.256 . S
O887 Gd856 2.327 . S
O887 Gd857 2.717 . S
O887 C875 1.257 . S
H888 C861 0.930 . S
H889 C862 0.931 . S
H890 C864 0.931 . S
H891 C865 0.931 . S
H892 C870 0.930 . S
H893 C871 0.931 . S
H894 C873 0.931 . S
H895 C874 0.931 . S
Gd896 C899 2.818 . S
Gd896 O916 2.377 . S
Gd896 O918 2.448 . S
Gd896 O919 2.506 . S
Gd896 O920 2.435 . S
Gd896 O921 2.717 . S
Gd896 O923 2.395 . S
Gd896 O927 2.327 . S
Gd897 C908 2.818 . S
Gd897 O917 2.395 . S
Gd897 O921 2.327 . S
Gd897 O922 2.377 . S
Gd897 O924 2.448 . S
Gd897 O925 2.506 . S
Gd897 O926 2.435 . S
Gd897 O927 2.717 . S
C898 O916 1.240 . S
C898 O917 1.240 . S
C899 Gd896 2.818 . S
C899 C900 1.510 . S
C899 O918 1.249 . S
C899 O919 1.252 . S
C900 C899 1.510 . S
C900 C901 1.404 . S
C900 C902 1.352 . S
C901 C900 1.404 . S
C901 C905 1.389 . S
C901 H928 0.930 . S
C902 C900 1.352 . S
C902 C904 1.374 . S
C902 H929 0.931 . S
C903 C904 1.359 . S
C903 C905 1.364 . S
C904 C902 1.374 . S
C904 C903 1.359 . S
C904 H930 0.931 . S
C905 C901 1.389 . S
C905 C903 1.364 . S
C905 H931 0.931 . S
C906 O920 1.256 . S
C906 O921 1.257 . S
C907 O922 1.240 . S
C907 O923 1.240 . S
C908 Gd897 2.818 . S
C908 C909 1.510 . S
C908 O924 1.249 . S
C908 O925 1.252 . S
C909 C908 1.510 . S
C909 C910 1.404 . S
C909 C911 1.352 . S
C910 C909 1.404 . S
C910 C914 1.389 . S
C910 H932 0.930 . S
C911 C909 1.352 . S
C911 C913 1.374 . S
C911 H933 0.931 . S
C912 C913 1.359 . S
C912 C914 1.364 . S
C913 C911 1.374 . S
C913 C912 1.359 . S
C913 H934 0.931 . S
C914 C910 1.389 . S
C914 C912 1.364 . S
C914 H935 0.931 . S
C915 O926 1.256 . S
C915 O927 1.257 . S
O916 Gd896 2.377 . S
O916 C898 1.240 . S
O917 Gd897 2.395 . S
O917 C898 1.240 . S
O918 Gd896 2.448 . S
O918 C899 1.249 . S
O919 Gd896 2.506 . S
O919 C899 1.252 . S
O920 Gd896 2.435 . S
O920 C906 1.256 . S
O921 Gd896 2.717 . S
O921 Gd897 2.327 . S
O921 C906 1.257 . S
O922 Gd897 2.377 . S
O922 C907 1.240 . S
O923 Gd896 2.395 . S
O923 C907 1.240 . S
O924 Gd897 2.448 . S
O924 C908 1.249 . S
O925 Gd897 2.506 . S
O925 C908 1.252 . S
O926 Gd897 2.435 . S
O926 C915 1.256 . S
O927 Gd896 2.327 . S
O927 Gd897 2.717 . S
O927 C915 1.257 . S
H928 C901 0.930 . S
H929 C902 0.931 . S
H930 C904 0.931 . S
H931 C905 0.931 . S
H932 C910 0.930 . S
H933 C911 0.931 . S
H934 C913 0.931 . S
H935 C914 0.931 . S
Gd936 C939 2.818 1_554 S
Gd936 O956 2.377 1_554 S
Gd936 O958 2.448 1_554 S
Gd936 O959 2.506 . S
Gd936 O960 2.435 1_554 S
Gd936 O961 2.717 1_554 S
Gd936 O963 2.395 . S
Gd936 O967 2.327 . S
Gd937 C948 2.818 1_455 S
Gd937 O957 2.395 . S
Gd937 O961 2.327 1_554 S
Gd937 O962 2.377 . S
Gd937 O964 2.464 . S
Gd937 O965 2.506 1_455 S
Gd937 O966 2.435 . S
Gd937 O967 2.717 . S
C938 O956 1.240 1_554 S
C938 O957 1.240 . S
C939 Gd936 2.818 1_556 S
C939 C940 1.510 . S
C939 O958 1.249 . S
C939 O959 1.252 1_556 S
C940 C939 1.510 . S
C940 C941 1.404 . S
C940 C942 1.352 1_556 S
C941 C940 1.404 . S
C941 C945 1.389 . S
C941 H968 0.930 . S
C942 C940 1.352 1_554 S
C942 C944 1.374 . S
C942 H969 0.931 . S
C943 C944 1.359 1_556 S
C943 C945 1.364 . S
C944 C942 1.374 . S
C944 C943 1.359 1_554 S
C944 H970 0.931 . S
C945 C941 1.389 . S
C945 C943 1.364 . S
C945 H971 0.931 . S
C946 O960 1.256 . S
C946 O961 1.257 . S
C947 O962 1.240 . S
C947 O963 1.240 . S
C948 Gd937 2.818 1_655 S
C948 C949 1.510 . S
C948 O964 1.241 1_655 S
C948 O965 1.252 . S
C949 C948 1.510 . S
C949 C950 1.404 . S
C949 C951 1.352 . S
C950 C949 1.404 . S
C950 C954 1.389 . S
C950 H972 0.930 . S
C951 C949 1.352 . S
C951 C953 1.374 . S
C951 H973 0.931 . S
C952 C953 1.359 . S
C952 C954 1.364 . S
C953 C951 1.374 . S
C953 C952 1.359 . S
C953 H974 0.931 . S
C954 C950 1.389 . S
C954 C952 1.364 . S
C954 H975 0.931 . S
C955 O966 1.256 . S
C955 O967 1.257 . S
O956 Gd936 2.377 1_556 S
O956 C938 1.240 1_556 S
O957 Gd937 2.395 . S
O957 C938 1.240 . S
O958 Gd936 2.448 1_556 S
O958 C939 1.249 . S
O959 Gd936 2.506 . S
O959 C939 1.252 1_554 S
O960 Gd936 2.435 1_556 S
O960 C946 1.256 . S
O961 Gd936 2.717 1_556 S
O961 Gd937 2.327 1_556 S
O961 C946 1.257 . S
O962 Gd937 2.377 . S
O962 C947 1.240 . S
O963 Gd936 2.395 . S
O963 C947 1.240 . S
O964 Gd937 2.464 . S
O964 C948 1.241 1_455 S
O965 Gd937 2.506 1_655 S
O965 C948 1.252 . S
O966 Gd937 2.435 . S
O966 C955 1.256 . S
O967 Gd936 2.327 . S
O967 Gd937 2.717 . S
O967 C955 1.257 . S
H968 C941 0.930 . S
H969 C942 0.931 . S
H970 C944 0.931 . S
H971 C945 0.931 . S
H972 C950 0.930 . S
H973 C951 0.931 . S
H974 C953 0.931 . S
H975 C954 0.931 . S
C976 C977 1.369 . S
C976 C978 1.419 . S
C976 H980 0.930 . S
C977 C976 1.369 . S
C977 C986 1.429 . S
C978 C976 1.419 . S
C978 C979 1.363 . S
C978 H981 0.929 . S
C979 C978 1.363 . S
C979 C985 1.428 1_556 S
H980 C976 0.930 . S
H981 C978 0.929 . S
S982 N983 1.611 1_655 S
S982 N984 1.610 1_655 S
N983 S982 1.611 1_455 S
N983 C986 1.367 1_554 S
N984 S982 1.610 1_455 S
N984 C985 1.351 . S
C985 C979 1.428 1_554 S
C985 N984 1.351 . S
C985 C986 1.434 1_554 S
C986 C977 1.429 . S
C986 N983 1.367 1_556 S
C986 C985 1.434 1_556 S
C987 C988 1.369 . S
C987 C989 1.419 . S
C987 H991 0.930 . S
C988 C987 1.369 . S
C988 C997 1.429 . S
C989 C987 1.419 . S
C989 C990 1.363 . S
C989 H992 0.929 . S
C990 C989 1.363 . S
C990 C996 1.428 . S
H991 C987 0.930 . S
H992 C989 0.929 . S
S993 N994 1.613 . S
S993 N995 1.610 . S
N994 S993 1.613 . S
N994 C997 1.350 . S
N995 S993 1.610 . S
N995 C996 1.351 . S
C996 C990 1.428 . S
C996 N995 1.351 . S
C996 C997 1.434 . S
C997 C988 1.429 . S
C997 N994 1.350 . S
C997 C996 1.434 . S
C998 C999 1.369 . S
C998 C1000 1.419 . S
C998 H1002 0.930 . S
C999 C998 1.369 . S
C999 C1008 1.429 . S
C1000 C998 1.419 . S
C1000 C1001 1.363 . S
C1000 H1003 0.929 . S
C1001 C1000 1.363 . S
C1001 C1007 1.428 . S
H1002 C998 0.930 . S
H1003 C1000 0.929 . S
S1004 N1005 1.613 . S
S1004 N1006 1.610 . S
N1005 S1004 1.613 . S
N1005 C1008 1.350 . S
N1006 S1004 1.610 . S
N1006 C1007 1.351 . S
C1007 C1001 1.428 . S
C1007 N1006 1.351 . S
C1007 C1008 1.434 . S
C1008 C999 1.429 . S
C1008 N1005 1.350 . S
C1008 C1007 1.434 . S
C1009 C1010 1.369 . S
C1009 C1011 1.419 . S
C1009 H1013 0.930 . S
C1010 C1009 1.369 . S
C1010 C1019 1.429 . S
C1011 C1009 1.419 . S
C1011 C1012 1.363 . S
C1011 H1014 0.929 . S
C1012 C1011 1.363 . S
C1012 C1018 1.428 . S
H1013 C1009 0.930 . S
H1014 C1011 0.929 . S
S1015 N1016 1.613 . S
S1015 N1017 1.610 . S
N1016 S1015 1.613 . S
N1016 C1019 1.350 . S
N1017 S1015 1.610 . S
N1017 C1018 1.351 . S
C1018 C1012 1.428 . S
C1018 N1017 1.351 . S
C1018 C1019 1.434 . S
C1019 C1010 1.429 . S
C1019 N1016 1.350 . S
C1019 C1018 1.434 . S
C1020 C1021 1.369 . S
C1020 C1022 1.419 . S
C1020 H1024 0.930 . S
C1021 C1020 1.369 . S
C1021 C1030 1.429 . S
C1022 C1020 1.419 . S
C1022 C1023 1.363 . S
C1022 H1025 0.929 . S
C1023 C1022 1.363 . S
C1023 C1029 1.428 . S
H1024 C1020 0.930 . S
H1025 C1022 0.929 . S
S1026 N1027 1.613 . S
S1026 N1028 1.610 . S
N1027 S1026 1.613 . S
N1027 C1030 1.350 . S
N1028 S1026 1.610 . S
N1028 C1029 1.351 . S
C1029 C1023 1.428 . S
C1029 N1028 1.351 . S
C1029 C1030 1.434 . S
C1030 C1021 1.429 . S
C1030 N1027 1.350 . S
C1030 C1029 1.434 . S
C1031 C1032 1.369 . S
C1031 C1033 1.419 . S
C1031 H1035 0.930 . S
C1032 C1031 1.369 . S
C1032 C1041 1.429 . S
C1033 C1031 1.419 . S
C1033 C1034 1.363 . S
C1033 H1036 0.929 . S
C1034 C1033 1.363 . S
C1034 C1040 1.428 . S
H1035 C1031 0.930 . S
H1036 C1033 0.929 . S
S1037 N1038 1.613 . S
S1037 N1039 1.610 . S
N1038 S1037 1.613 . S
N1038 C1041 1.350 . S
N1039 S1037 1.610 . S
N1039 C1040 1.351 . S
C1040 C1034 1.428 . S
C1040 N1039 1.351 . S
C1040 C1041 1.434 . S
C1041 C1032 1.429 . S
C1041 N1038 1.350 . S
C1041 C1040 1.434 . S
C1042 C1043 1.369 . S
C1042 C1044 1.419 . S
C1042 H1046 0.930 . S
C1043 C1042 1.369 . S
C1043 C1052 1.429 . S
C1044 C1042 1.419 . S
C1044 C1045 1.363 . S
C1044 H1047 0.929 . S
C1045 C1044 1.363 . S
C1045 C1051 1.428 . S
H1046 C1042 0.930 . S
H1047 C1044 0.929 . S
S1048 N1049 1.613 . S
S1048 N1050 1.610 . S
N1049 S1048 1.613 . S
N1049 C1052 1.350 . S
N1050 S1048 1.610 . S
N1050 C1051 1.351 . S
C1051 C1045 1.428 . S
C1051 N1050 1.351 . S
C1051 C1052 1.434 . S
C1052 C1043 1.429 . S
C1052 N1049 1.350 . S
C1052 C1051 1.434 . S
C1053 C1054 1.369 . S
C1053 C1055 1.419 . S
C1053 H1057 0.930 . S
C1054 C1053 1.369 . S
C1054 C1063 1.429 . S
C1055 C1053 1.419 . S
C1055 C1056 1.363 . S
C1055 H1058 0.929 . S
C1056 C1055 1.363 . S
C1056 C1062 1.428 . S
H1057 C1053 0.930 . S
H1058 C1055 0.929 . S
S1059 N1060 1.613 . S
S1059 N1061 1.610 . S
N1060 S1059 1.613 . S
N1060 C1063 1.350 . S
N1061 S1059 1.610 . S
N1061 C1062 1.351 . S
C1062 C1056 1.428 . S
C1062 N1061 1.351 . S
C1062 C1063 1.434 . S
C1063 C1054 1.429 . S
C1063 N1060 1.350 . S
C1063 C1062 1.434 . S
C1064 C1065 1.369 . S
C1064 C1066 1.419 . S
C1064 H1068 0.930 . S
C1065 C1064 1.369 . S
C1065 C1074 1.429 1_455 S
C1066 C1064 1.419 . S
C1066 C1067 1.363 . S
C1066 H1069 0.929 . S
C1067 C1066 1.363 . S
C1067 C1073 1.428 . S
H1068 C1064 0.930 . S
H1069 C1066 0.929 . S
S1070 N1071 1.613 . S
S1070 N1072 1.610 . S
N1071 S1070 1.613 . S
N1071 C1074 1.350 . S
N1072 S1070 1.610 . S
N1072 C1073 1.351 1_655 S
C1073 C1067 1.428 . S
C1073 N1072 1.351 1_455 S
C1073 C1074 1.434 1_455 S
C1074 C1065 1.429 1_655 S
C1074 N1071 1.350 . S
C1074 C1073 1.434 1_655 S
C1075 C1076 1.369 . S
C1075 C1077 1.419 . S
C1075 H1079 0.930 . S
C1076 C1075 1.369 . S
C1076 C1085 1.429 . S
C1077 C1075 1.419 . S
C1077 C1078 1.363 . S
C1077 H1080 0.929 . S
C1078 C1077 1.363 . S
C1078 C1084 1.428 . S
H1079 C1075 0.930 . S
H1080 C1077 0.929 . S
S1081 N1082 1.613 . S
S1081 N1083 1.610 . S
N1082 S1081 1.613 . S
N1082 C1085 1.350 . S
N1083 S1081 1.610 . S
N1083 C1084 1.351 . S
C1084 C1078 1.428 . S
C1084 N1083 1.351 . S
C1084 C1085 1.434 . S
C1085 C1076 1.429 . S
C1085 N1082 1.350 . S
C1085 C1084 1.434 . S
C1086 C1087 1.369 . S
C1086 C1088 1.419 . S
C1086 H1090 0.930 . S
C1087 C1086 1.369 . S
C1087 C1096 1.429 . S
C1088 C1086 1.419 . S
C1088 C1089 1.363 . S
C1088 H1091 0.929 . S
C1089 C1088 1.363 . S
C1089 C1095 1.428 . S
H1090 C1086 0.930 . S
H1091 C1088 0.929 . S
S1092 N1093 1.613 . S
S1092 N1094 1.610 . S
N1093 S1092 1.613 . S
N1093 C1096 1.350 . S
N1094 S1092 1.610 . S
N1094 C1095 1.351 . S
C1095 C1089 1.428 . S
C1095 N1094 1.351 . S
C1095 C1096 1.434 . S
C1096 C1087 1.429 . S
C1096 N1093 1.350 . S
C1096 C1095 1.434 . S
C1097 C1098 1.369 . S
C1097 C1099 1.419 . S
C1097 H1101 0.930 . S
C1098 C1097 1.369 . S
C1098 C1107 1.429 . S
C1099 C1097 1.419 . S
C1099 C1100 1.363 . S
C1099 H1102 0.929 . S
C1100 C1099 1.363 . S
C1100 C1106 1.428 . S
H1101 C1097 0.930 . S
H1102 C1099 0.929 . S
S1103 N1104 1.613 . S
S1103 N1105 1.610 . S
N1104 S1103 1.613 . S
N1104 C1107 1.350 . S
N1105 S1103 1.610 . S
N1105 C1106 1.351 . S
C1106 C1100 1.428 . S
C1106 N1105 1.351 . S
C1106 C1107 1.434 . S
C1107 C1098 1.429 . S
C1107 N1104 1.350 . S
C1107 C1106 1.434 . S
C1108 C1109 1.369 1_655 S
C1108 C1110 1.419 1_655 S
C1108 H1112 0.930 . S
C1109 C1108 1.369 1_455 S
C1109 C1118 1.429 . S
C1110 C1108 1.419 1_455 S
C1110 C1111 1.363 . S
C1110 H1113 0.929 1_455 S
C1111 C1110 1.363 . S
C1111 C1117 1.428 . S
H1112 C1108 0.930 . S
H1113 C1110 0.929 1_655 S
S1114 N1115 1.613 . S
S1114 N1116 1.610 . S
N1115 S1114 1.613 . S
N1115 C1118 1.350 . S
N1116 S1114 1.610 . S
N1116 C1117 1.351 . S
C1117 C1111 1.428 . S
C1117 N1116 1.351 . S
C1117 C1118 1.434 . S
C1118 C1109 1.429 . S
C1118 N1115 1.350 . S
C1118 C1117 1.434 . S
C1119 C1120 1.369 . S
C1119 C1121 1.419 . S
C1119 H1123 0.930 . S
C1120 C1119 1.369 . S
C1120 C1129 1.429 . S
C1121 C1119 1.419 . S
C1121 C1122 1.363 . S
C1121 H1124 0.929 . S
C1122 C1121 1.363 . S
C1122 C1128 1.428 . S
H1123 C1119 0.930 . S
H1124 C1121 0.929 . S
S1125 N1126 1.613 . S
S1125 N1127 1.610 . S
N1126 S1125 1.613 . S
N1126 C1129 1.350 . S
N1127 S1125 1.610 . S
N1127 C1128 1.351 . S
C1128 C1122 1.428 . S
C1128 N1127 1.351 . S
C1128 C1129 1.434 . S
C1129 C1120 1.429 . S
C1129 N1126 1.350 . S
C1129 C1128 1.434 . S
C1130 C1131 1.369 . S
C1130 C1132 1.419 . S
C1130 H1134 0.930 . S
C1131 C1130 1.369 . S
C1131 C1140 1.429 . S
C1132 C1130 1.419 . S
C1132 C1133 1.363 . S
C1132 H1135 0.929 . S
C1133 C1132 1.363 . S
C1133 C1139 1.428 . S
H1134 C1130 0.930 . S
H1135 C1132 0.929 . S
S1136 N1137 1.613 . S
S1136 N1138 1.610 . S
N1137 S1136 1.613 . S
N1137 C1140 1.350 . S
N1138 S1136 1.610 . S
N1138 C1139 1.351 . S
C1139 C1133 1.428 . S
C1139 N1138 1.351 . S
C1139 C1140 1.434 . S
C1140 C1131 1.429 . S
C1140 N1137 1.350 . S
C1140 C1139 1.434 . S
C1141 C1142 1.369 . S
C1141 C1143 1.419 . S
C1141 H1145 0.930 . S
C1142 C1141 1.369 . S
C1142 C1151 1.429 . S
C1143 C1141 1.419 . S
C1143 C1144 1.363 . S
C1143 H1146 0.929 . S
C1144 C1143 1.363 . S
C1144 C1150 1.428 . S
H1145 C1141 0.930 . S
H1146 C1143 0.929 . S
S1147 N1148 1.613 . S
S1147 N1149 1.610 . S
N1148 S1147 1.613 . S
N1148 C1151 1.350 . S
N1149 S1147 1.610 . S
N1149 C1150 1.351 . S
C1150 C1144 1.428 . S
C1150 N1149 1.351 . S
C1150 C1151 1.434 . S
C1151 C1142 1.429 . S
C1151 N1148 1.350 . S
C1151 C1150 1.434 . S
C1152 C1153 1.369 . S
C1152 C1154 1.419 1_565 S
C1152 H1156 0.930 . S
C1153 C1152 1.369 . S
C1153 C1162 1.429 . S
C1154 C1152 1.419 1_545 S
C1154 C1155 1.363 . S
C1154 H1157 0.929 . S
C1155 C1154 1.363 . S
C1155 C1161 1.428 1_545 S
H1156 C1152 0.930 . S
H1157 C1154 0.929 . S
S1158 N1159 1.613 . S
S1158 N1160 1.610 1_556 S
N1159 S1158 1.613 . S
N1159 C1162 1.350 1_556 S
N1160 S1158 1.610 1_554 S
N1160 C1161 1.351 . S
C1161 C1155 1.428 1_565 S
C1161 N1160 1.351 . S
C1161 C1162 1.434 . S
C1162 C1153 1.429 . S
C1162 N1159 1.350 1_554 S
C1162 C1161 1.434 . S
C1163 C1164 1.369 1_554 S
C1163 C1165 1.419 . S
C1163 H1167 0.930 . S
C1164 C1163 1.369 1_556 S
C1164 C1173 1.429 . S
C1165 C1163 1.419 . S
C1165 C1166 1.363 . S
C1165 H1168 0.929 . S
C1166 C1165 1.363 . S
C1166 C1172 1.428 1_554 S
H1167 C1163 0.930 . S
H1168 C1165 0.929 . S
S1169 N1170 1.613 . S
S1169 N1171 1.610 . S
N1170 S1169 1.613 . S
N1170 C1173 1.350 . S
N1171 S1169 1.610 . S
N1171 C1172 1.351 . S
C1172 C1166 1.428 1_556 S
C1172 N1171 1.351 . S
C1172 C1173 1.434 . S
C1173 C1164 1.429 . S
C1173 N1170 1.350 . S
C1173 C1172 1.434 . S
C1174 C1175 1.369 . S
C1174 C1176 1.419 . S
C1174 H1178 0.930 . S
C1175 C1174 1.369 . S
C1175 C1184 1.429 . S
C1176 C1174 1.419 . S
C1176 C1177 1.363 . S
C1176 H1179 0.929 . S
C1177 C1176 1.363 . S
C1177 C1183 1.428 . S
H1178 C1174 0.930 . S
H1179 C1176 0.929 . S
S1180 N1181 1.613 . S
S1180 N1182 1.610 . S
N1181 S1180 1.613 . S
N1181 C1184 1.350 . S
N1182 S1180 1.610 . S
N1182 C1183 1.351 . S
C1183 C1177 1.428 . S
C1183 N1182 1.351 . S
C1183 C1184 1.434 . S
C1184 C1175 1.429 . S
C1184 N1181 1.350 . S
C1184 C1183 1.434 . S
C1185 C1186 1.369 . S
C1185 C1187 1.419 . S
C1185 H1189 0.930 . S
C1186 C1185 1.369 . S
C1186 C1195 1.429 . S
C1187 C1185 1.419 . S
C1187 C1188 1.363 . S
C1187 H1190 0.929 . S
C1188 C1187 1.363 . S
C1188 C1194 1.428 . S
H1189 C1185 0.930 . S
H1190 C1187 0.929 . S
S1191 N1192 1.613 . S
S1191 N1193 1.610 . S
N1192 S1191 1.613 . S
N1192 C1195 1.350 . S
N1193 S1191 1.610 . S
N1193 C1194 1.351 . S
C1194 C1188 1.428 . S
C1194 N1193 1.351 . S
C1194 C1195 1.434 . S
C1195 C1186 1.429 . S
C1195 N1192 1.350 . S
C1195 C1194 1.434 . S
C1196 C1197 1.369 . S
C1196 C1198 1.419 . S
C1196 H1200 0.930 . S
C1197 C1196 1.369 . S
C1197 C1206 1.429 . S
C1198 C1196 1.419 . S
C1198 C1199 1.363 . S
C1198 H1201 0.929 . S
C1199 C1198 1.363 . S
C1199 C1205 1.428 . S
H1200 C1196 0.930 . S
H1201 C1198 0.929 . S
S1202 N1203 1.613 . S
S1202 N1204 1.610 . S
N1203 S1202 1.613 . S
N1203 C1206 1.350 . S
N1204 S1202 1.610 . S
N1204 C1205 1.351 . S
C1205 C1199 1.428 . S
C1205 N1204 1.351 . S
C1205 C1206 1.434 . S
C1206 C1197 1.429 . S
C1206 N1203 1.350 . S
C1206 C1205 1.434 . S
C1207 C1208 1.369 . S
C1207 C1209 1.419 . S
C1207 H1211 0.930 . S
C1208 C1207 1.369 . S
C1208 C1217 1.429 . S
C1209 C1207 1.419 . S
C1209 C1210 1.363 . S
C1209 H1212 0.929 . S
C1210 C1209 1.363 . S
C1210 C1216 1.428 . S
H1211 C1207 0.930 . S
H1212 C1209 0.929 . S
S1213 N1214 1.613 . S
S1213 N1215 1.610 . S
N1214 S1213 1.613 . S
N1214 C1217 1.350 . S
N1215 S1213 1.610 . S
N1215 C1216 1.351 . S
C1216 C1210 1.428 . S
C1216 N1215 1.351 . S
C1216 C1217 1.434 . S
C1217 C1208 1.429 . S
C1217 N1214 1.350 . S
C1217 C1216 1.434 . S
C1218 C1219 1.369 . S
C1218 C1220 1.419 . S
C1218 H1222 0.930 . S
C1219 C1218 1.369 . S
C1219 C1228 1.429 . S
C1220 C1218 1.419 . S
C1220 C1221 1.363 . S
C1220 H1223 0.929 . S
C1221 C1220 1.363 . S
C1221 C1227 1.428 . S
H1222 C1218 0.930 . S
H1223 C1220 0.929 . S
S1224 N1225 1.613 . S
S1224 N1226 1.610 . S
N1225 S1224 1.613 . S
N1225 C1228 1.350 . S
N1226 S1224 1.610 . S
N1226 C1227 1.351 . S
C1227 C1221 1.428 . S
C1227 N1226 1.351 . S
C1227 C1228 1.434 . S
C1228 C1219 1.429 . S
C1228 N1225 1.350 . S
C1228 C1227 1.434 . S
C1229 C1230 1.369 . S
C1229 C1231 1.419 . S
C1229 H1233 0.930 . S
C1230 C1229 1.369 . S
C1230 C1239 1.429 . S
C1231 C1229 1.419 . S
C1231 C1232 1.363 . S
C1231 H1234 0.929 . S
C1232 C1231 1.363 . S
C1232 C1238 1.428 . S
H1233 C1229 0.930 . S
H1234 C1231 0.929 . S
S1235 N1236 1.613 . S
S1235 N1237 1.610 . S
N1236 S1235 1.613 . S
N1236 C1239 1.350 . S
N1237 S1235 1.610 . S
N1237 C1238 1.351 . S
C1238 C1232 1.428 . S
C1238 N1237 1.351 . S
C1238 C1239 1.434 . S
C1239 C1230 1.429 . S
C1239 N1236 1.350 . S
C1239 C1238 1.434 . S
C1240 C1241 1.369 . S
C1240 C1242 1.419 . S
C1240 H1244 0.930 . S
C1241 C1240 1.369 . S
C1241 C1250 1.429 . S
C1242 C1240 1.419 . S
C1242 C1243 1.363 . S
C1242 H1245 0.929 . S
C1243 C1242 1.363 . S
C1243 C1249 1.428 . S
H1244 C1240 0.930 . S
H1245 C1242 0.929 . S
S1246 N1247 1.613 . S
S1246 N1248 1.610 . S
N1247 S1246 1.613 . S
N1247 C1250 1.350 . S
N1248 S1246 1.610 . S
N1248 C1249 1.351 . S
C1249 C1243 1.428 . S
C1249 N1248 1.351 . S
C1249 C1250 1.434 . S
C1250 C1241 1.429 . S
C1250 N1247 1.350 . S
C1250 C1249 1.434 . S
C1251 C1252 1.369 . S
C1251 C1253 1.419 . S
C1251 H1255 0.930 . S
C1252 C1251 1.369 . S
C1252 C1261 1.429 . S
C1253 C1251 1.419 . S
C1253 C1254 1.363 . S
C1253 H1256 0.929 . S
C1254 C1253 1.363 . S
C1254 C1260 1.428 . S
H1255 C1251 0.930 . S
H1256 C1253 0.929 . S
S1257 N1258 1.613 . S
S1257 N1259 1.610 . S
N1258 S1257 1.613 . S
N1258 C1261 1.350 . S
N1259 S1257 1.610 . S
N1259 C1260 1.351 . S
C1260 C1254 1.428 . S
C1260 N1259 1.351 . S
C1260 C1261 1.434 . S
C1261 C1252 1.429 . S
C1261 N1258 1.350 . S
C1261 C1260 1.434 . S
C1262 C1263 1.369 . S
C1262 C1264 1.419 . S
C1262 H1266 0.930 . S
C1263 C1262 1.369 . S
C1263 C1272 1.429 . S
C1264 C1262 1.419 . S
C1264 C1265 1.363 . S
C1264 H1267 0.929 . S
C1265 C1264 1.363 . S
C1265 C1271 1.428 . S
H1266 C1262 0.930 . S
H1267 C1264 0.929 . S
S1268 N1269 1.613 . S
S1268 N1270 1.610 . S
N1269 S1268 1.613 . S
N1269 C1272 1.350 . S
N1270 S1268 1.610 . S
N1270 C1271 1.351 . S
C1271 C1265 1.428 . S
C1271 N1270 1.351 . S
C1271 C1272 1.434 . S
C1272 C1263 1.429 . S
C1272 N1269 1.350 . S
C1272 C1271 1.434 . S
C1273 C1274 1.369 . S
C1273 C1275 1.419 . S
C1273 H1277 0.930 . S
C1274 C1273 1.369 . S
C1274 C1283 1.429 . S
C1275 C1273 1.419 . S
C1275 C1276 1.363 . S
C1275 H1278 0.929 . S
C1276 C1275 1.363 . S
C1276 C1282 1.428 . S
H1277 C1273 0.930 . S
H1278 C1275 0.929 . S
S1279 N1280 1.613 . S
S1279 N1281 1.610 . S
N1280 S1279 1.613 . S
N1280 C1283 1.350 . S
N1281 S1279 1.610 . S
N1281 C1282 1.351 . S
C1282 C1276 1.428 . S
C1282 N1281 1.351 . S
C1282 C1283 1.434 . S
C1283 C1274 1.429 . S
C1283 N1280 1.350 . S
C1283 C1282 1.434 . S
C1284 C1285 1.369 . S
C1284 C1286 1.419 . S
C1284 H1288 0.930 . S
C1285 C1284 1.369 . S
C1285 C1294 1.429 . S
C1286 C1284 1.419 . S
C1286 C1287 1.363 . S
C1286 H1289 0.929 . S
C1287 C1286 1.363 . S
C1287 C1293 1.428 . S
H1288 C1284 0.930 . S
H1289 C1286 0.929 . S
S1290 N1291 1.613 . S
S1290 N1292 1.610 . S
N1291 S1290 1.613 . S
N1291 C1294 1.350 . S
N1292 S1290 1.610 . S
N1292 C1293 1.351 . S
C1293 C1287 1.428 . S
C1293 N1292 1.351 . S
C1293 C1294 1.434 . S
C1294 C1285 1.429 . S
C1294 N1291 1.350 . S
C1294 C1293 1.434 . S
C1295 C1296 1.369 . S
C1295 C1297 1.419 . S
C1295 H1299 0.930 . S
C1296 C1295 1.369 . S
C1296 C1305 1.429 . S
C1297 C1295 1.419 . S
C1297 C1298 1.363 . S
C1297 H1300 0.929 . S
C1298 C1297 1.363 . S
C1298 C1304 1.428 . S
H1299 C1295 0.930 . S
H1300 C1297 0.929 . S
S1301 N1302 1.613 . S
S1301 N1303 1.610 . S
N1302 S1301 1.613 . S
N1302 C1305 1.350 . S
N1303 S1301 1.610 . S
N1303 C1304 1.351 . S
C1304 C1298 1.428 . S
C1304 N1303 1.351 . S
C1304 C1305 1.434 . S
C1305 C1296 1.429 . S
C1305 N1302 1.350 . S
C1305 C1304 1.434 . S
C1306 C1307 1.369 . S
C1306 C1308 1.419 . S
C1306 H1310 0.930 . S
C1307 C1306 1.369 . S
C1307 C1316 1.429 . S
C1308 C1306 1.419 . S
C1308 C1309 1.363 . S
C1308 H1311 0.929 . S
C1309 C1308 1.363 . S
C1309 C1315 1.428 . S
H1310 C1306 0.930 . S
H1311 C1308 0.929 . S
S1312 N1313 1.613 1_554 S
S1312 N1314 1.610 . S
N1313 S1312 1.613 1_556 S
N1313 C1316 1.350 . S
N1314 S1312 1.610 . S
N1314 C1315 1.351 1_554 S
C1315 C1309 1.428 . S
C1315 N1314 1.351 1_556 S
C1315 C1316 1.434 . S
C1316 C1307 1.429 . S
C1316 N1313 1.350 . S
C1316 C1315 1.434 . S
C1317 C1318 1.369 . S
C1317 C1319 1.419 . S
C1317 H1321 0.930 . S
C1318 C1317 1.369 . S
C1318 C1327 1.429 . S
C1319 C1317 1.419 . S
C1319 C1320 1.363 . S
C1319 H1322 0.929 . S
C1320 C1319 1.363 . S
C1320 C1326 1.428 . S
H1321 C1317 0.930 . S
H1322 C1319 0.929 . S
S1323 N1324 1.613 . S
S1323 N1325 1.610 . S
N1324 S1323 1.613 . S
N1324 C1327 1.350 . S
N1325 S1323 1.610 . S
N1325 C1326 1.351 . S
C1326 C1320 1.428 . S
C1326 N1325 1.351 . S
C1326 C1327 1.434 . S
C1327 C1318 1.429 . S
C1327 N1324 1.350 . S
C1327 C1326 1.434 . S
C1328 C1329 1.353 1_565 S
C1328 C1330 1.418 1_565 S
C1328 H1332 0.948 . S
C1329 C1328 1.353 1_545 S
C1329 C1338 1.429 . S
C1330 C1328 1.418 1_545 S
C1330 C1331 1.377 . S
C1330 H1333 0.915 1_545 S
C1331 C1330 1.377 . S
C1331 C1337 1.428 . S
H1332 C1328 0.948 . S
H1333 C1330 0.915 1_565 S
S1334 N1335 1.613 . S
S1334 N1336 1.610 . S
N1335 S1334 1.613 . S
N1335 C1338 1.350 . S
N1336 S1334 1.610 . S
N1336 C1337 1.351 . S
C1337 C1331 1.428 . S
C1337 N1336 1.351 . S
C1337 C1338 1.434 . S
C1338 C1329 1.429 . S
C1338 N1335 1.350 . S
C1338 C1337 1.434 . S
C1339 C1340 1.369 . S
C1339 C1341 1.419 . S
C1339 H1343 0.930 . S
C1340 C1339 1.369 . S
C1340 C1349 1.429 . S
C1341 C1339 1.419 . S
C1341 C1342 1.363 . S
C1341 H1344 0.929 . S
C1342 C1341 1.363 . S
C1342 C1348 1.428 . S
H1343 C1339 0.930 . S
H1344 C1341 0.929 . S
S1345 N1346 1.613 . S
S1345 N1347 1.610 . S
N1346 S1345 1.613 . S
N1346 C1349 1.350 . S
N1347 S1345 1.610 . S
N1347 C1348 1.351 . S
C1348 C1342 1.428 . S
C1348 N1347 1.351 . S
C1348 C1349 1.434 . S
C1349 C1340 1.429 . S
C1349 N1346 1.350 . S
C1349 C1348 1.434 . S
C1350 C1351 1.369 . S
C1350 C1352 1.419 . S
C1350 H1354 0.930 . S
C1351 C1350 1.369 . S
C1351 C1360 1.429 . S
C1352 C1350 1.419 . S
C1352 C1353 1.363 . S
C1352 H1355 0.929 . S
C1353 C1352 1.363 . S
C1353 C1359 1.428 . S
H1354 C1350 0.930 . S
H1355 C1352 0.929 . S
S1356 N1357 1.613 . S
S1356 N1358 1.610 1_565 S
N1357 S1356 1.613 . S
N1357 C1360 1.350 1_565 S
N1358 S1356 1.610 1_545 S
N1358 C1359 1.351 . S
C1359 C1353 1.428 . S
C1359 N1358 1.351 . S
C1359 C1360 1.434 . S
C1360 C1351 1.429 . S
C1360 N1357 1.350 1_545 S
C1360 C1359 1.434 . S
C1361 C1362 1.369 . S
C1361 C1363 1.419 . S
C1361 H1365 0.930 . S
C1362 C1361 1.369 . S
C1362 C1371 1.429 . S
C1363 C1361 1.419 . S
C1363 C1364 1.363 . S
C1363 H1366 0.929 . S
C1364 C1363 1.363 . S
C1364 C1370 1.428 . S
H1365 C1361 0.930 . S
H1366 C1363 0.929 . S
S1367 N1368 1.613 . S
S1367 N1369 1.610 . S
N1368 S1367 1.613 . S
N1368 C1371 1.350 . S
N1369 S1367 1.610 . S
N1369 C1370 1.351 . S
C1370 C1364 1.428 . S
C1370 N1369 1.351 . S
C1370 C1371 1.434 . S
C1371 C1362 1.429 . S
C1371 N1368 1.350 . S
C1371 C1370 1.434 . S
C1372 C1373 1.369 . S
C1372 C1374 1.419 . S
C1372 H1376 0.930 . S
C1373 C1372 1.369 . S
C1373 C1382 1.429 1_545 S
C1374 C1372 1.419 . S
C1374 C1375 1.363 . S
C1374 H1377 0.929 . S
C1375 C1374 1.363 . S
C1375 C1381 1.428 . S
H1376 C1372 0.930 . S
H1377 C1374 0.929 . S
S1378 N1379 1.613 . S
S1378 N1380 1.610 . S
N1379 S1378 1.613 . S
N1379 C1382 1.350 . S
N1380 S1378 1.610 . S
N1380 C1381 1.351 1_565 S
C1381 C1375 1.428 . S
C1381 N1380 1.351 1_545 S
C1381 C1382 1.434 1_545 S
C1382 C1373 1.429 1_565 S
C1382 N1379 1.350 . S
C1382 C1381 1.434 1_565 S
C1383 C1384 1.369 . S
C1383 C1385 1.419 . S
C1383 H1387 0.930 . S
C1384 C1383 1.369 . S
C1384 C1393 1.429 . S
C1385 C1383 1.419 . S
C1385 C1386 1.363 . S
C1385 H1388 0.929 . S
C1386 C1385 1.363 . S
C1386 C1392 1.428 . S
H1387 C1383 0.930 . S
H1388 C1385 0.929 . S
S1389 N1390 1.613 . S
S1389 N1391 1.610 . S
N1390 S1389 1.613 . S
N1390 C1393 1.350 . S
N1391 S1389 1.610 . S
N1391 C1392 1.351 . S
C1392 C1386 1.428 . S
C1392 N1391 1.351 . S
C1392 C1393 1.434 . S
C1393 C1384 1.429 . S
C1393 N1390 1.350 . S
C1393 C1392 1.434 . S
C1394 C1395 1.369 . S
C1394 C1396 1.419 . S
C1394 H1398 0.930 . S
C1395 C1394 1.369 . S
C1395 C1404 1.435 . S
C1396 C1394 1.419 . S
C1396 C1397 1.363 . S
C1396 H1399 0.929 . S
C1397 C1396 1.363 . S
C1397 C1403 1.428 . S
H1398 C1394 0.930 . S
H1399 C1396 0.929 . S
S1400 N1401 1.613 . S
S1400 N1402 1.610 1_545 S
N1401 S1400 1.613 . S
N1401 C1404 1.340 1_545 S
N1402 S1400 1.610 1_565 S
N1402 C1403 1.351 . S
C1403 C1397 1.428 . S
C1403 N1402 1.351 . S
C1403 C1404 1.438 . S
C1404 C1395 1.435 . S
C1404 N1401 1.340 1_565 S
C1404 C1403 1.438 . S
C1405 C1406 1.369 . S
C1405 C1407 1.419 . S
C1405 H1409 0.930 . S
C1406 C1405 1.369 . S
C1406 C1415 1.429 . S
C1407 C1405 1.419 . S
C1407 C1408 1.363 . S
C1407 H1410 0.929 . S
C1408 C1407 1.363 . S
C1408 C1414 1.428 . S
H1409 C1405 0.930 . S
H1410 C1407 0.929 . S
S1411 N1412 1.613 . S
S1411 N1413 1.610 . S
N1412 S1411 1.613 . S
N1412 C1415 1.350 . S
N1413 S1411 1.610 . S
N1413 C1414 1.351 . S
C1414 C1408 1.428 . S
C1414 N1413 1.351 . S
C1414 C1415 1.434 . S
C1415 C1406 1.429 . S
C1415 N1412 1.350 . S
C1415 C1414 1.434 . S
C1416 C1417 1.369 . S
C1416 C1418 1.419 . S
C1416 H1420 0.930 . S
C1417 C1416 1.369 . S
C1417 C1426 1.429 1_554 S
C1418 C1416 1.419 . S
C1418 C1419 1.363 1_554 S
C1418 H1421 0.929 . S
C1419 C1418 1.363 1_556 S
C1419 C1425 1.428 . S
H1420 C1416 0.930 . S
H1421 C1418 0.929 . S
S1422 N1423 1.613 . S
S1422 N1424 1.610 . S
N1423 S1422 1.613 . S
N1423 C1426 1.350 . S
N1424 S1422 1.610 . S
N1424 C1425 1.351 . S
C1425 C1419 1.428 . S
C1425 N1424 1.351 . S
C1425 C1426 1.434 . S
C1426 C1417 1.429 1_556 S
C1426 N1423 1.350 . S
C1426 C1425 1.434 . S
C1427 C1428 1.369 . S
C1427 C1429 1.419 . S
C1427 H1431 0.930 . S
C1428 C1427 1.369 . S
C1428 C1437 1.429 . S
C1429 C1427 1.419 . S
C1429 C1430 1.363 . S
C1429 H1432 0.929 . S
C1430 C1429 1.363 . S
C1430 C1436 1.428 . S
H1431 C1427 0.930 . S
H1432 C1429 0.929 . S
S1433 N1434 1.613 . S
S1433 N1435 1.610 . S
N1434 S1433 1.613 . S
N1434 C1437 1.350 . S
N1435 S1433 1.610 . S
N1435 C1436 1.351 . S
C1436 C1430 1.428 . S
C1436 N1435 1.351 . S
C1436 C1437 1.434 . S
C1437 C1428 1.429 . S
C1437 N1434 1.350 . S
C1437 C1436 1.434 . S
C1438 C1439 1.369 . S
C1438 C1440 1.419 . S
C1438 H1442 0.930 . S
C1439 C1438 1.369 . S
C1439 C1448 1.429 . S
C1440 C1438 1.419 . S
C1440 C1441 1.363 . S
C1440 H1443 0.929 . S
C1441 C1440 1.363 . S
C1441 C1447 1.428 . S
H1442 C1438 0.930 . S
H1443 C1440 0.929 . S
S1444 N1445 1.613 . S
S1444 N1446 1.610 . S
N1445 S1444 1.613 . S
N1445 C1448 1.350 . S
N1446 S1444 1.610 . S
N1446 C1447 1.351 . S
C1447 C1441 1.428 . S
C1447 N1446 1.351 . S
C1447 C1448 1.434 . S
C1448 C1439 1.429 . S
C1448 N1445 1.350 . S
C1448 C1447 1.434 . S
C1449 C1450 1.369 . S
C1449 C1451 1.419 . S
C1449 H1453 0.930 . S
C1450 C1449 1.369 . S
C1450 C1459 1.429 . S
C1451 C1449 1.419 . S
C1451 C1452 1.363 . S
C1451 H1454 0.929 . S
C1452 C1451 1.363 . S
C1452 C1458 1.428 . S
H1453 C1449 0.930 . S
H1454 C1451 0.929 . S
S1455 N1456 1.613 . S
S1455 N1457 1.610 . S
N1456 S1455 1.613 . S
N1456 C1459 1.350 . S
N1457 S1455 1.610 . S
N1457 C1458 1.351 . S
C1458 C1452 1.428 . S
C1458 N1457 1.351 . S
C1458 C1459 1.434 . S
C1459 C1450 1.429 . S
C1459 N1456 1.350 . S
C1459 C1458 1.434 . S
C1460 C1461 1.369 1_565 S
C1460 C1462 1.419 . S
C1460 H1464 0.930 . S
C1461 C1460 1.369 1_545 S
C1461 C1470 1.429 . S
C1462 C1460 1.419 . S
C1462 C1463 1.363 . S
C1462 H1465 0.929 . S
C1463 C1462 1.363 . S
C1463 C1469 1.428 1_565 S
H1464 C1460 0.930 . S
H1465 C1462 0.929 . S
S1466 N1467 1.613 . S
S1466 N1468 1.610 . S
N1467 S1466 1.613 . S
N1467 C1470 1.350 . S
N1468 S1466 1.610 . S
N1468 C1469 1.351 . S
C1469 C1463 1.428 1_545 S
C1469 N1468 1.351 . S
C1469 C1470 1.434 . S
C1470 C1461 1.429 . S
C1470 N1467 1.350 . S
C1470 C1469 1.434 . S
C1471 C1472 1.369 . S
C1471 C1473 1.419 . S
C1471 H1475 0.930 . S
C1472 C1471 1.369 . S
C1472 C1481 1.429 . S
C1473 C1471 1.419 . S
C1473 C1474 1.363 . S
C1473 H1476 0.929 . S
C1474 C1473 1.363 . S
C1474 C1480 1.428 . S
H1475 C1471 0.930 . S
H1476 C1473 0.929 . S
S1477 N1478 1.613 1_545 S
S1477 N1479 1.610 1_545 S
N1478 S1477 1.613 1_565 S
N1478 C1481 1.350 . S
N1479 S1477 1.610 1_565 S
N1479 C1480 1.351 . S
C1480 C1474 1.428 . S
C1480 N1479 1.351 . S
C1480 C1481 1.434 . S
C1481 C1472 1.429 . S
C1481 N1478 1.350 . S
C1481 C1480 1.434 . S
C1482 C1483 1.369 . S
C1482 C1484 1.419 . S
C1482 H1486 0.930 . S
C1483 C1482 1.369 . S
C1483 C1492 1.429 . S
C1484 C1482 1.419 . S
C1484 C1485 1.363 . S
C1484 H1487 0.929 . S
C1485 C1484 1.363 . S
C1485 C1491 1.428 . S
H1486 C1482 0.930 . S
H1487 C1484 0.929 . S
S1488 N1489 1.613 . S
S1488 N1490 1.610 . S
N1489 S1488 1.613 . S
N1489 C1492 1.350 . S
N1490 S1488 1.610 . S
N1490 C1491 1.351 . S
C1491 C1485 1.428 . S
C1491 N1490 1.351 . S
C1491 C1492 1.434 . S
C1492 C1483 1.429 . S
C1492 N1489 1.350 . S
C1492 C1491 1.434 . S
C1493 C1494 1.369 . S
C1493 C1495 1.419 . S
C1493 H1497 0.930 . S
C1494 C1493 1.369 . S
C1494 C1503 1.429 . S
C1495 C1493 1.419 . S
C1495 C1496 1.363 . S
C1495 H1498 0.929 . S
C1496 C1495 1.363 . S
C1496 C1502 1.428 . S
H1497 C1493 0.930 . S
H1498 C1495 0.929 . S
S1499 N1500 1.613 . S
S1499 N1501 1.610 . S
N1500 S1499 1.613 . S
N1500 C1503 1.350 . S
N1501 S1499 1.610 . S
N1501 C1502 1.351 . S
C1502 C1496 1.428 . S
C1502 N1501 1.351 . S
C1502 C1503 1.434 . S
C1503 C1494 1.429 . S
C1503 N1500 1.350 . S
C1503 C1502 1.434 . S
C1504 C1505 1.369 . S
C1504 C1506 1.419 . S
C1504 H1508 0.930 . S
C1505 C1504 1.369 . S
C1505 C1514 1.429 . S
C1506 C1504 1.419 . S
C1506 C1507 1.363 . S
C1506 H1509 0.929 . S
C1507 C1506 1.363 . S
C1507 C1513 1.428 . S
H1508 C1504 0.930 . S
H1509 C1506 0.929 . S
S1510 N1511 1.613 . S
S1510 N1512 1.610 . S
N1511 S1510 1.613 . S
N1511 C1514 1.350 . S
N1512 S1510 1.610 . S
N1512 C1513 1.351 . S
C1513 C1507 1.428 . S
C1513 N1512 1.351 . S
C1513 C1514 1.434 . S
C1514 C1505 1.429 . S
C1514 N1511 1.350 . S
C1514 C1513 1.434 . S
C1515 C1516 1.369 . S
C1515 C1517 1.419 . S
C1515 H1519 0.930 . S
C1516 C1515 1.369 . S
C1516 C1525 1.429 . S
C1517 C1515 1.419 . S
C1517 C1518 1.363 . S
C1517 H1520 0.929 . S
C1518 C1517 1.363 . S
C1518 C1524 1.428 . S
H1519 C1515 0.930 . S
H1520 C1517 0.929 . S
S1521 N1522 1.613 . S
S1521 N1523 1.610 . S
N1522 S1521 1.613 . S
N1522 C1525 1.350 . S
N1523 S1521 1.610 . S
N1523 C1524 1.351 . S
C1524 C1518 1.428 . S
C1524 N1523 1.351 . S
C1524 C1525 1.434 . S
C1525 C1516 1.429 . S
C1525 N1522 1.350 . S
C1525 C1524 1.434 . S
C1526 C1527 1.369 . S
C1526 C1528 1.419 1_556 S
C1526 H1530 0.930 . S
C1527 C1526 1.369 . S
C1527 C1536 1.429 . S
C1528 C1526 1.419 1_554 S
C1528 C1529 1.363 . S
C1528 H1531 0.929 . S
C1529 C1528 1.363 . S
C1529 C1535 1.428 1_554 S
H1530 C1526 0.930 . S
H1531 C1528 0.929 . S
S1532 N1533 1.613 . S
S1532 N1534 1.610 1_655 S
N1533 S1532 1.613 . S
N1533 C1536 1.350 1_655 S
N1534 S1532 1.610 1_455 S
N1534 C1535 1.351 . S
C1535 C1529 1.428 1_556 S
C1535 N1534 1.351 . S
C1535 C1536 1.434 . S
C1536 C1527 1.429 . S
C1536 N1533 1.350 1_455 S
C1536 C1535 1.434 . S
C1537 C1538 1.369 . S
C1537 C1539 1.419 1_455 S
C1537 H1541 0.930 . S
C1538 C1537 1.369 . S
C1538 C1547 1.429 . S
C1539 C1537 1.419 1_655 S
C1539 C1540 1.363 . S
C1539 H1542 0.929 . S
C1540 C1539 1.363 . S
C1540 C1546 1.428 . S
H1541 C1537 0.930 . S
H1542 C1539 0.929 . S
S1543 N1544 1.613 1_655 S
S1543 N1545 1.610 . S
N1544 S1543 1.613 1_455 S
N1544 C1547 1.350 . S
N1545 S1543 1.610 . S
N1545 C1546 1.351 . S
C1546 C1540 1.428 . S
C1546 N1545 1.351 . S
C1546 C1547 1.434 1_655 S
C1547 C1538 1.429 . S
C1547 N1544 1.350 . S
C1547 C1546 1.434 1_455 S
C1548 C1549 1.369 . S
C1548 C1550 1.419 . S
C1548 H1552 0.930 . S
C1549 C1548 1.369 . S
C1549 C1558 1.429 . S
C1550 C1548 1.419 . S
C1550 C1551 1.363 . S
C1550 H1553 0.929 . S
C1551 C1550 1.363 . S
C1551 C1557 1.428 . S
H1552 C1548 0.930 . S
H1553 C1550 0.929 . S
S1554 N1555 1.613 . S
S1554 N1556 1.610 . S
N1555 S1554 1.613 . S
N1555 C1558 1.350 . S
N1556 S1554 1.610 . S
N1556 C1557 1.351 . S
C1557 C1551 1.428 . S
C1557 N1556 1.351 . S
C1557 C1558 1.434 . S
C1558 C1549 1.429 . S
C1558 N1555 1.350 . S
C1558 C1557 1.434 . S
C1559 C1560 1.369 . S
C1559 C1561 1.419 . S
C1559 H1563 0.930 . S
C1560 C1559 1.369 . S
C1560 C1569 1.429 . S
C1561 C1559 1.419 . S
C1561 C1562 1.363 . S
C1561 H1564 0.929 . S
C1562 C1561 1.363 . S
C1562 C1568 1.428 . S
H1563 C1559 0.930 . S
H1564 C1561 0.929 . S
S1565 N1566 1.613 . S
S1565 N1567 1.610 . S
N1566 S1565 1.613 . S
N1566 C1569 1.350 . S
N1567 S1565 1.610 . S
N1567 C1568 1.351 . S
C1568 C1562 1.428 . S
C1568 N1567 1.351 . S
C1568 C1569 1.434 . S
C1569 C1560 1.429 . S
C1569 N1566 1.350 . S
C1569 C1568 1.434 . S
C1570 C1571 1.369 1_655 S
C1570 C1572 1.419 1_655 S
C1570 H1574 0.930 . S
C1571 C1570 1.369 1_455 S
C1571 C1580 1.429 . S
C1572 C1570 1.419 1_455 S
C1572 C1573 1.363 . S
C1572 H1575 0.929 . S
C1573 C1572 1.363 . S
C1573 C1579 1.428 . S
H1574 C1570 0.930 . S
H1575 C1572 0.929 . S
S1576 N1577 1.613 . S
S1576 N1578 1.610 . S
N1577 S1576 1.613 . S
N1577 C1580 1.350 . S
N1578 S1576 1.610 . S
N1578 C1579 1.351 . S
C1579 C1573 1.428 . S
C1579 N1578 1.351 . S
C1579 C1580 1.434 . S
C1580 C1571 1.429 . S
C1580 N1577 1.350 . S
C1580 C1579 1.434 . S
C1581 C1582 1.369 . S
C1581 C1583 1.419 . S
C1581 H1585 0.930 . S
C1582 C1581 1.369 . S
C1582 C1591 1.429 . S
C1583 C1581 1.419 . S
C1583 C1584 1.363 . S
C1583 H1586 0.929 . S
C1584 C1583 1.363 . S
C1584 C1590 1.428 . S
H1585 C1581 0.930 . S
H1586 C1583 0.929 . S
S1587 N1588 1.613 . S
S1587 N1589 1.610 . S
N1588 S1587 1.613 . S
N1588 C1591 1.350 . S
N1589 S1587 1.610 . S
N1589 C1590 1.351 . S
C1590 C1584 1.428 . S
C1590 N1589 1.351 . S
C1590 C1591 1.434 . S
C1591 C1582 1.429 . S
C1591 N1588 1.350 . S
C1591 C1590 1.434 . S
C1592 C1593 1.369 . S
C1592 C1594 1.419 . S
C1592 H1596 0.930 . S
C1593 C1592 1.369 . S
C1593 C1602 1.429 . S
C1594 C1592 1.419 . S
C1594 C1595 1.363 . S
C1594 H1597 0.929 . S
C1595 C1594 1.363 . S
C1595 C1601 1.428 . S
H1596 C1592 0.930 . S
H1597 C1594 0.929 . S
S1598 N1599 1.613 . S
S1598 N1600 1.610 . S
N1599 S1598 1.613 . S
N1599 C1602 1.350 . S
N1600 S1598 1.610 . S
N1600 C1601 1.351 . S
C1601 C1595 1.428 . S
C1601 N1600 1.351 . S
C1601 C1602 1.434 . S
C1602 C1593 1.429 . S
C1602 N1599 1.350 . S
C1602 C1601 1.434 . S
C1603 C1604 1.369 . S
C1603 C1605 1.419 . S
C1603 H1607 0.930 . S
C1604 C1603 1.369 . S
C1604 C1613 1.429 . S
C1605 C1603 1.419 . S
C1605 C1606 1.363 . S
C1605 H1608 0.929 . S
C1606 C1605 1.363 . S
C1606 C1612 1.428 . S
H1607 C1603 0.930 . S
H1608 C1605 0.929 . S
S1609 N1610 1.613 . S
S1609 N1611 1.610 1_554 S
N1610 S1609 1.613 . S
N1610 C1613 1.350 1_554 S
N1611 S1609 1.610 1_556 S
N1611 C1612 1.351 . S
C1612 C1606 1.428 . S
C1612 N1611 1.351 . S
C1612 C1613 1.434 . S
C1613 C1604 1.429 . S
C1613 N1610 1.350 1_556 S
C1613 C1612 1.434 . S
C1614 C1615 1.369 . S
C1614 C1616 1.419 . S
C1614 H1618 0.930 . S
C1615 C1614 1.369 . S
C1615 C1624 1.429 . S
C1616 C1614 1.419 . S
C1616 C1617 1.363 . S
C1616 H1619 0.929 . S
C1617 C1616 1.363 . S
C1617 C1623 1.428 . S
H1618 C1614 0.930 . S
H1619 C1616 0.929 . S
S1620 N1621 1.613 . S
S1620 N1622 1.610 . S
N1621 S1620 1.613 . S
N1621 C1624 1.350 . S
N1622 S1620 1.610 . S
N1622 C1623 1.351 . S
C1623 C1617 1.428 . S
C1623 N1622 1.351 . S
C1623 C1624 1.434 . S
C1624 C1615 1.429 . S
C1624 N1621 1.350 . S
C1624 C1623 1.434 . S
C1625 C1626 1.369 . S
C1625 C1627 1.419 . S
C1625 H1629 0.930 . S
C1626 C1625 1.369 . S
C1626 C1635 1.429 . S
C1627 C1625 1.419 . S
C1627 C1628 1.363 . S
C1627 H1630 0.929 . S
C1628 C1627 1.363 . S
C1628 C1634 1.428 . S
H1629 C1625 0.930 . S
H1630 C1627 0.929 . S
S1631 N1632 1.613 . S
S1631 N1633 1.610 . S
N1632 S1631 1.613 . S
N1632 C1635 1.350 . S
N1633 S1631 1.610 . S
N1633 C1634 1.351 . S
C1634 C1628 1.428 . S
C1634 N1633 1.351 . S
C1634 C1635 1.434 . S
C1635 C1626 1.429 . S
C1635 N1632 1.350 . S
C1635 C1634 1.434 . S
C1636 C1637 1.369 . S
C1636 C1638 1.419 . S
C1636 H1640 0.930 . S
C1637 C1636 1.369 . S
C1637 C1646 1.429 . S
C1638 C1636 1.419 . S
C1638 C1639 1.363 . S
C1638 H1641 0.929 . S
C1639 C1638 1.363 . S
C1639 C1645 1.428 . S
H1640 C1636 0.930 . S
H1641 C1638 0.929 . S
S1642 N1643 1.613 . S
S1642 N1644 1.610 . S
N1643 S1642 1.613 . S
N1643 C1646 1.350 . S
N1644 S1642 1.610 . S
N1644 C1645 1.351 . S
C1645 C1639 1.428 . S
C1645 N1644 1.351 . S
C1645 C1646 1.434 . S
C1646 C1637 1.429 . S
C1646 N1643 1.350 . S
C1646 C1645 1.434 . S
C1647 C1648 1.369 . S
C1647 C1649 1.419 . S
C1647 H1651 0.930 . S
C1648 C1647 1.369 . S
C1648 C1657 1.429 . S
C1649 C1647 1.419 . S
C1649 C1650 1.363 . S
C1649 H1652 0.929 . S
C1650 C1649 1.363 . S
C1650 C1656 1.428 . S
H1651 C1647 0.930 . S
H1652 C1649 0.929 . S
S1653 N1654 1.613 . S
S1653 N1655 1.610 . S
N1654 S1653 1.613 . S
N1654 C1657 1.350 . S
N1655 S1653 1.610 . S
N1655 C1656 1.351 . S
C1656 C1650 1.428 . S
C1656 N1655 1.351 . S
C1656 C1657 1.434 . S
C1657 C1648 1.429 . S
C1657 N1654 1.350 . S
C1657 C1656 1.434 . S
C1658 C1659 1.369 . S
C1658 C1660 1.419 . S
C1658 H1662 0.930 . S
C1659 C1658 1.369 . S
C1659 C1668 1.429 . S
C1660 C1658 1.419 . S
C1660 C1661 1.363 . S
C1660 H1663 0.929 . S
C1661 C1660 1.363 . S
C1661 C1667 1.428 . S
H1662 C1658 0.930 . S
H1663 C1660 0.929 . S
S1664 N1665 1.613 . S
S1664 N1666 1.610 . S
N1665 S1664 1.613 . S
N1665 C1668 1.350 . S
N1666 S1664 1.610 . S
N1666 C1667 1.351 . S
C1667 C1661 1.428 . S
C1667 N1666 1.351 . S
C1667 C1668 1.434 . S
C1668 C1659 1.429 . S
C1668 N1665 1.350 . S
C1668 C1667 1.434 . S
C1669 C1670 1.369 . S
C1669 C1671 1.419 . S
C1669 H1673 0.930 . S
C1670 C1669 1.369 . S
C1670 C1679 1.429 . S
C1671 C1669 1.419 . S
C1671 C1672 1.363 . S
C1671 H1674 0.929 . S
C1672 C1671 1.363 . S
C1672 C1678 1.428 . S
H1673 C1669 0.930 . S
H1674 C1671 0.929 . S
S1675 N1676 1.613 . S
S1675 N1677 1.610 . S
N1676 S1675 1.613 . S
N1676 C1679 1.350 . S
N1677 S1675 1.610 . S
N1677 C1678 1.351 . S
C1678 C1672 1.428 . S
C1678 N1677 1.351 . S
C1678 C1679 1.434 . S
C1679 C1670 1.429 . S
C1679 N1676 1.350 . S
C1679 C1678 1.434 . S
C1680 C1681 1.369 . S
C1680 C1682 1.419 . S
C1680 H1684 0.930 . S
C1681 C1680 1.369 . S
C1681 C1690 1.429 . S
C1682 C1680 1.419 . S
C1682 C1683 1.363 . S
C1682 H1685 0.929 . S
C1683 C1682 1.363 . S
C1683 C1689 1.428 . S
H1684 C1680 0.930 . S
H1685 C1682 0.929 . S
S1686 N1687 1.613 . S
S1686 N1688 1.610 . S
N1687 S1686 1.613 . S
N1687 C1690 1.350 . S
N1688 S1686 1.610 . S
N1688 C1689 1.351 . S
C1689 C1683 1.428 . S
C1689 N1688 1.351 . S
C1689 C1690 1.434 . S
C1690 C1681 1.429 . S
C1690 N1687 1.350 . S
C1690 C1689 1.434 . S
C1691 C1692 1.369 . S
C1691 C1693 1.419 . S
C1691 H1695 0.930 . S
C1692 C1691 1.369 . S
C1692 C1701 1.429 . S
C1693 C1691 1.419 . S
C1693 C1694 1.363 . S
C1693 H1696 0.929 . S
C1694 C1693 1.363 . S
C1694 C1700 1.428 . S
H1695 C1691 0.930 . S
H1696 C1693 0.929 . S
S1697 N1698 1.613 . S
S1697 N1699 1.610 . S
N1698 S1697 1.613 . S
N1698 C1701 1.350 . S
N1699 S1697 1.610 . S
N1699 C1700 1.351 . S
C1700 C1694 1.428 . S
C1700 N1699 1.351 . S
C1700 C1701 1.434 . S
C1701 C1692 1.429 . S
C1701 N1698 1.350 . S
C1701 C1700 1.434 . S
C1702 C1703 1.369 . S
C1702 C1704 1.419 . S
C1702 H1706 0.930 . S
C1703 C1702 1.369 . S
C1703 C1712 1.429 . S
C1704 C1702 1.419 . S
C1704 C1705 1.363 . S
C1704 H1707 0.929 . S
C1705 C1704 1.363 . S
C1705 C1711 1.428 . S
H1706 C1702 0.930 . S
H1707 C1704 0.929 . S
S1708 N1709 1.613 . S
S1708 N1710 1.610 . S
N1709 S1708 1.613 . S
N1709 C1712 1.350 . S
N1710 S1708 1.610 . S
N1710 C1711 1.351 . S
C1711 C1705 1.428 . S
C1711 N1710 1.351 . S
C1711 C1712 1.434 . S
C1712 C1703 1.429 . S
C1712 N1709 1.350 . S
C1712 C1711 1.434 . S
C1713 C1714 1.369 1_545 S
C1713 C1715 1.419 . S
C1713 H1717 0.930 . S
C1714 C1713 1.369 1_565 S
C1714 C1723 1.429 1_554 S
C1715 C1713 1.419 . S
C1715 C1716 1.363 . S
C1715 H1718 0.929 . S
C1716 C1715 1.363 . S
C1716 C1722 1.428 1_544 S
H1717 C1713 0.930 . S
H1718 C1715 0.929 . S
S1719 N1720 1.613 . S
S1719 N1721 1.610 . S
N1720 S1719 1.613 . S
N1720 C1723 1.350 . S
N1721 S1719 1.610 . S
N1721 C1722 1.351 . S
C1722 C1716 1.428 1_566 S
C1722 N1721 1.351 . S
C1722 C1723 1.434 . S
C1723 C1714 1.429 1_556 S
C1723 N1720 1.350 . S
C1723 C1722 1.434 . S
C1724 C1725 1.369 . S
C1724 C1726 1.419 . S
C1724 H1728 0.930 . S
C1725 C1724 1.369 . S
C1725 C1734 1.429 . S
C1726 C1724 1.419 . S
C1726 C1727 1.363 . S
C1726 H1729 0.929 . S
C1727 C1726 1.363 . S
C1727 C1733 1.428 . S
H1728 C1724 0.930 . S
H1729 C1726 0.929 . S
S1730 N1731 1.613 . S
S1730 N1732 1.610 . S
N1731 S1730 1.613 . S
N1731 C1734 1.350 . S
N1732 S1730 1.610 . S
N1732 C1733 1.351 . S
C1733 C1727 1.428 . S
C1733 N1732 1.351 . S
C1733 C1734 1.434 . S
C1734 C1725 1.429 . S
C1734 N1731 1.350 . S
C1734 C1733 1.434 . S
C1735 C1736 1.369 . S
C1735 C1737 1.419 . S
C1735 H1739 0.930 . S
C1736 C1735 1.369 . S
C1736 C1745 1.429 . S
C1737 C1735 1.419 . S
C1737 C1738 1.363 . S
C1737 H1740 0.929 . S
C1738 C1737 1.363 . S
C1738 C1744 1.428 . S
H1739 C1735 0.930 . S
H1740 C1737 0.929 . S
S1741 N1742 1.613 . S
S1741 N1743 1.610 1_556 S
N1742 S1741 1.613 . S
N1742 C1745 1.350 1_556 S
N1743 S1741 1.610 1_554 S
N1743 C1744 1.351 . S
C1744 C1738 1.428 . S
C1744 N1743 1.351 . S
C1744 C1745 1.434 . S
C1745 C1736 1.429 . S
C1745 N1742 1.350 1_554 S
C1745 C1744 1.434 . S
C1746 C1747 1.369 . S
C1746 C1748 1.419 . S
C1746 H1750 0.930 . S
C1747 C1746 1.369 . S
C1747 C1756 1.429 . S
C1748 C1746 1.419 . S
C1748 C1749 1.363 . S
C1748 H1751 0.929 . S
C1749 C1748 1.363 . S
C1749 C1755 1.428 . S
H1750 C1746 0.930 . S
H1751 C1748 0.929 . S
S1752 N1753 1.613 . S
S1752 N1754 1.610 . S
N1753 S1752 1.613 . S
N1753 C1756 1.350 . S
N1754 S1752 1.610 . S
N1754 C1755 1.351 . S
C1755 C1749 1.428 . S
C1755 N1754 1.351 . S
C1755 C1756 1.434 . S
C1756 C1747 1.429 . S
C1756 N1753 1.350 . S
C1756 C1755 1.434 . S
C1757 C1758 1.369 . S
C1757 C1759 1.419 . S
C1757 H1761 0.930 . S
C1758 C1757 1.369 . S
C1758 C1767 1.429 . S
C1759 C1757 1.419 . S
C1759 C1760 1.363 . S
C1759 H1762 0.929 . S
C1760 C1759 1.363 . S
C1760 C1766 1.428 . S
H1761 C1757 0.930 . S
H1762 C1759 0.929 . S
S1763 N1764 1.613 . S
S1763 N1765 1.610 . S
N1764 S1763 1.613 . S
N1764 C1767 1.350 . S
N1765 S1763 1.610 . S
N1765 C1766 1.351 . S
C1766 C1760 1.428 . S
C1766 N1765 1.351 . S
C1766 C1767 1.434 . S
C1767 C1758 1.429 . S
C1767 N1764 1.350 . S
C1767 C1766 1.434 . S
C1768 C1769 1.369 . S
C1768 C1770 1.419 . S
C1768 H1772 0.930 . S
C1769 C1768 1.369 . S
C1769 C1778 1.429 . S
C1770 C1768 1.419 . S
C1770 C1771 1.363 . S
C1770 H1773 0.929 . S
C1771 C1770 1.363 . S
C1771 C1777 1.428 . S
H1772 C1768 0.930 . S
H1773 C1770 0.929 . S
S1774 N1775 1.613 . S
S1774 N1776 1.610 . S
N1775 S1774 1.613 . S
N1775 C1778 1.350 . S
N1776 S1774 1.610 . S
N1776 C1777 1.351 . S
C1777 C1771 1.428 . S
C1777 N1776 1.351 . S
C1777 C1778 1.434 . S
C1778 C1769 1.429 . S
C1778 N1775 1.350 . S
C1778 C1777 1.434 . S
C1779 C1780 1.369 . S
C1779 C1781 1.419 . S
C1779 H1783 0.930 . S
C1780 C1779 1.369 . S
C1780 C1789 1.429 . S
C1781 C1779 1.419 . S
C1781 C1782 1.363 . S
C1781 H1784 0.929 . S
C1782 C1781 1.363 . S
C1782 C1788 1.428 . S
H1783 C1779 0.930 . S
H1784 C1781 0.929 . S
S1785 N1786 1.613 . S
S1785 N1787 1.610 . S
N1786 S1785 1.613 . S
N1786 C1789 1.350 . S
N1787 S1785 1.610 . S
N1787 C1788 1.351 . S
C1788 C1782 1.428 . S
C1788 N1787 1.351 . S
C1788 C1789 1.434 . S
C1789 C1780 1.429 . S
C1789 N1786 1.350 . S
C1789 C1788 1.434 . S
C1790 C1791 1.369 . S
C1790 C1792 1.419 . S
C1790 H1794 0.930 . S
C1791 C1790 1.369 . S
C1791 C1800 1.429 . S
C1792 C1790 1.419 . S
C1792 C1793 1.363 . S
C1792 H1795 0.929 . S
C1793 C1792 1.363 . S
C1793 C1799 1.428 . S
H1794 C1790 0.930 . S
H1795 C1792 0.929 . S
S1796 N1797 1.613 1_556 S
S1796 N1798 1.626 . S
N1797 S1796 1.613 1_554 S
N1797 C1800 1.350 . S
N1798 S1796 1.626 . S
N1798 C1799 1.323 1_556 S
C1799 C1793 1.428 . S
C1799 N1798 1.323 1_554 S
C1799 C1800 1.434 . S
C1800 C1791 1.429 . S
C1800 N1797 1.350 . S
C1800 C1799 1.434 . S
C1801 C1802 1.369 . S
C1801 C1803 1.419 . S
C1801 H1805 0.930 . S
C1802 C1801 1.369 . S
C1802 C1811 1.429 . S
C1803 C1801 1.419 . S
C1803 C1804 1.363 . S
C1803 H1806 0.929 . S
C1804 C1803 1.363 . S
C1804 C1810 1.428 . S
H1805 C1801 0.930 . S
H1806 C1803 0.929 . S
S1807 N1808 1.613 . S
S1807 N1809 1.610 . S
N1808 S1807 1.613 . S
N1808 C1811 1.350 . S
N1809 S1807 1.610 . S
N1809 C1810 1.351 . S
C1810 C1804 1.428 . S
C1810 N1809 1.351 . S
C1810 C1811 1.434 . S
C1811 C1802 1.429 . S
C1811 N1808 1.350 . S
C1811 C1810 1.434 . S
C1812 C1813 1.369 . S
C1812 C1814 1.419 . S
C1812 H1816 0.930 . S
C1813 C1812 1.369 . S
C1813 C1822 1.429 . S
C1814 C1812 1.419 . S
C1814 C1815 1.363 . S
C1814 H1817 0.929 . S
C1815 C1814 1.363 . S
C1815 C1821 1.428 . S
H1816 C1812 0.930 . S
H1817 C1814 0.929 . S
S1818 N1819 1.613 1_554 S
S1818 N1820 1.610 1_554 S
N1819 S1818 1.613 1_556 S
N1819 C1822 1.350 . S
N1820 S1818 1.610 1_556 S
N1820 C1821 1.351 . S
C1821 C1815 1.428 . S
C1821 N1820 1.351 . S
C1821 C1822 1.434 . S
C1822 C1813 1.429 . S
C1822 N1819 1.350 . S
C1822 C1821 1.434 . S
C1823 C1824 1.369 . S
C1823 C1825 1.419 . S
C1823 H1827 0.930 . S
C1824 C1823 1.369 . S
C1824 C1833 1.429 . S
C1825 C1823 1.419 . S
C1825 C1826 1.363 . S
C1825 H1828 0.929 . S
C1826 C1825 1.363 . S
C1826 C1832 1.428 . S
H1827 C1823 0.930 . S
H1828 C1825 0.929 . S
S1829 N1830 1.613 . S
S1829 N1831 1.610 . S
N1830 S1829 1.613 . S
N1830 C1833 1.350 . S
N1831 S1829 1.610 . S
N1831 C1832 1.351 . S
C1832 C1826 1.428 . S
C1832 N1831 1.351 . S
C1832 C1833 1.434 . S
C1833 C1824 1.429 . S
C1833 N1830 1.350 . S
C1833 C1832 1.434 . S
C1834 C1835 1.369 . S
C1834 C1836 1.419 . S
C1834 H1838 0.930 . S
C1835 C1834 1.369 . S
C1835 C1844 1.429 . S
C1836 C1834 1.419 . S
C1836 C1837 1.363 . S
C1836 H1839 0.929 . S
C1837 C1836 1.363 . S
C1837 C1843 1.428 . S
H1838 C1834 0.930 . S
H1839 C1836 0.929 . S
S1840 N1841 1.613 . S
S1840 N1842 1.610 . S
N1841 S1840 1.613 . S
N1841 C1844 1.350 . S
N1842 S1840 1.610 . S
N1842 C1843 1.351 . S
C1843 C1837 1.428 . S
C1843 N1842 1.351 . S
C1843 C1844 1.434 . S
C1844 C1835 1.429 . S
C1844 N1841 1.350 . S
C1844 C1843 1.434 . S
C1845 C1846 1.369 . S
C1845 C1847 1.419 . S
C1845 H1849 0.930 . S
C1846 C1845 1.369 . S
C1846 C1855 1.429 . S
C1847 C1845 1.419 . S
C1847 C1848 1.363 . S
C1847 H1850 0.929 . S
C1848 C1847 1.363 . S
C1848 C1854 1.428 . S
H1849 C1845 0.930 . S
H1850 C1847 0.929 . S
S1851 N1852 1.613 . S
S1851 N1853 1.610 . S
N1852 S1851 1.613 . S
N1852 C1855 1.350 . S
N1853 S1851 1.610 . S
N1853 C1854 1.351 . S
C1854 C1848 1.428 . S
C1854 N1853 1.351 . S
C1854 C1855 1.434 . S
C1855 C1846 1.429 . S
C1855 N1852 1.350 . S
C1855 C1854 1.434 . S
C1856 C1857 1.369 . S
C1856 C1858 1.419 . S
C1856 H1860 0.930 . S
C1857 C1856 1.369 . S
C1857 C1866 1.429 . S
C1858 C1856 1.419 . S
C1858 C1859 1.363 . S
C1858 H1861 0.929 . S
C1859 C1858 1.363 . S
C1859 C1865 1.428 . S
H1860 C1856 0.930 . S
H1861 C1858 0.929 . S
S1862 N1863 1.613 . S
S1862 N1864 1.610 . S
N1863 S1862 1.613 . S
N1863 C1866 1.350 . S
N1864 S1862 1.610 . S
N1864 C1865 1.351 . S
C1865 C1859 1.428 . S
C1865 N1864 1.351 . S
C1865 C1866 1.434 . S
C1866 C1857 1.429 . S
C1866 N1863 1.350 . S
C1866 C1865 1.434 . S
C1867 C1868 1.369 . S
C1867 C1869 1.419 . S
C1867 H1871 0.930 . S
C1868 C1867 1.369 . S
C1868 C1877 1.429 . S
C1869 C1867 1.419 . S
C1869 C1870 1.363 . S
C1869 H1872 0.929 . S
C1870 C1869 1.363 . S
C1870 C1876 1.428 . S
H1871 C1867 0.930 . S
H1872 C1869 0.929 . S
S1873 N1874 1.613 . S
S1873 N1875 1.610 . S
N1874 S1873 1.613 . S
N1874 C1877 1.350 . S
N1875 S1873 1.610 . S
N1875 C1876 1.351 . S
C1876 C1870 1.428 . S
C1876 N1875 1.351 . S
C1876 C1877 1.434 . S
C1877 C1868 1.429 . S
C1877 N1874 1.350 . S
C1877 C1876 1.434 . S
C1878 C1879 1.369 . S
C1878 C1880 1.419 1_655 S
C1878 H1882 0.930 . S
C1879 C1878 1.369 . S
C1879 C1888 1.438 . S
C1880 C1878 1.419 1_455 S
C1880 C1881 1.363 . S
C1880 H1883 0.929 . S
C1881 C1880 1.363 . S
C1881 C1887 1.428 . S
H1882 C1878 0.930 . S
H1883 C1880 0.929 . S
S1884 N1885 1.613 1_455 S
S1884 N1886 1.610 . S
N1885 S1884 1.613 1_655 S
N1885 C1888 1.364 . S
N1886 S1884 1.610 . S
N1886 C1887 1.351 . S
C1887 C1881 1.428 . S
C1887 N1886 1.351 . S
C1887 C1888 1.409 1_455 S
C1888 C1879 1.438 . S
C1888 N1885 1.364 . S
C1888 C1887 1.409 1_655 S
C1889 C1890 1.369 . S
C1889 C1891 1.419 . S
C1889 H1893 0.930 . S
C1890 C1889 1.369 . S
C1890 C1899 1.429 . S
C1891 C1889 1.419 . S
C1891 C1892 1.363 . S
C1891 H1894 0.929 . S
C1892 C1891 1.363 . S
C1892 C1898 1.428 . S
H1893 C1889 0.930 . S
H1894 C1891 0.929 . S
S1895 N1896 1.613 . S
S1895 N1897 1.610 . S
N1896 S1895 1.613 . S
N1896 C1899 1.350 . S
N1897 S1895 1.610 . S
N1897 C1898 1.351 . S
C1898 C1892 1.428 . S
C1898 N1897 1.351 . S
C1898 C1899 1.434 . S
C1899 C1890 1.429 . S
C1899 N1896 1.350 . S
C1899 C1898 1.434 . S
C1900 C1901 1.369 . S
C1900 C1902 1.419 . S
C1900 H1904 0.930 . S
C1901 C1900 1.369 . S
C1901 C1910 1.429 . S
C1902 C1900 1.419 . S
C1902 C1903 1.363 . S
C1902 H1905 0.929 . S
C1903 C1902 1.363 . S
C1903 C1909 1.428 . S
H1904 C1900 0.930 . S
H1905 C1902 0.929 . S
S1906 N1907 1.613 . S
S1906 N1908 1.610 . S
N1907 S1906 1.613 . S
N1907 C1910 1.350 . S
N1908 S1906 1.610 . S
N1908 C1909 1.351 . S
C1909 C1903 1.428 . S
C1909 N1908 1.351 . S
C1909 C1910 1.434 . S
C1910 C1901 1.429 . S
C1910 N1907 1.350 . S
C1910 C1909 1.434 . S
C1911 C1912 1.369 . S
C1911 C1913 1.419 . S
C1911 H1915 0.930 . S
C1912 C1911 1.369 . S
C1912 C1921 1.429 . S
C1913 C1911 1.419 . S
C1913 C1914 1.363 . S
C1913 H1916 0.929 . S
C1914 C1913 1.363 . S
C1914 C1920 1.428 . S
H1915 C1911 0.930 . S
H1916 C1913 0.929 . S
S1917 N1918 1.613 . S
S1917 N1919 1.610 . S
N1918 S1917 1.613 . S
N1918 C1921 1.350 . S
N1919 S1917 1.610 . S
N1919 C1920 1.351 . S
C1920 C1914 1.428 . S
C1920 N1919 1.351 . S
C1920 C1921 1.434 . S
C1921 C1912 1.429 . S
C1921 N1918 1.350 . S
C1921 C1920 1.434 . S
C1922 C1923 1.369 . S
C1922 C1924 1.414 1_655 S
C1922 H1926 0.930 1_655 S
C1923 C1922 1.369 . S
C1923 C1932 1.429 . S
C1924 C1922 1.414 1_455 S
C1924 C1925 1.358 1_455 S
C1924 H1927 0.939 . S
C1925 C1924 1.358 1_655 S
C1925 C1931 1.428 . S
H1926 C1922 0.930 1_455 S
H1927 C1924 0.939 . S
S1928 N1929 1.613 . S
S1928 N1930 1.610 . S
N1929 S1928 1.613 . S
N1929 C1932 1.350 . S
N1930 S1928 1.610 . S
N1930 C1931 1.351 . S
C1931 C1925 1.428 . S
C1931 N1930 1.351 . S
C1931 C1932 1.434 . S
C1932 C1923 1.429 . S
C1932 N1929 1.350 . S
C1932 C1931 1.434 . S
C1933 C1934 1.369 . S
C1933 C1935 1.419 . S
C1933 H1937 0.930 . S
C1934 C1933 1.369 . S
C1934 C1943 1.429 . S
C1935 C1933 1.419 . S
C1935 C1936 1.363 . S
C1935 H1938 0.929 . S
C1936 C1935 1.363 . S
C1936 C1942 1.428 . S
H1937 C1933 0.930 . S
H1938 C1935 0.929 . S
S1939 N1940 1.613 . S
S1939 N1941 1.610 . S
N1940 S1939 1.613 . S
N1940 C1943 1.350 . S
N1941 S1939 1.610 . S
N1941 C1942 1.351 . S
C1942 C1936 1.428 . S
C1942 N1941 1.351 . S
C1942 C1943 1.434 . S
C1943 C1934 1.429 . S
C1943 N1940 1.350 . S
C1943 C1942 1.434 . S
C1944 C1945 1.369 . S
C1944 C1946 1.419 . S
C1944 H1948 0.930 . S
C1945 C1944 1.369 . S
C1945 C1954 1.429 . S
C1946 C1944 1.419 . S
C1946 C1947 1.363 . S
C1946 H1949 0.929 . S
C1947 C1946 1.363 . S
C1947 C1953 1.428 . S
H1948 C1944 0.930 . S
H1949 C1946 0.929 . S
S1950 N1951 1.613 . S
S1950 N1952 1.610 . S
N1951 S1950 1.613 . S
N1951 C1954 1.350 . S
N1952 S1950 1.610 . S
N1952 C1953 1.351 . S
C1953 C1947 1.428 . S
C1953 N1952 1.351 . S
C1953 C1954 1.434 . S
C1954 C1945 1.429 . S
C1954 N1951 1.350 . S
C1954 C1953 1.434 . S
C1955 C1956 1.369 . S
C1955 C1957 1.419 . S
C1955 H1959 0.930 . S
C1956 C1955 1.369 . S
C1956 C1965 1.429 . S
C1957 C1955 1.419 . S
C1957 C1958 1.363 . S
C1957 H1960 0.929 . S
C1958 C1957 1.363 . S
C1958 C1964 1.428 1_565 S
H1959 C1955 0.930 . S
H1960 C1957 0.929 . S
S1961 N1962 1.613 1_545 S
S1961 N1963 1.610 . S
N1962 S1961 1.613 1_565 S
N1962 C1965 1.350 . S
N1963 S1961 1.610 . S
N1963 C1964 1.351 . S
C1964 C1958 1.428 1_545 S
C1964 N1963 1.351 . S
C1964 C1965 1.434 1_545 S
C1965 C1956 1.429 . S
C1965 N1962 1.350 . S
C1965 C1964 1.434 1_565 S
C1966 C1967 1.369 . S
C1966 C1968 1.419 . S
C1966 H1970 0.930 . S
C1967 C1966 1.369 . S
C1967 C1976 1.429 . S
C1968 C1966 1.419 . S
C1968 C1969 1.363 . S
C1968 H1971 0.929 . S
C1969 C1968 1.363 . S
C1969 C1975 1.428 . S
H1970 C1966 0.930 . S
H1971 C1968 0.929 . S
S1972 N1973 1.613 . S
S1972 N1974 1.610 . S
N1973 S1972 1.613 . S
N1973 C1976 1.350 . S
N1974 S1972 1.610 . S
N1974 C1975 1.351 . S
C1975 C1969 1.428 . S
C1975 N1974 1.351 . S
C1975 C1976 1.434 . S
C1976 C1967 1.429 . S
C1976 N1973 1.350 . S
C1976 C1975 1.434 . S
C1977 C1978 1.369 . S
C1977 C1979 1.419 . S
C1977 H1981 0.930 . S
C1978 C1977 1.369 . S
C1978 C1987 1.429 . S
C1979 C1977 1.419 . S
C1979 C1980 1.363 . S
C1979 H1982 0.929 . S
C1980 C1979 1.363 . S
C1980 C1986 1.428 . S
H1981 C1977 0.930 . S
H1982 C1979 0.929 . S
S1983 N1984 1.613 . S
S1983 N1985 1.610 . S
N1984 S1983 1.613 . S
N1984 C1987 1.350 1_556 S
N1985 S1983 1.610 . S
N1985 C1986 1.351 1_556 S
C1986 C1980 1.428 . S
C1986 N1985 1.351 1_554 S
C1986 C1987 1.434 . S
C1987 C1978 1.429 . S
C1987 N1984 1.350 1_554 S
C1987 C1986 1.434 . S
C1988 C1989 1.369 . S
C1988 C1990 1.419 . S
C1988 H1992 0.930 . S
C1989 C1988 1.369 . S
C1989 C1998 1.429 . S
C1990 C1988 1.419 . S
C1990 C1991 1.363 . S
C1990 H1993 0.929 . S
C1991 C1990 1.363 . S
C1991 C1997 1.428 . S
H1992 C1988 0.930 . S
H1993 C1990 0.929 . S
S1994 N1995 1.613 . S
S1994 N1996 1.610 . S
N1995 S1994 1.613 . S
N1995 C1998 1.350 . S
N1996 S1994 1.610 . S
N1996 C1997 1.351 . S
C1997 C1991 1.428 . S
C1997 N1996 1.351 . S
C1997 C1998 1.434 . S
C1998 C1989 1.429 . S
C1998 N1995 1.350 . S
C1998 C1997 1.434 . S
C1999 C2000 1.369 . S
C1999 C2001 1.419 . S
C1999 H2003 0.930 . S
C2000 C1999 1.369 . S
C2000 C2009 1.429 1_554 S
C2001 C1999 1.419 . S
C2001 C2002 1.363 1_554 S
C2001 H2004 0.929 . S
C2002 C2001 1.363 1_556 S
C2002 C2008 1.428 . S
H2003 C1999 0.930 . S
H2004 C2001 0.929 . S
S2005 N2006 1.613 . S
S2005 N2007 1.610 . S
N2006 S2005 1.613 . S
N2006 C2009 1.350 . S
N2007 S2005 1.610 . S
N2007 C2008 1.351 . S
C2008 C2002 1.428 . S
C2008 N2007 1.351 . S
C2008 C2009 1.434 . S
C2009 C2000 1.429 1_556 S
C2009 N2006 1.350 . S
C2009 C2008 1.434 . S
C2010 C2011 1.369 . S
C2010 C2012 1.419 . S
C2010 H2014 0.930 . S
C2011 C2010 1.369 . S
C2011 C2020 1.429 . S
C2012 C2010 1.419 . S
C2012 C2013 1.363 . S
C2012 H2015 0.929 . S
C2013 C2012 1.363 . S
C2013 C2019 1.428 . S
H2014 C2010 0.930 . S
H2015 C2012 0.929 . S
S2016 N2017 1.613 . S
S2016 N2018 1.610 . S
N2017 S2016 1.613 . S
N2017 C2020 1.350 . S
N2018 S2016 1.610 . S
N2018 C2019 1.351 . S
C2019 C2013 1.428 . S
C2019 N2018 1.351 . S
C2019 C2020 1.434 . S
C2020 C2011 1.429 . S
C2020 N2017 1.350 . S
C2020 C2019 1.434 . S
C2021 C2022 1.369 . S
C2021 C2023 1.419 . S
C2021 H2025 0.930 . S
C2022 C2021 1.369 . S
C2022 C2031 1.429 . S
C2023 C2021 1.419 . S
C2023 C2024 1.363 . S
C2023 H2026 0.929 . S
C2024 C2023 1.363 . S
C2024 C2030 1.428 . S
H2025 C2021 0.930 . S
H2026 C2023 0.929 . S
S2027 N2028 1.613 . S
S2027 N2029 1.610 . S
N2028 S2027 1.613 . S
N2028 C2031 1.350 . S
N2029 S2027 1.610 . S
N2029 C2030 1.351 . S
C2030 C2024 1.428 . S
C2030 N2029 1.351 . S
C2030 C2031 1.434 . S
C2031 C2022 1.429 . S
C2031 N2028 1.350 . S
C2031 C2030 1.434 . S
C977 C105 2.373 . S
C979 C338 2.350 1_556 S
C988 C65 2.267 . S
C990 C395 2.282 . S
C999 C73 1.439 . S
C1001 C418 1.416 . S
C1012 C472 1.379 . S
C1010 C92 1.426 . S
C1021 C17 1.679 . S
C1023 C512 1.552 . S
C1034 C543 0.824 . S
C1032 C37 0.831 . S
C1045 C595 1.646 . S
C1043 C49 1.359 . S
C1054 C8 2.035 . S
C1056 C618 1.976 . S
C1067 C355 2.544 . S
C1065 C231 2.472 1_455 S
C1076 C241 0.866 . S
C1078 C392 0.848 . S
C1089 C435 1.294 . S
C1087 C273 1.232 . S
C1100 C458 1.528 . S
C1098 C171 1.532 . S
C1109 C227 2.068 1_455 S
C1111 C498 2.056 . S
C1122 C546 1.487 . S
C1120 C245 1.441 . S
C1133 C592 0.657 . S
C1131 C269 0.602 . S
C1144 C635 2.179 . S
C1142 C175 2.195 . S
C1155 C352 1.623 . S
C1153 C162 1.745 . S
C1164 C289 2.025 . S
C1166 C675 2.034 . S
C1177 C707 2.669 . S
C1175 C330 2.694 . S
C1188 C738 0.743 1_655 S
C1186 C317 0.737 . S
C1197 C120 1.859 . S
C1199 C632 1.759 . S
C1208 C134 1.704 . S
C1210 C432 1.636 . S
C1219 C331 2.242 . S
C1221 C795 2.241 . S
C1232 C818 0.772 . S
C1230 C303 0.802 . S
C1243 C347 2.358 . S
C1241 C59 2.347 . S
C1254 C826 2.304 . S
C1252 C107 2.280 . S
C1263 C91 1.484 . S
C1265 C427 1.462 . S
C1274 C78 1.429 . S
C1276 C783 1.404 . S
C1287 C503 1.552 . S
C1285 C7 1.508 . S
C1296 C51 0.828 . S
C1298 C712 0.820 . S
C1309 C586 1.688 . S
C1307 C31 1.601 . S
C1320 C867 1.965 . S
C1318 C22 1.993 . S
C1331 C346 2.559 . S
C1329 C143 2.564 . S
C1342 C823 0.822 . S
C1340 C315 0.832 . S
C1351 C115 1.310 . S
C1353 C426 1.313 . S
C1362 C287 1.565 . S
C1364 C787 1.567 . S
C1373 C147 1.972 . S
C1375 C507 2.081 . S
C1386 C715 1.488 . S
C1384 C311 1.499 . S
C1395 C119 0.646 . S
C1397 C583 0.651 . S
C1406 C283 2.202 . S
C1408 C866 2.191 . S
C1417 C190 1.704 . S
C1419 C343 1.635 . S
C1428 C177 2.038 . S
C1430 C666 2.055 . S
C1439 C260 2.705 . S
C1441 C538 2.686 . S
C1450 C247 0.808 . S
C1452 C747 0.816 . S
C1463 C863 1.731 . S
C1461 C274 1.764 . S
C1472 C218 1.669 . S
C1474 C423 1.628 . S
C1485 C466 2.264 . S
C1483 C261 2.262 . S
C1496 C387 0.780 . S
C1494 C205 0.775 . S
C1505 C77 2.375 . S
C1507 C898 2.349 . S
C1518 C835 2.281 . S
C1516 C93 2.266 . S
C1527 C101 1.436 . S
C1529 C938 1.414 . S
C1538 C64 1.425 . S
C1540 C792 1.381 . S
C1549 C45 1.669 . S
C1551 C672 1.562 . S
C1562 C703 0.824 1_455 S
C1560 C9 0.833 . S
C1573 C755 1.652 . S
C1571 C21 1.346 1_455 S
C1584 C858 1.978 . S
C1582 C36 2.038 . S
C1595 C915 2.544 . S
C1593 C259 2.471 . S
C1604 C185 0.870 . S
C1606 C832 0.841 . S
C1617 C955 1.295 . S
C1615 C203 1.240 . S
C1628 C778 1.526 . S
C1626 C213 1.528 . S
C1639 C658 2.055 . S
C1637 C255 2.069 . S
C1648 C189 1.442 . S
C1650 C706 1.485 . S
C1661 C752 0.639 . S
C1659 C199 0.613 . S
C1670 C217 2.196 . S
C1672 C875 2.180 . S
C1683 C912 1.632 . S
C1681 C316 1.740 . S
C1692 C135 2.022 . S
C1694 C515 2.035 . S
C1705 C547 2.669 . S
C1703 C148 2.696 . S
C1716 C578 0.743 . S
C1714 C163 0.737 . S
C1727 C872 1.756 . S
C1725 C302 1.868 . S
C1736 C288 1.711 . S
C1738 C952 1.628 . S
C1749 C475 2.239 . S
C1747 C149 2.243 . S
C1760 C378 0.784 . S
C1758 C121 0.795 . S
C1769 C87 2.347 . S
C1771 C907 2.355 . S
C1782 C386 2.305 . S
C1780 C79 2.279 . S
C1791 C63 1.482 . S
C1793 C947 1.465 . S
C1802 C106 1.430 . S
C1804 C463 1.402 . S
C1813 C35 1.501 . S
C1815 C663 1.557 . S
C1826 C552 0.814 . S
C1824 C23 0.828 . S
C1835 C3 1.608 . S
C1837 C746 1.687 . S
C1846 C50 1.989 . S
C1848 C627 1.965 . S
C1859 C906 2.559 . S
C1857 C325 2.563 . S
C1868 C161 0.835 . S
C1870 C383 0.812 . S
C1881 C946 1.315 . S
C1879 C297 1.309 . S
C1890 C133 1.562 . S
C1892 C467 1.565 . S
C1901 C329 1.969 . S
C1903 C667 2.084 . S
C1914 C555 1.485 . S
C1912 C157 1.503 . S
C1923 C301 0.640 . S
C1925 C743 0.658 . S
C1936 C626 2.189 . S
C1934 C129 2.204 . S
C1947 C903 1.629 . S
C1945 C246 1.708 . S
C1958 C506 2.055 1_665 S
C1956 C219 2.035 . S
C1967 C232 2.709 . S
C1969 C698 2.684 . S
C1980 C587 0.818 . S
C1978 C191 0.816 . S
C1989 C204 1.770 . S
C1991 C623 1.726 . S
C2000 C176 1.664 . S
C2002 C943 1.633 . S
C2013 C786 2.266 . S
C2011 C233 2.262 1_565 S
C2024 C827 0.782 . S
C2022 C275 0.775 . S
