# Generated by pormake.
# Topology ocu, (6,8)-cn, num edge types: 1
# Building blocks:
#     Node 0, Type 0, BuildingBlock: KUMJIN_clean_sbu_1, # of connection points: 6
#     Node 1, Type 0, BuildingBlock: KUMJIN_clean_sbu_1, # of connection points: 6
#     Node 2, Type 0, BuildingBlock: KUMJIN_clean_sbu_1, # of connection points: 6
#     Node 3, Type 0, BuildingBlock: KUMJIN_clean_sbu_1, # of connection points: 6
#     Node 4, Type 0, BuildingBlock: KUMJIN_clean_sbu_1, # of connection points: 6
#     Node 5, Type 0, BuildingBlock: KUMJIN_clean_sbu_1, # of connection points: 6
#     Node 6, Type 0, BuildingBlock: KUMJIN_clean_sbu_1, # of connection points: 6
#     Node 7, Type 0, BuildingBlock: KUMJIN_clean_sbu_1, # of connection points: 6
#     Node 8, Type 1, BuildingBlock: GIZVER_clean_sbu_0, # of connection points: 8
#     Node 9, Type 1, BuildingBlock: GIZVER_clean_sbu_0, # of connection points: 8
#     Node 10, Type 1, BuildingBlock: GIZVER_clean_sbu_0, # of connection points: 8
#     Node 11, Type 1, BuildingBlock: GIZVER_clean_sbu_0, # of connection points: 8
#     Node 12, Type 1, BuildingBlock: GIZVER_clean_sbu_0, # of connection points: 8
#     Node 13, Type 1, BuildingBlock: GIZVER_clean_sbu_0, # of connection points: 8
#     Edge 14, Type (0, 1), BuildingBlock: AJUNOK_clean_linker_0, # of connection points: 2
#     Edge 15, Type (0, 1), BuildingBlock: AJUNOK_clean_linker_0, # of connection points: 2
#     Edge 16, Type (0, 1), BuildingBlock: AJUNOK_clean_linker_0, # of connection points: 2
#     Edge 17, Type (0, 1), BuildingBlock: AJUNOK_clean_linker_0, # of connection points: 2
#     Edge 18, Type (0, 1), BuildingBlock: AJUNOK_clean_linker_0, # of connection points: 2
#     Edge 19, Type (0, 1), BuildingBlock: AJUNOK_clean_linker_0, # of connection points: 2
#     Edge 20, Type (0, 1), BuildingBlock: AJUNOK_clean_linker_0, # of connection points: 2
#     Edge 21, Type (0, 1), BuildingBlock: AJUNOK_clean_linker_0, # of connection points: 2
#     Edge 22, Type (0, 1), BuildingBlock: AJUNOK_clean_linker_0, # of connection points: 2
#     Edge 23, Type (0, 1), BuildingBlock: AJUNOK_clean_linker_0, # of connection points: 2
#     Edge 24, Type (0, 1), BuildingBlock: AJUNOK_clean_linker_0, # of connection points: 2
#     Edge 25, Type (0, 1), BuildingBlock: AJUNOK_clean_linker_0, # of connection points: 2
#     Edge 26, Type (0, 1), BuildingBlock: AJUNOK_clean_linker_0, # of connection points: 2
#     Edge 27, Type (0, 1), BuildingBlock: AJUNOK_clean_linker_0, # of connection points: 2
#     Edge 28, Type (0, 1), BuildingBlock: AJUNOK_clean_linker_0, # of connection points: 2
#     Edge 29, Type (0, 1), BuildingBlock: AJUNOK_clean_linker_0, # of connection points: 2
#     Edge 30, Type (0, 1), BuildingBlock: AJUNOK_clean_linker_0, # of connection points: 2
#     Edge 31, Type (0, 1), BuildingBlock: AJUNOK_clean_linker_0, # of connection points: 2
#     Edge 32, Type (0, 1), BuildingBlock: AJUNOK_clean_linker_0, # of connection points: 2
#     Edge 33, Type (0, 1), BuildingBlock: AJUNOK_clean_linker_0, # of connection points: 2
#     Edge 34, Type (0, 1), BuildingBlock: AJUNOK_clean_linker_0, # of connection points: 2
#     Edge 35, Type (0, 1), BuildingBlock: AJUNOK_clean_linker_0, # of connection points: 2
#     Edge 36, Type (0, 1), BuildingBlock: AJUNOK_clean_linker_0, # of connection points: 2
#     Edge 37, Type (0, 1), BuildingBlock: AJUNOK_clean_linker_0, # of connection points: 2
#     Edge 38, Type (0, 1), BuildingBlock: AJUNOK_clean_linker_0, # of connection points: 2
#     Edge 39, Type (0, 1), BuildingBlock: AJUNOK_clean_linker_0, # of connection points: 2
#     Edge 40, Type (0, 1), BuildingBlock: AJUNOK_clean_linker_0, # of connection points: 2
#     Edge 41, Type (0, 1), BuildingBlock: AJUNOK_clean_linker_0, # of connection points: 2
#     Edge 42, Type (0, 1), BuildingBlock: AJUNOK_clean_linker_0, # of connection points: 2
#     Edge 43, Type (0, 1), BuildingBlock: AJUNOK_clean_linker_0, # of connection points: 2
#     Edge 44, Type (0, 1), BuildingBlock: AJUNOK_clean_linker_0, # of connection points: 2
#     Edge 45, Type (0, 1), BuildingBlock: AJUNOK_clean_linker_0, # of connection points: 2
#     Edge 46, Type (0, 1), BuildingBlock: AJUNOK_clean_linker_0, # of connection points: 2
#     Edge 47, Type (0, 1), BuildingBlock: AJUNOK_clean_linker_0, # of connection points: 2
#     Edge 48, Type (0, 1), BuildingBlock: AJUNOK_clean_linker_0, # of connection points: 2
#     Edge 49, Type (0, 1), BuildingBlock: AJUNOK_clean_linker_0, # of connection points: 2
#     Edge 50, Type (0, 1), BuildingBlock: AJUNOK_clean_linker_0, # of connection points: 2
#     Edge 51, Type (0, 1), BuildingBlock: AJUNOK_clean_linker_0, # of connection points: 2
#     Edge 52, Type (0, 1), BuildingBlock: AJUNOK_clean_linker_0, # of connection points: 2
#     Edge 53, Type (0, 1), BuildingBlock: AJUNOK_clean_linker_0, # of connection points: 2
#     Edge 54, Type (0, 1), BuildingBlock: AJUNOK_clean_linker_0, # of connection points: 2
#     Edge 55, Type (0, 1), BuildingBlock: AJUNOK_clean_linker_0, # of connection points: 2
#     Edge 56, Type (0, 1), BuildingBlock: AJUNOK_clean_linker_0, # of connection points: 2
#     Edge 57, Type (0, 1), BuildingBlock: AJUNOK_clean_linker_0, # of connection points: 2
#     Edge 58, Type (0, 1), BuildingBlock: AJUNOK_clean_linker_0, # of connection points: 2
#     Edge 59, Type (0, 1), BuildingBlock: AJUNOK_clean_linker_0, # of connection points: 2
#     Edge 60, Type (0, 1), BuildingBlock: AJUNOK_clean_linker_0, # of connection points: 2
#     Edge 61, Type (0, 1), BuildingBlock: AJUNOK_clean_linker_0, # of connection points: 2
# Relax obj value: 0.198
# Max RMSD: 0.206
# Mean RMSD: 0.174
data_MOF--net-ocu--node1-KUMJIN_clean_sbu_1--node2-GIZVER_clean_sbu_0--edge1-AJUNOK_clean_linker_0
_symmetry_space_group_name_H-M    P1
_symmetry_Int_Tables_number       1
_symmetry_cell_setting            triclinic
loop_
_symmetry_equiv_pos_as_xyz
'x, y, z'
_cell_length_a     33.444021
_cell_length_b     34.995927
_cell_length_c     27.301387
_cell_angle_alpha  102.1761
_cell_angle_beta   78.148675
_cell_angle_gamma 116.93504
loop_
_atom_site_label
_atom_site_type_symbol
_atom_site_fract_x
_atom_site_fract_y
_atom_site_fract_z
_atom_type_partial_charge
Eu0 Eu 0.26002 0.26145 0.23127 0.0
C1 C 0.35353 0.3834 0.41624 0.0
N2 N 0.36608 0.37869 0.36549 0.0
C3 C 0.41052 0.45515 0.36801 0.0
C4 C 0.36901 0.42489 0.44484 0.0
C5 C 0.39451 0.41349 0.34118 0.0
C6 C 0.39792 0.46087 0.4201 0.0
C7 C 0.314 0.35112 0.4928 0.0
C8 C 0.32618 0.34658 0.43992 0.0
C9 C 0.32884 0.3925 0.52103 0.0
C10 C 0.35607 0.42922 0.49716 0.0
Eu11 Eu 0.34931 0.30764 0.32732 0.0
N12 N 0.31408 0.30654 0.41211 0.0
C13 C 0.2886 0.31386 0.51621 0.0
C14 C 0.29145 0.27023 0.4356 0.0
C15 C 0.27735 0.27331 0.48752 0.0
H16 H 0.40548 0.40893 0.30129 0.0
H17 H 0.25934 0.24436 0.50573 0.0
H18 H 0.16817 0.18218 0.28565 0.0
H19 H 0.34543 0.25793 0.03903 0.0
H20 H 0.28624 0.23876 0.41569 0.0
H21 H 0.27884 0.31599 0.55662 0.0
H22 H 0.32835 0.29128 0.12537 0.0
H23 H 0.43305 0.48273 0.34866 0.0
H24 H 0.32008 0.3965 0.56158 0.0
H25 H 0.36755 0.46082 0.51968 0.0
H26 H 0.12391 0.10333 0.26833 0.0
H27 H 0.41065 0.49319 0.44087 0.0
H28 H 0.30465 0.17916 0.01492 0.0
N29 N 0.2138 0.18601 0.2178 0.0
C30 C 0.22252 0.16486 0.17208 0.0
C31 C 0.15187 0.12013 0.24114 0.0
C32 C 0.1969 0.11998 0.15974 0.0
C33 C 0.17766 0.16475 0.25126 0.0
C34 C 0.16189 0.09751 0.19543 0.0
N35 N 0.27988 0.23165 0.14955 0.0
C36 C 0.31084 0.25682 0.11499 0.0
C37 C 0.2644 0.16805 0.08793 0.0
C38 C 0.25584 0.18849 0.13656 0.0
C39 C 0.29728 0.19344 0.05275 0.0
C40 C 0.32041 0.23803 0.06623 0.0
H41 H 0.14154 0.06301 0.18745 0.0
H42 H 0.18712 0.06471 0.1018 0.0
H43 H 0.24622 0.10677 0.03912 0.0
O44 O 0.24724 0.30089 0.18854 0.0
O45 O 0.31684 0.23626 0.20542 0.0
O46 O 0.35466 0.24935 0.27371 0.0
O47 O 0.1918 0.24606 0.21999 0.0
O48 O 0.31697 0.32889 0.22209 0.0
O49 O 0.37746 0.32899 0.24946 0.0
O50 O 0.38701 0.30317 0.38076 0.0
O51 O 0.3055 0.34618 0.33136 0.0
O52 O 0.23845 0.2931 0.30852 0.0
O53 O 0.42343 0.33865 0.31772 0.0
O54 O 0.30066 0.23599 0.32722 0.0
O55 O 0.2398 0.24038 0.30936 0.0
C56 C 0.34611 0.23105 0.22697 0.0
C57 C 0.1794 0.26574 0.14879 0.0
C58 C 0.14219 0.2878 0.09907 0.0
C59 C 0.11789 0.24409 0.08039 0.0
C60 C 0.15636 0.22252 0.12762 0.0
C61 C 0.12589 0.2119 0.09346 0.0
C62 C 0.17349 0.29832 0.13293 0.0
C63 C 0.3609 0.34285 0.2209 0.0
C64 C 0.2038 0.27667 0.19272 0.0
C65 C 0.20624 0.0992 0.11184 0.0
C66 C 0.23982 0.12319 0.07601 0.0
C67 C 0.26134 0.33254 0.33083 0.0
C68 C 0.46334 0.3125 0.35523 0.0
C69 C 0.49417 0.26974 0.3819 0.0
C70 C 0.53707 0.29518 0.35823 0.0
C71 C 0.50657 0.33728 0.33162 0.0
C72 C 0.45735 0.27864 0.38047 0.0
C73 C 0.54309 0.32856 0.33305 0.0
C74 C 0.25709 0.21871 0.32466 0.0
C75 C 0.4265 0.32548 0.35742 0.0
H76 H 0.09204 0.23472 0.05636 0.0
H77 H 0.16045 0.19679 0.139 0.0
H78 H 0.10725 0.17841 0.07837 0.0
H79 H 0.19239 0.33173 0.14824 0.0
H80 H 0.56583 0.28878 0.35855 0.0
H81 H 0.51228 0.3639 0.31264 0.0
H82 H 0.42444 0.25966 0.39963 0.0
H83 H 0.57623 0.34784 0.3147 0.0
Eu84 Eu 0.76899 0.31692 0.28043 0.0
C85 C 0.91288 0.26824 0.1268 0.0
N86 N 0.87581 0.23829 0.15087 0.0
C87 C 0.86807 0.18616 0.07652 0.0
C88 C 0.92818 0.25849 0.07566 0.0
C89 C 0.85431 0.19726 0.12726 0.0
C90 C 0.90483 0.21707 0.0504 0.0
C91 C 0.97536 0.33988 0.12979 0.0
C92 C 0.93621 0.30854 0.1536 0.0
C93 C 0.98983 0.33066 0.07851 0.0
C94 C 0.96638 0.29011 0.05153 0.0
Eu95 Eu 0.85287 0.26129 0.23483 0.0
N96 N 0.92073 0.31708 0.20292 0.0
C97 C 0.99893 0.3795 0.1583 0.0
C98 C 0.94491 0.35475 0.23152 0.0
C99 C 0.9841 0.38665 0.2096 0.0
H100 H 0.82668 0.17299 0.14771 0.0
H101 H 1.00273 0.41681 0.23223 0.0
H102 H 0.82361 0.42238 0.32117 0.0
H103 H 0.60544 0.19966 0.35827 0.0
H104 H 0.93435 0.36032 0.27119 0.0
H105 H 1.02881 0.40456 0.14124 0.0
H106 H 0.6689 0.22991 0.29143 0.0
H107 H 0.85045 0.15374 0.05768 0.0
H108 H 1.0193 0.35454 0.05941 0.0
H109 H 0.97833 0.28337 0.01213 0.0
H110 H 0.82421 0.47293 0.40002 0.0
H111 H 0.91545 0.20838 0.01108 0.0
H112 H 0.60597 0.24147 0.44362 0.0
N113 N 0.76891 0.36849 0.35156 0.0
C114 C 0.73652 0.35405 0.3909 0.0
C115 C 0.79961 0.4395 0.39808 0.0
C116 C 0.73517 0.38168 0.43634 0.0
C117 C 0.79936 0.41085 0.3537 0.0
C118 C 0.76776 0.42473 0.43986 0.0
N119 N 0.70415 0.28751 0.33918 0.0
C120 C 0.66856 0.24849 0.32844 0.0
C121 C 0.66746 0.29663 0.4234 0.0
C122 C 0.70305 0.31224 0.38447 0.0
C123 C 0.63291 0.25509 0.41415 0.0
C124 C 0.63276 0.23133 0.36609 0.0
H125 H 0.76791 0.44705 0.47409 0.0
H126 H 0.6993 0.38637 0.51151 0.0
H127 H 0.64002 0.31171 0.50022 0.0
O128 O 0.7536 0.31725 0.20697 0.0
O129 O 0.75523 0.26222 0.32571 0.0
O130 O 0.78718 0.21821 0.27619 0.0
O131 O 0.73284 0.35368 0.27375 0.0
O132 O 0.74214 0.25513 0.2268 0.0
O133 O 0.78824 0.21937 0.19626 0.0
O134 O 0.91086 0.2651 0.26364 0.0
O135 O 0.84655 0.30236 0.18381 0.0
O136 O 0.83848 0.35688 0.24043 0.0
O137 O 0.85985 0.20255 0.23882 0.0
O138 O 0.85467 0.30151 0.31405 0.0
O139 O 0.83998 0.35469 0.29869 0.0
C140 C 0.75745 0.22452 0.31258 0.0
C141 C 0.68746 0.32448 0.20722 0.0
C142 C 0.6459 0.32421 0.1437 0.0
C143 C 0.60515 0.29966 0.17227 0.0
C144 C 0.64676 0.30056 0.23561 0.0
C145 C 0.60582 0.28739 0.2175 0.0
C146 C 0.68695 0.33426 0.16038 0.0
C147 C 0.75065 0.22394 0.19756 0.0
C148 C 0.73106 0.3403 0.22549 0.0
C149 C 0.70072 0.36578 0.47611 0.0
C150 C 0.66698 0.32327 0.46969 0.0
C151 C 0.8532 0.34311 0.195 0.0
C152 C 0.89311 0.21024 0.31114 0.0
C153 C 0.92048 0.18241 0.3656 0.0
C154 C 0.89227 0.19242 0.40689 0.0
C155 C 0.86416 0.21849 0.3527 0.0
C156 C 0.92146 0.19221 0.31768 0.0
C157 C 0.86411 0.21001 0.40031 0.0
C158 C 0.85693 0.34082 0.32611 0.0
C159 C 0.89551 0.22355 0.26245 0.0
H160 H 0.57272 0.29153 0.16099 0.0
H161 H 0.64658 0.29242 0.27174 0.0
H162 H 0.57455 0.26901 0.23957 0.0
H163 H 0.71878 0.35136 0.13801 0.0
H164 H 0.89142 0.18581 0.44422 0.0
H165 H 0.84204 0.23219 0.34852 0.0
H166 H 0.94344 0.18517 0.28565 0.0
H167 H 0.84206 0.21699 0.43222 0.0
Eu168 Eu 0.78006 0.7411 0.29465 0.0
C169 C 0.93824 0.89711 0.17634 0.0
N170 N 0.89892 0.89247 0.20611 0.0
C171 C 0.9324 0.96737 0.24081 0.0
C172 C 0.97687 0.93707 0.1787 0.0
C173 C 0.89492 0.92716 0.23676 0.0
C174 C 0.97377 0.9722 0.2122 0.0
C175 C 0.97794 0.86712 0.10646 0.0
C176 C 0.93882 0.86264 0.14081 0.0
C177 C 1.01726 0.90615 0.11032 0.0
C178 C 1.01674 0.94105 0.1464 0.0
Eu179 Eu 0.83833 0.82266 0.19964 0.0
N180 N 0.90003 0.82577 0.13744 0.0
C181 C 0.97579 0.83283 0.06812 0.0
C182 C 0.89681 0.79338 0.09824 0.0
C183 C 0.93484 0.79605 0.06355 0.0
H184 H 0.86296 0.92361 0.25881 0.0
H185 H 0.93253 0.76983 0.03331 0.0
H186 H 0.69264 0.65225 0.24976 0.0
H187 H 0.79405 0.83228 0.48429 0.0
H188 H 0.86508 0.76496 0.09475 0.0
H189 H 1.00511 0.83497 0.041 0.0
H190 H 0.8212 0.81275 0.39591 0.0
H191 H 0.92935 0.99458 0.26595 0.0
H192 H 1.04781 0.9101 0.08462 0.0
H193 H 1.04691 0.97137 0.14799 0.0
H194 H 0.61265 0.60708 0.27864 0.0
H195 H 1.00269 1.00345 0.21519 0.0
H196 H 0.71389 0.79245 0.51806 0.0
N197 N 0.7031 0.69619 0.31793 0.0
C198 C 0.68551 0.7058 0.36584 0.0
C199 C 0.63266 0.63491 0.30342 0.0
C200 C 0.6401 0.68061 0.38403 0.0
C201 C 0.67782 0.66073 0.28707 0.0
C202 C 0.61357 0.64512 0.35192 0.0
N203 N 0.75719 0.76323 0.37934 0.0
C204 C 0.78628 0.79539 0.41009 0.0
C205 C 0.69632 0.75002 0.44787 0.0
C206 C 0.71333 0.74006 0.39748 0.0
C207 C 0.72568 0.78386 0.47915 0.0
C208 C 0.77094 0.80644 0.46023 0.0
H209 H 0.57858 0.62497 0.36452 0.0
H210 H 0.58801 0.67214 0.44833 0.0
H211 H 0.63725 0.73285 0.50419 0.0
O212 O 0.81331 0.72473 0.34272 0.0
O213 O 0.75715 0.79734 0.32063 0.0
O214 O 0.79721 0.84826 0.26554 0.0
O215 O 0.76729 0.67415 0.29242 0.0
O216 O 0.85382 0.78879 0.3006 0.0
O217 O 0.86194 0.85098 0.27832 0.0
O218 O 0.77778 0.82232 0.1796 0.0
O219 O 0.87276 0.77702 0.19607 0.0
O220 O 0.81373 0.71532 0.22033 0.0
O221 O 0.84281 0.85129 0.13438 0.0
O222 O 0.79142 0.75393 0.16675 0.0
O223 O 0.73721 0.73116 0.23348 0.0
C224 C 0.76697 0.83475 0.30542 0.0
C225 C 0.78486 0.65187 0.35853 0.0
C226 C 0.81467 0.61511 0.39681 0.0
C227 C 0.77048 0.58369 0.4082 0.0
C228 C 0.74072 0.62096 0.37105 0.0
C229 C 0.73366 0.58699 0.39593 0.0
C230 C 0.8216 0.64928 0.3723 0.0
C231 C 0.87223 0.83116 0.3064 0.0
C232 C 0.79472 0.68365 0.3254 0.0
C233 C 0.62285 0.69102 0.43383 0.0
C234 C 0.65088 0.7256 0.46565 0.0
C235 C 0.85522 0.73482 0.19721 0.0
C236 C 0.79185 0.88201 0.13919 0.0
C237 C 0.74184 0.9102 0.12248 0.0
C238 C 0.77772 0.95192 0.12545 0.0
C239 C 0.82694 0.92413 0.14235 0.0
C240 C 0.74902 0.87521 0.12985 0.0
C241 C 0.81977 0.95877 0.13559 0.0
C242 C 0.74902 0.73106 0.18445 0.0
C243 C 0.80057 0.84494 0.14248 0.0
H244 H 0.76447 0.55696 0.42714 0.0
H245 H 0.712 0.62243 0.36045 0.0
H246 H 0.69967 0.56287 0.40518 0.0
H247 H 0.85579 0.67284 0.36202 0.0
H248 H 0.77336 0.97934 0.11936 0.0
H249 H 0.8602 0.93035 0.14931 0.0
H250 H 0.72182 0.84284 0.12734 0.0
H251 H 0.84708 0.99102 0.13771 0.0
Eu252 Eu 0.24724 0.80635 0.29113 0.0
C253 C 0.41135 0.74888 0.29143 0.0
N254 N 0.40639 0.7793 0.27302 0.0
C255 C 0.48202 0.83028 0.28726 0.0
C256 C 0.45157 0.75834 0.31013 0.0
C257 C 0.44137 0.81928 0.26928 0.0
C258 C 0.48698 0.79981 0.30832 0.0
C259 C 0.3818 0.6741 0.30443 0.0
C260 C 0.37715 0.70748 0.2884 0.0
C261 C 0.4207 0.68372 0.32574 0.0
C262 C 0.45559 0.72579 0.3285 0.0
Eu263 Eu 0.33602 0.75939 0.24573 0.0
N264 N 0.34069 0.69926 0.2665 0.0
C265 C 0.34793 0.63186 0.29693 0.0
C266 C 0.30909 0.6578 0.25611 0.0
C267 C 0.31172 0.6236 0.27197 0.0
H268 H 0.43759 0.84303 0.25338 0.0
H269 H 0.28602 0.5909 0.26463 0.0
H270 H 0.21845 0.8194 0.18763 0.0
H271 H 0.27142 0.91056 0.4734 0.0
H272 H 0.28158 0.65111 0.23588 0.0
H273 H 0.35015 0.60529 0.30877 0.0
H274 H 0.25655 0.84225 0.4151 0.0
H275 H 0.50936 0.86227 0.28511 0.0
H276 H 0.42472 0.65863 0.33877 0.0
H277 H 0.48599 0.73251 0.34363 0.0
H278 H 0.21327 0.87664 0.15321 0.0
H279 H 0.51848 0.80839 0.32226 0.0
H280 H 0.27386 0.9737 0.44364 0.0
N281 N 0.23731 0.85795 0.25758 0.0
C282 C 0.24518 0.89648 0.28691 0.0
C283 C 0.22235 0.8827 0.19086 0.0
C284 C 0.24275 0.93019 0.26887 0.0
C285 C 0.22512 0.85027 0.2105 0.0
C286 C 0.23158 0.92299 0.22001 0.0
N287 N 0.25391 0.86767 0.35245 0.0
C288 C 0.25747 0.86977 0.40204 0.0
C289 C 0.2608 0.94068 0.36806 0.0
C290 C 0.25392 0.90157 0.3358 0.0
C291 C 0.26783 0.94404 0.41787 0.0
C292 C 0.26616 0.90838 0.4349 0.0
H293 H 0.22938 0.94807 0.20476 0.0
H294 H 0.24949 0.99599 0.28697 0.0
H295 H 0.26546 1.0053 0.37387 0.0
O296 O 0.17878 0.80105 0.3164 0.0
O297 O 0.29662 0.83081 0.22065 0.0
O298 O 0.35887 0.83133 0.24282 0.0
O299 O 0.18895 0.74297 0.29121 0.0
O300 O 0.30878 0.84235 0.33331 0.0
O301 O 0.35473 0.80656 0.31839 0.0
O302 O 0.33737 0.76996 0.16974 0.0
O303 O 0.26963 0.71552 0.2864 0.0
O304 O 0.2516 0.76456 0.34388 0.0
O305 O 0.37478 0.73655 0.18226 0.0
O306 O 0.26464 0.71805 0.22425 0.0
O307 O 0.25091 0.77252 0.21091 0.0
C308 C 0.34084 0.84816 0.22005 0.0
C309 C 0.13926 0.74313 0.36527 0.0
C310 C 0.13284 0.75618 0.45771 0.0
C311 C 0.10494 0.71182 0.45899 0.0
C312 C 0.11153 0.699 0.36734 0.0
C313 C 0.09438 0.68351 0.41405 0.0
C314 C 0.14962 0.77129 0.41047 0.0
C315 C 0.34338 0.8378 0.34257 0.0
C316 C 0.16153 0.75927 0.31643 0.0
C317 C 0.25083 0.96963 0.30032 0.0
C318 C 0.25992 0.9749 0.34979 0.0
C319 C 0.24745 0.72446 0.32934 0.0
C320 C 0.40326 0.77797 0.11513 0.0
C321 C 0.45019 0.77668 0.0347 0.0
C322 C 0.47591 0.82161 0.04589 0.0
C323 C 0.43165 0.82156 0.12804 0.0
C324 C 0.41229 0.75596 0.06898 0.0
C325 C 0.4675 0.84346 0.09312 0.0
C326 C 0.24396 0.7318 0.20082 0.0
C327 C 0.36559 0.75322 0.14999 0.0
H328 H 0.09086 0.69919 0.49473 0.0
H329 H 0.10387 0.67649 0.33291 0.0
H330 H 0.07306 0.6494 0.41544 0.0
H331 H 0.17004 0.80539 0.40869 0.0
H332 H 0.50491 0.83883 0.02014 0.0
H333 H 0.42672 0.83822 0.16515 0.0
H334 H 0.39201 0.72136 0.06311 0.0
H335 H 0.4901 0.8768 0.10383 0.0
Eu336 Eu 0.27001 0.79542 0.7694 0.0
C337 C 0.41488 0.77903 0.61444 0.0
N338 N 0.37544 0.74697 0.63221 0.0
C339 C 0.35888 0.71725 0.5471 0.0
C340 C 0.4263 0.78277 0.56238 0.0
C341 C 0.34924 0.71464 0.59894 0.0
C342 C 0.39705 0.75198 0.52881 0.0
C343 C 0.4867 0.83998 0.63086 0.0
C344 C 0.44514 0.80715 0.64805 0.0
C345 C 0.49688 0.84508 0.57955 0.0
C346 C 0.46703 0.81632 0.54533 0.0
Eu347 Eu 0.36172 0.74835 0.72171 0.0
N348 N 0.43349 0.80289 0.69797 0.0
C349 C 0.51677 0.86666 0.66583 0.0
C350 C 0.46346 0.82722 0.7319 0.0
C351 C 0.5054 0.85977 0.71643 0.0
H352 H 0.32162 0.68596 0.6116 0.0
H353 H 0.52881 0.87964 0.74352 0.0
H354 H 0.3019 0.85781 0.88012 0.0
H355 H 0.1055 0.66086 0.73388 0.0
H356 H 0.45452 0.82183 0.77098 0.0
H357 H 0.54899 0.89228 0.65407 0.0
H358 H 0.17925 0.7198 0.71167 0.0
H359 H 0.3373 0.69197 0.52117 0.0
H360 H 0.52803 0.87078 0.56585 0.0
H361 H 0.47629 0.81975 0.5056 0.0
H362 H 0.27617 0.85565 0.97096 0.0
H363 H 0.40462 0.75373 0.48858 0.0
H364 H 0.07748 0.65077 0.82353 0.0
N365 N 0.24689 0.79855 0.85755 0.0
C366 C 0.20581 0.76717 0.87263 0.0
C367 C 0.25634 0.83026 0.94374 0.0
C368 C 0.18943 0.76519 0.92442 0.0
C369 C 0.27122 0.83097 0.89206 0.0
C370 C 0.21559 0.79691 0.96004 0.0
N371 N 0.19623 0.73978 0.78634 0.0
C372 C 0.16908 0.71416 0.75019 0.0
C373 C 0.13704 0.70447 0.85095 0.0
C374 C 0.17999 0.73691 0.83613 0.0
C375 C 0.11062 0.67606 0.81361 0.0
C376 C 0.12644 0.68143 0.76301 0.0
H377 H 0.20419 0.79644 1.00014 0.0
H378 H 0.13469 0.72954 0.97865 0.0
H379 H 0.08897 0.67655 0.91418 0.0
O380 O 0.21495 0.81197 0.7675 0.0
O381 O 0.27591 0.75103 0.81552 0.0
O382 O 0.29292 0.70124 0.75818 0.0
O383 O 0.28161 0.86304 0.77609 0.0
O384 O 0.26007 0.75163 0.6932 0.0
O385 O 0.29296 0.70625 0.69481 0.0
O386 O 0.39374 0.72797 0.76689 0.0
O387 O 0.37961 0.81855 0.71705 0.0
O388 O 0.31582 0.81318 0.69438 0.0
O389 O 0.39418 0.70603 0.6867 0.0
O390 O 0.36364 0.78398 0.80187 0.0
O391 O 0.33765 0.83515 0.80158 0.0
C392 C 0.26906 0.71068 0.79974 0.0
C393 C 0.23686 0.87059 0.7248 0.0
C394 C 0.1902 0.88555 0.68087 0.0
C395 C 0.22351 0.8929 0.63871 0.0
C396 C 0.2703 0.87908 0.68269 0.0
C397 C 0.2635 0.89003 0.63986 0.0
C398 C 0.19693 0.87443 0.72399 0.0
C399 C 0.2637 0.71474 0.67846 0.0
C400 C 0.24093 0.8529 0.76691 0.0
C401 C 0.14751 0.73192 0.93906 0.0
C402 C 0.12145 0.7017 0.90241 0.0
C403 C 0.36023 0.83142 0.69125 0.0
C404 C 0.39508 0.66018 0.73786 0.0
C405 C 0.41366 0.61592 0.7784 0.0
C406 C 0.38088 0.57855 0.75427 0.0
C407 C 0.362 0.62269 0.71446 0.0
C408 C 0.42065 0.65665 0.76985 0.0
C409 C 0.35515 0.58199 0.72258 0.0
C410 C 0.36321 0.8221 0.81859 0.0
C411 C 0.40434 0.70334 0.7289 0.0
H412 H 0.21915 0.90229 0.60549 0.0
H413 H 0.30144 0.87679 0.68259 0.0
H414 H 0.28936 0.89651 0.60756 0.0
H415 H 0.17113 0.86852 0.75649 0.0
H416 H 0.37516 0.54671 0.76013 0.0
H417 H 0.34167 0.62482 0.68985 0.0
H418 H 0.44542 0.68569 0.78877 0.0
H419 H 0.32983 0.55309 0.70436 0.0
Eu420 Eu 0.28965 0.23047 0.79211 0.0
C421 C 0.43933 0.34313 0.63577 0.0
N422 N 0.4189 0.3558 0.68038 0.0
C423 C 0.4888 0.41707 0.69706 0.0
C424 C 0.48573 0.36707 0.62031 0.0
C425 C 0.44261 0.39271 0.71053 0.0
C426 C 0.51052 0.40411 0.65189 0.0
C427 C 0.43351 0.29343 0.55769 0.0
C428 C 0.41359 0.30655 0.60485 0.0
C429 C 0.47965 0.3173 0.54225 0.0
C430 C 0.50575 0.35381 0.57358 0.0
Eu431 Eu 0.34079 0.31211 0.69917 0.0
N432 N 0.36904 0.28376 0.62094 0.0
C433 C 0.40631 0.25699 0.52716 0.0
C434 C 0.34196 0.24939 0.59045 0.0
C435 C 0.36026 0.23512 0.54345 0.0
H436 H 0.42589 0.40411 0.74448 0.0
H437 H 0.33878 0.20749 0.51962 0.0
H438 H 0.21131 0.13298 0.74723 0.0
H439 H 0.28119 0.33303 0.97003 0.0
H440 H 0.30626 0.23304 0.60215 0.0
H441 H 0.42035 0.24584 0.49074 0.0
H442 H 0.31764 0.31061 0.88791 0.0
H443 H 0.50749 0.44616 0.72121 0.0
H444 H 0.49536 0.30813 0.50591 0.0
H445 H 0.54129 0.37191 0.56099 0.0
H446 H 0.12994 0.0871 0.76661 0.0
H447 H 0.54624 0.42331 0.64135 0.0
H448 H 0.20013 0.29028 0.9963 0.0
N449 N 0.2124 0.18293 0.80756 0.0
C450 C 0.18937 0.19494 0.85027 0.0
C451 C 0.14605 0.1176 0.79006 0.0
C452 C 0.14325 0.16866 0.86409 0.0
C453 C 0.19193 0.14419 0.77844 0.0
C454 C 0.12146 0.13008 0.83283 0.0
N455 N 0.25688 0.25762 0.86725 0.0
C456 C 0.28191 0.29257 0.89872 0.0
C457 C 0.19031 0.24423 0.92786 0.0
C458 C 0.21248 0.23265 0.8816 0.0
C459 C 0.21544 0.28091 0.95978 0.0
C460 C 0.26141 0.30511 0.94519 0.0
H461 H 0.08604 0.10911 0.84219 0.0
H462 H 0.08524 0.16125 0.92052 0.0
H463 H 0.12641 0.22654 0.97613 0.0
O464 O 0.33489 0.22885 0.84015 0.0
O465 O 0.25597 0.27852 0.80072 0.0
O466 O 0.31203 0.34086 0.77374 0.0
O467 O 0.2717 0.17234 0.8244 0.0
O468 O 0.36314 0.28193 0.79773 0.0
O469 O 0.3636 0.34153 0.77687 0.0
O470 O 0.29514 0.31757 0.65734 0.0
O471 O 0.37417 0.26396 0.68919 0.0
O472 O 0.31916 0.20182 0.71863 0.0
O473 O 0.35987 0.37173 0.66869 0.0
O474 O 0.26823 0.25996 0.69121 0.0
O475 O 0.26497 0.19987 0.71453 0.0
C476 C 0.27204 0.3208 0.79919 0.0
C477 C 0.31356 0.16453 0.88102 0.0
C478 C 0.36111 0.15113 0.92603 0.0
C479 C 0.32265 0.11651 0.94499 0.0
C480 C 0.27561 0.12983 0.9008 0.0
C481 C 0.28023 0.10598 0.93239 0.0
C482 C 0.35659 0.17523 0.89384 0.0
C483 C 0.37937 0.32429 0.80184 0.0
C484 C 0.30701 0.18943 0.84831 0.0
C485 C 0.12068 0.18097 0.90927 0.0
C486 C 0.14423 0.21835 0.94114 0.0
C487 C 0.35823 0.22188 0.69157 0.0
C488 C 0.29698 0.38705 0.67227 0.0
C489 C 0.23687 0.40631 0.66484 0.0
C490 C 0.25495 0.44308 0.70086 0.0
C491 C 0.31372 0.42348 0.70863 0.0
C492 C 0.25747 0.37764 0.65234 0.0
C493 C 0.29233 0.45093 0.72324 0.0
C494 C 0.25109 0.21755 0.68753 0.0
C495 C 0.32022 0.35857 0.65466 0.0
H496 H 0.32565 0.09705 0.96887 0.0
H497 H 0.24215 0.12113 0.89194 0.0
H498 H 0.25081 0.07905 0.94693 0.0
H499 H 0.38633 0.20136 0.87815 0.0
H500 H 0.24109 0.46668 0.71107 0.0
H501 H 0.34337 0.4309 0.72571 0.0
H502 H 0.24328 0.34815 0.62678 0.0
H503 H 0.3054 0.47901 0.75118 0.0
Eu504 Eu 0.77131 0.28081 0.79183 0.0
C505 C 0.8337 0.13811 0.76947 0.0
N506 N 0.85158 0.18018 0.79049 0.0
C507 C 0.85873 0.15976 0.86565 0.0
C508 C 0.82544 0.10483 0.79694 0.0
C509 C 0.86668 0.19163 0.83669 0.0
C510 C 0.83712 0.11612 0.84611 0.0
C511 C 0.81313 0.08589 0.69444 0.0
C512 C 0.82734 0.1288 0.71899 0.0
C513 C 0.80169 0.05221 0.72252 0.0
C514 C 0.80778 0.06167 0.77372 0.0
Eu515 Eu 0.85872 0.23139 0.74085 0.0
N516 N 0.83962 0.16218 0.69272 0.0
C517 C 0.81331 0.07846 0.64197 0.0
C518 C 0.84414 0.15557 0.64128 0.0
C519 C 0.83006 0.1136 0.61511 0.0
H520 H 0.88306 0.22536 0.85196 0.0
H521 H 0.83233 0.10845 0.57432 0.0
H522 H 0.66828 0.20294 0.81158 0.0
H523 H 0.81982 0.44927 0.7702 0.0
H524 H 0.85783 0.1828 0.6206 0.0
H525 H 0.80273 0.046 0.62164 0.0
H526 H 0.83084 0.38834 0.78566 0.0
H527 H 0.86916 0.16885 0.903 0.0
H528 H 0.78998 1.01896 0.7045 0.0
H529 H 0.80057 0.03556 0.79442 0.0
H530 H 0.58891 0.1873 0.80888 0.0
H531 H 0.83124 0.0915 0.8685 0.0
H532 H 0.74431 0.43849 0.75667 0.0
N533 N 0.6951 0.26537 0.78924 0.0
C534 C 0.68582 0.29636 0.77875 0.0
C535 C 0.61586 0.21803 0.79987 0.0
C536 C 0.64104 0.28909 0.77692 0.0
C537 C 0.6609 0.22688 0.80102 0.0
C538 C 0.6059 0.24906 0.78701 0.0
N539 N 0.76278 0.34228 0.7793 0.0
C540 C 0.79779 0.38271 0.77942 0.0
C541 C 0.71289 0.37044 0.76491 0.0
C542 C 0.721 0.33624 0.77327 0.0
C543 C 0.74911 0.41134 0.76285 0.0
C544 C 0.79168 0.41756 0.77064 0.0
H545 H 0.57101 0.24222 0.78624 0.0
H546 H 0.59864 0.31749 0.7651 0.0
H547 H 0.66179 0.38891 0.7543 0.0
O548 O 0.73567 0.29028 0.86639 0.0
O549 O 0.82638 0.3198 0.73275 0.0
O550 O 0.87071 0.28351 0.69292 0.0
O551 O 0.7897 0.27186 0.86008 0.0
O552 O 0.84491 0.32768 0.80119 0.0
O553 O 0.86612 0.27769 0.81345 0.0
O554 O 0.91697 0.21711 0.71165 0.0
O555 O 0.80443 0.20706 0.80752 0.0
O556 O 0.7457 0.20786 0.78108 0.0
O557 O 0.9275 0.28156 0.74661 0.0
O558 O 0.81131 0.21653 0.68101 0.0
O559 O 0.7491 0.22762 0.72466 0.0
C560 C 0.85962 0.31631 0.69885 0.0
C561 C 0.7831 0.32179 0.92945 0.0
C562 C 0.79438 0.39584 0.95299 0.0
C563 C 0.78818 0.39104 1.00436 0.0
C564 C 0.77596 0.31617 0.98031 0.0
C565 C 0.78121 0.35173 0.01777 0.0
C566 C 0.7998 0.3633 0.91669 0.0
C567 C 0.87378 0.31836 0.8167 0.0
C568 C 0.76253 0.2855 0.8907 0.0
C569 C 0.63275 0.32246 0.76692 0.0
C570 C 0.66869 0.36309 0.76079 0.0
C571 C 0.76085 0.18967 0.80516 0.0
C572 C 0.97955 0.27492 0.67822 0.0
C573 C 0.99688 0.27866 0.58737 0.0
C574 C 1.04299 0.30411 0.5948 0.0
C575 C 1.02527 0.29836 0.68417 0.0
C576 C 0.96535 0.26742 0.6309 0.0
C577 C 0.05674 0.31369 0.64265 0.0
C578 C 0.76884 0.21107 0.68431 0.0
C579 C 0.94637 0.25705 0.72091 0.0
H580 H 0.78403 0.41549 0.03386 0.0
H581 H 0.76386 0.28429 0.99101 0.0
H582 H 0.77493 0.3475 0.0572 0.0
H583 H 0.80532 0.36707 0.87715 0.0
H584 H 0.06949 0.31491 0.564 0.0
H585 H 1.03654 0.3047 0.72075 0.0
H586 H 0.92955 0.25008 0.62816 0.0
H587 H 0.0922 0.33162 0.64714 0.0
Eu588 Eu 0.76044 0.7471 0.70513 0.0
C589 C 0.83128 0.86533 0.89162 0.0
N590 N 0.8497 0.8607 0.84268 0.0
C591 C 0.88363 0.93761 0.84288 0.0
C592 C 0.83816 0.90676 0.91781 0.0
C593 C 0.87622 0.89609 0.8185 0.0
C594 C 0.86453 0.94301 0.89279 0.0
C595 C 0.78595 0.83286 0.96621 0.0
C596 C 0.80491 0.82846 0.91531 0.0
C597 C 0.79343 0.87414 0.99227 0.0
C598 C 0.819 0.91089 0.96817 0.0
Eu599 Eu 0.8409 0.78994 0.80763 0.0
N600 N 0.79927 0.78876 0.88957 0.0
C601 C 0.76117 0.7958 0.9901 0.0
C602 C 0.77735 0.75296 0.91396 0.0
C603 C 0.75706 0.75573 0.96389 0.0
H604 H 0.89085 0.89221 0.78016 0.0
H605 H 0.73951 0.72709 0.98267 0.0
H606 H 0.65591 0.67999 0.74801 0.0
H607 H 0.84385 0.74368 0.5125 0.0
H608 H 0.7773 0.72248 0.89643 0.0
H609 H 0.74628 0.79794 0.0292 0.0
H610 H 0.83421 0.77436 0.60192 0.0
H611 H 0.90421 0.96543 0.8232 0.0
H612 H 0.78016 0.87814 0.0314 0.0
H613 H 0.8242 0.94242 0.98907 0.0
H614 H 0.60015 0.60425 0.7277 0.0
H615 H 0.87046 0.97528 0.9117 0.0
H616 H 0.79154 0.66862 0.48306 0.0
N617 N 0.7043 0.67622 0.68628 0.0
C618 C 0.71144 0.65435 0.64054 0.0
C619 C 0.63171 0.61755 0.70332 0.0
C620 C 0.6791 0.61242 0.62493 0.0
C621 C 0.66389 0.65974 0.7159 0.0
C622 C 0.63975 0.5934 0.65795 0.0
N623 N 0.77832 0.71686 0.62284 0.0
C624 C 0.81207 0.74127 0.58959 0.0
C625 C 0.75325 0.65689 0.55667 0.0
C626 C 0.7486 0.67594 0.60712 0.0
C627 C 0.78798 0.68161 0.52246 0.0
C628 C 0.81744 0.72403 0.53894 0.0
H629 H 0.61421 0.56119 0.64747 0.0
H630 H 0.6613 0.55974 0.56326 0.0
H631 H 0.72565 0.59899 0.50337 0.0
O632 O 0.75367 0.80271 0.68984 0.0
O633 O 0.81337 0.71766 0.68306 0.0
O634 O 0.85321 0.73565 0.75114 0.0
O635 O 0.70729 0.73758 0.66325 0.0
O636 O 0.82313 0.81084 0.6917 0.0
O637 O 0.87844 0.81431 0.73276 0.0
O638 O 0.87223 0.78114 0.86491 0.0
O639 O 0.79631 0.82491 0.80316 0.0
O640 O 0.73064 0.76938 0.78378 0.0
O641 O 0.91329 0.82613 0.81212 0.0
O642 O 0.791 0.71813 0.80708 0.0
O643 O 0.73106 0.71784 0.77887 0.0
C644 C 0.84302 0.71411 0.70572 0.0
C645 C 0.67868 0.78935 0.6847 0.0
C646 C 0.63485 0.82389 0.66941 0.0
C647 C 0.6034 0.80822 0.71132 0.0
C648 C 0.64693 0.77312 0.72633 0.0
C649 C 0.60944 0.7827 0.73963 0.0
C650 C 0.67243 0.81455 0.65633 0.0
C651 C 0.86582 0.82753 0.69938 0.0
C652 C 0.71712 0.77845 0.66831 0.0
C653 C 0.6856 0.59202 0.57587 0.0
C654 C 0.72223 0.61445 0.54162 0.0
C655 C 0.75165 0.80823 0.80842 0.0
C656 C 0.94938 0.79297 0.8439 0.0
C657 C 0.98271 0.75442 0.87472 0.0
C658 C 1.02112 0.77072 0.8392 0.0
C659 C 0.98823 0.80875 0.80862 0.0
C660 C 0.94694 0.7658 0.87704 0.0
C661 C 1.02373 0.79759 0.80636 0.0
C662 C 0.74749 0.70026 0.80285 0.0
C663 C 0.91304 0.80717 0.84844 0.0
H664 H 0.57435 0.81559 0.72186 0.0
H665 H 0.65089 0.75272 0.74791 0.0
H666 H 0.58492 0.77015 0.77163 0.0
H667 H 0.6967 0.82678 0.62385 0.0
H668 H 1.04889 0.76209 0.83634 0.0
H669 H 0.99149 0.83011 0.78303 0.0
H670 H 0.9176 0.75394 0.90501 0.0
H671 H 1.05345 0.80988 0.77904 0.0
Co672 Co 0.07588 0.92823 0.50236 0.0
Co673 Co 0.08135 0.98921 0.57764 0.0
Co674 Co 0.05922 1.01809 0.50194 0.0
O675 O 0.09682 0.99023 0.50852 0.0
H676 H 0.12886 1.00685 0.49962 0.0
O677 O 1.0211 0.04519 0.49407 0.0
Co678 Co 1.03937 0.10689 0.50677 0.0
Co679 Co 1.03744 0.04962 0.42334 0.0
H680 H 0.98913 0.0277 0.50222 0.0
O681 O 0.12166 0.99274 0.61089 0.0
O682 O 0.06229 0.93189 0.58019 0.0
O683 O 1.03494 1.005 0.61841 0.0
O684 O 1.0049 0.97837 0.54887 0.0
O685 O 0.08605 0.06429 0.55942 0.0
O686 O 1.05266 0.16179 0.51602 0.0
O687 O 0.98493 0.10582 0.50425 0.0
O688 O 0.10027 0.11851 0.51862 0.0
O689 O 0.11377 0.05783 0.45652 0.0
O690 O 0.08973 0.04337 0.38332 0.0
O691 O 1.04992 0.107 0.43013 0.0
O692 O 0.99726 0.04824 0.38832 0.0
C693 C 0.1029 0.88696 0.50646 0.0
C694 C 1.01009 0.93286 0.44911 0.0
C695 C 1.00078 0.97931 0.59687 0.0
C696 C 0.09369 0.95211 0.61137 0.0
C697 C 1.01093 0.14742 0.50884 0.0
C698 C 0.10801 0.10445 0.55398 0.0
C699 C 0.122 0.06207 0.40951 0.0
C700 C 1.01666 0.08977 0.40179 0.0
O701 O 0.06135 0.87248 0.49813 0.0
O702 O 0.12875 0.92859 0.51031 0.0
O703 O 1.03371 0.9729 0.44418 0.0
O704 O 1.01578 0.91718 0.48474 0.0
Co705 Co 0.59674 0.93931 0.95283 0.0
Co706 Co 0.55597 0.94287 0.03276 0.0
Co707 Co 0.55062 1.02232 0.01424 0.0
O708 O 0.59272 0.99125 1.00168 0.0
H709 H 0.61983 1.00836 0.01775 0.0
O710 O 0.50859 0.05358 0.02638 0.0
Co711 Co 0.50373 0.10374 0.07807 0.0
Co712 Co 0.54363 0.10278 0.9964 0.0
H713 H 0.48126 0.03624 0.01077 0.0
O714 O 0.57864 0.94666 0.08718 0.0
O715 O 0.58132 0.90529 0.01108 0.0
O716 O 0.49098 0.92275 0.04484 0.0
O717 O 0.50858 0.99111 0.07497 0.0
O718 O 0.59213 0.06929 0.06213 0.0
O719 O 0.49616 0.14691 0.12478 0.0
O720 O 0.4419 0.09584 0.08185 0.0
O721 O 0.5663 0.12087 0.08696 0.0
O722 O 0.59216 0.05349 0.95394 0.0
O723 O 0.60788 0.12232 0.98128 0.0
O724 O 0.52035 0.14154 0.02332 0.0
O725 O 0.51861 0.10226 0.94521 0.0
C726 C 0.64465 0.91013 0.91709 0.0
C727 C 0.50559 0.93714 0.94467 0.0
C728 C 0.48068 0.9508 0.07438 0.0
C729 C 0.59291 0.91999 0.05718 0.0
C730 C 0.45449 0.13067 0.11588 0.0
C731 C 0.59648 0.107 0.08442 0.0
C732 C 0.61891 0.09394 0.95357 0.0
C733 C 0.50747 0.12988 0.97778 0.0
O734 O 0.60278 0.89358 0.90896 0.0
O735 O 0.65848 0.94687 0.94811 0.0
O736 O 0.50991 0.97521 0.96582 0.0
O737 O 0.53455 0.92233 0.94441 0.0
Co738 Co 0.11522 0.45056 0.93721 0.0
Co739 Co 0.0784 0.45274 0.02106 0.0
Co740 Co 0.06317 0.52911 1.00163 0.0
O741 O 0.10884 0.50079 0.98911 0.0
H742 H 0.13659 0.51996 1.00323 0.0
O743 O 1.01743 0.55614 0.01375 0.0
Co744 Co 1.01771 0.61101 0.05671 0.0
Co745 Co 1.02456 0.58456 0.96023 0.0
H746 H 0.98693 0.53357 0.01658 0.0
O747 O 0.10646 0.4511 0.06874 0.0
O748 O 0.09658 0.41189 0.99041 0.0
O749 O 1.0145 0.42727 0.03207 0.0
O750 O 1.01784 0.49256 0.05714 0.0
O751 O 0.09842 0.57465 0.05526 0.0
O752 O 1.01271 0.65951 0.0961 0.0
O753 O 0.95526 0.60042 0.06677 0.0
O754 O 0.08204 0.63104 0.05694 0.0
O755 O 0.10922 0.56751 0.94884 0.0
O756 O 0.07745 0.59515 0.91069 0.0
O757 O 1.02708 0.63718 0.99446 0.0
O758 O 0.9765 0.58818 0.94292 0.0
C759 C 0.16392 0.42237 0.90242 0.0
C760 C 1.0238 0.44605 0.92768 0.0
C761 C 0.99625 0.45125 0.05627 0.0
C762 C 0.10816 0.41885 0.03589 0.0
C763 C 0.96944 0.63937 0.09297 0.0
C764 C 0.10662 0.61495 0.06737 0.0
C765 C 0.11116 0.58937 0.9152 0.0
C766 C 0.99519 0.62712 0.96668 0.0
O767 O 0.12315 0.40691 0.89104 0.0
O768 O 0.17647 0.45799 0.93537 0.0
O769 O 1.02684 0.48383 0.94815 0.0
O770 O 1.05436 0.43347 0.92715 0.0
Co771 Co 0.61863 0.46793 0.9524 0.0
Co772 Co 0.56434 0.44155 0.023 0.0
Co773 Co 0.55686 0.52252 1.00803 0.0
O774 O 0.59484 0.49514 0.01049 0.0
H775 H 0.61612 0.51162 0.03461 0.0
O776 O 0.51914 0.55095 1.00562 0.0
Co777 Co 0.54115 0.61201 1.00644 0.0
Co778 Co 0.52725 0.54638 0.93495 0.0
H779 H 0.48782 0.53571 0.019 0.0
O780 O 0.58795 0.43275 0.06999 0.0
O781 O 0.59767 0.41379 0.98471 0.0
O782 O 0.4998 0.42126 0.03722 0.0
O783 O 0.50952 0.48935 0.06469 0.0
O784 O 0.59087 0.57199 0.05873 0.0
O785 O 0.55752 0.66678 1.0064 0.0
O786 O 0.48712 0.61288 1.00874 0.0
O787 O 0.60348 0.62181 0.01101 0.0
O788 O 0.6071 0.55574 0.95427 0.0
O789 O 0.5726 0.53274 0.88773 0.0
O790 O 0.54093 0.60159 0.92934 0.0
O791 O 0.48056 0.53706 0.90908 0.0
C792 C 0.68044 0.46858 0.93156 0.0
C793 C 0.52624 0.44383 0.92621 0.0
C794 C 0.48679 0.44807 0.06638 0.0
C795 C 0.60328 0.41296 0.03043 0.0
C796 C 0.51465 0.65353 1.00556 0.0
C797 C 0.61255 0.61097 0.04833 0.0
C798 C 0.6091 0.55348 0.90666 0.0
C799 C 0.50354 0.5784 0.90745 0.0
O800 O 0.64903 0.44712 0.90176 0.0
O801 O 0.67228 0.49061 0.97371 0.0
O802 O 0.52054 0.47474 0.95648 0.0
O803 O 0.56256 0.43941 0.92268 0.0
Co804 Co 0.12326 0.48203 0.52517 0.0
Co805 Co 0.11948 0.48255 0.43618 0.0
Co806 Co 1.04907 0.52251 0.51488 0.0
O807 O 0.07586 0.47808 0.49223 0.0
H808 H 1.05192 0.44905 0.4899 0.0
O809 O 1.02053 0.56598 0.5355 0.0
Co810 Co 0.96537 0.55164 0.50709 0.0
Co811 Co 0.97866 0.56049 0.59379 0.0
H812 H 1.04261 0.59556 0.53358 0.0
O813 O 0.12235 0.43215 0.39503 0.0
O814 O 0.1634 0.47132 0.4584 0.0
O815 O 0.14163 0.53891 0.41258 0.0
O816 O 0.09313 0.56375 0.46259 0.0
O817 O 1.00431 0.48757 0.46598 0.0
O818 O 0.9191 0.54028 0.47819 0.0
O819 O 0.97913 0.60469 0.49042 0.0
O820 O 0.94446 0.4923 0.51459 0.0
O821 O 1.00559 0.48106 0.56771 0.0
O822 O 0.95646 0.50487 0.61737 0.0
O823 O 0.93125 0.56855 0.57594 0.0
O824 O 0.97713 0.60999 0.63494 0.0
C825 C 0.13409 0.44152 0.55788 0.0
C826 C 0.13684 0.56817 0.55549 0.0
C827 C 0.1272 0.56821 0.42761 0.0
C828 C 0.15468 0.43939 0.42022 0.0
C829 C 0.94085 0.58052 0.47169 0.0
C830 C 0.9616 0.47166 0.47911 0.0
C831 C 0.97117 0.47594 0.60243 0.0
C832 C 0.94273 0.60182 0.6127 0.0
O833 O 0.16204 0.48213 0.55939 0.0
O834 O 0.0997 0.42521 0.53232 0.0
O835 O 0.09433 0.5581 0.56408 0.0
O836 O 0.1523 0.54318 0.52555 0.0
Co837 Co 0.62936 0.9822 0.51339 0.0
Co838 Co 0.63045 0.98585 0.42548 0.0
Co839 Co 0.56044 0.02802 0.50182 0.0
O840 O 0.58466 0.98184 0.4783 0.0
H841 H 0.55987 0.95342 0.47423 0.0
O842 O 0.53698 0.07474 0.52498 0.0
Co843 Co 0.49344 0.0793 0.49191 0.0
Co844 Co 0.49309 0.07088 0.58044 0.0
H845 H 0.56235 0.10269 0.52987 0.0
O846 O 0.63338 0.9373 0.38111 0.0
O847 O 0.67087 0.97064 0.4487 0.0
O848 O 0.65443 0.04182 0.40317 0.0
O849 O 0.60589 0.06818 0.44968 0.0
O850 O 0.51489 0.99535 0.45219 0.0
O851 O 0.45849 0.08894 0.45929 0.0
O852 O 0.52057 0.13719 0.49475 0.0
O853 O 0.46023 1.01758 0.4822 0.0
O854 O 0.51422 0.9874 0.55365 0.0
O855 O 0.46621 1.01385 0.60165 0.0
O856 O 0.45215 0.08504 0.55795 0.0
O857 O 0.49221 0.12136 0.62285 0.0
C858 C 0.63306 0.93776 0.54628 0.0
C859 C 0.64798 0.06983 0.54611 0.0
C860 C 0.64024 0.07131 0.41566 0.0
C861 C 0.66347 0.94137 0.40778 0.0
C862 C 0.48795 0.12881 0.46905 0.0
C863 C 0.47342 0.98904 0.45759 0.0
C864 C 0.47932 0.98375 0.58718 0.0
C865 C 0.46132 0.11612 0.59666 0.0
O866 O 0.66405 0.97743 0.55023 0.0
O867 O 0.60154 0.92573 0.51766 0.0
O868 O 0.60561 0.06041 0.55211 0.0
O869 O 0.6632 0.0444 0.51663 0.0
C870 C 0.19251 0.18017 0.38831 0.0
C871 C 0.22638 0.17891 0.34878 0.0
C872 C 0.16102 0.14267 0.40944 0.0
C873 C 0.16113 0.10178 0.39158 0.0
H874 H 0.18992 0.2104 0.40264 0.0
H875 H 0.13505 0.14574 0.43843 0.0
S876 S 0.24137 0.08057 0.28624 0.0
N877 N 0.25802 0.13337 0.2918 0.0
N878 N 0.19753 0.06255 0.33001 0.0
C879 C 0.19472 0.10005 0.35167 0.0
C880 C 0.22769 0.13863 0.33088 0.0
C881 C 0.993 0.17474 0.36071 0.0
C882 C 0.94565 0.15866 0.37282 0.0
C883 C 1.01661 0.15297 0.3706 0.0
C884 C 0.99343 0.11456 0.39272 0.0
H885 H 1.01189 0.20461 0.3444 0.0
H886 H 1.05296 0.16606 0.36075 0.0
S887 S 0.86937 0.05819 0.42884 0.0
N888 N 0.87662 0.10122 0.40595 0.0
N889 N 0.92042 0.06077 0.42467 0.0
C890 C 0.94605 0.09789 0.40375 0.0
C891 C 0.92233 0.11989 0.39396 0.0
C892 C 0.93041 0.9019 0.34812 0.0
C893 C 0.90722 0.85637 0.34328 0.0
C894 C 0.96291 0.9258 0.38221 0.0
C895 C 0.97392 0.9058 0.4142 0.0
H896 H 0.9236 0.91951 0.32527 0.0
H897 H 0.97955 0.96062 0.38344 0.0
S898 S 0.92295 0.78736 0.41792 0.0
N899 N 0.89834 0.79229 0.37455 0.0
N900 N 0.95796 0.83703 0.43861 0.0
C901 C 0.9507 0.86035 0.41027 0.0
C902 C 0.91799 0.83586 0.37502 0.0
C903 C 0.17505 0.82952 0.50393 0.0
C904 C 0.1393 0.78757 0.50504 0.0
C905 C 0.1643 0.86464 0.50872 0.0
C906 C 0.11865 0.85594 0.51496 0.0
H907 H 0.209 0.83343 0.48943 0.0
H908 H 0.1903 0.89628 0.5018 0.0
S909 S 1.0106 0.74934 0.55897 0.0
N910 N 0.06083 0.78798 0.53561 0.0
N911 N 1.04215 0.79624 0.53477 0.0
C912 C 0.08582 0.81204 0.52991 0.0
C913 C 0.10031 0.78359 0.53903 0.0
C914 C 0.11814 0.86878 0.64944 0.0
C915 C 0.15183 0.89539 0.68079 0.0
C916 C 0.09252 0.88538 0.63328 0.0
C917 C 0.10248 0.92941 0.6452 0.0
H918 H 0.11404 0.83619 0.63455 0.0
H919 H 0.06797 0.86507 0.60783 0.0
S920 S 0.17527 1.00715 0.74128 0.0
N921 N 0.18415 0.96353 0.73489 0.0
N922 N 0.13746 0.99515 0.70328 0.0
C923 C 0.13016 0.95375 0.68368 0.0
C924 C 0.15507 0.93665 0.70124 0.0
C925 C 0.19886 0.14386 0.64407 0.0
C926 C 0.21484 0.18939 0.65274 0.0
C927 C 0.16468 0.11702 0.61265 0.0
C928 C 0.14516 0.13408 0.58678 0.0
H929 H 0.21304 0.12849 0.66138 0.0
H930 H 0.15385 0.08241 0.60817 0.0
S931 S 0.17481 0.25101 0.59448 0.0
N932 N 0.20747 0.24997 0.63157 0.0
N933 N 0.14532 0.2001 0.5718 0.0
C934 C 0.16141 0.17954 0.59408 0.0
C935 C 0.19556 0.20687 0.62691 0.0
C936 C 0.94537 0.21372 0.53653 0.0
C937 C 0.98326 0.25459 0.53616 0.0
C938 C 0.95246 0.17602 0.5243 0.0
C939 C 0.99565 0.17935 0.50342 0.0
H940 H 0.91276 0.21105 0.55555 0.0
H941 H 0.92588 0.14576 0.53528 0.0
S942 S 0.0868 0.27378 0.44588 0.0
N943 N 1.04986 0.29177 0.47857 0.0
N944 N 0.06626 0.22261 0.45453 0.0
C945 C 1.02683 0.21798 0.48425 0.0
C946 C 1.01838 0.2553 0.49763 0.0
C947 C 0.89139 0.87696 0.63034 0.0
C948 C 0.90088 0.86511 0.67173 0.0
C949 C 0.92318 0.91343 0.60616 0.0
C950 C 0.96531 0.94133 0.62364 0.0
H951 H 0.85914 0.8577 0.61608 0.0
H952 H 0.91438 0.9201 0.57389 0.0
S953 S 1.00734 0.92537 0.73083 0.0
N954 N 0.95787 0.88351 0.72621 0.0
N955 N 1.01361 0.95413 0.68682 0.0
C956 C 0.97466 0.93013 0.66567 0.0
C957 C 0.94375 0.89168 0.68791 0.0
C958 C 0.358 0.17183 0.15553 0.0
C959 C 0.37219 0.20396 0.1981 0.0
C960 C 0.38293 0.14722 0.12986 0.0
C961 C 0.4242 0.15361 0.14455 0.0
H962 H 0.32712 0.16526 0.14189 0.0
H963 H 0.37021 0.12376 0.0974 0.0
S964 S 0.47653 0.23256 0.25372 0.0
N965 N 0.43093 0.2392 0.25321 0.0
N966 N 0.47648 0.19461 0.20642 0.0
C967 C 0.43816 0.18526 0.18727 0.0
C968 C 0.41282 0.20975 0.21336 0.0
C969 C 0.91275 0.41739 0.17518 0.0
C970 C 0.88357 0.37423 0.1584 0.0
C971 C 0.94716 0.44436 0.14143 0.0
C972 C 0.95318 0.4293 0.08957 0.0
H973 H 0.91109 0.42946 0.21513 0.0
H974 H 0.97106 0.47589 0.15663 0.0
S975 S 0.8802 0.32218 0.025 0.0
N976 N 0.85936 0.32031 0.08522 0.0
N977 N 0.92288 0.37052 0.02241 0.0
C978 C 0.92159 0.38764 0.07198 0.0
C979 C 0.88712 0.36028 0.10612 0.0
C980 C 0.67951 0.93302 0.1371 0.0
C981 C 0.69793 0.90459 0.11045 0.0
C982 C 0.644 0.93553 0.12073 0.0
C983 C 0.62539 0.91008 0.0764 0.0
H984 H 0.694 0.95495 0.16986 0.0
H985 H 0.63278 0.95948 0.14209 0.0
S986 S 0.65633 0.82464 0.99838 0.0
N987 N 0.69081 0.84577 0.04207 0.0
N988 N 0.62476 0.85146 0.00987 0.0
C989 C 0.64135 0.87922 0.05135 0.0
C990 C 0.67728 0.87613 0.06883 0.0
C991 C 0.18081 0.7141 0.1512 0.0
C992 C 0.21082 0.70142 0.16515 0.0
C993 C 0.14848 0.68646 0.11881 0.0
C994 C 0.1441 0.64435 0.09872 0.0
H995 H 0.18145 0.74548 0.16618 0.0
H996 H 0.12609 0.69823 0.11041 0.0
S997 S 0.21636 0.59582 0.12078 0.0
N998 N 0.23557 0.64433 0.15418 0.0
N999 N 0.17451 0.59204 0.09392 0.0
C1000 C 0.17452 0.63137 0.11157 0.0
C1001 C 0.20775 0.65982 0.14458 0.0
C1002 C 0.41727 0.83598 0.8789 0.0
C1003 C 0.39575 0.85216 0.85487 0.0
C1004 C 0.45147 0.8635 0.90908 0.0
C1005 C 0.46567 0.90861 0.91713 0.0
H1006 H 0.40841 0.80165 0.87354 0.0
H1007 H 0.46741 0.84922 0.92564 0.0
S1008 S 0.41938 0.96782 0.86471 0.0
N1009 N 0.39057 0.91659 0.84255 0.0
N1010 N 0.4543 0.96818 0.89985 0.0
C1011 C 0.44331 0.92523 0.89502 0.0
C1012 C 0.40859 0.89712 0.86382 0.0
C1013 C 0.26543 0.39244 0.84069 0.0
C1014 C 0.24482 0.34664 0.82755 0.0
C1015 C 0.24035 0.41673 0.86617 0.0
C1016 C 0.19273 0.39696 0.8791 0.0
H1017 H 0.3016 0.40995 0.83123 0.0
H1018 H 0.25842 0.45152 0.87449 0.0
S1019 S 0.12143 0.27819 0.85375 0.0
N1020 N 0.17298 0.2832 0.83093 0.0
N1021 N 0.12662 0.32763 0.87626 0.0
C1022 C 0.17194 0.35124 0.86607 0.0
C1023 C 0.19749 0.3266 0.84124 0.0
C1024 C 0.68516 0.12913 0.8279 0.0
C1025 C 0.72792 0.15972 0.84141 0.0
C1026 C 0.65102 0.10442 0.86333 0.0
C1027 C 0.65811 0.10984 0.91388 0.0
H1028 H 0.67747 0.12536 0.79001 0.0
H1029 H 0.61794 0.0831 0.85191 0.0
S1030 S 0.76396 0.1846 0.96874 0.0
N1031 N 0.77566 0.19243 0.90888 0.0
N1032 N 0.7113 0.14717 0.97535 0.0
C1033 C 0.7011 0.13916 0.92744 0.0
C1034 C 0.73609 0.16371 0.89126 0.0
C1035 C 1.0158 0.73538 0.93526 0.0
C1036 C 0.98001 0.72421 0.90753 0.0
C1037 C 1.0182 0.70467 0.95891 0.0
C1038 C 0.98566 0.66133 0.95428 0.0
H1039 H 1.04312 0.76768 0.93692 0.0
H1040 H 1.04739 0.71437 0.97794 0.0
S1041 S 0.8812 0.61758 0.8932 0.0
N1042 N 0.9082 0.66852 0.88267 0.0
N1043 N 0.91294 0.61059 0.92631 0.0
C1044 C 0.9477 0.65079 0.9304 0.0
C1045 C 0.9449 0.68225 0.90706 0.0
C1046 C 0.12933 0.32054 0.0334 0.0
C1047 C 0.13388 0.32194 0.08402 0.0
C1048 C 0.12189 0.35229 0.01809 0.0
C1049 C 0.11836 0.38683 0.05275 0.0
H1050 H 0.13154 0.29477 1.00501 0.0
H1051 H 0.11855 0.34946 0.97877 0.0
S1052 S 0.12296 0.40329 0.19112 0.0
N1053 N 0.13048 0.35899 0.16967 0.0
N1054 N 0.11788 0.41943 0.14109 0.0
C1055 C 0.12215 0.3884 0.10383 0.0
C1056 C 0.12946 0.35581 0.1194 0.0
C1057 C 0.19839 0.6401 0.80452 0.0
C1058 C 0.23292 0.67574 0.82881 0.0
C1059 C 0.16004 0.61086 0.83237 0.0
C1060 C 0.15543 0.61491 0.88558 0.0
H1061 H 0.1996 0.63631 0.76389 0.0
H1062 H 0.13307 0.58567 0.8122 0.0
S1063 S 0.23733 0.70118 0.96723 0.0
N1064 N 0.26015 0.71262 0.90938 0.0
N1065 N 0.18973 0.65689 0.96102 0.0
C1066 C 0.19078 0.6492 0.90998 0.0
C1067 C 0.22902 0.6797 0.88185 0.0
C1068 C 0.42451 0.13043 0.90237 0.0
C1069 C 0.40575 0.15654 0.93457 0.0
C1070 C 0.45946 0.12477 0.9156 0.0
C1071 C 0.47707 0.14465 0.96204 0.0
H1072 H 0.41006 0.11198 0.86807 0.0
H1073 H 0.47079 0.1024 0.89004 0.0
S1074 S 0.44609 0.22456 0.05391 0.0
N1075 N 0.41123 0.20791 0.01094 0.0
N1076 N 0.47798 0.19797 0.03588 0.0
C1077 C 0.46128 0.17413 0.99251 0.0
C1078 C 0.42527 0.17978 0.97884 0.0
C1079 C 0.93957 0.34042 0.86366 0.0
C1080 C 0.91079 0.35237 0.84577 0.0
C1081 C 0.97509 0.37077 0.89052 0.0
C1082 C 0.9838 0.41485 0.90128 0.0
H1083 H 0.93505 0.30716 0.8566 0.0
H1084 H 0.996 0.35929 0.9029 0.0
S1085 S 0.91806 0.46365 0.86449 0.0
N1086 N 0.89353 0.412 0.84143 0.0
N1087 N 0.95968 0.46885 0.89289 0.0
C1088 C 0.95486 0.42739 0.88463 0.0
C1089 C 0.91873 0.39634 0.8566 0.0
C1090 C 0.74565 0.88037 0.85054 0.0
C1091 C 0.72508 0.83449 0.83819 0.0
C1092 C 0.72085 0.90475 0.87705 0.0
C1093 C 0.67349 0.88496 0.89208 0.0
H1094 H 0.78136 0.89797 0.83879 0.0
H1095 H 0.7389 0.9396 0.88447 0.0
S1096 S 0.60347 0.76578 0.876 0.0
N1097 N 0.6543 0.77074 0.84944 0.0
N1098 N 0.60822 0.81544 0.89497 0.0
C1099 C 0.65286 0.83915 0.88056 0.0
C1100 C 0.6782 0.81443 0.85504 0.0
C1101 C 0.93009 0.73031 0.15563 0.0
C1102 C 0.88277 0.70899 0.16983 0.0
C1103 C 0.95684 0.70773 0.13123 0.0
C1104 C 0.93835 0.66207 0.11816 0.0
H1105 H 0.94714 0.76519 0.16403 0.0
H1106 H 0.99282 0.72668 0.12226 0.0
S1107 S 0.81607 0.58951 0.14507 0.0
N1108 N 0.81879 0.63817 0.16784 0.0
N1109 N 0.86821 0.59658 0.12149 0.0
C1110 C 0.89092 0.64023 0.13129 0.0
C1111 C 0.86366 0.66324 0.15706 0.0
C1112 C 0.36501 0.87731 0.13621 0.0
C1113 C 0.37224 0.88168 0.18653 0.0
C1114 C 0.39923 0.90243 0.10094 0.0
C1115 C 0.44161 0.93406 0.11475 0.0
H1116 H 0.33405 0.85207 0.12296 0.0
H1117 H 0.39334 0.89546 0.06179 0.0
S1118 S 0.47628 0.96056 0.24281 0.0
N1119 N 0.42431 0.92178 0.24892 0.0
N1120 N 0.48758 0.96949 0.18333 0.0
C1121 C 0.44805 0.94066 0.16573 0.0
C1122 C 0.41366 0.91446 0.20135 0.0
C1123 C 0.68012 0.20516 0.16049 0.0
C1124 C 0.71377 0.19293 0.16582 0.0
C1125 C 0.64346 0.17768 0.13371 0.0
C1126 C 0.63792 0.13601 0.11034 0.0
H1127 H 0.68163 0.23655 0.17746 0.0
H1128 H 0.61897 0.18945 0.1319 0.0
S1129 S 0.71692 0.08776 0.11026 0.0
N1130 N 0.73943 0.13601 0.1436 0.0
N1131 N 0.67071 0.08417 0.09292 0.0
C1132 C 0.67177 0.12336 0.11408 0.0
C1133 C 0.70948 0.15171 0.14169 0.0
C1134 C 0.66796 0.6512 0.83542 0.0
C1135 C 0.7145 0.66213 0.83017 0.0
C1136 C 0.63518 0.61469 0.85696 0.0
C1137 C 0.64663 0.58895 0.87936 0.0
H1138 H 0.65617 0.67148 0.82379 0.0
H1139 H 0.6002 0.60735 0.85725 0.0
S1140 S 0.76358 0.6045 0.88148 0.0
N1141 N 0.77049 0.64316 0.8502 0.0
N1142 N 0.70851 0.57801 0.89734 0.0
C1143 C 0.69306 0.6003 0.87719 0.0
C1144 C 0.7269 0.63609 0.8516 0.0
C1145 C 0.41397 0.58492 0.85169 0.0
C1146 C 0.43847 0.61211 0.8147 0.0
C1147 C 0.436 0.57731 0.88394 0.0
C1148 C 0.4835 0.59707 0.88136 0.0
H1149 H 0.37739 0.56849 0.85502 0.0
H1150 H 0.4154 0.55451 0.91045 0.0
S1151 S 0.56313 0.67161 0.79114 0.0
N1152 N 0.51268 0.65955 0.77709 0.0
N1153 N 0.55435 0.64597 0.83942 0.0
C1154 C 0.50852 0.62612 0.8462 0.0
C1155 C 0.4859 0.63349 0.81247 0.0
C1156 C 0.42124 0.39535 0.8556 0.0
C1157 C 0.41687 0.35351 0.83384 0.0
C1158 C 0.45598 0.42366 0.88549 0.0
C1159 C 0.4892 0.41234 0.89427 0.0
H1160 H 0.39714 0.40628 0.85001 0.0
H1161 H 0.4569 0.45498 0.90159 0.0
S1162 S 0.4936 0.30643 0.84586 0.0
N1163 N 0.44896 0.30202 0.82396 0.0
N1164 N 0.51463 0.35527 0.87835 0.0
C1165 C 0.48536 0.37055 0.87247 0.0
C1166 C 0.44927 0.34128 0.84291 0.0
C1167 C 0.7448 0.40251 0.90215 0.0
C1168 C 0.77686 0.4228 0.93692 0.0
C1169 C 0.71781 0.42101 0.89524 0.0
C1170 C 0.72057 0.46001 0.92393 0.0
H1171 H 0.73686 0.36994 0.88335 0.0
H1172 H 0.69114 0.40195 0.8716 0.0
S1173 S 0.80662 0.53207 0.0094 0.0
N1174 N 0.81619 0.48846 0.99216 0.0
N1175 N 0.76383 0.52322 0.98039 0.0
C1176 C 0.75589 0.48339 0.95424 0.0
C1177 C 0.78415 0.46461 0.96078 0.0
C1178 C 0.61126 0.3216 0.06896 0.0
C1179 C 0.64514 0.34434 0.10121 0.0
C1180 C 0.60144 0.34339 0.03885 0.0
C1181 C 0.62569 0.38829 0.03972 0.0
H1182 H 0.58983 0.28744 0.07001 0.0
H1183 H 0.57189 0.32583 0.01908 0.0
S1184 S 0.72281 0.46175 0.10904 0.0
N1185 N 0.70677 0.41396 0.12624 0.0
N1186 N 0.68891 0.4537 0.068 0.0
C1187 C 0.66312 0.41033 0.06633 0.0
C1188 C 0.67279 0.38863 0.0976 0.0
C1189 C 0.72658 0.69054 0.09715 0.0
C1190 C 0.71395 0.70258 0.14877 0.0
C1191 C 0.694 0.66202 0.06431 0.0
C1192 C 0.64724 0.64396 0.08159 0.0
H1193 H 0.76203 0.70257 0.08207 0.0
H1194 H 0.7056 0.6532 0.02544 0.0
S1195 S 0.59514 0.66884 0.21053 0.0
N1196 N 0.64997 0.6972 0.21303 0.0
N1197 N 0.59002 0.64277 0.15258 0.0
C1198 C 0.63414 0.65667 0.13236 0.0
C1199 C 0.667 0.68611 0.16547 0.0
C1200 C 0.51575 0.76061 1.00113 0.0
C1201 C 0.47005 0.74941 0.99922 0.0
C1202 C 0.53004 0.72887 1.00066 0.0
C1203 C 0.49928 0.6849 0.99779 0.0
H1204 H 0.53937 0.79381 0.01052 0.0
H1205 H 0.56471 0.73945 1.00674 0.0
S1206 S 0.3816 0.63896 0.96824 0.0
N1207 N 0.39948 0.69183 0.97305 0.0
N1208 N 0.4242 0.63157 0.97923 0.0
C1209 C 0.45577 0.6731 0.98648 0.0
C1210 C 0.4422 0.70569 0.98385 0.0
C1211 C 0.37731 0.38442 0.14724 0.0
C1212 C 0.39308 0.37494 0.18544 0.0
C1213 C 0.40739 0.41098 0.11059 0.0
C1214 C 0.45449 0.43065 0.11162 0.0
H1215 H 0.34149 0.36966 0.1441 0.0
H1216 H 0.39379 0.41467 0.08005 0.0
S1217 S 0.51397 0.41935 0.20455 0.0
N1218 N 0.46003 0.38939 0.22194 0.0
N1219 N 0.51535 0.4402 0.155 0.0
C1220 C 0.47054 0.42325 0.15081 0.0
C1221 C 0.44028 0.39542 0.18722 0.0
C1222 C 0.90597 0.68872 0.69769 0.0
C1223 C 0.86727 0.6847 0.67949 0.0
C1224 C 0.92922 0.66238 0.67578 0.0
C1225 C 0.91567 0.62935 0.63398 0.0
H1226 H 0.91897 0.71289 0.72956 0.0
H1227 H 0.95852 0.66819 0.69245 0.0
S1228 S 0.81608 0.60319 0.57099 0.0
N1229 N 0.81652 0.64325 0.61591 0.0
N1230 N 0.85962 0.59446 0.57565 0.0
C1231 C 0.87704 0.6247 0.61517 0.0
C1232 C 0.8533 0.6519 0.63743 0.0
C1233 C 0.42878 0.90294 0.68312 0.0
C1234 C 0.38977 0.86966 0.66318 0.0
C1235 C 0.45861 0.93864 0.65744 0.0
C1236 C 0.4514 0.94255 0.61009 0.0
H1237 H 0.43611 0.9017 0.71945 0.0
H1238 H 0.48717 0.9638 0.67528 0.0
S1239 S 0.35632 0.86355 0.53932 0.0
N1240 N 0.34714 0.84247 0.59158 0.0
N1241 N 0.40258 0.90946 0.54388 0.0
C1242 C 0.41301 0.90929 0.58929 0.0
C1243 C 0.38246 0.87297 0.61557 0.0
C1244 C 0.16736 0.41644 0.66391 0.0
C1245 C 0.19924 0.40075 0.63818 0.0
C1246 C 0.14087 0.42447 0.63752 0.0
C1247 C 0.14374 0.41528 0.58476 0.0
H1248 H 0.16525 0.4258 0.70444 0.0
H1249 H 0.12092 0.44138 0.65813 0.0
S1250 S 0.2115 0.36314 0.50002 0.0
N1251 N 0.22548 0.36921 0.55666 0.0
N1252 N 0.17328 0.38223 0.50836 0.0
C1253 C 0.17 0.39379 0.55923 0.0
C1254 C 0.19822 0.38675 0.58568 0.0
C1255 C 0.75542 0.15808 0.60179 0.0
C1256 C 0.73859 0.179 0.64534 0.0
C1257 C 0.72646 0.1234 0.56974 0.0
C1258 C 0.679 0.10868 0.57847 0.0
H1259 H 0.79132 0.16838 0.59208 0.0
H1260 H 0.74155 0.10794 0.53787 0.0
S1261 S 0.61711 0.15715 0.68126 0.0
N1262 N 0.6705 0.18497 0.69103 0.0
N1263 N 0.61708 0.12162 0.63094 0.0
C1264 C 0.6619 0.1314 0.61957 0.0
C1265 C 0.69125 0.16607 0.65261 0.0
C1266 C 0.90144 0.41726 0.36316 0.0
C1267 C 0.88369 0.37264 0.36637 0.0
C1268 C 0.92523 0.44886 0.40068 0.0
C1269 C 0.93249 0.43736 0.44312 0.0
H1270 H 0.89757 0.42812 0.33085 0.0
H1271 H 0.93875 0.48264 0.39597 0.0
S1272 S 0.89507 0.32582 0.46985 0.0
N1273 N 0.8761 0.31894 0.41579 0.0
N1274 N 0.92157 0.37867 0.48611 0.0
C1275 C 0.91569 0.39314 0.44693 0.0
C1276 C 0.89123 0.36071 0.40857 0.0
C1277 C 0.71757 0.85832 0.3827 0.0
C1278 C 0.74262 0.86367 0.33367 0.0
C1279 C 0.69423 0.88445 0.4078 0.0
C1280 C 0.69369 0.91729 0.38527 0.0
H1281 H 0.71562 0.83342 0.40203 0.0
H1282 H 0.67526 0.87785 0.44466 0.0
S1283 S 0.75292 0.94575 0.25817 0.0
N1284 N 0.76483 0.90637 0.26485 0.0
N1285 N 0.72088 0.95306 0.3105 0.0
C1286 C 0.71849 0.92293 0.33664 0.0
C1287 C 0.7428 0.8971 0.31153 0.0
C1288 C 0.20131 0.68831 0.4083 0.0
C1289 C 0.21194 0.68631 0.35527 0.0
C1290 C 0.17211 0.65062 0.43167 0.0
C1291 C 0.15218 0.60929 0.40323 0.0
H1292 H 0.2169 0.7188 0.43201 0.0
H1293 H 0.1667 0.65361 0.47233 0.0
S1294 S 0.16329 0.58708 0.26338 0.0
N1295 N 0.19503 0.63948 0.27534 0.0
N1296 N 0.14241 0.56993 0.31901 0.0
C1297 C 0.16095 0.60742 0.3504 0.0
C1298 C 0.19003 0.64544 0.32665 0.0
C1299 C 0.5165 0.24149 0.44367 0.0
C1300 C 0.48835 0.23373 0.40743 0.0
C1301 C 0.51406 0.20757 0.46558 0.0
C1302 C 0.48498 0.16431 0.45036 0.0
H1303 H 0.54104 0.27405 0.45479 0.0
H1304 H 0.53613 0.2153 0.49371 0.0
S1305 S 0.40243 0.12709 0.35838 0.0
N1306 N 0.42828 0.18012 0.35961 0.0
N1307 N 0.42517 0.11595 0.3986 0.0
C1308 C 0.45547 0.15625 0.41529 0.0
C1309 C 0.45703 0.19104 0.39414 0.0
C1310 C 0.64918 0.89624 0.65398 0.0
C1311 C 0.63012 0.85141 0.63955 0.0
C1312 C 0.65054 0.92389 0.6229 0.0
C1313 C 0.63259 0.90746 0.5766 0.0
H1314 H 0.66397 0.91 0.689 0.0
H1315 H 0.6654 0.95838 0.63552 0.0
S1316 S 0.57993 0.79198 0.52189 0.0
N1317 N 0.59374 0.79137 0.57637 0.0
N1318 N 0.59573 0.84338 0.51766 0.0
C1319 C 0.6132 0.86247 0.56195 0.0
C1320 C 0.61212 0.83438 0.59357 0.0
C1321 C 0.70326 0.18979 0.38847 0.0
C1322 C 0.72426 0.18583 0.33833 0.0
C1323 C 0.67437 0.15288 0.41302 0.0
C1324 C 0.66545 0.11051 0.38847 0.0
H1325 H 0.71016 0.22162 0.40939 0.0
H1326 H 0.66036 0.15763 0.45204 0.0
S1327 S 0.70635 0.08189 0.255 0.0
N1328 N 0.72954 0.13523 0.26377 0.0
N1329 N 0.6765 0.06714 0.30944 0.0
C1330 C 0.68454 0.10629 0.33772 0.0
C1331 C 0.71354 0.14347 0.31288 0.0
C1332 C 0.86058 0.57439 0.38989 0.0
C1333 C 0.85352 0.61149 0.40951 0.0
C1334 C 0.8932 0.56743 0.40661 0.0
C1335 C 0.919 0.59665 0.44461 0.0
H1336 H 0.83967 0.5499 0.36274 0.0
H1337 H 0.89629 0.53747 0.39192 0.0
S1338 S 0.91531 0.70032 0.50463 0.0
N1339 N 0.87793 0.68004 0.46422 0.0
N1340 N 0.93713 0.66536 0.49879 0.0
C1341 C 0.91428 0.63519 0.46212 0.0
C1342 C 0.88183 0.64287 0.44388 0.0
C1343 C 0.37514 0.91562 0.38229 0.0
C1344 C 0.37544 0.87458 0.37511 0.0
C1345 C 0.40622 0.95187 0.40965 0.0
C1346 C 0.44012 0.94933 0.43009 0.0
H1347 H 0.35144 0.9204 0.36543 0.0
H1348 H 0.40442 0.98252 0.4135 0.0
S1349 S 0.4546 0.84956 0.42549 0.0
N1350 N 0.41121 0.83338 0.394 0.0
N1351 N 0.47113 0.90204 0.44318 0.0
C1352 C 0.441 0.90866 0.42351 0.0
C1353 C 0.40844 0.87129 0.39662 0.0
C1354 C 0.18811 0.3445 0.35628 0.0
C1355 C 0.23563 0.3611 0.35592 0.0
C1356 C 0.16304 0.36948 0.37739 0.0
C1357 C 0.18307 0.41292 0.40107 0.0
H1358 H 0.16964 0.31153 0.33938 0.0
H1359 H 0.12704 0.35422 0.37513 0.0
S1360 S 0.30621 0.47455 0.409 0.0
N1361 N 0.30145 0.42649 0.37986 0.0
N1362 N 0.25456 0.47162 0.42112 0.0
C1363 C 0.23034 0.43008 0.40145 0.0
C1364 C 0.25624 0.40493 0.37874 0.0
C1365 C 0.36309 0.15007 0.65148 0.0
C1366 C 0.3848 0.19583 0.66315 0.0
C1367 C 0.38718 0.1248 0.62759 0.0
C1368 C 0.43469 0.14357 0.61484 0.0
H1369 H 0.32687 0.13332 0.66131 0.0
H1370 H 0.36849 0.08997 0.6209 0.0
S1371 S 0.50858 0.26169 0.63469 0.0
N1372 N 0.45752 0.2584 0.65724 0.0
N1373 N 0.50215 0.21151 0.61458 0.0
C1374 C 0.45671 0.18922 0.6255 0.0
C1375 C 0.43214 0.21502 0.64878 0.0
C1376 C 0.86947 0.37829 0.65558 0.0
C1377 C 0.88878 0.35439 0.66968 0.0
C1378 C 0.89626 0.41663 0.63322 0.0
C1379 C 0.94397 0.43339 0.62356 0.0
H1380 H 0.83318 0.3676 0.66251 0.0
H1381 H 0.87926 0.43354 0.62364 0.0
S1382 S 1.0124 0.38751 0.65931 0.0
N1383 N 0.95973 0.35369 0.67653 0.0
N1384 N 1.00931 0.42426 0.63302 0.0
C1385 C 0.96381 0.41006 0.63745 0.0
C1386 C 0.93655 0.37119 0.66085 0.0
C1387 C 0.22874 0.63674 0.64 0.0
C1388 C 0.23162 0.67891 0.64491 0.0
C1389 C 0.19861 0.60166 0.61047 0.0
C1390 C 0.1685 0.60649 0.58593 0.0
H1391 H 0.2499 0.6304 0.65931 0.0
H1392 H 0.19816 0.57015 0.60786 0.0
S1393 S 0.16231 0.70931 0.584 0.0
N1394 N 0.20354 0.72354 0.61819 0.0
N1395 N 0.14289 0.65634 0.56827 0.0
C1396 C 0.17025 0.64802 0.59068 0.0
C1397 C 0.20281 0.68446 0.61858 0.0
loop_
_geom_bond_atom_site_label_1
_geom_bond_atom_site_label_2
_geom_bond_distance
_geom_bond_site_symmetry_2
_ccdc_geom_bond_type
Eu0 N29 2.600 . S
Eu0 N35 2.562 . S
Eu0 O44 2.462 . S
Eu0 O45 2.373 . S
Eu0 O47 2.432 . S
Eu0 O48 2.291 . S
Eu0 O52 2.335 . S
Eu0 O55 2.372 . S
Eu0 C64 2.787 . S
C1 N2 1.365 . S
C1 C4 1.405 . S
C1 C8 1.448 . S
N2 C1 1.365 . S
N2 C5 1.319 . S
N2 Eu11 2.600 . S
C3 C5 1.397 . S
C3 C6 1.367 . S
C3 H23 0.931 . S
C4 C1 1.405 . S
C4 C6 1.403 . S
C4 C10 1.439 . S
C5 N2 1.319 . S
C5 C3 1.397 . S
C5 H16 0.930 . S
C6 C3 1.367 . S
C6 C4 1.403 . S
C6 H27 0.929 . S
C7 C8 1.430 . S
C7 C9 1.387 . S
C7 C13 1.404 . S
C8 C1 1.448 . S
C8 C7 1.430 . S
C8 N12 1.351 . S
C9 C7 1.387 . S
C9 C10 1.374 . S
C9 H24 0.931 . S
C10 C4 1.439 . S
C10 C9 1.374 . S
C10 H25 0.931 . S
Eu11 N2 2.600 . S
Eu11 N12 2.562 . S
Eu11 O46 2.335 . S
Eu11 O49 2.372 . S
Eu11 O50 2.462 . S
Eu11 O51 2.373 . S
Eu11 O53 2.432 . S
Eu11 O54 2.291 . S
Eu11 C75 2.787 . S
N12 C8 1.351 . S
N12 Eu11 2.562 . S
N12 C14 1.325 . S
C13 C7 1.404 . S
C13 C15 1.366 . S
C13 H21 0.930 . S
C14 N12 1.325 . S
C14 C15 1.416 . S
C14 H20 0.929 . S
C15 C13 1.366 . S
C15 C14 1.416 . S
C15 H17 0.930 . S
H16 C5 0.930 . S
H17 C15 0.930 . S
H18 C33 0.930 . S
H19 C40 0.930 . S
H20 C14 0.929 . S
H21 C13 0.930 . S
H22 C36 0.929 . S
H23 C3 0.931 . S
H24 C9 0.931 . S
H25 C10 0.931 . S
H26 C31 0.931 . S
H27 C6 0.929 . S
H28 C39 0.930 1_556 S
N29 Eu0 2.600 . S
N29 C30 1.365 . S
N29 C33 1.319 . S
C30 N29 1.365 . S
C30 C32 1.405 . S
C30 C38 1.448 . S
C31 H26 0.931 . S
C31 C33 1.397 . S
C31 C34 1.367 . S
C32 C30 1.405 . S
C32 C34 1.403 . S
C32 C65 1.439 . S
C33 H18 0.930 . S
C33 N29 1.319 . S
C33 C31 1.397 . S
C34 C31 1.367 . S
C34 C32 1.403 . S
C34 H41 0.929 . S
N35 Eu0 2.562 . S
N35 C36 1.325 . S
N35 C38 1.351 . S
C36 H22 0.929 . S
C36 N35 1.325 . S
C36 C40 1.416 . S
C37 C38 1.430 . S
C37 C39 1.404 . S
C37 C66 1.387 . S
C38 C30 1.448 . S
C38 N35 1.351 . S
C38 C37 1.430 . S
C39 H28 0.930 1_554 S
C39 C37 1.404 . S
C39 C40 1.366 . S
C40 H19 0.930 . S
C40 C36 1.416 . S
C40 C39 1.366 . S
H41 C34 0.929 . S
H42 C65 0.931 . S
H43 C66 0.931 1_556 S
O44 Eu0 2.462 . S
O44 C64 1.252 . S
O45 Eu0 2.373 . S
O45 C56 1.249 . S
O46 Eu11 2.335 . S
O46 C56 1.264 . S
O47 Eu0 2.432 . S
O47 C64 1.268 . S
O48 Eu0 2.291 . S
O48 C63 1.255 . S
O49 Eu11 2.372 . S
O49 C63 1.257 . S
O50 Eu11 2.462 . S
O50 C75 1.252 . S
O51 Eu11 2.373 . S
O51 C67 1.249 . S
O52 Eu0 2.335 . S
O52 C67 1.264 . S
O53 Eu11 2.432 . S
O53 C75 1.268 . S
O54 Eu11 2.291 . S
O54 C74 1.255 . S
O55 Eu0 2.372 . S
O55 C74 1.257 . S
C56 O45 1.249 . S
C56 O46 1.264 . S
C57 C60 1.382 . S
C57 C62 1.390 . S
C57 C64 1.506 . S
C58 C59 1.398 . S
C58 C62 1.392 . S
C59 C58 1.398 . S
C59 C61 1.372 . S
C59 H76 0.931 . S
C60 C57 1.382 . S
C60 C61 1.390 . S
C60 H77 0.931 . S
C61 C59 1.372 . S
C61 C60 1.390 . S
C61 H78 0.929 . S
C62 C57 1.390 . S
C62 C58 1.392 . S
C62 H79 0.930 . S
C63 O48 1.255 . S
C63 O49 1.257 . S
C64 Eu0 2.787 . S
C64 O44 1.252 . S
C64 O47 1.268 . S
C64 C57 1.506 . S
C65 C32 1.439 . S
C65 H42 0.931 . S
C65 C66 1.374 . S
C66 C37 1.387 . S
C66 H43 0.931 1_554 S
C66 C65 1.374 . S
C67 O51 1.249 . S
C67 O52 1.264 . S
C68 C71 1.382 . S
C68 C72 1.390 . S
C68 C75 1.506 . S
C69 C70 1.398 . S
C69 C72 1.392 . S
C70 C69 1.398 . S
C70 C73 1.372 . S
C70 H80 0.931 . S
C71 C68 1.382 . S
C71 C73 1.390 . S
C71 H81 0.931 . S
C72 C68 1.390 . S
C72 C69 1.392 . S
C72 H82 0.930 . S
C73 C70 1.372 . S
C73 C71 1.390 . S
C73 H83 0.929 . S
C74 O54 1.255 . S
C74 O55 1.257 . S
C75 Eu11 2.787 . S
C75 O50 1.252 . S
C75 O53 1.268 . S
C75 C68 1.506 . S
H76 C59 0.931 . S
H77 C60 0.931 . S
H78 C61 0.929 . S
H79 C62 0.930 . S
H80 C70 0.931 . S
H81 C71 0.931 . S
H82 C72 0.930 . S
H83 C73 0.929 . S
Eu84 N113 2.600 . S
Eu84 N119 2.562 . S
Eu84 O128 2.462 . S
Eu84 O129 2.373 . S
Eu84 O131 2.432 . S
Eu84 O132 2.291 . S
Eu84 O136 2.335 . S
Eu84 O139 2.372 . S
Eu84 C148 2.787 . S
C85 N86 1.365 . S
C85 C88 1.405 . S
C85 C92 1.448 . S
N86 C85 1.365 . S
N86 C89 1.319 . S
N86 Eu95 2.600 . S
C87 C89 1.397 . S
C87 C90 1.367 . S
C87 H107 0.931 . S
C88 C85 1.405 . S
C88 C90 1.403 . S
C88 C94 1.439 . S
C89 N86 1.319 . S
C89 C87 1.397 . S
C89 H100 0.930 . S
C90 C87 1.367 . S
C90 C88 1.403 . S
C90 H111 0.929 . S
C91 C92 1.430 . S
C91 C93 1.387 . S
C91 C97 1.404 . S
C92 C85 1.448 . S
C92 C91 1.430 . S
C92 N96 1.351 . S
C93 C91 1.387 . S
C93 C94 1.374 . S
C93 H108 0.931 . S
C94 C88 1.439 . S
C94 C93 1.374 . S
C94 H109 0.931 . S
Eu95 N86 2.600 . S
Eu95 N96 2.562 . S
Eu95 O130 2.335 . S
Eu95 O133 2.372 . S
Eu95 O134 2.462 . S
Eu95 O135 2.373 . S
Eu95 O137 2.432 . S
Eu95 O138 2.291 . S
Eu95 C159 2.787 . S
N96 C92 1.351 . S
N96 Eu95 2.562 . S
N96 C98 1.325 . S
C97 C91 1.404 . S
C97 C99 1.366 . S
C97 H105 0.930 . S
C98 N96 1.325 . S
C98 C99 1.416 . S
C98 H104 0.929 . S
C99 C97 1.366 . S
C99 C98 1.416 . S
C99 H101 0.930 . S
H100 C89 0.930 . S
H101 C99 0.930 . S
H102 C117 0.930 . S
H103 C124 0.930 . S
H104 C98 0.929 . S
H105 C97 0.930 . S
H106 C120 0.929 . S
H107 C87 0.931 . S
H108 C93 0.931 . S
H109 C94 0.931 . S
H110 C115 0.931 . S
H111 C90 0.929 . S
H112 C123 0.930 . S
N113 Eu84 2.600 . S
N113 C114 1.365 . S
N113 C117 1.319 . S
C114 N113 1.365 . S
C114 C116 1.405 . S
C114 C122 1.448 . S
C115 H110 0.931 . S
C115 C117 1.397 . S
C115 C118 1.367 . S
C116 C114 1.405 . S
C116 C118 1.403 . S
C116 C149 1.439 . S
C117 H102 0.930 . S
C117 N113 1.319 . S
C117 C115 1.397 . S
C118 C115 1.367 . S
C118 C116 1.403 . S
C118 H125 0.929 . S
N119 Eu84 2.562 . S
N119 C120 1.325 . S
N119 C122 1.351 . S
C120 H106 0.929 . S
C120 N119 1.325 . S
C120 C124 1.416 . S
C121 C122 1.430 . S
C121 C123 1.404 . S
C121 C150 1.387 . S
C122 C114 1.448 . S
C122 N119 1.351 . S
C122 C121 1.430 . S
C123 H112 0.930 . S
C123 C121 1.404 . S
C123 C124 1.366 . S
C124 H103 0.930 . S
C124 C120 1.416 . S
C124 C123 1.366 . S
H125 C118 0.929 . S
H126 C149 0.931 . S
H127 C150 0.931 . S
O128 Eu84 2.462 . S
O128 C148 1.252 . S
O129 Eu84 2.373 . S
O129 C140 1.249 . S
O130 Eu95 2.335 . S
O130 C140 1.264 . S
O131 Eu84 2.432 . S
O131 C148 1.268 . S
O132 Eu84 2.291 . S
O132 C147 1.255 . S
O133 Eu95 2.372 . S
O133 C147 1.257 . S
O134 Eu95 2.462 . S
O134 C159 1.252 . S
O135 Eu95 2.373 . S
O135 C151 1.249 . S
O136 Eu84 2.335 . S
O136 C151 1.264 . S
O137 Eu95 2.432 . S
O137 C159 1.268 . S
O138 Eu95 2.291 . S
O138 C158 1.255 . S
O139 Eu84 2.372 . S
O139 C158 1.257 . S
C140 O129 1.249 . S
C140 O130 1.264 . S
C141 C144 1.382 . S
C141 C146 1.390 . S
C141 C148 1.506 . S
C142 C143 1.398 . S
C142 C146 1.392 . S
C143 C142 1.398 . S
C143 C145 1.372 . S
C143 H160 0.931 . S
C144 C141 1.382 . S
C144 C145 1.390 . S
C144 H161 0.931 . S
C145 C143 1.372 . S
C145 C144 1.390 . S
C145 H162 0.929 . S
C146 C141 1.390 . S
C146 C142 1.392 . S
C146 H163 0.930 . S
C147 O132 1.255 . S
C147 O133 1.257 . S
C148 Eu84 2.787 . S
C148 O128 1.252 . S
C148 O131 1.268 . S
C148 C141 1.506 . S
C149 C116 1.439 . S
C149 H126 0.931 . S
C149 C150 1.374 . S
C150 C121 1.387 . S
C150 H127 0.931 . S
C150 C149 1.374 . S
C151 O135 1.249 . S
C151 O136 1.264 . S
C152 C155 1.382 . S
C152 C156 1.390 . S
C152 C159 1.506 . S
C153 C154 1.398 . S
C153 C156 1.392 . S
C154 C153 1.398 . S
C154 C157 1.372 . S
C154 H164 0.931 . S
C155 C152 1.382 . S
C155 C157 1.390 . S
C155 H165 0.931 . S
C156 C152 1.390 . S
C156 C153 1.392 . S
C156 H166 0.930 . S
C157 C154 1.372 . S
C157 C155 1.390 . S
C157 H167 0.929 . S
C158 O138 1.255 . S
C158 O139 1.257 . S
C159 Eu95 2.787 . S
C159 O134 1.252 . S
C159 O137 1.268 . S
C159 C152 1.506 . S
H160 C143 0.931 . S
H161 C144 0.931 . S
H162 C145 0.929 . S
H163 C146 0.930 . S
H164 C154 0.931 . S
H165 C155 0.931 . S
H166 C156 0.930 . S
H167 C157 0.929 . S
Eu168 N197 2.600 . S
Eu168 N203 2.562 . S
Eu168 O212 2.462 . S
Eu168 O213 2.373 . S
Eu168 O215 2.432 . S
Eu168 O216 2.291 . S
Eu168 O220 2.335 . S
Eu168 O223 2.372 . S
Eu168 C232 2.787 . S
C169 N170 1.365 . S
C169 C172 1.405 . S
C169 C176 1.448 . S
N170 C169 1.365 . S
N170 C173 1.319 . S
N170 Eu179 2.600 . S
C171 C173 1.397 . S
C171 C174 1.367 . S
C171 H191 0.931 . S
C172 C169 1.405 . S
C172 C174 1.403 . S
C172 C178 1.439 . S
C173 N170 1.319 . S
C173 C171 1.397 . S
C173 H184 0.930 . S
C174 C171 1.367 . S
C174 C172 1.403 . S
C174 H195 0.929 . S
C175 C176 1.430 . S
C175 C177 1.387 . S
C175 C181 1.404 . S
C176 C169 1.448 . S
C176 C175 1.430 . S
C176 N180 1.351 . S
C177 C175 1.387 . S
C177 C178 1.374 . S
C177 H192 0.931 1_554 S
C178 C172 1.439 . S
C178 C177 1.374 . S
C178 H193 0.931 . S
Eu179 N170 2.600 . S
Eu179 N180 2.562 . S
Eu179 O214 2.335 . S
Eu179 O217 2.372 . S
Eu179 O218 2.462 . S
Eu179 O219 2.373 . S
Eu179 O221 2.432 . S
Eu179 O222 2.291 . S
Eu179 C243 2.787 . S
N180 C176 1.351 . S
N180 Eu179 2.562 . S
N180 C182 1.325 . S
C181 C175 1.404 . S
C181 C183 1.366 . S
C181 H189 0.930 1_554 S
C182 N180 1.325 . S
C182 C183 1.416 . S
C182 H188 0.929 . S
C183 C181 1.366 . S
C183 C182 1.416 . S
C183 H185 0.930 . S
H184 C173 0.930 . S
H185 C183 0.930 . S
H186 C201 0.930 . S
H187 C208 0.930 . S
H188 C182 0.929 . S
H189 C181 0.930 1_556 S
H190 C204 0.929 . S
H191 C171 0.931 . S
H192 C177 0.931 1_556 S
H193 C178 0.931 . S
H194 C199 0.931 . S
H195 C174 0.929 . S
H196 C207 0.930 . S
N197 Eu168 2.600 . S
N197 C198 1.365 . S
N197 C201 1.319 . S
C198 N197 1.365 . S
C198 C200 1.405 . S
C198 C206 1.448 . S
C199 H194 0.931 . S
C199 C201 1.397 . S
C199 C202 1.367 . S
C200 C198 1.405 . S
C200 C202 1.403 . S
C200 C233 1.439 . S
C201 H186 0.930 . S
C201 N197 1.319 . S
C201 C199 1.397 . S
C202 C199 1.367 . S
C202 C200 1.403 . S
C202 H209 0.929 . S
N203 Eu168 2.562 . S
N203 C204 1.325 . S
N203 C206 1.351 . S
C204 H190 0.929 . S
C204 N203 1.325 . S
C204 C208 1.416 . S
C205 C206 1.430 . S
C205 C207 1.404 . S
C205 C234 1.387 . S
C206 C198 1.448 . S
C206 N203 1.351 . S
C206 C205 1.430 . S
C207 H196 0.930 . S
C207 C205 1.404 . S
C207 C208 1.366 . S
C208 H187 0.930 . S
C208 C204 1.416 . S
C208 C207 1.366 . S
H209 C202 0.929 . S
H210 C233 0.931 . S
H211 C234 0.931 . S
O212 Eu168 2.462 . S
O212 C232 1.252 . S
O213 Eu168 2.373 . S
O213 C224 1.249 . S
O214 Eu179 2.335 . S
O214 C224 1.264 . S
O215 Eu168 2.432 . S
O215 C232 1.268 . S
O216 Eu168 2.291 . S
O216 C231 1.255 . S
O217 Eu179 2.372 . S
O217 C231 1.257 . S
O218 Eu179 2.462 . S
O218 C243 1.252 . S
O219 Eu179 2.373 . S
O219 C235 1.249 . S
O220 Eu168 2.335 . S
O220 C235 1.264 . S
O221 Eu179 2.432 . S
O221 C243 1.268 . S
O222 Eu179 2.291 . S
O222 C242 1.255 . S
O223 Eu168 2.372 . S
O223 C242 1.257 . S
C224 O213 1.249 . S
C224 O214 1.264 . S
C225 C228 1.382 . S
C225 C230 1.390 . S
C225 C232 1.506 . S
C226 C227 1.398 . S
C226 C230 1.392 . S
C227 C226 1.398 . S
C227 C229 1.372 . S
C227 H244 0.931 . S
C228 C225 1.382 . S
C228 C229 1.390 . S
C228 H245 0.931 . S
C229 C227 1.372 . S
C229 C228 1.390 . S
C229 H246 0.929 . S
C230 C225 1.390 . S
C230 C226 1.392 . S
C230 H247 0.930 . S
C231 O216 1.255 . S
C231 O217 1.257 . S
C232 Eu168 2.787 . S
C232 O212 1.252 . S
C232 O215 1.268 . S
C232 C225 1.506 . S
C233 C200 1.439 . S
C233 H210 0.931 . S
C233 C234 1.374 . S
C234 C205 1.387 . S
C234 H211 0.931 . S
C234 C233 1.374 . S
C235 O219 1.249 . S
C235 O220 1.264 . S
C236 C239 1.382 . S
C236 C240 1.390 . S
C236 C243 1.506 . S
C237 C238 1.398 . S
C237 C240 1.392 . S
C238 C237 1.398 . S
C238 C241 1.372 . S
C238 H248 0.931 . S
C239 C236 1.382 . S
C239 C241 1.390 . S
C239 H249 0.931 . S
C240 C236 1.390 . S
C240 C237 1.392 . S
C240 H250 0.930 . S
C241 C238 1.372 . S
C241 C239 1.390 . S
C241 H251 0.929 . S
C242 O222 1.255 . S
C242 O223 1.257 . S
C243 Eu179 2.787 . S
C243 O218 1.252 . S
C243 O221 1.268 . S
C243 C236 1.506 . S
H244 C227 0.931 . S
H245 C228 0.931 . S
H246 C229 0.929 . S
H247 C230 0.930 . S
H248 C238 0.931 . S
H249 C239 0.931 . S
H250 C240 0.930 . S
H251 C241 0.929 . S
Eu252 N281 2.600 . S
Eu252 N287 2.562 . S
Eu252 O296 2.462 . S
Eu252 O297 2.373 . S
Eu252 O299 2.432 . S
Eu252 O300 2.291 . S
Eu252 O304 2.335 . S
Eu252 O307 2.372 . S
Eu252 C316 2.787 . S
C253 N254 1.365 . S
C253 C256 1.405 . S
C253 C260 1.448 . S
N254 C253 1.365 . S
N254 C257 1.319 . S
N254 Eu263 2.600 . S
C255 C257 1.397 . S
C255 C258 1.367 . S
C255 H275 0.931 . S
C256 C253 1.405 . S
C256 C258 1.403 . S
C256 C262 1.439 . S
C257 N254 1.319 . S
C257 C255 1.397 . S
C257 H268 0.930 . S
C258 C255 1.367 . S
C258 C256 1.403 . S
C258 H279 0.929 . S
C259 C260 1.430 . S
C259 C261 1.387 . S
C259 C265 1.404 . S
C260 C253 1.448 . S
C260 C259 1.430 . S
C260 N264 1.351 . S
C261 C259 1.387 . S
C261 C262 1.374 . S
C261 H276 0.931 . S
C262 C256 1.439 . S
C262 C261 1.374 . S
C262 H277 0.931 . S
Eu263 N254 2.600 . S
Eu263 N264 2.562 . S
Eu263 O298 2.335 . S
Eu263 O301 2.372 . S
Eu263 O302 2.462 . S
Eu263 O303 2.373 . S
Eu263 O305 2.432 . S
Eu263 O306 2.291 . S
Eu263 C327 2.787 . S
N264 C260 1.351 . S
N264 Eu263 2.562 . S
N264 C266 1.325 . S
C265 C259 1.404 . S
C265 C267 1.366 . S
C265 H273 0.930 . S
C266 N264 1.325 . S
C266 C267 1.416 . S
C266 H272 0.929 . S
C267 C265 1.366 . S
C267 C266 1.416 . S
C267 H269 0.930 . S
H268 C257 0.930 . S
H269 C267 0.930 . S
H270 C285 0.930 . S
H271 C292 0.930 . S
H272 C266 0.929 . S
H273 C265 0.930 . S
H274 C288 0.929 . S
H275 C255 0.931 . S
H276 C261 0.931 . S
H277 C262 0.931 . S
H278 C283 0.931 . S
H279 C258 0.929 . S
H280 C291 0.930 . S
N281 Eu252 2.600 . S
N281 C282 1.365 . S
N281 C285 1.319 . S
C282 N281 1.365 . S
C282 C284 1.405 . S
C282 C290 1.448 . S
C283 H278 0.931 . S
C283 C285 1.397 . S
C283 C286 1.367 . S
C284 C282 1.405 . S
C284 C286 1.403 . S
C284 C317 1.439 . S
C285 H270 0.930 . S
C285 N281 1.319 . S
C285 C283 1.397 . S
C286 C283 1.367 . S
C286 C284 1.403 . S
C286 H293 0.929 . S
N287 Eu252 2.562 . S
N287 C288 1.325 . S
N287 C290 1.351 . S
C288 H274 0.929 . S
C288 N287 1.325 . S
C288 C292 1.416 . S
C289 C290 1.430 . S
C289 C291 1.404 . S
C289 C318 1.387 . S
C290 C282 1.448 . S
C290 N287 1.351 . S
C290 C289 1.430 . S
C291 H280 0.930 . S
C291 C289 1.404 . S
C291 C292 1.366 . S
C292 H271 0.930 . S
C292 C288 1.416 . S
C292 C291 1.366 . S
H293 C286 0.929 . S
H294 C317 0.931 . S
H295 C318 0.931 . S
O296 Eu252 2.462 . S
O296 C316 1.252 . S
O297 Eu252 2.373 . S
O297 C308 1.249 . S
O298 Eu263 2.335 . S
O298 C308 1.264 . S
O299 Eu252 2.432 . S
O299 C316 1.268 . S
O300 Eu252 2.291 . S
O300 C315 1.255 . S
O301 Eu263 2.372 . S
O301 C315 1.257 . S
O302 Eu263 2.462 . S
O302 C327 1.252 . S
O303 Eu263 2.373 . S
O303 C319 1.249 . S
O304 Eu252 2.335 . S
O304 C319 1.264 . S
O305 Eu263 2.432 . S
O305 C327 1.268 . S
O306 Eu263 2.291 . S
O306 C326 1.255 . S
O307 Eu252 2.372 . S
O307 C326 1.257 . S
C308 O297 1.249 . S
C308 O298 1.264 . S
C309 C312 1.382 . S
C309 C314 1.390 . S
C309 C316 1.506 . S
C310 C311 1.398 . S
C310 C314 1.392 . S
C311 C310 1.398 . S
C311 C313 1.372 . S
C311 H328 0.931 . S
C312 C309 1.382 . S
C312 C313 1.390 . S
C312 H329 0.931 . S
C313 C311 1.372 . S
C313 C312 1.390 . S
C313 H330 0.929 . S
C314 C309 1.390 . S
C314 C310 1.392 . S
C314 H331 0.930 . S
C315 O300 1.255 . S
C315 O301 1.257 . S
C316 Eu252 2.787 . S
C316 O296 1.252 . S
C316 O299 1.268 . S
C316 C309 1.506 . S
C317 C284 1.439 . S
C317 H294 0.931 . S
C317 C318 1.374 . S
C318 C289 1.387 . S
C318 H295 0.931 . S
C318 C317 1.374 . S
C319 O303 1.249 . S
C319 O304 1.264 . S
C320 C323 1.382 . S
C320 C324 1.390 . S
C320 C327 1.506 . S
C321 C322 1.398 . S
C321 C324 1.392 . S
C322 C321 1.398 . S
C322 C325 1.372 . S
C322 H332 0.931 . S
C323 C320 1.382 . S
C323 C325 1.390 . S
C323 H333 0.931 . S
C324 C320 1.390 . S
C324 C321 1.392 . S
C324 H334 0.930 . S
C325 C322 1.372 . S
C325 C323 1.390 . S
C325 H335 0.929 . S
C326 O306 1.255 . S
C326 O307 1.257 . S
C327 Eu263 2.787 . S
C327 O302 1.252 . S
C327 O305 1.268 . S
C327 C320 1.506 . S
H328 C311 0.931 . S
H329 C312 0.931 . S
H330 C313 0.929 . S
H331 C314 0.930 . S
H332 C322 0.931 . S
H333 C323 0.931 . S
H334 C324 0.930 . S
H335 C325 0.929 . S
Eu336 N365 2.600 . S
Eu336 N371 2.562 . S
Eu336 O380 2.462 . S
Eu336 O381 2.373 . S
Eu336 O383 2.432 . S
Eu336 O384 2.291 . S
Eu336 O388 2.335 . S
Eu336 O391 2.372 . S
Eu336 C400 2.787 . S
C337 N338 1.365 . S
C337 C340 1.405 . S
C337 C344 1.448 . S
N338 C337 1.365 . S
N338 C341 1.319 . S
N338 Eu347 2.600 . S
C339 C341 1.397 . S
C339 C342 1.367 . S
C339 H359 0.931 . S
C340 C337 1.405 . S
C340 C342 1.403 . S
C340 C346 1.439 . S
C341 N338 1.319 . S
C341 C339 1.397 . S
C341 H352 0.930 . S
C342 C339 1.367 . S
C342 C340 1.403 . S
C342 H363 0.929 . S
C343 C344 1.430 . S
C343 C345 1.387 . S
C343 C349 1.404 . S
C344 C337 1.448 . S
C344 C343 1.430 . S
C344 N348 1.351 . S
C345 C343 1.387 . S
C345 C346 1.374 . S
C345 H360 0.931 . S
C346 C340 1.439 . S
C346 C345 1.374 . S
C346 H361 0.931 . S
Eu347 N338 2.600 . S
Eu347 N348 2.562 . S
Eu347 O382 2.335 . S
Eu347 O385 2.372 . S
Eu347 O386 2.462 . S
Eu347 O387 2.373 . S
Eu347 O389 2.432 . S
Eu347 O390 2.291 . S
Eu347 C411 2.787 . S
N348 C344 1.351 . S
N348 Eu347 2.562 . S
N348 C350 1.325 . S
C349 C343 1.404 . S
C349 C351 1.366 . S
C349 H357 0.930 . S
C350 N348 1.325 . S
C350 C351 1.416 . S
C350 H356 0.929 . S
C351 C349 1.366 . S
C351 C350 1.416 . S
C351 H353 0.930 . S
H352 C341 0.930 . S
H353 C351 0.930 . S
H354 C369 0.930 . S
H355 C376 0.930 . S
H356 C350 0.929 . S
H357 C349 0.930 . S
H358 C372 0.929 . S
H359 C339 0.931 . S
H360 C345 0.931 . S
H361 C346 0.931 . S
H362 C367 0.931 . S
H363 C342 0.929 . S
H364 C375 0.930 . S
N365 Eu336 2.600 . S
N365 C366 1.365 . S
N365 C369 1.319 . S
C366 N365 1.365 . S
C366 C368 1.405 . S
C366 C374 1.448 . S
C367 H362 0.931 . S
C367 C369 1.397 . S
C367 C370 1.367 . S
C368 C366 1.405 . S
C368 C370 1.403 . S
C368 C401 1.439 . S
C369 H354 0.930 . S
C369 N365 1.319 . S
C369 C367 1.397 . S
C370 C367 1.367 . S
C370 C368 1.403 . S
C370 H377 0.929 . S
N371 Eu336 2.562 . S
N371 C372 1.325 . S
N371 C374 1.351 . S
C372 H358 0.929 . S
C372 N371 1.325 . S
C372 C376 1.416 . S
C373 C374 1.430 . S
C373 C375 1.404 . S
C373 C402 1.387 . S
C374 C366 1.448 . S
C374 N371 1.351 . S
C374 C373 1.430 . S
C375 H364 0.930 . S
C375 C373 1.404 . S
C375 C376 1.366 . S
C376 H355 0.930 . S
C376 C372 1.416 . S
C376 C375 1.366 . S
H377 C370 0.929 . S
H378 C401 0.931 . S
H379 C402 0.931 . S
O380 Eu336 2.462 . S
O380 C400 1.252 . S
O381 Eu336 2.373 . S
O381 C392 1.249 . S
O382 Eu347 2.335 . S
O382 C392 1.264 . S
O383 Eu336 2.432 . S
O383 C400 1.268 . S
O384 Eu336 2.291 . S
O384 C399 1.255 . S
O385 Eu347 2.372 . S
O385 C399 1.257 . S
O386 Eu347 2.462 . S
O386 C411 1.252 . S
O387 Eu347 2.373 . S
O387 C403 1.249 . S
O388 Eu336 2.335 . S
O388 C403 1.264 . S
O389 Eu347 2.432 . S
O389 C411 1.268 . S
O390 Eu347 2.291 . S
O390 C410 1.255 . S
O391 Eu336 2.372 . S
O391 C410 1.257 . S
C392 O381 1.249 . S
C392 O382 1.264 . S
C393 C396 1.382 . S
C393 C398 1.390 . S
C393 C400 1.506 . S
C394 C395 1.398 . S
C394 C398 1.392 . S
C395 C394 1.398 . S
C395 C397 1.372 . S
C395 H412 0.931 . S
C396 C393 1.382 . S
C396 C397 1.390 . S
C396 H413 0.931 . S
C397 C395 1.372 . S
C397 C396 1.390 . S
C397 H414 0.929 . S
C398 C393 1.390 . S
C398 C394 1.392 . S
C398 H415 0.930 . S
C399 O384 1.255 . S
C399 O385 1.257 . S
C400 Eu336 2.787 . S
C400 O380 1.252 . S
C400 O383 1.268 . S
C400 C393 1.506 . S
C401 C368 1.439 . S
C401 H378 0.931 . S
C401 C402 1.374 . S
C402 C373 1.387 . S
C402 H379 0.931 . S
C402 C401 1.374 . S
C403 O387 1.249 . S
C403 O388 1.264 . S
C404 C407 1.382 . S
C404 C408 1.390 . S
C404 C411 1.506 . S
C405 C406 1.398 . S
C405 C408 1.392 . S
C406 C405 1.398 . S
C406 C409 1.372 . S
C406 H416 0.931 . S
C407 C404 1.382 . S
C407 C409 1.390 . S
C407 H417 0.931 . S
C408 C404 1.390 . S
C408 C405 1.392 . S
C408 H418 0.930 . S
C409 C406 1.372 . S
C409 C407 1.390 . S
C409 H419 0.929 . S
C410 O390 1.255 . S
C410 O391 1.257 . S
C411 Eu347 2.787 . S
C411 O386 1.252 . S
C411 O389 1.268 . S
C411 C404 1.506 . S
H412 C395 0.931 . S
H413 C396 0.931 . S
H414 C397 0.929 . S
H415 C398 0.930 . S
H416 C406 0.931 . S
H417 C407 0.931 . S
H418 C408 0.930 . S
H419 C409 0.929 . S
Eu420 N449 2.600 . S
Eu420 N455 2.562 . S
Eu420 O464 2.462 . S
Eu420 O465 2.373 . S
Eu420 O467 2.432 . S
Eu420 O468 2.291 . S
Eu420 O472 2.335 . S
Eu420 O475 2.372 . S
Eu420 C484 2.787 . S
C421 N422 1.365 . S
C421 C424 1.405 . S
C421 C428 1.448 . S
N422 C421 1.365 . S
N422 C425 1.319 . S
N422 Eu431 2.600 . S
C423 C425 1.397 . S
C423 C426 1.367 . S
C423 H443 0.931 . S
C424 C421 1.405 . S
C424 C426 1.403 . S
C424 C430 1.439 . S
C425 N422 1.319 . S
C425 C423 1.397 . S
C425 H436 0.930 . S
C426 C423 1.367 . S
C426 C424 1.403 . S
C426 H447 0.929 . S
C427 C428 1.430 . S
C427 C429 1.387 . S
C427 C433 1.404 . S
C428 C421 1.448 . S
C428 C427 1.430 . S
C428 N432 1.351 . S
C429 C427 1.387 . S
C429 C430 1.374 . S
C429 H444 0.931 . S
C430 C424 1.439 . S
C430 C429 1.374 . S
C430 H445 0.931 . S
Eu431 N422 2.600 . S
Eu431 N432 2.562 . S
Eu431 O466 2.335 . S
Eu431 O469 2.372 . S
Eu431 O470 2.462 . S
Eu431 O471 2.373 . S
Eu431 O473 2.432 . S
Eu431 O474 2.291 . S
Eu431 C495 2.787 . S
N432 C428 1.351 . S
N432 Eu431 2.562 . S
N432 C434 1.325 . S
C433 C427 1.404 . S
C433 C435 1.366 . S
C433 H441 0.930 . S
C434 N432 1.325 . S
C434 C435 1.416 . S
C434 H440 0.929 . S
C435 C433 1.366 . S
C435 C434 1.416 . S
C435 H437 0.930 . S
H436 C425 0.930 . S
H437 C435 0.930 . S
H438 C453 0.930 . S
H439 C460 0.930 . S
H440 C434 0.929 . S
H441 C433 0.930 . S
H442 C456 0.929 . S
H443 C423 0.931 . S
H444 C429 0.931 . S
H445 C430 0.931 . S
H446 C451 0.931 . S
H447 C426 0.929 . S
H448 C459 0.930 1_554 S
N449 Eu420 2.600 . S
N449 C450 1.365 . S
N449 C453 1.319 . S
C450 N449 1.365 . S
C450 C452 1.405 . S
C450 C458 1.448 . S
C451 H446 0.931 . S
C451 C453 1.397 . S
C451 C454 1.367 . S
C452 C450 1.405 . S
C452 C454 1.403 . S
C452 C485 1.439 . S
C453 H438 0.930 . S
C453 N449 1.319 . S
C453 C451 1.397 . S
C454 C451 1.367 . S
C454 C452 1.403 . S
C454 H461 0.929 . S
N455 Eu420 2.562 . S
N455 C456 1.325 . S
N455 C458 1.351 . S
C456 H442 0.929 . S
C456 N455 1.325 . S
C456 C460 1.416 . S
C457 C458 1.430 . S
C457 C459 1.404 . S
C457 C486 1.387 . S
C458 C450 1.448 . S
C458 N455 1.351 . S
C458 C457 1.430 . S
C459 H448 0.930 1_556 S
C459 C457 1.404 . S
C459 C460 1.366 . S
C460 H439 0.930 . S
C460 C456 1.416 . S
C460 C459 1.366 . S
H461 C454 0.929 . S
H462 C485 0.931 . S
H463 C486 0.931 1_554 S
O464 Eu420 2.462 . S
O464 C484 1.252 . S
O465 Eu420 2.373 . S
O465 C476 1.249 . S
O466 Eu431 2.335 . S
O466 C476 1.264 . S
O467 Eu420 2.432 . S
O467 C484 1.268 . S
O468 Eu420 2.291 . S
O468 C483 1.255 . S
O469 Eu431 2.372 . S
O469 C483 1.257 . S
O470 Eu431 2.462 . S
O470 C495 1.252 . S
O471 Eu431 2.373 . S
O471 C487 1.249 . S
O472 Eu420 2.335 . S
O472 C487 1.264 . S
O473 Eu431 2.432 . S
O473 C495 1.268 . S
O474 Eu431 2.291 . S
O474 C494 1.255 . S
O475 Eu420 2.372 . S
O475 C494 1.257 . S
C476 O465 1.249 . S
C476 O466 1.264 . S
C477 C480 1.382 . S
C477 C482 1.390 . S
C477 C484 1.506 . S
C478 C479 1.398 . S
C478 C482 1.392 . S
C479 C478 1.398 . S
C479 C481 1.372 . S
C479 H496 0.931 . S
C480 C477 1.382 . S
C480 C481 1.390 . S
C480 H497 0.931 . S
C481 C479 1.372 . S
C481 C480 1.390 . S
C481 H498 0.929 . S
C482 C477 1.390 . S
C482 C478 1.392 . S
C482 H499 0.930 . S
C483 O468 1.255 . S
C483 O469 1.257 . S
C484 Eu420 2.787 . S
C484 O464 1.252 . S
C484 O467 1.268 . S
C484 C477 1.506 . S
C485 C452 1.439 . S
C485 H462 0.931 . S
C485 C486 1.374 . S
C486 C457 1.387 . S
C486 H463 0.931 1_556 S
C486 C485 1.374 . S
C487 O471 1.249 . S
C487 O472 1.264 . S
C488 C491 1.382 . S
C488 C492 1.390 . S
C488 C495 1.506 . S
C489 C490 1.398 . S
C489 C492 1.392 . S
C490 C489 1.398 . S
C490 C493 1.372 . S
C490 H500 0.931 . S
C491 C488 1.382 . S
C491 C493 1.390 . S
C491 H501 0.931 . S
C492 C488 1.390 . S
C492 C489 1.392 . S
C492 H502 0.930 . S
C493 C490 1.372 . S
C493 C491 1.390 . S
C493 H503 0.929 . S
C494 O474 1.255 . S
C494 O475 1.257 . S
C495 Eu431 2.787 . S
C495 O470 1.252 . S
C495 O473 1.268 . S
C495 C488 1.506 . S
H496 C479 0.931 . S
H497 C480 0.931 . S
H498 C481 0.929 . S
H499 C482 0.930 . S
H500 C490 0.931 . S
H501 C491 0.931 . S
H502 C492 0.930 . S
H503 C493 0.929 . S
Eu504 N533 2.600 . S
Eu504 N539 2.562 . S
Eu504 O548 2.462 . S
Eu504 O549 2.373 . S
Eu504 O551 2.432 . S
Eu504 O552 2.291 . S
Eu504 O556 2.335 . S
Eu504 O559 2.372 . S
Eu504 C568 2.787 . S
C505 N506 1.365 . S
C505 C508 1.405 . S
C505 C512 1.448 . S
N506 C505 1.365 . S
N506 C509 1.319 . S
N506 Eu515 2.600 . S
C507 C509 1.397 . S
C507 C510 1.367 . S
C507 H527 0.931 . S
C508 C505 1.405 . S
C508 C510 1.403 . S
C508 C514 1.439 . S
C509 N506 1.319 . S
C509 C507 1.397 . S
C509 H520 0.930 . S
C510 C507 1.367 . S
C510 C508 1.403 . S
C510 H531 0.929 . S
C511 C512 1.430 . S
C511 C513 1.387 . S
C511 C517 1.404 . S
C512 C505 1.448 . S
C512 C511 1.430 . S
C512 N516 1.351 . S
C513 C511 1.387 . S
C513 C514 1.374 . S
C513 H528 0.931 . S
C514 C508 1.439 . S
C514 C513 1.374 . S
C514 H529 0.931 . S
Eu515 N506 2.600 . S
Eu515 N516 2.562 . S
Eu515 O550 2.335 . S
Eu515 O553 2.372 . S
Eu515 O554 2.462 . S
Eu515 O555 2.373 . S
Eu515 O557 2.432 . S
Eu515 O558 2.291 . S
Eu515 C579 2.787 . S
N516 C512 1.351 . S
N516 Eu515 2.562 . S
N516 C518 1.325 . S
C517 C511 1.404 . S
C517 C519 1.366 . S
C517 H525 0.930 . S
C518 N516 1.325 . S
C518 C519 1.416 . S
C518 H524 0.929 . S
C519 C517 1.366 . S
C519 C518 1.416 . S
C519 H521 0.930 . S
H520 C509 0.930 . S
H521 C519 0.930 . S
H522 C537 0.930 . S
H523 C544 0.930 . S
H524 C518 0.929 . S
H525 C517 0.930 . S
H526 C540 0.929 . S
H527 C507 0.931 . S
H528 C513 0.931 . S
H529 C514 0.931 . S
H530 C535 0.931 . S
H531 C510 0.929 . S
H532 C543 0.930 . S
N533 Eu504 2.600 . S
N533 C534 1.365 . S
N533 C537 1.319 . S
C534 N533 1.365 . S
C534 C536 1.405 . S
C534 C542 1.448 . S
C535 H530 0.931 . S
C535 C537 1.397 . S
C535 C538 1.367 . S
C536 C534 1.405 . S
C536 C538 1.403 . S
C536 C569 1.439 . S
C537 H522 0.930 . S
C537 N533 1.319 . S
C537 C535 1.397 . S
C538 C535 1.367 . S
C538 C536 1.403 . S
C538 H545 0.929 . S
N539 Eu504 2.562 . S
N539 C540 1.325 . S
N539 C542 1.351 . S
C540 H526 0.929 . S
C540 N539 1.325 . S
C540 C544 1.416 . S
C541 C542 1.430 . S
C541 C543 1.404 . S
C541 C570 1.387 . S
C542 C534 1.448 . S
C542 N539 1.351 . S
C542 C541 1.430 . S
C543 H532 0.930 . S
C543 C541 1.404 . S
C543 C544 1.366 . S
C544 H523 0.930 . S
C544 C540 1.416 . S
C544 C543 1.366 . S
H545 C538 0.929 . S
H546 C569 0.931 . S
H547 C570 0.931 . S
O548 Eu504 2.462 . S
O548 C568 1.252 . S
O549 Eu504 2.373 . S
O549 C560 1.249 . S
O550 Eu515 2.335 . S
O550 C560 1.264 . S
O551 Eu504 2.432 . S
O551 C568 1.268 . S
O552 Eu504 2.291 . S
O552 C567 1.255 . S
O553 Eu515 2.372 . S
O553 C567 1.257 . S
O554 Eu515 2.462 . S
O554 C579 1.252 . S
O555 Eu515 2.373 . S
O555 C571 1.249 . S
O556 Eu504 2.335 . S
O556 C571 1.264 . S
O557 Eu515 2.432 . S
O557 C579 1.268 . S
O558 Eu515 2.291 . S
O558 C578 1.255 . S
O559 Eu504 2.372 . S
O559 C578 1.257 . S
C560 O549 1.249 . S
C560 O550 1.264 . S
C561 C564 1.382 . S
C561 C566 1.390 . S
C561 C568 1.506 . S
C562 C563 1.398 . S
C562 C566 1.392 . S
C563 C562 1.398 . S
C563 C565 1.372 . S
C563 H580 0.931 . S
C564 C561 1.382 . S
C564 C565 1.390 . S
C564 H581 0.931 . S
C565 C563 1.372 . S
C565 C564 1.390 . S
C565 H582 0.929 . S
C566 C561 1.390 . S
C566 C562 1.392 . S
C566 H583 0.930 . S
C567 O552 1.255 . S
C567 O553 1.257 . S
C568 Eu504 2.787 . S
C568 O548 1.252 . S
C568 O551 1.268 . S
C568 C561 1.506 . S
C569 C536 1.439 . S
C569 H546 0.931 . S
C569 C570 1.374 . S
C570 C541 1.387 . S
C570 H547 0.931 . S
C570 C569 1.374 . S
C571 O555 1.249 . S
C571 O556 1.264 . S
C572 C575 1.382 . S
C572 C576 1.390 . S
C572 C579 1.506 . S
C573 C574 1.398 . S
C573 C576 1.392 . S
C574 C573 1.398 . S
C574 C577 1.372 . S
C574 H584 0.931 . S
C575 C572 1.382 . S
C575 C577 1.390 . S
C575 H585 0.931 . S
C576 C572 1.390 . S
C576 C573 1.392 . S
C576 H586 0.930 . S
C577 C574 1.372 . S
C577 C575 1.390 . S
C577 H587 0.929 . S
C578 O558 1.255 . S
C578 O559 1.257 . S
C579 Eu515 2.787 . S
C579 O554 1.252 . S
C579 O557 1.268 . S
C579 C572 1.506 . S
H580 C563 0.931 . S
H581 C564 0.931 . S
H582 C565 0.929 . S
H583 C566 0.930 . S
H584 C574 0.931 . S
H585 C575 0.931 . S
H586 C576 0.930 . S
H587 C577 0.929 . S
Eu588 N617 2.600 . S
Eu588 N623 2.562 . S
Eu588 O632 2.462 . S
Eu588 O633 2.373 . S
Eu588 O635 2.432 . S
Eu588 O636 2.291 . S
Eu588 O640 2.335 . S
Eu588 O643 2.372 . S
Eu588 C652 2.787 . S
C589 N590 1.365 . S
C589 C592 1.405 . S
C589 C596 1.448 . S
N590 C589 1.365 . S
N590 C593 1.319 . S
N590 Eu599 2.600 . S
C591 C593 1.397 . S
C591 C594 1.367 . S
C591 H611 0.931 . S
C592 C589 1.405 . S
C592 C594 1.403 . S
C592 C598 1.439 . S
C593 N590 1.319 . S
C593 C591 1.397 . S
C593 H604 0.930 . S
C594 C591 1.367 . S
C594 C592 1.403 . S
C594 H615 0.929 . S
C595 C596 1.430 . S
C595 C597 1.387 . S
C595 C601 1.404 . S
C596 C589 1.448 . S
C596 C595 1.430 . S
C596 N600 1.351 . S
C597 C595 1.387 . S
C597 C598 1.374 . S
C597 H612 0.931 1_556 S
C598 C592 1.439 . S
C598 C597 1.374 . S
C598 H613 0.931 . S
Eu599 N590 2.600 . S
Eu599 N600 2.562 . S
Eu599 O634 2.335 . S
Eu599 O637 2.372 . S
Eu599 O638 2.462 . S
Eu599 O639 2.373 . S
Eu599 O641 2.432 . S
Eu599 O642 2.291 . S
Eu599 C663 2.787 . S
N600 C596 1.351 . S
N600 Eu599 2.562 . S
N600 C602 1.325 . S
C601 C595 1.404 . S
C601 C603 1.366 . S
C601 H609 0.930 1_556 S
C602 N600 1.325 . S
C602 C603 1.416 . S
C602 H608 0.929 . S
C603 C601 1.366 . S
C603 C602 1.416 . S
C603 H605 0.930 . S
H604 C593 0.930 . S
H605 C603 0.930 . S
H606 C621 0.930 . S
H607 C628 0.930 . S
H608 C602 0.929 . S
H609 C601 0.930 1_554 S
H610 C624 0.929 . S
H611 C591 0.931 . S
H612 C597 0.931 1_554 S
H613 C598 0.931 . S
H614 C619 0.931 . S
H615 C594 0.929 . S
H616 C627 0.930 . S
N617 Eu588 2.600 . S
N617 C618 1.365 . S
N617 C621 1.319 . S
C618 N617 1.365 . S
C618 C620 1.405 . S
C618 C626 1.448 . S
C619 H614 0.931 . S
C619 C621 1.397 . S
C619 C622 1.367 . S
C620 C618 1.405 . S
C620 C622 1.403 . S
C620 C653 1.439 . S
C621 H606 0.930 . S
C621 N617 1.319 . S
C621 C619 1.397 . S
C622 C619 1.367 . S
C622 C620 1.403 . S
C622 H629 0.929 . S
N623 Eu588 2.562 . S
N623 C624 1.325 . S
N623 C626 1.351 . S
C624 H610 0.929 . S
C624 N623 1.325 . S
C624 C628 1.416 . S
C625 C626 1.430 . S
C625 C627 1.404 . S
C625 C654 1.387 . S
C626 C618 1.448 . S
C626 N623 1.351 . S
C626 C625 1.430 . S
C627 H616 0.930 . S
C627 C625 1.404 . S
C627 C628 1.366 . S
C628 H607 0.930 . S
C628 C624 1.416 . S
C628 C627 1.366 . S
H629 C622 0.929 . S
H630 C653 0.931 . S
H631 C654 0.931 . S
O632 Eu588 2.462 . S
O632 C652 1.252 . S
O633 Eu588 2.373 . S
O633 C644 1.249 . S
O634 Eu599 2.335 . S
O634 C644 1.264 . S
O635 Eu588 2.432 . S
O635 C652 1.268 . S
O636 Eu588 2.291 . S
O636 C651 1.255 . S
O637 Eu599 2.372 . S
O637 C651 1.257 . S
O638 Eu599 2.462 . S
O638 C663 1.252 . S
O639 Eu599 2.373 . S
O639 C655 1.249 . S
O640 Eu588 2.335 . S
O640 C655 1.264 . S
O641 Eu599 2.432 . S
O641 C663 1.268 . S
O642 Eu599 2.291 . S
O642 C662 1.255 . S
O643 Eu588 2.372 . S
O643 C662 1.257 . S
C644 O633 1.249 . S
C644 O634 1.264 . S
C645 C648 1.382 . S
C645 C650 1.390 . S
C645 C652 1.506 . S
C646 C647 1.398 . S
C646 C650 1.392 . S
C647 C646 1.398 . S
C647 C649 1.372 . S
C647 H664 0.931 . S
C648 C645 1.382 . S
C648 C649 1.390 . S
C648 H665 0.931 . S
C649 C647 1.372 . S
C649 C648 1.390 . S
C649 H666 0.929 . S
C650 C645 1.390 . S
C650 C646 1.392 . S
C650 H667 0.930 . S
C651 O636 1.255 . S
C651 O637 1.257 . S
C652 Eu588 2.787 . S
C652 O632 1.252 . S
C652 O635 1.268 . S
C652 C645 1.506 . S
C653 C620 1.439 . S
C653 H630 0.931 . S
C653 C654 1.374 . S
C654 C625 1.387 . S
C654 H631 0.931 . S
C654 C653 1.374 . S
C655 O639 1.249 . S
C655 O640 1.264 . S
C656 C659 1.382 . S
C656 C660 1.390 . S
C656 C663 1.506 . S
C657 C658 1.398 . S
C657 C660 1.392 . S
C658 C657 1.398 . S
C658 C661 1.372 . S
C658 H668 0.931 . S
C659 C656 1.382 . S
C659 C661 1.390 . S
C659 H669 0.931 . S
C660 C656 1.390 . S
C660 C657 1.392 . S
C660 H670 0.930 . S
C661 C658 1.372 . S
C661 C659 1.390 . S
C661 H671 0.929 . S
C662 O642 1.255 . S
C662 O643 1.257 . S
C663 Eu599 2.787 . S
C663 O638 1.252 . S
C663 O641 1.268 . S
C663 C656 1.506 . S
H664 C647 0.931 . S
H665 C648 0.931 . S
H666 C649 0.929 . S
H667 C650 0.930 . S
H668 C658 0.931 . S
H669 C659 0.931 . S
H670 C660 0.930 . S
H671 C661 0.929 . S
Co672 O675 2.042 . S
Co672 O682 2.264 . S
Co672 O701 2.286 . S
Co672 O702 2.069 . S
Co672 O704 2.015 1_455 S
Co673 O675 2.122 . S
Co673 O681 2.073 . S
Co673 O682 2.327 . S
Co673 O683 1.976 1_455 S
Co674 O675 2.083 1_545 S
Co674 O677 2.091 1_455 S
Co674 O684 2.110 1_445 S
Co674 O685 2.146 . S
Co674 O689 2.113 . S
Co674 O703 2.141 1_445 S
O675 Co672 2.042 . S
O675 Co673 2.122 . S
O675 Co674 2.083 1_565 S
O675 H676 0.980 . S
H676 O675 0.980 . S
O677 Co674 2.091 1_655 S
O677 Co678 2.042 . S
O677 Co679 2.122 . S
O677 H680 0.980 . S
Co678 O677 2.042 . S
Co678 O686 2.286 . S
Co678 O687 2.069 . S
Co678 O688 2.015 1_655 S
Co678 O691 2.264 . S
Co679 O677 2.122 . S
Co679 O690 1.976 1_655 S
Co679 O691 2.327 . S
Co679 O692 2.073 . S
H680 O677 0.980 . S
O681 Co673 2.073 . S
O681 C696 1.245 . S
O682 Co672 2.264 . S
O682 Co673 2.327 . S
O682 C696 1.257 . S
O683 Co673 1.976 1_655 S
O683 C695 1.251 . S
O684 Co674 2.110 1_665 S
O684 C695 1.274 . S
O685 Co674 2.146 . S
O685 C698 1.246 . S
O686 Co678 2.286 . S
O686 C697 1.259 . S
O687 Co678 2.069 . S
O687 C697 1.289 . S
O688 Co678 2.015 1_455 S
O688 C698 1.257 . S
O689 Co674 2.113 . S
O689 C699 1.274 . S
O690 Co679 1.976 1_455 S
O690 C699 1.251 . S
O691 Co678 2.264 . S
O691 Co679 2.327 . S
O691 C700 1.257 . S
O692 Co679 2.073 . S
O692 C700 1.245 . S
C693 O701 1.259 . S
C693 O702 1.289 . S
C694 O703 1.246 . S
C694 O704 1.257 . S
C695 O683 1.251 . S
C695 O684 1.274 . S
C696 O681 1.245 . S
C696 O682 1.257 . S
C697 O686 1.259 . S
C697 O687 1.289 . S
C698 O685 1.246 . S
C698 O688 1.257 . S
C699 O689 1.274 . S
C699 O690 1.251 . S
C700 O691 1.257 . S
C700 O692 1.245 . S
O701 Co672 2.286 . S
O701 C693 1.259 . S
O702 Co672 2.069 . S
O702 C693 1.289 . S
O703 Co674 2.141 1_665 S
O703 C694 1.246 . S
O704 Co672 2.015 1_655 S
O704 C694 1.257 . S
Co705 O708 2.042 1_556 S
Co705 O715 2.264 1_556 S
Co705 O734 2.286 . S
Co705 O735 2.069 . S
Co705 O737 2.015 . S
Co706 O708 2.122 . S
Co706 O714 2.073 . S
Co706 O715 2.327 . S
Co706 O716 1.976 . S
Co707 O708 2.083 1_545 S
Co707 O710 2.091 1_554 S
Co707 O717 2.110 1_545 S
Co707 O718 2.146 . S
Co707 O722 2.112 1_554 S
Co707 O736 2.141 1_544 S
O708 Co705 2.042 1_554 S
O708 Co706 2.122 . S
O708 Co707 2.083 1_565 S
O708 H709 0.980 . S
H709 O708 0.980 . S
O710 Co707 2.091 1_556 S
O710 Co711 2.042 1_556 S
O710 Co712 2.122 . S
O710 H713 0.980 . S
Co711 O710 2.042 1_554 S
Co711 O719 2.286 . S
Co711 O720 2.069 . S
Co711 O721 2.015 . S
Co711 O724 2.264 1_554 S
Co712 O710 2.122 . S
Co712 O723 1.976 . S
Co712 O724 2.327 . S
Co712 O725 2.073 . S
H713 O710 0.980 . S
O714 Co706 2.073 . S
O714 C729 1.245 . S
O715 Co705 2.264 1_554 S
O715 Co706 2.327 . S
O715 C729 1.257 . S
O716 Co706 1.976 . S
O716 C728 1.251 . S
O717 Co707 2.110 1_565 S
O717 C728 1.274 . S
O718 Co707 2.146 . S
O718 C731 1.246 . S
O719 Co711 2.286 . S
O719 C730 1.259 . S
O720 Co711 2.069 . S
O720 C730 1.289 . S
O721 Co711 2.015 . S
O721 C731 1.257 . S
O722 Co707 2.112 1_556 S
O722 C732 1.274 . S
O723 Co712 1.976 . S
O723 C732 1.251 . S
O724 Co711 2.264 1_556 S
O724 Co712 2.327 . S
O724 C733 1.257 . S
O725 Co712 2.073 . S
O725 C733 1.245 . S
C726 O734 1.259 . S
C726 O735 1.289 . S
C727 O736 1.246 . S
C727 O737 1.257 . S
C728 O716 1.251 . S
C728 O717 1.274 . S
C729 O714 1.245 . S
C729 O715 1.257 . S
C730 O719 1.259 . S
C730 O720 1.289 . S
C731 O718 1.246 . S
C731 O721 1.257 . S
C732 O722 1.274 . S
C732 O723 1.251 . S
C733 O724 1.257 . S
C733 O725 1.245 . S
O734 Co705 2.286 . S
O734 C726 1.259 . S
O735 Co705 2.069 . S
O735 C726 1.289 . S
O736 Co707 2.141 1_566 S
O736 C727 1.246 . S
O737 Co705 2.015 . S
O737 C727 1.257 . S
Co738 O741 2.042 1_556 S
Co738 O748 2.264 1_556 S
Co738 O767 2.286 . S
Co738 O768 2.069 . S
Co738 O770 2.015 1_455 S
Co739 O741 2.122 . S
Co739 O747 2.073 . S
Co739 O748 2.327 . S
Co739 O749 1.976 1_455 S
Co740 O741 2.087 . S
Co740 O743 2.087 1_454 S
Co740 O750 2.111 1_455 S
Co740 O751 2.143 . S
Co740 O755 2.111 1_554 S
Co740 O769 2.143 1_454 S
O741 Co738 2.042 1_554 S
O741 Co739 2.122 . S
O741 Co740 2.087 . S
O741 H742 0.980 . S
H742 O741 0.980 . S
O743 Co740 2.087 1_656 S
O743 Co744 2.042 1_556 S
O743 Co745 2.122 . S
O743 H746 0.980 . S
Co744 O743 2.042 1_554 S
Co744 O752 2.286 . S
Co744 O753 2.069 . S
Co744 O754 2.015 1_655 S
Co744 O757 2.264 1_554 S
Co745 O743 2.122 . S
Co745 O756 1.976 1_655 S
Co745 O757 2.327 . S
Co745 O758 2.073 . S
H746 O743 0.980 . S
O747 Co739 2.073 . S
O747 C762 1.245 . S
O748 Co738 2.264 1_554 S
O748 Co739 2.327 . S
O748 C762 1.257 . S
O749 Co739 1.976 1_655 S
O749 C761 1.251 . S
O750 Co740 2.111 1_655 S
O750 C761 1.274 . S
O751 Co740 2.143 . S
O751 C764 1.246 . S
O752 Co744 2.286 . S
O752 C763 1.259 . S
O753 Co744 2.069 . S
O753 C763 1.289 . S
O754 Co744 2.015 1_455 S
O754 C764 1.257 . S
O755 Co740 2.111 1_556 S
O755 C765 1.274 . S
O756 Co745 1.976 1_455 S
O756 C765 1.251 . S
O757 Co744 2.264 1_556 S
O757 Co745 2.327 . S
O757 C766 1.257 . S
O758 Co745 2.073 . S
O758 C766 1.245 . S
C759 O767 1.259 . S
C759 O768 1.289 . S
C760 O769 1.246 . S
C760 O770 1.257 . S
C761 O749 1.251 . S
C761 O750 1.274 . S
C762 O747 1.245 . S
C762 O748 1.257 . S
C763 O752 1.259 . S
C763 O753 1.289 . S
C764 O751 1.246 . S
C764 O754 1.257 . S
C765 O755 1.274 . S
C765 O756 1.251 . S
C766 O757 1.257 . S
C766 O758 1.245 . S
O767 Co738 2.286 . S
O767 C759 1.259 . S
O768 Co738 2.069 . S
O768 C759 1.289 . S
O769 Co740 2.143 1_656 S
O769 C760 1.246 . S
O770 Co738 2.015 1_655 S
O770 C760 1.257 . S
Co771 O774 2.042 1_556 S
Co771 O781 2.264 1_556 S
Co771 O800 2.286 . S
Co771 O801 2.069 . S
Co771 O803 2.015 . S
Co772 O774 2.122 . S
Co772 O780 2.073 . S
Co772 O781 2.327 . S
Co772 O782 1.976 . S
Co773 O774 2.087 . S
Co773 O776 2.087 1_554 S
Co773 O783 2.111 . S
Co773 O784 2.143 . S
Co773 O788 2.111 1_554 S
Co773 O802 2.143 1_554 S
O774 Co771 2.042 1_554 S
O774 Co772 2.122 . S
O774 Co773 2.087 . S
O774 H775 0.980 . S
H775 O774 0.980 . S
O776 Co773 2.087 1_556 S
O776 Co777 2.042 1_556 S
O776 Co778 2.122 . S
O776 H779 0.980 . S
Co777 O776 2.042 1_554 S
Co777 O785 2.286 . S
Co777 O786 2.069 . S
Co777 O787 2.015 . S
Co777 O790 2.264 1_554 S
Co778 O776 2.122 . S
Co778 O789 1.976 . S
Co778 O790 2.327 . S
Co778 O791 2.073 . S
H779 O776 0.980 . S
O780 Co772 2.073 . S
O780 C795 1.245 . S
O781 Co771 2.264 1_554 S
O781 Co772 2.327 . S
O781 C795 1.257 . S
O782 Co772 1.976 . S
O782 C794 1.251 . S
O783 Co773 2.111 . S
O783 C794 1.274 . S
O784 Co773 2.143 . S
O784 C797 1.246 . S
O785 Co777 2.286 . S
O785 C796 1.259 . S
O786 Co777 2.069 . S
O786 C796 1.289 . S
O787 Co777 2.015 . S
O787 C797 1.257 . S
O788 Co773 2.111 1_556 S
O788 C798 1.274 . S
O789 Co778 1.976 . S
O789 C798 1.251 . S
O790 Co777 2.264 1_556 S
O790 Co778 2.327 . S
O790 C799 1.257 . S
O791 Co778 2.073 . S
O791 C799 1.245 . S
C792 O800 1.259 . S
C792 O801 1.289 . S
C793 O802 1.246 . S
C793 O803 1.257 . S
C794 O782 1.251 . S
C794 O783 1.274 . S
C795 O780 1.245 . S
C795 O781 1.257 . S
C796 O785 1.259 . S
C796 O786 1.289 . S
C797 O784 1.246 . S
C797 O787 1.257 . S
C798 O788 1.274 . S
C798 O789 1.251 . S
C799 O790 1.257 . S
C799 O791 1.245 . S
O800 Co771 2.286 . S
O800 C792 1.259 . S
O801 Co771 2.069 . S
O801 C792 1.289 . S
O802 Co773 2.143 1_556 S
O802 C793 1.246 . S
O803 Co771 2.015 . S
O803 C793 1.257 . S
Co804 O807 2.042 . S
Co804 O814 2.264 . S
Co804 O833 2.286 . S
Co804 O834 2.069 . S
Co804 O836 2.015 . S
Co805 O807 2.122 . S
Co805 O813 2.073 . S
Co805 O814 2.327 . S
Co805 O815 1.976 . S
Co806 O807 2.087 . S
Co806 O809 2.087 1_455 S
Co806 O816 2.111 . S
Co806 O817 2.143 1_455 S
Co806 O821 2.111 1_455 S
Co806 O835 2.143 . S
O807 Co804 2.042 . S
O807 Co805 2.122 . S
O807 Co806 2.087 . S
O807 H808 0.980 . S
H808 O807 0.980 . S
O809 Co806 2.087 1_655 S
O809 Co810 2.042 . S
O809 Co811 2.122 . S
O809 H812 0.980 . S
Co810 O809 2.042 . S
Co810 O818 2.286 . S
Co810 O819 2.069 . S
Co810 O820 2.015 . S
Co810 O823 2.264 . S
Co811 O809 2.122 . S
Co811 O822 1.976 . S
Co811 O823 2.327 . S
Co811 O824 2.073 . S
H812 O809 0.980 . S
O813 Co805 2.073 . S
O813 C828 1.245 . S
O814 Co804 2.264 . S
O814 Co805 2.327 . S
O814 C828 1.257 . S
O815 Co805 1.976 . S
O815 C827 1.251 . S
O816 Co806 2.111 . S
O816 C827 1.274 . S
O817 Co806 2.143 1_655 S
O817 C830 1.246 . S
O818 Co810 2.286 . S
O818 C829 1.259 . S
O819 Co810 2.069 . S
O819 C829 1.289 . S
O820 Co810 2.015 . S
O820 C830 1.257 . S
O821 Co806 2.111 1_655 S
O821 C831 1.274 . S
O822 Co811 1.976 . S
O822 C831 1.251 . S
O823 Co810 2.264 . S
O823 Co811 2.327 . S
O823 C832 1.257 . S
O824 Co811 2.073 . S
O824 C832 1.245 . S
C825 O833 1.259 . S
C825 O834 1.289 . S
C826 O835 1.246 . S
C826 O836 1.257 . S
C827 O815 1.251 . S
C827 O816 1.274 . S
C828 O813 1.245 . S
C828 O814 1.257 . S
C829 O818 1.259 . S
C829 O819 1.289 . S
C830 O817 1.246 . S
C830 O820 1.257 . S
C831 O821 1.274 . S
C831 O822 1.251 . S
C832 O823 1.257 . S
C832 O824 1.245 . S
O833 Co804 2.286 . S
O833 C825 1.259 . S
O834 Co804 2.069 . S
O834 C825 1.289 . S
O835 Co806 2.143 . S
O835 C826 1.246 . S
O836 Co804 2.015 . S
O836 C826 1.257 . S
Co837 O840 2.042 . S
Co837 O847 2.264 . S
Co837 O866 2.286 . S
Co837 O867 2.069 . S
Co837 O869 2.015 1_565 S
Co838 O840 2.122 . S
Co838 O846 2.073 . S
Co838 O847 2.327 . S
Co838 O848 1.976 1_565 S
Co839 O840 2.083 1_545 S
Co839 O842 2.091 . S
Co839 O849 2.114 . S
Co839 O850 2.142 1_545 S
Co839 O854 2.109 1_545 S
Co839 O868 2.145 . S
O840 Co837 2.042 . S
O840 Co838 2.122 . S
O840 Co839 2.083 1_565 S
O840 H841 0.980 . S
H841 O840 0.980 . S
O842 Co839 2.091 . S
O842 Co843 2.042 . S
O842 Co844 2.122 . S
O842 H845 0.980 . S
Co843 O842 2.042 . S
Co843 O851 2.286 . S
Co843 O852 2.069 . S
Co843 O853 2.015 1_545 S
Co843 O856 2.264 . S
Co844 O842 2.122 . S
Co844 O855 1.976 1_545 S
Co844 O856 2.327 . S
Co844 O857 2.073 . S
H845 O842 0.980 . S
O846 Co838 2.073 . S
O846 C861 1.245 . S
O847 Co837 2.264 . S
O847 Co838 2.327 . S
O847 C861 1.257 . S
O848 Co838 1.976 1_545 S
O848 C860 1.251 . S
O849 Co839 2.114 . S
O849 C860 1.274 . S
O850 Co839 2.142 1_565 S
O850 C863 1.246 . S
O851 Co843 2.286 . S
O851 C862 1.259 . S
O852 Co843 2.069 . S
O852 C862 1.289 . S
O853 Co843 2.015 1_565 S
O853 C863 1.257 . S
O854 Co839 2.109 1_565 S
O854 C864 1.274 . S
O855 Co844 1.976 1_565 S
O855 C864 1.251 . S
O856 Co843 2.264 . S
O856 Co844 2.327 . S
O856 C865 1.257 . S
O857 Co844 2.073 . S
O857 C865 1.245 . S
C858 O866 1.259 . S
C858 O867 1.289 . S
C859 O868 1.246 . S
C859 O869 1.257 . S
C860 O848 1.251 . S
C860 O849 1.274 . S
C861 O846 1.245 . S
C861 O847 1.257 . S
C862 O851 1.259 . S
C862 O852 1.289 . S
C863 O850 1.246 . S
C863 O853 1.257 . S
C864 O854 1.274 . S
C864 O855 1.251 . S
C865 O856 1.257 . S
C865 O857 1.245 . S
O866 Co837 2.286 . S
O866 C858 1.259 . S
O867 Co837 2.069 . S
O867 C858 1.289 . S
O868 Co839 2.145 . S
O868 C859 1.246 . S
O869 Co837 2.015 1_545 S
O869 C859 1.257 . S
C870 C871 1.369 . S
C870 C872 1.419 . S
C870 H874 0.930 . S
C871 C870 1.369 . S
C871 C880 1.429 . S
C872 C870 1.419 . S
C872 C873 1.363 . S
C872 H875 0.929 . S
C873 C872 1.363 . S
C873 C879 1.428 . S
H874 C870 0.930 . S
H875 C872 0.929 . S
S876 N877 1.613 . S
S876 N878 1.610 . S
N877 S876 1.613 . S
N877 C880 1.350 . S
N878 S876 1.610 . S
N878 C879 1.351 . S
C879 C873 1.428 . S
C879 N878 1.351 . S
C879 C880 1.434 . S
C880 C871 1.429 . S
C880 N877 1.350 . S
C880 C879 1.434 . S
C881 C882 1.369 . S
C881 C883 1.419 . S
C881 H885 0.930 . S
C882 C881 1.369 . S
C882 C891 1.429 . S
C883 C881 1.419 . S
C883 C884 1.363 . S
C883 H886 0.929 . S
C884 C883 1.363 . S
C884 C890 1.428 . S
H885 C881 0.930 . S
H886 C883 0.929 . S
S887 N888 1.613 . S
S887 N889 1.610 . S
N888 S887 1.613 . S
N888 C891 1.350 . S
N889 S887 1.610 . S
N889 C890 1.351 . S
C890 C884 1.428 . S
C890 N889 1.351 . S
C890 C891 1.434 . S
C891 C882 1.429 . S
C891 N888 1.350 . S
C891 C890 1.434 . S
C892 C893 1.369 . S
C892 C894 1.419 . S
C892 H896 0.930 . S
C893 C892 1.369 . S
C893 C902 1.429 . S
C894 C892 1.419 . S
C894 C895 1.363 . S
C894 H897 0.929 . S
C895 C894 1.363 . S
C895 C901 1.428 . S
H896 C892 0.930 . S
H897 C894 0.929 . S
S898 N899 1.613 . S
S898 N900 1.610 . S
N899 S898 1.613 . S
N899 C902 1.350 . S
N900 S898 1.610 . S
N900 C901 1.351 . S
C901 C895 1.428 . S
C901 N900 1.351 . S
C901 C902 1.434 . S
C902 C893 1.429 . S
C902 N899 1.350 . S
C902 C901 1.434 . S
C903 C904 1.369 . S
C903 C905 1.419 . S
C903 H907 0.930 . S
C904 C903 1.369 . S
C904 C913 1.429 . S
C905 C903 1.419 . S
C905 C906 1.363 . S
C905 H908 0.929 . S
C906 C905 1.363 . S
C906 C912 1.428 . S
H907 C903 0.930 . S
H908 C905 0.929 . S
S909 N910 1.613 . S
S909 N911 1.610 . S
N910 S909 1.613 . S
N910 C913 1.350 . S
N911 S909 1.610 . S
N911 C912 1.351 . S
C912 C906 1.428 . S
C912 N911 1.351 . S
C912 C913 1.434 . S
C913 C904 1.429 . S
C913 N910 1.350 . S
C913 C912 1.434 . S
C914 C915 1.369 . S
C914 C916 1.419 . S
C914 H918 0.930 . S
C915 C914 1.369 . S
C915 C924 1.429 . S
C916 C914 1.419 . S
C916 C917 1.363 . S
C916 H919 0.929 . S
C917 C916 1.363 . S
C917 C923 1.428 . S
H918 C914 0.930 . S
H919 C916 0.929 . S
S920 N921 1.613 . S
S920 N922 1.610 . S
N921 S920 1.613 . S
N921 C924 1.350 . S
N922 S920 1.610 . S
N922 C923 1.351 . S
C923 C917 1.428 . S
C923 N922 1.351 . S
C923 C924 1.434 . S
C924 C915 1.429 . S
C924 N921 1.350 . S
C924 C923 1.434 . S
C925 C926 1.369 . S
C925 C927 1.419 . S
C925 H929 0.930 . S
C926 C925 1.369 . S
C926 C935 1.429 . S
C927 C925 1.419 . S
C927 C928 1.363 . S
C927 H930 0.929 . S
C928 C927 1.363 . S
C928 C934 1.428 . S
H929 C925 0.930 . S
H930 C927 0.929 . S
S931 N932 1.613 . S
S931 N933 1.610 . S
N932 S931 1.613 . S
N932 C935 1.350 . S
N933 S931 1.610 . S
N933 C934 1.351 . S
C934 C928 1.428 . S
C934 N933 1.351 . S
C934 C935 1.434 . S
C935 C926 1.429 . S
C935 N932 1.350 . S
C935 C934 1.434 . S
C936 C937 1.369 . S
C936 C938 1.419 . S
C936 H940 0.930 . S
C937 C936 1.369 . S
C937 C946 1.429 . S
C938 C936 1.419 . S
C938 C939 1.363 . S
C938 H941 0.929 . S
C939 C938 1.363 . S
C939 C945 1.428 . S
H940 C936 0.930 . S
H941 C938 0.929 . S
S942 N943 1.613 . S
S942 N944 1.610 . S
N943 S942 1.613 . S
N943 C946 1.350 . S
N944 S942 1.610 . S
N944 C945 1.351 . S
C945 C939 1.428 . S
C945 N944 1.351 . S
C945 C946 1.434 . S
C946 C937 1.429 . S
C946 N943 1.350 . S
C946 C945 1.434 . S
C947 C948 1.369 . S
C947 C949 1.419 . S
C947 H951 0.930 . S
C948 C947 1.369 . S
C948 C957 1.429 . S
C949 C947 1.419 . S
C949 C950 1.363 . S
C949 H952 0.929 . S
C950 C949 1.363 . S
C950 C956 1.428 . S
H951 C947 0.930 . S
H952 C949 0.929 . S
S953 N954 1.613 . S
S953 N955 1.610 . S
N954 S953 1.613 . S
N954 C957 1.350 . S
N955 S953 1.610 . S
N955 C956 1.351 . S
C956 C950 1.428 . S
C956 N955 1.351 . S
C956 C957 1.434 . S
C957 C948 1.429 . S
C957 N954 1.350 . S
C957 C956 1.434 . S
C958 C959 1.369 . S
C958 C960 1.419 . S
C958 H962 0.930 . S
C959 C958 1.369 . S
C959 C968 1.429 . S
C960 C958 1.419 . S
C960 C961 1.363 . S
C960 H963 0.929 . S
C961 C960 1.363 . S
C961 C967 1.428 . S
H962 C958 0.930 . S
H963 C960 0.929 . S
S964 N965 1.613 . S
S964 N966 1.610 . S
N965 S964 1.613 . S
N965 C968 1.350 . S
N966 S964 1.610 . S
N966 C967 1.351 . S
C967 C961 1.428 . S
C967 N966 1.351 . S
C967 C968 1.434 . S
C968 C959 1.429 . S
C968 N965 1.350 . S
C968 C967 1.434 . S
C969 C970 1.369 . S
C969 C971 1.419 . S
C969 H973 0.930 . S
C970 C969 1.369 . S
C970 C979 1.429 . S
C971 C969 1.419 . S
C971 C972 1.363 . S
C971 H974 0.929 . S
C972 C971 1.363 . S
C972 C978 1.428 . S
H973 C969 0.930 . S
H974 C971 0.929 . S
S975 N976 1.613 . S
S975 N977 1.610 . S
N976 S975 1.613 . S
N976 C979 1.350 . S
N977 S975 1.610 . S
N977 C978 1.351 . S
C978 C972 1.428 . S
C978 N977 1.351 . S
C978 C979 1.434 . S
C979 C970 1.429 . S
C979 N976 1.350 . S
C979 C978 1.434 . S
C980 C981 1.369 . S
C980 C982 1.419 . S
C980 H984 0.930 . S
C981 C980 1.369 . S
C981 C990 1.429 . S
C982 C980 1.419 . S
C982 C983 1.363 . S
C982 H985 0.929 . S
C983 C982 1.363 . S
C983 C989 1.428 . S
H984 C980 0.930 . S
H985 C982 0.929 . S
S986 N987 1.613 . S
S986 N988 1.610 . S
N987 S986 1.613 . S
N987 C990 1.350 1_556 S
N988 S986 1.610 . S
N988 C989 1.351 1_556 S
C989 C983 1.428 . S
C989 N988 1.351 1_554 S
C989 C990 1.434 . S
C990 C981 1.429 . S
C990 N987 1.350 1_554 S
C990 C989 1.434 . S
C991 C992 1.369 . S
C991 C993 1.419 . S
C991 H995 0.930 . S
C992 C991 1.369 . S
C992 C1001 1.429 . S
C993 C991 1.419 . S
C993 C994 1.363 . S
C993 H996 0.929 . S
C994 C993 1.363 . S
C994 C1000 1.428 . S
H995 C991 0.930 . S
H996 C993 0.929 . S
S997 N998 1.613 . S
S997 N999 1.610 . S
N998 S997 1.613 . S
N998 C1001 1.350 . S
N999 S997 1.610 . S
N999 C1000 1.351 . S
C1000 C994 1.428 . S
C1000 N999 1.351 . S
C1000 C1001 1.434 . S
C1001 C992 1.429 . S
C1001 N998 1.350 . S
C1001 C1000 1.434 . S
C1002 C1003 1.369 . S
C1002 C1004 1.419 . S
C1002 H1006 0.930 . S
C1003 C1002 1.369 . S
C1003 C1012 1.429 . S
C1004 C1002 1.419 . S
C1004 C1005 1.363 . S
C1004 H1007 0.929 . S
C1005 C1004 1.363 . S
C1005 C1011 1.428 . S
H1006 C1002 0.930 . S
H1007 C1004 0.929 . S
S1008 N1009 1.613 . S
S1008 N1010 1.610 . S
N1009 S1008 1.613 . S
N1009 C1012 1.350 . S
N1010 S1008 1.610 . S
N1010 C1011 1.351 . S
C1011 C1005 1.428 . S
C1011 N1010 1.351 . S
C1011 C1012 1.434 . S
C1012 C1003 1.429 . S
C1012 N1009 1.350 . S
C1012 C1011 1.434 . S
C1013 C1014 1.369 . S
C1013 C1015 1.419 . S
C1013 H1017 0.930 . S
C1014 C1013 1.369 . S
C1014 C1023 1.429 . S
C1015 C1013 1.419 . S
C1015 C1016 1.363 . S
C1015 H1018 0.929 . S
C1016 C1015 1.363 . S
C1016 C1022 1.428 . S
H1017 C1013 0.930 . S
H1018 C1015 0.929 . S
S1019 N1020 1.613 . S
S1019 N1021 1.610 . S
N1020 S1019 1.613 . S
N1020 C1023 1.350 . S
N1021 S1019 1.610 . S
N1021 C1022 1.351 . S
C1022 C1016 1.428 . S
C1022 N1021 1.351 . S
C1022 C1023 1.434 . S
C1023 C1014 1.429 . S
C1023 N1020 1.350 . S
C1023 C1022 1.434 . S
C1024 C1025 1.369 . S
C1024 C1026 1.419 . S
C1024 H1028 0.930 . S
C1025 C1024 1.369 . S
C1025 C1034 1.429 . S
C1026 C1024 1.419 . S
C1026 C1027 1.363 . S
C1026 H1029 0.929 . S
C1027 C1026 1.363 . S
C1027 C1033 1.428 . S
H1028 C1024 0.930 . S
H1029 C1026 0.929 . S
S1030 N1031 1.613 . S
S1030 N1032 1.610 . S
N1031 S1030 1.613 . S
N1031 C1034 1.350 . S
N1032 S1030 1.610 . S
N1032 C1033 1.351 . S
C1033 C1027 1.428 . S
C1033 N1032 1.351 . S
C1033 C1034 1.434 . S
C1034 C1025 1.429 . S
C1034 N1031 1.350 . S
C1034 C1033 1.434 . S
C1035 C1036 1.369 . S
C1035 C1037 1.419 . S
C1035 H1039 0.930 . S
C1036 C1035 1.369 . S
C1036 C1045 1.429 . S
C1037 C1035 1.419 . S
C1037 C1038 1.363 . S
C1037 H1040 0.929 . S
C1038 C1037 1.363 . S
C1038 C1044 1.428 . S
H1039 C1035 0.930 . S
H1040 C1037 0.929 . S
S1041 N1042 1.613 . S
S1041 N1043 1.610 . S
N1042 S1041 1.613 . S
N1042 C1045 1.350 . S
N1043 S1041 1.610 . S
N1043 C1044 1.351 . S
C1044 C1038 1.428 . S
C1044 N1043 1.351 . S
C1044 C1045 1.434 . S
C1045 C1036 1.429 . S
C1045 N1042 1.350 . S
C1045 C1044 1.434 . S
C1046 C1047 1.369 . S
C1046 C1048 1.419 . S
C1046 H1050 0.944 . S
C1047 C1046 1.369 . S
C1047 C1056 1.429 . S
C1048 C1046 1.419 . S
C1048 C1049 1.363 . S
C1048 H1051 0.929 1_554 S
C1049 C1048 1.363 . S
C1049 C1055 1.428 . S
H1050 C1046 0.944 . S
H1051 C1048 0.929 1_556 S
S1052 N1053 1.613 . S
S1052 N1054 1.610 . S
N1053 S1052 1.613 . S
N1053 C1056 1.350 . S
N1054 S1052 1.610 . S
N1054 C1055 1.351 . S
C1055 C1049 1.428 . S
C1055 N1054 1.351 . S
C1055 C1056 1.434 . S
C1056 C1047 1.429 . S
C1056 N1053 1.350 . S
C1056 C1055 1.434 . S
C1057 C1058 1.369 . S
C1057 C1059 1.419 . S
C1057 H1061 0.930 . S
C1058 C1057 1.369 . S
C1058 C1067 1.429 . S
C1059 C1057 1.419 . S
C1059 C1060 1.363 . S
C1059 H1062 0.929 . S
C1060 C1059 1.363 . S
C1060 C1066 1.428 . S
H1061 C1057 0.930 . S
H1062 C1059 0.929 . S
S1063 N1064 1.613 . S
S1063 N1065 1.610 . S
N1064 S1063 1.613 . S
N1064 C1067 1.350 . S
N1065 S1063 1.610 . S
N1065 C1066 1.351 . S
C1066 C1060 1.428 . S
C1066 N1065 1.351 . S
C1066 C1067 1.434 . S
C1067 C1058 1.429 . S
C1067 N1064 1.350 . S
C1067 C1066 1.434 . S
C1068 C1069 1.369 . S
C1068 C1070 1.419 . S
C1068 H1072 0.930 . S
C1069 C1068 1.369 . S
C1069 C1078 1.429 . S
C1070 C1068 1.419 . S
C1070 C1071 1.363 . S
C1070 H1073 0.929 . S
C1071 C1070 1.363 . S
C1071 C1077 1.428 . S
H1072 C1068 0.930 . S
H1073 C1070 0.929 . S
S1074 N1075 1.613 1_554 S
S1074 N1076 1.610 . S
N1075 S1074 1.613 1_556 S
N1075 C1078 1.350 . S
N1076 S1074 1.610 . S
N1076 C1077 1.351 1_554 S
C1077 C1071 1.428 . S
C1077 N1076 1.351 1_556 S
C1077 C1078 1.434 . S
C1078 C1069 1.429 . S
C1078 N1075 1.350 . S
C1078 C1077 1.434 . S
C1079 C1080 1.369 . S
C1079 C1081 1.419 . S
C1079 H1083 0.930 . S
C1080 C1079 1.369 . S
C1080 C1089 1.429 . S
C1081 C1079 1.419 . S
C1081 C1082 1.363 . S
C1081 H1084 0.929 . S
C1082 C1081 1.363 . S
C1082 C1088 1.428 . S
H1083 C1079 0.930 . S
H1084 C1081 0.929 . S
S1085 N1086 1.613 . S
S1085 N1087 1.610 . S
N1086 S1085 1.613 . S
N1086 C1089 1.350 . S
N1087 S1085 1.610 . S
N1087 C1088 1.351 . S
C1088 C1082 1.428 . S
C1088 N1087 1.351 . S
C1088 C1089 1.434 . S
C1089 C1080 1.429 . S
C1089 N1086 1.350 . S
C1089 C1088 1.434 . S
C1090 C1091 1.369 . S
C1090 C1092 1.419 . S
C1090 H1094 0.930 . S
C1091 C1090 1.369 . S
C1091 C1100 1.429 . S
C1092 C1090 1.419 . S
C1092 C1093 1.363 . S
C1092 H1095 0.929 . S
C1093 C1092 1.363 . S
C1093 C1099 1.428 . S
H1094 C1090 0.930 . S
H1095 C1092 0.929 . S
S1096 N1097 1.613 . S
S1096 N1098 1.610 . S
N1097 S1096 1.613 . S
N1097 C1100 1.350 . S
N1098 S1096 1.610 . S
N1098 C1099 1.351 . S
C1099 C1093 1.428 . S
C1099 N1098 1.351 . S
C1099 C1100 1.434 . S
C1100 C1091 1.429 . S
C1100 N1097 1.350 . S
C1100 C1099 1.434 . S
C1101 C1102 1.369 . S
C1101 C1103 1.419 . S
C1101 H1105 0.930 . S
C1102 C1101 1.369 . S
C1102 C1111 1.429 . S
C1103 C1101 1.419 . S
C1103 C1104 1.363 . S
C1103 H1106 0.929 . S
C1104 C1103 1.363 . S
C1104 C1110 1.428 . S
H1105 C1101 0.930 . S
H1106 C1103 0.929 . S
S1107 N1108 1.613 . S
S1107 N1109 1.610 . S
N1108 S1107 1.613 . S
N1108 C1111 1.350 . S
N1109 S1107 1.610 . S
N1109 C1110 1.351 . S
C1110 C1104 1.428 . S
C1110 N1109 1.351 . S
C1110 C1111 1.434 . S
C1111 C1102 1.429 . S
C1111 N1108 1.350 . S
C1111 C1110 1.434 . S
C1112 C1113 1.369 . S
C1112 C1114 1.419 . S
C1112 H1116 0.930 . S
C1113 C1112 1.369 . S
C1113 C1122 1.429 . S
C1114 C1112 1.419 . S
C1114 C1115 1.363 . S
C1114 H1117 0.929 . S
C1115 C1114 1.363 . S
C1115 C1121 1.428 . S
H1116 C1112 0.930 . S
H1117 C1114 0.929 . S
S1118 N1119 1.613 . S
S1118 N1120 1.610 . S
N1119 S1118 1.613 . S
N1119 C1122 1.350 . S
N1120 S1118 1.610 . S
N1120 C1121 1.351 . S
C1121 C1115 1.428 . S
C1121 N1120 1.351 . S
C1121 C1122 1.434 . S
C1122 C1113 1.429 . S
C1122 N1119 1.350 . S
C1122 C1121 1.434 . S
C1123 C1124 1.369 . S
C1123 C1125 1.419 . S
C1123 H1127 0.930 . S
C1124 C1123 1.369 . S
C1124 C1133 1.429 . S
C1125 C1123 1.419 . S
C1125 C1126 1.363 . S
C1125 H1128 0.929 . S
C1126 C1125 1.363 . S
C1126 C1132 1.428 . S
H1127 C1123 0.930 . S
H1128 C1125 0.929 . S
S1129 N1130 1.613 . S
S1129 N1131 1.610 . S
N1130 S1129 1.613 . S
N1130 C1133 1.350 . S
N1131 S1129 1.610 . S
N1131 C1132 1.351 . S
C1132 C1126 1.428 . S
C1132 N1131 1.351 . S
C1132 C1133 1.434 . S
C1133 C1124 1.429 . S
C1133 N1130 1.350 . S
C1133 C1132 1.434 . S
C1134 C1135 1.369 . S
C1134 C1136 1.419 . S
C1134 H1138 0.930 . S
C1135 C1134 1.369 . S
C1135 C1144 1.429 . S
C1136 C1134 1.419 . S
C1136 C1137 1.363 . S
C1136 H1139 0.929 . S
C1137 C1136 1.363 . S
C1137 C1143 1.428 . S
H1138 C1134 0.930 . S
H1139 C1136 0.929 . S
S1140 N1141 1.613 . S
S1140 N1142 1.610 . S
N1141 S1140 1.613 . S
N1141 C1144 1.350 . S
N1142 S1140 1.610 . S
N1142 C1143 1.351 . S
C1143 C1137 1.428 . S
C1143 N1142 1.351 . S
C1143 C1144 1.434 . S
C1144 C1135 1.429 . S
C1144 N1141 1.350 . S
C1144 C1143 1.434 . S
C1145 C1146 1.369 . S
C1145 C1147 1.419 . S
C1145 H1149 0.930 . S
C1146 C1145 1.369 . S
C1146 C1155 1.429 . S
C1147 C1145 1.419 . S
C1147 C1148 1.363 . S
C1147 H1150 0.929 . S
C1148 C1147 1.363 . S
C1148 C1154 1.428 . S
H1149 C1145 0.930 . S
H1150 C1147 0.929 . S
S1151 N1152 1.613 . S
S1151 N1153 1.610 . S
N1152 S1151 1.613 . S
N1152 C1155 1.350 . S
N1153 S1151 1.610 . S
N1153 C1154 1.351 . S
C1154 C1148 1.428 . S
C1154 N1153 1.351 . S
C1154 C1155 1.434 . S
C1155 C1146 1.429 . S
C1155 N1152 1.350 . S
C1155 C1154 1.434 . S
C1156 C1157 1.369 . S
C1156 C1158 1.419 . S
C1156 H1160 0.930 . S
C1157 C1156 1.369 . S
C1157 C1166 1.429 . S
C1158 C1156 1.419 . S
C1158 C1159 1.363 . S
C1158 H1161 0.929 . S
C1159 C1158 1.363 . S
C1159 C1165 1.428 . S
H1160 C1156 0.930 . S
H1161 C1158 0.929 . S
S1162 N1163 1.613 . S
S1162 N1164 1.610 . S
N1163 S1162 1.613 . S
N1163 C1166 1.350 . S
N1164 S1162 1.610 . S
N1164 C1165 1.351 . S
C1165 C1159 1.428 . S
C1165 N1164 1.351 . S
C1165 C1166 1.434 . S
C1166 C1157 1.429 . S
C1166 N1163 1.350 . S
C1166 C1165 1.434 . S
C1167 C1168 1.369 . S
C1167 C1169 1.419 . S
C1167 H1171 0.930 . S
C1168 C1167 1.369 . S
C1168 C1177 1.429 . S
C1169 C1167 1.419 . S
C1169 C1170 1.363 . S
C1169 H1172 0.929 . S
C1170 C1169 1.363 . S
C1170 C1176 1.428 . S
H1171 C1167 0.930 . S
H1172 C1169 0.929 . S
S1173 N1174 1.613 . S
S1173 N1175 1.610 1_554 S
N1174 S1173 1.613 . S
N1174 C1177 1.350 1_554 S
N1175 S1173 1.610 1_556 S
N1175 C1176 1.351 . S
C1176 C1170 1.428 . S
C1176 N1175 1.351 . S
C1176 C1177 1.434 . S
C1177 C1168 1.429 . S
C1177 N1174 1.350 1_556 S
C1177 C1176 1.434 . S
C1178 C1179 1.369 . S
C1178 C1180 1.419 . S
C1178 H1182 0.930 . S
C1179 C1178 1.369 . S
C1179 C1188 1.429 . S
C1180 C1178 1.419 . S
C1180 C1181 1.363 . S
C1180 H1183 0.929 . S
C1181 C1180 1.363 . S
C1181 C1187 1.428 . S
H1182 C1178 0.930 . S
H1183 C1180 0.929 . S
S1184 N1185 1.613 . S
S1184 N1186 1.610 . S
N1185 S1184 1.613 . S
N1185 C1188 1.350 . S
N1186 S1184 1.610 . S
N1186 C1187 1.351 . S
C1187 C1181 1.428 . S
C1187 N1186 1.351 . S
C1187 C1188 1.434 . S
C1188 C1179 1.429 . S
C1188 N1185 1.350 . S
C1188 C1187 1.434 . S
C1189 C1190 1.369 . S
C1189 C1191 1.419 . S
C1189 H1193 0.930 . S
C1190 C1189 1.369 . S
C1190 C1199 1.429 . S
C1191 C1189 1.419 . S
C1191 C1192 1.363 . S
C1191 H1194 0.929 . S
C1192 C1191 1.363 . S
C1192 C1198 1.428 . S
H1193 C1189 0.930 . S
H1194 C1191 0.929 . S
S1195 N1196 1.613 . S
S1195 N1197 1.610 . S
N1196 S1195 1.613 . S
N1196 C1199 1.350 . S
N1197 S1195 1.610 . S
N1197 C1198 1.351 . S
C1198 C1192 1.428 . S
C1198 N1197 1.351 . S
C1198 C1199 1.434 . S
C1199 C1190 1.429 . S
C1199 N1196 1.350 . S
C1199 C1198 1.434 . S
C1200 C1201 1.369 . S
C1200 C1202 1.419 . S
C1200 H1204 0.930 . S
C1201 C1200 1.369 . S
C1201 C1210 1.429 . S
C1202 C1200 1.419 . S
C1202 C1203 1.363 . S
C1202 H1205 0.929 . S
C1203 C1202 1.363 . S
C1203 C1209 1.428 . S
H1204 C1200 0.930 . S
H1205 C1202 0.929 . S
S1206 N1207 1.613 . S
S1206 N1208 1.610 . S
N1207 S1206 1.613 . S
N1207 C1210 1.350 . S
N1208 S1206 1.610 . S
N1208 C1209 1.351 . S
C1209 C1203 1.428 . S
C1209 N1208 1.351 . S
C1209 C1210 1.434 . S
C1210 C1201 1.429 . S
C1210 N1207 1.350 . S
C1210 C1209 1.434 . S
C1211 C1212 1.369 . S
C1211 C1213 1.419 . S
C1211 H1215 0.930 . S
C1212 C1211 1.369 . S
C1212 C1221 1.429 . S
C1213 C1211 1.419 . S
C1213 C1214 1.363 . S
C1213 H1216 0.929 . S
C1214 C1213 1.363 . S
C1214 C1220 1.428 . S
H1215 C1211 0.930 . S
H1216 C1213 0.929 . S
S1217 N1218 1.613 . S
S1217 N1219 1.610 . S
N1218 S1217 1.613 . S
N1218 C1221 1.350 . S
N1219 S1217 1.610 . S
N1219 C1220 1.351 . S
C1220 C1214 1.428 . S
C1220 N1219 1.351 . S
C1220 C1221 1.434 . S
C1221 C1212 1.429 . S
C1221 N1218 1.350 . S
C1221 C1220 1.434 . S
C1222 C1223 1.369 . S
C1222 C1224 1.419 . S
C1222 H1226 0.930 . S
C1223 C1222 1.369 . S
C1223 C1232 1.429 . S
C1224 C1222 1.419 . S
C1224 C1225 1.363 . S
C1224 H1227 0.929 . S
C1225 C1224 1.363 . S
C1225 C1231 1.428 . S
H1226 C1222 0.930 . S
H1227 C1224 0.929 . S
S1228 N1229 1.613 . S
S1228 N1230 1.610 . S
N1229 S1228 1.613 . S
N1229 C1232 1.350 . S
N1230 S1228 1.610 . S
N1230 C1231 1.351 . S
C1231 C1225 1.428 . S
C1231 N1230 1.351 . S
C1231 C1232 1.434 . S
C1232 C1223 1.429 . S
C1232 N1229 1.350 . S
C1232 C1231 1.434 . S
C1233 C1234 1.369 . S
C1233 C1235 1.419 . S
C1233 H1237 0.930 . S
C1234 C1233 1.369 . S
C1234 C1243 1.429 . S
C1235 C1233 1.419 . S
C1235 C1236 1.363 . S
C1235 H1238 0.929 . S
C1236 C1235 1.363 . S
C1236 C1242 1.428 . S
H1237 C1233 0.930 . S
H1238 C1235 0.929 . S
S1239 N1240 1.613 . S
S1239 N1241 1.610 . S
N1240 S1239 1.613 . S
N1240 C1243 1.350 . S
N1241 S1239 1.610 . S
N1241 C1242 1.351 . S
C1242 C1236 1.428 . S
C1242 N1241 1.351 . S
C1242 C1243 1.434 . S
C1243 C1234 1.429 . S
C1243 N1240 1.350 . S
C1243 C1242 1.434 . S
C1244 C1245 1.369 . S
C1244 C1246 1.419 . S
C1244 H1248 0.930 . S
C1245 C1244 1.369 . S
C1245 C1254 1.429 . S
C1246 C1244 1.419 . S
C1246 C1247 1.363 . S
C1246 H1249 0.929 . S
C1247 C1246 1.363 . S
C1247 C1253 1.428 . S
H1248 C1244 0.930 . S
H1249 C1246 0.929 . S
S1250 N1251 1.613 . S
S1250 N1252 1.610 . S
N1251 S1250 1.613 . S
N1251 C1254 1.350 . S
N1252 S1250 1.610 . S
N1252 C1253 1.351 . S
C1253 C1247 1.428 . S
C1253 N1252 1.351 . S
C1253 C1254 1.434 . S
C1254 C1245 1.429 . S
C1254 N1251 1.350 . S
C1254 C1253 1.434 . S
C1255 C1256 1.369 . S
C1255 C1257 1.419 . S
C1255 H1259 0.930 . S
C1256 C1255 1.369 . S
C1256 C1265 1.429 . S
C1257 C1255 1.419 . S
C1257 C1258 1.363 . S
C1257 H1260 0.929 . S
C1258 C1257 1.363 . S
C1258 C1264 1.428 . S
H1259 C1255 0.930 . S
H1260 C1257 0.929 . S
S1261 N1262 1.613 . S
S1261 N1263 1.610 . S
N1262 S1261 1.613 . S
N1262 C1265 1.350 . S
N1263 S1261 1.610 . S
N1263 C1264 1.351 . S
C1264 C1258 1.428 . S
C1264 N1263 1.351 . S
C1264 C1265 1.434 . S
C1265 C1256 1.429 . S
C1265 N1262 1.350 . S
C1265 C1264 1.434 . S
C1266 C1267 1.369 . S
C1266 C1268 1.419 . S
C1266 H1270 0.930 . S
C1267 C1266 1.369 . S
C1267 C1276 1.429 . S
C1268 C1266 1.419 . S
C1268 C1269 1.363 . S
C1268 H1271 0.929 . S
C1269 C1268 1.363 . S
C1269 C1275 1.428 . S
H1270 C1266 0.930 . S
H1271 C1268 0.929 . S
S1272 N1273 1.613 . S
S1272 N1274 1.610 . S
N1273 S1272 1.613 . S
N1273 C1276 1.350 . S
N1274 S1272 1.610 . S
N1274 C1275 1.351 . S
C1275 C1269 1.428 . S
C1275 N1274 1.351 . S
C1275 C1276 1.434 . S
C1276 C1267 1.429 . S
C1276 N1273 1.350 . S
C1276 C1275 1.434 . S
C1277 C1278 1.369 . S
C1277 C1279 1.419 . S
C1277 H1281 0.930 . S
C1278 C1277 1.369 . S
C1278 C1287 1.429 . S
C1279 C1277 1.419 . S
C1279 C1280 1.363 . S
C1279 H1282 0.929 . S
C1280 C1279 1.363 . S
C1280 C1286 1.428 . S
H1281 C1277 0.930 . S
H1282 C1279 0.929 . S
S1283 N1284 1.613 . S
S1283 N1285 1.610 . S
N1284 S1283 1.613 . S
N1284 C1287 1.350 . S
N1285 S1283 1.610 . S
N1285 C1286 1.351 . S
C1286 C1280 1.428 . S
C1286 N1285 1.351 . S
C1286 C1287 1.434 . S
C1287 C1278 1.429 . S
C1287 N1284 1.350 . S
C1287 C1286 1.434 . S
C1288 C1289 1.369 . S
C1288 C1290 1.419 . S
C1288 H1292 0.930 . S
C1289 C1288 1.369 . S
C1289 C1298 1.429 . S
C1290 C1288 1.419 . S
C1290 C1291 1.363 . S
C1290 H1293 0.929 . S
C1291 C1290 1.363 . S
C1291 C1297 1.428 . S
H1292 C1288 0.930 . S
H1293 C1290 0.929 . S
S1294 N1295 1.613 . S
S1294 N1296 1.610 . S
N1295 S1294 1.613 . S
N1295 C1298 1.350 . S
N1296 S1294 1.610 . S
N1296 C1297 1.351 . S
C1297 C1291 1.428 . S
C1297 N1296 1.351 . S
C1297 C1298 1.434 . S
C1298 C1289 1.429 . S
C1298 N1295 1.350 . S
C1298 C1297 1.434 . S
C1299 C1300 1.369 . S
C1299 C1301 1.419 . S
C1299 H1303 0.930 . S
C1300 C1299 1.369 . S
C1300 C1309 1.429 . S
C1301 C1299 1.419 . S
C1301 C1302 1.363 . S
C1301 H1304 0.929 . S
C1302 C1301 1.363 . S
C1302 C1308 1.428 . S
H1303 C1299 0.930 . S
H1304 C1301 0.929 . S
S1305 N1306 1.613 . S
S1305 N1307 1.610 . S
N1306 S1305 1.613 . S
N1306 C1309 1.350 . S
N1307 S1305 1.610 . S
N1307 C1308 1.351 . S
C1308 C1302 1.428 . S
C1308 N1307 1.351 . S
C1308 C1309 1.434 . S
C1309 C1300 1.429 . S
C1309 N1306 1.350 . S
C1309 C1308 1.434 . S
C1310 C1311 1.369 . S
C1310 C1312 1.419 . S
C1310 H1314 0.930 . S
C1311 C1310 1.369 . S
C1311 C1320 1.429 . S
C1312 C1310 1.419 . S
C1312 C1313 1.363 . S
C1312 H1315 0.929 . S
C1313 C1312 1.363 . S
C1313 C1319 1.428 . S
H1314 C1310 0.930 . S
H1315 C1312 0.929 . S
S1316 N1317 1.613 . S
S1316 N1318 1.610 . S
N1317 S1316 1.613 . S
N1317 C1320 1.350 . S
N1318 S1316 1.610 . S
N1318 C1319 1.351 . S
C1319 C1313 1.428 . S
C1319 N1318 1.351 . S
C1319 C1320 1.434 . S
C1320 C1311 1.429 . S
C1320 N1317 1.350 . S
C1320 C1319 1.434 . S
C1321 C1322 1.369 . S
C1321 C1323 1.419 . S
C1321 H1325 0.930 . S
C1322 C1321 1.369 . S
C1322 C1331 1.429 . S
C1323 C1321 1.419 . S
C1323 C1324 1.363 . S
C1323 H1326 0.929 . S
C1324 C1323 1.363 . S
C1324 C1330 1.428 . S
H1325 C1321 0.930 . S
H1326 C1323 0.929 . S
S1327 N1328 1.613 . S
S1327 N1329 1.610 . S
N1328 S1327 1.613 . S
N1328 C1331 1.350 . S
N1329 S1327 1.610 . S
N1329 C1330 1.351 . S
C1330 C1324 1.428 . S
C1330 N1329 1.351 . S
C1330 C1331 1.434 . S
C1331 C1322 1.429 . S
C1331 N1328 1.350 . S
C1331 C1330 1.434 . S
C1332 C1333 1.369 . S
C1332 C1334 1.419 . S
C1332 H1336 0.930 . S
C1333 C1332 1.369 . S
C1333 C1342 1.429 . S
C1334 C1332 1.419 . S
C1334 C1335 1.363 . S
C1334 H1337 0.929 . S
C1335 C1334 1.363 . S
C1335 C1341 1.428 . S
H1336 C1332 0.930 . S
H1337 C1334 0.929 . S
S1338 N1339 1.613 . S
S1338 N1340 1.610 . S
N1339 S1338 1.613 . S
N1339 C1342 1.350 . S
N1340 S1338 1.610 . S
N1340 C1341 1.351 . S
C1341 C1335 1.428 . S
C1341 N1340 1.351 . S
C1341 C1342 1.434 . S
C1342 C1333 1.429 . S
C1342 N1339 1.350 . S
C1342 C1341 1.434 . S
C1343 C1344 1.369 . S
C1343 C1345 1.419 . S
C1343 H1347 0.930 . S
C1344 C1343 1.369 . S
C1344 C1353 1.429 . S
C1345 C1343 1.419 . S
C1345 C1346 1.363 . S
C1345 H1348 0.929 . S
C1346 C1345 1.363 . S
C1346 C1352 1.428 . S
H1347 C1343 0.930 . S
H1348 C1345 0.929 . S
S1349 N1350 1.613 . S
S1349 N1351 1.610 . S
N1350 S1349 1.613 . S
N1350 C1353 1.350 . S
N1351 S1349 1.610 . S
N1351 C1352 1.351 . S
C1352 C1346 1.428 . S
C1352 N1351 1.351 . S
C1352 C1353 1.434 . S
C1353 C1344 1.429 . S
C1353 N1350 1.350 . S
C1353 C1352 1.434 . S
C1354 C1355 1.369 . S
C1354 C1356 1.419 . S
C1354 H1358 0.930 . S
C1355 C1354 1.369 . S
C1355 C1364 1.429 . S
C1356 C1354 1.419 . S
C1356 C1357 1.363 . S
C1356 H1359 0.929 . S
C1357 C1356 1.363 . S
C1357 C1363 1.428 . S
H1358 C1354 0.930 . S
H1359 C1356 0.929 . S
S1360 N1361 1.613 . S
S1360 N1362 1.610 . S
N1361 S1360 1.613 . S
N1361 C1364 1.350 . S
N1362 S1360 1.610 . S
N1362 C1363 1.351 . S
C1363 C1357 1.428 . S
C1363 N1362 1.351 . S
C1363 C1364 1.434 . S
C1364 C1355 1.429 . S
C1364 N1361 1.350 . S
C1364 C1363 1.434 . S
C1365 C1366 1.369 . S
C1365 C1367 1.419 . S
C1365 H1369 0.930 . S
C1366 C1365 1.369 . S
C1366 C1375 1.429 . S
C1367 C1365 1.419 . S
C1367 C1368 1.363 . S
C1367 H1370 0.929 . S
C1368 C1367 1.363 . S
C1368 C1374 1.428 . S
H1369 C1365 0.930 . S
H1370 C1367 0.929 . S
S1371 N1372 1.613 . S
S1371 N1373 1.610 . S
N1372 S1371 1.613 . S
N1372 C1375 1.350 . S
N1373 S1371 1.610 . S
N1373 C1374 1.351 . S
C1374 C1368 1.428 . S
C1374 N1373 1.351 . S
C1374 C1375 1.434 . S
C1375 C1366 1.429 . S
C1375 N1372 1.350 . S
C1375 C1374 1.434 . S
C1376 C1377 1.369 . S
C1376 C1378 1.419 . S
C1376 H1380 0.930 . S
C1377 C1376 1.369 . S
C1377 C1386 1.429 . S
C1378 C1376 1.419 . S
C1378 C1379 1.363 . S
C1378 H1381 0.929 . S
C1379 C1378 1.363 . S
C1379 C1385 1.428 . S
H1380 C1376 0.930 . S
H1381 C1378 0.929 . S
S1382 N1383 1.613 . S
S1382 N1384 1.610 . S
N1383 S1382 1.613 . S
N1383 C1386 1.350 . S
N1384 S1382 1.610 . S
N1384 C1385 1.351 . S
C1385 C1379 1.428 . S
C1385 N1384 1.351 . S
C1385 C1386 1.434 . S
C1386 C1377 1.429 . S
C1386 N1383 1.350 . S
C1386 C1385 1.434 . S
C1387 C1388 1.369 . S
C1387 C1389 1.419 . S
C1387 H1391 0.930 . S
C1388 C1387 1.369 . S
C1388 C1397 1.429 . S
C1389 C1387 1.419 . S
C1389 C1390 1.363 . S
C1389 H1392 0.929 . S
C1390 C1389 1.363 . S
C1390 C1396 1.428 . S
H1391 C1387 0.930 . S
H1392 C1389 0.929 . S
S1393 N1394 1.613 . S
S1393 N1395 1.610 . S
N1394 S1393 1.613 . S
N1394 C1397 1.350 . S
N1395 S1393 1.610 . S
N1395 C1396 1.351 . S
C1396 C1390 1.428 . S
C1396 N1395 1.351 . S
C1396 C1397 1.434 . S
C1397 C1388 1.429 . S
C1397 N1394 1.350 . S
C1397 C1396 1.434 . S
C873 C699 1.427 . S
C871 C74 1.606 . S
C884 C700 1.483 . S
C882 C153 1.436 . S
C895 C694 1.704 . S
C893 C231 1.740 . S
C904 C310 1.126 . S
C906 C693 0.514 . S
C915 C394 1.436 . S
C917 C696 1.480 . S
C928 C698 1.700 . S
C926 C494 1.740 . S
C937 C573 1.128 . S
C939 C697 0.513 . S
C948 C651 1.602 . S
C950 C695 1.428 . S
C961 C730 2.623 . S
C959 C56 2.603 . S
C970 C151 1.689 . S
C972 C761 1.541 . S
C983 C729 1.368 . S
C981 C237 1.268 . S
C994 C764 1.519 . S
C992 C326 1.456 . S
C1003 C410 1.734 . S
C1005 C727 1.719 . S
C1016 C759 2.610 . S
C1014 C476 2.607 . S
C1025 C571 1.462 . S
C1027 C732 1.327 . S
C1036 C657 1.236 . S
C1038 C766 1.319 . S
C1047 C58 1.223 . S
C1049 C762 1.314 . S
C1058 C392 1.690 . S
C1060 C765 1.551 . S
C1071 C733 1.366 . S
C1069 C478 1.276 . S
C1082 C760 1.520 . S
C1080 C567 1.462 . S
C1091 C655 2.604 . S
C1093 C726 2.623 . S
C1102 C235 2.607 . S
C1104 C763 2.611 . S
C1115 C728 1.326 . S
C1113 C308 1.456 . S
C1124 C147 1.733 . S
C1126 C731 1.722 . S
C1135 C662 1.622 . S
C1137 C798 1.481 . S
C1146 C405 1.277 . S
C1148 C799 1.237 . S
C1159 C793 1.522 . S
C1157 C483 1.554 . S
C1170 C792 0.562 . S
C1168 C562 0.846 . S
C1179 C142 1.272 . S
C1181 C795 1.236 . S
C1192 C797 1.522 . S
C1190 C242 1.548 . S
C1201 C321 0.828 . S
C1203 C796 0.583 . S
C1212 C63 1.619 . S
C1214 C794 1.484 . S
C1223 C644 2.798 . S
C1225 C832 2.721 . S
C1236 C864 1.434 . S
C1234 C403 1.512 . S
C1245 C489 1.117 . S
C1247 C825 1.292 . S
C1256 C578 1.712 . S
C1258 C859 1.688 . S
C1269 C830 1.454 . S
C1267 C158 1.448 . S
C1278 C224 2.841 . S
C1280 C861 2.772 . S
C1291 C827 1.757 . S
C1289 C319 1.817 . S
C1302 C862 1.322 . S
C1300 C69 1.223 . S
C1313 C858 1.322 . S
C1311 C646 1.224 . S
C1322 C140 1.513 . S
C1324 C860 1.429 . S
C1333 C226 1.128 . S
C1335 C829 1.294 . S
C1346 C863 1.687 . S
C1344 C315 1.716 . S
C1355 C67 2.799 . S
C1357 C828 2.723 . S
C1366 C487 2.843 . S
C1368 C865 2.774 . S
C1379 C831 1.753 . S
C1377 C560 1.818 . S
C1390 C826 1.452 . S
C1388 C399 1.445 . S
