# Generated by pormake.
# Topology eea, (3,6)-cn, num edge types: 1
# Building blocks:
#     Node 0, Type 0, BuildingBlock: OLANEW_clean_sbu_2, # of connection points: 3
#     Node 1, Type 0, BuildingBlock: OLANEW_clean_sbu_2, # of connection points: 3
#     Node 2, Type 0, BuildingBlock: OLANEW_clean_sbu_2, # of connection points: 3
#     Node 3, Type 0, BuildingBlock: OLANEW_clean_sbu_2, # of connection points: 3
#     Node 4, Type 0, BuildingBlock: OLANEW_clean_sbu_2, # of connection points: 3
#     Node 5, Type 0, BuildingBlock: OLANEW_clean_sbu_2, # of connection points: 3
#     Node 6, Type 0, BuildingBlock: OLANEW_clean_sbu_2, # of connection points: 3
#     Node 7, Type 0, BuildingBlock: OLANEW_clean_sbu_2, # of connection points: 3
#     Node 8, Type 0, BuildingBlock: OLANEW_clean_sbu_2, # of connection points: 3
#     Node 9, Type 0, BuildingBlock: OLANEW_clean_sbu_2, # of connection points: 3
#     Node 10, Type 0, BuildingBlock: OLANEW_clean_sbu_2, # of connection points: 3
#     Node 11, Type 0, BuildingBlock: OLANEW_clean_sbu_2, # of connection points: 3
#     Node 12, Type 0, BuildingBlock: OLANEW_clean_sbu_2, # of connection points: 3
#     Node 13, Type 0, BuildingBlock: OLANEW_clean_sbu_2, # of connection points: 3
#     Node 14, Type 0, BuildingBlock: OLANEW_clean_sbu_2, # of connection points: 3
#     Node 15, Type 0, BuildingBlock: OLANEW_clean_sbu_2, # of connection points: 3
#     Node 16, Type 0, BuildingBlock: OLANEW_clean_sbu_2, # of connection points: 3
#     Node 17, Type 0, BuildingBlock: OLANEW_clean_sbu_2, # of connection points: 3
#     Node 18, Type 1, BuildingBlock: HISSIN_clean_sbu_0, # of connection points: 6
#     Node 19, Type 1, BuildingBlock: HISSIN_clean_sbu_0, # of connection points: 6
#     Node 20, Type 1, BuildingBlock: HISSIN_clean_sbu_0, # of connection points: 6
#     Node 21, Type 1, BuildingBlock: HISSIN_clean_sbu_0, # of connection points: 6
#     Node 22, Type 1, BuildingBlock: HISSIN_clean_sbu_0, # of connection points: 6
#     Node 23, Type 1, BuildingBlock: HISSIN_clean_sbu_0, # of connection points: 6
#     Node 24, Type 1, BuildingBlock: HISSIN_clean_sbu_0, # of connection points: 6
#     Node 25, Type 1, BuildingBlock: HISSIN_clean_sbu_0, # of connection points: 6
#     Node 26, Type 1, BuildingBlock: HISSIN_clean_sbu_0, # of connection points: 6
#     Edge 27, Type (0, 1), BuildingBlock: UVAHIK_clean_linker_0, # of connection points: 2
#     Edge 28, Type (0, 1), BuildingBlock: UVAHIK_clean_linker_0, # of connection points: 2
#     Edge 29, Type (0, 1), BuildingBlock: UVAHIK_clean_linker_0, # of connection points: 2
#     Edge 30, Type (0, 1), BuildingBlock: UVAHIK_clean_linker_0, # of connection points: 2
#     Edge 31, Type (0, 1), BuildingBlock: UVAHIK_clean_linker_0, # of connection points: 2
#     Edge 32, Type (0, 1), BuildingBlock: UVAHIK_clean_linker_0, # of connection points: 2
#     Edge 33, Type (0, 1), BuildingBlock: UVAHIK_clean_linker_0, # of connection points: 2
#     Edge 34, Type (0, 1), BuildingBlock: UVAHIK_clean_linker_0, # of connection points: 2
#     Edge 35, Type (0, 1), BuildingBlock: UVAHIK_clean_linker_0, # of connection points: 2
#     Edge 36, Type (0, 1), BuildingBlock: UVAHIK_clean_linker_0, # of connection points: 2
#     Edge 37, Type (0, 1), BuildingBlock: UVAHIK_clean_linker_0, # of connection points: 2
#     Edge 38, Type (0, 1), BuildingBlock: UVAHIK_clean_linker_0, # of connection points: 2
#     Edge 39, Type (0, 1), BuildingBlock: UVAHIK_clean_linker_0, # of connection points: 2
#     Edge 40, Type (0, 1), BuildingBlock: UVAHIK_clean_linker_0, # of connection points: 2
#     Edge 41, Type (0, 1), BuildingBlock: UVAHIK_clean_linker_0, # of connection points: 2
#     Edge 42, Type (0, 1), BuildingBlock: UVAHIK_clean_linker_0, # of connection points: 2
#     Edge 43, Type (0, 1), BuildingBlock: UVAHIK_clean_linker_0, # of connection points: 2
#     Edge 44, Type (0, 1), BuildingBlock: UVAHIK_clean_linker_0, # of connection points: 2
#     Edge 45, Type (0, 1), BuildingBlock: UVAHIK_clean_linker_0, # of connection points: 2
#     Edge 46, Type (0, 1), BuildingBlock: UVAHIK_clean_linker_0, # of connection points: 2
#     Edge 47, Type (0, 1), BuildingBlock: UVAHIK_clean_linker_0, # of connection points: 2
#     Edge 48, Type (0, 1), BuildingBlock: UVAHIK_clean_linker_0, # of connection points: 2
#     Edge 49, Type (0, 1), BuildingBlock: UVAHIK_clean_linker_0, # of connection points: 2
#     Edge 50, Type (0, 1), BuildingBlock: UVAHIK_clean_linker_0, # of connection points: 2
#     Edge 51, Type (0, 1), BuildingBlock: UVAHIK_clean_linker_0, # of connection points: 2
#     Edge 52, Type (0, 1), BuildingBlock: UVAHIK_clean_linker_0, # of connection points: 2
#     Edge 53, Type (0, 1), BuildingBlock: UVAHIK_clean_linker_0, # of connection points: 2
#     Edge 54, Type (0, 1), BuildingBlock: UVAHIK_clean_linker_0, # of connection points: 2
#     Edge 55, Type (0, 1), BuildingBlock: UVAHIK_clean_linker_0, # of connection points: 2
#     Edge 56, Type (0, 1), BuildingBlock: UVAHIK_clean_linker_0, # of connection points: 2
#     Edge 57, Type (0, 1), BuildingBlock: UVAHIK_clean_linker_0, # of connection points: 2
#     Edge 58, Type (0, 1), BuildingBlock: UVAHIK_clean_linker_0, # of connection points: 2
#     Edge 59, Type (0, 1), BuildingBlock: UVAHIK_clean_linker_0, # of connection points: 2
#     Edge 60, Type (0, 1), BuildingBlock: UVAHIK_clean_linker_0, # of connection points: 2
#     Edge 61, Type (0, 1), BuildingBlock: UVAHIK_clean_linker_0, # of connection points: 2
#     Edge 62, Type (0, 1), BuildingBlock: UVAHIK_clean_linker_0, # of connection points: 2
#     Edge 63, Type (0, 1), BuildingBlock: UVAHIK_clean_linker_0, # of connection points: 2
#     Edge 64, Type (0, 1), BuildingBlock: UVAHIK_clean_linker_0, # of connection points: 2
#     Edge 65, Type (0, 1), BuildingBlock: UVAHIK_clean_linker_0, # of connection points: 2
#     Edge 66, Type (0, 1), BuildingBlock: UVAHIK_clean_linker_0, # of connection points: 2
#     Edge 67, Type (0, 1), BuildingBlock: UVAHIK_clean_linker_0, # of connection points: 2
#     Edge 68, Type (0, 1), BuildingBlock: UVAHIK_clean_linker_0, # of connection points: 2
#     Edge 69, Type (0, 1), BuildingBlock: UVAHIK_clean_linker_0, # of connection points: 2
#     Edge 70, Type (0, 1), BuildingBlock: UVAHIK_clean_linker_0, # of connection points: 2
#     Edge 71, Type (0, 1), BuildingBlock: UVAHIK_clean_linker_0, # of connection points: 2
#     Edge 72, Type (0, 1), BuildingBlock: UVAHIK_clean_linker_0, # of connection points: 2
#     Edge 73, Type (0, 1), BuildingBlock: UVAHIK_clean_linker_0, # of connection points: 2
#     Edge 74, Type (0, 1), BuildingBlock: UVAHIK_clean_linker_0, # of connection points: 2
#     Edge 75, Type (0, 1), BuildingBlock: UVAHIK_clean_linker_0, # of connection points: 2
#     Edge 76, Type (0, 1), BuildingBlock: UVAHIK_clean_linker_0, # of connection points: 2
#     Edge 77, Type (0, 1), BuildingBlock: UVAHIK_clean_linker_0, # of connection points: 2
#     Edge 78, Type (0, 1), BuildingBlock: UVAHIK_clean_linker_0, # of connection points: 2
#     Edge 79, Type (0, 1), BuildingBlock: UVAHIK_clean_linker_0, # of connection points: 2
#     Edge 80, Type (0, 1), BuildingBlock: UVAHIK_clean_linker_0, # of connection points: 2
# Relax obj value: 0.027
# Max RMSD: 0.180
# Mean RMSD: 0.118
data_MOF--net-eea--node1-OLANEW_clean_sbu_2--node2-HISSIN_clean_sbu_0--edge1-UVAHIK_clean_linker_0
_symmetry_space_group_name_H-M    P1
_symmetry_Int_Tables_number       1
_symmetry_cell_setting            triclinic
loop_
_symmetry_equiv_pos_as_xyz
'x, y, z'
_cell_length_a     77.158741
_cell_length_b     76.114771
_cell_length_c     87.713973
_cell_angle_alpha  96.865327
_cell_angle_beta   93.681929
_cell_angle_gamma 120.2349
loop_
_atom_site_label
_atom_site_type_symbol
_atom_site_fract_x
_atom_site_fract_y
_atom_site_fract_z
_atom_type_partial_charge
O0 O 0.26448 0.14241 0.42382 0.0
Cd1 Cd 0.2478 0.13081 0.3969 0.0
O2 O 0.291 0.14048 0.41849 0.0
Cd3 Cd 0.27698 0.12432 0.39482 0.0
O4 O 0.26029 0.0939 0.38008 0.0
C5 C 0.24723 0.07977 0.3865 0.0
O6 O 0.24423 0.08488 0.40051 0.0
C7 C 0.2818 0.14509 0.42825 0.0
C8 C 0.2363 0.15785 0.38791 0.0
O9 O 0.22434 0.14246 0.39407 0.0
O10 O 0.25367 0.16036 0.38589 0.0
O11 O 0.89122 0.19844 0.42066 0.0
Cd12 Cd 0.89659 0.20762 0.39492 0.0
O13 O 0.87572 0.16547 0.41087 0.0
Cd14 Cd 0.86031 0.13228 0.41106 0.0
O15 O 0.84285 0.09855 0.40638 0.0
C16 C 0.82592 0.08887 0.41129 0.0
O17 O 0.81951 0.09945 0.41957 0.0
C18 C 0.88188 0.17975 0.42262 0.0
C19 C 0.93431 0.21615 0.38751 0.0
O20 O 0.93229 0.22982 0.39589 0.0
O21 O 0.91847 0.1983 0.38267 0.0
O22 O 0.90035 0.74609 0.43863 0.0
Cd23 Cd 0.91054 0.7646 0.41681 0.0
O24 O 0.87154 0.74424 0.43271 0.0
Cd25 Cd 0.84137 0.73992 0.43348 0.0
O26 O 0.81636 0.74375 0.42511 0.0
C27 C 0.81251 0.75619 0.43298 0.0
O28 O 0.82303 0.76595 0.44677 0.0
C29 C 0.88259 0.74057 0.44161 0.0
C30 C 0.94606 0.76963 0.40677 0.0
O31 O 0.94665 0.78185 0.41847 0.0
O32 O 0.92866 0.75477 0.39997 0.0
O33 O 0.12954 0.23341 0.56687 0.0
Cd34 Cd 0.12256 0.21504 0.58874 0.0
O35 O 0.11238 0.24677 0.57623 0.0
Cd36 Cd 0.09472 0.2619 0.57738 0.0
O37 O 0.06824 0.25993 0.5865 0.0
C38 C 0.05106 0.24452 0.58036 0.0
O39 O 0.05018 0.23193 0.56828 0.0
C40 C 0.1222 0.24492 0.5657 0.0
C41 C 0.15477 0.21112 0.5999 0.0
O42 O 0.14135 0.19791 0.58863 0.0
O43 O 0.153 0.22626 0.60585 0.0
O44 O 0.72339 0.83828 0.60139 0.0
Cd45 Cd 0.74038 0.85236 0.62817 0.0
O46 O 0.75236 0.85274 0.5921 0.0
Cd47 Cd 0.76913 0.87342 0.61399 0.0
O48 O 0.77957 0.9025 0.62954 0.0
C49 C 0.76614 0.90712 0.63183 0.0
O50 O 0.74724 0.89374 0.62566 0.0
C51 C 0.7332 0.84074 0.58992 0.0
C52 C 0.75582 0.82841 0.63709 0.0
O53 O 0.73851 0.82492 0.64028 0.0
O54 O 0.76597 0.84347 0.63002 0.0
O55 O 0.09986 0.84911 0.58307 0.0
Cd56 Cd 0.09596 0.85966 0.60949 0.0
O57 O 0.12409 0.84399 0.59167 0.0
Cd58 Cd 0.12768 0.85949 0.6152 0.0
O59 O 0.14631 0.89074 0.6284 0.0
C60 C 0.16406 0.9004 0.62477 0.0
O61 O 0.1694 0.89053 0.6146 0.0
C62 C 0.11232 0.8432 0.58042 0.0
C63 C 0.05891 0.83169 0.61791 0.0
O64 O 0.07382 0.82866 0.61878 0.0
O65 O 0.06146 0.8479 0.61297 0.0
O66 O 0.92435 0.46773 0.74862 0.0
Cd67 Cd 0.91309 0.45959 0.72063 0.0
O68 O 0.95404 0.47137 0.74581 0.0
Cd69 Cd 0.94431 0.45735 0.72133 0.0
O70 O 0.92809 0.42731 0.7061 0.0
C71 C 0.91446 0.41317 0.71216 0.0
O72 O 0.91096 0.41818 0.726 0.0
C73 C 0.94195 0.47244 0.75455 0.0
C74 C 0.90099 0.48618 0.7117 0.0
O75 O 0.88797 0.46835 0.71441 0.0
O76 O 0.91968 0.49135 0.7131 0.0
O77 O 0.55585 0.52805 0.75961 0.0
Cd78 Cd 0.56168 0.53791 0.73409 0.0
O79 O 0.53769 0.49527 0.74918 0.0
Cd80 Cd 0.51963 0.4619 0.74856 0.0
O81 O 0.50114 0.42834 0.74182 0.0
C82 C 0.49469 0.41613 0.75153 0.0
O83 O 0.49928 0.42379 0.76644 0.0
C84 C 0.54502 0.50931 0.76119 0.0
C85 C 0.59945 0.54677 0.72657 0.0
O86 O 0.59741 0.56026 0.73517 0.0
O87 O 0.58363 0.52893 0.72162 0.0
O88 O 0.56318 0.06079 0.76399 0.0
Cd89 Cd 0.57228 0.07747 0.74126 0.0
O90 O 0.54136 0.07085 0.76242 0.0
Cd91 Cd 0.51608 0.07527 0.76647 0.0
O92 O 0.4956 0.08545 0.75899 0.0
C93 C 0.47922 0.08122 0.76424 0.0
O94 O 0.47376 0.07009 0.7753 0.0
C95 C 0.54891 0.06203 0.76945 0.0
C96 C 0.60994 0.08673 0.73342 0.0
O97 O 0.60837 0.0987 0.74409 0.0
O98 O 0.59372 0.07017 0.72666 0.0
O99 O 0.79507 0.57468 0.90897 0.0
Cd100 Cd 0.78311 0.55478 0.92986 0.0
O101 O 0.77524 0.58771 0.91015 0.0
Cd102 Cd 0.75897 0.57247 0.92862 0.0
O103 O 0.73297 0.56106 0.9414 0.0
C104 C 0.71552 0.55016 0.93331 0.0
O105 O 0.71429 0.5457 0.91819 0.0
C106 C 0.78895 0.58598 0.90406 0.0
C107 C 0.81183 0.54589 0.94162 0.0
O108 O 0.7992 0.53477 0.92935 0.0
O109 O 0.81082 0.56113 0.94846 0.0
O110 O 0.39311 0.17348 0.93538 0.0
Cd111 Cd 0.40829 0.18484 0.96266 0.0
O112 O 0.42288 0.1908 0.92762 0.0
Cd113 Cd 0.43761 0.20909 0.9506 0.0
O114 O 0.44451 0.23668 0.96657 0.0
C115 C 0.42993 0.23993 0.96729 0.0
O116 O 0.41207 0.226 0.95946 0.0
C117 C 0.40386 0.17815 0.92445 0.0
C118 C 0.42488 0.16133 0.97025 0.0
O119 O 0.40708 0.15656 0.97309 0.0
O120 O 0.43492 0.17737 0.96411 0.0
O121 O 0.77132 0.18334 0.91052 0.0
Cd122 Cd 0.7666 0.19629 0.93591 0.0
O123 O 0.79585 0.17935 0.92025 0.0
Cd124 Cd 0.79777 0.19504 0.9433 0.0
O125 O 0.81287 0.22608 0.95696 0.0
C126 C 0.81579 0.24 0.949 0.0
O127 O 0.80863 0.23437 0.93412 0.0
C128 C 0.78414 0.17772 0.90859 0.0
C129 C 0.73105 0.16803 0.94613 0.0
O130 O 0.73128 0.18105 0.93801 0.0
O131 O 0.74763 0.16826 0.94931 0.0
O132 O 0.58833 0.80144 0.08936 0.0
Cd133 Cd 0.5728 0.78943 0.0621 0.0
O134 O 0.61737 0.80452 0.08484 0.0
Cd135 Cd 0.60529 0.78907 0.06079 0.0
O136 O 0.5889 0.75906 0.04549 0.0
C137 C 0.57557 0.74475 0.05161 0.0
O138 O 0.57235 0.74952 0.06562 0.0
C139 C 0.6064 0.80652 0.0943 0.0
C140 C 0.56265 0.81658 0.05129 0.0
O141 O 0.55013 0.80175 0.05768 0.0
O142 O 0.57995 0.81851 0.04996 0.0
O143 O 0.22593 0.85546 0.08872 0.0
Cd144 Cd 0.23003 0.85203 0.06134 0.0
O145 O 0.21517 0.82251 0.08482 0.0
Cd146 Cd 0.20026 0.7907 0.08892 0.0
O147 O 0.18189 0.75705 0.08389 0.0
C148 C 0.16372 0.74788 0.0867 0.0
O149 O 0.15666 0.75889 0.09339 0.0
C150 C 0.21885 0.83866 0.09396 0.0
C151 C 0.27024 0.87241 0.05611 0.0
O152 O 0.25954 0.88087 0.05506 0.0
O153 O 0.262 0.85442 0.05982 0.0
O154 O 0.22946 0.41777 0.10458 0.0
Cd155 Cd 0.23506 0.43521 0.0821 0.0
O156 O 0.1962 0.40242 0.09976 0.0
Cd157 Cd 0.19417 0.41798 0.08093 0.0
O158 O 0.17723 0.4299 0.06944 0.0
C159 C 0.16965 0.43776 0.07841 0.0
O160 O 0.1733 0.43891 0.09345 0.0
C161 C 0.21202 0.40542 0.10787 0.0
C162 C 0.27117 0.44294 0.07127 0.0
O163 O 0.27083 0.45626 0.08147 0.0
O164 O 0.25444 0.42597 0.06617 0.0
O165 O 0.46391 0.90869 0.23966 0.0
Cd166 Cd 0.45063 0.88824 0.26003 0.0
O167 O 0.45053 0.92799 0.24457 0.0
Cd168 Cd 0.43416 0.91227 0.26277 0.0
O169 O 0.40873 0.8995 0.27598 0.0
C170 C 0.39124 0.88713 0.26827 0.0
O171 O 0.38966 0.88207 0.25317 0.0
C172 C 0.46129 0.9232 0.23669 0.0
C173 C 0.47904 0.87953 0.2726 0.0
O174 O 0.46685 0.86844 0.26012 0.0
O175 O 0.47765 0.89461 0.27927 0.0
O176 O 0.05664 0.50365 0.26441 0.0
Cd177 Cd 0.07277 0.51751 0.2914 0.0
O178 O 0.08602 0.51919 0.25581 0.0
Cd179 Cd 0.10156 0.53979 0.27794 0.0
O180 O 0.11033 0.56822 0.29372 0.0
C181 C 0.09652 0.57256 0.29493 0.0
O182 O 0.07819 0.55928 0.28754 0.0
C183 C 0.06695 0.50665 0.25322 0.0
C184 C 0.08874 0.49396 0.3002 0.0
O185 O 0.07116 0.48992 0.3031 0.0
O186 O 0.09895 0.50943 0.29353 0.0
O187 O 0.43966 0.51912 0.25427 0.0
Cd188 Cd 0.43685 0.52978 0.28101 0.0
O189 O 0.46422 0.51389 0.26174 0.0
Cd190 Cd 0.46842 0.52911 0.28547 0.0
O191 O 0.48376 0.56042 0.29868 0.0
C192 C 0.48645 0.57393 0.29038 0.0
O193 O 0.47912 0.56774 0.27553 0.0
C194 C 0.45194 0.51318 0.25095 0.0
C195 C 0.39973 0.50255 0.28975 0.0
O196 O 0.40268 0.51899 0.28498 0.0
O197 O 0.41429 0.49897 0.29034 0.0
Eu198 Eu 0.49957 0.98634 0.98685 0.0
Eu199 Eu 0.51594 0.00895 0.02358 0.0
C200 C 0.49822 0.02637 0.99927 0.0
C201 C 0.49101 0.97636 0.94266 0.0
C202 C 0.50116 -0.0025 0.94196 0.0
C203 C 0.48859 0.96845 0.9147 0.0
C204 C 0.5049 0.00409 0.92768 0.0
C205 C 0.48478 0.96189 0.92898 0.0
C206 C 0.49865 0.98962 0.91388 0.0
C207 C 0.48693 0.96926 0.95758 0.0
O208 O 0.48657 0.97937 0.0235 0.0
O209 O 0.47217 0.97683 0.9991 0.0
C210 C 0.47051 0.97245 0.01316 0.0
O211 O 0.5017 0.96314 0.99935 0.0
O212 O 0.51131 0.02262 0.04503 0.0
O213 O 0.53893 0.02195 0.04413 0.0
O214 O 0.52612 0.98601 0.01952 0.0
C215 C 0.51588 0.96761 0.01079 0.0
O216 O 0.53351 0.00656 0.98891 0.0
O217 O 0.53922 0.03049 0.01014 0.0
O218 O 0.49799 0.02161 0.01318 0.0
O219 O 0.50188 0.96966 0.96577 0.0
O220 O 0.47765 0.97623 0.96603 0.0
O221 O 0.50338 0.01782 0.98798 0.0
C222 C 0.52532 0.01808 0.06762 0.0
C223 C 0.51469 -0.00323 0.06767 0.0
C224 C 0.52934 0.02468 0.09575 0.0
C225 C 0.51125 0.98944 0.0817 0.0
C226 C 0.53275 0.03199 0.0817 0.0
C227 C 0.51837 0.00332 0.0959 0.0
C228 C 0.52785 0.02587 0.05292 0.0
C229 C 0.54502 0.02482 0.99768 0.0
H230 H 0.5062 0.0089 0.95246 0.0
H231 H 0.48341 0.95694 0.90427 0.0
H232 H 0.51291 0.0205 0.92745 0.0
H233 H 0.47693 0.9455 0.92934 0.0
H234 H 0.50884 0.98583 0.05686 0.0
H235 H 0.5348 0.03576 0.10645 0.0
H236 H 0.50298 0.97291 0.08143 0.0
H237 H 0.54087 0.04849 0.08182 0.0
Eu238 Eu 0.00117 0.49635 0.99333 0.0
Eu239 Eu 0.98528 0.49409 0.02754 0.0
C240 C 0.96564 0.45449 0.00102 0.0
C241 C 0.0065 0.49743 0.95018 0.0
C242 C 0.98605 0.48366 0.94398 0.0
C243 C 0.01312 0.50855 0.92531 0.0
C244 C 0.97923 0.4822 0.92845 0.0
C245 C 0.01993 0.50988 0.94077 0.0
C246 C 0.99272 0.49465 0.91896 0.0
C247 C 0.01414 0.49931 0.96643 0.0
O248 O 0.01427 0.49372 0.03134 0.0
O249 O 0.01581 0.48226 0.0063 0.0
C250 C 0.02159 0.48585 0.02132 0.0
O251 O 0.02459 0.52455 0.01038 0.0
O252 O 0.96291 0.47857 0.04276 0.0
O253 O 0.99019 0.50806 0.05173 0.0
O254 O 0.00208 0.52722 0.02443 0.0
C255 C 0.01996 0.53567 0.01991 0.0
O256 O 0.9787 0.5069 0.99128 0.0
O257 O 0.96193 0.49594 0.01222 0.0
O258 O 0.97388 0.4616 0.01562 0.0
O259 O 0.01635 0.51501 0.97603 0.0
O260 O 0.00648 0.48241 0.97234 0.0
O261 O 0.97099 0.46676 0.9907 0.0
C262 C 0.97699 0.48464 0.06886 0.0
C263 C 0.99007 0.47692 0.06968 0.0
C264 C 0.9719 0.48061 0.09549 0.0
C265 C 0.99433 0.4714 0.08345 0.0
C266 C 0.9677 0.48616 0.08173 0.0
C267 C 0.98553 0.4735 0.0966 0.0
C268 C 0.97396 0.49239 0.05504 0.0
C269 C 0.96366 0.50324 0.9992 0.0
H270 H 0.97538 0.47406 0.95112 0.0
H271 H 0.0239 0.51815 0.91824 0.0
H272 H 0.9634 0.4715 0.9239 0.0
H273 H 0.03575 0.52062 0.94539 0.0
H274 H -0.00264 0.47565 0.05979 0.0
H275 H 0.9651 0.48269 0.10545 0.0
H276 H 0.00472 0.46577 0.08389 0.0
H277 H 0.95764 0.49219 0.08128 0.0
Eu278 Eu 0.50409 0.49413 0.02299 0.0
Eu279 Eu 0.48294 0.48611 0.98709 0.0
C280 C 0.50434 0.53042 0.00828 0.0
C281 C 0.5128 0.50042 0.06715 0.0
C282 C 0.50427 0.51257 0.07107 0.0
C283 C 0.50773 0.48925 0.09211 0.0
C284 C 0.49762 0.51313 0.0855 0.0
C285 C 0.51457 0.48887 0.07779 0.0
C286 C 0.49913 0.50132 0.09609 0.0
C287 C 0.51887 0.49854 0.05175 0.0
O288 O 0.51318 0.48888 0.98511 0.0
O289 O 0.5304 0.50668 0.00944 0.0
C290 C 0.53017 0.50006 0.99484 0.0
O291 O 0.4994 0.46434 0.01017 0.0
O292 O 0.47112 0.49463 0.96779 0.0
O293 O 0.46968 0.46521 0.96485 0.0
O294 O 0.4701 0.45577 0.99556 0.0
C295 C 0.48183 0.45025 0.00222 0.0
O296 O 0.4707 0.48049 0.02426 0.0
O297 O 0.46058 0.48756 0.00169 0.0
O298 O 0.5033 0.52055 0.99459 0.0
O299 O 0.50741 0.48068 0.04274 0.0
O300 O 0.52417 0.51396 0.0443 0.0
O301 O 0.50034 0.52111 0.02036 0.0
C302 C 0.47406 0.48102 0.94275 0.0
C303 C 0.46686 0.46356 0.93117 0.0
C304 C 0.49433 0.50258 0.92495 0.0
C305 C 0.4734 0.46552 0.91667 0.0
C306 C 0.48788 0.50059 0.93953 0.0
C307 C 0.48719 0.48505 0.91334 0.0
C308 C 0.46712 0.47823 0.95805 0.0
C309 C 0.45742 0.48232 0.01545 0.0
H310 H 0.50249 0.52141 0.06295 0.0
H311 H 0.50929 0.48018 0.10013 0.0
H312 H 0.49091 0.52245 0.08824 0.0
H313 H 0.52102 0.47933 0.07494 0.0
H314 H 0.45625 0.44831 0.93341 0.0
H315 H 0.50476 0.51789 0.92273 0.0
H316 H 0.46784 0.45165 0.90813 0.0
H317 H 0.49373 0.51434 0.94825 0.0
Eu318 Eu 0.16435 0.31901 0.32123 0.0
Eu319 Eu 0.17692 0.3427 0.35778 0.0
C320 C 0.15828 0.35663 0.33155 0.0
C321 C 0.16181 0.30945 0.27735 0.0
C322 C 0.17651 0.33016 0.27745 0.0
C323 C 0.15842 0.30266 0.24925 0.0
C324 C 0.18213 0.33711 0.2635 0.0
C325 C 0.15284 0.29574 0.26321 0.0
C326 C 0.17309 0.32345 0.24923 0.0
C327 C 0.15562 0.30207 0.29191 0.0
O328 O 0.14853 0.31229 0.35747 0.0
O329 O 0.13532 0.30553 0.33178 0.0
C330 C 0.13315 0.30267 0.3462 0.0
O331 O 0.16713 0.29723 0.33497 0.0
O332 O 0.16966 0.35651 0.37771 0.0
O333 O 0.19823 0.35741 0.37934 0.0
O334 O 0.18894 0.32106 0.35604 0.0
C335 C 0.18042 0.30266 0.34734 0.0
O336 O 0.19828 0.34032 0.32551 0.0
O337 O 0.20026 0.36476 0.34464 0.0
O338 O 0.15704 0.35186 0.34546 0.0
O339 O 0.16965 0.3028 0.30155 0.0
O340 O 0.14497 0.3086 0.2989 0.0
O341 O 0.16563 0.34926 0.32124 0.0
C342 C 0.18199 0.35362 0.40194 0.0
C343 C 0.1874 0.33971 0.40643 0.0
C344 C 0.16686 0.35274 0.42553 0.0
C345 C 0.18252 0.33235 0.42035 0.0
C346 C 0.1719 0.36023 0.41169 0.0
C347 C 0.17194 0.33855 0.42998 0.0
C348 C 0.1857 0.36057 0.38685 0.0
C349 C 0.20805 0.35914 0.33357 0.0
H350 H 0.18354 0.34097 0.28831 0.0
H351 H 0.15136 0.29169 0.23849 0.0
H352 H 0.19328 0.35325 0.26388 0.0
H353 H 0.1415 0.27968 0.26295 0.0
H354 H 0.19514 0.33428 0.39913 0.0
H355 H 0.15847 0.35764 0.43251 0.0
H356 H 0.18699 0.32173 0.42352 0.0
H357 H 0.1675 0.37088 0.40842 0.0
Eu358 Eu 0.66723 0.83125 0.33232 0.0
Eu359 Eu 0.65003 0.83121 0.36587 0.0
C360 C 0.63065 0.7905 0.34031 0.0
C361 C 0.6746 0.83102 0.28943 0.0
C362 C 0.65435 0.8174 0.28263 0.0
C363 C 0.68267 0.84266 0.26484 0.0
C364 C 0.64836 0.8163 0.26698 0.0
C365 C 0.68867 0.84362 0.28043 0.0
C366 C 0.66246 0.82898 0.25794 0.0
C367 C 0.68135 0.83278 0.3059 0.0
O368 O 0.67856 0.83045 0.37098 0.0
O369 O 0.68013 0.81669 0.34672 0.0
C370 C 0.6853 0.82098 0.36187 0.0
O371 O 0.69039 0.85999 0.34904 0.0
O372 O 0.62696 0.8168 0.38083 0.0
O373 O 0.65443 0.84616 0.38971 0.0
O374 O 0.6677 0.86399 0.362 0.0
C375 C 0.68569 0.87182 0.3577 0.0
O376 O 0.64517 0.8421 0.32855 0.0
O377 O 0.62765 0.83292 0.34941 0.0
O378 O 0.63832 0.79823 0.35497 0.0
O379 O 0.68413 0.849 0.31515 0.0
O380 O 0.67252 0.81605 0.31199 0.0
O381 O 0.63663 0.80219 0.32964 0.0
C382 C 0.64074 0.82313 0.40701 0.0
C383 C 0.65266 0.81406 0.40761 0.0
C384 C 0.63656 0.82044 0.43394 0.0
C385 C 0.65678 0.80849 0.4214 0.0
C386 C 0.63249 0.82603 0.42015 0.0
C387 C 0.64902 0.81192 0.43479 0.0
C388 C 0.63798 0.83078 0.39305 0.0
C389 C 0.62999 0.83937 0.33603 0.0
H390 H 0.64318 0.80769 0.28943 0.0
H391 H 0.69392 0.85244 0.25814 0.0
H392 H 0.63264 0.80576 0.262 0.0
H393 H 0.70435 0.85427 0.2855 0.0
H394 H 0.65914 0.81171 0.39752 0.0
H395 H 0.63059 0.82354 0.44409 0.0
H396 H 0.66625 0.80177 0.42164 0.0
H397 H 0.62335 0.83313 0.41986 0.0
Eu398 Eu 0.17966 0.82879 0.3575 0.0
Eu399 Eu 0.15933 0.82235 0.32147 0.0
C400 C 0.18013 0.86576 0.34388 0.0
C401 C 0.18713 0.83416 0.4014 0.0
C402 C 0.17809 0.84597 0.4047 0.0
C403 C 0.18081 0.82286 0.42626 0.0
C404 C 0.17056 0.8463 0.41875 0.0
C405 C 0.18853 0.82273 0.4123 0.0
C406 C 0.17166 0.83456 0.42959 0.0
C407 C 0.19378 0.83228 0.38625 0.0
O408 O 0.1892 0.82415 0.31979 0.0
O409 O 0.20615 0.84174 0.3442 0.0
C410 C 0.20608 0.83511 0.32965 0.0
O411 O 0.17416 0.79879 0.34426 0.0
O412 O 0.14846 0.83271 0.30285 0.0
O413 O 0.14714 0.8034 0.29848 0.0
O414 O 0.14569 0.79133 0.32886 0.0
C415 C 0.15679 0.78523 0.33574 0.0
O416 O 0.14647 0.81577 0.35873 0.0
O417 O 0.13573 0.82157 0.3357 0.0
O418 O 0.17975 0.85655 0.33012 0.0
O419 O 0.18218 0.81461 0.37703 0.0
O420 O 0.19982 0.84793 0.37895 0.0
O421 O 0.1757 0.85581 0.35562 0.0
C422 C 0.153 0.82183 0.2778 0.0
C423 C 0.17182 0.824 0.27564 0.0
C424 C 0.14854 0.82681 0.25134 0.0
C425 C 0.17877 0.82718 0.26131 0.0
C426 C 0.14153 0.82348 0.26563 0.0
C427 C 0.16711 0.82843 0.24896 0.0
C428 C 0.14484 0.81706 0.29244 0.0
C429 C 0.13288 0.81672 0.34959 0.0
H430 H 0.17654 0.85465 0.39634 0.0
H431 H 0.18203 0.81385 0.43447 0.0
H432 H 0.16343 0.85531 0.42099 0.0
H433 H 0.19532 0.8134 0.4099 0.0
H434 H 0.18097 0.82292 0.28496 0.0
H435 H 0.13914 0.82753 0.242 0.0
H436 H 0.19325 0.82863 0.25989 0.0
H437 H 0.12697 0.82183 0.26711 0.0
Eu438 Eu 0.82479 0.64847 0.6535 0.0
Eu439 Eu 0.8409 0.67138 0.69027 0.0
C440 C 0.82165 0.68752 0.66622 0.0
C441 C 0.81835 0.64053 0.6095 0.0
C442 C 0.8338 0.66103 0.60985 0.0
C443 C 0.81199 0.63563 0.5814 0.0
C444 C 0.83837 0.66878 0.59604 0.0
C445 C 0.80747 0.62789 0.59523 0.0
C446 C 0.82751 0.65617 0.58164 0.0
C447 C 0.81334 0.6324 0.62399 0.0
O448 O 0.81205 0.64159 0.69059 0.0
O449 O 0.79704 0.63593 0.66559 0.0
C450 C 0.79592 0.63273 0.68 0.0
O451 O 0.8276 0.62574 0.66606 0.0
O452 O 0.83642 0.68493 0.71187 0.0
O453 O 0.86422 0.68473 0.71063 0.0
O454 O 0.85235 0.64947 0.68573 0.0
C455 C 0.84232 0.63089 0.67724 0.0
O456 O 0.85883 0.66902 0.65626 0.0
O457 O 0.86297 0.69346 0.67645 0.0
O458 O 0.82169 0.68283 0.68012 0.0
O459 O 0.8279 0.63246 0.63247 0.0
O460 O 0.80357 0.6389 0.63228 0.0
O461 O 0.82718 0.67937 0.65493 0.0
C462 C 0.851 0.68065 0.73432 0.0
C463 C 0.84219 0.65943 0.7344 0.0
C464 C 0.85363 0.68696 0.76239 0.0
C465 C 0.839 0.652 0.7484 0.0
C466 C 0.85683 0.69437 0.74837 0.0
C467 C 0.84451 0.66566 0.76257 0.0
C468 C 0.85315 0.68841 0.7196 0.0
C469 C 0.86949 0.68773 0.66449 0.0
H470 H 0.84226 0.67104 0.62081 0.0
H471 H 0.8035 0.62547 0.57051 0.0
H472 H 0.85021 0.68473 0.59666 0.0
H473 H 0.79548 0.61203 0.59477 0.0
H474 H 0.83754 0.64862 0.72361 0.0
H475 H 0.85779 0.69786 0.77304 0.0
H476 H 0.83219 0.63555 0.74813 0.0
H477 H 0.86351 0.71078 0.74848 0.0
Eu478 Eu 0.33976 0.16156 0.66411 0.0
Eu479 Eu 0.31818 0.15832 0.69571 0.0
C480 C 0.29979 0.12004 0.66826 0.0
C481 C 0.35014 0.16419 0.62217 0.0
C482 C 0.32963 0.15336 0.61563 0.0
C483 C 0.3596 0.17494 0.59755 0.0
C484 C 0.32415 0.15317 0.60007 0.0
C485 C 0.36506 0.17498 0.61306 0.0
C486 C 0.33909 0.16401 0.59088 0.0
C487 C 0.35621 0.16505 0.63859 0.0
O488 O 0.3364 0.14299 0.69824 0.0
O489 O 0.36002 0.15907 0.68229 0.0
C490 C 0.3539 0.14827 0.6935 0.0
O491 O 0.35293 0.19375 0.67755 0.0
O492 O 0.29818 0.13943 0.71099 0.0
O493 O 0.31258 0.17271 0.71637 0.0
O494 O 0.34973 0.18603 0.70191 0.0
C495 C 0.35832 0.19931 0.69262 0.0
O496 O 0.31126 0.16173 0.65718 0.0
O497 O 0.30852 0.17516 0.68112 0.0
O498 O 0.29528 0.13144 0.67761 0.0
O499 O 0.35831 0.18066 0.64817 0.0
O500 O 0.34689 0.14786 0.64399 0.0
O501 O 0.31787 0.12781 0.66402 0.0
C502 C 0.30906 0.15492 0.73715 0.0
C503 C 0.32628 0.1534 0.74018 0.0
C504 C 0.30494 0.15514 0.76434 0.0
C505 C 0.33274 0.15263 0.75518 0.0
C506 C 0.29843 0.15581 0.74928 0.0
C507 C 0.32217 0.15351 0.76745 0.0
C508 C 0.30214 0.15528 0.7213 0.0
C509 C 0.3041 0.17113 0.66593 0.0
H510 H 0.31787 0.14515 0.62256 0.0
H511 H 0.37145 0.18324 0.59072 0.0
H512 H 0.30823 0.14481 0.59529 0.0
H513 H 0.38096 0.18351 0.61796 0.0
H514 H 0.33465 0.15268 0.73091 0.0
H515 H 0.29663 0.15614 0.77356 0.0
H516 H 0.34587 0.15107 0.7571 0.0
H517 H 0.28513 0.15704 0.7471 0.0
Eu518 Eu 0.84889 0.16496 0.68522 0.0
Eu519 Eu 0.82549 0.15459 0.6496 0.0
C520 C 0.84529 0.19919 0.67027 0.0
C521 C 0.85915 0.17226 0.7292 0.0
C522 C 0.84958 0.18338 0.73318 0.0
C523 C 0.85436 0.16047 0.75399 0.0
C524 C 0.84254 0.18311 0.74751 0.0
C525 C 0.8616 0.16095 0.73976 0.0
C526 C 0.84467 0.17146 0.75798 0.0
C527 C 0.86535 0.17098 0.71376 0.0
O528 O 0.85608 0.15854 0.64729 0.0
O529 O 0.87398 0.17912 0.6707 0.0
C530 C 0.87333 0.17183 0.65618 0.0
O531 O 0.84425 0.13487 0.67285 0.0
O532 O 0.81166 0.16131 0.63034 0.0
O533 O 0.81287 0.13326 0.62755 0.0
O534 O 0.8141 0.12505 0.65891 0.0
C535 C 0.82645 0.12024 0.66553 0.0
O536 O 0.81585 0.15079 0.68778 0.0
O537 O 0.80259 0.15379 0.66454 0.0
O538 O 0.84407 0.18925 0.65656 0.0
O539 O 0.85492 0.15288 0.7049 0.0
O540 O 0.86909 0.18597 0.70615 0.0
O541 O 0.84261 0.19035 0.68258 0.0
C542 C 0.81526 0.14842 0.60528 0.0
C543 C 0.80951 0.13107 0.59394 0.0
C544 C 0.83339 0.17059 0.58704 0.0
C545 C 0.81573 0.13341 0.57935 0.0
C546 C 0.82727 0.16824 0.60171 0.0
C547 C 0.82771 0.15319 0.57567 0.0
C548 C 0.80875 0.14528 0.62069 0.0
C549 C 0.8011 0.15009 0.67882 0.0
H550 H 0.84723 0.19198 0.72514 0.0
H551 H 0.85638 0.15154 0.7619 0.0
H552 H 0.83497 0.19157 0.75025 0.0
H553 H 0.86882 0.15217 0.73687 0.0
H554 H 0.8003 0.11563 0.59644 0.0
H555 H 0.84239 0.18605 0.58455 0.0
H556 H 0.81134 0.11966 0.57101 0.0
H557 H 0.83197 0.18192 0.61022 0.0
C558 C 0.29808 0.89885 0.04401 0.0
C559 C 0.29133 0.88291 0.05275 0.0
C560 C 0.31777 0.90831 0.04031 0.0
C561 C 0.362 0.90102 0.03863 0.0
H562 H 0.38957 0.9587 0.03432 0.0
C563 C 0.4471 0.95103 0.03074 0.0
C564 C 0.45013 0.96083 0.01773 0.0
C565 C 0.42789 0.9409 0.03539 0.0
C566 C 0.382 0.94257 0.03547 0.0
H567 H 0.30001 0.86466 0.0648 0.0
H568 H 0.33468 0.88176 0.059 0.0
H569 H 0.35612 0.94281 0.04245 0.0
H570 H 0.43546 0.96775 0.9994 0.0
H571 H 0.4021 0.95053 0.00779 0.0
H572 H 0.38844 0.90123 0.03209 0.0
C573 C 0.32462 0.88655 0.0545 0.0
C574 C 0.36276 0.93338 0.04001 0.0
C575 C 0.30477 0.87683 0.05795 0.0
C576 C 0.43359 0.96023 0.00942 0.0
C577 C 0.41454 0.9505 0.01425 0.0
C578 C 0.38145 0.91037 0.03438 0.0
C579 C 0.33136 0.90233 0.04553 0.0
C580 C 0.35234 0.91238 0.04144 0.0
C581 C 0.41155 0.94084 0.0273 0.0
C582 C 0.39146 0.93113 0.03257 0.0
H583 H 0.28798 0.90373 0.0397 0.0
H584 H 0.32216 0.92004 0.03309 0.0
H585 H 0.35441 0.88476 0.03934 0.0
H586 H 0.45957 0.95123 0.03736 0.0
H587 H 0.4259 0.93357 0.04551 0.0
C588 C 0.15004 0.44117 0.05609 0.0
C589 C 0.15582 0.4442 0.07216 0.0
C590 C 0.13599 0.44616 0.05038 0.0
C591 C 0.09483 0.45384 0.06228 0.0
H592 H 0.10122 0.47985 0.02598 0.0
C593 C 0.0434 0.4844 0.04307 0.0
C594 C 0.03697 0.48105 0.02708 0.0
C595 C 0.05804 0.48002 0.04845 0.0
C596 C 0.0991 0.47238 0.03603 0.0
H597 H 0.15179 0.45542 0.09481 0.0
H598 H 0.12757 0.4643 0.08487 0.0
H599 H 0.12676 0.47226 0.03546 0.0
H600 H 0.04088 0.47033 0.0042 0.0
H601 H 0.06619 0.46253 0.0136 0.0
H602 H 0.06718 0.4539 0.06287 0.0
C603 C 0.13358 0.45773 0.07667 0.0
C604 C 0.11374 0.46803 0.04147 0.0
C605 C 0.14759 0.45275 0.08236 0.0
C606 C 0.04549 0.47317 0.0166 0.0
C607 C 0.06013 0.46881 0.02198 0.0
C608 C 0.0802 0.45817 0.05686 0.0
C609 C 0.12742 0.45428 0.06062 0.0
C610 C 0.11181 0.45878 0.05469 0.0
C611 C 0.0666 0.4722 0.03797 0.0
C612 C 0.08217 0.46754 0.04369 0.0
H613 H 0.15606 0.43458 0.04792 0.0
H614 H 0.13145 0.44317 0.03796 0.0
H615 H 0.09267 0.44635 0.07233 0.0
H616 H 0.0372 0.49047 0.05148 0.0
H617 H 0.06285 0.48304 0.06083 0.0
C618 C 0.55167 0.70727 0.05148 0.0
C619 C 0.56522 0.72287 0.0439 0.0
C620 C 0.54318 0.68649 0.04504 0.0
C621 C 0.55268 0.6523 0.01814 0.0
H622 H 0.49875 0.61103 0.02449 0.0
C623 C 0.51819 0.56406 0.99856 0.0
C624 C 0.50985 0.55228 0.01017 0.0
C625 C 0.52366 0.58483 0.0006 0.0
C626 C 0.51384 0.62239 0.02264 0.0
H627 H 0.57989 0.72887 0.02327 0.0
H628 H 0.56476 0.69245 0.01185 0.0
H629 H 0.51009 0.64758 0.03124 0.0
H630 H 0.50044 0.55296 0.03292 0.0
H631 H 0.50981 0.58902 0.03639 0.0
H632 H 0.55639 0.62696 0.00966 0.0
C633 C 0.56099 0.69634 0.02294 0.0
C634 C 0.52037 0.64333 0.02653 0.0
C635 C 0.56956 0.71721 0.02944 0.0
C636 C 0.50686 0.5616 0.02376 0.0
C637 C 0.51209 0.58222 0.02571 0.0
C638 C 0.54606 0.63132 0.01412 0.0
C639 C 0.54791 0.68074 0.03079 0.0
C640 C 0.54006 0.65856 0.02472 0.0
C641 C 0.52061 0.59408 0.01419 0.0
C642 C 0.52677 0.61619 0.0167 0.0
H643 H 0.54801 0.71106 0.06265 0.0
H644 H 0.53345 0.67494 0.05155 0.0
H645 H 0.56801 0.66358 0.01674 0.0
H646 H 0.5207 0.55732 0.98796 0.0
H647 H 0.53014 0.59361 0.99152 0.0
C648 C 0.83804 0.26853 0.97138 0.0
C649 C 0.8287 0.26218 0.95585 0.0
C650 C 0.85162 0.28946 0.97732 0.0
C651 C 0.86889 0.34232 0.96947 0.0
H652 H 0.91901 0.35647 0.99436 0.0
C653 C 0.93919 0.42471 0.98111 0.0
C654 C 0.94979 0.4324 0.99629 0.0
C655 C 0.9238 0.40398 0.97684 0.0
C656 C 0.905 0.35277 0.98757 0.0
H657 H 0.82581 0.2729 0.93451 0.0
H658 H 0.84958 0.3092 0.94477 0.0
H659 H 0.89261 0.32028 0.98614 0.0
H660 H 0.95261 0.42429 0.01884 0.0
H661 H 0.9258 0.38818 0.01135 0.0
H662 H 0.88148 0.37484 0.97069 0.0
C663 C 0.8463 0.29811 0.95245 0.0
C664 C 0.88983 0.33203 0.9829 0.0
C665 C 0.83273 0.27724 0.94654 0.0
C666 C 0.94478 0.41888 0.00704 0.0
C667 C 0.92947 0.39815 0.00274 0.0
C668 C 0.88409 0.36305 0.97409 0.0
C669 C 0.85613 0.30446 0.96784 0.0
C670 C 0.87166 0.32655 0.97368 0.0
C671 C 0.91874 0.39049 0.98762 0.0
C672 C 0.90237 0.36849 0.98308 0.0
H673 H 0.83519 0.25731 0.97888 0.0
H674 H 0.85872 0.29388 0.9893 0.0
H675 H 0.85495 0.33865 0.96259 0.0
H676 H 0.94267 0.4347 0.97254 0.0
H677 H 0.91598 0.39847 0.96503 0.0
C678 C 0.67772 0.53189 0.9313 0.0
C679 C 0.69684 0.54382 0.94051 0.0
C680 C 0.66006 0.52698 0.93772 0.0
C681 C 0.63916 0.52379 0.97477 0.0
H682 H 0.5978 0.52775 0.95054 0.0
C683 C 0.56811 0.51665 0.99916 0.0
C684 C 0.54958 0.50518 0.98912 0.0
C685 C 0.58637 0.52149 0.99366 0.0
C686 C 0.60909 0.52635 0.9574 0.0
H687 H 0.71232 0.55954 0.96384 0.0
H688 H 0.68141 0.55106 0.97505 0.0
H689 H 0.62902 0.53563 0.94029 0.0
H690 H 0.53579 0.48972 0.9654 0.0
H691 H 0.5675 0.49799 0.9559 0.0
H692 H 0.61913 0.51449 0.99189 0.0
C693 C 0.68012 0.54538 0.96285 0.0
C694 C 0.627 0.53086 0.95151 0.0
C695 C 0.69784 0.55031 0.95642 0.0
C696 C 0.54975 0.49863 0.97347 0.0
C697 C 0.56798 0.50349 0.96799 0.0
C698 C 0.6212 0.51927 0.98067 0.0
C699 C 0.66104 0.53389 0.95352 0.0
C700 C 0.6422 0.52949 0.96006 0.0
C701 C 0.58652 0.51503 0.97799 0.0
C702 C 0.60589 0.52035 0.972 0.0
H703 H 0.67636 0.52651 0.91903 0.0
H704 H 0.6456 0.51776 0.93027 0.0
H705 H 0.65048 0.5224 0.9816 0.0
H706 H 0.56856 0.52197 0.01127 0.0
H707 H 0.6004 0.53058 0.00163 0.0
C708 C 0.42509 0.13423 0.98374 0.0
C709 C 0.43344 0.14845 0.97363 0.0
C710 C 0.43304 0.12184 0.9867 0.0
C711 C 0.45944 0.09792 0.96975 0.0
H712 H 0.47447 0.0952 0.01205 0.0
C713 C 0.49695 0.05113 0.98342 0.0
C714 C 0.49176 0.04104 0.99626 0.0
C715 C 0.49071 0.06499 0.98071 0.0
C716 C 0.47007 0.09549 1.00015 0.0
H717 H 0.45654 0.16076 0.9586 0.0
H718 H 0.47011 0.13872 0.96353 0.0
H719 H 0.46139 0.11756 0.00725 0.0
H720 H 0.47559 0.03717 0.0161 0.0
H721 H 0.46406 0.06055 0.01106 0.0
H722 H 0.46732 0.07532 0.96255 0.0
C723 C 0.45754 0.13734 0.96924 0.0
C724 C 0.46269 0.1084 0.99744 0.0
C725 C 0.44985 0.15 0.9665 0.0
C726 C 0.48006 0.04491 0.00621 0.0
C727 C 0.47355 0.05846 0.00337 0.0
C728 C 0.4665 0.08471 0.97244 0.0
C729 C 0.44922 0.12318 0.97938 0.0
C730 C 0.45729 0.10971 0.98223 0.0
C731 C 0.47886 0.06879 0.99063 0.0
C732 C 0.47186 0.08327 0.98769 0.0
H733 H 0.41246 0.13273 0.98941 0.0
H734 H 0.42631 0.11095 0.9945 0.0
H735 H 0.45521 0.09855 0.9579 0.0
H736 H 0.50604 0.04852 0.97559 0.0
H737 H 0.49538 0.07287 0.97092 0.0
C738 C 0.6943 0.15353 0.94852 0.0
C739 C 0.71226 0.1533 0.95178 0.0
C740 C 0.67661 0.13978 0.95398 0.0
C741 C 0.65195 0.08998 0.96789 0.0
H742 H 0.61742 0.10894 0.98398 0.0
C743 C 0.57105 0.03386 0.97965 0.0
C744 C 0.56474 0.03949 0.99311 0.0
C745 C 0.58942 0.04779 0.97512 0.0
C746 C 0.62698 0.10344 0.97965 0.0
H747 H 0.72569 0.13842 0.96335 0.0
H748 H 0.69482 0.1145 0.97293 0.0
H749 H 0.6489 0.13328 0.97533 0.0
H750 H 0.57293 0.06422 0.01241 0.0
H751 H 0.60507 0.08847 0.00453 0.0
H752 H 0.63015 0.0602 0.97237 0.0
C753 C 0.69439 0.12519 0.96602 0.0
C754 C 0.6449 0.11734 0.97452 0.0
C755 C 0.7121 0.13897 0.96059 0.0
C756 C 0.5773 0.05937 0.00197 0.0
C757 C 0.59567 0.07332 0.99741 0.0
C758 C 0.63401 0.07608 0.97298 0.0
C759 C 0.67643 0.12544 0.9628 0.0
C760 C 0.65756 0.11075 0.96852 0.0
C761 C 0.60192 0.06771 0.98391 0.0
C762 C 0.62127 0.08262 0.97887 0.0
H763 H 0.69389 0.16434 0.94174 0.0
H764 H 0.66297 0.14019 0.9511 0.0
H765 H 0.66127 0.08437 0.96321 0.0
H766 H 0.56174 0.01872 0.9725 0.0
H767 H 0.59365 0.04307 0.96454 0.0
C768 C 0.83657 0.54871 0.96313 0.0
C769 C 0.82727 0.54137 0.94761 0.0
C770 C 0.85114 0.54438 0.96876 0.0
C771 C 0.872 0.51005 0.9589 0.0
H772 H 0.91592 0.54995 0.99111 0.0
C773 C 0.94413 0.5072 0.9773 0.0
C774 C 0.9481 0.50759 0.99325 0.0
C775 C 0.92924 0.51111 0.97169 0.0
C776 C 0.90367 0.53867 0.98215 0.0
H777 H 0.82619 0.52407 0.92571 0.0
H778 H 0.85222 0.51736 0.93523 0.0
H779 H 0.89056 0.55748 0.98119 0.0
H780 H 0.93984 0.51267 0.01582 0.0
H781 H 0.91424 0.52013 0.006 0.0
H782 H 0.88582 0.4917 0.95955 0.0
C783 C 0.84782 0.5258 0.94331 0.0
C784 C 0.88902 0.54287 0.97651 0.0
C785 C 0.83296 0.52977 0.93778 0.0
C786 C 0.93705 0.51218 0.00347 0.0
C787 C 0.92249 0.51654 0.99789 0.0
C788 C 0.88691 0.50608 0.96432 0.0
C789 C 0.85709 0.53296 0.95892 0.0
C790 C 0.87287 0.52857 0.96485 0.0
C791 C 0.91839 0.51593 0.98195 0.0
C792 C 0.9028 0.5203 0.97604 0.0
H793 H 0.83238 0.55757 0.97101 0.0
H794 H 0.85752 0.54982 0.98091 0.0
H795 H 0.85965 0.49842 0.95019 0.0
H796 H 0.95234 0.50362 0.96914 0.0
H797 H 0.92637 0.51062 0.95934 0.0
C798 C 0.41789 0.2645 0.97374 0.0
C799 C 0.43357 0.26017 0.97484 0.0
C800 C 0.42185 0.2844 0.97892 0.0
C801 C 0.45877 0.33516 0.00271 0.0
H802 H 0.43866 0.35612 0.97231 0.0
C803 C 0.48896 0.4222 0.00561 0.0
C804 C 0.47528 0.42817 0.00074 0.0
C805 C 0.4829 0.40132 0.00386 0.0
C806 C 0.4441 0.35047 0.98108 0.0
H807 H 0.46544 0.27305 0.98313 0.0
H808 H 0.47232 0.30786 0.9922 0.0
H809 H 0.42946 0.32015 0.96747 0.0
H810 H 0.44435 0.41692 0.99064 0.0
H811 H 0.43364 0.38052 0.98789 0.0
H812 H 0.47348 0.36555 0.01631 0.0
C813 C 0.45698 0.29582 0.98731 0.0
C814 C 0.43884 0.32983 0.97828 0.0
C815 C 0.45305 0.2759 0.98205 0.0
C816 C 0.45531 0.41283 0.99436 0.0
C817 C 0.4492 0.39195 0.99273 0.0
C818 C 0.46392 0.35582 0.00558 0.0
C819 C 0.44153 0.30038 0.9854 0.0
C820 C 0.44623 0.32199 0.989 0.0
C821 C 0.46298 0.38594 0.9973 0.0
C822 C 0.45679 0.36376 0.99472 0.0
H823 H 0.40268 0.2527 0.96836 0.0
H824 H 0.40958 0.28742 0.97753 0.0
H825 H 0.46455 0.32947 0.01123 0.0
H826 H 0.50448 0.43366 0.01055 0.0
H827 H 0.494 0.39728 0.0073 0.0
C828 C 0.13003 0.71522 0.08424 0.0
C829 C 0.15021 0.72536 0.0813 0.0
C830 C 0.11684 0.69428 0.07819 0.0
C831 C 0.10903 0.65386 0.04634 0.0
H832 H 0.07025 0.6169 0.0703 0.0
C833 C 0.05529 0.56634 0.02314 0.0
C834 C 0.03529 0.55747 0.02644 0.0
C835 C 0.06995 0.58664 0.02997 0.0
C836 C 0.08085 0.62708 0.0634 0.0
H837 H 0.17251 0.72129 0.07005 0.0
H838 H 0.14947 0.68471 0.05957 0.0
H839 H 0.09489 0.65247 0.08243 0.0
H840 H 0.0149 0.56311 0.03924 0.0
H841 H 0.04032 0.5985 0.05091 0.0
H842 H 0.09483 0.62856 0.02724 0.0
C843 C 0.14381 0.69304 0.0664 0.0
C844 C 0.09499 0.64744 0.07036 0.0
C845 C 0.15704 0.71397 0.0725 0.0
C846 C 0.03019 0.56942 0.0365 0.0
C847 C 0.04481 0.58968 0.0433 0.0
C848 C 0.09485 0.6335 0.03935 0.0
C849 C 0.12351 0.68303 0.06904 0.0
C850 C 0.10914 0.66111 0.06188 0.0
C851 C 0.0649 0.59848 0.04023 0.0
C852 C 0.08047 0.61992 0.04776 0.0
H853 H 0.12428 0.72354 0.09097 0.0
H854 H 0.10124 0.68706 0.08032 0.0
H855 H 0.11957 0.6641 0.03943 0.0
H856 H 0.05973 0.55753 0.01548 0.0
H857 H 0.08533 0.5929 0.02747 0.0
C858 C 0.30845 0.46593 0.07084 0.0
C859 C 0.2903 0.44701 0.06555 0.0
C860 C 0.3265 0.46977 0.06545 0.0
C861 C 0.34614 0.45237 0.03321 0.0
H862 H 0.3965 0.48131 0.06177 0.0
C863 C 0.4239 0.4804 0.01224 0.0
C864 C 0.4383 0.47828 0.02121 0.0
C865 C 0.4059 0.47664 0.01767 0.0
C866 C 0.38255 0.47307 0.05366 0.0
H867 H 0.27694 0.41723 0.05047 0.0
H868 H 0.30844 0.42381 0.04122 0.0
H869 H 0.365 0.47427 0.07124 0.0
H870 H 0.44497 0.47051 0.04298 0.0
H871 H 0.41349 0.46371 0.05234 0.0
H872 H 0.36362 0.45077 0.0157 0.0
C873 C 0.30868 0.43583 0.04937 0.0
C874 C 0.36451 0.46925 0.05905 0.0
C875 C 0.29063 0.432 0.05475 0.0
C876 C 0.43426 0.47233 0.03576 0.0
C877 C 0.41624 0.46855 0.04118 0.0
C878 C 0.36418 0.45618 0.02782 0.0
C879 C 0.32685 0.45477 0.05464 0.0
C880 C 0.34607 0.45885 0.0489 0.0
C881 C 0.40183 0.47065 0.03221 0.0
C882 C 0.38262 0.46658 0.03797 0.0
H883 H 0.30872 0.47786 0.07912 0.0
H884 H 0.34014 0.48463 0.0696 0.0
H885 H 0.33227 0.44452 0.02503 0.0
H886 H 0.42653 0.48505 0.00101 0.0
H887 H 0.39528 0.4787 0.01055 0.0
C888 C 0.53902 0.8299 0.04842 0.0
C889 C 0.55739 0.83121 0.04583 0.0
C890 C 0.53431 0.84409 0.04368 0.0
C891 C 0.52331 0.86959 0.02559 0.0
H892 H 0.5662 0.92712 0.03163 0.0
C893 C 0.51127 0.93233 0.00422 0.0
C894 C 0.52039 0.95158 0.01413 0.0
C895 C 0.5157 0.91732 0.00741 0.0
C896 C 0.55401 0.91114 0.02995 0.0
H897 H 0.58504 0.8482 0.03594 0.0
H898 H 0.5767 0.87275 0.02747 0.0
H899 H 0.57386 0.90149 0.03854 0.0
H900 H 0.54113 0.97003 0.0353 0.0
H901 H 0.54858 0.94383 0.04096 0.0
H902 H 0.50333 0.87939 0.01747 0.0
C903 C 0.56608 0.86098 0.03341 0.0
C904 C 0.55846 0.89639 0.03373 0.0
C905 C 0.57081 0.84684 0.0382 0.0
C906 C 0.53394 0.95544 0.02734 0.0
C907 C 0.53831 0.94044 0.03055 0.0
C908 C 0.51884 0.88437 0.02185 0.0
C909 C 0.54783 0.85988 0.03619 0.0
C910 C 0.54315 0.87544 0.03167 0.0
C911 C 0.52931 0.92122 0.02061 0.0
C912 C 0.53412 0.90535 0.02409 0.0
H913 H 0.52836 0.81808 0.0543 0.0
H914 H 0.52025 0.84294 0.0462 0.0
H915 H 0.51119 0.85356 0.02369 0.0
H916 H 0.5008 0.92887 0.99392 0.0
H917 H 0.50867 0.90277 0.99942 0.0
C918 C 0.97213 0.2376 0.39228 0.0
C919 C 0.95431 0.22105 0.38334 0.0
C920 C 0.99106 0.24281 0.38807 0.0
C921 C 0.016 0.24328 0.35484 0.0
H922 H 0.06009 0.25123 0.38427 0.0
C923 C 0.0965 0.27506 0.33851 0.0
C924 C 0.11266 0.28924 0.3501 0.0
C925 C 0.07689 0.26347 0.34219 0.0
C926 C 0.04804 0.24932 0.37594 0.0
H927 H 0.9423 0.1969 0.36302 0.0
H928 H 0.97554 0.20652 0.35536 0.0
H929 H 0.02627 0.23743 0.39163 0.0
H930 H 0.12097 0.30224 0.37467 0.0
H931 H 0.0869 0.28282 0.38096 0.0
H932 H 0.03776 0.25628 0.33945 0.0
C933 C 0.97475 0.2152 0.36574 0.0
C934 C 0.02865 0.24127 0.38014 0.0
C935 C 0.9558 0.2097 0.37015 0.0
C936 C 0.10889 0.29131 0.36547 0.0
C937 C 0.08928 0.28001 0.3691 0.0
C938 C 0.03547 0.25171 0.35072 0.0
C939 C 0.99252 0.23183 0.37466 0.0
C940 C 0.01255 0.23845 0.36971 0.0
C941 C 0.07294 0.26605 0.3575 0.0
C942 C 0.05185 0.25518 0.36131 0.0
H943 H 0.97144 0.24658 0.40253 0.0
H944 H 0.00456 0.2558 0.39505 0.0
H945 H 0.00381 0.2414 0.34665 0.0
H946 H 0.09897 0.27301 0.32658 0.0
H947 H 0.06481 0.2526 0.33299 0.0
C948 C 0.79296 0.77433 0.43488 0.0
C949 C 0.79769 0.76103 0.4261 0.0
C950 C 0.78012 0.7801 0.42808 0.0
C951 C 0.74214 0.76627 0.3936 0.0
H952 H 0.75664 0.82336 0.40473 0.0
C953 C 0.70425 0.80212 0.35998 0.0
C954 C 0.69861 0.81446 0.36901 0.0
C955 C 0.71617 0.79537 0.3669 0.0
C956 C 0.75229 0.80733 0.4016 0.0
H957 H 0.7923 0.74303 0.40332 0.0
H958 H 0.77025 0.75337 0.39139 0.0
H959 H 0.77722 0.81159 0.41703 0.0
H960 H 0.70122 0.82946 0.39243 0.0
H961 H 0.72204 0.81777 0.40441 0.0
H962 H 0.71735 0.76217 0.37799 0.0
C963 C 0.77618 0.75912 0.40361 0.0
C964 C 0.76404 0.80054 0.40869 0.0
C965 C 0.78893 0.75325 0.41044 0.0
C966 C 0.70533 0.82005 0.38509 0.0
C967 C 0.71734 0.81341 0.39197 0.0
C968 C 0.73046 0.7731 0.38644 0.0
C969 C 0.7718 0.77281 0.41229 0.0
C970 C 0.75909 0.77991 0.40482 0.0
C971 C 0.72283 0.80093 0.38297 0.0
C972 C 0.73538 0.7937 0.39039 0.0
H973 H 0.79935 0.7805 0.447 0.0
H974 H 0.77677 0.79035 0.4352 0.0
H975 H 0.73771 0.75021 0.39049 0.0
H976 H 0.69932 0.7975 0.34757 0.0
H977 H 0.72033 0.78593 0.35964 0.0
C978 C 0.24122 0.05181 0.3647 0.0
C979 C 0.23715 0.05774 0.3792 0.0
C980 C 0.23308 0.03089 0.35862 0.0
C981 C 0.19411 0.97778 0.36352 0.0
H982 H 0.23063 0.96263 0.34597 0.0
C983 C 0.18236 0.89646 0.35998 0.0
C984 C 0.18543 0.88757 0.34621 0.0
C985 C 0.18725 0.91701 0.36223 0.0
C986 C 0.22016 0.96663 0.35065 0.0
H987 H 0.2208 0.04633 0.39842 0.0
H988 H 0.20698 0.01012 0.38802 0.0
H989 H 0.24132 -0.00098 0.35279 0.0
H990 H 0.19611 0.89333 0.32401 0.0
H991 H 0.20491 0.92939 0.32807 0.0
H992 H 0.17327 0.94536 0.36189 0.0
C993 C 0.21618 0.02149 0.38118 0.0
C994 C 0.22624 0.98749 0.35451 0.0
C995 C 0.22424 0.04233 0.38722 0.0
C996 C 0.19355 0.89972 0.33475 0.0
C997 C 0.19865 0.92037 0.33708 0.0
C998 C 0.18812 0.95696 0.35978 0.0
C999 C 0.22071 0.01549 0.36691 0.0
C1000 C 0.21343 -0.00667 0.36126 0.0
C1001 C 0.1955 0.9292 0.35083 0.0
C1002 C 0.20121 0.95119 0.35355 0.0
H1003 H 0.25104 0.06331 0.3582 0.0
H1004 H 0.23664 0.0268 0.34749 0.0
H1005 H 0.18369 0.9817 0.36839 0.0
H1006 H 0.1761 0.88754 0.36904 0.0
H1007 H 0.18489 0.92347 0.37303 0.0
C1008 C 0.50795 0.60326 0.31246 0.0
C1009 C 0.49899 0.59627 0.29683 0.0
C1010 C 0.52097 0.62437 0.31812 0.0
C1011 C 0.53675 0.67636 0.30895 0.0
H1012 H 0.58655 0.6931 0.33554 0.0
C1013 C 0.60514 0.75995 0.32049 0.0
C1014 C 0.61509 0.7683 0.33583 0.0
C1015 C 0.59026 0.73902 0.31637 0.0
C1016 C 0.57261 0.68867 0.32827 0.0
H1017 H 0.49629 0.60601 0.27498 0.0
H1018 H 0.5191 0.64263 0.28475 0.0
H1019 H 0.56135 0.65648 0.32753 0.0
H1020 H 0.61723 0.76115 0.35886 0.0
H1021 H 0.59131 0.72467 0.35163 0.0
H1022 H 0.54823 0.7086 0.30947 0.0
C1023 C 0.51592 0.63191 0.29273 0.0
C1024 C 0.55813 0.66768 0.32371 0.0
C1025 C 0.50291 0.61085 0.28709 0.0
C1026 C 0.60989 0.75523 0.34693 0.0
C1027 C 0.5951 0.7343 0.34279 0.0
C1028 C 0.55126 0.69734 0.31345 0.0
C1029 C 0.52529 0.63893 0.30826 0.0
C1030 C 0.5401 0.66127 0.31389 0.0
C1031 C 0.58509 0.72597 0.32747 0.0
C1032 C 0.56942 0.70372 0.32306 0.0
H1033 H 0.50518 0.59241 0.32028 0.0
H1034 H 0.52771 0.62929 0.33021 0.0
H1035 H 0.52287 0.67197 0.3016 0.0
H1036 H 0.60878 0.76958 0.31165 0.0
H1037 H 0.58297 0.73299 0.30443 0.0
C1038 C 0.35354 0.86655 0.2671 0.0
C1039 C 0.37279 0.87981 0.27587 0.0
C1040 C 0.336 0.8607 0.27392 0.0
C1041 C 0.3174 0.87775 0.30675 0.0
H1042 H 0.27027 0.82251 0.29525 0.0
C1043 C 0.24394 0.85162 0.33438 0.0
C1044 C 0.22554 0.83983 0.32423 0.0
C1045 C 0.26225 0.85595 0.32925 0.0
C1046 C 0.28325 0.83805 0.29848 0.0
H1047 H 0.3887 0.89689 0.29885 0.0
H1048 H 0.35802 0.8865 0.31081 0.0
H1049 H 0.30171 0.83061 0.28518 0.0
H1050 H 0.21203 0.82341 0.30066 0.0
H1051 H 0.24393 0.83114 0.29172 0.0
H1052 H 0.29886 0.88524 0.31993 0.0
C1053 C 0.35652 0.88086 0.29858 0.0
C1054 C 0.30128 0.84269 0.29272 0.0
C1055 C 0.3741 0.8867 0.29174 0.0
C1056 C 0.22589 0.83249 0.30883 0.0
C1057 C 0.24418 0.8368 0.30371 0.0
C1058 C 0.29937 0.87311 0.31252 0.0
C1059 C 0.33726 0.86796 0.2897 0.0
C1060 C 0.3185 0.86266 0.29665 0.0
C1061 C 0.26258 0.84856 0.31386 0.0
C1062 C 0.28202 0.85326 0.30832 0.0
H1063 H 0.35196 0.86097 0.25484 0.0
H1064 H 0.32142 0.85096 0.2667 0.0
H1065 H 0.3303 0.89337 0.30983 0.0
H1066 H 0.24425 0.85749 0.34633 0.0
H1067 H 0.27614 0.8649 0.3374 0.0
C1068 C 0.11318 0.48179 0.29712 0.0
C1069 C 0.09671 0.48067 0.30387 0.0
C1070 C 0.12002 0.46843 0.29983 0.0
C1071 C 0.10364 0.41875 0.3136 0.0
H1072 H 0.16083 0.43714 0.31647 0.0
C1073 C 0.13798 0.37335 0.33653 0.0
C1074 C 0.15108 0.37042 0.32757 0.0
C1075 C 0.13124 0.3865 0.33303 0.0
C1076 C 0.1448 0.43178 0.31554 0.0
H1077 H 0.07486 0.46511 0.31914 0.0
H1078 H 0.08724 0.44233 0.32438 0.0
H1079 H 0.14964 0.46123 0.31229 0.0
H1080 H 0.16745 0.37903 0.30795 0.0
H1081 H 0.1559 0.40247 0.30201 0.0
H1082 H 0.099 0.38948 0.31738 0.0
C1083 C 0.09451 0.45306 0.31657 0.0
C1084 C 0.13834 0.44553 0.31311 0.0
C1085 C 0.0875 0.46624 0.31368 0.0
C1086 C 0.15732 0.38095 0.31503 0.0
C1087 C 0.15081 0.39441 0.31168 0.0
C1088 C 0.11014 0.40512 0.31625 0.0
C1089 C 0.11071 0.45381 0.30954 0.0
C1090 C 0.11767 0.43921 0.31213 0.0
C1091 C 0.13767 0.39724 0.32064 0.0
C1092 C 0.13077 0.41152 0.31727 0.0
H1093 H 0.1205 0.49266 0.2894 0.0
H1094 H 0.13231 0.46928 0.29401 0.0
H1095 H 0.08756 0.41315 0.31256 0.0
H1096 H 0.13284 0.3654 0.34624 0.0
H1097 H 0.12123 0.38855 0.34018 0.0
C1098 C 0.3748 0.46778 0.2954 0.0
C1099 C 0.38013 0.48816 0.29453 0.0
C1100 C 0.35627 0.45415 0.29989 0.0
C1101 C 0.30564 0.4472 0.30503 0.0
H1102 H 0.3021 0.40544 0.32818 0.0
C1103 C 0.23579 0.39563 0.33395 0.0
C1104 C 0.22807 0.37431 0.32987 0.0
C1105 C 0.25446 0.40991 0.32996 0.0
C1106 C 0.3029 0.41701 0.32169 0.0
H1107 H 0.37041 0.51038 0.29792 0.0
H1108 H 0.3385 0.48695 0.30641 0.0
H1109 H 0.33456 0.42989 0.3209 0.0
H1110 H 0.23397 0.35124 0.31867 0.0
H1111 H 0.26684 0.37625 0.3121 0.0
H1112 H 0.27398 0.43451 0.30633 0.0
C1113 C 0.34825 0.48117 0.30314 0.0
C1114 C 0.32146 0.43096 0.3174 0.0
C1115 C 0.36663 0.49469 0.29836 0.0
C1116 C 0.23951 0.36757 0.32194 0.0
C1117 C 0.25833 0.38184 0.31824 0.0
C1118 C 0.28718 0.43348 0.30958 0.0
C1119 C 0.34276 0.46067 0.30392 0.0
C1120 C 0.32307 0.44615 0.30887 0.0
C1121 C 0.2659 0.40312 0.32212 0.0
C1122 C 0.28562 0.41816 0.31782 0.0
H1123 H 0.38483 0.46226 0.29239 0.0
H1124 H 0.35247 0.4384 0.3 0.0
H1125 H 0.30611 0.45837 0.29825 0.0
H1126 H 0.22726 0.40128 0.33998 0.0
H1127 H 0.26004 0.42626 0.33312 0.0
C1128 C 0.50344 0.8828 0.29458 0.0
C1129 C 0.49444 0.8752 0.27897 0.0
C1130 C 0.518 0.87869 0.30058 0.0
C1131 C 0.55688 0.86807 0.29011 0.0
H1132 H 0.54935 0.84266 0.32679 0.0
C1133 C 0.61123 0.84256 0.31314 0.0
C1134 C 0.61489 0.84381 0.32923 0.0
C1135 C 0.59647 0.8462 0.30677 0.0
C1136 C 0.55196 0.85011 0.31671 0.0
H1137 H 0.49382 0.85763 0.25736 0.0
H1138 H 0.51973 0.85095 0.2678 0.0
H1139 H 0.52406 0.84993 0.31636 0.0
H1140 H 0.60648 0.8505 0.35133 0.0
H1141 H 0.58155 0.85781 0.3404 0.0
H1142 H 0.5851 0.86908 0.29068 0.0
C1143 C 0.5153 0.85987 0.27538 0.0
C1144 C 0.53735 0.85413 0.3107 0.0
C1145 C 0.50043 0.8636 0.26945 0.0
C1146 C 0.60381 0.84916 0.33885 0.0
C1147 C 0.58937 0.8532 0.33254 0.0
C1148 C 0.57172 0.86444 0.29629 0.0
C1149 C 0.52413 0.86729 0.29101 0.0
C1150 C 0.53966 0.8631 0.29734 0.0
C1151 C 0.58531 0.85157 0.31639 0.0
C1152 C 0.56947 0.85539 0.30969 0.0
H1153 H 0.49909 0.89176 0.30219 0.0
H1154 H 0.52468 0.88465 0.31266 0.0
H1155 H 0.55904 0.87517 0.27985 0.0
H1156 H 0.61946 0.83831 0.30542 0.0
H1157 H 0.59361 0.84443 0.29427 0.0
C1158 C 0.12133 0.60808 0.30981 0.0
C1159 C 0.10146 0.5932 0.30275 0.0
C1160 C 0.12641 0.62831 0.31552 0.0
C1161 C 0.11082 0.66484 0.30819 0.0
H1162 H 0.14603 0.69824 0.34662 0.0
C1163 C 0.1297 0.74818 0.32706 0.0
C1164 C 0.14975 0.76298 0.33369 0.0
C1165 C 0.1231 0.72716 0.32476 0.0
C1166 C 0.13635 0.68917 0.33577 0.0
H1167 H 0.07112 0.58759 0.29694 0.0
H1168 H 0.08003 0.62283 0.30686 0.0
H1169 H 0.13574 0.66182 0.34036 0.0
H1170 H 0.17855 0.76735 0.34326 0.0
H1171 H 0.16722 0.7307 0.33882 0.0
H1172 H 0.11181 0.69209 0.30326 0.0
C1173 C 0.0917 0.61891 0.30781 0.0
C1174 C 0.13041 0.66832 0.33224 0.0
C1175 C 0.0866 0.59871 0.30219 0.0
C1176 C 0.16299 0.75631 0.33816 0.0
C1177 C 0.15644 0.73527 0.3357 0.0
C1178 C 0.11686 0.68566 0.31164 0.0
C1179 C 0.11175 0.63403 0.31419 0.0
C1180 C 0.11758 0.65596 0.3184 0.0
C1181 C 0.13646 0.72044 0.32885 0.0
C1182 C 0.12972 0.69813 0.32547 0.0
H1183 H 0.13311 0.60431 0.31048 0.0
H1184 H 0.142 0.63967 0.32033 0.0
H1185 H 0.10124 0.65579 0.29729 0.0
H1186 H 0.11905 0.7528 0.32366 0.0
H1187 H 0.1075 0.71617 0.31975 0.0
C1188 C 0.81953 0.05481 0.39761 0.0
C1189 C 0.81306 0.06611 0.40697 0.0
C1190 C 0.8069 0.03347 0.39285 0.0
C1191 C 0.76148 0.98758 0.40161 0.0
H1192 H 0.75691 0.96458 0.35861 0.0
C1193 C 0.69632 0.90636 0.37319 0.0
C1194 C 0.70099 0.89393 0.36323 0.0
C1195 C 0.71083 0.92709 0.37877 0.0
C1196 C 0.75821 0.97071 0.3707 0.0
H1197 H 0.78838 0.06374 0.41889 0.0
H1198 H 0.76632 0.02661 0.41047 0.0
H1199 H 0.78096 0.00119 0.36822 0.0
H1200 H 0.72459 0.8936 0.35124 0.0
H1201 H 0.74998 0.92985 0.36104 0.0
H1202 H 0.73855 0.95715 0.40404 0.0
C1203 C 0.78124 0.03419 0.40695 0.0
C1204 C 0.772 0.99169 0.37622 0.0
C1205 C 0.79385 0.05552 0.41171 0.0
C1206 C 0.72048 0.90276 0.35887 0.0
C1207 C 0.73501 0.92355 0.36444 0.0
C1208 C 0.74768 0.96662 0.39609 0.0
C1209 C 0.78753 0.02293 0.39734 0.0
C1210 C 0.77366 0.00041 0.3917 0.0
C1211 C 0.73037 0.93592 0.37452 0.0
C1212 C 0.74573 0.95799 0.38053 0.0
H1213 H 0.83427 0.06248 0.39381 0.0
H1214 H 0.81231 0.02521 0.38564 0.0
H1215 H 0.76264 -0.00628 0.41367 0.0
H1216 H 0.68144 0.90009 0.37675 0.0
H1217 H 0.70667 0.93628 0.38632 0.0
C1218 C 0.96432 0.76442 0.38573 0.0
C1219 C 0.9649 0.77302 0.401 0.0
C1220 C 0.98226 0.7686 0.38 0.0
C1221 C 0.03443 0.78292 0.39145 0.0
H1222 H 0.04536 0.80572 0.35355 0.0
C1223 C 0.11264 0.81422 0.37122 0.0
C1224 C 0.11358 0.81189 0.35522 0.0
C1225 C 0.09438 0.80937 0.37663 0.0
C1226 C 0.04246 0.79902 0.36399 0.0
H1227 H 0.98465 0.79228 0.42234 0.0
H1228 H 0.01597 0.79909 0.41241 0.0
H1229 H 0.01343 0.79647 0.3632 0.0
H1230 H 0.09614 0.8025 0.33233 0.0
H1231 H 0.06407 0.79318 0.34172 0.0
H1232 H 0.06301 0.78475 0.39211 0.0
C1233 C 0.00163 0.78931 0.40488 0.0
C1234 C 0.02418 0.79383 0.36954 0.0
C1235 C 0.98373 0.78548 0.41052 0.0
C1236 C 0.09589 0.80461 0.34474 0.0
C1237 C 0.07752 0.79937 0.35015 0.0
C1238 C 0.05254 0.78774 0.38577 0.0
C1239 C 0.00106 0.7811 0.38951 0.0
C1240 C 0.0201 0.7859 0.38337 0.0
C1241 C 0.0765 0.80167 0.36619 0.0
C1242 C 0.05692 0.79604 0.37203 0.0
H1243 H 0.95003 0.75483 0.37811 0.0
H1244 H 0.98145 0.76201 0.36813 0.0
H1245 H 0.03151 0.77663 0.40207 0.0
H1246 H 0.12609 0.82003 0.37959 0.0
H1247 H 0.0944 0.81186 0.38905 0.0
C1248 C 0.21163 0.17004 0.38632 0.0
C1249 C 0.23033 0.17241 0.38342 0.0
C1250 C 0.20613 0.18399 0.38233 0.0
C1251 C 0.19342 0.20876 0.36486 0.0
H1252 H 0.23401 0.26719 0.37185 0.0
C1253 C 0.17823 0.26845 0.34187 0.0
C1254 C 0.18593 0.28765 0.35158 0.0
C1255 C 0.18356 0.25435 0.34577 0.0
C1256 C 0.22245 0.25094 0.36994 0.0
H1257 H 0.25785 0.19121 0.3739 0.0
H1258 H 0.24814 0.21538 0.36675 0.0
H1259 H 0.24337 0.24269 0.37876 0.0
H1260 H 0.20514 0.30696 0.37312 0.0
H1261 H 0.21422 0.28226 0.38 0.0
H1262 H 0.17239 0.21706 0.35636 0.0
C1263 C 0.23785 0.20292 0.37233 0.0
C1264 C 0.22788 0.23686 0.37372 0.0
C1265 C 0.24336 0.18898 0.37635 0.0
C1266 C 0.19901 0.29237 0.36533 0.0
C1267 C 0.20431 0.27824 0.36924 0.0
C1268 C 0.18799 0.22284 0.36109 0.0
C1269 C 0.21919 0.20063 0.37532 0.0
C1270 C 0.21343 0.2156 0.37123 0.0
C1271 C 0.19668 0.25908 0.35949 0.0
C1272 C 0.20244 0.2441 0.36358 0.0
H1273 H 0.20127 0.15748 0.3918 0.0
H1274 H 0.19177 0.18192 0.38498 0.0
H1275 H 0.18196 0.19247 0.36264 0.0
H1276 H 0.16818 0.26432 0.33116 0.0
H1277 H 0.17763 0.23985 0.33789 0.0
C1278 C 0.62078 0.5407 0.70881 0.0
C1279 C 0.61941 0.5519 0.72216 0.0
C1280 C 0.63963 0.5465 0.70409 0.0
C1281 C 0.69386 0.57334 0.71751 0.0
H1282 H 0.70099 0.58774 0.67651 0.0
C1283 C 0.77307 0.62217 0.70029 0.0
C1284 C 0.77583 0.61975 0.68467 0.0
C1285 C 0.75379 0.61128 0.70462 0.0
C1286 C 0.69926 0.58336 0.68785 0.0
H1287 H 0.63669 0.57742 0.74133 0.0
H1288 H 0.66967 0.58716 0.73329 0.0
H1289 H 0.66755 0.57288 0.6846 0.0
H1290 H 0.76073 0.60329 0.66144 0.0
H1291 H 0.72721 0.58355 0.66904 0.0
H1292 H 0.72537 0.58338 0.72079 0.0
C1293 C 0.65614 0.57406 0.72642 0.0
C1294 C 0.68007 0.57494 0.69249 0.0
C1295 C 0.63728 0.56856 0.73096 0.0
C1296 C 0.75903 0.60563 0.67355 0.0
C1297 C 0.73978 0.59442 0.67792 0.0
C1298 C 0.71298 0.58137 0.71277 0.0
C1299 C 0.65744 0.56327 0.71283 0.0
C1300 C 0.67731 0.57024 0.70746 0.0
C1301 C 0.73681 0.59739 0.69348 0.0
C1302 C 0.71606 0.58692 0.69799 0.0
H1303 H 0.60724 0.52783 0.70178 0.0
H1304 H 0.6403 0.53794 0.69357 0.0
H1305 H 0.69201 0.56963 0.72906 0.0
H1306 H 0.7857 0.63307 0.70913 0.0
H1307 H 0.75219 0.61436 0.71665 0.0
C1308 C 0.4719 0.09943 0.74517 0.0
C1309 C 0.46628 0.08839 0.75752 0.0
C1310 C 0.45962 0.10587 0.73851 0.0
C1311 C 0.41919 0.11673 0.74586 0.0
H1312 H 0.4107 0.11098 0.70104 0.0
C1313 C 0.36109 0.13112 0.7136 0.0
C1314 C 0.36693 0.14172 0.70103 0.0
C1315 C 0.37319 0.12472 0.72067 0.0
C1316 C 0.41311 0.11292 0.71357 0.0
H1317 H 0.44336 0.07562 0.77263 0.0
H1318 H 0.42181 0.08684 0.7609 0.0
H1319 H 0.4316 0.09939 0.71311 0.0
H1320 H 0.39018 0.15401 0.68612 0.0
H1321 H 0.41136 0.14294 0.69854 0.0
H1322 H 0.4007 0.13029 0.74631 0.0
C1323 C 0.43584 0.09062 0.75648 0.0
C1324 C 0.42506 0.10625 0.72049 0.0
C1325 C 0.44814 0.0841 0.76315 0.0
C1326 C 0.3852 0.14584 0.69574 0.0
C1327 C 0.39729 0.13939 0.7028 0.0
C1328 C 0.40722 0.12341 0.73893 0.0
C1329 C 0.44141 0.10147 0.74403 0.0
C1330 C 0.42831 0.10815 0.73671 0.0
C1331 C 0.3914 0.12872 0.71532 0.0
C1332 C 0.4041 0.12163 0.72271 0.0
H1333 H 0.4858 0.10306 0.74058 0.0
H1334 H 0.46449 0.11447 0.7291 0.0
H1335 H 0.42161 0.11865 0.7584 0.0
H1336 H 0.34711 0.12767 0.71799 0.0
H1337 H 0.3681 0.11633 0.73017 0.0
C1338 C 0.90836 0.38533 0.69021 0.0
C1339 C 0.9041 0.39121 0.70464 0.0
C1340 C 0.89978 0.36441 0.6839 0.0
C1341 C 0.85948 0.31147 0.68812 0.0
H1342 H 0.89543 0.29521 0.67097 0.0
C1343 C 0.84704 0.23005 0.68563 0.0
C1344 C 0.84999 0.22078 0.672 0.0
C1345 C 0.85185 0.25056 0.68749 0.0
C1346 C 0.88512 0.29954 0.67551 0.0
H1347 H 0.88703 0.37973 0.72352 0.0
H1348 H 0.87252 0.34352 0.71276 0.0
H1349 H 0.90688 0.3318 0.67783 0.0
H1350 H 0.86024 0.22573 0.64959 0.0
H1351 H 0.86898 0.26179 0.65299 0.0
H1352 H 0.83808 0.27916 0.6864 0.0
C1353 C 0.88216 0.35493 0.70612 0.0
C1354 C 0.89164 0.3205 0.67941 0.0
C1355 C 0.89063 0.37577 0.71237 0.0
C1356 C 0.85776 0.23243 0.66021 0.0
C1357 C 0.86284 0.25307 0.66217 0.0
C1358 C 0.85306 0.29055 0.68437 0.0
C1359 C 0.88682 0.34896 0.69191 0.0
C1360 C 0.87905 0.32674 0.68606 0.0
C1361 C 0.85994 0.26232 0.67584 0.0
C1362 C 0.86596 0.28439 0.67831 0.0
H1363 H 0.91861 0.39687 0.68392 0.0
H1364 H 0.90348 0.36036 0.67282 0.0
H1365 H 0.84922 0.31569 0.69289 0.0
H1366 H 0.84103 0.22148 0.69491 0.0
H1367 H 0.84969 0.25736 0.69822 0.0
C1368 C 0.17164 0.9342 0.64006 0.0
C1369 C 0.17789 0.92275 0.63064 0.0
C1370 C 0.18429 0.95563 0.64446 0.0
C1371 C 0.22685 0.00016 0.63206 0.0
H1372 H 0.23365 0.02867 0.67369 0.0
C1373 C 0.28937 0.08517 0.65345 0.0
C1374 C 0.28463 0.09781 0.6631 0.0
C1375 C 0.27557 0.06396 0.64931 0.0
C1376 C 0.2317 0.02096 0.66195 0.0
H1377 H 0.20261 0.92472 0.61895 0.0
H1378 H 0.22463 0.9619 0.62675 0.0
H1379 H 0.2112 0.9912 0.6673 0.0
H1380 H 0.26146 0.09809 0.67573 0.0
H1381 H 0.23729 0.06109 0.66835 0.0
H1382 H 0.24734 0.02982 0.62669 0.0
C1383 C 0.20984 0.95443 0.63049 0.0
C1384 C 0.21886 -0.0005 0.65831 0.0
C1385 C 0.19725 0.93307 0.62611 0.0
C1386 C 0.26562 0.0888 0.6683 0.0
C1387 C 0.25181 0.06757 0.66417 0.0
C1388 C 0.23964 0.02157 0.63569 0.0
C1389 C 0.20339 0.966 0.6395 0.0
C1390 C 0.21647 0.98885 0.64336 0.0
C1391 C 0.25669 0.05489 0.65472 0.0
C1392 C 0.24236 0.03221 0.65071 0.0
H1393 H 0.1568 0.9267 0.64373 0.0
H1394 H 0.17886 0.96414 0.65136 0.0
H1395 H 0.225 0.99245 0.62034 0.0
H1396 H 0.30389 0.09157 0.64926 0.0
H1397 H 0.2799 0.0546 0.64216 0.0
C1398 C 0.03418 0.25019 0.60238 0.0
C1399 C 0.03275 0.23926 0.58779 0.0
C1400 C 0.01722 0.24369 0.61011 0.0
C1401 C 0.96806 0.19685 0.61139 0.0
H1402 H 0.9563 0.23498 0.63515 0.0
C1403 C 0.89203 0.17015 0.63432 0.0
C1404 C 0.89237 0.17919 0.64937 0.0
C1405 C 0.90968 0.17769 0.62746 0.0
C1406 C 0.95954 0.22417 0.62871 0.0
H1407 H 0.01218 0.21356 0.56954 0.0
H1408 H 0.98261 0.2025 0.58285 0.0
H1409 H 0.98582 0.24836 0.62146 0.0
H1410 H 0.91164 0.20317 0.66906 0.0
H1411 H 0.94255 0.21631 0.65703 0.0
H1412 H 0.94172 0.17267 0.6185 0.0
C1413 C -0.00308 0.21578 0.58851 0.0
C1414 C 0.97643 0.23182 0.62086 0.0
C1415 C 0.01385 0.22222 0.58082 0.0
C1416 C 0.91085 0.19582 0.65747 0.0
C1417 C 0.92853 0.20345 0.65054 0.0
C1418 C 0.95118 0.18922 0.61918 0.0
C1419 C -0.00152 0.22616 0.60338 0.0
C1420 C 0.98077 0.21823 0.61199 0.0
C1421 C 0.92809 0.1945 0.63544 0.0
C1422 C 0.94663 0.20277 0.62783 0.0
H1423 H 0.04853 0.26337 0.60808 0.0
H1424 H 0.01898 0.25197 0.62158 0.0
H1425 H 0.97122 0.18597 0.60498 0.0
H1426 H 0.87806 0.15736 0.62771 0.0
H1427 H 0.90879 0.17062 0.61573 0.0
C1428 C 0.77948 0.81531 0.63375 0.0
C1429 C 0.76359 0.81502 0.64093 0.0
C1430 C 0.78617 0.8019 0.6367 0.0
C1431 C 0.78911 0.77196 0.66507 0.0
H1432 H 0.79201 0.73776 0.63002 0.0
C1433 C 0.80381 0.70639 0.67335 0.0
C1434 C 0.81531 0.70232 0.66331 0.0
C1435 C 0.79769 0.72031 0.67064 0.0
C1436 C 0.79164 0.74742 0.63996 0.0
H1437 H 0.74257 0.80084 0.65709 0.0
H1438 H 0.75464 0.7777 0.66251 0.0
H1439 H 0.78154 0.76227 0.62552 0.0
H1440 H 0.82969 0.7098 0.64268 0.0
H1441 H 0.8197 0.73468 0.63826 0.0
H1442 H 0.79973 0.75768 0.67957 0.0
C1443 C 0.76176 0.78821 0.65452 0.0
C1444 C 0.78554 0.76138 0.63735 0.0
C1445 C 0.75482 0.80139 0.65138 0.0
C1446 C 0.82069 0.71252 0.65055 0.0
C1447 C 0.81484 0.7267 0.64798 0.0
C1448 C 0.79553 0.75824 0.6677 0.0
C1449 C 0.77733 0.78821 0.64707 0.0
C1450 C 0.78412 0.77369 0.64988 0.0
C1451 C 0.80321 0.73074 0.65797 0.0
C1452 C 0.79677 0.74568 0.65517 0.0
H1453 H 0.7865 0.8256 0.62561 0.0
H1454 H 0.79831 0.80228 0.6309 0.0
H1455 H 0.78834 0.78146 0.67493 0.0
H1456 H 0.79925 0.69861 0.6832 0.0
H1457 H 0.78839 0.72263 0.67841 0.0
C1458 C 0.03435 0.79663 0.62329 0.0
C1459 C 0.03938 0.81697 0.6226 0.0
C1460 C 0.01592 0.78271 0.62776 0.0
C1461 C 0.96514 0.77511 0.63352 0.0
H1462 H 0.96245 0.73326 0.65619 0.0
C1463 C 0.89719 0.72402 0.66434 0.0
C1464 C 0.88908 0.70266 0.66004 0.0
C1465 C 0.9155 0.73812 0.65979 0.0
C1466 C 0.96302 0.74485 0.64982 0.0
H1467 H 0.02925 0.83882 0.62627 0.0
H1468 H -0.00244 0.81493 0.63477 0.0
H1469 H 0.99458 0.75786 0.64855 0.0
H1470 H 0.89389 0.67931 0.64782 0.0
H1471 H 0.92623 0.70404 0.64028 0.0
H1472 H 0.9336 0.76235 0.63541 0.0
C1473 C 0.00743 0.80938 0.63134 0.0
C1474 C 0.98138 0.75888 0.64532 0.0
C1475 C 0.02569 0.82317 0.62656 0.0
C1476 C 0.89975 0.69568 0.65127 0.0
C1477 C 0.91826 0.70979 0.64701 0.0
C1478 C 0.94688 0.76131 0.63831 0.0
C1479 C 0.00223 0.78891 0.63197 0.0
C1480 C 0.98269 0.77414 0.637 0.0
C1481 C 0.92622 0.73111 0.65115 0.0
C1482 C 0.94565 0.746 0.6464 0.0
H1483 H 0.04455 0.79137 0.62017 0.0
H1484 H 0.01235 0.76702 0.62774 0.0
H1485 H 0.96534 0.7863 0.62689 0.0
H1486 H 0.88924 0.72984 0.67101 0.0
H1487 H 0.92141 0.75452 0.66315 0.0
C1488 C 0.1751 0.19387 0.59813 0.0
C1489 C 0.1716 0.20871 0.60605 0.0
C1490 C 0.19061 0.19114 0.60419 0.0
C1491 C 0.21986 0.19746 0.64089 0.0
H1492 H 0.25677 0.19242 0.61523 0.0
C1493 C 0.28591 0.19057 0.66718 0.0
C1494 C 0.29035 0.1769 0.65859 0.0
C1495 C 0.27243 0.19558 0.66047 0.0
C1496 C 0.24643 0.19353 0.62252 0.0
H1497 H 0.18175 0.2325 0.62644 0.0
H1498 H 0.20869 0.22753 0.6371 0.0
H1499 H 0.23125 0.19898 0.60398 0.0
H1500 H 0.28427 0.15789 0.63615 0.0
H1501 H 0.26027 0.16613 0.62456 0.0
H1502 H 0.23448 0.19144 0.65931 0.0
C1503 C 0.19941 0.21803 0.62621 0.0
C1504 C 0.23188 0.19737 0.61607 0.0
C1505 C 0.18405 0.22092 0.62007 0.0
C1506 C 0.28121 0.16854 0.64306 0.0
C1507 C 0.26753 0.17336 0.63639 0.0
C1508 C 0.23424 0.19341 0.64729 0.0
C1509 C 0.20276 0.20304 0.61837 0.0
C1510 C 0.21847 0.19938 0.62521 0.0
C1511 C 0.26286 0.18684 0.64505 0.0
C1512 C 0.24773 0.19141 0.6382 0.0
H1513 H 0.16579 0.18425 0.58728 0.0
H1514 H 0.19277 0.17936 0.59798 0.0
H1515 H 0.2095 0.19863 0.64813 0.0
H1516 H 0.29287 0.19747 0.67912 0.0
H1517 H 0.26955 0.20636 0.66739 0.0
C1518 C 0.75719 0.93377 0.64011 0.0
C1519 C 0.77195 0.92816 0.63938 0.0
C1520 C 0.76284 0.95425 0.64525 0.0
C1521 C 0.80398 0.00512 0.66607 0.0
H1522 H 0.78071 0.02583 0.63786 0.0
C1523 C 0.83434 0.09248 0.66829 0.0
C1524 C 0.82015 0.09828 0.66462 0.0
C1525 C 0.82831 0.07158 0.6667 0.0
C1526 C 0.78712 0.02029 0.64604 0.0
H1527 H 0.8041 0.93943 0.6444 0.0
H1528 H 0.81394 0.9753 0.65342 0.0
H1529 H 0.77018 0.98951 0.63318 0.0
H1530 H 0.78838 0.08681 0.65709 0.0
H1531 H 0.7778 0.05055 0.65473 0.0
H1532 H 0.82091 0.036 0.67897 0.0
C1533 C 0.79801 0.9638 0.64998 0.0
C1534 C 0.78108 -0.00055 0.64333 0.0
C1535 C 0.79237 0.94328 0.64475 0.0
C1536 C 0.79975 0.08284 0.65979 0.0
C1537 C 0.79369 0.06202 0.65837 0.0
C1538 C 0.80992 0.02603 0.66888 0.0
C1539 C 0.78334 0.96957 0.64985 0.0
C1540 C 0.78944 0.99163 0.65328 0.0
C1541 C 0.80793 0.0561 0.66154 0.0
C1542 C 0.80156 0.03386 0.65888 0.0
H1543 H 0.74131 0.92249 0.63619 0.0
H1544 H 0.75118 0.95822 0.64527 0.0
H1545 H 0.8106 -0.00053 0.67396 0.0
H1546 H 0.85019 0.10405 0.67204 0.0
H1547 H 0.83971 0.06759 0.6691 0.0
C1548 C 0.47715 0.38552 0.73001 0.0
C1549 C 0.48179 0.39355 0.74598 0.0
C1550 C 0.46451 0.36433 0.72465 0.0
C1551 C 0.44323 0.31327 0.7366 0.0
H1552 H 0.40284 0.29599 0.70058 0.0
C1553 C 0.37865 0.22808 0.71531 0.0
C1554 C 0.37365 0.22113 0.69918 0.0
C1555 C 0.39246 0.24893 0.72137 0.0
C1556 C 0.41418 0.30053 0.71054 0.0
H1557 H 0.47702 0.38552 0.76889 0.0
H1558 H 0.45475 0.34847 0.7595 0.0
H1559 H 0.42573 0.33262 0.71053 0.0
H1560 H 0.37973 0.23056 0.67677 0.0
H1561 H 0.40386 0.26673 0.68732 0.0
H1562 H 0.43155 0.28106 0.73659 0.0
C1563 C 0.46107 0.35859 0.75113 0.0
C1564 C 0.42732 0.32155 0.71624 0.0
C1565 C 0.47374 0.37984 0.7565 0.0
C1566 C 0.38308 0.23539 0.68926 0.0
C1567 C 0.39686 0.25617 0.69531 0.0
C1568 C 0.43005 0.29219 0.73088 0.0
C1569 C 0.45616 0.35063 0.73513 0.0
C1570 C 0.44207 0.32819 0.72929 0.0
C1571 C 0.40154 0.26325 0.71142 0.0
C1572 C 0.41545 0.28559 0.71772 0.0
H1573 H 0.48319 0.3956 0.72158 0.0
H1574 H 0.46132 0.35867 0.71227 0.0
H1575 H 0.45456 0.31788 0.74658 0.0
H1576 H 0.37166 0.21751 0.72328 0.0
H1577 H 0.39563 0.25392 0.73384 0.0
C1578 C 0.64785 0.10686 0.73846 0.0
C1579 C 0.62982 0.09227 0.72865 0.0
C1580 C 0.66665 0.11271 0.73368 0.0
C1581 C 0.69091 0.09743 0.70345 0.0
H1582 H 0.73475 0.15434 0.71612 0.0
C1583 C 0.76359 0.13497 0.67462 0.0
C1584 C 0.78184 0.1442 0.68486 0.0
C1585 C 0.74523 0.12855 0.68036 0.0
C1586 C 0.72264 0.13839 0.71258 0.0
H1587 H 0.61729 0.07239 0.70613 0.0
H1588 H 0.64993 0.08317 0.69747 0.0
H1589 H 0.7022 0.14309 0.72531 0.0
H1590 H 0.79531 0.15444 0.70909 0.0
H1591 H 0.76316 0.14371 0.71907 0.0
H1592 H 0.7113 0.09315 0.69019 0.0
C1593 C 0.64972 0.08966 0.70908 0.0
C1594 C 0.70401 0.13185 0.71791 0.0
C1595 C 0.63095 0.08354 0.714 0.0
C1596 C 0.78145 0.14728 0.70093 0.0
C1597 C 0.76312 0.14125 0.70665 0.0
C1598 C 0.7094 0.1041 0.69789 0.0
C1599 C 0.66786 0.10438 0.71883 0.0
C1600 C 0.68787 0.11127 0.71342 0.0
C1601 C 0.74486 0.13163 0.6964 0.0
C1602 C 0.72539 0.12461 0.70242 0.0
H1603 H 0.64743 0.11373 0.74988 0.0
H1604 H 0.68023 0.12372 0.74166 0.0
H1605 H 0.67907 0.08138 0.69998 0.0
H1606 H 0.76342 0.13231 0.66219 0.0
H1607 H 0.73132 0.12126 0.67225 0.0
C1608 C 0.90907 0.52161 0.70845 0.0
C1609 C 0.8947 0.50052 0.70731 0.0
C1610 C 0.9031 0.53531 0.7047 0.0
C1611 C 0.85749 0.54009 0.69887 0.0
H1612 H 0.89357 0.58716 0.68063 0.0
C1613 C 0.83447 0.59438 0.6748 0.0
C1614 C 0.84795 0.61558 0.68025 0.0
C1615 C 0.83982 0.57995 0.67777 0.0
C1616 C 0.8834 0.57411 0.68577 0.0
H1617 H 0.86285 0.47713 0.70105 0.0
H1618 H 0.8525 0.50081 0.69392 0.0
H1619 H 0.90343 0.56243 0.68593 0.0
H1620 H 0.87769 0.6383 0.69293 0.0
H1621 H 0.88715 0.61309 0.69782 0.0
H1622 H 0.83728 0.55168 0.69828 0.0
C1623 C 0.86832 0.50698 0.69817 0.0
C1624 C 0.88906 0.55998 0.68891 0.0
C1625 C 0.87426 0.49334 0.70215 0.0
C1626 C 0.86694 0.62207 0.68862 0.0
C1627 C 0.87242 0.60768 0.69134 0.0
C1628 C 0.85171 0.55407 0.6955 0.0
C1629 C 0.88264 0.52819 0.69949 0.0
C1630 C 0.87628 0.54287 0.69564 0.0
C1631 C 0.85889 0.5865 0.68599 0.0
C1632 C 0.86469 0.57129 0.68905 0.0
H1633 H 0.92493 0.52764 0.71251 0.0
H1634 H 0.91454 0.55155 0.70619 0.0
H1635 H 0.84738 0.52736 0.7043 0.0
H1636 H 0.8197 0.58891 0.66837 0.0
H1637 H 0.82917 0.56369 0.67346 0.0
C1638 C 0.48086 0.9279 0.21423 0.0
C1639 C 0.46982 0.93378 0.22355 0.0
C1640 C 0.48756 0.93678 0.20113 0.0
C1641 C 0.47558 0.96248 0.17286 0.0
H1642 H 0.52768 0.9757 0.16072 0.0
C1643 C 0.49443 0.97905 0.11184 0.0
C1644 C 0.5138 -0.00443 0.11077 0.0
C1645 C 0.48985 0.97214 0.12591 0.0
C1646 C 0.51315 0.97223 0.16401 0.0
H1647 H 0.45784 0.95416 0.2267 0.0
H1648 H 0.46971 0.96974 0.20395 0.0
H1649 H 0.51895 0.96351 0.18523 0.0
H1650 H 0.54365 0.01751 0.12359 0.0
H1651 H 0.53554 0.00559 0.14825 0.0
H1652 H 0.46981 0.97134 0.15176 0.0
C1653 C 0.47289 0.95803 0.20664 0.0
C1654 C 0.50807 0.96507 0.17797 0.0
C1655 C 0.46619 0.94917 0.21973 0.0
C1656 C 0.52854 0.00487 0.12407 0.0
C1657 C 0.52396 -0.00208 0.13816 0.0
C1658 C 0.48063 0.96958 0.1589 0.0
C1659 C 0.48339 0.95172 0.19706 0.0
C1660 C 0.48919 0.96004 0.18252 0.0
C1661 C 0.50451 0.98156 0.13926 0.0
C1662 C 0.49941 0.97442 0.15427 0.0
H1663 H 0.48393 0.9161 0.21683 0.0
H1664 H 0.49546 0.93144 0.19392 0.0
H1665 H 0.46082 0.95852 0.17593 0.0
H1666 H 0.48267 0.97169 0.10186 0.0
H1667 H 0.4748 0.95933 0.12633 0.0
C1668 C 0.03551 0.48432 0.23381 0.0
C1669 C 0.05675 0.49665 0.23711 0.0
C1670 C 0.02587 0.47658 0.21845 0.0
C1671 C 0.03485 0.46801 0.17782 0.0
H1672 H 0.99061 0.47706 0.16776 0.0
C1673 C 0.0121 0.47709 0.11683 0.0
C1674 C 0.99159 0.46978 0.11173 0.0
C1675 C 0.01822 0.47575 0.13176 0.0
C1676 C 0.00266 0.47401 0.17037 0.0
H1677 H 0.08456 0.50973 0.22687 0.0
H1678 H 0.0678 0.49645 0.20018 0.0
H1679 H 0.00462 0.48289 0.19476 0.0
H1680 H 0.96129 0.45422 0.11799 0.0
H1681 H 0.972 0.45188 0.1441 0.0
H1682 H 0.03326 0.45975 0.15334 0.0
C1683 C 0.05855 0.49258 0.20942 0.0
C1684 C 0.0107 0.47735 0.18587 0.0
C1685 C 0.06817 0.50033 0.22475 0.0
C1686 C 0.97724 0.4603 0.12167 0.0
C1687 C 0.98337 0.45896 0.13661 0.0
C1688 C 0.0268 0.46465 0.1623 0.0
C1689 C 0.03729 0.48095 0.20608 0.0
C1690 C 0.02718 0.47484 0.18976 0.0
C1691 C 0.00399 0.46707 0.14194 0.0
C1692 C 0.0109 0.46805 0.15839 0.0
H1693 H 0.02626 0.48109 0.24306 0.0
H1694 H 0.00947 0.46744 0.21624 0.0
H1695 H 0.04734 0.46561 0.18046 0.0
H1696 H 0.02358 0.48473 0.10955 0.0
H1697 H 0.03425 0.48242 0.13556 0.0
C1698 C 0.43995 0.5065 0.2224 0.0
C1699 C 0.45347 0.50759 0.23454 0.0
C1700 C 0.4431 0.50391 0.20696 0.0
C1701 C 0.48448 0.51564 0.18446 0.0
H1702 H 0.44261 0.47828 0.15013 0.0
C1703 C 0.49715 0.52028 0.12068 0.0
C1704 C 0.4918 0.50152 0.11128 0.0
C1705 C 0.49118 0.52049 0.13538 0.0
C1706 C 0.45443 0.48877 0.15963 0.0
H1707 H 0.48036 0.5058 0.23989 0.0
H1708 H 0.48585 0.50143 0.21301 0.0
H1709 H 0.43432 0.47842 0.17666 0.0
H1710 H 0.47538 0.46823 0.10958 0.0
H1711 H 0.46483 0.46859 0.13526 0.0
H1712 H 0.50459 0.52606 0.16753 0.0
C1713 C 0.47292 0.50274 0.21547 0.0
C1714 C 0.44967 0.48891 0.17475 0.0
C1715 C 0.46968 0.50511 0.23085 0.0
C1716 C 0.47988 0.48293 0.11667 0.0
C1717 C 0.4737 0.48312 0.13128 0.0
C1718 C 0.48917 0.51569 0.16936 0.0
C1719 C 0.45993 0.50257 0.20341 0.0
C1720 C 0.46471 0.50225 0.18732 0.0
C1721 C 0.47953 0.50192 0.14087 0.0
C1722 C 0.47423 0.5022 0.1568 0.0
H1723 H 0.42729 0.5083 0.22484 0.0
H1724 H 0.43287 0.50387 0.19788 0.0
H1725 H 0.49632 0.52626 0.19391 0.0
H1726 H 0.5064 0.53483 0.11684 0.0
H1727 H 0.49575 0.53519 0.1425 0.0
C1728 C 0.96595 0.4797 0.7783 0.0
C1729 C 0.94783 0.47767 0.77162 0.0
C1730 C 0.97061 0.48262 0.79439 0.0
C1731 C 0.95914 0.49908 0.83165 0.0
H1732 H 0.97724 0.46447 0.84713 0.0
C1733 C 0.9919 0.51078 0.8958 0.0
C1734 C 0.98574 0.49294 0.9024 0.0
C1735 C 0.98629 0.50918 0.88 0.0
C1736 C 0.97207 0.47413 0.84299 0.0
H1737 H 0.92079 0.47794 0.77667 0.0
H1738 H 0.92904 0.48317 0.80481 0.0
H1739 H 0.96994 0.46192 0.81922 0.0
H1740 H 0.96867 0.45946 0.89766 0.0
H1741 H 0.95884 0.45665 0.87003 0.0
H1742 H 0.96125 0.51125 0.85548 0.0
C1743 C 0.9396 0.48247 0.79755 0.0
C1744 C 0.96812 0.47285 0.82702 0.0
C1745 C 0.93485 0.47941 0.78143 0.0
C1746 C 0.97353 0.47347 0.89292 0.0
C1747 C 0.96807 0.47187 0.87709 0.0
C1748 C 0.96327 0.5005 0.84766 0.0
C1749 C 0.95734 0.48372 0.80417 0.0
C1750 C 0.96164 0.48532 0.82117 0.0
C1751 C 0.97456 0.4897 0.87044 0.0
C1752 C 0.96976 0.48801 0.85349 0.0
H1753 H 0.97633 0.4785 0.77109 0.0
H1754 H 0.98454 0.48383 0.79918 0.0
H1755 H 0.95425 0.50894 0.82747 0.0
H1756 H 0.00115 0.52599 0.90286 0.0
H1757 H 0.99162 0.52319 0.87519 0.0
C1758 C 0.52193 0.48799 0.77896 0.0
C1759 C 0.54075 0.50442 0.77682 0.0
C1760 C 0.51722 0.48492 0.79392 0.0
C1761 C 0.53163 0.51377 0.83411 0.0
H1762 H 0.49889 0.45935 0.84449 0.0
C1763 C 0.51428 0.5013 0.89639 0.0
C1764 C 0.49407 0.48703 0.89782 0.0
C1765 C 0.52071 0.503 0.88181 0.0
C1766 C 0.50794 0.47464 0.84172 0.0
H1767 H 0.5696 0.53021 0.78859 0.0
H1768 H 0.56162 0.52463 0.81466 0.0
H1769 H 0.50919 0.46261 0.81874 0.0
H1770 H 0.46471 0.4636 0.8849 0.0
H1771 H 0.47603 0.46639 0.85953 0.0
H1772 H 0.53038 0.52578 0.85709 0.0
C1773 C 0.55031 0.51429 0.80484 0.0
C1774 C 0.51383 0.47652 0.82696 0.0
C1775 C 0.55495 0.51742 0.7899 0.0
C1776 C 0.48047 0.47449 0.88429 0.0
C1777 C 0.48694 0.47608 0.86973 0.0
C1778 C 0.52585 0.51189 0.84888 0.0
C1779 C 0.53124 0.49825 0.80705 0.0
C1780 C 0.52565 0.49612 0.82294 0.0
C1781 C 0.50711 0.49037 0.86833 0.0
C1782 C 0.51383 0.49231 0.85281 0.0
H1783 H 0.51042 0.47814 0.76913 0.0
H1784 H 0.50226 0.47263 0.79517 0.0
H1785 H 0.54039 0.52911 0.83134 0.0
H1786 H 0.52525 0.51097 0.90656 0.0
H1787 H 0.53641 0.514 0.8811 0.0
C1788 C 0.53265 0.06156 0.79339 0.0
C1789 C 0.54158 0.05347 0.78356 0.0
C1790 C 0.52672 0.05409 0.80712 0.0
C1791 C 0.51455 0.00985 0.8269 0.0
H1792 H 0.52852 0.04968 0.86439 0.0
C1793 C 0.50959 0.98747 0.88773 0.0
C1794 C 0.50266 -0.00341 0.89871 0.0
C1795 C 0.51348 -0.0059 0.87348 0.0
C1796 C 0.52424 0.03832 0.854 0.0
H1797 H 0.55132 0.03125 0.7804 0.0
H1798 H 0.54104 0.01826 0.80438 0.0
H1799 H 0.53641 0.06158 0.83977 0.0
H1800 H 0.494 0.01954 0.90321 0.0
H1801 H 0.50063 0.03101 0.8783 0.0
H1802 H 0.50239 0.98658 0.84112 0.0
C1803 C 0.53837 0.03017 0.80139 0.0
C1804 C 0.52878 0.04515 0.83989 0.0
C1805 C 0.54437 0.03771 0.7877 0.0
C1806 C 0.49961 0.01242 0.89509 0.0
C1807 C 0.50342 0.019 0.88081 0.0
C1808 C 0.50994 0.003 0.84101 0.0
C1809 C 0.52961 0.03838 0.81131 0.0
C1810 C 0.52409 0.03101 0.82619 0.0
C1811 C 0.51046 0.00995 0.86985 0.0
C1812 C 0.51485 0.01716 0.85475 0.0
H1813 H 0.53082 0.07411 0.79078 0.0
H1814 H 0.51995 0.06068 0.81449 0.0
H1815 H 0.5105 -0.00145 0.81651 0.0
H1816 H 0.51236 0.97544 0.89027 0.0
H1817 H 0.51922 0.98703 0.86543 0.0
C1818 C 0.12661 0.24576 0.53789 0.0
C1819 C 0.12445 0.25494 0.55194 0.0
C1820 C 0.12963 0.25534 0.52491 0.0
C1821 C 0.15076 0.30566 0.51351 0.0
H1822 H 0.12147 0.27391 0.47291 0.0
C1823 C 0.16586 0.34198 0.45778 0.0
C1824 C 0.16566 0.32976 0.44432 0.0
C1825 C 0.15945 0.33349 0.47109 0.0
C1826 C 0.12995 0.28296 0.48413 0.0
H1827 H 0.12408 0.28152 0.56351 0.0
H1828 H 0.12959 0.29848 0.54071 0.0
H1829 H 0.11237 0.25786 0.49585 0.0
H1830 H 0.15835 0.2989 0.43435 0.0
H1831 H 0.14808 0.2844 0.45765 0.0
H1832 H 0.16888 0.33053 0.5018 0.0
C1833 C 0.12868 0.28371 0.53977 0.0
C1834 C 0.12463 0.27379 0.49727 0.0
C1835 C 0.12533 0.27393 0.55275 0.0
C1836 C 0.15901 0.30888 0.44455 0.0
C1837 C 0.15276 0.30045 0.45787 0.0
C1838 C 0.15623 0.3148 0.50033 0.0
C1839 C 0.13087 0.27448 0.52574 0.0
C1840 C 0.13518 0.28493 0.51206 0.0
C1841 C 0.15279 0.31259 0.47129 0.0
C1842 C 0.14611 0.30345 0.48544 0.0
H1843 H 0.12602 0.23114 0.53693 0.0
H1844 H 0.13152 0.248 0.5143 0.0
H1845 H 0.15926 0.31454 0.52477 0.0
H1846 H 0.17109 0.35817 0.4581 0.0
H1847 H 0.15953 0.34327 0.48116 0.0
C1848 C 0.73323 0.8338 0.56131 0.0
C1849 C 0.72234 0.83087 0.57395 0.0
C1850 C 0.72308 0.82642 0.54611 0.0
C1851 C 0.67567 0.81444 0.52374 0.0
H1852 H 0.69505 0.79438 0.49015 0.0
C1853 C 0.64084 0.79954 0.46015 0.0
C1854 C 0.65497 0.80796 0.44986 0.0
C1855 C 0.64698 0.79777 0.47495 0.0
C1856 C 0.68948 0.79999 0.49941 0.0
H1857 H 0.69218 0.81697 0.58055 0.0
H1858 H 0.67446 0.804 0.55397 0.0
H1859 H 0.7096 0.79926 0.51697 0.0
H1860 H 0.68655 0.82068 0.44692 0.0
H1861 H 0.69726 0.81768 0.47267 0.0
H1862 H 0.65605 0.81586 0.50623 0.0
C1863 C 0.69088 0.81225 0.55585 0.0
C1864 C 0.6978 0.80277 0.51475 0.0
C1865 C 0.70104 0.8196 0.57107 0.0
C1866 C 0.67522 0.81386 0.45448 0.0
C1867 C 0.68136 0.81211 0.46926 0.0
C1868 C 0.66737 0.81169 0.50841 0.0
C1869 C 0.70181 0.81595 0.5432 0.0
C1870 C 0.69129 0.81045 0.52707 0.0
C1871 C 0.66739 0.80441 0.47977 0.0
C1872 C 0.67449 0.80485 0.49604 0.0
H1873 H 0.74965 0.84236 0.5631 0.0
H1874 H 0.73198 0.82973 0.53665 0.0
H1875 H 0.67051 0.82066 0.53293 0.0
H1876 H 0.62506 0.79456 0.45684 0.0
H1877 H 0.63579 0.79147 0.48269 0.0
C1878 C 0.10224 0.83694 0.55158 0.0
C1879 C 0.11484 0.83768 0.56428 0.0
C1880 C 0.10651 0.8346 0.53645 0.0
C1881 C 0.14983 0.84683 0.51617 0.0
H1882 H 0.11043 0.81001 0.48038 0.0
C1883 C 0.16775 0.85295 0.45358 0.0
C1884 C 0.1632 0.83437 0.4443 0.0
C1885 C 0.16054 0.85279 0.46781 0.0
C1886 C 0.12156 0.82035 0.4903 0.0
H1887 H 0.14119 0.83546 0.57093 0.0
H1888 H 0.14863 0.83155 0.54461 0.0
H1889 H 0.09988 0.80954 0.5062 0.0
H1890 H 0.14697 0.80106 0.44232 0.0
H1891 H 0.13423 0.80078 0.46717 0.0
H1892 H 0.17149 0.85773 0.50037 0.0
C1893 C 0.13557 0.83293 0.54638 0.0
C1894 C 0.11551 0.82015 0.50501 0.0
C1895 C 0.13121 0.83505 0.56145 0.0
C1896 C 0.15086 0.81561 0.44932 0.0
C1897 C 0.14343 0.81543 0.46346 0.0
C1898 C 0.15579 0.84724 0.50147 0.0
C1899 C 0.12356 0.83317 0.53378 0.0
C1900 C 0.12965 0.83328 0.5181 0.0
C1901 C 0.14843 0.83403 0.47293 0.0
C1902 C 0.14176 0.83394 0.4884 0.0
H1903 H 0.0895 0.83887 0.55335 0.0
H1904 H 0.09703 0.83485 0.52692 0.0
H1905 H 0.16098 0.85729 0.52604 0.0
H1906 H 0.17729 0.86762 0.45 0.0
H1907 H 0.1645 0.86734 0.47485 0.0
C1908 C 0.60207 0.8154 0.12173 0.0
C1909 C 0.61398 0.81297 0.11116 0.0
C1910 C 0.60817 0.81914 0.13772 0.0
C1911 C 0.63842 0.80971 0.16576 0.0
H1912 H 0.63272 0.84803 0.19528 0.0
C1913 C 0.64414 0.80864 0.23148 0.0
C1914 C 0.65625 0.82786 0.24131 0.0
C1915 C 0.63906 0.8076 0.21567 0.0
C1916 C 0.63447 0.83733 0.18716 0.0
H1917 H 0.64211 0.81345 0.10916 0.0
H1918 H 0.65271 0.81996 0.13705 0.0
H1919 H 0.62474 0.84601 0.16744 0.0
H1920 H 0.67203 0.86104 0.24239 0.0
H1921 H 0.66314 0.85921 0.21476 0.0
H1922 H 0.64811 0.80099 0.18542 0.0
C1923 C 0.63854 0.81876 0.13293 0.0
C1924 C 0.62978 0.83608 0.17125 0.0
C1925 C 0.63252 0.81517 0.11695 0.0
C1926 C 0.66283 0.84601 0.23506 0.0
C1927 C 0.6576 0.84497 0.21928 0.0
C1928 C 0.64293 0.81083 0.18165 0.0
C1929 C 0.62625 0.82039 0.14348 0.0
C1930 C 0.63173 0.82226 0.16038 0.0
C1931 C 0.64583 0.82575 0.20939 0.0
C1932 C 0.64098 0.82462 0.19252 0.0
H1933 H 0.58772 0.81384 0.11766 0.0
H1934 H 0.59833 0.82022 0.14556 0.0
H1935 H 0.63984 0.79873 0.15767 0.0
H1936 H 0.63896 0.7944 0.23594 0.0
H1937 H 0.6298 0.79257 0.20836 0.0
C1938 C 0.20924 0.85196 0.11735 0.0
C1939 C 0.2142 0.83795 0.11004 0.0
C1940 C 0.20467 0.85133 0.1325 0.0
C1941 C 0.21212 0.83407 0.16848 0.0
H1942 H 0.16536 0.83735 0.17811 0.0
C1943 C 0.18167 0.8188 0.22696 0.0
C1944 C 0.17393 0.83073 0.23349 0.0
C1945 C 0.18721 0.82021 0.21209 0.0
C1946 C 0.17865 0.83672 0.1757 0.0
H1947 H 0.2193 0.81302 0.11318 0.0
H1948 H 0.21103 0.81169 0.13959 0.0
H1949 H 0.17382 0.83877 0.15183 0.0
H1950 H 0.16653 0.85397 0.22975 0.0
H1951 H 0.17652 0.85674 0.20391 0.0
H1952 H 0.21709 0.83222 0.19236 0.0
C1953 C 0.21051 0.82305 0.13354 0.0
C1954 C 0.18346 0.83748 0.16061 0.0
C1955 C 0.21494 0.82359 0.11832 0.0
C1956 C 0.17219 0.84438 0.22494 0.0
C1957 C 0.17786 0.8459 0.21011 0.0
C1958 C 0.20739 0.83345 0.18361 0.0
C1959 C 0.20521 0.83684 0.14076 0.0
C1960 C 0.20021 0.83612 0.15682 0.0
C1961 C 0.18527 0.8337 0.20344 0.0
C1962 C 0.19056 0.83472 0.18741 0.0
H1963 H 0.20867 0.86329 0.11128 0.0
H1964 H 0.20091 0.86234 0.13783 0.0
H1965 H 0.22528 0.83327 0.16596 0.0
H1966 H 0.18292 0.80793 0.23318 0.0
H1967 H 0.19255 0.81034 0.20725 0.0
C1968 C 0.22691 0.40077 0.13234 0.0
C1969 C 0.20993 0.39512 0.12153 0.0
C1970 C 0.22455 0.392 0.14578 0.0
C1971 C 0.18848 0.34773 0.16309 0.0
H1972 H 0.21626 0.38477 0.20232 0.0
C1973 C 0.16363 0.32428 0.22151 0.0
C1974 C 0.17866 0.33089 0.23435 0.0
C1975 C 0.16876 0.33141 0.20757 0.0
C1976 C 0.20862 0.37415 0.19146 0.0
H1977 H 0.1772 0.37533 0.11615 0.0
H1978 H 0.17314 0.36014 0.13948 0.0
H1979 H 0.22318 0.39816 0.17811 0.0
H1980 H 0.21094 0.34993 0.2425 0.0
H1981 H 0.2199 0.36238 0.21813 0.0
H1982 H 0.17373 0.32377 0.17641 0.0
C1983 C 0.18829 0.37125 0.13758 0.0
C1984 C 0.2126 0.38182 0.17758 0.0
C1985 C 0.19063 0.38009 0.12423 0.0
C1986 C 0.19897 0.34476 0.23289 0.0
C1987 C 0.2041 0.35188 0.21892 0.0
C1988 C 0.18453 0.34005 0.17695 0.0
C1989 C 0.20518 0.37727 0.1486 0.0
C1990 C 0.20233 0.36876 0.16325 0.0
C1991 C 0.18905 0.34532 0.2061 0.0
C1992 C 0.19431 0.35322 0.19132 0.0
H1993 H 0.242 0.41229 0.13061 0.0
H1994 H 0.23788 0.3968 0.15399 0.0
H1995 H 0.18056 0.3372 0.15222 0.0
H1996 H 0.14781 0.31388 0.22232 0.0
H1997 H 0.15672 0.32634 0.19803 0.0
C1998 C 0.79051 0.60907 0.88538 0.0
C1999 C 0.79701 0.59631 0.89069 0.0
C2000 C 0.7969 0.61763 0.87212 0.0
C2001 C 0.83529 0.62922 0.84549 0.0
H2002 H 0.79443 0.62806 0.81654 0.0
C2003 C 0.85402 0.66827 0.7911 0.0
C2004 C 0.8401 0.65767 0.7774 0.0
C2005 C 0.84948 0.6611 0.80513 0.0
C2006 C 0.806 0.62836 0.82443 0.0
H2007 H 0.81579 0.58304 0.88643 0.0
H2008 H 0.82672 0.59782 0.86318 0.0
H2009 H 0.78552 0.61529 0.8407 0.0
H2010 H 0.81048 0.63119 0.76775 0.0
H2011 H 0.80279 0.61846 0.79208 0.0
H2012 H 0.85563 0.64185 0.82898 0.0
C2013 C 0.81685 0.60136 0.86937 0.0
C2014 C 0.80096 0.6213 0.8384 0.0
C2015 C 0.81049 0.59281 0.88266 0.0
C2016 C 0.82165 0.63962 0.77803 0.0
C2017 C 0.81712 0.63246 0.79204 0.0
C2018 C 0.84034 0.63631 0.83149 0.0
C2019 C 0.80989 0.61363 0.86381 0.0
C2020 C 0.81552 0.6216 0.8491 0.0
C2021 C 0.83091 0.64319 0.80579 0.0
C2022 C 0.82572 0.63588 0.82076 0.0
H2023 H 0.78026 0.61222 0.89132 0.0
H2024 H 0.79155 0.62733 0.86832 0.0
H2025 H 0.84691 0.62983 0.85353 0.0
H2026 H 0.86846 0.68211 0.79099 0.0
H2027 H 0.86038 0.66983 0.81552 0.0
C2028 C 0.40603 0.17662 0.89605 0.0
C2029 C 0.39421 0.17023 0.90805 0.0
C2030 C 0.39687 0.17107 0.88063 0.0
C2031 C 0.34872 0.15643 0.85751 0.0
H2032 H 0.37406 0.14649 0.82341 0.0
C2033 C 0.31523 0.14161 0.79311 0.0
C2034 C 0.32921 0.15285 0.78342 0.0
C2035 C 0.32195 0.14105 0.80813 0.0
C2036 C 0.36685 0.14931 0.83282 0.0
H2037 H 0.36351 0.15217 0.91318 0.0
H2038 H 0.34752 0.14225 0.88618 0.0
H2039 H 0.38779 0.14928 0.85001 0.0
H2040 H 0.3612 0.17256 0.78206 0.0
H2041 H 0.37287 0.17142 0.80816 0.0
H2042 H 0.32795 0.15673 0.84029 0.0
C2043 C 0.36388 0.15186 0.88876 0.0
C2044 C 0.37471 0.15091 0.84805 0.0
C2045 C 0.37305 0.15745 0.90422 0.0
C2046 C 0.35004 0.16345 0.78909 0.0
C2047 C 0.35674 0.16279 0.80406 0.0
C2048 C 0.34081 0.15473 0.84227 0.0
C2049 C 0.37567 0.15894 0.87682 0.0
C2050 C 0.36599 0.1549 0.86059 0.0
C2051 C 0.34278 0.15162 0.81374 0.0
C2052 C 0.35004 0.15156 0.82979 0.0
H2053 H 0.42237 0.18648 0.89857 0.0
H2054 H 0.40641 0.17702 0.87177 0.0
H2055 H 0.3418 0.15979 0.8669 0.0
H2056 H 0.2991 0.13302 0.78902 0.0
H2057 H 0.31086 0.13217 0.8153 0.0
C2058 C 0.80408 0.1699 0.89044 0.0
C2059 C 0.78712 0.17171 0.89271 0.0
C2060 C 0.80885 0.16756 0.87554 0.0
C2061 C 0.78935 0.15334 0.83384 0.0
H2062 H 0.84496 0.19266 0.82951 0.0
C2063 C 0.82514 0.15153 0.77787 0.0
C2064 C 0.83666 0.17057 0.77297 0.0
C2065 C 0.81796 0.15069 0.79215 0.0
C2066 C 0.82938 0.18164 0.83054 0.0
H2067 H 0.76116 0.17113 0.88098 0.0
H2068 H 0.76941 0.16675 0.85488 0.0
H2069 H 0.83411 0.19166 0.85509 0.0
H2070 H 0.84962 0.20363 0.7791 0.0
H2071 H 0.83725 0.20219 0.80419 0.0
H2072 H 0.78468 0.14336 0.80922 0.0
C2073 C 0.77905 0.16729 0.86469 0.0
C2074 C 0.82322 0.18092 0.84518 0.0
C2075 C 0.77436 0.16985 0.87964 0.0
C2076 C 0.84071 0.18874 0.78257 0.0
C2077 C 0.83376 0.18793 0.79695 0.0
C2078 C 0.79559 0.15388 0.81918 0.0
C2079 C 0.79667 0.16674 0.86255 0.0
C2080 C 0.80314 0.16682 0.84699 0.0
C2081 C 0.82238 0.1689 0.8019 0.0
C2082 C 0.81565 0.16814 0.81739 0.0
H2083 H 0.81421 0.17119 0.90023 0.0
H2084 H 0.82237 0.16687 0.87418 0.0
H2085 H 0.77379 0.14231 0.83493 0.0
H2086 H 0.82164 0.13726 0.77062 0.0
H2087 H 0.80932 0.13583 0.79573 0.0
C2088 C 0.30775 0.15132 0.45021 0.0
C2089 C 0.29037 0.15172 0.44493 0.0
C2090 C 0.31436 0.15494 0.46609 0.0
C2091 C 0.31041 0.17631 0.50485 0.0
H2092 H 0.32108 0.13553 0.5184 0.0
C2093 C 0.34259 0.18206 0.56811 0.0
C2094 C 0.33338 0.16378 0.57435 0.0
C2095 C 0.33764 0.18171 0.55242 0.0
C2096 C 0.31808 0.14698 0.5148 0.0
H2097 H 0.26699 0.15737 0.4522 0.0
H2098 H 0.27865 0.16379 0.47994 0.0
H2099 H 0.31276 0.1339 0.49078 0.0
H2100 H 0.31172 0.13083 0.56907 0.0
H2101 H 0.30307 0.13022 0.54166 0.0
H2102 H 0.31556 0.18924 0.52896 0.0
C2103 C 0.2871 0.16064 0.47177 0.0
C2104 C 0.31354 0.1462 0.49898 0.0
C2105 C 0.28039 0.15687 0.45587 0.0
C2106 C 0.31897 0.14518 0.56461 0.0
C2107 C 0.31416 0.1448 0.5489 0.0
C2108 C 0.31515 0.17721 0.5207 0.0
C2109 C 0.30386 0.1592 0.47703 0.0
C2110 C 0.30956 0.16078 0.49383 0.0
C2111 C 0.32352 0.16304 0.54262 0.0
C2112 C 0.31887 0.16245 0.52583 0.0
H2113 H 0.31586 0.14749 0.44211 0.0
H2114 H 0.32751 0.15403 0.46981 0.0
H2115 H 0.30749 0.18779 0.5012 0.0
H2116 H 0.35362 0.19666 0.57538 0.0
H2117 H 0.34517 0.19598 0.54788 0.0
C2118 C 0.89176 0.18917 0.45134 0.0
C2119 C 0.87805 0.17513 0.43837 0.0
C2120 C 0.8875 0.18604 0.46635 0.0
C2121 C 0.85402 0.1469 0.48901 0.0
H2122 H 0.86649 0.1953 0.51857 0.0
C2123 C 0.821 0.14193 0.5467 0.0
C2124 C 0.83423 0.15556 0.56006 0.0
C2125 C 0.82715 0.14394 0.53205 0.0
C2126 C 0.86313 0.18167 0.51052 0.0
H2127 H 0.84891 0.14701 0.43095 0.0
H2128 H 0.84141 0.14145 0.45712 0.0
H2129 H 0.87586 0.19916 0.49267 0.0
H2130 H 0.86444 0.18188 0.56841 0.0
H2131 H 0.87501 0.18558 0.54278 0.0
H2132 H 0.84089 0.12941 0.50685 0.0
C2133 C 0.85575 0.15462 0.45573 0.0
C2134 C 0.86854 0.18387 0.49566 0.0
C2135 C 0.86009 0.15771 0.4407 0.0
C2136 C 0.85373 0.17132 0.55837 0.0
C2137 C 0.85983 0.17341 0.54369 0.0
C2138 C 0.8485 0.1447 0.50385 0.0
C2139 C 0.86928 0.16891 0.46874 0.0
C2140 C 0.86402 0.16651 0.4847 0.0
C2141 C 0.84661 0.15971 0.53037 0.0
C2142 C 0.85294 0.16206 0.51475 0.0
H2143 H 0.90574 0.20274 0.44988 0.0
H2144 H 0.89842 0.19716 0.47608 0.0
H2145 H 0.85055 0.13325 0.48094 0.0
H2146 H 0.80574 0.12985 0.5475 0.0
H2147 H 0.8165 0.13336 0.52198 0.0
C2148 C 0.89026 0.73442 0.46786 0.0
C2149 C 0.87578 0.73127 0.45559 0.0
C2150 C 0.88426 0.72615 0.48127 0.0
C2151 C 0.84128 0.68554 0.49652 0.0
H2152 H 0.87116 0.71964 0.53637 0.0
C2153 C 0.81689 0.65977 0.55502 0.0
C2154 C 0.83241 0.66444 0.56696 0.0
C2155 C 0.82155 0.66778 0.5413 0.0
C2156 C 0.86279 0.70982 0.52534 0.0
H2157 H 0.84356 0.71603 0.44756 0.0
H2158 H 0.83304 0.70185 0.47114 0.0
H2159 H 0.88027 0.73378 0.51269 0.0
H2160 H 0.865 0.68077 0.57366 0.0
H2161 H 0.87312 0.69464 0.54977 0.0
H2162 H 0.82389 0.66151 0.50921 0.0
C2163 C 0.84908 0.71086 0.47037 0.0
C2164 C 0.868 0.71794 0.51176 0.0
C2165 C 0.85511 0.71924 0.45693 0.0
C2166 C 0.85267 0.67717 0.56482 0.0
C2167 C 0.85733 0.68513 0.55111 0.0
C2168 C 0.83608 0.67738 0.51014 0.0
C2169 C 0.86361 0.71437 0.48274 0.0
C2170 C 0.85743 0.70586 0.49718 0.0
C2171 C 0.84183 0.68062 0.5392 0.0
C2172 C 0.84689 0.68938 0.52471 0.0
H2173 H 0.90632 0.74352 0.46718 0.0
H2174 H 0.89584 0.72884 0.49045 0.0
H2175 H 0.83297 0.67576 0.48546 0.0
H2176 H 0.80111 0.65023 0.55638 0.0
H2177 H 0.80923 0.66421 0.53246 0.0
loop_
_geom_bond_atom_site_label_1
_geom_bond_atom_site_label_2
_geom_bond_distance
_geom_bond_site_symmetry_2
_ccdc_geom_bond_type
O0 Cd1 2.300 . S
O0 C7 1.275 . S
Cd1 O0 2.300 . S
Cd1 O9 2.381 . S
Cd1 O10 2.378 . S
O2 Cd3 2.385 . S
O2 C7 1.255 . S
Cd3 O2 2.385 . S
Cd3 O4 2.317 . S
O4 Cd3 2.317 . S
O4 C5 1.232 . S
C5 O4 1.232 . S
C5 O6 1.218 . S
O6 C5 1.218 . S
C7 O0 1.275 . S
C7 O2 1.255 . S
C8 O9 1.258 . S
C8 O10 1.256 . S
O9 Cd1 2.381 . S
O9 C8 1.258 . S
O10 Cd1 2.378 . S
O10 C8 1.256 . S
O11 Cd12 2.300 . S
O11 C18 1.275 . S
Cd12 O11 2.300 . S
Cd12 O20 2.381 . S
Cd12 O21 2.378 . S
O13 Cd14 2.385 . S
O13 C18 1.255 . S
Cd14 O13 2.385 . S
Cd14 O15 2.317 . S
O15 Cd14 2.317 . S
O15 C16 1.232 . S
C16 O15 1.232 . S
C16 O17 1.218 . S
O17 C16 1.218 . S
C18 O11 1.275 . S
C18 O13 1.255 . S
C19 O20 1.258 . S
C19 O21 1.256 . S
O20 Cd12 2.381 . S
O20 C19 1.258 . S
O21 Cd12 2.378 . S
O21 C19 1.256 . S
O22 Cd23 2.300 . S
O22 C29 1.275 . S
Cd23 O22 2.300 . S
Cd23 O31 2.381 . S
Cd23 O32 2.378 . S
O24 Cd25 2.385 . S
O24 C29 1.255 . S
Cd25 O24 2.385 . S
Cd25 O26 2.317 . S
O26 Cd25 2.317 . S
O26 C27 1.232 . S
C27 O26 1.232 . S
C27 O28 1.218 . S
O28 C27 1.218 . S
C29 O22 1.275 . S
C29 O24 1.255 . S
C30 O31 1.258 . S
C30 O32 1.256 . S
O31 Cd23 2.381 . S
O31 C30 1.258 . S
O32 Cd23 2.378 . S
O32 C30 1.256 . S
O33 Cd34 2.300 . S
O33 C40 1.275 . S
Cd34 O33 2.300 . S
Cd34 O42 2.381 . S
Cd34 O43 2.378 . S
O35 Cd36 2.385 . S
O35 C40 1.255 . S
Cd36 O35 2.385 . S
Cd36 O37 2.317 . S
O37 Cd36 2.317 . S
O37 C38 1.232 . S
C38 O37 1.232 . S
C38 O39 1.218 . S
O39 C38 1.218 . S
C40 O33 1.275 . S
C40 O35 1.255 . S
C41 O42 1.258 . S
C41 O43 1.256 . S
O42 Cd34 2.381 . S
O42 C41 1.258 . S
O43 Cd34 2.378 . S
O43 C41 1.256 . S
O44 Cd45 2.300 . S
O44 C51 1.275 . S
Cd45 O44 2.300 . S
Cd45 O53 2.381 . S
Cd45 O54 2.378 . S
O46 Cd47 2.385 . S
O46 C51 1.255 . S
Cd47 O46 2.385 . S
Cd47 O48 2.317 . S
O48 Cd47 2.317 . S
O48 C49 1.232 . S
C49 O48 1.232 . S
C49 O50 1.218 . S
O50 C49 1.218 . S
C51 O44 1.275 . S
C51 O46 1.255 . S
C52 O53 1.258 . S
C52 O54 1.256 . S
O53 Cd45 2.381 . S
O53 C52 1.258 . S
O54 Cd45 2.378 . S
O54 C52 1.256 . S
O55 Cd56 2.300 . S
O55 C62 1.275 . S
Cd56 O55 2.300 . S
Cd56 O64 2.381 . S
Cd56 O65 2.378 . S
O57 Cd58 2.385 . S
O57 C62 1.255 . S
Cd58 O57 2.385 . S
Cd58 O59 2.317 . S
O59 Cd58 2.317 . S
O59 C60 1.232 . S
C60 O59 1.232 . S
C60 O61 1.218 . S
O61 C60 1.218 . S
C62 O55 1.275 . S
C62 O57 1.255 . S
C63 O64 1.258 . S
C63 O65 1.256 . S
O64 Cd56 2.381 . S
O64 C63 1.258 . S
O65 Cd56 2.378 . S
O65 C63 1.256 . S
O66 Cd67 2.300 . S
O66 C73 1.275 . S
Cd67 O66 2.300 . S
Cd67 O75 2.381 . S
Cd67 O76 2.378 . S
O68 Cd69 2.385 . S
O68 C73 1.255 . S
Cd69 O68 2.385 . S
Cd69 O70 2.317 . S
O70 Cd69 2.317 . S
O70 C71 1.232 . S
C71 O70 1.232 . S
C71 O72 1.218 . S
O72 C71 1.218 . S
C73 O66 1.275 . S
C73 O68 1.255 . S
C74 O75 1.258 . S
C74 O76 1.256 . S
O75 Cd67 2.381 . S
O75 C74 1.258 . S
O76 Cd67 2.378 . S
O76 C74 1.256 . S
O77 Cd78 2.300 . S
O77 C84 1.275 . S
Cd78 O77 2.300 . S
Cd78 O86 2.381 . S
Cd78 O87 2.378 . S
O79 Cd80 2.385 . S
O79 C84 1.255 . S
Cd80 O79 2.385 . S
Cd80 O81 2.317 . S
O81 Cd80 2.317 . S
O81 C82 1.232 . S
C82 O81 1.232 . S
C82 O83 1.218 . S
O83 C82 1.218 . S
C84 O77 1.275 . S
C84 O79 1.255 . S
C85 O86 1.258 . S
C85 O87 1.256 . S
O86 Cd78 2.381 . S
O86 C85 1.258 . S
O87 Cd78 2.378 . S
O87 C85 1.256 . S
O88 Cd89 2.300 . S
O88 C95 1.275 . S
Cd89 O88 2.300 . S
Cd89 O97 2.381 . S
Cd89 O98 2.378 . S
O90 Cd91 2.385 . S
O90 C95 1.255 . S
Cd91 O90 2.385 . S
Cd91 O92 2.317 . S
O92 Cd91 2.317 . S
O92 C93 1.232 . S
C93 O92 1.232 . S
C93 O94 1.218 . S
O94 C93 1.218 . S
C95 O88 1.275 . S
C95 O90 1.255 . S
C96 O97 1.258 . S
C96 O98 1.256 . S
O97 Cd89 2.381 . S
O97 C96 1.258 . S
O98 Cd89 2.378 . S
O98 C96 1.256 . S
O99 Cd100 2.300 . S
O99 C106 1.275 . S
Cd100 O99 2.300 . S
Cd100 O108 2.381 . S
Cd100 O109 2.378 . S
O101 Cd102 2.385 . S
O101 C106 1.255 . S
Cd102 O101 2.385 . S
Cd102 O103 2.317 . S
O103 Cd102 2.317 . S
O103 C104 1.232 . S
C104 O103 1.232 . S
C104 O105 1.218 . S
O105 C104 1.218 . S
C106 O99 1.275 . S
C106 O101 1.255 . S
C107 O108 1.258 . S
C107 O109 1.256 . S
O108 Cd100 2.381 . S
O108 C107 1.258 . S
O109 Cd100 2.378 . S
O109 C107 1.256 . S
O110 Cd111 2.300 . S
O110 C117 1.275 . S
Cd111 O110 2.300 . S
Cd111 O119 2.381 . S
Cd111 O120 2.378 . S
O112 Cd113 2.385 . S
O112 C117 1.255 . S
Cd113 O112 2.385 . S
Cd113 O114 2.317 . S
O114 Cd113 2.317 . S
O114 C115 1.232 . S
C115 O114 1.232 . S
C115 O116 1.218 . S
O116 C115 1.218 . S
C117 O110 1.275 . S
C117 O112 1.255 . S
C118 O119 1.258 . S
C118 O120 1.256 . S
O119 Cd111 2.381 . S
O119 C118 1.258 . S
O120 Cd111 2.378 . S
O120 C118 1.256 . S
O121 Cd122 2.300 . S
O121 C128 1.275 . S
Cd122 O121 2.300 . S
Cd122 O130 2.381 . S
Cd122 O131 2.378 . S
O123 Cd124 2.385 . S
O123 C128 1.255 . S
Cd124 O123 2.385 . S
Cd124 O125 2.317 . S
O125 Cd124 2.317 . S
O125 C126 1.232 . S
C126 O125 1.232 . S
C126 O127 1.218 . S
O127 C126 1.218 . S
C128 O121 1.275 . S
C128 O123 1.255 . S
C129 O130 1.258 . S
C129 O131 1.256 . S
O130 Cd122 2.381 . S
O130 C129 1.258 . S
O131 Cd122 2.378 . S
O131 C129 1.256 . S
O132 Cd133 2.300 . S
O132 C139 1.275 . S
Cd133 O132 2.300 . S
Cd133 O141 2.381 . S
Cd133 O142 2.378 . S
O134 Cd135 2.385 . S
O134 C139 1.255 . S
Cd135 O134 2.385 . S
Cd135 O136 2.317 . S
O136 Cd135 2.317 . S
O136 C137 1.232 . S
C137 O136 1.232 . S
C137 O138 1.218 . S
O138 C137 1.218 . S
C139 O132 1.275 . S
C139 O134 1.255 . S
C140 O141 1.258 . S
C140 O142 1.256 . S
O141 Cd133 2.381 . S
O141 C140 1.258 . S
O142 Cd133 2.378 . S
O142 C140 1.256 . S
O143 Cd144 2.300 . S
O143 C150 1.275 . S
Cd144 O143 2.300 . S
Cd144 O152 2.381 . S
Cd144 O153 2.378 . S
O145 Cd146 2.385 . S
O145 C150 1.255 . S
Cd146 O145 2.385 . S
Cd146 O147 2.317 . S
O147 Cd146 2.317 . S
O147 C148 1.232 . S
C148 O147 1.232 . S
C148 O149 1.218 . S
O149 C148 1.218 . S
C150 O143 1.275 . S
C150 O145 1.255 . S
C151 O152 1.258 . S
C151 O153 1.256 . S
O152 Cd144 2.381 . S
O152 C151 1.258 . S
O153 Cd144 2.378 . S
O153 C151 1.256 . S
O154 Cd155 2.300 . S
O154 C161 1.275 . S
Cd155 O154 2.300 . S
Cd155 O163 2.381 . S
Cd155 O164 2.378 . S
O156 Cd157 2.385 . S
O156 C161 1.255 . S
Cd157 O156 2.385 . S
Cd157 O158 2.317 . S
O158 Cd157 2.317 . S
O158 C159 1.232 . S
C159 O158 1.232 . S
C159 O160 1.218 . S
O160 C159 1.218 . S
C161 O154 1.275 . S
C161 O156 1.255 . S
C162 O163 1.258 . S
C162 O164 1.256 . S
O163 Cd155 2.381 . S
O163 C162 1.258 . S
O164 Cd155 2.378 . S
O164 C162 1.256 . S
O165 Cd166 2.300 . S
O165 C172 1.275 . S
Cd166 O165 2.300 . S
Cd166 O174 2.381 . S
Cd166 O175 2.378 . S
O167 Cd168 2.385 . S
O167 C172 1.255 . S
Cd168 O167 2.385 . S
Cd168 O169 2.317 . S
O169 Cd168 2.317 . S
O169 C170 1.232 . S
C170 O169 1.232 . S
C170 O171 1.218 . S
O171 C170 1.218 . S
C172 O165 1.275 . S
C172 O167 1.255 . S
C173 O174 1.258 . S
C173 O175 1.256 . S
O174 Cd166 2.381 . S
O174 C173 1.258 . S
O175 Cd166 2.378 . S
O175 C173 1.256 . S
O176 Cd177 2.300 . S
O176 C183 1.275 . S
Cd177 O176 2.300 . S
Cd177 O185 2.381 . S
Cd177 O186 2.378 . S
O178 Cd179 2.385 . S
O178 C183 1.255 . S
Cd179 O178 2.385 . S
Cd179 O180 2.317 . S
O180 Cd179 2.317 . S
O180 C181 1.232 . S
C181 O180 1.232 . S
C181 O182 1.218 . S
O182 C181 1.218 . S
C183 O176 1.275 . S
C183 O178 1.255 . S
C184 O185 1.258 . S
C184 O186 1.256 . S
O185 Cd177 2.381 . S
O185 C184 1.258 . S
O186 Cd177 2.378 . S
O186 C184 1.256 . S
O187 Cd188 2.300 . S
O187 C194 1.275 . S
Cd188 O187 2.300 . S
Cd188 O196 2.381 . S
Cd188 O197 2.378 . S
O189 Cd190 2.385 . S
O189 C194 1.255 . S
Cd190 O189 2.385 . S
Cd190 O191 2.317 . S
O191 Cd190 2.317 . S
O191 C192 1.232 . S
C192 O191 1.232 . S
C192 O193 1.218 . S
O193 C192 1.218 . S
C194 O187 1.275 . S
C194 O189 1.255 . S
C195 O196 1.258 . S
C195 O197 1.256 . S
O196 Cd188 2.381 . S
O196 C195 1.258 . S
O197 Cd188 2.378 . S
O197 C195 1.256 . S
Eu198 C207 2.828 . S
Eu198 O209 2.380 1_556 S
Eu198 O211 2.418 . S
Eu198 O216 2.373 1_565 S
Eu198 O219 2.488 . S
Eu198 O220 2.471 1_565 S
Eu198 O221 2.355 1_565 S
Eu199 O208 2.373 1_545 S
Eu199 O212 2.488 . S
Eu199 O213 2.471 1_545 S
Eu199 O214 2.349 1_545 S
Eu199 O217 2.392 . S
Eu199 O218 2.418 . S
Eu199 C228 2.828 . S
C200 O218 1.244 . S
C200 O221 1.259 1_554 S
C201 C202 1.379 . S
C201 C205 1.373 1_545 S
C201 C207 1.505 1_545 S
C202 C201 1.379 . S
C202 C204 1.369 . S
C202 H230 0.930 . S
C203 C205 1.401 . S
C203 C206 1.324 1_565 S
C203 H231 0.973 . S
C204 C202 1.369 . S
C204 C206 1.392 . S
C204 H232 0.930 . S
C205 C201 1.373 1_565 S
C205 C203 1.401 . S
C205 H233 0.931 . S
C206 C203 1.324 1_545 S
C206 C204 1.392 . S
C207 Eu198 2.828 . S
C207 C201 1.505 1_565 S
C207 O219 1.249 . S
C207 O220 1.244 1_565 S
O208 Eu199 2.373 1_565 S
O208 C210 1.258 . S
O209 Eu198 2.380 1_554 S
O209 C210 1.258 . S
C210 O208 1.258 . S
C210 O209 1.258 . S
O211 Eu198 2.418 . S
O211 C215 1.244 1_556 S
O212 Eu199 2.488 . S
O212 C228 1.249 . S
O213 Eu199 2.471 1_565 S
O213 C228 1.244 1_565 S
O214 Eu199 2.349 1_565 S
O214 C215 1.265 . S
C215 O211 1.244 1_554 S
C215 O214 1.265 . S
O216 Eu198 2.373 1_545 S
O216 C229 1.258 . S
O217 Eu199 2.392 . S
O217 C229 1.242 1_554 S
O218 Eu199 2.418 . S
O218 C200 1.244 . S
O219 Eu198 2.488 . S
O219 C207 1.249 . S
O220 Eu198 2.471 1_545 S
O220 C207 1.244 1_545 S
O221 Eu198 2.355 1_545 S
O221 C200 1.259 1_556 S
C222 C223 1.379 . S
C222 C226 1.373 1_565 S
C222 C228 1.505 1_565 S
C223 C222 1.379 . S
C223 C225 1.369 . S
C223 H234 0.930 . S
C224 C226 1.383 . S
C224 C227 1.382 1_545 S
C224 H235 0.930 . S
C225 C223 1.369 . S
C225 C227 1.392 . S
C225 H236 0.930 . S
C226 C222 1.373 1_545 S
C226 C224 1.383 . S
C226 H237 0.931 . S
C227 C224 1.382 1_565 S
C227 C225 1.392 . S
C228 Eu199 2.828 . S
C228 O212 1.249 . S
C228 O213 1.244 1_545 S
C228 C222 1.505 1_545 S
C229 O216 1.258 . S
C229 O217 1.242 1_556 S
H230 C202 0.930 . S
H231 C203 0.973 . S
H232 C204 0.930 . S
H233 C205 0.931 . S
H234 C223 0.930 . S
H235 C224 0.930 . S
H236 C225 0.930 . S
H237 C226 0.931 . S
Eu238 C247 2.828 1_455 S
Eu238 O249 2.392 1_556 S
Eu238 O251 2.414 1_556 S
Eu238 O256 2.373 1_455 S
Eu238 O259 2.488 . S
Eu238 O260 2.471 1_455 S
Eu238 O261 2.349 1_456 S
Eu239 O248 2.373 1_655 S
Eu239 O252 2.488 . S
Eu239 O253 2.471 1_655 S
Eu239 O254 2.349 1_655 S
Eu239 O257 2.392 . S
Eu239 O258 2.418 . S
Eu239 C268 2.828 1_655 S
C240 O258 1.244 . S
C240 O261 1.265 . S
C241 C242 1.379 . S
C241 C245 1.366 1_655 S
C241 C247 1.505 . S
C242 C241 1.379 . S
C242 C244 1.369 . S
C242 H270 0.930 . S
C243 C245 1.374 1_655 S
C243 C246 1.382 . S
C243 H271 0.925 1_655 S
C244 C242 1.369 . S
C244 C246 1.392 . S
C244 H272 0.930 . S
C245 C241 1.366 1_455 S
C245 C243 1.374 1_455 S
C245 H273 0.948 . S
C246 C243 1.382 . S
C246 C244 1.392 . S
C247 Eu238 2.828 1_655 S
C247 C241 1.505 . S
C247 O259 1.249 1_655 S
C247 O260 1.244 . S
O248 Eu239 2.373 1_455 S
O248 C250 1.258 . S
O249 Eu238 2.392 1_554 S
O249 C250 1.242 . S
C250 O248 1.258 . S
C250 O249 1.242 . S
O251 Eu238 2.414 1_554 S
O251 C255 1.265 . S
O252 Eu239 2.488 . S
O252 C268 1.249 1_655 S
O253 Eu239 2.471 1_455 S
O253 C268 1.244 . S
O254 Eu239 2.349 1_455 S
O254 C255 1.265 . S
C255 O251 1.265 . S
C255 O254 1.265 . S
O256 Eu238 2.373 1_655 S
O256 C269 1.297 . S
O257 Eu239 2.392 . S
O257 C269 1.183 1_554 S
O258 Eu239 2.418 . S
O258 C240 1.244 . S
O259 Eu238 2.488 . S
O259 C247 1.249 1_455 S
O260 Eu238 2.471 1_655 S
O260 C247 1.244 . S
O261 Eu238 2.349 1_654 S
O261 C240 1.265 . S
C262 C263 1.379 . S
C262 C266 1.373 . S
C262 C268 1.505 . S
C263 C262 1.379 . S
C263 C265 1.369 . S
C263 H274 0.930 . S
C264 C266 1.383 . S
C264 C267 1.382 . S
C264 H275 0.930 . S
C265 C263 1.369 . S
C265 C267 1.392 . S
C265 H276 0.930 . S
C266 C262 1.373 . S
C266 C264 1.383 . S
C266 H277 0.931 1_455 S
C267 C264 1.382 . S
C267 C265 1.392 . S
C268 Eu239 2.828 1_455 S
C268 O252 1.249 1_455 S
C268 O253 1.244 . S
C268 C262 1.505 . S
C269 O256 1.297 . S
C269 O257 1.183 1_556 S
H270 C242 0.930 . S
H271 C243 0.925 1_455 S
H272 C244 0.930 . S
H273 C245 0.948 . S
H274 C263 0.930 . S
H275 C264 0.930 . S
H276 C265 0.930 . S
H277 C266 0.931 1_655 S
Eu278 C287 2.828 . S
Eu278 O289 2.392 . S
Eu278 O291 2.418 . S
Eu278 O296 2.373 . S
Eu278 O299 2.488 . S
Eu278 O300 2.471 . S
Eu278 O301 2.349 . S
Eu279 O288 2.373 . S
Eu279 O292 2.488 . S
Eu279 O293 2.471 . S
Eu279 O294 2.349 . S
Eu279 O297 2.388 1_556 S
Eu279 O298 2.418 . S
Eu279 C308 2.828 . S
C280 O298 1.244 1_554 S
C280 O301 1.265 . S
C281 C282 1.379 . S
C281 C285 1.373 . S
C281 C287 1.505 . S
C282 C281 1.379 . S
C282 C284 1.369 . S
C282 H310 0.930 . S
C283 C285 1.383 . S
C283 C286 1.382 . S
C283 H311 0.930 . S
C284 C282 1.369 . S
C284 C286 1.392 . S
C284 H312 0.930 . S
C285 C281 1.373 . S
C285 C283 1.383 . S
C285 H313 0.931 . S
C286 C283 1.382 . S
C286 C284 1.392 . S
C287 Eu278 2.828 . S
C287 C281 1.505 . S
C287 O299 1.249 . S
C287 O300 1.244 . S
O288 Eu279 2.373 . S
O288 C290 1.258 . S
O289 Eu278 2.392 . S
O289 C290 1.242 1_554 S
C290 O288 1.258 . S
C290 O289 1.242 1_556 S
O291 Eu278 2.418 . S
O291 C295 1.244 . S
O292 Eu279 2.488 . S
O292 C308 1.249 . S
O293 Eu279 2.471 . S
O293 C308 1.244 . S
O294 Eu279 2.349 . S
O294 C295 1.265 1_556 S
C295 O291 1.244 . S
C295 O294 1.265 1_554 S
O296 Eu278 2.373 . S
O296 C309 1.258 . S
O297 Eu279 2.388 1_554 S
O297 C309 1.247 . S
O298 Eu279 2.418 . S
O298 C280 1.244 1_556 S
O299 Eu278 2.488 . S
O299 C287 1.249 . S
O300 Eu278 2.471 . S
O300 C287 1.244 . S
O301 Eu278 2.349 . S
O301 C280 1.265 . S
C302 C303 1.379 . S
C302 C306 1.373 . S
C302 C308 1.505 . S
C303 C302 1.379 . S
C303 C305 1.369 . S
C303 H314 0.930 . S
C304 C306 1.383 . S
C304 C307 1.382 . S
C304 H315 0.930 . S
C305 C303 1.369 . S
C305 C307 1.392 . S
C305 H316 0.930 . S
C306 C302 1.373 . S
C306 C304 1.383 . S
C306 H317 0.931 . S
C307 C304 1.382 . S
C307 C305 1.392 . S
C308 Eu279 2.828 . S
C308 O292 1.249 . S
C308 O293 1.244 . S
C308 C302 1.505 . S
C309 O296 1.258 . S
C309 O297 1.247 . S
H310 C282 0.930 . S
H311 C283 0.930 . S
H312 C284 0.930 . S
H313 C285 0.931 . S
H314 C303 0.930 . S
H315 C304 0.930 . S
H316 C305 0.930 . S
H317 C306 0.931 . S
Eu318 C327 2.828 . S
Eu318 O329 2.392 . S
Eu318 O331 2.418 . S
Eu318 O336 2.373 . S
Eu318 O339 2.488 . S
Eu318 O340 2.471 . S
Eu318 O341 2.349 . S
Eu319 O328 2.373 . S
Eu319 O332 2.488 . S
Eu319 O333 2.471 . S
Eu319 O334 2.349 . S
Eu319 O337 2.392 . S
Eu319 O338 2.418 . S
Eu319 C348 2.828 . S
C320 O338 1.244 . S
C320 O341 1.265 . S
C321 C322 1.379 . S
C321 C325 1.373 . S
C321 C327 1.505 . S
C322 C321 1.379 . S
C322 C324 1.369 . S
C322 H350 0.930 . S
C323 C325 1.383 . S
C323 C326 1.382 . S
C323 H351 0.930 . S
C324 C322 1.369 . S
C324 C326 1.392 . S
C324 H352 0.930 . S
C325 C321 1.373 . S
C325 C323 1.383 . S
C325 H353 0.931 . S
C326 C323 1.382 . S
C326 C324 1.392 . S
C327 Eu318 2.828 . S
C327 C321 1.505 . S
C327 O339 1.249 . S
C327 O340 1.244 . S
O328 Eu319 2.373 . S
O328 C330 1.258 . S
O329 Eu318 2.392 . S
O329 C330 1.242 . S
C330 O328 1.258 . S
C330 O329 1.242 . S
O331 Eu318 2.418 . S
O331 C335 1.244 . S
O332 Eu319 2.488 . S
O332 C348 1.249 . S
O333 Eu319 2.471 . S
O333 C348 1.244 . S
O334 Eu319 2.349 . S
O334 C335 1.265 . S
C335 O331 1.244 . S
C335 O334 1.265 . S
O336 Eu318 2.373 . S
O336 C349 1.258 . S
O337 Eu319 2.392 . S
O337 C349 1.242 . S
O338 Eu319 2.418 . S
O338 C320 1.244 . S
O339 Eu318 2.488 . S
O339 C327 1.249 . S
O340 Eu318 2.471 . S
O340 C327 1.244 . S
O341 Eu318 2.349 . S
O341 C320 1.265 . S
C342 C343 1.379 . S
C342 C346 1.373 . S
C342 C348 1.505 . S
C343 C342 1.379 . S
C343 C345 1.369 . S
C343 H354 0.930 . S
C344 C346 1.383 . S
C344 C347 1.382 . S
C344 H355 0.930 . S
C345 C343 1.369 . S
C345 C347 1.392 . S
C345 H356 0.930 . S
C346 C342 1.373 . S
C346 C344 1.383 . S
C346 H357 0.931 . S
C347 C344 1.382 . S
C347 C345 1.392 . S
C348 Eu319 2.828 . S
C348 O332 1.249 . S
C348 O333 1.244 . S
C348 C342 1.505 . S
C349 O336 1.258 . S
C349 O337 1.242 . S
H350 C322 0.930 . S
H351 C323 0.930 . S
H352 C324 0.930 . S
H353 C325 0.931 . S
H354 C343 0.930 . S
H355 C344 0.930 . S
H356 C345 0.930 . S
H357 C346 0.931 . S
Eu358 C367 2.828 . S
Eu358 O369 2.392 . S
Eu358 O371 2.418 . S
Eu358 O376 2.373 . S
Eu358 O379 2.488 . S
Eu358 O380 2.471 . S
Eu358 O381 2.349 . S
Eu359 O368 2.373 . S
Eu359 O372 2.488 . S
Eu359 O373 2.471 . S
Eu359 O374 2.349 . S
Eu359 O377 2.392 . S
Eu359 O378 2.418 . S
Eu359 C388 2.828 . S
C360 O378 1.244 . S
C360 O381 1.265 . S
C361 C362 1.379 . S
C361 C365 1.373 . S
C361 C367 1.505 . S
C362 C361 1.379 . S
C362 C364 1.369 . S
C362 H390 0.930 . S
C363 C365 1.383 . S
C363 C366 1.382 . S
C363 H391 0.930 . S
C364 C362 1.369 . S
C364 C366 1.392 . S
C364 H392 0.930 . S
C365 C361 1.373 . S
C365 C363 1.383 . S
C365 H393 0.931 . S
C366 C363 1.382 . S
C366 C364 1.392 . S
C367 Eu358 2.828 . S
C367 C361 1.505 . S
C367 O379 1.249 . S
C367 O380 1.244 . S
O368 Eu359 2.373 . S
O368 C370 1.258 . S
O369 Eu358 2.392 . S
O369 C370 1.242 . S
C370 O368 1.258 . S
C370 O369 1.242 . S
O371 Eu358 2.418 . S
O371 C375 1.244 . S
O372 Eu359 2.488 . S
O372 C388 1.249 . S
O373 Eu359 2.471 . S
O373 C388 1.244 . S
O374 Eu359 2.349 . S
O374 C375 1.265 . S
C375 O371 1.244 . S
C375 O374 1.265 . S
O376 Eu358 2.373 . S
O376 C389 1.258 . S
O377 Eu359 2.392 . S
O377 C389 1.242 . S
O378 Eu359 2.418 . S
O378 C360 1.244 . S
O379 Eu358 2.488 . S
O379 C367 1.249 . S
O380 Eu358 2.471 . S
O380 C367 1.244 . S
O381 Eu358 2.349 . S
O381 C360 1.265 . S
C382 C383 1.379 . S
C382 C386 1.373 . S
C382 C388 1.505 . S
C383 C382 1.379 . S
C383 C385 1.369 . S
C383 H394 0.930 . S
C384 C386 1.383 . S
C384 C387 1.382 . S
C384 H395 0.930 . S
C385 C383 1.369 . S
C385 C387 1.392 . S
C385 H396 0.930 . S
C386 C382 1.373 . S
C386 C384 1.383 . S
C386 H397 0.931 . S
C387 C384 1.382 . S
C387 C385 1.392 . S
C388 Eu359 2.828 . S
C388 O372 1.249 . S
C388 O373 1.244 . S
C388 C382 1.505 . S
C389 O376 1.258 . S
C389 O377 1.242 . S
H390 C362 0.930 . S
H391 C363 0.930 . S
H392 C364 0.930 . S
H393 C365 0.931 . S
H394 C383 0.930 . S
H395 C384 0.930 . S
H396 C385 0.930 . S
H397 C386 0.931 . S
Eu398 C407 2.828 . S
Eu398 O409 2.392 . S
Eu398 O411 2.418 . S
Eu398 O416 2.373 . S
Eu398 O419 2.488 . S
Eu398 O420 2.471 . S
Eu398 O421 2.349 . S
Eu399 O408 2.373 . S
Eu399 O412 2.488 . S
Eu399 O413 2.471 . S
Eu399 O414 2.349 . S
Eu399 O417 2.392 . S
Eu399 O418 2.418 . S
Eu399 C428 2.828 . S
C400 O418 1.244 . S
C400 O421 1.265 . S
C401 C402 1.379 . S
C401 C405 1.373 . S
C401 C407 1.505 . S
C402 C401 1.379 . S
C402 C404 1.369 . S
C402 H430 0.930 . S
C403 C405 1.383 . S
C403 C406 1.382 . S
C403 H431 0.930 . S
C404 C402 1.369 . S
C404 C406 1.392 . S
C404 H432 0.930 . S
C405 C401 1.373 . S
C405 C403 1.383 . S
C405 H433 0.931 . S
C406 C403 1.382 . S
C406 C404 1.392 . S
C407 Eu398 2.828 . S
C407 C401 1.505 . S
C407 O419 1.249 . S
C407 O420 1.244 . S
O408 Eu399 2.373 . S
O408 C410 1.258 . S
O409 Eu398 2.392 . S
O409 C410 1.242 . S
C410 O408 1.258 . S
C410 O409 1.242 . S
O411 Eu398 2.418 . S
O411 C415 1.244 . S
O412 Eu399 2.488 . S
O412 C428 1.249 . S
O413 Eu399 2.471 . S
O413 C428 1.244 . S
O414 Eu399 2.349 . S
O414 C415 1.265 . S
C415 O411 1.244 . S
C415 O414 1.265 . S
O416 Eu398 2.373 . S
O416 C429 1.258 . S
O417 Eu399 2.392 . S
O417 C429 1.242 . S
O418 Eu399 2.418 . S
O418 C400 1.244 . S
O419 Eu398 2.488 . S
O419 C407 1.249 . S
O420 Eu398 2.471 . S
O420 C407 1.244 . S
O421 Eu398 2.349 . S
O421 C400 1.265 . S
C422 C423 1.379 . S
C422 C426 1.373 . S
C422 C428 1.505 . S
C423 C422 1.379 . S
C423 C425 1.369 . S
C423 H434 0.930 . S
C424 C426 1.383 . S
C424 C427 1.382 . S
C424 H435 0.930 . S
C425 C423 1.369 . S
C425 C427 1.392 . S
C425 H436 0.930 . S
C426 C422 1.373 . S
C426 C424 1.383 . S
C426 H437 0.931 . S
C427 C424 1.382 . S
C427 C425 1.392 . S
C428 Eu399 2.828 . S
C428 O412 1.249 . S
C428 O413 1.244 . S
C428 C422 1.505 . S
C429 O416 1.258 . S
C429 O417 1.242 . S
H430 C402 0.930 . S
H431 C403 0.930 . S
H432 C404 0.930 . S
H433 C405 0.931 . S
H434 C423 0.930 . S
H435 C424 0.930 . S
H436 C425 0.930 . S
H437 C426 0.931 . S
Eu438 C447 2.828 . S
Eu438 O449 2.392 . S
Eu438 O451 2.418 . S
Eu438 O456 2.373 . S
Eu438 O459 2.488 . S
Eu438 O460 2.471 . S
Eu438 O461 2.349 . S
Eu439 O448 2.373 . S
Eu439 O452 2.488 . S
Eu439 O453 2.471 . S
Eu439 O454 2.349 . S
Eu439 O457 2.392 . S
Eu439 O458 2.418 . S
Eu439 C468 2.828 . S
C440 O458 1.244 . S
C440 O461 1.265 . S
C441 C442 1.379 . S
C441 C445 1.373 . S
C441 C447 1.505 . S
C442 C441 1.379 . S
C442 C444 1.369 . S
C442 H470 0.930 . S
C443 C445 1.383 . S
C443 C446 1.382 . S
C443 H471 0.930 . S
C444 C442 1.369 . S
C444 C446 1.392 . S
C444 H472 0.930 . S
C445 C441 1.373 . S
C445 C443 1.383 . S
C445 H473 0.931 . S
C446 C443 1.382 . S
C446 C444 1.392 . S
C447 Eu438 2.828 . S
C447 C441 1.505 . S
C447 O459 1.249 . S
C447 O460 1.244 . S
O448 Eu439 2.373 . S
O448 C450 1.258 . S
O449 Eu438 2.392 . S
O449 C450 1.242 . S
C450 O448 1.258 . S
C450 O449 1.242 . S
O451 Eu438 2.418 . S
O451 C455 1.244 . S
O452 Eu439 2.488 . S
O452 C468 1.249 . S
O453 Eu439 2.471 . S
O453 C468 1.244 . S
O454 Eu439 2.349 . S
O454 C455 1.265 . S
C455 O451 1.244 . S
C455 O454 1.265 . S
O456 Eu438 2.373 . S
O456 C469 1.258 . S
O457 Eu439 2.392 . S
O457 C469 1.242 . S
O458 Eu439 2.418 . S
O458 C440 1.244 . S
O459 Eu438 2.488 . S
O459 C447 1.249 . S
O460 Eu438 2.471 . S
O460 C447 1.244 . S
O461 Eu438 2.349 . S
O461 C440 1.265 . S
C462 C463 1.379 . S
C462 C466 1.373 . S
C462 C468 1.505 . S
C463 C462 1.379 . S
C463 C465 1.369 . S
C463 H474 0.930 . S
C464 C466 1.383 . S
C464 C467 1.382 . S
C464 H475 0.930 . S
C465 C463 1.369 . S
C465 C467 1.392 . S
C465 H476 0.930 . S
C466 C462 1.373 . S
C466 C464 1.383 . S
C466 H477 0.931 . S
C467 C464 1.382 . S
C467 C465 1.392 . S
C468 Eu439 2.828 . S
C468 O452 1.249 . S
C468 O453 1.244 . S
C468 C462 1.505 . S
C469 O456 1.258 . S
C469 O457 1.242 . S
H470 C442 0.930 . S
H471 C443 0.930 . S
H472 C444 0.930 . S
H473 C445 0.931 . S
H474 C463 0.930 . S
H475 C464 0.930 . S
H476 C465 0.930 . S
H477 C466 0.931 . S
Eu478 C487 2.828 . S
Eu478 O489 2.392 . S
Eu478 O491 2.418 . S
Eu478 O496 2.373 . S
Eu478 O499 2.488 . S
Eu478 O500 2.471 . S
Eu478 O501 2.349 . S
Eu479 O488 2.373 . S
Eu479 O492 2.488 . S
Eu479 O493 2.471 . S
Eu479 O494 2.349 . S
Eu479 O497 2.392 . S
Eu479 O498 2.418 . S
Eu479 C508 2.828 . S
C480 O498 1.244 . S
C480 O501 1.265 . S
C481 C482 1.379 . S
C481 C485 1.373 . S
C481 C487 1.505 . S
C482 C481 1.379 . S
C482 C484 1.369 . S
C482 H510 0.930 . S
C483 C485 1.383 . S
C483 C486 1.382 . S
C483 H511 0.930 . S
C484 C482 1.369 . S
C484 C486 1.392 . S
C484 H512 0.930 . S
C485 C481 1.373 . S
C485 C483 1.383 . S
C485 H513 0.931 . S
C486 C483 1.382 . S
C486 C484 1.392 . S
C487 Eu478 2.828 . S
C487 C481 1.505 . S
C487 O499 1.249 . S
C487 O500 1.244 . S
O488 Eu479 2.373 . S
O488 C490 1.258 . S
O489 Eu478 2.392 . S
O489 C490 1.242 . S
C490 O488 1.258 . S
C490 O489 1.242 . S
O491 Eu478 2.418 . S
O491 C495 1.244 . S
O492 Eu479 2.488 . S
O492 C508 1.249 . S
O493 Eu479 2.471 . S
O493 C508 1.244 . S
O494 Eu479 2.349 . S
O494 C495 1.265 . S
C495 O491 1.244 . S
C495 O494 1.265 . S
O496 Eu478 2.373 . S
O496 C509 1.258 . S
O497 Eu479 2.392 . S
O497 C509 1.242 . S
O498 Eu479 2.418 . S
O498 C480 1.244 . S
O499 Eu478 2.488 . S
O499 C487 1.249 . S
O500 Eu478 2.471 . S
O500 C487 1.244 . S
O501 Eu478 2.349 . S
O501 C480 1.265 . S
C502 C503 1.379 . S
C502 C506 1.373 . S
C502 C508 1.505 . S
C503 C502 1.379 . S
C503 C505 1.369 . S
C503 H514 0.930 . S
C504 C506 1.383 . S
C504 C507 1.382 . S
C504 H515 0.930 . S
C505 C503 1.369 . S
C505 C507 1.392 . S
C505 H516 0.930 . S
C506 C502 1.373 . S
C506 C504 1.383 . S
C506 H517 0.931 . S
C507 C504 1.382 . S
C507 C505 1.392 . S
C508 Eu479 2.828 . S
C508 O492 1.249 . S
C508 O493 1.244 . S
C508 C502 1.505 . S
C509 O496 1.258 . S
C509 O497 1.242 . S
H510 C482 0.930 . S
H511 C483 0.930 . S
H512 C484 0.930 . S
H513 C485 0.931 . S
H514 C503 0.930 . S
H515 C504 0.930 . S
H516 C505 0.930 . S
H517 C506 0.931 . S
Eu518 C527 2.828 . S
Eu518 O529 2.392 . S
Eu518 O531 2.418 . S
Eu518 O536 2.373 . S
Eu518 O539 2.488 . S
Eu518 O540 2.471 . S
Eu518 O541 2.349 . S
Eu519 O528 2.373 . S
Eu519 O532 2.488 . S
Eu519 O533 2.471 . S
Eu519 O534 2.349 . S
Eu519 O537 2.392 . S
Eu519 O538 2.418 . S
Eu519 C548 2.828 . S
C520 O538 1.244 . S
C520 O541 1.265 . S
C521 C522 1.379 . S
C521 C525 1.373 . S
C521 C527 1.505 . S
C522 C521 1.379 . S
C522 C524 1.369 . S
C522 H550 0.930 . S
C523 C525 1.383 . S
C523 C526 1.382 . S
C523 H551 0.930 . S
C524 C522 1.369 . S
C524 C526 1.392 . S
C524 H552 0.930 . S
C525 C521 1.373 . S
C525 C523 1.383 . S
C525 H553 0.931 . S
C526 C523 1.382 . S
C526 C524 1.392 . S
C527 Eu518 2.828 . S
C527 C521 1.505 . S
C527 O539 1.249 . S
C527 O540 1.244 . S
O528 Eu519 2.373 . S
O528 C530 1.258 . S
O529 Eu518 2.392 . S
O529 C530 1.242 . S
C530 O528 1.258 . S
C530 O529 1.242 . S
O531 Eu518 2.418 . S
O531 C535 1.244 . S
O532 Eu519 2.488 . S
O532 C548 1.249 . S
O533 Eu519 2.471 . S
O533 C548 1.244 . S
O534 Eu519 2.349 . S
O534 C535 1.265 . S
C535 O531 1.244 . S
C535 O534 1.265 . S
O536 Eu518 2.373 . S
O536 C549 1.258 . S
O537 Eu519 2.392 . S
O537 C549 1.242 . S
O538 Eu519 2.418 . S
O538 C520 1.244 . S
O539 Eu518 2.488 . S
O539 C527 1.249 . S
O540 Eu518 2.471 . S
O540 C527 1.244 . S
O541 Eu518 2.349 . S
O541 C520 1.265 . S
C542 C543 1.379 . S
C542 C546 1.373 . S
C542 C548 1.505 . S
C543 C542 1.379 . S
C543 C545 1.369 . S
C543 H554 0.930 . S
C544 C546 1.383 . S
C544 C547 1.382 . S
C544 H555 0.930 . S
C545 C543 1.369 . S
C545 C547 1.392 . S
C545 H556 0.930 . S
C546 C542 1.373 . S
C546 C544 1.383 . S
C546 H557 0.931 . S
C547 C544 1.382 . S
C547 C545 1.392 . S
C548 Eu519 2.828 . S
C548 O532 1.249 . S
C548 O533 1.244 . S
C548 C542 1.505 . S
C549 O536 1.258 . S
C549 O537 1.242 . S
H550 C522 0.930 . S
H551 C523 0.930 . S
H552 C524 0.930 . S
H553 C525 0.931 . S
H554 C543 0.930 . S
H555 C544 0.930 . S
H556 C545 0.930 . S
H557 C546 0.931 . S
C558 C559 1.349 . S
C558 C560 1.327 . S
C558 H583 0.950 . S
C559 C558 1.349 . S
C559 C575 1.349 . S
C560 C558 1.327 . S
C560 C579 1.429 . S
C560 H584 0.950 . S
C561 C578 1.574 . S
C561 C580 1.368 . S
C561 H585 0.949 . S
H562 C566 0.949 . S
C563 C564 1.349 . S
C563 C565 1.327 . S
C563 H586 0.950 . S
C564 C563 1.349 . S
C564 C576 1.349 . S
C565 C563 1.327 . S
C565 C581 1.429 . S
C565 H587 0.950 . S
C566 H562 0.949 . S
C566 C574 1.574 . S
C566 C582 1.368 . S
H567 C575 0.950 . S
H568 C573 0.950 . S
H569 C574 0.949 . S
H570 C576 0.880 1_556 S
H571 C577 0.950 . S
H572 C578 0.949 . S
C573 H568 0.950 . S
C573 C575 1.327 . S
C573 C579 1.429 . S
C574 C566 1.574 . S
C574 H569 0.949 . S
C574 C580 1.368 . S
C575 C559 1.349 . S
C575 H567 0.950 . S
C575 C573 1.327 . S
C576 C564 1.349 . S
C576 H570 0.880 1_554 S
C576 C577 1.327 . S
C577 H571 0.950 . S
C577 C576 1.327 . S
C577 C581 1.429 . S
C578 C561 1.574 . S
C578 H572 0.949 . S
C578 C582 1.368 . S
C579 C560 1.429 . S
C579 C573 1.429 . S
C579 C580 1.523 . S
C580 C561 1.368 . S
C580 C574 1.368 . S
C580 C579 1.523 . S
C581 C565 1.429 . S
C581 C577 1.429 . S
C581 C582 1.523 . S
C582 C566 1.368 . S
C582 C578 1.368 . S
C582 C581 1.523 . S
H583 C558 0.950 . S
H584 C560 0.950 . S
H585 C561 0.949 . S
H586 C563 0.950 . S
H587 C565 0.950 . S
C588 C589 1.349 . S
C588 C590 1.327 . S
C588 H613 0.950 . S
C589 C588 1.349 . S
C589 C605 1.349 . S
C590 C588 1.327 . S
C590 C609 1.429 . S
C590 H614 0.950 . S
C591 C608 1.574 . S
C591 C610 1.368 . S
C591 H615 0.949 . S
H592 C596 0.949 . S
C593 C594 1.349 . S
C593 C595 1.327 . S
C593 H616 0.950 . S
C594 C593 1.349 . S
C594 C606 1.349 . S
C595 C593 1.327 . S
C595 C611 1.429 . S
C595 H617 0.950 . S
C596 H592 0.949 . S
C596 C604 1.574 . S
C596 C612 1.368 . S
H597 C605 0.950 . S
H598 C603 0.950 . S
H599 C604 0.949 . S
H600 C606 0.950 . S
H601 C607 0.950 . S
H602 C608 0.949 . S
C603 H598 0.950 . S
C603 C605 1.327 . S
C603 C609 1.429 . S
C604 C596 1.574 . S
C604 H599 0.949 . S
C604 C610 1.368 . S
C605 C589 1.349 . S
C605 H597 0.950 . S
C605 C603 1.327 . S
C606 C594 1.349 . S
C606 H600 0.950 . S
C606 C607 1.327 . S
C607 H601 0.950 . S
C607 C606 1.327 . S
C607 C611 1.429 . S
C608 C591 1.574 . S
C608 H602 0.949 . S
C608 C612 1.368 . S
C609 C590 1.429 . S
C609 C603 1.429 . S
C609 C610 1.523 . S
C610 C591 1.368 . S
C610 C604 1.368 . S
C610 C609 1.523 . S
C611 C595 1.429 . S
C611 C607 1.429 . S
C611 C612 1.523 . S
C612 C596 1.368 . S
C612 C608 1.368 . S
C612 C611 1.523 . S
H613 C588 0.950 . S
H614 C590 0.950 . S
H615 C591 0.949 . S
H616 C593 0.950 . S
H617 C595 0.950 . S
C618 C619 1.349 . S
C618 C620 1.327 . S
C618 H643 0.950 . S
C619 C618 1.349 . S
C619 C635 1.349 . S
C620 C618 1.327 . S
C620 C639 1.429 . S
C620 H644 0.950 . S
C621 C638 1.574 . S
C621 C640 1.368 . S
C621 H645 0.949 . S
H622 C626 0.949 . S
C623 C624 1.349 . S
C623 C625 1.327 . S
C623 H646 0.950 1_554 S
C624 C623 1.349 . S
C624 C636 1.349 . S
C625 C623 1.327 . S
C625 C641 1.429 . S
C625 H647 0.940 1_554 S
C626 H622 0.949 . S
C626 C634 1.574 . S
C626 C642 1.368 . S
H627 C635 0.950 . S
H628 C633 0.950 . S
H629 C634 0.949 . S
H630 C636 0.950 . S
H631 C637 0.950 . S
H632 C638 0.949 . S
C633 H628 0.950 . S
C633 C635 1.327 . S
C633 C639 1.429 . S
C634 C626 1.574 . S
C634 H629 0.949 . S
C634 C640 1.368 . S
C635 C619 1.349 . S
C635 H627 0.950 . S
C635 C633 1.327 . S
C636 C624 1.349 . S
C636 H630 0.950 . S
C636 C637 1.327 . S
C637 H631 0.950 . S
C637 C636 1.327 . S
C637 C641 1.429 . S
C638 C621 1.574 . S
C638 H632 0.949 . S
C638 C642 1.368 . S
C639 C620 1.429 . S
C639 C633 1.429 . S
C639 C640 1.523 . S
C640 C621 1.368 . S
C640 C634 1.368 . S
C640 C639 1.523 . S
C641 C625 1.429 . S
C641 C637 1.429 . S
C641 C642 1.523 . S
C642 C626 1.368 . S
C642 C638 1.368 . S
C642 C641 1.523 . S
H643 C618 0.950 . S
H644 C620 0.950 . S
H645 C621 0.949 . S
H646 C623 0.950 1_556 S
H647 C625 0.940 1_556 S
C648 C649 1.349 . S
C648 C650 1.327 . S
C648 H673 0.950 . S
C649 C648 1.349 . S
C649 C665 1.349 . S
C650 C648 1.327 . S
C650 C669 1.429 . S
C650 H674 0.950 . S
C651 C668 1.574 . S
C651 C670 1.368 . S
C651 H675 0.949 . S
H652 C656 0.949 1_554 S
C653 C654 1.380 . S
C653 C655 1.327 . S
C653 H676 0.950 . S
C654 C653 1.380 . S
C654 C666 1.323 1_556 S
C655 C653 1.327 . S
C655 C671 1.429 . S
C655 H677 0.950 . S
C656 H652 0.949 1_556 S
C656 C664 1.574 . S
C656 C672 1.368 . S
H657 C665 0.950 . S
H658 C663 0.950 . S
H659 C664 0.949 . S
H660 C666 0.950 . S
H661 C667 0.950 . S
H662 C668 0.949 . S
C663 H658 0.950 . S
C663 C665 1.327 . S
C663 C669 1.429 . S
C664 C656 1.574 . S
C664 H659 0.949 . S
C664 C670 1.368 . S
C665 C649 1.349 . S
C665 H657 0.950 . S
C665 C663 1.327 . S
C666 C654 1.323 1_554 S
C666 H660 0.950 . S
C666 C667 1.327 . S
C667 H661 0.950 . S
C667 C666 1.327 . S
C667 C671 1.429 1_554 S
C668 C651 1.574 . S
C668 H662 0.949 . S
C668 C672 1.368 . S
C669 C650 1.429 . S
C669 C663 1.429 . S
C669 C670 1.523 . S
C670 C651 1.368 . S
C670 C664 1.368 . S
C670 C669 1.523 . S
C671 C655 1.429 . S
C671 C667 1.429 1_556 S
C671 C672 1.523 . S
C672 C656 1.368 . S
C672 C668 1.368 . S
C672 C671 1.523 . S
H673 C648 0.950 . S
H674 C650 0.950 . S
H675 C651 0.949 . S
H676 C653 0.950 . S
H677 C655 0.950 . S
C678 C679 1.349 . S
C678 C680 1.327 . S
C678 H703 0.950 . S
C679 C678 1.349 . S
C679 C695 1.349 . S
C680 C678 1.327 . S
C680 C699 1.429 . S
C680 H704 0.950 . S
C681 C698 1.574 . S
C681 C700 1.368 . S
C681 H705 0.949 . S
H682 C686 0.949 . S
C683 C684 1.349 . S
C683 C685 1.327 . S
C683 H706 0.960 . S
C684 C683 1.349 . S
C684 C696 1.349 . S
C685 C683 1.327 . S
C685 C701 1.429 . S
C685 H707 0.950 . S
C686 H682 0.949 . S
C686 C694 1.574 . S
C686 C702 1.368 . S
H687 C695 0.950 . S
H688 C693 0.950 . S
H689 C694 0.949 . S
H690 C696 0.950 . S
H691 C697 0.950 . S
H692 C698 0.949 . S
C693 H688 0.950 . S
C693 C695 1.327 . S
C693 C699 1.429 . S
C694 C686 1.574 . S
C694 H689 0.949 . S
C694 C700 1.368 . S
C695 C679 1.349 . S
C695 H687 0.950 . S
C695 C693 1.327 . S
C696 C684 1.349 . S
C696 H690 0.950 . S
C696 C697 1.327 . S
C697 H691 0.950 . S
C697 C696 1.327 . S
C697 C701 1.429 . S
C698 C681 1.574 . S
C698 H692 0.949 . S
C698 C702 1.368 . S
C699 C680 1.429 . S
C699 C693 1.429 . S
C699 C700 1.523 . S
C700 C681 1.368 . S
C700 C694 1.368 . S
C700 C699 1.523 . S
C701 C685 1.429 . S
C701 C697 1.429 . S
C701 C702 1.523 . S
C702 C686 1.368 . S
C702 C698 1.368 . S
C702 C701 1.523 . S
H703 C678 0.950 . S
H704 C680 0.950 . S
H705 C681 0.949 . S
H706 C683 0.960 . S
H707 C685 0.950 . S
C708 C709 1.349 . S
C708 C710 1.319 1_556 S
C708 H733 0.950 1_556 S
C709 C708 1.349 . S
C709 C725 1.349 . S
C710 C708 1.319 1_554 S
C710 C729 1.403 1_554 S
C710 H734 0.985 . S
C711 C728 1.574 . S
C711 C730 1.368 . S
C711 H735 0.949 . S
H712 C716 0.949 . S
C713 C714 1.349 1_556 S
C713 C715 1.327 . S
C713 H736 0.950 . S
C714 C713 1.349 1_554 S
C714 C726 1.349 . S
C715 C713 1.327 . S
C715 C731 1.429 . S
C715 H737 0.950 . S
C716 H712 0.949 . S
C716 C724 1.574 . S
C716 C732 1.368 1_554 S
H717 C725 0.950 . S
H718 C723 0.950 . S
H719 C724 0.949 . S
H720 C726 0.950 . S
H721 C727 0.950 . S
H722 C728 0.949 . S
C723 H718 0.950 . S
C723 C725 1.327 . S
C723 C729 1.429 . S
C724 C716 1.574 . S
C724 H719 0.949 . S
C724 C730 1.368 1_554 S
C725 C709 1.349 . S
C725 H717 0.950 . S
C725 C723 1.327 . S
C726 C714 1.349 . S
C726 H720 0.950 . S
C726 C727 1.327 . S
C727 H721 0.950 . S
C727 C726 1.327 . S
C727 C731 1.429 1_554 S
C728 C711 1.574 . S
C728 H722 0.949 . S
C728 C732 1.368 . S
C729 C710 1.403 1_556 S
C729 C723 1.429 . S
C729 C730 1.523 . S
C730 C711 1.368 . S
C730 C724 1.368 1_556 S
C730 C729 1.523 . S
C731 C715 1.429 . S
C731 C727 1.429 1_556 S
C731 C732 1.523 . S
C732 C716 1.368 1_556 S
C732 C728 1.368 . S
C732 C731 1.523 . S
H733 C708 0.950 1_554 S
H734 C710 0.985 . S
H735 C711 0.949 . S
H736 C713 0.950 . S
H737 C715 0.950 . S
C738 C739 1.349 . S
C738 C740 1.327 . S
C738 H763 0.950 . S
C739 C738 1.349 . S
C739 C755 1.349 . S
C740 C738 1.327 . S
C740 C759 1.429 . S
C740 H764 0.950 . S
C741 C758 1.574 . S
C741 C760 1.368 . S
C741 H765 0.949 . S
H742 C746 0.949 . S
C743 C744 1.349 . S
C743 C745 1.327 . S
C743 H766 0.950 . S
C744 C743 1.349 . S
C744 C756 1.349 . S
C745 C743 1.327 . S
C745 C761 1.429 . S
C745 H767 0.950 . S
C746 H742 0.949 . S
C746 C754 1.574 . S
C746 C762 1.368 . S
H747 C755 0.950 . S
H748 C753 0.950 . S
H749 C754 0.949 . S
H750 C756 0.935 1_554 S
H751 C757 0.950 . S
H752 C758 0.949 . S
C753 H748 0.950 . S
C753 C755 1.327 . S
C753 C759 1.429 . S
C754 C746 1.574 . S
C754 H749 0.949 . S
C754 C760 1.368 . S
C755 C739 1.349 . S
C755 H747 0.950 . S
C755 C753 1.327 . S
C756 C744 1.349 . S
C756 H750 0.935 1_556 S
C756 C757 1.327 . S
C757 H751 0.950 . S
C757 C756 1.327 . S
C757 C761 1.429 . S
C758 C741 1.574 . S
C758 H752 0.949 . S
C758 C762 1.368 . S
C759 C740 1.429 . S
C759 C753 1.429 . S
C759 C760 1.523 . S
C760 C741 1.368 . S
C760 C754 1.368 . S
C760 C759 1.523 . S
C761 C745 1.429 . S
C761 C757 1.429 . S
C761 C762 1.523 . S
C762 C746 1.368 . S
C762 C758 1.368 . S
C762 C761 1.523 . S
H763 C738 0.950 . S
H764 C740 0.950 . S
H765 C741 0.949 . S
H766 C743 0.950 . S
H767 C745 0.950 . S
C768 C769 1.349 . S
C768 C770 1.327 . S
C768 H793 0.950 . S
C769 C768 1.349 . S
C769 C785 1.349 . S
C770 C768 1.327 . S
C770 C789 1.429 . S
C770 H794 0.950 . S
C771 C788 1.574 . S
C771 C790 1.368 . S
C771 H795 0.949 . S
H772 C776 0.949 1_554 S
C773 C774 1.349 . S
C773 C775 1.327 . S
C773 H796 0.950 . S
C774 C773 1.349 . S
C774 C786 1.349 1_556 S
C775 C773 1.327 . S
C775 C791 1.429 . S
C775 H797 0.950 . S
C776 H772 0.949 1_556 S
C776 C784 1.574 . S
C776 C792 1.368 . S
H777 C785 0.950 . S
H778 C783 0.950 . S
H779 C784 0.949 . S
H780 C786 0.950 . S
H781 C787 0.919 1_554 S
H782 C788 0.949 . S
C783 H778 0.950 . S
C783 C785 1.327 . S
C783 C789 1.429 . S
C784 C776 1.574 . S
C784 H779 0.949 . S
C784 C790 1.368 . S
C785 C769 1.349 . S
C785 H777 0.950 . S
C785 C783 1.327 . S
C786 C774 1.349 1_554 S
C786 H780 0.950 . S
C786 C787 1.316 1_554 S
C787 H781 0.919 1_556 S
C787 C786 1.316 1_556 S
C787 C791 1.472 . S
C788 C771 1.574 . S
C788 H782 0.949 . S
C788 C792 1.368 . S
C789 C770 1.429 . S
C789 C783 1.429 . S
C789 C790 1.523 . S
C790 C771 1.368 . S
C790 C784 1.368 . S
C790 C789 1.523 . S
C791 C775 1.429 . S
C791 C787 1.472 . S
C791 C792 1.523 . S
C792 C776 1.368 . S
C792 C788 1.368 . S
C792 C791 1.523 . S
H793 C768 0.950 . S
H794 C770 0.950 . S
H795 C771 0.949 . S
H796 C773 0.950 . S
H797 C775 0.950 . S
C798 C799 1.349 . S
C798 C800 1.327 . S
C798 H823 0.950 . S
C799 C798 1.349 . S
C799 C815 1.349 . S
C800 C798 1.327 . S
C800 C819 1.429 . S
C800 H824 0.950 . S
C801 C818 1.575 1_556 S
C801 C820 1.383 . S
C801 H825 0.935 1_556 S
H802 C806 0.949 . S
C803 C804 1.349 1_554 S
C803 C805 1.327 . S
C803 H826 0.950 . S
C804 C803 1.349 1_556 S
C804 C816 1.349 . S
C805 C803 1.327 . S
C805 C821 1.429 1_554 S
C805 H827 0.950 . S
C806 H802 0.949 . S
C806 C814 1.574 . S
C806 C822 1.368 . S
H807 C815 0.918 1_554 S
H808 C813 0.950 1_554 S
H809 C814 0.949 . S
H810 C816 0.950 . S
H811 C817 0.950 . S
H812 C818 0.949 . S
C813 H808 0.950 1_556 S
C813 C815 1.327 . S
C813 C819 1.429 . S
C814 C806 1.574 . S
C814 H809 0.949 . S
C814 C820 1.368 . S
C815 C799 1.349 . S
C815 H807 0.918 1_556 S
C815 C813 1.327 . S
C816 C804 1.349 . S
C816 H810 0.950 . S
C816 C817 1.327 . S
C817 H811 0.950 . S
C817 C816 1.327 . S
C817 C821 1.429 . S
C818 C801 1.575 1_554 S
C818 H812 0.949 . S
C818 C822 1.368 1_554 S
C819 C800 1.429 . S
C819 C813 1.429 . S
C819 C820 1.523 . S
C820 C801 1.383 . S
C820 C814 1.368 . S
C820 C819 1.523 . S
C821 C805 1.429 1_556 S
C821 C817 1.429 . S
C821 C822 1.523 . S
C822 C806 1.368 . S
C822 C818 1.368 1_556 S
C822 C821 1.523 . S
H823 C798 0.950 . S
H824 C800 0.950 . S
H825 C801 0.935 1_554 S
H826 C803 0.950 . S
H827 C805 0.950 . S
C828 C829 1.349 . S
C828 C830 1.327 . S
C828 H853 0.950 . S
C829 C828 1.349 . S
C829 C845 1.349 . S
C830 C828 1.327 . S
C830 C849 1.429 . S
C830 H854 0.950 . S
C831 C848 1.574 . S
C831 C850 1.368 . S
C831 H855 0.949 . S
H832 C836 0.949 . S
C833 C834 1.349 . S
C833 C835 1.327 . S
C833 H856 0.950 . S
C834 C833 1.349 . S
C834 C846 1.349 . S
C835 C833 1.327 . S
C835 C851 1.429 . S
C835 H857 0.950 . S
C836 H832 0.949 . S
C836 C844 1.574 . S
C836 C852 1.368 . S
H837 C845 0.950 . S
H838 C843 0.950 . S
H839 C844 0.949 . S
H840 C846 0.950 . S
H841 C847 0.950 . S
H842 C848 0.949 . S
C843 H838 0.950 . S
C843 C845 1.327 . S
C843 C849 1.429 . S
C844 C836 1.574 . S
C844 H839 0.949 . S
C844 C850 1.368 . S
C845 C829 1.349 . S
C845 H837 0.950 . S
C845 C843 1.327 . S
C846 C834 1.349 . S
C846 H840 0.950 . S
C846 C847 1.327 . S
C847 H841 0.950 . S
C847 C846 1.327 . S
C847 C851 1.429 . S
C848 C831 1.574 . S
C848 H842 0.949 . S
C848 C852 1.368 . S
C849 C830 1.429 . S
C849 C843 1.429 . S
C849 C850 1.523 . S
C850 C831 1.368 . S
C850 C844 1.368 . S
C850 C849 1.523 . S
C851 C835 1.429 . S
C851 C847 1.429 . S
C851 C852 1.523 . S
C852 C836 1.368 . S
C852 C848 1.368 . S
C852 C851 1.523 . S
H853 C828 0.950 . S
H854 C830 0.950 . S
H855 C831 0.949 . S
H856 C833 0.950 . S
H857 C835 0.950 . S
C858 C859 1.349 . S
C858 C860 1.327 . S
C858 H883 0.950 . S
C859 C858 1.349 . S
C859 C875 1.349 . S
C860 C858 1.327 . S
C860 C879 1.429 . S
C860 H884 0.950 . S
C861 C878 1.574 . S
C861 C880 1.368 . S
C861 H885 0.949 . S
H862 C866 0.949 . S
C863 C864 1.349 . S
C863 C865 1.327 . S
C863 H886 0.950 1_554 S
C864 C863 1.349 . S
C864 C876 1.349 . S
C865 C863 1.327 . S
C865 C881 1.429 . S
C865 H887 0.950 . S
C866 H862 0.949 . S
C866 C874 1.574 . S
C866 C882 1.368 . S
H867 C875 0.950 . S
H868 C873 0.950 . S
H869 C874 0.949 . S
H870 C876 0.950 . S
H871 C877 0.950 . S
H872 C878 0.949 . S
C873 H868 0.950 . S
C873 C875 1.327 . S
C873 C879 1.429 . S
C874 C866 1.574 . S
C874 H869 0.949 . S
C874 C880 1.368 . S
C875 C859 1.349 . S
C875 H867 0.950 . S
C875 C873 1.327 . S
C876 C864 1.349 . S
C876 H870 0.950 . S
C876 C877 1.327 . S
C877 H871 0.950 . S
C877 C876 1.327 . S
C877 C881 1.429 . S
C878 C861 1.574 . S
C878 H872 0.949 . S
C878 C882 1.368 . S
C879 C860 1.429 . S
C879 C873 1.429 . S
C879 C880 1.523 . S
C880 C861 1.368 . S
C880 C874 1.368 . S
C880 C879 1.523 . S
C881 C865 1.429 . S
C881 C877 1.429 . S
C881 C882 1.523 . S
C882 C866 1.368 . S
C882 C878 1.368 . S
C882 C881 1.523 . S
H883 C858 0.950 . S
H884 C860 0.950 . S
H885 C861 0.949 . S
H886 C863 0.950 1_556 S
H887 C865 0.950 . S
C888 C889 1.349 . S
C888 C890 1.327 . S
C888 H913 0.950 . S
C889 C888 1.349 . S
C889 C905 1.349 . S
C890 C888 1.327 . S
C890 C909 1.429 . S
C890 H914 0.950 . S
C891 C908 1.574 . S
C891 C910 1.368 . S
C891 H915 0.949 . S
H892 C896 0.949 . S
C893 C894 1.349 1_556 S
C893 C895 1.316 1_556 S
C893 H916 0.950 . S
C894 C893 1.349 1_554 S
C894 C906 1.349 . S
C895 C893 1.316 1_554 S
C895 C911 1.488 . S
C895 H917 0.903 1_554 S
C896 H892 0.949 . S
C896 C904 1.574 . S
C896 C912 1.368 . S
H897 C905 0.950 . S
H898 C903 0.950 . S
H899 C904 0.949 . S
H900 C906 0.950 . S
H901 C907 0.950 . S
H902 C908 0.949 1_556 S
C903 H898 0.950 . S
C903 C905 1.327 . S
C903 C909 1.429 . S
C904 C896 1.574 . S
C904 H899 0.949 . S
C904 C910 1.368 . S
C905 C889 1.349 . S
C905 H897 0.950 . S
C905 C903 1.327 . S
C906 C894 1.349 . S
C906 H900 0.950 . S
C906 C907 1.327 . S
C907 H901 0.950 . S
C907 C906 1.327 . S
C907 C911 1.429 . S
C908 C891 1.574 . S
C908 H902 0.949 1_554 S
C908 C912 1.368 . S
C909 C890 1.429 . S
C909 C903 1.429 . S
C909 C910 1.523 . S
C910 C891 1.368 . S
C910 C904 1.368 . S
C910 C909 1.523 . S
C911 C895 1.488 . S
C911 C907 1.429 . S
C911 C912 1.523 . S
C912 C896 1.368 . S
C912 C908 1.368 . S
C912 C911 1.523 . S
H913 C888 0.950 . S
H914 C890 0.950 . S
H915 C891 0.949 . S
H916 C893 0.950 . S
H917 C895 0.903 1_556 S
C918 C919 1.349 . S
C918 C920 1.327 . S
C918 H943 0.950 . S
C919 C918 1.349 . S
C919 C935 1.349 . S
C920 C918 1.327 . S
C920 C939 1.429 . S
C920 H944 0.950 . S
C921 C938 1.574 . S
C921 C940 1.368 . S
C921 H945 0.949 1_455 S
H922 C926 0.949 . S
C923 C924 1.349 . S
C923 C925 1.327 . S
C923 H946 0.950 . S
C924 C923 1.349 . S
C924 C936 1.349 . S
C925 C923 1.327 . S
C925 C941 1.429 . S
C925 H947 0.950 . S
C926 H922 0.949 . S
C926 C934 1.574 . S
C926 C942 1.368 . S
H927 C935 0.950 . S
H928 C933 0.950 . S
H929 C934 0.949 . S
H930 C936 0.950 . S
H931 C937 0.950 . S
H932 C938 0.949 . S
C933 H928 0.950 . S
C933 C935 1.327 . S
C933 C939 1.429 . S
C934 C926 1.574 . S
C934 H929 0.949 . S
C934 C940 1.368 . S
C935 C919 1.349 . S
C935 H927 0.950 . S
C935 C933 1.327 . S
C936 C924 1.349 . S
C936 H930 0.950 . S
C936 C937 1.327 . S
C937 H931 0.950 . S
C937 C936 1.327 . S
C937 C941 1.429 . S
C938 C921 1.574 . S
C938 H932 0.949 . S
C938 C942 1.368 . S
C939 C920 1.429 . S
C939 C933 1.429 . S
C939 C940 1.523 1_655 S
C940 C921 1.368 . S
C940 C934 1.368 . S
C940 C939 1.523 1_455 S
C941 C925 1.429 . S
C941 C937 1.429 . S
C941 C942 1.523 . S
C942 C926 1.368 . S
C942 C938 1.368 . S
C942 C941 1.523 . S
H943 C918 0.950 . S
H944 C920 0.950 . S
H945 C921 0.949 1_655 S
H946 C923 0.950 . S
H947 C925 0.950 . S
C948 C949 1.349 . S
C948 C950 1.327 . S
C948 H973 0.950 . S
C949 C948 1.349 . S
C949 C965 1.349 . S
C950 C948 1.327 . S
C950 C969 1.429 . S
C950 H974 0.950 . S
C951 C968 1.574 . S
C951 C970 1.368 . S
C951 H975 0.949 . S
H952 C956 0.949 . S
C953 C954 1.349 . S
C953 C955 1.327 . S
C953 H976 0.950 . S
C954 C953 1.349 . S
C954 C966 1.349 . S
C955 C953 1.327 . S
C955 C971 1.429 . S
C955 H977 0.950 . S
C956 H952 0.949 . S
C956 C964 1.574 . S
C956 C972 1.368 . S
H957 C965 0.950 . S
H958 C963 0.950 . S
H959 C964 0.949 . S
H960 C966 0.950 . S
H961 C967 0.950 . S
H962 C968 0.949 . S
C963 H958 0.950 . S
C963 C965 1.327 . S
C963 C969 1.429 . S
C964 C956 1.574 . S
C964 H959 0.949 . S
C964 C970 1.368 . S
C965 C949 1.349 . S
C965 H957 0.950 . S
C965 C963 1.327 . S
C966 C954 1.349 . S
C966 H960 0.950 . S
C966 C967 1.327 . S
C967 H961 0.950 . S
C967 C966 1.327 . S
C967 C971 1.429 . S
C968 C951 1.574 . S
C968 H962 0.949 . S
C968 C972 1.368 . S
C969 C950 1.429 . S
C969 C963 1.429 . S
C969 C970 1.523 . S
C970 C951 1.368 . S
C970 C964 1.368 . S
C970 C969 1.523 . S
C971 C955 1.429 . S
C971 C967 1.429 . S
C971 C972 1.523 . S
C972 C956 1.368 . S
C972 C968 1.368 . S
C972 C971 1.523 . S
H973 C948 0.950 . S
H974 C950 0.950 . S
H975 C951 0.949 . S
H976 C953 0.950 . S
H977 C955 0.950 . S
C978 C979 1.349 . S
C978 C980 1.327 . S
C978 H1003 0.950 . S
C979 C978 1.349 . S
C979 C995 1.349 . S
C980 C978 1.327 . S
C980 C999 1.429 . S
C980 H1004 0.950 . S
C981 C998 1.587 . S
C981 C1000 1.364 1_565 S
C981 H1005 0.941 1_565 S
H982 C986 0.949 . S
C983 C984 1.349 . S
C983 C985 1.327 . S
C983 H1006 0.950 . S
C984 C983 1.349 . S
C984 C996 1.349 . S
C985 C983 1.327 . S
C985 C1001 1.429 . S
C985 H1007 0.950 . S
C986 H982 0.949 . S
C986 C994 1.574 1_565 S
C986 C1002 1.368 . S
H987 C995 0.950 . S
H988 C993 0.950 . S
H989 C994 0.949 . S
H990 C996 0.950 . S
H991 C997 0.950 . S
H992 C998 0.949 . S
C993 H988 0.950 . S
C993 C995 1.327 . S
C993 C999 1.429 . S
C994 C986 1.574 1_545 S
C994 H989 0.949 . S
C994 C1000 1.368 . S
C995 C979 1.349 . S
C995 H987 0.950 . S
C995 C993 1.327 . S
C996 C984 1.349 . S
C996 H990 0.950 . S
C996 C997 1.327 . S
C997 H991 0.950 . S
C997 C996 1.327 . S
C997 C1001 1.429 . S
C998 C981 1.587 . S
C998 H992 0.949 . S
C998 C1002 1.368 . S
C999 C980 1.429 . S
C999 C993 1.429 . S
C999 C1000 1.523 . S
C1000 C981 1.364 1_545 S
C1000 C994 1.368 . S
C1000 C999 1.523 . S
C1001 C985 1.429 . S
C1001 C997 1.429 . S
C1001 C1002 1.523 . S
C1002 C986 1.368 . S
C1002 C998 1.368 . S
C1002 C1001 1.523 . S
H1003 C978 0.950 . S
H1004 C980 0.950 . S
H1005 C981 0.941 1_545 S
H1006 C983 0.950 . S
H1007 C985 0.950 . S
C1008 C1009 1.349 . S
C1008 C1010 1.327 . S
C1008 H1033 0.950 . S
C1009 C1008 1.349 . S
C1009 C1025 1.349 . S
C1010 C1008 1.327 . S
C1010 C1029 1.429 . S
C1010 H1034 0.950 . S
C1011 C1028 1.574 . S
C1011 C1030 1.368 . S
C1011 H1035 0.949 . S
H1012 C1016 0.949 . S
C1013 C1014 1.349 . S
C1013 C1015 1.327 . S
C1013 H1036 0.950 . S
C1014 C1013 1.349 . S
C1014 C1026 1.349 . S
C1015 C1013 1.327 . S
C1015 C1031 1.429 . S
C1015 H1037 0.950 . S
C1016 H1012 0.949 . S
C1016 C1024 1.574 . S
C1016 C1032 1.368 . S
H1017 C1025 0.950 . S
H1018 C1023 0.950 . S
H1019 C1024 0.949 . S
H1020 C1026 0.950 . S
H1021 C1027 0.950 . S
H1022 C1028 0.949 . S
C1023 H1018 0.950 . S
C1023 C1025 1.327 . S
C1023 C1029 1.429 . S
C1024 C1016 1.574 . S
C1024 H1019 0.949 . S
C1024 C1030 1.368 . S
C1025 C1009 1.349 . S
C1025 H1017 0.950 . S
C1025 C1023 1.327 . S
C1026 C1014 1.349 . S
C1026 H1020 0.950 . S
C1026 C1027 1.327 . S
C1027 H1021 0.950 . S
C1027 C1026 1.327 . S
C1027 C1031 1.429 . S
C1028 C1011 1.574 . S
C1028 H1022 0.949 . S
C1028 C1032 1.368 . S
C1029 C1010 1.429 . S
C1029 C1023 1.429 . S
C1029 C1030 1.523 . S
C1030 C1011 1.368 . S
C1030 C1024 1.368 . S
C1030 C1029 1.523 . S
C1031 C1015 1.429 . S
C1031 C1027 1.429 . S
C1031 C1032 1.523 . S
C1032 C1016 1.368 . S
C1032 C1028 1.368 . S
C1032 C1031 1.523 . S
H1033 C1008 0.950 . S
H1034 C1010 0.950 . S
H1035 C1011 0.949 . S
H1036 C1013 0.950 . S
H1037 C1015 0.950 . S
C1038 C1039 1.349 . S
C1038 C1040 1.327 . S
C1038 H1063 0.950 . S
C1039 C1038 1.349 . S
C1039 C1055 1.349 . S
C1040 C1038 1.327 . S
C1040 C1059 1.429 . S
C1040 H1064 0.950 . S
C1041 C1058 1.574 . S
C1041 C1060 1.368 . S
C1041 H1065 0.949 . S
H1042 C1046 0.949 . S
C1043 C1044 1.349 . S
C1043 C1045 1.327 . S
C1043 H1066 0.950 . S
C1044 C1043 1.349 . S
C1044 C1056 1.349 . S
C1045 C1043 1.327 . S
C1045 C1061 1.429 . S
C1045 H1067 0.950 . S
C1046 H1042 0.949 . S
C1046 C1054 1.574 . S
C1046 C1062 1.368 . S
H1047 C1055 0.950 . S
H1048 C1053 0.950 . S
H1049 C1054 0.949 . S
H1050 C1056 0.950 . S
H1051 C1057 0.950 . S
H1052 C1058 0.949 . S
C1053 H1048 0.950 . S
C1053 C1055 1.327 . S
C1053 C1059 1.429 . S
C1054 C1046 1.574 . S
C1054 H1049 0.949 . S
C1054 C1060 1.368 . S
C1055 C1039 1.349 . S
C1055 H1047 0.950 . S
C1055 C1053 1.327 . S
C1056 C1044 1.349 . S
C1056 H1050 0.950 . S
C1056 C1057 1.327 . S
C1057 H1051 0.950 . S
C1057 C1056 1.327 . S
C1057 C1061 1.429 . S
C1058 C1041 1.574 . S
C1058 H1052 0.949 . S
C1058 C1062 1.368 . S
C1059 C1040 1.429 . S
C1059 C1053 1.429 . S
C1059 C1060 1.523 . S
C1060 C1041 1.368 . S
C1060 C1054 1.368 . S
C1060 C1059 1.523 . S
C1061 C1045 1.429 . S
C1061 C1057 1.429 . S
C1061 C1062 1.523 . S
C1062 C1046 1.368 . S
C1062 C1058 1.368 . S
C1062 C1061 1.523 . S
H1063 C1038 0.950 . S
H1064 C1040 0.950 . S
H1065 C1041 0.949 . S
H1066 C1043 0.950 . S
H1067 C1045 0.950 . S
C1068 C1069 1.349 . S
C1068 C1070 1.327 . S
C1068 H1093 0.950 . S
C1069 C1068 1.349 . S
C1069 C1085 1.349 . S
C1070 C1068 1.327 . S
C1070 C1089 1.429 . S
C1070 H1094 0.950 . S
C1071 C1088 1.574 . S
C1071 C1090 1.368 . S
C1071 H1095 0.949 . S
H1072 C1076 0.949 . S
C1073 C1074 1.349 . S
C1073 C1075 1.327 . S
C1073 H1096 0.950 . S
C1074 C1073 1.349 . S
C1074 C1086 1.349 . S
C1075 C1073 1.327 . S
C1075 C1091 1.429 . S
C1075 H1097 0.950 . S
C1076 H1072 0.949 . S
C1076 C1084 1.574 . S
C1076 C1092 1.368 . S
H1077 C1085 0.950 . S
H1078 C1083 0.950 . S
H1079 C1084 0.949 . S
H1080 C1086 0.950 . S
H1081 C1087 0.950 . S
H1082 C1088 0.949 . S
C1083 H1078 0.950 . S
C1083 C1085 1.327 . S
C1083 C1089 1.429 . S
C1084 C1076 1.574 . S
C1084 H1079 0.949 . S
C1084 C1090 1.368 . S
C1085 C1069 1.349 . S
C1085 H1077 0.950 . S
C1085 C1083 1.327 . S
C1086 C1074 1.349 . S
C1086 H1080 0.950 . S
C1086 C1087 1.327 . S
C1087 H1081 0.950 . S
C1087 C1086 1.327 . S
C1087 C1091 1.429 . S
C1088 C1071 1.574 . S
C1088 H1082 0.949 . S
C1088 C1092 1.368 . S
C1089 C1070 1.429 . S
C1089 C1083 1.429 . S
C1089 C1090 1.523 . S
C1090 C1071 1.368 . S
C1090 C1084 1.368 . S
C1090 C1089 1.523 . S
C1091 C1075 1.429 . S
C1091 C1087 1.429 . S
C1091 C1092 1.523 . S
C1092 C1076 1.368 . S
C1092 C1088 1.368 . S
C1092 C1091 1.523 . S
H1093 C1068 0.950 . S
H1094 C1070 0.950 . S
H1095 C1071 0.949 . S
H1096 C1073 0.950 . S
H1097 C1075 0.950 . S
C1098 C1099 1.349 . S
C1098 C1100 1.327 . S
C1098 H1123 0.950 . S
C1099 C1098 1.349 . S
C1099 C1115 1.349 . S
C1100 C1098 1.327 . S
C1100 C1119 1.429 . S
C1100 H1124 0.950 . S
C1101 C1118 1.574 . S
C1101 C1120 1.368 . S
C1101 H1125 0.949 . S
H1102 C1106 0.949 . S
C1103 C1104 1.349 . S
C1103 C1105 1.327 . S
C1103 H1126 0.950 . S
C1104 C1103 1.349 . S
C1104 C1116 1.349 . S
C1105 C1103 1.327 . S
C1105 C1121 1.429 . S
C1105 H1127 0.950 . S
C1106 H1102 0.949 . S
C1106 C1114 1.574 . S
C1106 C1122 1.368 . S
H1107 C1115 0.950 . S
H1108 C1113 0.950 . S
H1109 C1114 0.949 . S
H1110 C1116 0.950 . S
H1111 C1117 0.950 . S
H1112 C1118 0.949 . S
C1113 H1108 0.950 . S
C1113 C1115 1.327 . S
C1113 C1119 1.429 . S
C1114 C1106 1.574 . S
C1114 H1109 0.949 . S
C1114 C1120 1.368 . S
C1115 C1099 1.349 . S
C1115 H1107 0.950 . S
C1115 C1113 1.327 . S
C1116 C1104 1.349 . S
C1116 H1110 0.950 . S
C1116 C1117 1.327 . S
C1117 H1111 0.950 . S
C1117 C1116 1.327 . S
C1117 C1121 1.429 . S
C1118 C1101 1.574 . S
C1118 H1112 0.949 . S
C1118 C1122 1.368 . S
C1119 C1100 1.429 . S
C1119 C1113 1.429 . S
C1119 C1120 1.523 . S
C1120 C1101 1.368 . S
C1120 C1114 1.368 . S
C1120 C1119 1.523 . S
C1121 C1105 1.429 . S
C1121 C1117 1.429 . S
C1121 C1122 1.523 . S
C1122 C1106 1.368 . S
C1122 C1118 1.368 . S
C1122 C1121 1.523 . S
H1123 C1098 0.950 . S
H1124 C1100 0.950 . S
H1125 C1101 0.949 . S
H1126 C1103 0.950 . S
H1127 C1105 0.950 . S
C1128 C1129 1.349 . S
C1128 C1130 1.327 . S
C1128 H1153 0.950 . S
C1129 C1128 1.349 . S
C1129 C1145 1.349 . S
C1130 C1128 1.327 . S
C1130 C1149 1.429 . S
C1130 H1154 0.950 . S
C1131 C1148 1.574 . S
C1131 C1150 1.368 . S
C1131 H1155 0.949 . S
H1132 C1136 0.949 . S
C1133 C1134 1.349 . S
C1133 C1135 1.327 . S
C1133 H1156 0.950 . S
C1134 C1133 1.349 . S
C1134 C1146 1.349 . S
C1135 C1133 1.327 . S
C1135 C1151 1.429 . S
C1135 H1157 0.950 . S
C1136 H1132 0.949 . S
C1136 C1144 1.574 . S
C1136 C1152 1.368 . S
H1137 C1145 0.950 . S
H1138 C1143 0.950 . S
H1139 C1144 0.949 . S
H1140 C1146 0.950 . S
H1141 C1147 0.950 . S
H1142 C1148 0.949 . S
C1143 H1138 0.950 . S
C1143 C1145 1.327 . S
C1143 C1149 1.429 . S
C1144 C1136 1.574 . S
C1144 H1139 0.949 . S
C1144 C1150 1.368 . S
C1145 C1129 1.349 . S
C1145 H1137 0.950 . S
C1145 C1143 1.327 . S
C1146 C1134 1.349 . S
C1146 H1140 0.950 . S
C1146 C1147 1.327 . S
C1147 H1141 0.950 . S
C1147 C1146 1.327 . S
C1147 C1151 1.429 . S
C1148 C1131 1.574 . S
C1148 H1142 0.949 . S
C1148 C1152 1.368 . S
C1149 C1130 1.429 . S
C1149 C1143 1.429 . S
C1149 C1150 1.523 . S
C1150 C1131 1.368 . S
C1150 C1144 1.368 . S
C1150 C1149 1.523 . S
C1151 C1135 1.429 . S
C1151 C1147 1.429 . S
C1151 C1152 1.523 . S
C1152 C1136 1.368 . S
C1152 C1148 1.368 . S
C1152 C1151 1.523 . S
H1153 C1128 0.950 . S
H1154 C1130 0.950 . S
H1155 C1131 0.949 . S
H1156 C1133 0.950 . S
H1157 C1135 0.950 . S
C1158 C1159 1.349 . S
C1158 C1160 1.327 . S
C1158 H1183 0.950 . S
C1159 C1158 1.349 . S
C1159 C1175 1.349 . S
C1160 C1158 1.327 . S
C1160 C1179 1.429 . S
C1160 H1184 0.950 . S
C1161 C1178 1.574 . S
C1161 C1180 1.368 . S
C1161 H1185 0.949 . S
H1162 C1166 0.949 . S
C1163 C1164 1.349 . S
C1163 C1165 1.327 . S
C1163 H1186 0.950 . S
C1164 C1163 1.349 . S
C1164 C1176 1.349 . S
C1165 C1163 1.327 . S
C1165 C1181 1.429 . S
C1165 H1187 0.950 . S
C1166 H1162 0.949 . S
C1166 C1174 1.574 . S
C1166 C1182 1.368 . S
H1167 C1175 0.950 . S
H1168 C1173 0.950 . S
H1169 C1174 0.949 . S
H1170 C1176 0.950 . S
H1171 C1177 0.950 . S
H1172 C1178 0.949 . S
C1173 H1168 0.950 . S
C1173 C1175 1.327 . S
C1173 C1179 1.429 . S
C1174 C1166 1.574 . S
C1174 H1169 0.949 . S
C1174 C1180 1.368 . S
C1175 C1159 1.349 . S
C1175 H1167 0.950 . S
C1175 C1173 1.327 . S
C1176 C1164 1.349 . S
C1176 H1170 0.950 . S
C1176 C1177 1.327 . S
C1177 H1171 0.950 . S
C1177 C1176 1.327 . S
C1177 C1181 1.429 . S
C1178 C1161 1.574 . S
C1178 H1172 0.949 . S
C1178 C1182 1.368 . S
C1179 C1160 1.429 . S
C1179 C1173 1.429 . S
C1179 C1180 1.523 . S
C1180 C1161 1.368 . S
C1180 C1174 1.368 . S
C1180 C1179 1.523 . S
C1181 C1165 1.429 . S
C1181 C1177 1.429 . S
C1181 C1182 1.523 . S
C1182 C1166 1.368 . S
C1182 C1178 1.368 . S
C1182 C1181 1.523 . S
H1183 C1158 0.950 . S
H1184 C1160 0.950 . S
H1185 C1161 0.949 . S
H1186 C1163 0.950 . S
H1187 C1165 0.950 . S
C1188 C1189 1.349 . S
C1188 C1190 1.327 . S
C1188 H1213 0.950 . S
C1189 C1188 1.349 . S
C1189 C1205 1.349 . S
C1190 C1188 1.327 . S
C1190 C1209 1.429 . S
C1190 H1214 0.950 . S
C1191 C1208 1.574 . S
C1191 C1210 1.369 . S
C1191 H1215 0.949 1_565 S
H1192 C1196 0.949 . S
C1193 C1194 1.349 . S
C1193 C1195 1.327 . S
C1193 H1216 0.950 . S
C1194 C1193 1.349 . S
C1194 C1206 1.349 . S
C1195 C1193 1.327 . S
C1195 C1211 1.429 . S
C1195 H1217 0.950 . S
C1196 H1192 0.949 . S
C1196 C1204 1.574 . S
C1196 C1212 1.368 . S
H1197 C1205 0.950 . S
H1198 C1203 0.950 . S
H1199 C1204 0.949 . S
H1200 C1206 0.950 . S
H1201 C1207 0.950 . S
H1202 C1208 0.949 . S
C1203 H1198 0.950 . S
C1203 C1205 1.327 . S
C1203 C1209 1.429 . S
C1204 C1196 1.574 . S
C1204 H1199 0.949 . S
C1204 C1210 1.375 . S
C1205 C1189 1.349 . S
C1205 H1197 0.950 . S
C1205 C1203 1.327 . S
C1206 C1194 1.349 . S
C1206 H1200 0.950 . S
C1206 C1207 1.327 . S
C1207 H1201 0.950 . S
C1207 C1206 1.327 . S
C1207 C1211 1.429 . S
C1208 C1191 1.574 . S
C1208 H1202 0.949 . S
C1208 C1212 1.368 . S
C1209 C1190 1.429 . S
C1209 C1203 1.429 . S
C1209 C1210 1.514 1_545 S
C1210 C1191 1.369 . S
C1210 C1204 1.375 . S
C1210 C1209 1.514 1_565 S
C1211 C1195 1.429 . S
C1211 C1207 1.429 . S
C1211 C1212 1.523 . S
C1212 C1196 1.368 . S
C1212 C1208 1.368 . S
C1212 C1211 1.523 . S
H1213 C1188 0.950 . S
H1214 C1190 0.950 . S
H1215 C1191 0.949 1_545 S
H1216 C1193 0.950 . S
H1217 C1195 0.950 . S
C1218 C1219 1.349 . S
C1218 C1220 1.327 . S
C1218 H1243 0.950 . S
C1219 C1218 1.349 . S
C1219 C1235 1.349 . S
C1220 C1218 1.327 . S
C1220 C1239 1.429 . S
C1220 H1244 0.950 . S
C1221 C1238 1.574 . S
C1221 C1240 1.368 . S
C1221 H1245 0.949 . S
H1222 C1226 0.949 . S
C1223 C1224 1.349 . S
C1223 C1225 1.327 . S
C1223 H1246 0.950 . S
C1224 C1223 1.349 . S
C1224 C1236 1.349 . S
C1225 C1223 1.327 . S
C1225 C1241 1.429 . S
C1225 H1247 0.950 . S
C1226 H1222 0.949 . S
C1226 C1234 1.574 . S
C1226 C1242 1.368 . S
H1227 C1235 0.950 . S
H1228 C1233 0.950 1_455 S
H1229 C1234 0.949 . S
H1230 C1236 0.950 . S
H1231 C1237 0.950 . S
H1232 C1238 0.949 . S
C1233 H1228 0.950 1_655 S
C1233 C1235 1.327 . S
C1233 C1239 1.429 . S
C1234 C1226 1.574 . S
C1234 H1229 0.949 . S
C1234 C1240 1.368 . S
C1235 C1219 1.349 . S
C1235 H1227 0.950 . S
C1235 C1233 1.327 . S
C1236 C1224 1.349 . S
C1236 H1230 0.950 . S
C1236 C1237 1.327 . S
C1237 H1231 0.950 . S
C1237 C1236 1.327 . S
C1237 C1241 1.429 . S
C1238 C1221 1.574 . S
C1238 H1232 0.949 . S
C1238 C1242 1.368 . S
C1239 C1220 1.429 . S
C1239 C1233 1.429 . S
C1239 C1240 1.523 1_655 S
C1240 C1221 1.368 . S
C1240 C1234 1.368 . S
C1240 C1239 1.523 1_455 S
C1241 C1225 1.429 . S
C1241 C1237 1.429 . S
C1241 C1242 1.523 . S
C1242 C1226 1.368 . S
C1242 C1238 1.368 . S
C1242 C1241 1.523 . S
H1243 C1218 0.950 . S
H1244 C1220 0.950 . S
H1245 C1221 0.949 . S
H1246 C1223 0.950 . S
H1247 C1225 0.950 . S
C1248 C1249 1.349 . S
C1248 C1250 1.327 . S
C1248 H1273 0.950 . S
C1249 C1248 1.349 . S
C1249 C1265 1.349 . S
C1250 C1248 1.327 . S
C1250 C1269 1.429 . S
C1250 H1274 0.950 . S
C1251 C1268 1.574 . S
C1251 C1270 1.368 . S
C1251 H1275 0.949 . S
H1252 C1256 0.949 . S
C1253 C1254 1.349 . S
C1253 C1255 1.327 . S
C1253 H1276 0.950 . S
C1254 C1253 1.349 . S
C1254 C1266 1.349 . S
C1255 C1253 1.327 . S
C1255 C1271 1.429 . S
C1255 H1277 0.950 . S
C1256 H1252 0.949 . S
C1256 C1264 1.574 . S
C1256 C1272 1.368 . S
H1257 C1265 0.950 . S
H1258 C1263 0.950 . S
H1259 C1264 0.949 . S
H1260 C1266 0.950 . S
H1261 C1267 0.950 . S
H1262 C1268 0.949 . S
C1263 H1258 0.950 . S
C1263 C1265 1.327 . S
C1263 C1269 1.429 . S
C1264 C1256 1.574 . S
C1264 H1259 0.949 . S
C1264 C1270 1.368 . S
C1265 C1249 1.349 . S
C1265 H1257 0.950 . S
C1265 C1263 1.327 . S
C1266 C1254 1.349 . S
C1266 H1260 0.950 . S
C1266 C1267 1.327 . S
C1267 H1261 0.950 . S
C1267 C1266 1.327 . S
C1267 C1271 1.429 . S
C1268 C1251 1.574 . S
C1268 H1262 0.949 . S
C1268 C1272 1.368 . S
C1269 C1250 1.429 . S
C1269 C1263 1.429 . S
C1269 C1270 1.523 . S
C1270 C1251 1.368 . S
C1270 C1264 1.368 . S
C1270 C1269 1.523 . S
C1271 C1255 1.429 . S
C1271 C1267 1.429 . S
C1271 C1272 1.523 . S
C1272 C1256 1.368 . S
C1272 C1268 1.368 . S
C1272 C1271 1.523 . S
H1273 C1248 0.950 . S
H1274 C1250 0.950 . S
H1275 C1251 0.949 . S
H1276 C1253 0.950 . S
H1277 C1255 0.950 . S
C1278 C1279 1.349 . S
C1278 C1280 1.327 . S
C1278 H1303 0.950 . S
C1279 C1278 1.349 . S
C1279 C1295 1.349 . S
C1280 C1278 1.327 . S
C1280 C1299 1.429 . S
C1280 H1304 0.950 . S
C1281 C1298 1.574 . S
C1281 C1300 1.368 . S
C1281 H1305 0.949 . S
H1282 C1286 0.949 . S
C1283 C1284 1.349 . S
C1283 C1285 1.327 . S
C1283 H1306 0.950 . S
C1284 C1283 1.349 . S
C1284 C1296 1.349 . S
C1285 C1283 1.327 . S
C1285 C1301 1.429 . S
C1285 H1307 0.950 . S
C1286 H1282 0.949 . S
C1286 C1294 1.574 . S
C1286 C1302 1.368 . S
H1287 C1295 0.950 . S
H1288 C1293 0.950 . S
H1289 C1294 0.949 . S
H1290 C1296 0.950 . S
H1291 C1297 0.950 . S
H1292 C1298 0.949 . S
C1293 H1288 0.950 . S
C1293 C1295 1.327 . S
C1293 C1299 1.429 . S
C1294 C1286 1.574 . S
C1294 H1289 0.949 . S
C1294 C1300 1.368 . S
C1295 C1279 1.349 . S
C1295 H1287 0.950 . S
C1295 C1293 1.327 . S
C1296 C1284 1.349 . S
C1296 H1290 0.950 . S
C1296 C1297 1.327 . S
C1297 H1291 0.950 . S
C1297 C1296 1.327 . S
C1297 C1301 1.429 . S
C1298 C1281 1.574 . S
C1298 H1292 0.949 . S
C1298 C1302 1.368 . S
C1299 C1280 1.429 . S
C1299 C1293 1.429 . S
C1299 C1300 1.523 . S
C1300 C1281 1.368 . S
C1300 C1294 1.368 . S
C1300 C1299 1.523 . S
C1301 C1285 1.429 . S
C1301 C1297 1.429 . S
C1301 C1302 1.523 . S
C1302 C1286 1.368 . S
C1302 C1298 1.368 . S
C1302 C1301 1.523 . S
H1303 C1278 0.950 . S
H1304 C1280 0.950 . S
H1305 C1281 0.949 . S
H1306 C1283 0.950 . S
H1307 C1285 0.950 . S
C1308 C1309 1.349 . S
C1308 C1310 1.327 . S
C1308 H1333 0.950 . S
C1309 C1308 1.349 . S
C1309 C1325 1.349 . S
C1310 C1308 1.327 . S
C1310 C1329 1.429 . S
C1310 H1334 0.950 . S
C1311 C1328 1.574 . S
C1311 C1330 1.368 . S
C1311 H1335 0.949 . S
H1312 C1316 0.949 . S
C1313 C1314 1.349 . S
C1313 C1315 1.327 . S
C1313 H1336 0.950 . S
C1314 C1313 1.349 . S
C1314 C1326 1.349 . S
C1315 C1313 1.327 . S
C1315 C1331 1.429 . S
C1315 H1337 0.950 . S
C1316 H1312 0.949 . S
C1316 C1324 1.574 . S
C1316 C1332 1.368 . S
H1317 C1325 0.950 . S
H1318 C1323 0.950 . S
H1319 C1324 0.949 . S
H1320 C1326 0.950 . S
H1321 C1327 0.950 . S
H1322 C1328 0.949 . S
C1323 H1318 0.950 . S
C1323 C1325 1.327 . S
C1323 C1329 1.429 . S
C1324 C1316 1.574 . S
C1324 H1319 0.949 . S
C1324 C1330 1.368 . S
C1325 C1309 1.349 . S
C1325 H1317 0.950 . S
C1325 C1323 1.327 . S
C1326 C1314 1.349 . S
C1326 H1320 0.950 . S
C1326 C1327 1.327 . S
C1327 H1321 0.950 . S
C1327 C1326 1.327 . S
C1327 C1331 1.429 . S
C1328 C1311 1.574 . S
C1328 H1322 0.949 . S
C1328 C1332 1.368 . S
C1329 C1310 1.429 . S
C1329 C1323 1.429 . S
C1329 C1330 1.523 . S
C1330 C1311 1.368 . S
C1330 C1324 1.368 . S
C1330 C1329 1.523 . S
C1331 C1315 1.429 . S
C1331 C1327 1.429 . S
C1331 C1332 1.523 . S
C1332 C1316 1.368 . S
C1332 C1328 1.368 . S
C1332 C1331 1.523 . S
H1333 C1308 0.950 . S
H1334 C1310 0.950 . S
H1335 C1311 0.949 . S
H1336 C1313 0.950 . S
H1337 C1315 0.950 . S
C1338 C1339 1.349 . S
C1338 C1340 1.327 . S
C1338 H1363 0.950 . S
C1339 C1338 1.349 . S
C1339 C1355 1.349 . S
C1340 C1338 1.327 . S
C1340 C1359 1.429 . S
C1340 H1364 0.950 . S
C1341 C1358 1.574 . S
C1341 C1360 1.368 . S
C1341 H1365 0.949 . S
H1342 C1346 0.949 . S
C1343 C1344 1.349 . S
C1343 C1345 1.327 . S
C1343 H1366 0.950 . S
C1344 C1343 1.349 . S
C1344 C1356 1.349 . S
C1345 C1343 1.327 . S
C1345 C1361 1.429 . S
C1345 H1367 0.950 . S
C1346 H1342 0.949 . S
C1346 C1354 1.574 . S
C1346 C1362 1.368 . S
H1347 C1355 0.950 . S
H1348 C1353 0.950 . S
H1349 C1354 0.949 . S
H1350 C1356 0.950 . S
H1351 C1357 0.950 . S
H1352 C1358 0.949 . S
C1353 H1348 0.950 . S
C1353 C1355 1.327 . S
C1353 C1359 1.429 . S
C1354 C1346 1.574 . S
C1354 H1349 0.949 . S
C1354 C1360 1.368 . S
C1355 C1339 1.349 . S
C1355 H1347 0.950 . S
C1355 C1353 1.327 . S
C1356 C1344 1.349 . S
C1356 H1350 0.950 . S
C1356 C1357 1.327 . S
C1357 H1351 0.950 . S
C1357 C1356 1.327 . S
C1357 C1361 1.429 . S
C1358 C1341 1.574 . S
C1358 H1352 0.949 . S
C1358 C1362 1.368 . S
C1359 C1340 1.429 . S
C1359 C1353 1.429 . S
C1359 C1360 1.523 . S
C1360 C1341 1.368 . S
C1360 C1354 1.368 . S
C1360 C1359 1.523 . S
C1361 C1345 1.429 . S
C1361 C1357 1.429 . S
C1361 C1362 1.523 . S
C1362 C1346 1.368 . S
C1362 C1358 1.368 . S
C1362 C1361 1.523 . S
H1363 C1338 0.950 . S
H1364 C1340 0.950 . S
H1365 C1341 0.949 . S
H1366 C1343 0.950 . S
H1367 C1345 0.950 . S
C1368 C1369 1.349 . S
C1368 C1370 1.327 . S
C1368 H1393 0.950 . S
C1369 C1368 1.349 . S
C1369 C1385 1.349 . S
C1370 C1368 1.327 . S
C1370 C1389 1.429 . S
C1370 H1394 0.950 . S
C1371 C1388 1.574 . S
C1371 C1390 1.368 1_545 S
C1371 H1395 0.959 . S
H1372 C1376 0.949 . S
C1373 C1374 1.349 . S
C1373 C1375 1.327 . S
C1373 H1396 0.950 . S
C1374 C1373 1.349 . S
C1374 C1386 1.349 . S
C1375 C1373 1.327 . S
C1375 C1391 1.429 . S
C1375 H1397 0.950 . S
C1376 H1372 0.949 . S
C1376 C1384 1.574 . S
C1376 C1392 1.368 . S
H1377 C1385 0.950 . S
H1378 C1383 0.950 . S
H1379 C1384 0.949 1_565 S
H1380 C1386 0.950 . S
H1381 C1387 0.950 . S
H1382 C1388 0.949 . S
C1383 H1378 0.950 . S
C1383 C1385 1.327 . S
C1383 C1389 1.429 . S
C1384 C1376 1.574 . S
C1384 H1379 0.949 1_545 S
C1384 C1390 1.368 1_545 S
C1385 C1369 1.349 . S
C1385 H1377 0.950 . S
C1385 C1383 1.327 . S
C1386 C1374 1.349 . S
C1386 H1380 0.950 . S
C1386 C1387 1.327 . S
C1387 H1381 0.950 . S
C1387 C1386 1.327 . S
C1387 C1391 1.429 . S
C1388 C1371 1.574 . S
C1388 H1382 0.949 . S
C1388 C1392 1.368 . S
C1389 C1370 1.429 . S
C1389 C1383 1.429 . S
C1389 C1390 1.523 . S
C1390 C1371 1.368 1_565 S
C1390 C1384 1.368 1_565 S
C1390 C1389 1.523 . S
C1391 C1375 1.429 . S
C1391 C1387 1.429 . S
C1391 C1392 1.523 . S
C1392 C1376 1.368 . S
C1392 C1388 1.368 . S
C1392 C1391 1.523 . S
H1393 C1368 0.950 . S
H1394 C1370 0.950 . S
H1395 C1371 0.959 . S
H1396 C1373 0.950 . S
H1397 C1375 0.950 . S
C1398 C1399 1.349 . S
C1398 C1400 1.327 . S
C1398 H1423 0.950 . S
C1399 C1398 1.349 . S
C1399 C1415 1.349 . S
C1400 C1398 1.327 . S
C1400 C1419 1.429 . S
C1400 H1424 0.950 . S
C1401 C1418 1.574 . S
C1401 C1420 1.368 . S
C1401 H1425 0.949 . S
H1402 C1406 0.949 . S
C1403 C1404 1.349 . S
C1403 C1405 1.327 . S
C1403 H1426 0.950 . S
C1404 C1403 1.349 . S
C1404 C1416 1.349 . S
C1405 C1403 1.327 . S
C1405 C1421 1.429 . S
C1405 H1427 0.950 . S
C1406 H1402 0.949 . S
C1406 C1414 1.574 . S
C1406 C1422 1.368 . S
H1407 C1415 0.950 . S
H1408 C1413 0.950 . S
H1409 C1414 0.949 1_455 S
H1410 C1416 0.950 . S
H1411 C1417 0.950 . S
H1412 C1418 0.949 . S
C1413 H1408 0.950 . S
C1413 C1415 1.327 . S
C1413 C1419 1.429 . S
C1414 C1406 1.574 . S
C1414 H1409 0.949 1_655 S
C1414 C1420 1.368 . S
C1415 C1399 1.349 . S
C1415 H1407 0.950 . S
C1415 C1413 1.327 . S
C1416 C1404 1.349 . S
C1416 H1410 0.950 . S
C1416 C1417 1.327 . S
C1417 H1411 0.950 . S
C1417 C1416 1.327 . S
C1417 C1421 1.429 . S
C1418 C1401 1.574 . S
C1418 H1412 0.949 . S
C1418 C1422 1.368 . S
C1419 C1400 1.429 . S
C1419 C1413 1.429 . S
C1419 C1420 1.523 1_455 S
C1420 C1401 1.368 . S
C1420 C1414 1.368 . S
C1420 C1419 1.523 1_655 S
C1421 C1405 1.429 . S
C1421 C1417 1.429 . S
C1421 C1422 1.523 . S
C1422 C1406 1.368 . S
C1422 C1418 1.368 . S
C1422 C1421 1.523 . S
H1423 C1398 0.950 . S
H1424 C1400 0.950 . S
H1425 C1401 0.949 . S
H1426 C1403 0.950 . S
H1427 C1405 0.950 . S
C1428 C1429 1.349 . S
C1428 C1430 1.327 . S
C1428 H1453 0.950 . S
C1429 C1428 1.349 . S
C1429 C1445 1.349 . S
C1430 C1428 1.327 . S
C1430 C1449 1.429 . S
C1430 H1454 0.950 . S
C1431 C1448 1.574 . S
C1431 C1450 1.368 . S
C1431 H1455 0.949 . S
H1432 C1436 0.949 . S
C1433 C1434 1.349 . S
C1433 C1435 1.327 . S
C1433 H1456 0.950 . S
C1434 C1433 1.349 . S
C1434 C1446 1.349 . S
C1435 C1433 1.327 . S
C1435 C1451 1.429 . S
C1435 H1457 0.950 . S
C1436 H1432 0.949 . S
C1436 C1444 1.574 . S
C1436 C1452 1.368 . S
H1437 C1445 0.950 . S
H1438 C1443 0.950 . S
H1439 C1444 0.949 . S
H1440 C1446 0.950 . S
H1441 C1447 0.950 . S
H1442 C1448 0.949 . S
C1443 H1438 0.950 . S
C1443 C1445 1.327 . S
C1443 C1449 1.429 . S
C1444 C1436 1.574 . S
C1444 H1439 0.949 . S
C1444 C1450 1.368 . S
C1445 C1429 1.349 . S
C1445 H1437 0.950 . S
C1445 C1443 1.327 . S
C1446 C1434 1.349 . S
C1446 H1440 0.950 . S
C1446 C1447 1.327 . S
C1447 H1441 0.950 . S
C1447 C1446 1.327 . S
C1447 C1451 1.429 . S
C1448 C1431 1.574 . S
C1448 H1442 0.949 . S
C1448 C1452 1.368 . S
C1449 C1430 1.429 . S
C1449 C1443 1.429 . S
C1449 C1450 1.523 . S
C1450 C1431 1.368 . S
C1450 C1444 1.368 . S
C1450 C1449 1.523 . S
C1451 C1435 1.429 . S
C1451 C1447 1.429 . S
C1451 C1452 1.523 . S
C1452 C1436 1.368 . S
C1452 C1448 1.368 . S
C1452 C1451 1.523 . S
H1453 C1428 0.950 . S
H1454 C1430 0.950 . S
H1455 C1431 0.949 . S
H1456 C1433 0.950 . S
H1457 C1435 0.950 . S
C1458 C1459 1.349 . S
C1458 C1460 1.327 . S
C1458 H1483 0.950 . S
C1459 C1458 1.349 . S
C1459 C1475 1.349 . S
C1460 C1458 1.327 . S
C1460 C1479 1.429 . S
C1460 H1484 0.950 . S
C1461 C1478 1.574 . S
C1461 C1480 1.368 . S
C1461 H1485 0.949 . S
H1462 C1466 0.949 . S
C1463 C1464 1.349 . S
C1463 C1465 1.327 . S
C1463 H1486 0.950 . S
C1464 C1463 1.349 . S
C1464 C1476 1.349 . S
C1465 C1463 1.327 . S
C1465 C1481 1.429 . S
C1465 H1487 0.950 . S
C1466 H1462 0.949 . S
C1466 C1474 1.574 . S
C1466 C1482 1.368 . S
H1467 C1475 0.950 . S
H1468 C1473 0.950 . S
H1469 C1474 0.949 . S
H1470 C1476 0.950 . S
H1471 C1477 0.950 . S
H1472 C1478 0.949 . S
C1473 H1468 0.950 . S
C1473 C1475 1.327 . S
C1473 C1479 1.429 . S
C1474 C1466 1.574 . S
C1474 H1469 0.949 . S
C1474 C1480 1.368 . S
C1475 C1459 1.349 . S
C1475 H1467 0.950 . S
C1475 C1473 1.327 . S
C1476 C1464 1.349 . S
C1476 H1470 0.950 . S
C1476 C1477 1.327 . S
C1477 H1471 0.950 . S
C1477 C1476 1.327 . S
C1477 C1481 1.429 . S
C1478 C1461 1.574 . S
C1478 H1472 0.949 . S
C1478 C1482 1.368 . S
C1479 C1460 1.429 . S
C1479 C1473 1.429 . S
C1479 C1480 1.523 1_455 S
C1480 C1461 1.368 . S
C1480 C1474 1.368 . S
C1480 C1479 1.523 1_655 S
C1481 C1465 1.429 . S
C1481 C1477 1.429 . S
C1481 C1482 1.523 . S
C1482 C1466 1.368 . S
C1482 C1478 1.368 . S
C1482 C1481 1.523 . S
H1483 C1458 0.950 . S
H1484 C1460 0.950 . S
H1485 C1461 0.949 . S
H1486 C1463 0.950 . S
H1487 C1465 0.950 . S
C1488 C1489 1.349 . S
C1488 C1490 1.327 . S
C1488 H1513 0.950 . S
C1489 C1488 1.349 . S
C1489 C1505 1.349 . S
C1490 C1488 1.327 . S
C1490 C1509 1.429 . S
C1490 H1514 0.950 . S
C1491 C1508 1.574 . S
C1491 C1510 1.368 . S
C1491 H1515 0.949 . S
H1492 C1496 0.949 . S
C1493 C1494 1.349 . S
C1493 C1495 1.327 . S
C1493 H1516 0.950 . S
C1494 C1493 1.349 . S
C1494 C1506 1.349 . S
C1495 C1493 1.327 . S
C1495 C1511 1.429 . S
C1495 H1517 0.950 . S
C1496 H1492 0.949 . S
C1496 C1504 1.574 . S
C1496 C1512 1.368 . S
H1497 C1505 0.950 . S
H1498 C1503 0.950 . S
H1499 C1504 0.949 . S
H1500 C1506 0.950 . S
H1501 C1507 0.950 . S
H1502 C1508 0.949 . S
C1503 H1498 0.950 . S
C1503 C1505 1.327 . S
C1503 C1509 1.429 . S
C1504 C1496 1.574 . S
C1504 H1499 0.949 . S
C1504 C1510 1.368 . S
C1505 C1489 1.349 . S
C1505 H1497 0.950 . S
C1505 C1503 1.327 . S
C1506 C1494 1.349 . S
C1506 H1500 0.950 . S
C1506 C1507 1.327 . S
C1507 H1501 0.950 . S
C1507 C1506 1.327 . S
C1507 C1511 1.429 . S
C1508 C1491 1.574 . S
C1508 H1502 0.949 . S
C1508 C1512 1.368 . S
C1509 C1490 1.429 . S
C1509 C1503 1.429 . S
C1509 C1510 1.523 . S
C1510 C1491 1.368 . S
C1510 C1504 1.368 . S
C1510 C1509 1.523 . S
C1511 C1495 1.429 . S
C1511 C1507 1.429 . S
C1511 C1512 1.523 . S
C1512 C1496 1.368 . S
C1512 C1508 1.368 . S
C1512 C1511 1.523 . S
H1513 C1488 0.950 . S
H1514 C1490 0.950 . S
H1515 C1491 0.949 . S
H1516 C1493 0.950 . S
H1517 C1495 0.950 . S
C1518 C1519 1.349 . S
C1518 C1520 1.327 . S
C1518 H1543 0.950 . S
C1519 C1518 1.349 . S
C1519 C1535 1.349 . S
C1520 C1518 1.327 . S
C1520 C1539 1.429 . S
C1520 H1544 0.950 . S
C1521 C1538 1.574 . S
C1521 C1540 1.374 . S
C1521 H1545 0.949 . S
H1522 C1526 0.949 . S
C1523 C1524 1.349 . S
C1523 C1525 1.327 . S
C1523 H1546 0.950 . S
C1524 C1523 1.349 . S
C1524 C1536 1.349 . S
C1525 C1523 1.327 . S
C1525 C1541 1.429 . S
C1525 H1547 0.950 . S
C1526 H1522 0.949 . S
C1526 C1534 1.574 . S
C1526 C1542 1.368 . S
H1527 C1535 0.950 . S
H1528 C1533 0.950 . S
H1529 C1534 0.949 1_565 S
H1530 C1536 0.950 . S
H1531 C1537 0.950 . S
H1532 C1538 0.949 . S
C1533 H1528 0.950 . S
C1533 C1535 1.327 . S
C1533 C1539 1.429 . S
C1534 C1526 1.574 . S
C1534 H1529 0.949 1_545 S
C1534 C1540 1.399 . S
C1535 C1519 1.349 . S
C1535 H1527 0.950 . S
C1535 C1533 1.327 . S
C1536 C1524 1.349 . S
C1536 H1530 0.950 . S
C1536 C1537 1.327 . S
C1537 H1531 0.950 . S
C1537 C1536 1.327 . S
C1537 C1541 1.429 . S
C1538 C1521 1.574 . S
C1538 H1532 0.949 . S
C1538 C1542 1.368 . S
C1539 C1520 1.429 . S
C1539 C1533 1.429 . S
C1539 C1540 1.477 1_565 S
C1540 C1521 1.374 . S
C1540 C1534 1.399 . S
C1540 C1539 1.477 1_545 S
C1541 C1525 1.429 . S
C1541 C1537 1.429 . S
C1541 C1542 1.523 . S
C1542 C1526 1.368 . S
C1542 C1538 1.368 . S
C1542 C1541 1.523 . S
H1543 C1518 0.950 . S
H1544 C1520 0.950 . S
H1545 C1521 0.949 . S
H1546 C1523 0.950 . S
H1547 C1525 0.950 . S
C1548 C1549 1.349 . S
C1548 C1550 1.327 . S
C1548 H1573 0.950 . S
C1549 C1548 1.349 . S
C1549 C1565 1.349 . S
C1550 C1548 1.327 . S
C1550 C1569 1.429 . S
C1550 H1574 0.950 . S
C1551 C1568 1.574 . S
C1551 C1570 1.368 . S
C1551 H1575 0.949 . S
H1552 C1556 0.949 . S
C1553 C1554 1.349 . S
C1553 C1555 1.327 . S
C1553 H1576 0.950 . S
C1554 C1553 1.349 . S
C1554 C1566 1.349 . S
C1555 C1553 1.327 . S
C1555 C1571 1.429 . S
C1555 H1577 0.950 . S
C1556 H1552 0.949 . S
C1556 C1564 1.574 . S
C1556 C1572 1.368 . S
H1557 C1565 0.950 . S
H1558 C1563 0.950 . S
H1559 C1564 0.949 . S
H1560 C1566 0.950 . S
H1561 C1567 0.950 . S
H1562 C1568 0.949 . S
C1563 H1558 0.950 . S
C1563 C1565 1.327 . S
C1563 C1569 1.429 . S
C1564 C1556 1.574 . S
C1564 H1559 0.949 . S
C1564 C1570 1.368 . S
C1565 C1549 1.349 . S
C1565 H1557 0.950 . S
C1565 C1563 1.327 . S
C1566 C1554 1.349 . S
C1566 H1560 0.950 . S
C1566 C1567 1.327 . S
C1567 H1561 0.950 . S
C1567 C1566 1.327 . S
C1567 C1571 1.429 . S
C1568 C1551 1.574 . S
C1568 H1562 0.949 . S
C1568 C1572 1.368 . S
C1569 C1550 1.429 . S
C1569 C1563 1.429 . S
C1569 C1570 1.523 . S
C1570 C1551 1.368 . S
C1570 C1564 1.368 . S
C1570 C1569 1.523 . S
C1571 C1555 1.429 . S
C1571 C1567 1.429 . S
C1571 C1572 1.523 . S
C1572 C1556 1.368 . S
C1572 C1568 1.368 . S
C1572 C1571 1.523 . S
H1573 C1548 0.950 . S
H1574 C1550 0.950 . S
H1575 C1551 0.949 . S
H1576 C1553 0.950 . S
H1577 C1555 0.950 . S
C1578 C1579 1.349 . S
C1578 C1580 1.327 . S
C1578 H1603 0.950 . S
C1579 C1578 1.349 . S
C1579 C1595 1.349 . S
C1580 C1578 1.327 . S
C1580 C1599 1.429 . S
C1580 H1604 0.950 . S
C1581 C1598 1.574 . S
C1581 C1600 1.368 . S
C1581 H1605 0.949 . S
H1582 C1586 0.949 . S
C1583 C1584 1.349 . S
C1583 C1585 1.327 . S
C1583 H1606 0.950 . S
C1584 C1583 1.349 . S
C1584 C1596 1.349 . S
C1585 C1583 1.327 . S
C1585 C1601 1.429 . S
C1585 H1607 0.950 . S
C1586 H1582 0.949 . S
C1586 C1594 1.574 . S
C1586 C1602 1.368 . S
H1587 C1595 0.950 . S
H1588 C1593 0.950 . S
H1589 C1594 0.949 . S
H1590 C1596 0.950 . S
H1591 C1597 0.950 . S
H1592 C1598 0.949 . S
C1593 H1588 0.950 . S
C1593 C1595 1.327 . S
C1593 C1599 1.429 . S
C1594 C1586 1.574 . S
C1594 H1589 0.949 . S
C1594 C1600 1.368 . S
C1595 C1579 1.349 . S
C1595 H1587 0.950 . S
C1595 C1593 1.327 . S
C1596 C1584 1.349 . S
C1596 H1590 0.950 . S
C1596 C1597 1.327 . S
C1597 H1591 0.950 . S
C1597 C1596 1.327 . S
C1597 C1601 1.429 . S
C1598 C1581 1.574 . S
C1598 H1592 0.949 . S
C1598 C1602 1.368 . S
C1599 C1580 1.429 . S
C1599 C1593 1.429 . S
C1599 C1600 1.523 . S
C1600 C1581 1.368 . S
C1600 C1594 1.368 . S
C1600 C1599 1.523 . S
C1601 C1585 1.429 . S
C1601 C1597 1.429 . S
C1601 C1602 1.523 . S
C1602 C1586 1.368 . S
C1602 C1598 1.368 . S
C1602 C1601 1.523 . S
H1603 C1578 0.950 . S
H1604 C1580 0.950 . S
H1605 C1581 0.949 . S
H1606 C1583 0.950 . S
H1607 C1585 0.950 . S
C1608 C1609 1.349 . S
C1608 C1610 1.327 . S
C1608 H1633 0.950 . S
C1609 C1608 1.349 . S
C1609 C1625 1.349 . S
C1610 C1608 1.327 . S
C1610 C1629 1.429 . S
C1610 H1634 0.950 . S
C1611 C1628 1.574 . S
C1611 C1630 1.368 . S
C1611 H1635 0.949 . S
H1612 C1616 0.949 . S
C1613 C1614 1.349 . S
C1613 C1615 1.327 . S
C1613 H1636 0.950 . S
C1614 C1613 1.349 . S
C1614 C1626 1.349 . S
C1615 C1613 1.327 . S
C1615 C1631 1.429 . S
C1615 H1637 0.950 . S
C1616 H1612 0.949 . S
C1616 C1624 1.574 . S
C1616 C1632 1.368 . S
H1617 C1625 0.950 . S
H1618 C1623 0.950 . S
H1619 C1624 0.949 . S
H1620 C1626 0.950 . S
H1621 C1627 0.950 . S
H1622 C1628 0.949 . S
C1623 H1618 0.950 . S
C1623 C1625 1.327 . S
C1623 C1629 1.429 . S
C1624 C1616 1.574 . S
C1624 H1619 0.949 . S
C1624 C1630 1.368 . S
C1625 C1609 1.349 . S
C1625 H1617 0.950 . S
C1625 C1623 1.327 . S
C1626 C1614 1.349 . S
C1626 H1620 0.950 . S
C1626 C1627 1.327 . S
C1627 H1621 0.950 . S
C1627 C1626 1.327 . S
C1627 C1631 1.429 . S
C1628 C1611 1.574 . S
C1628 H1622 0.949 . S
C1628 C1632 1.368 . S
C1629 C1610 1.429 . S
C1629 C1623 1.429 . S
C1629 C1630 1.523 . S
C1630 C1611 1.368 . S
C1630 C1624 1.368 . S
C1630 C1629 1.523 . S
C1631 C1615 1.429 . S
C1631 C1627 1.429 . S
C1631 C1632 1.523 . S
C1632 C1616 1.368 . S
C1632 C1628 1.368 . S
C1632 C1631 1.523 . S
H1633 C1608 0.950 . S
H1634 C1610 0.950 . S
H1635 C1611 0.949 . S
H1636 C1613 0.950 . S
H1637 C1615 0.950 . S
C1638 C1639 1.349 . S
C1638 C1640 1.327 . S
C1638 H1663 0.950 . S
C1639 C1638 1.349 . S
C1639 C1655 1.349 . S
C1640 C1638 1.327 . S
C1640 C1659 1.429 . S
C1640 H1664 0.950 . S
C1641 C1658 1.574 . S
C1641 C1660 1.368 . S
C1641 H1665 0.949 . S
H1642 C1646 0.949 . S
C1643 C1644 1.349 . S
C1643 C1645 1.327 . S
C1643 H1666 0.950 . S
C1644 C1643 1.349 . S
C1644 C1656 1.349 . S
C1645 C1643 1.327 . S
C1645 C1661 1.429 . S
C1645 H1667 0.950 . S
C1646 H1642 0.949 . S
C1646 C1654 1.574 . S
C1646 C1662 1.368 . S
H1647 C1655 0.950 . S
H1648 C1653 0.950 . S
H1649 C1654 0.949 . S
H1650 C1656 0.950 . S
H1651 C1657 0.950 . S
H1652 C1658 0.949 . S
C1653 H1648 0.950 . S
C1653 C1655 1.327 . S
C1653 C1659 1.429 . S
C1654 C1646 1.574 . S
C1654 H1649 0.949 . S
C1654 C1660 1.368 . S
C1655 C1639 1.349 . S
C1655 H1647 0.950 . S
C1655 C1653 1.327 . S
C1656 C1644 1.349 . S
C1656 H1650 0.950 . S
C1656 C1657 1.327 . S
C1657 H1651 0.950 . S
C1657 C1656 1.327 . S
C1657 C1661 1.429 . S
C1658 C1641 1.574 . S
C1658 H1652 0.949 . S
C1658 C1662 1.368 . S
C1659 C1640 1.429 . S
C1659 C1653 1.429 . S
C1659 C1660 1.523 . S
C1660 C1641 1.368 . S
C1660 C1654 1.368 . S
C1660 C1659 1.523 . S
C1661 C1645 1.429 . S
C1661 C1657 1.429 . S
C1661 C1662 1.523 . S
C1662 C1646 1.368 . S
C1662 C1658 1.368 . S
C1662 C1661 1.523 . S
H1663 C1638 0.950 . S
H1664 C1640 0.950 . S
H1665 C1641 0.949 . S
H1666 C1643 0.950 . S
H1667 C1645 0.950 . S
C1668 C1669 1.349 . S
C1668 C1670 1.327 . S
C1668 H1693 0.950 . S
C1669 C1668 1.349 . S
C1669 C1685 1.349 . S
C1670 C1668 1.327 . S
C1670 C1689 1.429 . S
C1670 H1694 0.950 . S
C1671 C1688 1.574 . S
C1671 C1690 1.368 . S
C1671 H1695 0.949 . S
H1672 C1676 0.949 . S
C1673 C1674 1.349 . S
C1673 C1675 1.327 . S
C1673 H1696 0.950 . S
C1674 C1673 1.349 . S
C1674 C1686 1.349 . S
C1675 C1673 1.327 . S
C1675 C1691 1.429 . S
C1675 H1697 0.950 . S
C1676 H1672 0.949 . S
C1676 C1684 1.574 . S
C1676 C1692 1.368 . S
H1677 C1685 0.950 . S
H1678 C1683 0.950 . S
H1679 C1684 0.949 . S
H1680 C1686 0.950 . S
H1681 C1687 0.950 . S
H1682 C1688 0.949 . S
C1683 H1678 0.950 . S
C1683 C1685 1.327 . S
C1683 C1689 1.429 . S
C1684 C1676 1.574 . S
C1684 H1679 0.949 . S
C1684 C1690 1.368 . S
C1685 C1669 1.349 . S
C1685 H1677 0.950 . S
C1685 C1683 1.327 . S
C1686 C1674 1.349 . S
C1686 H1680 0.950 . S
C1686 C1687 1.327 . S
C1687 H1681 0.950 . S
C1687 C1686 1.327 . S
C1687 C1691 1.429 . S
C1688 C1671 1.574 . S
C1688 H1682 0.949 . S
C1688 C1692 1.368 . S
C1689 C1670 1.429 . S
C1689 C1683 1.429 . S
C1689 C1690 1.523 . S
C1690 C1671 1.368 . S
C1690 C1684 1.368 . S
C1690 C1689 1.523 . S
C1691 C1675 1.429 . S
C1691 C1687 1.429 . S
C1691 C1692 1.523 . S
C1692 C1676 1.368 . S
C1692 C1688 1.368 . S
C1692 C1691 1.523 . S
H1693 C1668 0.950 . S
H1694 C1670 0.950 . S
H1695 C1671 0.949 . S
H1696 C1673 0.950 . S
H1697 C1675 0.950 . S
C1698 C1699 1.349 . S
C1698 C1700 1.327 . S
C1698 H1723 0.950 . S
C1699 C1698 1.349 . S
C1699 C1715 1.349 . S
C1700 C1698 1.327 . S
C1700 C1719 1.429 . S
C1700 H1724 0.950 . S
C1701 C1718 1.574 . S
C1701 C1720 1.368 . S
C1701 H1725 0.949 . S
H1702 C1706 0.949 . S
C1703 C1704 1.349 . S
C1703 C1705 1.327 . S
C1703 H1726 0.950 . S
C1704 C1703 1.349 . S
C1704 C1716 1.349 . S
C1705 C1703 1.327 . S
C1705 C1721 1.429 . S
C1705 H1727 0.950 . S
C1706 H1702 0.949 . S
C1706 C1714 1.574 . S
C1706 C1722 1.368 . S
H1707 C1715 0.950 . S
H1708 C1713 0.950 . S
H1709 C1714 0.949 . S
H1710 C1716 0.950 . S
H1711 C1717 0.950 . S
H1712 C1718 0.949 . S
C1713 H1708 0.950 . S
C1713 C1715 1.327 . S
C1713 C1719 1.429 . S
C1714 C1706 1.574 . S
C1714 H1709 0.949 . S
C1714 C1720 1.368 . S
C1715 C1699 1.349 . S
C1715 H1707 0.950 . S
C1715 C1713 1.327 . S
C1716 C1704 1.349 . S
C1716 H1710 0.950 . S
C1716 C1717 1.327 . S
C1717 H1711 0.950 . S
C1717 C1716 1.327 . S
C1717 C1721 1.429 . S
C1718 C1701 1.574 . S
C1718 H1712 0.949 . S
C1718 C1722 1.368 . S
C1719 C1700 1.429 . S
C1719 C1713 1.429 . S
C1719 C1720 1.523 . S
C1720 C1701 1.368 . S
C1720 C1714 1.368 . S
C1720 C1719 1.523 . S
C1721 C1705 1.429 . S
C1721 C1717 1.429 . S
C1721 C1722 1.523 . S
C1722 C1706 1.368 . S
C1722 C1718 1.368 . S
C1722 C1721 1.523 . S
H1723 C1698 0.950 . S
H1724 C1700 0.950 . S
H1725 C1701 0.949 . S
H1726 C1703 0.950 . S
H1727 C1705 0.950 . S
C1728 C1729 1.349 . S
C1728 C1730 1.327 . S
C1728 H1753 0.950 . S
C1729 C1728 1.349 . S
C1729 C1745 1.349 . S
C1730 C1728 1.327 . S
C1730 C1749 1.429 . S
C1730 H1754 0.950 . S
C1731 C1748 1.574 . S
C1731 C1750 1.368 . S
C1731 H1755 0.949 . S
H1732 C1736 0.949 . S
C1733 C1734 1.349 . S
C1733 C1735 1.327 . S
C1733 H1756 0.950 . S
C1734 C1733 1.349 . S
C1734 C1746 1.349 . S
C1735 C1733 1.327 . S
C1735 C1751 1.429 . S
C1735 H1757 0.950 . S
C1736 H1732 0.949 . S
C1736 C1744 1.574 . S
C1736 C1752 1.368 . S
H1737 C1745 0.950 . S
H1738 C1743 0.950 . S
H1739 C1744 0.949 . S
H1740 C1746 0.950 . S
H1741 C1747 0.950 . S
H1742 C1748 0.949 . S
C1743 H1738 0.950 . S
C1743 C1745 1.327 . S
C1743 C1749 1.429 . S
C1744 C1736 1.574 . S
C1744 H1739 0.949 . S
C1744 C1750 1.368 . S
C1745 C1729 1.349 . S
C1745 H1737 0.950 . S
C1745 C1743 1.327 . S
C1746 C1734 1.349 . S
C1746 H1740 0.950 . S
C1746 C1747 1.327 . S
C1747 H1741 0.950 . S
C1747 C1746 1.327 . S
C1747 C1751 1.429 . S
C1748 C1731 1.574 . S
C1748 H1742 0.949 . S
C1748 C1752 1.368 . S
C1749 C1730 1.429 . S
C1749 C1743 1.429 . S
C1749 C1750 1.523 . S
C1750 C1731 1.368 . S
C1750 C1744 1.368 . S
C1750 C1749 1.523 . S
C1751 C1735 1.429 . S
C1751 C1747 1.429 . S
C1751 C1752 1.523 . S
C1752 C1736 1.368 . S
C1752 C1748 1.368 . S
C1752 C1751 1.523 . S
H1753 C1728 0.950 . S
H1754 C1730 0.950 . S
H1755 C1731 0.949 . S
H1756 C1733 0.950 . S
H1757 C1735 0.950 . S
C1758 C1759 1.349 . S
C1758 C1760 1.327 . S
C1758 H1783 0.950 . S
C1759 C1758 1.349 . S
C1759 C1775 1.349 . S
C1760 C1758 1.327 . S
C1760 C1779 1.429 . S
C1760 H1784 0.950 . S
C1761 C1778 1.574 . S
C1761 C1780 1.368 . S
C1761 H1785 0.949 . S
H1762 C1766 0.949 . S
C1763 C1764 1.349 . S
C1763 C1765 1.327 . S
C1763 H1786 0.950 . S
C1764 C1763 1.349 . S
C1764 C1776 1.349 . S
C1765 C1763 1.327 . S
C1765 C1781 1.429 . S
C1765 H1787 0.950 . S
C1766 H1762 0.949 . S
C1766 C1774 1.574 . S
C1766 C1782 1.368 . S
H1767 C1775 0.950 . S
H1768 C1773 0.950 . S
H1769 C1774 0.949 . S
H1770 C1776 0.950 . S
H1771 C1777 0.950 . S
H1772 C1778 0.949 . S
C1773 H1768 0.950 . S
C1773 C1775 1.327 . S
C1773 C1779 1.429 . S
C1774 C1766 1.574 . S
C1774 H1769 0.949 . S
C1774 C1780 1.368 . S
C1775 C1759 1.349 . S
C1775 H1767 0.950 . S
C1775 C1773 1.327 . S
C1776 C1764 1.349 . S
C1776 H1770 0.950 . S
C1776 C1777 1.327 . S
C1777 H1771 0.950 . S
C1777 C1776 1.327 . S
C1777 C1781 1.429 . S
C1778 C1761 1.574 . S
C1778 H1772 0.949 . S
C1778 C1782 1.368 . S
C1779 C1760 1.429 . S
C1779 C1773 1.429 . S
C1779 C1780 1.523 . S
C1780 C1761 1.368 . S
C1780 C1774 1.368 . S
C1780 C1779 1.523 . S
C1781 C1765 1.429 . S
C1781 C1777 1.429 . S
C1781 C1782 1.523 . S
C1782 C1766 1.368 . S
C1782 C1778 1.368 . S
C1782 C1781 1.523 . S
H1783 C1758 0.950 . S
H1784 C1760 0.950 . S
H1785 C1761 0.949 . S
H1786 C1763 0.950 . S
H1787 C1765 0.950 . S
C1788 C1789 1.349 . S
C1788 C1790 1.327 . S
C1788 H1813 0.950 . S
C1789 C1788 1.349 . S
C1789 C1805 1.349 . S
C1790 C1788 1.327 . S
C1790 C1809 1.429 . S
C1790 H1814 0.950 . S
C1791 C1808 1.574 . S
C1791 C1810 1.368 . S
C1791 H1815 0.949 . S
H1792 C1796 0.949 . S
C1793 C1794 1.349 . S
C1793 C1795 1.327 . S
C1793 H1816 0.950 . S
C1794 C1793 1.349 . S
C1794 C1806 1.349 . S
C1795 C1793 1.327 . S
C1795 C1811 1.429 . S
C1795 H1817 0.950 . S
C1796 H1792 0.949 . S
C1796 C1804 1.574 . S
C1796 C1812 1.368 . S
H1797 C1805 0.950 . S
H1798 C1803 0.950 . S
H1799 C1804 0.949 . S
H1800 C1806 0.950 . S
H1801 C1807 0.950 . S
H1802 C1808 0.949 . S
C1803 H1798 0.950 . S
C1803 C1805 1.327 . S
C1803 C1809 1.429 . S
C1804 C1796 1.574 . S
C1804 H1799 0.949 . S
C1804 C1810 1.368 . S
C1805 C1789 1.349 . S
C1805 H1797 0.950 . S
C1805 C1803 1.327 . S
C1806 C1794 1.349 . S
C1806 H1800 0.950 . S
C1806 C1807 1.327 . S
C1807 H1801 0.950 . S
C1807 C1806 1.327 . S
C1807 C1811 1.429 . S
C1808 C1791 1.574 . S
C1808 H1802 0.949 . S
C1808 C1812 1.368 . S
C1809 C1790 1.429 . S
C1809 C1803 1.429 . S
C1809 C1810 1.523 . S
C1810 C1791 1.368 . S
C1810 C1804 1.368 . S
C1810 C1809 1.523 . S
C1811 C1795 1.429 . S
C1811 C1807 1.429 . S
C1811 C1812 1.523 . S
C1812 C1796 1.368 . S
C1812 C1808 1.368 . S
C1812 C1811 1.523 . S
H1813 C1788 0.950 . S
H1814 C1790 0.950 . S
H1815 C1791 0.949 . S
H1816 C1793 0.950 . S
H1817 C1795 0.950 . S
C1818 C1819 1.349 . S
C1818 C1820 1.327 . S
C1818 H1843 0.950 . S
C1819 C1818 1.349 . S
C1819 C1835 1.349 . S
C1820 C1818 1.327 . S
C1820 C1839 1.429 . S
C1820 H1844 0.950 . S
C1821 C1838 1.574 . S
C1821 C1840 1.368 . S
C1821 H1845 0.949 . S
H1822 C1826 0.949 . S
C1823 C1824 1.349 . S
C1823 C1825 1.327 . S
C1823 H1846 0.950 . S
C1824 C1823 1.349 . S
C1824 C1836 1.349 . S
C1825 C1823 1.327 . S
C1825 C1841 1.429 . S
C1825 H1847 0.950 . S
C1826 H1822 0.949 . S
C1826 C1834 1.574 . S
C1826 C1842 1.368 . S
H1827 C1835 0.950 . S
H1828 C1833 0.950 . S
H1829 C1834 0.949 . S
H1830 C1836 0.950 . S
H1831 C1837 0.950 . S
H1832 C1838 0.949 . S
C1833 H1828 0.950 . S
C1833 C1835 1.327 . S
C1833 C1839 1.429 . S
C1834 C1826 1.574 . S
C1834 H1829 0.949 . S
C1834 C1840 1.368 . S
C1835 C1819 1.349 . S
C1835 H1827 0.950 . S
C1835 C1833 1.327 . S
C1836 C1824 1.349 . S
C1836 H1830 0.950 . S
C1836 C1837 1.327 . S
C1837 H1831 0.950 . S
C1837 C1836 1.327 . S
C1837 C1841 1.429 . S
C1838 C1821 1.574 . S
C1838 H1832 0.949 . S
C1838 C1842 1.368 . S
C1839 C1820 1.429 . S
C1839 C1833 1.429 . S
C1839 C1840 1.523 . S
C1840 C1821 1.368 . S
C1840 C1834 1.368 . S
C1840 C1839 1.523 . S
C1841 C1825 1.429 . S
C1841 C1837 1.429 . S
C1841 C1842 1.523 . S
C1842 C1826 1.368 . S
C1842 C1838 1.368 . S
C1842 C1841 1.523 . S
H1843 C1818 0.950 . S
H1844 C1820 0.950 . S
H1845 C1821 0.949 . S
H1846 C1823 0.950 . S
H1847 C1825 0.950 . S
C1848 C1849 1.349 . S
C1848 C1850 1.327 . S
C1848 H1873 0.950 . S
C1849 C1848 1.349 . S
C1849 C1865 1.349 . S
C1850 C1848 1.327 . S
C1850 C1869 1.429 . S
C1850 H1874 0.950 . S
C1851 C1868 1.574 . S
C1851 C1870 1.368 . S
C1851 H1875 0.949 . S
H1852 C1856 0.949 . S
C1853 C1854 1.349 . S
C1853 C1855 1.327 . S
C1853 H1876 0.950 . S
C1854 C1853 1.349 . S
C1854 C1866 1.349 . S
C1855 C1853 1.327 . S
C1855 C1871 1.429 . S
C1855 H1877 0.950 . S
C1856 H1852 0.949 . S
C1856 C1864 1.574 . S
C1856 C1872 1.368 . S
H1857 C1865 0.950 . S
H1858 C1863 0.950 . S
H1859 C1864 0.949 . S
H1860 C1866 0.950 . S
H1861 C1867 0.950 . S
H1862 C1868 0.949 . S
C1863 H1858 0.950 . S
C1863 C1865 1.327 . S
C1863 C1869 1.429 . S
C1864 C1856 1.574 . S
C1864 H1859 0.949 . S
C1864 C1870 1.368 . S
C1865 C1849 1.349 . S
C1865 H1857 0.950 . S
C1865 C1863 1.327 . S
C1866 C1854 1.349 . S
C1866 H1860 0.950 . S
C1866 C1867 1.327 . S
C1867 H1861 0.950 . S
C1867 C1866 1.327 . S
C1867 C1871 1.429 . S
C1868 C1851 1.574 . S
C1868 H1862 0.949 . S
C1868 C1872 1.368 . S
C1869 C1850 1.429 . S
C1869 C1863 1.429 . S
C1869 C1870 1.523 . S
C1870 C1851 1.368 . S
C1870 C1864 1.368 . S
C1870 C1869 1.523 . S
C1871 C1855 1.429 . S
C1871 C1867 1.429 . S
C1871 C1872 1.523 . S
C1872 C1856 1.368 . S
C1872 C1868 1.368 . S
C1872 C1871 1.523 . S
H1873 C1848 0.950 . S
H1874 C1850 0.950 . S
H1875 C1851 0.949 . S
H1876 C1853 0.950 . S
H1877 C1855 0.950 . S
C1878 C1879 1.349 . S
C1878 C1880 1.327 . S
C1878 H1903 0.950 . S
C1879 C1878 1.349 . S
C1879 C1895 1.349 . S
C1880 C1878 1.327 . S
C1880 C1899 1.429 . S
C1880 H1904 0.950 . S
C1881 C1898 1.574 . S
C1881 C1900 1.368 . S
C1881 H1905 0.949 . S
H1882 C1886 0.949 . S
C1883 C1884 1.349 . S
C1883 C1885 1.327 . S
C1883 H1906 0.950 . S
C1884 C1883 1.349 . S
C1884 C1896 1.349 . S
C1885 C1883 1.327 . S
C1885 C1901 1.429 . S
C1885 H1907 0.950 . S
C1886 H1882 0.949 . S
C1886 C1894 1.574 . S
C1886 C1902 1.368 . S
H1887 C1895 0.950 . S
H1888 C1893 0.950 . S
H1889 C1894 0.949 . S
H1890 C1896 0.950 . S
H1891 C1897 0.950 . S
H1892 C1898 0.949 . S
C1893 H1888 0.950 . S
C1893 C1895 1.327 . S
C1893 C1899 1.429 . S
C1894 C1886 1.574 . S
C1894 H1889 0.949 . S
C1894 C1900 1.368 . S
C1895 C1879 1.349 . S
C1895 H1887 0.950 . S
C1895 C1893 1.327 . S
C1896 C1884 1.349 . S
C1896 H1890 0.950 . S
C1896 C1897 1.327 . S
C1897 H1891 0.950 . S
C1897 C1896 1.327 . S
C1897 C1901 1.429 . S
C1898 C1881 1.574 . S
C1898 H1892 0.949 . S
C1898 C1902 1.368 . S
C1899 C1880 1.429 . S
C1899 C1893 1.429 . S
C1899 C1900 1.523 . S
C1900 C1881 1.368 . S
C1900 C1894 1.368 . S
C1900 C1899 1.523 . S
C1901 C1885 1.429 . S
C1901 C1897 1.429 . S
C1901 C1902 1.523 . S
C1902 C1886 1.368 . S
C1902 C1898 1.368 . S
C1902 C1901 1.523 . S
H1903 C1878 0.950 . S
H1904 C1880 0.950 . S
H1905 C1881 0.949 . S
H1906 C1883 0.950 . S
H1907 C1885 0.950 . S
C1908 C1909 1.349 . S
C1908 C1910 1.327 . S
C1908 H1933 0.950 . S
C1909 C1908 1.349 . S
C1909 C1925 1.349 . S
C1910 C1908 1.327 . S
C1910 C1929 1.429 . S
C1910 H1934 0.950 . S
C1911 C1928 1.574 . S
C1911 C1930 1.368 . S
C1911 H1935 0.949 . S
H1912 C1916 0.949 . S
C1913 C1914 1.349 . S
C1913 C1915 1.327 . S
C1913 H1936 0.950 . S
C1914 C1913 1.349 . S
C1914 C1926 1.349 . S
C1915 C1913 1.327 . S
C1915 C1931 1.429 . S
C1915 H1937 0.950 . S
C1916 H1912 0.949 . S
C1916 C1924 1.574 . S
C1916 C1932 1.368 . S
H1917 C1925 0.950 . S
H1918 C1923 0.950 . S
H1919 C1924 0.949 . S
H1920 C1926 0.950 . S
H1921 C1927 0.950 . S
H1922 C1928 0.949 . S
C1923 H1918 0.950 . S
C1923 C1925 1.327 . S
C1923 C1929 1.429 . S
C1924 C1916 1.574 . S
C1924 H1919 0.949 . S
C1924 C1930 1.368 . S
C1925 C1909 1.349 . S
C1925 H1917 0.950 . S
C1925 C1923 1.327 . S
C1926 C1914 1.349 . S
C1926 H1920 0.950 . S
C1926 C1927 1.327 . S
C1927 H1921 0.950 . S
C1927 C1926 1.327 . S
C1927 C1931 1.429 . S
C1928 C1911 1.574 . S
C1928 H1922 0.949 . S
C1928 C1932 1.368 . S
C1929 C1910 1.429 . S
C1929 C1923 1.429 . S
C1929 C1930 1.523 . S
C1930 C1911 1.368 . S
C1930 C1924 1.368 . S
C1930 C1929 1.523 . S
C1931 C1915 1.429 . S
C1931 C1927 1.429 . S
C1931 C1932 1.523 . S
C1932 C1916 1.368 . S
C1932 C1928 1.368 . S
C1932 C1931 1.523 . S
H1933 C1908 0.950 . S
H1934 C1910 0.950 . S
H1935 C1911 0.949 . S
H1936 C1913 0.950 . S
H1937 C1915 0.950 . S
C1938 C1939 1.349 . S
C1938 C1940 1.327 . S
C1938 H1963 0.950 . S
C1939 C1938 1.349 . S
C1939 C1955 1.349 . S
C1940 C1938 1.327 . S
C1940 C1959 1.429 . S
C1940 H1964 0.950 . S
C1941 C1958 1.574 . S
C1941 C1960 1.368 . S
C1941 H1965 0.949 . S
H1942 C1946 0.949 . S
C1943 C1944 1.349 . S
C1943 C1945 1.327 . S
C1943 H1966 0.950 . S
C1944 C1943 1.349 . S
C1944 C1956 1.349 . S
C1945 C1943 1.327 . S
C1945 C1961 1.429 . S
C1945 H1967 0.950 . S
C1946 H1942 0.949 . S
C1946 C1954 1.574 . S
C1946 C1962 1.368 . S
H1947 C1955 0.950 . S
H1948 C1953 0.950 . S
H1949 C1954 0.949 . S
H1950 C1956 0.950 . S
H1951 C1957 0.950 . S
H1952 C1958 0.949 . S
C1953 H1948 0.950 . S
C1953 C1955 1.327 . S
C1953 C1959 1.429 . S
C1954 C1946 1.574 . S
C1954 H1949 0.949 . S
C1954 C1960 1.368 . S
C1955 C1939 1.349 . S
C1955 H1947 0.950 . S
C1955 C1953 1.327 . S
C1956 C1944 1.349 . S
C1956 H1950 0.950 . S
C1956 C1957 1.327 . S
C1957 H1951 0.950 . S
C1957 C1956 1.327 . S
C1957 C1961 1.429 . S
C1958 C1941 1.574 . S
C1958 H1952 0.949 . S
C1958 C1962 1.368 . S
C1959 C1940 1.429 . S
C1959 C1953 1.429 . S
C1959 C1960 1.523 . S
C1960 C1941 1.368 . S
C1960 C1954 1.368 . S
C1960 C1959 1.523 . S
C1961 C1945 1.429 . S
C1961 C1957 1.429 . S
C1961 C1962 1.523 . S
C1962 C1946 1.368 . S
C1962 C1958 1.368 . S
C1962 C1961 1.523 . S
H1963 C1938 0.950 . S
H1964 C1940 0.950 . S
H1965 C1941 0.949 . S
H1966 C1943 0.950 . S
H1967 C1945 0.950 . S
C1968 C1969 1.349 . S
C1968 C1970 1.327 . S
C1968 H1993 0.950 . S
C1969 C1968 1.349 . S
C1969 C1985 1.349 . S
C1970 C1968 1.327 . S
C1970 C1989 1.429 . S
C1970 H1994 0.950 . S
C1971 C1988 1.574 . S
C1971 C1990 1.368 . S
C1971 H1995 0.949 . S
H1972 C1976 0.949 . S
C1973 C1974 1.349 . S
C1973 C1975 1.327 . S
C1973 H1996 0.950 . S
C1974 C1973 1.349 . S
C1974 C1986 1.349 . S
C1975 C1973 1.327 . S
C1975 C1991 1.429 . S
C1975 H1997 0.950 . S
C1976 H1972 0.949 . S
C1976 C1984 1.574 . S
C1976 C1992 1.368 . S
H1977 C1985 0.950 . S
H1978 C1983 0.950 . S
H1979 C1984 0.949 . S
H1980 C1986 0.950 . S
H1981 C1987 0.950 . S
H1982 C1988 0.949 . S
C1983 H1978 0.950 . S
C1983 C1985 1.327 . S
C1983 C1989 1.429 . S
C1984 C1976 1.574 . S
C1984 H1979 0.949 . S
C1984 C1990 1.368 . S
C1985 C1969 1.349 . S
C1985 H1977 0.950 . S
C1985 C1983 1.327 . S
C1986 C1974 1.349 . S
C1986 H1980 0.950 . S
C1986 C1987 1.327 . S
C1987 H1981 0.950 . S
C1987 C1986 1.327 . S
C1987 C1991 1.429 . S
C1988 C1971 1.574 . S
C1988 H1982 0.949 . S
C1988 C1992 1.368 . S
C1989 C1970 1.429 . S
C1989 C1983 1.429 . S
C1989 C1990 1.523 . S
C1990 C1971 1.368 . S
C1990 C1984 1.368 . S
C1990 C1989 1.523 . S
C1991 C1975 1.429 . S
C1991 C1987 1.429 . S
C1991 C1992 1.523 . S
C1992 C1976 1.368 . S
C1992 C1988 1.368 . S
C1992 C1991 1.523 . S
H1993 C1968 0.950 . S
H1994 C1970 0.950 . S
H1995 C1971 0.949 . S
H1996 C1973 0.950 . S
H1997 C1975 0.950 . S
C1998 C1999 1.349 . S
C1998 C2000 1.327 . S
C1998 H2023 0.950 . S
C1999 C1998 1.349 . S
C1999 C2015 1.349 . S
C2000 C1998 1.327 . S
C2000 C2019 1.429 . S
C2000 H2024 0.950 . S
C2001 C2018 1.574 . S
C2001 C2020 1.368 . S
C2001 H2025 0.949 . S
H2002 C2006 0.949 . S
C2003 C2004 1.349 . S
C2003 C2005 1.327 . S
C2003 H2026 0.950 . S
C2004 C2003 1.349 . S
C2004 C2016 1.349 . S
C2005 C2003 1.327 . S
C2005 C2021 1.429 . S
C2005 H2027 0.950 . S
C2006 H2002 0.949 . S
C2006 C2014 1.574 . S
C2006 C2022 1.368 . S
H2007 C2015 0.950 . S
H2008 C2013 0.950 . S
H2009 C2014 0.949 . S
H2010 C2016 0.950 . S
H2011 C2017 0.950 . S
H2012 C2018 0.949 . S
C2013 H2008 0.950 . S
C2013 C2015 1.327 . S
C2013 C2019 1.429 . S
C2014 C2006 1.574 . S
C2014 H2009 0.949 . S
C2014 C2020 1.368 . S
C2015 C1999 1.349 . S
C2015 H2007 0.950 . S
C2015 C2013 1.327 . S
C2016 C2004 1.349 . S
C2016 H2010 0.950 . S
C2016 C2017 1.327 . S
C2017 H2011 0.950 . S
C2017 C2016 1.327 . S
C2017 C2021 1.429 . S
C2018 C2001 1.574 . S
C2018 H2012 0.949 . S
C2018 C2022 1.368 . S
C2019 C2000 1.429 . S
C2019 C2013 1.429 . S
C2019 C2020 1.523 . S
C2020 C2001 1.368 . S
C2020 C2014 1.368 . S
C2020 C2019 1.523 . S
C2021 C2005 1.429 . S
C2021 C2017 1.429 . S
C2021 C2022 1.523 . S
C2022 C2006 1.368 . S
C2022 C2018 1.368 . S
C2022 C2021 1.523 . S
H2023 C1998 0.950 . S
H2024 C2000 0.950 . S
H2025 C2001 0.949 . S
H2026 C2003 0.950 . S
H2027 C2005 0.950 . S
C2028 C2029 1.349 . S
C2028 C2030 1.327 . S
C2028 H2053 0.950 . S
C2029 C2028 1.349 . S
C2029 C2045 1.349 . S
C2030 C2028 1.327 . S
C2030 C2049 1.429 . S
C2030 H2054 0.950 . S
C2031 C2048 1.574 . S
C2031 C2050 1.368 . S
C2031 H2055 0.949 . S
H2032 C2036 0.949 . S
C2033 C2034 1.349 . S
C2033 C2035 1.327 . S
C2033 H2056 0.950 . S
C2034 C2033 1.349 . S
C2034 C2046 1.349 . S
C2035 C2033 1.327 . S
C2035 C2051 1.429 . S
C2035 H2057 0.950 . S
C2036 H2032 0.949 . S
C2036 C2044 1.574 . S
C2036 C2052 1.368 . S
H2037 C2045 0.950 . S
H2038 C2043 0.950 . S
H2039 C2044 0.949 . S
H2040 C2046 0.950 . S
H2041 C2047 0.950 . S
H2042 C2048 0.949 . S
C2043 H2038 0.950 . S
C2043 C2045 1.327 . S
C2043 C2049 1.429 . S
C2044 C2036 1.574 . S
C2044 H2039 0.949 . S
C2044 C2050 1.368 . S
C2045 C2029 1.349 . S
C2045 H2037 0.950 . S
C2045 C2043 1.327 . S
C2046 C2034 1.349 . S
C2046 H2040 0.950 . S
C2046 C2047 1.327 . S
C2047 H2041 0.950 . S
C2047 C2046 1.327 . S
C2047 C2051 1.429 . S
C2048 C2031 1.574 . S
C2048 H2042 0.949 . S
C2048 C2052 1.368 . S
C2049 C2030 1.429 . S
C2049 C2043 1.429 . S
C2049 C2050 1.523 . S
C2050 C2031 1.368 . S
C2050 C2044 1.368 . S
C2050 C2049 1.523 . S
C2051 C2035 1.429 . S
C2051 C2047 1.429 . S
C2051 C2052 1.523 . S
C2052 C2036 1.368 . S
C2052 C2048 1.368 . S
C2052 C2051 1.523 . S
H2053 C2028 0.950 . S
H2054 C2030 0.950 . S
H2055 C2031 0.949 . S
H2056 C2033 0.950 . S
H2057 C2035 0.950 . S
C2058 C2059 1.349 . S
C2058 C2060 1.327 . S
C2058 H2083 0.950 . S
C2059 C2058 1.349 . S
C2059 C2075 1.349 . S
C2060 C2058 1.327 . S
C2060 C2079 1.429 . S
C2060 H2084 0.950 . S
C2061 C2078 1.574 . S
C2061 C2080 1.368 . S
C2061 H2085 0.949 . S
H2062 C2066 0.949 . S
C2063 C2064 1.349 . S
C2063 C2065 1.327 . S
C2063 H2086 0.950 . S
C2064 C2063 1.349 . S
C2064 C2076 1.349 . S
C2065 C2063 1.327 . S
C2065 C2081 1.429 . S
C2065 H2087 0.950 . S
C2066 H2062 0.949 . S
C2066 C2074 1.574 . S
C2066 C2082 1.368 . S
H2067 C2075 0.950 . S
H2068 C2073 0.950 . S
H2069 C2074 0.949 . S
H2070 C2076 0.950 . S
H2071 C2077 0.950 . S
H2072 C2078 0.949 . S
C2073 H2068 0.950 . S
C2073 C2075 1.327 . S
C2073 C2079 1.429 . S
C2074 C2066 1.574 . S
C2074 H2069 0.949 . S
C2074 C2080 1.368 . S
C2075 C2059 1.349 . S
C2075 H2067 0.950 . S
C2075 C2073 1.327 . S
C2076 C2064 1.349 . S
C2076 H2070 0.950 . S
C2076 C2077 1.327 . S
C2077 H2071 0.950 . S
C2077 C2076 1.327 . S
C2077 C2081 1.429 . S
C2078 C2061 1.574 . S
C2078 H2072 0.949 . S
C2078 C2082 1.368 . S
C2079 C2060 1.429 . S
C2079 C2073 1.429 . S
C2079 C2080 1.523 . S
C2080 C2061 1.368 . S
C2080 C2074 1.368 . S
C2080 C2079 1.523 . S
C2081 C2065 1.429 . S
C2081 C2077 1.429 . S
C2081 C2082 1.523 . S
C2082 C2066 1.368 . S
C2082 C2078 1.368 . S
C2082 C2081 1.523 . S
H2083 C2058 0.950 . S
H2084 C2060 0.950 . S
H2085 C2061 0.949 . S
H2086 C2063 0.950 . S
H2087 C2065 0.950 . S
C2088 C2089 1.349 . S
C2088 C2090 1.327 . S
C2088 H2113 0.950 . S
C2089 C2088 1.349 . S
C2089 C2105 1.349 . S
C2090 C2088 1.327 . S
C2090 C2109 1.429 . S
C2090 H2114 0.950 . S
C2091 C2108 1.574 . S
C2091 C2110 1.368 . S
C2091 H2115 0.949 . S
H2092 C2096 0.949 . S
C2093 C2094 1.349 . S
C2093 C2095 1.327 . S
C2093 H2116 0.950 . S
C2094 C2093 1.349 . S
C2094 C2106 1.349 . S
C2095 C2093 1.327 . S
C2095 C2111 1.429 . S
C2095 H2117 0.950 . S
C2096 H2092 0.949 . S
C2096 C2104 1.574 . S
C2096 C2112 1.368 . S
H2097 C2105 0.950 . S
H2098 C2103 0.950 . S
H2099 C2104 0.949 . S
H2100 C2106 0.950 . S
H2101 C2107 0.950 . S
H2102 C2108 0.949 . S
C2103 H2098 0.950 . S
C2103 C2105 1.327 . S
C2103 C2109 1.429 . S
C2104 C2096 1.574 . S
C2104 H2099 0.949 . S
C2104 C2110 1.368 . S
C2105 C2089 1.349 . S
C2105 H2097 0.950 . S
C2105 C2103 1.327 . S
C2106 C2094 1.349 . S
C2106 H2100 0.950 . S
C2106 C2107 1.327 . S
C2107 H2101 0.950 . S
C2107 C2106 1.327 . S
C2107 C2111 1.429 . S
C2108 C2091 1.574 . S
C2108 H2102 0.949 . S
C2108 C2112 1.368 . S
C2109 C2090 1.429 . S
C2109 C2103 1.429 . S
C2109 C2110 1.523 . S
C2110 C2091 1.368 . S
C2110 C2104 1.368 . S
C2110 C2109 1.523 . S
C2111 C2095 1.429 . S
C2111 C2107 1.429 . S
C2111 C2112 1.523 . S
C2112 C2096 1.368 . S
C2112 C2108 1.368 . S
C2112 C2111 1.523 . S
H2113 C2088 0.950 . S
H2114 C2090 0.950 . S
H2115 C2091 0.949 . S
H2116 C2093 0.950 . S
H2117 C2095 0.950 . S
C2118 C2119 1.349 . S
C2118 C2120 1.327 . S
C2118 H2143 0.950 . S
C2119 C2118 1.349 . S
C2119 C2135 1.349 . S
C2120 C2118 1.327 . S
C2120 C2139 1.429 . S
C2120 H2144 0.950 . S
C2121 C2138 1.574 . S
C2121 C2140 1.368 . S
C2121 H2145 0.949 . S
H2122 C2126 0.949 . S
C2123 C2124 1.349 . S
C2123 C2125 1.327 . S
C2123 H2146 0.950 . S
C2124 C2123 1.349 . S
C2124 C2136 1.349 . S
C2125 C2123 1.327 . S
C2125 C2141 1.429 . S
C2125 H2147 0.950 . S
C2126 H2122 0.949 . S
C2126 C2134 1.574 . S
C2126 C2142 1.368 . S
H2127 C2135 0.950 . S
H2128 C2133 0.950 . S
H2129 C2134 0.949 . S
H2130 C2136 0.950 . S
H2131 C2137 0.950 . S
H2132 C2138 0.949 . S
C2133 H2128 0.950 . S
C2133 C2135 1.327 . S
C2133 C2139 1.429 . S
C2134 C2126 1.574 . S
C2134 H2129 0.949 . S
C2134 C2140 1.368 . S
C2135 C2119 1.349 . S
C2135 H2127 0.950 . S
C2135 C2133 1.327 . S
C2136 C2124 1.349 . S
C2136 H2130 0.950 . S
C2136 C2137 1.327 . S
C2137 H2131 0.950 . S
C2137 C2136 1.327 . S
C2137 C2141 1.429 . S
C2138 C2121 1.574 . S
C2138 H2132 0.949 . S
C2138 C2142 1.368 . S
C2139 C2120 1.429 . S
C2139 C2133 1.429 . S
C2139 C2140 1.523 . S
C2140 C2121 1.368 . S
C2140 C2134 1.368 . S
C2140 C2139 1.523 . S
C2141 C2125 1.429 . S
C2141 C2137 1.429 . S
C2141 C2142 1.523 . S
C2142 C2126 1.368 . S
C2142 C2138 1.368 . S
C2142 C2141 1.523 . S
H2143 C2118 0.950 . S
H2144 C2120 0.950 . S
H2145 C2121 0.949 . S
H2146 C2123 0.950 . S
H2147 C2125 0.950 . S
C2148 C2149 1.349 . S
C2148 C2150 1.327 . S
C2148 H2173 0.950 . S
C2149 C2148 1.349 . S
C2149 C2165 1.349 . S
C2150 C2148 1.327 . S
C2150 C2169 1.429 . S
C2150 H2174 0.950 . S
C2151 C2168 1.574 . S
C2151 C2170 1.368 . S
C2151 H2175 0.949 . S
H2152 C2156 0.949 . S
C2153 C2154 1.349 . S
C2153 C2155 1.327 . S
C2153 H2176 0.950 . S
C2154 C2153 1.349 . S
C2154 C2166 1.349 . S
C2155 C2153 1.327 . S
C2155 C2171 1.429 . S
C2155 H2177 0.950 . S
C2156 H2152 0.949 . S
C2156 C2164 1.574 . S
C2156 C2172 1.368 . S
H2157 C2165 0.950 . S
H2158 C2163 0.950 . S
H2159 C2164 0.949 . S
H2160 C2166 0.950 . S
H2161 C2167 0.950 . S
H2162 C2168 0.949 . S
C2163 H2158 0.950 . S
C2163 C2165 1.327 . S
C2163 C2169 1.429 . S
C2164 C2156 1.574 . S
C2164 H2159 0.949 . S
C2164 C2170 1.368 . S
C2165 C2149 1.349 . S
C2165 H2157 0.950 . S
C2165 C2163 1.327 . S
C2166 C2154 1.349 . S
C2166 H2160 0.950 . S
C2166 C2167 1.327 . S
C2167 H2161 0.950 . S
C2167 C2166 1.327 . S
C2167 C2171 1.429 . S
C2168 C2151 1.574 . S
C2168 H2162 0.949 . S
C2168 C2172 1.368 . S
C2169 C2150 1.429 . S
C2169 C2163 1.429 . S
C2169 C2170 1.523 . S
C2170 C2151 1.368 . S
C2170 C2164 1.368 . S
C2170 C2169 1.523 . S
C2171 C2155 1.429 . S
C2171 C2167 1.429 . S
C2171 C2172 1.523 . S
C2172 C2156 1.368 . S
C2172 C2168 1.368 . S
C2172 C2171 1.523 . S
H2173 C2148 0.950 . S
H2174 C2150 0.950 . S
H2175 C2151 0.949 . S
H2176 C2153 0.950 . S
H2177 C2155 0.950 . S
C559 C151 1.279 . S
C564 C210 1.312 . S
C589 C159 2.004 . S
C594 C250 2.179 . S
C619 C137 1.558 . S
C624 C280 1.654 . S
C649 C126 1.365 . S
C654 C240 1.451 1_556 S
C684 C290 1.901 . S
C679 C104 1.748 . S
C709 C118 1.004 . S
C714 C200 1.024 . S
C744 C229 1.633 . S
C739 C129 1.638 . S
C774 C269 1.865 . S
C769 C107 1.847 . S
C799 C115 1.330 . S
C804 C295 1.661 1_556 S
C829 C148 1.191 . S
C834 C255 1.447 . S
C859 C162 1.562 . S
C864 C309 1.561 . S
C894 C215 1.360 . S
C889 C140 1.373 . S
C924 C330 1.313 . S
C919 C19 1.280 . S
C949 C27 2.004 . S
C954 C370 2.179 . S
C979 C5 1.558 . S
C984 C400 1.655 . S
C1009 C192 1.365 . S
C1014 C360 1.465 . S
C1039 C170 1.748 . S
C1044 C410 1.901 . S
C1069 C184 1.005 . S
C1074 C320 1.024 . S
C1099 C195 1.637 . S
C1104 C349 1.633 . S
C1129 C173 1.846 . S
C1134 C389 1.844 . S
C1164 C415 1.662 . S
C1159 C181 1.330 . S
C1189 C16 1.190 . S
C1194 C375 1.445 . S
C1224 C429 1.561 . S
C1219 C30 1.562 . S
C1249 C8 1.373 . S
C1254 C335 1.360 . S
C1284 C450 1.312 . S
C1279 C85 1.279 . S
C1309 C93 2.004 . S
C1314 C490 2.179 . S
C1344 C520 1.655 . S
C1339 C71 1.558 . S
C1374 C480 1.463 . S
C1369 C60 1.364 . S
C1404 C530 1.901 . S
C1399 C38 1.748 . S
C1429 C52 1.005 . S
C1434 C440 1.024 . S
C1459 C63 1.638 . S
C1464 C469 1.634 . S
C1489 C41 1.847 . S
C1494 C509 1.845 . S
C1524 C535 1.662 . S
C1519 C49 1.330 . S
C1549 C82 1.190 . S
C1554 C495 1.447 . S
C1579 C96 1.562 . S
C1584 C549 1.561 . S
C1609 C74 1.373 . S
C1614 C455 1.360 . S
C1639 C172 1.468 . S
C1644 C227 1.497 . S
C1674 C267 1.653 . S
C1669 C183 1.570 . S
C1699 C194 1.536 . S
C1704 C286 1.551 . S
C1729 C73 1.858 . S
C1734 C246 1.865 . S
C1759 C84 1.254 . S
C1764 C307 1.309 . S
C1794 C206 1.434 . S
C1789 C95 1.397 . S
C1819 C40 1.469 . S
C1824 C347 1.498 . S
C1849 C51 1.571 . S
C1854 C387 1.653 . S
C1879 C62 1.536 . S
C1884 C406 1.551 . S
C1909 C139 1.857 . S
C1914 C366 1.864 . S
C1944 C427 1.309 . S
C1939 C150 1.254 . S
C1969 C161 1.397 . S
C1974 C326 1.434 . S
C1999 C106 1.468 . S
C2004 C467 1.497 . S
C2029 C117 1.570 . S
C2034 C507 1.652 . S
C2064 C526 1.552 . S
C2059 C128 1.537 . S
C2089 C7 1.858 . S
C2094 C486 1.865 . S
C2119 C18 1.254 . S
C2124 C547 1.308 . S
C2149 C29 1.397 . S
C2154 C446 1.434 . S
