# Generated by pormake.
# Topology ocu, (6,8)-cn, num edge types: 1
# Building blocks:
#     Node 0, Type 0, BuildingBlock: HISSIN_clean_sbu_0, # of connection points: 6
#     Node 1, Type 0, BuildingBlock: HISSIN_clean_sbu_0, # of connection points: 6
#     Node 2, Type 0, BuildingBlock: HISSIN_clean_sbu_0, # of connection points: 6
#     Node 3, Type 0, BuildingBlock: HISSIN_clean_sbu_0, # of connection points: 6
#     Node 4, Type 0, BuildingBlock: HISSIN_clean_sbu_0, # of connection points: 6
#     Node 5, Type 0, BuildingBlock: HISSIN_clean_sbu_0, # of connection points: 6
#     Node 6, Type 0, BuildingBlock: HISSIN_clean_sbu_0, # of connection points: 6
#     Node 7, Type 0, BuildingBlock: HISSIN_clean_sbu_0, # of connection points: 6
#     Node 8, Type 1, BuildingBlock: VETTIZ_charged_sbu_0, # of connection points: 8
#     Node 9, Type 1, BuildingBlock: VETTIZ_charged_sbu_0, # of connection points: 8
#     Node 10, Type 1, BuildingBlock: VETTIZ_charged_sbu_0, # of connection points: 8
#     Node 11, Type 1, BuildingBlock: VETTIZ_charged_sbu_0, # of connection points: 8
#     Node 12, Type 1, BuildingBlock: VETTIZ_charged_sbu_0, # of connection points: 8
#     Node 13, Type 1, BuildingBlock: VETTIZ_charged_sbu_0, # of connection points: 8
#     Edge 14, Type (0, 1), BuildingBlock: OJICUG_clean_linker_0, # of connection points: 2
#     Edge 15, Type (0, 1), BuildingBlock: OJICUG_clean_linker_0, # of connection points: 2
#     Edge 16, Type (0, 1), BuildingBlock: OJICUG_clean_linker_0, # of connection points: 2
#     Edge 17, Type (0, 1), BuildingBlock: OJICUG_clean_linker_0, # of connection points: 2
#     Edge 18, Type (0, 1), BuildingBlock: OJICUG_clean_linker_0, # of connection points: 2
#     Edge 19, Type (0, 1), BuildingBlock: OJICUG_clean_linker_0, # of connection points: 2
#     Edge 20, Type (0, 1), BuildingBlock: OJICUG_clean_linker_0, # of connection points: 2
#     Edge 21, Type (0, 1), BuildingBlock: OJICUG_clean_linker_0, # of connection points: 2
#     Edge 22, Type (0, 1), BuildingBlock: OJICUG_clean_linker_0, # of connection points: 2
#     Edge 23, Type (0, 1), BuildingBlock: OJICUG_clean_linker_0, # of connection points: 2
#     Edge 24, Type (0, 1), BuildingBlock: OJICUG_clean_linker_0, # of connection points: 2
#     Edge 25, Type (0, 1), BuildingBlock: OJICUG_clean_linker_0, # of connection points: 2
#     Edge 26, Type (0, 1), BuildingBlock: OJICUG_clean_linker_0, # of connection points: 2
#     Edge 27, Type (0, 1), BuildingBlock: OJICUG_clean_linker_0, # of connection points: 2
#     Edge 28, Type (0, 1), BuildingBlock: OJICUG_clean_linker_0, # of connection points: 2
#     Edge 29, Type (0, 1), BuildingBlock: OJICUG_clean_linker_0, # of connection points: 2
#     Edge 30, Type (0, 1), BuildingBlock: OJICUG_clean_linker_0, # of connection points: 2
#     Edge 31, Type (0, 1), BuildingBlock: OJICUG_clean_linker_0, # of connection points: 2
#     Edge 32, Type (0, 1), BuildingBlock: OJICUG_clean_linker_0, # of connection points: 2
#     Edge 33, Type (0, 1), BuildingBlock: OJICUG_clean_linker_0, # of connection points: 2
#     Edge 34, Type (0, 1), BuildingBlock: OJICUG_clean_linker_0, # of connection points: 2
#     Edge 35, Type (0, 1), BuildingBlock: OJICUG_clean_linker_0, # of connection points: 2
#     Edge 36, Type (0, 1), BuildingBlock: OJICUG_clean_linker_0, # of connection points: 2
#     Edge 37, Type (0, 1), BuildingBlock: OJICUG_clean_linker_0, # of connection points: 2
#     Edge 38, Type (0, 1), BuildingBlock: OJICUG_clean_linker_0, # of connection points: 2
#     Edge 39, Type (0, 1), BuildingBlock: OJICUG_clean_linker_0, # of connection points: 2
#     Edge 40, Type (0, 1), BuildingBlock: OJICUG_clean_linker_0, # of connection points: 2
#     Edge 41, Type (0, 1), BuildingBlock: OJICUG_clean_linker_0, # of connection points: 2
#     Edge 42, Type (0, 1), BuildingBlock: OJICUG_clean_linker_0, # of connection points: 2
#     Edge 43, Type (0, 1), BuildingBlock: OJICUG_clean_linker_0, # of connection points: 2
#     Edge 44, Type (0, 1), BuildingBlock: OJICUG_clean_linker_0, # of connection points: 2
#     Edge 45, Type (0, 1), BuildingBlock: OJICUG_clean_linker_0, # of connection points: 2
#     Edge 46, Type (0, 1), BuildingBlock: OJICUG_clean_linker_0, # of connection points: 2
#     Edge 47, Type (0, 1), BuildingBlock: OJICUG_clean_linker_0, # of connection points: 2
#     Edge 48, Type (0, 1), BuildingBlock: OJICUG_clean_linker_0, # of connection points: 2
#     Edge 49, Type (0, 1), BuildingBlock: OJICUG_clean_linker_0, # of connection points: 2
#     Edge 50, Type (0, 1), BuildingBlock: OJICUG_clean_linker_0, # of connection points: 2
#     Edge 51, Type (0, 1), BuildingBlock: OJICUG_clean_linker_0, # of connection points: 2
#     Edge 52, Type (0, 1), BuildingBlock: OJICUG_clean_linker_0, # of connection points: 2
#     Edge 53, Type (0, 1), BuildingBlock: OJICUG_clean_linker_0, # of connection points: 2
#     Edge 54, Type (0, 1), BuildingBlock: OJICUG_clean_linker_0, # of connection points: 2
#     Edge 55, Type (0, 1), BuildingBlock: OJICUG_clean_linker_0, # of connection points: 2
#     Edge 56, Type (0, 1), BuildingBlock: OJICUG_clean_linker_0, # of connection points: 2
#     Edge 57, Type (0, 1), BuildingBlock: OJICUG_clean_linker_0, # of connection points: 2
#     Edge 58, Type (0, 1), BuildingBlock: OJICUG_clean_linker_0, # of connection points: 2
#     Edge 59, Type (0, 1), BuildingBlock: OJICUG_clean_linker_0, # of connection points: 2
#     Edge 60, Type (0, 1), BuildingBlock: OJICUG_clean_linker_0, # of connection points: 2
#     Edge 61, Type (0, 1), BuildingBlock: OJICUG_clean_linker_0, # of connection points: 2
# Relax obj value: 0.152
# Max RMSD: 0.187
# Mean RMSD: 0.140
data_MOF--net-ocu--node1-HISSIN_clean_sbu_0--node2-VETTIZ_charged_sbu_0--edge1-OJICUG_clean_linker_0
_symmetry_space_group_name_H-M    P1
_symmetry_Int_Tables_number       1
_symmetry_cell_setting            triclinic
loop_
_symmetry_equiv_pos_as_xyz
'x, y, z'
_cell_length_a     30.079672
_cell_length_b     31.239161
_cell_length_c     31.281782
_cell_angle_alpha  104.64285
_cell_angle_beta   77.08818
_cell_angle_gamma 107.1837
loop_
_atom_site_label
_atom_site_type_symbol
_atom_site_fract_x
_atom_site_fract_y
_atom_site_fract_z
_atom_type_partial_charge
Eu0 Eu 0.34883 0.30041 0.31439 0.0
Eu1 Eu 0.27264 0.26837 0.24454 0.0
C2 C 0.26019 0.21528 0.32229 0.0
C3 C 0.41591 0.2768 0.39121 0.0
C4 C 0.384 0.24899 0.41977 0.0
C5 C 0.47526 0.23757 0.3903 0.0
C6 C 0.39749 0.2156 0.43303 0.0
C7 C 0.46191 0.2711 0.3773 0.0
C8 C 0.44308 0.20898 0.41787 0.0
C9 C 0.40112 0.31027 0.37443 0.0
O10 O 0.2606 0.33546 0.28453 0.0
O11 O 0.29199 0.33898 0.3461 0.0
C12 C 0.2656 0.35266 0.32637 0.0
O13 O 0.3723 0.36019 0.27874 0.0
O14 O 0.19978 0.25107 0.23322 0.0
O15 O 0.2559 0.24739 0.17666 0.0
O16 O 0.32997 0.32624 0.22028 0.0
C17 C 0.36157 0.36001 0.24001 0.0
O18 O 0.38585 0.26688 0.24913 0.0
O19 O 0.32041 0.21988 0.22058 0.0
O20 O 0.23802 0.23412 0.30357 0.0
O21 O 0.41854 0.31498 0.33322 0.0
O22 O 0.35649 0.30978 0.38416 0.0
O23 O 0.30627 0.22787 0.31747 0.0
C24 C 0.19733 0.28142 0.17289 0.0
C25 C 0.22158 0.32778 0.18117 0.0
C26 C 0.14608 0.29952 0.13376 0.0
C27 C 0.20917 0.3596 0.16498 0.0
C28 C 0.15916 0.26741 0.14945 0.0
C29 C 0.17144 0.34581 0.14094 0.0
C30 C 0.21196 0.24892 0.19018 0.0
C31 C 0.36627 0.23135 0.22063 0.0
H32 H 0.34824 0.25237 0.43132 0.0
H33 H 0.51095 0.23398 0.37865 0.0
H34 H 0.3718 0.19411 0.45413 0.0
H35 H 0.48748 0.29215 0.3557 0.0
H36 H 0.25024 0.3393 0.20027 0.0
H37 H 0.1169 0.28809 0.11518 0.0
H38 H 0.22892 0.39509 0.17145 0.0
H39 H 0.13968 0.23184 0.1432 0.0
Eu40 Eu 0.84431 0.23738 0.26421 0.0
Eu41 Eu 0.77965 0.31246 0.2938 0.0
C42 C 0.86931 0.32537 0.34102 0.0
C43 C 0.90706 0.15356 0.27687 0.0
C44 C 0.95473 0.16179 0.28029 0.0
C45 C 0.88583 0.10665 0.33331 0.0
C46 C 0.96779 0.14358 0.3107 0.0
C47 C 0.87277 0.12509 0.30312 0.0
C48 C 0.9334 0.11648 0.3382 0.0
C49 C 0.89359 0.17724 0.24822 0.0
O50 O 0.81691 0.31686 0.22413 0.0
O51 O 0.88153 0.29222 0.22389 0.0
C52 C 0.86019 0.31403 0.20739 0.0
O53 O 0.79988 0.2196 0.21033 0.0
O54 O 0.77424 0.38231 0.30191 0.0
O55 O 0.71157 0.32902 0.31742 0.0
O56 O 0.73827 0.24872 0.25165 0.0
C57 C 0.75588 0.22178 0.21641 0.0
O58 O 0.77814 0.21133 0.31055 0.0
O59 O 0.76468 0.27904 0.35263 0.0
O60 O 0.84675 0.34604 0.32431 0.0
O61 O 0.8491 0.16653 0.2443 0.0
O62 O 0.91234 0.22124 0.2533 0.0
O63 O 0.86378 0.28103 0.32948 0.0
C64 C 0.70332 0.38707 0.28564 0.0
C65 C 0.68474 0.35833 0.24784 0.0
C66 C 0.68189 0.45004 0.2702 0.0
C67 C 0.66531 0.37559 0.22107 0.0
C68 C 0.70093 0.43274 0.29702 0.0
C69 C 0.6648 0.42195 0.2314 0.0
C70 C 0.72831 0.37114 0.31165 0.0
C71 C 0.75907 0.23507 0.34729 0.0
H72 H 0.98184 0.18359 0.26042 0.0
H73 H 0.85851 0.08522 0.35334 0.0
H74 H 1.00469 0.15227 0.31385 0.0
H75 H 0.83568 0.11787 0.30123 0.0
H76 H 0.68655 0.32296 0.23824 0.0
H77 H 0.68165 0.48583 0.27916 0.0
H78 H 0.65283 0.3533 0.19118 0.0
H79 H 0.71513 0.45546 0.32596 0.0
Eu80 Eu 0.83375 0.82662 0.2544 0.0
Eu81 Eu 0.80189 0.74922 0.31694 0.0
C82 C 0.74403 0.7409 0.24054 0.0
C83 C 0.8185 0.90726 0.1904 0.0
C84 C 0.77115 0.90172 0.21099 0.0
C85 C 0.80464 0.94809 0.14013 0.0
C86 C 0.74076 0.91944 0.19642 0.0
C87 C 0.835 0.93056 0.15491 0.0
C88 C 0.75706 0.94286 0.1607 0.0
C89 C 0.85018 0.88746 0.20482 0.0
O90 O 0.84827 0.72328 0.25431 0.0
O91 O 0.89356 0.79007 0.23399 0.0
C92 C 0.88709 0.74611 0.23288 0.0
O93 O 0.85776 0.86168 0.32028 0.0
O94 O 0.77974 0.67691 0.3204 0.0
O95 O 0.79578 0.7283 0.37988 0.0
O96 O 0.86894 0.79895 0.33631 0.0
C97 C 0.87477 0.84329 0.34409 0.0
O98 O 0.76299 0.83375 0.29611 0.0
O99 O 0.75905 0.79988 0.35469 0.0
O100 O 0.74049 0.73403 0.28093 0.0
O101 O 0.85241 0.89791 0.24746 0.0
O102 O 0.847 0.84415 0.18849 0.0
O103 O 0.78215 0.76676 0.22141 0.0
C104 C 0.82545 0.66295 0.36435 0.0
C105 C 0.87158 0.68887 0.3693 0.0
C106 C 0.84925 0.59393 0.35985 0.0
C107 C 0.90589 0.66769 0.37071 0.0
C108 C 0.81474 0.61528 0.35887 0.0
C109 C 0.89507 0.61998 0.36658 0.0
C110 C 0.79005 0.68517 0.36051 0.0
C111 C 0.74461 0.82637 0.33692 0.0
H112 H 0.75764 0.88347 0.23823 0.0
H113 H 0.81835 0.96492 0.11187 0.0
H114 H 0.7046 0.91496 0.21331 0.0
H115 H 0.87125 0.93475 0.13825 0.0
H116 H 0.88119 0.72566 0.3724 0.0
H117 H 0.83987 0.55707 0.35592 0.0
H118 H 0.94042 0.68907 0.37668 0.0
H119 H 0.77972 0.59457 0.35372 0.0
Eu120 Eu 0.35418 0.7418 0.2742 0.0
Eu121 Eu 0.26905 0.78571 0.29152 0.0
C122 C 0.26477 0.69574 0.22512 0.0
C123 C 0.45402 0.72845 0.19702 0.0
C124 C 0.42936 0.74623 0.17552 0.0
C125 C 0.51541 0.72991 0.13258 0.0
C126 C 0.44706 0.75584 0.13322 0.0
C127 C 0.4988 0.72318 0.17658 0.0
C128 C 0.48682 0.74152 0.10882 0.0
C129 C 0.43065 0.71639 0.24037 0.0
O130 O 0.25268 0.74658 0.34761 0.0
O131 O 0.30376 0.69962 0.32223 0.0
C132 C 0.26792 0.71192 0.35043 0.0
O133 O 0.35554 0.78622 0.34328 0.0
O134 O 0.21983 0.79472 0.25508 0.0
O135 O 0.21482 0.82096 0.32701 0.0
O136 O 0.32343 0.83875 0.33035 0.0
C137 C 0.34954 0.82779 0.35261 0.0
O138 O 0.38277 0.8102 0.25387 0.0
O139 O 0.31732 0.80688 0.22911 0.0
O140 O 0.24297 0.71139 0.26396 0.0
O141 O 0.42951 0.75179 0.27287 0.0
O142 O 0.38919 0.6874 0.23948 0.0
O143 O 0.31062 0.71237 0.21692 0.0
C144 C 0.14428 0.78497 0.2971 0.0
C145 C 0.12668 0.75437 0.32661 0.0
C146 C 0.06415 0.77863 0.28997 0.0
C147 C 0.07812 0.74185 0.34146 0.0
C148 C 0.11267 0.79261 0.27468 0.0
C149 C 1.05032 0.76686 0.33253 0.0
C150 C 0.19403 0.81022 0.29171 0.0
C151 C 0.36302 0.82188 0.22718 0.0
H152 H 0.39426 0.74913 0.18983 0.0
H153 H 0.54773 0.72043 0.11587 0.0
H154 H 0.42494 0.76619 0.11679 0.0
H155 H 0.5192 0.71087 0.19311 0.0
H156 H 0.15023 0.74365 0.34098 0.0
H157 H 1.04041 0.78974 0.27624 0.0
H158 H 0.06577 0.72296 0.36828 0.0
H159 H 0.12524 0.81242 0.24855 0.0
Eu160 Eu 0.33623 0.745 0.76953 0.0
Eu161 Eu 0.26922 0.81864 0.79804 0.0
C162 C 0.35968 0.8368 0.84436 0.0
C163 C 0.41125 0.67489 0.78661 0.0
C164 C 0.39922 0.68791 0.83317 0.0
C165 C 0.46387 0.63433 0.7982 0.0
C166 C 0.41839 0.67326 0.86201 0.0
C167 C 0.4443 0.64872 0.76928 0.0
C168 C 0.4503 0.64564 0.84486 0.0
C169 C 0.38832 0.68763 0.75643 0.0
O170 O 0.329 0.84258 0.74475 0.0
O171 O 0.35286 0.77694 0.70956 0.0
C172 C 0.35096 0.81846 0.71027 0.0
O173 O 0.2715 0.7101 0.7353 0.0
O174 O 0.26378 0.88916 0.82023 0.0
O175 O 0.201 0.83443 0.80883 0.0
O176 O 0.248 0.77337 0.7342 0.0
C177 C 0.24626 0.72974 0.72046 0.0
O178 O 0.29748 0.74165 0.83916 0.0
O179 O 0.23166 0.76253 0.83638 0.0
O180 O 0.31527 0.83769 0.85096 0.0
O181 O 0.34228 0.67585 0.76369 0.0
O182 O 0.40505 0.72932 0.74953 0.0
O183 O 0.37753 0.81051 0.80886 0.0
C184 C 0.20741 0.90294 0.78652 0.0
C185 C 0.2426 0.92766 0.75761 0.0
C186 C 0.14769 0.91689 0.75443 0.0
C187 C 0.23042 0.94632 0.72709 0.0
C188 C 0.15991 0.89851 0.78525 0.0
C189 C 0.18282 0.94028 0.72438 0.0
C190 C 0.21959 0.87851 0.81523 0.0
C191 C 0.25331 0.74221 0.85413 0.0
H192 H 0.37419 0.70859 0.84721 0.0
H193 H 0.48805 0.61278 0.78402 0.0
H194 H 0.40761 0.68288 0.8978 0.0
H195 H 0.45416 0.63856 0.73343 0.0
H196 H 0.27961 0.93164 0.75765 0.0
H197 H 0.1107 0.91109 0.75299 0.0
H198 H 0.25841 0.96483 0.70504 0.0
H199 H 0.13219 0.87943 0.80706 0.0
Eu200 Eu 0.31534 0.30659 0.74523 0.0
Eu201 Eu 0.28359 0.23 0.80864 0.0
C202 C 0.24202 0.21258 0.71928 0.0
C203 C 0.28941 0.39147 0.69952 0.0
C204 C 0.24335 0.37472 0.72065 0.0
C205 C 0.26312 0.44766 0.67728 0.0
C206 C 0.20738 0.39406 0.72005 0.0
C207 C 0.29941 0.42855 0.67847 0.0
C208 C 0.2165 0.43004 0.69742 0.0
C209 C 0.32607 0.36975 0.70067 0.0
O210 O 0.35347 0.22142 0.76612 0.0
O211 O 0.35751 0.25525 0.70745 0.0
C212 C 0.37158 0.22841 0.72516 0.0
O213 O 0.37763 0.32178 0.78002 0.0
O214 O 0.26378 0.15898 0.81658 0.0
O215 O 0.27108 0.21344 0.87488 0.0
O216 O 0.33706 0.28934 0.84009 0.0
C217 C 0.37495 0.31495 0.82028 0.0
O218 O 0.27052 0.33347 0.80884 0.0
O219 O 0.22418 0.26703 0.82893 0.0
O220 O 0.25931 0.19429 0.74294 0.0
O221 O 0.33892 0.37835 0.73976 0.0
O222 O 0.31826 0.32629 0.68231 0.0
O223 O 0.24766 0.2569 0.7273 0.0
C224 C 0.29819 0.14958 0.87325 0.0
C225 C 0.34545 0.15471 0.8525 0.0
C226 C 0.31156 0.10805 0.92313 0.0
C227 C 0.37556 0.13642 0.86679 0.0
C228 C 0.28149 0.12612 0.90861 0.0
C229 C 0.35905 0.11284 0.90239 0.0
C230 C 0.2668 0.16989 0.85907 0.0
C231 C 0.23131 0.31111 0.83029 0.0
H232 H 0.23507 0.34614 0.73724 0.0
H233 H 0.27122 0.47485 0.65891 0.0
H234 H 0.17211 0.37998 0.73633 0.0
H235 H 0.33486 0.442 0.6622 0.0
H236 H 0.35911 0.1731 0.82537 0.0
H237 H 0.29772 0.09112 0.95132 0.0
H238 H 0.41166 0.14059 0.84977 0.0
H239 H 0.24529 0.12223 0.92538 0.0
Eu240 Eu 0.84438 0.26737 0.77019 0.0
Eu241 Eu 0.75958 0.31172 0.78781 0.0
C242 C 0.76354 0.22559 0.70932 0.0
C243 C 0.96863 0.26807 0.76485 0.0
C244 C 0.98571 0.29916 0.73586 0.0
C245 C 1.04894 0.27613 0.7727 0.0
C246 C 1.03422 0.31278 0.72142 0.0
C247 C 1.00044 0.26092 0.78738 0.0
C248 C 0.06294 0.2888 0.73054 0.0
C249 C 0.91906 0.2424 0.77001 0.0
O250 O 0.73091 0.24319 0.80801 0.0
O251 O 0.79637 0.24663 0.83275 0.0
C252 C 0.75072 0.23148 0.83464 0.0
O253 O 0.8711 0.34163 0.79782 0.0
O254 O 0.68417 0.30209 0.78978 0.0
O255 O 0.72496 0.36637 0.82281 0.0
O256 O 0.80349 0.34125 0.84487 0.0
C257 C 0.84938 0.35761 0.83659 0.0
O258 O 0.86102 0.30658 0.71417 0.0
O259 O 0.81001 0.35362 0.73945 0.0
O260 O 0.75756 0.2672 0.71879 0.0
O261 O 0.89311 0.2576 0.80667 0.0
O262 O 0.89838 0.23184 0.73466 0.0
O263 O 0.78979 0.21456 0.73138 0.0
C264 C 0.66039 0.32558 0.86579 0.0
C265 C 0.6851 0.30724 0.88668 0.0
C266 C 0.60005 0.32491 0.93112 0.0
C267 C 0.66785 0.29751 0.92896 0.0
C268 C 0.61604 0.33157 0.88702 0.0
C269 C 0.62881 0.31259 0.95416 0.0
C270 C 0.68338 0.33754 0.82229 0.0
C271 C 0.84586 0.34126 0.71128 0.0
H272 H 0.96186 0.30946 0.72147 0.0
H273 H 0.073 0.2656 0.78658 0.0
H274 H 1.046 0.33175 0.69472 0.0
H275 H 0.98812 0.24076 0.81322 0.0
H276 H 0.71999 0.30406 0.8719 0.0
H277 H 0.56815 0.33492 0.94842 0.0
H278 H 0.69003 0.28653 0.94477 0.0
H279 H 0.59558 0.34439 0.87103 0.0
Eu280 Eu 0.84593 0.78975 0.81814 0.0
Eu281 Eu 0.77019 0.75576 0.74766 0.0
C282 C 0.75987 0.69556 0.82085 0.0
C283 C 0.92456 0.78282 0.89182 0.0
C284 C 0.91967 0.7865 0.93816 0.0
C285 C 0.95649 0.71671 0.87959 0.0
C286 C 0.93215 0.75504 0.95508 0.0
C287 C 0.94377 0.74802 0.86268 0.0
C288 C 0.94989 0.71928 0.92598 0.0
C289 C 0.90504 0.81207 0.87439 0.0
O290 O 0.73177 0.78819 0.81271 0.0
O291 O 0.79653 0.8367 0.84117 0.0
C292 C 0.75065 0.82417 0.84117 0.0
O293 O 0.88063 0.8235 0.75886 0.0
O294 O 0.70049 0.73957 0.72836 0.0
O295 O 0.76286 0.74614 0.67778 0.0
O296 O 0.8122 0.82842 0.74412 0.0
C297 C 0.85825 0.84161 0.73961 0.0
O298 O 0.86197 0.72434 0.7776 0.0
O299 O 0.82678 0.71666 0.71702 0.0
O300 O 0.74817 0.69571 0.78269 0.0
O301 O 0.91815 0.81333 0.83194 0.0
O302 O 0.85992 0.80846 0.88701 0.0
O303 O 0.79107 0.72962 0.84072 0.0
C304 C 0.70207 0.77704 0.67022 0.0
C305 C 0.73368 0.80632 0.64288 0.0
C306 C 0.6406 0.81305 0.66964 0.0
C307 C 0.71896 0.83883 0.62946 0.0
C308 C 0.65519 0.78037 0.68277 0.0
C309 C 0.67241 0.8431 0.64329 0.0
C310 C 0.71794 0.74444 0.6872 0.0
C311 C 0.855 0.70505 0.73651 0.0
H312 H 0.90481 0.81289 0.96128 0.0
H313 H 0.96972 0.6894 0.8563 0.0
H314 H 0.92728 0.75832 0.99103 0.0
H315 H 0.94765 0.74402 0.82675 0.0
H316 H 0.77011 0.80478 0.63244 0.0
H317 H 0.60426 0.81487 0.68025 0.0
H318 H 0.74439 0.86152 0.60935 0.0
H319 H 0.62987 0.75814 0.70342 0.0
Fe320 Fe 0.07343 0.07698 0.52167 0.0
O321 O 1.02425 0.04081 0.56251 0.0
Fe322 Fe 0.15967 1.01499 0.48945 0.0
Fe323 Fe 0.95809 0.04209 0.57264 0.0
O324 O 0.09437 1.01967 0.49763 0.0
O325 O 0.09353 1.01638 0.49946 0.0
O326 O 1.02342 0.03752 0.56434 0.0
Fe327 Fe 1.0444 0.98025 0.54036 0.0
C328 C 1.02252 0.1375 0.59364 0.0
O329 O 1.02997 0.0583 0.47448 0.0
O330 O 0.96682 0.07509 0.5204 0.0
O331 O 0.07184 0.92453 0.50869 0.0
O332 O 0.13026 0.95118 0.45298 0.0
O333 O 0.17004 0.05456 0.44118 0.0
O334 O 0.12745 0.10806 0.47567 0.0
O335 O 0.93547 0.98088 0.52874 0.0
O336 O 1.00127 0.95929 0.4934 0.0
C337 C 0.15863 0.09254 0.4443 0.0
O338 O 0.08789 0.99908 0.58751 0.0
O339 O 0.15074 0.98176 0.54153 0.0
O340 O 1.04601 0.1327 0.55334 0.0
O341 O 0.98749 0.10598 0.60895 0.0
C342 C 0.9908 0.06863 0.48124 0.0
C343 C 0.95795 0.95723 0.49647 0.0
C344 C 0.95933 0.9647 0.61785 0.0
O345 O 0.9479 1.00268 0.62101 0.0
O346 O 0.99047 0.94919 0.58642 0.0
C347 C 0.09519 0.91969 0.46832 0.0
O348 O 0.18226 0.07607 0.53361 0.0
O349 O 0.11648 0.09782 0.56871 0.0
C350 C 0.12689 0.98844 0.58072 0.0
C351 C 0.15972 0.09968 0.56589 0.0
Fe352 Fe 0.55603 0.97496 1.0284 0.0
O353 O 0.59451 1.02718 0.99879 0.0
Fe354 Fe 0.45147 1.00792 0.07324 0.0
Fe355 Fe 0.66361 0.04582 0.98906 0.0
O356 O 0.52067 1.02147 0.06358 0.0
O357 O 0.52063 1.02661 0.06373 0.0
O358 O 0.59446 0.03227 0.99892 0.0
Fe359 Fe 0.55902 0.07873 0.03392 0.0
C360 C 0.64389 0.9993 0.06976 0.0
O361 O 0.60087 0.93398 0.98597 0.0
O362 O 0.65553 0.98399 0.94486 0.0
O363 O 0.51598 0.06101 0.98563 0.0
O364 O 0.44548 0.0423 1.02782 0.0
O365 O 0.44406 0.94914 1.02466 0.0
O366 O 0.51307 0.95428 0.97953 0.0
O367 O 0.65701 0.08493 0.94857 0.0
O368 O 0.60625 0.12638 0.99536 0.0
C369 C 0.46819 0.94094 0.98599 0.0
O370 O 0.51411 0.11967 0.07617 0.0
O371 O 0.45949 0.06974 0.11742 0.0
O372 O 0.59913 0.99237 0.07663 0.0
O373 O 0.66966 1.01154 0.03454 0.0
C374 C 0.63617 0.94352 0.9537 0.0
C375 C 0.63908 0.11993 0.96062 0.0
C376 C 0.64697 0.1136 0.07613 0.0
O377 O 0.67114 0.10466 0.0376 0.0
O378 O 0.6021 0.09999 0.08274 0.0
C379 C 0.47127 0.05439 0.99256 0.0
O380 O 0.45792 0.96873 0.11371 0.0
O381 O 0.50855 0.92719 0.06681 0.0
C382 C 0.47882 0.11017 0.10846 0.0
C383 C 0.47567 0.9336 0.10154 0.0
Fe384 Fe 0.06823 0.58184 0.04147 0.0
O385 O 1.02031 0.5291 0.0636 0.0
Fe386 Fe 0.1625 0.5327 0.98934 0.0
Fe387 Fe 0.95212 0.52361 0.07208 0.0
O388 O 0.09547 0.53197 0.99978 0.0
O389 O 0.09416 0.52663 0.99757 0.0
O390 O 1.019 0.52378 0.06135 0.0
Fe391 Fe 1.04629 0.47381 1.01973 0.0
C392 C 0.9945 0.61908 0.12107 0.0
O393 O 1.02909 0.57929 0.99418 0.0
O394 O 0.9586 0.57307 0.03656 0.0
O395 O 0.08425 0.42829 0.97218 0.0
O396 O 0.14638 0.47785 0.93733 0.0
O397 O 0.16795 0.5853 0.95864 0.0
O398 O 0.12222 0.62951 1.00984 0.0
O399 O 0.93706 0.47381 1.01613 0.0
O400 O 1.00499 0.46698 0.97175 0.0
C401 C 0.15439 0.62286 0.9749 0.0
O402 O 0.08525 0.47674 0.06718 0.0
O403 O 0.15645 0.48407 1.02579 0.0
O404 O 1.03077 0.62737 0.08926 0.0
O405 O 0.96851 0.57824 0.12453 0.0
C406 C 0.98829 0.58662 1.00372 0.0
C407 C 0.96018 0.4609 0.97799 0.0
C408 C 0.95951 0.43269 0.08593 0.0
O409 O 0.94626 0.47044 0.10217 0.0
O410 O 0.99213 0.42608 0.05137 0.0
C411 C 0.12088 0.43687 0.94072 0.0
O412 O 0.1775 0.58311 0.04474 0.0
O413 O 0.10942 0.58825 0.0894 0.0
C414 C 0.1266 0.47078 0.05867 0.0
C415 C 0.15428 0.59491 0.0831 0.0
Fe416 Fe 0.57173 0.51219 0.97784 0.0
O417 O 0.60344 0.55836 1.02639 0.0
Fe418 Fe 0.45398 0.49058 1.0243 0.0
Fe419 Fe 0.66843 0.56402 0.03537 0.0
O420 O 0.51937 0.49734 1.02765 0.0
O421 O 0.51915 0.49592 0.03266 0.0
O422 O 0.60321 0.55703 0.03136 0.0
Fe423 Fe 0.55087 0.54219 0.08111 0.0
C424 C 0.63533 0.46522 1.00094 0.0
O425 O 0.63181 0.5343 0.93135 0.0
O426 O 0.68391 0.58619 0.97555 0.0
O427 O 0.52592 0.58983 0.06779 0.0
O428 O 0.4514 0.55447 0.06153 0.0
O429 O 0.46969 0.51873 0.96803 0.0
O430 O 0.54441 0.55967 0.96412 0.0
O431 O 0.65932 0.62356 0.07837 0.0
O432 O 0.5908 0.59478 0.1244 0.0
C433 C 0.50296 0.5513 0.95529 0.0
O434 O 0.49097 0.51995 0.12763 0.0
O435 O 0.4391 0.46739 0.08357 0.0
O436 O 0.59654 0.4644 0.99109 0.0
O437 O 0.67074 0.49961 0.99941 0.0
C438 C 0.66881 0.56843 0.93752 0.0
C439 C 0.62963 0.6259 0.11571 0.0
C440 C 0.61909 0.50578 0.10671 0.0
O441 O 0.65232 0.53754 0.09254 0.0
O442 O 0.57843 0.4951 0.09545 0.0
C443 C 0.48647 0.58908 0.05952 0.0
O444 O 0.46284 0.43145 0.98036 0.0
O445 O 0.53146 0.46002 0.93435 0.0
C446 C 0.45445 0.48529 0.12151 0.0
C447 C 0.49236 0.42916 0.94295 0.0
Fe448 Fe 0.06893 0.42872 0.52355 0.0
O449 O 0.07874 0.495 0.53254 0.0
Fe450 Fe 0.07174 0.52059 0.47868 0.0
Fe451 Fe 1.04423 0.53226 0.58389 0.0
O452 O 0.08204 0.49546 0.5275 0.0
O453 O 1.037 0.55754 0.52999 0.0
O454 O 1.03387 0.55717 0.53498 0.0
Fe455 Fe 1.04608 0.62355 0.53825 0.0
C456 C 0.97468 0.44072 0.58375 0.0
O457 O 0.10043 0.448 0.57962 0.0
O458 O 0.06321 0.50154 0.6276 0.0
O459 O 0.10718 0.6322 0.49344 0.0
O460 O 0.13494 0.57066 0.48028 0.0
O461 O 0.112 0.47728 0.43197 0.0
O462 O 0.12861 0.43769 0.47709 0.0
O463 O 0.10683 0.58099 0.58967 0.0
O464 O 0.08525 0.64326 0.59031 0.0
C465 C 0.13671 0.45303 0.44061 0.0
O466 O 1.0127 0.60258 0.48328 0.0
O467 O 1.05191 0.55078 0.435 0.0
O468 O 1.00698 0.41993 0.56723 0.0
O469 O 0.98067 0.48261 0.58254 0.0
C470 C 0.08962 0.47284 0.61857 0.0
C471 C 0.1123 0.62396 0.60048 0.0
C472 C 0.97983 0.60023 0.62242 0.0
O473 O 1.00456 0.57588 0.63079 0.0
O474 O 0.98722 0.61499 0.58573 0.0
C475 C 0.14016 0.61213 0.47801 0.0
O476 O 1.00934 0.4719 0.47269 0.0
O477 O 1.03134 0.40961 0.47038 0.0
C478 C 1.02286 0.57703 0.44459 0.0
C479 C 1.00447 0.42914 0.46038 0.0
Fe480 Fe 0.54903 0.97232 0.52385 0.0
O481 O 0.52647 1.02342 0.56815 0.0
Fe482 Fe 0.5902 1.02014 0.4286 0.0
Fe483 Fe 0.52339 0.03112 0.6329 0.0
O484 O 0.58725 1.02316 0.49271 0.0
O485 O 0.58742 0.02852 0.49344 0.0
O486 O 0.52684 0.02864 0.56893 0.0
Fe487 Fe 0.56414 0.07953 0.53737 0.0
C488 C 0.46997 0.93466 0.59755 0.0
O489 O 0.6033 0.97956 0.55775 0.0
O490 O 0.56274 0.98526 0.62662 0.0
O491 O 0.60811 0.12504 0.49619 0.0
O492 O 0.64424 0.07737 0.43884 0.0
O493 O 0.62643 0.97197 0.42263 0.0
O494 O 0.58091 0.9261 0.47206 0.0
O495 O 0.58342 0.08382 0.63989 0.0
O496 O 0.62009 0.09328 0.57114 0.0
C497 C 0.61421 0.93455 0.43797 0.0
O498 O 0.50927 0.07065 0.50359 0.0
O499 O 0.54952 0.06477 0.43458 0.0
O500 O 0.50305 0.92676 0.56378 0.0
O501 O 0.46844 0.97445 0.62269 0.0
C502 C 0.59612 0.97315 0.59762 0.0
C503 C 0.61988 0.09922 0.613 0.0
C504 C 0.49941 0.11735 0.62351 0.0
O505 O 0.48795 0.08024 0.6393 0.0
O506 O 0.53188 0.12553 0.58881 0.0
C507 C 0.63952 0.11741 0.46076 0.0
O508 O 0.53108 0.96657 0.42127 0.0
O509 O 0.49337 0.96035 0.49023 0.0
C510 C 0.51608 0.07674 0.46362 0.0
C511 C 0.49397 0.95304 0.44824 0.0
C512 C 0.25566 0.15288 0.36211 0.0
C513 C 0.2333 0.18129 0.35078 0.0
H514 H 0.24948 0.10196 0.39966 0.0
C515 C 0.18554 0.17851 0.36884 0.0
H516 H 0.29241 0.15412 0.34886 0.0
C517 C 0.16124 0.14927 0.39863 0.0
C518 C 0.18373 0.12126 0.41039 0.0
H519 H 0.16723 0.19996 0.36103 0.0
H520 H 0.12477 0.14875 0.41267 0.0
C521 C 0.23101 0.12283 0.39112 0.0
C522 C 0.91865 0.10231 0.41624 0.0
C523 C 0.94677 0.10098 0.37371 0.0
H524 H 0.91021 0.09299 0.48319 0.0
C525 C 0.98861 0.08682 0.36625 0.0
H526 H 0.88656 0.11366 0.42345 0.0
C527 C 1.00252 0.07537 0.40082 0.0
C528 C 0.9749 0.07785 0.44365 0.0
H529 H 1.01079 0.08481 0.33374 0.0
H530 H 1.03531 0.06529 0.3941 0.0
C531 C 0.93246 0.0908 0.45071 0.0
C532 C 0.92555 0.85743 0.4021 0.0
C533 C 0.89634 0.87246 0.38302 0.0
H534 H 0.96772 0.8728 0.45348 0.0
C535 C 0.88569 0.91478 0.40294 0.0
H536 H 0.93408 0.82488 0.38766 0.0
C537 C 0.90402 0.94163 0.44119 0.0
C538 C 0.93399 0.92697 0.45959 0.0
H539 H 0.86276 0.92698 0.38926 0.0
H540 H 0.89595 0.9744 0.45553 0.0
C541 C 0.94462 0.88471 0.43976 0.0
C542 C 1.05011 0.84935 0.36339 0.0
C543 C 1.03945 0.80435 0.37096 0.0
H544 H 0.08046 0.92024 0.38693 0.0
C545 C 1.03583 0.79943 0.41537 0.0
H546 H 1.04977 0.85606 0.33121 0.0
C547 C 1.05365 0.83706 0.44762 0.0
C548 C 0.07392 0.88007 0.43615 0.0
H549 H 1.02442 0.76593 0.42388 0.0
H550 H 1.05401 0.83205 0.48055 0.0
C551 C 0.06887 0.88651 0.39505 0.0
C552 C 0.13033 0.97344 0.69658 0.0
C553 C 0.16996 0.95565 0.6885 0.0
H554 H 0.08569 0.99795 0.66908 0.0
C555 C 0.19627 0.95067 0.64512 0.0
H556 H 0.10965 0.97833 0.72971 0.0
C557 C 0.18287 0.96234 0.61054 0.0
C558 C 0.14257 0.97896 0.61828 0.0
H559 H 0.22653 0.9364 0.63741 0.0
H560 H 0.20362 0.95729 0.57744 0.0
C561 C 0.11675 0.98493 0.66185 0.0
C562 C 0.23125 0.14128 0.66007 0.0
C563 C 0.22054 0.18353 0.68022 0.0
H564 H 0.22132 0.08201 0.60703 0.0
C565 C 0.1915 0.19876 0.66112 0.0
H566 H 0.25405 0.12892 0.67375 0.0
C567 C 0.17273 0.1718 0.62318 0.0
C568 C 0.18346 0.12963 0.60308 0.0
H569 H 0.1829 0.23126 0.67572 0.0
H570 H 0.14978 0.18391 0.60946 0.0
C571 C 0.2132 0.11473 0.62155 0.0
C572 C 0.07976 0.25803 0.64753 0.0
C573 C 0.07628 0.25268 0.69179 0.0
H574 H 0.06191 0.22562 0.58218 0.0
C575 C 0.06746 0.20764 0.69861 0.0
H576 H 0.09006 0.2917 0.63949 0.0
C577 C 1.04943 0.17045 0.66661 0.0
C578 C 1.04362 0.1771 0.62587 0.0
H579 H 0.0683 0.20075 0.73057 0.0
H580 H 1.03885 0.13654 0.67424 0.0
C581 C 0.06276 0.22041 0.6149 0.0
C582 C 0.93283 0.87891 0.69338 0.0
C583 C 0.88493 0.87566 0.71114 0.0
H584 H 0.99362 0.90913 0.64985 0.0
C585 C 0.86232 0.90372 0.69959 0.0
H586 H 0.95134 0.85773 0.70137 0.0
C587 C 0.88687 0.93391 0.67068 0.0
C588 C 0.93431 0.93594 0.65173 0.0
H589 H 0.82546 0.90212 0.71262 0.0
H590 H 0.86823 0.95451 0.66196 0.0
C591 C 0.95704 0.90826 0.66368 0.0
C592 C 0.44616 0.21638 0.18479 0.0
C593 C 0.39641 0.2027 0.18912 0.0
H594 H 0.51194 0.19838 0.15506 0.0
C595 C 0.37547 0.16056 0.16367 0.0
H596 H 0.46357 0.24884 0.20366 0.0
C597 C 0.40306 0.13202 0.13631 0.0
C598 C 0.45249 0.14482 0.13303 0.0
H599 H 0.33752 0.14888 0.16574 0.0
H600 H 0.38547 0.09913 0.11819 0.0
C601 C 0.47401 0.18779 0.15673 0.0
C602 C 0.86127 0.36201 0.15471 0.0
C603 C 0.88502 0.33789 0.17027 0.0
H604 H 0.8665 0.41031 0.11526 0.0
C605 C 0.93258 0.33958 0.15192 0.0
H606 H 0.82441 0.36089 0.16724 0.0
C607 C 0.95665 0.36766 0.121 0.0
C608 C 0.93357 0.39486 0.109 0.0
H609 H 0.95161 0.32076 0.16272 0.0
H610 H 0.99367 0.37007 0.10865 0.0
C611 C 0.88532 0.3903 0.12471 0.0
C612 C 0.6776 0.93595 0.14099 0.0
C613 C 0.72474 0.96079 0.14386 0.0
H614 H 0.61429 0.92921 0.11592 0.0
C615 C 0.74179 1.00183 0.12789 0.0
H616 H 0.6632 0.90411 0.15275 0.0
C617 C 0.71401 1.01573 0.10648 0.0
C618 C 0.66809 0.98947 0.1011 0.0
H619 H 0.77727 1.02266 0.13069 0.0
H620 H 0.72918 0.04627 0.09252 0.0
C621 C 0.64943 0.95033 0.11999 0.0
C622 C 0.1868 0.65715 0.19822 0.0
C623 C 0.23656 0.66727 0.18952 0.0
H624 H 0.12182 0.62683 0.172 0.0
C625 C 0.25858 0.65217 0.14609 0.0
H626 H 0.16848 0.66838 0.2313 0.0
C627 C 0.23169 0.62824 0.11212 0.0
C628 C 0.18193 0.61889 0.12045 0.0
H629 H 0.29666 0.65937 0.1381 0.0
H630 H 0.25026 0.61764 0.07899 0.0
C631 C 0.15986 0.63338 0.16416 0.0
C632 C 0.43784 0.86863 0.873 0.0
C633 C 0.38893 0.86425 0.87928 0.0
H634 H 0.50176 0.89669 0.90157 0.0
C635 C 0.36724 0.88576 0.92029 0.0
H636 H 0.45568 0.85251 0.84177 0.0
C637 C 0.39326 0.9103 0.95433 0.0
C638 C 0.44204 0.91468 0.94848 0.0
H639 H 0.32974 0.88326 0.92655 0.0
H640 H 0.37486 0.92608 0.98542 0.0
C641 C 0.46425 0.89393 0.9072 0.0
C642 C 0.16309 0.32627 0.89378 0.0
C643 C 0.19618 0.33809 0.85607 0.0
H644 H 0.11282 0.34787 0.95051 0.0
C645 C 0.1983 0.37918 0.84398 0.0
H646 H 0.16031 0.29498 0.90429 0.0
C647 C 0.17056 0.40852 0.86941 0.0
C648 C 0.13995 0.39885 0.90892 0.0
H649 H 0.22288 0.38982 0.81534 0.0
H650 H 0.17508 0.44034 0.85908 0.0
C651 C 0.13551 0.35649 0.92012 0.0
C652 C 0.67153 0.18916 0.87038 0.0
C653 C 0.7207 0.20611 0.86961 0.0
H654 H 0.60619 0.1495 0.90116 0.0
C655 C 0.74052 0.19958 0.90328 0.0
H656 H 0.65496 0.19401 0.84518 0.0
C657 C 0.7124 0.17494 0.93558 0.0
C658 C 0.66375 0.15645 0.93525 0.0
H659 H 0.77799 0.21259 0.90413 0.0
H660 H 0.72913 0.16833 0.9597 0.0
C661 C 0.64331 0.16446 0.90288 0.0
C662 C 0.9269 0.66522 0.97877 0.0
C663 C 0.95924 0.68362 0.94402 0.0
H664 H 0.91018 0.6199 1.02414 0.0
C665 C 0.99999 0.66746 0.92673 0.0
H666 H 0.89469 0.67618 0.99218 0.0
C667 C 1.00887 0.63471 0.94493 0.0
C668 C 0.97707 0.61732 0.98063 0.0
H669 H 1.02559 0.68097 0.89991 0.0
H670 H 1.04103 0.62367 0.93158 0.0
C671 C 0.93561 0.63248 0.99676 0.0
C672 C 0.19567 0.40739 0.09645 0.0
C673 C 0.15998 0.3796 0.1222 0.0
H674 H 0.21324 0.45806 0.05636 0.0
C675 C 0.11373 0.38439 0.12974 0.0
H676 H 0.23165 0.40439 0.09019 0.0
C677 C 0.1033 0.41593 0.11115 0.0
C678 C 0.13862 0.44233 0.08369 0.0
H679 H 0.08573 0.3638 0.15003 0.0
H680 H 0.06738 0.4188 0.11732 0.0
C681 C 0.18508 0.43816 0.07714 0.0
C682 C 0.25244 0.69643 0.90881 0.0
C683 C 0.22802 0.71791 0.89082 0.0
H684 H 0.24783 0.64993 0.95012 0.0
C685 C 0.17943 0.71314 0.90624 0.0
H686 H 0.28997 0.69987 0.8984 0.0
C687 C 0.1553 0.68476 0.93684 0.0
C688 C 0.17952 0.66063 0.95172 0.0
H689 H 0.15976 0.72966 0.8933 0.0
H690 H 0.11752 0.67953 0.94663 0.0
C691 C 0.22841 0.66792 0.93866 0.0
C692 C 0.43841 0.11862 0.92164 0.0
C693 C 0.39109 0.09432 0.91895 0.0
H694 H 0.50164 0.12447 0.94639 0.0
C695 C 0.37358 0.05327 0.93489 0.0
H696 H 0.45316 0.15046 0.9099 0.0
C697 C 0.40112 0.03889 0.95614 0.0
C698 C 0.44724 0.06463 0.96134 0.0
H699 H 0.33794 0.03283 0.93222 0.0
H700 H 0.3856 1.00841 0.97014 0.0
C701 C 0.46634 0.10374 0.94244 0.0
C702 C 0.92742 0.39654 0.86337 0.0
C703 C 0.87767 0.3866 0.87202 0.0
H704 H 0.99244 0.42731 0.88946 0.0
C705 C 0.85573 0.40253 0.91525 0.0
H706 H 0.9457 0.38468 0.83047 0.0
C707 C 0.88267 0.42711 0.94904 0.0
C708 C 0.93243 0.43632 0.94077 0.0
H709 H 0.81765 0.3955 0.92321 0.0
H710 H 0.86416 0.43833 0.98202 0.0
C711 C 0.95441 0.42095 0.89727 0.0
C712 C 0.67015 0.83845 0.87598 0.0
C713 C 0.71981 0.85217 0.87271 0.0
H714 H 0.60398 0.85603 0.90495 0.0
C715 C 0.7401 0.89377 0.89941 0.0
H716 H 0.65321 0.80642 0.85613 0.0
C717 C 0.71203 0.92176 0.92697 0.0
C718 C 0.66273 0.909 0.92918 0.0
H719 H 0.77794 0.90547 0.89824 0.0
H720 H 0.72918 0.95429 0.94603 0.0
C721 C 0.6418 0.86654 0.90418 0.0
C722 C 0.95228 0.72939 0.16707 0.0
C723 C 0.92244 0.71954 0.20703 0.0
H724 H 0.99906 0.70567 0.10834 0.0
C725 C 0.92292 0.68016 0.22089 0.0
H726 H 0.9529 0.7593 0.15523 0.0
C727 C 0.94943 0.64995 0.19453 0.0
C728 C 0.97667 0.65766 0.15302 0.0
H729 H 0.90121 0.67158 0.25173 0.0
H730 H 0.94677 0.61914 0.20589 0.0
C731 C 0.97901 0.69869 0.14028 0.0
C732 C 0.44241 0.86401 0.19158 0.0
C733 C 0.39323 0.84728 0.19225 0.0
H734 H 0.50799 0.9035 0.161 0.0
C735 C 0.37364 0.85405 0.15854 0.0
H736 H 0.45882 0.85899 0.2168 0.0
C737 C 0.40202 0.87872 0.12632 0.0
C738 C 0.45069 0.89697 0.12675 0.0
H739 H 0.33618 0.84123 0.1576 0.0
H740 H 0.38547 0.88554 0.1022 0.0
C741 C 0.47087 0.88872 0.15917 0.0
C742 C 0.67763 0.18945 0.18782 0.0
C743 C 0.72656 0.194 0.18162 0.0
H744 H 0.61354 0.16005 0.1596 0.0
C745 C 0.74816 0.17159 0.14107 0.0
H746 H 0.65985 0.2062 0.21873 0.0
C747 C 0.722 0.14584 0.10747 0.0
C748 C 0.67318 0.14115 0.11327 0.0
H749 H 0.78566 0.17416 0.13487 0.0
H750 H 0.74036 0.12933 0.07679 0.0
C751 C 0.65108 0.16296 0.15404 0.0
C752 C 0.69276 0.62793 0.83943 0.0
C753 C 0.73827 0.65624 0.84377 0.0
H754 H 0.63488 0.57658 0.86541 0.0
C755 C 0.76277 0.64932 0.87377 0.0
H756 H 0.67312 0.63218 0.81636 0.0
C757 C 0.74117 0.61789 0.90148 0.0
C758 C 0.6943 0.59228 0.90015 0.0
H759 H 0.79834 0.6696 0.87723 0.0
H760 H 0.76059 0.61534 0.92564 0.0
C761 C 0.67092 0.59606 0.86744 0.0
C762 C 0.51299 0.62414 0.87106 0.0
C763 C 0.4657 0.62523 0.87536 0.0
H764 H 0.56239 0.60093 0.89399 0.0
C765 C 0.432 0.60448 0.90793 0.0
H766 H 0.53977 0.6402 0.84644 0.0
C767 C 0.44475 0.58166 0.93438 0.0
C768 C 0.49166 0.57937 0.92943 0.0
H769 H 0.39527 0.60443 0.91191 0.0
H770 H 0.41751 0.56519 0.95846 0.0
C771 C 0.52597 0.60186 0.89831 0.0
C772 C 0.44785 0.37742 0.8343 0.0
C773 C 0.41381 0.33862 0.84591 0.0
H774 H 0.50117 0.43685 0.8565 0.0
C775 C 0.41435 0.32472 0.88511 0.0
H776 H 0.44863 0.38849 0.80394 0.0
C777 C 0.44446 0.35205 0.91483 0.0
C778 C 0.47464 0.39358 0.90573 0.0
H779 H 0.38946 0.29417 0.8943 0.0
H780 H 0.44151 0.34252 0.94654 0.0
C781 C 0.47825 0.4048 0.86412 0.0
C782 C 0.59173 0.34887 1.02666 0.0
C783 C 0.63136 0.33407 1.0023 0.0
H784 H 0.56085 0.40525 0.03959 0.0
C785 C 0.67527 0.36572 1.00855 0.0
H786 H 0.55746 0.32471 1.0296 0.0
C787 C 0.67847 0.41177 1.01075 0.0
C788 C 0.63663 0.42483 1.01592 0.0
H789 H 0.7077 0.3548 0.99857 0.0
H790 H 0.71258 0.43509 1.00347 0.0
C791 C 0.59361 0.39487 1.03075 0.0
C792 C 0.60989 0.42224 0.18073 0.0
C793 C 0.65138 0.44248 0.19973 0.0
H794 H 0.56631 0.42669 0.13675 0.0
C795 C 0.68142 0.48287 0.18771 0.0
H796 H 0.5861 0.39102 0.18945 0.0
C797 C 0.67048 0.50283 0.15769 0.0
C798 C 0.62895 0.48319 0.13877 0.0
H799 H 0.714 0.49887 0.2011 0.0
H800 H 0.69488 0.53402 0.14948 0.0
C801 C 0.59852 0.44269 0.15075 0.0
C802 C 0.7066 0.73062 0.17436 0.0
C803 C 0.70601 0.717 0.21403 0.0
H804 H 0.68113 0.71236 0.11203 0.0
C805 C 0.67174 0.67824 0.22536 0.0
H806 H 0.73171 0.76115 0.16536 0.0
C807 C 0.6422 0.65063 0.19492 0.0
C808 C 0.64692 0.66159 0.15297 0.0
H809 H 0.67012 0.66738 0.25606 0.0
H810 H 0.61903 0.61864 0.20246 0.0
C811 C 0.67735 0.70304 0.144 0.0
C812 C 0.44249 0.68692 0.05378 0.0
C813 C 0.4855 0.71988 0.06061 0.0
H814 H 0.40759 0.61674 0.05737 0.0
C815 C 0.52622 0.70681 0.03675 0.0
H816 H 0.40931 0.69649 0.06361 0.0
C817 C 0.5261 0.66115 0.032 0.0
C818 C 0.48382 0.62976 0.04593 0.0
H819 H 0.55985 0.73201 0.03455 0.0
H820 H 0.55955 0.65207 1.02322 0.0
C821 C 0.44112 0.64119 0.05093 0.0
C822 C 0.35971 0.40737 0.18768 0.0
C823 C 0.38444 0.39876 0.21645 0.0
H824 H 0.36191 0.44222 0.13645 0.0
C825 C 0.43124 0.42459 0.21871 0.0
H826 H 0.32345 0.38894 0.18561 0.0
C827 C 0.45368 0.45578 0.19007 0.0
C828 C 0.42947 0.46158 0.15903 0.0
H829 H 0.45123 0.41878 0.24057 0.0
H830 H 0.49065 0.47302 0.19022 0.0
C831 C 0.38178 0.43824 0.1595 0.0
C832 C 0.87293 0.64643 0.66811 0.0
C833 C 0.88204 0.67099 0.71076 0.0
H834 H 0.89582 0.60296 0.60766 0.0
C835 C 0.91918 0.66462 0.72737 0.0
H836 H 0.84432 0.6497 0.65442 0.0
C837 C 0.94894 0.63749 0.70038 0.0
C838 C 0.94185 0.61603 0.65642 0.0
H839 H 0.92696 0.68257 0.76035 0.0
H840 H 0.97936 0.63621 0.71266 0.0
C841 C 0.9023 0.61923 0.64144 0.0
C842 C 0.36125 0.8755 0.66419 0.0
C843 C 0.3764 0.84042 0.67239 0.0
H844 H 0.37888 0.93196 0.6316 0.0
C845 C 0.41822 0.83007 0.64715 0.0
H846 H 0.32855 0.88339 0.68241 0.0
C847 C 0.44723 0.85805 0.61789 0.0
C848 C 0.43426 0.89621 0.61362 0.0
H849 H 0.43034 0.80283 0.6527 0.0
H850 H 0.48151 0.85241 0.60209 0.0
C851 C 0.38982 0.90297 0.63482 0.0
C852 C 0.13605 0.41127 0.67777 0.0
C853 C 0.17677 0.44464 0.68961 0.0
H854 H 0.07488 0.39511 0.64699 0.0
C855 C 0.18127 0.4904 0.68802 0.0
H856 H 0.13157 0.37567 0.67809 0.0
C857 C 0.14815 0.50152 0.67043 0.0
C858 C 0.11054 0.46699 0.65403 0.0
H859 H 0.21184 0.517 0.69767 0.0
H860 H 0.15449 0.53605 0.66567 0.0
C861 C 0.10333 0.42238 0.66011 0.0
C862 C 0.72213 0.20034 0.64255 0.0
C863 C 0.73361 0.18985 0.67926 0.0
H864 H 0.67806 0.17899 0.59168 0.0
C865 C 0.71083 0.14713 0.69078 0.0
H866 H 0.73899 0.23316 0.63313 0.0
C867 C 0.67501 0.11683 0.668 0.0
C868 C 0.66229 0.12804 0.63238 0.0
H869 H 0.71851 0.13838 0.71926 0.0
H870 H 0.65626 0.08514 0.67908 0.0
C871 C 0.68735 0.16937 0.61882 0.0
C872 C 0.91113 0.39981 0.38568 0.0
C873 C 0.90237 0.352 0.37302 0.0
H874 H 0.95016 0.46134 0.42281 0.0
C875 C 0.92661 0.32959 0.39042 0.0
H876 H 0.8933 0.41827 0.37295 0.0
C877 C 0.9592 0.35437 0.41918 0.0
C878 C 0.96839 0.40224 0.43142 0.0
H879 H 0.92084 0.29276 0.38151 0.0
H880 H 0.97743 0.33597 0.43151 0.0
C881 C 0.9437 0.42454 0.41447 0.0
C882 C 0.68762 0.87262 0.34187 0.0
C883 C 0.70646 0.84882 0.36295 0.0
H884 H 0.6432 0.91684 0.34875 0.0
C885 C 0.68979 0.84873 0.40891 0.0
H886 H 0.69861 0.87301 0.30655 0.0
C887 C 0.65706 0.87397 0.43347 0.0
C888 C 0.6407 0.89996 0.41253 0.0
H889 H 0.70325 0.83052 0.42626 0.0
H890 H 0.64652 0.87501 0.46907 0.0
C891 C 0.65545 0.89772 0.3662 0.0
C892 C 0.23758 0.63904 0.38075 0.0
C893 C 0.24308 0.68645 0.38662 0.0
H894 H 0.20048 0.57756 0.40565 0.0
C895 C 0.22117 0.70934 0.42655 0.0
H896 H 0.25427 0.62056 0.35029 0.0
C897 C 0.19161 0.68516 0.4584 0.0
C898 C 0.1823 0.6372 0.45091 0.0
H899 H 0.22545 0.74594 0.4325 0.0
H900 H 0.17354 0.70388 0.48778 0.0
C901 C 0.20713 0.61448 0.4126 0.0
C902 C 0.44584 0.16341 0.47339 0.0
C903 C 0.45709 0.17179 0.42953 0.0
H904 H 0.45511 0.12641 0.51877 0.0
C905 C 0.48322 0.14499 0.39657 0.0
H906 H 0.42565 0.18339 0.49959 0.0
C907 C 0.49975 0.11238 0.40743 0.0
C908 C 0.49091 0.10561 0.45171 0.0
H909 H 0.49155 0.14967 0.36227 0.0
H910 H 0.52093 0.0935 0.38111 0.0
C911 C 0.46267 0.13072 0.4844 0.0
C912 C 0.669 0.88877 0.58817 0.0
C913 C 0.65705 0.87947 0.63169 0.0
H914 H 0.65962 0.92602 0.54308 0.0
C915 C 0.62908 0.90463 0.66438 0.0
H916 H 0.6906 0.87004 0.5622 0.0
C917 C 0.61168 0.93666 0.65358 0.0
C918 C 0.62142 0.94444 0.6096 0.0
H919 H 0.62013 0.89919 0.69846 0.0
H920 H 0.58927 0.95437 0.67969 0.0
C921 C 0.65127 0.92086 0.5772 0.0
C922 C 0.72574 0.22245 0.42539 0.0
C923 C 0.7244 0.21024 0.37913 0.0
H924 H 0.699 0.20166 0.48901 0.0
C925 C 0.69058 0.17195 0.36217 0.0
H926 H 0.75164 0.25231 0.43887 0.0
C927 C 0.66034 0.14436 0.3904 0.0
C928 C 0.66405 0.15389 0.43599 0.0
H929 H 0.68839 0.16262 0.32674 0.0
H930 H 0.63555 0.11392 0.37605 0.0
C931 C 0.69567 0.19395 0.45393 0.0
C932 C 0.97857 0.61613 0.36281 0.0
C933 C 0.92962 0.59874 0.37511 0.0
H934 H 1.04785 0.62172 0.37496 0.0
C935 C 0.91393 0.56575 0.40212 0.0
H936 H 0.99187 0.64108 0.34146 0.0
C937 C 0.94596 0.55429 0.42039 0.0
C938 C 0.99429 0.57499 0.41161 0.0
H939 H 0.8767 0.55208 0.41294 0.0
H940 H 0.93242 0.53289 0.44516 0.0
C941 C 1.01074 0.60453 0.38126 0.0
C942 C 0.40333 0.90573 0.37026 0.0
C943 C 0.37951 0.86355 0.38255 0.0
H944 H 0.45901 0.96692 0.38121 0.0
C945 C 0.3902 0.85336 0.41981 0.0
H946 H 0.39627 0.91418 0.34132 0.0
C947 C 0.42526 0.88406 0.44335 0.0
C948 C 0.45136 0.92474 0.42902 0.0
H949 H 0.37254 0.82092 0.42977 0.0
H950 H 0.43395 0.87467 0.47094 0.0
C951 C 0.43942 0.93572 0.39285 0.0
C952 C 0.2449 0.40845 0.39619 0.0
C953 C 0.23778 0.38588 0.35252 0.0
H954 H 0.21946 0.44918 0.45743 0.0
C955 C 0.20146 0.39298 0.33524 0.0
H956 H 0.27279 0.4045 0.41043 0.0
C957 C 0.17058 0.41885 0.3624 0.0
C958 C 0.17568 0.43826 0.4072 0.0
H959 H 0.19513 0.37642 0.3015 0.0
H960 H 0.14087 0.42073 0.34939 0.0
C961 C 0.21442 0.43439 0.42303 0.0
C962 C 0.42563 0.20495 0.65293 0.0
C963 C 0.40884 0.2049 0.69888 0.0
H964 H 0.46836 0.17803 0.5927 0.0
C965 C 0.42666 0.18007 0.71976 0.0
H966 H 0.41294 0.2239 0.63572 0.0
C967 C 0.458 0.15411 0.69531 0.0
C968 C 0.47298 0.15201 0.64902 0.0
H969 H 0.41555 0.17961 0.75505 0.0
H970 H 0.46956 0.13443 0.71269 0.0
C971 C 0.45758 0.17887 0.62824 0.0
C972 C 0.89273 0.34369 0.63516 0.0
C973 C 0.87092 0.36671 0.67508 0.0
H974 H 0.94053 0.3489 0.57399 0.0
C975 C 0.87688 0.41418 0.68098 0.0
H976 H 0.88814 0.30705 0.62919 0.0
C977 C 0.90765 0.43865 0.64919 0.0
C978 C 0.93237 0.41578 0.61088 0.0
H979 H 0.86031 0.43278 0.71144 0.0
H980 H 0.91459 0.47558 0.65618 0.0
C981 C 0.92261 0.36778 0.60335 0.0
C982 C 0.18362 0.72318 0.67617 0.0
C983 C 0.2139 0.70264 0.68789 0.0
H984 H 0.12828 0.71492 0.63975 0.0
C985 C 0.21203 0.65645 0.66874 0.0
H986 H 0.18398 0.75873 0.69004 0.0
C987 C 0.1801 0.63134 0.63929 0.0
C988 C 0.14886 0.6516 0.62871 0.0
H989 H 0.235 0.63958 0.67663 0.0
H990 H 0.17964 0.59587 0.62509 0.0
C991 C 0.15156 0.69804 0.6471 0.0
loop_
_geom_bond_atom_site_label_1
_geom_bond_atom_site_label_2
_geom_bond_distance
_geom_bond_site_symmetry_2
_ccdc_geom_bond_type
Eu0 C9 2.828 . S
Eu0 O11 2.392 . S
Eu0 O13 2.418 . S
Eu0 O18 2.373 . S
Eu0 O21 2.488 . S
Eu0 O22 2.471 . S
Eu0 O23 2.349 . S
Eu1 O10 2.373 . S
Eu1 O14 2.488 . S
Eu1 O15 2.471 . S
Eu1 O16 2.349 . S
Eu1 O19 2.392 . S
Eu1 O20 2.418 . S
Eu1 C30 2.828 . S
C2 O20 1.244 . S
C2 O23 1.265 . S
C3 C4 1.379 . S
C3 C7 1.373 . S
C3 C9 1.505 . S
C4 C3 1.379 . S
C4 C6 1.369 . S
C4 H32 0.930 . S
C5 C7 1.383 . S
C5 C8 1.382 . S
C5 H33 0.930 . S
C6 C4 1.369 . S
C6 C8 1.392 . S
C6 H34 0.930 . S
C7 C3 1.373 . S
C7 C5 1.383 . S
C7 H35 0.931 . S
C8 C5 1.382 . S
C8 C6 1.392 . S
C9 Eu0 2.828 . S
C9 C3 1.505 . S
C9 O21 1.249 . S
C9 O22 1.244 . S
O10 Eu1 2.373 . S
O10 C12 1.258 . S
O11 Eu0 2.392 . S
O11 C12 1.242 . S
C12 O10 1.258 . S
C12 O11 1.242 . S
O13 Eu0 2.418 . S
O13 C17 1.244 . S
O14 Eu1 2.488 . S
O14 C30 1.249 . S
O15 Eu1 2.471 . S
O15 C30 1.244 . S
O16 Eu1 2.349 . S
O16 C17 1.265 . S
C17 O13 1.244 . S
C17 O16 1.265 . S
O18 Eu0 2.373 . S
O18 C31 1.258 . S
O19 Eu1 2.392 . S
O19 C31 1.242 . S
O20 Eu1 2.418 . S
O20 C2 1.244 . S
O21 Eu0 2.488 . S
O21 C9 1.249 . S
O22 Eu0 2.471 . S
O22 C9 1.244 . S
O23 Eu0 2.349 . S
O23 C2 1.265 . S
C24 C25 1.379 . S
C24 C28 1.373 . S
C24 C30 1.505 . S
C25 C24 1.379 . S
C25 C27 1.369 . S
C25 H36 0.930 . S
C26 C28 1.383 . S
C26 C29 1.382 . S
C26 H37 0.930 . S
C27 C25 1.369 . S
C27 C29 1.392 . S
C27 H38 0.930 . S
C28 C24 1.373 . S
C28 C26 1.383 . S
C28 H39 0.931 . S
C29 C26 1.382 . S
C29 C27 1.392 . S
C30 Eu1 2.828 . S
C30 O14 1.249 . S
C30 O15 1.244 . S
C30 C24 1.505 . S
C31 O18 1.258 . S
C31 O19 1.242 . S
H32 C4 0.930 . S
H33 C5 0.930 . S
H34 C6 0.930 . S
H35 C7 0.931 . S
H36 C25 0.930 . S
H37 C26 0.930 . S
H38 C27 0.930 . S
H39 C28 0.931 . S
Eu40 C49 2.828 . S
Eu40 O51 2.392 . S
Eu40 O53 2.418 . S
Eu40 O58 2.373 . S
Eu40 O61 2.488 . S
Eu40 O62 2.471 . S
Eu40 O63 2.349 . S
Eu41 O50 2.373 . S
Eu41 O54 2.488 . S
Eu41 O55 2.471 . S
Eu41 O56 2.349 . S
Eu41 O59 2.392 . S
Eu41 O60 2.418 . S
Eu41 C70 2.828 . S
C42 O60 1.244 . S
C42 O63 1.265 . S
C43 C44 1.379 . S
C43 C47 1.373 . S
C43 C49 1.505 . S
C44 C43 1.379 . S
C44 C46 1.369 . S
C44 H72 0.930 . S
C45 C47 1.383 . S
C45 C48 1.382 . S
C45 H73 0.930 . S
C46 C44 1.369 . S
C46 C48 1.392 . S
C46 H74 0.930 . S
C47 C43 1.373 . S
C47 C45 1.383 . S
C47 H75 0.931 . S
C48 C45 1.382 . S
C48 C46 1.392 . S
C49 Eu40 2.828 . S
C49 C43 1.505 . S
C49 O61 1.249 . S
C49 O62 1.244 . S
O50 Eu41 2.373 . S
O50 C52 1.258 . S
O51 Eu40 2.392 . S
O51 C52 1.242 . S
C52 O50 1.258 . S
C52 O51 1.242 . S
O53 Eu40 2.418 . S
O53 C57 1.244 . S
O54 Eu41 2.488 . S
O54 C70 1.249 . S
O55 Eu41 2.471 . S
O55 C70 1.244 . S
O56 Eu41 2.349 . S
O56 C57 1.265 . S
C57 O53 1.244 . S
C57 O56 1.265 . S
O58 Eu40 2.373 . S
O58 C71 1.258 . S
O59 Eu41 2.392 . S
O59 C71 1.242 . S
O60 Eu41 2.418 . S
O60 C42 1.244 . S
O61 Eu40 2.488 . S
O61 C49 1.249 . S
O62 Eu40 2.471 . S
O62 C49 1.244 . S
O63 Eu40 2.349 . S
O63 C42 1.265 . S
C64 C65 1.379 . S
C64 C68 1.373 . S
C64 C70 1.505 . S
C65 C64 1.379 . S
C65 C67 1.369 . S
C65 H76 0.930 . S
C66 C68 1.383 . S
C66 C69 1.382 . S
C66 H77 0.930 . S
C67 C65 1.369 . S
C67 C69 1.392 . S
C67 H78 0.930 . S
C68 C64 1.373 . S
C68 C66 1.383 . S
C68 H79 0.931 . S
C69 C66 1.382 . S
C69 C67 1.392 . S
C70 Eu41 2.828 . S
C70 O54 1.249 . S
C70 O55 1.244 . S
C70 C64 1.505 . S
C71 O58 1.258 . S
C71 O59 1.242 . S
H72 C44 0.930 . S
H73 C45 0.930 . S
H74 C46 0.930 . S
H75 C47 0.931 . S
H76 C65 0.930 . S
H77 C66 0.930 . S
H78 C67 0.930 . S
H79 C68 0.931 . S
Eu80 C89 2.828 . S
Eu80 O91 2.392 . S
Eu80 O93 2.418 . S
Eu80 O98 2.373 . S
Eu80 O101 2.488 . S
Eu80 O102 2.471 . S
Eu80 O103 2.349 . S
Eu81 O90 2.373 . S
Eu81 O94 2.488 . S
Eu81 O95 2.471 . S
Eu81 O96 2.349 . S
Eu81 O99 2.392 . S
Eu81 O100 2.418 . S
Eu81 C110 2.828 . S
C82 O100 1.244 . S
C82 O103 1.265 . S
C83 C84 1.379 . S
C83 C87 1.373 . S
C83 C89 1.505 . S
C84 C83 1.379 . S
C84 C86 1.369 . S
C84 H112 0.930 . S
C85 C87 1.383 . S
C85 C88 1.382 . S
C85 H113 0.930 . S
C86 C84 1.369 . S
C86 C88 1.392 . S
C86 H114 0.930 . S
C87 C83 1.373 . S
C87 C85 1.383 . S
C87 H115 0.931 . S
C88 C85 1.382 . S
C88 C86 1.392 . S
C89 Eu80 2.828 . S
C89 C83 1.505 . S
C89 O101 1.249 . S
C89 O102 1.244 . S
O90 Eu81 2.373 . S
O90 C92 1.258 . S
O91 Eu80 2.392 . S
O91 C92 1.242 . S
C92 O90 1.258 . S
C92 O91 1.242 . S
O93 Eu80 2.418 . S
O93 C97 1.244 . S
O94 Eu81 2.488 . S
O94 C110 1.249 . S
O95 Eu81 2.471 . S
O95 C110 1.244 . S
O96 Eu81 2.349 . S
O96 C97 1.265 . S
C97 O93 1.244 . S
C97 O96 1.265 . S
O98 Eu80 2.373 . S
O98 C111 1.258 . S
O99 Eu81 2.392 . S
O99 C111 1.242 . S
O100 Eu81 2.418 . S
O100 C82 1.244 . S
O101 Eu80 2.488 . S
O101 C89 1.249 . S
O102 Eu80 2.471 . S
O102 C89 1.244 . S
O103 Eu80 2.349 . S
O103 C82 1.265 . S
C104 C105 1.379 . S
C104 C108 1.373 . S
C104 C110 1.505 . S
C105 C104 1.379 . S
C105 C107 1.369 . S
C105 H116 0.930 . S
C106 C108 1.383 . S
C106 C109 1.382 . S
C106 H117 0.930 . S
C107 C105 1.369 . S
C107 C109 1.392 . S
C107 H118 0.930 . S
C108 C104 1.373 . S
C108 C106 1.383 . S
C108 H119 0.931 . S
C109 C106 1.382 . S
C109 C107 1.392 . S
C110 Eu81 2.828 . S
C110 O94 1.249 . S
C110 O95 1.244 . S
C110 C104 1.505 . S
C111 O98 1.258 . S
C111 O99 1.242 . S
H112 C84 0.930 . S
H113 C85 0.930 . S
H114 C86 0.930 . S
H115 C87 0.931 . S
H116 C105 0.930 . S
H117 C106 0.930 . S
H118 C107 0.930 . S
H119 C108 0.931 . S
Eu120 C129 2.828 . S
Eu120 O131 2.392 . S
Eu120 O133 2.418 . S
Eu120 O138 2.373 . S
Eu120 O141 2.488 . S
Eu120 O142 2.471 . S
Eu120 O143 2.349 . S
Eu121 O130 2.373 . S
Eu121 O134 2.488 . S
Eu121 O135 2.471 . S
Eu121 O136 2.349 . S
Eu121 O139 2.392 . S
Eu121 O140 2.418 . S
Eu121 C150 2.828 . S
C122 O140 1.244 . S
C122 O143 1.265 . S
C123 C124 1.379 . S
C123 C127 1.373 . S
C123 C129 1.505 . S
C124 C123 1.379 . S
C124 C126 1.369 . S
C124 H152 0.930 . S
C125 C127 1.383 . S
C125 C128 1.382 . S
C125 H153 0.930 . S
C126 C124 1.369 . S
C126 C128 1.392 . S
C126 H154 0.930 . S
C127 C123 1.373 . S
C127 C125 1.383 . S
C127 H155 0.931 . S
C128 C125 1.382 . S
C128 C126 1.392 . S
C129 Eu120 2.828 . S
C129 C123 1.505 . S
C129 O141 1.249 . S
C129 O142 1.244 . S
O130 Eu121 2.373 . S
O130 C132 1.258 . S
O131 Eu120 2.392 . S
O131 C132 1.242 . S
C132 O130 1.258 . S
C132 O131 1.242 . S
O133 Eu120 2.418 . S
O133 C137 1.244 . S
O134 Eu121 2.488 . S
O134 C150 1.249 . S
O135 Eu121 2.471 . S
O135 C150 1.244 . S
O136 Eu121 2.349 . S
O136 C137 1.265 . S
C137 O133 1.244 . S
C137 O136 1.265 . S
O138 Eu120 2.373 . S
O138 C151 1.258 . S
O139 Eu121 2.392 . S
O139 C151 1.242 . S
O140 Eu121 2.418 . S
O140 C122 1.244 . S
O141 Eu120 2.488 . S
O141 C129 1.249 . S
O142 Eu120 2.471 . S
O142 C129 1.244 . S
O143 Eu120 2.349 . S
O143 C122 1.265 . S
C144 C145 1.379 . S
C144 C148 1.373 . S
C144 C150 1.505 . S
C145 C144 1.379 . S
C145 C147 1.369 . S
C145 H156 0.930 . S
C146 C148 1.383 . S
C146 C149 1.382 . S
C146 H157 0.930 . S
C147 C145 1.369 . S
C147 C149 1.392 . S
C147 H158 0.930 . S
C148 C144 1.373 . S
C148 C146 1.383 . S
C148 H159 0.931 . S
C149 C146 1.382 . S
C149 C147 1.392 . S
C150 Eu121 2.828 . S
C150 O134 1.249 . S
C150 O135 1.244 . S
C150 C144 1.505 . S
C151 O138 1.258 . S
C151 O139 1.242 . S
H152 C124 0.930 . S
H153 C125 0.930 . S
H154 C126 0.930 . S
H155 C127 0.931 . S
H156 C145 0.930 . S
H157 C146 0.930 . S
H158 C147 0.930 . S
H159 C148 0.931 . S
Eu160 C169 2.828 . S
Eu160 O171 2.392 . S
Eu160 O173 2.418 . S
Eu160 O178 2.373 . S
Eu160 O181 2.488 . S
Eu160 O182 2.471 . S
Eu160 O183 2.349 . S
Eu161 O170 2.373 . S
Eu161 O174 2.488 . S
Eu161 O175 2.471 . S
Eu161 O176 2.349 . S
Eu161 O179 2.392 . S
Eu161 O180 2.418 . S
Eu161 C190 2.828 . S
C162 O180 1.244 . S
C162 O183 1.265 . S
C163 C164 1.379 . S
C163 C167 1.373 . S
C163 C169 1.505 . S
C164 C163 1.379 . S
C164 C166 1.369 . S
C164 H192 0.930 . S
C165 C167 1.383 . S
C165 C168 1.382 . S
C165 H193 0.930 . S
C166 C164 1.369 . S
C166 C168 1.392 . S
C166 H194 0.930 . S
C167 C163 1.373 . S
C167 C165 1.383 . S
C167 H195 0.931 . S
C168 C165 1.382 . S
C168 C166 1.392 . S
C169 Eu160 2.828 . S
C169 C163 1.505 . S
C169 O181 1.249 . S
C169 O182 1.244 . S
O170 Eu161 2.373 . S
O170 C172 1.258 . S
O171 Eu160 2.392 . S
O171 C172 1.242 . S
C172 O170 1.258 . S
C172 O171 1.242 . S
O173 Eu160 2.418 . S
O173 C177 1.244 . S
O174 Eu161 2.488 . S
O174 C190 1.249 . S
O175 Eu161 2.471 . S
O175 C190 1.244 . S
O176 Eu161 2.349 . S
O176 C177 1.265 . S
C177 O173 1.244 . S
C177 O176 1.265 . S
O178 Eu160 2.373 . S
O178 C191 1.258 . S
O179 Eu161 2.392 . S
O179 C191 1.242 . S
O180 Eu161 2.418 . S
O180 C162 1.244 . S
O181 Eu160 2.488 . S
O181 C169 1.249 . S
O182 Eu160 2.471 . S
O182 C169 1.244 . S
O183 Eu160 2.349 . S
O183 C162 1.265 . S
C184 C185 1.379 . S
C184 C188 1.373 . S
C184 C190 1.505 . S
C185 C184 1.379 . S
C185 C187 1.369 . S
C185 H196 0.930 . S
C186 C188 1.383 . S
C186 C189 1.382 . S
C186 H197 0.930 . S
C187 C185 1.369 . S
C187 C189 1.392 . S
C187 H198 0.930 . S
C188 C184 1.373 . S
C188 C186 1.383 . S
C188 H199 0.931 . S
C189 C186 1.382 . S
C189 C187 1.392 . S
C190 Eu161 2.828 . S
C190 O174 1.249 . S
C190 O175 1.244 . S
C190 C184 1.505 . S
C191 O178 1.258 . S
C191 O179 1.242 . S
H192 C164 0.930 . S
H193 C165 0.930 . S
H194 C166 0.930 . S
H195 C167 0.931 . S
H196 C185 0.930 . S
H197 C186 0.930 . S
H198 C187 0.930 . S
H199 C188 0.931 . S
Eu200 C209 2.828 . S
Eu200 O211 2.392 . S
Eu200 O213 2.418 . S
Eu200 O218 2.373 . S
Eu200 O221 2.488 . S
Eu200 O222 2.471 . S
Eu200 O223 2.349 . S
Eu201 O210 2.373 . S
Eu201 O214 2.488 . S
Eu201 O215 2.471 . S
Eu201 O216 2.349 . S
Eu201 O219 2.392 . S
Eu201 O220 2.418 . S
Eu201 C230 2.828 . S
C202 O220 1.244 . S
C202 O223 1.265 . S
C203 C204 1.379 . S
C203 C207 1.373 . S
C203 C209 1.505 . S
C204 C203 1.379 . S
C204 C206 1.369 . S
C204 H232 0.930 . S
C205 C207 1.383 . S
C205 C208 1.382 . S
C205 H233 0.930 . S
C206 C204 1.369 . S
C206 C208 1.392 . S
C206 H234 0.930 . S
C207 C203 1.373 . S
C207 C205 1.383 . S
C207 H235 0.931 . S
C208 C205 1.382 . S
C208 C206 1.392 . S
C209 Eu200 2.828 . S
C209 C203 1.505 . S
C209 O221 1.249 . S
C209 O222 1.244 . S
O210 Eu201 2.373 . S
O210 C212 1.258 . S
O211 Eu200 2.392 . S
O211 C212 1.242 . S
C212 O210 1.258 . S
C212 O211 1.242 . S
O213 Eu200 2.418 . S
O213 C217 1.244 . S
O214 Eu201 2.488 . S
O214 C230 1.249 . S
O215 Eu201 2.471 . S
O215 C230 1.244 . S
O216 Eu201 2.349 . S
O216 C217 1.265 . S
C217 O213 1.244 . S
C217 O216 1.265 . S
O218 Eu200 2.373 . S
O218 C231 1.258 . S
O219 Eu201 2.392 . S
O219 C231 1.242 . S
O220 Eu201 2.418 . S
O220 C202 1.244 . S
O221 Eu200 2.488 . S
O221 C209 1.249 . S
O222 Eu200 2.471 . S
O222 C209 1.244 . S
O223 Eu200 2.349 . S
O223 C202 1.265 . S
C224 C225 1.379 . S
C224 C228 1.373 . S
C224 C230 1.505 . S
C225 C224 1.379 . S
C225 C227 1.369 . S
C225 H236 0.930 . S
C226 C228 1.383 . S
C226 C229 1.382 . S
C226 H237 0.930 . S
C227 C225 1.369 . S
C227 C229 1.392 . S
C227 H238 0.930 . S
C228 C224 1.373 . S
C228 C226 1.383 . S
C228 H239 0.931 . S
C229 C226 1.382 . S
C229 C227 1.392 . S
C230 Eu201 2.828 . S
C230 O214 1.249 . S
C230 O215 1.244 . S
C230 C224 1.505 . S
C231 O218 1.258 . S
C231 O219 1.242 . S
H232 C204 0.930 . S
H233 C205 0.930 . S
H234 C206 0.930 . S
H235 C207 0.931 . S
H236 C225 0.930 . S
H237 C226 0.930 . S
H238 C227 0.930 . S
H239 C228 0.931 . S
Eu240 C249 2.828 . S
Eu240 O251 2.392 . S
Eu240 O253 2.418 . S
Eu240 O258 2.373 . S
Eu240 O261 2.488 . S
Eu240 O262 2.471 . S
Eu240 O263 2.349 . S
Eu241 O250 2.373 . S
Eu241 O254 2.488 . S
Eu241 O255 2.471 . S
Eu241 O256 2.349 . S
Eu241 O259 2.392 . S
Eu241 O260 2.418 . S
Eu241 C270 2.828 . S
C242 O260 1.244 . S
C242 O263 1.265 . S
C243 C244 1.379 . S
C243 C247 1.373 . S
C243 C249 1.505 . S
C244 C243 1.379 . S
C244 C246 1.369 . S
C244 H272 0.930 . S
C245 C247 1.383 . S
C245 C248 1.382 . S
C245 H273 0.930 . S
C246 C244 1.369 . S
C246 C248 1.392 . S
C246 H274 0.930 . S
C247 C243 1.373 . S
C247 C245 1.383 . S
C247 H275 0.931 . S
C248 C245 1.382 . S
C248 C246 1.392 . S
C249 Eu240 2.828 . S
C249 C243 1.505 . S
C249 O261 1.249 . S
C249 O262 1.244 . S
O250 Eu241 2.373 . S
O250 C252 1.258 . S
O251 Eu240 2.392 . S
O251 C252 1.242 . S
C252 O250 1.258 . S
C252 O251 1.242 . S
O253 Eu240 2.418 . S
O253 C257 1.244 . S
O254 Eu241 2.488 . S
O254 C270 1.249 . S
O255 Eu241 2.471 . S
O255 C270 1.244 . S
O256 Eu241 2.349 . S
O256 C257 1.265 . S
C257 O253 1.244 . S
C257 O256 1.265 . S
O258 Eu240 2.373 . S
O258 C271 1.258 . S
O259 Eu241 2.392 . S
O259 C271 1.242 . S
O260 Eu241 2.418 . S
O260 C242 1.244 . S
O261 Eu240 2.488 . S
O261 C249 1.249 . S
O262 Eu240 2.471 . S
O262 C249 1.244 . S
O263 Eu240 2.349 . S
O263 C242 1.265 . S
C264 C265 1.379 . S
C264 C268 1.373 . S
C264 C270 1.505 . S
C265 C264 1.379 . S
C265 C267 1.369 . S
C265 H276 0.930 . S
C266 C268 1.383 . S
C266 C269 1.382 . S
C266 H277 0.930 . S
C267 C265 1.369 . S
C267 C269 1.392 . S
C267 H278 0.930 . S
C268 C264 1.373 . S
C268 C266 1.383 . S
C268 H279 0.931 . S
C269 C266 1.382 . S
C269 C267 1.392 . S
C270 Eu241 2.828 . S
C270 O254 1.249 . S
C270 O255 1.244 . S
C270 C264 1.505 . S
C271 O258 1.258 . S
C271 O259 1.242 . S
H272 C244 0.930 . S
H273 C245 0.930 . S
H274 C246 0.930 . S
H275 C247 0.931 . S
H276 C265 0.930 . S
H277 C266 0.930 . S
H278 C267 0.930 . S
H279 C268 0.931 . S
Eu280 C289 2.828 . S
Eu280 O291 2.392 . S
Eu280 O293 2.418 . S
Eu280 O298 2.373 . S
Eu280 O301 2.488 . S
Eu280 O302 2.471 . S
Eu280 O303 2.349 . S
Eu281 O290 2.373 . S
Eu281 O294 2.488 . S
Eu281 O295 2.471 . S
Eu281 O296 2.349 . S
Eu281 O299 2.392 . S
Eu281 O300 2.418 . S
Eu281 C310 2.828 . S
C282 O300 1.244 . S
C282 O303 1.265 . S
C283 C284 1.379 . S
C283 C287 1.373 . S
C283 C289 1.505 . S
C284 C283 1.379 . S
C284 C286 1.369 . S
C284 H312 0.930 . S
C285 C287 1.383 . S
C285 C288 1.382 . S
C285 H313 0.930 . S
C286 C284 1.369 . S
C286 C288 1.392 . S
C286 H314 0.930 . S
C287 C283 1.373 . S
C287 C285 1.383 . S
C287 H315 0.931 . S
C288 C285 1.382 . S
C288 C286 1.392 . S
C289 Eu280 2.828 . S
C289 C283 1.505 . S
C289 O301 1.249 . S
C289 O302 1.244 . S
O290 Eu281 2.373 . S
O290 C292 1.258 . S
O291 Eu280 2.392 . S
O291 C292 1.242 . S
C292 O290 1.258 . S
C292 O291 1.242 . S
O293 Eu280 2.418 . S
O293 C297 1.244 . S
O294 Eu281 2.488 . S
O294 C310 1.249 . S
O295 Eu281 2.471 . S
O295 C310 1.244 . S
O296 Eu281 2.349 . S
O296 C297 1.265 . S
C297 O293 1.244 . S
C297 O296 1.265 . S
O298 Eu280 2.373 . S
O298 C311 1.258 . S
O299 Eu281 2.392 . S
O299 C311 1.242 . S
O300 Eu281 2.418 . S
O300 C282 1.244 . S
O301 Eu280 2.488 . S
O301 C289 1.249 . S
O302 Eu280 2.471 . S
O302 C289 1.244 . S
O303 Eu280 2.349 . S
O303 C282 1.265 . S
C304 C305 1.379 . S
C304 C308 1.373 . S
C304 C310 1.505 . S
C305 C304 1.379 . S
C305 C307 1.369 . S
C305 H316 0.930 . S
C306 C308 1.383 . S
C306 C309 1.382 . S
C306 H317 0.930 . S
C307 C305 1.369 . S
C307 C309 1.392 . S
C307 H318 0.930 . S
C308 C304 1.373 . S
C308 C306 1.383 . S
C308 H319 0.931 . S
C309 C306 1.382 . S
C309 C307 1.392 . S
C310 Eu281 2.828 . S
C310 O294 1.249 . S
C310 O295 1.244 . S
C310 C304 1.505 . S
C311 O298 1.258 . S
C311 O299 1.242 . S
H312 C284 0.930 . S
H313 C285 0.930 . S
H314 C286 0.930 . S
H315 C287 0.931 . S
H316 C305 0.930 . S
H317 C306 0.930 . S
H318 C307 0.930 . S
H319 C308 0.931 . S
Fe320 O321 1.886 1_455 S
Fe320 O324 1.715 . S
Fe320 O329 2.077 1_455 S
Fe320 O334 1.935 . S
Fe320 O340 2.077 1_455 S
Fe320 O349 1.935 . S
O321 Fe320 1.886 1_655 S
O321 Fe323 1.715 1_545 S
Fe322 O324 1.886 . S
Fe322 O325 1.715 1_545 S
Fe322 O332 1.935 1_545 S
Fe322 O333 2.077 . S
Fe322 O339 1.935 1_545 S
Fe322 O348 2.077 . S
Fe323 O321 1.715 1_565 S
Fe323 O326 1.886 . S
Fe323 O330 1.935 1_565 S
Fe323 O335 2.077 . S
Fe323 O341 1.935 1_565 S
Fe323 O345 2.077 . S
O324 Fe320 1.715 . S
O324 Fe322 1.886 . S
O325 Fe322 1.715 1_565 S
O325 Fe327 1.886 1_455 S
O326 Fe323 1.886 . S
O326 Fe327 1.715 . S
Fe327 O325 1.886 1_655 S
Fe327 O326 1.715 . S
Fe327 O331 2.077 1_655 S
Fe327 O336 1.935 . S
Fe327 O338 2.077 1_655 S
Fe327 O346 1.935 . S
C328 O340 1.381 . S
C328 O341 1.421 . S
O329 Fe320 2.077 1_655 S
O329 C342 1.381 . S
O330 Fe323 1.935 1_545 S
O330 C342 1.421 . S
O331 Fe327 2.077 1_455 S
O331 C347 1.381 . S
O332 Fe322 1.935 1_565 S
O332 C347 1.421 . S
O333 Fe322 2.077 . S
O333 C337 1.381 . S
O334 Fe320 1.935 . S
O334 C337 1.421 . S
O335 Fe323 2.077 . S
O335 C343 1.381 . S
O336 Fe327 1.935 . S
O336 C343 1.421 . S
C337 O333 1.381 . S
C337 O334 1.421 . S
O338 Fe327 2.077 1_455 S
O338 C350 1.381 . S
O339 Fe322 1.935 1_565 S
O339 C350 1.421 . S
O340 Fe320 2.077 1_655 S
O340 C328 1.381 . S
O341 Fe323 1.935 1_545 S
O341 C328 1.421 . S
C342 O329 1.381 . S
C342 O330 1.421 . S
C343 O335 1.381 . S
C343 O336 1.421 . S
C344 O345 1.381 . S
C344 O346 1.421 . S
O345 Fe323 2.077 . S
O345 C344 1.381 . S
O346 Fe327 1.935 . S
O346 C344 1.421 . S
C347 O331 1.381 . S
C347 O332 1.421 . S
O348 Fe322 2.077 . S
O348 C351 1.381 . S
O349 Fe320 1.935 . S
O349 C351 1.421 . S
C350 O338 1.381 . S
C350 O339 1.421 . S
C351 O348 1.381 . S
C351 O349 1.421 . S
Fe352 O353 1.886 . S
Fe352 O356 1.715 . S
Fe352 O361 2.077 . S
Fe352 O366 1.935 . S
Fe352 O372 2.077 1_556 S
Fe352 O381 1.935 1_556 S
O353 Fe352 1.886 . S
O353 Fe355 1.715 1_565 S
Fe354 O356 1.886 1_554 S
Fe354 O357 1.715 1_565 S
Fe354 O364 1.935 1_564 S
Fe354 O365 2.077 1_554 S
Fe354 O371 1.935 1_565 S
Fe354 O380 2.077 . S
Fe355 O353 1.715 1_545 S
Fe355 O358 1.886 1_556 S
Fe355 O362 1.935 1_545 S
Fe355 O367 2.077 . S
Fe355 O373 1.935 1_546 S
Fe355 O377 2.077 1_556 S
O356 Fe352 1.715 . S
O356 Fe354 1.886 1_556 S
O357 Fe354 1.715 1_545 S
O357 Fe359 1.886 . S
O358 Fe355 1.886 1_554 S
O358 Fe359 1.715 . S
Fe359 O357 1.886 . S
Fe359 O358 1.715 . S
Fe359 O363 2.077 1_554 S
Fe359 O368 1.935 1_554 S
Fe359 O370 2.077 . S
Fe359 O378 1.935 . S
C360 O372 1.381 . S
C360 O373 1.421 . S
O361 Fe352 2.077 . S
O361 C374 1.381 . S
O362 Fe355 1.935 1_565 S
O362 C374 1.421 . S
O363 Fe359 2.077 1_556 S
O363 C379 1.381 . S
O364 Fe354 1.935 1_546 S
O364 C379 1.421 . S
O365 Fe354 2.077 1_556 S
O365 C369 1.381 . S
O366 Fe352 1.935 . S
O366 C369 1.421 . S
O367 Fe355 2.077 . S
O367 C375 1.381 . S
O368 Fe359 1.935 1_556 S
O368 C375 1.421 . S
C369 O365 1.381 . S
C369 O366 1.421 . S
O370 Fe359 2.077 . S
O370 C382 1.381 . S
O371 Fe354 1.935 1_545 S
O371 C382 1.421 . S
O372 Fe352 2.077 1_554 S
O372 C360 1.381 . S
O373 Fe355 1.935 1_564 S
O373 C360 1.421 . S
C374 O361 1.381 . S
C374 O362 1.421 . S
C375 O367 1.381 . S
C375 O368 1.421 . S
C376 O377 1.381 . S
C376 O378 1.421 . S
O377 Fe355 2.077 1_554 S
O377 C376 1.381 . S
O378 Fe359 1.935 . S
O378 C376 1.421 . S
C379 O363 1.381 . S
C379 O364 1.421 . S
O380 Fe354 2.077 . S
O380 C383 1.381 . S
O381 Fe352 1.935 1_554 S
O381 C383 1.421 . S
C382 O370 1.381 . S
C382 O371 1.421 . S
C383 O380 1.381 . S
C383 O381 1.421 . S
Fe384 O385 1.886 1_455 S
Fe384 O388 1.715 . S
Fe384 O393 2.077 1_454 S
Fe384 O398 1.935 1_554 S
Fe384 O404 2.077 1_455 S
Fe384 O413 1.935 . S
O385 Fe384 1.886 1_655 S
O385 Fe387 1.715 . S
Fe386 O388 1.886 1_556 S
Fe386 O389 1.715 . S
Fe386 O396 1.935 . S
Fe386 O397 2.077 . S
Fe386 O403 1.935 1_556 S
Fe386 O412 2.077 1_556 S
Fe387 O385 1.715 . S
Fe387 O390 1.886 1_554 S
Fe387 O394 1.935 1_554 S
Fe387 O399 2.077 1_554 S
Fe387 O405 1.935 . S
Fe387 O409 2.077 . S
O388 Fe384 1.715 . S
O388 Fe386 1.886 1_554 S
O389 Fe386 1.715 . S
O389 Fe391 1.886 1_455 S
O390 Fe387 1.886 1_556 S
O390 Fe391 1.715 . S
Fe391 O389 1.886 1_655 S
Fe391 O390 1.715 . S
Fe391 O395 2.077 1_655 S
Fe391 O400 1.935 . S
Fe391 O402 2.077 1_656 S
Fe391 O410 1.935 1_556 S
C392 O404 1.381 . S
C392 O405 1.421 . S
O393 Fe384 2.077 1_656 S
O393 C406 1.381 . S
O394 Fe387 1.935 1_556 S
O394 C406 1.421 . S
O395 Fe391 2.077 1_455 S
O395 C411 1.381 . S
O396 Fe386 1.935 . S
O396 C411 1.421 . S
O397 Fe386 2.077 . S
O397 C401 1.381 . S
O398 Fe384 1.935 1_556 S
O398 C401 1.421 . S
O399 Fe387 2.077 1_556 S
O399 C407 1.381 . S
O400 Fe391 1.935 . S
O400 C407 1.421 . S
C401 O397 1.381 . S
C401 O398 1.421 . S
O402 Fe391 2.077 1_454 S
O402 C414 1.381 . S
O403 Fe386 1.935 1_554 S
O403 C414 1.421 . S
O404 Fe384 2.077 1_655 S
O404 C392 1.381 . S
O405 Fe387 1.935 . S
O405 C392 1.421 . S
C406 O393 1.381 . S
C406 O394 1.421 . S
C407 O399 1.381 . S
C407 O400 1.421 . S
C408 O409 1.381 . S
C408 O410 1.421 . S
O409 Fe387 2.077 . S
O409 C408 1.381 . S
O410 Fe391 1.935 1_554 S
O410 C408 1.421 . S
C411 O395 1.381 . S
C411 O396 1.421 . S
O412 Fe386 2.077 1_554 S
O412 C415 1.381 . S
O413 Fe384 1.935 . S
O413 C415 1.421 . S
C414 O402 1.381 . S
C414 O403 1.421 . S
C415 O412 1.381 . S
C415 O413 1.421 . S
Fe416 O417 1.886 . S
Fe416 O420 1.715 . S
Fe416 O425 2.077 . S
Fe416 O430 1.935 . S
Fe416 O436 2.077 . S
Fe416 O445 1.935 . S
O417 Fe416 1.886 . S
O417 Fe419 1.715 . S
Fe418 O420 1.886 1_554 S
Fe418 O421 1.715 . S
Fe418 O428 1.935 . S
Fe418 O429 2.077 1_554 S
Fe418 O435 1.935 . S
Fe418 O444 2.077 1_554 S
Fe419 O417 1.715 . S
Fe419 O422 1.886 1_556 S
Fe419 O426 1.935 . S
Fe419 O431 2.077 1_556 S
Fe419 O437 1.935 . S
Fe419 O441 2.077 1_556 S
O420 Fe416 1.715 . S
O420 Fe418 1.886 1_556 S
O421 Fe418 1.715 . S
O421 Fe423 1.886 . S
O422 Fe419 1.886 1_554 S
O422 Fe423 1.715 . S
Fe423 O421 1.886 . S
Fe423 O422 1.715 . S
Fe423 O427 2.077 . S
Fe423 O432 1.935 . S
Fe423 O434 2.077 . S
Fe423 O442 1.935 . S
C424 O436 1.381 . S
C424 O437 1.421 . S
O425 Fe416 2.077 . S
O425 C438 1.381 . S
O426 Fe419 1.935 . S
O426 C438 1.421 . S
O427 Fe423 2.077 . S
O427 C443 1.381 . S
O428 Fe418 1.935 . S
O428 C443 1.421 . S
O429 Fe418 2.077 1_556 S
O429 C433 1.381 . S
O430 Fe416 1.935 . S
O430 C433 1.421 . S
O431 Fe419 2.077 1_554 S
O431 C439 1.381 . S
O432 Fe423 1.935 . S
O432 C439 1.421 . S
C433 O429 1.381 . S
C433 O430 1.421 . S
O434 Fe423 2.077 . S
O434 C446 1.381 . S
O435 Fe418 1.935 . S
O435 C446 1.421 . S
O436 Fe416 2.077 . S
O436 C424 1.381 . S
O437 Fe419 1.935 . S
O437 C424 1.421 . S
C438 O425 1.381 . S
C438 O426 1.421 . S
C439 O431 1.381 . S
C439 O432 1.421 . S
C440 O441 1.381 . S
C440 O442 1.421 . S
O441 Fe419 2.077 1_554 S
O441 C440 1.381 . S
O442 Fe423 1.935 . S
O442 C440 1.421 . S
C443 O427 1.381 . S
C443 O428 1.421 . S
O444 Fe418 2.077 1_556 S
O444 C447 1.381 . S
O445 Fe416 1.935 . S
O445 C447 1.421 . S
C446 O434 1.381 . S
C446 O435 1.421 . S
C447 O444 1.381 . S
C447 O445 1.421 . S
Fe448 O449 1.886 . S
Fe448 O452 1.715 . S
Fe448 O457 2.077 1_655 S
Fe448 O462 1.935 1_655 S
Fe448 O468 2.077 . S
Fe448 O477 1.935 . S
O449 Fe448 1.886 . S
O449 Fe451 1.715 . S
Fe450 O452 1.886 1_455 S
Fe450 O453 1.715 . S
Fe450 O460 1.935 . S
Fe450 O461 2.077 . S
Fe450 O467 1.935 1_455 S
Fe450 O476 2.077 1_455 S
Fe451 O449 1.715 . S
Fe451 O454 1.886 1_655 S
Fe451 O458 1.935 1_655 S
Fe451 O463 2.077 1_655 S
Fe451 O469 1.935 . S
Fe451 O473 2.077 . S
O452 Fe448 1.715 . S
O452 Fe450 1.886 1_655 S
O453 Fe450 1.715 . S
O453 Fe455 1.886 . S
O454 Fe451 1.886 1_455 S
O454 Fe455 1.715 . S
Fe455 O453 1.886 . S
Fe455 O454 1.715 . S
Fe455 O459 2.077 . S
Fe455 O464 1.935 . S
Fe455 O466 2.077 1_455 S
Fe455 O474 1.935 1_455 S
C456 O468 1.381 . S
C456 O469 1.421 . S
O457 Fe448 2.077 1_455 S
O457 C470 1.381 . S
O458 Fe451 1.935 1_455 S
O458 C470 1.421 . S
O459 Fe455 2.077 . S
O459 C475 1.381 . S
O460 Fe450 1.935 . S
O460 C475 1.421 . S
O461 Fe450 2.077 . S
O461 C465 1.381 . S
O462 Fe448 1.935 1_455 S
O462 C465 1.421 . S
O463 Fe451 2.077 1_455 S
O463 C471 1.381 . S
O464 Fe455 1.935 . S
O464 C471 1.421 . S
C465 O461 1.381 . S
C465 O462 1.421 . S
O466 Fe455 2.077 1_655 S
O466 C478 1.381 . S
O467 Fe450 1.935 1_655 S
O467 C478 1.421 . S
O468 Fe448 2.077 . S
O468 C456 1.381 . S
O469 Fe451 1.935 . S
O469 C456 1.421 . S
C470 O457 1.381 . S
C470 O458 1.421 . S
C471 O463 1.381 . S
C471 O464 1.421 . S
C472 O473 1.381 . S
C472 O474 1.421 . S
O473 Fe451 2.077 . S
O473 C472 1.381 . S
O474 Fe455 1.935 1_655 S
O474 C472 1.421 . S
C475 O459 1.381 . S
C475 O460 1.421 . S
O476 Fe450 2.077 1_655 S
O476 C479 1.381 . S
O477 Fe448 1.935 . S
O477 C479 1.421 . S
C478 O466 1.381 . S
C478 O467 1.421 . S
C479 O476 1.381 . S
C479 O477 1.421 . S
Fe480 O481 1.886 . S
Fe480 O484 1.715 . S
Fe480 O489 2.077 . S
Fe480 O494 1.935 . S
Fe480 O500 2.077 . S
Fe480 O509 1.935 . S
O481 Fe480 1.886 . S
O481 Fe483 1.715 1_565 S
Fe482 O484 1.886 . S
Fe482 O485 1.715 1_565 S
Fe482 O492 1.935 1_565 S
Fe482 O493 2.077 . S
Fe482 O499 1.935 1_565 S
Fe482 O508 2.077 . S
Fe483 O481 1.715 1_545 S
Fe483 O486 1.886 . S
Fe483 O490 1.935 1_545 S
Fe483 O495 2.077 . S
Fe483 O501 1.935 1_545 S
Fe483 O505 2.077 . S
O484 Fe480 1.715 . S
O484 Fe482 1.886 . S
O485 Fe482 1.715 1_545 S
O485 Fe487 1.886 . S
O486 Fe483 1.886 . S
O486 Fe487 1.715 . S
Fe487 O485 1.886 . S
Fe487 O486 1.715 . S
Fe487 O491 2.077 . S
Fe487 O496 1.935 . S
Fe487 O498 2.077 . S
Fe487 O506 1.935 . S
C488 O500 1.381 . S
C488 O501 1.421 . S
O489 Fe480 2.077 . S
O489 C502 1.381 . S
O490 Fe483 1.935 1_565 S
O490 C502 1.421 . S
O491 Fe487 2.077 . S
O491 C507 1.381 . S
O492 Fe482 1.935 1_545 S
O492 C507 1.421 . S
O493 Fe482 2.077 . S
O493 C497 1.381 . S
O494 Fe480 1.935 . S
O494 C497 1.421 . S
O495 Fe483 2.077 . S
O495 C503 1.381 . S
O496 Fe487 1.935 . S
O496 C503 1.421 . S
C497 O493 1.381 . S
C497 O494 1.421 . S
O498 Fe487 2.077 . S
O498 C510 1.381 . S
O499 Fe482 1.935 1_545 S
O499 C510 1.421 . S
O500 Fe480 2.077 . S
O500 C488 1.381 . S
O501 Fe483 1.935 1_565 S
O501 C488 1.421 . S
C502 O489 1.381 . S
C502 O490 1.421 . S
C503 O495 1.381 . S
C503 O496 1.421 . S
C504 O505 1.381 . S
C504 O506 1.421 . S
O505 Fe483 2.077 . S
O505 C504 1.381 . S
O506 Fe487 1.935 . S
O506 C504 1.421 . S
C507 O491 1.381 . S
C507 O492 1.421 . S
O508 Fe482 2.077 . S
O508 C511 1.381 . S
O509 Fe480 1.935 . S
O509 C511 1.421 . S
C510 O498 1.381 . S
C510 O499 1.421 . S
C511 O508 1.381 . S
C511 O509 1.421 . S
C512 C513 1.387 . S
C512 H516 0.950 . S
C512 C521 1.390 . S
C513 C512 1.387 . S
C513 C515 1.387 . S
H514 C521 0.950 . S
C515 C513 1.387 . S
C515 C517 1.390 . S
C515 H519 0.950 . S
H516 C512 0.950 . S
C517 C515 1.390 . S
C517 C518 1.387 . S
C517 H520 0.950 . S
C518 C517 1.387 . S
C518 C521 1.387 . S
H519 C515 0.950 . S
H520 C517 0.950 . S
C521 C512 1.390 . S
C521 H514 0.950 . S
C521 C518 1.387 . S
C522 C523 1.387 . S
C522 H526 0.950 . S
C522 C531 1.390 . S
C523 C522 1.387 . S
C523 C525 1.387 . S
H524 C531 0.950 . S
C525 C523 1.387 . S
C525 C527 1.390 . S
C525 H529 0.950 . S
H526 C522 0.950 . S
C527 C525 1.390 . S
C527 C528 1.387 . S
C527 H530 0.950 . S
C528 C527 1.387 . S
C528 C531 1.387 . S
H529 C525 0.950 . S
H530 C527 0.950 . S
C531 C522 1.390 . S
C531 H524 0.950 . S
C531 C528 1.387 . S
C532 C533 1.387 . S
C532 H536 0.950 . S
C532 C541 1.390 . S
C533 C532 1.387 . S
C533 C535 1.387 . S
H534 C541 0.950 . S
C535 C533 1.387 . S
C535 C537 1.390 . S
C535 H539 0.950 . S
H536 C532 0.950 . S
C537 C535 1.390 . S
C537 C538 1.387 . S
C537 H540 0.950 . S
C538 C537 1.387 . S
C538 C541 1.387 . S
H539 C535 0.950 . S
H540 C537 0.950 . S
C541 C532 1.390 . S
C541 H534 0.950 . S
C541 C538 1.387 . S
C542 C543 1.387 . S
C542 H546 0.950 1_455 S
C542 C551 1.390 . S
C543 C542 1.387 . S
C543 C545 1.387 . S
H544 C551 0.950 . S
C545 C543 1.387 . S
C545 C547 1.390 . S
C545 H549 0.950 . S
H546 C542 0.950 1_655 S
C547 C545 1.390 . S
C547 C548 1.387 . S
C547 H550 0.950 . S
C548 C547 1.387 . S
C548 C551 1.387 . S
H549 C545 0.950 . S
H550 C547 0.950 . S
C551 C542 1.390 . S
C551 H544 0.950 . S
C551 C548 1.387 . S
C552 C553 1.387 . S
C552 H556 0.950 . S
C552 C561 1.390 . S
C553 C552 1.387 . S
C553 C555 1.387 . S
H554 C561 0.950 . S
C555 C553 1.387 . S
C555 C557 1.390 . S
C555 H559 0.950 . S
H556 C552 0.950 . S
C557 C555 1.390 . S
C557 C558 1.387 . S
C557 H560 0.950 . S
C558 C557 1.387 . S
C558 C561 1.387 . S
H559 C555 0.950 . S
H560 C557 0.950 . S
C561 C552 1.390 . S
C561 H554 0.950 . S
C561 C558 1.387 . S
C562 C563 1.387 . S
C562 H566 0.950 . S
C562 C571 1.390 . S
C563 C562 1.387 . S
C563 C565 1.387 . S
H564 C571 0.950 . S
C565 C563 1.387 . S
C565 C567 1.390 . S
C565 H569 0.950 . S
H566 C562 0.950 . S
C567 C565 1.390 . S
C567 C568 1.387 . S
C567 H570 0.950 . S
C568 C567 1.387 . S
C568 C571 1.387 . S
H569 C565 0.950 . S
H570 C567 0.950 . S
C571 C562 1.390 . S
C571 H564 0.950 . S
C571 C568 1.387 . S
C572 C573 1.387 . S
C572 H576 0.950 . S
C572 C581 1.390 . S
C573 C572 1.387 . S
C573 C575 1.387 . S
H574 C581 0.950 . S
C575 C573 1.387 . S
C575 C577 1.390 . S
C575 H579 0.950 1_655 S
H576 C572 0.950 . S
C577 C575 1.390 . S
C577 C578 1.387 . S
C577 H580 0.950 . S
C578 C577 1.387 . S
C578 C581 1.387 . S
H579 C575 0.950 1_455 S
H580 C577 0.950 . S
C581 C572 1.390 . S
C581 H574 0.950 . S
C581 C578 1.387 . S
C582 C583 1.387 . S
C582 H586 0.950 . S
C582 C591 1.390 . S
C583 C582 1.387 . S
C583 C585 1.387 . S
H584 C591 0.950 . S
C585 C583 1.387 . S
C585 C587 1.390 . S
C585 H589 0.950 . S
H586 C582 0.950 . S
C587 C585 1.390 . S
C587 C588 1.387 . S
C587 H590 0.950 . S
C588 C587 1.387 . S
C588 C591 1.387 . S
H589 C585 0.950 . S
H590 C587 0.950 . S
C591 C582 1.390 . S
C591 H584 0.950 . S
C591 C588 1.387 . S
C592 C593 1.387 . S
C592 H596 0.950 . S
C592 C601 1.390 . S
C593 C592 1.387 . S
C593 C595 1.387 . S
H594 C601 0.950 . S
C595 C593 1.387 . S
C595 C597 1.390 . S
C595 H599 0.950 . S
H596 C592 0.950 . S
C597 C595 1.390 . S
C597 C598 1.387 . S
C597 H600 0.950 . S
C598 C597 1.387 . S
C598 C601 1.387 . S
H599 C595 0.950 . S
H600 C597 0.950 . S
C601 C592 1.390 . S
C601 H594 0.950 . S
C601 C598 1.387 . S
C602 C603 1.387 . S
C602 H606 0.950 . S
C602 C611 1.390 . S
C603 C602 1.387 . S
C603 C605 1.387 . S
H604 C611 0.950 . S
C605 C603 1.387 . S
C605 C607 1.390 . S
C605 H609 0.950 . S
H606 C602 0.950 . S
C607 C605 1.390 . S
C607 C608 1.387 . S
C607 H610 0.950 . S
C608 C607 1.387 . S
C608 C611 1.387 . S
H609 C605 0.950 . S
H610 C607 0.950 . S
C611 C602 1.390 . S
C611 H604 0.950 . S
C611 C608 1.387 . S
C612 C613 1.387 . S
C612 H616 0.950 . S
C612 C621 1.390 . S
C613 C612 1.387 . S
C613 C615 1.387 . S
H614 C621 0.950 . S
C615 C613 1.387 . S
C615 C617 1.390 . S
C615 H619 0.950 . S
H616 C612 0.950 . S
C617 C615 1.390 . S
C617 C618 1.387 . S
C617 H620 0.950 . S
C618 C617 1.387 . S
C618 C621 1.387 . S
H619 C615 0.950 . S
H620 C617 0.950 . S
C621 C612 1.390 . S
C621 H614 0.950 . S
C621 C618 1.387 . S
C622 C623 1.387 . S
C622 H626 0.950 . S
C622 C631 1.390 . S
C623 C622 1.387 . S
C623 C625 1.387 . S
H624 C631 0.950 . S
C625 C623 1.387 . S
C625 C627 1.390 . S
C625 H629 0.950 . S
H626 C622 0.950 . S
C627 C625 1.390 . S
C627 C628 1.387 . S
C627 H630 0.950 . S
C628 C627 1.387 . S
C628 C631 1.387 . S
H629 C625 0.950 . S
H630 C627 0.950 . S
C631 C622 1.390 . S
C631 H624 0.950 . S
C631 C628 1.387 . S
C632 C633 1.387 . S
C632 H636 0.950 . S
C632 C641 1.390 . S
C633 C632 1.387 . S
C633 C635 1.387 . S
H634 C641 0.950 . S
C635 C633 1.387 . S
C635 C637 1.390 . S
C635 H639 0.950 . S
H636 C632 0.950 . S
C637 C635 1.390 . S
C637 C638 1.387 . S
C637 H640 0.950 . S
C638 C637 1.387 . S
C638 C641 1.387 . S
H639 C635 0.950 . S
H640 C637 0.950 . S
C641 C632 1.390 . S
C641 H634 0.950 . S
C641 C638 1.387 . S
C642 C643 1.387 . S
C642 H646 0.950 . S
C642 C651 1.390 . S
C643 C642 1.387 . S
C643 C645 1.387 . S
H644 C651 0.950 . S
C645 C643 1.387 . S
C645 C647 1.390 . S
C645 H649 0.950 . S
H646 C642 0.950 . S
C647 C645 1.390 . S
C647 C648 1.387 . S
C647 H650 0.950 . S
C648 C647 1.387 . S
C648 C651 1.387 . S
H649 C645 0.950 . S
H650 C647 0.950 . S
C651 C642 1.390 . S
C651 H644 0.950 . S
C651 C648 1.387 . S
C652 C653 1.387 . S
C652 H656 0.950 . S
C652 C661 1.390 . S
C653 C652 1.387 . S
C653 C655 1.387 . S
H654 C661 0.950 . S
C655 C653 1.387 . S
C655 C657 1.390 . S
C655 H659 0.950 . S
H656 C652 0.950 . S
C657 C655 1.390 . S
C657 C658 1.387 . S
C657 H660 0.950 . S
C658 C657 1.387 . S
C658 C661 1.387 . S
H659 C655 0.950 . S
H660 C657 0.950 . S
C661 C652 1.390 . S
C661 H654 0.950 . S
C661 C658 1.387 . S
C662 C663 1.387 . S
C662 H666 0.950 . S
C662 C671 1.390 . S
C663 C662 1.387 . S
C663 C665 1.387 . S
H664 C671 0.950 . S
C665 C663 1.387 . S
C665 C667 1.390 . S
C665 H669 0.950 . S
H666 C662 0.950 . S
C667 C665 1.390 . S
C667 C668 1.387 . S
C667 H670 0.950 . S
C668 C667 1.387 . S
C668 C671 1.387 . S
H669 C665 0.950 . S
H670 C667 0.950 . S
C671 C662 1.390 . S
C671 H664 0.950 . S
C671 C668 1.387 . S
C672 C673 1.387 . S
C672 H676 0.950 . S
C672 C681 1.390 . S
C673 C672 1.387 . S
C673 C675 1.387 . S
H674 C681 0.950 . S
C675 C673 1.387 . S
C675 C677 1.390 . S
C675 H679 0.950 . S
H676 C672 0.950 . S
C677 C675 1.390 . S
C677 C678 1.387 . S
C677 H680 0.950 . S
C678 C677 1.387 . S
C678 C681 1.387 . S
H679 C675 0.950 . S
H680 C677 0.950 . S
C681 C672 1.390 . S
C681 H674 0.950 . S
C681 C678 1.387 . S
C682 C683 1.387 . S
C682 H686 0.950 . S
C682 C691 1.390 . S
C683 C682 1.387 . S
C683 C685 1.387 . S
H684 C691 0.950 . S
C685 C683 1.387 . S
C685 C687 1.390 . S
C685 H689 0.950 . S
H686 C682 0.950 . S
C687 C685 1.390 . S
C687 C688 1.387 . S
C687 H690 0.950 . S
C688 C687 1.387 . S
C688 C691 1.387 . S
H689 C685 0.950 . S
H690 C687 0.950 . S
C691 C682 1.390 . S
C691 H684 0.950 . S
C691 C688 1.387 . S
C692 C693 1.387 . S
C692 H696 0.950 . S
C692 C701 1.390 . S
C693 C692 1.387 . S
C693 C695 1.387 . S
H694 C701 0.950 . S
C695 C693 1.387 . S
C695 C697 1.390 . S
C695 H699 0.950 . S
H696 C692 0.950 . S
C697 C695 1.390 . S
C697 C698 1.387 . S
C697 H700 0.939 1_545 S
C698 C697 1.387 . S
C698 C701 1.387 . S
H699 C695 0.950 . S
H700 C697 0.939 1_565 S
C701 C692 1.390 . S
C701 H694 0.950 . S
C701 C698 1.387 . S
C702 C703 1.387 . S
C702 H706 0.950 . S
C702 C711 1.390 . S
C703 C702 1.387 . S
C703 C705 1.387 . S
H704 C711 0.950 . S
C705 C703 1.387 . S
C705 C707 1.390 . S
C705 H709 0.950 . S
H706 C702 0.950 . S
C707 C705 1.390 . S
C707 C708 1.387 . S
C707 H710 0.950 . S
C708 C707 1.387 . S
C708 C711 1.387 . S
H709 C705 0.950 . S
H710 C707 0.950 . S
C711 C702 1.390 . S
C711 H704 0.950 . S
C711 C708 1.387 . S
C712 C713 1.387 . S
C712 H716 0.950 . S
C712 C721 1.390 . S
C713 C712 1.387 . S
C713 C715 1.387 . S
H714 C721 0.950 . S
C715 C713 1.387 . S
C715 C717 1.390 . S
C715 H719 0.950 . S
H716 C712 0.950 . S
C717 C715 1.390 . S
C717 C718 1.387 . S
C717 H720 0.950 . S
C718 C717 1.387 . S
C718 C721 1.387 . S
H719 C715 0.950 . S
H720 C717 0.950 . S
C721 C712 1.390 . S
C721 H714 0.950 . S
C721 C718 1.387 . S
C722 C723 1.387 . S
C722 H726 0.950 . S
C722 C731 1.390 . S
C723 C722 1.387 . S
C723 C725 1.387 . S
H724 C731 0.950 . S
C725 C723 1.387 . S
C725 C727 1.390 . S
C725 H729 0.950 . S
H726 C722 0.950 . S
C727 C725 1.390 . S
C727 C728 1.387 . S
C727 H730 0.950 . S
C728 C727 1.387 . S
C728 C731 1.387 . S
H729 C725 0.950 . S
H730 C727 0.950 . S
C731 C722 1.390 . S
C731 H724 0.950 . S
C731 C728 1.387 . S
C732 C733 1.387 . S
C732 H736 0.950 . S
C732 C741 1.390 . S
C733 C732 1.387 . S
C733 C735 1.387 . S
H734 C741 0.950 . S
C735 C733 1.387 . S
C735 C737 1.390 . S
C735 H739 0.950 . S
H736 C732 0.950 . S
C737 C735 1.390 . S
C737 C738 1.387 . S
C737 H740 0.950 . S
C738 C737 1.387 . S
C738 C741 1.387 . S
H739 C735 0.950 . S
H740 C737 0.950 . S
C741 C732 1.390 . S
C741 H734 0.950 . S
C741 C738 1.387 . S
C742 C743 1.387 . S
C742 H746 0.950 . S
C742 C751 1.390 . S
C743 C742 1.387 . S
C743 C745 1.387 . S
H744 C751 0.950 . S
C745 C743 1.387 . S
C745 C747 1.390 . S
C745 H749 0.950 . S
H746 C742 0.950 . S
C747 C745 1.390 . S
C747 C748 1.387 . S
C747 H750 0.950 . S
C748 C747 1.387 . S
C748 C751 1.387 . S
H749 C745 0.950 . S
H750 C747 0.950 . S
C751 C742 1.390 . S
C751 H744 0.950 . S
C751 C748 1.387 . S
C752 C753 1.387 . S
C752 H756 0.950 . S
C752 C761 1.390 . S
C753 C752 1.387 . S
C753 C755 1.387 . S
H754 C761 0.950 . S
C755 C753 1.387 . S
C755 C757 1.390 . S
C755 H759 0.950 . S
H756 C752 0.950 . S
C757 C755 1.390 . S
C757 C758 1.387 . S
C757 H760 0.950 . S
C758 C757 1.387 . S
C758 C761 1.387 . S
H759 C755 0.950 . S
H760 C757 0.950 . S
C761 C752 1.390 . S
C761 H754 0.950 . S
C761 C758 1.387 . S
C762 C763 1.387 . S
C762 H766 0.950 . S
C762 C771 1.390 . S
C763 C762 1.387 . S
C763 C765 1.387 . S
H764 C771 0.950 . S
C765 C763 1.387 . S
C765 C767 1.390 . S
C765 H769 0.950 . S
H766 C762 0.950 . S
C767 C765 1.390 . S
C767 C768 1.387 . S
C767 H770 0.950 . S
C768 C767 1.387 . S
C768 C771 1.387 . S
H769 C765 0.950 . S
H770 C767 0.950 . S
C771 C762 1.390 . S
C771 H764 0.950 . S
C771 C768 1.387 . S
C772 C773 1.387 . S
C772 H776 0.950 . S
C772 C781 1.390 . S
C773 C772 1.387 . S
C773 C775 1.387 . S
H774 C781 0.950 . S
C775 C773 1.387 . S
C775 C777 1.390 . S
C775 H779 0.950 . S
H776 C772 0.950 . S
C777 C775 1.390 . S
C777 C778 1.387 . S
C777 H780 0.950 . S
C778 C777 1.387 . S
C778 C781 1.387 . S
H779 C775 0.950 . S
H780 C777 0.950 . S
C781 C772 1.390 . S
C781 H774 0.950 . S
C781 C778 1.387 . S
C782 C783 1.387 . S
C782 H786 0.950 . S
C782 C791 1.390 . S
C783 C782 1.387 . S
C783 C785 1.387 . S
H784 C791 0.950 . S
C785 C783 1.387 . S
C785 C787 1.390 . S
C785 H789 0.950 . S
H786 C782 0.950 . S
C787 C785 1.390 . S
C787 C788 1.387 . S
C787 H790 0.950 . S
C788 C787 1.387 . S
C788 C791 1.387 . S
H789 C785 0.950 . S
H790 C787 0.950 . S
C791 C782 1.390 . S
C791 H784 0.950 . S
C791 C788 1.387 . S
C792 C793 1.387 . S
C792 H796 0.950 . S
C792 C801 1.390 . S
C793 C792 1.387 . S
C793 C795 1.387 . S
H794 C801 0.950 . S
C795 C793 1.387 . S
C795 C797 1.390 . S
C795 H799 0.950 . S
H796 C792 0.950 . S
C797 C795 1.390 . S
C797 C798 1.387 . S
C797 H800 0.950 . S
C798 C797 1.387 . S
C798 C801 1.387 . S
H799 C795 0.950 . S
H800 C797 0.950 . S
C801 C792 1.390 . S
C801 H794 0.950 . S
C801 C798 1.387 . S
C802 C803 1.387 . S
C802 H806 0.950 . S
C802 C811 1.390 . S
C803 C802 1.387 . S
C803 C805 1.387 . S
H804 C811 0.950 . S
C805 C803 1.387 . S
C805 C807 1.390 . S
C805 H809 0.950 . S
H806 C802 0.950 . S
C807 C805 1.390 . S
C807 C808 1.387 . S
C807 H810 0.950 . S
C808 C807 1.387 . S
C808 C811 1.387 . S
H809 C805 0.950 . S
H810 C807 0.950 . S
C811 C802 1.390 . S
C811 H804 0.950 . S
C811 C808 1.387 . S
C812 C813 1.387 . S
C812 H816 0.950 . S
C812 C821 1.390 . S
C813 C812 1.387 . S
C813 C815 1.387 . S
H814 C821 0.950 . S
C815 C813 1.387 . S
C815 C817 1.390 . S
C815 H819 0.950 . S
H816 C812 0.950 . S
C817 C815 1.390 . S
C817 C818 1.387 . S
C817 H820 0.950 . S
C818 C817 1.387 . S
C818 C821 1.387 . S
H819 C815 0.950 . S
H820 C817 0.950 . S
C821 C812 1.390 . S
C821 H814 0.950 . S
C821 C818 1.387 . S
C822 C823 1.387 . S
C822 H826 0.950 . S
C822 C831 1.390 . S
C823 C822 1.387 . S
C823 C825 1.387 . S
H824 C831 0.950 . S
C825 C823 1.387 . S
C825 C827 1.390 . S
C825 H829 0.950 . S
H826 C822 0.950 . S
C827 C825 1.390 . S
C827 C828 1.387 . S
C827 H830 0.950 . S
C828 C827 1.387 . S
C828 C831 1.387 . S
H829 C825 0.950 . S
H830 C827 0.950 . S
C831 C822 1.390 . S
C831 H824 0.950 . S
C831 C828 1.387 . S
C832 C833 1.387 . S
C832 H836 0.950 . S
C832 C841 1.390 . S
C833 C832 1.387 . S
C833 C835 1.387 . S
H834 C841 0.950 . S
C835 C833 1.387 . S
C835 C837 1.390 . S
C835 H839 0.950 . S
H836 C832 0.950 . S
C837 C835 1.390 . S
C837 C838 1.387 . S
C837 H840 0.950 . S
C838 C837 1.387 . S
C838 C841 1.387 . S
H839 C835 0.950 . S
H840 C837 0.950 . S
C841 C832 1.390 . S
C841 H834 0.950 . S
C841 C838 1.387 . S
C842 C843 1.387 . S
C842 H846 0.950 . S
C842 C851 1.390 . S
C843 C842 1.387 . S
C843 C845 1.387 . S
H844 C851 0.950 . S
C845 C843 1.387 . S
C845 C847 1.390 . S
C845 H849 0.950 . S
H846 C842 0.950 . S
C847 C845 1.390 . S
C847 C848 1.387 . S
C847 H850 0.950 . S
C848 C847 1.387 . S
C848 C851 1.387 . S
H849 C845 0.950 . S
H850 C847 0.950 . S
C851 C842 1.390 . S
C851 H844 0.950 . S
C851 C848 1.387 . S
C852 C853 1.387 . S
C852 H856 0.950 . S
C852 C861 1.390 . S
C853 C852 1.387 . S
C853 C855 1.387 . S
H854 C861 0.950 . S
C855 C853 1.387 . S
C855 C857 1.390 . S
C855 H859 0.950 . S
H856 C852 0.950 . S
C857 C855 1.390 . S
C857 C858 1.387 . S
C857 H860 0.950 . S
C858 C857 1.387 . S
C858 C861 1.387 . S
H859 C855 0.950 . S
H860 C857 0.950 . S
C861 C852 1.390 . S
C861 H854 0.950 . S
C861 C858 1.387 . S
C862 C863 1.387 . S
C862 H866 0.950 . S
C862 C871 1.390 . S
C863 C862 1.387 . S
C863 C865 1.387 . S
H864 C871 0.950 . S
C865 C863 1.387 . S
C865 C867 1.390 . S
C865 H869 0.950 . S
H866 C862 0.950 . S
C867 C865 1.390 . S
C867 C868 1.387 . S
C867 H870 0.950 . S
C868 C867 1.387 . S
C868 C871 1.387 . S
H869 C865 0.950 . S
H870 C867 0.950 . S
C871 C862 1.390 . S
C871 H864 0.950 . S
C871 C868 1.387 . S
C872 C873 1.387 . S
C872 H876 0.950 . S
C872 C881 1.390 . S
C873 C872 1.387 . S
C873 C875 1.387 . S
H874 C881 0.950 . S
C875 C873 1.387 . S
C875 C877 1.390 . S
C875 H879 0.950 . S
H876 C872 0.950 . S
C877 C875 1.390 . S
C877 C878 1.387 . S
C877 H880 0.950 . S
C878 C877 1.387 . S
C878 C881 1.387 . S
H879 C875 0.950 . S
H880 C877 0.950 . S
C881 C872 1.390 . S
C881 H874 0.950 . S
C881 C878 1.387 . S
C882 C883 1.387 . S
C882 H886 0.950 . S
C882 C891 1.390 . S
C883 C882 1.387 . S
C883 C885 1.387 . S
H884 C891 0.950 . S
C885 C883 1.387 . S
C885 C887 1.390 . S
C885 H889 0.950 . S
H886 C882 0.950 . S
C887 C885 1.390 . S
C887 C888 1.387 . S
C887 H890 0.950 . S
C888 C887 1.387 . S
C888 C891 1.387 . S
H889 C885 0.950 . S
H890 C887 0.950 . S
C891 C882 1.390 . S
C891 H884 0.950 . S
C891 C888 1.387 . S
C892 C893 1.387 . S
C892 H896 0.950 . S
C892 C901 1.390 . S
C893 C892 1.387 . S
C893 C895 1.387 . S
H894 C901 0.950 . S
C895 C893 1.387 . S
C895 C897 1.390 . S
C895 H899 0.950 . S
H896 C892 0.950 . S
C897 C895 1.390 . S
C897 C898 1.387 . S
C897 H900 0.950 . S
C898 C897 1.387 . S
C898 C901 1.387 . S
H899 C895 0.950 . S
H900 C897 0.950 . S
C901 C892 1.390 . S
C901 H894 0.950 . S
C901 C898 1.387 . S
C902 C903 1.387 . S
C902 H906 0.950 . S
C902 C911 1.390 . S
C903 C902 1.387 . S
C903 C905 1.387 . S
H904 C911 0.950 . S
C905 C903 1.387 . S
C905 C907 1.390 . S
C905 H909 0.950 . S
H906 C902 0.950 . S
C907 C905 1.390 . S
C907 C908 1.387 . S
C907 H910 0.950 . S
C908 C907 1.387 . S
C908 C911 1.387 . S
H909 C905 0.950 . S
H910 C907 0.950 . S
C911 C902 1.390 . S
C911 H904 0.950 . S
C911 C908 1.387 . S
C912 C913 1.387 . S
C912 H916 0.950 . S
C912 C921 1.390 . S
C913 C912 1.387 . S
C913 C915 1.387 . S
H914 C921 0.950 . S
C915 C913 1.387 . S
C915 C917 1.390 . S
C915 H919 0.950 . S
H916 C912 0.950 . S
C917 C915 1.390 . S
C917 C918 1.387 . S
C917 H920 0.950 . S
C918 C917 1.387 . S
C918 C921 1.387 . S
H919 C915 0.950 . S
H920 C917 0.950 . S
C921 C912 1.390 . S
C921 H914 0.950 . S
C921 C918 1.387 . S
C922 C923 1.387 . S
C922 H926 0.950 . S
C922 C931 1.390 . S
C923 C922 1.387 . S
C923 C925 1.387 . S
H924 C931 0.950 . S
C925 C923 1.387 . S
C925 C927 1.390 . S
C925 H929 0.950 . S
H926 C922 0.950 . S
C927 C925 1.390 . S
C927 C928 1.387 . S
C927 H930 0.950 . S
C928 C927 1.387 . S
C928 C931 1.387 . S
H929 C925 0.950 . S
H930 C927 0.950 . S
C931 C922 1.390 . S
C931 H924 0.950 . S
C931 C928 1.387 . S
C932 C933 1.387 . S
C932 H936 0.950 . S
C932 C941 1.390 . S
C933 C932 1.387 . S
C933 C935 1.387 . S
H934 C941 0.950 . S
C935 C933 1.387 . S
C935 C937 1.390 . S
C935 H939 0.950 . S
H936 C932 0.950 . S
C937 C935 1.390 . S
C937 C938 1.387 . S
C937 H940 0.950 . S
C938 C937 1.387 . S
C938 C941 1.387 . S
H939 C935 0.950 . S
H940 C937 0.950 . S
C941 C932 1.390 . S
C941 H934 0.950 . S
C941 C938 1.387 . S
C942 C943 1.387 . S
C942 H946 0.950 . S
C942 C951 1.390 . S
C943 C942 1.387 . S
C943 C945 1.387 . S
H944 C951 0.950 . S
C945 C943 1.387 . S
C945 C947 1.390 . S
C945 H949 0.950 . S
H946 C942 0.950 . S
C947 C945 1.390 . S
C947 C948 1.387 . S
C947 H950 0.950 . S
C948 C947 1.387 . S
C948 C951 1.387 . S
H949 C945 0.950 . S
H950 C947 0.950 . S
C951 C942 1.390 . S
C951 H944 0.950 . S
C951 C948 1.387 . S
C952 C953 1.387 . S
C952 H956 0.950 . S
C952 C961 1.390 . S
C953 C952 1.387 . S
C953 C955 1.387 . S
H954 C961 0.950 . S
C955 C953 1.387 . S
C955 C957 1.390 . S
C955 H959 0.950 . S
H956 C952 0.950 . S
C957 C955 1.390 . S
C957 C958 1.387 . S
C957 H960 0.950 . S
C958 C957 1.387 . S
C958 C961 1.387 . S
H959 C955 0.950 . S
H960 C957 0.950 . S
C961 C952 1.390 . S
C961 H954 0.950 . S
C961 C958 1.387 . S
C962 C963 1.387 . S
C962 H966 0.950 . S
C962 C971 1.390 . S
C963 C962 1.387 . S
C963 C965 1.387 . S
H964 C971 0.950 . S
C965 C963 1.387 . S
C965 C967 1.390 . S
C965 H969 0.950 . S
H966 C962 0.950 . S
C967 C965 1.390 . S
C967 C968 1.387 . S
C967 H970 0.950 . S
C968 C967 1.387 . S
C968 C971 1.387 . S
H969 C965 0.950 . S
H970 C967 0.950 . S
C971 C962 1.390 . S
C971 H964 0.950 . S
C971 C968 1.387 . S
C972 C973 1.387 . S
C972 H976 0.950 . S
C972 C981 1.390 . S
C973 C972 1.387 . S
C973 C975 1.387 . S
H974 C981 0.950 . S
C975 C973 1.387 . S
C975 C977 1.390 . S
C975 H979 0.950 . S
H976 C972 0.950 . S
C977 C975 1.390 . S
C977 C978 1.387 . S
C977 H980 0.950 . S
C978 C977 1.387 . S
C978 C981 1.387 . S
H979 C975 0.950 . S
H980 C977 0.950 . S
C981 C972 1.390 . S
C981 H974 0.950 . S
C981 C978 1.387 . S
C982 C983 1.387 . S
C982 H986 0.950 . S
C982 C991 1.390 . S
C983 C982 1.387 . S
C983 C985 1.387 . S
H984 C991 0.950 . S
C985 C983 1.387 . S
C985 C987 1.390 . S
C985 H989 0.950 . S
H986 C982 0.950 . S
C987 C985 1.390 . S
C987 C988 1.387 . S
C987 H990 0.950 . S
C988 C987 1.387 . S
C988 C991 1.387 . S
H989 C985 0.950 . S
H990 C987 0.950 . S
C991 C982 1.390 . S
C991 H984 0.950 . S
C991 C988 1.387 . S
C518 C337 1.908 . S
C513 C2 1.924 . S
C528 C342 1.265 . S
C523 C48 1.272 . S
C538 C343 1.564 . S
C533 C97 1.568 . S
C543 C149 0.777 . S
C548 C347 0.789 . S
C553 C189 1.269 . S
C558 C350 1.261 . S
C568 C351 1.564 . S
C563 C202 1.568 . S
C573 C248 0.775 . S
C578 C328 0.789 . S
C583 C297 1.925 . S
C588 C344 1.909 . S
C598 C382 2.590 . S
C593 C31 2.704 . S
C603 C52 1.724 . S
C608 C408 1.689 . S
C618 C360 1.274 . S
C613 C88 1.292 . S
C628 C415 1.468 . S
C623 C122 1.450 . S
C633 C162 1.539 . S
C638 C369 1.523 . S
C648 C411 2.575 . S
C643 C231 2.688 . S
C653 C252 1.758 . S
C658 C375 1.736 . S
C663 C288 1.341 . S
C668 C406 1.354 . S
C673 C29 1.341 . S
C678 C414 1.349 . S
C683 C191 1.724 . S
C688 C401 1.692 . S
C698 C379 1.270 . S
C693 C229 1.291 . S
C708 C407 1.469 . S
C703 C257 1.455 . S
C713 C292 2.706 . S
C718 C374 2.591 . S
C723 C92 2.687 . S
C728 C392 2.576 . S
C738 C383 1.734 . S
C733 C151 1.757 . S
C743 C57 1.539 . S
C748 C376 1.517 . S
C753 C282 1.894 . S
C758 C438 1.827 . S
C763 C168 1.251 . S
C768 C433 1.202 . S
C778 C447 1.419 . S
C773 C217 1.545 . S
C788 C424 0.577 . S
C783 C269 0.781 . S
C793 C69 1.249 . S
C798 C440 1.197 . S
C808 C439 1.420 . S
C803 C82 1.541 . S
C813 C128 0.779 . S
C818 C443 0.578 . S
C823 C17 1.894 . S
C828 C446 1.823 . S
C833 C311 2.718 . S
C838 C472 2.701 . S
C848 C488 1.637 . S
C843 C172 1.723 . S
C853 C208 1.300 . S
C858 C470 1.323 . S
C863 C242 1.460 . S
C868 C503 1.458 . S
C878 C479 1.503 . S
C873 C42 1.527 . S
C883 C111 2.718 . S
C888 C497 2.656 . S
C898 C475 1.644 . S
C893 C132 1.736 . S
C908 C510 1.273 . S
C903 C8 1.357 . S
C918 C502 1.268 . S
C913 C309 1.356 . S
C923 C71 1.722 . S
C928 C507 1.637 . S
C933 C109 1.302 . S
C938 C478 1.326 . S
C948 C511 1.458 . S
C943 C137 1.461 . S
C953 C12 2.717 . S
C958 C465 2.702 . S
C963 C212 2.718 . S
C968 C504 2.653 . S
C978 C456 1.642 . S
C973 C271 1.735 . S
C988 C471 1.503 . S
C983 C177 1.526 . S
