# Generated by pormake.
# Topology soc, (4,6)-cn, num edge types: 1
# Building blocks:
#     Node 0, Type 0, BuildingBlock: ESEHIV_clean_sbu_0, # of connection points: 4
#     Node 1, Type 0, BuildingBlock: ESEHIV_clean_sbu_0, # of connection points: 4
#     Node 2, Type 0, BuildingBlock: ESEHIV_clean_sbu_0, # of connection points: 4
#     Node 3, Type 0, BuildingBlock: ESEHIV_clean_sbu_0, # of connection points: 4
#     Node 4, Type 0, BuildingBlock: ESEHIV_clean_sbu_0, # of connection points: 4
#     Node 5, Type 0, BuildingBlock: ESEHIV_clean_sbu_0, # of connection points: 4
#     Node 6, Type 0, BuildingBlock: ESEHIV_clean_sbu_0, # of connection points: 4
#     Node 7, Type 0, BuildingBlock: ESEHIV_clean_sbu_0, # of connection points: 4
#     Node 8, Type 0, BuildingBlock: ESEHIV_clean_sbu_0, # of connection points: 4
#     Node 9, Type 0, BuildingBlock: ESEHIV_clean_sbu_0, # of connection points: 4
#     Node 10, Type 0, BuildingBlock: ESEHIV_clean_sbu_0, # of connection points: 4
#     Node 11, Type 0, BuildingBlock: ESEHIV_clean_sbu_0, # of connection points: 4
#     Node 12, Type 1, BuildingBlock: PAMTOO_clean_sbu_0, # of connection points: 6
#     Node 13, Type 1, BuildingBlock: PAMTOO_clean_sbu_0, # of connection points: 6
#     Node 14, Type 1, BuildingBlock: PAMTOO_clean_sbu_0, # of connection points: 6
#     Node 15, Type 1, BuildingBlock: PAMTOO_clean_sbu_0, # of connection points: 6
#     Node 16, Type 1, BuildingBlock: PAMTOO_clean_sbu_0, # of connection points: 6
#     Node 17, Type 1, BuildingBlock: PAMTOO_clean_sbu_0, # of connection points: 6
#     Node 18, Type 1, BuildingBlock: PAMTOO_clean_sbu_0, # of connection points: 6
#     Node 19, Type 1, BuildingBlock: PAMTOO_clean_sbu_0, # of connection points: 6
#     Edge 20, Type (0, 1), BuildingBlock: EZIPEK_clean_linker_0, # of connection points: 2
#     Edge 21, Type (0, 1), BuildingBlock: EZIPEK_clean_linker_0, # of connection points: 2
#     Edge 22, Type (0, 1), BuildingBlock: EZIPEK_clean_linker_0, # of connection points: 2
#     Edge 23, Type (0, 1), BuildingBlock: EZIPEK_clean_linker_0, # of connection points: 2
#     Edge 24, Type (0, 1), BuildingBlock: EZIPEK_clean_linker_0, # of connection points: 2
#     Edge 25, Type (0, 1), BuildingBlock: EZIPEK_clean_linker_0, # of connection points: 2
#     Edge 26, Type (0, 1), BuildingBlock: EZIPEK_clean_linker_0, # of connection points: 2
#     Edge 27, Type (0, 1), BuildingBlock: EZIPEK_clean_linker_0, # of connection points: 2
#     Edge 28, Type (0, 1), BuildingBlock: EZIPEK_clean_linker_0, # of connection points: 2
#     Edge 29, Type (0, 1), BuildingBlock: EZIPEK_clean_linker_0, # of connection points: 2
#     Edge 30, Type (0, 1), BuildingBlock: EZIPEK_clean_linker_0, # of connection points: 2
#     Edge 31, Type (0, 1), BuildingBlock: EZIPEK_clean_linker_0, # of connection points: 2
#     Edge 32, Type (0, 1), BuildingBlock: EZIPEK_clean_linker_0, # of connection points: 2
#     Edge 33, Type (0, 1), BuildingBlock: EZIPEK_clean_linker_0, # of connection points: 2
#     Edge 34, Type (0, 1), BuildingBlock: EZIPEK_clean_linker_0, # of connection points: 2
#     Edge 35, Type (0, 1), BuildingBlock: EZIPEK_clean_linker_0, # of connection points: 2
#     Edge 36, Type (0, 1), BuildingBlock: EZIPEK_clean_linker_0, # of connection points: 2
#     Edge 37, Type (0, 1), BuildingBlock: EZIPEK_clean_linker_0, # of connection points: 2
#     Edge 38, Type (0, 1), BuildingBlock: EZIPEK_clean_linker_0, # of connection points: 2
#     Edge 39, Type (0, 1), BuildingBlock: EZIPEK_clean_linker_0, # of connection points: 2
#     Edge 40, Type (0, 1), BuildingBlock: EZIPEK_clean_linker_0, # of connection points: 2
#     Edge 41, Type (0, 1), BuildingBlock: EZIPEK_clean_linker_0, # of connection points: 2
#     Edge 42, Type (0, 1), BuildingBlock: EZIPEK_clean_linker_0, # of connection points: 2
#     Edge 43, Type (0, 1), BuildingBlock: EZIPEK_clean_linker_0, # of connection points: 2
#     Edge 44, Type (0, 1), BuildingBlock: EZIPEK_clean_linker_0, # of connection points: 2
#     Edge 45, Type (0, 1), BuildingBlock: EZIPEK_clean_linker_0, # of connection points: 2
#     Edge 46, Type (0, 1), BuildingBlock: EZIPEK_clean_linker_0, # of connection points: 2
#     Edge 47, Type (0, 1), BuildingBlock: EZIPEK_clean_linker_0, # of connection points: 2
#     Edge 48, Type (0, 1), BuildingBlock: EZIPEK_clean_linker_0, # of connection points: 2
#     Edge 49, Type (0, 1), BuildingBlock: EZIPEK_clean_linker_0, # of connection points: 2
#     Edge 50, Type (0, 1), BuildingBlock: EZIPEK_clean_linker_0, # of connection points: 2
#     Edge 51, Type (0, 1), BuildingBlock: EZIPEK_clean_linker_0, # of connection points: 2
#     Edge 52, Type (0, 1), BuildingBlock: EZIPEK_clean_linker_0, # of connection points: 2
#     Edge 53, Type (0, 1), BuildingBlock: EZIPEK_clean_linker_0, # of connection points: 2
#     Edge 54, Type (0, 1), BuildingBlock: EZIPEK_clean_linker_0, # of connection points: 2
#     Edge 55, Type (0, 1), BuildingBlock: EZIPEK_clean_linker_0, # of connection points: 2
#     Edge 56, Type (0, 1), BuildingBlock: EZIPEK_clean_linker_0, # of connection points: 2
#     Edge 57, Type (0, 1), BuildingBlock: EZIPEK_clean_linker_0, # of connection points: 2
#     Edge 58, Type (0, 1), BuildingBlock: EZIPEK_clean_linker_0, # of connection points: 2
#     Edge 59, Type (0, 1), BuildingBlock: EZIPEK_clean_linker_0, # of connection points: 2
#     Edge 60, Type (0, 1), BuildingBlock: EZIPEK_clean_linker_0, # of connection points: 2
#     Edge 61, Type (0, 1), BuildingBlock: EZIPEK_clean_linker_0, # of connection points: 2
#     Edge 62, Type (0, 1), BuildingBlock: EZIPEK_clean_linker_0, # of connection points: 2
#     Edge 63, Type (0, 1), BuildingBlock: EZIPEK_clean_linker_0, # of connection points: 2
#     Edge 64, Type (0, 1), BuildingBlock: EZIPEK_clean_linker_0, # of connection points: 2
#     Edge 65, Type (0, 1), BuildingBlock: EZIPEK_clean_linker_0, # of connection points: 2
#     Edge 66, Type (0, 1), BuildingBlock: EZIPEK_clean_linker_0, # of connection points: 2
#     Edge 67, Type (0, 1), BuildingBlock: EZIPEK_clean_linker_0, # of connection points: 2
# Relax obj value: 0.142
# Max RMSD: 0.261
# Mean RMSD: 0.161
data_MOF--net-soc--node1-ESEHIV_clean_sbu_0--node2-PAMTOO_clean_sbu_0--edge1-EZIPEK_clean_linker_0
_symmetry_space_group_name_H-M    P1
_symmetry_Int_Tables_number       1
_symmetry_cell_setting            triclinic
loop_
_symmetry_equiv_pos_as_xyz
'x, y, z'
_cell_length_a     45.237864
_cell_length_b     34.02478
_cell_length_c     31.495107
_cell_angle_alpha  92.817493
_cell_angle_beta   92.375919
_cell_angle_gamma 65.433861
loop_
_atom_site_label
_atom_site_type_symbol
_atom_site_fract_x
_atom_site_fract_y
_atom_site_fract_z
_atom_type_partial_charge
Cu0 Cu 0.0741 0.04218 0.37283 0.0
N1 N 0.09011 0.07641 0.40567 0.0
N2 N 0.11755 0.11643 0.42189 0.0
C3 C 0.10818 0.09535 0.3907 0.0
C4 C 0.10484 0.11102 0.4579 0.0
C5 C 0.08776 0.08624 0.44774 0.0
O6 O 0.11044 1.00215 0.33864 0.0
C7 C 0.01348 0.11045 0.36413 0.0
O8 O 0.02035 0.1156 0.40437 0.0
H9 H 0.11473 0.09326 0.35775 0.0
H10 H 0.07465 0.0761 0.46951 0.0
N11 N 0.06101 1.00924 0.40677 0.0
N12 N 0.03414 0.97106 0.42517 0.0
C13 C 0.0381 0.99508 0.39512 0.0
C14 C 0.07195 0.99341 0.44554 0.0
C15 C 0.05526 0.96974 0.45705 0.0
C16 C 0.13591 0.97839 0.35969 0.0
O17 O 0.13583 0.98173 0.40137 0.0
H18 H 0.02485 1.0018 0.365 0.0
H19 H 0.09104 0.99808 0.46387 0.0
O20 O 0.03468 0.08017 0.34189 0.0
H21 H 0.10796 0.12375 0.48912 0.0
H22 H 0.05863 0.95242 0.48605 0.0
Cu23 Cu 0.06393 0.04051 0.72268 0.0
N24 N 0.0456 1.0116 0.68595 0.0
N25 N 0.01443 0.97696 0.66736 0.0
C26 C 0.02273 0.99929 0.69839 0.0
C27 C 0.03276 0.97478 0.63391 0.0
C28 C 0.05211 0.99629 0.64553 0.0
O29 O 0.02728 0.08309 0.75382 0.0
C30 C 0.12165 0.97035 0.73408 0.0
O31 O 0.12076 0.97434 0.69273 0.0
H32 H 0.01281 1.00581 0.72997 0.0
H33 H 0.07018 0.99947 0.62628 0.0
N34 N 0.08451 0.06951 0.69544 0.0
N35 N 0.11803 0.10155 0.68832 0.0
C36 C 0.1053 0.0837 0.71538 0.0
C37 C 0.0839 0.07905 0.6543 0.0
C38 C 0.10471 0.09891 0.6498 0.0
C39 C 1.00675 0.11254 0.7309 0.0
O40 O 0.01316 0.11342 0.69074 0.0
H41 H 0.11138 0.08043 0.749 0.0
H42 H 0.06958 0.07185 0.62934 0.0
O43 O 0.09789 0.9966 0.75597 0.0
H44 H 0.03262 0.95808 0.60379 0.0
H45 H 0.10993 0.11013 0.62065 0.0
Cu46 Cu 0.35063 0.02709 0.06105 0.0
N47 N 0.34536 0.99322 1.01584 0.0
N48 N 0.33406 0.94928 0.97039 0.0
C49 C 0.32408 0.97585 1.00514 0.0
C50 C 0.36209 0.94992 0.95889 0.0
C51 C 0.3691 0.97672 0.98714 0.0
O52 O 0.36921 0.98339 0.10617 0.0
C53 C 0.34986 0.0825 1.00002 0.0
O54 O 0.32566 0.07184 0.98971 0.0
H55 H 0.30255 0.98145 1.0227 0.0
H56 H 0.39057 0.98322 0.98751 0.0
N57 N 0.31539 0.0704 0.08765 0.0
N58 N 0.29801 0.12602 0.13446 0.0
C59 C 0.32226 0.08819 0.1235 0.0
C60 C 0.2852 0.09773 0.07539 0.0
C61 C 0.2743 0.13245 0.10459 0.0
C62 C 0.34729 0.97354 0.12165 0.0
O63 O 0.31702 0.99499 0.10876 0.0
H64 H 0.34609 0.07572 0.13889 0.0
H65 H 0.27332 0.09484 0.04564 0.0
O66 O 0.36814 0.06403 0.03223 0.0
H67 H 0.37675 0.9313 0.93258 0.0
H68 H 0.25212 0.16164 0.1021 0.0
Cu69 Cu 0.10731 0.37407 0.05995 0.0
N70 N 0.12487 0.39423 1.01701 0.0
N71 N 0.16102 0.39022 0.96829 0.0
C72 C 0.15642 0.37662 1.00616 0.0
C73 C 0.13118 0.4184 0.95541 0.0
C74 C 0.10907 0.42131 0.98573 0.0
O75 O 0.13889 0.35368 0.10699 0.0
C76 C 0.0847 0.32849 0.99718 0.0
O77 O 0.09843 0.34241 0.96915 0.0
H78 H 0.17534 0.35183 1.02419 0.0
H79 H 0.08303 0.43956 0.98351 0.0
N80 N 0.06923 0.41555 0.08329 0.0
N81 N 0.02115 0.43786 0.11411 0.0
C82 C 0.0468 0.40389 0.09847 0.0
C83 C 0.05736 0.45879 0.08966 0.0
C84 C 0.02739 0.47277 0.10881 0.0
C85 C 0.15281 0.3776 0.12136 0.0
O86 O 0.14633 0.41423 0.10299 0.0
H87 H 0.04916 0.37088 0.09797 0.0
H88 H 0.06948 0.47863 0.08097 0.0
O89 O 0.09156 0.33143 0.03656 0.0
H90 H 0.12554 0.43418 0.92524 0.0
H91 H 0.01144 0.50572 0.11784 0.0
Cu92 Cu 0.81473 0.03947 0.04611 0.0
N93 N 0.84113 0.05664 1.01488 0.0
N94 N 0.84862 0.09894 0.96844 0.0
C95 C 0.83054 0.09685 1.00041 0.0
C96 C 0.87234 0.05861 0.96364 0.0
C97 C 0.86791 0.03267 0.99282 0.0
O98 O 0.79059 0.09087 0.08397 0.0
C99 C 0.7969 1.00875 0.96464 0.0
O100 O 0.80573 0.03658 0.94786 0.0
H101 H 0.80816 0.1231 1.01026 0.0
H102 H 0.8817 0.99822 0.99545 0.0
N103 N 0.83784 0.99643 0.08392 0.0
N104 N 0.84412 0.94894 0.1334 0.0
C105 C 0.82288 0.98248 0.1117 0.0
C106 C 0.8698 0.97084 0.08825 0.0
C107 C 0.87374 0.94117 0.11891 0.0
C108 C 0.80952 0.1023 0.10817 0.0
O109 O 0.84104 0.07949 0.10571 0.0
H110 H 0.79675 0.99561 0.11477 0.0
H111 H 0.88869 0.97274 0.06968 0.0
O112 O 0.79445 1.00974 1.00526 0.0
H113 H 0.8906 0.04825 0.93942 0.0
H114 H 0.8963 0.91517 0.12886 0.0
Cu115 Cu 0.03004 0.71484 0.05463 0.0
N116 N 0.01214 0.6938 1.0085 0.0
N117 N 0.97826 0.69601 0.95363 0.0
C118 C 0.982 0.71451 0.99133 0.0
C119 C 1.007 0.66196 0.9472 0.0
C120 C 0.02768 0.66041 0.98118 0.0
O121 O 0.9992 0.73668 0.10087 0.0
C122 C 0.05192 0.75752 0.9959 0.0
O123 O 0.03521 0.746 0.96679 0.0
H124 H 0.96383 0.74417 1.00485 0.0
H125 H 0.05285 0.6379 0.98443 0.0
N126 N 0.06828 0.67379 0.07815 0.0
N127 N 0.11797 0.65379 0.10754 0.0
C128 C 0.08919 0.6868 0.09948 0.0
C129 C 0.08428 0.63056 0.07285 0.0
C130 C 0.11522 0.6181 0.09094 0.0
C131 C 0.9852 0.71323 0.11212 0.0
O132 O 0.99055 0.67695 0.09056 0.0
H133 H 0.08431 0.72046 0.10598 0.0
H134 H 0.07503 0.61001 0.0549 0.0
O135 O 0.04669 0.75549 0.03501 0.0
H136 H 0.01294 0.64067 0.91915 0.0
H137 H 0.13476 0.58601 0.08952 0.0
Cu138 Cu 0.5655 0.54694 0.88212 0.0
N139 N 0.5769 0.58759 0.91126 0.0
N140 N 0.60167 0.63137 0.92439 0.0
C141 C 0.59745 0.60281 0.8966 0.0
C142 C 0.58328 0.63441 0.95802 0.0
C143 C 0.56784 0.60721 0.94974 0.0
O144 O 0.60516 0.50888 0.85179 0.0
C145 C 0.50869 0.61738 0.85045 0.0
O146 O 0.52256 0.64174 0.86726 0.0
H147 H 0.60928 0.59291 0.86628 0.0
H148 H 0.55132 0.60199 0.97026 0.0
N149 N 0.55543 0.51514 0.92082 0.0
N150 N 0.53218 0.47498 0.94528 0.0
C151 C 0.53433 0.49722 0.91236 0.0
C152 C 0.56698 0.504 0.96064 0.0
C153 C 0.55249 0.47904 0.97597 0.0
C154 C 0.62039 0.46857 0.85871 0.0
O155 O 0.60626 0.44923 0.88007 0.0
H156 H 0.52105 0.49998 0.88244 0.0
H157 H 0.58486 0.51296 0.97706 0.0
O158 O 0.52466 0.5763 0.84902 0.0
H159 H 0.58138 0.65457 0.98636 0.0
H160 H 0.55663 0.46475 1.00683 0.0
Cu161 Cu 0.57139 0.53933 0.22495 0.0
N162 N 0.54937 0.51225 0.19195 0.0
N163 N 0.51539 0.48066 0.17799 0.0
C164 C 0.52657 0.50142 0.20749 0.0
C165 C 0.53179 0.47788 0.14241 0.0
C166 C 0.5529 0.49737 0.15117 0.0
O167 O 0.53953 0.58259 0.26134 0.0
C168 C 0.62972 0.46882 0.23243 0.0
O169 O 0.62694 0.47169 0.19092 0.0
H170 H 0.51886 0.50765 0.24011 0.0
H171 H 0.57012 0.49944 0.12961 0.0
N172 N 0.59057 0.56816 0.19469 0.0
N173 N 0.62456 0.59939 0.18688 0.0
C174 C 0.6095 0.58542 0.21449 0.0
C175 C 0.59322 0.57215 0.15279 0.0
C176 C 0.61441 0.59146 0.14787 0.0
C177 C 0.51686 0.6125 0.24144 0.0
O178 O 0.51759 0.61236 0.19977 0.0
H179 H 0.61336 0.5859 0.24862 0.0
H180 H 0.58172 0.56044 0.12759 0.0
O181 O 0.60706 0.49534 0.25555 0.0
H182 H 0.52911 0.46222 0.11267 0.0
H183 H 0.62281 0.59743 0.11819 0.0
Cu184 Cu 0.8517 0.52154 0.54475 0.0
N185 N 0.88057 0.53329 0.51251 0.0
N186 N 0.89502 0.56374 0.46083 0.0
C187 C 0.87094 0.56648 0.48617 0.0
C188 C 0.92098 0.52753 0.47156 0.0
C189 C 0.91201 0.50882 0.50375 0.0
O190 O 0.82685 0.57494 0.57994 0.0
C191 C 0.8483 0.4609 0.48376 0.0
O192 O 0.87977 0.44804 0.4899 0.0
H193 H 0.84619 0.5908 0.48382 0.0
H194 H 0.92675 0.47817 0.5177 0.0
N195 N 0.87222 0.4786 0.58366 0.0
N196 N 0.87379 0.43237 0.63204 0.0
C197 C 0.85544 0.4605 0.60312 0.0
C198 C 0.90251 0.46126 0.60096 0.0
C199 C 0.90354 0.4324 0.63116 0.0
C200 C 0.84326 0.58593 0.60875 0.0
O201 O 0.87457 0.56195 0.61276 0.0
H202 H 0.82984 0.46879 0.59703 0.0
H203 H 0.92203 0.46998 0.59335 0.0
O204 O 0.82925 0.49512 0.50435 0.0
H205 H 0.94417 0.51474 0.45603 0.0
H206 H 0.92398 0.41404 0.65163 0.0
Cu207 Cu 0.61957 0.83255 0.54721 0.0
N208 N 0.65098 0.80341 0.50602 0.0
N209 N 0.68994 0.79003 0.45891 0.0
C210 C 0.67131 0.81797 0.48899 0.0
C211 C 0.68117 0.75667 0.45686 0.0
C212 C 0.65715 0.76498 0.486 0.0
O213 O 0.63922 0.85545 0.59234 0.0
C214 C 0.57437 0.87564 0.48165 0.0
O215 O 0.59857 0.85794 0.4554 0.0
H216 H 0.67208 0.84866 0.49793 0.0
H217 H 0.64465 0.74475 0.49159 0.0
N218 N 0.60382 0.79645 0.57235 0.0
N219 N 0.56788 0.77865 0.60369 0.0
C220 C 0.57372 0.81083 0.58813 0.0
C221 C 0.61753 0.75353 0.57834 0.0
C222 C 0.59525 0.74241 0.59761 0.0
C223 C 0.66431 0.82737 0.61034 0.0
O224 O 0.67473 0.78669 0.59729 0.0
H225 H 0.55622 0.84425 0.58775 0.0
H226 H 0.64186 0.73184 0.56918 0.0
O227 O 0.58029 0.87536 0.5215 0.0
H228 H 0.69118 0.72867 0.43542 0.0
H229 H 0.59872 0.71036 0.60628 0.0
Cu230 Cu 0.31263 0.53826 0.54727 0.0
N231 N 0.33674 0.55808 0.51293 0.0
N232 N 0.34418 0.6028 0.46839 0.0
C233 C 0.32346 0.597 0.49451 0.0
C234 C 0.37167 0.56604 0.47033 0.0
C235 C 0.36701 0.53849 0.49767 0.0
O236 O 0.29089 0.58658 0.58577 0.0
C237 C 0.30034 0.49188 0.48291 0.0
O238 O 0.3318 0.4705 0.48934 0.0
H239 H 0.29874 0.62041 0.49956 0.0
H240 H 0.38418 0.50609 0.50481 0.0
N241 N 0.33491 0.48979 0.58189 0.0
N242 N 0.34244 0.44166 0.63239 0.0
C243 C 0.3209 0.47683 0.61235 0.0
C244 C 0.36644 0.46164 0.58287 0.0
C245 C 0.37109 0.43191 0.6138 0.0
C246 C 0.31148 0.59307 0.61051 0.0
O247 O 0.34239 0.56674 0.6077 0.0
H248 H 0.29532 0.49273 0.61953 0.0
H249 H 0.3848 0.46244 0.56251 0.0
O250 O 0.28469 0.52434 0.5072 0.0
H251 H 0.39337 0.55935 0.45267 0.0
H252 H 0.3937 0.40498 0.62183 0.0
Cu253 Cu 0.51619 0.23452 0.54428 0.0
N254 N 0.54817 0.19704 0.50797 0.0
N255 N 0.59217 0.17519 0.46812 0.0
C256 C 0.57163 0.207 0.49333 0.0
C257 C 0.58111 0.14393 0.46599 0.0
C258 C 0.55382 0.15754 0.49084 0.0
O259 O 0.53866 0.26738 0.57331 0.0
C260 C 0.46439 0.24574 0.4879 0.0
O261 O 0.47515 0.20416 0.49424 0.0
H262 H 0.57392 0.23691 0.5015 0.0
H263 H 0.53931 0.13984 0.49616 0.0
N264 N 0.50431 0.20487 0.58434 0.0
N265 N 0.48075 0.194 0.64099 0.0
C266 C 0.47995 0.22257 0.61214 0.0
C267 C 0.52088 0.16363 0.59585 0.0
C268 C 0.50647 0.15689 0.63094 0.0
C269 C 0.55458 0.25457 0.6082 0.0
O270 O 0.55036 0.22507 0.62926 0.0
H271 H 0.46293 0.25626 0.61254 0.0
H272 H 0.54291 0.14076 0.5812 0.0
O273 O 0.47831 0.2673 0.50783 0.0
H274 H 0.59219 0.11348 0.44825 0.0
H275 H 0.51479 0.12755 0.64857 0.0
Dy276 Dy 0.28847 0.29707 0.34507 0.0
Dy277 Dy 0.32389 0.33086 0.27316 0.0
C278 C 0.31704 0.24149 0.26045 0.0
O279 O 0.34123 0.27469 0.36423 0.0
O280 O 0.35282 0.32622 0.33375 0.0
O281 O 0.29166 0.24526 0.38435 0.0
O282 O 0.2511 0.30827 0.39044 0.0
O283 O 0.29157 0.39086 0.30893 0.0
O284 O 0.28563 0.36065 0.36969 0.0
O285 O 0.27794 0.33401 0.24042 0.0
O286 O 0.24841 0.3291 0.29673 0.0
O287 O 0.32527 0.37607 0.22808 0.0
O288 O 0.36698 0.31504 0.2366 0.0
C289 C 0.35874 0.29717 0.36255 0.0
O290 O 0.29434 0.25323 0.28875 0.0
O291 O 0.3373 0.26005 0.25969 0.0
C292 C 0.2415 0.24702 0.40333 0.0
C293 C 0.20009 0.20475 0.40694 0.0
C294 C 0.20344 0.22168 0.36858 0.0
C295 C 0.22415 0.24266 0.36674 0.0
C296 C 0.23807 0.23017 0.4416 0.0
C297 C 0.21749 0.20909 0.4434 0.0
C298 C 0.26379 0.26815 0.40197 0.0
C299 C 0.2825 0.39449 0.34854 0.0
C300 C 0.25088 0.33608 0.25645 0.0
C301 C 0.37769 0.37294 0.21395 0.0
C302 C 0.42176 0.4108 0.20419 0.0
C303 C 0.42374 0.37503 0.17845 0.0
C304 C 0.40188 0.35632 0.18328 0.0
C305 C 0.37568 0.40874 0.23993 0.0
C306 C 0.39758 0.42762 0.23499 0.0
C307 C 0.35527 0.35191 0.21782 0.0
H308 H 0.19017 0.21841 0.34018 0.0
H309 H 0.22675 0.25532 0.33688 0.0
H310 H 0.25144 0.23316 0.47001 0.0
H311 H 0.21513 0.19611 0.47317 0.0
H312 H 0.44225 0.36161 0.15461 0.0
H313 H 0.40387 0.3287 0.16299 0.0
H314 H 0.3573 0.42199 0.26395 0.0
H315 H 0.3958 0.45517 0.2552 0.0
Dy316 Dy 0.80535 0.26276 0.33379 0.0
Dy317 Dy 0.8329 0.30564 0.26121 0.0
C318 C 0.75692 0.34098 0.27825 0.0
O319 O 0.78987 0.24152 0.27139 0.0
O320 O 0.82806 0.24731 0.22927 0.0
O321 O 0.80347 0.20615 0.35946 0.0
O322 O 0.77894 0.26863 0.3913 0.0
O323 O 0.87626 0.26634 0.30138 0.0
O324 O 0.85742 0.2178 0.32251 0.0
O325 O 0.82515 0.35002 0.31939 0.0
O326 O 0.82574 0.30436 0.37123 0.0
O327 O 0.82971 0.36108 0.22706 0.0
O328 O 0.8666 0.2973 0.2113 0.0
C329 C 0.8065 0.23163 0.23619 0.0
O330 O 0.76325 0.32346 0.31559 0.0
O331 O 0.77919 0.33119 0.24931 0.0
C332 C 0.75548 0.21853 0.39653 0.0
C333 C 0.70216 0.1992 0.4125 0.0
C334 C 0.71589 0.19058 0.37202 0.0
C335 C 0.74229 0.20038 0.364 0.0
C336 C 0.74166 0.22708 0.43688 0.0
C337 C 0.71521 0.21759 0.44479 0.0
C338 C 0.78391 0.22804 0.38972 0.0
C339 C 0.88157 0.22855 0.31622 0.0
C340 C 0.82654 0.3407 0.3598 0.0
C341 C 0.87899 0.35768 0.1987 0.0
C342 C 0.9225 0.39337 0.17674 0.0
C343 C 0.93402 0.34918 0.18477 0.0
C344 C 0.91251 0.33145 0.19559 0.0
C345 C 0.86771 0.40219 0.19178 0.0
C346 C 0.88928 0.41991 0.18111 0.0
C347 C 0.85529 0.33861 0.20462 0.0
H348 H 0.70614 0.17634 0.34675 0.0
H349 H 0.75244 0.19357 0.33253 0.0
H350 H 0.75148 0.24097 0.46241 0.0
H351 H 0.70496 0.2244 0.47621 0.0
H352 H 0.95959 0.32819 0.18154 0.0
H353 H 0.92206 0.29702 0.20036 0.0
H354 H 0.84203 0.42314 0.19342 0.0
H355 H 0.87993 0.45407 0.17499 0.0
Dy356 Dy 0.82414 0.74811 0.26213 0.0
Dy357 Dy 0.85651 0.79266 0.33607 0.0
C358 C 0.78821 0.78946 0.34884 0.0
O359 O 0.80637 0.81856 0.24832 0.0
O360 O 0.84671 0.83405 0.28062 0.0
O361 O 0.78341 0.75792 0.21957 0.0
O362 O 0.82281 0.69433 0.22319 0.0
O363 O 0.89607 0.76091 0.28805 0.0
O364 O 0.86764 0.74745 0.23037 0.0
O365 O 0.85942 0.73129 0.36144 0.0
O366 O 0.86052 0.69344 0.29887 0.0
O367 O 0.89421 0.78542 0.38343 0.0
O368 O 0.85307 0.84756 0.37609 0.0
C369 C 0.8241 0.84091 0.25108 0.0
O370 O 0.79613 0.75687 0.32121 0.0
O371 O 0.80378 0.81465 0.3512 0.0
C372 C 0.76926 0.6981 0.21185 0.0
C373 C 0.72352 0.66086 0.21896 0.0
C374 C 0.71455 0.70582 0.22574 0.0
C375 C 0.73713 0.72379 0.22346 0.0
C376 C 0.77769 0.65457 0.2004 0.0
C377 C 0.75507 0.63656 0.20289 0.0
C378 C 0.79332 0.717 0.20902 0.0
C379 C 0.89367 0.75056 0.24745 0.0
C380 C 0.86549 0.69483 0.34017 0.0
C381 C 0.90362 0.8479 0.39849 0.0
C382 C 0.94657 0.88837 0.40776 0.0
C383 C 0.94664 0.85958 0.43814 0.0
C384 C 0.92522 0.83957 0.43358 0.0
C385 C 0.90374 0.87648 0.36782 0.0
C386 C 0.92503 0.89676 0.37256 0.0
C387 C 0.8813 0.82642 0.39471 0.0
H388 H 0.68987 0.72837 0.23161 0.0
H389 H 0.72905 0.75818 0.23014 0.0
H390 H 0.80175 0.63449 0.18881 0.0
H391 H 0.76265 0.60373 0.19073 0.0
H392 H 0.9632 0.85276 0.4654 0.0
H393 H 0.92551 0.81754 0.45747 0.0
H394 H 0.88741 0.88313 0.34031 0.0
H395 H 0.92484 0.91882 0.34879 0.0
Dy396 Dy 0.34058 0.82829 0.34216 0.0
Dy397 Dy 0.3195 0.77475 0.26165 0.0
C398 C 0.39484 0.74672 0.28877 0.0
O399 O 0.3425 0.86265 0.28391 0.0
O400 O 0.33833 0.81728 0.22941 0.0
O401 O 0.34136 0.88665 0.37157 0.0
O402 O 0.36491 0.82607 0.40312 0.0
O403 O 0.27217 0.8231 0.28775 0.0
O404 O 0.28673 0.86432 0.33787 0.0
O405 O 0.32752 0.73407 0.31852 0.0
O406 O 0.3249 0.78223 0.37381 0.0
O407 O 0.32073 0.71563 0.23127 0.0
O408 O 0.29222 0.77718 0.20304 0.0
C409 C 0.34321 0.85143 0.24327 0.0
O410 O 0.38765 0.77589 0.32017 0.0
O411 O 0.37331 0.74245 0.262 0.0
C412 C 0.38928 0.87492 0.41166 0.0
C413 C 0.44753 0.88385 0.43046 0.0
C414 C 0.44062 0.87277 0.38886 0.0
C415 C 0.41171 0.86813 0.37956 0.0
C416 C 0.3957 0.8874 0.45286 0.0
C417 C 0.4247 0.89179 0.46224 0.0
C418 C 0.36021 0.86651 0.40313 0.0
C419 C 0.26486 0.85598 0.31524 0.0
C420 C 0.32668 0.74429 0.35939 0.0
C421 C 0.27402 0.72122 0.19076 0.0
C422 C 0.22453 0.69398 0.16669 0.0
C423 C 0.21818 0.72928 0.19551 0.0
C424 C 0.24279 0.74278 0.20757 0.0
C425 C 0.28044 0.68544 0.16269 0.0
C426 C 0.25593 0.67189 0.15076 0.0
C427 C 0.30016 0.73563 0.20112 0.0
H428 H 0.45818 0.86603 0.36411 0.0
H429 H 0.40728 0.85803 0.3477 0.0
H430 H 0.37873 0.89253 0.47802 0.0
H431 H 0.42986 0.89988 0.49458 0.0
H432 H 0.19406 0.74677 0.20805 0.0
H433 H 0.23736 0.77032 0.2295 0.0
H434 H 0.30438 0.66831 0.14948 0.0
H435 H 0.26127 0.64467 0.12846 0.0
Dy436 Dy 0.29298 0.75195 0.83377 0.0
Dy437 Dy 0.32224 0.79838 0.76484 0.0
C438 C 0.24537 0.83597 0.78244 0.0
O439 O 0.30796 0.70938 0.77565 0.0
O440 O 0.29679 0.76317 0.72877 0.0
O441 O 0.26673 0.71332 0.84483 0.0
O442 O 0.28615 0.73844 0.89833 0.0
O443 O 0.36425 0.73687 0.78149 0.0
O444 O 0.34735 0.72138 0.84427 0.0
O445 O 0.33168 0.8178 0.83072 0.0
O446 O 0.2877 0.81551 0.86208 0.0
O447 O 0.33964 0.79881 0.70221 0.0
O448 O 0.33885 0.84735 0.74958 0.0
C449 C 0.30092 0.72389 0.73714 0.0
O450 O 0.24923 0.79963 0.79974 0.0
O451 O 0.26995 0.84452 0.77196 0.0
C452 C 0.2365 0.73227 0.90753 0.0
C453 C 0.17579 0.75017 0.94289 0.0
C454 C 0.17793 0.77478 0.90958 0.0
C455 C 0.20812 0.76595 0.89204 0.0
C456 C 0.23451 0.7091 0.94204 0.0
C457 C 0.20441 0.71795 0.9596 0.0
C458 C 0.26774 0.71875 0.88608 0.0
C459 C 0.37033 0.71603 0.81711 0.0
C460 C 0.31003 0.83036 0.86058 0.0
C461 C 0.38179 0.82229 0.70039 0.0
C462 C 0.44457 0.80584 0.67264 0.0
C463 C 0.43951 0.77498 0.69577 0.0
C464 C 0.40835 0.78317 0.70962 0.0
C465 C 0.38701 0.85338 0.67797 0.0
C466 C 0.41815 0.84525 0.66422 0.0
C467 C 0.34841 0.83012 0.71192 0.0
H468 H 0.15612 0.79946 0.89599 0.0
H469 H 0.20917 0.78427 0.86541 0.0
H470 H 0.25609 0.683 0.95438 0.0
H471 H 0.2033 0.69825 0.98489 0.0
H472 H 0.45956 0.74435 0.70248 0.0
H473 H 0.40488 0.75867 0.72683 0.0
H474 H 0.36687 0.88368 0.67044 0.0
H475 H 0.42157 0.86939 0.64635 0.0
Dy476 Dy 0.31425 0.25592 0.79077 0.0
Dy477 Dy 0.35315 0.29677 0.85762 0.0
C478 C 0.2778 0.31913 0.86878 0.0
O479 O 0.30846 0.31883 0.76269 0.0
O480 O 0.34994 0.33093 0.797 0.0
O481 O 0.27068 0.26602 0.75378 0.0
O482 O 0.31204 0.20359 0.75061 0.0
O483 O 0.39244 0.25052 0.81543 0.0
O484 O 0.36106 0.24173 0.75955 0.0
O485 O 0.34704 0.24465 0.8927 0.0
O486 O 0.34002 0.20302 0.83704 0.0
O487 O 0.39171 0.28737 0.9043 0.0
O488 O 0.35494 0.35181 0.89257 0.0
C489 C 0.32876 0.33774 0.76516 0.0
O490 O 0.28175 0.28381 0.84639 0.0
O491 O 0.29995 0.33466 0.86972 0.0
C492 C 0.25979 0.20492 0.73543 0.0
C493 C 0.21396 0.16888 0.72526 0.0
C494 C 0.217 0.18907 0.76419 0.0
C495 C 0.23984 0.20702 0.76929 0.0
C496 C 0.25717 0.18386 0.69699 0.0
C497 C 0.23445 0.16596 0.69192 0.0
C498 C 0.28213 0.22642 0.73811 0.0
C499 C 0.38911 0.23866 0.77571 0.0
C500 C 0.34657 0.20821 0.87753 0.0
C501 C 0.40604 0.34612 0.91866 0.0
C502 C 0.4499 0.38478 0.93037 0.0
C503 C 0.44248 0.37309 0.88925 0.0
C504 C 0.42056 0.35385 0.88338 0.0
C505 C 0.41398 0.35704 0.95971 0.0
C506 C 0.43579 0.37629 0.96558 0.0
C507 C 0.38145 0.32862 0.91364 0.0
H508 H 0.20137 0.19151 0.79025 0.0
H509 H 0.24153 0.22315 0.79922 0.0
H510 H 0.2723 0.18204 0.67051 0.0
H511 H 0.23242 0.15048 0.66173 0.0
H512 H 0.45319 0.37959 0.8618 0.0
H513 H 0.41454 0.3457 0.85148 0.0
H514 H 0.40286 0.35136 0.98721 0.0
H515 H 0.44127 0.38524 0.99745 0.0
Dy516 Dy 0.83474 0.32436 0.83467 0.0
Dy517 Dy 0.80097 0.27621 0.76579 0.0
C518 C 0.87847 0.23985 0.77822 0.0
O519 O 0.81428 0.36629 0.77935 0.0
O520 O 0.8252 0.31056 0.73202 0.0
O521 O 0.86264 0.36236 0.84433 0.0
O522 O 0.84754 0.33932 0.8988 0.0
O523 O 0.75942 0.33561 0.78922 0.0
O524 O 0.78132 0.35788 0.84828 0.0
O525 O 0.80102 0.24857 0.82851 0.0
O526 O 0.84176 0.26229 0.86299 0.0
O527 O 0.78274 0.22836 0.74541 0.0
O528 O 0.78072 0.27692 0.70235 0.0
C529 C 0.81959 0.35113 0.74008 0.0
O530 O 0.87493 0.27804 0.79401 0.0
O531 O 0.85343 0.22993 0.77084 0.0
C532 C 0.89857 0.34433 0.90451 0.0
C533 C 0.96096 0.32836 0.93934 0.0
C534 C 0.9575 0.31395 0.89765 0.0
C535 C 0.92656 0.32175 0.88038 0.0
C536 C 0.90228 0.35682 0.94683 0.0
C537 C 0.9332 0.34882 0.96413 0.0
C538 C 0.86547 0.3577 0.88538 0.0
C539 C 0.75629 0.36019 0.82374 0.0
C540 C 0.82335 0.24093 0.85887 0.0
C541 C 0.73761 0.25371 0.69585 0.0
C542 C 0.67509 0.26334 0.66573 0.0
C543 C 0.68846 0.29118 0.65262 0.0
C544 C 0.71939 0.28643 0.66749 0.0
C545 C 0.72386 0.22628 0.70929 0.0
C546 C 0.69294 0.23111 0.69445 0.0
C547 C 0.77152 0.24625 0.70905 0.0
H548 H 0.97859 0.29831 0.87793 0.0
H549 H 0.92448 0.31149 0.84772 0.0
H550 H 0.88113 0.37415 0.96607 0.0
H551 H 0.93538 0.36028 0.99627 0.0
H552 H 0.67527 0.3159 0.63008 0.0
H553 H 0.72928 0.30786 0.65602 0.0
H554 H 0.73729 0.20044 0.73061 0.0
H555 H 0.68321 0.20898 0.7046 0.0
Dy556 Dy 0.79123 0.78132 0.82427 0.0
Dy557 Dy 0.82795 0.81606 0.75634 0.0
C558 C 0.81599 0.72897 0.73343 0.0
O559 O 0.84382 0.74762 0.84223 0.0
O560 O 0.86422 0.79006 0.81013 0.0
O561 O 0.78736 0.73077 0.85901 0.0
O562 O 0.75292 0.79743 0.86965 0.0
O563 O 0.80229 0.8721 0.80246 0.0
O564 O 0.80198 0.83329 0.85948 0.0
O565 O 0.78108 0.8229 0.72482 0.0
O566 O 0.75183 0.82869 0.784 0.0
O567 O 0.82802 0.86706 0.71798 0.0
O568 O 0.86888 0.80409 0.71673 0.0
C569 C 0.86703 0.76055 0.83745 0.0
O570 O 0.79606 0.7379 0.76555 0.0
O571 O 0.83354 0.75104 0.72811 0.0
C572 C 0.73481 0.74297 0.88154 0.0
C573 C 0.68798 0.71072 0.89382 0.0
C574 C 0.70702 0.69803 0.85737 0.0
C575 C 0.73027 0.7142 0.85114 0.0
C576 C 0.71502 0.75657 0.91724 0.0
C577 C 0.69169 0.74063 0.92332 0.0
C578 C 0.76121 0.75712 0.87846 0.0
C579 C 0.80022 0.86929 0.84372 0.0
C580 C 0.75344 0.8309 0.74279 0.0
C581 C 0.87996 0.86372 0.70039 0.0
C582 C 0.92381 0.90174 0.69024 0.0
C583 C 0.89943 0.91894 0.7207 0.0
C584 C 0.8776 0.90002 0.7258 0.0
C585 C 0.90448 0.8466 0.67018 0.0
C586 C 0.92626 0.86539 0.66518 0.0
C587 C 0.85693 0.84349 0.70339 0.0
H588 H 0.70433 0.67497 0.83432 0.0
H589 H 0.74519 0.70345 0.82323 0.0
H590 H 0.71821 0.77871 0.94101 0.0
H591 H 0.67715 0.75063 0.95159 0.0
H592 H 0.89731 0.94696 0.74037 0.0
H593 H 0.85889 0.91384 0.74931 0.0
H594 H 0.90666 0.81872 0.65019 0.0
H595 H 0.94495 0.85171 0.6416 0.0
C596 C 0.17181 0.1144 0.41163 0.0
C597 C 0.13812 0.13863 0.41764 0.0
C598 C 0.14499 0.20627 0.41746 0.0
C599 C 0.17847 0.18211 0.40915 0.0
N600 N 0.22326 0.11409 0.39216 0.0
N601 N 0.0913 0.20651 0.41969 0.0
C602 C 0.19176 0.13635 0.40437 0.0
C603 C 0.12433 0.18433 0.41876 0.0
N604 N 0.18472 0.07044 0.41434 0.0
N605 N 0.13319 0.24999 0.42508 0.0
H606 H 0.07573 0.19099 0.42064 0.0
H607 H 0.07921 0.23975 0.41623 0.0
H608 H 0.14745 0.26729 0.42328 0.0
H609 H 0.10989 0.2688 0.43584 0.0
H610 H 0.20954 0.05084 0.41438 0.0
H611 H 0.17056 0.05367 0.4198 0.0
H612 H 0.23345 0.08125 0.38384 0.0
H613 H 0.23872 0.12913 0.38728 0.0
C614 C 0.95321 0.14109 0.37292 0.0
C615 C 0.97979 0.1368 0.34778 0.0
C616 C 0.94115 0.18752 0.29772 0.0
C617 C 0.91555 0.19713 0.32681 0.0
N618 N 0.89993 0.18901 0.3973 0.0
N619 N 0.99933 0.16106 0.28863 0.0
C620 C 0.92229 0.17546 0.36582 0.0
C621 C 0.97388 0.16129 0.31065 0.0
N622 N 0.95721 0.11152 0.40296 0.0
N623 N 0.93424 0.20173 0.25715 0.0
H624 H 0.02355 0.14261 0.29711 0.0
H625 H 0.99637 0.18199 0.26414 0.0
H626 H 0.9106 0.21899 0.24567 0.0
H627 H 0.95161 0.19231 0.23361 0.0
H628 H 0.93789 0.11101 0.41949 0.0
H629 H 0.97908 0.08456 0.40764 0.0
H630 H 0.90507 0.17669 0.4277 0.0
H631 H 0.87773 0.21586 0.39488 0.0
C632 C 0.02258 0.90919 0.40012 0.0
C633 C 0.0127 0.94957 0.42238 0.0
C634 C 0.9603 0.94871 0.43743 0.0
C635 C 0.96935 0.90954 0.41276 0.0
N636 N 1.00742 0.85388 0.36742 0.0
N637 N 0.97215 1.01042 0.45874 0.0
C638 C 1.00009 0.89009 0.3932 0.0
C639 C 0.98155 0.97 0.44023 0.0
N640 N 0.05382 0.88893 0.38651 0.0
N641 N 0.93165 0.96504 0.45862 0.0
H642 H 0.98771 0.02604 0.46206 0.0
H643 H 0.94862 0.02954 0.46849 0.0
H644 H 0.91498 0.95111 0.45608 0.0
H645 H 0.92511 0.99085 0.48068 0.0
H646 H 0.06396 0.85755 0.37358 0.0
H647 H 0.07053 0.9027 0.39084 0.0
H648 H 0.02789 0.84059 0.34865 0.0
H649 H 0.99195 0.83823 0.36273 0.0
C650 C 0.17516 0.9019 0.34484 0.0
C651 C 0.16587 0.9466 0.33897 0.0
C652 C 0.21915 0.92986 0.30861 0.0
C653 C 0.23002 0.8862 0.32047 0.0
N654 N 0.21923 0.83083 0.3527 0.0
N655 N 0.17932 1.00408 0.3176 0.0
C656 C 0.20811 0.87207 0.33881 0.0
C657 C 0.18781 0.96082 0.32096 0.0
N658 N 0.15227 0.8881 0.35604 0.0
N659 N 0.23859 0.94149 0.28471 0.0
H660 H 0.15622 0.02747 0.32476 0.0
H661 H 0.19563 0.01693 0.31009 0.0
H662 H 0.26153 0.91962 0.27484 0.0
H663 H 0.23091 0.97168 0.27144 0.0
H664 H 0.15651 0.85565 0.35704 0.0
H665 H 0.12798 0.90929 0.36047 0.0
H666 H 0.20551 0.81986 0.37057 0.0
H667 H 0.2432 0.80828 0.34921 0.0
C668 C 0.15872 0.89191 0.7375 0.0
C669 C 0.15027 0.93492 0.75339 0.0
C670 C 0.2009 0.90994 0.79605 0.0
C671 C 0.21173 0.86891 0.77449 0.0
N672 N 0.20188 0.82139 0.72196 0.0
N673 N 0.16489 0.98606 0.79483 0.0
C674 C 0.19076 0.85982 0.74478 0.0
C675 C 0.17161 0.94427 0.78225 0.0
N676 N 0.13584 0.8817 0.716 0.0
N677 N 0.21801 0.91568 0.83071 0.0
H678 H 0.1436 1.01213 0.78594 0.0
H679 H 0.18155 0.99515 0.81153 0.0
H680 H 0.23867 0.89059 0.84277 0.0
H681 H 0.20983 0.94368 0.85009 0.0
H682 H 0.13947 0.85016 0.70709 0.0
H683 H 0.112 0.90435 0.71089 0.0
H684 H 0.18895 0.81491 0.69651 0.0
H685 H 0.2252 0.79711 0.72614 0.0
C686 C 0.17462 0.08971 0.70667 0.0
C687 C 0.14188 0.1185 0.69856 0.0
C688 C 0.15616 0.18046 0.70818 0.0
C689 C 0.18868 0.15178 0.71843 0.0
N690 N 0.22808 0.08003 0.73413 0.0
N691 N 0.0999 0.1906 0.69848 0.0
C692 C 0.19769 0.10658 0.71968 0.0
C693 C 0.13221 0.16376 0.70128 0.0
N694 N 0.18368 0.04625 0.70048 0.0
N695 N 0.14843 0.22342 0.70366 0.0
H696 H 0.08197 0.17901 0.69332 0.0
H697 H 0.09065 0.22385 0.70455 0.0
H698 H 0.16515 0.23701 0.70914 0.0
H699 H 0.1261 0.24513 0.6917 0.0
H700 H 0.20769 0.0234 0.70172 0.0
H701 H 0.16721 0.03317 0.69086 0.0
H702 H 0.23521 0.04744 0.73984 0.0
H703 H 0.24557 0.09137 0.74368 0.0
C704 C 0.94624 0.14608 0.72175 0.0
C705 C 0.97413 0.14248 0.74648 0.0
C706 C 0.93891 0.19938 0.79567 0.0
C707 C 0.91174 0.20707 0.76731 0.0
N708 N 0.89284 0.19447 0.69711 0.0
N709 N 0.99763 0.17096 0.80348 0.0
C710 C 0.91628 0.18223 0.72862 0.0
C711 C 0.97068 0.1705 0.7826 0.0
N712 N 0.94806 0.11438 0.69224 0.0
N713 N 0.93453 0.21811 0.83566 0.0
H714 H 0.02125 0.1505 0.79489 0.0
H715 H 0.99654 0.19423 0.82689 0.0
H716 H 0.9119 0.23844 0.84751 0.0
H717 H 0.95306 0.20997 0.85878 0.0
H718 H 0.92766 0.11366 0.67618 0.0
H719 H 0.96924 0.08637 0.68748 0.0
H720 H 0.89641 0.1794 0.66696 0.0
H721 H 0.87158 0.22281 0.69904 0.0
C722 C 0.9602 0.97725 0.65394 0.0
C723 C 0.99217 0.95705 0.67109 0.0
C724 C 0.97858 0.90287 0.70369 0.0
C725 C 0.94709 0.92151 0.68438 0.0
N726 N 0.90893 0.97262 0.63657 0.0
N727 N 0.0338 0.89788 0.70669 0.0
C728 C 0.93815 0.9577 0.65818 0.0
C729 C 1.00191 0.91901 0.69442 0.0
N730 N 0.95079 0.0159 0.63479 0.0
N731 N 0.98582 0.87053 0.73174 0.0
H732 H 0.05128 0.90915 0.7001 0.0
H733 H 0.0435 0.86768 0.72024 0.0
H734 H 0.96942 0.85765 0.73896 0.0
H735 H 1.0071 0.85855 0.75024 0.0
H736 H 0.92689 0.03503 0.62564 0.0
H737 H 0.96676 0.0303 0.63058 0.0
H738 H 0.90238 0.99583 0.6135 0.0
H739 H 0.89192 0.95965 0.63958 0.0
C740 C 0.3027 0.14794 0.20903 0.0
C741 C 0.30172 0.15632 0.16539 0.0
C742 C 0.31435 0.21875 0.18291 0.0
C743 C 0.31713 0.20899 0.22686 0.0
N744 N 0.32137 0.15836 0.28021 0.0
N745 N 0.31436 0.19263 0.10995 0.0
C746 C 0.31348 0.17173 0.23943 0.0
C747 C 0.30978 0.1897 0.15208 0.0
N748 N 0.29284 0.11741 0.22124 0.0
N749 N 0.31417 0.25672 0.17032 0.0
H750 H 0.31131 0.1719 0.08643 0.0
H751 H 0.324 0.21304 0.09875 0.0
H752 H 0.3186 0.27873 0.19062 0.0
H753 H 0.30738 0.2679 0.13966 0.0
H754 H 0.28989 0.11235 0.25282 0.0
H755 H 0.28495 0.0996 0.19932 0.0
H756 H 0.32187 0.12949 0.29055 0.0
H757 H 0.33072 0.17403 0.30268 0.0
C758 C 0.96826 0.43393 0.10321 0.0
C759 C 0.99294 0.43549 0.13138 0.0
C760 C 0.96745 0.41813 0.19075 0.0
C761 C 0.94517 0.41113 0.16159 0.0
N762 N 0.92502 0.40998 0.08957 0.0
N763 N 0.01777 0.42748 0.20099 0.0
C764 C 0.94548 0.4189 0.11766 0.0
C765 C 0.99278 0.42761 0.17505 0.0
N766 N 0.96703 0.44668 0.06249 0.0
N767 N 0.96403 0.41628 0.23343 0.0
H768 H 0.03594 0.43569 0.19035 0.0
H769 H 0.02149 0.41721 0.23212 0.0
H770 H 0.94577 0.40932 0.24584 0.0
H771 H 0.97752 0.42489 0.25664 0.0
H772 H 0.94845 0.44967 0.04054 0.0
H773 H 0.98358 0.45779 0.05171 0.0
H774 H 0.9259 0.41119 0.05676 0.0
H775 H 0.90813 0.39875 0.09884 0.0
C776 C 0.83223 0.88624 0.14608 0.0
C777 C 0.83594 0.92352 0.16195 0.0
C778 C 0.82018 0.91336 0.23259 0.0
C779 C 0.82124 0.87253 0.21841 0.0
N780 N 0.83001 0.81869 0.16117 0.0
N781 N 0.83514 0.9725 0.21967 0.0
C782 C 0.82711 0.85886 0.17482 0.0
C783 C 0.83011 0.93727 0.20504 0.0
N784 N 0.83327 0.87741 0.10324 0.0
N785 N 0.80915 0.92934 0.2723 0.0
H786 H 0.84229 0.99048 0.19982 0.0
H787 H 0.8345 0.9821 0.25164 0.0
H788 H 0.80082 0.91291 0.29253 0.0
H789 H 0.8053 0.96031 0.28362 0.0
H790 H 0.82705 0.85359 0.08885 0.0
H791 H 0.83792 0.89629 0.08161 0.0
H792 H 0.83947 0.80455 0.13186 0.0
H793 H 0.82449 0.79822 0.17951 0.0
C794 C 0.15894 0.65021 0.1636 0.0
C795 C 0.14713 0.65865 0.12122 0.0
C796 C 0.18469 0.692 0.10945 0.0
C797 C 0.19793 0.68145 0.15118 0.0
N798 N 0.20139 0.64462 0.21594 0.0
N799 N 0.15274 0.679 0.05124 0.0
C800 C 0.18614 0.65875 0.17773 0.0
C801 C 0.16134 0.67691 0.09338 0.0
N802 N 0.14329 0.63545 0.19059 0.0
N803 N 0.19335 0.71806 0.08583 0.0
H804 H 0.13605 0.66747 0.03867 0.0
H805 H 0.16436 0.6881 1.02832 0.0
H806 H 0.21033 0.72992 0.09642 0.0
H807 H 0.1816 0.73111 0.05741 0.0
H808 H 0.14823 0.63291 0.22317 0.0
H809 H 0.12379 0.62821 0.18053 0.0
H810 H 0.19604 0.62437 0.23495 0.0
H811 H 0.22119 0.65058 0.22729 0.0
C812 C 0.30192 0.93734 0.91164 0.0
C813 C 0.32004 0.92267 0.94953 0.0
C814 C 0.32349 0.8499 0.9338 0.0
C815 C 0.31039 0.863 0.8926 0.0
N816 N 0.28911 0.9184 0.84042 0.0
N817 N 0.3514 0.86485 0.99548 0.0
C818 C 0.29974 0.90668 0.88106 0.0
C819 C 0.33122 0.87902 0.96079 0.0
N820 N 0.28778 0.98063 0.90472 0.0
N821 N 0.32939 0.80945 0.9466 0.0
H822 H 0.35823 0.88544 1.01499 0.0
H823 H 0.36334 0.83241 1.00295 0.0
H824 H 0.32512 0.78667 0.92699 0.0
H825 H 0.3361 0.7997 0.97769 0.0
H826 H 0.27187 0.99418 0.8793 0.0
H827 H 0.28982 1.0033 0.92685 0.0
H828 H 0.28428 0.94872 0.829 0.0
H829 H 0.28711 0.89685 0.81706 0.0
C830 C 0.20986 0.32832 0.94046 0.0
C831 C 0.1906 0.37346 0.94388 0.0
C832 C 0.22781 0.38427 0.89539 0.0
C833 C 0.24879 0.33953 0.8965 0.0
N834 N 0.26476 0.27452 0.93553 0.0
N835 N 0.18664 0.4452 0.93279 0.0
C836 C 0.2413 0.31314 0.92358 0.0
C837 C 0.20108 0.40182 0.92364 0.0
N838 N 0.19781 0.2995 0.95099 0.0
N839 N 0.23263 0.40979 0.8668 0.0
H840 H 0.16861 0.45874 0.95537 0.0
H841 H 0.19512 0.46687 0.92165 0.0
H842 H 0.25149 0.39802 0.84523 0.0
H843 H 0.21618 0.44163 0.86207 0.0
H844 H 0.21081 0.26618 0.94629 0.0
H845 H 0.1736 0.30888 0.95883 0.0
H846 H 0.2609 0.25631 0.95859 0.0
H847 H 0.28889 0.26426 0.92689 0.0
C848 C 0.80991 0.15968 0.92536 0.0
C849 C 0.84184 0.13535 0.9419 0.0
C850 C 0.86195 0.17638 0.89908 0.0
C851 C 0.82954 0.20507 0.88802 0.0
N852 N 0.77222 0.22954 0.90139 0.0
N853 N 0.89635 0.13022 0.95332 0.0
C854 C 0.8033 0.19851 0.90445 0.0
C855 C 0.86731 0.14674 0.93156 0.0
N856 N 0.7863 0.14479 0.92706 0.0
N857 N 0.88761 0.17501 0.87685 0.0
H858 H 0.90041 0.11059 0.97927 0.0
H859 H 0.91477 0.14035 0.94871 0.0
H860 H 0.88451 0.19212 0.84937 0.0
H861 H 0.91138 0.15233 0.88218 0.0
H862 H 0.76355 0.15999 0.91217 0.0
H863 H 0.79068 0.11467 0.93836 0.0
H864 H 0.75284 0.22726 0.91624 0.0
H865 H 0.76645 0.25957 0.88852 0.0
C866 C 0.93657 0.68398 0.90726 0.0
C867 C 0.95074 0.71185 0.92401 0.0
C868 C 0.90783 0.7722 0.88809 0.0
C869 C 0.89638 0.74339 0.86647 0.0
N870 N 0.90522 0.66934 0.84937 0.0
N871 N 0.95455 0.7802 0.91977 0.0
C872 C 0.9123 0.69845 0.87427 0.0
C873 C 0.93779 0.7553 0.91126 0.0
N874 N 0.94524 0.64439 0.92405 0.0
N875 N 0.88927 0.81567 0.88904 0.0
H876 H 0.97761 0.76812 0.93404 0.0
H877 H 0.94723 0.81102 0.90794 0.0
H878 H 0.86576 0.82898 0.87629 0.0
H879 H 0.8955 0.83759 0.90736 0.0
H880 H 0.93353 0.62435 0.91566 0.0
H881 H 0.96162 0.63373 0.94966 0.0
H882 H 0.91823 0.63601 0.85144 0.0
H883 H 0.88882 0.67834 0.82361 0.0
C884 C 0.17291 0.3971 0.19187 0.0
C885 C 0.17563 0.36549 0.15902 0.0
C886 C 0.22095 0.31229 0.19908 0.0
C887 C 0.22232 0.34557 0.22688 0.0
N888 N 0.20047 0.42099 0.24837 0.0
N889 N 0.20691 0.29403 0.12838 0.0
C890 C 0.19847 0.38843 0.22296 0.0
C891 C 0.20081 0.32322 0.16185 0.0
N892 N 0.14531 0.43461 0.19456 0.0
N893 N 0.23786 0.27011 0.20904 0.0
H894 H 0.19402 0.30107 0.09951 0.0
H895 H 0.22712 0.26436 0.12775 0.0
H896 H 0.25008 0.26153 0.23812 0.0
H897 H 0.2359 0.2445 0.19146 0.0
H898 H 0.14089 0.45703 0.2199 0.0
H899 H 0.12524 0.44104 0.17411 0.0
H900 H 0.18595 0.45358 0.24364 0.0
H901 H 0.2181 0.41548 0.27252 0.0
C902 C 0.10596 0.7194 0.96143 0.0
C903 C 0.08379 0.75654 0.9839 0.0
C904 C 0.12348 0.78865 0.98326 0.0
C905 C 0.14353 0.75375 0.95634 0.0
N906 N 0.15029 0.69048 0.91252 0.0
N907 N 0.06992 0.82863 1.01301 0.0
C908 C 0.1336 0.72062 0.94313 0.0
C909 C 0.09216 0.7918 0.99411 0.0
N910 N 0.10191 0.68173 0.96002 0.0
N911 N 0.13472 0.81805 0.99926 0.0
H912 H 0.04702 0.83167 1.0216 0.0
H913 H 0.0732 0.8571 1.01736 0.0
H914 H 0.1573 0.81684 0.99151 0.0
H915 H 0.12283 0.84162 1.02249 0.0
H916 H 0.11909 0.65258 0.94765 0.0
H917 H 0.0837 0.67815 0.97635 0.0
H918 H 0.14196 0.66841 0.89863 0.0
H919 H 0.17068 0.69018 0.89798 0.0
C920 C 0.38113 0.11747 0.95926 0.0
C921 C 0.35176 0.11804 0.97461 0.0
C922 C 0.32104 0.17056 0.92056 0.0
C923 C 0.34948 0.17433 0.90844 0.0
N924 N 0.40668 0.15517 0.92081 0.0
N925 N 0.29371 0.15935 0.97969 0.0
C926 C 0.37956 0.1492 0.92952 0.0
C927 C 0.32174 0.14907 0.95824 0.0
N928 N 0.41033 0.08579 0.97108 0.0
N929 N 0.2932 0.18705 0.89621 0.0
H930 H 0.2937 0.14788 1.0098 0.0
H931 H 0.27138 0.18316 0.9701 0.0
H932 H 0.29132 0.20322 0.86831 0.0
H933 H 0.27281 0.1814 0.90216 0.0
H934 H 0.43217 0.08103 0.95735 0.0
H935 H 0.41251 0.06234 0.9925 0.0
H936 H 0.42846 0.14123 0.93815 0.0
H937 H 0.4067 0.17628 0.89787 0.0
C938 C 0.04911 0.28805 0.98178 0.0
C939 C 0.0528 0.32752 0.98509 0.0
C940 C 0.99744 0.36622 0.95592 0.0
C941 C 0.99284 0.32742 0.95511 0.0
N942 N 0.0123 0.25246 0.97221 0.0
N943 N 0.02806 0.4055 0.98471 0.0
C944 C 0.01815 0.28854 0.96947 0.0
C945 C 0.02622 0.36698 0.9749 0.0
N946 N 0.07539 0.25012 0.98931 0.0
N947 N 0.97475 0.40214 0.9372 0.0
H948 H 0.04821 0.40756 1.00006 0.0
H949 H 0.00853 0.43546 0.98161 0.0
H950 H 0.95327 0.40313 0.92285 0.0
H951 H 0.97849 0.42977 0.93234 0.0
H952 H 0.07545 0.21975 0.9832 0.0
H953 H 0.09798 0.24904 0.99939 0.0
H954 H 0.02845 0.22427 0.9863 0.0
H955 H 0.99011 0.25174 0.96295 0.0
C956 C 0.77043 0.96001 0.93188 0.0
C957 C 0.79747 0.97105 0.93646 0.0
C958 C 0.8234 0.9207 0.87609 0.0
C959 C 0.79797 0.90639 0.87386 0.0
N960 N 0.74795 0.91051 0.90221 0.0
N961 N 0.85369 0.95123 0.9208 0.0
C962 C 0.77181 0.92529 0.90282 0.0
C963 C 0.82495 0.94852 0.91058 0.0
N964 N 0.74287 0.98393 0.95378 0.0
N965 N 0.84657 0.90763 0.84566 0.0
H966 H 0.85665 0.96821 0.94776 0.0
H967 H 0.87548 0.93218 0.90601 0.0
H968 H 0.84844 0.88485 0.82145 0.0
H969 H 0.86291 0.9217 0.8429 0.0
H970 H 0.72099 0.981 0.94862 0.0
H971 H 0.74122 1.00906 0.97524 0.0
H972 H 0.73054 0.91878 0.92555 0.0
H973 H 0.74638 0.88833 0.87919 0.0
C974 C 0.9691 0.6924 0.18043 0.0
C975 C 0.96448 0.72467 0.1505 0.0
C976 C 0.92076 0.7766 0.1942 0.0
C977 C 0.92113 0.74254 0.21874 0.0
N978 N 0.94485 0.66687 0.23401 0.0
N979 N 0.93177 0.79665 0.12605 0.0
C980 C 0.94516 0.70005 0.21158 0.0
C981 C 0.93934 0.76673 0.15673 0.0
N982 N 0.99702 0.6552 0.18033 0.0
N983 N 0.90343 0.81848 0.20732 0.0
H984 H 0.9437 0.79048 0.09726 0.0
H985 H 0.9114 0.82612 0.1274 0.0
H986 H 0.89182 0.82645 0.23632 0.0
H987 H 0.90422 0.8447 0.19242 0.0
H988 H 1.00291 0.63229 0.20366 0.0
H989 H 0.01601 0.64949 0.15982 0.0
H990 H 0.95937 0.63447 0.22668 0.0
H991 H 0.92863 0.67169 0.25839 0.0
C992 C 0.33603 0.91042 0.14003 0.0
C993 C 0.35368 0.93602 0.1498 0.0
C994 C 0.37044 0.89919 0.21806 0.0
C995 C 0.34773 0.88004 0.21108 0.0
N996 N 0.30212 0.87956 0.1683 0.0
N997 N 0.3852 0.95778 0.20155 0.0
C998 C 0.32883 0.88868 0.17271 0.0
C999 C 0.37047 0.93103 0.18969 0.0
N1000 N 0.32578 0.90701 0.09922 0.0
N1001 N 0.39265 0.88631 0.25088 0.0
H1002 H 0.38607 0.98084 0.18166 0.0
H1003 H 0.39447 0.95908 0.23218 0.0
H1004 H 0.3943 0.86243 0.27142 0.0
H1005 H 0.41158 0.89613 0.25498 0.0
H1006 H 0.31529 0.88579 0.08972 0.0
H1007 H 0.33121 0.92171 0.0743 0.0
H1008 H 0.28614 0.88882 0.14214 0.0
H1009 H 0.29328 0.86838 0.19288 0.0
C1010 C 0.80451 0.1276 0.18457 0.0
C1011 C 0.79821 0.13857 0.14126 0.0
C1012 C 0.79024 0.21331 0.16197 0.0
C1013 C 0.80173 0.2003 0.20401 0.0
N1014 N 0.82218 0.14346 0.25461 0.0
N1015 N 0.78432 0.19208 0.08822 0.0
C1016 C 0.80898 0.15716 0.21531 0.0
C1017 C 0.79042 0.18173 0.12995 0.0
N1018 N 0.80625 0.0885 0.19615 0.0
N1019 N 0.77836 0.25612 0.15297 0.0
H1020 H 0.78167 0.17077 0.06505 0.0
H1021 H 0.7828 0.22093 0.07645 0.0
H1022 H 0.77765 0.27991 0.17561 0.0
H1023 H 0.76678 0.26861 0.12431 0.0
H1024 H 0.80781 0.07954 0.22758 0.0
H1025 H 0.80276 0.06672 0.17418 0.0
H1026 H 0.83134 0.11134 0.26325 0.0
H1027 H 0.8266 0.16348 0.27771 0.0
C1028 C 0.61073 0.69216 0.89787 0.0
C1029 C 0.62272 0.65268 0.91915 0.0
C1030 C 0.6768 0.65267 0.92625 0.0
C1031 C 0.66537 0.69083 0.90248 0.0
N1032 N 0.62278 0.74553 0.8625 0.0
N1033 N 0.66675 0.59256 0.95011 0.0
C1034 C 0.63261 0.71033 0.88746 0.0
C1035 C 0.65567 0.63224 0.93254 0.0
N1036 N 0.57825 0.7122 0.88818 0.0
N1037 N 0.70768 0.6365 0.94334 0.0
H1038 H 0.65144 0.57762 0.95619 0.0
H1039 H 0.69117 0.57328 0.9564 0.0
H1040 H 0.72425 0.64974 0.93822 0.0
H1041 H 0.71644 0.6116 0.96471 0.0
H1042 H 0.56694 0.74297 0.87605 0.0
H1043 H 0.56203 0.69883 0.89486 0.0
H1044 H 0.6002 0.75894 0.84702 0.0
H1045 H 0.63804 0.76016 0.85513 0.0
C1046 C 0.4524 0.66269 0.87609 0.0
C1047 C 0.47268 0.63754 0.84269 0.0
C1048 C 0.42413 0.65575 0.79609 0.0
C1049 C 0.40498 0.68666 0.82725 0.0
N1050 N 0.40333 0.72499 0.89453 0.0
N1051 N 0.47818 0.61288 0.76923 0.0
C1052 C 0.41968 0.69141 0.86678 0.0
C1053 C 0.45862 0.63452 0.80224 0.0
N1054 N 0.46414 0.65837 0.91709 0.0
N1055 N 0.40928 0.64563 0.76125 0.0
H1056 H 0.50338 0.59675 0.77268 0.0
H1057 H 0.46969 0.61372 0.73789 0.0
H1058 H 0.3841 0.65915 0.75656 0.0
H1059 H 0.42155 0.62068 0.7394 0.0
H1060 H 0.44947 0.67285 0.94308 0.0
H1061 H 0.48756 0.63642 0.92553 0.0
H1062 H 0.41429 0.73229 0.9217 0.0
H1063 H 0.38004 0.74842 0.88831 0.0
C1064 C 0.47821 0.47498 0.95023 0.0
C1065 C 0.51214 0.45162 0.94616 0.0
C1066 C 0.50568 0.38374 0.93684 0.0
C1067 C 0.47143 0.40766 0.93663 0.0
N1068 N 0.42451 0.47616 0.93882 0.0
N1069 N 0.55855 0.38528 0.93114 0.0
C1070 C 0.45748 0.45338 0.94237 0.0
C1071 C 0.52604 0.40629 0.93856 0.0
N1072 N 0.46608 0.51782 0.96222 0.0
N1073 N 0.51863 0.33955 0.93612 0.0
H1074 H 0.574 0.40109 0.93256 0.0
H1075 H 0.56981 0.35303 0.9208 0.0
H1076 H 0.50436 0.32203 0.93417 0.0
H1077 H 0.54331 0.32029 0.94059 0.0
H1078 H 0.44189 0.53624 0.96972 0.0
H1079 H 0.481 0.53416 0.96804 0.0
H1080 H 0.41305 0.50973 0.93815 0.0
H1081 H 0.4085 0.46141 0.9335 0.0
C1082 C 0.66808 0.44176 0.80879 0.0
C1083 C 0.65592 0.44509 0.85022 0.0
C1084 C 0.70985 0.39358 0.87517 0.0
C1085 C 0.7226 0.39211 0.83438 0.0
N1086 N 0.71548 0.42414 0.76583 0.0
N1087 N 0.6681 0.43471 0.92533 0.0
C1088 C 0.70217 0.41907 0.80221 0.0
C1089 C 0.6777 0.42421 0.88417 0.0
N1090 N 0.64707 0.45855 0.77531 0.0
N1091 N 0.72753 0.3643 0.90475 0.0
H1092 H 0.64534 0.45846 0.93347 0.0
H1093 H 0.68398 0.42353 0.95133 0.0
H1094 H 0.75076 0.34039 0.8994 0.0
H1095 H 0.71784 0.36107 0.93314 0.0
H1096 H 0.6542 0.45285 0.74375 0.0
H1097 H 0.62202 0.47512 0.77876 0.0
H1098 H 0.70232 0.44644 0.74309 0.0
H1099 H 0.7404 0.40949 0.76053 0.0
C1100 C 0.68655 0.44991 0.25885 0.0
C1101 C 0.66057 0.43735 0.25108 0.0
C1102 C 0.69695 0.36218 0.26607 0.0
C1103 C 0.72367 0.37404 0.26907 0.0
N1104 N 0.7447 0.42839 0.26456 0.0
N1105 N 0.64038 0.38209 0.24484 0.0
C1106 C 0.71869 0.4177 0.26442 0.0
C1107 C 0.66553 0.39364 0.25437 0.0
N1108 N 0.6803 0.49284 0.26176 0.0
N1109 N 0.70167 0.32081 0.27406 0.0
H1110 H 0.61677 0.40468 0.2382 0.0
H1111 H 0.64302 0.35023 0.24149 0.0
H1112 H 0.72455 0.2961 0.27974 0.0
H1113 H 0.68282 0.31129 0.27733 0.0
H1114 H 0.69746 0.50459 0.27152 0.0
H1115 H 0.65696 0.51709 0.25828 0.0
H1116 H 0.74303 0.4584 0.25595 0.0
H1117 H 0.76854 0.40646 0.27062 0.0
C1118 C 0.68283 0.58354 0.19706 0.0
C1119 C 0.6498 0.61358 0.19809 0.0
C1120 C 0.66643 0.6663 0.23488 0.0
C1121 C 0.69908 0.64094 0.22315 0.0
N1122 N 0.73638 0.56618 0.22787 0.0
N1123 N 0.6096 0.68346 0.21991 0.0
C1124 C 0.70727 0.59642 0.21374 0.0
C1125 C 0.64144 0.65495 0.21773 0.0
N1126 N 0.69082 0.54262 0.18072 0.0
N1127 N 0.66007 0.69585 0.26793 0.0
H1128 H 0.59073 0.67584 0.20776 0.0
H1129 H 0.60246 0.71547 0.23076 0.0
H1130 H 0.67882 0.69854 0.28659 0.0
H1131 H 0.63697 0.71255 0.28037 0.0
H1132 H 0.71475 0.52078 0.17538 0.0
H1133 H 0.6734 0.53145 0.17038 0.0
H1134 H 0.74264 0.53303 0.22557 0.0
H1135 H 0.75206 0.57486 0.24744 0.0
C1136 C 0.46704 0.63801 0.28649 0.0
C1137 C 0.4895 0.64755 0.26356 0.0
C1138 C 0.45145 0.72408 0.26245 0.0
C1139 C 0.42886 0.71441 0.2847 0.0
N1140 N 0.41771 0.66544 0.32725 0.0
N1141 N 0.50724 0.70053 0.24061 0.0
C1142 C 0.43761 0.67239 0.29992 0.0
C1143 C 0.483 0.69102 0.25516 0.0
N1144 N 0.47272 0.59604 0.29305 0.0
N1145 N 0.44221 0.7642 0.24651 0.0
H1146 H 0.53076 0.67693 0.23585 0.0
H1147 H 0.50503 0.73194 0.23733 0.0
H1148 H 0.41932 0.78907 0.25159 0.0
H1149 H 0.45626 0.77198 0.22596 0.0
H1150 H 0.45532 0.58677 0.30428 0.0
H1151 H 0.49429 0.56996 0.28504 0.0
H1152 H 0.42418 0.63676 0.34306 0.0
H1153 H 0.39573 0.68982 0.33705 0.0
C1154 C 0.50111 0.42502 0.20734 0.0
C1155 C 0.4919 0.4632 0.18433 0.0
C1156 C 0.43681 0.46682 0.17342 0.0
C1157 C 0.44545 0.43009 0.19879 0.0
N1158 N 0.48408 0.3777 0.24509 0.0
N1159 N 0.45062 0.52426 0.1507 0.0
C1160 C 0.47716 0.41017 0.21729 0.0
C1161 C 0.4596 0.48515 0.16877 0.0
N1162 N 0.53309 0.40236 0.21842 0.0
N1163 N 0.40719 0.48336 0.15284 0.0
H1164 H 0.46698 0.53812 0.14678 0.0
H1165 H 0.42671 0.54438 0.14253 0.0
H1166 H 0.38966 0.47134 0.15622 0.0
H1167 H 0.40073 0.50702 0.13025 0.0
H1168 H 0.54227 0.37196 0.23153 0.0
H1169 H 0.55105 0.41258 0.21134 0.0
H1170 H 0.50561 0.36477 0.26301 0.0
H1171 H 0.4672 0.36581 0.25282 0.0
C1172 C 0.82006 0.66686 0.62602 0.0
C1173 C 0.82857 0.62419 0.63932 0.0
C1174 C 0.82774 0.65006 0.71429 0.0
C1175 C 0.81849 0.69313 0.70122 0.0
N1176 N 0.79768 0.74356 0.64455 0.0
N1177 N 0.83225 0.5775 0.69589 0.0
C1178 C 0.81223 0.70179 0.65702 0.0
C1179 C 0.82969 0.6167 0.68347 0.0
N1180 N 0.82078 0.67386 0.58381 0.0
N1181 N 0.83657 0.64026 0.7558 0.0
H1182 H 0.83296 0.55314 0.67395 0.0
H1183 H 0.83017 0.57084 0.72727 0.0
H1184 H 0.83626 0.6632 0.77917 0.0
H1185 H 0.84695 0.60877 0.76642 0.0
H1186 H 0.81896 0.70301 0.57237 0.0
H1187 H 0.82521 0.64955 0.56027 0.0
H1188 H 0.78927 0.75214 0.61361 0.0
H1189 H 0.79101 0.76983 0.66598 0.0
C1190 C 0.51268 0.78114 0.59412 0.0
C1191 C 0.53785 0.78257 0.62147 0.0
C1192 C 0.50212 0.79941 0.68269 0.0
C1193 C 0.47724 0.79631 0.65549 0.0
N1194 N 0.46029 0.77729 0.58687 0.0
N1195 N 0.55892 0.78756 0.69163 0.0
C1196 C 0.48295 0.78519 0.61157 0.0
C1197 C 0.53325 0.78993 0.66582 0.0
N1198 N 0.51711 0.77689 0.55125 0.0
N1199 N 0.49553 0.813 0.72419 0.0
H1200 H 0.58156 0.78198 0.67971 0.0
H1201 H 0.5586 0.78828 0.72468 0.0
H1202 H 0.47314 0.81987 0.73761 0.0
H1203 H 0.51136 0.82014 0.74477 0.0
H1204 H 0.49859 0.78058 0.52898 0.0
H1205 H 0.53907 0.77224 0.53782 0.0
H1206 H 0.46418 0.76486 0.55573 0.0
H1207 H 0.43826 0.77994 0.59853 0.0
C1208 C 0.33423 0.3779 0.65414 0.0
C1209 C 0.33617 0.41758 0.66511 0.0
C1210 C 0.32708 0.40869 0.74012 0.0
C1211 C 0.3289 0.36645 0.73002 0.0
N1212 N 0.33827 0.30891 0.67673 0.0
N1213 N 0.33751 0.46948 0.71854 0.0
C1214 C 0.33325 0.35069 0.68675 0.0
C1215 C 0.3333 0.43269 0.70815 0.0
N1216 N 0.33269 0.36666 0.61214 0.0
N1217 N 0.31812 0.42661 0.77991 0.0
H1218 H 0.34153 0.48782 0.69569 0.0
H1219 H 0.33933 0.48012 0.74969 0.0
H1220 H 0.31234 0.41071 0.80354 0.0
H1221 H 0.31337 0.4586 0.78833 0.0
H1222 H 0.32761 0.34063 0.60141 0.0
H1223 H 0.33366 0.38579 0.58779 0.0
H1224 H 0.34601 0.29393 0.64711 0.0
H1225 H 0.33705 0.28786 0.69862 0.0
C1226 C 0.58378 0.29731 0.64292 0.0
C1227 C 0.5848 0.26105 0.61778 0.0
C1228 C 0.64441 0.23238 0.61677 0.0
C1229 C 0.64369 0.26515 0.64681 0.0
N1230 N 0.61297 0.32784 0.69084 0.0
N1231 N 0.61643 0.19082 0.58524 0.0
C1232 C 0.6134 0.29772 0.66023 0.0
C1233 C 0.61521 0.22784 0.60569 0.0
N1234 N 0.55449 0.33116 0.65032 0.0
N1235 N 0.673 0.20603 0.59807 0.0
H1236 H 0.5958 0.1861 0.57567 0.0
H1237 H 0.63798 0.16331 0.58097 0.0
H1238 H 0.69491 0.20847 0.60525 0.0
H1239 H 0.6744 0.18474 0.57251 0.0
H1240 H 0.55207 0.36036 0.66507 0.0
H1241 H 0.53256 0.33121 0.63857 0.0
H1242 H 0.5919 0.34961 0.7054 0.0
H1243 H 0.63411 0.32928 0.7038 0.0
C1244 C 0.85262 0.38666 0.46168 0.0
C1245 C 0.83704 0.43204 0.45598 0.0
C1246 C 0.80914 0.41737 0.39219 0.0
C1247 C 0.82947 0.37217 0.39366 0.0
N1248 N 0.87555 0.31562 0.42724 0.0
N1249 N 0.80283 0.49038 0.41174 0.0
C1250 C 0.85243 0.35724 0.42791 0.0
C1251 C 0.81575 0.44744 0.42022 0.0
N1252 N 0.86725 0.37148 0.49992 0.0
N1253 N 0.78257 0.43159 0.3654 0.0
H1254 H 0.80694 0.51328 0.43134 0.0
H1255 H 0.79016 0.50261 0.38355 0.0
H1256 H 0.77565 0.41049 0.34685 0.0
H1257 H 0.76541 0.4636 0.36544 0.0
H1258 H 0.87647 0.33893 0.50721 0.0
H1259 H 0.86663 0.39207 0.52587 0.0
H1260 H 0.89466 0.30445 0.4495 0.0
H1261 H 0.87801 0.29367 0.40192 0.0
C1262 C 0.74533 0.78516 0.44923 0.0
C1263 C 0.71354 0.79505 0.4328 0.0
C1264 C 0.72972 0.80584 0.36232 0.0
C1265 C 0.76165 0.79632 0.37876 0.0
N1266 N 0.79889 0.78308 0.43912 0.0
N1267 N 0.67339 0.82167 0.37695 0.0
C1268 C 0.76907 0.78827 0.42274 0.0
C1269 C 0.70516 0.80747 0.39021 0.0
N1270 N 0.75309 0.77068 0.48966 0.0
N1271 N 0.72309 0.81264 0.31987 0.0
H1272 H 0.65514 0.82297 0.39691 0.0
H1273 H 0.6646 0.83505 0.34757 0.0
H1274 H 0.73964 0.81498 0.29914 0.0
H1275 H 0.70175 0.81433 0.30468 0.0
H1276 H 0.77659 0.75814 0.50261 0.0
H1277 H 0.73603 0.76861 0.50968 0.0
H1278 H 0.80472 0.7816 0.47148 0.0
H1279 H 0.81746 0.78307 0.42069 0.0
C1280 C 0.31533 0.65039 0.40842 0.0
C1281 C 0.33815 0.64006 0.44293 0.0
C1282 C 0.35376 0.69784 0.42298 0.0
C1283 C 0.3292 0.71041 0.3902 0.0
N1284 N 0.28217 0.7036 0.35787 0.0
N1285 N 0.37386 0.65983 0.48867 0.0
C1286 C 0.30869 0.68807 0.38474 0.0
C1287 C 0.35574 0.66568 0.45187 0.0
N1288 N 0.30094 0.62311 0.39709 0.0
N1289 N 0.3766 0.71447 0.42514 0.0
H1290 H 0.37547 0.63685 0.51046 0.0
H1291 H 0.38459 0.68038 0.49946 0.0
H1292 H 0.37713 0.7367 0.40395 0.0
H1293 H 0.39701 0.70297 0.44531 0.0
H1294 H 0.28689 0.62596 0.36941 0.0
H1295 H 0.3054 0.59532 0.41354 0.0
H1296 H 0.26448 0.69143 0.35575 0.0
H1297 H 0.27609 0.73141 0.34066 0.0
C1298 C 0.44441 0.24672 0.41227 0.0
C1299 C 0.43862 0.26496 0.45434 0.0
C1300 C 0.38224 0.31122 0.43291 0.0
C1301 C 0.3868 0.28816 0.39305 0.0
N1302 N 0.42175 0.23252 0.34503 0.0
N1303 N 0.40143 0.31274 0.50595 0.0
C1304 C 0.41784 0.25565 0.38272 0.0
C1305 C 0.40746 0.29717 0.4649 0.0
N1306 N 0.4756 0.22182 0.40026 0.0
N1307 N 0.35395 0.3469 0.43997 0.0
H1308 H 0.4193 0.30367 0.53 0.0
H1309 H 0.37832 0.33239 0.51686 0.0
H1310 H 0.33509 0.35789 0.41736 0.0
H1311 H 0.35027 0.36775 0.4665 0.0
H1312 H 0.48196 0.2109 0.36908 0.0
H1313 H 0.49565 0.21563 0.42074 0.0
H1314 H 0.44264 0.205 0.3377 0.0
H1315 H 0.40323 0.23921 0.32197 0.0
C1316 C 0.68172 0.81692 0.68636 0.0
C1317 C 0.68023 0.83828 0.64839 0.0
C1318 C 0.7176 0.86724 0.68066 0.0
C1319 C 0.72437 0.83851 0.71464 0.0
N1320 N 0.71434 0.78197 0.74726 0.0
N1321 N 0.69744 0.88313 0.60809 0.0
C1322 C 0.70641 0.81282 0.71739 0.0
C1323 C 0.69793 0.86392 0.64535 0.0
N1324 N 0.65942 0.80044 0.69266 0.0
N1325 N 0.72969 0.89801 0.68249 0.0
H1326 H 0.68295 0.88195 0.58186 0.0
H1327 H 0.71291 0.89785 0.6023 0.0
H1328 H 0.74333 0.902 0.70855 0.0
H1329 H 0.72339 0.92225 0.66051 0.0
H1330 H 0.65722 0.78824 0.72149 0.0
H1331 H 0.64084 0.80335 0.67053 0.0
H1332 H 0.70466 0.75901 0.74677 0.0
H1333 H 0.73241 0.77641 0.77055 0.0
C1334 C 0.65186 0.15025 0.46541 0.0
C1335 C 0.62038 0.17562 0.44888 0.0
C1336 C 0.64255 0.21489 0.40604 0.0
C1337 C 0.67426 0.18874 0.42178 0.0
N1338 N 0.71014 0.12532 0.45858 0.0
N1339 N 0.58623 0.22497 0.39735 0.0
C1340 C 0.67923 0.15435 0.44898 0.0
C1341 C 0.61598 0.20563 0.41708 0.0
N1342 N 0.65537 0.12396 0.49839 0.0
N1343 N 0.63756 0.24984 0.3824 0.0
H1344 H 0.56658 0.21829 0.40494 0.0
H1345 H 0.58182 0.2443 0.37115 0.0
H1346 H 0.65635 0.25775 0.37368 0.0
H1347 H 0.61459 0.27283 0.37398 0.0
H1348 H 0.67714 0.10849 0.5153 0.0
H1349 H 0.63582 0.12019 0.51104 0.0
H1350 H 0.71535 0.09722 0.4749 0.0
H1351 H 0.7307 0.12728 0.44685 0.0
C1352 C 0.9089 0.6179 0.42725 0.0
C1353 C 0.89182 0.59122 0.42601 0.0
C1354 C 0.85959 0.62876 0.36426 0.0
C1355 C 0.87729 0.65489 0.3648 0.0
N1356 N 0.92468 0.66588 0.38888 0.0
N1357 N 0.85801 0.56256 0.38696 0.0
C1358 C 0.90393 0.64662 0.39377 0.0
C1359 C 0.86949 0.59383 0.39226 0.0
N1360 N 0.92843 0.61754 0.46159 0.0
N1361 N 0.83211 0.63882 0.33936 0.0
H1362 H 0.86552 0.53616 0.40664 0.0
H1363 H 0.84388 0.56041 0.36074 0.0
H1364 H 0.82339 0.66452 0.31889 0.0
H1365 H 0.81639 0.62374 0.34157 0.0
H1366 H 0.93877 0.63967 0.46651 0.0
H1367 H 0.93213 0.59735 0.48698 0.0
H1368 H 0.9461 0.65828 0.40681 0.0
H1369 H 0.92219 0.68614 0.36386 0.0
C1370 C 0.51542 0.91917 0.46259 0.0
C1371 C 0.54193 0.87838 0.46743 0.0
C1372 C 0.50638 0.84137 0.44875 0.0
C1373 C 0.48022 0.88217 0.44197 0.0
N1374 N 0.45992 0.95938 0.43686 0.0
N1375 N 0.56387 0.8003 0.4638 0.0
C1376 C 0.48475 0.92099 0.44742 0.0
C1377 C 0.53776 0.83936 0.45989 0.0
N1378 N 0.51952 0.95606 0.4733 0.0
N1379 N 0.5008 0.8047 0.44608 0.0
H1380 H 0.58647 0.79707 0.47603 0.0
H1381 H 0.56386 0.77079 0.45356 0.0
H1382 H 0.47817 0.80477 0.4382 0.0
H1383 H 0.51784 0.77416 0.454 0.0
H1384 H 0.50056 0.98675 0.47493 0.0
H1385 H 0.54192 0.95573 0.4832 0.0
H1386 H 0.46234 0.98842 0.43593 0.0
H1387 H 0.43715 0.96175 0.42602 0.0
C1388 C 0.29793 0.48306 0.40379 0.0
C1389 C 0.28532 0.48143 0.44398 0.0
C1390 C 0.25551 0.44209 0.41115 0.0
C1391 C 0.27323 0.43616 0.37349 0.0
N1392 N 0.29567 0.47065 0.32736 0.0
N1393 N 0.24717 0.46638 0.48444 0.0
C1394 C 0.28954 0.46298 0.36748 0.0
C1395 C 0.26197 0.46414 0.44694 0.0
N1396 N 0.31874 0.50254 0.40074 0.0
N1397 N 0.23265 0.4261 0.41375 0.0
H1398 H 0.25138 0.4819 0.51188 0.0
H1399 H 0.23052 0.45283 0.4877 0.0
H1400 H 0.22562 0.41113 0.388 0.0
H1401 H 0.22562 0.41113 0.388 0.0
H1402 H 0.33201 0.50012 0.37375 0.0
H1403 H 0.32374 0.51986 0.42614 0.0
H1404 H 0.30602 0.49181 0.32078 0.0
H1405 H 0.28607 0.46078 0.3004 0.0
C1406 C 0.44069 0.1796 0.6816 0.0
C1407 C 0.46029 0.20248 0.67744 0.0
C1408 C 0.43555 0.24767 0.74059 0.0
C1409 C 0.4171 0.22311 0.74624 0.0
N1410 N 0.40952 0.15803 0.72868 0.0
N1411 N 0.48307 0.24955 0.7095 0.0
C1412 C 0.42206 0.1866 0.71875 0.0
C1413 C 0.45978 0.23382 0.70902 0.0
N1414 N 0.43867 0.15269 0.64912 0.0
N1415 N 0.42892 0.28555 0.76324 0.0
H1416 H 0.50169 0.23899 0.68759 0.0
H1417 H 0.48593 0.26935 0.73414 0.0
H1418 H 0.41153 0.29761 0.78659 0.0
H1419 H 0.43897 0.30699 0.75636 0.0
H1420 H 0.42222 0.13847 0.64847 0.0
H1421 H 0.45125 0.14788 0.62096 0.0
H1422 H 0.41469 0.1289 0.71179 0.0
H1423 H 0.39692 0.1612 0.75657 0.0
C1424 C 0.84587 0.43318 0.69734 0.0
C1425 C 0.86169 0.41083 0.66013 0.0
C1426 C 0.83987 0.35681 0.66769 0.0
C1427 C 0.82716 0.3764 0.70773 0.0
N1428 N 0.80365 0.44452 0.74718 0.0
N1429 N 0.87672 0.35006 0.61107 0.0
C1430 C 0.82606 0.41793 0.71901 0.0
C1431 C 0.85951 0.37219 0.64567 0.0
N1432 N 0.85032 0.46875 0.71216 0.0
N1433 N 0.83035 0.32685 0.64871 0.0
H1434 H 0.89136 0.36093 0.59478 0.0
H1435 H 0.87886 0.3194 0.60099 0.0
H1436 H 0.81154 0.32067 0.6604 0.0
H1437 H 0.83718 0.31327 0.61838 0.0
H1438 H 0.84209 0.48424 0.74145 0.0
H1439 H 0.865 0.48021 0.69679 0.0
H1440 H 0.8001 0.47633 0.75444 0.0
H1441 H 0.78523 0.43708 0.75822 0.0
C1442 C 0.28175 0.63986 0.67284 0.0
C1443 C 0.30263 0.63229 0.63814 0.0
C1444 C 0.3219 0.68511 0.66808 0.0
C1445 C 0.30006 0.69428 0.7019 0.0
N1446 N 0.25376 0.68835 0.73139 0.0
N1447 N 0.33452 0.65697 0.59607 0.0
C1448 C 0.27818 0.67417 0.70269 0.0
C1449 C 0.31996 0.65816 0.63356 0.0
N1450 N 0.26678 0.61301 0.67861 0.0
N1451 N 0.34605 0.69944 0.67019 0.0
H1452 H 0.33296 0.63807 0.56975 0.0
H1453 H 0.34497 0.67812 0.58972 0.0
H1454 H 0.34976 0.71705 0.69625 0.0
H1455 H 0.36459 0.6898 0.64825 0.0
H1456 H 0.25437 0.61395 0.70604 0.0
H1457 H 0.2686 0.58778 0.65721 0.0
H1458 H 0.23527 0.67763 0.73083 0.0
H1459 H 0.25025 0.71383 0.75329 0.0
loop_
_geom_bond_atom_site_label_1
_geom_bond_atom_site_label_2
_geom_bond_distance
_geom_bond_site_symmetry_2
_ccdc_geom_bond_type
Cu0 N1 1.999 . S
Cu0 O6 1.974 1_545 S
Cu0 N11 1.985 1_545 S
Cu0 O20 1.959 . S
N1 Cu0 1.999 . S
N1 C3 1.263 . S
N1 C5 1.389 . S
N2 C3 1.358 . S
N2 C4 1.400 . S
C3 N1 1.263 . S
C3 N2 1.358 . S
C3 H9 0.930 . S
C4 N2 1.400 . S
C4 C5 1.351 . S
C4 H21 0.930 . S
C5 N1 1.389 . S
C5 C4 1.351 . S
C5 H10 0.930 . S
O6 Cu0 1.974 1_565 S
O6 C16 1.282 . S
C7 O8 1.261 . S
C7 O20 1.251 . S
O8 C7 1.261 . S
H9 C3 0.930 . S
H10 C5 0.930 . S
N11 Cu0 1.985 1_565 S
N11 C13 1.341 1_565 S
N11 C14 1.390 . S
N12 C13 1.327 1_565 S
N12 C15 1.336 . S
C13 N11 1.341 1_545 S
C13 N12 1.327 1_545 S
C13 H18 0.940 . S
C14 N11 1.390 . S
C14 C15 1.346 . S
C14 H19 0.930 . S
C15 N12 1.336 . S
C15 C14 1.346 . S
C15 H22 0.929 . S
C16 O6 1.282 . S
C16 O17 1.216 . S
O17 C16 1.216 . S
H18 C13 0.940 . S
H19 C14 0.930 . S
O20 Cu0 1.959 . S
O20 C7 1.251 . S
H21 C4 0.930 . S
H22 C15 0.929 . S
Cu23 N24 1.999 1_545 S
Cu23 O29 1.974 . S
Cu23 N34 1.985 . S
Cu23 O43 1.959 1_545 S
N24 Cu23 1.999 1_565 S
N24 C26 1.263 . S
N24 C28 1.389 . S
N25 C26 1.358 . S
N25 C27 1.400 . S
C26 N24 1.263 . S
C26 N25 1.358 . S
C26 H32 0.930 . S
C27 N25 1.400 . S
C27 C28 1.351 . S
C27 H44 0.930 . S
C28 N24 1.389 . S
C28 C27 1.351 . S
C28 H33 0.930 . S
O29 Cu23 1.974 . S
O29 C39 1.282 . S
C30 O31 1.261 . S
C30 O43 1.251 . S
O31 C30 1.261 . S
H32 C26 0.930 . S
H33 C28 0.930 . S
N34 Cu23 1.985 . S
N34 C36 1.335 . S
N34 C37 1.390 . S
N35 C36 1.345 . S
N35 C38 1.336 . S
C36 N34 1.335 . S
C36 N35 1.345 . S
C36 H41 0.930 . S
C37 N34 1.390 . S
C37 C38 1.346 . S
C37 H42 0.930 . S
C38 N35 1.336 . S
C38 C37 1.346 . S
C38 H45 0.929 . S
C39 O29 1.282 . S
C39 O40 1.216 . S
O40 C39 1.216 . S
H41 C36 0.930 . S
H42 C37 0.930 . S
O43 Cu23 1.959 1_565 S
O43 C30 1.251 . S
H44 C27 0.930 . S
H45 C38 0.929 . S
Cu46 N47 1.999 1_544 S
Cu46 O52 1.974 1_545 S
Cu46 N57 1.985 . S
Cu46 O66 1.959 1_554 S
N47 Cu46 1.999 1_566 S
N47 C49 1.263 . S
N47 C51 1.389 . S
N48 C49 1.358 . S
N48 C50 1.400 . S
C49 N47 1.263 . S
C49 N48 1.358 . S
C49 H55 0.930 . S
C50 N48 1.400 . S
C50 C51 1.351 . S
C50 H67 0.930 . S
C51 N47 1.389 . S
C51 C50 1.351 . S
C51 H56 0.930 1_565 S
O52 Cu46 1.974 1_565 S
O52 C62 1.282 . S
C53 O54 1.261 . S
C53 O66 1.251 . S
O54 C53 1.261 . S
H55 C49 0.930 . S
H56 C51 0.930 1_545 S
N57 Cu46 1.985 . S
N57 C59 1.335 . S
N57 C60 1.390 . S
N58 C59 1.345 . S
N58 C61 1.336 . S
C59 N57 1.335 . S
C59 N58 1.345 . S
C59 H64 0.930 . S
C60 N57 1.390 . S
C60 C61 1.346 . S
C60 H65 0.930 . S
C61 N58 1.336 . S
C61 C60 1.346 . S
C61 H68 0.929 . S
C62 O52 1.282 . S
C62 O63 1.216 1_565 S
O63 C62 1.216 1_545 S
H64 C59 0.930 . S
H65 C60 0.930 . S
O66 Cu46 1.959 1_556 S
O66 C53 1.251 . S
H67 C50 0.930 . S
H68 C61 0.929 . S
Cu69 N70 1.999 1_554 S
Cu69 O75 1.974 . S
Cu69 N80 1.985 . S
Cu69 O89 1.959 1_554 S
N70 Cu69 1.999 1_556 S
N70 C72 1.263 . S
N70 C74 1.389 . S
N71 C72 1.358 . S
N71 C73 1.400 . S
C72 N70 1.263 . S
C72 N71 1.358 . S
C72 H78 0.930 1_556 S
C73 N71 1.400 . S
C73 C74 1.351 . S
C73 H90 0.930 . S
C74 N70 1.389 . S
C74 C73 1.351 . S
C74 H79 0.930 . S
O75 Cu69 1.974 . S
O75 C85 1.282 . S
C76 O77 1.261 . S
C76 O89 1.251 . S
O77 C76 1.261 . S
H78 C72 0.930 1_554 S
H79 C74 0.930 . S
N80 Cu69 1.985 . S
N80 C82 1.335 . S
N80 C83 1.390 . S
N81 C82 1.345 . S
N81 C84 1.336 . S
C82 N80 1.335 . S
C82 N81 1.345 . S
C82 H87 0.930 . S
C83 N80 1.390 . S
C83 C84 1.346 . S
C83 H88 0.930 . S
C84 N81 1.336 . S
C84 C83 1.346 . S
C84 H91 0.929 . S
C85 O75 1.282 . S
C85 O86 1.216 . S
O86 C85 1.216 . S
H87 C82 0.930 . S
H88 C83 0.930 . S
O89 Cu69 1.959 1_556 S
O89 C76 1.251 . S
H90 C73 0.930 . S
H91 C84 0.929 . S
Cu92 N93 1.999 1_554 S
Cu92 O98 1.974 . S
Cu92 N103 1.985 1_545 S
Cu92 O112 1.959 1_544 S
N93 Cu92 1.999 1_556 S
N93 C95 1.263 . S
N93 C97 1.389 . S
N94 C95 1.358 . S
N94 C96 1.400 . S
C95 N93 1.263 . S
C95 N94 1.358 . S
C95 H101 0.930 . S
C96 N94 1.400 . S
C96 C97 1.351 . S
C96 H113 0.930 . S
C97 N93 1.389 . S
C97 C96 1.351 . S
C97 H102 0.930 . S
O98 Cu92 1.974 . S
O98 C108 1.282 . S
C99 O100 1.261 . S
C99 O112 1.251 . S
O100 C99 1.261 . S
H101 C95 0.930 . S
H102 C97 0.930 . S
N103 Cu92 1.985 1_565 S
N103 C105 1.335 . S
N103 C106 1.390 . S
N104 C105 1.345 . S
N104 C107 1.336 . S
C105 N103 1.335 . S
C105 N104 1.345 . S
C105 H110 0.930 . S
C106 N103 1.390 . S
C106 C107 1.346 . S
C106 H111 0.930 . S
C107 N104 1.336 . S
C107 C106 1.346 . S
C107 H114 0.929 . S
C108 O98 1.282 . S
C108 O109 1.216 . S
O109 C108 1.216 . S
H110 C105 0.930 . S
H111 C106 0.930 . S
O112 Cu92 1.959 1_566 S
O112 C99 1.251 . S
H113 C96 0.930 . S
H114 C107 0.929 . S
Cu115 N116 1.992 1_454 S
Cu115 O121 1.981 1_455 S
Cu115 N126 1.992 . S
Cu115 O135 1.952 1_554 S
N116 Cu115 1.992 1_656 S
N116 C118 1.263 . S
N116 C120 1.389 1_655 S
N117 C118 1.358 . S
N117 C119 1.400 . S
C118 N116 1.263 . S
C118 N117 1.358 . S
C118 H124 0.930 . S
C119 N117 1.400 . S
C119 C120 1.351 1_655 S
C119 H136 0.930 . S
C120 N116 1.389 1_455 S
C120 C119 1.351 1_455 S
C120 H125 0.930 . S
O121 Cu115 1.981 1_655 S
O121 C131 1.282 . S
C122 O123 1.261 . S
C122 O135 1.251 . S
O123 C122 1.261 . S
H124 C118 0.930 . S
H125 C120 0.930 . S
N126 Cu115 1.992 . S
N126 C128 1.335 . S
N126 C129 1.390 . S
N127 C128 1.345 . S
N127 C130 1.336 . S
C128 N126 1.335 . S
C128 N127 1.345 . S
C128 H133 0.930 . S
C129 N126 1.390 . S
C129 C130 1.346 . S
C129 H134 0.930 . S
C130 N127 1.336 . S
C130 C129 1.346 . S
C130 H137 0.929 . S
C131 O121 1.282 . S
C131 O132 1.216 . S
O132 C131 1.216 . S
H133 C128 0.930 . S
H134 C129 0.930 . S
O135 Cu115 1.952 1_556 S
O135 C122 1.251 . S
H136 C119 0.930 . S
H137 C130 0.929 . S
Cu138 N139 1.999 . S
Cu138 O144 1.974 . S
Cu138 N149 1.985 . S
Cu138 O158 1.959 . S
N139 Cu138 1.999 . S
N139 C141 1.263 . S
N139 C143 1.389 . S
N140 C141 1.358 . S
N140 C142 1.400 . S
C141 N139 1.263 . S
C141 N140 1.358 . S
C141 H147 0.930 . S
C142 N140 1.400 . S
C142 C143 1.351 . S
C142 H159 0.930 . S
C143 N139 1.389 . S
C143 C142 1.351 . S
C143 H148 0.930 . S
O144 Cu138 1.974 . S
O144 C154 1.282 . S
C145 O146 1.261 . S
C145 O158 1.251 . S
O146 C145 1.261 . S
H147 C141 0.930 . S
H148 C143 0.930 . S
N149 Cu138 1.985 . S
N149 C151 1.335 . S
N149 C152 1.390 . S
N150 C151 1.345 . S
N150 C153 1.336 . S
C151 N149 1.335 . S
C151 N150 1.345 . S
C151 H156 0.930 . S
C152 N149 1.390 . S
C152 C153 1.346 . S
C152 H157 0.930 . S
C153 N150 1.336 . S
C153 C152 1.346 . S
C153 H160 0.929 . S
C154 O144 1.282 . S
C154 O155 1.216 . S
O155 C154 1.216 . S
H156 C151 0.930 . S
H157 C152 0.930 . S
O158 Cu138 1.959 . S
O158 C145 1.251 . S
H159 C142 0.930 . S
H160 C153 0.929 . S
Cu161 N162 1.999 . S
Cu161 O167 1.974 . S
Cu161 N172 1.985 . S
Cu161 O181 1.959 . S
N162 Cu161 1.999 . S
N162 C164 1.263 . S
N162 C166 1.389 . S
N163 C164 1.358 . S
N163 C165 1.400 . S
C164 N162 1.263 . S
C164 N163 1.358 . S
C164 H170 0.930 . S
C165 N163 1.400 . S
C165 C166 1.351 . S
C165 H182 0.930 . S
C166 N162 1.389 . S
C166 C165 1.351 . S
C166 H171 0.930 . S
O167 Cu161 1.974 . S
O167 C177 1.282 . S
C168 O169 1.261 . S
C168 O181 1.251 . S
O169 C168 1.261 . S
H170 C164 0.930 . S
H171 C166 0.930 . S
N172 Cu161 1.985 . S
N172 C174 1.335 . S
N172 C175 1.390 . S
N173 C174 1.345 . S
N173 C176 1.336 . S
C174 N172 1.335 . S
C174 N173 1.345 . S
C174 H179 0.930 . S
C175 N172 1.390 . S
C175 C176 1.346 . S
C175 H180 0.930 . S
C176 N173 1.336 . S
C176 C175 1.346 . S
C176 H183 0.929 . S
C177 O167 1.282 . S
C177 O178 1.216 . S
O178 C177 1.216 . S
H179 C174 0.930 . S
H180 C175 0.930 . S
O181 Cu161 1.959 . S
O181 C168 1.251 . S
H182 C165 0.930 . S
H183 C176 0.929 . S
Cu184 N185 1.999 . S
Cu184 O190 1.974 . S
Cu184 N195 1.985 . S
Cu184 O204 1.959 . S
N185 Cu184 1.999 . S
N185 C187 1.263 . S
N185 C189 1.389 . S
N186 C187 1.358 . S
N186 C188 1.400 . S
C187 N185 1.263 . S
C187 N186 1.358 . S
C187 H193 0.930 . S
C188 N186 1.400 . S
C188 C189 1.351 . S
C188 H205 0.930 . S
C189 N185 1.389 . S
C189 C188 1.351 . S
C189 H194 0.930 . S
O190 Cu184 1.974 . S
O190 C200 1.282 . S
C191 O192 1.261 . S
C191 O204 1.251 . S
O192 C191 1.261 . S
H193 C187 0.930 . S
H194 C189 0.930 . S
N195 Cu184 1.985 . S
N195 C197 1.335 . S
N195 C198 1.390 . S
N196 C197 1.345 . S
N196 C199 1.336 . S
C197 N195 1.335 . S
C197 N196 1.345 . S
C197 H202 0.930 . S
C198 N195 1.390 . S
C198 C199 1.346 . S
C198 H203 0.930 . S
C199 N196 1.336 . S
C199 C198 1.346 . S
C199 H206 0.929 . S
C200 O190 1.282 . S
C200 O201 1.216 . S
O201 C200 1.216 . S
H202 C197 0.930 . S
H203 C198 0.930 . S
O204 Cu184 1.959 . S
O204 C191 1.251 . S
H205 C188 0.930 . S
H206 C199 0.929 . S
Cu207 N208 1.999 . S
Cu207 O213 1.974 . S
Cu207 N218 1.985 . S
Cu207 O227 1.959 . S
N208 Cu207 1.999 . S
N208 C210 1.263 . S
N208 C212 1.389 . S
N209 C210 1.358 . S
N209 C211 1.400 . S
C210 N208 1.263 . S
C210 N209 1.358 . S
C210 H216 0.930 . S
C211 N209 1.400 . S
C211 C212 1.351 . S
C211 H228 0.930 . S
C212 N208 1.389 . S
C212 C211 1.351 . S
C212 H217 0.930 . S
O213 Cu207 1.974 . S
O213 C223 1.282 . S
C214 O215 1.261 . S
C214 O227 1.251 . S
O215 C214 1.261 . S
H216 C210 0.930 . S
H217 C212 0.930 . S
N218 Cu207 1.985 . S
N218 C220 1.335 . S
N218 C221 1.390 . S
N219 C220 1.345 . S
N219 C222 1.336 . S
C220 N218 1.335 . S
C220 N219 1.345 . S
C220 H225 0.930 . S
C221 N218 1.390 . S
C221 C222 1.346 . S
C221 H226 0.930 . S
C222 N219 1.336 . S
C222 C221 1.346 . S
C222 H229 0.929 . S
C223 O213 1.282 . S
C223 O224 1.216 . S
O224 C223 1.216 . S
H225 C220 0.930 . S
H226 C221 0.930 . S
O227 Cu207 1.959 . S
O227 C214 1.251 . S
H228 C211 0.930 . S
H229 C222 0.929 . S
Cu230 N231 1.999 . S
Cu230 O236 1.974 . S
Cu230 N241 1.985 . S
Cu230 O250 1.959 . S
N231 Cu230 1.999 . S
N231 C233 1.263 . S
N231 C235 1.389 . S
N232 C233 1.358 . S
N232 C234 1.400 . S
C233 N231 1.263 . S
C233 N232 1.358 . S
C233 H239 0.930 . S
C234 N232 1.400 . S
C234 C235 1.351 . S
C234 H251 0.930 . S
C235 N231 1.389 . S
C235 C234 1.351 . S
C235 H240 0.930 . S
O236 Cu230 1.974 . S
O236 C246 1.282 . S
C237 O238 1.261 . S
C237 O250 1.251 . S
O238 C237 1.261 . S
H239 C233 0.930 . S
H240 C235 0.930 . S
N241 Cu230 1.985 . S
N241 C243 1.335 . S
N241 C244 1.390 . S
N242 C243 1.345 . S
N242 C245 1.336 . S
C243 N241 1.335 . S
C243 N242 1.345 . S
C243 H248 0.930 . S
C244 N241 1.390 . S
C244 C245 1.346 . S
C244 H249 0.930 . S
C245 N242 1.336 . S
C245 C244 1.346 . S
C245 H252 0.929 . S
C246 O236 1.282 . S
C246 O247 1.216 . S
O247 C246 1.216 . S
H248 C243 0.930 . S
H249 C244 0.930 . S
O250 Cu230 1.959 . S
O250 C237 1.251 . S
H251 C234 0.930 . S
H252 C245 0.929 . S
Cu253 N254 1.999 . S
Cu253 O259 1.974 . S
Cu253 N264 1.985 . S
Cu253 O273 1.959 . S
N254 Cu253 1.999 . S
N254 C256 1.263 . S
N254 C258 1.389 . S
N255 C256 1.358 . S
N255 C257 1.400 . S
C256 N254 1.263 . S
C256 N255 1.358 . S
C256 H262 0.930 . S
C257 N255 1.400 . S
C257 C258 1.351 . S
C257 H274 0.930 . S
C258 N254 1.389 . S
C258 C257 1.351 . S
C258 H263 0.930 . S
O259 Cu253 1.974 . S
O259 C269 1.282 . S
C260 O261 1.261 . S
C260 O273 1.251 . S
O261 C260 1.261 . S
H262 C256 0.930 . S
H263 C258 0.930 . S
N264 Cu253 1.985 . S
N264 C266 1.335 . S
N264 C267 1.390 . S
N265 C266 1.345 . S
N265 C268 1.336 . S
C266 N264 1.335 . S
C266 N265 1.345 . S
C266 H271 0.930 . S
C267 N264 1.390 . S
C267 C268 1.346 . S
C267 H272 0.930 . S
C268 N265 1.336 . S
C268 C267 1.346 . S
C268 H275 0.929 . S
C269 O259 1.282 . S
C269 O270 1.216 . S
O270 C269 1.216 . S
H271 C266 0.930 . S
H272 C267 0.930 . S
O273 Cu253 1.959 . S
O273 C260 1.251 . S
H274 C257 0.930 . S
H275 C268 0.929 . S
Dy276 O279 2.307 . S
Dy276 O281 2.395 . S
Dy276 O282 2.379 . S
Dy276 O284 2.339 . S
Dy276 O286 2.298 . S
Dy276 O290 2.275 . S
Dy276 C298 2.738 . S
Dy277 O280 2.298 . S
Dy277 O283 2.275 . S
Dy277 O285 2.307 . S
Dy277 O287 2.395 . S
Dy277 O288 2.379 . S
Dy277 O291 2.339 . S
Dy277 C307 2.738 . S
C278 O290 1.254 . S
C278 O291 1.257 . S
O279 Dy276 2.307 . S
O279 C289 1.266 . S
O280 Dy277 2.298 . S
O280 C289 1.236 . S
O281 Dy276 2.395 . S
O281 C298 1.255 . S
O282 Dy276 2.379 . S
O282 C298 1.249 . S
O283 Dy277 2.275 . S
O283 C299 1.254 . S
O284 Dy276 2.339 . S
O284 C299 1.257 . S
O285 Dy277 2.307 . S
O285 C300 1.266 . S
O286 Dy276 2.298 . S
O286 C300 1.236 . S
O287 Dy277 2.395 . S
O287 C307 1.255 . S
O288 Dy277 2.379 . S
O288 C307 1.249 . S
C289 O279 1.266 . S
C289 O280 1.236 . S
O290 Dy276 2.275 . S
O290 C278 1.254 . S
O291 Dy277 2.339 . S
O291 C278 1.257 . S
C292 C295 1.344 . S
C292 C296 1.328 . S
C292 C298 1.516 . S
C293 C294 1.304 . S
C293 C297 1.323 . S
C294 C293 1.304 . S
C294 C295 1.371 . S
C294 H308 0.930 . S
C295 C292 1.344 . S
C295 C294 1.371 . S
C295 H309 0.931 . S
C296 C292 1.328 . S
C296 C297 1.433 . S
C296 H310 0.931 . S
C297 C293 1.323 . S
C297 C296 1.433 . S
C297 H311 0.933 . S
C298 Dy276 2.738 . S
C298 O281 1.255 . S
C298 O282 1.249 . S
C298 C292 1.516 . S
C299 O283 1.254 . S
C299 O284 1.257 . S
C300 O285 1.266 . S
C300 O286 1.236 . S
C301 C304 1.344 . S
C301 C305 1.328 . S
C301 C307 1.516 . S
C302 C303 1.304 . S
C302 C306 1.323 . S
C303 C302 1.304 . S
C303 C304 1.371 . S
C303 H312 0.930 . S
C304 C301 1.344 . S
C304 C303 1.371 . S
C304 H313 0.931 . S
C305 C301 1.328 . S
C305 C306 1.433 . S
C305 H314 0.931 . S
C306 C302 1.323 . S
C306 C305 1.433 . S
C306 H315 0.933 . S
C307 Dy277 2.738 . S
C307 O287 1.255 . S
C307 O288 1.249 . S
C307 C301 1.516 . S
H308 C294 0.930 . S
H309 C295 0.931 . S
H310 C296 0.931 . S
H311 C297 0.933 . S
H312 C303 0.930 . S
H313 C304 0.931 . S
H314 C305 0.931 . S
H315 C306 0.933 . S
Dy316 O319 2.307 . S
Dy316 O321 2.395 . S
Dy316 O322 2.379 . S
Dy316 O324 2.339 . S
Dy316 O326 2.298 . S
Dy316 O330 2.275 . S
Dy316 C338 2.738 . S
Dy317 O320 2.298 . S
Dy317 O323 2.275 . S
Dy317 O325 2.307 . S
Dy317 O327 2.395 . S
Dy317 O328 2.379 . S
Dy317 O331 2.339 . S
Dy317 C347 2.738 . S
C318 O330 1.254 . S
C318 O331 1.257 . S
O319 Dy316 2.307 . S
O319 C329 1.266 . S
O320 Dy317 2.298 . S
O320 C329 1.236 . S
O321 Dy316 2.395 . S
O321 C338 1.255 . S
O322 Dy316 2.379 . S
O322 C338 1.249 . S
O323 Dy317 2.275 . S
O323 C339 1.254 . S
O324 Dy316 2.339 . S
O324 C339 1.257 . S
O325 Dy317 2.307 . S
O325 C340 1.266 . S
O326 Dy316 2.298 . S
O326 C340 1.236 . S
O327 Dy317 2.395 . S
O327 C347 1.255 . S
O328 Dy317 2.379 . S
O328 C347 1.249 . S
C329 O319 1.266 . S
C329 O320 1.236 . S
O330 Dy316 2.275 . S
O330 C318 1.254 . S
O331 Dy317 2.339 . S
O331 C318 1.257 . S
C332 C335 1.344 . S
C332 C336 1.328 . S
C332 C338 1.516 . S
C333 C334 1.304 . S
C333 C337 1.323 . S
C334 C333 1.304 . S
C334 C335 1.371 . S
C334 H348 0.930 . S
C335 C332 1.344 . S
C335 C334 1.371 . S
C335 H349 0.931 . S
C336 C332 1.328 . S
C336 C337 1.433 . S
C336 H350 0.931 . S
C337 C333 1.323 . S
C337 C336 1.433 . S
C337 H351 0.933 . S
C338 Dy316 2.738 . S
C338 O321 1.255 . S
C338 O322 1.249 . S
C338 C332 1.516 . S
C339 O323 1.254 . S
C339 O324 1.257 . S
C340 O325 1.266 . S
C340 O326 1.236 . S
C341 C344 1.344 . S
C341 C345 1.328 . S
C341 C347 1.516 . S
C342 C343 1.304 . S
C342 C346 1.323 . S
C343 C342 1.304 . S
C343 C344 1.371 . S
C343 H352 0.930 . S
C344 C341 1.344 . S
C344 C343 1.371 . S
C344 H353 0.931 . S
C345 C341 1.328 . S
C345 C346 1.433 . S
C345 H354 0.931 . S
C346 C342 1.323 . S
C346 C345 1.433 . S
C346 H355 0.933 . S
C347 Dy317 2.738 . S
C347 O327 1.255 . S
C347 O328 1.249 . S
C347 C341 1.516 . S
H348 C334 0.930 . S
H349 C335 0.931 . S
H350 C336 0.931 . S
H351 C337 0.933 . S
H352 C343 0.930 . S
H353 C344 0.931 . S
H354 C345 0.931 . S
H355 C346 0.933 . S
Dy356 O359 2.307 . S
Dy356 O361 2.395 . S
Dy356 O362 2.379 . S
Dy356 O364 2.339 . S
Dy356 O366 2.298 . S
Dy356 O370 2.275 . S
Dy356 C378 2.738 . S
Dy357 O360 2.298 . S
Dy357 O363 2.275 . S
Dy357 O365 2.307 . S
Dy357 O367 2.395 . S
Dy357 O368 2.379 . S
Dy357 O371 2.339 . S
Dy357 C387 2.738 . S
C358 O370 1.254 . S
C358 O371 1.257 . S
O359 Dy356 2.307 . S
O359 C369 1.266 . S
O360 Dy357 2.298 . S
O360 C369 1.236 . S
O361 Dy356 2.395 . S
O361 C378 1.255 . S
O362 Dy356 2.379 . S
O362 C378 1.249 . S
O363 Dy357 2.275 . S
O363 C379 1.254 . S
O364 Dy356 2.339 . S
O364 C379 1.257 . S
O365 Dy357 2.307 . S
O365 C380 1.266 . S
O366 Dy356 2.298 . S
O366 C380 1.236 . S
O367 Dy357 2.395 . S
O367 C387 1.255 . S
O368 Dy357 2.379 . S
O368 C387 1.249 . S
C369 O359 1.266 . S
C369 O360 1.236 . S
O370 Dy356 2.275 . S
O370 C358 1.254 . S
O371 Dy357 2.339 . S
O371 C358 1.257 . S
C372 C375 1.344 . S
C372 C376 1.328 . S
C372 C378 1.516 . S
C373 C374 1.304 . S
C373 C377 1.323 . S
C374 C373 1.304 . S
C374 C375 1.371 . S
C374 H388 0.930 . S
C375 C372 1.344 . S
C375 C374 1.371 . S
C375 H389 0.931 . S
C376 C372 1.328 . S
C376 C377 1.433 . S
C376 H390 0.931 . S
C377 C373 1.323 . S
C377 C376 1.433 . S
C377 H391 0.933 . S
C378 Dy356 2.738 . S
C378 O361 1.255 . S
C378 O362 1.249 . S
C378 C372 1.516 . S
C379 O363 1.254 . S
C379 O364 1.257 . S
C380 O365 1.266 . S
C380 O366 1.236 . S
C381 C384 1.344 . S
C381 C385 1.328 . S
C381 C387 1.516 . S
C382 C383 1.304 . S
C382 C386 1.323 . S
C383 C382 1.304 . S
C383 C384 1.371 . S
C383 H392 0.930 . S
C384 C381 1.344 . S
C384 C383 1.371 . S
C384 H393 0.931 . S
C385 C381 1.328 . S
C385 C386 1.433 . S
C385 H394 0.931 . S
C386 C382 1.323 . S
C386 C385 1.433 . S
C386 H395 0.933 . S
C387 Dy357 2.738 . S
C387 O367 1.255 . S
C387 O368 1.249 . S
C387 C381 1.516 . S
H388 C374 0.930 . S
H389 C375 0.931 . S
H390 C376 0.931 . S
H391 C377 0.933 . S
H392 C383 0.930 . S
H393 C384 0.931 . S
H394 C385 0.931 . S
H395 C386 0.933 . S
Dy396 O399 2.307 . S
Dy396 O401 2.395 . S
Dy396 O402 2.379 . S
Dy396 O404 2.339 . S
Dy396 O406 2.298 . S
Dy396 O410 2.275 . S
Dy396 C418 2.738 . S
Dy397 O400 2.298 . S
Dy397 O403 2.275 . S
Dy397 O405 2.307 . S
Dy397 O407 2.395 . S
Dy397 O408 2.379 . S
Dy397 O411 2.339 . S
Dy397 C427 2.738 . S
C398 O410 1.254 . S
C398 O411 1.257 . S
O399 Dy396 2.307 . S
O399 C409 1.266 . S
O400 Dy397 2.298 . S
O400 C409 1.236 . S
O401 Dy396 2.395 . S
O401 C418 1.255 . S
O402 Dy396 2.379 . S
O402 C418 1.249 . S
O403 Dy397 2.275 . S
O403 C419 1.254 . S
O404 Dy396 2.339 . S
O404 C419 1.257 . S
O405 Dy397 2.307 . S
O405 C420 1.266 . S
O406 Dy396 2.298 . S
O406 C420 1.236 . S
O407 Dy397 2.395 . S
O407 C427 1.255 . S
O408 Dy397 2.379 . S
O408 C427 1.249 . S
C409 O399 1.266 . S
C409 O400 1.236 . S
O410 Dy396 2.275 . S
O410 C398 1.254 . S
O411 Dy397 2.339 . S
O411 C398 1.257 . S
C412 C415 1.344 . S
C412 C416 1.328 . S
C412 C418 1.516 . S
C413 C414 1.304 . S
C413 C417 1.323 . S
C414 C413 1.304 . S
C414 C415 1.371 . S
C414 H428 0.930 . S
C415 C412 1.344 . S
C415 C414 1.371 . S
C415 H429 0.931 . S
C416 C412 1.328 . S
C416 C417 1.433 . S
C416 H430 0.931 . S
C417 C413 1.323 . S
C417 C416 1.433 . S
C417 H431 0.933 . S
C418 Dy396 2.738 . S
C418 O401 1.255 . S
C418 O402 1.249 . S
C418 C412 1.516 . S
C419 O403 1.254 . S
C419 O404 1.257 . S
C420 O405 1.266 . S
C420 O406 1.236 . S
C421 C424 1.344 . S
C421 C425 1.328 . S
C421 C427 1.516 . S
C422 C423 1.304 . S
C422 C426 1.323 . S
C423 C422 1.304 . S
C423 C424 1.371 . S
C423 H432 0.930 . S
C424 C421 1.344 . S
C424 C423 1.371 . S
C424 H433 0.931 . S
C425 C421 1.328 . S
C425 C426 1.433 . S
C425 H434 0.931 . S
C426 C422 1.323 . S
C426 C425 1.433 . S
C426 H435 0.933 . S
C427 Dy397 2.738 . S
C427 O407 1.255 . S
C427 O408 1.249 . S
C427 C421 1.516 . S
H428 C414 0.930 . S
H429 C415 0.931 . S
H430 C416 0.931 . S
H431 C417 0.933 . S
H432 C423 0.930 . S
H433 C424 0.931 . S
H434 C425 0.931 . S
H435 C426 0.933 . S
Dy436 O439 2.307 . S
Dy436 O441 2.395 . S
Dy436 O442 2.379 . S
Dy436 O444 2.339 . S
Dy436 O446 2.298 . S
Dy436 O450 2.275 . S
Dy436 C458 2.738 . S
Dy437 O440 2.298 . S
Dy437 O443 2.275 . S
Dy437 O445 2.307 . S
Dy437 O447 2.395 . S
Dy437 O448 2.379 . S
Dy437 O451 2.339 . S
Dy437 C467 2.738 . S
C438 O450 1.254 . S
C438 O451 1.257 . S
O439 Dy436 2.307 . S
O439 C449 1.266 . S
O440 Dy437 2.298 . S
O440 C449 1.236 . S
O441 Dy436 2.395 . S
O441 C458 1.255 . S
O442 Dy436 2.379 . S
O442 C458 1.249 . S
O443 Dy437 2.275 . S
O443 C459 1.254 . S
O444 Dy436 2.339 . S
O444 C459 1.257 . S
O445 Dy437 2.307 . S
O445 C460 1.266 . S
O446 Dy436 2.298 . S
O446 C460 1.236 . S
O447 Dy437 2.395 . S
O447 C467 1.255 . S
O448 Dy437 2.379 . S
O448 C467 1.249 . S
C449 O439 1.266 . S
C449 O440 1.236 . S
O450 Dy436 2.275 . S
O450 C438 1.254 . S
O451 Dy437 2.339 . S
O451 C438 1.257 . S
C452 C455 1.344 . S
C452 C456 1.328 . S
C452 C458 1.516 . S
C453 C454 1.304 . S
C453 C457 1.323 . S
C454 C453 1.304 . S
C454 C455 1.371 . S
C454 H468 0.930 . S
C455 C452 1.344 . S
C455 C454 1.371 . S
C455 H469 0.931 . S
C456 C452 1.328 . S
C456 C457 1.433 . S
C456 H470 0.931 . S
C457 C453 1.323 . S
C457 C456 1.433 . S
C457 H471 0.933 . S
C458 Dy436 2.738 . S
C458 O441 1.255 . S
C458 O442 1.249 . S
C458 C452 1.516 . S
C459 O443 1.254 . S
C459 O444 1.257 . S
C460 O445 1.266 . S
C460 O446 1.236 . S
C461 C464 1.344 . S
C461 C465 1.328 . S
C461 C467 1.516 . S
C462 C463 1.304 . S
C462 C466 1.323 . S
C463 C462 1.304 . S
C463 C464 1.371 . S
C463 H472 0.930 . S
C464 C461 1.344 . S
C464 C463 1.371 . S
C464 H473 0.931 . S
C465 C461 1.328 . S
C465 C466 1.433 . S
C465 H474 0.931 . S
C466 C462 1.323 . S
C466 C465 1.433 . S
C466 H475 0.933 . S
C467 Dy437 2.738 . S
C467 O447 1.255 . S
C467 O448 1.249 . S
C467 C461 1.516 . S
H468 C454 0.930 . S
H469 C455 0.931 . S
H470 C456 0.931 . S
H471 C457 0.933 . S
H472 C463 0.930 . S
H473 C464 0.931 . S
H474 C465 0.931 . S
H475 C466 0.933 . S
Dy476 O479 2.307 . S
Dy476 O481 2.395 . S
Dy476 O482 2.379 . S
Dy476 O484 2.339 . S
Dy476 O486 2.298 . S
Dy476 O490 2.275 . S
Dy476 C498 2.738 . S
Dy477 O480 2.298 . S
Dy477 O483 2.275 . S
Dy477 O485 2.307 . S
Dy477 O487 2.395 . S
Dy477 O488 2.379 . S
Dy477 O491 2.339 . S
Dy477 C507 2.738 . S
C478 O490 1.254 . S
C478 O491 1.257 . S
O479 Dy476 2.307 . S
O479 C489 1.266 . S
O480 Dy477 2.298 . S
O480 C489 1.236 . S
O481 Dy476 2.395 . S
O481 C498 1.255 . S
O482 Dy476 2.379 . S
O482 C498 1.249 . S
O483 Dy477 2.275 . S
O483 C499 1.254 . S
O484 Dy476 2.339 . S
O484 C499 1.257 . S
O485 Dy477 2.307 . S
O485 C500 1.266 . S
O486 Dy476 2.298 . S
O486 C500 1.236 . S
O487 Dy477 2.395 . S
O487 C507 1.255 . S
O488 Dy477 2.379 . S
O488 C507 1.249 . S
C489 O479 1.266 . S
C489 O480 1.236 . S
O490 Dy476 2.275 . S
O490 C478 1.254 . S
O491 Dy477 2.339 . S
O491 C478 1.257 . S
C492 C495 1.344 . S
C492 C496 1.328 . S
C492 C498 1.516 . S
C493 C494 1.304 . S
C493 C497 1.323 . S
C494 C493 1.304 . S
C494 C495 1.371 . S
C494 H508 0.930 . S
C495 C492 1.344 . S
C495 C494 1.371 . S
C495 H509 0.931 . S
C496 C492 1.328 . S
C496 C497 1.433 . S
C496 H510 0.931 . S
C497 C493 1.323 . S
C497 C496 1.433 . S
C497 H511 0.933 . S
C498 Dy476 2.738 . S
C498 O481 1.255 . S
C498 O482 1.249 . S
C498 C492 1.516 . S
C499 O483 1.254 . S
C499 O484 1.257 . S
C500 O485 1.266 . S
C500 O486 1.236 . S
C501 C504 1.344 . S
C501 C505 1.328 . S
C501 C507 1.516 . S
C502 C503 1.304 . S
C502 C506 1.323 . S
C503 C502 1.304 . S
C503 C504 1.371 . S
C503 H512 0.930 . S
C504 C501 1.344 . S
C504 C503 1.371 . S
C504 H513 0.931 . S
C505 C501 1.328 . S
C505 C506 1.433 . S
C505 H514 0.931 . S
C506 C502 1.323 . S
C506 C505 1.433 . S
C506 H515 0.933 . S
C507 Dy477 2.738 . S
C507 O487 1.255 . S
C507 O488 1.249 . S
C507 C501 1.516 . S
H508 C494 0.930 . S
H509 C495 0.931 . S
H510 C496 0.931 . S
H511 C497 0.933 . S
H512 C503 0.930 . S
H513 C504 0.931 . S
H514 C505 0.931 . S
H515 C506 0.933 . S
Dy516 O519 2.307 . S
Dy516 O521 2.395 . S
Dy516 O522 2.379 . S
Dy516 O524 2.339 . S
Dy516 O526 2.298 . S
Dy516 O530 2.275 . S
Dy516 C538 2.738 . S
Dy517 O520 2.298 . S
Dy517 O523 2.275 . S
Dy517 O525 2.307 . S
Dy517 O527 2.395 . S
Dy517 O528 2.379 . S
Dy517 O531 2.339 . S
Dy517 C547 2.738 . S
C518 O530 1.254 . S
C518 O531 1.257 . S
O519 Dy516 2.307 . S
O519 C529 1.266 . S
O520 Dy517 2.298 . S
O520 C529 1.236 . S
O521 Dy516 2.395 . S
O521 C538 1.255 . S
O522 Dy516 2.379 . S
O522 C538 1.249 . S
O523 Dy517 2.275 . S
O523 C539 1.254 . S
O524 Dy516 2.339 . S
O524 C539 1.257 . S
O525 Dy517 2.307 . S
O525 C540 1.266 . S
O526 Dy516 2.298 . S
O526 C540 1.236 . S
O527 Dy517 2.395 . S
O527 C547 1.255 . S
O528 Dy517 2.379 . S
O528 C547 1.249 . S
C529 O519 1.266 . S
C529 O520 1.236 . S
O530 Dy516 2.275 . S
O530 C518 1.254 . S
O531 Dy517 2.339 . S
O531 C518 1.257 . S
C532 C535 1.344 . S
C532 C536 1.328 . S
C532 C538 1.516 . S
C533 C534 1.304 . S
C533 C537 1.323 . S
C534 C533 1.304 . S
C534 C535 1.371 . S
C534 H548 0.930 . S
C535 C532 1.344 . S
C535 C534 1.371 . S
C535 H549 0.931 . S
C536 C532 1.328 . S
C536 C537 1.433 . S
C536 H550 0.931 . S
C537 C533 1.323 . S
C537 C536 1.433 . S
C537 H551 0.933 . S
C538 Dy516 2.738 . S
C538 O521 1.255 . S
C538 O522 1.249 . S
C538 C532 1.516 . S
C539 O523 1.254 . S
C539 O524 1.257 . S
C540 O525 1.266 . S
C540 O526 1.236 . S
C541 C544 1.344 . S
C541 C545 1.328 . S
C541 C547 1.516 . S
C542 C543 1.304 . S
C542 C546 1.323 . S
C543 C542 1.304 . S
C543 C544 1.371 . S
C543 H552 0.930 . S
C544 C541 1.344 . S
C544 C543 1.371 . S
C544 H553 0.931 . S
C545 C541 1.328 . S
C545 C546 1.433 . S
C545 H554 0.931 . S
C546 C542 1.323 . S
C546 C545 1.433 . S
C546 H555 0.933 . S
C547 Dy517 2.738 . S
C547 O527 1.255 . S
C547 O528 1.249 . S
C547 C541 1.516 . S
H548 C534 0.930 . S
H549 C535 0.931 . S
H550 C536 0.931 . S
H551 C537 0.933 . S
H552 C543 0.930 . S
H553 C544 0.931 . S
H554 C545 0.931 . S
H555 C546 0.933 . S
Dy556 O559 2.307 . S
Dy556 O561 2.395 . S
Dy556 O562 2.379 . S
Dy556 O564 2.339 . S
Dy556 O566 2.298 . S
Dy556 O570 2.275 . S
Dy556 C578 2.738 . S
Dy557 O560 2.298 . S
Dy557 O563 2.275 . S
Dy557 O565 2.307 . S
Dy557 O567 2.395 . S
Dy557 O568 2.379 . S
Dy557 O571 2.339 . S
Dy557 C587 2.738 . S
C558 O570 1.254 . S
C558 O571 1.257 . S
O559 Dy556 2.307 . S
O559 C569 1.266 . S
O560 Dy557 2.298 . S
O560 C569 1.236 . S
O561 Dy556 2.395 . S
O561 C578 1.255 . S
O562 Dy556 2.379 . S
O562 C578 1.249 . S
O563 Dy557 2.275 . S
O563 C579 1.254 . S
O564 Dy556 2.339 . S
O564 C579 1.257 . S
O565 Dy557 2.307 . S
O565 C580 1.266 . S
O566 Dy556 2.298 . S
O566 C580 1.236 . S
O567 Dy557 2.395 . S
O567 C587 1.255 . S
O568 Dy557 2.379 . S
O568 C587 1.249 . S
C569 O559 1.266 . S
C569 O560 1.236 . S
O570 Dy556 2.275 . S
O570 C558 1.254 . S
O571 Dy557 2.339 . S
O571 C558 1.257 . S
C572 C575 1.344 . S
C572 C576 1.328 . S
C572 C578 1.516 . S
C573 C574 1.304 . S
C573 C577 1.323 . S
C574 C573 1.304 . S
C574 C575 1.371 . S
C574 H588 0.930 . S
C575 C572 1.344 . S
C575 C574 1.371 . S
C575 H589 0.931 . S
C576 C572 1.328 . S
C576 C577 1.433 . S
C576 H590 0.931 . S
C577 C573 1.323 . S
C577 C576 1.433 . S
C577 H591 0.933 . S
C578 Dy556 2.738 . S
C578 O561 1.255 . S
C578 O562 1.249 . S
C578 C572 1.516 . S
C579 O563 1.254 . S
C579 O564 1.257 . S
C580 O565 1.266 . S
C580 O566 1.236 . S
C581 C584 1.344 . S
C581 C585 1.328 . S
C581 C587 1.516 . S
C582 C583 1.304 . S
C582 C586 1.323 . S
C583 C582 1.304 . S
C583 C584 1.371 . S
C583 H592 0.930 . S
C584 C581 1.344 . S
C584 C583 1.371 . S
C584 H593 0.931 . S
C585 C581 1.328 . S
C585 C586 1.433 . S
C585 H594 0.931 . S
C586 C582 1.323 . S
C586 C585 1.433 . S
C586 H595 0.933 . S
C587 Dy557 2.738 . S
C587 O567 1.255 . S
C587 O568 1.249 . S
C587 C581 1.516 . S
H588 C574 0.930 . S
H589 C575 0.931 . S
H590 C576 0.931 . S
H591 C577 0.933 . S
H592 C583 0.930 . S
H593 C584 0.931 . S
H594 C585 0.931 . S
H595 C586 0.933 . S
C596 C597 1.363 . S
C596 C602 1.379 . S
C596 N604 1.356 . S
C597 C596 1.363 . S
C597 C603 1.363 . S
C598 C599 1.363 . S
C598 C603 1.379 . S
C598 N605 1.356 . S
C599 C598 1.363 . S
C599 C602 1.363 . S
N600 C602 1.356 . S
N600 H612 0.984 . S
N600 H613 0.985 . S
N601 C603 1.356 . S
N601 H606 0.984 . S
N601 H607 0.985 . S
C602 C596 1.379 . S
C602 C599 1.363 . S
C602 N600 1.356 . S
C603 C597 1.363 . S
C603 C598 1.379 . S
C603 N601 1.356 . S
N604 C596 1.356 . S
N604 H610 0.984 . S
N604 H611 0.984 . S
N605 C598 1.356 . S
N605 H608 0.984 . S
N605 H609 0.985 . S
H606 N601 0.984 . S
H607 N601 0.985 . S
H608 N605 0.984 . S
H609 N605 0.985 . S
H610 N604 0.984 . S
H611 N604 0.984 . S
H612 N600 0.984 . S
H613 N600 0.985 . S
C614 C615 1.363 . S
C614 C620 1.379 . S
C614 N622 1.356 . S
C615 C614 1.363 . S
C615 C621 1.363 . S
C616 C617 1.363 . S
C616 C621 1.379 . S
C616 N623 1.356 . S
C617 C616 1.363 . S
C617 C620 1.363 . S
N618 C620 1.356 . S
N618 H630 0.984 . S
N618 H631 0.985 . S
N619 C621 1.356 . S
N619 H624 0.984 1_655 S
N619 H625 0.985 . S
C620 C614 1.379 . S
C620 C617 1.363 . S
C620 N618 1.356 . S
C621 C615 1.363 . S
C621 C616 1.379 . S
C621 N619 1.356 . S
N622 C614 1.356 . S
N622 H628 0.984 . S
N622 H629 0.984 . S
N623 C616 1.356 . S
N623 H626 0.984 . S
N623 H627 0.985 . S
H624 N619 0.984 1_455 S
H625 N619 0.985 . S
H626 N623 0.984 . S
H627 N623 0.985 . S
H628 N622 0.984 . S
H629 N622 0.984 . S
H630 N618 0.984 . S
H631 N618 0.985 . S
C632 C633 1.363 . S
C632 C638 1.379 . S
C632 N640 1.356 1_565 S
C633 C632 1.363 . S
C633 C639 1.363 1_655 S
C634 C635 1.363 . S
C634 C639 1.379 1_655 S
C634 N641 1.356 . S
C635 C634 1.363 . S
C635 C638 1.363 . S
N636 C638 1.356 . S
N636 H648 0.984 . S
N636 H649 0.985 . S
N637 C639 1.356 . S
N637 H642 0.984 . S
N637 H643 0.985 . S
C638 C632 1.379 . S
C638 C635 1.363 . S
C638 N636 1.356 . S
C639 C633 1.363 1_455 S
C639 C634 1.379 1_455 S
C639 N637 1.356 . S
N640 C632 1.356 1_545 S
N640 H646 0.984 . S
N640 H647 0.984 . S
N641 C634 1.356 . S
N641 H644 0.984 . S
N641 H645 0.985 1_655 S
H642 N637 0.984 . S
H643 N637 0.985 . S
H644 N641 0.984 . S
H645 N641 0.985 1_455 S
H646 N640 0.984 . S
H647 N640 0.984 . S
H648 N636 0.984 . S
H649 N636 0.985 . S
C650 C651 1.363 . S
C650 C656 1.379 . S
C650 N658 1.356 . S
C651 C650 1.363 . S
C651 C657 1.363 . S
C652 C653 1.363 . S
C652 C657 1.379 . S
C652 N659 1.356 . S
C653 C652 1.363 . S
C653 C656 1.363 . S
N654 C656 1.356 . S
N654 H666 0.984 . S
N654 H667 0.985 . S
N655 C657 1.356 . S
N655 H660 0.984 . S
N655 H661 0.985 . S
C656 C650 1.379 . S
C656 C653 1.363 . S
C656 N654 1.356 . S
C657 C651 1.363 . S
C657 C652 1.379 . S
C657 N655 1.356 . S
N658 C650 1.356 . S
N658 H664 0.984 . S
N658 H665 0.984 . S
N659 C652 1.356 . S
N659 H662 0.984 . S
N659 H663 0.985 . S
H660 N655 0.984 . S
H661 N655 0.985 . S
H662 N659 0.984 . S
H663 N659 0.985 . S
H664 N658 0.984 . S
H665 N658 0.984 . S
H666 N654 0.984 . S
H667 N654 0.985 . S
C668 C669 1.363 . S
C668 C674 1.379 . S
C668 N676 1.356 . S
C669 C668 1.363 . S
C669 C675 1.363 . S
C670 C671 1.363 . S
C670 C675 1.379 . S
C670 N677 1.356 . S
C671 C670 1.363 . S
C671 C674 1.363 . S
N672 C674 1.356 . S
N672 H684 0.984 . S
N672 H685 0.985 . S
N673 C675 1.356 . S
N673 H678 0.984 . S
N673 H679 0.985 . S
C674 C668 1.379 . S
C674 C671 1.363 . S
C674 N672 1.356 . S
C675 C669 1.363 . S
C675 C670 1.379 . S
C675 N673 1.356 . S
N676 C668 1.356 . S
N676 H682 0.984 . S
N676 H683 0.984 . S
N677 C670 1.356 . S
N677 H680 0.984 . S
N677 H681 0.985 . S
H678 N673 0.984 . S
H679 N673 0.985 . S
H680 N677 0.984 . S
H681 N677 0.985 . S
H682 N676 0.984 . S
H683 N676 0.984 . S
H684 N672 0.984 . S
H685 N672 0.985 . S
C686 C687 1.363 . S
C686 C692 1.379 . S
C686 N694 1.356 . S
C687 C686 1.363 . S
C687 C693 1.363 . S
C688 C689 1.363 . S
C688 C693 1.379 . S
C688 N695 1.356 . S
C689 C688 1.363 . S
C689 C692 1.363 . S
N690 C692 1.356 . S
N690 H702 0.984 . S
N690 H703 0.985 . S
N691 C693 1.356 . S
N691 H696 0.984 . S
N691 H697 0.985 . S
C692 C686 1.379 . S
C692 C689 1.363 . S
C692 N690 1.356 . S
C693 C687 1.363 . S
C693 C688 1.379 . S
C693 N691 1.356 . S
N694 C686 1.356 . S
N694 H700 0.984 . S
N694 H701 0.984 . S
N695 C688 1.356 . S
N695 H698 0.984 . S
N695 H699 0.985 . S
H696 N691 0.984 . S
H697 N691 0.985 . S
H698 N695 0.984 . S
H699 N695 0.985 . S
H700 N694 0.984 . S
H701 N694 0.984 . S
H702 N690 0.984 . S
H703 N690 0.985 . S
C704 C705 1.363 . S
C704 C710 1.379 . S
C704 N712 1.356 . S
C705 C704 1.363 . S
C705 C711 1.363 . S
C706 C707 1.363 . S
C706 C711 1.379 . S
C706 N713 1.356 . S
C707 C706 1.363 . S
C707 C710 1.363 . S
N708 C710 1.356 . S
N708 H720 0.984 . S
N708 H721 0.985 . S
N709 C711 1.356 . S
N709 H714 0.984 1_655 S
N709 H715 0.985 1_655 S
C710 C704 1.379 . S
C710 C707 1.363 . S
C710 N708 1.356 . S
C711 C705 1.363 . S
C711 C706 1.379 . S
C711 N709 1.356 . S
N712 C704 1.356 . S
N712 H718 0.984 . S
N712 H719 0.984 . S
N713 C706 1.356 . S
N713 H716 0.984 . S
N713 H717 0.985 . S
H714 N709 0.984 1_455 S
H715 N709 0.985 1_455 S
H716 N713 0.984 . S
H717 N713 0.985 . S
H718 N712 0.984 . S
H719 N712 0.984 . S
H720 N708 0.984 . S
H721 N708 0.985 . S
C722 C723 1.363 . S
C722 C728 1.379 . S
C722 N730 1.356 . S
C723 C722 1.363 . S
C723 C729 1.365 . S
C724 C725 1.363 . S
C724 C729 1.409 . S
C724 N731 1.356 . S
C725 C724 1.363 . S
C725 C728 1.363 . S
N726 C728 1.356 . S
N726 H738 0.984 . S
N726 H739 0.985 . S
N727 C729 1.321 1_455 S
N727 H732 0.984 . S
N727 H733 0.985 . S
C728 C722 1.379 . S
C728 C725 1.363 . S
C728 N726 1.356 . S
C729 C723 1.365 . S
C729 C724 1.409 . S
C729 N727 1.321 1_655 S
N730 C722 1.356 . S
N730 H736 0.984 . S
N730 H737 0.984 . S
N731 C724 1.356 . S
N731 H734 0.984 . S
N731 H735 0.985 . S
H732 N727 0.984 . S
H733 N727 0.985 . S
H734 N731 0.984 . S
H735 N731 0.985 . S
H736 N730 0.984 . S
H737 N730 0.984 . S
H738 N726 0.984 . S
H739 N726 0.985 . S
C740 C741 1.363 . S
C740 C746 1.379 . S
C740 N748 1.356 . S
C741 C740 1.363 . S
C741 C747 1.363 . S
C742 C743 1.363 . S
C742 C747 1.379 . S
C742 N749 1.356 . S
C743 C742 1.363 . S
C743 C746 1.363 . S
N744 C746 1.356 . S
N744 H756 0.984 . S
N744 H757 0.985 . S
N745 C747 1.356 . S
N745 H750 0.984 . S
N745 H751 0.985 . S
C746 C740 1.379 . S
C746 C743 1.363 . S
C746 N744 1.356 . S
C747 C741 1.363 . S
C747 C742 1.379 . S
C747 N745 1.356 . S
N748 C740 1.356 . S
N748 H754 0.984 . S
N748 H755 0.984 . S
N749 C742 1.356 . S
N749 H752 0.984 . S
N749 H753 0.985 . S
H750 N745 0.984 . S
H751 N745 0.985 . S
H752 N749 0.984 . S
H753 N749 0.985 . S
H754 N748 0.984 . S
H755 N748 0.984 . S
H756 N744 0.984 . S
H757 N744 0.985 . S
C758 C759 1.363 1_655 S
C758 C764 1.379 . S
C758 N766 1.356 . S
C759 C758 1.363 1_455 S
C759 C765 1.363 . S
C760 C761 1.363 1_455 S
C760 C765 1.379 . S
C760 N767 1.356 . S
C761 C760 1.363 1_655 S
C761 C764 1.363 . S
N762 C764 1.356 . S
N762 H774 0.984 . S
N762 H775 0.985 . S
N763 C765 1.356 . S
N763 H768 0.984 . S
N763 H769 0.985 . S
C764 C758 1.379 . S
C764 C761 1.363 . S
C764 N762 1.356 . S
C765 C759 1.363 . S
C765 C760 1.379 . S
C765 N763 1.356 . S
N766 C758 1.356 . S
N766 H772 0.984 . S
N766 H773 0.984 1_655 S
N767 C760 1.356 . S
N767 H770 0.984 1_455 S
N767 H771 0.985 . S
H768 N763 0.984 . S
H769 N763 0.985 . S
H770 N767 0.984 1_655 S
H771 N767 0.985 . S
H772 N766 0.984 . S
H773 N766 0.984 1_455 S
H774 N762 0.984 . S
H775 N762 0.985 . S
C776 C777 1.363 . S
C776 C782 1.379 . S
C776 N784 1.356 . S
C777 C776 1.363 . S
C777 C783 1.363 . S
C778 C779 1.363 . S
C778 C783 1.379 . S
C778 N785 1.356 . S
C779 C778 1.363 . S
C779 C782 1.363 . S
N780 C782 1.356 . S
N780 H792 0.984 . S
N780 H793 0.985 . S
N781 C783 1.356 . S
N781 H786 0.984 . S
N781 H787 0.985 . S
C782 C776 1.379 . S
C782 C779 1.363 . S
C782 N780 1.356 . S
C783 C777 1.363 . S
C783 C778 1.379 . S
C783 N781 1.356 . S
N784 C776 1.356 . S
N784 H790 0.984 . S
N784 H791 0.984 . S
N785 C778 1.356 . S
N785 H788 0.984 . S
N785 H789 0.985 . S
H786 N781 0.984 . S
H787 N781 0.985 . S
H788 N785 0.984 . S
H789 N785 0.985 . S
H790 N784 0.984 . S
H791 N784 0.984 . S
H792 N780 0.984 . S
H793 N780 0.985 . S
C794 C795 1.363 . S
C794 C800 1.379 . S
C794 N802 1.356 . S
C795 C794 1.363 . S
C795 C801 1.363 . S
C796 C797 1.363 . S
C796 C801 1.379 . S
C796 N803 1.356 . S
C797 C796 1.363 . S
C797 C800 1.363 . S
N798 C800 1.356 . S
N798 H810 0.984 . S
N798 H811 0.985 . S
N799 C801 1.356 . S
N799 H804 0.984 . S
N799 H805 0.985 . S
C800 C794 1.379 . S
C800 C797 1.363 . S
C800 N798 1.356 . S
C801 C795 1.363 . S
C801 C796 1.379 . S
C801 N799 1.356 . S
N802 C794 1.356 . S
N802 H808 0.984 . S
N802 H809 0.984 . S
N803 C796 1.356 . S
N803 H806 0.984 . S
N803 H807 0.985 . S
H804 N799 0.984 . S
H805 N799 0.985 . S
H806 N803 0.984 . S
H807 N803 0.985 . S
H808 N802 0.984 . S
H809 N802 0.984 . S
H810 N798 0.984 . S
H811 N798 0.985 . S
C812 C813 1.363 . S
C812 C818 1.379 . S
C812 N820 1.356 . S
C813 C812 1.363 . S
C813 C819 1.363 . S
C814 C815 1.363 . S
C814 C819 1.379 . S
C814 N821 1.356 . S
C815 C814 1.363 . S
C815 C818 1.363 . S
N816 C818 1.356 . S
N816 H828 0.984 . S
N816 H829 0.985 . S
N817 C819 1.356 . S
N817 H822 0.984 . S
N817 H823 0.985 . S
C818 C812 1.379 . S
C818 C815 1.363 . S
C818 N816 1.356 . S
C819 C813 1.363 . S
C819 C814 1.379 . S
C819 N817 1.356 . S
N820 C812 1.356 . S
N820 H826 0.984 . S
N820 H827 0.984 . S
N821 C814 1.356 . S
N821 H824 0.984 . S
N821 H825 0.985 . S
H822 N817 0.984 . S
H823 N817 0.985 . S
H824 N821 0.984 . S
H825 N821 0.985 . S
H826 N820 0.984 . S
H827 N820 0.984 . S
H828 N816 0.984 . S
H829 N816 0.985 . S
C830 C831 1.363 . S
C830 C836 1.379 . S
C830 N838 1.356 . S
C831 C830 1.363 . S
C831 C837 1.363 . S
C832 C833 1.363 . S
C832 C837 1.379 . S
C832 N839 1.356 . S
C833 C832 1.363 . S
C833 C836 1.363 . S
N834 C836 1.356 . S
N834 H846 0.984 . S
N834 H847 0.985 . S
N835 C837 1.356 . S
N835 H840 0.984 . S
N835 H841 0.985 . S
C836 C830 1.379 . S
C836 C833 1.363 . S
C836 N834 1.356 . S
C837 C831 1.363 . S
C837 C832 1.379 . S
C837 N835 1.356 . S
N838 C830 1.356 . S
N838 H844 0.984 . S
N838 H845 0.984 . S
N839 C832 1.356 . S
N839 H842 0.984 . S
N839 H843 0.985 . S
H840 N835 0.984 . S
H841 N835 0.985 . S
H842 N839 0.984 . S
H843 N839 0.985 . S
H844 N838 0.984 . S
H845 N838 0.984 . S
H846 N834 0.984 . S
H847 N834 0.985 . S
C848 C849 1.363 . S
C848 C854 1.379 . S
C848 N856 1.356 . S
C849 C848 1.363 . S
C849 C855 1.363 . S
C850 C851 1.363 . S
C850 C855 1.379 . S
C850 N857 1.356 . S
C851 C850 1.363 . S
C851 C854 1.363 . S
N852 C854 1.356 . S
N852 H864 0.984 . S
N852 H865 0.985 . S
N853 C855 1.356 . S
N853 H858 0.984 . S
N853 H859 0.985 . S
C854 C848 1.379 . S
C854 C851 1.363 . S
C854 N852 1.356 . S
C855 C849 1.363 . S
C855 C850 1.379 . S
C855 N853 1.356 . S
N856 C848 1.356 . S
N856 H862 0.984 . S
N856 H863 0.984 . S
N857 C850 1.356 . S
N857 H860 0.984 . S
N857 H861 0.985 . S
H858 N853 0.984 . S
H859 N853 0.985 . S
H860 N857 0.984 . S
H861 N857 0.985 . S
H862 N856 0.984 . S
H863 N856 0.984 . S
H864 N852 0.984 . S
H865 N852 0.985 . S
C866 C867 1.363 . S
C866 C872 1.379 . S
C866 N874 1.356 . S
C867 C866 1.363 . S
C867 C873 1.363 . S
C868 C869 1.363 . S
C868 C873 1.379 . S
C868 N875 1.356 . S
C869 C868 1.363 . S
C869 C872 1.363 . S
N870 C872 1.356 . S
N870 H882 0.984 . S
N870 H883 0.985 . S
N871 C873 1.356 . S
N871 H876 0.984 . S
N871 H877 0.985 . S
C872 C866 1.379 . S
C872 C869 1.363 . S
C872 N870 1.356 . S
C873 C867 1.363 . S
C873 C868 1.379 . S
C873 N871 1.356 . S
N874 C866 1.356 . S
N874 H880 0.984 . S
N874 H881 0.984 . S
N875 C868 1.356 . S
N875 H878 0.984 . S
N875 H879 0.985 . S
H876 N871 0.984 . S
H877 N871 0.985 . S
H878 N875 0.984 . S
H879 N875 0.985 . S
H880 N874 0.984 . S
H881 N874 0.984 . S
H882 N870 0.984 . S
H883 N870 0.985 . S
C884 C885 1.363 . S
C884 C890 1.379 . S
C884 N892 1.356 . S
C885 C884 1.363 . S
C885 C891 1.363 . S
C886 C887 1.363 . S
C886 C891 1.379 . S
C886 N893 1.356 . S
C887 C886 1.363 . S
C887 C890 1.363 . S
N888 C890 1.356 . S
N888 H900 0.984 . S
N888 H901 0.985 . S
N889 C891 1.356 . S
N889 H894 0.984 . S
N889 H895 0.985 . S
C890 C884 1.379 . S
C890 C887 1.363 . S
C890 N888 1.356 . S
C891 C885 1.363 . S
C891 C886 1.379 . S
C891 N889 1.356 . S
N892 C884 1.356 . S
N892 H898 0.984 . S
N892 H899 0.984 . S
N893 C886 1.356 . S
N893 H896 0.984 . S
N893 H897 0.985 . S
H894 N889 0.984 . S
H895 N889 0.985 . S
H896 N893 0.984 . S
H897 N893 0.985 . S
H898 N892 0.984 . S
H899 N892 0.984 . S
H900 N888 0.984 . S
H901 N888 0.985 . S
C902 C903 1.363 . S
C902 C908 1.379 . S
C902 N910 1.356 . S
C903 C902 1.363 . S
C903 C909 1.363 . S
C904 C905 1.363 . S
C904 C909 1.379 . S
C904 N911 1.356 . S
C905 C904 1.363 . S
C905 C908 1.363 . S
N906 C908 1.356 . S
N906 H918 0.984 . S
N906 H919 0.985 . S
N907 C909 1.356 . S
N907 H912 0.984 . S
N907 H913 0.985 1_556 S
C908 C902 1.379 . S
C908 C905 1.363 . S
C908 N906 1.356 . S
C909 C903 1.363 . S
C909 C904 1.379 . S
C909 N907 1.356 . S
N910 C902 1.356 . S
N910 H916 0.984 . S
N910 H917 0.984 . S
N911 C904 1.356 . S
N911 H914 0.984 . S
N911 H915 0.985 1_556 S
H912 N907 0.984 . S
H913 N907 0.985 1_554 S
H914 N911 0.984 . S
H915 N911 0.985 1_554 S
H916 N910 0.984 . S
H917 N910 0.984 . S
H918 N906 0.984 . S
H919 N906 0.985 . S
C920 C921 1.363 . S
C920 C926 1.379 . S
C920 N928 1.356 . S
C921 C920 1.363 . S
C921 C927 1.363 . S
C922 C923 1.363 . S
C922 C927 1.379 . S
C922 N929 1.356 . S
C923 C922 1.363 . S
C923 C926 1.363 . S
N924 C926 1.356 . S
N924 H936 0.984 . S
N924 H937 0.985 . S
N925 C927 1.356 . S
N925 H930 0.984 . S
N925 H931 0.985 . S
C926 C920 1.379 . S
C926 C923 1.363 . S
C926 N924 1.356 . S
C927 C921 1.363 . S
C927 C922 1.379 . S
C927 N925 1.356 . S
N928 C920 1.356 . S
N928 H934 0.984 . S
N928 H935 0.984 . S
N929 C922 1.356 . S
N929 H932 0.984 . S
N929 H933 0.985 . S
H930 N925 0.984 . S
H931 N925 0.985 . S
H932 N929 0.984 . S
H933 N929 0.985 . S
H934 N928 0.984 . S
H935 N928 0.984 . S
H936 N924 0.984 . S
H937 N924 0.985 . S
C938 C939 1.363 . S
C938 C944 1.379 . S
C938 N946 1.356 1_556 S
C939 C938 1.363 . S
C939 C945 1.363 . S
C940 C941 1.363 . S
C940 C945 1.379 1_655 S
C940 N947 1.356 . S
C941 C940 1.363 . S
C941 C944 1.363 1_655 S
N942 C944 1.356 1_554 S
N942 H954 0.984 . S
N942 H955 0.985 1_454 S
N943 C945 1.356 . S
N943 H948 0.984 . S
N943 H949 0.985 . S
C944 C938 1.379 . S
C944 C941 1.363 1_455 S
C944 N942 1.356 1_556 S
C945 C939 1.363 . S
C945 C940 1.379 1_455 S
C945 N943 1.356 . S
N946 C938 1.356 1_554 S
N946 H952 0.984 . S
N946 H953 0.984 . S
N947 C940 1.356 . S
N947 H950 0.984 . S
N947 H951 0.985 . S
H948 N943 0.984 . S
H949 N943 0.985 . S
H950 N947 0.984 . S
H951 N947 0.985 . S
H952 N946 0.984 . S
H953 N946 0.984 . S
H954 N942 0.984 . S
H955 N942 0.985 1_656 S
C956 C957 1.363 . S
C956 C962 1.379 . S
C956 N964 1.356 . S
C957 C956 1.363 . S
C957 C963 1.363 . S
C958 C959 1.363 . S
C958 C963 1.379 . S
C958 N965 1.356 . S
C959 C958 1.363 . S
C959 C962 1.363 . S
N960 C962 1.356 . S
N960 H972 0.984 . S
N960 H973 0.985 . S
N961 C963 1.356 . S
N961 H966 0.984 . S
N961 H967 0.985 . S
C962 C956 1.379 . S
C962 C959 1.363 . S
C962 N960 1.356 . S
C963 C957 1.363 . S
C963 C958 1.379 . S
C963 N961 1.356 . S
N964 C956 1.356 . S
N964 H970 0.984 . S
N964 H971 0.984 . S
N965 C958 1.356 . S
N965 H968 0.984 . S
N965 H969 0.985 . S
H966 N961 0.984 . S
H967 N961 0.985 . S
H968 N965 0.984 . S
H969 N965 0.985 . S
H970 N964 0.984 . S
H971 N964 0.984 . S
H972 N960 0.984 . S
H973 N960 0.985 . S
C974 C975 1.363 . S
C974 C980 1.379 . S
C974 N982 1.356 . S
C975 C974 1.363 . S
C975 C981 1.363 . S
C976 C977 1.363 . S
C976 C981 1.379 . S
C976 N983 1.356 . S
C977 C976 1.363 . S
C977 C980 1.363 . S
N978 C980 1.356 . S
N978 H990 0.984 . S
N978 H991 0.985 . S
N979 C981 1.356 . S
N979 H984 0.984 . S
N979 H985 0.985 . S
C980 C974 1.379 . S
C980 C977 1.363 . S
C980 N978 1.356 . S
C981 C975 1.363 . S
C981 C976 1.379 . S
C981 N979 1.356 . S
N982 C974 1.356 . S
N982 H988 0.984 . S
N982 H989 0.984 . S
N983 C976 1.356 . S
N983 H986 0.984 . S
N983 H987 0.985 . S
H984 N979 0.984 . S
H985 N979 0.985 . S
H986 N983 0.984 . S
H987 N983 0.985 . S
H988 N982 0.984 . S
H989 N982 0.984 . S
H990 N978 0.984 . S
H991 N978 0.985 . S
C992 C993 1.363 . S
C992 C998 1.379 . S
C992 N1000 1.356 . S
C993 C992 1.363 . S
C993 C999 1.363 . S
C994 C995 1.363 . S
C994 C999 1.379 . S
C994 N1001 1.356 . S
C995 C994 1.363 . S
C995 C998 1.363 . S
N996 C998 1.356 . S
N996 H1008 0.984 . S
N996 H1009 0.985 . S
N997 C999 1.356 . S
N997 H1002 0.984 . S
N997 H1003 0.985 . S
C998 C992 1.379 . S
C998 C995 1.363 . S
C998 N996 1.356 . S
C999 C993 1.363 . S
C999 C994 1.379 . S
C999 N997 1.356 . S
N1000 C992 1.356 . S
N1000 H1006 0.984 . S
N1000 H1007 0.984 . S
N1001 C994 1.356 . S
N1001 H1004 0.984 . S
N1001 H1005 0.985 . S
H1002 N997 0.984 . S
H1003 N997 0.985 . S
H1004 N1001 0.984 . S
H1005 N1001 0.985 . S
H1006 N1000 0.984 . S
H1007 N1000 0.984 . S
H1008 N996 0.984 . S
H1009 N996 0.985 . S
C1010 C1011 1.363 . S
C1010 C1016 1.379 . S
C1010 N1018 1.356 . S
C1011 C1010 1.363 . S
C1011 C1017 1.363 . S
C1012 C1013 1.363 . S
C1012 C1017 1.379 . S
C1012 N1019 1.356 . S
C1013 C1012 1.363 . S
C1013 C1016 1.363 . S
N1014 C1016 1.356 . S
N1014 H1026 0.984 . S
N1014 H1027 0.985 . S
N1015 C1017 1.356 . S
N1015 H1020 0.984 . S
N1015 H1021 0.985 . S
C1016 C1010 1.379 . S
C1016 C1013 1.363 . S
C1016 N1014 1.356 . S
C1017 C1011 1.363 . S
C1017 C1012 1.379 . S
C1017 N1015 1.356 . S
N1018 C1010 1.356 . S
N1018 H1024 0.984 . S
N1018 H1025 0.984 . S
N1019 C1012 1.356 . S
N1019 H1022 0.984 . S
N1019 H1023 0.985 . S
H1020 N1015 0.984 . S
H1021 N1015 0.985 . S
H1022 N1019 0.984 . S
H1023 N1019 0.985 . S
H1024 N1018 0.984 . S
H1025 N1018 0.984 . S
H1026 N1014 0.984 . S
H1027 N1014 0.985 . S
C1028 C1029 1.363 . S
C1028 C1034 1.379 . S
C1028 N1036 1.356 . S
C1029 C1028 1.363 . S
C1029 C1035 1.363 . S
C1030 C1031 1.363 . S
C1030 C1035 1.379 . S
C1030 N1037 1.356 . S
C1031 C1030 1.363 . S
C1031 C1034 1.363 . S
N1032 C1034 1.356 . S
N1032 H1044 0.984 . S
N1032 H1045 0.985 . S
N1033 C1035 1.356 . S
N1033 H1038 0.984 . S
N1033 H1039 0.985 . S
C1034 C1028 1.379 . S
C1034 C1031 1.363 . S
C1034 N1032 1.356 . S
C1035 C1029 1.363 . S
C1035 C1030 1.379 . S
C1035 N1033 1.356 . S
N1036 C1028 1.356 . S
N1036 H1042 0.984 . S
N1036 H1043 0.984 . S
N1037 C1030 1.356 . S
N1037 H1040 0.984 . S
N1037 H1041 0.985 . S
H1038 N1033 0.984 . S
H1039 N1033 0.985 . S
H1040 N1037 0.984 . S
H1041 N1037 0.985 . S
H1042 N1036 0.984 . S
H1043 N1036 0.984 . S
H1044 N1032 0.984 . S
H1045 N1032 0.985 . S
C1046 C1047 1.363 . S
C1046 C1052 1.379 . S
C1046 N1054 1.356 . S
C1047 C1046 1.363 . S
C1047 C1053 1.363 . S
C1048 C1049 1.363 . S
C1048 C1053 1.379 . S
C1048 N1055 1.356 . S
C1049 C1048 1.363 . S
C1049 C1052 1.363 . S
N1050 C1052 1.356 . S
N1050 H1062 0.984 . S
N1050 H1063 0.985 . S
N1051 C1053 1.356 . S
N1051 H1056 0.984 . S
N1051 H1057 0.985 . S
C1052 C1046 1.379 . S
C1052 C1049 1.363 . S
C1052 N1050 1.356 . S
C1053 C1047 1.363 . S
C1053 C1048 1.379 . S
C1053 N1051 1.356 . S
N1054 C1046 1.356 . S
N1054 H1060 0.984 . S
N1054 H1061 0.984 . S
N1055 C1048 1.356 . S
N1055 H1058 0.984 . S
N1055 H1059 0.985 . S
H1056 N1051 0.984 . S
H1057 N1051 0.985 . S
H1058 N1055 0.984 . S
H1059 N1055 0.985 . S
H1060 N1054 0.984 . S
H1061 N1054 0.984 . S
H1062 N1050 0.984 . S
H1063 N1050 0.985 . S
C1064 C1065 1.363 . S
C1064 C1070 1.379 . S
C1064 N1072 1.356 . S
C1065 C1064 1.363 . S
C1065 C1071 1.363 . S
C1066 C1067 1.363 . S
C1066 C1071 1.379 . S
C1066 N1073 1.356 . S
C1067 C1066 1.363 . S
C1067 C1070 1.363 . S
N1068 C1070 1.356 . S
N1068 H1080 0.984 . S
N1068 H1081 0.985 . S
N1069 C1071 1.356 . S
N1069 H1074 0.984 . S
N1069 H1075 0.985 . S
C1070 C1064 1.379 . S
C1070 C1067 1.363 . S
C1070 N1068 1.356 . S
C1071 C1065 1.363 . S
C1071 C1066 1.379 . S
C1071 N1069 1.356 . S
N1072 C1064 1.356 . S
N1072 H1078 0.984 . S
N1072 H1079 0.984 . S
N1073 C1066 1.356 . S
N1073 H1076 0.984 . S
N1073 H1077 0.985 . S
H1074 N1069 0.984 . S
H1075 N1069 0.985 . S
H1076 N1073 0.984 . S
H1077 N1073 0.985 . S
H1078 N1072 0.984 . S
H1079 N1072 0.984 . S
H1080 N1068 0.984 . S
H1081 N1068 0.985 . S
C1082 C1083 1.363 . S
C1082 C1088 1.379 . S
C1082 N1090 1.356 . S
C1083 C1082 1.363 . S
C1083 C1089 1.363 . S
C1084 C1085 1.363 . S
C1084 C1089 1.379 . S
C1084 N1091 1.356 . S
C1085 C1084 1.363 . S
C1085 C1088 1.363 . S
N1086 C1088 1.356 . S
N1086 H1098 0.984 . S
N1086 H1099 0.985 . S
N1087 C1089 1.356 . S
N1087 H1092 0.984 . S
N1087 H1093 0.985 . S
C1088 C1082 1.379 . S
C1088 C1085 1.363 . S
C1088 N1086 1.356 . S
C1089 C1083 1.363 . S
C1089 C1084 1.379 . S
C1089 N1087 1.356 . S
N1090 C1082 1.356 . S
N1090 H1096 0.984 . S
N1090 H1097 0.984 . S
N1091 C1084 1.356 . S
N1091 H1094 0.984 . S
N1091 H1095 0.985 . S
H1092 N1087 0.984 . S
H1093 N1087 0.985 . S
H1094 N1091 0.984 . S
H1095 N1091 0.985 . S
H1096 N1090 0.984 . S
H1097 N1090 0.984 . S
H1098 N1086 0.984 . S
H1099 N1086 0.985 . S
C1100 C1101 1.363 . S
C1100 C1106 1.379 . S
C1100 N1108 1.356 . S
C1101 C1100 1.363 . S
C1101 C1107 1.363 . S
C1102 C1103 1.363 . S
C1102 C1107 1.379 . S
C1102 N1109 1.356 . S
C1103 C1102 1.363 . S
C1103 C1106 1.363 . S
N1104 C1106 1.356 . S
N1104 H1116 0.984 . S
N1104 H1117 0.985 . S
N1105 C1107 1.356 . S
N1105 H1110 0.984 . S
N1105 H1111 0.985 . S
C1106 C1100 1.379 . S
C1106 C1103 1.363 . S
C1106 N1104 1.356 . S
C1107 C1101 1.363 . S
C1107 C1102 1.379 . S
C1107 N1105 1.356 . S
N1108 C1100 1.356 . S
N1108 H1114 0.984 . S
N1108 H1115 0.984 . S
N1109 C1102 1.356 . S
N1109 H1112 0.984 . S
N1109 H1113 0.985 . S
H1110 N1105 0.984 . S
H1111 N1105 0.985 . S
H1112 N1109 0.984 . S
H1113 N1109 0.985 . S
H1114 N1108 0.984 . S
H1115 N1108 0.984 . S
H1116 N1104 0.984 . S
H1117 N1104 0.985 . S
C1118 C1119 1.363 . S
C1118 C1124 1.379 . S
C1118 N1126 1.356 . S
C1119 C1118 1.363 . S
C1119 C1125 1.363 . S
C1120 C1121 1.363 . S
C1120 C1125 1.379 . S
C1120 N1127 1.356 . S
C1121 C1120 1.363 . S
C1121 C1124 1.363 . S
N1122 C1124 1.356 . S
N1122 H1134 0.984 . S
N1122 H1135 0.985 . S
N1123 C1125 1.356 . S
N1123 H1128 0.984 . S
N1123 H1129 0.985 . S
C1124 C1118 1.379 . S
C1124 C1121 1.363 . S
C1124 N1122 1.356 . S
C1125 C1119 1.363 . S
C1125 C1120 1.379 . S
C1125 N1123 1.356 . S
N1126 C1118 1.356 . S
N1126 H1132 0.984 . S
N1126 H1133 0.984 . S
N1127 C1120 1.356 . S
N1127 H1130 0.984 . S
N1127 H1131 0.985 . S
H1128 N1123 0.984 . S
H1129 N1123 0.985 . S
H1130 N1127 0.984 . S
H1131 N1127 0.985 . S
H1132 N1126 0.984 . S
H1133 N1126 0.984 . S
H1134 N1122 0.984 . S
H1135 N1122 0.985 . S
C1136 C1137 1.363 . S
C1136 C1142 1.379 . S
C1136 N1144 1.356 . S
C1137 C1136 1.363 . S
C1137 C1143 1.363 . S
C1138 C1139 1.363 . S
C1138 C1143 1.379 . S
C1138 N1145 1.356 . S
C1139 C1138 1.363 . S
C1139 C1142 1.363 . S
N1140 C1142 1.356 . S
N1140 H1152 0.984 . S
N1140 H1153 0.985 . S
N1141 C1143 1.356 . S
N1141 H1146 0.984 . S
N1141 H1147 0.985 . S
C1142 C1136 1.379 . S
C1142 C1139 1.363 . S
C1142 N1140 1.356 . S
C1143 C1137 1.363 . S
C1143 C1138 1.379 . S
C1143 N1141 1.356 . S
N1144 C1136 1.356 . S
N1144 H1150 0.984 . S
N1144 H1151 0.984 . S
N1145 C1138 1.356 . S
N1145 H1148 0.984 . S
N1145 H1149 0.985 . S
H1146 N1141 0.984 . S
H1147 N1141 0.985 . S
H1148 N1145 0.984 . S
H1149 N1145 0.985 . S
H1150 N1144 0.984 . S
H1151 N1144 0.984 . S
H1152 N1140 0.984 . S
H1153 N1140 0.985 . S
C1154 C1155 1.363 . S
C1154 C1160 1.379 . S
C1154 N1162 1.356 . S
C1155 C1154 1.363 . S
C1155 C1161 1.363 . S
C1156 C1157 1.363 . S
C1156 C1161 1.379 . S
C1156 N1163 1.356 . S
C1157 C1156 1.363 . S
C1157 C1160 1.363 . S
N1158 C1160 1.356 . S
N1158 H1170 0.984 . S
N1158 H1171 0.985 . S
N1159 C1161 1.356 . S
N1159 H1164 0.984 . S
N1159 H1165 0.985 . S
C1160 C1154 1.379 . S
C1160 C1157 1.363 . S
C1160 N1158 1.356 . S
C1161 C1155 1.363 . S
C1161 C1156 1.379 . S
C1161 N1159 1.356 . S
N1162 C1154 1.356 . S
N1162 H1168 0.984 . S
N1162 H1169 0.984 . S
N1163 C1156 1.356 . S
N1163 H1166 0.984 . S
N1163 H1167 0.985 . S
H1164 N1159 0.984 . S
H1165 N1159 0.985 . S
H1166 N1163 0.984 . S
H1167 N1163 0.985 . S
H1168 N1162 0.984 . S
H1169 N1162 0.984 . S
H1170 N1158 0.984 . S
H1171 N1158 0.985 . S
C1172 C1173 1.363 . S
C1172 C1178 1.379 . S
C1172 N1180 1.356 . S
C1173 C1172 1.363 . S
C1173 C1179 1.363 . S
C1174 C1175 1.363 . S
C1174 C1179 1.379 . S
C1174 N1181 1.356 . S
C1175 C1174 1.363 . S
C1175 C1178 1.363 . S
N1176 C1178 1.356 . S
N1176 H1188 0.984 . S
N1176 H1189 0.985 . S
N1177 C1179 1.356 . S
N1177 H1182 0.984 . S
N1177 H1183 0.985 . S
C1178 C1172 1.379 . S
C1178 C1175 1.363 . S
C1178 N1176 1.356 . S
C1179 C1173 1.363 . S
C1179 C1174 1.379 . S
C1179 N1177 1.356 . S
N1180 C1172 1.356 . S
N1180 H1186 0.984 . S
N1180 H1187 0.984 . S
N1181 C1174 1.356 . S
N1181 H1184 0.984 . S
N1181 H1185 0.985 . S
H1182 N1177 0.984 . S
H1183 N1177 0.985 . S
H1184 N1181 0.984 . S
H1185 N1181 0.985 . S
H1186 N1180 0.984 . S
H1187 N1180 0.984 . S
H1188 N1176 0.984 . S
H1189 N1176 0.985 . S
C1190 C1191 1.363 . S
C1190 C1196 1.379 . S
C1190 N1198 1.356 . S
C1191 C1190 1.363 . S
C1191 C1197 1.363 . S
C1192 C1193 1.363 . S
C1192 C1197 1.379 . S
C1192 N1199 1.356 . S
C1193 C1192 1.363 . S
C1193 C1196 1.363 . S
N1194 C1196 1.356 . S
N1194 H1206 0.984 . S
N1194 H1207 0.985 . S
N1195 C1197 1.356 . S
N1195 H1200 0.984 . S
N1195 H1201 0.985 . S
C1196 C1190 1.379 . S
C1196 C1193 1.363 . S
C1196 N1194 1.356 . S
C1197 C1191 1.363 . S
C1197 C1192 1.379 . S
C1197 N1195 1.356 . S
N1198 C1190 1.356 . S
N1198 H1204 0.984 . S
N1198 H1205 0.984 . S
N1199 C1192 1.356 . S
N1199 H1202 0.984 . S
N1199 H1203 0.985 . S
H1200 N1195 0.984 . S
H1201 N1195 0.985 . S
H1202 N1199 0.984 . S
H1203 N1199 0.985 . S
H1204 N1198 0.984 . S
H1205 N1198 0.984 . S
H1206 N1194 0.984 . S
H1207 N1194 0.985 . S
C1208 C1209 1.363 . S
C1208 C1214 1.379 . S
C1208 N1216 1.356 . S
C1209 C1208 1.363 . S
C1209 C1215 1.363 . S
C1210 C1211 1.363 . S
C1210 C1215 1.379 . S
C1210 N1217 1.356 . S
C1211 C1210 1.363 . S
C1211 C1214 1.363 . S
N1212 C1214 1.356 . S
N1212 H1224 0.984 . S
N1212 H1225 0.985 . S
N1213 C1215 1.356 . S
N1213 H1218 0.984 . S
N1213 H1219 0.985 . S
C1214 C1208 1.379 . S
C1214 C1211 1.363 . S
C1214 N1212 1.356 . S
C1215 C1209 1.363 . S
C1215 C1210 1.379 . S
C1215 N1213 1.356 . S
N1216 C1208 1.356 . S
N1216 H1222 0.984 . S
N1216 H1223 0.984 . S
N1217 C1210 1.356 . S
N1217 H1220 0.984 . S
N1217 H1221 0.985 . S
H1218 N1213 0.984 . S
H1219 N1213 0.985 . S
H1220 N1217 0.984 . S
H1221 N1217 0.985 . S
H1222 N1216 0.984 . S
H1223 N1216 0.984 . S
H1224 N1212 0.984 . S
H1225 N1212 0.985 . S
C1226 C1227 1.363 . S
C1226 C1232 1.379 . S
C1226 N1234 1.356 . S
C1227 C1226 1.363 . S
C1227 C1233 1.363 . S
C1228 C1229 1.363 . S
C1228 C1233 1.379 . S
C1228 N1235 1.356 . S
C1229 C1228 1.363 . S
C1229 C1232 1.363 . S
N1230 C1232 1.356 . S
N1230 H1242 0.984 . S
N1230 H1243 0.985 . S
N1231 C1233 1.356 . S
N1231 H1236 0.984 . S
N1231 H1237 0.985 . S
C1232 C1226 1.379 . S
C1232 C1229 1.363 . S
C1232 N1230 1.356 . S
C1233 C1227 1.363 . S
C1233 C1228 1.379 . S
C1233 N1231 1.356 . S
N1234 C1226 1.356 . S
N1234 H1240 0.984 . S
N1234 H1241 0.984 . S
N1235 C1228 1.356 . S
N1235 H1238 0.984 . S
N1235 H1239 0.985 . S
H1236 N1231 0.984 . S
H1237 N1231 0.985 . S
H1238 N1235 0.984 . S
H1239 N1235 0.985 . S
H1240 N1234 0.984 . S
H1241 N1234 0.984 . S
H1242 N1230 0.984 . S
H1243 N1230 0.985 . S
C1244 C1245 1.363 . S
C1244 C1250 1.379 . S
C1244 N1252 1.356 . S
C1245 C1244 1.363 . S
C1245 C1251 1.363 . S
C1246 C1247 1.363 . S
C1246 C1251 1.379 . S
C1246 N1253 1.356 . S
C1247 C1246 1.363 . S
C1247 C1250 1.363 . S
N1248 C1250 1.356 . S
N1248 H1260 0.984 . S
N1248 H1261 0.985 . S
N1249 C1251 1.356 . S
N1249 H1254 0.984 . S
N1249 H1255 0.985 . S
C1250 C1244 1.379 . S
C1250 C1247 1.363 . S
C1250 N1248 1.356 . S
C1251 C1245 1.363 . S
C1251 C1246 1.379 . S
C1251 N1249 1.356 . S
N1252 C1244 1.356 . S
N1252 H1258 0.984 . S
N1252 H1259 0.984 . S
N1253 C1246 1.356 . S
N1253 H1256 0.984 . S
N1253 H1257 0.985 . S
H1254 N1249 0.984 . S
H1255 N1249 0.985 . S
H1256 N1253 0.984 . S
H1257 N1253 0.985 . S
H1258 N1252 0.984 . S
H1259 N1252 0.984 . S
H1260 N1248 0.984 . S
H1261 N1248 0.985 . S
C1262 C1263 1.363 . S
C1262 C1268 1.379 . S
C1262 N1270 1.356 . S
C1263 C1262 1.363 . S
C1263 C1269 1.363 . S
C1264 C1265 1.363 . S
C1264 C1269 1.379 . S
C1264 N1271 1.356 . S
C1265 C1264 1.363 . S
C1265 C1268 1.363 . S
N1266 C1268 1.356 . S
N1266 H1278 0.984 . S
N1266 H1279 0.985 . S
N1267 C1269 1.356 . S
N1267 H1272 0.984 . S
N1267 H1273 0.985 . S
C1268 C1262 1.379 . S
C1268 C1265 1.363 . S
C1268 N1266 1.356 . S
C1269 C1263 1.363 . S
C1269 C1264 1.379 . S
C1269 N1267 1.356 . S
N1270 C1262 1.356 . S
N1270 H1276 0.984 . S
N1270 H1277 0.984 . S
N1271 C1264 1.356 . S
N1271 H1274 0.984 . S
N1271 H1275 0.985 . S
H1272 N1267 0.984 . S
H1273 N1267 0.985 . S
H1274 N1271 0.984 . S
H1275 N1271 0.985 . S
H1276 N1270 0.984 . S
H1277 N1270 0.984 . S
H1278 N1266 0.984 . S
H1279 N1266 0.985 . S
C1280 C1281 1.363 . S
C1280 C1286 1.379 . S
C1280 N1288 1.356 . S
C1281 C1280 1.363 . S
C1281 C1287 1.363 . S
C1282 C1283 1.363 . S
C1282 C1287 1.379 . S
C1282 N1289 1.356 . S
C1283 C1282 1.363 . S
C1283 C1286 1.363 . S
N1284 C1286 1.356 . S
N1284 H1296 0.984 . S
N1284 H1297 0.985 . S
N1285 C1287 1.356 . S
N1285 H1290 0.984 . S
N1285 H1291 0.985 . S
C1286 C1280 1.379 . S
C1286 C1283 1.363 . S
C1286 N1284 1.356 . S
C1287 C1281 1.363 . S
C1287 C1282 1.379 . S
C1287 N1285 1.356 . S
N1288 C1280 1.356 . S
N1288 H1294 0.984 . S
N1288 H1295 0.984 . S
N1289 C1282 1.356 . S
N1289 H1292 0.984 . S
N1289 H1293 0.985 . S
H1290 N1285 0.984 . S
H1291 N1285 0.985 . S
H1292 N1289 0.984 . S
H1293 N1289 0.985 . S
H1294 N1288 0.984 . S
H1295 N1288 0.984 . S
H1296 N1284 0.984 . S
H1297 N1284 0.985 . S
C1298 C1299 1.363 . S
C1298 C1304 1.379 . S
C1298 N1306 1.356 . S
C1299 C1298 1.363 . S
C1299 C1305 1.363 . S
C1300 C1301 1.363 . S
C1300 C1305 1.379 . S
C1300 N1307 1.356 . S
C1301 C1300 1.363 . S
C1301 C1304 1.363 . S
N1302 C1304 1.356 . S
N1302 H1314 0.984 . S
N1302 H1315 0.985 . S
N1303 C1305 1.356 . S
N1303 H1308 0.984 . S
N1303 H1309 0.985 . S
C1304 C1298 1.379 . S
C1304 C1301 1.363 . S
C1304 N1302 1.356 . S
C1305 C1299 1.363 . S
C1305 C1300 1.379 . S
C1305 N1303 1.356 . S
N1306 C1298 1.356 . S
N1306 H1312 0.984 . S
N1306 H1313 0.984 . S
N1307 C1300 1.356 . S
N1307 H1310 0.984 . S
N1307 H1311 0.985 . S
H1308 N1303 0.984 . S
H1309 N1303 0.985 . S
H1310 N1307 0.984 . S
H1311 N1307 0.985 . S
H1312 N1306 0.984 . S
H1313 N1306 0.984 . S
H1314 N1302 0.984 . S
H1315 N1302 0.985 . S
C1316 C1317 1.363 . S
C1316 C1322 1.379 . S
C1316 N1324 1.356 . S
C1317 C1316 1.363 . S
C1317 C1323 1.363 . S
C1318 C1319 1.363 . S
C1318 C1323 1.379 . S
C1318 N1325 1.356 . S
C1319 C1318 1.363 . S
C1319 C1322 1.363 . S
N1320 C1322 1.356 . S
N1320 H1332 0.984 . S
N1320 H1333 0.985 . S
N1321 C1323 1.356 . S
N1321 H1326 0.984 . S
N1321 H1327 0.985 . S
C1322 C1316 1.379 . S
C1322 C1319 1.363 . S
C1322 N1320 1.356 . S
C1323 C1317 1.363 . S
C1323 C1318 1.379 . S
C1323 N1321 1.356 . S
N1324 C1316 1.356 . S
N1324 H1330 0.984 . S
N1324 H1331 0.984 . S
N1325 C1318 1.356 . S
N1325 H1328 0.984 . S
N1325 H1329 0.985 . S
H1326 N1321 0.984 . S
H1327 N1321 0.985 . S
H1328 N1325 0.984 . S
H1329 N1325 0.985 . S
H1330 N1324 0.984 . S
H1331 N1324 0.984 . S
H1332 N1320 0.984 . S
H1333 N1320 0.985 . S
C1334 C1335 1.363 . S
C1334 C1340 1.379 . S
C1334 N1342 1.356 . S
C1335 C1334 1.363 . S
C1335 C1341 1.363 . S
C1336 C1337 1.363 . S
C1336 C1341 1.379 . S
C1336 N1343 1.356 . S
C1337 C1336 1.363 . S
C1337 C1340 1.363 . S
N1338 C1340 1.356 . S
N1338 H1350 0.984 . S
N1338 H1351 0.985 . S
N1339 C1341 1.356 . S
N1339 H1344 0.984 . S
N1339 H1345 0.985 . S
C1340 C1334 1.379 . S
C1340 C1337 1.363 . S
C1340 N1338 1.356 . S
C1341 C1335 1.363 . S
C1341 C1336 1.379 . S
C1341 N1339 1.356 . S
N1342 C1334 1.356 . S
N1342 H1348 0.984 . S
N1342 H1349 0.984 . S
N1343 C1336 1.356 . S
N1343 H1346 0.984 . S
N1343 H1347 0.985 . S
H1344 N1339 0.984 . S
H1345 N1339 0.985 . S
H1346 N1343 0.984 . S
H1347 N1343 0.985 . S
H1348 N1342 0.984 . S
H1349 N1342 0.984 . S
H1350 N1338 0.984 . S
H1351 N1338 0.985 . S
C1352 C1353 1.363 . S
C1352 C1358 1.379 . S
C1352 N1360 1.356 . S
C1353 C1352 1.363 . S
C1353 C1359 1.363 . S
C1354 C1355 1.363 . S
C1354 C1359 1.379 . S
C1354 N1361 1.356 . S
C1355 C1354 1.363 . S
C1355 C1358 1.363 . S
N1356 C1358 1.356 . S
N1356 H1368 0.984 . S
N1356 H1369 0.985 . S
N1357 C1359 1.356 . S
N1357 H1362 0.984 . S
N1357 H1363 0.985 . S
C1358 C1352 1.379 . S
C1358 C1355 1.363 . S
C1358 N1356 1.356 . S
C1359 C1353 1.363 . S
C1359 C1354 1.379 . S
C1359 N1357 1.356 . S
N1360 C1352 1.356 . S
N1360 H1366 0.984 . S
N1360 H1367 0.984 . S
N1361 C1354 1.356 . S
N1361 H1364 0.984 . S
N1361 H1365 0.985 . S
H1362 N1357 0.984 . S
H1363 N1357 0.985 . S
H1364 N1361 0.984 . S
H1365 N1361 0.985 . S
H1366 N1360 0.984 . S
H1367 N1360 0.984 . S
H1368 N1356 0.984 . S
H1369 N1356 0.985 . S
C1370 C1371 1.363 . S
C1370 C1376 1.379 . S
C1370 N1378 1.356 . S
C1371 C1370 1.363 . S
C1371 C1377 1.363 . S
C1372 C1373 1.363 . S
C1372 C1377 1.379 . S
C1372 N1379 1.356 . S
C1373 C1372 1.363 . S
C1373 C1376 1.363 . S
N1374 C1376 1.356 . S
N1374 H1386 0.984 . S
N1374 H1387 0.985 . S
N1375 C1377 1.356 . S
N1375 H1380 0.984 . S
N1375 H1381 0.985 . S
C1376 C1370 1.379 . S
C1376 C1373 1.363 . S
C1376 N1374 1.356 . S
C1377 C1371 1.363 . S
C1377 C1372 1.379 . S
C1377 N1375 1.356 . S
N1378 C1370 1.356 . S
N1378 H1384 0.984 . S
N1378 H1385 0.984 . S
N1379 C1372 1.356 . S
N1379 H1382 0.984 . S
N1379 H1383 0.985 . S
H1380 N1375 0.984 . S
H1381 N1375 0.985 . S
H1382 N1379 0.984 . S
H1383 N1379 0.985 . S
H1384 N1378 0.984 . S
H1385 N1378 0.984 . S
H1386 N1374 0.984 . S
H1387 N1374 0.985 . S
C1388 C1389 1.363 . S
C1388 C1394 1.379 . S
C1388 N1396 1.356 . S
C1389 C1388 1.363 . S
C1389 C1395 1.363 . S
C1390 C1391 1.363 . S
C1390 C1395 1.379 . S
C1390 N1397 1.356 . S
C1391 C1390 1.363 . S
C1391 C1394 1.363 . S
N1392 C1394 1.356 . S
N1392 H1404 0.984 . S
N1392 H1405 0.985 . S
N1393 C1395 1.356 . S
N1393 H1398 0.984 . S
N1393 H1399 0.985 . S
C1394 C1388 1.379 . S
C1394 C1391 1.363 . S
C1394 N1392 1.356 . S
C1395 C1389 1.363 . S
C1395 C1390 1.379 . S
C1395 N1393 1.356 . S
N1396 C1388 1.356 . S
N1396 H1402 0.984 . S
N1396 H1403 0.984 . S
N1397 C1390 1.356 . S
N1397 H1400 0.984 . S
N1397 H1401 0.985 . S
H1398 N1393 0.984 . S
H1399 N1393 0.985 . S
H1400 N1397 0.984 . S
H1401 N1397 0.985 . S
H1402 N1396 0.984 . S
H1403 N1396 0.984 . S
H1404 N1392 0.984 . S
H1405 N1392 0.985 . S
C1406 C1407 1.363 . S
C1406 C1412 1.379 . S
C1406 N1414 1.356 . S
C1407 C1406 1.363 . S
C1407 C1413 1.363 . S
C1408 C1409 1.363 . S
C1408 C1413 1.379 . S
C1408 N1415 1.356 . S
C1409 C1408 1.363 . S
C1409 C1412 1.363 . S
N1410 C1412 1.356 . S
N1410 H1422 0.984 . S
N1410 H1423 0.985 . S
N1411 C1413 1.356 . S
N1411 H1416 0.984 . S
N1411 H1417 0.985 . S
C1412 C1406 1.379 . S
C1412 C1409 1.363 . S
C1412 N1410 1.356 . S
C1413 C1407 1.363 . S
C1413 C1408 1.379 . S
C1413 N1411 1.356 . S
N1414 C1406 1.356 . S
N1414 H1420 0.984 . S
N1414 H1421 0.984 . S
N1415 C1408 1.356 . S
N1415 H1418 0.984 . S
N1415 H1419 0.985 . S
H1416 N1411 0.984 . S
H1417 N1411 0.985 . S
H1418 N1415 0.984 . S
H1419 N1415 0.985 . S
H1420 N1414 0.984 . S
H1421 N1414 0.984 . S
H1422 N1410 0.984 . S
H1423 N1410 0.985 . S
C1424 C1425 1.363 . S
C1424 C1430 1.379 . S
C1424 N1432 1.356 . S
C1425 C1424 1.363 . S
C1425 C1431 1.363 . S
C1426 C1427 1.363 . S
C1426 C1431 1.379 . S
C1426 N1433 1.356 . S
C1427 C1426 1.363 . S
C1427 C1430 1.363 . S
N1428 C1430 1.356 . S
N1428 H1440 0.984 . S
N1428 H1441 0.985 . S
N1429 C1431 1.356 . S
N1429 H1434 0.984 . S
N1429 H1435 0.985 . S
C1430 C1424 1.379 . S
C1430 C1427 1.363 . S
C1430 N1428 1.356 . S
C1431 C1425 1.363 . S
C1431 C1426 1.379 . S
C1431 N1429 1.356 . S
N1432 C1424 1.356 . S
N1432 H1438 0.984 . S
N1432 H1439 0.984 . S
N1433 C1426 1.356 . S
N1433 H1436 0.984 . S
N1433 H1437 0.985 . S
H1434 N1429 0.984 . S
H1435 N1429 0.985 . S
H1436 N1433 0.984 . S
H1437 N1433 0.985 . S
H1438 N1432 0.984 . S
H1439 N1432 0.984 . S
H1440 N1428 0.984 . S
H1441 N1428 0.985 . S
C1442 C1443 1.363 . S
C1442 C1448 1.379 . S
C1442 N1450 1.356 . S
C1443 C1442 1.363 . S
C1443 C1449 1.363 . S
C1444 C1445 1.363 . S
C1444 C1449 1.379 . S
C1444 N1451 1.356 . S
C1445 C1444 1.363 . S
C1445 C1448 1.363 . S
N1446 C1448 1.356 . S
N1446 H1458 0.984 . S
N1446 H1459 0.985 . S
N1447 C1449 1.356 . S
N1447 H1452 0.984 . S
N1447 H1453 0.985 . S
C1448 C1442 1.379 . S
C1448 C1445 1.363 . S
C1448 N1446 1.356 . S
C1449 C1443 1.363 . S
C1449 C1444 1.379 . S
C1449 N1447 1.356 . S
N1450 C1442 1.356 . S
N1450 H1456 0.984 . S
N1450 H1457 0.984 . S
N1451 C1444 1.356 . S
N1451 H1454 0.984 . S
N1451 H1455 0.985 . S
H1452 N1447 0.984 . S
H1453 N1447 0.985 . S
H1454 N1451 0.984 . S
H1455 N1451 0.985 . S
H1456 N1450 0.984 . S
H1457 N1450 0.984 . S
H1458 N1446 0.984 . S
H1459 N1446 0.985 . S
C599 C293 1.519 . S
C597 N2 1.503 . S
C617 C339 2.080 . S
C615 C7 2.051 1_655 S
C635 C382 1.485 . S
C633 N12 1.344 1_655 S
C651 C16 2.294 . S
C653 C419 2.372 . S
C671 C438 2.182 . S
C669 C30 2.143 . S
C689 C493 1.275 . S
C687 N35 1.248 . S
C705 C39 2.509 1_655 S
C707 C518 2.485 . S
C725 C582 1.249 . S
C723 N25 1.140 1_655 S
C743 C278 1.719 . S
C741 N58 1.687 . S
C759 N81 1.705 . S
C761 C342 1.662 . S
C779 C369 1.567 . S
C777 N104 1.501 . S
C795 N127 1.696 . S
C797 C422 1.668 . S
C815 C460 1.425 . S
C813 N48 1.403 . S
C833 C478 1.668 . S
C831 N71 1.661 . S
C849 N94 1.452 . S
C851 C540 1.494 . S
C869 C569 1.566 . S
C867 N117 1.519 . S
C885 C85 1.930 . S
C887 C300 1.948 . S
C903 C122 1.779 . S
C905 C453 1.755 . S
C921 C53 2.244 . S
C923 C500 2.256 . S
C941 C533 1.804 . S
C939 C76 1.823 . S
C959 C579 2.472 . S
C957 C99 2.487 . S
C977 C379 2.074 . S
C975 C131 2.115 . S
C995 C409 2.033 . S
C993 C62 2.025 . S
C1011 C108 1.910 . S
C1013 C329 1.913 . S
C1031 C573 1.627 . S
C1029 N140 1.613 . S
C1047 C145 2.037 . S
C1049 C459 2.071 . S
C1067 C502 1.357 . S
C1065 N150 1.241 . S
C1083 C154 2.292 . S
C1085 C539 2.368 . S
C1103 C318 2.172 . S
C1101 C168 2.129 . S
C1119 N173 1.150 . S
C1121 C373 1.169 . S
C1139 C398 2.470 . S
C1137 C177 2.500 . S
C1157 C302 1.362 . S
C1155 N163 1.216 . S
C1175 C558 2.170 . S
C1173 C200 2.145 . S
C1193 C462 1.861 . S
C1191 N219 1.897 . S
C1209 N242 1.759 . S
C1211 C489 1.828 . S
C1229 C542 1.932 . S
C1227 C269 1.986 . S
C1247 C340 1.748 . S
C1245 C191 1.774 . S
C1263 N209 1.938 . S
C1265 C358 1.946 . S
C1281 N232 1.759 . S
C1283 C420 1.805 . S
C1299 C260 1.972 . S
C1301 C289 2.018 . S
C1317 C223 1.579 . S
C1319 C580 1.600 . S
C1335 N255 1.490 . S
C1337 C333 1.489 . S
C1353 N186 1.903 . S
C1355 C380 1.889 . S
C1373 C413 1.564 . S
C1371 C214 1.589 . S
C1391 C299 2.211 . S
C1389 C237 2.220 . S
C1409 C499 1.586 . S
C1407 N265 1.568 . S
C1427 C529 1.702 . S
C1425 N196 1.591 . S
C1445 C449 1.612 . S
C1443 C246 1.605 . S
