# Generated by pormake.
# Topology anh, (6,3)-cn, num edge types: 1
# Building blocks:
#     Node 0, Type 0, BuildingBlock: CUWYAW_clean_sbu_0, # of connection points: 6
#     Node 1, Type 0, BuildingBlock: CUWYAW_clean_sbu_0, # of connection points: 6
#     Node 2, Type 0, BuildingBlock: CUWYAW_clean_sbu_0, # of connection points: 6
#     Node 3, Type 1, BuildingBlock: OLANEW_clean_sbu_2, # of connection points: 3
#     Node 4, Type 1, BuildingBlock: OLANEW_clean_sbu_2, # of connection points: 3
#     Node 5, Type 1, BuildingBlock: OLANEW_clean_sbu_2, # of connection points: 3
#     Node 6, Type 1, BuildingBlock: OLANEW_clean_sbu_2, # of connection points: 3
#     Node 7, Type 1, BuildingBlock: OLANEW_clean_sbu_2, # of connection points: 3
#     Node 8, Type 1, BuildingBlock: OLANEW_clean_sbu_2, # of connection points: 3
#     Edge 9, Type (0, 1), BuildingBlock: FUNLAD_clean_linker_0, # of connection points: 2
#     Edge 10, Type (0, 1), BuildingBlock: FUNLAD_clean_linker_0, # of connection points: 2
#     Edge 11, Type (0, 1), BuildingBlock: FUNLAD_clean_linker_0, # of connection points: 2
#     Edge 12, Type (0, 1), BuildingBlock: FUNLAD_clean_linker_0, # of connection points: 2
#     Edge 13, Type (0, 1), BuildingBlock: FUNLAD_clean_linker_0, # of connection points: 2
#     Edge 14, Type (0, 1), BuildingBlock: FUNLAD_clean_linker_0, # of connection points: 2
#     Edge 15, Type (0, 1), BuildingBlock: FUNLAD_clean_linker_0, # of connection points: 2
#     Edge 16, Type (0, 1), BuildingBlock: FUNLAD_clean_linker_0, # of connection points: 2
#     Edge 17, Type (0, 1), BuildingBlock: FUNLAD_clean_linker_0, # of connection points: 2
#     Edge 18, Type (0, 1), BuildingBlock: FUNLAD_clean_linker_0, # of connection points: 2
#     Edge 19, Type (0, 1), BuildingBlock: FUNLAD_clean_linker_0, # of connection points: 2
#     Edge 20, Type (0, 1), BuildingBlock: FUNLAD_clean_linker_0, # of connection points: 2
#     Edge 21, Type (0, 1), BuildingBlock: FUNLAD_clean_linker_0, # of connection points: 2
#     Edge 22, Type (0, 1), BuildingBlock: FUNLAD_clean_linker_0, # of connection points: 2
#     Edge 23, Type (0, 1), BuildingBlock: FUNLAD_clean_linker_0, # of connection points: 2
#     Edge 24, Type (0, 1), BuildingBlock: FUNLAD_clean_linker_0, # of connection points: 2
#     Edge 25, Type (0, 1), BuildingBlock: FUNLAD_clean_linker_0, # of connection points: 2
#     Edge 26, Type (0, 1), BuildingBlock: FUNLAD_clean_linker_0, # of connection points: 2
# Relax obj value: 0.191
# Max RMSD: 0.124
# Mean RMSD: 0.110
data_MOF--net-anh--node1-CUWYAW_clean_sbu_0--node2-OLANEW_clean_sbu_2--edge1-FUNLAD_clean_linker_0
_symmetry_space_group_name_H-M    P1
_symmetry_Int_Tables_number       1
_symmetry_cell_setting            triclinic
loop_
_symmetry_equiv_pos_as_xyz
'x, y, z'
_cell_length_a     41.329898
_cell_length_b     41.219155
_cell_length_c     57.742283
_cell_angle_alpha  89.738632
_cell_angle_beta   89.579721
_cell_angle_gamma 119.92539
loop_
_atom_site_label
_atom_site_type_symbol
_atom_site_fract_x
_atom_site_fract_y
_atom_site_fract_z
_atom_type_partial_charge
C0 C 0.96367 0.41267 0.14798 0.0
Eu1 Eu 1.0069 0.47359 0.17041 0.0
C2 C 0.92366 0.39302 0.14281 0.0
C3 C 0.89827 0.39549 0.15792 0.0
C4 C 0.86031 0.3772 0.15282 0.0
C5 C 0.84702 0.35638 0.13237 0.0
C6 C 0.87279 0.35477 0.117 0.0
C7 C 0.9108 0.37291 0.12223 0.0
C8 C 1.0132 0.48031 0.21718 0.0
C9 C 0.96025 0.51759 0.17871 0.0
C10 C 0.09005 0.61331 0.20916 0.0
Eu11 Eu 0.04676 0.55206 0.18716 0.0
C12 C 0.13023 0.63944 0.20704 0.0
C13 C 0.15059 0.63577 0.18869 0.0
C14 C 0.18865 0.66113 0.18608 0.0
C15 C 0.20699 0.6906 0.20178 0.0
C16 C 0.18655 0.69379 0.22038 0.0
C17 C 0.14838 0.66836 0.22297 0.0
C18 C 0.04034 0.54654 0.14063 0.0
C19 C 0.09438 0.50878 0.17522 0.0
O20 O 0.98335 0.44532 0.13787 0.0
O21 O 0.97245 0.41289 0.16972 0.0
O22 O 1.01669 0.45527 0.20562 0.0
O23 O 1.00524 0.49946 0.20382 0.0
O24 O 0.96318 0.49157 0.16715 0.0
O25 O 0.98804 0.54192 0.19157 0.0
O26 O 0.08068 0.58 0.21724 0.0
O27 O 0.07055 0.61209 0.19111 0.0
O28 O 0.03805 0.57194 0.1525 0.0
O29 O 0.04817 0.52683 0.15361 0.0
O30 O 0.09366 0.53722 0.18543 0.0
O31 O 0.06416 0.48137 0.16585 0.0
H32 H 0.90773 0.41136 0.17377 0.0
H33 H 0.84133 0.37864 0.16524 0.0
H34 H 0.86363 0.33949 0.10094 0.0
H35 H 0.93017 0.37128 0.11019 0.0
H36 H 0.13692 0.61349 0.17624 0.0
H37 H 0.20373 0.65766 0.17178 0.0
H38 H 0.19987 0.71645 0.23262 0.0
H39 H 0.13298 0.67151 0.23721 0.0
C40 C 0.48848 0.11037 0.48645 0.0
Eu41 Eu 0.51313 0.06854 0.5036 0.0
C42 C 0.4994 0.14918 0.49206 0.0
C43 C 0.51477 0.16337 0.51378 0.0
C44 C 0.52875 0.20104 0.51871 0.0
C45 C 0.52802 0.22546 0.50193 0.0
C46 C 0.51234 0.21117 0.48019 0.0
C47 C 0.49805 0.17318 0.4753 0.0
C48 C 0.51699 0.0596 0.54997 0.0
C49 C 0.60425 0.12202 0.50896 0.0
C50 C 0.5863 0.99579 0.53664 0.0
Eu51 Eu 0.55939 0.03403 0.51684 0.0
C52 C 0.57569 0.95628 0.53951 0.0
C53 C 0.53809 0.92779 0.53991 0.0
C54 C 0.52881 0.89025 0.54161 0.0
C55 C 0.55702 0.8807 0.54272 0.0
C56 C 0.59459 0.90943 0.54253 0.0
C57 C 0.6038 0.94686 0.54094 0.0
C58 C 0.55743 0.04564 0.47087 0.0
C59 C 0.46993 0.98005 0.50593 0.0
O60 O 0.51462 0.10619 0.47642 0.0
O61 O 0.47117 0.08577 0.50302 0.0
O62 O 0.4873 0.05475 0.53955 0.0
O63 O 0.54382 0.07071 0.53578 0.0
O64 O 0.57274 0.11751 0.50025 0.0
O65 O 0.60537 0.09422 0.51969 0.0
O66 O 0.56579 1.00698 0.54757 0.0
O67 O 0.59511 1.00918 0.51555 0.0
O68 O 0.58691 0.04966 0.48124 0.0
O69 O 0.53021 0.03341 0.48474 0.0
O70 O 0.49923 0.98422 0.5177 0.0
O71 O 0.47089 1.00886 0.49517 0.0
H72 H 0.51691 0.14549 0.52678 0.0
H73 H 0.54143 0.21131 0.53541 0.0
H74 H 0.51148 0.2294 0.46695 0.0
H75 H 0.48677 0.16275 0.45832 0.0
H76 H 0.51596 0.93451 0.53867 0.0
H77 H 0.49966 0.8687 0.54158 0.0
H78 H 0.61692 0.90297 0.54373 0.0
H79 H 0.63295 0.9685 0.54063 0.0
C80 C 0.65789 0.57672 0.84003 0.0
Eu81 Eu 0.58702 0.55003 0.84726 0.0
C82 C 0.68083 0.55916 0.83558 0.0
C83 C 0.6781 0.53034 0.85002 0.0
C84 C 0.69989 0.51387 0.84561 0.0
C85 C 0.72462 0.52551 0.82652 0.0
C86 C 0.72649 0.55366 0.81173 0.0
C87 C 0.7049 0.5704 0.81629 0.0
C88 C 0.55078 0.53689 0.88838 0.0
C89 C 0.54562 0.45762 0.84268 0.0
C90 C 0.4284 0.46716 0.85983 0.0
Eu91 Eu 0.49768 0.49959 0.84644 0.0
C92 C 0.39732 0.47369 0.85506 0.0
C93 C 0.40418 0.50738 0.84468 0.0
C94 C 0.37489 0.51437 0.84099 0.0
C95 C 0.3381 0.48764 0.84743 0.0
C96 C 0.33129 0.45346 0.8573 0.0
C97 C 0.36074 0.4466 0.86112 0.0
C98 C 0.52816 0.52276 0.80319 0.0
C99 C 0.53957 0.59194 0.84185 0.0
O100 O 0.63486 0.57338 0.82356 0.0
O101 O 0.64295 0.57175 0.86077 0.0
O102 O 0.58037 0.56834 0.88274 0.0
O103 O 0.54231 0.5131 0.87239 0.0
O104 O 0.57639 0.49091 0.8412 0.0
O105 O 0.51224 0.45359 0.8469 0.0
O106 O 0.45584 0.49343 0.87174 0.0
O107 O 0.43998 0.4554 0.84227 0.0
O108 O 0.49251 0.50059 0.80641 0.0
O109 O 0.54296 0.52956 0.82259 0.0
O110 O 0.5091 0.55996 0.84787 0.0
O111 O 0.57248 0.5944 0.83822 0.0
H112 H 0.65933 0.52065 0.86486 0.0
H113 H 0.69803 0.49271 0.8576 0.0
H114 H 0.74474 0.56291 0.79666 0.0
H115 H 0.707 0.59218 0.80473 0.0
H116 H 0.43231 0.52854 0.83978 0.0
H117 H 0.38132 0.54122 0.83372 0.0
H118 H 0.30326 0.43208 0.86218 0.0
H119 H 0.35501 0.42033 0.869 0.0
O120 O 0.51568 0.08884 0.25531 0.0
Cd121 Cd 0.48679 0.07915 0.21688 0.0
O122 O 0.55869 0.07333 0.24811 0.0
Cd123 Cd 0.53625 0.0498 0.21465 0.0
O124 O 0.49883 1.00359 0.19288 0.0
C125 C 0.50218 0.9746 0.19334 0.0
O126 O 0.52962 0.97547 0.20519 0.0
C127 C 0.54331 0.08564 0.26192 0.0
C128 C 0.53774 0.1264 0.18335 0.0
O129 O 0.52915 0.09207 0.18518 0.0
O130 O 0.52139 0.13831 0.19696 0.0
O131 O 0.73477 0.60462 0.62024 0.0
Cd132 Cd 0.77331 0.61354 0.58595 0.0
O133 O 0.68875 0.59058 0.5964 0.0
Cd134 Cd 0.63352 0.58195 0.58816 0.0
O135 O 0.59468 0.60182 0.58096 0.0
C136 C 0.58577 0.60414 0.56026 0.0
O137 O 0.59796 0.59157 0.54342 0.0
C138 C 0.70064 0.59444 0.61702 0.0
C139 C 0.73482 0.55025 0.5588 0.0
O140 O 0.73186 0.57934 0.55509 0.0
O141 O 0.75692 0.55175 0.57475 0.0
O142 O 0.11796 0.66078 0.93112 0.0
Cd143 Cd 0.13197 0.68448 0.89135 0.0
O144 O 0.07653 0.60804 0.91564 0.0
Cd145 Cd 0.0314 0.54986 0.91528 0.0
O146 O 0.97654 0.50636 0.90424 0.0
C147 C 0.97242 0.49581 0.8833 0.0
O148 O 1.00205 0.50894 0.86973 0.0
C149 C 0.09219 0.62695 0.9336 0.0
C150 C 0.16595 0.65015 0.8683 0.0
O151 O 0.18542 0.6822 0.87775 0.0
O152 O 0.1303 0.63468 0.8693 0.0
O153 O 0.08817 0.5767 0.432 0.0
Cd154 Cd 0.12236 0.59832 0.46914 0.0
O155 O 0.03904 0.5238 0.4437 0.0
Cd156 Cd 0.98426 0.4704 0.44326 0.0
O157 O 0.9321 0.41596 0.45027 0.0
C158 C 0.90514 0.41407 0.46227 0.0
O159 O 0.90809 0.44522 0.47026 0.0
C160 C 0.05758 0.5469 0.42738 0.0
C161 C 0.18677 0.67058 0.47055 0.0
O162 O 0.18794 0.6428 0.46155 0.0
O163 O 0.15513 0.66476 0.47827 0.0
O164 O 0.54236 0.98733 0.76567 0.0
Cd165 Cd 0.53383 0.95777 0.80439 0.0
O166 O 0.53722 0.0359 0.7763 0.0
Cd167 Cd 0.53673 0.08972 0.7747 0.0
O168 O 0.53252 0.14094 0.78038 0.0
C169 C 0.55257 0.16515 0.79539 0.0
O170 O 0.57651 0.15975 0.80726 0.0
C171 C 0.542 0.01727 0.76034 0.0
C172 C 0.53993 0.89245 0.80737 0.0
O173 O 0.50854 0.89042 0.80323 0.0
O174 O 0.56853 0.92518 0.80947 0.0
O175 O 0.56723 0.51619 0.10474 0.0
Cd176 Cd 0.59377 0.51921 0.14359 0.0
O177 O 0.52046 0.5239 0.11608 0.0
Cd178 Cd 0.46901 0.52849 0.1148 0.0
O179 O 0.41913 0.5348 0.1208 0.0
C180 C 0.39464 0.51474 0.13602 0.0
O181 O 0.39922 0.48998 0.14778 0.0
C182 C 0.5387 0.51913 0.09979 0.0
C183 C 0.65966 0.51444 0.14617 0.0
O184 O 0.62724 0.48503 0.14644 0.0
O185 O 0.66118 0.54615 0.144 0.0
C186 C 0.16501 0.54091 0.17518 0.0
C187 C 0.13003 0.50826 0.17282 0.0
C188 C 0.19826 0.54002 0.17151 0.0
C189 C 0.19715 0.5063 0.16564 0.0
C190 C 0.16218 0.47369 0.16387 0.0
C191 C 0.12915 0.47468 0.16718 0.0
C192 C 0.23138 0.50322 0.162 0.0
C193 C 0.26486 0.5316 0.15482 0.0
C194 C 0.29801 0.52685 0.15025 0.0
C195 C 0.32576 0.55094 0.13439 0.0
C196 C 0.357 0.54702 0.12959 0.0
C197 C 0.3615 0.51914 0.14077 0.0
H198 H 0.28286 0.48089 0.17452 0.0
C199 C 0.33404 0.49547 0.15693 0.0
C200 C 0.30281 0.49928 0.16164 0.0
H201 H 0.33666 0.4739 0.16607 0.0
H202 H 0.16671 0.56726 0.17951 0.0
H203 H 0.22465 0.56559 0.17358 0.0
H204 H 0.16033 0.44724 0.15961 0.0
H205 H 0.10281 0.44892 0.16535 0.0
H206 H 0.22789 0.47543 0.16392 0.0
H207 H 0.26764 0.55864 0.15081 0.0
H208 H 0.3231 0.57267 0.12549 0.0
H209 H 0.37766 0.56592 0.11717 0.0
C210 C 0.67459 0.16284 0.50898 0.0
C211 C 0.63908 0.15884 0.50557 0.0
C212 C 0.70723 0.19702 0.5041 0.0
C213 C 0.70512 0.22812 0.49578 0.0
C214 C 0.6696 0.22427 0.49301 0.0
C215 C 0.6371 0.19013 0.49765 0.0
C216 C 0.73889 0.26531 0.49042 0.0
C217 C 0.77303 0.27037 0.48497 0.0
C218 C 0.8063 0.3077 0.47899 0.0
C219 C 0.83617 0.30904 0.46631 0.0
C220 C 0.86804 0.34336 0.46064 0.0
C221 C 0.87108 0.37738 0.46772 0.0
H222 H 0.78783 0.34231 0.49652 0.0
C223 C 0.84133 0.37606 0.48056 0.0
C224 C 0.80947 0.34179 0.48616 0.0
H225 H 0.8427 0.4016 0.4865 0.0
H226 H 0.67721 0.13937 0.51506 0.0
H227 H 0.73395 0.19896 0.50711 0.0
H228 H 0.66691 0.24769 0.4869 0.0
H229 H 0.61033 0.18829 0.4949 0.0
H230 H 0.73458 0.2892 0.48971 0.0
H231 H 0.77658 0.24606 0.48373 0.0
H232 H 0.83484 0.28337 0.46067 0.0
H233 H 0.89039 0.34318 0.45084 0.0
C234 C 0.5668 0.65931 0.82935 0.0
C235 C 0.53647 0.62617 0.83833 0.0
C236 C 0.56371 0.69123 0.82532 0.0
C237 C 0.5302 0.69107 0.83038 0.0
C238 C 0.49991 0.65786 0.83932 0.0
C239 C 0.50295 0.6259 0.84326 0.0
C240 C 0.5251 0.72418 0.82606 0.0
C241 C 0.55336 0.75948 0.82199 0.0
C242 C 0.54854 0.7928 0.81792 0.0
C243 C 0.58008 0.82876 0.81944 0.0
C244 C 0.57735 0.86092 0.81579 0.0
C245 C 0.54294 0.85811 0.81038 0.0
H246 H 0.48921 0.76302 0.8101 0.0
C247 C 0.51139 0.82219 0.80848 0.0
C248 C 0.51412 0.78993 0.81212 0.0
H249 H 0.48446 0.81894 0.80421 0.0
H250 H 0.59295 0.66055 0.82506 0.0
H251 H 0.58757 0.71552 0.81782 0.0
H252 H 0.47362 0.65657 0.84328 0.0
H253 H 0.47891 0.60094 0.85012 0.0
H254 H 0.49673 0.7191 0.82711 0.0
H255 H 0.58188 0.76504 0.82251 0.0
H256 H 0.60707 0.83208 0.82366 0.0
H257 H 0.60228 0.88805 0.81738 0.0
C258 C 0.8959 0.49373 0.16273 0.0
C259 C 0.92531 0.51951 0.17662 0.0
C260 C 0.86357 0.4962 0.15977 0.0
C261 C 0.85958 0.52448 0.17078 0.0
C262 C 0.88896 0.55014 0.18472 0.0
C263 C 0.92134 0.54766 0.18767 0.0
C264 C 0.82616 0.52916 0.16748 0.0
C265 C 0.79289 0.50208 0.15949 0.0
C266 C 0.75942 0.50657 0.15609 0.0
C267 C 0.72411 0.47424 0.15445 0.0
C268 C 0.69192 0.4768 0.15106 0.0
C269 C 0.69414 0.51185 0.149 0.0
H270 H 0.78836 0.5674 0.15416 0.0
C271 C 0.7295 0.5443 0.15025 0.0
C272 C 0.76175 0.54174 0.15371 0.0
H273 H 0.73231 0.57178 0.14861 0.0
H274 H 0.89797 0.4718 0.15377 0.0
H275 H 0.84237 0.47637 0.14837 0.0
H276 H 0.88697 0.57239 0.19332 0.0
H277 H 0.94341 0.56811 0.19841 0.0
H278 H 0.82902 0.55574 0.17264 0.0
H279 H 0.7891 0.47454 0.1561 0.0
H280 H 0.72129 0.44673 0.15598 0.0
H281 H 0.66523 0.45119 0.15015 0.0
C282 C 0.41176 0.9343 0.48507 0.0
C283 C 0.43633 0.94225 0.50369 0.0
C284 C 0.37996 0.89883 0.48288 0.0
C285 C 0.3716 0.87056 0.49949 0.0
C286 C 0.39593 0.87863 0.51823 0.0
C287 C 0.42821 0.91386 0.52014 0.0
C288 C 0.33683 0.83323 0.4983 0.0
C289 C 0.32203 0.81567 0.47817 0.0
C290 C 0.28736 0.7783 0.4769 0.0
C291 C 0.28435 0.75311 0.45959 0.0
C292 C 0.25188 0.7181 0.45764 0.0
C293 C 0.2211 0.7079 0.47249 0.0
H294 H 0.25773 0.78713 0.50509 0.0
C295 C 0.22378 0.73343 0.48953 0.0
C296 C 0.25666 0.76808 0.49187 0.0
H297 H 0.20062 0.72642 0.50128 0.0
H298 H 0.41717 0.9555 0.47207 0.0
H299 H 0.36148 0.89391 0.46848 0.0
H300 H 0.39006 0.85752 0.53138 0.0
H301 H 0.44639 0.91908 0.53476 0.0
H302 H 0.32408 0.81902 0.51455 0.0
H303 H 0.33687 0.82813 0.46204 0.0
H304 H 0.3074 0.76036 0.44768 0.0
H305 H 0.25071 0.69918 0.44429 0.0
C306 C 0.51705 0.38793 0.83675 0.0
C307 C 0.54894 0.42362 0.83875 0.0
C308 C 0.52041 0.35634 0.83196 0.0
C309 C 0.55584 0.35966 0.82904 0.0
C310 C 0.58762 0.3952 0.83151 0.0
C311 C 0.58427 0.42673 0.83614 0.0
C312 C 0.5611 0.3269 0.82422 0.0
C313 C 0.53501 0.29451 0.81462 0.0
C314 C 0.54079 0.26208 0.80961 0.0
C315 C 0.51795 0.23534 0.79326 0.0
C316 C 0.52191 0.20415 0.78841 0.0
C317 C 0.54866 0.19865 0.79996 0.0
H318 H 0.58497 0.27554 0.83444 0.0
C319 C 0.57138 0.22526 0.81642 0.0
C320 C 0.56749 0.25645 0.82123 0.0
H321 H 0.59211 0.22188 0.82582 0.0
H322 H 0.48937 0.38435 0.8387 0.0
H323 H 0.49517 0.32942 0.83088 0.0
H324 H 0.61531 0.39873 0.82961 0.0
H325 H 0.60954 0.4536 0.8376 0.0
H326 H 0.5885 0.33063 0.82777 0.0
H327 H 0.50875 0.29196 0.80922 0.0
H328 H 0.49692 0.23861 0.78414 0.0
H329 H 0.50379 0.18421 0.77571 0.0
C330 C 0.56791 0.8287 0.53062 0.0
C331 C 0.54764 0.841 0.54398 0.0
C332 C 0.56125 0.79217 0.53293 0.0
C333 C 0.53391 0.76691 0.54861 0.0
C334 C 0.51307 0.77898 0.56159 0.0
C335 C 0.51965 0.81559 0.55919 0.0
C336 C 0.52954 0.72951 0.55359 0.0
C337 C 0.53993 0.71144 0.53851 0.0
C338 C 0.54465 0.679 0.54478 0.0
C339 C 0.55109 0.65978 0.52694 0.0
C340 C 0.56233 0.6337 0.53196 0.0
C341 C 0.56753 0.62637 0.55501 0.0
H342 H 0.54363 0.68424 0.5823 0.0
C343 C 0.5588 0.64377 0.57293 0.0
C344 C 0.54766 0.6699 0.56792 0.0
H345 H 0.5624 0.63868 0.5909 0.0
H346 H 0.58945 0.84758 0.51861 0.0
H347 H 0.57878 0.78454 0.5231 0.0
H348 H 0.49219 0.76029 0.574 0.0
H349 H 0.5038 0.82439 0.56986 0.0
H350 H 0.51863 0.71743 0.57056 0.0
H351 H 0.54732 0.72202 0.52087 0.0
H352 H 0.54906 0.66618 0.50896 0.0
H353 H 0.56862 0.62064 0.51773 0.0
C354 C 0.73851 0.47259 0.82879 0.0
C355 C 0.75013 0.51014 0.82316 0.0
C356 C 0.76416 0.45984 0.82894 0.0
C357 C 0.80187 0.48438 0.82329 0.0
C358 C 0.8128 0.52093 0.81592 0.0
C359 C 0.78735 0.53381 0.81604 0.0
C360 C 0.83133 0.4744 0.8269 0.0
C361 C 0.83008 0.45246 0.84468 0.0
C362 C 0.86453 0.4546 0.85384 0.0
C363 C 0.86817 0.45334 0.87791 0.0
C364 C 0.90293 0.46414 0.88759 0.0
C365 C 0.93459 0.47599 0.87329 0.0
H366 H 0.89305 0.46243 0.8208 0.0
C367 C 0.93005 0.47317 0.84914 0.0
C368 C 0.8953 0.46257 0.83947 0.0
H369 H 0.95376 0.48141 0.83764 0.0
H370 H 0.70978 0.45326 0.83367 0.0
H371 H 0.75459 0.4311 0.83399 0.0
H372 H 0.84168 0.54035 0.81137 0.0
H373 H 0.79748 0.56293 0.81175 0.0
H374 H 0.85745 0.49109 0.8175 0.0
H375 H 0.80512 0.43857 0.8555 0.0
H376 H 0.84474 0.44676 0.88936 0.0
H377 H 0.90536 0.46537 0.90627 0.0
C378 C 0.26105 0.73331 0.17616 0.0
C379 C 0.24703 0.7186 0.19836 0.0
C380 C 0.29828 0.76121 0.17307 0.0
C381 C 0.32219 0.77505 0.19217 0.0
C382 C 0.30855 0.75925 0.21417 0.0
C383 C 0.2713 0.73148 0.21728 0.0
C384 C 0.36103 0.8067 0.19008 0.0
C385 C 0.37192 0.83391 0.17388 0.0
C386 C 0.40806 0.86934 0.17529 0.0
C387 C 0.40972 0.90283 0.16845 0.0
C388 C 0.44129 0.93727 0.1731 0.0
C389 C 0.47196 0.93874 0.18445 0.0
H390 H 0.44 0.8453 0.18956 0.0
C391 C 0.47156 0.90512 0.18941 0.0
C392 C 0.43989 0.87071 0.18488 0.0
H393 H 0.49498 0.90529 0.19781 0.0
H394 H 0.243 0.72394 0.16124 0.0
H395 H 0.30807 0.77192 0.15575 0.0
H396 H 0.32649 0.76915 0.22914 0.0
H397 H 0.26144 0.7202 0.23451 0.0
H398 H 0.37989 0.80999 0.20405 0.0
H399 H 0.35203 0.8327 0.16125 0.0
H400 H 0.38573 0.90247 0.16071 0.0
H401 H 0.44093 0.96268 0.16877 0.0
C402 C 0.57068 0.29279 0.49098 0.0
C403 C 0.54581 0.26598 0.50699 0.0
C404 C 0.59205 0.3304 0.49727 0.0
C405 C 0.58872 0.34179 0.51969 0.0
C406 C 0.56244 0.31526 0.53518 0.0
C407 C 0.54109 0.27782 0.52889 0.0
C408 C 0.61471 0.37975 0.52849 0.0
C409 C 0.63448 0.41026 0.51502 0.0
C410 C 0.66208 0.44648 0.5252 0.0
C411 C 0.66541 0.47999 0.51677 0.0
C412 C 0.6897 0.51404 0.52733 0.0
C413 C 0.71162 0.51512 0.54616 0.0
H414 H 0.68388 0.42247 0.54983 0.0
C415 C 0.70958 0.48173 0.55376 0.0
C416 C 0.68503 0.44777 0.54343 0.0
H417 H 0.72625 0.4816 0.56811 0.0
H418 H 0.57523 0.2844 0.47407 0.0
H419 H 0.61249 0.34986 0.48499 0.0
H420 H 0.55925 0.32328 0.55253 0.0
H421 H 0.52175 0.25787 0.54147 0.0
H422 H 0.61771 0.38265 0.54719 0.0
H423 H 0.62947 0.40923 0.49654 0.0
H424 H 0.64833 0.47967 0.50253 0.0
H425 H 0.69085 0.53937 0.52099 0.0
C426 C 0.30674 0.51732 0.82586 0.0
C427 C 0.30754 0.49648 0.845 0.0
C428 C 0.28078 0.52959 0.825 0.0
C429 C 0.25502 0.52117 0.84324 0.0
C430 C 0.25418 0.49832 0.86158 0.0
C431 C 0.28033 0.48631 0.86256 0.0
C432 C 0.23019 0.53749 0.84441 0.0
C433 C 0.24101 0.57226 0.83652 0.0
C434 C 0.22038 0.59208 0.84225 0.0
C435 C 0.24075 0.63085 0.84579 0.0
C436 C 0.2229 0.64995 0.85366 0.0
C437 C 0.18417 0.63071 0.85772 0.0
H438 H 0.16474 0.54334 0.84205 0.0
C439 C 0.16343 0.59227 0.85287 0.0
C440 C 0.18137 0.57307 0.84527 0.0
H441 H 0.13348 0.57674 0.85567 0.0
H442 H 0.32662 0.52474 0.81172 0.0
H443 H 0.28131 0.54609 0.8102 0.0
H444 H 0.23441 0.49123 0.87577 0.0
H445 H 0.28022 0.47051 0.87762 0.0
H446 H 0.20479 0.52263 0.85477 0.0
H447 H 0.26827 0.58861 0.8283 0.0
H448 H 0.27079 0.64618 0.84337 0.0
H449 H 0.23958 0.67965 0.85702 0.0
C450 C 0.79005 0.29842 0.11877 0.0
C451 C 0.80623 0.33465 0.12798 0.0
C452 C 0.75131 0.27585 0.11773 0.0
C453 C 0.72782 0.28878 0.12631 0.0
C454 C 0.74399 0.32597 0.13375 0.0
C455 C 0.78275 0.34869 0.13459 0.0
C456 C 0.68695 0.26371 0.12976 0.0
C457 C 0.67139 0.22641 0.13279 0.0
C458 C 0.63324 0.2017 0.14235 0.0
C459 C 0.61806 0.16283 0.14061 0.0
C460 C 0.58575 0.13825 0.15294 0.0
C461 C 0.56794 0.15204 0.16738 0.0
H462 H 0.62509 0.24514 0.15801 0.0
C463 C 0.58172 0.19081 0.16806 0.0
C464 C 0.61413 0.21547 0.15575 0.0
H465 H 0.56861 0.20228 0.17906 0.0
H466 H 0.80718 0.28668 0.11339 0.0
H467 H 0.74012 0.24799 0.11082 0.0
H468 H 0.72662 0.33696 0.14005 0.0
H469 H 0.79429 0.37688 0.1411 0.0
H470 H 0.67018 0.27694 0.13241 0.0
H471 H 0.68816 0.21321 0.13011 0.0
H472 H 0.63217 0.15142 0.13048 0.0
H473 H 0.57571 0.10849 0.15192 0.0
C474 C 0.03161 0.56863 0.10228 0.0
C475 C 0.04353 0.54768 0.11519 0.0
C476 C 0.03735 0.57262 0.07834 0.0
C477 C 0.05539 0.5559 0.06687 0.0
C478 C 0.06674 0.53442 0.07977 0.0
C479 C 0.06045 0.52994 0.10371 0.0
C480 C 0.06567 0.56337 0.04197 0.0
C481 C 0.04526 0.56989 0.02655 0.0
C482 C 0.058 0.58229 1.0024 0.0
C483 C 0.03142 0.57288 0.98493 0.0
C484 C 0.04256 0.58655 0.96235 0.0
C485 C 0.08046 0.61049 0.95698 0.0
H486 H 0.11713 0.6147 0.01013 0.0
C487 C 0.10706 0.62014 0.97445 0.0
C488 C 0.096 0.60597 0.99693 0.0
H489 H 0.13642 0.63884 0.97076 0.0
H490 H 1.01854 0.58262 0.11077 0.0
H491 H 0.02908 0.59015 0.06906 0.0
H492 H 0.08097 0.52154 0.07135 0.0
H493 H 0.07001 0.51373 0.11333 0.0
H494 H 0.0909 0.56362 0.03623 0.0
H495 H 1.01817 0.56594 0.03171 0.0
H496 H 1.00194 0.55523 0.98882 0.0
H497 H 1.0214 0.57955 0.94934 0.0
C498 C 0.58922 0.07455 0.43329 0.0
C499 C 0.5563 0.05599 0.44659 0.0
C500 C 0.58815 0.08471 0.4103 0.0
C501 C 0.5539 0.07599 0.40008 0.0
C502 C 0.52115 0.05799 0.41366 0.0
C503 C 0.5223 0.04808 0.43666 0.0
C504 C 0.55065 0.08455 0.37541 0.0
C505 C 0.57728 0.09289 0.35912 0.0
C506 C 0.57109 0.09587 0.33406 0.0
C507 C 0.59126 0.08748 0.31786 0.0
C508 C 0.58341 0.08581 0.29428 0.0
C509 C 0.55532 0.09276 0.28636 0.0
H510 H 0.52975 0.11353 0.33784 0.0
C511 C 0.53686 0.10363 0.30241 0.0
C512 C 0.54475 0.10533 0.32601 0.0
H513 H 0.51548 0.10976 0.29685 0.0
H514 H 0.61589 0.0815 0.44072 0.0
H515 H 0.61427 0.09955 0.40085 0.0
H516 H 0.4944 0.05113 0.40638 0.0
H517 H 0.49651 0.03403 0.44661 0.0
H518 H 0.52381 0.08078 0.37021 0.0
H519 H 0.60311 0.09381 0.36371 0.0
H520 H 0.6121 0.08064 0.32353 0.0
H521 H 0.59846 0.07772 0.28238 0.0
C522 C 0.53328 0.51598 0.76046 0.0
C523 C 0.54824 0.53595 0.78092 0.0
C524 C 0.5542 0.52729 0.7398 0.0
C525 C 0.5903 0.55903 0.73934 0.0
C526 C 0.60447 0.57945 0.75975 0.0
C527 C 0.58355 0.56822 0.78024 0.0
C528 C 0.61515 0.57057 0.71857 0.0
C529 C 0.60296 0.56185 0.69667 0.0
C530 C 0.62847 0.57214 0.67618 0.0
C531 C 0.61463 0.55183 0.65567 0.0
C532 C 0.63792 0.55942 0.63632 0.0
C533 C 0.67551 0.58778 0.63699 0.0
H534 H 0.6777 0.61857 0.69166 0.0
C535 C 0.68933 0.60859 0.65729 0.0
C536 C 0.66602 0.6012 0.67661 0.0
H537 H 0.71817 0.63078 0.6582 0.0
H538 H 0.50602 0.49097 0.7606 0.0
H539 H 0.54251 0.51029 0.7246 0.0
H540 H 0.63201 0.6041 0.75991 0.0
H541 H 0.59505 0.58486 0.79558 0.0
H542 H 0.64486 0.58679 0.72182 0.0
H543 H 0.5732 0.54552 0.69349 0.0
H544 H 0.58591 0.52937 0.65477 0.0
H545 H 0.62676 0.54219 0.62112 0.0
C546 C 0.55426 0.06744 0.58581 0.0
C547 C 0.5201 0.05812 0.57543 0.0
C548 C 0.55689 0.0664 0.60998 0.0
C549 C 0.52524 0.05575 0.62426 0.0
C550 C 0.49129 0.04681 0.61373 0.0
C551 C 0.48869 0.04783 0.58964 0.0
C552 C 0.52621 0.05389 0.65008 0.0
C553 C 0.55243 0.05051 0.66191 0.0
C554 C 0.55098 0.04475 0.68752 0.0
C555 C 0.56849 0.026 0.6968 0.0
C556 C 0.56621 0.01801 0.72049 0.0
C557 C 0.54689 0.02918 0.73566 0.0
H558 H 0.51948 0.07239 0.69642 0.0
C559 C 0.5305 0.04923 0.7266 0.0
C560 C 0.53251 0.05698 0.70277 0.0
H561 H 0.51497 0.05776 0.73773 0.0
H562 H 0.57901 0.0758 0.57526 0.0
H563 H 0.58387 0.07451 0.61728 0.0
H564 H 0.46648 0.0387 0.62418 0.0
H565 H 0.46199 0.0406 0.58214 0.0
H566 H 0.50277 0.05256 0.65952 0.0
H567 H 0.57419 0.04862 0.65245 0.0
H568 H 0.58321 1.01654 0.68558 0.0
H569 H 0.57931 1.00265 0.72691 0.0
C570 C 0.54739 0.55716 0.92848 0.0
C571 C 0.53625 0.52805 0.91245 0.0
C572 C 0.53833 0.54936 0.95198 0.0
C573 C 0.51784 0.51212 0.96006 0.0
C574 C 0.50553 0.48303 0.94385 0.0
C575 C 0.51435 0.4909 0.92023 0.0
C576 C 0.51272 0.50282 0.98531 0.0
C577 C 0.51395 0.52656 1.00179 0.0
C578 C 0.51594 0.52038 0.0271 0.0
C579 C 0.50565 0.53934 0.04311 0.0
C580 C 0.5114 0.53772 0.06689 0.0
C581 C 0.52808 0.51747 0.07515 0.0
H582 H 0.54098 0.48507 0.0238 0.0
C583 C 0.5377 0.49792 0.05919 0.0
C584 C 0.53164 0.49923 0.0355 0.0
H585 H 0.55081 0.48223 0.06499 0.0
H586 H 0.56435 0.58609 0.92297 0.0
H587 H 0.5492 0.57263 0.96383 0.0
H588 H 0.48993 0.45408 0.94955 0.0
H589 H 0.50546 0.46789 0.90826 0.0
H590 H 0.50872 0.47566 0.99044 0.0
H591 H 0.51429 0.55211 0.99666 0.0
H592 H 0.49402 0.5563 0.03714 0.0
H593 H 0.50452 0.55384 0.07861 0.0
C594 C 1.0073 0.50975 0.25363 0.0
C595 C 1.01469 0.4837 0.24273 0.0
C596 C 1.00852 0.513 0.27779 0.0
C597 C 1.01759 0.49045 0.29164 0.0
C598 C 1.02452 0.46411 0.28063 0.0
C599 C 1.02319 0.46082 0.25647 0.0
C600 C 1.01984 0.49321 0.31748 0.0
C601 C 1.02469 0.52347 0.32934 0.0
C602 C 0.03026 0.52785 0.3549 0.0
C603 C 0.04916 0.56422 0.36387 0.0
C604 C 0.05686 0.57011 0.38748 0.0
C605 C 0.04525 0.53975 0.40292 0.0
H606 H 1.00202 0.46878 0.36433 0.0
C607 C 0.02498 0.50322 0.3942 0.0
C608 C 1.01754 0.49728 0.37042 0.0
H609 H 1.01612 0.47922 0.40554 0.0
H610 H 1.00034 0.52756 0.24349 0.0
H611 H 1.00181 0.53286 0.2854 0.0
H612 H 0.03133 0.44616 0.29075 0.0
H613 H 0.02889 0.44039 0.24855 0.0
H614 H 1.01992 0.47035 0.32684 0.0
H615 H 0.02773 0.54763 0.31985 0.0
H616 H 0.05898 0.58833 0.35246 0.0
H617 H 0.07246 0.59863 0.39362 0.0
loop_
_geom_bond_atom_site_label_1
_geom_bond_atom_site_label_2
_geom_bond_distance
_geom_bond_site_symmetry_2
_ccdc_geom_bond_type
C0 Eu1 2.835 . S
C0 C2 1.500 . S
C0 O20 1.257 . S
C0 O21 1.260 . S
Eu1 C0 2.835 . S
Eu1 O20 2.473 . S
Eu1 O21 2.480 . S
Eu1 O22 2.430 . S
Eu1 O23 2.670 1_655 S
Eu1 O24 2.394 . S
Eu1 O29 2.355 1_655 S
Eu1 O31 2.374 1_655 S
C2 C0 1.500 . S
C2 C3 1.377 . S
C2 C7 1.377 . S
C3 C2 1.377 . S
C3 C4 1.395 . S
C3 H32 0.931 . S
C4 C3 1.395 . S
C4 C5 1.383 . S
C4 H33 0.931 . S
C5 C4 1.383 . S
C5 C6 1.394 . S
C6 C5 1.394 . S
C6 C7 1.378 . S
C6 H34 0.931 . S
C7 C2 1.377 . S
C7 C6 1.378 . S
C7 H35 0.931 . S
C8 O22 1.259 1_455 S
C8 O23 1.270 . S
C9 O24 1.251 . S
C9 O25 1.251 . S
C10 Eu11 2.835 . S
C10 C12 1.500 . S
C10 O26 1.257 . S
C10 O27 1.260 . S
Eu11 C10 2.835 . S
Eu11 O23 2.355 . S
Eu11 O25 2.374 1_455 S
Eu11 O26 2.473 . S
Eu11 O27 2.480 . S
Eu11 O28 2.430 . S
Eu11 O29 2.670 . S
Eu11 O30 2.394 . S
C12 C10 1.500 . S
C12 C13 1.377 . S
C12 C17 1.377 . S
C13 C12 1.377 . S
C13 C14 1.395 . S
C13 H36 0.931 . S
C14 C13 1.395 . S
C14 C15 1.383 . S
C14 H37 0.931 . S
C15 C14 1.383 . S
C15 C16 1.394 . S
C16 C15 1.394 . S
C16 C17 1.378 . S
C16 H38 0.931 . S
C17 C12 1.377 . S
C17 C16 1.378 . S
C17 H39 0.931 . S
C18 O28 1.259 . S
C18 O29 1.270 . S
C19 O30 1.251 . S
C19 O31 1.251 . S
O20 C0 1.257 . S
O20 Eu1 2.473 . S
O21 C0 1.260 . S
O21 Eu1 2.480 . S
O22 Eu1 2.430 . S
O22 C8 1.259 1_655 S
O23 Eu1 2.670 1_455 S
O23 C8 1.270 . S
O23 Eu11 2.355 . S
O24 Eu1 2.394 . S
O24 C9 1.251 . S
O25 C9 1.251 . S
O25 Eu11 2.374 1_655 S
O26 C10 1.257 . S
O26 Eu11 2.473 . S
O27 C10 1.260 . S
O27 Eu11 2.480 . S
O28 Eu11 2.430 . S
O28 C18 1.259 . S
O29 Eu1 2.355 1_455 S
O29 Eu11 2.670 . S
O29 C18 1.270 . S
O30 Eu11 2.394 . S
O30 C19 1.251 . S
O31 Eu1 2.374 1_455 S
O31 C19 1.251 . S
H32 C3 0.931 . S
H33 C4 0.931 . S
H34 C6 0.931 . S
H35 C7 0.931 . S
H36 C13 0.931 . S
H37 C14 0.931 . S
H38 C16 0.931 . S
H39 C17 0.931 . S
C40 Eu41 2.835 . S
C40 C42 1.500 . S
C40 O60 1.257 . S
C40 O61 1.260 . S
Eu41 C40 2.835 . S
Eu41 O60 2.473 . S
Eu41 O61 2.480 . S
Eu41 O62 2.430 . S
Eu41 O63 2.670 . S
Eu41 O64 2.394 . S
Eu41 O69 2.355 . S
Eu41 O71 2.374 1_545 S
C42 C40 1.500 . S
C42 C43 1.377 . S
C42 C47 1.377 . S
C43 C42 1.377 . S
C43 C44 1.395 . S
C43 H72 0.931 . S
C44 C43 1.395 . S
C44 C45 1.383 . S
C44 H73 0.931 . S
C45 C44 1.383 . S
C45 C46 1.394 . S
C46 C45 1.394 . S
C46 C47 1.378 . S
C46 H74 0.931 . S
C47 C42 1.377 . S
C47 C46 1.378 . S
C47 H75 0.931 . S
C48 O62 1.259 . S
C48 O63 1.270 . S
C49 O64 1.251 . S
C49 O65 1.251 . S
C50 Eu51 2.844 . S
C50 C52 1.500 . S
C50 O66 1.257 . S
C50 O67 1.260 . S
Eu51 C50 2.844 . S
Eu51 O63 2.351 1_565 S
Eu51 O65 2.367 1_565 S
Eu51 O66 2.480 . S
Eu51 O67 2.488 . S
Eu51 O68 2.428 1_565 S
Eu51 O69 2.663 1_565 S
Eu51 O70 2.395 . S
C52 C50 1.500 . S
C52 C53 1.377 . S
C52 C57 1.377 . S
C53 C52 1.377 . S
C53 C54 1.395 . S
C53 H76 0.931 . S
C54 C53 1.395 . S
C54 C55 1.383 . S
C54 H77 0.931 . S
C55 C54 1.383 . S
C55 C56 1.394 . S
C56 C55 1.394 . S
C56 C57 1.378 . S
C56 H78 0.931 . S
C57 C52 1.377 . S
C57 C56 1.378 . S
C57 H79 0.931 . S
C58 O68 1.259 . S
C58 O69 1.270 . S
C59 O70 1.251 . S
C59 O71 1.251 . S
O60 C40 1.257 . S
O60 Eu41 2.473 . S
O61 C40 1.260 . S
O61 Eu41 2.480 . S
O62 Eu41 2.430 . S
O62 C48 1.259 . S
O63 Eu41 2.670 . S
O63 C48 1.270 . S
O63 Eu51 2.351 1_545 S
O64 Eu41 2.394 . S
O64 C49 1.251 . S
O65 C49 1.251 . S
O65 Eu51 2.367 1_545 S
O66 C50 1.257 . S
O66 Eu51 2.480 . S
O67 C50 1.260 . S
O67 Eu51 2.488 . S
O68 Eu51 2.428 1_545 S
O68 C58 1.259 . S
O69 Eu41 2.355 . S
O69 Eu51 2.663 1_545 S
O69 C58 1.270 . S
O70 Eu51 2.395 . S
O70 C59 1.251 . S
O71 Eu41 2.374 1_565 S
O71 C59 1.251 . S
H72 C43 0.931 . S
H73 C44 0.931 . S
H74 C46 0.931 . S
H75 C47 0.931 . S
H76 C53 0.931 . S
H77 C54 0.931 . S
H78 C56 0.931 . S
H79 C57 0.931 . S
C80 Eu81 2.835 . S
C80 C82 1.500 . S
C80 O100 1.257 . S
C80 O101 1.260 . S
Eu81 C80 2.835 . S
Eu81 O100 2.473 . S
Eu81 O101 2.480 . S
Eu81 O102 2.430 . S
Eu81 O103 2.670 . S
Eu81 O104 2.394 . S
Eu81 O109 2.355 . S
Eu81 O111 2.374 . S
C82 C80 1.500 . S
C82 C83 1.377 . S
C82 C87 1.377 . S
C83 C82 1.377 . S
C83 C84 1.395 . S
C83 H112 0.931 . S
C84 C83 1.395 . S
C84 C85 1.383 . S
C84 H113 0.931 . S
C85 C84 1.383 . S
C85 C86 1.394 . S
C86 C85 1.394 . S
C86 C87 1.378 . S
C86 H114 0.931 . S
C87 C82 1.377 . S
C87 C86 1.378 . S
C87 H115 0.931 . S
C88 O102 1.259 . S
C88 O103 1.270 . S
C89 O104 1.251 . S
C89 O105 1.251 . S
C90 Eu91 2.835 . S
C90 C92 1.500 . S
C90 O106 1.257 . S
C90 O107 1.260 . S
Eu91 C90 2.835 . S
Eu91 O103 2.355 . S
Eu91 O105 2.374 . S
Eu91 O106 2.473 . S
Eu91 O107 2.480 . S
Eu91 O108 2.430 . S
Eu91 O109 2.670 . S
Eu91 O110 2.394 . S
C92 C90 1.500 . S
C92 C93 1.377 . S
C92 C97 1.377 . S
C93 C92 1.377 . S
C93 C94 1.395 . S
C93 H116 0.931 . S
C94 C93 1.395 . S
C94 C95 1.383 . S
C94 H117 0.931 . S
C95 C94 1.383 . S
C95 C96 1.394 . S
C96 C95 1.394 . S
C96 C97 1.378 . S
C96 H118 0.931 . S
C97 C92 1.377 . S
C97 C96 1.378 . S
C97 H119 0.931 . S
C98 O108 1.259 . S
C98 O109 1.270 . S
C99 O110 1.251 . S
C99 O111 1.251 . S
O100 C80 1.257 . S
O100 Eu81 2.473 . S
O101 C80 1.260 . S
O101 Eu81 2.480 . S
O102 Eu81 2.430 . S
O102 C88 1.259 . S
O103 Eu81 2.670 . S
O103 C88 1.270 . S
O103 Eu91 2.355 . S
O104 Eu81 2.394 . S
O104 C89 1.251 . S
O105 C89 1.251 . S
O105 Eu91 2.374 . S
O106 C90 1.257 . S
O106 Eu91 2.473 . S
O107 C90 1.260 . S
O107 Eu91 2.480 . S
O108 Eu91 2.430 . S
O108 C98 1.259 . S
O109 Eu81 2.355 . S
O109 Eu91 2.670 . S
O109 C98 1.270 . S
O110 Eu91 2.394 . S
O110 C99 1.251 . S
O111 Eu81 2.374 . S
O111 C99 1.251 . S
H112 C83 0.931 . S
H113 C84 0.931 . S
H114 C86 0.931 . S
H115 C87 0.931 . S
H116 C93 0.931 . S
H117 C94 0.931 . S
H118 C96 0.931 . S
H119 C97 0.931 . S
O120 Cd121 2.300 . S
O120 C127 1.275 . S
Cd121 O120 2.300 . S
Cd121 O129 2.381 . S
Cd121 O130 2.378 . S
O122 Cd123 2.385 1_545 S
O122 C127 1.255 . S
Cd123 O122 2.385 1_565 S
Cd123 O124 2.317 . S
O124 Cd123 2.317 . S
O124 C125 1.232 . S
C125 O124 1.232 . S
C125 O126 1.218 . S
O126 C125 1.218 . S
C127 O120 1.275 . S
C127 O122 1.255 . S
C128 O129 1.258 . S
C128 O130 1.256 . S
O129 Cd121 2.381 . S
O129 C128 1.258 . S
O130 Cd121 2.378 . S
O130 C128 1.256 . S
O131 Cd132 2.300 . S
O131 C138 1.275 . S
Cd132 O131 2.300 . S
Cd132 O140 2.381 . S
Cd132 O141 2.378 . S
O133 Cd134 2.385 . S
O133 C138 1.255 . S
Cd134 O133 2.385 . S
Cd134 O135 2.317 . S
O135 Cd134 2.317 . S
O135 C136 1.232 . S
C136 O135 1.232 . S
C136 O137 1.218 . S
O137 C136 1.218 . S
C138 O131 1.275 . S
C138 O133 1.255 . S
C139 O140 1.258 . S
C139 O141 1.256 . S
O140 Cd132 2.381 . S
O140 C139 1.258 . S
O141 Cd132 2.378 . S
O141 C139 1.256 . S
O142 Cd143 2.300 . S
O142 C149 1.295 . S
Cd143 O142 2.300 . S
Cd143 O151 2.381 . S
Cd143 O152 2.378 . S
O144 Cd145 2.385 . S
O144 C149 1.246 1_655 S
Cd145 O144 2.385 . S
Cd145 O146 2.317 . S
O146 Cd145 2.317 . S
O146 C147 1.232 . S
C147 O146 1.232 . S
C147 O148 1.218 . S
O148 C147 1.218 . S
C149 O142 1.295 . S
C149 O144 1.246 1_455 S
C150 O151 1.258 . S
C150 O152 1.256 . S
O151 Cd143 2.381 . S
O151 C150 1.258 . S
O152 Cd143 2.378 . S
O152 C150 1.256 . S
O153 Cd154 2.300 . S
O153 C160 1.275 . S
Cd154 O153 2.300 . S
Cd154 O162 2.381 . S
Cd154 O163 2.378 . S
O155 Cd156 2.385 1_455 S
O155 C160 1.255 . S
Cd156 O155 2.385 1_655 S
Cd156 O157 2.317 . S
O157 Cd156 2.317 . S
O157 C158 1.232 . S
C158 O157 1.232 . S
C158 O159 1.218 . S
O159 C158 1.218 . S
C160 O153 1.275 . S
C160 O155 1.255 . S
C161 O162 1.258 . S
C161 O163 1.256 . S
O162 Cd154 2.381 . S
O162 C161 1.258 . S
O163 Cd154 2.378 . S
O163 C161 1.256 . S
O164 Cd165 2.300 . S
O164 C171 1.275 1_565 S
Cd165 O164 2.300 . S
Cd165 O173 2.381 . S
Cd165 O174 2.378 . S
O166 Cd167 2.385 . S
O166 C171 1.255 . S
Cd167 O166 2.385 . S
Cd167 O168 2.317 . S
O168 Cd167 2.317 . S
O168 C169 1.232 . S
C169 O168 1.232 . S
C169 O170 1.218 . S
O170 C169 1.218 . S
C171 O164 1.275 1_545 S
C171 O166 1.255 . S
C172 O173 1.258 . S
C172 O174 1.256 . S
O173 Cd165 2.381 . S
O173 C172 1.258 . S
O174 Cd165 2.378 . S
O174 C172 1.256 . S
O175 Cd176 2.300 . S
O175 C182 1.275 . S
Cd176 O175 2.300 . S
Cd176 O184 2.381 . S
Cd176 O185 2.378 . S
O177 Cd178 2.385 . S
O177 C182 1.255 . S
Cd178 O177 2.385 . S
Cd178 O179 2.317 . S
O179 Cd178 2.317 . S
O179 C180 1.232 . S
C180 O179 1.232 . S
C180 O181 1.218 . S
O181 C180 1.218 . S
C182 O175 1.275 . S
C182 O177 1.255 . S
C183 O184 1.258 . S
C183 O185 1.256 . S
O184 Cd176 2.381 . S
O184 C183 1.258 . S
O185 Cd176 2.378 . S
O185 C183 1.256 . S
C186 C187 1.386 . S
C186 C188 1.383 . S
C186 H202 0.951 . S
C187 C186 1.386 . S
C187 C191 1.383 . S
C188 C186 1.383 . S
C188 C189 1.402 . S
C188 H203 0.951 . S
C189 C188 1.402 . S
C189 C190 1.375 . S
C189 C192 1.481 . S
C190 C189 1.375 . S
C190 C191 1.367 . S
C190 H204 0.951 . S
C191 C187 1.383 . S
C191 C190 1.367 . S
C191 H205 0.950 . S
C192 C189 1.481 . S
C192 C193 1.297 . S
C192 H206 0.950 . S
C193 C192 1.297 . S
C193 C194 1.479 . S
C193 H207 0.950 . S
C194 C193 1.479 . S
C194 C195 1.375 . S
C194 C200 1.404 . S
C195 C194 1.375 . S
C195 C196 1.369 . S
C195 H208 0.950 . S
C196 C195 1.369 . S
C196 C197 1.392 . S
C196 H209 0.951 . S
C197 C196 1.392 . S
C197 C199 1.384 . S
H198 C200 0.949 . S
C199 C197 1.384 . S
C199 C200 1.385 . S
C199 H201 0.950 . S
C200 C194 1.404 . S
C200 H198 0.949 . S
C200 C199 1.385 . S
H201 C199 0.950 . S
H202 C186 0.951 . S
H203 C188 0.951 . S
H204 C190 0.951 . S
H205 C191 0.950 . S
H206 C192 0.950 . S
H207 C193 0.950 . S
H208 C195 0.950 . S
H209 C196 0.951 . S
C210 C211 1.386 . S
C210 C212 1.383 . S
C210 H226 0.951 . S
C211 C210 1.386 . S
C211 C215 1.383 . S
C212 C210 1.383 . S
C212 C213 1.402 . S
C212 H227 0.951 . S
C213 C212 1.402 . S
C213 C214 1.375 . S
C213 C216 1.481 . S
C214 C213 1.375 . S
C214 C215 1.367 . S
C214 H228 0.951 . S
C215 C211 1.383 . S
C215 C214 1.367 . S
C215 H229 0.950 . S
C216 C213 1.481 . S
C216 C217 1.297 . S
C216 H230 0.950 . S
C217 C216 1.297 . S
C217 C218 1.479 . S
C217 H231 0.950 . S
C218 C217 1.479 . S
C218 C219 1.375 . S
C218 C224 1.404 . S
C219 C218 1.375 . S
C219 C220 1.369 . S
C219 H232 0.950 . S
C220 C219 1.369 . S
C220 C221 1.392 . S
C220 H233 0.951 . S
C221 C220 1.392 . S
C221 C223 1.384 . S
H222 C224 0.949 . S
C223 C221 1.384 . S
C223 C224 1.385 . S
C223 H225 0.950 . S
C224 C218 1.404 . S
C224 H222 0.949 . S
C224 C223 1.385 . S
H225 C223 0.950 . S
H226 C210 0.951 . S
H227 C212 0.951 . S
H228 C214 0.951 . S
H229 C215 0.950 . S
H230 C216 0.950 . S
H231 C217 0.950 . S
H232 C219 0.950 . S
H233 C220 0.951 . S
C234 C235 1.386 . S
C234 C236 1.383 . S
C234 H250 0.951 . S
C235 C234 1.386 . S
C235 C239 1.383 . S
C236 C234 1.383 . S
C236 C237 1.402 . S
C236 H251 0.951 . S
C237 C236 1.402 . S
C237 C238 1.375 . S
C237 C240 1.481 . S
C238 C237 1.375 . S
C238 C239 1.367 . S
C238 H252 0.951 . S
C239 C235 1.383 . S
C239 C238 1.367 . S
C239 H253 0.950 . S
C240 C237 1.481 . S
C240 C241 1.297 . S
C240 H254 0.950 . S
C241 C240 1.297 . S
C241 C242 1.479 . S
C241 H255 0.950 . S
C242 C241 1.479 . S
C242 C243 1.375 . S
C242 C248 1.404 . S
C243 C242 1.375 . S
C243 C244 1.369 . S
C243 H256 0.950 . S
C244 C243 1.369 . S
C244 C245 1.392 . S
C244 H257 0.951 . S
C245 C244 1.392 . S
C245 C247 1.384 . S
H246 C248 0.949 . S
C247 C245 1.384 . S
C247 C248 1.385 . S
C247 H249 0.950 . S
C248 C242 1.404 . S
C248 H246 0.949 . S
C248 C247 1.385 . S
H249 C247 0.950 . S
H250 C234 0.951 . S
H251 C236 0.951 . S
H252 C238 0.951 . S
H253 C239 0.950 . S
H254 C240 0.950 . S
H255 C241 0.950 . S
H256 C243 0.950 . S
H257 C244 0.951 . S
C258 C259 1.386 . S
C258 C260 1.383 . S
C258 H274 0.951 . S
C259 C258 1.386 . S
C259 C263 1.383 . S
C260 C258 1.383 . S
C260 C261 1.402 . S
C260 H275 0.951 . S
C261 C260 1.402 . S
C261 C262 1.375 . S
C261 C264 1.481 . S
C262 C261 1.375 . S
C262 C263 1.367 . S
C262 H276 0.951 . S
C263 C259 1.383 . S
C263 C262 1.367 . S
C263 H277 0.950 . S
C264 C261 1.481 . S
C264 C265 1.297 . S
C264 H278 0.950 . S
C265 C264 1.297 . S
C265 C266 1.479 . S
C265 H279 0.950 . S
C266 C265 1.479 . S
C266 C267 1.375 . S
C266 C272 1.404 . S
C267 C266 1.375 . S
C267 C268 1.369 . S
C267 H280 0.950 . S
C268 C267 1.369 . S
C268 C269 1.392 . S
C268 H281 0.951 . S
C269 C268 1.392 . S
C269 C271 1.384 . S
H270 C272 0.949 . S
C271 C269 1.384 . S
C271 C272 1.385 . S
C271 H273 0.950 . S
C272 C266 1.404 . S
C272 H270 0.949 . S
C272 C271 1.385 . S
H273 C271 0.950 . S
H274 C258 0.951 . S
H275 C260 0.951 . S
H276 C262 0.951 . S
H277 C263 0.950 . S
H278 C264 0.950 . S
H279 C265 0.950 . S
H280 C267 0.950 . S
H281 C268 0.951 . S
C282 C283 1.386 . S
C282 C284 1.383 . S
C282 H298 0.951 . S
C283 C282 1.386 . S
C283 C287 1.383 . S
C284 C282 1.383 . S
C284 C285 1.402 . S
C284 H299 0.951 . S
C285 C284 1.402 . S
C285 C286 1.375 . S
C285 C288 1.481 . S
C286 C285 1.375 . S
C286 C287 1.367 . S
C286 H300 0.951 . S
C287 C283 1.383 . S
C287 C286 1.367 . S
C287 H301 0.950 . S
C288 C285 1.481 . S
C288 C289 1.297 . S
C288 H302 0.950 . S
C289 C288 1.297 . S
C289 C290 1.479 . S
C289 H303 0.950 . S
C290 C289 1.479 . S
C290 C291 1.375 . S
C290 C296 1.404 . S
C291 C290 1.375 . S
C291 C292 1.369 . S
C291 H304 0.950 . S
C292 C291 1.369 . S
C292 C293 1.392 . S
C292 H305 0.951 . S
C293 C292 1.392 . S
C293 C295 1.384 . S
H294 C296 0.949 . S
C295 C293 1.384 . S
C295 C296 1.385 . S
C295 H297 0.950 . S
C296 C290 1.404 . S
C296 H294 0.949 . S
C296 C295 1.385 . S
H297 C295 0.950 . S
H298 C282 0.951 . S
H299 C284 0.951 . S
H300 C286 0.951 . S
H301 C287 0.950 . S
H302 C288 0.950 . S
H303 C289 0.950 . S
H304 C291 0.950 . S
H305 C292 0.951 . S
C306 C307 1.386 . S
C306 C308 1.383 . S
C306 H322 0.951 . S
C307 C306 1.386 . S
C307 C311 1.383 . S
C308 C306 1.383 . S
C308 C309 1.402 . S
C308 H323 0.951 . S
C309 C308 1.402 . S
C309 C310 1.375 . S
C309 C312 1.481 . S
C310 C309 1.375 . S
C310 C311 1.367 . S
C310 H324 0.951 . S
C311 C307 1.383 . S
C311 C310 1.367 . S
C311 H325 0.950 . S
C312 C309 1.481 . S
C312 C313 1.297 . S
C312 H326 0.950 . S
C313 C312 1.297 . S
C313 C314 1.479 . S
C313 H327 0.950 . S
C314 C313 1.479 . S
C314 C315 1.375 . S
C314 C320 1.404 . S
C315 C314 1.375 . S
C315 C316 1.369 . S
C315 H328 0.950 . S
C316 C315 1.369 . S
C316 C317 1.392 . S
C316 H329 0.951 . S
C317 C316 1.392 . S
C317 C319 1.384 . S
H318 C320 0.949 . S
C319 C317 1.384 . S
C319 C320 1.385 . S
C319 H321 0.950 . S
C320 C314 1.404 . S
C320 H318 0.949 . S
C320 C319 1.385 . S
H321 C319 0.950 . S
H322 C306 0.951 . S
H323 C308 0.951 . S
H324 C310 0.951 . S
H325 C311 0.950 . S
H326 C312 0.950 . S
H327 C313 0.950 . S
H328 C315 0.950 . S
H329 C316 0.951 . S
C330 C331 1.386 . S
C330 C332 1.383 . S
C330 H346 0.951 . S
C331 C330 1.386 . S
C331 C335 1.383 . S
C332 C330 1.383 . S
C332 C333 1.402 . S
C332 H347 0.951 . S
C333 C332 1.402 . S
C333 C334 1.375 . S
C333 C336 1.481 . S
C334 C333 1.375 . S
C334 C335 1.367 . S
C334 H348 0.951 . S
C335 C331 1.383 . S
C335 C334 1.367 . S
C335 H349 0.950 . S
C336 C333 1.481 . S
C336 C337 1.297 . S
C336 H350 0.950 . S
C337 C336 1.297 . S
C337 C338 1.479 . S
C337 H351 0.950 . S
C338 C337 1.479 . S
C338 C339 1.375 . S
C338 C344 1.404 . S
C339 C338 1.375 . S
C339 C340 1.369 . S
C339 H352 0.950 . S
C340 C339 1.369 . S
C340 C341 1.392 . S
C340 H353 0.951 . S
C341 C340 1.392 . S
C341 C343 1.384 . S
H342 C344 0.949 . S
C343 C341 1.384 . S
C343 C344 1.385 . S
C343 H345 0.950 . S
C344 C338 1.404 . S
C344 H342 0.949 . S
C344 C343 1.385 . S
H345 C343 0.950 . S
H346 C330 0.951 . S
H347 C332 0.951 . S
H348 C334 0.951 . S
H349 C335 0.950 . S
H350 C336 0.950 . S
H351 C337 0.950 . S
H352 C339 0.950 . S
H353 C340 0.951 . S
C354 C355 1.386 . S
C354 C356 1.383 . S
C354 H370 0.951 . S
C355 C354 1.386 . S
C355 C359 1.383 . S
C356 C354 1.383 . S
C356 C357 1.402 . S
C356 H371 0.951 . S
C357 C356 1.402 . S
C357 C358 1.375 . S
C357 C360 1.481 . S
C358 C357 1.375 . S
C358 C359 1.367 . S
C358 H372 0.951 . S
C359 C355 1.383 . S
C359 C358 1.367 . S
C359 H373 0.950 . S
C360 C357 1.481 . S
C360 C361 1.297 . S
C360 H374 0.950 . S
C361 C360 1.297 . S
C361 C362 1.479 . S
C361 H375 0.950 . S
C362 C361 1.479 . S
C362 C363 1.375 . S
C362 C368 1.404 . S
C363 C362 1.375 . S
C363 C364 1.369 . S
C363 H376 0.950 . S
C364 C363 1.369 . S
C364 C365 1.392 . S
C364 H377 0.951 . S
C365 C364 1.392 . S
C365 C367 1.384 . S
H366 C368 0.949 . S
C367 C365 1.384 . S
C367 C368 1.385 . S
C367 H369 0.950 . S
C368 C362 1.404 . S
C368 H366 0.949 . S
C368 C367 1.385 . S
H369 C367 0.950 . S
H370 C354 0.951 . S
H371 C356 0.951 . S
H372 C358 0.951 . S
H373 C359 0.950 . S
H374 C360 0.950 . S
H375 C361 0.950 . S
H376 C363 0.950 . S
H377 C364 0.951 . S
C378 C379 1.386 . S
C378 C380 1.383 . S
C378 H394 0.951 . S
C379 C378 1.386 . S
C379 C383 1.383 . S
C380 C378 1.383 . S
C380 C381 1.402 . S
C380 H395 0.951 . S
C381 C380 1.402 . S
C381 C382 1.375 . S
C381 C384 1.481 . S
C382 C381 1.375 . S
C382 C383 1.367 . S
C382 H396 0.951 . S
C383 C379 1.383 . S
C383 C382 1.367 . S
C383 H397 0.950 . S
C384 C381 1.481 . S
C384 C385 1.297 . S
C384 H398 0.950 . S
C385 C384 1.297 . S
C385 C386 1.479 . S
C385 H399 0.950 . S
C386 C385 1.479 . S
C386 C387 1.375 . S
C386 C392 1.404 . S
C387 C386 1.375 . S
C387 C388 1.369 . S
C387 H400 0.950 . S
C388 C387 1.369 . S
C388 C389 1.392 . S
C388 H401 0.951 . S
C389 C388 1.392 . S
C389 C391 1.384 . S
H390 C392 0.949 . S
C391 C389 1.384 . S
C391 C392 1.385 . S
C391 H393 0.950 . S
C392 C386 1.404 . S
C392 H390 0.949 . S
C392 C391 1.385 . S
H393 C391 0.950 . S
H394 C378 0.951 . S
H395 C380 0.951 . S
H396 C382 0.951 . S
H397 C383 0.950 . S
H398 C384 0.950 . S
H399 C385 0.950 . S
H400 C387 0.950 . S
H401 C388 0.951 . S
C402 C403 1.386 . S
C402 C404 1.383 . S
C402 H418 0.951 . S
C403 C402 1.386 . S
C403 C407 1.383 . S
C404 C402 1.383 . S
C404 C405 1.402 . S
C404 H419 0.951 . S
C405 C404 1.402 . S
C405 C406 1.375 . S
C405 C408 1.481 . S
C406 C405 1.375 . S
C406 C407 1.367 . S
C406 H420 0.951 . S
C407 C403 1.383 . S
C407 C406 1.367 . S
C407 H421 0.950 . S
C408 C405 1.481 . S
C408 C409 1.297 . S
C408 H422 0.950 . S
C409 C408 1.297 . S
C409 C410 1.479 . S
C409 H423 0.950 . S
C410 C409 1.479 . S
C410 C411 1.375 . S
C410 C416 1.404 . S
C411 C410 1.375 . S
C411 C412 1.369 . S
C411 H424 0.950 . S
C412 C411 1.369 . S
C412 C413 1.392 . S
C412 H425 0.951 . S
C413 C412 1.392 . S
C413 C415 1.384 . S
H414 C416 0.949 . S
C415 C413 1.384 . S
C415 C416 1.385 . S
C415 H417 0.950 . S
C416 C410 1.404 . S
C416 H414 0.949 . S
C416 C415 1.385 . S
H417 C415 0.950 . S
H418 C402 0.951 . S
H419 C404 0.951 . S
H420 C406 0.951 . S
H421 C407 0.950 . S
H422 C408 0.950 . S
H423 C409 0.950 . S
H424 C411 0.950 . S
H425 C412 0.951 . S
C426 C427 1.386 . S
C426 C428 1.383 . S
C426 H442 0.951 . S
C427 C426 1.386 . S
C427 C431 1.383 . S
C428 C426 1.383 . S
C428 C429 1.402 . S
C428 H443 0.951 . S
C429 C428 1.402 . S
C429 C430 1.375 . S
C429 C432 1.481 . S
C430 C429 1.375 . S
C430 C431 1.367 . S
C430 H444 0.951 . S
C431 C427 1.383 . S
C431 C430 1.367 . S
C431 H445 0.950 . S
C432 C429 1.481 . S
C432 C433 1.297 . S
C432 H446 0.950 . S
C433 C432 1.297 . S
C433 C434 1.479 . S
C433 H447 0.950 . S
C434 C433 1.479 . S
C434 C435 1.375 . S
C434 C440 1.404 . S
C435 C434 1.375 . S
C435 C436 1.369 . S
C435 H448 0.950 . S
C436 C435 1.369 . S
C436 C437 1.392 . S
C436 H449 0.951 . S
C437 C436 1.392 . S
C437 C439 1.384 . S
H438 C440 0.949 . S
C439 C437 1.384 . S
C439 C440 1.385 . S
C439 H441 0.950 . S
C440 C434 1.404 . S
C440 H438 0.949 . S
C440 C439 1.385 . S
H441 C439 0.950 . S
H442 C426 0.951 . S
H443 C428 0.951 . S
H444 C430 0.951 . S
H445 C431 0.950 . S
H446 C432 0.950 . S
H447 C433 0.950 . S
H448 C435 0.950 . S
H449 C436 0.951 . S
C450 C451 1.386 . S
C450 C452 1.383 . S
C450 H466 0.951 . S
C451 C450 1.386 . S
C451 C455 1.383 . S
C452 C450 1.383 . S
C452 C453 1.402 . S
C452 H467 0.951 . S
C453 C452 1.402 . S
C453 C454 1.375 . S
C453 C456 1.481 . S
C454 C453 1.375 . S
C454 C455 1.367 . S
C454 H468 0.951 . S
C455 C451 1.383 . S
C455 C454 1.367 . S
C455 H469 0.950 . S
C456 C453 1.481 . S
C456 C457 1.297 . S
C456 H470 0.950 . S
C457 C456 1.297 . S
C457 C458 1.479 . S
C457 H471 0.950 . S
C458 C457 1.479 . S
C458 C459 1.375 . S
C458 C464 1.404 . S
C459 C458 1.375 . S
C459 C460 1.369 . S
C459 H472 0.950 . S
C460 C459 1.369 . S
C460 C461 1.392 . S
C460 H473 0.951 . S
C461 C460 1.392 . S
C461 C463 1.384 . S
H462 C464 0.949 . S
C463 C461 1.384 . S
C463 C464 1.385 . S
C463 H465 0.950 . S
C464 C458 1.404 . S
C464 H462 0.949 . S
C464 C463 1.385 . S
H465 C463 0.950 . S
H466 C450 0.951 . S
H467 C452 0.951 . S
H468 C454 0.951 . S
H469 C455 0.950 . S
H470 C456 0.950 . S
H471 C457 0.950 . S
H472 C459 0.950 . S
H473 C460 0.951 . S
C474 C475 1.386 1_655 S
C474 C476 1.383 . S
C474 H490 0.951 . S
C475 C474 1.386 1_455 S
C475 C479 1.383 . S
C476 C474 1.383 . S
C476 C477 1.402 1_655 S
C476 H491 0.951 . S
C477 C476 1.402 1_455 S
C477 C478 1.375 . S
C477 C480 1.481 . S
C478 C477 1.375 . S
C478 C479 1.367 . S
C478 H492 0.951 . S
C479 C475 1.383 . S
C479 C478 1.367 . S
C479 H493 0.950 . S
C480 C477 1.481 . S
C480 C481 1.297 1_455 S
C480 H494 0.950 . S
C481 C480 1.297 1_655 S
C481 C482 1.479 1_554 S
C481 H495 0.950 . S
C482 C481 1.479 1_556 S
C482 C483 1.375 . S
C482 C488 1.404 1_655 S
C483 C482 1.375 . S
C483 C484 1.369 . S
C483 H496 0.950 . S
C484 C483 1.369 . S
C484 C485 1.392 . S
C484 H497 0.951 . S
C485 C484 1.392 . S
C485 C487 1.384 1_655 S
H486 C488 0.949 . S
C487 C485 1.384 1_455 S
C487 C488 1.385 . S
C487 H489 0.950 . S
C488 C482 1.404 1_455 S
C488 H486 0.949 . S
C488 C487 1.385 . S
H489 C487 0.950 . S
H490 C474 0.951 . S
H491 C476 0.951 . S
H492 C478 0.951 . S
H493 C479 0.950 . S
H494 C480 0.950 . S
H495 C481 0.950 . S
H496 C483 0.950 . S
H497 C484 0.951 . S
C498 C499 1.386 . S
C498 C500 1.383 . S
C498 H514 0.951 . S
C499 C498 1.386 . S
C499 C503 1.383 1_545 S
C500 C498 1.383 . S
C500 C501 1.402 . S
C500 H515 0.951 . S
C501 C500 1.402 . S
C501 C502 1.375 1_545 S
C501 C504 1.481 . S
C502 C501 1.375 1_565 S
C502 C503 1.367 . S
C502 H516 0.951 . S
C503 C499 1.383 1_565 S
C503 C502 1.367 . S
C503 H517 0.950 . S
C504 C501 1.481 . S
C504 C505 1.297 . S
C504 H518 0.950 1_545 S
C505 C504 1.297 . S
C505 C506 1.479 . S
C505 H519 0.950 . S
C506 C505 1.479 . S
C506 C507 1.375 . S
C506 C512 1.404 . S
C507 C506 1.375 . S
C507 C508 1.369 . S
C507 H520 0.950 . S
C508 C507 1.369 . S
C508 C509 1.392 . S
C508 H521 0.951 . S
C509 C508 1.392 . S
C509 C511 1.384 . S
H510 C512 0.949 1_565 S
C511 C509 1.384 . S
C511 C512 1.385 . S
C511 H513 0.950 1_545 S
C512 C506 1.404 . S
C512 H510 0.949 1_545 S
C512 C511 1.385 . S
H513 C511 0.950 1_565 S
H514 C498 0.951 . S
H515 C500 0.951 . S
H516 C502 0.951 . S
H517 C503 0.950 . S
H518 C504 0.950 1_565 S
H519 C505 0.950 . S
H520 C507 0.950 . S
H521 C508 0.951 . S
C522 C523 1.386 . S
C522 C524 1.383 . S
C522 H538 0.951 . S
C523 C522 1.386 . S
C523 C527 1.383 . S
C524 C522 1.383 . S
C524 C525 1.402 . S
C524 H539 0.951 . S
C525 C524 1.402 . S
C525 C526 1.375 . S
C525 C528 1.481 . S
C526 C525 1.375 . S
C526 C527 1.367 . S
C526 H540 0.951 . S
C527 C523 1.383 . S
C527 C526 1.367 . S
C527 H541 0.950 . S
C528 C525 1.481 . S
C528 C529 1.297 . S
C528 H542 0.950 . S
C529 C528 1.297 . S
C529 C530 1.479 . S
C529 H543 0.950 . S
C530 C529 1.479 . S
C530 C531 1.375 . S
C530 C536 1.404 . S
C531 C530 1.375 . S
C531 C532 1.369 . S
C531 H544 0.950 . S
C532 C531 1.369 . S
C532 C533 1.392 . S
C532 H545 0.951 . S
C533 C532 1.392 . S
C533 C535 1.384 . S
H534 C536 0.949 . S
C535 C533 1.384 . S
C535 C536 1.385 . S
C535 H537 0.950 . S
C536 C530 1.404 . S
C536 H534 0.949 . S
C536 C535 1.385 . S
H537 C535 0.950 . S
H538 C522 0.951 . S
H539 C524 0.951 . S
H540 C526 0.951 . S
H541 C527 0.950 . S
H542 C528 0.950 . S
H543 C529 0.950 . S
H544 C531 0.950 . S
H545 C532 0.951 . S
C546 C547 1.386 . S
C546 C548 1.383 . S
C546 H562 0.951 1_545 S
C547 C546 1.386 . S
C547 C551 1.383 . S
C548 C546 1.383 . S
C548 C549 1.402 . S
C548 H563 0.951 . S
C549 C548 1.402 . S
C549 C550 1.375 . S
C549 C552 1.481 . S
C550 C549 1.375 . S
C550 C551 1.367 . S
C550 H564 0.951 . S
C551 C547 1.383 . S
C551 C550 1.367 . S
C551 H565 0.950 . S
C552 C549 1.481 . S
C552 C553 1.297 . S
C552 H566 0.950 . S
C553 C552 1.297 . S
C553 C554 1.479 . S
C553 H567 0.950 . S
C554 C553 1.479 . S
C554 C555 1.375 . S
C554 C560 1.404 . S
C555 C554 1.375 . S
C555 C556 1.369 . S
C555 H568 0.950 . S
C556 C555 1.369 . S
C556 C557 1.392 . S
C556 H569 0.951 1_545 S
C557 C556 1.392 . S
C557 C559 1.384 . S
H558 C560 0.949 . S
C559 C557 1.384 . S
C559 C560 1.385 . S
C559 H561 0.950 . S
C560 C554 1.404 . S
C560 H558 0.949 . S
C560 C559 1.385 . S
H561 C559 0.950 . S
H562 C546 0.951 1_565 S
H563 C548 0.951 . S
H564 C550 0.951 . S
H565 C551 0.950 . S
H566 C552 0.950 . S
H567 C553 0.950 . S
H568 C555 0.950 . S
H569 C556 0.951 1_565 S
C570 C571 1.386 . S
C570 C572 1.383 . S
C570 H586 0.951 . S
C571 C570 1.386 . S
C571 C575 1.383 . S
C572 C570 1.383 . S
C572 C573 1.402 . S
C572 H587 0.951 . S
C573 C572 1.402 . S
C573 C574 1.375 . S
C573 C576 1.481 . S
C574 C573 1.375 . S
C574 C575 1.367 . S
C574 H588 0.951 . S
C575 C571 1.383 . S
C575 C574 1.367 . S
C575 H589 0.950 . S
C576 C573 1.481 . S
C576 C577 1.297 . S
C576 H590 0.950 . S
C577 C576 1.297 . S
C577 C578 1.479 1_556 S
C577 H591 0.950 . S
C578 C577 1.479 1_554 S
C578 C579 1.375 . S
C578 C584 1.404 . S
C579 C578 1.375 . S
C579 C580 1.369 . S
C579 H592 0.950 . S
C580 C579 1.369 . S
C580 C581 1.392 . S
C580 H593 0.951 . S
C581 C580 1.392 . S
C581 C583 1.384 . S
H582 C584 0.949 . S
C583 C581 1.384 . S
C583 C584 1.385 . S
C583 H585 0.950 . S
C584 C578 1.404 . S
C584 H582 0.949 . S
C584 C583 1.385 . S
H585 C583 0.950 . S
H586 C570 0.951 . S
H587 C572 0.951 . S
H588 C574 0.951 . S
H589 C575 0.950 . S
H590 C576 0.950 . S
H591 C577 0.950 . S
H592 C579 0.950 . S
H593 C580 0.951 . S
C594 C595 1.386 . S
C594 C596 1.383 . S
C594 H610 0.951 . S
C595 C594 1.386 . S
C595 C599 1.383 1_455 S
C596 C594 1.383 . S
C596 C597 1.402 . S
C596 H611 0.951 . S
C597 C596 1.402 . S
C597 C598 1.375 1_455 S
C597 C600 1.481 . S
C598 C597 1.375 1_655 S
C598 C599 1.367 . S
C598 H612 0.951 . S
C599 C595 1.383 1_655 S
C599 C598 1.367 . S
C599 H613 0.950 . S
C600 C597 1.481 . S
C600 C601 1.297 . S
C600 H614 0.950 1_455 S
C601 C600 1.297 . S
C601 C602 1.479 . S
C601 H615 0.950 . S
C602 C601 1.479 . S
C602 C603 1.375 . S
C602 C608 1.404 . S
C603 C602 1.375 . S
C603 C604 1.369 . S
C603 H616 0.950 . S
C604 C603 1.369 . S
C604 C605 1.392 . S
C604 H617 0.951 . S
C605 C604 1.392 . S
C605 C607 1.384 . S
H606 C608 0.949 1_655 S
C607 C605 1.384 . S
C607 C608 1.385 . S
C607 H609 0.950 1_455 S
C608 C602 1.404 . S
C608 H606 0.949 1_455 S
C608 C607 1.385 . S
H609 C607 0.950 1_655 S
H610 C594 0.951 . S
H611 C596 0.951 . S
H612 C598 0.951 . S
H613 C599 0.950 . S
H614 C600 0.950 1_655 S
H615 C601 0.950 . S
H616 C603 0.950 . S
H617 C604 0.951 . S
C187 C19 3.157 . S
C197 C180 2.798 . S
C211 C49 3.238 . S
C221 C158 2.925 . S
C235 C99 2.825 . S
C245 C172 2.746 . S
C259 C9 2.897 . S
C269 C183 2.850 . S
C293 C161 2.768 . S
C283 C59 2.826 . S
C317 C169 2.921 . S
C307 C89 3.236 . S
C331 C55 0.503 . S
C341 C136 0.596 . S
C355 C85 0.469 . S
C365 C147 0.636 . S
C379 C15 0.427 . S
C389 C125 0.862 . S
C413 C139 0.473 . S
C403 C45 0.356 . S
C437 C150 0.260 . S
C427 C95 0.139 . S
C451 C5 0.174 . S
C461 C128 0.198 . S
C485 C149 1.248 1_655 S
C475 C18 1.184 . S
C499 C58 1.216 . S
C509 C127 1.140 . S
C523 C98 1.256 . S
C533 C138 1.236 . S
C557 C171 1.639 . S
C547 C48 1.621 . S
C581 C182 1.692 . S
C571 C88 1.698 . S
C595 C8 1.668 . S
C605 C160 1.602 . S
