# Generated by pormake.
# Topology cml, (3,6)-cn, num edge types: 1
# Building blocks:
#     Node 0, Type 0, BuildingBlock: WUSLED_clean_sbu_0, # of connection points: 3
#     Node 1, Type 0, BuildingBlock: WUSLED_clean_sbu_0, # of connection points: 3
#     Node 2, Type 0, BuildingBlock: WUSLED_clean_sbu_0, # of connection points: 3
#     Node 3, Type 0, BuildingBlock: WUSLED_clean_sbu_0, # of connection points: 3
#     Node 4, Type 0, BuildingBlock: WUSLED_clean_sbu_0, # of connection points: 3
#     Node 5, Type 0, BuildingBlock: WUSLED_clean_sbu_0, # of connection points: 3
#     Node 6, Type 0, BuildingBlock: WUSLED_clean_sbu_0, # of connection points: 3
#     Node 7, Type 0, BuildingBlock: WUSLED_clean_sbu_0, # of connection points: 3
#     Node 8, Type 1, BuildingBlock: OJICUG_clean_sbu_0, # of connection points: 6
#     Node 9, Type 1, BuildingBlock: OJICUG_clean_sbu_0, # of connection points: 6
#     Node 10, Type 1, BuildingBlock: OJICUG_clean_sbu_0, # of connection points: 6
#     Node 11, Type 1, BuildingBlock: OJICUG_clean_sbu_0, # of connection points: 6
#     Edge 12, Type (0, 1), BuildingBlock: XUDNAN_clean_linker_2, # of connection points: 2
#     Edge 13, Type (0, 1), BuildingBlock: XUDNAN_clean_linker_2, # of connection points: 2
#     Edge 14, Type (0, 1), BuildingBlock: XUDNAN_clean_linker_2, # of connection points: 2
#     Edge 15, Type (0, 1), BuildingBlock: XUDNAN_clean_linker_2, # of connection points: 2
#     Edge 16, Type (0, 1), BuildingBlock: XUDNAN_clean_linker_2, # of connection points: 2
#     Edge 17, Type (0, 1), BuildingBlock: XUDNAN_clean_linker_2, # of connection points: 2
#     Edge 18, Type (0, 1), BuildingBlock: XUDNAN_clean_linker_2, # of connection points: 2
#     Edge 19, Type (0, 1), BuildingBlock: XUDNAN_clean_linker_2, # of connection points: 2
#     Edge 20, Type (0, 1), BuildingBlock: XUDNAN_clean_linker_2, # of connection points: 2
#     Edge 21, Type (0, 1), BuildingBlock: XUDNAN_clean_linker_2, # of connection points: 2
#     Edge 22, Type (0, 1), BuildingBlock: XUDNAN_clean_linker_2, # of connection points: 2
#     Edge 23, Type (0, 1), BuildingBlock: XUDNAN_clean_linker_2, # of connection points: 2
#     Edge 24, Type (0, 1), BuildingBlock: XUDNAN_clean_linker_2, # of connection points: 2
#     Edge 25, Type (0, 1), BuildingBlock: XUDNAN_clean_linker_2, # of connection points: 2
#     Edge 26, Type (0, 1), BuildingBlock: XUDNAN_clean_linker_2, # of connection points: 2
#     Edge 27, Type (0, 1), BuildingBlock: XUDNAN_clean_linker_2, # of connection points: 2
#     Edge 28, Type (0, 1), BuildingBlock: XUDNAN_clean_linker_2, # of connection points: 2
#     Edge 29, Type (0, 1), BuildingBlock: XUDNAN_clean_linker_2, # of connection points: 2
#     Edge 30, Type (0, 1), BuildingBlock: XUDNAN_clean_linker_2, # of connection points: 2
#     Edge 31, Type (0, 1), BuildingBlock: XUDNAN_clean_linker_2, # of connection points: 2
#     Edge 32, Type (0, 1), BuildingBlock: XUDNAN_clean_linker_2, # of connection points: 2
#     Edge 33, Type (0, 1), BuildingBlock: XUDNAN_clean_linker_2, # of connection points: 2
#     Edge 34, Type (0, 1), BuildingBlock: XUDNAN_clean_linker_2, # of connection points: 2
#     Edge 35, Type (0, 1), BuildingBlock: XUDNAN_clean_linker_2, # of connection points: 2
# Relax obj value: 0.068
# Max RMSD: 0.082
# Mean RMSD: 0.077
data_MOF--net-cml--node1-WUSLED_clean_sbu_0--node2-OJICUG_clean_sbu_0--edge1-XUDNAN_clean_linker_2
_symmetry_space_group_name_H-M    P1
_symmetry_Int_Tables_number       1
_symmetry_cell_setting            triclinic
loop_
_symmetry_equiv_pos_as_xyz
'x, y, z'
_cell_length_a     50.019499
_cell_length_b     50.978248
_cell_length_c     47.976063
_cell_angle_alpha  90.349236
_cell_angle_beta   89.941926
_cell_angle_gamma 89.937717
loop_
_atom_site_label
_atom_site_type_symbol
_atom_site_fract_x
_atom_site_fract_y
_atom_site_fract_z
_atom_type_partial_charge
C0 C 0.31352 0.42497 0.94501 0.0
C1 C 0.30392 0.45044 0.9504 0.0
C2 C 0.3462 0.4694 0.93525 0.0
C3 C 0.32009 0.47235 0.94571 0.0
C4 C 0.35544 0.44404 0.9287 0.0
C5 C 0.3393 0.42207 0.93354 0.0
U6 U 0.29657 0.36937 0.99449 0.0
O7 O 0.25793 0.3547 0.00999 0.0
O8 O 0.28505 0.32823 0.98736 0.0
C9 C 0.26127 0.33139 0.99862 0.0
C10 C 0.29687 0.4018 0.95219 0.0
C11 C 0.23842 0.3213 0.98235 0.0
C12 C 0.21422 0.31629 0.93871 0.0
C13 C 0.23616 0.326 0.95367 0.0
C14 C 0.19648 0.29717 0.98092 0.0
C15 C 0.19399 0.30183 0.95215 0.0
C16 C 0.21847 0.30681 0.99583 0.0
C17 C 0.34273 0.36742 0.05996 0.0
C18 C 0.33651 0.34454 0.10386 0.0
C19 C 0.37783 0.36775 0.09482 0.0
C20 C 0.3683 0.37498 0.06866 0.0
C21 C 0.36195 0.35278 0.11293 0.0
C22 C 0.3269 0.3519 0.07754 0.0
C23 C 0.33298 0.37728 0.03308 0.0
O24 O 0.30881 0.37879 0.95157 0.0
O25 O 0.28106 0.40472 0.97391 0.0
O26 O 0.30945 0.38879 0.03322 0.0
O27 O 0.33695 0.36218 0.01117 0.0
H28 H 0.28402 0.45344 0.95877 0.0
H29 H 0.31218 0.49165 0.95049 0.0
H30 H 0.37548 0.44109 0.92069 0.0
H31 H 0.3473 0.4028 0.92883 0.0
H32 H 0.21324 0.31997 0.91653 0.0
H33 H 0.25134 0.33716 0.94285 0.0
H34 H 0.18118 0.28649 0.99209 0.0
H35 H 0.21981 0.30306 0.01799 0.0
H36 H 0.32379 0.33304 0.11737 0.0
H37 H 0.3977 0.37397 0.1009 0.0
H38 H 0.38082 0.38689 0.05532 0.0
H39 H 0.30706 0.34589 0.07114 0.0
C40 C 0.70343 0.66207 0.5918 0.0
C41 C 0.6793 0.64822 0.59427 0.0
C42 C 0.67244 0.6664 0.6409 0.0
C43 C 0.66393 0.65035 0.61863 0.0
C44 C 0.6971 0.67952 0.63854 0.0
C45 C 0.71239 0.67741 0.61421 0.0
U46 U 0.7171 0.6337 0.5195 0.0
O47 O 0.72602 0.65371 0.47996 0.0
O48 O 0.75482 0.62577 0.49741 0.0
C49 C 0.75002 0.64333 0.47807 0.0
C50 C 0.71891 0.66154 0.56568 0.0
C51 C 0.77192 0.66177 0.4718 0.0
C52 C 0.81053 0.68758 0.4859 0.0
C53 C 0.78962 0.67048 0.49257 0.0
C54 C 0.79612 0.68777 0.43774 0.0
C55 C 0.81405 0.6965 0.45839 0.0
C56 C 0.77533 0.67057 0.4444 0.0
C57 C 0.67312 0.57638 0.49384 0.0
C58 C 0.65475 0.56458 0.4485 0.0
C59 C 0.66271 0.53089 0.48288 0.0
C60 C 0.67234 0.54987 0.50144 0.0
C61 C 0.65338 0.53804 0.45632 0.0
C62 C 0.66456 0.58355 0.46704 0.0
C63 C 0.68153 0.59614 0.51473 0.0
O64 O 0.73369 0.64054 0.56146 0.0
O65 O 0.70573 0.6689 0.54337 0.0
O66 O 0.67641 0.62085 0.50902 0.0
O67 O 0.70522 0.59258 0.52594 0.0
H68 H 0.67209 0.63623 0.57714 0.0
H69 H 0.64498 0.64015 0.61962 0.0
H70 H 0.70451 0.69166 0.65544 0.0
H71 H 0.73104 0.68811 0.61273 0.0
H72 H 0.82412 0.69354 0.5023 0.0
H73 H 0.78738 0.66398 0.5139 0.0
H74 H 0.79789 0.69451 0.41646 0.0
H75 H 0.76183 0.66414 0.42809 0.0
H76 H 0.64747 0.57087 0.42838 0.0
H77 H 0.6624 0.51061 0.48945 0.0
H78 H 0.67884 0.54385 0.52197 0.0
H79 H 0.66491 0.60386 0.46054 0.0
C80 C 0.70688 0.42889 0.95078 0.0
C81 C 0.69303 0.44216 0.97206 0.0
C82 C 0.6788 0.47572 0.93927 0.0
C83 C 0.67922 0.46538 0.96639 0.0
C84 C 0.69236 0.46212 0.91788 0.0
C85 C 0.70635 0.43893 0.92364 0.0
U86 U 0.71844 0.37108 0.99817 0.0
O87 O 0.72563 0.32922 0.98926 0.0
O88 O 0.75529 0.352 0.01276 0.0
C89 C 0.74961 0.32957 1.00046 0.0
C90 C 0.72151 0.40446 0.95684 0.0
C91 C 0.77111 0.31808 0.98327 0.0
C92 C 0.80328 0.32105 0.94542 0.0
C93 C 0.7831 0.33241 0.96177 0.0
C94 C 0.79977 0.28092 0.97193 0.0
C95 C 0.81177 0.29507 0.95015 0.0
C96 C 0.77963 0.29233 0.9883 0.0
C97 C 0.67185 0.37012 0.06328 0.0
C98 C 0.63422 0.36731 0.0951 0.0
C99 C 0.67708 0.34913 0.10839 0.0
C100 C 0.68785 0.35682 0.08269 0.0
C101 C 0.65024 0.35474 0.11506 0.0
C102 C 0.64493 0.37492 0.06955 0.0
C103 C 0.68267 0.38064 0.03707 0.0
O104 O 0.73722 0.40543 0.97878 0.0
O105 O 0.70711 0.38294 0.95568 0.0
O106 O 0.67737 0.36721 0.01428 0.0
O107 O 0.70715 0.38999 0.03777 0.0
H108 H 0.69289 0.43455 0.9931 0.0
H109 H 0.66862 0.4751 0.98323 0.0
H110 H 0.69251 0.46964 0.89682 0.0
H111 H 0.71682 0.42888 0.90691 0.0
H112 H 0.81231 0.3327 0.92914 0.0
H113 H 0.77682 0.35235 0.95761 0.0
H114 H 0.80551 0.26081 0.97597 0.0
H115 H 0.77054 0.28095 0.00478 0.0
H116 H 0.61335 0.37146 0.09932 0.0
H117 H 0.68994 0.33954 0.12336 0.0
H118 H 0.70871 0.35289 0.07823 0.0
H119 H 0.63225 0.38506 0.0548 0.0
C120 C 0.31142 0.6622 0.59333 0.0
C121 C 0.32892 0.64084 0.59593 0.0
C122 C 0.34194 0.65577 0.64229 0.0
C123 C 0.34397 0.63763 0.62017 0.0
C124 C 0.32491 0.67757 0.63931 0.0
C125 C 0.30967 0.6807 0.61502 0.0
U126 U 0.29505 0.63859 0.52091 0.0
O127 O 0.25688 0.629 0.5007 0.0
O128 O 0.28291 0.65916 0.48265 0.0
C129 C 0.25969 0.64708 0.48149 0.0
C130 C 0.29472 0.66467 0.56823 0.0
C131 C 0.23557 0.66281 0.47486 0.0
C132 C 0.21471 0.70231 0.45622 0.0
C133 C 0.23725 0.68926 0.46672 0.0
C134 C 0.18833 0.66307 0.46277 0.0
C135 C 0.19021 0.68905 0.45337 0.0
C136 C 0.21071 0.65011 0.47328 0.0
C137 C 0.33898 0.58157 0.49303 0.0
C138 C 0.35768 0.56919 0.44793 0.0
C139 C 0.34812 0.53574 0.4821 0.0
C140 C 0.33882 0.55501 0.50056 0.0
C141 C 0.35804 0.54259 0.45569 0.0
C142 C 0.34824 0.58848 0.46638 0.0
C143 C 0.33109 0.60158 0.51398 0.0
O144 O 0.30723 0.673 0.54586 0.0
O145 O 0.27914 0.64444 0.56321 0.0
O146 O 0.30812 0.59771 0.52662 0.0
O147 O 0.33532 0.62632 0.50772 0.0
H148 H 0.3307 0.62647 0.5793 0.0
H149 H 0.35724 0.62088 0.62161 0.0
H150 H 0.32284 0.69181 0.65602 0.0
H151 H 0.2963 0.69734 0.61332 0.0
H152 H 0.21681 0.72229 0.44901 0.0
H153 H 0.25615 0.69959 0.46742 0.0
H154 H 0.16964 0.65243 0.46121 0.0
H155 H 0.20877 0.6297 0.47913 0.0
H156 H 0.36546 0.57525 0.42791 0.0
H157 H 0.34767 0.51545 0.48864 0.0
H158 H 0.33187 0.54916 0.521 0.0
H159 H 0.34875 0.6088 0.45995 0.0
C160 C 0.80822 0.93928 0.94508 0.0
C161 C 0.83298 0.94588 0.957 0.0
C162 C 0.84047 0.97852 0.92085 0.0
C163 C 0.84898 0.96538 0.945 0.0
C164 C 0.81519 0.97241 0.90969 0.0
C165 C 0.79928 0.95296 0.92166 0.0
U166 U 0.79305 0.88827 1.00087 0.0
O167 O 0.75474 0.87393 0.01738 0.0
O168 O 0.78211 0.84659 0.9963 0.0
C169 C 0.75827 0.85014 0.00724 0.0
C170 C 0.79203 0.91753 0.95602 0.0
C171 C 0.73574 0.83872 0.99138 0.0
C172 C 0.69679 0.8431 0.96138 0.0
C173 C 0.71815 0.85445 0.97595 0.0
C174 C 0.71047 0.80012 0.97713 0.0
C175 C 0.69266 0.81575 0.96172 0.0
C176 C 0.73172 0.8115 0.99182 0.0
C177 C 0.83888 0.88736 0.06566 0.0
C178 C 0.83152 0.86254 0.10811 0.0
C179 C 0.87319 0.88584 0.10134 0.0
C180 C 0.86424 0.89447 0.07541 0.0
C181 C 0.8569 0.86994 0.11815 0.0
C182 C 0.82257 0.8712 0.08204 0.0
C183 C 0.82995 0.89751 0.03859 0.0
O184 O 0.80425 0.89472 0.95716 0.0
O185 O 0.77781 0.92279 0.97842 0.0
O186 O 0.80659 0.90934 0.03838 0.0
O187 O 0.83374 0.88197 0.017 0.0
H188 H 0.84019 0.93553 0.97517 0.0
H189 H 0.86838 0.96946 0.95402 0.0
H190 H 0.80781 0.98246 0.89141 0.0
H191 H 0.78016 0.94826 0.91229 0.0
H192 H 0.68333 0.85585 0.95011 0.0
H193 H 0.72084 0.87552 0.97522 0.0
H194 H 0.70829 0.77899 0.97755 0.0
H195 H 0.74511 0.79898 0.00349 0.0
H196 H 0.81842 0.85043 0.12058 0.0
H197 H 0.89304 0.89147 0.10809 0.0
H198 H 0.87715 0.90682 0.06296 0.0
H199 H 0.8029 0.8655 0.07479 0.0
C200 C 0.21254 0.15795 0.57252 0.0
C201 C 0.18797 0.145 0.57557 0.0
C202 C 0.18207 0.16468 0.62163 0.0
C203 C 0.17285 0.14836 0.5999 0.0
C204 C 0.20708 0.17701 0.61867 0.0
C205 C 0.22212 0.17371 0.59432 0.0
U206 U 0.22688 0.12517 0.50238 0.0
O207 O 0.23544 0.14305 0.46166 0.0
O208 O 0.265 0.11714 0.48108 0.0
C209 C 0.25996 0.13376 0.46089 0.0
C210 C 0.22791 0.15594 0.54644 0.0
C211 C 0.28094 0.15333 0.4554 0.0
C212 C 0.31276 0.18587 0.47191 0.0
C213 C 0.29335 0.16686 0.47739 0.0
C214 C 0.30753 0.17818 0.42235 0.0
C215 C 0.31997 0.19196 0.4443 0.0
C216 C 0.28821 0.15905 0.42788 0.0
C217 C 0.18407 0.06519 0.48108 0.0
C218 C 0.16646 0.04994 0.43658 0.0
C219 C 0.17258 0.01924 0.47435 0.0
C220 C 0.18235 0.0395 0.49123 0.0
C221 C 0.1641 0.02425 0.44693 0.0
C222 C 0.17639 0.07019 0.45345 0.0
C223 C 0.1923 0.08649 0.50027 0.0
O224 O 0.24314 0.13505 0.54381 0.0
O225 O 0.2145 0.16146 0.52367 0.0
O226 O 0.1866 0.11062 0.49272 0.0
O227 O 0.21613 0.08418 0.51153 0.0
H228 H 0.18027 0.13271 0.55891 0.0
H229 H 0.15359 0.13878 0.60132 0.0
H230 H 0.21502 0.18934 0.63515 0.0
H231 H 0.24112 0.18373 0.59236 0.0
H232 H 0.32217 0.19574 0.48937 0.0
H233 H 0.28795 0.16279 0.49882 0.0
H234 H 0.31228 0.18257 0.40085 0.0
H235 H 0.27871 0.14891 0.41063 0.0
H236 H 0.15984 0.05464 0.41572 0.0
H237 H 0.1715 0.99965 0.48288 0.0
H238 H 0.18816 0.03517 0.51247 0.0
H239 H 0.17747 0.08982 0.44502 0.0
C240 C 0.17052 0.93477 0.98781 0.0
C241 C 0.14369 0.94271 0.98783 0.0
C242 C 0.1538 0.97776 0.95518 0.0
C243 C 0.13539 0.96392 0.97169 0.0
C244 C 0.18074 0.9696 0.95507 0.0
C245 C 0.18903 0.94827 0.97123 0.0
U246 U 0.2139 0.87476 0.00824 0.0
O247 O 0.22576 0.85818 0.9675 0.0
O248 O 0.25323 0.88405 0.99031 0.0
C249 C 0.25005 0.86788 0.96909 0.0
C250 C 0.17848 0.91281 0.00583 0.0
C251 C 0.27199 0.84898 0.96399 0.0
C252 C 0.29807 0.82248 0.93144 0.0
C253 C 0.27764 0.84069 0.93667 0.0
C254 C 0.30772 0.82081 0.98083 0.0
C255 C 0.31337 0.81221 0.95346 0.0
C256 C 0.28718 0.83885 0.98604 0.0
C257 C 0.1949 0.83923 0.07569 0.0
C258 C 0.17601 0.85528 0.11945 0.0
C259 C 0.16585 0.81132 0.10335 0.0
C260 C 0.18173 0.81528 0.07977 0.0
C261 C 0.16292 0.83118 0.12365 0.0
C262 C 0.19178 0.85929 0.09571 0.0
C263 C 0.21191 0.84256 0.05068 0.0
O264 O 0.20156 0.91504 0.01874 0.0
O265 O 0.17412 0.88914 0.99583 0.0
O266 O 0.20024 0.83766 0.02668 0.0
O267 O 0.22749 0.86332 0.05005 0.0
H268 H 0.12909 0.93248 1.00044 0.0
H269 H 0.11442 0.96923 0.97189 0.0
H270 H 0.1955 0.97991 0.94278 0.0
H271 H 0.20986 0.94245 0.97091 0.0
H272 H 0.30151 0.8161 0.91017 0.0
H273 H 0.26607 0.84815 0.91936 0.0
H274 H 0.31929 0.81374 0.9983 0.0
H275 H 0.28318 0.84486 0.00734 0.0
H276 H 0.17448 0.87091 0.13475 0.0
H277 H 0.1557 0.79269 0.10554 0.0
H278 H 0.18375 0.79953 0.06464 0.0
H279 H 0.20165 0.87802 0.09319 0.0
C280 C 0.82196 0.17229 0.5597 0.0
C281 C 0.83985 0.1512 0.56176 0.0
C282 C 0.85281 0.16548 0.6083 0.0
C283 C 0.85511 0.14782 0.5858 0.0
C284 C 0.83557 0.18718 0.6058 0.0
C285 C 0.82012 0.19047 0.58167 0.0
U286 U 0.79969 0.14231 0.49231 0.0
O287 O 0.75961 0.13434 0.4754 0.0
O288 O 0.78782 0.15859 0.45178 0.0
C289 C 0.76322 0.14962 0.45376 0.0
C290 C 0.80426 0.17402 0.5353 0.0
C291 C 0.74163 0.16867 0.44863 0.0
C292 C 0.72145 0.21165 0.45538 0.0
C293 C 0.74256 0.19413 0.45987 0.0
C294 C 0.69819 0.17845 0.42847 0.0
C295 C 0.69887 0.20398 0.43978 0.0
C296 C 0.71937 0.161 0.43285 0.0
C297 C 0.83863 0.07768 0.47487 0.0
C298 C 0.85304 0.05496 0.43263 0.0
C299 C 0.85008 0.0314 0.4762 0.0
C300 C 0.84141 0.05421 0.48962 0.0
C301 C 0.85621 0.03147 0.44759 0.0
C302 C 0.84429 0.0779 0.44616 0.0
C303 C 0.83204 0.1017 0.49079 0.0
O304 O 0.81638 0.17816 0.51139 0.0
O305 O 0.78632 0.15527 0.53383 0.0
O306 O 0.80911 0.10171 0.50418 0.0
O307 O 0.83788 0.12443 0.47949 0.0
H308 H 0.84157 0.13697 0.54498 0.0
H309 H 0.86851 0.13116 0.58692 0.0
H310 H 0.83333 0.20103 0.62286 0.0
H311 H 0.80633 0.20682 0.58044 0.0
H312 H 0.72289 0.23124 0.46408 0.0
H313 H 0.75954 0.20041 0.47221 0.0
H314 H 0.68102 0.17168 0.41674 0.0
H315 H 0.71822 0.14136 0.42418 0.0
H316 H 0.85742 0.05562 0.41054 0.0
H317 H 0.85279 0.01389 0.48855 0.0
H318 H 0.83752 0.05366 0.51184 0.0
H319 H 0.8424 0.09581 0.43428 0.0
Sc320 Sc 0.9981 0.80487 0.32668 0.0
Sc321 Sc 1.00537 0.87338 0.31908 0.0
Sc322 Sc 0.00901 0.84459 0.38569 0.0
O323 O 1.00419 0.84099 0.34375 0.0
C324 C 0.96326 0.80043 0.38173 0.0
C325 C 0.95997 0.83991 0.28836 0.0
C326 C 0.96987 0.89207 0.37114 0.0
C327 C 0.03902 0.83127 0.28375 0.0
C328 C 0.04273 0.79316 0.37345 0.0
C329 C 0.04961 0.88858 0.36412 0.0
O330 O 0.96696 0.79479 0.35614 0.0
O331 O 0.97144 0.8614 0.29454 0.0
O332 O 0.97871 0.87455 0.38753 0.0
O333 O 0.02863 0.81143 0.29562 0.0
O334 O 0.03948 0.81442 0.38714 0.0
O335 O 0.03966 0.88983 0.33983 0.0
O336 O 0.02837 0.78708 0.35249 0.0
O337 O 0.03246 0.85481 0.28973 0.0
O338 O 0.04036 0.87356 0.38283 0.0
O339 O 0.96731 0.81804 0.29842 0.0
O340 O 0.97788 0.81673 0.39482 0.0
O341 O 0.97818 0.89489 0.3462 0.0
Sc342 Sc 1.00566 0.19492 0.81155 0.0
Sc343 Sc 0.01486 0.12681 0.80811 0.0
Sc344 Sc 1.00604 0.15763 0.87366 0.0
O345 O 0.00887 0.1598 0.83117 0.0
C346 C 0.04217 0.20863 0.86487 0.0
C347 C 0.05183 0.16762 0.77561 0.0
C348 C 0.05174 0.11489 0.86045 0.0
C349 C 0.97248 0.15744 0.77065 0.0
C350 C 0.96202 0.20166 0.85959 0.0
C351 C 0.97229 0.10786 0.85415 0.0
O352 O 0.03236 0.21348 0.84096 0.0
O353 O 0.04498 0.14434 0.78177 0.0
O354 O 0.03836 0.1293 0.87718 0.0
O355 O 0.97852 0.18014 0.77988 0.0
O356 O 0.97294 0.18541 0.87615 0.0
O357 O 0.98518 0.1056 0.83137 0.0
O358 O 0.97122 0.20623 0.83543 0.0
O359 O 0.98375 0.13666 0.77922 0.0
O360 O 0.97677 0.12616 0.87177 0.0
O361 O 0.03982 0.18771 0.78524 0.0
O362 O 0.03534 0.18872 0.8792 0.0
O363 O 0.04645 0.11317 0.83461 0.0
Sc364 Sc 0.50433 0.3144 0.32918 0.0
Sc365 Sc 0.50356 0.38281 0.31729 0.0
Sc366 Sc 0.50331 0.35894 0.3859 0.0
O367 O 0.50373 0.35203 0.34408 0.0
C368 C 0.46345 0.31019 0.38051 0.0
C369 C 0.46434 0.34243 0.28651 0.0
C370 C 0.4638 0.40388 0.36465 0.0
C371 C 0.54366 0.34312 0.28648 0.0
C372 C 0.54407 0.31053 0.38122 0.0
C373 C 0.54322 0.4035 0.36486 0.0
O374 O 0.47327 0.30165 0.35768 0.0
O375 O 0.47307 0.36541 0.2915 0.0
O376 O 0.47286 0.38876 0.38338 0.0
O377 O 0.53521 0.32267 0.29876 0.0
O378 O 0.53402 0.33028 0.39371 0.0
O379 O 0.53435 0.4036 0.34 0.0
O380 O 0.53568 0.30248 0.35763 0.0
O381 O 0.53427 0.36588 0.29138 0.0
O382 O 0.53414 0.3883 0.38354 0.0
O383 O 0.4734 0.32213 0.29867 0.0
O384 O 0.47217 0.33065 0.39274 0.0
O385 O 0.47256 0.40363 0.33975 0.0
Sc386 Sc 0.50134 0.69366 0.83711 0.0
Sc387 Sc 0.51181 0.62495 0.83567 0.0
Sc388 Sc 0.51146 0.65937 0.89972 0.0
O389 O 0.50821 0.6593 0.85746 0.0
C390 C 0.54394 0.71104 0.88385 0.0
C391 C 0.54459 0.6651 0.79774 0.0
C392 C 0.5553 0.61602 0.88354 0.0
C393 C 0.46538 0.65405 0.80157 0.0
C394 C 0.46409 0.70111 0.89057 0.0
C395 C 0.47578 0.60825 0.88787 0.0
O396 O 0.53133 0.71433 0.86109 0.0
O397 O 0.5398 0.64187 0.8061 0.0
O398 O 0.54541 0.63323 0.89984 0.0
O399 O 0.47095 0.67706 0.81017 0.0
O400 O 0.47764 0.68521 0.90524 0.0
O401 O 0.48401 0.60485 0.86294 0.0
O402 O 0.46983 0.70602 0.86529 0.0
O403 O 0.47847 0.6339 0.80904 0.0
O404 O 0.48401 0.62693 0.90339 0.0
O405 O 0.53209 0.68512 0.80697 0.0
O406 O 0.53931 0.69185 0.90001 0.0
O407 O 0.54546 0.61101 0.85967 0.0
H408 H 0.16712 0.2547 0.95792 0.0
H409 H 0.16659 0.32713 0.91068 0.0
H410 H 0.12758 0.31135 0.88415 0.0
H411 H 0.14834 0.21188 0.90192 0.0
H412 H 0.1273 0.19134 0.92309 0.0
H413 H 0.15522 0.20825 0.93857 0.0
H414 H 0.12351 0.22983 0.97478 0.0
H415 H 0.09547 0.21298 0.95939 0.0
H416 H 0.09494 0.2482 0.9629 0.0
H417 H 0.08923 0.28772 0.86216 0.0
H418 H 0.05383 0.25781 0.84604 0.0
H419 H 0.07777 0.20092 0.90832 0.0
C420 C 0.15867 0.26739 0.9422 0.0
C421 C 0.17018 0.29217 0.93635 0.0
C422 C 0.15859 0.30791 0.91528 0.0
C423 C 0.13624 0.2992 0.90022 0.0
C424 C 0.1255 0.27474 0.90649 0.0
C425 C 0.13625 0.25905 0.92699 0.0
C426 C 0.12087 0.23347 0.92939 0.0
C427 C 0.13902 0.20984 0.92285 0.0
C428 C 0.10793 0.23099 0.95833 0.0
C429 C 0.09991 0.23721 0.9069 0.0
C430 C 0.10301 0.26118 0.894 0.0
C431 C 0.08654 0.26895 0.87218 0.0
C432 C 0.06647 0.25173 0.86315 0.0
C433 C 0.06284 0.22694 0.8759 0.0
C434 C 0.07977 0.21977 0.89827 0.0
H435 H 0.8453 0.69759 0.4108 0.0
H436 H 0.83273 0.73769 0.48991 0.0
H437 H 0.86943 0.7681 0.47882 0.0
H438 H 0.91667 0.70296 0.4092 0.0
H439 H 0.91847 0.7088 0.37222 0.0
H440 H 0.89131 0.68987 0.38635 0.0
H441 H 0.85718 0.72145 0.36365 0.0
H442 H 0.88423 0.74045 0.3494 0.0
H443 H 0.85924 0.75613 0.37089 0.0
H444 H 0.9075 0.79397 0.45958 0.0
H445 H 0.94418 0.8142 0.43321 0.0
H446 H 0.93149 0.75853 0.36555 0.0
C447 C 0.85004 0.71291 0.42572 0.0
C448 C 0.83611 0.71504 0.45138 0.0
C449 C 0.84333 0.73523 0.47038 0.0
C450 C 0.86405 0.75277 0.46418 0.0
C451 C 0.87734 0.75004 0.4388 0.0
C452 C 0.87061 0.7307 0.4198 0.0
C453 C 0.88808 0.73219 0.39396 0.0
C454 C 0.90461 0.70695 0.39023 0.0
C455 C 0.87117 0.7379 0.36794 0.0
C456 C 0.90574 0.75534 0.40147 0.0
C457 C 0.89918 0.76527 0.42747 0.0
C458 C 0.91279 0.7864 0.43918 0.0
C459 C 0.93369 0.79773 0.42399 0.0
C460 C 0.94087 0.78801 0.39722 0.0
C461 C 0.92652 0.76653 0.38586 0.0
H462 H 0.85288 0.26164 0.96528 0.0
H463 H 0.81744 0.3 0.89362 0.0
H464 H 0.85154 0.27988 0.8632 0.0
H465 H 0.92125 0.26785 0.9438 0.0
H466 H 0.9312 0.23611 0.95651 0.0
H467 H 0.90396 0.25343 0.97292 0.0
H468 H 0.87297 0.21348 0.96456 0.0
H469 H 0.90013 0.19602 0.94811 0.0
H470 H 0.86907 0.20056 0.92974 0.0
H471 H 0.88935 0.25624 0.8405 0.0
H472 H 0.92883 0.23057 0.82663 0.0
H473 H 0.93986 0.20616 0.9125 0.0
C474 C 0.85212 0.26565 0.94315 0.0
C475 C 0.83246 0.28263 0.93194 0.0
C476 C 0.83249 0.28752 0.90288 0.0
C477 C 0.85168 0.276 0.88535 0.0
C478 C 0.87073 0.25948 0.89708 0.0
C479 C 0.87114 0.25423 0.92528 0.0
C480 C 0.89402 0.23584 0.93245 0.0
C481 C 0.91377 0.24911 0.95261 0.0
C482 C 0.88341 0.20994 0.94442 0.0
C483 C 0.90643 0.23168 0.90387 0.0
C484 C 0.89259 0.24553 0.88384 0.0
C485 C 0.90032 0.24527 0.85598 0.0
C486 C 0.92288 0.23061 0.84834 0.0
C487 C 0.93761 0.21626 0.86842 0.0
C488 C 0.92904 0.21674 0.89658 0.0
H489 H 0.1692 0.7391 0.45953 0.0
H490 H 0.1597 0.66639 0.41303 0.0
H491 H 0.12154 0.68537 0.3878 0.0
H492 H 0.0988 0.75309 0.46686 0.0
H493 H 0.10241 0.78802 0.46263 0.0
H494 H 0.12946 0.76907 0.47699 0.0
H495 H 0.16132 0.78669 0.43886 0.0
H496 H 0.13436 0.80572 0.42441 0.0
H497 H 0.15243 0.78281 0.40266 0.0
H498 H 0.08492 0.7116 0.36741 0.0
H499 H 0.05072 0.74349 0.35345 0.0
H500 H 0.08256 0.79983 0.41313 0.0
C501 C 0.15911 0.72728 0.44395 0.0
C502 C 0.16731 0.70116 0.43842 0.0
C503 C 0.15353 0.68626 0.41797 0.0
C504 C 0.13192 0.69691 0.40338 0.0
C505 C 0.12421 0.72255 0.40945 0.0
C506 C 0.13725 0.7376 0.42924 0.0
C507 C 0.1244 0.76453 0.43186 0.0
C508 C 0.1131 0.76892 0.46134 0.0
C509 C 0.14432 0.78622 0.42397 0.0
C510 C 0.10216 0.76216 0.41045 0.0
C511 C 0.1026 0.73778 0.39775 0.0
C512 C 0.08431 0.73077 0.37721 0.0
C513 C 0.06494 0.74912 0.3694 0.0
C514 C 0.06379 0.77429 0.38215 0.0
C515 C 0.08276 0.7808 0.403 0.0
H516 H 0.661 0.77369 0.97682 0.0
H517 H 0.67325 0.82992 0.91036 0.0
H518 H 0.63604 0.81005 0.88408 0.0
H519 H 0.6466 0.71858 0.93184 0.0
H520 H 0.62181 0.70494 0.95485 0.0
H521 H 0.64891 0.7241 0.96891 0.0
H522 H 0.61486 0.75506 0.99317 0.0
H523 H 0.58765 0.73603 0.97912 0.0
H524 H 0.58933 0.77079 0.97267 0.0
H525 H 0.59775 0.78385 0.86467 0.0
H526 H 0.56167 0.7528 0.85312 0.0
H527 H 0.575 0.71257 0.9315 0.0
C528 C 0.65606 0.78176 0.95665 0.0
C529 C 0.67011 0.80358 0.94584 0.0
C530 C 0.66259 0.8136 0.91946 0.0
C531 C 0.64155 0.80231 0.90423 0.0
C532 C 0.62819 0.78089 0.91553 0.0
C533 C 0.63518 0.77064 0.94109 0.0
C534 C 0.61781 0.74725 0.94831 0.0
C535 C 0.6348 0.72224 0.95114 0.0
C536 C 0.60144 0.75262 0.97489 0.0
C537 C 0.59998 0.74594 0.92279 0.0
C538 C 0.60627 0.76559 0.90419 0.0
C539 C 0.59264 0.76839 0.87909 0.0
C540 C 0.5721 0.75061 0.87274 0.0
C541 C 0.56533 0.73013 0.89136 0.0
C542 C 0.57956 0.72794 0.91677 0.0
H543 H 0.35914 0.19287 0.40358 0.0
H544 H 0.32579 0.23898 0.47169 0.0
H545 H 0.3589 0.27368 0.46284 0.0
H546 H 0.42777 0.21014 0.41455 0.0
H547 H 0.43578 0.21192 0.37797 0.0
H548 H 0.4096 0.1904 0.38969 0.0
H549 H 0.37623 0.21279 0.35607 0.0
H550 H 0.40233 0.23435 0.34421 0.0
H551 H 0.37165 0.24785 0.35788 0.0
H552 H 0.39557 0.30324 0.44708 0.0
H553 H 0.43311 0.32629 0.42494 0.0
H554 H 0.44217 0.26194 0.36582 0.0
C555 C 0.35861 0.21035 0.4165 0.0
C556 C 0.33989 0.213 0.43853 0.0
C557 C 0.34019 0.23614 0.45508 0.0
C558 C 0.35881 0.2561 0.45008 0.0
C559 C 0.37698 0.25278 0.42833 0.0
C560 C 0.377 0.23057 0.41172 0.0
C561 C 0.39868 0.23205 0.38962 0.0
C562 C 0.41917 0.20981 0.39318 0.0
C563 C 0.38649 0.23175 0.3602 0.0
C564 C 0.41085 0.25854 0.3965 0.0
C565 C 0.39802 0.2701 0.41894 0.0
C566 C 0.40576 0.29443 0.42944 0.0
C567 C 0.42719 0.30735 0.4167 0.0
C568 C 0.44072 0.29601 0.39356 0.0
C569 C 0.43227 0.27124 0.38337 0.0
H570 H 0.34879 0.80941 0.9091 0.0
H571 H 0.32644 0.7696 0.98546 0.0
H572 H 0.36226 0.73724 0.9775 0.0
H573 H 0.36342 0.75014 0.8694 0.0
H574 H 0.39115 0.76458 0.85102 0.0
H575 H 0.36383 0.78491 0.86275 0.0
H576 H 0.3971 0.8146 0.88965 0.0
H577 H 0.4245 0.79433 0.87806 0.0
H578 H 0.41939 0.80014 0.91478 0.0
H579 H 0.40094 0.70963 0.96199 0.0
H580 H 0.43929 0.68788 0.93935 0.0
H581 H 0.43576 0.74419 0.87183 0.0
C582 C 0.35118 0.79375 0.92403 0.0
C583 C 0.33478 0.79232 0.9481 0.0
C584 C 0.33898 0.77158 0.96719 0.0
C585 C 0.35918 0.75292 0.96274 0.0
C586 C 0.375 0.75502 0.93896 0.0
C587 C 0.37118 0.77479 0.91982 0.0
C588 C 0.39101 0.77248 0.89594 0.0
C589 C 0.37648 0.76774 0.86813 0.0
C590 C 0.40907 0.79683 0.89454 0.0
C591 C 0.40665 0.7484 0.90477 0.0
C592 C 0.39708 0.73871 0.92969 0.0
C593 C 0.40855 0.71697 0.9424 0.0
C594 C 0.43042 0.70478 0.92937 0.0
C595 C 0.44064 0.71423 0.90373 0.0
C596 C 0.42839 0.73632 0.89129 0.0
H597 H 0.66744 0.21066 0.39298 0.0
H598 H 0.67784 0.23859 0.478 0.0
H599 H 0.6398 0.26877 0.472 0.0
H600 H 0.64864 0.27238 0.36301 0.0
H601 H 0.6241 0.25834 0.33985 0.0
H602 H 0.65252 0.23916 0.35054 0.0
H603 H 0.62083 0.20298 0.36889 0.0
H604 H 0.5923 0.22204 0.35825 0.0
H605 H 0.59526 0.21147 0.3939 0.0
H606 H 0.60072 0.29588 0.45703 0.0
H607 H 0.56294 0.31802 0.43423 0.0
H608 H 0.57665 0.27168 0.35922 0.0
C609 C 0.66164 0.22296 0.41044 0.0
C610 C 0.67588 0.22228 0.43594 0.0
C611 C 0.6677 0.23902 0.45809 0.0
C612 C 0.64594 0.25612 0.45496 0.0
C613 C 0.63241 0.25625 0.42961 0.0
C614 C 0.63987 0.2401 0.40773 0.0
C615 C 0.62177 0.24401 0.38273 0.0
C616 C 0.63771 0.25408 0.35755 0.0
C617 C 0.60664 0.21862 0.37553 0.0
C618 C 0.60297 0.26491 0.394 0.0
C619 C 0.60954 0.27168 0.42106 0.0
C620 C 0.59535 0.2907 0.43585 0.0
C621 C 0.57389 0.3032 0.42265 0.0
C622 C 0.56666 0.29663 0.39487 0.0
C623 C 0.58147 0.27711 0.38048 0.0
H624 H 0.3804 0.48164 0.89193 0.0
H625 H 0.35268 0.50953 0.97261 0.0
H626 H 0.38247 0.54787 0.96899 0.0
H627 H 0.44921 0.50089 0.90027 0.0
H628 H 0.45333 0.51082 0.86452 0.0
H629 H 0.4296 0.48559 0.87319 0.0
H630 H 0.39193 0.51209 0.84925 0.0
H631 H 0.41554 0.5374 0.84051 0.0
H632 H 0.38578 0.54552 0.85996 0.0
H633 H 0.41568 0.58265 0.95729 0.0
H634 H 0.44947 0.61243 0.9378 0.0
H635 H 0.45587 0.56257 0.86427 0.0
C636 C 0.38068 0.49578 0.90886 0.0
C637 C 0.36406 0.49261 0.93252 0.0
C638 C 0.36488 0.5117 0.95411 0.0
C639 C 0.38187 0.53348 0.95232 0.0
C640 C 0.39792 0.53602 0.92876 0.0
C641 C 0.39744 0.51779 0.90734 0.0
C642 C 0.41666 0.52539 0.88425 0.0
C643 C 0.43849 0.50442 0.88034 0.0
C644 C 0.40157 0.5304 0.85687 0.0
C645 C 0.42812 0.55062 0.89616 0.0
C646 C 0.41702 0.55632 0.92187 0.0
C647 C 0.42449 0.57843 0.93714 0.0
C648 C 0.44379 0.59522 0.92586 0.0
C649 C 0.45547 0.58996 0.89944 0.0
C650 C 0.44738 0.56728 0.88446 0.0
H651 H 0.62055 0.49713 0.47054 0.0
H652 H 0.65814 0.534 0.39921 0.0
H653 H 0.63571 0.50227 0.36792 0.0
H654 H 0.62528 0.42978 0.44432 0.0
H655 H 0.59344 0.42068 0.45895 0.0
H656 H 0.61335 0.44566 0.47562 0.0
H657 H 0.57354 0.47814 0.47273 0.0
H658 H 0.55355 0.45332 0.45601 0.0
H659 H 0.55838 0.48457 0.43938 0.0
H660 H 0.60691 0.46785 0.34427 0.0
H661 H 0.57479 0.43334 0.33041 0.0
H662 H 0.5579 0.41827 0.41766 0.0
C663 C 0.62459 0.49826 0.44841 0.0
C664 C 0.6412 0.51811 0.4374 0.0
C665 C 0.64529 0.51919 0.40817 0.0
C666 C 0.63279 0.50113 0.39023 0.0
C667 C 0.6164 0.48197 0.40183 0.0
C668 C 0.61244 0.48035 0.43027 0.0
C669 C 0.59327 0.45847 0.43749 0.0
C670 C 0.60717 0.4374 0.45514 0.0
C671 C 0.56821 0.46928 0.45226 0.0
C672 C 0.58674 0.44823 0.40864 0.0
C673 C 0.60028 0.46197 0.38831 0.0
C674 C 0.59642 0.45678 0.36003 0.0
C675 C 0.57809 0.43717 0.35237 0.0
C676 C 0.56392 0.42292 0.37292 0.0
C677 C 0.56865 0.42847 0.4014 0.0
H678 H 0.64557 0.48704 0.89512 0.0
H679 H 0.67907 0.52071 0.97067 0.0
H680 H 0.65347 0.56141 0.96278 0.0
H681 H 0.64445 0.54797 0.85453 0.0
H682 H 0.61313 0.54007 0.83794 0.0
H683 H 0.63543 0.51418 0.84849 0.0
H684 H 0.59745 0.49333 0.87767 0.0
H685 H 0.57507 0.51911 0.86721 0.0
H686 H 0.58053 0.51289 0.9037 0.0
H687 H 0.62241 0.59741 0.94827 0.0
H688 H 0.58747 0.62598 0.92859 0.0
H689 H 0.57431 0.56932 0.86203 0.0
C690 C 0.64788 0.50315 0.90973 0.0
C691 C 0.66434 0.50066 0.93354 0.0
C692 C 0.66639 0.52204 0.95244 0.0
C693 C 0.65207 0.54532 0.94803 0.0
C694 C 0.63581 0.54702 0.92456 0.0
C695 C 0.63364 0.52654 0.90568 0.0
C696 C 0.61372 0.53298 0.8829 0.0
C697 C 0.62751 0.53385 0.85427 0.0
C698 C 0.59031 0.51342 0.88289 0.0
C699 C 0.60474 0.5601 0.89216 0.0
C700 C 0.61788 0.56787 0.91614 0.0
C701 C 0.61216 0.59164 0.92936 0.0
C702 C 0.59221 0.60773 0.91802 0.0
C703 C 0.57814 0.60003 0.89367 0.0
C704 C 0.58489 0.57601 0.88043 0.0
H705 H 0.38938 0.50052 0.47008 0.0
H706 H 0.35359 0.53868 0.39856 0.0
H707 H 0.37485 0.50596 0.36741 0.0
H708 H 0.4512 0.48538 0.43894 0.0
H709 H 0.45475 0.45403 0.45573 0.0
H710 H 0.43571 0.47972 0.47232 0.0
H711 H 0.39468 0.44884 0.47536 0.0
H712 H 0.41362 0.42302 0.45878 0.0
H713 H 0.38218 0.43333 0.44412 0.0
H714 H 0.40218 0.47022 0.34391 0.0
H715 H 0.43306 0.43451 0.33017 0.0
H716 H 0.44927 0.41911 0.41746 0.0
C717 C 0.3855 0.50176 0.44793 0.0
C718 C 0.36971 0.52222 0.43684 0.0
C719 C 0.36581 0.5234 0.4076 0.0
C720 C 0.37765 0.50477 0.38973 0.0
C721 C 0.3932 0.48498 0.40142 0.0
C722 C 0.39703 0.48331 0.42987 0.0
C723 C 0.41532 0.46069 0.43717 0.0
C724 C 0.44075 0.47055 0.4519 0.0
C725 C 0.40056 0.44026 0.45491 0.0
C726 C 0.4215 0.45007 0.40835 0.0
C727 C 0.40853 0.46427 0.38798 0.0
C728 C 0.41222 0.4588 0.35972 0.0
C729 C 0.42983 0.43849 0.35212 0.0
C730 C 0.4435 0.42382 0.3727 0.0
C731 C 0.43889 0.42962 0.40117 0.0
H732 H 0.87316 0.01698 0.94365 0.0
H733 H 0.8489 0.98213 0.86483 0.0
H734 H 0.87866 0.01234 0.83983 0.0
H735 H 0.87855 0.08398 0.91873 0.0
H736 H 0.90768 0.09151 0.93935 0.0
H737 H 0.88393 0.06758 0.95144 0.0
H738 H 0.92179 0.03311 0.95541 0.0
H739 H 0.94566 0.05694 0.94337 0.0
H740 H 0.94234 0.02596 0.92541 0.0
H741 H 0.91175 0.04469 0.82321 0.0
H742 H 0.94624 0.07817 0.81555 0.0
H743 H 0.94978 0.09332 0.90469 0.0
C744 C 0.87415 0.01572 0.92114 0.0
C745 C 0.85842 0.99728 0.90621 0.0
C746 C 0.86026 0.99636 0.87673 0.0
C747 C 0.87726 0.01336 0.86232 0.0
C748 C 0.89236 0.03128 0.87759 0.0
C749 C 0.89101 0.0327 0.90631 0.0
C750 C 0.90975 0.05374 0.91749 0.0
C751 C 0.89403 0.07549 0.93265 0.0
C752 C 0.93115 0.04171 0.93654 0.0
C753 C 0.92193 0.06371 0.89054 0.0
C754 C 0.91154 0.05036 0.86785 0.0
C755 C 0.91998 0.05536 0.84078 0.0
C756 C 0.93969 0.0744 0.83668 0.0
C757 C 0.95081 0.08843 0.8595 0.0
C758 C 0.94155 0.08311 0.8868 0.0
H759 H 0.12979 0.98544 0.46404 0.0
H760 H 0.17014 0.01527 0.39061 0.0
H761 H 0.14738 0.98186 0.36171 0.0
H762 H 0.13249 0.91585 0.4437 0.0
H763 H 0.10001 0.90909 0.45827 0.0
H764 H 0.12063 0.93445 0.47331 0.0
H765 H 0.08229 0.96809 0.46679 0.0
H766 H 0.0616 0.9429 0.45172 0.0
H767 H 0.06804 0.97259 0.43264 0.0
H768 H 0.11761 0.94725 0.34037 0.0
H769 H 0.08375 0.91377 0.32844 0.0
H770 H 0.06464 0.90533 0.41621 0.0
C771 C 0.13438 0.98463 0.44199 0.0
C772 C 0.15183 1.00306 0.42966 0.0
C773 C 0.15664 1.00163 0.40055 0.0
C774 C 0.14396 0.98257 0.38398 0.0
C775 C 0.12671 0.9649 0.39682 0.0
C776 C 0.12206 0.96566 0.4252 0.0
C777 C 0.10183 0.94513 0.43375 0.0
C778 C 0.11451 0.92493 0.45342 0.0
C779 C 0.07697 0.95795 0.44699 0.0
C780 C 0.09542 0.933 0.40566 0.0
C781 C 0.11002 0.94462 0.38462 0.0
C782 C 0.10633 0.93777 0.35672 0.0
C783 C 0.08701 0.91877 0.35015 0.0
C784 C 0.07169 0.90673 0.37139 0.0
C785 C 0.07635 0.91376 0.39952 0.0
H786 H 0.11696 0.01599 0.96883 0.0
H787 H 0.16944 0.99009 0.90195 0.0
H788 H 0.15224 0.02557 0.87213 0.0
H789 H 0.06136 0.02922 0.92649 0.0
H790 H 0.05044 0.05758 0.94604 0.0
H791 H 0.06896 0.03204 0.96312 0.0
H792 H 0.10402 0.06615 0.9796 0.0
H793 H 0.0856 0.09183 0.96247 0.0
H794 H 0.12039 0.08663 0.95428 0.0
H795 H 0.12633 0.06095 0.84809 0.0
H796 H 0.09369 0.09363 0.83155 0.0
H797 H 0.05784 0.09666 0.91394 0.0
C798 C 0.12498 0.01783 0.94797 0.0
C799 C 0.14467 1.00021 0.93782 0.0
C800 C 0.15471 0.00353 0.91043 0.0
C801 C 0.14498 0.02359 0.89327 0.0
C802 C 0.12531 0.04032 0.90382 0.0
C803 C 0.11549 0.03773 0.93057 0.0
C804 C 0.09327 0.0573 0.93631 0.0
C805 C 0.06696 0.04319 0.9434 0.0
C806 C 0.10131 0.07663 0.95954 0.0
C807 C 0.09164 0.07087 0.90835 0.0
C808 C 0.11046 0.06091 0.88998 0.0
C809 C 0.11176 0.06914 0.86239 0.0
C810 C 0.09307 0.08768 0.85317 0.0
C811 C 0.07331 0.09788 0.87148 0.0
C812 C 0.07301 0.08966 0.89958 0.0
H813 H 0.89717 0.02706 0.40924 0.0
H814 H 0.83967 0.98091 0.45576 0.0
H815 H 0.86101 0.94032 0.43868 0.0
H816 H 0.90138 0.98132 0.34832 0.0
H817 H 0.93662 0.98723 0.34369 0.0
H818 H 0.91539 0.01275 0.35758 0.0
H819 H 0.94613 0.01663 0.40082 0.0
H820 H 0.96728 0.99098 0.38725 0.0
H821 H 0.95274 0.98791 0.42146 0.0
H822 H 0.89165 0.90522 0.42189 0.0
H823 H 0.92753 0.87723 0.40253 0.0
H824 H 0.96361 0.94522 0.3638 0.0
C825 C 0.88859 0.00843 0.4152 0.0
C826 C 0.86684 0.00723 0.43406 0.0
C827 C 0.85657 0.98239 0.44174 0.0
C828 C 0.86845 0.95919 0.432 0.0
C829 C 0.89034 0.96107 0.41419 0.0
C830 C 0.90008 0.985 0.40543 0.0
C831 C 0.92458 0.98142 0.38708 0.0
C832 C 0.91916 0.99126 0.3574 0.0
C833 C 0.94913 0.99504 0.39993 0.0
C834 C 0.92749 0.9518 0.3876 0.0
C835 C 0.9075 0.94052 0.40343 0.0
C836 C 0.90708 0.91374 0.40897 0.0
C837 C 0.9276 0.89804 0.39805 0.0
C838 C 0.94808 0.90908 0.38148 0.0
C839 C 0.94784 0.93626 0.37593 0.0
H840 H 0.3877 0.38559 0.14927 0.0
H841 H 0.3593 0.30561 0.1405 0.0
H842 H 0.37935 0.2947 0.18622 0.0
H843 H 0.4502 0.37015 0.17777 0.0
H844 H 0.45115 0.398 0.20106 0.0
H845 H 0.43243 0.39979 0.16914 0.0
H846 H 0.38981 0.41233 0.19704 0.0
H847 H 0.40844 0.41056 0.2291 0.0
H848 H 0.3785 0.39132 0.22474 0.0
H849 H 0.40637 0.29191 0.23124 0.0
H850 H 0.43678 0.29766 0.27145 0.0
H851 H 0.44668 0.37972 0.25 0.0
C852 C 0.38554 0.36579 0.157 0.0
C853 C 0.37202 0.34641 0.14126 0.0
C854 C 0.36938 0.32083 0.15231 0.0
C855 C 0.38077 0.31445 0.1782 0.0
C856 C 0.39446 0.33396 0.1929 0.0
C857 C 0.39666 0.35917 0.18272 0.0
C858 C 0.41331 0.37634 0.20175 0.0
C859 C 0.43825 0.38666 0.18652 0.0
C860 C 0.39651 0.39897 0.21387 0.0
C861 C 0.4207 0.35676 0.224 0.0
C862 C 0.40958 0.33244 0.21871 0.0
C863 C 0.41489 0.31097 0.23574 0.0
C864 C 0.43224 0.31442 0.25853 0.0
C865 C 0.44408 0.33918 0.26409 0.0
C866 C 0.43778 0.3606 0.24668 0.0
H867 H 0.64203 0.63 0.66956 0.0
H868 H 0.66316 0.7126 0.66842 0.0
H869 H 0.63427 0.72046 0.70919 0.0
H870 H 0.57304 0.63946 0.68783 0.0
H871 H 0.57131 0.6112 0.71015 0.0
H872 H 0.59448 0.61162 0.6814 0.0
H873 H 0.63356 0.60212 0.71528 0.0
H874 H 0.6105 0.60172 0.74416 0.0
H875 H 0.63887 0.62348 0.74484 0.0
H876 H 0.60222 0.72005 0.7487 0.0
H877 H 0.56884 0.71144 0.78515 0.0
H878 H 0.56773 0.62901 0.76155 0.0
C879 C 0.64056 0.64974 0.67787 0.0
C880 C 0.65515 0.67064 0.66585 0.0
C881 C 0.65269 0.69616 0.67752 0.0
C882 C 0.63618 0.70087 0.7006 0.0
C883 C 0.62217 0.67989 0.71193 0.0
C884 C 0.62415 0.65482 0.70105 0.0
C885 C 0.6065 0.63591 0.71708 0.0
C886 C 0.58506 0.62384 0.69798 0.0
C887 C 0.62337 0.61455 0.73118 0.0
C888 C 0.59417 0.65438 0.73847 0.0
C889 C 0.60356 0.67963 0.73503 0.0
C890 C 0.59476 0.70035 0.75168 0.0
C891 C 0.5757 0.69522 0.77232 0.0
C892 C 0.56557 0.66953 0.77632 0.0
C893 C 0.57519 0.64881 0.75922 0.0
H894 H 0.61822 0.38581 0.1476 0.0
H895 H 0.65655 0.30946 0.14546 0.0
H896 H 0.63558 0.29866 0.19079 0.0
H897 H 0.62344 0.39688 0.22212 0.0
H898 H 0.59124 0.41267 0.22431 0.0
H899 H 0.6105 0.41461 0.19265 0.0
H900 H 0.57066 0.39537 0.16469 0.0
H901 H 0.55128 0.39342 0.19623 0.0
H902 H 0.55638 0.36449 0.17511 0.0
H903 H 0.60736 0.2954 0.23514 0.0
H904 H 0.57581 0.30046 0.27464 0.0
H905 H 0.55707 0.3793 0.24703 0.0
C906 C 0.62225 0.36679 0.15662 0.0
C907 C 0.63892 0.34841 0.14291 0.0
C908 C 0.64399 0.32391 0.15568 0.0
C909 C 0.63209 0.31759 0.18137 0.0
C910 C 0.6154 0.33608 0.19409 0.0
C911 C 0.61067 0.36025 0.18215 0.0
C912 C 0.59147 0.3765 0.19946 0.0
C913 C 0.60498 0.40165 0.21028 0.0
C914 C 0.56594 0.3828 0.18289 0.0
C915 C 0.58581 0.35763 0.22292 0.0
C916 C 0.59974 0.3344 0.21956 0.0
C917 C 0.59659 0.31363 0.23809 0.0
C918 C 0.57859 0.31667 0.26045 0.0
C919 C 0.56407 0.34034 0.26414 0.0
C920 C 0.5681 0.36108 0.24516 0.0
H921 H 0.37076 0.69169 0.67331 0.0
H922 H 0.34739 0.60975 0.67047 0.0
H923 H 0.37413 0.60128 0.71262 0.0
H924 H 0.43768 0.68091 0.69413 0.0
H925 H 0.43955 0.70908 0.71692 0.0
H926 H 0.41711 0.70927 0.68762 0.0
H927 H 0.3774 0.71958 0.72065 0.0
H928 H 0.39976 0.71942 0.75009 0.0
H929 H 0.37087 0.69833 0.74977 0.0
H930 H 0.40519 0.6009 0.75306 0.0
H931 H 0.43908 0.6085 0.78941 0.0
H932 H 0.44234 0.69088 0.76707 0.0
C933 C 0.37094 0.67208 0.68186 0.0
C934 C 0.35704 0.65134 0.66854 0.0
C935 C 0.35813 0.62585 0.6801 0.0
C936 C 0.3731 0.62089 0.70416 0.0
C937 C 0.38685 0.64163 0.71655 0.0
C938 C 0.3859 0.66673 0.7059 0.0
C939 C 0.4036 0.68518 0.72261 0.0
C940 C 0.4258 0.69679 0.70422 0.0
C941 C 0.3869 0.70691 0.73661 0.0
C942 C 0.41492 0.6664 0.744 0.0
C943 C 0.40482 0.64142 0.74016 0.0
C944 C 0.41308 0.62041 0.75645 0.0
C945 C 0.43242 0.62494 0.77701 0.0
C946 C 0.44337 0.6503 0.78121 0.0
C947 C 0.43414 0.67135 0.76466 0.0
H948 H 0.88489 0.89864 0.15688 0.0
H949 H 0.85137 0.82132 0.1421 0.0
H950 H 0.8704 0.80617 0.18676 0.0
H951 H 0.9462 0.87702 0.18345 0.0
H952 H 0.94931 0.90304 0.20885 0.0
H953 H 0.93057 0.90835 0.1774 0.0
H954 H 0.88916 0.92182 0.20676 0.0
H955 H 0.9078 0.91647 0.23835 0.0
H956 H 0.87651 0.89973 0.23284 0.0
H957 H 0.89681 0.79849 0.23109 0.0
H958 H 0.92817 0.79893 0.27084 0.0
H959 H 0.94434 0.88136 0.25597 0.0
C960 C 0.88139 0.87854 0.16305 0.0
C961 C 0.86662 0.86117 0.14591 0.0
C962 C 0.86231 0.8351 0.155 0.0
C963 C 0.87312 0.82629 0.18031 0.0
C964 C 0.88801 0.84384 0.19641 0.0
C965 C 0.89201 0.86946 0.18816 0.0
C966 C 0.91 0.88405 0.2083 0.0
C967 C 0.93553 0.89367 0.19362 0.0
C968 C 0.89496 0.90686 0.2224 0.0
C969 C 0.91609 0.86246 0.22886 0.0
C970 C 0.90306 0.83947 0.22184 0.0
C971 C 0.90685 0.81649 0.23695 0.0
C972 C 0.92474 0.81693 0.25952 0.0
C973 C 0.93872 0.8402 0.26673 0.0
C974 C 0.93381 0.8633 0.25136 0.0
H975 H 0.15084 0.12952 0.6507 0.0
H976 H 0.17474 0.21138 0.64918 0.0
H977 H 0.14611 0.22031 0.68998 0.0
H978 H 0.08251 0.14133 0.66785 0.0
H979 H 0.07945 0.11316 0.69015 0.0
H980 H 0.10309 0.11279 0.66183 0.0
H981 H 0.14125 0.10206 0.69644 0.0
H982 H 0.11772 0.10247 0.72489 0.0
H983 H 0.14681 0.12328 0.72607 0.0
H984 H 0.11325 0.22101 0.72933 0.0
H985 H 0.07832 0.21341 0.76465 0.0
H986 H 0.07534 0.13115 0.74068 0.0
C987 C 0.15008 0.14933 0.65893 0.0
C988 C 0.16527 0.1697 0.64677 0.0
C989 C 0.16376 0.19531 0.65838 0.0
C990 C 0.14742 0.20063 0.68149 0.0
C991 C 0.13268 0.18015 0.69286 0.0
C992 C 0.13386 0.155 0.68203 0.0
C993 C 0.11535 0.13673 0.6977 0.0
C994 C 0.09382 0.12534 0.67822 0.0
C995 C 0.13124 0.11484 0.71213 0.0
C996 C 0.10335 0.15562 0.7188 0.0
C997 C 0.11371 0.18054 0.71568 0.0
C998 C 0.1051 0.20154 0.7321 0.0
C999 C 0.08519 0.19701 0.75209 0.0
C1000 C 0.07407 0.17167 0.75557 0.0
C1001 C 0.08358 0.1507 0.7388 0.0
H1002 H 0.12951 0.86592 0.15126 0.0
H1003 H 0.15931 0.78591 0.15414 0.0
H1004 H 0.1313 0.77753 0.19539 0.0
H1005 H 0.12799 0.87606 0.22642 0.0
H1006 H 0.09793 0.89557 0.22547 0.0
H1007 H 0.1204 0.89539 0.19609 0.0
H1008 H 0.08151 0.88127 0.16368 0.0
H1009 H 0.05894 0.88135 0.19295 0.0
H1010 H 0.06258 0.85222 0.1718 0.0
H1011 H 0.09919 0.77729 0.2355 0.0
H1012 H 0.06598 0.78559 0.27253 0.0
H1013 H 0.05827 0.86627 0.24499 0.0
C1014 C 0.13045 0.84672 0.16072 0.0
C1015 C 0.14655 0.82653 0.14917 0.0
C1016 C 0.1468 0.80159 0.16213 0.0
C1017 C 0.1311 0.79667 0.18575 0.0
C1018 C 0.11536 0.81692 0.19641 0.0
C1019 C 0.11501 0.8415 0.18445 0.0
C1020 C 0.09621 0.85979 0.20003 0.0
C1021 C 0.11155 0.88308 0.21276 0.0
C1022 C 0.07346 0.8692 0.18098 0.0
C1023 C 0.08589 0.84157 0.22245 0.0
C1024 C 0.09719 0.81693 0.21995 0.0
C1025 C 0.09031 0.79656 0.23778 0.0
C1026 C 0.07135 0.80147 0.25873 0.0
C1027 C 0.05949 0.8266 0.26181 0.0
C1028 C 0.06708 0.8469 0.24341 0.0
H1029 H 0.88194 0.20023 0.64061 0.0
H1030 H 0.85684 0.11888 0.63536 0.0
H1031 H 0.88283 0.10888 0.67759 0.0
H1032 H 0.94847 0.18751 0.66219 0.0
H1033 H 0.95063 0.21505 0.68581 0.0
H1034 H 0.92865 0.21649 0.65617 0.0
H1035 H 0.88866 0.22684 0.68881 0.0
H1036 H 0.91056 0.22548 0.71858 0.0
H1037 H 0.88121 0.20503 0.71721 0.0
H1038 H 0.91301 0.10685 0.71835 0.0
H1039 H 0.94594 0.11279 0.75587 0.0
H1040 H 0.9519 0.19561 0.73587 0.0
C1041 C 0.88163 0.18043 0.64864 0.0
C1042 C 0.86747 0.16028 0.63462 0.0
C1043 C 0.86782 0.13452 0.64554 0.0
C1044 C 0.88237 0.12868 0.66961 0.0
C1045 C 0.89644 0.14882 0.68267 0.0
C1046 C 0.8962 0.1742 0.67271 0.0
C1047 C 0.91405 0.19184 0.69022 0.0
C1048 C 0.9368 0.2034 0.67254 0.0
C1049 C 0.89764 0.21358 0.70456 0.0
C1050 C 0.92462 0.17229 0.71127 0.0
C1051 C 0.91402 0.14765 0.70652 0.0
C1052 C 0.92134 0.12608 0.72243 0.0
C1053 C 0.94017 0.12967 0.74365 0.0
C1054 C 0.95158 0.15467 0.74889 0.0
C1055 C 0.9434 0.17631 0.73259 0.0
loop_
_geom_bond_atom_site_label_1
_geom_bond_atom_site_label_2
_geom_bond_distance
_geom_bond_site_symmetry_2
_ccdc_geom_bond_type
C0 C1 1.264 . S
C0 C5 1.479 . S
C0 C10 1.465 . S
C1 C0 1.264 . S
C1 C3 1.339 . S
C1 H28 0.953 . S
C2 C3 1.395 . S
C2 C4 1.320 . S
C3 C1 1.339 . S
C3 C2 1.395 . S
C3 H29 0.929 . S
C4 C2 1.320 . S
C4 C5 1.405 . S
C4 H30 0.930 . S
C5 C0 1.479 . S
C5 C4 1.405 . S
C5 H31 0.931 . S
U6 O7 2.454 1_554 S
U6 O8 2.458 . S
U6 C9 2.984 1_554 S
U6 C10 2.847 1_554 S
U6 C23 2.882 . S
U6 O24 2.441 1_554 S
U6 O25 2.420 . S
U6 O26 2.455 . S
U6 O27 2.449 . S
O7 U6 2.454 1_556 S
O7 C9 1.353 . S
O8 U6 2.458 . S
O8 C9 1.286 1_554 S
C9 U6 2.984 1_556 S
C9 O7 1.353 . S
C9 O8 1.286 1_556 S
C9 C11 1.363 . S
C10 C0 1.465 . S
C10 U6 2.847 1_556 S
C10 O24 1.249 . S
C10 O25 1.202 1_556 S
C11 C9 1.363 . S
C11 C13 1.408 . S
C11 C16 1.342 . S
C12 C13 1.310 . S
C12 C15 1.461 . S
C12 H32 0.932 . S
C13 C11 1.408 . S
C13 C12 1.310 . S
C13 H33 0.930 . S
C14 C15 1.474 . S
C14 C16 1.285 . S
C14 H34 0.929 . S
C15 C12 1.461 . S
C15 C14 1.474 . S
C16 C11 1.342 . S
C16 C14 1.285 . S
C16 H35 0.930 1_556 S
C17 C20 1.424 . S
C17 C22 1.245 . S
C17 C23 1.428 . S
C18 C21 1.260 . S
C18 C22 1.477 . S
C18 H36 0.932 . S
C19 C20 1.384 . S
C19 C21 1.479 . S
C19 H37 0.929 . S
C20 C17 1.424 . S
C20 C19 1.384 . S
C20 H38 0.928 . S
C21 C18 1.260 . S
C21 C19 1.479 . S
C22 C17 1.245 . S
C22 C18 1.477 . S
C22 H39 0.932 . S
C23 U6 2.882 . S
C23 C17 1.428 . S
C23 O26 1.301 . S
C23 O27 1.282 . S
O24 U6 2.441 1_556 S
O24 C10 1.249 . S
O25 U6 2.420 . S
O25 C10 1.202 1_554 S
O26 U6 2.455 . S
O26 C23 1.301 . S
O27 U6 2.449 . S
O27 C23 1.282 . S
H28 C1 0.953 . S
H29 C3 0.929 . S
H30 C4 0.930 . S
H31 C5 0.931 . S
H32 C12 0.932 . S
H33 C13 0.930 . S
H34 C14 0.929 . S
H35 C16 0.930 1_554 S
H36 C18 0.932 . S
H37 C19 0.929 . S
H38 C20 0.928 . S
H39 C22 0.932 . S
C40 C41 1.264 . S
C40 C45 1.479 . S
C40 C50 1.465 . S
C41 C40 1.264 . S
C41 C43 1.339 . S
C41 H68 0.931 . S
C42 C43 1.395 . S
C42 C44 1.320 . S
C43 C41 1.339 . S
C43 C42 1.395 . S
C43 H69 0.929 . S
C44 C42 1.320 . S
C44 C45 1.405 . S
C44 H70 0.930 . S
C45 C40 1.479 . S
C45 C44 1.405 . S
C45 H71 0.931 . S
U46 O47 2.454 . S
U46 O48 2.458 . S
U46 C49 2.984 . S
U46 C50 2.847 . S
U46 C63 2.882 . S
U46 O64 2.441 . S
U46 O65 2.420 . S
U46 O66 2.455 . S
U46 O67 2.449 . S
O47 U46 2.454 . S
O47 C49 1.353 . S
O48 U46 2.458 . S
O48 C49 1.286 . S
C49 U46 2.984 . S
C49 O47 1.353 . S
C49 O48 1.286 . S
C49 C51 1.363 . S
C50 C40 1.465 . S
C50 U46 2.847 . S
C50 O64 1.249 . S
C50 O65 1.202 . S
C51 C49 1.363 . S
C51 C53 1.408 . S
C51 C56 1.342 . S
C52 C53 1.310 . S
C52 C55 1.461 . S
C52 H72 0.932 . S
C53 C51 1.408 . S
C53 C52 1.310 . S
C53 H73 0.930 . S
C54 C55 1.474 . S
C54 C56 1.285 . S
C54 H74 0.929 . S
C55 C52 1.461 . S
C55 C54 1.474 . S
C56 C51 1.342 . S
C56 C54 1.285 . S
C56 H75 0.930 . S
C57 C60 1.424 . S
C57 C62 1.245 . S
C57 C63 1.428 . S
C58 C61 1.260 . S
C58 C62 1.477 . S
C58 H76 0.932 . S
C59 C60 1.384 . S
C59 C61 1.479 . S
C59 H77 0.929 . S
C60 C57 1.424 . S
C60 C59 1.384 . S
C60 H78 0.928 . S
C61 C58 1.260 . S
C61 C59 1.479 . S
C62 C57 1.245 . S
C62 C58 1.477 . S
C62 H79 0.932 . S
C63 U46 2.882 . S
C63 C57 1.428 . S
C63 O66 1.301 . S
C63 O67 1.282 . S
O64 U46 2.441 . S
O64 C50 1.249 . S
O65 U46 2.420 . S
O65 C50 1.202 . S
O66 U46 2.455 . S
O66 C63 1.301 . S
O67 U46 2.449 . S
O67 C63 1.282 . S
H68 C41 0.931 . S
H69 C43 0.929 . S
H70 C44 0.930 . S
H71 C45 0.931 . S
H72 C52 0.932 . S
H73 C53 0.930 . S
H74 C54 0.929 . S
H75 C56 0.930 . S
H76 C58 0.932 . S
H77 C59 0.929 . S
H78 C60 0.928 . S
H79 C62 0.932 . S
C80 C81 1.264 . S
C80 C85 1.479 . S
C80 C90 1.465 . S
C81 C80 1.264 . S
C81 C83 1.339 . S
C81 H108 0.931 . S
C82 C83 1.395 . S
C82 C84 1.320 . S
C83 C81 1.339 . S
C83 C82 1.395 . S
C83 H109 0.929 . S
C84 C82 1.320 . S
C84 C85 1.405 . S
C84 H110 0.930 . S
C85 C80 1.479 . S
C85 C84 1.405 . S
C85 H111 0.931 . S
U86 O87 2.435 1_554 S
U86 O88 2.461 . S
U86 C89 2.976 1_554 S
U86 C90 2.830 1_554 S
U86 C103 2.910 . S
U86 O104 2.416 1_554 S
U86 O105 2.413 1_554 S
U86 O106 2.480 . S
U86 O107 2.471 . S
O87 U86 2.435 1_556 S
O87 C89 1.353 . S
O88 U86 2.461 . S
O88 C89 1.286 1_554 S
C89 U86 2.976 1_556 S
C89 O87 1.353 . S
C89 O88 1.286 1_556 S
C89 C91 1.363 . S
C90 C80 1.465 . S
C90 U86 2.830 1_556 S
C90 O104 1.249 . S
C90 O105 1.202 . S
C91 C89 1.363 . S
C91 C93 1.408 . S
C91 C96 1.342 . S
C92 C93 1.310 . S
C92 C95 1.461 . S
C92 H112 0.932 . S
C93 C91 1.408 . S
C93 C92 1.310 . S
C93 H113 0.930 . S
C94 C95 1.474 . S
C94 C96 1.285 . S
C94 H114 0.929 . S
C95 C92 1.461 . S
C95 C94 1.474 . S
C96 C91 1.342 . S
C96 C94 1.285 . S
C96 H115 0.930 1_556 S
C97 C100 1.424 . S
C97 C102 1.245 . S
C97 C103 1.428 . S
C98 C101 1.260 . S
C98 C102 1.477 . S
C98 H116 0.932 . S
C99 C100 1.384 . S
C99 C101 1.479 . S
C99 H117 0.929 . S
C100 C97 1.424 . S
C100 C99 1.384 . S
C100 H118 0.928 . S
C101 C98 1.260 . S
C101 C99 1.479 . S
C102 C97 1.245 . S
C102 C98 1.477 . S
C102 H119 0.932 . S
C103 U86 2.910 . S
C103 C97 1.428 . S
C103 O106 1.301 . S
C103 O107 1.282 . S
O104 U86 2.416 1_556 S
O104 C90 1.249 . S
O105 U86 2.413 1_556 S
O105 C90 1.202 . S
O106 U86 2.480 . S
O106 C103 1.301 . S
O107 U86 2.471 . S
O107 C103 1.282 . S
H108 C81 0.931 . S
H109 C83 0.929 . S
H110 C84 0.930 . S
H111 C85 0.931 . S
H112 C92 0.932 . S
H113 C93 0.930 . S
H114 C94 0.929 . S
H115 C96 0.930 1_554 S
H116 C98 0.932 . S
H117 C99 0.929 . S
H118 C100 0.928 . S
H119 C102 0.932 . S
C120 C121 1.264 . S
C120 C125 1.479 . S
C120 C130 1.465 . S
C121 C120 1.264 . S
C121 C123 1.339 . S
C121 H148 0.931 . S
C122 C123 1.395 . S
C122 C124 1.320 . S
C123 C121 1.339 . S
C123 C122 1.395 . S
C123 H149 0.929 . S
C124 C122 1.320 . S
C124 C125 1.405 . S
C124 H150 0.930 . S
C125 C120 1.479 . S
C125 C124 1.405 . S
C125 H151 0.931 . S
U126 O127 2.454 . S
U126 O128 2.458 . S
U126 C129 2.984 . S
U126 C130 2.847 . S
U126 C143 2.882 . S
U126 O144 2.441 . S
U126 O145 2.420 . S
U126 O146 2.455 . S
U126 O147 2.449 . S
O127 U126 2.454 . S
O127 C129 1.353 . S
O128 U126 2.458 . S
O128 C129 1.286 . S
C129 U126 2.984 . S
C129 O127 1.353 . S
C129 O128 1.286 . S
C129 C131 1.363 . S
C130 C120 1.465 . S
C130 U126 2.847 . S
C130 O144 1.249 . S
C130 O145 1.202 . S
C131 C129 1.363 . S
C131 C133 1.408 . S
C131 C136 1.342 . S
C132 C133 1.310 . S
C132 C135 1.461 . S
C132 H152 0.932 . S
C133 C131 1.408 . S
C133 C132 1.310 . S
C133 H153 0.930 . S
C134 C135 1.474 . S
C134 C136 1.285 . S
C134 H154 0.929 . S
C135 C132 1.461 . S
C135 C134 1.474 . S
C136 C131 1.342 . S
C136 C134 1.285 . S
C136 H155 0.930 . S
C137 C140 1.424 . S
C137 C142 1.245 . S
C137 C143 1.428 . S
C138 C141 1.260 . S
C138 C142 1.477 . S
C138 H156 0.932 . S
C139 C140 1.384 . S
C139 C141 1.479 . S
C139 H157 0.929 . S
C140 C137 1.424 . S
C140 C139 1.384 . S
C140 H158 0.928 . S
C141 C138 1.260 . S
C141 C139 1.479 . S
C142 C137 1.245 . S
C142 C138 1.477 . S
C142 H159 0.932 . S
C143 U126 2.882 . S
C143 C137 1.428 . S
C143 O146 1.301 . S
C143 O147 1.282 . S
O144 U126 2.441 . S
O144 C130 1.249 . S
O145 U126 2.420 . S
O145 C130 1.202 . S
O146 U126 2.455 . S
O146 C143 1.301 . S
O147 U126 2.449 . S
O147 C143 1.282 . S
H148 C121 0.931 . S
H149 C123 0.929 . S
H150 C124 0.930 . S
H151 C125 0.931 . S
H152 C132 0.932 . S
H153 C133 0.930 . S
H154 C134 0.929 . S
H155 C136 0.930 . S
H156 C138 0.932 . S
H157 C139 0.929 . S
H158 C140 0.928 . S
H159 C142 0.932 . S
C160 C161 1.264 . S
C160 C165 1.479 . S
C160 C170 1.465 . S
C161 C160 1.264 . S
C161 C163 1.339 1_565 S
C161 H188 0.953 . S
C162 C163 1.395 . S
C162 C164 1.320 . S
C163 C161 1.339 1_545 S
C163 C162 1.395 . S
C163 H189 0.929 . S
C164 C162 1.320 . S
C164 C165 1.405 1_545 S
C164 H190 0.930 . S
C165 C160 1.479 . S
C165 C164 1.405 1_565 S
C165 H191 0.931 . S
U166 O167 2.454 1_554 S
U166 O168 2.458 . S
U166 C169 2.984 1_554 S
U166 C170 2.847 1_554 S
U166 C183 2.882 . S
U166 O184 2.441 1_554 S
U166 O185 2.420 . S
U166 O186 2.455 . S
U166 O187 2.449 . S
O167 U166 2.454 1_556 S
O167 C169 1.353 . S
O168 U166 2.458 . S
O168 C169 1.286 1_554 S
C169 U166 2.984 1_556 S
C169 O167 1.353 . S
C169 O168 1.286 1_556 S
C169 C171 1.363 . S
C170 C160 1.465 . S
C170 U166 2.847 1_556 S
C170 O184 1.249 . S
C170 O185 1.202 1_556 S
C171 C169 1.363 . S
C171 C173 1.408 . S
C171 C176 1.342 . S
C172 C173 1.310 . S
C172 C175 1.461 . S
C172 H192 0.932 . S
C173 C171 1.408 . S
C173 C172 1.310 . S
C173 H193 0.930 . S
C174 C175 1.474 . S
C174 C176 1.285 . S
C174 H194 0.929 . S
C175 C172 1.461 . S
C175 C174 1.474 . S
C176 C171 1.342 . S
C176 C174 1.285 . S
C176 H195 0.930 1_556 S
C177 C180 1.424 . S
C177 C182 1.245 . S
C177 C183 1.428 . S
C178 C181 1.260 . S
C178 C182 1.477 . S
C178 H196 0.932 . S
C179 C180 1.384 . S
C179 C181 1.479 . S
C179 H197 0.929 . S
C180 C177 1.424 . S
C180 C179 1.384 . S
C180 H198 0.928 . S
C181 C178 1.260 . S
C181 C179 1.479 . S
C182 C177 1.245 . S
C182 C178 1.477 . S
C182 H199 0.932 . S
C183 U166 2.882 . S
C183 C177 1.428 . S
C183 O186 1.301 . S
C183 O187 1.282 . S
O184 U166 2.441 1_556 S
O184 C170 1.249 . S
O185 U166 2.420 . S
O185 C170 1.202 1_554 S
O186 U166 2.455 . S
O186 C183 1.301 . S
O187 U166 2.449 . S
O187 C183 1.282 . S
H188 C161 0.953 . S
H189 C163 0.929 . S
H190 C164 0.930 . S
H191 C165 0.931 . S
H192 C172 0.932 . S
H193 C173 0.930 . S
H194 C174 0.929 . S
H195 C176 0.930 1_554 S
H196 C178 0.932 . S
H197 C179 0.929 . S
H198 C180 0.928 . S
H199 C182 0.932 . S
C200 C201 1.264 . S
C200 C205 1.479 . S
C200 C210 1.465 . S
C201 C200 1.264 . S
C201 C203 1.339 . S
C201 H228 0.931 . S
C202 C203 1.395 . S
C202 C204 1.320 . S
C203 C201 1.339 . S
C203 C202 1.395 . S
C203 H229 0.929 . S
C204 C202 1.320 . S
C204 C205 1.405 . S
C204 H230 0.930 . S
C205 C200 1.479 . S
C205 C204 1.405 . S
C205 H231 0.931 . S
U206 O207 2.454 . S
U206 O208 2.458 . S
U206 C209 2.984 . S
U206 C210 2.847 . S
U206 C223 2.882 . S
U206 O224 2.441 . S
U206 O225 2.420 . S
U206 O226 2.455 . S
U206 O227 2.449 . S
O207 U206 2.454 . S
O207 C209 1.353 . S
O208 U206 2.458 . S
O208 C209 1.286 . S
C209 U206 2.984 . S
C209 O207 1.353 . S
C209 O208 1.286 . S
C209 C211 1.363 . S
C210 C200 1.465 . S
C210 U206 2.847 . S
C210 O224 1.249 . S
C210 O225 1.202 . S
C211 C209 1.363 . S
C211 C213 1.408 . S
C211 C216 1.342 . S
C212 C213 1.310 . S
C212 C215 1.461 . S
C212 H232 0.932 . S
C213 C211 1.408 . S
C213 C212 1.310 . S
C213 H233 0.930 . S
C214 C215 1.474 . S
C214 C216 1.285 . S
C214 H234 0.929 . S
C215 C212 1.461 . S
C215 C214 1.474 . S
C216 C211 1.342 . S
C216 C214 1.285 . S
C216 H235 0.930 . S
C217 C220 1.424 . S
C217 C222 1.245 . S
C217 C223 1.428 . S
C218 C221 1.260 1_545 S
C218 C222 1.477 . S
C218 H236 0.932 . S
C219 C220 1.384 . S
C219 C221 1.479 1_545 S
C219 H237 0.929 1_545 S
C220 C217 1.424 . S
C220 C219 1.384 . S
C220 H238 0.928 . S
C221 C218 1.260 1_565 S
C221 C219 1.479 1_565 S
C222 C217 1.245 . S
C222 C218 1.477 . S
C222 H239 0.932 . S
C223 U206 2.882 . S
C223 C217 1.428 . S
C223 O226 1.301 . S
C223 O227 1.282 . S
O224 U206 2.441 . S
O224 C210 1.249 . S
O225 U206 2.420 . S
O225 C210 1.202 . S
O226 U206 2.455 . S
O226 C223 1.301 . S
O227 U206 2.449 . S
O227 C223 1.282 . S
H228 C201 0.931 . S
H229 C203 0.929 . S
H230 C204 0.930 . S
H231 C205 0.931 . S
H232 C212 0.932 . S
H233 C213 0.930 . S
H234 C214 0.929 . S
H235 C216 0.930 . S
H236 C218 0.932 . S
H237 C219 0.929 1_565 S
H238 C220 0.928 . S
H239 C222 0.932 . S
C240 C241 1.264 . S
C240 C245 1.479 . S
C240 C250 1.465 . S
C241 C240 1.264 . S
C241 C243 1.339 . S
C241 H268 0.931 . S
C242 C243 1.395 1_545 S
C242 C244 1.320 1_545 S
C243 C241 1.339 . S
C243 C242 1.395 1_565 S
C243 H269 0.929 1_565 S
C244 C242 1.320 1_565 S
C244 C245 1.405 . S
C244 H270 0.930 1_565 S
C245 C240 1.479 . S
C245 C244 1.405 . S
C245 H271 0.931 . S
U246 O247 2.435 1_554 S
U246 O248 2.461 . S
U246 C249 2.976 1_554 S
U246 C250 2.830 1_554 S
U246 C263 2.910 . S
U246 O264 2.417 1_554 S
U246 O265 2.413 1_554 S
U246 O266 2.480 . S
U246 O267 2.471 . S
O247 U246 2.435 1_556 S
O247 C249 1.353 . S
O248 U246 2.461 . S
O248 C249 1.286 1_554 S
C249 U246 2.976 1_556 S
C249 O247 1.353 . S
C249 O248 1.286 1_556 S
C249 C251 1.363 . S
C250 C240 1.465 . S
C250 U246 2.830 1_556 S
C250 O264 1.249 . S
C250 O265 1.202 . S
C251 C249 1.363 . S
C251 C253 1.408 . S
C251 C256 1.342 . S
C252 C253 1.310 . S
C252 C255 1.461 . S
C252 H272 0.932 . S
C253 C251 1.408 . S
C253 C252 1.310 . S
C253 H273 0.930 . S
C254 C255 1.474 . S
C254 C256 1.285 . S
C254 H274 0.929 . S
C255 C252 1.461 . S
C255 C254 1.474 . S
C256 C251 1.342 . S
C256 C254 1.285 . S
C256 H275 0.930 1_556 S
C257 C260 1.424 . S
C257 C262 1.245 . S
C257 C263 1.428 . S
C258 C261 1.260 . S
C258 C262 1.477 . S
C258 H276 0.932 . S
C259 C260 1.384 . S
C259 C261 1.479 . S
C259 H277 0.929 . S
C260 C257 1.424 . S
C260 C259 1.384 . S
C260 H278 0.928 . S
C261 C258 1.260 . S
C261 C259 1.479 . S
C262 C257 1.245 . S
C262 C258 1.477 . S
C262 H279 0.932 . S
C263 U246 2.910 . S
C263 C257 1.428 . S
C263 O266 1.301 . S
C263 O267 1.282 . S
O264 U246 2.417 1_556 S
O264 C250 1.249 . S
O265 U246 2.413 1_556 S
O265 C250 1.202 . S
O266 U246 2.480 . S
O266 C263 1.301 . S
O267 U246 2.471 . S
O267 C263 1.282 . S
H268 C241 0.931 . S
H269 C243 0.929 1_545 S
H270 C244 0.930 1_545 S
H271 C245 0.931 . S
H272 C252 0.932 . S
H273 C253 0.930 . S
H274 C254 0.929 . S
H275 C256 0.930 1_554 S
H276 C258 0.932 . S
H277 C259 0.929 . S
H278 C260 0.928 . S
H279 C262 0.932 . S
C280 C281 1.264 . S
C280 C285 1.479 . S
C280 C290 1.465 . S
C281 C280 1.264 . S
C281 C283 1.339 . S
C281 H308 0.931 . S
C282 C283 1.395 . S
C282 C284 1.320 . S
C283 C281 1.339 . S
C283 C282 1.395 . S
C283 H309 0.929 . S
C284 C282 1.320 . S
C284 C285 1.405 . S
C284 H310 0.930 . S
C285 C280 1.479 . S
C285 C284 1.405 . S
C285 H311 0.931 . S
U286 O287 2.454 . S
U286 O288 2.458 . S
U286 C289 2.984 . S
U286 C290 2.847 . S
U286 C303 2.882 . S
U286 O304 2.441 . S
U286 O305 2.420 . S
U286 O306 2.455 . S
U286 O307 2.449 . S
O287 U286 2.454 . S
O287 C289 1.353 . S
O288 U286 2.458 . S
O288 C289 1.286 . S
C289 U286 2.984 . S
C289 O287 1.353 . S
C289 O288 1.286 . S
C289 C291 1.363 . S
C290 C280 1.465 . S
C290 U286 2.847 . S
C290 O304 1.249 . S
C290 O305 1.202 . S
C291 C289 1.363 . S
C291 C293 1.408 . S
C291 C296 1.342 . S
C292 C293 1.310 . S
C292 C295 1.461 . S
C292 H312 0.932 . S
C293 C291 1.408 . S
C293 C292 1.310 . S
C293 H313 0.930 . S
C294 C295 1.474 . S
C294 C296 1.285 . S
C294 H314 0.929 . S
C295 C292 1.461 . S
C295 C294 1.474 . S
C296 C291 1.342 . S
C296 C294 1.285 . S
C296 H315 0.930 . S
C297 C300 1.424 . S
C297 C302 1.245 . S
C297 C303 1.428 . S
C298 C301 1.260 . S
C298 C302 1.477 1_565 S
C298 H316 0.932 . S
C299 C300 1.384 1_565 S
C299 C301 1.479 . S
C299 H317 0.929 . S
C300 C297 1.424 . S
C300 C299 1.384 1_545 S
C300 H318 0.928 . S
C301 C298 1.260 . S
C301 C299 1.479 . S
C302 C297 1.245 . S
C302 C298 1.477 1_545 S
C302 H319 0.932 . S
C303 U286 2.882 . S
C303 C297 1.428 . S
C303 O306 1.301 . S
C303 O307 1.282 . S
O304 U286 2.441 . S
O304 C290 1.249 . S
O305 U286 2.420 . S
O305 C290 1.202 . S
O306 U286 2.455 . S
O306 C303 1.301 . S
O307 U286 2.449 . S
O307 C303 1.282 . S
H308 C281 0.931 . S
H309 C283 0.929 . S
H310 C284 0.930 . S
H311 C285 0.931 . S
H312 C292 0.932 . S
H313 C293 0.930 . S
H314 C294 0.929 . S
H315 C296 0.930 . S
H316 C298 0.932 . S
H317 C299 0.929 . S
H318 C300 0.928 . S
H319 C302 0.932 . S
Sc320 O323 2.025 . S
Sc320 O330 2.105 1_455 S
Sc320 O333 2.105 . S
Sc320 O336 2.105 . S
Sc320 O339 2.105 1_455 S
Sc321 O323 2.025 . S
Sc321 O331 2.105 1_455 S
Sc321 O335 2.105 . S
Sc321 O337 2.105 . S
Sc321 O341 2.105 1_455 S
Sc322 O323 2.025 . S
Sc322 O332 2.105 1_455 S
Sc322 O334 2.105 . S
Sc322 O338 2.105 . S
Sc322 O340 2.105 1_455 S
O323 Sc320 2.025 . S
O323 Sc321 2.025 . S
O323 Sc322 2.025 . S
C324 O330 1.268 . S
C324 O340 1.268 . S
C325 O331 1.268 . S
C325 O339 1.268 . S
C326 O332 1.268 . S
C326 O341 1.268 . S
C327 O333 1.268 . S
C327 O337 1.268 . S
C328 O334 1.268 . S
C328 O336 1.268 . S
C329 O335 1.268 . S
C329 O338 1.268 . S
O330 Sc320 2.105 1_655 S
O330 C324 1.268 . S
O331 Sc321 2.105 1_655 S
O331 C325 1.268 . S
O332 Sc322 2.105 1_655 S
O332 C326 1.268 . S
O333 Sc320 2.105 . S
O333 C327 1.268 . S
O334 Sc322 2.105 . S
O334 C328 1.268 . S
O335 Sc321 2.105 . S
O335 C329 1.268 . S
O336 Sc320 2.105 . S
O336 C328 1.268 . S
O337 Sc321 2.105 . S
O337 C327 1.268 . S
O338 Sc322 2.105 . S
O338 C329 1.268 . S
O339 Sc320 2.105 1_655 S
O339 C325 1.268 . S
O340 Sc322 2.105 1_655 S
O340 C324 1.268 . S
O341 Sc321 2.105 1_655 S
O341 C326 1.268 . S
Sc342 O345 2.025 . S
Sc342 O352 2.105 . S
Sc342 O355 2.105 1_455 S
Sc342 O358 2.105 1_455 S
Sc342 O361 2.105 . S
Sc343 O345 2.025 . S
Sc343 O353 2.105 . S
Sc343 O357 2.105 1_455 S
Sc343 O359 2.105 1_455 S
Sc343 O363 2.105 . S
Sc344 O345 2.025 . S
Sc344 O354 2.105 . S
Sc344 O356 2.105 1_455 S
Sc344 O360 2.105 1_455 S
Sc344 O362 2.105 . S
O345 Sc342 2.025 . S
O345 Sc343 2.025 . S
O345 Sc344 2.025 . S
C346 O352 1.268 . S
C346 O362 1.268 . S
C347 O353 1.268 . S
C347 O361 1.268 . S
C348 O354 1.268 . S
C348 O363 1.268 . S
C349 O355 1.268 . S
C349 O359 1.268 . S
C350 O356 1.268 . S
C350 O358 1.268 . S
C351 O357 1.268 . S
C351 O360 1.268 . S
O352 Sc342 2.105 . S
O352 C346 1.268 . S
O353 Sc343 2.105 . S
O353 C347 1.268 . S
O354 Sc344 2.105 . S
O354 C348 1.268 . S
O355 Sc342 2.105 1_655 S
O355 C349 1.268 . S
O356 Sc344 2.105 1_655 S
O356 C350 1.268 . S
O357 Sc343 2.105 1_655 S
O357 C351 1.268 . S
O358 Sc342 2.105 1_655 S
O358 C350 1.268 . S
O359 Sc343 2.105 1_655 S
O359 C349 1.268 . S
O360 Sc344 2.105 1_655 S
O360 C351 1.268 . S
O361 Sc342 2.105 . S
O361 C347 1.268 . S
O362 Sc344 2.105 . S
O362 C346 1.268 . S
O363 Sc343 2.105 . S
O363 C348 1.268 . S
Sc364 O367 2.025 . S
Sc364 O374 2.105 . S
Sc364 O377 2.105 . S
Sc364 O380 2.105 . S
Sc364 O383 2.105 . S
Sc365 O367 2.025 . S
Sc365 O375 2.105 . S
Sc365 O379 2.105 . S
Sc365 O381 2.105 . S
Sc365 O385 2.105 . S
Sc366 O367 2.025 . S
Sc366 O376 2.105 . S
Sc366 O378 2.105 . S
Sc366 O382 2.105 . S
Sc366 O384 2.105 . S
O367 Sc364 2.025 . S
O367 Sc365 2.025 . S
O367 Sc366 2.025 . S
C368 O374 1.268 . S
C368 O384 1.268 . S
C369 O375 1.268 . S
C369 O383 1.268 . S
C370 O376 1.268 . S
C370 O385 1.268 . S
C371 O377 1.268 . S
C371 O381 1.268 . S
C372 O378 1.268 . S
C372 O380 1.268 . S
C373 O379 1.268 . S
C373 O382 1.268 . S
O374 Sc364 2.105 . S
O374 C368 1.268 . S
O375 Sc365 2.105 . S
O375 C369 1.268 . S
O376 Sc366 2.105 . S
O376 C370 1.268 . S
O377 Sc364 2.105 . S
O377 C371 1.268 . S
O378 Sc366 2.105 . S
O378 C372 1.268 . S
O379 Sc365 2.105 . S
O379 C373 1.268 . S
O380 Sc364 2.105 . S
O380 C372 1.268 . S
O381 Sc365 2.105 . S
O381 C371 1.268 . S
O382 Sc366 2.105 . S
O382 C373 1.268 . S
O383 Sc364 2.105 . S
O383 C369 1.268 . S
O384 Sc366 2.105 . S
O384 C368 1.268 . S
O385 Sc365 2.105 . S
O385 C370 1.268 . S
Sc386 O389 2.025 . S
Sc386 O396 2.105 . S
Sc386 O399 2.105 . S
Sc386 O402 2.105 . S
Sc386 O405 2.105 . S
Sc387 O389 2.025 . S
Sc387 O397 2.105 . S
Sc387 O401 2.105 . S
Sc387 O403 2.105 . S
Sc387 O407 2.105 . S
Sc388 O389 2.025 . S
Sc388 O398 2.105 . S
Sc388 O400 2.105 . S
Sc388 O404 2.105 . S
Sc388 O406 2.105 . S
O389 Sc386 2.025 . S
O389 Sc387 2.025 . S
O389 Sc388 2.025 . S
C390 O396 1.268 . S
C390 O406 1.268 . S
C391 O397 1.268 . S
C391 O405 1.268 . S
C392 O398 1.268 . S
C392 O407 1.268 . S
C393 O399 1.268 . S
C393 O403 1.268 . S
C394 O400 1.268 . S
C394 O402 1.268 . S
C395 O401 1.268 . S
C395 O404 1.268 . S
O396 Sc386 2.105 . S
O396 C390 1.268 . S
O397 Sc387 2.105 . S
O397 C391 1.268 . S
O398 Sc388 2.105 . S
O398 C392 1.268 . S
O399 Sc386 2.105 . S
O399 C393 1.268 . S
O400 Sc388 2.105 . S
O400 C394 1.268 . S
O401 Sc387 2.105 . S
O401 C395 1.268 . S
O402 Sc386 2.105 . S
O402 C394 1.268 . S
O403 Sc387 2.105 . S
O403 C393 1.268 . S
O404 Sc388 2.105 . S
O404 C395 1.268 . S
O405 Sc386 2.105 . S
O405 C391 1.268 . S
O406 Sc388 2.105 . S
O406 C390 1.268 . S
O407 Sc387 2.105 . S
O407 C392 1.268 . S
H408 C420 0.930 . S
H409 C422 0.930 . S
H410 C423 0.930 . S
H411 C427 0.959 . S
H412 C427 0.959 . S
H413 C427 0.961 . S
H414 C428 0.960 . S
H415 C428 0.961 . S
H416 C428 0.959 . S
H417 C431 0.929 . S
H418 C432 0.931 . S
H419 C434 0.930 . S
C420 H408 0.930 . S
C420 C421 1.399 . S
C420 C425 1.399 . S
C421 C420 1.399 . S
C421 C422 1.376 . S
C422 H409 0.930 . S
C422 C421 1.376 . S
C422 C423 1.388 . S
C423 H410 0.930 . S
C423 C422 1.388 . S
C423 C424 1.390 . S
C424 C423 1.390 . S
C424 C425 1.394 . S
C424 C430 1.465 . S
C425 C420 1.399 . S
C425 C424 1.394 . S
C425 C426 1.516 . S
C426 C425 1.516 . S
C426 C427 1.502 . S
C426 C428 1.561 . S
C426 C429 1.526 . S
C427 H411 0.959 . S
C427 H412 0.959 . S
C427 H413 0.961 . S
C427 C426 1.502 . S
C428 H414 0.960 . S
C428 H415 0.961 . S
C428 H416 0.959 . S
C428 C426 1.561 . S
C429 C426 1.526 . S
C429 C430 1.396 . S
C429 C434 1.390 . S
C430 C424 1.465 . S
C430 C429 1.396 . S
C430 C431 1.399 . S
C431 H417 0.929 . S
C431 C430 1.399 . S
C431 C432 1.385 . S
C432 H418 0.931 . S
C432 C431 1.385 . S
C432 C433 1.389 . S
C433 C432 1.389 . S
C433 C434 1.387 . S
C434 H419 0.930 . S
C434 C429 1.390 . S
C434 C433 1.387 . S
H435 C447 0.930 . S
H436 C449 0.930 . S
H437 C450 0.930 . S
H438 C454 0.959 . S
H439 C454 0.959 . S
H440 C454 0.961 . S
H441 C455 0.960 . S
H442 C455 0.961 . S
H443 C455 0.959 . S
H444 C458 0.929 . S
H445 C459 0.931 . S
H446 C461 0.930 . S
C447 H435 0.930 . S
C447 C448 1.399 . S
C447 C452 1.399 . S
C448 C447 1.399 . S
C448 C449 1.376 . S
C449 H436 0.930 . S
C449 C448 1.376 . S
C449 C450 1.388 . S
C450 H437 0.930 . S
C450 C449 1.388 . S
C450 C451 1.390 . S
C451 C450 1.390 . S
C451 C452 1.394 . S
C451 C457 1.465 . S
C452 C447 1.399 . S
C452 C451 1.394 . S
C452 C453 1.516 . S
C453 C452 1.516 . S
C453 C454 1.502 . S
C453 C455 1.561 . S
C453 C456 1.526 . S
C454 H438 0.959 . S
C454 H439 0.959 . S
C454 H440 0.961 . S
C454 C453 1.502 . S
C455 H441 0.960 . S
C455 H442 0.961 . S
C455 H443 0.959 . S
C455 C453 1.561 . S
C456 C453 1.526 . S
C456 C457 1.396 . S
C456 C461 1.390 . S
C457 C451 1.465 . S
C457 C456 1.396 . S
C457 C458 1.399 . S
C458 H444 0.929 . S
C458 C457 1.399 . S
C458 C459 1.385 . S
C459 H445 0.931 . S
C459 C458 1.385 . S
C459 C460 1.389 . S
C460 C459 1.389 . S
C460 C461 1.387 . S
C461 H446 0.930 . S
C461 C456 1.390 . S
C461 C460 1.387 . S
H462 C474 0.930 . S
H463 C476 0.930 . S
H464 C477 0.930 . S
H465 C481 0.959 . S
H466 C481 0.959 . S
H467 C481 0.961 . S
H468 C482 0.960 . S
H469 C482 0.961 . S
H470 C482 0.959 . S
H471 C485 0.929 . S
H472 C486 0.931 . S
H473 C488 0.930 . S
C474 H462 0.930 . S
C474 C475 1.399 . S
C474 C479 1.399 . S
C475 C474 1.399 . S
C475 C476 1.376 . S
C476 H463 0.930 . S
C476 C475 1.376 . S
C476 C477 1.388 . S
C477 H464 0.930 . S
C477 C476 1.388 . S
C477 C478 1.390 . S
C478 C477 1.390 . S
C478 C479 1.394 . S
C478 C484 1.465 . S
C479 C474 1.399 . S
C479 C478 1.394 . S
C479 C480 1.516 . S
C480 C479 1.516 . S
C480 C481 1.502 . S
C480 C482 1.561 . S
C480 C483 1.526 . S
C481 H465 0.959 . S
C481 H466 0.959 . S
C481 H467 0.961 . S
C481 C480 1.502 . S
C482 H468 0.960 . S
C482 H469 0.961 . S
C482 H470 0.959 . S
C482 C480 1.561 . S
C483 C480 1.526 . S
C483 C484 1.396 . S
C483 C488 1.390 . S
C484 C478 1.465 . S
C484 C483 1.396 . S
C484 C485 1.399 . S
C485 H471 0.929 . S
C485 C484 1.399 . S
C485 C486 1.385 . S
C486 H472 0.931 . S
C486 C485 1.385 . S
C486 C487 1.389 . S
C487 C486 1.389 . S
C487 C488 1.387 . S
C488 H473 0.930 . S
C488 C483 1.390 . S
C488 C487 1.387 . S
H489 C501 0.930 . S
H490 C503 0.930 . S
H491 C504 0.930 . S
H492 C508 0.959 . S
H493 C508 0.959 . S
H494 C508 0.961 . S
H495 C509 0.960 . S
H496 C509 0.961 . S
H497 C509 0.959 . S
H498 C512 0.929 . S
H499 C513 0.931 . S
H500 C515 0.930 . S
C501 H489 0.930 . S
C501 C502 1.399 . S
C501 C506 1.399 . S
C502 C501 1.399 . S
C502 C503 1.376 . S
C503 H490 0.930 . S
C503 C502 1.376 . S
C503 C504 1.388 . S
C504 H491 0.930 . S
C504 C503 1.388 . S
C504 C505 1.390 . S
C505 C504 1.390 . S
C505 C506 1.394 . S
C505 C511 1.465 . S
C506 C501 1.399 . S
C506 C505 1.394 . S
C506 C507 1.516 . S
C507 C506 1.516 . S
C507 C508 1.502 . S
C507 C509 1.561 . S
C507 C510 1.526 . S
C508 H492 0.959 . S
C508 H493 0.959 . S
C508 H494 0.961 . S
C508 C507 1.502 . S
C509 H495 0.960 . S
C509 H496 0.961 . S
C509 H497 0.959 . S
C509 C507 1.561 . S
C510 C507 1.526 . S
C510 C511 1.396 . S
C510 C515 1.390 . S
C511 C505 1.465 . S
C511 C510 1.396 . S
C511 C512 1.399 . S
C512 H498 0.929 . S
C512 C511 1.399 . S
C512 C513 1.385 . S
C513 H499 0.931 . S
C513 C512 1.385 . S
C513 C514 1.389 . S
C514 C513 1.389 . S
C514 C515 1.387 . S
C515 H500 0.930 . S
C515 C510 1.390 . S
C515 C514 1.387 . S
H516 C528 0.930 . S
H517 C530 0.930 . S
H518 C531 0.930 . S
H519 C535 0.959 . S
H520 C535 0.959 . S
H521 C535 0.961 . S
H522 C536 0.960 . S
H523 C536 0.961 . S
H524 C536 0.959 . S
H525 C539 0.929 . S
H526 C540 0.931 . S
H527 C542 0.930 . S
C528 H516 0.930 . S
C528 C529 1.399 . S
C528 C533 1.399 . S
C529 C528 1.399 . S
C529 C530 1.376 . S
C530 H517 0.930 . S
C530 C529 1.376 . S
C530 C531 1.388 . S
C531 H518 0.930 . S
C531 C530 1.388 . S
C531 C532 1.390 . S
C532 C531 1.390 . S
C532 C533 1.394 . S
C532 C538 1.465 . S
C533 C528 1.399 . S
C533 C532 1.394 . S
C533 C534 1.516 . S
C534 C533 1.516 . S
C534 C535 1.502 . S
C534 C536 1.561 . S
C534 C537 1.526 . S
C535 H519 0.959 . S
C535 H520 0.959 . S
C535 H521 0.961 . S
C535 C534 1.502 . S
C536 H522 0.960 . S
C536 H523 0.961 . S
C536 H524 0.959 . S
C536 C534 1.561 . S
C537 C534 1.526 . S
C537 C538 1.396 . S
C537 C542 1.390 . S
C538 C532 1.465 . S
C538 C537 1.396 . S
C538 C539 1.399 . S
C539 H525 0.929 . S
C539 C538 1.399 . S
C539 C540 1.385 . S
C540 H526 0.931 . S
C540 C539 1.385 . S
C540 C541 1.389 . S
C541 C540 1.389 . S
C541 C542 1.387 . S
C542 H527 0.930 . S
C542 C537 1.390 . S
C542 C541 1.387 . S
H543 C555 0.930 . S
H544 C557 0.930 . S
H545 C558 0.930 . S
H546 C562 0.959 . S
H547 C562 0.959 . S
H548 C562 0.961 . S
H549 C563 0.960 . S
H550 C563 0.961 . S
H551 C563 0.959 . S
H552 C566 0.929 . S
H553 C567 0.931 . S
H554 C569 0.930 . S
C555 H543 0.930 . S
C555 C556 1.399 . S
C555 C560 1.399 . S
C556 C555 1.399 . S
C556 C557 1.376 . S
C557 H544 0.930 . S
C557 C556 1.376 . S
C557 C558 1.388 . S
C558 H545 0.930 . S
C558 C557 1.388 . S
C558 C559 1.390 . S
C559 C558 1.390 . S
C559 C560 1.394 . S
C559 C565 1.465 . S
C560 C555 1.399 . S
C560 C559 1.394 . S
C560 C561 1.516 . S
C561 C560 1.516 . S
C561 C562 1.502 . S
C561 C563 1.561 . S
C561 C564 1.526 . S
C562 H546 0.959 . S
C562 H547 0.959 . S
C562 H548 0.961 . S
C562 C561 1.502 . S
C563 H549 0.960 . S
C563 H550 0.961 . S
C563 H551 0.959 . S
C563 C561 1.561 . S
C564 C561 1.526 . S
C564 C565 1.396 . S
C564 C569 1.390 . S
C565 C559 1.465 . S
C565 C564 1.396 . S
C565 C566 1.399 . S
C566 H552 0.929 . S
C566 C565 1.399 . S
C566 C567 1.385 . S
C567 H553 0.931 . S
C567 C566 1.385 . S
C567 C568 1.389 . S
C568 C567 1.389 . S
C568 C569 1.387 . S
C569 H554 0.930 . S
C569 C564 1.390 . S
C569 C568 1.387 . S
H570 C582 0.930 . S
H571 C584 0.930 . S
H572 C585 0.930 . S
H573 C589 0.959 . S
H574 C589 0.959 . S
H575 C589 0.961 . S
H576 C590 0.960 . S
H577 C590 0.961 . S
H578 C590 0.959 . S
H579 C593 0.929 . S
H580 C594 0.931 . S
H581 C596 0.930 . S
C582 H570 0.930 . S
C582 C583 1.399 . S
C582 C587 1.399 . S
C583 C582 1.399 . S
C583 C584 1.376 . S
C584 H571 0.930 . S
C584 C583 1.376 . S
C584 C585 1.388 . S
C585 H572 0.930 . S
C585 C584 1.388 . S
C585 C586 1.390 . S
C586 C585 1.390 . S
C586 C587 1.394 . S
C586 C592 1.465 . S
C587 C582 1.399 . S
C587 C586 1.394 . S
C587 C588 1.516 . S
C588 C587 1.516 . S
C588 C589 1.502 . S
C588 C590 1.561 . S
C588 C591 1.526 . S
C589 H573 0.959 . S
C589 H574 0.959 . S
C589 H575 0.961 . S
C589 C588 1.502 . S
C590 H576 0.960 . S
C590 H577 0.961 . S
C590 H578 0.959 . S
C590 C588 1.561 . S
C591 C588 1.526 . S
C591 C592 1.396 . S
C591 C596 1.390 . S
C592 C586 1.465 . S
C592 C591 1.396 . S
C592 C593 1.399 . S
C593 H579 0.929 . S
C593 C592 1.399 . S
C593 C594 1.385 . S
C594 H580 0.931 . S
C594 C593 1.385 . S
C594 C595 1.389 . S
C595 C594 1.389 . S
C595 C596 1.387 . S
C596 H581 0.930 . S
C596 C591 1.390 . S
C596 C595 1.387 . S
H597 C609 0.930 . S
H598 C611 0.930 . S
H599 C612 0.930 . S
H600 C616 0.959 . S
H601 C616 0.959 . S
H602 C616 0.961 . S
H603 C617 0.960 . S
H604 C617 0.961 . S
H605 C617 0.959 . S
H606 C620 0.929 . S
H607 C621 0.931 . S
H608 C623 0.930 . S
C609 H597 0.930 . S
C609 C610 1.399 . S
C609 C614 1.399 . S
C610 C609 1.399 . S
C610 C611 1.376 . S
C611 H598 0.930 . S
C611 C610 1.376 . S
C611 C612 1.388 . S
C612 H599 0.930 . S
C612 C611 1.388 . S
C612 C613 1.390 . S
C613 C612 1.390 . S
C613 C614 1.394 . S
C613 C619 1.465 . S
C614 C609 1.399 . S
C614 C613 1.394 . S
C614 C615 1.516 . S
C615 C614 1.516 . S
C615 C616 1.502 . S
C615 C617 1.561 . S
C615 C618 1.526 . S
C616 H600 0.959 . S
C616 H601 0.959 . S
C616 H602 0.961 . S
C616 C615 1.502 . S
C617 H603 0.960 . S
C617 H604 0.961 . S
C617 H605 0.959 . S
C617 C615 1.561 . S
C618 C615 1.526 . S
C618 C619 1.396 . S
C618 C623 1.390 . S
C619 C613 1.465 . S
C619 C618 1.396 . S
C619 C620 1.399 . S
C620 H606 0.929 . S
C620 C619 1.399 . S
C620 C621 1.385 . S
C621 H607 0.931 . S
C621 C620 1.385 . S
C621 C622 1.389 . S
C622 C621 1.389 . S
C622 C623 1.387 . S
C623 H608 0.930 . S
C623 C618 1.390 . S
C623 C622 1.387 . S
H624 C636 0.930 . S
H625 C638 0.930 . S
H626 C639 0.930 . S
H627 C643 0.959 . S
H628 C643 0.959 . S
H629 C643 0.961 . S
H630 C644 0.960 . S
H631 C644 0.961 . S
H632 C644 0.959 . S
H633 C647 0.929 . S
H634 C648 0.931 . S
H635 C650 0.930 . S
C636 H624 0.930 . S
C636 C637 1.399 . S
C636 C641 1.399 . S
C637 C636 1.399 . S
C637 C638 1.376 . S
C638 H625 0.930 . S
C638 C637 1.376 . S
C638 C639 1.388 . S
C639 H626 0.930 . S
C639 C638 1.388 . S
C639 C640 1.390 . S
C640 C639 1.390 . S
C640 C641 1.394 . S
C640 C646 1.465 . S
C641 C636 1.399 . S
C641 C640 1.394 . S
C641 C642 1.516 . S
C642 C641 1.516 . S
C642 C643 1.502 . S
C642 C644 1.561 . S
C642 C645 1.526 . S
C643 H627 0.959 . S
C643 H628 0.959 . S
C643 H629 0.961 . S
C643 C642 1.502 . S
C644 H630 0.960 . S
C644 H631 0.961 . S
C644 H632 0.959 . S
C644 C642 1.561 . S
C645 C642 1.526 . S
C645 C646 1.396 . S
C645 C650 1.390 . S
C646 C640 1.465 . S
C646 C645 1.396 . S
C646 C647 1.399 . S
C647 H633 0.929 . S
C647 C646 1.399 . S
C647 C648 1.385 . S
C648 H634 0.931 . S
C648 C647 1.385 . S
C648 C649 1.389 . S
C649 C648 1.389 . S
C649 C650 1.387 . S
C650 H635 0.930 . S
C650 C645 1.390 . S
C650 C649 1.387 . S
H651 C663 0.930 . S
H652 C665 0.930 . S
H653 C666 0.930 . S
H654 C670 0.959 . S
H655 C670 0.959 . S
H656 C670 0.961 . S
H657 C671 0.960 . S
H658 C671 0.961 . S
H659 C671 0.959 . S
H660 C674 0.929 . S
H661 C675 0.931 . S
H662 C677 0.930 . S
C663 H651 0.930 . S
C663 C664 1.399 . S
C663 C668 1.399 . S
C664 C663 1.399 . S
C664 C665 1.376 . S
C665 H652 0.930 . S
C665 C664 1.376 . S
C665 C666 1.388 . S
C666 H653 0.930 . S
C666 C665 1.388 . S
C666 C667 1.390 . S
C667 C666 1.390 . S
C667 C668 1.394 . S
C667 C673 1.465 . S
C668 C663 1.399 . S
C668 C667 1.394 . S
C668 C669 1.516 . S
C669 C668 1.516 . S
C669 C670 1.502 . S
C669 C671 1.561 . S
C669 C672 1.526 . S
C670 H654 0.959 . S
C670 H655 0.959 . S
C670 H656 0.961 . S
C670 C669 1.502 . S
C671 H657 0.960 . S
C671 H658 0.961 . S
C671 H659 0.959 . S
C671 C669 1.561 . S
C672 C669 1.526 . S
C672 C673 1.396 . S
C672 C677 1.390 . S
C673 C667 1.465 . S
C673 C672 1.396 . S
C673 C674 1.399 . S
C674 H660 0.929 . S
C674 C673 1.399 . S
C674 C675 1.385 . S
C675 H661 0.931 . S
C675 C674 1.385 . S
C675 C676 1.389 . S
C676 C675 1.389 . S
C676 C677 1.387 . S
C677 H662 0.930 . S
C677 C672 1.390 . S
C677 C676 1.387 . S
H678 C690 0.930 . S
H679 C692 0.930 . S
H680 C693 0.930 . S
H681 C697 0.959 . S
H682 C697 0.959 . S
H683 C697 0.961 . S
H684 C698 0.960 . S
H685 C698 0.961 . S
H686 C698 0.959 . S
H687 C701 0.929 . S
H688 C702 0.931 . S
H689 C704 0.930 . S
C690 H678 0.930 . S
C690 C691 1.399 . S
C690 C695 1.399 . S
C691 C690 1.399 . S
C691 C692 1.376 . S
C692 H679 0.930 . S
C692 C691 1.376 . S
C692 C693 1.388 . S
C693 H680 0.930 . S
C693 C692 1.388 . S
C693 C694 1.390 . S
C694 C693 1.390 . S
C694 C695 1.394 . S
C694 C700 1.465 . S
C695 C690 1.399 . S
C695 C694 1.394 . S
C695 C696 1.516 . S
C696 C695 1.516 . S
C696 C697 1.502 . S
C696 C698 1.561 . S
C696 C699 1.526 . S
C697 H681 0.959 . S
C697 H682 0.959 . S
C697 H683 0.961 . S
C697 C696 1.502 . S
C698 H684 0.960 . S
C698 H685 0.961 . S
C698 H686 0.959 . S
C698 C696 1.561 . S
C699 C696 1.526 . S
C699 C700 1.396 . S
C699 C704 1.390 . S
C700 C694 1.465 . S
C700 C699 1.396 . S
C700 C701 1.399 . S
C701 H687 0.929 . S
C701 C700 1.399 . S
C701 C702 1.385 . S
C702 H688 0.931 . S
C702 C701 1.385 . S
C702 C703 1.389 . S
C703 C702 1.389 . S
C703 C704 1.387 . S
C704 H689 0.930 . S
C704 C699 1.390 . S
C704 C703 1.387 . S
H705 C717 0.930 . S
H706 C719 0.930 . S
H707 C720 0.930 . S
H708 C724 0.959 . S
H709 C724 0.959 . S
H710 C724 0.961 . S
H711 C725 0.960 . S
H712 C725 0.961 . S
H713 C725 0.959 . S
H714 C728 0.929 . S
H715 C729 0.931 . S
H716 C731 0.930 . S
C717 H705 0.930 . S
C717 C718 1.399 . S
C717 C722 1.399 . S
C718 C717 1.399 . S
C718 C719 1.376 . S
C719 H706 0.930 . S
C719 C718 1.376 . S
C719 C720 1.388 . S
C720 H707 0.930 . S
C720 C719 1.388 . S
C720 C721 1.390 . S
C721 C720 1.390 . S
C721 C722 1.394 . S
C721 C727 1.465 . S
C722 C717 1.399 . S
C722 C721 1.394 . S
C722 C723 1.516 . S
C723 C722 1.516 . S
C723 C724 1.502 . S
C723 C725 1.561 . S
C723 C726 1.526 . S
C724 H708 0.959 . S
C724 H709 0.959 . S
C724 H710 0.961 . S
C724 C723 1.502 . S
C725 H711 0.960 . S
C725 H712 0.961 . S
C725 H713 0.959 . S
C725 C723 1.561 . S
C726 C723 1.526 . S
C726 C727 1.396 . S
C726 C731 1.390 . S
C727 C721 1.465 . S
C727 C726 1.396 . S
C727 C728 1.399 . S
C728 H714 0.929 . S
C728 C727 1.399 . S
C728 C729 1.385 . S
C729 H715 0.931 . S
C729 C728 1.385 . S
C729 C730 1.389 . S
C730 C729 1.389 . S
C730 C731 1.387 . S
C731 H716 0.930 . S
C731 C726 1.390 . S
C731 C730 1.387 . S
H732 C744 0.930 . S
H733 C746 0.939 . S
H734 C747 0.930 . S
H735 C751 0.959 . S
H736 C751 0.959 . S
H737 C751 0.961 . S
H738 C752 0.960 . S
H739 C752 0.961 . S
H740 C752 0.959 . S
H741 C755 0.929 . S
H742 C756 0.931 . S
H743 C758 0.930 . S
C744 H732 0.930 . S
C744 C745 1.399 . S
C744 C749 1.399 . S
C745 C744 1.399 . S
C745 C746 1.376 . S
C746 H733 0.939 . S
C746 C745 1.376 . S
C746 C747 1.388 . S
C747 H734 0.930 . S
C747 C746 1.388 . S
C747 C748 1.390 . S
C748 C747 1.390 . S
C748 C749 1.394 . S
C748 C754 1.465 . S
C749 C744 1.399 . S
C749 C748 1.394 . S
C749 C750 1.516 . S
C750 C749 1.516 . S
C750 C751 1.502 . S
C750 C752 1.561 . S
C750 C753 1.526 . S
C751 H735 0.959 . S
C751 H736 0.959 . S
C751 H737 0.961 . S
C751 C750 1.502 . S
C752 H738 0.960 . S
C752 H739 0.961 . S
C752 H740 0.959 . S
C752 C750 1.561 . S
C753 C750 1.526 . S
C753 C754 1.396 . S
C753 C758 1.390 . S
C754 C748 1.465 . S
C754 C753 1.396 . S
C754 C755 1.399 . S
C755 H741 0.929 . S
C755 C754 1.399 . S
C755 C756 1.385 . S
C756 H742 0.931 . S
C756 C755 1.385 . S
C756 C757 1.389 . S
C757 C756 1.389 . S
C757 C758 1.387 . S
C758 H743 0.930 . S
C758 C753 1.390 . S
C758 C757 1.387 . S
H759 C771 0.930 . S
H760 C773 0.930 . S
H761 C774 0.930 . S
H762 C778 0.959 . S
H763 C778 0.959 . S
H764 C778 0.961 . S
H765 C779 0.960 . S
H766 C779 0.961 . S
H767 C779 0.959 . S
H768 C782 0.929 . S
H769 C783 0.931 . S
H770 C785 0.930 . S
C771 H759 0.930 . S
C771 C772 1.399 . S
C771 C776 1.399 . S
C772 C771 1.399 . S
C772 C773 1.376 . S
C773 H760 0.930 . S
C773 C772 1.376 . S
C773 C774 1.388 . S
C774 H761 0.930 . S
C774 C773 1.388 . S
C774 C775 1.390 . S
C775 C774 1.390 . S
C775 C776 1.394 . S
C775 C781 1.465 . S
C776 C771 1.399 . S
C776 C775 1.394 . S
C776 C777 1.516 . S
C777 C776 1.516 . S
C777 C778 1.502 . S
C777 C779 1.561 . S
C777 C780 1.526 . S
C778 H762 0.959 . S
C778 H763 0.959 . S
C778 H764 0.961 . S
C778 C777 1.502 . S
C779 H765 0.960 . S
C779 H766 0.961 . S
C779 H767 0.959 . S
C779 C777 1.561 . S
C780 C777 1.526 . S
C780 C781 1.396 . S
C780 C785 1.390 . S
C781 C775 1.465 . S
C781 C780 1.396 . S
C781 C782 1.399 . S
C782 H768 0.929 . S
C782 C781 1.399 . S
C782 C783 1.385 . S
C783 H769 0.931 . S
C783 C782 1.385 . S
C783 C784 1.389 . S
C784 C783 1.389 . S
C784 C785 1.387 . S
C785 H770 0.930 . S
C785 C780 1.390 . S
C785 C784 1.387 . S
H786 C798 0.930 . S
H787 C800 0.930 . S
H788 C801 0.930 . S
H789 C805 0.959 . S
H790 C805 0.959 . S
H791 C805 0.961 . S
H792 C806 0.960 . S
H793 C806 0.961 . S
H794 C806 0.959 . S
H795 C809 0.929 . S
H796 C810 0.931 . S
H797 C812 0.930 . S
C798 H786 0.930 . S
C798 C799 1.399 . S
C798 C803 1.399 . S
C799 C798 1.399 . S
C799 C800 1.376 . S
C800 H787 0.930 . S
C800 C799 1.376 . S
C800 C801 1.388 . S
C801 H788 0.930 . S
C801 C800 1.388 . S
C801 C802 1.390 . S
C802 C801 1.390 . S
C802 C803 1.394 . S
C802 C808 1.465 . S
C803 C798 1.399 . S
C803 C802 1.394 . S
C803 C804 1.516 . S
C804 C803 1.516 . S
C804 C805 1.502 . S
C804 C806 1.561 . S
C804 C807 1.526 . S
C805 H789 0.959 . S
C805 H790 0.959 . S
C805 H791 0.961 . S
C805 C804 1.502 . S
C806 H792 0.960 . S
C806 H793 0.961 . S
C806 H794 0.959 . S
C806 C804 1.561 . S
C807 C804 1.526 . S
C807 C808 1.396 . S
C807 C812 1.390 . S
C808 C802 1.465 . S
C808 C807 1.396 . S
C808 C809 1.399 . S
C809 H795 0.929 . S
C809 C808 1.399 . S
C809 C810 1.385 . S
C810 H796 0.931 . S
C810 C809 1.385 . S
C810 C811 1.389 . S
C811 C810 1.389 . S
C811 C812 1.387 . S
C812 H797 0.930 . S
C812 C807 1.390 . S
C812 C811 1.387 . S
H813 C825 0.930 . S
H814 C827 0.930 . S
H815 C828 0.930 . S
H816 C832 0.959 . S
H817 C832 0.959 . S
H818 C832 0.961 . S
H819 C833 0.960 . S
H820 C833 0.961 . S
H821 C833 0.959 . S
H822 C836 0.929 . S
H823 C837 0.931 . S
H824 C839 0.930 . S
C825 H813 0.930 . S
C825 C826 1.399 . S
C825 C830 1.399 . S
C826 C825 1.399 . S
C826 C827 1.376 . S
C827 H814 0.930 . S
C827 C826 1.376 . S
C827 C828 1.388 . S
C828 H815 0.930 . S
C828 C827 1.388 . S
C828 C829 1.390 . S
C829 C828 1.390 . S
C829 C830 1.394 . S
C829 C835 1.465 . S
C830 C825 1.399 . S
C830 C829 1.394 . S
C830 C831 1.516 . S
C831 C830 1.516 . S
C831 C832 1.502 . S
C831 C833 1.561 . S
C831 C834 1.526 . S
C832 H816 0.959 . S
C832 H817 0.959 . S
C832 H818 0.961 . S
C832 C831 1.502 . S
C833 H819 0.960 . S
C833 H820 0.961 . S
C833 H821 0.959 . S
C833 C831 1.561 . S
C834 C831 1.526 . S
C834 C835 1.396 . S
C834 C839 1.390 . S
C835 C829 1.465 . S
C835 C834 1.396 . S
C835 C836 1.399 . S
C836 H822 0.929 . S
C836 C835 1.399 . S
C836 C837 1.385 . S
C837 H823 0.931 . S
C837 C836 1.385 . S
C837 C838 1.389 . S
C838 C837 1.389 . S
C838 C839 1.387 . S
C839 H824 0.930 . S
C839 C834 1.390 . S
C839 C838 1.387 . S
H840 C852 0.930 . S
H841 C854 0.930 . S
H842 C855 0.930 . S
H843 C859 0.959 . S
H844 C859 0.959 . S
H845 C859 0.961 . S
H846 C860 0.960 . S
H847 C860 0.961 . S
H848 C860 0.959 . S
H849 C863 0.929 . S
H850 C864 0.931 . S
H851 C866 0.930 . S
C852 H840 0.930 . S
C852 C853 1.399 . S
C852 C857 1.399 . S
C853 C852 1.399 . S
C853 C854 1.376 . S
C854 H841 0.930 . S
C854 C853 1.376 . S
C854 C855 1.388 . S
C855 H842 0.930 . S
C855 C854 1.388 . S
C855 C856 1.390 . S
C856 C855 1.390 . S
C856 C857 1.394 . S
C856 C862 1.465 . S
C857 C852 1.399 . S
C857 C856 1.394 . S
C857 C858 1.516 . S
C858 C857 1.516 . S
C858 C859 1.502 . S
C858 C860 1.561 . S
C858 C861 1.526 . S
C859 H843 0.959 . S
C859 H844 0.959 . S
C859 H845 0.961 . S
C859 C858 1.502 . S
C860 H846 0.960 . S
C860 H847 0.961 . S
C860 H848 0.959 . S
C860 C858 1.561 . S
C861 C858 1.526 . S
C861 C862 1.396 . S
C861 C866 1.390 . S
C862 C856 1.465 . S
C862 C861 1.396 . S
C862 C863 1.399 . S
C863 H849 0.929 . S
C863 C862 1.399 . S
C863 C864 1.385 . S
C864 H850 0.931 . S
C864 C863 1.385 . S
C864 C865 1.389 . S
C865 C864 1.389 . S
C865 C866 1.387 . S
C866 H851 0.930 . S
C866 C861 1.390 . S
C866 C865 1.387 . S
H867 C879 0.930 . S
H868 C881 0.930 . S
H869 C882 0.930 . S
H870 C886 0.959 . S
H871 C886 0.959 . S
H872 C886 0.961 . S
H873 C887 0.960 . S
H874 C887 0.961 . S
H875 C887 0.959 . S
H876 C890 0.929 . S
H877 C891 0.931 . S
H878 C893 0.930 . S
C879 H867 0.930 . S
C879 C880 1.399 . S
C879 C884 1.399 . S
C880 C879 1.399 . S
C880 C881 1.376 . S
C881 H868 0.930 . S
C881 C880 1.376 . S
C881 C882 1.388 . S
C882 H869 0.930 . S
C882 C881 1.388 . S
C882 C883 1.390 . S
C883 C882 1.390 . S
C883 C884 1.394 . S
C883 C889 1.465 . S
C884 C879 1.399 . S
C884 C883 1.394 . S
C884 C885 1.516 . S
C885 C884 1.516 . S
C885 C886 1.502 . S
C885 C887 1.561 . S
C885 C888 1.526 . S
C886 H870 0.959 . S
C886 H871 0.959 . S
C886 H872 0.961 . S
C886 C885 1.502 . S
C887 H873 0.960 . S
C887 H874 0.961 . S
C887 H875 0.959 . S
C887 C885 1.561 . S
C888 C885 1.526 . S
C888 C889 1.396 . S
C888 C893 1.390 . S
C889 C883 1.465 . S
C889 C888 1.396 . S
C889 C890 1.399 . S
C890 H876 0.929 . S
C890 C889 1.399 . S
C890 C891 1.385 . S
C891 H877 0.931 . S
C891 C890 1.385 . S
C891 C892 1.389 . S
C892 C891 1.389 . S
C892 C893 1.387 . S
C893 H878 0.930 . S
C893 C888 1.390 . S
C893 C892 1.387 . S
H894 C906 0.930 . S
H895 C908 0.930 . S
H896 C909 0.930 . S
H897 C913 0.959 . S
H898 C913 0.959 . S
H899 C913 0.961 . S
H900 C914 0.960 . S
H901 C914 0.961 . S
H902 C914 0.959 . S
H903 C917 0.929 . S
H904 C918 0.931 . S
H905 C920 0.930 . S
C906 H894 0.930 . S
C906 C907 1.399 . S
C906 C911 1.399 . S
C907 C906 1.399 . S
C907 C908 1.376 . S
C908 H895 0.930 . S
C908 C907 1.376 . S
C908 C909 1.388 . S
C909 H896 0.930 . S
C909 C908 1.388 . S
C909 C910 1.390 . S
C910 C909 1.390 . S
C910 C911 1.394 . S
C910 C916 1.465 . S
C911 C906 1.399 . S
C911 C910 1.394 . S
C911 C912 1.516 . S
C912 C911 1.516 . S
C912 C913 1.502 . S
C912 C914 1.561 . S
C912 C915 1.526 . S
C913 H897 0.959 . S
C913 H898 0.959 . S
C913 H899 0.961 . S
C913 C912 1.502 . S
C914 H900 0.960 . S
C914 H901 0.961 . S
C914 H902 0.959 . S
C914 C912 1.561 . S
C915 C912 1.526 . S
C915 C916 1.396 . S
C915 C920 1.390 . S
C916 C910 1.465 . S
C916 C915 1.396 . S
C916 C917 1.399 . S
C917 H903 0.929 . S
C917 C916 1.399 . S
C917 C918 1.385 . S
C918 H904 0.931 . S
C918 C917 1.385 . S
C918 C919 1.389 . S
C919 C918 1.389 . S
C919 C920 1.387 . S
C920 H905 0.930 . S
C920 C915 1.390 . S
C920 C919 1.387 . S
H921 C933 0.930 . S
H922 C935 0.930 . S
H923 C936 0.930 . S
H924 C940 0.959 . S
H925 C940 0.959 . S
H926 C940 0.961 . S
H927 C941 0.960 . S
H928 C941 0.961 . S
H929 C941 0.959 . S
H930 C944 0.929 . S
H931 C945 0.931 . S
H932 C947 0.930 . S
C933 H921 0.930 . S
C933 C934 1.399 . S
C933 C938 1.399 . S
C934 C933 1.399 . S
C934 C935 1.376 . S
C935 H922 0.930 . S
C935 C934 1.376 . S
C935 C936 1.388 . S
C936 H923 0.930 . S
C936 C935 1.388 . S
C936 C937 1.390 . S
C937 C936 1.390 . S
C937 C938 1.394 . S
C937 C943 1.465 . S
C938 C933 1.399 . S
C938 C937 1.394 . S
C938 C939 1.516 . S
C939 C938 1.516 . S
C939 C940 1.502 . S
C939 C941 1.561 . S
C939 C942 1.526 . S
C940 H924 0.959 . S
C940 H925 0.959 . S
C940 H926 0.961 . S
C940 C939 1.502 . S
C941 H927 0.960 . S
C941 H928 0.961 . S
C941 H929 0.959 . S
C941 C939 1.561 . S
C942 C939 1.526 . S
C942 C943 1.396 . S
C942 C947 1.390 . S
C943 C937 1.465 . S
C943 C942 1.396 . S
C943 C944 1.399 . S
C944 H930 0.929 . S
C944 C943 1.399 . S
C944 C945 1.385 . S
C945 H931 0.931 . S
C945 C944 1.385 . S
C945 C946 1.389 . S
C946 C945 1.389 . S
C946 C947 1.387 . S
C947 H932 0.930 . S
C947 C942 1.390 . S
C947 C946 1.387 . S
H948 C960 0.930 . S
H949 C962 0.930 . S
H950 C963 0.930 . S
H951 C967 0.959 . S
H952 C967 0.959 . S
H953 C967 0.961 . S
H954 C968 0.960 . S
H955 C968 0.961 . S
H956 C968 0.959 . S
H957 C971 0.929 . S
H958 C972 0.931 . S
H959 C974 0.930 . S
C960 H948 0.930 . S
C960 C961 1.399 . S
C960 C965 1.399 . S
C961 C960 1.399 . S
C961 C962 1.376 . S
C962 H949 0.930 . S
C962 C961 1.376 . S
C962 C963 1.388 . S
C963 H950 0.930 . S
C963 C962 1.388 . S
C963 C964 1.390 . S
C964 C963 1.390 . S
C964 C965 1.394 . S
C964 C970 1.465 . S
C965 C960 1.399 . S
C965 C964 1.394 . S
C965 C966 1.516 . S
C966 C965 1.516 . S
C966 C967 1.502 . S
C966 C968 1.561 . S
C966 C969 1.526 . S
C967 H951 0.959 . S
C967 H952 0.959 . S
C967 H953 0.961 . S
C967 C966 1.502 . S
C968 H954 0.960 . S
C968 H955 0.961 . S
C968 H956 0.959 . S
C968 C966 1.561 . S
C969 C966 1.526 . S
C969 C970 1.396 . S
C969 C974 1.390 . S
C970 C964 1.465 . S
C970 C969 1.396 . S
C970 C971 1.399 . S
C971 H957 0.929 . S
C971 C970 1.399 . S
C971 C972 1.385 . S
C972 H958 0.931 . S
C972 C971 1.385 . S
C972 C973 1.389 . S
C973 C972 1.389 . S
C973 C974 1.387 . S
C974 H959 0.930 . S
C974 C969 1.390 . S
C974 C973 1.387 . S
H975 C987 0.930 . S
H976 C989 0.930 . S
H977 C990 0.930 . S
H978 C994 0.959 . S
H979 C994 0.959 . S
H980 C994 0.961 . S
H981 C995 0.960 . S
H982 C995 0.961 . S
H983 C995 0.959 . S
H984 C998 0.929 . S
H985 C999 0.931 . S
H986 C1001 0.930 . S
C987 H975 0.930 . S
C987 C988 1.399 . S
C987 C992 1.399 . S
C988 C987 1.399 . S
C988 C989 1.376 . S
C989 H976 0.930 . S
C989 C988 1.376 . S
C989 C990 1.388 . S
C990 H977 0.930 . S
C990 C989 1.388 . S
C990 C991 1.390 . S
C991 C990 1.390 . S
C991 C992 1.394 . S
C991 C997 1.465 . S
C992 C987 1.399 . S
C992 C991 1.394 . S
C992 C993 1.516 . S
C993 C992 1.516 . S
C993 C994 1.502 . S
C993 C995 1.561 . S
C993 C996 1.526 . S
C994 H978 0.959 . S
C994 H979 0.959 . S
C994 H980 0.961 . S
C994 C993 1.502 . S
C995 H981 0.960 . S
C995 H982 0.961 . S
C995 H983 0.959 . S
C995 C993 1.561 . S
C996 C993 1.526 . S
C996 C997 1.396 . S
C996 C1001 1.390 . S
C997 C991 1.465 . S
C997 C996 1.396 . S
C997 C998 1.399 . S
C998 H984 0.929 . S
C998 C997 1.399 . S
C998 C999 1.385 . S
C999 H985 0.931 . S
C999 C998 1.385 . S
C999 C1000 1.389 . S
C1000 C999 1.389 . S
C1000 C1001 1.387 . S
C1001 H986 0.930 . S
C1001 C996 1.390 . S
C1001 C1000 1.387 . S
H1002 C1014 0.930 . S
H1003 C1016 0.930 . S
H1004 C1017 0.930 . S
H1005 C1021 0.959 . S
H1006 C1021 0.959 . S
H1007 C1021 0.961 . S
H1008 C1022 0.960 . S
H1009 C1022 0.961 . S
H1010 C1022 0.959 . S
H1011 C1025 0.929 . S
H1012 C1026 0.931 . S
H1013 C1028 0.930 . S
C1014 H1002 0.930 . S
C1014 C1015 1.399 . S
C1014 C1019 1.399 . S
C1015 C1014 1.399 . S
C1015 C1016 1.376 . S
C1016 H1003 0.930 . S
C1016 C1015 1.376 . S
C1016 C1017 1.388 . S
C1017 H1004 0.930 . S
C1017 C1016 1.388 . S
C1017 C1018 1.390 . S
C1018 C1017 1.390 . S
C1018 C1019 1.394 . S
C1018 C1024 1.465 . S
C1019 C1014 1.399 . S
C1019 C1018 1.394 . S
C1019 C1020 1.516 . S
C1020 C1019 1.516 . S
C1020 C1021 1.502 . S
C1020 C1022 1.561 . S
C1020 C1023 1.526 . S
C1021 H1005 0.959 . S
C1021 H1006 0.959 . S
C1021 H1007 0.961 . S
C1021 C1020 1.502 . S
C1022 H1008 0.960 . S
C1022 H1009 0.961 . S
C1022 H1010 0.959 . S
C1022 C1020 1.561 . S
C1023 C1020 1.526 . S
C1023 C1024 1.396 . S
C1023 C1028 1.390 . S
C1024 C1018 1.465 . S
C1024 C1023 1.396 . S
C1024 C1025 1.399 . S
C1025 H1011 0.929 . S
C1025 C1024 1.399 . S
C1025 C1026 1.385 . S
C1026 H1012 0.931 . S
C1026 C1025 1.385 . S
C1026 C1027 1.389 . S
C1027 C1026 1.389 . S
C1027 C1028 1.387 . S
C1028 H1013 0.930 . S
C1028 C1023 1.390 . S
C1028 C1027 1.387 . S
H1029 C1041 0.930 . S
H1030 C1043 0.930 . S
H1031 C1044 0.930 . S
H1032 C1048 0.959 . S
H1033 C1048 0.959 . S
H1034 C1048 0.961 . S
H1035 C1049 0.960 . S
H1036 C1049 0.961 . S
H1037 C1049 0.959 . S
H1038 C1052 0.929 . S
H1039 C1053 0.931 . S
H1040 C1055 0.930 . S
C1041 H1029 0.930 . S
C1041 C1042 1.399 . S
C1041 C1046 1.399 . S
C1042 C1041 1.399 . S
C1042 C1043 1.376 . S
C1043 H1030 0.930 . S
C1043 C1042 1.376 . S
C1043 C1044 1.388 . S
C1044 H1031 0.930 . S
C1044 C1043 1.388 . S
C1044 C1045 1.390 . S
C1045 C1044 1.390 . S
C1045 C1046 1.394 . S
C1045 C1051 1.465 . S
C1046 C1041 1.399 . S
C1046 C1045 1.394 . S
C1046 C1047 1.516 . S
C1047 C1046 1.516 . S
C1047 C1048 1.502 . S
C1047 C1049 1.561 . S
C1047 C1050 1.526 . S
C1048 H1032 0.959 . S
C1048 H1033 0.959 . S
C1048 H1034 0.961 . S
C1048 C1047 1.502 . S
C1049 H1035 0.960 . S
C1049 H1036 0.961 . S
C1049 H1037 0.959 . S
C1049 C1047 1.561 . S
C1050 C1047 1.526 . S
C1050 C1051 1.396 . S
C1050 C1055 1.390 . S
C1051 C1045 1.465 . S
C1051 C1050 1.396 . S
C1051 C1052 1.399 . S
C1052 H1038 0.929 . S
C1052 C1051 1.399 . S
C1052 C1053 1.385 . S
C1053 H1039 0.931 . S
C1053 C1052 1.385 . S
C1053 C1054 1.389 . S
C1054 C1053 1.389 . S
C1054 C1055 1.387 . S
C1055 H1040 0.930 . S
C1055 C1050 1.390 . S
C1055 C1054 1.387 . S
C421 C15 1.546 . S
C433 C346 1.509 . S
C460 C324 1.551 . S
C448 C55 1.574 . S
C487 C350 1.532 . S
C475 C95 1.518 . S
C514 C328 1.573 . S
C502 C135 1.569 . S
C541 C390 1.522 . S
C529 C175 1.540 . S
C568 C368 1.553 . S
C556 C215 1.571 . S
C583 C255 1.538 . S
C595 C394 1.515 . S
C622 C372 1.522 . S
C610 C295 1.604 . S
C637 C2 1.552 . S
C649 C395 1.545 . S
C676 C373 1.649 . S
C664 C61 1.600 . S
C691 C82 1.508 . S
C703 C392 1.554 . S
C718 C141 1.642 . S
C730 C370 1.646 . S
C757 C351 1.553 . S
C745 C162 1.564 . S
C772 C221 1.572 . S
C784 C329 1.639 . S
C811 C348 1.559 . S
C799 C242 1.509 . S
C838 C326 1.630 . S
C826 C301 1.600 . S
C865 C369 1.588 . S
C853 C21 1.586 . S
C892 C391 1.577 . S
C880 C42 1.520 . S
C907 C101 1.544 . S
C919 C371 1.572 . S
C946 C393 1.556 . S
C934 C122 1.574 . S
C973 C325 1.587 . S
C961 C181 1.588 . S
C988 C202 1.521 . S
C1000 C347 1.574 . S
C1015 C261 1.468 . S
C1027 C327 1.552 . S
C1042 C282 1.574 . S
C1054 C349 1.558 . S
