# Generated by pormake.
# Topology ocu, (6,8)-cn, num edge types: 1
# Building blocks:
#     Node 0, Type 0, BuildingBlock: JUFBIX_clean_sbu_0, # of connection points: 6
#     Node 1, Type 0, BuildingBlock: JUFBIX_clean_sbu_0, # of connection points: 6
#     Node 2, Type 0, BuildingBlock: JUFBIX_clean_sbu_0, # of connection points: 6
#     Node 3, Type 0, BuildingBlock: JUFBIX_clean_sbu_0, # of connection points: 6
#     Node 4, Type 0, BuildingBlock: JUFBIX_clean_sbu_0, # of connection points: 6
#     Node 5, Type 0, BuildingBlock: JUFBIX_clean_sbu_0, # of connection points: 6
#     Node 6, Type 0, BuildingBlock: JUFBIX_clean_sbu_0, # of connection points: 6
#     Node 7, Type 0, BuildingBlock: JUFBIX_clean_sbu_0, # of connection points: 6
#     Node 8, Type 1, BuildingBlock: AJUNOK_clean_sbu_0, # of connection points: 8
#     Node 9, Type 1, BuildingBlock: AJUNOK_clean_sbu_0, # of connection points: 8
#     Node 10, Type 1, BuildingBlock: AJUNOK_clean_sbu_0, # of connection points: 8
#     Node 11, Type 1, BuildingBlock: AJUNOK_clean_sbu_0, # of connection points: 8
#     Node 12, Type 1, BuildingBlock: AJUNOK_clean_sbu_0, # of connection points: 8
#     Node 13, Type 1, BuildingBlock: AJUNOK_clean_sbu_0, # of connection points: 8
#     Edge 14, Type (0, 1), BuildingBlock: TEMPAE_clean_linker_10, # of connection points: 2
#     Edge 15, Type (0, 1), BuildingBlock: TEMPAE_clean_linker_10, # of connection points: 2
#     Edge 16, Type (0, 1), BuildingBlock: TEMPAE_clean_linker_10, # of connection points: 2
#     Edge 17, Type (0, 1), BuildingBlock: TEMPAE_clean_linker_10, # of connection points: 2
#     Edge 18, Type (0, 1), BuildingBlock: TEMPAE_clean_linker_10, # of connection points: 2
#     Edge 19, Type (0, 1), BuildingBlock: TEMPAE_clean_linker_10, # of connection points: 2
#     Edge 20, Type (0, 1), BuildingBlock: TEMPAE_clean_linker_10, # of connection points: 2
#     Edge 21, Type (0, 1), BuildingBlock: TEMPAE_clean_linker_10, # of connection points: 2
#     Edge 22, Type (0, 1), BuildingBlock: TEMPAE_clean_linker_10, # of connection points: 2
#     Edge 23, Type (0, 1), BuildingBlock: TEMPAE_clean_linker_10, # of connection points: 2
#     Edge 24, Type (0, 1), BuildingBlock: TEMPAE_clean_linker_10, # of connection points: 2
#     Edge 25, Type (0, 1), BuildingBlock: TEMPAE_clean_linker_10, # of connection points: 2
#     Edge 26, Type (0, 1), BuildingBlock: TEMPAE_clean_linker_10, # of connection points: 2
#     Edge 27, Type (0, 1), BuildingBlock: TEMPAE_clean_linker_10, # of connection points: 2
#     Edge 28, Type (0, 1), BuildingBlock: TEMPAE_clean_linker_10, # of connection points: 2
#     Edge 29, Type (0, 1), BuildingBlock: TEMPAE_clean_linker_10, # of connection points: 2
#     Edge 30, Type (0, 1), BuildingBlock: TEMPAE_clean_linker_10, # of connection points: 2
#     Edge 31, Type (0, 1), BuildingBlock: TEMPAE_clean_linker_10, # of connection points: 2
#     Edge 32, Type (0, 1), BuildingBlock: TEMPAE_clean_linker_10, # of connection points: 2
#     Edge 33, Type (0, 1), BuildingBlock: TEMPAE_clean_linker_10, # of connection points: 2
#     Edge 34, Type (0, 1), BuildingBlock: TEMPAE_clean_linker_10, # of connection points: 2
#     Edge 35, Type (0, 1), BuildingBlock: TEMPAE_clean_linker_10, # of connection points: 2
#     Edge 36, Type (0, 1), BuildingBlock: TEMPAE_clean_linker_10, # of connection points: 2
#     Edge 37, Type (0, 1), BuildingBlock: TEMPAE_clean_linker_10, # of connection points: 2
#     Edge 38, Type (0, 1), BuildingBlock: TEMPAE_clean_linker_10, # of connection points: 2
#     Edge 39, Type (0, 1), BuildingBlock: TEMPAE_clean_linker_10, # of connection points: 2
#     Edge 40, Type (0, 1), BuildingBlock: TEMPAE_clean_linker_10, # of connection points: 2
#     Edge 41, Type (0, 1), BuildingBlock: TEMPAE_clean_linker_10, # of connection points: 2
#     Edge 42, Type (0, 1), BuildingBlock: TEMPAE_clean_linker_10, # of connection points: 2
#     Edge 43, Type (0, 1), BuildingBlock: TEMPAE_clean_linker_10, # of connection points: 2
#     Edge 44, Type (0, 1), BuildingBlock: TEMPAE_clean_linker_10, # of connection points: 2
#     Edge 45, Type (0, 1), BuildingBlock: TEMPAE_clean_linker_10, # of connection points: 2
#     Edge 46, Type (0, 1), BuildingBlock: TEMPAE_clean_linker_10, # of connection points: 2
#     Edge 47, Type (0, 1), BuildingBlock: TEMPAE_clean_linker_10, # of connection points: 2
#     Edge 48, Type (0, 1), BuildingBlock: TEMPAE_clean_linker_10, # of connection points: 2
#     Edge 49, Type (0, 1), BuildingBlock: TEMPAE_clean_linker_10, # of connection points: 2
#     Edge 50, Type (0, 1), BuildingBlock: TEMPAE_clean_linker_10, # of connection points: 2
#     Edge 51, Type (0, 1), BuildingBlock: TEMPAE_clean_linker_10, # of connection points: 2
#     Edge 52, Type (0, 1), BuildingBlock: TEMPAE_clean_linker_10, # of connection points: 2
#     Edge 53, Type (0, 1), BuildingBlock: TEMPAE_clean_linker_10, # of connection points: 2
#     Edge 54, Type (0, 1), BuildingBlock: TEMPAE_clean_linker_10, # of connection points: 2
#     Edge 55, Type (0, 1), BuildingBlock: TEMPAE_clean_linker_10, # of connection points: 2
#     Edge 56, Type (0, 1), BuildingBlock: TEMPAE_clean_linker_10, # of connection points: 2
#     Edge 57, Type (0, 1), BuildingBlock: TEMPAE_clean_linker_10, # of connection points: 2
#     Edge 58, Type (0, 1), BuildingBlock: TEMPAE_clean_linker_10, # of connection points: 2
#     Edge 59, Type (0, 1), BuildingBlock: TEMPAE_clean_linker_10, # of connection points: 2
#     Edge 60, Type (0, 1), BuildingBlock: TEMPAE_clean_linker_10, # of connection points: 2
#     Edge 61, Type (0, 1), BuildingBlock: TEMPAE_clean_linker_10, # of connection points: 2
# Relax obj value: 0.262
# Max RMSD: 0.342
# Mean RMSD: 0.231
data_MOF--net-ocu--node1-JUFBIX_clean_sbu_0--node2-AJUNOK_clean_sbu_0--edge1-TEMPAE_clean_linker_10
_symmetry_space_group_name_H-M    P1
_symmetry_Int_Tables_number       1
_symmetry_cell_setting            triclinic
loop_
_symmetry_equiv_pos_as_xyz
'x, y, z'
_cell_length_a     42.04439
_cell_length_b     42.662944
_cell_length_c     36.299719
_cell_angle_alpha  100.7143
_cell_angle_beta   100.42197
_cell_angle_gamma 102.18249
loop_
_atom_site_label
_atom_site_type_symbol
_atom_site_fract_x
_atom_site_fract_y
_atom_site_fract_z
_atom_type_partial_charge
Co0 Co 0.22696 0.22755 0.23377 0.0
C1 C 0.22745 0.28064 0.29414 0.0
Co2 Co 0.27126 0.26989 0.24937 0.0
C3 C 0.18992 0.16558 0.24143 0.0
C4 C 0.15768 0.19425 0.22108 0.0
N5 N 0.18979 0.19247 0.22696 0.0
N6 N 0.16028 0.15264 0.24882 0.0
C7 C 0.13953 0.16978 0.2344 0.0
H8 H 0.21239 0.15851 0.25206 0.0
H9 H 0.14903 0.21482 0.21343 0.0
C10 C 0.2706 0.21624 0.18929 0.0
N11 N 0.30772 0.30472 0.25543 0.0
C12 C 0.32017 0.31215 0.22563 0.0
C13 C 0.32809 0.32669 0.28686 0.0
N14 N 0.3477 0.33728 0.23685 0.0
C15 C 0.35283 0.34702 0.27538 0.0
C16 C 0.28276 0.22349 0.28865 0.0
O17 O 0.24178 0.20333 0.19353 0.0
O18 O 0.28641 0.24469 0.20973 0.0
O19 O 0.29643 0.25206 0.28537 0.0
O20 O 0.25288 0.20981 0.26994 0.0
O21 O 0.25592 0.29406 0.28923 0.0
H22 H 0.32553 0.32745 0.31611 0.0
H23 H 0.30936 0.29913 0.19591 0.0
O24 O 0.21202 0.25186 0.27409 0.0
O25 O 0.2022 0.24611 0.19852 0.0
O26 O 0.24593 0.28822 0.21322 0.0
C27 C 0.21573 0.27476 0.19538 0.0
H28 H 0.11467 0.16856 0.23926 0.0
H29 H 0.37348 0.36651 0.29384 0.0
Co30 Co 0.76939 0.26259 0.2321 0.0
C31 C 0.7836 0.31276 0.29744 0.0
Co32 Co 0.72917 0.26126 0.26268 0.0
C33 C 0.80037 0.25882 0.16933 0.0
C34 C 0.83629 0.26938 0.22279 0.0
N35 N 0.80339 0.26346 0.20749 0.0
N36 N 0.83023 0.26268 0.15977 0.0
C37 C 0.85289 0.26907 0.19355 0.0
H38 H 0.7766 0.25432 0.1493 0.0
H39 H 0.84751 0.27505 0.2533 0.0
C40 C 0.71531 0.21052 0.19779 0.0
N41 N 0.69529 0.26003 0.28787 0.0
C42 C 0.69806 0.25794 0.32469 0.0
C43 C 0.66234 0.25486 0.27319 0.0
N44 N 0.66808 0.24937 0.3332 0.0
C45 C 0.64549 0.24819 0.30109 0.0
C46 C 0.72409 0.29719 0.20683 0.0
O47 O 0.74469 0.22364 0.1959 0.0
O48 O 0.70312 0.22322 0.22469 0.0
O49 O 0.7112 0.2882 0.23339 0.0
O50 O 0.75014 0.28847 0.20071 0.0
O51 O 0.75472 0.29901 0.30037 0.0
H52 H 0.65121 0.2527 0.24324 0.0
H53 H 0.72144 0.25874 0.34361 0.0
O54 O 0.79458 0.30132 0.26881 0.0
O55 O 0.78845 0.23758 0.26257 0.0
O56 O 0.74791 0.23371 0.2927 0.0
C57 C 0.77527 0.22723 0.28811 0.0
H58 H 0.87978 0.27602 0.1975 0.0
H59 H 0.61871 0.23874 0.29641 0.0
Co60 Co 0.76046 0.74532 0.29259 0.0
C61 C 0.79521 0.79969 0.2709 0.0
Co62 Co 0.74036 0.74985 0.23416 0.0
C63 C 0.7894 0.71689 0.35049 0.0
C64 C 0.79211 0.76765 0.37307 0.0
N65 N 0.78028 0.74315 0.34092 0.0
N66 N 0.8069 0.72395 0.3872 0.0
C67 C 0.80874 0.75591 0.40165 0.0
H68 H 0.78513 0.69358 0.33009 0.0
H69 H 0.7901 0.79275 0.37504 0.0
C70 C 0.70532 0.69598 0.25658 0.0
N71 N 0.72023 0.75203 0.18551 0.0
C72 C 0.70642 0.77614 0.17653 0.0
C73 C 0.71328 0.72909 0.15209 0.0
N74 N 0.69089 0.76911 0.13908 0.0
C75 C 0.6953 0.73966 0.12333 0.0
C76 C 0.7868 0.71289 0.23455 0.0
O77 O 0.72641 0.70696 0.28857 0.0
O78 O 0.70761 0.71059 0.22937 0.0
O79 O 0.76801 0.72498 0.2128 0.0
O80 O 0.78714 0.71859 0.27033 0.0
O81 O 0.77326 0.78966 0.23941 0.0
H82 H 0.71976 0.70566 0.1491 0.0
H83 H 0.70703 0.79821 0.19723 0.0
O84 O 0.79409 0.78364 0.2969 0.0
O85 O 0.73404 0.77177 0.3143 0.0
O86 O 0.71259 0.77468 0.25593 0.0
C87 C 0.71388 0.78196 0.29181 0.0
H88 H 0.82211 0.77004 0.43027 0.0
H89 H 0.6849 0.72615 0.09372 0.0
Co90 Co 0.24183 0.77066 0.26803 0.0
C91 C 0.30237 0.7615 0.30767 0.0
Co92 Co 0.25769 0.72797 0.24237 0.0
C93 C 0.20742 0.81267 0.30615 0.0
C94 C 0.256 0.83869 0.30289 0.0
N95 N 0.23435 0.80857 0.29271 0.0
N96 N 0.2114 0.84422 0.3239 0.0
C97 C 0.24173 0.86083 0.32189 0.0
H98 H 0.18532 0.79305 0.30285 0.0
H99 H 0.28077 0.84411 0.29733 0.0
C100 C 0.19666 0.7363 0.20309 0.0
N101 N 0.2653 0.68998 0.21766 0.0
C102 C 0.28957 0.68715 0.19876 0.0
C103 C 0.24545 0.65912 0.21042 0.0
N104 N 0.28551 0.65591 0.17993 0.0
C105 C 0.25808 0.63796 0.18734 0.0
C106 C 0.2177 0.71588 0.29553 0.0
O107 O 0.20182 0.7622 0.22935 0.0
O108 O 0.21751 0.71875 0.20438 0.0
O109 O 0.23433 0.70351 0.27341 0.0
O110 O 0.21713 0.74583 0.29778 0.0
O111 O 0.29805 0.7368 0.28011 0.0
H112 H 0.22251 0.65258 0.21991 0.0
H113 H 0.30954 0.70759 0.19812 0.0
O114 O 0.28133 0.77888 0.30705 0.0
O115 O 0.26617 0.79569 0.23803 0.0
O116 O 0.28152 0.75289 0.21166 0.0
C117 C 0.28199 0.78318 0.21501 0.0
H118 H 0.25285 0.88691 0.33392 0.0
H119 H 0.24731 0.6118 0.1756 0.0
Co120 Co 0.27163 0.77681 0.72028 0.0
C121 C 0.25972 0.81169 0.787 0.0
Co122 Co 0.22707 0.75303 0.7372 0.0
C123 C 0.33138 0.77957 0.69466 0.0
C124 C 0.32969 0.82783 0.72248 0.0
N125 N 0.31163 0.79619 0.71095 0.0
N126 N 0.36078 0.79942 0.69471 0.0
C127 C 0.35992 0.82989 0.71241 0.0
H128 H 0.32423 0.75329 0.68234 0.0
H129 H 0.32139 0.84811 0.73695 0.0
C130 C 0.23872 0.71758 0.67106 0.0
N131 N 0.18846 0.73295 0.74801 0.0
C132 C 0.18486 0.73023 0.78331 0.0
C133 C 0.15893 0.71607 0.72392 0.0
N134 N 0.15449 0.71203 0.78236 0.0
C135 C 0.13794 0.70267 0.74512 0.0
C136 C 0.21626 0.79447 0.68679 0.0
O137 O 0.26334 0.74192 0.67543 0.0
O138 O 0.22027 0.71775 0.69499 0.0
O139 O 0.20273 0.77469 0.70505 0.0
O140 O 0.24778 0.80061 0.69 0.0
O141 O 0.23384 0.7883 0.78045 0.0
H142 H 0.15349 0.71291 0.69298 0.0
H143 H 0.20478 0.73988 0.80907 0.0
O144 O 0.2794 0.81107 0.76444 0.0
O145 O 0.2955 0.75331 0.75041 0.0
O146 O 0.25151 0.73087 0.76914 0.0
C147 C 0.28246 0.7348 0.77015 0.0
H148 H 0.37883 0.85241 0.71554 0.0
H149 H 0.11298 0.68663 0.73413 0.0
Co150 Co 0.25865 0.23989 0.79315 0.0
C151 C 0.29832 0.29427 0.77743 0.0
Co152 Co 0.243 0.24696 0.73499 0.0
C153 C 0.28474 0.20888 0.84996 0.0
C154 C 0.2805 0.25664 0.87599 0.0
N155 N 0.274 0.23484 0.84178 0.0
N156 N 0.29848 0.21377 0.88765 0.0
C157 C 0.29561 0.24364 0.90442 0.0
H158 H 0.28374 0.18722 0.82839 0.0
H159 H 0.27614 0.28101 0.87973 0.0
C160 C 0.20294 0.19314 0.75135 0.0
N161 N 0.22767 0.25174 0.68634 0.0
C162 C 0.22231 0.27937 0.67661 0.0
C163 C 0.21647 0.22804 0.65338 0.0
N164 N 0.2078 0.27391 0.63899 0.0
C165 C 0.20397 0.24161 0.62416 0.0
C166 C 0.28697 0.20734 0.73734 0.0
O167 O 0.22399 0.20079 0.78336 0.0
O168 O 0.20649 0.21038 0.72677 0.0
O169 O 0.26825 0.21876 0.71477 0.0
O170 O 0.28763 0.21442 0.77315 0.0
O171 O 0.27994 0.28405 0.74361 0.0
H172 H 0.21607 0.20231 0.65114 0.0
H173 H 0.22696 0.30261 0.69728 0.0
O174 O 0.29283 0.27874 0.80314 0.0
O175 O 0.23018 0.26543 0.81237 0.0
O176 O 0.21721 0.27527 0.75525 0.0
C177 C 0.21462 0.27977 0.79012 0.0
H178 H 0.30566 0.25599 0.93447 0.0
H179 H 0.19185 0.22856 0.59475 0.0
Co180 Co 0.73953 0.26369 0.7579 0.0
C181 C 0.79684 0.26624 0.81132 0.0
Co182 Co 0.76451 0.22503 0.74095 0.0
C183 C 0.7113 0.30833 0.80439 0.0
C184 C 0.71282 0.31772 0.74866 0.0
N185 N 0.72046 0.29759 0.77155 0.0
N186 N 0.69802 0.33432 0.80262 0.0
C187 C 0.6992 0.34036 0.76769 0.0
H188 H 0.71384 0.297 0.82873 0.0
H189 H 0.7169 0.31602 0.71986 0.0
C190 C 0.70663 0.22245 0.68816 0.0
N191 N 0.7833 0.19111 0.72526 0.0
C192 C 0.78538 0.17899 0.68894 0.0
C193 C 0.7956 0.17164 0.74626 0.0
N194 N 0.79839 0.15259 0.6863 0.0
C195 C 0.805 0.14796 0.72238 0.0
C196 C 0.71557 0.20711 0.78325 0.0
O197 O 0.70608 0.24823 0.71148 0.0
O198 O 0.72989 0.20841 0.6958 0.0
O199 O 0.7377 0.19763 0.76733 0.0
O200 O 0.71167 0.23583 0.78237 0.0
O201 O 0.79911 0.24187 0.78668 0.0
H202 H 0.79694 0.17409 0.77674 0.0
H203 H 0.77737 0.18933 0.66486 0.0
O204 O 0.77238 0.27901 0.80431 0.0
O205 O 0.76783 0.29162 0.7338 0.0
O206 O 0.79133 0.25255 0.71473 0.0
C207 C 0.78895 0.28203 0.71638 0.0
H208 H 0.69105 0.35997 0.75672 0.0
H209 H 0.81509 0.12834 0.73078 0.0
Co210 Co 0.73596 0.73407 0.73865 0.0
C211 C 0.73002 0.7797 0.80188 0.0
Co212 Co 0.77908 0.77726 0.76154 0.0
C213 C 0.70045 0.66658 0.72623 0.0
C214 C 0.66736 0.69698 0.71437 0.0
N215 N 0.69997 0.6972 0.72207 0.0
N216 N 0.66988 0.64817 0.72555 0.0
C217 C 0.64886 0.66691 0.71631 0.0
H218 H 0.72332 0.65939 0.73491 0.0
H219 H 0.65797 0.71852 0.71265 0.0
C220 C 0.78564 0.73185 0.69902 0.0
N221 N 0.81454 0.81418 0.77774 0.0
C222 C 0.82338 0.83472 0.75537 0.0
C223 C 0.83726 0.82649 0.81168 0.0
N224 N 0.85032 0.85939 0.77372 0.0
C225 C 0.85977 0.85429 0.80907 0.0
C226 C 0.7887 0.72575 0.79368 0.0
O227 O 0.75639 0.71652 0.69964 0.0
O228 O 0.79921 0.75971 0.72228 0.0
O229 O 0.8022 0.75549 0.79447 0.0
O230 O 0.75938 0.71257 0.77289 0.0
O231 O 0.75925 0.79443 0.80062 0.0
H232 H 0.83779 0.81569 0.83642 0.0
H233 H 0.81109 0.83102 0.72542 0.0
O234 O 0.71562 0.7521 0.7783 0.0
O235 O 0.71332 0.75574 0.70514 0.0
O236 O 0.75539 0.79916 0.72822 0.0
C237 C 0.72647 0.78572 0.70668 0.0
H238 H 0.62273 0.66159 0.71733 0.0
H239 H 0.88137 0.8693 0.83099 0.0
Cd240 Cd 0.96904 0.95979 0.5115 0.0
Cd241 Cd 0.01795 0.06513 0.47255 0.0
C242 C 0.03213 0.92865 0.499 0.0
N243 N 1.00132 0.9205 0.50667 0.0
C244 C 0.01721 0.87996 0.53869 0.0
C245 C 0.04997 0.88953 0.53386 0.0
C246 C 0.05693 0.91314 0.51206 0.0
C247 C 0.99322 0.89575 0.52482 0.0
H248 H 0.03826 0.94905 0.48575 0.0
H249 H 0.96904 0.89014 0.53169 0.0
C250 C 0.97169 0.99379 0.42976 0.0
C251 C 0.94087 0.06871 0.4526 0.0
C252 C 0.91447 0.08215 0.44025 0.0
C253 C 0.92046 0.11622 0.4425 0.0
C254 C 0.95306 0.13609 0.45927 0.0
C255 C 0.9787 0.12159 0.4715 0.0
N256 N 0.97231 0.0884 0.46726 0.0
H257 H 0.93643 0.04233 0.44859 0.0
H258 H 0.00412 0.13657 0.48212 0.0
C259 C 0.04858 0.01697 0.41803 0.0
N260 N 0.05009 0.03027 0.4555 0.0
C261 C 0.0866 0.99842 0.47699 0.0
C262 C 0.08229 0.98159 0.43876 0.0
C263 C 0.06422 0.99196 0.40891 0.0
C264 C 0.07012 0.02295 0.48476 0.0
H265 H 0.03416 0.02482 0.39528 0.0
H266 H 0.07268 0.03554 0.51421 0.0
C267 C 0.02232 0.03324 0.56099 0.0
C268 C 0.93831 0.94327 0.56901 0.0
N269 N 0.92252 0.97923 0.49216 0.0
C270 C 0.93162 0.01129 0.51142 0.0
C271 C 0.90834 0.02961 0.51334 0.0
C272 C 0.87469 0.01502 0.49533 0.0
C273 C 0.8656 0.98182 0.47452 0.0
C274 C 0.89025 0.96408 0.47337 0.0
C275 C 0.06855 0.1145 0.46141 0.0
O276 O 0.98149 0.9931 0.46484 0.0
O277 O 0.98175 0.02061 0.42006 0.0
O278 O 0.01889 0.04172 0.5291 0.0
O279 O 0.00816 0.0041 0.56195 0.0
O280 O 0.92754 0.92504 0.53486 0.0
O281 O 0.96281 0.96831 0.57499 0.0
O282 O 0.07087 0.10782 0.49437 0.0
O283 O 0.04169 0.10062 0.43618 0.0
H284 H 0.95692 0.02224 0.52737 0.0
H285 H 0.88332 0.93808 0.45954 0.0
H286 H 0.01065 0.86164 0.55493 0.0
H287 H 0.0819 0.92135 0.50775 0.0
H288 H 0.88979 0.06579 0.42813 0.0
H289 H 0.95927 0.16233 0.46089 0.0
H290 H 0.10109 0.9916 0.50068 0.0
H291 H 0.06184 0.98055 0.37894 0.0
H292 H 0.91656 0.05456 0.53101 0.0
H293 H 0.83973 0.96947 0.4609 0.0
Cd294 Cd 0.46108 0.97543 0.0432 0.0
Cd295 Cd 0.53175 0.01032 0.94901 0.0
C296 C 0.51718 0.94384 0.07973 0.0
N297 N 0.49698 0.94155 0.04509 0.0
C298 C 0.52133 0.90157 0.01379 0.0
C299 C 0.54322 0.90441 0.04897 0.0
C300 C 0.54094 0.92567 0.08226 0.0
C301 C 0.49821 0.92066 0.01247 0.0
H302 H 0.51508 0.96018 0.1053 0.0
H303 H 0.48129 0.91878 0.98549 0.0
C304 C 0.45733 0.96264 0.94068 0.0
C305 C 0.47055 0.03984 0.92499 0.0
C306 C 0.44612 0.05688 0.92829 0.0
C307 C 0.44831 0.07844 0.96342 0.0
C308 C 0.47541 0.08288 0.99437 0.0
C309 C 0.49919 0.06504 0.98987 0.0
N310 N 0.49589 0.04361 0.95579 0.0
H311 H 0.46916 0.02331 0.89794 0.0
H312 H 0.52015 0.06822 0.01357 0.0
C313 C 0.54196 0.94164 0.90552 0.0
N314 N 0.55601 0.9659 0.93802 0.0
C315 C 0.60324 0.94328 0.9506 0.0
C316 C 0.58995 0.9186 0.91632 0.0
C317 C 0.55843 0.91754 0.89426 0.0
C318 C 0.58579 0.96686 0.9609 0.0
H319 H 0.51855 0.94175 0.88744 0.0
H320 H 0.59669 0.98679 0.98622 0.0
C321 C 0.53815 0.01868 0.05324 0.0
C322 C 0.41763 0.93226 0.07756 0.0
N323 N 0.43637 0.02058 0.05164 0.0
C324 C 0.45294 0.05062 0.0751 0.0
C325 C 0.43557 0.07467 0.08431 0.0
C326 C 0.40084 0.06753 0.06953 0.0
C327 C 0.3849 0.03692 0.044 0.0
C328 C 0.40312 0.01375 0.03565 0.0
C329 C 0.57369 0.05512 0.91397 0.0
O330 O 0.46865 0.97454 0.97658 0.0
O331 O 0.47611 0.97016 0.91788 0.0
O332 O 0.5274 0.01018 0.01687 0.0
O333 O 0.51784 0.01134 0.07448 0.0
O334 O 0.41285 0.92822 0.04106 0.0
O335 O 0.44174 0.95629 0.09744 0.0
O336 O 0.58197 0.05505 0.94952 0.0
O337 O 0.54641 0.03462 0.89495 0.0
H338 H 0.47928 0.05546 0.08804 0.0
H339 H 0.3903 0.98966 0.01783 0.0
H340 H 0.52231 0.88501 0.98772 0.0
H341 H 0.55702 0.92778 0.11002 0.0
H342 H 0.42609 0.05373 0.90343 0.0
H343 H 0.47804 0.09981 0.02162 0.0
H344 H 0.6276 0.94537 0.96832 0.0
H345 H 0.54692 0.89875 0.86796 0.0
H346 H 0.44884 0.09787 0.10436 0.0
H347 H 0.35827 0.03047 0.03161 0.0
Cd348 Cd 0.98747 0.48623 0.06123 0.0
Cd349 Cd 0.02191 0.52467 0.943 0.0
C350 C 0.0576 0.47517 0.1121 0.0
N351 N 0.02898 0.46028 0.08459 0.0
C352 C 0.04259 0.40808 0.0796 0.0
C353 C 0.07242 0.42255 0.10774 0.0
C354 C 0.07975 0.45662 0.12423 0.0
C355 C 0.02123 0.42739 0.06856 0.0
H356 H 0.06318 0.50132 0.12473 0.0
H357 H 0.99808 0.416 0.04733 0.0
C358 C 0.9686 0.46179 0.95532 0.0
C359 C 0.95783 0.536 0.88353 0.0
C360 C 0.93507 0.55337 0.86992 0.0
C361 C 0.93226 0.58217 0.894 0.0
C362 C 0.95217 0.59211 0.93178 0.0
C363 C 0.97441 0.574 0.94419 0.0
N364 N 0.9771 0.5467 0.92005 0.0
H365 H 0.96081 0.51456 0.86458 0.0
H366 H 0.99059 0.58246 0.97276 0.0
C367 C 0.03397 0.46069 0.88499 0.0
N368 N 0.05019 0.48677 0.91511 0.0
C369 C 0.10086 0.46894 0.91798 0.0
C370 C 0.08475 0.44147 0.88724 0.0
C371 C 0.05077 0.43766 0.87067 0.0
C372 C 0.08307 0.49124 0.93151 0.0
H373 H 0.00786 0.45755 0.87215 0.0
H374 H 0.09544 0.512 0.95555 0.0
C375 C 0.03585 0.55037 0.04468 0.0
C376 C 0.9341 0.4358 0.06398 0.0
N377 N 0.9609 0.52541 0.08957 0.0
C378 C 0.97601 0.54894 0.1226 0.0
C379 C 0.95852 0.5705 0.13878 0.0
C380 C 0.92497 0.56756 0.12117 0.0
C381 C 0.91021 0.54309 0.08702 0.0
C382 C 0.92867 0.52232 0.0717 0.0
C383 C 0.06395 0.58277 0.9394 0.0
O384 O 0.981 0.47735 0.99024 0.0
O385 O 0.97792 0.47433 0.92872 0.0
O386 O 0.02513 0.53101 0.01164 0.0
O387 O 0.02773 0.54035 0.07331 0.0
O388 O 0.93805 0.44219 0.03199 0.0
O389 O 0.95462 0.45378 0.09457 0.0
O390 O 0.06982 0.57165 0.96942 0.0
O391 O 0.04073 0.56527 0.91094 0.0
H392 H 0.00154 0.55079 0.1367 0.0
H393 H 0.91712 0.5034 0.04558 0.0
H394 H 0.03545 0.38188 0.0666 0.0
H395 H 0.10252 0.46887 0.14593 0.0
H396 H 0.92009 0.54448 0.84072 0.0
H397 H 0.95153 0.61439 0.95127 0.0
H398 H 0.12683 0.47284 0.93211 0.0
H399 H 0.03731 0.41722 0.84663 0.0
H400 H 0.9709 0.58872 0.16532 0.0
H401 H 0.88463 0.54008 0.07209 0.0
Cd402 Cd 0.50062 0.47554 0.01787 0.0
Cd403 Cd 0.5252 0.5645 0.96036 0.0
C404 C 0.57101 0.47241 0.06428 0.0
N405 N 0.54957 0.45838 0.02947 0.0
C406 C 0.57572 0.41381 0.02037 0.0
C407 C 0.59734 0.42685 0.05708 0.0
C408 C 0.5952 0.45708 0.07863 0.0
C409 C 0.55157 0.42979 0.00733 0.0
H410 H 0.56776 0.49429 0.08211 0.0
H411 H 0.53323 0.41846 0.98054 0.0
C412 C 0.48358 0.48522 0.91906 0.0
C413 C 0.4493 0.57091 0.92874 0.0
C414 C 0.42485 0.58586 0.91377 0.0
C415 C 0.4326 0.62025 0.91774 0.0
C416 C 0.46473 0.63883 0.93857 0.0
C417 C 0.4884 0.62286 0.9531 0.0
N418 N 0.48055 0.58945 0.94744 0.0
H419 H 0.44368 0.54436 0.92396 0.0
H420 H 0.51365 0.63701 0.96716 0.0
C421 C 0.56072 0.51378 0.92105 0.0
N422 N 0.55686 0.52635 0.95677 0.0
C423 C 0.59523 0.49892 0.98539 0.0
C424 C 0.59795 0.48438 0.94872 0.0
C425 C 0.58087 0.49214 0.91627 0.0
C426 C 0.57424 0.52011 0.98884 0.0
H427 H 0.54831 0.52084 0.89627 0.0
H428 H 0.57249 0.53205 0.017 0.0
C429 C 0.53462 0.56231 0.06004 0.0
C430 C 0.46797 0.42821 0.05267 0.0
N431 N 0.46087 0.50313 0.02758 0.0
C432 C 0.45899 0.51358 0.06459 0.0
C433 C 0.44007 0.53566 0.07323 0.0
C434 C 0.42261 0.54634 0.04327 0.0
C435 C 0.42247 0.5329 0.00509 0.0
C436 C 0.44196 0.511 0.9978 0.0
C437 C 0.57348 0.60392 0.93159 0.0
O438 O 0.48951 0.48191 0.95332 0.0
O439 O 0.49081 0.51391 0.91275 0.0
O440 O 0.53384 0.5761 0.0316 0.0
O441 O 0.52576 0.5312 0.05548 0.0
O442 O 0.45734 0.42576 0.01678 0.0
O443 O 0.49334 0.45145 0.0704 0.0
O444 O 0.58045 0.60049 0.96579 0.0
O445 O 0.54355 0.59195 0.91279 0.0
H446 H 0.47373 0.50625 0.08753 0.0
H447 H 0.44252 0.50121 0.96847 0.0
H448 H 0.57651 0.39083 0.00242 0.0
H449 H 0.61049 0.46783 0.10745 0.0
H450 H 0.40035 0.57052 0.8984 0.0
H451 H 0.47213 0.66528 0.94196 0.0
H452 H 0.60922 0.49399 0.01085 0.0
H453 H 0.58332 0.48173 0.88763 0.0
H454 H 0.43962 0.54481 0.103 0.0
H455 H 0.40844 0.5401 0.9814 0.0
Cd456 Cd 0.98245 0.49064 0.57271 0.0
Cd457 Cd 0.04759 0.52101 0.47094 0.0
C458 C 0.04283 0.46632 0.61261 0.0
N459 N 0.02199 0.46156 0.57774 0.0
C460 C 0.04843 0.42261 0.54866 0.0
C461 C 0.07031 0.42697 0.58437 0.0
C462 C 0.06759 0.44939 0.61654 0.0
C463 C 0.02417 0.44027 0.54601 0.0
H464 H 0.04022 0.48338 0.63727 0.0
H465 H 0.00682 0.43669 0.5188 0.0
C466 C 0.97192 0.47668 0.4678 0.0
C467 C 0.98969 0.5457 0.42503 0.0
C468 C 0.96468 0.56205 0.41866 0.0
C469 C 0.95873 0.58307 0.44991 0.0
C470 C 0.97778 0.58657 0.48713 0.0
C471 C 0.00223 0.56929 0.49222 0.0
N472 N 0.00753 0.54938 0.46136 0.0
H473 H 0.99458 0.52959 0.40112 0.0
H474 H 0.0172 0.57197 0.5207 0.0
C475 C 0.05906 0.44545 0.45038 0.0
N476 N 0.07343 0.47812 0.45522 0.0
C477 C 0.12106 0.46584 0.43408 0.0
C478 C 0.10654 0.43192 0.42742 0.0
C479 C 0.07544 0.42176 0.43665 0.0
C480 C 0.10408 0.4885 0.44807 0.0
H481 H 0.03458 0.43774 0.4561 0.0
H482 H 0.11508 0.51455 0.45232 0.0
C483 C 0.05572 0.53656 0.5725 0.0
C484 C 0.93888 0.44406 0.60422 0.0
N485 N 0.95564 0.53337 0.58181 0.0
C486 C 0.97116 0.56602 0.58928 0.0
C487 C 0.95337 0.58978 0.59768 0.0
C488 C 0.91947 0.57969 0.59862 0.0
C489 C 0.90402 0.54579 0.58937 0.0
C490 C 0.92261 0.52303 0.58104 0.0
C491 C 0.08761 0.56738 0.4372 0.0
O492 O 0.98373 0.48548 0.50388 0.0
O493 O 0.991 0.48332 0.44506 0.0
O494 O 0.04176 0.52239 0.53778 0.0
O495 O 0.03913 0.53207 0.59824 0.0
O496 O 0.93418 0.44274 0.56822 0.0
O497 O 0.96345 0.46692 0.6256 0.0
O498 O 0.09261 0.57143 0.47376 0.0
O499 O 0.06488 0.54218 0.41734 0.0
H500 H 0.99745 0.57366 0.58963 0.0
H501 H 0.9108 0.49695 0.5747 0.0
H502 H 0.04942 0.4051 0.52338 0.0
H503 H 0.08425 0.45362 0.64448 0.0
H504 H 0.95016 0.55822 0.3896 0.0
H505 H 0.97435 0.60295 0.51189 0.0
H506 H 0.14522 0.47483 0.42807 0.0
H507 H 0.06334 0.39582 0.43191 0.0
H508 H 0.96628 0.61568 0.60472 0.0
H509 H 0.87782 0.53689 0.58898 0.0
Cd510 Cd 0.48738 0.98197 0.5599 0.0
Cd511 Cd 0.5071 0.01375 0.43276 0.0
C512 C 0.55611 0.97552 0.61823 0.0
N513 N 0.53351 0.96191 0.58401 0.0
C514 C 0.55669 0.91509 0.57443 0.0
C515 C 0.5803 0.92817 0.60971 0.0
C516 C 0.57991 0.95904 0.6316 0.0
C517 C 0.53361 0.93238 0.56217 0.0
H518 H 0.55523 0.99875 0.63554 0.0
H519 H 0.51493 0.92172 0.53557 0.0
C520 C 0.45997 0.95228 0.45432 0.0
C521 C 0.44214 0.02738 0.37751 0.0
C522 C 0.42026 0.04604 0.36528 0.0
C523 C 0.42152 0.07678 0.38879 0.0
C524 C 0.44454 0.08737 0.42469 0.0
C525 C 0.46574 0.06792 0.4358 0.0
N526 N 0.4644 0.0387 0.41218 0.0
H527 H 0.44191 0.0043 0.35896 0.0
H528 H 0.48416 0.07663 0.46287 0.0
C529 C 0.51903 0.94551 0.38234 0.0
N530 N 0.53431 0.97342 0.41036 0.0
C531 C 0.58664 0.95883 0.41571 0.0
C532 C 0.57171 0.92984 0.38685 0.0
C533 C 0.53732 0.92315 0.37032 0.0
C534 C 0.56741 0.98023 0.42712 0.0
H535 H 0.49276 0.94067 0.36904 0.0
H536 H 0.57896 0.00253 0.44935 0.0
C537 C 0.53094 0.04418 0.53454 0.0
C538 C 0.44392 0.92417 0.56183 0.0
N539 N 0.459 0.01851 0.59008 0.0
C540 C 0.45726 0.02057 0.62752 0.0
C541 C 0.43972 0.04141 0.64492 0.0
C542 C 0.42387 0.06061 0.62377 0.0
C543 C 0.42658 0.05827 0.5853 0.0
C544 C 0.44424 0.037 0.569 0.0
C545 C 0.55542 0.06224 0.4184 0.0
O546 O 0.47457 0.97034 0.48775 0.0
O547 O 0.46488 0.96299 0.42489 0.0
O548 O 0.51681 0.02431 0.50245 0.0
O549 O 0.52613 0.03546 0.56509 0.0
O550 O 0.44703 0.93146 0.53018 0.0
O551 O 0.45966 0.94507 0.59304 0.0
O552 O 0.55508 0.0591 0.4525 0.0
O553 O 0.53318 0.04195 0.3908 0.0
H554 H 0.46939 0.0059 0.64393 0.0
H555 H 0.44597 0.03504 0.53931 0.0
H556 H 0.55526 0.89115 0.55685 0.0
H557 H 0.59768 0.97028 0.65886 0.0
H558 H 0.40276 0.03659 0.33757 0.0
H559 H 0.44706 0.11104 0.44357 0.0
H560 H 0.61294 0.96484 0.42957 0.0
H561 H 0.52484 0.90126 0.34773 0.0
H562 H 0.43883 0.04267 0.67477 0.0
H563 H 0.4146 0.07225 0.56764 0.0
C564 C 0.18205 0.15323 0.31654 0.0
C565 C 0.15716 0.13983 0.2823 0.0
C566 C 0.17588 0.14891 0.35206 0.0
C567 C 0.14414 0.13057 0.3533 0.0
C568 C 0.12026 0.11392 0.31852 0.0
C569 C 0.12694 0.1191 0.28334 0.0
C570 C 0.20209 0.16693 0.38831 0.0
C571 C 0.08653 0.09297 0.3187 0.0
C572 C 0.11939 0.10749 0.44144 0.0
C573 C 0.098 0.12801 0.44796 0.0
C574 C 0.13692 0.1094 0.41224 0.0
C575 C 0.13363 0.13316 0.39032 0.0
C576 C 0.11583 0.15692 0.40073 0.0
C577 C 0.09754 0.15359 0.42903 0.0
C578 C 0.1553 0.08342 0.40193 0.0
C579 C 0.113 0.18359 0.3791 0.0
H580 H 0.20535 0.16974 0.31621 0.0
H581 H 0.10783 0.10871 0.25691 0.0
H582 H 0.19587 0.19002 0.40088 0.0
H583 H 0.20282 0.15194 0.41019 0.0
H584 H 0.22737 0.17357 0.38236 0.0
H585 H 0.07308 0.0778 0.28952 0.0
H586 H 0.0893 0.07636 0.33858 0.0
H587 H 0.07094 0.10915 0.3291 0.0
H588 H 0.11904 0.0872 0.45563 0.0
H589 H 0.08059 0.16908 0.43386 0.0
H590 H 0.17787 0.09349 0.39187 0.0
H591 H 0.13854 0.0632 0.37816 0.0
H592 H 0.16282 0.07268 0.42678 0.0
H593 H 0.13777 0.19551 0.37484 0.0
H594 H 0.10278 0.20285 0.39442 0.0
H595 H 0.09613 0.17249 0.3502 0.0
C596 C 0.82567 0.20795 0.31038 0.0
C597 C 0.79316 0.20966 0.31307 0.0
C598 C 0.84396 0.1924 0.33402 0.0
C599 C 0.82942 0.17791 0.36104 0.0
C600 C 0.7967 0.17969 0.36422 0.0
C601 C 0.77889 0.19552 0.34007 0.0
C602 C 0.87895 0.19153 0.32999 0.0
C603 C 0.77991 0.16439 0.3923 0.0
C604 C 0.87079 0.11275 0.39007 0.0
C605 C 0.89383 0.13057 0.42453 0.0
C606 C 0.848 0.12721 0.37051 0.0
C607 C 0.84875 0.16053 0.38512 0.0
C608 C 0.8707 0.17819 0.42071 0.0
C609 C 0.89274 0.16291 0.44016 0.0
C610 C 0.82415 0.1073 0.33323 0.0
C611 C 0.87181 0.21364 0.43746 0.0
H612 H 0.83713 0.21906 0.28987 0.0
H613 H 0.75381 0.19669 0.34229 0.0
H614 H 0.89698 0.20276 0.35812 0.0
H615 H 0.88032 0.1656 0.32123 0.0
H616 H 0.88695 0.20489 0.30837 0.0
H617 H 0.76272 0.17871 0.40259 0.0
H618 H 0.76482 0.13906 0.37741 0.0
H619 H 0.79807 0.16276 0.4177 0.0
H620 H 0.87141 0.0879 0.3773 0.0
H621 H 0.90967 0.17664 0.46726 0.0
H622 H 0.83107 0.11731 0.30885 0.0
H623 H 0.79832 0.10924 0.33381 0.0
H624 H 0.82433 0.08084 0.32771 0.0
H625 H 0.88053 0.22925 0.41816 0.0
H626 H 0.88877 0.2233 0.46654 0.0
H627 H 0.84636 0.21602 0.43944 0.0
C628 C 0.81228 0.85852 0.30266 0.0
C629 C 0.81953 0.83165 0.28038 0.0
C630 C 0.83775 0.88658 0.32263 0.0
C631 C 0.87114 0.88755 0.32009 0.0
C632 C 0.87808 0.86149 0.29497 0.0
C633 C 0.85208 0.8335 0.27565 0.0
C634 C 0.82928 0.91386 0.349 0.0
C635 C 0.91325 0.86197 0.29087 0.0
C636 C 0.93443 0.96967 0.36437 0.0
C637 C 0.94715 0.96587 0.40138 0.0
C638 C 0.9105 0.94403 0.33707 0.0
C639 C 0.89884 0.91392 0.34707 0.0
C640 C 0.9122 0.90959 0.38402 0.0
C641 C 0.93639 0.9356 0.41068 0.0
C642 C 0.89711 0.94949 0.29791 0.0
C643 C 0.90031 0.87776 0.39574 0.0
H644 H 0.78704 0.85655 0.30669 0.0
H645 H 0.85754 0.8123 0.25884 0.0
H646 H 0.83935 0.9138 0.37943 0.0
H647 H 0.84104 0.93825 0.34447 0.0
H648 H 0.80188 0.91101 0.34449 0.0
H649 H 0.91365 0.8429 0.26566 0.0
H650 H 0.9263 0.8865 0.28783 0.0
H651 H 0.92754 0.85723 0.31721 0.0
H652 H 0.94285 0.99292 0.35676 0.0
H653 H 0.94651 0.93232 0.43895 0.0
H654 H 0.8704 0.94963 0.29468 0.0
H655 H 0.89848 0.92905 0.27486 0.0
H656 H 0.91101 0.97317 0.29345 0.0
H657 H 0.87328 0.87347 0.39542 0.0
H658 H 0.91408 0.87793 0.42497 0.0
H659 H 0.90338 0.85671 0.37482 0.0
C660 C 0.18168 0.88686 0.33407 0.0
C661 C 0.18813 0.85764 0.34145 0.0
C662 C 0.16066 0.90172 0.35273 0.0
C663 C 0.14654 0.88716 0.38004 0.0
C664 C 0.15217 0.85698 0.38674 0.0
C665 C 0.1729 0.84233 0.36695 0.0
C666 C 0.15441 0.93349 0.34402 0.0
C667 C 0.13824 0.84109 0.41621 0.0
C668 C 0.12963 0.95539 0.44764 0.0
C669 C 0.09667 0.95344 0.42971 0.0
C670 C 0.14531 0.93117 0.43459 0.0
C671 C 0.12759 0.9051 0.4026 0.0
C672 C 0.09324 0.90104 0.38737 0.0
C673 C 0.07804 0.9254 0.40127 0.0
C674 C 0.1817 0.93526 0.45245 0.0
C675 C 0.07349 0.87279 0.35404 0.0
H676 H 0.19334 0.89807 0.31377 0.0
H677 H 0.17835 0.8197 0.37252 0.0
H678 H 0.12715 0.93136 0.33609 0.0
H679 H 0.16527 0.95396 0.37001 0.0
H680 H 0.16556 0.94014 0.32013 0.0
H681 H 0.13406 0.81387 0.40807 0.0
H682 H 0.15675 0.85035 0.44422 0.0
H683 H 0.11446 0.84698 0.42029 0.0
H684 H 0.14388 0.97688 0.47003 0.0
H685 H 0.05207 0.92338 0.38855 0.0
H686 H 0.19722 0.94393 0.43286 0.0
H687 H 0.18617 0.9113 0.45659 0.0
H688 H 0.19012 0.95345 0.48068 0.0
H689 H 0.08118 0.87692 0.32728 0.0
H690 H 0.04616 0.87037 0.34962 0.0
H691 H 0.07869 0.84922 0.35877 0.0
C692 C 0.16257 0.79031 0.64142 0.0
C693 C 0.19481 0.80896 0.66126 0.0
C694 C 0.1409 0.80368 0.61839 0.0
C695 C 0.15124 0.83694 0.61602 0.0
C696 C 0.18401 0.85578 0.63567 0.0
C697 C 0.20561 0.84137 0.65756 0.0
C698 C 0.10662 0.78234 0.59725 0.0
C699 C 0.1958 0.89153 0.63485 0.0
C700 C 0.09986 0.86505 0.536 0.0
C701 C 0.07703 0.87721 0.55473 0.0
C702 C 0.12445 0.85223 0.55561 0.0
C703 C 0.12685 0.85235 0.59514 0.0
C704 C 0.10455 0.86566 0.61443 0.0
C705 C 0.07984 0.87762 0.59399 0.0
C706 C 0.14724 0.83767 0.53378 0.0
C707 C 0.10647 0.86685 0.65665 0.0
H708 H 0.15426 0.76508 0.64386 0.0
H709 H 0.23046 0.85586 0.67303 0.0
H710 H 0.08725 0.79184 0.60955 0.0
H711 H 0.10192 0.78322 0.56643 0.0
H712 H 0.10358 0.75621 0.59914 0.0
H713 H 0.22238 0.90236 0.6502 0.0
H714 H 0.1928 0.89417 0.60468 0.0
H715 H 0.18021 0.90596 0.64858 0.0
H716 H 0.09785 0.86469 0.50571 0.0
H717 H 0.06271 0.88756 0.60888 0.0
H718 H 0.14398 0.81132 0.53457 0.0
H719 H 0.17372 0.85051 0.54761 0.0
H720 H 0.1422 0.83941 0.50325 0.0
H721 H 0.10043 0.84142 0.66107 0.0
H722 H 0.08893 0.88008 0.66809 0.0
H723 H 0.13225 0.87923 0.67373 0.0
C724 C 0.1428 0.16787 0.73964 0.0
C725 C 0.17511 0.1639 0.74101 0.0
C726 C 0.11506 0.1431 0.71713 0.0
C727 C 0.12025 0.11438 0.69507 0.0
C728 C 0.15266 0.10889 0.69986 0.0
C729 C 0.17991 0.13394 0.72296 0.0
C730 C 0.0808 0.14952 0.71331 0.0
C731 C 0.15917 0.07855 0.67683 0.0
C732 C 0.04751 0.04628 0.63134 0.0
C733 C 0.04588 0.05505 0.59576 0.0
C734 C 0.0712 0.0656 0.66432 0.0
C735 C 0.09378 0.09418 0.66141 0.0
C736 C 0.09181 0.10349 0.62571 0.0
C737 C 0.06773 0.08385 0.59332 0.0
C738 C 0.07247 0.05512 0.70194 0.0
C739 C 0.1156 0.13388 0.6215 0.0
H740 H 0.13944 0.19138 0.75349 0.0
H741 H 0.20514 0.13135 0.72383 0.0
H742 H 0.0742 0.15777 0.68632 0.0
H743 H 0.06155 0.12674 0.71161 0.0
H744 H 0.07994 0.16902 0.73783 0.0
H745 H 0.18403 0.07506 0.68906 0.0
H746 H 0.13964 0.05614 0.67558 0.0
H747 H 0.15847 0.08111 0.64683 0.0
H748 H 0.03044 0.02408 0.63339 0.0
H749 H 0.06654 0.09068 0.56589 0.0
H750 H 0.07121 0.07569 0.72488 0.0
H751 H 0.09654 0.04887 0.71104 0.0
H752 H 0.05173 0.03335 0.69978 0.0
H753 H 0.11372 0.15607 0.64161 0.0
H754 H 0.11051 0.13771 0.59176 0.0
H755 H 0.14173 0.1318 0.62909 0.0
C756 C 0.82994 0.11759 0.65491 0.0
C757 C 0.80375 0.13315 0.65212 0.0
C758 C 0.83553 0.09828 0.62225 0.0
C759 C 0.81423 0.09424 0.58573 0.0
C760 C 0.78779 0.11001 0.58252 0.0
C761 C 0.78288 0.12939 0.61582 0.0
C762 C 0.86444 0.08236 0.62693 0.0
C763 C 0.76468 0.10623 0.54405 0.0
C764 C 0.85796 0.06792 0.50829 0.0
C765 C 0.84995 0.03365 0.50462 0.0
C766 C 0.84403 0.08827 0.53202 0.0
C767 C 0.82054 0.07378 0.55128 0.0
C768 C 0.80837 0.03901 0.54259 0.0
C769 C 0.82349 0.01923 0.51954 0.0
C770 C 0.85795 0.12516 0.54034 0.0
C771 C 0.78229 0.02264 0.56131 0.0
H772 H 0.84644 0.12091 0.68273 0.0
H773 H 0.76237 0.14112 0.61352 0.0
H774 H 0.8551 0.05518 0.61681 0.0
H775 H 0.8818 0.09079 0.60904 0.0
H776 H 0.87873 0.08821 0.65731 0.0
H777 H 0.74541 0.12028 0.54638 0.0
H778 H 0.77925 0.11484 0.52362 0.0
H779 H 0.75196 0.07982 0.53146 0.0
H780 H 0.87798 0.0792 0.49627 0.0
H781 H 0.81694 0.99278 0.51666 0.0
H782 H 0.87677 0.13338 0.56818 0.0
H783 H 0.83809 0.13832 0.54295 0.0
H784 H 0.87039 0.13253 0.51761 0.0
H785 H 0.79419 0.02304 0.59135 0.0
H786 H 0.7706 0.99655 0.54572 0.0
H787 H 0.76244 0.03604 0.56245 0.0
C788 C 0.89996 0.8849 0.7535 0.0
C789 C 0.86677 0.88294 0.75562 0.0
C790 C 0.91295 0.89921 0.72584 0.0
C791 C 0.89214 0.91196 0.70044 0.0
C792 C 0.85976 0.91302 0.70531 0.0
C793 C 0.84743 0.89832 0.73289 0.0
C794 C 0.94767 0.89777 0.72137 0.0
C795 C 0.837 0.92682 0.67915 0.0
C796 C 0.93158 0.95992 0.63563 0.0
C797 C 0.92418 0.9356 0.60133 0.0
C798 C 0.92082 0.95277 0.66806 0.0
C799 C 0.90261 0.92045 0.6661 0.0
C800 C 0.89442 0.89591 0.63128 0.0
C801 C 0.90517 0.90389 0.59908 0.0
C802 C 0.92931 0.97964 0.70446 0.0
C803 C 0.87501 0.86108 0.62833 0.0
H804 H 0.9146 0.8726 0.77096 0.0
H805 H 0.82171 0.8966 0.73486 0.0
H806 H 0.94583 0.87911 0.69479 0.0
H807 H 0.96182 0.92183 0.71826 0.0
H808 H 0.96201 0.891 0.74622 0.0
H809 H 0.81528 0.93107 0.691 0.0
H810 H 0.85078 0.95037 0.67439 0.0
H811 H 0.82735 0.90913 0.65068 0.0
H812 H 0.94607 0.98459 0.63727 0.0
H813 H 0.89958 0.88509 0.57258 0.0
H814 H 0.94541 0.97292 0.72793 0.0
H815 H 0.90618 0.98231 0.71394 0.0
H816 H 0.94254 0.00384 0.70061 0.0
H817 H 0.88879 0.85013 0.64951 0.0
H818 H 0.87067 0.84502 0.59911 0.0
H819 H 0.85044 0.86117 0.6354 0.0
C820 C 0.27794 0.18147 0.12892 0.0
C821 C 0.28898 0.19591 0.16836 0.0
C822 C 0.2958 0.16171 0.10992 0.0
C823 C 0.32482 0.15559 0.13124 0.0
C824 C 0.33551 0.16985 0.17134 0.0
C825 C 0.3178 0.19023 0.18918 0.0
C826 C 0.28313 0.1479 0.06709 0.0
C827 C 0.3649 0.16258 0.19586 0.0
C828 C 0.35115 0.07776 0.09427 0.0
C829 C 0.3807 0.09032 0.0832 0.0
C830 C 0.3324 0.09863 0.10902 0.0
C831 C 0.3432 0.13303 0.11264 0.0
C832 C 0.37239 0.14582 0.10027 0.0
C833 C 0.39102 0.12437 0.08612 0.0
C834 C 0.3012 0.08388 0.12125 0.0
C835 C 0.384 0.18217 0.10222 0.0
H836 H 0.25561 0.1859 0.11283 0.0
H837 H 0.32591 0.20099 0.21992 0.0
H838 H 0.2865 0.16852 0.05232 0.0
H839 H 0.29592 0.12961 0.05492 0.0
H840 H 0.25589 0.13617 0.06037 0.0
H841 H 0.37058 0.17651 0.22634 0.0
H842 H 0.35946 0.13582 0.19508 0.0
H843 H 0.38752 0.16883 0.18434 0.0
H844 H 0.34309 0.05153 0.09239 0.0
H845 H 0.41354 0.13419 0.0771 0.0
H846 H 0.27928 0.08964 0.10439 0.0
H847 H 0.30345 0.09493 0.15211 0.0
H848 H 0.29636 0.05668 0.11702 0.0
H849 H 0.36288 0.19134 0.08905 0.0
H850 H 0.40465 0.18768 0.08727 0.0
H851 H 0.39287 0.19605 0.13273 0.0
C852 C 0.86995 0.27525 0.11951 0.0
C853 C 0.83725 0.27067 0.1248 0.0
C854 C 0.88146 0.29714 0.0978 0.0
C855 C 0.85919 0.31358 0.08031 0.0
C856 C 0.82467 0.30332 0.07845 0.0
C857 C 0.81395 0.28163 0.10071 0.0
C858 C 0.91842 0.30659 0.09918 0.0
C859 C 0.79982 0.31914 0.05845 0.0
C860 C 0.90049 0.40403 0.10045 0.0
C861 C 0.90927 0.40653 0.06558 0.0
C862 C 0.88207 0.37416 0.10471 0.0
C863 C 0.87301 0.34611 0.0735 0.0
C864 C 0.88007 0.34887 0.03762 0.0
C865 C 0.89762 0.37945 0.03382 0.0
C866 C 0.87426 0.37216 0.14338 0.0
C867 C 0.87108 0.319 0.00445 0.0
H868 H 0.88758 0.265 0.136 0.0
H869 H 0.78807 0.27691 0.10256 0.0
H870 H 0.92319 0.31214 0.07175 0.0
H871 H 0.9305 0.32915 0.12243 0.0
H872 H 0.93047 0.28677 0.10545 0.0
H873 H 0.77428 0.30233 0.04973 0.0
H874 H 0.79902 0.3418 0.07863 0.0
H875 H 0.80691 0.32627 0.03263 0.0
H876 H 0.9091 0.42513 0.12485 0.0
H877 H 0.90402 0.38167 0.00681 0.0
H878 H 0.88837 0.35624 0.15663 0.0
H879 H 0.84725 0.36088 0.13979 0.0
H880 H 0.88095 0.39676 0.16362 0.0
H881 H 0.88506 0.30085 0.01189 0.0
H882 H 0.87697 0.32537 0.97794 0.0
H883 H 0.8441 0.30657 0.99848 0.0
C884 C 0.65004 0.80228 0.14141 0.0
C885 C 0.6705 0.78755 0.12118 0.0
C886 C 0.63005 0.82055 0.12467 0.0
C887 C 0.63111 0.82462 0.08708 0.0
C888 C 0.65172 0.80981 0.06647 0.0
C889 C 0.67102 0.79107 0.08372 0.0
C890 C 0.60791 0.83561 0.14728 0.0
C891 C 0.65406 0.81459 0.02683 0.0
C892 C 0.55592 0.8497 0.04024 0.0
C893 C 0.56726 0.88405 0.05191 0.0
C894 C 0.57726 0.82974 0.04929 0.0
C895 C 0.61064 0.84475 0.06996 0.0
C896 C 0.62284 0.87946 0.07904 0.0
C897 C 0.60081 0.89879 0.07017 0.0
C898 C 0.5633 0.79281 0.03961 0.0
C899 C 0.65845 0.89629 0.10049 0.0
H900 H 0.64936 0.79908 0.17021 0.0
H901 H 0.68714 0.77982 0.06839 0.0
H902 H 0.61656 0.86289 0.15394 0.0
H903 H 0.58178 0.82856 0.13002 0.0
H904 H 0.60798 0.82777 0.17473 0.0
H905 H 0.66987 0.79998 0.01379 0.0
H906 H 0.62882 0.80763 0.00739 0.0
H907 H 0.66491 0.84105 0.0288 0.0
H908 H 0.52983 0.83849 0.02629 0.0
H909 H 0.60944 0.92546 0.07878 0.0
H910 H 0.56116 0.7845 0.06648 0.0
H911 H 0.58034 0.78014 0.02631 0.0
H912 H 0.5382 0.78495 0.01967 0.0
H913 H 0.66161 0.89475 0.13106 0.0
H914 H 0.66533 0.92273 0.09967 0.0
H915 H 0.67611 0.88384 0.0882 0.0
C916 C 0.14134 0.69782 0.18333 0.0
C917 C 0.1646 0.72255 0.17507 0.0
C918 C 0.11634 0.67531 0.15385 0.0
C919 C 0.11431 0.67803 0.11517 0.0
C920 C 0.13538 0.70544 0.10734 0.0
C921 C 0.16091 0.72712 0.13746 0.0
C922 C 0.09461 0.6465 0.16382 0.0
C923 C 0.13303 0.71056 0.06703 0.0
C924 C 0.09035 0.59102 0.05684 0.0
C925 C 0.05558 0.58435 0.05049 0.0
C926 C 0.11022 0.6232 0.0731 0.0
C927 C 0.09473 0.64891 0.08386 0.0
C928 C 0.05955 0.64286 0.07265 0.0
C929 C 0.04024 0.61038 0.05659 0.0
C930 C 0.14775 0.62886 0.0829 0.0
C931 C 0.04215 0.66995 0.08114 0.0
H932 H 0.1447 0.6942 0.21246 0.0
H933 H 0.17922 0.74618 0.13113 0.0
H934 H 0.06784 0.6442 0.15168 0.0
H935 H 0.1005 0.62327 0.15106 0.0
H936 H 0.09832 0.64895 0.19542 0.0
H937 H 0.13918 0.7373 0.06755 0.0
H938 H 0.15153 0.69992 0.05415 0.0
H939 H 0.10778 0.69869 0.04822 0.0
H940 H 0.10202 0.57074 0.05172 0.0
H941 H 0.0132 0.60505 0.05123 0.0
H942 H 0.15689 0.63344 0.11457 0.0
H943 H 0.15976 0.65091 0.07371 0.0
H944 H 0.15586 0.60739 0.06892 0.0
H945 H 0.03918 0.67334 0.11126 0.0
H946 H 0.01689 0.66381 0.06178 0.0
H947 H 0.05704 0.69369 0.07797 0.0
C948 C 0.28942 0.82373 0.85408 0.0
C949 C 0.27198 0.83469 0.8245 0.0
C950 C 0.31558 0.84593 0.88251 0.0
C951 C 0.32332 0.87959 0.88135 0.0
C952 C 0.30126 0.89129 0.85618 0.0
C953 C 0.27628 0.86843 0.82692 0.0
C954 C 0.33781 0.83269 0.90987 0.0
C955 C 0.30696 0.9275 0.85687 0.0
C956 C 0.40091 0.93813 0.9501 0.0
C957 C 0.42357 0.94025 0.92611 0.0
C958 C 0.36798 0.91868 0.93629 0.0
C959 C 0.35794 0.90008 0.89778 0.0
C960 C 0.38115 0.90116 0.87377 0.0
C961 C 0.41354 0.92163 0.88809 0.0
C962 C 0.34451 0.91826 0.96326 0.0
C963 C 0.37174 0.88083 0.83273 0.0
H964 H 0.28578 0.79744 0.85193 0.0
H965 H 0.26244 0.87674 0.80403 0.0
H966 H 0.36178 0.83332 0.90092 0.0
H967 H 0.34362 0.84827 0.9395 0.0
H968 H 0.32612 0.80688 0.91027 0.0
H969 H 0.28386 0.93325 0.84272 0.0
H970 H 0.31554 0.94255 0.88696 0.0
H971 H 0.32669 0.93471 0.84125 0.0
H972 H 0.40875 0.95225 0.97958 0.0
H973 H 0.43105 0.92294 0.86954 0.0
H974 H 0.31779 0.90935 0.94799 0.0
H975 H 0.34844 0.94326 0.9816 0.0
H976 H 0.35005 0.90196 0.98276 0.0
H977 H 0.36033 0.85464 0.83172 0.0
H978 H 0.3936 0.88193 0.81935 0.0
H979 H 0.35294 0.88996 0.81497 0.0
C980 C 0.17532 0.3157 0.77896 0.0
C981 C 0.1944 0.30212 0.80457 0.0
C982 C 0.15672 0.33753 0.79198 0.0
C983 C 0.15739 0.34648 0.83176 0.0
C984 C 0.17639 0.33266 0.85779 0.0
C985 C 0.19457 0.31062 0.84392 0.0
C986 C 0.13683 0.35141 0.76304 0.0
C987 C 0.17774 0.34139 0.9004 0.0
C988 C 0.13666 0.42758 0.87036 0.0
C989 C 0.10326 0.41702 0.87281 0.0
C990 C 0.1545 0.40497 0.85723 0.0
C991 C 0.13873 0.37076 0.84616 0.0
C992 C 0.10503 0.35987 0.84846 0.0
C993 C 0.08776 0.38304 0.8617 0.0
C994 C 0.19026 0.41776 0.85498 0.0
C995 C 0.0872 0.32368 0.83692 0.0
H996 H 0.17497 0.30937 0.74852 0.0
H997 H 0.20927 0.30038 0.86402 0.0
H998 H 0.11109 0.34937 0.76735 0.0
H999 H 0.14884 0.37797 0.76701 0.0
H1000 H 0.13526 0.33854 0.73298 0.0
H1001 H 0.19313 0.32814 0.91681 0.0
H1002 H 0.18833 0.36831 0.91202 0.0
H1003 H 0.15211 0.33536 0.90538 0.0
H1004 H 0.14884 0.45371 0.87824 0.0
H1005 H 0.06216 0.37442 0.86388 0.0
H1006 H 0.19269 0.41066 0.82482 0.0
H1007 H 0.20692 0.40646 0.87268 0.0
H1008 H 0.19911 0.44501 0.86511 0.0
H1009 H 0.08686 0.31347 0.80638 0.0
H1010 H 0.06104 0.31911 0.84046 0.0
H1011 H 0.10083 0.30992 0.85456 0.0
C1012 C 0.67371 0.19686 0.82483 0.0
C1013 C 0.69468 0.18498 0.80259 0.0
C1014 C 0.65419 0.17642 0.8434 0.0
C1015 C 0.65519 0.14292 0.83967 0.0
C1016 C 0.67617 0.13074 0.81708 0.0
C1017 C 0.6956 0.15178 0.79903 0.0
C1018 C 0.63243 0.19075 0.86709 0.0
C1019 C 0.67818 0.09535 0.812 0.0
C1020 C 0.62689 0.09702 0.91487 0.0
C1021 C 0.59461 0.07788 0.89537 0.0
C1022 C 0.64679 0.11806 0.89719 0.0
C1023 C 0.63419 0.12061 0.8591 0.0
C1024 C 0.60148 0.1016 0.8395 0.0
C1025 C 0.58233 0.08048 0.85765 0.0
C1026 C 0.68151 0.13742 0.91926 0.0
C1027 C 0.58657 0.10355 0.79918 0.0
H1028 H 0.67268 0.22237 0.828 0.0
H1029 H 0.71147 0.14208 0.7819 0.0
H1030 H 0.60594 0.17667 0.85562 0.0
H1031 H 0.63971 0.18853 0.89725 0.0
H1032 H 0.63427 0.21713 0.86722 0.0
H1033 H 0.69562 0.08952 0.79366 0.0
H1034 H 0.68662 0.09017 0.84052 0.0
H1035 H 0.65305 0.07854 0.79869 0.0
H1036 H 0.63683 0.09533 0.94393 0.0
H1037 H 0.55746 0.06606 0.84221 0.0
H1038 H 0.68382 0.16419 0.92212 0.0
H1039 H 0.70017 0.13084 0.9032 0.0
H1040 H 0.68783 0.13279 0.9485 0.0
H1041 H 0.58623 0.1294 0.79864 0.0
H1042 H 0.56067 0.08772 0.78801 0.0
H1043 H 0.60222 0.09585 0.7794 0.0
C1044 C 0.84213 0.71883 0.83146 0.0
C1045 C 0.80838 0.70543 0.8125 0.0
C1046 C 0.86203 0.6989 0.84535 0.0
C1047 C 0.84784 0.66474 0.84051 0.0
C1048 C 0.81361 0.65126 0.82222 0.0
C1049 C 0.79447 0.67168 0.80825 0.0
C1050 C 0.89847 0.71428 0.86437 0.0
C1051 C 0.79729 0.61509 0.81662 0.0
C1052 C 0.90604 0.60709 0.842 0.0
C1053 C 0.90965 0.60241 0.87973 0.0
C1054 C 0.8859 0.62709 0.82882 0.0
C1055 C 0.86894 0.64301 0.85392 0.0
C1056 C 0.87222 0.63822 0.89185 0.0
C1057 C 0.89239 0.61799 0.90422 0.0
C1058 C 0.88299 0.63144 0.78807 0.0
C1059 C 0.85445 0.65456 0.91947 0.0
H1060 H 0.85333 0.74478 0.83456 0.0
H1061 H 0.76875 0.66091 0.79302 0.0
H1062 H 0.90423 0.70959 0.8936 0.0
H1063 H 0.91429 0.70282 0.84748 0.0
H1064 H 0.9055 0.74133 0.86687 0.0
H1065 H 0.77014 0.60871 0.80306 0.0
H1066 H 0.80953 0.60004 0.79816 0.0
H1067 H 0.80052 0.6081 0.84476 0.0
H1068 H 0.91955 0.59567 0.82291 0.0
H1069 H 0.89446 0.61424 0.93318 0.0
H1070 H 0.89196 0.6579 0.78838 0.0
H1071 H 0.85641 0.62328 0.7722 0.0
H1072 H 0.89755 0.61726 0.77203 0.0
H1073 H 0.86256 0.68174 0.92389 0.0
H1074 H 0.85938 0.64822 0.94794 0.0
H1075 H 0.82709 0.64704 0.90714 0.0
C1076 C 0.21046 0.32458 0.16969 0.0
C1077 C 0.19518 0.29456 0.17712 0.0
C1078 C 0.19144 0.34581 0.15752 0.0
C1079 C 0.15631 0.33716 0.15334 0.0
C1080 C 0.14071 0.30668 0.16032 0.0
C1081 C 0.16026 0.28566 0.17175 0.0
C1082 C 0.20906 0.3778 0.14984 0.0
C1083 C 0.10344 0.29669 0.1569 0.0
C1084 C 0.1102 0.40547 0.15855 0.0
C1085 C 0.0953 0.40185 0.1196 0.0
C1086 C 0.13024 0.38475 0.16997 0.0
C1087 C 0.13584 0.35997 0.14175 0.0
C1088 C 0.12139 0.35661 0.10238 0.0
C1089 C 0.10131 0.37747 0.09184 0.0
C1090 C 0.14483 0.38891 0.21231 0.0
C1091 C 0.12695 0.33079 0.07134 0.0
H1092 H 0.23743 0.33179 0.17405 0.0
H1093 H 0.14824 0.26282 0.17807 0.0
H1094 H 0.19794 0.3796 0.12041 0.0
H1095 H 0.20568 0.39892 0.17039 0.0
H1096 H 0.23627 0.38018 0.15264 0.0
H1097 H 0.09511 0.27206 0.16299 0.0
H1098 H 0.09616 0.31513 0.17738 0.0
H1099 H 0.08988 0.29619 0.12751 0.0
H1100 H 0.10545 0.42394 0.18027 0.0
H1101 H 0.09035 0.37473 0.06164 0.0
H1102 H 0.17243 0.39351 0.2178 0.0
H1103 H 0.13534 0.36587 0.22127 0.0
H1104 H 0.13854 0.40958 0.23064 0.0
H1105 H 0.15412 0.33391 0.07327 0.0
H1106 H 0.11484 0.33201 0.04197 0.0
H1107 H 0.11682 0.30583 0.07554 0.0
C1108 C 0.15075 0.72265 0.84976 0.0
C1109 C 0.14493 0.70054 0.81409 0.0
C1110 C 0.14297 0.71145 0.8817 0.0
C1111 C 0.12961 0.67736 0.8775 0.0
C1112 C 0.12528 0.65483 0.84178 0.0
C1113 C 0.13258 0.66687 0.81031 0.0
C1114 C 0.14778 0.73616 0.91914 0.0
C1115 C 0.112 0.61806 0.83636 0.0
C1116 C 0.11719 0.62444 0.94676 0.0
C1117 C 0.08227 0.61503 0.93695 0.0
C1118 C 0.13433 0.64957 0.93227 0.0
C1119 C 0.11565 0.66487 0.90789 0.0
C1120 C 0.08074 0.65927 0.90404 0.0
C1121 C 0.06435 0.634 0.91844 0.0
C1122 C 0.17179 0.65609 0.93826 0.0
C1123 C 0.06002 0.6758 0.87921 0.0
H1124 H 0.16085 0.74873 0.8523 0.0
H1125 H 0.12925 0.64998 0.7828 0.0
H1126 H 0.12356 0.74186 0.92144 0.0
H1127 H 0.1563 0.72624 0.94428 0.0
H1128 H 0.1661 0.75959 0.92065 0.0
H1129 H 0.11282 0.60399 0.80769 0.0
H1130 H 0.12677 0.60911 0.85884 0.0
H1131 H 0.08569 0.61249 0.83923 0.0
H1132 H 0.13089 0.61004 0.962 0.0
H1133 H 0.03722 0.62711 0.91214 0.0
H1134 H 0.18332 0.68202 0.93835 0.0
H1135 H 0.17789 0.63985 0.91434 0.0
H1136 H 0.18306 0.65066 0.96574 0.0
H1137 H 0.07272 0.70219 0.88338 0.0
H1138 H 0.03489 0.67393 0.88555 0.0
H1139 H 0.05659 0.66363 0.84843 0.0
C1140 C 0.33731 0.17859 0.88324 0.0
C1141 C 0.31791 0.19405 0.90448 0.0
C1142 C 0.35698 0.15971 0.89905 0.0
C1143 C 0.35711 0.15614 0.93706 0.0
C1144 C 0.33761 0.17167 0.95875 0.0
C1145 C 0.31818 0.19061 0.94212 0.0
C1146 C 0.3779 0.14393 0.87513 0.0
C1147 C 0.33635 0.16771 0.99894 0.0
C1148 C 0.38962 0.08293 0.95157 0.0
C1149 C 0.42372 0.0981 0.96604 0.0
C1150 C 0.36667 0.10188 0.94544 0.0
C1151 C 0.37845 0.13657 0.95366 0.0
C1152 C 0.41228 0.15201 0.97202 0.0
C1153 C 0.43466 0.13246 0.97807 0.0
C1154 C 0.33044 0.08479 0.92726 0.0
C1155 C 0.42535 0.18905 0.98213 0.0
H1156 H 0.33766 0.18187 0.85442 0.0
H1157 H 0.30289 0.2024 0.9583 0.0
H1158 H 0.40469 0.15271 0.89023 0.0
H1159 H 0.37062 0.11677 0.87127 0.0
H1160 H 0.37512 0.14955 0.84619 0.0
H1161 H 0.31609 0.14566 0.99693 0.0
H1162 H 0.36003 0.16409 0.01455 0.0
H1163 H 0.33074 0.18943 0.01611 0.0
H1164 H 0.38122 0.05624 0.94309 0.0
H1165 H 0.46108 0.1441 0.98943 0.0
H1166 H 0.32454 0.08683 0.89687 0.0
H1167 H 0.31399 0.09683 0.94252 0.0
H1168 H 0.32456 0.05823 0.92766 0.0
H1169 H 0.42467 0.19808 0.9553 0.0
H1170 H 0.45144 0.19718 -0.0003 0.0
H1171 H 0.40923 0.20073 0.99834 0.0
C1172 C 0.85759 0.28576 0.84174 0.0
C1173 C 0.82453 0.28343 0.8448 0.0
C1174 C 0.88379 0.31102 0.86676 0.0
C1175 C 0.87657 0.33361 0.89616 0.0
C1176 C 0.84361 0.32826 0.90229 0.0
C1177 C 0.81804 0.30319 0.87645 0.0
C1178 C 0.91833 0.31561 0.8588 0.0
C1179 C 0.83375 0.35099 0.93293 0.0
C1180 C 0.95039 0.40304 0.95852 0.0
C1181 C 0.94377 0.42985 0.94428 0.0
C1182 C 0.92922 0.37118 0.9432 0.0
C1183 C 0.90051 0.36643 0.91323 0.0
C1184 C 0.89458 0.39359 0.89809 0.0
C1185 C 0.91603 0.42493 0.91417 0.0
C1186 C 0.93902 0.34327 0.95874 0.0
C1187 C 0.86636 0.38962 0.86377 0.0
H1188 H 0.86258 0.27014 0.8174 0.0
H1189 H 0.79243 0.30092 0.87926 0.0
H1190 H 0.92848 0.34143 0.85727 0.0
H1191 H 0.93542 0.31024 0.88249 0.0
H1192 H 0.91851 0.29895 0.83144 0.0
H1193 H 0.819 0.33621 0.94914 0.0
H1194 H 0.85537 0.3691 0.95355 0.0
H1195 H 0.81707 0.36454 0.91906 0.0
H1196 H 0.97288 0.40669 0.98049 0.0
H1197 H 0.91168 0.44562 0.90236 0.0
H1198 H 0.96311 0.34063 0.95177 0.0
H1199 H 0.9203 0.31926 0.94699 0.0
H1200 H 0.94353 0.34931 0.99065 0.0
H1201 H 0.86329 0.36665 0.84179 0.0
H1202 H 0.87052 0.41073 0.84979 0.0
H1203 H 0.84262 0.38833 0.8733 0.0
C1204 C 0.6792 0.7814 0.82885 0.0
C1205 C 0.71121 0.79719 0.82602 0.0
C1206 C 0.6593 0.79929 0.84666 0.0
C1207 C 0.67145 0.83384 0.86127 0.0
C1208 C 0.70424 0.84962 0.85985 0.0
C1209 C 0.72378 0.8311 0.8426 0.0
C1210 C 0.6248 0.78145 0.84851 0.0
C1211 C 0.71817 0.8864 0.875 0.0
C1212 C 0.60977 0.88734 0.86298 0.0
C1213 C 0.60968 0.89551 0.90228 0.0
C1214 C 0.62913 0.86672 0.84927 0.0
C1215 C 0.64923 0.85402 0.87545 0.0
C1216 C 0.64925 0.86205 0.91513 0.0
C1217 C 0.62931 0.88247 0.92801 0.0
C1218 C 0.6288 0.8593 0.80682 0.0
C1219 C 0.67018 0.84904 0.94409 0.0
H1220 H 0.66929 0.75522 0.8162 0.0
H1221 H 0.74842 0.84363 0.84048 0.0
H1222 H 0.62132 0.7877 0.87834 0.0
H1223 H 0.60573 0.78953 0.82977 0.0
H1224 H 0.62019 0.75425 0.83908 0.0
H1225 H 0.74468 0.89468 0.87344 0.0
H1226 H 0.70316 0.89959 0.85805 0.0
H1227 H 0.71643 0.89376 0.9054 0.0
H1228 H 0.5953 0.89779 0.8429 0.0
H1229 H 0.62909 0.8882 0.95832 0.0
H1230 H 0.62216 0.83226 0.79489 0.0
H1231 H 0.65412 0.8694 0.80263 0.0
H1232 H 0.61079 0.86998 0.79003 0.0
H1233 H 0.6579 0.82282 0.94181 0.0
H1234 H 0.6731 0.86313 0.97398 0.0
H1235 H 0.69543 0.85015 0.9385 0.0
C1236 C 0.80823 0.68707 0.17904 0.0
C1237 C 0.80771 0.6922 0.21829 0.0
C1238 C 0.82768 0.66738 0.16325 0.0
C1239 C 0.84699 0.65216 0.18712 0.0
C1240 C 0.84656 0.65726 0.22674 0.0
C1241 C 0.82704 0.67722 0.24182 0.0
C1242 C 0.8275 0.66281 0.12094 0.0
C1243 C 0.86653 0.6414 0.25324 0.0
C1244 C 0.87171 0.57633 0.13895 0.0
C1245 C 0.90521 0.58936 0.13846 0.0
C1246 C 0.85262 0.59639 0.15478 0.0
C1247 C 0.86719 0.63051 0.17052 0.0
C1248 C 0.90098 0.64387 0.17017 0.0
C1249 C 0.91957 0.62317 0.15431 0.0
C1250 C 0.8168 0.58101 0.15473 0.0
C1251 C 0.91741 0.68014 0.18621 0.0
H1252 H 0.79341 0.69848 0.16053 0.0
H1253 H 0.82679 0.68091 0.27211 0.0
H1254 H 0.85336 0.67093 0.11725 0.0
H1255 H 0.81801 0.6363 0.10625 0.0
H1256 H 0.81175 0.67685 0.10642 0.0
H1257 H 0.8636 0.6479 0.2833 0.0
H1258 H 0.85849 0.61418 0.24272 0.0
H1259 H 0.89344 0.6492 0.2533 0.0
H1260 H 0.86045 0.55021 0.12735 0.0
H1261 H 0.94526 0.63362 0.15371 0.0
H1262 H 0.79981 0.59279 0.13821 0.0
H1263 H 0.8132 0.58527 0.18462 0.0
H1264 H 0.80928 0.55404 0.14189 0.0
H1265 H 0.90353 0.69492 0.17052 0.0
H1266 H 0.94389 0.68672 0.18397 0.0
H1267 H 0.91654 0.68727 0.21693 0.0
C1268 C 0.29203 0.83248 0.18559 0.0
C1269 C 0.30091 0.8039 0.19301 0.0
C1270 C 0.30982 0.85264 0.16543 0.0
C1271 C 0.33799 0.84482 0.15318 0.0
C1272 C 0.34718 0.81607 0.16081 0.0
C1273 C 0.32834 0.7958 0.18007 0.0
C1274 C 0.29843 0.88243 0.15728 0.0
C1275 C 0.37738 0.80702 0.14925 0.0
C1276 C 0.37041 0.883 0.07469 0.0
C1277 C 0.39675 0.9099 0.09645 0.0
C1278 C 0.35114 0.86172 0.09263 0.0
C1279 C 0.3583 0.86718 0.13342 0.0
C1280 C 0.38487 0.8943 0.15544 0.0
C1281 C 0.40358 0.91521 0.13681 0.0
C1282 C 0.32298 0.8334 0.06787 0.0
C1283 C 0.39373 0.90122 0.19887 0.0
H1284 H 0.27083 0.83895 0.19525 0.0
H1285 H 0.33563 0.77398 0.18589 0.0
H1286 H 0.31825 0.90521 0.17213 0.0
H1287 H 0.29403 0.8814 0.12594 0.0
H1288 H 0.27512 0.88427 0.16687 0.0
H1289 H 0.38122 0.78388 0.15699 0.0
H1290 H 0.37468 0.80398 0.11773 0.0
H1291 H 0.40008 0.82724 0.16359 0.0
H1292 H 0.36484 0.87849 0.04355 0.0
H1293 H 0.42382 0.93578 0.15407 0.0
H1294 H 0.29908 0.83543 0.07577 0.0
H1295 H 0.32742 0.80969 0.07306 0.0
H1296 H 0.32022 0.8326 0.03666 0.0
H1297 H 0.37201 0.90576 0.21042 0.0
H1298 H 0.41535 0.92294 0.21187 0.0
H1299 H 0.39984 0.87943 0.2082 0.0
C1300 C 0.70957 0.15379 0.16066 0.0
C1301 C 0.69571 0.18059 0.16935 0.0
C1302 C 0.68968 0.12366 0.13693 0.0
C1303 C 0.65565 0.12101 0.1211 0.0
C1304 C 0.64263 0.14912 0.12697 0.0
C1305 C 0.66268 0.17846 0.15184 0.0
C1306 C 0.70445 0.09431 0.13098 0.0
C1307 C 0.60689 0.14764 0.10882 0.0
C1308 C 0.59254 0.05194 0.04721 0.0
C1309 C 0.57212 0.03974 0.07054 0.0
C1310 C 0.62243 0.07633 0.06341 0.0
C1311 C 0.63189 0.08844 0.10384 0.0
C1312 C 0.61348 0.07318 0.12761 0.0
C1313 C 0.58361 0.0491 0.11062 0.0
C1314 C 0.64176 0.09098 0.03682 0.0
C1315 C 0.62348 0.08462 0.17098 0.0
H1316 H 0.73538 0.15584 0.17412 0.0
H1317 H 0.65244 0.19965 0.15805 0.0
H1318 H 0.69582 0.07771 0.14933 0.0
H1319 H 0.69595 0.07997 0.10062 0.0
H1320 H 0.73222 0.1018 0.13876 0.0
H1321 H 0.60198 0.17249 0.11243 0.0
H1322 H 0.6009 0.13591 0.07759 0.0
H1323 H 0.58969 0.13236 0.12224 0.0
H1324 H 0.58429 0.0438 0.01622 0.0
H1325 H 0.56846 0.03886 0.12883 0.0
H1326 H 0.66832 0.10294 0.05121 0.0
H1327 H 0.63015 0.1098 0.0266 0.0
H1328 H 0.64072 0.0717 0.01109 0.0
H1329 H 0.65076 0.08825 0.18152 0.0
H1330 H 0.61001 0.06682 0.18521 0.0
H1331 H 0.61759 0.10868 0.17986 0.0
C1332 C 0.68786 0.6298 0.7844 0.0
C1333 C 0.66391 0.62572 0.7502 0.0
C1334 C 0.67856 0.62021 0.81642 0.0
C1335 C 0.64465 0.60555 0.81375 0.0
C1336 C 0.62174 0.5956 0.77744 0.0
C1337 C 0.63162 0.60609 0.7459 0.0
C1338 C 0.70408 0.63053 0.85434 0.0
C1339 C 0.58581 0.57762 0.77309 0.0
C1340 C 0.61504 0.5847 0.9007 0.0
C1341 C 0.59942 0.61002 0.91021 0.0
C1342 C 0.63054 0.58288 0.86964 0.0
C1343 C 0.63182 0.60808 0.84922 0.0
C1344 C 0.61913 0.6356 0.86153 0.0
C1345 C 0.60205 0.6357 0.89126 0.0
C1346 C 0.64241 0.55248 0.85686 0.0
C1347 C 0.62173 0.66396 0.84177 0.0
H1348 H 0.71297 0.64444 0.7883 0.0
H1349 H 0.61326 0.60191 0.71919 0.0
H1350 H 0.70112 0.65378 0.87134 0.0
H1351 H 0.70045 0.61166 0.87151 0.0
H1352 H 0.73004 0.63497 0.85008 0.0
H1353 H 0.57347 0.56543 0.74252 0.0
H1354 H 0.58416 0.55876 0.79049 0.0
H1355 H 0.57186 0.59545 0.78369 0.0
H1356 H 0.6125 0.56465 0.91529 0.0
H1357 H 0.58952 0.65498 0.89854 0.0
H1358 H 0.66403 0.55779 0.84344 0.0
H1359 H 0.62173 0.53403 0.83507 0.0
H1360 H 0.64936 0.54113 0.88134 0.0
H1361 H 0.64765 0.67265 0.83848 0.0
H1362 H 0.61452 0.68512 0.85795 0.0
H1363 H 0.60505 0.65561 0.81252 0.0
C1364 C 0.28966 0.69794 0.81616 0.0
C1365 C 0.30336 0.71827 0.79371 0.0
C1366 C 0.30941 0.68199 0.83807 0.0
C1367 C 0.34368 0.68636 0.83745 0.0
C1368 C 0.35768 0.70711 0.81513 0.0
C1369 C 0.33743 0.7228 0.79367 0.0
C1370 C 0.29354 0.66025 0.86163 0.0
C1371 C 0.39401 0.71242 0.81346 0.0
C1372 C 0.40528 0.66749 0.91616 0.0
C1373 C 0.40822 0.6364 0.89826 0.0
C1374 C 0.38382 0.68368 0.89715 0.0
C1375 C 0.36481 0.66856 0.85917 0.0
C1376 C 0.36721 0.63697 0.84118 0.0
C1377 C 0.3888 0.62133 0.86087 0.0
C1378 C 0.3819 0.71725 0.9175 0.0
C1379 C 0.34765 0.62006 0.80061 0.0
H1380 H 0.26343 0.69437 0.81653 0.0
H1381 H 0.34837 0.73852 0.77655 0.0
H1382 H 0.29496 0.63454 0.85126 0.0
H1383 H 0.30742 0.66862 0.89222 0.0
H1384 H 0.26691 0.66028 0.8601 0.0
H1385 H 0.40118 0.72964 0.79513 0.0
H1386 H 0.41021 0.72245 0.84286 0.0
H1387 H 0.39916 0.6885 0.80186 0.0
H1388 H 0.41982 0.67924 0.94516 0.0
H1389 H 0.39121 0.59762 0.84641 0.0
H1390 H 0.35553 0.71728 0.91759 0.0
H1391 H 0.39126 0.73595 0.90186 0.0
H1392 H 0.39681 0.72485 0.94771 0.0
H1393 H 0.3206 0.61808 0.79839 0.0
H1394 H 0.35117 0.59496 0.79126 0.0
H1395 H 0.35562 0.63498 0.78035 0.0
C1396 C 0.32412 0.34928 0.81977 0.0
C1397 C 0.32457 0.325 0.78835 0.0
C1398 C 0.35118 0.37685 0.83508 0.0
C1399 C 0.37967 0.37951 0.81909 0.0
C1400 C 0.37966 0.35567 0.78623 0.0
C1401 C 0.35171 0.32866 0.77084 0.0
C1402 C 0.35004 0.40203 0.8698 0.0
C1403 C 0.40994 0.35752 0.76909 0.0
C1404 C 0.44194 0.46263 0.85635 0.0
C1405 C 0.46156 0.4573 0.88899 0.0
C1406 C 0.41621 0.43687 0.83162 0.0
C1407 C 0.41049 0.40524 0.83971 0.0
C1408 C 0.43194 0.39927 0.87102 0.0
C1409 C 0.45723 0.42545 0.89535 0.0
C1410 C 0.39357 0.44413 0.79874 0.0
C1411 C 0.42667 0.36584 0.8806 0.0
H1412 H 0.30287 0.34617 0.83306 0.0
H1413 H 0.35191 0.30947 0.74672 0.0
H1414 H 0.36762 0.40017 0.89559 0.0
H1415 H 0.35803 0.42737 0.86563 0.0
H1416 H 0.32465 0.39838 0.87569 0.0
H1417 H 0.4047 0.33911 0.74133 0.0
H1418 H 0.41894 0.38252 0.76438 0.0
H1419 H 0.43053 0.35294 0.78955 0.0
H1420 H 0.44527 0.4873 0.85144 0.0
H1421 H 0.47267 0.42126 0.92041 0.0
H1422 H 0.36873 0.44347 0.80541 0.0
H1423 H 0.38966 0.42508 0.77187 0.0
H1424 H 0.40373 0.46875 0.79354 0.0
H1425 H 0.40363 0.36077 0.89167 0.0
H1426 H 0.44791 0.36435 0.90281 0.0
H1427 H 0.42324 0.34619 0.85441 0.0
C1428 C 0.6971 0.35529 0.87056 0.0
C1429 C 0.68452 0.35193 0.8311 0.0
C1430 C 0.68552 0.3748 0.8982 0.0
C1431 C 0.66131 0.39142 0.88576 0.0
C1432 C 0.64775 0.38706 0.84599 0.0
C1433 C 0.65928 0.36709 0.81927 0.0
C1434 C 0.6998 0.37843 0.94047 0.0
C1435 C 0.62169 0.40425 0.83143 0.0
C1436 C 0.60383 0.42739 0.93809 0.0
C1437 C 0.6184 0.46097 0.94345 0.0
C1438 C 0.61997 0.4039 0.92391 0.0
C1439 C 0.6506 0.4146 0.91352 0.0
C1440 C 0.66664 0.44867 0.92195 0.0
C1441 C 0.65019 0.4716 0.93695 0.0
C1442 C 0.60242 0.3678 0.91598 0.0
C1443 C 0.69914 0.46107 0.91095 0.0
H1444 H 0.71661 0.34355 0.8798 0.0
H1445 H 0.64874 0.36365 0.78885 0.0
H1446 H 0.71615 0.40364 0.95304 0.0
H1447 H 0.67949 0.37516 0.95623 0.0
H1448 H 0.71475 0.36038 0.94537 0.0
H1449 H 0.61396 0.39819 0.79948 0.0
H1450 H 0.59915 0.39712 0.84285 0.0
H1451 H 0.63163 0.43137 0.84171 0.0
H1452 H 0.57875 0.41946 0.94212 0.0
H1453 H 0.66098 0.49777 0.94081 0.0
H1454 H 0.62054 0.35297 0.9225 0.0
H1455 H 0.58975 0.35878 0.88501 0.0
H1456 H 0.58322 0.3635 0.93314 0.0
H1457 H 0.71704 0.44628 0.91849 0.0
H1458 H 0.71094 0.48742 0.92529 0.0
H1459 H 0.69429 0.45855 0.87931 0.0
C1460 C 0.68236 0.32988 0.19414 0.0
C1461 C 0.70829 0.31709 0.18329 0.0
C1462 C 0.66621 0.34805 0.17203 0.0
C1463 C 0.67596 0.35338 0.1379 0.0
C1464 C 0.70224 0.34069 0.12678 0.0
C1465 C 0.71825 0.32281 0.14975 0.0
C1466 C 0.63855 0.3614 0.18517 0.0
C1467 C 0.71305 0.34558 0.09036 0.0
C1468 C 0.60922 0.37316 0.06697 0.0
C1469 C 0.61962 0.40774 0.07443 0.0
C1470 C 0.62824 0.35504 0.08595 0.0
C1471 C 0.65809 0.37184 0.1138 0.0
C1472 C 0.6693 0.40656 0.12077 0.0
C1473 C 0.65018 0.42402 0.1007 0.0
C1474 C 0.61561 0.31797 0.07734 0.0
C1475 C 0.70075 0.42543 0.15065 0.0
H1476 H 0.67456 0.32568 0.22007 0.0
H1477 H 0.73818 0.31289 0.1411 0.0
H1478 H 0.64435 0.3885 0.18837 0.0
H1479 H 0.61475 0.35053 0.16321 0.0
H1480 H 0.63473 0.35594 0.21305 0.0
H1481 H 0.73404 0.33439 0.08591 0.0
H1482 H 0.69169 0.33443 0.06515 0.0
H1483 H 0.72092 0.37228 0.0913 0.0
H1484 H 0.58547 0.36014 0.04741 0.0
H1485 H 0.65894 0.45059 0.10623 0.0
H1486 H 0.60774 0.31058 0.10271 0.0
H1487 H 0.63582 0.30603 0.07168 0.0
H1488 H 0.594 0.30838 0.05212 0.0
H1489 H 0.69753 0.42253 0.17962 0.0
H1490 H 0.70708 0.45216 0.15115 0.0
H1491 H 0.72215 0.41537 0.14514 0.0
C1492 C 0.67616 0.63821 0.22687 0.0
C1493 C 0.67664 0.66807 0.25073 0.0
C1494 C 0.64573 0.61661 0.20582 0.0
C1495 C 0.61564 0.62595 0.20832 0.0
C1496 C 0.61597 0.65318 0.23743 0.0
C1497 C 0.64681 0.67432 0.25831 0.0
C1498 C 0.64625 0.58676 0.17636 0.0
C1499 C 0.58423 0.66274 0.24254 0.0
C1500 C 0.56923 0.61412 0.10628 0.0
C1501 C 0.54865 0.58234 0.09968 0.0
C1502 C 0.5889 0.6302 0.14306 0.0
C1503 C 0.58759 0.61408 0.17385 0.0
C1504 C 0.56374 0.58385 0.16828 0.0
C1505 C 0.54467 0.56817 0.13109 0.0
C1506 C 0.61355 0.66296 0.14793 0.0
C1507 C 0.5602 0.56644 0.20044 0.0
H1508 H 0.69944 0.63355 0.22133 0.0
H1509 H 0.64745 0.69754 0.27707 0.0
H1510 H 0.62582 0.5653 0.17574 0.0
H1511 H 0.64232 0.5921 0.14732 0.0
H1512 H 0.67045 0.57997 0.18236 0.0
H1513 H 0.58724 0.67733 0.27226 0.0
H1514 H 0.57804 0.67821 0.22222 0.0
H1515 H 0.56294 0.64067 0.23634 0.0
H1516 H 0.57195 0.62541 0.08225 0.0
H1517 H 0.52804 0.54392 0.12639 0.0
H1518 H 0.6394 0.65978 0.15307 0.0
H1519 H 0.61183 0.68109 0.1732 0.0
H1520 H 0.6093 0.6734 0.12215 0.0
H1521 H 0.57568 0.54835 0.19972 0.0
H1522 H 0.53385 0.55253 0.19659 0.0
H1523 H 0.56841 0.58383 0.22915 0.0
C1524 C 0.31459 0.61531 0.15728 0.0
C1525 C 0.30538 0.64454 0.15519 0.0
C1526 C 0.33462 0.60405 0.13392 0.0
C1527 C 0.34481 0.62229 0.10735 0.0
C1528 C 0.3353 0.65176 0.10483 0.0
C1529 C 0.31572 0.66275 0.12919 0.0
C1530 C 0.34515 0.57286 0.13806 0.0
C1531 C 0.34518 0.67123 0.07611 0.0
C1532 C 0.41987 0.59912 0.08226 0.0
C1533 C 0.40436 0.57119 0.05243 0.0
C1534 C 0.40098 0.6189 0.098 0.0
C1535 C 0.36604 0.61026 0.08308 0.0
C1536 C 0.35108 0.58472 0.04965 0.0
C1537 C 0.37058 0.56515 0.03468 0.0
C1538 C 0.41779 0.6463 0.1334 0.0
C1539 C 0.31396 0.57563 0.03251 0.0
H1540 H 0.30664 0.60175 0.17787 0.0
H1541 H 0.30798 0.68523 0.12758 0.0
H1542 H 0.33569 0.554 0.11046 0.0
H1543 H 0.37283 0.57799 0.14512 0.0
H1544 H 0.33566 0.56231 0.16093 0.0
H1545 H 0.34035 0.69608 0.08211 0.0
H1546 H 0.372 0.67409 0.076 0.0
H1547 H 0.33058 0.65767 0.04676 0.0
H1548 H 0.44636 0.60409 0.09504 0.0
H1549 H 0.35886 0.54364 0.01123 0.0
H1550 H 0.41249 0.63783 0.1593 0.0
H1551 H 0.40796 0.66834 0.13224 0.0
H1552 H 0.44534 0.65356 0.13686 0.0
H1553 H 0.30066 0.56169 0.05056 0.0
H1554 H 0.30752 0.55995 0.00278 0.0
H1555 H 0.30468 0.59806 0.03196 0.0
C1556 C 0.37912 0.38237 0.21396 0.0
C1557 C 0.36798 0.34869 0.21189 0.0
C1558 C 0.39536 0.39324 0.18635 0.0
C1559 C 0.40105 0.36974 0.1567 0.0
C1560 C 0.39092 0.33574 0.15551 0.0
C1561 C 0.37429 0.32565 0.183 0.0
C1562 C 0.40561 0.42972 0.18823 0.0
C1563 C 0.3973 0.31001 0.12502 0.0
C1564 C 0.41569 0.39708 0.06605 0.0
C1565 C 0.45062 0.40749 0.07474 0.0
C1566 C 0.39905 0.38394 0.09218 0.0
C1567 C 0.41799 0.38077 0.1272 0.0
C1568 C 0.45328 0.38929 0.13473 0.0
C1569 C 0.46915 0.40278 0.10851 0.0
C1570 C 0.36133 0.37525 0.08339 0.0
C1571 C 0.47434 0.38554 0.17127 0.0
H1572 H 0.37388 0.4 0.2362 0.0
H1573 H 0.3659 0.29959 0.18185 0.0
H1574 H 0.43293 0.43777 0.19067 0.0
H1575 H 0.39299 0.4349 0.16124 0.0
H1576 H 0.39927 0.44472 0.213 0.0
H1577 H 0.38892 0.28465 0.12913 0.0
H1578 H 0.38399 0.31092 0.09608 0.0
H1579 H 0.42437 0.31518 0.1254 0.0
H1580 H 0.4014 0.40112 0.04013 0.0
H1581 H 0.49622 0.41078 0.11511 0.0
H1582 H 0.35289 0.39189 0.10475 0.0
H1583 H 0.3514 0.3497 0.08593 0.0
H1584 H 0.3503 0.37744 0.05406 0.0
H1585 H 0.47133 0.40297 0.1964 0.0
H1586 H 0.50132 0.39049 0.17103 0.0
H1587 H 0.46594 0.36027 0.17547 0.0
C1588 C 0.79186 0.68938 0.64466 0.0
C1589 C 0.80636 0.71441 0.67815 0.0
C1590 C 0.81082 0.66932 0.62853 0.0
C1591 C 0.84462 0.67357 0.64727 0.0
C1592 C 0.85948 0.69927 0.68065 0.0
C1593 C 0.84034 0.71971 0.69524 0.0
C1594 C 0.79435 0.64274 0.59232 0.0
C1595 C 0.89499 0.70391 0.70244 0.0
C1596 C 0.87947 0.598 0.63607 0.0
C1597 C 0.90048 0.60402 0.61083 0.0
C1598 C 0.86117 0.62038 0.648 0.0
C1599 C 0.86362 0.64948 0.6341 0.0
C1600 C 0.88486 0.65583 0.60871 0.0
C1601 C 0.90318 0.6331 0.59753 0.0
C1602 C 0.83952 0.61302 0.67591 0.0
C1603 C 0.88791 0.68643 0.59302 0.0
H1604 H 0.76554 0.68507 0.63156 0.0
H1605 H 0.85151 0.73855 0.72164 0.0
H1606 H 0.81031 0.64363 0.57111 0.0
H1607 H 0.79132 0.61816 0.59918 0.0
H1608 H 0.76935 0.64515 0.5788 0.0
H1609 H 0.90343 0.72622 0.72657 0.0
H1610 H 0.89687 0.68207 0.71442 0.0
H1611 H 0.91231 0.70591 0.68281 0.0
H1612 H 0.87774 0.57591 0.6471 0.0
H1613 H 0.91918 0.63781 0.57782 0.0
H1614 H 0.81298 0.61047 0.66232 0.0
H1615 H 0.84672 0.63376 0.70177 0.0
H1616 H 0.84151 0.59003 0.68531 0.0
H1617 H 0.86356 0.68545 0.57427 0.0
H1618 H 0.90739 0.68905 0.57602 0.0
H1619 H 0.89406 0.70877 0.6168 0.0
C1620 C 0.4148 0.81205 0.67755 0.0
C1621 C 0.38211 0.7924 0.66932 0.0
C1622 C 0.42929 0.81944 0.64745 0.0
C1623 C 0.40971 0.80754 0.60925 0.0
C1624 C 0.38144 0.7807 0.60112 0.0
C1625 C 0.36766 0.77323 0.63171 0.0
C1626 C 0.46178 0.84563 0.65699 0.0
C1627 C 0.3619 0.76506 0.5604 0.0
C1628 C 0.40221 0.88621 0.58251 0.0
C1629 C 0.42749 0.89094 0.56273 0.0
C1630 C 0.39251 0.85644 0.59298 0.0
C1631 C 0.40998 0.83171 0.58491 0.0
C1632 C 0.43298 0.83518 0.56108 0.0
C1633 C 0.44131 0.865 0.54988 0.0
C1634 C 0.36635 0.85346 0.61661 0.0
C1635 C 0.45025 0.80854 0.54952 0.0
H1636 H 0.42679 0.82539 0.70695 0.0
H1637 H 0.34303 0.75656 0.62523 0.0
H1638 H 0.47637 0.84121 0.63483 0.0
H1639 H 0.4564 0.87011 0.65782 0.0
H1640 H 0.47723 0.84644 0.6856 0.0
H1641 H 0.34678 0.73974 0.55808 0.0
H1642 H 0.34458 0.78003 0.55144 0.0
H1643 H 0.37884 0.76402 0.5403 0.0
H1644 H 0.39152 0.90652 0.59182 0.0
H1645 H 0.46086 0.86914 0.53422 0.0
H1646 H 0.37874 0.85688 0.64724 0.0
H1647 H 0.34836 0.82888 0.60679 0.0
H1648 H 0.35199 0.87243 0.61487 0.0
H1649 H 0.45883 0.79808 0.57419 0.0
H1650 H 0.47205 0.81771 0.53762 0.0
H1651 H 0.43225 0.78817 0.527 0.0
C1652 C 0.2086 0.33033 0.63311 0.0
C1653 C 0.1932 0.2965 0.62141 0.0
C1654 C 0.19176 0.35331 0.62226 0.0
C1655 C 0.15871 0.34196 0.59957 0.0
C1656 C 0.14401 0.30778 0.58524 0.0
C1657 C 0.16157 0.28536 0.59628 0.0
C1658 C 0.20832 0.38965 0.63751 0.0
C1659 C 0.10869 0.29489 0.56108 0.0
C1660 C 0.09814 0.39257 0.62059 0.0
C1661 C 0.09441 0.40667 0.58872 0.0
C1662 C 0.11969 0.37208 0.62478 0.0
C1663 C 0.13771 0.36536 0.59617 0.0
C1664 C 0.1346 0.37995 0.56422 0.0
C1665 C 0.11277 0.40044 0.56075 0.0
C1666 C 0.12258 0.35711 0.65947 0.0
C1667 C 0.15363 0.37334 0.53334 0.0
H1668 H 0.23328 0.33879 0.65215 0.0
H1669 H 0.14955 0.25921 0.58753 0.0
H1670 H 0.20454 0.40315 0.61439 0.0
H1671 H 0.19677 0.39997 0.66059 0.0
H1672 H 0.23556 0.39431 0.64962 0.0
H1673 H 0.10239 0.26789 0.54871 0.0
H1674 H 0.09088 0.30004 0.57915 0.0
H1675 H 0.10498 0.3076 0.53722 0.0
H1676 H 0.0835 0.39687 0.64187 0.0
H1677 H 0.11003 0.41156 0.5362 0.0
H1678 H 0.14903 0.36377 0.67566 0.0
H1679 H 0.11443 0.32983 0.65003 0.0
H1680 H 0.10726 0.36549 0.67937 0.0
H1681 H 0.15333 0.39117 0.51463 0.0
H1682 H 0.1421 0.34814 0.51508 0.0
H1683 H 0.17999 0.37446 0.54622 0.0
C1684 C 0.66828 0.21364 0.6238 0.0
C1685 C 0.67679 0.20426 0.65844 0.0
C1686 C 0.64142 0.19338 0.59419 0.0
C1687 C 0.62296 0.16352 0.60006 0.0
C1688 C 0.6301 0.15576 0.63651 0.0
C1689 C 0.65724 0.17602 0.665 0.0
C1690 C 0.63369 0.20428 0.55714 0.0
C1691 C 0.60999 0.12525 0.6451 0.0
C1692 C 0.54132 0.10485 0.54865 0.0
C1693 C 0.55253 0.0767 0.53746 0.0
C1694 C 0.56419 0.13576 0.5636 0.0
C1695 C 0.59877 0.13791 0.56819 0.0
C1696 C 0.60947 0.11036 0.5515 0.0
C1697 C 0.58614 0.07976 0.5368 0.0
C1698 C 0.55177 0.16499 0.57928 0.0
C1699 C 0.64602 0.11185 0.55421 0.0
H1700 H 0.68323 0.23605 0.61935 0.0
H1701 H 0.66368 0.16944 0.69238 0.0
H1702 H 0.61458 0.18539 0.53406 0.0
H1703 H 0.62447 0.22685 0.5628 0.0
H1704 H 0.65697 0.21111 0.54688 0.0
H1705 H 0.61623 0.12517 0.67616 0.0
H1706 H 0.58284 0.12335 0.63639 0.0
H1707 H 0.61501 0.10295 0.62849 0.0
H1708 H 0.5151 0.10226 0.54867 0.0
H1709 H 0.59462 0.05786 0.52778 0.0
H1710 H 0.56604 0.18775 0.57323 0.0
H1711 H 0.55556 0.16865 0.611 0.0
H1712 H 0.52473 0.1613 0.56676 0.0
H1713 H 0.66065 0.137 0.55517 0.0
H1714 H 0.64943 0.09422 0.52946 0.0
H1715 H 0.65629 0.10486 0.58102 0.0
C1716 C 0.79266 0.36117 0.3523 0.0
C1717 C 0.80561 0.33943 0.32888 0.0
C1718 C 0.81413 0.38669 0.38225 0.0
C1719 C 0.84897 0.38976 0.38892 0.0
C1720 C 0.86177 0.36655 0.36664 0.0
C1721 C 0.83993 0.34198 0.33655 0.0
C1722 C 0.79971 0.41085 0.40567 0.0
C1723 C 0.89874 0.36818 0.37377 0.0
C1724 C 0.91964 0.46445 0.41808 0.0
C1725 C 0.93675 0.45928 0.45225 0.0
C1726 C 0.88767 0.44475 0.3997 0.0
C1727 C 0.87316 0.41888 0.4156 0.0
C1728 C 0.88865 0.4163 0.45253 0.0
C1729 C 0.92057 0.43668 0.47051 0.0
C1730 C 0.87158 0.44885 0.3608 0.0
C1731 C 0.87333 0.38968 0.47089 0.0
H1732 H 0.76592 0.35873 0.34655 0.0
H1733 H 0.84975 0.32449 0.31912 0.0
H1734 H 0.81048 0.41465 0.43686 0.0
H1735 H 0.80628 0.43513 0.39828 0.0
H1736 H 0.77205 0.40249 0.40025 0.0
H1737 H 0.90415 0.34699 0.35533 0.0
H1738 H 0.91252 0.39125 0.36792 0.0
H1739 H 0.90866 0.36844 0.40433 0.0
H1740 H 0.93189 0.48283 0.40474 0.0
H1741 H 0.93393 0.4331 0.49718 0.0
H1742 H 0.84419 0.44503 0.35734 0.0
H1743 H 0.87592 0.43011 0.33793 0.0
H1744 H 0.8822 0.47367 0.35641 0.0
H1745 H 0.84707 0.38996 0.47122 0.0
H1746 H 0.88738 0.39263 0.50086 0.0
H1747 H 0.87298 0.36514 0.45377 0.0
C1748 C 0.69548 0.81326 0.34657 0.0
C1749 C 0.69225 0.80223 0.30683 0.0
C1750 C 0.6755 0.83315 0.3607 0.0
C1751 C 0.65166 0.84215 0.33449 0.0
C1752 C 0.64786 0.83045 0.29439 0.0
C1753 C 0.66832 0.81093 0.28111 0.0
C1754 C 0.68008 0.84479 0.40366 0.0
C1755 C 0.62293 0.83911 0.26501 0.0
C1756 C 0.58013 0.87289 0.3672 0.0
C1757 C 0.59218 0.9072 0.37376 0.0
C1758 C 0.59941 0.85145 0.35503 0.0
C1759 C 0.63141 0.86457 0.34893 0.0
C1760 C 0.64362 0.89915 0.35531 0.0
C1761 C 0.62397 0.92001 0.36779 0.0
C1762 C 0.58535 0.8147 0.34808 0.0
C1763 C 0.67721 0.91413 0.34824 0.0
H1764 H 0.71387 0.80666 0.3667 0.0
H1765 H 0.66553 0.80255 0.25034 0.0
H1766 H 0.68827 0.87212 0.41215 0.0
H1767 H 0.6559 0.83732 0.41187 0.0
H1768 H 0.69882 0.83473 0.42023 0.0
H1769 H 0.61486 0.81967 0.23784 0.0
H1770 H 0.60036 0.84238 0.27543 0.0
H1771 H 0.63492 0.86256 0.25842 0.0
H1772 H 0.55573 0.86278 0.372 0.0
H1773 H 0.63327 0.94644 0.37218 0.0
H1774 H 0.6029 0.80395 0.36539 0.0
H1775 H 0.58252 0.80293 0.31731 0.0
H1776 H 0.56064 0.80842 0.35549 0.0
H1777 H 0.69713 0.90606 0.36564 0.0
H1778 H 0.68348 0.94151 0.35544 0.0
H1779 H 0.67726 0.90536 0.31749 0.0
C1780 C 0.17261 0.70407 0.33225 0.0
C1781 C 0.19932 0.69544 0.31809 0.0
C1782 C 0.15448 0.68422 0.35245 0.0
C1783 C 0.16363 0.65534 0.35958 0.0
C1784 C 0.19102 0.64694 0.34599 0.0
C1785 C 0.20817 0.66676 0.32509 0.0
C1786 C 0.12509 0.69385 0.36555 0.0
C1787 C 0.20221 0.61686 0.35343 0.0
C1788 C 0.13381 0.61716 0.43916 0.0
C1789 C 0.10714 0.5904 0.41797 0.0
C1790 C 0.15231 0.63851 0.42071 0.0
C1791 C 0.14391 0.63327 0.37996 0.0
C1792 C 0.11685 0.60644 0.3585 0.0
C1793 C 0.09899 0.58543 0.37764 0.0
C1794 C 0.18107 0.66656 0.44484 0.0
C1795 C 0.10669 0.59983 0.31513 0.0
H1796 H 0.16538 0.72601 0.32679 0.0
H1797 H 0.22884 0.65991 0.31449 0.0
H1798 H 0.10197 0.67398 0.35183 0.0
H1799 H 0.12869 0.6968 0.39716 0.0
H1800 H 0.12137 0.7172 0.35829 0.0
H1801 H 0.22494 0.61457 0.34272 0.0
H1802 H 0.20752 0.6179 0.38477 0.0
H1803 H 0.18192 0.5943 0.33914 0.0
H1804 H 0.14042 0.62133 0.4702 0.0
H1805 H 0.07844 0.56496 0.3608 0.0
H1806 H 0.17664 0.69041 0.44022 0.0
H1807 H 0.2045 0.66431 0.43582 0.0
H1808 H 0.18473 0.66719 0.47608 0.0
H1809 H 0.10088 0.62195 0.30641 0.0
H1810 H 0.08452 0.57856 0.30269 0.0
H1811 H 0.12768 0.59468 0.30244 0.0
C1812 C 0.28701 0.17223 0.31137 0.0
C1813 C 0.30242 0.20425 0.30937 0.0
C1814 C 0.30575 0.15168 0.32566 0.0
C1815 C 0.34089 0.1634 0.33863 0.0
C1816 C 0.35653 0.19614 0.33811 0.0
C1817 C 0.33714 0.21614 0.32343 0.0
C1818 C 0.28799 0.11694 0.32545 0.0
C1819 C 0.3939 0.20971 0.35194 0.0
C1820 C 0.38702 0.11759 0.40204 0.0
C1821 C 0.39996 0.09826 0.37566 0.0
C1822 C 0.36799 0.13899 0.39048 0.0
C1823 C 0.3613 0.14099 0.35146 0.0
C1824 C 0.37382 0.12125 0.32453 0.0
C1825 C 0.39311 0.10034 0.33696 0.0
C1826 C 0.35509 0.15956 0.42009 0.0
C1827 C 0.36735 0.12265 0.28264 0.0
H1828 H 0.26027 0.16272 0.30068 0.0
H1829 H 0.34937 0.24075 0.32185 0.0
H1830 H 0.29625 0.09911 0.30528 0.0
H1831 H 0.29453 0.11205 0.35447 0.0
H1832 H 0.26037 0.11223 0.31653 0.0
H1833 H 0.40193 0.23631 0.35224 0.0
H1834 H 0.40236 0.20639 0.38141 0.0
H1835 H 0.40667 0.19592 0.33287 0.0
H1836 H 0.3916 0.11591 0.43187 0.0
H1837 H 0.4034 0.08611 0.31638 0.0
H1838 H 0.32739 0.15363 0.41184 0.0
H1839 H 0.36449 0.18611 0.42112 0.0
H1840 H 0.36277 0.15547 0.44938 0.0
H1841 H 0.34027 0.11923 0.27083 0.0
H1842 H 0.37612 0.10364 0.26471 0.0
H1843 H 0.38049 0.14728 0.28004 0.0
C1844 C 0.67193 0.79407 0.67435 0.0
C1845 C 0.70668 0.80601 0.68813 0.0
C1846 C 0.65215 0.81437 0.66134 0.0
C1847 C 0.66745 0.84739 0.66159 0.0
C1848 C 0.70265 0.8593 0.67442 0.0
C1849 C 0.72178 0.83857 0.68775 0.0
C1850 C 0.61473 0.80069 0.64829 0.0
C1851 C 0.72008 0.89417 0.67483 0.0
C1852 C 0.61789 0.89028 0.59744 0.0
C1853 C 0.60429 0.90905 0.62362 0.0
C1854 C 0.63871 0.87049 0.60945 0.0
C1855 C 0.64651 0.86946 0.64874 0.0
C1856 C 0.63352 0.88882 0.67553 0.0
C1857 C 0.61261 0.90832 0.66269 0.0
C1858 C 0.65203 0.85032 0.57992 0.0
C1859 C 0.64112 0.88834 0.71768 0.0
H1860 H 0.65993 0.7691 0.67494 0.0
H1861 H 0.74858 0.84809 0.69849 0.0
H1862 H 0.60215 0.81513 0.66699 0.0
H1863 H 0.60593 0.80303 0.61846 0.0
H1864 H 0.60676 0.77436 0.64919 0.0
H1865 H 0.74772 0.89915 0.6839 0.0
H1866 H 0.71352 0.899 0.64577 0.0
H1867 H 0.71154 0.91182 0.69488 0.0
H1868 H 0.61224 0.891 0.56733 0.0
H1869 H 0.60201 0.92227 0.68319 0.0
H1870 H 0.64273 0.82369 0.57861 0.0
H1871 H 0.67972 0.8564 0.58843 0.0
H1872 H 0.64448 0.85454 0.55067 0.0
H1873 H 0.63156 0.86299 0.72108 0.0
H1874 H 0.62976 0.9053 0.73504 0.0
H1875 H 0.66854 0.89543 0.72952 0.0
C1876 C 0.63307 0.22962 0.37536 0.0
C1877 C 0.66139 0.22983 0.36029 0.0
C1878 C 0.6208 0.20419 0.39243 0.0
C1879 C 0.63682 0.17817 0.3931 0.0
C1880 C 0.6672 0.17996 0.38127 0.0
C1881 C 0.67948 0.20625 0.36568 0.0
C1882 C 0.58895 0.20347 0.40625 0.0
C1883 C 0.68545 0.15301 0.38208 0.0
C1884 C 0.60326 0.11207 0.44222 0.0
C1885 C 0.57913 0.08983 0.41144 0.0
C1886 C 0.6233 0.14059 0.43651 0.0
C1887 C 0.61868 0.14686 0.3994 0.0
C1888 C 0.59573 0.12358 0.36784 0.0
C1889 C 0.57617 0.09526 0.37428 0.0
C1890 C 0.64873 0.1644 0.4701 0.0
C1891 C 0.59132 0.12894 0.32741 0.0
H1892 H 0.61943 0.24811 0.37146 0.0
H1893 H 0.70146 0.20636 0.35412 0.0
H1894 H 0.568 0.18463 0.38529 0.0
H1895 H 0.59116 0.19648 0.43439 0.0
H1896 H 0.58263 0.22768 0.40932 0.0
H1897 H 0.70315 0.15389 0.36275 0.0
H1898 H 0.70001 0.15616 0.4118 0.0
H1899 H 0.66791 0.12815 0.3734 0.0
H1900 H 0.60595 0.10763 0.47088 0.0
H1901 H 0.55784 0.07789 0.35034 0.0
H1902 H 0.64298 0.18885 0.47439 0.0
H1903 H 0.67398 0.16786 0.46401 0.0
H1904 H 0.64941 0.15569 0.49708 0.0
H1905 H 0.58172 0.15112 0.32613 0.0
H1906 H 0.57367 0.10755 0.30585 0.0
H1907 H 0.61579 0.13337 0.31921 0.0
C1908 C 0.85652 0.71653 0.42865 0.0
C1909 C 0.82484 0.70305 0.40396 0.0
C1910 C 0.87663 0.6961 0.43979 0.0
C1911 C 0.86463 0.66155 0.42572 0.0
C1912 C 0.83191 0.64773 0.40274 0.0
C1913 C 0.81233 0.66874 0.39223 0.0
C1914 C 0.91148 0.71155 0.46449 0.0
C1915 C 0.81838 0.61095 0.38718 0.0
C1916 C 0.93066 0.61609 0.41122 0.0
C1917 C 0.93368 0.60221 0.44338 0.0
C1918 C 0.90761 0.63479 0.4047 0.0
C1919 C 0.88761 0.64026 0.43145 0.0
C1920 C 0.89021 0.62616 0.46379 0.0
C1921 C 0.91326 0.60715 0.46937 0.0
C1922 C 0.905 0.64905 0.36945 0.0
C1923 C 0.86903 0.63156 0.49265 0.0
H1924 H 0.86638 0.74303 0.43744 0.0
H1925 H 0.78761 0.65836 0.3736 0.0
H1926 H 0.91603 0.6997 0.48901 0.0
H1927 H 0.93012 0.70756 0.44719 0.0
H1928 H 0.9158 0.73849 0.47598 0.0
H1929 H 0.79118 0.60408 0.37377 0.0
H1930 H 0.83167 0.60227 0.36509 0.0
H1931 H 0.82278 0.59771 0.41042 0.0
H1932 H 0.9468 0.61288 0.39142 0.0
H1933 H 0.91522 0.59611 0.49402 0.0
H1934 H 0.9122 0.67638 0.37833 0.0
H1935 H 0.87879 0.64145 0.35241 0.0
H1936 H 0.92123 0.64104 0.35054 0.0
H1937 H 0.84223 0.62523 0.47785 0.0
H1938 H 0.87598 0.65801 0.50761 0.0
H1939 H 0.8721 0.61665 0.51446 0.0
C1940 C 0.33046 0.77843 0.37682 0.0
C1941 C 0.33295 0.77302 0.33831 0.0
C1942 C 0.35618 0.80087 0.4058 0.0
C1943 C 0.38377 0.81934 0.39524 0.0
C1944 C 0.38837 0.81035 0.35727 0.0
C1945 C 0.36283 0.78688 0.32918 0.0
C1946 C 0.35146 0.80799 0.44647 0.0
C1947 C 0.41746 0.82922 0.34464 0.0
C1948 C 0.40551 0.912 0.42687 0.0
C1949 C 0.43837 0.91899 0.44807 0.0
C1950 C 0.38656 0.8794 0.4121 0.0
C1951 C 0.40107 0.85316 0.41858 0.0
C1952 C 0.43349 0.86018 0.44247 0.0
C1953 C 0.45203 0.8932 0.45657 0.0
C1954 C 0.3519 0.87315 0.387 0.0
C1955 C 0.44911 0.8329 0.45141 0.0
H1956 H 0.3073 0.7673 0.38379 0.0
H1957 H 0.36453 0.7826 0.29927 0.0
H1958 H 0.3758 0.81609 0.46781 0.0
H1959 H 0.33848 0.82806 0.45034 0.0
H1960 H 0.33586 0.78592 0.45255 0.0
H1961 H 0.41301 0.85331 0.34091 0.0
H1962 H 0.44109 0.83431 0.3666 0.0
H1963 H 0.4206 0.81567 0.31683 0.0
H1964 H 0.39526 0.93209 0.42009 0.0
H1965 H 0.47774 0.89879 0.47251 0.0
H1966 H 0.33333 0.85713 0.39808 0.0
H1967 H 0.35109 0.86016 0.35723 0.0
H1968 H 0.34411 0.89631 0.3857 0.0
H1969 H 0.43252 0.8164 0.46422 0.0
H1970 H 0.47404 0.84256 0.47165 0.0
H1971 H 0.45199 0.81762 0.42457 0.0
C1972 C 0.17492 0.29257 0.30862 0.0
C1973 C 0.20996 0.29974 0.31842 0.0
C1974 C 0.15752 0.31259 0.32768 0.0
C1975 C 0.17546 0.33998 0.35816 0.0
C1976 C 0.21076 0.34643 0.36945 0.0
C1977 C 0.22767 0.32658 0.34898 0.0
C1978 C 0.12001 0.30521 0.31402 0.0
C1979 C 0.2307 0.3748 0.40254 0.0
C1980 C 0.13744 0.413 0.37815 0.0
C1981 C 0.12344 0.4077 0.40947 0.0
C1982 C 0.1542 0.39108 0.36119 0.0
C1983 C 0.15749 0.36323 0.37612 0.0
C1984 C 0.14309 0.35749 0.40749 0.0
C1985 C 0.1261 0.37972 0.42366 0.0
C1986 C 0.16817 0.39763 0.32702 0.0
C1987 C 0.14631 0.3284 0.42469 0.0
H1988 H 0.16106 0.27212 0.28469 0.0
H1989 H 0.25474 0.3322 0.35669 0.0
H1990 H 0.10787 0.30266 0.33838 0.0
H1991 H 0.11327 0.32603 0.30285 0.0
H1992 H 0.10967 0.28229 0.29086 0.0
H1993 H 0.25749 0.37471 0.41004 0.0
H1994 H 0.22899 0.3985 0.39494 0.0
H1995 H 0.2202 0.37375 0.42835 0.0
H1996 H 0.13494 0.43423 0.36653 0.0
H1997 H 0.11547 0.37555 0.44792 0.0
H1998 H 0.15757 0.37609 0.30214 0.0
H1999 H 0.19567 0.4011 0.33403 0.0
H2000 H 0.16266 0.41985 0.31818 0.0
H2001 H 0.1417 0.30561 0.40191 0.0
H2002 H 0.12869 0.32394 0.44367 0.0
H2003 H 0.17218 0.33324 0.44205 0.0
C2004 C 0.33893 0.18671 0.74301 0.0
C2005 C 0.30729 0.18582 0.72173 0.0
C2006 C 0.35881 0.16722 0.72771 0.0
C2007 C 0.34628 0.14539 0.69078 0.0
C2008 C 0.31396 0.14394 0.66959 0.0
C2009 C 0.29515 0.16456 0.685 0.0
C2010 C 0.39337 0.17027 0.75095 0.0
C2011 C 0.29909 0.1204 0.6307 0.0
C2012 C 0.40605 0.11399 0.63395 0.0
C2013 C 0.40444 0.08263 0.64151 0.0
C2014 C 0.38764 0.13475 0.65008 0.0
C2015 C 0.36682 0.12398 0.67431 0.0
C2016 C 0.3651 0.09241 0.68213 0.0
C2017 C 0.38394 0.07223 0.66581 0.0
C2018 C 0.3905 0.16829 0.64117 0.0
C2019 C 0.34289 0.07968 0.70729 0.0
H2020 H 0.34849 0.20329 0.77127 0.0
H2021 H 0.27057 0.16359 0.66856 0.0
H2022 H 0.39512 0.14626 0.75761 0.0
H2023 H 0.41218 0.17679 0.73394 0.0
H2024 H 0.39993 0.18927 0.77845 0.0
H2025 H 0.27318 0.12135 0.61854 0.0
H2026 H 0.31474 0.12632 0.61016 0.0
H2027 H 0.29878 0.09479 0.63309 0.0
H2028 H 0.42208 0.12255 0.61569 0.0
H2029 H 0.38205 0.04793 0.67148 0.0
H2030 H 0.39854 0.18773 0.66833 0.0
H2031 H 0.36573 0.16998 0.62607 0.0
H2032 H 0.40856 0.17348 0.62286 0.0
H2033 H 0.3499 0.09675 0.73618 0.0
H2034 H 0.34448 0.05472 0.71088 0.0
H2035 H 0.31652 0.07865 0.69456 0.0
C2036 C 0.80845 0.33817 0.70257 0.0
C2037 C 0.81086 0.30538 0.69929 0.0
C2038 C 0.82907 0.36069 0.68731 0.0
C2039 C 0.85308 0.35057 0.66816 0.0
C2040 C 0.85568 0.31753 0.66478 0.0
C2041 C 0.83467 0.29547 0.68027 0.0
C2042 C 0.82506 0.39543 0.69164 0.0
C2043 C 0.88084 0.30546 0.64485 0.0
C2044 C 0.88626 0.39951 0.59788 0.0
C2045 C 0.9169 0.42014 0.62049 0.0
C2046 C 0.86536 0.37702 0.61294 0.0
C2047 C 0.87527 0.37448 0.6516 0.0
C2048 C 0.9063 0.39513 0.67447 0.0
C2049 C 0.92647 0.41771 0.65883 0.0
C2050 C 0.83241 0.35612 0.58749 0.0
C2051 C 0.91834 0.39332 0.71561 0.0
H2052 H 0.79036 0.34639 0.71723 0.0
H2053 H 0.83702 0.27037 0.67753 0.0
H2054 H 0.84893 0.4133 0.70777 0.0
H2055 H 0.81884 0.40084 0.66284 0.0
H2056 H 0.80517 0.39953 0.70699 0.0
H2057 H 0.88011 0.27927 0.6448 0.0
H2058 H 0.876 0.30799 0.61461 0.0
H2059 H 0.9064 0.32082 0.65933 0.0
H2060 H 0.87833 0.40119 0.56836 0.0
H2061 H 0.95005 0.43333 0.67666 0.0
H2062 H 0.8116 0.36109 0.60067 0.0
H2063 H 0.83146 0.3296 0.58489 0.0
H2064 H 0.82817 0.36088 0.55815 0.0
H2065 H 0.90028 0.39949 0.7328 0.0
H2066 H 0.9433 0.4104 0.72939 0.0
H2067 H 0.9198 0.36782 0.71662 0.0
C2068 C 0.23508 0.65944 0.64639 0.0
C2069 C 0.2299 0.68909 0.6386 0.0
C2070 C 0.21202 0.62949 0.62711 0.0
C2071 C 0.18334 0.62985 0.60009 0.0
C2072 C 0.18169 0.65897 0.58723 0.0
C2073 C 0.20522 0.68854 0.60688 0.0
C2074 C 0.21553 0.59871 0.64046 0.0
C2075 C 0.15215 0.66045 0.55766 0.0
C2076 C 0.11062 0.55461 0.5562 0.0
C2077 C 0.08943 0.5589 0.58153 0.0
C2078 C 0.14196 0.57672 0.56242 0.0
C2079 C 0.15199 0.60399 0.5944 0.0
C2080 C 0.13112 0.60778 0.62078 0.0
C2081 C 0.10015 0.58497 0.61417 0.0
C2082 C 0.16363 0.5715 0.53406 0.0
C2083 C 0.14096 0.63665 0.65534 0.0
H2084 H 0.25437 0.66008 0.67103 0.0
H2085 H 0.20133 0.71165 0.60101 0.0
H2086 H 0.20112 0.59576 0.66292 0.0
H2087 H 0.20549 0.57646 0.61642 0.0
H2088 H 0.24207 0.60021 0.65316 0.0
H2089 H 0.15978 0.67901 0.54104 0.0
H2090 H 0.14017 0.63623 0.53739 0.0
H2091 H 0.13327 0.66806 0.57268 0.0
H2092 H 0.10256 0.53403 0.53122 0.0
H2093 H 0.08384 0.58821 0.63377 0.0
H2094 H 0.19018 0.57618 0.54916 0.0
H2095 H 0.16235 0.58916 0.5153 0.0
H2096 H 0.15541 0.54611 0.51549 0.0
H2097 H 0.16542 0.63731 0.67358 0.0
H2098 H 0.12222 0.63568 0.67337 0.0
H2099 H 0.14378 0.66 0.64554 0.0
loop_
_geom_bond_atom_site_label_1
_geom_bond_atom_site_label_2
_geom_bond_distance
_geom_bond_site_symmetry_2
_ccdc_geom_bond_type
Co0 N5 2.057 . S
Co0 O17 2.021 . S
Co0 O20 2.062 . S
Co0 O24 2.117 . S
Co0 O25 2.020 . S
C1 O21 1.259 . S
C1 O24 1.258 . S
Co2 N11 2.057 . S
Co2 O18 2.117 . S
Co2 O19 2.020 . S
Co2 O21 2.021 . S
Co2 O26 2.062 . S
C3 N5 1.316 . S
C3 N6 1.347 . S
C3 H8 0.931 . S
C4 N5 1.375 . S
C4 C7 1.350 . S
C4 H9 0.930 . S
N5 Co0 2.057 . S
N5 C3 1.316 . S
N5 C4 1.375 . S
N6 C3 1.347 . S
N6 C7 1.373 . S
C7 C4 1.350 . S
C7 N6 1.373 . S
C7 H28 0.931 . S
H8 C3 0.931 . S
H9 C4 0.930 . S
C10 O17 1.259 . S
C10 O18 1.258 . S
N11 Co2 2.057 . S
N11 C12 1.316 . S
N11 C13 1.375 . S
C12 N11 1.316 . S
C12 N14 1.347 . S
C12 H23 0.931 . S
C13 N11 1.375 . S
C13 C15 1.350 . S
C13 H22 0.930 . S
N14 C12 1.347 . S
N14 C15 1.373 . S
C15 C13 1.350 . S
C15 N14 1.373 . S
C15 H29 0.931 . S
C16 O19 1.256 . S
C16 O20 1.255 . S
O17 Co0 2.021 . S
O17 C10 1.259 . S
O18 Co2 2.117 . S
O18 C10 1.258 . S
O19 Co2 2.020 . S
O19 C16 1.256 . S
O20 Co0 2.062 . S
O20 C16 1.255 . S
O21 C1 1.259 . S
O21 Co2 2.021 . S
H22 C13 0.930 . S
H23 C12 0.931 . S
O24 Co0 2.117 . S
O24 C1 1.258 . S
O25 Co0 2.020 . S
O25 C27 1.256 . S
O26 Co2 2.062 . S
O26 C27 1.255 . S
C27 O25 1.256 . S
C27 O26 1.255 . S
H28 C7 0.931 . S
H29 C15 0.931 . S
Co30 N35 2.057 . S
Co30 O47 2.021 . S
Co30 O50 2.062 . S
Co30 O54 2.117 . S
Co30 O55 2.020 . S
C31 O51 1.259 . S
C31 O54 1.258 . S
Co32 N41 2.057 . S
Co32 O48 2.117 . S
Co32 O49 2.020 . S
Co32 O51 2.021 . S
Co32 O56 2.062 . S
C33 N35 1.316 . S
C33 N36 1.347 . S
C33 H38 0.931 . S
C34 N35 1.375 . S
C34 C37 1.350 . S
C34 H39 0.930 . S
N35 Co30 2.057 . S
N35 C33 1.316 . S
N35 C34 1.375 . S
N36 C33 1.347 . S
N36 C37 1.373 . S
C37 C34 1.350 . S
C37 N36 1.373 . S
C37 H58 0.931 . S
H38 C33 0.931 . S
H39 C34 0.930 . S
C40 O47 1.259 . S
C40 O48 1.258 . S
N41 Co32 2.057 . S
N41 C42 1.316 . S
N41 C43 1.375 . S
C42 N41 1.316 . S
C42 N44 1.347 . S
C42 H53 0.931 . S
C43 N41 1.375 . S
C43 C45 1.350 . S
C43 H52 0.930 . S
N44 C42 1.347 . S
N44 C45 1.373 . S
C45 C43 1.350 . S
C45 N44 1.373 . S
C45 H59 0.931 . S
C46 O49 1.256 . S
C46 O50 1.255 . S
O47 Co30 2.021 . S
O47 C40 1.259 . S
O48 Co32 2.117 . S
O48 C40 1.258 . S
O49 Co32 2.020 . S
O49 C46 1.256 . S
O50 Co30 2.062 . S
O50 C46 1.255 . S
O51 C31 1.259 . S
O51 Co32 2.021 . S
H52 C43 0.930 . S
H53 C42 0.931 . S
O54 Co30 2.117 . S
O54 C31 1.258 . S
O55 Co30 2.020 . S
O55 C57 1.256 . S
O56 Co32 2.062 . S
O56 C57 1.255 . S
C57 O55 1.256 . S
C57 O56 1.255 . S
H58 C37 0.931 . S
H59 C45 0.931 . S
Co60 N65 2.057 . S
Co60 O77 2.021 . S
Co60 O80 2.062 . S
Co60 O84 2.117 . S
Co60 O85 2.020 . S
C61 O81 1.259 . S
C61 O84 1.258 . S
Co62 N71 2.057 . S
Co62 O78 2.117 . S
Co62 O79 2.020 . S
Co62 O81 2.021 . S
Co62 O86 2.062 . S
C63 N65 1.316 . S
C63 N66 1.347 . S
C63 H68 0.931 . S
C64 N65 1.375 . S
C64 C67 1.350 . S
C64 H69 0.930 . S
N65 Co60 2.057 . S
N65 C63 1.316 . S
N65 C64 1.375 . S
N66 C63 1.347 . S
N66 C67 1.373 . S
C67 C64 1.350 . S
C67 N66 1.373 . S
C67 H88 0.931 . S
H68 C63 0.931 . S
H69 C64 0.930 . S
C70 O77 1.259 . S
C70 O78 1.258 . S
N71 Co62 2.057 . S
N71 C72 1.316 . S
N71 C73 1.375 . S
C72 N71 1.316 . S
C72 N74 1.347 . S
C72 H83 0.931 . S
C73 N71 1.375 . S
C73 C75 1.350 . S
C73 H82 0.930 . S
N74 C72 1.347 . S
N74 C75 1.373 . S
C75 C73 1.350 . S
C75 N74 1.373 . S
C75 H89 0.931 . S
C76 O79 1.256 . S
C76 O80 1.255 . S
O77 Co60 2.021 . S
O77 C70 1.259 . S
O78 Co62 2.117 . S
O78 C70 1.258 . S
O79 Co62 2.020 . S
O79 C76 1.256 . S
O80 Co60 2.062 . S
O80 C76 1.255 . S
O81 C61 1.259 . S
O81 Co62 2.021 . S
H82 C73 0.930 . S
H83 C72 0.931 . S
O84 Co60 2.117 . S
O84 C61 1.258 . S
O85 Co60 2.020 . S
O85 C87 1.256 . S
O86 Co62 2.062 . S
O86 C87 1.255 . S
C87 O85 1.256 . S
C87 O86 1.255 . S
H88 C67 0.931 . S
H89 C75 0.931 . S
Co90 N95 2.057 . S
Co90 O107 2.021 . S
Co90 O110 2.062 . S
Co90 O114 2.117 . S
Co90 O115 2.020 . S
C91 O111 1.259 . S
C91 O114 1.258 . S
Co92 N101 2.057 . S
Co92 O108 2.117 . S
Co92 O109 2.020 . S
Co92 O111 2.021 . S
Co92 O116 2.062 . S
C93 N95 1.316 . S
C93 N96 1.347 . S
C93 H98 0.931 . S
C94 N95 1.375 . S
C94 C97 1.350 . S
C94 H99 0.930 . S
N95 Co90 2.057 . S
N95 C93 1.316 . S
N95 C94 1.375 . S
N96 C93 1.347 . S
N96 C97 1.373 . S
C97 C94 1.350 . S
C97 N96 1.373 . S
C97 H118 0.931 . S
H98 C93 0.931 . S
H99 C94 0.930 . S
C100 O107 1.259 . S
C100 O108 1.258 . S
N101 Co92 2.057 . S
N101 C102 1.316 . S
N101 C103 1.375 . S
C102 N101 1.316 . S
C102 N104 1.347 . S
C102 H113 0.931 . S
C103 N101 1.375 . S
C103 C105 1.350 . S
C103 H112 0.930 . S
N104 C102 1.347 . S
N104 C105 1.373 . S
C105 C103 1.350 . S
C105 N104 1.373 . S
C105 H119 0.931 . S
C106 O109 1.256 . S
C106 O110 1.255 . S
O107 Co90 2.021 . S
O107 C100 1.259 . S
O108 Co92 2.117 . S
O108 C100 1.258 . S
O109 Co92 2.020 . S
O109 C106 1.256 . S
O110 Co90 2.062 . S
O110 C106 1.255 . S
O111 C91 1.259 . S
O111 Co92 2.021 . S
H112 C103 0.930 . S
H113 C102 0.931 . S
O114 Co90 2.117 . S
O114 C91 1.258 . S
O115 Co90 2.020 . S
O115 C117 1.256 . S
O116 Co92 2.062 . S
O116 C117 1.255 . S
C117 O115 1.256 . S
C117 O116 1.255 . S
H118 C97 0.931 . S
H119 C105 0.931 . S
Co120 N125 2.057 . S
Co120 O137 2.021 . S
Co120 O140 2.062 . S
Co120 O144 2.117 . S
Co120 O145 2.020 . S
C121 O141 1.259 . S
C121 O144 1.258 . S
Co122 N131 2.057 . S
Co122 O138 2.117 . S
Co122 O139 2.020 . S
Co122 O141 2.021 . S
Co122 O146 2.062 . S
C123 N125 1.316 . S
C123 N126 1.347 . S
C123 H128 0.931 . S
C124 N125 1.375 . S
C124 C127 1.350 . S
C124 H129 0.930 . S
N125 Co120 2.057 . S
N125 C123 1.316 . S
N125 C124 1.375 . S
N126 C123 1.347 . S
N126 C127 1.373 . S
C127 C124 1.350 . S
C127 N126 1.373 . S
C127 H148 0.931 . S
H128 C123 0.931 . S
H129 C124 0.930 . S
C130 O137 1.259 . S
C130 O138 1.258 . S
N131 Co122 2.057 . S
N131 C132 1.316 . S
N131 C133 1.375 . S
C132 N131 1.316 . S
C132 N134 1.347 . S
C132 H143 0.931 . S
C133 N131 1.375 . S
C133 C135 1.350 . S
C133 H142 0.930 . S
N134 C132 1.347 . S
N134 C135 1.373 . S
C135 C133 1.350 . S
C135 N134 1.373 . S
C135 H149 0.931 . S
C136 O139 1.256 . S
C136 O140 1.255 . S
O137 Co120 2.021 . S
O137 C130 1.259 . S
O138 Co122 2.117 . S
O138 C130 1.258 . S
O139 Co122 2.020 . S
O139 C136 1.256 . S
O140 Co120 2.062 . S
O140 C136 1.255 . S
O141 C121 1.259 . S
O141 Co122 2.021 . S
H142 C133 0.930 . S
H143 C132 0.931 . S
O144 Co120 2.117 . S
O144 C121 1.258 . S
O145 Co120 2.020 . S
O145 C147 1.256 . S
O146 Co122 2.062 . S
O146 C147 1.255 . S
C147 O145 1.256 . S
C147 O146 1.255 . S
H148 C127 0.931 . S
H149 C135 0.931 . S
Co150 N155 2.057 . S
Co150 O167 2.021 . S
Co150 O170 2.062 . S
Co150 O174 2.117 . S
Co150 O175 2.020 . S
C151 O171 1.259 . S
C151 O174 1.258 . S
Co152 N161 2.057 . S
Co152 O168 2.117 . S
Co152 O169 2.020 . S
Co152 O171 2.021 . S
Co152 O176 2.062 . S
C153 N155 1.316 . S
C153 N156 1.347 . S
C153 H158 0.931 . S
C154 N155 1.375 . S
C154 C157 1.350 . S
C154 H159 0.930 . S
N155 Co150 2.057 . S
N155 C153 1.316 . S
N155 C154 1.375 . S
N156 C153 1.347 . S
N156 C157 1.373 . S
C157 C154 1.350 . S
C157 N156 1.373 . S
C157 H178 0.931 . S
H158 C153 0.931 . S
H159 C154 0.930 . S
C160 O167 1.259 . S
C160 O168 1.258 . S
N161 Co152 2.057 . S
N161 C162 1.316 . S
N161 C163 1.375 . S
C162 N161 1.316 . S
C162 N164 1.347 . S
C162 H173 0.931 . S
C163 N161 1.375 . S
C163 C165 1.350 . S
C163 H172 0.930 . S
N164 C162 1.347 . S
N164 C165 1.373 . S
C165 C163 1.350 . S
C165 N164 1.373 . S
C165 H179 0.931 . S
C166 O169 1.256 . S
C166 O170 1.255 . S
O167 Co150 2.021 . S
O167 C160 1.259 . S
O168 Co152 2.117 . S
O168 C160 1.258 . S
O169 Co152 2.020 . S
O169 C166 1.256 . S
O170 Co150 2.062 . S
O170 C166 1.255 . S
O171 C151 1.259 . S
O171 Co152 2.021 . S
H172 C163 0.930 . S
H173 C162 0.931 . S
O174 Co150 2.117 . S
O174 C151 1.258 . S
O175 Co150 2.020 . S
O175 C177 1.256 . S
O176 Co152 2.062 . S
O176 C177 1.255 . S
C177 O175 1.256 . S
C177 O176 1.255 . S
H178 C157 0.931 . S
H179 C165 0.931 . S
Co180 N185 2.057 . S
Co180 O197 2.021 . S
Co180 O200 2.062 . S
Co180 O204 2.117 . S
Co180 O205 2.020 . S
C181 O201 1.259 . S
C181 O204 1.258 . S
Co182 N191 2.057 . S
Co182 O198 2.117 . S
Co182 O199 2.020 . S
Co182 O201 2.021 . S
Co182 O206 2.062 . S
C183 N185 1.316 . S
C183 N186 1.347 . S
C183 H188 0.931 . S
C184 N185 1.375 . S
C184 C187 1.350 . S
C184 H189 0.930 . S
N185 Co180 2.057 . S
N185 C183 1.316 . S
N185 C184 1.375 . S
N186 C183 1.347 . S
N186 C187 1.373 . S
C187 C184 1.350 . S
C187 N186 1.373 . S
C187 H208 0.931 . S
H188 C183 0.931 . S
H189 C184 0.930 . S
C190 O197 1.259 . S
C190 O198 1.258 . S
N191 Co182 2.057 . S
N191 C192 1.316 . S
N191 C193 1.375 . S
C192 N191 1.316 . S
C192 N194 1.347 . S
C192 H203 0.931 . S
C193 N191 1.375 . S
C193 C195 1.350 . S
C193 H202 0.930 . S
N194 C192 1.347 . S
N194 C195 1.373 . S
C195 C193 1.350 . S
C195 N194 1.373 . S
C195 H209 0.931 . S
C196 O199 1.256 . S
C196 O200 1.255 . S
O197 Co180 2.021 . S
O197 C190 1.259 . S
O198 Co182 2.117 . S
O198 C190 1.258 . S
O199 Co182 2.020 . S
O199 C196 1.256 . S
O200 Co180 2.062 . S
O200 C196 1.255 . S
O201 C181 1.259 . S
O201 Co182 2.021 . S
H202 C193 0.930 . S
H203 C192 0.931 . S
O204 Co180 2.117 . S
O204 C181 1.258 . S
O205 Co180 2.020 . S
O205 C207 1.256 . S
O206 Co182 2.062 . S
O206 C207 1.255 . S
C207 O205 1.256 . S
C207 O206 1.255 . S
H208 C187 0.931 . S
H209 C195 0.931 . S
Co210 N215 2.057 . S
Co210 O227 2.021 . S
Co210 O230 2.062 . S
Co210 O234 2.117 . S
Co210 O235 2.020 . S
C211 O231 1.259 . S
C211 O234 1.258 . S
Co212 N221 2.057 . S
Co212 O228 2.117 . S
Co212 O229 2.020 . S
Co212 O231 2.021 . S
Co212 O236 2.062 . S
C213 N215 1.316 . S
C213 N216 1.347 . S
C213 H218 0.931 . S
C214 N215 1.375 . S
C214 C217 1.350 . S
C214 H219 0.930 . S
N215 Co210 2.057 . S
N215 C213 1.316 . S
N215 C214 1.375 . S
N216 C213 1.347 . S
N216 C217 1.373 . S
C217 C214 1.350 . S
C217 N216 1.373 . S
C217 H238 0.931 . S
H218 C213 0.931 . S
H219 C214 0.930 . S
C220 O227 1.259 . S
C220 O228 1.258 . S
N221 Co212 2.057 . S
N221 C222 1.316 . S
N221 C223 1.375 . S
C222 N221 1.316 . S
C222 N224 1.347 . S
C222 H233 0.931 . S
C223 N221 1.375 . S
C223 C225 1.350 . S
C223 H232 0.930 . S
N224 C222 1.347 . S
N224 C225 1.373 . S
C225 C223 1.350 . S
C225 N224 1.373 . S
C225 H239 0.931 . S
C226 O229 1.256 . S
C226 O230 1.255 . S
O227 Co210 2.021 . S
O227 C220 1.259 . S
O228 Co212 2.117 . S
O228 C220 1.258 . S
O229 Co212 2.020 . S
O229 C226 1.256 . S
O230 Co210 2.062 . S
O230 C226 1.255 . S
O231 C211 1.259 . S
O231 Co212 2.021 . S
H232 C223 0.930 . S
H233 C222 0.931 . S
O234 Co210 2.117 . S
O234 C211 1.258 . S
O235 Co210 2.020 . S
O235 C237 1.256 . S
O236 Co212 2.062 . S
O236 C237 1.255 . S
C237 O235 1.256 . S
C237 O236 1.255 . S
H238 C217 0.931 . S
H239 C225 0.931 . S
Cd240 N243 2.334 1_655 S
Cd240 N269 2.304 1_565 S
Cd240 O276 2.268 . S
Cd240 O279 2.273 1_665 S
Cd240 O280 2.417 . S
Cd240 O281 2.330 . S
Cd241 N256 2.304 1_455 S
Cd241 N260 2.334 1_545 S
Cd241 O277 2.273 1_445 S
Cd241 O278 2.268 . S
Cd241 O282 2.417 . S
Cd241 O283 2.330 . S
C242 N243 1.332 . S
C242 C246 1.381 . S
C242 H248 0.931 . S
N243 Cd240 2.334 1_455 S
N243 C242 1.332 . S
N243 C247 1.328 . S
C244 C245 1.396 . S
C244 C247 1.378 . S
C244 H286 0.931 . S
C245 C244 1.396 . S
C245 C246 1.382 . S
C246 C242 1.381 . S
C246 C245 1.382 . S
C246 H287 0.930 . S
C247 N243 1.328 . S
C247 C244 1.378 . S
C247 H249 0.930 1_455 S
H248 C242 0.931 . S
H249 C247 0.930 1_655 S
C250 O276 1.238 . S
C250 O277 1.253 . S
C251 C252 1.379 . S
C251 N256 1.337 . S
C251 H257 0.929 . S
C252 C251 1.379 . S
C252 C253 1.380 . S
C252 H288 0.929 . S
C253 C252 1.380 . S
C253 C254 1.399 . S
C254 C253 1.399 . S
C254 C255 1.376 . S
C254 H289 0.931 . S
C255 C254 1.376 . S
C255 N256 1.338 . S
C255 H258 0.930 1_655 S
N256 Cd241 2.304 1_655 S
N256 C251 1.337 . S
N256 C255 1.338 . S
H257 C251 0.929 . S
H258 C255 0.930 1_455 S
C259 N260 1.332 . S
C259 C263 1.381 . S
C259 H265 0.931 . S
N260 Cd241 2.334 1_565 S
N260 C259 1.332 . S
N260 C264 1.328 . S
C261 C262 1.396 . S
C261 C264 1.378 . S
C261 H290 0.931 . S
C262 C261 1.396 . S
C262 C263 1.382 . S
C263 C259 1.381 . S
C263 C262 1.382 . S
C263 H291 0.930 . S
C264 N260 1.328 . S
C264 C261 1.378 . S
C264 H266 0.930 1_565 S
H265 C259 0.931 . S
H266 C264 0.930 1_545 S
C267 O278 1.238 . S
C267 O279 1.253 . S
C268 O280 1.239 . S
C268 O281 1.230 . S
N269 Cd240 2.304 1_545 S
N269 C270 1.337 . S
N269 C274 1.338 . S
C270 N269 1.337 . S
C270 C271 1.379 . S
C270 H284 0.929 . S
C271 C270 1.379 . S
C271 C272 1.380 . S
C271 H292 0.929 . S
C272 C271 1.380 . S
C272 C273 1.399 . S
C273 C272 1.399 . S
C273 C274 1.376 . S
C273 H293 0.931 . S
C274 N269 1.338 . S
C274 C273 1.376 . S
C274 H285 0.930 1_545 S
C275 O282 1.239 . S
C275 O283 1.230 . S
O276 Cd240 2.268 . S
O276 C250 1.238 . S
O277 Cd241 2.273 1_665 S
O277 C250 1.253 . S
O278 Cd241 2.268 . S
O278 C267 1.238 . S
O279 Cd240 2.273 1_445 S
O279 C267 1.253 . S
O280 Cd240 2.417 . S
O280 C268 1.239 . S
O281 Cd240 2.330 . S
O281 C268 1.230 . S
O282 Cd241 2.417 . S
O282 C275 1.239 . S
O283 Cd241 2.330 . S
O283 C275 1.230 . S
H284 C270 0.929 . S
H285 C274 0.930 1_565 S
H286 C244 0.931 . S
H287 C246 0.930 . S
H288 C252 0.929 . S
H289 C254 0.931 . S
H290 C261 0.931 . S
H291 C263 0.930 . S
H292 C271 0.929 . S
H293 C273 0.931 . S
Cd294 N297 2.334 . S
Cd294 N323 2.304 1_565 S
Cd294 O330 2.268 1_554 S
Cd294 O333 2.273 1_565 S
Cd294 O334 2.417 . S
Cd294 O335 2.330 . S
Cd295 N310 2.304 . S
Cd295 N314 2.334 1_545 S
Cd295 O331 2.273 1_545 S
Cd295 O332 2.268 1_556 S
Cd295 O336 2.417 . S
Cd295 O337 2.330 . S
C296 N297 1.332 . S
C296 C300 1.381 . S
C296 H302 0.931 . S
N297 Cd294 2.334 . S
N297 C296 1.332 . S
N297 C301 1.328 . S
C298 C299 1.396 . S
C298 C301 1.378 . S
C298 H340 0.931 1_554 S
C299 C298 1.396 . S
C299 C300 1.382 . S
C300 C296 1.381 . S
C300 C299 1.382 . S
C300 H341 0.930 . S
C301 N297 1.328 . S
C301 C298 1.378 . S
C301 H303 0.930 1_554 S
H302 C296 0.931 . S
H303 C301 0.930 1_556 S
C304 O330 1.238 . S
C304 O331 1.253 . S
C305 C306 1.379 . S
C305 N310 1.337 . S
C305 H311 0.929 . S
C306 C305 1.379 . S
C306 C307 1.380 . S
C306 H342 0.929 . S
C307 C306 1.380 . S
C307 C308 1.399 . S
C308 C307 1.399 . S
C308 C309 1.376 . S
C308 H343 0.931 1_556 S
C309 C308 1.376 . S
C309 N310 1.338 . S
C309 H312 0.930 1_556 S
N310 Cd295 2.304 . S
N310 C305 1.337 . S
N310 C309 1.338 . S
H311 C305 0.929 . S
H312 C309 0.930 1_554 S
C313 N314 1.332 . S
C313 C317 1.381 . S
C313 H319 0.931 . S
N314 Cd295 2.334 1_565 S
N314 C313 1.332 . S
N314 C318 1.328 . S
C315 C316 1.396 . S
C315 C318 1.378 . S
C315 H344 0.931 1_556 S
C316 C315 1.396 . S
C316 C317 1.382 . S
C317 C313 1.381 . S
C317 C316 1.382 . S
C317 H345 0.930 . S
C318 N314 1.328 . S
C318 C315 1.378 . S
C318 H320 0.930 1_566 S
H319 C313 0.931 . S
H320 C318 0.930 1_544 S
C321 O332 1.238 . S
C321 O333 1.253 . S
C322 O334 1.239 . S
C322 O335 1.230 . S
N323 Cd294 2.304 1_545 S
N323 C324 1.337 . S
N323 C328 1.338 . S
C324 N323 1.337 . S
C324 C325 1.379 . S
C324 H338 0.929 . S
C325 C324 1.379 . S
C325 C326 1.380 . S
C325 H346 0.929 . S
C326 C325 1.380 . S
C326 C327 1.399 . S
C327 C326 1.399 . S
C327 C328 1.376 . S
C327 H347 0.931 1_554 S
C328 N323 1.338 . S
C328 C327 1.376 . S
C328 H339 0.930 1_544 S
C329 O336 1.239 . S
C329 O337 1.230 . S
O330 Cd294 2.268 1_556 S
O330 C304 1.238 . S
O331 Cd295 2.273 1_565 S
O331 C304 1.253 . S
O332 Cd295 2.268 1_554 S
O332 C321 1.238 . S
O333 Cd294 2.273 1_545 S
O333 C321 1.253 . S
O334 Cd294 2.417 . S
O334 C322 1.239 . S
O335 Cd294 2.330 . S
O335 C322 1.230 . S
O336 Cd295 2.417 . S
O336 C329 1.239 . S
O337 Cd295 2.330 . S
O337 C329 1.230 . S
H338 C324 0.929 . S
H339 C328 0.930 1_566 S
H340 C298 0.931 1_556 S
H341 C300 0.930 . S
H342 C306 0.929 . S
H343 C308 0.931 1_554 S
H344 C315 0.931 1_554 S
H345 C317 0.930 . S
H346 C325 0.929 . S
H347 C327 0.931 1_556 S
Cd348 N351 2.334 1_655 S
Cd348 N377 2.304 . S
Cd348 O384 2.268 1_554 S
Cd348 O387 2.273 1_655 S
Cd348 O388 2.417 . S
Cd348 O389 2.330 . S
Cd349 N364 2.304 1_455 S
Cd349 N368 2.334 . S
Cd349 O385 2.273 1_455 S
Cd349 O386 2.268 1_556 S
Cd349 O390 2.417 . S
Cd349 O391 2.330 . S
C350 N351 1.332 . S
C350 C354 1.381 . S
C350 H356 0.931 . S
N351 Cd348 2.334 1_455 S
N351 C350 1.332 . S
N351 C355 1.328 . S
C352 C353 1.396 . S
C352 C355 1.378 . S
C352 H394 0.931 1_554 S
C353 C352 1.396 . S
C353 C354 1.382 . S
C354 C350 1.381 . S
C354 C353 1.382 . S
C354 H395 0.930 . S
C355 N351 1.328 . S
C355 C352 1.378 . S
C355 H357 0.930 1_454 S
H356 C350 0.931 . S
H357 C355 0.930 1_656 S
C358 O384 1.238 . S
C358 O385 1.253 . S
C359 C360 1.379 . S
C359 N364 1.337 . S
C359 H365 0.929 . S
C360 C359 1.379 . S
C360 C361 1.380 . S
C360 H396 0.929 . S
C361 C360 1.380 . S
C361 C362 1.399 . S
C362 C361 1.399 . S
C362 C363 1.376 . S
C362 H397 0.931 1_556 S
C363 C362 1.376 . S
C363 N364 1.338 . S
C363 H366 0.930 1_656 S
N364 Cd349 2.304 1_655 S
N364 C359 1.337 . S
N364 C363 1.338 . S
H365 C359 0.929 . S
H366 C363 0.930 1_454 S
C367 N368 1.332 . S
C367 C371 1.381 . S
C367 H373 0.931 . S
N368 Cd349 2.334 . S
N368 C367 1.332 . S
N368 C372 1.328 . S
C369 C370 1.396 . S
C369 C372 1.378 . S
C369 H398 0.931 1_556 S
C370 C369 1.396 . S
C370 C371 1.382 . S
C371 C367 1.381 . S
C371 C370 1.382 . S
C371 H399 0.930 . S
C372 N368 1.328 . S
C372 C369 1.378 . S
C372 H374 0.930 1_556 S
H373 C367 0.931 . S
H374 C372 0.930 1_554 S
C375 O386 1.238 . S
C375 O387 1.253 . S
C376 O388 1.239 . S
C376 O389 1.230 . S
N377 Cd348 2.304 . S
N377 C378 1.337 . S
N377 C382 1.338 . S
C378 N377 1.337 . S
C378 C379 1.379 . S
C378 H392 0.929 . S
C379 C378 1.379 . S
C379 C380 1.380 . S
C379 H400 0.929 . S
C380 C379 1.380 . S
C380 C381 1.399 . S
C381 C380 1.399 . S
C381 C382 1.376 . S
C381 H401 0.931 1_554 S
C382 N377 1.338 . S
C382 C381 1.376 . S
C382 H393 0.930 1_554 S
C383 O390 1.239 . S
C383 O391 1.230 . S
O384 Cd348 2.268 1_556 S
O384 C358 1.238 . S
O385 Cd349 2.273 1_655 S
O385 C358 1.253 . S
O386 Cd349 2.268 1_554 S
O386 C375 1.238 . S
O387 Cd348 2.273 1_455 S
O387 C375 1.253 . S
O388 Cd348 2.417 . S
O388 C376 1.239 . S
O389 Cd348 2.330 . S
O389 C376 1.230 . S
O390 Cd349 2.417 . S
O390 C383 1.239 . S
O391 Cd349 2.330 . S
O391 C383 1.230 . S
H392 C378 0.929 . S
H393 C382 0.930 1_556 S
H394 C352 0.931 1_556 S
H395 C354 0.930 . S
H396 C360 0.929 . S
H397 C362 0.931 1_554 S
H398 C369 0.931 1_554 S
H399 C371 0.930 . S
H400 C379 0.929 . S
H401 C381 0.931 1_556 S
Cd402 N405 2.334 . S
Cd402 N431 2.304 . S
Cd402 O438 2.268 1_554 S
Cd402 O441 2.273 . S
Cd402 O442 2.417 . S
Cd402 O443 2.330 . S
Cd403 N418 2.304 . S
Cd403 N422 2.334 . S
Cd403 O439 2.273 . S
Cd403 O440 2.268 1_556 S
Cd403 O444 2.417 . S
Cd403 O445 2.330 . S
C404 N405 1.332 . S
C404 C408 1.381 . S
C404 H410 0.931 . S
N405 Cd402 2.334 . S
N405 C404 1.332 . S
N405 C409 1.328 . S
C406 C407 1.396 . S
C406 C409 1.378 . S
C406 H448 0.931 1_554 S
C407 C406 1.396 . S
C407 C408 1.382 . S
C408 C404 1.381 . S
C408 C407 1.382 . S
C408 H449 0.930 . S
C409 N405 1.328 . S
C409 C406 1.378 . S
C409 H411 0.930 1_554 S
H410 C404 0.931 . S
H411 C409 0.930 1_556 S
C412 O438 1.238 . S
C412 O439 1.253 . S
C413 C414 1.379 . S
C413 N418 1.337 . S
C413 H419 0.929 . S
C414 C413 1.379 . S
C414 C415 1.380 . S
C414 H450 0.929 . S
C415 C414 1.380 . S
C415 C416 1.399 . S
C416 C415 1.399 . S
C416 C417 1.376 . S
C416 H451 0.931 1_556 S
C417 C416 1.376 . S
C417 N418 1.338 . S
C417 H420 0.930 1_556 S
N418 Cd403 2.304 . S
N418 C413 1.337 . S
N418 C417 1.338 . S
H419 C413 0.929 . S
H420 C417 0.930 1_554 S
C421 N422 1.332 . S
C421 C425 1.381 . S
C421 H427 0.931 . S
N422 Cd403 2.334 . S
N422 C421 1.332 . S
N422 C426 1.328 . S
C423 C424 1.396 . S
C423 C426 1.378 . S
C423 H452 0.931 1_556 S
C424 C423 1.396 . S
C424 C425 1.382 . S
C425 C421 1.381 . S
C425 C424 1.382 . S
C425 H453 0.930 . S
C426 N422 1.328 . S
C426 C423 1.378 . S
C426 H428 0.930 1_556 S
H427 C421 0.931 . S
H428 C426 0.930 1_554 S
C429 O440 1.238 . S
C429 O441 1.253 . S
C430 O442 1.239 . S
C430 O443 1.230 . S
N431 Cd402 2.304 . S
N431 C432 1.337 . S
N431 C436 1.338 . S
C432 N431 1.337 . S
C432 C433 1.379 . S
C432 H446 0.929 . S
C433 C432 1.379 . S
C433 C434 1.380 . S
C433 H454 0.929 . S
C434 C433 1.380 . S
C434 C435 1.399 . S
C435 C434 1.399 . S
C435 C436 1.376 . S
C435 H455 0.931 1_554 S
C436 N431 1.338 . S
C436 C435 1.376 . S
C436 H447 0.930 1_554 S
C437 O444 1.239 . S
C437 O445 1.230 . S
O438 Cd402 2.268 1_556 S
O438 C412 1.238 . S
O439 Cd403 2.273 . S
O439 C412 1.253 . S
O440 Cd403 2.268 1_554 S
O440 C429 1.238 . S
O441 Cd402 2.273 . S
O441 C429 1.253 . S
O442 Cd402 2.417 . S
O442 C430 1.239 . S
O443 Cd402 2.330 . S
O443 C430 1.230 . S
O444 Cd403 2.417 . S
O444 C437 1.239 . S
O445 Cd403 2.330 . S
O445 C437 1.230 . S
H446 C432 0.929 . S
H447 C436 0.930 1_556 S
H448 C406 0.931 1_556 S
H449 C408 0.930 . S
H450 C414 0.929 . S
H451 C416 0.931 1_554 S
H452 C423 0.931 1_554 S
H453 C425 0.930 . S
H454 C433 0.929 . S
H455 C435 0.931 1_556 S
Cd456 N459 2.334 1_655 S
Cd456 N485 2.304 . S
Cd456 O492 2.268 . S
Cd456 O495 2.273 1_655 S
Cd456 O496 2.417 . S
Cd456 O497 2.330 . S
Cd457 N472 2.304 1_455 S
Cd457 N476 2.334 . S
Cd457 O493 2.273 1_455 S
Cd457 O494 2.268 . S
Cd457 O498 2.417 . S
Cd457 O499 2.330 . S
C458 N459 1.332 . S
C458 C462 1.381 . S
C458 H464 0.931 . S
N459 Cd456 2.334 1_455 S
N459 C458 1.332 . S
N459 C463 1.328 . S
C460 C461 1.396 . S
C460 C463 1.378 . S
C460 H502 0.931 . S
C461 C460 1.396 . S
C461 C462 1.382 . S
C462 C458 1.381 . S
C462 C461 1.382 . S
C462 H503 0.930 . S
C463 N459 1.328 . S
C463 C460 1.378 . S
C463 H465 0.930 1_455 S
H464 C458 0.931 . S
H465 C463 0.930 1_655 S
C466 O492 1.238 . S
C466 O493 1.253 . S
C467 C468 1.379 . S
C467 N472 1.337 . S
C467 H473 0.929 . S
C468 C467 1.379 . S
C468 C469 1.380 . S
C468 H504 0.929 . S
C469 C468 1.380 . S
C469 C470 1.399 . S
C470 C469 1.399 . S
C470 C471 1.376 . S
C470 H505 0.931 . S
C471 C470 1.376 . S
C471 N472 1.338 . S
C471 H474 0.930 1_655 S
N472 Cd457 2.304 1_655 S
N472 C467 1.337 . S
N472 C471 1.338 . S
H473 C467 0.929 . S
H474 C471 0.930 1_455 S
C475 N476 1.332 . S
C475 C479 1.381 . S
C475 H481 0.931 . S
N476 Cd457 2.334 . S
N476 C475 1.332 . S
N476 C480 1.328 . S
C477 C478 1.396 . S
C477 C480 1.378 . S
C477 H506 0.931 . S
C478 C477 1.396 . S
C478 C479 1.382 . S
C479 C475 1.381 . S
C479 C478 1.382 . S
C479 H507 0.930 . S
C480 N476 1.328 . S
C480 C477 1.378 . S
C480 H482 0.930 . S
H481 C475 0.931 . S
H482 C480 0.930 . S
C483 O494 1.238 . S
C483 O495 1.253 . S
C484 O496 1.239 . S
C484 O497 1.230 . S
N485 Cd456 2.304 . S
N485 C486 1.337 . S
N485 C490 1.338 . S
C486 N485 1.337 . S
C486 C487 1.379 . S
C486 H500 0.929 . S
C487 C486 1.379 . S
C487 C488 1.380 . S
C487 H508 0.929 . S
C488 C487 1.380 . S
C488 C489 1.399 . S
C489 C488 1.399 . S
C489 C490 1.376 . S
C489 H509 0.931 . S
C490 N485 1.338 . S
C490 C489 1.376 . S
C490 H501 0.930 . S
C491 O498 1.239 . S
C491 O499 1.230 . S
O492 Cd456 2.268 . S
O492 C466 1.238 . S
O493 Cd457 2.273 1_655 S
O493 C466 1.253 . S
O494 Cd457 2.268 . S
O494 C483 1.238 . S
O495 Cd456 2.273 1_455 S
O495 C483 1.253 . S
O496 Cd456 2.417 . S
O496 C484 1.239 . S
O497 Cd456 2.330 . S
O497 C484 1.230 . S
O498 Cd457 2.417 . S
O498 C491 1.239 . S
O499 Cd457 2.330 . S
O499 C491 1.230 . S
H500 C486 0.929 . S
H501 C490 0.930 . S
H502 C460 0.931 . S
H503 C462 0.930 . S
H504 C468 0.929 . S
H505 C470 0.931 . S
H506 C477 0.931 . S
H507 C479 0.930 . S
H508 C487 0.929 . S
H509 C489 0.931 . S
Cd510 N513 2.334 . S
Cd510 N539 2.304 1_565 S
Cd510 O546 2.268 . S
Cd510 O549 2.273 1_565 S
Cd510 O550 2.417 . S
Cd510 O551 2.330 . S
Cd511 N526 2.304 . S
Cd511 N530 2.334 1_545 S
Cd511 O547 2.273 1_545 S
Cd511 O548 2.268 . S
Cd511 O552 2.417 . S
Cd511 O553 2.330 . S
C512 N513 1.332 . S
C512 C516 1.381 . S
C512 H518 0.931 . S
N513 Cd510 2.334 . S
N513 C512 1.332 . S
N513 C517 1.328 . S
C514 C515 1.396 . S
C514 C517 1.378 . S
C514 H556 0.931 . S
C515 C514 1.396 . S
C515 C516 1.382 . S
C516 C512 1.381 . S
C516 C515 1.382 . S
C516 H557 0.930 . S
C517 N513 1.328 . S
C517 C514 1.378 . S
C517 H519 0.930 . S
H518 C512 0.931 . S
H519 C517 0.930 . S
C520 O546 1.238 . S
C520 O547 1.253 . S
C521 C522 1.379 . S
C521 N526 1.337 . S
C521 H527 0.929 . S
C522 C521 1.379 . S
C522 C523 1.380 . S
C522 H558 0.929 . S
C523 C522 1.380 . S
C523 C524 1.399 . S
C524 C523 1.399 . S
C524 C525 1.376 . S
C524 H559 0.931 . S
C525 C524 1.376 . S
C525 N526 1.338 . S
C525 H528 0.930 . S
N526 Cd511 2.304 . S
N526 C521 1.337 . S
N526 C525 1.338 . S
H527 C521 0.929 . S
H528 C525 0.930 . S
C529 N530 1.332 . S
C529 C533 1.381 . S
C529 H535 0.931 . S
N530 Cd511 2.334 1_565 S
N530 C529 1.332 . S
N530 C534 1.328 . S
C531 C532 1.396 . S
C531 C534 1.378 . S
C531 H560 0.931 . S
C532 C531 1.396 . S
C532 C533 1.382 . S
C533 C529 1.381 . S
C533 C532 1.382 . S
C533 H561 0.930 . S
C534 N530 1.328 . S
C534 C531 1.378 . S
C534 H536 0.930 1_565 S
H535 C529 0.931 . S
H536 C534 0.930 1_545 S
C537 O548 1.238 . S
C537 O549 1.253 . S
C538 O550 1.239 . S
C538 O551 1.230 . S
N539 Cd510 2.304 1_545 S
N539 C540 1.337 . S
N539 C544 1.338 . S
C540 N539 1.337 . S
C540 C541 1.379 . S
C540 H554 0.929 . S
C541 C540 1.379 . S
C541 C542 1.380 . S
C541 H562 0.929 . S
C542 C541 1.380 . S
C542 C543 1.399 . S
C543 C542 1.399 . S
C543 C544 1.376 . S
C543 H563 0.931 . S
C544 N539 1.338 . S
C544 C543 1.376 . S
C544 H555 0.930 1_545 S
C545 O552 1.239 . S
C545 O553 1.230 . S
O546 Cd510 2.268 . S
O546 C520 1.238 . S
O547 Cd511 2.273 1_565 S
O547 C520 1.253 . S
O548 Cd511 2.268 . S
O548 C537 1.238 . S
O549 Cd510 2.273 1_545 S
O549 C537 1.253 . S
O550 Cd510 2.417 . S
O550 C538 1.239 . S
O551 Cd510 2.330 . S
O551 C538 1.230 . S
O552 Cd511 2.417 . S
O552 C545 1.239 . S
O553 Cd511 2.330 . S
O553 C545 1.230 . S
H554 C540 0.929 . S
H555 C544 0.930 1_565 S
H556 C514 0.931 . S
H557 C516 0.930 . S
H558 C522 0.929 . S
H559 C524 0.931 . S
H560 C531 0.931 . S
H561 C533 0.930 . S
H562 C541 0.929 . S
H563 C543 0.931 . S
C564 C565 1.391 . S
C564 C566 1.394 . S
C564 H580 0.931 . S
C565 C564 1.391 . S
C565 C569 1.376 . S
C566 C564 1.394 . S
C566 C567 1.369 . S
C566 C570 1.531 . S
C567 C566 1.369 . S
C567 C568 1.410 . S
C567 C575 1.503 . S
C568 C567 1.410 . S
C568 C569 1.392 . S
C568 C571 1.511 . S
C569 C565 1.376 . S
C569 C568 1.392 . S
C569 H581 0.929 . S
C570 C566 1.531 . S
C570 H582 0.960 . S
C570 H583 0.962 . S
C570 H584 0.960 . S
C571 C568 1.511 . S
C571 H585 0.961 . S
C571 H586 0.961 . S
C571 H587 0.961 . S
C572 C573 1.370 . S
C572 C574 1.363 . S
C572 H588 0.931 . S
C573 C572 1.370 . S
C573 C577 1.408 . S
C574 C572 1.363 . S
C574 C575 1.370 . S
C574 C578 1.524 . S
C575 C567 1.503 . S
C575 C574 1.370 . S
C575 C576 1.403 . S
C576 C575 1.403 . S
C576 C577 1.404 . S
C576 C579 1.539 . S
C577 C573 1.408 . S
C577 C576 1.404 . S
C577 H589 0.930 . S
C578 C574 1.524 . S
C578 H590 0.956 . S
C578 H591 0.961 . S
C578 H592 0.961 . S
C579 C576 1.539 . S
C579 H593 0.958 . S
C579 H594 0.961 . S
C579 H595 0.960 . S
H580 C564 0.931 . S
H581 C569 0.929 . S
H582 C570 0.960 . S
H583 C570 0.962 . S
H584 C570 0.960 . S
H585 C571 0.961 . S
H586 C571 0.961 . S
H587 C571 0.961 . S
H588 C572 0.931 . S
H589 C577 0.930 . S
H590 C578 0.956 . S
H591 C578 0.961 . S
H592 C578 0.961 . S
H593 C579 0.958 . S
H594 C579 0.961 . S
H595 C579 0.960 . S
C596 C597 1.391 . S
C596 C598 1.394 . S
C596 H612 0.931 . S
C597 C596 1.391 . S
C597 C601 1.376 . S
C598 C596 1.394 . S
C598 C599 1.369 . S
C598 C602 1.531 . S
C599 C598 1.369 . S
C599 C600 1.410 . S
C599 C607 1.503 . S
C600 C599 1.410 . S
C600 C601 1.392 . S
C600 C603 1.511 . S
C601 C597 1.376 . S
C601 C600 1.392 . S
C601 H613 0.929 . S
C602 C598 1.531 . S
C602 H614 0.960 . S
C602 H615 0.962 . S
C602 H616 0.960 . S
C603 C600 1.511 . S
C603 H617 0.961 . S
C603 H618 0.961 . S
C603 H619 0.961 . S
C604 C605 1.370 . S
C604 C606 1.363 . S
C604 H620 0.931 . S
C605 C604 1.370 . S
C605 C609 1.408 . S
C606 C604 1.363 . S
C606 C607 1.370 . S
C606 C610 1.524 . S
C607 C599 1.503 . S
C607 C606 1.370 . S
C607 C608 1.403 . S
C608 C607 1.403 . S
C608 C609 1.404 . S
C608 C611 1.539 . S
C609 C605 1.408 . S
C609 C608 1.404 . S
C609 H621 0.930 . S
C610 C606 1.524 . S
C610 H622 0.956 . S
C610 H623 0.961 . S
C610 H624 0.961 . S
C611 C608 1.539 . S
C611 H625 0.958 . S
C611 H626 0.961 . S
C611 H627 0.960 . S
H612 C596 0.931 . S
H613 C601 0.929 . S
H614 C602 0.960 . S
H615 C602 0.962 . S
H616 C602 0.960 . S
H617 C603 0.961 . S
H618 C603 0.961 . S
H619 C603 0.961 . S
H620 C604 0.931 . S
H621 C609 0.930 . S
H622 C610 0.956 . S
H623 C610 0.961 . S
H624 C610 0.961 . S
H625 C611 0.958 . S
H626 C611 0.961 . S
H627 C611 0.960 . S
C628 C629 1.391 . S
C628 C630 1.394 . S
C628 H644 0.931 . S
C629 C628 1.391 . S
C629 C633 1.376 . S
C630 C628 1.394 . S
C630 C631 1.369 . S
C630 C634 1.531 . S
C631 C630 1.369 . S
C631 C632 1.410 . S
C631 C639 1.503 . S
C632 C631 1.410 . S
C632 C633 1.392 . S
C632 C635 1.511 . S
C633 C629 1.376 . S
C633 C632 1.392 . S
C633 H645 0.929 . S
C634 C630 1.531 . S
C634 H646 0.960 . S
C634 H647 0.962 . S
C634 H648 0.960 . S
C635 C632 1.511 . S
C635 H649 0.961 . S
C635 H650 0.961 . S
C635 H651 0.961 . S
C636 C637 1.370 . S
C636 C638 1.363 . S
C636 H652 0.931 . S
C637 C636 1.370 . S
C637 C641 1.408 . S
C638 C636 1.363 . S
C638 C639 1.370 . S
C638 C642 1.524 . S
C639 C631 1.503 . S
C639 C638 1.370 . S
C639 C640 1.403 . S
C640 C639 1.403 . S
C640 C641 1.404 . S
C640 C643 1.539 . S
C641 C637 1.408 . S
C641 C640 1.404 . S
C641 H653 0.930 . S
C642 C638 1.524 . S
C642 H654 0.956 . S
C642 H655 0.961 . S
C642 H656 0.961 . S
C643 C640 1.539 . S
C643 H657 0.958 . S
C643 H658 0.961 . S
C643 H659 0.960 . S
H644 C628 0.931 . S
H645 C633 0.929 . S
H646 C634 0.960 . S
H647 C634 0.962 . S
H648 C634 0.960 . S
H649 C635 0.961 . S
H650 C635 0.961 . S
H651 C635 0.961 . S
H652 C636 0.931 . S
H653 C641 0.930 . S
H654 C642 0.956 . S
H655 C642 0.961 . S
H656 C642 0.961 . S
H657 C643 0.958 . S
H658 C643 0.961 . S
H659 C643 0.960 . S
C660 C661 1.391 . S
C660 C662 1.394 . S
C660 H676 0.931 . S
C661 C660 1.391 . S
C661 C665 1.376 . S
C662 C660 1.394 . S
C662 C663 1.369 . S
C662 C666 1.531 . S
C663 C662 1.369 . S
C663 C664 1.410 . S
C663 C671 1.503 . S
C664 C663 1.410 . S
C664 C665 1.392 . S
C664 C667 1.511 . S
C665 C661 1.376 . S
C665 C664 1.392 . S
C665 H677 0.929 . S
C666 C662 1.531 . S
C666 H678 0.960 . S
C666 H679 0.962 . S
C666 H680 0.960 . S
C667 C664 1.511 . S
C667 H681 0.961 . S
C667 H682 0.961 . S
C667 H683 0.961 . S
C668 C669 1.370 . S
C668 C670 1.363 . S
C668 H684 0.931 . S
C669 C668 1.370 . S
C669 C673 1.408 . S
C670 C668 1.363 . S
C670 C671 1.370 . S
C670 C674 1.524 . S
C671 C663 1.503 . S
C671 C670 1.370 . S
C671 C672 1.403 . S
C672 C671 1.403 . S
C672 C673 1.404 . S
C672 C675 1.539 . S
C673 C669 1.408 . S
C673 C672 1.404 . S
C673 H685 0.930 . S
C674 C670 1.524 . S
C674 H686 0.956 . S
C674 H687 0.961 . S
C674 H688 0.961 . S
C675 C672 1.539 . S
C675 H689 0.958 . S
C675 H690 0.961 . S
C675 H691 0.960 . S
H676 C660 0.931 . S
H677 C665 0.929 . S
H678 C666 0.960 . S
H679 C666 0.962 . S
H680 C666 0.960 . S
H681 C667 0.961 . S
H682 C667 0.961 . S
H683 C667 0.961 . S
H684 C668 0.931 . S
H685 C673 0.930 . S
H686 C674 0.956 . S
H687 C674 0.961 . S
H688 C674 0.961 . S
H689 C675 0.958 . S
H690 C675 0.961 . S
H691 C675 0.960 . S
C692 C693 1.391 . S
C692 C694 1.394 . S
C692 H708 0.931 . S
C693 C692 1.391 . S
C693 C697 1.376 . S
C694 C692 1.394 . S
C694 C695 1.369 . S
C694 C698 1.531 . S
C695 C694 1.369 . S
C695 C696 1.410 . S
C695 C703 1.503 . S
C696 C695 1.410 . S
C696 C697 1.392 . S
C696 C699 1.511 . S
C697 C693 1.376 . S
C697 C696 1.392 . S
C697 H709 0.929 . S
C698 C694 1.531 . S
C698 H710 0.960 . S
C698 H711 0.962 . S
C698 H712 0.960 . S
C699 C696 1.511 . S
C699 H713 0.961 . S
C699 H714 0.961 . S
C699 H715 0.961 . S
C700 C701 1.370 . S
C700 C702 1.363 . S
C700 H716 0.931 . S
C701 C700 1.370 . S
C701 C705 1.408 . S
C702 C700 1.363 . S
C702 C703 1.370 . S
C702 C706 1.524 . S
C703 C695 1.503 . S
C703 C702 1.370 . S
C703 C704 1.403 . S
C704 C703 1.403 . S
C704 C705 1.404 . S
C704 C707 1.539 . S
C705 C701 1.408 . S
C705 C704 1.404 . S
C705 H717 0.930 . S
C706 C702 1.524 . S
C706 H718 0.956 . S
C706 H719 0.961 . S
C706 H720 0.961 . S
C707 C704 1.539 . S
C707 H721 0.958 . S
C707 H722 0.961 . S
C707 H723 0.960 . S
H708 C692 0.931 . S
H709 C697 0.929 . S
H710 C698 0.960 . S
H711 C698 0.962 . S
H712 C698 0.960 . S
H713 C699 0.961 . S
H714 C699 0.961 . S
H715 C699 0.961 . S
H716 C700 0.931 . S
H717 C705 0.930 . S
H718 C706 0.956 . S
H719 C706 0.961 . S
H720 C706 0.961 . S
H721 C707 0.958 . S
H722 C707 0.961 . S
H723 C707 0.960 . S
C724 C725 1.391 . S
C724 C726 1.394 . S
C724 H740 0.931 . S
C725 C724 1.391 . S
C725 C729 1.376 . S
C726 C724 1.394 . S
C726 C727 1.369 . S
C726 C730 1.531 . S
C727 C726 1.369 . S
C727 C728 1.410 . S
C727 C735 1.503 . S
C728 C727 1.410 . S
C728 C729 1.392 . S
C728 C731 1.511 . S
C729 C725 1.376 . S
C729 C728 1.392 . S
C729 H741 0.929 . S
C730 C726 1.531 . S
C730 H742 0.960 . S
C730 H743 0.962 . S
C730 H744 0.960 . S
C731 C728 1.511 . S
C731 H745 0.961 . S
C731 H746 0.961 . S
C731 H747 0.961 . S
C732 C733 1.370 . S
C732 C734 1.363 . S
C732 H748 0.931 . S
C733 C732 1.370 . S
C733 C737 1.408 . S
C734 C732 1.363 . S
C734 C735 1.370 . S
C734 C738 1.524 . S
C735 C727 1.503 . S
C735 C734 1.370 . S
C735 C736 1.403 . S
C736 C735 1.403 . S
C736 C737 1.404 . S
C736 C739 1.539 . S
C737 C733 1.408 . S
C737 C736 1.404 . S
C737 H749 0.930 . S
C738 C734 1.524 . S
C738 H750 0.956 . S
C738 H751 0.961 . S
C738 H752 0.961 . S
C739 C736 1.539 . S
C739 H753 0.958 . S
C739 H754 0.961 . S
C739 H755 0.960 . S
H740 C724 0.931 . S
H741 C729 0.929 . S
H742 C730 0.960 . S
H743 C730 0.962 . S
H744 C730 0.960 . S
H745 C731 0.961 . S
H746 C731 0.961 . S
H747 C731 0.961 . S
H748 C732 0.931 . S
H749 C737 0.930 . S
H750 C738 0.956 . S
H751 C738 0.961 . S
H752 C738 0.961 . S
H753 C739 0.958 . S
H754 C739 0.961 . S
H755 C739 0.960 . S
C756 C757 1.391 . S
C756 C758 1.394 . S
C756 H772 0.931 . S
C757 C756 1.391 . S
C757 C761 1.376 . S
C758 C756 1.394 . S
C758 C759 1.369 . S
C758 C762 1.531 . S
C759 C758 1.369 . S
C759 C760 1.410 . S
C759 C767 1.503 . S
C760 C759 1.410 . S
C760 C761 1.392 . S
C760 C763 1.511 . S
C761 C757 1.376 . S
C761 C760 1.392 . S
C761 H773 0.929 . S
C762 C758 1.531 . S
C762 H774 0.960 . S
C762 H775 0.962 . S
C762 H776 0.960 . S
C763 C760 1.511 . S
C763 H777 0.961 . S
C763 H778 0.961 . S
C763 H779 0.961 . S
C764 C765 1.370 . S
C764 C766 1.363 . S
C764 H780 0.931 . S
C765 C764 1.370 . S
C765 C769 1.408 . S
C766 C764 1.363 . S
C766 C767 1.370 . S
C766 C770 1.524 . S
C767 C759 1.503 . S
C767 C766 1.370 . S
C767 C768 1.403 . S
C768 C767 1.403 . S
C768 C769 1.404 . S
C768 C771 1.539 . S
C769 C765 1.408 . S
C769 C768 1.404 . S
C769 H781 0.930 . S
C770 C766 1.524 . S
C770 H782 0.956 . S
C770 H783 0.961 . S
C770 H784 0.961 . S
C771 C768 1.539 . S
C771 H785 0.958 . S
C771 H786 0.961 . S
C771 H787 0.960 . S
H772 C756 0.931 . S
H773 C761 0.929 . S
H774 C762 0.960 . S
H775 C762 0.962 . S
H776 C762 0.960 . S
H777 C763 0.961 . S
H778 C763 0.961 . S
H779 C763 0.961 . S
H780 C764 0.931 . S
H781 C769 0.930 . S
H782 C770 0.956 . S
H783 C770 0.961 . S
H784 C770 0.961 . S
H785 C771 0.958 . S
H786 C771 0.961 . S
H787 C771 0.960 . S
C788 C789 1.391 . S
C788 C790 1.394 . S
C788 H804 0.931 . S
C789 C788 1.391 . S
C789 C793 1.376 . S
C790 C788 1.394 . S
C790 C791 1.369 . S
C790 C794 1.531 . S
C791 C790 1.369 . S
C791 C792 1.410 . S
C791 C799 1.503 . S
C792 C791 1.410 . S
C792 C793 1.392 . S
C792 C795 1.511 . S
C793 C789 1.376 . S
C793 C792 1.392 . S
C793 H805 0.929 . S
C794 C790 1.531 . S
C794 H806 0.960 . S
C794 H807 0.962 . S
C794 H808 0.960 . S
C795 C792 1.511 . S
C795 H809 0.961 . S
C795 H810 0.961 . S
C795 H811 0.961 . S
C796 C797 1.370 . S
C796 C798 1.363 . S
C796 H812 0.931 . S
C797 C796 1.370 . S
C797 C801 1.408 . S
C798 C796 1.363 . S
C798 C799 1.370 . S
C798 C802 1.524 . S
C799 C791 1.503 . S
C799 C798 1.370 . S
C799 C800 1.403 . S
C800 C799 1.403 . S
C800 C801 1.404 . S
C800 C803 1.539 . S
C801 C797 1.408 . S
C801 C800 1.404 . S
C801 H813 0.930 . S
C802 C798 1.524 . S
C802 H814 0.956 . S
C802 H815 0.961 . S
C802 H816 0.961 . S
C803 C800 1.539 . S
C803 H817 0.958 . S
C803 H818 0.961 . S
C803 H819 0.960 . S
H804 C788 0.931 . S
H805 C793 0.929 . S
H806 C794 0.960 . S
H807 C794 0.962 . S
H808 C794 0.960 . S
H809 C795 0.961 . S
H810 C795 0.961 . S
H811 C795 0.961 . S
H812 C796 0.931 . S
H813 C801 0.930 . S
H814 C802 0.956 . S
H815 C802 0.961 . S
H816 C802 0.961 . S
H817 C803 0.958 . S
H818 C803 0.961 . S
H819 C803 0.960 . S
C820 C821 1.391 . S
C820 C822 1.394 . S
C820 H836 0.931 . S
C821 C820 1.391 . S
C821 C825 1.376 . S
C822 C820 1.394 . S
C822 C823 1.369 . S
C822 C826 1.531 . S
C823 C822 1.369 . S
C823 C824 1.410 . S
C823 C831 1.503 . S
C824 C823 1.410 . S
C824 C825 1.392 . S
C824 C827 1.511 . S
C825 C821 1.376 . S
C825 C824 1.392 . S
C825 H837 0.929 . S
C826 C822 1.531 . S
C826 H838 0.960 . S
C826 H839 0.962 . S
C826 H840 0.960 . S
C827 C824 1.511 . S
C827 H841 0.961 . S
C827 H842 0.961 . S
C827 H843 0.961 . S
C828 C829 1.370 . S
C828 C830 1.363 . S
C828 H844 0.931 . S
C829 C828 1.370 . S
C829 C833 1.408 . S
C830 C828 1.363 . S
C830 C831 1.370 . S
C830 C834 1.524 . S
C831 C823 1.503 . S
C831 C830 1.370 . S
C831 C832 1.403 . S
C832 C831 1.403 . S
C832 C833 1.404 . S
C832 C835 1.539 . S
C833 C829 1.408 . S
C833 C832 1.404 . S
C833 H845 0.930 . S
C834 C830 1.524 . S
C834 H846 0.956 . S
C834 H847 0.961 . S
C834 H848 0.961 . S
C835 C832 1.539 . S
C835 H849 0.958 . S
C835 H850 0.961 . S
C835 H851 0.960 . S
H836 C820 0.931 . S
H837 C825 0.929 . S
H838 C826 0.960 . S
H839 C826 0.962 . S
H840 C826 0.960 . S
H841 C827 0.961 . S
H842 C827 0.961 . S
H843 C827 0.961 . S
H844 C828 0.931 . S
H845 C833 0.930 . S
H846 C834 0.956 . S
H847 C834 0.961 . S
H848 C834 0.961 . S
H849 C835 0.958 . S
H850 C835 0.961 . S
H851 C835 0.960 . S
C852 C853 1.391 . S
C852 C854 1.394 . S
C852 H868 0.931 . S
C853 C852 1.391 . S
C853 C857 1.376 . S
C854 C852 1.394 . S
C854 C855 1.369 . S
C854 C858 1.531 . S
C855 C854 1.369 . S
C855 C856 1.410 . S
C855 C863 1.503 . S
C856 C855 1.410 . S
C856 C857 1.392 . S
C856 C859 1.511 . S
C857 C853 1.376 . S
C857 C856 1.392 . S
C857 H869 0.929 . S
C858 C854 1.531 . S
C858 H870 0.960 . S
C858 H871 0.962 . S
C858 H872 0.960 . S
C859 C856 1.511 . S
C859 H873 0.961 . S
C859 H874 0.961 . S
C859 H875 0.961 . S
C860 C861 1.370 . S
C860 C862 1.363 . S
C860 H876 0.931 . S
C861 C860 1.370 . S
C861 C865 1.408 . S
C862 C860 1.363 . S
C862 C863 1.370 . S
C862 C866 1.524 . S
C863 C855 1.503 . S
C863 C862 1.370 . S
C863 C864 1.403 . S
C864 C863 1.403 . S
C864 C865 1.404 . S
C864 C867 1.539 . S
C865 C861 1.408 . S
C865 C864 1.404 . S
C865 H877 0.930 . S
C866 C862 1.524 . S
C866 H878 0.956 . S
C866 H879 0.961 . S
C866 H880 0.961 . S
C867 C864 1.539 . S
C867 H881 0.958 . S
C867 H882 0.961 . S
C867 H883 0.960 . S
H868 C852 0.931 . S
H869 C857 0.929 . S
H870 C858 0.960 . S
H871 C858 0.962 . S
H872 C858 0.960 . S
H873 C859 0.961 . S
H874 C859 0.961 . S
H875 C859 0.961 . S
H876 C860 0.931 . S
H877 C865 0.930 . S
H878 C866 0.956 . S
H879 C866 0.961 . S
H880 C866 0.961 . S
H881 C867 0.958 . S
H882 C867 0.961 . S
H883 C867 0.960 . S
C884 C885 1.391 . S
C884 C886 1.394 . S
C884 H900 0.931 . S
C885 C884 1.391 . S
C885 C889 1.376 . S
C886 C884 1.394 . S
C886 C887 1.369 . S
C886 C890 1.531 . S
C887 C886 1.369 . S
C887 C888 1.410 . S
C887 C895 1.503 . S
C888 C887 1.410 . S
C888 C889 1.392 . S
C888 C891 1.511 . S
C889 C885 1.376 . S
C889 C888 1.392 . S
C889 H901 0.929 . S
C890 C886 1.531 . S
C890 H902 0.960 . S
C890 H903 0.962 . S
C890 H904 0.960 . S
C891 C888 1.511 . S
C891 H905 0.961 . S
C891 H906 0.961 . S
C891 H907 0.961 . S
C892 C893 1.370 . S
C892 C894 1.363 . S
C892 H908 0.931 . S
C893 C892 1.370 . S
C893 C897 1.408 . S
C894 C892 1.363 . S
C894 C895 1.370 . S
C894 C898 1.524 . S
C895 C887 1.503 . S
C895 C894 1.370 . S
C895 C896 1.403 . S
C896 C895 1.403 . S
C896 C897 1.404 . S
C896 C899 1.539 . S
C897 C893 1.408 . S
C897 C896 1.404 . S
C897 H909 0.930 . S
C898 C894 1.524 . S
C898 H910 0.956 . S
C898 H911 0.961 . S
C898 H912 0.961 . S
C899 C896 1.539 . S
C899 H913 0.958 . S
C899 H914 0.961 . S
C899 H915 0.960 . S
H900 C884 0.931 . S
H901 C889 0.929 . S
H902 C890 0.960 . S
H903 C890 0.962 . S
H904 C890 0.960 . S
H905 C891 0.961 . S
H906 C891 0.961 . S
H907 C891 0.961 . S
H908 C892 0.931 . S
H909 C897 0.930 . S
H910 C898 0.956 . S
H911 C898 0.961 . S
H912 C898 0.961 . S
H913 C899 0.958 . S
H914 C899 0.961 . S
H915 C899 0.960 . S
C916 C917 1.391 . S
C916 C918 1.394 . S
C916 H932 0.931 . S
C917 C916 1.391 . S
C917 C921 1.376 . S
C918 C916 1.394 . S
C918 C919 1.369 . S
C918 C922 1.531 . S
C919 C918 1.369 . S
C919 C920 1.410 . S
C919 C927 1.503 . S
C920 C919 1.410 . S
C920 C921 1.392 . S
C920 C923 1.511 . S
C921 C917 1.376 . S
C921 C920 1.392 . S
C921 H933 0.929 . S
C922 C918 1.531 . S
C922 H934 0.960 . S
C922 H935 0.962 . S
C922 H936 0.960 . S
C923 C920 1.511 . S
C923 H937 0.961 . S
C923 H938 0.961 . S
C923 H939 0.961 . S
C924 C925 1.370 . S
C924 C926 1.363 . S
C924 H940 0.931 . S
C925 C924 1.370 . S
C925 C929 1.408 . S
C926 C924 1.363 . S
C926 C927 1.370 . S
C926 C930 1.524 . S
C927 C919 1.503 . S
C927 C926 1.370 . S
C927 C928 1.403 . S
C928 C927 1.403 . S
C928 C929 1.404 . S
C928 C931 1.539 . S
C929 C925 1.408 . S
C929 C928 1.404 . S
C929 H941 0.930 . S
C930 C926 1.524 . S
C930 H942 0.956 . S
C930 H943 0.961 . S
C930 H944 0.961 . S
C931 C928 1.539 . S
C931 H945 0.958 . S
C931 H946 0.961 . S
C931 H947 0.960 . S
H932 C916 0.931 . S
H933 C921 0.929 . S
H934 C922 0.960 . S
H935 C922 0.962 . S
H936 C922 0.960 . S
H937 C923 0.961 . S
H938 C923 0.961 . S
H939 C923 0.961 . S
H940 C924 0.931 . S
H941 C929 0.930 . S
H942 C930 0.956 . S
H943 C930 0.961 . S
H944 C930 0.961 . S
H945 C931 0.958 . S
H946 C931 0.961 . S
H947 C931 0.960 . S
C948 C949 1.391 . S
C948 C950 1.394 . S
C948 H964 0.931 . S
C949 C948 1.391 . S
C949 C953 1.376 . S
C950 C948 1.394 . S
C950 C951 1.369 . S
C950 C954 1.531 . S
C951 C950 1.369 . S
C951 C952 1.410 . S
C951 C959 1.503 . S
C952 C951 1.410 . S
C952 C953 1.392 . S
C952 C955 1.511 . S
C953 C949 1.376 . S
C953 C952 1.392 . S
C953 H965 0.929 . S
C954 C950 1.531 . S
C954 H966 0.960 . S
C954 H967 0.962 . S
C954 H968 0.960 . S
C955 C952 1.511 . S
C955 H969 0.961 . S
C955 H970 0.961 . S
C955 H971 0.961 . S
C956 C957 1.370 . S
C956 C958 1.363 . S
C956 H972 0.931 . S
C957 C956 1.370 . S
C957 C961 1.408 . S
C958 C956 1.363 . S
C958 C959 1.370 . S
C958 C962 1.524 . S
C959 C951 1.503 . S
C959 C958 1.370 . S
C959 C960 1.403 . S
C960 C959 1.403 . S
C960 C961 1.404 . S
C960 C963 1.539 . S
C961 C957 1.408 . S
C961 C960 1.404 . S
C961 H973 0.930 . S
C962 C958 1.524 . S
C962 H974 0.956 . S
C962 H975 0.961 . S
C962 H976 0.961 . S
C963 C960 1.539 . S
C963 H977 0.958 . S
C963 H978 0.961 . S
C963 H979 0.960 . S
H964 C948 0.931 . S
H965 C953 0.929 . S
H966 C954 0.960 . S
H967 C954 0.962 . S
H968 C954 0.960 . S
H969 C955 0.961 . S
H970 C955 0.961 . S
H971 C955 0.961 . S
H972 C956 0.931 . S
H973 C961 0.930 . S
H974 C962 0.956 . S
H975 C962 0.961 . S
H976 C962 0.961 . S
H977 C963 0.958 . S
H978 C963 0.961 . S
H979 C963 0.960 . S
C980 C981 1.391 . S
C980 C982 1.394 . S
C980 H996 0.931 . S
C981 C980 1.391 . S
C981 C985 1.376 . S
C982 C980 1.394 . S
C982 C983 1.369 . S
C982 C986 1.531 . S
C983 C982 1.369 . S
C983 C984 1.410 . S
C983 C991 1.503 . S
C984 C983 1.410 . S
C984 C985 1.392 . S
C984 C987 1.511 . S
C985 C981 1.376 . S
C985 C984 1.392 . S
C985 H997 0.929 . S
C986 C982 1.531 . S
C986 H998 0.960 . S
C986 H999 0.962 . S
C986 H1000 0.960 . S
C987 C984 1.511 . S
C987 H1001 0.961 . S
C987 H1002 0.961 . S
C987 H1003 0.961 . S
C988 C989 1.370 . S
C988 C990 1.363 . S
C988 H1004 0.931 . S
C989 C988 1.370 . S
C989 C993 1.408 . S
C990 C988 1.363 . S
C990 C991 1.370 . S
C990 C994 1.524 . S
C991 C983 1.503 . S
C991 C990 1.370 . S
C991 C992 1.403 . S
C992 C991 1.403 . S
C992 C993 1.404 . S
C992 C995 1.539 . S
C993 C989 1.408 . S
C993 C992 1.404 . S
C993 H1005 0.930 . S
C994 C990 1.524 . S
C994 H1006 0.956 . S
C994 H1007 0.961 . S
C994 H1008 0.961 . S
C995 C992 1.539 . S
C995 H1009 0.958 . S
C995 H1010 0.961 . S
C995 H1011 0.960 . S
H996 C980 0.931 . S
H997 C985 0.929 . S
H998 C986 0.960 . S
H999 C986 0.962 . S
H1000 C986 0.960 . S
H1001 C987 0.961 . S
H1002 C987 0.961 . S
H1003 C987 0.961 . S
H1004 C988 0.931 . S
H1005 C993 0.930 . S
H1006 C994 0.956 . S
H1007 C994 0.961 . S
H1008 C994 0.961 . S
H1009 C995 0.958 . S
H1010 C995 0.961 . S
H1011 C995 0.960 . S
C1012 C1013 1.391 . S
C1012 C1014 1.394 . S
C1012 H1028 0.931 . S
C1013 C1012 1.391 . S
C1013 C1017 1.376 . S
C1014 C1012 1.394 . S
C1014 C1015 1.369 . S
C1014 C1018 1.531 . S
C1015 C1014 1.369 . S
C1015 C1016 1.410 . S
C1015 C1023 1.503 . S
C1016 C1015 1.410 . S
C1016 C1017 1.392 . S
C1016 C1019 1.511 . S
C1017 C1013 1.376 . S
C1017 C1016 1.392 . S
C1017 H1029 0.929 . S
C1018 C1014 1.531 . S
C1018 H1030 0.960 . S
C1018 H1031 0.962 . S
C1018 H1032 0.960 . S
C1019 C1016 1.511 . S
C1019 H1033 0.961 . S
C1019 H1034 0.961 . S
C1019 H1035 0.961 . S
C1020 C1021 1.370 . S
C1020 C1022 1.363 . S
C1020 H1036 0.931 . S
C1021 C1020 1.370 . S
C1021 C1025 1.408 . S
C1022 C1020 1.363 . S
C1022 C1023 1.370 . S
C1022 C1026 1.524 . S
C1023 C1015 1.503 . S
C1023 C1022 1.370 . S
C1023 C1024 1.403 . S
C1024 C1023 1.403 . S
C1024 C1025 1.404 . S
C1024 C1027 1.539 . S
C1025 C1021 1.408 . S
C1025 C1024 1.404 . S
C1025 H1037 0.930 . S
C1026 C1022 1.524 . S
C1026 H1038 0.956 . S
C1026 H1039 0.961 . S
C1026 H1040 0.961 . S
C1027 C1024 1.539 . S
C1027 H1041 0.958 . S
C1027 H1042 0.961 . S
C1027 H1043 0.960 . S
H1028 C1012 0.931 . S
H1029 C1017 0.929 . S
H1030 C1018 0.960 . S
H1031 C1018 0.962 . S
H1032 C1018 0.960 . S
H1033 C1019 0.961 . S
H1034 C1019 0.961 . S
H1035 C1019 0.961 . S
H1036 C1020 0.931 . S
H1037 C1025 0.930 . S
H1038 C1026 0.956 . S
H1039 C1026 0.961 . S
H1040 C1026 0.961 . S
H1041 C1027 0.958 . S
H1042 C1027 0.961 . S
H1043 C1027 0.960 . S
C1044 C1045 1.391 . S
C1044 C1046 1.394 . S
C1044 H1060 0.931 . S
C1045 C1044 1.391 . S
C1045 C1049 1.376 . S
C1046 C1044 1.394 . S
C1046 C1047 1.369 . S
C1046 C1050 1.531 . S
C1047 C1046 1.369 . S
C1047 C1048 1.410 . S
C1047 C1055 1.503 . S
C1048 C1047 1.410 . S
C1048 C1049 1.392 . S
C1048 C1051 1.511 . S
C1049 C1045 1.376 . S
C1049 C1048 1.392 . S
C1049 H1061 0.929 . S
C1050 C1046 1.531 . S
C1050 H1062 0.960 . S
C1050 H1063 0.962 . S
C1050 H1064 0.960 . S
C1051 C1048 1.511 . S
C1051 H1065 0.961 . S
C1051 H1066 0.961 . S
C1051 H1067 0.961 . S
C1052 C1053 1.370 . S
C1052 C1054 1.363 . S
C1052 H1068 0.931 . S
C1053 C1052 1.370 . S
C1053 C1057 1.408 . S
C1054 C1052 1.363 . S
C1054 C1055 1.370 . S
C1054 C1058 1.524 . S
C1055 C1047 1.503 . S
C1055 C1054 1.370 . S
C1055 C1056 1.403 . S
C1056 C1055 1.403 . S
C1056 C1057 1.404 . S
C1056 C1059 1.539 . S
C1057 C1053 1.408 . S
C1057 C1056 1.404 . S
C1057 H1069 0.930 . S
C1058 C1054 1.524 . S
C1058 H1070 0.956 . S
C1058 H1071 0.961 . S
C1058 H1072 0.961 . S
C1059 C1056 1.539 . S
C1059 H1073 0.958 . S
C1059 H1074 0.961 . S
C1059 H1075 0.960 . S
H1060 C1044 0.931 . S
H1061 C1049 0.929 . S
H1062 C1050 0.960 . S
H1063 C1050 0.962 . S
H1064 C1050 0.960 . S
H1065 C1051 0.961 . S
H1066 C1051 0.961 . S
H1067 C1051 0.961 . S
H1068 C1052 0.931 . S
H1069 C1057 0.930 . S
H1070 C1058 0.956 . S
H1071 C1058 0.961 . S
H1072 C1058 0.961 . S
H1073 C1059 0.958 . S
H1074 C1059 0.961 . S
H1075 C1059 0.960 . S
C1076 C1077 1.391 . S
C1076 C1078 1.394 . S
C1076 H1092 0.931 . S
C1077 C1076 1.391 . S
C1077 C1081 1.376 . S
C1078 C1076 1.394 . S
C1078 C1079 1.369 . S
C1078 C1082 1.531 . S
C1079 C1078 1.369 . S
C1079 C1080 1.410 . S
C1079 C1087 1.503 . S
C1080 C1079 1.410 . S
C1080 C1081 1.392 . S
C1080 C1083 1.511 . S
C1081 C1077 1.376 . S
C1081 C1080 1.392 . S
C1081 H1093 0.929 . S
C1082 C1078 1.531 . S
C1082 H1094 0.960 . S
C1082 H1095 0.962 . S
C1082 H1096 0.960 . S
C1083 C1080 1.511 . S
C1083 H1097 0.961 . S
C1083 H1098 0.961 . S
C1083 H1099 0.961 . S
C1084 C1085 1.370 . S
C1084 C1086 1.363 . S
C1084 H1100 0.931 . S
C1085 C1084 1.370 . S
C1085 C1089 1.408 . S
C1086 C1084 1.363 . S
C1086 C1087 1.370 . S
C1086 C1090 1.524 . S
C1087 C1079 1.503 . S
C1087 C1086 1.370 . S
C1087 C1088 1.403 . S
C1088 C1087 1.403 . S
C1088 C1089 1.404 . S
C1088 C1091 1.539 . S
C1089 C1085 1.408 . S
C1089 C1088 1.404 . S
C1089 H1101 0.930 . S
C1090 C1086 1.524 . S
C1090 H1102 0.956 . S
C1090 H1103 0.961 . S
C1090 H1104 0.961 . S
C1091 C1088 1.539 . S
C1091 H1105 0.958 . S
C1091 H1106 0.961 . S
C1091 H1107 0.960 . S
H1092 C1076 0.931 . S
H1093 C1081 0.929 . S
H1094 C1082 0.960 . S
H1095 C1082 0.962 . S
H1096 C1082 0.960 . S
H1097 C1083 0.961 . S
H1098 C1083 0.961 . S
H1099 C1083 0.961 . S
H1100 C1084 0.931 . S
H1101 C1089 0.930 . S
H1102 C1090 0.956 . S
H1103 C1090 0.961 . S
H1104 C1090 0.961 . S
H1105 C1091 0.958 . S
H1106 C1091 0.961 . S
H1107 C1091 0.960 . S
C1108 C1109 1.391 . S
C1108 C1110 1.394 . S
C1108 H1124 0.931 . S
C1109 C1108 1.391 . S
C1109 C1113 1.376 . S
C1110 C1108 1.394 . S
C1110 C1111 1.369 . S
C1110 C1114 1.531 . S
C1111 C1110 1.369 . S
C1111 C1112 1.410 . S
C1111 C1119 1.503 . S
C1112 C1111 1.410 . S
C1112 C1113 1.392 . S
C1112 C1115 1.511 . S
C1113 C1109 1.376 . S
C1113 C1112 1.392 . S
C1113 H1125 0.929 . S
C1114 C1110 1.531 . S
C1114 H1126 0.960 . S
C1114 H1127 0.962 . S
C1114 H1128 0.960 . S
C1115 C1112 1.511 . S
C1115 H1129 0.961 . S
C1115 H1130 0.961 . S
C1115 H1131 0.961 . S
C1116 C1117 1.370 . S
C1116 C1118 1.363 . S
C1116 H1132 0.931 . S
C1117 C1116 1.370 . S
C1117 C1121 1.408 . S
C1118 C1116 1.363 . S
C1118 C1119 1.370 . S
C1118 C1122 1.524 . S
C1119 C1111 1.503 . S
C1119 C1118 1.370 . S
C1119 C1120 1.403 . S
C1120 C1119 1.403 . S
C1120 C1121 1.404 . S
C1120 C1123 1.539 . S
C1121 C1117 1.408 . S
C1121 C1120 1.404 . S
C1121 H1133 0.930 . S
C1122 C1118 1.524 . S
C1122 H1134 0.956 . S
C1122 H1135 0.961 . S
C1122 H1136 0.961 . S
C1123 C1120 1.539 . S
C1123 H1137 0.958 . S
C1123 H1138 0.961 . S
C1123 H1139 0.960 . S
H1124 C1108 0.931 . S
H1125 C1113 0.929 . S
H1126 C1114 0.960 . S
H1127 C1114 0.962 . S
H1128 C1114 0.960 . S
H1129 C1115 0.961 . S
H1130 C1115 0.961 . S
H1131 C1115 0.961 . S
H1132 C1116 0.931 . S
H1133 C1121 0.930 . S
H1134 C1122 0.956 . S
H1135 C1122 0.961 . S
H1136 C1122 0.961 . S
H1137 C1123 0.958 . S
H1138 C1123 0.961 . S
H1139 C1123 0.960 . S
C1140 C1141 1.391 . S
C1140 C1142 1.394 . S
C1140 H1156 0.931 . S
C1141 C1140 1.391 . S
C1141 C1145 1.376 . S
C1142 C1140 1.394 . S
C1142 C1143 1.369 . S
C1142 C1146 1.531 . S
C1143 C1142 1.369 . S
C1143 C1144 1.410 . S
C1143 C1151 1.503 . S
C1144 C1143 1.410 . S
C1144 C1145 1.392 . S
C1144 C1147 1.511 . S
C1145 C1141 1.376 . S
C1145 C1144 1.392 . S
C1145 H1157 0.929 . S
C1146 C1142 1.531 . S
C1146 H1158 0.960 . S
C1146 H1159 0.962 . S
C1146 H1160 0.960 . S
C1147 C1144 1.511 . S
C1147 H1161 0.961 . S
C1147 H1162 0.961 . S
C1147 H1163 0.961 . S
C1148 C1149 1.370 . S
C1148 C1150 1.363 . S
C1148 H1164 0.931 . S
C1149 C1148 1.370 . S
C1149 C1153 1.408 . S
C1150 C1148 1.363 . S
C1150 C1151 1.370 . S
C1150 C1154 1.524 . S
C1151 C1143 1.503 . S
C1151 C1150 1.370 . S
C1151 C1152 1.403 . S
C1152 C1151 1.403 . S
C1152 C1153 1.404 . S
C1152 C1155 1.539 . S
C1153 C1149 1.408 . S
C1153 C1152 1.404 . S
C1153 H1165 0.930 . S
C1154 C1150 1.524 . S
C1154 H1166 0.956 . S
C1154 H1167 0.961 . S
C1154 H1168 0.961 . S
C1155 C1152 1.539 . S
C1155 H1169 0.958 . S
C1155 H1170 0.961 . S
C1155 H1171 0.960 . S
H1156 C1140 0.931 . S
H1157 C1145 0.929 . S
H1158 C1146 0.960 . S
H1159 C1146 0.962 . S
H1160 C1146 0.960 . S
H1161 C1147 0.961 . S
H1162 C1147 0.961 . S
H1163 C1147 0.961 . S
H1164 C1148 0.931 . S
H1165 C1153 0.930 . S
H1166 C1154 0.956 . S
H1167 C1154 0.961 . S
H1168 C1154 0.961 . S
H1169 C1155 0.958 . S
H1170 C1155 0.961 . S
H1171 C1155 0.960 . S
C1172 C1173 1.391 . S
C1172 C1174 1.394 . S
C1172 H1188 0.931 . S
C1173 C1172 1.391 . S
C1173 C1177 1.376 . S
C1174 C1172 1.394 . S
C1174 C1175 1.369 . S
C1174 C1178 1.531 . S
C1175 C1174 1.369 . S
C1175 C1176 1.410 . S
C1175 C1183 1.503 . S
C1176 C1175 1.410 . S
C1176 C1177 1.392 . S
C1176 C1179 1.511 . S
C1177 C1173 1.376 . S
C1177 C1176 1.392 . S
C1177 H1189 0.929 . S
C1178 C1174 1.531 . S
C1178 H1190 0.960 . S
C1178 H1191 0.962 . S
C1178 H1192 0.960 . S
C1179 C1176 1.511 . S
C1179 H1193 0.961 . S
C1179 H1194 0.961 . S
C1179 H1195 0.961 . S
C1180 C1181 1.370 . S
C1180 C1182 1.363 . S
C1180 H1196 0.931 . S
C1181 C1180 1.370 . S
C1181 C1185 1.408 . S
C1182 C1180 1.363 . S
C1182 C1183 1.370 . S
C1182 C1186 1.524 . S
C1183 C1175 1.503 . S
C1183 C1182 1.370 . S
C1183 C1184 1.403 . S
C1184 C1183 1.403 . S
C1184 C1185 1.404 . S
C1184 C1187 1.539 . S
C1185 C1181 1.408 . S
C1185 C1184 1.404 . S
C1185 H1197 0.930 . S
C1186 C1182 1.524 . S
C1186 H1198 0.956 . S
C1186 H1199 0.961 . S
C1186 H1200 0.961 . S
C1187 C1184 1.539 . S
C1187 H1201 0.958 . S
C1187 H1202 0.961 . S
C1187 H1203 0.960 . S
H1188 C1172 0.931 . S
H1189 C1177 0.929 . S
H1190 C1178 0.960 . S
H1191 C1178 0.962 . S
H1192 C1178 0.960 . S
H1193 C1179 0.961 . S
H1194 C1179 0.961 . S
H1195 C1179 0.961 . S
H1196 C1180 0.931 . S
H1197 C1185 0.930 . S
H1198 C1186 0.956 . S
H1199 C1186 0.961 . S
H1200 C1186 0.961 . S
H1201 C1187 0.958 . S
H1202 C1187 0.961 . S
H1203 C1187 0.960 . S
C1204 C1205 1.391 . S
C1204 C1206 1.394 . S
C1204 H1220 0.931 . S
C1205 C1204 1.391 . S
C1205 C1209 1.376 . S
C1206 C1204 1.394 . S
C1206 C1207 1.369 . S
C1206 C1210 1.531 . S
C1207 C1206 1.369 . S
C1207 C1208 1.410 . S
C1207 C1215 1.503 . S
C1208 C1207 1.410 . S
C1208 C1209 1.392 . S
C1208 C1211 1.511 . S
C1209 C1205 1.376 . S
C1209 C1208 1.392 . S
C1209 H1221 0.929 . S
C1210 C1206 1.531 . S
C1210 H1222 0.960 . S
C1210 H1223 0.962 . S
C1210 H1224 0.960 . S
C1211 C1208 1.511 . S
C1211 H1225 0.961 . S
C1211 H1226 0.961 . S
C1211 H1227 0.961 . S
C1212 C1213 1.370 . S
C1212 C1214 1.363 . S
C1212 H1228 0.931 . S
C1213 C1212 1.370 . S
C1213 C1217 1.408 . S
C1214 C1212 1.363 . S
C1214 C1215 1.370 . S
C1214 C1218 1.524 . S
C1215 C1207 1.503 . S
C1215 C1214 1.370 . S
C1215 C1216 1.403 . S
C1216 C1215 1.403 . S
C1216 C1217 1.404 . S
C1216 C1219 1.539 . S
C1217 C1213 1.408 . S
C1217 C1216 1.404 . S
C1217 H1229 0.930 . S
C1218 C1214 1.524 . S
C1218 H1230 0.956 . S
C1218 H1231 0.961 . S
C1218 H1232 0.961 . S
C1219 C1216 1.539 . S
C1219 H1233 0.958 . S
C1219 H1234 0.961 . S
C1219 H1235 0.960 . S
H1220 C1204 0.931 . S
H1221 C1209 0.929 . S
H1222 C1210 0.960 . S
H1223 C1210 0.962 . S
H1224 C1210 0.960 . S
H1225 C1211 0.961 . S
H1226 C1211 0.961 . S
H1227 C1211 0.961 . S
H1228 C1212 0.931 . S
H1229 C1217 0.930 . S
H1230 C1218 0.956 . S
H1231 C1218 0.961 . S
H1232 C1218 0.961 . S
H1233 C1219 0.958 . S
H1234 C1219 0.961 . S
H1235 C1219 0.960 . S
C1236 C1237 1.391 . S
C1236 C1238 1.394 . S
C1236 H1252 0.931 . S
C1237 C1236 1.391 . S
C1237 C1241 1.376 . S
C1238 C1236 1.394 . S
C1238 C1239 1.369 . S
C1238 C1242 1.531 . S
C1239 C1238 1.369 . S
C1239 C1240 1.410 . S
C1239 C1247 1.503 . S
C1240 C1239 1.410 . S
C1240 C1241 1.392 . S
C1240 C1243 1.511 . S
C1241 C1237 1.376 . S
C1241 C1240 1.392 . S
C1241 H1253 0.929 . S
C1242 C1238 1.531 . S
C1242 H1254 0.960 . S
C1242 H1255 0.962 . S
C1242 H1256 0.960 . S
C1243 C1240 1.511 . S
C1243 H1257 0.961 . S
C1243 H1258 0.961 . S
C1243 H1259 0.961 . S
C1244 C1245 1.370 . S
C1244 C1246 1.363 . S
C1244 H1260 0.931 . S
C1245 C1244 1.370 . S
C1245 C1249 1.408 . S
C1246 C1244 1.363 . S
C1246 C1247 1.370 . S
C1246 C1250 1.524 . S
C1247 C1239 1.503 . S
C1247 C1246 1.370 . S
C1247 C1248 1.403 . S
C1248 C1247 1.403 . S
C1248 C1249 1.404 . S
C1248 C1251 1.539 . S
C1249 C1245 1.408 . S
C1249 C1248 1.404 . S
C1249 H1261 0.930 . S
C1250 C1246 1.524 . S
C1250 H1262 0.956 . S
C1250 H1263 0.961 . S
C1250 H1264 0.961 . S
C1251 C1248 1.539 . S
C1251 H1265 0.958 . S
C1251 H1266 0.961 . S
C1251 H1267 0.960 . S
H1252 C1236 0.931 . S
H1253 C1241 0.929 . S
H1254 C1242 0.960 . S
H1255 C1242 0.962 . S
H1256 C1242 0.960 . S
H1257 C1243 0.961 . S
H1258 C1243 0.961 . S
H1259 C1243 0.961 . S
H1260 C1244 0.931 . S
H1261 C1249 0.930 . S
H1262 C1250 0.956 . S
H1263 C1250 0.961 . S
H1264 C1250 0.961 . S
H1265 C1251 0.958 . S
H1266 C1251 0.961 . S
H1267 C1251 0.960 . S
C1268 C1269 1.391 . S
C1268 C1270 1.394 . S
C1268 H1284 0.931 . S
C1269 C1268 1.391 . S
C1269 C1273 1.376 . S
C1270 C1268 1.394 . S
C1270 C1271 1.369 . S
C1270 C1274 1.531 . S
C1271 C1270 1.369 . S
C1271 C1272 1.410 . S
C1271 C1279 1.503 . S
C1272 C1271 1.410 . S
C1272 C1273 1.392 . S
C1272 C1275 1.511 . S
C1273 C1269 1.376 . S
C1273 C1272 1.392 . S
C1273 H1285 0.929 . S
C1274 C1270 1.531 . S
C1274 H1286 0.960 . S
C1274 H1287 0.962 . S
C1274 H1288 0.960 . S
C1275 C1272 1.511 . S
C1275 H1289 0.961 . S
C1275 H1290 0.961 . S
C1275 H1291 0.961 . S
C1276 C1277 1.370 . S
C1276 C1278 1.363 . S
C1276 H1292 0.931 . S
C1277 C1276 1.370 . S
C1277 C1281 1.408 . S
C1278 C1276 1.363 . S
C1278 C1279 1.370 . S
C1278 C1282 1.524 . S
C1279 C1271 1.503 . S
C1279 C1278 1.370 . S
C1279 C1280 1.403 . S
C1280 C1279 1.403 . S
C1280 C1281 1.404 . S
C1280 C1283 1.539 . S
C1281 C1277 1.408 . S
C1281 C1280 1.404 . S
C1281 H1293 0.930 . S
C1282 C1278 1.524 . S
C1282 H1294 0.956 . S
C1282 H1295 0.961 . S
C1282 H1296 0.961 . S
C1283 C1280 1.539 . S
C1283 H1297 0.958 . S
C1283 H1298 0.961 . S
C1283 H1299 0.960 . S
H1284 C1268 0.931 . S
H1285 C1273 0.929 . S
H1286 C1274 0.960 . S
H1287 C1274 0.962 . S
H1288 C1274 0.960 . S
H1289 C1275 0.961 . S
H1290 C1275 0.961 . S
H1291 C1275 0.961 . S
H1292 C1276 0.931 . S
H1293 C1281 0.930 . S
H1294 C1282 0.956 . S
H1295 C1282 0.961 . S
H1296 C1282 0.961 . S
H1297 C1283 0.958 . S
H1298 C1283 0.961 . S
H1299 C1283 0.960 . S
C1300 C1301 1.391 . S
C1300 C1302 1.394 . S
C1300 H1316 0.931 . S
C1301 C1300 1.391 . S
C1301 C1305 1.376 . S
C1302 C1300 1.394 . S
C1302 C1303 1.369 . S
C1302 C1306 1.531 . S
C1303 C1302 1.369 . S
C1303 C1304 1.410 . S
C1303 C1311 1.503 . S
C1304 C1303 1.410 . S
C1304 C1305 1.392 . S
C1304 C1307 1.511 . S
C1305 C1301 1.376 . S
C1305 C1304 1.392 . S
C1305 H1317 0.929 . S
C1306 C1302 1.531 . S
C1306 H1318 0.960 . S
C1306 H1319 0.962 . S
C1306 H1320 0.960 . S
C1307 C1304 1.511 . S
C1307 H1321 0.961 . S
C1307 H1322 0.961 . S
C1307 H1323 0.961 . S
C1308 C1309 1.370 . S
C1308 C1310 1.363 . S
C1308 H1324 0.931 . S
C1309 C1308 1.370 . S
C1309 C1313 1.408 . S
C1310 C1308 1.363 . S
C1310 C1311 1.370 . S
C1310 C1314 1.524 . S
C1311 C1303 1.503 . S
C1311 C1310 1.370 . S
C1311 C1312 1.403 . S
C1312 C1311 1.403 . S
C1312 C1313 1.404 . S
C1312 C1315 1.539 . S
C1313 C1309 1.408 . S
C1313 C1312 1.404 . S
C1313 H1325 0.930 . S
C1314 C1310 1.524 . S
C1314 H1326 0.956 . S
C1314 H1327 0.961 . S
C1314 H1328 0.961 . S
C1315 C1312 1.539 . S
C1315 H1329 0.958 . S
C1315 H1330 0.961 . S
C1315 H1331 0.960 . S
H1316 C1300 0.931 . S
H1317 C1305 0.929 . S
H1318 C1306 0.960 . S
H1319 C1306 0.962 . S
H1320 C1306 0.960 . S
H1321 C1307 0.961 . S
H1322 C1307 0.961 . S
H1323 C1307 0.961 . S
H1324 C1308 0.931 . S
H1325 C1313 0.930 . S
H1326 C1314 0.956 . S
H1327 C1314 0.961 . S
H1328 C1314 0.961 . S
H1329 C1315 0.958 . S
H1330 C1315 0.961 . S
H1331 C1315 0.960 . S
C1332 C1333 1.391 . S
C1332 C1334 1.394 . S
C1332 H1348 0.931 . S
C1333 C1332 1.391 . S
C1333 C1337 1.376 . S
C1334 C1332 1.394 . S
C1334 C1335 1.369 . S
C1334 C1338 1.531 . S
C1335 C1334 1.369 . S
C1335 C1336 1.410 . S
C1335 C1343 1.503 . S
C1336 C1335 1.410 . S
C1336 C1337 1.392 . S
C1336 C1339 1.511 . S
C1337 C1333 1.376 . S
C1337 C1336 1.392 . S
C1337 H1349 0.929 . S
C1338 C1334 1.531 . S
C1338 H1350 0.960 . S
C1338 H1351 0.962 . S
C1338 H1352 0.960 . S
C1339 C1336 1.511 . S
C1339 H1353 0.961 . S
C1339 H1354 0.961 . S
C1339 H1355 0.961 . S
C1340 C1341 1.370 . S
C1340 C1342 1.363 . S
C1340 H1356 0.931 . S
C1341 C1340 1.370 . S
C1341 C1345 1.408 . S
C1342 C1340 1.363 . S
C1342 C1343 1.370 . S
C1342 C1346 1.524 . S
C1343 C1335 1.503 . S
C1343 C1342 1.370 . S
C1343 C1344 1.403 . S
C1344 C1343 1.403 . S
C1344 C1345 1.404 . S
C1344 C1347 1.539 . S
C1345 C1341 1.408 . S
C1345 C1344 1.404 . S
C1345 H1357 0.930 . S
C1346 C1342 1.524 . S
C1346 H1358 0.956 . S
C1346 H1359 0.961 . S
C1346 H1360 0.961 . S
C1347 C1344 1.539 . S
C1347 H1361 0.958 . S
C1347 H1362 0.961 . S
C1347 H1363 0.960 . S
H1348 C1332 0.931 . S
H1349 C1337 0.929 . S
H1350 C1338 0.960 . S
H1351 C1338 0.962 . S
H1352 C1338 0.960 . S
H1353 C1339 0.961 . S
H1354 C1339 0.961 . S
H1355 C1339 0.961 . S
H1356 C1340 0.931 . S
H1357 C1345 0.930 . S
H1358 C1346 0.956 . S
H1359 C1346 0.961 . S
H1360 C1346 0.961 . S
H1361 C1347 0.958 . S
H1362 C1347 0.961 . S
H1363 C1347 0.960 . S
C1364 C1365 1.391 . S
C1364 C1366 1.394 . S
C1364 H1380 0.931 . S
C1365 C1364 1.391 . S
C1365 C1369 1.376 . S
C1366 C1364 1.394 . S
C1366 C1367 1.369 . S
C1366 C1370 1.531 . S
C1367 C1366 1.369 . S
C1367 C1368 1.410 . S
C1367 C1375 1.503 . S
C1368 C1367 1.410 . S
C1368 C1369 1.392 . S
C1368 C1371 1.511 . S
C1369 C1365 1.376 . S
C1369 C1368 1.392 . S
C1369 H1381 0.929 . S
C1370 C1366 1.531 . S
C1370 H1382 0.960 . S
C1370 H1383 0.962 . S
C1370 H1384 0.960 . S
C1371 C1368 1.511 . S
C1371 H1385 0.961 . S
C1371 H1386 0.961 . S
C1371 H1387 0.961 . S
C1372 C1373 1.370 . S
C1372 C1374 1.363 . S
C1372 H1388 0.931 . S
C1373 C1372 1.370 . S
C1373 C1377 1.408 . S
C1374 C1372 1.363 . S
C1374 C1375 1.370 . S
C1374 C1378 1.524 . S
C1375 C1367 1.503 . S
C1375 C1374 1.370 . S
C1375 C1376 1.403 . S
C1376 C1375 1.403 . S
C1376 C1377 1.404 . S
C1376 C1379 1.539 . S
C1377 C1373 1.408 . S
C1377 C1376 1.404 . S
C1377 H1389 0.930 . S
C1378 C1374 1.524 . S
C1378 H1390 0.956 . S
C1378 H1391 0.961 . S
C1378 H1392 0.961 . S
C1379 C1376 1.539 . S
C1379 H1393 0.958 . S
C1379 H1394 0.961 . S
C1379 H1395 0.960 . S
H1380 C1364 0.931 . S
H1381 C1369 0.929 . S
H1382 C1370 0.960 . S
H1383 C1370 0.962 . S
H1384 C1370 0.960 . S
H1385 C1371 0.961 . S
H1386 C1371 0.961 . S
H1387 C1371 0.961 . S
H1388 C1372 0.931 . S
H1389 C1377 0.930 . S
H1390 C1378 0.956 . S
H1391 C1378 0.961 . S
H1392 C1378 0.961 . S
H1393 C1379 0.958 . S
H1394 C1379 0.961 . S
H1395 C1379 0.960 . S
C1396 C1397 1.391 . S
C1396 C1398 1.394 . S
C1396 H1412 0.931 . S
C1397 C1396 1.391 . S
C1397 C1401 1.376 . S
C1398 C1396 1.394 . S
C1398 C1399 1.369 . S
C1398 C1402 1.531 . S
C1399 C1398 1.369 . S
C1399 C1400 1.410 . S
C1399 C1407 1.503 . S
C1400 C1399 1.410 . S
C1400 C1401 1.392 . S
C1400 C1403 1.511 . S
C1401 C1397 1.376 . S
C1401 C1400 1.392 . S
C1401 H1413 0.929 . S
C1402 C1398 1.531 . S
C1402 H1414 0.960 . S
C1402 H1415 0.962 . S
C1402 H1416 0.960 . S
C1403 C1400 1.511 . S
C1403 H1417 0.961 . S
C1403 H1418 0.961 . S
C1403 H1419 0.961 . S
C1404 C1405 1.370 . S
C1404 C1406 1.363 . S
C1404 H1420 0.931 . S
C1405 C1404 1.370 . S
C1405 C1409 1.408 . S
C1406 C1404 1.363 . S
C1406 C1407 1.370 . S
C1406 C1410 1.524 . S
C1407 C1399 1.503 . S
C1407 C1406 1.370 . S
C1407 C1408 1.403 . S
C1408 C1407 1.403 . S
C1408 C1409 1.404 . S
C1408 C1411 1.539 . S
C1409 C1405 1.408 . S
C1409 C1408 1.404 . S
C1409 H1421 0.930 . S
C1410 C1406 1.524 . S
C1410 H1422 0.956 . S
C1410 H1423 0.961 . S
C1410 H1424 0.961 . S
C1411 C1408 1.539 . S
C1411 H1425 0.958 . S
C1411 H1426 0.961 . S
C1411 H1427 0.960 . S
H1412 C1396 0.931 . S
H1413 C1401 0.929 . S
H1414 C1402 0.960 . S
H1415 C1402 0.962 . S
H1416 C1402 0.960 . S
H1417 C1403 0.961 . S
H1418 C1403 0.961 . S
H1419 C1403 0.961 . S
H1420 C1404 0.931 . S
H1421 C1409 0.930 . S
H1422 C1410 0.956 . S
H1423 C1410 0.961 . S
H1424 C1410 0.961 . S
H1425 C1411 0.958 . S
H1426 C1411 0.961 . S
H1427 C1411 0.960 . S
C1428 C1429 1.391 . S
C1428 C1430 1.394 . S
C1428 H1444 0.931 . S
C1429 C1428 1.391 . S
C1429 C1433 1.376 . S
C1430 C1428 1.394 . S
C1430 C1431 1.369 . S
C1430 C1434 1.531 . S
C1431 C1430 1.369 . S
C1431 C1432 1.410 . S
C1431 C1439 1.503 . S
C1432 C1431 1.410 . S
C1432 C1433 1.392 . S
C1432 C1435 1.511 . S
C1433 C1429 1.376 . S
C1433 C1432 1.392 . S
C1433 H1445 0.929 . S
C1434 C1430 1.531 . S
C1434 H1446 0.960 . S
C1434 H1447 0.962 . S
C1434 H1448 0.960 . S
C1435 C1432 1.511 . S
C1435 H1449 0.961 . S
C1435 H1450 0.961 . S
C1435 H1451 0.961 . S
C1436 C1437 1.370 . S
C1436 C1438 1.363 . S
C1436 H1452 0.931 . S
C1437 C1436 1.370 . S
C1437 C1441 1.408 . S
C1438 C1436 1.363 . S
C1438 C1439 1.370 . S
C1438 C1442 1.524 . S
C1439 C1431 1.503 . S
C1439 C1438 1.370 . S
C1439 C1440 1.403 . S
C1440 C1439 1.403 . S
C1440 C1441 1.404 . S
C1440 C1443 1.539 . S
C1441 C1437 1.408 . S
C1441 C1440 1.404 . S
C1441 H1453 0.930 . S
C1442 C1438 1.524 . S
C1442 H1454 0.956 . S
C1442 H1455 0.961 . S
C1442 H1456 0.961 . S
C1443 C1440 1.539 . S
C1443 H1457 0.958 . S
C1443 H1458 0.961 . S
C1443 H1459 0.960 . S
H1444 C1428 0.931 . S
H1445 C1433 0.929 . S
H1446 C1434 0.960 . S
H1447 C1434 0.962 . S
H1448 C1434 0.960 . S
H1449 C1435 0.961 . S
H1450 C1435 0.961 . S
H1451 C1435 0.961 . S
H1452 C1436 0.931 . S
H1453 C1441 0.930 . S
H1454 C1442 0.956 . S
H1455 C1442 0.961 . S
H1456 C1442 0.961 . S
H1457 C1443 0.958 . S
H1458 C1443 0.961 . S
H1459 C1443 0.960 . S
C1460 C1461 1.391 . S
C1460 C1462 1.394 . S
C1460 H1476 0.931 . S
C1461 C1460 1.391 . S
C1461 C1465 1.376 . S
C1462 C1460 1.394 . S
C1462 C1463 1.369 . S
C1462 C1466 1.531 . S
C1463 C1462 1.369 . S
C1463 C1464 1.410 . S
C1463 C1471 1.503 . S
C1464 C1463 1.410 . S
C1464 C1465 1.392 . S
C1464 C1467 1.511 . S
C1465 C1461 1.376 . S
C1465 C1464 1.392 . S
C1465 H1477 0.929 . S
C1466 C1462 1.531 . S
C1466 H1478 0.960 . S
C1466 H1479 0.962 . S
C1466 H1480 0.960 . S
C1467 C1464 1.511 . S
C1467 H1481 0.961 . S
C1467 H1482 0.961 . S
C1467 H1483 0.961 . S
C1468 C1469 1.370 . S
C1468 C1470 1.363 . S
C1468 H1484 0.931 . S
C1469 C1468 1.370 . S
C1469 C1473 1.408 . S
C1470 C1468 1.363 . S
C1470 C1471 1.370 . S
C1470 C1474 1.524 . S
C1471 C1463 1.503 . S
C1471 C1470 1.370 . S
C1471 C1472 1.403 . S
C1472 C1471 1.403 . S
C1472 C1473 1.404 . S
C1472 C1475 1.539 . S
C1473 C1469 1.408 . S
C1473 C1472 1.404 . S
C1473 H1485 0.930 . S
C1474 C1470 1.524 . S
C1474 H1486 0.956 . S
C1474 H1487 0.961 . S
C1474 H1488 0.961 . S
C1475 C1472 1.539 . S
C1475 H1489 0.958 . S
C1475 H1490 0.961 . S
C1475 H1491 0.960 . S
H1476 C1460 0.931 . S
H1477 C1465 0.929 . S
H1478 C1466 0.960 . S
H1479 C1466 0.962 . S
H1480 C1466 0.960 . S
H1481 C1467 0.961 . S
H1482 C1467 0.961 . S
H1483 C1467 0.961 . S
H1484 C1468 0.931 . S
H1485 C1473 0.930 . S
H1486 C1474 0.956 . S
H1487 C1474 0.961 . S
H1488 C1474 0.961 . S
H1489 C1475 0.958 . S
H1490 C1475 0.961 . S
H1491 C1475 0.960 . S
C1492 C1493 1.391 . S
C1492 C1494 1.394 . S
C1492 H1508 0.931 . S
C1493 C1492 1.391 . S
C1493 C1497 1.376 . S
C1494 C1492 1.394 . S
C1494 C1495 1.369 . S
C1494 C1498 1.531 . S
C1495 C1494 1.369 . S
C1495 C1496 1.410 . S
C1495 C1503 1.503 . S
C1496 C1495 1.410 . S
C1496 C1497 1.392 . S
C1496 C1499 1.511 . S
C1497 C1493 1.376 . S
C1497 C1496 1.392 . S
C1497 H1509 0.929 . S
C1498 C1494 1.531 . S
C1498 H1510 0.960 . S
C1498 H1511 0.962 . S
C1498 H1512 0.960 . S
C1499 C1496 1.511 . S
C1499 H1513 0.961 . S
C1499 H1514 0.961 . S
C1499 H1515 0.961 . S
C1500 C1501 1.370 . S
C1500 C1502 1.363 . S
C1500 H1516 0.931 . S
C1501 C1500 1.370 . S
C1501 C1505 1.408 . S
C1502 C1500 1.363 . S
C1502 C1503 1.370 . S
C1502 C1506 1.524 . S
C1503 C1495 1.503 . S
C1503 C1502 1.370 . S
C1503 C1504 1.403 . S
C1504 C1503 1.403 . S
C1504 C1505 1.404 . S
C1504 C1507 1.539 . S
C1505 C1501 1.408 . S
C1505 C1504 1.404 . S
C1505 H1517 0.930 . S
C1506 C1502 1.524 . S
C1506 H1518 0.956 . S
C1506 H1519 0.961 . S
C1506 H1520 0.961 . S
C1507 C1504 1.539 . S
C1507 H1521 0.958 . S
C1507 H1522 0.961 . S
C1507 H1523 0.960 . S
H1508 C1492 0.931 . S
H1509 C1497 0.929 . S
H1510 C1498 0.960 . S
H1511 C1498 0.962 . S
H1512 C1498 0.960 . S
H1513 C1499 0.961 . S
H1514 C1499 0.961 . S
H1515 C1499 0.961 . S
H1516 C1500 0.931 . S
H1517 C1505 0.930 . S
H1518 C1506 0.956 . S
H1519 C1506 0.961 . S
H1520 C1506 0.961 . S
H1521 C1507 0.958 . S
H1522 C1507 0.961 . S
H1523 C1507 0.960 . S
C1524 C1525 1.391 . S
C1524 C1526 1.394 . S
C1524 H1540 0.931 . S
C1525 C1524 1.391 . S
C1525 C1529 1.376 . S
C1526 C1524 1.394 . S
C1526 C1527 1.369 . S
C1526 C1530 1.531 . S
C1527 C1526 1.369 . S
C1527 C1528 1.410 . S
C1527 C1535 1.503 . S
C1528 C1527 1.410 . S
C1528 C1529 1.392 . S
C1528 C1531 1.511 . S
C1529 C1525 1.376 . S
C1529 C1528 1.392 . S
C1529 H1541 0.929 . S
C1530 C1526 1.531 . S
C1530 H1542 0.960 . S
C1530 H1543 0.962 . S
C1530 H1544 0.960 . S
C1531 C1528 1.511 . S
C1531 H1545 0.961 . S
C1531 H1546 0.961 . S
C1531 H1547 0.961 . S
C1532 C1533 1.370 . S
C1532 C1534 1.363 . S
C1532 H1548 0.931 . S
C1533 C1532 1.370 . S
C1533 C1537 1.408 . S
C1534 C1532 1.363 . S
C1534 C1535 1.370 . S
C1534 C1538 1.524 . S
C1535 C1527 1.503 . S
C1535 C1534 1.370 . S
C1535 C1536 1.403 . S
C1536 C1535 1.403 . S
C1536 C1537 1.404 . S
C1536 C1539 1.539 . S
C1537 C1533 1.408 . S
C1537 C1536 1.404 . S
C1537 H1549 0.930 . S
C1538 C1534 1.524 . S
C1538 H1550 0.956 . S
C1538 H1551 0.961 . S
C1538 H1552 0.961 . S
C1539 C1536 1.539 . S
C1539 H1553 0.958 . S
C1539 H1554 0.961 . S
C1539 H1555 0.960 . S
H1540 C1524 0.931 . S
H1541 C1529 0.929 . S
H1542 C1530 0.960 . S
H1543 C1530 0.962 . S
H1544 C1530 0.960 . S
H1545 C1531 0.961 . S
H1546 C1531 0.961 . S
H1547 C1531 0.961 . S
H1548 C1532 0.931 . S
H1549 C1537 0.930 . S
H1550 C1538 0.956 . S
H1551 C1538 0.961 . S
H1552 C1538 0.961 . S
H1553 C1539 0.958 . S
H1554 C1539 0.961 . S
H1555 C1539 0.960 . S
C1556 C1557 1.391 . S
C1556 C1558 1.394 . S
C1556 H1572 0.931 . S
C1557 C1556 1.391 . S
C1557 C1561 1.376 . S
C1558 C1556 1.394 . S
C1558 C1559 1.369 . S
C1558 C1562 1.531 . S
C1559 C1558 1.369 . S
C1559 C1560 1.410 . S
C1559 C1567 1.503 . S
C1560 C1559 1.410 . S
C1560 C1561 1.392 . S
C1560 C1563 1.511 . S
C1561 C1557 1.376 . S
C1561 C1560 1.392 . S
C1561 H1573 0.929 . S
C1562 C1558 1.531 . S
C1562 H1574 0.960 . S
C1562 H1575 0.962 . S
C1562 H1576 0.960 . S
C1563 C1560 1.511 . S
C1563 H1577 0.961 . S
C1563 H1578 0.961 . S
C1563 H1579 0.961 . S
C1564 C1565 1.370 . S
C1564 C1566 1.363 . S
C1564 H1580 0.931 . S
C1565 C1564 1.370 . S
C1565 C1569 1.408 . S
C1566 C1564 1.363 . S
C1566 C1567 1.370 . S
C1566 C1570 1.524 . S
C1567 C1559 1.503 . S
C1567 C1566 1.370 . S
C1567 C1568 1.403 . S
C1568 C1567 1.403 . S
C1568 C1569 1.404 . S
C1568 C1571 1.539 . S
C1569 C1565 1.408 . S
C1569 C1568 1.404 . S
C1569 H1581 0.930 . S
C1570 C1566 1.524 . S
C1570 H1582 0.956 . S
C1570 H1583 0.961 . S
C1570 H1584 0.961 . S
C1571 C1568 1.539 . S
C1571 H1585 0.958 . S
C1571 H1586 0.961 . S
C1571 H1587 0.960 . S
H1572 C1556 0.931 . S
H1573 C1561 0.929 . S
H1574 C1562 0.960 . S
H1575 C1562 0.962 . S
H1576 C1562 0.960 . S
H1577 C1563 0.961 . S
H1578 C1563 0.961 . S
H1579 C1563 0.961 . S
H1580 C1564 0.931 . S
H1581 C1569 0.930 . S
H1582 C1570 0.956 . S
H1583 C1570 0.961 . S
H1584 C1570 0.961 . S
H1585 C1571 0.958 . S
H1586 C1571 0.961 . S
H1587 C1571 0.960 . S
C1588 C1589 1.391 . S
C1588 C1590 1.394 . S
C1588 H1604 0.931 . S
C1589 C1588 1.391 . S
C1589 C1593 1.376 . S
C1590 C1588 1.394 . S
C1590 C1591 1.369 . S
C1590 C1594 1.531 . S
C1591 C1590 1.369 . S
C1591 C1592 1.410 . S
C1591 C1599 1.503 . S
C1592 C1591 1.410 . S
C1592 C1593 1.392 . S
C1592 C1595 1.511 . S
C1593 C1589 1.376 . S
C1593 C1592 1.392 . S
C1593 H1605 0.929 . S
C1594 C1590 1.531 . S
C1594 H1606 0.960 . S
C1594 H1607 0.962 . S
C1594 H1608 0.960 . S
C1595 C1592 1.511 . S
C1595 H1609 0.961 . S
C1595 H1610 0.961 . S
C1595 H1611 0.961 . S
C1596 C1597 1.370 . S
C1596 C1598 1.363 . S
C1596 H1612 0.931 . S
C1597 C1596 1.370 . S
C1597 C1601 1.408 . S
C1598 C1596 1.363 . S
C1598 C1599 1.370 . S
C1598 C1602 1.524 . S
C1599 C1591 1.503 . S
C1599 C1598 1.370 . S
C1599 C1600 1.403 . S
C1600 C1599 1.403 . S
C1600 C1601 1.404 . S
C1600 C1603 1.539 . S
C1601 C1597 1.408 . S
C1601 C1600 1.404 . S
C1601 H1613 0.930 . S
C1602 C1598 1.524 . S
C1602 H1614 0.956 . S
C1602 H1615 0.961 . S
C1602 H1616 0.961 . S
C1603 C1600 1.539 . S
C1603 H1617 0.958 . S
C1603 H1618 0.961 . S
C1603 H1619 0.960 . S
H1604 C1588 0.931 . S
H1605 C1593 0.929 . S
H1606 C1594 0.960 . S
H1607 C1594 0.962 . S
H1608 C1594 0.960 . S
H1609 C1595 0.961 . S
H1610 C1595 0.961 . S
H1611 C1595 0.961 . S
H1612 C1596 0.931 . S
H1613 C1601 0.930 . S
H1614 C1602 0.956 . S
H1615 C1602 0.961 . S
H1616 C1602 0.961 . S
H1617 C1603 0.958 . S
H1618 C1603 0.961 . S
H1619 C1603 0.960 . S
C1620 C1621 1.391 . S
C1620 C1622 1.394 . S
C1620 H1636 0.931 . S
C1621 C1620 1.391 . S
C1621 C1625 1.376 . S
C1622 C1620 1.394 . S
C1622 C1623 1.369 . S
C1622 C1626 1.531 . S
C1623 C1622 1.369 . S
C1623 C1624 1.410 . S
C1623 C1631 1.503 . S
C1624 C1623 1.410 . S
C1624 C1625 1.392 . S
C1624 C1627 1.511 . S
C1625 C1621 1.376 . S
C1625 C1624 1.392 . S
C1625 H1637 0.929 . S
C1626 C1622 1.531 . S
C1626 H1638 0.960 . S
C1626 H1639 0.962 . S
C1626 H1640 0.960 . S
C1627 C1624 1.511 . S
C1627 H1641 0.961 . S
C1627 H1642 0.961 . S
C1627 H1643 0.961 . S
C1628 C1629 1.370 . S
C1628 C1630 1.363 . S
C1628 H1644 0.931 . S
C1629 C1628 1.370 . S
C1629 C1633 1.408 . S
C1630 C1628 1.363 . S
C1630 C1631 1.370 . S
C1630 C1634 1.524 . S
C1631 C1623 1.503 . S
C1631 C1630 1.370 . S
C1631 C1632 1.403 . S
C1632 C1631 1.403 . S
C1632 C1633 1.404 . S
C1632 C1635 1.539 . S
C1633 C1629 1.408 . S
C1633 C1632 1.404 . S
C1633 H1645 0.930 . S
C1634 C1630 1.524 . S
C1634 H1646 0.956 . S
C1634 H1647 0.961 . S
C1634 H1648 0.961 . S
C1635 C1632 1.539 . S
C1635 H1649 0.958 . S
C1635 H1650 0.961 . S
C1635 H1651 0.960 . S
H1636 C1620 0.931 . S
H1637 C1625 0.929 . S
H1638 C1626 0.960 . S
H1639 C1626 0.962 . S
H1640 C1626 0.960 . S
H1641 C1627 0.961 . S
H1642 C1627 0.961 . S
H1643 C1627 0.961 . S
H1644 C1628 0.931 . S
H1645 C1633 0.930 . S
H1646 C1634 0.956 . S
H1647 C1634 0.961 . S
H1648 C1634 0.961 . S
H1649 C1635 0.958 . S
H1650 C1635 0.961 . S
H1651 C1635 0.960 . S
C1652 C1653 1.391 . S
C1652 C1654 1.394 . S
C1652 H1668 0.931 . S
C1653 C1652 1.391 . S
C1653 C1657 1.376 . S
C1654 C1652 1.394 . S
C1654 C1655 1.369 . S
C1654 C1658 1.531 . S
C1655 C1654 1.369 . S
C1655 C1656 1.410 . S
C1655 C1663 1.503 . S
C1656 C1655 1.410 . S
C1656 C1657 1.392 . S
C1656 C1659 1.511 . S
C1657 C1653 1.376 . S
C1657 C1656 1.392 . S
C1657 H1669 0.929 . S
C1658 C1654 1.531 . S
C1658 H1670 0.960 . S
C1658 H1671 0.962 . S
C1658 H1672 0.960 . S
C1659 C1656 1.511 . S
C1659 H1673 0.961 . S
C1659 H1674 0.961 . S
C1659 H1675 0.961 . S
C1660 C1661 1.370 . S
C1660 C1662 1.363 . S
C1660 H1676 0.931 . S
C1661 C1660 1.370 . S
C1661 C1665 1.408 . S
C1662 C1660 1.363 . S
C1662 C1663 1.370 . S
C1662 C1666 1.524 . S
C1663 C1655 1.503 . S
C1663 C1662 1.370 . S
C1663 C1664 1.403 . S
C1664 C1663 1.403 . S
C1664 C1665 1.404 . S
C1664 C1667 1.539 . S
C1665 C1661 1.408 . S
C1665 C1664 1.404 . S
C1665 H1677 0.930 . S
C1666 C1662 1.524 . S
C1666 H1678 0.956 . S
C1666 H1679 0.961 . S
C1666 H1680 0.961 . S
C1667 C1664 1.539 . S
C1667 H1681 0.958 . S
C1667 H1682 0.961 . S
C1667 H1683 0.960 . S
H1668 C1652 0.931 . S
H1669 C1657 0.929 . S
H1670 C1658 0.960 . S
H1671 C1658 0.962 . S
H1672 C1658 0.960 . S
H1673 C1659 0.961 . S
H1674 C1659 0.961 . S
H1675 C1659 0.961 . S
H1676 C1660 0.931 . S
H1677 C1665 0.930 . S
H1678 C1666 0.956 . S
H1679 C1666 0.961 . S
H1680 C1666 0.961 . S
H1681 C1667 0.958 . S
H1682 C1667 0.961 . S
H1683 C1667 0.960 . S
C1684 C1685 1.391 . S
C1684 C1686 1.394 . S
C1684 H1700 0.931 . S
C1685 C1684 1.391 . S
C1685 C1689 1.376 . S
C1686 C1684 1.394 . S
C1686 C1687 1.369 . S
C1686 C1690 1.531 . S
C1687 C1686 1.369 . S
C1687 C1688 1.410 . S
C1687 C1695 1.503 . S
C1688 C1687 1.410 . S
C1688 C1689 1.392 . S
C1688 C1691 1.511 . S
C1689 C1685 1.376 . S
C1689 C1688 1.392 . S
C1689 H1701 0.929 . S
C1690 C1686 1.531 . S
C1690 H1702 0.960 . S
C1690 H1703 0.962 . S
C1690 H1704 0.960 . S
C1691 C1688 1.511 . S
C1691 H1705 0.961 . S
C1691 H1706 0.961 . S
C1691 H1707 0.961 . S
C1692 C1693 1.370 . S
C1692 C1694 1.363 . S
C1692 H1708 0.931 . S
C1693 C1692 1.370 . S
C1693 C1697 1.408 . S
C1694 C1692 1.363 . S
C1694 C1695 1.370 . S
C1694 C1698 1.524 . S
C1695 C1687 1.503 . S
C1695 C1694 1.370 . S
C1695 C1696 1.403 . S
C1696 C1695 1.403 . S
C1696 C1697 1.404 . S
C1696 C1699 1.539 . S
C1697 C1693 1.408 . S
C1697 C1696 1.404 . S
C1697 H1709 0.930 . S
C1698 C1694 1.524 . S
C1698 H1710 0.956 . S
C1698 H1711 0.961 . S
C1698 H1712 0.961 . S
C1699 C1696 1.539 . S
C1699 H1713 0.958 . S
C1699 H1714 0.961 . S
C1699 H1715 0.960 . S
H1700 C1684 0.931 . S
H1701 C1689 0.929 . S
H1702 C1690 0.960 . S
H1703 C1690 0.962 . S
H1704 C1690 0.960 . S
H1705 C1691 0.961 . S
H1706 C1691 0.961 . S
H1707 C1691 0.961 . S
H1708 C1692 0.931 . S
H1709 C1697 0.930 . S
H1710 C1698 0.956 . S
H1711 C1698 0.961 . S
H1712 C1698 0.961 . S
H1713 C1699 0.958 . S
H1714 C1699 0.961 . S
H1715 C1699 0.960 . S
C1716 C1717 1.391 . S
C1716 C1718 1.394 . S
C1716 H1732 0.931 . S
C1717 C1716 1.391 . S
C1717 C1721 1.376 . S
C1718 C1716 1.394 . S
C1718 C1719 1.369 . S
C1718 C1722 1.531 . S
C1719 C1718 1.369 . S
C1719 C1720 1.410 . S
C1719 C1727 1.503 . S
C1720 C1719 1.410 . S
C1720 C1721 1.392 . S
C1720 C1723 1.511 . S
C1721 C1717 1.376 . S
C1721 C1720 1.392 . S
C1721 H1733 0.929 . S
C1722 C1718 1.531 . S
C1722 H1734 0.960 . S
C1722 H1735 0.962 . S
C1722 H1736 0.960 . S
C1723 C1720 1.511 . S
C1723 H1737 0.961 . S
C1723 H1738 0.961 . S
C1723 H1739 0.961 . S
C1724 C1725 1.370 . S
C1724 C1726 1.363 . S
C1724 H1740 0.931 . S
C1725 C1724 1.370 . S
C1725 C1729 1.408 . S
C1726 C1724 1.363 . S
C1726 C1727 1.370 . S
C1726 C1730 1.524 . S
C1727 C1719 1.503 . S
C1727 C1726 1.370 . S
C1727 C1728 1.403 . S
C1728 C1727 1.403 . S
C1728 C1729 1.404 . S
C1728 C1731 1.539 . S
C1729 C1725 1.408 . S
C1729 C1728 1.404 . S
C1729 H1741 0.930 . S
C1730 C1726 1.524 . S
C1730 H1742 0.956 . S
C1730 H1743 0.961 . S
C1730 H1744 0.961 . S
C1731 C1728 1.539 . S
C1731 H1745 0.958 . S
C1731 H1746 0.961 . S
C1731 H1747 0.960 . S
H1732 C1716 0.931 . S
H1733 C1721 0.929 . S
H1734 C1722 0.960 . S
H1735 C1722 0.962 . S
H1736 C1722 0.960 . S
H1737 C1723 0.961 . S
H1738 C1723 0.961 . S
H1739 C1723 0.961 . S
H1740 C1724 0.931 . S
H1741 C1729 0.930 . S
H1742 C1730 0.956 . S
H1743 C1730 0.961 . S
H1744 C1730 0.961 . S
H1745 C1731 0.958 . S
H1746 C1731 0.961 . S
H1747 C1731 0.960 . S
C1748 C1749 1.391 . S
C1748 C1750 1.394 . S
C1748 H1764 0.931 . S
C1749 C1748 1.391 . S
C1749 C1753 1.376 . S
C1750 C1748 1.394 . S
C1750 C1751 1.369 . S
C1750 C1754 1.531 . S
C1751 C1750 1.369 . S
C1751 C1752 1.410 . S
C1751 C1759 1.503 . S
C1752 C1751 1.410 . S
C1752 C1753 1.392 . S
C1752 C1755 1.511 . S
C1753 C1749 1.376 . S
C1753 C1752 1.392 . S
C1753 H1765 0.929 . S
C1754 C1750 1.531 . S
C1754 H1766 0.960 . S
C1754 H1767 0.962 . S
C1754 H1768 0.960 . S
C1755 C1752 1.511 . S
C1755 H1769 0.961 . S
C1755 H1770 0.961 . S
C1755 H1771 0.961 . S
C1756 C1757 1.370 . S
C1756 C1758 1.363 . S
C1756 H1772 0.931 . S
C1757 C1756 1.370 . S
C1757 C1761 1.408 . S
C1758 C1756 1.363 . S
C1758 C1759 1.370 . S
C1758 C1762 1.524 . S
C1759 C1751 1.503 . S
C1759 C1758 1.370 . S
C1759 C1760 1.403 . S
C1760 C1759 1.403 . S
C1760 C1761 1.404 . S
C1760 C1763 1.539 . S
C1761 C1757 1.408 . S
C1761 C1760 1.404 . S
C1761 H1773 0.930 . S
C1762 C1758 1.524 . S
C1762 H1774 0.956 . S
C1762 H1775 0.961 . S
C1762 H1776 0.961 . S
C1763 C1760 1.539 . S
C1763 H1777 0.958 . S
C1763 H1778 0.961 . S
C1763 H1779 0.960 . S
H1764 C1748 0.931 . S
H1765 C1753 0.929 . S
H1766 C1754 0.960 . S
H1767 C1754 0.962 . S
H1768 C1754 0.960 . S
H1769 C1755 0.961 . S
H1770 C1755 0.961 . S
H1771 C1755 0.961 . S
H1772 C1756 0.931 . S
H1773 C1761 0.930 . S
H1774 C1762 0.956 . S
H1775 C1762 0.961 . S
H1776 C1762 0.961 . S
H1777 C1763 0.958 . S
H1778 C1763 0.961 . S
H1779 C1763 0.960 . S
C1780 C1781 1.391 . S
C1780 C1782 1.394 . S
C1780 H1796 0.931 . S
C1781 C1780 1.391 . S
C1781 C1785 1.376 . S
C1782 C1780 1.394 . S
C1782 C1783 1.369 . S
C1782 C1786 1.531 . S
C1783 C1782 1.369 . S
C1783 C1784 1.410 . S
C1783 C1791 1.503 . S
C1784 C1783 1.410 . S
C1784 C1785 1.392 . S
C1784 C1787 1.511 . S
C1785 C1781 1.376 . S
C1785 C1784 1.392 . S
C1785 H1797 0.929 . S
C1786 C1782 1.531 . S
C1786 H1798 0.960 . S
C1786 H1799 0.962 . S
C1786 H1800 0.960 . S
C1787 C1784 1.511 . S
C1787 H1801 0.961 . S
C1787 H1802 0.961 . S
C1787 H1803 0.961 . S
C1788 C1789 1.370 . S
C1788 C1790 1.363 . S
C1788 H1804 0.931 . S
C1789 C1788 1.370 . S
C1789 C1793 1.408 . S
C1790 C1788 1.363 . S
C1790 C1791 1.370 . S
C1790 C1794 1.524 . S
C1791 C1783 1.503 . S
C1791 C1790 1.370 . S
C1791 C1792 1.403 . S
C1792 C1791 1.403 . S
C1792 C1793 1.404 . S
C1792 C1795 1.539 . S
C1793 C1789 1.408 . S
C1793 C1792 1.404 . S
C1793 H1805 0.930 . S
C1794 C1790 1.524 . S
C1794 H1806 0.956 . S
C1794 H1807 0.961 . S
C1794 H1808 0.961 . S
C1795 C1792 1.539 . S
C1795 H1809 0.958 . S
C1795 H1810 0.961 . S
C1795 H1811 0.960 . S
H1796 C1780 0.931 . S
H1797 C1785 0.929 . S
H1798 C1786 0.960 . S
H1799 C1786 0.962 . S
H1800 C1786 0.960 . S
H1801 C1787 0.961 . S
H1802 C1787 0.961 . S
H1803 C1787 0.961 . S
H1804 C1788 0.931 . S
H1805 C1793 0.930 . S
H1806 C1794 0.956 . S
H1807 C1794 0.961 . S
H1808 C1794 0.961 . S
H1809 C1795 0.958 . S
H1810 C1795 0.961 . S
H1811 C1795 0.960 . S
C1812 C1813 1.391 . S
C1812 C1814 1.394 . S
C1812 H1828 0.931 . S
C1813 C1812 1.391 . S
C1813 C1817 1.376 . S
C1814 C1812 1.394 . S
C1814 C1815 1.369 . S
C1814 C1818 1.531 . S
C1815 C1814 1.369 . S
C1815 C1816 1.410 . S
C1815 C1823 1.503 . S
C1816 C1815 1.410 . S
C1816 C1817 1.392 . S
C1816 C1819 1.511 . S
C1817 C1813 1.376 . S
C1817 C1816 1.392 . S
C1817 H1829 0.929 . S
C1818 C1814 1.531 . S
C1818 H1830 0.960 . S
C1818 H1831 0.962 . S
C1818 H1832 0.960 . S
C1819 C1816 1.511 . S
C1819 H1833 0.961 . S
C1819 H1834 0.961 . S
C1819 H1835 0.961 . S
C1820 C1821 1.370 . S
C1820 C1822 1.363 . S
C1820 H1836 0.931 . S
C1821 C1820 1.370 . S
C1821 C1825 1.408 . S
C1822 C1820 1.363 . S
C1822 C1823 1.370 . S
C1822 C1826 1.524 . S
C1823 C1815 1.503 . S
C1823 C1822 1.370 . S
C1823 C1824 1.403 . S
C1824 C1823 1.403 . S
C1824 C1825 1.404 . S
C1824 C1827 1.539 . S
C1825 C1821 1.408 . S
C1825 C1824 1.404 . S
C1825 H1837 0.930 . S
C1826 C1822 1.524 . S
C1826 H1838 0.956 . S
C1826 H1839 0.961 . S
C1826 H1840 0.961 . S
C1827 C1824 1.539 . S
C1827 H1841 0.958 . S
C1827 H1842 0.961 . S
C1827 H1843 0.960 . S
H1828 C1812 0.931 . S
H1829 C1817 0.929 . S
H1830 C1818 0.960 . S
H1831 C1818 0.962 . S
H1832 C1818 0.960 . S
H1833 C1819 0.961 . S
H1834 C1819 0.961 . S
H1835 C1819 0.961 . S
H1836 C1820 0.931 . S
H1837 C1825 0.930 . S
H1838 C1826 0.956 . S
H1839 C1826 0.961 . S
H1840 C1826 0.961 . S
H1841 C1827 0.958 . S
H1842 C1827 0.961 . S
H1843 C1827 0.960 . S
C1844 C1845 1.391 . S
C1844 C1846 1.394 . S
C1844 H1860 0.931 . S
C1845 C1844 1.391 . S
C1845 C1849 1.376 . S
C1846 C1844 1.394 . S
C1846 C1847 1.369 . S
C1846 C1850 1.531 . S
C1847 C1846 1.369 . S
C1847 C1848 1.410 . S
C1847 C1855 1.503 . S
C1848 C1847 1.410 . S
C1848 C1849 1.392 . S
C1848 C1851 1.511 . S
C1849 C1845 1.376 . S
C1849 C1848 1.392 . S
C1849 H1861 0.929 . S
C1850 C1846 1.531 . S
C1850 H1862 0.960 . S
C1850 H1863 0.962 . S
C1850 H1864 0.960 . S
C1851 C1848 1.511 . S
C1851 H1865 0.961 . S
C1851 H1866 0.961 . S
C1851 H1867 0.961 . S
C1852 C1853 1.370 . S
C1852 C1854 1.363 . S
C1852 H1868 0.931 . S
C1853 C1852 1.370 . S
C1853 C1857 1.408 . S
C1854 C1852 1.363 . S
C1854 C1855 1.370 . S
C1854 C1858 1.524 . S
C1855 C1847 1.503 . S
C1855 C1854 1.370 . S
C1855 C1856 1.403 . S
C1856 C1855 1.403 . S
C1856 C1857 1.404 . S
C1856 C1859 1.539 . S
C1857 C1853 1.408 . S
C1857 C1856 1.404 . S
C1857 H1869 0.930 . S
C1858 C1854 1.524 . S
C1858 H1870 0.956 . S
C1858 H1871 0.961 . S
C1858 H1872 0.961 . S
C1859 C1856 1.539 . S
C1859 H1873 0.958 . S
C1859 H1874 0.961 . S
C1859 H1875 0.960 . S
H1860 C1844 0.931 . S
H1861 C1849 0.929 . S
H1862 C1850 0.960 . S
H1863 C1850 0.962 . S
H1864 C1850 0.960 . S
H1865 C1851 0.961 . S
H1866 C1851 0.961 . S
H1867 C1851 0.961 . S
H1868 C1852 0.931 . S
H1869 C1857 0.930 . S
H1870 C1858 0.956 . S
H1871 C1858 0.961 . S
H1872 C1858 0.961 . S
H1873 C1859 0.958 . S
H1874 C1859 0.961 . S
H1875 C1859 0.960 . S
C1876 C1877 1.391 . S
C1876 C1878 1.394 . S
C1876 H1892 0.931 . S
C1877 C1876 1.391 . S
C1877 C1881 1.376 . S
C1878 C1876 1.394 . S
C1878 C1879 1.369 . S
C1878 C1882 1.531 . S
C1879 C1878 1.369 . S
C1879 C1880 1.410 . S
C1879 C1887 1.503 . S
C1880 C1879 1.410 . S
C1880 C1881 1.392 . S
C1880 C1883 1.511 . S
C1881 C1877 1.376 . S
C1881 C1880 1.392 . S
C1881 H1893 0.929 . S
C1882 C1878 1.531 . S
C1882 H1894 0.960 . S
C1882 H1895 0.962 . S
C1882 H1896 0.960 . S
C1883 C1880 1.511 . S
C1883 H1897 0.961 . S
C1883 H1898 0.961 . S
C1883 H1899 0.961 . S
C1884 C1885 1.370 . S
C1884 C1886 1.363 . S
C1884 H1900 0.931 . S
C1885 C1884 1.370 . S
C1885 C1889 1.408 . S
C1886 C1884 1.363 . S
C1886 C1887 1.370 . S
C1886 C1890 1.524 . S
C1887 C1879 1.503 . S
C1887 C1886 1.370 . S
C1887 C1888 1.403 . S
C1888 C1887 1.403 . S
C1888 C1889 1.404 . S
C1888 C1891 1.539 . S
C1889 C1885 1.408 . S
C1889 C1888 1.404 . S
C1889 H1901 0.930 . S
C1890 C1886 1.524 . S
C1890 H1902 0.956 . S
C1890 H1903 0.961 . S
C1890 H1904 0.961 . S
C1891 C1888 1.539 . S
C1891 H1905 0.958 . S
C1891 H1906 0.961 . S
C1891 H1907 0.960 . S
H1892 C1876 0.931 . S
H1893 C1881 0.929 . S
H1894 C1882 0.960 . S
H1895 C1882 0.962 . S
H1896 C1882 0.960 . S
H1897 C1883 0.961 . S
H1898 C1883 0.961 . S
H1899 C1883 0.961 . S
H1900 C1884 0.931 . S
H1901 C1889 0.930 . S
H1902 C1890 0.956 . S
H1903 C1890 0.961 . S
H1904 C1890 0.961 . S
H1905 C1891 0.958 . S
H1906 C1891 0.961 . S
H1907 C1891 0.960 . S
C1908 C1909 1.391 . S
C1908 C1910 1.394 . S
C1908 H1924 0.931 . S
C1909 C1908 1.391 . S
C1909 C1913 1.376 . S
C1910 C1908 1.394 . S
C1910 C1911 1.369 . S
C1910 C1914 1.531 . S
C1911 C1910 1.369 . S
C1911 C1912 1.410 . S
C1911 C1919 1.503 . S
C1912 C1911 1.410 . S
C1912 C1913 1.392 . S
C1912 C1915 1.511 . S
C1913 C1909 1.376 . S
C1913 C1912 1.392 . S
C1913 H1925 0.929 . S
C1914 C1910 1.531 . S
C1914 H1926 0.960 . S
C1914 H1927 0.962 . S
C1914 H1928 0.960 . S
C1915 C1912 1.511 . S
C1915 H1929 0.961 . S
C1915 H1930 0.961 . S
C1915 H1931 0.961 . S
C1916 C1917 1.370 . S
C1916 C1918 1.363 . S
C1916 H1932 0.931 . S
C1917 C1916 1.370 . S
C1917 C1921 1.408 . S
C1918 C1916 1.363 . S
C1918 C1919 1.370 . S
C1918 C1922 1.524 . S
C1919 C1911 1.503 . S
C1919 C1918 1.370 . S
C1919 C1920 1.403 . S
C1920 C1919 1.403 . S
C1920 C1921 1.404 . S
C1920 C1923 1.539 . S
C1921 C1917 1.408 . S
C1921 C1920 1.404 . S
C1921 H1933 0.930 . S
C1922 C1918 1.524 . S
C1922 H1934 0.956 . S
C1922 H1935 0.961 . S
C1922 H1936 0.961 . S
C1923 C1920 1.539 . S
C1923 H1937 0.958 . S
C1923 H1938 0.961 . S
C1923 H1939 0.960 . S
H1924 C1908 0.931 . S
H1925 C1913 0.929 . S
H1926 C1914 0.960 . S
H1927 C1914 0.962 . S
H1928 C1914 0.960 . S
H1929 C1915 0.961 . S
H1930 C1915 0.961 . S
H1931 C1915 0.961 . S
H1932 C1916 0.931 . S
H1933 C1921 0.930 . S
H1934 C1922 0.956 . S
H1935 C1922 0.961 . S
H1936 C1922 0.961 . S
H1937 C1923 0.958 . S
H1938 C1923 0.961 . S
H1939 C1923 0.960 . S
C1940 C1941 1.391 . S
C1940 C1942 1.394 . S
C1940 H1956 0.931 . S
C1941 C1940 1.391 . S
C1941 C1945 1.376 . S
C1942 C1940 1.394 . S
C1942 C1943 1.369 . S
C1942 C1946 1.531 . S
C1943 C1942 1.369 . S
C1943 C1944 1.410 . S
C1943 C1951 1.503 . S
C1944 C1943 1.410 . S
C1944 C1945 1.392 . S
C1944 C1947 1.511 . S
C1945 C1941 1.376 . S
C1945 C1944 1.392 . S
C1945 H1957 0.929 . S
C1946 C1942 1.531 . S
C1946 H1958 0.960 . S
C1946 H1959 0.962 . S
C1946 H1960 0.960 . S
C1947 C1944 1.511 . S
C1947 H1961 0.961 . S
C1947 H1962 0.961 . S
C1947 H1963 0.961 . S
C1948 C1949 1.370 . S
C1948 C1950 1.363 . S
C1948 H1964 0.931 . S
C1949 C1948 1.370 . S
C1949 C1953 1.408 . S
C1950 C1948 1.363 . S
C1950 C1951 1.370 . S
C1950 C1954 1.524 . S
C1951 C1943 1.503 . S
C1951 C1950 1.370 . S
C1951 C1952 1.403 . S
C1952 C1951 1.403 . S
C1952 C1953 1.404 . S
C1952 C1955 1.539 . S
C1953 C1949 1.408 . S
C1953 C1952 1.404 . S
C1953 H1965 0.930 . S
C1954 C1950 1.524 . S
C1954 H1966 0.956 . S
C1954 H1967 0.961 . S
C1954 H1968 0.961 . S
C1955 C1952 1.539 . S
C1955 H1969 0.958 . S
C1955 H1970 0.961 . S
C1955 H1971 0.960 . S
H1956 C1940 0.931 . S
H1957 C1945 0.929 . S
H1958 C1946 0.960 . S
H1959 C1946 0.962 . S
H1960 C1946 0.960 . S
H1961 C1947 0.961 . S
H1962 C1947 0.961 . S
H1963 C1947 0.961 . S
H1964 C1948 0.931 . S
H1965 C1953 0.930 . S
H1966 C1954 0.956 . S
H1967 C1954 0.961 . S
H1968 C1954 0.961 . S
H1969 C1955 0.958 . S
H1970 C1955 0.961 . S
H1971 C1955 0.960 . S
C1972 C1973 1.391 . S
C1972 C1974 1.394 . S
C1972 H1988 0.931 . S
C1973 C1972 1.391 . S
C1973 C1977 1.376 . S
C1974 C1972 1.394 . S
C1974 C1975 1.369 . S
C1974 C1978 1.531 . S
C1975 C1974 1.369 . S
C1975 C1976 1.410 . S
C1975 C1983 1.503 . S
C1976 C1975 1.410 . S
C1976 C1977 1.392 . S
C1976 C1979 1.511 . S
C1977 C1973 1.376 . S
C1977 C1976 1.392 . S
C1977 H1989 0.929 . S
C1978 C1974 1.531 . S
C1978 H1990 0.960 . S
C1978 H1991 0.962 . S
C1978 H1992 0.960 . S
C1979 C1976 1.511 . S
C1979 H1993 0.961 . S
C1979 H1994 0.961 . S
C1979 H1995 0.961 . S
C1980 C1981 1.370 . S
C1980 C1982 1.363 . S
C1980 H1996 0.931 . S
C1981 C1980 1.370 . S
C1981 C1985 1.408 . S
C1982 C1980 1.363 . S
C1982 C1983 1.370 . S
C1982 C1986 1.524 . S
C1983 C1975 1.503 . S
C1983 C1982 1.370 . S
C1983 C1984 1.403 . S
C1984 C1983 1.403 . S
C1984 C1985 1.404 . S
C1984 C1987 1.539 . S
C1985 C1981 1.408 . S
C1985 C1984 1.404 . S
C1985 H1997 0.930 . S
C1986 C1982 1.524 . S
C1986 H1998 0.956 . S
C1986 H1999 0.961 . S
C1986 H2000 0.961 . S
C1987 C1984 1.539 . S
C1987 H2001 0.958 . S
C1987 H2002 0.961 . S
C1987 H2003 0.960 . S
H1988 C1972 0.931 . S
H1989 C1977 0.929 . S
H1990 C1978 0.960 . S
H1991 C1978 0.962 . S
H1992 C1978 0.960 . S
H1993 C1979 0.961 . S
H1994 C1979 0.961 . S
H1995 C1979 0.961 . S
H1996 C1980 0.931 . S
H1997 C1985 0.930 . S
H1998 C1986 0.956 . S
H1999 C1986 0.961 . S
H2000 C1986 0.961 . S
H2001 C1987 0.958 . S
H2002 C1987 0.961 . S
H2003 C1987 0.960 . S
C2004 C2005 1.391 . S
C2004 C2006 1.394 . S
C2004 H2020 0.931 . S
C2005 C2004 1.391 . S
C2005 C2009 1.376 . S
C2006 C2004 1.394 . S
C2006 C2007 1.369 . S
C2006 C2010 1.531 . S
C2007 C2006 1.369 . S
C2007 C2008 1.410 . S
C2007 C2015 1.503 . S
C2008 C2007 1.410 . S
C2008 C2009 1.392 . S
C2008 C2011 1.511 . S
C2009 C2005 1.376 . S
C2009 C2008 1.392 . S
C2009 H2021 0.929 . S
C2010 C2006 1.531 . S
C2010 H2022 0.960 . S
C2010 H2023 0.962 . S
C2010 H2024 0.960 . S
C2011 C2008 1.511 . S
C2011 H2025 0.961 . S
C2011 H2026 0.961 . S
C2011 H2027 0.961 . S
C2012 C2013 1.370 . S
C2012 C2014 1.363 . S
C2012 H2028 0.931 . S
C2013 C2012 1.370 . S
C2013 C2017 1.408 . S
C2014 C2012 1.363 . S
C2014 C2015 1.370 . S
C2014 C2018 1.524 . S
C2015 C2007 1.503 . S
C2015 C2014 1.370 . S
C2015 C2016 1.403 . S
C2016 C2015 1.403 . S
C2016 C2017 1.404 . S
C2016 C2019 1.539 . S
C2017 C2013 1.408 . S
C2017 C2016 1.404 . S
C2017 H2029 0.930 . S
C2018 C2014 1.524 . S
C2018 H2030 0.956 . S
C2018 H2031 0.961 . S
C2018 H2032 0.961 . S
C2019 C2016 1.539 . S
C2019 H2033 0.958 . S
C2019 H2034 0.961 . S
C2019 H2035 0.960 . S
H2020 C2004 0.931 . S
H2021 C2009 0.929 . S
H2022 C2010 0.960 . S
H2023 C2010 0.962 . S
H2024 C2010 0.960 . S
H2025 C2011 0.961 . S
H2026 C2011 0.961 . S
H2027 C2011 0.961 . S
H2028 C2012 0.931 . S
H2029 C2017 0.930 . S
H2030 C2018 0.956 . S
H2031 C2018 0.961 . S
H2032 C2018 0.961 . S
H2033 C2019 0.958 . S
H2034 C2019 0.961 . S
H2035 C2019 0.960 . S
C2036 C2037 1.391 . S
C2036 C2038 1.394 . S
C2036 H2052 0.931 . S
C2037 C2036 1.391 . S
C2037 C2041 1.376 . S
C2038 C2036 1.394 . S
C2038 C2039 1.369 . S
C2038 C2042 1.531 . S
C2039 C2038 1.369 . S
C2039 C2040 1.410 . S
C2039 C2047 1.503 . S
C2040 C2039 1.410 . S
C2040 C2041 1.392 . S
C2040 C2043 1.511 . S
C2041 C2037 1.376 . S
C2041 C2040 1.392 . S
C2041 H2053 0.929 . S
C2042 C2038 1.531 . S
C2042 H2054 0.960 . S
C2042 H2055 0.962 . S
C2042 H2056 0.960 . S
C2043 C2040 1.511 . S
C2043 H2057 0.961 . S
C2043 H2058 0.961 . S
C2043 H2059 0.961 . S
C2044 C2045 1.370 . S
C2044 C2046 1.363 . S
C2044 H2060 0.931 . S
C2045 C2044 1.370 . S
C2045 C2049 1.408 . S
C2046 C2044 1.363 . S
C2046 C2047 1.370 . S
C2046 C2050 1.524 . S
C2047 C2039 1.503 . S
C2047 C2046 1.370 . S
C2047 C2048 1.403 . S
C2048 C2047 1.403 . S
C2048 C2049 1.404 . S
C2048 C2051 1.539 . S
C2049 C2045 1.408 . S
C2049 C2048 1.404 . S
C2049 H2061 0.930 . S
C2050 C2046 1.524 . S
C2050 H2062 0.956 . S
C2050 H2063 0.961 . S
C2050 H2064 0.961 . S
C2051 C2048 1.539 . S
C2051 H2065 0.958 . S
C2051 H2066 0.961 . S
C2051 H2067 0.960 . S
H2052 C2036 0.931 . S
H2053 C2041 0.929 . S
H2054 C2042 0.960 . S
H2055 C2042 0.962 . S
H2056 C2042 0.960 . S
H2057 C2043 0.961 . S
H2058 C2043 0.961 . S
H2059 C2043 0.961 . S
H2060 C2044 0.931 . S
H2061 C2049 0.930 . S
H2062 C2050 0.956 . S
H2063 C2050 0.961 . S
H2064 C2050 0.961 . S
H2065 C2051 0.958 . S
H2066 C2051 0.961 . S
H2067 C2051 0.960 . S
C2068 C2069 1.391 . S
C2068 C2070 1.394 . S
C2068 H2084 0.931 . S
C2069 C2068 1.391 . S
C2069 C2073 1.376 . S
C2070 C2068 1.394 . S
C2070 C2071 1.369 . S
C2070 C2074 1.531 . S
C2071 C2070 1.369 . S
C2071 C2072 1.410 . S
C2071 C2079 1.503 . S
C2072 C2071 1.410 . S
C2072 C2073 1.392 . S
C2072 C2075 1.511 . S
C2073 C2069 1.376 . S
C2073 C2072 1.392 . S
C2073 H2085 0.929 . S
C2074 C2070 1.531 . S
C2074 H2086 0.960 . S
C2074 H2087 0.962 . S
C2074 H2088 0.960 . S
C2075 C2072 1.511 . S
C2075 H2089 0.961 . S
C2075 H2090 0.961 . S
C2075 H2091 0.961 . S
C2076 C2077 1.370 . S
C2076 C2078 1.363 . S
C2076 H2092 0.931 . S
C2077 C2076 1.370 . S
C2077 C2081 1.408 . S
C2078 C2076 1.363 . S
C2078 C2079 1.370 . S
C2078 C2082 1.524 . S
C2079 C2071 1.503 . S
C2079 C2078 1.370 . S
C2079 C2080 1.403 . S
C2080 C2079 1.403 . S
C2080 C2081 1.404 . S
C2080 C2083 1.539 . S
C2081 C2077 1.408 . S
C2081 C2080 1.404 . S
C2081 H2093 0.930 . S
C2082 C2078 1.524 . S
C2082 H2094 0.956 . S
C2082 H2095 0.961 . S
C2082 H2096 0.961 . S
C2083 C2080 1.539 . S
C2083 H2097 0.958 . S
C2083 H2098 0.961 . S
C2083 H2099 0.960 . S
H2084 C2068 0.931 . S
H2085 C2073 0.929 . S
H2086 C2074 0.960 . S
H2087 C2074 0.962 . S
H2088 C2074 0.960 . S
H2089 C2075 0.961 . S
H2090 C2075 0.961 . S
H2091 C2075 0.961 . S
H2092 C2076 0.931 . S
H2093 C2081 0.930 . S
H2094 C2082 0.956 . S
H2095 C2082 0.961 . S
H2096 C2082 0.961 . S
H2097 C2083 0.958 . S
H2098 C2083 0.961 . S
H2099 C2083 0.960 . S
C573 C275 0.672 . S
C565 N6 0.632 . S
C605 C253 2.137 . S
C597 C57 2.193 . S
C637 C250 0.760 . S
C629 C61 0.751 . S
C661 N96 0.918 . S
C669 C262 0.825 . S
C693 C136 2.216 . S
C701 C245 2.110 . S
C733 C267 0.764 . S
C725 C160 0.750 . S
C757 N194 0.827 . S
C765 C272 0.831 . S
C789 N224 0.615 . S
C797 C268 0.665 . S
C829 C326 2.101 . S
C821 C10 2.155 . S
C853 N36 0.901 . S
C861 C376 0.820 . S
C893 C299 0.823 . S
C885 N74 0.895 . S
C925 C375 0.794 . S
C917 C100 0.790 . S
C949 C121 0.792 . S
C957 C304 0.810 . S
C989 C370 2.070 . S
C981 C177 2.131 . S
C1013 C196 2.041 . S
C1021 C329 2.071 . S
C1045 C226 2.209 . S
C1053 C361 2.166 . S
C1077 C27 2.218 . S
C1085 C353 2.166 . S
C1109 N134 0.804 . S
C1117 C383 0.856 . S
C1149 C307 0.854 . S
C1141 N156 0.767 . S
C1181 C358 0.811 . S
C1173 C181 0.784 . S
C1205 C211 2.175 . S
C1213 C316 2.113 . S
C1237 C76 2.144 . S
C1245 C380 2.081 . S
C1277 C322 2.080 . S
C1269 C117 2.057 . S
C1301 C40 0.797 . S
C1309 C321 0.823 . S
C1333 N216 0.603 . S
C1341 C437 0.670 . S
C1365 C147 2.221 . S
C1373 C415 2.116 . S
C1405 C412 0.757 . S
C1397 C151 0.752 . S
C1437 C424 0.816 . S
C1429 N186 0.831 . S
C1461 C46 2.216 . S
C1469 C407 2.115 . S
C1501 C429 0.742 . S
C1493 C70 0.756 . S
C1525 N104 0.774 . S
C1533 C434 0.859 . S
C1557 N14 0.687 . S
C1565 C430 0.672 . S
C1589 C220 2.159 . S
C1597 C488 2.106 . S
C1629 C538 0.830 . S
C1621 N126 0.833 . S
C1653 N164 0.777 . S
C1661 C461 0.855 . S
C1685 C190 0.800 . S
C1693 C537 0.805 . S
C1725 C466 0.818 . S
C1717 C31 0.828 . S
C1749 C87 2.106 . S
C1757 C532 2.058 . S
C1789 C491 2.071 . S
C1781 C106 2.045 . S
C1821 C523 2.148 . S
C1813 C16 2.189 . S
C1853 C515 2.155 . S
C1845 C237 2.191 . S
C1877 N44 0.733 . S
C1885 C545 0.872 . S
C1909 N66 0.792 . S
C1917 C469 0.869 . S
C1949 C520 0.808 . S
C1941 C91 0.826 . S
C1973 C1 2.164 . S
C1981 C478 2.112 . S
C2005 C166 2.124 . S
C2013 C542 2.072 . S
C2045 C484 2.078 . S
C2037 C207 2.044 . S
C2077 C483 0.822 . S
C2069 C130 0.799 . S
