# Generated by pormake.
# Topology anh, (6,3)-cn, num edge types: 1
# Building blocks:
#     Node 0, Type 0, BuildingBlock: CUWYAW_clean_sbu_0, # of connection points: 6
#     Node 1, Type 0, BuildingBlock: CUWYAW_clean_sbu_0, # of connection points: 6
#     Node 2, Type 0, BuildingBlock: CUWYAW_clean_sbu_0, # of connection points: 6
#     Node 3, Type 1, BuildingBlock: WUSLED_clean_sbu_0, # of connection points: 3
#     Node 4, Type 1, BuildingBlock: WUSLED_clean_sbu_0, # of connection points: 3
#     Node 5, Type 1, BuildingBlock: WUSLED_clean_sbu_0, # of connection points: 3
#     Node 6, Type 1, BuildingBlock: WUSLED_clean_sbu_0, # of connection points: 3
#     Node 7, Type 1, BuildingBlock: WUSLED_clean_sbu_0, # of connection points: 3
#     Node 8, Type 1, BuildingBlock: WUSLED_clean_sbu_0, # of connection points: 3
#     Edge 9, Type (0, 1), None
#     Edge 10, Type (0, 1), None
#     Edge 11, Type (0, 1), None
#     Edge 12, Type (0, 1), None
#     Edge 13, Type (0, 1), None
#     Edge 14, Type (0, 1), None
#     Edge 15, Type (0, 1), None
#     Edge 16, Type (0, 1), None
#     Edge 17, Type (0, 1), None
#     Edge 18, Type (0, 1), None
#     Edge 19, Type (0, 1), None
#     Edge 20, Type (0, 1), None
#     Edge 21, Type (0, 1), None
#     Edge 22, Type (0, 1), None
#     Edge 23, Type (0, 1), None
#     Edge 24, Type (0, 1), None
#     Edge 25, Type (0, 1), None
#     Edge 26, Type (0, 1), None
# Relax obj value: 0.389
# Max RMSD: 0.203
# Mean RMSD: 0.169
data_MOF--net-anh--node1-CUWYAW_clean_sbu_0--node2-WUSLED_clean_sbu_0--edge1-none
_symmetry_space_group_name_H-M    P1
_symmetry_Int_Tables_number       1
_symmetry_cell_setting            triclinic
loop_
_symmetry_equiv_pos_as_xyz
'x, y, z'
_cell_length_a     23.080669
_cell_length_b     23.189011
_cell_length_c     41.345536
_cell_angle_alpha  88.791931
_cell_angle_beta   91.058462
_cell_angle_gamma 120.96768
loop_
_atom_site_label
_atom_site_type_symbol
_atom_site_fract_x
_atom_site_fract_y
_atom_site_fract_z
_atom_type_partial_charge
C0 C 1.06857 0.42247 0.15039 0.0
Eu1 Eu 1.14921 0.5516 0.1578 0.0
C2 C 0.99572 0.37961 0.14446 0.0
C3 C 0.95959 0.31892 0.1617 0.0
C4 C 0.88917 0.28434 0.16197 0.0
C5 C 0.85372 0.31004 0.14494 0.0
C6 C 0.8901 0.36795 0.12543 0.0
C7 C 0.96064 0.40268 0.12529 0.0
C8 C 0.19007 0.60433 0.21899 0.0
C9 C 1.05294 0.62331 0.14939 0.0
C10 C 0.29077 0.81793 0.17429 0.0
Eu11 Eu 0.21733 0.69353 0.15676 0.0
C12 C 0.28128 0.86356 0.19494 0.0
C13 C 0.26967 0.9126 0.18108 0.0
C14 C 0.2706 0.96192 0.20034 0.0
C15 C 0.28472 0.96397 0.23371 0.0
C16 C 0.28993 0.91092 0.24779 0.0
C17 C 0.28828 0.86145 0.22865 0.0
C18 C 0.17359 0.64285 0.09783 0.0
C19 C 0.31293 0.62235 0.14402 0.0
O20 O 1.10427 0.46345 0.12701 0.0
O21 O 1.08505 0.45137 0.17853 0.0
O22 O 0.19965 0.55906 0.20656 0.0
O23 O 0.16181 0.62277 0.19784 0.0
O24 O 1.05725 0.5682 0.14617 0.0
O25 O 1.10944 0.67944 0.15816 0.0
O26 O 0.25726 0.80022 0.14693 0.0
O27 O 0.29249 0.76824 0.18895 0.0
O28 O 0.17556 0.69655 0.10761 0.0
O29 O 0.20105 0.62283 0.11819 0.0
O30 O 0.31118 0.67888 0.14804 0.0
O31 O 0.25408 0.56427 0.14592 0.0
H32 H 0.9859 0.30053 0.17667 0.0
H33 H 0.863 0.24039 0.17756 0.0
H34 H 0.86423 0.38842 0.11168 0.0
H35 H 0.98761 0.44938 0.11161 0.0
H36 H 0.26315 0.91486 0.15516 0.0
H37 H 0.26503 1.00112 0.18874 0.0
H38 H 0.30157 0.91045 0.27323 0.0
H39 H 0.2965 0.82387 0.24024 0.0
C40 C 0.61953 0.25819 0.48382 0.0
Eu41 Eu 0.66721 0.17874 0.49238 0.0
C42 C 0.65682 0.33158 0.47965 0.0
C43 C 0.64679 0.36801 0.50324 0.0
C44 C 0.70262 0.42447 0.5164 0.0
C45 C 0.76758 0.44538 0.50506 0.0
C46 C 0.77436 0.42008 0.47585 0.0
C47 C 0.7187 0.36246 0.46314 0.0
C48 C 0.674 0.13258 0.55374 0.0
C49 C 0.83639 0.27741 0.48502 0.0
C50 C 0.81459 1.06059 0.50516 0.0
Eu51 Eu 0.74066 0.11268 0.49271 0.0
C52 C 0.81085 0.99848 0.49614 0.0
C53 C 0.86995 0.99591 0.4961 0.0
C54 C 0.86668 0.9357 0.48962 0.0
C55 C 0.80404 0.87732 0.48328 0.0
C56 C 0.74543 0.88133 0.48116 0.0
C57 C 0.74888 0.94185 0.48742 0.0
C58 C 0.70496 0.12845 0.43235 0.0
C59 C 0.57565 1.01537 0.47991 0.0
O60 O 0.6228 0.2228 0.46047 0.0
O61 O 0.62974 0.23901 0.5122 0.0
O62 O 0.61916 0.12229 0.53941 0.0
O63 O 0.72255 0.16269 0.53402 0.0
O64 O 0.77761 0.27484 0.48923 0.0
O65 O 0.83511 0.21949 0.48553 0.0
O66 O 0.76756 1.05437 0.52469 0.0
O67 O 0.82642 1.10268 0.48126 0.0
O68 O 0.70145 1.07333 0.44234 0.0
O69 O 0.7271 0.17129 0.4543 0.0
O70 O 0.63101 1.01715 0.49154 0.0
O71 O 0.57982 1.07426 0.47455 0.0
H72 H 0.59898 0.34599 0.51572 0.0
H73 H 0.69626 0.44524 0.53837 0.0
H74 H 0.82363 0.43852 0.46551 0.0
H75 H 0.72713 0.33661 0.44394 0.0
H76 H 0.91822 1.03977 0.50227 0.0
H77 H 0.91252 0.93383 0.49195 0.0
H78 H 0.69667 0.83696 0.47631 0.0
H79 H 0.70297 0.94381 0.48664 0.0
C80 C 0.9024 0.74236 0.82113 0.0
Eu81 Eu 0.77166 0.67146 0.82488 0.0
C82 C 0.94769 0.71565 0.81821 0.0
C83 C 0.99417 0.7275 0.84322 0.0
C84 C 1.01783 0.68351 0.8483 0.0
C85 C 0.9959 0.62785 0.82817 0.0
C86 C 0.95681 0.62117 0.80067 0.0
C87 C 0.93261 0.66481 0.79572 0.0
C88 C 0.71079 0.62719 0.88458 0.0
C89 C 0.70968 0.51038 0.81023 0.0
C90 C 0.50869 0.51068 0.82478 0.0
Eu91 Eu 0.63534 0.60345 0.81752 0.0
C92 C 0.45137 0.48576 0.84637 0.0
C93 C 0.39484 0.42207 0.84069 0.0
C94 C 0.34287 0.39244 0.86317 0.0
C95 C 0.34691 0.42627 0.89165 0.0
C96 C 0.40367 0.49065 0.89704 0.0
C97 C 0.4558 0.5201 0.87458 0.0
C98 C 0.69614 0.64579 0.75977 0.0
C99 C 0.6985 0.76564 0.8141 0.0
O100 O 0.86263 0.73319 0.79644 0.0
O101 O 0.87029 0.72766 0.84853 0.0
O102 O 0.75768 0.61831 0.87347 0.0
O103 O 0.69399 0.65548 0.86265 0.0
O104 O 0.76655 0.56966 0.81365 0.0
O105 O 0.65245 0.51145 0.8116 0.0
O106 O 0.55922 0.50678 0.83667 0.0
O107 O 0.52797 0.56663 0.80863 0.0
O108 O 0.64202 0.64591 0.76716 0.0
O109 O 0.71275 0.61914 0.78197 0.0
O110 O 0.64132 0.70723 0.81928 0.0
O111 O 0.75535 0.76337 0.81389 0.0
H112 H 1.00641 0.76621 0.86083 0.0
H113 H 1.04846 0.68948 0.86958 0.0
H114 H 0.93949 0.57848 0.78492 0.0
H115 H 0.89683 0.65435 0.77614 0.0
H116 H 0.39166 0.39453 0.81922 0.0
H117 H 0.29991 0.34284 0.85842 0.0
H118 H 0.40745 0.51866 0.91841 0.0
H119 H 0.4999 0.56894 0.87943 0.0
C120 C 0.65692 0.23691 0.18292 0.0
C121 C 0.69705 0.30473 0.17345 0.0
C122 C 0.7814 0.28306 0.15212 0.0
C123 C 0.75888 0.32769 0.15837 0.0
C124 C 0.73762 0.21399 0.15813 0.0
C125 C 0.67595 0.19108 0.17345 0.0
U126 U 0.59637 0.19553 0.26871 0.0
O127 O 0.52906 0.21814 0.296 0.0
O128 O 0.50627 0.11433 0.29209 0.0
C129 C 0.4841 0.15391 0.30033 0.0
C130 C 0.60141 0.21676 0.20612 0.0
C131 C 0.41603 0.12985 0.28762 0.0
C132 C 0.35739 1.08857 0.23666 0.0
C133 C 0.40965 0.13982 0.25451 0.0
C134 C 0.30859 1.02535 0.28608 0.0
C135 C 0.31111 1.02741 0.25202 0.0
C136 C 0.36177 1.07618 0.30388 0.0
C137 C 0.70782 0.18649 0.33313 0.0
C138 C 0.69252 1.10181 0.37352 0.0
C139 C 0.72172 0.21323 0.39018 0.0
C140 C 0.72315 0.23269 0.35797 0.0
C141 C 0.70546 0.14742 0.39822 0.0
C142 C 0.69403 0.12128 0.34121 0.0
C143 C 0.70037 0.20395 0.29935 0.0
O144 O 0.57572 0.15636 0.21921 0.0
O145 O 0.61198 0.26285 0.22732 0.0
O146 O 0.69253 0.25605 0.29505 0.0
O147 O 0.65887 0.15236 0.28149 0.0
H148 H 0.6831 0.34103 0.17987 0.0
H149 H 0.79123 0.38128 0.15414 0.0
H150 H 0.75286 0.17816 0.15283 0.0
H151 H 0.64544 0.13813 0.17964 0.0
H152 H 0.36052 1.09328 0.21057 0.0
H153 H 0.45087 0.1814 0.24154 0.0
H154 H 0.27155 0.98022 0.29875 0.0
H155 H 0.36545 1.06814 0.32957 0.0
H156 H 0.68084 1.05111 0.37915 0.0
H157 H 0.73299 0.24978 0.40883 0.0
H158 H 0.73471 0.28345 0.35264 0.0
H159 H 0.68276 1.08468 0.32259 0.0
C160 C 0.82104 0.71147 0.511 0.0
C161 C 0.76581 0.71542 0.52159 0.0
C162 C 0.79918 0.81163 0.48616 0.0
C163 C 0.75461 0.76494 0.50903 0.0
C164 C 0.84921 0.80231 0.47277 0.0
C165 C 0.8601 0.75227 0.48519 0.0
U166 U 0.8535 0.65933 0.59293 0.0
O167 O 0.83103 0.56083 0.61159 0.0
O168 O 0.93662 0.64357 0.6086 0.0
C169 C 0.89459 0.5779 0.6087 0.0
C170 C 0.8457 0.67505 0.53043 0.0
C171 C 0.90279 0.54077 0.58249 0.0
C172 C 0.87806 0.54097 0.52498 0.0
C173 C 0.91894 0.57333 0.55186 0.0
C174 C 0.81923 0.43827 0.55682 0.0
C175 C 0.82393 0.47511 0.52848 0.0
C176 C 0.86001 0.47074 0.58359 0.0
C177 C 0.78696 0.70358 0.66644 0.0
C178 C 0.77811 0.65181 0.71916 0.0
C179 C 0.71232 0.70414 0.70671 0.0
C180 C 0.74092 0.72203 0.67603 0.0
C181 C 0.72962 0.66771 0.72824 0.0
C182 C 0.80626 0.66917 0.68825 0.0
C183 C 0.80514 0.71104 0.63228 0.0
O184 O 0.90004 0.71405 0.54775 0.0
O185 O 0.79949 0.62262 0.54669 0.0
O186 O 0.76727 0.65631 0.61563 0.0
O187 O 0.86987 0.74106 0.62529 0.0
H188 H 0.735 0.68439 0.54154 0.0
H189 H 0.71591 0.77123 0.51994 0.0
H190 H 0.88373 0.8375 0.4549 0.0
H191 H 0.9027 0.74945 0.47668 0.0
H192 H 0.88425 0.56927 0.50282 0.0
H193 H 0.9542 0.62698 0.54987 0.0
H194 H 0.77944 0.38602 0.55931 0.0
H195 H 0.848 0.44389 0.60656 0.0
H196 H 0.79244 0.62397 0.73547 0.0
H197 H 0.67564 0.71762 0.71332 0.0
H198 H 0.72492 0.74785 0.65929 0.0
H199 H 0.84094 0.65357 0.68095 0.0
C200 C 1.02187 0.47053 0.8668 0.0
C201 C 0.98149 0.48996 0.8826 0.0
C202 C 1.00185 0.57078 0.83974 0.0
C203 C 0.97155 0.53964 0.86916 0.0
C204 C 1.03827 0.54827 0.82266 0.0
C205 C 1.04878 0.49856 0.83634 0.0
U206 U 1.06753 0.43695 0.94802 0.0
O207 O 1.07803 0.35516 0.9701 0.0
O208 O 0.165 0.45838 0.96765 0.0
C209 C 1.14405 0.39469 0.97297 0.0
C210 C 1.04841 0.43472 0.88549 0.0
C211 C 0.18576 0.37472 0.95608 0.0
C212 C 0.2235 0.36917 0.90262 0.0
C213 C 0.17169 0.3579 0.92332 0.0
C214 C 0.30195 0.40596 0.94801 0.0
C215 C 0.28993 0.39737 0.9145 0.0
C216 C 0.25001 0.39474 0.96872 0.0
C217 C 1.05564 0.53061 0.01644 0.0
C218 C 1.13307 0.54629 0.06052 0.0
C219 C 1.09029 0.62194 0.05377 0.0
C220 C 1.05246 0.5859 0.02688 0.0
C221 C 1.13217 0.60335 0.07026 0.0
C222 C 1.09485 0.51 0.03383 0.0
C223 C 1.03265 0.5054 0.98381 0.0
O224 O 1.10641 0.47597 0.89952 0.0
O225 O 1.00544 0.38623 0.90496 0.0
O226 O 0.99446 0.43966 0.98077 0.0
O227 O 1.08224 0.53338 0.96305 0.0
H228 H 0.96131 0.47001 0.9064 0.0
H229 H 0.94222 0.55566 0.88236 0.0
H230 H 1.06139 0.57151 0.79975 0.0
H231 H 1.08118 0.48503 0.82414 0.0
H232 H 0.21263 0.36211 0.87693 0.0
H233 H 1.12265 0.34359 0.91299 0.0
H234 H 0.35248 0.42621 0.95785 0.0
H235 H 0.26185 0.40876 0.99388 0.0
H236 H 0.16507 0.53112 0.0728 0.0
H237 H 1.08809 0.66534 0.06111 0.0
H238 H 1.02362 0.60328 0.01329 0.0
H239 H 1.09909 0.46828 0.02558 0.0
C240 C 1.03127 0.47385 0.46287 0.0
C241 C 0.97839 0.47024 0.4816 0.0
C242 C 0.90405 0.34509 0.47772 0.0
C243 C 0.91737 0.40807 0.48891 0.0
C244 C 0.95729 0.34829 0.45933 0.0
C245 C 1.01894 0.41051 0.45224 0.0
U246 U 0.2049 0.64342 0.42575 0.0
O247 O 0.25587 0.74776 0.44597 0.0
O248 O 0.30848 0.69281 0.44887 0.0
C249 C 0.31177 0.74982 0.45531 0.0
C250 C 1.10036 0.54173 0.45901 0.0
C251 C 0.38108 0.8182 0.45784 0.0
C252 C 0.50299 0.88331 0.47562 0.0
C253 C 0.44138 0.82113 0.46883 0.0
C254 C 0.44863 0.94436 0.46082 0.0
C255 C 0.50874 0.94721 0.47209 0.0
C256 C 0.38695 0.88215 0.45415 0.0
C257 C 0.20114 0.63192 0.32478 0.0
C258 C 0.17123 0.65466 0.27006 0.0
C259 C 0.22342 0.58791 0.2758 0.0
C260 C 0.22628 0.59529 0.30973 0.0
C261 C 0.1954 0.61684 0.25521 0.0
C262 C 0.17391 0.66192 0.30424 0.0
C263 C 0.20207 0.63669 0.36151 0.0
O264 O 1.15568 0.5426 0.45086 0.0
O265 O 1.10312 0.59764 0.44949 0.0
O266 O 0.17613 0.66672 0.3773 0.0
O267 O 0.22995 0.61121 0.38047 0.0
H268 H 0.98493 0.51603 0.49161 0.0
H269 H 0.88089 0.40901 0.50438 0.0
H270 H 0.95139 0.30214 0.45019 0.0
H271 H 1.05748 0.40865 0.43856 0.0
H272 H 0.54642 0.88098 0.48409 0.0
H273 H 0.44073 0.77455 0.47301 0.0
H274 H 0.44868 0.99081 0.45751 0.0
H275 H 0.34299 0.88439 0.4466 0.0
H276 H 1.14934 0.67792 0.25532 0.0
H277 H 0.24283 0.55854 0.26567 0.0
H278 H 0.2477 0.57131 0.32427 0.0
H279 H 1.15401 0.69064 0.31459 0.0
C280 C 0.70059 0.96306 0.79437 0.0
C281 C 0.64023 0.89991 0.80008 0.0
C282 C 0.69914 0.83382 0.80744 0.0
C283 C 0.63949 0.83786 0.80619 0.0
C284 C 0.75948 0.89689 0.8016 0.0
C285 C 0.76021 0.95894 0.79553 0.0
U286 U 0.70179 0.13774 0.76125 0.0
O287 O 0.651 0.18763 0.78421 0.0
O288 O 0.75995 0.24204 0.78232 0.0
C289 C 0.70673 0.24491 0.7908 0.0
C290 C 0.70212 1.03241 0.79239 0.0
C291 C 0.70786 0.31403 0.79203 0.0
C292 C 0.64885 0.3795 0.79893 0.0
C293 C 0.64809 0.31768 0.79349 0.0
C294 C 0.76922 0.43932 0.80213 0.0
C295 C 0.70939 0.44284 0.80369 0.0
C296 C 0.76845 0.37746 0.79668 0.0
C297 C 0.69051 0.13313 0.66022 0.0
C298 C 0.62259 1.1031 0.60997 0.0
C299 C 0.74377 0.15923 0.60635 0.0
C300 C 0.74864 0.1604 0.64064 0.0
C301 C 0.68057 0.13088 0.59034 0.0
C302 C 0.62743 1.10412 0.64412 0.0
C303 C 0.69511 0.13503 0.69697 0.0
O304 O 0.75656 1.089 0.78344 0.0
O305 O 0.64763 1.03518 0.78544 0.0
O306 O 0.64148 0.10841 0.71553 0.0
O307 O 0.7526 0.16335 0.7132 0.0
H308 H 0.59254 0.89833 0.80047 0.0
H309 H 0.59118 0.79246 0.8103 0.0
H310 H 0.80734 0.8988 0.80205 0.0
H311 H 0.80867 1.00463 0.79228 0.0
H312 H 0.60084 0.37716 0.79979 0.0
H313 H 0.59954 0.2718 0.79103 0.0
H314 H 0.81764 0.48487 0.80564 0.0
H315 H 0.81633 0.37941 0.79682 0.0
H316 H 0.57291 1.08083 0.59888 0.0
H317 H 0.78972 0.18141 0.59236 0.0
H318 H 0.79825 0.18316 0.65183 0.0
H319 H 0.58132 1.08243 0.65797 0.0
C320 C 0.85722 0.62403 0.12665 0.0
C321 C 0.86105 0.56448 0.1264 0.0
C322 C 0.98504 0.62306 0.1417 0.0
C323 C 0.92258 0.56411 0.13337 0.0
C324 C 0.98114 0.68247 0.14191 0.0
C325 C 0.91982 0.68288 0.13479 0.0
U326 U 0.68371 0.62449 0.09153 0.0
O327 O 0.57935 0.56969 0.11331 0.0
O328 O 0.63568 0.6783 0.11333 0.0
C329 C 0.57795 0.62386 0.12097 0.0
C330 C 0.78843 0.62396 0.12356 0.0
C331 C 0.50929 0.62403 0.1231 0.0
C332 C 0.38326 0.56376 0.13231 0.0
C333 C 0.44482 0.564 0.12605 0.0
C334 C 0.44534 0.68364 0.1334 0.0
C335 C 0.38094 0.62351 0.1365 0.0
C336 C 0.50698 0.68386 0.12711 0.0
C337 C 0.68746 0.62414 0.99042 0.0
C338 C 0.68296 0.66879 0.93608 0.0
C339 C 0.70591 0.57873 0.94085 0.0
C340 C 0.70003 0.57816 0.97488 0.0
C341 C 0.69772 0.62405 0.9207 0.0
C342 C 0.6788 0.66939 0.97036 0.0
C343 C 0.68563 0.62568 0.02715 0.0
O344 O 0.787 0.67842 0.11528 0.0
O345 O 0.73108 0.56984 0.11529 0.0
O346 O 0.65824 0.57032 0.04491 0.0
O347 O 0.71189 0.68102 0.04415 0.0
H348 H 0.81559 0.51696 0.12127 0.0
H349 H 0.92068 0.51655 0.1326 0.0
H350 H 1.02613 0.72974 0.1479 0.0
H351 H 0.92143 0.73023 0.13635 0.0
H352 H 0.33681 0.51557 0.13431 0.0
H353 H 0.44174 0.51601 0.12416 0.0
H354 H 0.44865 0.73154 0.13626 0.0
H355 H 0.55378 0.73192 0.12604 0.0
H356 H 0.67692 0.70497 0.92172 0.0
H357 H 0.71759 0.54363 0.93022 0.0
H358 H 0.70723 0.54263 0.98919 0.0
H359 H 0.66903 0.70562 0.9812 0.0
loop_
_geom_bond_atom_site_label_1
_geom_bond_atom_site_label_2
_geom_bond_distance
_geom_bond_site_symmetry_2
_ccdc_geom_bond_type
C0 Eu1 2.835 . S
C0 C2 1.500 . S
C0 O20 1.257 . S
C0 O21 1.260 . S
Eu1 C0 2.835 . S
Eu1 O20 2.473 . S
Eu1 O21 2.480 . S
Eu1 O22 2.430 . S
Eu1 O23 2.670 1_655 S
Eu1 O24 2.394 . S
Eu1 O29 2.355 1_655 S
Eu1 O31 2.374 1_655 S
C2 C0 1.500 . S
C2 C3 1.377 . S
C2 C7 1.377 . S
C3 C2 1.377 . S
C3 C4 1.395 . S
C3 H32 0.931 . S
C4 C3 1.395 . S
C4 C5 1.383 . S
C4 H33 0.931 . S
C5 C4 1.383 . S
C5 C6 1.394 . S
C6 C5 1.394 . S
C6 C7 1.378 . S
C6 H34 0.931 . S
C7 C2 1.377 . S
C7 C6 1.378 . S
C7 H35 0.931 . S
C8 O22 1.259 1_455 S
C8 O23 1.270 . S
C9 O24 1.251 . S
C9 O25 1.251 . S
C10 Eu11 2.835 . S
C10 C12 1.500 . S
C10 O26 1.257 . S
C10 O27 1.260 . S
Eu11 C10 2.835 . S
Eu11 O23 2.355 . S
Eu11 O25 2.374 1_455 S
Eu11 O26 2.473 . S
Eu11 O27 2.480 . S
Eu11 O28 2.430 . S
Eu11 O29 2.670 . S
Eu11 O30 2.394 . S
C12 C10 1.500 . S
C12 C13 1.377 . S
C12 C17 1.377 . S
C13 C12 1.377 . S
C13 C14 1.395 . S
C13 H36 0.931 . S
C14 C13 1.395 . S
C14 C15 1.383 . S
C14 H37 0.931 . S
C15 C14 1.383 . S
C15 C16 1.394 . S
C16 C15 1.394 . S
C16 C17 1.378 . S
C16 H38 0.931 . S
C17 C12 1.377 . S
C17 C16 1.378 . S
C17 H39 0.931 . S
C18 O28 1.259 . S
C18 O29 1.270 . S
C19 O30 1.251 . S
C19 O31 1.251 . S
O20 C0 1.257 . S
O20 Eu1 2.473 . S
O21 C0 1.260 . S
O21 Eu1 2.480 . S
O22 Eu1 2.430 . S
O22 C8 1.259 1_655 S
O23 Eu1 2.670 1_455 S
O23 C8 1.270 . S
O23 Eu11 2.355 . S
O24 Eu1 2.394 . S
O24 C9 1.251 . S
O25 C9 1.251 . S
O25 Eu11 2.374 1_655 S
O26 C10 1.257 . S
O26 Eu11 2.473 . S
O27 C10 1.260 . S
O27 Eu11 2.480 . S
O28 Eu11 2.430 . S
O28 C18 1.259 . S
O29 Eu1 2.355 1_455 S
O29 Eu11 2.670 . S
O29 C18 1.270 . S
O30 Eu11 2.394 . S
O30 C19 1.251 . S
O31 Eu1 2.374 1_455 S
O31 C19 1.251 . S
H32 C3 0.931 . S
H33 C4 0.931 . S
H34 C6 0.931 . S
H35 C7 0.931 . S
H36 C13 0.931 . S
H37 C14 0.931 . S
H38 C16 0.931 . S
H39 C17 0.931 . S
C40 Eu41 2.835 . S
C40 C42 1.500 . S
C40 O60 1.257 . S
C40 O61 1.260 . S
Eu41 C40 2.835 . S
Eu41 O60 2.473 . S
Eu41 O61 2.480 . S
Eu41 O62 2.430 . S
Eu41 O63 2.670 . S
Eu41 O64 2.394 . S
Eu41 O69 2.355 . S
Eu41 O71 2.374 1_545 S
C42 C40 1.500 . S
C42 C43 1.377 . S
C42 C47 1.377 . S
C43 C42 1.377 . S
C43 C44 1.395 . S
C43 H72 0.931 . S
C44 C43 1.395 . S
C44 C45 1.383 . S
C44 H73 0.931 . S
C45 C44 1.383 . S
C45 C46 1.394 . S
C46 C45 1.394 . S
C46 C47 1.378 . S
C46 H74 0.931 . S
C47 C42 1.377 . S
C47 C46 1.378 . S
C47 H75 0.931 . S
C48 O62 1.259 . S
C48 O63 1.270 . S
C49 O64 1.251 . S
C49 O65 1.251 . S
C50 Eu51 2.835 . S
C50 C52 1.500 . S
C50 O66 1.257 . S
C50 O67 1.260 . S
Eu51 C50 2.835 . S
Eu51 O63 2.355 1_565 S
Eu51 O65 2.374 1_565 S
Eu51 O66 2.473 . S
Eu51 O67 2.480 . S
Eu51 O68 2.431 . S
Eu51 O69 2.670 1_565 S
Eu51 O70 2.394 . S
C52 C50 1.500 . S
C52 C53 1.377 . S
C52 C57 1.377 . S
C53 C52 1.377 . S
C53 C54 1.395 . S
C53 H76 0.931 . S
C54 C53 1.395 . S
C54 C55 1.383 . S
C54 H77 0.931 . S
C55 C54 1.383 . S
C55 C56 1.394 . S
C56 C55 1.394 . S
C56 C57 1.378 . S
C56 H78 0.931 . S
C57 C52 1.377 . S
C57 C56 1.378 . S
C57 H79 0.931 . S
C58 O68 1.254 1_545 S
C58 O69 1.270 . S
C59 O70 1.251 . S
C59 O71 1.251 . S
O60 C40 1.257 . S
O60 Eu41 2.473 . S
O61 C40 1.260 . S
O61 Eu41 2.480 . S
O62 Eu41 2.430 . S
O62 C48 1.259 . S
O63 Eu41 2.670 . S
O63 C48 1.270 . S
O63 Eu51 2.355 1_545 S
O64 Eu41 2.394 . S
O64 C49 1.251 . S
O65 C49 1.251 . S
O65 Eu51 2.374 1_545 S
O66 C50 1.257 . S
O66 Eu51 2.473 . S
O67 C50 1.260 . S
O67 Eu51 2.480 . S
O68 Eu51 2.431 . S
O68 C58 1.254 1_565 S
O69 Eu41 2.355 . S
O69 Eu51 2.670 1_545 S
O69 C58 1.270 . S
O70 Eu51 2.394 . S
O70 C59 1.251 . S
O71 Eu41 2.374 1_565 S
O71 C59 1.251 . S
H72 C43 0.931 . S
H73 C44 0.931 . S
H74 C46 0.931 . S
H75 C47 0.931 . S
H76 C53 0.931 . S
H77 C54 0.931 . S
H78 C56 0.931 . S
H79 C57 0.931 . S
C80 Eu81 2.835 . S
C80 C82 1.500 . S
C80 O100 1.257 . S
C80 O101 1.260 . S
Eu81 C80 2.835 . S
Eu81 O100 2.473 . S
Eu81 O101 2.480 . S
Eu81 O102 2.430 . S
Eu81 O103 2.670 . S
Eu81 O104 2.394 . S
Eu81 O109 2.355 . S
Eu81 O111 2.374 . S
C82 C80 1.500 . S
C82 C83 1.377 . S
C82 C87 1.377 . S
C83 C82 1.377 . S
C83 C84 1.395 . S
C83 H112 0.931 . S
C84 C83 1.395 . S
C84 C85 1.383 . S
C84 H113 0.931 . S
C85 C84 1.383 . S
C85 C86 1.394 . S
C86 C85 1.394 . S
C86 C87 1.378 . S
C86 H114 0.931 . S
C87 C82 1.377 . S
C87 C86 1.378 . S
C87 H115 0.931 . S
C88 O102 1.259 . S
C88 O103 1.270 . S
C89 O104 1.251 . S
C89 O105 1.251 . S
C90 Eu91 2.835 . S
C90 C92 1.500 . S
C90 O106 1.257 . S
C90 O107 1.260 . S
Eu91 C90 2.835 . S
Eu91 O103 2.355 . S
Eu91 O105 2.374 . S
Eu91 O106 2.473 . S
Eu91 O107 2.480 . S
Eu91 O108 2.430 . S
Eu91 O109 2.670 . S
Eu91 O110 2.394 . S
C92 C90 1.500 . S
C92 C93 1.377 . S
C92 C97 1.377 . S
C93 C92 1.377 . S
C93 C94 1.395 . S
C93 H116 0.931 . S
C94 C93 1.395 . S
C94 C95 1.383 . S
C94 H117 0.931 . S
C95 C94 1.383 . S
C95 C96 1.394 . S
C96 C95 1.394 . S
C96 C97 1.378 . S
C96 H118 0.931 . S
C97 C92 1.377 . S
C97 C96 1.378 . S
C97 H119 0.931 . S
C98 O108 1.259 . S
C98 O109 1.270 . S
C99 O110 1.251 . S
C99 O111 1.251 . S
O100 C80 1.257 . S
O100 Eu81 2.473 . S
O101 C80 1.260 . S
O101 Eu81 2.480 . S
O102 Eu81 2.430 . S
O102 C88 1.259 . S
O103 Eu81 2.670 . S
O103 C88 1.270 . S
O103 Eu91 2.355 . S
O104 Eu81 2.394 . S
O104 C89 1.251 . S
O105 C89 1.251 . S
O105 Eu91 2.374 . S
O106 C90 1.257 . S
O106 Eu91 2.473 . S
O107 C90 1.260 . S
O107 Eu91 2.480 . S
O108 Eu91 2.430 . S
O108 C98 1.259 . S
O109 Eu81 2.355 . S
O109 Eu91 2.670 . S
O109 C98 1.270 . S
O110 Eu91 2.394 . S
O110 C99 1.251 . S
O111 Eu81 2.374 . S
O111 C99 1.251 . S
H112 C83 0.931 . S
H113 C84 0.931 . S
H114 C86 0.931 . S
H115 C87 0.931 . S
H116 C93 0.931 . S
H117 C94 0.931 . S
H118 C96 0.931 . S
H119 C97 0.931 . S
C120 C121 1.264 . S
C120 C125 1.479 . S
C120 C130 1.465 . S
C121 C120 1.264 . S
C121 C123 1.339 . S
C121 H148 0.931 . S
C122 C123 1.395 . S
C122 C124 1.320 . S
C123 C121 1.339 . S
C123 C122 1.395 . S
C123 H149 0.929 . S
C124 C122 1.320 . S
C124 C125 1.405 . S
C124 H150 0.930 . S
C125 C120 1.479 . S
C125 C124 1.405 . S
C125 H151 0.931 . S
U126 O127 2.454 . S
U126 O128 2.458 1_545 S
U126 C129 2.984 1_545 S
U126 C130 2.847 . S
U126 C143 2.882 . S
U126 O144 2.441 . S
U126 O145 2.420 . S
U126 O146 2.455 . S
U126 O147 2.449 . S
O127 U126 2.454 . S
O127 C129 1.353 1_545 S
O128 U126 2.458 1_565 S
O128 C129 1.286 . S
C129 U126 2.984 1_565 S
C129 O127 1.353 1_565 S
C129 O128 1.286 . S
C129 C131 1.363 . S
C130 C120 1.465 . S
C130 U126 2.847 . S
C130 O144 1.249 . S
C130 O145 1.202 . S
C131 C129 1.363 . S
C131 C133 1.408 . S
C131 C136 1.342 . S
C132 C133 1.310 . S
C132 C135 1.461 . S
C132 H152 0.932 . S
C133 C131 1.408 . S
C133 C132 1.310 . S
C133 H153 0.930 . S
C134 C135 1.474 . S
C134 C136 1.285 . S
C134 H154 0.929 . S
C135 C132 1.461 . S
C135 C134 1.474 . S
C136 C131 1.342 . S
C136 C134 1.285 . S
C136 H155 0.930 . S
C137 C140 1.424 . S
C137 C142 1.245 . S
C137 C143 1.428 . S
C138 C141 1.260 . S
C138 C142 1.477 . S
C138 H156 0.932 1_545 S
C139 C140 1.384 . S
C139 C141 1.479 . S
C139 H157 0.929 . S
C140 C137 1.424 . S
C140 C139 1.384 . S
C140 H158 0.928 . S
C141 C138 1.260 . S
C141 C139 1.479 . S
C142 C137 1.245 . S
C142 C138 1.477 . S
C142 H159 0.932 1_545 S
C143 U126 2.882 . S
C143 C137 1.428 . S
C143 O146 1.301 . S
C143 O147 1.282 . S
O144 U126 2.441 . S
O144 C130 1.249 . S
O145 U126 2.420 . S
O145 C130 1.202 . S
O146 U126 2.455 . S
O146 C143 1.301 . S
O147 U126 2.449 . S
O147 C143 1.282 . S
H148 C121 0.931 . S
H149 C123 0.929 . S
H150 C124 0.930 . S
H151 C125 0.931 . S
H152 C132 0.932 . S
H153 C133 0.930 . S
H154 C134 0.929 . S
H155 C136 0.930 . S
H156 C138 0.932 1_565 S
H157 C139 0.929 . S
H158 C140 0.928 . S
H159 C142 0.932 1_565 S
C160 C161 1.264 . S
C160 C165 1.479 . S
C160 C170 1.465 . S
C161 C160 1.264 . S
C161 C163 1.339 . S
C161 H188 0.931 . S
C162 C163 1.395 . S
C162 C164 1.320 . S
C163 C161 1.339 . S
C163 C162 1.395 . S
C163 H189 0.929 . S
C164 C162 1.320 . S
C164 C165 1.405 . S
C164 H190 0.930 . S
C165 C160 1.479 . S
C165 C164 1.405 . S
C165 H191 0.931 . S
U166 O167 2.454 . S
U166 O168 2.458 . S
U166 C169 2.984 . S
U166 C170 2.847 . S
U166 C183 2.882 . S
U166 O184 2.441 . S
U166 O185 2.420 . S
U166 O186 2.455 . S
U166 O187 2.449 . S
O167 U166 2.454 . S
O167 C169 1.353 . S
O168 U166 2.458 . S
O168 C169 1.286 . S
C169 U166 2.984 . S
C169 O167 1.353 . S
C169 O168 1.286 . S
C169 C171 1.363 . S
C170 C160 1.465 . S
C170 U166 2.847 . S
C170 O184 1.249 . S
C170 O185 1.202 . S
C171 C169 1.363 . S
C171 C173 1.408 . S
C171 C176 1.342 . S
C172 C173 1.310 . S
C172 C175 1.461 . S
C172 H192 0.932 . S
C173 C171 1.408 . S
C173 C172 1.310 . S
C173 H193 0.930 . S
C174 C175 1.474 . S
C174 C176 1.285 . S
C174 H194 0.929 . S
C175 C172 1.461 . S
C175 C174 1.474 . S
C176 C171 1.342 . S
C176 C174 1.285 . S
C176 H195 0.930 . S
C177 C180 1.424 . S
C177 C182 1.245 . S
C177 C183 1.428 . S
C178 C181 1.260 . S
C178 C182 1.477 . S
C178 H196 0.932 . S
C179 C180 1.384 . S
C179 C181 1.479 . S
C179 H197 0.929 . S
C180 C177 1.424 . S
C180 C179 1.384 . S
C180 H198 0.928 . S
C181 C178 1.260 . S
C181 C179 1.479 . S
C182 C177 1.245 . S
C182 C178 1.477 . S
C182 H199 0.932 . S
C183 U166 2.882 . S
C183 C177 1.428 . S
C183 O186 1.301 . S
C183 O187 1.282 . S
O184 U166 2.441 . S
O184 C170 1.249 . S
O185 U166 2.420 . S
O185 C170 1.202 . S
O186 U166 2.455 . S
O186 C183 1.301 . S
O187 U166 2.449 . S
O187 C183 1.282 . S
H188 C161 0.931 . S
H189 C163 0.929 . S
H190 C164 0.930 . S
H191 C165 0.931 . S
H192 C172 0.932 . S
H193 C173 0.930 . S
H194 C174 0.929 . S
H195 C176 0.930 . S
H196 C178 0.932 . S
H197 C179 0.929 . S
H198 C180 0.928 . S
H199 C182 0.932 . S
C200 C201 1.264 . S
C200 C205 1.479 . S
C200 C210 1.465 . S
C201 C200 1.264 . S
C201 C203 1.339 . S
C201 H228 0.931 . S
C202 C203 1.395 . S
C202 C204 1.320 . S
C203 C201 1.339 . S
C203 C202 1.395 . S
C203 H229 0.929 . S
C204 C202 1.320 . S
C204 C205 1.405 . S
C204 H230 0.930 . S
C205 C200 1.479 . S
C205 C204 1.405 . S
C205 H231 0.931 . S
U206 O207 2.454 1_655 S
U206 O208 2.458 1_655 S
U206 C209 2.984 1_655 S
U206 C210 2.847 . S
U206 C223 2.882 . S
U206 O224 2.441 . S
U206 O225 2.420 . S
U206 O226 2.455 1_655 S
U206 O227 2.449 . S
O207 U206 2.454 1_455 S
O207 C209 1.353 . S
O208 U206 2.458 1_455 S
O208 C209 1.286 . S
C209 U206 2.984 1_455 S
C209 O207 1.353 . S
C209 O208 1.286 . S
C209 C211 1.363 . S
C210 C200 1.465 . S
C210 U206 2.847 . S
C210 O224 1.249 . S
C210 O225 1.202 . S
C211 C209 1.363 . S
C211 C213 1.408 . S
C211 C216 1.342 . S
C212 C213 1.310 . S
C212 C215 1.461 . S
C212 H232 0.932 . S
C213 C211 1.408 . S
C213 C212 1.310 . S
C213 H233 0.930 . S
C214 C215 1.474 . S
C214 C216 1.285 . S
C214 H234 0.929 . S
C215 C212 1.461 . S
C215 C214 1.474 . S
C216 C211 1.342 . S
C216 C214 1.285 . S
C216 H235 0.930 . S
C217 C220 1.424 . S
C217 C222 1.245 1_655 S
C217 C223 1.428 1_554 S
C218 C221 1.259 . S
C218 C222 1.477 . S
C218 H236 0.932 . S
C219 C220 1.384 . S
C219 C221 1.479 1_655 S
C219 H237 0.929 . S
C220 C217 1.424 . S
C220 C219 1.384 . S
C220 H238 0.928 . S
C221 C218 1.259 . S
C221 C219 1.479 1_455 S
C222 C217 1.245 1_455 S
C222 C218 1.477 . S
C222 H239 0.932 . S
C223 U206 2.882 . S
C223 C217 1.428 1_556 S
C223 O226 1.301 1_655 S
C223 O227 1.282 . S
O224 U206 2.441 . S
O224 C210 1.249 . S
O225 U206 2.420 . S
O225 C210 1.202 . S
O226 U206 2.455 1_455 S
O226 C223 1.301 1_455 S
O227 U206 2.449 . S
O227 C223 1.282 . S
H228 C201 0.931 . S
H229 C203 0.929 . S
H230 C204 0.930 . S
H231 C205 0.931 . S
H232 C212 0.932 . S
H233 C213 0.930 . S
H234 C214 0.929 . S
H235 C216 0.930 . S
H236 C218 0.932 . S
H237 C219 0.929 . S
H238 C220 0.928 . S
H239 C222 0.932 . S
C240 C241 1.264 . S
C240 C245 1.479 . S
C240 C250 1.465 . S
C241 C240 1.264 . S
C241 C243 1.339 . S
C241 H268 0.931 . S
C242 C243 1.395 . S
C242 C244 1.320 . S
C243 C241 1.339 . S
C243 C242 1.395 . S
C243 H269 0.929 . S
C244 C242 1.320 . S
C244 C245 1.405 . S
C244 H270 0.930 . S
C245 C240 1.479 . S
C245 C244 1.405 . S
C245 H271 0.931 . S
U246 O247 2.454 . S
U246 O248 2.458 . S
U246 C249 2.984 . S
U246 C250 2.847 1_455 S
U246 C263 2.882 . S
U246 O264 2.441 1_455 S
U246 O265 2.420 1_455 S
U246 O266 2.455 . S
U246 O267 2.449 1_455 S
O247 U246 2.454 . S
O247 C249 1.353 . S
O248 U246 2.458 . S
O248 C249 1.286 . S
C249 U246 2.984 . S
C249 O247 1.353 . S
C249 O248 1.286 . S
C249 C251 1.363 . S
C250 C240 1.465 . S
C250 U246 2.847 1_655 S
C250 O264 1.249 . S
C250 O265 1.202 . S
C251 C249 1.363 . S
C251 C253 1.408 . S
C251 C256 1.342 . S
C252 C253 1.310 . S
C252 C255 1.461 . S
C252 H272 0.932 . S
C253 C251 1.408 . S
C253 C252 1.310 . S
C253 H273 0.930 . S
C254 C255 1.474 . S
C254 C256 1.285 . S
C254 H274 0.929 . S
C255 C252 1.461 . S
C255 C254 1.474 . S
C256 C251 1.342 . S
C256 C254 1.285 . S
C256 H275 0.930 . S
C257 C260 1.424 1_455 S
C257 C262 1.245 . S
C257 C263 1.428 . S
C258 C261 1.260 . S
C258 C262 1.477 . S
C258 H276 0.932 . S
C259 C260 1.384 . S
C259 C261 1.479 1_655 S
C259 H277 0.929 . S
C260 C257 1.424 1_655 S
C260 C259 1.384 . S
C260 H278 0.928 . S
C261 C258 1.260 . S
C261 C259 1.479 1_455 S
C262 C257 1.245 . S
C262 C258 1.477 . S
C262 H279 0.932 . S
C263 U246 2.882 . S
C263 C257 1.428 . S
C263 O266 1.301 . S
C263 O267 1.282 1_455 S
O264 U246 2.441 1_655 S
O264 C250 1.249 . S
O265 U246 2.420 1_655 S
O265 C250 1.202 . S
O266 U246 2.455 . S
O266 C263 1.301 . S
O267 U246 2.449 1_655 S
O267 C263 1.282 1_655 S
H268 C241 0.931 . S
H269 C243 0.929 . S
H270 C244 0.930 . S
H271 C245 0.931 . S
H272 C252 0.932 . S
H273 C253 0.930 . S
H274 C254 0.929 . S
H275 C256 0.930 . S
H276 C258 0.932 . S
H277 C259 0.929 . S
H278 C260 0.928 . S
H279 C262 0.932 . S
C280 C281 1.264 . S
C280 C285 1.479 . S
C280 C290 1.465 . S
C281 C280 1.264 . S
C281 C283 1.339 . S
C281 H308 0.931 . S
C282 C283 1.395 . S
C282 C284 1.320 . S
C283 C281 1.339 . S
C283 C282 1.395 . S
C283 H309 0.929 . S
C284 C282 1.320 . S
C284 C285 1.405 . S
C284 H310 0.930 . S
C285 C280 1.479 . S
C285 C284 1.405 . S
C285 H311 0.931 . S
U286 O287 2.454 1_565 S
U286 O288 2.458 1_565 S
U286 C289 2.984 1_565 S
U286 C290 2.847 . S
U286 C303 2.882 . S
U286 O304 2.441 . S
U286 O305 2.420 . S
U286 O306 2.455 1_565 S
U286 O307 2.449 . S
O287 U286 2.454 1_545 S
O287 C289 1.353 . S
O288 U286 2.458 1_545 S
O288 C289 1.286 . S
C289 U286 2.984 1_545 S
C289 O287 1.353 . S
C289 O288 1.286 . S
C289 C291 1.363 . S
C290 C280 1.465 . S
C290 U286 2.847 . S
C290 O304 1.249 . S
C290 O305 1.202 . S
C291 C289 1.363 . S
C291 C293 1.408 . S
C291 C296 1.342 . S
C292 C293 1.310 . S
C292 C295 1.461 . S
C292 H312 0.932 . S
C293 C291 1.408 . S
C293 C292 1.310 . S
C293 H313 0.930 . S
C294 C295 1.474 . S
C294 C296 1.285 . S
C294 H314 0.929 . S
C295 C292 1.461 . S
C295 C294 1.474 . S
C296 C291 1.342 . S
C296 C294 1.285 . S
C296 H315 0.930 . S
C297 C300 1.424 . S
C297 C302 1.245 1_565 S
C297 C303 1.428 . S
C298 C301 1.260 . S
C298 C302 1.477 . S
C298 H316 0.932 . S
C299 C300 1.384 . S
C299 C301 1.479 1_565 S
C299 H317 0.929 . S
C300 C297 1.424 . S
C300 C299 1.384 . S
C300 H318 0.928 . S
C301 C298 1.260 . S
C301 C299 1.479 1_545 S
C302 C297 1.245 1_545 S
C302 C298 1.477 . S
C302 H319 0.932 . S
C303 U286 2.882 . S
C303 C297 1.428 . S
C303 O306 1.301 1_565 S
C303 O307 1.282 . S
O304 U286 2.441 . S
O304 C290 1.249 . S
O305 U286 2.420 . S
O305 C290 1.202 . S
O306 U286 2.455 1_545 S
O306 C303 1.301 1_545 S
O307 U286 2.449 . S
O307 C303 1.282 . S
H308 C281 0.931 . S
H309 C283 0.929 . S
H310 C284 0.930 . S
H311 C285 0.931 . S
H312 C292 0.932 . S
H313 C293 0.930 . S
H314 C294 0.929 . S
H315 C296 0.930 . S
H316 C298 0.932 . S
H317 C299 0.929 . S
H318 C300 0.928 . S
H319 C302 0.932 . S
C320 C321 1.264 . S
C320 C325 1.479 . S
C320 C330 1.465 . S
C321 C320 1.264 . S
C321 C323 1.339 . S
C321 H348 0.931 . S
C322 C323 1.395 . S
C322 C324 1.320 . S
C323 C321 1.339 . S
C323 C322 1.395 . S
C323 H349 0.929 . S
C324 C322 1.320 . S
C324 C325 1.405 . S
C324 H350 0.930 . S
C325 C320 1.479 . S
C325 C324 1.405 . S
C325 H351 0.931 . S
U326 O327 2.454 . S
U326 O328 2.458 . S
U326 C329 2.984 . S
U326 C330 2.847 . S
U326 C343 2.882 . S
U326 O344 2.441 . S
U326 O345 2.420 . S
U326 O346 2.455 . S
U326 O347 2.449 . S
O327 U326 2.454 . S
O327 C329 1.353 . S
O328 U326 2.458 . S
O328 C329 1.286 . S
C329 U326 2.984 . S
C329 O327 1.353 . S
C329 O328 1.286 . S
C329 C331 1.363 . S
C330 C320 1.465 . S
C330 U326 2.847 . S
C330 O344 1.249 . S
C330 O345 1.202 . S
C331 C329 1.363 . S
C331 C333 1.408 . S
C331 C336 1.342 . S
C332 C333 1.310 . S
C332 C335 1.461 . S
C332 H352 0.932 . S
C333 C331 1.408 . S
C333 C332 1.310 . S
C333 H353 0.930 . S
C334 C335 1.474 . S
C334 C336 1.285 . S
C334 H354 0.929 . S
C335 C332 1.461 . S
C335 C334 1.474 . S
C336 C331 1.342 . S
C336 C334 1.285 . S
C336 H355 0.930 . S
C337 C340 1.424 . S
C337 C342 1.245 . S
C337 C343 1.428 1_556 S
C338 C341 1.260 . S
C338 C342 1.477 . S
C338 H356 0.932 . S
C339 C340 1.384 . S
C339 C341 1.479 . S
C339 H357 0.929 . S
C340 C337 1.424 . S
C340 C339 1.384 . S
C340 H358 0.928 . S
C341 C338 1.260 . S
C341 C339 1.479 . S
C342 C337 1.245 . S
C342 C338 1.477 . S
C342 H359 0.932 . S
C343 U326 2.882 . S
C343 C337 1.428 1_554 S
C343 O346 1.301 . S
C343 O347 1.282 . S
O344 U326 2.441 . S
O344 C330 1.249 . S
O345 U326 2.420 . S
O345 C330 1.202 . S
O346 U326 2.455 . S
O346 C343 1.301 . S
O347 U326 2.449 . S
O347 C343 1.282 . S
H348 C321 0.931 . S
H349 C323 0.929 . S
H350 C324 0.930 . S
H351 C325 0.931 . S
H352 C332 0.932 . S
H353 C333 0.930 . S
H354 C334 0.929 . S
H355 C336 0.930 . S
H356 C338 0.932 . S
H357 C339 0.929 . S
H358 C340 0.928 . S
H359 C342 0.932 . S
C19 C335 5.096 . S
C49 C242 5.168 . S
C99 C282 5.116 . S
C9 C322 5.170 . S
C255 C59 5.098 . S
C295 C89 5.149 . S
C55 C162 1.397 . S
C85 C202 1.678 . S
C15 C135 1.632 . S
C175 C45 1.546 . S
C215 C95 1.648 . S
C5 C122 1.669 . S
C221 C18 1.434 . S
C58 C141 1.444 . S
C98 C181 0.997 . S
C301 C48 2.042 . S
C341 C88 2.032 . S
C8 C261 2.034 . S
