# Generated by pormake.
# Topology ftw, (4,12)-cn, num edge types: 1
# Building blocks:
#     Node 0, Type 0, BuildingBlock: ESEHIV_clean_sbu_0, # of connection points: 4
#     Node 1, Type 0, BuildingBlock: ESEHIV_clean_sbu_0, # of connection points: 4
#     Node 2, Type 0, BuildingBlock: ESEHIV_clean_sbu_0, # of connection points: 4
#     Node 3, Type 1, BuildingBlock: EZIPEK_clean_sbu_0, # of connection points: 12
#     Edge 4, Type (0, 1), BuildingBlock: KIFKEQ_clean_linker_1, # of connection points: 2
#     Edge 5, Type (0, 1), BuildingBlock: KIFKEQ_clean_linker_1, # of connection points: 2
#     Edge 6, Type (0, 1), BuildingBlock: KIFKEQ_clean_linker_1, # of connection points: 2
#     Edge 7, Type (0, 1), BuildingBlock: KIFKEQ_clean_linker_1, # of connection points: 2
#     Edge 8, Type (0, 1), BuildingBlock: KIFKEQ_clean_linker_1, # of connection points: 2
#     Edge 9, Type (0, 1), BuildingBlock: KIFKEQ_clean_linker_1, # of connection points: 2
#     Edge 10, Type (0, 1), BuildingBlock: KIFKEQ_clean_linker_1, # of connection points: 2
#     Edge 11, Type (0, 1), BuildingBlock: KIFKEQ_clean_linker_1, # of connection points: 2
#     Edge 12, Type (0, 1), BuildingBlock: KIFKEQ_clean_linker_1, # of connection points: 2
#     Edge 13, Type (0, 1), BuildingBlock: KIFKEQ_clean_linker_1, # of connection points: 2
#     Edge 14, Type (0, 1), BuildingBlock: KIFKEQ_clean_linker_1, # of connection points: 2
#     Edge 15, Type (0, 1), BuildingBlock: KIFKEQ_clean_linker_1, # of connection points: 2
# Relax obj value: 0.025
# Max RMSD: 0.144
# Mean RMSD: 0.114
data_MOF--net-ftw--node1-ESEHIV_clean_sbu_0--node2-EZIPEK_clean_sbu_0--edge1-KIFKEQ_clean_linker_1
_symmetry_space_group_name_H-M    P1
_symmetry_Int_Tables_number       1
_symmetry_cell_setting            triclinic
loop_
_symmetry_equiv_pos_as_xyz
'x, y, z'
_cell_length_a     25.262517
_cell_length_b     24.898352
_cell_length_c     24.680447
_cell_angle_alpha  86.019509
_cell_angle_beta   86.758285
_cell_angle_gamma 93.363015
loop_
_atom_site_label
_atom_site_type_symbol
_atom_site_fract_x
_atom_site_fract_y
_atom_site_fract_z
_atom_type_partial_charge
Cu0 Cu 0.06433 0.52356 0.49176 0.0
N1 N 0.10258 0.49056 0.43769 0.0
N2 N 0.11804 0.43417 0.3728 0.0
C3 C 0.09197 0.44091 0.42087 0.0
C4 C 0.14672 0.48109 0.35927 0.0
C5 C 0.13705 0.51577 0.39931 0.0
O6 O 0.0359 0.47123 0.5494 0.0
C7 C 0.99639 0.56252 0.41147 0.0
O8 O 1.00163 0.51602 0.3903 0.0
H9 H 0.06216 0.41212 0.44073 0.0
H10 H 0.15086 0.55779 0.39833 0.0
N11 N 0.10749 0.57066 0.5275 0.0
N12 N 0.12549 0.63011 0.58858 0.0
C13 C 0.0883 0.5966 0.5695 0.0
C14 C 0.15896 0.5881 0.51937 0.0
C15 C 0.17016 0.6252 0.55704 0.0
C16 C 1.00299 0.43067 0.54917 0.0
O17 O 0.97899 0.42103 0.50469 0.0
H18 H 0.04713 0.59189 0.58473 0.0
H19 H 0.18625 0.5752 0.48825 0.0
O20 O 1.01434 0.56962 0.45774 0.0
H21 H 0.17061 0.49071 0.32166 0.0
H22 H 0.2081 0.64666 0.56098 0.0
Cu23 Cu 0.52881 0.06425 0.49141 0.0
N24 N 0.57882 0.10421 0.5279 0.0
N25 N 0.64422 0.11788 0.58373 0.0
C26 C 0.61605 0.08143 0.55715 0.0
C27 C 0.62392 0.1657 0.57049 0.0
C28 C 0.58362 0.15717 0.53589 0.0
O29 O 0.56967 0.02045 0.44396 0.0
C30 C 0.45929 0.05741 0.57919 0.0
O31 O 0.47242 0.10933 0.57181 0.0
H32 H 0.62063 0.03839 0.56075 0.0
H33 H 0.55839 0.18711 0.51952 0.0
N34 N 0.48676 0.10589 0.44704 0.0
N35 N 0.42442 0.1206 0.38805 0.0
C36 C 0.44231 0.08583 0.42606 0.0
C37 C 0.49692 0.1555 0.42188 0.0
C38 C 0.45867 0.16447 0.38504 0.0
C39 C 0.59831 0.04916 0.40739 0.0
O40 O 0.59767 0.10188 0.40655 0.0
H41 H 0.42566 0.04498 0.43563 0.0
H42 H 0.53148 0.18186 0.4272 0.0
O43 O 0.48003 0.0258 0.54672 0.0
H44 H 0.63666 0.20394 0.58537 0.0
H45 H 0.45734 0.19947 0.35667 0.0
Cu46 Cu 0.52267 0.51228 0.0338 0.0
N47 N 0.47236 0.5469 0.07521 0.0
N48 N 0.40762 0.60241 0.09098 0.0
C49 C 0.43957 0.58184 0.05305 0.0
C50 C 0.42079 0.57934 0.13911 0.0
C51 C 0.46057 0.54477 0.12922 0.0
O52 O 0.48071 0.46209 0.99327 0.0
C53 C 0.58596 0.60536 0.02216 0.0
O54 O 0.56958 0.60295 0.07377 0.0
H55 H 0.44003 0.59273 0.00979 0.0
H56 H 0.47943 0.51999 0.15925 0.0
N57 N 0.56869 0.47161 0.0743 0.0
N58 N 0.63192 0.41363 0.08817 0.0
C59 C 0.59662 0.43255 0.05363 0.0
C60 C 0.58696 0.47802 0.12375 0.0
C61 C 0.62588 0.44216 0.1325 0.0
C62 C 0.45849 0.42265 0.02376 0.0
O63 O 0.46723 0.4197 0.07582 0.0
H64 H 0.59276 0.42024 0.01277 0.0
H65 H 0.57451 0.50798 0.15063 0.0
O66 O 0.56903 0.56849 0.99282 0.0
H67 H 0.4026 0.58646 0.17852 0.0
H68 H 0.64853 0.43818 0.16833 0.0
C69 C 1.02872 0.14916 0.85979 0.0
C70 C 0.03728 0.14052 0.12315 0.0
C71 C 0.03721 0.88918 0.87021 0.0
C72 C 1.00584 0.87811 0.13371 0.0
C73 C 0.14554 0.88444 0.01506 0.0
C74 C 0.16187 0.14603 0.98171 0.0
C75 C 0.89025 0.88432 0.98955 0.0
C76 C 0.90381 0.14365 0.00707 0.0
C77 C 0.88856 1.00196 0.12892 0.0
C78 C 0.14623 0.02439 0.12796 0.0
C79 C 0.90548 0.0278 0.86514 0.0
C80 C 0.16129 1.01211 0.86634 0.0
Eu81 Eu 0.0312 0.11683 0.99279 0.0
O82 O 0.07079 0.05996 0.04301 0.0
O83 O 0.98445 0.06359 0.94715 0.0
Eu84 Eu 0.12501 1.01505 0.99741 0.0
Eu85 Eu 0.92584 1.0142 0.99713 0.0
O86 O 0.07849 0.06499 0.94606 0.0
O87 O 0.97853 0.06074 0.04418 0.0
Eu88 Eu 0.0316 0.0182 0.89385 0.0
Eu89 Eu 1.0192 1.01064 0.10115 0.0
O90 O 0.07194 0.96889 0.95116 0.0
O91 O 0.06674 0.96475 0.04806 0.0
O92 O 0.97322 0.96466 0.04739 0.0
O93 O 0.9785 0.96779 0.95 0.0
Eu94 Eu 1.01959 0.91221 1.00091 0.0
O95 O 1.0264 0.16382 0.91097 0.0
O96 O 0.04193 0.15787 0.07059 0.0
O97 O 0.03275 0.87089 0.92258 0.0
O98 O 1.00675 0.86429 0.08235 0.0
O99 O 0.16431 0.93597 0.01187 0.0
O100 O 0.17431 0.09454 0.98611 0.0
O101 O 0.87759 0.93562 0.99038 0.0
O102 O 0.88535 0.09254 0.00453 0.0
O103 O 0.93776 1.00697 0.14608 0.0
O104 O 0.09554 1.01413 0.14617 0.0
O105 O 0.95588 0.02154 0.84846 0.0
O106 O 0.11274 0.01835 0.84882 0.0
O107 O 0.93923 0.86724 0.99366 0.0
O108 O 0.09483 0.86757 0.01069 0.0
O109 O 0.95517 0.16078 0.00338 0.0
O110 O 0.11242 0.16267 0.98292 0.0
O111 O 1.02524 0.08956 0.1429 0.0
O112 O 1.01112 0.92857 0.14912 0.0
O113 O 0.03402 0.09898 0.84526 0.0
O114 O 0.03462 0.94055 0.85157 0.0
O115 O 0.17339 1.00888 0.91838 0.0
O116 O 0.16449 0.02734 0.07598 0.0
O117 O 0.88709 0.02743 0.91701 0.0
O118 O 0.87637 1.00238 0.07694 0.0
H119 H 0.11243 0.44227 0.26377 0.0
H120 H 0.10014 0.328 0.40406 0.0
H121 H 0.09191 0.37022 0.20555 0.0
H122 H 0.08171 0.25457 0.34546 0.0
H123 H 0.99867 0.14397 0.22932 0.0
H124 H 1.01851 0.21422 0.29117 0.0
H125 H 0.12718 0.2971 0.16686 0.0
H126 H 0.1053 0.22896 0.105 0.0
C127 C 0.10643 0.40139 0.28197 0.0
C128 C 0.10848 0.39065 0.33835 0.0
C129 C 0.0947 0.35985 0.24858 0.0
C130 C 0.0856 0.30612 0.27047 0.0
C131 C 0.0878 0.29538 0.32707 0.0
C132 C 0.09873 0.33729 0.36067 0.0
C133 C 1.02661 0.17742 0.21542 0.0
C134 C 0.04964 0.18147 0.16204 0.0
C135 C 0.03834 0.21754 0.25093 0.0
C136 C 0.07406 0.26198 0.234 0.0
C137 C 0.09825 0.26465 0.18104 0.0
C138 C 0.08583 0.2253 0.14548 0.0
H139 H 0.66565 0.96691 0.41989 0.0
H140 H 0.60905 0.08208 0.30142 0.0
H141 H 0.73467 0.94399 0.35223 0.0
H142 H 0.67676 0.05943 0.23445 0.0
H143 H 0.7824 0.98998 0.11227 0.0
H144 H 0.70801 0.98719 0.17939 0.0
H145 H 0.81672 0.99778 0.30756 0.0
H146 H 0.8918 0.99997 0.24042 0.0
C147 C 0.66701 0.98599 0.37899 0.0
C148 C 0.63216 0.02606 0.36557 0.0
C149 C 0.7067 0.9734 0.34055 0.0
C150 C 0.7112 1.00001 0.28806 0.0
C151 C 0.6741 0.03772 0.2742 0.0
C152 C 0.63536 0.05083 0.31259 0.0
C153 C 0.79079 0.99126 0.15472 0.0
C154 C 0.84339 0.99618 0.17065 0.0
C155 C 0.74797 0.98954 0.19323 0.0
C156 C 0.75647 0.99262 0.24871 0.0
C157 C 0.80889 0.99486 0.26513 0.0
C158 C 0.85192 0.99669 0.2265 0.0
H159 H 1.0113 0.66931 0.43016 0.0
H160 H 0.95264 0.56351 0.31249 0.0
H161 H 1.00779 0.74637 0.36473 0.0
H162 H 0.94689 0.641 0.24763 0.0
H163 H 1.02091 0.77165 0.12328 0.0
H164 H 1.00927 0.69749 0.1926 0.0
H165 H 0.96012 0.80732 0.31122 0.0
H166 H 0.97358 0.88237 0.24163 0.0
C167 C 0.99616 0.66261 0.39083 0.0
C168 C 0.98289 0.61002 0.37636 0.0
C169 C 0.99403 0.70702 0.35319 0.0
C170 C 0.97803 0.70005 0.30031 0.0
C171 C 0.96091 0.64784 0.28738 0.0
C172 C 0.96364 0.60337 0.3248 0.0
C173 C 1.00737 0.78016 0.16404 0.0
C174 C 0.99829 0.83315 0.17678 0.0
C175 C 1.0002 0.73733 0.2039 0.0
C176 C 0.98317 0.74601 0.25768 0.0
C177 C 0.97375 0.79905 0.27044 0.0
C178 C 0.98143 0.84214 0.23051 0.0
H179 H 0.43081 0.1367 0.279 0.0
H180 H 0.32577 0.07673 0.416 0.0
H181 H 0.36372 0.11145 0.21704 0.0
H182 H 0.25616 0.05493 0.35478 0.0
H183 H 0.15717 0.97577 0.22961 0.0
H184 H 0.22444 0.99861 0.29307 0.0
H185 H 0.28684 0.13126 0.18027 0.0
H186 H 0.22268 0.10528 0.11603 0.0
C187 C 0.3926 0.11919 0.2957 0.0
C188 C 0.38312 0.10897 0.35205 0.0
C189 C 0.35375 0.10487 0.26029 0.0
C190 C 0.30367 0.08134 0.2804 0.0
C191 C 0.29422 0.07191 0.33725 0.0
C192 C 0.33379 0.0849 0.37255 0.0
C193 C 0.1857 1.0095 0.21864 0.0
C194 C 0.18539 0.03822 0.16775 0.0
C195 C 0.22408 0.02309 0.25514 0.0
C196 C 0.26196 0.06677 0.24213 0.0
C197 C 0.25999 0.09631 0.19155 0.0
C198 C 0.22281 0.08171 0.15464 0.0
H199 H 0.0555 0.61223 0.67575 0.0
H200 H 0.17626 0.72747 0.59972 0.0
H201 H 0.03451 0.67463 0.74422 0.0
H202 H 0.15646 0.78961 0.66964 0.0
H203 H 0.05865 0.90924 0.76028 0.0
H204 H 0.08321 0.84554 0.69431 0.0
H205 H 0.06996 0.71653 0.82161 0.0
H206 H 0.04437 0.77987 0.8877 0.0
C207 C 0.07778 0.65086 0.67384 0.0
C208 C 0.11716 0.66516 0.63193 0.0
C209 C 0.06612 0.68641 0.71346 0.0
C210 C 0.09358 0.73721 0.71223 0.0
C211 C 0.13408 0.75101 0.67124 0.0
C212 C 0.14588 0.71524 0.63158 0.0
C213 C 0.06049 0.86725 0.77434 0.0
C214 C 0.04913 0.84978 0.82946 0.0
C215 C 0.07521 0.83083 0.73648 0.0
C216 C 0.07885 0.77604 0.75274 0.0
C217 C 0.06709 0.75842 0.80769 0.0
C218 C 0.05245 0.79484 0.84561 0.0
H219 H 0.44733 0.10012 0.67588 0.0
H220 H 0.38253 0.97368 0.58327 0.0
H221 H 0.3762 0.08025 0.74598 0.0
H222 H 0.3101 0.95362 0.65423 0.0
H223 H 0.15679 1.00663 0.75558 0.0
H224 H 0.23137 1.00661 0.68794 0.0
H225 H 0.34089 1.00852 0.81592 0.0
H226 H 0.26717 1.00916 0.88334 0.0
C227 C 0.41817 0.06739 0.67101 0.0
C228 C 0.42035 0.03842 0.62422 0.0
C229 C 0.37751 0.05585 0.71131 0.0
C230 C 0.33752 1.01542 0.7056 0.0
C231 C 0.34036 0.98517 0.65949 0.0
C232 C 0.3819 0.99624 0.61925 0.0
C233 C 0.19674 1.00678 0.76938 0.0
C234 C 0.20583 1.00882 0.82498 0.0
C235 C 0.2394 1.00615 0.73061 0.0
C236 C 0.29194 1.00783 0.74666 0.0
C237 C 0.30084 1.00776 0.80231 0.0
C238 C 0.25841 1.00816 0.84096 0.0
H239 H 0.95344 0.32874 0.55931 0.0
H240 H 0.04215 0.44333 0.64842 0.0
H241 H 0.95522 0.26122 0.63598 0.0
H242 H 0.0451 0.37594 0.72381 0.0
H243 H 1.00848 0.25548 0.86888 0.0
H244 H 0.99464 0.32343 0.79614 0.0
H245 H 1.02094 0.20695 0.67719 0.0
H246 H 0.03358 0.13863 0.74972 0.0
C247 C 0.97278 0.33974 0.59537 0.0
C248 C 0.9979 0.39136 0.59749 0.0
C249 C 0.97426 0.3009 0.63912 0.0
C250 C 1.00074 0.31295 0.68596 0.0
C251 C 1.02393 0.36528 0.68875 0.0
C252 C 1.02249 0.40393 0.6452 0.0
C253 C 1.01152 0.24426 0.82725 0.0
C254 C 1.02257 0.19146 0.8154 0.0
C255 C 1.00357 0.28335 0.78546 0.0
C256 C 1.00656 0.27072 0.73071 0.0
C257 C 1.01745 0.21792 0.71888 0.0
C258 C 1.02531 0.17882 0.76062 0.0
H259 H 0.6669 0.1723 0.67189 0.0
H260 H 0.712 0.03758 0.58227 0.0
H261 H 0.73126 0.15016 0.73887 0.0
H262 H 0.7756 1.01474 0.64982 0.0
H263 H 0.9219 0.02673 0.75411 0.0
H264 H 0.86026 0.04983 0.68478 0.0
H265 H 0.74079 0.07696 0.81031 0.0
H266 H 0.80211 0.05438 0.87967 0.0
C267 C 0.69086 0.13827 0.66621 0.0
C268 C 0.68419 0.10663 0.62179 0.0
C269 C 0.72732 0.1252 0.70491 0.0
C270 C 0.7583 0.08047 0.69986 0.0
C271 C 0.75254 0.0496 0.65476 0.0
C272 C 0.71577 0.0624 0.61631 0.0
C273 C 0.88242 0.03732 0.76707 0.0
C274 C 0.86716 0.03857 0.8227 0.0
C275 C 0.84705 0.05044 0.72724 0.0
C276 C 0.79574 0.06554 0.74203 0.0
C277 C 0.7803 0.06627 0.79755 0.0
C278 C 0.81544 0.05281 0.83736 0.0
H279 H 0.38721 0.43422 0.94368 0.0
H280 H 0.44432 0.31835 0.06121 0.0
H281 H 0.31601 0.3677 0.92413 0.0
H282 H 0.37429 0.25266 0.04198 0.0
H283 H 0.26823 0.13004 0.97214 0.0
H284 H 0.34246 0.19673 0.97072 0.0
H285 H 0.23358 0.32365 0.9779 0.0
H286 H 0.15857 0.25678 0.9789 0.0
C287 C 0.38531 0.39424 0.96428 0.0
C288 C 0.42128 0.38136 0.00387 0.0
C289 C 0.34432 0.35641 0.95358 0.0
C290 C 0.33943 0.30488 0.98157 0.0
C291 C 0.37712 0.29162 0.01922 0.0
C292 C 0.41723 0.3294 0.0304 0.0
C293 C 0.25974 0.17211 0.97299 0.0
C294 C 0.20704 0.18771 0.97633 0.0
C295 C 0.30252 0.21042 0.97216 0.0
C296 C 0.294 0.26549 0.97458 0.0
C297 C 0.24151 0.28157 0.97552 0.0
C298 C 0.19849 0.24311 0.97649 0.0
H299 H 0.37789 0.67944 0.1569 0.0
H300 H 0.34873 0.61403 0.00317 0.0
H301 H 0.31368 0.74746 0.1389 0.0
H302 H 0.28505 0.68215 0.98493 0.0
H303 H 0.13318 0.77607 1.00158 0.0
H304 H 0.1956 0.70709 0.02124 0.0
H305 H 0.30713 0.82845 0.07281 0.0
H306 H 0.2449 0.89758 0.05332 0.0
C307 C 0.35751 0.67937 0.11948 0.0
C308 C 0.3685 0.64144 0.08142 0.0
C309 C 0.32113 0.71859 0.10893 0.0
C310 C 0.29439 0.72025 0.06041 0.0
C311 C 0.30474 0.68174 0.02281 0.0
C312 C 0.34155 0.64301 0.03305 0.0
C313 C 0.17099 0.78816 0.0171 0.0
C314 C 0.18395 0.84251 0.02574 0.0
C315 C 0.20685 0.7486 0.02813 0.0
C316 C 0.25625 0.7623 0.0487 0.0
C317 C 0.26917 0.81655 0.05751 0.0
C318 C 0.23361 0.85622 0.04587 0.0
H319 H 0.72733 0.40388 0.13269 0.0
H320 H 0.62424 0.33368 0.01922 0.0
H321 H 0.79289 0.33874 0.11271 0.0
H322 H 0.69047 0.27003 0.99775 0.0
H323 H 0.79525 0.12723 0.01689 0.0
H324 H 0.73002 0.19193 0.03752 0.0
H325 H 0.85561 0.31697 0.03997 0.0
H326 H 0.92134 0.25197 0.02033 0.0
C327 C 0.71847 0.3745 0.10366 0.0
C328 C 0.67036 0.37422 0.07758 0.0
C329 C 0.75642 0.33754 0.09166 0.0
C330 C 0.74715 0.29919 0.05342 0.0
C331 C 0.69884 0.29863 0.02775 0.0
C332 C 0.661 0.33559 0.03967 0.0
C333 C 0.80921 0.16851 0.02157 0.0
C334 C 0.86385 0.18414 0.01685 0.0
C335 C 0.77159 0.20577 0.03321 0.0
C336 C 0.78745 0.25974 0.0405 0.0
C337 C 0.842 0.27557 0.03536 0.0
C338 C 0.87971 0.23829 0.02363 0.0
H339 H 0.67185 0.60085 0.9489 0.0
H340 H 0.59189 0.70703 0.05268 0.0
H341 H 0.74663 0.66908 0.93171 0.0
H342 H 0.66549 0.77437 0.03593 0.0
H343 H 0.78672 0.90251 0.97134 0.0
H344 H 0.71267 0.83676 0.96657 0.0
H345 H 0.81753 0.70736 0.9893 0.0
H346 H 0.89254 0.77341 0.99341 0.0
C347 C 0.66965 0.63925 0.96674 0.0
C348 C 0.62608 0.64882 1.00195 0.0
C349 C 0.71262 0.67798 0.95751 0.0
C350 C 0.71212 0.72713 0.98261 0.0
C351 C 0.66709 0.73736 0.01544 0.0
C352 C 0.62487 0.69866 0.02517 0.0
C353 C 0.79443 0.86013 0.9751 0.0
C354 C 0.8458 0.84348 0.98365 0.0
C355 C 0.75175 0.82235 0.97228 0.0
C356 C 0.75902 0.76677 0.97796 0.0
C357 C 0.81065 0.7499 0.9843 0.0
C358 C 0.85358 0.78783 0.98715 0.0
loop_
_geom_bond_atom_site_label_1
_geom_bond_atom_site_label_2
_geom_bond_distance
_geom_bond_site_symmetry_2
_ccdc_geom_bond_type
Cu0 N1 1.999 . S
Cu0 O6 1.974 . S
Cu0 N11 1.985 . S
Cu0 O20 1.959 . S
N1 Cu0 1.999 . S
N1 C3 1.263 . S
N1 C5 1.389 . S
N2 C3 1.358 . S
N2 C4 1.400 . S
C3 N1 1.263 . S
C3 N2 1.358 . S
C3 H9 0.930 1_455 S
C4 N2 1.400 . S
C4 C5 1.351 . S
C4 H21 0.930 . S
C5 N1 1.389 . S
C5 C4 1.351 . S
C5 H10 0.930 . S
O6 Cu0 1.974 . S
O6 C16 1.282 1_455 S
C7 O8 1.261 . S
C7 O20 1.251 1_655 S
O8 C7 1.261 . S
H9 C3 0.930 1_655 S
H10 C5 0.930 . S
N11 Cu0 1.985 . S
N11 C13 1.335 . S
N11 C14 1.390 1_455 S
N12 C13 1.345 . S
N12 C15 1.336 1_455 S
C13 N11 1.335 . S
C13 N12 1.345 . S
C13 H18 0.930 . S
C14 N11 1.390 1_655 S
C14 C15 1.346 . S
C14 H19 0.930 . S
C15 N12 1.336 1_655 S
C15 C14 1.346 . S
C15 H22 0.929 . S
C16 O6 1.282 1_655 S
C16 O17 1.216 . S
O17 C16 1.216 . S
H18 C13 0.930 . S
H19 C14 0.930 . S
O20 Cu0 1.959 . S
O20 C7 1.251 1_455 S
H21 C4 0.930 . S
H22 C15 0.929 . S
Cu23 N24 1.999 . S
Cu23 O29 1.974 . S
Cu23 N34 1.985 . S
Cu23 O43 1.959 . S
N24 Cu23 1.999 . S
N24 C26 1.268 . S
N24 C28 1.389 . S
N25 C26 1.361 . S
N25 C27 1.400 . S
C26 N24 1.268 . S
C26 N25 1.361 . S
C26 H32 0.923 1_565 S
C27 N25 1.400 . S
C27 C28 1.351 . S
C27 H44 0.930 . S
C28 N24 1.389 . S
C28 C27 1.351 . S
C28 H33 0.930 . S
O29 Cu23 1.974 . S
O29 C39 1.282 1_565 S
C30 O31 1.261 . S
C30 O43 1.251 1_545 S
O31 C30 1.261 . S
H32 C26 0.923 1_545 S
H33 C28 0.930 . S
N34 Cu23 1.985 . S
N34 C36 1.335 . S
N34 C37 1.390 1_565 S
N35 C36 1.349 . S
N35 C38 1.331 1_565 S
C36 N34 1.335 . S
C36 N35 1.349 . S
C36 H41 0.930 . S
C37 N34 1.390 1_545 S
C37 C38 1.346 . S
C37 H42 0.930 . S
C38 N35 1.331 1_545 S
C38 C37 1.346 . S
C38 H45 0.929 . S
C39 O29 1.282 1_545 S
C39 O40 1.216 . S
O40 C39 1.216 . S
H41 C36 0.930 . S
H42 C37 0.930 . S
O43 Cu23 1.959 . S
O43 C30 1.251 1_565 S
H44 C27 0.930 . S
H45 C38 0.929 . S
Cu46 N47 1.999 . S
Cu46 O52 1.974 . S
Cu46 N57 1.985 . S
Cu46 O66 1.959 . S
N47 Cu46 1.999 . S
N47 C49 1.263 . S
N47 C51 1.389 . S
N48 C49 1.358 . S
N48 C50 1.400 . S
C49 N47 1.263 . S
C49 N48 1.358 . S
C49 H55 0.930 1_556 S
C50 N48 1.400 . S
C50 C51 1.351 . S
C50 H67 0.930 . S
C51 N47 1.389 . S
C51 C50 1.351 . S
C51 H56 0.930 . S
O52 Cu46 1.974 . S
O52 C62 1.282 1_556 S
C53 O54 1.261 . S
C53 O66 1.251 1_554 S
O54 C53 1.261 . S
H55 C49 0.930 1_554 S
H56 C51 0.930 . S
N57 Cu46 1.985 . S
N57 C59 1.335 . S
N57 C60 1.390 1_556 S
N58 C59 1.345 . S
N58 C61 1.336 1_556 S
C59 N57 1.335 . S
C59 N58 1.345 . S
C59 H64 0.930 . S
C60 N57 1.390 1_554 S
C60 C61 1.346 . S
C60 H65 0.930 . S
C61 N58 1.336 1_554 S
C61 C60 1.346 . S
C61 H68 0.929 . S
C62 O52 1.282 1_554 S
C62 O63 1.216 . S
O63 C62 1.216 . S
H64 C59 0.930 . S
H65 C60 0.930 . S
O66 Cu46 1.959 . S
O66 C53 1.251 1_556 S
H67 C50 0.930 . S
H68 C61 0.929 . S
C69 O95 1.283 . S
C69 O113 1.283 . S
C70 O96 1.283 . S
C70 O111 1.283 . S
C71 O97 1.283 . S
C71 O114 1.283 . S
C72 O98 1.283 . S
C72 O112 1.283 . S
C73 O99 1.283 1_554 S
C73 O108 1.283 . S
C74 O100 1.283 . S
C74 O110 1.283 . S
C75 O101 1.283 . S
C75 O107 1.283 . S
C76 O102 1.283 . S
C76 O109 1.283 1_554 S
C77 O103 1.283 . S
C77 O118 1.283 . S
C78 O104 1.283 . S
C78 O116 1.283 . S
C79 O105 1.283 . S
C79 O117 1.283 . S
C80 O106 1.283 . S
C80 O115 1.283 . S
Eu81 O82 2.370 1_556 S
Eu81 O83 2.370 1_455 S
Eu81 O86 2.370 . S
Eu81 O87 2.370 1_456 S
Eu81 O95 2.363 . S
Eu81 O96 2.363 1_556 S
Eu81 O109 2.363 1_455 S
Eu81 O110 2.363 . S
O82 Eu81 2.370 1_554 S
O82 Eu84 2.370 1_554 S
O82 Eu89 2.359 1_455 S
O83 Eu81 2.370 1_655 S
O83 Eu85 2.370 1_556 S
O83 Eu88 2.370 1_655 S
Eu84 O82 2.370 1_556 S
Eu84 O86 2.370 . S
Eu84 O90 2.370 1_545 S
Eu84 O91 2.370 1_546 S
Eu84 O99 2.363 1_545 S
Eu84 O100 2.363 . S
Eu84 O115 2.363 . S
Eu84 O116 2.363 1_556 S
Eu85 O83 2.370 1_554 S
Eu85 O87 2.370 . S
Eu85 O92 2.370 1_545 S
Eu85 O93 2.370 1_544 S
Eu85 O101 2.363 1_545 S
Eu85 O102 2.363 . S
Eu85 O117 2.363 1_554 S
Eu85 O118 2.363 . S
O86 Eu81 2.370 . S
O86 Eu84 2.370 . S
O86 Eu88 2.370 . S
O87 Eu81 2.370 1_654 S
O87 Eu85 2.370 . S
O87 Eu89 2.383 . S
Eu88 O83 2.370 1_455 S
Eu88 O86 2.370 . S
Eu88 O90 2.370 1_545 S
Eu88 O93 2.370 1_445 S
Eu88 O105 2.363 1_455 S
Eu88 O106 2.363 . S
Eu88 O113 2.363 . S
Eu88 O114 2.363 1_545 S
Eu89 O82 2.359 1_655 S
Eu89 O87 2.383 . S
Eu89 O91 2.358 1_645 S
Eu89 O92 2.382 1_545 S
Eu89 O103 2.383 . S
Eu89 O104 2.343 1_655 S
Eu89 O111 2.363 1_655 S
Eu89 O112 2.362 1_545 S
O90 Eu84 2.370 1_565 S
O90 Eu88 2.370 1_565 S
O90 Eu94 2.361 1_456 S
O91 Eu84 2.370 1_564 S
O91 Eu89 2.358 1_465 S
O91 Eu94 2.361 1_455 S
O92 Eu85 2.370 1_565 S
O92 Eu89 2.382 1_565 S
O92 Eu94 2.379 . S
O93 Eu85 2.370 1_566 S
O93 Eu88 2.370 1_665 S
O93 Eu94 2.380 1_556 S
Eu94 O90 2.361 1_654 S
Eu94 O91 2.361 1_655 S
Eu94 O92 2.379 . S
Eu94 O93 2.380 1_554 S
Eu94 O97 2.363 1_654 S
Eu94 O98 2.362 . S
Eu94 O107 2.379 . S
Eu94 O108 2.347 1_655 S
O95 C69 1.283 . S
O95 Eu81 2.363 . S
O96 C70 1.283 . S
O96 Eu81 2.363 1_554 S
O97 C71 1.283 . S
O97 Eu94 2.363 1_456 S
O98 C72 1.283 . S
O98 Eu94 2.362 . S
O99 C73 1.283 1_556 S
O99 Eu84 2.363 1_565 S
O100 C74 1.283 . S
O100 Eu84 2.363 . S
O101 C75 1.283 . S
O101 Eu85 2.363 1_565 S
O102 C76 1.283 . S
O102 Eu85 2.363 . S
O103 C77 1.283 . S
O103 Eu89 2.383 . S
O104 C78 1.283 . S
O104 Eu89 2.343 1_455 S
O105 C79 1.283 . S
O105 Eu88 2.363 1_655 S
O106 C80 1.283 . S
O106 Eu88 2.363 . S
O107 C75 1.283 . S
O107 Eu94 2.379 . S
O108 C73 1.283 . S
O108 Eu94 2.347 1_455 S
O109 C76 1.283 1_556 S
O109 Eu81 2.363 1_655 S
O110 C74 1.283 . S
O110 Eu81 2.363 . S
O111 C70 1.283 . S
O111 Eu89 2.363 1_455 S
O112 C72 1.283 . S
O112 Eu89 2.362 1_565 S
O113 C69 1.283 . S
O113 Eu88 2.363 . S
O114 C71 1.283 . S
O114 Eu88 2.363 1_565 S
O115 C80 1.283 . S
O115 Eu84 2.363 . S
O116 C78 1.283 . S
O116 Eu84 2.363 1_554 S
O117 C79 1.283 . S
O117 Eu85 2.363 1_556 S
O118 C77 1.283 . S
O118 Eu85 2.363 . S
H119 C127 0.950 . S
H120 C132 0.950 . S
H121 C129 0.950 . S
H122 C131 0.950 . S
H123 C133 0.950 . S
H124 C135 0.950 . S
H125 C137 0.950 . S
H126 C138 0.950 . S
C127 H119 0.950 . S
C127 C128 1.386 . S
C127 C129 1.391 . S
C128 C127 1.386 . S
C128 C132 1.393 . S
C129 H121 0.950 . S
C129 C127 1.391 . S
C129 C130 1.400 . S
C130 C129 1.400 . S
C130 C131 1.398 . S
C130 C136 1.491 . S
C131 H122 0.950 . S
C131 C130 1.398 . S
C131 C132 1.391 . S
C132 H120 0.950 . S
C132 C128 1.393 . S
C132 C131 1.391 . S
C133 H123 0.950 . S
C133 C134 1.389 . S
C133 C135 1.391 . S
C134 C133 1.389 . S
C134 C138 1.390 1_455 S
C135 H124 0.950 . S
C135 C133 1.391 . S
C135 C136 1.400 . S
C136 C130 1.491 . S
C136 C135 1.400 . S
C136 C137 1.398 1_455 S
C137 H125 0.950 . S
C137 C136 1.398 1_655 S
C137 C138 1.391 . S
C138 H126 0.950 . S
C138 C134 1.390 1_655 S
C138 C137 1.391 . S
H139 C147 0.950 . S
H140 C152 0.950 . S
H141 C149 0.950 . S
H142 C151 0.950 . S
H143 C153 0.950 . S
H144 C155 0.950 . S
H145 C157 0.950 . S
H146 C158 0.950 . S
C147 H139 0.950 . S
C147 C148 1.386 1_565 S
C147 C149 1.391 . S
C148 C147 1.386 1_545 S
C148 C152 1.393 . S
C149 H141 0.950 . S
C149 C147 1.391 . S
C149 C150 1.400 1_565 S
C150 C149 1.400 1_545 S
C150 C151 1.398 . S
C150 C156 1.491 . S
C151 H142 0.950 . S
C151 C150 1.398 . S
C151 C152 1.391 . S
C152 H140 0.950 . S
C152 C148 1.393 . S
C152 C151 1.391 . S
C153 H143 0.950 . S
C153 C154 1.386 . S
C153 C155 1.391 . S
C154 C153 1.386 . S
C154 C158 1.393 1_545 S
C155 H144 0.950 . S
C155 C153 1.391 . S
C155 C156 1.400 . S
C156 C150 1.491 . S
C156 C155 1.400 . S
C156 C157 1.398 1_545 S
C157 H145 0.950 . S
C157 C156 1.398 1_565 S
C157 C158 1.391 . S
C158 H146 0.950 . S
C158 C154 1.393 1_565 S
C158 C157 1.391 . S
H159 C167 0.950 . S
H160 C172 0.950 . S
H161 C169 0.950 . S
H162 C171 0.950 . S
H163 C173 0.950 . S
H164 C175 0.950 . S
H165 C177 0.950 . S
H166 C178 0.950 . S
C167 H159 0.950 . S
C167 C168 1.386 1_455 S
C167 C169 1.391 . S
C168 C167 1.386 1_655 S
C168 C172 1.393 . S
C169 H161 0.950 . S
C169 C167 1.391 . S
C169 C170 1.400 1_455 S
C170 C169 1.400 1_655 S
C170 C171 1.398 . S
C170 C176 1.491 . S
C171 H162 0.950 . S
C171 C170 1.398 . S
C171 C172 1.391 . S
C172 H160 0.950 . S
C172 C168 1.393 . S
C172 C171 1.391 . S
C173 H163 0.950 . S
C173 C174 1.386 . S
C173 C175 1.391 . S
C174 C173 1.386 . S
C174 C178 1.393 1_655 S
C175 H164 0.950 . S
C175 C173 1.391 . S
C175 C176 1.400 . S
C176 C170 1.491 . S
C176 C175 1.400 . S
C176 C177 1.398 1_655 S
C177 H165 0.950 . S
C177 C176 1.398 1_455 S
C177 C178 1.391 . S
C178 H166 0.950 . S
C178 C174 1.393 1_455 S
C178 C177 1.391 . S
H179 C187 0.950 1_545 S
H180 C192 0.950 . S
H181 C189 0.950 . S
H182 C191 0.950 . S
H183 C193 0.950 . S
H184 C195 0.950 1_565 S
H185 C197 0.950 . S
H186 C198 0.950 . S
C187 H179 0.950 1_565 S
C187 C188 1.386 . S
C187 C189 1.391 1_565 S
C188 C187 1.386 . S
C188 C192 1.393 . S
C189 H181 0.950 . S
C189 C187 1.391 1_545 S
C189 C190 1.400 . S
C190 C189 1.400 . S
C190 C191 1.398 1_545 S
C190 C196 1.491 . S
C191 H182 0.950 . S
C191 C190 1.398 1_565 S
C191 C192 1.391 . S
C192 H180 0.950 . S
C192 C188 1.393 . S
C192 C191 1.391 . S
C193 H183 0.950 . S
C193 C194 1.386 . S
C193 C195 1.391 . S
C194 C193 1.386 . S
C194 C198 1.393 . S
C195 H184 0.950 1_545 S
C195 C193 1.391 . S
C195 C196 1.400 . S
C196 C190 1.491 . S
C196 C195 1.400 . S
C196 C197 1.398 . S
C197 H185 0.950 . S
C197 C196 1.398 . S
C197 C198 1.391 . S
C198 H186 0.950 . S
C198 C194 1.393 . S
C198 C197 1.391 . S
H199 C207 0.950 . S
H200 C212 0.950 . S
H201 C209 0.950 . S
H202 C211 0.950 . S
H203 C213 0.950 . S
H204 C215 0.950 . S
H205 C217 0.950 . S
H206 C218 0.950 . S
C207 H199 0.950 . S
C207 C208 1.386 1_655 S
C207 C209 1.391 . S
C208 C207 1.386 1_455 S
C208 C212 1.393 . S
C209 H201 0.950 . S
C209 C207 1.391 . S
C209 C210 1.400 1_655 S
C210 C209 1.400 1_455 S
C210 C211 1.398 . S
C210 C216 1.491 . S
C211 H202 0.950 . S
C211 C210 1.398 . S
C211 C212 1.391 . S
C212 H200 0.950 . S
C212 C208 1.393 . S
C212 C211 1.391 . S
C213 H203 0.950 . S
C213 C214 1.386 . S
C213 C215 1.391 . S
C214 C213 1.386 . S
C214 C218 1.393 1_455 S
C215 H204 0.950 . S
C215 C213 1.391 . S
C215 C216 1.400 . S
C216 C210 1.491 . S
C216 C215 1.400 . S
C216 C217 1.398 1_455 S
C217 H205 0.950 . S
C217 C216 1.398 1_655 S
C217 C218 1.391 . S
C218 H206 0.950 . S
C218 C214 1.393 1_655 S
C218 C217 1.391 . S
H219 C227 0.950 . S
H220 C232 0.952 . S
H221 C229 0.950 . S
H222 C231 0.956 . S
H223 C233 0.950 . S
H224 C235 0.950 . S
H225 C237 0.950 . S
H226 C238 0.950 . S
C227 H219 0.950 . S
C227 C228 1.386 . S
C227 C229 1.391 . S
C228 C227 1.386 . S
C228 C232 1.391 1_545 S
C229 H221 0.950 . S
C229 C227 1.391 . S
C229 C230 1.400 . S
C230 C229 1.400 . S
C230 C231 1.392 1_545 S
C230 C236 1.491 . S
C231 H222 0.956 . S
C231 C230 1.392 1_565 S
C231 C232 1.391 . S
C232 H220 0.952 . S
C232 C228 1.391 1_565 S
C232 C231 1.391 . S
C233 H223 0.950 . S
C233 C234 1.386 1_565 S
C233 C235 1.391 . S
C234 C233 1.386 1_545 S
C234 C238 1.393 . S
C235 H224 0.950 . S
C235 C233 1.391 . S
C235 C236 1.400 1_565 S
C236 C230 1.491 . S
C236 C235 1.400 1_545 S
C236 C237 1.398 . S
C237 H225 0.950 . S
C237 C236 1.398 . S
C237 C238 1.391 . S
C238 H226 0.950 . S
C238 C234 1.393 . S
C238 C237 1.391 . S
H239 C247 0.950 . S
H240 C252 0.950 . S
H241 C249 0.950 . S
H242 C251 0.950 . S
H243 C253 0.950 . S
H244 C255 0.950 . S
H245 C257 0.950 . S
H246 C258 0.950 . S
C247 H239 0.950 . S
C247 C248 1.386 . S
C247 C249 1.391 . S
C248 C247 1.386 . S
C248 C252 1.393 1_655 S
C249 H241 0.950 . S
C249 C247 1.391 . S
C249 C250 1.400 . S
C250 C249 1.400 . S
C250 C251 1.398 1_655 S
C250 C256 1.491 1_655 S
C251 H242 0.950 . S
C251 C250 1.398 1_455 S
C251 C252 1.391 . S
C252 H240 0.950 . S
C252 C248 1.393 1_455 S
C252 C251 1.391 . S
C253 H243 0.950 . S
C253 C254 1.386 . S
C253 C255 1.391 . S
C254 C253 1.386 . S
C254 C258 1.393 1_455 S
C255 H244 0.950 . S
C255 C253 1.391 . S
C255 C256 1.400 . S
C256 C250 1.491 1_455 S
C256 C255 1.400 . S
C256 C257 1.398 1_455 S
C257 H245 0.950 . S
C257 C256 1.398 1_655 S
C257 C258 1.391 . S
C258 H246 0.950 . S
C258 C254 1.393 1_655 S
C258 C257 1.391 . S
H259 C267 0.950 . S
H260 C272 0.950 . S
H261 C269 0.950 . S
H262 C271 0.950 . S
H263 C273 0.950 . S
H264 C275 0.950 . S
H265 C277 0.950 . S
H266 C278 0.950 . S
C267 H259 0.950 . S
C267 C268 1.386 . S
C267 C269 1.391 . S
C268 C267 1.386 . S
C268 C272 1.393 1_565 S
C269 H261 0.950 . S
C269 C267 1.391 . S
C269 C270 1.396 1_565 S
C270 C269 1.396 1_545 S
C270 C271 1.401 . S
C270 C276 1.492 . S
C271 H262 0.950 . S
C271 C270 1.401 . S
C271 C272 1.391 . S
C272 H260 0.950 . S
C272 C268 1.393 1_545 S
C272 C271 1.391 . S
C273 H263 0.950 . S
C273 C274 1.386 . S
C273 C275 1.391 . S
C274 C273 1.386 . S
C274 C278 1.393 1_545 S
C275 H264 0.950 . S
C275 C273 1.391 . S
C275 C276 1.400 . S
C276 C270 1.492 . S
C276 C275 1.400 . S
C276 C277 1.398 1_545 S
C277 H265 0.950 . S
C277 C276 1.398 1_565 S
C277 C278 1.391 . S
C278 H266 0.950 . S
C278 C274 1.393 1_565 S
C278 C277 1.391 . S
H279 C287 0.950 . S
H280 C292 0.950 . S
H281 C289 0.950 . S
H282 C291 0.950 . S
H283 C293 0.950 . S
H284 C295 0.950 . S
H285 C297 0.950 . S
H286 C298 0.950 . S
C287 H279 0.950 . S
C287 C288 1.386 1_556 S
C287 C289 1.391 . S
C288 C287 1.386 1_554 S
C288 C292 1.393 . S
C289 H281 0.950 . S
C289 C287 1.391 . S
C289 C290 1.400 1_556 S
C290 C289 1.400 1_554 S
C290 C291 1.398 . S
C290 C296 1.491 . S
C291 H282 0.950 . S
C291 C290 1.398 . S
C291 C292 1.391 . S
C292 H280 0.950 . S
C292 C288 1.393 . S
C292 C291 1.391 . S
C293 H283 0.950 . S
C293 C294 1.386 1_554 S
C293 C295 1.391 . S
C294 C293 1.386 1_556 S
C294 C298 1.393 . S
C295 H284 0.950 . S
C295 C293 1.391 . S
C295 C296 1.400 . S
C296 C290 1.491 . S
C296 C295 1.400 . S
C296 C297 1.398 1_554 S
C297 H285 0.950 . S
C297 C296 1.398 1_556 S
C297 C298 1.391 . S
C298 H286 0.950 . S
C298 C294 1.393 . S
C298 C297 1.391 . S
H299 C307 0.950 . S
H300 C312 0.950 . S
H301 C309 0.950 . S
H302 C311 0.950 . S
H303 C313 0.950 . S
H304 C315 0.950 . S
H305 C317 0.950 . S
H306 C318 0.950 . S
C307 H299 0.950 . S
C307 C308 1.386 1_554 S
C307 C309 1.391 . S
C308 C307 1.386 1_556 S
C308 C312 1.393 . S
C309 H301 0.950 . S
C309 C307 1.391 . S
C309 C310 1.400 1_554 S
C310 C309 1.400 1_556 S
C310 C311 1.398 . S
C310 C316 1.491 . S
C311 H302 0.950 . S
C311 C310 1.398 . S
C311 C312 1.391 . S
C312 H300 0.950 . S
C312 C308 1.393 . S
C312 C311 1.391 . S
C313 H303 0.950 . S
C313 C314 1.370 1_556 S
C313 C315 1.391 . S
C314 C313 1.370 1_554 S
C314 C318 1.408 . S
C315 H304 0.950 . S
C315 C313 1.391 . S
C315 C316 1.400 . S
C316 C310 1.491 . S
C316 C315 1.400 . S
C316 C317 1.398 1_556 S
C317 H305 0.950 . S
C317 C316 1.398 1_554 S
C317 C318 1.391 . S
C318 H306 0.950 . S
C318 C314 1.408 . S
C318 C317 1.391 . S
H319 C327 0.950 . S
H320 C332 0.950 . S
H321 C329 0.950 . S
H322 C331 0.950 . S
H323 C333 0.950 . S
H324 C335 0.950 . S
H325 C337 0.950 . S
H326 C338 0.950 . S
C327 H319 0.950 . S
C327 C328 1.386 1_554 S
C327 C329 1.391 . S
C328 C327 1.386 1_556 S
C328 C332 1.393 . S
C329 H321 0.950 . S
C329 C327 1.391 . S
C329 C330 1.400 1_554 S
C330 C329 1.400 1_556 S
C330 C331 1.398 . S
C330 C336 1.491 . S
C331 H322 0.950 . S
C331 C330 1.398 . S
C331 C332 1.391 . S
C332 H320 0.950 . S
C332 C328 1.393 . S
C332 C331 1.391 . S
C333 H323 0.950 . S
C333 C334 1.386 . S
C333 C335 1.391 . S
C334 C333 1.386 . S
C334 C338 1.393 1_556 S
C335 H324 0.950 . S
C335 C333 1.391 . S
C335 C336 1.400 . S
C336 C330 1.491 . S
C336 C335 1.400 . S
C336 C337 1.398 1_556 S
C337 H325 0.950 . S
C337 C336 1.398 1_554 S
C337 C338 1.391 . S
C338 H326 0.950 . S
C338 C334 1.393 1_554 S
C338 C337 1.391 . S
H339 C347 0.950 . S
H340 C352 0.950 . S
H341 C349 0.950 . S
H342 C351 0.950 . S
H343 C353 0.950 . S
H344 C355 0.950 . S
H345 C357 0.950 . S
H346 C358 0.950 . S
C347 H339 0.950 . S
C347 C348 1.386 1_556 S
C347 C349 1.391 . S
C348 C347 1.386 1_554 S
C348 C352 1.393 . S
C349 H341 0.950 . S
C349 C347 1.391 . S
C349 C350 1.400 1_556 S
C350 C349 1.400 1_554 S
C350 C351 1.398 . S
C350 C356 1.491 . S
C351 H342 0.950 . S
C351 C350 1.398 . S
C351 C352 1.391 . S
C352 H340 0.950 . S
C352 C348 1.393 . S
C352 C351 1.391 . S
C353 H343 0.950 . S
C353 C354 1.386 . S
C353 C355 1.391 . S
C354 C353 1.386 . S
C354 C358 1.393 1_554 S
C355 H344 0.950 . S
C355 C353 1.391 . S
C355 C356 1.400 . S
C356 C350 1.491 . S
C356 C355 1.400 . S
C356 C357 1.398 1_554 S
C357 H345 0.950 . S
C357 C356 1.398 1_556 S
C357 C358 1.391 . S
C358 H346 0.950 . S
C358 C354 1.393 1_556 S
C358 C357 1.391 . S
C134 C70 1.247 . S
C128 N2 1.194 . S
C154 C77 1.617 . S
C148 C39 1.604 . S
C174 C72 1.469 . S
C168 C7 1.456 . S
C194 C78 1.385 . S
C188 N35 1.337 . S
C208 N12 1.155 . S
C214 C71 1.219 . S
C234 C80 1.648 . S
C228 C30 1.646 . S
C248 C16 1.432 . S
C254 C69 1.437 . S
C268 N25 1.368 . S
C274 C79 1.414 . S
C288 C62 1.784 . S
C294 C74 1.798 . S
C308 N48 1.520 . S
C314 C73 1.589 . S
C334 C76 1.561 1_556 S
C328 N58 1.483 . S
C354 C75 1.832 . S
C348 C53 1.818 . S
