# Generated by pormake.
# Topology myd, (4,6)-cn, num edge types: 1
# Building blocks:
#     Node 0, Type 0, BuildingBlock: NAWXER_clean_sbu_0, # of connection points: 4
#     Node 1, Type 0, BuildingBlock: NAWXER_clean_sbu_0, # of connection points: 4
#     Node 2, Type 0, BuildingBlock: NAWXER_clean_sbu_0, # of connection points: 4
#     Node 3, Type 0, BuildingBlock: NAWXER_clean_sbu_0, # of connection points: 4
#     Node 4, Type 0, BuildingBlock: NAWXER_clean_sbu_0, # of connection points: 4
#     Node 5, Type 0, BuildingBlock: NAWXER_clean_sbu_0, # of connection points: 4
#     Node 6, Type 0, BuildingBlock: NAWXER_clean_sbu_0, # of connection points: 4
#     Node 7, Type 0, BuildingBlock: NAWXER_clean_sbu_0, # of connection points: 4
#     Node 8, Type 0, BuildingBlock: NAWXER_clean_sbu_0, # of connection points: 4
#     Node 9, Type 0, BuildingBlock: NAWXER_clean_sbu_0, # of connection points: 4
#     Node 10, Type 0, BuildingBlock: NAWXER_clean_sbu_0, # of connection points: 4
#     Node 11, Type 0, BuildingBlock: NAWXER_clean_sbu_0, # of connection points: 4
#     Node 12, Type 1, BuildingBlock: FUNLAD_clean_sbu_0, # of connection points: 6
#     Node 13, Type 1, BuildingBlock: FUNLAD_clean_sbu_0, # of connection points: 6
#     Node 14, Type 1, BuildingBlock: FUNLAD_clean_sbu_0, # of connection points: 6
#     Node 15, Type 1, BuildingBlock: FUNLAD_clean_sbu_0, # of connection points: 6
#     Node 16, Type 1, BuildingBlock: FUNLAD_clean_sbu_0, # of connection points: 6
#     Node 17, Type 1, BuildingBlock: FUNLAD_clean_sbu_0, # of connection points: 6
#     Node 18, Type 1, BuildingBlock: FUNLAD_clean_sbu_0, # of connection points: 6
#     Node 19, Type 1, BuildingBlock: FUNLAD_clean_sbu_0, # of connection points: 6
#     Edge 20, Type (0, 1), BuildingBlock: AJUNOK_clean_linker_0, # of connection points: 2
#     Edge 21, Type (0, 1), BuildingBlock: AJUNOK_clean_linker_0, # of connection points: 2
#     Edge 22, Type (0, 1), BuildingBlock: AJUNOK_clean_linker_0, # of connection points: 2
#     Edge 23, Type (0, 1), BuildingBlock: AJUNOK_clean_linker_0, # of connection points: 2
#     Edge 24, Type (0, 1), BuildingBlock: AJUNOK_clean_linker_0, # of connection points: 2
#     Edge 25, Type (0, 1), BuildingBlock: AJUNOK_clean_linker_0, # of connection points: 2
#     Edge 26, Type (0, 1), BuildingBlock: AJUNOK_clean_linker_0, # of connection points: 2
#     Edge 27, Type (0, 1), BuildingBlock: AJUNOK_clean_linker_0, # of connection points: 2
#     Edge 28, Type (0, 1), BuildingBlock: AJUNOK_clean_linker_0, # of connection points: 2
#     Edge 29, Type (0, 1), BuildingBlock: AJUNOK_clean_linker_0, # of connection points: 2
#     Edge 30, Type (0, 1), BuildingBlock: AJUNOK_clean_linker_0, # of connection points: 2
#     Edge 31, Type (0, 1), BuildingBlock: AJUNOK_clean_linker_0, # of connection points: 2
#     Edge 32, Type (0, 1), BuildingBlock: AJUNOK_clean_linker_0, # of connection points: 2
#     Edge 33, Type (0, 1), BuildingBlock: AJUNOK_clean_linker_0, # of connection points: 2
#     Edge 34, Type (0, 1), BuildingBlock: AJUNOK_clean_linker_0, # of connection points: 2
#     Edge 35, Type (0, 1), BuildingBlock: AJUNOK_clean_linker_0, # of connection points: 2
#     Edge 36, Type (0, 1), BuildingBlock: AJUNOK_clean_linker_0, # of connection points: 2
#     Edge 37, Type (0, 1), BuildingBlock: AJUNOK_clean_linker_0, # of connection points: 2
#     Edge 38, Type (0, 1), BuildingBlock: AJUNOK_clean_linker_0, # of connection points: 2
#     Edge 39, Type (0, 1), BuildingBlock: AJUNOK_clean_linker_0, # of connection points: 2
#     Edge 40, Type (0, 1), BuildingBlock: AJUNOK_clean_linker_0, # of connection points: 2
#     Edge 41, Type (0, 1), BuildingBlock: AJUNOK_clean_linker_0, # of connection points: 2
#     Edge 42, Type (0, 1), BuildingBlock: AJUNOK_clean_linker_0, # of connection points: 2
#     Edge 43, Type (0, 1), BuildingBlock: AJUNOK_clean_linker_0, # of connection points: 2
#     Edge 44, Type (0, 1), BuildingBlock: AJUNOK_clean_linker_0, # of connection points: 2
#     Edge 45, Type (0, 1), BuildingBlock: AJUNOK_clean_linker_0, # of connection points: 2
#     Edge 46, Type (0, 1), BuildingBlock: AJUNOK_clean_linker_0, # of connection points: 2
#     Edge 47, Type (0, 1), BuildingBlock: AJUNOK_clean_linker_0, # of connection points: 2
#     Edge 48, Type (0, 1), BuildingBlock: AJUNOK_clean_linker_0, # of connection points: 2
#     Edge 49, Type (0, 1), BuildingBlock: AJUNOK_clean_linker_0, # of connection points: 2
#     Edge 50, Type (0, 1), BuildingBlock: AJUNOK_clean_linker_0, # of connection points: 2
#     Edge 51, Type (0, 1), BuildingBlock: AJUNOK_clean_linker_0, # of connection points: 2
#     Edge 52, Type (0, 1), BuildingBlock: AJUNOK_clean_linker_0, # of connection points: 2
#     Edge 53, Type (0, 1), BuildingBlock: AJUNOK_clean_linker_0, # of connection points: 2
#     Edge 54, Type (0, 1), BuildingBlock: AJUNOK_clean_linker_0, # of connection points: 2
#     Edge 55, Type (0, 1), BuildingBlock: AJUNOK_clean_linker_0, # of connection points: 2
#     Edge 56, Type (0, 1), BuildingBlock: AJUNOK_clean_linker_0, # of connection points: 2
#     Edge 57, Type (0, 1), BuildingBlock: AJUNOK_clean_linker_0, # of connection points: 2
#     Edge 58, Type (0, 1), BuildingBlock: AJUNOK_clean_linker_0, # of connection points: 2
#     Edge 59, Type (0, 1), BuildingBlock: AJUNOK_clean_linker_0, # of connection points: 2
#     Edge 60, Type (0, 1), BuildingBlock: AJUNOK_clean_linker_0, # of connection points: 2
#     Edge 61, Type (0, 1), BuildingBlock: AJUNOK_clean_linker_0, # of connection points: 2
#     Edge 62, Type (0, 1), BuildingBlock: AJUNOK_clean_linker_0, # of connection points: 2
#     Edge 63, Type (0, 1), BuildingBlock: AJUNOK_clean_linker_0, # of connection points: 2
#     Edge 64, Type (0, 1), BuildingBlock: AJUNOK_clean_linker_0, # of connection points: 2
#     Edge 65, Type (0, 1), BuildingBlock: AJUNOK_clean_linker_0, # of connection points: 2
#     Edge 66, Type (0, 1), BuildingBlock: AJUNOK_clean_linker_0, # of connection points: 2
#     Edge 67, Type (0, 1), BuildingBlock: AJUNOK_clean_linker_0, # of connection points: 2
# Relax obj value: 0.327
# Max RMSD: 0.254
# Mean RMSD: 0.152
data_MOF--net-myd--node1-NAWXER_clean_sbu_0--node2-FUNLAD_clean_sbu_0--edge1-AJUNOK_clean_linker_0
_symmetry_space_group_name_H-M    P1
_symmetry_Int_Tables_number       1
_symmetry_cell_setting            triclinic
loop_
_symmetry_equiv_pos_as_xyz
'x, y, z'
_cell_length_a     33.702538
_cell_length_b     33.143127
_cell_length_c     38.357708
_cell_angle_alpha  81.856732
_cell_angle_beta   81.326052
_cell_angle_gamma 87.063811
loop_
_atom_site_label
_atom_site_type_symbol
_atom_site_fract_x
_atom_site_fract_y
_atom_site_fract_z
_atom_type_partial_charge
C0 C 0.05579 0.22973 0.31935 0.0
C1 C 0.03798 0.32528 0.40784 0.0
O2 O 0.08489 0.24259 0.33216 0.0
Zn3 Zn 0.05053 0.2735 0.36615 0.0
O4 O 0.01963 0.23925 0.33113 0.0
Zn5 Zn 0.98555 0.27227 0.369 0.0
O6 O 0.9588 0.31024 0.33556 0.0
O7 O 0.02474 0.31583 0.32874 0.0
O8 O 1.00507 0.31244 0.40109 0.0
O9 O 0.07129 0.30996 0.39461 0.0
O10 O 0.02394 0.22294 0.3998 0.0
O11 O 0.95855 0.2259 0.3984 0.0
C12 C 0.99084 0.32653 0.31867 0.0
C13 C 0.98956 0.20674 0.4082 0.0
C14 C 0.07891 0.77994 0.2106 0.0
C15 C 0.04998 0.69543 0.1242 0.0
O16 O 0.10516 0.76237 0.18981 0.0
Zn17 Zn 0.06557 0.73726 0.16884 0.0
O18 O 0.04141 0.77566 0.21077 0.0
Zn19 Zn 1.00271 0.74664 0.18334 0.0
O20 O 0.975 0.7101 0.22371 0.0
O21 O 0.04002 0.6966 0.21507 0.0
O22 O 0.01765 0.70998 0.14081 0.0
O23 O 0.0836 0.70354 0.13216 0.0
O24 O 0.04144 0.79324 0.14286 0.0
O25 O 0.97679 0.79735 0.16311 0.0
C26 C 1.00545 0.68987 0.23363 0.0
C27 C 1.00793 0.81349 0.14438 0.0
C28 C 0.37575 1.0023 0.17615 0.0
C29 C 0.27724 1.00114 0.28746 0.0
O30 O 0.36524 0.97018 0.1974 0.0
Zn31 Zn 0.32784 0.9966 0.23317 0.0
O32 O 0.36198 0.03712 0.1838 0.0
Zn33 Zn 0.31974 0.06268 0.22176 0.0
O34 O 0.35142 0.09601 0.24574 0.0
O35 O 0.36468 0.03015 0.2587 0.0
O36 O 0.28386 0.03551 0.26821 0.0
O37 O 0.29496 0.96914 0.27677 0.0
O38 O 0.28338 1.01587 0.20043 0.0
O39 O 0.27936 0.08294 0.19011 0.0
C40 C 0.37004 0.06704 0.26284 0.0
C41 C 0.26817 0.04834 0.18483 0.0
C42 C 0.78431 0.5412 0.17061 0.0
C43 C 0.68699 0.54486 0.27754 0.0
O44 O 0.76957 0.50616 0.18277 0.0
Zn45 Zn 0.72652 0.48029 0.22687 0.0
O46 O 0.7746 0.57136 0.18756 0.0
Zn47 Zn 0.73577 0.5437 0.22378 0.0
O48 O 0.77174 0.50388 0.25609 0.0
O49 O 0.75649 0.44004 0.25431 0.0
O50 O 0.7052 0.57455 0.25819 0.0
O51 O 0.69209 0.5092 0.26812 0.0
O52 O 0.68713 0.46105 0.20336 0.0
O53 O 0.69342 0.52791 0.19246 0.0
C54 C 0.77636 0.46552 0.26583 0.0
C55 C 0.67824 0.49534 0.18659 0.0
C56 C 0.21799 0.38394 0.97958 0.0
C57 C 0.32465 0.27728 0.96107 0.0
O58 O 0.23361 0.3736 0.94966 0.0
Zn59 Zn 0.27334 0.33252 0.96678 0.0
O60 O 0.23195 0.36755 1.00777 0.0
Zn61 Zn 0.2756 0.32239 0.02382 0.0
O62 O 0.31722 0.35101 0.04134 0.0
O63 O 0.31821 0.36498 0.98332 0.0
O64 O 0.31393 0.28355 0.99328 0.0
O65 O 0.30853 0.29835 0.93609 0.0
O66 O 0.23505 0.28696 0.99633 0.0
O67 O 0.24053 0.28072 0.05336 0.0
C68 C 0.33335 0.36891 0.0113 0.0
C69 C 0.22495 0.26941 0.02811 0.0
C70 C 0.25472 0.77431 0.47418 0.0
C71 C 0.36431 0.67559 0.51016 0.0
O72 O 0.27987 0.75806 0.45136 0.0
Zn73 Zn 0.31103 0.72435 0.48669 0.0
O74 O 0.25815 0.76573 0.50711 0.0
Zn75 Zn 0.29067 0.72978 0.54326 0.0
O76 O 0.31513 0.77102 0.56384 0.0
O77 O 0.33804 0.7706 0.50669 0.0
O78 O 0.34018 0.68944 0.535 0.0
O79 O 0.35859 0.68646 0.47793 0.0
O80 O 0.26483 0.68517 0.51226 0.0
O81 O 0.24685 0.69564 0.56824 0.0
C82 C 0.33811 0.78529 0.53574 0.0
C83 C 0.24209 0.67743 0.54209 0.0
C84 C 0.71369 0.89191 0.48226 0.0
C85 C 0.81738 0.78219 0.45868 0.0
O86 O 0.72682 0.88095 0.45199 0.0
Zn87 Zn 0.76791 0.83927 0.46621 0.0
O88 O 0.73031 0.87612 0.50921 0.0
Zn89 Zn 0.77564 0.83118 0.52234 0.0
O90 O 0.82123 0.86001 0.53448 0.0
O91 O 0.81787 0.86957 0.47701 0.0
O92 O 0.81086 0.79086 0.4905 0.0
O93 O 0.7979 0.80161 0.43508 0.0
O94 O 0.73182 0.79519 0.49915 0.0
O95 O 0.74248 0.7893 0.55491 0.0
C96 C 0.83664 0.87383 0.50285 0.0
C97 C 0.72448 0.77773 0.53118 0.0
C98 C 0.48702 0.82692 0.83123 0.0
C99 C 0.50119 0.69994 0.91074 0.0
O100 O 0.45781 0.80645 0.84897 0.0
Zn101 Zn 0.49033 0.76841 0.87724 0.0
O102 O 0.52282 0.81754 0.83746 0.0
Zn103 Zn 0.55484 0.77351 0.86943 0.0
O104 O 0.58786 0.74883 0.83083 0.0
O105 O 0.52238 0.74132 0.83435 0.0
O106 O 0.53428 0.71838 0.90069 0.0
O107 O 0.46823 0.71861 0.90552 0.0
O108 O 0.51122 0.80813 0.90939 0.0
O109 O 0.5773 0.80813 0.89842 0.0
C110 C 0.55816 0.73562 0.81916 0.0
C111 C 0.54458 0.82208 0.91408 0.0
C112 C 0.52365 0.18855 0.74316 0.0
C113 C 0.53246 0.31243 0.65358 0.0
O114 O 0.49111 0.19717 0.72955 0.0
Zn115 Zn 0.4701 0.24166 0.6878 0.0
O116 O 0.55521 0.20765 0.72903 0.0
Zn117 Zn 0.53186 0.24476 0.69244 0.0
O118 O 0.48934 0.27573 0.72773 0.0
O119 O 0.42716 0.26808 0.71753 0.0
O120 O 0.56165 0.29177 0.66542 0.0
O121 O 0.49773 0.29667 0.65931 0.0
O122 O 0.45685 0.21065 0.65182 0.0
O123 O 0.52165 0.20637 0.65428 0.0
C124 C 0.45141 0.28227 0.73489 0.0
C125 C 0.49144 0.19628 0.64105 0.0
C126 C 0.77875 0.54796 0.68277 0.0
C127 C 0.88042 0.56092 0.75965 0.0
O128 O 0.78926 0.58156 0.69071 0.0
Zn129 Zn 0.82902 0.55735 0.72067 0.0
O130 O 0.79461 0.51441 0.69564 0.0
Zn131 Zn 0.83905 0.49206 0.7273 0.0
O132 O 0.8057 0.45935 0.76626 0.0
O133 O 0.79172 0.52527 0.765 0.0
O134 O 0.87552 0.52411 0.75474 0.0
O135 O 0.86038 0.58985 0.7442 0.0
O136 O 0.8709 0.53534 0.6799 0.0
O137 O 0.87565 0.46815 0.69022 0.0
C138 C 0.7855 0.48849 0.77958 0.0
C139 C 0.88501 0.50142 0.67029 0.0
C140 C 0.25026 1.00923 0.66963 0.0
C141 C 0.15427 1.00158 0.78055 0.0
O142 O 0.23418 0.9772 0.68728 0.0
Zn143 Zn 0.19909 1.00264 0.72365 0.0
O144 O 0.24042 0.04385 0.68013 0.0
Zn145 Zn 0.20089 0.06852 0.72151 0.0
O146 O 0.23892 0.09069 0.74767 0.0
O147 O 0.24039 0.02371 0.75155 0.0
O148 O 0.16329 0.03798 0.76654 0.0
O149 O 0.16713 0.97159 0.76413 0.0
O150 O 0.15779 0.03612 0.69455 0.0
O151 O 0.16428 0.10229 0.69408 0.0
C152 C 0.25295 0.05602 0.76012 0.0
C153 C 0.14735 0.07304 0.68451 0.0
C154 C 0.74413 0.18771 0.04393 0.0
C155 C 0.83168 0.30493 0.02387 0.0
O156 O 0.74754 0.21121 0.06684 0.0
Zn157 Zn 0.78715 0.24593 0.03614 0.0
O158 O 0.76578 0.19312 0.01327 0.0
Zn159 Zn 0.80895 0.23376 0.98248 0.0
O160 O 0.85726 0.19659 0.97614 0.0
O161 O 0.83871 0.20601 0.03189 0.0
O162 O 0.83404 0.28577 0.99683 0.0
O163 O 0.80779 0.29277 0.05193 0.0
O164 O 0.74988 0.27112 0.99769 0.0
O165 O 0.77633 0.25751 0.94441 0.0
C166 C 0.86286 0.1893 0.00865 0.0
C167 C 0.74755 0.27289 0.96451 0.0
C168 C 0.14729 0.03036 0.09657 0.0
N169 N 0.10122 0.03567 0.99838 0.0
C170 C 0.13831 0.04052 0.97885 0.0
C171 C 0.14605 0.02922 0.94455 0.0
C172 C 0.11522 1.01323 0.93016 0.0
C173 C 0.07748 1.00821 0.951 0.0
C174 C 0.07121 1.0193 0.98526 0.0
Zn175 Zn 0.08709 0.05465 0.04789 0.0
C176 C 0.0401 0.98572 0.09869 0.0
N177 N 0.05578 0.08743 0.15156 0.0
C178 C 0.09064 0.09836 0.16132 0.0
C179 C 0.01977 0.09384 0.17172 0.0
C180 C 0.01821 0.11276 0.20248 0.0
C181 C 0.05411 0.12414 0.21254 0.0
C182 C 0.0905 0.11606 0.1919 0.0
Zn183 Zn 0.06446 0.06748 0.10239 0.0
O184 O 0.1458 0.03478 0.06323 0.0
C185 C 0.11506 0.13372 0.05259 0.0
O186 O 0.11577 0.03662 0.11757 0.0
H187 H 0.99233 0.08586 0.16327 0.0
H188 H 0.1617 0.05381 0.98959 0.0
H189 H 0.11905 0.0955 0.14453 0.0
O190 O 0.11264 0.11163 0.02856 0.0
O191 O 0.09799 0.12214 0.084 0.0
H192 H 0.042 1.01539 1.0012 0.0
O193 O 1.01162 0.09814 0.08676 0.0
O194 O 0.02918 0.07909 0.03396 0.0
O195 O 0.03273 1.01219 0.12015 0.0
O196 O 0.06189 0.99566 0.06875 0.0
C197 C 1.00393 0.09705 0.05538 0.0
H198 H 0.17544 0.03409 0.929 0.0
H199 H 0.053 0.99603 0.94078 0.0
H200 H 0.98943 0.11939 0.21768 0.0
H201 H 0.11859 0.1257 0.19811 0.0
C202 C 0.9148 0.53311 0.06065 0.0
N203 N 0.97205 0.53843 0.95445 0.0
C204 C 0.9332 0.53812 0.94851 0.0
C205 C 0.92297 0.54983 0.91464 0.0
C206 C 0.95293 0.56106 0.88597 0.0
C207 C 0.99292 0.56108 0.89233 0.0
C208 C 1.00185 0.54998 0.92715 0.0
Zn209 Zn 0.98187 0.51401 1.00547 0.0
C210 C 0.0232 0.56774 0.0443 0.0
N211 N 0.99442 0.45891 0.11054 0.0
C212 C 0.96059 0.44091 0.12879 0.0
C213 C 0.02747 0.46141 0.12643 0.0
C214 C 0.02748 0.44444 0.1619 0.0
C215 C 0.99332 0.42445 0.18079 0.0
C216 C 0.95944 0.42335 0.164 0.0
Zn217 Zn 0.99108 0.48455 0.0597 0.0
O218 O 0.92419 0.5391 0.02707 0.0
C219 C 0.94556 0.43172 0.02398 0.0
O220 O 0.9379 0.51197 0.07943 0.0
H221 H 0.05373 0.47652 0.11163 0.0
H222 H 0.90992 0.52709 0.96973 0.0
H223 H 0.9342 0.44001 0.11608 0.0
O224 O 0.9526 0.46039 0.99835 0.0
O225 O 0.95964 0.43355 0.05251 0.0
H226 H 0.03265 0.5493 0.93209 0.0
O227 O 0.04586 0.45779 0.04044 0.0
O228 O 0.04142 0.4876 0.98606 0.0
O229 O 0.02095 0.5356 0.06675 0.0
O230 O 1.00926 0.56847 0.01502 0.0
C231 C 0.06131 0.46543 1.00797 0.0
H232 H 0.89197 0.54826 0.91059 0.0
H233 H 0.01691 0.56896 0.87062 0.0
H234 H 0.05401 0.44644 0.17429 0.0
H235 H 0.93267 0.40802 0.1776 0.0
C236 C 0.0371 0.03689 0.42401 0.0
N237 N 0.07039 0.94198 0.36071 0.0
C238 C 0.03604 0.9328 0.34927 0.0
C239 C 0.03822 0.9112 0.32017 0.0
C240 C 0.07603 0.90002 0.30284 0.0
C241 C 0.11065 0.91217 0.31357 0.0
C242 C 0.10719 0.93273 0.34292 0.0
Zn243 Zn 0.07187 0.95934 0.40949 0.0
C244 C 0.1497 0.99551 0.40495 0.0
N245 N 0.08848 0.98518 0.50979 0.0
C246 C 0.05545 1.00293 0.52736 0.0
C247 C 0.12535 0.98698 0.51968 0.0
C248 C 0.13024 1.00877 0.54725 0.0
C249 C 0.09688 0.0288 0.5647 0.0
C250 C 0.05897 0.02479 0.55517 0.0
Zn251 Zn 0.08235 0.96568 0.46281 0.0
O252 O 0.03481 1.01429 0.4001 0.0
C253 C 1.00354 0.92679 0.46389 0.0
O254 O 0.05676 0.02341 0.44903 0.0
H255 H 0.15122 0.97279 0.50538 0.0
H256 H 1.00715 0.93973 0.36404 0.0
H257 H 0.02652 1.00208 0.51864 0.0
O258 O 0.0198 0.92663 0.43177 0.0
O259 O 0.02235 0.94293 0.48463 0.0
H260 H 0.13435 0.93815 0.35293 0.0
O261 O 0.10876 0.90886 0.47688 0.0
O262 O 0.11127 0.90487 0.42015 0.0
O263 O 0.14308 0.98585 0.43861 0.0
O264 O 0.12178 0.9927 0.38709 0.0
C265 C 0.12165 0.89062 0.45023 0.0
H266 H 1.01096 0.90139 0.31257 0.0
H267 H 0.14015 0.90302 0.30112 0.0
H268 H 0.15983 1.01019 0.55472 0.0
H269 H 0.03257 0.03952 0.56831 0.0
C270 C 0.91905 0.63562 0.45171 0.0
N271 N 0.03882 0.59515 0.46955 0.0
C272 C 0.051 0.63437 0.46233 0.0
C273 C 0.08267 0.64643 0.47808 0.0
C274 C 0.10188 0.61775 0.50119 0.0
C275 C 0.08844 0.5778 0.50829 0.0
C276 C 0.0568 0.56717 0.49226 0.0
Zn277 Zn 0.98992 0.57448 0.45165 0.0
C278 C 0.9368 0.53406 0.51837 0.0
N279 N 0.88627 0.52511 0.42604 0.0
C280 C 0.86935 0.548 0.39954 0.0
C281 C 0.87921 0.48456 0.43503 0.0
C282 C 0.85818 0.46454 0.41419 0.0
C283 C 0.84431 0.48696 0.38448 0.0
C284 C 0.84807 0.52935 0.37827 0.0
Zn285 Zn 0.93344 0.54933 0.44198 0.0
O286 O 0.95592 0.63219 0.45645 0.0
C287 C 0.98643 0.59259 0.37529 0.0
O288 O 0.90163 0.60444 0.44651 0.0
H289 H 0.8929 0.46704 0.45631 0.0
H290 H 0.03597 0.65634 0.44471 0.0
H291 H 0.8755 0.58007 0.3927 0.0
O292 O 1.01013 0.59724 0.39726 0.0
O293 O 0.95449 0.5729 0.38673 0.0
H294 H 0.04616 0.53644 0.49866 0.0
O295 O 0.96473 0.49396 0.4373 0.0
O296 O 0.02212 0.51607 0.44549 0.0
O297 O 0.91314 0.52724 0.49707 0.0
O298 O 0.96884 0.55268 0.50573 0.0
C299 C 1.0013 0.48699 0.44056 0.0
H300 H 0.0924 0.67761 0.47196 0.0
H301 H 0.10209 0.55502 0.52634 0.0
H302 H 0.85541 0.43175 0.41958 0.0
H303 H 0.83723 0.54736 0.35556 0.0
C304 C 0.39545 1.00197 0.56935 0.0
N305 N 0.45775 0.02678 0.46404 0.0
C306 C 0.44118 0.06479 0.45629 0.0
C307 C 0.43069 0.07811 0.42226 0.0
C308 C 0.43621 0.05182 0.39592 0.0
C309 C 0.45452 1.01327 0.40457 0.0
C310 C 0.46535 1.00157 0.43852 0.0
Zn311 Zn 0.46788 1.0032 0.51594 0.0
C312 C 0.49413 0.06302 0.55828 0.0
N313 N 0.48654 0.94835 0.6203 0.0
C314 C 0.46013 0.91893 0.63545 0.0
C315 C 0.51078 0.96401 0.64004 0.0
C316 C 0.50834 0.95048 0.67652 0.0
C317 C 0.48149 0.91976 0.69265 0.0
C318 C 0.45805 0.90332 0.67121 0.0
Zn319 Zn 0.48188 0.97276 0.56888 0.0
O320 O 0.40582 1.01765 0.53713 0.0
C321 C 0.45044 0.91335 0.5312 0.0
O322 O 0.42152 0.9831 0.58649 0.0
H323 H 0.53119 0.98781 0.6278 0.0
H324 H 0.43529 0.08463 0.47669 0.0
H325 H 0.4396 0.90805 0.62015 0.0
O326 O 0.4479 0.94495 0.50847 0.0
O327 O 0.4678 0.91572 0.55784 0.0
H328 H 0.47879 0.97159 0.44475 0.0
O329 O 0.54245 0.9614 0.55115 0.0
O330 O 0.53175 0.98575 0.49682 0.0
O331 O 0.49493 0.03031 0.57981 0.0
O332 O 0.48505 0.06193 0.52728 0.0
C333 C 0.55571 0.96924 0.51816 0.0
H334 H 0.41807 0.10864 0.41691 0.0
H335 H 0.45935 0.99153 0.38567 0.0
H336 H 0.52708 0.9642 0.69192 0.0
H337 H 0.43824 0.8784 0.68166 0.0
C338 C 0.65579 0.53772 0.59659 0.0
N339 N 0.61264 0.546 0.49972 0.0
C340 C 0.64856 0.56001 0.48239 0.0
C341 C 0.6581 0.56031 0.44579 0.0
C342 C 0.63023 0.54649 0.42682 0.0
C343 C 0.59436 0.53007 0.44554 0.0
C344 C 0.58608 0.53016 0.4823 0.0
Zn345 Zn 0.59542 0.55844 0.55016 0.0
C346 C 0.5558 0.4853 0.59876 0.0
N347 N 0.56027 0.58835 0.65412 0.0
C348 C 0.59447 0.60044 0.66427 0.0
C349 C 0.52372 0.59511 0.67332 0.0
C350 C 0.52094 0.61581 0.70322 0.0
C351 C 0.55616 0.62918 0.71313 0.0
C352 C 0.5931 0.62017 0.69381 0.0
Zn353 Zn 0.57093 0.57027 0.6041 0.0
O354 O 0.65433 0.54323 0.56343 0.0
C355 C 0.61648 0.64047 0.55718 0.0
O356 O 0.62422 0.5424 0.61804 0.0
H357 H 0.49676 0.58646 0.66447 0.0
H358 H 0.66912 0.57277 0.49665 0.0
H359 H 0.6233 0.59795 0.64812 0.0
O360 O 0.61489 0.61829 0.53317 0.0
O361 O 0.60024 0.62789 0.58854 0.0
H362 H 0.55763 0.51938 0.49663 0.0
O363 O 0.51597 0.59728 0.58871 0.0
O364 O 0.53655 0.57682 0.5369 0.0
O365 O 0.54421 0.51184 0.61961 0.0
O366 O 0.5773 0.49636 0.56886 0.0
C367 C 0.50959 0.59402 0.55727 0.0
H368 H 0.68664 0.57203 0.43235 0.0
H369 H 0.57236 0.51876 0.43174 0.0
H370 H 0.49173 0.62248 0.71766 0.0
H371 H 0.62078 0.63088 0.69995 0.0
C372 C 0.53807 0.52596 0.91906 0.0
N373 N 0.53301 0.42834 0.85903 0.0
C374 C 0.4939 0.44032 0.85751 0.0
C375 C 0.47066 0.42075 0.83814 0.0
C376 C 0.48802 0.3886 0.8206 0.0
C377 C 0.5292 0.37927 0.81996 0.0
C378 C 0.55137 0.39977 0.83942 0.0
Zn379 Zn 0.55842 0.44257 0.90052 0.0
C380 C 0.64019 0.46885 0.88222 0.0
N381 N 0.59951 0.46295 0.99401 0.0
C382 C 0.57235 0.48104 0.01746 0.0
C383 C 0.63771 0.4534 1.00028 0.0
C384 C 0.64965 0.46158 0.03171 0.0
C385 C 0.62168 0.47921 0.05646 0.0
C386 C 0.58282 0.4892 0.04926 0.0
Zn387 Zn 0.57964 0.44963 0.95052 0.0
O388 O 0.53152 0.50505 0.89511 0.0
C389 C 0.4965 0.42099 0.96619 0.0
O390 O 0.55724 0.50905 0.94327 0.0
H391 H 0.65862 0.43904 0.98116 0.0
H392 H 0.47968 0.46265 0.87372 0.0
H393 H 0.54229 0.48888 0.0117 0.0
O394 O 0.50513 0.42188 0.93285 0.0
O395 O 0.52317 0.43058 0.98335 0.0
H396 H 0.58241 0.39073 0.84093 0.0
O397 O 0.60392 0.39118 0.95902 0.0
O398 O 0.58993 0.38159 0.90691 0.0
O399 O 0.6363 0.46752 0.91608 0.0
O400 O 0.61019 0.46209 0.86774 0.0
C401 C 0.60728 0.36944 0.93413 0.0
H402 H 0.439 0.42871 0.83886 0.0
H403 H 0.54351 0.3549 0.80606 0.0
H404 H 0.67998 0.45366 0.03698 0.0
H405 H 0.56091 0.50312 0.06801 0.0
C406 C 0.42949 0.13325 0.9603 0.0
N407 N 0.54553 0.09062 0.98337 0.0
C408 C 0.55643 0.13024 0.97787 0.0
C409 C 0.58663 0.14242 0.9951 0.0
C410 C 0.60586 0.11343 0.01777 0.0
C411 C 0.59425 0.07289 0.02291 0.0
C412 C 0.5635 0.06218 1.00572 0.0
Zn413 Zn 0.49852 0.07211 0.96194 0.0
C414 C 0.4399 0.03071 0.02567 0.0
N415 N 0.39785 0.0292 0.92669 0.0
C416 C 0.35989 0.04472 0.9347 0.0
C417 C 0.40924 1.01181 0.89655 0.0
C418 C 0.38346 1.01305 0.87146 0.0
C419 C 0.3454 0.03197 0.87756 0.0
C420 C 0.33298 0.04677 0.91007 0.0
Zn421 Zn 0.44414 0.04693 0.94853 0.0
O422 O 0.46579 0.13107 0.9664 0.0
C423 C 0.50253 0.09156 0.88508 0.0
O424 O 0.41444 0.10208 0.95273 0.0
H425 H 0.43978 1.00065 0.8901 0.0
H426 H 0.54164 0.15242 0.96024 0.0
H427 H 0.35155 0.05847 0.95876 0.0
O428 O 0.52385 0.09618 0.90885 0.0
O429 O 0.47044 0.07166 0.89459 0.0
H430 H 0.55379 0.03106 0.01054 0.0
O431 O 0.47287 0.9906 0.94487 0.0
O432 O 0.52936 1.01223 0.95602 0.0
O433 O 0.41842 0.02413 1.00248 0.0
O434 O 0.47259 0.04912 0.01505 0.0
C435 C 0.50903 0.98339 0.94957 0.0
H436 H 0.59556 0.17391 0.99016 0.0
H437 H 0.60885 0.0498 0.03999 0.0
H438 H 0.39425 1.00179 0.84645 0.0
H439 H 0.30357 0.0612 0.91565 0.0
C440 C 0.98119 0.1366 0.39511 0.0
C441 C 0.98999 0.16224 0.41913 0.0
C442 C 0.99528 0.09566 0.39726 0.0
C443 C 0.01853 0.0789 0.42365 0.0
H444 H 0.96614 0.14914 0.37275 0.0
H445 H 0.98937 0.07765 0.37725 0.0
S446 S 0.04616 0.13306 0.49505 0.0
N447 N 0.02079 0.16765 0.47119 0.0
N448 N 0.04647 0.09115 0.47637 0.0
C449 C 0.02512 0.10387 0.44923 0.0
C450 C 1.01107 0.14538 0.44669 0.0
C451 C 0.06221 0.3951 0.41057 0.0
C452 C 0.03596 0.36307 0.42481 0.0
C453 C 0.05299 0.43533 0.41804 0.0
C454 C 0.01729 0.44453 0.43996 0.0
H455 H 0.08813 0.38983 0.39115 0.0
H456 H 0.07215 0.45967 0.4044 0.0
S457 S 0.94315 0.37034 0.48944 0.0
N458 N 0.97618 0.34254 0.46598 0.0
N459 N 0.95914 0.41744 0.48018 0.0
C460 C 0.99313 0.41206 0.45705 0.0
C461 C 1.00241 0.37148 0.44946 0.0
C462 C 0.03438 0.87091 0.09838 0.0
C463 C 1.00867 0.85773 0.12992 0.0
C464 C 0.04267 0.91239 0.08784 0.0
C465 C 0.02644 0.94268 0.10882 0.0
H466 H 0.0494 0.84876 0.08225 0.0
H467 H 0.06346 0.92043 0.0637 0.0
S468 S 0.95691 0.92421 0.19394 0.0
N469 N 0.96617 0.87842 0.18173 0.0
N470 N 0.98223 0.95615 0.16244 0.0
C471 C 0.99972 0.93 0.14 0.0
C472 C 0.99073 0.88769 0.15039 0.0
C473 C 0.01451 0.66869 0.07949 0.0
C474 C 0.04774 0.6668 0.09806 0.0
C475 C 1.00895 0.6385 0.05848 0.0
C476 C 0.03603 0.60499 0.05591 0.0
H477 H 0.99183 0.69285 0.08227 0.0
H478 H 0.98171 0.63975 0.04649 0.0
S479 S 0.12901 0.58676 0.09715 0.0
N480 N 0.10961 0.62991 0.11015 0.0
N481 N 0.09817 0.57267 0.07182 0.0
C482 C 0.07028 0.60375 0.07284 0.0
C483 C 0.07643 0.63481 0.09359 0.0
C484 C 0.38132 0.98324 0.11455 0.0
C485 C 0.39828 1.00112 0.13987 0.0
C486 C 0.39532 0.99207 0.07775 0.0
C487 C 0.42707 1.01887 0.06486 0.0
H488 H 0.35535 0.96441 0.12304 0.0
H489 H 0.3804 0.97869 0.05925 0.0
S490 S 0.48307 0.07158 0.12093 0.0
N491 N 0.44916 0.04551 0.14976 0.0
N492 N 0.47636 0.06132 0.0814 0.0
C493 C 0.44544 0.03529 0.09032 0.0
C494 C 0.43079 0.02668 0.12754 0.0
C495 C 0.63081 0.46657 0.15379 0.0
C496 C 0.6584 0.49648 0.15508 0.0
C497 C 0.61779 0.46207 0.12171 0.0
C498 C 0.63279 0.48675 0.09015 0.0
H499 H 0.62033 0.44572 0.17741 0.0
H500 H 0.59717 0.43818 0.12124 0.0
S501 S 0.7042 0.57014 0.07934 0.0
N502 N 0.69885 0.55234 0.12216 0.0
N503 N 0.67484 0.54275 0.06174 0.0
C504 C 0.65924 0.5175 0.09115 0.0
C505 C 0.67189 0.52273 0.12379 0.0
C506 C 0.42837 0.05402 0.29684 0.0
C507 C 0.39082 0.07336 0.29317 0.0
C508 C 0.44384 0.04961 0.32936 0.0
C509 C 0.42185 0.06308 0.3602 0.0
H510 H 0.44523 0.04062 0.27474 0.0
H511 H 0.47274 0.03406 0.33058 0.0
S512 S 0.32107 0.11511 0.36455 0.0
N513 N 0.33232 0.10702 0.32267 0.0
N514 N 0.35991 0.09699 0.38413 0.0
C515 C 0.38462 0.08366 0.35643 0.0
C516 C 0.36946 0.08908 0.32295 0.0
C517 C 0.64856 0.51425 0.335 0.0
C518 C 0.6655 0.54904 0.31353 0.0
C519 C 0.63559 0.51421 0.37138 0.0
C520 C 0.639 0.54893 0.38766 0.0
H521 H 0.64709 0.48603 0.32412 0.0
H522 H 0.62472 0.48615 0.38716 0.0
S523 S 0.67458 0.64988 0.34272 0.0
N524 N 0.68041 0.62066 0.31072 0.0
N525 N 0.6554 0.62056 0.37919 0.0
C526 C 0.65301 0.58481 0.3662 0.0
C527 C 0.66628 0.58491 0.32909 0.0
C528 C 0.15365 0.41457 0.95857 0.0
C529 C 0.18109 0.41105 0.98339 0.0
C530 C 0.11544 0.43401 0.96546 0.0
C531 C 0.10329 0.45032 0.99751 0.0
H532 H 0.16089 0.40047 0.93451 0.0
H533 H 0.09463 0.43444 0.94646 0.0
S534 S 0.16617 0.45549 0.06827 0.0
N535 N 0.1948 0.43045 0.03914 0.0
N536 N 0.12367 0.46621 0.052 0.0
C537 C 0.13144 0.44932 0.02127 0.0
C538 C 0.1701 0.42993 0.01425 0.0
C539 C 0.16785 0.67471 0.54886 0.0
C540 C 0.20558 0.65499 0.54172 0.0
C541 C 0.13401 0.66198 0.53641 0.0
C542 C 0.13677 0.62877 0.51693 0.0
H543 H 0.16514 0.70215 0.56152 0.0
H544 H 0.10584 0.67899 0.54105 0.0
S545 S 0.22811 0.56517 0.49372 0.0
N546 N 0.24322 0.59947 0.51575 0.0
N547 N 0.17967 0.57497 0.49306 0.0
C548 C 0.17377 0.60731 0.51164 0.0
C549 C 0.20815 0.62054 0.52391 0.0
C550 C 0.89856 0.9058 0.51742 0.0
C551 C 0.87928 0.88719 0.49394 0.0
C552 C 0.93899 0.91782 0.50817 0.0
C553 C 0.96195 0.91092 0.4754 0.0
H554 H 0.88213 0.91181 0.54277 0.0
H555 H 0.95209 0.93317 0.5266 0.0
S556 S 0.9272 0.85808 0.40665 0.0
N557 N 0.88772 0.85967 0.43758 0.0
N558 N 0.9628 0.88064 0.42107 0.0
C559 C 0.94335 0.89066 0.45256 0.0
C560 C 0.90238 0.87925 0.46158 0.0
C561 C 0.40455 0.64229 0.55692 0.0
C562 C 0.40025 0.65069 0.52046 0.0
C563 C 0.43942 0.62342 0.56838 0.0
C564 C 0.47183 0.61145 0.54408 0.0
H565 H 0.38109 0.6513 0.57715 0.0
H566 H 0.44107 0.61868 0.59666 0.0
S567 S 0.47571 0.62388 0.4457 0.0
N568 N 0.43138 0.64386 0.46011 0.0
N569 N 0.49677 0.60778 0.48155 0.0
C570 C 0.4676 0.61818 0.50755 0.0
C571 C 0.43197 0.63786 0.4958 0.0
C572 C 0.48416 0.62997 0.90089 0.0
C573 C 0.50379 0.65489 0.91948 0.0
C574 C 0.49496 0.58824 0.90074 0.0
C575 C 0.52549 0.56985 0.91951 0.0
H576 H 0.46204 0.64335 0.88455 0.0
H577 H 0.47982 0.5705 0.88537 0.0
S578 S 0.58461 0.62189 0.97378 0.0
N579 N 0.554 0.65798 0.95792 0.0
N580 N 0.57406 0.58026 0.95843 0.0
C581 C 0.54411 0.59439 0.93935 0.0
C582 C 0.53333 0.63664 0.93915 0.0
C583 C 0.50771 0.8692 0.95375 0.0
C584 C 0.54305 0.85977 0.93145 0.0
C585 C 0.49888 0.90886 0.96183 0.0
C586 C 0.52506 0.94095 0.94823 0.0
H587 H 0.48521 0.84639 0.96303 0.0
H588 H 0.47002 0.91496 0.9772 0.0
S589 S 0.62426 0.93174 0.89295 0.0
N590 N 0.60672 0.8852 0.89918 0.0
N591 N 0.58991 0.95988 0.91481 0.0
C592 C 0.56225 0.93141 0.9288 0.0
C593 C 0.57132 0.89076 0.92034 0.0
C594 C 0.57428 0.37019 0.61888 0.0
C595 C 0.53706 0.35606 0.63712 0.0
C596 C 0.57952 0.41175 0.60537 0.0
C597 C 0.54819 0.44116 0.61059 0.0
H598 H 0.59962 0.34902 0.61512 0.0
H599 H 0.60882 0.42116 0.5918 0.0
S600 S 0.44482 0.42057 0.65602 0.0
N601 N 0.46788 0.37528 0.65844 0.0
N602 N 0.47861 0.45317 0.63474 0.0
C603 C 0.51091 0.42755 0.62861 0.0
C604 C 0.50513 0.38513 0.64137 0.0
C605 C 0.46739 0.16391 0.59263 0.0
C606 C 0.49638 0.166 0.61526 0.0
C607 C 0.46899 0.13253 0.57116 0.0
C608 C 0.49924 0.10172 0.57203 0.0
H609 H 0.44253 0.18594 0.59233 0.0
H610 H 0.44485 0.1308 0.55575 0.0
S611 S 0.5836 0.09417 0.6247 0.0
N612 N 0.55779 0.13557 0.63512 0.0
N613 N 0.55991 0.07632 0.59571 0.0
C614 C 0.5293 0.10445 0.59323 0.0
C615 C 0.52814 0.13665 0.61456 0.0
C616 C 0.88839 0.48211 0.60921 0.0
C617 C 0.90519 0.50236 0.63315 0.0
C618 C 0.8991 0.49189 0.5721 0.0
C619 C 0.92736 0.52191 0.55763 0.0
H620 H 0.86489 0.46053 0.61914 0.0
H621 H 0.88443 0.47652 0.55466 0.0
S622 S 0.98194 0.58157 0.6095 0.0
N623 N 0.95246 0.5523 0.64002 0.0
N624 N 0.97361 0.56999 0.57083 0.0
C625 C 0.94582 0.54076 0.58157 0.0
C626 C 0.93445 0.5312 0.61914 0.0
C627 C 0.09017 0.05445 0.65796 0.0
C628 C 0.12354 0.07913 0.65515 0.0
C629 C 0.07921 0.04111 0.62781 0.0
C630 C 0.10158 0.05182 0.59406 0.0
H631 H 0.07542 0.04159 0.68396 0.0
H632 H 0.05565 1.01921 0.63145 0.0
S633 S 0.18575 0.12301 0.57177 0.0
N634 N 0.17435 0.11933 0.61551 0.0
N635 N 0.1537 0.0943 0.55865 0.0
C636 C 0.13172 0.08051 0.59041 0.0
C637 C 0.14254 0.09444 0.62108 0.0
C638 C 0.93649 0.53999 0.79505 0.0
C639 C 0.90518 0.56803 0.78701 0.0
C640 C 0.95468 0.54037 0.82563 0.0
C641 C 0.94178 0.56839 0.84956 0.0
H642 H 0.94565 0.51626 0.77851 0.0
H643 H 0.9769 0.51672 0.83191 0.0
S644 S 0.86366 0.65033 0.8395 0.0
N645 N 0.86455 0.62675 0.80422 0.0
N646 N 0.89819 0.62676 0.86199 0.0
C647 C 0.91234 0.59811 0.84078 0.0
C648 C 0.89423 0.59817 0.80938 0.0
C649 C 0.10606 0.02061 0.83195 0.0
C650 C 0.13824 0.99558 0.81888 0.0
C651 C 0.09747 0.02438 0.86836 0.0
C652 C 0.1216 1.00429 0.8928 0.0
H653 H 0.08863 0.03895 0.81364 0.0
H654 H 0.07321 0.04501 0.87712 0.0
S655 S 0.20865 0.9343 0.87233 0.0
N656 N 0.19326 0.94908 0.83348 0.0
N657 N 0.17775 0.95703 0.90172 0.0
C658 C 0.15296 0.97808 0.88029 0.0
C659 C 0.16109 0.97347 0.84338 0.0
C660 C 0.64779 0.9228 0.46432 0.0
C661 C 0.67647 0.91861 0.48807 0.0
C662 C 0.6095 0.94157 0.47291 0.0
C663 C 0.59832 0.95677 0.50564 0.0
H664 H 0.6541 0.90959 0.43974 0.0
H665 H 0.5878 0.94208 0.45469 0.0
S666 S 0.66432 0.95969 0.57449 0.0
N667 N 0.69214 0.93612 0.54385 0.0
N668 N 0.62095 0.97071 0.55982 0.0
C669 C 0.62768 0.95523 0.52839 0.0
C670 C 0.66645 0.93639 0.51967 0.0
C671 C 0.71353 0.12906 0.02582 0.0
C672 C 0.71045 0.1597 0.04817 0.0
C673 C 0.67931 0.1119 0.01822 0.0
C674 C 0.64087 0.1248 0.03271 0.0
H675 H 0.74244 0.12065 0.01175 0.0
H676 H 0.68285 0.09064 0.99887 0.0
S677 S 0.61651 0.19589 0.09969 0.0
N678 N 0.66598 0.19637 0.08992 0.0
N679 N 0.60143 0.16407 0.07521 0.0
C680 C 0.63734 0.15188 0.05808 0.0
C681 C 0.6723 0.16915 0.06615 0.0
C682 C 0.38373 0.41514 0.97414 0.0
C683 C 0.37284 0.38903 1.00609 0.0
C684 C 0.42347 0.42646 0.96269 0.0
C685 C 0.45437 0.41274 0.98278 0.0
H686 H 0.36169 0.42524 0.95667 0.0
H687 H 0.43026 0.44518 0.9371 0.0
S688 S 0.44172 0.34782 0.07044 0.0
N689 N 0.39603 0.35241 0.05926 0.0
N690 N 0.47097 0.37477 0.03787 0.0
C691 C 0.44371 0.38929 0.01613 0.0
C692 C 0.40291 0.37723 0.02777 0.0
C693 C 0.92933 0.15028 0.99587 0.0
C694 C 0.8974 0.16302 0.02052 0.0
C695 C 0.96314 0.12811 1.00719 0.0
C696 C 0.96662 0.11785 0.04366 0.0
H697 H 0.92867 0.15824 0.96758 0.0
H698 H 0.98721 0.11986 0.98714 0.0
S699 S 0.88981 0.1402 0.1192 0.0
N700 N 0.87058 0.16068 0.08345 0.0
N701 N 0.93364 0.11983 0.10426 0.0
C702 C 0.93434 0.12923 0.0685 0.0
C703 C 0.89997 0.15151 0.05708 0.0
C704 C 0.03758 0.2146 0.26295 0.0
C705 C 0.06117 0.20443 0.29045 0.0
C706 C 0.03431 0.18772 0.23867 0.0
C707 C 0.05435 0.14954 0.24113 0.0
H708 H 0.02067 0.24333 0.2607 0.0
H709 H 0.01639 0.19708 0.21756 0.0
S710 S 0.11766 0.10708 0.30949 0.0
N711 N 0.10344 0.15296 0.31972 0.0
N712 N 0.09779 0.10221 0.27353 0.0
C713 C 0.07815 0.1389 0.26841 0.0
C714 C 0.08149 0.16643 0.29321 0.0
C715 C 0.95986 0.38046 0.27726 0.0
C716 C 0.99143 0.3526 0.28417 0.0
C717 C 0.96114 0.40478 0.24402 0.0
C718 C 0.99382 0.40159 0.21673 0.0
H719 H 0.93429 0.38362 0.29761 0.0
H720 H 0.9363 0.42601 0.23953 0.0
S721 S 0.08172 0.32998 0.22046 0.0
N722 N 0.05513 0.32158 0.2604 0.0
N723 N 0.05677 0.36639 0.1981 0.0
C724 C 0.02512 0.37338 0.22328 0.0
C725 C 0.02407 0.34905 0.25695 0.0
C726 C 0.08389 0.79828 0.26937 0.0
C727 C 0.08941 0.80915 0.23233 0.0
C728 C 0.07968 0.82823 0.292 0.0
C729 C 0.08022 0.86976 0.27812 0.0
H730 H 0.08057 0.76659 0.28085 0.0
H731 H 0.07495 0.81896 0.32054 0.0
S732 S 0.094 0.91379 0.18312 0.0
N733 N 0.09549 0.86393 0.18267 0.0
N734 N 0.08798 0.92047 0.22552 0.0
C735 C 0.08701 0.88105 0.24121 0.0
C736 C 0.09146 0.85056 0.21816 0.0
C737 C 0.96501 0.64522 0.28423 0.0
C738 C 1.00207 0.66183 0.26821 0.0
C739 C 0.96078 0.62137 0.31801 0.0
C740 C 0.99323 0.61368 0.3377 0.0
H741 H 0.93885 0.65108 0.27077 0.0
H742 H 0.93135 0.61009 0.32929 0.0
S743 S 0.09697 0.64949 0.30768 0.0
N744 N 0.07225 0.66782 0.27458 0.0
N745 N 0.06403 0.62395 0.33793 0.0
C746 C 0.03061 0.62951 0.32172 0.0
C747 C 0.03509 0.65325 0.28711 0.0
C748 C 0.21682 1.00802 0.16509 0.0
C749 C 0.23939 0.04366 0.15974 0.0
C750 C 0.18985 1.00159 0.142 0.0
C751 C 0.18516 0.02978 0.1118 0.0
H752 H 0.2189 0.98541 0.18814 0.0
H753 H 0.17099 0.97528 0.14883 0.0
S754 S 0.23872 0.12677 0.08409 0.0
N755 N 0.25633 0.10677 0.12089 0.0
N756 N 0.20617 0.09421 0.07711 0.0
C757 C 0.20881 0.06465 0.10514 0.0
C758 C 0.23568 0.07174 0.12918 0.0
C759 C 0.8442 0.57341 0.13254 0.0
C760 C 0.81285 0.54589 0.13719 0.0
C761 C 0.87563 0.57294 0.10414 0.0
C762 C 0.87599 0.54586 0.07901 0.0
H763 H 0.84612 0.59315 0.15241 0.0
H764 H 0.90138 0.5915 0.10344 0.0
S765 S 0.79776 0.47264 0.0759 0.0
N766 N 0.78165 0.49433 0.11186 0.0
N767 N 0.84061 0.49418 0.05821 0.0
C768 C 0.843 0.52109 0.08141 0.0
C769 C 0.8114 0.5209 0.11064 0.0
C770 C 0.23851 0.96329 0.34321 0.0
C771 C 0.24968 1.00035 0.32208 0.0
C772 C 0.20952 0.96248 0.37386 0.0
C773 C 0.19043 0.99852 0.38449 0.0
H774 H 0.25075 0.9346 0.3352 0.0
H775 H 0.19954 0.93321 0.38772 0.0
S776 S 0.21322 0.10376 0.34253 0.0
N777 N 0.2429 0.07467 0.31752 0.0
N778 N 0.18759 0.07215 0.37407 0.0
C779 C 0.20331 0.03572 0.36533 0.0
C780 C 0.23311 0.03685 0.33443 0.0
C781 C 0.83782 0.46306 0.29336 0.0
C782 C 0.79734 0.45342 0.29641 0.0
C783 C 0.85434 0.46936 0.32336 0.0
C784 C 0.83057 0.46682 0.35699 0.0
H785 H 0.85563 0.46956 0.26733 0.0
H786 H 0.88477 0.47999 0.31976 0.0
S787 S 0.72422 0.43841 0.37919 0.0
N788 N 0.73501 0.43754 0.33582 0.0
N789 N 0.76613 0.45028 0.39232 0.0
C790 C 0.79125 0.45348 0.3609 0.0
C791 C 0.77456 0.44651 0.33041 0.0
C792 C 0.17577 0.2221 0.06817 0.0
C793 C 0.19618 0.2355 0.03406 0.0
C794 C 0.14853 0.1902 0.07368 0.0
C795 C 0.14088 0.17007 0.04538 0.0
H796 H 0.18082 0.2363 0.0908 0.0
H797 H 0.13405 0.18069 0.10057 0.0
S798 S 0.1871 0.19302 0.95087 0.0
N799 N 0.20674 0.22585 0.97143 0.0
N800 N 0.1563 0.16606 0.98197 0.0
C801 C 0.16101 0.18332 0.01114 0.0
C802 C 0.18843 0.21591 1.00547 0.0
C803 C 0.19222 0.8137 0.49379 0.0
C804 C 0.21976 0.80165 0.46526 0.0
C805 C 0.1597 0.84047 0.48832 0.0
C806 C 0.15248 0.85681 0.45397 0.0
H807 H 0.19592 0.80295 0.52116 0.0
H808 H 0.14061 0.84924 0.51155 0.0
S809 S 0.21254 0.83253 0.36953 0.0
N810 N 0.23572 0.80626 0.4009 0.0
N811 N 0.17388 0.85651 0.39043 0.0
C812 C 0.17835 0.84364 0.42488 0.0
C813 C 0.21208 0.81623 0.43054 0.0
C814 C 0.83705 0.71658 0.43427 0.0
C815 C 0.84691 0.74859 0.45139 0.0
C816 C 0.86104 0.68058 0.4341 0.0
C817 C 0.89613 0.67539 0.4506 0.0
H818 H 0.80952 0.71842 0.42265 0.0
H819 H 0.8515 0.65628 0.42142 0.0
S820 S 0.93689 0.75228 0.49599 0.0
N821 N 0.89521 0.77404 0.48344 0.0
N822 N 0.94079 0.70707 0.48214 0.0
C823 C 0.90739 0.70819 0.46608 0.0
C824 C 0.88262 0.74453 0.46676 0.0
C825 C 0.37371 0.84747 0.5058 0.0
C826 C 0.36667 0.81749 0.5357 0.0
C827 C 0.40249 0.87709 0.50362 0.0
C828 C 0.42599 0.87737 0.53094 0.0
H829 H 0.35634 0.84843 0.4841 0.0
H830 H 0.40557 0.9005 0.48069 0.0
S831 S 0.42259 0.80154 0.61276 0.0
N832 N 0.3872 0.78762 0.59187 0.0
N833 N 0.44258 0.84206 0.58747 0.0
C834 C 0.42054 0.84604 0.56022 0.0
C835 C 0.39047 0.81652 0.56275 0.0
C836 C 0.58539 0.6755 0.79025 0.0
C837 C 0.56266 0.71214 0.78913 0.0
C838 C 0.58196 0.64799 0.76632 0.0
C839 C 0.55562 0.65627 0.74069 0.0
H840 H 0.60448 0.66725 0.81065 0.0
H841 H 0.59985 0.61985 0.76798 0.0
S842 S 0.49217 0.74999 0.72549 0.0
N843 N 0.51453 0.75645 0.75967 0.0
N844 N 0.50867 0.70513 0.71427 0.0
C845 C 0.53357 0.69338 0.73888 0.0
C846 C 0.53705 0.72126 0.76316 0.0
C847 C 0.51697 0.87476 0.77923 0.0
C848 C 0.48222 0.85723 0.79971 0.0
C849 C 0.51598 0.89654 0.74549 0.0
C850 C 0.48004 0.90265 0.73088 0.0
H851 H 0.54597 0.86973 0.78831 0.0
H852 H 0.54421 0.90654 0.73005 0.0
S853 S 0.37917 0.86999 0.77632 0.0
N854 N 0.40996 0.85145 0.80468 0.0
N855 N 0.40745 0.89496 0.74195 0.0
C856 C 0.4443 0.88862 0.7524 0.0
C857 C 0.44551 0.86544 0.78664 0.0
C858 C 0.43533 0.34996 0.75271 0.0
C859 C 0.43843 0.30763 0.76295 0.0
C860 C 0.44789 0.37719 0.77345 0.0
C861 C 0.46339 0.36246 0.80498 0.0
H862 H 0.42809 0.36177 0.72658 0.0
H863 H 0.44919 0.40933 0.76307 0.0
S864 S 0.46789 0.25504 0.84733 0.0
N865 N 0.45076 0.2529 0.8095 0.0
N866 N 0.47372 0.30392 0.84888 0.0
C867 C 0.46109 0.32073 0.81785 0.0
C868 C 0.44836 0.29326 0.79679 0.0
C869 C 0.48962 0.13433 0.78921 0.0
C870 C 0.52246 0.15997 0.77744 0.0
C871 C 0.48462 0.11107 0.82319 0.0
C872 C 0.51198 0.1125 0.84744 0.0
H873 H 0.46684 0.13288 0.77233 0.0
H874 H 0.45815 0.09282 0.83088 0.0
S875 S 0.60417 0.17346 0.82954 0.0
N876 N 0.58382 0.18403 0.79261 0.0
N877 N 0.57428 0.14082 0.85634 0.0
C878 C 0.54571 0.137 0.83563 0.0
C879 C 0.55098 0.1605 0.80079 0.0
C880 C 0.72757 0.50983 0.66165 0.0
C881 C 0.74937 0.54573 0.65818 0.0
C882 C 0.6998 0.50554 0.6389 0.0
C883 C 0.69359 0.53643 0.61117 0.0
H884 H 0.73093 0.48526 0.68296 0.0
H885 H 0.68161 0.47871 0.64412 0.0
S886 S 0.74416 0.63547 0.58914 0.0
N887 N 0.76383 0.61217 0.62388 0.0
N888 N 0.71176 0.6037 0.58063 0.0
C889 C 0.71625 0.57177 0.60632 0.0
C890 C 0.74405 0.57659 0.63001 0.0
C891 C 0.30472 0.96997 0.63585 0.0
C892 C 0.28271 1.00675 0.63898 0.0
C893 C 0.3397 0.96841 0.61114 0.0
C894 C 0.35381 1.00335 0.58812 0.0
H895 H 0.29629 0.94264 0.65399 0.0
H896 H 0.35697 0.93989 0.61119 0.0
S897 S 0.30423 0.1058 0.58182 0.0
N898 N 0.27527 0.07818 0.61412 0.0
N899 N 0.34112 0.07474 0.5675 0.0
C900 C 0.33056 0.03955 0.58891 0.0
C901 C 0.29502 0.04137 0.61444 0.0
C902 C 0.72609 0.44875 0.81019 0.0
C903 C 0.7521 0.48072 0.80947 0.0
C904 C 0.69045 0.44499 0.83445 0.0
C905 C 0.67994 0.47231 0.8596 0.0
H906 H 0.73221 0.42775 0.79067 0.0
H907 H 0.67054 0.42075 0.83313 0.0
S908 S 0.73971 0.55888 0.87108 0.0
N909 N 0.76603 0.53901 0.83732 0.0
N910 N 0.69972 0.53065 0.88391 0.0
C911 C 0.70672 0.50299 0.86057 0.0
C912 C 0.74259 0.50755 0.8352 0.0
C913 C 0.28589 0.08346 0.80619 0.0
C914 C 0.27905 0.05074 0.78837 0.0
C915 C 0.30632 0.07712 0.83595 0.0
C916 C 0.3203 0.03789 0.84881 0.0
H917 H 0.27491 0.11396 0.79751 0.0
H918 H 0.31175 0.10311 0.84863 0.0
S919 S 0.30937 0.94187 0.81286 0.0
N920 N 0.28853 0.97739 0.78621 0.0
N921 N 0.32495 0.966 0.84274 0.0
C922 C 0.3134 1.00504 0.83158 0.0
C923 C 0.29339 1.01135 0.80115 0.0
C924 C 0.67453 0.73142 0.57198 0.0
C925 C 0.69696 0.74275 0.53833 0.0
C926 C 0.64737 0.69932 0.57763 0.0
C927 C 0.64175 0.67725 0.54986 0.0
H928 H 0.67771 0.7476 0.59399 0.0
H929 H 0.63117 0.69134 0.60414 0.0
S930 S 0.69541 0.69328 0.45721 0.0
N931 N 0.7131 0.72787 0.47724 0.0
N932 N 0.66216 0.66867 0.48769 0.0
C933 C 0.66428 0.68828 0.51618 0.0
C934 C 0.69185 0.72063 0.51049 0.0
C935 C 0.70944 0.31633 0.91935 0.0
C936 C 0.70953 0.2903 0.95177 0.0
C937 C 0.67422 0.33872 0.91131 0.0
C938 C 0.63791 0.33548 0.93521 0.0
H939 H 0.73724 0.32168 0.90136 0.0
H940 H 0.67637 0.36121 0.88774 0.0
S941 S 0.62049 0.26633 0.02022 0.0
N942 N 0.66844 0.25856 1.0053 0.0
N943 N 0.60334 0.30079 0.99025 0.0
C944 C 0.63701 0.30707 0.96602 0.0
C945 C 0.67248 0.28445 0.97424 0.0
C946 C 0.39292 0.24471 0.94605 0.0
C947 C 0.35105 0.2413 0.95547 0.0
C948 C 0.41887 0.20989 0.94863 0.0
C949 C 0.40359 0.17085 0.96104 0.0
H950 H 0.40569 0.27446 0.93761 0.0
H951 H 0.45085 0.21347 0.94056 0.0
S952 S 0.29624 0.14688 0.99126 0.0
N953 N 0.29586 0.19661 0.97883 0.0
N954 N 0.34382 0.13168 0.98422 0.0
C955 C 0.36172 0.16757 0.97086 0.0
C956 C 0.33568 0.20266 0.96797 0.0
C957 C 0.87106 0.34709 0.05486 0.0
C958 C 0.85933 0.33865 0.02307 0.0
C959 C 0.8997 0.37641 0.05463 0.0
C960 C 0.91744 0.39901 0.02262 0.0
H961 H 0.85867 0.33033 0.08016 0.0
H962 H 0.90754 0.3817 0.07993 0.0
S963 S 0.89566 0.38988 0.93211 0.0
N964 N 0.86698 0.35592 0.95865 0.0
N965 N 0.92021 0.41156 0.9583 0.0
C966 C 0.90547 0.39137 0.99065 0.0
C967 C 0.87663 0.36108 0.99085 0.0
loop_
_geom_bond_atom_site_label_1
_geom_bond_atom_site_label_2
_geom_bond_distance
_geom_bond_site_symmetry_2
_ccdc_geom_bond_type
C0 O2 1.247 . S
C0 O4 1.258 1_455 S
C1 O8 1.247 . S
C1 O9 1.258 1_655 S
O2 C0 1.247 . S
O2 Zn3 2.028 . S
Zn3 O2 2.028 . S
Zn3 O7 2.035 . S
Zn3 O9 2.035 . S
Zn3 O10 2.028 . S
O4 C0 1.258 1_655 S
O4 Zn5 2.035 . S
Zn5 O4 2.035 . S
Zn5 O6 2.028 . S
Zn5 O8 2.028 . S
Zn5 O11 2.035 . S
O6 Zn5 2.028 . S
O6 C12 1.247 . S
O7 Zn3 2.035 . S
O7 C12 1.258 1_455 S
O8 C1 1.247 . S
O8 Zn5 2.028 . S
O9 C1 1.258 1_455 S
O9 Zn3 2.035 . S
O10 Zn3 2.028 . S
O10 C13 1.247 . S
O11 Zn5 2.035 . S
O11 C13 1.258 1_655 S
C12 O6 1.247 . S
C12 O7 1.258 1_655 S
C13 O10 1.247 . S
C13 O11 1.258 1_455 S
C14 O16 1.247 . S
C14 O18 1.258 1_455 S
C15 O22 1.247 . S
C15 O23 1.258 1_655 S
O16 C14 1.247 . S
O16 Zn17 2.028 . S
Zn17 O16 2.028 . S
Zn17 O21 2.035 . S
Zn17 O23 2.035 . S
Zn17 O24 2.028 . S
O18 C14 1.258 1_655 S
O18 Zn19 2.035 . S
Zn19 O18 2.035 . S
Zn19 O20 2.028 . S
Zn19 O22 2.028 . S
Zn19 O25 2.035 . S
O20 Zn19 2.028 . S
O20 C26 1.247 . S
O21 Zn17 2.035 . S
O21 C26 1.258 1_455 S
O22 C15 1.247 . S
O22 Zn19 2.028 . S
O23 C15 1.258 1_455 S
O23 Zn17 2.035 . S
O24 Zn17 2.028 . S
O24 C27 1.247 . S
O25 Zn19 2.035 . S
O25 C27 1.258 1_655 S
C26 O20 1.247 . S
C26 O21 1.258 1_655 S
C27 O24 1.247 . S
C27 O25 1.258 1_455 S
C28 O30 1.247 1_545 S
C28 O32 1.258 . S
C29 O36 1.260 . S
C29 O37 1.246 1_545 S
O30 C28 1.247 1_565 S
O30 Zn31 2.028 . S
Zn31 O30 2.028 . S
Zn31 O35 2.035 . S
Zn31 O37 2.035 . S
Zn31 O38 2.028 . S
O32 C28 1.258 . S
O32 Zn33 2.035 . S
Zn33 O32 2.035 . S
Zn33 O34 2.028 . S
Zn33 O36 2.028 . S
Zn33 O39 2.035 . S
O34 Zn33 2.028 . S
O34 C40 1.247 . S
O35 Zn31 2.035 . S
O35 C40 1.258 1_565 S
O36 C29 1.260 . S
O36 Zn33 2.028 . S
O37 C29 1.246 1_565 S
O37 Zn31 2.035 . S
O38 Zn31 2.028 . S
O38 C41 1.247 1_565 S
O39 Zn33 2.035 . S
O39 C41 1.258 . S
C40 O34 1.247 . S
C40 O35 1.258 1_545 S
C41 O38 1.247 1_545 S
C41 O39 1.258 . S
C42 O44 1.247 . S
C42 O46 1.258 . S
C43 O50 1.247 . S
C43 O51 1.258 . S
O44 C42 1.247 . S
O44 Zn45 2.028 . S
Zn45 O44 2.028 . S
Zn45 O49 2.035 . S
Zn45 O51 2.035 . S
Zn45 O52 2.028 . S
O46 C42 1.258 . S
O46 Zn47 2.035 . S
Zn47 O46 2.035 . S
Zn47 O48 2.028 . S
Zn47 O50 2.028 . S
Zn47 O53 2.035 . S
O48 Zn47 2.028 . S
O48 C54 1.247 . S
O49 Zn45 2.035 . S
O49 C54 1.258 . S
O50 C43 1.247 . S
O50 Zn47 2.028 . S
O51 C43 1.258 . S
O51 Zn45 2.035 . S
O52 Zn45 2.028 . S
O52 C55 1.247 . S
O53 Zn47 2.035 . S
O53 C55 1.258 . S
C54 O48 1.247 . S
C54 O49 1.258 . S
C55 O52 1.247 . S
C55 O53 1.258 . S
C56 O58 1.247 1_554 S
C56 O60 1.258 . S
C57 O64 1.247 1_556 S
C57 O65 1.258 . S
O58 C56 1.247 1_556 S
O58 Zn59 2.028 . S
Zn59 O58 2.028 . S
Zn59 O63 2.035 . S
Zn59 O65 2.035 . S
Zn59 O66 2.028 . S
O60 C56 1.258 . S
O60 Zn61 2.035 . S
Zn61 O60 2.035 . S
Zn61 O62 2.028 . S
Zn61 O64 2.028 . S
Zn61 O67 2.035 . S
O62 Zn61 2.028 . S
O62 C68 1.247 1_554 S
O63 Zn59 2.035 . S
O63 C68 1.258 . S
O64 C57 1.247 1_554 S
O64 Zn61 2.028 . S
O65 C57 1.258 . S
O65 Zn59 2.035 . S
O66 Zn59 2.028 . S
O66 C69 1.247 1_556 S
O67 Zn61 2.035 . S
O67 C69 1.258 . S
C68 O62 1.247 1_556 S
C68 O63 1.258 . S
C69 O66 1.247 1_554 S
C69 O67 1.258 . S
C70 O72 1.247 . S
C70 O74 1.258 . S
C71 O78 1.247 . S
C71 O79 1.258 . S
O72 C70 1.247 . S
O72 Zn73 2.028 . S
Zn73 O72 2.028 . S
Zn73 O77 2.035 . S
Zn73 O79 2.035 . S
Zn73 O80 2.028 . S
O74 C70 1.258 . S
O74 Zn75 2.035 . S
Zn75 O74 2.035 . S
Zn75 O76 2.028 . S
Zn75 O78 2.028 . S
Zn75 O81 2.035 . S
O76 Zn75 2.028 . S
O76 C82 1.247 . S
O77 Zn73 2.035 . S
O77 C82 1.258 . S
O78 C71 1.247 . S
O78 Zn75 2.028 . S
O79 C71 1.258 . S
O79 Zn73 2.035 . S
O80 Zn73 2.028 . S
O80 C83 1.247 . S
O81 Zn75 2.035 . S
O81 C83 1.258 . S
C82 O76 1.247 . S
C82 O77 1.258 . S
C83 O80 1.247 . S
C83 O81 1.258 . S
C84 O86 1.247 . S
C84 O88 1.258 . S
C85 O92 1.247 . S
C85 O93 1.258 . S
O86 C84 1.247 . S
O86 Zn87 2.028 . S
Zn87 O86 2.028 . S
Zn87 O91 2.035 . S
Zn87 O93 2.035 . S
Zn87 O94 2.028 . S
O88 C84 1.258 . S
O88 Zn89 2.035 . S
Zn89 O88 2.035 . S
Zn89 O90 2.028 . S
Zn89 O92 2.028 . S
Zn89 O95 2.035 . S
O90 Zn89 2.028 . S
O90 C96 1.247 . S
O91 Zn87 2.035 . S
O91 C96 1.258 . S
O92 C85 1.247 . S
O92 Zn89 2.028 . S
O93 C85 1.258 . S
O93 Zn87 2.035 . S
O94 Zn87 2.028 . S
O94 C97 1.247 . S
O95 Zn89 2.035 . S
O95 C97 1.258 . S
C96 O90 1.247 . S
C96 O91 1.258 . S
C97 O94 1.247 . S
C97 O95 1.258 . S
C98 O100 1.247 . S
C98 O102 1.258 . S
C99 O106 1.247 . S
C99 O107 1.258 . S
O100 C98 1.247 . S
O100 Zn101 2.028 . S
Zn101 O100 2.028 . S
Zn101 O105 2.035 . S
Zn101 O107 2.035 . S
Zn101 O108 2.028 . S
O102 C98 1.258 . S
O102 Zn103 2.035 . S
Zn103 O102 2.035 . S
Zn103 O104 2.028 . S
Zn103 O106 2.028 . S
Zn103 O109 2.035 . S
O104 Zn103 2.028 . S
O104 C110 1.247 . S
O105 Zn101 2.035 . S
O105 C110 1.258 . S
O106 C99 1.247 . S
O106 Zn103 2.028 . S
O107 C99 1.258 . S
O107 Zn101 2.035 . S
O108 Zn101 2.028 . S
O108 C111 1.247 . S
O109 Zn103 2.035 . S
O109 C111 1.258 . S
C110 O104 1.247 . S
C110 O105 1.258 . S
C111 O108 1.247 . S
C111 O109 1.258 . S
C112 O114 1.247 . S
C112 O116 1.258 . S
C113 O120 1.247 . S
C113 O121 1.258 . S
O114 C112 1.247 . S
O114 Zn115 2.028 . S
Zn115 O114 2.028 . S
Zn115 O119 2.035 . S
Zn115 O121 2.035 . S
Zn115 O122 2.028 . S
O116 C112 1.258 . S
O116 Zn117 2.035 . S
Zn117 O116 2.035 . S
Zn117 O118 2.028 . S
Zn117 O120 2.028 . S
Zn117 O123 2.035 . S
O118 Zn117 2.028 . S
O118 C124 1.247 . S
O119 Zn115 2.035 . S
O119 C124 1.258 . S
O120 C113 1.247 . S
O120 Zn117 2.028 . S
O121 C113 1.258 . S
O121 Zn115 2.035 . S
O122 Zn115 2.028 . S
O122 C125 1.247 . S
O123 Zn117 2.035 . S
O123 C125 1.258 . S
C124 O118 1.247 . S
C124 O119 1.258 . S
C125 O122 1.247 . S
C125 O123 1.258 . S
C126 O128 1.247 . S
C126 O130 1.258 . S
C127 O134 1.247 . S
C127 O135 1.258 . S
O128 C126 1.247 . S
O128 Zn129 2.028 . S
Zn129 O128 2.028 . S
Zn129 O133 2.035 . S
Zn129 O135 2.035 . S
Zn129 O136 2.028 . S
O130 C126 1.258 . S
O130 Zn131 2.035 . S
Zn131 O130 2.035 . S
Zn131 O132 2.028 . S
Zn131 O134 2.028 . S
Zn131 O137 2.035 . S
O132 Zn131 2.028 . S
O132 C138 1.247 . S
O133 Zn129 2.035 . S
O133 C138 1.258 . S
O134 C127 1.247 . S
O134 Zn131 2.028 . S
O135 C127 1.258 . S
O135 Zn129 2.035 . S
O136 Zn129 2.028 . S
O136 C139 1.247 . S
O137 Zn131 2.035 . S
O137 C139 1.258 . S
C138 O132 1.247 . S
C138 O133 1.258 . S
C139 O136 1.247 . S
C139 O137 1.258 . S
C140 O142 1.247 . S
C140 O144 1.258 1_565 S
C141 O148 1.247 . S
C141 O149 1.258 1_545 S
O142 C140 1.247 . S
O142 Zn143 2.028 . S
Zn143 O142 2.028 . S
Zn143 O147 2.035 . S
Zn143 O149 2.035 . S
Zn143 O150 2.028 . S
O144 C140 1.258 1_545 S
O144 Zn145 2.035 . S
Zn145 O144 2.035 . S
Zn145 O146 2.028 . S
Zn145 O148 2.028 . S
Zn145 O151 2.035 . S
O146 Zn145 2.028 . S
O146 C152 1.247 . S
O147 Zn143 2.035 . S
O147 C152 1.258 1_565 S
O148 C141 1.247 . S
O148 Zn145 2.028 . S
O149 C141 1.258 1_565 S
O149 Zn143 2.035 . S
O150 Zn143 2.028 . S
O150 C153 1.247 . S
O151 Zn145 2.035 . S
O151 C153 1.258 1_545 S
C152 O146 1.247 . S
C152 O147 1.258 1_545 S
C153 O150 1.247 . S
C153 O151 1.258 1_565 S
C154 O156 1.247 . S
C154 O158 1.258 1_554 S
C155 O162 1.247 1_554 S
C155 O163 1.258 . S
O156 C154 1.247 . S
O156 Zn157 2.028 . S
Zn157 O156 2.028 . S
Zn157 O161 2.035 . S
Zn157 O163 2.035 . S
Zn157 O164 2.028 . S
O158 C154 1.258 1_556 S
O158 Zn159 2.035 . S
Zn159 O158 2.035 . S
Zn159 O160 2.028 . S
Zn159 O162 2.028 . S
Zn159 O165 2.035 . S
O160 Zn159 2.028 . S
O160 C166 1.247 1_556 S
O161 Zn157 2.035 . S
O161 C166 1.258 . S
O162 C155 1.247 1_556 S
O162 Zn159 2.028 . S
O163 C155 1.258 . S
O163 Zn157 2.035 . S
O164 Zn157 2.028 . S
O164 C167 1.247 1_554 S
O165 Zn159 2.035 . S
O165 C167 1.258 . S
C166 O160 1.247 1_554 S
C166 O161 1.258 . S
C167 O164 1.247 1_556 S
C167 O165 1.258 . S
C168 O184 1.251 . S
C168 O186 1.254 . S
N169 C170 1.333 . S
N169 C174 1.307 . S
N169 Zn175 2.020 1_556 S
C170 N169 1.333 . S
C170 C171 1.379 1_545 S
C170 H188 0.952 . S
C171 C170 1.379 1_565 S
C171 C172 1.390 . S
C171 H198 0.949 . S
C172 C171 1.390 . S
C172 C173 1.357 . S
C173 C172 1.357 . S
C173 C174 1.370 1_565 S
C173 H199 0.950 . S
C174 N169 1.307 . S
C174 C173 1.370 1_545 S
C174 H192 0.948 . S
Zn175 N169 2.020 1_554 S
Zn175 O184 2.039 . S
Zn175 O190 2.034 . S
Zn175 O194 2.025 . S
Zn175 O196 2.024 1_545 S
C176 O195 1.246 1_565 S
C176 O196 1.249 . S
N177 C178 1.307 . S
N177 C179 1.333 1_455 S
N177 Zn183 2.020 . S
C178 N177 1.307 . S
C178 C182 1.370 . S
C178 H189 0.948 . S
C179 N177 1.333 1_655 S
C179 C180 1.379 . S
C179 H187 0.952 . S
C180 C179 1.379 . S
C180 C181 1.390 . S
C180 H200 0.949 . S
C181 C180 1.390 . S
C181 C182 1.357 1_655 S
C182 C178 1.370 . S
C182 C181 1.357 1_455 S
C182 H201 0.950 . S
Zn183 N177 2.020 . S
Zn183 O186 2.025 . S
Zn183 O191 2.024 . S
Zn183 O193 2.039 1_455 S
Zn183 O195 2.034 . S
O184 C168 1.251 . S
O184 Zn175 2.039 . S
C185 O190 1.246 . S
C185 O191 1.249 . S
O186 C168 1.254 . S
O186 Zn183 2.025 . S
H187 C179 0.952 . S
H188 C170 0.952 . S
H189 C178 0.948 . S
O190 Zn175 2.034 . S
O190 C185 1.246 . S
O191 Zn183 2.024 . S
O191 C185 1.249 . S
H192 C174 0.948 . S
O193 Zn183 2.039 1_655 S
O193 C197 1.251 . S
O194 Zn175 2.025 . S
O194 C197 1.254 1_455 S
O195 C176 1.246 1_545 S
O195 Zn183 2.034 . S
O196 Zn175 2.024 1_565 S
O196 C176 1.249 . S
C197 O193 1.251 . S
C197 O194 1.254 1_655 S
H198 C171 0.949 . S
H199 C173 0.950 . S
H200 C180 0.949 . S
H201 C182 0.950 . S
C202 O218 1.251 . S
C202 O220 1.254 . S
N203 C204 1.333 . S
N203 C208 1.307 . S
N203 Zn209 2.020 1_556 S
C204 N203 1.333 . S
C204 C205 1.379 . S
C204 H222 0.952 . S
C205 C204 1.379 . S
C205 C206 1.390 . S
C205 H232 0.949 . S
C206 C205 1.390 . S
C206 C207 1.357 . S
C207 C206 1.357 . S
C207 C208 1.370 . S
C207 H233 0.950 . S
C208 N203 1.307 . S
C208 C207 1.370 . S
C208 H226 0.948 1_655 S
Zn209 N203 2.020 1_554 S
Zn209 O218 2.039 . S
Zn209 O224 2.034 . S
Zn209 O228 2.025 1_654 S
Zn209 O230 2.024 . S
C210 O229 1.246 . S
C210 O230 1.249 1_455 S
N211 C212 1.307 . S
N211 C213 1.333 1_655 S
N211 Zn217 2.020 . S
C212 N211 1.307 . S
C212 C216 1.370 . S
C212 H223 0.948 . S
C213 N211 1.333 1_455 S
C213 C214 1.379 . S
C213 H221 0.952 . S
C214 C213 1.379 . S
C214 C215 1.390 . S
C214 H234 0.949 . S
C215 C214 1.390 . S
C215 C216 1.357 1_455 S
C216 C212 1.370 . S
C216 C215 1.357 1_655 S
C216 H235 0.950 . S
Zn217 N211 2.020 . S
Zn217 O220 2.025 . S
Zn217 O225 2.024 . S
Zn217 O227 2.039 1_655 S
Zn217 O229 2.034 1_655 S
O218 C202 1.251 . S
O218 Zn209 2.039 . S
C219 O224 1.246 . S
C219 O225 1.249 . S
O220 C202 1.254 . S
O220 Zn217 2.025 . S
H221 C213 0.952 . S
H222 C204 0.952 . S
H223 C212 0.948 . S
O224 Zn209 2.034 . S
O224 C219 1.246 . S
O225 Zn217 2.024 . S
O225 C219 1.249 . S
H226 C208 0.948 1_455 S
O227 Zn217 2.039 1_455 S
O227 C231 1.251 . S
O228 Zn209 2.025 1_456 S
O228 C231 1.254 1_556 S
O229 C210 1.246 . S
O229 Zn217 2.034 1_455 S
O230 Zn209 2.024 . S
O230 C210 1.249 1_655 S
C231 O227 1.251 . S
C231 O228 1.254 1_554 S
H232 C205 0.949 . S
H233 C207 0.950 . S
H234 C214 0.949 . S
H235 C216 0.950 . S
C236 O252 1.251 1_545 S
C236 O254 1.254 . S
N237 C238 1.333 . S
N237 C242 1.307 . S
N237 Zn243 2.020 . S
C238 N237 1.333 . S
C238 C239 1.379 1_455 S
C238 H256 0.952 1_455 S
C239 C238 1.379 1_655 S
C239 C240 1.390 1_655 S
C239 H266 0.949 . S
C240 C239 1.390 1_455 S
C240 C241 1.357 . S
C241 C240 1.357 . S
C241 C242 1.370 . S
C241 H267 0.950 . S
C242 N237 1.307 . S
C242 C241 1.370 . S
C242 H260 0.948 . S
Zn243 N237 2.020 . S
Zn243 O252 2.039 . S
Zn243 O258 2.034 . S
Zn243 O262 2.025 . S
Zn243 O264 2.024 . S
C244 O263 1.246 . S
C244 O264 1.249 . S
N245 C246 1.307 1_565 S
N245 C247 1.333 . S
N245 Zn251 2.020 . S
C246 N245 1.307 1_545 S
C246 C250 1.370 . S
C246 H257 0.948 . S
C247 N245 1.333 . S
C247 C248 1.379 . S
C247 H255 0.952 . S
C248 C247 1.379 . S
C248 C249 1.390 1_565 S
C248 H268 0.949 . S
C249 C248 1.390 1_545 S
C249 C250 1.357 . S
C250 C246 1.370 . S
C250 C249 1.357 . S
C250 H269 0.950 . S
Zn251 N245 2.020 . S
Zn251 O254 2.025 1_565 S
Zn251 O259 2.024 . S
Zn251 O261 2.039 . S
Zn251 O263 2.034 . S
O252 C236 1.251 1_565 S
O252 Zn243 2.039 . S
C253 O258 1.246 1_655 S
C253 O259 1.249 1_655 S
O254 C236 1.254 . S
O254 Zn251 2.025 1_545 S
H255 C247 0.952 . S
H256 C238 0.952 1_655 S
H257 C246 0.948 . S
O258 Zn243 2.034 . S
O258 C253 1.246 1_455 S
O259 Zn251 2.024 . S
O259 C253 1.249 1_455 S
H260 C242 0.948 . S
O261 Zn251 2.039 . S
O261 C265 1.251 . S
O262 Zn243 2.025 . S
O262 C265 1.254 . S
O263 C244 1.246 . S
O263 Zn251 2.034 . S
O264 Zn243 2.024 . S
O264 C244 1.249 . S
C265 O261 1.251 . S
C265 O262 1.254 . S
H266 C239 0.949 . S
H267 C241 0.950 . S
H268 C248 0.949 . S
H269 C250 0.950 . S
C270 O286 1.251 . S
C270 O288 1.254 . S
N271 C272 1.333 . S
N271 C276 1.307 . S
N271 Zn277 2.020 1_455 S
C272 N271 1.333 . S
C272 C273 1.379 . S
C272 H290 0.952 . S
C273 C272 1.379 . S
C273 C274 1.390 . S
C273 H300 0.949 . S
C274 C273 1.390 . S
C274 C275 1.357 . S
C275 C274 1.357 . S
C275 C276 1.370 . S
C275 H301 0.950 . S
C276 N271 1.307 . S
C276 C275 1.370 . S
C276 H294 0.948 . S
Zn277 N271 2.020 1_655 S
Zn277 O286 2.039 . S
Zn277 O292 2.034 1_655 S
Zn277 O296 2.025 1_655 S
Zn277 O298 2.024 . S
C278 O297 1.246 . S
C278 O298 1.249 . S
N279 C280 1.307 . S
N279 C281 1.333 . S
N279 Zn285 2.020 . S
C280 N279 1.307 . S
C280 C284 1.370 . S
C280 H291 0.948 . S
C281 N279 1.333 . S
C281 C282 1.379 . S
C281 H289 0.952 . S
C282 C281 1.379 . S
C282 C283 1.390 . S
C282 H302 0.949 . S
C283 C282 1.390 . S
C283 C284 1.357 . S
C284 C280 1.370 . S
C284 C283 1.357 . S
C284 H303 0.950 . S
Zn285 N279 2.020 . S
Zn285 O288 2.025 . S
Zn285 O293 2.024 . S
Zn285 O295 2.039 . S
Zn285 O297 2.034 . S
O286 C270 1.251 . S
O286 Zn277 2.039 . S
C287 O292 1.246 1_655 S
C287 O293 1.249 . S
O288 C270 1.254 . S
O288 Zn285 2.025 . S
H289 C281 0.952 . S
H290 C272 0.952 . S
H291 C280 0.948 . S
O292 Zn277 2.034 1_455 S
O292 C287 1.246 1_455 S
O293 Zn285 2.024 . S
O293 C287 1.249 . S
H294 C276 0.948 . S
O295 Zn285 2.039 . S
O295 C299 1.251 . S
O296 Zn277 2.025 1_455 S
O296 C299 1.254 1_455 S
O297 C278 1.246 . S
O297 Zn285 2.034 . S
O298 Zn277 2.024 . S
O298 C278 1.249 . S
C299 O295 1.251 . S
C299 O296 1.254 1_655 S
H300 C273 0.949 . S
H301 C275 0.950 . S
H302 C282 0.949 . S
H303 C284 0.950 . S
C304 O320 1.251 1_565 S
C304 O322 1.254 . S
N305 C306 1.333 . S
N305 C310 1.307 . S
N305 Zn311 2.020 1_545 S
C306 N305 1.333 . S
C306 C307 1.379 . S
C306 H324 0.952 . S
C307 C306 1.379 . S
C307 C308 1.390 . S
C307 H334 0.949 . S
C308 C307 1.390 . S
C308 C309 1.357 . S
C309 C308 1.357 . S
C309 C310 1.370 . S
C309 H335 0.950 . S
C310 N305 1.307 . S
C310 C309 1.370 . S
C310 H328 0.948 . S
Zn311 N305 2.020 1_565 S
Zn311 O320 2.039 1_565 S
Zn311 O326 2.034 . S
Zn311 O330 2.025 . S
Zn311 O332 2.024 1_565 S
C312 O331 1.246 . S
C312 O332 1.249 . S
N313 C314 1.307 . S
N313 C315 1.333 . S
N313 Zn319 2.020 . S
C314 N313 1.307 . S
C314 C318 1.370 . S
C314 H325 0.948 . S
C315 N313 1.333 . S
C315 C316 1.379 . S
C315 H323 0.952 . S
C316 C315 1.379 . S
C316 C317 1.390 . S
C316 H336 0.949 . S
C317 C316 1.390 . S
C317 C318 1.357 . S
C318 C314 1.370 . S
C318 C317 1.357 . S
C318 H337 0.950 . S
Zn319 N313 2.020 . S
Zn319 O322 2.025 . S
Zn319 O327 2.024 . S
Zn319 O329 2.039 . S
Zn319 O331 2.034 1_565 S
O320 C304 1.251 1_545 S
O320 Zn311 2.039 1_545 S
C321 O326 1.246 . S
C321 O327 1.249 . S
O322 C304 1.254 . S
O322 Zn319 2.025 . S
H323 C315 0.952 . S
H324 C306 0.952 . S
H325 C314 0.948 . S
O326 Zn311 2.034 . S
O326 C321 1.246 . S
O327 Zn319 2.024 . S
O327 C321 1.249 . S
H328 C310 0.948 . S
O329 Zn319 2.039 . S
O329 C333 1.251 . S
O330 Zn311 2.025 . S
O330 C333 1.254 . S
O331 C312 1.246 . S
O331 Zn319 2.034 1_545 S
O332 Zn311 2.024 1_545 S
O332 C312 1.249 . S
C333 O329 1.251 . S
C333 O330 1.254 . S
H334 C307 0.949 . S
H335 C309 0.950 . S
H336 C316 0.949 . S
H337 C318 0.950 . S
C338 O354 1.251 . S
C338 O356 1.254 . S
N339 C340 1.333 . S
N339 C344 1.307 . S
N339 Zn345 2.020 . S
C340 N339 1.333 . S
C340 C341 1.379 . S
C340 H358 0.952 . S
C341 C340 1.379 . S
C341 C342 1.390 . S
C341 H368 0.949 . S
C342 C341 1.390 . S
C342 C343 1.357 . S
C343 C342 1.357 . S
C343 C344 1.370 . S
C343 H369 0.950 . S
C344 N339 1.307 . S
C344 C343 1.370 . S
C344 H362 0.948 . S
Zn345 N339 2.020 . S
Zn345 O354 2.039 . S
Zn345 O360 2.034 . S
Zn345 O364 2.025 . S
Zn345 O366 2.024 . S
C346 O365 1.246 . S
C346 O366 1.249 . S
N347 C348 1.307 . S
N347 C349 1.333 . S
N347 Zn353 2.020 . S
C348 N347 1.307 . S
C348 C352 1.370 . S
C348 H359 0.948 . S
C349 N347 1.333 . S
C349 C350 1.379 . S
C349 H357 0.952 . S
C350 C349 1.379 . S
C350 C351 1.390 . S
C350 H370 0.949 . S
C351 C350 1.390 . S
C351 C352 1.357 . S
C352 C348 1.370 . S
C352 C351 1.357 . S
C352 H371 0.950 . S
Zn353 N347 2.020 . S
Zn353 O356 2.025 . S
Zn353 O361 2.024 . S
Zn353 O363 2.039 . S
Zn353 O365 2.034 . S
O354 C338 1.251 . S
O354 Zn345 2.039 . S
C355 O360 1.246 . S
C355 O361 1.249 . S
O356 C338 1.254 . S
O356 Zn353 2.025 . S
H357 C349 0.952 . S
H358 C340 0.952 . S
H359 C348 0.948 . S
O360 Zn345 2.034 . S
O360 C355 1.246 . S
O361 Zn353 2.024 . S
O361 C355 1.249 . S
H362 C344 0.948 . S
O363 Zn353 2.039 . S
O363 C367 1.251 . S
O364 Zn345 2.025 . S
O364 C367 1.254 . S
O365 C346 1.246 . S
O365 Zn353 2.034 . S
O366 Zn345 2.024 . S
O366 C346 1.249 . S
C367 O363 1.251 . S
C367 O364 1.254 . S
H368 C341 0.949 . S
H369 C343 0.950 . S
H370 C350 0.949 . S
H371 C352 0.950 . S
C372 O388 1.251 . S
C372 O390 1.254 . S
N373 C374 1.333 . S
N373 C378 1.307 . S
N373 Zn379 2.020 . S
C374 N373 1.333 . S
C374 C375 1.379 . S
C374 H392 0.952 . S
C375 C374 1.379 . S
C375 C376 1.390 . S
C375 H402 0.949 . S
C376 C375 1.390 . S
C376 C377 1.357 . S
C377 C376 1.357 . S
C377 C378 1.370 . S
C377 H403 0.950 . S
C378 N373 1.307 . S
C378 C377 1.370 . S
C378 H396 0.948 . S
Zn379 N373 2.020 . S
Zn379 O388 2.039 . S
Zn379 O394 2.034 . S
Zn379 O398 2.025 . S
Zn379 O400 2.024 . S
C380 O399 1.246 . S
C380 O400 1.249 . S
N381 C382 1.307 . S
N381 C383 1.333 . S
N381 Zn387 2.020 1_554 S
C382 N381 1.307 . S
C382 C386 1.370 . S
C382 H393 0.948 . S
C383 N381 1.333 . S
C383 C384 1.379 . S
C383 H391 0.952 . S
C384 C383 1.379 . S
C384 C385 1.390 . S
C384 H404 0.949 . S
C385 C384 1.390 . S
C385 C386 1.357 . S
C386 C382 1.370 . S
C386 C385 1.357 . S
C386 H405 0.950 . S
Zn387 N381 2.020 1_556 S
Zn387 O390 2.025 . S
Zn387 O395 2.024 . S
Zn387 O397 2.039 . S
Zn387 O399 2.034 . S
O388 C372 1.251 . S
O388 Zn379 2.039 . S
C389 O394 1.246 . S
C389 O395 1.249 . S
O390 C372 1.254 . S
O390 Zn387 2.025 . S
H391 C383 0.952 . S
H392 C374 0.952 . S
H393 C382 0.948 . S
O394 Zn379 2.034 . S
O394 C389 1.246 . S
O395 Zn387 2.024 . S
O395 C389 1.249 . S
H396 C378 0.948 . S
O397 Zn387 2.039 . S
O397 C401 1.251 . S
O398 Zn379 2.025 . S
O398 C401 1.254 . S
O399 C380 1.246 . S
O399 Zn387 2.034 . S
O400 Zn379 2.024 . S
O400 C380 1.249 . S
C401 O397 1.251 . S
C401 O398 1.254 . S
H402 C375 0.949 . S
H403 C377 0.950 . S
H404 C384 0.949 . S
H405 C386 0.950 . S
C406 O422 1.251 . S
C406 O424 1.254 . S
N407 C408 1.333 . S
N407 C412 1.307 . S
N407 Zn413 2.020 . S
C408 N407 1.333 . S
C408 C409 1.379 . S
C408 H426 0.952 . S
C409 C408 1.379 . S
C409 C410 1.390 . S
C409 H436 0.949 . S
C410 C409 1.390 . S
C410 C411 1.357 . S
C411 C410 1.357 . S
C411 C412 1.370 . S
C411 H437 0.950 1_556 S
C412 N407 1.307 . S
C412 C411 1.370 . S
C412 H430 0.948 . S
Zn413 N407 2.020 . S
Zn413 O422 2.039 . S
Zn413 O428 2.034 . S
Zn413 O432 2.025 1_545 S
Zn413 O434 2.024 . S
C414 O433 1.246 . S
C414 O434 1.249 . S
N415 C416 1.307 . S
N415 C417 1.333 1_545 S
N415 Zn421 2.020 . S
C416 N415 1.307 . S
C416 C420 1.370 . S
C416 H427 0.948 . S
C417 N415 1.333 1_565 S
C417 C418 1.379 . S
C417 H425 0.952 . S
C418 C417 1.379 . S
C418 C419 1.390 . S
C418 H438 0.949 . S
C419 C418 1.390 . S
C419 C420 1.357 1_565 S
C420 C416 1.370 . S
C420 C419 1.357 1_545 S
C420 H439 0.950 . S
Zn421 N415 2.020 . S
Zn421 O424 2.025 . S
Zn421 O429 2.024 . S
Zn421 O431 2.039 1_545 S
Zn421 O433 2.034 . S
O422 C406 1.251 . S
O422 Zn413 2.039 . S
C423 O428 1.246 . S
C423 O429 1.249 . S
O424 C406 1.254 . S
O424 Zn421 2.025 . S
H425 C417 0.952 . S
H426 C408 0.952 . S
H427 C416 0.948 . S
O428 Zn413 2.034 . S
O428 C423 1.246 . S
O429 Zn421 2.024 . S
O429 C423 1.249 . S
H430 C412 0.948 . S
O431 Zn421 2.039 1_565 S
O431 C435 1.251 . S
O432 Zn413 2.025 1_565 S
O432 C435 1.254 . S
O433 C414 1.246 . S
O433 Zn421 2.034 . S
O434 Zn413 2.024 . S
O434 C414 1.249 . S
C435 O431 1.251 . S
C435 O432 1.254 . S
H436 C409 0.949 . S
H437 C411 0.950 1_554 S
H438 C418 0.949 . S
H439 C420 0.950 . S
C440 C441 1.369 . S
C440 C442 1.419 . S
C440 H444 0.930 . S
C441 C440 1.369 . S
C441 C450 1.429 . S
C442 C440 1.419 . S
C442 C443 1.363 . S
C442 H445 0.929 . S
C443 C442 1.363 . S
C443 C449 1.428 . S
H444 C440 0.930 . S
H445 C442 0.929 . S
S446 N447 1.613 . S
S446 N448 1.610 . S
N447 S446 1.613 . S
N447 C450 1.350 1_655 S
N448 S446 1.610 . S
N448 C449 1.351 1_655 S
C449 C443 1.428 . S
C449 N448 1.351 1_455 S
C449 C450 1.434 . S
C450 C441 1.429 . S
C450 N447 1.350 1_455 S
C450 C449 1.434 . S
C451 C452 1.369 1_455 S
C451 C453 1.419 . S
C451 H455 0.930 . S
C452 C451 1.369 1_655 S
C452 C461 1.429 . S
C453 C451 1.419 . S
C453 C454 1.364 1_455 S
C453 H456 0.929 . S
C454 C453 1.364 1_655 S
C454 C460 1.427 . S
H455 C451 0.930 . S
H456 C453 0.929 . S
S457 N458 1.613 . S
S457 N459 1.610 . S
N458 S457 1.613 . S
N458 C461 1.350 . S
N459 S457 1.610 . S
N459 C460 1.351 . S
C460 C454 1.427 . S
C460 N459 1.351 . S
C460 C461 1.434 . S
C461 C452 1.429 . S
C461 N458 1.350 . S
C461 C460 1.434 . S
C462 C463 1.369 . S
C462 C464 1.419 . S
C462 H466 0.930 . S
C463 C462 1.369 . S
C463 C472 1.429 1_455 S
C464 C462 1.419 . S
C464 C465 1.363 . S
C464 H467 0.929 . S
C465 C464 1.363 . S
C465 C471 1.428 1_455 S
H466 C462 0.930 . S
H467 C464 0.929 . S
S468 N469 1.613 . S
S468 N470 1.610 . S
N469 S468 1.613 . S
N469 C472 1.350 . S
N470 S468 1.610 . S
N470 C471 1.351 . S
C471 C465 1.428 1_655 S
C471 N470 1.351 . S
C471 C472 1.434 . S
C472 C463 1.429 1_655 S
C472 N469 1.350 . S
C472 C471 1.434 . S
C473 C474 1.369 . S
C473 C475 1.419 . S
C473 H477 0.930 . S
C474 C473 1.369 . S
C474 C483 1.429 1_655 S
C475 C473 1.419 . S
C475 C476 1.363 1_655 S
C475 H478 0.929 . S
C476 C475 1.363 1_455 S
C476 C482 1.428 . S
H477 C473 0.930 . S
H478 C475 0.929 . S
S479 N480 1.613 . S
S479 N481 1.610 . S
N480 S479 1.613 . S
N480 C483 1.350 . S
N481 S479 1.610 . S
N481 C482 1.351 . S
C482 C476 1.428 . S
C482 N481 1.351 . S
C482 C483 1.434 . S
C483 C474 1.429 1_455 S
C483 N480 1.350 . S
C483 C482 1.434 . S
C484 C485 1.369 1_565 S
C484 C486 1.419 . S
C484 H488 0.930 . S
C485 C484 1.369 1_545 S
C485 C494 1.429 . S
C486 C484 1.419 . S
C486 C487 1.363 1_565 S
C486 H489 0.929 . S
C487 C486 1.363 1_545 S
C487 C493 1.428 . S
H488 C484 0.930 . S
H489 C486 0.929 . S
S490 N491 1.613 . S
S490 N492 1.610 . S
N491 S490 1.613 . S
N491 C494 1.350 . S
N492 S490 1.610 . S
N492 C493 1.351 . S
C493 C487 1.428 . S
C493 N492 1.351 . S
C493 C494 1.434 . S
C494 C485 1.429 . S
C494 N491 1.350 . S
C494 C493 1.434 . S
C495 C496 1.369 . S
C495 C497 1.419 . S
C495 H499 0.930 . S
C496 C495 1.369 . S
C496 C505 1.429 . S
C497 C495 1.419 . S
C497 C498 1.363 . S
C497 H500 0.929 . S
C498 C497 1.363 . S
C498 C504 1.428 . S
H499 C495 0.930 . S
H500 C497 0.929 . S
S501 N502 1.613 . S
S501 N503 1.610 . S
N502 S501 1.613 . S
N502 C505 1.350 . S
N503 S501 1.610 . S
N503 C504 1.351 . S
C504 C498 1.428 . S
C504 N503 1.351 . S
C504 C505 1.434 . S
C505 C496 1.429 . S
C505 N502 1.350 . S
C505 C504 1.434 . S
C506 C507 1.369 . S
C506 C508 1.419 . S
C506 H510 0.930 . S
C507 C506 1.369 . S
C507 C516 1.429 . S
C508 C506 1.419 . S
C508 C509 1.363 . S
C508 H511 0.929 . S
C509 C508 1.363 . S
C509 C515 1.428 . S
H510 C506 0.930 . S
H511 C508 0.929 . S
S512 N513 1.613 . S
S512 N514 1.610 . S
N513 S512 1.613 . S
N513 C516 1.350 . S
N514 S512 1.610 . S
N514 C515 1.351 . S
C515 C509 1.428 . S
C515 N514 1.351 . S
C515 C516 1.434 . S
C516 C507 1.429 . S
C516 N513 1.350 . S
C516 C515 1.434 . S
C517 C518 1.369 . S
C517 C519 1.419 . S
C517 H521 0.930 . S
C518 C517 1.369 . S
C518 C527 1.429 . S
C519 C517 1.419 . S
C519 C520 1.363 . S
C519 H522 0.929 . S
C520 C519 1.363 . S
C520 C526 1.428 . S
H521 C517 0.930 . S
H522 C519 0.929 . S
S523 N524 1.613 . S
S523 N525 1.610 . S
N524 S523 1.613 . S
N524 C527 1.350 . S
N525 S523 1.610 . S
N525 C526 1.351 . S
C526 C520 1.428 . S
C526 N525 1.351 . S
C526 C527 1.434 . S
C527 C518 1.429 . S
C527 N524 1.350 . S
C527 C526 1.434 . S
C528 C529 1.369 1_556 S
C528 C530 1.419 . S
C528 H532 0.930 . S
C529 C528 1.369 1_554 S
C529 C538 1.429 . S
C530 C528 1.419 . S
C530 C531 1.363 1_556 S
C530 H533 0.929 . S
C531 C530 1.363 1_554 S
C531 C537 1.428 . S
H532 C528 0.930 . S
H533 C530 0.929 . S
S534 N535 1.613 . S
S534 N536 1.610 . S
N535 S534 1.613 . S
N535 C538 1.350 . S
N536 S534 1.610 . S
N536 C537 1.351 . S
C537 C531 1.428 . S
C537 N536 1.351 . S
C537 C538 1.434 . S
C538 C529 1.429 . S
C538 N535 1.350 . S
C538 C537 1.434 . S
C539 C540 1.369 . S
C539 C541 1.419 . S
C539 H543 0.930 . S
C540 C539 1.369 . S
C540 C549 1.429 . S
C541 C539 1.419 . S
C541 C542 1.363 . S
C541 H544 0.929 . S
C542 C541 1.363 . S
C542 C548 1.428 . S
H543 C539 0.930 . S
H544 C541 0.929 . S
S545 N546 1.613 . S
S545 N547 1.610 . S
N546 S545 1.613 . S
N546 C549 1.350 . S
N547 S545 1.610 . S
N547 C548 1.351 . S
C548 C542 1.428 . S
C548 N547 1.351 . S
C548 C549 1.434 . S
C549 C540 1.429 . S
C549 N546 1.350 . S
C549 C548 1.434 . S
C550 C551 1.369 . S
C550 C552 1.419 . S
C550 H554 0.930 . S
C551 C550 1.369 . S
C551 C560 1.429 . S
C552 C550 1.419 . S
C552 C553 1.363 . S
C552 H555 0.929 . S
C553 C552 1.363 . S
C553 C559 1.428 . S
H554 C550 0.930 . S
H555 C552 0.929 . S
S556 N557 1.613 . S
S556 N558 1.610 . S
N557 S556 1.613 . S
N557 C560 1.350 . S
N558 S556 1.610 . S
N558 C559 1.351 . S
C559 C553 1.428 . S
C559 N558 1.351 . S
C559 C560 1.434 . S
C560 C551 1.429 . S
C560 N557 1.350 . S
C560 C559 1.434 . S
C561 C562 1.369 . S
C561 C563 1.419 . S
C561 H565 0.930 . S
C562 C561 1.369 . S
C562 C571 1.429 . S
C563 C561 1.419 . S
C563 C564 1.363 . S
C563 H566 0.929 . S
C564 C563 1.363 . S
C564 C570 1.428 . S
H565 C561 0.930 . S
H566 C563 0.929 . S
S567 N568 1.613 . S
S567 N569 1.610 . S
N568 S567 1.613 . S
N568 C571 1.350 . S
N569 S567 1.610 . S
N569 C570 1.351 . S
C570 C564 1.428 . S
C570 N569 1.351 . S
C570 C571 1.434 . S
C571 C562 1.429 . S
C571 N568 1.350 . S
C571 C570 1.434 . S
C572 C573 1.369 . S
C572 C574 1.419 . S
C572 H576 0.930 . S
C573 C572 1.369 . S
C573 C582 1.429 . S
C574 C572 1.419 . S
C574 C575 1.363 . S
C574 H577 0.929 . S
C575 C574 1.363 . S
C575 C581 1.428 . S
H576 C572 0.930 . S
H577 C574 0.929 . S
S578 N579 1.613 . S
S578 N580 1.610 . S
N579 S578 1.613 . S
N579 C582 1.350 . S
N580 S578 1.610 . S
N580 C581 1.351 . S
C581 C575 1.428 . S
C581 N580 1.351 . S
C581 C582 1.434 . S
C582 C573 1.429 . S
C582 N579 1.350 . S
C582 C581 1.434 . S
C583 C584 1.369 . S
C583 C585 1.419 . S
C583 H587 0.930 . S
C584 C583 1.369 . S
C584 C593 1.429 . S
C585 C583 1.419 . S
C585 C586 1.363 . S
C585 H588 0.929 . S
C586 C585 1.363 . S
C586 C592 1.428 . S
H587 C583 0.930 . S
H588 C585 0.929 . S
S589 N590 1.613 . S
S589 N591 1.610 . S
N590 S589 1.613 . S
N590 C593 1.350 . S
N591 S589 1.610 . S
N591 C592 1.351 . S
C592 C586 1.428 . S
C592 N591 1.351 . S
C592 C593 1.434 . S
C593 C584 1.429 . S
C593 N590 1.350 . S
C593 C592 1.434 . S
C594 C595 1.369 . S
C594 C596 1.419 . S
C594 H598 0.930 . S
C595 C594 1.369 . S
C595 C604 1.429 . S
C596 C594 1.419 . S
C596 C597 1.363 . S
C596 H599 0.929 . S
C597 C596 1.363 . S
C597 C603 1.428 . S
H598 C594 0.930 . S
H599 C596 0.929 . S
S600 N601 1.613 . S
S600 N602 1.610 . S
N601 S600 1.613 . S
N601 C604 1.350 . S
N602 S600 1.610 . S
N602 C603 1.351 . S
C603 C597 1.428 . S
C603 N602 1.351 . S
C603 C604 1.434 . S
C604 C595 1.429 . S
C604 N601 1.350 . S
C604 C603 1.434 . S
C605 C606 1.369 . S
C605 C607 1.419 . S
C605 H609 0.930 . S
C606 C605 1.369 . S
C606 C615 1.429 . S
C607 C605 1.419 . S
C607 C608 1.363 . S
C607 H610 0.929 . S
C608 C607 1.363 . S
C608 C614 1.428 . S
H609 C605 0.930 . S
H610 C607 0.929 . S
S611 N612 1.613 . S
S611 N613 1.610 . S
N612 S611 1.613 . S
N612 C615 1.350 . S
N613 S611 1.610 . S
N613 C614 1.351 . S
C614 C608 1.428 . S
C614 N613 1.351 . S
C614 C615 1.434 . S
C615 C606 1.429 . S
C615 N612 1.350 . S
C615 C614 1.434 . S
C616 C617 1.369 . S
C616 C618 1.419 . S
C616 H620 0.930 . S
C617 C616 1.369 . S
C617 C626 1.429 . S
C618 C616 1.419 . S
C618 C619 1.363 . S
C618 H621 0.929 . S
C619 C618 1.363 . S
C619 C625 1.428 . S
H620 C616 0.930 . S
H621 C618 0.929 . S
S622 N623 1.613 . S
S622 N624 1.610 . S
N623 S622 1.613 . S
N623 C626 1.350 . S
N624 S622 1.610 . S
N624 C625 1.351 . S
C625 C619 1.428 . S
C625 N624 1.351 . S
C625 C626 1.434 . S
C626 C617 1.429 . S
C626 N623 1.350 . S
C626 C625 1.434 . S
C627 C628 1.369 . S
C627 C629 1.419 . S
C627 H631 0.930 . S
C628 C627 1.369 . S
C628 C637 1.429 1_565 S
C629 C627 1.419 . S
C629 C630 1.363 1_565 S
C629 H632 0.929 . S
C630 C629 1.363 1_545 S
C630 C636 1.428 . S
H631 C627 0.930 . S
H632 C629 0.929 . S
S633 N634 1.613 . S
S633 N635 1.610 . S
N634 S633 1.613 . S
N634 C637 1.350 . S
N635 S633 1.610 . S
N635 C636 1.351 . S
C636 C630 1.428 . S
C636 N635 1.351 . S
C636 C637 1.434 . S
C637 C628 1.429 1_545 S
C637 N634 1.350 . S
C637 C636 1.434 . S
C638 C639 1.369 . S
C638 C640 1.419 . S
C638 H642 0.930 . S
C639 C638 1.369 . S
C639 C648 1.429 . S
C640 C638 1.419 . S
C640 C641 1.363 . S
C640 H643 0.929 . S
C641 C640 1.363 . S
C641 C647 1.428 . S
H642 C638 0.930 . S
H643 C640 0.929 . S
S644 N645 1.613 . S
S644 N646 1.610 . S
N645 S644 1.613 . S
N645 C648 1.350 . S
N646 S644 1.610 . S
N646 C647 1.351 . S
C647 C641 1.428 . S
C647 N646 1.351 . S
C647 C648 1.434 . S
C648 C639 1.429 . S
C648 N645 1.350 . S
C648 C647 1.434 . S
C649 C650 1.369 . S
C649 C651 1.419 . S
C649 H653 0.930 . S
C650 C649 1.369 . S
C650 C659 1.429 1_545 S
C651 C649 1.419 . S
C651 C652 1.363 1_545 S
C651 H654 0.929 . S
C652 C651 1.363 1_565 S
C652 C658 1.428 . S
H653 C649 0.930 . S
H654 C651 0.929 . S
S655 N656 1.613 . S
S655 N657 1.610 . S
N656 S655 1.613 . S
N656 C659 1.350 . S
N657 S655 1.610 . S
N657 C658 1.351 . S
C658 C652 1.428 . S
C658 N657 1.351 . S
C658 C659 1.434 . S
C659 C650 1.429 1_565 S
C659 N656 1.350 . S
C659 C658 1.434 . S
C660 C661 1.369 . S
C660 C662 1.419 . S
C660 H664 0.930 . S
C661 C660 1.369 . S
C661 C670 1.429 . S
C662 C660 1.419 . S
C662 C663 1.363 . S
C662 H665 0.929 . S
C663 C662 1.363 . S
C663 C669 1.428 . S
H664 C660 0.930 . S
H665 C662 0.929 . S
S666 N667 1.613 . S
S666 N668 1.610 . S
N667 S666 1.613 . S
N667 C670 1.350 . S
N668 S666 1.610 . S
N668 C669 1.351 . S
C669 C663 1.428 . S
C669 N668 1.351 . S
C669 C670 1.434 . S
C670 C661 1.429 . S
C670 N667 1.350 . S
C670 C669 1.434 . S
C671 C672 1.368 . S
C671 C673 1.419 . S
C671 H675 0.930 . S
C672 C671 1.368 . S
C672 C681 1.429 1_556 S
C673 C671 1.419 . S
C673 C674 1.363 1_556 S
C673 H676 0.929 . S
C674 C673 1.363 1_554 S
C674 C680 1.428 . S
H675 C671 0.930 . S
H676 C673 0.929 . S
S677 N678 1.613 . S
S677 N679 1.610 . S
N678 S677 1.613 . S
N678 C681 1.350 . S
N679 S677 1.610 . S
N679 C680 1.351 . S
C680 C674 1.428 . S
C680 N679 1.351 . S
C680 C681 1.434 . S
C681 C672 1.429 1_554 S
C681 N678 1.350 . S
C681 C680 1.434 . S
C682 C683 1.369 . S
C682 C684 1.419 . S
C682 H686 0.930 . S
C683 C682 1.369 . S
C683 C692 1.429 . S
C684 C682 1.419 . S
C684 C685 1.363 . S
C684 H687 0.929 . S
C685 C684 1.363 . S
C685 C691 1.428 . S
H686 C682 0.930 . S
H687 C684 0.929 . S
S688 N689 1.613 1_554 S
S688 N690 1.610 1_554 S
N689 S688 1.613 1_556 S
N689 C692 1.350 . S
N690 S688 1.610 1_556 S
N690 C691 1.351 . S
C691 C685 1.428 . S
C691 N690 1.351 . S
C691 C692 1.434 . S
C692 C683 1.429 . S
C692 N689 1.350 . S
C692 C691 1.434 . S
C693 C694 1.394 . S
C693 C695 1.421 . S
C693 H697 0.902 1_554 S
C694 C693 1.394 . S
C694 C703 1.429 . S
C695 C693 1.421 . S
C695 C696 1.363 . S
C695 H698 0.929 1_554 S
C696 C695 1.363 . S
C696 C702 1.428 . S
H697 C693 0.902 1_556 S
H698 C695 0.929 1_556 S
S699 N700 1.613 . S
S699 N701 1.610 . S
N700 S699 1.613 . S
N700 C703 1.350 . S
N701 S699 1.610 . S
N701 C702 1.351 . S
C702 C696 1.428 . S
C702 N701 1.351 . S
C702 C703 1.434 . S
C703 C694 1.429 . S
C703 N700 1.350 . S
C703 C702 1.434 . S
C704 C705 1.369 1_655 S
C704 C706 1.419 . S
C704 H708 0.930 . S
C705 C704 1.369 1_455 S
C705 C714 1.429 . S
C706 C704 1.419 . S
C706 C707 1.363 . S
C706 H709 0.929 . S
C707 C706 1.363 . S
C707 C713 1.428 1_655 S
H708 C704 0.930 . S
H709 C706 0.929 . S
S710 N711 1.613 . S
S710 N712 1.610 . S
N711 S710 1.613 . S
N711 C714 1.350 . S
N712 S710 1.610 . S
N712 C713 1.351 . S
C713 C707 1.428 1_455 S
C713 N712 1.351 . S
C713 C714 1.434 . S
C714 C705 1.429 . S
C714 N711 1.350 . S
C714 C713 1.434 . S
C715 C716 1.374 . S
C715 C717 1.414 1_655 S
C715 H719 0.931 . S
C716 C715 1.374 . S
C716 C725 1.430 . S
C717 C715 1.414 1_455 S
C717 C718 1.363 . S
C717 H720 0.929 . S
C718 C717 1.363 . S
C718 C724 1.428 . S
H719 C715 0.931 . S
H720 C717 0.929 . S
S721 N722 1.613 1_455 S
S721 N723 1.610 . S
N722 S721 1.613 1_655 S
N722 C725 1.354 . S
N723 S721 1.610 . S
N723 C724 1.351 . S
C724 C718 1.428 . S
C724 N723 1.351 . S
C724 C725 1.428 1_455 S
C725 C716 1.430 . S
C725 N722 1.354 . S
C725 C724 1.428 1_655 S
C726 C727 1.369 . S
C726 C728 1.419 . S
C726 H730 0.930 . S
C727 C726 1.369 . S
C727 C736 1.429 1_455 S
C728 C726 1.419 . S
C728 C729 1.363 . S
C728 H731 0.929 . S
C729 C728 1.363 . S
C729 C735 1.428 1_455 S
H730 C726 0.930 . S
H731 C728 0.929 . S
S732 N733 1.613 . S
S732 N734 1.610 . S
N733 S732 1.613 . S
N733 C736 1.350 . S
N734 S732 1.610 . S
N734 C735 1.351 . S
C735 C729 1.428 1_655 S
C735 N734 1.351 . S
C735 C736 1.434 . S
C736 C727 1.429 1_655 S
C736 N733 1.350 . S
C736 C735 1.434 . S
C737 C738 1.369 . S
C737 C739 1.419 . S
C737 H741 0.930 . S
C738 C737 1.369 . S
C738 C747 1.429 1_655 S
C739 C737 1.419 . S
C739 C740 1.374 . S
C739 H742 0.929 . S
C740 C739 1.374 . S
C740 C746 1.423 1_655 S
H741 C737 0.930 . S
H742 C739 0.929 . S
S743 N744 1.613 . S
S743 N745 1.610 . S
N744 S743 1.613 . S
N744 C747 1.350 . S
N745 S743 1.610 . S
N745 C746 1.351 . S
C746 C740 1.423 1_455 S
C746 N745 1.351 . S
C746 C747 1.434 . S
C747 C738 1.429 1_455 S
C747 N744 1.350 . S
C747 C746 1.434 . S
C748 C749 1.369 . S
C748 C750 1.419 1_545 S
C748 H752 0.930 1_545 S
C749 C748 1.369 . S
C749 C758 1.429 . S
C750 C748 1.419 1_565 S
C750 C751 1.363 1_565 S
C750 H753 0.929 . S
C751 C750 1.363 1_545 S
C751 C757 1.428 . S
H752 C748 0.930 1_565 S
H753 C750 0.929 . S
S754 N755 1.613 . S
S754 N756 1.610 . S
N755 S754 1.613 . S
N755 C758 1.350 . S
N756 S754 1.610 . S
N756 C757 1.351 . S
C757 C751 1.428 . S
C757 N756 1.351 . S
C757 C758 1.434 . S
C758 C749 1.429 . S
C758 N755 1.350 . S
C758 C757 1.434 . S
C759 C760 1.369 . S
C759 C761 1.419 . S
C759 H763 0.930 . S
C760 C759 1.369 . S
C760 C769 1.429 . S
C761 C759 1.419 . S
C761 C762 1.363 . S
C761 H764 0.929 . S
C762 C761 1.363 . S
C762 C768 1.428 . S
H763 C759 0.930 . S
H764 C761 0.929 . S
S765 N766 1.613 . S
S765 N767 1.610 . S
N766 S765 1.613 . S
N766 C769 1.350 . S
N767 S765 1.610 . S
N767 C768 1.351 . S
C768 C762 1.428 . S
C768 N767 1.351 . S
C768 C769 1.434 . S
C769 C760 1.429 . S
C769 N766 1.350 . S
C769 C768 1.434 . S
C770 C771 1.369 . S
C770 C772 1.419 . S
C770 H774 0.930 . S
C771 C770 1.369 . S
C771 C780 1.429 1_565 S
C772 C770 1.419 . S
C772 C773 1.363 . S
C772 H775 0.929 . S
C773 C772 1.363 . S
C773 C779 1.428 1_565 S
H774 C770 0.930 . S
H775 C772 0.929 . S
S776 N777 1.613 . S
S776 N778 1.610 . S
N777 S776 1.613 . S
N777 C780 1.350 . S
N778 S776 1.610 . S
N778 C779 1.351 . S
C779 C773 1.428 1_545 S
C779 N778 1.351 . S
C779 C780 1.434 . S
C780 C771 1.429 1_545 S
C780 N777 1.350 . S
C780 C779 1.434 . S
C781 C782 1.369 . S
C781 C783 1.419 . S
C781 H785 0.930 . S
C782 C781 1.369 . S
C782 C791 1.429 . S
C783 C781 1.419 . S
C783 C784 1.363 . S
C783 H786 0.929 . S
C784 C783 1.363 . S
C784 C790 1.428 . S
H785 C781 0.930 . S
H786 C783 0.929 . S
S787 N788 1.613 . S
S787 N789 1.610 . S
N788 S787 1.613 . S
N788 C791 1.350 . S
N789 S787 1.610 . S
N789 C790 1.351 . S
C790 C784 1.428 . S
C790 N789 1.351 . S
C790 C791 1.434 . S
C791 C782 1.429 . S
C791 N788 1.350 . S
C791 C790 1.434 . S
C792 C793 1.369 . S
C792 C794 1.419 . S
C792 H796 0.930 . S
C793 C792 1.369 . S
C793 C802 1.429 1_554 S
C794 C792 1.419 . S
C794 C795 1.363 . S
C794 H797 0.929 . S
C795 C794 1.363 . S
C795 C801 1.415 1_554 S
H796 C792 0.930 . S
H797 C794 0.929 . S
S798 N799 1.613 . S
S798 N800 1.610 . S
N799 S798 1.613 . S
N799 C802 1.350 . S
N800 S798 1.610 . S
N800 C801 1.367 . S
C801 C795 1.415 1_556 S
C801 N800 1.367 . S
C801 C802 1.432 . S
C802 C793 1.429 1_556 S
C802 N799 1.350 . S
C802 C801 1.432 . S
C803 C804 1.369 . S
C803 C805 1.419 . S
C803 H807 0.930 . S
C804 C803 1.369 . S
C804 C813 1.429 . S
C805 C803 1.419 . S
C805 C806 1.363 . S
C805 H808 0.929 . S
C806 C805 1.363 . S
C806 C812 1.428 . S
H807 C803 0.930 . S
H808 C805 0.929 . S
S809 N810 1.613 . S
S809 N811 1.610 . S
N810 S809 1.613 . S
N810 C813 1.350 . S
N811 S809 1.610 . S
N811 C812 1.351 . S
C812 C806 1.428 . S
C812 N811 1.351 . S
C812 C813 1.434 . S
C813 C804 1.429 . S
C813 N810 1.350 . S
C813 C812 1.434 . S
C814 C815 1.369 . S
C814 C816 1.419 . S
C814 H818 0.930 . S
C815 C814 1.369 . S
C815 C824 1.429 . S
C816 C814 1.419 . S
C816 C817 1.363 . S
C816 H819 0.929 . S
C817 C816 1.363 . S
C817 C823 1.428 . S
H818 C814 0.930 . S
H819 C816 0.929 . S
S820 N821 1.613 . S
S820 N822 1.610 . S
N821 S820 1.613 . S
N821 C824 1.350 . S
N822 S820 1.610 . S
N822 C823 1.351 . S
C823 C817 1.428 . S
C823 N822 1.351 . S
C823 C824 1.434 . S
C824 C815 1.429 . S
C824 N821 1.350 . S
C824 C823 1.434 . S
C825 C826 1.369 . S
C825 C827 1.419 . S
C825 H829 0.930 . S
C826 C825 1.369 . S
C826 C835 1.429 . S
C827 C825 1.419 . S
C827 C828 1.363 . S
C827 H830 0.929 . S
C828 C827 1.363 . S
C828 C834 1.428 . S
H829 C825 0.930 . S
H830 C827 0.929 . S
S831 N832 1.613 . S
S831 N833 1.610 . S
N832 S831 1.613 . S
N832 C835 1.350 . S
N833 S831 1.610 . S
N833 C834 1.351 . S
C834 C828 1.428 . S
C834 N833 1.351 . S
C834 C835 1.434 . S
C835 C826 1.429 . S
C835 N832 1.350 . S
C835 C834 1.434 . S
C836 C837 1.369 . S
C836 C838 1.419 . S
C836 H840 0.930 . S
C837 C836 1.369 . S
C837 C846 1.429 . S
C838 C836 1.419 . S
C838 C839 1.363 . S
C838 H841 0.929 . S
C839 C838 1.363 . S
C839 C845 1.428 . S
H840 C836 0.930 . S
H841 C838 0.929 . S
S842 N843 1.613 . S
S842 N844 1.610 . S
N843 S842 1.613 . S
N843 C846 1.350 . S
N844 S842 1.610 . S
N844 C845 1.351 . S
C845 C839 1.428 . S
C845 N844 1.351 . S
C845 C846 1.434 . S
C846 C837 1.429 . S
C846 N843 1.350 . S
C846 C845 1.434 . S
C847 C848 1.369 . S
C847 C849 1.419 . S
C847 H851 0.930 . S
C848 C847 1.369 . S
C848 C857 1.429 . S
C849 C847 1.419 . S
C849 C850 1.363 . S
C849 H852 0.929 . S
C850 C849 1.363 . S
C850 C856 1.428 . S
H851 C847 0.930 . S
H852 C849 0.929 . S
S853 N854 1.613 . S
S853 N855 1.610 . S
N854 S853 1.613 . S
N854 C857 1.350 . S
N855 S853 1.610 . S
N855 C856 1.351 . S
C856 C850 1.428 . S
C856 N855 1.351 . S
C856 C857 1.434 . S
C857 C848 1.429 . S
C857 N854 1.350 . S
C857 C856 1.434 . S
C858 C859 1.369 . S
C858 C860 1.419 . S
C858 H862 0.930 . S
C859 C858 1.369 . S
C859 C868 1.429 . S
C860 C858 1.419 . S
C860 C861 1.363 . S
C860 H863 0.929 . S
C861 C860 1.363 . S
C861 C867 1.428 . S
H862 C858 0.930 . S
H863 C860 0.929 . S
S864 N865 1.613 . S
S864 N866 1.610 . S
N865 S864 1.613 . S
N865 C868 1.350 . S
N866 S864 1.610 . S
N866 C867 1.351 . S
C867 C861 1.428 . S
C867 N866 1.351 . S
C867 C868 1.434 . S
C868 C859 1.429 . S
C868 N865 1.350 . S
C868 C867 1.434 . S
C869 C870 1.369 . S
C869 C871 1.419 . S
C869 H873 0.930 . S
C870 C869 1.369 . S
C870 C879 1.429 . S
C871 C869 1.419 . S
C871 C872 1.363 . S
C871 H874 0.929 . S
C872 C871 1.363 . S
C872 C878 1.428 . S
H873 C869 0.930 . S
H874 C871 0.929 . S
S875 N876 1.613 . S
S875 N877 1.610 . S
N876 S875 1.613 . S
N876 C879 1.350 . S
N877 S875 1.610 . S
N877 C878 1.351 . S
C878 C872 1.428 . S
C878 N877 1.351 . S
C878 C879 1.434 . S
C879 C870 1.429 . S
C879 N876 1.350 . S
C879 C878 1.434 . S
C880 C881 1.369 . S
C880 C882 1.419 . S
C880 H884 0.930 . S
C881 C880 1.369 . S
C881 C890 1.429 . S
C882 C880 1.419 . S
C882 C883 1.363 . S
C882 H885 0.929 . S
C883 C882 1.363 . S
C883 C889 1.428 . S
H884 C880 0.930 . S
H885 C882 0.929 . S
S886 N887 1.613 . S
S886 N888 1.610 . S
N887 S886 1.613 . S
N887 C890 1.350 . S
N888 S886 1.610 . S
N888 C889 1.351 . S
C889 C883 1.428 . S
C889 N888 1.351 . S
C889 C890 1.434 . S
C890 C881 1.429 . S
C890 N887 1.350 . S
C890 C889 1.434 . S
C891 C892 1.369 . S
C891 C893 1.419 . S
C891 H895 0.930 . S
C892 C891 1.369 . S
C892 C901 1.429 1_565 S
C893 C891 1.419 . S
C893 C894 1.354 1_565 S
C893 H896 0.929 . S
C894 C893 1.354 1_545 S
C894 C900 1.438 . S
H895 C891 0.930 . S
H896 C893 0.929 . S
S897 N898 1.613 . S
S897 N899 1.610 . S
N898 S897 1.613 . S
N898 C901 1.350 . S
N899 S897 1.610 . S
N899 C900 1.351 . S
C900 C894 1.438 . S
C900 N899 1.351 . S
C900 C901 1.434 . S
C901 C892 1.429 1_545 S
C901 N898 1.350 . S
C901 C900 1.434 . S
C902 C903 1.369 . S
C902 C904 1.419 . S
C902 H906 0.930 . S
C903 C902 1.369 . S
C903 C912 1.429 . S
C904 C902 1.419 . S
C904 C905 1.363 . S
C904 H907 0.929 . S
C905 C904 1.363 . S
C905 C911 1.428 . S
H906 C902 0.930 . S
H907 C904 0.929 . S
S908 N909 1.613 . S
S908 N910 1.610 . S
N909 S908 1.613 . S
N909 C912 1.350 . S
N910 S908 1.610 . S
N910 C911 1.351 . S
C911 C905 1.428 . S
C911 N910 1.351 . S
C911 C912 1.434 . S
C912 C903 1.429 . S
C912 N909 1.350 . S
C912 C911 1.434 . S
C913 C914 1.369 . S
C913 C915 1.419 . S
C913 H917 0.930 . S
C914 C913 1.369 . S
C914 C923 1.429 1_545 S
C915 C913 1.419 . S
C915 C916 1.363 1_545 S
C915 H918 0.929 . S
C916 C915 1.363 1_565 S
C916 C922 1.428 . S
H917 C913 0.930 . S
H918 C915 0.929 . S
S919 N920 1.613 . S
S919 N921 1.610 . S
N920 S919 1.613 . S
N920 C923 1.350 . S
N921 S919 1.610 . S
N921 C922 1.351 . S
C922 C916 1.428 . S
C922 N921 1.351 . S
C922 C923 1.434 . S
C923 C914 1.429 1_565 S
C923 N920 1.350 . S
C923 C922 1.434 . S
C924 C925 1.369 . S
C924 C926 1.419 . S
C924 H928 0.930 . S
C925 C924 1.369 . S
C925 C934 1.429 . S
C926 C924 1.419 . S
C926 C927 1.363 . S
C926 H929 0.929 . S
C927 C926 1.363 . S
C927 C933 1.428 . S
H928 C924 0.930 . S
H929 C926 0.929 . S
S930 N931 1.613 . S
S930 N932 1.610 . S
N931 S930 1.613 . S
N931 C934 1.350 . S
N932 S930 1.610 . S
N932 C933 1.351 . S
C933 C927 1.428 . S
C933 N932 1.351 . S
C933 C934 1.434 . S
C934 C925 1.429 . S
C934 N931 1.350 . S
C934 C933 1.434 . S
C935 C936 1.369 . S
C935 C937 1.419 . S
C935 H939 0.930 . S
C936 C935 1.369 . S
C936 C945 1.429 1_556 S
C937 C935 1.419 . S
C937 C938 1.363 . S
C937 H940 0.929 . S
C938 C937 1.363 . S
C938 C944 1.428 1_556 S
H939 C935 0.930 . S
H940 C937 0.929 . S
S941 N942 1.613 . S
S941 N943 1.610 . S
N942 S941 1.613 . S
N942 C945 1.350 . S
N943 S941 1.610 . S
N943 C944 1.351 . S
C944 C938 1.428 1_554 S
C944 N943 1.351 . S
C944 C945 1.434 . S
C945 C936 1.429 1_554 S
C945 N942 1.350 . S
C945 C944 1.434 . S
C946 C947 1.369 . S
C946 C948 1.419 . S
C946 H950 0.930 . S
C947 C946 1.369 . S
C947 C956 1.429 . S
C948 C946 1.419 . S
C948 C949 1.363 . S
C948 H951 0.929 . S
C949 C948 1.363 . S
C949 C955 1.428 . S
H950 C946 0.930 . S
H951 C948 0.929 . S
S952 N953 1.614 1_554 S
S952 N954 1.608 1_554 S
N953 S952 1.614 1_556 S
N953 C956 1.350 . S
N954 S952 1.608 1_556 S
N954 C955 1.351 . S
C955 C949 1.428 . S
C955 N954 1.351 . S
C955 C956 1.434 . S
C956 C947 1.429 . S
C956 N953 1.350 . S
C956 C955 1.434 . S
C957 C958 1.369 . S
C957 C959 1.419 . S
C957 H961 0.930 . S
C958 C957 1.369 . S
C958 C967 1.429 1_554 S
C959 C957 1.419 . S
C959 C960 1.363 . S
C959 H962 0.929 . S
C960 C959 1.363 . S
C960 C966 1.428 1_554 S
H961 C957 0.930 . S
H962 C959 0.929 . S
S963 N964 1.613 . S
S963 N965 1.610 . S
N964 S963 1.613 . S
N964 C967 1.350 . S
N965 S963 1.610 . S
N965 C966 1.351 . S
C966 C960 1.428 1_556 S
C966 N965 1.351 . S
C966 C967 1.434 . S
C967 C958 1.429 1_556 S
C967 N964 1.350 . S
C967 C966 1.434 . S
C441 C13 1.628 . S
C443 C236 1.641 . S
C454 C299 1.816 . S
C452 C1 1.837 . S
C465 C176 1.850 . S
C463 C27 1.839 . S
C474 C15 1.733 . S
C476 C210 1.719 . S
C485 C28 1.818 . S
C487 C414 1.798 1_554 S
C496 C55 1.149 . S
C498 C385 1.139 . S
C509 C308 2.022 . S
C507 C40 2.139 . S
C518 C43 1.425 . S
C520 C342 1.397 . S
C531 C231 1.930 . S
C529 C56 1.968 . S
C542 C274 1.360 . S
C540 C83 1.390 . S
C551 C96 1.954 . S
C553 C253 1.899 . S
C562 C71 1.574 . S
C564 C367 1.560 . S
C575 C372 1.645 . S
C573 C99 1.618 . S
C586 C435 1.821 . S
C584 C111 1.835 . S
C595 C113 1.837 . S
C597 C346 1.852 . S
C608 C312 1.717 . S
C606 C125 1.732 . S
C617 C139 1.821 . S
C619 C278 1.798 . S
C628 C153 1.149 . S
C630 C249 1.140 . S
C641 C206 2.025 . S
C639 C127 2.141 . S
C650 C141 1.420 . S
C652 C172 1.405 . S
C663 C333 1.932 . S
C661 C84 1.964 . S
C674 C410 1.366 1_554 S
C672 C154 1.386 1_556 S
C683 C68 1.957 . S
C685 C389 1.896 . S
C694 C166 1.576 . S
C696 C197 1.557 . S
C707 C181 1.198 . S
C705 C0 1.256 . S
C716 C12 1.183 . S
C718 C215 1.180 . S
C729 C240 1.071 . S
C727 C14 1.104 . S
C740 C287 1.927 . S
C738 C26 1.932 . S
C749 C41 1.623 . S
C751 C168 1.569 . S
C760 C42 1.472 . S
C762 C202 1.445 . S
C773 C244 1.607 . S
C771 C29 1.664 1_565 S
C782 C54 1.243 . S
C784 C283 1.140 . S
C793 C69 1.746 . S
C795 C185 1.688 . S
C806 C265 1.749 . S
C804 C70 1.811 . S
C815 C85 1.628 . S
C817 C270 1.627 . S
C826 C82 1.569 . S
C828 C321 1.533 . S
C839 C351 1.208 . S
C837 C110 1.247 . S
C848 C98 1.192 . S
C850 C317 1.174 . S
C859 C124 1.104 . S
C861 C376 1.071 . S
C870 C112 1.925 . S
C872 C423 1.924 . S
C881 C126 1.624 . S
C883 C338 1.570 . S
C894 C304 1.448 1_545 S
C892 C140 1.470 . S
C903 C138 1.665 . S
C905 C380 1.609 . S
C916 C419 1.147 . S
C914 C152 1.236 . S
C927 C355 1.685 . S
C925 C97 1.745 . S
C938 C401 1.753 . S
C936 C167 1.810 . S
C949 C406 1.625 . S
C947 C57 1.627 . S
C958 C155 1.566 . S
C960 C219 1.536 . S
