# Generated by pormake.
# Topology gar, (4,6)-cn, num edge types: 1
# Building blocks:
#     Node 0, Type 0, BuildingBlock: UXUYUI_clean_sbu_0, # of connection points: 4
#     Node 1, Type 0, BuildingBlock: UXUYUI_clean_sbu_0, # of connection points: 4
#     Node 2, Type 0, BuildingBlock: UXUYUI_clean_sbu_0, # of connection points: 4
#     Node 3, Type 0, BuildingBlock: UXUYUI_clean_sbu_0, # of connection points: 4
#     Node 4, Type 0, BuildingBlock: UXUYUI_clean_sbu_0, # of connection points: 4
#     Node 5, Type 0, BuildingBlock: UXUYUI_clean_sbu_0, # of connection points: 4
#     Node 6, Type 0, BuildingBlock: UXUYUI_clean_sbu_0, # of connection points: 4
#     Node 7, Type 0, BuildingBlock: UXUYUI_clean_sbu_0, # of connection points: 4
#     Node 8, Type 0, BuildingBlock: UXUYUI_clean_sbu_0, # of connection points: 4
#     Node 9, Type 0, BuildingBlock: UXUYUI_clean_sbu_0, # of connection points: 4
#     Node 10, Type 0, BuildingBlock: UXUYUI_clean_sbu_0, # of connection points: 4
#     Node 11, Type 0, BuildingBlock: UXUYUI_clean_sbu_0, # of connection points: 4
#     Node 12, Type 0, BuildingBlock: UXUYUI_clean_sbu_0, # of connection points: 4
#     Node 13, Type 0, BuildingBlock: UXUYUI_clean_sbu_0, # of connection points: 4
#     Node 14, Type 0, BuildingBlock: UXUYUI_clean_sbu_0, # of connection points: 4
#     Node 15, Type 0, BuildingBlock: UXUYUI_clean_sbu_0, # of connection points: 4
#     Node 16, Type 0, BuildingBlock: UXUYUI_clean_sbu_0, # of connection points: 4
#     Node 17, Type 0, BuildingBlock: UXUYUI_clean_sbu_0, # of connection points: 4
#     Node 18, Type 0, BuildingBlock: UXUYUI_clean_sbu_0, # of connection points: 4
#     Node 19, Type 0, BuildingBlock: UXUYUI_clean_sbu_0, # of connection points: 4
#     Node 20, Type 0, BuildingBlock: UXUYUI_clean_sbu_0, # of connection points: 4
#     Node 21, Type 0, BuildingBlock: UXUYUI_clean_sbu_0, # of connection points: 4
#     Node 22, Type 0, BuildingBlock: UXUYUI_clean_sbu_0, # of connection points: 4
#     Node 23, Type 0, BuildingBlock: UXUYUI_clean_sbu_0, # of connection points: 4
#     Node 24, Type 1, BuildingBlock: BETFEN_clean_sbu_0, # of connection points: 6
#     Node 25, Type 1, BuildingBlock: BETFEN_clean_sbu_0, # of connection points: 6
#     Node 26, Type 1, BuildingBlock: BETFEN_clean_sbu_0, # of connection points: 6
#     Node 27, Type 1, BuildingBlock: BETFEN_clean_sbu_0, # of connection points: 6
#     Node 28, Type 1, BuildingBlock: BETFEN_clean_sbu_0, # of connection points: 6
#     Node 29, Type 1, BuildingBlock: BETFEN_clean_sbu_0, # of connection points: 6
#     Node 30, Type 1, BuildingBlock: BETFEN_clean_sbu_0, # of connection points: 6
#     Node 31, Type 1, BuildingBlock: BETFEN_clean_sbu_0, # of connection points: 6
#     Node 32, Type 1, BuildingBlock: BETFEN_clean_sbu_0, # of connection points: 6
#     Node 33, Type 1, BuildingBlock: BETFEN_clean_sbu_0, # of connection points: 6
#     Node 34, Type 1, BuildingBlock: BETFEN_clean_sbu_0, # of connection points: 6
#     Node 35, Type 1, BuildingBlock: BETFEN_clean_sbu_0, # of connection points: 6
#     Node 36, Type 1, BuildingBlock: BETFEN_clean_sbu_0, # of connection points: 6
#     Node 37, Type 1, BuildingBlock: BETFEN_clean_sbu_0, # of connection points: 6
#     Node 38, Type 1, BuildingBlock: BETFEN_clean_sbu_0, # of connection points: 6
#     Node 39, Type 1, BuildingBlock: BETFEN_clean_sbu_0, # of connection points: 6
#     Edge 40, Type (0, 1), BuildingBlock: OJICUG_clean_linker_0, # of connection points: 2
#     Edge 41, Type (0, 1), BuildingBlock: OJICUG_clean_linker_0, # of connection points: 2
#     Edge 42, Type (0, 1), BuildingBlock: OJICUG_clean_linker_0, # of connection points: 2
#     Edge 43, Type (0, 1), BuildingBlock: OJICUG_clean_linker_0, # of connection points: 2
#     Edge 44, Type (0, 1), BuildingBlock: OJICUG_clean_linker_0, # of connection points: 2
#     Edge 45, Type (0, 1), BuildingBlock: OJICUG_clean_linker_0, # of connection points: 2
#     Edge 46, Type (0, 1), BuildingBlock: OJICUG_clean_linker_0, # of connection points: 2
#     Edge 47, Type (0, 1), BuildingBlock: OJICUG_clean_linker_0, # of connection points: 2
#     Edge 48, Type (0, 1), BuildingBlock: OJICUG_clean_linker_0, # of connection points: 2
#     Edge 49, Type (0, 1), BuildingBlock: OJICUG_clean_linker_0, # of connection points: 2
#     Edge 50, Type (0, 1), BuildingBlock: OJICUG_clean_linker_0, # of connection points: 2
#     Edge 51, Type (0, 1), BuildingBlock: OJICUG_clean_linker_0, # of connection points: 2
#     Edge 52, Type (0, 1), BuildingBlock: OJICUG_clean_linker_0, # of connection points: 2
#     Edge 53, Type (0, 1), BuildingBlock: OJICUG_clean_linker_0, # of connection points: 2
#     Edge 54, Type (0, 1), BuildingBlock: OJICUG_clean_linker_0, # of connection points: 2
#     Edge 55, Type (0, 1), BuildingBlock: OJICUG_clean_linker_0, # of connection points: 2
#     Edge 56, Type (0, 1), BuildingBlock: OJICUG_clean_linker_0, # of connection points: 2
#     Edge 57, Type (0, 1), BuildingBlock: OJICUG_clean_linker_0, # of connection points: 2
#     Edge 58, Type (0, 1), BuildingBlock: OJICUG_clean_linker_0, # of connection points: 2
#     Edge 59, Type (0, 1), BuildingBlock: OJICUG_clean_linker_0, # of connection points: 2
#     Edge 60, Type (0, 1), BuildingBlock: OJICUG_clean_linker_0, # of connection points: 2
#     Edge 61, Type (0, 1), BuildingBlock: OJICUG_clean_linker_0, # of connection points: 2
#     Edge 62, Type (0, 1), BuildingBlock: OJICUG_clean_linker_0, # of connection points: 2
#     Edge 63, Type (0, 1), BuildingBlock: OJICUG_clean_linker_0, # of connection points: 2
#     Edge 64, Type (0, 1), BuildingBlock: OJICUG_clean_linker_0, # of connection points: 2
#     Edge 65, Type (0, 1), BuildingBlock: OJICUG_clean_linker_0, # of connection points: 2
#     Edge 66, Type (0, 1), BuildingBlock: OJICUG_clean_linker_0, # of connection points: 2
#     Edge 67, Type (0, 1), BuildingBlock: OJICUG_clean_linker_0, # of connection points: 2
#     Edge 68, Type (0, 1), BuildingBlock: OJICUG_clean_linker_0, # of connection points: 2
#     Edge 69, Type (0, 1), BuildingBlock: OJICUG_clean_linker_0, # of connection points: 2
#     Edge 70, Type (0, 1), BuildingBlock: OJICUG_clean_linker_0, # of connection points: 2
#     Edge 71, Type (0, 1), BuildingBlock: OJICUG_clean_linker_0, # of connection points: 2
#     Edge 72, Type (0, 1), BuildingBlock: OJICUG_clean_linker_0, # of connection points: 2
#     Edge 73, Type (0, 1), BuildingBlock: OJICUG_clean_linker_0, # of connection points: 2
#     Edge 74, Type (0, 1), BuildingBlock: OJICUG_clean_linker_0, # of connection points: 2
#     Edge 75, Type (0, 1), BuildingBlock: OJICUG_clean_linker_0, # of connection points: 2
#     Edge 76, Type (0, 1), BuildingBlock: OJICUG_clean_linker_0, # of connection points: 2
#     Edge 77, Type (0, 1), BuildingBlock: OJICUG_clean_linker_0, # of connection points: 2
#     Edge 78, Type (0, 1), BuildingBlock: OJICUG_clean_linker_0, # of connection points: 2
#     Edge 79, Type (0, 1), BuildingBlock: OJICUG_clean_linker_0, # of connection points: 2
#     Edge 80, Type (0, 1), BuildingBlock: OJICUG_clean_linker_0, # of connection points: 2
#     Edge 81, Type (0, 1), BuildingBlock: OJICUG_clean_linker_0, # of connection points: 2
#     Edge 82, Type (0, 1), BuildingBlock: OJICUG_clean_linker_0, # of connection points: 2
#     Edge 83, Type (0, 1), BuildingBlock: OJICUG_clean_linker_0, # of connection points: 2
#     Edge 84, Type (0, 1), BuildingBlock: OJICUG_clean_linker_0, # of connection points: 2
#     Edge 85, Type (0, 1), BuildingBlock: OJICUG_clean_linker_0, # of connection points: 2
#     Edge 86, Type (0, 1), BuildingBlock: OJICUG_clean_linker_0, # of connection points: 2
#     Edge 87, Type (0, 1), BuildingBlock: OJICUG_clean_linker_0, # of connection points: 2
#     Edge 88, Type (0, 1), BuildingBlock: OJICUG_clean_linker_0, # of connection points: 2
#     Edge 89, Type (0, 1), BuildingBlock: OJICUG_clean_linker_0, # of connection points: 2
#     Edge 90, Type (0, 1), BuildingBlock: OJICUG_clean_linker_0, # of connection points: 2
#     Edge 91, Type (0, 1), BuildingBlock: OJICUG_clean_linker_0, # of connection points: 2
#     Edge 92, Type (0, 1), BuildingBlock: OJICUG_clean_linker_0, # of connection points: 2
#     Edge 93, Type (0, 1), BuildingBlock: OJICUG_clean_linker_0, # of connection points: 2
#     Edge 94, Type (0, 1), BuildingBlock: OJICUG_clean_linker_0, # of connection points: 2
#     Edge 95, Type (0, 1), BuildingBlock: OJICUG_clean_linker_0, # of connection points: 2
#     Edge 96, Type (0, 1), BuildingBlock: OJICUG_clean_linker_0, # of connection points: 2
#     Edge 97, Type (0, 1), BuildingBlock: OJICUG_clean_linker_0, # of connection points: 2
#     Edge 98, Type (0, 1), BuildingBlock: OJICUG_clean_linker_0, # of connection points: 2
#     Edge 99, Type (0, 1), BuildingBlock: OJICUG_clean_linker_0, # of connection points: 2
#     Edge 100, Type (0, 1), BuildingBlock: OJICUG_clean_linker_0, # of connection points: 2
#     Edge 101, Type (0, 1), BuildingBlock: OJICUG_clean_linker_0, # of connection points: 2
#     Edge 102, Type (0, 1), BuildingBlock: OJICUG_clean_linker_0, # of connection points: 2
#     Edge 103, Type (0, 1), BuildingBlock: OJICUG_clean_linker_0, # of connection points: 2
#     Edge 104, Type (0, 1), BuildingBlock: OJICUG_clean_linker_0, # of connection points: 2
#     Edge 105, Type (0, 1), BuildingBlock: OJICUG_clean_linker_0, # of connection points: 2
#     Edge 106, Type (0, 1), BuildingBlock: OJICUG_clean_linker_0, # of connection points: 2
#     Edge 107, Type (0, 1), BuildingBlock: OJICUG_clean_linker_0, # of connection points: 2
#     Edge 108, Type (0, 1), BuildingBlock: OJICUG_clean_linker_0, # of connection points: 2
#     Edge 109, Type (0, 1), BuildingBlock: OJICUG_clean_linker_0, # of connection points: 2
#     Edge 110, Type (0, 1), BuildingBlock: OJICUG_clean_linker_0, # of connection points: 2
#     Edge 111, Type (0, 1), BuildingBlock: OJICUG_clean_linker_0, # of connection points: 2
#     Edge 112, Type (0, 1), BuildingBlock: OJICUG_clean_linker_0, # of connection points: 2
#     Edge 113, Type (0, 1), BuildingBlock: OJICUG_clean_linker_0, # of connection points: 2
#     Edge 114, Type (0, 1), BuildingBlock: OJICUG_clean_linker_0, # of connection points: 2
#     Edge 115, Type (0, 1), BuildingBlock: OJICUG_clean_linker_0, # of connection points: 2
#     Edge 116, Type (0, 1), BuildingBlock: OJICUG_clean_linker_0, # of connection points: 2
#     Edge 117, Type (0, 1), BuildingBlock: OJICUG_clean_linker_0, # of connection points: 2
#     Edge 118, Type (0, 1), BuildingBlock: OJICUG_clean_linker_0, # of connection points: 2
#     Edge 119, Type (0, 1), BuildingBlock: OJICUG_clean_linker_0, # of connection points: 2
#     Edge 120, Type (0, 1), BuildingBlock: OJICUG_clean_linker_0, # of connection points: 2
#     Edge 121, Type (0, 1), BuildingBlock: OJICUG_clean_linker_0, # of connection points: 2
#     Edge 122, Type (0, 1), BuildingBlock: OJICUG_clean_linker_0, # of connection points: 2
#     Edge 123, Type (0, 1), BuildingBlock: OJICUG_clean_linker_0, # of connection points: 2
#     Edge 124, Type (0, 1), BuildingBlock: OJICUG_clean_linker_0, # of connection points: 2
#     Edge 125, Type (0, 1), BuildingBlock: OJICUG_clean_linker_0, # of connection points: 2
#     Edge 126, Type (0, 1), BuildingBlock: OJICUG_clean_linker_0, # of connection points: 2
#     Edge 127, Type (0, 1), BuildingBlock: OJICUG_clean_linker_0, # of connection points: 2
#     Edge 128, Type (0, 1), BuildingBlock: OJICUG_clean_linker_0, # of connection points: 2
#     Edge 129, Type (0, 1), BuildingBlock: OJICUG_clean_linker_0, # of connection points: 2
#     Edge 130, Type (0, 1), BuildingBlock: OJICUG_clean_linker_0, # of connection points: 2
#     Edge 131, Type (0, 1), BuildingBlock: OJICUG_clean_linker_0, # of connection points: 2
#     Edge 132, Type (0, 1), BuildingBlock: OJICUG_clean_linker_0, # of connection points: 2
#     Edge 133, Type (0, 1), BuildingBlock: OJICUG_clean_linker_0, # of connection points: 2
#     Edge 134, Type (0, 1), BuildingBlock: OJICUG_clean_linker_0, # of connection points: 2
#     Edge 135, Type (0, 1), BuildingBlock: OJICUG_clean_linker_0, # of connection points: 2
# Relax obj value: 0.234
# Max RMSD: 0.313
# Mean RMSD: 0.207
data_MOF--net-gar--node1-UXUYUI_clean_sbu_0--node2-BETFEN_clean_sbu_0--edge1-OJICUG_clean_linker_0
_symmetry_space_group_name_H-M    P1
_symmetry_Int_Tables_number       1
_symmetry_cell_setting            triclinic
loop_
_symmetry_equiv_pos_as_xyz
'x, y, z'
_cell_length_a     61.688155
_cell_length_b     54.914117
_cell_length_c     54.971477
_cell_angle_alpha  94.476411
_cell_angle_beta   99.249436
_cell_angle_gamma 102.59876
loop_
_atom_site_label
_atom_site_type_symbol
_atom_site_fract_x
_atom_site_fract_y
_atom_site_fract_z
_atom_type_partial_charge
Li0 Li 1.01245 0.32368 0.41187 0.0
Li1 Li 0.04104 0.3512 0.44645 0.0
Li2 Li 0.05368 0.32409 0.41338 0.0
Li3 Li 0.03529 0.30369 0.44516 0.0
C4 C 0.04142 0.36842 0.39254 0.0
N5 N 0.04844 0.4014 0.35749 0.0
C6 C 0.03957 0.3932 0.39722 0.0
C7 C 0.04691 0.36047 0.36999 0.0
C8 C 0.04315 0.40957 0.37929 0.0
C9 C 0.05039 0.3774 0.35253 0.0
C10 C 1.00364 0.33562 0.46637 0.0
C11 C 1.00397 0.34873 0.5093 0.0
N12 N 0.98575 0.35847 0.50231 0.0
C13 C 0.98485 0.34557 0.45957 0.0
C14 C 1.01323 0.33705 0.49139 0.0
C15 C 0.97608 0.35712 0.47804 0.0
C16 C 0.96475 0.30431 0.39225 0.0
N17 N 0.98336 0.3225 0.39105 0.0
C18 C 0.96113 0.34152 0.36166 0.0
C19 C 0.98184 0.34081 0.37599 0.0
C20 C 0.94145 0.32334 0.36282 0.0
C21 C 0.94359 0.30437 0.37826 0.0
H22 H 0.96625 0.28998 0.40443 0.0
H23 H 0.99665 0.35513 0.37517 0.0
C24 C 0.06764 0.39682 0.47847 0.0
N25 N 0.04689 0.38533 0.46496 0.0
C26 C 0.07211 0.42186 0.48954 0.0
C27 C 0.03392 0.42313 0.47274 0.0
C28 C 0.03015 0.39808 0.46211 0.0
C29 C 0.05519 0.43562 0.4867 0.0
H30 H 0.08095 0.38675 0.48027 0.0
H31 H 1.01394 0.38909 0.45081 0.0
C32 C 0.0207 0.28054 0.3856 0.0
N33 N 1.00727 0.25203 0.33972 0.0
C34 C 0.01869 0.25456 0.38365 0.0
C35 C 0.01547 0.29189 0.36425 0.0
C36 C 1.01202 0.24051 0.36028 0.0
C37 C 1.0088 0.27721 0.34123 0.0
C38 C 0.07786 0.3221 0.46779 0.0
C39 C 0.09085 0.30573 0.46092 0.0
C40 C 0.07855 0.32936 0.49287 0.0
C41 C 0.10419 0.2966 0.47939 0.0
C42 C 0.09214 0.31985 0.51078 0.0
N43 N 0.10454 0.30378 0.50373 0.0
C44 C 0.09422 0.34235 0.39474 0.0
C45 C 0.07873 0.29857 0.38542 0.0
C46 C 0.11264 0.34034 0.38341 0.0
N47 N 0.0777 0.32162 0.39548 0.0
C48 C 0.09676 0.29571 0.37387 0.0
C49 C 0.11421 0.31671 0.37289 0.0
H50 H 0.09328 0.36041 0.40334 0.0
H51 H 0.06582 0.28222 0.38681 0.0
C52 C 0.02895 0.26802 0.48333 0.0
N53 N 0.03666 0.27327 0.46199 0.0
C54 C 0.03067 0.24548 0.49335 0.0
C55 C 0.04812 0.23405 0.45936 0.0
C56 C 0.04633 0.25682 0.45023 0.0
C57 C 0.04018 0.2279 0.48121 0.0
H58 H 0.02137 0.28122 0.49258 0.0
H59 H 0.05286 0.26147 0.43363 0.0
O60 O 0.03803 0.35216 0.40998 0.0
O61 O 1.01266 0.32462 0.44857 0.0
O62 O 0.02716 0.29461 0.40836 0.0
O63 O 0.0643 0.33075 0.45001 0.0
H64 H 0.0353 0.39975 0.41443 0.0
H65 H 0.04869 0.34152 0.36599 0.0
H66 H 0.04172 0.42877 0.3827 0.0
H67 H 0.05468 0.37147 0.33505 0.0
H68 H 1.01126 0.35008 0.52875 0.0
H69 H 0.97727 0.3446 0.44023 0.0
H70 H 0.02772 0.3293 0.49688 0.0
H71 H 0.96162 0.36506 0.47307 0.0
H72 H 0.96064 0.35627 0.34976 0.0
H73 H 0.92897 0.29007 0.38009 0.0
H74 H 0.0889 0.4305 0.49979 0.0
H75 H 0.02017 0.43255 0.47009 0.0
H76 H 0.02215 0.24527 0.39996 0.0
H77 H 0.01622 0.31176 0.36546 0.0
H78 H 1.01052 0.22043 0.3585 0.0
H79 H 1.00473 0.28581 0.32457 0.0
H80 H 0.09045 0.29995 0.44155 0.0
H81 H 0.06868 0.34215 0.49842 0.0
H82 H 0.11423 0.28378 0.47438 0.0
H83 H 0.09281 0.32522 0.53029 0.0
H84 H 0.1258 0.35703 0.38351 0.0
H85 H 0.097 0.27715 0.36583 0.0
H86 H 0.02424 0.24166 0.51021 0.0
H87 H 0.05601 0.22155 0.44954 0.0
Li88 Li 0.08386 0.86902 0.63111 0.0
Li89 Li 0.10368 0.84791 0.66317 0.0
Li90 Li 0.07779 0.819 0.63027 0.0
Li91 Li 0.06336 0.84539 0.66357 0.0
C92 C 0.12702 0.851 0.62523 0.0
N93 N 0.17272 0.86098 0.62425 0.0
C94 C 0.14123 0.87366 0.63699 0.0
C95 C 0.13598 0.83357 0.61264 0.0
C96 C 0.1643 0.87832 0.63639 0.0
C97 C 0.15915 0.83891 0.61245 0.0
C98 C 0.09785 0.89435 0.68719 0.0
C99 C 0.10119 0.91127 0.72984 0.0
N100 N 0.11706 0.93151 0.72637 0.0
C101 C 0.11398 0.9155 0.68398 0.0
C102 C 0.09121 0.89235 0.71024 0.0
C103 C 0.12358 0.93401 0.70403 0.0
C104 C 0.062 0.90261 0.60345 0.0
N105 N 0.08263 0.89917 0.61358 0.0
C106 C 0.10024 0.9404 0.60462 0.0
C107 C 0.10162 0.91754 0.61402 0.0
C108 C 0.07915 0.94453 0.59418 0.0
C109 C 0.05991 0.92498 0.59343 0.0
H110 H 0.04698 0.88824 0.6037 0.0
H111 H 0.11791 0.9148 0.62217 0.0
C112 C 0.14345 0.8305 0.678 0.0
N113 N 0.13308 0.84889 0.68452 0.0
C114 C 0.16416 0.82889 0.69174 0.0
C115 C 0.16353 0.86507 0.71911 0.0
C116 C 0.14277 0.866 0.70479 0.0
C117 C 0.17458 0.84626 0.71276 0.0
H118 H 0.13554 0.81688 0.66203 0.0
H119 H 0.13443 0.8803 0.7102 0.0
C120 C 0.03717 0.83295 0.60752 0.0
N121 N 1.00103 0.81505 0.56907 0.0
C122 C 0.0159 0.82221 0.61257 0.0
C123 C 0.04012 0.83463 0.583 0.0
C124 C 0.99782 0.81325 0.59284 0.0
C125 C 0.02162 0.82547 0.56379 0.0
C126 C 0.08909 0.80841 0.68675 0.0
C127 C 0.09846 0.78765 0.68365 0.0
C128 C 0.08986 0.81972 0.71062 0.0
C129 C 0.10889 0.77886 0.70453 0.0
C130 C 0.10043 0.81038 0.73105 0.0
N131 N 0.10969 0.79033 0.72761 0.0
C132 C 0.08954 0.77331 0.61272 0.0
C133 C 0.0511 0.7723 0.5988 0.0
C134 C 0.08652 0.7485 0.60163 0.0
N135 N 0.072 0.7849 0.61118 0.0
C136 C 0.04735 0.74748 0.58737 0.0
C137 C 0.06515 0.73497 0.58865 0.0
H138 H 0.10595 0.78315 0.62304 0.0
H139 H 0.03709 0.78121 0.59813 0.0
C140 C 0.03204 0.86931 0.68116 0.0
N141 N 0.03896 0.84743 0.68111 0.0
C142 C 0.01447 0.87264 0.69335 0.0
C143 C 1.01116 0.83075 0.70514 0.0
C144 C 0.0289 0.82824 0.69274 0.0
C145 C 1.00371 0.85326 0.70566 0.0
H146 H 0.04023 0.88424 0.67167 0.0
H147 H 0.03467 0.81099 0.69244 0.0
O148 O 0.10446 0.84589 0.62604 0.0
O149 O 0.08821 0.87603 0.66777 0.0
O150 O 0.05508 0.84161 0.62653 0.0
O151 O 0.07931 0.81772 0.66654 0.0
H152 H 0.13459 0.8872 0.647 0.0
H153 H 0.12517 0.81614 0.60306 0.0
H154 H 0.17553 0.89567 0.64567 0.0
H155 H 0.16633 0.82552 0.60289 0.0
H156 H 0.09627 0.90988 0.7478 0.0
H157 H 0.11911 0.91764 0.66625 0.0
H158 H 0.0784 0.87647 0.71299 0.0
H159 H 0.13619 0.95038 0.70182 0.0
H160 H 0.11561 0.9547 0.60546 0.0
H161 H 0.04323 0.92722 0.58587 0.0
H162 H 0.172 0.81423 0.68571 0.0
H163 H 0.17061 0.87872 0.7353 0.0
H164 H 1.01343 0.82074 0.6315 0.0
H165 H 0.05655 0.84288 0.57889 0.0
H166 H 0.98125 0.80484 0.59642 0.0
H167 H 0.02362 0.82661 0.54469 0.0
H168 H 0.09786 0.77856 0.66533 0.0
H169 H 0.08244 0.83557 0.71333 0.0
H170 H 0.11638 0.76293 0.70239 0.0
H171 H 0.10128 0.81906 0.74963 0.0
H172 H 0.10096 0.74014 0.60311 0.0
H173 H 0.03042 0.73802 0.57809 0.0
H174 H 1.00918 0.89018 0.69281 0.0
H175 H 1.00362 0.81535 0.71454 0.0
Li176 Li 0.51436 0.82648 0.90875 0.0
Li177 Li 0.54274 0.85516 0.9419 0.0
Li178 Li 0.55446 0.82708 0.90886 0.0
Li179 Li 0.53566 0.80478 0.94036 0.0
C180 C 0.53681 0.8636 0.88233 0.0
N181 N 0.53174 0.87957 0.83578 0.0
C182 C 0.53699 0.88877 0.8798 0.0
C183 C 0.53392 0.84655 0.8612 0.0
C184 C 0.53442 0.89648 0.8561 0.0
C185 C 0.53144 0.85497 0.83783 0.0
C186 C 0.49309 0.82698 0.94617 0.0
C187 C 0.45542 0.80196 0.94415 0.0
N188 N 0.44744 0.82318 0.94375 0.0
C189 C 0.4846 0.84856 0.94586 0.0
C190 C 0.47847 0.80349 0.94537 0.0
C191 C 0.46143 0.84624 0.94459 0.0
C192 C 0.46841 0.80381 0.88172 0.0
N193 N 0.48471 0.82549 0.88854 0.0
C194 C 0.45978 0.84883 0.86843 0.0
C195 C 0.48058 0.84776 0.88232 0.0
C196 C 0.4424 0.82687 0.86122 0.0
C197 C 0.4471 0.80408 0.86813 0.0
H198 H 0.47178 0.78629 0.88718 0.0
H199 H 0.49337 0.86492 0.88844 0.0
C200 C 0.55988 0.90909 0.95075 0.0
N201 N 0.54952 0.88894 0.96107 0.0
C202 C 0.56306 0.93377 0.9622 0.0
C203 C 0.5457 0.91682 0.99538 0.0
C204 C 0.54247 0.89247 0.98307 0.0
C205 C 0.55595 0.93805 0.98489 0.0
H206 H 0.56553 0.90605 0.93339 0.0
H207 H 0.534 0.87639 0.99093 0.0
C208 C 0.52676 0.77749 0.88706 0.0
N209 N 0.52439 0.73696 0.85281 0.0
C210 C 0.53933 0.75975 0.89299 0.0
C211 C 0.51287 0.77451 0.86376 0.0
C212 C 0.53792 0.73941 0.87541 0.0
C213 C 0.51195 0.75393 0.84668 0.0
C214 C 0.58495 0.82828 0.95556 0.0
C215 C 0.59156 0.80696 0.94684 0.0
C216 C 0.59934 0.8455 0.9745 0.0
C217 C 0.61255 0.80315 0.95733 0.0
C218 C 0.62019 0.84101 0.98454 0.0
N219 N 0.62631 0.8201 0.97582 0.0
C220 C 0.59964 0.84061 0.89917 0.0
C221 C 0.57522 0.8092 0.86917 0.0
C222 C 0.61805 0.83881 0.88767 0.0
N223 N 0.57874 0.8256 0.89011 0.0
C224 C 0.59309 0.80683 0.85708 0.0
C225 C 0.615 0.82149 0.86643 0.0
H226 H 0.60217 0.85367 0.91571 0.0
H227 H 0.55858 0.79777 0.86172 0.0
C228 C 0.52059 0.75269 0.94816 0.0
N229 N 0.53589 0.77453 0.9579 0.0
C230 C 0.52184 0.72996 0.95786 0.0
C231 C 0.55436 0.75234 0.98781 0.0
C232 C 0.55241 0.77467 0.97764 0.0
C233 C 0.53909 0.7293 0.97786 0.0
H234 H 0.50766 0.75273 0.93235 0.0
H235 H 0.56454 0.79202 0.9852 0.0
O236 O 0.53917 0.85569 0.90537 0.0
O237 O 0.51555 0.82878 0.94646 0.0
O238 O 0.52789 0.79758 0.90397 0.0
O239 O 0.5644 0.83226 0.94575 0.0
H240 H 0.53881 0.90217 0.89592 0.0
H241 H 0.5335 0.82701 0.86285 0.0
H242 H 0.53449 0.9159 0.85387 0.0
H243 H 0.52923 0.84195 0.82131 0.0
H244 H 0.44385 0.7839 0.94338 0.0
H245 H 0.49575 0.86684 0.94625 0.0
H246 H 0.48485 0.78662 0.94541 0.0
H247 H 0.45456 0.86275 0.94417 0.0
H248 H 0.45751 0.86689 0.86341 0.0
H249 H 0.43435 0.78662 0.86359 0.0
H250 H 0.57129 0.94937 0.95348 0.0
H251 H 0.53975 0.91903 0.01272 0.0
H252 H 0.55005 0.76162 0.91095 0.0
H253 H 0.50303 0.78804 0.85882 0.0
H254 H 0.54759 0.72557 0.87974 0.0
H255 H 0.50135 0.75146 0.82855 0.0
H256 H 0.58063 0.79356 0.93211 0.0
H257 H 0.5944 0.8621 0.98141 0.0
H258 H 0.6179 0.78672 0.95077 0.0
H259 H 0.6315 0.85413 0.99928 0.0
H260 H 0.63459 0.85045 0.89574 0.0
H261 H 0.58968 0.79363 0.84047 0.0
H262 H 0.50934 0.71306 0.94962 0.0
H263 H 0.56821 0.75315 1.00291 0.0
Li264 Li 0.58587 0.37102 0.12772 0.0
Li265 Li 0.60638 0.35 0.15972 0.0
Li266 Li 0.57939 0.32068 0.12604 0.0
Li267 Li 0.5659 0.34598 0.1583 0.0
C268 C 0.62955 0.35358 0.12333 0.0
N269 N 0.67584 0.36513 0.12658 0.0
C270 C 0.64111 0.37826 0.12232 0.0
C271 C 0.64145 0.33473 0.12583 0.0
C272 C 0.66454 0.38372 0.124 0.0
C273 C 0.66488 0.34096 0.12751 0.0
C274 C 0.60281 0.39457 0.18319 0.0
C275 C 0.61289 0.41032 0.22665 0.0
N276 N 0.62834 0.42999 0.22133 0.0
C277 C 0.61859 0.41507 0.17808 0.0
C278 C 0.59975 0.39225 0.2076 0.0
C279 C 0.63142 0.43272 0.19765 0.0
C280 C 0.57782 0.4197 0.12549 0.0
N281 N 0.58452 0.40186 0.11179 0.0
C282 C 0.58788 0.4287 0.0793 0.0
C283 C 0.58952 0.40599 0.08899 0.0
C284 C 0.58115 0.44758 0.09318 0.0
C285 C 0.57613 0.44263 0.11664 0.0
H286 H 0.57366 0.4161 0.14345 0.0
H287 H 0.59479 0.3917 0.07826 0.0
C288 C 0.63801 0.33032 0.19119 0.0
N289 N 0.6356 0.35174 0.1813 0.0
C290 C 0.65844 0.32903 0.20575 0.0
C291 C 0.67421 0.37168 0.19937 0.0
C292 C 0.65327 0.37229 0.18521 0.0
C293 C 0.67717 0.34976 0.20987 0.0
H294 H 0.62416 0.3139 0.18744 0.0
H295 H 0.65145 0.38897 0.17672 0.0
C296 C 0.53537 0.33251 0.11074 0.0
N297 N 0.4914 0.31023 0.08834 0.0
C298 C 0.52366 0.31104 0.11922 0.0
C299 C 0.52478 0.34272 0.09096 0.0
C300 C 0.5014 0.30006 0.10765 0.0
C301 C 0.50253 0.33113 0.07984 0.0
C302 C 0.57691 0.30559 0.18018 0.0
C303 C 0.56403 0.28093 0.17401 0.0
C304 C 0.58335 0.31585 0.20505 0.0
C305 C 0.55769 0.26693 0.19294 0.0
C306 C 0.57667 0.30124 0.22343 0.0
N307 N 0.56408 0.27729 0.21704 0.0
C308 C 0.58824 0.27221 0.11515 0.0
C309 C 0.55578 0.2772 0.08868 0.0
C310 C 0.58501 0.24734 0.1042 0.0
N311 N 0.57382 0.28678 0.10728 0.0
C312 C 0.55171 0.25227 0.07746 0.0
C313 C 0.56645 0.23671 0.08499 0.0
H314 H 0.60225 0.27983 0.13026 0.0
H315 H 0.54426 0.28871 0.08266 0.0
C316 C 0.53595 0.37049 0.17728 0.0
N317 N 0.54125 0.34772 0.17576 0.0
C318 C 0.51801 0.37421 0.18864 0.0
C319 C 0.51121 0.33098 0.19697 0.0
C320 C 0.52915 0.32802 0.18516 0.0
C321 C 0.50531 0.35435 0.19884 0.0
H322 H 0.54556 0.38579 0.16935 0.0
H323 H 0.53318 0.3099 0.1834 0.0
O324 O 0.60673 0.34803 0.12233 0.0
O325 O 0.59004 0.37716 0.16429 0.0
O326 O 0.55729 0.34322 0.12138 0.0
O327 O 0.58338 0.31951 0.16194 0.0
H328 H 0.63209 0.39306 0.12051 0.0
H329 H 0.63273 0.31557 0.12675 0.0
H330 H 0.67374 0.40277 0.12338 0.0
H331 H 0.67436 0.32661 0.12964 0.0
H332 H 0.61076 0.40874 0.24566 0.0
H333 H 0.62108 0.41716 0.15924 0.0
H334 H 0.58726 0.37677 0.21177 0.0
H335 H 0.64384 0.44857 0.19401 0.0
H336 H 0.59213 0.43152 0.06121 0.0
H337 H 0.57047 0.45615 0.12798 0.0
H338 H 0.65942 0.31176 0.21362 0.0
H339 H 0.68807 0.38806 0.20139 0.0
H340 H 0.53176 0.30283 0.13439 0.0
H341 H 0.53374 0.35929 0.08418 0.0
H342 H 0.49212 0.28339 0.11395 0.0
H343 H 0.49413 0.33873 0.06441 0.0
H344 H 0.5589 0.27276 0.15482 0.0
H345 H 0.59351 0.33482 0.21009 0.0
H346 H 0.54767 0.24783 0.18847 0.0
H347 H 0.58153 0.30892 0.24276 0.0
H348 H 0.59719 0.23674 0.11073 0.0
H349 H 0.53683 0.24528 0.06325 0.0
H350 H 0.51396 0.39243 0.18899 0.0
H351 H 0.50222 0.31511 0.20471 0.0
Li352 Li 0.09298 0.87489 0.12925 0.0
Li353 Li 0.11762 0.85752 0.16355 0.0
Li354 Li 0.08988 0.82837 0.12981 0.0
Li355 Li 0.07582 0.85145 0.16242 0.0
C356 C 0.12608 0.85044 0.10665 0.0
N357 N 0.14425 0.83909 0.06567 0.0
C358 C 0.14671 0.84342 0.10965 0.0
C359 C 0.11491 0.85219 0.0829 0.0
C360 C 0.15556 0.83761 0.08868 0.0
C361 C 0.12431 0.84625 0.06238 0.0
C362 C 0.10552 0.8981 0.1892 0.0
C363 C 0.10955 0.90167 0.23375 0.0
N364 N 0.11816 0.92683 0.23489 0.0
C365 C 0.11433 0.92398 0.19075 0.0
C366 C 0.10303 0.88682 0.21081 0.0
C367 C 0.12066 0.93818 0.21405 0.0
C368 C 0.06968 0.90112 0.09478 0.0
N369 N 0.08973 0.90289 0.11017 0.0
C370 C 0.1027 0.9454 0.10178 0.0
C371 C 0.10619 0.92451 0.11375 0.0
C372 C 0.08206 0.94419 0.08578 0.0
C373 C 0.06557 0.92139 0.08226 0.0
H374 H 0.05657 0.8841 0.09255 0.0
H375 H 0.12186 0.92579 0.12643 0.0
C376 C 0.15447 0.83788 0.18102 0.0
N377 N 0.14666 0.85902 0.18433 0.0
C378 C 0.1746 0.83554 0.19551 0.0
C379 C 0.17847 0.87676 0.21686 0.0
C380 C 0.15826 0.87838 0.20181 0.0
C381 C 0.18695 0.85507 0.21387 0.0
H382 H 0.14482 0.82258 0.16727 0.0
H383 H 0.15184 0.89503 0.20427 0.0
C384 C 0.04649 0.83392 0.10971 0.0
N385 N 1.00857 0.80669 0.07704 0.0
C386 C 0.0273 0.82227 0.11861 0.0
C387 C 0.04635 0.83176 0.08418 0.0
C388 C 1.00831 0.80857 0.1018 0.0
C389 C 0.02702 0.81792 0.06797 0.0
C390 C 0.09277 0.80951 0.18188 0.0
C391 C 0.07846 0.78574 0.17423 0.0
C392 C 0.10502 0.8151 0.20612 0.0
C393 C 0.07651 0.76796 0.19107 0.0
C394 C 0.10263 0.7968 0.2224 0.0
N395 N 0.08854 0.77381 0.2146 0.0
C396 C 0.10483 0.78628 0.11053 0.0
C397 C 0.06509 0.77946 0.10432 0.0
C398 C 0.10313 0.76145 0.1007 0.0
N399 N 0.08597 0.79498 0.11199 0.0
C400 C 0.06261 0.75446 0.09467 0.0
C401 C 0.08177 0.74494 0.09276 0.0
H402 H 0.12129 0.79834 0.11778 0.0
H403 H 0.05024 0.78591 0.10682 0.0
C404 C 0.04362 0.87139 0.183 0.0
N405 N 0.05211 0.85057 0.18128 0.0
C406 C 0.02491 0.87136 0.1944 0.0
C407 C 0.02417 0.82858 0.20236 0.0
C408 C 0.04288 0.82945 0.19084 0.0
C409 C 0.01473 0.84963 0.20402 0.0
H410 H 0.05108 0.88784 0.17496 0.0
H411 H 0.04959 0.81299 0.18897 0.0
O412 O 0.11705 0.85594 0.12692 0.0
O413 O 0.09936 0.88392 0.16657 0.0
O414 O 0.06525 0.84736 0.12593 0.0
O415 O 0.09505 0.82706 0.1656 0.0
H416 H 0.15569 0.84227 0.12797 0.0
H417 H 0.09923 0.85822 0.08037 0.0
H418 H 0.17142 0.83193 0.0907 0.0
H419 H 0.11579 0.84739 0.04385 0.0
H420 H 0.10774 0.8932 0.25066 0.0
H421 H 0.11631 0.93296 0.17414 0.0
H422 H 0.0961 0.86684 0.20988 0.0
H423 H 0.12755 0.95823 0.21557 0.0
H424 H 0.11587 0.96254 0.10567 0.0
H425 H 0.04951 0.91911 0.06998 0.0
H426 H 0.18014 0.8183 0.19267 0.0
H427 H 0.18746 0.89245 0.23055 0.0
H428 H 0.02706 0.82367 0.13827 0.0
H429 H 0.061 0.84061 0.07692 0.0
H430 H 0.99338 0.79939 0.10845 0.0
H431 H 0.02671 0.81608 0.04817 0.0
H432 H 0.06871 0.78116 0.15563 0.0
H433 H 0.1163 0.83334 0.21231 0.0
H434 H 0.0654 0.74953 0.18544 0.0
H435 H 0.11201 0.80087 0.24122 0.0
H436 H 0.1185 0.75529 0.09961 0.0
H437 H 0.04573 0.74252 0.08968 0.0
H438 H 0.01809 0.88793 0.19496 0.0
H439 H 0.01711 0.81152 0.20977 0.0
Li440 Li 0.53194 0.84453 0.44466 0.0
Li441 Li 0.50558 0.81709 0.41095 0.0
Li442 Li 0.52896 0.79762 0.44504 0.0
Li443 Li 0.54662 0.82088 0.4128 0.0
C444 C 0.49862 0.82489 0.46884 0.0
N445 N 0.48608 0.84071 0.51228 0.0
C446 C 0.48062 0.83663 0.46802 0.0
C447 C 0.51009 0.82093 0.49169 0.0
C448 C 0.47459 0.84459 0.4902 0.0
C449 C 0.50353 0.82912 0.51347 0.0
C450 C 0.52197 0.85623 0.38742 0.0
C451 C 0.51216 0.85153 0.34276 0.0
N452 N 0.50516 0.87335 0.34402 0.0
C453 C 0.51491 0.87874 0.38826 0.0
C454 C 0.52075 0.84261 0.3645 0.0
C455 C 0.50637 0.88703 0.36612 0.0
C456 C 0.55423 0.89034 0.47911 0.0
N457 N 0.53524 0.87759 0.46308 0.0
C458 C 0.51938 0.9138 0.46587 0.0
C459 C 0.51781 0.88877 0.45682 0.0
C460 C 0.53908 0.92771 0.48187 0.0
C461 C 0.55642 0.91528 0.48888 0.0
H462 H 0.56807 0.88163 0.484 0.0
H463 H 0.50291 0.87853 0.44392 0.0
C464 C 0.46592 0.7975 0.37133 0.0
N465 N 0.47658 0.81603 0.39005 0.0
C466 C 0.44578 0.79914 0.35614 0.0
C467 C 0.44775 0.83862 0.37993 0.0
C468 C 0.46777 0.83623 0.39456 0.0
C469 C 0.4364 0.81999 0.36027 0.0
H470 H 0.47304 0.78149 0.36806 0.0
H471 H 0.4766 0.85087 0.40932 0.0
C472 C 0.57548 0.83819 0.46514 0.0
N473 N 0.61431 0.86446 0.49699 0.0
C474 C 0.59269 0.85365 0.45591 0.0
C475 C 0.57796 0.8362 0.4906 0.0
C476 C 0.61221 0.86674 0.47231 0.0
C477 C 0.59773 0.84961 0.50639 0.0
C478 C 0.52699 0.77192 0.39176 0.0
C479 C 0.53927 0.75504 0.40112 0.0
C480 C 0.51984 0.77065 0.36614 0.0
C481 C 0.5446 0.73751 0.38466 0.0
C482 C 0.52549 0.75284 0.35029 0.0
N483 N 0.53767 0.73679 0.3598 0.0
C484 C 0.51457 0.74889 0.46283 0.0
C485 C 0.55296 0.76949 0.47636 0.0
C486 C 0.518 0.72784 0.47461 0.0
N487 N 0.53198 0.76924 0.46385 0.0
C488 C 0.55702 0.74919 0.48882 0.0
C489 C 0.53955 0.72762 0.48792 0.0
H490 H 0.49813 0.74866 0.45227 0.0
H491 H 0.56684 0.78525 0.47621 0.0
C492 C 0.57725 0.84032 0.38101 0.0
N493 N 0.57137 0.82168 0.39529 0.0
C494 C 0.59607 0.84163 0.36954 0.0
C495 C 0.60273 0.80481 0.38796 0.0
C496 C 0.58387 0.80431 0.39919 0.0
C497 C 0.60913 0.82371 0.37294 0.0
H498 H 0.56767 0.85453 0.3789 0.0
H499 H 0.57956 0.79041 0.41155 0.0
O500 O 0.50492 0.81713 0.4474 0.0
O501 O 0.52972 0.84735 0.4089 0.0
O502 O 0.55632 0.82507 0.44937 0.0
O503 O 0.52156 0.78917 0.40762 0.0
H504 H 0.47142 0.8396 0.45045 0.0
H505 H 0.5239 0.81163 0.49258 0.0
H506 H 0.46076 0.85382 0.48986 0.0
H507 H 0.51229 0.82624 0.53131 0.0
H508 H 0.51108 0.84112 0.3249 0.0
H509 H 0.51593 0.8897 0.40577 0.0
H510 H 0.5265 0.82542 0.36354 0.0
H511 H 0.50071 0.90433 0.36652 0.0
H512 H 0.50557 0.92233 0.45955 0.0
H513 H 0.57176 0.92475 0.5016 0.0
H514 H 0.43756 0.7841 0.34146 0.0
H515 H 0.44153 0.85523 0.38372 0.0
H516 H 0.59099 0.85563 0.43632 0.0
H517 H 0.56471 0.82461 0.49815 0.0
H518 H 0.62568 0.87876 0.46542 0.0
H519 H 0.59985 0.84827 0.52612 0.0
H520 H 0.54489 0.75564 0.42087 0.0
H521 H 0.50994 0.78316 0.35851 0.0
H522 H 0.55426 0.72448 0.39167 0.0
H523 H 0.52012 0.75173 0.33042 0.0
H524 H 0.50395 0.71168 0.47264 0.0
H525 H 0.57387 0.75053 0.49894 0.0
H526 H 0.60033 0.85653 0.35812 0.0
H527 H 0.61257 0.79096 0.39159 0.0
Li528 Li 0.59203 0.37504 0.62979 0.0
Li529 Li 0.61783 0.35691 0.66398 0.0
Li530 Li 0.58901 0.32851 0.63056 0.0
Li531 Li 0.57618 0.35219 0.66235 0.0
C532 C 0.62336 0.34837 0.60589 0.0
N533 N 0.63776 0.33309 0.56349 0.0
C534 C 0.64403 0.34154 0.60765 0.0
C535 C 0.61014 0.34778 0.58263 0.0
C536 C 0.65098 0.33376 0.58598 0.0
C537 C 0.61768 0.3399 0.56139 0.0
C538 C 0.59559 0.39678 0.68683 0.0
C539 C 0.59446 0.40226 0.73049 0.0
N540 N 0.58369 0.42115 0.72668 0.0
C541 C 0.58455 0.41624 0.6833 0.0
C542 C 0.60064 0.38971 0.71057 0.0
C543 C 0.57867 0.42834 0.70371 0.0
C544 C 0.56801 0.40186 0.59687 0.0
N545 N 0.58861 0.40317 0.61091 0.0
C546 C 0.60173 0.44525 0.60138 0.0
C547 C 0.60541 0.42438 0.6133 0.0
C548 C 0.58055 0.44444 0.58661 0.0
C549 C 0.56371 0.42206 0.58435 0.0
H550 H 0.55461 0.38528 0.59575 0.0
H551 H 0.62152 0.42537 0.62502 0.0
C552 C 0.65528 0.33733 0.67989 0.0
N553 N 0.6469 0.35791 0.68415 0.0
C554 C 0.6754 0.33492 0.69434 0.0
C555 C 0.6781 0.37495 0.71754 0.0
C556 C 0.65789 0.37664 0.70254 0.0
C557 C 0.68715 0.3538 0.71363 0.0
H558 H 0.64603 0.32246 0.66548 0.0
H559 H 0.65087 0.39275 0.70578 0.0
C560 C 0.54495 0.33358 0.61217 0.0
N561 N 0.50519 0.30529 0.58336 0.0
C562 C 0.52821 0.31969 0.62332 0.0
C563 C 0.54143 0.33302 0.58633 0.0
C564 C 0.50824 0.30552 0.60844 0.0
C565 C 0.52123 0.31863 0.57211 0.0
C566 C 0.58851 0.30687 0.67847 0.0
C567 C 0.56845 0.28893 0.6691 0.0
C568 C 0.60223 0.30386 0.70031 0.0
C569 C 0.56248 0.26811 0.68176 0.0
C570 C 0.59565 0.28281 0.71245 0.0
N571 N 0.57609 0.2655 0.70299 0.0
C572 C 0.60416 0.28584 0.61354 0.0
C573 C 0.56462 0.28004 0.60261 0.0
C574 C 0.60276 0.26111 0.6036 0.0
N575 N 0.58528 0.29501 0.61276 0.0
C576 C 0.56238 0.25512 0.59289 0.0
C577 C 0.58158 0.24512 0.59324 0.0
H578 H 0.62036 0.29753 0.62251 0.0
H579 H 0.54961 0.28685 0.60289 0.0
C580 C 0.53813 0.36682 0.67447 0.0
N581 N 0.55275 0.35234 0.68167 0.0
C582 C 0.51959 0.36699 0.68606 0.0
C583 C 0.5314 0.33731 0.71239 0.0
C584 C 0.54991 0.338 0.70051 0.0
C585 C 0.51576 0.35181 0.70512 0.0
H586 H 0.54074 0.37804 0.6594 0.0
H587 H 0.56176 0.32677 0.70614 0.0
O588 O 0.61611 0.35568 0.62686 0.0
O589 O 0.60107 0.38436 0.66707 0.0
O590 O 0.5646 0.34768 0.62641 0.0
O591 O 0.59473 0.32739 0.66647 0.0
H592 H 0.65452 0.34209 0.62557 0.0
H593 H 0.59424 0.35332 0.58104 0.0
H594 H 0.66688 0.32826 0.58704 0.0
H595 H 0.60758 0.33922 0.54323 0.0
H596 H 0.59816 0.39693 0.74897 0.0
H597 H 0.58046 0.4218 0.66497 0.0
H598 H 0.60899 0.37449 0.71349 0.0
H599 H 0.57006 0.4434 0.70129 0.0
H600 H 0.61523 0.46207 0.60435 0.0
H601 H 0.5472 0.42002 0.57307 0.0
H602 H 0.68135 0.31807 0.69078 0.0
H603 H 0.6866 0.39015 0.73196 0.0
H604 H 0.53065 0.31951 0.64319 0.0
H605 H 0.5542 0.34349 0.57731 0.0
H606 H 0.4952 0.29462 0.61683 0.0
H607 H 0.51831 0.31803 0.55211 0.0
H608 H 0.55756 0.29114 0.65236 0.0
H609 H 0.61774 0.31772 0.70785 0.0
H610 H 0.547 0.25405 0.67473 0.0
H611 H 0.60609 0.28023 0.7294 0.0
H612 H 0.61818 0.25465 0.60426 0.0
H613 H 0.54555 0.24365 0.58595 0.0
H614 H 0.50839 0.37891 0.68008 0.0
H615 H 0.52914 0.32504 0.72672 0.0
Li616 Li 0.03211 0.34433 0.94474 0.0
Li617 Li 1.00585 0.31668 0.9111 0.0
Li618 Li 0.02943 0.29749 0.94521 0.0
Li619 Li 0.04686 0.32073 0.91291 0.0
C620 C 0.99874 0.32434 0.96897 0.0
N621 N 0.98576 0.33966 0.01231 0.0
C622 C 0.98083 0.33622 0.96809 0.0
C623 C 1.00989 0.31997 0.99182 0.0
C624 C 0.97458 0.34393 0.99023 0.0
C625 C 1.00311 0.32791 0.01355 0.0
C626 C 0.02188 0.35598 0.88757 0.0
C627 C 1.01154 0.35129 0.84297 0.0
N628 N 1.0046 0.37314 0.8444 0.0
C629 C 0.01488 0.37853 0.8886 0.0
C630 C 0.02036 0.34235 0.86458 0.0
C631 C 1.0061 0.38683 0.86657 0.0
C632 C 0.05449 0.39026 0.97883 0.0
N633 N 0.03537 0.37737 0.96309 0.0
C634 C 0.01938 0.41346 0.96599 0.0
C635 C 0.01782 0.38842 0.95701 0.0
C636 C 0.03919 0.42751 0.98171 0.0
C637 C 0.05666 0.41522 0.98852 0.0
H638 H 0.06844 0.38167 0.9835 0.0
H639 H 1.00285 0.37809 0.94427 0.0
C640 C 0.96621 0.29664 0.87163 0.0
N641 N 0.9768 0.31533 0.89021 0.0
C642 C 0.94599 0.29803 0.85642 0.0
C643 C 0.94777 0.33761 0.87991 0.0
C644 C 0.96787 0.33547 0.89457 0.0
C645 C 0.93647 0.3188 0.86039 0.0
H646 H 0.97343 0.28069 0.86848 0.0
H647 H 0.97665 0.35025 0.90922 0.0
C648 C 0.07565 0.33787 0.96555 0.0
N649 N 0.11425 0.36348 0.99815 0.0
C650 C 0.09334 0.35298 0.95672 0.0
C651 C 0.07755 0.33587 0.99098 0.0
C652 C 0.11273 0.36575 0.9735 0.0
C653 C 0.0972 0.34895 1.00715 0.0
C654 C 0.02769 0.27184 0.89198 0.0
C655 C 0.04032 0.25529 0.90138 0.0
C656 C 0.02053 0.27049 0.86636 0.0
C657 C 0.04599 0.23801 0.88495 0.0
C658 C 0.02652 0.25293 0.85054 0.0
N659 N 0.03905 0.23721 0.86008 0.0
C660 C 0.01549 0.24897 0.96348 0.0
C661 C 0.05401 0.26954 0.97598 0.0
C662 C 0.0192 0.22796 0.97517 0.0
N663 N 0.03283 0.26927 0.96403 0.0
C664 C 0.05837 0.24927 0.98831 0.0
C665 C 0.04097 0.22775 0.98786 0.0
H666 H 0.99888 0.24874 0.95335 0.0
H667 H 0.06781 0.28527 0.97545 0.0
C668 C 0.07713 0.33953 0.88048 0.0
N669 N 0.07161 0.32151 0.89552 0.0
C670 C 0.09593 0.34064 0.86902 0.0
C671 C 0.10334 0.30494 0.88906 0.0
C672 C 0.08448 0.30462 0.90023 0.0
C673 C 0.10934 0.32317 0.87323 0.0
H674 H 0.06723 0.35339 0.87772 0.0
H675 H 0.08042 0.29123 0.91316 0.0
O676 O 1.00523 0.31678 0.94756 0.0
O677 O 0.02985 0.34707 0.90895 0.0
O678 O 0.0566 0.32508 0.94941 0.0
O679 O 0.02197 0.28888 0.90782 0.0
H680 H 0.97186 0.33948 0.95052 0.0
H681 H 0.02358 0.31049 0.99274 0.0
H682 H 0.96082 0.35327 0.98984 0.0
H683 H 1.01162 0.32471 0.03139 0.0
H684 H 1.01022 0.34086 0.82505 0.0
H685 H 0.01614 0.3895 0.90616 0.0
H686 H 0.02605 0.32513 0.86348 0.0
H687 H 1.00049 0.40417 0.86711 0.0
H688 H 1.00547 0.42189 0.95981 0.0
H689 H 0.07211 0.42482 1.00101 0.0
H690 H 0.93781 0.28285 0.84187 0.0
H691 H 0.94145 0.35418 0.88357 0.0
H692 H 0.0921 0.35492 0.93715 0.0
H693 H 0.06396 0.32447 0.99819 0.0
H694 H 0.12657 0.37749 0.96694 0.0
H695 H 0.09888 0.34759 0.02686 0.0
H696 H 0.04595 0.25595 0.92113 0.0
H697 H 1.01035 0.28273 0.85871 0.0
H698 H 0.05593 0.22524 0.89198 0.0
H699 H 0.02115 0.25176 0.83067 0.0
H700 H 1.00519 0.21182 0.97358 0.0
H701 H 0.07539 0.25059 0.99796 0.0
H702 H 0.09989 0.35502 0.85697 0.0
H703 H 0.11346 0.29147 0.89331 0.0
Li704 Li 0.47721 0.17937 0.35523 0.0
Li705 Li 0.44631 0.15847 0.32092 0.0
Li706 Li 0.48053 0.1864 0.31291 0.0
Li707 Li 0.45326 0.2033 0.33159 0.0
C708 C 0.48992 0.13737 0.32851 0.0
N709 N 0.51554 0.10184 0.33095 0.0
C710 C 0.48005 0.1125 0.33121 0.0
C711 C 0.51271 0.14401 0.32654 0.0
C712 C 0.49331 0.09486 0.33255 0.0
C713 C 0.52541 0.12583 0.32797 0.0
C714 C 0.43375 0.15906 0.3671 0.0
C715 C 0.40464 0.14403 0.39054 0.0
N716 N 0.41291 0.12328 0.39396 0.0
C717 C 0.4418 0.13747 0.37071 0.0
C718 C 0.41489 0.16227 0.37699 0.0
C719 C 0.43113 0.11968 0.38441 0.0
C720 C 0.48515 0.17095 0.40642 0.0
N721 N 0.49432 0.17459 0.38571 0.0
C722 C 0.52798 0.16377 0.40468 0.0
C723 C 0.51567 0.17221 0.38494 0.0
C724 C 0.51812 0.15778 0.42537 0.0
C725 C 0.49669 0.16204 0.42647 0.0
H726 H 0.46853 0.17398 0.40708 0.0
H727 H 0.52288 0.17611 0.36864 0.0
C728 C 0.43062 0.11441 0.28926 0.0
N729 N 0.42499 0.12883 0.30731 0.0
C730 C 0.41657 0.09106 0.27964 0.0
C731 C 0.39072 0.0986 0.30658 0.0
C732 C 0.40512 0.12189 0.31539 0.0
C733 C 0.39668 0.08256 0.28894 0.0
H734 H 0.4464 0.12077 0.28292 0.0
H735 H 0.40067 0.13407 0.32915 0.0
C736 C 0.50472 0.2301 0.33893 0.0
N737 N 0.54124 0.26601 0.33135 0.0
C738 C 0.50235 0.24473 0.31943 0.0
C739 C 0.52564 0.23378 0.35466 0.0
C740 C 0.52101 0.26278 0.31588 0.0
C741 C 0.54391 0.25201 0.35049 0.0
C742 C 0.42844 0.18427 0.28433 0.0
C743 C 0.427 0.18878 0.25954 0.0
C744 C 0.40891 0.17976 0.29474 0.0
C745 C 0.406 0.18879 0.24554 0.0
C746 C 0.38823 0.17997 0.28016 0.0
N747 N 0.38721 0.18444 0.25606 0.0
C748 C 0.48668 0.17178 0.26773 0.0
C749 C 0.52059 0.19896 0.28988 0.0
C750 C 0.49703 0.16725 0.24778 0.0
N751 N 0.49847 0.18731 0.28821 0.0
C752 C 0.53163 0.1952 0.2701 0.0
C753 C 0.51984 0.17894 0.24877 0.0
H754 H 0.46934 0.16213 0.26729 0.0
H755 H 0.52989 0.21041 0.30673 0.0
C756 C 0.42039 0.22613 0.34487 0.0
N757 N 0.43662 0.22809 0.33069 0.0
C758 C 0.40172 0.23617 0.33813 0.0
C759 C 0.41847 0.25285 0.30425 0.0
C760 C 0.43642 0.24178 0.31118 0.0
C761 C 0.40017 0.24897 0.31696 0.0
H762 H 0.42099 0.21493 0.36007 0.0
H763 H 0.44905 0.24223 0.29963 0.0
O764 O 0.47718 0.15492 0.32713 0.0
O765 O 0.44336 0.17615 0.35274 0.0
O766 O 0.48662 0.2125 0.34286 0.0
O767 O 0.44897 0.18466 0.29833 0.0
H768 H 0.46232 0.10678 0.33221 0.0
H769 H 0.52062 0.16309 0.3243 0.0
H770 H 0.48591 0.0756 0.33479 0.0
H771 H 0.54312 0.1308 0.32672 0.0
H772 H 0.39002 0.14629 0.39823 0.0
H773 H 0.45629 0.13465 0.36324 0.0
H774 H 0.40792 0.17841 0.37399 0.0
H775 H 0.43732 0.10298 0.38743 0.0
H776 H 0.54458 0.16089 0.40331 0.0
H777 H 0.48883 0.15809 0.44244 0.0
H778 H 0.4216 0.07948 0.26572 0.0
H779 H 0.37571 0.0928 0.31451 0.0
H780 H 0.4864 0.24186 0.3069 0.0
H781 H 0.52771 0.22279 0.36999 0.0
H782 H 0.51944 0.27414 0.30077 0.0
H783 H 0.56021 0.25505 0.36248 0.0
H784 H 0.442 0.19236 0.25125 0.0
H785 H 0.40973 0.17645 0.31396 0.0
H786 H 0.40464 0.19231 0.22633 0.0
H787 H 0.373 0.17666 0.28802 0.0
H788 H 0.48741 0.15391 0.23219 0.0
H789 H 0.54925 0.20455 0.27169 0.0
H790 H 0.38812 0.23246 0.34853 0.0
H791 H 0.41852 0.26327 0.28833 0.0
Li792 Li 0.29044 0.25105 0.54394 0.0
Li793 Li 0.30359 0.21852 0.51966 0.0
Li794 Li 0.2877 0.2503 0.49646 0.0
Li795 Li 0.26174 0.21498 0.51551 0.0
C796 C 0.3347 0.27183 0.53345 0.0
N797 N 0.37521 0.30492 0.55422 0.0
C798 C 0.35137 0.26355 0.54868 0.0
C799 C 0.3387 0.29685 0.52855 0.0
C800 C 0.37171 0.2806 0.55909 0.0
C801 C 0.35927 0.31331 0.53928 0.0
C802 C 0.28573 0.197 0.56144 0.0
C803 C 0.27787 0.15399 0.57039 0.0
N804 N 0.28914 0.16163 0.59407 0.0
C805 C 0.29722 0.20443 0.58586 0.0
C806 C 0.27597 0.17159 0.55364 0.0
C807 C 0.29878 0.18627 0.60206 0.0
C808 C 0.27541 0.27262 0.58575 0.0
N809 N 0.29427 0.26934 0.57726 0.0
C810 C 0.31653 0.2838 0.61799 0.0
C811 C 0.31466 0.27512 0.59286 0.0
C812 C 0.29728 0.28692 0.62755 0.0
C813 C 0.27656 0.28157 0.61072 0.0
H814 H 0.25925 0.26751 0.57331 0.0
H815 H 0.32937 0.27167 0.58625 0.0
C816 C 0.33978 0.20291 0.50138 0.0
N817 N 0.32781 0.20067 0.5202 0.0
C818 C 0.35799 0.19152 0.50113 0.0
C819 C 0.35182 0.17617 0.53995 0.0
C820 C 0.33364 0.18768 0.53936 0.0
C821 C 0.36436 0.17798 0.52068 0.0
H822 H 0.33538 0.2139 0.48667 0.0
H823 H 0.32454 0.18649 0.55452 0.0
C824 C 0.25744 0.2749 0.51786 0.0
N825 N 0.24456 0.31998 0.51917 0.0
C826 C 0.23488 0.27531 0.5098 0.0
C827 C 0.27347 0.29734 0.52655 0.0
C828 C 0.2287 0.29831 0.51062 0.0
C829 C 0.26662 0.31997 0.52706 0.0
C830 C 0.2854 0.19528 0.47289 0.0
C831 C 0.29308 0.20212 0.45126 0.0
C832 C 0.28381 0.17073 0.47877 0.0
C833 C 0.29913 0.18423 0.43587 0.0
C834 C 0.29004 0.1534 0.46292 0.0
N835 N 0.29751 0.16045 0.44197 0.0
C836 C 0.3129 0.27598 0.46268 0.0
C837 C 0.27391 0.27394 0.4515 0.0
C838 C 0.31726 0.28783 0.44163 0.0
N839 N 0.29152 0.26927 0.4674 0.0
C840 C 0.27752 0.28575 0.43009 0.0
C841 C 0.2995 0.29299 0.42476 0.0
H842 H 0.32668 0.27164 0.47505 0.0
H843 H 0.25695 0.26823 0.45521 0.0
C844 C 0.21632 0.20389 0.52407 0.0
N845 N 0.23159 0.19349 0.51428 0.0
C846 C 0.19501 0.18923 0.52566 0.0
C847 C 0.20549 0.15307 0.50766 0.0
C848 C 0.22636 0.16859 0.50578 0.0
C849 C 0.18922 0.16317 0.51777 0.0
H850 H 0.2208 0.22365 0.53098 0.0
H851 H 0.23862 0.1605 0.49809 0.0
O852 O 0.31472 0.25542 0.52298 0.0
O853 O 0.28414 0.21452 0.5453 0.0
O854 O 0.26367 0.25253 0.51788 0.0
O855 O 0.27947 0.21257 0.4882 0.0
H856 H 0.34853 0.24425 0.55269 0.0
H857 H 0.32608 0.30348 0.51653 0.0
H858 H 0.38471 0.2745 0.57107 0.0
H859 H 0.36259 0.33274 0.53569 0.0
H860 H 0.27042 0.13425 0.56456 0.0
H861 H 0.30503 0.22394 0.5922 0.0
H862 H 0.26719 0.16547 0.53483 0.0
H863 H 0.30768 0.19177 0.62099 0.0
H864 H 0.33287 0.28698 0.62995 0.0
H865 H 0.26121 0.28395 0.61671 0.0
H866 H 0.36733 0.19384 0.48605 0.0
H867 H 0.35591 0.16582 0.55535 0.0
H868 H 0.22229 0.25804 0.50304 0.0
H869 H 0.29093 0.29724 0.53312 0.0
H870 H 0.21128 0.29893 0.50449 0.0
H871 H 0.27882 0.3375 0.53383 0.0
H872 H 0.29435 0.22103 0.4464 0.0
H873 H 0.27815 0.16521 0.49555 0.0
H874 H 0.30512 0.18927 0.41908 0.0
H875 H 0.289 0.13436 0.46731 0.0
H876 H 0.33445 0.29236 0.43837 0.0
H877 H 0.26319 0.28934 0.41796 0.0
H878 H 0.18328 0.19848 0.53305 0.0
H879 H 0.20256 0.13322 0.5017 0.0
Li880 Li 0.21505 0.13677 0.86539 0.0
Li881 Li 0.19212 0.1091 0.88976 0.0
Li882 Li 0.21707 0.09326 0.86516 0.0
Li883 Li 0.18297 0.10353 0.8455 0.0
C884 C 0.23511 0.13642 0.9153 0.0
N885 N 0.25313 0.17057 0.95708 0.0
C886 C 0.22347 0.1542 0.92228 0.0
C887 C 0.25592 0.13603 0.9295 0.0
C888 C 0.23285 0.17128 0.94351 0.0
C889 C 0.26476 0.15346 0.95056 0.0
C890 C 0.16535 0.14352 0.86126 0.0
C891 C 0.12512 0.13994 0.85335 0.0
N892 N 0.12866 0.16369 0.84686 0.0
C893 C 0.16861 0.16796 0.8547 0.0
C894 C 0.14345 0.12944 0.86076 0.0
C895 C 0.14984 0.17779 0.8474 0.0
C896 C 0.22487 0.174 0.83632 0.0
N897 N 0.23065 0.16904 0.86 0.0
C898 C 0.25934 0.20709 0.86909 0.0
C899 C 0.24743 0.1851 0.87647 0.0
C900 C 0.25449 0.21212 0.8443 0.0
C901 C 0.23678 0.19524 0.82794 0.0
H902 H 0.2115 0.16079 0.82361 0.0
H903 H 0.25206 0.18067 0.89508 0.0
C904 C 0.17304 0.08361 0.92639 0.0
N905 N 0.17695 0.10575 0.91653 0.0
C906 C 0.15593 0.07815 0.94033 0.0
C907 C 0.14827 0.11891 0.93454 0.0
C908 C 0.1655 0.1236 0.92094 0.0
C909 C 0.14293 0.09571 0.94395 0.0
H910 H 0.18207 0.06954 0.92193 0.0
H911 H 0.16863 0.1408 0.91246 0.0
C912 C 0.23212 0.11767 0.82664 0.0
N913 N 0.27106 0.12941 0.80699 0.0
C914 C 0.23082 0.11661 0.80097 0.0
C915 C 0.2532 0.12472 0.84236 0.0
C916 C 0.25071 0.12262 0.79139 0.0
C917 C 0.2727 0.13057 0.83205 0.0
C918 C 0.16984 0.05588 0.8643 0.0
C919 C 0.17437 0.03359 0.85464 0.0
C920 C 0.14863 0.05557 0.87038 0.0
C921 C 0.15753 0.01136 0.85109 0.0
C922 C 0.13226 0.03296 0.86658 0.0
N923 N 0.137 0.01151 0.85708 0.0
C924 C 0.25043 0.06631 0.88019 0.0
C925 C 0.23303 0.06018 0.83764 0.0
C926 C 0.26458 0.05054 0.87536 0.0
N927 N 0.23526 0.07085 0.8613 0.0
C928 C 0.24706 0.04483 0.83192 0.0
C929 C 0.26312 0.04009 0.85088 0.0
H930 H 0.2517 0.07518 0.8988 0.0
H931 H 0.22055 0.06397 0.82316 0.0
C932 C 0.15746 0.11619 0.80563 0.0
N933 N 0.15949 0.09604 0.81785 0.0
C934 C 0.14048 0.11378 0.78514 0.0
C935 C 0.12882 0.06944 0.78907 0.0
C936 C 0.14586 0.07283 0.80983 0.0
C937 C 0.12595 0.09019 0.77675 0.0
H938 H 0.1692 0.13413 0.81176 0.0
H939 H 0.14835 0.05682 0.81905 0.0
O940 O 0.22647 0.11953 0.89456 0.0
O941 O 0.18357 0.1336 0.86835 0.0
O942 O 0.21272 0.11211 0.83621 0.0
O943 O 0.18618 0.07776 0.86787 0.0
H944 H 0.20764 0.1552 0.91121 0.0
H945 H 0.26518 0.12244 0.92423 0.0
H946 H 0.22407 0.18522 0.94909 0.0
H947 H 0.28088 0.1534 0.96171 0.0
H948 H 0.10807 0.12919 0.85275 0.0
H949 H 0.18544 0.17924 0.85529 0.0
H950 H 0.14062 0.11057 0.86584 0.0
H951 H 0.15211 0.19666 0.8422 0.0
H952 H 0.27246 0.21971 0.88264 0.0
H953 H 0.23257 0.19772 0.80856 0.0
H954 H 0.15247 0.06016 0.9475 0.0
H955 H 0.13847 0.13286 0.93647 0.0
H956 H 0.21459 0.11128 0.78861 0.0
H957 H 0.25453 0.12573 0.86229 0.0
H958 H 0.24997 0.1219 0.77154 0.0
H959 H 0.28913 0.13607 0.84397 0.0
H960 H 0.19069 0.03347 0.8499 0.0
H961 H 0.1448 0.07255 0.87794 0.0
H962 H 0.1608 0.99399 0.84358 0.0
H963 H 0.11578 0.03247 0.87118 0.0
H964 H 0.27681 0.04702 0.89033 0.0
H965 H 0.24536 0.03668 0.81292 0.0
H966 H 0.13922 0.13 0.77544 0.0
H967 H 0.11818 0.05088 0.78255 0.0
Li968 Li 0.30973 0.96008 0.0457 0.0
Li969 Li 0.32573 0.92939 0.06551 0.0
Li970 Li 0.35078 0.96234 0.04714 0.0
Li971 Li 0.31995 0.92624 0.01863 0.0
C972 C 0.33059 0.98024 0.0941 0.0
N973 N 0.32195 1.00898 0.13328 0.0
C974 C 0.31244 0.9709 0.10567 0.0
C975 C 0.34444 1.00411 0.10249 0.0
C976 C 0.30833 0.98573 0.12545 0.0
C977 C 0.33976 0.01838 0.12231 0.0
C978 C 0.28095 0.90406 0.04534 0.0
C979 C 0.26148 0.86032 0.0384 0.0
N980 N 0.24844 0.86476 0.05522 0.0
C981 C 0.26722 0.90828 0.06236 0.0
C982 C 0.27798 0.87998 0.03308 0.0
C983 C 0.25093 0.88812 0.06717 0.0
C984 C 0.26544 0.96858 0.03665 0.0
N985 N 0.28732 0.97991 0.0466 0.0
C986 C 0.27652 0.01774 0.05896 0.0
C987 C 0.29308 1.00415 0.05737 0.0
C988 C 0.25368 1.00646 0.04912 0.0
C989 C 0.24833 0.98152 0.03768 0.0
H990 H 0.26122 0.94938 0.02796 0.0
H991 H 0.31055 0.01299 0.06492 0.0
C992 C 0.3409 0.92473 0.11654 0.0
N993 N 0.32618 0.91202 0.096 0.0
C994 C 0.34134 0.91551 0.13969 0.0
C995 C 0.31177 0.87979 0.12045 0.0
C996 C 0.3121 0.88956 0.09758 0.0
C997 C 0.32638 0.89285 0.14219 0.0
H998 H 0.35228 0.94234 0.11507 0.0
H999 H 0.3008 0.87923 0.08126 0.0
C1000 C 0.3216 0.98364 1.00762 0.0
N1001 N 0.30964 0.02405 0.98686 0.0
C1002 C 0.30581 0.97971 0.9856 0.0
C1003 C 0.33127 1.00804 0.01916 0.0
C1004 C 0.30002 1.00042 0.97535 0.0
C1005 C 0.32499 0.02824 1.00837 0.0
C1006 C 0.3554 0.90621 0.05403 0.0
C1007 C 0.37365 0.91229 0.07384 0.0
C1008 C 0.34416 0.88113 0.0466 0.0
C1009 C 0.38034 0.89304 0.08603 0.0
C1010 C 0.35138 0.86241 0.05925 0.0
N1011 N 0.36916 0.8687 0.07855 0.0
C1012 C 0.3968 0.98818 0.06845 0.0
C1013 C 0.3845 0.9927 0.02636 0.0
C1014 C 0.41849 1.00255 0.06786 0.0
N1015 N 0.38038 0.98341 0.04781 0.0
C1016 C 0.40575 1.00741 0.02504 0.0
C1017 C 0.42333 0.01233 0.04585 0.0
H1018 H 0.39318 0.9805 0.08528 0.0
H1019 H 0.37126 0.98855 1.01012 0.0
C1020 C 0.29326 0.90361 0.97039 0.0
N1021 N 0.31401 0.90796 0.98514 0.0
C1022 C 0.28986 0.89342 0.94539 0.0
C1023 C 0.32909 0.892 0.95112 0.0
C1024 C 0.33174 0.9022 0.97597 0.0
C1025 C 0.30797 0.88767 0.93518 0.0
H1026 H 0.27944 0.90874 0.9778 0.0
H1027 H 0.34818 0.90607 0.98785 0.0
O1028 O 0.33491 0.96609 0.07468 0.0
O1029 O 0.29684 0.92353 0.04017 0.0
O1030 O 0.32748 0.96368 0.01797 0.0
O1031 O 0.34803 0.9248 0.04252 0.0
H1032 H 0.30168 0.95239 0.09945 0.0
H1033 H 0.35857 0.01155 0.09368 0.0
H1034 H 0.29432 0.97877 0.13457 0.0
H1035 H 0.35028 0.03694 0.12898 0.0
H1036 H 0.25905 0.84154 0.02917 0.0
H1037 H 0.26908 0.9269 0.07169 0.0
H1038 H 0.28834 0.87651 0.01966 0.0
H1039 H 0.24023 0.89106 0.08038 0.0
H1040 H 0.28159 0.03676 0.06821 0.0
H1041 H 0.23112 0.97208 0.02937 0.0
H1042 H 0.35342 0.92616 0.15544 0.0
H1043 H 0.2997 0.86239 0.12103 0.0
H1044 H 0.29816 0.96088 0.97652 0.0
H1045 H 0.34336 0.01131 0.03638 0.0
H1046 H 0.28787 0.99771 0.95826 0.0
H1047 H 0.33228 0.04725 0.01712 0.0
H1048 H 0.38234 0.93169 0.07991 0.0
H1049 H 0.32993 0.87622 0.03134 0.0
H1050 H 0.39437 0.89744 0.1015 0.0
H1051 H 0.34282 0.84289 0.05378 0.0
H1052 H 0.43141 1.00541 0.08433 0.0
H1053 H 0.40828 0.01482 1.00777 0.0
H1054 H 0.2733 0.89083 0.93401 0.0
H1055 H 0.34356 0.8876 0.9445 0.0
Li1056 Li 0.31662 0.45428 0.05454 0.0
Li1057 Li 0.33274 0.42184 0.07659 0.0
Li1058 Li 0.3584 0.45666 0.05695 0.0
Li1059 Li 0.33151 0.42192 0.02953 0.0
C1060 C 0.34081 0.47739 0.10322 0.0
N1061 N 0.33997 0.51364 0.14062 0.0
C1062 C 0.33293 0.47037 0.12471 0.0
C1063 C 0.34842 0.50284 0.10085 0.0
C1064 C 0.33258 0.48898 0.14338 0.0
C1065 C 0.34783 0.52089 0.11994 0.0
C1066 C 0.28782 0.39785 0.04825 0.0
C1067 C 0.26979 0.35367 0.04152 0.0
N1068 N 0.25069 0.35903 0.04762 0.0
C1069 C 0.26796 0.40296 0.05425 0.0
C1070 C 0.28874 0.37305 0.0417 0.0
C1071 C 0.2494 0.38305 0.05392 0.0
C1072 C 0.27943 0.47242 0.03133 0.0
N1073 N 0.29225 0.4717 0.05376 0.0
C1074 C 0.26952 0.49389 0.07422 0.0
C1075 C 0.28743 0.48194 0.07502 0.0
C1076 C 0.25604 0.49505 0.05135 0.0
C1077 C 0.26116 0.48396 0.02969 0.0
H1078 H 0.28336 0.4639 0.01467 0.0
H1079 H 0.2972 0.48063 0.09273 0.0
C1080 C 0.34602 0.39716 0.12093 0.0
N1081 N 0.32855 0.40312 0.10587 0.0
C1082 C 0.34253 0.38542 0.14241 0.0
C1083 C 0.30323 0.38607 0.1327 0.0
C1084 C 0.30748 0.39792 0.11166 0.0
C1085 C 0.32081 0.37952 0.1486 0.0
H1086 H 0.36278 0.40173 0.11645 0.0
H1087 H 0.29391 0.40357 0.1003 0.0
C1088 C 0.34212 0.4809 0.01886 0.0
N1089 N 0.35694 0.52614 1.00114 0.0
C1090 C 0.35263 0.48166 0.99815 0.0
C1091 C 0.33881 0.50308 0.03031 0.0
C1092 C 0.36012 0.50473 0.98955 0.0
C1093 C 0.3465 0.52577 0.02114 0.0
C1094 C 0.36335 0.39808 0.04918 0.0
C1095 C 0.3808 0.39896 0.03569 0.0
C1096 C 0.35208 0.37506 0.05527 0.0
C1097 C 0.38641 0.37664 0.02807 0.0
C1098 C 0.35821 0.35315 0.04735 0.0
N1099 N 0.37509 0.35438 0.03398 0.0
C1100 C 0.39946 0.49691 0.07594 0.0
C1101 C 0.3978 0.47421 0.0371 0.0
C1102 C 0.42039 0.51247 0.07416 0.0
N1103 N 0.38843 0.47833 0.05739 0.0
C1104 C 0.4187 0.48915 0.03463 0.0
C1105 C 0.43034 0.5088 0.05321 0.0
H1106 H 0.39209 0.49977 0.09216 0.0
H1107 H 0.38884 0.45944 0.02251 0.0
C1108 C 0.30884 0.38869 0.98354 0.0
N1109 N 0.32842 0.40422 0.99615 0.0
C1110 C 0.30699 0.37922 0.95856 0.0
C1111 C 0.34531 0.40192 0.95977 0.0
C1112 C 0.34651 0.41064 0.98473 0.0
C1113 C 0.32527 0.38608 0.946 0.0
H1114 H 0.2944 0.38413 0.99258 0.0
H1115 H 0.36178 0.42338 0.99478 0.0
O1116 O 0.34119 0.45939 0.08474 0.0
O1117 O 0.30618 0.4171 0.04861 0.0
O1118 O 0.33502 0.45856 0.02783 0.0
O1119 O 0.35742 0.41966 0.05659 0.0
H1120 H 0.32702 0.45078 0.12691 0.0
H1121 H 0.35479 0.50865 0.0845 0.0
H1122 H 0.32642 0.48381 0.16005 0.0
H1123 H 0.35365 0.54065 0.11833 0.0
H1124 H 0.27026 0.33437 0.03649 0.0
H1125 H 0.26698 0.42208 0.05932 0.0
H1126 H 0.30384 0.36882 0.0366 0.0
H1127 H 0.23396 0.3867 0.05867 0.0
H1128 H 0.26602 0.50172 0.09146 0.0
H1129 H 0.25137 0.4845 0.01162 0.0
H1130 H 0.3567 0.38078 0.15389 0.0
H1131 H 0.2863 0.38263 0.13675 0.0
H1132 H 0.35513 0.46468 0.98888 0.0
H1133 H 0.33036 0.5028 0.04607 0.0
H1134 H 0.36844 0.50561 0.97365 0.0
H1135 H 0.34414 0.5431 0.02991 0.0
H1136 H 0.38989 0.41667 0.03112 0.0
H1137 H 0.33876 0.37413 0.06601 0.0
H1138 H 0.3998 0.37701 0.01747 0.0
H1139 H 0.34957 0.33518 0.05184 0.0
H1140 H 0.42879 0.52707 0.08919 0.0
H1141 H 0.42542 0.48564 0.01801 0.0
H1142 H 0.29123 0.36679 0.94921 0.0
H1143 H 0.35982 0.40838 0.95123 0.0
Li1144 Li 0.80125 0.24638 0.05584 0.0
Li1145 Li 0.81435 0.21315 0.02888 0.0
Li1146 Li 0.79599 0.24337 1.00871 0.0
Li1147 Li 0.77275 0.20999 0.02671 0.0
C1148 C 0.83702 0.26899 0.02298 0.0
N1149 N 0.85919 0.30547 0.99793 0.0
C1150 C 0.85047 0.26277 1.00642 0.0
C1151 C 0.83482 0.29371 0.02683 0.0
C1152 C 0.86154 0.2815 0.99392 0.0
C1153 C 0.84619 0.31191 0.014 0.0
C1154 C 0.7986 0.18689 0.06535 0.0
C1155 C 0.79305 0.14184 0.05994 0.0
N1156 N 0.80409 0.14277 0.08362 0.0
C1157 C 0.80991 0.18744 0.08962 0.0
C1158 C 0.79013 0.16395 0.05036 0.0
C1159 C 0.81251 0.16491 0.09851 0.0
C1160 C 0.79738 0.24978 0.10718 0.0
N1161 N 0.80563 0.26393 0.08993 0.0
C1162 C 0.81896 0.2997 0.12121 0.0
C1163 C 0.81624 0.28858 0.09658 0.0
C1164 C 0.81114 0.28539 0.13974 0.0
C1165 C 0.80016 0.25997 0.13208 0.0
H1166 H 0.78866 0.23034 0.10166 0.0
H1167 H 0.82256 0.29979 0.08281 0.0
C1168 C 0.84137 0.18698 1.00455 0.0
N1169 N 0.83753 0.19454 0.02731 0.0
C1170 C 0.85803 0.17366 1.00227 0.0
C1171 C 0.86656 0.17599 0.0469 0.0
C1172 C 0.84997 0.1896 0.04831 0.0
C1173 C 0.87092 0.16778 0.02363 0.0
H1174 H 0.83159 0.19152 0.98809 0.0
H1175 H 0.84711 0.19628 0.06625 0.0
C1176 C 0.76324 0.26456 0.02262 0.0
N1177 N 0.74232 0.301 1.00522 0.0
C1178 C 0.746 0.25853 1.00176 0.0
C1179 C 0.7698 0.28904 0.03473 0.0
C1180 C 0.73565 0.27724 0.99321 0.0
C1181 C 0.75902 0.30722 0.02562 0.0
C1182 C 0.77758 0.18981 0.98034 0.0
C1183 C 0.76221 0.19705 0.96241 0.0
C1184 C 0.78042 0.16522 0.97807 0.0
C1185 C 0.74967 0.17944 0.94268 0.0
C1186 C 0.76757 0.14816 0.95805 0.0
N1187 N 0.75258 0.15556 0.94093 0.0
C1188 C 0.80306 0.24766 0.95908 0.0
C1189 C 0.79204 0.28336 0.97494 0.0
C1190 C 0.80346 0.25673 0.93595 0.0
N1191 N 0.79696 0.26063 0.97802 0.0
C1192 C 0.79239 0.29325 0.95207 0.0
C1193 C 0.79789 0.27978 0.93193 0.0
H1194 H 0.80761 0.23002 0.96186 0.0
H1195 H 0.78783 0.29395 0.99014 0.0
C1196 C 0.73896 0.17757 0.04652 0.0
N1197 N 0.74297 0.18814 0.02561 0.0
C1198 C 0.71763 0.16285 0.04762 0.0
C1199 C 0.70441 0.17056 1.00589 0.0
C1200 C 0.72611 0.18495 1.0055 0.0
C1201 C 0.6998 0.15931 0.02723 0.0
H1202 H 0.75221 0.18092 0.06267 0.0
H1203 H 0.7292 0.19412 0.98935 0.0
O1204 O 0.82538 0.25076 0.03466 0.0
O1205 O 0.79609 0.20873 0.05615 0.0
O1206 O 0.77352 0.24654 0.03133 0.0
O1207 O 0.79023 0.20688 0.99964 0.0
H1208 H 0.85214 0.24364 1.00307 0.0
H1209 H 0.82414 0.2987 0.03925 0.0
H1210 H 0.87194 0.27697 0.98095 0.0
H1211 H 0.84456 0.3311 0.01669 0.0
H1212 H 0.78653 0.12394 0.04856 0.0
H1213 H 0.81689 0.20507 0.10134 0.0
H1214 H 0.78127 0.16325 0.0316 0.0
H1215 H 0.82129 0.16504 0.11723 0.0
H1216 H 0.82697 0.31949 0.12543 0.0
H1217 H 0.79395 0.24771 0.14517 0.0
H1218 H 0.86096 0.16842 0.9839 0.0
H1219 H 0.87568 0.17179 0.06397 0.0
H1220 H 0.74077 0.23965 0.99222 0.0
H1221 H 0.7831 0.29394 0.05094 0.0
H1222 H 0.72233 0.27289 0.97703 0.0
H1223 H 0.76394 0.32629 0.03475 0.0
H1224 H 0.75983 0.21602 0.96384 0.0
H1225 H 0.79248 0.15937 0.99155 0.0
H1226 H 0.73761 0.18476 0.92876 0.0
H1227 H 0.76956 0.12906 0.95609 0.0
H1228 H 0.80841 0.24584 0.92142 0.0
H1229 H 0.78801 0.31113 0.95011 0.0
H1230 H 0.71521 0.15446 0.06445 0.0
H1231 H 0.69125 0.16901 0.98986 0.0
Li1232 Li 0.17091 0.51508 0.25962 0.0
Li1233 Li 0.13801 0.48656 0.26471 0.0
Li1234 Li 0.16689 0.47131 0.2475 0.0
Li1235 Li 0.14194 0.4964 0.22349 0.0
C1236 C 0.18568 0.49175 0.30136 0.0
N1237 N 0.2194 0.499 0.34283 0.0
C1238 C 0.18174 0.49985 0.32467 0.0
C1239 C 0.20682 0.48729 0.29924 0.0
C1240 C 0.199 0.50345 0.34537 0.0
C1241 C 0.22362 0.49105 0.32039 0.0
C1242 C 0.13465 0.5367 0.26705 0.0
C1243 C 0.11301 0.56736 0.27414 0.0
N1244 N 0.12366 0.57219 0.29827 0.0
C1245 C 0.14541 0.54201 0.29187 0.0
C1246 C 0.11834 0.5495 0.25806 0.0
C1247 C 0.13962 0.55999 0.30738 0.0
C1248 C 0.18773 0.5638 0.25528 0.0
N1249 N 0.19159 0.54634 0.27055 0.0
C1250 C 0.2253 0.57436 0.29293 0.0
C1251 C 0.20961 0.55133 0.28957 0.0
C1252 C 0.2223 0.592 0.27641 0.0
C1253 C 0.20301 0.58683 0.25778 0.0
H1254 H 0.17322 0.5593 0.24041 0.0
H1255 H 0.21238 0.53741 0.30164 0.0
C1256 C 0.12247 0.47132 0.30763 0.0
N1257 N 0.11684 0.48097 0.28615 0.0
C1258 C 0.11058 0.47366 0.32687 0.0
C1259 C 0.08606 0.49357 0.30046 0.0
C1260 C 0.09839 0.49079 0.28175 0.0
C1261 C 0.09279 0.48599 0.32375 0.0
H1262 H 0.1371 0.46333 0.3104 0.0
H1263 H 0.09428 0.49816 0.26436 0.0
C1264 C 0.1929 0.5156 0.22124 0.0
N1265 N 0.22889 0.54956 0.20972 0.0
C1266 C 0.18961 0.52932 0.20115 0.0
C1267 C 0.21459 0.51886 0.23521 0.0
C1268 C 0.208 0.54646 0.19568 0.0
C1269 C 0.23253 0.53622 0.22918 0.0
C1270 C 0.11328 0.44755 0.23757 0.0
C1271 C 0.11317 0.4283 0.25275 0.0
C1272 C 0.0929 0.45278 0.22694 0.0
C1273 C 0.09257 0.41461 0.25719 0.0
C1274 C 0.07265 0.43865 0.23181 0.0
N1275 N 0.07291 0.42003 0.24672 0.0
C1276 C 0.1833 0.43078 0.26349 0.0
C1277 C 0.2021 0.45246 0.23435 0.0
C1278 C 0.20112 0.41928 0.26978 0.0
N1279 N 0.18451 0.44758 0.24665 0.0
C1280 C 0.22061 0.44205 0.24064 0.0
C1281 C 0.22067 0.4259 0.25927 0.0
H1282 H 0.16938 0.42785 0.27347 0.0
H1283 H 0.20268 0.46614 0.22124 0.0
C1284 C 0.12902 0.52969 0.19391 0.0
N1285 N 0.12766 0.50466 0.19358 0.0
C1286 C 0.11854 0.53907 0.17367 0.0
C1287 C 0.10557 0.49666 0.15277 0.0
C1288 C 0.11632 0.48804 0.17363 0.0
C1289 C 0.10657 0.52253 0.15272 0.0
H1290 H 0.13819 0.54239 0.21008 0.0
H1291 H 0.11545 0.46819 0.17402 0.0
O1292 O 0.16877 0.48767 0.28096 0.0
O1293 O 0.13989 0.51901 0.25154 0.0
O1294 O 0.17498 0.49906 0.22715 0.0
O1295 O 0.13327 0.46168 0.23363 0.0
H1296 H 0.16556 0.50337 0.32687 0.0
H1297 H 0.21045 0.48137 0.28149 0.0
H1298 H 0.19615 0.50975 0.36348 0.0
H1299 H 0.24004 0.48774 0.31893 0.0
H1300 H 0.10038 0.57736 0.26745 0.0
H1301 H 0.15814 0.53243 0.29904 0.0
H1302 H 0.10976 0.54552 0.2389 0.0
H1303 H 0.14782 0.56425 0.32665 0.0
H1304 H 0.24001 0.57795 0.30758 0.0
H1305 H 0.2 0.6003 0.245 0.0
H1306 H 0.11603 0.46717 0.34443 0.0
H1307 H 0.07255 0.50332 0.2973 0.0
H1308 H 0.17306 0.52678 0.18988 0.0
H1309 H 0.21749 0.50843 0.25081 0.0
H1310 H 0.20566 0.55729 0.18026 0.0
H1311 H 0.24934 0.53913 0.24003 0.0
H1312 H 0.12884 0.42417 0.26123 0.0
H1313 H 0.09275 0.4678 0.21533 0.0
H1314 H 0.09222 0.39974 0.26902 0.0
H1315 H 0.05674 0.44255 0.22383 0.0
H1316 H 0.19993 0.40627 0.28358 0.0
H1317 H 0.2352 0.44797 0.23206 0.0
H1318 H 0.11939 0.55904 0.17473 0.0
H1319 H 0.09662 0.48329 0.13691 0.0
Li1320 Li 0.81643 0.95531 0.5545 0.0
Li1321 Li 0.83269 0.92364 0.57613 0.0
Li1322 Li 0.85825 0.9581 0.55704 0.0
Li1323 Li 0.83154 0.92287 0.52976 0.0
C1324 C 0.84397 0.98347 0.59934 0.0
N1325 N 0.85 0.02854 0.62863 0.0
C1326 C 0.84362 0.9838 0.62473 0.0
C1327 C 0.84766 1.00608 0.58895 0.0
C1328 C 0.84661 1.00676 0.6392 0.0
C1329 C 0.85062 0.02867 0.60402 0.0
C1330 C 0.78907 0.90079 0.55543 0.0
C1331 C 0.76785 0.85817 0.55431 0.0
N1332 N 0.7556 0.86623 0.57042 0.0
C1333 C 0.77612 0.9087 0.57175 0.0
C1334 C 0.78481 0.87537 0.54646 0.0
C1335 C 0.75935 0.89092 0.57921 0.0
C1336 C 0.77918 0.97346 0.53181 0.0
N1337 N 0.79227 0.97259 0.55399 0.0
C1338 C 0.76975 0.99421 0.57533 0.0
C1339 C 0.78777 0.9825 0.57556 0.0
C1340 C 0.75602 0.99565 0.55268 0.0
C1341 C 0.76097 0.98501 0.5307 0.0
H1342 H 0.78291 0.96516 0.51492 0.0
H1343 H 0.79789 0.98095 0.59307 0.0
C1344 C 0.8364 0.88467 0.61037 0.0
N1345 N 0.82844 0.9054 0.60543 0.0
C1346 C 0.83276 0.8731 0.63186 0.0
C1347 C 0.81295 0.90433 0.64297 0.0
C1348 C 0.81674 0.91509 0.62125 0.0
C1349 C 0.82104 0.88302 0.64873 0.0
H1350 H 0.84573 0.87713 0.59781 0.0
H1351 H 0.81024 0.93132 0.61699 0.0
C1352 C 0.84083 0.97911 0.51458 0.0
N1353 N 0.85257 0.01861 0.4873 0.0
C1354 C 0.85329 0.97678 0.49579 0.0
C1355 C 0.83388 1.00138 0.51906 0.0
C1356 C 0.85922 0.997 0.48235 0.0
C1357 C 0.84009 0.02117 0.5052 0.0
C1358 C 0.86434 0.90077 0.54816 0.0
C1359 C 0.88548 0.90356 0.54124 0.0
C1360 C 0.85002 0.87689 0.5459 0.0
C1361 C 0.89186 0.88233 0.53187 0.0
C1362 C 0.85701 0.85611 0.53649 0.0
N1363 N 0.87761 0.85924 0.5297 0.0
C1364 C 0.89901 0.99856 0.5763 0.0
C1365 C 0.89834 0.97508 0.53819 0.0
C1366 C 0.92017 0.01386 0.57501 0.0
N1367 N 0.88832 0.97977 0.55782 0.0
C1368 C 0.91947 0.98981 0.53619 0.0
C1369 C 0.93074 1.00971 0.55467 0.0
H1370 H 0.89128 1.00172 0.59217 0.0
H1371 H 0.88986 0.95982 0.52389 0.0
C1372 C 0.80818 0.89199 0.48332 0.0
N1373 N 0.82856 0.90474 0.49674 0.0
C1374 C 0.80621 0.8824 0.45837 0.0
C1375 C 0.84616 0.89911 0.4614 0.0
C1376 C 0.84742 0.90793 0.48633 0.0
C1377 C 0.82529 0.88634 0.44669 0.0
H1378 H 0.79329 0.88982 0.49174 0.0
H1379 H 0.86343 0.91842 0.49708 0.0
O1380 O 0.84064 0.9611 0.58478 0.0
O1381 O 0.80577 0.91787 0.54822 0.0
O1382 O 0.83476 0.95944 0.52789 0.0
O1383 O 0.85756 0.92134 0.55686 0.0
H1384 H 0.84118 0.96656 0.63324 0.0
H1385 H 0.84868 1.00623 0.56959 0.0
H1386 H 0.8463 1.00727 0.65885 0.0
H1387 H 0.85353 0.04631 0.59618 0.0
H1388 H 0.76441 0.83842 0.54758 0.0
H1389 H 0.77916 0.92832 0.57879 0.0
H1390 H 0.79446 0.86899 0.53352 0.0
H1391 H 0.74933 0.89675 0.592 0.0
H1392 H 0.76639 1.00162 0.59281 0.0
H1393 H 0.75107 0.98583 0.51277 0.0
H1394 H 0.83947 0.85682 0.63545 0.0
H1395 H 0.80349 0.91251 0.65501 0.0
H1396 H 0.85845 0.95963 0.49162 0.0
H1397 H 0.8237 1.00342 0.53299 0.0
H1398 H 0.86904 0.99547 0.46792 0.0
H1399 H 0.83492 0.03853 0.50861 0.0
H1400 H 0.89682 0.92191 0.54303 0.0
H1401 H 0.83366 0.87447 0.55129 0.0
H1402 H 0.90814 0.88421 0.52633 0.0
H1403 H 0.84607 0.83751 0.53458 0.0
H1404 H 0.9283 0.02858 0.59003 0.0
H1405 H 0.92669 0.98583 0.52006 0.0
H1406 H 0.78975 0.87225 0.44835 0.0
H1407 H 0.86141 0.90326 0.45363 0.0
Li1408 Li 0.9419 0.07226 0.23159 0.0
Li1409 Li 0.91171 0.03459 0.2136 0.0
Li1410 Li 0.93399 0.06119 0.18763 0.0
Li1411 Li 0.90654 0.07625 0.20809 0.0
C1412 C 0.95861 0.02658 0.20802 0.0
N1413 N 0.98734 0.99704 0.19647 0.0
C1414 C 0.95016 1.00093 0.2002 0.0
C1415 C 0.9817 0.03717 0.21013 0.0
C1416 C 0.96496 0.98632 0.19442 0.0
C1417 C 0.99593 0.02194 0.20413 0.0
C1418 C 0.89241 0.05692 0.24958 0.0
C1419 C 0.85218 0.04103 0.24512 0.0
N1420 N 0.85381 0.04668 0.26999 0.0
C1421 C 0.89371 0.06265 0.27505 0.0
C1422 C 0.87151 0.04608 0.23444 0.0
C1423 C 0.874 0.05729 0.28503 0.0
C1424 C 0.96717 0.10842 0.27102 0.0
N1425 N 0.96458 0.08509 0.25906 0.0
C1426 C 0.99331 0.07637 0.28905 0.0
C1427 C 0.9773 0.06918 0.26745 0.0
C1428 C 0.99596 0.10005 0.30231 0.0
C1429 C 0.98305 0.11645 0.29281 0.0
H1430 H 0.95635 0.12038 0.26417 0.0
H1431 H 0.97424 0.05042 0.25806 0.0
C1432 C 0.88355 0.98512 0.20259 0.0
N1433 N 0.89741 1.00266 0.22041 0.0
C1434 C 0.87108 0.96301 0.20922 0.0
C1435 C 0.88777 0.97753 0.25225 0.0
C1436 C 0.90017 0.99903 0.24474 0.0
C1437 C 0.8727 0.95927 0.23445 0.0
H1438 H 0.88183 0.98854 0.18334 0.0
H1439 H 0.91135 0.01342 0.25844 0.0
C1440 C 0.95466 0.11508 0.2108 0.0
N1441 N 0.99034 0.15693 0.22122 0.0
C1442 C 0.95075 0.13889 0.2161 0.0
C1443 C 0.9767 0.1126 0.21059 0.0
C1444 C 0.96902 0.1598 0.2214 0.0
C1445 C 0.99451 0.13396 0.21594 0.0
C1446 C 0.88533 0.0487 0.16196 0.0
C1447 C 0.89107 0.06691 0.14624 0.0
C1448 C 0.8637 0.03281 0.15721 0.0
C1449 C 0.87502 0.06892 0.12592 0.0
C1450 C 0.84813 0.03544 0.13672 0.0
N1451 N 0.85406 0.05329 0.12163 0.0
C1452 C 0.95814 0.04466 0.15265 0.0
C1453 C 0.95508 0.08697 0.15331 0.0
C1454 C 0.97515 0.04929 0.13864 0.0
N1455 N 0.9494 0.06375 0.16073 0.0
C1456 C 0.97169 0.09234 0.13886 0.0
C1457 C 0.98259 0.07363 0.13218 0.0
H1458 H 0.9529 0.02621 0.15822 0.0
H1459 H 0.9476 0.10175 0.15969 0.0
C1460 C 0.89345 0.11464 0.2292 0.0
N1461 N 0.88652 0.09729 0.20889 0.0
C1462 C 0.88098 0.13214 0.23364 0.0
C1463 C 0.85404 0.11328 0.19634 0.0
C1464 C 0.86711 0.09604 0.19263 0.0
C1465 C 0.8611 0.1317 0.21698 0.0
H1466 H 0.90876 0.11474 0.24201 0.0
H1467 H 0.86165 0.08178 0.17692 0.0
O1468 O 0.94442 0.04108 0.21412 0.0
O1469 O 0.9116 0.06197 0.23963 0.0
O1470 O 0.93697 0.09437 0.20561 0.0
O1471 O 0.9007 0.04641 0.18198 0.0
H1472 H 0.93237 0.99241 0.19852 0.0
H1473 H 0.9886 0.05689 0.21642 0.0
H1474 H 0.95865 0.96645 0.1883 0.0
H1475 H 1.01381 0.0299 0.20563 0.0
H1476 H 0.83588 0.03261 0.23365 0.0
H1477 H 0.90981 0.07108 0.28696 0.0
H1478 H 0.87023 0.0416 0.21468 0.0
H1479 H 0.87474 0.06157 0.30473 0.0
H1480 H 1.00233 0.06281 0.29617 0.0
H1481 H 0.98447 0.13472 0.30274 0.0
H1482 H 0.86006 0.94926 0.19478 0.0
H1483 H 0.88937 0.97584 0.2719 0.0
H1484 H 0.93379 0.14125 0.21604 0.0
H1485 H 0.97998 0.09437 0.20629 0.0
H1486 H 0.96623 0.17833 0.2256 0.0
H1487 H 1.01165 0.13228 0.21587 0.0
H1488 H 0.90759 0.07956 0.14987 0.0
H1489 H 0.85894 0.01873 0.16931 0.0
H1490 H 0.8792 0.08299 0.11363 0.0
H1491 H 0.8313 0.02334 0.13285 0.0
H1492 H 0.98304 0.0342 0.134 0.0
H1493 H 0.97635 0.11112 0.13362 0.0
H1494 H 0.88669 0.14567 0.2501 0.0
H1495 H 0.83875 0.11238 0.18314 0.0
Li1496 Li 0.2988 0.74453 0.5536 0.0
Li1497 Li 0.31186 0.71099 0.52687 0.0
Li1498 Li 0.2941 0.74366 0.50599 0.0
Li1499 Li 0.27143 0.71043 0.52478 0.0
C1500 C 0.3368 0.77222 0.53485 0.0
N1501 N 0.36499 0.81958 0.54033 0.0
C1502 C 0.35961 0.775 0.53349 0.0
C1503 C 0.32829 0.79345 0.53905 0.0
C1504 C 0.3736 0.79914 0.53629 0.0
C1505 C 0.34283 0.81725 0.54177 0.0
C1506 C 0.28147 0.68868 0.56421 0.0
C1507 C 0.26409 0.64486 0.56401 0.0
N1508 N 0.25368 0.65099 0.58283 0.0
C1509 C 0.27068 0.69458 0.58357 0.0
C1510 C 0.27822 0.66365 0.55433 0.0
C1511 C 0.25667 0.67524 0.59273 0.0
C1512 C 0.28622 0.76901 0.59582 0.0
N1513 N 0.30406 0.76299 0.58706 0.0
C1514 C 0.32763 0.77719 0.62721 0.0
C1515 C 0.32457 0.76706 0.60223 0.0
C1516 C 0.30941 0.78317 0.63702 0.0
C1517 C 0.28853 0.77914 0.62066 0.0
H1518 H 0.26993 0.76529 0.58368 0.0
H1519 H 0.33847 0.76175 0.59515 0.0
C1520 C 0.34836 0.69731 0.50825 0.0
N1521 N 0.33513 0.69276 0.52572 0.0
C1522 C 0.3653 0.6843 0.50639 0.0
C1523 C 0.35473 0.66212 0.54051 0.0
C1524 C 0.3381 0.67568 0.54183 0.0
C1525 C 0.36864 0.6663 0.52259 0.0
H1526 H 0.34566 0.71099 0.49565 0.0
H1527 H 0.32758 0.67258 0.55575 0.0
C1528 C 0.25639 0.75908 0.51974 0.0
N1529 N 0.22394 0.78384 0.50146 0.0
C1530 C 0.23834 0.74686 0.50097 0.0
C1531 C 0.25784 0.78379 0.52942 0.0
C1532 C 0.22215 0.75973 0.4919 0.0
C1533 C 0.24128 0.79601 0.51988 0.0
C1534 C 0.27709 0.68591 0.48082 0.0
C1535 C 0.25871 0.68691 0.46271 0.0
C1536 C 0.28422 0.66349 0.48223 0.0
C1537 C 0.24765 0.6654 0.44639 0.0
C1538 C 0.27272 0.64239 0.46557 0.0
N1539 N 0.25482 0.64377 0.44815 0.0
C1540 C 0.31485 0.77571 0.47167 0.0
C1541 C 0.27579 0.7581 0.4587 0.0
C1542 C 0.31593 0.78601 0.44914 0.0
N1543 N 0.29496 0.76197 0.47619 0.0
C1544 C 0.27616 0.7678 0.43583 0.0
C1545 C 0.29646 0.78189 0.43059 0.0
H1546 H 0.33015 0.77811 0.48516 0.0
H1547 H 0.26017 0.74691 0.4621 0.0
C1548 C 0.228 0.69939 0.53726 0.0
N1549 N 0.24112 0.68931 0.52359 0.0
C1550 C 0.20636 0.68582 0.53883 0.0
C1551 C 0.21179 0.65149 0.51219 0.0
C1552 C 0.23346 0.66564 0.51136 0.0
C1553 C 0.19792 0.66149 0.52617 0.0
H1554 H 0.23449 0.71799 0.54728 0.0
H1555 H 0.24424 0.65732 0.50143 0.0
O1556 O 0.32284 0.74879 0.53192 0.0
O1557 O 0.29456 0.7074 0.55439 0.0
O1558 O 0.2723 0.74677 0.52906 0.0
O1559 O 0.28827 0.70681 0.49685 0.0
H1560 H 0.36638 0.75869 0.5302 0.0
H1561 H 0.31066 0.79152 0.54012 0.0
H1562 H 0.39129 0.80162 0.53522 0.0
H1563 H 0.3365 0.83388 0.545 0.0
H1564 H 0.26129 0.62541 0.55644 0.0
H1565 H 0.2729 0.71389 0.59126 0.0
H1566 H 0.28619 0.65884 0.53906 0.0
H1567 H 0.24809 0.67952 0.60764 0.0
H1568 H 0.34401 0.77951 0.63889 0.0
H1569 H 0.27398 0.78368 0.62696 0.0
H1570 H 0.37541 0.688 0.49212 0.0
H1571 H 0.35685 0.64872 0.55363 0.0
H1572 H 0.23694 0.72769 0.49338 0.0
H1573 H 0.27156 0.7934 0.54418 0.0
H1574 H 0.20816 0.75055 0.47726 0.0
H1575 H 0.24219 0.81516 0.52716 0.0
H1576 H 0.25284 0.70397 0.46141 0.0
H1577 H 0.2984 0.66231 0.4961 0.0
H1578 H 0.23333 0.6659 0.43237 0.0
H1579 H 0.27801 0.6249 0.4665 0.0
H1580 H 0.33208 0.79641 0.44597 0.0
H1581 H 0.26063 0.76423 0.42235 0.0
H1582 H 0.19628 0.6944 0.54976 0.0
H1583 H 0.2062 0.63263 0.50252 0.0
Li1584 Li 0.40819 0.53269 0.71122 0.0
Li1585 Li 0.44059 0.56761 0.73083 0.0
Li1586 Li 0.40532 0.57576 0.71069 0.0
Li1587 Li 0.43026 0.56215 0.68614 0.0
C1588 C 0.39294 0.55665 0.75187 0.0
N1589 N 0.35681 0.55479 0.77602 0.0
C1590 C 0.39652 0.56707 0.77658 0.0
C1591 C 0.37102 0.54541 0.73935 0.0
C1592 C 0.37801 0.56589 0.7885 0.0
C1593 C 0.35297 0.54464 0.7519 0.0
C1594 C 0.45674 0.52489 0.71066 0.0
C1595 C 0.49483 0.5215 0.70899 0.0
N1596 N 0.49007 0.49826 0.71658 0.0
C1597 C 0.45221 0.5009 0.71831 0.0
C1598 C 0.47821 0.53523 0.70585 0.0
C1599 C 0.46928 0.48777 0.72125 0.0
C1600 C 0.37887 0.48333 0.69907 0.0
N1601 N 0.39329 0.50057 0.71673 0.0
C1602 C 0.38463 0.47509 0.74861 0.0
C1603 C 0.3967 0.49665 0.74098 0.0
C1604 C 0.36916 0.457 0.73103 0.0
C1605 C 0.36668 0.4611 0.70584 0.0
H1606 H 0.3765 0.48707 0.67992 0.0
H1607 H 0.40836 0.51077 0.75456 0.0
C1608 C 0.47054 0.60167 0.76847 0.0
N1609 N 0.46435 0.57741 0.75782 0.0
C1610 C 0.48768 0.60878 0.78927 0.0
C1611 C 0.4915 0.56575 0.78758 0.0
C1612 C 0.47427 0.5595 0.76701 0.0
C1613 C 0.49824 0.59061 0.79908 0.0
H1614 H 0.46181 0.61534 0.76115 0.0
H1615 H 0.46827 0.54017 0.759 0.0
C1616 C 0.38162 0.55398 0.6635 0.0
N1617 N 0.35086 0.56532 0.62642 0.0
C1618 C 0.38738 0.57585 0.65228 0.0
C1619 C 0.36024 0.53789 0.65598 0.0
C1620 C 0.3716 0.58124 0.63351 0.0
C1621 C 0.34491 0.54396 0.63719 0.0
C1622 C 0.45338 0.6134 0.70877 0.0
C1623 C 0.44921 0.63732 0.70742 0.0
C1624 C 0.47545 0.61038 0.71041 0.0
C1625 C 0.46724 0.65784 0.70777 0.0
C1626 C 0.49302 0.63135 0.71064 0.0
N1627 N 0.48859 0.65446 0.70934 0.0
C1628 C 0.39705 0.61711 0.73311 0.0
C1629 C 0.3649 0.59445 0.70401 0.0
C1630 C 0.38542 0.63469 0.73999 0.0
N1631 N 0.38677 0.5977 0.7153 0.0
C1632 C 0.35259 0.61174 0.71023 0.0
C1633 C 0.36294 0.63219 0.72839 0.0
H1634 H 0.41427 0.61862 0.74223 0.0
H1635 H 0.35689 0.57836 0.69053 0.0
C1636 C 0.4535 0.5469 0.65123 0.0
N1637 N 0.44458 0.56604 0.65873 0.0
C1638 C 0.47053 0.55126 0.63724 0.0
C1639 C 0.46701 0.59427 0.63669 0.0
C1640 C 0.4503 0.58915 0.65108 0.0
C1641 C 0.47796 0.57543 0.6304 0.0
H1642 H 0.44867 0.52879 0.65777 0.0
H1643 H 0.44298 0.60409 0.65744 0.0
O1644 O 0.41082 0.55781 0.73987 0.0
O1645 O 0.44009 0.5379 0.7076 0.0
O1646 O 0.39667 0.54845 0.68205 0.0
O1647 O 0.4359 0.59323 0.70891 0.0
H1648 H 0.41341 0.57595 0.78643 0.0
H1649 H 0.36798 0.53755 0.72009 0.0
H1650 H 0.3805 0.57381 0.80767 0.0
H1651 H 0.33591 0.53603 0.74246 0.0
H1652 H 0.5115 0.5293 0.7053 0.0
H1653 H 0.4357 0.49243 0.72192 0.0
H1654 H 0.48202 0.55351 0.6995 0.0
H1655 H 0.46599 0.46921 0.72721 0.0
H1656 H 0.38687 0.47321 0.76826 0.0
H1657 H 0.35524 0.44752 0.69156 0.0
H1658 H 0.49222 0.62803 0.79797 0.0
H1659 H 0.49861 0.55099 0.79519 0.0
H1660 H 0.40371 0.58869 0.65826 0.0
H1661 H 0.35551 0.521 0.6647 0.0
H1662 H 0.37579 0.59813 0.62467 0.0
H1663 H 0.32827 0.53172 0.63119 0.0
H1664 H 0.43221 0.64 0.7061 0.0
H1665 H 0.47899 0.59214 0.71185 0.0
H1666 H 0.46426 0.67646 0.70678 0.0
H1667 H 0.5102 0.62926 0.71196 0.0
H1668 H 0.39381 0.64982 0.75454 0.0
H1669 H 0.33525 0.60919 0.70093 0.0
H1670 H 0.47859 0.53617 0.63314 0.0
H1671 H 0.47182 0.61297 0.63132 0.0
Li1672 Li 0.63623 0.98547 0.76353 0.0
Li1673 Li 0.66706 0.01778 0.75981 0.0
Li1674 Li 0.64024 0.99592 0.72333 0.0
Li1675 Li 0.66631 0.97482 0.74748 0.0
C1676 C 0.62935 0.03434 0.76679 0.0
N1677 N 0.61716 0.06773 0.79923 0.0
C1678 C 0.63731 0.03609 0.79231 0.0
C1679 C 0.61521 0.04959 0.75778 0.0
C1680 C 0.63094 0.05307 0.8084 0.0
C1681 C 0.60925 0.06636 0.77447 0.0
C1682 C 0.68871 0.99364 0.79504 0.0
C1683 C 0.72924 1.00775 0.80013 0.0
N1684 N 0.73147 0.99876 0.82252 0.0
C1685 C 0.69143 0.98461 0.81815 0.0
C1686 C 0.70779 1.00535 0.78598 0.0
C1687 C 0.71317 0.98735 0.83174 0.0
C1688 C 0.62227 0.96937 0.80643 0.0
N1689 N 0.61502 0.9774 0.78453 0.0
C1690 C 0.58335 0.98735 0.79921 0.0
C1691 C 0.59538 0.98504 0.78011 0.0
C1692 C 0.59178 0.98172 0.82286 0.0
C1693 C 0.61077 0.97133 0.82603 0.0
H1694 H 0.63793 0.96336 0.80924 0.0
H1695 H 0.59025 0.99163 0.76254 0.0
C1696 C 0.69258 0.0624 0.75291 0.0
N1697 N 0.68586 0.04954 0.77151 0.0
C1698 C 0.70866 0.08496 0.75835 0.0
C1699 C 0.70969 0.08145 0.80217 0.0
C1700 C 0.69376 0.05856 0.79583 0.0
C1701 C 0.71756 0.09445 0.7832 0.0
H1702 H 0.68571 0.05479 0.73381 0.0
H1703 H 0.68819 0.04774 0.81022 0.0
C1704 C 0.61314 0.94654 0.73535 0.0
N1705 N 0.57192 0.91783 0.74101 0.0
C1706 C 0.61223 0.927 0.75027 0.0
C1707 C 0.59309 0.95149 0.72332 0.0
C1708 C 0.59122 0.91271 0.75291 0.0
C1709 C 0.57242 0.93674 0.72639 0.0
C1710 C 0.68025 0.99743 0.70671 0.0
C1711 C 0.6693 0.97466 0.69225 0.0
C1712 C 0.69816 0.01337 0.699 0.0
C1713 C 0.6764 0.96829 0.67024 0.0
C1714 C 0.70479 1.00629 0.6769 0.0
N1715 N 0.69386 0.9841 0.66308 0.0
C1716 C 0.62889 0.02886 0.69295 0.0
C1717 C 0.61488 0.98719 0.673 0.0
C1718 C 0.61859 0.03845 0.67273 0.0
N1719 N 0.62656 1.00371 0.69289 0.0
C1720 C 0.60436 0.99602 0.65213 0.0
C1721 C 0.60597 0.022 0.65199 0.0
H1722 H 0.63842 0.04147 0.70908 0.0
H1723 H 0.61345 0.96726 0.67349 0.0
C1724 C 0.68234 0.93199 0.75888 0.0
N1725 N 0.68682 0.95363 0.74831 0.0
C1726 C 0.6996 0.91996 0.76631 0.0
C1727 C 0.72563 0.9526 0.75156 0.0
C1728 C 0.7078 0.96354 0.74383 0.0
C1729 C 0.72184 0.9308 0.76354 0.0
H1730 H 0.66571 0.92488 0.76289 0.0
H1731 H 0.71131 0.98128 0.73639 0.0
O1732 O 0.63502 0.01762 0.75059 0.0
O1733 O 0.66743 0.99069 0.78147 0.0
O1734 O 0.63352 0.96109 0.73292 0.0
O1735 O 0.67372 1.00418 0.72841 0.0
H1736 H 0.64809 0.0243 0.79967 0.0
H1737 H 0.60883 0.04838 0.73808 0.0
H1738 H 0.6369 0.05453 0.82819 0.0
H1739 H 0.59828 0.07825 0.76775 0.0
H1740 H 0.74412 0.01669 0.79325 0.0
H1741 H 0.67694 0.97551 0.82554 0.0
H1742 H 0.70617 0.01234 0.76812 0.0
H1743 H 0.71548 0.98038 0.84961 0.0
H1744 H 0.56889 0.99566 0.7961 0.0
H1745 H 0.61758 0.96649 0.84395 0.0
H1746 H 0.71411 0.09492 0.74332 0.0
H1747 H 0.71622 0.08855 0.82151 0.0
H1748 H 0.62754 0.92312 0.75999 0.0
H1749 H 0.59347 0.96679 0.71203 0.0
H1750 H 0.59027 0.89761 0.76449 0.0
H1751 H 0.55677 0.94043 0.71726 0.0
H1752 H 0.65549 0.96198 0.69788 0.0
H1753 H 0.70696 0.03096 0.71008 0.0
H1754 H 0.66805 0.95076 0.65885 0.0
H1755 H 0.71866 0.01844 0.67075 0.0
H1756 H 0.61999 0.05852 0.67373 0.0
H1757 H 0.59502 0.9827 0.6364 0.0
H1758 H 0.69562 0.90283 0.77484 0.0
H1759 H 0.74241 0.96211 0.74942 0.0
Li1760 Li 0.79105 0.75098 0.04476 0.0
Li1761 Li 0.80461 0.71921 0.02203 0.0
Li1762 Li 0.78906 0.75175 0.99864 0.0
Li1763 Li 0.76238 0.71701 0.01819 0.0
C1764 C 0.8352 0.77256 0.03751 0.0
N1765 N 0.87382 0.80608 0.06286 0.0
C1766 C 0.85064 0.76434 0.05452 0.0
C1767 C 0.83959 0.79771 0.03302 0.0
C1768 C 0.87002 0.78161 0.06725 0.0
C1769 C 0.85917 0.8144 0.04613 0.0
C1770 C 0.78947 0.70393 0.06777 0.0
C1771 C 0.77984 0.67125 0.09366 0.0
N1772 N 0.79885 0.68206 0.11057 0.0
C1773 C 0.80893 0.7147 0.08534 0.0
C1774 C 0.7748 0.68203 0.0719 0.0
C1775 C 0.81336 0.70338 0.10688 0.0
C1776 C 0.77811 0.75807 0.0912 0.0
N1777 N 0.79427 0.76859 0.07844 0.0
C1778 C 0.81319 0.79737 0.1147 0.0
C1779 C 0.81152 0.78817 0.08968 0.0
C1780 C 0.79701 0.78639 0.12854 0.0
C1781 C 0.77916 0.76658 0.11616 0.0
H1782 H 0.7646 0.74243 0.08212 0.0
H1783 H 0.82423 0.79653 0.0795 0.0
C1784 C 0.84371 0.70769 1.00807 0.0
N1785 N 0.82778 0.70042 0.0222 0.0
C1786 C 0.86167 0.69587 1.00807 0.0
C1787 C 0.84657 0.66916 0.03715 0.0
C1788 C 0.8288 0.68136 0.03642 0.0
C1789 C 0.86346 0.67637 0.0229 0.0
H1790 H 0.84254 0.72287 0.99688 0.0
H1791 H 0.81597 0.67571 0.04743 0.0
C1792 C 0.75987 0.77439 0.03139 0.0
N1793 N 0.75137 0.81453 0.05865 0.0
C1794 C 0.74097 0.77101 0.04285 0.0
C1795 C 0.77436 0.79818 0.03361 0.0
C1796 C 0.73699 0.79155 0.05661 0.0
C1797 C 0.7698 0.81824 0.04751 0.0
C1798 C 0.77878 0.68987 0.97965 0.0
C1799 C 0.78153 0.68631 0.95499 0.0
C1800 C 0.77443 0.66919 0.99292 0.0
C1801 C 0.77981 0.662 0.94396 0.0
C1802 C 0.77284 0.64519 0.98123 0.0
N1803 N 0.77554 0.64212 0.9572 0.0
C1804 C 0.8043 0.7599 0.95296 0.0
C1805 C 0.78552 0.79081 0.96488 0.0
C1806 C 0.80789 0.77089 0.93127 0.0
N1807 N 0.7931 0.76973 0.96925 0.0
C1808 C 0.78899 0.80261 0.94349 0.0
C1809 C 0.8002 0.7926 0.9261 0.0
H1810 H 0.81058 0.74344 0.95686 0.0
H1811 H 0.77667 0.79849 0.97793 0.0
C1812 C 0.72367 0.69831 0.0386 0.0
N1813 N 0.73234 0.69563 0.01754 0.0
C1814 C 0.70246 0.68378 0.04059 0.0
C1815 C 0.69934 0.66337 0.99931 0.0
C1816 C 0.72057 0.67855 0.99799 0.0
C1817 C 0.68991 0.66588 0.02084 0.0
H1818 H 0.7334 0.71166 0.05408 0.0
H1819 H 0.72765 0.6766 0.98138 0.0
O1820 O 0.81612 0.756 0.02491 0.0
O1821 O 0.78466 0.71474 0.04663 0.0
O1822 O 0.76452 0.75442 0.01855 0.0
O1823 O 0.78072 0.71352 0.99093 0.0
H1824 H 0.84776 0.74482 0.05777 0.0
H1825 H 0.82799 0.80426 0.01958 0.0
H1826 H 0.88206 0.77554 0.08057 0.0
H1827 H 0.86272 0.83396 0.04298 0.0
H1828 H 0.76865 0.65428 0.09712 0.0
H1829 H 0.82035 0.73173 0.08249 0.0
H1830 H 0.75973 0.6734 0.05839 0.0
H1831 H 0.82831 0.71156 0.1207 0.0
H1832 H 0.8271 0.81295 0.12308 0.0
H1833 H 0.76639 0.7571 0.12581 0.0
H1834 H 0.87392 0.70189 0.9964 0.0
H1835 H 0.84723 0.65454 0.04917 0.0
H1836 H 0.72955 0.75274 0.04123 0.0
H1837 H 0.7891 0.80102 0.02492 0.0
H1838 H 0.72248 0.7892 0.06568 0.0
H1839 H 0.78094 0.83674 0.04951 0.0
H1840 H 0.78486 0.7021 0.94444 0.0
H1841 H 0.77236 0.67165 0.01207 0.0
H1842 H 0.78187 0.65894 0.92487 0.0
H1843 H 0.76948 0.62901 0.99127 0.0
H1844 H 0.81697 0.7626 0.91884 0.0
H1845 H 0.78259 0.81917 0.9404 0.0
H1846 H 0.69617 0.68622 0.0577 0.0
H1847 H 0.69029 0.64999 0.9835 0.0
Li1848 Li 0.94466 0.65546 0.81925 0.0
Li1849 Li 0.97673 0.67755 0.85338 0.0
Li1850 Li 0.95188 0.7005 0.82683 0.0
Li1851 Li 0.9785 0.68217 0.81051 0.0
C1852 C 0.92648 0.66452 0.86146 0.0
N1853 N 0.89172 0.64056 0.88342 0.0
C1854 C 0.93123 0.65597 0.88457 0.0
C1855 C 0.90402 0.66114 0.84967 0.0
C1856 C 0.91343 0.64385 0.89533 0.0
C1857 C 0.8867 0.6489 0.86102 0.0
C1858 C 0.99038 0.6395 0.81801 0.0
C1859 C 0.02838 0.63456 0.81914 0.0
N1860 N 0.02096 0.61735 0.79865 0.0
C1861 C 0.98307 0.62164 0.7971 0.0
C1862 C 1.01316 0.64595 0.82924 0.0
C1863 C 0.99882 0.6107 0.78754 0.0
C1864 C 0.91271 0.61846 0.78555 0.0
N1865 N 0.92296 0.62533 0.80968 0.0
C1866 C 0.90176 0.5883 0.82197 0.0
C1867 C 0.91836 0.61046 0.82766 0.0
C1868 C 0.89046 0.58106 0.79739 0.0
C1869 C 0.89626 0.59604 0.77888 0.0
H1870 H 0.91742 0.63027 0.77152 0.0
H1871 H 0.92764 0.6158 0.84641 0.0
C1872 C 1.0045 0.68726 0.90281 0.0
N1873 N 0.99161 0.67056 0.88364 0.0
C1874 C 0.01561 0.67854 0.92341 0.0
C1875 C 0.99964 0.63593 0.90396 0.0
C1876 C 0.98876 0.64539 0.88407 0.0
C1877 C 1.01336 0.65251 0.924 0.0
H1878 H 1.00633 0.7072 0.902 0.0
H1879 H 0.97821 0.63256 0.86866 0.0
C1880 C 0.93244 0.68634 0.77744 0.0
N1881 N 0.90254 0.70177 0.74235 0.0
C1882 C 0.9404 0.70056 0.75931 0.0
C1883 C 0.90927 0.67978 0.77755 0.0
C1884 C 0.92502 0.70822 0.74177 0.0
C1885 C 0.89443 0.68782 0.75972 0.0
C1886 C 1.00482 0.72539 0.83496 0.0
C1887 C 1.0042 0.73965 0.815 0.0
C1888 C 0.02526 0.72732 0.85107 0.0
C1889 C 0.02412 0.75557 0.8114 0.0
C1890 C 0.04481 0.74349 0.84686 0.0
N1891 N 0.04385 0.75715 0.82727 0.0
C1892 C 0.91796 0.72448 0.83723 0.0
C1893 C 0.93758 0.73992 0.80587 0.0
C1894 C 0.90081 0.73653 0.82945 0.0
N1895 N 0.93533 0.72554 0.82468 0.0
C1896 C 0.92057 0.75159 0.79699 0.0
C1897 C 0.90145 0.74939 0.80833 0.0
H1898 H 0.91676 0.71319 0.85239 0.0
H1899 H 0.95151 0.74038 0.79619 0.0
C1900 C 0.98599 0.67037 0.76403 0.0
N1901 N 0.99737 0.68233 0.78649 0.0
C1902 C 0.99758 0.66599 0.74512 0.0
C1903 C 0.0326 0.68645 0.77267 0.0
C1904 C 0.02027 0.69015 0.79123 0.0
C1905 C 0.02121 0.67398 0.74932 0.0
H1906 H 0.96793 0.66306 0.76115 0.0
H1907 H 0.02912 0.69826 0.80958 0.0
O1908 O 0.94376 0.6763 0.85063 0.0
O1909 O 0.97538 0.65104 0.82713 0.0
O1910 O 0.94731 0.67895 0.79496 0.0
O1911 O 0.98547 0.71 0.83906 0.0
H1912 H 0.94846 0.65873 0.89416 0.0
H1913 H 0.89999 0.66783 0.83194 0.0
H1914 H 0.91688 0.63708 0.91318 0.0
H1915 H 0.86926 0.64605 0.85202 0.0
H1916 H 0.0461 0.6395 0.82751 0.0
H1917 H 0.96547 0.61655 0.78818 0.0
H1918 H 0.01907 0.65991 0.84535 0.0
H1919 H 0.99347 0.59699 0.77123 0.0
H1920 H 0.89813 0.5766 0.8365 0.0
H1921 H 0.88814 0.5905 0.75966 0.0
H1922 H 0.02585 0.69198 0.9386 0.0
H1923 H 0.99772 0.6158 0.90323 0.0
H1924 H 0.9583 0.70606 0.75908 0.0
H1925 H 0.90279 0.6686 0.79123 0.0
H1926 H 0.93096 0.7194 0.72777 0.0
H1927 H 0.87646 0.68298 0.75969 0.0
H1928 H 0.9886 0.73815 0.80221 0.0
H1929 H 0.02605 0.71633 0.86653 0.0
H1930 H 0.02391 0.76661 0.79594 0.0
H1931 H 0.06077 0.74512 0.85912 0.0
H1932 H 0.88692 0.73508 0.83945 0.0
H1933 H 0.92193 0.76093 0.7805 0.0
H1934 H 0.98812 0.65543 0.72778 0.0
H1935 H 0.05083 0.69274 0.77677 0.0
Li1936 Li 0.82565 0.4283 0.56619 0.0
Li1937 Li 0.80835 0.45973 0.54676 0.0
Li1938 Li 0.82042 0.42584 0.51872 0.0
Li1939 Li 0.84939 0.46157 0.54736 0.0
C1940 C 0.77997 0.40545 0.54756 0.0
N1941 N 0.74557 0.37131 0.56155 0.0
C1942 C 0.76972 0.41249 0.56701 0.0
C1943 C 0.77276 0.38106 0.53521 0.0
C1944 C 0.75236 0.39495 0.57382 0.0
C1945 C 0.75533 0.36408 0.54256 0.0
C1946 C 0.83316 0.48444 0.59246 0.0
C1947 C 0.83966 0.52886 0.6052 0.0
N1948 N 0.83183 0.5237 0.62643 0.0
C1949 C 0.82526 0.47958 0.61446 0.0
C1950 C 0.84046 0.50928 0.58781 0.0
C1951 C 0.82467 0.49968 0.63137 0.0
C1952 C 0.84201 0.42215 0.61669 0.0
N1953 N 0.82636 0.41035 0.59645 0.0
C1954 C 0.81108 0.37873 0.62112 0.0
C1955 C 0.81142 0.38857 0.59826 0.0
C1956 C 0.82656 0.39099 0.64262 0.0
C1957 C 0.84243 0.41285 0.63983 0.0
H1958 H 0.85397 0.43929 0.61505 0.0
H1959 H 0.79937 0.3789 0.58214 0.0
C1960 C 0.77571 0.48663 0.52679 0.0
N1961 N 0.78517 0.47869 0.54792 0.0
C1962 C 0.75869 0.49987 0.52712 0.0
C1963 C 0.76129 0.49651 0.57091 0.0
C1964 C 0.77807 0.4832 0.56967 0.0
C1965 C 0.75119 0.50504 0.54944 0.0
H1966 H 0.78126 0.48251 0.50956 0.0
H1967 H 0.78519 0.47624 0.58615 0.0
C1968 C 0.85783 0.40825 0.55537 0.0
N1969 N 0.87679 0.37506 0.58186 0.0
C1970 C 0.87717 0.41719 0.57358 0.0
C1971 C 0.84808 0.38251 0.55058 0.0
C1972 C 0.88652 0.40008 0.58678 0.0
C1973 C 0.85794 0.366 0.56419 0.0
C1974 C 0.83315 0.48356 0.507 0.0
C1975 C 0.84259 0.48031 0.48586 0.0
C1976 C 0.83188 0.50758 0.5161 0.0
C1977 C 0.85097 0.50128 0.47439 0.0
C1978 C 0.84043 0.52808 0.50409 0.0
N1979 N 0.84974 0.52454 0.48367 0.0
C1980 C 0.79361 0.39752 0.47211 0.0
C1981 C 0.83303 0.40812 0.47334 0.0
C1982 C 0.78991 0.38687 0.44722 0.0
N1983 N 0.81494 0.4079 0.48477 0.0
C1984 C 0.83007 0.39796 0.44837 0.0
C1985 C 0.80825 0.38708 0.43477 0.0
H1986 H 0.77935 0.3979 0.48117 0.0
H1987 H 0.84986 0.41669 0.4835 0.0
C1988 C 0.89074 0.49956 0.56789 0.0
N1989 N 0.87939 0.48242 0.54823 0.0
C1990 C 0.91239 0.5141 0.56748 0.0
C1991 C 0.91072 0.49248 0.52707 0.0
C1992 C 0.88911 0.47849 0.52821 0.0
C1993 C 0.92274 0.51079 0.5468 0.0
H1994 H 0.88312 0.5019 0.58402 0.0
H1995 H 0.88011 0.46425 0.51312 0.0
O1996 O 0.79692 0.42232 0.54054 0.0
O1997 O 0.8339 0.46497 0.57571 0.0
O1998 O 0.84801 0.42473 0.54289 0.0
O1999 O 0.82504 0.46331 0.51862 0.0
H2000 H 0.77532 0.43117 0.57693 0.0
H2001 H 0.78065 0.3753 0.52022 0.0
H2002 H 0.74432 0.40011 0.5889 0.0
H2003 H 0.74958 0.34512 0.53322 0.0
H2004 H 0.8453 0.54817 0.60183 0.0
H2005 H 0.81918 0.4605 0.61824 0.0
H2006 H 0.84686 0.51343 0.57105 0.0
H2007 H 0.81844 0.49617 0.64838 0.0
H2008 H 0.79832 0.36197 0.62192 0.0
H2009 H 0.85515 0.42284 0.65538 0.0
H2010 H 0.75123 0.50557 0.50993 0.0
H2011 H 0.75644 0.50018 0.58866 0.0
H2012 H 0.88473 0.43714 0.5776 0.0
H2013 H 0.83295 0.37541 0.53668 0.0
H2014 H 0.90145 0.40669 0.601 0.0
H2015 H 0.85057 0.34601 0.56077 0.0
H2016 H 0.84358 0.46183 0.4785 0.0
H2017 H 0.82424 0.51037 0.53214 0.0
H2018 H 0.85845 0.49907 0.4581 0.0
H2019 H 0.8396 0.5468 0.51097 0.0
H2020 H 0.77273 0.37902 0.43765 0.0
H2021 H 0.84481 0.39842 0.43991 0.0
H2022 H 0.9208 0.52794 0.58316 0.0
H2023 H 0.91805 0.4886 0.511 0.0
Li2024 Li 0.68779 0.61235 0.38824 0.0
Li2025 Li 0.71175 0.63923 0.36365 0.0
Li2026 Li 0.68156 0.606 0.3448 0.0
Li2027 Li 0.71425 0.59581 0.36541 0.0
C2028 C 0.6607 0.64215 0.35383 0.0
N2029 N 0.62202 0.65378 0.32971 0.0
C2030 C 0.66207 0.65905 0.3361 0.0
C2031 C 0.63965 0.63132 0.35943 0.0
C2032 C 0.64233 0.66465 0.32407 0.0
C2033 C 0.6203 0.6374 0.347 0.0
C2034 C 0.733 0.63994 0.41367 0.0
C2035 C 0.76698 0.65884 0.44329 0.0
N2036 N 0.75589 0.67463 0.45363 0.0
C2037 C 0.72195 0.65637 0.42453 0.0
C2038 C 0.75569 0.64114 0.42308 0.0
C2039 C 0.7338 0.67376 0.44476 0.0
C2040 C 0.67018 0.58726 0.42529 0.0
N2041 N 0.67305 0.60928 0.41519 0.0
C2042 C 0.64491 0.6217 0.43471 0.0
C2043 C 0.66147 0.6268 0.42027 0.0
C2044 C 0.64048 0.59844 0.4442 0.0
C2045 C 0.65379 0.58138 0.44002 0.0
H2046 H 0.67944 0.57355 0.42041 0.0
H2047 H 0.66386 0.64392 0.41152 0.0
C2048 C 0.72448 0.675 0.33386 0.0
N2049 N 0.72762 0.67155 0.35826 0.0
C2050 C 0.73665 0.69631 0.32587 0.0
C2051 C 0.7543 0.71111 0.36853 0.0
C2052 C 0.74204 0.68916 0.37565 0.0
C2053 C 0.752 0.71469 0.34324 0.0
H2054 H 0.713 0.66064 0.32037 0.0
H2055 H 0.74449 0.6861 0.39491 0.0
C2056 C 0.66601 0.56 0.35662 0.0
N2057 N 0.63175 0.51934 0.33429 0.0
C2058 C 0.66893 0.54468 0.33646 0.0
C2059 C 0.64569 0.55454 0.36551 0.0
C2060 C 0.6514 0.52424 0.3254 0.0
C2061 C 0.62857 0.53393 0.35394 0.0
C2062 C 0.73282 0.61928 0.32954 0.0
C2063 C 0.73501 0.61517 0.30471 0.0
C2064 C 0.75222 0.62856 0.3477 0.0
C2065 C 0.75648 0.62056 0.29847 0.0
C2066 C 0.77337 0.63375 0.3407 0.0
N2067 N 0.77506 0.62968 0.31643 0.0
C2068 C 0.66631 0.60076 0.29456 0.0
C2069 C 0.63656 0.58731 0.31647 0.0
C2070 C 0.65126 0.59548 0.27217 0.0
N2071 N 0.65882 0.59661 0.3161 0.0
C2072 C 0.62078 0.58207 0.29447 0.0
C2073 C 0.62821 0.58618 0.27207 0.0
H2074 H 0.68392 0.60878 0.29483 0.0
H2075 H 0.63089 0.58454 0.33381 0.0
C2076 C 0.74695 0.56995 0.38528 0.0
N2077 N 0.7333 0.57387 0.3647 0.0
C2078 C 0.76205 0.55466 0.383 0.0
C2079 C 0.74848 0.54809 0.33855 0.0
C2080 C 0.7335 0.56301 0.34173 0.0
C2081 C 0.76307 0.54404 0.3593 0.0
H2082 H 0.74633 0.57898 0.40328 0.0
H2083 H 0.72234 0.56645 0.32577 0.0
O2084 O 0.67988 0.63653 0.3659 0.0
O2085 O 0.72183 0.62276 0.39385 0.0
O2086 O 0.68301 0.58006 0.36776 0.0
O2087 O 0.71177 0.61383 0.33583 0.0
H2088 H 0.67817 0.66783 0.33168 0.0
H2089 H 0.63813 0.6178 0.37269 0.0
H2090 H 0.64316 0.67766 0.31027 0.0
H2091 H 0.60389 0.62894 0.35099 0.0
H2092 H 0.78455 0.66002 0.45074 0.0
H2093 H 0.70459 0.6561 0.41708 0.0
H2094 H 0.76449 0.62858 0.41479 0.0
H2095 H 0.7255 0.68669 0.45329 0.0
H2096 H 0.63484 0.63527 0.43717 0.0
H2097 H 0.65105 0.56342 0.44731 0.0
H2098 H 0.73457 0.6978 0.30616 0.0
H2099 H 0.76565 0.72493 0.38267 0.0
H2100 H 0.68446 0.54864 0.32927 0.0
H2101 H 0.64292 0.56637 0.3808 0.0
H2102 H 0.6534 0.51229 0.30972 0.0
H2103 H 0.6127 0.52963 0.36051 0.0
H2104 H 0.72034 0.6077 0.29036 0.0
H2105 H 0.75108 0.63182 0.36698 0.0
H2106 H 0.75836 0.61743 0.27933 0.0
H2107 H 0.78847 0.64101 0.35457 0.0
H2108 H 0.65745 0.59952 0.25521 0.0
H2109 H 0.60302 0.5752 0.29493 0.0
H2110 H 0.77312 0.55166 0.39931 0.0
H2111 H 0.74872 0.53981 0.32007 0.0
Pr2112 Pr 0.03519 0.07382 0.02411 0.0
Pr2113 Pr 0.08806 0.09776 0.04864 0.0
C2114 C 0.98975 0.06642 0.01554 0.0
C2115 C 0.97307 0.08215 0.01473 0.0
C2116 C 0.9503 0.07153 1.00467 0.0
C2117 C 0.93402 0.08568 1.00558 0.0
C2118 C 0.94017 0.11095 0.0164 0.0
C2119 C 0.9632 0.12162 0.02605 0.0
C2120 C 0.9794 0.10732 0.0254 0.0
C2121 C 0.06625 0.07749 0.99284 0.0
C2122 C 0.05778 0.13718 0.02928 0.0
C2123 C 0.13346 0.10527 0.0572 0.0
C2124 C 0.15024 0.08968 0.05794 0.0
C2125 C 0.17258 0.09987 0.06998 0.0
C2126 C 0.1891 0.08606 0.06915 0.0
C2127 C 0.18363 0.0617 0.05623 0.0
C2128 C 0.16104 0.05134 0.0446 0.0
C2129 C 0.14454 0.06522 0.04539 0.0
C2130 C 0.05708 0.0937 0.08004 0.0
C2131 C 0.06557 0.03443 0.04354 0.0
O2132 O 1.00191 0.06662 0.03739 0.0
O2133 O 1.00146 0.06686 0.9976 0.0
O2134 O 0.06606 0.09314 0.01057 0.0
O2135 O 0.04858 0.05856 0.98914 0.0
O2136 O 0.07867 0.13422 0.03525 0.0
O2137 O 0.03977 0.11828 0.02772 0.0
O2138 O 0.12132 0.10519 0.03537 0.0
O2139 O 0.12178 0.1047 0.07517 0.0
O2140 O 0.05725 0.07829 0.06211 0.0
O2141 O 0.0748 0.11259 0.0839 0.0
O2142 O 0.04465 0.03737 0.03756 0.0
O2143 O 0.08355 0.05335 0.04501 0.0
H2144 H 0.945 0.05206 0.99662 0.0
H2145 H 0.91652 0.0765 0.99835 0.0
H2146 H 0.96883 0.14104 0.03417 0.0
H2147 H 0.99682 0.11578 0.03364 0.0
H2148 H 0.17734 0.11871 0.07971 0.0
H2149 H 0.20621 0.09452 0.07863 0.0
H2150 H 0.15621 0.03278 0.03426 0.0
H2151 H 0.12745 0.05706 0.03569 0.0
Pr2152 Pr 0.31679 0.86223 0.29834 0.0
Pr2153 Pr 0.30693 0.8131 0.27509 0.0
C2154 C 0.33492 0.91031 0.31638 0.0
C2155 C 0.33931 0.93412 0.30584 0.0
C2156 C 0.33467 0.95525 0.31792 0.0
C2157 C 0.34038 0.9785 0.3092 0.0
C2158 C 0.35089 0.98082 0.28837 0.0
C2159 C 0.35444 0.95938 0.27553 0.0
C2160 C 0.34859 0.93611 0.28415 0.0
C2161 C 0.27123 0.84764 0.27508 0.0
C2162 C 0.32118 0.85501 0.23856 0.0
C2163 C 0.28938 0.76505 0.25652 0.0
C2164 C 0.28603 0.74023 0.26526 0.0
C2165 C 0.29613 0.7223 0.25513 0.0
C2166 C 0.29111 0.69774 0.261 0.0
C2167 C 0.27563 0.69071 0.27679 0.0
C2168 C 0.2667 0.70912 0.28821 0.0
C2169 C 0.27193 0.73374 0.28257 0.0
C2170 C 0.35244 0.82777 0.29863 0.0
C2171 C 0.30241 0.82031 0.33481 0.0
O2172 O 0.34697 0.89453 0.3108 0.0
O2173 O 0.31371 0.89968 0.31591 0.0
O2174 O 0.28766 0.84361 0.26565 0.0
O2175 O 0.27802 0.85854 0.29769 0.0
O2176 O 0.30988 0.83182 0.2387 0.0
O2177 O 0.32831 0.86991 0.25972 0.0
O2178 O 0.27724 0.78 0.26388 0.0
O2179 O 0.31019 0.7765 0.256 0.0
O2180 O 0.33588 0.83162 0.30789 0.0
O2181 O 0.34579 0.81693 0.27602 0.0
O2182 O 0.31389 0.84342 0.33465 0.0
O2183 O 0.29505 0.80544 0.31362 0.0
H2184 H 0.32733 0.9539 0.33454 0.0
H2185 H 0.33776 0.99488 0.3196 0.0
H2186 H 0.36248 0.9608 0.25939 0.0
H2187 H 0.35203 0.91991 0.27434 0.0
H2188 H 0.30726 0.72705 0.24196 0.0
H2189 H 0.2985 0.68399 0.25225 0.0
H2190 H 0.25453 0.70424 0.30025 0.0
H2191 H 0.26415 0.74733 0.29094 0.0
Pr2192 Pr 0.58679 0.09006 0.53837 0.0
Pr2193 Pr 0.53431 0.08351 0.53537 0.0
C2194 C 0.63083 0.08883 0.5446 0.0
C2195 C 0.64796 0.07381 0.54646 0.0
C2196 C 0.67075 0.08652 0.55102 0.0
C2197 C 0.68769 0.07323 0.55229 0.0
C2198 C 0.68226 0.04679 0.54915 0.0
C2199 C 0.65925 0.03401 0.54451 0.0
C2200 C 0.64221 0.04743 0.54317 0.0
C2201 C 0.56532 0.10997 0.49911 0.0
C2202 C 0.55121 0.03412 0.51581 0.0
C2203 C 0.49065 0.08631 0.53013 0.0
C2204 C 0.47427 0.10239 0.52671 0.0
C2205 C 0.45371 0.09303 0.51025 0.0
C2206 C 0.43671 0.10634 0.50849 0.0
C2207 C 0.43984 0.12944 0.52319 0.0
C2208 C 0.46078 0.13916 0.53921 0.0
C2209 C 0.47782 0.12577 0.54097 0.0
C2210 C 0.55637 0.06442 0.57497 0.0
C2211 C 0.56984 0.13928 0.55741 0.0
O2212 O 0.62012 0.09058 0.56314 0.0
O2213 O 0.61822 0.0879 0.52286 0.0
O2214 O 0.55726 0.0893 0.50652 0.0
O2215 O 0.58566 0.12017 0.5109 0.0
O2216 O 0.53376 0.04469 0.51406 0.0
O2217 O 0.57191 0.04669 0.52633 0.0
O2218 O 0.49997 0.08065 0.51131 0.0
O2219 O 0.50419 0.08927 0.55163 0.0
O2220 O 0.56386 0.08498 0.56714 0.0
O2221 O 0.53607 0.0537 0.5634 0.0
O2222 O 0.58687 0.12812 0.5609 0.0
O2223 O 0.54952 0.12713 0.54538 0.0
H2224 H 0.67548 0.10688 0.55339 0.0
H2225 H 0.7051 0.08378 0.55534 0.0
H2226 H 0.65441 0.01368 0.54217 0.0
H2227 H 0.62465 0.03729 0.53953 0.0
H2228 H 0.45052 0.07495 0.49922 0.0
H2229 H 0.42079 0.09803 0.4962 0.0
H2230 H 0.46398 0.15706 0.55053 0.0
H2231 H 0.49356 0.13348 0.5538 0.0
Pr2232 Pr 0.28531 0.33437 0.78303 0.0
Pr2233 Pr 0.33658 0.33551 0.7909 0.0
C2234 C 0.24096 0.32988 0.78372 0.0
C2235 C 0.22374 0.3296 0.79962 0.0
C2236 C 0.21085 0.34771 0.79779 0.0
C2237 C 0.19314 0.34691 0.81086 0.0
C2238 C 0.18785 0.32791 0.82616 0.0
C2239 C 0.20106 0.30997 0.82835 0.0
C2240 C 0.21883 0.31078 0.81519 0.0
C2241 C 0.3119 0.37528 0.76699 0.0
C2242 C 0.31752 0.3541 0.83985 0.0
C2243 C 0.38093 0.33978 0.79049 0.0
C2244 C 0.39897 0.34113 0.77559 0.0
C2245 C 0.41344 0.32478 0.77936 0.0
C2246 C 0.4319 0.32668 0.76733 0.0
C2247 C 0.43638 0.34505 0.75121 0.0
C2248 C 0.4215 0.36105 0.74688 0.0
C2249 C 0.40297 0.35917 0.75903 0.0
C2250 C 0.31005 0.29461 0.80712 0.0
C2251 C 0.30446 0.31657 0.73407 0.0
O2252 O 0.25015 0.3106 0.7821 0.0
O2253 O 0.25505 0.35136 0.78336 0.0
O2254 O 0.31722 0.36635 0.78696 0.0
O2255 O 0.29182 0.36396 0.75525 0.0
O2256 O 0.33588 0.35576 0.82989 0.0
O2257 O 0.29707 0.34451 0.82652 0.0
O2258 O 0.37202 0.35916 0.79318 0.0
O2259 O 0.36647 0.31817 0.78907 0.0
O2260 O 0.30466 0.30343 0.7871 0.0
O2261 O 0.33016 0.30598 0.81871 0.0
O2262 O 0.28617 0.31366 0.74428 0.0
O2263 O 0.32479 0.32697 0.7473 0.0
H2264 H 0.21415 0.36225 0.78571 0.0
H2265 H 0.18317 0.36079 0.80836 0.0
H2266 H 0.19765 0.29526 0.8402 0.0
H2267 H 0.22847 0.29652 0.81697 0.0
H2268 H 0.41069 0.31073 0.79205 0.0
H2269 H 0.44275 0.31377 0.77074 0.0
H2270 H 0.42455 0.37547 0.73465 0.0
H2271 H 0.39206 0.37206 0.75581 0.0
Pr2272 Pr 0.05565 0.07421 0.51405 0.0
Pr2273 Pr 0.06468 0.09864 0.56134 0.0
C2274 C 0.03791 0.05455 0.4672 0.0
C2275 C 0.03541 0.065 0.44359 0.0
C2276 C 0.05376 0.08099 0.43631 0.0
C2277 C 0.05043 0.09229 0.41461 0.0
C2278 C 0.02869 0.08813 0.40038 0.0
C2279 C 1.01044 0.07214 0.40773 0.0
C2280 C 1.01381 0.06061 0.42915 0.0
C2281 C 0.10147 0.09978 0.52588 0.0
C2282 C 0.05103 0.13369 0.51961 0.0
C2283 C 0.08071 0.12005 0.60807 0.0
C2284 C 0.08075 0.11245 0.63273 0.0
C2285 C 0.08792 0.13083 0.65314 0.0
C2286 C 0.08925 0.12385 0.67697 0.0
C2287 C 0.08333 0.09834 0.6806 0.0
C2288 C 0.07534 0.07998 0.65995 0.0
C2289 C 0.07402 0.08703 0.63605 0.0
C2290 C 0.01894 0.07262 0.54895 0.0
C2291 C 0.06944 0.03919 0.55584 0.0
O2292 O 0.02589 0.06165 0.48273 0.0
O2293 O 0.05837 0.05408 0.47769 0.0
O2294 O 0.08522 0.1088 0.53059 0.0
O2295 O 0.09431 0.07679 0.51539 0.0
O2296 O 0.06266 0.1347 0.542 0.0
O2297 O 0.04385 0.11177 0.50572 0.0
O2298 O 0.09276 0.1098 0.59463 0.0
O2299 O 0.06102 0.12107 0.59589 0.0
O2300 O 0.03551 0.06388 0.54504 0.0
O2301 O 0.0257 0.09582 0.55877 0.0
O2302 O 0.05779 0.03824 0.53344 0.0
O2303 O 0.07687 0.06115 0.56971 0.0
H2304 H 0.07056 0.08497 0.44747 0.0
H2305 H 0.06469 0.10444 0.40906 0.0
H2306 H 0.9936 0.06825 0.39669 0.0
H2307 H 0.99948 0.04852 0.43465 0.0
H2308 H 0.09306 0.15052 0.65065 0.0
H2309 H 0.09597 0.13838 0.6925 0.0
H2310 H 0.07068 0.06023 0.66229 0.0
H2311 H 0.06824 0.0727 0.62022 0.0
Pr2312 Pr 0.29969 0.81151 0.79105 0.0
Pr2313 Pr 0.31688 0.8591 0.78116 0.0
C2314 C 0.29008 0.76197 0.79507 0.0
C2315 C 0.29785 0.74183 0.78288 0.0
C2316 C 0.2946 0.71817 0.79131 0.0
C2317 C 0.30377 0.69969 0.78079 0.0
C2318 C 0.31631 0.70482 0.76178 0.0
C2319 C 0.31894 0.72842 0.75297 0.0
C2320 C 0.30985 0.74683 0.76352 0.0
C2321 C 0.29752 0.84576 0.83134 0.0
C2322 C 0.35404 0.83286 0.80735 0.0
C2323 C 0.32726 0.90844 0.77619 0.0
C2324 C 0.32352 0.93076 0.78967 0.0
C2325 C 0.31548 0.9485 0.77615 0.0
C2326 C 0.30878 0.96807 0.78822 0.0
C2327 C 0.31023 0.9704 0.81415 0.0
C2328 C 0.31902 0.95298 0.82778 0.0
C2329 C 0.32544 0.93317 0.81561 0.0
C2330 C 0.31895 0.82462 0.74098 0.0
C2331 C 0.26194 0.83857 0.76699 0.0
O2332 O 0.27708 0.77255 0.78044 0.0
O2333 O 0.30577 0.77821 0.81057 0.0
O2334 O 0.31404 0.84716 0.8202 0.0
O2335 O 0.28124 0.82678 0.82122 0.0
O2336 O 0.34839 0.85452 0.80838 0.0
O2337 O 0.33888 0.81293 0.79566 0.0
O2338 O 0.34157 0.89709 0.78787 0.0
O2339 O 0.30899 0.89292 0.76394 0.0
O2340 O 0.30239 0.82357 0.75201 0.0
O2341 O 0.33538 0.84332 0.75129 0.0
O2342 O 0.26669 0.81645 0.7669 0.0
O2343 O 0.27795 0.85858 0.77677 0.0
H2344 H 0.28548 0.71421 0.80637 0.0
H2345 H 0.30173 0.68174 0.7881 0.0
H2346 H 0.32827 0.73276 0.73814 0.0
H2347 H 0.31254 0.76515 0.7569 0.0
H2348 H 0.31352 0.94662 0.75609 0.0
H2349 H 0.30157 0.98073 0.77704 0.0
H2350 H 0.32054 0.95436 0.84777 0.0
H2351 H 0.33129 0.9194 0.8264 0.0
Pr2352 Pr 0.56851 0.08461 0.06529 0.0
Pr2353 Pr 0.55382 0.08884 1.00688 0.0
C2354 C 0.57843 0.09421 0.11497 0.0
C2355 C 0.57258 0.11038 0.13401 0.0
C2356 C 0.57909 0.10776 0.15901 0.0
C2357 C 0.57237 0.12197 0.1773 0.0
C2358 C 0.55931 0.13938 0.17084 0.0
C2359 C 0.55338 0.14236 0.14561 0.0
C2360 C 0.55961 0.12762 0.12734 0.0
C2361 C 0.56886 0.039 0.03723 0.0
C2362 C 0.51436 0.06672 0.03936 0.0
C2363 C 0.54381 0.07843 0.95729 0.0
C2364 C 0.5491 0.06094 0.93899 0.0
C2365 C 0.53726 0.05704 0.91457 0.0
C2366 C 0.54294 0.04124 0.89673 0.0
C2367 C 0.56043 0.02891 0.90321 0.0
C2368 C 0.57174 0.03231 0.92802 0.0
C2369 C 0.56629 0.04844 0.9457 0.0
C2370 C 0.55341 0.13449 0.03465 0.0
C2371 C 0.60817 0.10634 0.03297 0.0
O2372 O 0.59119 0.10561 0.10043 0.0
O2373 O 0.56182 0.07594 0.10318 0.0
O2374 O 0.56422 0.0585 0.02911 0.0
O2375 O 0.57477 0.04342 0.06118 0.0
O2376 O 0.52033 0.06664 0.01732 0.0
O2377 O 0.52892 0.07673 0.05996 0.0
O2378 O 0.53046 0.0683 0.97189 0.0
O2379 O 0.56093 0.09625 0.96888 0.0
O2380 O 0.55817 0.11513 0.04304 0.0
O2381 O 0.54731 0.12983 0.01073 0.0
O2382 O 0.6023 0.10607 0.05505 0.0
O2383 O 0.59348 0.09698 0.01228 0.0
H2384 H 0.58886 0.09423 0.16436 0.0
H2385 H 0.57679 0.11861 0.19641 0.0
H2386 H 0.54361 0.15575 0.13986 0.0
H2387 H 0.5539 0.12928 0.10802 0.0
H2388 H 0.52397 0.06667 0.90917 0.0
H2389 H 0.53416 0.0394 0.87774 0.0
H2390 H 0.58506 0.02283 0.93373 0.0
H2391 H 0.57573 0.05146 0.96451 0.0
Pr2392 Pr 0.28385 0.31737 0.28082 0.0
Pr2393 Pr 0.3364 0.35536 0.29234 0.0
C2394 C 0.24173 0.29404 0.28507 0.0
C2395 C 0.22507 0.2973 0.30079 0.0
C2396 C 0.20738 0.27691 0.30224 0.0
C2397 C 0.19015 0.28022 0.315 0.0
C2398 C 0.19025 0.30407 0.32656 0.0
C2399 C 0.20837 0.32439 0.32555 0.0
C2400 C 0.22563 0.32103 0.31283 0.0
C2401 C 0.29919 0.33219 0.23667 0.0
C2402 C 0.29241 0.37894 0.29102 0.0
C2403 C 0.3787 0.37884 0.28854 0.0
C2404 C 0.39617 0.37626 0.27373 0.0
C2405 C 0.4187 0.38832 0.2834 0.0
C2406 C 0.43597 0.38478 0.27084 0.0
C2407 C 0.43112 0.36916 0.24812 0.0
C2408 C 0.40836 0.35713 0.2384 0.0
C2409 C 0.39107 0.36053 0.25117 0.0
C2410 C 0.32107 0.34044 0.33652 0.0
C2411 C 0.32775 0.29378 0.28281 0.0
O2412 O 0.25963 0.2867 0.29519 0.0
O2413 O 0.24616 0.3114 0.27036 0.0
O2414 O 0.30944 0.33732 0.25881 0.0
O2415 O 0.27989 0.31682 0.23666 0.0
O2416 O 0.31293 0.38304 0.28558 0.0
O2417 O 0.28192 0.35723 0.29706 0.0
O2418 O 0.36072 0.38564 0.27777 0.0
O2419 O 0.37419 0.36142 0.30314 0.0
O2420 O 0.31085 0.33531 0.31436 0.0
O2421 O 0.34035 0.35585 0.33652 0.0
O2422 O 0.30724 0.28984 0.28817 0.0
O2423 O 0.33827 0.31532 0.27642 0.0
H2424 H 0.20657 0.25851 0.29293 0.0
H2425 H 0.17637 0.2642 0.31512 0.0
H2426 H 0.20919 0.34292 0.33452 0.0
H2427 H 0.23916 0.33708 0.31196 0.0
H2428 H 0.42303 0.40016 0.30101 0.0
H2429 H 0.45321 0.39391 0.27934 0.0
H2430 H 0.40383 0.34515 0.22089 0.0
H2431 H 0.37379 0.35067 0.24358 0.0
Pr2432 Pr 0.55634 0.57655 0.01297 0.0
Pr2433 Pr 0.56259 0.60032 0.05947 0.0
C2434 C 0.54288 0.5565 0.96549 0.0
C2435 C 0.54325 0.5664 0.94179 0.0
C2436 C 0.54018 0.54984 0.92028 0.0
C2437 C 0.53892 0.55894 0.89732 0.0
C2438 C 0.54066 0.58471 0.89571 0.0
C2439 C 0.54472 0.60141 0.91747 0.0
C2440 C 0.54619 0.59229 0.94046 0.0
C2441 C 0.60179 0.60312 0.02722 0.0
C2442 C 0.55006 0.63531 0.01745 0.0
C2443 C 0.57579 0.621 0.10683 0.0
C2444 C 0.57585 0.61198 0.13096 0.0
C2445 C 0.58058 0.62933 0.15216 0.0
C2446 C 0.5831 0.62109 0.17551 0.0
C2447 C 0.58097 0.59539 0.17779 0.0
C2448 C 0.57494 0.57791 0.15639 0.0
C2449 C 0.57231 0.58619 0.13304 0.0
C2450 C 0.51725 0.57327 0.0451 0.0
C2451 C 0.56921 0.54159 0.05479 0.0
O2452 O 0.52934 0.56408 0.97882 0.0
O2453 O 0.56261 0.55652 0.97829 0.0
O2454 O 0.58496 0.61177 0.03045 0.0
O2455 O 0.5954 0.5798 0.01771 0.0
O2456 O 0.56114 0.63646 0.04011 0.0
O2457 O 0.54338 0.6133 1.00369 0.0
O2458 O 0.5894 0.61326 0.09371 0.0
O2459 O 0.55593 0.62033 0.09396 0.0
O2460 O 0.53427 0.56491 0.04214 0.0
O2461 O 0.52337 0.59669 0.05433 0.0
O2462 O 0.55814 0.54044 0.03212 0.0
O2463 O 0.57561 0.56354 0.06873 0.0
H2464 H 0.53807 0.52983 0.92119 0.0
H2465 H 0.53536 0.54562 0.88076 0.0
H2466 H 0.54608 0.62132 0.91662 0.0
H2467 H 0.549 0.60531 0.95709 0.0
H2468 H 0.58322 0.64928 0.15066 0.0
H2469 H 0.58812 0.63498 0.19171 0.0
H2470 H 0.57317 0.55802 0.15774 0.0
H2471 H 0.56835 0.57259 0.11665 0.0
Pr2472 Pr 0.79825 0.30748 0.28996 0.0
Pr2473 Pr 0.81969 0.36499 0.28448 0.0
C2474 C 0.78406 0.25741 0.28072 0.0
C2475 C 0.79167 0.23852 0.26639 0.0
C2476 C 0.78534 0.21325 0.2701 0.0
C2477 C 0.79491 0.19563 0.25879 0.0
C2478 C 0.81091 0.20317 0.24365 0.0
C2479 C 0.81647 0.22844 0.2392 0.0
C2480 C 0.80703 0.24603 0.25065 0.0
C2481 C 0.79633 0.33738 0.33353 0.0
C2482 C 0.85371 0.33054 0.309 0.0
C2483 C 0.83459 0.41505 0.29303 0.0
C2484 C 0.82833 0.43621 0.30591 0.0
C2485 C 0.8202 0.45358 0.29182 0.0
C2486 C 0.81257 0.47279 0.30315 0.0
C2487 C 0.8132 0.47523 0.32892 0.0
C2488 C 0.82189 0.45821 0.34317 0.0
C2489 C 0.82941 0.43882 0.33175 0.0
C2490 C 0.82181 0.33488 0.24109 0.0
C2491 C 0.7644 0.34202 0.26501 0.0
O2492 O 0.7747 0.27272 0.26785 0.0
O2493 O 0.79851 0.26873 0.30058 0.0
O2494 O 0.804 0.34504 0.31477 0.0
O2495 O 0.78784 0.31335 0.32915 0.0
O2496 O 0.85052 0.35332 0.30679 0.0
O2497 O 0.83741 0.3101 0.30083 0.0
O2498 O 0.84316 0.39974 0.30672 0.0
O2499 O 0.82032 0.40358 0.27307 0.0
O2500 O 0.81405 0.32741 0.25984 0.0
O2501 O 0.83021 0.35891 0.24531 0.0
O2502 O 0.76765 0.31923 0.26707 0.0
O2503 O 0.78055 0.36247 0.27365 0.0
H2504 H 0.77369 0.20734 0.28247 0.0
H2505 H 0.79058 0.17636 0.26284 0.0
H2506 H 0.82857 0.23472 0.22742 0.0
H2507 H 0.81227 0.26562 0.2479 0.0
H2508 H 0.81921 0.45191 0.27187 0.0
H2509 H 0.80551 0.48524 0.29154 0.0
H2510 H 0.82274 0.45977 0.36308 0.0
H2511 H 0.83576 0.42578 0.34313 0.0
Pr2512 Pr 0.06888 0.58259 0.56581 0.0
Pr2513 Pr 0.05283 0.58827 0.5085 0.0
C2514 C 0.07996 0.59044 0.61549 0.0
C2515 C 0.07522 0.60644 0.63547 0.0
C2516 C 0.07716 0.59925 0.65939 0.0
C2517 C 0.07081 0.61314 0.6782 0.0
C2518 C 0.06268 0.63466 0.67338 0.0
C2519 C 0.06141 0.64216 0.6494 0.0
C2520 C 0.06731 0.62791 0.63051 0.0
C2521 C 0.06934 0.53775 0.53678 0.0
C2522 C 1.01401 0.56532 0.5414 0.0
C2523 C 0.042 0.57851 0.45889 0.0
C2524 C 0.04733 0.56149 0.44016 0.0
C2525 C 0.03832 0.56128 0.41512 0.0
C2526 C 0.04424 0.54602 0.39702 0.0
C2527 C 0.05919 0.53063 0.40378 0.0
C2528 C 0.06771 0.53047 0.42908 0.0
C2529 C 0.06193 0.54593 0.44712 0.0
C2530 C 0.05271 0.63335 0.53742 0.0
C2531 C 0.10745 0.60652 0.53322 0.0
O2532 O 0.09272 0.60176 0.60092 0.0
O2533 O 0.06262 0.5731 0.60362 0.0
O2534 O 0.06403 0.5571 0.52897 0.0
O2535 O 0.07609 0.54208 0.56061 0.0
O2536 O 0.01922 0.56677 0.5191 0.0
O2537 O 0.02927 0.57353 0.56189 0.0
O2538 O 0.02919 0.56783 0.47372 0.0
O2539 O 0.05898 0.59656 0.47033 0.0
O2540 O 0.05793 0.61396 0.54532 0.0
O2541 O 0.04599 0.62904 0.51355 0.0
O2542 O 0.10202 0.60556 0.55545 0.0
O2543 O 0.09247 0.59732 0.51272 0.0
H2544 H 0.08293 0.58245 0.66334 0.0
H2545 H 0.0715 0.60641 0.69623 0.0
H2546 H 0.05547 0.65875 0.64505 0.0
H2547 H 0.06517 0.63326 0.61195 0.0
H2548 H 0.02709 0.57333 0.40953 0.0
H2549 H 0.0377 0.54693 0.3777 0.0
H2550 H 0.07907 0.51865 0.4349 0.0
H2551 H 0.06915 0.54607 0.46647 0.0
Pr2552 Pr 0.78585 0.83678 0.28348 0.0
Pr2553 Pr 0.837 0.83668 0.29163 0.0
C2554 C 0.74153 0.83256 0.28415 0.0
C2555 C 0.72421 0.83193 0.29999 0.0
C2556 C 0.71166 0.85039 0.2989 0.0
C2557 C 0.69381 0.84925 0.31184 0.0
C2558 C 0.68803 0.82956 0.32624 0.0
C2559 C 0.7009 0.81127 0.3277 0.0
C2560 C 0.7188 0.81242 0.31469 0.0
C2561 C 0.81343 0.87748 0.26818 0.0
C2562 C 0.81795 0.8554 0.34051 0.0
C2563 C 0.88126 0.84071 0.29087 0.0
C2564 C 0.89858 0.84181 0.27494 0.0
C2565 C 0.9082 0.82112 0.2717 0.0
C2566 C 0.92618 0.82247 0.25895 0.0
C2567 C 0.93508 0.84462 0.24913 0.0
C2568 C 0.92514 0.86521 0.25193 0.0
C2569 C 0.9071 0.86384 0.26473 0.0
C2570 C 0.80963 0.79625 0.30746 0.0
C2571 C 0.80486 0.81816 0.2346 0.0
O2572 O 0.75055 0.81319 0.28203 0.0
O2573 O 0.75578 0.85406 0.28428 0.0
O2574 O 0.81829 0.86808 0.28796 0.0
O2575 O 0.79325 0.86679 0.25621 0.0
O2576 O 0.83638 0.85647 0.3308 0.0
O2577 O 0.79748 0.84662 0.32697 0.0
O2578 O 0.8725 0.86017 0.29388 0.0
O2579 O 0.86678 0.81921 0.29001 0.0
O2580 O 0.80462 0.80535 0.28751 0.0
O2581 O 0.82989 0.80698 0.31914 0.0
O2582 O 0.78648 0.81652 0.24452 0.0
O2583 O 0.8253 0.82751 0.24805 0.0
H2584 H 0.71531 0.86547 0.2875 0.0
H2585 H 0.68411 0.86344 0.3099 0.0
H2586 H 0.69713 0.79603 0.33886 0.0
H2587 H 0.72816 0.79786 0.31588 0.0
H2588 H 0.90222 0.80402 0.27966 0.0
H2589 H 0.93359 0.80638 0.25752 0.0
H2590 H 0.93139 0.88245 0.24435 0.0
H2591 H 0.90014 0.88019 0.26699 0.0
Pr2592 Pr 0.81648 0.36004 0.79907 0.0
Pr2593 Pr 0.80655 0.31086 0.77551 0.0
C2594 C 0.83436 0.40776 0.81867 0.0
C2595 C 0.83627 0.43275 0.81098 0.0
C2596 C 0.84034 0.45318 0.82918 0.0
C2597 C 0.84373 0.47742 0.82252 0.0
C2598 C 0.84306 0.48151 0.79749 0.0
C2599 C 0.83812 0.46082 0.77913 0.0
C2600 C 0.83462 0.43649 0.78586 0.0
C2601 C 0.77096 0.34572 0.77539 0.0
C2602 C 0.82101 0.35324 0.73919 0.0
C2603 C 0.7882 0.26307 0.75621 0.0
C2604 C 0.78393 0.23848 0.76503 0.0
C2605 C 0.77986 0.21707 0.74799 0.0
C2606 C 0.77367 0.1934 0.75563 0.0
C2607 C 0.77148 0.19089 0.78046 0.0
C2608 C 0.7765 0.21245 0.79774 0.0
C2609 C 0.78282 0.23616 0.79005 0.0
C2610 C 0.85209 0.3255 0.79888 0.0
C2611 C 0.80252 0.31779 0.83554 0.0
O2612 O 0.84585 0.39371 0.80845 0.0
O2613 O 0.81409 0.39574 0.8206 0.0
O2614 O 0.78746 0.34159 0.7662 0.0
O2615 O 0.77768 0.35678 0.79792 0.0
O2616 O 0.81004 0.32989 0.73932 0.0
O2617 O 0.82777 0.36824 0.76035 0.0
O2618 O 0.77641 0.27835 0.76367 0.0
O2619 O 0.80935 0.2739 0.75664 0.0
O2620 O 0.83558 0.32936 0.80823 0.0
O2621 O 0.84536 0.31448 0.77632 0.0
O2622 O 0.81393 0.34092 0.83535 0.0
O2623 O 0.7952 0.30296 0.81432 0.0
H2624 H 0.84154 0.45043 0.84862 0.0
H2625 H 0.84799 0.49299 0.83714 0.0
H2626 H 0.83748 0.4635 0.75973 0.0
H2627 H 0.83119 0.42069 0.77159 0.0
H2628 H 0.78072 0.21869 0.72863 0.0
H2629 H 0.76949 0.17713 0.7418 0.0
H2630 H 0.77501 0.21098 0.81697 0.0
H2631 H 0.78617 0.25266 0.80341 0.0
Pr2632 Pr 0.78786 0.82082 0.78162 0.0
Pr2633 Pr 0.8335 0.85675 0.79403 0.0
C2634 C 0.74479 0.79641 0.78204 0.0
C2635 C 0.72618 0.80101 0.79433 0.0
C2636 C 0.70412 0.78684 0.78547 0.0
C2637 C 0.68631 0.79065 0.79707 0.0
C2638 C 0.69015 0.80873 0.81792 0.0
C2639 C 0.71236 0.82319 0.82654 0.0
C2640 C 0.73017 0.81937 0.81486 0.0
C2641 C 0.80343 0.83888 0.73939 0.0
C2642 C 0.79159 0.88076 0.79681 0.0
C2643 C 0.87722 0.87973 0.79501 0.0
C2644 C 0.89529 0.87575 0.7815 0.0
C2645 C 0.91793 0.88643 0.79213 0.0
C2646 C 0.93534 0.88244 0.77992 0.0
C2647 C 0.93051 0.86757 0.75676 0.0
C2648 C 0.90771 0.85672 0.74623 0.0
C2649 C 0.89028 0.86083 0.75844 0.0
C2650 C 0.81734 0.83829 0.83595 0.0
C2651 C 0.83018 0.79822 0.77646 0.0
O2652 O 0.76234 0.79216 0.79631 0.0
O2653 O 0.75036 0.81098 0.76527 0.0
O2654 O 0.80509 0.8518 0.75996 0.0
O2655 O 0.79301 0.81562 0.7399 0.0
O2656 O 0.81169 0.88599 0.7907 0.0
O2657 O 0.7825 0.85794 0.80134 0.0
O2658 O 0.86022 0.8868 0.78254 0.0
O2659 O 0.8709 0.86291 0.80957 0.0
O2660 O 0.81628 0.8256 0.81546 0.0
O2661 O 0.82744 0.86167 0.83554 0.0
O2662 O 0.81065 0.7921 0.78381 0.0
O2663 O 0.83749 0.8211 0.77109 0.0
H2664 H 0.70064 0.77272 0.76955 0.0
H2665 H 0.66946 0.77949 0.78952 0.0
H2666 H 0.7161 0.83711 0.84263 0.0
H2667 H 0.74709 0.83059 0.822 0.0
H2668 H 0.92218 0.89782 0.80999 0.0
H2669 H 0.95264 0.89078 0.78884 0.0
H2670 H 0.90327 0.84536 0.72836 0.0
H2671 H 0.8729 0.85232 0.7499 0.0
Pr2672 Pr 0.53306 0.57362 0.52463 0.0
Pr2673 Pr 0.58573 0.59767 0.54998 0.0
C2674 C 0.48763 0.56594 0.515 0.0
C2675 C 0.47091 0.5816 0.51409 0.0
C2676 C 0.44839 0.57123 0.50276 0.0
C2677 C 0.432 0.58523 0.50349 0.0
C2678 C 0.43779 0.60998 0.51554 0.0
C2679 C 0.46053 0.62049 0.52647 0.0
C2680 C 0.47688 0.6064 0.52585 0.0
C2681 C 0.56468 0.57747 0.49404 0.0
C2682 C 0.55553 0.63703 0.53009 0.0
C2683 C 0.63106 0.60454 0.55897 0.0
C2684 C 0.64773 0.58877 0.55728 0.0
C2685 C 0.65899 0.58144 0.5788 0.0
C2686 C 0.67526 0.56735 0.57736 0.0
C2687 C 0.68081 0.56034 0.55436 0.0
C2688 C 0.66936 0.56748 0.53281 0.0
C2689 C 0.65306 0.58149 0.53423 0.0
C2690 C 0.55421 0.59393 0.58072 0.0
C2691 C 0.56344 0.53443 0.54418 0.0
O2692 O 0.49936 0.56572 0.53697 0.0
O2693 O 0.49975 0.56687 0.49742 0.0
O2694 O 0.56418 0.59298 0.51171 0.0
O2695 O 0.54703 0.5585 0.48998 0.0
O2696 O 0.57642 0.63418 0.5366 0.0
O2697 O 0.53751 0.61806 0.52817 0.0
O2698 O 0.61951 0.60826 0.53802 0.0
O2699 O 0.61898 0.60149 0.57656 0.0
O2700 O 0.5546 0.57837 0.563 0.0
O2701 O 0.57201 0.61274 0.58479 0.0
O2702 O 0.5425 0.53735 0.53851 0.0
O2703 O 0.58137 0.55329 0.5452 0.0
H2704 H 0.4434 0.55211 0.49369 0.0
H2705 H 0.41474 0.57663 0.4946 0.0
H2706 H 0.4656 0.63934 0.53617 0.0
H2707 H 0.4941 0.61466 0.53508 0.0
H2708 H 0.6554 0.58684 0.59684 0.0
H2709 H 0.68388 0.56244 0.59438 0.0
H2710 H 0.6729 0.56213 0.51474 0.0
H2711 H 0.64476 0.58671 0.5172 0.0
Pr2712 Pr 0.08682 0.58989 0.03802 0.0
Pr2713 Pr 0.03425 0.5829 0.03584 0.0
C2714 C 0.13086 0.58852 0.0437 0.0
C2715 C 0.148 0.57348 0.0446 0.0
C2716 C 0.17066 0.58613 0.04679 0.0
C2717 C 0.18762 0.57286 0.0478 0.0
C2718 C 0.18236 0.5465 0.04668 0.0
C2719 C 0.15948 0.53374 0.04418 0.0
C2720 C 0.14242 0.54715 0.04319 0.0
C2721 C 0.06425 0.60897 0.99889 0.0
C2722 C 0.05117 0.53388 0.01549 0.0
C2723 C 0.9905 0.58524 0.03129 0.0
C2724 C 0.9739 0.60113 0.03079 0.0
C2725 C 0.95809 0.59699 0.04663 0.0
C2726 C 0.9408 0.60986 0.04533 0.0
C2727 C 0.93881 0.62722 0.02808 0.0
C2728 C 0.95506 0.63191 0.01263 0.0
C2729 C 0.97242 0.61894 0.01391 0.0
C2730 C 0.05702 0.56405 0.07503 0.0
C2731 C 0.06985 0.63889 0.05778 0.0
O2732 O 0.12003 0.58912 0.06228 0.0
O2733 O 0.11836 0.58884 0.02218 0.0
O2734 O 0.05681 0.58833 1.00668 0.0
O2735 O 0.08461 0.61976 0.01028 0.0
O2736 O 0.03365 0.54433 0.01405 0.0
O2737 O 0.07191 0.54652 0.0258 0.0
O2738 O 1.00064 0.58335 0.01227 0.0
O2739 O 1.0033 0.58476 0.05259 0.0
O2740 O 0.06426 0.58471 0.0672 0.0
O2741 O 0.03672 0.55309 0.06362 0.0
O2742 O 0.08712 0.62804 0.06046 0.0
O2743 O 0.04932 0.62647 0.04658 0.0
H2744 H 0.17527 0.60644 0.04771 0.0
H2745 H 0.20491 0.58333 0.04921 0.0
H2746 H 0.15481 0.51347 0.04341 0.0
H2747 H 0.12497 0.53703 0.04141 0.0
H2748 H 0.95884 0.58335 0.05978 0.0
H2749 H 0.92891 0.60609 0.05785 0.0
H2750 H 0.95399 0.64506 0.99904 0.0
H2751 H 0.98436 0.62249 1.00142 0.0
C2752 C 0.02871 0.18876 1.00906 0.0
C2753 C 0.04567 0.20519 0.9999 0.0
H2754 H 0.01919 0.15488 0.02558 0.0
C2755 C 0.06713 0.19952 1.00204 0.0
H2756 H 1.01212 0.19245 1.00841 0.0
C2757 C 0.07133 0.17817 0.01263 0.0
C2758 C 0.05415 0.1615 0.02105 0.0
H2759 H 0.08065 0.2111 0.99486 0.0
H2760 H 0.08787 0.17424 0.0133 0.0
C2761 C 0.03284 0.1672 0.01925 0.0
C2762 C 0.22376 0.84114 0.21967 0.0
C2763 C 0.20838 0.85268 0.22977 0.0
H2764 H 0.25547 0.83042 0.22597 0.0
C2765 C 0.21362 0.86173 0.25521 0.0
H2766 H 0.22051 0.83416 0.20014 0.0
C2767 C 0.23369 0.85949 0.27005 0.0
C2768 C 0.24915 0.84828 0.25983 0.0
H2769 H 0.20211 0.8704 0.26377 0.0
H2770 H 0.23725 0.86688 0.28949 0.0
C2771 C 0.24388 0.83902 0.23448 0.0
C2772 C 0.52331 0.96502 0.49423 0.0
C2773 C 0.54193 0.95509 0.49044 0.0
H2774 H 0.5115 0.99758 0.50493 0.0
C2775 C 0.56341 0.97173 0.49458 0.0
H2776 H 0.50652 0.95294 0.49162 0.0
C2777 C 0.56628 0.99724 0.50265 0.0
C2778 C 0.54772 1.00709 0.50646 0.0
H2779 H 0.57815 0.96522 0.49131 0.0
H2780 H 0.58313 1.0093 0.50571 0.0
C2781 C 0.52616 0.9907 0.50198 0.0
C2782 C 0.47474 0.3528 0.70325 0.0
C2783 C 0.4955 0.35082 0.71706 0.0
H2784 H 0.43989 0.35252 0.7031 0.0
C2785 C 0.49661 0.34756 0.74233 0.0
H2786 H 0.47301 0.3549 0.68367 0.0
C2787 C 0.47751 0.34589 0.75334 0.0
C2788 C 0.45677 0.34762 0.73948 0.0
H2789 H 0.51232 0.34651 0.75378 0.0
H2790 H 0.47906 0.34346 0.77286 0.0
C2791 C 0.45567 0.35135 0.71436 0.0
C2792 C 0.08976 0.99233 0.59707 0.0
C2793 C 0.07714 0.96896 0.58429 0.0
H2794 H 0.09712 0.03267 0.5985 0.0
C2795 C 0.0623 0.96914 0.56203 0.0
H2796 H 0.1012 0.99305 0.61439 0.0
C2797 C 0.06016 0.99182 0.55281 0.0
C2798 C 0.07255 0.01519 0.56568 0.0
H2799 H 0.05244 0.95165 0.5515 0.0
H2800 H 0.0485 0.99097 0.53562 0.0
C2801 C 0.08736 0.01511 0.58801 0.0
C2802 C 0.4059 0.80769 0.83028 0.0
C2803 C 0.41959 0.82804 0.84715 0.0
H2804 H 0.37462 0.79308 0.80458 0.0
C2805 C 0.41123 0.84978 0.85047 0.0
H2806 H 0.41163 0.79068 0.82681 0.0
C2807 C 0.39029 0.85131 0.83724 0.0
C2808 C 0.37667 0.83102 0.8205 0.0
H2809 H 0.42065 0.86568 0.86367 0.0
H2810 H 0.3846 0.8684 0.84053 0.0
C2811 C 0.38468 0.8091 0.81728 0.0
C2812 C 0.57052 0.19107 0.08525 0.0
C2813 C 0.56269 0.20997 0.0727 0.0
H2814 H 0.57453 0.15294 0.08312 0.0
C2815 C 0.55149 0.20309 0.04783 0.0
H2816 H 0.57905 0.1951 0.10441 0.0
C2817 C 0.54814 0.17858 0.03611 0.0
C2818 C 0.55606 0.15989 0.04856 0.0
H2819 H 0.54564 0.21676 0.03697 0.0
H2820 H 0.53958 0.17438 0.01694 0.0
C2821 C 0.56748 0.16653 0.07326 0.0
C2822 C 0.14415 0.33225 0.34766 0.0
C2823 C 0.13402 0.31382 0.36141 0.0
H2824 H 0.16953 0.34357 0.32574 0.0
C2825 C 0.14295 0.29246 0.36404 0.0
H2826 H 0.1376 0.34879 0.34493 0.0
C2827 C 0.16125 0.28945 0.35299 0.0
C2828 C 0.17123 0.30774 0.33904 0.0
H2829 H 0.13598 0.2781 0.37491 0.0
H2830 H 0.16773 0.27285 0.35559 0.0
C2831 C 0.16251 0.32926 0.33664 0.0
C2832 C 0.01767 0.10286 0.12418 0.0
C2833 C 1.00187 0.07943 0.119 0.0
H2834 H 0.04783 0.12601 0.11573 0.0
C2835 C 1.00493 0.06111 0.10153 0.0
H2836 H 0.01604 0.11724 0.13794 0.0
C2837 C 0.02339 0.06583 0.08978 0.0
C2838 C 0.03885 0.08931 0.09441 0.0
H2839 H 0.99298 0.04308 0.09669 0.0
H2840 H 0.0253 0.05101 0.07668 0.0
C2841 C 0.03602 0.10783 0.11181 0.0
C2842 C 0.31064 0.81586 0.4045 0.0
C2843 C 0.29739 0.79185 0.40594 0.0
H2844 H 0.32235 0.84364 0.38137 0.0
C2845 C 0.28526 0.77741 0.38357 0.0
H2846 H 0.32004 0.82768 0.42121 0.0
C2847 C 0.28661 0.78659 0.36051 0.0
C2848 C 0.29992 0.81059 0.35917 0.0
H2849 H 0.27506 0.75872 0.38381 0.0
H2850 H 0.27734 0.77479 0.34374 0.0
C2851 C 0.3118 0.82511 0.38154 0.0
C2852 C 0.57201 0.01915 0.61901 0.0
C2853 C 0.59385 0.03205 0.63098 0.0
H2854 H 0.54305 0.01936 0.59181 0.0
C2855 C 0.60347 0.05544 0.62375 0.0
H2856 H 0.56395 1.00131 0.62434 0.0
C2857 C 0.59125 0.06603 0.6056 0.0
C2858 C 0.56936 0.05325 0.59398 0.0
H2859 H 0.62039 0.06572 0.63229 0.0
H2860 H 0.59884 0.08433 0.60088 0.0
C2861 C 0.55992 0.02962 0.60059 0.0
C2862 C 0.30243 0.37294 0.90225 0.0
C2863 C 0.32332 0.37756 0.91873 0.0
H2864 H 0.28422 0.36204 0.86496 0.0
C2865 C 0.34237 0.37447 0.90867 0.0
H2866 H 0.28737 0.37554 0.90879 0.0
C2867 C 0.34061 0.36725 0.88317 0.0
C2868 C 0.31969 0.36251 0.86689 0.0
H2869 H 0.35874 0.3773 0.92049 0.0
H2870 H 0.35565 0.36502 0.8763 0.0
C2871 C 0.30063 0.36538 0.87686 0.0
C2872 C 0.99836 0.11284 0.34706 0.0
C2873 C 1.00879 0.10512 0.32789 0.0
H2874 H 0.99698 0.11374 0.38569 0.0
C2875 C 0.02895 0.09714 0.33382 0.0
H2876 H 0.98272 0.11892 0.34305 0.0
C2877 C 0.03693 0.09392 0.35825 0.0
C2878 C 0.02482 0.09874 0.37686 0.0
H2879 H 0.0374 0.09135 0.31933 0.0
H2880 H 0.05125 0.08548 0.36214 0.0
C2881 C 1.00635 0.10966 0.37143 0.0
C2882 C 0.29425 0.78682 0.67734 0.0
C2883 C 0.31206 0.79318 0.66403 0.0
H2884 H 0.28247 0.79134 0.71181 0.0
C2885 C 0.33245 0.80926 0.67686 0.0
H2886 H 0.27841 0.77419 0.66849 0.0
C2887 C 0.33481 0.81889 0.70187 0.0
C2888 C 0.31689 0.81283 0.71494 0.0
H2889 H 0.34653 0.81494 0.66744 0.0
H2890 H 0.35063 0.8315 0.71086 0.0
C2891 C 0.29663 0.79648 0.70237 0.0
C2892 C 0.56004 0.98808 0.84414 0.0
C2893 C 0.58327 0.99066 0.8447 0.0
H2894 H 0.53448 0.99758 0.8626 0.0
C2895 C 0.59874 1.00443 0.86532 0.0
H2896 H 0.54779 0.97754 0.82843 0.0
C2897 C 0.59123 0.01614 0.88461 0.0
C2898 C 0.56804 0.01424 0.88382 0.0
H2899 H 0.61678 1.00731 0.86598 0.0
H2900 H 0.60372 0.02765 0.89958 0.0
C2901 C 0.55248 0.99967 0.8636 0.0
C2902 C 0.2958 0.34884 0.17038 0.0
C2903 C 0.31622 0.3667 0.17124 0.0
H2904 H 0.27473 0.3241 0.18989 0.0
C2905 C 0.33167 0.37244 0.19402 0.0
H2906 H 0.28355 0.34347 0.15328 0.0
C2907 C 0.32651 0.36113 0.21527 0.0
C2908 C 0.30591 0.34358 0.21428 0.0
H2909 H 0.3475 0.38618 0.19564 0.0
H2910 H 0.33849 0.36637 0.23253 0.0
C2911 C 0.29077 0.3375 0.19146 0.0
C2912 C 0.23989 0.04658 0.04915 0.0
C2913 C 0.23563 0.02056 0.05084 0.0
H2914 H 0.22699 0.07974 0.04921 0.0
C2915 C 0.21398 1.00821 0.0543 0.0
H2916 H 0.25613 0.05675 0.046 0.0
C2917 C 0.19715 0.02145 0.05599 0.0
C2918 C 0.20151 0.04747 0.05444 0.0
H2919 H 0.21007 0.98832 0.05613 0.0
H2920 H 0.18082 0.01135 0.05896 0.0
C2921 C 0.22311 0.05982 0.05097 0.0
C2922 C 0.65167 0.65987 0.03403 0.0
C2923 C 0.66735 0.64978 0.02287 0.0
H2924 H 0.61876 0.65323 0.04408 0.0
C2925 C 0.66135 0.62407 0.01382 0.0
H2926 H 0.65557 0.67961 0.04105 0.0
C2927 C 0.64034 0.60893 0.01579 0.0
C2928 C 0.62457 0.61909 0.02659 0.0
H2929 H 0.67301 0.6155 1.00543 0.0
H2930 H 0.63634 0.58926 1.00851 0.0
C2931 C 0.63052 0.64476 0.03574 0.0
C2932 C 0.79398 0.53512 0.33916 0.0
C2933 C 0.77911 0.52862 0.35562 0.0
H2934 H 0.81719 0.52358 0.3185 0.0
C2935 C 0.77761 0.50584 0.36578 0.0
H2936 H 0.79536 0.55275 0.33125 0.0
C2937 C 0.78968 0.48885 0.3581 0.0
C2938 C 0.80353 0.49465 0.34035 0.0
H2939 H 0.76602 0.50052 0.37836 0.0
H2940 H 0.78709 0.47065 0.3649 0.0
C2941 C 0.80626 0.51836 0.33175 0.0
C2942 C 0.96277 0.5331 0.56733 0.0
C2943 C 0.94592 0.52596 0.54581 0.0
H2944 H 0.99726 0.55114 0.58294 0.0
C2945 C 0.95156 0.53305 0.52313 0.0
H2946 H 0.95929 0.5278 0.58511 0.0
C2947 C 0.97344 0.54621 0.52186 0.0
C2948 C 0.99037 0.55292 0.54327 0.0
H2949 H 0.93905 0.52847 0.50621 0.0
H2950 H 0.97709 0.55094 0.50395 0.0
C2951 C 0.98467 0.54645 0.56608 0.0
C2952 C 0.366 0.26461 0.324 0.0
C2953 C 0.37932 0.25727 0.30755 0.0
H2954 H 0.33818 0.28095 0.32843 0.0
C2955 C 0.37272 0.25834 0.28195 0.0
H2956 H 0.37057 0.26445 0.34382 0.0
C2957 C 0.35452 0.26851 0.27334 0.0
C2958 C 0.34197 0.27666 0.28999 0.0
H2959 H 0.38195 0.252 0.26853 0.0
H2960 H 0.35081 0.27097 0.25386 0.0
C2961 C 0.3473 0.27392 0.31521 0.0
C2962 C 0.38817 0.15428 0.49931 0.0
C2963 C 0.38405 0.1661 0.52119 0.0
H2964 H 0.409 0.13393 0.48264 0.0
C2965 C 0.39884 0.16634 0.54361 0.0
H2966 H 0.37707 0.15351 0.48173 0.0
C2967 C 0.41705 0.15483 0.54419 0.0
C2968 C 0.42103 0.14275 0.52236 0.0
H2969 H 0.39643 0.17554 0.56079 0.0
H2970 H 0.42773 0.15498 0.5619 0.0
C2971 C 0.40638 0.14278 0.49989 0.0
C2972 C 0.75813 0.74713 0.31359 0.0
C2973 C 0.76633 0.73661 0.33475 0.0
H2974 H 0.76571 0.77355 0.28777 0.0
C2975 C 0.78879 0.74633 0.34692 0.0
H2976 H 0.74082 0.74047 0.30394 0.0
C2977 C 0.80271 0.76592 0.33811 0.0
C2978 C 0.79462 0.77587 0.31668 0.0
H2979 H 0.79591 0.73844 0.36291 0.0
H2980 H 0.81995 0.77295 0.34786 0.0
C2981 C 0.77226 0.76632 0.30445 0.0
C2982 C 0.87846 0.53754 0.77626 0.0
C2983 C 0.87397 0.55689 0.79138 0.0
H2984 H 0.87195 0.49788 0.7664 0.0
C2985 C 0.85605 0.55177 0.80438 0.0
H2986 H 0.89238 0.54124 0.76625 0.0
C2987 C 0.84414 0.52713 0.80421 0.0
C2988 C 0.85034 0.50734 0.79141 0.0
H2989 H 0.85234 0.56662 0.81604 0.0
H2990 H 0.83127 0.5234 0.81561 0.0
C2991 C 0.86673 0.5128 0.77633 0.0
C2992 C 0.09516 0.98425 0.06666 0.0
C2993 C 0.07753 0.9666 0.07343 0.0
H2994 H 0.10528 0.01902 0.05183 0.0
C2995 C 0.05557 0.9709 0.06868 0.0
H2996 H 0.11222 0.98159 0.06944 0.0
C2997 C 0.0515 0.99226 0.05798 0.0
C2998 C 0.06928 0.01017 0.0519 0.0
H2999 H 0.0415 0.9582 0.07391 0.0
H3000 H 0.0345 0.99515 0.05531 0.0
C3001 C 0.09113 1.00571 0.05621 0.0
C3002 C 0.89897 0.33126 0.85467 0.0
C3003 C 0.915 0.32098 0.8444 0.0
H3004 H 0.8668 0.34089 0.84845 0.0
C3005 C 0.91035 0.31302 0.81872 0.0
H3006 H 0.90171 0.33732 0.87437 0.0
C3007 C 0.89022 0.31506 0.80384 0.0
C3008 C 0.87417 0.32504 0.81422 0.0
H3009 H 0.92235 0.30537 0.81001 0.0
H3010 H 0.88712 0.30852 0.78421 0.0
C3011 C 0.87886 0.33326 0.8398 0.0
C3012 C 0.56148 0.20581 0.56414 0.0
C3013 C 0.5793 0.21813 0.58351 0.0
H3014 H 0.54449 0.17163 0.54102 0.0
C3015 C 0.59446 0.20415 0.59378 0.0
H3016 H 0.54974 0.2158 0.55513 0.0
C3017 C 0.59172 0.17871 0.58511 0.0
C3018 C 0.57351 0.16643 0.56627 0.0
H3019 H 0.60821 0.2126 0.60895 0.0
H3020 H 0.60357 0.16853 0.59358 0.0
C3021 C 0.55851 0.18035 0.55585 0.0
C3022 C 0.64431 0.84839 0.36071 0.0
C3023 C 0.62957 0.82509 0.3614 0.0
H3024 H 0.67448 0.86804 0.3498 0.0
C3025 C 0.63455 0.80317 0.35105 0.0
H3026 H 0.64125 0.86561 0.36893 0.0
C3027 C 0.65363 0.80455 0.33996 0.0
C3028 C 0.66826 0.8279 0.33904 0.0
H3029 H 0.62343 0.78493 0.35102 0.0
H3030 H 0.65658 0.78734 0.33158 0.0
C3031 C 0.66341 0.84977 0.34973 0.0
C3032 C 0.03801 0.18099 0.47509 0.0
C3033 C 0.04209 0.20348 0.49118 0.0
H3034 H 0.03728 0.14153 0.47125 0.0
C3035 C 0.04854 0.20247 0.51678 0.0
H3036 H 0.03282 0.18085 0.45529 0.0
C3037 C 0.05124 0.17987 0.52591 0.0
C3038 C 0.04725 0.15745 0.5098 0.0
H3039 H 0.05207 0.21932 0.52977 0.0
H3040 H 0.05656 0.18003 0.5457 0.0
C3041 C 0.04041 0.15831 0.48427 0.0
C3042 C 0.71484 0.36934 0.23849 0.0
C3043 C 0.69961 0.34809 0.22434 0.0
H3044 H 0.74706 0.38425 0.26233 0.0
C3045 C 0.70612 0.32501 0.22402 0.0
H3046 H 0.71054 0.38742 0.23958 0.0
C3047 C 0.72683 0.32314 0.23753 0.0
C3048 C 0.74203 0.34434 0.25155 0.0
H3049 H 0.69541 0.30827 0.21295 0.0
H3050 H 0.73107 0.305 0.23654 0.0
C3051 C 0.7358 0.36751 0.25177 0.0
C3052 C 0.5673 0.96942 0.02358 0.0
C3053 C 0.55951 0.96428 0.9978 0.0
H3054 H 0.57668 0.99668 0.05577 0.0
C3055 C 0.55508 0.98438 0.98474 0.0
H3056 H 0.5711 0.95465 0.03431 0.0
C3057 C 0.55798 1.00867 0.99726 0.0
C3058 C 0.566 0.01369 0.02302 0.0
H3059 H 0.54883 0.98118 0.96492 0.0
H3060 H 0.55364 0.0234 0.9869 0.0
C3061 C 0.57063 0.99368 0.03591 0.0
C3062 C 0.96605 0.83681 0.71849 0.0
C3063 C 0.98499 0.85667 0.71894 0.0
H3064 H 0.93422 0.82452 0.73003 0.0
C3065 C 0.98578 0.88003 0.73202 0.0
H3066 H 0.96468 0.81862 0.70844 0.0
C3067 C 0.96818 0.88349 0.74415 0.0
C3068 C 0.94922 0.8637 0.74365 0.0
H3069 H 1.00015 0.89571 0.73312 0.0
H3070 H 0.96936 0.90187 0.7537 0.0
C3071 C 0.9484 0.84029 0.73063 0.0
C3072 C 0.11906 0.10923 0.97217 0.0
C3073 C 0.12342 0.09001 0.95676 0.0
H3074 H 0.09707 0.12046 0.99439 0.0
C3075 C 0.10838 0.06612 0.95274 0.0
H3076 H 0.13043 0.12769 0.97602 0.0
C3077 C 0.08927 0.06169 0.96401 0.0
C3078 C 0.08506 0.08118 0.97922 0.0
H3079 H 0.11116 0.05104 0.94061 0.0
H3080 H 0.078 0.04318 0.96102 0.0
C3081 C 0.09995 0.10498 0.98286 0.0
C3082 C 0.83252 0.39777 0.68998 0.0
C3083 C 0.82599 0.38129 0.66762 0.0
H3084 H 0.83638 0.40209 0.72977 0.0
C3085 C 0.81859 0.35543 0.66946 0.0
H3086 H 0.83796 0.41783 0.68967 0.0
C3087 C 0.81739 0.34647 0.69259 0.0
C3088 C 0.82374 0.36296 0.71482 0.0
H3089 H 0.8138 0.34188 0.65303 0.0
H3090 H 0.81133 0.32647 0.69297 0.0
C3091 C 0.83151 0.38874 0.71317 0.0
C3092 C 0.55264 0.15647 0.45531 0.0
C3093 C 0.52983 0.14609 0.44509 0.0
H3094 H 0.58166 0.15314 0.48067 0.0
C3095 C 0.51861 0.12373 0.45282 0.0
H3096 H 0.56159 0.17372 0.44962 0.0
C3097 C 0.53019 0.11169 0.47023 0.0
C3098 C 0.55299 0.12212 0.48045 0.0
H3099 H 0.50108 0.11521 0.44489 0.0
H3100 H 0.52138 0.0942 0.47553 0.0
C3101 C 0.56407 0.14468 0.473 0.0
C3102 C 0.82023 0.80319 0.17138 0.0
C3103 C 0.79895 0.79496 0.1557 0.0
H3104 H 0.83879 0.81673 0.20811 0.0
C3105 C 0.77957 0.79448 0.16643 0.0
H3106 H 0.83559 0.80349 0.16415 0.0
C3107 C 0.78142 0.80181 0.19191 0.0
C3108 C 0.80271 0.80998 0.2075 0.0
H3109 H 0.76285 0.78867 0.15511 0.0
H3110 H 0.7661 0.80121 0.19933 0.0
C3111 C 0.82207 0.81061 0.19681 0.0
C3112 C 0.09582 0.10416 0.74995 0.0
C3113 C 0.10969 0.08719 0.75356 0.0
H3114 H 0.07557 0.12032 0.72353 0.0
C3115 C 0.11091 0.07034 0.73361 0.0
H3116 H 0.09456 0.11714 0.76527 0.0
C3117 C 0.10037 0.07237 0.70975 0.0
C3118 C 0.08842 0.09118 0.70574 0.0
H3119 H 0.12168 0.05722 0.73608 0.0
H3120 H 0.10336 0.0608 0.69432 0.0
C3121 C 0.08508 0.10601 0.72616 0.0
C3122 C 0.78819 0.35301 0.39964 0.0
C3123 C 0.80462 0.3755 0.40813 0.0
H3124 H 0.77277 0.3238 0.36981 0.0
C3125 C 0.81767 0.38628 0.39104 0.0
H3126 H 0.77798 0.34383 0.41208 0.0
C3127 C 0.81451 0.37471 0.36643 0.0
C3128 C 0.79838 0.35194 0.35833 0.0
H3129 H 0.83038 0.40368 0.39669 0.0
H3130 H 0.82517 0.38309 0.35402 0.0
C3131 C 0.78523 0.34142 0.37527 0.0
C3132 C 0.51945 0.16742 0.20371 0.0
C3133 C 0.53134 0.17253 0.22829 0.0
H3134 H 0.51846 0.15222 0.16665 0.0
C3135 C 0.55349 0.16916 0.23334 0.0
H3136 H 0.50254 0.17033 0.19904 0.0
C3137 C 0.56305 0.15966 0.21444 0.0
C3138 C 0.55053 0.15284 0.19018 0.0
H3139 H 0.56312 0.17276 0.25207 0.0
H3140 H 0.58005 0.157 0.21905 0.0
C3141 C 0.52879 0.1574 0.18496 0.0
C3142 C 0.80205 0.7896 0.88015 0.0
C3143 C 0.8039 0.80453 0.9028 0.0
H3144 H 0.80449 0.78839 0.84156 0.0
C3145 C 0.80967 0.83087 0.90295 0.0
H3146 H 0.79735 0.76931 0.87903 0.0
C3147 C 0.81385 0.84185 0.88132 0.0
C3148 C 0.81219 0.82685 0.85884 0.0
H3149 H 0.81146 0.84307 0.91996 0.0
H3150 H 0.81855 0.86214 0.88227 0.0
C3151 C 0.80601 0.80057 0.85852 0.0
C3152 C 0.88646 0.13509 1.00136 0.0
C3153 C 0.8888 0.15339 0.02166 0.0
H3154 H 0.90075 0.10815 0.98333 0.0
C3155 C 0.9084 0.15774 0.04006 0.0
H3156 H 0.87157 0.13078 0.98692 0.0
C3157 C 0.92493 0.14407 0.03838 0.0
C3158 C 0.92261 0.12582 0.01805 0.0
H3159 H 0.91119 0.17188 0.0558 0.0
H3160 H 0.9394 0.14767 0.0533 0.0
C3161 C 0.90314 0.12169 0.9995 0.0
C3162 C 0.45769 0.5514 0.05828 0.0
C3163 C 0.45254 0.52538 0.05063 0.0
H3164 H 0.48176 0.58681 0.06216 0.0
C3165 C 0.46877 0.51544 0.04036 0.0
H3166 H 0.44559 0.55989 0.06592 0.0
C3167 C 0.48958 0.53097 0.03817 0.0
C3168 C 0.4947 0.55691 0.04601 0.0
H3169 H 0.46559 0.49551 0.03445 0.0
H3170 H 0.50177 0.52259 0.03057 0.0
C3171 C 0.4784 0.56693 0.05591 0.0
C3172 C 0.36125 0.6764 0.74009 0.0
C3173 C 0.35043 0.65077 0.73564 0.0
H3174 H 0.35904 0.71346 0.75225 0.0
C3175 C 0.32799 0.64301 0.73907 0.0
H3176 H 0.37846 0.68293 0.73733 0.0
C3177 C 0.31671 0.6606 0.74725 0.0
C3178 C 0.32771 0.68617 0.75211 0.0
H3179 H 0.31934 0.62332 0.73601 0.0
H3180 H 0.29943 0.65419 0.74985 0.0
C3181 C 0.35003 0.69391 0.74833 0.0
C3182 C 0.1675 0.64666 0.5508 0.0
C3183 C 0.17498 0.64658 0.52795 0.0
H3184 H 0.1407 0.63403 0.57044 0.0
C3185 C 0.16028 0.63239 0.50689 0.0
H3186 H 0.17846 0.65706 0.56746 0.0
C3187 C 0.13848 0.61911 0.50856 0.0
C3188 C 0.13094 0.61946 0.53139 0.0
H3189 H 0.16544 0.63202 0.48896 0.0
H3190 H 0.12749 0.60874 0.4919 0.0
C3191 C 0.14584 0.63324 0.55252 0.0
C3192 C 0.76013 0.92227 0.7624 0.0
C3193 C 0.74106 0.92011 0.77386 0.0
H3194 H 0.79164 0.91237 0.76152 0.0
C3195 C 0.74056 0.90761 0.79525 0.0
H3196 H 0.76112 0.93133 0.7457 0.0
C3197 C 0.75792 0.89618 0.80393 0.0
C3198 C 0.77647 0.89771 0.79191 0.0
H3199 H 0.72659 0.90619 0.80513 0.0
H3200 H 0.75648 0.8854 0.81954 0.0
C3201 C 0.77778 0.91149 0.77155 0.0
C3202 C 0.73879 0.03001 0.56837 0.0
C3203 C 0.7368 1.00827 0.55205 0.0
H3204 H 0.72321 0.05867 0.58073 0.0
C3205 C 0.71636 0.99885 0.53515 0.0
H3206 H 0.7543 0.03803 0.58147 0.0
C3207 C 0.69853 0.01102 0.53443 0.0
C3208 C 0.70068 0.03293 0.55059 0.0
H3209 H 0.71404 0.98197 0.52251 0.0
H3210 H 0.68325 1.00351 0.52085 0.0
C3211 C 0.72099 0.04208 0.56772 0.0
C3212 C 0.3324 0.4252 0.72731 0.0
C3213 C 0.35493 0.43485 0.73931 0.0
H3214 H 0.30122 0.39863 0.72663 0.0
C3215 C 0.36328 0.42418 0.76029 0.0
H3216 H 0.32517 0.43319 0.71145 0.0
C3217 C 0.34921 0.40504 0.76954 0.0
C3218 C 0.32676 0.39561 0.75755 0.0
H3219 H 0.38064 0.43071 0.76978 0.0
H3220 H 0.35588 0.39776 0.78613 0.0
C3221 C 0.31854 0.4056 0.7362 0.0
C3222 C 0.24659 0.62314 0.25619 0.0
C3223 C 0.23931 0.6156 0.27788 0.0
H3224 H 0.26381 0.65293 0.23888 0.0
C3225 C 0.24683 0.63161 0.30021 0.0
H3226 H 0.24121 0.61084 0.23884 0.0
C3227 C 0.26012 0.65571 0.30038 0.0
C3228 C 0.26602 0.66394 0.27822 0.0
H3229 H 0.24141 0.62602 0.31715 0.0
H3230 H 0.26492 0.66826 0.31755 0.0
C3231 C 0.25979 0.64711 0.25633 0.0
C3232 C 0.56552 0.69953 0.50315 0.0
C3233 C 0.54396 0.70501 0.50012 0.0
H3234 H 0.58616 0.67444 0.51529 0.0
C3235 C 0.52665 0.68836 0.50857 0.0
H3236 H 0.57933 0.71125 0.49653 0.0
C3237 C 0.53057 0.66679 0.51893 0.0
C3238 C 0.55201 0.66132 0.52166 0.0
H3239 H 0.50993 0.69187 0.50723 0.0
H3240 H 0.51665 0.65427 0.52465 0.0
C3241 C 0.56951 0.6782 0.51393 0.0
C3242 C 0.72424 0.34039 0.71946 0.0
C3243 C 0.70848 0.35122 0.72964 0.0
H3244 H 0.75611 0.33003 0.72584 0.0
C3245 C 0.71323 0.35938 0.75528 0.0
H3246 H 0.72139 0.33413 0.6998 0.0
C3247 C 0.7332 0.35701 0.77022 0.0
C3248 C 0.74902 0.3465 0.75994 0.0
H3249 H 0.70142 0.36744 0.76393 0.0
H3250 H 0.73637 0.36371 0.78982 0.0
C3251 C 0.74423 0.33808 0.7344 0.0
C3252 C 0.06341 0.47163 0.99393 0.0
C3253 C 0.04199 0.45489 0.99018 0.0
H3254 H 0.08303 0.50928 1.00472 0.0
C3255 C 0.0234 0.46472 0.99428 0.0
H3256 H 0.07811 0.46519 0.9904 0.0
C3257 C 0.0262 0.49039 1.00197 0.0
C3258 C 0.0477 0.50688 1.00609 0.0
H3259 H 1.00667 0.45256 0.99197 0.0
H3260 H 1.01158 0.4972 1.0052 0.0
C3261 C 0.06623 0.49714 1.00194 0.0
C3262 C 0.97658 0.82674 0.21085 0.0
C3263 C 0.99411 0.84864 0.21517 0.0
H3264 H 0.94412 0.80847 0.21761 0.0
C3265 C 0.99174 0.86952 0.23015 0.0
H3266 H 0.97759 0.81048 0.19899 0.0
C3267 C 0.97247 0.86838 0.24084 0.0
C3268 C 0.95508 0.84634 0.23678 0.0
H3269 H 1.005 0.8866 0.2341 0.0
H3270 H 0.97149 0.88458 0.2528 0.0
C3271 C 0.95733 0.8256 0.2215 0.0
C3272 C 0.58445 0.49486 0.09908 0.0
C3273 C 0.57893 0.47199 0.08326 0.0
H3274 H 0.586 0.53452 0.10273 0.0
C3275 C 0.57072 0.47262 0.05793 0.0
H3276 H 0.59107 0.49538 0.11863 0.0
C3277 C 0.56785 0.49515 0.04882 0.0
C3278 C 0.57322 0.51792 0.06467 0.0
H3279 H 0.56596 0.45554 0.04512 0.0
H3280 H 0.56122 0.49462 0.02926 0.0
C3281 C 0.5817 0.51746 0.08992 0.0
C3282 C 0.9022 0.303 0.33824 0.0
C3283 C 0.91893 0.32481 0.3486 0.0
H3284 H 0.86868 0.28754 0.31754 0.0
C3285 C 0.91393 0.3483 0.3454 0.0
H3286 H 0.90541 0.28455 0.34004 0.0
C3287 C 0.89302 0.35 0.33226 0.0
C3288 C 0.87627 0.32825 0.32198 0.0
H3289 H 0.92603 0.36557 0.35346 0.0
H3290 H 0.88995 0.36852 0.3305 0.0
C3291 C 0.88114 0.3047 0.32513 0.0
C3292 C 0.07366 0.6912 0.5864 0.0
C3293 C 0.06151 0.70831 0.57634 0.0
H3294 H 0.08085 0.65452 0.58201 0.0
C3295 C 0.04602 0.69977 0.55391 0.0
H3296 H 0.08567 0.69672 0.60366 0.0
C3297 C 0.04294 0.67536 0.54194 0.0
C3298 C 0.05509 0.65841 0.55192 0.0
H3299 H 0.03659 0.71218 0.54509 0.0
H3300 H 0.03113 0.66985 0.52453 0.0
C3301 C 0.07057 0.66668 0.5743 0.0
C3302 C 0.63583 0.79444 0.84442 0.0
C3303 C 0.63447 0.81839 0.85428 0.0
H3304 H 0.65437 0.77256 0.82591 0.0
C3305 C 0.65183 0.83919 0.85237 0.0
H3306 H 0.6231 0.77788 0.84596 0.0
C3307 C 0.66987 0.83613 0.84071 0.0
C3308 C 0.6711 0.81217 0.83067 0.0
H3309 H 0.65128 0.85796 0.85945 0.0
H3310 H 0.68262 0.85266 0.83916 0.0
C3311 C 0.65384 0.79138 0.83285 0.0
C3312 C 0.51346 0.60433 0.62286 0.0
C3313 C 0.49754 0.58098 0.61762 0.0
H3314 H 0.54418 0.62699 0.61513 0.0
C3315 C 0.50094 0.56234 0.60073 0.0
H3316 H 0.51157 0.61895 0.6362 0.0
C3317 C 0.51988 0.56662 0.58972 0.0
C3318 C 0.53548 0.59 0.59442 0.0
H3319 H 0.48894 0.54434 0.59585 0.0
H3320 H 0.52207 0.55153 0.57713 0.0
C3321 C 0.53228 0.60887 0.61117 0.0
C3322 C 0.80594 0.31544 0.90541 0.0
C3323 C 0.79812 0.28964 0.90708 0.0
H3324 H 0.81344 0.3444 0.88195 0.0
C3325 C 0.79089 0.27329 0.88472 0.0
H3326 H 0.81189 0.32868 0.92205 0.0
C3327 C 0.79172 0.28237 0.86155 0.0
C3328 C 0.79995 0.30808 0.85996 0.0
H3329 H 0.78446 0.25335 0.88505 0.0
H3330 H 0.7862 0.26912 0.84492 0.0
C3331 C 0.80692 0.32448 0.88227 0.0
C3332 C 0.10402 0.55583 0.12437 0.0
C3333 C 0.09453 0.53237 0.13154 0.0
H3334 H 0.09932 0.58454 0.10125 0.0
C3335 C 0.07289 0.51916 0.11932 0.0
H3336 H 0.12081 0.56634 0.13315 0.0
C3337 C 0.06083 0.52941 0.10072 0.0
C3338 C 0.0701 0.55312 0.09414 0.0
H3339 H 0.06496 0.50123 0.1246 0.0
H3340 H 0.04408 0.51892 0.09176 0.0
C3341 C 0.09184 0.56619 0.10597 0.0
C3342 C 0.80323 0.87638 0.40238 0.0
C3343 C 0.8234 0.87806 0.41939 0.0
H3344 H 0.78569 0.86795 0.36464 0.0
C3345 C 0.84187 0.87231 0.40981 0.0
H3346 H 0.7887 0.88113 0.4085 0.0
C3347 C 0.84027 0.86544 0.3843 0.0
C3348 C 0.82004 0.86358 0.36754 0.0
H3349 H 0.85761 0.87277 0.42199 0.0
H3350 H 0.85482 0.86111 0.37778 0.0
C3351 C 0.80153 0.86903 0.37698 0.0
C3352 C 0.5075 0.60816 0.84347 0.0
C3353 C 0.51378 0.59618 0.82312 0.0
H3354 H 0.51145 0.61392 0.88292 0.0
C3355 C 0.53246 0.58532 0.82694 0.0
H3356 H 0.49303 0.6165 0.84101 0.0
C3357 C 0.54295 0.58375 0.85094 0.0
C3358 C 0.53491 0.59314 0.87131 0.0
H3359 H 0.53778 0.57629 0.81144 0.0
H3360 H 0.55617 0.57355 0.85357 0.0
C3361 C 0.51804 0.60666 0.86747 0.0
C3362 C 0.79985 0.28722 0.18282 0.0
C3363 C 0.81445 0.29683 0.16657 0.0
H3364 H 0.79079 0.29116 0.21902 0.0
C3365 C 0.83229 0.31787 0.1763 0.0
H3366 H 0.78567 0.27135 0.17642 0.0
C3367 C 0.83486 0.3294 0.20063 0.0
C3368 C 0.8201 0.32009 0.21652 0.0
H3369 H 0.84447 0.3257 0.1652 0.0
H3370 H 0.84845 0.34594 0.20696 0.0
C3371 C 0.80273 0.29858 0.20746 0.0
C3372 C 0.06032 0.49366 0.34303 0.0
C3373 C 0.0834 0.494 0.34534 0.0
H3374 H 0.03442 0.50446 0.35996 0.0
C3375 C 0.09804 0.50466 0.36774 0.0
H3376 H 0.04863 0.4854 0.32603 0.0
C3377 C 0.08998 0.51568 0.38704 0.0
C3378 C 0.06707 0.51628 0.38439 0.0
H3379 H 0.116 0.50571 0.36992 0.0
H3380 H 0.10195 0.52484 0.40354 0.0
C3381 C 0.05223 0.50464 0.3624 0.0
C3382 C 0.81896 0.88678 0.69457 0.0
C3383 C 0.81726 0.8715 0.67217 0.0
H3384 H 0.81628 0.88861 0.73311 0.0
C3385 C 0.81155 0.84522 0.6724 0.0
H3386 H 0.82361 0.90705 0.69536 0.0
C3387 C 0.8072 0.83461 0.69416 0.0
C3388 C 0.80871 0.84996 0.7164 0.0
H3389 H 0.8099 0.83278 0.65559 0.0
H3390 H 0.80255 0.81435 0.69353 0.0
C3391 C 0.81488 0.87618 0.71634 0.0
C3392 C 0.73097 0.53841 0.53547 0.0
C3393 C 0.73292 0.51901 0.5504 0.0
H3394 H 0.71337 0.56671 0.52517 0.0
C3395 C 0.71734 0.51322 0.56646 0.0
H3396 H 0.74279 0.54379 0.52317 0.0
C3397 C 0.70052 0.52655 0.56773 0.0
C3398 C 0.69864 0.54596 0.55287 0.0
H3399 H 0.71788 0.49811 0.5779 0.0
H3400 H 0.68876 0.52135 0.58014 0.0
C3401 C 0.71406 0.55164 0.53665 0.0
C3402 C 0.15418 0.1536 0.53797 0.0
C3403 C 0.16666 0.14675 0.52017 0.0
H3404 H 0.12392 0.14451 0.5535 0.0
C3405 C 0.15725 0.12387 0.50468 0.0
H3406 H 0.16066 0.17056 0.5508 0.0
C3407 C 0.1365 0.10845 0.50706 0.0
C3408 C 0.12407 0.11564 0.52449 0.0
H3409 H 0.16558 0.11783 0.49024 0.0
H3410 H 0.12991 0.09114 0.49469 0.0
C3411 C 0.13308 0.13847 0.53983 0.0
C3412 C 0.27734 1.00131 0.85466 0.0
C3413 C 0.27806 0.02409 0.84465 0.0
H3414 H 0.2866 0.96606 0.85243 0.0
C3415 C 0.29127 0.03032 0.82656 0.0
H3416 H 0.26702 0.99618 0.8685 0.0
C3417 C 0.30287 0.01346 0.81772 0.0
C3418 C 0.30103 0.98984 0.82645 0.0
H3419 H 0.29207 0.04795 0.81876 0.0
H3420 H 0.31269 0.01864 0.80349 0.0
C3421 C 0.28863 0.98419 0.8455 0.0
C3422 C 0.46075 0.04248 0.06492 0.0
C3423 C 0.44657 0.02693 0.04425 0.0
H3424 H 0.49308 0.06724 0.07968 0.0
C3425 C 0.45491 0.02523 0.02193 0.0
H3426 H 0.45496 0.04467 0.08236 0.0
C3427 C 0.47659 0.0386 0.02028 0.0
C3428 C 0.49082 0.05387 0.04099 0.0
H3429 H 0.4449 0.0131 1.0057 0.0
H3430 H 0.48236 0.03645 1.00281 0.0
C3431 C 0.48261 0.05566 0.06334 0.0
C3432 C 0.85991 0.74918 0.80007 0.0
C3433 C 0.88234 0.76019 0.79795 0.0
H3434 H 0.82548 0.75247 0.7947 0.0
C3435 C 0.88645 0.78181 0.78576 0.0
H3436 H 0.85592 0.73208 0.80866 0.0
C3437 C 0.86889 0.79255 0.77663 0.0
C3438 C 0.8468 0.78264 0.78026 0.0
H3439 H 0.90337 0.79124 0.78402 0.0
H3440 H 0.87304 0.80962 0.76805 0.0
C3441 C 0.84232 0.76049 0.79156 0.0
C3442 C 0.87967 0.63802 0.02654 0.0
C3443 C 0.88277 0.66373 0.02361 0.0
H3444 H 0.89458 0.60644 0.02987 0.0
C3445 C 0.90454 0.67721 0.0216 0.0
H3446 H 0.86317 0.62676 0.02759 0.0
C3447 C 0.92262 0.6654 0.02269 0.0
C3448 C 0.91951 0.63982 0.02604 0.0
H3449 H 0.9078 0.69709 0.01971 0.0
H3450 H 0.93917 0.67647 0.02152 0.0
C3451 C 0.89775 0.62629 0.02779 0.0
C3452 C 0.29153 0.24289 0.84565 0.0
C3453 C 0.26849 0.23397 0.83517 0.0
H3454 H 0.32252 0.26925 0.84517 0.0
C3455 C 0.2593 0.2454 0.81516 0.0
H3456 H 0.29954 0.23429 0.86055 0.0
C3457 C 0.2729 0.2647 0.80556 0.0
C3458 C 0.29571 0.27368 0.81638 0.0
H3459 H 0.24159 0.23953 0.8068 0.0
H3460 H 0.26555 0.27258 0.78975 0.0
C3461 C 0.30488 0.26275 0.83659 0.0
C3462 C 0.36029 0.04979 0.28206 0.0
C3463 C 0.38378 0.05615 0.28292 0.0
H3464 H 0.33122 0.02048 0.28297 0.0
C3465 C 0.39539 0.03688 0.28148 0.0
H3466 H 0.35079 0.06418 0.28262 0.0
C3467 C 0.38412 0.01198 0.28118 0.0
C3468 C 0.3611 1.00595 0.28257 0.0
H3469 H 0.41352 0.04107 0.28249 0.0
H3470 H 0.39381 0.99772 0.28186 0.0
C3471 C 0.34906 0.02485 0.28211 0.0
C3472 C 0.55399 0.47145 0.57035 0.0
C3473 C 0.57586 0.46683 0.57426 0.0
H3474 H 0.53284 0.49581 0.55754 0.0
C3475 C 0.59322 0.48411 0.5666 0.0
H3476 H 0.54012 0.45911 0.57631 0.0
C3477 C 0.58903 0.50552 0.55613 0.0
C3478 C 0.56727 0.51023 0.5526 0.0
H3479 H 0.61019 0.48122 0.56869 0.0
H3480 H 0.603 0.51859 0.55106 0.0
C3481 C 0.54975 0.49269 0.55956 0.0
C3482 C 0.39903 0.83277 0.35456 0.0
C3483 C 0.41503 0.82246 0.34426 0.0
H3484 H 0.36697 0.84268 0.34832 0.0
C3485 C 0.41047 0.81475 0.31854 0.0
H3486 H 0.40172 0.83865 0.37429 0.0
C3487 C 0.39045 0.81706 0.30363 0.0
C3488 C 0.37442 0.82707 0.31404 0.0
H3489 H 0.42245 0.80709 0.30981 0.0
H3490 H 0.38742 0.8107 0.28397 0.0
C3491 C 0.37903 0.83504 0.33966 0.0
C3492 C 0.06054 0.70499 0.06533 0.0
C3493 C 0.07933 0.71788 0.08329 0.0
H3494 H 0.04282 0.67033 0.04347 0.0
C3495 C 0.09537 0.70443 0.09242 0.0
H3496 H 0.04806 0.7146 0.05727 0.0
C3497 C 0.09255 0.67892 0.084 0.0
C3498 C 0.07345 0.66607 0.06653 0.0
H3499 H 0.10991 0.71339 0.10651 0.0
H3500 H 0.10512 0.66916 0.09156 0.0
C3501 C 0.05757 0.67948 0.05725 0.0
C3502 C 0.13492 0.30216 0.85211 0.0
C3503 C 0.1297 0.32429 0.86164 0.0
H3504 H 0.15704 0.28591 0.8332 0.0
C3505 C 0.14414 0.34753 0.86006 0.0
H3506 H 0.12403 0.28396 0.85279 0.0
C3507 C 0.16316 0.34865 0.849 0.0
C3508 C 0.16822 0.32657 0.83911 0.0
H3509 H 0.14089 0.36491 0.86763 0.0
H3510 H 0.174 0.36689 0.84835 0.0
C3511 C 0.15391 0.30329 0.84095 0.0
C3512 C 0.53488 0.68172 0.97266 0.0
C3513 C 0.54132 0.70492 0.98804 0.0
H3514 H 0.53231 0.64186 0.96962 0.0
C3515 C 0.55017 0.70456 0.0133 0.0
H3516 H 0.52834 0.68093 0.95306 0.0
C3517 C 0.55275 0.68207 0.02269 0.0
C3518 C 0.54641 0.659 1.00729 0.0
H3519 H 0.55498 0.72167 0.02605 0.0
H3520 H 0.55977 0.68284 0.04218 0.0
C3521 C 0.5373 0.65915 0.98214 0.0
C3522 C 0.20144 0.82096 0.73131 0.0
C3523 C 0.19666 0.84452 0.72787 0.0
H3524 H 0.22538 0.80062 0.74632 0.0
C3525 C 0.21333 0.86625 0.73862 0.0
H3526 H 0.18898 0.80376 0.72385 0.0
C3527 C 0.23429 0.86442 0.75187 0.0
C3528 C 0.23916 0.84082 0.75474 0.0
H3529 H 0.21047 0.88475 0.73625 0.0
H3530 H 0.24685 0.88153 0.7594 0.0
C3531 C 0.22234 0.81914 0.74447 0.0
C3532 C 0.04957 0.48054 0.48702 0.0
C3533 C 0.05955 0.46247 0.49856 0.0
H3534 H 0.04473 0.51837 0.48973 0.0
C3535 C 0.07346 0.47019 0.52204 0.0
H3536 H 0.03891 0.47559 0.46885 0.0
C3537 C 0.07697 0.49473 0.53373 0.0
C3538 C 0.06682 0.51263 0.52243 0.0
H3539 H 0.08123 0.45703 0.53186 0.0
H3540 H 0.08744 0.49958 0.55202 0.0
C3541 C 0.05316 0.50527 0.49879 0.0
C3542 C 0.4668 0.33845 0.21004 0.0
C3543 C 0.48613 0.35805 0.21127 0.0
H3544 H 0.43468 0.32629 0.22082 0.0
C3545 C 0.48693 0.38136 0.22446 0.0
H3546 H 0.46528 0.32032 0.1998 0.0
C3547 C 0.46903 0.385 0.23594 0.0
C3548 C 0.44983 0.36535 0.23497 0.0
H3549 H 0.50154 0.39687 0.22626 0.0
H3550 H 0.47028 0.40338 0.2455 0.0
C3551 C 0.44898 0.34202 0.2218 0.0
C3552 C 0.61702 0.61067 0.47347 0.0
C3553 C 0.62141 0.59198 0.45748 0.0
H3554 H 0.59515 0.62086 0.49638 0.0
C3555 C 0.60669 0.56788 0.45319 0.0
H3556 H 0.62816 0.62927 0.47747 0.0
C3557 C 0.58778 0.56276 0.46472 0.0
C3558 C 0.58348 0.58175 0.48046 0.0
H3559 H 0.60954 0.5532 0.44061 0.0
H3560 H 0.57669 0.54414 0.46144 0.0
C3561 C 0.59813 0.60573 0.48447 0.0
C3562 C 0.33137 0.8997 0.18941 0.0
C3563 C 0.32589 0.88313 0.16715 0.0
H3564 H 0.33446 0.90405 0.22908 0.0
C3565 C 0.31965 0.85715 0.16905 0.0
H3566 H 0.33584 0.91982 0.18904 0.0
C3567 C 0.31852 0.84816 0.19215 0.0
C3568 C 0.32387 0.86475 0.21426 0.0
H3569 H 0.31571 0.84356 0.15269 0.0
H3570 H 0.31335 0.82807 0.19263 0.0
C3571 C 0.3305 0.89064 0.21256 0.0
C3572 C 0.04809 0.65475 0.95572 0.0
C3573 C 0.02583 0.64237 0.94469 0.0
H3574 H 0.07766 0.65382 0.98165 0.0
C3575 C 0.01612 0.61925 0.95236 0.0
H3576 H 0.05622 0.67238 0.95003 0.0
C3577 C 0.02867 0.60827 0.96984 0.0
C3578 C 0.05096 0.6205 0.9805 0.0
H3579 H 0.99888 0.60939 0.94464 0.0
H3580 H 0.02101 0.59009 0.97476 0.0
C3581 C 0.06048 0.64397 0.97359 0.0
C3582 C 0.28049 0.28683 0.66709 0.0
C3583 C 0.2988 0.29492 0.65485 0.0
H3584 H 0.26775 0.28722 0.70127 0.0
C3585 C 0.3188 0.31037 0.66919 0.0
H3586 H 0.26487 0.27459 0.65712 0.0
C3587 C 0.32058 0.31712 0.69472 0.0
C3588 C 0.30232 0.30899 0.70686 0.0
H3589 H 0.3332 0.3176 0.66072 0.0
H3590 H 0.33631 0.32902 0.70489 0.0
C3591 C 0.28218 0.2939 0.69263 0.0
C3592 C 0.61623 0.57058 0.22735 0.0
C3593 C 0.61212 0.58311 0.24872 0.0
H3594 H 0.60921 0.56454 0.18782 0.0
C3595 C 0.59479 0.59605 0.24689 0.0
H3596 H 0.62953 0.56044 0.2285 0.0
C3597 C 0.58308 0.59835 0.22364 0.0
C3598 C 0.58857 0.58764 0.20209 0.0
H3599 H 0.59152 0.606 0.26321 0.0
H3600 H 0.57077 0.60979 0.22242 0.0
C3601 C 0.60448 0.57277 0.20416 0.0
C3602 C 0.28467 0.86106 0.89577 0.0
C3603 C 0.30498 0.87757 0.90818 0.0
H3604 H 0.26635 0.8383 0.86208 0.0
C3605 C 0.32245 0.88425 0.89449 0.0
H3606 H 0.27085 0.85515 0.90551 0.0
C3607 C 0.31985 0.87446 0.86949 0.0
C3608 C 0.29969 0.85765 0.85734 0.0
H3609 H 0.3382 0.89724 0.90303 0.0
H3610 H 0.33377 0.87985 0.85976 0.0
C3611 C 0.28208 0.85127 0.87077 0.0
C3612 C 0.02467 0.66705 0.70477 0.0
C3613 C 0.03373 0.66737 0.72996 0.0
H3614 H 0.02622 0.65586 0.66726 0.0
C3615 C 0.05372 0.6592 0.73636 0.0
H3616 H 1.00951 0.67366 0.69922 0.0
C3617 C 0.06383 0.64979 0.71794 0.0
C3618 C 0.05393 0.64793 0.69277 0.0
H3619 H 0.06106 0.65898 0.75558 0.0
H3620 H 0.07906 0.64331 0.72349 0.0
C3621 C 0.0345 0.6572 0.68639 0.0
C3622 C 0.32435 0.32402 0.40294 0.0
C3623 C 0.30412 0.30579 0.40203 0.0
H3624 H 0.34525 0.34902 0.38347 0.0
C3625 C 0.28883 0.29978 0.37912 0.0
H3626 H 0.33647 0.32973 0.4201 0.0
C3627 C 0.29389 0.31119 0.35788 0.0
C3628 C 0.31434 0.32903 0.35893 0.0
H3629 H 0.27314 0.28577 0.37738 0.0
H3630 H 0.28194 0.30584 0.3406 0.0
C3631 C 0.32934 0.33536 0.38184 0.0
C3632 C 0.38216 0.62617 0.52363 0.0
C3633 C 0.3864 0.65192 0.52075 0.0
H3634 H 0.39491 0.59291 0.52443 0.0
C3635 C 0.40774 0.66377 0.51609 0.0
H3636 H 0.36588 0.61634 0.52699 0.0
C3637 C 0.42438 0.65025 0.51442 0.0
C3638 C 0.42009 0.62447 0.51722 0.0
H3639 H 0.41171 0.68361 0.51402 0.0
H3640 H 0.44055 0.65996 0.51066 0.0
C3641 C 0.39875 0.61264 0.52185 0.0
C3642 C 0.96958 0.01561 0.54302 0.0
C3643 C 0.95328 0.02593 0.55272 0.0
H3644 H 1.00291 0.02212 0.53417 0.0
C3645 C 0.95873 0.05195 0.56049 0.0
H3646 H 0.96622 0.99567 0.53708 0.0
C3647 C 0.97982 0.0671 0.55881 0.0
C3648 C 0.99613 0.0567 0.54941 0.0
H3649 H 0.94661 0.06073 0.5677 0.0
H3650 H 0.98341 0.08699 0.56512 0.0
C3651 C 0.99071 0.03078 0.54142 0.0
C3652 C 0.85892 0.17548 0.22968 0.0
C3653 C 0.84783 0.15033 0.22154 0.0
H3654 H 0.85595 0.21179 0.24333 0.0
C3655 C 0.82424 0.14294 0.21907 0.0
H3656 H 0.87708 0.18172 0.23145 0.0
C3657 C 0.81204 0.16029 0.2255 0.0
C3658 C 0.82327 0.18527 0.23446 0.0
H3659 H 0.81532 0.1236 0.21298 0.0
H3660 H 0.7939 0.15409 0.22385 0.0
C3661 C 0.84678 0.19276 0.23615 0.0
C3662 C 0.66184 0.13064 1.00753 0.0
C3663 C 0.67647 0.14491 0.02865 0.0
H3664 H 0.62901 0.10726 0.99224 0.0
C3665 C 0.66843 0.14569 0.05121 0.0
H3666 H 0.6674 0.12921 0.98989 0.0
C3667 C 0.64656 0.13271 0.05263 0.0
C3668 C 0.63187 0.11875 0.03148 0.0
H3669 H 0.67882 0.15683 0.0678 0.0
H3670 H 0.64103 0.13415 0.0703 0.0
C3671 C 0.63982 0.11782 1.00891 0.0
C3672 C 0.24599 0.4121 0.29337 0.0
C3673 C 0.24126 0.41696 0.26851 0.0
H3674 H 0.26634 0.3962 0.32014 0.0
C3675 C 0.25627 0.41296 0.25265 0.0
H3676 H 0.23543 0.41577 0.30649 0.0
C3677 C 0.2748 0.40317 0.26108 0.0
C3678 C 0.2783 0.39662 0.28528 0.0
H3679 H 0.25319 0.41613 0.23335 0.0
H3680 H 0.28522 0.39872 0.24805 0.0
C3681 C 0.26406 0.40155 0.3015 0.0
C3682 C 0.21615 0.49776 0.0341 0.0
C3683 C 0.23693 0.50789 0.05022 0.0
H3684 H 0.18269 0.50181 0.02033 0.0
C3685 C 0.23933 0.53047 0.06545 0.0
H3686 H 0.2136 0.48026 0.0223 0.0
C3687 C 0.22158 0.54267 0.06448 0.0
C3688 C 0.20086 0.5327 0.04825 0.0
H3689 H 0.2551 0.53899 0.07793 0.0
H3690 H 0.22411 0.55996 0.07661 0.0
C3691 C 0.19832 0.50996 0.03319 0.0
C3692 C 0.86552 0.92654 0.26363 0.0
C3693 C 0.85793 0.93728 0.24238 0.0
H3694 H 0.85709 0.8999 0.28899 0.0
C3695 C 0.83563 0.92771 0.22956 0.0
H3696 H 0.88266 0.93307 0.27378 0.0
C3697 C 0.8213 0.90806 0.23785 0.0
C3698 C 0.82879 0.89789 0.25937 0.0
H3699 H 0.82897 0.93577 0.21346 0.0
H3700 H 0.8042 0.90115 0.22763 0.0
C3701 C 0.85098 0.90729 0.27222 0.0
C3702 C 0.75405 0.12086 0.77785 0.0
C3703 C 0.73469 0.11821 0.78863 0.0
H3704 H 0.78161 0.14637 0.76762 0.0
C3705 C 0.73 0.13927 0.80087 0.0
H3706 H 0.75795 0.10468 0.76848 0.0
C3707 C 0.74332 0.16314 0.80012 0.0
C3708 C 0.76147 0.16602 0.78721 0.0
H3709 H 0.71501 0.13749 0.80915 0.0
H3710 H 0.73826 0.17936 0.80779 0.0
C3711 C 0.76746 0.14462 0.77729 0.0
loop_
_geom_bond_atom_site_label_1
_geom_bond_atom_site_label_2
_geom_bond_distance
_geom_bond_site_symmetry_2
_ccdc_geom_bond_type
Li0 N17 1.990 . S
Li0 O60 1.956 1_655 S
Li0 O61 1.970 . S
Li0 O62 1.961 1_655 S
Li1 N25 1.990 . S
Li1 O60 1.970 . S
Li1 O61 1.956 1_455 S
Li1 O63 1.961 . S
Li2 N47 1.990 . S
Li2 O60 1.961 . S
Li2 O62 1.956 . S
Li2 O63 1.970 . S
Li3 N53 1.990 . S
Li3 O61 1.961 1_455 S
Li3 O62 1.970 . S
Li3 O63 1.956 . S
C4 C6 1.348 . S
C4 C7 1.356 . S
C4 O60 1.325 . S
N5 C8 1.314 . S
N5 C9 1.279 . S
C6 C4 1.348 . S
C6 C8 1.353 . S
C6 H64 0.929 . S
C7 C4 1.356 . S
C7 C9 1.358 . S
C7 H65 0.930 . S
C8 N5 1.314 . S
C8 C6 1.353 . S
C8 H66 0.930 . S
C9 N5 1.279 . S
C9 C7 1.358 . S
C9 H67 0.930 . S
C10 C13 1.348 . S
C10 C14 1.356 . S
C10 O61 1.325 . S
C11 N12 1.279 . S
C11 C14 1.358 . S
C11 H68 0.930 . S
N12 C11 1.279 . S
N12 C15 1.314 . S
C13 C10 1.348 . S
C13 C15 1.353 . S
C13 H69 0.929 . S
C14 C10 1.356 . S
C14 C11 1.358 . S
C14 H70 0.930 . S
C15 N12 1.314 . S
C15 C13 1.353 . S
C15 H71 0.930 . S
C16 N17 1.314 . S
C16 C21 1.353 . S
C16 H22 0.930 . S
N17 Li0 1.990 . S
N17 C16 1.314 . S
N17 C19 1.279 . S
C18 C19 1.358 . S
C18 C20 1.356 . S
C18 H72 0.930 . S
C19 N17 1.279 . S
C19 C18 1.358 . S
C19 H23 0.930 . S
C20 C18 1.356 . S
C20 C21 1.348 . S
C21 C16 1.353 . S
C21 C20 1.348 . S
C21 H73 0.929 . S
H22 C16 0.930 . S
H23 C19 0.930 . S
C24 N25 1.314 . S
C24 C26 1.353 . S
C24 H30 0.930 . S
N25 Li1 1.990 . S
N25 C24 1.314 . S
N25 C28 1.279 . S
C26 C24 1.353 . S
C26 C29 1.348 . S
C26 H74 0.929 . S
C27 C28 1.358 . S
C27 C29 1.356 . S
C27 H75 0.930 1_455 S
C28 N25 1.279 . S
C28 C27 1.358 . S
C28 H31 0.930 1_455 S
C29 C26 1.348 . S
C29 C27 1.356 . S
H30 C24 0.930 . S
H31 C28 0.930 1_655 S
C32 C34 1.362 . S
C32 C35 1.352 1_455 S
C32 O62 1.319 . S
N33 C36 1.314 1_655 S
N33 C37 1.279 . S
C34 C32 1.362 . S
C34 C36 1.353 . S
C34 H76 0.929 . S
C35 C32 1.352 1_655 S
C35 C37 1.358 . S
C35 H77 0.930 . S
C36 N33 1.314 1_455 S
C36 C34 1.353 . S
C36 H78 0.930 . S
C37 N33 1.279 . S
C37 C35 1.358 . S
C37 H79 0.930 . S
C38 C39 1.348 . S
C38 C40 1.356 . S
C38 O63 1.325 . S
C39 C38 1.348 . S
C39 C41 1.353 . S
C39 H80 0.929 . S
C40 C38 1.356 . S
C40 C42 1.358 . S
C40 H81 0.930 . S
C41 C39 1.353 . S
C41 N43 1.314 . S
C41 H82 0.930 . S
C42 C40 1.358 . S
C42 N43 1.279 . S
C42 H83 0.930 . S
N43 C41 1.314 . S
N43 C42 1.279 . S
C44 C46 1.353 . S
C44 N47 1.314 . S
C44 H50 0.930 . S
C45 N47 1.279 . S
C45 C48 1.358 . S
C45 H51 0.930 . S
C46 C44 1.353 . S
C46 C49 1.348 . S
C46 H84 0.929 . S
N47 Li2 1.990 . S
N47 C44 1.314 . S
N47 C45 1.279 . S
C48 C45 1.358 . S
C48 C49 1.356 . S
C48 H85 0.930 . S
C49 C46 1.348 . S
C49 C48 1.356 . S
H50 C44 0.930 . S
H51 C45 0.930 . S
C52 N53 1.314 1_655 S
C52 C54 1.353 . S
C52 H58 0.930 . S
N53 Li3 1.990 . S
N53 C52 1.314 1_455 S
N53 C56 1.279 . S
C54 C52 1.353 . S
C54 C57 1.348 1_655 S
C54 H86 0.929 . S
C55 C56 1.358 . S
C55 C57 1.356 . S
C55 H87 0.930 . S
C56 N53 1.279 . S
C56 C55 1.358 . S
C56 H59 0.930 . S
C57 C54 1.348 1_455 S
C57 C55 1.356 . S
H58 C52 0.930 . S
H59 C56 0.930 . S
O60 Li0 1.956 1_455 S
O60 Li1 1.970 . S
O60 Li2 1.961 . S
O60 C4 1.325 . S
O61 Li0 1.970 . S
O61 Li1 1.956 1_655 S
O61 Li3 1.961 1_655 S
O61 C10 1.325 . S
O62 Li0 1.961 1_455 S
O62 Li2 1.956 . S
O62 Li3 1.970 . S
O62 C32 1.319 . S
O63 Li1 1.961 . S
O63 Li2 1.970 . S
O63 Li3 1.956 . S
O63 C38 1.325 . S
H64 C6 0.929 . S
H65 C7 0.930 . S
H66 C8 0.930 . S
H67 C9 0.930 . S
H68 C11 0.930 . S
H69 C13 0.929 . S
H70 C14 0.930 . S
H71 C15 0.930 . S
H72 C18 0.930 . S
H73 C21 0.929 . S
H74 C26 0.929 . S
H75 C27 0.930 1_655 S
H76 C34 0.929 . S
H77 C35 0.930 . S
H78 C36 0.930 . S
H79 C37 0.930 . S
H80 C39 0.929 . S
H81 C40 0.930 . S
H82 C41 0.930 . S
H83 C42 0.930 . S
H84 C46 0.929 . S
H85 C48 0.930 . S
H86 C54 0.929 . S
H87 C55 0.930 . S
Li88 N105 1.990 . S
Li88 O148 1.956 . S
Li88 O149 1.970 . S
Li88 O150 1.961 . S
Li89 N113 1.990 . S
Li89 O148 1.970 . S
Li89 O149 1.956 . S
Li89 O151 1.961 . S
Li90 N135 1.990 . S
Li90 O148 1.961 . S
Li90 O150 1.956 . S
Li90 O151 1.970 . S
Li91 N141 1.990 . S
Li91 O149 1.961 . S
Li91 O150 1.970 . S
Li91 O151 1.956 . S
C92 C94 1.348 . S
C92 C95 1.356 . S
C92 O148 1.325 . S
N93 C96 1.314 . S
N93 C97 1.279 . S
C94 C92 1.348 . S
C94 C96 1.353 . S
C94 H152 0.929 . S
C95 C92 1.356 . S
C95 C97 1.358 . S
C95 H153 0.930 . S
C96 N93 1.314 . S
C96 C94 1.353 . S
C96 H154 0.930 . S
C97 N93 1.279 . S
C97 C95 1.358 . S
C97 H155 0.930 . S
C98 C101 1.348 . S
C98 C102 1.356 . S
C98 O149 1.325 . S
C99 N100 1.279 . S
C99 C102 1.358 . S
C99 H156 0.930 . S
N100 C99 1.279 . S
N100 C103 1.314 . S
C101 C98 1.348 . S
C101 C103 1.353 . S
C101 H157 0.929 . S
C102 C98 1.356 . S
C102 C99 1.358 . S
C102 H158 0.930 . S
C103 N100 1.314 . S
C103 C101 1.353 . S
C103 H159 0.930 . S
C104 N105 1.314 . S
C104 C109 1.353 . S
C104 H110 0.930 . S
N105 Li88 1.990 . S
N105 C104 1.314 . S
N105 C107 1.279 . S
C106 C107 1.358 . S
C106 C108 1.356 . S
C106 H160 0.930 . S
C107 N105 1.279 . S
C107 C106 1.358 . S
C107 H111 0.930 . S
C108 C106 1.356 . S
C108 C109 1.348 . S
C109 C104 1.353 . S
C109 C108 1.348 . S
C109 H161 0.929 . S
H110 C104 0.930 . S
H111 C107 0.930 . S
C112 N113 1.314 . S
C112 C114 1.353 . S
C112 H118 0.930 . S
N113 Li89 1.990 . S
N113 C112 1.314 . S
N113 C116 1.279 . S
C114 C112 1.353 . S
C114 C117 1.348 . S
C114 H162 0.929 . S
C115 C116 1.358 . S
C115 C117 1.356 . S
C115 H163 0.930 . S
C116 N113 1.279 . S
C116 C115 1.358 . S
C116 H119 0.930 . S
C117 C114 1.348 . S
C117 C115 1.356 . S
H118 C112 0.930 . S
H119 C116 0.930 . S
C120 C122 1.348 . S
C120 C123 1.356 . S
C120 O150 1.325 . S
N121 C124 1.314 1_655 S
N121 C125 1.279 1_655 S
C122 C120 1.348 . S
C122 C124 1.350 . S
C122 H164 0.929 . S
C123 C120 1.356 . S
C123 C125 1.358 . S
C123 H165 0.930 . S
C124 N121 1.314 1_455 S
C124 C122 1.350 . S
C124 H166 0.934 1_455 S
C125 N121 1.279 1_455 S
C125 C123 1.358 . S
C125 H167 0.930 . S
C126 C127 1.348 . S
C126 C128 1.356 . S
C126 O151 1.325 . S
C127 C126 1.348 . S
C127 C129 1.353 . S
C127 H168 0.929 . S
C128 C126 1.356 . S
C128 C130 1.358 . S
C128 H169 0.930 . S
C129 C127 1.353 . S
C129 N131 1.314 . S
C129 H170 0.930 . S
C130 C128 1.358 . S
C130 N131 1.279 . S
C130 H171 0.930 . S
N131 C129 1.314 . S
N131 C130 1.279 . S
C132 C134 1.353 . S
C132 N135 1.314 . S
C132 H138 0.930 . S
C133 N135 1.279 . S
C133 C136 1.358 . S
C133 H139 0.930 . S
C134 C132 1.353 . S
C134 C137 1.348 . S
C134 H172 0.929 . S
N135 Li90 1.990 . S
N135 C132 1.314 . S
N135 C133 1.279 . S
C136 C133 1.358 . S
C136 C137 1.356 . S
C136 H173 0.930 . S
C137 C134 1.348 . S
C137 C136 1.356 . S
H138 C132 0.930 . S
H139 C133 0.930 . S
C140 N141 1.314 . S
C140 C142 1.353 . S
C140 H146 0.930 . S
N141 Li91 1.990 . S
N141 C140 1.314 . S
N141 C144 1.279 . S
C142 C140 1.353 . S
C142 C145 1.348 . S
C142 H174 0.929 . S
C143 C144 1.358 . S
C143 C145 1.356 . S
C143 H175 0.930 . S
C144 N141 1.279 . S
C144 C143 1.358 . S
C144 H147 0.930 . S
C145 C142 1.348 . S
C145 C143 1.356 . S
H146 C140 0.930 . S
H147 C144 0.930 . S
O148 Li88 1.956 . S
O148 Li89 1.970 . S
O148 Li90 1.961 . S
O148 C92 1.325 . S
O149 Li88 1.970 . S
O149 Li89 1.956 . S
O149 Li91 1.961 . S
O149 C98 1.325 . S
O150 Li88 1.961 . S
O150 Li90 1.956 . S
O150 Li91 1.970 . S
O150 C120 1.325 . S
O151 Li89 1.961 . S
O151 Li90 1.970 . S
O151 Li91 1.956 . S
O151 C126 1.325 . S
H152 C94 0.929 . S
H153 C95 0.930 . S
H154 C96 0.930 . S
H155 C97 0.930 . S
H156 C99 0.930 . S
H157 C101 0.929 . S
H158 C102 0.930 . S
H159 C103 0.930 . S
H160 C106 0.930 . S
H161 C109 0.929 . S
H162 C114 0.929 . S
H163 C115 0.930 . S
H164 C122 0.929 . S
H165 C123 0.930 . S
H166 C124 0.934 1_655 S
H167 C125 0.930 . S
H168 C127 0.929 . S
H169 C128 0.930 . S
H170 C129 0.930 . S
H171 C130 0.930 . S
H172 C134 0.929 . S
H173 C136 0.930 . S
H174 C142 0.929 . S
H175 C143 0.930 . S
Li176 N193 1.990 . S
Li176 O236 1.956 . S
Li176 O237 1.970 . S
Li176 O238 1.961 . S
Li177 N201 1.990 . S
Li177 O236 1.970 . S
Li177 O237 1.956 . S
Li177 O239 1.961 . S
Li178 N223 1.990 . S
Li178 O236 1.961 . S
Li178 O238 1.956 . S
Li178 O239 1.970 . S
Li179 N229 1.990 . S
Li179 O237 1.961 . S
Li179 O238 1.970 . S
Li179 O239 1.956 . S
C180 C182 1.348 . S
C180 C183 1.356 . S
C180 O236 1.325 . S
N181 C184 1.314 . S
N181 C185 1.279 . S
C182 C180 1.348 . S
C182 C184 1.353 . S
C182 H240 0.929 . S
C183 C180 1.356 . S
C183 C185 1.358 . S
C183 H241 0.930 . S
C184 N181 1.314 . S
C184 C182 1.353 . S
C184 H242 0.930 . S
C185 N181 1.279 . S
C185 C183 1.358 . S
C185 H243 0.930 . S
C186 C189 1.348 . S
C186 C190 1.356 . S
C186 O237 1.325 . S
C187 N188 1.279 . S
C187 C190 1.358 . S
C187 H244 0.930 . S
N188 C187 1.279 . S
N188 C191 1.314 . S
C189 C186 1.348 . S
C189 C191 1.353 . S
C189 H245 0.929 . S
C190 C186 1.356 . S
C190 C187 1.358 . S
C190 H246 0.930 . S
C191 N188 1.314 . S
C191 C189 1.353 . S
C191 H247 0.930 . S
C192 N193 1.314 . S
C192 C197 1.353 . S
C192 H198 0.930 . S
N193 Li176 1.990 . S
N193 C192 1.314 . S
N193 C195 1.279 . S
C194 C195 1.358 . S
C194 C196 1.356 . S
C194 H248 0.930 . S
C195 N193 1.279 . S
C195 C194 1.358 . S
C195 H199 0.930 . S
C196 C194 1.356 . S
C196 C197 1.348 . S
C197 C192 1.353 . S
C197 C196 1.348 . S
C197 H249 0.929 . S
H198 C192 0.930 . S
H199 C195 0.930 . S
C200 N201 1.314 . S
C200 C202 1.353 . S
C200 H206 0.930 . S
N201 Li177 1.990 . S
N201 C200 1.314 . S
N201 C204 1.279 . S
C202 C200 1.353 . S
C202 C205 1.348 . S
C202 H250 0.929 . S
C203 C204 1.358 . S
C203 C205 1.356 . S
C203 H251 0.930 . S
C204 N201 1.279 . S
C204 C203 1.358 . S
C204 H207 0.930 . S
C205 C202 1.348 . S
C205 C203 1.356 . S
H206 C200 0.930 . S
H207 C204 0.930 . S
C208 C210 1.348 . S
C208 C211 1.356 . S
C208 O238 1.325 . S
N209 C212 1.314 . S
N209 C213 1.279 . S
C210 C208 1.348 . S
C210 C212 1.353 . S
C210 H252 0.929 . S
C211 C208 1.356 . S
C211 C213 1.358 . S
C211 H253 0.930 . S
C212 N209 1.314 . S
C212 C210 1.353 . S
C212 H254 0.930 . S
C213 N209 1.279 . S
C213 C211 1.358 . S
C213 H255 0.930 . S
C214 C215 1.348 . S
C214 C216 1.356 . S
C214 O239 1.325 . S
C215 C214 1.348 . S
C215 C217 1.353 . S
C215 H256 0.929 . S
C216 C214 1.356 . S
C216 C218 1.358 . S
C216 H257 0.930 . S
C217 C215 1.353 . S
C217 N219 1.314 . S
C217 H258 0.930 . S
C218 C216 1.358 . S
C218 N219 1.279 . S
C218 H259 0.930 . S
N219 C217 1.314 . S
N219 C218 1.279 . S
C220 C222 1.353 . S
C220 N223 1.314 . S
C220 H226 0.930 . S
C221 N223 1.279 . S
C221 C224 1.358 . S
C221 H227 0.930 . S
C222 C220 1.353 . S
C222 C225 1.348 . S
C222 H260 0.929 . S
N223 Li178 1.990 . S
N223 C220 1.314 . S
N223 C221 1.279 . S
C224 C221 1.358 . S
C224 C225 1.356 . S
C224 H261 0.930 . S
C225 C222 1.348 . S
C225 C224 1.356 . S
H226 C220 0.930 . S
H227 C221 0.930 . S
C228 N229 1.314 . S
C228 C230 1.353 . S
C228 H234 0.930 . S
N229 Li179 1.990 . S
N229 C228 1.314 . S
N229 C232 1.279 . S
C230 C228 1.353 . S
C230 C233 1.348 . S
C230 H262 0.929 . S
C231 C232 1.358 . S
C231 C233 1.356 . S
C231 H263 0.930 . S
C232 N229 1.279 . S
C232 C231 1.358 . S
C232 H235 0.930 . S
C233 C230 1.348 . S
C233 C231 1.356 . S
H234 C228 0.930 . S
H235 C232 0.930 . S
O236 Li176 1.956 . S
O236 Li177 1.970 . S
O236 Li178 1.961 . S
O236 C180 1.325 . S
O237 Li176 1.970 . S
O237 Li177 1.956 . S
O237 Li179 1.961 . S
O237 C186 1.325 . S
O238 Li176 1.961 . S
O238 Li178 1.956 . S
O238 Li179 1.970 . S
O238 C208 1.325 . S
O239 Li177 1.961 . S
O239 Li178 1.970 . S
O239 Li179 1.956 . S
O239 C214 1.325 . S
H240 C182 0.929 . S
H241 C183 0.930 . S
H242 C184 0.930 . S
H243 C185 0.930 . S
H244 C187 0.930 . S
H245 C189 0.929 . S
H246 C190 0.930 . S
H247 C191 0.930 . S
H248 C194 0.930 . S
H249 C197 0.929 . S
H250 C202 0.929 . S
H251 C203 0.930 . S
H252 C210 0.929 . S
H253 C211 0.930 . S
H254 C212 0.930 . S
H255 C213 0.930 . S
H256 C215 0.929 . S
H257 C216 0.930 . S
H258 C217 0.930 . S
H259 C218 0.930 . S
H260 C222 0.929 . S
H261 C224 0.930 . S
H262 C230 0.929 . S
H263 C231 0.930 . S
Li264 N281 1.990 . S
Li264 O324 1.956 . S
Li264 O325 1.970 . S
Li264 O326 1.961 . S
Li265 N289 1.990 . S
Li265 O324 1.970 . S
Li265 O325 1.956 . S
Li265 O327 1.961 . S
Li266 N311 1.990 . S
Li266 O324 1.961 . S
Li266 O326 1.956 . S
Li266 O327 1.970 . S
Li267 N317 1.990 . S
Li267 O325 1.961 . S
Li267 O326 1.970 . S
Li267 O327 1.956 . S
C268 C270 1.348 . S
C268 C271 1.356 . S
C268 O324 1.325 . S
N269 C272 1.314 . S
N269 C273 1.279 . S
C270 C268 1.348 . S
C270 C272 1.353 . S
C270 H328 0.929 . S
C271 C268 1.356 . S
C271 C273 1.358 . S
C271 H329 0.930 . S
C272 N269 1.314 . S
C272 C270 1.353 . S
C272 H330 0.930 . S
C273 N269 1.279 . S
C273 C271 1.358 . S
C273 H331 0.930 . S
C274 C277 1.348 . S
C274 C278 1.356 . S
C274 O325 1.325 . S
C275 N276 1.279 . S
C275 C278 1.358 . S
C275 H332 0.930 . S
N276 C275 1.279 . S
N276 C279 1.314 . S
C277 C274 1.348 . S
C277 C279 1.353 . S
C277 H333 0.929 . S
C278 C274 1.356 . S
C278 C275 1.358 . S
C278 H334 0.930 . S
C279 N276 1.314 . S
C279 C277 1.353 . S
C279 H335 0.930 . S
C280 N281 1.314 . S
C280 C285 1.353 . S
C280 H286 0.930 . S
N281 Li264 1.990 . S
N281 C280 1.314 . S
N281 C283 1.279 . S
C282 C283 1.358 . S
C282 C284 1.356 . S
C282 H336 0.930 . S
C283 N281 1.279 . S
C283 C282 1.358 . S
C283 H287 0.930 . S
C284 C282 1.356 . S
C284 C285 1.348 . S
C285 C280 1.353 . S
C285 C284 1.348 . S
C285 H337 0.929 . S
H286 C280 0.930 . S
H287 C283 0.930 . S
C288 N289 1.314 . S
C288 C290 1.353 . S
C288 H294 0.930 . S
N289 Li265 1.990 . S
N289 C288 1.314 . S
N289 C292 1.279 . S
C290 C288 1.353 . S
C290 C293 1.348 . S
C290 H338 0.929 . S
C291 C292 1.358 . S
C291 C293 1.356 . S
C291 H339 0.930 . S
C292 N289 1.279 . S
C292 C291 1.358 . S
C292 H295 0.930 . S
C293 C290 1.348 . S
C293 C291 1.356 . S
H294 C288 0.930 . S
H295 C292 0.930 . S
C296 C298 1.348 . S
C296 C299 1.356 . S
C296 O326 1.325 . S
N297 C300 1.314 . S
N297 C301 1.279 . S
C298 C296 1.348 . S
C298 C300 1.353 . S
C298 H340 0.929 . S
C299 C296 1.356 . S
C299 C301 1.358 . S
C299 H341 0.930 . S
C300 N297 1.314 . S
C300 C298 1.353 . S
C300 H342 0.930 . S
C301 N297 1.279 . S
C301 C299 1.358 . S
C301 H343 0.930 . S
C302 C303 1.348 . S
C302 C304 1.356 . S
C302 O327 1.325 . S
C303 C302 1.348 . S
C303 C305 1.353 . S
C303 H344 0.929 . S
C304 C302 1.356 . S
C304 C306 1.358 . S
C304 H345 0.930 . S
C305 C303 1.353 . S
C305 N307 1.314 . S
C305 H346 0.930 . S
C306 C304 1.358 . S
C306 N307 1.279 . S
C306 H347 0.930 . S
N307 C305 1.314 . S
N307 C306 1.279 . S
C308 C310 1.353 . S
C308 N311 1.314 . S
C308 H314 0.930 . S
C309 N311 1.279 . S
C309 C312 1.358 . S
C309 H315 0.930 . S
C310 C308 1.353 . S
C310 C313 1.348 . S
C310 H348 0.929 . S
N311 Li266 1.990 . S
N311 C308 1.314 . S
N311 C309 1.279 . S
C312 C309 1.358 . S
C312 C313 1.356 . S
C312 H349 0.930 . S
C313 C310 1.348 . S
C313 C312 1.356 . S
H314 C308 0.930 . S
H315 C309 0.930 . S
C316 N317 1.314 . S
C316 C318 1.353 . S
C316 H322 0.930 . S
N317 Li267 1.990 . S
N317 C316 1.314 . S
N317 C320 1.279 . S
C318 C316 1.353 . S
C318 C321 1.348 . S
C318 H350 0.929 . S
C319 C320 1.358 . S
C319 C321 1.356 . S
C319 H351 0.930 . S
C320 N317 1.279 . S
C320 C319 1.358 . S
C320 H323 0.930 . S
C321 C318 1.348 . S
C321 C319 1.356 . S
H322 C316 0.930 . S
H323 C320 0.930 . S
O324 Li264 1.956 . S
O324 Li265 1.970 . S
O324 Li266 1.961 . S
O324 C268 1.325 . S
O325 Li264 1.970 . S
O325 Li265 1.956 . S
O325 Li267 1.961 . S
O325 C274 1.325 . S
O326 Li264 1.961 . S
O326 Li266 1.956 . S
O326 Li267 1.970 . S
O326 C296 1.325 . S
O327 Li265 1.961 . S
O327 Li266 1.970 . S
O327 Li267 1.956 . S
O327 C302 1.325 . S
H328 C270 0.929 . S
H329 C271 0.930 . S
H330 C272 0.930 . S
H331 C273 0.930 . S
H332 C275 0.930 . S
H333 C277 0.929 . S
H334 C278 0.930 . S
H335 C279 0.930 . S
H336 C282 0.930 . S
H337 C285 0.929 . S
H338 C290 0.929 . S
H339 C291 0.930 . S
H340 C298 0.929 . S
H341 C299 0.930 . S
H342 C300 0.930 . S
H343 C301 0.930 . S
H344 C303 0.929 . S
H345 C304 0.930 . S
H346 C305 0.930 . S
H347 C306 0.930 . S
H348 C310 0.929 . S
H349 C312 0.930 . S
H350 C318 0.929 . S
H351 C319 0.930 . S
Li352 N369 1.990 . S
Li352 O412 1.956 . S
Li352 O413 1.970 . S
Li352 O414 1.961 . S
Li353 N377 1.990 . S
Li353 O412 1.970 . S
Li353 O413 1.956 . S
Li353 O415 1.961 . S
Li354 N399 1.990 . S
Li354 O412 1.961 . S
Li354 O414 1.956 . S
Li354 O415 1.970 . S
Li355 N405 1.990 . S
Li355 O413 1.961 . S
Li355 O414 1.970 . S
Li355 O415 1.956 . S
C356 C358 1.348 . S
C356 C359 1.356 . S
C356 O412 1.325 . S
N357 C360 1.314 . S
N357 C361 1.279 . S
C358 C356 1.348 . S
C358 C360 1.353 . S
C358 H416 0.929 . S
C359 C356 1.356 . S
C359 C361 1.358 . S
C359 H417 0.930 . S
C360 N357 1.314 . S
C360 C358 1.353 . S
C360 H418 0.930 . S
C361 N357 1.279 . S
C361 C359 1.358 . S
C361 H419 0.930 . S
C362 C365 1.348 . S
C362 C366 1.356 . S
C362 O413 1.325 . S
C363 N364 1.279 . S
C363 C366 1.358 . S
C363 H420 0.930 . S
N364 C363 1.279 . S
N364 C367 1.314 . S
C365 C362 1.348 . S
C365 C367 1.353 . S
C365 H421 0.929 . S
C366 C362 1.356 . S
C366 C363 1.358 . S
C366 H422 0.930 . S
C367 N364 1.314 . S
C367 C365 1.353 . S
C367 H423 0.930 . S
C368 N369 1.314 . S
C368 C373 1.353 . S
C368 H374 0.930 . S
N369 Li352 1.990 . S
N369 C368 1.314 . S
N369 C371 1.279 . S
C370 C371 1.358 . S
C370 C372 1.356 . S
C370 H424 0.930 . S
C371 N369 1.279 . S
C371 C370 1.358 . S
C371 H375 0.930 . S
C372 C370 1.356 . S
C372 C373 1.348 . S
C373 C368 1.353 . S
C373 C372 1.348 . S
C373 H425 0.929 . S
H374 C368 0.930 . S
H375 C371 0.930 . S
C376 N377 1.314 . S
C376 C378 1.353 . S
C376 H382 0.930 . S
N377 Li353 1.990 . S
N377 C376 1.314 . S
N377 C380 1.279 . S
C378 C376 1.353 . S
C378 C381 1.348 . S
C378 H426 0.929 . S
C379 C380 1.358 . S
C379 C381 1.356 . S
C379 H427 0.930 . S
C380 N377 1.279 . S
C380 C379 1.358 . S
C380 H383 0.930 . S
C381 C378 1.348 . S
C381 C379 1.356 . S
H382 C376 0.930 . S
H383 C380 0.930 . S
C384 C386 1.348 . S
C384 C387 1.356 . S
C384 O414 1.325 . S
N385 C388 1.314 . S
N385 C389 1.279 1_655 S
C386 C384 1.348 . S
C386 C388 1.353 1_455 S
C386 H428 0.929 . S
C387 C384 1.356 . S
C387 C389 1.358 . S
C387 H429 0.930 . S
C388 N385 1.314 . S
C388 C386 1.353 1_655 S
C388 H430 0.930 . S
C389 N385 1.279 1_455 S
C389 C387 1.358 . S
C389 H431 0.930 . S
C390 C391 1.348 . S
C390 C392 1.356 . S
C390 O415 1.325 . S
C391 C390 1.348 . S
C391 C393 1.353 . S
C391 H432 0.929 . S
C392 C390 1.356 . S
C392 C394 1.358 . S
C392 H433 0.930 . S
C393 C391 1.353 . S
C393 N395 1.314 . S
C393 H434 0.930 . S
C394 C392 1.358 . S
C394 N395 1.279 . S
C394 H435 0.930 . S
N395 C393 1.314 . S
N395 C394 1.279 . S
C396 C398 1.353 . S
C396 N399 1.314 . S
C396 H402 0.930 . S
C397 N399 1.279 . S
C397 C400 1.358 . S
C397 H403 0.930 . S
C398 C396 1.353 . S
C398 C401 1.348 . S
C398 H436 0.929 . S
N399 Li354 1.990 . S
N399 C396 1.314 . S
N399 C397 1.279 . S
C400 C397 1.358 . S
C400 C401 1.356 . S
C400 H437 0.930 . S
C401 C398 1.348 . S
C401 C400 1.356 . S
H402 C396 0.930 . S
H403 C397 0.930 . S
C404 N405 1.314 . S
C404 C406 1.353 . S
C404 H410 0.930 . S
N405 Li355 1.990 . S
N405 C404 1.314 . S
N405 C408 1.279 . S
C406 C404 1.353 . S
C406 C409 1.348 1_455 S
C406 H438 0.929 1_455 S
C407 C408 1.358 . S
C407 C409 1.356 1_455 S
C407 H439 0.932 . S
C408 N405 1.279 . S
C408 C407 1.358 . S
C408 H411 0.930 . S
C409 C406 1.348 1_655 S
C409 C407 1.356 1_655 S
H410 C404 0.930 . S
H411 C408 0.930 . S
O412 Li352 1.956 . S
O412 Li353 1.970 . S
O412 Li354 1.961 . S
O412 C356 1.325 . S
O413 Li352 1.970 . S
O413 Li353 1.956 . S
O413 Li355 1.961 . S
O413 C362 1.325 . S
O414 Li352 1.961 . S
O414 Li354 1.956 . S
O414 Li355 1.970 . S
O414 C384 1.325 . S
O415 Li353 1.961 . S
O415 Li354 1.970 . S
O415 Li355 1.956 . S
O415 C390 1.325 . S
H416 C358 0.929 . S
H417 C359 0.930 . S
H418 C360 0.930 . S
H419 C361 0.930 . S
H420 C363 0.930 . S
H421 C365 0.929 . S
H422 C366 0.930 . S
H423 C367 0.930 . S
H424 C370 0.930 . S
H425 C373 0.929 . S
H426 C378 0.929 . S
H427 C379 0.930 . S
H428 C386 0.929 . S
H429 C387 0.930 . S
H430 C388 0.930 . S
H431 C389 0.930 . S
H432 C391 0.929 . S
H433 C392 0.930 . S
H434 C393 0.930 . S
H435 C394 0.930 . S
H436 C398 0.929 . S
H437 C400 0.930 . S
H438 C406 0.929 1_655 S
H439 C407 0.932 . S
Li440 N457 1.990 . S
Li440 O500 1.956 . S
Li440 O501 1.970 . S
Li440 O502 1.961 . S
Li441 N465 1.990 . S
Li441 O500 1.970 . S
Li441 O501 1.956 . S
Li441 O503 1.961 . S
Li442 N487 1.990 . S
Li442 O500 1.961 . S
Li442 O502 1.956 . S
Li442 O503 1.970 . S
Li443 N493 1.990 . S
Li443 O501 1.961 . S
Li443 O502 1.970 . S
Li443 O503 1.956 . S
C444 C446 1.348 . S
C444 C447 1.356 . S
C444 O500 1.325 . S
N445 C448 1.314 . S
N445 C449 1.279 . S
C446 C444 1.348 . S
C446 C448 1.353 . S
C446 H504 0.929 . S
C447 C444 1.356 . S
C447 C449 1.358 . S
C447 H505 0.930 . S
C448 N445 1.314 . S
C448 C446 1.353 . S
C448 H506 0.930 . S
C449 N445 1.279 . S
C449 C447 1.358 . S
C449 H507 0.930 . S
C450 C453 1.348 . S
C450 C454 1.356 . S
C450 O501 1.325 . S
C451 N452 1.279 . S
C451 C454 1.358 . S
C451 H508 0.930 . S
N452 C451 1.279 . S
N452 C455 1.314 . S
C453 C450 1.348 . S
C453 C455 1.353 . S
C453 H509 0.929 . S
C454 C450 1.356 . S
C454 C451 1.358 . S
C454 H510 0.930 . S
C455 N452 1.314 . S
C455 C453 1.353 . S
C455 H511 0.930 . S
C456 N457 1.314 . S
C456 C461 1.353 . S
C456 H462 0.930 . S
N457 Li440 1.990 . S
N457 C456 1.314 . S
N457 C459 1.279 . S
C458 C459 1.358 . S
C458 C460 1.356 . S
C458 H512 0.930 . S
C459 N457 1.279 . S
C459 C458 1.358 . S
C459 H463 0.930 . S
C460 C458 1.356 . S
C460 C461 1.348 . S
C461 C456 1.353 . S
C461 C460 1.348 . S
C461 H513 0.929 . S
H462 C456 0.930 . S
H463 C459 0.930 . S
C464 N465 1.314 . S
C464 C466 1.353 . S
C464 H470 0.930 . S
N465 Li441 1.990 . S
N465 C464 1.314 . S
N465 C468 1.279 . S
C466 C464 1.353 . S
C466 C469 1.348 . S
C466 H514 0.929 . S
C467 C468 1.358 . S
C467 C469 1.356 . S
C467 H515 0.930 . S
C468 N465 1.279 . S
C468 C467 1.358 . S
C468 H471 0.930 . S
C469 C466 1.348 . S
C469 C467 1.356 . S
H470 C464 0.930 . S
H471 C468 0.930 . S
C472 C474 1.348 . S
C472 C475 1.356 . S
C472 O502 1.325 . S
N473 C476 1.314 . S
N473 C477 1.279 . S
C474 C472 1.348 . S
C474 C476 1.353 . S
C474 H516 0.929 . S
C475 C472 1.356 . S
C475 C477 1.358 . S
C475 H517 0.930 . S
C476 N473 1.314 . S
C476 C474 1.353 . S
C476 H518 0.930 . S
C477 N473 1.279 . S
C477 C475 1.358 . S
C477 H519 0.930 . S
C478 C479 1.348 . S
C478 C480 1.356 . S
C478 O503 1.325 . S
C479 C478 1.348 . S
C479 C481 1.353 . S
C479 H520 0.929 . S
C480 C478 1.356 . S
C480 C482 1.358 . S
C480 H521 0.930 . S
C481 C479 1.353 . S
C481 N483 1.314 . S
C481 H522 0.930 . S
C482 C480 1.358 . S
C482 N483 1.279 . S
C482 H523 0.930 . S
N483 C481 1.314 . S
N483 C482 1.279 . S
C484 C486 1.353 . S
C484 N487 1.314 . S
C484 H490 0.930 . S
C485 N487 1.279 . S
C485 C488 1.358 . S
C485 H491 0.930 . S
C486 C484 1.353 . S
C486 C489 1.348 . S
C486 H524 0.929 . S
N487 Li442 1.990 . S
N487 C484 1.314 . S
N487 C485 1.279 . S
C488 C485 1.358 . S
C488 C489 1.356 . S
C488 H525 0.930 . S
C489 C486 1.348 . S
C489 C488 1.356 . S
H490 C484 0.930 . S
H491 C485 0.930 . S
C492 N493 1.314 . S
C492 C494 1.353 . S
C492 H498 0.930 . S
N493 Li443 1.990 . S
N493 C492 1.314 . S
N493 C496 1.279 . S
C494 C492 1.353 . S
C494 C497 1.348 . S
C494 H526 0.929 . S
C495 C496 1.358 . S
C495 C497 1.356 . S
C495 H527 0.930 . S
C496 N493 1.279 . S
C496 C495 1.358 . S
C496 H499 0.930 . S
C497 C494 1.348 . S
C497 C495 1.356 . S
H498 C492 0.930 . S
H499 C496 0.930 . S
O500 Li440 1.956 . S
O500 Li441 1.970 . S
O500 Li442 1.961 . S
O500 C444 1.325 . S
O501 Li440 1.970 . S
O501 Li441 1.956 . S
O501 Li443 1.961 . S
O501 C450 1.325 . S
O502 Li440 1.961 . S
O502 Li442 1.956 . S
O502 Li443 1.970 . S
O502 C472 1.325 . S
O503 Li441 1.961 . S
O503 Li442 1.970 . S
O503 Li443 1.956 . S
O503 C478 1.325 . S
H504 C446 0.929 . S
H505 C447 0.930 . S
H506 C448 0.930 . S
H507 C449 0.930 . S
H508 C451 0.930 . S
H509 C453 0.929 . S
H510 C454 0.930 . S
H511 C455 0.930 . S
H512 C458 0.930 . S
H513 C461 0.929 . S
H514 C466 0.929 . S
H515 C467 0.930 . S
H516 C474 0.929 . S
H517 C475 0.930 . S
H518 C476 0.930 . S
H519 C477 0.930 . S
H520 C479 0.929 . S
H521 C480 0.930 . S
H522 C481 0.930 . S
H523 C482 0.930 . S
H524 C486 0.929 . S
H525 C488 0.930 . S
H526 C494 0.929 . S
H527 C495 0.930 . S
Li528 N545 1.990 . S
Li528 O588 1.956 . S
Li528 O589 1.970 . S
Li528 O590 1.961 . S
Li529 N553 1.990 . S
Li529 O588 1.970 . S
Li529 O589 1.956 . S
Li529 O591 1.961 . S
Li530 N575 1.990 . S
Li530 O588 1.961 . S
Li530 O590 1.956 . S
Li530 O591 1.970 . S
Li531 N581 1.990 . S
Li531 O589 1.961 . S
Li531 O590 1.970 . S
Li531 O591 1.956 . S
C532 C534 1.348 . S
C532 C535 1.356 . S
C532 O588 1.325 . S
N533 C536 1.314 . S
N533 C537 1.279 . S
C534 C532 1.348 . S
C534 C536 1.353 . S
C534 H592 0.929 . S
C535 C532 1.356 . S
C535 C537 1.358 . S
C535 H593 0.930 . S
C536 N533 1.314 . S
C536 C534 1.353 . S
C536 H594 0.930 . S
C537 N533 1.279 . S
C537 C535 1.358 . S
C537 H595 0.930 . S
C538 C541 1.348 . S
C538 C542 1.356 . S
C538 O589 1.325 . S
C539 N540 1.279 . S
C539 C542 1.358 . S
C539 H596 0.930 . S
N540 C539 1.279 . S
N540 C543 1.314 . S
C541 C538 1.348 . S
C541 C543 1.353 . S
C541 H597 0.929 . S
C542 C538 1.356 . S
C542 C539 1.358 . S
C542 H598 0.930 . S
C543 N540 1.314 . S
C543 C541 1.353 . S
C543 H599 0.930 . S
C544 N545 1.314 . S
C544 C549 1.353 . S
C544 H550 0.930 . S
N545 Li528 1.990 . S
N545 C544 1.314 . S
N545 C547 1.279 . S
C546 C547 1.358 . S
C546 C548 1.356 . S
C546 H600 0.930 . S
C547 N545 1.279 . S
C547 C546 1.358 . S
C547 H551 0.930 . S
C548 C546 1.356 . S
C548 C549 1.348 . S
C549 C544 1.353 . S
C549 C548 1.348 . S
C549 H601 0.929 . S
H550 C544 0.930 . S
H551 C547 0.930 . S
C552 N553 1.314 . S
C552 C554 1.353 . S
C552 H558 0.930 . S
N553 Li529 1.990 . S
N553 C552 1.314 . S
N553 C556 1.279 . S
C554 C552 1.353 . S
C554 C557 1.348 . S
C554 H602 0.929 . S
C555 C556 1.358 . S
C555 C557 1.356 . S
C555 H603 0.930 . S
C556 N553 1.279 . S
C556 C555 1.358 . S
C556 H559 0.930 . S
C557 C554 1.348 . S
C557 C555 1.356 . S
H558 C552 0.930 . S
H559 C556 0.930 . S
C560 C562 1.348 . S
C560 C563 1.356 . S
C560 O590 1.325 . S
N561 C564 1.314 . S
N561 C565 1.279 . S
C562 C560 1.348 . S
C562 C564 1.353 . S
C562 H604 0.929 . S
C563 C560 1.356 . S
C563 C565 1.358 . S
C563 H605 0.930 . S
C564 N561 1.314 . S
C564 C562 1.353 . S
C564 H606 0.930 . S
C565 N561 1.279 . S
C565 C563 1.358 . S
C565 H607 0.930 . S
C566 C567 1.348 . S
C566 C568 1.356 . S
C566 O591 1.325 . S
C567 C566 1.348 . S
C567 C569 1.353 . S
C567 H608 0.929 . S
C568 C566 1.356 . S
C568 C570 1.358 . S
C568 H609 0.930 . S
C569 C567 1.353 . S
C569 N571 1.314 . S
C569 H610 0.930 . S
C570 C568 1.358 . S
C570 N571 1.279 . S
C570 H611 0.930 . S
N571 C569 1.314 . S
N571 C570 1.279 . S
C572 C574 1.353 . S
C572 N575 1.314 . S
C572 H578 0.930 . S
C573 N575 1.279 . S
C573 C576 1.358 . S
C573 H579 0.930 . S
C574 C572 1.353 . S
C574 C577 1.348 . S
C574 H612 0.929 . S
N575 Li530 1.990 . S
N575 C572 1.314 . S
N575 C573 1.279 . S
C576 C573 1.358 . S
C576 C577 1.356 . S
C576 H613 0.930 . S
C577 C574 1.348 . S
C577 C576 1.356 . S
H578 C572 0.930 . S
H579 C573 0.930 . S
C580 N581 1.314 . S
C580 C582 1.353 . S
C580 H586 0.930 . S
N581 Li531 1.990 . S
N581 C580 1.314 . S
N581 C584 1.279 . S
C582 C580 1.353 . S
C582 C585 1.348 . S
C582 H614 0.929 . S
C583 C584 1.358 . S
C583 C585 1.356 . S
C583 H615 0.930 . S
C584 N581 1.279 . S
C584 C583 1.358 . S
C584 H587 0.930 . S
C585 C582 1.348 . S
C585 C583 1.356 . S
H586 C580 0.930 . S
H587 C584 0.930 . S
O588 Li528 1.956 . S
O588 Li529 1.970 . S
O588 Li530 1.961 . S
O588 C532 1.325 . S
O589 Li528 1.970 . S
O589 Li529 1.956 . S
O589 Li531 1.961 . S
O589 C538 1.325 . S
O590 Li528 1.961 . S
O590 Li530 1.956 . S
O590 Li531 1.970 . S
O590 C560 1.325 . S
O591 Li529 1.961 . S
O591 Li530 1.970 . S
O591 Li531 1.956 . S
O591 C566 1.325 . S
H592 C534 0.929 . S
H593 C535 0.930 . S
H594 C536 0.930 . S
H595 C537 0.930 . S
H596 C539 0.930 . S
H597 C541 0.929 . S
H598 C542 0.930 . S
H599 C543 0.930 . S
H600 C546 0.930 . S
H601 C549 0.929 . S
H602 C554 0.929 . S
H603 C555 0.930 . S
H604 C562 0.929 . S
H605 C563 0.930 . S
H606 C564 0.930 . S
H607 C565 0.930 . S
H608 C567 0.929 . S
H609 C568 0.930 . S
H610 C569 0.930 . S
H611 C570 0.930 . S
H612 C574 0.929 . S
H613 C576 0.930 . S
H614 C582 0.929 . S
H615 C583 0.930 . S
Li616 N633 1.990 . S
Li616 O676 1.956 1_455 S
Li616 O677 1.970 . S
Li616 O678 1.961 . S
Li617 N641 1.990 . S
Li617 O676 1.970 . S
Li617 O677 1.956 1_655 S
Li617 O679 1.961 1_655 S
Li618 N663 1.990 . S
Li618 O676 1.961 1_455 S
Li618 O678 1.956 . S
Li618 O679 1.970 . S
Li619 N669 1.990 . S
Li619 O677 1.961 . S
Li619 O678 1.970 . S
Li619 O679 1.956 . S
C620 C622 1.348 . S
C620 C623 1.356 . S
C620 O676 1.325 . S
N621 C624 1.314 . S
N621 C625 1.279 . S
C622 C620 1.348 . S
C622 C624 1.353 . S
C622 H680 0.929 . S
C623 C620 1.356 . S
C623 C625 1.358 . S
C623 H681 0.930 . S
C624 N621 1.314 . S
C624 C622 1.353 . S
C624 H682 0.930 . S
C625 N621 1.279 . S
C625 C623 1.358 . S
C625 H683 0.930 1_556 S
C626 C629 1.348 . S
C626 C630 1.356 . S
C626 O677 1.325 . S
C627 N628 1.279 . S
C627 C630 1.358 . S
C627 H684 0.930 . S
N628 C627 1.279 . S
N628 C631 1.314 . S
C629 C626 1.348 . S
C629 C631 1.353 . S
C629 H685 0.929 . S
C630 C626 1.356 . S
C630 C627 1.358 . S
C630 H686 0.930 . S
C631 N628 1.314 . S
C631 C629 1.353 . S
C631 H687 0.930 . S
C632 N633 1.314 . S
C632 C637 1.353 . S
C632 H638 0.930 . S
N633 Li616 1.990 . S
N633 C632 1.314 . S
N633 C635 1.279 . S
C634 C635 1.358 . S
C634 C636 1.356 . S
C634 H688 0.930 . S
C635 N633 1.279 . S
C635 C634 1.358 . S
C635 H639 0.939 . S
C636 C634 1.356 . S
C636 C637 1.348 . S
C637 C632 1.353 . S
C637 C636 1.348 . S
C637 H689 0.929 . S
H638 C632 0.930 . S
H639 C635 0.939 . S
C640 N641 1.314 . S
C640 C642 1.353 . S
C640 H646 0.930 . S
N641 Li617 1.990 . S
N641 C640 1.314 . S
N641 C644 1.279 . S
C642 C640 1.353 . S
C642 C645 1.348 . S
C642 H690 0.929 . S
C643 C644 1.358 . S
C643 C645 1.356 . S
C643 H691 0.930 . S
C644 N641 1.279 . S
C644 C643 1.358 . S
C644 H647 0.930 . S
C645 C642 1.348 . S
C645 C643 1.356 . S
H646 C640 0.930 . S
H647 C644 0.930 . S
C648 C650 1.348 . S
C648 C651 1.356 . S
C648 O678 1.325 . S
N649 C652 1.314 . S
N649 C653 1.279 . S
C650 C648 1.348 . S
C650 C652 1.353 . S
C650 H692 0.929 . S
C651 C648 1.356 . S
C651 C653 1.358 . S
C651 H693 0.930 . S
C652 N649 1.314 . S
C652 C650 1.353 . S
C652 H694 0.930 . S
C653 N649 1.279 . S
C653 C651 1.358 . S
C653 H695 0.930 1_556 S
C654 C655 1.348 . S
C654 C656 1.356 . S
C654 O679 1.325 . S
C655 C654 1.348 . S
C655 C657 1.353 . S
C655 H696 0.929 . S
C656 C654 1.356 . S
C656 C658 1.358 . S
C656 H697 0.930 . S
C657 C655 1.353 . S
C657 N659 1.314 . S
C657 H698 0.930 . S
C658 C656 1.358 . S
C658 N659 1.279 . S
C658 H699 0.930 1_455 S
N659 C657 1.314 . S
N659 C658 1.279 . S
C660 C662 1.353 1_455 S
C660 N663 1.329 . S
C660 H666 0.913 1_455 S
C661 N663 1.279 . S
C661 C664 1.358 . S
C661 H667 0.930 . S
C662 C660 1.353 1_655 S
C662 C665 1.348 1_655 S
C662 H700 0.929 . S
N663 Li618 1.990 . S
N663 C660 1.329 . S
N663 C661 1.279 . S
C664 C661 1.358 . S
C664 C665 1.356 . S
C664 H701 0.930 . S
C665 C662 1.348 1_455 S
C665 C664 1.356 . S
H666 C660 0.913 1_655 S
H667 C661 0.930 . S
C668 N669 1.314 . S
C668 C670 1.353 . S
C668 H674 0.930 . S
N669 Li619 1.990 . S
N669 C668 1.314 . S
N669 C672 1.279 . S
C670 C668 1.353 . S
C670 C673 1.348 . S
C670 H702 0.929 . S
C671 C672 1.358 . S
C671 C673 1.356 . S
C671 H703 0.930 . S
C672 N669 1.279 . S
C672 C671 1.358 . S
C672 H675 0.930 . S
C673 C670 1.348 . S
C673 C671 1.356 . S
H674 C668 0.930 . S
H675 C672 0.930 . S
O676 Li616 1.956 1_655 S
O676 Li617 1.970 . S
O676 Li618 1.961 1_655 S
O676 C620 1.325 . S
O677 Li616 1.970 . S
O677 Li617 1.956 1_455 S
O677 Li619 1.961 . S
O677 C626 1.325 . S
O678 Li616 1.961 . S
O678 Li618 1.956 . S
O678 Li619 1.970 . S
O678 C648 1.325 . S
O679 Li617 1.961 1_455 S
O679 Li618 1.970 . S
O679 Li619 1.956 . S
O679 C654 1.325 . S
H680 C622 0.929 . S
H681 C623 0.930 . S
H682 C624 0.930 . S
H683 C625 0.930 1_554 S
H684 C627 0.930 . S
H685 C629 0.929 . S
H686 C630 0.930 . S
H687 C631 0.930 . S
H688 C634 0.930 . S
H689 C637 0.929 . S
H690 C642 0.929 . S
H691 C643 0.930 . S
H692 C650 0.929 . S
H693 C651 0.930 . S
H694 C652 0.930 . S
H695 C653 0.930 1_554 S
H696 C655 0.929 . S
H697 C656 0.930 . S
H698 C657 0.930 . S
H699 C658 0.930 1_655 S
H700 C662 0.929 . S
H701 C664 0.930 . S
H702 C670 0.929 . S
H703 C671 0.930 . S
Li704 N721 1.990 . S
Li704 O764 1.956 . S
Li704 O765 1.970 . S
Li704 O766 1.961 . S
Li705 N729 1.990 . S
Li705 O764 1.970 . S
Li705 O765 1.956 . S
Li705 O767 1.961 . S
Li706 N751 1.990 . S
Li706 O764 1.961 . S
Li706 O766 1.956 . S
Li706 O767 1.970 . S
Li707 N757 1.990 . S
Li707 O765 1.961 . S
Li707 O766 1.970 . S
Li707 O767 1.956 . S
C708 C710 1.348 . S
C708 C711 1.356 . S
C708 O764 1.325 . S
N709 C712 1.314 . S
N709 C713 1.279 . S
C710 C708 1.348 . S
C710 C712 1.353 . S
C710 H768 0.929 . S
C711 C708 1.356 . S
C711 C713 1.358 . S
C711 H769 0.930 . S
C712 N709 1.314 . S
C712 C710 1.353 . S
C712 H770 0.930 . S
C713 N709 1.279 . S
C713 C711 1.358 . S
C713 H771 0.930 . S
C714 C717 1.348 . S
C714 C718 1.356 . S
C714 O765 1.325 . S
C715 N716 1.279 . S
C715 C718 1.358 . S
C715 H772 0.930 . S
N716 C715 1.279 . S
N716 C719 1.314 . S
C717 C714 1.348 . S
C717 C719 1.353 . S
C717 H773 0.929 . S
C718 C714 1.356 . S
C718 C715 1.358 . S
C718 H774 0.930 . S
C719 N716 1.314 . S
C719 C717 1.353 . S
C719 H775 0.930 . S
C720 N721 1.314 . S
C720 C725 1.353 . S
C720 H726 0.930 . S
N721 Li704 1.990 . S
N721 C720 1.314 . S
N721 C723 1.279 . S
C722 C723 1.358 . S
C722 C724 1.356 . S
C722 H776 0.930 . S
C723 N721 1.279 . S
C723 C722 1.358 . S
C723 H727 0.930 . S
C724 C722 1.356 . S
C724 C725 1.348 . S
C725 C720 1.353 . S
C725 C724 1.348 . S
C725 H777 0.929 . S
H726 C720 0.930 . S
H727 C723 0.930 . S
C728 N729 1.314 . S
C728 C730 1.353 . S
C728 H734 0.930 . S
N729 Li705 1.990 . S
N729 C728 1.314 . S
N729 C732 1.279 . S
C730 C728 1.353 . S
C730 C733 1.348 . S
C730 H778 0.929 . S
C731 C732 1.358 . S
C731 C733 1.356 . S
C731 H779 0.930 . S
C732 N729 1.279 . S
C732 C731 1.358 . S
C732 H735 0.930 . S
C733 C730 1.348 . S
C733 C731 1.356 . S
H734 C728 0.930 . S
H735 C732 0.930 . S
C736 C738 1.348 . S
C736 C739 1.356 . S
C736 O766 1.325 . S
N737 C740 1.314 . S
N737 C741 1.279 . S
C738 C736 1.348 . S
C738 C740 1.353 . S
C738 H780 0.929 . S
C739 C736 1.356 . S
C739 C741 1.358 . S
C739 H781 0.930 . S
C740 N737 1.314 . S
C740 C738 1.353 . S
C740 H782 0.930 . S
C741 N737 1.279 . S
C741 C739 1.358 . S
C741 H783 0.930 . S
C742 C743 1.348 . S
C742 C744 1.356 . S
C742 O767 1.325 . S
C743 C742 1.348 . S
C743 C745 1.353 . S
C743 H784 0.929 . S
C744 C742 1.356 . S
C744 C746 1.358 . S
C744 H785 0.930 . S
C745 C743 1.353 . S
C745 N747 1.314 . S
C745 H786 0.930 . S
C746 C744 1.358 . S
C746 N747 1.279 . S
C746 H787 0.930 . S
N747 C745 1.314 . S
N747 C746 1.279 . S
C748 C750 1.353 . S
C748 N751 1.314 . S
C748 H754 0.930 . S
C749 N751 1.279 . S
C749 C752 1.358 . S
C749 H755 0.930 . S
C750 C748 1.353 . S
C750 C753 1.348 . S
C750 H788 0.929 . S
N751 Li706 1.990 . S
N751 C748 1.314 . S
N751 C749 1.279 . S
C752 C749 1.358 . S
C752 C753 1.356 . S
C752 H789 0.930 . S
C753 C750 1.348 . S
C753 C752 1.356 . S
H754 C748 0.930 . S
H755 C749 0.930 . S
C756 N757 1.314 . S
C756 C758 1.353 . S
C756 H762 0.930 . S
N757 Li707 1.990 . S
N757 C756 1.314 . S
N757 C760 1.279 . S
C758 C756 1.353 . S
C758 C761 1.348 . S
C758 H790 0.929 . S
C759 C760 1.358 . S
C759 C761 1.356 . S
C759 H791 0.930 . S
C760 N757 1.279 . S
C760 C759 1.358 . S
C760 H763 0.930 . S
C761 C758 1.348 . S
C761 C759 1.356 . S
H762 C756 0.930 . S
H763 C760 0.930 . S
O764 Li704 1.956 . S
O764 Li705 1.970 . S
O764 Li706 1.961 . S
O764 C708 1.325 . S
O765 Li704 1.970 . S
O765 Li705 1.956 . S
O765 Li707 1.961 . S
O765 C714 1.325 . S
O766 Li704 1.961 . S
O766 Li706 1.956 . S
O766 Li707 1.970 . S
O766 C736 1.325 . S
O767 Li705 1.961 . S
O767 Li706 1.970 . S
O767 Li707 1.956 . S
O767 C742 1.325 . S
H768 C710 0.929 . S
H769 C711 0.930 . S
H770 C712 0.930 . S
H771 C713 0.930 . S
H772 C715 0.930 . S
H773 C717 0.929 . S
H774 C718 0.930 . S
H775 C719 0.930 . S
H776 C722 0.930 . S
H777 C725 0.929 . S
H778 C730 0.929 . S
H779 C731 0.930 . S
H780 C738 0.929 . S
H781 C739 0.930 . S
H782 C740 0.930 . S
H783 C741 0.930 . S
H784 C743 0.929 . S
H785 C744 0.930 . S
H786 C745 0.930 . S
H787 C746 0.930 . S
H788 C750 0.929 . S
H789 C752 0.930 . S
H790 C758 0.929 . S
H791 C759 0.930 . S
Li792 N809 1.990 . S
Li792 O852 1.956 . S
Li792 O853 1.970 . S
Li792 O854 1.961 . S
Li793 N817 1.990 . S
Li793 O852 1.970 . S
Li793 O853 1.956 . S
Li793 O855 1.961 . S
Li794 N839 1.990 . S
Li794 O852 1.961 . S
Li794 O854 1.956 . S
Li794 O855 1.970 . S
Li795 N845 1.990 . S
Li795 O853 1.961 . S
Li795 O854 1.970 . S
Li795 O855 1.956 . S
C796 C798 1.348 . S
C796 C799 1.356 . S
C796 O852 1.325 . S
N797 C800 1.314 . S
N797 C801 1.279 . S
C798 C796 1.348 . S
C798 C800 1.353 . S
C798 H856 0.929 . S
C799 C796 1.356 . S
C799 C801 1.358 . S
C799 H857 0.930 . S
C800 N797 1.314 . S
C800 C798 1.353 . S
C800 H858 0.930 . S
C801 N797 1.279 . S
C801 C799 1.358 . S
C801 H859 0.930 . S
C802 C805 1.348 . S
C802 C806 1.356 . S
C802 O853 1.325 . S
C803 N804 1.279 . S
C803 C806 1.358 . S
C803 H860 0.930 . S
N804 C803 1.279 . S
N804 C807 1.314 . S
C805 C802 1.348 . S
C805 C807 1.353 . S
C805 H861 0.929 . S
C806 C802 1.356 . S
C806 C803 1.358 . S
C806 H862 0.930 . S
C807 N804 1.314 . S
C807 C805 1.353 . S
C807 H863 0.930 . S
C808 N809 1.314 . S
C808 C813 1.353 . S
C808 H814 0.930 . S
N809 Li792 1.990 . S
N809 C808 1.314 . S
N809 C811 1.279 . S
C810 C811 1.358 . S
C810 C812 1.356 . S
C810 H864 0.930 . S
C811 N809 1.279 . S
C811 C810 1.358 . S
C811 H815 0.930 . S
C812 C810 1.356 . S
C812 C813 1.348 . S
C813 C808 1.353 . S
C813 C812 1.348 . S
C813 H865 0.929 . S
H814 C808 0.930 . S
H815 C811 0.930 . S
C816 N817 1.314 . S
C816 C818 1.353 . S
C816 H822 0.930 . S
N817 Li793 1.990 . S
N817 C816 1.314 . S
N817 C820 1.279 . S
C818 C816 1.353 . S
C818 C821 1.348 . S
C818 H866 0.929 . S
C819 C820 1.358 . S
C819 C821 1.356 . S
C819 H867 0.930 . S
C820 N817 1.279 . S
C820 C819 1.358 . S
C820 H823 0.930 . S
C821 C818 1.348 . S
C821 C819 1.356 . S
H822 C816 0.930 . S
H823 C820 0.930 . S
C824 C826 1.348 . S
C824 C827 1.356 . S
C824 O854 1.325 . S
N825 C828 1.314 . S
N825 C829 1.279 . S
C826 C824 1.348 . S
C826 C828 1.353 . S
C826 H868 0.929 . S
C827 C824 1.356 . S
C827 C829 1.358 . S
C827 H869 0.930 . S
C828 N825 1.314 . S
C828 C826 1.353 . S
C828 H870 0.930 . S
C829 N825 1.279 . S
C829 C827 1.358 . S
C829 H871 0.930 . S
C830 C831 1.348 . S
C830 C832 1.356 . S
C830 O855 1.325 . S
C831 C830 1.348 . S
C831 C833 1.353 . S
C831 H872 0.929 . S
C832 C830 1.356 . S
C832 C834 1.358 . S
C832 H873 0.930 . S
C833 C831 1.353 . S
C833 N835 1.314 . S
C833 H874 0.930 . S
C834 C832 1.358 . S
C834 N835 1.279 . S
C834 H875 0.930 . S
N835 C833 1.314 . S
N835 C834 1.279 . S
C836 C838 1.353 . S
C836 N839 1.314 . S
C836 H842 0.930 . S
C837 N839 1.279 . S
C837 C840 1.358 . S
C837 H843 0.930 . S
C838 C836 1.353 . S
C838 C841 1.348 . S
C838 H876 0.929 . S
N839 Li794 1.990 . S
N839 C836 1.314 . S
N839 C837 1.279 . S
C840 C837 1.358 . S
C840 C841 1.356 . S
C840 H877 0.930 . S
C841 C838 1.348 . S
C841 C840 1.356 . S
H842 C836 0.930 . S
H843 C837 0.930 . S
C844 N845 1.314 . S
C844 C846 1.353 . S
C844 H850 0.930 . S
N845 Li795 1.990 . S
N845 C844 1.314 . S
N845 C848 1.279 . S
C846 C844 1.353 . S
C846 C849 1.348 . S
C846 H878 0.929 . S
C847 C848 1.358 . S
C847 C849 1.356 . S
C847 H879 0.930 . S
C848 N845 1.279 . S
C848 C847 1.358 . S
C848 H851 0.930 . S
C849 C846 1.348 . S
C849 C847 1.356 . S
H850 C844 0.930 . S
H851 C848 0.930 . S
O852 Li792 1.956 . S
O852 Li793 1.970 . S
O852 Li794 1.961 . S
O852 C796 1.325 . S
O853 Li792 1.970 . S
O853 Li793 1.956 . S
O853 Li795 1.961 . S
O853 C802 1.325 . S
O854 Li792 1.961 . S
O854 Li794 1.956 . S
O854 Li795 1.970 . S
O854 C824 1.325 . S
O855 Li793 1.961 . S
O855 Li794 1.970 . S
O855 Li795 1.956 . S
O855 C830 1.325 . S
H856 C798 0.929 . S
H857 C799 0.930 . S
H858 C800 0.930 . S
H859 C801 0.930 . S
H860 C803 0.930 . S
H861 C805 0.929 . S
H862 C806 0.930 . S
H863 C807 0.930 . S
H864 C810 0.930 . S
H865 C813 0.929 . S
H866 C818 0.929 . S
H867 C819 0.930 . S
H868 C826 0.929 . S
H869 C827 0.930 . S
H870 C828 0.930 . S
H871 C829 0.930 . S
H872 C831 0.929 . S
H873 C832 0.930 . S
H874 C833 0.930 . S
H875 C834 0.930 . S
H876 C838 0.929 . S
H877 C840 0.930 . S
H878 C846 0.929 . S
H879 C847 0.930 . S
Li880 N897 1.990 . S
Li880 O940 1.956 . S
Li880 O941 1.970 . S
Li880 O942 1.961 . S
Li881 N905 1.990 . S
Li881 O940 1.970 . S
Li881 O941 1.956 . S
Li881 O943 1.961 . S
Li882 N927 1.990 . S
Li882 O940 1.961 . S
Li882 O942 1.956 . S
Li882 O943 1.970 . S
Li883 N933 1.990 . S
Li883 O941 1.961 . S
Li883 O942 1.970 . S
Li883 O943 1.956 . S
C884 C886 1.348 . S
C884 C887 1.356 . S
C884 O940 1.325 . S
N885 C888 1.314 . S
N885 C889 1.279 . S
C886 C884 1.348 . S
C886 C888 1.353 . S
C886 H944 0.929 . S
C887 C884 1.356 . S
C887 C889 1.358 . S
C887 H945 0.930 . S
C888 N885 1.314 . S
C888 C886 1.353 . S
C888 H946 0.930 . S
C889 N885 1.279 . S
C889 C887 1.358 . S
C889 H947 0.930 . S
C890 C893 1.348 . S
C890 C894 1.356 . S
C890 O941 1.325 . S
C891 N892 1.279 . S
C891 C894 1.358 . S
C891 H948 0.930 . S
N892 C891 1.279 . S
N892 C895 1.314 . S
C893 C890 1.348 . S
C893 C895 1.353 . S
C893 H949 0.929 . S
C894 C890 1.356 . S
C894 C891 1.358 . S
C894 H950 0.930 . S
C895 N892 1.314 . S
C895 C893 1.353 . S
C895 H951 0.930 . S
C896 N897 1.314 . S
C896 C901 1.353 . S
C896 H902 0.930 . S
N897 Li880 1.990 . S
N897 C896 1.314 . S
N897 C899 1.279 . S
C898 C899 1.358 . S
C898 C900 1.356 . S
C898 H952 0.930 . S
C899 N897 1.279 . S
C899 C898 1.358 . S
C899 H903 0.930 . S
C900 C898 1.356 . S
C900 C901 1.348 . S
C901 C896 1.353 . S
C901 C900 1.348 . S
C901 H953 0.929 . S
H902 C896 0.930 . S
H903 C899 0.930 . S
C904 N905 1.314 . S
C904 C906 1.353 . S
C904 H910 0.930 . S
N905 Li881 1.990 . S
N905 C904 1.314 . S
N905 C908 1.279 . S
C906 C904 1.353 . S
C906 C909 1.348 . S
C906 H954 0.929 . S
C907 C908 1.358 . S
C907 C909 1.356 . S
C907 H955 0.930 . S
C908 N905 1.279 . S
C908 C907 1.358 . S
C908 H911 0.930 . S
C909 C906 1.348 . S
C909 C907 1.356 . S
H910 C904 0.930 . S
H911 C908 0.930 . S
C912 C914 1.348 . S
C912 C915 1.356 . S
C912 O942 1.325 . S
N913 C916 1.314 . S
N913 C917 1.279 . S
C914 C912 1.348 . S
C914 C916 1.353 . S
C914 H956 0.929 . S
C915 C912 1.356 . S
C915 C917 1.358 . S
C915 H957 0.930 . S
C916 N913 1.314 . S
C916 C914 1.353 . S
C916 H958 0.930 . S
C917 N913 1.279 . S
C917 C915 1.358 . S
C917 H959 0.930 . S
C918 C919 1.348 . S
C918 C920 1.356 . S
C918 O943 1.325 . S
C919 C918 1.348 . S
C919 C921 1.353 . S
C919 H960 0.929 . S
C920 C918 1.356 . S
C920 C922 1.358 . S
C920 H961 0.930 . S
C921 C919 1.353 . S
C921 N923 1.314 . S
C921 H962 0.930 . S
C922 C920 1.358 . S
C922 N923 1.279 . S
C922 H963 0.930 . S
N923 C921 1.314 . S
N923 C922 1.279 . S
C924 C926 1.353 . S
C924 N927 1.314 . S
C924 H930 0.930 . S
C925 N927 1.279 . S
C925 C928 1.358 . S
C925 H931 0.930 . S
C926 C924 1.353 . S
C926 C929 1.348 . S
C926 H964 0.929 . S
N927 Li882 1.990 . S
N927 C924 1.314 . S
N927 C925 1.279 . S
C928 C925 1.358 . S
C928 C929 1.356 . S
C928 H965 0.930 . S
C929 C926 1.348 . S
C929 C928 1.356 . S
H930 C924 0.930 . S
H931 C925 0.930 . S
C932 N933 1.314 . S
C932 C934 1.353 . S
C932 H938 0.930 . S
N933 Li883 1.990 . S
N933 C932 1.314 . S
N933 C936 1.279 . S
C934 C932 1.353 . S
C934 C937 1.348 . S
C934 H966 0.929 . S
C935 C936 1.358 . S
C935 C937 1.356 . S
C935 H967 0.930 . S
C936 N933 1.279 . S
C936 C935 1.358 . S
C936 H939 0.930 . S
C937 C934 1.348 . S
C937 C935 1.356 . S
H938 C932 0.930 . S
H939 C936 0.930 . S
O940 Li880 1.956 . S
O940 Li881 1.970 . S
O940 Li882 1.961 . S
O940 C884 1.325 . S
O941 Li880 1.970 . S
O941 Li881 1.956 . S
O941 Li883 1.961 . S
O941 C890 1.325 . S
O942 Li880 1.961 . S
O942 Li882 1.956 . S
O942 Li883 1.970 . S
O942 C912 1.325 . S
O943 Li881 1.961 . S
O943 Li882 1.970 . S
O943 Li883 1.956 . S
O943 C918 1.325 . S
H944 C886 0.929 . S
H945 C887 0.930 . S
H946 C888 0.930 . S
H947 C889 0.930 . S
H948 C891 0.930 . S
H949 C893 0.929 . S
H950 C894 0.930 . S
H951 C895 0.930 . S
H952 C898 0.930 . S
H953 C901 0.929 . S
H954 C906 0.929 . S
H955 C907 0.930 . S
H956 C914 0.929 . S
H957 C915 0.930 . S
H958 C916 0.930 . S
H959 C917 0.930 . S
H960 C919 0.929 . S
H961 C920 0.930 . S
H962 C921 0.930 . S
H963 C922 0.930 . S
H964 C926 0.929 . S
H965 C928 0.930 . S
H966 C934 0.929 . S
H967 C935 0.930 . S
Li968 N985 1.990 . S
Li968 O1028 1.956 . S
Li968 O1029 1.970 . S
Li968 O1030 1.961 . S
Li969 N993 1.990 . S
Li969 O1028 1.970 . S
Li969 O1029 1.956 . S
Li969 O1031 1.961 . S
Li970 N1015 1.990 . S
Li970 O1028 1.961 . S
Li970 O1030 1.956 . S
Li970 O1031 1.970 . S
Li971 N1021 1.991 1_554 S
Li971 O1029 1.961 . S
Li971 O1030 1.970 . S
Li971 O1031 1.956 . S
C972 C974 1.348 . S
C972 C975 1.356 . S
C972 O1028 1.325 . S
N973 C976 1.314 1_545 S
N973 C977 1.279 . S
C974 C972 1.348 . S
C974 C976 1.353 . S
C974 H1032 0.929 . S
C975 C972 1.356 . S
C975 C977 1.358 1_565 S
C975 H1033 0.930 1_565 S
C976 N973 1.314 1_565 S
C976 C974 1.353 . S
C976 H1034 0.930 . S
C977 N973 1.279 . S
C977 C975 1.358 1_545 S
C977 H1035 0.930 . S
C978 C981 1.348 . S
C978 C982 1.356 . S
C978 O1029 1.325 . S
C979 N980 1.279 . S
C979 C982 1.358 . S
C979 H1036 0.930 . S
N980 C979 1.279 . S
N980 C983 1.314 . S
C981 C978 1.348 . S
C981 C983 1.353 . S
C981 H1037 0.929 . S
C982 C978 1.356 . S
C982 C979 1.358 . S
C982 H1038 0.930 . S
C983 N980 1.314 . S
C983 C981 1.353 . S
C983 H1039 0.930 . S
C984 N985 1.314 . S
C984 C989 1.353 . S
C984 H990 0.930 . S
N985 Li968 1.990 . S
N985 C984 1.314 . S
N985 C987 1.279 . S
C986 C987 1.358 . S
C986 C988 1.356 . S
C986 H1040 0.930 1_565 S
C987 N985 1.279 . S
C987 C986 1.358 . S
C987 H991 0.930 . S
C988 C986 1.356 . S
C988 C989 1.348 . S
C989 C984 1.353 . S
C989 C988 1.348 . S
C989 H1041 0.929 . S
H990 C984 0.930 . S
H991 C987 0.930 . S
C992 N993 1.314 . S
C992 C994 1.353 . S
C992 H998 0.930 . S
N993 Li969 1.990 . S
N993 C992 1.314 . S
N993 C996 1.279 . S
C994 C992 1.353 . S
C994 C997 1.348 . S
C994 H1042 0.929 . S
C995 C996 1.358 . S
C995 C997 1.356 . S
C995 H1043 0.930 . S
C996 N993 1.279 . S
C996 C995 1.358 . S
C996 H999 0.930 . S
C997 C994 1.348 . S
C997 C995 1.356 . S
H998 C992 0.930 . S
H999 C996 0.930 . S
C1000 C1002 1.348 1_554 S
C1000 C1003 1.356 . S
C1000 O1030 1.325 . S
N1001 C1004 1.314 . S
N1001 C1005 1.279 1_565 S
C1002 C1000 1.348 1_556 S
C1002 C1004 1.353 . S
C1002 H1044 0.929 . S
C1003 C1000 1.356 . S
C1003 C1005 1.358 1_564 S
C1003 H1045 0.917 1_565 S
C1004 N1001 1.314 . S
C1004 C1002 1.353 . S
C1004 H1046 0.930 . S
C1005 N1001 1.279 1_545 S
C1005 C1003 1.358 1_546 S
C1005 H1047 0.930 . S
C1006 C1007 1.348 . S
C1006 C1008 1.356 . S
C1006 O1031 1.325 . S
C1007 C1006 1.348 . S
C1007 C1009 1.353 . S
C1007 H1048 0.929 . S
C1008 C1006 1.356 . S
C1008 C1010 1.358 . S
C1008 H1049 0.930 . S
C1009 C1007 1.353 . S
C1009 N1011 1.314 . S
C1009 H1050 0.930 . S
C1010 C1008 1.358 . S
C1010 N1011 1.279 . S
C1010 H1051 0.930 . S
N1011 C1009 1.314 . S
N1011 C1010 1.279 . S
C1012 C1014 1.353 1_565 S
C1012 N1015 1.314 . S
C1012 H1018 0.930 . S
C1013 N1015 1.279 . S
C1013 C1016 1.358 1_565 S
C1013 H1019 0.930 . S
C1014 C1012 1.353 1_545 S
C1014 C1017 1.348 . S
C1014 H1052 0.929 . S
N1015 Li970 1.990 . S
N1015 C1012 1.314 . S
N1015 C1013 1.279 . S
C1016 C1013 1.358 1_545 S
C1016 C1017 1.356 . S
C1016 H1053 0.930 . S
C1017 C1014 1.348 . S
C1017 C1016 1.356 . S
H1018 C1012 0.930 . S
H1019 C1013 0.930 . S
C1020 N1021 1.314 . S
C1020 C1022 1.353 . S
C1020 H1026 0.930 . S
N1021 Li971 1.991 1_556 S
N1021 C1020 1.314 . S
N1021 C1024 1.279 . S
C1022 C1020 1.353 . S
C1022 C1025 1.348 . S
C1022 H1054 0.929 . S
C1023 C1024 1.358 . S
C1023 C1025 1.356 . S
C1023 H1055 0.930 . S
C1024 N1021 1.279 . S
C1024 C1023 1.358 . S
C1024 H1027 0.930 1_556 S
C1025 C1022 1.348 . S
C1025 C1023 1.356 . S
H1026 C1020 0.930 . S
H1027 C1024 0.930 1_554 S
O1028 Li968 1.956 . S
O1028 Li969 1.970 . S
O1028 Li970 1.961 . S
O1028 C972 1.325 . S
O1029 Li968 1.970 . S
O1029 Li969 1.956 . S
O1029 Li971 1.961 . S
O1029 C978 1.325 . S
O1030 Li968 1.961 . S
O1030 Li970 1.956 . S
O1030 Li971 1.970 . S
O1030 C1000 1.325 . S
O1031 Li969 1.961 . S
O1031 Li970 1.970 . S
O1031 Li971 1.956 . S
O1031 C1006 1.325 . S
H1032 C974 0.929 . S
H1033 C975 0.930 1_545 S
H1034 C976 0.930 . S
H1035 C977 0.930 . S
H1036 C979 0.930 . S
H1037 C981 0.929 . S
H1038 C982 0.930 . S
H1039 C983 0.930 . S
H1040 C986 0.930 1_545 S
H1041 C989 0.929 . S
H1042 C994 0.929 . S
H1043 C995 0.930 . S
H1044 C1002 0.929 . S
H1045 C1003 0.917 1_545 S
H1046 C1004 0.930 . S
H1047 C1005 0.930 . S
H1048 C1007 0.929 . S
H1049 C1008 0.930 . S
H1050 C1009 0.930 . S
H1051 C1010 0.930 . S
H1052 C1014 0.929 . S
H1053 C1016 0.930 . S
H1054 C1022 0.929 . S
H1055 C1023 0.930 . S
Li1056 N1073 1.990 . S
Li1056 O1116 1.956 . S
Li1056 O1117 1.970 . S
Li1056 O1118 1.961 . S
Li1057 N1081 1.990 . S
Li1057 O1116 1.970 . S
Li1057 O1117 1.956 . S
Li1057 O1119 1.961 . S
Li1058 N1103 1.990 . S
Li1058 O1116 1.961 . S
Li1058 O1118 1.956 . S
Li1058 O1119 1.970 . S
Li1059 N1109 1.990 1_554 S
Li1059 O1117 1.961 . S
Li1059 O1118 1.970 . S
Li1059 O1119 1.956 . S
C1060 C1062 1.348 . S
C1060 C1063 1.356 . S
C1060 O1116 1.325 . S
N1061 C1064 1.314 . S
N1061 C1065 1.279 . S
C1062 C1060 1.348 . S
C1062 C1064 1.353 . S
C1062 H1120 0.929 . S
C1063 C1060 1.356 . S
C1063 C1065 1.358 . S
C1063 H1121 0.930 . S
C1064 N1061 1.314 . S
C1064 C1062 1.353 . S
C1064 H1122 0.930 . S
C1065 N1061 1.279 . S
C1065 C1063 1.358 . S
C1065 H1123 0.930 . S
C1066 C1069 1.348 . S
C1066 C1070 1.356 . S
C1066 O1117 1.325 . S
C1067 N1068 1.279 . S
C1067 C1070 1.358 . S
C1067 H1124 0.930 . S
N1068 C1067 1.279 . S
N1068 C1071 1.314 . S
C1069 C1066 1.348 . S
C1069 C1071 1.353 . S
C1069 H1125 0.929 . S
C1070 C1066 1.356 . S
C1070 C1067 1.358 . S
C1070 H1126 0.930 . S
C1071 N1068 1.314 . S
C1071 C1069 1.353 . S
C1071 H1127 0.930 . S
C1072 N1073 1.314 . S
C1072 C1077 1.353 . S
C1072 H1078 0.930 1_554 S
N1073 Li1056 1.990 . S
N1073 C1072 1.314 . S
N1073 C1075 1.279 . S
C1074 C1075 1.358 . S
C1074 C1076 1.356 . S
C1074 H1128 0.930 . S
C1075 N1073 1.279 . S
C1075 C1074 1.358 . S
C1075 H1079 0.930 . S
C1076 C1074 1.356 . S
C1076 C1077 1.348 . S
C1077 C1072 1.353 . S
C1077 C1076 1.348 . S
C1077 H1129 0.929 1_554 S
H1078 C1072 0.930 1_556 S
H1079 C1075 0.930 . S
C1080 N1081 1.314 . S
C1080 C1082 1.353 . S
C1080 H1086 0.930 . S
N1081 Li1057 1.990 . S
N1081 C1080 1.314 . S
N1081 C1084 1.279 . S
C1082 C1080 1.353 . S
C1082 C1085 1.348 . S
C1082 H1130 0.929 . S
C1083 C1084 1.358 . S
C1083 C1085 1.356 . S
C1083 H1131 0.930 . S
C1084 N1081 1.279 . S
C1084 C1083 1.358 . S
C1084 H1087 0.930 . S
C1085 C1082 1.348 . S
C1085 C1083 1.356 . S
H1086 C1080 0.930 . S
H1087 C1084 0.930 . S
C1088 C1090 1.348 . S
C1088 C1091 1.356 . S
C1088 O1118 1.325 1_556 S
N1089 C1092 1.314 . S
N1089 C1093 1.279 . S
C1090 C1088 1.348 . S
C1090 C1092 1.353 . S
C1090 H1132 0.929 . S
C1091 C1088 1.356 . S
C1091 C1093 1.358 . S
C1091 H1133 0.930 1_556 S
C1092 N1089 1.314 . S
C1092 C1090 1.353 . S
C1092 H1134 0.930 . S
C1093 N1089 1.279 . S
C1093 C1091 1.358 . S
C1093 H1135 0.930 . S
C1094 C1095 1.348 . S
C1094 C1096 1.356 . S
C1094 O1119 1.325 . S
C1095 C1094 1.348 . S
C1095 C1097 1.353 . S
C1095 H1136 0.929 . S
C1096 C1094 1.356 . S
C1096 C1098 1.358 . S
C1096 H1137 0.930 . S
C1097 C1095 1.353 . S
C1097 N1099 1.314 . S
C1097 H1138 0.930 . S
C1098 C1096 1.358 . S
C1098 N1099 1.279 . S
C1098 H1139 0.930 . S
N1099 C1097 1.314 . S
N1099 C1098 1.279 . S
C1100 C1102 1.353 . S
C1100 N1103 1.314 . S
C1100 H1106 0.930 . S
C1101 N1103 1.279 . S
C1101 C1104 1.358 . S
C1101 H1107 0.930 . S
C1102 C1100 1.353 . S
C1102 C1105 1.348 . S
C1102 H1140 0.929 . S
N1103 Li1058 1.990 . S
N1103 C1100 1.314 . S
N1103 C1101 1.279 . S
C1104 C1101 1.358 . S
C1104 C1105 1.356 . S
C1104 H1141 0.930 . S
C1105 C1102 1.348 . S
C1105 C1104 1.356 . S
H1106 C1100 0.930 . S
H1107 C1101 0.930 . S
C1108 N1109 1.314 . S
C1108 C1110 1.353 . S
C1108 H1114 0.930 . S
N1109 Li1059 1.990 1_556 S
N1109 C1108 1.314 . S
N1109 C1112 1.279 . S
C1110 C1108 1.353 . S
C1110 C1113 1.348 . S
C1110 H1142 0.929 . S
C1111 C1112 1.358 . S
C1111 C1113 1.356 . S
C1111 H1143 0.930 . S
C1112 N1109 1.279 . S
C1112 C1111 1.358 . S
C1112 H1115 0.930 . S
C1113 C1110 1.348 . S
C1113 C1111 1.356 . S
H1114 C1108 0.930 . S
H1115 C1112 0.930 . S
O1116 Li1056 1.956 . S
O1116 Li1057 1.970 . S
O1116 Li1058 1.961 . S
O1116 C1060 1.325 . S
O1117 Li1056 1.970 . S
O1117 Li1057 1.956 . S
O1117 Li1059 1.961 . S
O1117 C1066 1.325 . S
O1118 Li1056 1.961 . S
O1118 Li1058 1.956 . S
O1118 Li1059 1.970 . S
O1118 C1088 1.325 1_554 S
O1119 Li1057 1.961 . S
O1119 Li1058 1.970 . S
O1119 Li1059 1.956 . S
O1119 C1094 1.325 . S
H1120 C1062 0.929 . S
H1121 C1063 0.930 . S
H1122 C1064 0.930 . S
H1123 C1065 0.930 . S
H1124 C1067 0.930 . S
H1125 C1069 0.929 . S
H1126 C1070 0.930 . S
H1127 C1071 0.930 . S
H1128 C1074 0.930 . S
H1129 C1077 0.929 1_556 S
H1130 C1082 0.929 . S
H1131 C1083 0.930 . S
H1132 C1090 0.929 . S
H1133 C1091 0.930 1_554 S
H1134 C1092 0.930 . S
H1135 C1093 0.930 . S
H1136 C1095 0.929 . S
H1137 C1096 0.930 . S
H1138 C1097 0.930 . S
H1139 C1098 0.930 . S
H1140 C1102 0.929 . S
H1141 C1104 0.930 . S
H1142 C1110 0.929 . S
H1143 C1111 0.930 . S
Li1144 N1161 1.990 . S
Li1144 O1204 1.956 . S
Li1144 O1205 1.970 . S
Li1144 O1206 1.960 1_554 S
Li1145 N1169 1.990 . S
Li1145 O1204 1.970 . S
Li1145 O1205 1.956 . S
Li1145 O1207 1.961 1_554 S
Li1146 N1191 1.990 . S
Li1146 O1204 1.961 1_556 S
Li1146 O1206 1.958 . S
Li1146 O1207 1.970 . S
Li1147 N1197 1.990 . S
Li1147 O1205 1.961 1_556 S
Li1147 O1206 1.970 . S
Li1147 O1207 1.956 . S
C1148 C1150 1.348 . S
C1148 C1151 1.356 . S
C1148 O1204 1.325 . S
N1149 C1152 1.314 . S
N1149 C1153 1.279 . S
C1150 C1148 1.348 . S
C1150 C1152 1.353 . S
C1150 H1208 0.929 . S
C1151 C1148 1.356 . S
C1151 C1153 1.358 . S
C1151 H1209 0.929 . S
C1152 N1149 1.314 . S
C1152 C1150 1.353 . S
C1152 H1210 0.930 . S
C1153 N1149 1.279 . S
C1153 C1151 1.358 . S
C1153 H1211 0.930 . S
C1154 C1157 1.348 . S
C1154 C1158 1.356 . S
C1154 O1205 1.325 . S
C1155 N1156 1.279 . S
C1155 C1158 1.358 . S
C1155 H1212 0.930 . S
N1156 C1155 1.279 . S
N1156 C1159 1.314 . S
C1157 C1154 1.348 . S
C1157 C1159 1.353 . S
C1157 H1213 0.929 . S
C1158 C1154 1.356 . S
C1158 C1155 1.358 . S
C1158 H1214 0.930 . S
C1159 N1156 1.314 . S
C1159 C1157 1.353 . S
C1159 H1215 0.930 . S
C1160 N1161 1.314 . S
C1160 C1165 1.353 . S
C1160 H1166 0.930 . S
N1161 Li1144 1.990 . S
N1161 C1160 1.314 . S
N1161 C1163 1.279 . S
C1162 C1163 1.358 . S
C1162 C1164 1.356 . S
C1162 H1216 0.930 . S
C1163 N1161 1.279 . S
C1163 C1162 1.358 . S
C1163 H1167 0.930 . S
C1164 C1162 1.356 . S
C1164 C1165 1.348 . S
C1165 C1160 1.353 . S
C1165 C1164 1.348 . S
C1165 H1217 0.929 . S
H1166 C1160 0.930 . S
H1167 C1163 0.930 . S
C1168 N1169 1.314 1_556 S
C1168 C1170 1.353 . S
C1168 H1174 0.930 . S
N1169 Li1145 1.990 . S
N1169 C1168 1.314 1_554 S
N1169 C1172 1.279 . S
C1170 C1168 1.353 . S
C1170 C1173 1.348 1_556 S
C1170 H1218 0.929 . S
C1171 C1172 1.358 . S
C1171 C1173 1.356 . S
C1171 H1219 0.930 . S
C1172 N1169 1.279 . S
C1172 C1171 1.358 . S
C1172 H1175 0.930 . S
C1173 C1170 1.348 1_554 S
C1173 C1171 1.356 . S
H1174 C1168 0.930 . S
H1175 C1172 0.930 . S
C1176 C1178 1.348 . S
C1176 C1179 1.356 1_556 S
C1176 O1206 1.325 . S
N1177 C1180 1.314 . S
N1177 C1181 1.279 1_556 S
C1178 C1176 1.348 . S
C1178 C1180 1.353 . S
C1178 H1220 0.929 . S
C1179 C1176 1.356 1_554 S
C1179 C1181 1.358 . S
C1179 H1221 0.930 . S
C1180 N1177 1.314 . S
C1180 C1178 1.353 . S
C1180 H1222 0.930 . S
C1181 N1177 1.279 1_554 S
C1181 C1179 1.358 . S
C1181 H1223 0.930 . S
C1182 C1183 1.348 . S
C1182 C1184 1.356 . S
C1182 O1207 1.325 . S
C1183 C1182 1.348 . S
C1183 C1185 1.353 . S
C1183 H1224 0.929 . S
C1184 C1182 1.356 . S
C1184 C1186 1.358 . S
C1184 H1225 0.930 . S
C1185 C1183 1.353 . S
C1185 N1187 1.314 . S
C1185 H1226 0.930 . S
C1186 C1184 1.358 . S
C1186 N1187 1.279 . S
C1186 H1227 0.930 . S
N1187 C1185 1.314 . S
N1187 C1186 1.279 . S
C1188 C1190 1.353 . S
C1188 N1191 1.314 . S
C1188 H1194 0.930 . S
C1189 N1191 1.279 . S
C1189 C1192 1.358 . S
C1189 H1195 0.930 . S
C1190 C1188 1.353 . S
C1190 C1193 1.348 . S
C1190 H1228 0.929 . S
N1191 Li1146 1.990 . S
N1191 C1188 1.314 . S
N1191 C1189 1.279 . S
C1192 C1189 1.358 . S
C1192 C1193 1.356 . S
C1192 H1229 0.930 . S
C1193 C1190 1.348 . S
C1193 C1192 1.356 . S
H1194 C1188 0.930 . S
H1195 C1189 0.930 . S
C1196 N1197 1.314 1_554 S
C1196 C1198 1.353 . S
C1196 H1202 0.930 . S
N1197 Li1147 1.990 . S
N1197 C1196 1.314 1_556 S
N1197 C1200 1.279 . S
C1198 C1196 1.353 . S
C1198 C1201 1.348 1_554 S
C1198 H1230 0.929 . S
C1199 C1200 1.358 . S
C1199 C1201 1.356 . S
C1199 H1231 0.930 . S
C1200 N1197 1.279 . S
C1200 C1199 1.358 . S
C1200 H1203 0.930 . S
C1201 C1198 1.348 1_556 S
C1201 C1199 1.356 . S
H1202 C1196 0.930 . S
H1203 C1200 0.930 . S
O1204 Li1144 1.956 . S
O1204 Li1145 1.970 . S
O1204 Li1146 1.961 1_554 S
O1204 C1148 1.325 . S
O1205 Li1144 1.970 . S
O1205 Li1145 1.956 . S
O1205 Li1147 1.961 1_554 S
O1205 C1154 1.325 . S
O1206 Li1144 1.960 1_556 S
O1206 Li1146 1.958 . S
O1206 Li1147 1.970 . S
O1206 C1176 1.325 . S
O1207 Li1145 1.961 1_556 S
O1207 Li1146 1.970 . S
O1207 Li1147 1.956 . S
O1207 C1182 1.325 . S
H1208 C1150 0.929 . S
H1209 C1151 0.929 . S
H1210 C1152 0.930 . S
H1211 C1153 0.930 . S
H1212 C1155 0.930 . S
H1213 C1157 0.929 . S
H1214 C1158 0.930 . S
H1215 C1159 0.930 . S
H1216 C1162 0.930 . S
H1217 C1165 0.929 . S
H1218 C1170 0.929 . S
H1219 C1171 0.930 . S
H1220 C1178 0.929 . S
H1221 C1179 0.930 . S
H1222 C1180 0.930 . S
H1223 C1181 0.930 . S
H1224 C1183 0.929 . S
H1225 C1184 0.930 . S
H1226 C1185 0.930 . S
H1227 C1186 0.930 . S
H1228 C1190 0.929 . S
H1229 C1192 0.930 . S
H1230 C1198 0.929 . S
H1231 C1199 0.930 . S
Li1232 N1249 1.990 . S
Li1232 O1292 1.956 . S
Li1232 O1293 1.970 . S
Li1232 O1294 1.961 . S
Li1233 N1257 1.990 . S
Li1233 O1292 1.970 . S
Li1233 O1293 1.956 . S
Li1233 O1295 1.961 . S
Li1234 N1279 1.990 . S
Li1234 O1292 1.961 . S
Li1234 O1294 1.956 . S
Li1234 O1295 1.970 . S
Li1235 N1285 1.990 . S
Li1235 O1293 1.961 . S
Li1235 O1294 1.970 . S
Li1235 O1295 1.956 . S
C1236 C1238 1.348 . S
C1236 C1239 1.356 . S
C1236 O1292 1.325 . S
N1237 C1240 1.314 . S
N1237 C1241 1.279 . S
C1238 C1236 1.348 . S
C1238 C1240 1.353 . S
C1238 H1296 0.929 . S
C1239 C1236 1.356 . S
C1239 C1241 1.358 . S
C1239 H1297 0.930 . S
C1240 N1237 1.314 . S
C1240 C1238 1.353 . S
C1240 H1298 0.930 . S
C1241 N1237 1.279 . S
C1241 C1239 1.358 . S
C1241 H1299 0.930 . S
C1242 C1245 1.348 . S
C1242 C1246 1.356 . S
C1242 O1293 1.325 . S
C1243 N1244 1.279 . S
C1243 C1246 1.358 . S
C1243 H1300 0.930 . S
N1244 C1243 1.279 . S
N1244 C1247 1.314 . S
C1245 C1242 1.348 . S
C1245 C1247 1.353 . S
C1245 H1301 0.929 . S
C1246 C1242 1.356 . S
C1246 C1243 1.358 . S
C1246 H1302 0.930 . S
C1247 N1244 1.314 . S
C1247 C1245 1.353 . S
C1247 H1303 0.930 . S
C1248 N1249 1.314 . S
C1248 C1253 1.353 . S
C1248 H1254 0.930 . S
N1249 Li1232 1.990 . S
N1249 C1248 1.314 . S
N1249 C1251 1.279 . S
C1250 C1251 1.358 . S
C1250 C1252 1.356 . S
C1250 H1304 0.930 . S
C1251 N1249 1.279 . S
C1251 C1250 1.358 . S
C1251 H1255 0.930 . S
C1252 C1250 1.356 . S
C1252 C1253 1.348 . S
C1253 C1248 1.353 . S
C1253 C1252 1.348 . S
C1253 H1305 0.929 . S
H1254 C1248 0.930 . S
H1255 C1251 0.930 . S
C1256 N1257 1.314 . S
C1256 C1258 1.353 . S
C1256 H1262 0.930 . S
N1257 Li1233 1.990 . S
N1257 C1256 1.314 . S
N1257 C1260 1.279 . S
C1258 C1256 1.353 . S
C1258 C1261 1.348 . S
C1258 H1306 0.929 . S
C1259 C1260 1.358 . S
C1259 C1261 1.356 . S
C1259 H1307 0.930 . S
C1260 N1257 1.279 . S
C1260 C1259 1.358 . S
C1260 H1263 0.930 . S
C1261 C1258 1.348 . S
C1261 C1259 1.356 . S
H1262 C1256 0.930 . S
H1263 C1260 0.930 . S
C1264 C1266 1.348 . S
C1264 C1267 1.356 . S
C1264 O1294 1.325 . S
N1265 C1268 1.314 . S
N1265 C1269 1.279 . S
C1266 C1264 1.348 . S
C1266 C1268 1.353 . S
C1266 H1308 0.929 . S
C1267 C1264 1.356 . S
C1267 C1269 1.358 . S
C1267 H1309 0.930 . S
C1268 N1265 1.314 . S
C1268 C1266 1.353 . S
C1268 H1310 0.930 . S
C1269 N1265 1.279 . S
C1269 C1267 1.358 . S
C1269 H1311 0.930 . S
C1270 C1271 1.348 . S
C1270 C1272 1.356 . S
C1270 O1295 1.325 . S
C1271 C1270 1.348 . S
C1271 C1273 1.353 . S
C1271 H1312 0.929 . S
C1272 C1270 1.356 . S
C1272 C1274 1.358 . S
C1272 H1313 0.930 . S
C1273 C1271 1.353 . S
C1273 N1275 1.314 . S
C1273 H1314 0.930 . S
C1274 C1272 1.358 . S
C1274 N1275 1.279 . S
C1274 H1315 0.930 . S
N1275 C1273 1.314 . S
N1275 C1274 1.279 . S
C1276 C1278 1.353 . S
C1276 N1279 1.314 . S
C1276 H1282 0.930 . S
C1277 N1279 1.279 . S
C1277 C1280 1.358 . S
C1277 H1283 0.930 . S
C1278 C1276 1.353 . S
C1278 C1281 1.348 . S
C1278 H1316 0.929 . S
N1279 Li1234 1.990 . S
N1279 C1276 1.314 . S
N1279 C1277 1.279 . S
C1280 C1277 1.358 . S
C1280 C1281 1.356 . S
C1280 H1317 0.930 . S
C1281 C1278 1.348 . S
C1281 C1280 1.356 . S
H1282 C1276 0.930 . S
H1283 C1277 0.930 . S
C1284 N1285 1.314 . S
C1284 C1286 1.353 . S
C1284 H1290 0.930 . S
N1285 Li1235 1.990 . S
N1285 C1284 1.314 . S
N1285 C1288 1.279 . S
C1286 C1284 1.353 . S
C1286 C1289 1.348 . S
C1286 H1318 0.929 . S
C1287 C1288 1.358 . S
C1287 C1289 1.356 . S
C1287 H1319 0.930 . S
C1288 N1285 1.279 . S
C1288 C1287 1.358 . S
C1288 H1291 0.930 . S
C1289 C1286 1.348 . S
C1289 C1287 1.356 . S
H1290 C1284 0.930 . S
H1291 C1288 0.930 . S
O1292 Li1232 1.956 . S
O1292 Li1233 1.970 . S
O1292 Li1234 1.961 . S
O1292 C1236 1.325 . S
O1293 Li1232 1.970 . S
O1293 Li1233 1.956 . S
O1293 Li1235 1.961 . S
O1293 C1242 1.325 . S
O1294 Li1232 1.961 . S
O1294 Li1234 1.956 . S
O1294 Li1235 1.970 . S
O1294 C1264 1.325 . S
O1295 Li1233 1.961 . S
O1295 Li1234 1.970 . S
O1295 Li1235 1.956 . S
O1295 C1270 1.325 . S
H1296 C1238 0.929 . S
H1297 C1239 0.930 . S
H1298 C1240 0.930 . S
H1299 C1241 0.930 . S
H1300 C1243 0.930 . S
H1301 C1245 0.929 . S
H1302 C1246 0.930 . S
H1303 C1247 0.930 . S
H1304 C1250 0.930 . S
H1305 C1253 0.929 . S
H1306 C1258 0.929 . S
H1307 C1259 0.930 . S
H1308 C1266 0.929 . S
H1309 C1267 0.930 . S
H1310 C1268 0.930 . S
H1311 C1269 0.930 . S
H1312 C1271 0.929 . S
H1313 C1272 0.930 . S
H1314 C1273 0.930 . S
H1315 C1274 0.930 . S
H1316 C1278 0.929 . S
H1317 C1280 0.930 . S
H1318 C1286 0.929 . S
H1319 C1287 0.930 . S
Li1320 N1337 1.990 . S
Li1320 O1380 1.956 . S
Li1320 O1381 1.970 . S
Li1320 O1382 1.961 . S
Li1321 N1345 1.990 . S
Li1321 O1380 1.970 . S
Li1321 O1381 1.956 . S
Li1321 O1383 1.961 . S
Li1322 N1367 1.990 . S
Li1322 O1380 1.961 . S
Li1322 O1382 1.956 . S
Li1322 O1383 1.970 . S
Li1323 N1373 1.990 . S
Li1323 O1381 1.961 . S
Li1323 O1382 1.970 . S
Li1323 O1383 1.956 . S
C1324 C1326 1.348 . S
C1324 C1327 1.356 . S
C1324 O1380 1.325 . S
N1325 C1328 1.314 . S
N1325 C1329 1.279 1_565 S
C1326 C1324 1.348 . S
C1326 C1328 1.353 . S
C1326 H1384 0.929 . S
C1327 C1324 1.356 . S
C1327 C1329 1.358 1_565 S
C1327 H1385 0.930 . S
C1328 N1325 1.314 . S
C1328 C1326 1.353 . S
C1328 H1386 0.930 . S
C1329 N1325 1.279 1_545 S
C1329 C1327 1.358 1_545 S
C1329 H1387 0.930 . S
C1330 C1333 1.348 . S
C1330 C1334 1.356 . S
C1330 O1381 1.325 . S
C1331 N1332 1.279 . S
C1331 C1334 1.358 . S
C1331 H1388 0.930 . S
N1332 C1331 1.279 . S
N1332 C1335 1.314 . S
C1333 C1330 1.348 . S
C1333 C1335 1.353 . S
C1333 H1389 0.929 . S
C1334 C1330 1.356 . S
C1334 C1331 1.358 . S
C1334 H1390 0.930 . S
C1335 N1332 1.314 . S
C1335 C1333 1.353 . S
C1335 H1391 0.930 . S
C1336 N1337 1.314 . S
C1336 C1341 1.353 . S
C1336 H1342 0.930 . S
N1337 Li1320 1.990 . S
N1337 C1336 1.314 . S
N1337 C1339 1.279 . S
C1338 C1339 1.358 . S
C1338 C1340 1.356 . S
C1338 H1392 0.930 . S
C1339 N1337 1.279 . S
C1339 C1338 1.358 . S
C1339 H1343 0.930 . S
C1340 C1338 1.356 . S
C1340 C1341 1.348 . S
C1341 C1336 1.353 . S
C1341 C1340 1.348 . S
C1341 H1393 0.929 . S
H1342 C1336 0.930 . S
H1343 C1339 0.930 . S
C1344 N1345 1.314 . S
C1344 C1346 1.353 . S
C1344 H1350 0.930 . S
N1345 Li1321 1.990 . S
N1345 C1344 1.314 . S
N1345 C1348 1.279 . S
C1346 C1344 1.353 . S
C1346 C1349 1.348 . S
C1346 H1394 0.929 . S
C1347 C1348 1.358 . S
C1347 C1349 1.356 . S
C1347 H1395 0.930 . S
C1348 N1345 1.279 . S
C1348 C1347 1.358 . S
C1348 H1351 0.930 . S
C1349 C1346 1.348 . S
C1349 C1347 1.356 . S
H1350 C1344 0.930 . S
H1351 C1348 0.930 . S
C1352 C1354 1.348 . S
C1352 C1355 1.356 . S
C1352 O1382 1.325 . S
N1353 C1356 1.314 . S
N1353 C1357 1.279 . S
C1354 C1352 1.348 . S
C1354 C1356 1.353 . S
C1354 H1396 0.929 . S
C1355 C1352 1.356 . S
C1355 C1357 1.358 . S
C1355 H1397 0.930 . S
C1356 N1353 1.314 . S
C1356 C1354 1.353 . S
C1356 H1398 0.930 . S
C1357 N1353 1.279 . S
C1357 C1355 1.358 . S
C1357 H1399 0.930 1_565 S
C1358 C1359 1.348 . S
C1358 C1360 1.356 . S
C1358 O1383 1.325 . S
C1359 C1358 1.348 . S
C1359 C1361 1.353 . S
C1359 H1400 0.929 . S
C1360 C1358 1.356 . S
C1360 C1362 1.358 . S
C1360 H1401 0.930 . S
C1361 C1359 1.353 . S
C1361 N1363 1.314 . S
C1361 H1402 0.930 . S
C1362 C1360 1.358 . S
C1362 N1363 1.279 . S
C1362 H1403 0.930 . S
N1363 C1361 1.314 . S
N1363 C1362 1.279 . S
C1364 C1366 1.353 . S
C1364 N1367 1.314 . S
C1364 H1370 0.930 . S
C1365 N1367 1.279 . S
C1365 C1368 1.358 . S
C1365 H1371 0.930 . S
C1366 C1364 1.353 . S
C1366 C1369 1.348 1_565 S
C1366 H1404 0.929 . S
N1367 Li1322 1.990 . S
N1367 C1364 1.314 . S
N1367 C1365 1.279 . S
C1368 C1365 1.358 . S
C1368 C1369 1.356 1_565 S
C1368 H1405 0.930 1_565 S
C1369 C1366 1.348 1_545 S
C1369 C1368 1.356 1_545 S
H1370 C1364 0.930 . S
H1371 C1365 0.930 . S
C1372 N1373 1.314 . S
C1372 C1374 1.353 . S
C1372 H1378 0.930 . S
N1373 Li1323 1.990 . S
N1373 C1372 1.314 . S
N1373 C1376 1.279 . S
C1374 C1372 1.353 . S
C1374 C1377 1.348 . S
C1374 H1406 0.929 . S
C1375 C1376 1.358 . S
C1375 C1377 1.356 . S
C1375 H1407 0.930 . S
C1376 N1373 1.279 . S
C1376 C1375 1.358 . S
C1376 H1379 0.930 . S
C1377 C1374 1.348 . S
C1377 C1375 1.356 . S
H1378 C1372 0.930 . S
H1379 C1376 0.930 . S
O1380 Li1320 1.956 . S
O1380 Li1321 1.970 . S
O1380 Li1322 1.961 . S
O1380 C1324 1.325 . S
O1381 Li1320 1.970 . S
O1381 Li1321 1.956 . S
O1381 Li1323 1.961 . S
O1381 C1330 1.325 . S
O1382 Li1320 1.961 . S
O1382 Li1322 1.956 . S
O1382 Li1323 1.970 . S
O1382 C1352 1.325 . S
O1383 Li1321 1.961 . S
O1383 Li1322 1.970 . S
O1383 Li1323 1.956 . S
O1383 C1358 1.325 . S
H1384 C1326 0.929 . S
H1385 C1327 0.930 . S
H1386 C1328 0.930 . S
H1387 C1329 0.930 . S
H1388 C1331 0.930 . S
H1389 C1333 0.929 . S
H1390 C1334 0.930 . S
H1391 C1335 0.930 . S
H1392 C1338 0.930 . S
H1393 C1341 0.929 . S
H1394 C1346 0.929 . S
H1395 C1347 0.930 . S
H1396 C1354 0.929 . S
H1397 C1355 0.930 . S
H1398 C1356 0.930 . S
H1399 C1357 0.930 1_545 S
H1400 C1359 0.929 . S
H1401 C1360 0.930 . S
H1402 C1361 0.930 . S
H1403 C1362 0.930 . S
H1404 C1366 0.929 . S
H1405 C1368 0.930 1_545 S
H1406 C1374 0.929 . S
H1407 C1375 0.930 . S
Li1408 N1425 1.990 . S
Li1408 O1468 1.956 . S
Li1408 O1469 1.970 . S
Li1408 O1470 1.961 . S
Li1409 N1433 1.990 1_545 S
Li1409 O1468 1.970 . S
Li1409 O1469 1.956 . S
Li1409 O1471 1.961 . S
Li1410 N1455 1.990 . S
Li1410 O1468 1.961 . S
Li1410 O1470 1.956 . S
Li1410 O1471 1.970 . S
Li1411 N1461 1.990 . S
Li1411 O1469 1.961 . S
Li1411 O1470 1.970 . S
Li1411 O1471 1.956 . S
C1412 C1414 1.348 1_545 S
C1412 C1415 1.356 . S
C1412 O1468 1.325 . S
N1413 C1416 1.314 . S
N1413 C1417 1.279 . S
C1414 C1412 1.348 1_565 S
C1414 C1416 1.353 . S
C1414 H1472 0.929 . S
C1415 C1412 1.356 . S
C1415 C1417 1.358 1_545 S
C1415 H1473 0.930 . S
C1416 N1413 1.314 . S
C1416 C1414 1.353 . S
C1416 H1474 0.930 . S
C1417 N1413 1.279 . S
C1417 C1415 1.358 1_565 S
C1417 H1475 0.930 . S
C1418 C1421 1.348 . S
C1418 C1422 1.356 . S
C1418 O1469 1.325 . S
C1419 N1420 1.279 . S
C1419 C1422 1.358 . S
C1419 H1476 0.930 . S
N1420 C1419 1.279 . S
N1420 C1423 1.314 . S
C1421 C1418 1.348 . S
C1421 C1423 1.353 . S
C1421 H1477 0.929 . S
C1422 C1418 1.356 . S
C1422 C1419 1.358 . S
C1422 H1478 0.930 . S
C1423 N1420 1.314 . S
C1423 C1421 1.353 . S
C1423 H1479 0.930 . S
C1424 N1425 1.314 . S
C1424 C1429 1.353 . S
C1424 H1430 0.930 . S
N1425 Li1408 1.990 . S
N1425 C1424 1.314 . S
N1425 C1427 1.279 . S
C1426 C1427 1.358 . S
C1426 C1428 1.356 . S
C1426 H1480 0.930 . S
C1427 N1425 1.279 . S
C1427 C1426 1.358 . S
C1427 H1431 0.930 . S
C1428 C1426 1.356 . S
C1428 C1429 1.348 . S
C1429 C1424 1.353 . S
C1429 C1428 1.348 . S
C1429 H1481 0.929 . S
H1430 C1424 0.930 . S
H1431 C1427 0.930 . S
C1432 N1433 1.314 . S
C1432 C1434 1.353 . S
C1432 H1438 0.930 . S
N1433 Li1409 1.990 1_565 S
N1433 C1432 1.314 . S
N1433 C1436 1.279 . S
C1434 C1432 1.353 . S
C1434 C1437 1.348 . S
C1434 H1482 0.929 . S
C1435 C1436 1.358 . S
C1435 C1437 1.356 . S
C1435 H1483 0.930 . S
C1436 N1433 1.279 . S
C1436 C1435 1.358 . S
C1436 H1439 0.930 . S
C1437 C1434 1.348 . S
C1437 C1435 1.356 . S
H1438 C1432 0.930 . S
H1439 C1436 0.930 . S
C1440 C1442 1.348 . S
C1440 C1443 1.356 . S
C1440 O1470 1.325 . S
N1441 C1444 1.314 . S
N1441 C1445 1.279 . S
C1442 C1440 1.348 . S
C1442 C1444 1.353 . S
C1442 H1484 0.929 . S
C1443 C1440 1.356 . S
C1443 C1445 1.358 . S
C1443 H1485 0.930 . S
C1444 N1441 1.314 . S
C1444 C1442 1.353 . S
C1444 H1486 0.930 . S
C1445 N1441 1.279 . S
C1445 C1443 1.358 . S
C1445 H1487 0.930 . S
C1446 C1447 1.348 . S
C1446 C1448 1.356 . S
C1446 O1471 1.325 . S
C1447 C1446 1.348 . S
C1447 C1449 1.353 . S
C1447 H1488 0.929 . S
C1448 C1446 1.356 . S
C1448 C1450 1.358 . S
C1448 H1489 0.930 . S
C1449 C1447 1.353 . S
C1449 N1451 1.314 . S
C1449 H1490 0.930 . S
C1450 C1448 1.358 . S
C1450 N1451 1.279 . S
C1450 H1491 0.930 . S
N1451 C1449 1.314 . S
N1451 C1450 1.279 . S
C1452 C1454 1.353 . S
C1452 N1455 1.314 . S
C1452 H1458 0.930 . S
C1453 N1455 1.279 . S
C1453 C1456 1.358 . S
C1453 H1459 0.930 . S
C1454 C1452 1.353 . S
C1454 C1457 1.348 . S
C1454 H1492 0.929 . S
N1455 Li1410 1.990 . S
N1455 C1452 1.314 . S
N1455 C1453 1.279 . S
C1456 C1453 1.358 . S
C1456 C1457 1.356 . S
C1456 H1493 0.930 . S
C1457 C1454 1.348 . S
C1457 C1456 1.356 . S
H1458 C1452 0.930 . S
H1459 C1453 0.930 . S
C1460 N1461 1.314 . S
C1460 C1462 1.353 . S
C1460 H1466 0.930 . S
N1461 Li1411 1.990 . S
N1461 C1460 1.314 . S
N1461 C1464 1.279 . S
C1462 C1460 1.353 . S
C1462 C1465 1.348 . S
C1462 H1494 0.929 . S
C1463 C1464 1.358 . S
C1463 C1465 1.356 . S
C1463 H1495 0.930 . S
C1464 N1461 1.279 . S
C1464 C1463 1.358 . S
C1464 H1467 0.930 . S
C1465 C1462 1.348 . S
C1465 C1463 1.356 . S
H1466 C1460 0.930 . S
H1467 C1464 0.930 . S
O1468 Li1408 1.956 . S
O1468 Li1409 1.970 . S
O1468 Li1410 1.961 . S
O1468 C1412 1.325 . S
O1469 Li1408 1.970 . S
O1469 Li1409 1.956 . S
O1469 Li1411 1.961 . S
O1469 C1418 1.325 . S
O1470 Li1408 1.961 . S
O1470 Li1410 1.956 . S
O1470 Li1411 1.970 . S
O1470 C1440 1.325 . S
O1471 Li1409 1.961 . S
O1471 Li1410 1.970 . S
O1471 Li1411 1.956 . S
O1471 C1446 1.325 . S
H1472 C1414 0.929 . S
H1473 C1415 0.930 . S
H1474 C1416 0.930 . S
H1475 C1417 0.930 . S
H1476 C1419 0.930 . S
H1477 C1421 0.929 . S
H1478 C1422 0.930 . S
H1479 C1423 0.930 . S
H1480 C1426 0.930 . S
H1481 C1429 0.929 . S
H1482 C1434 0.929 . S
H1483 C1435 0.930 . S
H1484 C1442 0.929 . S
H1485 C1443 0.930 . S
H1486 C1444 0.930 . S
H1487 C1445 0.930 . S
H1488 C1447 0.929 . S
H1489 C1448 0.930 . S
H1490 C1449 0.930 . S
H1491 C1450 0.930 . S
H1492 C1454 0.929 . S
H1493 C1456 0.930 . S
H1494 C1462 0.929 . S
H1495 C1463 0.930 . S
Li1496 N1513 1.990 . S
Li1496 O1556 1.956 . S
Li1496 O1557 1.970 . S
Li1496 O1558 1.961 . S
Li1497 N1521 1.990 . S
Li1497 O1556 1.970 . S
Li1497 O1557 1.956 . S
Li1497 O1559 1.961 . S
Li1498 N1543 1.990 . S
Li1498 O1556 1.961 . S
Li1498 O1558 1.956 . S
Li1498 O1559 1.970 . S
Li1499 N1549 1.990 . S
Li1499 O1557 1.961 . S
Li1499 O1558 1.970 . S
Li1499 O1559 1.956 . S
C1500 C1502 1.348 . S
C1500 C1503 1.356 . S
C1500 O1556 1.325 . S
N1501 C1504 1.314 . S
N1501 C1505 1.279 . S
C1502 C1500 1.348 . S
C1502 C1504 1.353 . S
C1502 H1560 0.929 . S
C1503 C1500 1.356 . S
C1503 C1505 1.358 . S
C1503 H1561 0.930 . S
C1504 N1501 1.314 . S
C1504 C1502 1.353 . S
C1504 H1562 0.930 . S
C1505 N1501 1.279 . S
C1505 C1503 1.358 . S
C1505 H1563 0.930 . S
C1506 C1509 1.348 . S
C1506 C1510 1.356 . S
C1506 O1557 1.325 . S
C1507 N1508 1.279 . S
C1507 C1510 1.358 . S
C1507 H1564 0.930 . S
N1508 C1507 1.279 . S
N1508 C1511 1.314 . S
C1509 C1506 1.348 . S
C1509 C1511 1.353 . S
C1509 H1565 0.929 . S
C1510 C1506 1.356 . S
C1510 C1507 1.358 . S
C1510 H1566 0.930 . S
C1511 N1508 1.314 . S
C1511 C1509 1.353 . S
C1511 H1567 0.930 . S
C1512 N1513 1.314 . S
C1512 C1517 1.353 . S
C1512 H1518 0.930 . S
N1513 Li1496 1.990 . S
N1513 C1512 1.314 . S
N1513 C1515 1.279 . S
C1514 C1515 1.358 . S
C1514 C1516 1.356 . S
C1514 H1568 0.930 . S
C1515 N1513 1.279 . S
C1515 C1514 1.358 . S
C1515 H1519 0.930 . S
C1516 C1514 1.356 . S
C1516 C1517 1.348 . S
C1517 C1512 1.353 . S
C1517 C1516 1.348 . S
C1517 H1569 0.929 . S
H1518 C1512 0.930 . S
H1519 C1515 0.930 . S
C1520 N1521 1.314 . S
C1520 C1522 1.353 . S
C1520 H1526 0.930 . S
N1521 Li1497 1.990 . S
N1521 C1520 1.314 . S
N1521 C1524 1.279 . S
C1522 C1520 1.353 . S
C1522 C1525 1.348 . S
C1522 H1570 0.929 . S
C1523 C1524 1.358 . S
C1523 C1525 1.356 . S
C1523 H1571 0.930 . S
C1524 N1521 1.279 . S
C1524 C1523 1.358 . S
C1524 H1527 0.930 . S
C1525 C1522 1.348 . S
C1525 C1523 1.356 . S
H1526 C1520 0.930 . S
H1527 C1524 0.930 . S
C1528 C1530 1.348 . S
C1528 C1531 1.356 . S
C1528 O1558 1.325 . S
N1529 C1532 1.314 . S
N1529 C1533 1.279 . S
C1530 C1528 1.348 . S
C1530 C1532 1.353 . S
C1530 H1572 0.929 . S
C1531 C1528 1.356 . S
C1531 C1533 1.358 . S
C1531 H1573 0.930 . S
C1532 N1529 1.314 . S
C1532 C1530 1.353 . S
C1532 H1574 0.930 . S
C1533 N1529 1.279 . S
C1533 C1531 1.358 . S
C1533 H1575 0.930 . S
C1534 C1535 1.348 . S
C1534 C1536 1.356 . S
C1534 O1559 1.325 . S
C1535 C1534 1.348 . S
C1535 C1537 1.353 . S
C1535 H1576 0.929 . S
C1536 C1534 1.356 . S
C1536 C1538 1.358 . S
C1536 H1577 0.930 . S
C1537 C1535 1.353 . S
C1537 N1539 1.314 . S
C1537 H1578 0.930 . S
C1538 C1536 1.358 . S
C1538 N1539 1.279 . S
C1538 H1579 0.930 . S
N1539 C1537 1.314 . S
N1539 C1538 1.279 . S
C1540 C1542 1.353 . S
C1540 N1543 1.314 . S
C1540 H1546 0.930 . S
C1541 N1543 1.279 . S
C1541 C1544 1.358 . S
C1541 H1547 0.930 . S
C1542 C1540 1.353 . S
C1542 C1545 1.348 . S
C1542 H1580 0.929 . S
N1543 Li1498 1.990 . S
N1543 C1540 1.314 . S
N1543 C1541 1.279 . S
C1544 C1541 1.358 . S
C1544 C1545 1.356 . S
C1544 H1581 0.930 . S
C1545 C1542 1.348 . S
C1545 C1544 1.356 . S
H1546 C1540 0.930 . S
H1547 C1541 0.930 . S
C1548 N1549 1.314 . S
C1548 C1550 1.353 . S
C1548 H1554 0.930 . S
N1549 Li1499 1.990 . S
N1549 C1548 1.314 . S
N1549 C1552 1.279 . S
C1550 C1548 1.353 . S
C1550 C1553 1.348 . S
C1550 H1582 0.929 . S
C1551 C1552 1.358 . S
C1551 C1553 1.356 . S
C1551 H1583 0.930 . S
C1552 N1549 1.279 . S
C1552 C1551 1.358 . S
C1552 H1555 0.930 . S
C1553 C1550 1.348 . S
C1553 C1551 1.356 . S
H1554 C1548 0.930 . S
H1555 C1552 0.930 . S
O1556 Li1496 1.956 . S
O1556 Li1497 1.970 . S
O1556 Li1498 1.961 . S
O1556 C1500 1.325 . S
O1557 Li1496 1.970 . S
O1557 Li1497 1.956 . S
O1557 Li1499 1.961 . S
O1557 C1506 1.325 . S
O1558 Li1496 1.961 . S
O1558 Li1498 1.956 . S
O1558 Li1499 1.970 . S
O1558 C1528 1.325 . S
O1559 Li1497 1.961 . S
O1559 Li1498 1.970 . S
O1559 Li1499 1.956 . S
O1559 C1534 1.325 . S
H1560 C1502 0.929 . S
H1561 C1503 0.930 . S
H1562 C1504 0.930 . S
H1563 C1505 0.930 . S
H1564 C1507 0.930 . S
H1565 C1509 0.929 . S
H1566 C1510 0.930 . S
H1567 C1511 0.930 . S
H1568 C1514 0.930 . S
H1569 C1517 0.929 . S
H1570 C1522 0.929 . S
H1571 C1523 0.930 . S
H1572 C1530 0.929 . S
H1573 C1531 0.930 . S
H1574 C1532 0.930 . S
H1575 C1533 0.930 . S
H1576 C1535 0.929 . S
H1577 C1536 0.930 . S
H1578 C1537 0.930 . S
H1579 C1538 0.930 . S
H1580 C1542 0.929 . S
H1581 C1544 0.930 . S
H1582 C1550 0.929 . S
H1583 C1551 0.930 . S
Li1584 N1601 1.990 . S
Li1584 O1644 1.956 . S
Li1584 O1645 1.970 . S
Li1584 O1646 1.961 . S
Li1585 N1609 1.990 . S
Li1585 O1644 1.970 . S
Li1585 O1645 1.956 . S
Li1585 O1647 1.961 . S
Li1586 N1631 1.990 . S
Li1586 O1644 1.961 . S
Li1586 O1646 1.956 . S
Li1586 O1647 1.970 . S
Li1587 N1637 1.990 . S
Li1587 O1645 1.961 . S
Li1587 O1646 1.970 . S
Li1587 O1647 1.956 . S
C1588 C1590 1.348 . S
C1588 C1591 1.356 . S
C1588 O1644 1.325 . S
N1589 C1592 1.314 . S
N1589 C1593 1.279 . S
C1590 C1588 1.348 . S
C1590 C1592 1.353 . S
C1590 H1648 0.929 . S
C1591 C1588 1.356 . S
C1591 C1593 1.358 . S
C1591 H1649 0.930 . S
C1592 N1589 1.314 . S
C1592 C1590 1.353 . S
C1592 H1650 0.930 . S
C1593 N1589 1.279 . S
C1593 C1591 1.358 . S
C1593 H1651 0.930 . S
C1594 C1597 1.348 . S
C1594 C1598 1.356 . S
C1594 O1645 1.325 . S
C1595 N1596 1.279 . S
C1595 C1598 1.358 . S
C1595 H1652 0.930 . S
N1596 C1595 1.279 . S
N1596 C1599 1.314 . S
C1597 C1594 1.348 . S
C1597 C1599 1.353 . S
C1597 H1653 0.929 . S
C1598 C1594 1.356 . S
C1598 C1595 1.358 . S
C1598 H1654 0.930 . S
C1599 N1596 1.314 . S
C1599 C1597 1.353 . S
C1599 H1655 0.930 . S
C1600 N1601 1.314 . S
C1600 C1605 1.353 . S
C1600 H1606 0.930 . S
N1601 Li1584 1.990 . S
N1601 C1600 1.314 . S
N1601 C1603 1.279 . S
C1602 C1603 1.358 . S
C1602 C1604 1.356 . S
C1602 H1656 0.930 . S
C1603 N1601 1.279 . S
C1603 C1602 1.358 . S
C1603 H1607 0.930 . S
C1604 C1602 1.356 . S
C1604 C1605 1.348 . S
C1605 C1600 1.353 . S
C1605 C1604 1.348 . S
C1605 H1657 0.929 . S
H1606 C1600 0.930 . S
H1607 C1603 0.930 . S
C1608 N1609 1.314 . S
C1608 C1610 1.353 . S
C1608 H1614 0.930 . S
N1609 Li1585 1.990 . S
N1609 C1608 1.314 . S
N1609 C1612 1.279 . S
C1610 C1608 1.353 . S
C1610 C1613 1.348 . S
C1610 H1658 0.929 . S
C1611 C1612 1.358 . S
C1611 C1613 1.356 . S
C1611 H1659 0.930 . S
C1612 N1609 1.279 . S
C1612 C1611 1.358 . S
C1612 H1615 0.930 . S
C1613 C1610 1.348 . S
C1613 C1611 1.356 . S
H1614 C1608 0.930 . S
H1615 C1612 0.930 . S
C1616 C1618 1.348 . S
C1616 C1619 1.356 . S
C1616 O1646 1.325 . S
N1617 C1620 1.314 . S
N1617 C1621 1.279 . S
C1618 C1616 1.348 . S
C1618 C1620 1.353 . S
C1618 H1660 0.929 . S
C1619 C1616 1.356 . S
C1619 C1621 1.358 . S
C1619 H1661 0.930 . S
C1620 N1617 1.314 . S
C1620 C1618 1.353 . S
C1620 H1662 0.930 . S
C1621 N1617 1.279 . S
C1621 C1619 1.358 . S
C1621 H1663 0.930 . S
C1622 C1623 1.348 . S
C1622 C1624 1.356 . S
C1622 O1647 1.325 . S
C1623 C1622 1.348 . S
C1623 C1625 1.353 . S
C1623 H1664 0.929 . S
C1624 C1622 1.356 . S
C1624 C1626 1.358 . S
C1624 H1665 0.930 . S
C1625 C1623 1.353 . S
C1625 N1627 1.314 . S
C1625 H1666 0.930 . S
C1626 C1624 1.358 . S
C1626 N1627 1.279 . S
C1626 H1667 0.930 . S
N1627 C1625 1.314 . S
N1627 C1626 1.279 . S
C1628 C1630 1.353 . S
C1628 N1631 1.314 . S
C1628 H1634 0.930 . S
C1629 N1631 1.279 . S
C1629 C1632 1.358 . S
C1629 H1635 0.930 . S
C1630 C1628 1.353 . S
C1630 C1633 1.348 . S
C1630 H1668 0.929 . S
N1631 Li1586 1.990 . S
N1631 C1628 1.314 . S
N1631 C1629 1.279 . S
C1632 C1629 1.358 . S
C1632 C1633 1.356 . S
C1632 H1669 0.930 . S
C1633 C1630 1.348 . S
C1633 C1632 1.356 . S
H1634 C1628 0.930 . S
H1635 C1629 0.930 . S
C1636 N1637 1.314 . S
C1636 C1638 1.353 . S
C1636 H1642 0.930 . S
N1637 Li1587 1.990 . S
N1637 C1636 1.314 . S
N1637 C1640 1.279 . S
C1638 C1636 1.353 . S
C1638 C1641 1.348 . S
C1638 H1670 0.929 . S
C1639 C1640 1.358 . S
C1639 C1641 1.356 . S
C1639 H1671 0.930 . S
C1640 N1637 1.279 . S
C1640 C1639 1.358 . S
C1640 H1643 0.930 . S
C1641 C1638 1.348 . S
C1641 C1639 1.356 . S
H1642 C1636 0.930 . S
H1643 C1640 0.930 . S
O1644 Li1584 1.956 . S
O1644 Li1585 1.970 . S
O1644 Li1586 1.961 . S
O1644 C1588 1.325 . S
O1645 Li1584 1.970 . S
O1645 Li1585 1.956 . S
O1645 Li1587 1.961 . S
O1645 C1594 1.325 . S
O1646 Li1584 1.961 . S
O1646 Li1586 1.956 . S
O1646 Li1587 1.970 . S
O1646 C1616 1.325 . S
O1647 Li1585 1.961 . S
O1647 Li1586 1.970 . S
O1647 Li1587 1.956 . S
O1647 C1622 1.325 . S
H1648 C1590 0.929 . S
H1649 C1591 0.930 . S
H1650 C1592 0.930 . S
H1651 C1593 0.930 . S
H1652 C1595 0.930 . S
H1653 C1597 0.929 . S
H1654 C1598 0.930 . S
H1655 C1599 0.930 . S
H1656 C1602 0.930 . S
H1657 C1605 0.929 . S
H1658 C1610 0.929 . S
H1659 C1611 0.930 . S
H1660 C1618 0.929 . S
H1661 C1619 0.930 . S
H1662 C1620 0.930 . S
H1663 C1621 0.930 . S
H1664 C1623 0.929 . S
H1665 C1624 0.930 . S
H1666 C1625 0.930 . S
H1667 C1626 0.930 . S
H1668 C1630 0.929 . S
H1669 C1632 0.930 . S
H1670 C1638 0.929 . S
H1671 C1639 0.930 . S
Li1672 N1689 1.990 1_545 S
Li1672 O1732 1.959 . S
Li1672 O1733 1.970 . S
Li1672 O1734 1.958 1_545 S
Li1673 N1697 1.990 . S
Li1673 O1732 1.970 . S
Li1673 O1733 1.956 . S
Li1673 O1735 1.961 . S
Li1674 N1719 1.990 . S
Li1674 O1732 1.961 1_565 S
Li1674 O1734 1.956 . S
Li1674 O1735 1.970 1_565 S
Li1675 N1725 1.990 . S
Li1675 O1733 1.961 1_565 S
Li1675 O1734 1.970 . S
Li1675 O1735 1.956 1_565 S
C1676 C1678 1.348 . S
C1676 C1679 1.356 . S
C1676 O1732 1.325 . S
N1677 C1680 1.314 . S
N1677 C1681 1.279 . S
C1678 C1676 1.348 . S
C1678 C1680 1.353 . S
C1678 H1736 0.929 . S
C1679 C1676 1.356 . S
C1679 C1681 1.358 . S
C1679 H1737 0.930 . S
C1680 N1677 1.314 . S
C1680 C1678 1.353 . S
C1680 H1738 0.930 . S
C1681 N1677 1.279 . S
C1681 C1679 1.358 . S
C1681 H1739 0.930 . S
C1682 C1685 1.348 . S
C1682 C1686 1.356 . S
C1682 O1733 1.325 . S
C1683 N1684 1.279 . S
C1683 C1686 1.358 . S
C1683 H1740 0.930 . S
N1684 C1683 1.279 . S
N1684 C1687 1.314 . S
C1685 C1682 1.348 . S
C1685 C1687 1.353 . S
C1685 H1741 0.929 . S
C1686 C1682 1.356 . S
C1686 C1683 1.358 . S
C1686 H1742 0.930 . S
C1687 N1684 1.314 . S
C1687 C1685 1.353 . S
C1687 H1743 0.930 . S
C1688 N1689 1.314 . S
C1688 C1693 1.353 . S
C1688 H1694 0.930 . S
N1689 Li1672 1.990 1_565 S
N1689 C1688 1.314 . S
N1689 C1691 1.279 1_565 S
C1690 C1691 1.358 . S
C1690 C1692 1.356 1_545 S
C1690 H1744 0.930 . S
C1691 N1689 1.279 1_545 S
C1691 C1690 1.358 . S
C1691 H1695 0.930 . S
C1692 C1690 1.356 1_565 S
C1692 C1693 1.348 . S
C1693 C1688 1.353 . S
C1693 C1692 1.348 . S
C1693 H1745 0.929 . S
H1694 C1688 0.930 . S
H1695 C1691 0.930 . S
C1696 N1697 1.314 . S
C1696 C1698 1.353 . S
C1696 H1702 0.930 . S
N1697 Li1673 1.990 . S
N1697 C1696 1.314 . S
N1697 C1700 1.279 . S
C1698 C1696 1.353 . S
C1698 C1701 1.348 . S
C1698 H1746 0.929 . S
C1699 C1700 1.358 . S
C1699 C1701 1.356 . S
C1699 H1747 0.930 . S
C1700 N1697 1.279 . S
C1700 C1699 1.358 . S
C1700 H1703 0.930 . S
C1701 C1698 1.348 . S
C1701 C1699 1.356 . S
H1702 C1696 0.930 . S
H1703 C1700 0.930 . S
C1704 C1706 1.348 . S
C1704 C1707 1.356 . S
C1704 O1734 1.325 . S
N1705 C1708 1.314 . S
N1705 C1709 1.279 . S
C1706 C1704 1.348 . S
C1706 C1708 1.353 . S
C1706 H1748 0.929 . S
C1707 C1704 1.356 . S
C1707 C1709 1.358 . S
C1707 H1749 0.930 . S
C1708 N1705 1.314 . S
C1708 C1706 1.353 . S
C1708 H1750 0.930 . S
C1709 N1705 1.279 . S
C1709 C1707 1.358 . S
C1709 H1751 0.930 . S
C1710 C1711 1.348 1_545 S
C1710 C1712 1.356 . S
C1710 O1735 1.325 . S
C1711 C1710 1.348 1_565 S
C1711 C1713 1.353 . S
C1711 H1752 0.929 . S
C1712 C1710 1.356 . S
C1712 C1714 1.358 . S
C1712 H1753 0.930 . S
C1713 C1711 1.353 . S
C1713 N1715 1.314 1_565 S
C1713 H1754 0.930 . S
C1714 C1712 1.358 . S
C1714 N1715 1.279 . S
C1714 H1755 0.930 . S
N1715 C1713 1.314 1_545 S
N1715 C1714 1.279 . S
C1716 C1718 1.353 . S
C1716 N1719 1.314 1_545 S
C1716 H1722 0.930 . S
C1717 N1719 1.279 . S
C1717 C1720 1.358 . S
C1717 H1723 0.930 . S
C1718 C1716 1.353 . S
C1718 C1721 1.348 1_545 S
C1718 H1756 0.929 . S
N1719 Li1674 1.990 . S
N1719 C1716 1.314 1_565 S
N1719 C1717 1.279 . S
C1720 C1717 1.358 . S
C1720 C1721 1.356 . S
C1720 H1757 0.930 . S
C1721 C1718 1.348 1_565 S
C1721 C1720 1.356 . S
H1722 C1716 0.930 . S
H1723 C1717 0.930 . S
C1724 N1725 1.314 . S
C1724 C1726 1.353 . S
C1724 H1730 0.930 . S
N1725 Li1675 1.990 . S
N1725 C1724 1.314 . S
N1725 C1728 1.279 . S
C1726 C1724 1.353 . S
C1726 C1729 1.348 . S
C1726 H1758 0.929 . S
C1727 C1728 1.358 . S
C1727 C1729 1.356 . S
C1727 H1759 0.930 . S
C1728 N1725 1.279 . S
C1728 C1727 1.358 . S
C1728 H1731 0.930 . S
C1729 C1726 1.348 . S
C1729 C1727 1.356 . S
H1730 C1724 0.930 . S
H1731 C1728 0.930 . S
O1732 Li1672 1.959 . S
O1732 Li1673 1.970 . S
O1732 Li1674 1.961 1_545 S
O1732 C1676 1.325 . S
O1733 Li1672 1.970 . S
O1733 Li1673 1.956 . S
O1733 Li1675 1.961 1_545 S
O1733 C1682 1.325 . S
O1734 Li1672 1.958 1_565 S
O1734 Li1674 1.956 . S
O1734 Li1675 1.970 . S
O1734 C1704 1.325 . S
O1735 Li1673 1.961 . S
O1735 Li1674 1.970 1_545 S
O1735 Li1675 1.956 1_545 S
O1735 C1710 1.325 . S
H1736 C1678 0.929 . S
H1737 C1679 0.930 . S
H1738 C1680 0.930 . S
H1739 C1681 0.930 . S
H1740 C1683 0.930 . S
H1741 C1685 0.929 . S
H1742 C1686 0.930 . S
H1743 C1687 0.930 . S
H1744 C1690 0.930 . S
H1745 C1693 0.929 . S
H1746 C1698 0.929 . S
H1747 C1699 0.930 . S
H1748 C1706 0.929 . S
H1749 C1707 0.930 . S
H1750 C1708 0.930 . S
H1751 C1709 0.930 . S
H1752 C1711 0.929 . S
H1753 C1712 0.930 . S
H1754 C1713 0.930 . S
H1755 C1714 0.930 . S
H1756 C1718 0.929 . S
H1757 C1720 0.930 . S
H1758 C1726 0.929 . S
H1759 C1727 0.930 . S
Li1760 N1777 1.990 . S
Li1760 O1820 1.956 . S
Li1760 O1821 1.970 . S
Li1760 O1822 1.961 . S
Li1761 N1785 1.990 . S
Li1761 O1820 1.970 . S
Li1761 O1821 1.956 . S
Li1761 O1823 1.961 1_554 S
Li1762 N1807 2.015 . S
Li1762 O1820 1.943 1_556 S
Li1762 O1822 1.933 1_556 S
Li1762 O1823 1.972 . S
Li1763 N1813 1.990 . S
Li1763 O1821 1.961 . S
Li1763 O1822 1.970 . S
Li1763 O1823 1.956 1_554 S
C1764 C1766 1.348 . S
C1764 C1767 1.356 . S
C1764 O1820 1.325 . S
N1765 C1768 1.314 . S
N1765 C1769 1.279 . S
C1766 C1764 1.348 . S
C1766 C1768 1.353 . S
C1766 H1824 0.929 . S
C1767 C1764 1.356 . S
C1767 C1769 1.358 . S
C1767 H1825 0.930 . S
C1768 N1765 1.314 . S
C1768 C1766 1.353 . S
C1768 H1826 0.930 . S
C1769 N1765 1.279 . S
C1769 C1767 1.358 . S
C1769 H1827 0.930 . S
C1770 C1773 1.348 . S
C1770 C1774 1.356 . S
C1770 O1821 1.325 . S
C1771 N1772 1.279 . S
C1771 C1774 1.358 . S
C1771 H1828 0.930 . S
N1772 C1771 1.279 . S
N1772 C1775 1.314 . S
C1773 C1770 1.348 . S
C1773 C1775 1.353 . S
C1773 H1829 0.929 . S
C1774 C1770 1.356 . S
C1774 C1771 1.358 . S
C1774 H1830 0.930 . S
C1775 N1772 1.314 . S
C1775 C1773 1.353 . S
C1775 H1831 0.930 . S
C1776 N1777 1.314 . S
C1776 C1781 1.353 . S
C1776 H1782 0.930 . S
N1777 Li1760 1.990 . S
N1777 C1776 1.314 . S
N1777 C1779 1.279 . S
C1778 C1779 1.358 . S
C1778 C1780 1.356 . S
C1778 H1832 0.930 . S
C1779 N1777 1.279 . S
C1779 C1778 1.358 . S
C1779 H1783 0.930 . S
C1780 C1778 1.356 . S
C1780 C1781 1.348 . S
C1781 C1776 1.353 . S
C1781 C1780 1.348 . S
C1781 H1833 0.929 . S
H1782 C1776 0.930 . S
H1783 C1779 0.930 . S
C1784 N1785 1.314 . S
C1784 C1786 1.353 . S
C1784 H1790 0.930 1_554 S
N1785 Li1761 1.990 . S
N1785 C1784 1.314 . S
N1785 C1788 1.279 . S
C1786 C1784 1.353 . S
C1786 C1789 1.348 . S
C1786 H1834 0.929 1_554 S
C1787 C1788 1.358 . S
C1787 C1789 1.356 . S
C1787 H1835 0.930 . S
C1788 N1785 1.279 . S
C1788 C1787 1.358 . S
C1788 H1791 0.930 . S
C1789 C1786 1.348 . S
C1789 C1787 1.356 . S
H1790 C1784 0.930 1_556 S
H1791 C1788 0.930 . S
C1792 C1794 1.348 . S
C1792 C1795 1.356 . S
C1792 O1822 1.325 . S
N1793 C1796 1.314 . S
N1793 C1797 1.279 . S
C1794 C1792 1.348 . S
C1794 C1796 1.353 . S
C1794 H1836 0.929 . S
C1795 C1792 1.356 . S
C1795 C1797 1.358 . S
C1795 H1837 0.930 . S
C1796 N1793 1.314 . S
C1796 C1794 1.353 . S
C1796 H1838 0.930 . S
C1797 N1793 1.279 . S
C1797 C1795 1.358 . S
C1797 H1839 0.930 . S
C1798 C1799 1.348 . S
C1798 C1800 1.356 . S
C1798 O1823 1.325 . S
C1799 C1798 1.348 . S
C1799 C1801 1.353 . S
C1799 H1840 0.929 . S
C1800 C1798 1.356 . S
C1800 C1802 1.358 . S
C1800 H1841 0.930 . S
C1801 C1799 1.353 . S
C1801 N1803 1.314 . S
C1801 H1842 0.930 . S
C1802 C1800 1.358 . S
C1802 N1803 1.279 . S
C1802 H1843 0.930 . S
N1803 C1801 1.314 . S
N1803 C1802 1.279 . S
C1804 C1806 1.353 . S
C1804 N1807 1.314 . S
C1804 H1810 0.930 . S
C1805 N1807 1.279 . S
C1805 C1808 1.358 . S
C1805 H1811 0.930 . S
C1806 C1804 1.353 . S
C1806 C1809 1.348 . S
C1806 H1844 0.929 . S
N1807 Li1762 2.015 . S
N1807 C1804 1.314 . S
N1807 C1805 1.279 . S
C1808 C1805 1.358 . S
C1808 C1809 1.356 . S
C1808 H1845 0.930 . S
C1809 C1806 1.348 . S
C1809 C1808 1.356 . S
H1810 C1804 0.930 . S
H1811 C1805 0.930 . S
C1812 N1813 1.314 . S
C1812 C1814 1.353 . S
C1812 H1818 0.930 . S
N1813 Li1763 1.990 . S
N1813 C1812 1.314 . S
N1813 C1816 1.279 1_554 S
C1814 C1812 1.353 . S
C1814 C1817 1.348 . S
C1814 H1846 0.929 . S
C1815 C1816 1.358 . S
C1815 C1817 1.356 1_556 S
C1815 H1847 0.930 . S
C1816 N1813 1.279 1_556 S
C1816 C1815 1.358 . S
C1816 H1819 0.930 . S
C1817 C1814 1.348 . S
C1817 C1815 1.356 1_554 S
H1818 C1812 0.930 . S
H1819 C1816 0.930 . S
O1820 Li1760 1.956 . S
O1820 Li1761 1.970 . S
O1820 Li1762 1.943 1_554 S
O1820 C1764 1.325 . S
O1821 Li1760 1.970 . S
O1821 Li1761 1.956 . S
O1821 Li1763 1.961 . S
O1821 C1770 1.325 . S
O1822 Li1760 1.961 . S
O1822 Li1762 1.933 1_554 S
O1822 Li1763 1.970 . S
O1822 C1792 1.325 . S
O1823 Li1761 1.961 1_556 S
O1823 Li1762 1.972 . S
O1823 Li1763 1.956 1_556 S
O1823 C1798 1.325 . S
H1824 C1766 0.929 . S
H1825 C1767 0.930 . S
H1826 C1768 0.930 . S
H1827 C1769 0.930 . S
H1828 C1771 0.930 . S
H1829 C1773 0.929 . S
H1830 C1774 0.930 . S
H1831 C1775 0.930 . S
H1832 C1778 0.930 . S
H1833 C1781 0.929 . S
H1834 C1786 0.929 1_556 S
H1835 C1787 0.930 . S
H1836 C1794 0.929 . S
H1837 C1795 0.930 . S
H1838 C1796 0.930 . S
H1839 C1797 0.930 . S
H1840 C1799 0.929 . S
H1841 C1800 0.930 . S
H1842 C1801 0.930 . S
H1843 C1802 0.930 . S
H1844 C1806 0.929 . S
H1845 C1808 0.930 . S
H1846 C1814 0.929 . S
H1847 C1815 0.930 . S
Li1848 N1865 1.990 . S
Li1848 O1908 1.956 . S
Li1848 O1909 1.970 . S
Li1848 O1910 1.961 . S
Li1849 N1873 1.990 . S
Li1849 O1908 1.970 . S
Li1849 O1909 1.956 . S
Li1849 O1911 1.961 . S
Li1850 N1895 1.990 . S
Li1850 O1908 1.961 . S
Li1850 O1910 1.956 . S
Li1850 O1911 1.970 . S
Li1851 N1901 1.990 . S
Li1851 O1909 1.961 . S
Li1851 O1910 1.970 . S
Li1851 O1911 1.956 . S
C1852 C1854 1.348 . S
C1852 C1855 1.356 . S
C1852 O1908 1.325 . S
N1853 C1856 1.314 . S
N1853 C1857 1.279 . S
C1854 C1852 1.348 . S
C1854 C1856 1.353 . S
C1854 H1912 0.929 . S
C1855 C1852 1.356 . S
C1855 C1857 1.358 . S
C1855 H1913 0.930 . S
C1856 N1853 1.314 . S
C1856 C1854 1.353 . S
C1856 H1914 0.930 . S
C1857 N1853 1.279 . S
C1857 C1855 1.358 . S
C1857 H1915 0.930 . S
C1858 C1861 1.348 . S
C1858 C1862 1.365 . S
C1858 O1909 1.325 . S
C1859 N1860 1.279 . S
C1859 C1862 1.353 1_455 S
C1859 H1916 0.930 . S
N1860 C1859 1.279 . S
N1860 C1863 1.314 1_455 S
C1861 C1858 1.348 . S
C1861 C1863 1.353 . S
C1861 H1917 0.929 . S
C1862 C1858 1.365 . S
C1862 C1859 1.353 1_655 S
C1862 H1918 0.927 1_655 S
C1863 N1860 1.314 1_655 S
C1863 C1861 1.353 . S
C1863 H1919 0.930 . S
C1864 N1865 1.314 . S
C1864 C1869 1.353 . S
C1864 H1870 0.930 . S
N1865 Li1848 1.990 . S
N1865 C1864 1.314 . S
N1865 C1867 1.279 . S
C1866 C1867 1.358 . S
C1866 C1868 1.356 . S
C1866 H1920 0.930 . S
C1867 N1865 1.279 . S
C1867 C1866 1.358 . S
C1867 H1871 0.930 . S
C1868 C1866 1.356 . S
C1868 C1869 1.348 . S
C1869 C1864 1.353 . S
C1869 C1868 1.348 . S
C1869 H1921 0.929 . S
H1870 C1864 0.930 . S
H1871 C1867 0.930 . S
C1872 N1873 1.314 . S
C1872 C1874 1.353 1_655 S
C1872 H1878 0.930 . S
N1873 Li1849 1.990 . S
N1873 C1872 1.314 . S
N1873 C1876 1.279 1_655 S
C1874 C1872 1.353 1_455 S
C1874 C1877 1.348 . S
C1874 H1922 0.929 . S
C1875 C1876 1.358 . S
C1875 C1877 1.356 . S
C1875 H1923 0.930 . S
C1876 N1873 1.279 1_455 S
C1876 C1875 1.358 . S
C1876 H1879 0.930 1_455 S
C1877 C1874 1.348 . S
C1877 C1875 1.356 . S
H1878 C1872 0.930 . S
H1879 C1876 0.930 1_655 S
C1880 C1882 1.348 . S
C1880 C1883 1.356 . S
C1880 O1910 1.325 . S
N1881 C1884 1.314 . S
N1881 C1885 1.279 . S
C1882 C1880 1.348 . S
C1882 C1884 1.353 . S
C1882 H1924 0.929 . S
C1883 C1880 1.356 . S
C1883 C1885 1.358 . S
C1883 H1925 0.930 . S
C1884 N1881 1.314 . S
C1884 C1882 1.353 . S
C1884 H1926 0.930 . S
C1885 N1881 1.279 . S
C1885 C1883 1.358 . S
C1885 H1927 0.930 . S
C1886 C1887 1.348 . S
C1886 C1888 1.356 1_655 S
C1886 O1911 1.325 . S
C1887 C1886 1.348 . S
C1887 C1889 1.353 . S
C1887 H1928 0.929 . S
C1888 C1886 1.356 1_455 S
C1888 C1890 1.358 . S
C1888 H1929 0.930 . S
C1889 C1887 1.353 . S
C1889 N1891 1.314 1_655 S
C1889 H1930 0.930 . S
C1890 C1888 1.358 . S
C1890 N1891 1.279 . S
C1890 H1931 0.930 . S
N1891 C1889 1.314 1_455 S
N1891 C1890 1.279 . S
C1892 C1894 1.353 . S
C1892 N1895 1.314 . S
C1892 H1898 0.930 . S
C1893 N1895 1.279 . S
C1893 C1896 1.358 . S
C1893 H1899 0.930 . S
C1894 C1892 1.353 . S
C1894 C1897 1.348 . S
C1894 H1932 0.929 . S
N1895 Li1850 1.990 . S
N1895 C1892 1.314 . S
N1895 C1893 1.279 . S
C1896 C1893 1.358 . S
C1896 C1897 1.356 . S
C1896 H1933 0.930 . S
C1897 C1894 1.348 . S
C1897 C1896 1.356 . S
H1898 C1892 0.930 . S
H1899 C1893 0.930 . S
C1900 N1901 1.314 . S
C1900 C1902 1.353 . S
C1900 H1906 0.930 . S
N1901 Li1851 1.990 . S
N1901 C1900 1.314 . S
N1901 C1904 1.279 . S
C1902 C1900 1.353 . S
C1902 C1905 1.348 1_655 S
C1902 H1934 0.929 . S
C1903 C1904 1.358 1_455 S
C1903 C1905 1.356 . S
C1903 H1935 0.930 . S
C1904 N1901 1.279 . S
C1904 C1903 1.358 1_655 S
C1904 H1907 0.930 . S
C1905 C1902 1.348 1_455 S
C1905 C1903 1.356 . S
H1906 C1900 0.930 . S
H1907 C1904 0.930 . S
O1908 Li1848 1.956 . S
O1908 Li1849 1.970 . S
O1908 Li1850 1.961 . S
O1908 C1852 1.325 . S
O1909 Li1848 1.970 . S
O1909 Li1849 1.956 . S
O1909 Li1851 1.961 . S
O1909 C1858 1.325 . S
O1910 Li1848 1.961 . S
O1910 Li1850 1.956 . S
O1910 Li1851 1.970 . S
O1910 C1880 1.325 . S
O1911 Li1849 1.961 . S
O1911 Li1850 1.970 . S
O1911 Li1851 1.956 . S
O1911 C1886 1.325 . S
H1912 C1854 0.929 . S
H1913 C1855 0.930 . S
H1914 C1856 0.930 . S
H1915 C1857 0.930 . S
H1916 C1859 0.930 . S
H1917 C1861 0.929 . S
H1918 C1862 0.927 1_455 S
H1919 C1863 0.930 . S
H1920 C1866 0.930 . S
H1921 C1869 0.929 . S
H1922 C1874 0.929 . S
H1923 C1875 0.930 . S
H1924 C1882 0.929 . S
H1925 C1883 0.930 . S
H1926 C1884 0.930 . S
H1927 C1885 0.930 . S
H1928 C1887 0.929 . S
H1929 C1888 0.930 . S
H1930 C1889 0.930 . S
H1931 C1890 0.930 . S
H1932 C1894 0.929 . S
H1933 C1896 0.930 . S
H1934 C1902 0.929 . S
H1935 C1903 0.930 . S
Li1936 N1953 1.990 . S
Li1936 O1996 1.956 . S
Li1936 O1997 1.970 . S
Li1936 O1998 1.961 . S
Li1937 N1961 1.990 . S
Li1937 O1996 1.970 . S
Li1937 O1997 1.956 . S
Li1937 O1999 1.961 . S
Li1938 N1983 1.990 . S
Li1938 O1996 1.961 . S
Li1938 O1998 1.956 . S
Li1938 O1999 1.970 . S
Li1939 N1989 1.990 . S
Li1939 O1997 1.961 . S
Li1939 O1998 1.970 . S
Li1939 O1999 1.956 . S
C1940 C1942 1.348 . S
C1940 C1943 1.356 . S
C1940 O1996 1.325 . S
N1941 C1944 1.314 . S
N1941 C1945 1.279 . S
C1942 C1940 1.348 . S
C1942 C1944 1.353 . S
C1942 H2000 0.929 . S
C1943 C1940 1.356 . S
C1943 C1945 1.358 . S
C1943 H2001 0.930 . S
C1944 N1941 1.314 . S
C1944 C1942 1.353 . S
C1944 H2002 0.930 . S
C1945 N1941 1.279 . S
C1945 C1943 1.358 . S
C1945 H2003 0.930 . S
C1946 C1949 1.348 . S
C1946 C1950 1.356 . S
C1946 O1997 1.325 . S
C1947 N1948 1.279 . S
C1947 C1950 1.358 . S
C1947 H2004 0.930 . S
N1948 C1947 1.279 . S
N1948 C1951 1.314 . S
C1949 C1946 1.348 . S
C1949 C1951 1.353 . S
C1949 H2005 0.929 . S
C1950 C1946 1.356 . S
C1950 C1947 1.358 . S
C1950 H2006 0.930 . S
C1951 N1948 1.314 . S
C1951 C1949 1.353 . S
C1951 H2007 0.930 . S
C1952 N1953 1.314 . S
C1952 C1957 1.353 . S
C1952 H1958 0.930 . S
N1953 Li1936 1.990 . S
N1953 C1952 1.314 . S
N1953 C1955 1.279 . S
C1954 C1955 1.358 . S
C1954 C1956 1.356 . S
C1954 H2008 0.930 . S
C1955 N1953 1.279 . S
C1955 C1954 1.358 . S
C1955 H1959 0.930 . S
C1956 C1954 1.356 . S
C1956 C1957 1.348 . S
C1957 C1952 1.353 . S
C1957 C1956 1.348 . S
C1957 H2009 0.929 . S
H1958 C1952 0.930 . S
H1959 C1955 0.930 . S
C1960 N1961 1.314 . S
C1960 C1962 1.353 . S
C1960 H1966 0.930 . S
N1961 Li1937 1.990 . S
N1961 C1960 1.314 . S
N1961 C1964 1.279 . S
C1962 C1960 1.353 . S
C1962 C1965 1.348 . S
C1962 H2010 0.929 . S
C1963 C1964 1.358 . S
C1963 C1965 1.356 . S
C1963 H2011 0.930 . S
C1964 N1961 1.279 . S
C1964 C1963 1.358 . S
C1964 H1967 0.930 . S
C1965 C1962 1.348 . S
C1965 C1963 1.356 . S
H1966 C1960 0.930 . S
H1967 C1964 0.930 . S
C1968 C1970 1.348 . S
C1968 C1971 1.356 . S
C1968 O1998 1.325 . S
N1969 C1972 1.314 . S
N1969 C1973 1.279 . S
C1970 C1968 1.348 . S
C1970 C1972 1.353 . S
C1970 H2012 0.929 . S
C1971 C1968 1.356 . S
C1971 C1973 1.358 . S
C1971 H2013 0.930 . S
C1972 N1969 1.314 . S
C1972 C1970 1.353 . S
C1972 H2014 0.930 . S
C1973 N1969 1.279 . S
C1973 C1971 1.358 . S
C1973 H2015 0.930 . S
C1974 C1975 1.348 . S
C1974 C1976 1.356 . S
C1974 O1999 1.325 . S
C1975 C1974 1.348 . S
C1975 C1977 1.353 . S
C1975 H2016 0.929 . S
C1976 C1974 1.356 . S
C1976 C1978 1.358 . S
C1976 H2017 0.930 . S
C1977 C1975 1.353 . S
C1977 N1979 1.314 . S
C1977 H2018 0.930 . S
C1978 C1976 1.358 . S
C1978 N1979 1.279 . S
C1978 H2019 0.930 . S
N1979 C1977 1.314 . S
N1979 C1978 1.279 . S
C1980 C1982 1.353 . S
C1980 N1983 1.314 . S
C1980 H1986 0.930 . S
C1981 N1983 1.279 . S
C1981 C1984 1.358 . S
C1981 H1987 0.930 . S
C1982 C1980 1.353 . S
C1982 C1985 1.348 . S
C1982 H2020 0.929 . S
N1983 Li1938 1.990 . S
N1983 C1980 1.314 . S
N1983 C1981 1.279 . S
C1984 C1981 1.358 . S
C1984 C1985 1.356 . S
C1984 H2021 0.930 . S
C1985 C1982 1.348 . S
C1985 C1984 1.356 . S
H1986 C1980 0.930 . S
H1987 C1981 0.930 . S
C1988 N1989 1.314 . S
C1988 C1990 1.353 . S
C1988 H1994 0.930 . S
N1989 Li1939 1.990 . S
N1989 C1988 1.314 . S
N1989 C1992 1.279 . S
C1990 C1988 1.353 . S
C1990 C1993 1.348 . S
C1990 H2022 0.929 . S
C1991 C1992 1.358 . S
C1991 C1993 1.356 . S
C1991 H2023 0.930 . S
C1992 N1989 1.279 . S
C1992 C1991 1.358 . S
C1992 H1995 0.930 . S
C1993 C1990 1.348 . S
C1993 C1991 1.356 . S
H1994 C1988 0.930 . S
H1995 C1992 0.930 . S
O1996 Li1936 1.956 . S
O1996 Li1937 1.970 . S
O1996 Li1938 1.961 . S
O1996 C1940 1.325 . S
O1997 Li1936 1.970 . S
O1997 Li1937 1.956 . S
O1997 Li1939 1.961 . S
O1997 C1946 1.325 . S
O1998 Li1936 1.961 . S
O1998 Li1938 1.956 . S
O1998 Li1939 1.970 . S
O1998 C1968 1.325 . S
O1999 Li1937 1.961 . S
O1999 Li1938 1.970 . S
O1999 Li1939 1.956 . S
O1999 C1974 1.325 . S
H2000 C1942 0.929 . S
H2001 C1943 0.930 . S
H2002 C1944 0.930 . S
H2003 C1945 0.930 . S
H2004 C1947 0.930 . S
H2005 C1949 0.929 . S
H2006 C1950 0.930 . S
H2007 C1951 0.930 . S
H2008 C1954 0.930 . S
H2009 C1957 0.929 . S
H2010 C1962 0.929 . S
H2011 C1963 0.930 . S
H2012 C1970 0.929 . S
H2013 C1971 0.930 . S
H2014 C1972 0.930 . S
H2015 C1973 0.930 . S
H2016 C1975 0.929 . S
H2017 C1976 0.930 . S
H2018 C1977 0.930 . S
H2019 C1978 0.930 . S
H2020 C1982 0.929 . S
H2021 C1984 0.930 . S
H2022 C1990 0.929 . S
H2023 C1991 0.930 . S
Li2024 N2041 1.990 . S
Li2024 O2084 1.956 . S
Li2024 O2085 1.970 . S
Li2024 O2086 1.961 . S
Li2025 N2049 1.990 . S
Li2025 O2084 1.970 . S
Li2025 O2085 1.956 . S
Li2025 O2087 1.961 . S
Li2026 N2071 1.990 . S
Li2026 O2084 1.961 . S
Li2026 O2086 1.956 . S
Li2026 O2087 1.970 . S
Li2027 N2077 1.990 . S
Li2027 O2085 1.961 . S
Li2027 O2086 1.970 . S
Li2027 O2087 1.956 . S
C2028 C2030 1.348 . S
C2028 C2031 1.356 . S
C2028 O2084 1.325 . S
N2029 C2032 1.314 . S
N2029 C2033 1.279 . S
C2030 C2028 1.348 . S
C2030 C2032 1.353 . S
C2030 H2088 0.929 . S
C2031 C2028 1.356 . S
C2031 C2033 1.358 . S
C2031 H2089 0.930 . S
C2032 N2029 1.314 . S
C2032 C2030 1.353 . S
C2032 H2090 0.930 . S
C2033 N2029 1.279 . S
C2033 C2031 1.358 . S
C2033 H2091 0.930 . S
C2034 C2037 1.348 . S
C2034 C2038 1.356 . S
C2034 O2085 1.325 . S
C2035 N2036 1.279 . S
C2035 C2038 1.358 . S
C2035 H2092 0.930 . S
N2036 C2035 1.279 . S
N2036 C2039 1.314 . S
C2037 C2034 1.348 . S
C2037 C2039 1.353 . S
C2037 H2093 0.929 . S
C2038 C2034 1.356 . S
C2038 C2035 1.358 . S
C2038 H2094 0.930 . S
C2039 N2036 1.314 . S
C2039 C2037 1.353 . S
C2039 H2095 0.930 . S
C2040 N2041 1.314 . S
C2040 C2045 1.353 . S
C2040 H2046 0.930 . S
N2041 Li2024 1.990 . S
N2041 C2040 1.314 . S
N2041 C2043 1.279 . S
C2042 C2043 1.358 . S
C2042 C2044 1.356 . S
C2042 H2096 0.930 . S
C2043 N2041 1.279 . S
C2043 C2042 1.358 . S
C2043 H2047 0.930 . S
C2044 C2042 1.356 . S
C2044 C2045 1.348 . S
C2045 C2040 1.353 . S
C2045 C2044 1.348 . S
C2045 H2097 0.929 . S
H2046 C2040 0.930 . S
H2047 C2043 0.930 . S
C2048 N2049 1.314 . S
C2048 C2050 1.353 . S
C2048 H2054 0.930 . S
N2049 Li2025 1.990 . S
N2049 C2048 1.314 . S
N2049 C2052 1.279 . S
C2050 C2048 1.353 . S
C2050 C2053 1.348 . S
C2050 H2098 0.929 . S
C2051 C2052 1.358 . S
C2051 C2053 1.356 . S
C2051 H2099 0.930 . S
C2052 N2049 1.279 . S
C2052 C2051 1.358 . S
C2052 H2055 0.930 . S
C2053 C2050 1.348 . S
C2053 C2051 1.356 . S
H2054 C2048 0.930 . S
H2055 C2052 0.930 . S
C2056 C2058 1.348 . S
C2056 C2059 1.356 . S
C2056 O2086 1.325 . S
N2057 C2060 1.314 . S
N2057 C2061 1.279 . S
C2058 C2056 1.348 . S
C2058 C2060 1.353 . S
C2058 H2100 0.929 . S
C2059 C2056 1.356 . S
C2059 C2061 1.358 . S
C2059 H2101 0.930 . S
C2060 N2057 1.314 . S
C2060 C2058 1.353 . S
C2060 H2102 0.930 . S
C2061 N2057 1.279 . S
C2061 C2059 1.358 . S
C2061 H2103 0.930 . S
C2062 C2063 1.348 . S
C2062 C2064 1.356 . S
C2062 O2087 1.325 . S
C2063 C2062 1.348 . S
C2063 C2065 1.353 . S
C2063 H2104 0.929 . S
C2064 C2062 1.356 . S
C2064 C2066 1.358 . S
C2064 H2105 0.930 . S
C2065 C2063 1.353 . S
C2065 N2067 1.314 . S
C2065 H2106 0.930 . S
C2066 C2064 1.358 . S
C2066 N2067 1.279 . S
C2066 H2107 0.930 . S
N2067 C2065 1.314 . S
N2067 C2066 1.279 . S
C2068 C2070 1.353 . S
C2068 N2071 1.314 . S
C2068 H2074 0.930 . S
C2069 N2071 1.279 . S
C2069 C2072 1.358 . S
C2069 H2075 0.930 . S
C2070 C2068 1.353 . S
C2070 C2073 1.348 . S
C2070 H2108 0.929 . S
N2071 Li2026 1.990 . S
N2071 C2068 1.314 . S
N2071 C2069 1.279 . S
C2072 C2069 1.358 . S
C2072 C2073 1.356 . S
C2072 H2109 0.930 . S
C2073 C2070 1.348 . S
C2073 C2072 1.356 . S
H2074 C2068 0.930 . S
H2075 C2069 0.930 . S
C2076 N2077 1.314 . S
C2076 C2078 1.353 . S
C2076 H2082 0.930 . S
N2077 Li2027 1.990 . S
N2077 C2076 1.314 . S
N2077 C2080 1.279 . S
C2078 C2076 1.353 . S
C2078 C2081 1.348 . S
C2078 H2110 0.929 . S
C2079 C2080 1.358 . S
C2079 C2081 1.356 . S
C2079 H2111 0.930 . S
C2080 N2077 1.279 . S
C2080 C2079 1.358 . S
C2080 H2083 0.930 . S
C2081 C2078 1.348 . S
C2081 C2079 1.356 . S
H2082 C2076 0.930 . S
H2083 C2080 0.930 . S
O2084 Li2024 1.956 . S
O2084 Li2025 1.970 . S
O2084 Li2026 1.961 . S
O2084 C2028 1.325 . S
O2085 Li2024 1.970 . S
O2085 Li2025 1.956 . S
O2085 Li2027 1.961 . S
O2085 C2034 1.325 . S
O2086 Li2024 1.961 . S
O2086 Li2026 1.956 . S
O2086 Li2027 1.970 . S
O2086 C2056 1.325 . S
O2087 Li2025 1.961 . S
O2087 Li2026 1.970 . S
O2087 Li2027 1.956 . S
O2087 C2062 1.325 . S
H2088 C2030 0.929 . S
H2089 C2031 0.930 . S
H2090 C2032 0.930 . S
H2091 C2033 0.930 . S
H2092 C2035 0.930 . S
H2093 C2037 0.929 . S
H2094 C2038 0.930 . S
H2095 C2039 0.930 . S
H2096 C2042 0.930 . S
H2097 C2045 0.929 . S
H2098 C2050 0.929 . S
H2099 C2051 0.930 . S
H2100 C2058 0.929 . S
H2101 C2059 0.930 . S
H2102 C2060 0.930 . S
H2103 C2061 0.930 . S
H2104 C2063 0.929 . S
H2105 C2064 0.930 . S
H2106 C2065 0.930 . S
H2107 C2066 0.930 . S
H2108 C2070 0.929 . S
H2109 C2072 0.930 . S
H2110 C2078 0.929 . S
H2111 C2079 0.930 . S
Pr2112 C2114 2.880 1_454 S
Pr2112 O2132 2.562 1_455 S
Pr2112 O2133 2.490 1_454 S
Pr2112 O2134 2.695 . S
Pr2112 O2135 2.512 1_554 S
Pr2112 O2137 2.437 . S
Pr2112 O2140 2.436 . S
Pr2112 O2142 2.438 . S
Pr2113 C2123 2.880 . S
Pr2113 O2134 2.436 . S
Pr2113 O2136 2.438 . S
Pr2113 O2138 2.562 . S
Pr2113 O2139 2.490 . S
Pr2113 O2140 2.695 . S
Pr2113 O2141 2.512 . S
Pr2113 O2143 2.437 . S
C2114 Pr2112 2.880 1_656 S
C2114 C2115 1.491 . S
C2114 O2132 1.254 1_556 S
C2114 O2133 1.225 . S
C2115 C2114 1.491 . S
C2115 C2116 1.392 . S
C2115 C2120 1.356 . S
C2116 C2115 1.392 . S
C2116 C2117 1.368 . S
C2116 H2144 0.929 . S
C2117 C2116 1.368 . S
C2117 C2118 1.386 . S
C2117 H2145 0.929 . S
C2118 C2117 1.386 . S
C2118 C2119 1.373 . S
C2119 C2118 1.373 . S
C2119 C2120 1.409 . S
C2119 H2146 0.931 . S
C2120 C2115 1.356 . S
C2120 C2119 1.409 . S
C2120 H2147 0.930 1_556 S
C2121 O2134 1.270 1_556 S
C2121 O2135 1.248 . S
C2122 O2136 1.267 . S
C2122 O2137 1.278 . S
C2123 Pr2113 2.880 . S
C2123 C2124 1.491 . S
C2123 O2138 1.254 . S
C2123 O2139 1.225 . S
C2124 C2123 1.491 . S
C2124 C2125 1.392 . S
C2124 C2129 1.356 . S
C2125 C2124 1.392 . S
C2125 C2126 1.368 . S
C2125 H2148 0.929 . S
C2126 C2125 1.368 . S
C2126 C2127 1.386 . S
C2126 H2149 0.929 . S
C2127 C2126 1.386 . S
C2127 C2128 1.373 . S
C2128 C2127 1.373 . S
C2128 C2129 1.409 . S
C2128 H2150 0.931 . S
C2129 C2124 1.356 . S
C2129 C2128 1.409 . S
C2129 H2151 0.930 . S
C2130 O2140 1.270 . S
C2130 O2141 1.248 . S
C2131 O2142 1.267 . S
C2131 O2143 1.278 . S
O2132 Pr2112 2.562 1_655 S
O2132 C2114 1.254 1_554 S
O2133 Pr2112 2.490 1_656 S
O2133 C2114 1.225 . S
O2134 Pr2112 2.695 . S
O2134 Pr2113 2.436 . S
O2134 C2121 1.270 1_554 S
O2135 Pr2112 2.512 1_556 S
O2135 C2121 1.248 . S
O2136 Pr2113 2.438 . S
O2136 C2122 1.267 . S
O2137 Pr2112 2.437 . S
O2137 C2122 1.278 . S
O2138 Pr2113 2.562 . S
O2138 C2123 1.254 . S
O2139 Pr2113 2.490 . S
O2139 C2123 1.225 . S
O2140 Pr2112 2.436 . S
O2140 Pr2113 2.695 . S
O2140 C2130 1.270 . S
O2141 Pr2113 2.512 . S
O2141 C2130 1.248 . S
O2142 Pr2112 2.438 . S
O2142 C2131 1.267 . S
O2143 Pr2113 2.437 . S
O2143 C2131 1.278 . S
H2144 C2116 0.929 . S
H2145 C2117 0.929 . S
H2146 C2119 0.931 . S
H2147 C2120 0.930 1_554 S
H2148 C2125 0.929 . S
H2149 C2126 0.929 . S
H2150 C2128 0.931 . S
H2151 C2129 0.930 . S
Pr2152 C2154 2.880 . S
Pr2152 O2172 2.562 . S
Pr2152 O2173 2.490 . S
Pr2152 O2174 2.695 . S
Pr2152 O2175 2.512 . S
Pr2152 O2177 2.437 . S
Pr2152 O2180 2.436 . S
Pr2152 O2182 2.438 . S
Pr2153 C2163 2.880 . S
Pr2153 O2174 2.436 . S
Pr2153 O2176 2.438 . S
Pr2153 O2178 2.562 . S
Pr2153 O2179 2.490 . S
Pr2153 O2180 2.695 . S
Pr2153 O2181 2.512 . S
Pr2153 O2183 2.437 . S
C2154 Pr2152 2.880 . S
C2154 C2155 1.491 . S
C2154 O2172 1.254 . S
C2154 O2173 1.225 . S
C2155 C2154 1.491 . S
C2155 C2156 1.392 . S
C2155 C2160 1.356 . S
C2156 C2155 1.392 . S
C2156 C2157 1.368 . S
C2156 H2184 0.929 . S
C2157 C2156 1.368 . S
C2157 C2158 1.386 . S
C2157 H2185 0.929 . S
C2158 C2157 1.386 . S
C2158 C2159 1.373 . S
C2159 C2158 1.373 . S
C2159 C2160 1.409 . S
C2159 H2186 0.931 . S
C2160 C2155 1.356 . S
C2160 C2159 1.409 . S
C2160 H2187 0.930 . S
C2161 O2174 1.270 . S
C2161 O2175 1.248 . S
C2162 O2176 1.267 . S
C2162 O2177 1.278 . S
C2163 Pr2153 2.880 . S
C2163 C2164 1.491 . S
C2163 O2178 1.254 . S
C2163 O2179 1.225 . S
C2164 C2163 1.491 . S
C2164 C2165 1.392 . S
C2164 C2169 1.356 . S
C2165 C2164 1.392 . S
C2165 C2166 1.368 . S
C2165 H2188 0.929 . S
C2166 C2165 1.368 . S
C2166 C2167 1.386 . S
C2166 H2189 0.929 . S
C2167 C2166 1.386 . S
C2167 C2168 1.373 . S
C2168 C2167 1.373 . S
C2168 C2169 1.409 . S
C2168 H2190 0.931 . S
C2169 C2164 1.356 . S
C2169 C2168 1.409 . S
C2169 H2191 0.930 . S
C2170 O2180 1.270 . S
C2170 O2181 1.248 . S
C2171 O2182 1.267 . S
C2171 O2183 1.278 . S
O2172 Pr2152 2.562 . S
O2172 C2154 1.254 . S
O2173 Pr2152 2.490 . S
O2173 C2154 1.225 . S
O2174 Pr2152 2.695 . S
O2174 Pr2153 2.436 . S
O2174 C2161 1.270 . S
O2175 Pr2152 2.512 . S
O2175 C2161 1.248 . S
O2176 Pr2153 2.438 . S
O2176 C2162 1.267 . S
O2177 Pr2152 2.437 . S
O2177 C2162 1.278 . S
O2178 Pr2153 2.562 . S
O2178 C2163 1.254 . S
O2179 Pr2153 2.490 . S
O2179 C2163 1.225 . S
O2180 Pr2152 2.436 . S
O2180 Pr2153 2.695 . S
O2180 C2170 1.270 . S
O2181 Pr2153 2.512 . S
O2181 C2170 1.248 . S
O2182 Pr2152 2.438 . S
O2182 C2171 1.267 . S
O2183 Pr2153 2.437 . S
O2183 C2171 1.278 . S
H2184 C2156 0.929 . S
H2185 C2157 0.929 . S
H2186 C2159 0.931 . S
H2187 C2160 0.930 . S
H2188 C2165 0.929 . S
H2189 C2166 0.929 . S
H2190 C2168 0.931 . S
H2191 C2169 0.930 . S
Pr2192 C2194 2.880 . S
Pr2192 O2212 2.562 . S
Pr2192 O2213 2.490 . S
Pr2192 O2214 2.695 . S
Pr2192 O2215 2.512 . S
Pr2192 O2217 2.437 . S
Pr2192 O2220 2.436 . S
Pr2192 O2222 2.438 . S
Pr2193 C2203 2.880 . S
Pr2193 O2214 2.436 . S
Pr2193 O2216 2.438 . S
Pr2193 O2218 2.562 . S
Pr2193 O2219 2.490 . S
Pr2193 O2220 2.695 . S
Pr2193 O2221 2.512 . S
Pr2193 O2223 2.437 . S
C2194 Pr2192 2.880 . S
C2194 C2195 1.491 . S
C2194 O2212 1.254 . S
C2194 O2213 1.225 . S
C2195 C2194 1.491 . S
C2195 C2196 1.392 . S
C2195 C2200 1.356 . S
C2196 C2195 1.392 . S
C2196 C2197 1.368 . S
C2196 H2224 0.929 . S
C2197 C2196 1.368 . S
C2197 C2198 1.386 . S
C2197 H2225 0.929 . S
C2198 C2197 1.386 . S
C2198 C2199 1.373 . S
C2199 C2198 1.373 . S
C2199 C2200 1.409 . S
C2199 H2226 0.923 1_545 S
C2200 C2195 1.356 . S
C2200 C2199 1.409 . S
C2200 H2227 0.930 . S
C2201 O2214 1.270 . S
C2201 O2215 1.248 . S
C2202 O2216 1.267 . S
C2202 O2217 1.278 . S
C2203 Pr2193 2.880 . S
C2203 C2204 1.491 . S
C2203 O2218 1.254 . S
C2203 O2219 1.225 . S
C2204 C2203 1.491 . S
C2204 C2205 1.392 . S
C2204 C2209 1.356 . S
C2205 C2204 1.392 . S
C2205 C2206 1.368 . S
C2205 H2228 0.929 . S
C2206 C2205 1.368 . S
C2206 C2207 1.386 . S
C2206 H2229 0.929 . S
C2207 C2206 1.386 . S
C2207 C2208 1.373 . S
C2208 C2207 1.373 . S
C2208 C2209 1.409 . S
C2208 H2230 0.931 . S
C2209 C2204 1.356 . S
C2209 C2208 1.409 . S
C2209 H2231 0.930 . S
C2210 O2220 1.270 . S
C2210 O2221 1.248 . S
C2211 O2222 1.267 . S
C2211 O2223 1.278 . S
O2212 Pr2192 2.562 . S
O2212 C2194 1.254 . S
O2213 Pr2192 2.490 . S
O2213 C2194 1.225 . S
O2214 Pr2192 2.695 . S
O2214 Pr2193 2.436 . S
O2214 C2201 1.270 . S
O2215 Pr2192 2.512 . S
O2215 C2201 1.248 . S
O2216 Pr2193 2.438 . S
O2216 C2202 1.267 . S
O2217 Pr2192 2.437 . S
O2217 C2202 1.278 . S
O2218 Pr2193 2.562 . S
O2218 C2203 1.254 . S
O2219 Pr2193 2.490 . S
O2219 C2203 1.225 . S
O2220 Pr2192 2.436 . S
O2220 Pr2193 2.695 . S
O2220 C2210 1.270 . S
O2221 Pr2193 2.512 . S
O2221 C2210 1.248 . S
O2222 Pr2192 2.438 . S
O2222 C2211 1.267 . S
O2223 Pr2193 2.437 . S
O2223 C2211 1.278 . S
H2224 C2196 0.929 . S
H2225 C2197 0.929 . S
H2226 C2199 0.923 1_565 S
H2227 C2200 0.930 . S
H2228 C2205 0.929 . S
H2229 C2206 0.929 . S
H2230 C2208 0.931 . S
H2231 C2209 0.930 . S
Pr2232 C2234 2.880 . S
Pr2232 O2252 2.562 . S
Pr2232 O2253 2.490 . S
Pr2232 O2254 2.695 . S
Pr2232 O2255 2.512 . S
Pr2232 O2257 2.437 . S
Pr2232 O2260 2.436 . S
Pr2232 O2262 2.438 . S
Pr2233 C2243 2.880 . S
Pr2233 O2254 2.436 . S
Pr2233 O2256 2.438 . S
Pr2233 O2258 2.562 . S
Pr2233 O2259 2.490 . S
Pr2233 O2260 2.695 . S
Pr2233 O2261 2.512 . S
Pr2233 O2263 2.437 . S
C2234 Pr2232 2.880 . S
C2234 C2235 1.491 . S
C2234 O2252 1.254 . S
C2234 O2253 1.225 . S
C2235 C2234 1.491 . S
C2235 C2236 1.392 . S
C2235 C2240 1.356 . S
C2236 C2235 1.392 . S
C2236 C2237 1.368 . S
C2236 H2264 0.929 . S
C2237 C2236 1.368 . S
C2237 C2238 1.386 . S
C2237 H2265 0.929 . S
C2238 C2237 1.386 . S
C2238 C2239 1.373 . S
C2239 C2238 1.373 . S
C2239 C2240 1.409 . S
C2239 H2266 0.931 . S
C2240 C2235 1.356 . S
C2240 C2239 1.409 . S
C2240 H2267 0.930 . S
C2241 O2254 1.270 . S
C2241 O2255 1.248 . S
C2242 O2256 1.267 . S
C2242 O2257 1.278 . S
C2243 Pr2233 2.880 . S
C2243 C2244 1.491 . S
C2243 O2258 1.254 . S
C2243 O2259 1.225 . S
C2244 C2243 1.491 . S
C2244 C2245 1.392 . S
C2244 C2249 1.356 . S
C2245 C2244 1.392 . S
C2245 C2246 1.368 . S
C2245 H2268 0.929 . S
C2246 C2245 1.368 . S
C2246 C2247 1.386 . S
C2246 H2269 0.929 . S
C2247 C2246 1.386 . S
C2247 C2248 1.373 . S
C2248 C2247 1.373 . S
C2248 C2249 1.409 . S
C2248 H2270 0.931 . S
C2249 C2244 1.356 . S
C2249 C2248 1.409 . S
C2249 H2271 0.930 . S
C2250 O2260 1.270 . S
C2250 O2261 1.248 . S
C2251 O2262 1.267 . S
C2251 O2263 1.278 . S
O2252 Pr2232 2.562 . S
O2252 C2234 1.254 . S
O2253 Pr2232 2.490 . S
O2253 C2234 1.225 . S
O2254 Pr2232 2.695 . S
O2254 Pr2233 2.436 . S
O2254 C2241 1.270 . S
O2255 Pr2232 2.512 . S
O2255 C2241 1.248 . S
O2256 Pr2233 2.438 . S
O2256 C2242 1.267 . S
O2257 Pr2232 2.437 . S
O2257 C2242 1.278 . S
O2258 Pr2233 2.562 . S
O2258 C2243 1.254 . S
O2259 Pr2233 2.490 . S
O2259 C2243 1.225 . S
O2260 Pr2232 2.436 . S
O2260 Pr2233 2.695 . S
O2260 C2250 1.270 . S
O2261 Pr2233 2.512 . S
O2261 C2250 1.248 . S
O2262 Pr2232 2.438 . S
O2262 C2251 1.267 . S
O2263 Pr2233 2.437 . S
O2263 C2251 1.278 . S
H2264 C2236 0.929 . S
H2265 C2237 0.929 . S
H2266 C2239 0.931 . S
H2267 C2240 0.930 . S
H2268 C2245 0.929 . S
H2269 C2246 0.929 . S
H2270 C2248 0.931 . S
H2271 C2249 0.930 . S
Pr2272 C2274 2.880 . S
Pr2272 O2292 2.562 . S
Pr2272 O2293 2.490 . S
Pr2272 O2294 2.695 . S
Pr2272 O2295 2.512 . S
Pr2272 O2297 2.437 . S
Pr2272 O2300 2.436 . S
Pr2272 O2302 2.438 . S
Pr2273 C2283 2.880 . S
Pr2273 O2294 2.436 . S
Pr2273 O2296 2.438 . S
Pr2273 O2298 2.562 . S
Pr2273 O2299 2.490 . S
Pr2273 O2300 2.695 . S
Pr2273 O2301 2.512 . S
Pr2273 O2303 2.437 . S
C2274 Pr2272 2.880 . S
C2274 C2275 1.491 . S
C2274 O2292 1.254 . S
C2274 O2293 1.225 . S
C2275 C2274 1.491 . S
C2275 C2276 1.392 . S
C2275 C2280 1.356 1_455 S
C2276 C2275 1.392 . S
C2276 C2277 1.368 . S
C2276 H2304 0.929 . S
C2277 C2276 1.368 . S
C2277 C2278 1.386 1_455 S
C2277 H2305 0.929 . S
C2278 C2277 1.386 1_655 S
C2278 C2279 1.373 . S
C2279 C2278 1.373 . S
C2279 C2280 1.409 . S
C2279 H2306 0.931 . S
C2280 C2275 1.356 1_655 S
C2280 C2279 1.409 . S
C2280 H2307 0.930 . S
C2281 O2294 1.270 . S
C2281 O2295 1.248 . S
C2282 O2296 1.267 . S
C2282 O2297 1.278 . S
C2283 Pr2273 2.880 . S
C2283 C2284 1.491 . S
C2283 O2298 1.254 . S
C2283 O2299 1.225 . S
C2284 C2283 1.491 . S
C2284 C2285 1.392 . S
C2284 C2289 1.356 . S
C2285 C2284 1.392 . S
C2285 C2286 1.368 . S
C2285 H2308 0.929 . S
C2286 C2285 1.368 . S
C2286 C2287 1.386 . S
C2286 H2309 0.929 . S
C2287 C2286 1.386 . S
C2287 C2288 1.373 . S
C2288 C2287 1.373 . S
C2288 C2289 1.409 . S
C2288 H2310 0.931 . S
C2289 C2284 1.356 . S
C2289 C2288 1.409 . S
C2289 H2311 0.930 . S
C2290 O2300 1.270 . S
C2290 O2301 1.248 . S
C2291 O2302 1.267 . S
C2291 O2303 1.278 . S
O2292 Pr2272 2.562 . S
O2292 C2274 1.254 . S
O2293 Pr2272 2.490 . S
O2293 C2274 1.225 . S
O2294 Pr2272 2.695 . S
O2294 Pr2273 2.436 . S
O2294 C2281 1.270 . S
O2295 Pr2272 2.512 . S
O2295 C2281 1.248 . S
O2296 Pr2273 2.438 . S
O2296 C2282 1.267 . S
O2297 Pr2272 2.437 . S
O2297 C2282 1.278 . S
O2298 Pr2273 2.562 . S
O2298 C2283 1.254 . S
O2299 Pr2273 2.490 . S
O2299 C2283 1.225 . S
O2300 Pr2272 2.436 . S
O2300 Pr2273 2.695 . S
O2300 C2290 1.270 . S
O2301 Pr2273 2.512 . S
O2301 C2290 1.248 . S
O2302 Pr2272 2.438 . S
O2302 C2291 1.267 . S
O2303 Pr2273 2.437 . S
O2303 C2291 1.278 . S
H2304 C2276 0.929 . S
H2305 C2277 0.929 . S
H2306 C2279 0.931 . S
H2307 C2280 0.930 . S
H2308 C2285 0.929 . S
H2309 C2286 0.929 . S
H2310 C2288 0.931 . S
H2311 C2289 0.930 . S
Pr2312 C2314 2.880 . S
Pr2312 O2332 2.562 . S
Pr2312 O2333 2.490 . S
Pr2312 O2334 2.695 . S
Pr2312 O2335 2.512 . S
Pr2312 O2337 2.437 . S
Pr2312 O2340 2.436 . S
Pr2312 O2342 2.438 . S
Pr2313 C2323 2.880 . S
Pr2313 O2334 2.436 . S
Pr2313 O2336 2.438 . S
Pr2313 O2338 2.562 . S
Pr2313 O2339 2.490 . S
Pr2313 O2340 2.695 . S
Pr2313 O2341 2.512 . S
Pr2313 O2343 2.437 . S
C2314 Pr2312 2.880 . S
C2314 C2315 1.491 . S
C2314 O2332 1.254 . S
C2314 O2333 1.225 . S
C2315 C2314 1.491 . S
C2315 C2316 1.392 . S
C2315 C2320 1.356 . S
C2316 C2315 1.392 . S
C2316 C2317 1.368 . S
C2316 H2344 0.929 . S
C2317 C2316 1.368 . S
C2317 C2318 1.386 . S
C2317 H2345 0.929 . S
C2318 C2317 1.386 . S
C2318 C2319 1.373 . S
C2319 C2318 1.373 . S
C2319 C2320 1.409 . S
C2319 H2346 0.931 . S
C2320 C2315 1.356 . S
C2320 C2319 1.409 . S
C2320 H2347 0.930 . S
C2321 O2334 1.270 . S
C2321 O2335 1.248 . S
C2322 O2336 1.267 . S
C2322 O2337 1.278 . S
C2323 Pr2313 2.880 . S
C2323 C2324 1.491 . S
C2323 O2338 1.254 . S
C2323 O2339 1.225 . S
C2324 C2323 1.491 . S
C2324 C2325 1.392 . S
C2324 C2329 1.356 . S
C2325 C2324 1.392 . S
C2325 C2326 1.368 . S
C2325 H2348 0.929 . S
C2326 C2325 1.368 . S
C2326 C2327 1.386 . S
C2326 H2349 0.929 . S
C2327 C2326 1.386 . S
C2327 C2328 1.373 . S
C2328 C2327 1.373 . S
C2328 C2329 1.409 . S
C2328 H2350 0.931 . S
C2329 C2324 1.356 . S
C2329 C2328 1.409 . S
C2329 H2351 0.930 . S
C2330 O2340 1.270 . S
C2330 O2341 1.248 . S
C2331 O2342 1.267 . S
C2331 O2343 1.278 . S
O2332 Pr2312 2.562 . S
O2332 C2314 1.254 . S
O2333 Pr2312 2.490 . S
O2333 C2314 1.225 . S
O2334 Pr2312 2.695 . S
O2334 Pr2313 2.436 . S
O2334 C2321 1.270 . S
O2335 Pr2312 2.512 . S
O2335 C2321 1.248 . S
O2336 Pr2313 2.438 . S
O2336 C2322 1.267 . S
O2337 Pr2312 2.437 . S
O2337 C2322 1.278 . S
O2338 Pr2313 2.562 . S
O2338 C2323 1.254 . S
O2339 Pr2313 2.490 . S
O2339 C2323 1.225 . S
O2340 Pr2312 2.436 . S
O2340 Pr2313 2.695 . S
O2340 C2330 1.270 . S
O2341 Pr2313 2.512 . S
O2341 C2330 1.248 . S
O2342 Pr2312 2.438 . S
O2342 C2331 1.267 . S
O2343 Pr2313 2.437 . S
O2343 C2331 1.278 . S
H2344 C2316 0.929 . S
H2345 C2317 0.929 . S
H2346 C2319 0.931 . S
H2347 C2320 0.930 . S
H2348 C2325 0.929 . S
H2349 C2326 0.929 . S
H2350 C2328 0.931 . S
H2351 C2329 0.930 . S
Pr2352 C2354 2.880 . S
Pr2352 O2372 2.562 . S
Pr2352 O2373 2.490 . S
Pr2352 O2374 2.695 . S
Pr2352 O2375 2.512 . S
Pr2352 O2377 2.437 . S
Pr2352 O2380 2.436 . S
Pr2352 O2382 2.438 . S
Pr2353 C2363 2.880 . S
Pr2353 O2374 2.436 1_556 S
Pr2353 O2376 2.438 1_556 S
Pr2353 O2378 2.562 . S
Pr2353 O2379 2.490 . S
Pr2353 O2380 2.695 1_556 S
Pr2353 O2381 2.512 1_556 S
Pr2353 O2383 2.437 1_556 S
C2354 Pr2352 2.880 . S
C2354 C2355 1.491 . S
C2354 O2372 1.254 . S
C2354 O2373 1.225 . S
C2355 C2354 1.491 . S
C2355 C2356 1.392 . S
C2355 C2360 1.356 . S
C2356 C2355 1.392 . S
C2356 C2357 1.368 . S
C2356 H2384 0.929 . S
C2357 C2356 1.368 . S
C2357 C2358 1.386 . S
C2357 H2385 0.929 . S
C2358 C2357 1.386 . S
C2358 C2359 1.373 . S
C2359 C2358 1.373 . S
C2359 C2360 1.409 . S
C2359 H2386 0.931 . S
C2360 C2355 1.356 . S
C2360 C2359 1.409 . S
C2360 H2387 0.930 . S
C2361 O2374 1.270 . S
C2361 O2375 1.248 . S
C2362 O2376 1.267 . S
C2362 O2377 1.278 . S
C2363 Pr2353 2.880 . S
C2363 C2364 1.491 . S
C2363 O2378 1.254 . S
C2363 O2379 1.225 . S
C2364 C2363 1.491 . S
C2364 C2365 1.392 . S
C2364 C2369 1.356 . S
C2365 C2364 1.392 . S
C2365 C2366 1.368 . S
C2365 H2388 0.929 . S
C2366 C2365 1.368 . S
C2366 C2367 1.386 . S
C2366 H2389 0.929 . S
C2367 C2366 1.386 . S
C2367 C2368 1.373 . S
C2368 C2367 1.373 . S
C2368 C2369 1.409 . S
C2368 H2390 0.931 . S
C2369 C2364 1.356 . S
C2369 C2368 1.409 . S
C2369 H2391 0.930 . S
C2370 O2380 1.270 . S
C2370 O2381 1.248 . S
C2371 O2382 1.267 . S
C2371 O2383 1.278 . S
O2372 Pr2352 2.562 . S
O2372 C2354 1.254 . S
O2373 Pr2352 2.490 . S
O2373 C2354 1.225 . S
O2374 Pr2352 2.695 . S
O2374 Pr2353 2.436 1_554 S
O2374 C2361 1.270 . S
O2375 Pr2352 2.512 . S
O2375 C2361 1.248 . S
O2376 Pr2353 2.438 1_554 S
O2376 C2362 1.267 . S
O2377 Pr2352 2.437 . S
O2377 C2362 1.278 . S
O2378 Pr2353 2.562 . S
O2378 C2363 1.254 . S
O2379 Pr2353 2.490 . S
O2379 C2363 1.225 . S
O2380 Pr2352 2.436 . S
O2380 Pr2353 2.695 1_554 S
O2380 C2370 1.270 . S
O2381 Pr2353 2.512 1_554 S
O2381 C2370 1.248 . S
O2382 Pr2352 2.438 . S
O2382 C2371 1.267 . S
O2383 Pr2353 2.437 1_554 S
O2383 C2371 1.278 . S
H2384 C2356 0.929 . S
H2385 C2357 0.929 . S
H2386 C2359 0.931 . S
H2387 C2360 0.930 . S
H2388 C2365 0.929 . S
H2389 C2366 0.929 . S
H2390 C2368 0.931 . S
H2391 C2369 0.930 . S
Pr2392 C2394 2.880 . S
Pr2392 O2412 2.562 . S
Pr2392 O2413 2.490 . S
Pr2392 O2414 2.695 . S
Pr2392 O2415 2.512 . S
Pr2392 O2417 2.437 . S
Pr2392 O2420 2.436 . S
Pr2392 O2422 2.438 . S
Pr2393 C2403 2.880 . S
Pr2393 O2414 2.436 . S
Pr2393 O2416 2.438 . S
Pr2393 O2418 2.562 . S
Pr2393 O2419 2.490 . S
Pr2393 O2420 2.695 . S
Pr2393 O2421 2.512 . S
Pr2393 O2423 2.437 . S
C2394 Pr2392 2.880 . S
C2394 C2395 1.491 . S
C2394 O2412 1.254 . S
C2394 O2413 1.225 . S
C2395 C2394 1.491 . S
C2395 C2396 1.392 . S
C2395 C2400 1.356 . S
C2396 C2395 1.392 . S
C2396 C2397 1.368 . S
C2396 H2424 0.929 . S
C2397 C2396 1.368 . S
C2397 C2398 1.386 . S
C2397 H2425 0.929 . S
C2398 C2397 1.386 . S
C2398 C2399 1.373 . S
C2399 C2398 1.373 . S
C2399 C2400 1.409 . S
C2399 H2426 0.931 . S
C2400 C2395 1.356 . S
C2400 C2399 1.409 . S
C2400 H2427 0.930 . S
C2401 O2414 1.270 . S
C2401 O2415 1.248 . S
C2402 O2416 1.267 . S
C2402 O2417 1.278 . S
C2403 Pr2393 2.880 . S
C2403 C2404 1.491 . S
C2403 O2418 1.254 . S
C2403 O2419 1.225 . S
C2404 C2403 1.491 . S
C2404 C2405 1.392 . S
C2404 C2409 1.356 . S
C2405 C2404 1.392 . S
C2405 C2406 1.368 . S
C2405 H2428 0.929 . S
C2406 C2405 1.368 . S
C2406 C2407 1.386 . S
C2406 H2429 0.929 . S
C2407 C2406 1.386 . S
C2407 C2408 1.373 . S
C2408 C2407 1.373 . S
C2408 C2409 1.409 . S
C2408 H2430 0.931 . S
C2409 C2404 1.356 . S
C2409 C2408 1.409 . S
C2409 H2431 0.930 . S
C2410 O2420 1.270 . S
C2410 O2421 1.248 . S
C2411 O2422 1.267 . S
C2411 O2423 1.278 . S
O2412 Pr2392 2.562 . S
O2412 C2394 1.254 . S
O2413 Pr2392 2.490 . S
O2413 C2394 1.225 . S
O2414 Pr2392 2.695 . S
O2414 Pr2393 2.436 . S
O2414 C2401 1.270 . S
O2415 Pr2392 2.512 . S
O2415 C2401 1.248 . S
O2416 Pr2393 2.438 . S
O2416 C2402 1.267 . S
O2417 Pr2392 2.437 . S
O2417 C2402 1.278 . S
O2418 Pr2393 2.562 . S
O2418 C2403 1.254 . S
O2419 Pr2393 2.490 . S
O2419 C2403 1.225 . S
O2420 Pr2392 2.436 . S
O2420 Pr2393 2.695 . S
O2420 C2410 1.270 . S
O2421 Pr2393 2.512 . S
O2421 C2410 1.248 . S
O2422 Pr2392 2.438 . S
O2422 C2411 1.267 . S
O2423 Pr2393 2.437 . S
O2423 C2411 1.278 . S
H2424 C2396 0.929 . S
H2425 C2397 0.929 . S
H2426 C2399 0.931 . S
H2427 C2400 0.930 . S
H2428 C2405 0.929 . S
H2429 C2406 0.929 . S
H2430 C2408 0.931 . S
H2431 C2409 0.930 . S
Pr2432 C2434 2.880 . S
Pr2432 O2452 2.562 . S
Pr2432 O2453 2.490 . S
Pr2432 O2454 2.695 1_556 S
Pr2432 O2455 2.512 . S
Pr2432 O2457 2.437 . S
Pr2432 O2460 2.436 1_556 S
Pr2432 O2462 2.438 1_556 S
Pr2433 C2443 2.880 . S
Pr2433 O2454 2.436 . S
Pr2433 O2456 2.438 . S
Pr2433 O2458 2.562 . S
Pr2433 O2459 2.490 . S
Pr2433 O2460 2.695 . S
Pr2433 O2461 2.512 . S
Pr2433 O2463 2.437 . S
C2434 Pr2432 2.880 . S
C2434 C2435 1.491 . S
C2434 O2452 1.254 . S
C2434 O2453 1.225 . S
C2435 C2434 1.491 . S
C2435 C2436 1.392 . S
C2435 C2440 1.356 . S
C2436 C2435 1.392 . S
C2436 C2437 1.368 . S
C2436 H2464 0.929 . S
C2437 C2436 1.368 . S
C2437 C2438 1.386 . S
C2437 H2465 0.929 . S
C2438 C2437 1.386 . S
C2438 C2439 1.373 . S
C2439 C2438 1.373 . S
C2439 C2440 1.409 . S
C2439 H2466 0.931 . S
C2440 C2435 1.356 . S
C2440 C2439 1.409 . S
C2440 H2467 0.930 . S
C2441 O2454 1.270 . S
C2441 O2455 1.248 1_554 S
C2442 O2456 1.267 . S
C2442 O2457 1.278 1_554 S
C2443 Pr2433 2.880 . S
C2443 C2444 1.491 . S
C2443 O2458 1.254 . S
C2443 O2459 1.225 . S
C2444 C2443 1.491 . S
C2444 C2445 1.392 . S
C2444 C2449 1.356 . S
C2445 C2444 1.392 . S
C2445 C2446 1.368 . S
C2445 H2468 0.929 . S
C2446 C2445 1.368 . S
C2446 C2447 1.386 . S
C2446 H2469 0.929 . S
C2447 C2446 1.386 . S
C2447 C2448 1.373 . S
C2448 C2447 1.373 . S
C2448 C2449 1.409 . S
C2448 H2470 0.931 . S
C2449 C2444 1.356 . S
C2449 C2448 1.409 . S
C2449 H2471 0.930 . S
C2450 O2460 1.270 . S
C2450 O2461 1.248 . S
C2451 O2462 1.267 . S
C2451 O2463 1.278 . S
O2452 Pr2432 2.562 . S
O2452 C2434 1.254 . S
O2453 Pr2432 2.490 . S
O2453 C2434 1.225 . S
O2454 Pr2432 2.695 1_554 S
O2454 Pr2433 2.436 . S
O2454 C2441 1.270 . S
O2455 Pr2432 2.512 . S
O2455 C2441 1.248 1_556 S
O2456 Pr2433 2.438 . S
O2456 C2442 1.267 . S
O2457 Pr2432 2.437 . S
O2457 C2442 1.278 1_556 S
O2458 Pr2433 2.562 . S
O2458 C2443 1.254 . S
O2459 Pr2433 2.490 . S
O2459 C2443 1.225 . S
O2460 Pr2432 2.436 1_554 S
O2460 Pr2433 2.695 . S
O2460 C2450 1.270 . S
O2461 Pr2433 2.512 . S
O2461 C2450 1.248 . S
O2462 Pr2432 2.438 1_554 S
O2462 C2451 1.267 . S
O2463 Pr2433 2.437 . S
O2463 C2451 1.278 . S
H2464 C2436 0.929 . S
H2465 C2437 0.929 . S
H2466 C2439 0.931 . S
H2467 C2440 0.930 . S
H2468 C2445 0.929 . S
H2469 C2446 0.929 . S
H2470 C2448 0.931 . S
H2471 C2449 0.930 . S
Pr2472 C2474 2.880 . S
Pr2472 O2492 2.562 . S
Pr2472 O2493 2.490 . S
Pr2472 O2494 2.695 . S
Pr2472 O2495 2.512 . S
Pr2472 O2497 2.437 . S
Pr2472 O2500 2.436 . S
Pr2472 O2502 2.438 . S
Pr2473 C2483 2.880 . S
Pr2473 O2494 2.436 . S
Pr2473 O2496 2.438 . S
Pr2473 O2498 2.562 . S
Pr2473 O2499 2.490 . S
Pr2473 O2500 2.695 . S
Pr2473 O2501 2.512 . S
Pr2473 O2503 2.437 . S
C2474 Pr2472 2.880 . S
C2474 C2475 1.491 . S
C2474 O2492 1.254 . S
C2474 O2493 1.225 . S
C2475 C2474 1.491 . S
C2475 C2476 1.392 . S
C2475 C2480 1.356 . S
C2476 C2475 1.392 . S
C2476 C2477 1.368 . S
C2476 H2504 0.929 . S
C2477 C2476 1.368 . S
C2477 C2478 1.386 . S
C2477 H2505 0.929 . S
C2478 C2477 1.386 . S
C2478 C2479 1.373 . S
C2479 C2478 1.373 . S
C2479 C2480 1.409 . S
C2479 H2506 0.931 . S
C2480 C2475 1.356 . S
C2480 C2479 1.409 . S
C2480 H2507 0.930 . S
C2481 O2494 1.270 . S
C2481 O2495 1.248 . S
C2482 O2496 1.267 . S
C2482 O2497 1.278 . S
C2483 Pr2473 2.880 . S
C2483 C2484 1.491 . S
C2483 O2498 1.254 . S
C2483 O2499 1.225 . S
C2484 C2483 1.491 . S
C2484 C2485 1.392 . S
C2484 C2489 1.356 . S
C2485 C2484 1.392 . S
C2485 C2486 1.368 . S
C2485 H2508 0.929 . S
C2486 C2485 1.368 . S
C2486 C2487 1.386 . S
C2486 H2509 0.929 . S
C2487 C2486 1.386 . S
C2487 C2488 1.373 . S
C2488 C2487 1.373 . S
C2488 C2489 1.409 . S
C2488 H2510 0.931 . S
C2489 C2484 1.356 . S
C2489 C2488 1.409 . S
C2489 H2511 0.930 . S
C2490 O2500 1.270 . S
C2490 O2501 1.248 . S
C2491 O2502 1.267 . S
C2491 O2503 1.278 . S
O2492 Pr2472 2.562 . S
O2492 C2474 1.254 . S
O2493 Pr2472 2.490 . S
O2493 C2474 1.225 . S
O2494 Pr2472 2.695 . S
O2494 Pr2473 2.436 . S
O2494 C2481 1.270 . S
O2495 Pr2472 2.512 . S
O2495 C2481 1.248 . S
O2496 Pr2473 2.438 . S
O2496 C2482 1.267 . S
O2497 Pr2472 2.437 . S
O2497 C2482 1.278 . S
O2498 Pr2473 2.562 . S
O2498 C2483 1.254 . S
O2499 Pr2473 2.490 . S
O2499 C2483 1.225 . S
O2500 Pr2472 2.436 . S
O2500 Pr2473 2.695 . S
O2500 C2490 1.270 . S
O2501 Pr2473 2.512 . S
O2501 C2490 1.248 . S
O2502 Pr2472 2.438 . S
O2502 C2491 1.267 . S
O2503 Pr2473 2.437 . S
O2503 C2491 1.278 . S
H2504 C2476 0.929 . S
H2505 C2477 0.929 . S
H2506 C2479 0.931 . S
H2507 C2480 0.930 . S
H2508 C2485 0.929 . S
H2509 C2486 0.929 . S
H2510 C2488 0.931 . S
H2511 C2489 0.930 . S
Pr2512 C2514 2.880 . S
Pr2512 O2532 2.562 . S
Pr2512 O2533 2.490 . S
Pr2512 O2534 2.695 . S
Pr2512 O2535 2.512 . S
Pr2512 O2537 2.437 . S
Pr2512 O2540 2.436 . S
Pr2512 O2542 2.438 . S
Pr2513 C2523 2.880 . S
Pr2513 O2534 2.436 . S
Pr2513 O2536 2.438 . S
Pr2513 O2538 2.562 . S
Pr2513 O2539 2.490 . S
Pr2513 O2540 2.695 . S
Pr2513 O2541 2.512 . S
Pr2513 O2543 2.437 . S
C2514 Pr2512 2.880 . S
C2514 C2515 1.491 . S
C2514 O2532 1.254 . S
C2514 O2533 1.225 . S
C2515 C2514 1.491 . S
C2515 C2516 1.392 . S
C2515 C2520 1.356 . S
C2516 C2515 1.392 . S
C2516 C2517 1.368 . S
C2516 H2544 0.929 . S
C2517 C2516 1.368 . S
C2517 C2518 1.386 . S
C2517 H2545 0.929 . S
C2518 C2517 1.386 . S
C2518 C2519 1.373 . S
C2519 C2518 1.373 . S
C2519 C2520 1.409 . S
C2519 H2546 0.931 1_455 S
C2520 C2515 1.356 . S
C2520 C2519 1.409 . S
C2520 H2547 0.930 . S
C2521 O2534 1.270 . S
C2521 O2535 1.248 . S
C2522 O2536 1.267 . S
C2522 O2537 1.278 . S
C2523 Pr2513 2.880 . S
C2523 C2524 1.491 . S
C2523 O2538 1.254 . S
C2523 O2539 1.225 . S
C2524 C2523 1.491 . S
C2524 C2525 1.392 . S
C2524 C2529 1.356 . S
C2525 C2524 1.392 . S
C2525 C2526 1.368 . S
C2525 H2548 0.929 . S
C2526 C2525 1.368 . S
C2526 C2527 1.386 . S
C2526 H2549 0.929 . S
C2527 C2526 1.386 . S
C2527 C2528 1.373 . S
C2528 C2527 1.373 . S
C2528 C2529 1.409 . S
C2528 H2550 0.931 . S
C2529 C2524 1.356 . S
C2529 C2528 1.409 . S
C2529 H2551 0.930 . S
C2530 O2540 1.270 . S
C2530 O2541 1.248 . S
C2531 O2542 1.267 . S
C2531 O2543 1.278 . S
O2532 Pr2512 2.562 . S
O2532 C2514 1.254 . S
O2533 Pr2512 2.490 . S
O2533 C2514 1.225 . S
O2534 Pr2512 2.695 . S
O2534 Pr2513 2.436 . S
O2534 C2521 1.270 . S
O2535 Pr2512 2.512 . S
O2535 C2521 1.248 . S
O2536 Pr2513 2.438 . S
O2536 C2522 1.267 . S
O2537 Pr2512 2.437 . S
O2537 C2522 1.278 . S
O2538 Pr2513 2.562 . S
O2538 C2523 1.254 . S
O2539 Pr2513 2.490 . S
O2539 C2523 1.225 . S
O2540 Pr2512 2.436 . S
O2540 Pr2513 2.695 . S
O2540 C2530 1.270 . S
O2541 Pr2513 2.512 . S
O2541 C2530 1.248 . S
O2542 Pr2512 2.438 . S
O2542 C2531 1.267 . S
O2543 Pr2513 2.437 . S
O2543 C2531 1.278 . S
H2544 C2516 0.929 . S
H2545 C2517 0.929 . S
H2546 C2519 0.931 1_655 S
H2547 C2520 0.930 . S
H2548 C2525 0.929 . S
H2549 C2526 0.929 . S
H2550 C2528 0.931 . S
H2551 C2529 0.930 . S
Pr2552 C2554 2.880 . S
Pr2552 O2572 2.562 . S
Pr2552 O2573 2.490 . S
Pr2552 O2574 2.695 . S
Pr2552 O2575 2.512 . S
Pr2552 O2577 2.437 . S
Pr2552 O2580 2.436 . S
Pr2552 O2582 2.438 . S
Pr2553 C2563 2.880 . S
Pr2553 O2574 2.436 . S
Pr2553 O2576 2.438 . S
Pr2553 O2578 2.562 . S
Pr2553 O2579 2.490 . S
Pr2553 O2580 2.695 . S
Pr2553 O2581 2.512 . S
Pr2553 O2583 2.437 . S
C2554 Pr2552 2.880 . S
C2554 C2555 1.491 . S
C2554 O2572 1.254 . S
C2554 O2573 1.225 . S
C2555 C2554 1.491 . S
C2555 C2556 1.392 . S
C2555 C2560 1.356 . S
C2556 C2555 1.392 . S
C2556 C2557 1.368 . S
C2556 H2584 0.929 . S
C2557 C2556 1.368 . S
C2557 C2558 1.386 . S
C2557 H2585 0.929 . S
C2558 C2557 1.386 . S
C2558 C2559 1.373 . S
C2559 C2558 1.373 . S
C2559 C2560 1.409 . S
C2559 H2586 0.931 . S
C2560 C2555 1.356 . S
C2560 C2559 1.409 . S
C2560 H2587 0.930 . S
C2561 O2574 1.270 . S
C2561 O2575 1.248 . S
C2562 O2576 1.267 . S
C2562 O2577 1.278 . S
C2563 Pr2553 2.880 . S
C2563 C2564 1.491 . S
C2563 O2578 1.254 . S
C2563 O2579 1.225 . S
C2564 C2563 1.491 . S
C2564 C2565 1.392 . S
C2564 C2569 1.356 . S
C2565 C2564 1.392 . S
C2565 C2566 1.368 . S
C2565 H2588 0.929 . S
C2566 C2565 1.368 . S
C2566 C2567 1.386 . S
C2566 H2589 0.929 . S
C2567 C2566 1.386 . S
C2567 C2568 1.373 . S
C2568 C2567 1.373 . S
C2568 C2569 1.409 . S
C2568 H2590 0.931 . S
C2569 C2564 1.356 . S
C2569 C2568 1.409 . S
C2569 H2591 0.930 . S
C2570 O2580 1.270 . S
C2570 O2581 1.248 . S
C2571 O2582 1.267 . S
C2571 O2583 1.278 . S
O2572 Pr2552 2.562 . S
O2572 C2554 1.254 . S
O2573 Pr2552 2.490 . S
O2573 C2554 1.225 . S
O2574 Pr2552 2.695 . S
O2574 Pr2553 2.436 . S
O2574 C2561 1.270 . S
O2575 Pr2552 2.512 . S
O2575 C2561 1.248 . S
O2576 Pr2553 2.438 . S
O2576 C2562 1.267 . S
O2577 Pr2552 2.437 . S
O2577 C2562 1.278 . S
O2578 Pr2553 2.562 . S
O2578 C2563 1.254 . S
O2579 Pr2553 2.490 . S
O2579 C2563 1.225 . S
O2580 Pr2552 2.436 . S
O2580 Pr2553 2.695 . S
O2580 C2570 1.270 . S
O2581 Pr2553 2.512 . S
O2581 C2570 1.248 . S
O2582 Pr2552 2.438 . S
O2582 C2571 1.267 . S
O2583 Pr2553 2.437 . S
O2583 C2571 1.278 . S
H2584 C2556 0.929 . S
H2585 C2557 0.929 . S
H2586 C2559 0.931 . S
H2587 C2560 0.930 . S
H2588 C2565 0.929 . S
H2589 C2566 0.929 . S
H2590 C2568 0.931 . S
H2591 C2569 0.930 . S
Pr2592 C2594 2.880 . S
Pr2592 O2612 2.562 . S
Pr2592 O2613 2.490 . S
Pr2592 O2614 2.695 . S
Pr2592 O2615 2.512 . S
Pr2592 O2617 2.437 . S
Pr2592 O2620 2.436 . S
Pr2592 O2622 2.438 . S
Pr2593 C2603 2.880 . S
Pr2593 O2614 2.436 . S
Pr2593 O2616 2.438 . S
Pr2593 O2618 2.562 . S
Pr2593 O2619 2.490 . S
Pr2593 O2620 2.695 . S
Pr2593 O2621 2.512 . S
Pr2593 O2623 2.437 . S
C2594 Pr2592 2.880 . S
C2594 C2595 1.491 . S
C2594 O2612 1.254 . S
C2594 O2613 1.225 . S
C2595 C2594 1.491 . S
C2595 C2596 1.392 . S
C2595 C2600 1.356 . S
C2596 C2595 1.392 . S
C2596 C2597 1.368 . S
C2596 H2624 0.929 . S
C2597 C2596 1.368 . S
C2597 C2598 1.386 . S
C2597 H2625 0.929 . S
C2598 C2597 1.386 . S
C2598 C2599 1.373 . S
C2599 C2598 1.373 . S
C2599 C2600 1.409 . S
C2599 H2626 0.931 . S
C2600 C2595 1.356 . S
C2600 C2599 1.409 . S
C2600 H2627 0.930 . S
C2601 O2614 1.270 . S
C2601 O2615 1.248 . S
C2602 O2616 1.267 . S
C2602 O2617 1.278 . S
C2603 Pr2593 2.880 . S
C2603 C2604 1.491 . S
C2603 O2618 1.254 . S
C2603 O2619 1.225 . S
C2604 C2603 1.491 . S
C2604 C2605 1.392 . S
C2604 C2609 1.356 . S
C2605 C2604 1.392 . S
C2605 C2606 1.368 . S
C2605 H2628 0.929 . S
C2606 C2605 1.368 . S
C2606 C2607 1.386 . S
C2606 H2629 0.929 . S
C2607 C2606 1.386 . S
C2607 C2608 1.373 . S
C2608 C2607 1.373 . S
C2608 C2609 1.409 . S
C2608 H2630 0.931 . S
C2609 C2604 1.356 . S
C2609 C2608 1.409 . S
C2609 H2631 0.930 . S
C2610 O2620 1.270 . S
C2610 O2621 1.248 . S
C2611 O2622 1.267 . S
C2611 O2623 1.278 . S
O2612 Pr2592 2.562 . S
O2612 C2594 1.254 . S
O2613 Pr2592 2.490 . S
O2613 C2594 1.225 . S
O2614 Pr2592 2.695 . S
O2614 Pr2593 2.436 . S
O2614 C2601 1.270 . S
O2615 Pr2592 2.512 . S
O2615 C2601 1.248 . S
O2616 Pr2593 2.438 . S
O2616 C2602 1.267 . S
O2617 Pr2592 2.437 . S
O2617 C2602 1.278 . S
O2618 Pr2593 2.562 . S
O2618 C2603 1.254 . S
O2619 Pr2593 2.490 . S
O2619 C2603 1.225 . S
O2620 Pr2592 2.436 . S
O2620 Pr2593 2.695 . S
O2620 C2610 1.270 . S
O2621 Pr2593 2.512 . S
O2621 C2610 1.248 . S
O2622 Pr2592 2.438 . S
O2622 C2611 1.267 . S
O2623 Pr2593 2.437 . S
O2623 C2611 1.278 . S
H2624 C2596 0.929 . S
H2625 C2597 0.929 . S
H2626 C2599 0.931 . S
H2627 C2600 0.930 . S
H2628 C2605 0.929 . S
H2629 C2606 0.929 . S
H2630 C2608 0.931 . S
H2631 C2609 0.930 . S
Pr2632 C2634 2.880 . S
Pr2632 O2652 2.562 . S
Pr2632 O2653 2.490 . S
Pr2632 O2654 2.695 . S
Pr2632 O2655 2.512 . S
Pr2632 O2657 2.437 . S
Pr2632 O2660 2.436 . S
Pr2632 O2662 2.438 . S
Pr2633 C2643 2.880 . S
Pr2633 O2654 2.436 . S
Pr2633 O2656 2.438 . S
Pr2633 O2658 2.562 . S
Pr2633 O2659 2.490 . S
Pr2633 O2660 2.695 . S
Pr2633 O2661 2.512 . S
Pr2633 O2663 2.437 . S
C2634 Pr2632 2.880 . S
C2634 C2635 1.491 . S
C2634 O2652 1.254 . S
C2634 O2653 1.225 . S
C2635 C2634 1.491 . S
C2635 C2636 1.392 . S
C2635 C2640 1.356 . S
C2636 C2635 1.392 . S
C2636 C2637 1.368 . S
C2636 H2664 0.929 . S
C2637 C2636 1.368 . S
C2637 C2638 1.386 . S
C2637 H2665 0.929 . S
C2638 C2637 1.386 . S
C2638 C2639 1.373 . S
C2639 C2638 1.373 . S
C2639 C2640 1.409 . S
C2639 H2666 0.931 . S
C2640 C2635 1.356 . S
C2640 C2639 1.409 . S
C2640 H2667 0.930 . S
C2641 O2654 1.270 . S
C2641 O2655 1.248 . S
C2642 O2656 1.267 . S
C2642 O2657 1.278 . S
C2643 Pr2633 2.880 . S
C2643 C2644 1.491 . S
C2643 O2658 1.254 . S
C2643 O2659 1.225 . S
C2644 C2643 1.491 . S
C2644 C2645 1.392 . S
C2644 C2649 1.356 . S
C2645 C2644 1.392 . S
C2645 C2646 1.368 . S
C2645 H2668 0.929 . S
C2646 C2645 1.368 . S
C2646 C2647 1.386 . S
C2646 H2669 0.929 . S
C2647 C2646 1.386 . S
C2647 C2648 1.373 . S
C2648 C2647 1.373 . S
C2648 C2649 1.409 . S
C2648 H2670 0.931 . S
C2649 C2644 1.356 . S
C2649 C2648 1.409 . S
C2649 H2671 0.930 . S
C2650 O2660 1.270 . S
C2650 O2661 1.248 . S
C2651 O2662 1.267 . S
C2651 O2663 1.278 . S
O2652 Pr2632 2.562 . S
O2652 C2634 1.254 . S
O2653 Pr2632 2.490 . S
O2653 C2634 1.225 . S
O2654 Pr2632 2.695 . S
O2654 Pr2633 2.436 . S
O2654 C2641 1.270 . S
O2655 Pr2632 2.512 . S
O2655 C2641 1.248 . S
O2656 Pr2633 2.438 . S
O2656 C2642 1.267 . S
O2657 Pr2632 2.437 . S
O2657 C2642 1.278 . S
O2658 Pr2633 2.562 . S
O2658 C2643 1.254 . S
O2659 Pr2633 2.490 . S
O2659 C2643 1.225 . S
O2660 Pr2632 2.436 . S
O2660 Pr2633 2.695 . S
O2660 C2650 1.270 . S
O2661 Pr2633 2.512 . S
O2661 C2650 1.248 . S
O2662 Pr2632 2.438 . S
O2662 C2651 1.267 . S
O2663 Pr2633 2.437 . S
O2663 C2651 1.278 . S
H2664 C2636 0.929 . S
H2665 C2637 0.929 . S
H2666 C2639 0.931 . S
H2667 C2640 0.930 . S
H2668 C2645 0.929 . S
H2669 C2646 0.929 . S
H2670 C2648 0.931 . S
H2671 C2649 0.930 . S
Pr2672 C2674 2.880 . S
Pr2672 O2692 2.562 . S
Pr2672 O2693 2.490 . S
Pr2672 O2694 2.695 . S
Pr2672 O2695 2.512 . S
Pr2672 O2697 2.437 . S
Pr2672 O2700 2.436 . S
Pr2672 O2702 2.438 . S
Pr2673 C2683 2.880 . S
Pr2673 O2694 2.436 . S
Pr2673 O2696 2.438 . S
Pr2673 O2698 2.562 . S
Pr2673 O2699 2.490 . S
Pr2673 O2700 2.695 . S
Pr2673 O2701 2.512 . S
Pr2673 O2703 2.437 . S
C2674 Pr2672 2.880 . S
C2674 C2675 1.491 . S
C2674 O2692 1.254 . S
C2674 O2693 1.225 . S
C2675 C2674 1.491 . S
C2675 C2676 1.392 . S
C2675 C2680 1.356 . S
C2676 C2675 1.392 . S
C2676 C2677 1.368 . S
C2676 H2704 0.929 . S
C2677 C2676 1.368 . S
C2677 C2678 1.386 . S
C2677 H2705 0.929 . S
C2678 C2677 1.386 . S
C2678 C2679 1.373 . S
C2679 C2678 1.373 . S
C2679 C2680 1.409 . S
C2679 H2706 0.931 . S
C2680 C2675 1.356 . S
C2680 C2679 1.409 . S
C2680 H2707 0.930 . S
C2681 O2694 1.270 . S
C2681 O2695 1.248 . S
C2682 O2696 1.267 . S
C2682 O2697 1.278 . S
C2683 Pr2673 2.880 . S
C2683 C2684 1.491 . S
C2683 O2698 1.254 . S
C2683 O2699 1.225 . S
C2684 C2683 1.491 . S
C2684 C2685 1.392 . S
C2684 C2689 1.356 . S
C2685 C2684 1.392 . S
C2685 C2686 1.368 . S
C2685 H2708 0.929 . S
C2686 C2685 1.368 . S
C2686 C2687 1.386 . S
C2686 H2709 0.929 . S
C2687 C2686 1.386 . S
C2687 C2688 1.373 . S
C2688 C2687 1.373 . S
C2688 C2689 1.409 . S
C2688 H2710 0.931 . S
C2689 C2684 1.356 . S
C2689 C2688 1.409 . S
C2689 H2711 0.930 . S
C2690 O2700 1.270 . S
C2690 O2701 1.248 . S
C2691 O2702 1.267 . S
C2691 O2703 1.278 . S
O2692 Pr2672 2.562 . S
O2692 C2674 1.254 . S
O2693 Pr2672 2.490 . S
O2693 C2674 1.225 . S
O2694 Pr2672 2.695 . S
O2694 Pr2673 2.436 . S
O2694 C2681 1.270 . S
O2695 Pr2672 2.512 . S
O2695 C2681 1.248 . S
O2696 Pr2673 2.438 . S
O2696 C2682 1.267 . S
O2697 Pr2672 2.437 . S
O2697 C2682 1.278 . S
O2698 Pr2673 2.562 . S
O2698 C2683 1.254 . S
O2699 Pr2673 2.490 . S
O2699 C2683 1.225 . S
O2700 Pr2672 2.436 . S
O2700 Pr2673 2.695 . S
O2700 C2690 1.270 . S
O2701 Pr2673 2.512 . S
O2701 C2690 1.248 . S
O2702 Pr2672 2.438 . S
O2702 C2691 1.267 . S
O2703 Pr2673 2.437 . S
O2703 C2691 1.278 . S
H2704 C2676 0.929 . S
H2705 C2677 0.929 . S
H2706 C2679 0.931 . S
H2707 C2680 0.930 . S
H2708 C2685 0.929 . S
H2709 C2686 0.929 . S
H2710 C2688 0.931 . S
H2711 C2689 0.930 . S
Pr2712 C2714 2.880 . S
Pr2712 O2732 2.562 . S
Pr2712 O2733 2.465 1_554 S
Pr2712 O2734 2.695 . S
Pr2712 O2735 2.512 1_554 S
Pr2712 O2737 2.437 . S
Pr2712 O2740 2.436 . S
Pr2712 O2742 2.438 . S
Pr2713 C2723 2.880 1_455 S
Pr2713 O2734 2.436 . S
Pr2713 O2736 2.438 . S
Pr2713 O2738 2.562 1_455 S
Pr2713 O2739 2.490 1_455 S
Pr2713 O2740 2.695 . S
Pr2713 O2741 2.512 . S
Pr2713 O2743 2.437 . S
C2714 Pr2712 2.880 . S
C2714 C2715 1.491 . S
C2714 O2732 1.254 . S
C2714 O2733 1.199 1_554 S
C2715 C2714 1.491 . S
C2715 C2716 1.392 1_554 S
C2715 C2720 1.356 . S
C2716 C2715 1.392 1_556 S
C2716 C2717 1.368 . S
C2716 H2744 0.929 . S
C2717 C2716 1.368 . S
C2717 C2718 1.386 . S
C2717 H2745 0.929 . S
C2718 C2717 1.386 . S
C2718 C2719 1.373 1_556 S
C2719 C2718 1.373 1_554 S
C2719 C2720 1.409 . S
C2719 H2746 0.931 . S
C2720 C2715 1.356 . S
C2720 C2719 1.409 . S
C2720 H2747 0.930 . S
C2721 O2734 1.270 1_556 S
C2721 O2735 1.248 . S
C2722 O2736 1.267 . S
C2722 O2737 1.278 . S
C2723 Pr2713 2.880 1_655 S
C2723 C2724 1.491 . S
C2723 O2738 1.254 . S
C2723 O2739 1.225 . S
C2724 C2723 1.491 . S
C2724 C2725 1.392 . S
C2724 C2729 1.356 . S
C2725 C2724 1.392 . S
C2725 C2726 1.368 . S
C2725 H2748 0.929 . S
C2726 C2725 1.368 . S
C2726 C2727 1.386 . S
C2726 H2749 0.929 . S
C2727 C2726 1.386 . S
C2727 C2728 1.373 . S
C2728 C2727 1.373 . S
C2728 C2729 1.409 . S
C2728 H2750 0.931 . S
C2729 C2724 1.356 . S
C2729 C2728 1.409 . S
C2729 H2751 0.930 . S
C2730 O2740 1.270 . S
C2730 O2741 1.248 . S
C2731 O2742 1.267 . S
C2731 O2743 1.278 . S
O2732 Pr2712 2.562 . S
O2732 C2714 1.254 . S
O2733 Pr2712 2.465 1_556 S
O2733 C2714 1.199 1_556 S
O2734 Pr2712 2.695 . S
O2734 Pr2713 2.436 . S
O2734 C2721 1.270 1_554 S
O2735 Pr2712 2.512 1_556 S
O2735 C2721 1.248 . S
O2736 Pr2713 2.438 . S
O2736 C2722 1.267 . S
O2737 Pr2712 2.437 . S
O2737 C2722 1.278 . S
O2738 Pr2713 2.562 1_655 S
O2738 C2723 1.254 . S
O2739 Pr2713 2.490 1_655 S
O2739 C2723 1.225 . S
O2740 Pr2712 2.436 . S
O2740 Pr2713 2.695 . S
O2740 C2730 1.270 . S
O2741 Pr2713 2.512 . S
O2741 C2730 1.248 . S
O2742 Pr2712 2.438 . S
O2742 C2731 1.267 . S
O2743 Pr2713 2.437 . S
O2743 C2731 1.278 . S
H2744 C2716 0.929 . S
H2745 C2717 0.929 . S
H2746 C2719 0.931 . S
H2747 C2720 0.930 . S
H2748 C2725 0.929 . S
H2749 C2726 0.929 . S
H2750 C2728 0.931 . S
H2751 C2729 0.930 . S
C2752 C2753 1.387 1_554 S
C2752 H2756 0.950 . S
C2752 C2761 1.390 . S
C2753 C2752 1.387 1_556 S
C2753 C2755 1.387 . S
H2754 C2761 0.950 . S
C2755 C2753 1.387 . S
C2755 C2757 1.390 . S
C2755 H2759 0.950 . S
H2756 C2752 0.950 . S
C2757 C2755 1.390 . S
C2757 C2758 1.387 1_556 S
C2757 H2760 0.950 . S
C2758 C2757 1.387 1_554 S
C2758 C2761 1.387 . S
H2759 C2755 0.950 . S
H2760 C2757 0.950 . S
C2761 C2752 1.390 . S
C2761 H2754 0.950 . S
C2761 C2758 1.387 . S
C2762 C2763 1.387 . S
C2762 H2766 0.950 . S
C2762 C2771 1.390 . S
C2763 C2762 1.387 . S
C2763 C2765 1.387 . S
H2764 C2771 0.950 . S
C2765 C2763 1.387 . S
C2765 C2767 1.390 . S
C2765 H2769 0.950 . S
H2766 C2762 0.950 . S
C2767 C2765 1.390 . S
C2767 C2768 1.387 . S
C2767 H2770 0.950 . S
C2768 C2767 1.387 . S
C2768 C2771 1.387 . S
H2769 C2765 0.950 . S
H2770 C2767 0.950 . S
C2771 C2762 1.390 . S
C2771 H2764 0.950 . S
C2771 C2768 1.387 . S
C2772 C2773 1.387 . S
C2772 H2776 0.950 . S
C2772 C2781 1.390 . S
C2773 C2772 1.387 . S
C2773 C2775 1.387 . S
H2774 C2781 0.950 . S
C2775 C2773 1.387 . S
C2775 C2777 1.390 . S
C2775 H2779 0.950 . S
H2776 C2772 0.950 . S
C2777 C2775 1.390 . S
C2777 C2778 1.389 1_565 S
C2777 H2780 0.950 . S
C2778 C2777 1.389 1_545 S
C2778 C2781 1.389 1_545 S
H2779 C2775 0.950 . S
H2780 C2777 0.950 . S
C2781 C2772 1.390 . S
C2781 H2774 0.950 . S
C2781 C2778 1.389 1_565 S
C2782 C2783 1.387 . S
C2782 H2786 0.950 . S
C2782 C2791 1.390 . S
C2783 C2782 1.387 . S
C2783 C2785 1.387 . S
H2784 C2791 0.950 . S
C2785 C2783 1.387 . S
C2785 C2787 1.390 . S
C2785 H2789 0.950 . S
H2786 C2782 0.950 . S
C2787 C2785 1.390 . S
C2787 C2788 1.387 . S
C2787 H2790 0.950 . S
C2788 C2787 1.387 . S
C2788 C2791 1.387 . S
H2789 C2785 0.950 . S
H2790 C2787 0.950 . S
C2791 C2782 1.390 . S
C2791 H2784 0.950 . S
C2791 C2788 1.387 . S
C2792 C2793 1.387 . S
C2792 H2796 0.950 . S
C2792 C2801 1.390 1_565 S
C2793 C2792 1.387 . S
C2793 C2795 1.387 . S
H2794 C2801 0.950 . S
C2795 C2793 1.387 . S
C2795 C2797 1.390 . S
C2795 H2799 0.950 . S
H2796 C2792 0.950 . S
C2797 C2795 1.390 . S
C2797 C2798 1.387 1_565 S
C2797 H2800 0.950 . S
C2798 C2797 1.387 1_545 S
C2798 C2801 1.387 . S
H2799 C2795 0.950 . S
H2800 C2797 0.950 . S
C2801 C2792 1.390 1_545 S
C2801 H2794 0.950 . S
C2801 C2798 1.387 . S
C2802 C2803 1.387 . S
C2802 H2806 0.950 . S
C2802 C2811 1.390 . S
C2803 C2802 1.387 . S
C2803 C2805 1.387 . S
H2804 C2811 0.950 . S
C2805 C2803 1.387 . S
C2805 C2807 1.390 . S
C2805 H2809 0.950 . S
H2806 C2802 0.950 . S
C2807 C2805 1.390 . S
C2807 C2808 1.387 . S
C2807 H2810 0.950 . S
C2808 C2807 1.387 . S
C2808 C2811 1.387 . S
H2809 C2805 0.950 . S
H2810 C2807 0.950 . S
C2811 C2802 1.390 . S
C2811 H2804 0.950 . S
C2811 C2808 1.387 . S
C2812 C2813 1.387 . S
C2812 H2816 0.950 . S
C2812 C2821 1.390 . S
C2813 C2812 1.387 . S
C2813 C2815 1.387 . S
H2814 C2821 0.950 . S
C2815 C2813 1.387 . S
C2815 C2817 1.390 . S
C2815 H2819 0.950 . S
H2816 C2812 0.950 . S
C2817 C2815 1.390 . S
C2817 C2818 1.387 . S
C2817 H2820 0.950 . S
C2818 C2817 1.387 . S
C2818 C2821 1.387 . S
H2819 C2815 0.950 . S
H2820 C2817 0.950 . S
C2821 C2812 1.390 . S
C2821 H2814 0.950 . S
C2821 C2818 1.387 . S
C2822 C2823 1.387 . S
C2822 H2826 0.950 . S
C2822 C2831 1.390 . S
C2823 C2822 1.387 . S
C2823 C2825 1.387 . S
H2824 C2831 0.950 . S
C2825 C2823 1.387 . S
C2825 C2827 1.390 . S
C2825 H2829 0.950 . S
H2826 C2822 0.950 . S
C2827 C2825 1.390 . S
C2827 C2828 1.387 . S
C2827 H2830 0.950 . S
C2828 C2827 1.387 . S
C2828 C2831 1.387 . S
H2829 C2825 0.950 . S
H2830 C2827 0.950 . S
C2831 C2822 1.390 . S
C2831 H2824 0.950 . S
C2831 C2828 1.387 . S
C2832 C2833 1.387 1_455 S
C2832 H2836 0.950 . S
C2832 C2841 1.390 . S
C2833 C2832 1.387 1_655 S
C2833 C2835 1.387 . S
H2834 C2841 0.950 . S
C2835 C2833 1.387 . S
C2835 C2837 1.412 . S
C2835 H2839 0.950 . S
H2836 C2832 0.950 . S
C2837 C2835 1.412 . S
C2837 C2838 1.371 1_655 S
C2837 H2840 0.946 . S
C2838 C2837 1.371 1_455 S
C2838 C2841 1.387 . S
H2839 C2835 0.950 . S
H2840 C2837 0.946 . S
C2841 C2832 1.390 . S
C2841 H2834 0.950 . S
C2841 C2838 1.387 . S
C2842 C2843 1.387 . S
C2842 H2846 0.950 . S
C2842 C2851 1.390 . S
C2843 C2842 1.387 . S
C2843 C2845 1.387 . S
H2844 C2851 0.950 . S
C2845 C2843 1.387 . S
C2845 C2847 1.390 . S
C2845 H2849 0.950 . S
H2846 C2842 0.950 . S
C2847 C2845 1.390 . S
C2847 C2848 1.387 . S
C2847 H2850 0.950 . S
C2848 C2847 1.387 . S
C2848 C2851 1.387 . S
H2849 C2845 0.950 . S
H2850 C2847 0.950 . S
C2851 C2842 1.390 . S
C2851 H2844 0.950 . S
C2851 C2848 1.387 . S
C2852 C2853 1.387 . S
C2852 H2856 0.950 . S
C2852 C2861 1.390 . S
C2853 C2852 1.387 . S
C2853 C2855 1.387 . S
H2854 C2861 0.950 . S
C2855 C2853 1.387 . S
C2855 C2857 1.390 . S
C2855 H2859 0.950 . S
H2856 C2852 0.950 . S
C2857 C2855 1.390 . S
C2857 C2858 1.387 . S
C2857 H2860 0.950 . S
C2858 C2857 1.387 . S
C2858 C2861 1.387 . S
H2859 C2855 0.950 . S
H2860 C2857 0.950 . S
C2861 C2852 1.390 . S
C2861 H2854 0.950 . S
C2861 C2858 1.387 . S
C2862 C2863 1.387 . S
C2862 H2866 0.950 . S
C2862 C2871 1.390 . S
C2863 C2862 1.387 . S
C2863 C2865 1.387 . S
H2864 C2871 0.950 . S
C2865 C2863 1.387 . S
C2865 C2867 1.390 . S
C2865 H2869 0.950 . S
H2866 C2862 0.950 . S
C2867 C2865 1.390 . S
C2867 C2868 1.387 . S
C2867 H2870 0.950 . S
C2868 C2867 1.387 . S
C2868 C2871 1.387 . S
H2869 C2865 0.950 . S
H2870 C2867 0.950 . S
C2871 C2862 1.390 . S
C2871 H2864 0.950 . S
C2871 C2868 1.387 . S
C2872 C2873 1.387 . S
C2872 H2876 0.950 . S
C2872 C2881 1.390 . S
C2873 C2872 1.387 . S
C2873 C2875 1.387 1_655 S
H2874 C2881 0.950 . S
C2875 C2873 1.387 1_455 S
C2875 C2877 1.390 . S
C2875 H2879 0.950 . S
H2876 C2872 0.950 . S
C2877 C2875 1.390 . S
C2877 C2878 1.387 1_455 S
C2877 H2880 0.950 . S
C2878 C2877 1.387 1_655 S
C2878 C2881 1.387 . S
H2879 C2875 0.950 . S
H2880 C2877 0.950 . S
C2881 C2872 1.390 . S
C2881 H2874 0.950 . S
C2881 C2878 1.387 . S
C2882 C2883 1.387 . S
C2882 H2886 0.950 . S
C2882 C2891 1.390 . S
C2883 C2882 1.387 . S
C2883 C2885 1.387 . S
H2884 C2891 0.950 . S
C2885 C2883 1.387 . S
C2885 C2887 1.390 . S
C2885 H2889 0.950 . S
H2886 C2882 0.950 . S
C2887 C2885 1.390 . S
C2887 C2888 1.387 . S
C2887 H2890 0.950 . S
C2888 C2887 1.387 . S
C2888 C2891 1.387 . S
H2889 C2885 0.950 . S
H2890 C2887 0.950 . S
C2891 C2882 1.390 . S
C2891 H2884 0.950 . S
C2891 C2888 1.387 . S
C2892 C2893 1.387 . S
C2892 H2896 0.950 . S
C2892 C2901 1.390 . S
C2893 C2892 1.387 . S
C2893 C2895 1.387 . S
H2894 C2901 0.950 . S
C2895 C2893 1.387 . S
C2895 C2897 1.390 . S
C2895 H2899 0.950 . S
H2896 C2892 0.950 . S
C2897 C2895 1.390 . S
C2897 C2898 1.387 . S
C2897 H2900 0.950 . S
C2898 C2897 1.387 . S
C2898 C2901 1.387 . S
H2899 C2895 0.950 . S
H2900 C2897 0.950 . S
C2901 C2892 1.390 . S
C2901 H2894 0.950 . S
C2901 C2898 1.387 . S
C2902 C2903 1.387 . S
C2902 H2906 0.950 . S
C2902 C2911 1.390 . S
C2903 C2902 1.387 . S
C2903 C2905 1.387 . S
H2904 C2911 0.950 . S
C2905 C2903 1.387 . S
C2905 C2907 1.390 . S
C2905 H2909 0.950 . S
H2906 C2902 0.950 . S
C2907 C2905 1.390 . S
C2907 C2908 1.387 . S
C2907 H2910 0.950 . S
C2908 C2907 1.387 . S
C2908 C2911 1.387 . S
H2909 C2905 0.950 . S
H2910 C2907 0.950 . S
C2911 C2902 1.390 . S
C2911 H2904 0.950 . S
C2911 C2908 1.387 . S
C2912 C2913 1.387 . S
C2912 H2916 0.950 . S
C2912 C2921 1.390 . S
C2913 C2912 1.387 . S
C2913 C2915 1.387 1_545 S
H2914 C2921 0.950 . S
C2915 C2913 1.387 1_565 S
C2915 C2917 1.390 1_565 S
C2915 H2919 0.950 . S
H2916 C2912 0.950 . S
C2917 C2915 1.390 1_545 S
C2917 C2918 1.387 . S
C2917 H2920 0.950 1_545 S
C2918 C2917 1.387 . S
C2918 C2921 1.387 . S
H2919 C2915 0.950 . S
H2920 C2917 0.950 1_565 S
C2921 C2912 1.390 . S
C2921 H2914 0.950 . S
C2921 C2918 1.387 . S
C2922 C2923 1.387 . S
C2922 H2926 0.950 . S
C2922 C2931 1.390 . S
C2923 C2922 1.387 . S
C2923 C2925 1.387 . S
H2924 C2931 0.950 . S
C2925 C2923 1.387 . S
C2925 C2927 1.390 . S
C2925 H2929 0.950 1_554 S
H2926 C2922 0.950 . S
C2927 C2925 1.390 . S
C2927 C2928 1.387 . S
C2927 H2930 0.950 . S
C2928 C2927 1.387 . S
C2928 C2931 1.387 . S
H2929 C2925 0.950 1_556 S
H2930 C2927 0.950 . S
C2931 C2922 1.390 . S
C2931 H2924 0.950 . S
C2931 C2928 1.387 . S
C2932 C2933 1.387 . S
C2932 H2936 0.950 . S
C2932 C2941 1.390 . S
C2933 C2932 1.387 . S
C2933 C2935 1.387 . S
H2934 C2941 0.950 . S
C2935 C2933 1.387 . S
C2935 C2937 1.390 . S
C2935 H2939 0.950 . S
H2936 C2932 0.950 . S
C2937 C2935 1.390 . S
C2937 C2938 1.387 . S
C2937 H2940 0.950 . S
C2938 C2937 1.387 . S
C2938 C2941 1.387 . S
H2939 C2935 0.950 . S
H2940 C2937 0.950 . S
C2941 C2932 1.390 . S
C2941 H2934 0.950 . S
C2941 C2938 1.387 . S
C2942 C2943 1.387 . S
C2942 H2946 0.950 . S
C2942 C2951 1.390 . S
C2943 C2942 1.387 . S
C2943 C2945 1.387 . S
H2944 C2951 0.950 . S
C2945 C2943 1.387 . S
C2945 C2947 1.390 . S
C2945 H2949 0.950 . S
H2946 C2942 0.950 . S
C2947 C2945 1.390 . S
C2947 C2948 1.387 . S
C2947 H2950 0.950 . S
C2948 C2947 1.387 . S
C2948 C2951 1.387 . S
H2949 C2945 0.950 . S
H2950 C2947 0.950 . S
C2951 C2942 1.390 . S
C2951 H2944 0.950 . S
C2951 C2948 1.387 . S
C2952 C2953 1.387 . S
C2952 H2956 0.950 . S
C2952 C2961 1.390 . S
C2953 C2952 1.387 . S
C2953 C2955 1.387 . S
H2954 C2961 0.950 . S
C2955 C2953 1.387 . S
C2955 C2957 1.390 . S
C2955 H2959 0.950 . S
H2956 C2952 0.950 . S
C2957 C2955 1.390 . S
C2957 C2958 1.387 . S
C2957 H2960 0.950 . S
C2958 C2957 1.387 . S
C2958 C2961 1.387 . S
H2959 C2955 0.950 . S
H2960 C2957 0.950 . S
C2961 C2952 1.390 . S
C2961 H2954 0.950 . S
C2961 C2958 1.387 . S
C2962 C2963 1.387 . S
C2962 H2966 0.950 . S
C2962 C2971 1.390 . S
C2963 C2962 1.387 . S
C2963 C2965 1.387 . S
H2964 C2971 0.950 . S
C2965 C2963 1.387 . S
C2965 C2967 1.390 . S
C2965 H2969 0.950 . S
H2966 C2962 0.950 . S
C2967 C2965 1.390 . S
C2967 C2968 1.387 . S
C2967 H2970 0.950 . S
C2968 C2967 1.387 . S
C2968 C2971 1.387 . S
H2969 C2965 0.950 . S
H2970 C2967 0.950 . S
C2971 C2962 1.390 . S
C2971 H2964 0.950 . S
C2971 C2968 1.387 . S
C2972 C2973 1.387 . S
C2972 H2976 0.950 . S
C2972 C2981 1.390 . S
C2973 C2972 1.387 . S
C2973 C2975 1.387 . S
H2974 C2981 0.950 . S
C2975 C2973 1.387 . S
C2975 C2977 1.390 . S
C2975 H2979 0.950 . S
H2976 C2972 0.950 . S
C2977 C2975 1.390 . S
C2977 C2978 1.387 . S
C2977 H2980 0.950 . S
C2978 C2977 1.387 . S
C2978 C2981 1.387 . S
H2979 C2975 0.950 . S
H2980 C2977 0.950 . S
C2981 C2972 1.390 . S
C2981 H2974 0.950 . S
C2981 C2978 1.387 . S
C2982 C2983 1.387 . S
C2982 H2986 0.950 . S
C2982 C2991 1.390 . S
C2983 C2982 1.387 . S
C2983 C2985 1.387 . S
H2984 C2991 0.950 . S
C2985 C2983 1.387 . S
C2985 C2987 1.390 . S
C2985 H2989 0.950 . S
H2986 C2982 0.950 . S
C2987 C2985 1.390 . S
C2987 C2988 1.387 . S
C2987 H2990 0.950 . S
C2988 C2987 1.387 . S
C2988 C2991 1.387 . S
H2989 C2985 0.950 . S
H2990 C2987 0.950 . S
C2991 C2982 1.390 . S
C2991 H2984 0.950 . S
C2991 C2988 1.387 . S
C2992 C2993 1.387 . S
C2992 H2996 0.950 . S
C2992 C3001 1.390 . S
C2993 C2992 1.387 . S
C2993 C2995 1.387 . S
H2994 C3001 0.950 . S
C2995 C2993 1.387 . S
C2995 C2997 1.390 . S
C2995 H2999 0.950 . S
H2996 C2992 0.950 . S
C2997 C2995 1.390 . S
C2997 C2998 1.387 . S
C2997 H3000 0.950 1_565 S
C2998 C2997 1.387 . S
C2998 C3001 1.387 . S
H2999 C2995 0.950 . S
H3000 C2997 0.950 1_545 S
C3001 C2992 1.390 . S
C3001 H2994 0.950 . S
C3001 C2998 1.387 . S
C3002 C3003 1.387 . S
C3002 H3006 0.950 . S
C3002 C3011 1.390 . S
C3003 C3002 1.387 . S
C3003 C3005 1.387 . S
H3004 C3011 0.950 . S
C3005 C3003 1.387 . S
C3005 C3007 1.390 . S
C3005 H3009 0.950 . S
H3006 C3002 0.950 . S
C3007 C3005 1.390 . S
C3007 C3008 1.387 . S
C3007 H3010 0.950 . S
C3008 C3007 1.387 . S
C3008 C3011 1.387 . S
H3009 C3005 0.950 . S
H3010 C3007 0.950 . S
C3011 C3002 1.390 . S
C3011 H3004 0.950 . S
C3011 C3008 1.387 . S
C3012 C3013 1.387 . S
C3012 H3016 0.950 . S
C3012 C3021 1.390 . S
C3013 C3012 1.387 . S
C3013 C3015 1.387 . S
H3014 C3021 0.950 . S
C3015 C3013 1.387 . S
C3015 C3017 1.390 . S
C3015 H3019 0.950 . S
H3016 C3012 0.950 . S
C3017 C3015 1.390 . S
C3017 C3018 1.387 . S
C3017 H3020 0.950 . S
C3018 C3017 1.387 . S
C3018 C3021 1.387 . S
H3019 C3015 0.950 . S
H3020 C3017 0.950 . S
C3021 C3012 1.390 . S
C3021 H3014 0.950 . S
C3021 C3018 1.387 . S
C3022 C3023 1.387 . S
C3022 H3026 0.950 . S
C3022 C3031 1.390 . S
C3023 C3022 1.387 . S
C3023 C3025 1.387 . S
H3024 C3031 0.950 . S
C3025 C3023 1.387 . S
C3025 C3027 1.390 . S
C3025 H3029 0.950 . S
H3026 C3022 0.950 . S
C3027 C3025 1.390 . S
C3027 C3028 1.387 . S
C3027 H3030 0.950 . S
C3028 C3027 1.387 . S
C3028 C3031 1.387 . S
H3029 C3025 0.950 . S
H3030 C3027 0.950 . S
C3031 C3022 1.390 . S
C3031 H3024 0.950 . S
C3031 C3028 1.387 . S
C3032 C3033 1.387 . S
C3032 H3036 0.950 . S
C3032 C3041 1.390 . S
C3033 C3032 1.387 . S
C3033 C3035 1.387 . S
H3034 C3041 0.950 . S
C3035 C3033 1.387 . S
C3035 C3037 1.390 . S
C3035 H3039 0.950 1_455 S
H3036 C3032 0.950 . S
C3037 C3035 1.390 . S
C3037 C3038 1.387 . S
C3037 H3040 0.950 . S
C3038 C3037 1.387 . S
C3038 C3041 1.387 . S
H3039 C3035 0.950 1_655 S
H3040 C3037 0.950 . S
C3041 C3032 1.390 . S
C3041 H3034 0.950 . S
C3041 C3038 1.387 . S
C3042 C3043 1.387 . S
C3042 H3046 0.950 . S
C3042 C3051 1.390 . S
C3043 C3042 1.387 . S
C3043 C3045 1.387 . S
H3044 C3051 0.950 . S
C3045 C3043 1.387 . S
C3045 C3047 1.390 . S
C3045 H3049 0.950 . S
H3046 C3042 0.950 . S
C3047 C3045 1.390 . S
C3047 C3048 1.387 . S
C3047 H3050 0.950 . S
C3048 C3047 1.387 . S
C3048 C3051 1.387 . S
H3049 C3045 0.950 . S
H3050 C3047 0.950 . S
C3051 C3042 1.390 . S
C3051 H3044 0.950 . S
C3051 C3048 1.387 . S
C3052 C3053 1.396 . S
C3052 H3056 0.949 . S
C3052 C3061 1.386 1_556 S
C3053 C3052 1.396 . S
C3053 C3055 1.387 . S
H3054 C3061 0.950 . S
C3055 C3053 1.387 . S
C3055 C3057 1.398 . S
C3055 H3059 0.950 . S
H3056 C3052 0.949 . S
C3057 C3055 1.398 . S
C3057 C3058 1.373 1_556 S
C3057 H3060 0.949 . S
C3058 C3057 1.373 1_554 S
C3058 C3061 1.387 . S
H3059 C3055 0.950 . S
H3060 C3057 0.949 . S
C3061 C3052 1.386 1_554 S
C3061 H3054 0.950 . S
C3061 C3058 1.387 . S
C3062 C3063 1.387 . S
C3062 H3066 0.950 . S
C3062 C3071 1.390 . S
C3063 C3062 1.387 . S
C3063 C3065 1.387 . S
H3064 C3071 0.950 . S
C3065 C3063 1.387 . S
C3065 C3067 1.390 . S
C3065 H3069 0.950 . S
H3066 C3062 0.950 . S
C3067 C3065 1.390 . S
C3067 C3068 1.387 . S
C3067 H3070 0.950 . S
C3068 C3067 1.387 . S
C3068 C3071 1.387 . S
H3069 C3065 0.950 . S
H3070 C3067 0.950 . S
C3071 C3062 1.390 . S
C3071 H3064 0.950 . S
C3071 C3068 1.387 . S
C3072 C3073 1.387 . S
C3072 H3076 0.950 . S
C3072 C3081 1.390 . S
C3073 C3072 1.387 . S
C3073 C3075 1.387 . S
H3074 C3081 0.950 . S
C3075 C3073 1.387 . S
C3075 C3077 1.390 . S
C3075 H3079 0.950 . S
H3076 C3072 0.950 . S
C3077 C3075 1.390 . S
C3077 C3078 1.387 . S
C3077 H3080 0.950 . S
C3078 C3077 1.387 . S
C3078 C3081 1.387 . S
H3079 C3075 0.950 . S
H3080 C3077 0.950 . S
C3081 C3072 1.390 . S
C3081 H3074 0.950 . S
C3081 C3078 1.387 . S
C3082 C3083 1.387 . S
C3082 H3086 0.950 . S
C3082 C3091 1.390 . S
C3083 C3082 1.387 . S
C3083 C3085 1.387 . S
H3084 C3091 0.950 . S
C3085 C3083 1.387 . S
C3085 C3087 1.390 . S
C3085 H3089 0.950 . S
H3086 C3082 0.950 . S
C3087 C3085 1.390 . S
C3087 C3088 1.387 . S
C3087 H3090 0.950 . S
C3088 C3087 1.387 . S
C3088 C3091 1.387 . S
H3089 C3085 0.950 . S
H3090 C3087 0.950 . S
C3091 C3082 1.390 . S
C3091 H3084 0.950 . S
C3091 C3088 1.387 . S
C3092 C3093 1.387 . S
C3092 H3096 0.950 . S
C3092 C3101 1.390 . S
C3093 C3092 1.387 . S
C3093 C3095 1.387 . S
H3094 C3101 0.950 . S
C3095 C3093 1.387 . S
C3095 C3097 1.390 . S
C3095 H3099 0.950 . S
H3096 C3092 0.950 . S
C3097 C3095 1.390 . S
C3097 C3098 1.387 . S
C3097 H3100 0.950 . S
C3098 C3097 1.387 . S
C3098 C3101 1.387 . S
H3099 C3095 0.950 . S
H3100 C3097 0.950 . S
C3101 C3092 1.390 . S
C3101 H3094 0.950 . S
C3101 C3098 1.387 . S
C3102 C3103 1.387 . S
C3102 H3106 0.950 . S
C3102 C3111 1.390 . S
C3103 C3102 1.387 . S
C3103 C3105 1.387 . S
H3104 C3111 0.950 . S
C3105 C3103 1.387 . S
C3105 C3107 1.390 . S
C3105 H3109 0.950 . S
H3106 C3102 0.950 . S
C3107 C3105 1.390 . S
C3107 C3108 1.387 . S
C3107 H3110 0.950 . S
C3108 C3107 1.387 . S
C3108 C3111 1.387 . S
H3109 C3105 0.950 . S
H3110 C3107 0.950 . S
C3111 C3102 1.390 . S
C3111 H3104 0.950 . S
C3111 C3108 1.387 . S
C3112 C3113 1.387 . S
C3112 H3116 0.950 . S
C3112 C3121 1.390 . S
C3113 C3112 1.387 . S
C3113 C3115 1.387 . S
H3114 C3121 0.950 . S
C3115 C3113 1.387 . S
C3115 C3117 1.390 . S
C3115 H3119 0.950 . S
H3116 C3112 0.950 . S
C3117 C3115 1.390 . S
C3117 C3118 1.387 . S
C3117 H3120 0.950 . S
C3118 C3117 1.387 . S
C3118 C3121 1.387 . S
H3119 C3115 0.950 . S
H3120 C3117 0.950 . S
C3121 C3112 1.390 . S
C3121 H3114 0.950 . S
C3121 C3118 1.387 . S
C3122 C3123 1.387 . S
C3122 H3126 0.950 . S
C3122 C3131 1.390 . S
C3123 C3122 1.387 . S
C3123 C3125 1.387 . S
H3124 C3131 0.950 . S
C3125 C3123 1.387 . S
C3125 C3127 1.390 . S
C3125 H3129 0.950 . S
H3126 C3122 0.950 . S
C3127 C3125 1.390 . S
C3127 C3128 1.387 . S
C3127 H3130 0.950 . S
C3128 C3127 1.387 . S
C3128 C3131 1.387 . S
H3129 C3125 0.950 . S
H3130 C3127 0.950 . S
C3131 C3122 1.390 . S
C3131 H3124 0.950 . S
C3131 C3128 1.387 . S
C3132 C3133 1.387 . S
C3132 H3136 0.950 . S
C3132 C3141 1.390 . S
C3133 C3132 1.387 . S
C3133 C3135 1.387 . S
H3134 C3141 0.950 . S
C3135 C3133 1.387 . S
C3135 C3137 1.390 . S
C3135 H3139 0.950 . S
H3136 C3132 0.950 . S
C3137 C3135 1.390 . S
C3137 C3138 1.387 . S
C3137 H3140 0.950 . S
C3138 C3137 1.387 . S
C3138 C3141 1.387 . S
H3139 C3135 0.950 . S
H3140 C3137 0.950 . S
C3141 C3132 1.390 . S
C3141 H3134 0.950 . S
C3141 C3138 1.387 . S
C3142 C3143 1.387 . S
C3142 H3146 0.950 . S
C3142 C3151 1.390 . S
C3143 C3142 1.387 . S
C3143 C3145 1.387 . S
H3144 C3151 0.950 . S
C3145 C3143 1.387 . S
C3145 C3147 1.390 . S
C3145 H3149 0.950 . S
H3146 C3142 0.950 . S
C3147 C3145 1.390 . S
C3147 C3148 1.387 . S
C3147 H3150 0.950 . S
C3148 C3147 1.387 . S
C3148 C3151 1.387 . S
H3149 C3145 0.950 . S
H3150 C3147 0.950 . S
C3151 C3142 1.390 . S
C3151 H3144 0.950 . S
C3151 C3148 1.387 . S
C3152 C3153 1.387 . S
C3152 H3156 0.950 . S
C3152 C3161 1.390 . S
C3153 C3152 1.387 . S
C3153 C3155 1.387 1_556 S
H3154 C3161 0.950 . S
C3155 C3153 1.387 1_554 S
C3155 C3157 1.390 1_554 S
C3155 H3159 0.950 . S
H3156 C3152 0.950 . S
C3157 C3155 1.390 1_556 S
C3157 C3158 1.387 . S
C3157 H3160 0.950 1_556 S
C3158 C3157 1.387 . S
C3158 C3161 1.387 . S
H3159 C3155 0.950 . S
H3160 C3157 0.950 1_554 S
C3161 C3152 1.390 . S
C3161 H3154 0.950 . S
C3161 C3158 1.387 . S
C3162 C3163 1.387 . S
C3162 H3166 0.950 . S
C3162 C3171 1.390 . S
C3163 C3162 1.387 . S
C3163 C3165 1.387 . S
H3164 C3171 0.950 . S
C3165 C3163 1.387 . S
C3165 C3167 1.390 . S
C3165 H3169 0.950 . S
H3166 C3162 0.950 . S
C3167 C3165 1.390 . S
C3167 C3168 1.387 . S
C3167 H3170 0.950 . S
C3168 C3167 1.387 . S
C3168 C3171 1.387 . S
H3169 C3165 0.950 . S
H3170 C3167 0.950 . S
C3171 C3162 1.390 . S
C3171 H3164 0.950 . S
C3171 C3168 1.387 . S
C3172 C3173 1.387 . S
C3172 H3176 0.950 . S
C3172 C3181 1.390 . S
C3173 C3172 1.387 . S
C3173 C3175 1.387 . S
H3174 C3181 0.950 . S
C3175 C3173 1.387 . S
C3175 C3177 1.390 . S
C3175 H3179 0.950 . S
H3176 C3172 0.950 . S
C3177 C3175 1.390 . S
C3177 C3178 1.387 . S
C3177 H3180 0.950 . S
C3178 C3177 1.387 . S
C3178 C3181 1.387 . S
H3179 C3175 0.950 . S
H3180 C3177 0.950 . S
C3181 C3172 1.390 . S
C3181 H3174 0.950 . S
C3181 C3178 1.387 . S
C3182 C3183 1.387 . S
C3182 H3186 0.950 . S
C3182 C3191 1.390 . S
C3183 C3182 1.387 . S
C3183 C3185 1.387 . S
H3184 C3191 0.950 . S
C3185 C3183 1.387 . S
C3185 C3187 1.390 . S
C3185 H3189 0.950 . S
H3186 C3182 0.950 . S
C3187 C3185 1.390 . S
C3187 C3188 1.387 . S
C3187 H3190 0.950 . S
C3188 C3187 1.387 . S
C3188 C3191 1.387 . S
H3189 C3185 0.950 . S
H3190 C3187 0.950 . S
C3191 C3182 1.390 . S
C3191 H3184 0.950 . S
C3191 C3188 1.387 . S
C3192 C3193 1.387 . S
C3192 H3196 0.950 . S
C3192 C3201 1.390 . S
C3193 C3192 1.387 . S
C3193 C3195 1.387 . S
H3194 C3201 0.950 . S
C3195 C3193 1.387 . S
C3195 C3197 1.390 . S
C3195 H3199 0.950 . S
H3196 C3192 0.950 . S
C3197 C3195 1.390 . S
C3197 C3198 1.387 . S
C3197 H3200 0.950 . S
C3198 C3197 1.387 . S
C3198 C3201 1.387 . S
H3199 C3195 0.950 . S
H3200 C3197 0.950 . S
C3201 C3192 1.390 . S
C3201 H3194 0.950 . S
C3201 C3198 1.387 . S
C3202 C3203 1.387 1_545 S
C3202 H3206 0.950 . S
C3202 C3211 1.390 . S
C3203 C3202 1.387 1_565 S
C3203 C3205 1.387 . S
H3204 C3211 0.950 . S
C3205 C3203 1.387 . S
C3205 C3207 1.390 . S
C3205 H3209 0.950 . S
H3206 C3202 0.950 . S
C3207 C3205 1.390 . S
C3207 C3208 1.387 1_565 S
C3207 H3210 0.950 . S
C3208 C3207 1.387 1_545 S
C3208 C3211 1.387 . S
H3209 C3205 0.950 . S
H3210 C3207 0.950 . S
C3211 C3202 1.390 . S
C3211 H3204 0.950 . S
C3211 C3208 1.387 . S
C3212 C3213 1.387 . S
C3212 H3216 0.950 . S
C3212 C3221 1.390 . S
C3213 C3212 1.387 . S
C3213 C3215 1.387 . S
H3214 C3221 0.950 . S
C3215 C3213 1.387 . S
C3215 C3217 1.390 . S
C3215 H3219 0.950 . S
H3216 C3212 0.950 . S
C3217 C3215 1.390 . S
C3217 C3218 1.387 . S
C3217 H3220 0.950 . S
C3218 C3217 1.387 . S
C3218 C3221 1.387 . S
H3219 C3215 0.950 . S
H3220 C3217 0.950 . S
C3221 C3212 1.390 . S
C3221 H3214 0.950 . S
C3221 C3218 1.387 . S
C3222 C3223 1.387 . S
C3222 H3226 0.950 . S
C3222 C3231 1.390 . S
C3223 C3222 1.387 . S
C3223 C3225 1.387 . S
H3224 C3231 0.950 . S
C3225 C3223 1.387 . S
C3225 C3227 1.390 . S
C3225 H3229 0.950 . S
H3226 C3222 0.950 . S
C3227 C3225 1.390 . S
C3227 C3228 1.387 . S
C3227 H3230 0.950 . S
C3228 C3227 1.387 . S
C3228 C3231 1.387 . S
H3229 C3225 0.950 . S
H3230 C3227 0.950 . S
C3231 C3222 1.390 . S
C3231 H3224 0.950 . S
C3231 C3228 1.387 . S
C3232 C3233 1.387 . S
C3232 H3236 0.950 . S
C3232 C3241 1.390 . S
C3233 C3232 1.387 . S
C3233 C3235 1.387 . S
H3234 C3241 0.950 . S
C3235 C3233 1.387 . S
C3235 C3237 1.390 . S
C3235 H3239 0.950 . S
H3236 C3232 0.950 . S
C3237 C3235 1.390 . S
C3237 C3238 1.387 . S
C3237 H3240 0.950 . S
C3238 C3237 1.387 . S
C3238 C3241 1.387 . S
H3239 C3235 0.950 . S
H3240 C3237 0.950 . S
C3241 C3232 1.390 . S
C3241 H3234 0.950 . S
C3241 C3238 1.387 . S
C3242 C3243 1.387 . S
C3242 H3246 0.950 . S
C3242 C3251 1.390 . S
C3243 C3242 1.387 . S
C3243 C3245 1.387 . S
H3244 C3251 0.950 . S
C3245 C3243 1.387 . S
C3245 C3247 1.390 . S
C3245 H3249 0.950 . S
H3246 C3242 0.950 . S
C3247 C3245 1.390 . S
C3247 C3248 1.387 . S
C3247 H3250 0.950 . S
C3248 C3247 1.387 . S
C3248 C3251 1.387 . S
H3249 C3245 0.950 . S
H3250 C3247 0.950 . S
C3251 C3242 1.390 . S
C3251 H3244 0.950 . S
C3251 C3248 1.387 . S
C3252 C3253 1.368 1_556 S
C3252 H3256 0.950 . S
C3252 C3261 1.390 . S
C3253 C3252 1.368 1_554 S
C3253 C3255 1.407 . S
H3254 C3261 0.950 . S
C3255 C3253 1.407 . S
C3255 C3257 1.390 . S
C3255 H3259 0.950 . S
H3256 C3252 0.950 . S
C3257 C3255 1.390 . S
C3257 C3258 1.387 . S
C3257 H3260 0.950 . S
C3258 C3257 1.387 . S
C3258 C3261 1.387 1_554 S
H3259 C3255 0.950 . S
H3260 C3257 0.950 . S
C3261 C3252 1.390 . S
C3261 H3254 0.950 . S
C3261 C3258 1.387 1_556 S
C3262 C3263 1.387 . S
C3262 H3266 0.950 . S
C3262 C3271 1.390 . S
C3263 C3262 1.387 . S
C3263 C3265 1.387 . S
H3264 C3271 0.950 . S
C3265 C3263 1.387 . S
C3265 C3267 1.390 . S
C3265 H3269 0.950 . S
H3266 C3262 0.950 . S
C3267 C3265 1.390 . S
C3267 C3268 1.387 . S
C3267 H3270 0.950 . S
C3268 C3267 1.387 . S
C3268 C3271 1.387 . S
H3269 C3265 0.950 . S
H3270 C3267 0.950 . S
C3271 C3262 1.390 . S
C3271 H3264 0.950 . S
C3271 C3268 1.387 . S
C3272 C3273 1.387 . S
C3272 H3276 0.950 . S
C3272 C3281 1.390 . S
C3273 C3272 1.387 . S
C3273 C3275 1.387 . S
H3274 C3281 0.950 . S
C3275 C3273 1.387 . S
C3275 C3277 1.390 . S
C3275 H3279 0.950 . S
H3276 C3272 0.950 . S
C3277 C3275 1.390 . S
C3277 C3278 1.387 . S
C3277 H3280 0.950 . S
C3278 C3277 1.387 . S
C3278 C3281 1.387 . S
H3279 C3275 0.950 . S
H3280 C3277 0.950 . S
C3281 C3272 1.390 . S
C3281 H3274 0.950 . S
C3281 C3278 1.387 . S
C3282 C3283 1.387 . S
C3282 H3286 0.950 . S
C3282 C3291 1.390 . S
C3283 C3282 1.387 . S
C3283 C3285 1.387 . S
H3284 C3291 0.950 . S
C3285 C3283 1.387 . S
C3285 C3287 1.390 . S
C3285 H3289 0.950 . S
H3286 C3282 0.950 . S
C3287 C3285 1.390 . S
C3287 C3288 1.387 . S
C3287 H3290 0.950 . S
C3288 C3287 1.387 . S
C3288 C3291 1.387 . S
H3289 C3285 0.950 . S
H3290 C3287 0.950 . S
C3291 C3282 1.390 . S
C3291 H3284 0.950 . S
C3291 C3288 1.387 . S
C3292 C3293 1.387 . S
C3292 H3296 0.950 . S
C3292 C3301 1.390 . S
C3293 C3292 1.387 . S
C3293 C3295 1.387 . S
H3294 C3301 0.950 . S
C3295 C3293 1.387 . S
C3295 C3297 1.390 . S
C3295 H3299 0.950 . S
H3296 C3292 0.950 . S
C3297 C3295 1.390 . S
C3297 C3298 1.387 . S
C3297 H3300 0.950 . S
C3298 C3297 1.387 . S
C3298 C3301 1.387 . S
H3299 C3295 0.950 . S
H3300 C3297 0.950 . S
C3301 C3292 1.390 . S
C3301 H3294 0.950 . S
C3301 C3298 1.387 . S
C3302 C3303 1.387 . S
C3302 H3306 0.950 . S
C3302 C3311 1.390 . S
C3303 C3302 1.387 . S
C3303 C3305 1.387 . S
H3304 C3311 0.950 . S
C3305 C3303 1.387 . S
C3305 C3307 1.390 . S
C3305 H3309 0.950 . S
H3306 C3302 0.950 . S
C3307 C3305 1.390 . S
C3307 C3308 1.387 . S
C3307 H3310 0.950 . S
C3308 C3307 1.387 . S
C3308 C3311 1.387 . S
H3309 C3305 0.950 . S
H3310 C3307 0.950 . S
C3311 C3302 1.390 . S
C3311 H3304 0.950 . S
C3311 C3308 1.387 . S
C3312 C3313 1.387 . S
C3312 H3316 0.950 . S
C3312 C3321 1.390 . S
C3313 C3312 1.387 . S
C3313 C3315 1.387 . S
H3314 C3321 0.950 . S
C3315 C3313 1.387 . S
C3315 C3317 1.390 . S
C3315 H3319 0.950 . S
H3316 C3312 0.950 . S
C3317 C3315 1.390 . S
C3317 C3318 1.387 . S
C3317 H3320 0.950 . S
C3318 C3317 1.387 . S
C3318 C3321 1.387 . S
H3319 C3315 0.950 . S
H3320 C3317 0.950 . S
C3321 C3312 1.390 . S
C3321 H3314 0.950 . S
C3321 C3318 1.387 . S
C3322 C3323 1.387 . S
C3322 H3326 0.950 . S
C3322 C3331 1.390 . S
C3323 C3322 1.387 . S
C3323 C3325 1.387 . S
H3324 C3331 0.950 . S
C3325 C3323 1.387 . S
C3325 C3327 1.390 . S
C3325 H3329 0.950 . S
H3326 C3322 0.950 . S
C3327 C3325 1.390 . S
C3327 C3328 1.387 . S
C3327 H3330 0.950 . S
C3328 C3327 1.387 . S
C3328 C3331 1.387 . S
H3329 C3325 0.950 . S
H3330 C3327 0.950 . S
C3331 C3322 1.390 . S
C3331 H3324 0.950 . S
C3331 C3328 1.387 . S
C3332 C3333 1.387 . S
C3332 H3336 0.950 . S
C3332 C3341 1.390 . S
C3333 C3332 1.387 . S
C3333 C3335 1.387 . S
H3334 C3341 0.950 . S
C3335 C3333 1.387 . S
C3335 C3337 1.390 . S
C3335 H3339 0.950 . S
H3336 C3332 0.950 . S
C3337 C3335 1.390 . S
C3337 C3338 1.387 . S
C3337 H3340 0.950 . S
C3338 C3337 1.387 . S
C3338 C3341 1.387 . S
H3339 C3335 0.950 . S
H3340 C3337 0.950 . S
C3341 C3332 1.390 . S
C3341 H3334 0.950 . S
C3341 C3338 1.387 . S
C3342 C3343 1.387 . S
C3342 H3346 0.950 . S
C3342 C3351 1.390 . S
C3343 C3342 1.387 . S
C3343 C3345 1.387 . S
H3344 C3351 0.950 . S
C3345 C3343 1.387 . S
C3345 C3347 1.390 . S
C3345 H3349 0.950 . S
H3346 C3342 0.950 . S
C3347 C3345 1.390 . S
C3347 C3348 1.387 . S
C3347 H3350 0.950 . S
C3348 C3347 1.387 . S
C3348 C3351 1.387 . S
H3349 C3345 0.950 . S
H3350 C3347 0.950 . S
C3351 C3342 1.390 . S
C3351 H3344 0.950 . S
C3351 C3348 1.387 . S
C3352 C3353 1.387 . S
C3352 H3356 0.950 . S
C3352 C3361 1.390 . S
C3353 C3352 1.387 . S
C3353 C3355 1.387 . S
H3354 C3361 0.950 . S
C3355 C3353 1.387 . S
C3355 C3357 1.390 . S
C3355 H3359 0.950 . S
H3356 C3352 0.950 . S
C3357 C3355 1.390 . S
C3357 C3358 1.387 . S
C3357 H3360 0.950 . S
C3358 C3357 1.387 . S
C3358 C3361 1.387 . S
H3359 C3355 0.950 . S
H3360 C3357 0.950 . S
C3361 C3352 1.390 . S
C3361 H3354 0.950 . S
C3361 C3358 1.387 . S
C3362 C3363 1.387 . S
C3362 H3366 0.950 . S
C3362 C3371 1.390 . S
C3363 C3362 1.387 . S
C3363 C3365 1.387 . S
H3364 C3371 0.950 . S
C3365 C3363 1.387 . S
C3365 C3367 1.390 . S
C3365 H3369 0.950 . S
H3366 C3362 0.950 . S
C3367 C3365 1.390 . S
C3367 C3368 1.387 . S
C3367 H3370 0.950 . S
C3368 C3367 1.387 . S
C3368 C3371 1.387 . S
H3369 C3365 0.950 . S
H3370 C3367 0.950 . S
C3371 C3362 1.390 . S
C3371 H3364 0.950 . S
C3371 C3368 1.387 . S
C3372 C3373 1.387 . S
C3372 H3376 0.950 . S
C3372 C3381 1.390 . S
C3373 C3372 1.387 . S
C3373 C3375 1.387 . S
H3374 C3381 0.950 . S
C3375 C3373 1.387 . S
C3375 C3377 1.390 . S
C3375 H3379 0.950 . S
H3376 C3372 0.950 . S
C3377 C3375 1.390 . S
C3377 C3378 1.387 . S
C3377 H3380 0.950 . S
C3378 C3377 1.387 . S
C3378 C3381 1.387 . S
H3379 C3375 0.950 . S
H3380 C3377 0.950 . S
C3381 C3372 1.390 . S
C3381 H3374 0.950 . S
C3381 C3378 1.387 . S
C3382 C3383 1.387 . S
C3382 H3386 0.950 . S
C3382 C3391 1.390 . S
C3383 C3382 1.387 . S
C3383 C3385 1.387 . S
H3384 C3391 0.950 . S
C3385 C3383 1.387 . S
C3385 C3387 1.390 . S
C3385 H3389 0.950 . S
H3386 C3382 0.950 . S
C3387 C3385 1.390 . S
C3387 C3388 1.387 . S
C3387 H3390 0.950 . S
C3388 C3387 1.387 . S
C3388 C3391 1.387 . S
H3389 C3385 0.950 . S
H3390 C3387 0.950 . S
C3391 C3382 1.390 . S
C3391 H3384 0.950 . S
C3391 C3388 1.387 . S
C3392 C3393 1.387 . S
C3392 H3396 0.950 . S
C3392 C3401 1.390 . S
C3393 C3392 1.387 . S
C3393 C3395 1.387 . S
H3394 C3401 0.950 . S
C3395 C3393 1.387 . S
C3395 C3397 1.390 . S
C3395 H3399 0.950 . S
H3396 C3392 0.950 . S
C3397 C3395 1.390 . S
C3397 C3398 1.387 . S
C3397 H3400 0.950 . S
C3398 C3397 1.387 . S
C3398 C3401 1.387 . S
H3399 C3395 0.950 . S
H3400 C3397 0.950 . S
C3401 C3392 1.390 . S
C3401 H3394 0.950 . S
C3401 C3398 1.387 . S
C3402 C3403 1.387 . S
C3402 H3406 0.950 . S
C3402 C3411 1.390 . S
C3403 C3402 1.387 . S
C3403 C3405 1.387 . S
H3404 C3411 0.950 . S
C3405 C3403 1.387 . S
C3405 C3407 1.390 . S
C3405 H3409 0.950 . S
H3406 C3402 0.950 . S
C3407 C3405 1.390 . S
C3407 C3408 1.387 . S
C3407 H3410 0.950 . S
C3408 C3407 1.387 . S
C3408 C3411 1.387 . S
H3409 C3405 0.950 . S
H3410 C3407 0.950 . S
C3411 C3402 1.390 . S
C3411 H3404 0.950 . S
C3411 C3408 1.387 . S
C3412 C3413 1.387 1_565 S
C3412 H3416 0.950 . S
C3412 C3421 1.390 . S
C3413 C3412 1.387 1_545 S
C3413 C3415 1.387 . S
H3414 C3421 0.950 . S
C3415 C3413 1.387 . S
C3415 C3417 1.390 . S
C3415 H3419 0.950 . S
H3416 C3412 0.950 . S
C3417 C3415 1.390 . S
C3417 C3418 1.387 1_545 S
C3417 H3420 0.950 . S
C3418 C3417 1.387 1_565 S
C3418 C3421 1.387 . S
H3419 C3415 0.950 . S
H3420 C3417 0.950 . S
C3421 C3412 1.390 . S
C3421 H3414 0.950 . S
C3421 C3418 1.387 . S
C3422 C3423 1.387 . S
C3422 H3426 0.950 . S
C3422 C3431 1.390 . S
C3423 C3422 1.387 . S
C3423 C3425 1.387 . S
H3424 C3431 0.950 . S
C3425 C3423 1.387 . S
C3425 C3427 1.390 . S
C3425 H3429 0.907 1_545 S
H3426 C3422 0.950 . S
C3427 C3425 1.390 . S
C3427 C3428 1.387 . S
C3427 H3430 0.950 . S
C3428 C3427 1.387 . S
C3428 C3431 1.387 . S
H3429 C3425 0.907 1_565 S
H3430 C3427 0.950 . S
C3431 C3422 1.390 . S
C3431 H3424 0.950 . S
C3431 C3428 1.387 . S
C3432 C3433 1.387 . S
C3432 H3436 0.950 . S
C3432 C3441 1.390 . S
C3433 C3432 1.387 . S
C3433 C3435 1.387 . S
H3434 C3441 0.950 . S
C3435 C3433 1.387 . S
C3435 C3437 1.390 . S
C3435 H3439 0.950 . S
H3436 C3432 0.950 . S
C3437 C3435 1.390 . S
C3437 C3438 1.387 . S
C3437 H3440 0.950 . S
C3438 C3437 1.387 . S
C3438 C3441 1.387 . S
H3439 C3435 0.950 . S
H3440 C3437 0.950 . S
C3441 C3432 1.390 . S
C3441 H3434 0.950 . S
C3441 C3438 1.387 . S
C3442 C3443 1.387 . S
C3442 H3446 0.950 . S
C3442 C3451 1.390 . S
C3443 C3442 1.387 . S
C3443 C3445 1.387 . S
H3444 C3451 0.950 . S
C3445 C3443 1.387 . S
C3445 C3447 1.390 . S
C3445 H3449 0.950 . S
H3446 C3442 0.950 . S
C3447 C3445 1.390 . S
C3447 C3448 1.387 . S
C3447 H3450 0.950 . S
C3448 C3447 1.387 . S
C3448 C3451 1.387 . S
H3449 C3445 0.950 . S
H3450 C3447 0.950 . S
C3451 C3442 1.390 . S
C3451 H3444 0.950 . S
C3451 C3448 1.387 . S
C3452 C3453 1.387 . S
C3452 H3456 0.950 . S
C3452 C3461 1.390 . S
C3453 C3452 1.387 . S
C3453 C3455 1.387 . S
H3454 C3461 0.950 . S
C3455 C3453 1.387 . S
C3455 C3457 1.390 . S
C3455 H3459 0.950 . S
H3456 C3452 0.950 . S
C3457 C3455 1.390 . S
C3457 C3458 1.387 . S
C3457 H3460 0.950 . S
C3458 C3457 1.387 . S
C3458 C3461 1.387 . S
H3459 C3455 0.950 . S
H3460 C3457 0.950 . S
C3461 C3452 1.390 . S
C3461 H3454 0.950 . S
C3461 C3458 1.387 . S
C3462 C3463 1.387 . S
C3462 H3466 0.950 . S
C3462 C3471 1.390 . S
C3463 C3462 1.387 . S
C3463 C3465 1.387 . S
H3464 C3471 0.950 . S
C3465 C3463 1.387 . S
C3465 C3467 1.390 1_545 S
C3465 H3469 0.950 . S
H3466 C3462 0.950 . S
C3467 C3465 1.390 1_565 S
C3467 C3468 1.387 . S
C3467 H3470 0.950 . S
C3468 C3467 1.387 . S
C3468 C3471 1.387 1_565 S
H3469 C3465 0.950 . S
H3470 C3467 0.950 . S
C3471 C3462 1.390 . S
C3471 H3464 0.950 . S
C3471 C3468 1.387 1_545 S
C3472 C3473 1.387 . S
C3472 H3476 0.950 . S
C3472 C3481 1.390 . S
C3473 C3472 1.387 . S
C3473 C3475 1.387 . S
H3474 C3481 0.950 . S
C3475 C3473 1.387 . S
C3475 C3477 1.390 . S
C3475 H3479 0.950 . S
H3476 C3472 0.950 . S
C3477 C3475 1.390 . S
C3477 C3478 1.387 . S
C3477 H3480 0.950 . S
C3478 C3477 1.387 . S
C3478 C3481 1.387 . S
H3479 C3475 0.950 . S
H3480 C3477 0.950 . S
C3481 C3472 1.390 . S
C3481 H3474 0.950 . S
C3481 C3478 1.387 . S
C3482 C3483 1.387 . S
C3482 H3486 0.950 . S
C3482 C3491 1.390 . S
C3483 C3482 1.387 . S
C3483 C3485 1.387 . S
H3484 C3491 0.950 . S
C3485 C3483 1.387 . S
C3485 C3487 1.390 . S
C3485 H3489 0.950 . S
H3486 C3482 0.950 . S
C3487 C3485 1.390 . S
C3487 C3488 1.387 . S
C3487 H3490 0.950 . S
C3488 C3487 1.387 . S
C3488 C3491 1.387 . S
H3489 C3485 0.950 . S
H3490 C3487 0.950 . S
C3491 C3482 1.390 . S
C3491 H3484 0.950 . S
C3491 C3488 1.387 . S
C3492 C3493 1.387 . S
C3492 H3496 0.950 . S
C3492 C3501 1.390 . S
C3493 C3492 1.387 . S
C3493 C3495 1.387 . S
H3494 C3501 0.950 . S
C3495 C3493 1.387 . S
C3495 C3497 1.390 . S
C3495 H3499 0.950 . S
H3496 C3492 0.950 . S
C3497 C3495 1.390 . S
C3497 C3498 1.387 . S
C3497 H3500 0.950 . S
C3498 C3497 1.387 . S
C3498 C3501 1.387 . S
H3499 C3495 0.950 . S
H3500 C3497 0.950 . S
C3501 C3492 1.390 . S
C3501 H3494 0.950 . S
C3501 C3498 1.387 . S
C3502 C3503 1.387 . S
C3502 H3506 0.950 . S
C3502 C3511 1.390 . S
C3503 C3502 1.387 . S
C3503 C3505 1.387 . S
H3504 C3511 0.950 . S
C3505 C3503 1.387 . S
C3505 C3507 1.390 . S
C3505 H3509 0.950 . S
H3506 C3502 0.950 . S
C3507 C3505 1.390 . S
C3507 C3508 1.387 . S
C3507 H3510 0.950 . S
C3508 C3507 1.387 . S
C3508 C3511 1.387 . S
H3509 C3505 0.950 . S
H3510 C3507 0.950 . S
C3511 C3502 1.390 . S
C3511 H3504 0.950 . S
C3511 C3508 1.387 . S
C3512 C3513 1.387 . S
C3512 H3516 0.950 . S
C3512 C3521 1.390 . S
C3513 C3512 1.387 . S
C3513 C3515 1.387 1_556 S
H3514 C3521 0.950 . S
C3515 C3513 1.387 1_554 S
C3515 C3517 1.390 . S
C3515 H3519 0.950 . S
H3516 C3512 0.950 . S
C3517 C3515 1.390 . S
C3517 C3518 1.387 1_554 S
C3517 H3520 0.950 . S
C3518 C3517 1.387 1_556 S
C3518 C3521 1.387 . S
H3519 C3515 0.950 . S
H3520 C3517 0.950 . S
C3521 C3512 1.390 . S
C3521 H3514 0.950 . S
C3521 C3518 1.387 . S
C3522 C3523 1.387 . S
C3522 H3526 0.950 . S
C3522 C3531 1.390 . S
C3523 C3522 1.387 . S
C3523 C3525 1.387 . S
H3524 C3531 0.950 . S
C3525 C3523 1.387 . S
C3525 C3527 1.390 . S
C3525 H3529 0.950 . S
H3526 C3522 0.950 . S
C3527 C3525 1.390 . S
C3527 C3528 1.387 . S
C3527 H3530 0.950 . S
C3528 C3527 1.387 . S
C3528 C3531 1.387 . S
H3529 C3525 0.950 . S
H3530 C3527 0.950 . S
C3531 C3522 1.390 . S
C3531 H3524 0.950 . S
C3531 C3528 1.387 . S
C3532 C3533 1.387 . S
C3532 H3536 0.950 . S
C3532 C3541 1.390 . S
C3533 C3532 1.387 . S
C3533 C3535 1.387 . S
H3534 C3541 0.950 . S
C3535 C3533 1.387 . S
C3535 C3537 1.390 . S
C3535 H3539 0.950 . S
H3536 C3532 0.950 . S
C3537 C3535 1.390 . S
C3537 C3538 1.387 . S
C3537 H3540 0.950 . S
C3538 C3537 1.387 . S
C3538 C3541 1.387 . S
H3539 C3535 0.950 . S
H3540 C3537 0.950 . S
C3541 C3532 1.390 . S
C3541 H3534 0.950 . S
C3541 C3538 1.387 . S
C3542 C3543 1.387 . S
C3542 H3546 0.950 . S
C3542 C3551 1.390 . S
C3543 C3542 1.387 . S
C3543 C3545 1.387 . S
H3544 C3551 0.950 . S
C3545 C3543 1.387 . S
C3545 C3547 1.390 . S
C3545 H3549 0.950 . S
H3546 C3542 0.950 . S
C3547 C3545 1.390 . S
C3547 C3548 1.387 . S
C3547 H3550 0.950 . S
C3548 C3547 1.387 . S
C3548 C3551 1.387 . S
H3549 C3545 0.950 . S
H3550 C3547 0.950 . S
C3551 C3542 1.390 . S
C3551 H3544 0.950 . S
C3551 C3548 1.387 . S
C3552 C3553 1.387 . S
C3552 H3556 0.950 . S
C3552 C3561 1.390 . S
C3553 C3552 1.387 . S
C3553 C3555 1.387 . S
H3554 C3561 0.950 . S
C3555 C3553 1.387 . S
C3555 C3557 1.390 . S
C3555 H3559 0.950 . S
H3556 C3552 0.950 . S
C3557 C3555 1.390 . S
C3557 C3558 1.387 . S
C3557 H3560 0.950 . S
C3558 C3557 1.387 . S
C3558 C3561 1.387 . S
H3559 C3555 0.950 . S
H3560 C3557 0.950 . S
C3561 C3552 1.390 . S
C3561 H3554 0.950 . S
C3561 C3558 1.387 . S
C3562 C3563 1.387 . S
C3562 H3566 0.950 . S
C3562 C3571 1.390 . S
C3563 C3562 1.387 . S
C3563 C3565 1.387 . S
H3564 C3571 0.950 . S
C3565 C3563 1.387 . S
C3565 C3567 1.390 . S
C3565 H3569 0.950 . S
H3566 C3562 0.950 . S
C3567 C3565 1.390 . S
C3567 C3568 1.387 . S
C3567 H3570 0.950 . S
C3568 C3567 1.387 . S
C3568 C3571 1.387 . S
H3569 C3565 0.950 . S
H3570 C3567 0.950 . S
C3571 C3562 1.390 . S
C3571 H3564 0.950 . S
C3571 C3568 1.387 . S
C3572 C3573 1.387 . S
C3572 H3576 0.950 . S
C3572 C3581 1.390 . S
C3573 C3572 1.387 . S
C3573 C3575 1.387 . S
H3574 C3581 0.950 . S
C3575 C3573 1.387 . S
C3575 C3577 1.390 . S
C3575 H3579 0.950 1_455 S
H3576 C3572 0.950 . S
C3577 C3575 1.390 . S
C3577 C3578 1.387 . S
C3577 H3580 0.936 1_455 S
C3578 C3577 1.387 . S
C3578 C3581 1.387 . S
H3579 C3575 0.950 1_655 S
H3580 C3577 0.936 1_655 S
C3581 C3572 1.390 . S
C3581 H3574 0.950 . S
C3581 C3578 1.387 . S
C3582 C3583 1.387 . S
C3582 H3586 0.950 . S
C3582 C3591 1.390 . S
C3583 C3582 1.387 . S
C3583 C3585 1.387 . S
H3584 C3591 0.950 . S
C3585 C3583 1.387 . S
C3585 C3587 1.390 . S
C3585 H3589 0.950 . S
H3586 C3582 0.950 . S
C3587 C3585 1.390 . S
C3587 C3588 1.387 . S
C3587 H3590 0.950 . S
C3588 C3587 1.387 . S
C3588 C3591 1.387 . S
H3589 C3585 0.950 . S
H3590 C3587 0.950 . S
C3591 C3582 1.390 . S
C3591 H3584 0.950 . S
C3591 C3588 1.387 . S
C3592 C3593 1.387 . S
C3592 H3596 0.950 . S
C3592 C3601 1.390 . S
C3593 C3592 1.387 . S
C3593 C3595 1.387 . S
H3594 C3601 0.950 . S
C3595 C3593 1.387 . S
C3595 C3597 1.390 . S
C3595 H3599 0.950 . S
H3596 C3592 0.950 . S
C3597 C3595 1.390 . S
C3597 C3598 1.387 . S
C3597 H3600 0.950 . S
C3598 C3597 1.387 . S
C3598 C3601 1.387 . S
H3599 C3595 0.950 . S
H3600 C3597 0.950 . S
C3601 C3592 1.390 . S
C3601 H3594 0.950 . S
C3601 C3598 1.387 . S
C3602 C3603 1.387 . S
C3602 H3606 0.950 . S
C3602 C3611 1.390 . S
C3603 C3602 1.387 . S
C3603 C3605 1.387 . S
H3604 C3611 0.950 . S
C3605 C3603 1.387 . S
C3605 C3607 1.390 . S
C3605 H3609 0.950 . S
H3606 C3602 0.950 . S
C3607 C3605 1.390 . S
C3607 C3608 1.387 . S
C3607 H3610 0.950 . S
C3608 C3607 1.387 . S
C3608 C3611 1.387 . S
H3609 C3605 0.950 . S
H3610 C3607 0.950 . S
C3611 C3602 1.390 . S
C3611 H3604 0.950 . S
C3611 C3608 1.387 . S
C3612 C3613 1.387 1_655 S
C3612 H3616 0.950 . S
C3612 C3621 1.390 . S
C3613 C3612 1.387 1_455 S
C3613 C3615 1.387 . S
H3614 C3621 0.950 . S
C3615 C3613 1.387 . S
C3615 C3617 1.390 . S
C3615 H3619 0.950 . S
H3616 C3612 0.950 . S
C3617 C3615 1.390 . S
C3617 C3618 1.387 . S
C3617 H3620 0.950 . S
C3618 C3617 1.387 . S
C3618 C3621 1.387 1_455 S
H3619 C3615 0.950 . S
H3620 C3617 0.950 . S
C3621 C3612 1.390 . S
C3621 H3614 0.950 . S
C3621 C3618 1.387 1_655 S
C3622 C3623 1.387 . S
C3622 H3626 0.950 . S
C3622 C3631 1.390 . S
C3623 C3622 1.387 . S
C3623 C3625 1.387 . S
H3624 C3631 0.950 . S
C3625 C3623 1.387 . S
C3625 C3627 1.390 . S
C3625 H3629 0.950 . S
H3626 C3622 0.950 . S
C3627 C3625 1.390 . S
C3627 C3628 1.387 . S
C3627 H3630 0.950 . S
C3628 C3627 1.387 . S
C3628 C3631 1.387 . S
H3629 C3625 0.950 . S
H3630 C3627 0.950 . S
C3631 C3622 1.390 . S
C3631 H3624 0.950 . S
C3631 C3628 1.387 . S
C3632 C3633 1.387 . S
C3632 H3636 0.950 . S
C3632 C3641 1.390 . S
C3633 C3632 1.387 . S
C3633 C3635 1.387 . S
H3634 C3641 0.950 . S
C3635 C3633 1.387 . S
C3635 C3637 1.390 . S
C3635 H3639 0.950 . S
H3636 C3632 0.950 . S
C3637 C3635 1.390 . S
C3637 C3638 1.387 . S
C3637 H3640 0.950 . S
C3638 C3637 1.387 . S
C3638 C3641 1.387 . S
H3639 C3635 0.950 . S
H3640 C3637 0.950 . S
C3641 C3632 1.390 . S
C3641 H3634 0.950 . S
C3641 C3638 1.387 . S
C3642 C3643 1.387 . S
C3642 H3646 0.950 1_545 S
C3642 C3651 1.390 . S
C3643 C3642 1.387 . S
C3643 C3645 1.387 . S
H3644 C3651 0.950 . S
C3645 C3643 1.387 . S
C3645 C3647 1.390 . S
C3645 H3649 0.950 . S
H3646 C3642 0.950 1_565 S
C3647 C3645 1.390 . S
C3647 C3648 1.387 . S
C3647 H3650 0.950 . S
C3648 C3647 1.387 . S
C3648 C3651 1.387 . S
H3649 C3645 0.950 . S
H3650 C3647 0.950 . S
C3651 C3642 1.390 . S
C3651 H3644 0.950 . S
C3651 C3648 1.387 . S
C3652 C3653 1.387 . S
C3652 H3656 0.950 . S
C3652 C3661 1.390 . S
C3653 C3652 1.387 . S
C3653 C3655 1.387 . S
H3654 C3661 0.950 . S
C3655 C3653 1.387 . S
C3655 C3657 1.390 . S
C3655 H3659 0.950 . S
H3656 C3652 0.950 . S
C3657 C3655 1.390 . S
C3657 C3658 1.387 . S
C3657 H3660 0.950 . S
C3658 C3657 1.387 . S
C3658 C3661 1.387 . S
H3659 C3655 0.950 . S
H3660 C3657 0.950 . S
C3661 C3652 1.390 . S
C3661 H3654 0.950 . S
C3661 C3658 1.387 . S
C3662 C3663 1.387 . S
C3662 H3666 0.950 . S
C3662 C3671 1.390 . S
C3663 C3662 1.387 . S
C3663 C3665 1.387 1_556 S
H3664 C3671 0.950 . S
C3665 C3663 1.387 1_554 S
C3665 C3667 1.390 . S
C3665 H3669 0.950 . S
H3666 C3662 0.950 . S
C3667 C3665 1.390 . S
C3667 C3668 1.387 . S
C3667 H3670 0.950 . S
C3668 C3667 1.387 . S
C3668 C3671 1.387 1_554 S
H3669 C3665 0.950 . S
H3670 C3667 0.950 . S
C3671 C3662 1.390 . S
C3671 H3664 0.950 . S
C3671 C3668 1.387 1_556 S
C3672 C3673 1.387 . S
C3672 H3676 0.950 . S
C3672 C3681 1.390 . S
C3673 C3672 1.387 . S
C3673 C3675 1.387 . S
H3674 C3681 0.950 . S
C3675 C3673 1.387 . S
C3675 C3677 1.390 . S
C3675 H3679 0.950 . S
H3676 C3672 0.950 . S
C3677 C3675 1.390 . S
C3677 C3678 1.387 . S
C3677 H3680 0.950 . S
C3678 C3677 1.387 . S
C3678 C3681 1.387 . S
H3679 C3675 0.950 . S
H3680 C3677 0.950 . S
C3681 C3672 1.390 . S
C3681 H3674 0.950 . S
C3681 C3678 1.387 . S
C3682 C3683 1.387 . S
C3682 H3686 0.950 . S
C3682 C3691 1.390 1_554 S
C3683 C3682 1.387 . S
C3683 C3685 1.387 . S
H3684 C3691 0.950 . S
C3685 C3683 1.387 . S
C3685 C3687 1.390 . S
C3685 H3689 0.950 . S
H3686 C3682 0.950 . S
C3687 C3685 1.390 . S
C3687 C3688 1.387 1_554 S
C3687 H3690 0.950 . S
C3688 C3687 1.387 1_556 S
C3688 C3691 1.387 . S
H3689 C3685 0.950 . S
H3690 C3687 0.950 . S
C3691 C3682 1.390 1_556 S
C3691 H3684 0.950 . S
C3691 C3688 1.387 . S
C3692 C3693 1.387 . S
C3692 H3696 0.950 . S
C3692 C3701 1.390 . S
C3693 C3692 1.387 . S
C3693 C3695 1.387 . S
H3694 C3701 0.950 . S
C3695 C3693 1.387 . S
C3695 C3697 1.390 . S
C3695 H3699 0.950 . S
H3696 C3692 0.950 . S
C3697 C3695 1.390 . S
C3697 C3698 1.387 . S
C3697 H3700 0.950 . S
C3698 C3697 1.387 . S
C3698 C3701 1.387 . S
H3699 C3695 0.950 . S
H3700 C3697 0.950 . S
C3701 C3692 1.390 . S
C3701 H3694 0.950 . S
C3701 C3698 1.387 . S
C3702 C3703 1.387 . S
C3702 H3706 0.950 . S
C3702 C3711 1.390 . S
C3703 C3702 1.387 . S
C3703 C3705 1.387 . S
H3704 C3711 0.950 . S
C3705 C3703 1.387 . S
C3705 C3707 1.390 . S
C3705 H3709 0.950 . S
H3706 C3702 0.950 . S
C3707 C3705 1.390 . S
C3707 C3708 1.387 . S
C3707 H3710 0.950 . S
C3708 C3707 1.387 . S
C3708 C3711 1.387 . S
H3709 C3705 0.950 . S
H3710 C3707 0.950 . S
C3711 C3702 1.390 . S
C3711 H3704 0.950 . S
C3711 C3708 1.387 . S
C2753 C665 2.128 . S
C2758 C2122 2.131 . S
C2763 C381 1.813 . S
C2768 C2161 1.750 . S
C2773 C460 1.503 . S
C2778 C2202 1.560 . S
C2788 C2247 1.499 . S
C2783 C585 1.539 . S
C2793 C108 2.100 . S
C2798 C2291 2.106 . S
C2808 C2322 1.471 . S
C2803 C196 1.453 . S
C2818 C2370 1.949 . S
C2813 C313 1.963 . S
C2823 C49 1.699 . S
C2828 C2398 1.625 . S
C2838 C2130 1.533 . S
C2833 C1457 1.505 . S
C2843 C1545 1.515 . S
C2848 C2171 1.478 . S
C2858 C2210 1.889 . S
C2853 C1721 1.810 1_545 S
C2868 C2242 1.747 . S
C2863 C1113 1.658 . S
C2873 C1428 0.448 . S
C2878 C2278 0.374 . S
C2888 C2330 2.286 . S
C2883 C1516 2.304 . S
C2898 C2367 1.669 . S
C2893 C1692 1.696 1_545 S
C2908 C2401 1.999 . S
C2903 C1085 1.980 . S
C2918 C2127 1.911 . S
C2913 C988 2.008 1_545 S
C2923 C1817 2.002 . S
C2928 C2441 1.938 . S
C2938 C2487 1.619 . S
C2933 C2081 1.647 . S
C2948 C2522 1.634 1_655 S
C2943 C1993 1.619 . S
C2953 C761 2.015 . S
C2958 C2411 1.930 . S
C2963 C821 1.460 . S
C2968 C2207 1.413 . S
C2973 C2053 1.562 . S
C2978 C2570 1.616 . S
C2988 C2598 0.448 . S
C2983 C1868 0.433 . S
C2998 C2131 2.127 1_565 S
C2993 C372 2.130 . S
C3008 C2610 1.750 . S
C3003 C645 1.807 . S
C3013 C577 1.499 . S
C3018 C2211 1.556 . S
C3023 C497 1.539 . S
C3028 C2558 1.494 . S
C3038 C2282 2.101 . S
C3033 C57 2.093 . S
C3043 C293 1.456 . S
C3048 C2491 1.469 . S
C3058 C2361 1.944 1_565 S
C3053 C205 1.960 . S
C3068 C2647 1.628 . S
C3063 C145 1.704 1_655 S
C3078 C2121 1.533 . S
C3073 C909 1.509 . S
C3088 C2602 1.472 . S
C3083 C1956 1.508 . S
C3093 C724 1.794 . S
C3098 C2201 1.887 . S
C3103 C1780 1.653 . S
C3108 C2571 1.740 . S
C3113 C937 0.446 . S
C3118 C2287 0.369 . S
C3128 C2481 2.282 . S
C3123 C1985 2.300 . S
C3133 C753 1.709 . S
C3138 C2358 1.666 . S
C3143 C1809 1.980 . S
C3148 C2650 1.996 . S
C3153 C1173 2.016 1_556 S
C3158 C2118 1.914 . S
C3163 C1105 1.997 . S
C3168 C2450 1.937 . S
C3173 C1633 1.658 . S
C3178 C2318 1.616 . S
C3183 C1553 1.621 . S
C3188 C2531 1.629 . S
C3198 C2642 1.929 . S
C3193 C1729 2.021 . S
C3203 C1340 1.464 . S
C3208 C2198 1.414 . S
C3218 C2241 1.616 . S
C3213 C1604 1.550 . S
C3228 C2167 0.447 . S
C3223 C1252 0.440 . S
C3233 C489 2.128 . S
C3238 C2682 2.132 . S
C3248 C2601 1.751 . S
C3243 C557 1.814 . S
C3253 C636 1.499 1_554 S
C3258 C2722 1.562 . S
C3263 C409 1.539 . S
C3268 C2567 1.499 . S
C3273 C284 2.101 . S
C3278 C2451 2.106 . S
C3288 C2482 1.471 . S
C3283 C20 1.451 . S
C3298 C2530 1.949 . S
C3293 C137 1.964 . S
C3308 C2638 1.628 . S
C3303 C225 1.700 . S
C3318 C2690 1.533 . S
C3313 C1641 1.505 . S
C3323 C1193 1.516 . S
C3328 C2611 1.483 . S
C3338 C2730 1.886 . S
C3333 C1289 1.806 . S
C3348 C2562 1.747 . S
C3343 C1377 1.658 . S
C3358 C2438 0.370 . S
C3353 C1613 0.442 . S
C3363 C1164 2.302 . S
C3368 C2490 2.279 . S
C3378 C2527 1.669 . S
C3373 C1261 1.696 . S
C3383 C1349 1.981 . S
C3388 C2641 1.999 . S
C3398 C2687 1.913 . S
C3393 C1965 2.009 . S
C3403 C849 2.003 . S
C3408 C2281 1.939 . S
C3418 C2327 1.623 . S
C3413 C929 1.651 . S
C3428 C2362 1.634 . S
C3423 C1017 1.617 . S
C3438 C2651 1.930 . S
C3433 C1897 2.015 . S
C3443 C1789 1.460 . S
C3448 C2727 1.413 . S
C3458 C2250 1.620 . S
C3453 C900 1.566 . S
C3468 C2158 0.451 . S
C3463 C733 0.439 . S
C3473 C548 2.129 . S
C3478 C2691 2.127 . S
C3488 C2170 1.750 . S
C3483 C469 1.807 . S
C3493 C401 1.499 . S
C3498 C2731 1.556 . S
C3503 C673 1.539 . S
C3508 C2238 1.495 . S
C3513 C233 2.094 . S
C3518 C2442 2.102 1_556 S
C3528 C2331 1.467 . S
C3523 C117 1.456 . S
C3533 C29 1.959 . S
C3538 C2521 1.944 . S
C3543 C321 1.704 . S
C3548 C2407 1.628 . S
C3558 C2681 1.533 . S
C3553 C2044 1.509 . S
C3563 C997 1.507 . S
C3568 C2162 1.471 . S
C3578 C2721 1.886 . S
C3573 C1877 1.793 . S
C3583 C812 1.653 . S
C3588 C2251 1.740 . S
C3593 C2073 0.451 . S
C3598 C2447 0.377 . S
C3608 C2321 2.282 . S
C3603 C1025 2.300 . S
C3613 C1905 1.709 . S
C3618 C2518 1.666 . S
C3628 C2410 1.996 . S
C3623 C841 1.981 . S
C3638 C2678 1.914 . S
C3633 C1525 2.016 . S
C3648 C2290 1.937 1_655 S
C3643 C1369 1.997 . S
C3653 C1465 1.660 . S
C3658 C2478 1.618 . S
C3668 C2371 1.631 . S
C3663 C1201 1.618 . S
C3673 C1281 2.020 . S
C3678 C2402 1.931 . S
C3683 C1076 1.462 . S
C3688 C2718 1.411 . S
C3698 C2561 1.620 . S
C3693 C1437 1.554 . S
C3708 C2607 0.445 . S
C3703 C1701 0.436 . S
