# Generated by pormake.
# Topology csq, (4,8)-cn, num edge types: 1
# Building blocks:
#     Node 0, Type 0, BuildingBlock: MUDLON_clean_sbu_0, # of connection points: 4
#     Node 1, Type 0, BuildingBlock: MUDLON_clean_sbu_0, # of connection points: 4
#     Node 2, Type 0, BuildingBlock: MUDLON_clean_sbu_0, # of connection points: 4
#     Node 3, Type 0, BuildingBlock: MUDLON_clean_sbu_0, # of connection points: 4
#     Node 4, Type 0, BuildingBlock: MUDLON_clean_sbu_0, # of connection points: 4
#     Node 5, Type 0, BuildingBlock: MUDLON_clean_sbu_0, # of connection points: 4
#     Node 6, Type 1, BuildingBlock: TAGTUT_clean_sbu_1, # of connection points: 8
#     Node 7, Type 1, BuildingBlock: TAGTUT_clean_sbu_1, # of connection points: 8
#     Node 8, Type 1, BuildingBlock: TAGTUT_clean_sbu_1, # of connection points: 8
#     Edge 9, Type (0, 1), BuildingBlock: UVAHIK_clean_linker_0, # of connection points: 2
#     Edge 10, Type (0, 1), BuildingBlock: UVAHIK_clean_linker_0, # of connection points: 2
#     Edge 11, Type (0, 1), BuildingBlock: UVAHIK_clean_linker_0, # of connection points: 2
#     Edge 12, Type (0, 1), BuildingBlock: UVAHIK_clean_linker_0, # of connection points: 2
#     Edge 13, Type (0, 1), BuildingBlock: UVAHIK_clean_linker_0, # of connection points: 2
#     Edge 14, Type (0, 1), BuildingBlock: UVAHIK_clean_linker_0, # of connection points: 2
#     Edge 15, Type (0, 1), BuildingBlock: UVAHIK_clean_linker_0, # of connection points: 2
#     Edge 16, Type (0, 1), BuildingBlock: UVAHIK_clean_linker_0, # of connection points: 2
#     Edge 17, Type (0, 1), BuildingBlock: UVAHIK_clean_linker_0, # of connection points: 2
#     Edge 18, Type (0, 1), BuildingBlock: UVAHIK_clean_linker_0, # of connection points: 2
#     Edge 19, Type (0, 1), BuildingBlock: UVAHIK_clean_linker_0, # of connection points: 2
#     Edge 20, Type (0, 1), BuildingBlock: UVAHIK_clean_linker_0, # of connection points: 2
#     Edge 21, Type (0, 1), BuildingBlock: UVAHIK_clean_linker_0, # of connection points: 2
#     Edge 22, Type (0, 1), BuildingBlock: UVAHIK_clean_linker_0, # of connection points: 2
#     Edge 23, Type (0, 1), BuildingBlock: UVAHIK_clean_linker_0, # of connection points: 2
#     Edge 24, Type (0, 1), BuildingBlock: UVAHIK_clean_linker_0, # of connection points: 2
#     Edge 25, Type (0, 1), BuildingBlock: UVAHIK_clean_linker_0, # of connection points: 2
#     Edge 26, Type (0, 1), BuildingBlock: UVAHIK_clean_linker_0, # of connection points: 2
#     Edge 27, Type (0, 1), BuildingBlock: UVAHIK_clean_linker_0, # of connection points: 2
#     Edge 28, Type (0, 1), BuildingBlock: UVAHIK_clean_linker_0, # of connection points: 2
#     Edge 29, Type (0, 1), BuildingBlock: UVAHIK_clean_linker_0, # of connection points: 2
#     Edge 30, Type (0, 1), BuildingBlock: UVAHIK_clean_linker_0, # of connection points: 2
#     Edge 31, Type (0, 1), BuildingBlock: UVAHIK_clean_linker_0, # of connection points: 2
#     Edge 32, Type (0, 1), BuildingBlock: UVAHIK_clean_linker_0, # of connection points: 2
# Relax obj value: 0.064
# Max RMSD: 0.138
# Mean RMSD: 0.100
data_MOF--net-csq--node1-MUDLON_clean_sbu_0--node2-TAGTUT_clean_sbu_1--edge1-UVAHIK_clean_linker_0
_symmetry_space_group_name_H-M    P1
_symmetry_Int_Tables_number       1
_symmetry_cell_setting            triclinic
loop_
_symmetry_equiv_pos_as_xyz
'x, y, z'
_cell_length_a     63.030027
_cell_length_b     62.61517
_cell_length_c     25.840483
_cell_angle_alpha  92.115889
_cell_angle_beta   91.999815
_cell_angle_gamma 120.10864
loop_
_atom_site_label
_atom_site_type_symbol
_atom_site_fract_x
_atom_site_fract_y
_atom_site_fract_z
_atom_type_partial_charge
Mg0 Mg 0.25084 0.49377 0.14358 0.0
C1 C 0.22691 0.5172 0.08274 0.0
O2 O 0.21151 0.50832 0.11965 0.0
C3 C 0.27767 0.49471 0.23655 0.0
O4 O 0.25835 0.47241 0.22934 0.0
C5 C 0.22064 0.49205 0.22842 0.0
O6 O 0.24086 0.5137 0.23461 0.0
O7 O 0.2181 0.47761 0.18952 0.0
O8 O 0.24675 0.51653 0.08648 0.0
O9 O 0.26095 0.47092 0.09649 0.0
C10 C 0.25657 0.46814 0.04745 0.0
O11 O 0.24087 0.47391 0.02702 0.0
O12 O 0.28104 0.51048 0.20326 0.0
Mg13 Mg 0.78083 0.25215 0.13415 0.0
C14 C 0.83557 0.27435 0.12597 0.0
O15 O 0.83585 0.28389 0.17232 0.0
C16 C 0.76649 0.23437 0.24162 0.0
O17 O 0.77985 0.25832 0.25282 0.0
C18 C 0.80493 0.30761 0.14344 0.0
O19 O 0.81034 0.30487 0.09591 0.0
O20 O 0.79025 0.28849 0.16623 0.0
O21 O 0.81508 0.25776 0.10433 0.0
O22 O 0.75474 0.23973 0.06745 0.0
C23 C 0.73189 0.23094 0.07194 0.0
O24 O 0.72384 0.23046 0.11836 0.0
O25 O 0.76484 0.22612 0.19496 0.0
Mg26 Mg 0.53706 0.76728 0.0798 0.0
C27 C 0.54904 0.79537 0.18644 0.0
O28 O 0.56594 0.78894 0.18607 0.0
C29 C 0.52592 0.73172 0.98047 0.0
O30 O 0.50371 0.72851 0.98231 0.0
C31 C 0.54914 0.81884 0.04314 0.0
O32 O 0.56332 0.8254 0.08604 0.0
O33 O 0.53671 0.79605 0.02796 0.0
O34 O 0.53286 0.78767 0.149 0.0
O35 O 0.5368 0.73839 0.13142 0.0
C36 C 0.55392 0.7333 0.12929 0.0
O37 O 0.57194 0.74561 0.09898 0.0
O38 O 0.54294 0.74736 0.01219 0.0
Mg39 Mg 0.76757 0.51617 0.09894 0.0
C40 C 0.73612 0.53586 0.0462 0.0
O41 O 0.72717 0.53467 0.09184 0.0
C42 C 0.81888 0.55067 0.15624 0.0
O43 O 0.82818 0.54903 0.11256 0.0
C44 C 0.71561 0.48216 0.14046 0.0
O45 O 0.70665 0.47959 0.0925 0.0
O46 O 0.73876 0.49377 0.15004 0.0
O47 O 0.75355 0.53138 0.04147 0.0
O48 O 0.78211 0.49807 0.04953 0.0
C49 C 0.79892 0.49339 0.06256 0.0
O50 O 0.80647 0.49622 0.11169 0.0
O51 O 0.79577 0.54153 0.15736 0.0
Mg52 Mg 0.25683 0.75589 0.12776 0.0
C53 C 0.24829 0.71412 0.05046 0.0
O54 O 0.26439 0.73261 0.02509 0.0
C55 C 0.28073 0.77121 0.23745 0.0
O56 O 0.25784 0.76283 0.24888 0.0
C57 C 0.20312 0.73588 0.13668 0.0
O58 O 0.20313 0.72653 0.09032 0.0
O59 O 0.22358 0.75178 0.15954 0.0
O60 O 0.24425 0.71843 0.09643 0.0
O61 O 0.27164 0.78092 0.06503 0.0
C62 C 0.2938 0.78733 0.05693 0.0
O63 O 0.30515 0.7793 0.08722 0.0
O64 O 0.28536 0.76936 0.19049 0.0
Mg65 Mg 0.461 0.21956 0.15429 0.0
C66 C 0.43851 0.23479 0.24485 0.0
O67 O 0.43545 0.21535 0.26869 0.0
C68 C 0.42007 0.18126 0.0792 0.0
O69 O 0.42293 0.20082 0.05616 0.0
C70 C 0.49081 0.26677 0.10518 0.0
O71 O 0.49715 0.27378 0.15456 0.0
O72 O 0.47728 0.24384 0.09237 0.0
O73 O 0.44774 0.23908 0.20096 0.0
O74 O 0.48567 0.21028 0.19466 0.0
C75 C 0.49245 0.2151 0.24257 0.0
O76 O 0.48724 0.22981 0.26984 0.0
O77 O 0.43207 0.18423 0.12192 0.0
C78 C 0.99375 0.43862 0.76371 0.0
C79 C 0.06155 0.48198 0.68635 0.0
C80 C 0.04616 0.55665 0.70294 0.0
Mg81 Mg 0.00667 0.45237 0.6494 0.0
O82 O 0.0026 0.4789 0.67389 0.0
Mg83 Mg 0.0235 0.49933 0.73705 0.0
Mg84 Mg 0.0108 0.50646 0.6275 0.0
O85 O 0.01956 0.53378 0.58023 0.0
Mg86 Mg 0.01986 0.56305 0.60021 0.0
Mg87 Mg 1.00011 0.51427 0.51542 0.0
C88 C 0.9778 0.45784 0.54888 0.0
C89 C 0.04266 0.50025 0.53608 0.0
O90 O 0.00511 0.46186 0.77798 0.0
O91 O 0.99152 0.4308 0.71603 0.0
O92 O 0.05531 0.49401 0.71687 0.0
O93 O 0.04609 0.46494 0.65365 0.0
O94 O 0.98509 0.445 0.57408 0.0
O95 O 0.98316 0.47971 0.56525 0.0
C96 C 0.97831 0.50975 0.72082 0.0
O97 O 0.98127 0.51137 0.67168 0.0
O98 O 0.99189 0.50531 0.75129 0.0
O99 O 0.0216 0.55113 0.47314 0.0
O100 O 0.03783 0.58288 0.53381 0.0
O101 O 0.97002 0.524 0.52961 0.0
C102 C 0.03498 0.57438 0.48656 0.0
O103 O 0.98216 0.55513 0.58974 0.0
O104 O 0.04071 0.57032 0.67578 0.0
C105 C 0.96597 0.53902 0.55649 0.0
O106 O 0.03842 0.5339 0.68879 0.0
O107 O 0.03979 0.50045 0.58508 0.0
O108 O 0.02998 0.50499 0.50374 0.0
C109 C 0.4523 0.0214 0.75475 0.0
C110 C 0.44097 0.95286 0.69086 0.0
C111 C 0.53893 0.99158 0.71583 0.0
Mg112 Mg 0.45731 0.00318 0.64497 0.0
O113 O 0.48947 0.01555 0.67393 0.0
Mg114 Mg 0.49395 0.00261 0.74049 0.0
Mg115 Mg 0.51278 0.01068 0.6323 0.0
O116 O 0.53583 0.00576 0.58961 0.0
Mg117 Mg 0.56814 0.01623 0.61415 0.0
Mg118 Mg 0.53075 0.01828 0.52284 0.0
C119 C 0.48799 0.03115 0.5482 0.0
C120 C 0.48027 0.96712 0.54143 0.0
O121 O 0.46815 0.01611 0.77403 0.0
O122 O 0.44636 0.01877 0.70602 0.0
O123 O 0.46001 0.96443 0.72205 0.0
O124 O 0.43636 0.96363 0.65468 0.0
O125 O 0.46746 0.02121 0.57052 0.0
O126 O 0.50681 0.0306 0.56704 0.0
C127 C 0.54408 0.05419 0.72333 0.0
O128 O 0.54322 0.04711 0.67556 0.0
O129 O 0.52764 0.0407 0.75394 0.0
O130 O 0.55345 0.00224 0.48732 0.0
O131 O 0.57533 0.99739 0.55186 0.0
O132 O 0.56642 0.05593 0.5379 0.0
C133 C 0.56794 0.99476 0.50393 0.0
O134 O 0.59049 0.05541 0.60263 0.0
O135 O 0.5586 0.00048 0.69054 0.0
C136 C 0.58624 0.06668 0.56706 0.0
O137 O 0.51947 0.99139 0.69818 0.0
O138 O 0.48203 0.97394 0.58967 0.0
O139 O 0.49616 0.98089 0.51029 0.0
C140 C 0.54129 0.54642 0.45333 0.0
C141 C 0.56248 0.4958 0.51248 0.0
C142 C 0.46839 0.43891 0.55239 0.0
Mg143 Mg 0.55394 0.53594 0.56388 0.0
O144 O 0.51971 0.51471 0.55794 0.0
Mg145 Mg 0.50598 0.48964 0.49747 0.0
Mg146 Mg 0.50424 0.49245 0.61518 0.0
O147 O 0.48936 0.47013 0.67242 0.0
Mg148 Mg 0.45607 0.44587 0.66902 0.0
Mg149 Mg 0.50257 0.49455 0.7337 0.0
C150 C 0.53918 0.54559 0.67773 0.0
C151 C 0.54868 0.49295 0.68516 0.0
O152 O 0.52402 0.52366 0.44635 0.0
O153 O 0.55467 0.55513 0.49587 0.0
O154 O 0.54037 0.48609 0.49349 0.0
O155 O 0.57172 0.51462 0.54499 0.0
O156 O 0.55471 0.55205 0.642 0.0
O157 O 0.51837 0.52528 0.67346 0.0
C158 C 0.46209 0.49566 0.54507 0.0
O159 O 0.46922 0.49432 0.59144 0.0
O160 O 0.47298 0.49419 0.5054 0.0
O161 O 0.48777 0.46035 0.7841 0.0
O162 O 0.45906 0.42727 0.7348 0.0
O163 O 0.4656 0.49427 0.74117 0.0
C164 C 0.47264 0.43694 0.77684 0.0
O165 O 0.43558 0.46351 0.69059 0.0
O166 O 0.4537 0.43119 0.5895 0.0
C167 C 0.44313 0.482 0.72336 0.0
O168 O 0.48911 0.45929 0.55705 0.0
O169 O 0.54014 0.49215 0.6388 0.0
O170 O 0.53766 0.49377 0.72509 0.0
C171 C 0.20916 0.49548 0.31805 0.0
C172 C 0.20172 0.48555 0.26667 0.0
C173 C 0.19191 0.49263 0.35364 0.0
C174 C 0.12463 0.45984 0.37498 0.0
H175 H 0.14351 0.51853 0.46442 0.0
C176 C 0.0555 0.48276 0.46378 0.0
C177 C 0.06022 0.49359 0.51461 0.0
C178 C 0.07248 0.47807 0.44042 0.0
C179 C 0.13808 0.50181 0.44049 0.0
H180 H 0.17032 0.464 0.21261 0.0
H181 H 0.13994 0.45964 0.27433 0.0
H182 H 0.17334 0.51723 0.40928 0.0
H183 H 0.08618 0.50723 0.58153 0.0
H184 H 0.11643 0.49946 0.54001 0.0
H185 H 0.0889 0.44504 0.40472 0.0
C186 C 0.15916 0.46921 0.28762 0.0
C187 C 0.15521 0.501 0.40872 0.0
C188 C 0.17652 0.47172 0.25209 0.0
C189 C 0.08207 0.49889 0.54234 0.0
C190 C 0.09937 0.49454 0.51849 0.0
C191 C 0.10741 0.46077 0.40643 0.0
C192 C 0.16669 0.48019 0.3386 0.0
C193 C 0.14869 0.48013 0.37495 0.0
C194 C 0.09484 0.48434 0.46698 0.0
C195 C 0.11385 0.48192 0.43897 0.0
H196 H 0.22849 0.50594 0.3306 0.0
H197 H 0.19847 0.50068 0.39279 0.0
H198 H 0.11899 0.44328 0.35035 0.0
H199 H 0.03871 0.4782 0.44152 0.0
H200 H 0.0685 0.47045 0.40063 0.0
C201 C 0.75188 0.22755 0.3319 0.0
C202 C 0.75118 0.21783 0.28147 0.0
C203 C 0.73565 0.21272 0.36804 0.0
C204 C 0.67507 0.15624 0.37356 0.0
H205 H 0.69328 0.16229 0.52056 0.0
C206 C 0.60121 0.10421 0.51581 0.0
C207 C 0.60641 0.0907 0.55132 0.0
C208 C 0.61997 0.12266 0.48911 0.0
C209 C 0.6879 0.16035 0.47962 0.0
H210 H 0.73345 0.18451 0.23035 0.0
H211 H 0.70538 0.15854 0.29357 0.0
H212 H 0.72445 0.18673 0.46051 0.0
H213 H 0.63578 0.08764 0.59002 0.0
H214 H 0.66847 0.11972 0.54321 0.0
H215 H 0.63877 0.12949 0.3921 0.0
C216 C 0.7182 0.17781 0.30489 0.0
C217 C 0.70574 0.17448 0.44521 0.0
C218 C 0.73445 0.19265 0.26872 0.0
C219 C 0.6311 0.09769 0.56302 0.0
C220 C 0.64989 0.11609 0.53599 0.0
C221 C 0.65729 0.14218 0.40785 0.0
C222 C 0.71826 0.18777 0.35471 0.0
C223 C 0.69955 0.17254 0.39166 0.0
C224 C 0.64439 0.12799 0.49699 0.0
C225 C 0.66342 0.14402 0.46137 0.0
H226 H 0.76453 0.24686 0.34314 0.0
H227 H 0.73613 0.22109 0.40582 0.0
H228 H 0.6695 0.15449 0.33277 0.0
H229 H 0.58243 0.09951 0.50626 0.0
H230 H 0.61515 0.13198 0.46052 0.0
C231 C 0.5352 0.70139 0.19492 0.0
C232 C 0.55316 0.71319 0.15898 0.0
C233 C 0.53433 0.68218 0.22237 0.0
C234 C 0.57249 0.65551 0.2633 0.0
H235 H 0.50965 0.59967 0.29337 0.0
C236 C 0.52911 0.55588 0.36719 0.0
C237 C 0.54477 0.56377 0.41253 0.0
C238 C 0.53095 0.57291 0.33146 0.0
C239 C 0.52737 0.61495 0.28472 0.0
H240 H 0.58411 0.71387 0.12324 0.0
H241 H 0.58238 0.68016 0.17055 0.0
H242 H 0.51083 0.63144 0.23989 0.0
H243 H 0.57524 0.59572 0.45477 0.0
H244 H 0.57817 0.62524 0.39316 0.0
H245 H 0.58903 0.63887 0.30756 0.0
C246 C 0.56922 0.68602 0.17824 0.0
C247 C 0.52803 0.63336 0.25467 0.0
C248 C 0.57016 0.7053 0.15097 0.0
C249 C 0.56284 0.58892 0.42033 0.0
C250 C 0.56465 0.60589 0.38474 0.0
C251 C 0.57182 0.63706 0.29319 0.0
C252 C 0.55132 0.67423 0.21434 0.0
C253 C 0.5506 0.65403 0.24414 0.0
C254 C 0.54849 0.59819 0.34027 0.0
C255 C 0.54925 0.61672 0.30487 0.0
H256 H 0.52187 0.70708 0.2021 0.0
H257 H 0.52054 0.6738 0.25049 0.0
H258 H 0.59019 0.67125 0.25632 0.0
H259 H 0.51503 0.53665 0.35979 0.0
H260 H 0.51846 0.56631 0.29719 0.0
C261 C 0.82281 0.55465 0.25362 0.0
C262 C 0.83395 0.55749 0.20611 0.0
C263 C 0.83562 0.55644 0.30041 0.0
C264 C 0.89741 0.57702 0.36237 0.0
H265 H 0.86218 0.52158 0.448 0.0
C266 C 0.92469 0.52131 0.50986 0.0
C267 C 0.94445 0.54113 0.53916 0.0
C268 C 0.90827 0.52516 0.47939 0.0
C269 C 0.8722 0.53728 0.42478 0.0
H270 H 0.86793 0.56608 0.1712 0.0
H271 H 0.89032 0.56941 0.25289 0.0
H272 H 0.84073 0.52661 0.3731 0.0
H273 H 0.96114 0.58008 0.56289 0.0
H274 H 0.9324 0.58676 0.50972 0.0
H275 H 0.92911 0.58715 0.41291 0.0
C276 C 0.87162 0.56573 0.25389 0.0
C277 C 0.85989 0.54029 0.38203 0.0
C278 C 0.85875 0.56378 0.20697 0.0
C279 C 0.94606 0.56438 0.54102 0.0
C280 C 0.92979 0.5683 0.51 0.0
C281 C 0.90967 0.57415 0.4054 0.0
C282 C 0.85995 0.56132 0.30098 0.0
C283 C 0.87247 0.55989 0.34964 0.0
C284 C 0.91136 0.54895 0.47719 0.0
C285 C 0.89735 0.55393 0.43647 0.0
H286 H 0.80378 0.5499 0.2546 0.0
H287 H 0.82623 0.55333 0.33609 0.0
H288 H 0.90757 0.59241 0.33846 0.0
H289 H 0.92294 0.50318 0.50753 0.0
H290 H 0.89433 0.50985 0.45456 0.0
C291 C 0.32558 0.798 0.26361 0.0
C292 C 0.30106 0.78549 0.27747 0.0
C293 C 0.34455 0.81373 0.29995 0.0
C294 C 0.35542 0.85149 0.42181 0.0
H295 H 0.42113 0.86148 0.41543 0.0
C296 C 0.43962 0.92777 0.54901 0.0
C297 C 0.45966 0.94288 0.51985 0.0
C298 C 0.41988 0.90559 0.52657 0.0
C299 C 0.40285 0.85883 0.41779 0.0
H300 H 0.27741 0.77883 0.3412 0.0
H301 H 0.31058 0.80593 0.40488 0.0
H302 H 0.38718 0.82738 0.36343 0.0
H303 H 0.47498 0.94576 0.44459 0.0
H304 H 0.44101 0.90731 0.40624 0.0
H305 H 0.37133 0.88327 0.47572 0.0
C306 C 0.31509 0.80398 0.36558 0.0
C307 C 0.3834 0.83937 0.38782 0.0
C308 C 0.29608 0.7883 0.32912 0.0
C309 C 0.45985 0.93481 0.46836 0.0
C310 C 0.44041 0.9126 0.44632 0.0
C311 C 0.37488 0.87086 0.45214 0.0
C312 C 0.33953 0.81726 0.35122 0.0
C313 C 0.35955 0.83587 0.38827 0.0
C314 C 0.42009 0.89785 0.47489 0.0
C315 C 0.39891 0.87515 0.44929 0.0
H316 H 0.33009 0.79634 0.22415 0.0
H317 H 0.36305 0.82388 0.28716 0.0
H318 H 0.33738 0.84955 0.42284 0.0
H319 H 0.43903 0.93314 0.58883 0.0
H320 H 0.40449 0.89448 0.54962 0.0
C321 C 0.43334 0.27161 0.24103 0.0
C322 C 0.43414 0.25357 0.27051 0.0
C323 C 0.43277 0.29156 0.26523 0.0
C324 C 0.45178 0.34014 0.32712 0.0
H325 H 0.41767 0.33562 0.4517 0.0
C326 C 0.48005 0.4222 0.47605 0.0
C327 C 0.46174 0.42238 0.50514 0.0
C328 C 0.47399 0.40279 0.43915 0.0
C329 C 0.42701 0.33723 0.41641 0.0
H330 H 0.43375 0.2416 0.34826 0.0
H331 H 0.43315 0.27676 0.39086 0.0
H332 H 0.4104 0.29795 0.40465 0.0
H333 H 0.42253 0.40405 0.5147 0.0
H334 H 0.4119 0.37067 0.44936 0.0
H335 H 0.46839 0.37945 0.33892 0.0
C336 C 0.43268 0.27531 0.34889 0.0
C337 C 0.42309 0.31561 0.38989 0.0
C338 C 0.43307 0.25519 0.32457 0.0
C339 C 0.43708 0.40414 0.4934 0.0
C340 C 0.431 0.38493 0.45624 0.0
C341 C 0.45566 0.36178 0.35358 0.0
C342 C 0.43316 0.29404 0.31951 0.0
C343 C 0.43571 0.31683 0.3454 0.0
C344 C 0.44949 0.38342 0.43044 0.0
C345 C 0.44359 0.36058 0.39896 0.0
H346 H 0.43382 0.2707 0.19916 0.0
H347 H 0.43257 0.30534 0.24142 0.0
H348 H 0.46203 0.34176 0.29327 0.0
H349 H 0.49922 0.43599 0.48441 0.0
H350 H 0.48871 0.40217 0.42007 0.0
C351 C 0.53579 0.83246 0.96442 0.0
C352 C 0.54642 0.83764 0.01529 0.0
C353 C 0.53309 0.85032 0.93871 0.0
C354 C 0.55677 0.91807 0.94359 0.0
H355 H 0.50249 0.89868 0.84214 0.0
C356 C 0.516 0.96254 0.78464 0.0
C357 C 0.53835 0.97896 0.76364 0.0
C358 C 0.51534 0.9472 0.82346 0.0
C359 C 0.51753 0.90454 0.87103 0.0
H360 H 0.56191 0.86534 0.07969 0.0
H361 H 0.55655 0.89611 0.03569 0.0
H362 H 0.50383 0.86754 0.89347 0.0
H363 H 0.57773 0.99337 0.76972 0.0
H364 H 0.57655 0.96662 0.83599 0.0
H365 H 0.57021 0.95511 0.922 0.0
C366 C 0.55096 0.8786 0.01481 0.0
C367 C 0.51854 0.88656 0.89987 0.0
C368 C 0.55397 0.8609 0.04018 0.0
C369 C 0.56014 0.98085 0.78469 0.0
C370 C 0.55948 0.96555 0.82319 0.0
C371 C 0.55561 0.93606 0.91522 0.0
C372 C 0.54064 0.87366 0.96357 0.0
C373 C 0.53846 0.89299 0.93572 0.0
C374 C 0.53702 0.94801 0.84209 0.0
C375 C 0.53632 0.92947 0.8776 0.0
H376 H 0.52983 0.81472 0.94421 0.0
H377 H 0.52548 0.84594 0.89898 0.0
H378 H 0.57251 0.92382 0.97046 0.0
H379 H 0.49887 0.96062 0.76938 0.0
H380 H 0.49776 0.93422 0.83778 0.0
C381 C 0.72866 0.53224 0.9494 0.0
C382 C 0.72315 0.53763 0.99885 0.0
C383 C 0.71411 0.53011 0.90521 0.0
C384 C 0.6679 0.54466 0.85281 0.0
H385 H 0.64235 0.48285 0.76986 0.0
C386 C 0.57474 0.47844 0.72645 0.0
C387 C 0.57289 0.49534 0.69514 0.0
C388 C 0.59721 0.48443 0.75151 0.0
C389 C 0.64958 0.50033 0.79222 0.0
H390 H 0.6988 0.54638 0.04 0.0
H391 H 0.67363 0.54305 0.96262 0.0
H392 H 0.67413 0.49375 0.83928 0.0
H393 H 0.59304 0.53121 0.66342 0.0
H394 H 0.63252 0.54194 0.70792 0.0
H395 H 0.64277 0.55086 0.8068 0.0
C396 C 0.68918 0.54036 0.95823 0.0
C397 C 0.66782 0.50662 0.83183 0.0
C398 C 0.70356 0.54219 1.0026 0.0
C399 C 0.59419 0.51767 0.68646 0.0
C400 C 0.61665 0.52392 0.71243 0.0
C401 C 0.64991 0.53854 0.81269 0.0
C402 C 0.69391 0.53365 0.90925 0.0
C403 C 0.67674 0.52857 0.8634 0.0
C404 C 0.61814 0.50771 0.74674 0.0
C405 C 0.64012 0.51602 0.7828 0.0
H406 H 0.74362 0.52864 0.94494 0.0
H407 H 0.71835 0.52518 0.86794 0.0
H408 H 0.67454 0.56176 0.87628 0.0
H409 H 0.55841 0.46135 0.73455 0.0
H410 H 0.5977 0.47165 0.778 0.0
C411 C 0.20835 0.67388 0.04291 0.0
C412 C 0.23047 0.69059 0.0214 0.0
C413 C 0.18895 0.65504 0.01153 0.0
C414 C 0.15152 0.61259 0.93594 0.0
H415 H 0.14169 0.63921 0.81002 0.0
C416 C 0.07464 0.55599 0.77267 0.0
C417 C 0.06369 0.56827 0.74896 0.0
C418 C 0.09421 0.5685 0.81004 0.0
C419 C 0.14408 0.63153 0.84516 0.0
H420 H 0.25048 0.69892 0.95139 0.0
H421 H 0.21681 0.66587 0.89696 0.0
H422 H 0.17866 0.66388 0.86597 0.0
H423 H 0.06363 0.60291 0.74895 0.0
H424 H 0.09747 0.62456 0.81433 0.0
H425 H 0.11647 0.58031 0.91505 0.0
C426 C 0.21423 0.66774 0.93777 0.0
C427 C 0.16547 0.64552 0.87685 0.0
C428 C 0.23358 0.68659 0.96905 0.0
C429 C 0.07175 0.5929 0.76589 0.0
C430 C 0.09127 0.60538 0.80316 0.0
C431 C 0.13008 0.59844 0.90385 0.0
C432 C 0.19135 0.6525 0.95812 0.0
C433 C 0.1694 0.63635 0.92282 0.0
C434 C 0.10321 0.59357 0.82444 0.0
C435 C 0.12601 0.60796 0.85849 0.0
H436 H 0.20533 0.67638 0.08315 0.0
H437 H 0.17155 0.64363 0.02839 0.0
H438 H 0.15407 0.60502 0.97107 0.0
H439 H 0.06898 0.53708 0.76063 0.0
H440 H 0.10307 0.55891 0.82564 0.0
C441 C 0.39829 0.15364 0.99946 0.0
C442 C 0.40862 0.15687 0.05017 0.0
C443 C 0.39337 0.13296 0.96753 0.0
C444 C 0.39605 0.07419 0.96417 0.0
H445 H 0.42274 0.09638 0.83093 0.0
C446 C 0.44571 0.0345 0.84325 0.0
C447 C 0.4406 0.03139 0.78921 0.0
C448 C 0.43544 0.04521 0.8747 0.0
C449 C 0.41488 0.08972 0.86764 0.0
H450 H 0.41915 0.13951 0.10914 0.0
H451 H 0.41162 0.10431 0.05338 0.0
H452 H 0.41369 0.12247 0.88629 0.0
H453 H 0.41982 0.03618 0.72625 0.0
H454 H 0.40233 0.05497 0.78098 0.0
H455 H 0.39892 0.04202 0.94606 0.0
C456 C 0.40697 0.11737 0.03792 0.0
C457 C 0.40946 0.10461 0.89937 0.0
C458 C 0.4115 0.1378 0.06998 0.0
C459 C 0.4244 0.03846 0.76764 0.0
C460 C 0.41432 0.04925 0.79892 0.0
C461 C 0.40182 0.05942 0.93258 0.0
C462 C 0.39906 0.11533 0.9855 0.0
C463 C 0.40048 0.09733 0.94859 0.0
C464 C 0.42005 0.05312 0.85258 0.0
C465 C 0.41171 0.0673 0.88445 0.0
H466 H 0.39542 0.16779 0.98335 0.0
H467 H 0.38648 0.13155 0.92783 0.0
H468 H 0.38877 0.06777 1.00141 0.0
H469 H 0.45799 0.02914 0.86116 0.0
H470 H 0.4403 0.04819 0.91601 0.0
C471 C 0.29658 0.46993 0.03309 0.0
C472 C 0.27332 0.46479 0.01335 0.0
C473 C 0.3142 0.47136 0.99966 0.0
C474 C 0.32922 0.48003 0.86027 0.0
H475 H 0.38 0.46596 0.90535 0.0
C476 C 0.40008 0.47441 0.72812 0.0
C477 C 0.42453 0.48601 0.74897 0.0
C478 C 0.38143 0.47343 0.75776 0.0
C479 C 0.36603 0.47015 0.89239 0.0
H480 H 0.24987 0.45565 0.94313 0.0
H481 H 0.28003 0.45681 0.88507 0.0
H482 H 0.34701 0.45802 0.96172 0.0
H483 H 0.44865 0.50703 0.81637 0.0
H484 H 0.41609 0.505 0.86798 0.0
H485 H 0.34809 0.49129 0.78992 0.0
C486 C 0.28513 0.46076 0.9262 0.0
C487 C 0.34709 0.46568 0.92481 0.0
C488 C 0.26765 0.45975 0.95961 0.0
C489 C 0.43008 0.49797 0.7989 0.0
C490 C 0.41139 0.49661 0.82877 0.0
C491 C 0.34797 0.48406 0.82743 0.0
C492 C 0.30894 0.46727 0.94553 0.0
C493 C 0.32848 0.47078 0.90958 0.0
C494 C 0.38679 0.4837 0.80911 0.0
C495 C 0.36672 0.47943 0.84341 0.0
H496 H 0.30172 0.4742 0.07421 0.0
H497 H 0.33231 0.47677 0.01639 0.0
H498 H 0.31563 0.48469 0.84724 0.0
H499 H 0.39515 0.46505 0.68979 0.0
H500 H 0.36262 0.46342 0.74157 0.0
C501 C 0.85691 0.27774 0.04385 0.0
C502 C 0.85702 0.28742 0.09388 0.0
C503 C 0.87471 0.29215 0.0098 0.0
C504 C 0.93417 0.35128 1.00074 0.0
H505 H 0.90785 0.34738 0.86062 0.0
C506 C 0.98288 0.42769 0.85573 0.0
C507 C 0.98162 0.42015 0.80317 0.0
C508 C 0.96994 0.41034 0.892 0.0
C509 C 0.91564 0.3485 0.89934 0.0
H510 H 0.8768 0.31946 0.1482 0.0
H511 H 0.90747 0.34462 0.08879 0.0
H512 H 0.88177 0.31879 0.92244 0.0
H513 H 0.96631 0.38817 0.74817 0.0
H514 H 0.94392 0.35808 0.8113 0.0
H515 H 0.9679 0.38159 0.97759 0.0
C516 C 0.89388 0.32579 0.07589 0.0
C517 C 0.90067 0.332 0.93488 0.0
C518 C 0.8762 0.31132 0.11007 0.0
C519 C 0.96765 0.39475 0.78818 0.0
C520 C 0.95467 0.37745 0.82436 0.0
C521 C 0.94914 0.3679 0.96515 0.0
C522 C 0.89295 0.31667 0.02476 0.0
C523 C 0.90965 0.33324 0.9862 0.0
C524 C 0.95536 0.38505 0.87656 0.0
C525 C 0.93999 0.3668 0.91409 0.0
H526 H 0.84248 0.25935 0.03023 0.0
H527 H 0.87374 0.28427 0.97117 0.0
H528 H 0.94184 0.35261 0.03968 0.0
H529 H 0.99344 0.44707 0.86879 0.0
H530 H 0.97071 0.41685 0.93182 0.0
C531 C 0.83506 0.49024 0.03479 0.0
C532 C 0.81289 0.48952 0.02167 0.0
C533 C 0.85001 0.49011 0.99615 0.0
C534 C 0.86307 0.50477 0.85881 0.0
H535 H 0.90409 0.4757 0.8808 0.0
C536 C 0.93529 0.5034 0.71839 0.0
C537 C 0.95823 0.51163 0.74485 0.0
C538 C 0.91512 0.50026 0.74596 0.0
C539 C 0.89265 0.48382 0.87401 0.0
H540 H 0.78853 0.48695 0.95722 0.0
H541 H 0.81433 0.48613 0.88984 0.0
H542 H 0.87257 0.4685 0.94086 0.0
H543 H 0.97853 0.52523 0.81968 0.0
H544 H 0.9437 0.51968 0.86695 0.0
H545 H 0.88355 0.52009 0.79162 0.0
C546 C 0.82046 0.48737 0.93008 0.0
C547 C 0.87469 0.47985 0.90864 0.0
C548 C 0.80554 0.48761 0.9688 0.0
C549 C 0.96103 0.51844 0.79821 0.0
C550 C 0.94107 0.5152 0.82545 0.0
C551 C 0.88097 0.50852 0.82369 0.0
C552 C 0.84312 0.48907 0.94323 0.0
C553 C 0.86011 0.49085 0.90249 0.0
C554 C 0.91774 0.50524 0.80013 0.0
C555 C 0.89637 0.49864 0.8319 0.0
H556 H 0.84142 0.4919 0.07502 0.0
H557 H 0.86746 0.49182 0.00801 0.0
H558 H 0.85234 0.5137 0.85292 0.0
H559 H 0.93258 0.49797 0.67733 0.0
H560 H 0.89727 0.4927 0.72556 0.0
C561 C 0.2952 0.81116 0.97899 0.0
C562 C 0.30646 0.80208 0.0126 0.0
C563 C 0.30764 0.82492 0.93719 0.0
C564 C 0.37082 0.86252 0.89458 0.0
H565 H 0.33935 0.85459 0.75794 0.0
C566 C 0.42961 0.91338 0.73109 0.0
C567 C 0.42215 0.92789 0.70447 0.0
C568 C 0.41315 0.89424 0.76008 0.0
C569 C 0.34834 0.85701 0.79595 0.0
H570 H 0.33939 0.79988 0.02777 0.0
H571 H 0.36068 0.82333 0.95536 0.0
H572 H 0.31508 0.82975 0.82779 0.0
H573 H 0.391 0.93212 0.68292 0.0
H574 H 0.36216 0.8987 0.73409 0.0
H575 H 0.40391 0.88972 0.86358 0.0
C576 C 0.34251 0.82037 0.96156 0.0
C577 C 0.33444 0.8429 0.836 0.0
C578 C 0.3302 0.80678 1.00312 0.0
C579 C 0.39722 0.92114 0.7028 0.0
C580 C 0.38072 0.90206 0.73237 0.0
C581 C 0.38463 0.87644 0.8548 0.0
C582 C 0.33156 0.82986 0.92832 0.0
C583 C 0.34562 0.84534 0.8857 0.0
C584 C 0.38893 0.88937 0.76363 0.0
C585 C 0.37369 0.87373 0.80482 0.0
H586 H 0.27688 0.80777 0.98511 0.0
H587 H 0.29873 0.83209 0.9125 0.0
H588 H 0.37994 0.86542 0.93264 0.0
H589 H 0.44868 0.91805 0.73273 0.0
H590 H 0.41986 0.88432 0.78251 0.0
C591 C 0.48194 0.27763 0.01798 0.0
C592 C 0.49433 0.28527 0.06734 0.0
C593 C 0.48122 0.29481 0.98611 0.0
C594 C 0.50922 0.36105 0.96349 0.0
H595 H 0.44338 0.34216 0.91057 0.0
C596 C 0.48861 0.42965 0.86088 0.0
C597 C 0.47282 0.4202 0.81573 0.0
C598 C 0.49108 0.41371 0.89386 0.0
C599 C 0.46193 0.34766 0.92452 0.0
H600 H 0.51725 0.31716 0.12024 0.0
H601 H 0.51614 0.34717 0.06422 0.0
H602 H 0.45 0.31337 0.95969 0.0
H603 H 0.44657 0.38642 0.77105 0.0
H604 H 0.45116 0.35886 0.8278 0.0
H605 H 0.52123 0.39522 0.92763 0.0
C606 C 0.50686 0.32787 0.05044 0.0
C607 C 0.46571 0.33113 0.9526 0.0
C608 C 0.50745 0.31066 0.08253 0.0
C609 C 0.45887 0.39441 0.8055 0.0
C610 C 0.46143 0.37853 0.83826 0.0
C611 C 0.50547 0.37755 0.93495 0.0
C612 C 0.49303 0.31999 1.00272 0.0
C613 C 0.4894 0.33759 0.97214 0.0
C614 C 0.47787 0.38798 0.88237 0.0
C615 C 0.48177 0.371 0.91492 0.0
H616 H 0.47174 0.25823 0.00494 0.0
H617 H 0.47078 0.2883 0.94906 0.0
H618 H 0.52767 0.36647 0.978 0.0
H619 H 0.49958 0.4494 0.8701 0.0
H620 H 0.50357 0.42157 0.92805 0.0
C621 C 0.19746 0.52459 0.03004 0.0
C622 C 0.21844 0.52215 0.0327 0.0
C623 C 0.18648 0.52456 0.9821 0.0
C624 C 0.17821 0.49968 0.84797 0.0
H625 H 0.14676 0.53855 0.82698 0.0
C626 C 0.10597 0.51184 0.7001 0.0
C627 C 0.08692 0.48706 0.69485 0.0
C628 C 0.12786 0.51847 0.72857 0.0
C629 C 0.15577 0.52781 0.83142 0.0
H630 H 0.24507 0.51902 0.9869 0.0
H631 H 0.22576 0.51888 0.90299 0.0
H632 H 0.17443 0.54788 0.90304 0.0
H633 H 0.07653 0.44954 0.71104 0.0
H634 H 0.11472 0.46101 0.76125 0.0
H635 H 0.15896 0.47917 0.77683 0.0
C636 C 0.21777 0.52067 0.93816 0.0
C637 C 0.17144 0.53301 0.87552 0.0
C638 C 0.22895 0.52099 0.98627 0.0
C639 C 0.09113 0.46871 0.71373 0.0
C640 C 0.113 0.47538 0.74286 0.0
C641 C 0.16241 0.49438 0.80378 0.0
C642 C 0.19608 0.52189 0.93555 0.0
C643 C 0.18237 0.51864 0.88503 0.0
C644 C 0.13098 0.50049 0.75319 0.0
C645 C 0.15059 0.50807 0.79551 0.0
H646 H 0.18889 0.5255 0.06503 0.0
H647 H 0.16969 0.52534 0.98156 0.0
H648 H 0.18622 0.48813 0.85432 0.0
H649 H 0.10304 0.52633 0.68616 0.0
H650 H 0.14156 0.53791 0.73457 0.0
C651 C 0.72278 0.2171 0.97736 0.0
C652 C 0.7144 0.21929 0.02595 0.0
C653 C 0.70611 0.20413 0.93507 0.0
C654 C 0.64109 0.17813 0.8872 0.0
H655 H 0.65048 0.12878 0.81307 0.0
C656 C 0.56157 0.08886 0.79133 0.0
C657 C 0.56453 0.07831 0.74516 0.0
C658 C 0.58115 0.11024 0.81573 0.0
C659 C 0.64783 0.14282 0.83247 0.0
H660 H 0.68195 0.21032 0.06759 0.0
H661 H 0.65291 0.18764 0.99404 0.0
H662 H 0.68265 0.15881 0.87518 0.0
H663 H 0.5902 0.08257 0.68725 0.0
H664 H 0.6248 0.12013 0.73049 0.0
H665 H 0.6059 0.16156 0.84588 0.0
C666 C 0.67238 0.19611 0.98845 0.0
C667 C 0.66625 0.16002 0.86819 0.0
C668 C 0.68903 0.20899 0.03077 0.0
C669 C 0.58737 0.09024 0.7228 0.0
C670 C 0.60718 0.11164 0.74767 0.0
C671 C 0.62271 0.16097 0.85149 0.0
C672 C 0.6807 0.19318 0.94033 0.0
C673 C 0.66276 0.17738 0.89712 0.0
C674 C 0.60431 0.12165 0.79483 0.0
C675 C 0.62553 0.14261 0.82498 0.0
H676 H 0.74222 0.2249 0.97221 0.0
H677 H 0.7131 0.20242 0.89838 0.0
H678 H 0.63807 0.1916 0.90807 0.0
H679 H 0.54417 0.08028 0.80945 0.0
H680 H 0.57835 0.11722 0.8523 0.0
C681 C 0.51398 0.70007 0.9064 0.0
C682 C 0.53036 0.71456 0.94831 0.0
C683 C 0.51736 0.68244 0.87899 0.0
C684 C 0.54125 0.64125 0.89526 0.0
H685 H 0.54448 0.63977 0.74566 0.0
C686 C 0.56305 0.58855 0.71853 0.0
C687 C 0.54382 0.56397 0.72069 0.0
C688 C 0.56416 0.60728 0.75144 0.0
C689 C 0.54376 0.6401 0.7875 0.0
H690 H 0.56319 0.72205 0.99423 0.0
H691 H 0.56865 0.6909 0.94701 0.0
H692 H 0.53995 0.67226 0.79045 0.0
H693 H 0.51217 0.5395 0.76274 0.0
H694 H 0.51456 0.57232 0.82107 0.0
H695 H 0.54432 0.60859 0.89202 0.0
C696 C 0.55339 0.69338 0.93522 0.0
C697 C 0.54098 0.6585 0.81292 0.0
C698 C 0.55032 0.7113 0.96188 0.0
C699 C 0.52711 0.55823 0.75977 0.0
C700 C 0.52846 0.57698 0.79322 0.0
C701 C 0.54354 0.62252 0.86968 0.0
C702 C 0.53685 0.67871 0.89385 0.0
C703 C 0.53974 0.65923 0.86695 0.0
C704 C 0.54637 0.60174 0.78774 0.0
C705 C 0.54491 0.62189 0.81564 0.0
H706 H 0.49844 0.70219 0.89518 0.0
H707 H 0.50437 0.67123 0.84714 0.0
H708 H 0.54021 0.64145 0.93702 0.0
H709 H 0.57636 0.59367 0.68921 0.0
H710 H 0.57831 0.62626 0.74706 0.0
C711 C 0.50397 0.20115 0.32318 0.0
C712 C 0.50093 0.19983 0.26879 0.0
C713 C 0.50719 0.18343 0.34816 0.0
C714 C 0.52195 0.14723 0.39004 0.0
H715 H 0.47324 0.0801 0.34136 0.0
C716 C 0.51465 0.06301 0.48807 0.0
C717 C 0.49099 0.04638 0.50349 0.0
C718 C 0.51814 0.08075 0.45294 0.0
C719 C 0.48701 0.09873 0.35519 0.0
H720 H 0.50089 0.18004 0.1979 0.0
H721 H 0.50645 0.14924 0.24157 0.0
H722 H 0.47715 0.11483 0.29404 0.0
H723 H 0.45226 0.03432 0.49115 0.0
H724 H 0.45837 0.06514 0.42928 0.0
H725 H 0.53133 0.13112 0.45202 0.0
C726 C 0.50597 0.16373 0.26484 0.0
C727 C 0.48941 0.1186 0.32791 0.0
C728 C 0.50292 0.18149 0.23988 0.0
C729 C 0.47073 0.04686 0.48026 0.0
C730 C 0.47422 0.06448 0.4447 0.0
C731 C 0.51973 0.12733 0.41702 0.0
C732 C 0.50734 0.16405 0.31921 0.0
C733 C 0.50664 0.14307 0.34552 0.0
C734 C 0.49803 0.08209 0.43199 0.0
C735 C 0.50195 0.1029 0.40033 0.0
H736 H 0.5026 0.21506 0.3466 0.0
H737 H 0.50814 0.1841 0.39017 0.0
H738 H 0.53543 0.16588 0.40435 0.0
H739 H 0.53068 0.06326 0.50516 0.0
H740 H 0.53667 0.09389 0.44331 0.0
C741 C 0.31935 0.51928 0.28373 0.0
C742 C 0.29461 0.50052 0.28273 0.0
C743 C 0.33564 0.52222 0.32542 0.0
C744 C 0.34228 0.48517 0.42595 0.0
H745 H 0.3998 0.54765 0.47245 0.0
C746 C 0.41963 0.48848 0.5582 0.0
C747 C 0.44227 0.50127 0.53551 0.0
C748 C 0.39991 0.49139 0.54081 0.0
C749 C 0.38369 0.53007 0.46018 0.0
H750 H 0.26708 0.47146 0.32627 0.0
H751 H 0.29516 0.477 0.3991 0.0
H752 H 0.36816 0.54729 0.41442 0.0
H753 H 0.46285 0.5285 0.48053 0.0
H754 H 0.42895 0.53379 0.45101 0.0
H755 H 0.3582 0.46791 0.47012 0.0
C756 C 0.3023 0.48891 0.3672 0.0
C757 C 0.36566 0.52985 0.42666 0.0
C758 C 0.28617 0.4858 0.32546 0.0
C759 C 0.44547 0.51826 0.49832 0.0
C760 C 0.42608 0.52147 0.48173 0.0
C761 C 0.36025 0.4854 0.45957 0.0
C762 C 0.32739 0.50662 0.36707 0.0
C763 C 0.34507 0.50735 0.40791 0.0
C764 C 0.40284 0.50751 0.50144 0.0
C765 C 0.38154 0.50779 0.47572 0.0
H766 H 0.32634 0.53088 0.2513 0.0
H767 H 0.35489 0.53595 0.32378 0.0
H768 H 0.32686 0.46744 0.4119 0.0
H769 H 0.41679 0.47528 0.58697 0.0
H770 H 0.38219 0.48047 0.55685 0.0
C771 C 0.81551 0.33365 0.22638 0.0
C772 C 0.82104 0.33079 0.17527 0.0
C773 C 0.83317 0.35248 0.26064 0.0
C774 C 0.89977 0.38727 0.28349 0.0
H775 H 0.88588 0.42114 0.39416 0.0
C776 C 0.95122 0.45897 0.47581 0.0
C777 C 0.96268 0.44716 0.49947 0.0
C778 C 0.93554 0.44815 0.43132 0.0
C779 C 0.89018 0.41209 0.36314 0.0
H780 H 0.84883 0.3466 0.11893 0.0
H781 H 0.87958 0.37955 0.17876 0.0
H782 H 0.85472 0.39782 0.32397 0.0
H783 H 0.9671 0.41497 0.49381 0.0
H784 H 0.93961 0.39602 0.41624 0.0
H785 H 0.93505 0.40116 0.32311 0.0
C786 C 0.86167 0.36703 0.19244 0.0
C787 C 0.87226 0.39858 0.32317 0.0
C788 C 0.84395 0.34829 0.15803 0.0
C789 C 0.95858 0.42457 0.47668 0.0
C790 C 0.94294 0.41379 0.432 0.0
C791 C 0.91764 0.40067 0.32357 0.0
C792 C 0.85675 0.36879 0.24457 0.0
C793 C 0.8767 0.38569 0.28338 0.0
C794 C 0.93098 0.4253 0.40926 0.0
C795 C 0.91289 0.41287 0.36431 0.0
H796 H 0.79802 0.32048 0.24082 0.0
H797 H 0.82882 0.35324 0.30061 0.0
H798 H 0.90367 0.37731 0.25373 0.0
H799 H 0.95386 0.47633 0.4923 0.0
H800 H 0.9268 0.4576 0.41441 0.0
C801 C 0.53852 0.82728 0.21462 0.0
C802 C 0.55172 0.81505 0.22387 0.0
C803 C 0.54352 0.84819 0.2455 0.0
C804 C 0.56943 0.88123 0.37133 0.0
H805 H 0.57841 0.93818 0.29912 0.0
C806 C 0.58861 0.97032 0.48443 0.0
C807 C 0.57376 0.97989 0.46758 0.0
C808 C 0.59054 0.9528 0.45307 0.0
C809 C 0.57586 0.92242 0.31986 0.0
H810 H 0.57963 0.81438 0.27421 0.0
H811 H 0.58803 0.85082 0.32893 0.0
H812 H 0.57084 0.90087 0.24948 0.0
H813 H 0.55069 0.97981 0.40304 0.0
H814 H 0.5537 0.94909 0.34908 0.0
H815 H 0.57347 0.90231 0.44168 0.0
C816 C 0.57401 0.84427 0.29742 0.0
C817 C 0.57152 0.90109 0.29146 0.0
C818 C 0.56919 0.82345 0.26614 0.0
C819 C 0.56224 0.9728 0.41739 0.0
C820 C 0.56407 0.95522 0.38622 0.0
C821 C 0.57356 0.9025 0.3998 0.0
C822 C 0.56162 0.85713 0.28653 0.0
C823 C 0.56783 0.88017 0.31693 0.0
C824 C 0.57763 0.94447 0.40433 0.0
C825 C 0.57638 0.92317 0.37433 0.0
H826 H 0.52496 0.8213 0.18232 0.0
H827 H 0.53342 0.85757 0.2369 0.0
H828 H 0.56654 0.86528 0.39181 0.0
H829 H 0.59795 0.97557 0.52269 0.0
H830 H 0.60154 0.94522 0.46766 0.0
C831 C 0.67365 0.46193 0.17601 0.0
C832 C 0.69931 0.47617 0.18437 0.0
C833 C 0.65836 0.45918 0.21642 0.0
C834 C 0.65892 0.47192 0.36051 0.0
H835 H 0.59941 0.47255 0.32064 0.0
C836 C 0.60411 0.50131 0.49576 0.0
C837 C 0.57832 0.48714 0.48918 0.0
C838 C 0.61881 0.49606 0.46413 0.0
C839 C 0.61583 0.47208 0.33242 0.0
H840 H 0.72901 0.49802 0.24245 0.0
H841 H 0.70263 0.49411 0.31174 0.0
H842 H 0.62461 0.47052 0.25394 0.0
H843 H 0.54792 0.4549 0.44744 0.0
H844 H 0.57348 0.44607 0.39254 0.0
H845 H 0.65044 0.47486 0.43942 0.0
C846 C 0.69408 0.48442 0.27463 0.0
C847 C 0.63029 0.47075 0.29407 0.0
C848 C 0.70932 0.48679 0.23455 0.0
C849 C 0.56769 0.46646 0.45325 0.0
C850 C 0.58232 0.4614 0.42152 0.0
C851 C 0.64462 0.4737 0.39897 0.0
C852 C 0.66833 0.47099 0.266 0.0
C853 C 0.65214 0.47075 0.30738 0.0
C854 C 0.60797 0.47667 0.42525 0.0
C855 C 0.62294 0.47382 0.38527 0.0
H856 H 0.66534 0.45335 0.13795 0.0
H857 H 0.63868 0.44812 0.20836 0.0
H858 H 0.67534 0.47154 0.37259 0.0
H859 H 0.61293 0.51734 0.52301 0.0
H860 H 0.63857 0.50813 0.46789 0.0
C861 C 0.1595 0.70253 0.14433 0.0
C862 C 0.18076 0.72358 0.16645 0.0
C863 C 0.14019 0.6878 0.17498 0.0
C864 C 0.11414 0.68466 0.30282 0.0
H865 H 0.09429 0.61517 0.28638 0.0
C866 C 0.06573 0.61683 0.46126 0.0
C867 C 0.04827 0.59203 0.44654 0.0
C868 C 0.07912 0.63331 0.42417 0.0
C869 C 0.09918 0.63439 0.291 0.0
H870 H 0.19755 0.74665 0.23745 0.0
H871 H 0.16378 0.72099 0.29082 0.0
H872 H 0.12183 0.64382 0.22632 0.0
H873 H 0.03076 0.56538 0.38073 0.0
H874 H 0.05379 0.59427 0.31587 0.0
H875 H 0.09164 0.67526 0.36784 0.0
C876 C 0.16208 0.71585 0.24976 0.0
C877 C 0.11503 0.65086 0.25649 0.0
C878 C 0.18147 0.73055 0.21915 0.0
C879 C 0.04418 0.58428 0.39355 0.0
C880 C 0.05749 0.60085 0.35634 0.0
C881 C 0.09811 0.66814 0.33717 0.0
C882 C 0.14161 0.69385 0.22838 0.0
C883 C 0.12298 0.67623 0.2624 0.0
C884 C 0.07533 0.62553 0.37122 0.0
C885 C 0.09073 0.64284 0.33221 0.0
H886 H 0.15823 0.69666 0.10382 0.0
H887 H 0.12447 0.6712 0.15718 0.0
H888 H 0.11972 0.70406 0.30805 0.0
H889 H 0.06949 0.62348 0.5017 0.0
H890 H 0.09296 0.65201 0.4373 0.0
loop_
_geom_bond_atom_site_label_1
_geom_bond_atom_site_label_2
_geom_bond_distance
_geom_bond_site_symmetry_2
_ccdc_geom_bond_type
Mg0 O7 2.141 . S
Mg0 O8 2.048 . S
Mg0 O9 2.048 . S
Mg0 O12 2.141 . S
C1 O2 1.313 . S
C1 O8 1.195 . S
O2 C1 1.313 . S
C3 O4 1.245 . S
C3 O12 1.289 . S
O4 C3 1.245 . S
C5 O6 1.245 . S
C5 O7 1.289 . S
O6 C5 1.245 . S
O7 Mg0 2.141 . S
O7 C5 1.289 . S
O8 Mg0 2.048 . S
O8 C1 1.195 . S
O9 Mg0 2.048 . S
O9 C10 1.195 . S
C10 O9 1.195 . S
C10 O11 1.313 . S
O11 C10 1.313 . S
O12 Mg0 2.141 . S
O12 C3 1.289 . S
Mg13 O20 2.141 . S
Mg13 O21 2.048 . S
Mg13 O22 2.048 . S
Mg13 O25 2.141 . S
C14 O15 1.313 . S
C14 O21 1.195 . S
O15 C14 1.313 . S
C16 O17 1.245 . S
C16 O25 1.289 . S
O17 C16 1.245 . S
C18 O19 1.245 . S
C18 O20 1.289 . S
O19 C18 1.245 . S
O20 Mg13 2.141 . S
O20 C18 1.289 . S
O21 Mg13 2.048 . S
O21 C14 1.195 . S
O22 Mg13 2.048 . S
O22 C23 1.195 . S
C23 O22 1.195 . S
C23 O24 1.313 . S
O24 C23 1.313 . S
O25 Mg13 2.141 . S
O25 C16 1.289 . S
Mg26 O33 2.141 1_554 S
Mg26 O34 2.048 . S
Mg26 O35 2.048 . S
Mg26 O38 2.141 1_554 S
C27 O28 1.313 . S
C27 O34 1.195 . S
O28 C27 1.313 . S
C29 O30 1.245 . S
C29 O38 1.289 . S
O30 C29 1.245 . S
C31 O32 1.245 . S
C31 O33 1.289 . S
O32 C31 1.245 . S
O33 Mg26 2.141 1_556 S
O33 C31 1.289 . S
O34 Mg26 2.048 . S
O34 C27 1.195 . S
O35 Mg26 2.048 . S
O35 C36 1.195 . S
C36 O35 1.195 . S
C36 O37 1.313 . S
O37 C36 1.313 . S
O38 Mg26 2.141 1_556 S
O38 C29 1.289 . S
Mg39 O46 2.141 . S
Mg39 O47 2.048 . S
Mg39 O48 2.048 . S
Mg39 O51 2.141 . S
C40 O41 1.313 . S
C40 O47 1.195 1_556 S
O41 C40 1.313 . S
C42 O43 1.245 . S
C42 O51 1.289 . S
O43 C42 1.245 . S
C44 O45 1.245 . S
C44 O46 1.289 . S
O45 C44 1.245 . S
O46 Mg39 2.141 . S
O46 C44 1.289 . S
O47 Mg39 2.048 . S
O47 C40 1.195 1_554 S
O48 Mg39 2.048 . S
O48 C49 1.195 1_554 S
C49 O48 1.195 1_556 S
C49 O50 1.313 . S
O50 C49 1.313 . S
O51 Mg39 2.141 . S
O51 C42 1.289 . S
Mg52 O59 2.141 . S
Mg52 O60 2.048 . S
Mg52 O61 2.048 . S
Mg52 O64 2.141 . S
C53 O54 1.313 . S
C53 O60 1.195 . S
O54 C53 1.313 . S
C55 O56 1.245 . S
C55 O64 1.289 . S
O56 C55 1.245 . S
C57 O58 1.245 . S
C57 O59 1.289 . S
O58 C57 1.245 . S
O59 Mg52 2.141 . S
O59 C57 1.289 . S
O60 Mg52 2.048 . S
O60 C53 1.195 . S
O61 Mg52 2.048 . S
O61 C62 1.195 . S
C62 O61 1.195 . S
C62 O63 1.313 . S
O63 C62 1.313 . S
O64 Mg52 2.141 . S
O64 C55 1.289 . S
Mg65 O72 2.141 . S
Mg65 O73 2.048 . S
Mg65 O74 2.048 . S
Mg65 O77 2.141 . S
C66 O67 1.313 . S
C66 O73 1.195 . S
O67 C66 1.313 . S
C68 O69 1.245 . S
C68 O77 1.289 . S
O69 C68 1.245 . S
C70 O71 1.245 . S
C70 O72 1.289 . S
O71 C70 1.245 . S
O72 Mg65 2.141 . S
O72 C70 1.289 . S
O73 Mg65 2.048 . S
O73 C66 1.195 . S
O74 Mg65 2.048 . S
O74 C75 1.195 . S
C75 O74 1.195 . S
C75 O76 1.313 . S
O76 C75 1.313 . S
O77 Mg65 2.141 . S
O77 C68 1.289 . S
C78 O90 1.241 . S
C78 O91 1.280 . S
C79 O92 1.277 . S
C79 O93 1.245 . S
C80 O104 1.247 . S
C80 O106 1.289 . S
Mg81 O82 1.904 . S
Mg81 O91 1.984 . S
Mg81 O93 1.988 1_655 S
Mg81 O94 2.061 . S
O82 Mg81 1.904 . S
O82 Mg83 1.990 1_655 S
O82 Mg84 1.922 1_655 S
Mg83 O82 1.990 1_455 S
Mg83 O90 2.042 1_455 S
Mg83 O92 2.041 . S
Mg83 O98 2.038 1_455 S
Mg83 O106 2.238 . S
Mg84 O82 1.922 1_455 S
Mg84 O85 1.917 . S
Mg84 O95 2.106 1_455 S
Mg84 O97 2.079 1_455 S
Mg84 O106 2.106 . S
Mg84 O107 2.079 . S
O85 Mg84 1.917 . S
O85 Mg86 1.926 . S
O85 Mg87 1.986 . S
Mg86 O85 1.926 . S
Mg86 O100 1.984 . S
Mg86 O103 1.988 1_455 S
Mg86 O104 2.061 . S
Mg87 O85 1.986 . S
Mg87 O95 2.238 1_455 S
Mg87 O99 2.042 . S
Mg87 O101 2.041 1_455 S
Mg87 O108 2.038 . S
C88 O94 1.247 . S
C88 O95 1.289 . S
C89 O107 1.245 . S
C89 O108 1.274 . S
O90 C78 1.241 . S
O90 Mg83 2.042 1_655 S
O91 C78 1.280 . S
O91 Mg81 1.984 . S
O92 C79 1.277 . S
O92 Mg83 2.041 . S
O93 C79 1.245 . S
O93 Mg81 1.988 1_455 S
O94 Mg81 2.061 . S
O94 C88 1.247 . S
O95 Mg84 2.106 1_655 S
O95 Mg87 2.238 1_655 S
O95 C88 1.289 . S
C96 O97 1.245 . S
C96 O98 1.274 . S
O97 Mg84 2.079 1_655 S
O97 C96 1.245 . S
O98 Mg83 2.038 1_655 S
O98 C96 1.274 . S
O99 Mg87 2.042 . S
O99 C102 1.241 . S
O100 Mg86 1.984 . S
O100 C102 1.280 . S
O101 Mg87 2.041 1_655 S
O101 C105 1.277 . S
C102 O99 1.241 . S
C102 O100 1.280 . S
O103 Mg86 1.988 1_655 S
O103 C105 1.245 . S
O104 C80 1.247 . S
O104 Mg86 2.061 . S
C105 O101 1.277 . S
C105 O103 1.245 . S
O106 C80 1.289 . S
O106 Mg83 2.238 . S
O106 Mg84 2.106 . S
O107 Mg84 2.079 . S
O107 C89 1.245 . S
O108 Mg87 2.038 . S
O108 C89 1.274 . S
C109 O121 1.241 . S
C109 O122 1.280 . S
C110 O123 1.277 . S
C110 O124 1.245 . S
C111 O135 1.247 . S
C111 O137 1.289 . S
Mg112 O113 1.926 . S
Mg112 O122 1.984 . S
Mg112 O124 1.988 1_545 S
Mg112 O125 2.061 . S
O113 Mg112 1.926 . S
O113 Mg114 1.986 . S
O113 Mg115 1.917 . S
Mg114 O113 1.986 . S
Mg114 O121 2.042 . S
Mg114 O123 2.041 1_545 S
Mg114 O129 2.038 . S
Mg114 O137 2.238 1_545 S
Mg115 O113 1.917 . S
Mg115 O116 1.917 1_545 S
Mg115 O126 2.106 . S
Mg115 O128 2.079 . S
Mg115 O137 2.106 1_545 S
Mg115 O138 2.079 1_545 S
O116 Mg115 1.917 1_565 S
O116 Mg117 1.926 . S
O116 Mg118 1.986 1_565 S
Mg117 O116 1.926 . S
Mg117 O131 1.984 . S
Mg117 O134 1.988 1_565 S
Mg117 O135 2.061 . S
Mg118 O116 1.986 1_545 S
Mg118 O126 2.238 . S
Mg118 O130 2.042 1_545 S
Mg118 O132 2.041 . S
Mg118 O139 2.038 1_545 S
C119 O125 1.247 . S
C119 O126 1.289 . S
C120 O138 1.245 . S
C120 O139 1.274 . S
O121 C109 1.241 . S
O121 Mg114 2.042 . S
O122 C109 1.280 . S
O122 Mg112 1.984 . S
O123 C110 1.277 . S
O123 Mg114 2.041 1_565 S
O124 C110 1.245 . S
O124 Mg112 1.988 1_565 S
O125 Mg112 2.061 . S
O125 C119 1.247 . S
O126 Mg115 2.106 . S
O126 Mg118 2.238 . S
O126 C119 1.289 . S
C127 O128 1.245 . S
C127 O129 1.274 . S
O128 Mg115 2.079 . S
O128 C127 1.245 . S
O129 Mg114 2.038 . S
O129 C127 1.274 . S
O130 Mg118 2.042 1_565 S
O130 C133 1.241 . S
O131 Mg117 1.984 . S
O131 C133 1.280 . S
O132 Mg118 2.041 . S
O132 C136 1.277 . S
C133 O130 1.241 . S
C133 O131 1.280 . S
O134 Mg117 1.988 1_545 S
O134 C136 1.245 . S
O135 C111 1.247 . S
O135 Mg117 2.061 . S
C136 O132 1.277 . S
C136 O134 1.245 . S
O137 C111 1.289 . S
O137 Mg114 2.238 1_565 S
O137 Mg115 2.106 1_565 S
O138 Mg115 2.079 1_565 S
O138 C120 1.245 . S
O139 Mg118 2.038 1_565 S
O139 C120 1.274 . S
C140 O152 1.241 . S
C140 O153 1.280 . S
C141 O154 1.277 . S
C141 O155 1.245 . S
C142 O166 1.247 . S
C142 O168 1.289 . S
Mg143 O144 1.926 . S
Mg143 O153 1.984 . S
Mg143 O155 1.988 . S
Mg143 O156 2.061 . S
O144 Mg143 1.926 . S
O144 Mg145 1.986 . S
O144 Mg146 1.917 . S
Mg145 O144 1.986 . S
Mg145 O152 2.042 . S
Mg145 O154 2.041 . S
Mg145 O160 2.038 . S
Mg145 O168 2.238 . S
Mg146 O144 1.917 . S
Mg146 O147 1.917 . S
Mg146 O157 2.106 . S
Mg146 O159 2.079 . S
Mg146 O168 2.106 . S
Mg146 O169 2.079 . S
O147 Mg146 1.917 . S
O147 Mg148 1.926 . S
O147 Mg149 1.986 . S
Mg148 O147 1.926 . S
Mg148 O162 1.984 . S
Mg148 O165 1.988 . S
Mg148 O166 2.061 . S
Mg149 O147 1.986 . S
Mg149 O157 2.238 . S
Mg149 O161 2.042 . S
Mg149 O163 2.041 . S
Mg149 O170 2.038 . S
C150 O156 1.247 . S
C150 O157 1.289 . S
C151 O169 1.245 . S
C151 O170 1.274 . S
O152 C140 1.241 . S
O152 Mg145 2.042 . S
O153 C140 1.280 . S
O153 Mg143 1.984 . S
O154 C141 1.277 . S
O154 Mg145 2.041 . S
O155 C141 1.245 . S
O155 Mg143 1.988 . S
O156 Mg143 2.061 . S
O156 C150 1.247 . S
O157 Mg146 2.106 . S
O157 Mg149 2.238 . S
O157 C150 1.289 . S
C158 O159 1.245 . S
C158 O160 1.274 . S
O159 Mg146 2.079 . S
O159 C158 1.245 . S
O160 Mg145 2.038 . S
O160 C158 1.274 . S
O161 Mg149 2.042 . S
O161 C164 1.241 . S
O162 Mg148 1.984 . S
O162 C164 1.280 . S
O163 Mg149 2.041 . S
O163 C167 1.277 . S
C164 O161 1.241 . S
C164 O162 1.280 . S
O165 Mg148 1.988 . S
O165 C167 1.245 . S
O166 C142 1.247 . S
O166 Mg148 2.061 . S
C167 O163 1.277 . S
C167 O165 1.245 . S
O168 C142 1.289 . S
O168 Mg145 2.238 . S
O168 Mg146 2.106 . S
O169 Mg146 2.079 . S
O169 C151 1.245 . S
O170 Mg149 2.038 . S
O170 C151 1.274 . S
C171 C172 1.349 . S
C171 C173 1.327 . S
C171 H196 0.950 . S
C172 C171 1.349 . S
C172 C188 1.349 . S
C173 C171 1.327 . S
C173 C192 1.429 . S
C173 H197 0.950 . S
C174 C191 1.574 . S
C174 C193 1.368 . S
C174 H198 0.949 . S
H175 C179 0.949 . S
C176 C177 1.349 . S
C176 C178 1.327 . S
C176 H199 0.950 . S
C177 C176 1.349 . S
C177 C189 1.349 . S
C178 C176 1.327 . S
C178 C194 1.429 . S
C178 H200 0.950 . S
C179 H175 0.949 . S
C179 C187 1.574 . S
C179 C195 1.368 . S
H180 C188 0.950 . S
H181 C186 0.950 . S
H182 C187 0.949 . S
H183 C189 0.950 . S
H184 C190 0.950 . S
H185 C191 0.949 . S
C186 H181 0.950 . S
C186 C188 1.327 . S
C186 C192 1.429 . S
C187 C179 1.574 . S
C187 H182 0.949 . S
C187 C193 1.368 . S
C188 C172 1.349 . S
C188 H180 0.950 . S
C188 C186 1.327 . S
C189 C177 1.349 . S
C189 H183 0.950 . S
C189 C190 1.327 . S
C190 H184 0.950 . S
C190 C189 1.327 . S
C190 C194 1.429 . S
C191 C174 1.574 . S
C191 H185 0.949 . S
C191 C195 1.368 . S
C192 C173 1.429 . S
C192 C186 1.429 . S
C192 C193 1.523 . S
C193 C174 1.368 . S
C193 C187 1.368 . S
C193 C192 1.523 . S
C194 C178 1.429 . S
C194 C190 1.429 . S
C194 C195 1.523 . S
C195 C179 1.368 . S
C195 C191 1.368 . S
C195 C194 1.523 . S
H196 C171 0.950 . S
H197 C173 0.950 . S
H198 C174 0.949 . S
H199 C176 0.950 . S
H200 C178 0.950 . S
C201 C202 1.349 . S
C201 C203 1.327 . S
C201 H226 0.950 . S
C202 C201 1.349 . S
C202 C218 1.349 . S
C203 C201 1.327 . S
C203 C222 1.429 . S
C203 H227 0.950 . S
C204 C221 1.574 . S
C204 C223 1.368 . S
C204 H228 0.949 . S
H205 C209 0.949 . S
C206 C207 1.349 . S
C206 C208 1.327 . S
C206 H229 0.950 . S
C207 C206 1.349 . S
C207 C219 1.349 . S
C208 C206 1.327 . S
C208 C224 1.429 . S
C208 H230 0.950 . S
C209 H205 0.949 . S
C209 C217 1.574 . S
C209 C225 1.368 . S
H210 C218 0.950 . S
H211 C216 0.950 . S
H212 C217 0.949 . S
H213 C219 0.950 . S
H214 C220 0.950 . S
H215 C221 0.949 . S
C216 H211 0.950 . S
C216 C218 1.327 . S
C216 C222 1.429 . S
C217 C209 1.574 . S
C217 H212 0.949 . S
C217 C223 1.368 . S
C218 C202 1.349 . S
C218 H210 0.950 . S
C218 C216 1.327 . S
C219 C207 1.349 . S
C219 H213 0.950 . S
C219 C220 1.327 . S
C220 H214 0.950 . S
C220 C219 1.327 . S
C220 C224 1.429 . S
C221 C204 1.574 . S
C221 H215 0.949 . S
C221 C225 1.368 . S
C222 C203 1.429 . S
C222 C216 1.429 . S
C222 C223 1.523 . S
C223 C204 1.368 . S
C223 C217 1.368 . S
C223 C222 1.523 . S
C224 C208 1.429 . S
C224 C220 1.429 . S
C224 C225 1.523 . S
C225 C209 1.368 . S
C225 C221 1.368 . S
C225 C224 1.523 . S
H226 C201 0.950 . S
H227 C203 0.950 . S
H228 C204 0.949 . S
H229 C206 0.950 . S
H230 C208 0.950 . S
C231 C232 1.349 . S
C231 C233 1.327 . S
C231 H256 0.950 . S
C232 C231 1.349 . S
C232 C248 1.349 . S
C233 C231 1.327 . S
C233 C252 1.429 . S
C233 H257 0.950 . S
C234 C251 1.574 . S
C234 C253 1.368 . S
C234 H258 0.949 . S
H235 C239 0.949 . S
C236 C237 1.349 . S
C236 C238 1.327 . S
C236 H259 0.950 . S
C237 C236 1.349 . S
C237 C249 1.349 . S
C238 C236 1.327 . S
C238 C254 1.429 . S
C238 H260 0.950 . S
C239 H235 0.949 . S
C239 C247 1.574 . S
C239 C255 1.368 . S
H240 C248 0.950 . S
H241 C246 0.950 . S
H242 C247 0.949 . S
H243 C249 0.950 . S
H244 C250 0.950 . S
H245 C251 0.949 . S
C246 H241 0.950 . S
C246 C248 1.327 . S
C246 C252 1.429 . S
C247 C239 1.574 . S
C247 H242 0.949 . S
C247 C253 1.368 . S
C248 C232 1.349 . S
C248 H240 0.950 . S
C248 C246 1.327 . S
C249 C237 1.349 . S
C249 H243 0.950 . S
C249 C250 1.327 . S
C250 H244 0.950 . S
C250 C249 1.327 . S
C250 C254 1.429 . S
C251 C234 1.574 . S
C251 H245 0.949 . S
C251 C255 1.368 . S
C252 C233 1.429 . S
C252 C246 1.429 . S
C252 C253 1.523 . S
C253 C234 1.368 . S
C253 C247 1.368 . S
C253 C252 1.523 . S
C254 C238 1.429 . S
C254 C250 1.429 . S
C254 C255 1.523 . S
C255 C239 1.368 . S
C255 C251 1.368 . S
C255 C254 1.523 . S
H256 C231 0.950 . S
H257 C233 0.950 . S
H258 C234 0.949 . S
H259 C236 0.950 . S
H260 C238 0.950 . S
C261 C262 1.349 . S
C261 C263 1.327 . S
C261 H286 0.950 . S
C262 C261 1.349 . S
C262 C278 1.349 . S
C263 C261 1.327 . S
C263 C282 1.429 . S
C263 H287 0.950 . S
C264 C281 1.574 . S
C264 C283 1.368 . S
C264 H288 0.949 . S
H265 C269 0.949 . S
C266 C267 1.349 . S
C266 C268 1.327 . S
C266 H289 0.950 . S
C267 C266 1.349 . S
C267 C279 1.349 . S
C268 C266 1.327 . S
C268 C284 1.429 . S
C268 H290 0.950 . S
C269 H265 0.949 . S
C269 C277 1.574 . S
C269 C285 1.368 . S
H270 C278 0.950 . S
H271 C276 0.950 . S
H272 C277 0.949 . S
H273 C279 0.950 . S
H274 C280 0.950 . S
H275 C281 0.949 . S
C276 H271 0.950 . S
C276 C278 1.327 . S
C276 C282 1.429 . S
C277 C269 1.574 . S
C277 H272 0.949 . S
C277 C283 1.368 . S
C278 C262 1.349 . S
C278 H270 0.950 . S
C278 C276 1.327 . S
C279 C267 1.349 . S
C279 H273 0.950 . S
C279 C280 1.327 . S
C280 H274 0.950 . S
C280 C279 1.327 . S
C280 C284 1.429 . S
C281 C264 1.574 . S
C281 H275 0.949 . S
C281 C285 1.368 . S
C282 C263 1.429 . S
C282 C276 1.429 . S
C282 C283 1.523 . S
C283 C264 1.368 . S
C283 C277 1.368 . S
C283 C282 1.523 . S
C284 C268 1.429 . S
C284 C280 1.429 . S
C284 C285 1.523 . S
C285 C269 1.368 . S
C285 C281 1.368 . S
C285 C284 1.523 . S
H286 C261 0.950 . S
H287 C263 0.950 . S
H288 C264 0.949 . S
H289 C266 0.950 . S
H290 C268 0.950 . S
C291 C292 1.349 . S
C291 C293 1.327 . S
C291 H316 0.950 . S
C292 C291 1.349 . S
C292 C308 1.349 . S
C293 C291 1.327 . S
C293 C312 1.429 . S
C293 H317 0.950 . S
C294 C311 1.574 . S
C294 C313 1.368 . S
C294 H318 0.949 . S
H295 C299 0.949 . S
C296 C297 1.349 . S
C296 C298 1.327 . S
C296 H319 0.950 . S
C297 C296 1.349 . S
C297 C309 1.349 . S
C298 C296 1.327 . S
C298 C314 1.429 . S
C298 H320 0.950 . S
C299 H295 0.949 . S
C299 C307 1.574 . S
C299 C315 1.368 . S
H300 C308 0.950 . S
H301 C306 0.950 . S
H302 C307 0.949 . S
H303 C309 0.950 . S
H304 C310 0.950 . S
H305 C311 0.949 . S
C306 H301 0.950 . S
C306 C308 1.327 . S
C306 C312 1.429 . S
C307 C299 1.574 . S
C307 H302 0.949 . S
C307 C313 1.368 . S
C308 C292 1.349 . S
C308 H300 0.950 . S
C308 C306 1.327 . S
C309 C297 1.349 . S
C309 H303 0.950 . S
C309 C310 1.327 . S
C310 H304 0.950 . S
C310 C309 1.327 . S
C310 C314 1.429 . S
C311 C294 1.574 . S
C311 H305 0.949 . S
C311 C315 1.368 . S
C312 C293 1.429 . S
C312 C306 1.429 . S
C312 C313 1.523 . S
C313 C294 1.368 . S
C313 C307 1.368 . S
C313 C312 1.523 . S
C314 C298 1.429 . S
C314 C310 1.429 . S
C314 C315 1.523 . S
C315 C299 1.368 . S
C315 C311 1.368 . S
C315 C314 1.523 . S
H316 C291 0.950 . S
H317 C293 0.950 . S
H318 C294 0.949 . S
H319 C296 0.950 . S
H320 C298 0.950 . S
C321 C322 1.349 . S
C321 C323 1.327 . S
C321 H346 0.950 . S
C322 C321 1.349 . S
C322 C338 1.349 . S
C323 C321 1.327 . S
C323 C342 1.429 . S
C323 H347 0.950 . S
C324 C341 1.574 . S
C324 C343 1.368 . S
C324 H348 0.949 . S
H325 C329 0.949 . S
C326 C327 1.349 . S
C326 C328 1.327 . S
C326 H349 0.950 . S
C327 C326 1.349 . S
C327 C339 1.349 . S
C328 C326 1.327 . S
C328 C344 1.429 . S
C328 H350 0.950 . S
C329 H325 0.949 . S
C329 C337 1.574 . S
C329 C345 1.368 . S
H330 C338 0.950 . S
H331 C336 0.950 . S
H332 C337 0.949 . S
H333 C339 0.950 . S
H334 C340 0.950 . S
H335 C341 0.949 . S
C336 H331 0.950 . S
C336 C338 1.327 . S
C336 C342 1.429 . S
C337 C329 1.574 . S
C337 H332 0.949 . S
C337 C343 1.368 . S
C338 C322 1.349 . S
C338 H330 0.950 . S
C338 C336 1.327 . S
C339 C327 1.349 . S
C339 H333 0.950 . S
C339 C340 1.327 . S
C340 H334 0.950 . S
C340 C339 1.327 . S
C340 C344 1.429 . S
C341 C324 1.574 . S
C341 H335 0.949 . S
C341 C345 1.368 . S
C342 C323 1.429 . S
C342 C336 1.429 . S
C342 C343 1.523 . S
C343 C324 1.368 . S
C343 C337 1.368 . S
C343 C342 1.523 . S
C344 C328 1.429 . S
C344 C340 1.429 . S
C344 C345 1.523 . S
C345 C329 1.368 . S
C345 C341 1.368 . S
C345 C344 1.523 . S
H346 C321 0.950 . S
H347 C323 0.950 . S
H348 C324 0.949 . S
H349 C326 0.950 . S
H350 C328 0.950 . S
C351 C352 1.349 . S
C351 C353 1.327 . S
C351 H376 0.950 . S
C352 C351 1.349 . S
C352 C368 1.349 . S
C353 C351 1.327 . S
C353 C372 1.429 . S
C353 H377 0.950 . S
C354 C371 1.574 . S
C354 C373 1.368 . S
C354 H378 0.949 . S
H355 C359 0.949 . S
C356 C357 1.349 . S
C356 C358 1.327 . S
C356 H379 0.950 . S
C357 C356 1.349 . S
C357 C369 1.349 . S
C358 C356 1.327 . S
C358 C374 1.429 . S
C358 H380 0.950 . S
C359 H355 0.949 . S
C359 C367 1.574 . S
C359 C375 1.368 . S
H360 C368 0.950 . S
H361 C366 0.950 . S
H362 C367 0.949 . S
H363 C369 0.950 . S
H364 C370 0.950 . S
H365 C371 0.949 . S
C366 H361 0.950 . S
C366 C368 1.327 . S
C366 C372 1.429 . S
C367 C359 1.574 . S
C367 H362 0.949 . S
C367 C373 1.368 . S
C368 C352 1.349 . S
C368 H360 0.950 . S
C368 C366 1.327 . S
C369 C357 1.349 . S
C369 H363 0.950 . S
C369 C370 1.327 . S
C370 H364 0.950 . S
C370 C369 1.327 . S
C370 C374 1.429 . S
C371 C354 1.574 . S
C371 H365 0.949 . S
C371 C375 1.368 . S
C372 C353 1.429 . S
C372 C366 1.429 . S
C372 C373 1.523 . S
C373 C354 1.368 . S
C373 C367 1.368 . S
C373 C372 1.523 . S
C374 C358 1.429 . S
C374 C370 1.429 . S
C374 C375 1.523 . S
C375 C359 1.368 . S
C375 C371 1.368 . S
C375 C374 1.523 . S
H376 C351 0.950 . S
H377 C353 0.950 . S
H378 C354 0.949 . S
H379 C356 0.950 . S
H380 C358 0.950 . S
C381 C382 1.349 . S
C381 C383 1.327 . S
C381 H406 0.950 . S
C382 C381 1.349 . S
C382 C398 1.349 . S
C383 C381 1.327 . S
C383 C402 1.429 . S
C383 H407 0.950 . S
C384 C401 1.574 . S
C384 C403 1.368 . S
C384 H408 0.949 . S
H385 C389 0.949 . S
C386 C387 1.349 . S
C386 C388 1.327 . S
C386 H409 0.950 . S
C387 C386 1.349 . S
C387 C399 1.349 . S
C388 C386 1.327 . S
C388 C404 1.429 . S
C388 H410 0.950 . S
C389 H385 0.949 . S
C389 C397 1.574 . S
C389 C405 1.368 . S
H390 C398 0.950 1_554 S
H391 C396 0.950 . S
H392 C397 0.949 . S
H393 C399 0.950 . S
H394 C400 0.950 . S
H395 C401 0.949 . S
C396 H391 0.950 . S
C396 C398 1.327 . S
C396 C402 1.429 . S
C397 C389 1.574 . S
C397 H392 0.949 . S
C397 C403 1.368 . S
C398 C382 1.349 . S
C398 H390 0.950 1_556 S
C398 C396 1.327 . S
C399 C387 1.349 . S
C399 H393 0.950 . S
C399 C400 1.327 . S
C400 H394 0.950 . S
C400 C399 1.327 . S
C400 C404 1.429 . S
C401 C384 1.574 . S
C401 H395 0.949 . S
C401 C405 1.368 . S
C402 C383 1.429 . S
C402 C396 1.429 . S
C402 C403 1.523 . S
C403 C384 1.368 . S
C403 C397 1.368 . S
C403 C402 1.523 . S
C404 C388 1.429 . S
C404 C400 1.429 . S
C404 C405 1.523 . S
C405 C389 1.368 . S
C405 C401 1.368 . S
C405 C404 1.523 . S
H406 C381 0.950 . S
H407 C383 0.950 . S
H408 C384 0.949 . S
H409 C386 0.950 . S
H410 C388 0.950 . S
C411 C412 1.349 . S
C411 C413 1.327 . S
C411 H436 0.950 1_556 S
C412 C411 1.349 . S
C412 C428 1.349 . S
C413 C411 1.327 . S
C413 C432 1.429 . S
C413 H437 0.950 . S
C414 C431 1.574 . S
C414 C433 1.368 . S
C414 H438 0.949 . S
H415 C419 0.949 . S
C416 C417 1.349 . S
C416 C418 1.327 . S
C416 H439 0.950 . S
C417 C416 1.349 . S
C417 C429 1.349 . S
C418 C416 1.327 . S
C418 C434 1.429 . S
C418 H440 0.950 . S
C419 H415 0.949 . S
C419 C427 1.574 . S
C419 C435 1.368 . S
H420 C428 0.950 . S
H421 C426 0.950 . S
H422 C427 0.949 . S
H423 C429 0.950 . S
H424 C430 0.950 . S
H425 C431 0.949 . S
C426 H421 0.950 . S
C426 C428 1.327 . S
C426 C432 1.429 . S
C427 C419 1.574 . S
C427 H422 0.949 . S
C427 C433 1.368 . S
C428 C412 1.349 . S
C428 H420 0.950 . S
C428 C426 1.327 . S
C429 C417 1.349 . S
C429 H423 0.950 . S
C429 C430 1.327 . S
C430 H424 0.950 . S
C430 C429 1.327 . S
C430 C434 1.429 . S
C431 C414 1.574 . S
C431 H425 0.949 . S
C431 C435 1.368 . S
C432 C413 1.429 . S
C432 C426 1.429 . S
C432 C433 1.523 . S
C433 C414 1.368 . S
C433 C427 1.368 . S
C433 C432 1.523 . S
C434 C418 1.429 . S
C434 C430 1.429 . S
C434 C435 1.523 . S
C435 C419 1.368 . S
C435 C431 1.368 . S
C435 C434 1.523 . S
H436 C411 0.950 1_554 S
H437 C413 0.950 . S
H438 C414 0.949 . S
H439 C416 0.950 . S
H440 C418 0.950 . S
C441 C442 1.349 . S
C441 C443 1.327 . S
C441 H466 0.950 . S
C442 C441 1.349 . S
C442 C458 1.349 . S
C443 C441 1.327 . S
C443 C462 1.429 . S
C443 H467 0.950 1_554 S
C444 C461 1.574 . S
C444 C463 1.368 . S
C444 H468 0.949 1_556 S
H445 C449 0.949 . S
C446 C447 1.349 . S
C446 C448 1.327 . S
C446 H469 0.950 . S
C447 C446 1.349 . S
C447 C459 1.349 . S
C448 C446 1.327 . S
C448 C464 1.429 . S
C448 H470 0.950 . S
C449 H445 0.949 . S
C449 C457 1.574 . S
C449 C465 1.368 . S
H450 C458 0.950 . S
H451 C456 0.950 . S
H452 C457 0.949 . S
H453 C459 0.950 . S
H454 C460 0.950 . S
H455 C461 0.949 . S
C456 H451 0.950 . S
C456 C458 1.327 . S
C456 C462 1.429 . S
C457 C449 1.574 . S
C457 H452 0.949 . S
C457 C463 1.368 . S
C458 C442 1.349 . S
C458 H450 0.950 . S
C458 C456 1.327 . S
C459 C447 1.349 . S
C459 H453 0.950 . S
C459 C460 1.327 . S
C460 H454 0.950 . S
C460 C459 1.327 . S
C460 C464 1.429 . S
C461 C444 1.574 . S
C461 H455 0.949 . S
C461 C465 1.368 . S
C462 C443 1.429 . S
C462 C456 1.429 . S
C462 C463 1.523 1_554 S
C463 C444 1.368 . S
C463 C457 1.368 . S
C463 C462 1.523 1_556 S
C464 C448 1.429 . S
C464 C460 1.429 . S
C464 C465 1.523 . S
C465 C449 1.368 . S
C465 C461 1.368 . S
C465 C464 1.523 . S
H466 C441 0.950 . S
H467 C443 0.950 1_556 S
H468 C444 0.949 1_554 S
H469 C446 0.950 . S
H470 C448 0.950 . S
C471 C472 1.349 . S
C471 C473 1.327 . S
C471 H496 0.950 . S
C472 C471 1.349 . S
C472 C488 1.349 1_554 S
C473 C471 1.327 . S
C473 C492 1.429 1_554 S
C473 H497 0.950 . S
C474 C491 1.574 . S
C474 C493 1.368 . S
C474 H498 0.949 . S
H475 C479 0.949 . S
C476 C477 1.349 . S
C476 C478 1.327 . S
C476 H499 0.950 . S
C477 C476 1.349 . S
C477 C489 1.349 . S
C478 C476 1.327 . S
C478 C494 1.429 . S
C478 H500 0.950 . S
C479 H475 0.949 . S
C479 C487 1.574 . S
C479 C495 1.368 . S
H480 C488 0.950 . S
H481 C486 0.950 . S
H482 C487 0.949 . S
H483 C489 0.950 . S
H484 C490 0.950 . S
H485 C491 0.949 . S
C486 H481 0.950 . S
C486 C488 1.327 . S
C486 C492 1.429 . S
C487 C479 1.574 . S
C487 H482 0.949 . S
C487 C493 1.368 . S
C488 C472 1.349 1_556 S
C488 H480 0.950 . S
C488 C486 1.327 . S
C489 C477 1.349 . S
C489 H483 0.950 . S
C489 C490 1.327 . S
C490 H484 0.950 . S
C490 C489 1.327 . S
C490 C494 1.429 . S
C491 C474 1.574 . S
C491 H485 0.949 . S
C491 C495 1.368 . S
C492 C473 1.429 1_556 S
C492 C486 1.429 . S
C492 C493 1.523 . S
C493 C474 1.368 . S
C493 C487 1.368 . S
C493 C492 1.523 . S
C494 C478 1.429 . S
C494 C490 1.429 . S
C494 C495 1.523 . S
C495 C479 1.368 . S
C495 C491 1.368 . S
C495 C494 1.523 . S
H496 C471 0.950 . S
H497 C473 0.950 . S
H498 C474 0.949 . S
H499 C476 0.950 . S
H500 C478 0.950 . S
C501 C502 1.349 1_556 S
C501 C503 1.327 . S
C501 H526 0.950 . S
C502 C501 1.349 1_554 S
C502 C518 1.349 . S
C503 C501 1.327 . S
C503 C522 1.429 . S
C503 H527 0.950 . S
C504 C521 1.574 . S
C504 C523 1.368 . S
C504 H528 0.969 . S
H505 C509 0.949 . S
C506 C507 1.349 . S
C506 C508 1.327 . S
C506 H529 0.950 . S
C507 C506 1.349 . S
C507 C519 1.349 . S
C508 C506 1.327 . S
C508 C524 1.429 . S
C508 H530 0.950 . S
C509 H505 0.949 . S
C509 C517 1.574 . S
C509 C525 1.368 . S
H510 C518 0.950 . S
H511 C516 0.950 . S
H512 C517 0.949 . S
H513 C519 0.950 . S
H514 C520 0.950 . S
H515 C521 0.949 . S
C516 H511 0.950 . S
C516 C518 1.327 . S
C516 C522 1.429 1_554 S
C517 C509 1.574 . S
C517 H512 0.949 . S
C517 C523 1.368 . S
C518 C502 1.349 . S
C518 H510 0.950 . S
C518 C516 1.327 . S
C519 C507 1.349 . S
C519 H513 0.950 . S
C519 C520 1.327 . S
C520 H514 0.950 . S
C520 C519 1.327 . S
C520 C524 1.429 . S
C521 C504 1.574 . S
C521 H515 0.949 . S
C521 C525 1.368 . S
C522 C503 1.429 . S
C522 C516 1.429 1_556 S
C522 C523 1.523 . S
C523 C504 1.368 . S
C523 C517 1.368 . S
C523 C522 1.523 . S
C524 C508 1.429 . S
C524 C520 1.429 . S
C524 C525 1.523 . S
C525 C509 1.368 . S
C525 C521 1.368 . S
C525 C524 1.523 . S
H526 C501 0.950 . S
H527 C503 0.950 . S
H528 C504 0.969 . S
H529 C506 0.950 . S
H530 C508 0.950 . S
C531 C532 1.349 . S
C531 C533 1.327 . S
C531 H556 0.950 . S
C532 C531 1.349 . S
C532 C548 1.349 . S
C533 C531 1.327 . S
C533 C552 1.429 . S
C533 H557 0.950 . S
C534 C551 1.574 . S
C534 C553 1.368 . S
C534 H558 0.949 . S
H535 C539 0.949 . S
C536 C537 1.349 . S
C536 C538 1.327 . S
C536 H559 0.950 . S
C537 C536 1.349 . S
C537 C549 1.349 . S
C538 C536 1.327 . S
C538 C554 1.429 . S
C538 H560 0.950 . S
C539 H535 0.949 . S
C539 C547 1.574 . S
C539 C555 1.368 . S
H540 C548 0.950 . S
H541 C546 0.950 . S
H542 C547 0.949 . S
H543 C549 0.950 . S
H544 C550 0.950 . S
H545 C551 0.949 . S
C546 H541 0.950 . S
C546 C548 1.327 . S
C546 C552 1.429 . S
C547 C539 1.574 . S
C547 H542 0.949 . S
C547 C553 1.368 . S
C548 C532 1.349 . S
C548 H540 0.950 . S
C548 C546 1.327 . S
C549 C537 1.349 . S
C549 H543 0.950 . S
C549 C550 1.327 . S
C550 H544 0.950 . S
C550 C549 1.327 . S
C550 C554 1.429 . S
C551 C534 1.574 . S
C551 H545 0.949 . S
C551 C555 1.368 . S
C552 C533 1.429 . S
C552 C546 1.429 . S
C552 C553 1.523 . S
C553 C534 1.368 . S
C553 C547 1.368 . S
C553 C552 1.523 . S
C554 C538 1.429 . S
C554 C550 1.429 . S
C554 C555 1.523 . S
C555 C539 1.368 . S
C555 C551 1.368 . S
C555 C554 1.523 . S
H556 C531 0.950 . S
H557 C533 0.950 . S
H558 C534 0.949 . S
H559 C536 0.950 . S
H560 C538 0.950 . S
C561 C562 1.349 . S
C561 C563 1.327 . S
C561 H586 0.950 . S
C562 C561 1.349 . S
C562 C578 1.349 . S
C563 C561 1.327 . S
C563 C582 1.429 . S
C563 H587 0.950 . S
C564 C581 1.574 . S
C564 C583 1.368 . S
C564 H588 0.949 . S
H565 C569 0.949 . S
C566 C567 1.349 . S
C566 C568 1.327 . S
C566 H589 0.950 . S
C567 C566 1.349 . S
C567 C579 1.349 . S
C568 C566 1.327 . S
C568 C584 1.429 . S
C568 H590 0.950 . S
C569 H565 0.949 . S
C569 C577 1.574 . S
C569 C585 1.368 . S
H570 C578 0.950 1_554 S
H571 C576 0.950 . S
H572 C577 0.949 . S
H573 C579 0.950 . S
H574 C580 0.950 . S
H575 C581 0.949 . S
C576 H571 0.950 . S
C576 C578 1.327 . S
C576 C582 1.429 . S
C577 C569 1.574 . S
C577 H572 0.949 . S
C577 C583 1.368 . S
C578 C562 1.349 . S
C578 H570 0.950 1_556 S
C578 C576 1.327 . S
C579 C567 1.349 . S
C579 H573 0.950 . S
C579 C580 1.327 . S
C580 H574 0.950 . S
C580 C579 1.327 . S
C580 C584 1.429 . S
C581 C564 1.574 . S
C581 H575 0.949 . S
C581 C585 1.368 . S
C582 C563 1.429 . S
C582 C576 1.429 . S
C582 C583 1.523 . S
C583 C564 1.368 . S
C583 C577 1.368 . S
C583 C582 1.523 . S
C584 C568 1.429 . S
C584 C580 1.429 . S
C584 C585 1.523 . S
C585 C569 1.368 . S
C585 C581 1.368 . S
C585 C584 1.523 . S
H586 C561 0.950 . S
H587 C563 0.950 . S
H588 C564 0.949 . S
H589 C566 0.950 . S
H590 C568 0.950 . S
C591 C592 1.349 . S
C591 C593 1.327 . S
C591 H616 0.950 . S
C592 C591 1.349 . S
C592 C608 1.349 . S
C593 C591 1.327 . S
C593 C612 1.429 . S
C593 H617 0.950 1_554 S
C594 C611 1.574 . S
C594 C613 1.368 . S
C594 H618 0.949 1_556 S
H595 C599 0.949 . S
C596 C597 1.349 . S
C596 C598 1.327 . S
C596 H619 0.950 . S
C597 C596 1.349 . S
C597 C609 1.349 . S
C598 C596 1.327 . S
C598 C614 1.429 . S
C598 H620 0.950 . S
C599 H595 0.949 . S
C599 C607 1.574 . S
C599 C615 1.368 . S
H600 C608 0.950 . S
H601 C606 0.950 . S
H602 C607 0.949 . S
H603 C609 0.950 . S
H604 C610 0.950 . S
H605 C611 0.949 . S
C606 H601 0.950 . S
C606 C608 1.327 . S
C606 C612 1.429 . S
C607 C599 1.574 . S
C607 H602 0.949 . S
C607 C613 1.368 . S
C608 C592 1.349 . S
C608 H600 0.950 . S
C608 C606 1.327 . S
C609 C597 1.349 . S
C609 H603 0.950 . S
C609 C610 1.327 . S
C610 H604 0.950 . S
C610 C609 1.327 . S
C610 C614 1.429 . S
C611 C594 1.574 . S
C611 H605 0.949 . S
C611 C615 1.368 . S
C612 C593 1.429 . S
C612 C606 1.429 . S
C612 C613 1.523 1_554 S
C613 C594 1.368 . S
C613 C607 1.368 . S
C613 C612 1.523 1_556 S
C614 C598 1.429 . S
C614 C610 1.429 . S
C614 C615 1.523 . S
C615 C599 1.368 . S
C615 C611 1.368 . S
C615 C614 1.523 . S
H616 C591 0.950 . S
H617 C593 0.950 1_556 S
H618 C594 0.949 1_554 S
H619 C596 0.950 . S
H620 C598 0.950 . S
C621 C622 1.349 . S
C621 C623 1.327 . S
C621 H646 0.950 . S
C622 C621 1.349 . S
C622 C638 1.340 1_554 S
C623 C621 1.327 . S
C623 C642 1.429 1_554 S
C623 H647 0.950 . S
C624 C641 1.574 . S
C624 C643 1.368 . S
C624 H648 0.949 . S
H625 C629 0.949 . S
C626 C627 1.349 . S
C626 C628 1.327 . S
C626 H649 0.950 . S
C627 C626 1.349 . S
C627 C639 1.349 . S
C628 C626 1.327 . S
C628 C644 1.429 . S
C628 H650 0.950 . S
C629 H625 0.949 . S
C629 C637 1.574 . S
C629 C645 1.368 . S
H630 C638 0.952 . S
H631 C636 0.950 . S
H632 C637 0.949 . S
H633 C639 0.950 . S
H634 C640 0.950 . S
H635 C641 0.949 . S
C636 H631 0.950 . S
C636 C638 1.334 . S
C636 C642 1.429 . S
C637 C629 1.574 . S
C637 H632 0.949 . S
C637 C643 1.368 . S
C638 C622 1.340 1_556 S
C638 H630 0.952 . S
C638 C636 1.334 . S
C639 C627 1.349 . S
C639 H633 0.950 . S
C639 C640 1.327 . S
C640 H634 0.950 . S
C640 C639 1.327 . S
C640 C644 1.429 . S
C641 C624 1.574 . S
C641 H635 0.949 . S
C641 C645 1.368 . S
C642 C623 1.429 1_556 S
C642 C636 1.429 . S
C642 C643 1.523 . S
C643 C624 1.368 . S
C643 C637 1.368 . S
C643 C642 1.523 . S
C644 C628 1.429 . S
C644 C640 1.429 . S
C644 C645 1.523 . S
C645 C629 1.368 . S
C645 C641 1.368 . S
C645 C644 1.523 . S
H646 C621 0.950 . S
H647 C623 0.950 . S
H648 C624 0.949 . S
H649 C626 0.950 . S
H650 C628 0.950 . S
C651 C652 1.349 1_556 S
C651 C653 1.327 . S
C651 H676 0.950 . S
C652 C651 1.349 1_554 S
C652 C668 1.349 . S
C653 C651 1.327 . S
C653 C672 1.429 . S
C653 H677 0.950 . S
C654 C671 1.574 . S
C654 C673 1.368 . S
C654 H678 0.949 . S
H655 C659 0.949 . S
C656 C657 1.349 . S
C656 C658 1.327 . S
C656 H679 0.950 . S
C657 C656 1.349 . S
C657 C669 1.349 . S
C658 C656 1.327 . S
C658 C674 1.429 . S
C658 H680 0.950 . S
C659 H655 0.949 . S
C659 C667 1.574 . S
C659 C675 1.368 . S
H660 C668 0.950 . S
H661 C666 0.950 . S
H662 C667 0.949 . S
H663 C669 0.950 . S
H664 C670 0.950 . S
H665 C671 0.949 . S
C666 H661 0.950 . S
C666 C668 1.327 1_556 S
C666 C672 1.429 . S
C667 C659 1.574 . S
C667 H662 0.949 . S
C667 C673 1.368 . S
C668 C652 1.349 . S
C668 H660 0.950 . S
C668 C666 1.327 1_554 S
C669 C657 1.349 . S
C669 H663 0.950 . S
C669 C670 1.327 . S
C670 H664 0.950 . S
C670 C669 1.327 . S
C670 C674 1.429 . S
C671 C654 1.574 . S
C671 H665 0.949 . S
C671 C675 1.368 . S
C672 C653 1.429 . S
C672 C666 1.429 . S
C672 C673 1.523 . S
C673 C654 1.368 . S
C673 C667 1.368 . S
C673 C672 1.523 . S
C674 C658 1.429 . S
C674 C670 1.429 . S
C674 C675 1.523 . S
C675 C659 1.368 . S
C675 C671 1.368 . S
C675 C674 1.523 . S
H676 C651 0.950 . S
H677 C653 0.950 . S
H678 C654 0.949 . S
H679 C656 0.950 . S
H680 C658 0.950 . S
C681 C682 1.349 . S
C681 C683 1.327 . S
C681 H706 0.950 . S
C682 C681 1.349 . S
C682 C698 1.349 . S
C683 C681 1.327 . S
C683 C702 1.429 . S
C683 H707 0.950 . S
C684 C701 1.574 . S
C684 C703 1.368 . S
C684 H708 0.949 . S
H685 C689 0.949 . S
C686 C687 1.349 . S
C686 C688 1.327 . S
C686 H709 0.950 . S
C687 C686 1.349 . S
C687 C699 1.349 . S
C688 C686 1.327 . S
C688 C704 1.429 . S
C688 H710 0.950 . S
C689 H685 0.949 . S
C689 C697 1.574 . S
C689 C705 1.368 . S
H690 C698 0.950 . S
H691 C696 0.950 . S
H692 C697 0.949 . S
H693 C699 0.950 . S
H694 C700 0.950 . S
H695 C701 0.949 . S
C696 H691 0.950 . S
C696 C698 1.327 . S
C696 C702 1.429 . S
C697 C689 1.574 . S
C697 H692 0.949 . S
C697 C703 1.368 . S
C698 C682 1.349 . S
C698 H690 0.950 . S
C698 C696 1.327 . S
C699 C687 1.349 . S
C699 H693 0.950 . S
C699 C700 1.327 . S
C700 H694 0.950 . S
C700 C699 1.327 . S
C700 C704 1.429 . S
C701 C684 1.574 . S
C701 H695 0.949 . S
C701 C705 1.368 . S
C702 C683 1.429 . S
C702 C696 1.429 . S
C702 C703 1.523 . S
C703 C684 1.368 . S
C703 C697 1.368 . S
C703 C702 1.523 . S
C704 C688 1.429 . S
C704 C700 1.429 . S
C704 C705 1.523 . S
C705 C689 1.368 . S
C705 C701 1.368 . S
C705 C704 1.523 . S
H706 C681 0.950 . S
H707 C683 0.950 . S
H708 C684 0.949 . S
H709 C686 0.950 . S
H710 C688 0.950 . S
C711 C712 1.349 . S
C711 C713 1.327 . S
C711 H736 0.950 . S
C712 C711 1.349 . S
C712 C728 1.349 . S
C713 C711 1.327 . S
C713 C732 1.429 . S
C713 H737 0.950 . S
C714 C731 1.574 . S
C714 C733 1.368 . S
C714 H738 0.949 . S
H715 C719 0.949 . S
C716 C717 1.349 . S
C716 C718 1.327 . S
C716 H739 0.950 . S
C717 C716 1.349 . S
C717 C729 1.349 . S
C718 C716 1.327 . S
C718 C734 1.429 . S
C718 H740 0.950 . S
C719 H715 0.949 . S
C719 C727 1.574 . S
C719 C735 1.368 . S
H720 C728 0.950 . S
H721 C726 0.950 . S
H722 C727 0.949 . S
H723 C729 0.950 . S
H724 C730 0.950 . S
H725 C731 0.949 . S
C726 H721 0.950 . S
C726 C728 1.327 . S
C726 C732 1.429 . S
C727 C719 1.574 . S
C727 H722 0.949 . S
C727 C733 1.368 . S
C728 C712 1.349 . S
C728 H720 0.950 . S
C728 C726 1.327 . S
C729 C717 1.349 . S
C729 H723 0.950 . S
C729 C730 1.327 . S
C730 H724 0.950 . S
C730 C729 1.327 . S
C730 C734 1.429 . S
C731 C714 1.574 . S
C731 H725 0.949 . S
C731 C735 1.368 . S
C732 C713 1.429 . S
C732 C726 1.429 . S
C732 C733 1.523 . S
C733 C714 1.368 . S
C733 C727 1.368 . S
C733 C732 1.523 . S
C734 C718 1.429 . S
C734 C730 1.429 . S
C734 C735 1.523 . S
C735 C719 1.368 . S
C735 C731 1.368 . S
C735 C734 1.523 . S
H736 C711 0.950 . S
H737 C713 0.950 . S
H738 C714 0.949 . S
H739 C716 0.950 . S
H740 C718 0.950 . S
C741 C742 1.349 . S
C741 C743 1.327 . S
C741 H766 0.950 . S
C742 C741 1.349 . S
C742 C758 1.349 . S
C743 C741 1.327 . S
C743 C762 1.429 . S
C743 H767 0.950 . S
C744 C761 1.574 . S
C744 C763 1.368 . S
C744 H768 0.949 . S
H745 C749 0.949 . S
C746 C747 1.349 . S
C746 C748 1.327 . S
C746 H769 0.950 . S
C747 C746 1.349 . S
C747 C759 1.349 . S
C748 C746 1.327 . S
C748 C764 1.429 . S
C748 H770 0.950 . S
C749 H745 0.949 . S
C749 C757 1.574 . S
C749 C765 1.368 . S
H750 C758 0.950 . S
H751 C756 0.950 . S
H752 C757 0.949 . S
H753 C759 0.950 . S
H754 C760 0.950 . S
H755 C761 0.949 . S
C756 H751 0.950 . S
C756 C758 1.327 . S
C756 C762 1.429 . S
C757 C749 1.574 . S
C757 H752 0.949 . S
C757 C763 1.368 . S
C758 C742 1.349 . S
C758 H750 0.950 . S
C758 C756 1.327 . S
C759 C747 1.349 . S
C759 H753 0.950 . S
C759 C760 1.327 . S
C760 H754 0.950 . S
C760 C759 1.327 . S
C760 C764 1.429 . S
C761 C744 1.574 . S
C761 H755 0.949 . S
C761 C765 1.368 . S
C762 C743 1.429 . S
C762 C756 1.429 . S
C762 C763 1.523 . S
C763 C744 1.368 . S
C763 C757 1.368 . S
C763 C762 1.523 . S
C764 C748 1.429 . S
C764 C760 1.429 . S
C764 C765 1.523 . S
C765 C749 1.368 . S
C765 C761 1.368 . S
C765 C764 1.523 . S
H766 C741 0.950 . S
H767 C743 0.950 . S
H768 C744 0.949 . S
H769 C746 0.950 . S
H770 C748 0.950 . S
C771 C772 1.349 . S
C771 C773 1.327 . S
C771 H796 0.950 . S
C772 C771 1.349 . S
C772 C788 1.349 . S
C773 C771 1.327 . S
C773 C792 1.429 . S
C773 H797 0.950 . S
C774 C791 1.574 . S
C774 C793 1.368 . S
C774 H798 0.949 . S
H775 C779 0.949 . S
C776 C777 1.349 . S
C776 C778 1.327 . S
C776 H799 0.950 . S
C777 C776 1.349 . S
C777 C789 1.349 . S
C778 C776 1.327 . S
C778 C794 1.429 . S
C778 H800 0.950 . S
C779 H775 0.949 . S
C779 C787 1.574 . S
C779 C795 1.368 . S
H780 C788 0.950 . S
H781 C786 0.950 . S
H782 C787 0.949 . S
H783 C789 0.950 . S
H784 C790 0.950 . S
H785 C791 0.949 . S
C786 H781 0.950 . S
C786 C788 1.327 . S
C786 C792 1.429 . S
C787 C779 1.574 . S
C787 H782 0.949 . S
C787 C793 1.368 . S
C788 C772 1.349 . S
C788 H780 0.950 . S
C788 C786 1.327 . S
C789 C777 1.349 . S
C789 H783 0.950 . S
C789 C790 1.327 . S
C790 H784 0.950 . S
C790 C789 1.327 . S
C790 C794 1.429 . S
C791 C774 1.574 . S
C791 H785 0.949 . S
C791 C795 1.368 . S
C792 C773 1.429 . S
C792 C786 1.429 . S
C792 C793 1.523 . S
C793 C774 1.368 . S
C793 C787 1.368 . S
C793 C792 1.523 . S
C794 C778 1.429 . S
C794 C790 1.429 . S
C794 C795 1.523 . S
C795 C779 1.368 . S
C795 C791 1.368 . S
C795 C794 1.523 . S
H796 C771 0.950 . S
H797 C773 0.950 . S
H798 C774 0.949 . S
H799 C776 0.950 . S
H800 C778 0.950 . S
C801 C802 1.349 . S
C801 C803 1.327 . S
C801 H826 0.950 . S
C802 C801 1.349 . S
C802 C818 1.349 . S
C803 C801 1.327 . S
C803 C822 1.429 . S
C803 H827 0.950 . S
C804 C821 1.574 . S
C804 C823 1.368 . S
C804 H828 0.949 . S
H805 C809 0.949 . S
C806 C807 1.349 . S
C806 C808 1.327 . S
C806 H829 0.950 . S
C807 C806 1.349 . S
C807 C819 1.349 . S
C808 C806 1.327 . S
C808 C824 1.429 . S
C808 H830 0.950 . S
C809 H805 0.949 . S
C809 C817 1.574 . S
C809 C825 1.368 . S
H810 C818 0.950 . S
H811 C816 0.950 . S
H812 C817 0.949 . S
H813 C819 0.950 . S
H814 C820 0.950 . S
H815 C821 0.949 . S
C816 H811 0.950 . S
C816 C818 1.327 . S
C816 C822 1.429 . S
C817 C809 1.574 . S
C817 H812 0.949 . S
C817 C823 1.368 . S
C818 C802 1.349 . S
C818 H810 0.950 . S
C818 C816 1.327 . S
C819 C807 1.349 . S
C819 H813 0.950 . S
C819 C820 1.327 . S
C820 H814 0.950 . S
C820 C819 1.327 . S
C820 C824 1.429 . S
C821 C804 1.574 . S
C821 H815 0.949 . S
C821 C825 1.368 . S
C822 C803 1.429 . S
C822 C816 1.429 . S
C822 C823 1.523 . S
C823 C804 1.368 . S
C823 C817 1.368 . S
C823 C822 1.523 . S
C824 C808 1.429 . S
C824 C820 1.429 . S
C824 C825 1.523 . S
C825 C809 1.368 . S
C825 C821 1.368 . S
C825 C824 1.523 . S
H826 C801 0.950 . S
H827 C803 0.950 . S
H828 C804 0.949 . S
H829 C806 0.950 . S
H830 C808 0.950 . S
C831 C832 1.349 . S
C831 C833 1.327 . S
C831 H856 0.950 . S
C832 C831 1.349 . S
C832 C848 1.349 . S
C833 C831 1.327 . S
C833 C852 1.429 . S
C833 H857 0.950 . S
C834 C851 1.574 . S
C834 C853 1.368 . S
C834 H858 0.949 . S
H835 C839 0.949 . S
C836 C837 1.349 . S
C836 C838 1.327 . S
C836 H859 0.950 . S
C837 C836 1.349 . S
C837 C849 1.349 . S
C838 C836 1.327 . S
C838 C854 1.429 . S
C838 H860 0.950 . S
C839 H835 0.949 . S
C839 C847 1.574 . S
C839 C855 1.368 . S
H840 C848 0.950 . S
H841 C846 0.950 . S
H842 C847 0.949 . S
H843 C849 0.950 . S
H844 C850 0.950 . S
H845 C851 0.949 . S
C846 H841 0.950 . S
C846 C848 1.327 . S
C846 C852 1.429 . S
C847 C839 1.574 . S
C847 H842 0.949 . S
C847 C853 1.368 . S
C848 C832 1.349 . S
C848 H840 0.950 . S
C848 C846 1.327 . S
C849 C837 1.349 . S
C849 H843 0.950 . S
C849 C850 1.327 . S
C850 H844 0.950 . S
C850 C849 1.327 . S
C850 C854 1.429 . S
C851 C834 1.574 . S
C851 H845 0.949 . S
C851 C855 1.368 . S
C852 C833 1.429 . S
C852 C846 1.429 . S
C852 C853 1.523 . S
C853 C834 1.368 . S
C853 C847 1.368 . S
C853 C852 1.523 . S
C854 C838 1.429 . S
C854 C850 1.429 . S
C854 C855 1.523 . S
C855 C839 1.368 . S
C855 C851 1.368 . S
C855 C854 1.523 . S
H856 C831 0.950 . S
H857 C833 0.950 . S
H858 C834 0.949 . S
H859 C836 0.950 . S
H860 C838 0.950 . S
C861 C862 1.349 . S
C861 C863 1.327 . S
C861 H886 0.950 . S
C862 C861 1.349 . S
C862 C878 1.349 . S
C863 C861 1.327 . S
C863 C882 1.429 . S
C863 H887 0.950 . S
C864 C881 1.574 . S
C864 C883 1.368 . S
C864 H888 0.949 . S
H865 C869 0.949 . S
C866 C867 1.349 . S
C866 C868 1.327 . S
C866 H889 0.950 . S
C867 C866 1.349 . S
C867 C879 1.349 . S
C868 C866 1.327 . S
C868 C884 1.429 . S
C868 H890 0.950 . S
C869 H865 0.949 . S
C869 C877 1.574 . S
C869 C885 1.368 . S
H870 C878 0.950 . S
H871 C876 0.950 . S
H872 C877 0.949 . S
H873 C879 0.950 . S
H874 C880 0.950 . S
H875 C881 0.949 . S
C876 H871 0.950 . S
C876 C878 1.327 . S
C876 C882 1.429 . S
C877 C869 1.574 . S
C877 H872 0.949 . S
C877 C883 1.368 . S
C878 C862 1.349 . S
C878 H870 0.950 . S
C878 C876 1.327 . S
C879 C867 1.349 . S
C879 H873 0.950 . S
C879 C880 1.327 . S
C880 H874 0.950 . S
C880 C879 1.327 . S
C880 C884 1.429 . S
C881 C864 1.574 . S
C881 H875 0.949 . S
C881 C885 1.368 . S
C882 C863 1.429 . S
C882 C876 1.429 . S
C882 C883 1.523 . S
C883 C864 1.368 . S
C883 C877 1.368 . S
C883 C882 1.523 . S
C884 C868 1.429 . S
C884 C880 1.429 . S
C884 C885 1.523 . S
C885 C869 1.368 . S
C885 C881 1.368 . S
C885 C884 1.523 . S
H886 C861 0.950 . S
H887 C863 0.950 . S
H888 C864 0.949 . S
H889 C866 0.950 . S
H890 C868 0.950 . S
C172 C5 1.727 . S
C177 C89 1.638 . S
C202 C16 1.505 . S
C207 C136 1.492 . S
C237 C140 1.797 . S
C232 C36 1.858 . S
C267 C105 1.443 . S
C262 C42 1.461 . S
C292 C55 1.631 . S
C297 C120 1.586 . S
C327 C142 0.841 . S
C322 C66 0.847 . S
C357 C111 1.187 . S
C352 C31 1.230 . S
C382 C40 1.316 . S
C387 C151 1.286 . S
C417 C80 1.218 . S
C412 C53 1.244 1_556 S
C442 C68 1.361 . S
C447 C109 1.342 . S
C472 C10 1.965 . S
C477 C167 1.904 . S
C507 C78 1.472 . S
C502 C14 1.495 . S
C537 C96 1.724 . S
C532 C49 1.776 . S
C567 C110 1.571 . S
C562 C62 1.592 1_556 S
C597 C164 1.725 . S
C592 C70 1.756 . S
C627 C79 1.514 . S
C622 C1 1.560 . S
C657 C127 1.662 . S
C652 C23 1.719 . S
C682 C29 0.764 . S
C687 C150 0.762 . S
C717 C119 1.270 . S
C712 C75 1.298 . S
C747 C158 1.203 . S
C742 C3 1.260 . S
C777 C88 1.143 . S
C772 C18 1.160 . S
C807 C133 1.413 . S
C802 C27 1.458 . S
C832 C44 1.860 . S
C837 C141 1.832 . S
C862 C57 1.409 . S
C867 C102 1.395 . S
