# Generated by pormake.
# Topology iac, (4,6)-cn, num edge types: 1
# Building blocks:
#     Node 0, Type 0, BuildingBlock: QUQFOY_clean_sbu_1, # of connection points: 4
#     Node 1, Type 0, BuildingBlock: QUQFOY_clean_sbu_1, # of connection points: 4
#     Node 2, Type 0, BuildingBlock: QUQFOY_clean_sbu_1, # of connection points: 4
#     Node 3, Type 0, BuildingBlock: QUQFOY_clean_sbu_1, # of connection points: 4
#     Node 4, Type 0, BuildingBlock: QUQFOY_clean_sbu_1, # of connection points: 4
#     Node 5, Type 0, BuildingBlock: QUQFOY_clean_sbu_1, # of connection points: 4
#     Node 6, Type 0, BuildingBlock: QUQFOY_clean_sbu_1, # of connection points: 4
#     Node 7, Type 0, BuildingBlock: QUQFOY_clean_sbu_1, # of connection points: 4
#     Node 8, Type 0, BuildingBlock: QUQFOY_clean_sbu_1, # of connection points: 4
#     Node 9, Type 0, BuildingBlock: QUQFOY_clean_sbu_1, # of connection points: 4
#     Node 10, Type 0, BuildingBlock: QUQFOY_clean_sbu_1, # of connection points: 4
#     Node 11, Type 0, BuildingBlock: QUQFOY_clean_sbu_1, # of connection points: 4
#     Node 12, Type 0, BuildingBlock: QUQFOY_clean_sbu_1, # of connection points: 4
#     Node 13, Type 0, BuildingBlock: QUQFOY_clean_sbu_1, # of connection points: 4
#     Node 14, Type 0, BuildingBlock: QUQFOY_clean_sbu_1, # of connection points: 4
#     Node 15, Type 0, BuildingBlock: QUQFOY_clean_sbu_1, # of connection points: 4
#     Node 16, Type 0, BuildingBlock: QUQFOY_clean_sbu_1, # of connection points: 4
#     Node 17, Type 0, BuildingBlock: QUQFOY_clean_sbu_1, # of connection points: 4
#     Node 18, Type 0, BuildingBlock: QUQFOY_clean_sbu_1, # of connection points: 4
#     Node 19, Type 0, BuildingBlock: QUQFOY_clean_sbu_1, # of connection points: 4
#     Node 20, Type 0, BuildingBlock: QUQFOY_clean_sbu_1, # of connection points: 4
#     Node 21, Type 0, BuildingBlock: QUQFOY_clean_sbu_1, # of connection points: 4
#     Node 22, Type 0, BuildingBlock: QUQFOY_clean_sbu_1, # of connection points: 4
#     Node 23, Type 0, BuildingBlock: QUQFOY_clean_sbu_1, # of connection points: 4
#     Node 24, Type 1, BuildingBlock: CIFDUS_clean_sbu_1, # of connection points: 6
#     Node 25, Type 1, BuildingBlock: CIFDUS_clean_sbu_1, # of connection points: 6
#     Node 26, Type 1, BuildingBlock: CIFDUS_clean_sbu_1, # of connection points: 6
#     Node 27, Type 1, BuildingBlock: CIFDUS_clean_sbu_1, # of connection points: 6
#     Node 28, Type 1, BuildingBlock: CIFDUS_clean_sbu_1, # of connection points: 6
#     Node 29, Type 1, BuildingBlock: CIFDUS_clean_sbu_1, # of connection points: 6
#     Node 30, Type 1, BuildingBlock: CIFDUS_clean_sbu_1, # of connection points: 6
#     Node 31, Type 1, BuildingBlock: CIFDUS_clean_sbu_1, # of connection points: 6
#     Node 32, Type 1, BuildingBlock: CIFDUS_clean_sbu_1, # of connection points: 6
#     Node 33, Type 1, BuildingBlock: CIFDUS_clean_sbu_1, # of connection points: 6
#     Node 34, Type 1, BuildingBlock: CIFDUS_clean_sbu_1, # of connection points: 6
#     Node 35, Type 1, BuildingBlock: CIFDUS_clean_sbu_1, # of connection points: 6
#     Node 36, Type 1, BuildingBlock: CIFDUS_clean_sbu_1, # of connection points: 6
#     Node 37, Type 1, BuildingBlock: CIFDUS_clean_sbu_1, # of connection points: 6
#     Node 38, Type 1, BuildingBlock: CIFDUS_clean_sbu_1, # of connection points: 6
#     Node 39, Type 1, BuildingBlock: CIFDUS_clean_sbu_1, # of connection points: 6
#     Edge 40, Type (0, 1), None
#     Edge 41, Type (0, 1), None
#     Edge 42, Type (0, 1), None
#     Edge 43, Type (0, 1), None
#     Edge 44, Type (0, 1), None
#     Edge 45, Type (0, 1), None
#     Edge 46, Type (0, 1), None
#     Edge 47, Type (0, 1), None
#     Edge 48, Type (0, 1), None
#     Edge 49, Type (0, 1), None
#     Edge 50, Type (0, 1), None
#     Edge 51, Type (0, 1), None
#     Edge 52, Type (0, 1), None
#     Edge 53, Type (0, 1), None
#     Edge 54, Type (0, 1), None
#     Edge 55, Type (0, 1), None
#     Edge 56, Type (0, 1), None
#     Edge 57, Type (0, 1), None
#     Edge 58, Type (0, 1), None
#     Edge 59, Type (0, 1), None
#     Edge 60, Type (0, 1), None
#     Edge 61, Type (0, 1), None
#     Edge 62, Type (0, 1), None
#     Edge 63, Type (0, 1), None
#     Edge 64, Type (0, 1), None
#     Edge 65, Type (0, 1), None
#     Edge 66, Type (0, 1), None
#     Edge 67, Type (0, 1), None
#     Edge 68, Type (0, 1), None
#     Edge 69, Type (0, 1), None
#     Edge 70, Type (0, 1), None
#     Edge 71, Type (0, 1), None
#     Edge 72, Type (0, 1), None
#     Edge 73, Type (0, 1), None
#     Edge 74, Type (0, 1), None
#     Edge 75, Type (0, 1), None
#     Edge 76, Type (0, 1), None
#     Edge 77, Type (0, 1), None
#     Edge 78, Type (0, 1), None
#     Edge 79, Type (0, 1), None
#     Edge 80, Type (0, 1), None
#     Edge 81, Type (0, 1), None
#     Edge 82, Type (0, 1), None
#     Edge 83, Type (0, 1), None
#     Edge 84, Type (0, 1), None
#     Edge 85, Type (0, 1), None
#     Edge 86, Type (0, 1), None
#     Edge 87, Type (0, 1), None
#     Edge 88, Type (0, 1), None
#     Edge 89, Type (0, 1), None
#     Edge 90, Type (0, 1), None
#     Edge 91, Type (0, 1), None
#     Edge 92, Type (0, 1), None
#     Edge 93, Type (0, 1), None
#     Edge 94, Type (0, 1), None
#     Edge 95, Type (0, 1), None
#     Edge 96, Type (0, 1), None
#     Edge 97, Type (0, 1), None
#     Edge 98, Type (0, 1), None
#     Edge 99, Type (0, 1), None
#     Edge 100, Type (0, 1), None
#     Edge 101, Type (0, 1), None
#     Edge 102, Type (0, 1), None
#     Edge 103, Type (0, 1), None
#     Edge 104, Type (0, 1), None
#     Edge 105, Type (0, 1), None
#     Edge 106, Type (0, 1), None
#     Edge 107, Type (0, 1), None
#     Edge 108, Type (0, 1), None
#     Edge 109, Type (0, 1), None
#     Edge 110, Type (0, 1), None
#     Edge 111, Type (0, 1), None
#     Edge 112, Type (0, 1), None
#     Edge 113, Type (0, 1), None
#     Edge 114, Type (0, 1), None
#     Edge 115, Type (0, 1), None
#     Edge 116, Type (0, 1), None
#     Edge 117, Type (0, 1), None
#     Edge 118, Type (0, 1), None
#     Edge 119, Type (0, 1), None
#     Edge 120, Type (0, 1), None
#     Edge 121, Type (0, 1), None
#     Edge 122, Type (0, 1), None
#     Edge 123, Type (0, 1), None
#     Edge 124, Type (0, 1), None
#     Edge 125, Type (0, 1), None
#     Edge 126, Type (0, 1), None
#     Edge 127, Type (0, 1), None
#     Edge 128, Type (0, 1), None
#     Edge 129, Type (0, 1), None
#     Edge 130, Type (0, 1), None
#     Edge 131, Type (0, 1), None
#     Edge 132, Type (0, 1), None
#     Edge 133, Type (0, 1), None
#     Edge 134, Type (0, 1), None
#     Edge 135, Type (0, 1), None
# Relax obj value: 0.133
# Max RMSD: 0.186
# Mean RMSD: 0.148
data_MOF--net-iac--node1-QUQFOY_clean_sbu_1--node2-CIFDUS_clean_sbu_1--edge1-none
_symmetry_space_group_name_H-M    P1
_symmetry_Int_Tables_number       1
_symmetry_cell_setting            triclinic
loop_
_symmetry_equiv_pos_as_xyz
'x, y, z'
_cell_length_a     25.896541
_cell_length_b     25.976803
_cell_length_c     25.919124
_cell_angle_alpha  90.193614
_cell_angle_beta   88.157419
_cell_angle_gamma 92.38514
loop_
_atom_site_label
_atom_site_type_symbol
_atom_site_fract_x
_atom_site_fract_y
_atom_site_fract_z
_atom_type_partial_charge
O0 O 0.00713 0.15092 0.11436 0.0
Cd1 Cd 0.00836 0.20892 0.17181 0.0
Cd2 Cd 0.02685 0.27753 0.09534 0.0
O3 O 0.99774 0.21144 0.05716 0.0
O4 O 0.96495 0.18019 0.22815 0.0
O5 O 0.94027 0.24737 0.18474 0.0
C6 C 0.9303 0.2132 0.22009 0.0
C7 C 0.03827 0.3497 0.04188 0.0
C8 C 0.99761 0.16372 0.06846 0.0
C9 C 0.10731 0.26208 0.18235 0.0
O10 O 0.09248 0.28049 0.14016 0.0
O11 O 0.07807 0.22955 0.20657 0.0
O12 O 0.06257 0.30813 0.03485 0.0
O13 O 0.00291 0.35024 0.078 0.0
O14 O 0.09177 0.75235 0.38088 0.0
Cd15 Cd 0.0234 0.74225 0.42114 0.0
Cd16 Cd 0.99774 0.80163 0.33358 0.0
O17 O 0.06372 0.76537 0.30313 0.0
O18 O 0.05037 0.69985 0.47762 0.0
O19 O 0.99497 0.67018 0.41997 0.0
C20 C 0.02519 0.66154 0.45738 0.0
C21 C 0.92212 0.79566 0.28835 0.0
C22 C 0.0986 0.75061 0.33238 0.0
C23 C 0.98358 0.84681 0.43862 0.0
O24 O 0.99733 0.85706 0.39201 0.0
O25 O 0.98511 0.80113 0.45568 0.0
O26 O 0.95927 0.82781 0.27454 0.0
O27 O 0.92834 0.76589 0.32729 0.0
O28 O 0.49981 0.6566 0.61963 0.0
Cd29 Cd 0.50347 0.7172 0.67418 0.0
Cd30 Cd 0.51653 0.78305 0.59528 0.0
O31 O 0.48702 0.71512 0.56134 0.0
O32 O 0.46402 0.69121 0.73426 0.0
O33 O 0.43637 0.75588 0.6889 0.0
C34 C 0.42878 0.72362 0.72641 0.0
C35 C 0.5237 0.85066 0.53623 0.0
C36 C 0.48811 0.66787 0.57393 0.0
C37 C 0.60145 0.77336 0.67871 0.0
O38 O 0.58477 0.7907 0.63679 0.0
O39 O 0.57401 0.74039 0.70419 0.0
O40 O 0.54828 0.80907 0.53103 0.0
O41 O 0.49047 0.85362 0.57411 0.0
O42 O 0.59586 0.26024 0.87849 0.0
Cd43 Cd 0.52976 0.24443 0.92104 0.0
Cd44 Cd 0.49853 0.30692 0.83504 0.0
O45 O 0.56336 0.27091 0.80216 0.0
O46 O 0.56014 0.20005 0.9745 0.0
O47 O 0.50295 0.17149 0.91826 0.0
C48 C 0.53451 0.16203 0.95428 0.0
C49 C 0.42222 0.3049 0.79046 0.0
C50 C 0.60053 0.25862 0.82977 0.0
C51 C 0.48979 0.34766 0.94312 0.0
O52 O 0.5008 0.35916 0.89617 0.0
O53 O 0.492 0.30157 0.95892 0.0
O54 O 0.45989 0.33688 0.7777 0.0
O55 O 0.42824 0.27332 0.82799 0.0
O56 O 0.11432 0.97231 0.18291 0.0
Cd57 Cd 0.1618 0.97795 0.24737 0.0
Cd58 Cd 0.08744 0.05252 0.25792 0.0
O59 O 0.05496 0.02996 0.18866 0.0
O60 O 0.22336 0.95445 0.21042 0.0
O61 O 0.1845 0.90651 0.27114 0.0
C62 C 0.22025 0.91202 0.23563 0.0
C63 C 0.03482 0.05336 0.33282 0.0
C64 C 0.0751 0.99302 0.16456 0.0
C65 C 0.19236 0.09326 0.2731 0.0
O66 O 0.14911 0.10806 0.25839 0.0
O67 O 0.19942 0.04509 0.27657 0.0
O68 O 0.03142 0.08539 0.29537 0.0
O69 O 0.06744 0.01732 0.32751 0.0
O70 O 0.23444 0.88136 0.58871 0.0
Cd71 Cd 0.23064 0.92176 0.52121 0.0
Cd72 Cd 0.29855 0.84076 0.49992 0.0
O73 O 0.27709 0.81115 0.5733 0.0
O74 O 0.18341 0.97572 0.54694 0.0
O75 O 0.16259 0.91709 0.48807 0.0
C76 C 0.14936 0.95463 0.51774 0.0
C77 C 0.28521 0.79333 0.42517 0.0
C78 C 0.25047 0.83858 0.60384 0.0
C79 C 0.33843 0.95051 0.48568 0.0
O80 O 0.34995 0.90397 0.49318 0.0
O81 O 0.29208 0.96409 0.49052 0.0
O82 O 0.32268 0.7837 0.45482 0.0
O83 O 0.25419 0.82908 0.43864 0.0
O84 O 0.38464 0.02802 0.67269 0.0
Cd85 Cd 0.34743 0.03694 0.74235 0.0
Cd86 Cd 0.4321 0.97539 0.7616 0.0
O87 O 0.46245 0.00383 0.69079 0.0
O88 O 0.29064 0.07933 0.71708 0.0
O89 O 0.35141 0.10882 0.76905 0.0
C90 C 0.31253 0.11744 0.74082 0.0
C91 C 0.47792 0.9813 0.83667 0.0
C92 C 0.43131 0.02133 0.65903 0.0
C93 C 0.32567 0.93055 0.77914 0.0
O94 O 0.37159 0.92111 0.76423 0.0
O95 O 0.31054 0.97643 0.78032 0.0
O96 O 0.48939 0.94825 0.80132 0.0
O97 O 0.44161 0.0127 0.82855 0.0
O98 O 0.28227 0.14174 0.09401 0.0
Cd99 Cd 0.28456 0.09356 0.02802 0.0
Cd100 Cd 0.23694 0.17033 0.98109 0.0
O101 O 0.26786 0.20781 0.04536 0.0
O102 O 0.30961 0.03379 0.06172 0.0
O103 O 0.35682 0.07413 1.00078 0.0
C104 C 0.35173 0.03774 0.03445 0.0
C105 C 0.22718 0.22959 0.91508 0.0
C106 C 0.28022 0.19012 0.08869 0.0
C107 C 0.17606 0.07013 0.98966 0.0
O108 O 0.17122 0.11838 0.98562 0.0
O109 O 0.21958 0.0537 1.00141 0.0
O110 O 0.20152 0.23001 0.95819 0.0
O111 O 0.26094 0.19495 0.90814 0.0
O112 O 0.7334 0.37179 0.08332 0.0
Cd113 Cd 0.73561 0.42026 0.02096 0.0
Cd114 Cd 0.80606 0.33768 0.99789 0.0
O115 O 0.78228 0.30559 0.06938 0.0
O116 O 0.69144 0.4738 0.05329 0.0
O117 O 0.66858 0.42645 0.98617 0.0
C118 C 0.65679 0.4598 0.02115 0.0
C119 C 0.79031 0.29389 0.92149 0.0
C120 C 0.75053 0.32939 0.09806 0.0
C121 C 0.84752 0.44737 0.99183 0.0
O122 O 0.85852 0.40016 0.99495 0.0
O123 O 0.80126 0.46132 0.99761 0.0
O124 O 0.82793 0.28188 0.95 0.0
O125 O 0.76096 0.33042 0.93668 0.0
O126 O 0.89165 0.53072 0.17777 0.0
Cd127 Cd 0.84518 0.53093 0.24246 0.0
Cd128 Cd 0.93055 0.46699 0.26448 0.0
O129 O 0.96479 0.49536 0.19501 0.0
O130 O 0.79 0.57036 0.21056 0.0
O131 O 0.83907 0.60082 0.27303 0.0
C132 C 0.80509 0.60849 0.23881 0.0
C133 C 0.97255 0.47557 0.34201 0.0
C134 C 0.9375 0.5202 0.16466 0.0
C135 C 0.82305 0.42097 0.27301 0.0
O136 O 0.87043 0.41208 0.26389 0.0
O137 O 0.80706 0.46648 0.27176 0.0
O138 O 0.98592 0.44172 0.30815 0.0
O139 O 0.936 0.50585 0.33136 0.0
O140 O 0.77783 0.64675 0.59288 0.0
Cd141 Cd 0.78046 0.5962 0.52907 0.0
Cd142 Cd 0.73174 0.67087 0.48056 0.0
O143 O 0.76226 0.71111 0.54242 0.0
O144 O 0.80494 0.53785 0.56596 0.0
O145 O 0.85277 0.57403 0.50315 0.0
C146 C 0.84706 0.53945 0.53863 0.0
C147 C 0.72383 0.72714 0.41208 0.0
C148 C 0.77467 0.69479 0.58617 0.0
C149 C 0.67004 0.57251 0.49504 0.0
O150 O 0.66538 0.62053 0.48886 0.0
O151 O 0.71401 0.55623 0.50566 0.0
O152 O 0.69749 0.72982 0.45464 0.0
O153 O 0.75678 0.69149 0.40702 0.0
O154 O 0.61102 0.47611 0.6879 0.0
Cd155 Cd 0.66442 0.48415 0.74662 0.0
Cd156 Cd 0.5881 0.55856 0.76264 0.0
O157 O 0.55285 0.53499 0.69525 0.0
O158 O 0.72202 0.45828 0.70501 0.0
O159 O 0.6906 0.41396 0.7718 0.0
C160 C 0.72271 0.41771 0.73287 0.0
C161 C 0.53796 0.55791 0.83955 0.0
C162 C 0.57098 0.49679 0.67145 0.0
C163 C 0.69531 0.60159 0.7638 0.0
O164 O 0.64909 0.61467 0.75837 0.0
O165 O 0.70472 0.55376 0.76532 0.0
O166 O 0.53341 0.59088 0.80311 0.0
O167 O 0.57113 0.52261 0.83257 0.0
O168 O 0.11051 0.75032 0.85565 0.0
Cd169 Cd 0.04994 0.73475 0.91042 0.0
Cd170 Cd 0.99309 0.79538 0.84413 0.0
O171 O 0.05655 0.77799 0.79865 0.0
O172 O 0.05397 0.6742 0.96045 0.0
O173 O 0.99088 0.68316 0.90653 0.0
C174 C 0.00897 0.65888 0.94479 0.0
C175 C 0.91268 0.76159 0.81593 0.0
C176 C 0.10245 0.77014 0.81179 0.0
C177 C 0.02617 0.84533 0.94399 0.0
O178 O 0.00711 0.85471 0.90021 0.0
O179 O 0.03863 0.79971 0.95478 0.0
O180 O 0.93258 0.80377 0.79609 0.0
O181 O 0.93687 0.74111 0.8528 0.0
O182 O 1.00101 0.15153 0.61372 0.0
Cd183 Cd 0.99461 0.20214 0.67467 0.0
Cd184 Cd 0.0531 0.26725 0.5963 0.0
O185 O 0.04659 0.20105 0.55722 0.0
O186 O 0.92946 0.19573 0.7202 0.0
O187 O 0.95174 0.26154 0.66903 0.0
C188 C 0.9198 0.24061 0.70232 0.0
C189 C 0.01671 0.34034 0.56456 0.0
C190 C 0.02537 0.15812 0.57057 0.0
C191 C 0.09971 0.2428 0.69892 0.0
O192 O 0.10331 0.26652 0.65591 0.0
O193 O 0.05944 0.21682 0.71365 0.0
O194 O 0.06259 0.32895 0.54846 0.0
O195 O 0.99306 0.31071 0.59787 0.0
O196 O 0.52269 0.1589 0.40932 0.0
Cd197 Cd 0.53303 0.20348 0.34189 0.0
Cd198 Cd 0.47971 0.2853 0.39904 0.0
O199 O 0.472 0.21829 0.44249 0.0
O200 O 0.60096 0.20643 0.29713 0.0
O201 O 0.57113 0.2712 0.34245 0.0
C202 C 0.60575 0.25431 0.31072 0.0
C203 C 0.51455 0.35983 0.44339 0.0
C204 C 0.48963 0.17312 0.44354 0.0
C205 C 0.42711 0.23814 0.30616 0.0
O206 O 0.4312 0.2784 0.33493 0.0
O207 O 0.46226 0.20497 0.30511 0.0
O208 O 0.466 0.34687 0.44879 0.0
O209 O 0.54132 0.33336 0.41105 0.0
O210 O 0.50441 0.65003 0.1214 0.0
Cd211 Cd 0.49289 0.70712 0.17376 0.0
Cd212 Cd 0.54988 0.76701 0.09623 0.0
O213 O 0.5344 0.70244 0.05867 0.0
O214 O 0.43112 0.69961 0.22246 0.0
O215 O 0.44331 0.75899 0.16111 0.0
C216 C 0.41576 0.73991 0.1992 0.0
C217 C 0.51953 0.84275 0.06618 0.0
C218 C 0.52275 0.65786 0.07592 0.0
C219 C 0.59993 0.74125 0.19349 0.0
O220 O 0.60664 0.75926 0.14808 0.0
O221 O 0.55597 0.7263 0.21169 0.0
O222 O 0.56057 0.82476 0.04436 0.0
O223 O 0.49823 0.81863 0.10516 0.0
O224 O 0.89195 0.01582 0.65209 0.0
Cd225 Cd 0.8417 0.02872 0.71621 0.0
Cd226 Cd 0.91862 0.97753 0.76572 0.0
O227 O 0.95859 0.00539 0.70083 0.0
O228 O 0.78701 0.08213 0.70826 0.0
O229 O 0.84501 0.08569 0.76871 0.0
C230 C 0.80396 0.10369 0.74977 0.0
C231 C 0.94584 0.00991 0.84658 0.0
C232 C 0.93944 0.00578 0.65624 0.0
C233 C 0.81978 0.91669 0.73947 0.0
O234 O 0.86759 0.91299 0.74925 0.0
O235 O 0.80122 0.96122 0.73739 0.0
O236 O 0.9679 0.97094 0.82553 0.0
O237 O 0.90736 0.02821 0.82313 0.0
O238 O 0.75654 0.15639 0.60398 0.0
Cd239 Cd 0.76318 0.10106 0.54801 0.0
Cd240 Cd 0.70986 0.17589 0.49195 0.0
O241 O 0.72704 0.21812 0.555 0.0
O242 O 0.82072 0.05138 0.55456 0.0
O243 O 0.81617 0.10965 0.49281 0.0
C244 C 0.8398 0.07236 0.51263 0.0
C245 C 0.74458 0.19846 0.41138 0.0
C246 C 0.74079 0.20172 0.59826 0.0
C247 C 0.65459 0.0774 0.5229 0.0
O248 O 0.65049 0.12201 0.50365 0.0
O249 O 0.69738 0.06123 0.53677 0.0
O250 O 0.70514 0.22214 0.42982 0.0
O251 O 0.76267 0.16219 0.4381 0.0
O252 O 0.61544 0.00892 0.15212 0.0
Cd253 Cd 0.66678 -0.00029 0.20893 0.0
Cd254 Cd 0.59171 0.05757 0.26274 0.0
O255 O 0.55134 0.03623 0.20272 0.0
O256 O 0.71651 0.94276 0.19855 0.0
O257 O 0.65566 0.94659 0.26083 0.0
C258 C 0.69407 0.9235 0.23976 0.0
C259 C 0.566 0.02621 0.34162 0.0
C260 C 0.5696 0.02385 0.1589 0.0
C261 C 0.69159 0.10746 0.23143 0.0
O262 O 0.64549 0.11521 0.24683 0.0
O263 O 0.70785 0.06281 0.22408 0.0
O264 O 0.54337 0.06554 0.32377 0.0
O265 O 0.60403 0.00745 0.31553 0.0
O266 O 0.73995 0.8611 0.11324 0.0
Cd267 Cd 0.73314 0.92385 0.0643 0.0
Cd268 Cd 0.77303 0.86161 0.98668 0.0
O269 O 0.75961 0.81173 0.04672 0.0
O270 O 0.67021 0.96877 0.0607 0.0
O271 O 0.69623 0.91686 0.99849 0.0
C272 C 0.66554 0.95177 0.01403 0.0
C273 C 0.75333 0.81891 0.90831 0.0
C274 C 0.75458 0.81836 0.09506 0.0
C275 C 0.8432 0.94921 0.02736 0.0
O276 O 0.83897 0.9111 0.99619 0.0
O277 O 0.80423 0.96283 0.05471 0.0
O278 O 0.79331 0.80937 0.93425 0.0
O279 O 0.72553 0.85612 0.92379 0.0
O280 O 0.24592 0.64358 0.11012 0.0
Cd281 Cd 0.26459 0.59642 0.04863 0.0
Cd282 Cd 0.21367 0.68106 0.99766 0.0
O283 O 0.24643 0.71164 0.05883 0.0
O284 O 0.31863 0.54327 0.05279 0.0
O285 O 0.3251 0.61557 0.00626 0.0
C286 C 0.34407 0.57248 0.01964 0.0
C287 C 0.24524 0.70459 0.91769 0.0
C288 C 0.24191 0.69174 0.10329 0.0
C289 C 0.16112 0.58433 0.01779 0.0
O290 O 0.15189 0.63182 0.01548 0.0
O291 O 0.20607 0.56895 0.00875 0.0
O292 O 0.2108 0.73235 0.94025 0.0
O293 O 0.25964 0.66347 0.94029 0.0
O294 O 0.1077 0.5064 0.65945 0.0
Cd295 Cd 0.16691 0.50613 0.70967 0.0
Cd296 Cd 0.09035 0.56561 0.76791 0.0
O297 O 0.04852 0.54768 0.70598 0.0
O298 O 0.21568 0.44729 0.69991 0.0
O299 O 0.16428 0.45885 0.76833 0.0
C300 C 0.1985 0.43227 0.74496 0.0
C301 C 0.06727 0.52782 0.84607 0.0
C302 C 0.06352 0.52578 0.66476 0.0
C303 C 0.19126 0.61683 0.73278 0.0
O304 O 0.14777 0.6218 0.75628 0.0
O305 O 0.20565 0.5739 0.71543 0.0
O306 O 0.04542 0.56944 0.83288 0.0
O307 O 0.10224 0.50986 0.81578 0.0
O308 O 0.23397 0.3667 0.62017 0.0
Cd309 Cd 0.22669 0.42583 0.5679 0.0
Cd310 Cd 0.27147 0.3561 0.49429 0.0
O311 O 0.23966 0.31287 0.55543 0.0
O312 O 0.16413 0.46981 0.56426 0.0
O313 O 0.19035 0.41739 0.50183 0.0
C314 C 0.15969 0.45263 0.51759 0.0
C315 C 0.26566 0.30684 0.41628 0.0
C316 C 0.24342 0.3221 0.60332 0.0
C317 C 0.33774 0.44921 0.53533 0.0
O318 O 0.33619 0.40751 0.50871 0.0
O319 O 0.29691 0.46513 0.55789 0.0
O320 O 0.29787 0.29794 0.45164 0.0
O321 O 0.23794 0.34664 0.42252 0.0
O322 O 0.39843 0.51422 0.1577 0.0
Cd323 Cd 0.34477 0.52606 0.21952 0.0
Cd324 Cd 0.41656 0.47392 0.27465 0.0
O325 O 0.46043 0.49537 0.21007 0.0
O326 O 0.29061 0.58069 0.21239 0.0
O327 O 0.34655 0.58047 0.27456 0.0
C328 C 0.30635 0.59984 0.2555 0.0
C329 C 0.44219 0.50931 0.35478 0.0
C330 C 0.44435 0.50006 0.16448 0.0
C331 C 0.31991 0.41336 0.24389 0.0
O332 O 0.36571 0.40903 0.25992 0.0
O333 O 0.30335 0.45799 0.23568 0.0
O334 O 0.46378 0.46891 0.33626 0.0
O335 O 0.40505 0.52736 0.32935 0.0
O336 O 0.08403 0.04516 0.99025 0.0
Mn337 Mn 0.01027 0.0064 0.005 0.0
O338 O 0.14278 0.98513 0.99461 0.0
Mn339 Mn 0.09526 0.93679 0.02112 0.0
O340 O 0.93559 0.96965 0.01929 0.0
O341 O 0.98403 0.07998 0.02062 0.0
Mn342 Mn 0.92504 0.07832 0.98686 0.0
O343 O 0.9917 0.00693 0.92601 0.0
O344 O 0.87857 0.0323 0.01831 0.0
O345 O 0.02945 0.0044 0.08482 0.0
O346 O 0.08581 0.94214 0.09127 0.0
O347 O 0.92932 0.14298 0.01218 0.0
O348 O 0.93235 0.06592 0.91672 0.0
C349 C 0.05199 0.88591 0.97618 0.0
C350 C 0.13149 0.0317 0.9887 0.0
C351 C 0.88882 0.98536 0.02334 0.0
C352 C 0.97069 0.12714 0.0329 0.0
C353 C 0.95921 0.02991 0.89851 0.0
C354 C 0.06001 0.97769 0.11157 0.0
O355 O 0.03604 0.93256 0.98743 0.0
O356 O 0.09562 0.87339 0.99487 0.0
O357 O 0.33523 0.74197 0.24581 0.0
Mn358 Mn 0.25637 0.74766 0.26263 0.0
O359 O 0.35208 0.79504 0.17946 0.0
Mn360 Mn 0.28563 0.81439 0.17613 0.0
O361 O 0.17717 0.75162 0.28136 0.0
O362 O 0.25905 0.67503 0.28838 0.0
Mn363 Mn 0.22671 0.66822 0.34862 0.0
O364 O 0.27104 0.77867 0.33592 0.0
O365 O 0.15954 0.68812 0.33931 0.0
O366 O 0.24278 0.71202 0.19211 0.0
O367 O 0.24716 0.77434 0.13376 0.0
O368 O 0.25202 0.60426 0.33185 0.0
O369 O 0.26262 0.71242 0.39217 0.0
C370 C 0.25218 0.87059 0.21621 0.0
C371 C 0.36563 0.76114 0.2104 0.0
C372 C 0.14631 0.72693 0.31329 0.0
C373 C 0.27096 0.62728 0.2909 0.0
C374 C 0.27373 0.7595 0.38151 0.0
C375 C 0.24064 0.72758 0.14578 0.0
O376 O 0.25227 0.82358 0.23596 0.0
O377 O 0.27681 0.88066 0.17269 0.0
O378 O 0.42619 0.97822 0.48544 0.0
Mn379 Mn 0.49713 0.01569 0.49757 0.0
O380 O 0.36595 0.03731 0.48948 0.0
Mn381 Mn 0.4095 0.08549 0.52034 0.0
O382 O 0.56741 0.05449 0.5098 0.0
O383 O 0.52245 0.94039 0.5057 0.0
Mn384 Mn 0.58475 0.95512 0.47784 0.0
O385 O 0.51393 0.01905 0.41872 0.0
O386 O 0.62284 0.99378 0.52189 0.0
O387 O 0.47889 0.01392 0.57777 0.0
O388 O 0.41817 0.07264 0.58889 0.0
O389 O 0.58879 0.88865 0.48388 0.0
O390 O 0.5879 0.97862 0.4116 0.0
C391 C 0.45999 0.13625 0.47793 0.0
C392 C 0.37927 0.99114 0.48305 0.0
C393 C 0.6118 0.04039 0.52218 0.0
C394 C 0.54383 0.8949 0.50621 0.0
C395 C 0.55416 0.00607 0.3929 0.0
C396 C 0.44633 0.03821 0.60635 0.0
O397 O 0.47074 0.08853 0.48802 0.0
O398 O 0.41606 0.15098 0.49691 0.0
O399 O 0.33194 0.29173 0.77871 0.0
Mn400 Mn 0.25772 0.27572 0.75072 0.0
O401 O 0.38748 0.29186 0.70962 0.0
Mn402 Mn 0.34353 0.25464 0.66695 0.0
O403 O 0.18656 0.25877 0.71865 0.0
O404 O 0.23037 0.26664 0.82728 0.0
Mn405 Mn 0.17126 0.29808 0.81984 0.0
O406 O 0.24331 0.35398 0.74568 0.0
O407 O 0.12649 0.25916 0.78163 0.0
O408 O 0.27406 0.19797 0.75201 0.0
O409 O 0.33253 0.1864 0.68661 0.0
O410 O 0.16776 0.28665 0.88638 0.0
O411 O 0.17739 0.36566 0.8011 0.0
C412 C 0.28269 0.29315 0.62929 0.0
C413 C 0.37753 0.29837 0.75766 0.0
C414 C 0.14004 0.25128 0.7353 0.0
C415 C 0.21014 0.26356 0.8748 0.0
C416 C 0.20902 0.38214 0.76633 0.0
C417 C 0.30407 0.16983 0.72466 0.0
O418 O 0.28361 0.28228 0.67764 0.0
O419 O 0.32312 0.27853 0.60357 0.0
O420 O 0.98152 0.93548 0.46236 0.0
Mn421 Mn 0.99085 0.00667 0.50022 0.0
O422 O 0.97586 0.87456 0.52383 0.0
Mn423 Mn 0.00471 0.91615 0.57373 0.0
O424 O 0.00192 0.07449 0.54257 0.0
O425 O 0.00657 0.03674 0.42411 0.0
Mn426 Mn 0.98318 0.09672 0.44702 0.0
O427 O 0.91225 0.01918 0.50017 0.0
O428 O 0.02991 0.13174 0.48575 0.0
O429 O 0.06935 0.99241 0.50345 0.0
O430 O 0.07468 0.9293 0.56263 0.0
O431 O 0.98887 0.11137 0.38204 0.0
O432 O 0.91607 0.09941 0.47124 0.0
C433 C 0.96249 0.96873 0.61983 0.0
C434 C 0.97663 0.88813 0.47669 0.0
C435 C 0.02331 0.11817 0.53183 0.0
C436 C 0.00765 0.06582 0.38163 0.0
C437 C 0.89137 0.06196 0.49245 0.0
C438 C 0.095 0.96097 0.52972 0.0
O439 O 0.97618 0.97634 0.57163 0.0
O440 O 0.97505 0.92473 0.63797 0.0
O441 O 0.29978 0.84236 0.77422 0.0
Mn442 Mn 0.26119 0.77118 0.76277 0.0
O443 O 0.23958 0.90134 0.78378 0.0
Mn444 Mn 0.19143 0.86129 0.74971 0.0
O445 O 0.21836 0.70238 0.75072 0.0
O446 O 0.33764 0.74312 0.74972 0.0
Mn447 Mn 0.31144 0.68347 0.77606 0.0
O448 O 0.25838 0.75734 0.8422 0.0
O449 O 0.2759 0.64653 0.7289 0.0
O450 O 0.26071 0.78972 0.68285 0.0
O451 O 0.20591 0.85502 0.68018 0.0
O452 O 0.3758 0.66985 0.777 0.0
O453 O 0.28426 0.67771 0.84179 0.0
C454 C 0.1411 0.80645 0.78738 0.0
C455 C 0.28639 0.88863 0.78313 0.0
C456 C 0.2297 0.65861 0.73257 0.0
C457 C 0.37888 0.71416 0.754 0.0
C458 C 0.26419 0.71467 0.86499 0.0
C459 C 0.23765 0.82502 0.6583 0.0
O460 O 0.18944 0.79871 0.77548 0.0
O461 O 0.12552 0.85136 0.77479 0.0
O462 O 0.48952 0.98754 0.92719 0.0
Mn463 Mn 0.51767 -0.00118 1.00156 0.0
O464 O 0.55833 -0.00181 0.87169 0.0
Mn465 Mn 0.60328 0.02776 0.91853 0.0
O466 O 0.551 0.01077 0.07224 0.0
O467 O 0.44032 0.00686 0.02754 0.0
Mn468 Mn 0.45018 0.97717 0.08775 0.0
O469 O 0.51851 0.91951 0.01523 0.0
O470 O 0.48714 0.01917 0.12949 0.0
O471 O 0.51945 0.07781 0.98731 0.0
O472 O 0.58934 0.09558 0.93514 0.0
O473 O 0.38395 0.98254 0.09389 0.0
O474 O 0.47014 0.91108 0.08743 0.0
C475 C 0.63901 0.98082 0.97472 0.0
C476 C 0.51044 0.98796 0.88136 0.0
C477 C 0.53445 0.02116 0.11752 0.0
C478 C 0.39358 0.00627 0.05033 0.0
C479 C 0.50069 0.89307 0.05391 0.0
C480 C 0.54998 0.10934 0.96189 0.0
O481 O 0.59126 0.99334 0.97614 0.0
O482 O 0.66478 -0.0018 0.93446 0.0
O483 O 0.34343 0.25171 0.27102 0.0
Mn484 Mn 0.26361 0.25031 0.25292 0.0
O485 O 0.35757 0.17779 0.30906 0.0
Mn486 Mn 0.28939 0.17451 0.33245 0.0
O487 O 0.18423 0.25223 0.23306 0.0
O488 O 0.28165 0.3244 0.22628 0.0
Mn489 Mn 0.25495 0.32076 0.16389 0.0
O490 O 0.27707 0.21285 0.18 0.0
O491 O 0.18437 0.30969 0.16852 0.0
O492 O 0.25048 0.28507 0.32636 0.0
O493 O 0.27582 0.22495 0.38129 0.0
O494 O 0.2812 0.38569 0.16679 0.0
O495 O 0.28623 0.27445 0.12057 0.0
C496 C 0.23142 0.12926 0.29673 0.0
C497 C 0.37461 0.2203 0.2902 0.0
C498 C 0.16094 0.27638 0.19756 0.0
C499 C 0.29448 0.37214 0.21246 0.0
C500 C 0.28488 0.22722 0.13266 0.0
C501 C 0.26166 0.27032 0.37211 0.0
O502 O 0.24514 0.17636 0.2811 0.0
O503 O 0.25562 0.11229 0.33581 0.0
O504 O 0.48702 0.43566 0.96831 0.0
Mn505 Mn 0.49534 0.50642 0.00655 0.0
O506 O 0.48819 0.37417 0.02899 0.0
Mn507 Mn 0.51472 0.41725 0.07906 0.0
O508 O 0.50407 0.57335 0.04984 0.0
O509 O 0.51058 0.5372 0.93027 0.0
Mn510 Mn 0.48824 0.59624 0.95572 0.0
O511 O 0.41622 0.518 0.00662 0.0
O512 O 0.53671 0.62857 0.99384 0.0
O513 O 0.5747 0.49443 0.00848 0.0
O514 O 0.58417 0.43398 0.06918 0.0
O515 O 0.49248 0.61383 0.89162 0.0
O516 O 0.42186 0.59956 0.98175 0.0
C517 C 0.46958 0.46583 0.12651 0.0
C518 C 0.48514 0.38819 0.98224 0.0
C519 C 0.52655 0.6164 0.03968 0.0
C520 C 0.51115 0.56824 0.88913 0.0
C521 C 0.39619 0.56172 1.00101 0.0
C522 C 0.60261 0.46558 0.03532 0.0
O523 O 0.48222 0.47554 0.0783 0.0
O524 O 0.48505 0.42234 0.14337 0.0
O525 O 0.79873 0.33246 0.26712 0.0
Mn526 Mn 0.76105 0.26123 0.25567 0.0
O527 O 0.73709 0.39059 0.27418 0.0
Mn528 Mn 0.68744 0.34969 0.24251 0.0
O529 O 0.71829 0.19318 0.24438 0.0
O530 O 0.83835 0.23321 0.24265 0.0
Mn531 Mn 0.81209 0.17415 0.2704 0.0
O532 O 0.7579 0.24822 0.3347 0.0
O533 O 0.77568 0.13678 0.22455 0.0
O534 O 0.76046 0.27997 0.17617 0.0
O535 O 0.70107 0.34128 0.1727 0.0
O536 O 0.8759 0.15898 0.26873 0.0
O537 O 0.7866 0.16978 0.33715 0.0
C538 C 0.64068 0.29267 0.28334 0.0
C539 C 0.7842 0.37852 0.27473 0.0
C540 C 0.7296 0.14895 0.22824 0.0
C541 C 0.87935 0.20348 0.24608 0.0
C542 C 0.76487 0.20675 0.35887 0.0
C543 C 0.73538 0.31355 0.15136 0.0
O544 O 0.6889 0.28781 0.26885 0.0
O545 O 0.62266 0.33678 0.27194 0.0
O546 O 0.98349 0.4855 0.43267 0.0
Mn547 Mn 0.01168 0.49931 0.50691 0.0
O548 O 0.05192 0.49716 0.37685 0.0
Mn549 Mn 0.09643 0.52856 0.4229 0.0
O550 O 0.04355 0.51416 0.57804 0.0
O551 O 0.93486 0.5052 0.53424 0.0
Mn552 Mn 0.94188 0.47009 0.59243 0.0
O553 O 0.01616 0.42068 0.52089 0.0
O554 O 0.98065 0.50682 0.63818 0.0
O555 O 0.01106 0.57776 0.49132 0.0
O556 O 0.081 0.59603 0.43917 0.0
O557 O 0.87555 0.47984 0.59654 0.0
O558 O 0.95924 0.40317 0.5851 0.0
C559 C 0.13296 0.48207 0.47879 0.0
C560 C 0.0044 0.48536 0.3868 0.0
C561 C 0.02695 0.51763 0.62468 0.0
C562 C 0.88732 0.50577 0.55473 0.0
C563 C 0.99475 0.38979 0.55407 0.0
C564 C 0.04125 0.60935 0.46563 0.0
O565 O 0.08529 0.49492 0.48094 0.0
O566 O 0.15839 0.49966 0.43845 0.0
O567 O 0.83177 0.78402 0.27571 0.0
Mn568 Mn 0.75777 0.7697 0.24659 0.0
O569 O 0.88847 0.77725 0.20819 0.0
Mn570 Mn 0.84259 0.74315 0.16542 0.0
O571 O 0.68717 0.75558 0.21246 0.0
O572 O 0.7303 0.7604 0.32328 0.0
Mn573 Mn 0.67008 0.78756 0.31248 0.0
O574 O 0.74422 0.84828 0.24267 0.0
O575 O 0.62908 0.74425 0.27588 0.0
O576 O 0.77131 0.69124 0.2487 0.0
O577 O 0.82722 0.6752 0.18276 0.0
O578 O 0.66394 0.78064 0.37899 0.0
O579 O 0.67144 0.85375 0.29026 0.0
C580 C 0.78815 0.78606 0.12466 0.0
C581 C 0.87791 0.78712 0.25543 0.0
C582 C 0.64147 0.74362 0.22874 0.0
C583 C 0.70766 0.75892 0.36991 0.0
C584 C 0.70542 0.87312 0.25945 0.0
C585 C 0.79836 0.66067 0.22113 0.0
O586 O 0.78455 0.77552 0.17331 0.0
O587 O 0.82845 0.76783 0.10136 0.0
O588 O 0.83584 0.24303 0.74134 0.0
Mn589 Mn 0.75776 0.25341 0.75843 0.0
O590 O 0.86278 0.30472 0.68658 0.0
Mn591 Mn 0.79669 0.32296 0.6758 0.0
O592 O 0.67903 0.26024 0.77867 0.0
O593 O 0.75798 0.17976 0.78255 0.0
Mn594 Mn 0.72546 0.17281 0.84262 0.0
O595 O 0.77488 0.2818 0.83214 0.0
O596 O 0.65901 0.19404 0.83299 0.0
O597 O 0.74133 0.22254 0.68651 0.0
O598 O 0.76393 0.28288 0.62787 0.0
O599 O 0.74882 0.1084 0.82525 0.0
O600 O 0.76239 0.21502 0.88728 0.0
C601 C 0.75745 0.37757 0.71519 0.0
C602 C 0.87105 0.26532 0.71293 0.0
C603 C 0.64713 0.2345 0.80887 0.0
C604 C 0.76864 0.13157 0.78475 0.0
C605 C 0.77644 0.26161 0.87735 0.0
C606 C 0.74648 0.23826 0.63987 0.0
O607 O 0.75685 0.32971 0.73262 0.0
O608 O 0.78582 0.38942 0.67439 0.0
O609 O 0.8358 0.75861 0.76592 0.0
Mn610 Mn 0.75719 0.75912 0.74782 0.0
O611 O 0.84017 0.70805 0.83482 0.0
Mn612 Mn 0.77066 0.68945 0.84002 0.0
O613 O 0.6786 0.76327 0.72755 0.0
O614 O 0.77728 0.83069 0.71754 0.0
Mn615 Mn 0.74997 0.82968 0.65575 0.0
O616 O 0.76985 0.71935 0.6765 0.0
O617 O 0.67894 0.82055 0.66253 0.0
O618 O 0.74578 0.79745 0.81949 0.0
O619 O 0.7362 0.73589 0.88037 0.0
O620 O 0.78087 0.89347 0.66068 0.0
O621 O 0.77926 0.77983 0.61511 0.0
C622 C 0.73453 0.63824 0.78589 0.0
C623 C 0.86067 0.74048 0.80329 0.0
C624 C 0.65541 0.78778 0.69229 0.0
C625 C 0.79339 0.87791 0.70587 0.0
C626 C 0.778 0.73292 0.62892 0.0
C627 C 0.73835 0.78311 0.86694 0.0
O628 O 0.73556 0.68872 0.78213 0.0
O629 O 0.75499 0.62183 0.82732 0.0
O630 O 0.57771 0.54832 0.49788 0.0
Mn631 Mn 0.50403 0.5099 0.51361 0.0
O632 O 0.63671 0.48804 0.50533 0.0
Mn633 Mn 0.59076 0.43709 0.53041 0.0
O634 O 0.43012 0.47163 0.52856 0.0
O635 O 0.47603 0.58293 0.52811 0.0
Mn636 Mn 0.41777 0.57973 0.49299 0.0
O637 O 0.48575 0.50849 0.43499 0.0
O638 O 0.37165 0.53263 0.52345 0.0
O639 O 0.52442 0.50869 0.59283 0.0
O640 O 0.57704 0.44272 0.60019 0.0
O641 O 0.42006 0.64451 0.51819 0.0
O642 O 0.42707 0.56738 0.423 0.0
C643 C 0.54297 0.39218 0.48134 0.0
C644 C 0.62515 0.53442 0.4973 0.0
C645 C 0.38286 0.48617 0.53052 0.0
C646 C 0.46153 0.62985 0.53965 0.0
C647 C 0.45423 0.53097 0.40622 0.0
C648 C 0.55335 0.48034 0.61977 0.0
O649 O 0.53214 0.43851 0.49745 0.0
O650 O 0.58567 0.37501 0.49788 0.0
O651 O 0.93576 0.47464 0.99288 0.0
Mn652 Mn 0.00598 0.51358 0.00488 0.0
O653 O 0.87471 0.53388 0.99858 0.0
Mn654 Mn 0.91589 0.58615 0.02673 0.0
O655 O 0.07389 0.55618 0.01659 0.0
O656 O 0.03591 0.44008 0.01227 0.0
Mn657 Mn 0.09592 0.45578 0.97959 0.0
O658 O 0.02167 0.51893 0.92623 0.0
O659 O 0.13514 0.4994 0.01774 0.0
O660 O 0.98648 0.51172 0.08458 0.0
O661 O 0.92914 0.57455 0.09531 0.0
O662 O 0.10365 0.39033 0.99125 0.0
O663 O 0.09269 0.47517 0.91195 0.0
C664 C 0.97197 0.62898 0.97871 0.0
C665 C 0.88864 0.48776 0.99155 0.0
C666 C 0.1207 0.54492 0.02126 0.0
C667 C 0.05867 0.39537 0.01395 0.0
C668 C 0.05875 0.50471 0.89681 0.0
C669 C 0.95514 0.538 0.11283 0.0
O670 O 0.97642 0.58276 0.99569 0.0
O671 O 0.92903 0.64886 0.99356 0.0
loop_
_geom_bond_atom_site_label_1
_geom_bond_atom_site_label_2
_geom_bond_distance
_geom_bond_site_symmetry_2
_ccdc_geom_bond_type
O0 Cd1 2.220 1_455 S
O0 C8 1.315 . S
Cd1 O0 2.220 1_655 S
Cd1 O4 2.306 . S
Cd1 O5 2.447 . S
Cd1 O11 2.233 1_655 S
Cd2 O3 2.240 . S
Cd2 O10 2.223 . S
Cd2 O12 2.297 . S
Cd2 O13 2.439 . S
O3 Cd2 2.240 . S
O3 C8 1.279 . S
O4 Cd1 2.306 . S
O4 C6 1.247 . S
O5 Cd1 2.447 . S
O5 C6 1.208 . S
C6 O4 1.247 . S
C6 O5 1.208 . S
C7 O12 1.247 . S
C7 O13 1.208 . S
C8 O0 1.315 . S
C8 O3 1.279 . S
C9 O10 1.315 . S
C9 O11 1.279 . S
O10 Cd2 2.223 . S
O10 C9 1.315 . S
O11 Cd1 2.233 1_455 S
O11 C9 1.279 . S
O12 Cd2 2.297 . S
O12 C7 1.247 . S
O13 Cd2 2.439 . S
O13 C7 1.208 . S
O14 Cd15 2.223 . S
O14 C22 1.315 . S
Cd15 O14 2.223 . S
Cd15 O18 2.297 . S
Cd15 O19 2.439 1_455 S
Cd15 O25 2.240 1_455 S
Cd16 O17 2.240 1_655 S
Cd16 O24 2.223 1_655 S
Cd16 O26 2.297 . S
Cd16 O27 2.439 . S
O17 Cd16 2.240 1_455 S
O17 C22 1.279 . S
O18 Cd15 2.297 . S
O18 C20 1.247 . S
O19 Cd15 2.439 1_655 S
O19 C20 1.208 1_655 S
C20 O18 1.247 . S
C20 O19 1.208 1_455 S
C21 O26 1.247 . S
C21 O27 1.208 . S
C22 O14 1.315 . S
C22 O17 1.279 . S
C23 O24 1.315 . S
C23 O25 1.279 1_455 S
O24 Cd16 2.223 1_455 S
O24 C23 1.315 . S
O25 Cd15 2.240 1_655 S
O25 C23 1.279 1_655 S
O26 Cd16 2.297 . S
O26 C21 1.247 . S
O27 Cd16 2.439 . S
O27 C21 1.208 . S
O28 Cd29 2.223 . S
O28 C36 1.315 . S
Cd29 O28 2.223 . S
Cd29 O32 2.297 . S
Cd29 O33 2.439 . S
Cd29 O39 2.240 . S
Cd30 O31 2.240 . S
Cd30 O38 2.223 . S
Cd30 O40 2.297 . S
Cd30 O41 2.439 . S
O31 Cd30 2.240 . S
O31 C36 1.279 . S
O32 Cd29 2.297 . S
O32 C34 1.247 . S
O33 Cd29 2.439 . S
O33 C34 1.208 . S
C34 O32 1.247 . S
C34 O33 1.208 . S
C35 O40 1.247 . S
C35 O41 1.208 . S
C36 O28 1.315 . S
C36 O31 1.279 . S
C37 O38 1.315 . S
C37 O39 1.279 . S
O38 Cd30 2.223 . S
O38 C37 1.315 . S
O39 Cd29 2.240 . S
O39 C37 1.279 . S
O40 Cd30 2.297 . S
O40 C35 1.247 . S
O41 Cd30 2.439 . S
O41 C35 1.208 . S
O42 Cd43 2.223 . S
O42 C50 1.315 . S
Cd43 O42 2.223 . S
Cd43 O46 2.297 . S
Cd43 O47 2.439 . S
Cd43 O53 2.240 . S
Cd44 O45 2.240 . S
Cd44 O52 2.223 . S
Cd44 O54 2.297 . S
Cd44 O55 2.439 . S
O45 Cd44 2.240 . S
O45 C50 1.279 . S
O46 Cd43 2.297 . S
O46 C48 1.247 . S
O47 Cd43 2.439 . S
O47 C48 1.208 . S
C48 O46 1.247 . S
C48 O47 1.208 . S
C49 O54 1.247 . S
C49 O55 1.208 . S
C50 O42 1.315 . S
C50 O45 1.279 . S
C51 O52 1.315 . S
C51 O53 1.279 . S
O52 Cd44 2.223 . S
O52 C51 1.315 . S
O53 Cd43 2.240 . S
O53 C51 1.279 . S
O54 Cd44 2.297 . S
O54 C49 1.247 . S
O55 Cd44 2.439 . S
O55 C49 1.208 . S
O56 Cd57 2.223 1_545 S
O56 C64 1.315 . S
Cd57 O56 2.223 1_565 S
Cd57 O60 2.297 . S
Cd57 O61 2.439 . S
Cd57 O67 2.240 1_565 S
Cd58 O59 2.240 1_545 S
Cd58 O66 2.223 . S
Cd58 O68 2.297 . S
Cd58 O69 2.439 . S
O59 Cd58 2.240 1_565 S
O59 C64 1.279 1_565 S
O60 Cd57 2.297 . S
O60 C62 1.247 . S
O61 Cd57 2.439 . S
O61 C62 1.208 . S
C62 O60 1.247 . S
C62 O61 1.208 . S
C63 O68 1.247 . S
C63 O69 1.208 . S
C64 O56 1.315 . S
C64 O59 1.279 1_545 S
C65 O66 1.315 . S
C65 O67 1.279 . S
O66 Cd58 2.223 . S
O66 C65 1.315 . S
O67 Cd57 2.240 1_545 S
O67 C65 1.279 . S
O68 Cd58 2.297 . S
O68 C63 1.247 . S
O69 Cd58 2.439 . S
O69 C63 1.208 . S
O70 Cd71 2.223 . S
O70 C78 1.315 . S
Cd71 O70 2.223 . S
Cd71 O74 2.297 . S
Cd71 O75 2.439 . S
Cd71 O81 2.240 . S
Cd72 O73 2.240 . S
Cd72 O80 2.223 . S
Cd72 O82 2.297 . S
Cd72 O83 2.439 . S
O73 Cd72 2.240 . S
O73 C78 1.279 . S
O74 Cd71 2.297 . S
O74 C76 1.247 . S
O75 Cd71 2.439 . S
O75 C76 1.208 . S
C76 O74 1.247 . S
C76 O75 1.208 . S
C77 O82 1.247 . S
C77 O83 1.208 . S
C78 O70 1.315 . S
C78 O73 1.279 . S
C79 O80 1.315 . S
C79 O81 1.279 . S
O80 Cd72 2.223 . S
O80 C79 1.315 . S
O81 Cd71 2.240 . S
O81 C79 1.279 . S
O82 Cd72 2.297 . S
O82 C77 1.247 . S
O83 Cd72 2.439 . S
O83 C77 1.208 . S
O84 Cd85 2.223 . S
O84 C92 1.315 . S
Cd85 O84 2.223 . S
Cd85 O88 2.297 . S
Cd85 O89 2.439 . S
Cd85 O95 2.240 1_545 S
Cd86 O87 2.240 1_565 S
Cd86 O94 2.223 . S
Cd86 O96 2.297 . S
Cd86 O97 2.439 1_565 S
O87 Cd86 2.240 1_545 S
O87 C92 1.279 . S
O88 Cd85 2.297 . S
O88 C90 1.247 . S
O89 Cd85 2.439 . S
O89 C90 1.208 . S
C90 O88 1.247 . S
C90 O89 1.208 . S
C91 O96 1.254 . S
C91 O97 1.203 1_565 S
C92 O84 1.315 . S
C92 O87 1.279 . S
C93 O94 1.315 . S
C93 O95 1.279 . S
O94 Cd86 2.223 . S
O94 C93 1.315 . S
O95 Cd85 2.240 1_565 S
O95 C93 1.279 . S
O96 Cd86 2.297 . S
O96 C91 1.254 . S
O97 Cd86 2.439 1_545 S
O97 C91 1.203 1_545 S
O98 Cd99 2.223 . S
O98 C106 1.315 . S
Cd99 O98 2.223 . S
Cd99 O102 2.297 . S
Cd99 O103 2.439 1_554 S
Cd99 O109 2.240 1_554 S
Cd100 O101 2.240 1_556 S
Cd100 O108 2.223 1_556 S
Cd100 O110 2.297 . S
Cd100 O111 2.439 . S
O101 Cd100 2.240 1_554 S
O101 C106 1.279 . S
O102 Cd99 2.297 . S
O102 C104 1.247 . S
O103 Cd99 2.439 1_556 S
O103 C104 1.208 1_556 S
C104 O102 1.247 . S
C104 O103 1.208 1_554 S
C105 O110 1.247 . S
C105 O111 1.208 . S
C106 O98 1.315 . S
C106 O101 1.279 . S
C107 O108 1.315 . S
C107 O109 1.279 1_554 S
O108 Cd100 2.223 1_554 S
O108 C107 1.315 . S
O109 Cd99 2.240 1_556 S
O109 C107 1.279 1_556 S
O110 Cd100 2.297 . S
O110 C105 1.247 . S
O111 Cd100 2.439 . S
O111 C105 1.208 . S
O112 Cd113 2.223 . S
O112 C120 1.315 . S
Cd113 O112 2.223 . S
Cd113 O116 2.297 . S
Cd113 O117 2.439 . S
Cd113 O123 2.241 1_554 S
Cd114 O115 2.240 1_556 S
Cd114 O122 2.223 1_556 S
Cd114 O124 2.297 . S
Cd114 O125 2.439 . S
O115 Cd114 2.240 1_554 S
O115 C120 1.279 . S
O116 Cd113 2.297 . S
O116 C118 1.247 . S
O117 Cd113 2.439 . S
O117 C118 1.208 . S
C118 O116 1.247 . S
C118 O117 1.208 . S
C119 O124 1.247 . S
C119 O125 1.208 . S
C120 O112 1.315 . S
C120 O115 1.279 . S
C121 O122 1.315 . S
C121 O123 1.280 1_554 S
O122 Cd114 2.223 1_554 S
O122 C121 1.315 . S
O123 Cd113 2.241 1_556 S
O123 C121 1.280 1_556 S
O124 Cd114 2.297 . S
O124 C119 1.247 . S
O125 Cd114 2.439 . S
O125 C119 1.208 . S
O126 Cd127 2.223 . S
O126 C134 1.315 . S
Cd127 O126 2.223 . S
Cd127 O130 2.297 . S
Cd127 O131 2.439 . S
Cd127 O137 2.240 . S
Cd128 O129 2.240 . S
Cd128 O136 2.223 . S
Cd128 O138 2.297 . S
Cd128 O139 2.439 . S
O129 Cd128 2.240 . S
O129 C134 1.279 . S
O130 Cd127 2.297 . S
O130 C132 1.247 . S
O131 Cd127 2.439 . S
O131 C132 1.208 . S
C132 O130 1.247 . S
C132 O131 1.208 . S
C133 O138 1.247 . S
C133 O139 1.208 . S
C134 O126 1.315 . S
C134 O129 1.279 . S
C135 O136 1.315 . S
C135 O137 1.279 . S
O136 Cd128 2.223 . S
O136 C135 1.315 . S
O137 Cd127 2.240 . S
O137 C135 1.279 . S
O138 Cd128 2.297 . S
O138 C133 1.247 . S
O139 Cd128 2.439 . S
O139 C133 1.208 . S
O140 Cd141 2.223 . S
O140 C148 1.315 . S
Cd141 O140 2.223 . S
Cd141 O144 2.297 . S
Cd141 O145 2.439 . S
Cd141 O151 2.240 . S
Cd142 O143 2.240 . S
Cd142 O150 2.223 . S
Cd142 O152 2.297 . S
Cd142 O153 2.439 . S
O143 Cd142 2.240 . S
O143 C148 1.279 . S
O144 Cd141 2.297 . S
O144 C146 1.247 . S
O145 Cd141 2.439 . S
O145 C146 1.208 . S
C146 O144 1.247 . S
C146 O145 1.208 . S
C147 O152 1.247 . S
C147 O153 1.208 . S
C148 O140 1.315 . S
C148 O143 1.279 . S
C149 O150 1.315 . S
C149 O151 1.279 . S
O150 Cd142 2.223 . S
O150 C149 1.315 . S
O151 Cd141 2.240 . S
O151 C149 1.279 . S
O152 Cd142 2.297 . S
O152 C147 1.247 . S
O153 Cd142 2.439 . S
O153 C147 1.208 . S
O154 Cd155 2.223 . S
O154 C162 1.315 . S
Cd155 O154 2.223 . S
Cd155 O158 2.297 . S
Cd155 O159 2.439 . S
Cd155 O165 2.240 . S
Cd156 O157 2.240 . S
Cd156 O164 2.223 . S
Cd156 O166 2.297 . S
Cd156 O167 2.439 . S
O157 Cd156 2.240 . S
O157 C162 1.279 . S
O158 Cd155 2.297 . S
O158 C160 1.247 . S
O159 Cd155 2.439 . S
O159 C160 1.208 . S
C160 O158 1.247 . S
C160 O159 1.208 . S
C161 O166 1.247 . S
C161 O167 1.208 . S
C162 O154 1.315 . S
C162 O157 1.279 . S
C163 O164 1.315 . S
C163 O165 1.279 . S
O164 Cd156 2.223 . S
O164 C163 1.315 . S
O165 Cd155 2.240 . S
O165 C163 1.279 . S
O166 Cd156 2.297 . S
O166 C161 1.247 . S
O167 Cd156 2.439 . S
O167 C161 1.208 . S
O168 Cd169 2.223 . S
O168 C176 1.315 . S
Cd169 O168 2.223 . S
Cd169 O172 2.297 . S
Cd169 O173 2.439 1_455 S
Cd169 O179 2.240 . S
Cd170 O171 2.240 1_655 S
Cd170 O178 2.223 1_655 S
Cd170 O180 2.297 . S
Cd170 O181 2.439 . S
O171 Cd170 2.240 1_455 S
O171 C176 1.279 . S
O172 Cd169 2.297 . S
O172 C174 1.247 . S
O173 Cd169 2.439 1_655 S
O173 C174 1.208 1_655 S
C174 O172 1.247 . S
C174 O173 1.208 1_455 S
C175 O180 1.247 . S
C175 O181 1.208 . S
C176 O168 1.315 . S
C176 O171 1.279 . S
C177 O178 1.315 . S
C177 O179 1.279 . S
O178 Cd170 2.223 1_455 S
O178 C177 1.315 . S
O179 Cd169 2.240 . S
O179 C177 1.279 . S
O180 Cd170 2.297 . S
O180 C175 1.247 . S
O181 Cd170 2.439 . S
O181 C175 1.208 . S
O182 Cd183 2.223 1_455 S
O182 C190 1.315 . S
Cd183 O182 2.223 1_655 S
Cd183 O186 2.297 . S
Cd183 O187 2.439 . S
Cd183 O193 2.240 1_655 S
Cd184 O185 2.240 1_455 S
Cd184 O192 2.223 . S
Cd184 O194 2.297 . S
Cd184 O195 2.439 1_455 S
O185 Cd184 2.240 1_655 S
O185 C190 1.279 1_655 S
O186 Cd183 2.297 . S
O186 C188 1.247 . S
O187 Cd183 2.439 . S
O187 C188 1.208 . S
C188 O186 1.247 . S
C188 O187 1.208 . S
C189 O194 1.247 . S
C189 O195 1.208 1_455 S
C190 O182 1.315 . S
C190 O185 1.279 1_455 S
C191 O192 1.315 . S
C191 O193 1.279 . S
O192 Cd184 2.223 . S
O192 C191 1.315 . S
O193 Cd183 2.240 1_455 S
O193 C191 1.279 . S
O194 Cd184 2.297 . S
O194 C189 1.247 . S
O195 Cd184 2.439 1_655 S
O195 C189 1.208 1_655 S
O196 Cd197 2.223 . S
O196 C204 1.315 . S
Cd197 O196 2.223 . S
Cd197 O200 2.297 . S
Cd197 O201 2.439 . S
Cd197 O207 2.240 . S
Cd198 O199 2.240 . S
Cd198 O206 2.223 . S
Cd198 O208 2.297 . S
Cd198 O209 2.439 . S
O199 Cd198 2.240 . S
O199 C204 1.279 . S
O200 Cd197 2.297 . S
O200 C202 1.247 . S
O201 Cd197 2.439 . S
O201 C202 1.208 . S
C202 O200 1.247 . S
C202 O201 1.208 . S
C203 O208 1.247 . S
C203 O209 1.208 . S
C204 O196 1.315 . S
C204 O199 1.279 . S
C205 O206 1.315 . S
C205 O207 1.279 . S
O206 Cd198 2.223 . S
O206 C205 1.315 . S
O207 Cd197 2.240 . S
O207 C205 1.279 . S
O208 Cd198 2.297 . S
O208 C203 1.247 . S
O209 Cd198 2.439 . S
O209 C203 1.208 . S
O210 Cd211 2.223 . S
O210 C218 1.315 . S
Cd211 O210 2.223 . S
Cd211 O214 2.297 . S
Cd211 O215 2.439 . S
Cd211 O221 2.240 . S
Cd212 O213 2.240 . S
Cd212 O220 2.223 . S
Cd212 O222 2.297 . S
Cd212 O223 2.439 . S
O213 Cd212 2.240 . S
O213 C218 1.279 . S
O214 Cd211 2.297 . S
O214 C216 1.247 . S
O215 Cd211 2.439 . S
O215 C216 1.208 . S
C216 O214 1.247 . S
C216 O215 1.208 . S
C217 O222 1.247 . S
C217 O223 1.208 . S
C218 O210 1.315 . S
C218 O213 1.279 . S
C219 O220 1.315 . S
C219 O221 1.279 . S
O220 Cd212 2.223 . S
O220 C219 1.315 . S
O221 Cd211 2.240 . S
O221 C219 1.279 . S
O222 Cd212 2.297 . S
O222 C217 1.247 . S
O223 Cd212 2.439 . S
O223 C217 1.208 . S
O224 Cd225 2.223 1_565 S
O224 C232 1.315 1_565 S
Cd225 O224 2.223 1_545 S
Cd225 O228 2.297 . S
Cd225 O229 2.439 . S
Cd225 O235 2.240 1_545 S
Cd226 O227 2.240 1_565 S
Cd226 O234 2.223 . S
Cd226 O236 2.297 . S
Cd226 O237 2.439 1_565 S
O227 Cd226 2.240 1_545 S
O227 C232 1.279 . S
O228 Cd225 2.297 . S
O228 C230 1.247 . S
O229 Cd225 2.439 . S
O229 C230 1.208 . S
C230 O228 1.247 . S
C230 O229 1.208 . S
C231 O236 1.247 . S
C231 O237 1.208 1_565 S
C232 O224 1.315 1_545 S
C232 O227 1.279 . S
C233 O234 1.315 . S
C233 O235 1.279 . S
O234 Cd226 2.223 . S
O234 C233 1.315 . S
O235 Cd225 2.240 1_565 S
O235 C233 1.279 . S
O236 Cd226 2.297 . S
O236 C231 1.247 . S
O237 Cd226 2.439 1_545 S
O237 C231 1.208 1_545 S
O238 Cd239 2.223 . S
O238 C246 1.315 . S
Cd239 O238 2.223 . S
Cd239 O242 2.297 . S
Cd239 O243 2.439 . S
Cd239 O249 2.240 . S
Cd240 O241 2.240 . S
Cd240 O248 2.223 . S
Cd240 O250 2.297 . S
Cd240 O251 2.439 . S
O241 Cd240 2.240 . S
O241 C246 1.279 . S
O242 Cd239 2.297 . S
O242 C244 1.247 . S
O243 Cd239 2.439 . S
O243 C244 1.208 . S
C244 O242 1.247 . S
C244 O243 1.208 . S
C245 O250 1.247 . S
C245 O251 1.208 . S
C246 O238 1.315 . S
C246 O241 1.279 . S
C247 O248 1.315 . S
C247 O249 1.279 . S
O248 Cd240 2.223 . S
O248 C247 1.315 . S
O249 Cd239 2.240 . S
O249 C247 1.279 . S
O250 Cd240 2.297 . S
O250 C245 1.247 . S
O251 Cd240 2.439 . S
O251 C245 1.208 . S
O252 Cd253 2.223 . S
O252 C260 1.315 . S
Cd253 O252 2.223 . S
Cd253 O256 2.297 1_545 S
Cd253 O257 2.439 1_545 S
Cd253 O263 2.240 . S
Cd254 O255 2.240 . S
Cd254 O262 2.223 . S
Cd254 O264 2.297 . S
Cd254 O265 2.439 . S
O255 Cd254 2.240 . S
O255 C260 1.279 . S
O256 Cd253 2.297 1_565 S
O256 C258 1.247 . S
O257 Cd253 2.439 1_565 S
O257 C258 1.208 . S
C258 O256 1.247 . S
C258 O257 1.208 . S
C259 O264 1.247 . S
C259 O265 1.208 . S
C260 O252 1.315 . S
C260 O255 1.279 . S
C261 O262 1.315 . S
C261 O263 1.279 . S
O262 Cd254 2.223 . S
O262 C261 1.315 . S
O263 Cd253 2.240 . S
O263 C261 1.279 . S
O264 Cd254 2.297 . S
O264 C259 1.247 . S
O265 Cd254 2.439 . S
O265 C259 1.208 . S
O266 Cd267 2.223 . S
O266 C274 1.315 . S
Cd267 O266 2.223 . S
Cd267 O270 2.297 . S
Cd267 O271 2.439 1_554 S
Cd267 O277 2.240 1_554 S
Cd268 O269 2.240 1_556 S
Cd268 O276 2.223 1_556 S
Cd268 O278 2.297 . S
Cd268 O279 2.439 . S
O269 Cd268 2.240 1_554 S
O269 C274 1.279 . S
O270 Cd267 2.297 . S
O270 C272 1.247 . S
O271 Cd267 2.439 1_556 S
O271 C272 1.208 1_556 S
C272 O270 1.247 . S
C272 O271 1.208 1_554 S
C273 O278 1.247 . S
C273 O279 1.208 . S
C274 O266 1.315 . S
C274 O269 1.279 . S
C275 O276 1.315 . S
C275 O277 1.279 1_554 S
O276 Cd268 2.223 1_554 S
O276 C275 1.315 . S
O277 Cd267 2.240 1_556 S
O277 C275 1.279 1_556 S
O278 Cd268 2.297 . S
O278 C273 1.247 . S
O279 Cd268 2.439 . S
O279 C273 1.208 . S
O280 Cd281 2.223 . S
O280 C288 1.315 . S
Cd281 O280 2.223 . S
Cd281 O284 2.297 . S
Cd281 O285 2.439 1_554 S
Cd281 O291 2.240 1_554 S
Cd282 O283 2.240 1_556 S
Cd282 O290 2.223 1_556 S
Cd282 O292 2.297 . S
Cd282 O293 2.439 . S
O283 Cd282 2.240 1_554 S
O283 C288 1.279 . S
O284 Cd281 2.297 . S
O284 C286 1.247 . S
O285 Cd281 2.439 1_556 S
O285 C286 1.208 1_556 S
C286 O284 1.247 . S
C286 O285 1.208 1_554 S
C287 O292 1.247 . S
C287 O293 1.208 . S
C288 O280 1.315 . S
C288 O283 1.279 . S
C289 O290 1.315 . S
C289 O291 1.279 1_554 S
O290 Cd282 2.223 1_554 S
O290 C289 1.315 . S
O291 Cd281 2.240 1_556 S
O291 C289 1.279 1_556 S
O292 Cd282 2.297 . S
O292 C287 1.247 . S
O293 Cd282 2.439 . S
O293 C287 1.208 . S
O294 Cd295 2.223 . S
O294 C302 1.315 . S
Cd295 O294 2.223 . S
Cd295 O298 2.297 . S
Cd295 O299 2.439 . S
Cd295 O305 2.240 . S
Cd296 O297 2.240 . S
Cd296 O304 2.223 . S
Cd296 O306 2.297 . S
Cd296 O307 2.439 . S
O297 Cd296 2.240 . S
O297 C302 1.279 . S
O298 Cd295 2.297 . S
O298 C300 1.247 . S
O299 Cd295 2.439 . S
O299 C300 1.208 . S
C300 O298 1.247 . S
C300 O299 1.208 . S
C301 O306 1.247 . S
C301 O307 1.208 . S
C302 O294 1.315 . S
C302 O297 1.279 . S
C303 O304 1.315 . S
C303 O305 1.279 . S
O304 Cd296 2.223 . S
O304 C303 1.315 . S
O305 Cd295 2.240 . S
O305 C303 1.279 . S
O306 Cd296 2.297 . S
O306 C301 1.247 . S
O307 Cd296 2.439 . S
O307 C301 1.208 . S
O308 Cd309 2.223 . S
O308 C316 1.315 . S
Cd309 O308 2.223 . S
Cd309 O312 2.297 . S
Cd309 O313 2.439 . S
Cd309 O319 2.240 . S
Cd310 O311 2.240 . S
Cd310 O318 2.223 . S
Cd310 O320 2.297 . S
Cd310 O321 2.439 . S
O311 Cd310 2.240 . S
O311 C316 1.279 . S
O312 Cd309 2.297 . S
O312 C314 1.247 . S
O313 Cd309 2.439 . S
O313 C314 1.208 . S
C314 O312 1.247 . S
C314 O313 1.208 . S
C315 O320 1.247 . S
C315 O321 1.208 . S
C316 O308 1.315 . S
C316 O311 1.279 . S
C317 O318 1.315 . S
C317 O319 1.279 . S
O318 Cd310 2.223 . S
O318 C317 1.315 . S
O319 Cd309 2.240 . S
O319 C317 1.279 . S
O320 Cd310 2.297 . S
O320 C315 1.247 . S
O321 Cd310 2.439 . S
O321 C315 1.208 . S
O322 Cd323 2.223 . S
O322 C330 1.315 . S
Cd323 O322 2.223 . S
Cd323 O326 2.297 . S
Cd323 O327 2.439 . S
Cd323 O333 2.240 . S
Cd324 O325 2.240 . S
Cd324 O332 2.223 . S
Cd324 O334 2.297 . S
Cd324 O335 2.439 . S
O325 Cd324 2.240 . S
O325 C330 1.279 . S
O326 Cd323 2.297 . S
O326 C328 1.247 . S
O327 Cd323 2.439 . S
O327 C328 1.208 . S
C328 O326 1.247 . S
C328 O327 1.208 . S
C329 O334 1.247 . S
C329 O335 1.208 . S
C330 O322 1.315 . S
C330 O325 1.279 . S
C331 O332 1.315 . S
C331 O333 1.279 . S
O332 Cd324 2.223 . S
O332 C331 1.315 . S
O333 Cd323 2.240 . S
O333 C331 1.279 . S
O334 Cd324 2.297 . S
O334 C329 1.247 . S
O335 Cd324 2.439 . S
O335 C329 1.208 . S
O336 Mn337 2.163 . S
O336 C350 1.244 1_554 S
Mn337 O336 2.163 . S
Mn337 O340 2.160 1_445 S
Mn337 O341 2.221 1_455 S
Mn337 O343 2.163 1_454 S
Mn337 O345 2.160 1_545 S
Mn337 O355 2.217 1_544 S
O338 Mn339 2.087 1_556 S
O338 C350 1.256 1_565 S
Mn339 O338 2.087 1_554 S
Mn339 O346 2.089 . S
Mn339 O355 2.283 1_554 S
Mn339 O356 2.251 1_554 S
O340 Mn337 2.160 1_665 S
O340 C351 1.239 . S
O341 Mn337 2.221 1_655 S
O341 Mn342 2.290 1_554 S
O341 C352 1.278 . S
Mn342 O341 2.290 1_556 S
Mn342 O344 2.089 1_556 S
Mn342 O347 2.251 1_556 S
Mn342 O348 2.087 . S
O343 Mn337 2.163 1_656 S
O343 C353 1.244 . S
O344 Mn342 2.089 1_554 S
O344 C351 1.256 1_545 S
O345 Mn337 2.160 1_565 S
O345 C354 1.239 . S
O346 Mn339 2.089 . S
O346 C354 1.256 . S
O347 Mn342 2.251 1_554 S
O347 C352 1.241 . S
O348 Mn342 2.087 . S
O348 C353 1.256 . S
C349 O355 1.294 . S
C349 O356 1.241 . S
C350 O336 1.244 1_556 S
C350 O338 1.256 1_545 S
C351 O340 1.239 . S
C351 O344 1.256 1_565 S
C352 O341 1.278 . S
C352 O347 1.241 . S
C353 O343 1.244 . S
C353 O348 1.256 . S
C354 O345 1.239 . S
C354 O346 1.256 . S
O355 Mn337 2.217 1_566 S
O355 Mn339 2.283 1_556 S
O355 C349 1.294 . S
O356 Mn339 2.251 1_556 S
O356 C349 1.241 . S
O357 Mn358 2.163 . S
O357 C371 1.244 . S
Mn358 O357 2.163 . S
Mn358 O361 2.160 . S
Mn358 O362 2.221 . S
Mn358 O364 2.163 . S
Mn358 O366 2.160 . S
Mn358 O376 2.221 . S
O359 Mn360 2.087 . S
O359 C371 1.256 . S
Mn360 O359 2.087 . S
Mn360 O367 2.089 . S
Mn360 O376 2.290 . S
Mn360 O377 2.251 . S
O361 Mn358 2.160 . S
O361 C372 1.239 . S
O362 Mn358 2.221 . S
O362 Mn363 2.290 . S
O362 C373 1.278 . S
Mn363 O362 2.290 . S
Mn363 O365 2.089 . S
Mn363 O368 2.251 . S
Mn363 O369 2.087 . S
O364 Mn358 2.163 . S
O364 C374 1.244 . S
O365 Mn363 2.089 . S
O365 C372 1.256 . S
O366 Mn358 2.160 . S
O366 C375 1.239 . S
O367 Mn360 2.089 . S
O367 C375 1.256 . S
O368 Mn363 2.251 . S
O368 C373 1.241 . S
O369 Mn363 2.087 . S
O369 C374 1.256 . S
C370 O376 1.278 . S
C370 O377 1.241 . S
C371 O357 1.244 . S
C371 O359 1.256 . S
C372 O361 1.239 . S
C372 O365 1.256 . S
C373 O362 1.278 . S
C373 O368 1.241 . S
C374 O364 1.244 . S
C374 O369 1.256 . S
C375 O366 1.239 . S
C375 O367 1.256 . S
O376 Mn358 2.221 . S
O376 Mn360 2.290 . S
O376 C370 1.278 . S
O377 Mn360 2.251 . S
O377 C370 1.241 . S
O378 Mn379 2.163 1_565 S
O378 C392 1.244 . S
Mn379 O378 2.163 1_545 S
Mn379 O382 2.160 . S
Mn379 O383 2.221 1_545 S
Mn379 O385 2.163 . S
Mn379 O387 2.160 . S
Mn379 O397 2.221 . S
O380 Mn381 2.087 . S
O380 C392 1.256 1_545 S
Mn381 O380 2.087 . S
Mn381 O388 2.089 . S
Mn381 O397 2.290 . S
Mn381 O398 2.251 . S
O382 Mn379 2.160 . S
O382 C393 1.239 . S
O383 Mn379 2.221 1_565 S
O383 Mn384 2.290 . S
O383 C394 1.278 . S
Mn384 O383 2.290 . S
Mn384 O386 2.089 1_565 S
Mn384 O389 2.251 . S
Mn384 O390 2.087 . S
O385 Mn379 2.163 . S
O385 C395 1.244 . S
O386 Mn384 2.089 1_545 S
O386 C393 1.256 . S
O387 Mn379 2.160 . S
O387 C396 1.239 . S
O388 Mn381 2.089 . S
O388 C396 1.256 . S
O389 Mn384 2.251 . S
O389 C394 1.241 . S
O390 Mn384 2.087 . S
O390 C395 1.256 1_565 S
C391 O397 1.278 . S
C391 O398 1.241 . S
C392 O378 1.244 . S
C392 O380 1.256 1_565 S
C393 O382 1.239 . S
C393 O386 1.256 . S
C394 O383 1.278 . S
C394 O389 1.241 . S
C395 O385 1.244 . S
C395 O390 1.256 1_545 S
C396 O387 1.239 . S
C396 O388 1.256 . S
O397 Mn379 2.221 . S
O397 Mn381 2.290 . S
O397 C391 1.278 . S
O398 Mn381 2.251 . S
O398 C391 1.241 . S
O399 Mn400 2.163 . S
O399 C413 1.244 . S
Mn400 O399 2.163 . S
Mn400 O403 2.160 . S
Mn400 O404 2.221 . S
Mn400 O406 2.163 . S
Mn400 O408 2.160 . S
Mn400 O418 2.221 . S
O401 Mn402 2.087 . S
O401 C413 1.256 . S
Mn402 O401 2.087 . S
Mn402 O409 2.089 . S
Mn402 O418 2.290 . S
Mn402 O419 2.251 . S
O403 Mn400 2.160 . S
O403 C414 1.239 . S
O404 Mn400 2.221 . S
O404 Mn405 2.290 . S
O404 C415 1.278 . S
Mn405 O404 2.290 . S
Mn405 O407 2.089 . S
Mn405 O410 2.251 . S
Mn405 O411 2.087 . S
O406 Mn400 2.163 . S
O406 C416 1.244 . S
O407 Mn405 2.089 . S
O407 C414 1.256 . S
O408 Mn400 2.160 . S
O408 C417 1.239 . S
O409 Mn402 2.089 . S
O409 C417 1.256 . S
O410 Mn405 2.251 . S
O410 C415 1.241 . S
O411 Mn405 2.087 . S
O411 C416 1.256 . S
C412 O418 1.278 . S
C412 O419 1.241 . S
C413 O399 1.244 . S
C413 O401 1.256 . S
C414 O403 1.239 . S
C414 O407 1.256 . S
C415 O404 1.278 . S
C415 O410 1.241 . S
C416 O406 1.244 . S
C416 O411 1.256 . S
C417 O408 1.239 . S
C417 O409 1.256 . S
O418 Mn400 2.221 . S
O418 Mn402 2.290 . S
O418 C412 1.278 . S
O419 Mn402 2.251 . S
O419 C412 1.241 . S
O420 Mn421 2.163 1_665 S
O420 C434 1.244 . S
Mn421 O420 2.163 1_445 S
Mn421 O424 2.160 . S
Mn421 O425 2.221 . S
Mn421 O427 2.163 1_455 S
Mn421 O429 2.160 1_545 S
Mn421 O439 2.221 1_445 S
O422 Mn423 2.087 1_655 S
O422 C434 1.256 . S
Mn423 O422 2.087 1_455 S
Mn423 O430 2.089 . S
Mn423 O439 2.290 1_455 S
Mn423 O440 2.251 1_455 S
O424 Mn421 2.160 . S
O424 C435 1.239 . S
O425 Mn421 2.221 . S
O425 Mn426 2.290 1_455 S
O425 C436 1.278 . S
Mn426 O425 2.290 1_655 S
Mn426 O428 2.089 1_655 S
Mn426 O431 2.251 1_655 S
Mn426 O432 2.087 . S
O427 Mn421 2.163 1_655 S
O427 C437 1.244 . S
O428 Mn426 2.089 1_455 S
O428 C435 1.256 . S
O429 Mn421 2.160 1_565 S
O429 C438 1.239 . S
O430 Mn423 2.089 . S
O430 C438 1.256 . S
O431 Mn426 2.251 1_455 S
O431 C436 1.241 . S
O432 Mn426 2.087 . S
O432 C437 1.256 . S
C433 O439 1.278 . S
C433 O440 1.241 . S
C434 O420 1.244 . S
C434 O422 1.256 . S
C435 O424 1.239 . S
C435 O428 1.256 . S
C436 O425 1.278 . S
C436 O431 1.241 . S
C437 O427 1.244 . S
C437 O432 1.256 . S
C438 O429 1.239 . S
C438 O430 1.256 . S
O439 Mn421 2.221 1_665 S
O439 Mn423 2.290 1_655 S
O439 C433 1.278 . S
O440 Mn423 2.251 1_655 S
O440 C433 1.241 . S
O441 Mn442 2.163 . S
O441 C455 1.244 . S
Mn442 O441 2.163 . S
Mn442 O445 2.160 . S
Mn442 O446 2.221 . S
Mn442 O448 2.163 . S
Mn442 O450 2.160 . S
Mn442 O460 2.221 . S
O443 Mn444 2.087 . S
O443 C455 1.256 . S
Mn444 O443 2.087 . S
Mn444 O451 2.089 . S
Mn444 O460 2.290 . S
Mn444 O461 2.251 . S
O445 Mn442 2.160 . S
O445 C456 1.239 . S
O446 Mn442 2.221 . S
O446 Mn447 2.290 . S
O446 C457 1.278 . S
Mn447 O446 2.290 . S
Mn447 O449 2.089 . S
Mn447 O452 2.251 . S
Mn447 O453 2.087 . S
O448 Mn442 2.163 . S
O448 C458 1.244 . S
O449 Mn447 2.089 . S
O449 C456 1.256 . S
O450 Mn442 2.160 . S
O450 C459 1.239 . S
O451 Mn444 2.089 . S
O451 C459 1.256 . S
O452 Mn447 2.251 . S
O452 C457 1.241 . S
O453 Mn447 2.087 . S
O453 C458 1.256 . S
C454 O460 1.278 . S
C454 O461 1.241 . S
C455 O441 1.244 . S
C455 O443 1.256 . S
C456 O445 1.239 . S
C456 O449 1.256 . S
C457 O446 1.278 . S
C457 O452 1.241 . S
C458 O448 1.244 . S
C458 O453 1.256 . S
C459 O450 1.239 . S
C459 O451 1.256 . S
O460 Mn442 2.221 . S
O460 Mn444 2.290 . S
O460 C454 1.278 . S
O461 Mn444 2.251 . S
O461 C454 1.241 . S
O462 Mn463 2.163 1_556 S
O462 C476 1.244 . S
Mn463 O462 2.163 1_554 S
Mn463 O466 2.160 . S
Mn463 O467 2.221 . S
Mn463 O469 2.163 1_545 S
Mn463 O471 2.160 1_554 S
Mn463 O481 2.221 1_554 S
O464 Mn465 2.087 . S
O464 C476 1.256 . S
Mn465 O464 2.087 . S
Mn465 O472 2.089 . S
Mn465 O481 2.290 . S
Mn465 O482 2.251 1_545 S
O466 Mn463 2.160 . S
O466 C477 1.239 . S
O467 Mn463 2.221 . S
O467 Mn468 2.290 . S
O467 C478 1.278 . S
Mn468 O467 2.290 . S
Mn468 O470 2.089 . S
Mn468 O473 2.251 . S
Mn468 O474 2.087 1_545 S
O469 Mn463 2.163 1_565 S
O469 C479 1.244 . S
O470 Mn468 2.089 . S
O470 C477 1.256 . S
O471 Mn463 2.160 1_556 S
O471 C480 1.239 . S
O472 Mn465 2.089 . S
O472 C480 1.256 . S
O473 Mn468 2.251 . S
O473 C478 1.241 . S
O474 Mn468 2.087 1_565 S
O474 C479 1.256 . S
C475 O481 1.278 1_565 S
C475 O482 1.241 . S
C476 O462 1.244 . S
C476 O464 1.256 . S
C477 O466 1.239 . S
C477 O470 1.256 . S
C478 O467 1.278 . S
C478 O473 1.241 . S
C479 O469 1.244 . S
C479 O474 1.256 . S
C480 O471 1.239 . S
C480 O472 1.256 . S
O481 Mn463 2.221 1_556 S
O481 Mn465 2.290 . S
O481 C475 1.278 1_545 S
O482 Mn465 2.251 1_565 S
O482 C475 1.241 . S
O483 Mn484 2.163 . S
O483 C497 1.244 . S
Mn484 O483 2.163 . S
Mn484 O487 2.160 . S
Mn484 O488 2.221 . S
Mn484 O490 2.163 . S
Mn484 O492 2.160 . S
Mn484 O502 2.221 . S
O485 Mn486 2.087 . S
O485 C497 1.256 . S
Mn486 O485 2.087 . S
Mn486 O493 2.089 . S
Mn486 O502 2.290 . S
Mn486 O503 2.251 . S
O487 Mn484 2.160 . S
O487 C498 1.239 . S
O488 Mn484 2.221 . S
O488 Mn489 2.290 . S
O488 C499 1.278 . S
Mn489 O488 2.290 . S
Mn489 O491 2.089 . S
Mn489 O494 2.251 . S
Mn489 O495 2.087 . S
O490 Mn484 2.163 . S
O490 C500 1.244 . S
O491 Mn489 2.089 . S
O491 C498 1.256 . S
O492 Mn484 2.160 . S
O492 C501 1.239 . S
O493 Mn486 2.089 . S
O493 C501 1.256 . S
O494 Mn489 2.251 . S
O494 C499 1.241 . S
O495 Mn489 2.087 . S
O495 C500 1.256 . S
C496 O502 1.278 . S
C496 O503 1.241 . S
C497 O483 1.244 . S
C497 O485 1.256 . S
C498 O487 1.239 . S
C498 O491 1.256 . S
C499 O488 1.278 . S
C499 O494 1.241 . S
C500 O490 1.244 . S
C500 O495 1.256 . S
C501 O492 1.239 . S
C501 O493 1.256 . S
O502 Mn484 2.221 . S
O502 Mn486 2.290 . S
O502 C496 1.278 . S
O503 Mn486 2.251 . S
O503 C496 1.241 . S
O504 Mn505 2.163 1_556 S
O504 C518 1.244 . S
Mn505 O504 2.163 1_554 S
Mn505 O508 2.160 . S
Mn505 O509 2.221 1_554 S
Mn505 O511 2.163 . S
Mn505 O513 2.160 . S
Mn505 O523 2.221 . S
O506 Mn507 2.087 . S
O506 C518 1.256 1_554 S
Mn507 O506 2.087 . S
Mn507 O514 2.089 . S
Mn507 O523 2.290 . S
Mn507 O524 2.251 . S
O508 Mn505 2.160 . S
O508 C519 1.239 . S
O509 Mn505 2.221 1_556 S
O509 Mn510 2.290 . S
O509 C520 1.278 . S
Mn510 O509 2.290 . S
Mn510 O512 2.089 1_556 S
Mn510 O515 2.251 . S
Mn510 O516 2.087 . S
O511 Mn505 2.163 . S
O511 C521 1.244 1_554 S
O512 Mn510 2.089 1_554 S
O512 C519 1.256 . S
O513 Mn505 2.160 . S
O513 C522 1.239 . S
O514 Mn507 2.089 . S
O514 C522 1.256 . S
O515 Mn510 2.251 . S
O515 C520 1.241 . S
O516 Mn510 2.087 . S
O516 C521 1.256 . S
C517 O523 1.278 . S
C517 O524 1.241 . S
C518 O504 1.244 . S
C518 O506 1.256 1_556 S
C519 O508 1.239 . S
C519 O512 1.256 . S
C520 O509 1.278 . S
C520 O515 1.241 . S
C521 O511 1.244 1_556 S
C521 O516 1.256 . S
C522 O513 1.239 . S
C522 O514 1.256 . S
O523 Mn505 2.221 . S
O523 Mn507 2.290 . S
O523 C517 1.278 . S
O524 Mn507 2.251 . S
O524 C517 1.241 . S
O525 Mn526 2.163 . S
O525 C539 1.244 . S
Mn526 O525 2.163 . S
Mn526 O529 2.160 . S
Mn526 O530 2.221 . S
Mn526 O532 2.163 . S
Mn526 O534 2.160 . S
Mn526 O544 2.221 . S
O527 Mn528 2.087 . S
O527 C539 1.256 . S
Mn528 O527 2.087 . S
Mn528 O535 2.089 . S
Mn528 O544 2.290 . S
Mn528 O545 2.251 . S
O529 Mn526 2.160 . S
O529 C540 1.239 . S
O530 Mn526 2.221 . S
O530 Mn531 2.290 . S
O530 C541 1.278 . S
Mn531 O530 2.290 . S
Mn531 O533 2.089 . S
Mn531 O536 2.251 . S
Mn531 O537 2.087 . S
O532 Mn526 2.163 . S
O532 C542 1.244 . S
O533 Mn531 2.089 . S
O533 C540 1.256 . S
O534 Mn526 2.160 . S
O534 C543 1.239 . S
O535 Mn528 2.089 . S
O535 C543 1.256 . S
O536 Mn531 2.251 . S
O536 C541 1.241 . S
O537 Mn531 2.087 . S
O537 C542 1.256 . S
C538 O544 1.278 . S
C538 O545 1.241 . S
C539 O525 1.244 . S
C539 O527 1.256 . S
C540 O529 1.239 . S
C540 O533 1.256 . S
C541 O530 1.278 . S
C541 O536 1.241 . S
C542 O532 1.244 . S
C542 O537 1.256 . S
C543 O534 1.239 . S
C543 O535 1.256 . S
O544 Mn526 2.221 . S
O544 Mn528 2.290 . S
O544 C538 1.278 . S
O545 Mn528 2.251 . S
O545 C538 1.241 . S
O546 Mn547 2.163 1_655 S
O546 C560 1.244 . S
Mn547 O546 2.163 1_455 S
Mn547 O550 2.160 . S
Mn547 O551 2.221 1_455 S
Mn547 O553 2.163 . S
Mn547 O555 2.160 . S
Mn547 O565 2.221 . S
O548 Mn549 2.087 . S
O548 C560 1.256 1_455 S
Mn549 O548 2.087 . S
Mn549 O556 2.089 . S
Mn549 O565 2.290 . S
Mn549 O566 2.251 . S
O550 Mn547 2.160 . S
O550 C561 1.239 . S
O551 Mn547 2.221 1_655 S
O551 Mn552 2.290 . S
O551 C562 1.278 . S
Mn552 O551 2.290 . S
Mn552 O554 2.089 1_655 S
Mn552 O557 2.251 . S
Mn552 O558 2.087 . S
O553 Mn547 2.163 . S
O553 C563 1.244 1_455 S
O554 Mn552 2.089 1_455 S
O554 C561 1.256 . S
O555 Mn547 2.160 . S
O555 C564 1.239 . S
O556 Mn549 2.089 . S
O556 C564 1.256 . S
O557 Mn552 2.251 . S
O557 C562 1.241 . S
O558 Mn552 2.087 . S
O558 C563 1.256 . S
C559 O565 1.278 . S
C559 O566 1.241 . S
C560 O546 1.244 . S
C560 O548 1.256 1_655 S
C561 O550 1.239 . S
C561 O554 1.256 . S
C562 O551 1.278 . S
C562 O557 1.241 . S
C563 O553 1.244 1_655 S
C563 O558 1.256 . S
C564 O555 1.239 . S
C564 O556 1.256 . S
O565 Mn547 2.221 . S
O565 Mn549 2.290 . S
O565 C559 1.278 . S
O566 Mn549 2.251 . S
O566 C559 1.241 . S
O567 Mn568 2.163 . S
O567 C581 1.244 . S
Mn568 O567 2.163 . S
Mn568 O571 2.160 . S
Mn568 O572 2.221 . S
Mn568 O574 2.163 . S
Mn568 O576 2.160 . S
Mn568 O586 2.221 . S
O569 Mn570 2.087 . S
O569 C581 1.256 . S
Mn570 O569 2.087 . S
Mn570 O577 2.089 . S
Mn570 O586 2.290 . S
Mn570 O587 2.251 . S
O571 Mn568 2.160 . S
O571 C582 1.239 . S
O572 Mn568 2.221 . S
O572 Mn573 2.290 . S
O572 C583 1.278 . S
Mn573 O572 2.290 . S
Mn573 O575 2.089 . S
Mn573 O578 2.251 . S
Mn573 O579 2.087 . S
O574 Mn568 2.163 . S
O574 C584 1.244 . S
O575 Mn573 2.089 . S
O575 C582 1.256 . S
O576 Mn568 2.160 . S
O576 C585 1.239 . S
O577 Mn570 2.089 . S
O577 C585 1.256 . S
O578 Mn573 2.251 . S
O578 C583 1.241 . S
O579 Mn573 2.087 . S
O579 C584 1.256 . S
C580 O586 1.278 . S
C580 O587 1.241 . S
C581 O567 1.244 . S
C581 O569 1.256 . S
C582 O571 1.239 . S
C582 O575 1.256 . S
C583 O572 1.278 . S
C583 O578 1.241 . S
C584 O574 1.244 . S
C584 O579 1.256 . S
C585 O576 1.239 . S
C585 O577 1.256 . S
O586 Mn568 2.221 . S
O586 Mn570 2.290 . S
O586 C580 1.278 . S
O587 Mn570 2.251 . S
O587 C580 1.241 . S
O588 Mn589 2.163 . S
O588 C602 1.244 . S
Mn589 O588 2.163 . S
Mn589 O592 2.160 . S
Mn589 O593 2.221 . S
Mn589 O595 2.163 . S
Mn589 O597 2.160 . S
Mn589 O607 2.221 . S
O590 Mn591 2.087 . S
O590 C602 1.256 . S
Mn591 O590 2.087 . S
Mn591 O598 2.089 . S
Mn591 O607 2.290 . S
Mn591 O608 2.251 . S
O592 Mn589 2.160 . S
O592 C603 1.239 . S
O593 Mn589 2.221 . S
O593 Mn594 2.290 . S
O593 C604 1.278 . S
Mn594 O593 2.290 . S
Mn594 O596 2.089 . S
Mn594 O599 2.251 . S
Mn594 O600 2.087 . S
O595 Mn589 2.163 . S
O595 C605 1.244 . S
O596 Mn594 2.089 . S
O596 C603 1.256 . S
O597 Mn589 2.160 . S
O597 C606 1.239 . S
O598 Mn591 2.089 . S
O598 C606 1.256 . S
O599 Mn594 2.251 . S
O599 C604 1.241 . S
O600 Mn594 2.087 . S
O600 C605 1.256 . S
C601 O607 1.278 . S
C601 O608 1.241 . S
C602 O588 1.244 . S
C602 O590 1.256 . S
C603 O592 1.239 . S
C603 O596 1.256 . S
C604 O593 1.278 . S
C604 O599 1.241 . S
C605 O595 1.244 . S
C605 O600 1.256 . S
C606 O597 1.239 . S
C606 O598 1.256 . S
O607 Mn589 2.221 . S
O607 Mn591 2.290 . S
O607 C601 1.278 . S
O608 Mn591 2.251 . S
O608 C601 1.241 . S
O609 Mn610 2.163 . S
O609 C623 1.244 . S
Mn610 O609 2.163 . S
Mn610 O613 2.160 . S
Mn610 O614 2.221 . S
Mn610 O616 2.163 . S
Mn610 O618 2.160 . S
Mn610 O628 2.221 . S
O611 Mn612 2.087 . S
O611 C623 1.256 . S
Mn612 O611 2.087 . S
Mn612 O619 2.089 . S
Mn612 O628 2.290 . S
Mn612 O629 2.251 . S
O613 Mn610 2.160 . S
O613 C624 1.239 . S
O614 Mn610 2.221 . S
O614 Mn615 2.290 . S
O614 C625 1.278 . S
Mn615 O614 2.290 . S
Mn615 O617 2.089 . S
Mn615 O620 2.251 . S
Mn615 O621 2.087 . S
O616 Mn610 2.163 . S
O616 C626 1.244 . S
O617 Mn615 2.089 . S
O617 C624 1.256 . S
O618 Mn610 2.160 . S
O618 C627 1.239 . S
O619 Mn612 2.089 . S
O619 C627 1.256 . S
O620 Mn615 2.251 . S
O620 C625 1.241 . S
O621 Mn615 2.087 . S
O621 C626 1.256 . S
C622 O628 1.278 . S
C622 O629 1.241 . S
C623 O609 1.244 . S
C623 O611 1.256 . S
C624 O613 1.239 . S
C624 O617 1.256 . S
C625 O614 1.278 . S
C625 O620 1.241 . S
C626 O616 1.244 . S
C626 O621 1.256 . S
C627 O618 1.239 . S
C627 O619 1.256 . S
O628 Mn610 2.221 . S
O628 Mn612 2.290 . S
O628 C622 1.278 . S
O629 Mn612 2.251 . S
O629 C622 1.241 . S
O630 Mn631 2.163 . S
O630 C644 1.244 . S
Mn631 O630 2.163 . S
Mn631 O634 2.160 . S
Mn631 O635 2.221 . S
Mn631 O637 2.163 . S
Mn631 O639 2.160 . S
Mn631 O649 2.221 . S
O632 Mn633 2.087 . S
O632 C644 1.256 . S
Mn633 O632 2.087 . S
Mn633 O640 2.089 . S
Mn633 O649 2.290 . S
Mn633 O650 2.251 . S
O634 Mn631 2.160 . S
O634 C645 1.239 . S
O635 Mn631 2.221 . S
O635 Mn636 2.290 . S
O635 C646 1.278 . S
Mn636 O635 2.290 . S
Mn636 O638 2.089 . S
Mn636 O641 2.251 . S
Mn636 O642 2.087 . S
O637 Mn631 2.163 . S
O637 C647 1.244 . S
O638 Mn636 2.089 . S
O638 C645 1.256 . S
O639 Mn631 2.160 . S
O639 C648 1.239 . S
O640 Mn633 2.089 . S
O640 C648 1.256 . S
O641 Mn636 2.251 . S
O641 C646 1.241 . S
O642 Mn636 2.087 . S
O642 C647 1.256 . S
C643 O649 1.278 . S
C643 O650 1.241 . S
C644 O630 1.244 . S
C644 O632 1.256 . S
C645 O634 1.239 . S
C645 O638 1.256 . S
C646 O635 1.278 . S
C646 O641 1.241 . S
C647 O637 1.244 . S
C647 O642 1.256 . S
C648 O639 1.239 . S
C648 O640 1.256 . S
O649 Mn631 2.221 . S
O649 Mn633 2.290 . S
O649 C643 1.278 . S
O650 Mn633 2.251 . S
O650 C643 1.241 . S
O651 Mn652 2.163 1_655 S
O651 C665 1.244 . S
Mn652 O651 2.163 1_455 S
Mn652 O655 2.160 . S
Mn652 O656 2.221 . S
Mn652 O658 2.163 1_554 S
Mn652 O660 2.160 1_455 S
Mn652 O670 2.221 1_455 S
O653 Mn654 2.087 . S
O653 C665 1.256 . S
Mn654 O653 2.087 . S
Mn654 O661 2.089 . S
Mn654 O670 2.290 . S
Mn654 O671 2.251 1_554 S
O655 Mn652 2.160 . S
O655 C666 1.239 . S
O656 Mn652 2.221 . S
O656 Mn657 2.290 1_554 S
O656 C667 1.278 . S
Mn657 O656 2.290 1_556 S
Mn657 O659 2.089 1_556 S
Mn657 O662 2.251 1_556 S
Mn657 O663 2.087 . S
O658 Mn652 2.163 1_556 S
O658 C668 1.244 . S
O659 Mn657 2.089 1_554 S
O659 C666 1.256 . S
O660 Mn652 2.160 1_655 S
O660 C669 1.239 . S
O661 Mn654 2.089 . S
O661 C669 1.256 . S
O662 Mn657 2.251 1_554 S
O662 C667 1.241 . S
O663 Mn657 2.087 . S
O663 C668 1.256 . S
C664 O670 1.278 1_556 S
C664 O671 1.241 . S
C665 O651 1.244 . S
C665 O653 1.256 . S
C666 O655 1.239 . S
C666 O659 1.256 . S
C667 O656 1.278 . S
C667 O662 1.241 . S
C668 O658 1.244 . S
C668 O663 1.256 . S
C669 O660 1.239 . S
C669 O661 1.256 . S
O670 Mn652 2.221 1_655 S
O670 Mn654 2.290 . S
O670 C664 1.278 1_554 S
O671 Mn654 2.251 1_556 S
O671 C664 1.241 . S
C352 C8 1.830 1_655 S
C22 C372 2.235 . S
C35 C394 1.035 . S
C413 C49 1.435 . S
C23 C434 2.448 1_455 S
C457 C34 1.142 . S
C480 C48 1.119 . S
C9 C498 1.619 . S
C64 C354 1.620 1_545 S
C77 C374 1.323 . S
C396 C92 1.802 . S
C415 C105 1.552 . S
C63 C436 1.388 . S
C459 C78 1.788 . S
C476 C91 1.400 1_545 S
C500 C106 1.738 . S
C350 C107 1.914 1_556 S
C522 C118 1.024 . S
C135 C539 1.938 . S
C562 C146 1.542 . S
C65 C496 1.967 . S
C392 C79 2.124 . S
C132 C585 1.224 . S
C601 C160 1.301 . S
C177 C349 1.960 . S
C602 C188 1.675 . S
C204 C391 2.089 . S
C219 C582 1.495 . S
C435 C190 1.582 . S
C538 C202 1.931 . S
C479 C217 1.594 . S
C623 C175 1.616 . S
C353 C231 1.644 1_545 S
C246 C606 1.666 . S
C395 C259 1.466 . S
C274 C580 1.834 . S
C232 C433 1.888 1_545 S
C245 C542 1.586 . S
C477 C260 1.587 . S
C273 C627 1.397 . S
C275 C351 1.678 . S
C286 C521 1.459 1_554 S
C303 C456 1.618 . S
C314 C559 1.845 . S
C625 C233 1.943 . S
C393 C247 1.577 . S
C416 C300 1.496 . S
C373 C328 2.003 . S
C36 C646 1.749 . S
C603 C50 2.196 . S
C667 C7 1.005 . S
C21 C581 1.446 . S
C51 C518 2.440 . S
C541 C6 1.100 . S
C564 C20 1.091 . S
C624 C37 1.581 . S
C648 C162 1.559 . S
C119 C605 1.328 . S
C134 C669 1.732 . S
C583 C147 1.518 . S
C520 C161 1.363 . S
C120 C543 1.726 . S
C560 C133 1.393 . S
C148 C626 1.795 . S
C644 C149 1.782 . S
C438 C76 0.960 . S
C455 C93 2.093 . S
C104 C478 1.495 . S
C622 C163 1.767 . S
C121 C665 1.966 . S
C417 C90 1.165 . S
C370 C62 1.250 . S
C203 C643 1.899 . S
C371 C216 1.594 . S
C664 C174 1.983 1_655 S
C191 C414 1.574 . S
C218 C519 1.513 . S
C176 C454 1.984 . S
C189 C563 1.679 1_455 S
C205 C497 1.830 . S
C647 C329 1.768 . S
C288 C375 1.630 . S
C668 C301 1.619 . S
C316 C412 1.816 . S
C330 C517 1.914 . S
C458 C287 1.452 . S
C302 C561 1.632 . S
C501 C315 1.443 . S
C645 C317 1.743 . S
C437 C244 1.529 . S
C261 C540 1.718 . S
C475 C272 1.927 1_556 S
C499 C331 1.851 . S
C289 C666 1.657 . S
C584 C258 1.415 . S
C604 C230 1.932 . S
