# Generated by pormake.
# Topology zzz, (3,6)-cn, num edge types: 1
# Building blocks:
#     Node 0, Type 0, BuildingBlock: OLANEW_clean_sbu_2, # of connection points: 3
#     Node 1, Type 0, BuildingBlock: OLANEW_clean_sbu_2, # of connection points: 3
#     Node 2, Type 0, BuildingBlock: OLANEW_clean_sbu_2, # of connection points: 3
#     Node 3, Type 0, BuildingBlock: OLANEW_clean_sbu_2, # of connection points: 3
#     Node 4, Type 0, BuildingBlock: OLANEW_clean_sbu_2, # of connection points: 3
#     Node 5, Type 0, BuildingBlock: OLANEW_clean_sbu_2, # of connection points: 3
#     Node 6, Type 0, BuildingBlock: OLANEW_clean_sbu_2, # of connection points: 3
#     Node 7, Type 0, BuildingBlock: OLANEW_clean_sbu_2, # of connection points: 3
#     Node 8, Type 1, BuildingBlock: INOVEN_clean_sbu_0, # of connection points: 6
#     Node 9, Type 1, BuildingBlock: INOVEN_clean_sbu_0, # of connection points: 6
#     Node 10, Type 1, BuildingBlock: INOVEN_clean_sbu_0, # of connection points: 6
#     Node 11, Type 1, BuildingBlock: INOVEN_clean_sbu_0, # of connection points: 6
#     Edge 12, Type (0, 1), BuildingBlock: ZUJKAS_clean_linker_0, # of connection points: 2
#     Edge 13, Type (0, 1), BuildingBlock: ZUJKAS_clean_linker_0, # of connection points: 2
#     Edge 14, Type (0, 1), BuildingBlock: ZUJKAS_clean_linker_0, # of connection points: 2
#     Edge 15, Type (0, 1), BuildingBlock: ZUJKAS_clean_linker_0, # of connection points: 2
#     Edge 16, Type (0, 1), BuildingBlock: ZUJKAS_clean_linker_0, # of connection points: 2
#     Edge 17, Type (0, 1), BuildingBlock: ZUJKAS_clean_linker_0, # of connection points: 2
#     Edge 18, Type (0, 1), BuildingBlock: ZUJKAS_clean_linker_0, # of connection points: 2
#     Edge 19, Type (0, 1), BuildingBlock: ZUJKAS_clean_linker_0, # of connection points: 2
#     Edge 20, Type (0, 1), BuildingBlock: ZUJKAS_clean_linker_0, # of connection points: 2
#     Edge 21, Type (0, 1), BuildingBlock: ZUJKAS_clean_linker_0, # of connection points: 2
#     Edge 22, Type (0, 1), BuildingBlock: ZUJKAS_clean_linker_0, # of connection points: 2
#     Edge 23, Type (0, 1), BuildingBlock: ZUJKAS_clean_linker_0, # of connection points: 2
#     Edge 24, Type (0, 1), BuildingBlock: ZUJKAS_clean_linker_0, # of connection points: 2
#     Edge 25, Type (0, 1), BuildingBlock: ZUJKAS_clean_linker_0, # of connection points: 2
#     Edge 26, Type (0, 1), BuildingBlock: ZUJKAS_clean_linker_0, # of connection points: 2
#     Edge 27, Type (0, 1), BuildingBlock: ZUJKAS_clean_linker_0, # of connection points: 2
#     Edge 28, Type (0, 1), BuildingBlock: ZUJKAS_clean_linker_0, # of connection points: 2
#     Edge 29, Type (0, 1), BuildingBlock: ZUJKAS_clean_linker_0, # of connection points: 2
#     Edge 30, Type (0, 1), BuildingBlock: ZUJKAS_clean_linker_0, # of connection points: 2
#     Edge 31, Type (0, 1), BuildingBlock: ZUJKAS_clean_linker_0, # of connection points: 2
#     Edge 32, Type (0, 1), BuildingBlock: ZUJKAS_clean_linker_0, # of connection points: 2
#     Edge 33, Type (0, 1), BuildingBlock: ZUJKAS_clean_linker_0, # of connection points: 2
#     Edge 34, Type (0, 1), BuildingBlock: ZUJKAS_clean_linker_0, # of connection points: 2
#     Edge 35, Type (0, 1), BuildingBlock: ZUJKAS_clean_linker_0, # of connection points: 2
# Relax obj value: 0.211
# Max RMSD: 0.175
# Mean RMSD: 0.166
data_MOF--net-zzz--node1-OLANEW_clean_sbu_2--node2-INOVEN_clean_sbu_0--edge1-ZUJKAS_clean_linker_0
_symmetry_space_group_name_H-M    P1
_symmetry_Int_Tables_number       1
_symmetry_cell_setting            triclinic
loop_
_symmetry_equiv_pos_as_xyz
'x, y, z'
_cell_length_a     71.751681
_cell_length_b     71.758131
_cell_length_c     19.357874
_cell_angle_alpha  89.887385
_cell_angle_beta   90.178202
_cell_angle_gamma 90.01747
loop_
_atom_site_label
_atom_site_type_symbol
_atom_site_fract_x
_atom_site_fract_y
_atom_site_fract_z
_atom_type_partial_charge
O0 O 0.74755 0.55927 0.24659 0.0
Cd1 Cd 0.71725 0.56559 0.29918 0.0
O2 O 0.75203 0.53766 0.32505 0.0
Cd3 Cd 0.76608 0.51306 0.36734 0.0
O4 O 0.76861 0.4825 0.40072 0.0
C5 C 0.78219 0.47284 0.4252 0.0
O6 O 0.76818 0.48226 0.40049 0.0
C7 C 0.75776 0.54657 0.27242 0.0
C8 C 0.68782 0.55431 0.21433 0.0
O9 O 0.69422 0.57097 0.21141 0.0
O10 O 0.69534 0.54298 0.25746 0.0
O11 O 0.94378 0.73622 0.12873 0.0
Cd12 Cd 0.93396 0.70694 0.18157 0.0
O13 O 0.9602 0.73936 0.22328 0.0
Cd14 Cd 0.97922 0.75381 0.29292 0.0
O15 O 0.98854 0.77742 0.35392 0.0
C16 C 0.97572 0.7866 0.38354 0.0
O17 O 0.95844 0.78065 0.37868 0.0
C18 C 0.95483 0.74588 0.16535 0.0
C19 C 0.94768 0.6764 0.10997 0.0
O20 O 0.93144 0.68298 0.0969 0.0
O21 O 0.95743 0.68425 0.15726 0.0
O22 O 0.77948 0.95565 0.15401 0.0
Cd23 Cd 0.80921 0.94805 0.20893 0.0
O24 O 0.77708 0.97712 0.23362 0.0
Cd25 Cd 0.76012 0.99622 0.2937 0.0
O26 O 0.7329 0.00138 0.33796 0.0
C27 C 0.72203 0.9874 0.33645 0.0
O28 O 0.72809 0.97171 0.30982 0.0
C29 C 0.77022 0.96874 0.18155 0.0
C30 C 0.83947 0.96059 0.13236 0.0
O31 O 0.83295 0.94411 0.12418 0.0
O32 O 0.83162 0.97119 0.17687 0.0
O33 O 0.54008 0.7753 0.17077 0.0
Cd34 Cd 0.54483 0.8053 0.22779 0.0
O35 O 0.51912 0.76976 0.25013 0.0
Cd36 Cd 0.50198 0.75044 0.30935 0.0
O37 O 0.49733 0.7248 0.36663 0.0
C38 C 0.50917 0.7211 0.41358 0.0
O39 O 0.5225 0.7332 0.42626 0.0
C40 C 0.52819 0.76436 0.1975 0.0
C41 C 0.53601 0.83562 0.14401 0.0
O42 O 0.55254 0.82885 0.14519 0.0
O43 O 0.52361 0.82795 0.18222 0.0
O44 O 0.28146 0.52572 0.09687 0.0
Cd45 Cd 0.31335 0.52128 0.0564 0.0
O46 O 0.27758 0.49547 0.08826 0.0
Cd47 Cd 0.25807 0.47222 0.08239 0.0
O48 O 0.22956 0.46757 0.04798 0.0
C49 C 0.22482 0.47825 -0.00147 0.0
O50 O 0.23725 0.48986 0.97335 0.0
C51 C 0.27106 0.51149 0.10255 0.0
C52 C 0.33816 0.51361 0.16374 0.0
O53 O 0.335 0.53039 0.1441 0.0
O54 O 0.32948 0.50042 0.13273 0.0
O55 O 0.95952 0.2711 0.0758 0.0
Cd56 Cd 0.95782 0.30107 0.0168 0.0
O57 O 0.98976 0.27369 0.06369 0.0
Cd58 Cd 0.01731 0.26082 0.05991 0.0
O59 O 0.03031 0.23495 0.02694 0.0
C60 C 0.01828 0.22357 0.00366 0.0
O61 O 0.00074 0.22876 0.00122 0.0
C62 C 0.97575 0.26452 0.08534 0.0
C63 C 0.97203 0.32822 0.10442 0.0
O64 O 0.95455 0.32451 0.10273 0.0
O65 O 0.98279 0.31934 0.06328 0.0
O66 O 0.24003 0.9795 0.02954 0.0
Cd67 Cd 0.20947 0.98288 0.97575 0.0
O68 O 0.23848 0.00945 0.05124 0.0
Cd69 Cd 0.25309 0.03514 0.07779 0.0
O70 O 0.28062 0.04584 0.05283 0.0
C71 C 0.28581 0.04091 0.99291 0.0
O72 O 0.27415 0.03134 0.95431 0.0
C73 C 0.24726 0.99408 0.05531 0.0
C74 C 0.18355 0.99077 0.07801 0.0
O75 O 0.1867 0.97397 0.05896 0.0
O76 O 0.19241 0.00392 0.04753 0.0
O77 O 0.515 0.24756 0.02354 0.0
Cd78 Cd 0.51512 0.21573 0.97912 0.0
O79 O 0.48621 0.24978 0.98698 0.0
Cd80 Cd 0.45929 0.26299 0.96626 0.0
O81 O 0.4287 0.26975 0.94494 0.0
C82 C 0.42214 0.28426 0.91472 0.0
O83 O 0.42821 0.2693 0.94568 0.0
C84 C 0.5001 0.25702 0.01783 0.0
C85 C 0.51141 0.18994 0.08632 0.0
O86 O 0.52752 0.195 0.06486 0.0
O87 O 0.49703 0.197 0.0568 0.0
Gd88 Gd 0.03225 0.99773 0.74346 0.0
Gd89 Gd 0.01815 0.01552 0.5981 0.0
C90 C 0.0133 0.97169 0.62424 0.0
C91 C 0.036 0.97881 0.85627 0.0
C92 C 0.02787 0.96157 0.88418 0.0
C93 C 0.03608 0.95295 0.94169 0.0
C94 C 0.0126 0.95305 0.8516 0.0
C95 C 0.01424 0.92706 0.93245 0.0
C96 C 0.00588 0.93592 0.87538 0.0
C97 C 0.02929 0.93587 0.96584 0.0
C98 C 0.05782 0.00433 0.6448 0.0
C99 C 0.03297 0.04189 0.72509 0.0
C100 C 0.01895 0.03035 0.4767 0.0
C101 C 0.01415 0.04844 0.44561 0.0
C102 C 0.0115 0.04981 0.37405 0.0
C103 C 0.01274 0.06451 0.48648 0.0
C104 C 0.00665 0.08331 0.38387 0.0
C105 C 0.00907 0.0818 0.45586 0.0
C106 C 0.00774 0.06708 0.34338 0.0
C107 C 0.99086 0.01514 0.69525 0.0
O108 O 0.01685 0.97442 0.69067 0.0
O109 O 0.01494 0.98496 0.57689 0.0
O110 O 0.0468 0.97663 0.80243 0.0
O111 O 0.02474 0.99314 0.8505 0.0
O112 O 0.06143 0.00594 0.71041 0.0
O113 O 0.04151 0.99849 0.63571 0.0
O114 O 0.03023 0.03981 0.6576 0.0
O115 O 0.03225 0.02794 0.76996 0.0
O116 O 0.00495 0.02016 0.49862 0.0
O117 O 0.03322 0.03046 0.51931 0.0
O118 O 0.98831 0.02182 0.63343 0.0
O119 O 0.00746 0.00998 0.69968 0.0
H120 H 0.04796 0.95928 0.9672 0.0
H121 H 0.00602 0.95949 0.80727 0.0
H122 H 0.99412 0.92962 0.84908 0.0
H123 H 0.03616 0.92932 0.00947 0.0
H124 H 0.01259 0.03754 0.34174 0.0
H125 H 0.01465 0.06371 0.54195 0.0
H126 H 0.00805 0.09398 0.48858 0.0
H127 H 0.00612 0.06779 0.28779 0.0
Gd128 Gd 0.51505 0.03072 0.73671 0.0
Gd129 Gd 0.4949 0.01691 0.59641 0.0
C130 C 0.53898 0.01099 0.61433 0.0
C131 C 0.53499 0.03517 0.84677 0.0
C132 C 0.55233 0.0278 0.87678 0.0
C133 C 0.56167 0.03825 0.92711 0.0
C134 C 0.56008 0.01094 0.85407 0.0
C135 C 0.58661 0.01522 0.93167 0.0
C136 C 0.57706 0.00468 0.88144 0.0
C137 C 0.57864 0.03206 0.95426 0.0
C138 C 0.5073 0.05647 0.63898 0.0
C139 C 0.47053 0.03195 0.72762 0.0
C140 C 0.47926 0.01783 0.47639 0.0
C141 C 0.46126 0.0128 0.44534 0.0
C142 C 0.45962 0.01186 0.37333 0.0
C143 C 0.44558 0.00942 0.48663 0.0
C144 C 0.42654 0.00476 0.38359 0.0
C145 C 0.42835 0.00547 0.45599 0.0
C146 C 0.44242 0.00785 0.34265 0.0
C147 C 0.49597 0.98954 0.69352 0.0
O148 O 0.53752 0.01477 0.68112 0.0
O149 O 0.525 0.01301 0.57014 0.0
O150 O 0.53696 0.04537 0.79106 0.0
O151 O 0.52074 0.02374 0.84361 0.0
O152 O 0.50661 0.05995 0.70476 0.0
O153 O 0.51284 0.04011 0.62893 0.0
O154 O 0.47147 0.02894 0.66 0.0
O155 O 0.48523 0.03137 0.76919 0.0
O156 O 0.48977 0.00393 0.49725 0.0
O157 O 0.47897 0.03189 0.51969 0.0
O158 O 0.48823 0.98732 0.63324 0.0
O159 O 0.50187 0.00592 0.69687 0.0
H160 H 0.55597 0.05138 0.94473 0.0
H161 H 0.5531 0.00273 0.81486 0.0
H162 H 0.58266 0.99157 0.86332 0.0
H163 H 0.58572 0.04074 0.99177 0.0
H164 H 0.47159 0.01448 0.34076 0.0
H165 H 0.44664 0.01003 0.54243 0.0
H166 H 0.41644 0.00293 0.48897 0.0
H167 H 0.44147 0.00763 0.28681 0.0
Gd168 Gd 0.50513 0.5025 0.77988 0.0
Gd169 Gd 0.51969 0.49024 0.63812 0.0
C170 C 0.51727 0.53367 0.66536 0.0
C171 C 0.50069 0.51842 0.89845 0.0
C172 C 0.50378 0.53738 0.92503 0.0
C173 C 0.49239 0.54429 0.97773 0.0
C174 C 0.51757 0.54892 0.8965 0.0
C175 C 0.5083 0.57429 0.97249 0.0
C176 C 0.51979 0.56721 0.91991 0.0
C177 C 0.49464 0.56257 0.00138 0.0
C178 C 0.47874 0.495 0.68446 0.0
C179 C 0.50577 0.45931 0.75118 0.0
C180 C 0.52536 0.47645 0.51649 0.0
C181 C 0.52158 0.45962 0.4759 0.0
C182 C 0.52984 0.45777 0.41088 0.0
C183 C 0.50971 0.44557 0.50041 0.0
C184 C 0.51455 0.4278 0.39469 0.0
C185 C 0.50623 0.42975 0.46012 0.0
C186 C 0.52636 0.44204 0.37057 0.0
C187 C 0.54602 0.49903 0.73201 0.0
O188 O 0.51505 0.52945 0.7314 0.0
O189 O 0.51748 0.52075 0.61695 0.0
O190 O 0.48726 0.51669 0.85307 0.0
O191 O 0.51561 0.50896 0.88198 0.0
O192 O 0.47675 0.4913 0.74976 0.0
O193 O 0.49393 0.50327 0.67407 0.0
O194 O 0.50806 0.46364 0.68507 0.0
O195 O 0.50657 0.472 0.80038 0.0
O196 O 0.53722 0.47475 0.5676 0.0
O197 O 0.5109 0.48672 0.53202 0.0
O198 O 0.54756 0.50264 0.66659 0.0
O199 O 0.53125 0.49009 0.74369 0.0
H200 H 0.48167 0.53558 0.00033 0.0
H201 H 0.5265 0.54389 0.85558 0.0
H202 H 0.53026 0.5759 0.8958 0.0
H203 H 0.48573 0.56747 0.04258 0.0
H204 H 0.53894 0.46858 0.39107 0.0
H205 H 0.50317 0.44684 0.55051 0.0
H206 H 0.49723 0.41897 0.48056 0.0
H207 H 0.53274 0.44115 0.32007 0.0
Gd208 Gd 0.99689 0.48726 0.71554 0.0
Gd209 Gd 0.01513 0.50259 0.57348 0.0
C210 C 0.97074 0.50493 0.59397 0.0
C211 C 0.97828 0.48071 0.82691 0.0
C212 C 0.9613 0.48685 0.8624 0.0
C213 C 0.95269 0.47465 0.90901 0.0
C214 C 0.95348 0.50449 0.85035 0.0
C215 C 0.92873 0.49773 0.93249 0.0
C216 C 0.93738 0.50995 0.88559 0.0
C217 C 0.93651 0.48 0.94361 0.0
C218 C 0.00668 0.46219 0.61872 0.0
C219 C 0.0413 0.49028 0.70505 0.0
C220 C 0.0309 0.50223 0.45399 0.0
C221 C 0.04927 0.50651 0.42374 0.0
C222 C 0.05028 0.51604 0.36056 0.0
C223 C 0.06581 0.50041 0.45548 0.0
C224 C 0.08411 0.51263 0.35953 0.0
C225 C 0.08301 0.50335 0.42357 0.0
C226 C 0.06751 0.51914 0.32884 0.0
C227 C 0.01191 0.52975 0.67026 0.0
O228 O 0.97309 0.50169 0.66098 0.0
O229 O 0.98455 0.50398 0.54869 0.0
O230 O 0.9758 0.4714 0.76945 0.0
O231 O 0.99213 0.49264 0.82398 0.0
O232 O 0.00787 0.4589 0.68455 0.0
O233 O 0.99957 0.47793 0.60817 0.0
O234 O 0.03992 0.49315 0.63733 0.0
O235 O 0.02673 0.48952 0.74681 0.0
O236 O 0.02092 0.51638 0.47581 0.0
O237 O 0.03018 0.48767 0.49508 0.0
O238 O 0.0189 0.53281 0.60932 0.0
O239 O 0.00778 0.51286 0.67396 0.0
H240 H 0.95851 0.46096 0.91876 0.0
H241 H 0.95976 0.514 0.81371 0.0
H242 H 0.93155 0.52361 0.87546 0.0
H243 H 0.93023 0.47036 0.97984 0.0
H244 H 0.03768 0.5209 0.33527 0.0
H245 H 0.06546 0.49304 0.50435 0.0
H246 H 0.09539 0.49787 0.44843 0.0
H247 H 0.0678 0.52662 0.28023 0.0
H248 H 0.16137 0.9661 0.14673 0.0
H249 H 0.14084 0.97239 0.24432 0.0
H250 H 0.15609 0.03051 0.23765 0.0
H251 H 0.17647 0.02441 0.139 0.0
H252 H 0.15101 0.98659 0.37193 0.0
H253 H 0.09907 0.03227 0.24152 0.0
H254 H 0.11541 0.01812 0.19418 0.0
H255 H 0.12295 0.03949 0.23354 0.0
C256 C 0.16025 0.98026 0.16557 0.0
C257 C 0.1705 0.99477 0.13502 0.0
C258 C 0.14855 0.98382 0.22143 0.0
C259 C 0.14684 0.00193 0.24778 0.0
C260 C 0.15697 0.01649 0.2173 0.0
H261 H 0.09331 0.01818 0.65257 0.0
H262 H 0.11607 0.02031 0.55818 0.0
C263 C 0.16865 0.01296 0.16113 0.0
C264 C 0.13486 0.00528 0.30857 0.0
H265 H 0.09524 0.02733 0.36119 0.0
C266 C 0.13888 0.9956 0.36986 0.0
C267 C 0.11903 0.01699 0.30536 0.0
C268 C 0.1137 0.02722 0.24004 0.0
C269 C 0.12723 0.99691 0.42766 0.0
C270 C 0.11134 0.00854 0.42438 0.0
C271 C 0.10756 0.01858 0.36363 0.0
C272 C 0.09746 0.00892 0.48073 0.0
C273 C 0.13156 0.98518 0.49051 0.0
C274 C 0.07937 0.00241 0.46779 0.0
C275 C 0.06643 0.0013 0.52114 0.0
C276 C 0.07133 0.00675 0.58843 0.0
C277 C 0.08927 0.01379 0.60115 0.0
C278 C 0.10225 0.01495 0.54747 0.0
H279 H 0.14211 0.97427 0.47945 0.0
H280 H 0.13714 0.99425 0.53205 0.0
H281 H 0.11876 0.9783 0.51018 0.0
H282 H 0.07541 0.99768 0.41668 0.0
H283 H 0.0527 0.99577 0.5099 0.0
H284 H 0.53899 0.16997 0.1499 0.0
H285 H 0.53581 0.14762 0.24457 0.0
H286 H 0.47651 0.15737 0.2489 0.0
H287 H 0.4795 0.17943 0.15302 0.0
H288 H 0.52314 0.15289 0.37496 0.0
H289 H 0.47886 0.10103 0.23939 0.0
H290 H 0.49066 0.11964 0.1945 0.0
H291 H 0.46933 0.12415 0.24005 0.0
C292 C 0.52525 0.1673 0.17072 0.0
C293 C 0.50948 0.1764 0.14366 0.0
C294 C 0.52346 0.15454 0.2249 0.0
C295 C 0.50589 0.15062 0.25316 0.0
C296 C 0.49014 0.15985 0.22686 0.0
H297 H 0.49476 0.0923 0.65038 0.0
H298 H 0.49266 0.11574 0.55813 0.0
C299 C 0.4919 0.17253 0.1723 0.0
C300 C 0.50423 0.13716 0.3111 0.0
H301 H 0.48409 0.096 0.35885 0.0
C302 C 0.51458 0.14046 0.37154 0.0
C303 C 0.49319 0.12087 0.30621 0.0
C304 C 0.48251 0.11607 0.24135 0.0
C305 C 0.51431 0.12785 0.42705 0.0
C306 C 0.50301 0.11172 0.42265 0.0
C307 C 0.49257 0.10848 0.3624 0.0
C308 C 0.50285 0.0974 0.47799 0.0
C309 C 0.52664 0.1316 0.48879 0.0
C310 C 0.50853 0.07915 0.46298 0.0
C311 C 0.50952 0.06575 0.51522 0.0
C312 C 0.50484 0.07036 0.58349 0.0
C313 C 0.49859 0.08846 0.59824 0.0
C314 C 0.49749 0.10186 0.54574 0.0
H315 H 0.53769 0.14197 0.47685 0.0
H316 H 0.51805 0.13726 0.53143 0.0
H317 H 0.5334 0.11859 0.50727 0.0
H318 H 0.51266 0.07537 0.41106 0.0
H319 H 0.51437 0.05189 0.50237 0.0
H320 H 0.35926 0.53854 0.23618 0.0
H321 H 0.38204 0.53193 0.327 0.0
H322 H 0.37013 0.47319 0.31046 0.0
H323 H 0.34745 0.47964 0.2187 0.0
H324 H 0.37699 0.51437 0.45444 0.0
H325 H 0.42701 0.47561 0.28945 0.0
H326 H 0.40841 0.48962 0.25385 0.0
H327 H 0.40351 0.46694 0.2888 0.0
C328 C 0.36147 0.52421 0.25174 0.0
C329 C 0.35161 0.50961 0.21994 0.0
C330 C 0.37448 0.52046 0.30373 0.0
C331 C 0.37793 0.50206 0.32481 0.0
C332 C 0.36791 0.48746 0.29405 0.0
H333 H 0.44447 0.47874 0.69811 0.0
H334 H 0.41922 0.47818 0.61213 0.0
C335 C 0.3549 0.49119 0.24188 0.0
C336 C 0.39203 0.49833 0.37915 0.0
H337 H 0.43441 0.47806 0.40791 0.0
C338 C 0.38949 0.50632 0.44454 0.0
C339 C 0.40837 0.48794 0.36569 0.0
C340 C 0.41215 0.47964 0.29555 0.0
C341 C 0.40302 0.50448 0.49664 0.0
C342 C 0.41936 0.4941 0.48321 0.0
C343 C 0.42176 0.48585 0.41816 0.0
C344 C 0.43483 0.49302 0.5339 0.0
C345 C 0.40005 0.5143 0.56461 0.0
C346 C 0.45211 0.501 0.51751 0.0
C347 C 0.46649 0.50125 0.56615 0.0
C348 C 0.46388 0.49346 0.63204 0.0
C349 C 0.44678 0.48494 0.6478 0.0
C350 C 0.43236 0.48468 0.59894 0.0
H351 H 0.38863 0.52473 0.56154 0.0
H352 H 0.39631 0.50389 0.60468 0.0
H353 H 0.41299 0.52148 0.58153 0.0
H354 H 0.45431 0.50749 0.46761 0.0
H355 H 0.47949 0.50798 0.55266 0.0
H356 H 0.00865 0.33647 0.13086 0.0
H357 H 0.0209 0.35762 0.21937 0.0
H358 H 0.96479 0.37201 0.27805 0.0
H359 H 0.95245 0.35078 0.19093 0.0
H360 H 0.01605 0.3956 0.23932 0.0
H361 H 0.98818 0.35566 0.46062 0.0
H362 H 0.98944 0.34611 0.37454 0.0
H363 H 0.97035 0.36102 0.39854 0.0
C364 C 0.99893 0.34418 0.16255 0.0
C365 C 0.97958 0.34184 0.15437 0.0
C366 C 0.00596 0.35622 0.21306 0.0
C367 C 0.99374 0.36602 0.25618 0.0
C368 C 0.97445 0.36418 0.24646 0.0
H369 H 0.99697 0.46514 0.48369 0.0
H370 H 0.99852 0.44101 0.39562 0.0
C371 C 0.96742 0.35213 0.19633 0.0
C372 C 0.00095 0.37837 0.31123 0.0
H373 H 0.99595 0.38775 0.48264 0.0
C374 C 0.01195 0.39375 0.29279 0.0
C375 C 0.99603 0.37564 0.3812 0.0
C376 C 0.98553 0.35859 0.40507 0.0
C377 C 0.01703 0.40722 0.34187 0.0
C378 C 0.01057 0.40538 0.41057 0.0
C379 C 0.00071 0.38931 0.42981 0.0
C380 C 0.01211 0.42068 0.46156 0.0
C381 C 0.02899 0.4234 0.31929 0.0
C382 C 0.01903 0.41726 0.5284 0.0
C383 C 0.01786 0.431 0.57935 0.0
C384 C 0.00976 0.44833 0.56407 0.0
C385 C 0.00343 0.45194 0.49667 0.0
C386 C 0.00448 0.4382 0.44605 0.0
H387 H 0.03834 0.41931 0.27623 0.0
H388 H 0.01989 0.43481 0.30017 0.0
H389 H 0.03763 0.4288 0.36252 0.0
H390 H 0.02483 0.40377 0.54163 0.0
H391 H 0.02283 0.4279 0.631 0.0
H392 H 0.86081 0.94042 0.04323 0.0
H393 H 0.88722 0.95131 0.97479 0.0
H394 H 0.88062 0.00655 0.05863 0.0
H395 H 0.8544 0.99568 0.12853 0.0
H396 H 0.88748 0.97813 0.87524 0.0
H397 H 0.93598 0.99704 0.08784 0.0
H398 H 0.91529 0.98323 0.10176 0.0
H399 H 0.91359 0.00812 0.09296 0.0
C400 C 0.86503 0.95487 0.04748 0.0
C401 C 0.85555 0.96718 0.09146 0.0
C402 C 0.88012 0.96106 0.00832 0.0
C403 C 0.88604 0.97967 0.01235 0.0
C404 C 0.87655 0.99204 0.05592 0.0
H405 H 0.95665 0.03123 0.69961 0.0
H406 H 0.93113 0.02395 0.7792 0.0
C407 C 0.8615 0.98583 0.09547 0.0
C408 C 0.90166 0.98618 0.96871 0.0
H409 H 0.94514 0.00553 0.97427 0.0
C410 C 0.90009 0.98412 0.89686 0.0
C411 C 0.91816 0.99382 -0.00281 0.0
C412 C 0.921 0.99555 0.07419 0.0
C413 C 0.91456 0.98948 0.85259 0.0
C414 C 0.93088 0.99753 0.8809 0.0
C415 C 0.93251 0.99955 0.95277 0.0
C416 C 0.9467 0.00322 0.83672 0.0
C417 C 0.91244 0.98601 0.77607 0.0
C418 C 0.96409 0.99451 0.8445 0.0
C419 C 0.97869 0.99883 0.79966 0.0
C420 C 0.97614 0.01193 0.74662 0.0
C421 C 0.95892 0.02104 0.74012 0.0
C422 C 0.94434 0.01683 0.78523 0.0
H423 H 0.90135 0.97561 0.76499 0.0
H424 H 0.90856 0.99923 0.74992 0.0
H425 H 0.9257 0.98098 0.75337 0.0
H426 H 0.96619 0.98394 0.88381 0.0
H427 H 0.99169 0.99136 0.8047 0.0
H428 H 0.50217 0.85272 0.12853 0.0
H429 H 0.49458 0.87935 0.05446 0.0
H430 H 0.55176 0.88212 0.98722 0.0
H431 H 0.55945 0.85537 0.06031 0.0
H432 H 0.50942 0.91561 0.05455 0.0
H433 H 0.52223 0.87956 0.8057 0.0
H434 H 0.51986 0.86718 0.88645 0.0
H435 H 0.54144 0.87853 0.86525 0.0
C436 C 0.51313 0.85896 0.09785 0.0
C437 C 0.53139 0.85185 0.0999 0.0
C438 C 0.50877 0.8742 0.05572 0.0
C439 C 0.52255 0.88252 0.01473 0.0
C440 C 0.54085 0.87566 0.0175 0.0
H441 H 0.51944 0.9896 0.80455 0.0
H442 H 0.52508 0.96406 0.88618 0.0
C443 C 0.54522 0.86042 0.05951 0.0
C444 C 0.51781 0.89841 0.96909 0.0
H445 H 0.51729 0.91223 0.80037 0.0
C446 C 0.51107 0.91489 -0.00106 0.0
C447 C 0.51976 0.8973 0.89656 0.0
C448 C 0.52605 0.87965 0.86136 0.0
C449 C 0.50651 0.93044 0.95812 0.0
C450 C 0.50902 0.92952 0.88577 0.0
C451 C 0.5155 0.91294 0.85593 0.0
C452 C 0.50486 0.94548 0.83962 0.0
C453 C 0.49876 0.9476 0.99263 0.0
C454 C 0.49183 0.94343 0.78595 0.0
C455 C 0.48868 0.95798 0.73934 0.0
C456 C 0.49849 0.97481 0.7457 0.0
C457 C 0.5114 0.97694 0.79972 0.0
C458 C 0.51462 0.96235 0.84625 0.0
H459 H 0.49314 0.9444 0.04474 0.0
H460 H 0.51007 0.95803 -0.00121 0.0
H461 H 0.48753 0.95398 0.9609 0.0
H462 H 0.48424 0.93049 0.7797 0.0
H463 H 0.47872 0.95597 0.69784 0.0
H464 H 0.66731 0.57572 0.12517 0.0
H465 H 0.64208 0.56559 0.04861 0.0
H466 H 0.64803 0.50929 0.12361 0.0
H467 H 0.67331 0.51925 0.20037 0.0
H468 H 0.64722 0.51323 0.97605 0.0
H469 H 0.58831 0.54972 0.10316 0.0
H470 H 0.60823 0.56406 0.08463 0.0
H471 H 0.61027 0.54542 0.14625 0.0
C472 C 0.6632 0.56119 0.1257 0.0
C473 C 0.6723 0.54829 0.16895 0.0
C474 C 0.64871 0.55546 0.0822 0.0
C475 C 0.64307 0.53675 0.08116 0.0
C476 C 0.65213 0.52382 0.12405 0.0
H477 H 0.54691 0.48895 0.86821 0.0
H478 H 0.57025 0.49785 0.95508 0.0
C479 C 0.66656 0.52955 0.16786 0.0
C480 C 0.62823 0.53053 0.03314 0.0
H481 H 0.58215 0.53615 0.99344 0.0
C482 C 0.63297 0.51815 0.98002 0.0
C483 C 0.60964 0.53687 0.03893 0.0
C484 C 0.60369 0.54963 0.09662 0.0
C485 C 0.61968 0.51229 0.93137 0.0
C486 C 0.60124 0.51909 0.93588 0.0
C487 C 0.59636 0.53109 0.98999 0.0
C488 C 0.58692 0.51408 0.88405 0.0
C489 C 0.62542 0.49885 0.8755 0.0
C490 C 0.58849 0.52048 0.81582 0.0
C491 C 0.57512 0.5156 0.76649 0.0
C492 C 0.55996 0.50424 0.78465 0.0
C493 C 0.55835 0.49791 0.85309 0.0
C494 C 0.57168 0.50291 0.90259 0.0
H495 H 0.63889 0.49193 0.88769 0.0
H496 H 0.61459 0.48799 0.86781 0.0
H497 H 0.62703 0.50655 0.82611 0.0
H498 H 0.60006 0.52929 0.80081 0.0
H499 H 0.57666 0.52072 0.71414 0.0
H500 H 0.92865 0.65375 0.02146 0.0
H501 H 0.94094 0.62781 0.95404 0.0
H502 H 0.99564 0.63726 0.04026 0.0
H503 H 0.98333 0.66292 0.10948 0.0
H504 H 0.96709 0.62912 0.85581 0.0
H505 H 0.99016 0.58162 0.06563 0.0
H506 H 0.97532 0.60147 0.08115 0.0
H507 H 1.00006 0.60453 0.07146 0.0
C508 C 0.94326 0.65021 0.02658 0.0
C509 C 0.95502 0.66035 0.07086 0.0
C510 C 0.95026 0.63538 0.98803 0.0
C511 C 0.96915 0.63044 0.9928 0.0
C512 C 0.98093 0.64053 0.03703 0.0
H513 H 0.02449 0.56546 0.67362 0.0
H514 H 0.01545 0.59 0.75483 0.0
C515 C 0.9739 0.65527 0.07617 0.0
C516 C 0.9766 0.6154 0.94847 0.0
H517 H 0.99949 0.57369 0.95153 0.0
C518 C 0.97414 0.61698 0.87676 0.0
C519 C 0.98563 0.5995 0.97601 0.0
C520 C 0.98781 0.59654 0.05281 0.0
C521 C 0.98046 0.60311 0.8317 0.0
C522 C 0.98999 0.58748 0.85901 0.0
C523 C 0.99239 0.58583 0.93075 0.0
C524 C 0.99688 0.57236 0.81392 0.0
C525 C 0.9764 0.60512 0.75546 0.0
C526 C 0.99008 0.55415 0.82221 0.0
C527 C 0.99546 0.54012 0.77658 0.0
C528 C 0.00766 0.54407 0.72204 0.0
C529 C 0.01495 0.56212 0.71511 0.0
C530 C 0.00972 0.57614 0.76115 0.0
H531 H 0.96485 0.6151 0.74554 0.0
H532 H 0.989 0.61048 0.72895 0.0
H533 H 0.97264 0.5915 0.73217 0.0
H534 H 0.98018 0.55093 0.86265 0.0
H535 H 0.98959 0.52637 0.78241 0.0
H536 H 0.95341 0.234 0.07127 0.0
H537 H 0.95831 0.20284 0.12091 0.0
H538 H 0.00836 0.22221 0.22151 0.0
H539 H 0.00345 0.25337 0.17277 0.0
H540 H 0.99354 0.17976 0.1055 0.0
H541 H 0.97462 0.19747 0.37605 0.0
H542 H 0.96693 0.2112 0.30296 0.0
H543 H 0.99053 0.21301 0.3331 0.0
C544 C 0.96538 0.23161 0.10433 0.0
C545 C 0.97822 0.24598 0.11738 0.0
C546 C 0.96821 0.21382 0.13226 0.0
C547 C 0.98368 0.21029 0.17479 0.0
C548 C 0.99633 0.22471 0.18886 0.0
H549 H 0.02398 0.11635 0.41275 0.0
H550 H 0.01854 0.14675 0.35906 0.0
C551 C 0.99359 0.24242 0.16054 0.0
C552 C 0.98671 0.19151 0.20436 0.0
H553 H 0.98682 0.1674 0.35643 0.0
C554 C 0.992 0.17697 0.16025 0.0
C555 C 0.98479 0.18805 0.27582 0.0
C556 C 0.97879 0.20318 0.32498 0.0
C557 C 0.99578 0.15905 0.18606 0.0
C558 C 0.99375 0.15552 0.25768 0.0
C559 C 0.98837 0.17011 0.3016 0.0
C560 C 0.99727 0.13688 0.28853 0.0
C561 C 0.00244 0.14425 0.13668 0.0
C562 C 0.98699 0.12125 0.26725 0.0
C563 C 0.99007 0.10384 0.29791 0.0
C564 C 0.00334 0.10178 0.35104 0.0
C565 C 0.01351 0.1175 0.37254 0.0
C566 C 0.01049 0.13487 0.34165 0.0
H567 H 0.00822 0.15043 0.0886 0.0
H568 H 0.0133 0.13534 0.16097 0.0
H569 H 0.99051 0.13523 0.12197 0.0
H570 H 0.97639 0.12256 0.22762 0.0
H571 H 0.98182 0.09206 0.2809 0.0
H572 H 0.25904 0.0125 0.16994 0.0
H573 H 0.2901 0.01204 0.22224 0.0
H574 H 0.3083 0.97252 0.06901 0.0
H575 H 0.27723 0.97332 0.01528 0.0
H576 H 0.30966 0.98127 0.27689 0.0
H577 H 0.34721 0.01501 0.05991 0.0
H578 H 0.32212 0.01373 0.06337 0.0
H579 H 0.33541 0.99381 0.03696 0.0
C580 C 0.26976 0.004 0.14662 0.0
C581 C 0.26592 0.99333 0.08752 0.0
C582 C 0.28743 0.00358 0.17698 0.0
C583 C 0.30156 0.99245 0.14891 0.0
C584 C 0.29766 0.98143 0.09075 0.0
H585 H 0.41857 0.98274 0.27169 0.0
H586 H 0.38832 0.97827 0.21515 0.0
C587 C 0.27992 0.98182 0.06041 0.0
C588 C 0.32028 0.99236 0.18137 0.0
H589 H 0.36565 0.00468 0.15447 0.0
C590 C 0.32193 0.98634 0.25014 0.0
C591 C 0.33625 0.99888 0.14613 0.0
C592 C 0.33521 0.00588 0.07268 0.0
C593 C 0.33912 0.98675 0.28485 0.0
C594 C 0.35501 0.99375 0.25028 0.0
C595 C 0.35344 0.99937 0.18096 0.0
C596 C 0.37321 0.99599 0.28581 0.0
C597 C 0.34014 0.97953 0.35804 0.0
C598 C 0.37478 0.00756 0.34393 0.0
C599 C 0.39202 0.01015 0.37628 0.0
C600 C 0.4081 0.00137 0.35071 0.0
C601 C 0.40649 0.98982 0.29233 0.0
C602 C 0.38921 0.98719 0.26011 0.0
H603 H 0.32856 0.9697 0.36931 0.0
H604 H 0.35358 0.97235 0.36807 0.0
H605 H 0.33897 0.99142 0.39436 0.0
H606 H 0.36271 0.01488 0.36358 0.0
H607 H 0.39284 0.01942 0.42027 0.0
H608 H 0.52845 0.28187 0.03197 0.0
H609 H 0.52765 0.31218 0.08972 0.0
H610 H 0.46898 0.30508 0.12974 0.0
H611 H 0.46989 0.27442 0.0749 0.0
H612 H 0.50598 0.34458 0.06395 0.0
H613 H 0.49154 0.31367 0.32216 0.0
H614 H 0.49908 0.29982 0.24974 0.0
H615 H 0.47533 0.3076 0.25493 0.0
C616 C 0.51536 0.28683 0.05277 0.0
C617 C 0.49915 0.27591 0.04785 0.0
C618 C 0.51491 0.30416 0.08545 0.0
C619 C 0.49829 0.31079 0.11444 0.0
C620 C 0.48198 0.30013 0.10824 0.0
H621 H 0.4816 0.40902 0.37529 0.0
H622 H 0.47614 0.38138 0.30388 0.0
C623 C 0.48245 0.28275 0.07576 0.0
C624 C 0.49836 0.32851 0.15356 0.0
H625 H 0.49369 0.34636 0.31599 0.0
C626 C 0.50321 0.34501 0.11899 0.0
C627 C 0.49468 0.329 0.22532 0.0
C628 C 0.49001 0.31159 0.26557 0.0
C629 C 0.50468 0.362 0.15449 0.0
C630 C 0.50148 0.36238 0.22655 0.0
C631 C 0.49612 0.34599 0.26073 0.0
C632 C 0.50461 0.3794 0.26821 0.0
C633 C 0.50964 0.37938 0.11459 0.0
C634 C 0.52249 0.38722 0.27272 0.0
C635 C 0.52569 0.40286 0.31389 0.0
C636 C 0.51108 0.41099 0.35163 0.0
C637 C 0.49319 0.40301 0.34745 0.0
C638 C 0.49001 0.38731 0.3063 0.0
H639 H 0.50643 0.37787 0.05867 0.0
H640 H 0.50204 0.39168 0.13483 0.0
H641 H 0.52481 0.38206 0.11992 0.0
H642 H 0.53405 0.38103 0.24518 0.0
H643 H 0.53971 0.40839 0.317 0.0
H644 H 0.2465 0.53839 0.06128 0.0
H645 H 0.21338 0.54094 0.09181 0.0
H646 H 0.21835 0.49199 0.22027 0.0
H647 H 0.25131 0.48942 0.18988 0.0
H648 H 0.18718 0.49127 0.13484 0.0
H649 H 0.19243 0.55833 0.27707 0.0
H650 H 0.20083 0.55865 0.18973 0.0
H651 H 0.21267 0.54485 0.25375 0.0
C652 C 0.24049 0.52827 0.09632 0.0
C653 C 0.25133 0.51356 0.12255 0.0
C654 C 0.22161 0.52974 0.11374 0.0
C655 C 0.21343 0.5167 0.15859 0.0
C656 C 0.22435 0.50213 0.18523 0.0
H657 H 0.1181 0.52001 0.41882 0.0
H658 H 0.14841 0.52148 0.36265 0.0
C659 C 0.24314 0.50063 0.16767 0.0
C660 C 0.19354 0.51807 0.17852 0.0
H661 H 0.1627 0.54463 0.26922 0.0
C662 C 0.18174 0.50298 0.16376 0.0
C663 C 0.18657 0.53335 0.21653 0.0
C664 C 0.19876 0.54968 0.23582 0.0
C665 C 0.16329 0.50246 0.18774 0.0
C666 C 0.15635 0.51766 0.2266 0.0
C667 C 0.16802 0.53301 0.23944 0.0
C668 C 0.13763 0.5173 0.25926 0.0
C669 C 0.15177 0.48526 0.17373 0.0
C670 C 0.12136 0.51478 0.21985 0.0
C671 C 0.10397 0.51351 0.25212 0.0
C672 C 0.10245 0.51504 0.32445 0.0
C673 C 0.11872 0.51831 0.36331 0.0
C674 C 0.13609 0.51936 0.33112 0.0
H675 H 0.16058 0.47321 0.15865 0.0
H676 H 0.14348 0.48127 0.21977 0.0
H677 H 0.14201 0.48814 0.13045 0.0
H678 H 0.12212 0.51362 0.16417 0.0
H679 H 0.09181 0.51087 0.2204 0.0
H680 H 0.96223 0.75662 0.03306 0.0
H681 H 0.97259 0.7874 0.9929 0.0
H682 H 0.97105 0.80778 0.20225 0.0
H683 H 0.96022 0.77729 0.24189 0.0
H684 H 0.9542 0.82234 0.01032 0.0
H685 H 0.02396 0.82181 0.13571 0.0
H686 H 0.0104 0.80087 0.12314 0.0
H687 H 0.00478 0.81661 0.19207 0.0
C688 C 0.9642 0.76767 0.07043 0.0
C689 C 0.96109 0.76439 0.14106 0.0
C690 C 0.97013 0.7852 0.0475 0.0
C691 C 0.97302 0.79973 0.09483 0.0
C692 C 0.96947 0.7966 0.16513 0.0
H693 H 0.00867 0.91508 0.06524 0.0
H694 H 0.9982 0.88428 0.10363 0.0
C695 C 0.96349 0.77912 0.18792 0.0
C696 C 0.97914 0.81834 0.07053 0.0
H697 H 0.01428 0.85023 0.08444 0.0
C698 C 0.96737 0.82842 0.02614 0.0
C699 C 0.99628 0.82625 0.09174 0.0
C700 C 0.00969 0.81581 0.13784 0.0
C701 C 0.97212 0.84639 0.00332 0.0
C702 C 0.98932 0.85429 0.02416 0.0
C703 C 0.0011 0.84417 0.06853 0.0
C704 C 0.99541 0.87302 0.00048 0.0
C705 C 0.95843 0.85693 0.95863 0.0
C706 C 0.99751 0.87686 0.9298 0.0
C707 C 0.00342 0.89445 0.90774 0.0
C708 C 0.00759 0.90849 0.95601 0.0
C709 C 0.00568 0.90453 0.02682 0.0
C710 C 0.99966 0.88696 0.04881 0.0
H711 H 0.94406 0.85133 0.96394 0.0
H712 H 0.95827 0.87198 0.97189 0.0
H713 H 0.96255 0.85555 0.90368 0.0
H714 H 0.9948 0.86618 0.89163 0.0
H715 H 0.0051 0.89695 0.8529 0.0
H716 H 0.75387 0.00304 0.17339 0.0
H717 H 0.72213 0.01039 0.13554 0.0
H718 H 0.71259 0.95238 0.08958 0.0
H719 H 0.74419 0.94487 0.12955 0.0
H720 H 0.70604 0.00491 0.0076 0.0
H721 H 0.66788 0.96649 0.21119 0.0
H722 H 0.69264 0.97074 0.21535 0.0
H723 H 0.68369 0.95193 0.16385 0.0
C724 C 0.74487 0.9918 0.15662 0.0
C725 C 0.75131 0.97331 0.15613 0.0
C726 C 0.72682 0.99605 0.13432 0.0
C727 C 0.71488 0.98189 0.11092 0.0
C728 C 0.72143 0.96346 0.1088 0.0
H729 H 0.61527 0.99855 0.86123 0.0
H730 H 0.64599 0.98987 0.90544 0.0
C731 C 0.73952 0.95921 0.13105 0.0
C732 C 0.69578 0.98651 0.08678 0.0
H733 H 0.64972 0.97736 0.1153 0.0
C734 C 0.69371 0.99893 0.0312 0.0
C735 C 0.67972 0.97895 0.11846 0.0
C736 C 0.68102 0.96643 0.18098 0.0
C737 C 0.67602 0.00373 0.00555 0.0
C738 C 0.65997 0.99554 0.03527 0.0
C739 C 0.66203 0.98341 0.09183 0.0
C740 C 0.64091 0.99971 0.00932 0.0
C741 C 0.67472 0.01783 0.94778 0.0
C742 C 0.62753 0.00735 0.05372 0.0
C743 C 0.6098 0.01199 0.02894 0.0
C744 C 0.60506 0.0091 0.95913 0.0
C745 C 0.61834 0.0009 0.91532 0.0
C746 C 0.63604 0.99616 0.94029 0.0
H747 H 0.68749 0.02656 0.94458 0.0
H748 H 0.67312 0.01041 0.89787 0.0
H749 H 0.66251 0.02714 0.95462 0.0
H750 H 0.63091 0.01003 0.10738 0.0
H751 H 0.59982 0.01792 0.06455 0.0
H752 H 0.55511 0.74165 0.1456 0.0
H753 H 0.55158 0.70939 0.10554 0.0
H754 H 0.49271 0.71177 0.14863 0.0
H755 H 0.4961 0.74407 0.18755 0.0
H756 H 0.53586 0.67847 0.18821 0.0
H757 H 0.49695 0.6926 0.94474 0.0
H758 H 0.51064 0.71021 0.98807 0.0
H759 H 0.48822 0.70375 0.02125 0.0
C760 C 0.54141 0.7353 0.14604 0.0
C761 C 0.52593 0.74522 0.17078 0.0
C762 C 0.53943 0.7169 0.12345 0.0
C763 C 0.52189 0.70826 0.12403 0.0
C764 C 0.50635 0.71824 0.14751 0.0
H765 H 0.48073 0.59919 0.00502 0.0
H766 H 0.48426 0.63135 0.04452 0.0
C767 C 0.50834 0.73659 0.17052 0.0
C768 C 0.51991 0.68863 0.10172 0.0
H769 H 0.50041 0.66103 0.97755 0.0
C770 C 0.52819 0.67461 0.14201 0.0
C771 C 0.50977 0.68372 0.04176 0.0
C772 C 0.50097 0.69832 0.99596 0.0
C773 C 0.52638 0.65572 0.12442 0.0
C774 C 0.51639 0.65078 0.06398 0.0
C775 C 0.50808 0.66484 0.02379 0.0
C776 C 0.51439 0.63113 0.04144 0.0
C777 C 0.53478 0.64121 0.17168 0.0
C778 C 0.53016 0.62036 0.02603 0.0
C779 C 0.52821 0.6019 0.00409 0.0
C780 C 0.51042 0.59388 0.99654 0.0
C781 C 0.49465 0.6048 0.01141 0.0
C782 C 0.49662 0.62323 0.03349 0.0
H783 H 0.53727 0.6468 0.2244 0.0
H784 H 0.52562 0.62878 0.17572 0.0
H785 H 0.5484 0.63669 0.1505 0.0
H786 H 0.544 0.62627 0.03046 0.0
H787 H 0.54066 0.59388 0.99357 0.0
H788 H 0.79056 0.53881 0.33706 0.0
H789 H 0.82066 0.53192 0.28319 0.0
H790 H 0.79526 0.53648 0.08157 0.0
H791 H 0.7654 0.54422 0.13531 0.0
H792 H 0.83179 0.5044 0.20597 0.0
H793 H 0.83924 0.56947 0.05532 0.0
H794 H 0.82146 0.56654 0.12006 0.0
H795 H 0.81799 0.55766 0.03392 0.0
C796 C 0.79145 0.53825 0.28126 0.0
C797 C 0.77573 0.54192 0.24019 0.0
C798 C 0.80863 0.53438 0.25057 0.0
C799 C 0.81033 0.53396 0.17832 0.0
C800 C 0.79447 0.53728 0.13733 0.0
H801 H 0.89678 0.47763 0.94935 0.0
H802 H 0.86871 0.48665 0.0123 0.0
C803 C 0.77739 0.54153 0.168 0.0
C804 C 0.82855 0.52955 0.14599 0.0
H805 H 0.8593 0.54427 0.02316 0.0
C806 C 0.83787 0.51321 0.16637 0.0
C807 C 0.83677 0.54124 0.09551 0.0
C808 C 0.82844 0.5598 0.07552 0.0
C809 C 0.85483 0.50795 0.13615 0.0
C810 C 0.86237 0.519 0.08235 0.0
C811 C 0.85337 0.53563 0.06355 0.0
C812 C 0.87944 0.5135 0.04432 0.0
C813 C 0.86459 0.49076 0.16304 0.0
C814 C 0.89456 0.52587 0.03905 0.0
C815 C 0.9105 0.52085 0.00206 0.0
C816 C 0.91163 0.50335 0.96992 0.0
C817 C 0.8964 0.49109 0.97459 0.0
C818 C 0.88041 0.49618 0.0109 0.0
H819 H 0.86054 0.48767 0.21723 0.0
H820 H 0.86053 0.47861 0.13097 0.0
H821 H 0.87997 0.49233 0.16088 0.0
H822 H 0.89409 0.53935 0.06403 0.0
H823 H 0.92207 0.53053 -0.00038 0.0
H824 H 0.05313 0.21106 0.96845 0.0
H825 H 0.06091 0.18092 0.91583 0.0
H826 H 0.00331 0.16416 0.93026 0.0
H827 H 0.99538 0.19419 0.98067 0.0
H828 H 0.05663 0.14435 0.95979 0.0
H829 H 0.01433 0.15765 0.72566 0.0
H830 H 0.02026 0.17581 0.78627 0.0
H831 H 0.00089 0.16049 0.80288 0.0
C832 C 0.04218 0.20089 0.96051 0.0
C833 C 0.02361 0.20505 0.97755 0.0
C834 C 0.04663 0.18373 0.93051 0.0
C835 C 0.03259 0.17057 0.91753 0.0
C836 C 0.01425 0.17437 0.93787 0.0
H837 H 0.0302 0.05385 0.85833 0.0
H838 H 0.03367 0.08555 0.90111 0.0
C839 C 0.00976 0.19151 0.96697 0.0
C840 C 0.0368 0.15284 0.88213 0.0
H841 H 0.02207 0.12565 0.74862 0.0
C842 C 0.04932 0.14032 0.913 0.0
C843 C 0.02763 0.14783 0.8201 0.0
C844 C 0.01519 0.16125 0.78139 0.0
C845 C 0.05203 0.12242 0.88568 0.0
C846 C 0.04156 0.11684 0.82716 0.0
C847 C 0.02992 0.1298 0.79403 0.0
C848 C 0.04131 0.09734 0.80208 0.0
C849 C 0.06598 0.10969 0.92016 0.0
C850 C 0.044 0.09344 0.73175 0.0
C851 C 0.04159 0.07535 0.70675 0.0
C852 C 0.03654 0.06082 0.75178 0.0
C853 C 0.03428 0.06468 0.8224 0.0
C854 C 0.03645 0.0828 0.84713 0.0
H855 H 0.07732 0.11781 0.94522 0.0
H856 H 0.05888 0.10154 0.96113 0.0
H857 H 0.07228 0.09985 0.88273 0.0
H858 H 0.04762 0.10448 0.69594 0.0
H859 H 0.04349 0.07281 0.65208 0.0
H860 H 0.31531 0.05545 0.06566 0.0
H861 H 0.34768 0.05842 0.02644 0.0
H862 H 0.33192 0.03699 0.8267 0.0
H863 H 0.29975 0.03394 0.86508 0.0
H864 H 0.36943 0.02724 0.97479 0.0
H865 H 0.36308 0.08439 0.78281 0.0
H866 H 0.34614 0.0806 0.85033 0.0
H867 H 0.34584 0.06638 0.77402 0.0
C868 C 0.3187 0.05167 0.01304 0.0
C869 C 0.30498 0.04446 0.96844 0.0
C870 C 0.33717 0.05334 0.99083 0.0
C871 C 0.34208 0.04814 0.92348 0.0
C872 C 0.32833 0.04137 0.8785 0.0
H873 H 0.4363 0.02897 0.66589 0.0
H874 H 0.40583 0.0342 0.7183 0.0
C875 C 0.30996 0.03956 0.9007 0.0
C876 C 0.36174 0.04836 0.90104 0.0
H877 H 0.39057 0.0657 0.77675 0.0
C878 C 0.37419 0.03585 0.93228 0.0
C879 C 0.36778 0.05953 0.84528 0.0
C880 C 0.35508 0.07362 0.81143 0.0
C881 C 0.39235 0.03354 0.90703 0.0
C882 C 0.39828 0.04441 0.85005 0.0
C883 C 0.38597 0.05736 0.82029 0.0
C884 C 0.41686 0.0419 0.81844 0.0
C885 C 0.40468 0.01887 0.93945 0.0
C886 C 0.43317 0.04479 0.85708 0.0
C887 C 0.45062 0.04168 0.82747 0.0
C888 C 0.45208 0.03584 0.75834 0.0
C889 C 0.4357 0.03345 0.71924 0.0
C890 C 0.41827 0.03644 0.74908 0.0
H891 H 0.39656 0.00879 0.97094 0.0
H892 H 0.41245 0.01104 0.89937 0.0
H893 H 0.41497 0.02572 0.97399 0.0
H894 H 0.4324 0.04942 0.91022 0.0
H895 H 0.46295 0.04385 0.85886 0.0
H896 H 0.45522 0.29562 0.97684 0.0
H897 H 0.47291 0.32399 0.95111 0.0
H898 H 0.43269 0.33861 0.79408 0.0
H899 H 0.41516 0.31009 0.81897 0.0
H900 H 0.48808 0.33826 0.81714 0.0
H901 H 0.43356 0.38294 0.93471 0.0
H902 H 0.43521 0.35823 0.95153 0.0
H903 H 0.42511 0.36649 0.87213 0.0
C904 C 0.45051 0.30452 0.93536 0.0
C905 C 0.43407 0.30043 0.89855 0.0
C906 C 0.46051 0.32084 0.92121 0.0
C907 C 0.45405 0.33338 0.87082 0.0
C908 C 0.43783 0.32914 0.83342 0.0
H909 H 0.50036 0.42934 0.66549 0.0
H910 H 0.48998 0.39807 0.69777 0.0
C911 C 0.42787 0.31286 0.84753 0.0
C912 C 0.46364 0.35136 0.85915 0.0
H913 H 0.45704 0.39832 0.87003 0.0
C914 C 0.48141 0.35142 0.8291 0.0
C915 C 0.45496 0.36844 0.87574 0.0
C916 C 0.43622 0.36913 0.91088 0.0
C917 C 0.49047 0.36824 0.81298 0.0
C918 C 0.48141 0.38533 0.82684 0.0
C919 C 0.46391 0.3852 0.85897 0.0
C920 C 0.48955 0.4036 0.80763 0.0
C921 C 0.50966 0.36761 0.78153 0.0
C922 C 0.49266 0.41712 0.85859 0.0
C923 C 0.49845 0.43504 0.84033 0.0
C924 C 0.50114 0.43986 0.77055 0.0
C925 C 0.49846 0.42613 0.71968 0.0
C926 C 0.49265 0.40818 0.73807 0.0
H927 H 0.51661 0.35401 0.79123 0.0
H928 H 0.50847 0.36955 0.7248 0.0
H929 H 0.51861 0.37893 0.80233 0.0
H930 H 0.49026 0.41389 0.91254 0.0
H931 H 0.50042 0.44521 0.88095 0.0
H932 H 0.19375 0.46168 0.0534 0.0
H933 H 0.16195 0.46224 0.00619 0.0
H934 H 0.18101 0.49483 0.83293 0.0
H935 H 0.21265 0.49457 0.8798 0.0
H936 H 0.14056 0.49718 0.96737 0.0
H937 H 0.1526 0.44797 0.75045 0.0
H938 H 0.16719 0.44846 0.82673 0.0
H939 H 0.16969 0.46608 0.76151 0.0
C940 C 0.19117 0.46886 0.00505 0.0
C941 C 0.2057 0.47801 0.9701 0.0
C942 C 0.17303 0.4692 0.97832 0.0
C943 C 0.16928 0.47837 0.91577 0.0
C944 C 0.18374 0.48749 0.88087 0.0
H945 H 0.07522 0.4977 0.64616 0.0
H946 H 0.106 0.49471 0.69984 0.0
C947 C 0.20178 0.48736 0.90787 0.0
C948 C 0.1502 0.4789 0.88715 0.0
H949 H 0.12397 0.46437 0.75024 0.0
C950 C 0.13681 0.48991 0.92025 0.0
C951 C 0.14554 0.46949 0.82547 0.0
C952 C 0.15943 0.4572 0.78897 0.0
C953 C 0.11892 0.49221 0.892 0.0
C954 C 0.11422 0.48281 0.83003 0.0
C955 C 0.1276 0.47159 0.79758 0.0
C956 C 0.09555 0.4845 0.79767 0.0
C957 C 0.10548 0.50519 0.92753 0.0
C958 C 0.07951 0.47944 0.8344 0.0
C959 C 0.06192 0.48129 0.80416 0.0
C960 C 0.06003 0.48796 0.73609 0.0
C961 C 0.07617 0.49255 0.69869 0.0
C962 C 0.09377 0.49086 0.7293 0.0
H963 H 0.11285 0.51522 0.96173 0.0
H964 H 0.09707 0.51317 0.88938 0.0
H965 H 0.09584 0.49691 0.96011 0.0
H966 H 0.08058 0.47399 0.88646 0.0
H967 H 0.04981 0.47738 0.83417 0.0
H968 H 0.00989 0.80134 0.41477 0.0
H969 H 0.01647 0.83209 0.4636 0.0
H970 H 0.9575 0.84355 0.47291 0.0
H971 H 0.95081 0.81271 0.42648 0.0
H972 H 0.00862 0.86521 0.40931 0.0
H973 H 0.97356 0.85932 0.66252 0.0
H974 H 0.97794 0.83935 0.60844 0.0
H975 H 0.95804 0.85405 0.59246 0.0
C976 C 0.99833 0.81032 0.42822 0.0
C977 C 0.97984 0.80458 0.41713 0.0
C978 C 0.00211 0.82788 0.45598 0.0
C979 C 0.98746 0.84 0.47288 0.0
C980 C 0.969 0.83425 0.46208 0.0
H981 H 0.99779 0.96052 0.50154 0.0
H982 H 0.99111 0.92856 0.46495 0.0
C983 C 0.96521 0.81664 0.4351 0.0
C984 C 0.99147 0.85909 0.49766 0.0
H985 H 0.98119 0.89019 0.62497 0.0
C986 C 0.00277 0.87064 0.4568 0.0
C987 C 0.984 0.86606 0.56002 0.0
C988 C 0.97288 0.85397 0.60872 0.0
C989 C 0.00654 0.88909 0.47594 0.0
C990 C 0.99827 0.89635 0.53645 0.0
C991 C 0.98726 0.88469 0.57797 0.0
C992 C 0.00142 0.9158 0.55911 0.0
C993 C 0.01967 0.90043 0.43186 0.0
C994 C 0.00862 0.91927 0.62525 0.0
C995 C 0.01206 0.93747 0.64676 0.0
C996 C 0.00848 0.95259 0.60232 0.0
C997 C 0.00089 0.94915 0.53659 0.0
C998 C 0.9972 0.93089 0.51545 0.0
H999 H 0.0289 0.89137 0.40048 0.0
H1000 H 0.01144 0.90919 0.39568 0.0
H1001 H 0.02852 0.90971 0.464 0.0
H1002 H 0.0119 0.90785 0.65993 0.0
H1003 H 0.01797 0.93961 0.69769 0.0
H1004 H 0.69645 0.95943 0.34737 0.0
H1005 H 0.66467 0.9615 0.39163 0.0
H1006 H 0.67268 0.01996 0.43358 0.0
H1007 H 0.70441 0.01813 0.38821 0.0
H1008 H 0.65287 0.97206 0.52269 0.0
H1009 H 0.62434 0.01884 0.31993 0.0
H1010 H 0.64618 0.00663 0.3104 0.0
H1011 H 0.64506 0.02765 0.36067 0.0
C1012 C 0.69144 0.97276 0.36573 0.0
C1013 C 0.7029 0.98865 0.36394 0.0
C1014 C 0.67329 0.97389 0.39107 0.0
C1015 C 0.66629 0.99092 0.41495 0.0
C1016 C 0.67775 0.00677 0.4141 0.0
H1017 H 0.57265 0.01219 0.68081 0.0
H1018 H 0.60327 0.0056 0.63217 0.0
C1019 C 0.69589 0.00567 0.38859 0.0
C1020 C 0.64711 0.99203 0.44219 0.0
H1021 H 0.60557 0.0143 0.4198 0.0
C1022 C 0.64245 0.98119 0.50003 0.0
C1023 C 0.63352 0.00369 0.41162 0.0
C1024 C 0.63742 0.01473 0.34681 0.0
C1025 C 0.62464 0.98211 0.52945 0.0
C1026 C 0.61132 0.99449 0.50098 0.0
C1027 C 0.61586 0.00494 0.44195 0.0
C1028 C 0.5927 0.99718 0.53208 0.0
C1029 C 0.62022 0.96968 0.5902 0.0
C1030 C 0.5766 0.99488 0.49169 0.0
C1031 C 0.55908 0.99892 0.51896 0.0
C1032 C 0.55735 0.00532 0.58724 0.0
C1033 C 0.57348 0.00717 0.62816 0.0
C1034 C 0.591 0.00329 0.60059 0.0
H1035 H 0.62944 0.95724 0.59154 0.0
H1036 H 0.62251 0.97755 0.63878 0.0
H1037 H 0.6055 0.96493 0.58879 0.0
H1038 H 0.57762 0.99021 0.43863 0.0
H1039 H 0.54694 0.99727 0.48615 0.0
H1040 H 0.4857 0.69165 0.39082 0.0
H1041 H 0.48734 0.66064 0.44312 0.0
H1042 H 0.53389 0.67822 0.56857 0.0
H1043 H 0.53252 0.70919 0.51607 0.0
H1044 H 0.54028 0.64527 0.49776 0.0
H1045 H 0.47284 0.64274 0.6369 0.0
H1046 H 0.47075 0.64909 0.54742 0.0
H1047 H 0.48293 0.66425 0.60601 0.0
C1048 C 0.49613 0.689 0.4302 0.0
C1049 C 0.509 0.70287 0.44925 0.0
C1050 C 0.49699 0.6713 0.46026 0.0
C1051 C 0.51061 0.66723 0.5102 0.0
C1052 C 0.52323 0.68114 0.53026 0.0
H1053 H 0.5153 0.56432 0.74906 0.0
H1054 H 0.51499 0.59705 0.71408 0.0
C1055 C 0.52241 0.69882 0.50022 0.0
C1056 C 0.5125 0.64813 0.53818 0.0
H1057 H 0.48912 0.61395 0.62484 0.0
C1058 C 0.52916 0.63845 0.52603 0.0
C1059 C 0.49803 0.63938 0.5756 0.0
C1060 C 0.48018 0.64944 0.59292 0.0
C1061 C 0.53158 0.62005 0.54879 0.0
C1062 C 0.51682 0.61105 0.58372 0.0
C1063 C 0.50034 0.62088 0.59754 0.0
C1064 C 0.51803 0.59129 0.60505 0.0
C1065 C 0.54991 0.61043 0.53553 0.0
C1066 C 0.51988 0.57725 0.55525 0.0
C1067 C 0.52012 0.55853 0.575 0.0
C1068 C 0.51838 0.55351 0.64495 0.0
C1069 C 0.51674 0.56766 0.6948 0.0
C1070 C 0.5165 0.58638 0.67494 0.0
H1071 H 0.56127 0.62061 0.52553 0.0
H1072 H 0.55399 0.60151 0.58 0.0
H1073 H 0.54852 0.60142 0.4893 0.0
H1074 H 0.52075 0.58076 0.5009 0.0
H1075 H 0.5213 0.548 0.53523 0.0
H1076 H 0.79763 0.50598 0.37443 0.0
H1077 H 0.82978 0.5167 0.39061 0.0
H1078 H 0.84209 0.46701 0.50747 0.0
H1079 H 0.80991 0.45645 0.49277 0.0
H1080 H 0.85046 0.52263 0.51765 0.0
H1081 H 0.88181 0.46833 0.35171 0.0
H1082 H 0.85732 0.47411 0.34876 0.0
H1083 H 0.8662 0.45898 0.41534 0.0
C1084 C 0.80703 0.49753 0.40454 0.0
C1085 C 0.80117 0.4805 0.43337 0.0
C1086 C 0.82546 0.50359 0.41313 0.0
C1087 C 0.83832 0.49254 0.44941 0.0
C1088 C 0.83243 0.47562 0.47842 0.0
H1089 H 0.93867 0.5066 0.66978 0.0
H1090 H 0.90678 0.50734 0.62678 0.0
C1091 C 0.81406 0.46965 0.47024 0.0
C1092 C 0.85794 0.49851 0.45786 0.0
H1093 H 0.90244 0.48358 0.4314 0.0
C1094 C 0.86187 0.5143 0.49793 0.0
C1095 C 0.87278 0.48786 0.43075 0.0
C1096 C 0.86936 0.47148 0.38362 0.0
C1097 C 0.8803 0.51902 0.51537 0.0
C1098 C 0.89507 0.50744 0.49305 0.0
C1099 C 0.89114 0.49236 0.44922 0.0
C1100 C 0.91444 0.50961 0.51899 0.0
C1101 C 0.88373 0.53621 0.55829 0.0
C1102 C 0.92946 0.51056 0.47278 0.0
C1103 C 0.94782 0.50991 0.49721 0.0
C1104 C 0.9515 0.50816 0.56837 0.0
C1105 C 0.93641 0.50797 0.61464 0.0
C1106 C 0.9181 0.50856 0.59016 0.0
H1107 H 0.87259 0.54674 0.54996 0.0
H1108 H 0.88364 0.53234 0.61381 0.0
H1109 H 0.89741 0.54266 0.54609 0.0
H1110 H 0.92696 0.51125 0.41761 0.0
H1111 H 0.95908 0.5101 0.46007 0.0
loop_
_geom_bond_atom_site_label_1
_geom_bond_atom_site_label_2
_geom_bond_distance
_geom_bond_site_symmetry_2
_ccdc_geom_bond_type
O0 Cd1 2.300 . S
O0 C7 1.275 . S
Cd1 O0 2.300 . S
Cd1 O9 2.381 . S
Cd1 O10 2.378 . S
O2 Cd3 2.385 . S
O2 C7 1.255 . S
Cd3 O2 2.385 . S
Cd3 O4 2.317 . S
O4 Cd3 2.317 . S
O4 C5 1.232 . S
C5 O4 1.232 . S
C5 O6 1.218 . S
O6 C5 1.218 . S
C7 O0 1.275 . S
C7 O2 1.255 . S
C8 O9 1.258 . S
C8 O10 1.256 . S
O9 Cd1 2.381 . S
O9 C8 1.258 . S
O10 Cd1 2.378 . S
O10 C8 1.256 . S
O11 Cd12 2.300 1_655 S
O11 C18 1.276 1_655 S
Cd12 O11 2.300 1_455 S
Cd12 O20 2.381 1_455 S
Cd12 O21 2.378 . S
O13 Cd14 2.385 . S
O13 C18 1.254 . S
Cd14 O13 2.385 . S
Cd14 O15 2.317 . S
O15 Cd14 2.317 . S
O15 C16 1.232 . S
C16 O15 1.232 . S
C16 O17 1.218 . S
O17 C16 1.218 . S
C18 O11 1.276 1_455 S
C18 O13 1.254 . S
C19 O20 1.258 . S
C19 O21 1.256 1_655 S
O20 Cd12 2.381 1_655 S
O20 C19 1.258 . S
O21 Cd12 2.378 . S
O21 C19 1.256 1_455 S
O22 Cd23 2.300 1_565 S
O22 C29 1.285 . S
Cd23 O22 2.300 1_545 S
Cd23 O31 2.381 1_545 S
Cd23 O32 2.378 . S
O24 Cd25 2.385 . S
O24 C29 1.239 1_545 S
Cd25 O24 2.385 . S
Cd25 O26 2.317 . S
O26 Cd25 2.317 . S
O26 C27 1.232 . S
C27 O26 1.232 . S
C27 O28 1.218 . S
O28 C27 1.218 . S
C29 O22 1.285 . S
C29 O24 1.239 1_565 S
C30 O31 1.258 . S
C30 O32 1.256 1_565 S
O31 Cd23 2.381 1_565 S
O31 C30 1.258 . S
O32 Cd23 2.378 . S
O32 C30 1.256 1_545 S
O33 Cd34 2.300 . S
O33 C40 1.275 . S
Cd34 O33 2.300 . S
Cd34 O42 2.381 . S
Cd34 O43 2.378 . S
O35 Cd36 2.385 . S
O35 C40 1.255 . S
Cd36 O35 2.385 . S
Cd36 O37 2.317 . S
O37 Cd36 2.317 . S
O37 C38 1.232 . S
C38 O37 1.232 . S
C38 O39 1.218 . S
O39 C38 1.218 . S
C40 O33 1.275 . S
C40 O35 1.255 . S
C41 O42 1.258 . S
C41 O43 1.256 . S
O42 Cd34 2.381 . S
O42 C41 1.258 . S
O43 Cd34 2.378 . S
O43 C41 1.256 . S
O44 Cd45 2.300 . S
O44 C51 1.275 . S
Cd45 O44 2.300 . S
Cd45 O53 2.381 . S
Cd45 O54 2.378 . S
O46 Cd47 2.385 1_554 S
O46 C51 1.255 . S
Cd47 O46 2.385 1_556 S
Cd47 O48 2.317 . S
O48 Cd47 2.317 . S
O48 C49 1.232 . S
C49 O48 1.232 . S
C49 O50 1.218 . S
O50 C49 1.218 . S
C51 O44 1.275 . S
C51 O46 1.255 . S
C52 O53 1.258 . S
C52 O54 1.256 . S
O53 Cd45 2.381 . S
O53 C52 1.258 . S
O54 Cd45 2.378 . S
O54 C52 1.256 . S
O55 Cd56 2.300 . S
O55 C62 1.275 . S
Cd56 O55 2.300 . S
Cd56 O64 2.381 . S
Cd56 O65 2.378 . S
O57 Cd58 2.385 1_554 S
O57 C62 1.255 . S
Cd58 O57 2.385 1_556 S
Cd58 O59 2.317 . S
O59 Cd58 2.317 . S
O59 C60 1.232 . S
C60 O59 1.232 . S
C60 O61 1.218 . S
O61 C60 1.218 . S
C62 O55 1.275 . S
C62 O57 1.255 . S
C63 O64 1.258 . S
C63 O65 1.256 . S
O64 Cd56 2.381 . S
O64 C63 1.258 . S
O65 Cd56 2.378 . S
O65 C63 1.256 . S
O66 Cd67 2.300 . S
O66 C73 1.275 . S
Cd67 O66 2.300 . S
Cd67 O75 2.381 . S
Cd67 O76 2.378 . S
O68 Cd69 2.385 1_554 S
O68 C73 1.255 . S
Cd69 O68 2.385 1_556 S
Cd69 O70 2.317 . S
O70 Cd69 2.317 . S
O70 C71 1.232 . S
C71 O70 1.232 . S
C71 O72 1.218 . S
O72 C71 1.218 . S
C73 O66 1.275 . S
C73 O68 1.255 . S
C74 O75 1.258 . S
C74 O76 1.256 . S
O75 Cd67 2.381 . S
O75 C74 1.258 . S
O76 Cd67 2.378 . S
O76 C74 1.256 . S
O77 Cd78 2.300 . S
O77 C84 1.275 . S
Cd78 O77 2.300 . S
Cd78 O86 2.381 . S
Cd78 O87 2.378 . S
O79 Cd80 2.385 1_554 S
O79 C84 1.255 . S
Cd80 O79 2.385 1_556 S
Cd80 O81 2.317 . S
O81 Cd80 2.317 . S
O81 C82 1.232 . S
C82 O81 1.232 . S
C82 O83 1.218 . S
O83 C82 1.218 . S
C84 O77 1.275 . S
C84 O79 1.255 . S
C85 O86 1.258 . S
C85 O87 1.256 . S
O86 Cd78 2.381 . S
O86 C85 1.258 . S
O87 Cd78 2.378 . S
O87 C85 1.256 . S
Gd88 C91 2.818 . S
Gd88 O108 2.377 . S
Gd88 O110 2.448 . S
Gd88 O111 2.506 . S
Gd88 O112 2.435 . S
Gd88 O113 2.717 1_565 S
Gd88 O115 2.395 1_565 S
Gd88 O119 2.323 1_465 S
Gd89 C100 2.818 . S
Gd89 O109 2.395 1_545 S
Gd89 O113 2.327 1_655 S
Gd89 O114 2.389 . S
Gd89 O116 2.448 . S
Gd89 O117 2.506 1_655 S
Gd89 O118 2.435 . S
Gd89 O119 2.726 . S
C90 O108 1.240 1_655 S
C90 O109 1.240 . S
C91 Gd88 2.818 . S
C91 C92 1.510 . S
C91 O110 1.249 . S
C91 O111 1.252 . S
C92 C91 1.510 . S
C92 C93 1.404 . S
C92 C94 1.352 . S
C93 C92 1.404 . S
C93 C97 1.389 . S
C93 H120 0.930 . S
C94 C92 1.352 . S
C94 C96 1.374 . S
C94 H121 0.931 1_455 S
C95 C96 1.359 . S
C95 C97 1.364 . S
C96 C94 1.374 . S
C96 C95 1.359 . S
C96 H122 0.931 1_455 S
C97 C93 1.389 . S
C97 C95 1.364 . S
C97 H123 0.931 . S
C98 O112 1.256 1_545 S
C98 O113 1.257 . S
C99 O114 1.203 1_455 S
C99 O115 1.240 . S
C100 Gd89 2.818 . S
C100 C101 1.510 . S
C100 O116 1.249 . S
C100 O117 1.252 1_655 S
C101 C100 1.510 . S
C101 C102 1.404 . S
C101 C103 1.352 1_655 S
C102 C101 1.404 . S
C102 C106 1.389 . S
C102 H124 0.930 . S
C103 C101 1.352 1_455 S
C103 C105 1.374 . S
C103 H125 0.931 . S
C104 C105 1.359 1_655 S
C104 C106 1.364 . S
C105 C103 1.374 . S
C105 C104 1.359 1_455 S
C105 H126 0.931 . S
C106 C102 1.389 . S
C106 C104 1.364 . S
C106 H127 0.931 . S
C107 O118 1.256 . S
C107 O119 1.264 . S
O108 Gd88 2.377 . S
O108 C90 1.240 1_455 S
O109 Gd89 2.395 1_565 S
O109 C90 1.240 . S
O110 Gd88 2.448 . S
O110 C91 1.249 . S
O111 Gd88 2.506 . S
O111 C91 1.252 . S
O112 Gd88 2.435 . S
O112 C98 1.256 1_565 S
O113 Gd88 2.717 1_545 S
O113 Gd89 2.327 1_455 S
O113 C98 1.257 . S
O114 Gd89 2.389 . S
O114 C99 1.203 1_655 S
O115 Gd88 2.395 1_545 S
O115 C99 1.240 . S
O116 Gd89 2.448 . S
O116 C100 1.249 . S
O117 Gd89 2.506 1_455 S
O117 C100 1.252 1_455 S
O118 Gd89 2.435 . S
O118 C107 1.256 . S
O119 Gd88 2.323 1_645 S
O119 Gd89 2.726 . S
O119 C107 1.264 . S
H120 C93 0.930 . S
H121 C94 0.931 1_655 S
H122 C96 0.931 1_655 S
H123 C97 0.931 . S
H124 C102 0.930 . S
H125 C103 0.931 . S
H126 C105 0.931 . S
H127 C106 0.931 . S
Gd128 C131 2.818 . S
Gd128 O148 2.377 . S
Gd128 O150 2.448 . S
Gd128 O151 2.506 . S
Gd128 O152 2.435 . S
Gd128 O153 2.717 . S
Gd128 O155 2.395 . S
Gd128 O159 2.327 1_545 S
Gd129 C140 2.818 . S
Gd129 O149 2.395 . S
Gd129 O153 2.327 1_565 S
Gd129 O154 2.390 . S
Gd129 O156 2.448 . S
Gd129 O157 2.506 1_565 S
Gd129 O158 2.435 . S
Gd129 O159 2.717 . S
C130 O148 1.240 1_565 S
C130 O149 1.240 . S
C131 Gd128 2.818 . S
C131 C132 1.510 . S
C131 O150 1.249 . S
C131 O151 1.252 . S
C132 C131 1.510 . S
C132 C133 1.404 . S
C132 C134 1.352 . S
C133 C132 1.404 . S
C133 C137 1.389 . S
C133 H160 0.930 . S
C134 C132 1.352 . S
C134 C136 1.374 . S
C134 H161 0.931 1_545 S
C135 C136 1.359 . S
C135 C137 1.364 . S
C136 C134 1.374 . S
C136 C135 1.359 . S
C136 H162 0.931 1_545 S
C137 C133 1.389 . S
C137 C135 1.364 . S
C137 H163 0.931 . S
C138 O152 1.256 . S
C138 O153 1.257 . S
C139 O154 1.200 1_545 S
C139 O155 1.240 . S
C140 Gd129 2.818 . S
C140 C141 1.510 . S
C140 O156 1.249 . S
C140 O157 1.252 1_565 S
C141 C140 1.510 . S
C141 C142 1.404 . S
C141 C143 1.352 1_565 S
C142 C141 1.404 . S
C142 C146 1.389 . S
C142 H164 0.930 . S
C143 C141 1.352 1_545 S
C143 C145 1.374 . S
C143 H165 0.931 . S
C144 C145 1.359 1_565 S
C144 C146 1.364 . S
C145 C143 1.374 . S
C145 C144 1.359 1_545 S
C145 H166 0.931 . S
C146 C142 1.389 . S
C146 C144 1.364 . S
C146 H167 0.931 . S
C147 O158 1.256 . S
C147 O159 1.257 . S
O148 Gd128 2.377 . S
O148 C130 1.240 1_545 S
O149 Gd129 2.395 . S
O149 C130 1.240 . S
O150 Gd128 2.448 . S
O150 C131 1.249 . S
O151 Gd128 2.506 . S
O151 C131 1.252 . S
O152 Gd128 2.435 . S
O152 C138 1.256 . S
O153 Gd128 2.717 . S
O153 Gd129 2.327 1_545 S
O153 C138 1.257 . S
O154 Gd129 2.390 . S
O154 C139 1.200 1_565 S
O155 Gd128 2.395 . S
O155 C139 1.240 . S
O156 Gd129 2.448 . S
O156 C140 1.249 . S
O157 Gd129 2.506 1_545 S
O157 C140 1.252 1_545 S
O158 Gd129 2.435 . S
O158 C147 1.256 . S
O159 Gd128 2.327 1_565 S
O159 Gd129 2.717 . S
O159 C147 1.257 . S
H160 C133 0.930 . S
H161 C134 0.931 1_565 S
H162 C136 0.931 1_565 S
H163 C137 0.931 . S
H164 C142 0.930 . S
H165 C143 0.931 . S
H166 C145 0.931 . S
H167 C146 0.931 . S
Gd168 C171 2.818 . S
Gd168 O188 2.377 . S
Gd168 O190 2.448 . S
Gd168 O191 2.506 . S
Gd168 O192 2.435 . S
Gd168 O193 2.717 . S
Gd168 O195 2.395 . S
Gd168 O199 2.327 . S
Gd169 C180 2.818 . S
Gd169 O189 2.395 . S
Gd169 O193 2.327 . S
Gd169 O194 2.377 . S
Gd169 O196 2.448 . S
Gd169 O197 2.506 . S
Gd169 O198 2.435 . S
Gd169 O199 2.717 . S
C170 O188 1.240 . S
C170 O189 1.240 . S
C171 Gd168 2.818 . S
C171 C172 1.510 . S
C171 O190 1.249 . S
C171 O191 1.252 . S
C172 C171 1.510 . S
C172 C173 1.404 . S
C172 C174 1.352 . S
C173 C172 1.404 . S
C173 C177 1.389 . S
C173 H200 0.930 . S
C174 C172 1.352 . S
C174 C176 1.374 . S
C174 H201 0.931 . S
C175 C176 1.359 . S
C175 C177 1.364 . S
C176 C174 1.374 . S
C176 C175 1.359 . S
C176 H202 0.931 . S
C177 C173 1.389 . S
C177 C175 1.364 . S
C177 H203 0.931 . S
C178 O192 1.256 . S
C178 O193 1.257 . S
C179 O194 1.240 . S
C179 O195 1.240 . S
C180 Gd169 2.818 . S
C180 C181 1.510 . S
C180 O196 1.249 . S
C180 O197 1.252 . S
C181 C180 1.510 . S
C181 C182 1.404 . S
C181 C183 1.352 . S
C182 C181 1.404 . S
C182 C186 1.389 . S
C182 H204 0.930 . S
C183 C181 1.352 . S
C183 C185 1.374 . S
C183 H205 0.931 . S
C184 C185 1.359 . S
C184 C186 1.364 . S
C185 C183 1.374 . S
C185 C184 1.359 . S
C185 H206 0.931 . S
C186 C182 1.389 . S
C186 C184 1.364 . S
C186 H207 0.931 . S
C187 O198 1.256 . S
C187 O199 1.257 . S
O188 Gd168 2.377 . S
O188 C170 1.240 . S
O189 Gd169 2.395 . S
O189 C170 1.240 . S
O190 Gd168 2.448 . S
O190 C171 1.249 . S
O191 Gd168 2.506 . S
O191 C171 1.252 . S
O192 Gd168 2.435 . S
O192 C178 1.256 . S
O193 Gd168 2.717 . S
O193 Gd169 2.327 . S
O193 C178 1.257 . S
O194 Gd169 2.377 . S
O194 C179 1.240 . S
O195 Gd168 2.395 . S
O195 C179 1.240 . S
O196 Gd169 2.448 . S
O196 C180 1.249 . S
O197 Gd169 2.506 . S
O197 C180 1.252 . S
O198 Gd169 2.435 . S
O198 C187 1.256 . S
O199 Gd168 2.327 . S
O199 Gd169 2.717 . S
O199 C187 1.257 . S
H200 C173 0.930 . S
H201 C174 0.931 . S
H202 C176 0.931 . S
H203 C177 0.931 . S
H204 C182 0.930 . S
H205 C183 0.931 . S
H206 C185 0.931 . S
H207 C186 0.931 . S
Gd208 C211 2.818 . S
Gd208 O228 2.377 . S
Gd208 O230 2.448 . S
Gd208 O231 2.506 . S
Gd208 O232 2.435 . S
Gd208 O233 2.717 1_655 S
Gd208 O235 2.395 1_655 S
Gd208 O239 2.321 1_655 S
Gd209 C220 2.818 . S
Gd209 O229 2.395 1_455 S
Gd209 O233 2.327 . S
Gd209 O234 2.377 . S
Gd209 O236 2.448 . S
Gd209 O237 2.506 . S
Gd209 O238 2.435 . S
Gd209 O239 2.730 . S
C210 O228 1.240 . S
C210 O229 1.240 . S
C211 Gd208 2.818 . S
C211 C212 1.510 . S
C211 O230 1.249 . S
C211 O231 1.252 . S
C212 C211 1.510 . S
C212 C213 1.404 . S
C212 C214 1.352 . S
C213 C212 1.404 . S
C213 C217 1.389 . S
C213 H240 0.930 . S
C214 C212 1.352 . S
C214 C216 1.374 . S
C214 H241 0.931 . S
C215 C216 1.359 . S
C215 C217 1.364 . S
C216 C214 1.374 . S
C216 C215 1.359 . S
C216 H242 0.931 . S
C217 C213 1.389 . S
C217 C215 1.364 . S
C217 H243 0.931 . S
C218 O232 1.256 1_455 S
C218 O233 1.257 . S
C219 O234 1.240 . S
C219 O235 1.240 . S
C220 Gd209 2.818 . S
C220 C221 1.510 . S
C220 O236 1.249 . S
C220 O237 1.252 . S
C221 C220 1.510 . S
C221 C222 1.404 . S
C221 C223 1.352 . S
C222 C221 1.404 . S
C222 C226 1.389 . S
C222 H244 0.930 . S
C223 C221 1.352 . S
C223 C225 1.374 . S
C223 H245 0.931 . S
C224 C225 1.359 . S
C224 C226 1.364 . S
C225 C223 1.374 . S
C225 C224 1.359 . S
C225 H246 0.931 . S
C226 C222 1.389 . S
C226 C224 1.364 . S
C226 H247 0.931 . S
C227 O238 1.256 . S
C227 O239 1.267 . S
O228 Gd208 2.377 . S
O228 C210 1.240 . S
O229 Gd209 2.395 1_655 S
O229 C210 1.240 . S
O230 Gd208 2.448 . S
O230 C211 1.249 . S
O231 Gd208 2.506 . S
O231 C211 1.252 . S
O232 Gd208 2.435 . S
O232 C218 1.256 1_655 S
O233 Gd208 2.717 1_455 S
O233 Gd209 2.327 . S
O233 C218 1.257 . S
O234 Gd209 2.377 . S
O234 C219 1.240 . S
O235 Gd208 2.395 1_455 S
O235 C219 1.240 . S
O236 Gd209 2.448 . S
O236 C220 1.249 . S
O237 Gd209 2.506 . S
O237 C220 1.252 . S
O238 Gd209 2.435 . S
O238 C227 1.256 . S
O239 Gd208 2.321 1_455 S
O239 Gd209 2.730 . S
O239 C227 1.267 . S
H240 C213 0.930 . S
H241 C214 0.931 . S
H242 C216 0.931 . S
H243 C217 0.931 . S
H244 C222 0.930 . S
H245 C223 0.931 . S
H246 C225 0.931 . S
H247 C226 0.931 . S
H248 C256 0.929 . S
H249 C258 0.930 . S
H250 C260 0.930 . S
H251 C263 0.929 . S
H252 C266 0.930 . S
H253 C268 0.960 . S
H254 C268 0.960 . S
H255 C268 0.960 . S
C256 H248 0.929 . S
C256 C257 1.377 . S
C256 C258 1.384 . S
C257 C256 1.377 . S
C257 C263 1.390 . S
C258 H249 0.930 . S
C258 C256 1.384 . S
C258 C259 1.372 . S
C259 C258 1.372 . S
C259 C260 1.400 . S
C259 C264 1.490 . S
C260 H250 0.930 . S
C260 C259 1.400 . S
C260 C263 1.386 . S
H261 C277 0.930 . S
H262 C278 0.931 . S
C263 H251 0.929 . S
C263 C257 1.390 . S
C263 C260 1.386 . S
C264 C259 1.490 . S
C264 C266 1.395 1_545 S
C264 C267 1.403 . S
H265 C271 0.930 . S
C266 H252 0.930 . S
C266 C264 1.395 1_565 S
C266 C269 1.403 . S
C267 C264 1.403 . S
C267 C268 1.524 . S
C267 C271 1.400 . S
C268 H253 0.960 . S
C268 H254 0.960 . S
C268 H255 0.960 . S
C268 C267 1.524 . S
C269 C266 1.403 . S
C269 C270 1.392 1_565 S
C269 C273 1.495 . S
C270 C269 1.392 1_545 S
C270 C271 1.385 . S
C270 C272 1.478 . S
C271 H265 0.930 . S
C271 C267 1.400 . S
C271 C270 1.385 . S
C272 C270 1.478 . S
C272 C274 1.381 . S
C272 C278 1.383 . S
C273 C269 1.495 . S
C273 H279 0.959 . S
C273 H280 0.961 . S
C273 H281 0.960 . S
C274 C272 1.381 . S
C274 C275 1.394 . S
C274 H282 0.930 . S
C275 C274 1.394 . S
C275 C276 1.383 . S
C275 H283 0.929 . S
C276 C275 1.383 . S
C276 C277 1.377 . S
C277 H261 0.930 . S
C277 C276 1.377 . S
C277 C278 1.379 . S
C278 H262 0.931 . S
C278 C272 1.383 . S
C278 C277 1.379 . S
H279 C273 0.959 . S
H280 C273 0.961 . S
H281 C273 0.960 . S
H282 C274 0.930 . S
H283 C275 0.929 . S
H284 C292 0.929 . S
H285 C294 0.930 . S
H286 C296 0.930 . S
H287 C299 0.929 . S
H288 C302 0.930 . S
H289 C304 0.960 . S
H290 C304 0.960 . S
H291 C304 0.960 . S
C292 H284 0.929 . S
C292 C293 1.377 . S
C292 C294 1.384 . S
C293 C292 1.377 . S
C293 C299 1.390 . S
C294 H285 0.930 . S
C294 C292 1.384 . S
C294 C295 1.372 . S
C295 C294 1.372 . S
C295 C296 1.400 . S
C295 C300 1.490 . S
C296 H286 0.930 . S
C296 C295 1.400 . S
C296 C299 1.386 . S
H297 C313 0.930 . S
H298 C314 0.931 . S
C299 H287 0.929 . S
C299 C293 1.390 . S
C299 C296 1.386 . S
C300 C295 1.490 . S
C300 C302 1.395 . S
C300 C303 1.403 . S
H301 C307 0.930 . S
C302 H288 0.930 . S
C302 C300 1.395 . S
C302 C305 1.403 . S
C303 C300 1.403 . S
C303 C304 1.524 . S
C303 C307 1.400 . S
C304 H289 0.960 . S
C304 H290 0.960 . S
C304 H291 0.960 . S
C304 C303 1.524 . S
C305 C302 1.403 . S
C305 C306 1.392 . S
C305 C309 1.495 . S
C306 C305 1.392 . S
C306 C307 1.385 . S
C306 C308 1.478 . S
C307 H301 0.930 . S
C307 C303 1.400 . S
C307 C306 1.385 . S
C308 C306 1.478 . S
C308 C310 1.381 . S
C308 C314 1.383 . S
C309 C305 1.495 . S
C309 H315 0.959 . S
C309 H316 0.961 . S
C309 H317 0.960 . S
C310 C308 1.381 . S
C310 C311 1.394 . S
C310 H318 0.930 . S
C311 C310 1.394 . S
C311 C312 1.383 . S
C311 H319 0.929 . S
C312 C311 1.383 . S
C312 C313 1.377 . S
C313 H297 0.930 . S
C313 C312 1.377 . S
C313 C314 1.379 . S
C314 H298 0.931 . S
C314 C308 1.383 . S
C314 C313 1.379 . S
H315 C309 0.959 . S
H316 C309 0.961 . S
H317 C309 0.960 . S
H318 C310 0.930 . S
H319 C311 0.929 . S
H320 C328 0.929 . S
H321 C330 0.930 . S
H322 C332 0.930 . S
H323 C335 0.929 . S
H324 C338 0.930 . S
H325 C340 0.960 . S
H326 C340 0.960 . S
H327 C340 0.960 . S
C328 H320 0.929 . S
C328 C329 1.377 . S
C328 C330 1.384 . S
C329 C328 1.377 . S
C329 C335 1.390 . S
C330 H321 0.930 . S
C330 C328 1.384 . S
C330 C331 1.372 . S
C331 C330 1.372 . S
C331 C332 1.400 . S
C331 C336 1.490 . S
C332 H322 0.930 . S
C332 C331 1.400 . S
C332 C335 1.386 . S
H333 C349 0.930 . S
H334 C350 0.931 . S
C335 H323 0.929 . S
C335 C329 1.390 . S
C335 C332 1.386 . S
C336 C331 1.490 . S
C336 C338 1.395 . S
C336 C339 1.403 . S
H337 C343 0.930 . S
C338 H324 0.930 . S
C338 C336 1.395 . S
C338 C341 1.403 . S
C339 C336 1.403 . S
C339 C340 1.524 . S
C339 C343 1.400 . S
C340 H325 0.960 . S
C340 H326 0.960 . S
C340 H327 0.960 . S
C340 C339 1.524 . S
C341 C338 1.403 . S
C341 C342 1.392 . S
C341 C345 1.495 . S
C342 C341 1.392 . S
C342 C343 1.385 . S
C342 C344 1.478 . S
C343 H337 0.930 . S
C343 C339 1.400 . S
C343 C342 1.385 . S
C344 C342 1.478 . S
C344 C346 1.381 . S
C344 C350 1.383 . S
C345 C341 1.495 . S
C345 H351 0.959 . S
C345 H352 0.961 . S
C345 H353 0.960 . S
C346 C344 1.381 . S
C346 C347 1.394 . S
C346 H354 0.930 . S
C347 C346 1.394 . S
C347 C348 1.383 . S
C347 H355 0.929 . S
C348 C347 1.383 . S
C348 C349 1.377 . S
C349 H333 0.930 . S
C349 C348 1.377 . S
C349 C350 1.379 . S
C350 H334 0.931 . S
C350 C344 1.383 . S
C350 C349 1.379 . S
H351 C345 0.959 . S
H352 C345 0.961 . S
H353 C345 0.960 . S
H354 C346 0.930 . S
H355 C347 0.929 . S
H356 C364 0.929 . S
H357 C366 0.930 . S
H358 C368 0.930 1_655 S
H359 C371 0.929 1_655 S
H360 C374 0.930 . S
H361 C376 0.960 . S
H362 C376 0.960 . S
H363 C376 0.960 . S
C364 H356 0.929 . S
C364 C365 1.377 . S
C364 C366 1.384 . S
C365 C364 1.377 . S
C365 C371 1.390 . S
C366 H357 0.930 . S
C366 C364 1.384 . S
C366 C367 1.372 . S
C367 C366 1.372 . S
C367 C368 1.400 . S
C367 C372 1.490 . S
C368 H358 0.930 1_455 S
C368 C367 1.400 . S
C368 C371 1.386 . S
H369 C385 0.906 1_655 S
H370 C386 0.931 1_655 S
C371 H359 0.929 1_455 S
C371 C365 1.390 . S
C371 C368 1.386 . S
C372 C367 1.490 . S
C372 C374 1.395 . S
C372 C375 1.403 1_455 S
H373 C379 0.930 . S
C374 H360 0.930 . S
C374 C372 1.395 . S
C374 C377 1.403 . S
C375 C372 1.403 1_655 S
C375 C376 1.524 . S
C375 C379 1.400 . S
C376 H361 0.960 . S
C376 H362 0.960 . S
C376 H363 0.960 . S
C376 C375 1.524 . S
C377 C374 1.403 . S
C377 C378 1.392 . S
C377 C381 1.495 . S
C378 C377 1.392 . S
C378 C379 1.385 1_455 S
C378 C380 1.478 . S
C379 H373 0.930 . S
C379 C375 1.400 . S
C379 C378 1.385 1_655 S
C380 C378 1.478 . S
C380 C382 1.381 . S
C380 C386 1.383 . S
C381 C377 1.495 . S
C381 H387 0.959 . S
C381 H388 0.961 . S
C381 H389 0.960 . S
C382 C380 1.381 . S
C382 C383 1.394 . S
C382 H390 0.930 . S
C383 C382 1.394 . S
C383 C384 1.383 . S
C383 H391 0.929 . S
C384 C383 1.383 . S
C384 C385 1.397 . S
C385 H369 0.906 1_455 S
C385 C384 1.397 . S
C385 C386 1.385 . S
C386 H370 0.931 1_455 S
C386 C380 1.383 . S
C386 C385 1.385 . S
H387 C381 0.959 . S
H388 C381 0.961 . S
H389 C381 0.960 . S
H390 C382 0.930 . S
H391 C383 0.929 . S
H392 C400 0.929 . S
H393 C402 0.930 . S
H394 C404 0.930 . S
H395 C407 0.929 . S
H396 C410 0.930 . S
H397 C412 0.960 . S
H398 C412 0.960 . S
H399 C412 0.960 . S
C400 H392 0.929 . S
C400 C401 1.377 . S
C400 C402 1.384 . S
C401 C400 1.377 . S
C401 C407 1.390 1_565 S
C402 H393 0.930 . S
C402 C400 1.384 . S
C402 C403 1.372 . S
C403 C402 1.372 . S
C403 C404 1.400 1_565 S
C403 C408 1.490 . S
C404 H394 0.930 . S
C404 C403 1.400 1_545 S
C404 C407 1.386 . S
H405 C421 0.930 . S
H406 C422 0.931 . S
C407 H395 0.929 . S
C407 C401 1.390 1_545 S
C407 C404 1.386 . S
C408 C403 1.490 . S
C408 C410 1.395 1_554 S
C408 C411 1.403 1_565 S
H409 C415 0.930 . S
C410 H396 0.930 . S
C410 C408 1.395 1_556 S
C410 C413 1.403 . S
C411 C408 1.403 1_545 S
C411 C412 1.524 . S
C411 C415 1.400 1_554 S
C412 H397 0.960 . S
C412 H398 0.960 . S
C412 H399 0.960 . S
C412 C411 1.524 . S
C413 C410 1.403 . S
C413 C414 1.392 . S
C413 C417 1.495 . S
C414 C413 1.392 . S
C414 C415 1.385 1_565 S
C414 C416 1.478 . S
C415 H409 0.930 . S
C415 C411 1.400 1_556 S
C415 C414 1.385 1_545 S
C416 C414 1.478 . S
C416 C418 1.381 . S
C416 C422 1.383 1_565 S
C417 C413 1.495 . S
C417 H423 0.959 . S
C417 H424 0.961 . S
C417 H425 0.960 . S
C418 C416 1.381 . S
C418 C419 1.394 . S
C418 H426 0.930 . S
C419 C418 1.394 . S
C419 C420 1.383 1_565 S
C419 H427 0.929 . S
C420 C419 1.383 1_545 S
C420 C421 1.377 . S
C421 H405 0.930 . S
C421 C420 1.377 . S
C421 C422 1.379 . S
C422 H406 0.931 . S
C422 C416 1.383 1_545 S
C422 C421 1.379 . S
H423 C417 0.959 . S
H424 C417 0.961 . S
H425 C417 0.960 . S
H426 C418 0.930 . S
H427 C419 0.929 . S
H428 C436 0.929 . S
H429 C438 0.930 . S
H430 C440 0.930 . S
H431 C443 0.929 . S
H432 C446 0.930 . S
H433 C448 0.960 . S
H434 C448 0.960 . S
H435 C448 0.960 . S
C436 H428 0.929 . S
C436 C437 1.377 . S
C436 C438 1.384 . S
C437 C436 1.377 . S
C437 C443 1.390 . S
C438 H429 0.930 . S
C438 C436 1.384 . S
C438 C439 1.372 . S
C439 C438 1.372 . S
C439 C440 1.400 . S
C439 C444 1.490 . S
C440 H430 0.930 . S
C440 C439 1.400 . S
C440 C443 1.386 . S
H441 C457 0.930 . S
H442 C458 0.931 . S
C443 H431 0.929 . S
C443 C437 1.390 . S
C443 C440 1.386 . S
C444 C439 1.490 . S
C444 C446 1.395 . S
C444 C447 1.403 1_554 S
H445 C451 0.930 . S
C446 H432 0.930 . S
C446 C444 1.395 . S
C446 C449 1.403 1_554 S
C447 C444 1.403 1_556 S
C447 C448 1.524 . S
C447 C451 1.400 . S
C448 H433 0.960 . S
C448 H434 0.960 . S
C448 H435 0.960 . S
C448 C447 1.524 . S
C449 C446 1.403 1_556 S
C449 C450 1.392 . S
C449 C453 1.495 1_556 S
C450 C449 1.392 . S
C450 C451 1.385 . S
C450 C452 1.478 . S
C451 H445 0.930 . S
C451 C447 1.400 . S
C451 C450 1.385 . S
C452 C450 1.478 . S
C452 C454 1.381 . S
C452 C458 1.383 . S
C453 C449 1.495 1_554 S
C453 H459 0.959 . S
C453 H460 0.961 . S
C453 H461 0.960 1_554 S
C454 C452 1.381 . S
C454 C455 1.394 . S
C454 H462 0.930 . S
C455 C454 1.394 . S
C455 C456 1.383 . S
C455 H463 0.929 . S
C456 C455 1.383 . S
C456 C457 1.377 . S
C457 H441 0.930 . S
C457 C456 1.377 . S
C457 C458 1.379 . S
C458 H442 0.931 . S
C458 C452 1.383 . S
C458 C457 1.379 . S
H459 C453 0.959 . S
H460 C453 0.961 . S
H461 C453 0.960 1_556 S
H462 C454 0.930 . S
H463 C455 0.929 . S
H464 C472 0.929 . S
H465 C474 0.930 . S
H466 C476 0.930 . S
H467 C479 0.929 . S
H468 C482 0.930 . S
H469 C484 0.960 . S
H470 C484 0.960 . S
H471 C484 0.960 . S
C472 H464 0.929 . S
C472 C473 1.377 . S
C472 C474 1.384 . S
C473 C472 1.377 . S
C473 C479 1.390 . S
C474 H465 0.930 . S
C474 C472 1.384 . S
C474 C475 1.372 . S
C475 C474 1.372 . S
C475 C476 1.400 . S
C475 C480 1.490 . S
C476 H466 0.930 . S
C476 C475 1.400 . S
C476 C479 1.386 . S
H477 C493 0.930 . S
H478 C494 0.931 . S
C479 H467 0.929 . S
C479 C473 1.390 . S
C479 C476 1.386 . S
C480 C475 1.490 . S
C480 C482 1.395 1_554 S
C480 C483 1.403 . S
H481 C487 0.930 . S
C482 H468 0.930 . S
C482 C480 1.395 1_556 S
C482 C485 1.403 . S
C483 C480 1.403 . S
C483 C484 1.524 . S
C483 C487 1.400 1_554 S
C484 H469 0.960 . S
C484 H470 0.960 . S
C484 H471 0.960 . S
C484 C483 1.524 . S
C485 C482 1.403 . S
C485 C486 1.392 . S
C485 C489 1.495 . S
C486 C485 1.392 . S
C486 C487 1.385 . S
C486 C488 1.478 . S
C487 H481 0.930 . S
C487 C483 1.400 1_556 S
C487 C486 1.385 . S
C488 C486 1.478 . S
C488 C490 1.381 . S
C488 C494 1.383 . S
C489 C485 1.495 . S
C489 H495 0.959 . S
C489 H496 0.961 . S
C489 H497 0.960 . S
C490 C488 1.381 . S
C490 C491 1.394 . S
C490 H498 0.930 . S
C491 C490 1.394 . S
C491 C492 1.383 . S
C491 H499 0.929 . S
C492 C491 1.383 . S
C492 C493 1.377 . S
C493 H477 0.930 . S
C493 C492 1.377 . S
C493 C494 1.379 . S
C494 H478 0.931 . S
C494 C488 1.383 . S
C494 C493 1.379 . S
H495 C489 0.959 . S
H496 C489 0.961 . S
H497 C489 0.960 . S
H498 C490 0.930 . S
H499 C491 0.929 . S
H500 C508 0.929 . S
H501 C510 0.930 . S
H502 C512 0.930 . S
H503 C515 0.929 . S
H504 C518 0.930 . S
H505 C520 0.960 . S
H506 C520 0.960 . S
H507 C520 0.960 . S
C508 H500 0.929 . S
C508 C509 1.377 . S
C508 C510 1.384 . S
C509 C508 1.377 . S
C509 C515 1.390 1_655 S
C510 H501 0.930 . S
C510 C508 1.384 . S
C510 C511 1.372 . S
C511 C510 1.372 . S
C511 C512 1.400 1_655 S
C511 C516 1.490 . S
C512 H502 0.930 . S
C512 C511 1.400 1_455 S
C512 C515 1.386 . S
H513 C529 0.930 . S
H514 C530 0.931 . S
C515 H503 0.929 . S
C515 C509 1.390 1_455 S
C515 C512 1.386 . S
C516 C511 1.490 . S
C516 C518 1.395 1_554 S
C516 C519 1.403 1_655 S
H517 C523 0.930 . S
C518 H504 0.930 . S
C518 C516 1.395 1_556 S
C518 C521 1.403 . S
C519 C516 1.403 1_455 S
C519 C520 1.524 . S
C519 C523 1.400 1_554 S
C520 H505 0.960 . S
C520 H506 0.960 . S
C520 H507 0.960 . S
C520 C519 1.524 . S
C521 C518 1.403 . S
C521 C522 1.392 . S
C521 C525 1.495 . S
C522 C521 1.392 . S
C522 C523 1.385 1_655 S
C522 C524 1.478 . S
C523 H517 0.930 . S
C523 C519 1.400 1_556 S
C523 C522 1.385 1_455 S
C524 C522 1.478 . S
C524 C526 1.381 . S
C524 C530 1.383 1_655 S
C525 C521 1.495 . S
C525 H531 0.959 . S
C525 H532 0.961 . S
C525 H533 0.960 . S
C526 C524 1.381 . S
C526 C527 1.394 . S
C526 H534 0.930 . S
C527 C526 1.394 . S
C527 C528 1.383 1_655 S
C527 H535 0.929 . S
C528 C527 1.383 1_455 S
C528 C529 1.377 . S
C529 H513 0.930 . S
C529 C528 1.377 . S
C529 C530 1.379 . S
C530 H514 0.931 . S
C530 C524 1.383 1_455 S
C530 C529 1.379 . S
H531 C525 0.959 . S
H532 C525 0.961 . S
H533 C525 0.960 . S
H534 C526 0.930 . S
H535 C527 0.929 . S
H536 C544 0.929 . S
H537 C546 0.930 . S
H538 C548 0.930 . S
H539 C551 0.929 . S
H540 C554 0.930 . S
H541 C556 0.960 . S
H542 C556 0.960 . S
H543 C556 0.960 . S
C544 H536 0.929 . S
C544 C545 1.377 1_655 S
C544 C546 1.384 . S
C545 C544 1.377 1_455 S
C545 C551 1.390 . S
C546 H537 0.930 . S
C546 C544 1.384 . S
C546 C547 1.372 1_655 S
C547 C546 1.372 1_455 S
C547 C548 1.400 . S
C547 C552 1.490 . S
C548 H538 0.930 . S
C548 C547 1.400 . S
C548 C551 1.386 . S
H549 C565 0.930 1_455 S
H550 C566 0.901 1_455 S
C551 H539 0.929 . S
C551 C545 1.390 . S
C551 C548 1.386 . S
C552 C547 1.490 . S
C552 C554 1.395 1_455 S
C552 C555 1.403 . S
H553 C559 0.930 . S
C554 H540 0.930 . S
C554 C552 1.395 1_655 S
C554 C557 1.403 . S
C555 C552 1.403 . S
C555 C556 1.524 . S
C555 C559 1.400 . S
C556 H541 0.960 . S
C556 H542 0.960 . S
C556 H543 0.960 . S
C556 C555 1.524 . S
C557 C554 1.403 . S
C557 C558 1.392 . S
C557 C561 1.495 . S
C558 C557 1.392 . S
C558 C559 1.385 1_655 S
C558 C560 1.478 . S
C559 H553 0.930 . S
C559 C555 1.400 . S
C559 C558 1.385 1_455 S
C560 C558 1.478 . S
C560 C562 1.381 . S
C560 C566 1.407 . S
C561 C557 1.495 . S
C561 H567 0.959 . S
C561 H568 0.961 . S
C561 H569 0.960 . S
C562 C560 1.381 . S
C562 C563 1.394 . S
C562 H570 0.930 . S
C563 C562 1.394 . S
C563 C564 1.383 . S
C563 H571 0.929 . S
C564 C563 1.383 . S
C564 C565 1.377 . S
C565 H549 0.930 1_655 S
C565 C564 1.377 . S
C565 C566 1.386 . S
C566 H550 0.901 1_655 S
C566 C560 1.407 . S
C566 C565 1.386 . S
H567 C561 0.959 . S
H568 C561 0.961 . S
H569 C561 0.960 . S
H570 C562 0.930 . S
H571 C563 0.929 . S
H572 C580 0.929 . S
H573 C582 0.930 . S
H574 C584 0.930 . S
H575 C587 0.929 . S
H576 C590 0.930 . S
H577 C592 0.960 . S
H578 C592 0.994 . S
H579 C592 0.960 . S
C580 H572 0.929 . S
C580 C581 1.377 . S
C580 C582 1.384 . S
C581 C580 1.377 . S
C581 C587 1.390 1_545 S
C582 H573 0.930 . S
C582 C580 1.384 . S
C582 C583 1.372 . S
C583 C582 1.372 . S
C583 C584 1.400 1_545 S
C583 C588 1.490 . S
C584 H574 0.930 . S
C584 C583 1.400 1_565 S
C584 C587 1.386 . S
H585 C601 0.930 . S
H586 C602 0.931 . S
C587 H575 0.929 . S
C587 C581 1.390 1_565 S
C587 C584 1.386 . S
C588 C583 1.490 . S
C588 C590 1.395 . S
C588 C591 1.403 1_545 S
H589 C595 0.930 . S
C590 H576 0.930 . S
C590 C588 1.395 . S
C590 C593 1.403 . S
C591 C588 1.403 1_565 S
C591 C592 1.524 . S
C591 C595 1.400 . S
C592 H577 0.960 . S
C592 H578 0.994 . S
C592 H579 0.960 . S
C592 C591 1.524 . S
C593 C590 1.403 . S
C593 C594 1.392 1_545 S
C593 C597 1.495 . S
C594 C593 1.392 1_565 S
C594 C595 1.385 . S
C594 C596 1.478 . S
C595 H589 0.930 . S
C595 C591 1.400 . S
C595 C594 1.385 . S
C596 C594 1.478 . S
C596 C598 1.381 1_565 S
C596 C602 1.383 . S
C597 C593 1.495 . S
C597 H603 0.959 . S
C597 H604 0.961 . S
C597 H605 0.960 . S
C598 C596 1.381 1_545 S
C598 C599 1.394 . S
C598 H606 0.930 . S
C599 C598 1.394 . S
C599 C600 1.383 1_545 S
C599 H607 0.929 . S
C600 C599 1.383 1_565 S
C600 C601 1.377 . S
C601 H585 0.930 . S
C601 C600 1.377 . S
C601 C602 1.379 . S
C602 H586 0.931 . S
C602 C596 1.383 . S
C602 C601 1.379 . S
H603 C597 0.959 . S
H604 C597 0.961 . S
H605 C597 0.960 . S
H606 C598 0.930 . S
H607 C599 0.929 . S
H608 C616 0.929 . S
H609 C618 0.930 . S
H610 C620 0.930 . S
H611 C623 0.929 . S
H612 C626 0.930 . S
H613 C628 0.960 . S
H614 C628 0.960 . S
H615 C628 0.960 . S
C616 H608 0.929 . S
C616 C617 1.377 . S
C616 C618 1.384 . S
C617 C616 1.377 . S
C617 C623 1.390 . S
C618 H609 0.930 . S
C618 C616 1.384 . S
C618 C619 1.372 . S
C619 C618 1.372 . S
C619 C620 1.400 . S
C619 C624 1.490 . S
C620 H610 0.930 . S
C620 C619 1.400 . S
C620 C623 1.386 . S
H621 C637 0.930 . S
H622 C638 0.931 . S
C623 H611 0.929 . S
C623 C617 1.390 . S
C623 C620 1.386 . S
C624 C619 1.490 . S
C624 C626 1.395 . S
C624 C627 1.403 . S
H625 C631 0.930 . S
C626 H612 0.930 . S
C626 C624 1.395 . S
C626 C629 1.403 . S
C627 C624 1.403 . S
C627 C628 1.524 . S
C627 C631 1.400 . S
C628 H613 0.960 . S
C628 H614 0.960 . S
C628 H615 0.960 . S
C628 C627 1.524 . S
C629 C626 1.403 . S
C629 C630 1.392 . S
C629 C633 1.495 . S
C630 C629 1.392 . S
C630 C631 1.385 . S
C630 C632 1.478 . S
C631 H625 0.930 . S
C631 C627 1.400 . S
C631 C630 1.385 . S
C632 C630 1.478 . S
C632 C634 1.381 . S
C632 C638 1.383 . S
C633 C629 1.495 . S
C633 H639 0.959 . S
C633 H640 0.961 . S
C633 H641 0.960 . S
C634 C632 1.381 . S
C634 C635 1.394 . S
C634 H642 0.930 . S
C635 C634 1.394 . S
C635 C636 1.383 . S
C635 H643 0.929 . S
C636 C635 1.383 . S
C636 C637 1.377 . S
C637 H621 0.930 . S
C637 C636 1.377 . S
C637 C638 1.379 . S
C638 H622 0.931 . S
C638 C632 1.383 . S
C638 C637 1.379 . S
H639 C633 0.959 . S
H640 C633 0.961 . S
H641 C633 0.960 . S
H642 C634 0.930 . S
H643 C635 0.929 . S
H644 C652 0.929 . S
H645 C654 0.930 . S
H646 C656 0.930 . S
H647 C659 0.929 . S
H648 C662 0.930 . S
H649 C664 0.960 . S
H650 C664 0.960 . S
H651 C664 0.960 . S
C652 H644 0.929 . S
C652 C653 1.377 . S
C652 C654 1.384 . S
C653 C652 1.377 . S
C653 C659 1.390 . S
C654 H645 0.930 . S
C654 C652 1.384 . S
C654 C655 1.372 . S
C655 C654 1.372 . S
C655 C656 1.400 . S
C655 C660 1.490 . S
C656 H646 0.930 . S
C656 C655 1.400 . S
C656 C659 1.386 . S
H657 C673 0.930 . S
H658 C674 0.931 . S
C659 H647 0.929 . S
C659 C653 1.390 . S
C659 C656 1.386 . S
C660 C655 1.490 . S
C660 C662 1.395 . S
C660 C663 1.403 . S
H661 C667 0.930 . S
C662 H648 0.930 . S
C662 C660 1.395 . S
C662 C665 1.403 . S
C663 C660 1.403 . S
C663 C664 1.524 . S
C663 C667 1.400 . S
C664 H649 0.960 . S
C664 H650 0.960 . S
C664 H651 0.960 . S
C664 C663 1.524 . S
C665 C662 1.403 . S
C665 C666 1.392 . S
C665 C669 1.495 . S
C666 C665 1.392 . S
C666 C667 1.385 . S
C666 C668 1.478 . S
C667 H661 0.930 . S
C667 C663 1.400 . S
C667 C666 1.385 . S
C668 C666 1.478 . S
C668 C670 1.381 . S
C668 C674 1.383 . S
C669 C665 1.495 . S
C669 H675 0.959 . S
C669 H676 0.961 . S
C669 H677 0.960 . S
C670 C668 1.381 . S
C670 C671 1.394 . S
C670 H678 0.930 . S
C671 C670 1.394 . S
C671 C672 1.383 . S
C671 H679 0.929 . S
C672 C671 1.383 . S
C672 C673 1.377 . S
C673 H657 0.930 . S
C673 C672 1.377 . S
C673 C674 1.379 . S
C674 H658 0.931 . S
C674 C668 1.383 . S
C674 C673 1.379 . S
H675 C669 0.959 . S
H676 C669 0.961 . S
H677 C669 0.960 . S
H678 C670 0.930 . S
H679 C671 0.929 . S
H680 C688 0.929 . S
H681 C690 0.930 . S
H682 C692 0.930 . S
H683 C695 0.929 . S
H684 C698 0.930 . S
H685 C700 0.960 . S
H686 C700 0.960 . S
H687 C700 0.960 . S
C688 H680 0.929 . S
C688 C689 1.377 . S
C688 C690 1.384 . S
C689 C688 1.377 . S
C689 C695 1.390 1_655 S
C690 H681 0.930 . S
C690 C688 1.384 . S
C690 C691 1.372 1_655 S
C691 C690 1.372 1_455 S
C691 C692 1.400 . S
C691 C696 1.490 . S
C692 H682 0.930 . S
C692 C691 1.400 . S
C692 C695 1.386 . S
H693 C709 0.930 . S
H694 C710 0.931 . S
C695 H683 0.929 . S
C695 C689 1.390 1_455 S
C695 C692 1.386 . S
C696 C691 1.490 . S
C696 C698 1.395 1_455 S
C696 C699 1.403 . S
H697 C703 0.930 . S
C698 H684 0.930 . S
C698 C696 1.395 1_655 S
C698 C701 1.403 . S
C699 C696 1.403 . S
C699 C700 1.524 . S
C699 C703 1.400 . S
C700 H685 0.960 . S
C700 H686 0.960 . S
C700 H687 0.960 . S
C700 C699 1.524 . S
C701 C698 1.403 . S
C701 C702 1.392 1_655 S
C701 C705 1.495 . S
C702 C701 1.392 1_455 S
C702 C703 1.385 . S
C702 C704 1.478 1_554 S
C703 H697 0.930 . S
C703 C699 1.400 . S
C703 C702 1.385 . S
C704 C702 1.478 1_556 S
C704 C706 1.381 . S
C704 C710 1.383 1_556 S
C705 C701 1.495 . S
C705 H711 0.959 . S
C705 H712 0.961 . S
C705 H713 0.960 1_554 S
C706 C704 1.381 . S
C706 C707 1.394 . S
C706 H714 0.920 1_455 S
C707 C706 1.394 . S
C707 C708 1.383 . S
C707 H715 0.929 . S
C708 C707 1.383 . S
C708 C709 1.377 . S
C709 H693 0.930 . S
C709 C708 1.377 . S
C709 C710 1.379 1_556 S
C710 H694 0.931 . S
C710 C704 1.383 1_554 S
C710 C709 1.379 1_554 S
H711 C705 0.959 . S
H712 C705 0.961 . S
H713 C705 0.960 1_556 S
H714 C706 0.920 1_655 S
H715 C707 0.929 . S
H716 C724 0.929 . S
H717 C726 0.930 . S
H718 C728 0.930 . S
H719 C731 0.929 . S
H720 C734 0.930 . S
H721 C736 0.960 . S
H722 C736 0.960 . S
H723 C736 0.960 . S
C724 H716 0.929 . S
C724 C725 1.377 1_545 S
C724 C726 1.384 . S
C725 C724 1.377 1_565 S
C725 C731 1.390 . S
C726 H717 0.930 . S
C726 C724 1.384 . S
C726 C727 1.372 . S
C727 C726 1.372 . S
C727 C728 1.400 1_545 S
C727 C732 1.490 . S
C728 H718 0.930 . S
C728 C727 1.400 1_565 S
C728 C731 1.386 . S
H729 C745 0.930 . S
H730 C746 0.939 . S
C731 H719 0.929 . S
C731 C725 1.390 . S
C731 C728 1.386 . S
C732 C727 1.490 . S
C732 C734 1.395 . S
C732 C735 1.403 1_545 S
H733 C739 0.930 1_565 S
C734 H720 0.930 . S
C734 C732 1.395 . S
C734 C737 1.403 . S
C735 C732 1.403 1_565 S
C735 C736 1.524 . S
C735 C739 1.400 1_565 S
C736 H721 0.960 . S
C736 H722 0.960 . S
C736 H723 0.960 . S
C736 C735 1.524 . S
C737 C734 1.403 . S
C737 C738 1.392 . S
C737 C741 1.495 1_554 S
C738 C737 1.392 . S
C738 C739 1.385 . S
C738 C740 1.478 1_554 S
C739 H733 0.930 1_545 S
C739 C735 1.400 1_545 S
C739 C738 1.385 . S
C740 C738 1.478 1_556 S
C740 C742 1.381 . S
C740 C746 1.383 . S
C741 C737 1.495 1_556 S
C741 H747 0.959 . S
C741 H748 0.961 . S
C741 H749 0.960 . S
C742 C740 1.381 . S
C742 C743 1.394 . S
C742 H750 0.930 1_556 S
C743 C742 1.394 . S
C743 C744 1.383 . S
C743 H751 0.929 . S
C744 C743 1.383 . S
C744 C745 1.377 . S
C745 H729 0.930 . S
C745 C744 1.377 . S
C745 C746 1.379 . S
C746 H730 0.939 . S
C746 C740 1.383 . S
C746 C745 1.379 . S
H747 C741 0.959 . S
H748 C741 0.961 . S
H749 C741 0.960 . S
H750 C742 0.930 1_554 S
H751 C743 0.929 . S
H752 C760 0.929 . S
H753 C762 0.930 . S
H754 C764 0.930 . S
H755 C767 0.929 . S
H756 C770 0.930 . S
H757 C772 0.960 . S
H758 C772 0.960 . S
H759 C772 0.960 . S
C760 H752 0.929 . S
C760 C761 1.377 . S
C760 C762 1.384 . S
C761 C760 1.377 . S
C761 C767 1.390 . S
C762 H753 0.930 . S
C762 C760 1.384 . S
C762 C763 1.372 . S
C763 C762 1.372 . S
C763 C764 1.400 . S
C763 C768 1.490 . S
C764 H754 0.930 . S
C764 C763 1.400 . S
C764 C767 1.386 . S
H765 C781 0.930 . S
H766 C782 0.931 . S
C767 H755 0.929 . S
C767 C761 1.390 . S
C767 C764 1.386 . S
C768 C763 1.490 . S
C768 C770 1.395 . S
C768 C771 1.403 . S
H769 C775 0.930 . S
C770 H756 0.930 . S
C770 C768 1.395 . S
C770 C773 1.403 . S
C771 C768 1.403 . S
C771 C772 1.524 1_554 S
C771 C775 1.400 1_554 S
C772 H757 0.960 . S
C772 H758 0.960 . S
C772 H759 0.960 . S
C772 C771 1.524 1_556 S
C773 C770 1.403 . S
C773 C774 1.392 . S
C773 C777 1.495 . S
C774 C773 1.392 . S
C774 C775 1.385 1_554 S
C774 C776 1.478 1_554 S
C775 H769 0.930 . S
C775 C771 1.400 1_556 S
C775 C774 1.385 1_556 S
C776 C774 1.478 1_556 S
C776 C778 1.383 . S
C776 C782 1.383 . S
C777 C773 1.495 . S
C777 H783 0.959 . S
C777 H784 0.961 . S
C777 H785 0.960 . S
C778 C776 1.383 . S
C778 C779 1.401 . S
C778 H786 0.922 1_556 S
C779 C778 1.401 . S
C779 C780 1.383 . S
C779 H787 0.929 . S
C780 C779 1.383 . S
C780 C781 1.377 . S
C781 H765 0.930 . S
C781 C780 1.377 . S
C781 C782 1.379 . S
C782 H766 0.931 . S
C782 C776 1.383 . S
C782 C781 1.379 . S
H783 C777 0.959 . S
H784 C777 0.961 . S
H785 C777 0.960 . S
H786 C778 0.922 1_554 S
H787 C779 0.929 . S
H788 C796 0.929 . S
H789 C798 0.930 . S
H790 C800 0.930 . S
H791 C803 0.929 . S
H792 C806 0.930 . S
H793 C808 0.960 . S
H794 C808 0.960 . S
H795 C808 0.960 . S
C796 H788 0.929 . S
C796 C797 1.377 . S
C796 C798 1.384 . S
C797 C796 1.377 . S
C797 C803 1.390 . S
C798 H789 0.930 . S
C798 C796 1.384 . S
C798 C799 1.372 . S
C799 C798 1.372 . S
C799 C800 1.400 . S
C799 C804 1.490 . S
C800 H790 0.930 . S
C800 C799 1.400 . S
C800 C803 1.386 . S
H801 C817 0.930 . S
H802 C818 0.931 . S
C803 H791 0.929 . S
C803 C797 1.390 . S
C803 C800 1.386 . S
C804 C799 1.490 . S
C804 C806 1.395 . S
C804 C807 1.403 . S
H805 C811 0.930 . S
C806 H792 0.930 . S
C806 C804 1.395 . S
C806 C809 1.403 . S
C807 C804 1.403 . S
C807 C808 1.524 1_554 S
C807 C811 1.400 1_554 S
C808 H793 0.960 . S
C808 H794 0.960 . S
C808 H795 0.960 . S
C808 C807 1.524 1_556 S
C809 C806 1.403 . S
C809 C810 1.392 . S
C809 C813 1.495 . S
C810 C809 1.392 . S
C810 C811 1.385 1_554 S
C810 C812 1.478 1_554 S
C811 H805 0.930 . S
C811 C807 1.400 1_556 S
C811 C810 1.385 1_556 S
C812 C810 1.478 1_556 S
C812 C814 1.381 . S
C812 C818 1.383 . S
C813 C809 1.495 . S
C813 H819 0.959 . S
C813 H820 0.961 . S
C813 H821 0.960 . S
C814 C812 1.381 . S
C814 C815 1.394 . S
C814 H822 0.930 1_556 S
C815 C814 1.394 . S
C815 C816 1.383 . S
C815 H823 0.929 . S
C816 C815 1.383 . S
C816 C817 1.377 . S
C817 H801 0.930 . S
C817 C816 1.377 . S
C817 C818 1.379 . S
C818 H802 0.931 . S
C818 C812 1.383 . S
C818 C817 1.379 . S
H819 C813 0.959 . S
H820 C813 0.961 . S
H821 C813 0.960 . S
H822 C814 0.930 1_554 S
H823 C815 0.929 . S
H824 C832 0.929 . S
H825 C834 0.930 . S
H826 C836 0.930 1_655 S
H827 C839 0.929 1_655 S
H828 C842 0.930 . S
H829 C844 0.960 . S
H830 C844 0.960 . S
H831 C844 0.960 . S
C832 H824 0.929 . S
C832 C833 1.377 . S
C832 C834 1.384 . S
C833 C832 1.377 . S
C833 C839 1.390 . S
C834 H825 0.930 . S
C834 C832 1.384 . S
C834 C835 1.372 . S
C835 C834 1.372 . S
C835 C836 1.400 . S
C835 C840 1.490 . S
C836 H826 0.930 1_455 S
C836 C835 1.400 . S
C836 C839 1.386 . S
H837 C853 0.921 1_655 S
H838 C854 0.931 . S
C839 H827 0.929 1_455 S
C839 C833 1.390 . S
C839 C836 1.386 . S
C840 C835 1.490 . S
C840 C842 1.395 . S
C840 C843 1.375 1_455 S
H841 C847 0.930 1_655 S
C842 H828 0.930 . S
C842 C840 1.395 . S
C842 C845 1.403 . S
C843 C840 1.375 1_655 S
C843 C844 1.554 . S
C843 C847 1.397 1_655 S
C844 H829 0.960 . S
C844 H830 0.960 . S
C844 H831 0.960 . S
C844 C843 1.554 . S
C845 C842 1.403 . S
C845 C846 1.392 . S
C845 C849 1.495 . S
C846 C845 1.392 . S
C846 C847 1.385 . S
C846 C848 1.478 . S
C847 H841 0.930 1_455 S
C847 C843 1.397 1_455 S
C847 C846 1.385 . S
C848 C846 1.478 . S
C848 C850 1.381 . S
C848 C854 1.383 . S
C849 C845 1.495 . S
C849 H855 0.959 . S
C849 H856 0.961 . S
C849 H857 0.960 . S
C850 C848 1.381 . S
C850 C851 1.394 . S
C850 H858 0.930 . S
C851 C850 1.394 . S
C851 C852 1.383 . S
C851 H859 0.929 . S
C852 C851 1.383 . S
C852 C853 1.377 . S
C853 H837 0.921 1_455 S
C853 C852 1.377 . S
C853 C854 1.379 . S
C854 H838 0.931 . S
C854 C848 1.383 . S
C854 C853 1.379 . S
H855 C849 0.959 . S
H856 C849 0.961 . S
H857 C849 0.960 . S
H858 C850 0.930 . S
H859 C851 0.929 . S
H860 C868 0.929 . S
H861 C870 0.930 . S
H862 C872 0.945 . S
H863 C875 0.921 1_565 S
H864 C878 0.930 . S
H865 C880 0.960 . S
H866 C880 0.960 . S
H867 C880 0.960 . S
C868 H860 0.929 . S
C868 C869 1.377 . S
C868 C870 1.384 . S
C869 C868 1.377 . S
C869 C875 1.390 . S
C870 H861 0.930 . S
C870 C868 1.384 . S
C870 C871 1.372 . S
C871 C870 1.372 . S
C871 C872 1.400 . S
C871 C876 1.490 . S
C872 H862 0.945 . S
C872 C871 1.400 . S
C872 C875 1.386 . S
H873 C889 0.930 1_565 S
H874 C890 0.931 1_565 S
C875 H863 0.921 1_545 S
C875 C869 1.390 . S
C875 C872 1.386 . S
C876 C871 1.490 . S
C876 C878 1.395 . S
C876 C879 1.403 . S
H877 C883 0.930 . S
C878 H864 0.930 . S
C878 C876 1.395 . S
C878 C881 1.403 . S
C879 C876 1.403 . S
C879 C880 1.524 . S
C879 C883 1.400 . S
C880 H865 0.960 . S
C880 H866 0.960 . S
C880 H867 0.960 . S
C880 C879 1.524 . S
C881 C878 1.403 . S
C881 C882 1.392 . S
C881 C885 1.495 1_545 S
C882 C881 1.392 . S
C882 C883 1.385 . S
C882 C884 1.478 . S
C883 H877 0.930 . S
C883 C879 1.400 . S
C883 C882 1.385 . S
C884 C882 1.478 . S
C884 C886 1.381 . S
C884 C890 1.383 . S
C885 C881 1.495 1_565 S
C885 H891 0.959 . S
C885 H892 0.961 . S
C885 H893 0.960 1_565 S
C886 C884 1.381 . S
C886 C887 1.394 . S
C886 H894 0.930 . S
C887 C886 1.394 . S
C887 C888 1.383 . S
C887 H895 0.929 . S
C888 C887 1.383 . S
C888 C889 1.377 . S
C889 H873 0.930 1_545 S
C889 C888 1.377 . S
C889 C890 1.379 . S
C890 H874 0.931 1_545 S
C890 C884 1.383 . S
C890 C889 1.379 . S
H891 C885 0.959 . S
H892 C885 0.961 . S
H893 C885 0.960 1_545 S
H894 C886 0.930 . S
H895 C887 0.929 . S
H896 C904 0.929 . S
H897 C906 0.930 . S
H898 C908 0.930 . S
H899 C911 0.929 . S
H900 C914 0.930 . S
H901 C916 0.960 . S
H902 C916 0.960 . S
H903 C916 0.960 . S
C904 H896 0.929 . S
C904 C905 1.377 . S
C904 C906 1.384 . S
C905 C904 1.377 . S
C905 C911 1.390 . S
C906 H897 0.930 . S
C906 C904 1.384 . S
C906 C907 1.372 . S
C907 C906 1.372 . S
C907 C908 1.400 . S
C907 C912 1.490 . S
C908 H898 0.930 . S
C908 C907 1.400 . S
C908 C911 1.386 . S
H909 C925 0.930 . S
H910 C926 0.931 . S
C911 H899 0.929 . S
C911 C905 1.390 . S
C911 C908 1.386 . S
C912 C907 1.490 . S
C912 C914 1.395 . S
C912 C915 1.403 . S
H913 C919 0.930 . S
C914 H900 0.930 . S
C914 C912 1.395 . S
C914 C917 1.403 . S
C915 C912 1.403 . S
C915 C916 1.524 . S
C915 C919 1.400 . S
C916 H901 0.960 . S
C916 H902 0.960 . S
C916 H903 0.960 . S
C916 C915 1.524 . S
C917 C914 1.403 . S
C917 C918 1.392 . S
C917 C921 1.495 . S
C918 C917 1.392 . S
C918 C919 1.385 . S
C918 C920 1.478 . S
C919 H913 0.930 . S
C919 C915 1.400 . S
C919 C918 1.385 . S
C920 C918 1.478 . S
C920 C922 1.381 . S
C920 C926 1.383 . S
C921 C917 1.495 . S
C921 H927 0.959 . S
C921 H928 0.961 . S
C921 H929 0.960 . S
C922 C920 1.381 . S
C922 C923 1.394 . S
C922 H930 0.930 . S
C923 C922 1.394 . S
C923 C924 1.383 . S
C923 H931 0.929 . S
C924 C923 1.383 . S
C924 C925 1.377 . S
C925 H909 0.930 . S
C925 C924 1.377 . S
C925 C926 1.379 . S
C926 H910 0.931 . S
C926 C920 1.383 . S
C926 C925 1.379 . S
H927 C921 0.959 . S
H928 C921 0.961 . S
H929 C921 0.960 . S
H930 C922 0.930 . S
H931 C923 0.929 . S
H932 C940 0.929 . S
H933 C942 0.930 . S
H934 C944 0.930 . S
H935 C947 0.929 . S
H936 C950 0.930 . S
H937 C952 0.960 . S
H938 C952 0.960 . S
H939 C952 0.960 . S
C940 H932 0.929 . S
C940 C941 1.377 . S
C940 C942 1.384 . S
C941 C940 1.377 . S
C941 C947 1.390 . S
C942 H933 0.930 . S
C942 C940 1.384 . S
C942 C943 1.372 . S
C943 C942 1.372 . S
C943 C944 1.400 . S
C943 C948 1.490 . S
C944 H934 0.930 . S
C944 C943 1.400 . S
C944 C947 1.386 . S
H945 C961 0.930 . S
H946 C962 0.931 . S
C947 H935 0.929 . S
C947 C941 1.390 . S
C947 C944 1.386 . S
C948 C943 1.490 . S
C948 C950 1.395 . S
C948 C951 1.403 . S
H949 C955 0.930 . S
C950 H936 0.930 . S
C950 C948 1.395 . S
C950 C953 1.403 . S
C951 C948 1.403 . S
C951 C952 1.524 . S
C951 C955 1.400 . S
C952 H937 0.960 . S
C952 H938 0.960 . S
C952 H939 0.960 . S
C952 C951 1.524 . S
C953 C950 1.403 . S
C953 C954 1.392 . S
C953 C957 1.495 . S
C954 C953 1.392 . S
C954 C955 1.385 . S
C954 C956 1.478 . S
C955 H949 0.930 . S
C955 C951 1.400 . S
C955 C954 1.385 . S
C956 C954 1.478 . S
C956 C958 1.381 . S
C956 C962 1.383 . S
C957 C953 1.495 . S
C957 H963 0.959 . S
C957 H964 0.961 . S
C957 H965 0.960 . S
C958 C956 1.381 . S
C958 C959 1.394 . S
C958 H966 0.930 . S
C959 C958 1.394 . S
C959 C960 1.383 . S
C959 H967 0.929 . S
C960 C959 1.383 . S
C960 C961 1.377 . S
C961 H945 0.930 . S
C961 C960 1.377 . S
C961 C962 1.379 . S
C962 H946 0.931 . S
C962 C956 1.383 . S
C962 C961 1.379 . S
H963 C957 0.959 . S
H964 C957 0.961 . S
H965 C957 0.960 . S
H966 C958 0.930 . S
H967 C959 0.929 . S
H968 C976 0.929 . S
H969 C978 0.930 . S
H970 C980 0.930 . S
H971 C983 0.929 . S
H972 C986 0.930 . S
H973 C988 0.960 . S
H974 C988 0.960 . S
H975 C988 0.960 . S
C976 H968 0.929 . S
C976 C977 1.377 1_455 S
C976 C978 1.384 . S
C977 C976 1.377 1_655 S
C977 C983 1.390 . S
C978 H969 0.930 . S
C978 C976 1.384 . S
C978 C979 1.372 1_455 S
C979 C978 1.372 1_655 S
C979 C980 1.400 . S
C979 C984 1.490 . S
C980 H970 0.930 . S
C980 C979 1.400 . S
C980 C983 1.386 . S
H981 C997 0.930 . S
H982 C998 0.931 . S
C983 H971 0.929 . S
C983 C977 1.390 . S
C983 C980 1.386 . S
C984 C979 1.490 . S
C984 C986 1.395 1_655 S
C984 C987 1.403 . S
H985 C991 0.930 . S
C986 H972 0.930 . S
C986 C984 1.395 1_455 S
C986 C989 1.403 . S
C987 C984 1.403 . S
C987 C988 1.524 . S
C987 C991 1.400 . S
C988 H973 0.960 . S
C988 H974 0.960 . S
C988 H975 0.960 . S
C988 C987 1.524 . S
C989 C986 1.403 . S
C989 C990 1.392 1_455 S
C989 C993 1.495 . S
C990 C989 1.392 1_655 S
C990 C991 1.385 . S
C990 C992 1.478 . S
C991 H985 0.930 . S
C991 C987 1.400 . S
C991 C990 1.385 . S
C992 C990 1.478 . S
C992 C994 1.381 1_655 S
C992 C998 1.383 . S
C993 C989 1.495 . S
C993 H999 0.959 . S
C993 H1000 0.961 . S
C993 H1001 0.960 . S
C994 C992 1.381 1_455 S
C994 C995 1.394 . S
C994 H1002 0.930 . S
C995 C994 1.394 . S
C995 C996 1.383 1_455 S
C995 H1003 0.929 . S
C996 C995 1.383 1_655 S
C996 C997 1.377 . S
C997 H981 0.930 . S
C997 C996 1.377 . S
C997 C998 1.379 . S
C998 H982 0.931 . S
C998 C992 1.383 . S
C998 C997 1.379 . S
H999 C993 0.959 . S
H1000 C993 0.961 . S
H1001 C993 0.960 . S
H1002 C994 0.930 . S
H1003 C995 0.929 . S
H1004 C1012 0.929 . S
H1005 C1014 0.930 . S
H1006 C1016 0.930 . S
H1007 C1019 0.929 . S
H1008 C1022 0.930 . S
H1009 C1024 0.960 . S
H1010 C1024 0.960 1_565 S
H1011 C1024 0.960 . S
C1012 H1004 0.929 . S
C1012 C1013 1.377 . S
C1012 C1014 1.384 . S
C1013 C1012 1.377 . S
C1013 C1019 1.390 1_565 S
C1014 H1005 0.930 . S
C1014 C1012 1.384 . S
C1014 C1015 1.372 . S
C1015 C1014 1.372 . S
C1015 C1016 1.400 1_565 S
C1015 C1020 1.490 . S
C1016 H1006 0.930 . S
C1016 C1015 1.400 1_545 S
C1016 C1019 1.386 . S
H1017 C1033 0.930 . S
H1018 C1034 0.931 . S
C1019 H1007 0.929 . S
C1019 C1013 1.390 1_545 S
C1019 C1016 1.386 . S
C1020 C1015 1.490 . S
C1020 C1022 1.395 . S
C1020 C1023 1.403 . S
H1021 C1027 0.925 1_545 S
C1022 H1008 0.930 . S
C1022 C1020 1.395 . S
C1022 C1025 1.403 . S
C1023 C1020 1.403 . S
C1023 C1024 1.524 1_565 S
C1023 C1027 1.400 . S
C1024 H1009 0.960 . S
C1024 H1010 0.960 1_545 S
C1024 H1011 0.960 . S
C1024 C1023 1.524 1_545 S
C1025 C1022 1.403 . S
C1025 C1026 1.392 . S
C1025 C1029 1.495 . S
C1026 C1025 1.392 . S
C1026 C1027 1.385 . S
C1026 C1028 1.478 . S
C1027 H1021 0.925 1_565 S
C1027 C1023 1.400 . S
C1027 C1026 1.385 . S
C1028 C1026 1.478 . S
C1028 C1030 1.381 . S
C1028 C1034 1.383 1_565 S
C1029 C1025 1.495 . S
C1029 H1035 0.959 . S
C1029 H1036 0.961 . S
C1029 H1037 0.960 . S
C1030 C1028 1.381 . S
C1030 C1031 1.394 . S
C1030 H1038 0.930 . S
C1031 C1030 1.394 . S
C1031 C1032 1.383 . S
C1031 H1039 0.929 . S
C1032 C1031 1.383 . S
C1032 C1033 1.377 1_565 S
C1033 H1017 0.930 . S
C1033 C1032 1.377 1_545 S
C1033 C1034 1.379 . S
C1034 H1018 0.931 . S
C1034 C1028 1.383 1_545 S
C1034 C1033 1.379 . S
H1035 C1029 0.959 . S
H1036 C1029 0.961 . S
H1037 C1029 0.960 . S
H1038 C1030 0.930 . S
H1039 C1031 0.929 . S
H1040 C1048 0.929 . S
H1041 C1050 0.930 . S
H1042 C1052 0.930 . S
H1043 C1055 0.929 . S
H1044 C1058 0.930 . S
H1045 C1060 0.960 . S
H1046 C1060 0.960 . S
H1047 C1060 0.960 . S
C1048 H1040 0.929 . S
C1048 C1049 1.377 . S
C1048 C1050 1.384 . S
C1049 C1048 1.377 . S
C1049 C1055 1.390 . S
C1050 H1041 0.930 . S
C1050 C1048 1.384 . S
C1050 C1051 1.372 . S
C1051 C1050 1.372 . S
C1051 C1052 1.400 . S
C1051 C1056 1.490 . S
C1052 H1042 0.930 . S
C1052 C1051 1.400 . S
C1052 C1055 1.386 . S
H1053 C1069 0.930 . S
H1054 C1070 0.931 . S
C1055 H1043 0.929 . S
C1055 C1049 1.390 . S
C1055 C1052 1.386 . S
C1056 C1051 1.490 . S
C1056 C1058 1.395 . S
C1056 C1059 1.403 . S
H1057 C1063 0.930 . S
C1058 H1044 0.930 . S
C1058 C1056 1.395 . S
C1058 C1061 1.403 . S
C1059 C1056 1.403 . S
C1059 C1060 1.524 . S
C1059 C1063 1.400 . S
C1060 H1045 0.960 . S
C1060 H1046 0.960 . S
C1060 H1047 0.960 . S
C1060 C1059 1.524 . S
C1061 C1058 1.403 . S
C1061 C1062 1.392 . S
C1061 C1065 1.495 . S
C1062 C1061 1.392 . S
C1062 C1063 1.385 . S
C1062 C1064 1.478 . S
C1063 H1057 0.930 . S
C1063 C1059 1.400 . S
C1063 C1062 1.385 . S
C1064 C1062 1.478 . S
C1064 C1066 1.381 . S
C1064 C1070 1.383 . S
C1065 C1061 1.495 . S
C1065 H1071 0.959 . S
C1065 H1072 0.961 . S
C1065 H1073 0.960 . S
C1066 C1064 1.381 . S
C1066 C1067 1.394 . S
C1066 H1074 0.930 . S
C1067 C1066 1.394 . S
C1067 C1068 1.383 . S
C1067 H1075 0.929 . S
C1068 C1067 1.383 . S
C1068 C1069 1.377 . S
C1069 H1053 0.930 . S
C1069 C1068 1.377 . S
C1069 C1070 1.379 . S
C1070 H1054 0.931 . S
C1070 C1064 1.383 . S
C1070 C1069 1.379 . S
H1071 C1065 0.959 . S
H1072 C1065 0.961 . S
H1073 C1065 0.960 . S
H1074 C1066 0.930 . S
H1075 C1067 0.929 . S
H1076 C1084 0.929 . S
H1077 C1086 0.930 . S
H1078 C1088 0.930 . S
H1079 C1091 0.929 . S
H1080 C1094 0.930 . S
H1081 C1096 0.960 . S
H1082 C1096 0.960 . S
H1083 C1096 0.960 . S
C1084 H1076 0.929 . S
C1084 C1085 1.377 . S
C1084 C1086 1.384 . S
C1085 C1084 1.377 . S
C1085 C1091 1.390 . S
C1086 H1077 0.930 . S
C1086 C1084 1.384 . S
C1086 C1087 1.372 . S
C1087 C1086 1.372 . S
C1087 C1088 1.400 . S
C1087 C1092 1.490 . S
C1088 H1078 0.930 . S
C1088 C1087 1.400 . S
C1088 C1091 1.386 . S
H1089 C1105 0.930 . S
H1090 C1106 0.931 . S
C1091 H1079 0.929 . S
C1091 C1085 1.390 . S
C1091 C1088 1.386 . S
C1092 C1087 1.490 . S
C1092 C1094 1.395 . S
C1092 C1095 1.403 . S
H1093 C1099 0.930 . S
C1094 H1080 0.930 . S
C1094 C1092 1.395 . S
C1094 C1097 1.403 . S
C1095 C1092 1.403 . S
C1095 C1096 1.524 . S
C1095 C1099 1.400 . S
C1096 H1081 0.960 . S
C1096 H1082 0.960 . S
C1096 H1083 0.960 . S
C1096 C1095 1.524 . S
C1097 C1094 1.403 . S
C1097 C1098 1.392 . S
C1097 C1101 1.495 . S
C1098 C1097 1.392 . S
C1098 C1099 1.385 . S
C1098 C1100 1.478 . S
C1099 H1093 0.930 . S
C1099 C1095 1.400 . S
C1099 C1098 1.385 . S
C1100 C1098 1.478 . S
C1100 C1102 1.381 . S
C1100 C1106 1.383 . S
C1101 C1097 1.495 . S
C1101 H1107 0.959 . S
C1101 H1108 0.961 . S
C1101 H1109 0.960 . S
C1102 C1100 1.381 . S
C1102 C1103 1.394 . S
C1102 H1110 0.930 . S
C1103 C1102 1.394 . S
C1103 C1104 1.383 . S
C1103 H1111 0.929 . S
C1104 C1103 1.383 . S
C1104 C1105 1.377 . S
C1105 H1089 0.930 . S
C1105 C1104 1.377 . S
C1105 C1106 1.379 . S
C1106 H1090 0.931 . S
C1106 C1100 1.383 . S
C1106 C1105 1.379 . S
H1107 C1101 0.959 . S
H1108 C1101 0.961 . S
H1109 C1101 0.960 . S
H1110 C1102 0.930 . S
H1111 C1103 0.929 . S
C257 C74 1.671 . S
C276 C98 1.712 . S
C312 C138 1.708 . S
C293 C85 1.674 . S
C348 C178 1.709 . S
C329 C52 1.674 . S
C384 C218 1.729 . S
C365 C63 1.664 . S
C420 C107 1.720 . S
C401 C30 1.668 . S
C437 C41 1.658 . S
C456 C147 1.716 . S
C473 C8 1.667 . S
C492 C187 1.714 . S
C509 C19 1.667 . S
C528 C227 1.725 . S
C564 C104 0.497 . S
C545 C62 0.421 . S
C600 C144 0.446 . S
C581 C73 0.427 . S
C636 C184 0.471 . S
C617 C84 0.425 . S
C653 C51 0.432 . S
C672 C224 0.409 . S
C689 C18 0.488 1_655 S
C708 C95 0.394 . S
C744 C135 0.508 . S
C725 C29 0.514 . S
C780 C175 0.471 . S
C761 C40 0.510 . S
C797 C7 0.511 . S
C816 C215 0.468 . S
C833 C60 1.589 . S
C852 C99 2.034 . S
C869 C71 1.574 . S
C888 C139 2.018 . S
C924 C179 2.020 . S
C905 C82 1.575 . S
C960 C219 2.016 . S
C941 C49 1.574 . S
C977 C16 1.593 1_655 S
C996 C90 2.016 . S
C1032 C130 2.026 . S
C1013 C27 1.593 1_565 S
C1068 C170 2.035 . S
C1049 C38 1.581 . S
C1085 C5 1.584 . S
C1104 C210 2.027 . S
