# Generated by pormake.
# Topology zzz, (3,6)-cn, num edge types: 1
# Building blocks:
#     Node 0, Type 0, BuildingBlock: OLANEW_clean_sbu_2, # of connection points: 3
#     Node 1, Type 0, BuildingBlock: OLANEW_clean_sbu_2, # of connection points: 3
#     Node 2, Type 0, BuildingBlock: OLANEW_clean_sbu_2, # of connection points: 3
#     Node 3, Type 0, BuildingBlock: OLANEW_clean_sbu_2, # of connection points: 3
#     Node 4, Type 0, BuildingBlock: OLANEW_clean_sbu_2, # of connection points: 3
#     Node 5, Type 0, BuildingBlock: OLANEW_clean_sbu_2, # of connection points: 3
#     Node 6, Type 0, BuildingBlock: OLANEW_clean_sbu_2, # of connection points: 3
#     Node 7, Type 0, BuildingBlock: OLANEW_clean_sbu_2, # of connection points: 3
#     Node 8, Type 1, BuildingBlock: INOVEN_clean_sbu_0, # of connection points: 6
#     Node 9, Type 1, BuildingBlock: INOVEN_clean_sbu_0, # of connection points: 6
#     Node 10, Type 1, BuildingBlock: INOVEN_clean_sbu_0, # of connection points: 6
#     Node 11, Type 1, BuildingBlock: INOVEN_clean_sbu_0, # of connection points: 6
#     Edge 12, Type (0, 1), BuildingBlock: XIVTED_clean_linker_0, # of connection points: 2
#     Edge 13, Type (0, 1), BuildingBlock: XIVTED_clean_linker_0, # of connection points: 2
#     Edge 14, Type (0, 1), BuildingBlock: XIVTED_clean_linker_0, # of connection points: 2
#     Edge 15, Type (0, 1), BuildingBlock: XIVTED_clean_linker_0, # of connection points: 2
#     Edge 16, Type (0, 1), BuildingBlock: XIVTED_clean_linker_0, # of connection points: 2
#     Edge 17, Type (0, 1), BuildingBlock: XIVTED_clean_linker_0, # of connection points: 2
#     Edge 18, Type (0, 1), BuildingBlock: XIVTED_clean_linker_0, # of connection points: 2
#     Edge 19, Type (0, 1), BuildingBlock: XIVTED_clean_linker_0, # of connection points: 2
#     Edge 20, Type (0, 1), BuildingBlock: XIVTED_clean_linker_0, # of connection points: 2
#     Edge 21, Type (0, 1), BuildingBlock: XIVTED_clean_linker_0, # of connection points: 2
#     Edge 22, Type (0, 1), BuildingBlock: XIVTED_clean_linker_0, # of connection points: 2
#     Edge 23, Type (0, 1), BuildingBlock: XIVTED_clean_linker_0, # of connection points: 2
#     Edge 24, Type (0, 1), BuildingBlock: XIVTED_clean_linker_0, # of connection points: 2
#     Edge 25, Type (0, 1), BuildingBlock: XIVTED_clean_linker_0, # of connection points: 2
#     Edge 26, Type (0, 1), BuildingBlock: XIVTED_clean_linker_0, # of connection points: 2
#     Edge 27, Type (0, 1), BuildingBlock: XIVTED_clean_linker_0, # of connection points: 2
#     Edge 28, Type (0, 1), BuildingBlock: XIVTED_clean_linker_0, # of connection points: 2
#     Edge 29, Type (0, 1), BuildingBlock: XIVTED_clean_linker_0, # of connection points: 2
#     Edge 30, Type (0, 1), BuildingBlock: XIVTED_clean_linker_0, # of connection points: 2
#     Edge 31, Type (0, 1), BuildingBlock: XIVTED_clean_linker_0, # of connection points: 2
#     Edge 32, Type (0, 1), BuildingBlock: XIVTED_clean_linker_0, # of connection points: 2
#     Edge 33, Type (0, 1), BuildingBlock: XIVTED_clean_linker_0, # of connection points: 2
#     Edge 34, Type (0, 1), BuildingBlock: XIVTED_clean_linker_0, # of connection points: 2
#     Edge 35, Type (0, 1), BuildingBlock: XIVTED_clean_linker_0, # of connection points: 2
# Relax obj value: 0.239
# Max RMSD: 0.187
# Mean RMSD: 0.170
data_MOF--net-zzz--node1-OLANEW_clean_sbu_2--node2-INOVEN_clean_sbu_0--edge1-XIVTED_clean_linker_0
_symmetry_space_group_name_H-M    P1
_symmetry_Int_Tables_number       1
_symmetry_cell_setting            triclinic
loop_
_symmetry_equiv_pos_as_xyz
'x, y, z'
_cell_length_a     56.529756
_cell_length_b     56.560437
_cell_length_c     15.166671
_cell_angle_alpha  89.950685
_cell_angle_beta   89.971814
_cell_angle_gamma 90.002771
loop_
_atom_site_label
_atom_site_type_symbol
_atom_site_fract_x
_atom_site_fract_y
_atom_site_fract_z
_atom_type_partial_charge
O0 O 0.71566 0.61129 0.16807 0.0
Cd1 Cd 0.6782 0.63178 0.19181 0.0
O2 O 0.71954 0.60332 0.30929 0.0
Cd3 Cd 0.74141 0.58862 0.41496 0.0
O4 O 0.77124 0.56995 0.47441 0.0
C5 C 0.7917 0.5728 0.44118 0.0
O6 O 0.79434 0.5876 0.37508 0.0
C7 C 0.727 0.6015 0.23045 0.0
C8 C 0.64429 0.61093 0.08366 0.0
O9 O 0.65656 0.62856 0.0567 0.0
O10 O 0.64762 0.60358 0.16265 0.0
O11 O 0.85885 0.73275 0.07327 0.0
Cd12 Cd 0.84063 0.69948 0.1507 0.0
O13 O 0.88218 0.73303 0.18843 0.0
Cd14 Cd 0.90918 0.75028 0.26863 0.0
O15 O 0.93146 0.77797 0.32376 0.0
C16 C 0.92838 0.79869 0.29345 0.0
O17 O 0.91199 0.80218 0.23349 0.0
C18 C 0.87641 0.74154 0.11381 0.0
C19 C 0.86745 0.6588 0.12405 0.0
O20 O 0.84885 0.66283 0.07818 0.0
O21 O 0.87318 0.6738 0.18358 0.0
O22 O 0.78843 0.86487 0.08433 0.0
Cd23 Cd 0.82847 0.849 0.09727 0.0
O24 O 0.79116 0.88374 0.21088 0.0
Cd25 Cd 0.77296 0.90559 0.30912 0.0
O26 O 0.74146 0.92453 0.35443 0.0
C27 C 0.7347 0.92377 0.43421 0.0
O28 O 0.74745 0.91203 0.49191 0.0
C29 C 0.77958 0.87869 0.14148 0.0
C30 C 0.8593 0.87725 0.99959 0.0
O31 O 0.84836 0.85991 0.96372 0.0
O32 O 0.85603 0.88094 0.08207 0.0
O33 O 0.63385 0.76871 0.12486 0.0
Cd34 Cd 0.64999 0.80711 0.16666 0.0
O35 O 0.60439 0.77632 0.21477 0.0
Cd36 Cd 0.57271 0.76361 0.28244 0.0
O37 O 0.55146 0.73397 0.32884 0.0
C38 C 0.55311 0.72763 0.40892 0.0
O39 O 0.56632 0.74015 0.46272 0.0
C40 C 0.61414 0.7628 0.15844 0.0
C41 C 0.62754 0.84176 0.06645 0.0
O42 O 0.64689 0.83223 0.04043 0.0
O43 O 0.61909 0.83532 0.14112 0.0
O44 O 0.25248 0.45076 0.24007 0.0
Cd45 Cd 0.2882 0.4322 0.18212 0.0
O46 O 0.23629 0.41585 0.26238 0.0
Cd47 Cd 0.20301 0.39764 0.29167 0.0
O48 O 0.16676 0.40799 0.25986 0.0
C49 C 0.16615 0.42021 0.18957 0.0
O50 O 0.18591 0.42325 0.14529 0.0
C51 C 0.2353 0.43827 0.26729 0.0
C52 C 0.3271 0.44863 0.27633 0.0
O53 O 0.32053 0.45886 0.20498 0.0
O54 O 0.31554 0.43038 0.30198 0.0
O55 O 0.07244 0.27979 0.24743 0.0
Cd56 Cd 0.07685 0.3195 0.1863 0.0
O57 O 0.07559 0.26538 0.11369 0.0
Cd58 Cd 0.07155 0.23559 0.02362 0.0
O59 O 0.06328 0.20181 0.96205 0.0
C60 C 0.04933 0.1877 0.00151 0.0
O61 O 0.03996 0.1941 0.07706 0.0
C62 C 0.07267 0.26212 0.19591 0.0
C63 C 0.05508 0.35217 0.29698 0.0
O64 O 0.04331 0.3415 0.23678 0.0
O65 O 0.07723 0.34765 0.30383 0.0
O66 O 0.25348 0.09133 0.3098 0.0
Cd67 Cd 0.21483 0.10637 0.26338 0.0
O68 O 0.26752 0.10101 0.17968 0.0
Cd69 Cd 0.29662 0.09876 0.0854 0.0
O70 O 0.33053 0.08555 0.03809 0.0
C71 C 0.33195 0.0744 0.96566 0.0
O72 O 0.31286 0.07182 0.91723 0.0
C73 C 0.27075 0.09251 0.25639 0.0
C74 C 0.17746 0.08223 0.34311 0.0
O75 O 0.18558 0.07562 0.26815 0.0
O76 O 0.18703 0.10021 0.38015 0.0
O77 O 0.43549 0.23358 0.28262 0.0
Cd78 Cd 0.41995 0.19443 0.24696 0.0
O79 O 0.42843 0.24434 0.14621 0.0
Cd80 Cd 0.42648 0.27178 0.04534 0.0
O81 O 0.43465 0.3068 0.9944 0.0
C82 C 0.44379 0.30989 0.91881 0.0
O83 O 0.44742 0.29154 0.86752 0.0
C84 C 0.43619 0.24928 0.22276 0.0
C85 C 0.44306 0.15938 0.34305 0.0
O86 O 0.45057 0.16564 0.26676 0.0
O87 O 0.42454 0.1696 0.37344 0.0
Gd88 Gd 0.0101 0.97498 0.7287 0.0
Gd89 Gd 0.00081 -8e-05 0.5498 0.0
C90 C 0.99927 0.94451 0.549 0.0
C91 C 0.00675 0.94839 0.86688 0.0
C92 C 0.9933 0.92695 0.88902 0.0
C93 C 0.99613 0.91634 0.97175 0.0
C94 C 0.97742 0.9171 0.82828 0.0
C95 C 0.96761 0.88576 0.93238 0.0
C96 C 0.96472 0.89667 0.8496 0.0
C97 C 0.98337 0.89596 0.99341 0.0
C98 C 0.04904 0.99034 0.64419 0.0
C99 C 0.01257 0.03073 0.72656 0.0
C100 C 0.00165 0.02709 0.41312 0.0
C101 C 0.01108 0.05074 0.39274 0.0
C102 C 0.99727 0.06652 0.34348 0.0
C103 C 0.03326 0.05811 0.42435 0.0
C104 C 0.02754 0.09684 0.35773 0.0
C105 C 0.04152 0.08092 0.40627 0.0
C106 C 0.00537 0.0894 0.32643 0.0
C107 C 0.9622 0.98418 0.63743 0.0
O108 O 0.9981 0.94589 0.63613 0.0
O109 O 0.00366 0.96315 0.4992 0.0
O110 O 0.0234 0.94589 0.8075 0.0
O111 O 0.99411 0.9675 0.85524 0.0
O112 O 0.04729 0.98935 0.72952 0.0
O113 O 0.03106 0.98132 0.60852 0.0
O114 O 0.01338 0.02915 0.63956 0.0
O115 O 0.0083 0.01223 0.77738 0.0
O116 O 0.98393 0.02655 0.46871 0.0
O117 O 0.01715 0.01024 0.42669 0.0
O118 O 0.96394 0.98413 0.55207 0.0
O119 O 0.9802 0.99376 0.67033 0.0
H120 H 0.00816 0.92386 0.01974 0.0
H121 H 0.97482 0.92517 0.76433 0.0
H122 H 0.95293 0.88927 0.80062 0.0
H123 H 0.9857 0.88835 0.05836 0.0
H124 H 0.98009 0.06119 0.31885 0.0
H125 H 0.04409 0.04638 0.46378 0.0
H126 H 0.05858 0.08629 0.43187 0.0
H127 H 0.99434 0.10127 0.28826 0.0
Gd128 Gd 0.54136 -0.0001 0.79237 0.0
Gd129 Gd 0.5223 0.99261 0.60198 0.0
C130 C 0.5773 0.98723 0.62902 0.0
C131 C 0.56285 0.9957 0.94177 0.0
C132 C 0.5833 0.982 0.97217 0.0
C133 C 0.59331 0.98661 0.05481 0.0
C134 C 0.59328 0.9646 0.91792 0.0
C135 C 0.62365 0.95691 0.02773 0.0
C136 C 0.61324 0.95212 0.94543 0.0
C137 C 0.61335 0.97417 0.08247 0.0
C138 C 0.5315 0.0397 0.70191 0.0
C139 C 0.48631 0.00546 0.76577 0.0
C140 C 0.49947 0.99662 0.45546 0.0
C141 C 0.47569 0.00558 0.4335 0.0
C142 C 0.45611 -0.00012 0.48646 0.0
C143 C 0.47256 0.02075 0.36127 0.0
C144 C 0.43055 0.0245 0.39554 0.0
C145 C 0.4502 0.03009 0.34227 0.0
C146 C 0.43384 0.00929 0.46791 0.0
C147 C 0.53272 0.95275 0.69161 0.0
O148 O 0.5726 0.98619 0.71455 0.0
O149 O 0.56098 0.99286 0.57011 0.0
O150 O 0.56754 0.01258 0.88521 0.0
O151 O 0.54418 0.98327 0.9203 0.0
O152 O 0.52904 0.0378 0.78672 0.0
O153 O 0.5407 0.0212 0.67103 0.0
O154 O 0.49052 0.00518 0.67984 0.0
O155 O 0.50289 0.00085 0.82459 0.0
O156 O 0.50026 0.97698 0.50125 0.0
O157 O 0.51469 0.01245 0.48273 0.0
O158 O 0.53496 0.95491 0.60675 0.0
O159 O 0.5233 0.97113 0.72307 0.0
H160 H 0.58576 -2e-05 0.09753 0.0
H161 H 0.58582 0.96087 0.85378 0.0
H162 H 0.6209 0.9392 0.90112 0.0
H163 H 0.62082 0.97808 0.14657 0.0
H164 H 0.45805 0.98835 0.54303 0.0
H165 H 0.48745 0.02544 0.31976 0.0
H166 H 0.44829 0.04152 0.28541 0.0
H167 H 0.41927 0.00494 0.51141 0.0
Gd168 Gd 0.49269 0.52766 0.75517 0.0
Gd169 Gd 0.50264 0.51052 0.56467 0.0
C170 C 0.50314 0.56536 0.59533 0.0
C171 C 0.49599 0.54922 0.90423 0.0
C172 C 0.50809 0.57109 0.93223 0.0
C173 C 0.50407 0.59263 0.88854 0.0
C174 C 0.52476 0.57025 0.00074 0.0
C175 C 0.53291 0.61225 0.98252 0.0
C176 C 0.5371 0.59062 0.02559 0.0
C177 C 0.51633 0.61298 0.91348 0.0
C178 C 0.45424 0.5166 0.65984 0.0
C179 C 0.49107 0.47261 0.72397 0.0
C180 C 0.50207 0.48826 0.41612 0.0
C181 C 0.49751 0.46338 0.39296 0.0
C182 C 0.50436 0.4451 0.45023 0.0
C183 C 0.48512 0.4578 0.31569 0.0
C184 C 0.48583 0.41598 0.35464 0.0
C185 C 0.4794 0.43427 0.29642 0.0
C186 C 0.49855 0.42166 0.43136 0.0
C187 C 0.54076 0.52213 0.6625 0.0
O188 O 0.50471 0.56024 0.68044 0.0
O189 O 0.49873 0.549 0.53536 0.0
O190 O 0.47776 0.5516 0.85152 0.0
O191 O 0.5099 0.53174 0.88177 0.0
O192 O 0.45556 0.51346 0.7446 0.0
O193 O 0.47243 0.52699 0.63146 0.0
O194 O 0.49179 0.47739 0.63846 0.0
O195 O 0.49385 0.48911 0.78462 0.0
O196 O 0.52148 0.49239 0.46062 0.0
O197 O 0.48383 0.5 0.44631 0.0
O198 O 0.53932 0.52611 0.57829 0.0
O199 O 0.52267 0.51119 0.68832 0.0
H200 H 0.49161 0.59379 0.83448 0.0
H201 H 0.52832 0.55379 0.03479 0.0
H202 H 0.54966 0.58949 0.0793 0.0
H203 H 0.51303 0.62925 0.8778 0.0
H204 H 0.51395 0.44895 0.51035 0.0
H205 H 0.47955 0.47167 0.27098 0.0
H206 H 0.46942 0.43048 0.23717 0.0
H207 H 0.50403 0.40796 0.47696 0.0
Gd208 Gd 0.96068 0.47983 0.88822 0.0
Gd209 Gd 0.9919 0.50698 0.75621 0.0
C210 C 0.93527 0.50151 0.71814 0.0
C211 C 0.93569 0.47036 0.02553 0.0
C212 C 0.91267 0.47998 0.05302 0.0
C213 C 0.9086 0.48568 0.14172 0.0
C214 C 0.89592 0.48656 0.98924 0.0
C215 C 0.87202 0.50571 0.10159 0.0
C216 C 0.87582 0.49929 0.01324 0.0
C217 C 0.88834 0.49835 0.16599 0.0
C218 C 0.97887 0.45341 0.75742 0.0
C219 C 0.0176 0.48426 0.92381 0.0
C220 C 0.01576 0.51992 0.61892 0.0
C221 C 0.03895 0.51373 0.58209 0.0
C222 C 0.04678 0.52422 0.50366 0.0
C223 C 0.05315 0.49686 0.62407 0.0
C224 C 0.0829 0.50066 0.50856 0.0
C225 C 0.07477 0.49019 0.5873 0.0
C226 C 0.06863 0.51783 0.46731 0.0
C227 C 0.97206 0.53338 0.8856 0.0
O228 O 0.93243 0.4947 0.80081 0.0
O229 O 0.9566 0.50529 0.68457 0.0
O230 O 0.93571 0.45691 0.95502 0.0
O231 O 0.95294 0.48583 0.02603 0.0
O232 O 0.95864 0.44878 0.79436 0.0
O233 O 0.98917 0.46992 0.79723 0.0
O234 O 0.02034 0.49189 0.84201 0.0
O235 O 0.99636 0.48006 0.9575 0.0
O236 O 0.01607 0.53153 0.69359 0.0
O237 O 2e-05 0.50293 0.61773 0.0
O238 O 0.99245 0.53825 0.8506 0.0
O239 O 0.96286 0.51652 0.84475 0.0
H240 H 0.9215 0.48107 0.19168 0.0
H241 H 0.89874 0.48255 0.92028 0.0
H242 H 0.86338 0.50438 0.96234 0.0
H243 H 0.88593 0.50317 0.23451 0.0
H244 H 0.03601 0.53735 0.47056 0.0
H245 H 0.04745 0.48874 0.6851 0.0
H246 H 0.08494 0.4766 0.62029 0.0
H247 H 0.0744 0.52654 0.40745 0.0
H248 H 0.15925 0.08937 0.50801 0.0
H249 H 0.05996 0.98894 0.46842 0.0
H250 H 0.15078 0.04588 0.27636 0.0
H251 H 0.07998 0.02206 0.71324 0.0
H252 H 0.09051 0.01208 0.39214 0.0
H253 H 0.12739 0.06742 0.57955 0.0
C254 C 0.15066 0.07523 0.47206 0.0
C255 C 0.15779 0.06938 0.3862 0.0
C256 C 0.08824 0.01423 0.46257 0.0
C257 C 0.12123 0.04417 0.46782 0.0
C258 C 0.0708 0.0011 0.50593 0.0
C259 C 0.06757 0.0036 0.59707 0.0
C260 C 0.10235 0.03006 0.51085 0.0
C261 C 0.08206 0.01949 0.64293 0.0
C262 C 0.13249 0.06267 0.51306 0.0
C263 C 0.14595 0.05091 0.34282 0.0
N264 N 0.09877 0.03217 0.5993 0.0
N265 N 0.12824 0.03896 0.3841 0.0
H266 H 0.43281 0.14401 0.5098 0.0
H267 H 0.53986 0.05134 0.52993 0.0
H268 H 0.48194 0.13337 0.29542 0.0
H269 H 0.49589 0.06903 0.75269 0.0
H270 H 0.51782 0.07988 0.44001 0.0
H271 H 0.45448 0.11487 0.5968 0.0
C272 C 0.44813 0.13551 0.48091 0.0
C273 C 0.45563 0.14122 0.39529 0.0
C274 C 0.51304 0.07758 0.50863 0.0
C275 C 0.48057 0.10783 0.49473 0.0
C276 C 0.52557 0.06129 0.55973 0.0
C277 C 0.51956 0.05784 0.64842 0.0
C278 C 0.49442 0.09047 0.54679 0.0
C279 C 0.50114 0.07129 0.68452 0.0
C280 C 0.46054 0.1189 0.53073 0.0
C281 C 0.47558 0.12958 0.36126 0.0
N282 N 0.48914 0.08695 0.63346 0.0
N283 N 0.48738 0.11345 0.41111 0.0
H284 H 0.35698 0.48519 0.23525 0.0
H285 H 0.42176 0.48317 0.70411 0.0
H286 H 0.3422 0.43374 0.43839 0.0
H287 H 0.44439 0.52736 0.48813 0.0
H288 H 0.39143 0.46591 0.60903 0.0
H289 H 0.38838 0.50168 0.32749 0.0
C290 C 0.36039 0.4773 0.29908 0.0
C291 C 0.34691 0.45808 0.32924 0.0
C292 C 0.40303 0.47935 0.58225 0.0
C293 C 0.38268 0.47697 0.43531 0.0
C294 C 0.42024 0.48928 0.63663 0.0
C295 C 0.43554 0.50664 0.6036 0.0
C296 C 0.40099 0.487 0.49441 0.0
C297 C 0.43298 0.51387 0.51571 0.0
C298 C 0.37832 0.48672 0.35168 0.0
C299 C 0.35214 0.44855 0.41245 0.0
N300 N 0.41598 0.50404 0.46407 0.0
N301 N 0.36953 0.45817 0.46271 0.0
H302 H 0.00759 0.35989 0.31818 0.0
H303 H 0.02477 0.45428 0.70534 0.0
H304 H 0.07579 0.38176 0.41683 0.0
H305 H 0.95797 0.42085 0.64907 0.0
H306 H 0.04317 0.43129 0.58758 0.0
H307 H 0.98853 0.38555 0.42688 0.0
C308 C 0.01856 0.3702 0.3623 0.0
C309 C 0.04332 0.36859 0.35877 0.0
C310 C 0.02448 0.42896 0.60075 0.0
C311 C 0.02163 0.39795 0.48308 0.0
C312 C 0.01397 0.4422 0.66753 0.0
C313 C 0.98986 0.43949 0.6864 0.0
C314 C 0.01074 0.41289 0.55233 0.0
C315 C 0.97666 0.42335 0.63657 0.0
C316 C 0.00766 0.38476 0.42451 0.0
C317 C 0.05665 0.38234 0.41757 0.0
N318 N 0.98728 0.41063 0.57158 0.0
N319 N 0.04563 0.39643 0.47732 0.0
H320 H 0.88911 0.91192 0.0588 0.0
H321 H 0.93476 0.94793 0.57685 0.0
H322 H 0.86458 0.87842 0.82013 0.0
H323 H 0.95219 0.98666 0.8127 0.0
H324 H 0.90971 0.92155 0.66475 0.0
H325 H 0.91371 0.93833 0.97005 0.0
C326 C 0.88887 0.91014 0.98771 0.0
C327 C 0.87473 0.89296 0.94683 0.0
C328 C 0.91892 0.93588 0.69728 0.0
C329 C 0.90271 0.92328 0.84471 0.0
C330 C 0.93309 0.951 0.64707 0.0
C331 C 0.94557 0.96938 0.68793 0.0
C332 C 0.9172 0.93926 0.78888 0.0
C333 C 0.94303 0.97249 0.77907 0.0
C334 C 0.90289 0.92526 0.93704 0.0
C335 C 0.87521 0.89139 0.85444 0.0
N336 N 0.92919 0.95753 0.82661 0.0
N337 N 0.88894 0.90638 0.80651 0.0
H338 H 0.64114 0.85909 0.90601 0.0
H339 H 0.56789 0.9242 0.63294 0.0
H340 H 0.58517 0.86377 0.09887 0.0
H341 H 0.52821 0.94152 0.86689 0.0
H342 H 0.59201 0.89722 0.71851 0.0
H343 H 0.6195 0.88611 0.81148 0.0
C344 C 0.62413 0.86564 0.92807 0.0
C345 C 0.61486 0.85895 0.01014 0.0
C346 C 0.57845 0.90716 0.75235 0.0
C347 C 0.58923 0.88934 0.90007 0.0
C348 C 0.56434 0.92234 0.70281 0.0
C349 C 0.54626 0.93533 0.74332 0.0
C350 C 0.57456 0.90498 0.84357 0.0
C351 C 0.54231 0.93213 0.83372 0.0
C352 C 0.61153 0.88092 0.8733 0.0
C353 C 0.59293 0.86834 0.03585 0.0
N354 N 0.55638 0.91726 0.88097 0.0
N355 N 0.58084 0.88301 0.9809 0.0
H356 H 0.61603 0.57284 0.12045 0.0
H357 H 0.56596 0.56225 0.62782 0.0
H358 H 0.63454 0.62114 0.91091 0.0
H359 H 0.5514 0.51147 0.83293 0.0
H360 H 0.58996 0.58501 0.73188 0.0
H361 H 0.59032 0.55153 0.01833 0.0
C362 C 0.61466 0.579 0.05302 0.0
C363 C 0.6276 0.59871 0.02404 0.0
C364 C 0.58157 0.56886 0.75418 0.0
C365 C 0.59835 0.57426 0.90654 0.0
C366 C 0.56804 0.55579 0.69464 0.0
C367 C 0.55674 0.53501 0.7222 0.0
C368 C 0.5839 0.56098 0.84167 0.0
C369 C 0.55972 0.52754 0.80956 0.0
C370 C 0.60001 0.56679 0.99467 0.0
C371 C 0.625 0.60597 0.93602 0.0
N372 N 0.573 0.54053 0.86632 0.0
N373 N 0.61075 0.59368 0.88032 0.0
H374 H 0.85481 0.61768 0.04241 0.0
H375 H 0.98618 0.57515 0.96097 0.0
H376 H 0.91428 0.65284 0.16316 0.0
H377 H 0.92605 0.52873 0.93454 0.0
H378 H 0.96068 0.60412 0.03524 0.0
H379 H 0.88083 0.585 0.00077 0.0
C380 C 0.87333 0.61843 0.06062 0.0
C381 C 0.88247 0.63803 0.10569 0.0
C382 C 0.95319 0.58744 0.01418 0.0
C383 C 0.91238 0.60092 0.05731 0.0
C384 C 0.96771 0.57096 0.97183 0.0
C385 C 0.95811 0.54972 0.94067 0.0
C386 C 0.92892 0.58267 0.02407 0.0
C387 C 0.9341 0.54503 0.95669 0.0
C388 C 0.88815 0.59974 0.03721 0.0
C389 C 0.90655 0.63803 0.12834 0.0
N390 N 0.92025 0.56152 0.99613 0.0
N391 N 0.92078 0.61991 0.10273 0.0
H392 H 0.03907 0.24905 0.31488 0.0
H393 H 0.07074 0.11113 0.29554 0.0
H394 H 0.0957 0.2211 0.15567 0.0
H395 H 0.00314 0.13799 0.38132 0.0
H396 H 0.08349 0.15175 0.26402 0.0
H397 H 0.02921 0.20874 0.36189 0.0
C398 C 0.04953 0.23439 0.29054 0.0
C399 C 0.06791 0.23822 0.23023 0.0
C400 C 0.06591 0.14873 0.29002 0.0
C401 C 0.05696 0.19227 0.28397 0.0
C402 C 0.05867 0.12562 0.3083 0.0
C403 C 0.03583 0.12126 0.34065 0.0
C404 C 0.0503 0.1676 0.30555 0.0
C405 C 0.02081 0.1406 0.35551 0.0
C406 C 0.04385 0.21143 0.31694 0.0
C407 C 0.08106 0.21873 0.20087 0.0
N408 N 0.02832 0.16293 0.33803 0.0
N409 N 0.07533 0.19655 0.228 0.0
H410 H 0.3137 0.11278 0.226 0.0
H411 H 0.3873 0.00268 0.41026 0.0
H412 H 0.28107 0.05193 0.34646 0.0
H413 H 0.41935 0.06917 0.33698 0.0
H414 H 0.34838 0.01965 0.38148 0.0
H415 H 0.35267 0.09636 0.25996 0.0
C416 C 0.3148 0.09585 0.25916 0.0
C417 C 0.29424 0.0834 0.28179 0.0
C418 C 0.36392 0.03054 0.37186 0.0
C419 C 0.33869 0.06466 0.3223 0.0
C420 C 0.3862 0.0209 0.38864 0.0
C421 C 0.40674 0.0345 0.3763 0.0
C422 C 0.36208 0.05394 0.34189 0.0
C423 C 0.4041 0.05787 0.34629 0.0
C424 C 0.33702 0.08657 0.27914 0.0
C425 C 0.29656 0.06196 0.32738 0.0
N426 N 0.38221 0.06682 0.33004 0.0
N427 N 0.31842 0.05315 0.34552 0.0
H428 H 0.46315 0.27825 0.1186 0.0
H429 H 0.46831 0.38332 0.47097 0.0
H430 H 0.43051 0.27429 0.37511 0.0
H431 H 0.48762 0.39196 0.19746 0.0
H432 H 0.45739 0.34232 0.4408 0.0
H433 H 0.47514 0.31894 0.14971 0.0
C434 C 0.45816 0.28611 0.18093 0.0
C435 C 0.44503 0.27325 0.24306 0.0
C436 C 0.46401 0.35317 0.38736 0.0
C437 C 0.45959 0.31942 0.28084 0.0
C438 C 0.47038 0.37655 0.40462 0.0
C439 C 0.47896 0.39109 0.33665 0.0
C440 C 0.46635 0.34415 0.30157 0.0
C441 C 0.4809 0.38145 0.25166 0.0
C442 C 0.46526 0.30924 0.1991 0.0
C443 C 0.44034 0.28375 0.32495 0.0
N444 N 0.47472 0.35857 0.2366 0.0
N445 N 0.44752 0.30628 0.34135 0.0
H446 H 0.21412 0.42823 0.42251 0.0
H447 H 0.09545 0.49649 0.33307 0.0
H448 H 0.20841 0.47368 0.19529 0.0
H449 H 0.12364 0.48871 0.59641 0.0
H450 H 0.1336 0.48346 0.27346 0.0
H451 H 0.17741 0.44512 0.48072 0.0
C452 C 0.20509 0.44185 0.38519 0.0
C453 C 0.21407 0.44958 0.30413 0.0
C454 C 0.13133 0.48483 0.34421 0.0
C455 C 0.17211 0.46863 0.36924 0.0
C456 C 0.10962 0.49232 0.37847 0.0
C457 C 0.10614 0.49361 0.47026 0.0
C458 C 0.1495 0.47823 0.4021 0.0
C459 C 0.12515 0.48749 0.52545 0.0
C460 C 0.18426 0.45149 0.41837 0.0
C461 C 0.20194 0.46738 0.25827 0.0
N462 N 0.14589 0.47985 0.49054 0.0
N463 N 0.18127 0.47612 0.29087 0.0
H464 H 0.85874 0.78014 0.0268 0.0
H465 H 0.98322 0.84726 0.02646 0.0
H466 H 0.92402 0.74854 0.11447 0.0
H467 H 0.92198 0.87382 0.88875 0.0
H468 H 0.9611 0.81167 0.0643 0.0
H469 H 0.88101 0.815 0.97701 0.0
C470 C 0.87778 0.78052 0.035 0.0
C471 C 0.88955 0.7618 0.0768 0.0
C472 C 0.95249 0.82524 0.02547 0.0
C473 C 0.91506 0.80134 0.02 0.0
C474 C 0.96506 0.84572 0.00455 0.0
C475 C 0.95439 0.86377 0.95486 0.0
C476 C 0.929 0.8227 0.99684 0.0
C477 C 0.93093 0.86042 0.9269 0.0
C478 C 0.89046 0.80038 0.00677 0.0
C479 C 0.91421 0.76297 0.0851 0.0
N480 N 0.91898 0.84037 0.94861 0.0
N481 N 0.92614 0.78246 0.05748 0.0
H482 H 0.73952 0.85713 0.08022 0.0
H483 H 0.66261 0.97595 0.10807 0.0
H484 H 0.76678 0.9245 0.1654 0.0
H485 H 0.63516 0.91021 0.0072 0.0
H486 H 0.69998 0.95629 0.14065 0.0
H487 H 0.70048 0.8754 0.05902 0.0
C488 C 0.7372 0.87573 0.09476 0.0
C489 C 0.75611 0.88925 0.12671 0.0
C490 C 0.68579 0.9461 0.11146 0.0
C491 C 0.71185 0.91024 0.10249 0.0
C492 C 0.66435 0.95729 0.09356 0.0
C493 C 0.64579 0.94472 0.05404 0.0
C494 C 0.68877 0.92216 0.08949 0.0
C495 C 0.64919 0.92062 0.03588 0.0
C496 C 0.71498 0.88613 0.08301 0.0
C497 C 0.7524 0.91332 0.14352 0.0
N498 N 0.6703 0.91013 0.05331 0.0
N499 N 0.7307 0.92303 0.1315 0.0
H500 H 0.56746 0.75592 0.12521 0.0
H501 H 0.5796 0.61737 0.02774 0.0
H502 H 0.63447 0.71957 0.12764 0.0
H503 H 0.51482 0.65689 0.00015 0.0
H504 H 0.60008 0.65379 0.07045 0.0
H505 H 0.54785 0.71908 0.08519 0.0
C506 C 0.57799 0.74003 0.11848 0.0
C507 C 0.60249 0.74057 0.13203 0.0
C508 C 0.58139 0.65448 0.05489 0.0
C509 C 0.58029 0.69838 0.08362 0.0
C510 C 0.56971 0.63369 0.0309 0.0
C511 C 0.54554 0.63409 0.00973 0.0
C512 C 0.56873 0.67582 0.05848 0.0
C513 C 0.53355 0.65577 0.01448 0.0
C514 C 0.56684 0.71904 0.09471 0.0
C515 C 0.61547 0.71976 0.11859 0.0
N516 N 0.54524 0.67571 0.03844 0.0
N517 N 0.60419 0.6994 0.09558 0.0
H518 H 0.7625 0.61303 0.11627 0.0
H519 H 0.84185 0.50067 0.24223 0.0
H520 H 0.74007 0.5588 0.2978 0.0
H521 H 0.85546 0.54481 0.01553 0.0
H522 H 0.80693 0.52469 0.27577 0.0
H523 H 0.79876 0.59045 0.08741 0.0
C524 C 0.7653 0.5964 0.15018 0.0
C525 C 0.74869 0.58802 0.21124 0.0
C526 C 0.81753 0.52904 0.21853 0.0
C527 C 0.7898 0.56209 0.1784 0.0
C528 C 0.83754 0.51547 0.19978 0.0
C529 C 0.85137 0.52057 0.12535 0.0
C530 C 0.81143 0.54794 0.16275 0.0
C531 C 0.84498 0.53996 0.07252 0.0
C532 C 0.78594 0.58354 0.13383 0.0
C533 C 0.75289 0.56624 0.2526 0.0
N534 N 0.82546 0.55291 0.09215 0.0
N535 N 0.77307 0.55404 0.23567 0.0
H536 H 0.02652 0.15048 0.08 0.0
H537 H 0.02916 0.07057 0.64554 0.0
H538 H 0.05951 0.17175 0.83565 0.0
H539 H 0.00781 0.04377 0.90027 0.0
H540 H 0.03801 0.10858 0.71296 0.0
H541 H 0.01732 0.11206 0.01427 0.0
C542 C 0.03177 0.1471 0.01246 0.0
C543 C 0.04373 0.16437 0.96305 0.0
C544 C 0.0314 0.0944 0.75423 0.0
C545 C 0.03325 0.12051 0.88762 0.0
C546 C 0.02624 0.07267 0.71571 0.0
C547 C 0.01767 0.05391 0.76734 0.0
C548 C 0.02786 0.09755 0.84507 0.0
C549 C 0.01441 0.05772 0.85799 0.0
C550 C 0.02658 0.12514 0.97514 0.0
C551 C 0.05028 0.15896 0.87616 0.0
N552 N 0.01946 0.07915 0.89399 0.0
N553 N 0.04488 0.13755 0.84116 0.0
H554 H 0.37263 0.06976 0.06234 0.0
H555 H 0.44714 0.0148 0.66581 0.0
H556 H 0.34289 0.05444 0.80649 0.0
H557 H 0.47175 0.01474 0.93521 0.0
H558 H 0.40938 0.03064 0.71508 0.0
H559 H 0.40976 0.05145 0.01574 0.0
C560 C 0.37392 0.06262 0.99625 0.0
C561 C 0.35464 0.0637 0.93804 0.0
C562 C 0.42295 0.02698 0.76359 0.0
C563 C 0.39707 0.0427 0.88449 0.0
C564 C 0.44456 0.01784 0.73548 0.0
C565 C 0.46269 0.01326 0.79636 0.0
C566 C 0.41945 0.0319 0.85331 0.0
C567 C 0.45828 0.01787 0.88586 0.0
C568 C 0.39509 0.05205 0.96991 0.0
C569 C 0.35728 0.05401 0.8535 0.0
N570 N 0.43716 0.02709 0.91157 0.0
N571 N 0.37814 0.04401 0.82916 0.0
H572 H 0.44698 0.34972 0.02012 0.0
H573 H 0.48274 0.43402 0.61952 0.0
H574 H 0.45755 0.32452 0.75433 0.0
H575 H 0.48642 0.45543 0.8924 0.0
H576 H 0.47207 0.39423 0.66652 0.0
H577 H 0.45958 0.38906 0.9734 0.0
C578 C 0.45186 0.35248 0.95179 0.0
C579 C 0.45112 0.33382 0.89085 0.0
C580 C 0.47537 0.40759 0.71615 0.0
C581 C 0.46559 0.37884 0.83705 0.0
C582 C 0.48156 0.43035 0.68935 0.0
C583 C 0.48567 0.44814 0.75202 0.0
C584 C 0.473 0.40259 0.80637 0.0
C585 C 0.48349 0.44231 0.84166 0.0
C586 C 0.45917 0.37493 0.92529 0.0
C587 C 0.45785 0.33839 0.80344 0.0
N588 N 0.4772 0.42006 0.86611 0.0
N589 N 0.46472 0.36047 0.77904 0.0
H590 H 0.1615 0.45114 0.05361 0.0
H591 H 0.02053 0.46049 0.08224 0.0
H592 H 0.12084 0.41589 0.25574 0.0
H593 H 0.06359 0.49296 0.88038 0.0
H594 H 0.05667 0.4468 0.15581 0.0
H595 H 0.12553 0.46927 0.99852 0.0
C596 C 0.14495 0.44715 0.08646 0.0
C597 C 0.14415 0.43165 0.15859 0.0
C598 C 0.05814 0.45707 0.09577 0.0
C599 C 0.10261 0.45252 0.09549 0.0
C600 C 0.03754 0.46495 0.05383 0.0
C601 C 0.039 0.47773 0.9745 0.0
C602 C 0.0803 0.46207 0.05808 0.0
C603 C 0.06152 0.483 0.94088 0.0
C604 C 0.12436 0.45761 0.05501 0.0
C605 C 0.1222 0.42752 0.19926 0.0
N606 N 0.08119 0.47505 0.98253 0.0
N607 N 0.10222 0.43777 0.16669 0.0
H608 H 0.95508 0.8008 0.44384 0.0
H609 H 0.99085 0.93634 0.37379 0.0
H610 H 0.93345 0.84233 0.2189 0.0
H611 H 0.99328 0.90117 0.62658 0.0
H612 H 0.97664 0.89972 0.30698 0.0
H613 H 0.97586 0.83537 0.50241 0.0
C614 C 0.95486 0.81713 0.40649 0.0
C615 C 0.94231 0.81881 0.32697 0.0
C616 C 0.98045 0.90001 0.37695 0.0
C617 C 0.9661 0.85826 0.39317 0.0
C618 C 0.98867 0.92087 0.41514 0.0
C619 C 0.99311 0.92189 0.50611 0.0
C620 C 0.97681 0.87998 0.42994 0.0
C621 C 0.98993 0.90126 0.55631 0.0
C622 C 0.96666 0.83684 0.44004 0.0
C623 C 0.94266 0.84037 0.28109 0.0
N624 N 0.98188 0.88116 0.51759 0.0
N625 N 0.95432 0.85928 0.31496 0.0
H626 H 0.70125 0.94472 0.32846 0.0
H627 H 0.61452 0.97343 0.73168 0.0
H628 H 0.71657 0.92827 0.60058 0.0
H629 H 0.59486 0.98443 0.45955 0.0
H630 H 0.65303 0.95943 0.68389 0.0
H631 H 0.66338 0.96175 0.37429 0.0
C632 C 0.69673 0.9448 0.39789 0.0
C633 C 0.71213 0.93501 0.46085 0.0
C634 C 0.64038 0.96496 0.63443 0.0
C635 C 0.66881 0.95447 0.51356 0.0
C636 C 0.61829 0.97303 0.66171 0.0
C637 C 0.60128 0.9801 0.59956 0.0
C638 C 0.6457 0.96392 0.54414 0.0
C639 C 0.60738 0.97916 0.50983 0.0
C640 C 0.67508 0.95449 0.42392 0.0
C641 C 0.70528 0.93554 0.54973 0.0
N642 N 0.62909 0.97116 0.48476 0.0
N643 N 0.68416 0.94507 0.57332 0.0
H644 H 0.55154 0.7099 0.57657 0.0
H645 H 0.49916 0.58453 0.42931 0.0
H646 H 0.53079 0.69388 0.30926 0.0
H647 H 0.51812 0.60231 0.69699 0.0
H648 H 0.50875 0.625 0.38456 0.0
H649 H 0.53714 0.67117 0.62278 0.0
C650 C 0.54379 0.69831 0.52766 0.0
C651 C 0.54248 0.70511 0.43885 0.0
C652 C 0.51064 0.62005 0.45319 0.0
C653 C 0.5261 0.66058 0.49122 0.0
C654 C 0.5052 0.59694 0.47877 0.0
C655 C 0.50781 0.58998 0.56709 0.0
C656 C 0.51884 0.63628 0.51631 0.0
C657 C 0.5157 0.60685 0.62827 0.0
C658 C 0.53558 0.67616 0.55408 0.0
C659 C 0.53217 0.68936 0.37845 0.0
N660 N 0.52101 0.62914 0.60166 0.0
N661 N 0.52453 0.66776 0.40565 0.0
H662 H 0.79324 0.54332 0.58432 0.0
H663 H 0.9331 0.52241 0.5545 0.0
H664 H 0.837 0.57204 0.37685 0.0
H665 H 0.88891 0.49626 0.76551 0.0
H666 H 0.89772 0.53737 0.48011 0.0
H667 H 0.82774 0.52289 0.64386 0.0
C668 C 0.8101 0.54529 0.55114 0.0
C669 C 0.81229 0.55966 0.47616 0.0
C670 C 0.89578 0.5282 0.54239 0.0
C671 C 0.85193 0.53626 0.54393 0.0
C672 C 0.91597 0.51958 0.5848 0.0
C673 C 0.91403 0.50825 0.66689 0.0
C674 C 0.87352 0.52548 0.58242 0.0
C675 C 0.89135 0.50505 0.70278 0.0
C676 C 0.82981 0.5336 0.58513 0.0
C677 C 0.83455 0.5614 0.43552 0.0
N678 N 0.87204 0.51377 0.66067 0.0
N679 N 0.85354 0.54994 0.47019 0.0
loop_
_geom_bond_atom_site_label_1
_geom_bond_atom_site_label_2
_geom_bond_distance
_geom_bond_site_symmetry_2
_ccdc_geom_bond_type
O0 Cd1 2.300 . S
O0 C7 1.275 . S
Cd1 O0 2.300 . S
Cd1 O9 2.381 . S
Cd1 O10 2.378 . S
O2 Cd3 2.385 . S
O2 C7 1.255 . S
Cd3 O2 2.385 . S
Cd3 O4 2.317 . S
O4 Cd3 2.317 . S
O4 C5 1.232 . S
C5 O4 1.232 . S
C5 O6 1.218 . S
O6 C5 1.218 . S
C7 O0 1.275 . S
C7 O2 1.255 . S
C8 O9 1.258 . S
C8 O10 1.256 . S
O9 Cd1 2.381 . S
O9 C8 1.258 . S
O10 Cd1 2.378 . S
O10 C8 1.256 . S
O11 Cd12 2.300 1_655 S
O11 C18 1.275 1_655 S
Cd12 O11 2.300 1_455 S
Cd12 O20 2.381 1_455 S
Cd12 O21 2.378 . S
O13 Cd14 2.385 . S
O13 C18 1.255 . S
Cd14 O13 2.385 . S
Cd14 O15 2.317 . S
O15 Cd14 2.317 . S
O15 C16 1.232 . S
C16 O15 1.232 . S
C16 O17 1.218 . S
O17 C16 1.218 . S
C18 O11 1.275 1_455 S
C18 O13 1.255 . S
C19 O20 1.245 1_455 S
C19 O21 1.274 . S
O20 Cd12 2.381 1_655 S
O20 C19 1.245 1_655 S
O21 Cd12 2.378 . S
O21 C19 1.274 . S
O22 Cd23 2.300 1_565 S
O22 C29 1.275 1_565 S
Cd23 O22 2.300 1_545 S
Cd23 O31 2.381 1_545 S
Cd23 O32 2.378 . S
O24 Cd25 2.385 . S
O24 C29 1.255 . S
Cd25 O24 2.385 . S
Cd25 O26 2.317 . S
O26 Cd25 2.317 . S
O26 C27 1.232 . S
C27 O26 1.232 . S
C27 O28 1.218 . S
O28 C27 1.218 . S
C29 O22 1.275 1_545 S
C29 O24 1.255 . S
C30 O31 1.260 1_545 S
C30 O32 1.252 . S
O31 Cd23 2.381 1_565 S
O31 C30 1.260 1_565 S
O32 Cd23 2.378 . S
O32 C30 1.252 . S
O33 Cd34 2.300 . S
O33 C40 1.275 . S
Cd34 O33 2.300 . S
Cd34 O42 2.381 . S
Cd34 O43 2.378 . S
O35 Cd36 2.385 . S
O35 C40 1.255 . S
Cd36 O35 2.385 . S
Cd36 O37 2.317 . S
O37 Cd36 2.317 . S
O37 C38 1.232 . S
C38 O37 1.232 . S
C38 O39 1.218 . S
O39 C38 1.218 . S
C40 O33 1.275 . S
C40 O35 1.255 . S
C41 O42 1.258 . S
C41 O43 1.256 . S
O42 Cd34 2.381 . S
O42 C41 1.258 . S
O43 Cd34 2.378 . S
O43 C41 1.256 . S
O44 Cd45 2.300 . S
O44 C51 1.275 . S
Cd45 O44 2.300 . S
Cd45 O53 2.381 . S
Cd45 O54 2.378 . S
O46 Cd47 2.385 1_554 S
O46 C51 1.255 . S
Cd47 O46 2.385 1_556 S
Cd47 O48 2.317 . S
O48 Cd47 2.317 . S
O48 C49 1.232 . S
C49 O48 1.232 . S
C49 O50 1.218 . S
O50 C49 1.218 . S
C51 O44 1.275 . S
C51 O46 1.255 . S
C52 O53 1.258 . S
C52 O54 1.256 . S
O53 Cd45 2.381 . S
O53 C52 1.258 . S
O54 Cd45 2.378 . S
O54 C52 1.256 . S
O55 Cd56 2.300 . S
O55 C62 1.275 . S
Cd56 O55 2.300 . S
Cd56 O64 2.381 1_455 S
Cd56 O65 2.378 . S
O57 Cd58 2.385 1_554 S
O57 C62 1.255 . S
Cd58 O57 2.385 1_556 S
Cd58 O59 2.317 . S
O59 Cd58 2.317 . S
O59 C60 1.232 . S
C60 O59 1.232 . S
C60 O61 1.218 . S
O61 C60 1.218 . S
C62 O55 1.275 . S
C62 O57 1.255 . S
C63 O64 1.258 1_455 S
C63 O65 1.256 . S
O64 Cd56 2.381 1_655 S
O64 C63 1.258 1_655 S
O65 Cd56 2.378 . S
O65 C63 1.256 . S
O66 Cd67 2.322 . S
O66 C73 1.294 . S
Cd67 O66 2.322 . S
Cd67 O75 2.381 1_545 S
Cd67 O76 2.378 . S
O68 Cd69 2.385 1_554 S
O68 C73 1.255 . S
Cd69 O68 2.385 1_556 S
Cd69 O70 2.317 . S
O70 Cd69 2.317 . S
O70 C71 1.232 . S
C71 O70 1.232 . S
C71 O72 1.218 . S
O72 C71 1.218 . S
C73 O66 1.294 . S
C73 O68 1.255 . S
C74 O75 1.258 1_545 S
C74 O76 1.256 . S
O75 Cd67 2.381 1_565 S
O75 C74 1.258 1_565 S
O76 Cd67 2.378 . S
O76 C74 1.256 . S
O77 Cd78 2.300 . S
O77 C84 1.275 . S
Cd78 O77 2.300 . S
Cd78 O86 2.381 . S
Cd78 O87 2.378 . S
O79 Cd80 2.385 1_554 S
O79 C84 1.255 . S
Cd80 O79 2.385 1_556 S
Cd80 O81 2.317 . S
O81 Cd80 2.317 . S
O81 C82 1.232 . S
C82 O81 1.232 . S
C82 O83 1.218 . S
O83 C82 1.218 . S
C84 O77 1.275 . S
C84 O79 1.255 . S
C85 O86 1.258 . S
C85 O87 1.256 . S
O86 Cd78 2.381 . S
O86 C85 1.258 . S
O87 Cd78 2.378 . S
O87 C85 1.256 . S
Gd88 C91 2.818 . S
Gd88 O108 2.377 . S
Gd88 O110 2.448 . S
Gd88 O111 2.506 . S
Gd88 O112 2.435 . S
Gd88 O113 2.717 1_565 S
Gd88 O115 2.395 1_565 S
Gd88 O119 2.327 1_455 S
Gd89 C100 2.818 . S
Gd89 O109 2.395 1_545 S
Gd89 O113 2.327 1_655 S
Gd89 O114 2.377 . S
Gd89 O116 2.448 . S
Gd89 O117 2.489 1_655 S
Gd89 O118 2.435 . S
Gd89 O119 2.717 1_545 S
C90 O108 1.240 1_655 S
C90 O109 1.240 . S
C91 Gd88 2.818 . S
C91 C92 1.510 . S
C91 O110 1.249 . S
C91 O111 1.252 . S
C92 C91 1.510 . S
C92 C93 1.404 . S
C92 C94 1.352 . S
C93 C92 1.404 . S
C93 C97 1.389 . S
C93 H120 0.930 . S
C94 C92 1.352 . S
C94 C96 1.374 . S
C94 H121 0.931 1_455 S
C95 C96 1.359 1_554 S
C95 C97 1.364 1_554 S
C96 C94 1.374 . S
C96 C95 1.359 1_556 S
C96 H122 0.931 1_456 S
C97 C93 1.389 . S
C97 C95 1.364 1_556 S
C97 H123 0.931 . S
C98 O112 1.240 1_545 S
C98 O113 1.267 . S
C99 O114 1.240 1_455 S
C99 O115 1.240 . S
C100 Gd89 2.818 . S
C100 C101 1.510 . S
C100 O116 1.249 . S
C100 O117 1.212 1_655 S
C101 C100 1.510 . S
C101 C102 1.404 . S
C101 C103 1.352 . S
C102 C101 1.404 . S
C102 C106 1.389 . S
C102 H124 0.930 . S
C103 C101 1.352 . S
C103 C105 1.374 . S
C103 H125 0.931 1_655 S
C104 C105 1.359 . S
C104 C106 1.364 . S
C105 C103 1.374 . S
C105 C104 1.359 . S
C105 H126 0.931 1_655 S
C106 C102 1.389 . S
C106 C104 1.364 . S
C106 H127 0.931 . S
C107 O118 1.256 . S
C107 O119 1.257 1_545 S
O108 Gd88 2.377 . S
O108 C90 1.240 1_455 S
O109 Gd89 2.395 1_565 S
O109 C90 1.240 . S
O110 Gd88 2.448 . S
O110 C91 1.249 . S
O111 Gd88 2.506 . S
O111 C91 1.252 . S
O112 Gd88 2.435 . S
O112 C98 1.240 1_565 S
O113 Gd88 2.717 1_545 S
O113 Gd89 2.327 1_455 S
O113 C98 1.267 . S
O114 Gd89 2.377 . S
O114 C99 1.240 1_655 S
O115 Gd88 2.395 1_545 S
O115 C99 1.240 . S
O116 Gd89 2.448 . S
O116 C100 1.249 . S
O117 Gd89 2.489 1_455 S
O117 C100 1.212 1_455 S
O118 Gd89 2.435 . S
O118 C107 1.256 . S
O119 Gd88 2.327 1_655 S
O119 Gd89 2.717 1_565 S
O119 C107 1.257 1_565 S
H120 C93 0.930 . S
H121 C94 0.931 1_655 S
H122 C96 0.931 1_654 S
H123 C97 0.931 . S
H124 C102 0.930 . S
H125 C103 0.931 1_455 S
H126 C105 0.931 1_455 S
H127 C106 0.931 . S
Gd128 C131 2.818 . S
Gd128 O148 2.377 . S
Gd128 O150 2.448 . S
Gd128 O151 2.506 . S
Gd128 O152 2.435 . S
Gd128 O153 2.717 . S
Gd128 O155 2.395 . S
Gd128 O159 2.327 1_545 S
Gd129 C140 2.818 . S
Gd129 O149 2.395 . S
Gd129 O153 2.327 1_565 S
Gd129 O154 2.377 . S
Gd129 O156 2.448 . S
Gd129 O157 2.502 1_565 S
Gd129 O158 2.435 . S
Gd129 O159 2.717 . S
C130 O148 1.240 1_565 S
C130 O149 1.240 . S
C131 Gd128 2.818 . S
C131 C132 1.510 . S
C131 O150 1.249 . S
C131 O151 1.252 . S
C132 C131 1.510 . S
C132 C133 1.404 . S
C132 C134 1.352 . S
C133 C132 1.404 . S
C133 C137 1.389 . S
C133 H160 0.930 . S
C134 C132 1.352 . S
C134 C136 1.374 . S
C134 H161 0.931 1_545 S
C135 C136 1.359 1_554 S
C135 C137 1.364 1_554 S
C136 C134 1.374 . S
C136 C135 1.359 1_556 S
C136 H162 0.931 1_546 S
C137 C133 1.389 . S
C137 C135 1.364 1_556 S
C137 H163 0.931 . S
C138 O152 1.256 . S
C138 O153 1.257 . S
C139 O154 1.240 1_545 S
C139 O155 1.240 . S
C140 Gd129 2.818 . S
C140 C141 1.510 . S
C140 O156 1.249 . S
C140 O157 1.243 1_565 S
C141 C140 1.510 . S
C141 C142 1.404 . S
C141 C143 1.352 . S
C142 C141 1.404 . S
C142 C146 1.389 . S
C142 H164 0.930 . S
C143 C141 1.352 . S
C143 C145 1.374 . S
C143 H165 0.931 1_565 S
C144 C145 1.359 . S
C144 C146 1.364 . S
C145 C143 1.374 . S
C145 C144 1.359 . S
C145 H166 0.931 1_565 S
C146 C142 1.389 . S
C146 C144 1.364 . S
C146 H167 0.931 . S
C147 O158 1.256 . S
C147 O159 1.257 . S
O148 Gd128 2.377 . S
O148 C130 1.240 1_545 S
O149 Gd129 2.395 . S
O149 C130 1.240 . S
O150 Gd128 2.448 . S
O150 C131 1.249 . S
O151 Gd128 2.506 . S
O151 C131 1.252 . S
O152 Gd128 2.435 . S
O152 C138 1.256 . S
O153 Gd128 2.717 . S
O153 Gd129 2.327 1_545 S
O153 C138 1.257 . S
O154 Gd129 2.377 . S
O154 C139 1.240 1_565 S
O155 Gd128 2.395 . S
O155 C139 1.240 . S
O156 Gd129 2.448 . S
O156 C140 1.249 . S
O157 Gd129 2.502 1_545 S
O157 C140 1.243 1_545 S
O158 Gd129 2.435 . S
O158 C147 1.256 . S
O159 Gd128 2.327 1_565 S
O159 Gd129 2.717 . S
O159 C147 1.257 . S
H160 C133 0.930 . S
H161 C134 0.931 1_565 S
H162 C136 0.931 1_564 S
H163 C137 0.931 . S
H164 C142 0.930 . S
H165 C143 0.931 1_545 S
H166 C145 0.931 1_545 S
H167 C146 0.931 . S
Gd168 C171 2.818 . S
Gd168 O188 2.377 . S
Gd168 O190 2.448 . S
Gd168 O191 2.506 . S
Gd168 O192 2.435 . S
Gd168 O193 2.717 . S
Gd168 O195 2.395 . S
Gd168 O199 2.327 . S
Gd169 C180 2.818 . S
Gd169 O189 2.395 . S
Gd169 O193 2.327 . S
Gd169 O194 2.377 . S
Gd169 O196 2.448 . S
Gd169 O197 2.506 . S
Gd169 O198 2.435 . S
Gd169 O199 2.717 . S
C170 O188 1.240 . S
C170 O189 1.240 . S
C171 Gd168 2.818 . S
C171 C172 1.510 . S
C171 O190 1.249 . S
C171 O191 1.252 . S
C172 C171 1.510 . S
C172 C173 1.404 . S
C172 C174 1.352 . S
C173 C172 1.404 . S
C173 C177 1.389 . S
C173 H200 0.930 . S
C174 C172 1.352 . S
C174 C176 1.374 . S
C174 H201 0.931 . S
C175 C176 1.359 1_554 S
C175 C177 1.364 1_554 S
C176 C174 1.374 . S
C176 C175 1.359 1_556 S
C176 H202 0.931 1_556 S
C177 C173 1.389 . S
C177 C175 1.364 1_556 S
C177 H203 0.931 . S
C178 O192 1.256 . S
C178 O193 1.257 . S
C179 O194 1.240 . S
C179 O195 1.240 . S
C180 Gd169 2.818 . S
C180 C181 1.510 . S
C180 O196 1.249 . S
C180 O197 1.252 . S
C181 C180 1.510 . S
C181 C182 1.404 . S
C181 C183 1.352 . S
C182 C181 1.404 . S
C182 C186 1.389 . S
C182 H204 0.930 . S
C183 C181 1.352 . S
C183 C185 1.374 . S
C183 H205 0.931 . S
C184 C185 1.359 . S
C184 C186 1.364 . S
C185 C183 1.374 . S
C185 C184 1.359 . S
C185 H206 0.931 . S
C186 C182 1.389 . S
C186 C184 1.364 . S
C186 H207 0.931 . S
C187 O198 1.256 . S
C187 O199 1.257 . S
O188 Gd168 2.377 . S
O188 C170 1.240 . S
O189 Gd169 2.395 . S
O189 C170 1.240 . S
O190 Gd168 2.448 . S
O190 C171 1.249 . S
O191 Gd168 2.506 . S
O191 C171 1.252 . S
O192 Gd168 2.435 . S
O192 C178 1.256 . S
O193 Gd168 2.717 . S
O193 Gd169 2.327 . S
O193 C178 1.257 . S
O194 Gd169 2.377 . S
O194 C179 1.240 . S
O195 Gd168 2.395 . S
O195 C179 1.240 . S
O196 Gd169 2.448 . S
O196 C180 1.249 . S
O197 Gd169 2.506 . S
O197 C180 1.252 . S
O198 Gd169 2.435 . S
O198 C187 1.256 . S
O199 Gd168 2.327 . S
O199 Gd169 2.717 . S
O199 C187 1.257 . S
H200 C173 0.930 . S
H201 C174 0.931 . S
H202 C176 0.931 1_554 S
H203 C177 0.931 . S
H204 C182 0.930 . S
H205 C183 0.931 . S
H206 C185 0.931 . S
H207 C186 0.931 . S
Gd208 C211 2.818 . S
Gd208 O228 2.377 . S
Gd208 O230 2.448 . S
Gd208 O231 2.506 . S
Gd208 O232 2.435 . S
Gd208 O233 2.717 1_655 S
Gd208 O235 2.395 1_655 S
Gd208 O239 2.327 . S
Gd209 C220 2.818 . S
Gd209 O229 2.395 1_455 S
Gd209 O233 2.327 . S
Gd209 O234 2.377 . S
Gd209 O236 2.448 . S
Gd209 O237 2.506 . S
Gd209 O238 2.435 . S
Gd209 O239 2.717 1_455 S
C210 O228 1.240 . S
C210 O229 1.240 . S
C211 Gd208 2.818 . S
C211 C212 1.510 . S
C211 O230 1.249 . S
C211 O231 1.252 . S
C212 C211 1.510 . S
C212 C213 1.404 . S
C212 C214 1.352 . S
C213 C212 1.404 . S
C213 C217 1.389 . S
C213 H240 0.930 . S
C214 C212 1.352 . S
C214 C216 1.374 . S
C214 H241 0.931 . S
C215 C216 1.359 1_554 S
C215 C217 1.364 1_554 S
C216 C214 1.374 . S
C216 C215 1.359 1_556 S
C216 H242 0.931 1_556 S
C217 C213 1.389 . S
C217 C215 1.364 1_556 S
C217 H243 0.931 . S
C218 O232 1.256 1_455 S
C218 O233 1.257 . S
C219 O234 1.240 . S
C219 O235 1.240 . S
C220 Gd209 2.818 . S
C220 C221 1.510 . S
C220 O236 1.249 . S
C220 O237 1.252 . S
C221 C220 1.510 . S
C221 C222 1.404 . S
C221 C223 1.352 . S
C222 C221 1.404 . S
C222 C226 1.389 . S
C222 H244 0.930 . S
C223 C221 1.352 . S
C223 C225 1.374 . S
C223 H245 0.931 . S
C224 C225 1.359 . S
C224 C226 1.364 . S
C225 C223 1.374 . S
C225 C224 1.359 . S
C225 H246 0.931 . S
C226 C222 1.389 . S
C226 C224 1.364 . S
C226 H247 0.931 . S
C227 O238 1.256 . S
C227 O239 1.257 1_455 S
O228 Gd208 2.377 . S
O228 C210 1.240 . S
O229 Gd209 2.395 1_655 S
O229 C210 1.240 . S
O230 Gd208 2.448 . S
O230 C211 1.249 . S
O231 Gd208 2.506 . S
O231 C211 1.252 . S
O232 Gd208 2.435 . S
O232 C218 1.256 1_655 S
O233 Gd208 2.717 1_455 S
O233 Gd209 2.327 . S
O233 C218 1.257 . S
O234 Gd209 2.377 . S
O234 C219 1.240 . S
O235 Gd208 2.395 1_455 S
O235 C219 1.240 . S
O236 Gd209 2.448 . S
O236 C220 1.249 . S
O237 Gd209 2.506 . S
O237 C220 1.252 . S
O238 Gd209 2.435 . S
O238 C227 1.256 . S
O239 Gd208 2.327 . S
O239 Gd209 2.717 1_655 S
O239 C227 1.257 1_655 S
H240 C213 0.930 . S
H241 C214 0.931 . S
H242 C216 0.931 1_554 S
H243 C217 0.931 . S
H244 C222 0.930 . S
H245 C223 0.931 . S
H246 C225 0.931 . S
H247 C226 0.931 . S
H248 C254 0.930 . S
H249 C258 0.930 . S
H250 C263 0.929 . S
H251 C261 0.929 . S
H252 C256 0.929 . S
H253 C262 0.929 . S
C254 H248 0.930 . S
C254 C255 1.367 . S
C254 C262 1.378 . S
C255 C254 1.367 . S
C255 C263 1.433 1_545 S
C256 H252 0.929 . S
C256 C258 1.378 . S
C256 C260 1.350 1_565 S
C257 C260 1.463 . S
C257 C262 1.350 . S
C257 N265 1.427 1_545 S
C258 H249 0.930 . S
C258 C256 1.378 . S
C258 C259 1.367 1_565 S
C259 C258 1.367 1_545 S
C259 C261 1.433 . S
C260 C256 1.350 1_545 S
C260 C257 1.463 . S
C260 N264 1.427 . S
C261 H251 0.929 . S
C261 C259 1.433 . S
C261 N264 1.384 . S
C262 H253 0.929 . S
C262 C254 1.378 . S
C262 C257 1.350 . S
C263 H250 0.929 . S
C263 C255 1.433 1_565 S
C263 N265 1.384 . S
N264 C260 1.427 . S
N264 C261 1.384 . S
N265 C257 1.427 1_565 S
N265 C263 1.384 . S
H266 C272 0.930 . S
H267 C276 0.930 . S
H268 C281 0.929 . S
H269 C279 0.929 . S
H270 C274 0.929 . S
H271 C280 0.929 . S
C272 H266 0.930 . S
C272 C273 1.367 . S
C272 C280 1.378 . S
C273 C272 1.367 . S
C273 C281 1.433 . S
C274 H270 0.929 . S
C274 C276 1.378 . S
C274 C278 1.350 . S
C275 C278 1.463 . S
C275 C280 1.350 . S
C275 N283 1.427 . S
C276 H267 0.930 . S
C276 C274 1.378 . S
C276 C277 1.367 . S
C277 C276 1.367 . S
C277 C279 1.433 . S
C278 C274 1.350 . S
C278 C275 1.463 . S
C278 N282 1.427 . S
C279 H269 0.929 . S
C279 C277 1.433 . S
C279 N282 1.384 . S
C280 H271 0.929 . S
C280 C272 1.378 . S
C280 C275 1.350 . S
C281 H268 0.929 . S
C281 C273 1.433 . S
C281 N283 1.384 . S
N282 C278 1.427 . S
N282 C279 1.384 . S
N283 C275 1.427 . S
N283 C281 1.384 . S
H284 C290 0.930 . S
H285 C294 0.930 . S
H286 C299 0.929 . S
H287 C297 0.929 . S
H288 C292 0.929 . S
H289 C298 0.929 . S
C290 H284 0.930 . S
C290 C291 1.367 . S
C290 C298 1.378 . S
C291 C290 1.367 . S
C291 C299 1.433 . S
C292 H288 0.929 . S
C292 C294 1.378 . S
C292 C296 1.350 . S
C293 C296 1.463 . S
C293 C298 1.350 . S
C293 N301 1.427 . S
C294 H285 0.930 . S
C294 C292 1.378 . S
C294 C295 1.367 . S
C295 C294 1.367 . S
C295 C297 1.433 . S
C296 C292 1.350 . S
C296 C293 1.463 . S
C296 N300 1.427 . S
C297 H287 0.929 . S
C297 C295 1.433 . S
C297 N300 1.384 . S
C298 H289 0.929 . S
C298 C290 1.378 . S
C298 C293 1.350 . S
C299 H286 0.929 . S
C299 C291 1.433 . S
C299 N301 1.384 . S
N300 C296 1.427 . S
N300 C297 1.384 . S
N301 C293 1.427 . S
N301 C299 1.384 . S
H302 C308 0.930 . S
H303 C312 0.930 . S
H304 C317 0.929 . S
H305 C315 0.929 . S
H306 C310 0.929 . S
H307 C316 0.929 . S
C308 H302 0.930 . S
C308 C309 1.367 1_655 S
C308 C316 1.378 . S
C309 C308 1.367 1_455 S
C309 C317 1.433 . S
C310 H306 0.929 . S
C310 C312 1.378 . S
C310 C314 1.350 . S
C311 C314 1.463 . S
C311 C316 1.350 1_455 S
C311 N319 1.427 . S
C312 H303 0.930 . S
C312 C310 1.378 . S
C312 C313 1.367 . S
C313 C312 1.367 . S
C313 C315 1.433 1_455 S
C314 C310 1.350 . S
C314 C311 1.463 . S
C314 N318 1.427 1_455 S
C315 H305 0.929 . S
C315 C313 1.433 1_655 S
C315 N318 1.384 . S
C316 H307 0.929 . S
C316 C308 1.378 . S
C316 C311 1.350 1_655 S
C317 H304 0.929 . S
C317 C309 1.433 . S
C317 N319 1.384 . S
N318 C314 1.427 1_655 S
N318 C315 1.384 . S
N319 C311 1.427 . S
N319 C317 1.384 . S
H320 C326 0.930 . S
H321 C330 0.930 . S
H322 C335 0.929 . S
H323 C333 0.929 . S
H324 C328 0.929 . S
H325 C334 0.929 . S
C326 H320 0.930 . S
C326 C327 1.367 1_545 S
C326 C334 1.378 . S
C327 C326 1.367 1_565 S
C327 C335 1.433 . S
C328 H324 0.929 . S
C328 C330 1.378 . S
C328 C332 1.350 1_556 S
C329 C332 1.463 . S
C329 C334 1.350 1_565 S
C329 N337 1.427 . S
C330 H321 0.930 . S
C330 C328 1.378 . S
C330 C331 1.367 . S
C331 C330 1.367 . S
C331 C333 1.433 1_565 S
C332 C328 1.350 1_554 S
C332 C329 1.463 . S
C332 N336 1.427 1_564 S
C333 H323 0.929 . S
C333 C331 1.433 1_545 S
C333 N336 1.384 . S
C334 H325 0.929 . S
C334 C326 1.378 . S
C334 C329 1.350 1_545 S
C335 H322 0.929 . S
C335 C327 1.433 . S
C335 N337 1.384 . S
N336 C332 1.427 1_546 S
N336 C333 1.384 . S
N337 C329 1.427 . S
N337 C335 1.384 . S
H338 C344 0.930 . S
H339 C348 0.930 . S
H340 C353 0.929 . S
H341 C351 0.929 . S
H342 C346 0.929 . S
H343 C352 0.929 . S
C344 H338 0.930 . S
C344 C345 1.367 . S
C344 C352 1.378 . S
C345 C344 1.367 . S
C345 C353 1.433 . S
C346 H342 0.929 . S
C346 C348 1.378 . S
C346 C350 1.339 1_556 S
C347 C350 1.473 . S
C347 C352 1.350 . S
C347 N355 1.427 . S
C348 H339 0.930 . S
C348 C346 1.378 . S
C348 C349 1.367 . S
C349 C348 1.367 . S
C349 C351 1.433 . S
C350 C346 1.339 1_554 S
C350 C347 1.473 . S
C350 N354 1.429 . S
C351 H341 0.929 . S
C351 C349 1.433 . S
C351 N354 1.384 1_556 S
C352 H343 0.929 . S
C352 C344 1.378 . S
C352 C347 1.350 . S
C353 H340 0.929 . S
C353 C345 1.433 . S
C353 N355 1.384 . S
N354 C350 1.429 . S
N354 C351 1.384 1_554 S
N355 C347 1.427 . S
N355 C353 1.384 . S
H356 C362 0.930 . S
H357 C366 0.930 . S
H358 C371 0.929 . S
H359 C369 0.929 . S
H360 C364 0.929 . S
H361 C370 0.929 . S
C362 H356 0.930 . S
C362 C363 1.367 . S
C362 C370 1.378 . S
C363 C362 1.367 . S
C363 C371 1.433 . S
C364 H360 0.929 . S
C364 C366 1.378 . S
C364 C368 1.350 1_556 S
C365 C368 1.463 . S
C365 C370 1.350 . S
C365 N373 1.427 . S
C366 H357 0.930 . S
C366 C364 1.378 . S
C366 C367 1.367 . S
C367 C366 1.367 . S
C367 C369 1.433 . S
C368 C364 1.350 1_554 S
C368 C365 1.463 . S
C368 N372 1.427 1_554 S
C369 H359 0.929 . S
C369 C367 1.433 . S
C369 N372 1.384 . S
C370 H361 0.929 . S
C370 C362 1.378 . S
C370 C365 1.350 . S
C371 H358 0.929 . S
C371 C363 1.433 . S
C371 N373 1.384 . S
N372 C368 1.427 1_556 S
N372 C369 1.384 . S
N373 C365 1.427 . S
N373 C371 1.384 . S
H374 C380 0.930 . S
H375 C384 0.930 . S
H376 C389 0.929 . S
H377 C387 0.929 . S
H378 C382 0.929 . S
H379 C388 0.929 . S
C380 H374 0.930 . S
C380 C381 1.367 . S
C380 C388 1.378 . S
C381 C380 1.367 . S
C381 C389 1.433 1_655 S
C382 H378 0.929 . S
C382 C384 1.378 . S
C382 C386 1.334 1_456 S
C383 C386 1.464 . S
C383 C388 1.350 . S
C383 N391 1.427 1_655 S
C384 H375 0.930 . S
C384 C382 1.378 . S
C384 C385 1.366 1_455 S
C385 C384 1.366 1_655 S
C385 C387 1.434 . S
C386 C382 1.334 1_654 S
C386 C383 1.464 . S
C386 N390 1.444 . S
C387 H377 0.929 . S
C387 C385 1.434 . S
C387 N390 1.384 1_556 S
C388 H379 0.929 . S
C388 C380 1.378 . S
C388 C383 1.350 . S
C389 H376 0.929 . S
C389 C381 1.433 1_455 S
C389 N391 1.384 . S
N390 C386 1.444 . S
N390 C387 1.384 1_554 S
N391 C383 1.427 1_455 S
N391 C389 1.384 . S
H392 C398 0.933 . S
H393 C402 0.930 . S
H394 C407 0.929 . S
H395 C405 0.929 . S
H396 C400 0.929 . S
H397 C406 0.929 . S
C398 H392 0.933 . S
C398 C399 1.353 1_655 S
C398 C406 1.391 . S
C399 C398 1.353 1_455 S
C399 C407 1.433 . S
C400 H396 0.929 . S
C400 C402 1.378 . S
C400 C404 1.350 . S
C401 C404 1.463 . S
C401 C406 1.350 . S
C401 N409 1.427 1_655 S
C402 H393 0.930 . S
C402 C400 1.378 . S
C402 C403 1.367 . S
C403 C402 1.367 . S
C403 C405 1.433 . S
C404 C400 1.350 . S
C404 C401 1.463 . S
C404 N408 1.427 . S
C405 H395 0.929 . S
C405 C403 1.433 . S
C405 N408 1.384 . S
C406 H397 0.929 . S
C406 C398 1.391 . S
C406 C401 1.350 . S
C407 H394 0.929 . S
C407 C399 1.433 . S
C407 N409 1.384 . S
N408 C404 1.427 . S
N408 C405 1.384 . S
N409 C401 1.427 1_455 S
N409 C407 1.384 . S
H410 C416 0.930 . S
H411 C420 0.930 . S
H412 C425 0.929 . S
H413 C423 0.929 . S
H414 C418 0.929 . S
H415 C424 0.929 . S
C416 H410 0.930 . S
C416 C417 1.367 . S
C416 C424 1.378 . S
C417 C416 1.367 . S
C417 C425 1.433 1_545 S
C418 H414 0.929 . S
C418 C420 1.378 . S
C418 C422 1.350 . S
C419 C422 1.463 . S
C419 C424 1.350 1_565 S
C419 N427 1.427 . S
C420 H411 0.930 . S
C420 C418 1.378 . S
C420 C421 1.367 . S
C421 C420 1.367 . S
C421 C423 1.433 . S
C422 C418 1.350 . S
C422 C419 1.463 . S
C422 N426 1.427 . S
C423 H413 0.929 . S
C423 C421 1.433 . S
C423 N426 1.384 . S
C424 H415 0.929 . S
C424 C416 1.378 . S
C424 C419 1.350 1_545 S
C425 H412 0.929 . S
C425 C417 1.433 1_565 S
C425 N427 1.384 . S
N426 C422 1.427 . S
N426 C423 1.384 . S
N427 C419 1.427 . S
N427 C425 1.384 . S
H428 C434 0.930 . S
H429 C438 0.930 . S
H430 C443 0.929 . S
H431 C441 0.929 . S
H432 C436 0.929 . S
H433 C442 0.929 . S
C434 H428 0.930 . S
C434 C435 1.367 . S
C434 C442 1.378 . S
C435 C434 1.367 . S
C435 C443 1.433 . S
C436 H432 0.929 . S
C436 C438 1.378 . S
C436 C440 1.350 . S
C437 C440 1.463 . S
C437 C442 1.350 . S
C437 N445 1.427 . S
C438 H429 0.930 . S
C438 C436 1.378 . S
C438 C439 1.367 . S
C439 C438 1.367 . S
C439 C441 1.433 . S
C440 C436 1.350 . S
C440 C437 1.463 . S
C440 N444 1.427 . S
C441 H431 0.929 . S
C441 C439 1.433 . S
C441 N444 1.384 . S
C442 H433 0.929 . S
C442 C434 1.378 . S
C442 C437 1.350 . S
C443 H430 0.929 . S
C443 C435 1.433 . S
C443 N445 1.384 . S
N444 C440 1.427 . S
N444 C441 1.384 . S
N445 C437 1.427 . S
N445 C443 1.384 . S
H446 C452 0.930 . S
H447 C456 0.930 . S
H448 C461 0.929 . S
H449 C459 0.929 . S
H450 C454 0.929 . S
H451 C460 0.929 . S
C452 H446 0.930 . S
C452 C453 1.367 . S
C452 C460 1.378 . S
C453 C452 1.367 . S
C453 C461 1.433 . S
C454 H450 0.929 . S
C454 C456 1.378 . S
C454 C458 1.350 . S
C455 C458 1.463 . S
C455 C460 1.350 . S
C455 N463 1.427 . S
C456 H447 0.930 . S
C456 C454 1.378 . S
C456 C457 1.367 . S
C457 C456 1.367 . S
C457 C459 1.433 . S
C458 C454 1.350 . S
C458 C455 1.463 . S
C458 N462 1.427 . S
C459 H449 0.929 . S
C459 C457 1.433 . S
C459 N462 1.384 . S
C460 H451 0.929 . S
C460 C452 1.378 . S
C460 C455 1.350 . S
C461 H448 0.929 . S
C461 C453 1.433 . S
C461 N463 1.384 . S
N462 C458 1.427 . S
N462 C459 1.384 . S
N463 C455 1.427 . S
N463 C461 1.384 . S
H464 C470 0.930 . S
H465 C474 0.930 1_556 S
H466 C479 0.929 . S
H467 C477 0.929 . S
H468 C472 0.929 . S
H469 C478 0.929 . S
C470 H464 0.930 . S
C470 C471 1.367 . S
C470 C478 1.378 . S
C471 C470 1.367 . S
C471 C479 1.433 1_655 S
C472 H468 0.929 . S
C472 C474 1.378 . S
C472 C476 1.350 . S
C473 C476 1.463 . S
C473 C478 1.350 1_455 S
C473 N481 1.427 . S
C474 H465 0.930 1_554 S
C474 C472 1.378 . S
C474 C475 1.367 . S
C475 C474 1.367 . S
C475 C477 1.433 . S
C476 C472 1.350 . S
C476 C473 1.463 . S
C476 N480 1.427 . S
C477 H467 0.929 . S
C477 C475 1.433 . S
C477 N480 1.384 . S
C478 H469 0.929 . S
C478 C470 1.378 . S
C478 C473 1.350 1_655 S
C479 H466 0.929 . S
C479 C471 1.433 1_455 S
C479 N481 1.384 . S
N480 C476 1.427 . S
N480 C477 1.384 . S
N481 C473 1.427 . S
N481 C479 1.384 . S
H482 C488 0.930 . S
H483 C492 0.930 1_556 S
H484 C497 0.929 . S
H485 C495 0.929 . S
H486 C490 0.929 . S
H487 C496 0.929 . S
C488 H482 0.930 . S
C488 C489 1.367 . S
C488 C496 1.378 . S
C489 C488 1.367 . S
C489 C497 1.433 1_565 S
C490 H486 0.929 . S
C490 C492 1.378 . S
C490 C494 1.350 . S
C491 C494 1.463 . S
C491 C496 1.350 1_545 S
C491 N499 1.427 . S
C492 H483 0.930 1_554 S
C492 C490 1.378 . S
C492 C493 1.367 . S
C493 C492 1.367 . S
C493 C495 1.433 . S
C494 C490 1.350 . S
C494 C491 1.463 . S
C494 N498 1.427 . S
C495 H485 0.929 . S
C495 C493 1.433 . S
C495 N498 1.384 . S
C496 H487 0.929 . S
C496 C488 1.378 . S
C496 C491 1.350 1_565 S
C497 H484 0.929 . S
C497 C489 1.433 1_545 S
C497 N499 1.384 . S
N498 C494 1.427 . S
N498 C495 1.384 . S
N499 C491 1.427 . S
N499 C497 1.384 . S
H500 C506 0.930 . S
H501 C510 0.930 . S
H502 C515 0.929 . S
H503 C513 0.929 . S
H504 C508 0.929 1_556 S
H505 C514 0.929 . S
C506 H500 0.930 . S
C506 C507 1.367 . S
C506 C514 1.378 . S
C507 C506 1.367 . S
C507 C515 1.433 . S
C508 H504 0.929 1_554 S
C508 C510 1.378 1_554 S
C508 C512 1.350 . S
C509 C512 1.463 . S
C509 C514 1.350 . S
C509 N517 1.427 . S
C510 H501 0.930 . S
C510 C508 1.378 1_556 S
C510 C511 1.367 1_556 S
C511 C510 1.367 1_554 S
C511 C513 1.433 . S
C512 C508 1.350 . S
C512 C509 1.463 . S
C512 N516 1.427 . S
C513 H503 0.929 . S
C513 C511 1.433 . S
C513 N516 1.384 . S
C514 H505 0.929 . S
C514 C506 1.378 . S
C514 C509 1.350 . S
C515 H502 0.929 . S
C515 C507 1.433 . S
C515 N517 1.384 . S
N516 C512 1.427 . S
N516 C513 1.384 . S
N517 C509 1.427 . S
N517 C515 1.384 . S
H518 C524 0.930 . S
H519 C528 0.930 1_556 S
H520 C533 0.929 . S
H521 C531 0.929 . S
H522 C526 0.929 . S
H523 C532 0.929 . S
C524 H518 0.930 . S
C524 C525 1.367 . S
C524 C532 1.378 . S
C525 C524 1.367 . S
C525 C533 1.433 . S
C526 H522 0.929 . S
C526 C528 1.378 . S
C526 C530 1.350 . S
C527 C530 1.463 . S
C527 C532 1.350 . S
C527 N535 1.427 . S
C528 H519 0.930 1_554 S
C528 C526 1.378 . S
C528 C529 1.367 . S
C529 C528 1.367 . S
C529 C531 1.433 . S
C530 C526 1.350 . S
C530 C527 1.463 . S
C530 N534 1.427 . S
C531 H521 0.929 . S
C531 C529 1.433 . S
C531 N534 1.384 . S
C532 H523 0.929 . S
C532 C524 1.378 . S
C532 C527 1.350 . S
C533 H520 0.929 . S
C533 C525 1.433 . S
C533 N535 1.384 . S
N534 C530 1.427 . S
N534 C531 1.384 . S
N535 C527 1.427 . S
N535 C533 1.384 . S
H536 C542 0.930 . S
H537 C546 0.930 . S
H538 C551 0.929 . S
H539 C549 0.929 1_655 S
H540 C544 0.929 . S
H541 C550 0.933 . S
C542 H536 0.930 . S
C542 C543 1.367 1_655 S
C542 C550 1.378 . S
C543 C542 1.367 1_455 S
C543 C551 1.433 . S
C544 H540 0.929 . S
C544 C546 1.378 . S
C544 C548 1.350 . S
C545 C548 1.463 . S
C545 C550 1.345 1_455 S
C545 N553 1.427 . S
C546 H537 0.930 . S
C546 C544 1.378 . S
C546 C547 1.367 . S
C547 C546 1.367 . S
C547 C549 1.433 . S
C548 C544 1.350 . S
C548 C545 1.463 . S
C548 N552 1.427 . S
C549 H539 0.929 1_455 S
C549 C547 1.433 . S
C549 N552 1.384 . S
C550 H541 0.933 . S
C550 C542 1.378 . S
C550 C545 1.345 1_655 S
C551 H538 0.929 . S
C551 C543 1.433 . S
C551 N553 1.384 . S
N552 C548 1.427 . S
N552 C549 1.384 . S
N553 C545 1.427 . S
N553 C551 1.384 . S
H554 C560 0.930 . S
H555 C564 0.930 . S
H556 C569 0.929 1_565 S
H557 C567 0.929 . S
H558 C562 0.941 . S
H559 C568 0.929 . S
C560 H554 0.930 . S
C560 C561 1.367 . S
C560 C568 1.378 . S
C561 C560 1.367 . S
C561 C569 1.433 . S
C562 H558 0.941 . S
C562 C564 1.378 . S
C562 C566 1.350 . S
C563 C566 1.463 . S
C563 C568 1.350 . S
C563 N571 1.427 . S
C564 H555 0.930 . S
C564 C562 1.378 . S
C564 C565 1.367 . S
C565 C564 1.367 . S
C565 C567 1.433 . S
C566 C562 1.350 . S
C566 C563 1.463 . S
C566 N570 1.427 . S
C567 H557 0.929 . S
C567 C565 1.433 . S
C567 N570 1.384 . S
C568 H559 0.929 . S
C568 C560 1.378 . S
C568 C563 1.350 . S
C569 H556 0.929 1_545 S
C569 C561 1.433 . S
C569 N571 1.384 . S
N570 C566 1.427 . S
N570 C567 1.384 . S
N571 C563 1.427 . S
N571 C569 1.384 . S
H572 C578 0.930 . S
H573 C582 0.930 . S
H574 C587 0.929 . S
H575 C585 0.929 . S
H576 C580 0.929 . S
H577 C586 0.929 . S
C578 H572 0.930 . S
C578 C579 1.367 . S
C578 C586 1.378 . S
C579 C578 1.367 . S
C579 C587 1.433 . S
C580 H576 0.929 . S
C580 C582 1.378 . S
C580 C584 1.350 . S
C581 C584 1.463 . S
C581 C586 1.350 . S
C581 N589 1.427 . S
C582 H573 0.930 . S
C582 C580 1.378 . S
C582 C583 1.367 . S
C583 C582 1.367 . S
C583 C585 1.433 . S
C584 C580 1.350 . S
C584 C581 1.463 . S
C584 N588 1.427 . S
C585 H575 0.929 . S
C585 C583 1.433 . S
C585 N588 1.384 . S
C586 H577 0.929 . S
C586 C578 1.378 . S
C586 C581 1.350 . S
C587 H574 0.929 . S
C587 C579 1.433 . S
C587 N589 1.384 . S
N588 C584 1.427 . S
N588 C585 1.384 . S
N589 C581 1.427 . S
N589 C587 1.384 . S
H590 C596 0.930 . S
H591 C600 0.930 . S
H592 C605 0.929 . S
H593 C603 0.929 . S
H594 C598 0.929 . S
H595 C604 0.929 . S
C596 H590 0.930 . S
C596 C597 1.367 . S
C596 C604 1.378 . S
C597 C596 1.367 . S
C597 C605 1.433 . S
C598 H594 0.929 . S
C598 C600 1.378 . S
C598 C602 1.350 . S
C599 C602 1.463 . S
C599 C604 1.350 . S
C599 N607 1.427 . S
C600 H591 0.930 . S
C600 C598 1.378 . S
C600 C601 1.367 . S
C601 C600 1.367 . S
C601 C603 1.433 . S
C602 C598 1.350 . S
C602 C599 1.463 . S
C602 N606 1.427 . S
C603 H593 0.929 . S
C603 C601 1.433 . S
C603 N606 1.384 . S
C604 H595 0.929 . S
C604 C596 1.378 . S
C604 C599 1.350 . S
C605 H592 0.929 . S
C605 C597 1.433 . S
C605 N607 1.384 . S
N606 C602 1.427 . S
N606 C603 1.384 . S
N607 C599 1.427 . S
N607 C605 1.384 . S
H608 C614 0.930 . S
H609 C618 0.930 . S
H610 C623 0.929 . S
H611 C621 0.929 . S
H612 C616 0.929 . S
H613 C622 0.929 . S
C614 H608 0.930 . S
C614 C615 1.367 1_455 S
C614 C622 1.378 . S
C615 C614 1.367 1_655 S
C615 C623 1.433 . S
C616 H612 0.929 . S
C616 C618 1.378 . S
C616 C620 1.350 . S
C617 C620 1.463 . S
C617 C622 1.350 1_655 S
C617 N625 1.427 . S
C618 H609 0.930 . S
C618 C616 1.378 . S
C618 C619 1.367 . S
C619 C618 1.367 . S
C619 C621 1.433 1_655 S
C620 C616 1.350 . S
C620 C617 1.463 . S
C620 N624 1.427 1_655 S
C621 H611 0.929 . S
C621 C619 1.433 1_455 S
C621 N624 1.384 . S
C622 H613 0.929 . S
C622 C614 1.378 . S
C622 C617 1.350 1_455 S
C623 H610 0.929 . S
C623 C615 1.433 . S
C623 N625 1.384 . S
N624 C620 1.427 1_455 S
N624 C621 1.384 . S
N625 C617 1.427 . S
N625 C623 1.384 . S
H626 C632 0.942 . S
H627 C636 0.930 . S
H628 C641 0.929 . S
H629 C639 0.933 . S
H630 C634 0.929 . S
H631 C640 0.927 1_545 S
C632 H626 0.942 . S
C632 C633 1.359 1_545 S
C632 C640 1.376 1_545 S
C633 C632 1.359 1_565 S
C633 C641 1.433 . S
C634 H630 0.929 . S
C634 C636 1.378 . S
C634 C638 1.350 . S
C635 C638 1.463 . S
C635 C640 1.352 . S
C635 N643 1.427 . S
C636 H627 0.930 . S
C636 C634 1.378 . S
C636 C637 1.367 . S
C637 C636 1.367 . S
C637 C639 1.433 . S
C638 C634 1.350 . S
C638 C635 1.463 . S
C638 N642 1.427 . S
C639 H629 0.933 . S
C639 C637 1.433 . S
C639 N642 1.384 . S
C640 H631 0.927 1_565 S
C640 C632 1.376 1_565 S
C640 C635 1.352 . S
C641 H628 0.929 . S
C641 C633 1.433 . S
C641 N643 1.384 . S
N642 C638 1.427 . S
N642 C639 1.384 . S
N643 C635 1.427 . S
N643 C641 1.384 . S
H644 C650 0.930 . S
H645 C654 0.930 . S
H646 C659 0.929 . S
H647 C657 0.929 . S
H648 C652 0.929 . S
H649 C658 0.929 . S
C650 H644 0.930 . S
C650 C651 1.367 . S
C650 C658 1.378 . S
C651 C650 1.367 . S
C651 C659 1.433 . S
C652 H648 0.929 . S
C652 C654 1.378 . S
C652 C656 1.350 . S
C653 C656 1.463 . S
C653 C658 1.350 . S
C653 N661 1.427 . S
C654 H645 0.930 . S
C654 C652 1.378 . S
C654 C655 1.367 . S
C655 C654 1.367 . S
C655 C657 1.433 . S
C656 C652 1.350 . S
C656 C653 1.463 . S
C656 N660 1.427 . S
C657 H647 0.929 . S
C657 C655 1.433 . S
C657 N660 1.384 . S
C658 H649 0.929 . S
C658 C650 1.378 . S
C658 C653 1.350 . S
C659 H646 0.929 . S
C659 C651 1.433 . S
C659 N661 1.384 . S
N660 C656 1.427 . S
N660 C657 1.384 . S
N661 C653 1.427 . S
N661 C659 1.384 . S
H662 C668 0.930 . S
H663 C672 0.930 . S
H664 C677 0.929 . S
H665 C675 0.929 . S
H666 C670 0.929 . S
H667 C676 0.929 . S
C668 H662 0.930 . S
C668 C669 1.367 . S
C668 C676 1.378 . S
C669 C668 1.367 . S
C669 C677 1.433 . S
C670 H666 0.929 . S
C670 C672 1.378 . S
C670 C674 1.350 . S
C671 C674 1.463 . S
C671 C676 1.350 . S
C671 N679 1.427 . S
C672 H663 0.930 . S
C672 C670 1.378 . S
C672 C673 1.367 . S
C673 C672 1.367 . S
C673 C675 1.433 . S
C674 C670 1.350 . S
C674 C671 1.463 . S
C674 N678 1.427 . S
C675 H665 0.929 . S
C675 C673 1.433 . S
C675 N678 1.384 . S
C676 H667 0.929 . S
C676 C668 1.378 . S
C676 C671 1.350 . S
C677 H664 0.929 . S
C677 C669 1.433 . S
C677 N679 1.384 . S
N678 C674 1.427 . S
N678 C675 1.384 . S
N679 C671 1.427 . S
N679 C677 1.384 . S
C255 C74 1.782 . S
C259 C98 1.880 . S
C277 C138 1.879 . S
C273 C85 1.777 . S
C295 C178 1.883 . S
C291 C52 1.790 . S
C313 C218 1.881 . S
C309 C63 1.779 . S
C331 C107 1.882 1_565 S
C327 C30 1.782 1_565 S
C345 C41 1.790 . S
C349 C147 1.878 . S
C363 C8 1.783 . S
C367 C187 1.881 . S
C381 C19 1.787 1_655 S
C385 C227 1.877 1_655 S
C403 C104 0.619 . S
C399 C62 0.601 . S
C421 C144 0.632 . S
C417 C73 0.600 . S
C439 C184 0.631 . S
C435 C84 0.611 . S
C453 C51 0.603 . S
C457 C224 0.639 . S
C471 C18 0.657 1_655 S
C475 C95 0.636 . S
C493 C135 0.637 . S
C489 C29 0.657 1_565 S
C511 C175 0.622 . S
C507 C40 0.639 . S
C525 C7 0.659 . S
C529 C215 0.639 . S
C543 C60 1.712 . S
C547 C99 2.242 . S
C561 C71 1.703 . S
C565 C139 2.239 . S
C583 C179 2.239 . S
C579 C82 1.702 . S
C601 C219 2.242 . S
C597 C49 1.722 . S
C615 C16 1.763 1_655 S
C619 C90 2.244 . S
C637 C130 2.241 . S
C633 C27 1.755 1_565 S
C655 C170 2.243 . S
C651 C38 1.763 . S
C669 C5 1.757 . S
C673 C210 2.244 . S
