# Generated by pormake.
# Topology ocu, (6,8)-cn, num edge types: 1
# Building blocks:
#     Node 0, Type 0, BuildingBlock: PAMTOO_clean_sbu_0, # of connection points: 6
#     Node 1, Type 0, BuildingBlock: PAMTOO_clean_sbu_0, # of connection points: 6
#     Node 2, Type 0, BuildingBlock: PAMTOO_clean_sbu_0, # of connection points: 6
#     Node 3, Type 0, BuildingBlock: PAMTOO_clean_sbu_0, # of connection points: 6
#     Node 4, Type 0, BuildingBlock: PAMTOO_clean_sbu_0, # of connection points: 6
#     Node 5, Type 0, BuildingBlock: PAMTOO_clean_sbu_0, # of connection points: 6
#     Node 6, Type 0, BuildingBlock: PAMTOO_clean_sbu_0, # of connection points: 6
#     Node 7, Type 0, BuildingBlock: PAMTOO_clean_sbu_0, # of connection points: 6
#     Node 8, Type 1, BuildingBlock: GIZVER_clean_sbu_0, # of connection points: 8
#     Node 9, Type 1, BuildingBlock: GIZVER_clean_sbu_0, # of connection points: 8
#     Node 10, Type 1, BuildingBlock: GIZVER_clean_sbu_0, # of connection points: 8
#     Node 11, Type 1, BuildingBlock: GIZVER_clean_sbu_0, # of connection points: 8
#     Node 12, Type 1, BuildingBlock: GIZVER_clean_sbu_0, # of connection points: 8
#     Node 13, Type 1, BuildingBlock: GIZVER_clean_sbu_0, # of connection points: 8
#     Edge 14, Type (0, 1), BuildingBlock: AJUNOK_clean_linker_0, # of connection points: 2
#     Edge 15, Type (0, 1), BuildingBlock: AJUNOK_clean_linker_0, # of connection points: 2
#     Edge 16, Type (0, 1), BuildingBlock: AJUNOK_clean_linker_0, # of connection points: 2
#     Edge 17, Type (0, 1), BuildingBlock: AJUNOK_clean_linker_0, # of connection points: 2
#     Edge 18, Type (0, 1), BuildingBlock: AJUNOK_clean_linker_0, # of connection points: 2
#     Edge 19, Type (0, 1), BuildingBlock: AJUNOK_clean_linker_0, # of connection points: 2
#     Edge 20, Type (0, 1), BuildingBlock: AJUNOK_clean_linker_0, # of connection points: 2
#     Edge 21, Type (0, 1), BuildingBlock: AJUNOK_clean_linker_0, # of connection points: 2
#     Edge 22, Type (0, 1), BuildingBlock: AJUNOK_clean_linker_0, # of connection points: 2
#     Edge 23, Type (0, 1), BuildingBlock: AJUNOK_clean_linker_0, # of connection points: 2
#     Edge 24, Type (0, 1), BuildingBlock: AJUNOK_clean_linker_0, # of connection points: 2
#     Edge 25, Type (0, 1), BuildingBlock: AJUNOK_clean_linker_0, # of connection points: 2
#     Edge 26, Type (0, 1), BuildingBlock: AJUNOK_clean_linker_0, # of connection points: 2
#     Edge 27, Type (0, 1), BuildingBlock: AJUNOK_clean_linker_0, # of connection points: 2
#     Edge 28, Type (0, 1), BuildingBlock: AJUNOK_clean_linker_0, # of connection points: 2
#     Edge 29, Type (0, 1), BuildingBlock: AJUNOK_clean_linker_0, # of connection points: 2
#     Edge 30, Type (0, 1), BuildingBlock: AJUNOK_clean_linker_0, # of connection points: 2
#     Edge 31, Type (0, 1), BuildingBlock: AJUNOK_clean_linker_0, # of connection points: 2
#     Edge 32, Type (0, 1), BuildingBlock: AJUNOK_clean_linker_0, # of connection points: 2
#     Edge 33, Type (0, 1), BuildingBlock: AJUNOK_clean_linker_0, # of connection points: 2
#     Edge 34, Type (0, 1), BuildingBlock: AJUNOK_clean_linker_0, # of connection points: 2
#     Edge 35, Type (0, 1), BuildingBlock: AJUNOK_clean_linker_0, # of connection points: 2
#     Edge 36, Type (0, 1), BuildingBlock: AJUNOK_clean_linker_0, # of connection points: 2
#     Edge 37, Type (0, 1), BuildingBlock: AJUNOK_clean_linker_0, # of connection points: 2
#     Edge 38, Type (0, 1), BuildingBlock: AJUNOK_clean_linker_0, # of connection points: 2
#     Edge 39, Type (0, 1), BuildingBlock: AJUNOK_clean_linker_0, # of connection points: 2
#     Edge 40, Type (0, 1), BuildingBlock: AJUNOK_clean_linker_0, # of connection points: 2
#     Edge 41, Type (0, 1), BuildingBlock: AJUNOK_clean_linker_0, # of connection points: 2
#     Edge 42, Type (0, 1), BuildingBlock: AJUNOK_clean_linker_0, # of connection points: 2
#     Edge 43, Type (0, 1), BuildingBlock: AJUNOK_clean_linker_0, # of connection points: 2
#     Edge 44, Type (0, 1), BuildingBlock: AJUNOK_clean_linker_0, # of connection points: 2
#     Edge 45, Type (0, 1), BuildingBlock: AJUNOK_clean_linker_0, # of connection points: 2
#     Edge 46, Type (0, 1), BuildingBlock: AJUNOK_clean_linker_0, # of connection points: 2
#     Edge 47, Type (0, 1), BuildingBlock: AJUNOK_clean_linker_0, # of connection points: 2
#     Edge 48, Type (0, 1), BuildingBlock: AJUNOK_clean_linker_0, # of connection points: 2
#     Edge 49, Type (0, 1), BuildingBlock: AJUNOK_clean_linker_0, # of connection points: 2
#     Edge 50, Type (0, 1), BuildingBlock: AJUNOK_clean_linker_0, # of connection points: 2
#     Edge 51, Type (0, 1), BuildingBlock: AJUNOK_clean_linker_0, # of connection points: 2
#     Edge 52, Type (0, 1), BuildingBlock: AJUNOK_clean_linker_0, # of connection points: 2
#     Edge 53, Type (0, 1), BuildingBlock: AJUNOK_clean_linker_0, # of connection points: 2
#     Edge 54, Type (0, 1), BuildingBlock: AJUNOK_clean_linker_0, # of connection points: 2
#     Edge 55, Type (0, 1), BuildingBlock: AJUNOK_clean_linker_0, # of connection points: 2
#     Edge 56, Type (0, 1), BuildingBlock: AJUNOK_clean_linker_0, # of connection points: 2
#     Edge 57, Type (0, 1), BuildingBlock: AJUNOK_clean_linker_0, # of connection points: 2
#     Edge 58, Type (0, 1), BuildingBlock: AJUNOK_clean_linker_0, # of connection points: 2
#     Edge 59, Type (0, 1), BuildingBlock: AJUNOK_clean_linker_0, # of connection points: 2
#     Edge 60, Type (0, 1), BuildingBlock: AJUNOK_clean_linker_0, # of connection points: 2
#     Edge 61, Type (0, 1), BuildingBlock: AJUNOK_clean_linker_0, # of connection points: 2
# Relax obj value: 0.359
# Max RMSD: 0.328
# Mean RMSD: 0.196
data_MOF--net-ocu--node1-PAMTOO_clean_sbu_0--node2-GIZVER_clean_sbu_0--edge1-AJUNOK_clean_linker_0
_symmetry_space_group_name_H-M    P1
_symmetry_Int_Tables_number       1
_symmetry_cell_setting            triclinic
loop_
_symmetry_equiv_pos_as_xyz
'x, y, z'
_cell_length_a     32.119183
_cell_length_b     34.421712
_cell_length_c     25.2337
_cell_angle_alpha  90.685361
_cell_angle_beta   95.360332
_cell_angle_gamma 109.84635
loop_
_atom_site_label
_atom_site_type_symbol
_atom_site_fract_x
_atom_site_fract_y
_atom_site_fract_z
_atom_type_partial_charge
Dy0 Dy 0.37993 0.34767 0.3683 0.0
Dy1 Dy 0.30766 0.32593 0.27121 0.0
C2 C 0.38703 0.28382 0.26887 0.0
O3 O 0.41045 0.40097 0.31554 0.0
O4 O 0.35933 0.38308 0.24212 0.0
O5 O 0.44726 0.35891 0.40306 0.0
O6 O 0.39761 0.36248 0.45278 0.0
O7 O 0.28469 0.37025 0.32436 0.0
O8 O 0.34205 0.39059 0.39049 0.0
O9 O 0.27649 0.27274 0.32192 0.0
O10 O 0.32421 0.29248 0.39737 0.0
O11 O 0.23916 0.30973 0.2389 0.0
O12 O 0.28939 0.31015 0.18738 0.0
C13 C 0.39789 0.40745 0.26605 0.0
O14 O 0.40474 0.3051 0.31498 0.0
O15 O 0.34826 0.28542 0.24809 0.0
C16 C 0.44485 0.32698 0.4834 0.0
C17 C 0.46337 0.25407 0.49826 0.0
C18 C 0.41915 0.25268 0.49044 0.0
C19 C 0.41007 0.28907 0.48424 0.0
C20 C 0.48856 0.32915 0.49828 0.0
C21 C 0.49774 0.29281 0.50647 0.0
C22 C 0.43667 0.35925 0.45155 0.0
C23 C 0.30327 0.39227 0.36995 0.0
C24 C 0.28642 0.26758 0.37228 0.0
C25 C 0.23054 0.33101 0.1531 0.0
C26 C 0.19561 0.38791 0.10725 0.0
C27 C 0.24163 0.3959 0.11118 0.0
C28 C 0.25908 0.36766 0.13432 0.0
C29 C 0.18442 0.32105 0.1442 0.0
C30 C 0.16697 0.34954 0.12163 0.0
C31 C 0.24815 0.30703 0.19005 0.0
H32 H 0.39175 0.22373 0.48337 0.0
H33 H 0.37614 0.28699 0.47362 0.0
H34 H 0.51586 0.35818 0.49799 0.0
H35 H 0.53219 0.29494 0.51381 0.0
H36 H 0.26439 0.42538 0.10066 0.0
H37 H 0.29489 0.37594 0.14102 0.0
H38 H 0.16209 0.29268 0.15829 0.0
H39 H 0.13123 0.34237 0.11748 0.0
Dy40 Dy 0.86023 0.34386 0.29094 0.0
Dy41 Dy 0.80361 0.33289 0.38513 0.0
C42 C 0.89407 0.40356 0.39552 0.0
O43 O 0.88643 0.29912 0.34049 0.0
O44 O 0.84579 0.29091 0.41182 0.0
O45 O 0.92648 0.35329 0.27025 0.0
O46 O 0.87552 0.3568 0.20982 0.0
O47 O 0.75674 0.2882 0.32075 0.0
O48 O 0.80706 0.28371 0.26436 0.0
O49 O 0.78418 0.38137 0.33473 0.0
O50 O 0.80778 0.37147 0.25563 0.0
O51 O 0.75679 0.30464 0.44124 0.0
O52 O 0.78623 0.37152 0.44063 0.0
C53 C 0.87764 0.28295 0.3875 0.0
O54 O 0.88686 0.40301 0.34359 0.0
O55 O 0.87177 0.37109 0.41942 0.0
C56 C 0.94233 0.41273 0.22421 0.0
C57 C 0.99305 0.49591 0.2512 0.0
C58 C 0.94768 0.48075 0.2581 0.0
C59 C 0.92242 0.43999 0.2433 0.0
C60 C 0.98768 0.42724 0.21811 0.0
C61 C 1.01267 0.46872 0.23049 0.0
C62 C 0.91809 0.3685 0.22516 0.0
C63 C 0.76637 0.27118 0.27837 0.0
C64 C 0.7842 0.38795 0.28299 0.0
C65 C 0.77753 0.34185 0.52335 0.0
C66 C 0.77598 0.27878 0.58653 0.0
C67 C 0.81762 0.30416 0.57261 0.0
C68 C 0.81785 0.33525 0.53762 0.0
C69 C 0.74466 0.33003 0.55865 0.0
C70 C 0.74585 0.29945 0.59437 0.0
C71 C 0.76329 0.3402 0.46633 0.0
H72 H 0.93138 0.50074 0.27345 0.0
H73 H 0.8874 0.42938 0.2489 0.0
H74 H 1.00379 0.40645 0.20463 0.0
H75 H 1.04703 0.47971 0.22221 0.0
H76 H 0.84568 0.29343 0.57498 0.0
H77 H 0.84562 0.3469 0.51409 0.0
H78 H 0.71433 0.33717 0.55129 0.0
H79 H 0.71623 0.28425 0.61369 0.0
Dy80 Dy 0.8282 0.8282 0.34078 0.0
Dy81 Dy 0.87221 0.87252 0.23759 0.0
C82 C 0.9284 0.89013 0.35099 0.0
O83 O 0.78766 0.8656 0.30959 0.0
O84 O 0.84354 0.91528 0.27464 0.0
O85 O 0.80724 0.83795 0.4172 0.0
O86 O 0.79905 0.77605 0.38795 0.0
O87 O 0.80024 0.83591 0.20534 0.0
O88 O 0.78098 0.79159 0.27389 0.0
O89 O 0.87056 0.80904 0.22912 0.0
O90 O 0.87001 0.79139 0.31631 0.0
O91 O 0.87969 0.87644 0.15365 0.0
O92 O 0.9261 0.92226 0.20944 0.0
C93 C 0.80473 0.90306 0.29325 0.0
O94 O 0.89052 0.87964 0.37171 0.0
O95 O 0.92919 0.8803 0.30079 0.0
C96 C 0.82899 0.79404 0.47548 0.0
C97 C 0.8963 0.77104 0.53019 0.0
C98 C 0.90478 0.81229 0.51729 0.0
C99 C 0.87163 0.8235 0.48882 0.0
C100 C 0.81872 0.75464 0.49548 0.0
C101 C 0.85222 0.74297 0.52195 0.0
C102 C 0.80091 0.7998 0.42943 0.0
C103 C 0.77366 0.80177 0.22481 0.0
C104 C 0.87364 0.78378 0.26603 0.0
C105 C 0.89673 0.94486 0.13201 0.0
C106 C 0.82416 0.96815 0.09742 0.0
C107 C 0.84136 0.9472 0.06193 0.0
C108 C 0.87778 0.93568 0.07909 0.0
C109 C 0.886 0.97361 0.16297 0.0
C110 C 0.84928 0.98451 0.14623 0.0
C111 C 0.90988 0.91317 0.15979 0.0
H112 H 0.93766 0.83517 0.52594 0.0
H113 H 0.88028 0.85447 0.47446 0.0
H114 H 0.78618 0.73143 0.48521 0.0
H115 H 0.84413 0.7108 0.53128 0.0
H116 H 0.82406 0.93578 1.02325 0.0
H117 H 0.88623 0.91421 0.05409 0.0
H118 H 0.901 0.98233 0.20358 0.0
H119 H 0.83782 1.00151 0.1745 0.0
Dy120 Dy 0.31783 0.85589 0.31259 0.0
Dy121 Dy 0.36958 0.79475 0.29507 0.0
C122 C 0.4151 0.87575 0.37343 0.0
O123 O 0.37509 0.89371 0.26515 0.0
O124 O 0.4016 0.8442 0.23665 0.0
O125 O 0.29174 0.8992 0.27291 0.0
O126 O 0.2865 0.88978 0.35735 0.0
O127 O 0.31236 0.76902 0.23085 0.0
O128 O 0.27474 0.81316 0.24627 0.0
O129 O 0.31873 0.76145 0.35237 0.0
O130 O 0.27699 0.80241 0.36194 0.0
O131 O 0.39961 0.75695 0.34131 0.0
O132 O 0.40154 0.75874 0.25544 0.0
C133 C 0.40164 0.88279 0.23556 0.0
O134 O 0.37493 0.87671 0.37702 0.0
O135 O 0.42112 0.84915 0.3402 0.0
C136 C 0.30599 0.95744 0.32949 0.0
C137 C 0.33807 1.03367 0.38538 0.0
C138 C 0.36644 1.01076 0.38081 0.0
C139 C 0.35021 0.97241 0.35306 0.0
C140 C 0.28135 0.98387 0.32477 0.0
C141 C 0.29787 1.02249 0.35156 0.0
C142 C 0.28384 0.91317 0.31767 0.0
C143 C 0.27835 0.78167 0.2196 0.0
C144 C 0.28486 0.76772 0.37262 0.0
C145 C 0.38475 0.69456 0.29264 0.0
C146 C 0.35264 0.62491 0.22531 0.0
C147 C 0.32252 0.64276 0.24205 0.0
C148 C 0.33896 0.67847 0.27543 0.0
C149 C 0.41076 0.66963 0.28853 0.0
C150 C 0.39366 0.63326 0.25667 0.0
C151 C 0.40646 0.73935 0.29856 0.0
H152 H 0.39785 1.01903 0.40566 0.0
H153 H 0.37027 0.95266 0.35515 0.0
H154 H 0.24765 0.97311 0.30526 0.0
H155 H 0.27544 1.03982 0.35321 0.0
H156 H 0.2898 0.63527 0.22052 0.0
H157 H 0.31792 0.69684 0.28002 0.0
H158 H 0.44578 0.68096 0.30313 0.0
H159 H 0.41673 0.61814 0.24679 0.0
Dy160 Dy 0.37608 0.8282 0.72876 0.0
Dy161 Dy 0.33802 0.83838 0.83613 0.0
C162 C 0.42102 0.90958 0.80072 0.0
O163 O 0.4163 0.79722 0.78325 0.0
O164 O 0.38718 0.80412 0.86023 0.0
O165 O 0.41994 0.82396 0.67212 0.0
O166 O 0.34822 0.79861 0.65081 0.0
O167 O 0.28721 0.78039 0.79397 0.0
O168 O 0.34318 0.7679 0.7606 0.0
O169 O 0.3011 0.8735 0.78581 0.0
O170 O 0.32839 0.86631 0.70677 0.0
O171 O 0.29259 0.83439 0.8951 0.0
O172 O 0.36396 0.86236 0.91633 0.0
C173 C 0.41448 0.79091 0.83493 0.0
O174 O 0.4293 0.88434 0.76712 0.0
O175 O 0.38127 0.90069 0.8159 0.0
C176 C 0.39593 0.81521 0.58153 0.0
C177 C 0.46677 0.87381 0.54463 0.0
C178 C 0.4262 0.88121 0.54356 0.0
C179 C 0.3906 0.8519 0.56437 0.0
C180 C 0.42897 0.80269 0.5617 0.0
C181 C 0.46562 0.83275 0.54401 0.0
C182 C 0.38756 0.80378 0.63591 0.0
C183 C 0.30168 0.75533 0.76751 0.0
C184 C 0.30257 0.88083 0.73442 0.0
C185 C 0.32221 0.81813 0.97595 0.0
C186 C 0.25873 0.74967 1.00767 0.0
C187 C 0.29094 0.74409 0.97755 0.0
C188 C 0.32318 0.77898 0.96141 0.0
C189 C 0.30098 0.82225 1.02041 0.0
C190 C 0.27053 0.78682 0.03872 0.0
C191 C 0.32502 0.84722 0.93377 0.0
H192 H 0.42554 0.91234 0.54017 0.0
H193 H 0.36401 0.86137 0.57702 0.0
H194 H 0.43207 0.77325 0.57206 0.0
H195 H 0.49565 0.82546 0.5414 0.0
H196 H 0.28571 0.71494 0.95655 0.0
H197 H 0.34144 0.77493 0.92938 0.0
H198 H 0.30156 0.85234 0.03434 0.0
H199 H 0.24879 0.79096 0.0667 0.0
Dy200 Dy 0.3743 0.33032 0.77522 0.0
Dy201 Dy 0.31195 0.32374 0.86973 0.0
C202 C 0.27395 0.26909 0.75895 0.0
O203 O 0.34039 0.37746 0.7555 0.0
O204 O 0.28544 0.36163 0.81175 0.0
O205 O 0.38008 0.32401 0.69129 0.0
O206 O 0.4391 0.35083 0.74625 0.0
O207 O 0.3689 0.38198 0.89315 0.0
O208 O 0.4196 0.36909 0.84403 0.0
O209 O 0.36143 0.29247 0.90007 0.0
O210 O 0.39007 0.28147 0.8239 0.0
O211 O 0.28729 0.3463 0.9355 0.0
O212 O 0.26395 0.28041 0.91423 0.0
C213 C 0.30316 0.38073 0.76999 0.0
O214 O 0.31495 0.27376 0.7502 0.0
O215 O 0.26599 0.28852 0.79958 0.0
C216 C 0.443 0.30568 0.67787 0.0
C217 C 0.48071 0.2461 0.65141 0.0
C218 C 0.43473 0.23767 0.64089 0.0
C219 C 0.41603 0.26723 0.65366 0.0
C220 C 0.48902 0.31441 0.68751 0.0
C221 C 0.50762 0.28477 0.67502 0.0
C222 C 0.42327 0.33493 0.69842 0.0
C223 C 0.41019 0.38886 0.88347 0.0
C224 C 0.38698 0.27675 0.87537 0.0
C225 C 0.21224 0.31008 0.93886 0.0
C226 C 0.1393 0.33714 0.93567 0.0
C227 C 0.15649 0.32585 0.98389 0.0
C228 C 0.1933 0.31295 0.98574 0.0
C229 C 0.19112 0.3155 0.88964 0.0
C230 C 0.15469 0.32893 0.8881 0.0
C231 C 0.25785 0.31006 0.94182 0.0
H232 H 0.41299 0.20802 0.62364 0.0
H233 H 0.38031 0.25937 0.64601 0.0
H234 H 0.51043 0.34364 0.70662 0.0
H235 H 0.54294 0.29176 0.6855 0.0
H236 H 0.14434 0.33116 1.02062 0.0
H237 H 0.2091 0.30868 1.02402 0.0
H238 H 0.20518 0.31299 0.85294 0.0
H239 H 0.141 0.33636 0.85042 0.0
Dy240 Dy 0.82659 0.33445 0.77881 0.0
Dy241 Dy 0.89224 0.29696 0.84567 0.0
C242 C 0.88765 0.38251 0.884 0.0
O243 O 0.88509 0.34983 0.7314 0.0
O244 O 0.93546 0.35339 0.80233 0.0
O245 O 0.8171 0.38433 0.73316 0.0
O246 O 0.76007 0.33496 0.75449 0.0
O247 O 0.86568 0.25097 0.77507 0.0
O248 O 0.81285 0.27504 0.73348 0.0
O249 O 0.82351 0.25454 0.86356 0.0
O250 O 0.78904 0.30126 0.84697 0.0
O251 O 0.9113 0.27331 0.91967 0.0
O252 O 0.95262 0.28234 0.85467 0.0
C253 C 0.92591 0.36614 0.75463 0.0
O254 O 0.87344 0.38525 0.83444 0.0
O255 O 0.8881 0.3468 0.9007 0.0
C256 C 0.76956 0.40192 0.78358 0.0
C257 C 0.76953 0.45636 0.86692 0.0
C258 C 0.78977 0.42672 0.87543 0.0
C259 C 0.78678 0.39837 0.83547 0.0
C260 C 0.75263 0.43384 0.77265 0.0
C261 C 0.75129 0.4604 0.81491 0.0
C262 C 0.77593 0.37392 0.74365 0.0
C263 C 0.8321 0.24695 0.73856 0.0
C264 C 0.78859 0.26594 0.86709 0.0
C265 C 0.93866 0.22064 0.89752 0.0
C266 C 0.93447 0.15491 0.83014 0.0
C267 C 0.89489 0.15872 0.84435 0.0
C268 C 0.89698 0.19179 0.87817 0.0
C269 C 0.97697 0.21038 0.89412 0.0
C270 C 0.97465 0.17669 0.86109 0.0
C271 C 0.94313 0.26446 0.89955 0.0
H272 H 0.80491 0.42317 0.91448 0.0
H273 H 0.79818 0.37332 0.84563 0.0
H274 H 0.73956 0.43741 0.73258 0.0
H275 H 0.7347 0.48269 0.80736 0.0
H276 H 0.86346 0.14179 0.8215 0.0
H277 H 0.86673 0.19861 0.88118 0.0
H278 H 1.00936 0.23195 0.90927 0.0
H279 H 1.00554 0.17361 0.85118 0.0
Dy280 Dy 0.89029 0.83916 0.86916 0.0
Dy281 Dy 0.82134 0.80997 0.76807 0.0
C282 C 0.90362 0.7695 0.7788 0.0
O283 O 0.92507 0.8875 0.81238 0.0
O284 O 0.87785 0.86178 0.73712 0.0
O285 O 0.93313 0.82513 0.93109 0.0
O286 O 0.92799 0.88625 0.93018 0.0
O287 O 0.79039 0.85159 0.81541 0.0
O288 O 0.84423 0.87744 0.8845 0.0
O289 O 0.7858 0.76309 0.82466 0.0
O290 O 0.8323 0.78878 0.90081 0.0
O291 O 0.77054 0.82098 0.71441 0.0
O292 O 0.79222 0.76982 0.6975 0.0
C293 C 0.91442 0.88915 0.76101 0.0
O294 O 0.92094 0.79703 0.82041 0.0
O295 O 0.86368 0.76748 0.75616 0.0
C296 C 0.94049 0.86011 1.0149 0.0
C297 C 0.96806 0.84208 0.11646 0.0
C298 C 0.92688 0.81644 0.09045 0.0
C299 C 0.91434 0.82441 0.03823 0.0
C300 C 0.97146 0.89173 0.04828 0.0
C301 C 0.98327 0.88347 0.1008 0.0
C302 C 0.94305 0.8608 0.9567 0.0
C303 C 0.80552 0.87658 0.85937 0.0
C304 C 0.79531 0.76202 0.87636 0.0
C305 C 0.7864 0.81354 0.62807 0.0
C306 C 0.82215 0.88063 0.56481 0.0
C307 C 0.77581 0.8627 0.56509 0.0
C308 C 0.75798 0.82938 0.59694 0.0
C309 C 0.83201 0.82744 0.62105 0.0
C310 C 0.8498 0.86134 0.59025 0.0
C311 C 0.77227 0.79454 0.67815 0.0
H312 H 0.91007 0.78628 0.10447 0.0
H313 H 0.88822 0.80044 1.01435 0.0
H314 H 0.99053 0.92061 0.03209 0.0
H315 H 1.01237 0.90582 0.12259 0.0
H316 H 0.75389 0.87749 0.54592 0.0
H317 H 0.72283 0.81938 0.60205 0.0
H318 H 0.85468 0.81542 0.64419 0.0
H319 H 0.8854 0.87456 0.58931 0.0
Co320 Co 0.16932 1.03127 0.5441 0.0
Co321 Co 0.13974 1.01572 0.62902 0.0
Co322 Co 0.09192 0.0811 0.56058 0.0
O323 O 0.14375 0.06122 0.58754 0.0
H324 H 0.16719 0.08449 0.60553 0.0
O325 O 1.03961 0.10197 0.53535 0.0
Co326 Co 1.03321 0.14532 0.58021 0.0
Co327 Co 1.04227 0.14451 0.48736 0.0
H328 H 1.01202 0.07903 0.52802 0.0
O329 O 0.18516 1.01083 0.68174 0.0
O330 O 0.17226 0.98499 0.59796 0.0
O331 O 1.07814 0.99083 0.64165 0.0
O332 O 1.04908 1.03919 0.6104 0.0
O333 O 0.11453 0.12475 0.61967 0.0
O334 O 1.02374 0.17871 0.62584 0.0
O335 O 0.97547 0.11875 0.58717 0.0
O336 O 0.09614 0.17639 0.58455 0.0
O337 O 0.13528 0.12259 0.51125 0.0
O338 O 0.10352 0.16508 0.46842 0.0
O339 O 1.01663 0.18221 0.51926 0.0
O340 O 0.9938 0.14972 0.43915 0.0
C341 C 0.23241 1.04151 0.52859 0.0
C342 C 1.07615 1.00339 0.49151 0.0
C343 C 1.04627 1.00528 0.63578 0.0
C344 C 0.19271 0.98674 0.6466 0.0
C345 C 0.98564 0.14887 0.62316 0.0
C346 C 0.12287 0.1634 0.61422 0.0
C347 C 0.13693 0.15315 0.47983 0.0
C348 C 0.99118 0.17734 0.47305 0.0
O349 O 0.19984 1.01151 0.50293 0.0
O350 O 0.22515 0.06286 0.56705 0.0
O351 O 1.06967 1.03745 0.50097 0.0
O352 O 0.11059 0.99578 0.51194 0.0
Co353 Co 0.65 1.01709 0.98144 0.0
Co354 Co 0.60299 1.0026 0.06085 0.0
Co355 Co 0.585 0.08591 0.04676 0.0
O356 O 0.63528 1.057 0.04139 0.0
H357 H 0.66069 0.06968 0.06724 0.0
O358 O 0.53461 0.11389 0.05269 0.0
Co359 Co 0.53281 0.16427 0.10065 0.0
Co360 Co 0.54159 0.15604 1.00512 0.0
H361 H 0.50523 0.09339 0.04568 0.0
O362 O 0.63209 0.98575 0.11539 0.0
O363 O 0.62691 0.97087 1.02659 0.0
O364 O 0.53944 0.98196 0.06095 0.0
O365 O 0.54607 1.04184 0.0994 0.0
O366 O 0.62048 0.12514 0.10994 0.0
O367 O 0.53004 0.20832 0.14644 0.0
O368 O 0.47055 0.15684 0.11459 0.0
O369 O 0.59754 0.18108 0.10143 0.0
O370 O 0.62554 0.12875 0.99703 0.0
O371 O 0.59813 0.17841 0.9762 0.0
O372 O 0.52242 0.19672 0.03355 0.0
O373 O 0.49337 0.15287 0.96062 0.0
C374 C 0.69942 0.9833 0.94947 0.0
C375 C 0.55706 1.02325 0.94991 0.0
C376 C 0.52654 1.00154 0.09472 0.0
C377 C 0.64487 0.97035 0.07521 0.0
C378 C 0.48706 0.19146 0.14469 0.0
C379 C 0.62395 0.16302 0.12287 0.0
C380 C 0.62896 0.16336 0.9746 0.0
C381 C 0.49522 0.18555 0.98851 0.0
O382 O 0.65983 0.97913 0.92818 0.0
O383 O 0.71146 1.01 0.99077 0.0
O384 O 0.54917 1.04922 0.98172 0.0
O385 O 0.59288 1.01489 0.95493 0.0
Co386 Co 1.0655 0.52138 1.00998 0.0
Co387 Co 0.12817 0.58417 0.06543 0.0
Co388 Co 1.05485 0.61508 1.01827 0.0
O389 O 0.09036 0.58009 1.00358 0.0
H390 H 0.10508 0.58619 0.9717 0.0
O391 O 1.01605 0.64733 0.02955 0.0
Co392 Co 1.03071 0.69236 0.0791 0.0
Co393 Co 1.00833 0.68251 0.96616 0.0
H394 H 0.98693 0.62878 0.03593 0.0
O395 O 0.17621 0.56615 0.06562 0.0
O396 O 0.10499 0.52851 0.07657 0.0
O397 O 0.11911 0.61206 0.1283 0.0
O398 O 1.0497 0.59994 0.09425 0.0
O399 O 0.11269 0.66106 0.04572 0.0
O400 O 1.02469 0.74447 0.11458 0.0
O401 O 0.95359 0.66878 0.1309 0.0
O402 O 0.09142 0.7127 0.07161 0.0
O403 O 1.05729 0.631 0.9422 0.0
O404 O 1.0501 0.68737 0.91283 0.0
O405 O 1.03287 0.72996 1.00935 0.0
O406 O 0.97199 0.71961 0.95649 0.0
C407 C 1.07866 0.47128 0.9828 0.0
C408 C 0.99034 0.5323 1.01342 0.0
C409 C 1.07939 0.60891 0.13422 0.0
C410 C 0.14641 0.53175 0.07663 0.0
C411 C 0.96559 0.70974 0.14532 0.0
C412 C 0.12158 0.69719 0.06749 0.0
C413 C 1.0751 0.66639 0.9237 0.0
C414 C 1.00252 0.74478 0.98978 0.0
O415 O 1.04683 0.46696 1.0128 0.0
O416 O 0.10403 0.50838 0.9723 0.0
O417 O 0.99915 0.56767 0.99355 0.0
O418 O 1.01999 0.52718 0.04663 0.0
Co419 Co 0.64655 0.51998 0.0658 0.0
Co420 Co 0.6343 0.52961 0.15608 0.0
Co421 Co 0.59198 0.58831 0.06667 0.0
O422 O 0.64029 0.56687 0.10179 0.0
H423 H 0.66842 0.58925 0.10818 0.0
O424 O 0.5452 0.61 1.02902 0.0
Co425 Co 0.52411 0.64884 0.06107 0.0
Co426 Co 0.55449 0.64926 0.97697 0.0
H427 H 0.52049 0.58679 1.01374 0.0
O428 O 0.68084 0.527 0.20812 0.0
O429 O 0.65611 0.48684 0.13359 0.0
O430 O 0.57332 0.51309 0.17129 0.0
O431 O 0.54385 0.55174 0.11676 0.0
O432 O 0.61313 0.63609 0.12038 0.0
O433 O 0.49578 0.67743 0.09343 0.0
O434 O 0.46805 0.61944 0.04 0.0
O435 O 0.5847 0.6833 0.08884 0.0
O436 O 0.64045 0.6241 1.01836 0.0
O437 O 0.61662 0.66856 0.9683 0.0
O438 O 0.52709 0.68783 0.99708 0.0
O439 O 0.51246 0.65232 0.91887 0.0
C440 C 0.69637 0.51041 0.03449 0.0
C441 C 0.55884 0.50298 1.02285 0.0
C442 C 0.54058 0.5241 0.15358 0.0
C443 C 0.68107 0.49509 0.18016 0.0
C444 C 0.462 0.64597 0.07235 0.0
C445 C 0.61601 0.67387 0.11486 0.0
C446 C 0.64704 0.65441 0.98555 0.0
C447 C 0.50798 0.68205 0.94749 0.0
O448 O 0.65684 0.48261 1.02868 0.0
O449 O 0.70538 0.54353 0.065 0.0
O450 O 0.56998 0.54106 1.01215 0.0
O451 O 0.58311 0.49087 0.05724 0.0
Co452 Co 0.19183 0.52527 0.6026 0.0
Co453 Co 0.17028 0.53462 0.50822 0.0
Co454 Co 0.10742 0.57381 0.58503 0.0
O455 O 0.1338 0.52734 0.56479 0.0
H456 H 0.11095 0.50032 0.56159 0.0
O457 O 0.0824 0.61972 0.61082 0.0
Co458 Co 1.02923 0.62722 0.57491 0.0
Co459 Co 1.04546 0.61326 0.66932 0.0
H460 H 0.10645 0.64595 0.61602 0.0
O461 O 0.16867 0.49089 0.46054 0.0
O462 O 0.22026 0.51716 0.53016 0.0
O463 O 0.18711 0.59108 0.48551 0.0
O464 O 0.14851 0.61955 0.53435 0.0
O465 O 1.05755 0.55372 0.52552 0.0
O466 O 0.98557 0.63788 0.53892 0.0
O467 O 1.04994 0.68299 0.57903 0.0
O468 O 1.002 0.56715 0.56142 0.0
O469 O 1.0672 0.52951 0.63352 0.0
O470 O 1.02685 0.55393 0.68616 0.0
O471 O 0.99537 0.63131 0.64564 0.0
O472 O 1.04273 0.65911 0.71665 0.0
C473 C 0.21737 0.48109 0.63864 0.0
C474 C 0.19643 0.60483 0.64049 0.0
C475 C 0.1772 0.62255 0.49875 0.0
C476 C 0.20639 0.49235 0.48579 0.0
C477 C 1.01077 0.67556 0.55305 0.0
C478 C 1.0158 0.54589 0.52913 0.0
C479 C 1.0385 0.5243 0.66875 0.0
C480 C 1.00619 0.65769 0.68859 0.0
O481 O 0.24068 0.5202 0.63996 0.0
O482 O 0.17761 0.46865 0.61188 0.0
O483 O 0.15485 0.59195 0.64427 0.0
O484 O 0.21397 0.58639 0.60862 0.0
Co485 Co 0.75995 1.05322 0.50569 0.0
Co486 Co 0.71612 1.05003 0.43927 0.0
Co487 Co 0.65805 0.06265 0.52245 0.0
O488 O 0.69572 1.03111 0.50354 0.0
H489 H 0.68136 1.00141 0.50146 0.0
O490 O 0.62435 0.09749 0.54176 0.0
Co491 Co 0.56559 0.08661 0.51489 0.0
Co492 Co 0.60574 0.09047 0.60859 0.0
H493 H 0.64189 0.12634 0.53979 0.0
O494 O 0.6957 1.01994 0.37697 0.0
O495 O 0.75734 1.02603 0.43441 0.0
O496 O 0.74456 0.10913 0.44348 0.0
O497 O 0.67732 0.10092 0.46319 0.0
O498 O 0.60541 1.02379 0.47339 0.0
O499 O 0.51028 0.08157 0.48861 0.0
O500 O 0.57202 0.1382 0.5044 0.0
O501 O 0.5536 1.03008 0.52165 0.0
O502 O 0.63887 1.02157 0.5786 0.0
O503 O 0.60072 1.03958 0.6376 0.0
O504 O 0.54955 0.09196 0.58838 0.0
O505 O 0.60365 0.13416 0.64744 0.0
C506 C 0.80915 1.02903 0.53019 0.0
C507 C 0.7448 0.10345 0.5942 0.0
C508 C 0.71724 0.12448 0.45976 0.0
C509 C 0.73251 1.01265 0.38942 0.0
C510 C 0.52997 0.1214 0.48825 0.0
C511 C 0.56504 1.01056 0.48594 0.0
C512 C 0.61389 1.01295 0.61631 0.0
C513 C 0.56495 0.12475 0.62053 0.0
O514 O 0.82075 0.06549 0.51083 0.0
O515 O 0.76799 1.01022 0.53745 0.0
O516 O 0.70585 0.10004 0.574 0.0
O517 O 0.76664 0.08287 0.57461 0.0
C518 C 0.2086 0.21436 0.37395 0.0
C519 C 0.25153 0.23451 0.40081 0.0
C520 C 0.17333 0.18685 0.39922 0.0
C521 C 0.17841 0.17655 0.45293 0.0
H522 H 0.20129 0.22096 0.33297 0.0
H523 H 0.14101 0.17416 0.37641 0.0
S524 S 0.28396 0.21767 0.5421 0.0
N525 N 0.29674 0.24014 0.48542 0.0
N526 N 0.23111 0.1878 0.53176 0.0
C527 C 0.22145 0.19481 0.48003 0.0
C528 C 0.25753 0.22376 0.45447 0.0
C529 C 0.9273 0.23628 0.37924 0.0
C530 C 0.90529 0.2555 0.41204 0.0
C531 C 0.95382 0.21203 0.39926 0.0
C532 C 0.96246 0.20547 0.45441 0.0
H533 H 0.92375 0.23962 0.33662 0.0
H534 H 0.96836 0.19845 0.37037 0.0
S535 S 0.91428 0.24852 0.56 0.0
N536 N 0.89495 0.26488 0.50485 0.0
N537 N 0.94496 0.22167 0.54164 0.0
C538 C 0.94109 0.22482 0.48804 0.0
C539 C 0.91293 0.2488 0.4674 0.0
C540 C 0.98192 0.90577 0.43487 0.0
C541 C 0.9697 0.9169 0.38366 0.0
C542 C 1.01802 0.93282 0.46865 0.0
C543 C 1.04247 0.97259 0.45304 0.0
H544 H 0.96309 0.87607 0.44909 0.0
H545 H 1.02557 0.92325 0.50807 0.0
S546 S 1.02391 1.01682 0.32324 0.0
N547 N 0.98578 0.97013 0.31887 0.0
N548 N 1.05198 1.02138 0.38264 0.0
C549 C 1.03079 0.98382 0.40177 0.0
C550 C 0.99493 0.95592 0.367 0.0
C551 C 0.33137 1.02628 0.48044 0.0
C552 C 0.33781 1.05316 0.43776 0.0
C553 C 0.29993 1.02546 0.51543 0.0
C554 C 0.27668 1.05318 0.51061 0.0
H555 H 0.3441 1.00087 0.4811 0.0
H556 H 0.29049 1.00044 0.54239 0.0
S557 S 0.29719 0.1412 0.4221 0.0
N558 N 0.32982 0.11627 0.40411 0.0
N559 N 0.27188 0.116 0.47193 0.0
C560 C 0.29047 0.086 0.47654 0.0
C561 C 0.32178 0.08625 0.4401 0.0
C562 C 0.25878 0.93189 0.7415 0.0
C563 C 0.27507 0.90744 0.70885 0.0
C564 C 0.2334 0.95664 0.72092 0.0
C565 C 0.22096 0.95887 0.66562 0.0
H566 H 0.26604 0.93236 0.78433 0.0
H567 H 0.22302 0.97424 0.74956 0.0
S568 S 0.25315 0.90061 0.56052 0.0
N569 N 0.27578 0.88783 0.61616 0.0
N570 N 0.22757 0.93232 0.57836 0.0
C571 C 0.23652 0.93424 0.63212 0.0
C572 C 0.26336 0.90944 0.65321 0.0
C573 C 0.23851 0.20972 0.69069 0.0
C574 C 0.23554 0.24318 0.72088 0.0
C575 C 0.20218 0.18461 0.65575 0.0
C576 C 0.1619 0.19277 0.64784 0.0
H577 H 0.26874 0.2022 0.69501 0.0
H578 H 0.2057 0.15848 0.63472 0.0
S579 S 0.13704 0.27725 0.71552 0.0
N580 N 0.18853 0.28319 0.73971 0.0
N581 N 0.1215 0.23704 0.67275 0.0
C582 C 0.15888 0.22673 0.67653 0.0
C583 C 0.19531 0.2516 0.71328 0.0
C584 C 0.93424 0.11225 0.74832 0.0
C585 C 0.93743 0.15004 0.77288 0.0
C586 C 0.94444 0.11076 0.69551 0.0
C587 C 0.95818 0.14704 0.66674 0.0
H588 H 0.92651 0.08451 0.77081 0.0
H589 H 0.9458 0.08203 0.67912 0.0
S590 S 0.96616 0.25223 0.71208 0.0
N591 N 0.95079 0.22338 0.76336 0.0
N592 N 0.9699 0.22041 0.66479 0.0
C593 C 0.95787 0.18406 0.6898 0.0
C594 C 0.94777 0.18564 0.74297 0.0
C595 C 0.95189 0.91085 0.67597 0.0
C596 C 0.94513 0.92146 0.72794 0.0
C597 C 0.98134 0.93942 0.64448 0.0
C598 C 1.00565 0.98066 0.66274 0.0
H599 H 0.93606 0.87928 0.66053 0.0
H600 H 0.98683 0.92839 0.60626 0.0
S601 S 1.00141 1.0249 0.79632 0.0
N602 N 0.96619 0.97697 0.79616 0.0
N603 N 1.02115 1.03005 0.73762 0.0
C604 C 0.99888 0.99191 0.71445 0.0
C605 C 0.96903 0.96265 0.74675 0.0
C606 C 0.45743 0.264 0.24929 0.0
C607 C 0.41129 0.2582 0.23824 0.0
C608 C 0.48043 0.24269 0.21969 0.0
C609 C 0.45951 0.21272 0.17688 0.0
H610 H 0.47667 0.28614 0.28088 0.0
H611 H 0.5157 0.25003 0.23096 0.0
S612 S 0.33901 0.18427 0.12977 0.0
N613 N 0.34602 0.21891 0.17876 0.0
N614 N 0.38797 0.17908 0.12612 0.0
C615 C 0.41326 0.20606 0.16585 0.0
C616 C 0.38992 0.22843 0.19526 0.0
C617 C 0.99539 0.56494 0.22441 0.0
C618 C 1.01698 0.54102 0.25274 0.0
C619 C 1.01884 0.59517 0.19175 0.0
C620 C 1.06409 0.60209 0.18759 0.0
H621 H 0.95945 0.55547 0.2189 0.0
H622 H 0.99972 0.60723 0.16299 0.0
S623 S 0.13864 0.56628 0.28007 0.0
N624 N 0.08787 0.53996 0.29462 0.0
N625 N 0.13259 0.5972 0.23262 0.0
C626 C 0.08767 0.5875 0.22768 0.0
C627 C 1.06365 0.55666 0.26103 0.0
C628 C 0.76799 1.0022 0.10662 0.0
C629 C 0.77786 0.96793 0.08824 0.0
C630 C 0.72424 1.00113 0.1054 0.0
C631 C 0.68881 0.9666 0.08316 0.0
H632 H 0.79425 1.03019 0.12231 0.0
H633 H 0.71827 1.02848 0.11944 0.0
S634 S 0.69534 0.86849 0.03038 0.0
N635 N 0.74741 0.897 0.05018 0.0
N636 N 0.66518 0.89744 0.04251 0.0
C637 C 0.69761 0.93231 0.06385 0.0
C638 C 0.74219 0.93248 0.06734 0.0
C639 C 0.20914 0.77827 0.16121 0.0
C640 C 0.24172 0.76034 0.17619 0.0
C641 C 0.17273 0.75889 0.12336 0.0
C642 C 0.16608 0.71997 0.09844 0.0
H643 H 0.21127 0.80767 0.17928 0.0
H644 H 0.14872 0.77434 0.11499 0.0
S645 S 0.24335 0.66075 0.11965 0.0
N646 N 0.2663 0.7022 0.16004 0.0
N647 N 0.19761 0.6655 0.08939 0.0
C648 C 0.19927 0.70224 0.11137 0.0
C649 C 0.2369 0.72235 0.14996 0.0
C650 C 0.44647 0.97053 0.86615 0.0
C651 C 0.45718 0.94473 0.82965 0.0
C652 C 0.47904 0.99762 0.90329 0.0
C653 C 0.52376 1.00038 0.90498 0.0
H654 H 0.41219 0.96824 0.8682 0.0
H655 H 0.4687 1.01489 0.9324 0.0
S656 S 0.5705 0.94451 0.81231 0.0
N657 N 0.5164 0.92638 0.79498 0.0
N658 N 0.57794 0.97931 0.861 0.0
C659 C 0.53542 0.97747 0.86535 0.0
C660 C 0.50212 0.94918 0.82866 0.0
C661 C 0.13433 0.40589 0.91625 0.0
C662 C 0.1154 0.36691 0.93742 0.0
C663 C 0.12087 0.43905 0.92936 0.0
C664 C 0.08788 0.43444 0.964 0.0
H665 H 0.162 0.4117 0.89239 0.0
H666 H 0.1379 0.46892 0.91401 0.0
S667 S 1.02318 0.33667 1.02321 0.0
N668 N 1.05871 0.32408 0.98943 0.0
N669 N 1.03287 0.38628 1.01425 0.0
C670 C 1.06627 0.39471 0.98216 0.0
C671 C 1.08019 0.36098 0.96884 0.0
C672 C 0.74701 0.20295 0.92129 0.0
C673 C 0.74798 0.23918 0.89416 0.0
C674 C 0.70913 0.17832 0.94647 0.0
C675 C 0.66967 0.18825 0.94591 0.0
H676 H 0.77601 0.19351 0.92349 0.0
H677 H 0.71106 0.15143 0.96694 0.0
S678 S 0.65336 0.27884 0.87831 0.0
N679 N 0.70436 0.28242 0.86771 0.0
N680 N 0.63477 0.2374 0.91324 0.0
C681 C 0.67026 0.22416 0.91811 0.0
C682 C 0.70863 0.24908 0.89292 0.0
C683 C 1.03289 0.83222 0.09137 0.0
C684 C 1.00326 0.82292 0.13108 0.0
C685 C 1.02184 0.81134 0.04022 0.0
C686 C 0.98936 0.77161 1.02813 0.0
H687 H 1.05894 0.86226 0.09433 0.0
H688 H 1.04358 0.82505 1.01002 0.0
S689 S 1.03097 0.69741 0.1626 0.0
N690 N 1.02114 0.76 0.18928 0.0
N691 N 0.97977 0.7032 0.0671 0.0
C692 C 0.96899 0.7492 0.07095 0.0
C693 C 0.99008 0.78084 0.14049 0.0
C694 C 0.19478 0.44848 0.05504 0.0
C695 C 0.17884 0.42195 0.09613 0.0
C696 C 0.18503 0.48484 0.0496 0.0
C697 C 0.1582 0.49492 0.08427 0.0
H698 H 0.21563 0.44147 1.0277 0.0
H699 H 0.19787 0.50478 1.01765 0.0
S700 S 0.10949 0.4368 0.19888 0.0
N701 N 0.13651 0.40927 0.17324 0.0
N702 N 0.11603 0.47658 0.16063 0.0
C703 C 0.14118 0.46837 0.12454 0.0
C704 C 0.15192 0.43195 0.13096 0.0
C705 C 0.19629 0.68702 0.96835 0.0
C706 C 0.21147 0.72888 0.9861 0.0
C707 C 0.15325 0.66803 0.94318 0.0
C708 C 0.12293 0.68933 0.93768 0.0
H709 H 0.21774 0.66868 0.97389 0.0
H710 H 0.1436 0.63639 0.92837 0.0
S711 S 0.14869 0.80184 0.96493 0.0
N712 N 0.19496 0.79331 0.98499 0.0
N713 N 0.11318 0.75641 0.94268 0.0
C714 C 0.13859 0.73201 0.95084 0.0
C715 C 0.18284 0.75185 0.97459 0.0
C716 C 0.4323 0.22858 0.87946 0.0
C717 C 0.41438 0.2543 0.90654 0.0
C718 C 0.45842 0.2077 0.90657 0.0
C719 C 0.46926 0.21153 0.96267 0.0
H720 H 0.42578 0.22406 0.83653 0.0
H721 H 0.47042 0.18819 0.88267 0.0
S722 S 0.43302 0.27674 0.05344 0.0
N723 N 0.41084 0.28327 0.99389 0.0
N724 N 0.46039 0.24474 0.04411 0.0
C725 C 0.45251 0.23791 0.99044 0.0
C726 C 0.42508 0.25887 0.96275 0.0
C727 C 0.92625 0.41919 0.97155 0.0
C728 C 0.90802 0.42102 0.91907 0.0
C729 C 0.95003 0.45534 1.00301 0.0
C730 C 0.95743 0.49505 0.9832 0.0
H731 H 0.92339 0.38962 0.9881 0.0
H732 H 0.96436 0.45204 0.04257 0.0
S733 S 0.91088 0.51717 0.85116 0.0
N734 N 0.89467 0.46627 0.85098 0.0
N735 N 0.93951 0.53373 0.90969 0.0
C736 C 0.93665 0.49733 0.93217 0.0
C737 C 0.91218 0.46052 0.9002 0.0
C738 C 0.79793 0.93899 0.91904 0.0
C739 C 0.77845 0.90422 0.88171 0.0
C740 C 0.77371 0.96374 0.94062 0.0
C741 C 0.72733 0.95658 0.92675 0.0
H742 H 0.8331 0.94767 0.93191 0.0
H743 H 0.79209 0.98917 0.96864 0.0
S744 S 0.6581 0.87025 0.83034 0.0
N745 N 0.70766 0.86543 0.83248 0.0
N746 N 0.6638 0.91012 0.87091 0.0
C747 C 0.70765 0.92216 0.88898 0.0
C748 C 0.73225 0.89699 0.86731 0.0
C749 C 0.86892 0.73419 0.19364 0.0
C750 C 0.88462 0.74844 0.24691 0.0
C751 C 0.89399 0.71899 0.1624 0.0
C752 C 0.93506 0.71739 0.18369 0.0
H753 H 0.84019 0.73988 0.17399 0.0
H754 H 0.8832 0.71211 0.12029 0.0
S755 S 0.9763 0.72794 0.32763 0.0
N756 N 0.93437 0.7457 0.32415 0.0
N757 N 0.97903 0.7123 0.26625 0.0
C758 C 0.94487 0.72131 0.23979 0.0
C759 C 0.9202 0.73838 0.27139 0.0
C760 C 0.4538 0.9019 0.16064 0.0
C761 C 0.43284 0.91485 0.20074 0.0
C762 C 0.48255 0.93004 0.12775 0.0
C763 C 0.49359 0.97388 0.13223 0.0
H764 H 0.44779 0.86921 0.15402 0.0
H765 H 0.49669 0.91661 0.09824 0.0
S766 S 0.44886 1.02568 0.23169 0.0
N767 N 0.42599 0.97608 0.24295 0.0
N768 N 0.48007 1.02822 0.18241 0.0
C769 C 0.47311 0.98755 0.17252 0.0
C770 C 0.44307 0.95856 0.20598 0.0
C771 C 0.68672 0.24288 0.23618 0.0
C772 C 0.72979 0.24036 0.24205 0.0
C773 C 0.65313 0.21775 0.19794 0.0
C774 C 0.66043 0.18804 0.16438 0.0
H775 H 0.67922 0.26556 0.26004 0.0
H776 H 0.62098 0.22176 0.19463 0.0
S777 S 0.76652 0.16712 0.16532 0.0
N778 N 0.77738 0.20465 0.21151 0.0
N779 N 0.71406 0.15676 0.14132 0.0
C780 C 0.70288 0.18416 0.17105 0.0
C781 C 0.73749 0.21044 0.20924 0.0
C782 C 0.72522 0.69921 0.87975 0.0
C783 C 0.76192 0.73042 0.90744 0.0
C784 C 0.69061 0.67212 0.90623 0.0
C785 C 0.6906 0.67402 0.96214 0.0
H786 H 0.72212 0.69648 0.83665 0.0
H787 H 0.66217 0.6507 0.8822 0.0
S788 S 0.77912 0.74818 0.05505 0.0
N789 N 0.79639 0.75993 0.99567 0.0
N790 N 0.73149 0.70921 0.04467 0.0
C791 C 0.72784 0.70369 0.99084 0.0
C792 C 0.76331 0.73161 0.96383 0.0
C793 C 0.45225 0.73468 0.83746 0.0
C794 C 0.44008 0.76491 0.8646 0.0
C795 C 0.47336 0.70871 0.86435 0.0
C796 C 0.48491 0.71126 0.92054 0.0
H797 H 0.44453 0.73027 0.79464 0.0
H798 H 0.48086 0.6862 0.84022 0.0
S799 S 0.46352 0.78688 1.01147 0.0
N800 N 0.44296 0.79604 0.95236 0.0
N801 N 0.48325 0.74913 1.00163 0.0
C802 C 0.47383 0.74204 0.9481 0.0
C803 C 0.45148 0.76801 0.92076 0.0
C804 C 0.48719 0.40953 0.93256 0.0
C805 C 0.44739 0.41786 0.91977 0.0
C806 C 0.52241 0.4361 0.96773 0.0
C807 C 0.51967 0.47262 0.99042 0.0
H808 H 0.491 0.382 0.91565 0.0
H809 H 0.55247 0.42864 0.97591 0.0
S810 S 0.42236 0.50807 0.97073 0.0
N811 N 0.40702 0.46454 0.93407 0.0
N812 N 0.47313 0.51476 0.99824 0.0
C813 C 0.47993 0.481 0.97801 0.0
C814 C 0.44381 0.45356 0.94335 0.0
C815 C 0.74528 0.44988 0.95735 0.0
C816 C 0.75999 0.4755 0.91473 0.0
C817 C 0.73088 0.46413 1.00109 0.0
C818 C 0.72921 0.50404 1.00323 0.0
H819 H 0.74189 0.41748 0.95565 0.0
H820 H 0.71671 0.44239 0.03084 0.0
S821 S 0.76875 0.58531 0.90657 0.0
N822 N 0.77721 0.54452 0.88091 0.0
N823 N 0.74716 0.57087 0.96314 0.0
C824 C 0.74677 0.53128 0.96352 0.0
C825 C 0.76237 0.5169 0.91881 0.0
C826 C 0.74594 0.41451 0.19999 0.0
C827 C 0.75777 0.41505 0.25612 0.0
C828 C 0.72098 0.43893 0.17574 0.0
C829 C 0.70658 0.46664 0.20549 0.0
H830 H 0.75574 0.39455 0.17411 0.0
H831 H 0.71351 0.43641 0.13285 0.0
S832 S 0.7283 0.48109 0.35377 0.0
N833 N 0.75163 0.44672 0.33999 0.0
N834 N 0.70724 0.49197 0.296 0.0
C835 C 0.71853 0.46752 0.26153 0.0
C836 C 0.74309 0.44224 0.2861 0.0
C837 C 0.70298 0.78097 0.15976 0.0
C838 C 0.73599 0.77064 0.19119 0.0
C839 C 0.66422 0.74984 0.1352 0.0
C840 C 0.65708 0.70721 0.14098 0.0
H841 H 0.70631 0.81315 0.15566 0.0
H842 H 0.63951 0.7593 0.11199 0.0
S843 S 0.73667 0.66461 0.21507 0.0
N844 N 0.76064 0.71514 0.2234 0.0
N845 N 0.68926 0.65741 0.17827 0.0
C846 C 0.69112 0.69701 0.17084 0.0
C847 C 0.73005 0.72844 0.19556 0.0
C848 C 0.36788 0.58877 0.14841 0.0
C849 C 0.35579 0.62146 0.16757 0.0
C850 C 0.39885 0.59582 0.11095 0.0
C851 C 0.41845 0.63571 0.09242 0.0
H852 H 0.3589 0.55977 0.16826 0.0
H853 H 0.41166 0.57138 0.10202 0.0
S854 S 0.38554 0.7269 0.11517 0.0
N855 N 0.35566 0.69142 0.15292 0.0
N856 N 0.41526 0.70462 0.08437 0.0
C857 C 0.40073 0.66623 0.10382 0.0
C858 C 0.36827 0.65879 0.14052 0.0
C859 C 0.46854 0.47084 0.26318 0.0
C860 C 0.42965 0.44195 0.23598 0.0
C861 C 0.50158 0.49981 0.23614 0.0
C862 C 0.4982 0.50234 0.17994 0.0
H863 H 0.47458 0.4702 0.30605 0.0
H864 H 0.53156 0.51927 0.25967 0.0
S865 S 0.40293 0.43493 0.08852 0.0
N866 N 0.38947 0.41926 0.14821 0.0
N867 N 0.45141 0.47286 0.09834 0.0
C868 C 0.45874 0.47482 0.15223 0.0
C869 C 0.42477 0.44512 0.17981 0.0
C870 C 0.97636 0.74961 0.76199 0.0
C871 C 0.92905 0.74007 0.75598 0.0
C872 C 0.99934 0.72381 0.74018 0.0
C873 C 0.978 0.6852 0.70999 0.0
H874 H 0.9966 0.77811 0.78364 0.0
H875 H 1.03529 0.73484 0.74729 0.0
S876 S 0.85377 0.64056 0.68734 0.0
N877 N 0.86198 0.68543 0.71854 0.0
N878 N 0.90354 0.63763 0.68221 0.0
C879 C 0.93049 0.67432 0.70575 0.0
C880 C 0.90704 0.70111 0.72687 0.0
C881 C 0.54925 0.9104 0.55344 0.0
C882 C 0.50753 0.90556 0.57044 0.0
C883 C 0.58753 0.94135 0.57691 0.0
C884 C 0.58489 0.96922 0.61703 0.0
H885 H 0.55199 0.89171 0.51998 0.0
H886 H 0.61818 0.94652 0.5589 0.0
S887 S 0.48587 0.96011 0.68727 0.0
N888 N 0.46791 0.9235 0.63955 0.0
N889 N 0.53952 0.98222 0.68238 0.0
C890 C 0.54478 0.95987 0.64027 0.0
C891 C 0.50593 0.92847 0.61654 0.0
C892 C 0.30281 0.43359 0.69968 0.0
C893 C 0.28001 0.40577 0.73677 0.0
C894 C 0.28209 0.45678 0.66756 0.0
C895 C 0.23685 0.45243 0.66897 0.0
H896 H 0.33745 0.43815 0.69593 0.0
H897 H 0.30191 0.47859 0.64136 0.0
S898 S 0.16159 0.38536 0.75913 0.0
N899 N 0.20896 0.37689 0.77352 0.0
N900 N 0.17026 0.41881 0.71158 0.0
C901 C 0.2134 0.42455 0.70513 0.0
C902 C 0.23479 0.40178 0.7392 0.0
C903 C 0.83352 0.18164 0.69112 0.0
C904 C 0.81132 0.20799 0.70434 0.0
C905 C 0.81126 0.14691 0.65724 0.0
C906 C 0.76625 0.1375 0.6365 0.0
H907 H 0.86796 0.18838 0.70542 0.0
H908 H 0.82972 0.12758 0.64574 0.0
S909 S 0.68546 0.20353 0.66798 0.0
N910 N 0.73816 0.2168 0.69409 0.0
N911 N 0.7362 0.19609 0.67671 0.0
C912 C 0.73895 0.16105 0.64877 0.0
C913 C 0.76252 0.19558 0.68274 0.0
C914 C 0.96615 0.46422 0.41361 0.0
C915 C 0.92368 0.44131 0.42787 0.0
C916 C 0.99541 0.49789 0.44636 0.0
C917 C 0.98301 0.51109 0.49396 0.0
H918 H 0.97743 0.4553 0.37777 0.0
H919 H 1.02813 0.51373 0.43411 0.0
S920 S 0.8734 0.46385 0.54605 0.0
N921 N 0.86996 0.43537 0.49163 0.0
N922 N 0.92337 0.49967 0.55088 0.0
C923 C 0.93974 0.48949 0.50709 0.0
C924 C 0.9106 0.45442 0.47476 0.0
C925 C 0.81047 0.97408 0.32094 0.0
C926 C 0.78351 0.93337 0.30508 0.0
C927 C 0.79272 1.00081 0.34504 0.0
C928 C 0.7474 0.98796 0.35285 0.0
H929 H 0.84607 0.98437 0.31862 0.0
H930 H 0.81508 1.03097 0.36036 0.0
S931 S 0.66151 0.88717 0.30939 0.0
N932 N 0.70839 0.88319 0.29238 0.0
N933 N 0.67487 0.93417 0.33692 0.0
C934 C 0.71929 0.94888 0.33245 0.0
C935 C 0.73747 0.9213 0.30873 0.0
C936 C 0.26555 0.69633 0.41407 0.0
C937 C 0.25584 0.73328 0.40741 0.0
C938 C 0.24065 0.663 0.44389 0.0
C939 C 0.20329 0.66286 0.47048 0.0
H940 H 0.29304 0.69254 0.39542 0.0
H941 H 0.25141 0.63641 0.44568 0.0
S942 S 0.16244 0.75211 0.46854 0.0
N943 N 0.20501 0.76752 0.43231 0.0
N944 N 0.15879 0.7054 0.48784 0.0
C945 C 0.19318 0.69992 0.46519 0.0
C946 C 0.21889 0.73444 0.43415 0.0
C947 C 0.51042 0.21935 0.45956 0.0
C948 C 0.47449 0.21643 0.48906 0.0
C949 C 0.52535 0.18621 0.45429 0.0
C950 C 0.50461 0.14888 0.47774 0.0
H951 H 0.5282 0.24791 0.44169 0.0
H952 H 0.55486 0.19056 0.43424 0.0
S953 S 0.40364 0.12184 0.549 0.0
N954 N 0.4141 0.17067 0.53462 0.0
N955 N 0.44256 0.108 0.5242 0.0
C956 C 0.46573 0.14368 0.50206 0.0
C957 C 0.45055 0.17767 0.50792 0.0
C958 C 0.83188 0.93571 0.49955 0.0
C959 C 0.84072 0.92421 0.55132 0.0
C960 C 0.83156 0.97566 0.49068 0.0
C961 C 0.83823 1.00432 0.53362 0.0
H962 H 0.82044 0.91265 0.46693 0.0
H963 H 0.81912 0.98181 0.45146 0.0
S964 S 0.87258 0.99184 0.67441 0.0
N965 N 0.86554 0.94692 0.64411 0.0
N966 N 0.8622 1.02134 0.62747 0.0
C967 C 0.85341 0.99507 0.58399 0.0
C968 C 0.85506 0.95485 0.5929 0.0
C969 C 0.78614 0.21376 0.55382 0.0
C970 C 0.7582 0.2375 0.55672 0.0
C971 C 0.77445 0.17889 0.51906 0.0
C972 C 0.73348 0.16541 0.48725 0.0
H973 H 0.81736 0.2221 0.57888 0.0
H974 H 0.79666 0.1612 0.51924 0.0
S975 S 0.65169 0.21904 0.4698 0.0
N976 N 0.68952 0.24667 0.51687 0.0
N977 N 0.66786 0.18024 0.45409 0.0
C978 C 0.70599 0.18913 0.4875 0.0
C979 C 0.71795 0.22507 0.52194 0.0
C980 C 0.92534 0.72224 0.57917 0.0
C981 C 0.93306 0.75507 0.54482 0.0
C982 C 0.95152 0.69741 0.58091 0.0
C983 C 0.98904 0.70652 0.55311 0.0
H984 H 0.89656 0.71337 0.60146 0.0
H985 H 0.94094 0.66924 0.60183 0.0
S986 S 1.02781 0.79146 0.46185 0.0
N987 N 0.98245 0.79635 0.48257 0.0
N988 N 1.03523 0.7519 0.49278 0.0
C989 C 1.00013 0.74132 0.52233 0.0
C990 C 0.9716 0.76547 0.51726 0.0
C991 C 0.44799 0.93884 0.43526 0.0
C992 C 0.45459 0.908 0.40357 0.0
C993 C 0.48386 0.9711 0.46139 0.0
C994 C 0.52861 0.97494 0.45676 0.0
H995 H 0.41465 0.93835 0.44003 0.0
H996 H 0.47603 0.99362 0.48513 0.0
S997 S 0.56496 0.902 0.37978 0.0
N998 N 0.51007 0.88288 0.37013 0.0
N999 N 0.57738 0.94421 0.41858 0.0
C1000 C 0.53599 0.94437 0.42535 0.0
C1001 C 0.49917 0.91087 0.39908 0.0
C1002 C 0.23819 0.42193 0.38078 0.0
C1003 C 0.28004 0.41904 0.40015 0.0
C1004 C 0.21608 0.44508 0.40844 0.0
C1005 C 0.23336 0.46779 0.45837 0.0
H1006 H 0.22177 0.40582 0.34339 0.0
H1007 H 0.1843 0.44496 0.38975 0.0
S1008 S 0.34182 0.47143 0.52923 0.0
N1009 N 0.33747 0.44221 0.47512 0.0
N1010 N 0.29675 0.48461 0.52532 0.0
C1011 C 0.27523 0.46527 0.47838 0.0
C1012 C 0.29792 0.44156 0.45016 0.0
C1013 C 0.48037 0.17304 0.65306 0.0
C1014 C 0.50058 0.21434 0.63936 0.0
C1015 C 0.50025 0.14322 0.64472 0.0
C1016 C 0.54113 0.1541 0.62323 0.0
H1017 H 0.44956 0.16391 0.67151 0.0
H1018 H 0.48438 0.11197 0.65677 0.0
S1019 S 0.60611 0.25677 0.57752 0.0
N1020 N 0.56224 0.26338 0.5998 0.0
N1021 N 0.6003 0.20784 0.58634 0.0
C1022 C 0.56115 0.19482 0.60841 0.0
C1023 C 0.54071 0.22486 0.61596 0.0
C1024 C 0.94062 0.42548 0.69126 0.0
C1025 C 0.95778 0.40408 0.73033 0.0
C1026 C 0.9673 0.46302 0.671 0.0
C1027 C 1.01328 0.48125 0.68685 0.0
H1028 H 0.9055 0.41402 0.6773 0.0
H1029 H 0.95133 0.47857 0.64332 0.0
S1030 S 1.07638 0.43872 0.78726 0.0
N1031 N 1.02512 0.40513 0.78402 0.0
N1032 N 1.07502 0.47442 0.7445 0.0
C1033 C 1.03146 0.45998 0.72492 0.0
C1034 C 1.00396 0.42196 0.74676 0.0
C1035 C 0.29287 0.69804 0.70089 0.0
C1036 C 0.27372 0.71565 0.73889 0.0
C1037 C 0.26823 0.66209 0.67 0.0
C1038 C 0.22323 0.64176 0.67571 0.0
H1039 H 0.32736 0.71256 0.69373 0.0
H1040 H 0.28448 0.65064 0.64083 0.0
S1041 S 0.15785 0.67297 0.7729 0.0
N1042 N 0.20771 0.7088 0.78227 0.0
N1043 N 0.16082 0.64079 0.72554 0.0
C1044 C 0.20382 0.65833 0.71492 0.0
C1045 C 0.22911 0.6953 0.74607 0.0
loop_
_geom_bond_atom_site_label_1
_geom_bond_atom_site_label_2
_geom_bond_distance
_geom_bond_site_symmetry_2
_ccdc_geom_bond_type
Dy0 O3 2.307 . S
Dy0 O5 2.395 . S
Dy0 O6 2.379 . S
Dy0 O8 2.339 . S
Dy0 O10 2.298 . S
Dy0 O14 2.275 . S
Dy0 C22 2.738 . S
Dy1 O4 2.298 . S
Dy1 O7 2.275 . S
Dy1 O9 2.307 . S
Dy1 O11 2.395 . S
Dy1 O12 2.379 . S
Dy1 O15 2.339 . S
Dy1 C31 2.738 . S
C2 O14 1.254 . S
C2 O15 1.257 . S
O3 Dy0 2.307 . S
O3 C13 1.266 . S
O4 Dy1 2.298 . S
O4 C13 1.236 . S
O5 Dy0 2.395 . S
O5 C22 1.255 . S
O6 Dy0 2.379 . S
O6 C22 1.249 . S
O7 Dy1 2.275 . S
O7 C23 1.254 . S
O8 Dy0 2.339 . S
O8 C23 1.257 . S
O9 Dy1 2.307 . S
O9 C24 1.266 . S
O10 Dy0 2.298 . S
O10 C24 1.236 . S
O11 Dy1 2.395 . S
O11 C31 1.255 . S
O12 Dy1 2.379 . S
O12 C31 1.249 . S
C13 O3 1.266 . S
C13 O4 1.236 . S
O14 Dy0 2.275 . S
O14 C2 1.254 . S
O15 Dy1 2.339 . S
O15 C2 1.257 . S
C16 C19 1.344 . S
C16 C20 1.328 . S
C16 C22 1.516 . S
C17 C18 1.304 . S
C17 C21 1.323 . S
C18 C17 1.304 . S
C18 C19 1.371 . S
C18 H32 0.930 . S
C19 C16 1.344 . S
C19 C18 1.371 . S
C19 H33 0.931 . S
C20 C16 1.328 . S
C20 C21 1.433 . S
C20 H34 0.931 . S
C21 C17 1.323 . S
C21 C20 1.433 . S
C21 H35 0.933 . S
C22 Dy0 2.738 . S
C22 O5 1.255 . S
C22 O6 1.249 . S
C22 C16 1.516 . S
C23 O7 1.254 . S
C23 O8 1.257 . S
C24 O9 1.266 . S
C24 O10 1.236 . S
C25 C28 1.344 . S
C25 C29 1.328 . S
C25 C31 1.516 . S
C26 C27 1.304 . S
C26 C30 1.323 . S
C27 C26 1.304 . S
C27 C28 1.371 . S
C27 H36 0.930 . S
C28 C25 1.344 . S
C28 C27 1.371 . S
C28 H37 0.931 . S
C29 C25 1.328 . S
C29 C30 1.433 . S
C29 H38 0.931 . S
C30 C26 1.323 . S
C30 C29 1.433 . S
C30 H39 0.933 . S
C31 Dy1 2.738 . S
C31 O11 1.255 . S
C31 O12 1.249 . S
C31 C25 1.516 . S
H32 C18 0.930 . S
H33 C19 0.931 . S
H34 C20 0.931 . S
H35 C21 0.933 . S
H36 C27 0.930 . S
H37 C28 0.931 . S
H38 C29 0.931 . S
H39 C30 0.933 . S
Dy40 O43 2.307 . S
Dy40 O45 2.395 . S
Dy40 O46 2.379 . S
Dy40 O48 2.339 . S
Dy40 O50 2.298 . S
Dy40 O54 2.275 . S
Dy40 C62 2.738 . S
Dy41 O44 2.298 . S
Dy41 O47 2.275 . S
Dy41 O49 2.307 . S
Dy41 O51 2.395 . S
Dy41 O52 2.379 . S
Dy41 O55 2.339 . S
Dy41 C71 2.738 . S
C42 O54 1.254 . S
C42 O55 1.257 . S
O43 Dy40 2.307 . S
O43 C53 1.266 . S
O44 Dy41 2.298 . S
O44 C53 1.236 . S
O45 Dy40 2.395 . S
O45 C62 1.255 . S
O46 Dy40 2.379 . S
O46 C62 1.249 . S
O47 Dy41 2.275 . S
O47 C63 1.254 . S
O48 Dy40 2.339 . S
O48 C63 1.257 . S
O49 Dy41 2.307 . S
O49 C64 1.266 . S
O50 Dy40 2.298 . S
O50 C64 1.236 . S
O51 Dy41 2.395 . S
O51 C71 1.255 . S
O52 Dy41 2.379 . S
O52 C71 1.249 . S
C53 O43 1.266 . S
C53 O44 1.236 . S
O54 Dy40 2.275 . S
O54 C42 1.254 . S
O55 Dy41 2.339 . S
O55 C42 1.257 . S
C56 C59 1.344 . S
C56 C60 1.328 . S
C56 C62 1.516 . S
C57 C58 1.304 . S
C57 C61 1.323 . S
C58 C57 1.304 . S
C58 C59 1.371 . S
C58 H72 0.930 . S
C59 C56 1.344 . S
C59 C58 1.371 . S
C59 H73 0.931 . S
C60 C56 1.328 . S
C60 C61 1.433 . S
C60 H74 0.931 . S
C61 C57 1.323 . S
C61 C60 1.433 . S
C61 H75 0.933 . S
C62 Dy40 2.738 . S
C62 O45 1.255 . S
C62 O46 1.249 . S
C62 C56 1.516 . S
C63 O47 1.254 . S
C63 O48 1.257 . S
C64 O49 1.266 . S
C64 O50 1.236 . S
C65 C68 1.344 . S
C65 C69 1.328 . S
C65 C71 1.516 . S
C66 C67 1.304 . S
C66 C70 1.323 . S
C67 C66 1.304 . S
C67 C68 1.371 . S
C67 H76 0.930 . S
C68 C65 1.344 . S
C68 C67 1.371 . S
C68 H77 0.931 . S
C69 C65 1.328 . S
C69 C70 1.433 . S
C69 H78 0.931 . S
C70 C66 1.323 . S
C70 C69 1.433 . S
C70 H79 0.933 . S
C71 Dy41 2.738 . S
C71 O51 1.255 . S
C71 O52 1.249 . S
C71 C65 1.516 . S
H72 C58 0.930 . S
H73 C59 0.931 . S
H74 C60 0.931 . S
H75 C61 0.933 . S
H76 C67 0.930 . S
H77 C68 0.931 . S
H78 C69 0.931 . S
H79 C70 0.933 . S
Dy80 O83 2.307 . S
Dy80 O85 2.395 . S
Dy80 O86 2.379 . S
Dy80 O88 2.339 . S
Dy80 O90 2.298 . S
Dy80 O94 2.275 . S
Dy80 C102 2.738 . S
Dy81 O84 2.298 . S
Dy81 O87 2.275 . S
Dy81 O89 2.307 . S
Dy81 O91 2.395 . S
Dy81 O92 2.379 . S
Dy81 O95 2.339 . S
Dy81 C111 2.738 . S
C82 O94 1.254 . S
C82 O95 1.257 . S
O83 Dy80 2.307 . S
O83 C93 1.266 . S
O84 Dy81 2.298 . S
O84 C93 1.236 . S
O85 Dy80 2.395 . S
O85 C102 1.255 . S
O86 Dy80 2.379 . S
O86 C102 1.249 . S
O87 Dy81 2.275 . S
O87 C103 1.254 . S
O88 Dy80 2.339 . S
O88 C103 1.257 . S
O89 Dy81 2.307 . S
O89 C104 1.266 . S
O90 Dy80 2.298 . S
O90 C104 1.236 . S
O91 Dy81 2.395 . S
O91 C111 1.255 . S
O92 Dy81 2.379 . S
O92 C111 1.249 . S
C93 O83 1.266 . S
C93 O84 1.236 . S
O94 Dy80 2.275 . S
O94 C82 1.254 . S
O95 Dy81 2.339 . S
O95 C82 1.257 . S
C96 C99 1.344 . S
C96 C100 1.328 . S
C96 C102 1.516 . S
C97 C98 1.304 . S
C97 C101 1.323 . S
C98 C97 1.304 . S
C98 C99 1.371 . S
C98 H112 0.930 . S
C99 C96 1.344 . S
C99 C98 1.371 . S
C99 H113 0.931 . S
C100 C96 1.328 . S
C100 C101 1.433 . S
C100 H114 0.931 . S
C101 C97 1.323 . S
C101 C100 1.433 . S
C101 H115 0.933 . S
C102 Dy80 2.738 . S
C102 O85 1.255 . S
C102 O86 1.249 . S
C102 C96 1.516 . S
C103 O87 1.254 . S
C103 O88 1.257 . S
C104 O89 1.266 . S
C104 O90 1.236 . S
C105 C108 1.344 . S
C105 C109 1.328 . S
C105 C111 1.516 . S
C106 C107 1.304 . S
C106 C110 1.323 . S
C107 C106 1.304 . S
C107 C108 1.371 . S
C107 H116 0.930 . S
C108 C105 1.344 . S
C108 C107 1.371 . S
C108 H117 0.931 . S
C109 C105 1.328 . S
C109 C110 1.433 . S
C109 H118 0.931 . S
C110 C106 1.323 . S
C110 C109 1.433 . S
C110 H119 0.933 . S
C111 Dy81 2.738 . S
C111 O91 1.255 . S
C111 O92 1.249 . S
C111 C105 1.516 . S
H112 C98 0.930 . S
H113 C99 0.931 . S
H114 C100 0.931 . S
H115 C101 0.933 . S
H116 C107 0.930 . S
H117 C108 0.931 . S
H118 C109 0.931 . S
H119 C110 0.933 . S
Dy120 O123 2.307 . S
Dy120 O125 2.395 . S
Dy120 O126 2.379 . S
Dy120 O128 2.339 . S
Dy120 O130 2.298 . S
Dy120 O134 2.275 . S
Dy120 C142 2.738 . S
Dy121 O124 2.298 . S
Dy121 O127 2.275 . S
Dy121 O129 2.307 . S
Dy121 O131 2.395 . S
Dy121 O132 2.379 . S
Dy121 O135 2.339 . S
Dy121 C151 2.738 . S
C122 O134 1.254 . S
C122 O135 1.257 . S
O123 Dy120 2.307 . S
O123 C133 1.266 . S
O124 Dy121 2.298 . S
O124 C133 1.236 . S
O125 Dy120 2.395 . S
O125 C142 1.255 . S
O126 Dy120 2.379 . S
O126 C142 1.249 . S
O127 Dy121 2.275 . S
O127 C143 1.254 . S
O128 Dy120 2.339 . S
O128 C143 1.257 . S
O129 Dy121 2.307 . S
O129 C144 1.266 . S
O130 Dy120 2.298 . S
O130 C144 1.236 . S
O131 Dy121 2.395 . S
O131 C151 1.255 . S
O132 Dy121 2.379 . S
O132 C151 1.249 . S
C133 O123 1.266 . S
C133 O124 1.236 . S
O134 Dy120 2.275 . S
O134 C122 1.254 . S
O135 Dy121 2.339 . S
O135 C122 1.257 . S
C136 C139 1.344 . S
C136 C140 1.328 . S
C136 C142 1.516 . S
C137 C138 1.304 . S
C137 C141 1.323 . S
C138 C137 1.304 . S
C138 C139 1.371 . S
C138 H152 0.930 . S
C139 C136 1.344 . S
C139 C138 1.371 . S
C139 H153 0.931 . S
C140 C136 1.328 . S
C140 C141 1.433 . S
C140 H154 0.931 . S
C141 C137 1.323 . S
C141 C140 1.433 . S
C141 H155 0.933 . S
C142 Dy120 2.738 . S
C142 O125 1.255 . S
C142 O126 1.249 . S
C142 C136 1.516 . S
C143 O127 1.254 . S
C143 O128 1.257 . S
C144 O129 1.266 . S
C144 O130 1.236 . S
C145 C148 1.344 . S
C145 C149 1.328 . S
C145 C151 1.516 . S
C146 C147 1.304 . S
C146 C150 1.323 . S
C147 C146 1.304 . S
C147 C148 1.371 . S
C147 H156 0.930 . S
C148 C145 1.344 . S
C148 C147 1.371 . S
C148 H157 0.931 . S
C149 C145 1.328 . S
C149 C150 1.433 . S
C149 H158 0.931 . S
C150 C146 1.323 . S
C150 C149 1.433 . S
C150 H159 0.933 . S
C151 Dy121 2.738 . S
C151 O131 1.255 . S
C151 O132 1.249 . S
C151 C145 1.516 . S
H152 C138 0.930 . S
H153 C139 0.931 . S
H154 C140 0.931 . S
H155 C141 0.933 . S
H156 C147 0.930 . S
H157 C148 0.931 . S
H158 C149 0.931 . S
H159 C150 0.933 . S
Dy160 O163 2.307 . S
Dy160 O165 2.395 . S
Dy160 O166 2.379 . S
Dy160 O168 2.339 . S
Dy160 O170 2.298 . S
Dy160 O174 2.275 . S
Dy160 C182 2.738 . S
Dy161 O164 2.298 . S
Dy161 O167 2.275 . S
Dy161 O169 2.307 . S
Dy161 O171 2.395 . S
Dy161 O172 2.379 . S
Dy161 O175 2.339 . S
Dy161 C191 2.738 . S
C162 O174 1.254 . S
C162 O175 1.257 . S
O163 Dy160 2.307 . S
O163 C173 1.266 . S
O164 Dy161 2.298 . S
O164 C173 1.236 . S
O165 Dy160 2.395 . S
O165 C182 1.255 . S
O166 Dy160 2.379 . S
O166 C182 1.249 . S
O167 Dy161 2.275 . S
O167 C183 1.254 . S
O168 Dy160 2.339 . S
O168 C183 1.257 . S
O169 Dy161 2.307 . S
O169 C184 1.266 . S
O170 Dy160 2.298 . S
O170 C184 1.236 . S
O171 Dy161 2.395 . S
O171 C191 1.255 . S
O172 Dy161 2.379 . S
O172 C191 1.249 . S
C173 O163 1.266 . S
C173 O164 1.236 . S
O174 Dy160 2.275 . S
O174 C162 1.254 . S
O175 Dy161 2.339 . S
O175 C162 1.257 . S
C176 C179 1.344 . S
C176 C180 1.328 . S
C176 C182 1.516 . S
C177 C178 1.304 . S
C177 C181 1.323 . S
C178 C177 1.304 . S
C178 C179 1.371 . S
C178 H192 0.930 . S
C179 C176 1.344 . S
C179 C178 1.371 . S
C179 H193 0.931 . S
C180 C176 1.328 . S
C180 C181 1.433 . S
C180 H194 0.931 . S
C181 C177 1.323 . S
C181 C180 1.433 . S
C181 H195 0.933 . S
C182 Dy160 2.738 . S
C182 O165 1.255 . S
C182 O166 1.249 . S
C182 C176 1.516 . S
C183 O167 1.254 . S
C183 O168 1.257 . S
C184 O169 1.266 . S
C184 O170 1.236 . S
C185 C188 1.344 . S
C185 C189 1.328 . S
C185 C191 1.516 . S
C186 C187 1.304 . S
C186 C190 1.323 . S
C187 C186 1.304 . S
C187 C188 1.371 . S
C187 H196 0.930 . S
C188 C185 1.344 . S
C188 C187 1.371 . S
C188 H197 0.931 . S
C189 C185 1.328 . S
C189 C190 1.433 . S
C189 H198 0.931 . S
C190 C186 1.323 . S
C190 C189 1.433 . S
C190 H199 0.933 1_556 S
C191 Dy161 2.738 . S
C191 O171 1.255 . S
C191 O172 1.249 . S
C191 C185 1.516 . S
H192 C178 0.930 . S
H193 C179 0.931 . S
H194 C180 0.931 . S
H195 C181 0.933 . S
H196 C187 0.930 . S
H197 C188 0.931 . S
H198 C189 0.931 . S
H199 C190 0.933 1_554 S
Dy200 O203 2.307 . S
Dy200 O205 2.395 . S
Dy200 O206 2.379 . S
Dy200 O208 2.339 . S
Dy200 O210 2.298 . S
Dy200 O214 2.275 . S
Dy200 C222 2.738 . S
Dy201 O204 2.298 . S
Dy201 O207 2.275 . S
Dy201 O209 2.307 . S
Dy201 O211 2.395 . S
Dy201 O212 2.379 . S
Dy201 O215 2.339 . S
Dy201 C231 2.738 . S
C202 O214 1.254 . S
C202 O215 1.257 . S
O203 Dy200 2.307 . S
O203 C213 1.266 . S
O204 Dy201 2.298 . S
O204 C213 1.236 . S
O205 Dy200 2.395 . S
O205 C222 1.255 . S
O206 Dy200 2.379 . S
O206 C222 1.249 . S
O207 Dy201 2.275 . S
O207 C223 1.254 . S
O208 Dy200 2.339 . S
O208 C223 1.257 . S
O209 Dy201 2.307 . S
O209 C224 1.266 . S
O210 Dy200 2.298 . S
O210 C224 1.236 . S
O211 Dy201 2.395 . S
O211 C231 1.255 . S
O212 Dy201 2.379 . S
O212 C231 1.249 . S
C213 O203 1.266 . S
C213 O204 1.236 . S
O214 Dy200 2.275 . S
O214 C202 1.254 . S
O215 Dy201 2.339 . S
O215 C202 1.257 . S
C216 C219 1.344 . S
C216 C220 1.328 . S
C216 C222 1.516 . S
C217 C218 1.304 . S
C217 C221 1.323 . S
C218 C217 1.304 . S
C218 C219 1.371 . S
C218 H232 0.930 . S
C219 C216 1.344 . S
C219 C218 1.371 . S
C219 H233 0.931 . S
C220 C216 1.328 . S
C220 C221 1.433 . S
C220 H234 0.931 . S
C221 C217 1.323 . S
C221 C220 1.433 . S
C221 H235 0.933 . S
C222 Dy200 2.738 . S
C222 O205 1.255 . S
C222 O206 1.249 . S
C222 C216 1.516 . S
C223 O207 1.254 . S
C223 O208 1.257 . S
C224 O209 1.266 . S
C224 O210 1.236 . S
C225 C228 1.344 . S
C225 C229 1.328 . S
C225 C231 1.516 . S
C226 C227 1.304 . S
C226 C230 1.323 . S
C227 C226 1.304 . S
C227 C228 1.371 . S
C227 H236 0.930 . S
C228 C225 1.344 . S
C228 C227 1.371 . S
C228 H237 0.931 . S
C229 C225 1.328 . S
C229 C230 1.433 . S
C229 H238 0.931 . S
C230 C226 1.323 . S
C230 C229 1.433 . S
C230 H239 0.933 . S
C231 Dy201 2.738 . S
C231 O211 1.255 . S
C231 O212 1.249 . S
C231 C225 1.516 . S
H232 C218 0.930 . S
H233 C219 0.931 . S
H234 C220 0.931 . S
H235 C221 0.933 . S
H236 C227 0.930 . S
H237 C228 0.931 . S
H238 C229 0.931 . S
H239 C230 0.933 . S
Dy240 O243 2.307 . S
Dy240 O245 2.395 . S
Dy240 O246 2.379 . S
Dy240 O248 2.339 . S
Dy240 O250 2.298 . S
Dy240 O254 2.275 . S
Dy240 C262 2.738 . S
Dy241 O244 2.298 . S
Dy241 O247 2.275 . S
Dy241 O249 2.307 . S
Dy241 O251 2.395 . S
Dy241 O252 2.379 . S
Dy241 O255 2.339 . S
Dy241 C271 2.738 . S
C242 O254 1.254 . S
C242 O255 1.257 . S
O243 Dy240 2.307 . S
O243 C253 1.266 . S
O244 Dy241 2.298 . S
O244 C253 1.236 . S
O245 Dy240 2.395 . S
O245 C262 1.255 . S
O246 Dy240 2.379 . S
O246 C262 1.249 . S
O247 Dy241 2.275 . S
O247 C263 1.254 . S
O248 Dy240 2.339 . S
O248 C263 1.257 . S
O249 Dy241 2.307 . S
O249 C264 1.266 . S
O250 Dy240 2.298 . S
O250 C264 1.236 . S
O251 Dy241 2.395 . S
O251 C271 1.255 . S
O252 Dy241 2.379 . S
O252 C271 1.249 . S
C253 O243 1.266 . S
C253 O244 1.236 . S
O254 Dy240 2.275 . S
O254 C242 1.254 . S
O255 Dy241 2.339 . S
O255 C242 1.257 . S
C256 C259 1.344 . S
C256 C260 1.328 . S
C256 C262 1.516 . S
C257 C258 1.304 . S
C257 C261 1.323 . S
C258 C257 1.304 . S
C258 C259 1.371 . S
C258 H272 0.930 . S
C259 C256 1.344 . S
C259 C258 1.371 . S
C259 H273 0.931 . S
C260 C256 1.328 . S
C260 C261 1.433 . S
C260 H274 0.931 . S
C261 C257 1.323 . S
C261 C260 1.433 . S
C261 H275 0.933 . S
C262 Dy240 2.738 . S
C262 O245 1.255 . S
C262 O246 1.249 . S
C262 C256 1.516 . S
C263 O247 1.254 . S
C263 O248 1.257 . S
C264 O249 1.266 . S
C264 O250 1.236 . S
C265 C268 1.344 . S
C265 C269 1.328 . S
C265 C271 1.516 . S
C266 C267 1.304 . S
C266 C270 1.323 . S
C267 C266 1.304 . S
C267 C268 1.371 . S
C267 H276 0.930 . S
C268 C265 1.344 . S
C268 C267 1.371 . S
C268 H277 0.931 . S
C269 C265 1.328 . S
C269 C270 1.433 . S
C269 H278 0.931 . S
C270 C266 1.323 . S
C270 C269 1.433 . S
C270 H279 0.933 . S
C271 Dy241 2.738 . S
C271 O251 1.255 . S
C271 O252 1.249 . S
C271 C265 1.516 . S
H272 C258 0.930 . S
H273 C259 0.931 . S
H274 C260 0.931 . S
H275 C261 0.933 . S
H276 C267 0.930 . S
H277 C268 0.931 . S
H278 C269 0.931 . S
H279 C270 0.933 . S
Dy280 O283 2.307 . S
Dy280 O285 2.395 . S
Dy280 O286 2.379 . S
Dy280 O288 2.339 . S
Dy280 O290 2.298 . S
Dy280 O294 2.275 . S
Dy280 C302 2.738 . S
Dy281 O284 2.298 . S
Dy281 O287 2.275 . S
Dy281 O289 2.307 . S
Dy281 O291 2.395 . S
Dy281 O292 2.379 . S
Dy281 O295 2.339 . S
Dy281 C311 2.738 . S
C282 O294 1.254 . S
C282 O295 1.257 . S
O283 Dy280 2.307 . S
O283 C293 1.266 . S
O284 Dy281 2.298 . S
O284 C293 1.236 . S
O285 Dy280 2.395 . S
O285 C302 1.255 . S
O286 Dy280 2.379 . S
O286 C302 1.249 . S
O287 Dy281 2.275 . S
O287 C303 1.254 . S
O288 Dy280 2.339 . S
O288 C303 1.257 . S
O289 Dy281 2.307 . S
O289 C304 1.266 . S
O290 Dy280 2.298 . S
O290 C304 1.236 . S
O291 Dy281 2.395 . S
O291 C311 1.255 . S
O292 Dy281 2.379 . S
O292 C311 1.249 . S
C293 O283 1.266 . S
C293 O284 1.236 . S
O294 Dy280 2.275 . S
O294 C282 1.254 . S
O295 Dy281 2.339 . S
O295 C282 1.257 . S
C296 C299 1.344 . S
C296 C300 1.328 1_556 S
C296 C302 1.516 . S
C297 C298 1.304 1_554 S
C297 C301 1.323 . S
C298 C297 1.304 1_556 S
C298 C299 1.371 . S
C298 H312 0.930 . S
C299 C296 1.344 . S
C299 C298 1.371 . S
C299 H313 0.931 . S
C300 C296 1.328 1_554 S
C300 C301 1.433 . S
C300 H314 0.931 . S
C301 C297 1.323 . S
C301 C300 1.433 . S
C301 H315 0.933 . S
C302 Dy280 2.738 . S
C302 O285 1.255 . S
C302 O286 1.249 . S
C302 C296 1.516 . S
C303 O287 1.254 . S
C303 O288 1.257 . S
C304 O289 1.266 . S
C304 O290 1.236 . S
C305 C308 1.344 . S
C305 C309 1.328 . S
C305 C311 1.516 . S
C306 C307 1.304 . S
C306 C310 1.323 . S
C307 C306 1.304 . S
C307 C308 1.371 . S
C307 H316 0.930 . S
C308 C305 1.344 . S
C308 C307 1.371 . S
C308 H317 0.931 . S
C309 C305 1.328 . S
C309 C310 1.433 . S
C309 H318 0.931 . S
C310 C306 1.323 . S
C310 C309 1.433 . S
C310 H319 0.933 . S
C311 Dy281 2.738 . S
C311 O291 1.255 . S
C311 O292 1.249 . S
C311 C305 1.516 . S
H312 C298 0.930 . S
H313 C299 0.931 . S
H314 C300 0.931 . S
H315 C301 0.933 . S
H316 C307 0.930 . S
H317 C308 0.931 . S
H318 C309 0.931 . S
H319 C310 0.933 . S
Co320 O323 2.042 . S
Co320 O330 2.264 . S
Co320 O349 2.286 . S
Co320 O350 2.069 . S
Co320 O352 2.015 1_455 S
Co321 O323 2.122 . S
Co321 O329 2.073 . S
Co321 O330 2.327 . S
Co321 O331 1.976 1_455 S
Co322 O323 2.087 1_545 S
Co322 O325 2.087 1_455 S
Co322 O332 2.111 1_445 S
Co322 O333 2.143 . S
Co322 O337 2.111 . S
Co322 O351 2.143 1_445 S
O323 Co320 2.042 . S
O323 Co321 2.122 . S
O323 Co322 2.087 1_565 S
O323 H324 0.980 1_565 S
H324 O323 0.980 1_545 S
O325 Co322 2.087 1_655 S
O325 Co326 2.042 . S
O325 Co327 2.122 . S
O325 H328 0.980 . S
Co326 O325 2.042 . S
Co326 O334 2.286 . S
Co326 O335 2.069 . S
Co326 O336 2.015 1_655 S
Co326 O339 2.264 . S
Co327 O325 2.122 . S
Co327 O338 1.976 1_655 S
Co327 O339 2.327 . S
Co327 O340 2.073 . S
H328 O325 0.980 . S
O329 Co321 2.073 . S
O329 C344 1.245 . S
O330 Co320 2.264 . S
O330 Co321 2.327 . S
O330 C344 1.257 . S
O331 Co321 1.976 1_655 S
O331 C343 1.251 . S
O332 Co322 2.111 1_665 S
O332 C343 1.274 . S
O333 Co322 2.143 . S
O333 C346 1.246 . S
O334 Co326 2.286 . S
O334 C345 1.259 . S
O335 Co326 2.069 . S
O335 C345 1.289 . S
O336 Co326 2.015 1_455 S
O336 C346 1.257 . S
O337 Co322 2.111 . S
O337 C347 1.274 . S
O338 Co327 1.976 1_455 S
O338 C347 1.251 . S
O339 Co326 2.264 . S
O339 Co327 2.327 . S
O339 C348 1.257 . S
O340 Co327 2.073 . S
O340 C348 1.245 . S
C341 O349 1.259 . S
C341 O350 1.289 . S
C342 O351 1.246 . S
C342 O352 1.257 . S
C343 O331 1.251 . S
C343 O332 1.274 . S
C344 O329 1.245 . S
C344 O330 1.257 . S
C345 O334 1.259 . S
C345 O335 1.289 . S
C346 O333 1.246 . S
C346 O336 1.257 . S
C347 O337 1.274 . S
C347 O338 1.251 . S
C348 O339 1.257 . S
C348 O340 1.245 . S
O349 Co320 2.286 . S
O349 C341 1.259 . S
O350 Co320 2.069 . S
O350 C341 1.289 . S
O351 Co322 2.143 1_665 S
O351 C342 1.246 . S
O352 Co320 2.015 1_655 S
O352 C342 1.257 . S
Co353 O356 2.042 1_566 S
Co353 O363 2.264 1_556 S
Co353 O382 2.286 . S
Co353 O383 2.069 . S
Co353 O385 2.015 . S
Co354 O356 2.122 1_565 S
Co354 O362 2.073 . S
Co354 O363 2.327 . S
Co354 O364 1.976 . S
Co355 O356 2.087 . S
Co355 O358 2.087 1_554 S
Co355 O365 2.111 . S
Co355 O366 2.143 . S
Co355 O370 2.111 1_554 S
Co355 O384 2.143 1_544 S
O356 Co353 2.042 1_544 S
O356 Co354 2.122 1_545 S
O356 Co355 2.087 . S
O356 H357 0.980 . S
H357 O356 0.980 . S
O358 Co355 2.087 1_556 S
O358 Co359 2.042 1_556 S
O358 Co360 2.122 . S
O358 H361 0.980 . S
Co359 O358 2.042 1_554 S
Co359 O367 2.286 . S
Co359 O368 2.069 . S
Co359 O369 2.015 . S
Co359 O372 2.264 1_554 S
Co360 O358 2.122 . S
Co360 O371 1.976 . S
Co360 O372 2.327 . S
Co360 O373 2.073 . S
H361 O358 0.980 . S
O362 Co354 2.073 . S
O362 C377 1.245 . S
O363 Co353 2.264 1_554 S
O363 Co354 2.327 . S
O363 C377 1.257 . S
O364 Co354 1.976 . S
O364 C376 1.251 . S
O365 Co355 2.111 . S
O365 C376 1.274 1_545 S
O366 Co355 2.143 . S
O366 C379 1.246 . S
O367 Co359 2.286 . S
O367 C378 1.259 . S
O368 Co359 2.069 . S
O368 C378 1.289 . S
O369 Co359 2.015 . S
O369 C379 1.257 . S
O370 Co355 2.111 1_556 S
O370 C380 1.274 . S
O371 Co360 1.976 . S
O371 C380 1.251 . S
O372 Co359 2.264 1_556 S
O372 Co360 2.327 . S
O372 C381 1.257 . S
O373 Co360 2.073 . S
O373 C381 1.245 . S
C374 O382 1.259 . S
C374 O383 1.289 . S
C375 O384 1.246 . S
C375 O385 1.257 . S
C376 O364 1.251 . S
C376 O365 1.274 1_565 S
C377 O362 1.245 . S
C377 O363 1.257 . S
C378 O367 1.259 . S
C378 O368 1.289 . S
C379 O366 1.246 . S
C379 O369 1.257 . S
C380 O370 1.274 . S
C380 O371 1.251 . S
C381 O372 1.257 . S
C381 O373 1.245 . S
O382 Co353 2.286 . S
O382 C374 1.259 . S
O383 Co353 2.069 . S
O383 C374 1.289 . S
O384 Co355 2.143 1_566 S
O384 C375 1.246 . S
O385 Co353 2.015 . S
O385 C375 1.257 . S
Co386 O389 2.042 . S
Co386 O396 2.264 . S
Co386 O415 2.286 1_554 S
Co386 O416 2.069 . S
Co386 O418 2.015 1_455 S
Co387 O389 2.122 . S
Co387 O395 2.073 . S
Co387 O396 2.327 . S
Co387 O397 1.976 1_455 S
Co388 O389 2.087 . S
Co388 O391 2.087 1_455 S
Co388 O398 2.111 1_455 S
Co388 O399 2.143 . S
Co388 O403 2.111 . S
Co388 O417 2.143 1_455 S
O389 Co386 2.042 . S
O389 Co387 2.122 . S
O389 Co388 2.087 . S
O389 H390 0.980 . S
H390 O389 0.980 . S
O391 Co388 2.087 1_655 S
O391 Co392 2.042 . S
O391 Co393 2.122 1_554 S
O391 H394 0.980 . S
Co392 O391 2.042 . S
Co392 O400 2.286 . S
Co392 O401 2.069 . S
Co392 O402 2.015 1_655 S
Co392 O405 2.264 . S
Co393 O391 2.122 1_556 S
Co393 O404 1.976 1_656 S
Co393 O405 2.327 1_556 S
Co393 O406 2.073 . S
H394 O391 0.980 . S
O395 Co387 2.073 . S
O395 C410 1.245 . S
O396 Co386 2.264 . S
O396 Co387 2.327 . S
O396 C410 1.257 . S
O397 Co387 1.976 1_655 S
O397 C409 1.251 . S
O398 Co388 2.111 1_655 S
O398 C409 1.274 . S
O399 Co388 2.143 . S
O399 C412 1.246 . S
O400 Co392 2.286 . S
O400 C411 1.259 . S
O401 Co392 2.069 . S
O401 C411 1.289 . S
O402 Co392 2.015 1_455 S
O402 C412 1.257 . S
O403 Co388 2.111 . S
O403 C413 1.274 . S
O404 Co393 1.976 1_454 S
O404 C413 1.251 . S
O405 Co392 2.264 . S
O405 Co393 2.327 1_554 S
O405 C414 1.257 . S
O406 Co393 2.073 . S
O406 C414 1.245 1_556 S
C407 O415 1.259 1_554 S
C407 O416 1.289 . S
C408 O417 1.246 . S
C408 O418 1.257 . S
C409 O397 1.251 . S
C409 O398 1.274 . S
C410 O395 1.245 . S
C410 O396 1.257 . S
C411 O400 1.259 . S
C411 O401 1.289 . S
C412 O399 1.246 . S
C412 O402 1.257 . S
C413 O403 1.274 . S
C413 O404 1.251 . S
C414 O405 1.257 . S
C414 O406 1.245 1_554 S
O415 Co386 2.286 1_556 S
O415 C407 1.259 1_556 S
O416 Co386 2.069 . S
O416 C407 1.289 . S
O417 Co388 2.143 1_655 S
O417 C408 1.246 . S
O418 Co386 2.015 1_655 S
O418 C408 1.257 . S
Co419 O422 2.042 1_556 S
Co419 O429 2.264 1_556 S
Co419 O448 2.286 . S
Co419 O449 2.069 . S
Co419 O451 2.015 . S
Co420 O422 2.122 . S
Co420 O428 2.073 . S
Co420 O429 2.327 . S
Co420 O430 1.976 . S
Co421 O422 2.087 . S
Co421 O424 2.087 . S
Co421 O431 2.111 . S
Co421 O432 2.143 . S
Co421 O436 2.111 1_554 S
Co421 O450 2.143 1_554 S
O422 Co419 2.042 1_554 S
O422 Co420 2.122 . S
O422 Co421 2.087 . S
O422 H423 0.980 . S
H423 O422 0.980 . S
O424 Co421 2.087 . S
O424 Co425 2.042 . S
O424 Co426 2.122 1_554 S
O424 H427 0.980 . S
Co425 O424 2.042 . S
Co425 O433 2.286 . S
Co425 O434 2.069 . S
Co425 O435 2.015 . S
Co425 O438 2.264 1_554 S
Co426 O424 2.122 1_556 S
Co426 O437 1.976 . S
Co426 O438 2.327 . S
Co426 O439 2.073 . S
H427 O424 0.980 . S
O428 Co420 2.073 . S
O428 C443 1.245 . S
O429 Co419 2.264 1_554 S
O429 Co420 2.327 . S
O429 C443 1.257 . S
O430 Co420 1.976 . S
O430 C442 1.251 . S
O431 Co421 2.111 . S
O431 C442 1.274 . S
O432 Co421 2.143 . S
O432 C445 1.246 . S
O433 Co425 2.286 . S
O433 C444 1.259 . S
O434 Co425 2.069 . S
O434 C444 1.289 . S
O435 Co425 2.015 . S
O435 C445 1.257 . S
O436 Co421 2.111 1_556 S
O436 C446 1.274 . S
O437 Co426 1.976 . S
O437 C446 1.251 . S
O438 Co425 2.264 1_556 S
O438 Co426 2.327 . S
O438 C447 1.257 . S
O439 Co426 2.073 . S
O439 C447 1.245 . S
C440 O448 1.259 . S
C440 O449 1.289 . S
C441 O450 1.246 . S
C441 O451 1.257 . S
C442 O430 1.251 . S
C442 O431 1.274 . S
C443 O428 1.245 . S
C443 O429 1.257 . S
C444 O433 1.259 . S
C444 O434 1.289 . S
C445 O432 1.246 . S
C445 O435 1.257 . S
C446 O436 1.274 . S
C446 O437 1.251 . S
C447 O438 1.257 . S
C447 O439 1.245 . S
O448 Co419 2.286 . S
O448 C440 1.259 . S
O449 Co419 2.069 . S
O449 C440 1.289 . S
O450 Co421 2.143 1_556 S
O450 C441 1.246 . S
O451 Co419 2.015 . S
O451 C441 1.257 . S
Co452 O455 2.042 . S
Co452 O462 2.264 . S
Co452 O481 2.286 . S
Co452 O482 2.069 . S
Co452 O484 2.015 . S
Co453 O455 2.122 . S
Co453 O461 2.073 . S
Co453 O462 2.327 . S
Co453 O463 1.976 . S
Co454 O455 2.087 . S
Co454 O457 2.087 . S
Co454 O464 2.111 . S
Co454 O465 2.143 1_455 S
Co454 O469 2.111 . S
Co454 O483 2.143 . S
O455 Co452 2.042 . S
O455 Co453 2.122 . S
O455 Co454 2.087 . S
O455 H456 0.980 . S
H456 O455 0.980 . S
O457 Co454 2.087 . S
O457 Co458 2.042 1_455 S
O457 Co459 2.122 1_455 S
O457 H460 0.980 . S
Co458 O457 2.042 1_655 S
Co458 O466 2.286 . S
Co458 O467 2.069 . S
Co458 O468 2.015 . S
Co458 O471 2.264 . S
Co459 O457 2.122 1_655 S
Co459 O470 1.976 . S
Co459 O471 2.327 . S
Co459 O472 2.073 . S
H460 O457 0.980 . S
O461 Co453 2.073 . S
O461 C476 1.245 . S
O462 Co452 2.264 . S
O462 Co453 2.327 . S
O462 C476 1.257 . S
O463 Co453 1.976 . S
O463 C475 1.251 . S
O464 Co454 2.111 . S
O464 C475 1.274 . S
O465 Co454 2.143 1_655 S
O465 C478 1.246 . S
O466 Co458 2.286 . S
O466 C477 1.259 . S
O467 Co458 2.069 . S
O467 C477 1.289 . S
O468 Co458 2.015 . S
O468 C478 1.257 . S
O469 Co454 2.111 . S
O469 C479 1.274 1_455 S
O470 Co459 1.976 . S
O470 C479 1.251 . S
O471 Co458 2.264 . S
O471 Co459 2.327 . S
O471 C480 1.257 . S
O472 Co459 2.073 . S
O472 C480 1.245 . S
C473 O481 1.259 . S
C473 O482 1.289 . S
C474 O483 1.246 . S
C474 O484 1.257 . S
C475 O463 1.251 . S
C475 O464 1.274 . S
C476 O461 1.245 . S
C476 O462 1.257 . S
C477 O466 1.259 . S
C477 O467 1.289 . S
C478 O465 1.246 . S
C478 O468 1.257 . S
C479 O469 1.274 1_655 S
C479 O470 1.251 . S
C480 O471 1.257 . S
C480 O472 1.245 . S
O481 Co452 2.286 . S
O481 C473 1.259 . S
O482 Co452 2.069 . S
O482 C473 1.289 . S
O483 Co454 2.143 . S
O483 C474 1.246 . S
O484 Co452 2.015 . S
O484 C474 1.257 . S
Co485 O488 2.042 . S
Co485 O495 2.264 . S
Co485 O514 2.286 . S
Co485 O515 2.069 . S
Co485 O517 2.015 1_565 S
Co486 O488 2.122 . S
Co486 O494 2.073 . S
Co486 O495 2.327 . S
Co486 O496 1.976 1_565 S
Co487 O488 2.087 1_545 S
Co487 O490 2.087 . S
Co487 O497 2.111 . S
Co487 O498 2.143 1_545 S
Co487 O502 2.111 1_545 S
Co487 O516 2.143 . S
O488 Co485 2.042 . S
O488 Co486 2.122 . S
O488 Co487 2.087 1_565 S
O488 H489 0.980 . S
H489 O488 0.980 . S
O490 Co487 2.087 . S
O490 Co491 2.042 . S
O490 Co492 2.122 . S
O490 H493 0.980 . S
Co491 O490 2.042 . S
Co491 O499 2.286 . S
Co491 O500 2.069 . S
Co491 O501 2.015 1_545 S
Co491 O504 2.264 . S
Co492 O490 2.122 . S
Co492 O503 1.976 1_545 S
Co492 O504 2.327 . S
Co492 O505 2.073 . S
H493 O490 0.980 . S
O494 Co486 2.073 . S
O494 C509 1.245 . S
O495 Co485 2.264 . S
O495 Co486 2.327 . S
O495 C509 1.257 . S
O496 Co486 1.976 1_545 S
O496 C508 1.251 . S
O497 Co487 2.111 . S
O497 C508 1.274 . S
O498 Co487 2.143 1_565 S
O498 C511 1.246 . S
O499 Co491 2.286 . S
O499 C510 1.259 . S
O500 Co491 2.069 . S
O500 C510 1.289 . S
O501 Co491 2.015 1_565 S
O501 C511 1.257 . S
O502 Co487 2.111 1_565 S
O502 C512 1.274 . S
O503 Co492 1.976 1_565 S
O503 C512 1.251 . S
O504 Co491 2.264 . S
O504 Co492 2.327 . S
O504 C513 1.257 . S
O505 Co492 2.073 . S
O505 C513 1.245 . S
C506 O514 1.259 . S
C506 O515 1.289 . S
C507 O516 1.246 . S
C507 O517 1.257 . S
C508 O496 1.251 . S
C508 O497 1.274 . S
C509 O494 1.245 . S
C509 O495 1.257 . S
C510 O499 1.259 . S
C510 O500 1.289 . S
C511 O498 1.246 . S
C511 O501 1.257 . S
C512 O502 1.274 . S
C512 O503 1.251 . S
C513 O504 1.257 . S
C513 O505 1.245 . S
O514 Co485 2.286 . S
O514 C506 1.259 . S
O515 Co485 2.069 . S
O515 C506 1.289 . S
O516 Co487 2.143 . S
O516 C507 1.246 . S
O517 Co485 2.015 1_545 S
O517 C507 1.257 . S
C518 C519 1.369 . S
C518 C520 1.419 . S
C518 H522 0.930 . S
C519 C518 1.369 . S
C519 C528 1.429 . S
C520 C518 1.419 . S
C520 C521 1.363 . S
C520 H523 0.929 . S
C521 C520 1.363 . S
C521 C527 1.428 . S
H522 C518 0.930 . S
H523 C520 0.929 . S
S524 N525 1.613 . S
S524 N526 1.610 . S
N525 S524 1.613 . S
N525 C528 1.350 . S
N526 S524 1.610 . S
N526 C527 1.351 . S
C527 C521 1.428 . S
C527 N526 1.351 . S
C527 C528 1.434 . S
C528 C519 1.429 . S
C528 N525 1.350 . S
C528 C527 1.434 . S
C529 C530 1.369 . S
C529 C531 1.419 . S
C529 H533 0.930 . S
C530 C529 1.369 . S
C530 C539 1.429 . S
C531 C529 1.419 . S
C531 C532 1.363 . S
C531 H534 0.929 . S
C532 C531 1.363 . S
C532 C538 1.428 . S
H533 C529 0.930 . S
H534 C531 0.929 . S
S535 N536 1.613 . S
S535 N537 1.610 . S
N536 S535 1.613 . S
N536 C539 1.350 . S
N537 S535 1.610 . S
N537 C538 1.351 . S
C538 C532 1.428 . S
C538 N537 1.351 . S
C538 C539 1.434 . S
C539 C530 1.429 . S
C539 N536 1.350 . S
C539 C538 1.434 . S
C540 C541 1.369 . S
C540 C542 1.419 . S
C540 H544 0.930 . S
C541 C540 1.369 . S
C541 C550 1.429 . S
C542 C540 1.419 . S
C542 C543 1.363 . S
C542 H545 0.929 . S
C543 C542 1.363 . S
C543 C549 1.428 . S
H544 C540 0.930 . S
H545 C542 0.929 . S
S546 N547 1.613 . S
S546 N548 1.610 . S
N547 S546 1.613 . S
N547 C550 1.350 . S
N548 S546 1.610 . S
N548 C549 1.351 . S
C549 C543 1.428 . S
C549 N548 1.351 . S
C549 C550 1.434 . S
C550 C541 1.429 . S
C550 N547 1.350 . S
C550 C549 1.434 . S
C551 C552 1.369 . S
C551 C553 1.419 . S
C551 H555 0.930 . S
C552 C551 1.369 . S
C552 C561 1.429 . S
C553 C551 1.419 . S
C553 C554 1.363 . S
C553 H556 0.929 . S
C554 C553 1.363 . S
C554 C560 1.428 . S
H555 C551 0.930 . S
H556 C553 0.929 . S
S557 N558 1.613 . S
S557 N559 1.610 . S
N558 S557 1.613 . S
N558 C561 1.350 . S
N559 S557 1.610 . S
N559 C560 1.351 . S
C560 C554 1.428 . S
C560 N559 1.351 . S
C560 C561 1.434 . S
C561 C552 1.429 . S
C561 N558 1.350 . S
C561 C560 1.434 . S
C562 C563 1.369 . S
C562 C564 1.419 . S
C562 H566 0.930 . S
C563 C562 1.369 . S
C563 C572 1.429 . S
C564 C562 1.419 . S
C564 C565 1.363 . S
C564 H567 0.929 . S
C565 C564 1.363 . S
C565 C571 1.428 . S
H566 C562 0.930 . S
H567 C564 0.929 . S
S568 N569 1.613 . S
S568 N570 1.610 . S
N569 S568 1.613 . S
N569 C572 1.350 . S
N570 S568 1.610 . S
N570 C571 1.351 . S
C571 C565 1.428 . S
C571 N570 1.351 . S
C571 C572 1.434 . S
C572 C563 1.429 . S
C572 N569 1.350 . S
C572 C571 1.434 . S
C573 C574 1.369 . S
C573 C575 1.419 . S
C573 H577 0.930 . S
C574 C573 1.369 . S
C574 C583 1.429 . S
C575 C573 1.419 . S
C575 C576 1.363 . S
C575 H578 0.929 . S
C576 C575 1.363 . S
C576 C582 1.428 . S
H577 C573 0.930 . S
H578 C575 0.929 . S
S579 N580 1.613 . S
S579 N581 1.610 . S
N580 S579 1.613 . S
N580 C583 1.350 . S
N581 S579 1.610 . S
N581 C582 1.351 . S
C582 C576 1.428 . S
C582 N581 1.351 . S
C582 C583 1.434 . S
C583 C574 1.429 . S
C583 N580 1.350 . S
C583 C582 1.434 . S
C584 C585 1.369 . S
C584 C586 1.419 . S
C584 H588 0.930 . S
C585 C584 1.369 . S
C585 C594 1.429 . S
C586 C584 1.419 . S
C586 C587 1.363 . S
C586 H589 0.929 . S
C587 C586 1.363 . S
C587 C593 1.428 . S
H588 C584 0.930 . S
H589 C586 0.929 . S
S590 N591 1.613 . S
S590 N592 1.610 . S
N591 S590 1.613 . S
N591 C594 1.350 . S
N592 S590 1.610 . S
N592 C593 1.351 . S
C593 C587 1.428 . S
C593 N592 1.351 . S
C593 C594 1.434 . S
C594 C585 1.429 . S
C594 N591 1.350 . S
C594 C593 1.434 . S
C595 C596 1.369 . S
C595 C597 1.419 . S
C595 H599 0.930 . S
C596 C595 1.369 . S
C596 C605 1.429 . S
C597 C595 1.419 . S
C597 C598 1.363 . S
C597 H600 0.929 . S
C598 C597 1.363 . S
C598 C604 1.428 . S
H599 C595 0.930 . S
H600 C597 0.929 . S
S601 N602 1.613 . S
S601 N603 1.610 . S
N602 S601 1.613 . S
N602 C605 1.350 . S
N603 S601 1.610 . S
N603 C604 1.351 . S
C604 C598 1.428 . S
C604 N603 1.351 . S
C604 C605 1.434 . S
C605 C596 1.429 . S
C605 N602 1.350 . S
C605 C604 1.434 . S
C606 C607 1.369 . S
C606 C608 1.419 . S
C606 H610 0.930 . S
C607 C606 1.369 . S
C607 C616 1.429 . S
C608 C606 1.419 . S
C608 C609 1.363 . S
C608 H611 0.929 . S
C609 C608 1.363 . S
C609 C615 1.428 . S
H610 C606 0.930 . S
H611 C608 0.929 . S
S612 N613 1.613 . S
S612 N614 1.610 . S
N613 S612 1.613 . S
N613 C616 1.350 . S
N614 S612 1.610 . S
N614 C615 1.351 . S
C615 C609 1.428 . S
C615 N614 1.351 . S
C615 C616 1.434 . S
C616 C607 1.429 . S
C616 N613 1.350 . S
C616 C615 1.434 . S
C617 C618 1.369 . S
C617 C619 1.419 . S
C617 H621 0.930 . S
C618 C617 1.369 . S
C618 C627 1.429 . S
C619 C617 1.419 . S
C619 C620 1.363 . S
C619 H622 0.929 . S
C620 C619 1.363 . S
C620 C626 1.428 . S
H621 C617 0.930 . S
H622 C619 0.929 . S
S623 N624 1.613 . S
S623 N625 1.610 . S
N624 S623 1.613 . S
N624 C627 1.350 . S
N625 S623 1.610 . S
N625 C626 1.351 . S
C626 C620 1.428 . S
C626 N625 1.351 . S
C626 C627 1.434 . S
C627 C618 1.429 . S
C627 N624 1.350 . S
C627 C626 1.434 . S
C628 C629 1.369 . S
C628 C630 1.419 . S
C628 H632 0.930 . S
C629 C628 1.369 . S
C629 C638 1.429 . S
C630 C628 1.419 . S
C630 C631 1.363 . S
C630 H633 0.929 1_554 S
C631 C630 1.363 . S
C631 C637 1.428 . S
H632 C628 0.930 . S
H633 C630 0.929 1_556 S
S634 N635 1.613 . S
S634 N636 1.610 . S
N635 S634 1.613 . S
N635 C638 1.350 . S
N636 S634 1.610 . S
N636 C637 1.351 . S
C637 C631 1.428 . S
C637 N636 1.351 . S
C637 C638 1.434 . S
C638 C629 1.429 . S
C638 N635 1.350 . S
C638 C637 1.434 . S
C639 C640 1.369 . S
C639 C641 1.419 . S
C639 H643 0.930 . S
C640 C639 1.369 . S
C640 C649 1.429 . S
C641 C639 1.419 . S
C641 C642 1.363 . S
C641 H644 0.929 . S
C642 C641 1.363 . S
C642 C648 1.428 . S
H643 C639 0.930 . S
H644 C641 0.929 . S
S645 N646 1.613 . S
S645 N647 1.610 . S
N646 S645 1.613 . S
N646 C649 1.350 . S
N647 S645 1.610 . S
N647 C648 1.351 . S
C648 C642 1.428 . S
C648 N647 1.351 . S
C648 C649 1.434 . S
C649 C640 1.429 . S
C649 N646 1.350 . S
C649 C648 1.434 . S
C650 C651 1.369 . S
C650 C652 1.419 . S
C650 H654 0.930 . S
C651 C650 1.369 . S
C651 C660 1.429 . S
C652 C650 1.419 . S
C652 C653 1.363 . S
C652 H655 0.929 . S
C653 C652 1.363 . S
C653 C659 1.428 . S
H654 C650 0.930 . S
H655 C652 0.929 . S
S656 N657 1.613 . S
S656 N658 1.610 . S
N657 S656 1.613 . S
N657 C660 1.350 . S
N658 S656 1.610 . S
N658 C659 1.351 . S
C659 C653 1.428 . S
C659 N658 1.351 . S
C659 C660 1.434 . S
C660 C651 1.429 . S
C660 N657 1.350 . S
C660 C659 1.434 . S
C661 C662 1.369 . S
C661 C663 1.419 . S
C661 H665 0.930 . S
C662 C661 1.369 . S
C662 C671 1.429 . S
C663 C661 1.419 . S
C663 C664 1.363 . S
C663 H666 0.929 . S
C664 C663 1.363 . S
C664 C670 1.428 1_556 S
H665 C661 0.930 . S
H666 C663 0.929 . S
S667 N668 1.613 . S
S667 N669 1.610 . S
N668 S667 1.613 . S
N668 C671 1.350 1_554 S
N669 S667 1.610 . S
N669 C670 1.351 . S
C670 C664 1.428 1_554 S
C670 N669 1.351 . S
C670 C671 1.434 1_554 S
C671 C662 1.429 . S
C671 N668 1.350 1_556 S
C671 C670 1.434 1_556 S
C672 C673 1.369 . S
C672 C674 1.419 . S
C672 H676 0.930 . S
C673 C672 1.369 . S
C673 C682 1.429 . S
C674 C672 1.419 . S
C674 C675 1.363 . S
C674 H677 0.929 . S
C675 C674 1.363 . S
C675 C681 1.428 . S
H676 C672 0.930 . S
H677 C674 0.929 . S
S678 N679 1.613 1_554 S
S678 N680 1.610 1_554 S
N679 S678 1.613 1_556 S
N679 C682 1.350 . S
N680 S678 1.610 1_556 S
N680 C681 1.356 . S
C681 C675 1.428 . S
C681 N680 1.356 . S
C681 C682 1.434 . S
C682 C673 1.429 . S
C682 N679 1.350 . S
C682 C681 1.434 . S
C683 C684 1.369 . S
C683 C685 1.419 1_554 S
C683 H687 0.930 1_554 S
C684 C683 1.369 . S
C684 C693 1.429 . S
C685 C683 1.419 1_556 S
C685 C686 1.363 1_556 S
C685 H688 0.929 . S
C686 C685 1.363 1_554 S
C686 C692 1.428 . S
H687 C683 0.930 1_556 S
H688 C685 0.929 . S
S689 N690 1.613 . S
S689 N691 1.610 . S
N690 S689 1.613 . S
N690 C693 1.350 . S
N691 S689 1.610 . S
N691 C692 1.351 . S
C692 C686 1.428 . S
C692 N691 1.351 . S
C692 C693 1.434 . S
C693 C684 1.429 . S
C693 N690 1.350 . S
C693 C692 1.434 . S
C694 C695 1.369 . S
C694 C696 1.419 . S
C694 H698 0.930 . S
C695 C694 1.369 . S
C695 C704 1.429 . S
C696 C694 1.419 . S
C696 C697 1.363 . S
C696 H699 0.929 . S
C697 C696 1.363 . S
C697 C703 1.428 . S
H698 C694 0.930 . S
H699 C696 0.929 . S
S700 N701 1.613 . S
S700 N702 1.610 . S
N701 S700 1.613 . S
N701 C704 1.350 . S
N702 S700 1.610 . S
N702 C703 1.351 . S
C703 C697 1.428 . S
C703 N702 1.351 . S
C703 C704 1.434 . S
C704 C695 1.429 . S
C704 N701 1.350 . S
C704 C703 1.434 . S
C705 C706 1.369 1_556 S
C705 C707 1.419 . S
C705 H709 0.930 . S
C706 C705 1.369 1_554 S
C706 C715 1.429 . S
C707 C705 1.419 . S
C707 C708 1.363 1_556 S
C707 H710 0.929 . S
C708 C707 1.363 1_554 S
C708 C714 1.428 . S
H709 C705 0.930 . S
H710 C707 0.929 . S
S711 N712 1.613 . S
S711 N713 1.610 . S
N712 S711 1.613 . S
N712 C715 1.350 . S
N713 S711 1.610 . S
N713 C714 1.351 . S
C714 C708 1.428 . S
C714 N713 1.351 . S
C714 C715 1.434 . S
C715 C706 1.429 . S
C715 N712 1.350 . S
C715 C714 1.434 . S
C716 C717 1.369 . S
C716 C718 1.419 . S
C716 H720 0.930 . S
C717 C716 1.369 . S
C717 C726 1.429 . S
C718 C716 1.419 . S
C718 C719 1.363 . S
C718 H721 0.929 . S
C719 C718 1.363 . S
C719 C725 1.428 . S
H720 C716 0.930 . S
H721 C718 0.929 . S
S722 N723 1.613 . S
S722 N724 1.610 . S
N723 S722 1.613 . S
N723 C726 1.350 . S
N724 S722 1.610 . S
N724 C725 1.351 . S
C725 C719 1.428 . S
C725 N724 1.351 . S
C725 C726 1.434 . S
C726 C717 1.429 . S
C726 N723 1.350 . S
C726 C725 1.434 . S
C727 C728 1.369 . S
C727 C729 1.419 . S
C727 H731 0.930 . S
C728 C727 1.369 . S
C728 C737 1.429 . S
C729 C727 1.419 . S
C729 C730 1.363 . S
C729 H732 0.929 . S
C730 C729 1.363 . S
C730 C736 1.428 1_556 S
H731 C727 0.930 . S
H732 C729 0.929 . S
S733 N734 1.613 1_554 S
S733 N735 1.610 . S
N734 S733 1.613 1_556 S
N734 C737 1.350 . S
N735 S733 1.610 . S
N735 C736 1.351 . S
C736 C730 1.428 1_554 S
C736 N735 1.351 . S
C736 C737 1.434 1_554 S
C737 C728 1.429 . S
C737 N734 1.350 . S
C737 C736 1.434 1_556 S
C738 C739 1.369 . S
C738 C740 1.419 . S
C738 H742 0.930 . S
C739 C738 1.369 . S
C739 C748 1.429 . S
C740 C738 1.419 . S
C740 C741 1.363 . S
C740 H743 0.929 . S
C741 C740 1.363 . S
C741 C747 1.428 . S
H742 C738 0.930 . S
H743 C740 0.929 . S
S744 N745 1.613 . S
S744 N746 1.610 . S
N745 S744 1.613 . S
N745 C748 1.350 . S
N746 S744 1.610 . S
N746 C747 1.351 . S
C747 C741 1.428 . S
C747 N746 1.351 . S
C747 C748 1.434 . S
C748 C739 1.429 . S
C748 N745 1.350 . S
C748 C747 1.434 . S
C749 C750 1.369 . S
C749 C751 1.419 . S
C749 H753 0.930 . S
C750 C749 1.369 . S
C750 C759 1.429 . S
C751 C749 1.419 . S
C751 C752 1.363 . S
C751 H754 0.929 . S
C752 C751 1.363 . S
C752 C758 1.428 . S
H753 C749 0.930 . S
H754 C751 0.929 . S
S755 N756 1.613 . S
S755 N757 1.610 . S
N756 S755 1.613 . S
N756 C759 1.350 . S
N757 S755 1.610 . S
N757 C758 1.351 . S
C758 C752 1.428 . S
C758 N757 1.351 . S
C758 C759 1.434 . S
C759 C750 1.429 . S
C759 N756 1.350 . S
C759 C758 1.434 . S
C760 C761 1.369 . S
C760 C762 1.419 . S
C760 H764 0.930 . S
C761 C760 1.369 . S
C761 C770 1.429 . S
C762 C760 1.419 . S
C762 C763 1.363 . S
C762 H765 0.929 . S
C763 C762 1.363 . S
C763 C769 1.428 . S
H764 C760 0.930 . S
H765 C762 0.929 . S
S766 N767 1.613 . S
S766 N768 1.610 . S
N767 S766 1.613 . S
N767 C770 1.350 . S
N768 S766 1.610 . S
N768 C769 1.351 . S
C769 C763 1.428 . S
C769 N768 1.351 . S
C769 C770 1.434 . S
C770 C761 1.429 . S
C770 N767 1.350 . S
C770 C769 1.434 . S
C771 C772 1.369 . S
C771 C773 1.419 . S
C771 H775 0.930 . S
C772 C771 1.369 . S
C772 C781 1.429 . S
C773 C771 1.419 . S
C773 C774 1.363 . S
C773 H776 0.929 . S
C774 C773 1.363 . S
C774 C780 1.428 . S
H775 C771 0.930 . S
H776 C773 0.929 . S
S777 N778 1.613 . S
S777 N779 1.610 . S
N778 S777 1.613 . S
N778 C781 1.350 . S
N779 S777 1.610 . S
N779 C780 1.351 . S
C780 C774 1.428 . S
C780 N779 1.351 . S
C780 C781 1.434 . S
C781 C772 1.429 . S
C781 N778 1.350 . S
C781 C780 1.434 . S
C782 C783 1.369 . S
C782 C784 1.419 . S
C782 H786 0.930 . S
C783 C782 1.369 . S
C783 C792 1.429 . S
C784 C782 1.419 . S
C784 C785 1.363 . S
C784 H787 0.929 . S
C785 C784 1.363 . S
C785 C791 1.428 . S
H786 C782 0.930 . S
H787 C784 0.929 . S
S788 N789 1.613 1_554 S
S788 N790 1.610 . S
N789 S788 1.613 1_556 S
N789 C792 1.350 . S
N790 S788 1.610 . S
N790 C791 1.351 1_554 S
C791 C785 1.428 . S
C791 N790 1.351 1_556 S
C791 C792 1.434 . S
C792 C783 1.429 . S
C792 N789 1.350 . S
C792 C791 1.434 . S
C793 C794 1.369 . S
C793 C795 1.419 . S
C793 H797 0.930 . S
C794 C793 1.369 . S
C794 C803 1.429 . S
C795 C793 1.419 . S
C795 C796 1.363 . S
C795 H798 0.929 . S
C796 C795 1.363 . S
C796 C802 1.428 . S
H797 C793 0.930 . S
H798 C795 0.929 . S
S799 N800 1.613 . S
S799 N801 1.610 . S
N800 S799 1.613 . S
N800 C803 1.350 . S
N801 S799 1.610 . S
N801 C802 1.351 . S
C802 C796 1.428 . S
C802 N801 1.351 . S
C802 C803 1.434 . S
C803 C794 1.429 . S
C803 N800 1.350 . S
C803 C802 1.434 . S
C804 C805 1.369 . S
C804 C806 1.419 . S
C804 H808 0.930 . S
C805 C804 1.369 . S
C805 C814 1.429 . S
C806 C804 1.419 . S
C806 C807 1.363 . S
C806 H809 0.929 . S
C807 C806 1.363 . S
C807 C813 1.428 . S
H808 C804 0.930 . S
H809 C806 0.929 . S
S810 N811 1.613 . S
S810 N812 1.610 . S
N811 S810 1.613 . S
N811 C814 1.350 . S
N812 S810 1.610 . S
N812 C813 1.351 . S
C813 C807 1.428 . S
C813 N812 1.351 . S
C813 C814 1.434 . S
C814 C805 1.429 . S
C814 N811 1.350 . S
C814 C813 1.434 . S
C815 C816 1.369 . S
C815 C817 1.419 . S
C815 H819 0.930 . S
C816 C815 1.369 . S
C816 C825 1.429 . S
C817 C815 1.419 . S
C817 C818 1.363 . S
C817 H820 0.929 . S
C818 C817 1.363 . S
C818 C824 1.428 . S
H819 C815 0.930 . S
H820 C817 0.929 . S
S821 N822 1.613 . S
S821 N823 1.610 . S
N822 S821 1.613 . S
N822 C825 1.350 . S
N823 S821 1.610 . S
N823 C824 1.351 . S
C824 C818 1.428 . S
C824 N823 1.351 . S
C824 C825 1.434 . S
C825 C816 1.429 . S
C825 N822 1.350 . S
C825 C824 1.434 . S
C826 C827 1.369 . S
C826 C828 1.419 . S
C826 H830 0.930 . S
C827 C826 1.369 . S
C827 C836 1.429 . S
C828 C826 1.419 . S
C828 C829 1.363 . S
C828 H831 0.929 . S
C829 C828 1.363 . S
C829 C835 1.428 . S
H830 C826 0.930 . S
H831 C828 0.929 . S
S832 N833 1.613 . S
S832 N834 1.610 . S
N833 S832 1.613 . S
N833 C836 1.350 . S
N834 S832 1.610 . S
N834 C835 1.351 . S
C835 C829 1.428 . S
C835 N834 1.351 . S
C835 C836 1.434 . S
C836 C827 1.429 . S
C836 N833 1.350 . S
C836 C835 1.434 . S
C837 C838 1.369 . S
C837 C839 1.419 . S
C837 H841 0.930 . S
C838 C837 1.369 . S
C838 C847 1.429 . S
C839 C837 1.419 . S
C839 C840 1.363 . S
C839 H842 0.929 . S
C840 C839 1.363 . S
C840 C846 1.428 . S
H841 C837 0.930 . S
H842 C839 0.929 . S
S843 N844 1.613 . S
S843 N845 1.610 . S
N844 S843 1.613 . S
N844 C847 1.350 . S
N845 S843 1.610 . S
N845 C846 1.351 . S
C846 C840 1.428 . S
C846 N845 1.351 . S
C846 C847 1.434 . S
C847 C838 1.429 . S
C847 N844 1.350 . S
C847 C846 1.434 . S
C848 C849 1.369 . S
C848 C850 1.419 . S
C848 H852 0.930 . S
C849 C848 1.369 . S
C849 C858 1.429 . S
C850 C848 1.419 . S
C850 C851 1.363 . S
C850 H853 0.929 . S
C851 C850 1.363 . S
C851 C857 1.428 . S
H852 C848 0.930 . S
H853 C850 0.929 . S
S854 N855 1.613 1_556 S
S854 N856 1.610 1_556 S
N855 S854 1.613 1_554 S
N855 C858 1.350 . S
N856 S854 1.610 1_554 S
N856 C857 1.351 . S
C857 C851 1.428 . S
C857 N856 1.351 . S
C857 C858 1.434 . S
C858 C849 1.429 . S
C858 N855 1.350 . S
C858 C857 1.434 . S
C859 C860 1.369 . S
C859 C861 1.419 . S
C859 H863 0.930 . S
C860 C859 1.369 . S
C860 C869 1.429 . S
C861 C859 1.419 . S
C861 C862 1.363 . S
C861 H864 0.929 . S
C862 C861 1.363 . S
C862 C868 1.428 . S
H863 C859 0.930 . S
H864 C861 0.929 . S
S865 N866 1.613 . S
S865 N867 1.610 . S
N866 S865 1.613 . S
N866 C869 1.350 . S
N867 S865 1.610 . S
N867 C868 1.351 . S
C868 C862 1.428 . S
C868 N867 1.351 . S
C868 C869 1.434 . S
C869 C860 1.429 . S
C869 N866 1.350 . S
C869 C868 1.434 . S
C870 C871 1.369 . S
C870 C872 1.419 . S
C870 H874 0.930 . S
C871 C870 1.369 . S
C871 C880 1.429 . S
C872 C870 1.419 . S
C872 C873 1.363 . S
C872 H875 0.929 . S
C873 C872 1.363 . S
C873 C879 1.428 . S
H874 C870 0.930 . S
H875 C872 0.929 . S
S876 N877 1.613 . S
S876 N878 1.610 . S
N877 S876 1.613 . S
N877 C880 1.350 . S
N878 S876 1.610 . S
N878 C879 1.351 . S
C879 C873 1.428 . S
C879 N878 1.351 . S
C879 C880 1.434 . S
C880 C871 1.429 . S
C880 N877 1.350 . S
C880 C879 1.434 . S
C881 C882 1.369 . S
C881 C883 1.419 . S
C881 H885 0.930 . S
C882 C881 1.369 . S
C882 C891 1.429 . S
C883 C881 1.419 . S
C883 C884 1.363 . S
C883 H886 0.929 . S
C884 C883 1.363 . S
C884 C890 1.428 . S
H885 C881 0.930 . S
H886 C883 0.929 . S
S887 N888 1.613 . S
S887 N889 1.610 . S
N888 S887 1.613 . S
N888 C891 1.350 . S
N889 S887 1.610 . S
N889 C890 1.351 . S
C890 C884 1.428 . S
C890 N889 1.351 . S
C890 C891 1.434 . S
C891 C882 1.429 . S
C891 N888 1.350 . S
C891 C890 1.434 . S
C892 C893 1.369 . S
C892 C894 1.419 . S
C892 H896 0.930 . S
C893 C892 1.369 . S
C893 C902 1.429 . S
C894 C892 1.419 . S
C894 C895 1.363 . S
C894 H897 0.929 . S
C895 C894 1.363 . S
C895 C901 1.428 . S
H896 C892 0.930 . S
H897 C894 0.929 . S
S898 N899 1.613 . S
S898 N900 1.610 . S
N899 S898 1.613 . S
N899 C902 1.350 . S
N900 S898 1.610 . S
N900 C901 1.351 . S
C901 C895 1.428 . S
C901 N900 1.351 . S
C901 C902 1.434 . S
C902 C893 1.429 . S
C902 N899 1.350 . S
C902 C901 1.434 . S
C903 C904 1.369 . S
C903 C905 1.419 . S
C903 H907 0.930 . S
C904 C903 1.369 . S
C904 C913 1.429 . S
C905 C903 1.419 . S
C905 C906 1.363 . S
C905 H908 0.929 . S
C906 C905 1.363 . S
C906 C912 1.428 . S
H907 C903 0.930 . S
H908 C905 0.929 . S
S909 N910 1.613 . S
S909 N911 1.610 . S
N910 S909 1.613 . S
N910 C913 1.350 . S
N911 S909 1.610 . S
N911 C912 1.351 . S
C912 C906 1.428 . S
C912 N911 1.351 . S
C912 C913 1.434 . S
C913 C904 1.429 . S
C913 N910 1.350 . S
C913 C912 1.434 . S
C914 C915 1.369 . S
C914 C916 1.419 . S
C914 H918 0.930 . S
C915 C914 1.369 . S
C915 C924 1.429 . S
C916 C914 1.419 . S
C916 C917 1.363 . S
C916 H919 0.929 . S
C917 C916 1.363 . S
C917 C923 1.428 . S
H918 C914 0.930 . S
H919 C916 0.929 . S
S920 N921 1.613 . S
S920 N922 1.610 . S
N921 S920 1.613 . S
N921 C924 1.350 . S
N922 S920 1.610 . S
N922 C923 1.351 . S
C923 C917 1.428 . S
C923 N922 1.351 . S
C923 C924 1.434 . S
C924 C915 1.429 . S
C924 N921 1.350 . S
C924 C923 1.434 . S
C925 C926 1.369 . S
C925 C927 1.419 . S
C925 H929 0.930 . S
C926 C925 1.369 . S
C926 C935 1.429 . S
C927 C925 1.419 . S
C927 C928 1.363 . S
C927 H930 0.929 . S
C928 C927 1.363 . S
C928 C934 1.428 . S
H929 C925 0.930 . S
H930 C927 0.929 . S
S931 N932 1.613 . S
S931 N933 1.610 . S
N932 S931 1.613 . S
N932 C935 1.350 . S
N933 S931 1.610 . S
N933 C934 1.351 . S
C934 C928 1.428 . S
C934 N933 1.351 . S
C934 C935 1.434 . S
C935 C926 1.429 . S
C935 N932 1.350 . S
C935 C934 1.434 . S
C936 C937 1.369 . S
C936 C938 1.419 . S
C936 H940 0.930 . S
C937 C936 1.369 . S
C937 C946 1.429 . S
C938 C936 1.419 . S
C938 C939 1.363 . S
C938 H941 0.929 . S
C939 C938 1.363 . S
C939 C945 1.428 . S
H940 C936 0.930 . S
H941 C938 0.929 . S
S942 N943 1.613 . S
S942 N944 1.610 . S
N943 S942 1.613 . S
N943 C946 1.350 . S
N944 S942 1.610 . S
N944 C945 1.351 . S
C945 C939 1.428 . S
C945 N944 1.351 . S
C945 C946 1.434 . S
C946 C937 1.429 . S
C946 N943 1.350 . S
C946 C945 1.434 . S
C947 C948 1.369 . S
C947 C949 1.419 . S
C947 H951 0.930 . S
C948 C947 1.369 . S
C948 C957 1.429 . S
C949 C947 1.419 . S
C949 C950 1.363 . S
C949 H952 0.929 . S
C950 C949 1.363 . S
C950 C956 1.428 . S
H951 C947 0.930 . S
H952 C949 0.929 . S
S953 N954 1.613 . S
S953 N955 1.610 . S
N954 S953 1.613 . S
N954 C957 1.350 . S
N955 S953 1.610 . S
N955 C956 1.351 . S
C956 C950 1.428 . S
C956 N955 1.351 . S
C956 C957 1.434 . S
C957 C948 1.429 . S
C957 N954 1.350 . S
C957 C956 1.434 . S
C958 C959 1.369 . S
C958 C960 1.419 . S
C958 H962 0.930 . S
C959 C958 1.369 . S
C959 C968 1.429 . S
C960 C958 1.419 . S
C960 C961 1.363 . S
C960 H963 0.929 . S
C961 C960 1.363 . S
C961 C967 1.428 . S
H962 C958 0.930 . S
H963 C960 0.929 . S
S964 N965 1.613 . S
S964 N966 1.610 . S
N965 S964 1.613 . S
N965 C968 1.350 . S
N966 S964 1.610 . S
N966 C967 1.351 . S
C967 C961 1.428 . S
C967 N966 1.351 . S
C967 C968 1.434 . S
C968 C959 1.429 . S
C968 N965 1.350 . S
C968 C967 1.434 . S
C969 C970 1.369 . S
C969 C971 1.419 . S
C969 H973 0.930 . S
C970 C969 1.369 . S
C970 C979 1.429 . S
C971 C969 1.419 . S
C971 C972 1.363 . S
C971 H974 0.929 . S
C972 C971 1.363 . S
C972 C978 1.428 . S
H973 C969 0.930 . S
H974 C971 0.929 . S
S975 N976 1.613 . S
S975 N977 1.610 . S
N976 S975 1.613 . S
N976 C979 1.350 . S
N977 S975 1.610 . S
N977 C978 1.351 . S
C978 C972 1.428 . S
C978 N977 1.351 . S
C978 C979 1.434 . S
C979 C970 1.429 . S
C979 N976 1.350 . S
C979 C978 1.434 . S
C980 C981 1.369 . S
C980 C982 1.419 . S
C980 H984 0.930 . S
C981 C980 1.369 . S
C981 C990 1.429 . S
C982 C980 1.419 . S
C982 C983 1.363 . S
C982 H985 0.929 . S
C983 C982 1.363 . S
C983 C989 1.428 . S
H984 C980 0.930 . S
H985 C982 0.929 . S
S986 N987 1.613 . S
S986 N988 1.610 . S
N987 S986 1.613 . S
N987 C990 1.350 . S
N988 S986 1.610 . S
N988 C989 1.351 . S
C989 C983 1.428 . S
C989 N988 1.351 . S
C989 C990 1.434 . S
C990 C981 1.429 . S
C990 N987 1.350 . S
C990 C989 1.434 . S
C991 C992 1.369 . S
C991 C993 1.419 . S
C991 H995 0.930 . S
C992 C991 1.369 . S
C992 C1001 1.429 . S
C993 C991 1.419 . S
C993 C994 1.363 . S
C993 H996 0.929 . S
C994 C993 1.363 . S
C994 C1000 1.428 . S
H995 C991 0.930 . S
H996 C993 0.929 . S
S997 N998 1.613 . S
S997 N999 1.610 . S
N998 S997 1.613 . S
N998 C1001 1.350 . S
N999 S997 1.610 . S
N999 C1000 1.351 . S
C1000 C994 1.428 . S
C1000 N999 1.351 . S
C1000 C1001 1.434 . S
C1001 C992 1.429 . S
C1001 N998 1.350 . S
C1001 C1000 1.434 . S
C1002 C1003 1.369 . S
C1002 C1004 1.419 . S
C1002 H1006 0.930 . S
C1003 C1002 1.369 . S
C1003 C1012 1.429 . S
C1004 C1002 1.419 . S
C1004 C1005 1.363 . S
C1004 H1007 0.929 . S
C1005 C1004 1.363 . S
C1005 C1011 1.428 . S
H1006 C1002 0.930 . S
H1007 C1004 0.929 . S
S1008 N1009 1.613 . S
S1008 N1010 1.610 . S
N1009 S1008 1.613 . S
N1009 C1012 1.350 . S
N1010 S1008 1.610 . S
N1010 C1011 1.351 . S
C1011 C1005 1.428 . S
C1011 N1010 1.351 . S
C1011 C1012 1.434 . S
C1012 C1003 1.429 . S
C1012 N1009 1.350 . S
C1012 C1011 1.434 . S
C1013 C1014 1.369 . S
C1013 C1015 1.419 . S
C1013 H1017 0.930 . S
C1014 C1013 1.369 . S
C1014 C1023 1.429 . S
C1015 C1013 1.419 . S
C1015 C1016 1.363 . S
C1015 H1018 0.929 . S
C1016 C1015 1.363 . S
C1016 C1022 1.428 . S
H1017 C1013 0.930 . S
H1018 C1015 0.929 . S
S1019 N1020 1.613 . S
S1019 N1021 1.610 . S
N1020 S1019 1.613 . S
N1020 C1023 1.350 . S
N1021 S1019 1.610 . S
N1021 C1022 1.351 . S
C1022 C1016 1.428 . S
C1022 N1021 1.351 . S
C1022 C1023 1.434 . S
C1023 C1014 1.429 . S
C1023 N1020 1.350 . S
C1023 C1022 1.434 . S
C1024 C1025 1.369 . S
C1024 C1026 1.419 . S
C1024 H1028 0.930 . S
C1025 C1024 1.369 . S
C1025 C1034 1.429 . S
C1026 C1024 1.419 . S
C1026 C1027 1.363 . S
C1026 H1029 0.929 . S
C1027 C1026 1.363 . S
C1027 C1033 1.428 . S
H1028 C1024 0.930 . S
H1029 C1026 0.929 . S
S1030 N1031 1.613 . S
S1030 N1032 1.610 . S
N1031 S1030 1.613 . S
N1031 C1034 1.350 . S
N1032 S1030 1.610 . S
N1032 C1033 1.351 . S
C1033 C1027 1.428 . S
C1033 N1032 1.351 . S
C1033 C1034 1.434 . S
C1034 C1025 1.429 . S
C1034 N1031 1.350 . S
C1034 C1033 1.434 . S
C1035 C1036 1.369 . S
C1035 C1037 1.419 . S
C1035 H1039 0.930 . S
C1036 C1035 1.369 . S
C1036 C1045 1.429 . S
C1037 C1035 1.419 . S
C1037 C1038 1.363 . S
C1037 H1040 0.929 . S
C1038 C1037 1.363 . S
C1038 C1044 1.428 . S
H1039 C1035 0.930 . S
H1040 C1037 0.929 . S
S1041 N1042 1.613 . S
S1041 N1043 1.610 . S
N1042 S1041 1.613 . S
N1042 C1045 1.350 . S
N1043 S1041 1.610 . S
N1043 C1044 1.351 . S
C1044 C1038 1.428 . S
C1044 N1043 1.351 . S
C1044 C1045 1.434 . S
C1045 C1036 1.429 . S
C1045 N1042 1.350 . S
C1045 C1044 1.434 . S
C521 C347 2.426 . S
C519 C24 2.552 . S
C532 C348 3.281 . S
C530 C53 3.376 . S
C543 C342 1.497 . S
C541 C82 1.537 . S
C552 C137 0.704 . S
C554 C341 0.716 . S
C563 C184 3.224 . S
C565 C344 3.112 . S
C576 C346 1.328 . S
C574 C202 1.348 . S
C585 C266 0.729 . S
C587 C345 0.730 . S
C596 C293 2.550 . S
C598 C343 2.417 . S
C609 C378 2.884 . S
C607 C2 2.856 . S
C618 C57 0.991 . S
C620 C409 0.582 . S
C631 C377 0.752 . S
C629 C106 0.749 . S
C642 C412 1.091 . S
C640 C143 1.024 . S
C651 C162 1.340 . S
C653 C375 1.294 . S
C664 C407 0.920 1_556 S
C662 C226 0.927 . S
C673 C264 2.371 . S
C675 C380 2.384 . S
C684 C297 0.759 . S
C686 C414 0.579 . S
C695 C26 1.159 . S
C697 C410 1.420 . S
C706 C186 0.595 1_554 S
C708 C413 0.417 . S
C719 C381 2.357 . S
C717 C224 2.423 . S
C730 C408 1.722 1_556 S
C728 C242 1.830 . S
C739 C303 3.498 . S
C741 C374 3.528 . S
C750 C104 2.198 . S
C752 C411 2.209 . S
C763 C376 2.617 . S
C761 C133 2.720 . S
C772 C63 1.845 . S
C774 C379 1.866 . S
C783 C304 2.647 . S
C785 C446 2.549 . S
C794 C173 3.005 . S
C796 C447 2.904 . S
C807 C441 1.479 . S
C805 C223 1.509 . S
C818 C440 0.551 . S
C816 C257 0.531 . S
C827 C64 3.206 . S
C829 C443 3.123 . S
C840 C445 1.354 . S
C838 C103 1.374 . S
C849 C146 0.480 . S
C851 C444 0.406 . S
C860 C13 2.622 . S
C862 C442 2.512 . S
C871 C282 3.623 . S
C873 C480 3.561 . S
C884 C512 0.594 . S
C882 C177 0.644 . S
C893 C213 2.403 . S
C895 C473 2.396 . S
C904 C263 2.143 . S
C906 C507 2.141 . S
C917 C478 1.598 . S
C915 C42 1.646 . S
C926 C93 2.351 . S
C928 C509 2.334 . S
C939 C475 2.944 . S
C937 C144 2.975 . S
C950 C510 1.418 . S
C948 C17 1.212 . S
C961 C506 0.699 . S
C959 C306 0.745 . S
C970 C66 0.919 . S
C972 C508 0.574 . S
C981 C97 0.695 . S
C983 C477 0.700 . S
C994 C511 1.309 . S
C992 C122 1.278 . S
C1003 C23 3.014 . S
C1005 C476 2.896 . S
C1014 C217 1.097 . S
C1016 C513 1.101 . S
C1027 C479 2.528 . S
C1025 C253 2.555 . S
C1038 C474 1.222 . S
C1036 C183 1.212 . S
