# Generated by pormake.
# Topology alb, (6,12)-cn, num edge types: 1
# Building blocks:
#     Node 0, Type 0, BuildingBlock: OJICUG_clean_sbu_0, # of connection points: 6
#     Node 1, Type 0, BuildingBlock: OJICUG_clean_sbu_0, # of connection points: 6
#     Node 2, Type 1, BuildingBlock: QEWDON_clean_sbu_0, # of connection points: 12
#     Edge 3, Type (0, 1), BuildingBlock: CIFDUS_clean_linker_0, # of connection points: 2
#     Edge 4, Type (0, 1), BuildingBlock: CIFDUS_clean_linker_0, # of connection points: 2
#     Edge 5, Type (0, 1), BuildingBlock: CIFDUS_clean_linker_0, # of connection points: 2
#     Edge 6, Type (0, 1), BuildingBlock: CIFDUS_clean_linker_0, # of connection points: 2
#     Edge 7, Type (0, 1), BuildingBlock: CIFDUS_clean_linker_0, # of connection points: 2
#     Edge 8, Type (0, 1), BuildingBlock: CIFDUS_clean_linker_0, # of connection points: 2
#     Edge 9, Type (0, 1), BuildingBlock: CIFDUS_clean_linker_0, # of connection points: 2
#     Edge 10, Type (0, 1), BuildingBlock: CIFDUS_clean_linker_0, # of connection points: 2
#     Edge 11, Type (0, 1), BuildingBlock: CIFDUS_clean_linker_0, # of connection points: 2
#     Edge 12, Type (0, 1), BuildingBlock: CIFDUS_clean_linker_0, # of connection points: 2
#     Edge 13, Type (0, 1), BuildingBlock: CIFDUS_clean_linker_0, # of connection points: 2
#     Edge 14, Type (0, 1), BuildingBlock: CIFDUS_clean_linker_0, # of connection points: 2
# Relax obj value: 0.125
# Max RMSD: 0.222
# Mean RMSD: 0.143
data_MOF--net-alb--node1-OJICUG_clean_sbu_0--node2-QEWDON_clean_sbu_0--edge1-CIFDUS_clean_linker_0
_symmetry_space_group_name_H-M    P1
_symmetry_Int_Tables_number       1
_symmetry_cell_setting            triclinic
loop_
_symmetry_equiv_pos_as_xyz
'x, y, z'
_cell_length_a     21.949028
_cell_length_b     22.223965
_cell_length_c     18.590173
_cell_angle_alpha  90.304753
_cell_angle_beta   90.775651
_cell_angle_gamma 121.66189
loop_
_atom_site_label
_atom_site_type_symbol
_atom_site_fract_x
_atom_site_fract_y
_atom_site_fract_z
_atom_type_partial_charge
Sc0 Sc 0.31128 0.74629 0.10104 0.0
Sc1 Sc 0.14975 0.59672 0.15557 0.0
Sc2 Sc 0.30241 0.58547 0.13077 0.0
O3 O 0.25459 0.64286 0.12907 0.0
C4 C 0.37918 0.68401 -0.00428 0.0
C5 C 0.1607 0.69724 0.02678 0.0
C6 C 0.15132 0.48147 0.05342 0.0
C7 C 0.21886 0.74652 0.23371 0.0
C8 C 0.42311 0.73193 0.20059 0.0
C9 C 0.19921 0.51991 0.26525 0.0
O10 O 0.3626 0.7294 0.01138 0.0
O11 O 0.12657 0.64729 0.07066 0.0
O12 O 0.21661 0.50245 0.0669 0.0
O13 O 0.26915 0.77657 0.18875 0.0
O14 O 0.3928 0.66521 0.19278 0.0
O15 O 0.15699 0.53948 0.24478 0.0
O16 O 0.39976 0.76768 0.17101 0.0
O17 O 0.17207 0.68062 0.23086 0.0
O18 O 0.25381 0.53315 0.22975 0.0
O19 O 0.22868 0.73627 0.02818 0.0
O20 O 0.36006 0.62966 0.03342 0.0
O21 O 0.11943 0.50949 0.08206 0.0
Sc22 Sc 0.71055 0.27488 0.05666 0.0
Sc23 Sc 0.86073 0.43778 0.0071 0.0
Sc24 Sc 0.70118 0.42696 0.06333 0.0
O25 O 0.75751 0.38018 0.042 0.0
C26 C 0.58618 0.28386 0.97996 0.0
C27 C 0.80093 0.29482 0.91528 0.0
C28 C 0.78874 0.5103 0.92277 0.0
C29 C 0.86422 0.33694 0.12776 0.0
C30 C 0.63992 0.31026 0.18535 0.0
C31 C 0.85611 0.54102 0.12708 0.0
O32 O 0.61864 0.25183 -0.00597 0.0
O33 O 0.84506 0.36119 0.92241 0.0
O34 O 0.7393 0.49049 0.96843 0.0
O35 O 0.79788 0.29125 0.12211 0.0
O36 O 0.65446 0.36969 0.16119 0.0
O37 O 0.88874 0.52153 0.08571 0.0
O38 O 0.65768 0.27168 0.15311 0.0
O39 O 0.89643 0.39051 0.0871 0.0
O40 O 0.7881 0.51037 0.12715 0.0
O41 O 0.75375 0.25987 0.96147 0.0
O42 O 0.60873 0.34697 0.00144 0.0
O43 O 0.83576 0.49314 0.92693 0.0
Zn44 Zn 0.15587 0.16322 0.43726 0.0
Zn45 Zn 0.14902 0.01673 0.43151 0.0
O46 O 0.08757 0.0582 0.42745 0.0
H47 H 0.03881 0.03579 0.40953 0.0
C48 C 0.1407 0.26079 0.58784 0.0
O49 O 0.09387 0.25467 0.63506 0.0
Zn50 Zn 0.86818 0.87079 0.73678 0.0
Zn51 Zn 0.87193 0.01727 0.73321 0.0
O52 O 0.93302 0.97527 0.73954 0.0
H53 H 0.97933 0.99993 0.76353 0.0
Zn54 Zn 0.1232 0.13436 0.66054 0.0
O55 O 0.08249 0.0365 0.61844 0.0
Zn56 Zn 0.10501 0.97904 0.68425 0.0
H57 H 0.06832 0.02703 0.56837 0.0
Zn58 Zn 0.90646 0.01807 0.49938 0.0
O59 O 0.93729 0.95825 0.5514 0.0
H60 H 0.94799 0.9632 0.60231 0.0
Zn61 Zn 0.9146 0.87631 0.48654 0.0
C62 C 0.85456 0.08705 0.59289 0.0
O63 O 0.79832 0.02246 0.58825 0.0
O64 O 0.2599 0.19213 0.42755 0.0
O65 O 0.25204 0.09024 0.402 0.0
O66 O 0.76809 0.94353 0.75746 0.0
O67 O 0.76735 0.8433 0.77031 0.0
O68 O 0.1897 0.15122 0.74593 0.0
O69 O 0.18479 0.04849 0.75416 0.0
C70 C 0.03223 0.8855 0.38397 0.0
O71 O 0.82107 0.95336 0.43093 0.0
O72 O 0.83074 0.85833 0.42248 0.0
O73 O 0.91976 0.11365 0.78639 0.0
C74 C 0.28869 0.15778 0.4084 0.0
O75 O 0.13059 0.22179 0.37262 0.0
C76 C 0.98561 0.86205 0.78063 0.0
O77 O 0.16084 0.21663 0.58799 0.0
C78 C 0.73562 0.87804 0.7727 0.0
O79 O 0.90993 0.10134 0.55803 0.0
C80 C 0.14918 0.93679 0.55906 0.0
O81 O 0.09812 0.92696 0.36979 0.0
O82 O 0.00584 0.90576 0.43225 0.0
C83 C 0.2105 0.11279 0.77415 0.0
O84 O 0.91968 0.83406 0.7957 0.0
O85 O 0.0118 0.91128 0.73448 0.0
C86 C 0.87043 0.78875 0.61113 0.0
O87 O 0.13455 0.92112 0.62482 0.0
O88 O 0.14953 0.99027 0.535 0.0
C89 C 0.79912 0.89125 0.40638 0.0
O90 O 0.88795 0.78929 0.54614 0.0
O91 O 0.86629 0.84041 0.63414 0.0
C92 C 0.98729 0.15246 0.78099 0.0
O93 O 0.02044 0.13146 0.73909 0.0
C94 C 0.07282 0.22004 0.38307 0.0
O95 O 0.03149 0.18164 0.43567 0.0
H96 H 0.13066 0.70333 0.34993 0.0
H97 H 0.30087 0.89002 0.24907 0.0
H98 H 0.29757 0.96403 0.34376 0.0
H99 H 0.24493 0.97687 0.45354 0.0
H100 H 0.0735 0.79257 0.55423 0.0
H101 H 0.07982 0.71632 0.46246 0.0
C102 C 0.16716 0.76015 0.3487 0.0
C103 C 0.21583 0.79076 0.29206 0.0
C104 C 0.16528 0.80285 0.40373 0.0
C105 C 0.26276 0.86466 0.2917 0.0
C106 C 0.26112 0.90726 0.34599 0.0
C107 C 0.20919 0.91999 0.45529 0.0
C108 C 0.15837 0.89022 0.50962 0.0
C109 C 0.21251 0.87701 0.402 0.0
C110 C 0.11316 0.81644 0.51269 0.0
C111 C 0.11644 0.77302 0.46 0.0
H112 H 0.58057 0.36932 0.26522 0.0
H113 H 0.58459 0.17803 0.24075 0.0
H114 H 0.4793 0.11457 0.31483 0.0
H115 H 0.37514 0.10871 0.37026 0.0
H116 H 0.37254 0.30077 0.39525 0.0
H117 H 0.48793 0.36787 0.33819 0.0
C118 C 0.55955 0.31421 0.27741 0.0
C119 C 0.58956 0.27837 0.24568 0.0
C120 C 0.49817 0.27742 0.31935 0.0
C121 C 0.5621 0.20708 0.26332 0.0
C122 C 0.50143 0.17035 0.30548 0.0
C123 C 0.40035 0.16539 0.36427 0.0
C124 C 0.36416 0.19901 0.38548 0.0
C125 C 0.46713 0.2042 0.33104 0.0
C126 C 0.39839 0.27291 0.37853 0.0
C127 C 0.4646 0.31165 0.34573 0.0
H128 H 0.27247 0.46343 0.32402 0.0
H129 H 0.08842 0.48186 0.35698 0.0
H130 H 0.05795 0.4086 0.46341 0.0
H131 H 0.07924 0.33345 0.54319 0.0
H132 H 0.25941 0.30993 0.50614 0.0
H133 H 0.29602 0.39166 0.40593 0.0
C134 C 0.22605 0.45211 0.35476 0.0
C135 C 0.18297 0.47838 0.3322 0.0
C136 C 0.20814 0.40908 0.41548 0.0
C137 C 0.12279 0.46262 0.37285 0.0
C138 C 0.10525 0.4207 0.43391 0.0
C139 C 0.12715 0.34711 0.5139 0.0
C140 C 0.16638 0.31548 0.5319 0.0
C141 C 0.14704 0.39296 0.45527 0.0
C142 C 0.22802 0.33324 0.49306 0.0
C143 C 0.24899 0.37995 0.4357 0.0
H144 H 1.00123 0.36352 0.13226 0.0
H145 H 0.8123 0.28858 0.25905 0.0
H146 H 0.86398 0.25275 0.35352 0.0
H147 H 0.95539 0.22924 0.39328 0.0
H148 H 0.14222 0.29723 0.26458 0.0
H149 H 0.09924 0.34965 0.17792 0.0
C150 C 0.97206 0.34034 0.1808 0.0
C151 C 0.90259 0.32725 0.18784 0.0
C152 C 1.00121 0.31766 0.23418 0.0
C153 C 0.86544 0.29777 0.25174 0.0
C154 C 0.89484 0.27725 0.30583 0.0
C155 C 0.98694 0.25579 0.34649 0.0
C156 C 0.05091 0.25791 0.33454 0.0
C157 C 0.96142 0.2845 0.29641 0.0
C158 C 0.09194 0.29376 0.27435 0.0
C159 C 0.06751 0.32383 0.22478 0.0
H160 H 0.51397 0.68732 0.23216 0.0
H161 H 0.48554 0.86388 0.26153 0.0
H162 H 0.60074 0.92982 0.32548 0.0
H163 H 0.70909 0.93711 0.37316 0.0
H164 H 0.7381 0.76095 0.34174 0.0
H165 H 0.62327 0.69549 0.2777 0.0
C166 C 0.53264 0.73999 0.25308 0.0
C167 C 0.491 0.77043 0.24251 0.0
C168 C 0.59929 0.77797 0.28879 0.0
C169 C 0.51654 0.8392 0.26898 0.0
C170 C 0.58245 0.87699 0.30543 0.0
C171 C 0.69065 0.88461 0.3519 0.0
C172 C 0.73225 0.85408 0.3625 0.0
C173 C 0.62436 0.84698 0.31539 0.0
C174 C 0.70727 0.78585 0.33458 0.0
C175 C 0.64143 0.74818 0.2981 0.0
H176 H 0.80853 0.59519 0.22961 0.0
H177 H 1.0021 0.62889 0.13409 0.0
H178 H 0.07277 0.73775 0.20408 0.0
H179 H 0.07973 0.82592 0.28942 0.0
H180 H 0.88797 0.7884 0.39181 0.0
H181 H 0.81683 0.67884 0.3225 0.0
C182 C 0.86621 0.62603 0.22422 0.0
C183 C 0.89944 0.60414 0.175 0.0
C184 C 0.90704 0.68826 0.26593 0.0
C185 C 0.97453 0.64468 0.17008 0.0
C186 C 0.01525 0.70703 0.2105 0.0
C187 C 0.0224 0.79371 0.297 0.0
C188 C 0.98917 0.81648 0.34508 0.0
C189 C 0.98202 0.72979 0.25796 0.0
C190 C 0.91494 0.77328 0.35449 0.0
C191 C 0.87418 0.71022 0.31494 0.0
H192 H 0.21031 0.8049 0.93011 0.0
H193 H 0.01526 0.62503 0.00801 0.0
H194 H 0.94457 0.66054 0.93945 0.0
H195 H 0.93781 0.74628 0.86326 0.0
H196 H 0.13105 0.92035 0.77675 0.0
H197 H 0.20255 0.88344 0.84242 0.0
C198 C 0.15236 0.77294 0.9315 0.0
C199 C 0.11852 0.7135 0.97611 0.0
C200 C 0.11154 0.79288 0.89066 0.0
C201 C 0.04315 0.67218 0.976 0.0
C202 C 1.00241 0.69221 0.9364 0.0
C203 C 0.99554 0.77597 0.85824 0.0
C204 C 0.02912 0.8372 0.81625 0.0
C205 C 0.03607 0.75325 0.89477 0.0
C206 C 0.10386 0.87416 0.80971 0.0
C207 C 0.14482 0.85274 0.84709 0.0
H208 H 0.48264 0.31597 0.96435 0.0
H209 H 0.53482 0.16005 0.90552 0.0
H210 H 0.41971 0.08957 0.84365 0.0
H211 H 0.30599 0.07366 0.80242 0.0
H212 H 0.2545 0.23074 0.85693 0.0
H213 H 0.36683 0.29835 0.92547 0.0
C214 C 0.46901 0.26682 0.93765 0.0
C215 C 0.51753 0.24368 0.93944 0.0
C216 C 0.40244 0.22615 0.90208 0.0
C217 C 0.49859 0.17933 0.90512 0.0
C218 C 0.43261 0.13871 0.8698 0.0
C219 C 0.31876 0.12202 0.83037 0.0
C220 C 0.27216 0.14715 0.82468 0.0
C221 C 0.38419 0.16161 0.86786 0.0
C222 C 0.28976 0.21038 0.86045 0.0
C223 C 0.3541 0.24928 0.8993 0.0
H224 H 0.20349 0.41857 0.96924 0.0
H225 H 0.00871 0.41261 0.01794 0.0
H226 H 0.94027 0.30784 0.94164 0.0
H227 H 0.93555 0.21717 0.86186 0.0
H228 H 0.13214 0.23248 0.80073 0.0
H229 H 0.20029 0.33522 0.88018 0.0
C230 C 0.14608 0.39466 0.96301 0.0
C231 C 0.11086 0.42175 0.00189 0.0
C232 C 0.10753 0.33673 0.91588 0.0
C233 C 0.03681 0.39129 0.99102 0.0
C234 C 0.99767 0.33186 0.94658 0.0
C235 C 0.99337 0.24375 0.86488 0.0
C236 C 0.02863 0.21738 0.82526 0.0
C237 C 0.03242 0.30395 0.90901 0.0
C238 C 0.10361 0.25182 0.83052 0.0
C239 C 0.14267 0.31054 0.87601 0.0
H240 H 0.90488 0.33154 0.8111 0.0
H241 H 0.69397 0.16433 0.87347 0.0
H242 H 0.69115 0.08892 0.77815 0.0
H243 H 0.74922 0.06536 0.68223 0.0
H244 H 0.95977 0.22734 0.61592 0.0
H245 H 0.96171 0.30902 0.70672 0.0
C246 C 0.85815 0.27894 0.80329 0.0
C247 C 0.8005 0.25383 0.85105 0.0
C248 C 0.85659 0.23427 0.74756 0.0
C249 C 0.74015 0.18532 0.83927 0.0
C250 C 0.73806 0.14168 0.78427 0.0
C251 C 0.79544 0.11874 0.68682 0.0
C252 C 0.85453 0.13972 0.64271 0.0
C253 C 0.79629 0.16493 0.73907 0.0
C254 C 0.91373 0.2094 0.64968 0.0
C255 C 0.91476 0.25625 0.70155 0.0
H256 H 0.44358 0.80017 0.91056 0.0
H257 H 0.43707 0.60618 0.95397 0.0
H258 H 0.54386 0.64629 0.88288 0.0
H259 H 0.64834 0.74314 0.82195 0.0
H260 H 0.6542 0.93732 0.78076 0.0
H261 H 0.53892 0.8901 0.83695 0.0
C262 C 0.46446 0.76587 0.90339 0.0
C263 C 0.43269 0.70077 0.93888 0.0
C264 C 0.52688 0.78977 0.86361 0.0
C265 C 0.46051 0.65695 0.92803 0.0
C266 C 0.52206 0.68 0.88764 0.0
C267 C 0.62397 0.77475 0.82437 0.0
C268 C 0.66095 0.84423 0.79828 0.0
C269 C 0.55728 0.74747 0.85744 0.0
C270 C 0.62787 0.88403 0.80125 0.0
C271 C 0.56164 0.8571 0.83341 0.0
H272 H 0.88074 0.56309 0.80871 0.0
H273 H 0.70574 0.5674 0.90715 0.0
H274 H 0.71475 0.65178 0.81917 0.0
H275 H 0.77395 0.7278 0.71639 0.0
H276 H 0.94748 0.7243 0.61536 0.0
H277 H 0.93707 0.63619 0.70142 0.0
C278 C 0.84416 0.58194 0.81055 0.0
C279 C 0.79272 0.55849 0.865 0.0
C280 C 0.84927 0.63084 0.75916 0.0
C281 C 0.74593 0.58399 0.86622 0.0
C282 C 0.75098 0.63258 0.81584 0.0
C283 C 0.80929 0.7075 0.71324 0.0
C284 C 0.86182 0.73286 0.66035 0.0
C285 C 0.80273 0.65683 0.76252 0.0
C286 C 0.90664 0.70548 0.65585 0.0
C287 C 0.9008 0.65528 0.70513 0.0
loop_
_geom_bond_atom_site_label_1
_geom_bond_atom_site_label_2
_geom_bond_distance
_geom_bond_site_symmetry_2
_ccdc_geom_bond_type
Sc0 O3 2.025 . S
Sc0 O10 2.105 . S
Sc0 O13 2.105 . S
Sc0 O16 2.105 . S
Sc0 O19 2.105 . S
Sc1 O3 2.025 . S
Sc1 O11 2.105 . S
Sc1 O15 2.105 . S
Sc1 O17 2.105 . S
Sc1 O21 2.105 . S
Sc2 O3 2.025 . S
Sc2 O12 2.105 . S
Sc2 O14 2.105 . S
Sc2 O18 2.105 . S
Sc2 O20 2.105 . S
O3 Sc0 2.025 . S
O3 Sc1 2.025 . S
O3 Sc2 2.025 . S
C4 O10 1.268 . S
C4 O20 1.268 . S
C5 O11 1.268 . S
C5 O19 1.268 . S
C6 O12 1.268 . S
C6 O21 1.268 . S
C7 O13 1.268 . S
C7 O17 1.268 . S
C8 O14 1.268 . S
C8 O16 1.268 . S
C9 O15 1.268 . S
C9 O18 1.268 . S
O10 Sc0 2.105 . S
O10 C4 1.268 . S
O11 Sc1 2.105 . S
O11 C5 1.268 . S
O12 Sc2 2.105 . S
O12 C6 1.268 . S
O13 Sc0 2.105 . S
O13 C7 1.268 . S
O14 Sc2 2.105 . S
O14 C8 1.268 . S
O15 Sc1 2.105 . S
O15 C9 1.268 . S
O16 Sc0 2.105 . S
O16 C8 1.268 . S
O17 Sc1 2.105 . S
O17 C7 1.268 . S
O18 Sc2 2.105 . S
O18 C9 1.268 . S
O19 Sc0 2.105 . S
O19 C5 1.268 . S
O20 Sc2 2.105 . S
O20 C4 1.268 . S
O21 Sc1 2.105 . S
O21 C6 1.268 . S
Sc22 O25 2.025 . S
Sc22 O32 2.105 1_554 S
Sc22 O35 2.105 . S
Sc22 O38 2.105 . S
Sc22 O41 2.105 1_554 S
Sc23 O25 2.025 . S
Sc23 O33 2.105 1_554 S
Sc23 O37 2.105 . S
Sc23 O39 2.105 . S
Sc23 O43 2.105 1_554 S
Sc24 O25 2.025 . S
Sc24 O34 2.105 1_554 S
Sc24 O36 2.105 . S
Sc24 O40 2.105 . S
Sc24 O42 2.105 1_554 S
O25 Sc22 2.025 . S
O25 Sc23 2.025 . S
O25 Sc24 2.025 . S
C26 O32 1.268 . S
C26 O42 1.268 . S
C27 O33 1.268 . S
C27 O41 1.268 . S
C28 O34 1.268 . S
C28 O43 1.268 . S
C29 O35 1.268 . S
C29 O39 1.268 . S
C30 O36 1.268 . S
C30 O38 1.268 . S
C31 O37 1.268 . S
C31 O40 1.268 . S
O32 Sc22 2.105 1_556 S
O32 C26 1.268 . S
O33 Sc23 2.105 1_556 S
O33 C27 1.268 . S
O34 Sc24 2.105 1_556 S
O34 C28 1.268 . S
O35 Sc22 2.105 . S
O35 C29 1.268 . S
O36 Sc24 2.105 . S
O36 C30 1.268 . S
O37 Sc23 2.105 . S
O37 C31 1.268 . S
O38 Sc22 2.105 . S
O38 C30 1.268 . S
O39 Sc23 2.105 . S
O39 C29 1.268 . S
O40 Sc24 2.105 . S
O40 C31 1.268 . S
O41 Sc22 2.105 1_556 S
O41 C27 1.268 . S
O42 Sc24 2.105 1_556 S
O42 C26 1.268 . S
O43 Sc23 2.105 1_556 S
O43 C28 1.268 . S
Zn44 O46 1.933 . S
Zn44 O64 1.985 . S
Zn44 O75 1.955 1_455 S
Zn45 O46 1.911 1_565 S
Zn45 O65 1.970 1_565 S
Zn45 O81 1.945 . S
Zn45 O88 1.981 . S
O46 Zn44 1.933 . S
O46 Zn45 1.911 1_545 S
O46 H47 0.841 1_445 S
H47 O46 0.841 1_665 S
C48 O49 1.246 . S
C48 O77 1.276 . S
O49 C48 1.246 . S
Zn50 O52 1.911 . S
Zn50 O67 1.970 . S
Zn50 O84 1.945 1_655 S
Zn50 O91 1.981 . S
Zn51 O52 1.933 1_545 S
Zn51 O66 1.985 1_545 S
Zn51 O73 1.955 1_655 S
O52 Zn50 1.911 . S
O52 Zn51 1.933 1_565 S
O52 H53 0.841 1_665 S
H53 O52 0.841 1_445 S
Zn54 O55 1.933 . S
Zn54 O68 1.985 . S
Zn54 O77 1.955 . S
O55 Zn54 1.933 . S
O55 Zn56 1.911 . S
O55 H57 0.841 . S
Zn56 O55 1.911 . S
Zn56 O69 1.970 . S
Zn56 O85 1.981 1_545 S
Zn56 O87 1.945 1_545 S
H57 O55 0.841 . S
Zn58 O59 1.933 . S
Zn58 O71 1.985 . S
Zn58 O79 1.955 1_565 S
O59 Zn58 1.933 . S
O59 H60 0.841 . S
O59 Zn61 1.911 . S
H60 O59 0.841 . S
Zn61 O59 1.911 . S
Zn61 O72 1.970 . S
Zn61 O82 1.981 . S
Zn61 O90 1.945 . S
C62 O63 1.246 . S
C62 O79 1.276 . S
O63 C62 1.246 . S
O64 Zn44 1.985 . S
O64 C74 1.245 . S
O65 Zn45 1.970 1_545 S
O65 C74 1.263 . S
O66 Zn51 1.985 1_565 S
O66 C78 1.245 . S
O67 Zn50 1.970 . S
O67 C78 1.263 . S
O68 Zn54 1.985 . S
O68 C83 1.245 . S
O69 Zn56 1.970 . S
O69 C83 1.263 . S
C70 O81 1.262 1_655 S
C70 O82 1.245 . S
O71 Zn58 1.985 . S
O71 C89 1.245 . S
O72 Zn61 1.970 . S
O72 C89 1.263 . S
O73 Zn51 1.955 1_455 S
O73 C92 1.276 . S
C74 O64 1.245 . S
C74 O65 1.263 . S
O75 Zn44 1.955 1_655 S
O75 C94 1.276 . S
C76 O84 1.262 . S
C76 O85 1.245 . S
O77 C48 1.276 . S
O77 Zn54 1.955 . S
C78 O66 1.245 . S
C78 O67 1.263 . S
O79 Zn58 1.955 1_545 S
O79 C62 1.276 . S
C80 O87 1.262 . S
C80 O88 1.245 . S
O81 Zn45 1.945 . S
O81 C70 1.262 1_455 S
O82 Zn61 1.981 . S
O82 C70 1.245 . S
C83 O68 1.245 . S
C83 O69 1.263 . S
O84 Zn50 1.945 1_455 S
O84 C76 1.262 . S
O85 Zn56 1.981 1_565 S
O85 C76 1.245 . S
C86 O90 1.262 . S
C86 O91 1.245 . S
O87 Zn56 1.945 1_565 S
O87 C80 1.262 . S
O88 Zn45 1.981 . S
O88 C80 1.245 . S
C89 O71 1.245 . S
C89 O72 1.263 . S
O90 Zn61 1.945 . S
O90 C86 1.262 . S
O91 Zn50 1.981 . S
O91 C86 1.245 . S
C92 O73 1.276 . S
C92 O93 1.246 . S
O93 C92 1.246 . S
C94 O75 1.276 . S
C94 O95 1.246 . S
O95 C94 1.246 . S
H96 C102 0.930 . S
H97 C105 0.930 . S
H98 C106 0.930 . S
H99 C107 0.930 . S
H100 C110 0.930 . S
H101 C111 0.930 . S
C102 H96 0.930 . S
C102 C103 1.355 . S
C102 C104 1.415 . S
C103 C102 1.355 . S
C103 C105 1.419 . S
C104 C102 1.415 . S
C104 C109 1.425 . S
C104 C111 1.409 . S
C105 H97 0.930 . S
C105 C103 1.419 . S
C105 C106 1.362 . S
C106 H98 0.930 . S
C106 C105 1.362 . S
C106 C109 1.409 . S
C107 H99 0.930 . S
C107 C108 1.355 . S
C107 C109 1.415 . S
C108 C107 1.355 . S
C108 C110 1.419 . S
C109 C104 1.425 . S
C109 C106 1.409 . S
C109 C107 1.415 . S
C110 H100 0.930 . S
C110 C108 1.419 . S
C110 C111 1.362 . S
C111 H101 0.930 . S
C111 C104 1.409 . S
C111 C110 1.362 . S
H112 C118 0.930 . S
H113 C121 0.930 . S
H114 C122 0.930 . S
H115 C123 0.930 . S
H116 C126 0.930 . S
H117 C127 0.930 . S
C118 H112 0.930 . S
C118 C119 1.355 . S
C118 C120 1.415 . S
C119 C118 1.355 . S
C119 C121 1.419 . S
C120 C118 1.415 . S
C120 C125 1.425 . S
C120 C127 1.409 . S
C121 H113 0.930 . S
C121 C119 1.419 . S
C121 C122 1.362 . S
C122 H114 0.930 . S
C122 C121 1.362 . S
C122 C125 1.409 . S
C123 H115 0.930 . S
C123 C124 1.355 . S
C123 C125 1.415 . S
C124 C123 1.355 . S
C124 C126 1.419 . S
C125 C120 1.425 . S
C125 C122 1.409 . S
C125 C123 1.415 . S
C126 H116 0.930 . S
C126 C124 1.419 . S
C126 C127 1.362 . S
C127 H117 0.930 . S
C127 C120 1.409 . S
C127 C126 1.362 . S
H128 C134 0.930 . S
H129 C137 0.930 . S
H130 C138 0.930 . S
H131 C139 0.930 . S
H132 C142 0.930 . S
H133 C143 0.930 . S
C134 H128 0.930 . S
C134 C135 1.355 . S
C134 C136 1.415 . S
C135 C134 1.355 . S
C135 C137 1.419 . S
C136 C134 1.415 . S
C136 C141 1.425 . S
C136 C143 1.409 . S
C137 H129 0.930 . S
C137 C135 1.419 . S
C137 C138 1.362 . S
C138 H130 0.930 . S
C138 C137 1.362 . S
C138 C141 1.409 . S
C139 H131 0.930 . S
C139 C140 1.355 . S
C139 C141 1.415 . S
C140 C139 1.355 . S
C140 C142 1.419 . S
C141 C136 1.425 . S
C141 C138 1.409 . S
C141 C139 1.415 . S
C142 H132 0.930 . S
C142 C140 1.419 . S
C142 C143 1.362 . S
C143 H133 0.930 . S
C143 C136 1.409 . S
C143 C142 1.362 . S
H144 C150 0.930 . S
H145 C153 0.930 . S
H146 C154 0.930 . S
H147 C155 0.930 . S
H148 C158 0.933 . S
H149 C159 0.930 . S
C150 H144 0.930 . S
C150 C151 1.355 . S
C150 C152 1.415 . S
C151 C150 1.355 . S
C151 C153 1.419 . S
C152 C150 1.415 . S
C152 C157 1.425 . S
C152 C159 1.409 . S
C153 H145 0.930 . S
C153 C151 1.419 . S
C153 C154 1.362 . S
C154 H146 0.930 . S
C154 C153 1.362 . S
C154 C157 1.409 . S
C155 H147 0.930 . S
C155 C156 1.355 . S
C155 C157 1.415 . S
C156 C155 1.355 . S
C156 C158 1.419 . S
C157 C152 1.425 . S
C157 C154 1.409 . S
C157 C155 1.415 . S
C158 H148 0.933 . S
C158 C156 1.419 . S
C158 C159 1.362 . S
C159 H149 0.930 . S
C159 C152 1.409 . S
C159 C158 1.362 . S
H160 C166 0.930 . S
H161 C169 0.930 . S
H162 C170 0.930 . S
H163 C171 0.930 . S
H164 C174 0.930 . S
H165 C175 0.930 . S
C166 H160 0.930 . S
C166 C167 1.355 . S
C166 C168 1.415 . S
C167 C166 1.355 . S
C167 C169 1.419 . S
C168 C166 1.415 . S
C168 C173 1.425 . S
C168 C175 1.409 . S
C169 H161 0.930 . S
C169 C167 1.419 . S
C169 C170 1.362 . S
C170 H162 0.930 . S
C170 C169 1.362 . S
C170 C173 1.409 . S
C171 H163 0.930 . S
C171 C172 1.355 . S
C171 C173 1.415 . S
C172 C171 1.355 . S
C172 C174 1.419 . S
C173 C168 1.425 . S
C173 C170 1.409 . S
C173 C171 1.415 . S
C174 H164 0.930 . S
C174 C172 1.419 . S
C174 C175 1.362 . S
C175 H165 0.930 . S
C175 C168 1.409 . S
C175 C174 1.362 . S
H176 C182 0.930 . S
H177 C185 0.930 . S
H178 C186 0.930 . S
H179 C187 0.930 . S
H180 C190 0.930 . S
H181 C191 0.930 . S
C182 H176 0.930 . S
C182 C183 1.355 . S
C182 C184 1.415 . S
C183 C182 1.355 . S
C183 C185 1.419 . S
C184 C182 1.415 . S
C184 C189 1.425 . S
C184 C191 1.409 . S
C185 H177 0.930 . S
C185 C183 1.419 . S
C185 C186 1.362 . S
C186 H178 0.930 . S
C186 C185 1.362 . S
C186 C189 1.409 . S
C187 H179 0.930 . S
C187 C188 1.355 . S
C187 C189 1.415 . S
C188 C187 1.355 . S
C188 C190 1.419 . S
C189 C184 1.425 . S
C189 C186 1.409 . S
C189 C187 1.415 . S
C190 H180 0.930 . S
C190 C188 1.419 . S
C190 C191 1.362 . S
C191 H181 0.930 . S
C191 C184 1.409 . S
C191 C190 1.362 . S
H192 C198 0.930 . S
H193 C201 0.930 . S
H194 C202 0.930 1_554 S
H195 C203 0.930 . S
H196 C206 0.930 . S
H197 C207 0.930 . S
C198 H192 0.930 . S
C198 C199 1.355 . S
C198 C200 1.415 . S
C199 C198 1.355 . S
C199 C201 1.419 1_556 S
C200 C198 1.415 . S
C200 C205 1.425 . S
C200 C207 1.409 . S
C201 H193 0.930 . S
C201 C199 1.419 1_554 S
C201 C202 1.362 1_554 S
C202 H194 0.930 1_556 S
C202 C201 1.362 1_556 S
C202 C205 1.409 . S
C203 H195 0.930 . S
C203 C204 1.355 . S
C203 C205 1.415 . S
C204 C203 1.355 . S
C204 C206 1.419 . S
C205 C200 1.425 . S
C205 C202 1.409 . S
C205 C203 1.415 . S
C206 H196 0.930 . S
C206 C204 1.419 . S
C206 C207 1.362 . S
C207 H197 0.930 . S
C207 C200 1.409 . S
C207 C206 1.362 . S
H208 C214 0.930 . S
H209 C217 0.930 . S
H210 C218 0.930 . S
H211 C219 0.930 . S
H212 C222 0.930 . S
H213 C223 0.930 . S
C214 H208 0.930 . S
C214 C215 1.355 . S
C214 C216 1.415 . S
C215 C214 1.355 . S
C215 C217 1.419 . S
C216 C214 1.415 . S
C216 C221 1.425 . S
C216 C223 1.409 . S
C217 H209 0.930 . S
C217 C215 1.419 . S
C217 C218 1.362 . S
C218 H210 0.930 . S
C218 C217 1.362 . S
C218 C221 1.409 . S
C219 H211 0.930 . S
C219 C220 1.355 . S
C219 C221 1.415 . S
C220 C219 1.355 . S
C220 C222 1.419 . S
C221 C216 1.425 . S
C221 C218 1.409 . S
C221 C219 1.415 . S
C222 H212 0.930 . S
C222 C220 1.419 . S
C222 C223 1.362 . S
C223 H213 0.930 . S
C223 C216 1.409 . S
C223 C222 1.362 . S
H224 C230 0.930 . S
H225 C233 0.930 . S
H226 C234 0.930 . S
H227 C235 0.930 . S
H228 C238 0.930 . S
H229 C239 0.930 . S
C230 H224 0.930 . S
C230 C231 1.355 . S
C230 C232 1.415 . S
C231 C230 1.355 . S
C231 C233 1.419 . S
C232 C230 1.415 . S
C232 C237 1.425 . S
C232 C239 1.409 . S
C233 H225 0.930 . S
C233 C231 1.419 . S
C233 C234 1.362 . S
C234 H226 0.930 . S
C234 C233 1.362 . S
C234 C237 1.409 . S
C235 H227 0.930 . S
C235 C236 1.355 . S
C235 C237 1.415 . S
C236 C235 1.355 . S
C236 C238 1.419 . S
C237 C232 1.425 . S
C237 C234 1.409 . S
C237 C235 1.415 . S
C238 H228 0.930 . S
C238 C236 1.419 . S
C238 C239 1.362 . S
C239 H229 0.930 . S
C239 C232 1.409 . S
C239 C238 1.362 . S
H240 C246 0.930 . S
H241 C249 0.930 . S
H242 C250 0.930 . S
H243 C251 0.930 . S
H244 C254 0.930 . S
H245 C255 0.930 . S
C246 H240 0.930 . S
C246 C247 1.355 . S
C246 C248 1.415 . S
C247 C246 1.355 . S
C247 C249 1.419 . S
C248 C246 1.415 . S
C248 C253 1.425 . S
C248 C255 1.409 . S
C249 H241 0.930 . S
C249 C247 1.419 . S
C249 C250 1.362 . S
C250 H242 0.930 . S
C250 C249 1.362 . S
C250 C253 1.409 . S
C251 H243 0.930 . S
C251 C252 1.355 . S
C251 C253 1.415 . S
C252 C251 1.355 . S
C252 C254 1.419 . S
C253 C248 1.425 . S
C253 C250 1.409 . S
C253 C251 1.415 . S
C254 H244 0.930 . S
C254 C252 1.419 . S
C254 C255 1.362 . S
C255 H245 0.930 . S
C255 C248 1.409 . S
C255 C254 1.362 . S
H256 C262 0.930 1_554 S
H257 C265 0.930 . S
H258 C266 0.930 . S
H259 C267 0.930 . S
H260 C270 0.930 . S
H261 C271 0.930 . S
C262 H256 0.930 1_556 S
C262 C263 1.355 . S
C262 C264 1.415 . S
C263 C262 1.355 . S
C263 C265 1.419 . S
C264 C262 1.415 . S
C264 C269 1.425 . S
C264 C271 1.409 . S
C265 H257 0.930 . S
C265 C263 1.419 . S
C265 C266 1.362 . S
C266 H258 0.930 . S
C266 C265 1.362 . S
C266 C269 1.409 . S
C267 H259 0.930 . S
C267 C268 1.355 . S
C267 C269 1.415 . S
C268 C267 1.355 . S
C268 C270 1.419 . S
C269 C264 1.425 . S
C269 C266 1.409 . S
C269 C267 1.415 . S
C270 H260 0.930 . S
C270 C268 1.419 . S
C270 C271 1.362 . S
C271 H261 0.930 . S
C271 C264 1.409 . S
C271 C270 1.362 . S
H272 C278 0.930 . S
H273 C281 0.930 . S
H274 C282 0.930 . S
H275 C283 0.930 . S
H276 C286 0.930 . S
H277 C287 0.930 . S
C278 H272 0.930 . S
C278 C279 1.355 . S
C278 C280 1.415 . S
C279 C278 1.355 . S
C279 C281 1.419 . S
C280 C278 1.415 . S
C280 C285 1.425 . S
C280 C287 1.409 . S
C281 H273 0.930 . S
C281 C279 1.419 . S
C281 C282 1.362 . S
C282 H274 0.930 . S
C282 C281 1.362 . S
C282 C285 1.409 . S
C283 H275 0.930 . S
C283 C284 1.355 . S
C283 C285 1.415 . S
C284 C283 1.355 . S
C284 C286 1.419 . S
C285 C280 1.425 . S
C285 C282 1.409 . S
C285 C283 1.415 . S
C286 H276 0.930 . S
C286 C284 1.419 . S
C286 C287 1.362 . S
C287 H277 0.930 . S
C287 C280 1.409 . S
C287 C286 1.362 . S
C103 C7 1.440 . S
C108 C80 1.476 . S
C124 C74 1.733 . S
C119 C30 1.682 . S
C140 C48 1.487 . S
C135 C9 1.512 . S
C156 C94 1.865 . S
C151 C29 1.924 . S
C172 C89 0.468 . S
C167 C8 0.563 . S
C183 C31 1.831 . S
C188 C70 1.822 . S
C199 C5 1.823 1_556 S
C204 C76 1.832 . S
C215 C26 0.540 . S
C220 C83 0.450 . S
C231 C6 1.928 1_556 S
C236 C92 1.853 . S
C247 C27 1.468 . S
C252 C62 1.522 . S
C268 C78 1.735 . S
C263 C4 1.685 1_556 S
C279 C28 1.431 . S
C284 C86 1.487 . S
