# Generated by pormake.
# Topology zzz, (3,6)-cn, num edge types: 1
# Building blocks:
#     Node 0, Type 0, BuildingBlock: OLANEW_clean_sbu_2, # of connection points: 3
#     Node 1, Type 0, BuildingBlock: OLANEW_clean_sbu_2, # of connection points: 3
#     Node 2, Type 0, BuildingBlock: OLANEW_clean_sbu_2, # of connection points: 3
#     Node 3, Type 0, BuildingBlock: OLANEW_clean_sbu_2, # of connection points: 3
#     Node 4, Type 0, BuildingBlock: OLANEW_clean_sbu_2, # of connection points: 3
#     Node 5, Type 0, BuildingBlock: OLANEW_clean_sbu_2, # of connection points: 3
#     Node 6, Type 0, BuildingBlock: OLANEW_clean_sbu_2, # of connection points: 3
#     Node 7, Type 0, BuildingBlock: OLANEW_clean_sbu_2, # of connection points: 3
#     Node 8, Type 1, BuildingBlock: BETFAJ_clean_sbu_0, # of connection points: 6
#     Node 9, Type 1, BuildingBlock: BETFAJ_clean_sbu_0, # of connection points: 6
#     Node 10, Type 1, BuildingBlock: BETFAJ_clean_sbu_0, # of connection points: 6
#     Node 11, Type 1, BuildingBlock: BETFAJ_clean_sbu_0, # of connection points: 6
#     Edge 12, Type (0, 1), BuildingBlock: TEMPAE_clean_linker_10, # of connection points: 2
#     Edge 13, Type (0, 1), BuildingBlock: TEMPAE_clean_linker_10, # of connection points: 2
#     Edge 14, Type (0, 1), BuildingBlock: TEMPAE_clean_linker_10, # of connection points: 2
#     Edge 15, Type (0, 1), BuildingBlock: TEMPAE_clean_linker_10, # of connection points: 2
#     Edge 16, Type (0, 1), BuildingBlock: TEMPAE_clean_linker_10, # of connection points: 2
#     Edge 17, Type (0, 1), BuildingBlock: TEMPAE_clean_linker_10, # of connection points: 2
#     Edge 18, Type (0, 1), BuildingBlock: TEMPAE_clean_linker_10, # of connection points: 2
#     Edge 19, Type (0, 1), BuildingBlock: TEMPAE_clean_linker_10, # of connection points: 2
#     Edge 20, Type (0, 1), BuildingBlock: TEMPAE_clean_linker_10, # of connection points: 2
#     Edge 21, Type (0, 1), BuildingBlock: TEMPAE_clean_linker_10, # of connection points: 2
#     Edge 22, Type (0, 1), BuildingBlock: TEMPAE_clean_linker_10, # of connection points: 2
#     Edge 23, Type (0, 1), BuildingBlock: TEMPAE_clean_linker_10, # of connection points: 2
#     Edge 24, Type (0, 1), BuildingBlock: TEMPAE_clean_linker_10, # of connection points: 2
#     Edge 25, Type (0, 1), BuildingBlock: TEMPAE_clean_linker_10, # of connection points: 2
#     Edge 26, Type (0, 1), BuildingBlock: TEMPAE_clean_linker_10, # of connection points: 2
#     Edge 27, Type (0, 1), BuildingBlock: TEMPAE_clean_linker_10, # of connection points: 2
#     Edge 28, Type (0, 1), BuildingBlock: TEMPAE_clean_linker_10, # of connection points: 2
#     Edge 29, Type (0, 1), BuildingBlock: TEMPAE_clean_linker_10, # of connection points: 2
#     Edge 30, Type (0, 1), BuildingBlock: TEMPAE_clean_linker_10, # of connection points: 2
#     Edge 31, Type (0, 1), BuildingBlock: TEMPAE_clean_linker_10, # of connection points: 2
#     Edge 32, Type (0, 1), BuildingBlock: TEMPAE_clean_linker_10, # of connection points: 2
#     Edge 33, Type (0, 1), BuildingBlock: TEMPAE_clean_linker_10, # of connection points: 2
#     Edge 34, Type (0, 1), BuildingBlock: TEMPAE_clean_linker_10, # of connection points: 2
#     Edge 35, Type (0, 1), BuildingBlock: TEMPAE_clean_linker_10, # of connection points: 2
# Relax obj value: 0.251
# Max RMSD: 0.191
# Mean RMSD: 0.173
data_MOF--net-zzz--node1-OLANEW_clean_sbu_2--node2-BETFAJ_clean_sbu_0--edge1-TEMPAE_clean_linker_10
_symmetry_space_group_name_H-M    P1
_symmetry_Int_Tables_number       1
_symmetry_cell_setting            triclinic
loop_
_symmetry_equiv_pos_as_xyz
'x, y, z'
_cell_length_a     57.123687
_cell_length_b     57.158572
_cell_length_c     15.228359
_cell_angle_alpha  89.978564
_cell_angle_beta   89.98626
_cell_angle_gamma 90.010665
loop_
_atom_site_label
_atom_site_type_symbol
_atom_site_fract_x
_atom_site_fract_y
_atom_site_fract_z
_atom_type_partial_charge
O0 O 0.72606 0.57559 0.20102 0.0
Cd1 Cd 0.68788 0.58256 0.26833 0.0
O2 O 0.72484 0.54382 0.28112 0.0
Cd3 Cd 0.74313 0.51472 0.34268 0.0
O4 O 0.77569 0.50558 0.40765 0.0
C5 C 0.78758 0.52319 0.43218 0.0
O6 O 0.7791 0.54423 0.41806 0.0
C7 C 0.73558 0.55666 0.22607 0.0
C8 C 0.65325 0.55839 0.17757 0.0
O9 O 0.65635 0.58035 0.16521 0.0
O10 O 0.66631 0.54792 0.23353 0.0
O11 O 0.906 0.7262 0.17139 0.0
Cd12 Cd 0.89531 0.68701 0.22142 0.0
O13 O 0.92434 0.72742 0.29726 0.0
Cd14 Cd 0.94691 0.74397 0.3941 0.0
O15 O 0.96091 0.77307 0.46865 0.0
C16 C 0.94636 0.78462 0.51434 0.0
O17 O 0.92458 0.77729 0.51887 0.0
C18 C 0.9185 0.73743 0.22592 0.0
C19 C 0.91944 0.65255 0.12967 0.0
O20 O 0.89846 0.65816 0.10849 0.0
O21 O 0.92899 0.66319 0.19445 0.0
O22 O 0.76992 0.90513 0.19203 0.0
Cd23 Cd 0.80801 0.89283 0.2478 0.0
O24 O 0.77651 0.937 0.26807 0.0
Cd25 Cd 0.76255 0.96853 0.32871 0.0
O26 O 0.73132 0.98066 0.39616 0.0
C27 C 0.71848 0.96417 0.42479 0.0
O28 O 0.72544 0.94247 0.4132 0.0
C29 C 0.76335 0.92528 0.21707 0.0
C30 C 0.84307 0.91704 0.15931 0.0
O31 O 0.83713 0.89635 0.13579 0.0
O32 O 0.83271 0.92613 0.22568 0.0
O33 O 0.55627 0.77383 0.22062 0.0
Cd34 Cd 0.56632 0.81319 0.26989 0.0
O35 O 0.53305 0.77249 0.3352 0.0
Cd36 Cd 0.50945 0.75198 0.41604 0.0
O37 O 0.49994 0.71843 0.47132 0.0
C38 C 0.51624 0.70836 0.51341 0.0
O39 O 0.53608 0.71956 0.52524 0.0
C40 C 0.54203 0.76258 0.2686 0.0
C41 C 0.54998 0.84781 0.15729 0.0
O42 O 0.57033 0.83877 0.14704 0.0
O43 O 0.53728 0.84034 0.22083 0.0
O44 O 0.27237 0.57526 0.19198 0.0
Cd45 Cd 0.31247 0.58145 0.14297 0.0
O46 O 0.27347 0.54317 0.11358 0.0
Cd47 Cd 0.25652 0.51345 0.05009 0.0
O48 O 0.22422 0.49811 0.00163 0.0
C49 C 0.20915 0.51322 0.97842 0.0
O50 O 0.21467 0.5355 0.98373 0.0
C51 C 0.26237 0.55674 0.1652 0.0
C52 C 0.34298 0.56656 0.27354 0.0
O53 O 0.3377 0.58825 0.26575 0.0
O54 O 0.33415 0.55204 0.21871 0.0
O55 O 0.96395 0.26284 0.10914 0.0
Cd56 Cd 0.96185 0.30305 0.05806 0.0
O57 O 0.00224 0.26645 0.10799 0.0
Cd58 Cd 0.03583 0.24834 0.11196 0.0
O59 O 0.04483 0.21386 0.06176 0.0
C60 C 0.03056 0.20715 0.00291 0.0
O61 O 0.01418 0.2217 0.97666 0.0
C62 C 0.98408 0.25423 0.12328 0.0
C63 C 0.9727 0.33238 0.19791 0.0
O64 O 0.95155 0.32606 0.18275 0.0
O65 O 0.98873 0.32513 0.14568 0.0
O66 O 0.23709 0.944 0.16701 0.0
Cd67 Cd 0.19663 0.9385 0.1221 0.0
O68 O 0.23656 0.97708 0.09452 0.0
Cd69 Cd 0.25385 0.007 0.0339 0.0
O70 O 0.28653 0.0214 0.98524 0.0
C71 C 0.30059 0.00588 0.95742 0.0
O72 O 0.29386 0.98389 0.95843 0.0
C73 C 0.24756 0.96244 0.14221 0.0
C74 C 0.16677 0.95285 0.25575 0.0
O75 O 0.17406 0.93168 0.25124 0.0
O76 O 0.17348 0.96724 0.19626 0.0
O77 O 0.53349 0.2329 0.05382 0.0
Cd78 Cd 0.53636 0.19387 0.9921 0.0
O79 O 0.49617 0.22547 0.07492 0.0
Cd80 Cd 0.46153 0.23989 0.10239 0.0
O81 O 0.4498 0.27449 0.06194 0.0
C82 C 0.46151 0.28176 0.99644 0.0
O83 O 0.47669 0.26754 0.95964 0.0
C84 C 0.51364 0.23913 0.08305 0.0
C85 C 0.52948 0.16335 0.13152 0.0
O86 O 0.55002 0.17049 0.11082 0.0
O87 O 0.51221 0.17 0.08394 0.0
Sm88 Sm 0.01145 0.98387 0.83909 0.0
Sm89 Sm 0.99641 0.0032 0.65652 0.0
C90 C 0.01551 0.96024 0.98845 0.0
C91 C 0.00336 0.93972 0.02468 0.0
C92 C 0.98391 0.93037 0.98097 0.0
C93 C 0.97391 0.90941 0.00911 0.0
C94 C 0.98263 0.8977 0.08346 0.0
C95 C 0.00164 0.90763 0.12915 0.0
C96 C 0.01203 0.92838 0.09949 0.0
C97 C 0.04629 0.98803 0.71581 0.0
C98 C 0.98902 0.94875 0.6908 0.0
C99 C 0.99536 0.02379 0.5007 0.0
C100 C 0.99477 0.04763 0.46264 0.0
C101 C 0.01521 0.06125 0.45626 0.0
C102 C 0.01449 0.0835 0.41819 0.0
C103 C 0.99334 0.09261 0.38579 0.0
C104 C 0.97293 0.07898 0.39198 0.0
C105 C 0.97367 0.05668 0.42955 0.0
C106 C 0.96013 0.99769 0.77219 0.0
C107 C 0.01596 0.03941 0.81193 0.0
O108 O 0.00308 0.97931 0.98082 0.0
O109 O 0.02839 0.95616 0.9192 0.0
O110 O 0.02588 0.98071 0.7025 0.0
O111 O 0.04954 0.99274 0.7984 0.0
O112 O 0.98987 0.95441 0.77482 0.0
O113 O 0.99468 0.96392 0.62892 0.0
O114 O 0.01475 0.01717 0.53936 0.0
O115 O 0.97654 0.01664 0.54178 0.0
O116 O 0.98042 0.00482 0.79205 0.0
O117 O 0.9579 0.99535 0.68775 0.0
O118 O 0.01148 0.03567 0.72772 0.0
O119 O 0.01507 0.02259 0.87127 0.0
H120 H 0.97676 0.93899 0.92376 0.0
H121 H 0.95981 0.90196 0.97086 0.0
H122 H 0.00862 0.89927 0.18735 0.0
H123 H 0.02703 0.93539 0.13419 0.0
H124 H 0.03181 0.05476 0.48047 0.0
H125 H 0.03046 0.09369 0.4149 0.0
H126 H 0.95644 0.08542 0.36649 0.0
H127 H 0.9577 0.04647 0.43233 0.0
Sm128 Sm 0.52312 0.02647 0.79042 0.0
Sm129 Sm 0.5005 0.00749 0.60515 0.0
C130 C 0.54831 0.03151 0.93469 0.0
C131 C 0.56817 0.0185 0.97183 0.0
C132 C 0.57397 0.99625 0.93952 0.0
C133 C 0.59398 0.98471 0.96967 0.0
C134 C 0.60866 0.99528 0.03234 0.0
C135 C 0.60248 0.01741 0.06574 0.0
C136 C 0.58241 0.02891 0.03562 0.0
C137 C 0.51657 0.0581 0.65699 0.0
C138 C 0.55581 4e-05 0.64075 0.0
C139 C 0.48112 0.00758 0.44796 0.0
C140 C 0.45854 0.00045 0.41056 0.0
C141 C 0.45035 0.01127 0.33398 0.0
C142 C 0.42814 0.00589 0.30116 0.0
C143 C 0.41374 0.98956 0.34453 0.0
C144 C 0.42226 0.9785 0.42072 0.0
C145 C 0.44441 0.98399 0.45368 0.0
C146 C 0.50057 0.97334 0.73386 0.0
C147 C 0.46673 0.02743 0.76699 0.0
O148 O 0.52814 0.02058 0.93338 0.0
O149 O 0.55278 0.04277 0.86168 0.0
O150 O 0.52313 0.03727 0.64942 0.0
O151 O 0.51444 0.06384 0.73938 0.0
O152 O 0.55188 0.00397 0.72528 0.0
O153 O 0.53969 0.00343 0.57961 0.0
O154 O 0.48025 0.02556 0.50137 0.0
O155 O 0.49489 0.99071 0.4757 0.0
O156 O 0.50682 0.99428 0.73845 0.0
O157 O 0.49286 0.96938 0.65476 0.0
O158 O 0.46961 0.02371 0.6816 0.0
O159 O 0.48416 0.02703 0.82439 0.0
H160 H 0.56324 0.98794 0.88995 0.0
H161 H 0.59802 0.96757 0.94344 0.0
H162 H 0.61354 0.0262 0.11316 0.0
H163 H 0.5783 0.04617 0.06066 0.0
H164 H 0.46095 0.02423 0.30053 0.0
H165 H 0.42202 0.015 0.24316 0.0
H166 H 0.41178 0.96563 0.45509 0.0
H167 H 0.4504 0.97561 0.51343 0.0
Sm168 Sm 0.49003 0.50534 0.86274 0.0
Sm169 Sm 0.49829 0.48399 0.66264 0.0
C170 C 0.49995 0.52424 0.01681 0.0
C171 C 0.50252 0.54839 0.04931 0.0
C172 C 0.50987 0.56614 0.99193 0.0
C173 C 0.51379 0.58876 0.0227 0.0
C174 C 0.51057 0.59418 0.11191 0.0
C175 C 0.50279 0.57648 0.1693 0.0
C176 C 0.49885 0.55372 0.13816 0.0
C177 C 0.45289 0.51378 0.7499 0.0
C178 C 0.50385 0.53968 0.69542 0.0
C179 C 0.49391 0.46295 0.50884 0.0
C180 C 0.49584 0.43928 0.46991 0.0
C181 C 0.47634 0.42428 0.46689 0.0
C182 C 0.47802 0.4023 0.42719 0.0
C183 C 0.4992 0.39486 0.38946 0.0
C184 C 0.5187 0.40983 0.39256 0.0
C185 C 0.51701 0.43183 0.43197 0.0
C186 C 0.53631 0.48555 0.77233 0.0
C187 C 0.47825 0.45015 0.82661 0.0
O188 O 0.51578 0.51783 0.95951 0.0
O189 O 0.47876 0.51723 0.99602 0.0
O190 O 0.47179 0.50347 0.73655 0.0
O191 O 0.45238 0.52021 0.83193 0.0
O192 O 0.506 0.53531 0.78063 0.0
O193 O 0.4981 0.52346 0.63722 0.0
O194 O 0.47618 0.46691 0.56151 0.0
O195 O 0.51335 0.47294 0.53509 0.0
O196 O 0.51553 0.48111 0.79456 0.0
O197 O 0.53798 0.48763 0.68748 0.0
O198 O 0.48329 0.45293 0.74196 0.0
O199 O 0.48057 0.46689 0.88643 0.0
H200 H 0.51305 0.5624 0.92339 0.0
H201 H 0.51939 0.60202 0.9764 0.0
H202 H 0.5003 0.58008 0.23851 0.0
H203 H 0.49332 0.54022 0.18361 0.0
H204 H 0.4597 0.42955 0.49473 0.0
H205 H 0.46274 0.39107 0.42635 0.0
H206 H 0.53515 0.40472 0.36288 0.0
H207 H 0.53226 0.4431 0.43191 0.0
Sm208 Sm 0.98804 0.48366 0.80297 0.0
Sm209 Sm 0.00807 0.50015 0.62323 0.0
C210 C 0.9632 0.47835 0.94882 0.0
C211 C 0.94113 0.48835 0.98133 0.0
C212 C 0.93154 0.50836 0.94183 0.0
C213 C 0.9097 0.51678 0.96849 0.0
C214 C 0.89716 0.50556 0.03597 0.0
C215 C 0.90711 0.48575 0.07644 0.0
C216 C 0.92887 0.47719 0.04907 0.0
C217 C 0.99586 0.44931 0.68015 0.0
C218 C 0.9529 0.50255 0.64857 0.0
C219 C 0.03023 0.50229 0.47089 0.0
C220 C 0.05372 0.50842 0.43911 0.0
C221 C 0.06219 0.49815 0.36192 0.0
C222 C 0.08459 0.50359 0.33114 0.0
C223 C 0.09889 0.51951 0.37699 0.0
C224 C 0.09028 0.52967 0.45477 0.0
C225 C 0.06794 0.52408 0.48578 0.0
C226 C 0.99925 0.53579 0.73847 0.0
C227 C 0.0442 0.48419 0.78492 0.0
O228 O 0.98088 0.49275 0.94228 0.0
O229 O 0.96131 0.4645 0.88094 0.0
O230 O 0.98734 0.46919 0.66617 0.0
O231 O -0.00024 0.44618 0.76346 0.0
O232 O 0.95759 0.5028 0.73355 0.0
O233 O 0.96921 0.4975 0.59022 0.0
O234 O 0.02877 0.48312 0.51764 0.0
O235 O 0.01755 0.51946 0.50217 0.0
O236 O 0.00741 0.51598 0.75874 0.0
O237 O 0.99778 0.53816 0.65379 0.0
O238 O 0.04097 0.48869 0.70044 0.0
O239 O 0.02668 0.48299 0.84138 0.0
H240 H 0.94079 0.5173 0.88959 0.0
H241 H 0.9026 0.53206 0.93614 0.0
H242 H 0.8978 0.47646 0.12769 0.0
H243 H 0.93595 0.46164 0.07987 0.0
H244 H 0.05151 0.48583 0.3256 0.0
H245 H 0.09078 0.4951 0.27197 0.0
H246 H 0.10068 0.54218 0.49123 0.0
H247 H 0.06175 0.53205 0.54601 0.0
C248 C 0.14361 0.94425 0.39105 0.0
C249 C 0.15085 0.96034 0.32704 0.0
C250 C 0.12776 0.95073 0.45695 0.0
C251 C 0.11893 0.97386 0.45892 0.0
C252 C 0.12665 0.99038 0.39604 0.0
C253 C 0.14252 0.98341 0.33071 0.0
C254 C 0.1199 0.93258 0.52284 0.0
C255 C 0.1176 0.0152 0.39622 0.0
C256 C 0.05918 0.97945 0.56362 0.0
C257 C 0.06485 0.98682 0.64876 0.0
C258 C 0.07658 0.97606 0.50024 0.0
C259 C 0.10028 0.98006 0.52269 0.0
C260 C 0.10606 0.98837 0.60761 0.0
C261 C 0.08821 0.99168 0.6699 0.0
C262 C 0.06966 0.96728 0.41034 0.0
C263 C 0.13115 0.99293 0.63357 0.0
H264 H 0.15005 0.92643 0.38898 0.0
H265 H 0.14813 0.99599 0.28169 0.0
H266 H 0.12254 0.93915 0.59066 0.0
H267 H 0.1009 0.92916 0.51464 0.0
H268 H 0.12946 0.91578 0.51546 0.0
H269 H 0.1267 0.02638 0.34724 0.0
H270 H 0.0986 0.01523 0.38114 0.0
H271 H 0.11977 0.02311 0.46223 0.0
H272 H 0.04112 0.9757 0.54698 0.0
H273 H 0.09259 0.99744 0.73567 0.0
H274 H 0.07682 0.94944 0.40012 0.0
H275 H 0.07716 0.9787 0.35858 0.0
H276 H 0.05036 0.9666 0.40163 0.0
H277 H 0.14094 0.97617 0.63502 0.0
H278 H 0.13253 0.00129 0.69921 0.0
H279 H 0.1398 0.00435 0.5844 0.0
C280 C 0.54465 0.14307 0.26503 0.0
C281 C 0.52579 0.14845 0.20971 0.0
C282 C 0.54147 0.12931 0.34025 0.0
C283 C 0.5189 0.12063 0.36043 0.0
C284 C 0.49972 0.12614 0.30537 0.0
C285 C 0.50339 0.14004 0.23062 0.0
C286 C 0.56236 0.12376 0.39739 0.0
C287 C 0.47545 0.11699 0.32458 0.0
C288 C 0.51917 0.06544 0.49691 0.0
C289 C 0.51493 0.07413 0.5815 0.0
C290 C 0.51948 0.08028 0.42396 0.0
C291 C 0.51583 0.10453 0.43605 0.0
C292 C 0.51092 0.1134 0.521 0.0
C293 C 0.51045 0.09801 0.59304 0.0
C294 C 0.52458 0.07008 0.33444 0.0
C295 C 0.50699 0.13919 0.53615 0.0
H296 H 0.56198 0.14962 0.24964 0.0
H297 H 0.48871 0.14421 0.18832 0.0
H298 H 0.55879 0.12892 0.46633 0.0
H299 H 0.56565 0.10463 0.39705 0.0
H300 H 0.5785 0.13282 0.37494 0.0
H301 H 0.46222 0.12378 0.27761 0.0
H302 H 0.47543 0.0976 0.32125 0.0
H303 H 0.47011 0.12191 0.39213 0.0
H304 H 0.52278 0.04698 0.48774 0.0
H305 H 0.5072 0.10474 0.65846 0.0
H306 H 0.54177 0.07656 0.31069 0.0
H307 H 0.51116 0.0758 0.28639 0.0
H308 H 0.52504 0.05065 0.33534 0.0
H309 H 0.52335 0.14894 0.52166 0.0
H310 H 0.50165 0.14303 0.60479 0.0
H311 H 0.49331 0.14588 0.49096 0.0
C312 C 0.37431 0.57392 0.3845 0.0
C313 C 0.35855 0.55843 0.34459 0.0
C314 C 0.38932 0.56631 0.45158 0.0
C315 C 0.38808 0.54281 0.48073 0.0
C316 C 0.37192 0.52721 0.44163 0.0
C317 C 0.35753 0.53514 0.37321 0.0
C318 C 0.40676 0.5833 0.49028 0.0
C319 C 0.36983 0.50214 0.47207 0.0
C320 C 0.44124 0.51693 0.59314 0.0
C321 C 0.43558 0.51981 0.68195 0.0
C322 C 0.42593 0.52433 0.52697 0.0
C323 C 0.40418 0.53439 0.55039 0.0
C324 C 0.39805 0.53671 0.64012 0.0
C325 C 0.41399 0.52961 0.70505 0.0
C326 C 0.4333 0.52193 0.43211 0.0
C327 C 0.37479 0.54692 0.66742 0.0
H328 H 0.3752 0.59191 0.36214 0.0
H329 H 0.34521 0.52318 0.34296 0.0
H330 H 0.40386 0.58502 0.562 0.0
H331 H 0.42482 0.57657 0.48092 0.0
H332 H 0.40557 0.60094 0.45996 0.0
H333 H 0.35568 0.49254 0.43736 0.0
H334 H 0.38659 0.49282 0.46092 0.0
H335 H 0.36625 0.50161 0.54367 0.0
H336 H 0.45796 0.50945 0.57508 0.0
H337 H 0.40962 0.53181 0.77383 0.0
H338 H 0.43396 0.53946 0.4008 0.0
H339 H 0.42029 0.51138 0.3954 0.0
H340 H 0.45075 0.51354 0.42514 0.0
H341 H 0.37356 0.56536 0.64522 0.0
H342 H 0.37221 0.5464 0.73971 0.0
H343 H 0.36029 0.53717 0.63558 0.0
C344 C 0.00138 0.35537 0.28758 0.0
C345 C 0.97836 0.34767 0.27337 0.0
C346 C 0.00672 0.37056 0.3572 0.0
C347 C 0.98861 0.37817 0.4138 0.0
C348 C 0.96548 0.36992 0.4013 0.0
C349 C 0.96064 0.3548 0.3312 0.0
C350 C 0.03157 0.37906 0.36842 0.0
C351 C 0.94568 0.37767 0.46027 0.0
C352 C 0.00076 0.40757 0.63315 0.0
C353 C 0.9967 0.43106 0.61188 0.0
C354 C 0.99902 0.39007 0.56856 0.0
C355 C 0.99325 0.39638 0.48118 0.0
C356 C 0.99019 0.42021 0.45898 0.0
C357 C 0.99187 0.43722 0.52466 0.0
C358 C 0.00242 0.36481 0.59442 0.0
C359 C 0.98417 0.42772 0.36654 0.0
H360 H 0.01519 0.34984 0.24343 0.0
H361 H 0.94283 0.3488 0.32108 0.0
H362 H 0.03241 0.39812 0.35492 0.0
H363 H 0.03744 0.37638 0.43712 0.0
H364 H 0.04395 0.36998 0.32366 0.0
H365 H 0.92905 0.3684 0.44551 0.0
H366 H 0.95027 0.37457 0.53009 0.0
H367 H 0.94274 0.39674 0.45224 0.0
H368 H 0.00451 0.4028 0.70059 0.0
H369 H 0.98877 0.45539 0.50788 0.0
H370 H 0.01498 0.35617 0.54932 0.0
H371 H 0.98553 0.35534 0.58875 0.0
H372 H 0.00892 0.36298 0.66283 0.0
H373 H 0.99686 0.42021 0.31913 0.0
H374 H 0.98414 0.44706 0.35894 0.0
H375 H 0.96657 0.42102 0.34874 0.0
C376 C 0.87653 0.91863 0.05402 0.0
C377 C 0.86084 0.93033 0.10944 0.0
C378 C 0.89283 0.93107 0.00341 0.0
C379 C 0.89308 0.95584 0.00693 0.0
C380 C 0.87729 0.96775 0.06286 0.0
C381 C 0.86154 0.95482 0.11437 0.0
C382 C 0.90922 0.91764 0.94419 0.0
C383 C 0.87642 0.99415 0.06572 0.0
C384 C 0.94738 0.98719 0.92413 0.0
C385 C 0.94208 0.98996 0.83513 0.0
C386 C 0.93161 0.97612 0.9813 0.0
C387 C 0.90936 0.96919 0.94958 0.0
C388 C 0.90319 0.97377 0.86122 0.0
C389 C 0.91983 0.98364 0.80455 0.0
C390 C 0.93925 0.97064 0.07396 0.0
C391 C 0.87932 0.96755 0.82565 0.0
H392 H 0.87606 0.8997 0.04998 0.0
H393 H 0.84925 0.96394 0.15645 0.0
H394 H 0.90229 0.91787 0.87619 0.0
H395 H 0.92682 0.92579 0.94282 0.0
H396 H 0.91093 0.89908 0.96477 0.0
H397 H 0.86325 0.00073 0.11334 0.0
H398 H 0.8938 0.00132 0.08376 0.0
H399 H 0.87205 0.00104 0.99958 0.0
H400 H 0.96415 0.99293 0.94828 0.0
H401 H 0.91549 0.98612 0.73587 0.0
H402 H 0.93922 0.9514 0.08398 0.0
H403 H 0.92677 0.97824 0.12186 0.0
H404 H 0.95707 0.97739 0.08852 0.0
H405 H 0.87774 0.94828 0.81985 0.0
H406 H 0.87616 0.97536 0.7599 0.0
H407 H 0.86539 0.97358 0.87115 0.0
C408 C 0.51901 0.87594 0.10837 0.0
C409 C 0.54146 0.8664 0.0977 0.0
C410 C 0.51081 0.89361 0.05227 0.0
C411 C 0.52542 0.9019 0.98396 0.0
C412 C 0.54813 0.89243 0.97308 0.0
C413 C 0.55587 0.87478 0.03002 0.0
C414 C 0.48656 0.90346 0.06611 0.0
C415 C 0.56426 0.90096 0.90123 0.0
C416 C 0.49967 0.93186 0.7838 0.0
C417 C 0.50485 0.95534 0.80116 0.0
C418 C 0.50564 0.91428 0.84411 0.0
C419 C 0.51704 0.92044 0.92337 0.0
C420 C 0.52156 0.94425 0.94242 0.0
C421 C 0.51537 0.9614 0.88089 0.0
C422 C 0.50048 0.88907 0.8217 0.0
C423 C 0.5337 0.95159 0.0261 0.0
H424 H 0.50778 0.86959 0.16072 0.0
H425 H 0.57324 0.86757 0.02148 0.0
H426 H 0.48762 0.92258 0.07813 0.0
H427 H 0.47586 0.90091 0.00607 0.0
H428 H 0.47739 0.89514 0.12239 0.0
H429 H 0.58135 0.89169 0.9014 0.0
H430 H 0.55588 0.89842 0.8362 0.0
H431 H 0.56755 0.91998 0.90905 0.0
H432 H 0.49147 0.92715 0.72209 0.0
H433 H 0.51926 0.97952 0.89425 0.0
H434 H 0.49051 0.88067 0.87569 0.0
H435 H 0.51714 0.87929 0.81433 0.0
H436 H 0.4903 0.88734 0.75988 0.0
H437 H 0.53321 0.97084 0.03591 0.0
H438 H 0.55228 0.94597 0.02384 0.0
H439 H 0.52552 0.94301 0.08381 0.0
C440 C 0.61532 0.55652 0.09687 0.0
C441 C 0.63568 0.54535 0.12631 0.0
C442 C 0.59902 0.5446 0.04447 0.0
C443 C 0.60369 0.52126 0.0185 0.0
C444 C 0.62408 0.50981 0.04918 0.0
C445 C 0.63969 0.52191 0.10393 0.0
C446 C 0.57703 0.55712 0.01556 0.0
C447 C 0.62986 0.48512 0.02144 0.0
C448 C 0.55307 0.48649 0.92347 0.0
C449 C 0.55515 0.49178 0.83405 0.0
C450 C 0.569 0.49562 0.9847 0.0
C451 C 0.58794 0.50947 0.95482 0.0
C452 C 0.59115 0.51318 0.86366 0.0
C453 C 0.57458 0.50442 0.80431 0.0
C454 C 0.56468 0.49166 0.08138 0.0
C455 C 0.61155 0.52725 0.82903 0.0
H456 H 0.61212 0.57458 0.11504 0.0
H457 H 0.65551 0.51332 0.12638 0.0
H458 H 0.57733 0.5597 0.94336 0.0
H459 H 0.56139 0.54638 0.03113 0.0
H460 H 0.57505 0.57449 0.0475 0.0
H461 H 0.64584 0.47834 0.05432 0.0
H462 H 0.61504 0.47323 0.03651 0.0
H463 H 0.63263 0.48457 0.94933 0.0
H464 H 0.53826 0.47626 0.94609 0.0
H465 H 0.57642 0.50821 0.73488 0.0
H466 H 0.55942 0.50843 0.11239 0.0
H467 H 0.58089 0.48569 0.11454 0.0
H468 H 0.55063 0.4786 0.09326 0.0
H469 H 0.60958 0.54582 0.84898 0.0
H470 H 0.61281 0.52652 0.75628 0.0
H471 H 0.62821 0.52076 0.85748 0.0
C472 C 0.95691 0.63472 0.07813 0.0
C473 C 0.93237 0.6346 0.07964 0.0
C474 C 0.96937 0.61863 0.02651 0.0
C475 C 0.95696 0.60167 0.9773 0.0
C476 C 0.9322 0.60093 0.98138 0.0
C477 C 0.92019 0.61765 0.03141 0.0
C478 C 0.99572 0.62033 0.02207 0.0
C479 C 0.91823 0.58298 0.93097 0.0
C480 C 0.98245 0.575 0.77055 0.0
C481 C 0.99064 0.55341 0.80136 0.0
C482 C 0.97237 0.59129 0.828 0.0
C483 C 0.96973 0.58549 0.91783 0.0
C484 C 0.97834 0.56385 0.94951 0.0
C485 C 0.98934 0.54837 0.89111 0.0
C486 C 0.96398 0.61444 0.79205 0.0
C487 C 0.97487 0.55654 0.04389 0.0
H488 H 0.96636 0.6479 0.11503 0.0
H489 H 0.90121 0.61741 0.03287 0.0
H490 H 0.00377 0.60337 0.04053 0.0
H491 H 0.00119 0.62422 0.95366 0.0
H492 H 0.00276 0.63417 0.06591 0.0
H493 H 0.90062 0.58029 0.96028 0.0
H494 H 0.91584 0.58911 0.86245 0.0
H495 H 0.92745 0.56593 0.92862 0.0
H496 H 0.98368 0.5791 0.70119 0.0
H497 H 0.99639 0.53207 0.91528 0.0
H498 H 0.97073 0.62906 0.83279 0.0
H499 H 0.94459 0.61514 0.79464 0.0
H500 H 0.96958 0.61725 0.72298 0.0
H501 H 0.98203 0.56999 0.08893 0.0
H502 H 0.98331 0.53948 0.05874 0.0
H503 H 0.95585 0.55501 0.0578 0.0
C504 C 0.0006 0.22604 0.23057 0.0
C505 C 0.98639 0.23025 0.15742 0.0
C506 C 0.00222 0.20361 0.26732 0.0
C507 C 0.98989 0.18483 0.22811 0.0
C508 C 0.97617 0.18887 0.15209 0.0
C509 C 0.97412 0.21171 0.11883 0.0
C510 C 0.0168 0.20007 0.34894 0.0
C511 C 0.96363 0.1691 0.10621 0.0
C512 C 0.00965 0.12314 0.28476 0.0
C513 C 0.99254 0.11624 0.34552 0.0
C514 C 0.00905 0.14543 0.24614 0.0
C515 C 0.99083 0.16113 0.26839 0.0
C516 C 0.97361 0.15432 0.33023 0.0
C517 C 0.97462 0.13192 0.36777 0.0
C518 C 0.02748 0.15185 0.17952 0.0
C519 C 0.95428 0.1708 0.35751 0.0
H520 H 0.00993 0.2405 0.26054 0.0
H521 H 0.9633 0.21503 0.06168 0.0
H522 H 0.00568 0.19307 0.40265 0.0
H523 H 0.03075 0.187 0.33618 0.0
H524 H 0.02512 0.21655 0.37175 0.0
H525 H 0.95528 0.17484 0.04395 0.0
H526 H 0.9761 0.15475 0.09135 0.0
H527 H 0.94992 0.16181 0.14995 0.0
H528 H 0.02333 0.11095 0.26633 0.0
H529 H 0.96155 0.12677 0.41564 0.0
H530 H 0.03422 0.1698 0.19056 0.0
H531 H 0.01936 0.15149 0.11358 0.0
H532 H 0.04248 0.13948 0.18012 0.0
H533 H 0.96192 0.18716 0.3844 0.0
H534 H 0.94256 0.16301 0.40785 0.0
H535 H 0.9436 0.17571 0.29954 0.0
C536 C 0.28723 0.94698 0.17936 0.0
C537 C 0.27237 0.96621 0.16662 0.0
C538 C 0.31063 0.95012 0.20502 0.0
C539 C 0.31937 0.97302 0.21811 0.0
C540 C 0.30457 0.9925 0.20384 0.0
C541 C 0.28111 0.98883 0.18013 0.0
C542 C 0.32605 0.92896 0.21795 0.0
C543 C 0.31351 0.0172 0.21392 0.0
C544 C 0.37105 0.98204 0.37109 0.0
C545 C 0.3897 0.9846 0.31187 0.0
C546 C 0.34817 0.97795 0.34128 0.0
C547 C 0.34374 0.97658 0.24994 0.0
C548 C 0.36252 0.9789 0.18984 0.0
C549 C 0.38523 0.9829 0.22153 0.0
C550 C 0.32867 0.97541 0.40759 0.0
C551 C 0.35885 0.97821 0.09185 0.0
H552 H 0.28055 0.92943 0.16918 0.0
H553 H 0.26951 0.00371 0.17444 0.0
H554 H 0.34144 0.93008 0.17359 0.0
H555 H 0.33276 0.92857 0.28633 0.0
H556 H 0.31665 0.91231 0.20467 0.0
H557 H 0.2999 0.03046 0.19847 0.0
H558 H 0.31972 0.02006 0.28211 0.0
H559 H 0.32867 0.02 0.16948 0.0
H560 H 0.37422 0.98371 0.44096 0.0
H561 H 0.39953 0.98463 0.17521 0.0
H562 H 0.31952 0.95848 0.39782 0.0
H563 H 0.31558 0.98951 0.39792 0.0
H564 H 0.33513 0.97622 0.47632 0.0
H565 H 0.37419 0.97033 0.0582 0.0
H566 H 0.35711 0.99647 0.06808 0.0
H567 H 0.34295 0.96836 0.07246 0.0
C568 C 0.521 0.28217 0.08982 0.0
C569 C 0.51083 0.26207 0.12591 0.0
C570 C 0.51856 0.30398 0.13134 0.0
C571 C 0.50645 0.30542 0.2124 0.0
C572 C 0.49637 0.28505 0.24936 0.0
C573 C 0.49845 0.26365 0.20502 0.0
C574 C 0.5289 0.32544 0.08853 0.0
C575 C 0.48365 0.28579 0.33625 0.0
C576 C 0.52031 0.35723 0.35982 0.0
C577 C 0.50087 0.37174 0.34554 0.0
C578 C 0.52226 0.33551 0.31749 0.0
C579 C 0.50444 0.32821 0.25901 0.0
C580 C 0.48466 0.34265 0.24528 0.0
C581 C 0.48314 0.36427 0.28844 0.0
C582 C 0.54331 0.3203 0.33576 0.0
C583 C 0.4655 0.33564 0.18263 0.0
H584 H 0.53049 0.28088 0.02835 0.0
H585 H 0.49087 0.24797 0.23336 0.0
H586 H 0.51522 0.33905 0.0806 0.0
H587 H 0.54277 0.3329 0.13111 0.0
H588 H 0.53656 0.32157 0.02309 0.0
H589 H 0.47719 0.26829 0.35674 0.0
H590 H 0.49547 0.29264 0.38803 0.0
H591 H 0.4685 0.29788 0.33201 0.0
H592 H 0.5339 0.36279 0.40489 0.0
H593 H 0.46825 0.37556 0.27608 0.0
H594 H 0.55321 0.31725 0.27415 0.0
H595 H 0.53754 0.30295 0.3604 0.0
H596 H 0.5553 0.32823 0.38484 0.0
H597 H 0.47266 0.33617 0.11518 0.0
H598 H 0.4501 0.34746 0.18624 0.0
H599 H 0.45959 0.31747 0.19529 0.0
C600 C 0.22229 0.56975 0.20944 0.0
C601 C 0.23804 0.5515 0.19231 0.0
C602 C 0.19929 0.56507 0.23695 0.0
C603 C 0.19189 0.54159 0.24758 0.0
C604 C 0.20763 0.52312 0.2293 0.0
C605 C 0.23064 0.52831 0.20368 0.0
C606 C 0.18283 0.58519 0.25415 0.0
C607 C 0.20013 0.49787 0.23684 0.0
C608 C 0.14144 0.52833 0.40225 0.0
C609 C 0.12267 0.52546 0.34379 0.0
C610 C 0.16396 0.53385 0.37169 0.0
C611 C 0.16791 0.53637 0.28036 0.0
C612 C 0.14903 0.53357 0.22103 0.0
C613 C 0.12669 0.52817 0.25345 0.0
C614 C 0.18359 0.53678 0.43718 0.0
C615 C 0.1522 0.53529 0.12295 0.0
H616 H 0.22795 0.58772 0.201 0.0
H617 H 0.24299 0.51416 0.19459 0.0
H618 H 0.1673 0.58371 0.21068 0.0
H619 H 0.17646 0.58448 0.32296 0.0
H620 H 0.19124 0.60245 0.24278 0.0
H621 H 0.2144 0.48554 0.2191 0.0
H622 H 0.19435 0.49408 0.30493 0.0
H623 H 0.18499 0.49461 0.19282 0.0
H624 H 0.13864 0.52589 0.47204 0.0
H625 H 0.1123 0.52622 0.20762 0.0
H626 H 0.19173 0.55429 0.42947 0.0
H627 H 0.19741 0.52356 0.42458 0.0
H628 H 0.17751 0.53486 0.5061 0.0
H629 H 0.13634 0.5427 0.09121 0.0
H630 H 0.15468 0.51736 0.09681 0.0
H631 H 0.16753 0.54606 0.1038 0.0
C632 C 0.93345 0.76745 0.12068 0.0
C633 C 0.92642 0.76149 0.20593 0.0
C634 C 0.9419 0.78997 0.10149 0.0
C635 C 0.94301 0.807 0.169 0.0
C636 C 0.93502 0.80132 0.25439 0.0
C637 C 0.92693 0.77858 0.27188 0.0
C638 C 0.94997 0.79546 0.00933 0.0
C639 C 0.93548 0.81903 0.32796 0.0
C640 C 0.98672 0.85656 0.13987 0.0
C641 C 0.97232 0.87487 0.11066 0.0
C642 C 0.97733 0.83453 0.16062 0.0
C643 C 0.95301 0.83056 0.15059 0.0
C644 C 0.93832 0.84905 0.12264 0.0
C645 C 0.94811 0.87101 0.10391 0.0
C646 C 0.99348 0.8154 0.19228 0.0
C647 C 0.91226 0.84562 0.11223 0.0
H648 H 0.93286 0.7543 0.06942 0.0
H649 H 0.92069 0.77425 0.33702 0.0
H650 H 0.94041 0.81092 0.98363 0.0
H651 H 0.96887 0.79996 0.00987 0.0
H652 H 0.94724 0.78056 0.96367 0.0
H653 H 0.95354 0.82022 0.35445 0.0
H654 H 0.93046 0.83671 0.30464 0.0
H655 H 0.9235 0.81402 0.38219 0.0
H656 H 0.00546 0.85924 0.14457 0.0
H657 H 0.93675 0.88521 0.08382 0.0
H658 H 0.99283 0.80035 0.14634 0.0
H659 H 0.98759 0.80899 0.25746 0.0
H660 H 0.01191 0.8214 0.19793 0.0
H661 H 0.90879 0.83143 0.06427 0.0
H662 H 0.90327 0.86176 0.08948 0.0
H663 H 0.90446 0.84016 0.17577 0.0
C664 C 0.73866 0.95825 0.16398 0.0
C665 C 0.74049 0.93478 0.18947 0.0
C666 C 0.71714 0.96772 0.13751 0.0
C667 C 0.69689 0.95343 0.13769 0.0
C668 C 0.69863 0.92971 0.16394 0.0
C669 C 0.72052 0.92056 0.18836 0.0
C670 C 0.71603 0.99309 0.1101 0.0
C671 C 0.67731 0.91415 0.16747 0.0
C672 C 0.63811 0.98455 0.14811 0.0
C673 C 0.63082 0.98374 0.06019 0.0
C674 C 0.65952 0.97471 0.17421 0.0
C675 C 0.67388 0.96347 0.11128 0.0
C676 C 0.66652 0.96237 0.02261 0.0
C677 C 0.6451 0.9725 0.99819 0.0
C678 C 0.66666 0.9763 0.26933 0.0
C679 C 0.68152 0.95095 0.95314 0.0
H680 H 0.7542 0.96914 0.16367 0.0
H681 H 0.72196 0.90242 0.2085 0.0
H682 H 0.70856 0.99455 0.04305 0.0
H683 H 0.70428 0.00285 0.15508 0.0
H684 H 0.73351 0.0016 0.11072 0.0
H685 H 0.68164 0.89604 0.18832 0.0
H686 H 0.66437 0.92154 0.21423 0.0
H687 H 0.66879 0.91346 0.10205 0.0
H688 H 0.62703 0.99285 0.19676 0.0
H689 H 0.6398 0.97207 0.92993 0.0
H690 H 0.68555 0.98041 0.27586 0.0
H691 H 0.6635 0.95918 0.30156 0.0
H692 H 0.65663 0.98994 0.30488 0.0
H693 H 0.69869 0.95998 0.94916 0.0
H694 H 0.67319 0.95137 0.88723 0.0
H695 H 0.68502 0.93247 0.97107 0.0
C696 C 0.54539 0.72046 0.3065 0.0
C697 C 0.53691 0.73785 0.25017 0.0
C698 C 0.5411 0.69669 0.28945 0.0
C699 C 0.52767 0.69031 0.21507 0.0
C700 C 0.51872 0.70795 0.15886 0.0
C701 C 0.5237 0.73157 0.17658 0.0
C702 C 0.55134 0.67839 0.34972 0.0
C703 C 0.50406 0.70185 0.07965 0.0
C704 C 0.53547 0.63021 0.11336 0.0
C705 C 0.51564 0.61824 0.14398 0.0
C706 C 0.53978 0.6535 0.13736 0.0
C707 C 0.5239 0.66516 0.19366 0.0
C708 C 0.5043 0.65292 0.22763 0.0
C709 C 0.50038 0.6296 0.20224 0.0
C710 C 0.56115 0.66573 0.10119 0.0
C711 C 0.48699 0.66466 0.28814 0.0
H712 H 0.55581 0.72548 0.36289 0.0
H713 H 0.51714 0.74515 0.1334 0.0
H714 H 0.56399 0.66741 0.31287 0.0
H715 H 0.56054 0.68624 0.4068 0.0
H716 H 0.53735 0.66658 0.37408 0.0
H717 H 0.49761 0.71765 0.04468 0.0
H718 H 0.51451 0.69118 0.0331 0.0
H719 H 0.48879 0.69114 0.1 0.0
H720 H 0.54764 0.62137 0.06999 0.0
H721 H 0.48496 0.6205 0.22588 0.0
H722 H 0.5718 0.67302 0.15562 0.0
H723 H 0.5557 0.68061 0.05912 0.0
H724 H 0.57235 0.65384 0.06161 0.0
H725 H 0.49609 0.6754 0.33819 0.0
H726 H 0.4756 0.65177 0.32221 0.0
H727 H 0.47571 0.67658 0.2492 0.0
C728 C 0.77682 0.56685 0.18596 0.0
C729 C 0.75914 0.55003 0.19471 0.0
C730 C 0.7995 0.56041 0.1594 0.0
C731 C 0.80437 0.53671 0.13915 0.0
C732 C 0.78636 0.51978 0.1461 0.0
C733 C 0.764 0.52664 0.17416 0.0
C734 C 0.81838 0.57885 0.15478 0.0
C735 C 0.79083 0.49434 0.12536 0.0
C736 C 0.85749 0.52185 0.99931 0.0
C737 C 0.8736 0.51417 0.0627 0.0
C738 C 0.83501 0.52948 0.02325 0.0
C739 C 0.82841 0.52942 0.11282 0.0
C740 C 0.84458 0.52174 0.17712 0.0
C741 C 0.867 0.51439 0.15145 0.0
C742 C 0.81819 0.5372 0.95249 0.0
C743 C 0.83829 0.52137 0.27324 0.0
H744 H 0.77305 0.58493 0.2021 0.0
H745 H 0.75019 0.5137 0.17939 0.0
H746 H 0.83254 0.57452 0.20197 0.0
H747 H 0.82631 0.57914 0.08827 0.0
H748 H 0.81162 0.5966 0.1702 0.0
H749 H 0.7747 0.48356 0.13029 0.0
H750 H 0.79806 0.49259 0.05805 0.0
H751 H 0.80405 0.4872 0.17151 0.0
H752 H 0.86226 0.52149 0.93054 0.0
H753 H 0.87943 0.50892 0.20114 0.0
H754 H 0.81217 0.55532 0.9655 0.0
H755 H 0.80247 0.52578 0.95308 0.0
H756 H 0.82616 0.53657 0.88596 0.0
H757 H 0.83901 0.53946 0.29951 0.0
H758 H 0.85042 0.51026 0.31179 0.0
H759 H 0.82028 0.51467 0.28321 0.0
C760 C 0.00979 0.1732 0.93738 0.0
C761 C 0.0305 0.18277 0.97123 0.0
C762 C 0.00861 0.14965 0.9125 0.0
C763 C 0.02878 0.13542 0.91985 0.0
C764 C 0.04992 0.1451 0.95215 0.0
C765 C 0.05049 0.16868 0.97821 0.0
C766 C 0.98559 0.13988 0.88025 0.0
C767 C 0.07182 0.13049 0.9602 0.0
C768 C 0.01813 0.06992 0.92905 0.0
C769 C 0.02102 0.06357 0.84079 0.0
C770 C 0.02105 0.09319 0.95617 0.0
C771 C 0.02752 0.1104 0.8938 0.0
C772 C 0.03128 0.10393 0.8052 0.0
C773 C 0.0278 0.08062 0.77959 0.0
C774 C 0.01661 0.09939 0.05107 0.0
C775 C 0.0384 0.12175 0.73697 0.0
H776 H 0.99421 0.18396 0.93285 0.0
H777 H 0.06651 0.17605 0.00445 0.0
H778 H 0.98773 0.13252 0.81335 0.0
H779 H 0.97985 0.12541 0.92382 0.0
H780 H 0.97155 0.15332 0.87844 0.0
H781 H 0.08715 0.14098 0.98164 0.0
H782 H 0.06894 0.11624 0.00847 0.0
H783 H 0.07597 0.12215 0.89628 0.0
H784 H 0.01283 0.05684 0.97663 0.0
H785 H 0.03024 0.07579 0.71136 0.0
H786 H 0.0031 0.11329 0.0556 0.0
H787 H 0.0329 0.10632 0.08083 0.0
H788 H 0.0107 0.08412 0.0904 0.0
H789 H 0.02414 0.13472 0.72804 0.0
H790 H 0.04225 0.11359 0.67234 0.0
H791 H 0.05413 0.13146 0.75928 0.0
C792 C 0.33897 0.99482 0.89187 0.0
C793 C 0.32447 0.01207 0.92823 0.0
C794 C 0.36216 -0.00017 0.86865 0.0
C795 C 0.37096 0.02275 0.88063 0.0
C796 C 0.35631 0.04038 0.91573 0.0
C797 C 0.33321 0.03481 0.93944 0.0
C798 C 0.37737 0.98043 0.83282 0.0
C799 C 0.36515 0.06501 0.92917 0.0
C800 C 0.43718 0.02589 0.88806 0.0
C801 C 0.4425 0.03018 0.79959 0.0
C802 C 0.41387 0.02471 0.91679 0.0
C803 C 0.39551 0.02804 0.85555 0.0
C804 C 0.40081 0.03399 0.76757 0.0
C805 C 0.42425 0.03488 0.74054 0.0
C806 C 0.40907 0.01808 0.01108 0.0
C807 C 0.38172 0.03807 0.70068 0.0
H808 H 0.33237 0.9772 0.88311 0.0
H809 H 0.3221 0.04821 0.96776 0.0
H810 H 0.38391 0.98518 0.76657 0.0
H811 H 0.39286 0.97798 0.87583 0.0
H812 H 0.36787 0.96352 0.82812 0.0
H813 H 0.35135 0.07686 0.95489 0.0
H814 H 0.38002 0.06489 0.97605 0.0
H815 H 0.37179 0.07219 0.86621 0.0
H816 H 0.45116 0.02219 0.93414 0.0
H817 H 0.42821 0.03851 0.67225 0.0
H818 H 0.40553 0.99903 0.01439 0.0
H819 H 0.39351 0.02733 0.03737 0.0
H820 H 0.4243 0.02189 0.05411 0.0
H821 H 0.37278 0.02128 0.68611 0.0
H822 H 0.38868 0.04531 0.63818 0.0
H823 H 0.36836 0.05027 0.72704 0.0
C824 C 0.44103 0.32042 0.98514 0.0
C825 C 0.46082 0.30653 0.96967 0.0
C826 C 0.44112 0.34437 0.96393 0.0
C827 C 0.46162 0.35456 0.92815 0.0
C828 C 0.48156 0.3405 0.91216 0.0
C829 C 0.48081 0.31663 0.93219 0.0
C830 C 0.41948 0.35878 0.98096 0.0
C831 C 0.50391 0.35076 0.87554 0.0
C832 C 0.46217 0.41045 0.795 0.0
C833 C 0.47117 0.42653 0.85578 0.0
C834 C 0.45758 0.38725 0.81932 0.0
C835 C 0.46249 0.37987 0.9061 0.0
C836 C 0.4707 0.39627 0.96868 0.0
C837 C 0.47471 0.4195 0.94293 0.0
C838 C 0.44851 0.37037 0.75101 0.0
C839 C 0.47625 0.3891 0.06176 0.0
H840 H 0.42558 0.3126 0.01427 0.0
H841 H 0.49624 0.306 0.92109 0.0
H842 H 0.42316 0.37188 0.03286 0.0
H843 H 0.41443 0.36854 0.92087 0.0
H844 H 0.40442 0.34786 0.00233 0.0
H845 H 0.51786 0.33741 0.86731 0.0
H846 H 0.50049 0.359 0.81083 0.0
H847 H 0.51049 0.36465 0.92006 0.0
H848 H 0.45911 0.41587 0.72774 0.0
H849 H 0.48165 0.43187 0.99018 0.0
H850 H 0.43332 0.36046 0.77709 0.0
H851 H 0.46236 0.35749 0.73457 0.0
H852 H 0.44314 0.37941 0.68963 0.0
H853 H 0.4603 0.38202 0.09353 0.0
H854 H 0.48284 0.40391 0.102 0.0
H855 H 0.48965 0.37507 0.0618 0.0
C856 C 0.17805 0.48285 0.95606 0.0
C857 C 0.18552 0.50617 0.94908 0.0
C858 C 0.15523 0.47636 0.93185 0.0
C859 C 0.13956 0.49363 0.90045 0.0
C860 C 0.14707 0.51714 0.89288 0.0
C861 C 0.17 0.52308 0.91662 0.0
C862 C 0.1478 0.45113 0.94043 0.0
C863 C 0.13079 0.53612 0.86073 0.0
C864 C 0.08709 0.48009 0.75779 0.0
C865 C 0.06857 0.4828 0.81744 0.0
C866 C 0.11042 0.48218 0.78511 0.0
C867 C 0.11534 0.48731 0.8741 0.0
C868 C 0.0968 0.48876 0.93566 0.0
C869 C 0.0736 0.48639 0.90658 0.0
C870 C 0.12972 0.48021 0.71768 0.0
C871 C 0.10128 0.49446 0.03105 0.0
H872 H 0.18995 0.46971 0.98136 0.0
H873 H 0.17562 0.54113 0.91111 0.0
H874 H 0.13282 0.44975 0.98655 0.0
H875 H 0.14176 0.44442 0.87592 0.0
H876 H 0.1622 0.43975 0.96456 0.0
H877 H 0.13931 0.55359 0.8595 0.0
H878 H 0.12456 0.53195 0.79352 0.0
H879 H 0.11516 0.53708 0.90386 0.0
H880 H 0.08336 0.47705 0.68892 0.0
H881 H 0.0594 0.48857 0.95308 0.0
H882 H 0.14376 0.46842 0.74164 0.0
H883 H 0.13769 0.49768 0.70671 0.0
H884 H 0.12321 0.47352 0.65369 0.0
H885 H 0.11663 0.48471 0.05654 0.0
H886 H 0.08587 0.49044 0.07294 0.0
H887 H 0.10518 0.51339 0.03726 0.0
C888 C 0.97624 0.81528 0.5478 0.0
C889 C 0.95288 0.80777 0.5499 0.0
C890 C 0.9823 0.83806 0.5731 0.0
C891 C 0.96453 0.85373 0.60018 0.0
C892 C 0.94099 0.84612 0.60416 0.0
C893 C 0.93546 0.82316 0.5795 0.0
C894 C 0.00765 0.84551 0.56938 0.0
C895 C 0.92157 0.86244 0.63205 0.0
C896 C 0.98153 0.90722 0.73205 0.0
C897 C 0.98229 0.92462 0.66704 0.0
C898 C 0.97581 0.88407 0.71122 0.0
C899 C 0.97053 0.8782 0.62325 0.0
C900 C 0.97106 0.89567 0.55726 0.0
C901 C 0.97707 0.9187 0.57992 0.0
C902 C 0.97562 0.86588 0.78327 0.0
C903 C 0.96527 0.89002 0.46281 0.0
H904 H 0.98978 0.80345 0.52503 0.0
H905 H 0.91735 0.81753 0.58074 0.0
H906 H 0.01325 0.85241 0.63416 0.0
H907 H 0.01946 0.83089 0.55069 0.0
H908 H 0.0098 0.85984 0.52091 0.0
H909 H 0.90423 0.85363 0.63333 0.0
H910 H 0.92523 0.86959 0.69834 0.0
H911 H 0.92063 0.87749 0.58616 0.0
H912 H 0.98581 0.91157 0.79935 0.0
H913 H 0.97757 0.93207 0.52945 0.0
H914 H 0.98782 0.85144 0.76664 0.0
H915 H 0.95788 0.85815 0.78939 0.0
H916 H 0.98074 0.87325 0.84799 0.0
H917 H 0.97772 0.87679 0.43712 0.0
H918 H 0.96599 0.9057 0.41981 0.0
H919 H 0.94748 0.8823 0.45855 0.0
C920 C 0.68099 0.95046 0.49159 0.0
C921 C 0.69542 0.96903 0.46501 0.0
C922 C 0.65836 0.95456 0.52368 0.0
C923 C 0.64994 0.97777 0.5292 0.0
C924 C 0.66457 0.99664 0.50427 0.0
C925 C 0.6872 0.99205 0.47282 0.0
C926 C 0.64318 0.93401 0.54903 0.0
C927 C 0.65607 0.02162 0.50855 0.0
C928 C 0.58442 0.98846 0.52454 0.0
C929 C 0.57958 0.99283 0.61328 0.0
C930 C 0.60714 0.98307 0.4965 0.0
C931 C 0.62557 0.98229 0.55863 0.0
C932 C 0.62075 0.98623 0.6486 0.0
C933 C 0.59779 0.99134 0.67493 0.0
C934 C 0.61139 0.97913 0.39978 0.0
C935 C 0.63989 0.98534 0.71694 0.0
H936 H 0.68718 0.93261 0.48569 0.0
H937 H 0.69821 0.00648 0.45219 0.0
H938 H 0.63658 0.93621 0.61706 0.0
H939 H 0.6277 0.93321 0.50507 0.0
H940 H 0.6527 0.9171 0.54471 0.0
H941 H 0.66996 0.03436 0.49061 0.0
H942 H 0.64108 0.02396 0.46304 0.0
H943 H 0.64973 0.02572 0.57569 0.0
H944 H 0.5705 0.98956 0.47634 0.0
H945 H 0.59423 0.99462 0.74375 0.0
H946 H 0.62398 0.96467 0.38862 0.0
H947 H 0.61885 0.99531 0.37098 0.0
H948 H 0.59492 0.97504 0.36409 0.0
H949 H 0.64727 0.96741 0.72022 0.0
H950 H 0.63346 0.99027 0.78324 0.0
H951 H 0.65438 0.99732 0.69864 0.0
C952 C 0.53346 0.67157 0.57282 0.0
C953 C 0.51392 0.68368 0.54067 0.0
C954 C 0.53207 0.64777 0.59383 0.0
C955 C 0.5105 0.63592 0.58392 0.0
C956 C 0.49064 0.64804 0.55208 0.0
C957 C 0.49261 0.67181 0.53054 0.0
C958 C 0.55368 0.63531 0.62665 0.0
C959 C 0.46729 0.63595 0.54155 0.0
C960 C 0.51102 0.56953 0.57808 0.0
C961 C 0.50607 0.56416 0.66597 0.0
C962 C 0.51246 0.5929 0.54999 0.0
C963 C 0.50852 0.61112 0.61121 0.0
C964 C 0.50318 0.60574 0.6996 0.0
C965 C 0.50208 0.58233 0.72586 0.0
C966 C 0.5184 0.59809 0.45526 0.0
C967 C 0.4985 0.62471 0.76648 0.0
H968 H 0.55004 0.68059 0.5802 0.0
H969 H 0.47745 0.68106 0.50549 0.0
H970 H 0.55072 0.62887 0.69448 0.0
H971 H 0.55737 0.61982 0.58496 0.0
H972 H 0.56936 0.64681 0.62674 0.0
H973 H 0.45361 0.64783 0.51504 0.0
H974 H 0.46904 0.62076 0.49671 0.0
H975 H 0.4613 0.6291 0.60595 0.0
H976 H 0.51397 0.5555 0.5315 0.0
H977 H 0.49753 0.57829 0.79317 0.0
H978 H 0.53469 0.60863 0.45184 0.0
H979 H 0.50429 0.60866 0.42468 0.0
H980 H 0.52086 0.58191 0.41592 0.0
H981 H 0.49387 0.6175 0.832 0.0
H982 H 0.48396 0.63607 0.74373 0.0
H983 H 0.5142 0.63596 0.77381 0.0
C984 C 0.82458 0.54007 0.49222 0.0
C985 C 0.81121 0.52032 0.47044 0.0
C986 C 0.84762 0.53781 0.5227 0.0
C987 C 0.85748 0.51525 0.53196 0.0
C988 C 0.84396 0.49521 0.51171 0.0
C989 C 0.82095 0.49798 0.48119 0.0
C990 C 0.86158 0.55957 0.54318 0.0
C991 C 0.85391 0.47088 0.52127 0.0
C992 C 0.92359 0.50889 0.5293 0.0
C993 C 0.92865 0.5068 0.619 0.0
C994 C 0.90054 0.51197 0.50009 0.0
C995 C 0.88206 0.51263 0.56207 0.0
C996 C 0.88707 0.51067 0.65279 0.0
C997 C 0.91033 0.50796 0.68021 0.0
C998 C 0.89599 0.51403 0.40275 0.0
C999 C 0.86788 0.51131 0.72102 0.0
H1000 H 0.81721 0.5574 0.48387 0.0
H1001 H 0.81074 0.48264 0.46434 0.0
H1002 H 0.86796 0.55896 0.61194 0.0
H1003 H 0.8772 0.56042 0.49994 0.0
H1004 H 0.85119 0.57582 0.53405 0.0
H1005 H 0.84087 0.45709 0.50531 0.0
H1006 H 0.86921 0.46878 0.47712 0.0
H1007 H 0.86017 0.46812 0.58947 0.0
H1008 H 0.93766 0.50804 0.48161 0.0
H1009 H 0.91408 0.50632 0.74969 0.0
H1010 H 0.8845 0.52922 0.38877 0.0
H1011 H 0.8869 0.49805 0.37953 0.0
H1012 H 0.91241 0.51604 0.36436 0.0
H1013 H 0.86008 0.52907 0.72325 0.0
H1014 H 0.87448 0.50685 0.78753 0.0
H1015 H 0.85369 0.49889 0.70372 0.0
loop_
_geom_bond_atom_site_label_1
_geom_bond_atom_site_label_2
_geom_bond_distance
_geom_bond_site_symmetry_2
_ccdc_geom_bond_type
O0 Cd1 2.300 . S
O0 C7 1.275 . S
Cd1 O0 2.300 . S
Cd1 O9 2.381 . S
Cd1 O10 2.378 . S
O2 Cd3 2.385 . S
O2 C7 1.255 . S
Cd3 O2 2.385 . S
Cd3 O4 2.317 . S
O4 Cd3 2.317 . S
O4 C5 1.232 . S
C5 O4 1.232 . S
C5 O6 1.218 . S
O6 C5 1.218 . S
C7 O0 1.275 . S
C7 O2 1.255 . S
C8 O9 1.258 . S
C8 O10 1.256 . S
O9 Cd1 2.381 . S
O9 C8 1.258 . S
O10 Cd1 2.378 . S
O10 C8 1.256 . S
O11 Cd12 2.300 1_655 S
O11 C18 1.275 1_655 S
Cd12 O11 2.300 1_455 S
Cd12 O20 2.381 1_455 S
Cd12 O21 2.378 . S
O13 Cd14 2.385 . S
O13 C18 1.255 . S
Cd14 O13 2.385 . S
Cd14 O15 2.317 . S
O15 Cd14 2.317 . S
O15 C16 1.232 . S
C16 O15 1.232 . S
C16 O17 1.218 . S
O17 C16 1.218 . S
C18 O11 1.275 1_455 S
C18 O13 1.255 . S
C19 O20 1.258 1_455 S
C19 O21 1.256 . S
O20 Cd12 2.381 1_655 S
O20 C19 1.258 1_655 S
O21 Cd12 2.378 . S
O21 C19 1.256 . S
O22 Cd23 2.300 1_565 S
O22 C29 1.275 1_565 S
Cd23 O22 2.300 1_545 S
Cd23 O31 2.381 1_545 S
Cd23 O32 2.378 . S
O24 Cd25 2.385 . S
O24 C29 1.255 . S
Cd25 O24 2.385 . S
Cd25 O26 2.317 . S
O26 Cd25 2.317 . S
O26 C27 1.232 . S
C27 O26 1.232 . S
C27 O28 1.218 . S
O28 C27 1.218 . S
C29 O22 1.275 1_545 S
C29 O24 1.255 . S
C30 O31 1.258 1_545 S
C30 O32 1.256 . S
O31 Cd23 2.381 1_565 S
O31 C30 1.258 1_565 S
O32 Cd23 2.378 . S
O32 C30 1.256 . S
O33 Cd34 2.300 . S
O33 C40 1.275 . S
Cd34 O33 2.300 . S
Cd34 O42 2.381 . S
Cd34 O43 2.378 . S
O35 Cd36 2.385 . S
O35 C40 1.255 . S
Cd36 O35 2.385 . S
Cd36 O37 2.317 . S
O37 Cd36 2.317 . S
O37 C38 1.232 . S
C38 O37 1.232 . S
C38 O39 1.218 . S
O39 C38 1.218 . S
C40 O33 1.275 . S
C40 O35 1.255 . S
C41 O42 1.258 . S
C41 O43 1.256 . S
O42 Cd34 2.381 . S
O42 C41 1.258 . S
O43 Cd34 2.378 . S
O43 C41 1.256 . S
O44 Cd45 2.300 . S
O44 C51 1.275 . S
Cd45 O44 2.300 . S
Cd45 O53 2.381 . S
Cd45 O54 2.378 . S
O46 Cd47 2.385 1_554 S
O46 C51 1.255 . S
Cd47 O46 2.385 1_556 S
Cd47 O48 2.317 . S
O48 Cd47 2.317 . S
O48 C49 1.232 . S
C49 O48 1.232 . S
C49 O50 1.218 . S
O50 C49 1.218 . S
C51 O44 1.275 . S
C51 O46 1.255 . S
C52 O53 1.258 . S
C52 O54 1.256 . S
O53 Cd45 2.381 . S
O53 C52 1.258 . S
O54 Cd45 2.378 . S
O54 C52 1.256 . S
O55 Cd56 2.300 1_655 S
O55 C62 1.275 1_655 S
Cd56 O55 2.300 1_455 S
Cd56 O64 2.381 1_455 S
Cd56 O65 2.378 . S
O57 Cd58 2.385 1_554 S
O57 C62 1.255 . S
Cd58 O57 2.385 1_556 S
Cd58 O59 2.317 . S
O59 Cd58 2.317 . S
O59 C60 1.232 . S
C60 O59 1.232 . S
C60 O61 1.218 . S
O61 C60 1.218 . S
C62 O55 1.275 1_455 S
C62 O57 1.255 . S
C63 O64 1.258 1_455 S
C63 O65 1.256 . S
O64 Cd56 2.381 1_655 S
O64 C63 1.258 1_655 S
O65 Cd56 2.378 . S
O65 C63 1.256 . S
O66 Cd67 2.300 1_565 S
O66 C73 1.275 1_565 S
Cd67 O66 2.300 1_545 S
Cd67 O75 2.381 1_545 S
Cd67 O76 2.378 . S
O68 Cd69 2.385 1_554 S
O68 C73 1.255 . S
Cd69 O68 2.385 1_556 S
Cd69 O70 2.317 . S
O70 Cd69 2.317 . S
O70 C71 1.232 . S
C71 O70 1.232 . S
C71 O72 1.218 . S
O72 C71 1.218 . S
C73 O66 1.275 1_545 S
C73 O68 1.255 . S
C74 O75 1.258 1_545 S
C74 O76 1.256 . S
O75 Cd67 2.381 1_565 S
O75 C74 1.258 1_565 S
O76 Cd67 2.378 . S
O76 C74 1.256 . S
O77 Cd78 2.300 . S
O77 C84 1.275 . S
Cd78 O77 2.300 . S
Cd78 O86 2.381 . S
Cd78 O87 2.378 . S
O79 Cd80 2.385 1_554 S
O79 C84 1.255 . S
Cd80 O79 2.385 1_556 S
Cd80 O81 2.317 . S
O81 Cd80 2.317 . S
O81 C82 1.232 . S
C82 O81 1.232 . S
C82 O83 1.218 . S
O83 C82 1.218 . S
C84 O77 1.275 . S
C84 O79 1.255 . S
C85 O86 1.258 . S
C85 O87 1.256 . S
O86 Cd78 2.381 . S
O86 C85 1.258 . S
O87 Cd78 2.378 . S
O87 C85 1.256 . S
Sm88 C90 2.846 . S
Sm88 O108 2.543 . S
Sm88 O109 2.450 . S
Sm88 O110 2.681 1_565 S
Sm88 O111 2.464 . S
Sm88 O112 2.396 . S
Sm88 O116 2.386 1_455 S
Sm88 O119 2.408 1_565 S
Sm89 C99 2.846 . S
Sm89 O110 2.386 1_655 S
Sm89 O113 2.408 1_545 S
Sm89 O114 2.560 . S
Sm89 O115 2.450 . S
Sm89 O116 2.681 1_545 S
Sm89 O117 2.464 . S
Sm89 O118 2.396 . S
C90 Sm88 2.846 . S
C90 C91 1.506 . S
C90 O108 1.261 . S
C90 O109 1.242 . S
C91 C90 1.506 . S
C91 C92 1.358 . S
C91 C96 1.382 . S
C92 C91 1.358 . S
C92 C93 1.385 1_556 S
C92 H120 0.930 1_455 S
C93 C92 1.385 1_554 S
C93 C94 1.395 . S
C93 H121 0.929 1_455 S
C94 C93 1.395 . S
C94 C95 1.335 1_554 S
C95 C94 1.335 1_556 S
C95 C96 1.398 . S
C95 H122 0.931 . S
C96 C91 1.382 . S
C96 C95 1.398 . S
C96 H123 0.929 . S
C97 O110 1.271 1_565 S
C97 O111 1.251 . S
C98 O112 1.252 1_655 S
C98 O113 1.272 . S
C99 Sm89 2.846 . S
C99 C100 1.506 . S
C99 O114 1.304 . S
C99 O115 1.242 . S
C100 C99 1.506 . S
C100 C101 1.358 . S
C100 C105 1.382 . S
C101 C100 1.358 . S
C101 C102 1.385 . S
C101 H124 0.930 1_655 S
C102 C101 1.385 . S
C102 C103 1.395 . S
C102 H125 0.929 1_655 S
C103 C102 1.395 . S
C103 C104 1.335 . S
C104 C103 1.335 . S
C104 C105 1.398 . S
C104 H126 0.930 . S
C105 C100 1.382 . S
C105 C104 1.398 . S
C105 H127 0.929 . S
C106 O116 1.271 1_545 S
C106 O117 1.251 . S
C107 O118 1.252 1_455 S
C107 O119 1.272 . S
O108 Sm88 2.543 . S
O108 C90 1.261 . S
O109 Sm88 2.450 . S
O109 C90 1.242 . S
O110 Sm88 2.681 1_545 S
O110 Sm89 2.386 1_455 S
O110 C97 1.271 1_545 S
O111 Sm88 2.464 . S
O111 C97 1.251 . S
O112 Sm88 2.396 . S
O112 C98 1.252 1_455 S
O113 Sm89 2.408 1_565 S
O113 C98 1.272 . S
O114 Sm89 2.560 . S
O114 C99 1.304 . S
O115 Sm89 2.450 . S
O115 C99 1.242 . S
O116 Sm88 2.386 1_655 S
O116 Sm89 2.681 1_565 S
O116 C106 1.271 1_565 S
O117 Sm89 2.464 . S
O117 C106 1.251 . S
O118 Sm89 2.396 . S
O118 C107 1.252 1_655 S
O119 Sm88 2.408 1_545 S
O119 C107 1.272 . S
H120 C92 0.930 1_655 S
H121 C93 0.929 1_655 S
H122 C95 0.931 . S
H123 C96 0.929 . S
H124 C101 0.930 1_455 S
H125 C102 0.929 1_455 S
H126 C104 0.930 . S
H127 C105 0.929 . S
Sm128 C130 2.846 . S
Sm128 O148 2.543 . S
Sm128 O149 2.450 . S
Sm128 O150 2.681 . S
Sm128 O151 2.464 . S
Sm128 O152 2.396 . S
Sm128 O156 2.386 1_545 S
Sm128 O159 2.408 . S
Sm129 C139 2.846 . S
Sm129 O150 2.386 1_565 S
Sm129 O153 2.408 . S
Sm129 O154 2.559 . S
Sm129 O155 2.450 . S
Sm129 O156 2.681 . S
Sm129 O157 2.464 . S
Sm129 O158 2.396 . S
C130 Sm128 2.846 . S
C130 C131 1.506 . S
C130 O148 1.261 . S
C130 O149 1.242 . S
C131 C130 1.506 . S
C131 C132 1.358 . S
C131 C136 1.382 . S
C132 C131 1.358 . S
C132 C133 1.385 1_556 S
C132 H160 0.930 1_545 S
C133 C132 1.385 1_554 S
C133 C134 1.395 . S
C133 H161 0.929 1_545 S
C134 C133 1.395 . S
C134 C135 1.335 1_554 S
C135 C134 1.335 1_556 S
C135 C136 1.398 . S
C135 H162 0.930 . S
C136 C131 1.382 . S
C136 C135 1.398 . S
C136 H163 0.929 . S
C137 O150 1.271 . S
C137 O151 1.251 . S
C138 O152 1.252 1_565 S
C138 O153 1.272 . S
C139 Sm129 2.846 . S
C139 C140 1.506 . S
C139 O154 1.301 . S
C139 O155 1.242 . S
C140 C139 1.506 . S
C140 C141 1.358 . S
C140 C145 1.382 . S
C141 C140 1.358 . S
C141 C142 1.385 . S
C141 H164 0.930 1_565 S
C142 C141 1.385 . S
C142 C143 1.395 . S
C142 H165 0.929 1_565 S
C143 C142 1.395 . S
C143 C144 1.335 . S
C144 C143 1.335 . S
C144 C145 1.398 . S
C144 H166 0.930 . S
C145 C140 1.382 . S
C145 C144 1.398 . S
C145 H167 0.929 . S
C146 O156 1.271 . S
C146 O157 1.251 . S
C147 O158 1.252 1_545 S
C147 O159 1.272 . S
O148 Sm128 2.543 . S
O148 C130 1.261 . S
O149 Sm128 2.450 . S
O149 C130 1.242 . S
O150 Sm128 2.681 . S
O150 Sm129 2.386 1_545 S
O150 C137 1.271 . S
O151 Sm128 2.464 . S
O151 C137 1.251 . S
O152 Sm128 2.396 . S
O152 C138 1.252 1_545 S
O153 Sm129 2.408 . S
O153 C138 1.272 . S
O154 Sm129 2.559 . S
O154 C139 1.301 . S
O155 Sm129 2.450 . S
O155 C139 1.242 . S
O156 Sm128 2.386 1_565 S
O156 Sm129 2.681 . S
O156 C146 1.271 . S
O157 Sm129 2.464 . S
O157 C146 1.251 . S
O158 Sm129 2.396 . S
O158 C147 1.252 1_565 S
O159 Sm128 2.408 . S
O159 C147 1.272 . S
H160 C132 0.930 1_565 S
H161 C133 0.929 1_565 S
H162 C135 0.930 . S
H163 C136 0.929 . S
H164 C141 0.930 1_545 S
H165 C142 0.929 1_545 S
H166 C144 0.930 . S
H167 C145 0.929 . S
Sm168 C170 2.846 . S
Sm168 O188 2.543 . S
Sm168 O189 2.450 . S
Sm168 O190 2.681 . S
Sm168 O191 2.464 . S
Sm168 O192 2.396 . S
Sm168 O196 2.386 . S
Sm168 O199 2.408 . S
Sm169 C179 2.846 . S
Sm169 O190 2.386 . S
Sm169 O193 2.408 . S
Sm169 O194 2.543 . S
Sm169 O195 2.450 . S
Sm169 O196 2.681 . S
Sm169 O197 2.464 . S
Sm169 O198 2.396 . S
C170 Sm168 2.846 . S
C170 C171 1.506 . S
C170 O188 1.261 . S
C170 O189 1.242 . S
C171 C170 1.506 . S
C171 C172 1.358 . S
C171 C176 1.382 . S
C172 C171 1.358 . S
C172 C173 1.385 1_556 S
C172 H200 0.930 . S
C173 C172 1.385 1_554 S
C173 C174 1.395 . S
C173 H201 0.929 . S
C174 C173 1.395 . S
C174 C175 1.335 1_554 S
C175 C174 1.335 1_556 S
C175 C176 1.398 . S
C175 H202 0.930 1_556 S
C176 C171 1.382 . S
C176 C175 1.398 . S
C176 H203 0.929 . S
C177 O190 1.271 . S
C177 O191 1.251 . S
C178 O192 1.252 . S
C178 O193 1.272 . S
C179 Sm169 2.846 . S
C179 C180 1.506 . S
C179 O194 1.261 . S
C179 O195 1.242 . S
C180 C179 1.506 . S
C180 C181 1.358 . S
C180 C185 1.382 . S
C181 C180 1.358 . S
C181 C182 1.385 . S
C181 H204 0.930 . S
C182 C181 1.385 . S
C182 C183 1.395 . S
C182 H205 0.929 . S
C183 C182 1.395 . S
C183 C184 1.335 . S
C184 C183 1.335 . S
C184 C185 1.398 . S
C184 H206 0.930 . S
C185 C180 1.382 . S
C185 C184 1.398 . S
C185 H207 0.929 . S
C186 O196 1.271 . S
C186 O197 1.251 . S
C187 O198 1.252 . S
C187 O199 1.272 . S
O188 Sm168 2.543 . S
O188 C170 1.261 . S
O189 Sm168 2.450 . S
O189 C170 1.242 . S
O190 Sm168 2.681 . S
O190 Sm169 2.386 . S
O190 C177 1.271 . S
O191 Sm168 2.464 . S
O191 C177 1.251 . S
O192 Sm168 2.396 . S
O192 C178 1.252 . S
O193 Sm169 2.408 . S
O193 C178 1.272 . S
O194 Sm169 2.543 . S
O194 C179 1.261 . S
O195 Sm169 2.450 . S
O195 C179 1.242 . S
O196 Sm168 2.386 . S
O196 Sm169 2.681 . S
O196 C186 1.271 . S
O197 Sm169 2.464 . S
O197 C186 1.251 . S
O198 Sm169 2.396 . S
O198 C187 1.252 . S
O199 Sm168 2.408 . S
O199 C187 1.272 . S
H200 C172 0.930 . S
H201 C173 0.929 . S
H202 C175 0.930 1_554 S
H203 C176 0.929 . S
H204 C181 0.930 . S
H205 C182 0.929 . S
H206 C184 0.930 . S
H207 C185 0.929 . S
Sm208 C210 2.846 . S
Sm208 O228 2.543 . S
Sm208 O229 2.450 . S
Sm208 O230 2.681 1_655 S
Sm208 O231 2.464 . S
Sm208 O232 2.396 . S
Sm208 O236 2.386 . S
Sm208 O239 2.408 1_655 S
Sm209 C219 2.846 . S
Sm209 O230 2.386 . S
Sm209 O233 2.408 1_455 S
Sm209 O234 2.543 . S
Sm209 O235 2.450 . S
Sm209 O236 2.681 1_455 S
Sm209 O237 2.464 . S
Sm209 O238 2.396 . S
C210 Sm208 2.846 . S
C210 C211 1.506 . S
C210 O228 1.261 . S
C210 O229 1.242 . S
C211 C210 1.506 . S
C211 C212 1.358 . S
C211 C216 1.382 . S
C212 C211 1.358 . S
C212 C213 1.385 1_556 S
C212 H240 0.930 . S
C213 C212 1.385 1_554 S
C213 C214 1.395 . S
C213 H241 0.929 . S
C214 C213 1.395 . S
C214 C215 1.335 1_554 S
C215 C214 1.335 1_556 S
C215 C216 1.398 . S
C215 H242 0.930 . S
C216 C211 1.382 . S
C216 C215 1.398 . S
C216 H243 0.929 . S
C217 O230 1.258 1_655 S
C217 O231 1.275 . S
C218 O232 1.252 . S
C218 O233 1.272 . S
C219 Sm209 2.846 . S
C219 C220 1.506 . S
C219 O234 1.261 . S
C219 O235 1.242 . S
C220 C219 1.506 . S
C220 C221 1.358 . S
C220 C225 1.382 . S
C221 C220 1.358 . S
C221 C222 1.385 . S
C221 H244 0.930 . S
C222 C221 1.385 . S
C222 C223 1.395 . S
C222 H245 0.929 . S
C223 C222 1.395 . S
C223 C224 1.335 . S
C224 C223 1.335 . S
C224 C225 1.398 . S
C224 H246 0.930 . S
C225 C220 1.382 . S
C225 C224 1.398 . S
C225 H247 0.929 . S
C226 O236 1.271 1_455 S
C226 O237 1.251 . S
C227 O238 1.252 . S
C227 O239 1.272 . S
O228 Sm208 2.543 . S
O228 C210 1.261 . S
O229 Sm208 2.450 . S
O229 C210 1.242 . S
O230 Sm208 2.681 1_455 S
O230 Sm209 2.386 . S
O230 C217 1.258 1_455 S
O231 Sm208 2.464 . S
O231 C217 1.275 . S
O232 Sm208 2.396 . S
O232 C218 1.252 . S
O233 Sm209 2.408 1_655 S
O233 C218 1.272 . S
O234 Sm209 2.543 . S
O234 C219 1.261 . S
O235 Sm209 2.450 . S
O235 C219 1.242 . S
O236 Sm208 2.386 . S
O236 Sm209 2.681 1_655 S
O236 C226 1.271 1_655 S
O237 Sm209 2.464 . S
O237 C226 1.251 . S
O238 Sm209 2.396 . S
O238 C227 1.252 . S
O239 Sm208 2.408 1_455 S
O239 C227 1.272 . S
H240 C212 0.930 . S
H241 C213 0.929 . S
H242 C215 0.930 . S
H243 C216 0.929 . S
H244 C221 0.930 . S
H245 C222 0.929 . S
H246 C224 0.930 . S
H247 C225 0.929 . S
C248 C249 1.391 . S
C248 C250 1.394 . S
C248 H264 0.931 . S
C249 C248 1.391 . S
C249 C253 1.376 . S
C250 C248 1.394 . S
C250 C251 1.369 . S
C250 C254 1.531 . S
C251 C250 1.369 . S
C251 C252 1.410 . S
C251 C259 1.503 . S
C252 C251 1.410 . S
C252 C253 1.392 . S
C252 C255 1.511 . S
C253 C249 1.376 . S
C253 C252 1.392 . S
C253 H265 0.929 1_565 S
C254 C250 1.531 . S
C254 H266 0.960 . S
C254 H267 0.962 1_565 S
C254 H268 0.960 . S
C255 C252 1.511 . S
C255 H269 0.961 1_565 S
C255 H270 0.961 1_565 S
C255 H271 0.961 . S
C256 C257 1.388 . S
C256 C258 1.363 . S
C256 H272 0.931 . S
C257 C256 1.388 . S
C257 C261 1.388 1_545 S
C258 C256 1.363 . S
C258 C259 1.370 1_545 S
C258 C262 1.524 . S
C259 C251 1.503 . S
C259 C258 1.370 1_565 S
C259 C260 1.403 . S
C260 C259 1.403 . S
C260 C261 1.404 . S
C260 C263 1.539 . S
C261 C257 1.388 1_565 S
C261 C260 1.404 . S
C261 H273 0.930 . S
C262 C258 1.524 . S
C262 H274 0.956 . S
C262 H275 0.961 . S
C262 H276 0.961 . S
C263 C260 1.539 . S
C263 H277 0.958 . S
C263 H278 0.961 . S
C263 H279 0.960 . S
H264 C248 0.931 . S
H265 C253 0.929 1_545 S
H266 C254 0.960 . S
H267 C254 0.962 1_545 S
H268 C254 0.960 . S
H269 C255 0.961 1_545 S
H270 C255 0.961 1_545 S
H271 C255 0.961 . S
H272 C256 0.931 . S
H273 C261 0.930 . S
H274 C262 0.956 . S
H275 C262 0.961 . S
H276 C262 0.961 . S
H277 C263 0.958 . S
H278 C263 0.961 . S
H279 C263 0.960 . S
C280 C281 1.391 . S
C280 C282 1.394 . S
C280 H296 0.931 . S
C281 C280 1.391 . S
C281 C285 1.376 . S
C282 C280 1.394 . S
C282 C283 1.369 . S
C282 C286 1.531 . S
C283 C282 1.369 . S
C283 C284 1.410 . S
C283 C291 1.503 . S
C284 C283 1.410 . S
C284 C285 1.392 . S
C284 C287 1.511 . S
C285 C281 1.376 . S
C285 C284 1.392 . S
C285 H297 0.929 . S
C286 C282 1.531 . S
C286 H298 0.960 . S
C286 H299 0.962 . S
C286 H300 0.960 . S
C287 C284 1.511 . S
C287 H301 0.961 . S
C287 H302 0.961 . S
C287 H303 0.961 . S
C288 C289 1.370 . S
C288 C290 1.363 . S
C288 H304 0.931 . S
C289 C288 1.370 . S
C289 C293 1.408 . S
C290 C288 1.363 . S
C290 C291 1.370 . S
C290 C294 1.524 . S
C291 C283 1.503 . S
C291 C290 1.370 . S
C291 C292 1.403 . S
C292 C291 1.403 . S
C292 C293 1.404 . S
C292 C295 1.539 . S
C293 C289 1.408 . S
C293 C292 1.404 . S
C293 H305 0.930 . S
C294 C290 1.524 . S
C294 H306 0.956 . S
C294 H307 0.961 . S
C294 H308 0.961 . S
C295 C292 1.539 . S
C295 H309 0.958 . S
C295 H310 0.961 . S
C295 H311 0.960 . S
H296 C280 0.931 . S
H297 C285 0.929 . S
H298 C286 0.960 . S
H299 C286 0.962 . S
H300 C286 0.960 . S
H301 C287 0.961 . S
H302 C287 0.961 . S
H303 C287 0.961 . S
H304 C288 0.931 . S
H305 C293 0.930 . S
H306 C294 0.956 . S
H307 C294 0.961 . S
H308 C294 0.961 . S
H309 C295 0.958 . S
H310 C295 0.961 . S
H311 C295 0.960 . S
C312 C313 1.391 . S
C312 C314 1.394 . S
C312 H328 0.931 . S
C313 C312 1.391 . S
C313 C317 1.376 . S
C314 C312 1.394 . S
C314 C315 1.369 . S
C314 C318 1.531 . S
C315 C314 1.369 . S
C315 C316 1.410 . S
C315 C323 1.503 . S
C316 C315 1.410 . S
C316 C317 1.392 . S
C316 C319 1.511 . S
C317 C313 1.376 . S
C317 C316 1.392 . S
C317 H329 0.929 . S
C318 C314 1.531 . S
C318 H330 0.960 . S
C318 H331 0.962 . S
C318 H332 0.960 . S
C319 C316 1.511 . S
C319 H333 0.961 . S
C319 H334 0.961 . S
C319 H335 0.961 . S
C320 C321 1.370 . S
C320 C322 1.363 . S
C320 H336 0.931 . S
C321 C320 1.370 . S
C321 C325 1.408 . S
C322 C320 1.363 . S
C322 C323 1.370 . S
C322 C326 1.524 . S
C323 C315 1.503 . S
C323 C322 1.370 . S
C323 C324 1.403 . S
C324 C323 1.403 . S
C324 C325 1.404 . S
C324 C327 1.539 . S
C325 C321 1.408 . S
C325 C324 1.404 . S
C325 H337 0.930 . S
C326 C322 1.524 . S
C326 H338 0.956 . S
C326 H339 0.961 . S
C326 H340 0.961 . S
C327 C324 1.539 . S
C327 H341 0.958 . S
C327 H342 0.961 . S
C327 H343 0.960 . S
H328 C312 0.931 . S
H329 C317 0.929 . S
H330 C318 0.960 . S
H331 C318 0.962 . S
H332 C318 0.960 . S
H333 C319 0.961 . S
H334 C319 0.961 . S
H335 C319 0.961 . S
H336 C320 0.931 . S
H337 C325 0.930 . S
H338 C326 0.956 . S
H339 C326 0.961 . S
H340 C326 0.961 . S
H341 C327 0.958 . S
H342 C327 0.961 . S
H343 C327 0.960 . S
C344 C345 1.391 1_455 S
C344 C346 1.394 . S
C344 H360 0.931 . S
C345 C344 1.391 1_655 S
C345 C349 1.376 . S
C346 C344 1.394 . S
C346 C347 1.369 1_455 S
C346 C350 1.531 . S
C347 C346 1.369 1_655 S
C347 C348 1.410 . S
C347 C355 1.503 . S
C348 C347 1.410 . S
C348 C349 1.392 . S
C348 C351 1.511 . S
C349 C345 1.376 . S
C349 C348 1.392 . S
C349 H361 0.929 . S
C350 C346 1.531 . S
C350 H362 0.960 . S
C350 H363 0.962 . S
C350 H364 0.960 . S
C351 C348 1.511 . S
C351 H365 0.961 . S
C351 H366 0.961 . S
C351 H367 0.961 . S
C352 C353 1.393 . S
C352 C354 1.363 . S
C352 H368 0.931 . S
C353 C352 1.393 . S
C353 C357 1.384 1_455 S
C354 C352 1.363 . S
C354 C355 1.370 1_455 S
C354 C358 1.524 . S
C355 C347 1.503 . S
C355 C354 1.370 1_655 S
C355 C356 1.403 . S
C356 C355 1.403 . S
C356 C357 1.404 . S
C356 C359 1.539 . S
C357 C353 1.384 1_655 S
C357 C356 1.404 . S
C357 H369 0.930 . S
C358 C354 1.524 . S
C358 H370 0.956 . S
C358 H371 0.961 . S
C358 H372 0.961 . S
C359 C356 1.539 . S
C359 H373 0.958 . S
C359 H374 0.961 . S
C359 H375 0.960 . S
H360 C344 0.931 . S
H361 C349 0.929 . S
H362 C350 0.960 . S
H363 C350 0.962 . S
H364 C350 0.960 . S
H365 C351 0.961 . S
H366 C351 0.961 . S
H367 C351 0.961 . S
H368 C352 0.931 . S
H369 C357 0.930 . S
H370 C358 0.956 . S
H371 C358 0.961 . S
H372 C358 0.961 . S
H373 C359 0.958 . S
H374 C359 0.961 . S
H375 C359 0.960 . S
C376 C377 1.391 . S
C376 C378 1.394 . S
C376 H392 0.931 . S
C377 C376 1.391 . S
C377 C381 1.379 . S
C378 C376 1.394 . S
C378 C379 1.369 . S
C378 C382 1.531 . S
C379 C378 1.369 . S
C379 C380 1.410 . S
C379 C387 1.503 . S
C380 C379 1.410 . S
C380 C381 1.396 . S
C380 C383 1.511 1_554 S
C381 C377 1.379 . S
C381 C380 1.396 . S
C381 H393 0.924 1_565 S
C382 C378 1.531 . S
C382 H394 0.960 . S
C382 H395 0.962 1_565 S
C382 H396 0.960 . S
C383 C380 1.511 1_556 S
C383 H397 0.961 1_565 S
C383 H398 0.961 1_565 S
C383 H399 0.961 . S
C384 C385 1.370 1_545 S
C384 C386 1.363 . S
C384 H400 0.931 . S
C385 C384 1.370 1_565 S
C385 C389 1.408 . S
C386 C384 1.363 . S
C386 C387 1.370 1_546 S
C386 C390 1.524 1_556 S
C387 C379 1.503 . S
C387 C386 1.370 1_564 S
C387 C388 1.403 1_554 S
C388 C387 1.403 1_556 S
C388 C389 1.404 . S
C388 C391 1.539 . S
C389 C385 1.408 . S
C389 C388 1.404 . S
C389 H401 0.930 . S
C390 C386 1.524 1_554 S
C390 H402 0.956 . S
C390 H403 0.961 . S
C390 H404 0.961 . S
C391 C388 1.539 . S
C391 H405 0.958 1_556 S
C391 H406 0.961 . S
C391 H407 0.960 1_556 S
H392 C376 0.931 . S
H393 C381 0.924 1_545 S
H394 C382 0.960 . S
H395 C382 0.962 1_545 S
H396 C382 0.960 . S
H397 C383 0.961 1_545 S
H398 C383 0.961 1_545 S
H399 C383 0.961 . S
H400 C384 0.931 . S
H401 C389 0.930 . S
H402 C390 0.956 . S
H403 C390 0.961 . S
H404 C390 0.961 . S
H405 C391 0.958 1_554 S
H406 C391 0.961 . S
H407 C391 0.960 1_554 S
C408 C409 1.391 . S
C408 C410 1.394 . S
C408 H424 0.931 . S
C409 C408 1.391 . S
C409 C413 1.376 . S
C410 C408 1.394 . S
C410 C411 1.369 . S
C410 C414 1.531 . S
C411 C410 1.369 . S
C411 C412 1.410 . S
C411 C419 1.503 . S
C412 C411 1.410 . S
C412 C413 1.392 . S
C412 C415 1.511 . S
C413 C409 1.376 . S
C413 C412 1.392 . S
C413 H425 0.929 . S
C414 C410 1.531 . S
C414 H426 0.960 . S
C414 H427 0.962 . S
C414 H428 0.960 . S
C415 C412 1.511 . S
C415 H429 0.961 . S
C415 H430 0.961 1_554 S
C415 H431 0.961 . S
C416 C417 1.370 . S
C416 C418 1.363 . S
C416 H432 0.931 . S
C417 C416 1.370 . S
C417 C421 1.408 . S
C418 C416 1.363 . S
C418 C419 1.370 1_556 S
C418 C422 1.524 . S
C419 C411 1.503 . S
C419 C418 1.370 1_554 S
C419 C420 1.403 . S
C420 C419 1.403 . S
C420 C421 1.404 1_554 S
C420 C423 1.539 . S
C421 C417 1.408 . S
C421 C420 1.404 1_556 S
C421 H433 0.930 . S
C422 C418 1.524 . S
C422 H434 0.956 1_556 S
C422 H435 0.961 . S
C422 H436 0.961 . S
C423 C420 1.539 . S
C423 H437 0.958 . S
C423 H438 0.961 . S
C423 H439 0.960 . S
H424 C408 0.931 . S
H425 C413 0.929 . S
H426 C414 0.960 . S
H427 C414 0.962 . S
H428 C414 0.960 . S
H429 C415 0.961 . S
H430 C415 0.961 1_556 S
H431 C415 0.961 . S
H432 C416 0.931 . S
H433 C421 0.930 . S
H434 C422 0.956 1_554 S
H435 C422 0.961 . S
H436 C422 0.961 . S
H437 C423 0.958 . S
H438 C423 0.961 . S
H439 C423 0.960 . S
C440 C441 1.391 . S
C440 C442 1.394 . S
C440 H456 0.931 . S
C441 C440 1.391 . S
C441 C445 1.376 . S
C442 C440 1.394 . S
C442 C443 1.369 . S
C442 C446 1.531 . S
C443 C442 1.369 . S
C443 C444 1.410 . S
C443 C451 1.503 . S
C444 C443 1.410 . S
C444 C445 1.392 . S
C444 C447 1.511 1_554 S
C445 C441 1.376 . S
C445 C444 1.392 . S
C445 H457 0.929 . S
C446 C442 1.531 . S
C446 H458 0.960 . S
C446 H459 0.962 . S
C446 H460 0.960 . S
C447 C444 1.511 1_556 S
C447 H461 0.961 . S
C447 H462 0.961 . S
C447 H463 0.961 . S
C448 C449 1.370 . S
C448 C450 1.363 . S
C448 H464 0.931 . S
C449 C448 1.370 . S
C449 C453 1.408 . S
C450 C448 1.363 . S
C450 C451 1.370 1_556 S
C450 C454 1.524 1_556 S
C451 C443 1.503 . S
C451 C450 1.370 1_554 S
C451 C452 1.403 1_554 S
C452 C451 1.403 1_556 S
C452 C453 1.404 . S
C452 C455 1.539 . S
C453 C449 1.408 . S
C453 C452 1.404 . S
C453 H465 0.930 . S
C454 C450 1.524 1_554 S
C454 H466 0.956 . S
C454 H467 0.961 . S
C454 H468 0.961 . S
C455 C452 1.539 . S
C455 H469 0.958 1_556 S
C455 H470 0.961 . S
C455 H471 0.960 1_556 S
H456 C440 0.931 . S
H457 C445 0.929 . S
H458 C446 0.960 . S
H459 C446 0.962 . S
H460 C446 0.960 . S
H461 C447 0.961 . S
H462 C447 0.961 . S
H463 C447 0.961 . S
H464 C448 0.931 . S
H465 C453 0.930 . S
H466 C454 0.956 . S
H467 C454 0.961 . S
H468 C454 0.961 . S
H469 C455 0.958 1_554 S
H470 C455 0.961 . S
H471 C455 0.960 1_554 S
C472 C473 1.391 1_455 S
C472 C474 1.394 . S
C472 H488 0.931 . S
C473 C472 1.391 1_655 S
C473 C477 1.376 . S
C474 C472 1.394 . S
C474 C475 1.369 1_455 S
C474 C478 1.531 . S
C475 C474 1.369 1_655 S
C475 C476 1.410 . S
C475 C483 1.503 . S
C476 C475 1.410 . S
C476 C477 1.392 . S
C476 C479 1.511 . S
C477 C473 1.376 . S
C477 C476 1.392 . S
C477 H489 0.929 . S
C478 C474 1.531 . S
C478 H490 0.960 . S
C478 H491 0.962 . S
C478 H492 0.960 . S
C479 C476 1.511 . S
C479 H493 0.961 . S
C479 H494 0.961 1_554 S
C479 H495 0.961 . S
C480 C481 1.370 1_455 S
C480 C482 1.363 . S
C480 H496 0.931 . S
C481 C480 1.370 1_655 S
C481 C485 1.408 . S
C482 C480 1.363 . S
C482 C483 1.370 1_456 S
C482 C486 1.524 . S
C483 C475 1.503 . S
C483 C482 1.370 1_654 S
C483 C484 1.403 . S
C484 C483 1.403 . S
C484 C485 1.404 1_554 S
C484 C487 1.539 . S
C485 C481 1.408 . S
C485 C484 1.404 1_556 S
C485 H497 0.930 . S
C486 C482 1.524 . S
C486 H498 0.956 1_556 S
C486 H499 0.961 . S
C486 H500 0.961 . S
C487 C484 1.539 . S
C487 H501 0.958 . S
C487 H502 0.961 . S
C487 H503 0.960 . S
H488 C472 0.931 . S
H489 C477 0.929 . S
H490 C478 0.960 . S
H491 C478 0.962 . S
H492 C478 0.960 . S
H493 C479 0.961 . S
H494 C479 0.961 1_556 S
H495 C479 0.961 . S
H496 C480 0.931 . S
H497 C485 0.930 . S
H498 C486 0.956 1_554 S
H499 C486 0.961 . S
H500 C486 0.961 . S
H501 C487 0.958 . S
H502 C487 0.961 . S
H503 C487 0.960 . S
C504 C505 1.386 1_455 S
C504 C506 1.394 . S
C504 H520 0.931 . S
C505 C504 1.386 1_655 S
C505 C509 1.385 . S
C506 C504 1.394 . S
C506 C507 1.369 1_455 S
C506 C510 1.531 . S
C507 C506 1.369 1_655 S
C507 C508 1.410 . S
C507 C515 1.503 . S
C508 C507 1.410 . S
C508 C509 1.392 . S
C508 C511 1.511 . S
C509 C505 1.385 . S
C509 C508 1.392 . S
C509 H521 0.929 . S
C510 C506 1.531 . S
C510 H522 0.960 . S
C510 H523 0.962 . S
C510 H524 0.960 . S
C511 C508 1.511 . S
C511 H525 0.961 . S
C511 H526 0.961 . S
C511 H527 0.961 . S
C512 C513 1.370 . S
C512 C514 1.363 . S
C512 H528 0.931 . S
C513 C512 1.370 . S
C513 C517 1.408 . S
C514 C512 1.363 . S
C514 C515 1.370 . S
C514 C518 1.524 1_655 S
C515 C507 1.503 . S
C515 C514 1.370 . S
C515 C516 1.403 . S
C516 C515 1.403 . S
C516 C517 1.404 . S
C516 C519 1.539 . S
C517 C513 1.408 . S
C517 C516 1.404 . S
C517 H529 0.930 . S
C518 C514 1.524 1_455 S
C518 H530 0.956 . S
C518 H531 0.961 1_455 S
C518 H532 0.961 . S
C519 C516 1.539 . S
C519 H533 0.958 . S
C519 H534 0.961 . S
C519 H535 0.960 . S
H520 C504 0.931 . S
H521 C509 0.929 . S
H522 C510 0.960 . S
H523 C510 0.962 . S
H524 C510 0.960 . S
H525 C511 0.961 . S
H526 C511 0.961 . S
H527 C511 0.961 . S
H528 C512 0.931 . S
H529 C517 0.930 . S
H530 C518 0.956 . S
H531 C518 0.961 1_655 S
H532 C518 0.961 . S
H533 C519 0.958 . S
H534 C519 0.961 . S
H535 C519 0.960 . S
C536 C537 1.391 1_565 S
C536 C538 1.394 . S
C536 H552 0.931 . S
C537 C536 1.391 1_545 S
C537 C541 1.376 . S
C538 C536 1.394 . S
C538 C539 1.369 . S
C538 C542 1.531 . S
C539 C538 1.369 . S
C539 C540 1.410 1_565 S
C539 C547 1.503 . S
C540 C539 1.410 1_545 S
C540 C541 1.392 . S
C540 C543 1.511 . S
C541 C537 1.376 . S
C541 C540 1.392 . S
C541 H553 0.929 . S
C542 C538 1.531 . S
C542 H554 0.960 . S
C542 H555 0.962 . S
C542 H556 0.960 . S
C543 C540 1.511 . S
C543 H557 0.961 . S
C543 H558 0.961 . S
C543 H559 0.961 . S
C544 C545 1.370 . S
C544 C546 1.363 . S
C544 H560 0.931 . S
C545 C544 1.370 . S
C545 C549 1.408 . S
C546 C544 1.363 . S
C546 C547 1.370 . S
C546 C550 1.524 . S
C547 C539 1.503 . S
C547 C546 1.370 . S
C547 C548 1.403 . S
C548 C547 1.403 . S
C548 C549 1.404 . S
C548 C551 1.539 1_565 S
C549 C545 1.408 . S
C549 C548 1.404 . S
C549 H561 0.930 . S
C550 C546 1.524 . S
C550 H562 0.956 . S
C550 H563 0.961 . S
C550 H564 0.961 . S
C551 C548 1.539 1_545 S
C551 H565 0.958 . S
C551 H566 0.961 . S
C551 H567 0.960 . S
H552 C536 0.931 . S
H553 C541 0.929 . S
H554 C542 0.960 . S
H555 C542 0.962 . S
H556 C542 0.960 . S
H557 C543 0.961 . S
H558 C543 0.961 . S
H559 C543 0.961 . S
H560 C544 0.931 . S
H561 C549 0.930 . S
H562 C550 0.956 . S
H563 C550 0.961 . S
H564 C550 0.961 . S
H565 C551 0.958 . S
H566 C551 0.961 . S
H567 C551 0.960 . S
C568 C569 1.391 . S
C568 C570 1.394 . S
C568 H584 0.931 . S
C569 C568 1.391 . S
C569 C573 1.376 . S
C570 C568 1.394 . S
C570 C571 1.369 . S
C570 C574 1.531 . S
C571 C570 1.369 . S
C571 C572 1.410 . S
C571 C579 1.503 . S
C572 C571 1.410 . S
C572 C573 1.392 . S
C572 C575 1.511 . S
C573 C569 1.376 . S
C573 C572 1.392 . S
C573 H585 0.929 . S
C574 C570 1.531 . S
C574 H586 0.960 . S
C574 H587 0.962 . S
C574 H588 0.960 . S
C575 C572 1.511 . S
C575 H589 0.961 . S
C575 H590 0.961 . S
C575 H591 0.961 . S
C576 C577 1.370 . S
C576 C578 1.363 . S
C576 H592 0.931 . S
C577 C576 1.370 . S
C577 C581 1.408 . S
C578 C576 1.363 . S
C578 C579 1.370 . S
C578 C582 1.524 . S
C579 C571 1.503 . S
C579 C578 1.370 . S
C579 C580 1.403 . S
C580 C579 1.403 . S
C580 C581 1.404 . S
C580 C583 1.539 . S
C581 C577 1.408 . S
C581 C580 1.404 . S
C581 H593 0.930 . S
C582 C578 1.524 . S
C582 H594 0.956 . S
C582 H595 0.961 . S
C582 H596 0.961 . S
C583 C580 1.539 . S
C583 H597 0.958 . S
C583 H598 0.961 . S
C583 H599 0.960 . S
H584 C568 0.931 . S
H585 C573 0.929 . S
H586 C574 0.960 . S
H587 C574 0.962 . S
H588 C574 0.960 . S
H589 C575 0.961 . S
H590 C575 0.961 . S
H591 C575 0.961 . S
H592 C576 0.931 . S
H593 C581 0.930 . S
H594 C582 0.956 . S
H595 C582 0.961 . S
H596 C582 0.961 . S
H597 C583 0.958 . S
H598 C583 0.961 . S
H599 C583 0.960 . S
C600 C601 1.391 . S
C600 C602 1.394 . S
C600 H616 0.931 . S
C601 C600 1.391 . S
C601 C605 1.376 . S
C602 C600 1.394 . S
C602 C603 1.369 . S
C602 C606 1.531 . S
C603 C602 1.369 . S
C603 C604 1.410 . S
C603 C611 1.503 . S
C604 C603 1.410 . S
C604 C605 1.392 . S
C604 C607 1.511 . S
C605 C601 1.376 . S
C605 C604 1.392 . S
C605 H617 0.929 . S
C606 C602 1.531 . S
C606 H618 0.960 . S
C606 H619 0.962 . S
C606 H620 0.960 . S
C607 C604 1.511 . S
C607 H621 0.961 . S
C607 H622 0.961 . S
C607 H623 0.961 . S
C608 C609 1.370 . S
C608 C610 1.363 . S
C608 H624 0.931 . S
C609 C608 1.370 . S
C609 C613 1.408 . S
C610 C608 1.363 . S
C610 C611 1.370 . S
C610 C614 1.524 . S
C611 C603 1.503 . S
C611 C610 1.370 . S
C611 C612 1.403 . S
C612 C611 1.403 . S
C612 C613 1.404 . S
C612 C615 1.539 . S
C613 C609 1.408 . S
C613 C612 1.404 . S
C613 H625 0.930 . S
C614 C610 1.524 . S
C614 H626 0.956 . S
C614 H627 0.961 . S
C614 H628 0.961 . S
C615 C612 1.539 . S
C615 H629 0.958 . S
C615 H630 0.961 . S
C615 H631 0.960 . S
H616 C600 0.931 . S
H617 C605 0.929 . S
H618 C606 0.960 . S
H619 C606 0.962 . S
H620 C606 0.960 . S
H621 C607 0.961 . S
H622 C607 0.961 . S
H623 C607 0.961 . S
H624 C608 0.931 . S
H625 C613 0.930 . S
H626 C614 0.956 . S
H627 C614 0.961 . S
H628 C614 0.961 . S
H629 C615 0.958 . S
H630 C615 0.961 . S
H631 C615 0.960 . S
C632 C633 1.391 . S
C632 C634 1.394 . S
C632 H648 0.931 . S
C633 C632 1.391 . S
C633 C637 1.376 1_655 S
C634 C632 1.394 . S
C634 C635 1.369 1_655 S
C634 C638 1.531 . S
C635 C634 1.369 1_455 S
C635 C636 1.410 . S
C635 C643 1.503 . S
C636 C635 1.410 . S
C636 C637 1.392 . S
C636 C639 1.511 . S
C637 C633 1.376 1_455 S
C637 C636 1.392 . S
C637 H649 0.929 . S
C638 C634 1.531 . S
C638 H650 0.960 . S
C638 H651 0.962 1_655 S
C638 H652 0.960 . S
C639 C636 1.511 . S
C639 H653 0.961 . S
C639 H654 0.961 . S
C639 H655 0.961 . S
C640 C641 1.370 . S
C640 C642 1.363 . S
C640 H656 0.931 . S
C641 C640 1.370 . S
C641 C645 1.408 . S
C642 C640 1.363 . S
C642 C643 1.370 . S
C642 C646 1.524 . S
C643 C635 1.503 . S
C643 C642 1.370 . S
C643 C644 1.403 . S
C644 C643 1.403 . S
C644 C645 1.404 . S
C644 C647 1.539 1_455 S
C645 C641 1.408 . S
C645 C644 1.404 . S
C645 H657 0.927 1_455 S
C646 C642 1.524 . S
C646 H658 0.956 . S
C646 H659 0.961 . S
C646 H660 0.961 . S
C647 C644 1.539 1_655 S
C647 H661 0.958 . S
C647 H662 0.961 . S
C647 H663 0.960 . S
H648 C632 0.931 . S
H649 C637 0.929 . S
H650 C638 0.960 . S
H651 C638 0.962 1_455 S
H652 C638 0.960 . S
H653 C639 0.961 . S
H654 C639 0.961 . S
H655 C639 0.961 . S
H656 C640 0.931 . S
H657 C645 0.927 1_655 S
H658 C646 0.956 . S
H659 C646 0.961 . S
H660 C646 0.961 . S
H661 C647 0.958 . S
H662 C647 0.961 . S
H663 C647 0.960 . S
C664 C665 1.391 1_545 S
C664 C666 1.394 . S
C664 H680 0.931 . S
C665 C664 1.391 1_565 S
C665 C669 1.376 . S
C666 C664 1.394 . S
C666 C667 1.369 . S
C666 C670 1.531 . S
C667 C666 1.369 . S
C667 C668 1.410 1_545 S
C667 C675 1.503 . S
C668 C667 1.410 1_565 S
C668 C669 1.392 . S
C668 C671 1.511 . S
C669 C665 1.376 . S
C669 C668 1.392 . S
C669 H681 0.929 . S
C670 C666 1.531 . S
C670 H682 0.960 . S
C670 H683 0.962 . S
C670 H684 0.960 . S
C671 C668 1.511 . S
C671 H685 0.961 . S
C671 H686 0.961 1_565 S
C671 H687 0.961 . S
C672 C673 1.370 . S
C672 C674 1.363 . S
C672 H688 0.931 . S
C673 C672 1.370 . S
C673 C677 1.408 . S
C674 C672 1.363 . S
C674 C675 1.370 . S
C674 C678 1.524 . S
C675 C667 1.503 . S
C675 C674 1.370 . S
C675 C676 1.403 . S
C676 C675 1.403 . S
C676 C677 1.404 . S
C676 C679 1.539 1_545 S
C677 C673 1.408 . S
C677 C676 1.404 . S
C677 H689 0.928 1_554 S
C678 C674 1.524 . S
C678 H690 0.956 . S
C678 H691 0.961 . S
C678 H692 0.961 . S
C679 C676 1.539 1_565 S
C679 H693 0.958 1_554 S
C679 H694 0.961 . S
C679 H695 0.960 . S
H680 C664 0.931 . S
H681 C669 0.929 . S
H682 C670 0.960 . S
H683 C670 0.962 . S
H684 C670 0.960 . S
H685 C671 0.961 . S
H686 C671 0.961 1_545 S
H687 C671 0.961 . S
H688 C672 0.931 . S
H689 C677 0.928 1_556 S
H690 C678 0.956 . S
H691 C678 0.961 . S
H692 C678 0.961 . S
H693 C679 0.958 1_556 S
H694 C679 0.961 . S
H695 C679 0.960 . S
C696 C697 1.391 . S
C696 C698 1.394 . S
C696 H712 0.931 . S
C697 C696 1.391 . S
C697 C701 1.376 . S
C698 C696 1.394 . S
C698 C699 1.369 . S
C698 C702 1.531 . S
C699 C698 1.369 . S
C699 C700 1.410 . S
C699 C707 1.503 . S
C700 C699 1.410 . S
C700 C701 1.392 . S
C700 C703 1.511 . S
C701 C697 1.376 . S
C701 C700 1.392 . S
C701 H713 0.929 . S
C702 C698 1.531 . S
C702 H714 0.960 . S
C702 H715 0.962 . S
C702 H716 0.960 . S
C703 C700 1.511 . S
C703 H717 0.961 . S
C703 H718 0.961 . S
C703 H719 0.961 . S
C704 C705 1.370 . S
C704 C706 1.363 . S
C704 H720 0.931 . S
C705 C704 1.370 . S
C705 C709 1.408 . S
C706 C704 1.363 . S
C706 C707 1.370 . S
C706 C710 1.524 . S
C707 C699 1.503 . S
C707 C706 1.370 . S
C707 C708 1.403 . S
C708 C707 1.403 . S
C708 C709 1.404 . S
C708 C711 1.539 . S
C709 C705 1.408 . S
C709 C708 1.404 . S
C709 H721 0.930 . S
C710 C706 1.524 . S
C710 H722 0.956 . S
C710 H723 0.961 . S
C710 H724 0.961 . S
C711 C708 1.539 . S
C711 H725 0.958 . S
C711 H726 0.961 . S
C711 H727 0.960 . S
H712 C696 0.931 . S
H713 C701 0.929 . S
H714 C702 0.960 . S
H715 C702 0.962 . S
H716 C702 0.960 . S
H717 C703 0.961 . S
H718 C703 0.961 . S
H719 C703 0.961 . S
H720 C704 0.931 . S
H721 C709 0.930 . S
H722 C710 0.956 . S
H723 C710 0.961 . S
H724 C710 0.961 . S
H725 C711 0.958 . S
H726 C711 0.961 . S
H727 C711 0.960 . S
C728 C729 1.391 . S
C728 C730 1.394 . S
C728 H744 0.931 . S
C729 C728 1.391 . S
C729 C733 1.376 . S
C730 C728 1.394 . S
C730 C731 1.369 . S
C730 C734 1.531 . S
C731 C730 1.369 . S
C731 C732 1.410 . S
C731 C739 1.503 . S
C732 C731 1.410 . S
C732 C733 1.392 . S
C732 C735 1.511 . S
C733 C729 1.376 . S
C733 C732 1.392 . S
C733 H745 0.929 . S
C734 C730 1.531 . S
C734 H746 0.960 . S
C734 H747 0.962 . S
C734 H748 0.960 . S
C735 C732 1.511 . S
C735 H749 0.961 . S
C735 H750 0.961 . S
C735 H751 0.961 . S
C736 C737 1.370 . S
C736 C738 1.363 . S
C736 H752 0.931 1_554 S
C737 C736 1.370 . S
C737 C741 1.408 . S
C738 C736 1.363 . S
C738 C739 1.370 . S
C738 C742 1.524 . S
C739 C731 1.503 . S
C739 C738 1.370 . S
C739 C740 1.403 . S
C740 C739 1.403 . S
C740 C741 1.404 . S
C740 C743 1.539 . S
C741 C737 1.408 . S
C741 C740 1.404 . S
C741 H753 0.930 . S
C742 C738 1.524 . S
C742 H754 0.956 . S
C742 H755 0.961 . S
C742 H756 0.961 . S
C743 C740 1.539 . S
C743 H757 0.958 . S
C743 H758 0.961 . S
C743 H759 0.960 . S
H744 C728 0.931 . S
H745 C733 0.929 . S
H746 C734 0.960 . S
H747 C734 0.962 . S
H748 C734 0.960 . S
H749 C735 0.961 . S
H750 C735 0.961 . S
H751 C735 0.961 . S
H752 C736 0.931 1_556 S
H753 C741 0.930 . S
H754 C742 0.956 . S
H755 C742 0.961 . S
H756 C742 0.961 . S
H757 C743 0.958 . S
H758 C743 0.961 . S
H759 C743 0.960 . S
C760 C761 1.391 1_655 S
C760 C762 1.394 . S
C760 H776 0.931 . S
C761 C760 1.391 1_455 S
C761 C765 1.376 . S
C762 C760 1.394 . S
C762 C763 1.369 1_655 S
C762 C766 1.531 . S
C763 C762 1.369 1_455 S
C763 C764 1.410 . S
C763 C771 1.503 . S
C764 C763 1.410 . S
C764 C765 1.392 . S
C764 C767 1.511 . S
C765 C761 1.376 . S
C765 C764 1.392 . S
C765 H777 0.929 . S
C766 C762 1.531 . S
C766 H778 0.960 . S
C766 H779 0.962 . S
C766 H780 0.960 . S
C767 C764 1.511 . S
C767 H781 0.961 . S
C767 H782 0.961 . S
C767 H783 0.961 . S
C768 C769 1.370 . S
C768 C770 1.363 . S
C768 H784 0.931 . S
C769 C768 1.370 . S
C769 C773 1.408 . S
C770 C768 1.363 . S
C770 C771 1.370 . S
C770 C774 1.524 1_455 S
C771 C763 1.503 . S
C771 C770 1.370 . S
C771 C772 1.403 . S
C772 C771 1.403 . S
C772 C773 1.404 . S
C772 C775 1.539 . S
C773 C769 1.408 . S
C773 C772 1.404 . S
C773 H785 0.930 . S
C774 C770 1.524 1_655 S
C774 H786 0.956 . S
C774 H787 0.961 1_655 S
C774 H788 0.961 . S
C775 C772 1.539 . S
C775 H789 0.958 . S
C775 H790 0.961 . S
C775 H791 0.960 . S
H776 C760 0.931 . S
H777 C765 0.929 . S
H778 C766 0.960 . S
H779 C766 0.962 . S
H780 C766 0.960 . S
H781 C767 0.961 . S
H782 C767 0.961 . S
H783 C767 0.961 . S
H784 C768 0.931 . S
H785 C773 0.930 . S
H786 C774 0.956 . S
H787 C774 0.961 1_455 S
H788 C774 0.961 . S
H789 C775 0.958 . S
H790 C775 0.961 . S
H791 C775 0.960 . S
C792 C793 1.389 1_565 S
C792 C794 1.394 . S
C792 H808 0.931 . S
C793 C792 1.389 1_545 S
C793 C797 1.378 . S
C794 C792 1.394 . S
C794 C795 1.360 1_565 S
C794 C798 1.531 . S
C795 C794 1.360 1_545 S
C795 C796 1.418 . S
C795 C803 1.506 . S
C796 C795 1.418 . S
C796 C797 1.392 . S
C796 C799 1.511 . S
C797 C793 1.378 . S
C797 C796 1.392 . S
C797 H809 0.929 . S
C798 C794 1.531 . S
C798 H810 0.960 . S
C798 H811 0.962 . S
C798 H812 0.960 . S
C799 C796 1.511 . S
C799 H813 0.961 . S
C799 H814 0.961 . S
C799 H815 0.961 . S
C800 C801 1.370 . S
C800 C802 1.363 . S
C800 H816 0.931 . S
C801 C800 1.370 . S
C801 C805 1.408 1_545 S
C802 C800 1.363 . S
C802 C803 1.370 . S
C802 C806 1.524 . S
C803 C795 1.506 . S
C803 C802 1.370 . S
C803 C804 1.403 1_545 S
C804 C803 1.403 1_565 S
C804 C805 1.404 . S
C804 C807 1.539 . S
C805 C801 1.408 1_565 S
C805 C804 1.404 . S
C805 H817 0.930 . S
C806 C802 1.524 . S
C806 H818 0.956 . S
C806 H819 0.961 . S
C806 H820 0.961 . S
C807 C804 1.539 . S
C807 H821 0.958 . S
C807 H822 0.961 . S
C807 H823 0.960 . S
H808 C792 0.931 . S
H809 C797 0.929 . S
H810 C798 0.960 . S
H811 C798 0.962 . S
H812 C798 0.960 . S
H813 C799 0.961 . S
H814 C799 0.961 . S
H815 C799 0.961 . S
H816 C800 0.931 . S
H817 C805 0.930 . S
H818 C806 0.956 . S
H819 C806 0.961 . S
H820 C806 0.961 . S
H821 C807 0.958 . S
H822 C807 0.961 . S
H823 C807 0.960 . S
C824 C825 1.391 . S
C824 C826 1.394 . S
C824 H840 0.931 . S
C825 C824 1.391 . S
C825 C829 1.376 . S
C826 C824 1.394 . S
C826 C827 1.369 . S
C826 C830 1.531 . S
C827 C826 1.369 . S
C827 C828 1.410 . S
C827 C835 1.503 . S
C828 C827 1.410 . S
C828 C829 1.392 . S
C828 C831 1.511 . S
C829 C825 1.376 . S
C829 C828 1.392 . S
C829 H841 0.929 . S
C830 C826 1.531 . S
C830 H842 0.960 . S
C830 H843 0.962 . S
C830 H844 0.960 . S
C831 C828 1.511 . S
C831 H845 0.961 . S
C831 H846 0.961 . S
C831 H847 0.961 . S
C832 C833 1.370 . S
C832 C834 1.363 . S
C832 H848 0.931 . S
C833 C832 1.370 . S
C833 C837 1.408 . S
C834 C832 1.363 . S
C834 C835 1.370 . S
C834 C838 1.524 . S
C835 C827 1.503 . S
C835 C834 1.370 . S
C835 C836 1.403 . S
C836 C835 1.403 . S
C836 C837 1.404 . S
C836 C839 1.539 . S
C837 C833 1.408 . S
C837 C836 1.404 . S
C837 H849 0.930 . S
C838 C834 1.524 . S
C838 H850 0.956 . S
C838 H851 0.961 . S
C838 H852 0.961 . S
C839 C836 1.539 . S
C839 H853 0.958 . S
C839 H854 0.961 1_556 S
C839 H855 0.960 . S
H840 C824 0.931 . S
H841 C829 0.929 . S
H842 C830 0.960 . S
H843 C830 0.962 . S
H844 C830 0.960 . S
H845 C831 0.961 . S
H846 C831 0.961 . S
H847 C831 0.961 . S
H848 C832 0.931 . S
H849 C837 0.930 . S
H850 C838 0.956 . S
H851 C838 0.961 . S
H852 C838 0.961 . S
H853 C839 0.958 . S
H854 C839 0.961 1_554 S
H855 C839 0.960 . S
C856 C857 1.391 . S
C856 C858 1.394 . S
C856 H872 0.931 . S
C857 C856 1.391 . S
C857 C861 1.376 . S
C858 C856 1.394 . S
C858 C859 1.369 . S
C858 C862 1.531 . S
C859 C858 1.369 . S
C859 C860 1.410 . S
C859 C867 1.503 . S
C860 C859 1.410 . S
C860 C861 1.392 . S
C860 C863 1.511 . S
C861 C857 1.376 . S
C861 C860 1.392 . S
C861 H873 0.929 . S
C862 C858 1.531 . S
C862 H874 0.960 . S
C862 H875 0.962 . S
C862 H876 0.960 . S
C863 C860 1.511 . S
C863 H877 0.961 . S
C863 H878 0.961 . S
C863 H879 0.961 . S
C864 C865 1.370 . S
C864 C866 1.363 . S
C864 H880 0.931 . S
C865 C864 1.370 . S
C865 C869 1.408 . S
C866 C864 1.363 . S
C866 C867 1.370 . S
C866 C870 1.524 . S
C867 C859 1.503 . S
C867 C866 1.370 . S
C867 C868 1.403 . S
C868 C867 1.403 . S
C868 C869 1.404 . S
C868 C871 1.539 . S
C869 C865 1.408 . S
C869 C868 1.404 . S
C869 H881 0.930 . S
C870 C866 1.524 . S
C870 H882 0.956 . S
C870 H883 0.961 . S
C870 H884 0.961 . S
C871 C868 1.539 . S
C871 H885 0.958 . S
C871 H886 0.961 1_556 S
C871 H887 0.960 . S
H872 C856 0.931 . S
H873 C861 0.929 . S
H874 C862 0.960 . S
H875 C862 0.962 . S
H876 C862 0.960 . S
H877 C863 0.961 . S
H878 C863 0.961 . S
H879 C863 0.961 . S
H880 C864 0.931 . S
H881 C869 0.930 . S
H882 C870 0.956 . S
H883 C870 0.961 . S
H884 C870 0.961 . S
H885 C871 0.958 . S
H886 C871 0.961 1_554 S
H887 C871 0.960 . S
C888 C889 1.391 1_455 S
C888 C890 1.394 . S
C888 H904 0.931 . S
C889 C888 1.391 1_655 S
C889 C893 1.376 . S
C890 C888 1.394 . S
C890 C891 1.369 1_455 S
C890 C894 1.531 . S
C891 C890 1.369 1_655 S
C891 C892 1.410 . S
C891 C899 1.503 . S
C892 C891 1.410 . S
C892 C893 1.392 . S
C892 C895 1.511 . S
C893 C889 1.376 . S
C893 C892 1.392 . S
C893 H905 0.929 . S
C894 C890 1.531 . S
C894 H906 0.960 . S
C894 H907 0.962 . S
C894 H908 0.960 . S
C895 C892 1.511 . S
C895 H909 0.961 . S
C895 H910 0.961 . S
C895 H911 0.961 . S
C896 C897 1.370 1_455 S
C896 C898 1.363 . S
C896 H912 0.931 . S
C897 C896 1.370 1_655 S
C897 C901 1.408 . S
C898 C896 1.363 . S
C898 C899 1.370 1_455 S
C898 C902 1.524 . S
C899 C891 1.503 . S
C899 C898 1.370 1_655 S
C899 C900 1.403 . S
C900 C899 1.403 . S
C900 C901 1.404 . S
C900 C903 1.539 . S
C901 C897 1.408 . S
C901 C900 1.404 . S
C901 H913 0.930 . S
C902 C898 1.524 . S
C902 H914 0.956 . S
C902 H915 0.961 . S
C902 H916 0.961 . S
C903 C900 1.539 . S
C903 H917 0.958 . S
C903 H918 0.961 . S
C903 H919 0.960 . S
H904 C888 0.931 . S
H905 C893 0.929 . S
H906 C894 0.960 . S
H907 C894 0.962 . S
H908 C894 0.960 . S
H909 C895 0.961 . S
H910 C895 0.961 . S
H911 C895 0.961 . S
H912 C896 0.931 . S
H913 C901 0.930 . S
H914 C902 0.956 . S
H915 C902 0.961 . S
H916 C902 0.961 . S
H917 C903 0.958 . S
H918 C903 0.961 . S
H919 C903 0.960 . S
C920 C921 1.391 . S
C920 C922 1.394 . S
C920 H936 0.931 . S
C921 C920 1.391 . S
C921 C925 1.376 1_565 S
C922 C920 1.394 . S
C922 C923 1.369 . S
C922 C926 1.531 . S
C923 C922 1.369 . S
C923 C924 1.410 1_565 S
C923 C931 1.503 . S
C924 C923 1.410 1_545 S
C924 C925 1.392 . S
C924 C927 1.511 . S
C925 C921 1.376 1_545 S
C925 C924 1.392 . S
C925 H937 0.929 . S
C926 C922 1.531 . S
C926 H938 0.960 . S
C926 H939 0.962 . S
C926 H940 0.960 . S
C927 C924 1.511 . S
C927 H941 0.961 . S
C927 H942 0.961 . S
C927 H943 0.961 . S
C928 C929 1.370 1_545 S
C928 C930 1.363 . S
C928 H944 0.931 . S
C929 C928 1.370 1_565 S
C929 C933 1.408 . S
C930 C928 1.363 . S
C930 C931 1.370 1_545 S
C930 C934 1.524 . S
C931 C923 1.503 . S
C931 C930 1.370 1_565 S
C931 C932 1.403 . S
C932 C931 1.403 . S
C932 C933 1.404 . S
C932 C935 1.539 . S
C933 C929 1.408 . S
C933 C932 1.404 . S
C933 H945 0.930 . S
C934 C930 1.524 . S
C934 H946 0.956 . S
C934 H947 0.961 . S
C934 H948 0.961 . S
C935 C932 1.539 . S
C935 H949 0.958 . S
C935 H950 0.961 . S
C935 H951 0.960 . S
H936 C920 0.931 . S
H937 C925 0.929 . S
H938 C926 0.960 . S
H939 C926 0.962 . S
H940 C926 0.960 . S
H941 C927 0.961 . S
H942 C927 0.961 . S
H943 C927 0.961 . S
H944 C928 0.931 . S
H945 C933 0.930 . S
H946 C934 0.956 . S
H947 C934 0.961 . S
H948 C934 0.961 . S
H949 C935 0.958 . S
H950 C935 0.961 . S
H951 C935 0.960 . S
C952 C953 1.391 . S
C952 C954 1.394 . S
C952 H968 0.931 . S
C953 C952 1.391 . S
C953 C957 1.376 . S
C954 C952 1.394 . S
C954 C955 1.369 . S
C954 C958 1.531 . S
C955 C954 1.369 . S
C955 C956 1.410 . S
C955 C963 1.503 . S
C956 C955 1.410 . S
C956 C957 1.392 . S
C956 C959 1.511 . S
C957 C953 1.376 . S
C957 C956 1.392 . S
C957 H969 0.929 . S
C958 C954 1.531 . S
C958 H970 0.960 . S
C958 H971 0.962 . S
C958 H972 0.960 . S
C959 C956 1.511 . S
C959 H973 0.961 . S
C959 H974 0.961 . S
C959 H975 0.961 . S
C960 C961 1.370 . S
C960 C962 1.363 . S
C960 H976 0.931 . S
C961 C960 1.370 . S
C961 C965 1.408 . S
C962 C960 1.363 . S
C962 C963 1.370 . S
C962 C966 1.524 . S
C963 C955 1.503 . S
C963 C962 1.370 . S
C963 C964 1.403 . S
C964 C963 1.403 . S
C964 C965 1.404 . S
C964 C967 1.539 . S
C965 C961 1.408 . S
C965 C964 1.404 . S
C965 H977 0.930 . S
C966 C962 1.524 . S
C966 H978 0.956 . S
C966 H979 0.961 . S
C966 H980 0.961 . S
C967 C964 1.539 . S
C967 H981 0.958 . S
C967 H982 0.961 . S
C967 H983 0.960 . S
H968 C952 0.931 . S
H969 C957 0.929 . S
H970 C958 0.960 . S
H971 C958 0.962 . S
H972 C958 0.960 . S
H973 C959 0.961 . S
H974 C959 0.961 . S
H975 C959 0.961 . S
H976 C960 0.931 . S
H977 C965 0.930 . S
H978 C966 0.956 . S
H979 C966 0.961 . S
H980 C966 0.961 . S
H981 C967 0.958 . S
H982 C967 0.961 . S
H983 C967 0.960 . S
C984 C985 1.391 . S
C984 C986 1.394 . S
C984 H1000 0.931 . S
C985 C984 1.391 . S
C985 C989 1.376 . S
C986 C984 1.394 . S
C986 C987 1.369 . S
C986 C990 1.531 . S
C987 C986 1.369 . S
C987 C988 1.410 . S
C987 C995 1.503 . S
C988 C987 1.410 . S
C988 C989 1.392 . S
C988 C991 1.511 . S
C989 C985 1.376 . S
C989 C988 1.392 . S
C989 H1001 0.929 . S
C990 C986 1.531 . S
C990 H1002 0.960 . S
C990 H1003 0.962 . S
C990 H1004 0.960 . S
C991 C988 1.511 . S
C991 H1005 0.961 . S
C991 H1006 0.961 . S
C991 H1007 0.961 . S
C992 C993 1.370 . S
C992 C994 1.363 . S
C992 H1008 0.931 . S
C993 C992 1.370 . S
C993 C997 1.408 . S
C994 C992 1.363 . S
C994 C995 1.370 . S
C994 C998 1.524 . S
C995 C987 1.503 . S
C995 C994 1.370 . S
C995 C996 1.403 . S
C996 C995 1.403 . S
C996 C997 1.404 . S
C996 C999 1.539 . S
C997 C993 1.408 . S
C997 C996 1.404 . S
C997 H1009 0.930 . S
C998 C994 1.524 . S
C998 H1010 0.956 . S
C998 H1011 0.961 . S
C998 H1012 0.961 . S
C999 C996 1.539 . S
C999 H1013 0.958 . S
C999 H1014 0.961 . S
C999 H1015 0.960 . S
H1000 C984 0.931 . S
H1001 C989 0.929 . S
H1002 C990 0.960 . S
H1003 C990 0.962 . S
H1004 C990 0.960 . S
H1005 C991 0.961 . S
H1006 C991 0.961 . S
H1007 C991 0.961 . S
H1008 C992 0.931 . S
H1009 C997 0.930 . S
H1010 C998 0.956 . S
H1011 C998 0.961 . S
H1012 C998 0.961 . S
H1013 C999 0.958 . S
H1014 C999 0.961 . S
H1015 C999 0.960 . S
C249 C74 1.776 1_565 S
C257 C97 1.860 1_545 S
C289 C137 1.876 . S
C281 C85 1.745 . S
C321 C177 1.869 . S
C313 C52 1.778 . S
C353 C217 1.864 1_455 S
C345 C63 1.792 1_655 S
C385 C106 1.873 1_565 S
C377 C30 1.779 1_565 S
C409 C41 1.797 . S
C417 C146 1.879 . S
C441 C8 1.778 . S
C449 C186 1.875 . S
C473 C19 1.798 1_655 S
C481 C226 1.876 1_655 S
C513 C103 0.618 . S
C505 C62 0.561 1_655 S
C545 C143 0.581 . S
C537 C73 0.600 . S
C577 C183 0.577 . S
C569 C84 0.591 . S
C601 C51 0.598 . S
C609 C223 0.575 . S
C633 C18 0.704 1_655 S
C641 C94 0.578 . S
C673 C134 0.575 . S
C665 C29 0.685 1_565 S
C705 C174 0.625 . S
C697 C40 0.538 . S
C729 C7 0.557 . S
C737 C214 0.628 . S
C761 C60 1.725 . S
C769 C107 2.230 . S
C793 C71 1.752 . S
C801 C147 2.223 . S
C833 C187 2.226 . S
C825 C82 1.654 . S
C865 C227 2.232 . S
C857 C49 1.654 . S
C889 C16 1.797 1_655 S
C897 C98 2.248 . S
C929 C138 2.232 . S
C921 C27 1.815 1_565 S
C961 C178 2.222 . S
C953 C38 1.791 . S
C985 C5 1.751 . S
C993 C218 2.230 . S
