# Generated by pormake.
# Topology nia, (6,6)-cn, num edge types: 1
# Building blocks:
#     Node 0, Type 0, BuildingBlock: KUMBUR_clean_sbu_0, # of connection points: 6
#     Node 1, Type 0, BuildingBlock: KUMBUR_clean_sbu_0, # of connection points: 6
#     Node 2, Type 1, BuildingBlock: MIDCAF_clean_sbu_0, # of connection points: 6
#     Node 3, Type 1, BuildingBlock: MIDCAF_clean_sbu_0, # of connection points: 6
#     Edge 4, Type (0, 1), BuildingBlock: XIVTED_clean_linker_0, # of connection points: 2
#     Edge 5, Type (0, 1), BuildingBlock: XIVTED_clean_linker_0, # of connection points: 2
#     Edge 6, Type (0, 1), BuildingBlock: XIVTED_clean_linker_0, # of connection points: 2
#     Edge 7, Type (0, 1), BuildingBlock: XIVTED_clean_linker_0, # of connection points: 2
#     Edge 8, Type (0, 1), BuildingBlock: XIVTED_clean_linker_0, # of connection points: 2
#     Edge 9, Type (0, 1), BuildingBlock: XIVTED_clean_linker_0, # of connection points: 2
#     Edge 10, Type (0, 1), BuildingBlock: XIVTED_clean_linker_0, # of connection points: 2
#     Edge 11, Type (0, 1), BuildingBlock: XIVTED_clean_linker_0, # of connection points: 2
#     Edge 12, Type (0, 1), BuildingBlock: XIVTED_clean_linker_0, # of connection points: 2
#     Edge 13, Type (0, 1), BuildingBlock: XIVTED_clean_linker_0, # of connection points: 2
#     Edge 14, Type (0, 1), BuildingBlock: XIVTED_clean_linker_0, # of connection points: 2
#     Edge 15, Type (0, 1), BuildingBlock: XIVTED_clean_linker_0, # of connection points: 2
# Relax obj value: 0.169
# Max RMSD: 0.286
# Mean RMSD: 0.205
data_MOF--net-nia--node1-KUMBUR_clean_sbu_0--node2-MIDCAF_clean_sbu_0--edge1-XIVTED_clean_linker_0
_symmetry_space_group_name_H-M    P1
_symmetry_Int_Tables_number       1
_symmetry_cell_setting            triclinic
loop_
_symmetry_equiv_pos_as_xyz
'x, y, z'
_cell_length_a     28.501289
_cell_length_b     28.377432
_cell_length_c     31.973888
_cell_angle_alpha  89.952725
_cell_angle_beta   89.67714
_cell_angle_gamma 138.78039
loop_
_atom_site_label
_atom_site_type_symbol
_atom_site_fract_x
_atom_site_fract_y
_atom_site_fract_z
_atom_type_partial_charge
Tb0 Tb 0.01997 0.98766 0.07128 0.0
C1 C 0.00022 0.97564 0.88056 0.0
C2 C 0.11512 0.08597 0.85305 0.0
C3 C 0.0397 0.97679 0.81261 0.0
C4 C 0.06363 0.0472 0.88545 0.0
C5 C 0.98661 0.93977 0.84374 0.0
C6 C 0.10385 0.0499 0.81721 0.0
C7 C 0.86633 0.8366 0.86898 0.0
N8 N 0.94953 0.94282 0.91068 0.0
C9 C 0.88207 0.87498 0.90463 0.0
C10 C 0.91908 0.86883 0.83862 0.0
Tb11 Tb 0.98028 0.00938 0.96842 0.0
N12 N 0.07152 0.08014 0.92014 0.0
C13 C 0.12808 0.153 0.92304 0.0
C14 C 0.17454 0.16018 0.85675 0.0
C15 C 0.18038 0.19393 0.89157 0.0
H16 H 0.84112 0.84966 0.92803 0.0
H17 H 0.2255 0.25148 0.89441 0.0
H18 H 0.14324 0.07855 0.79225 0.0
H19 H 0.81351 0.78227 0.86492 0.0
H20 H 0.13381 0.18005 0.94982 0.0
H21 H 0.77156 0.74282 0.1415 0.0
H22 H 0.21517 0.19201 0.83248 0.0
H23 H 0.15687 0.14526 0.11476 0.0
H24 H 0.86688 0.81585 0.08816 0.0
H25 H 0.17973 0.21096 0.17755 0.0
H26 H 0.03062 0.95011 0.7842 0.0
H27 H 0.77663 0.80075 0.20205 0.0
H28 H 0.844 0.91366 0.24173 0.0
H29 H 0.90652 0.83926 0.81084 0.0
H30 H 0.95545 0.04217 0.25136 0.0
N31 N 0.92648 0.91496 0.11802 0.0
C32 C 0.87054 0.84215 0.11452 0.0
C33 C 0.81907 0.83319 0.17885 0.0
C34 C 0.87769 0.9074 0.18312 0.0
C35 C 0.81616 0.80032 0.14479 0.0
C36 C 0.93162 0.94697 0.15217 0.0
H37 H 0.08222 0.15315 0.22826 0.0
N38 N 0.04701 0.05228 0.12918 0.0
C39 C 0.12715 0.15696 0.17227 0.0
C40 C -0.00589 0.01863 0.15782 0.0
C41 C 0.11415 0.11958 0.13686 0.0
C42 C 0.07187 0.12428 0.20072 0.0
C43 C 0.00467 0.05366 0.19415 0.0
O44 O 0.10684 0.0161 0.09618 0.0
O45 O 0.05157 0.02415 1.00754 0.0
O46 O 0.98134 0.93402 0.96312 0.0
O47 O 0.95533 0.89097 0.03174 0.0
O48 O 0.13176 0.07632 0.04836 0.0
O49 O 0.00489 0.90537 0.08892 0.0
O50 O 0.89364 0.98213 0.94447 0.0
O51 O 0.94874 0.97277 0.03213 0.0
O52 O 0.02077 0.06462 0.07588 0.0
O53 O 0.04722 0.10702 1.00712 0.0
O54 O 0.86871 0.92091 0.99157 0.0
O55 O -0.00388 0.09252 0.95222 0.0
C56 C 0.11815 0.07323 1.0096 0.0
C57 C 0.07449 0.93426 0.14661 0.0
C58 C 0.10884 0.89564 0.19306 0.0
C59 C 0.10227 0.90979 0.15244 0.0
C60 C 0.08651 0.90573 0.22764 0.0
C61 C 0.05317 0.9443 0.18174 0.0
C62 C 0.05883 0.92988 0.22191 0.0
C63 C 0.9586 0.88543 0.99071 0.0
C64 C 0.06891 0.9499 0.10397 0.0
C65 C 0.94888 0.01606 0.22346 0.0
C66 C 0.88545 0.94286 0.218 0.0
C67 C 0.88215 0.9238 0.03032 0.0
C68 C 0.92627 0.06561 0.89549 0.0
C69 C 0.89557 0.08715 0.8909 0.0
C70 C 0.89028 0.10413 0.85101 0.0
C71 C 0.91708 0.1002 0.81591 0.0
C72 C 0.95105 0.06055 0.85981 0.0
C73 C 0.94688 0.07807 0.82034 0.0
C74 C 0.04428 0.11327 0.04803 0.0
C75 C 0.93197 0.04865 0.93751 0.0
H76 H 0.11853 0.90163 0.12537 0.0
H77 H 0.09192 0.89655 0.25922 0.0
H78 H 0.03268 0.96375 0.1784 0.0
H79 H 0.04243 0.93821 0.24872 0.0
H80 H 0.87633 0.09117 0.91839 0.0
H81 H 0.91373 0.11286 0.78492 0.0
H82 H 0.97343 0.04299 0.86219 0.0
H83 H 0.96643 0.07406 0.79309 0.0
Tb84 Tb -0.00759 0.04079 0.56445 0.0
C85 C -0.00723 0.96805 0.38383 0.0
C86 C 0.87072 0.85683 0.36734 0.0
C87 C 0.95446 0.93896 0.31143 0.0
C88 C 0.92499 0.90503 0.39688 0.0
C89 C 0.00886 0.98514 0.34089 0.0
C90 C 0.88531 0.87513 0.32464 0.0
C91 C 0.13263 0.08737 0.35908 0.0
N92 N 0.04418 0.01007 0.41323 0.0
C93 C 0.11409 0.06784 0.4013 0.0
C94 C 0.07968 0.04628 0.32874 0.0
Tb95 Tb 0.01066 0.96842 0.48092 0.0
N96 N 0.91425 0.88766 0.43812 0.0
C97 C 0.85151 0.82058 0.4514 0.0
C98 C 0.80492 0.78988 0.3813 0.0
C99 C 0.79576 0.77122 0.42339 0.0
H100 H 0.15566 0.09962 0.42435 0.0
H101 H 0.74571 0.71882 0.43435 0.0
H102 H 0.84435 0.8389 0.30146 0.0
H103 H 0.1878 0.13385 0.34996 0.0
H104 H 0.84359 0.80518 0.4838 0.0
H105 H 0.25143 0.31195 0.51549 0.0
H106 H 0.76185 0.75133 0.35964 0.0
H107 H 0.95317 0.96205 0.65766 0.0
H108 H 0.14494 0.18618 0.50478 0.0
H109 H -0.00423 -0.00285 0.72902 0.0
H110 H 0.96602 0.95077 0.27833 0.0
H111 H 0.28854 0.36097 0.58678 0.0
H112 H 0.27093 0.33743 0.66349 0.0
H113 H 0.09422 0.06109 0.29602 0.0
H114 H 0.20406 0.25083 0.72159 0.0
N115 N 0.10778 0.16063 0.5687 0.0
C116 C 0.15357 0.20527 0.53589 0.0
C117 C 0.23833 0.30506 0.58213 0.0
C118 C 0.19731 0.25854 0.61594 0.0
C119 C 0.21732 0.27773 0.54193 0.0
C120 C 0.13219 0.18585 0.60817 0.0
H121 H 0.1033 0.1242 0.74606 0.0
N122 N 0.03722 0.06731 0.63143 0.0
C123 C 0.02502 0.0373 0.70446 0.0
C124 C 0.09585 0.13729 0.64062 0.0
C125 C 0.0015 0.01756 0.66318 0.0
C126 C 0.08529 0.10891 0.71399 0.0
C127 C 0.12178 0.15993 0.68197 0.0
O128 O 0.89452 0.96983 0.59668 0.0
O129 O 0.94044 0.96164 0.51537 0.0
O130 O 0.02511 0.05005 0.45246 0.0
O131 O 0.0224 0.10357 0.50777 0.0
O132 O 0.9124 0.0103 0.52277 0.0
O133 O 0.96184 0.08228 0.59228 0.0
O134 O 0.09027 0.97693 0.47095 0.0
O135 O 0.04783 0.02291 0.54041 0.0
O136 O 0.96664 0.95063 0.58883 0.0
O137 O 0.9449 0.88663 0.53087 0.0
O138 O 0.12354 0.06112 0.49784 0.0
O139 O 0.98053 0.87438 0.47733 0.0
C140 C 0.89891 0.96224 0.50234 0.0
C141 C 0.87647 0.01587 0.64864 0.0
C142 C 0.83236 0.04668 0.69348 0.0
C143 C 0.86504 0.05562 0.65602 0.0
C144 C 0.81446 -0.00026 0.72433 0.0
C145 C 0.85424 0.96647 0.67923 0.0
C146 C 0.82555 0.9602 0.71721 0.0
C147 C 0.03058 0.09793 0.46745 0.0
C148 C 0.90212 0.01978 0.60677 0.0
C149 C 0.18383 0.23255 0.69006 0.0
C150 C 0.22162 0.28184 0.65706 0.0
C151 C 0.11358 0.06899 0.5351 0.0
C152 C 0.0504 0.88421 0.42843 0.0
C153 C 0.10782 0.89623 0.42319 0.0
C154 C 0.11442 0.87378 0.38651 0.0
C155 C 0.06415 0.84155 0.35458 0.0
C156 C -0.00062 0.84899 0.39669 0.0
C157 C 0.00711 0.82931 0.35974 0.0
C158 C 0.94217 0.89293 0.57168 0.0
C159 C 0.0441 0.9083 0.46689 0.0
H160 H 0.87792 0.09041 0.6315 0.0
H161 H 0.79072 -0.00741 0.7538 0.0
H162 H 0.85678 0.93095 0.67362 0.0
H163 H 0.80975 0.92282 0.74078 0.0
H164 H 0.14667 0.92212 0.44786 0.0
H165 H 0.06694 0.82268 0.32633 0.0
H166 H 0.95278 0.83545 0.40049 0.0
H167 H 0.96766 0.80274 0.33543 0.0
Zn168 Zn 0.39527 0.71522 0.19616 0.0
Zn169 Zn 0.34575 0.64787 0.34364 0.0
Zn170 Zn 0.36786 0.67141 0.26883 0.0
C171 C 0.47689 0.7054 0.33082 0.0
C172 C 0.23964 0.51527 0.31016 0.0
O173 O 0.33479 0.72159 0.25478 0.0
O174 O 0.3527 0.74438 0.18685 0.0
C175 C 0.5218 0.78036 0.22116 0.0
O176 O 0.46858 0.7196 0.29523 0.0
O177 O 0.42633 0.66694 0.35707 0.0
O178 O 0.25116 0.5472 0.34297 0.0
O179 O 0.28092 0.55189 0.278 0.0
O180 O 0.49926 0.79104 0.19352 0.0
O181 O 0.47988 0.73529 0.25112 0.0
O182 O 0.29695 0.57072 0.23391 0.0
O183 O 0.34336 0.62204 0.17192 0.0
C184 C 0.3009 0.56607 0.19426 0.0
O185 O 0.34521 0.72532 0.29774 0.0
O186 O 0.34994 0.71547 0.36563 0.0
C187 C 0.32973 0.7429 0.22112 0.0
C188 C 0.34441 0.74007 0.33583 0.0
Zn189 Zn 0.59765 0.27782 0.84591 0.0
Zn190 Zn 0.66177 0.34626 0.69471 0.0
Zn191 Zn 0.63149 0.32565 0.77224 0.0
C192 C 0.75397 0.48126 0.72955 0.0
C193 C 0.52401 0.28186 0.70399 0.0
O194 O 0.66393 0.27664 0.79162 0.0
O195 O 0.63205 0.2407 0.8576 0.0
C196 C 0.69754 0.42998 0.84671 0.0
O197 O 0.71401 0.44383 0.76196 0.0
O198 O 0.74661 0.45067 0.69729 0.0
O199 O 0.57286 0.31117 0.67741 0.0
O200 O 0.53285 0.27685 0.7425 0.0
O201 O 0.65589 0.37374 0.86886 0.0
O202 O 0.7001 0.4259 0.80683 0.0
O203 O 0.51827 0.26165 0.78633 0.0
O204 O 0.49484 0.2089 0.84664 0.0
C205 C 0.47469 0.21882 0.81656 0.0
O206 O 0.6612 0.27574 0.74773 0.0
O207 O 0.67763 0.29195 0.67923 0.0
C208 C 0.66254 0.24941 0.82482 0.0
C209 C 0.67524 0.26609 0.71233 0.0
H210 H 0.06742 0.79521 0.24864 0.0
H211 H 0.37756 0.85339 0.17654 0.0
H212 H 0.22439 0.94468 0.153 0.0
H213 H 0.21468 0.69046 0.26568 0.0
H214 H 0.32571 0.89257 0.17219 0.0
H215 H 0.12386 0.76109 0.25979 0.0
C216 C 0.11379 0.82096 0.23003 0.0
C217 C 0.14095 0.87266 0.19961 0.0
C218 C 0.30115 0.84839 0.19287 0.0
C219 C 0.20521 0.83332 0.21198 0.0
C220 C 0.33078 0.82601 0.19534 0.0
C221 C 0.30028 0.76875 0.22152 0.0
C222 C 0.23982 0.81277 0.21639 0.0
C223 C 0.23983 0.73512 0.24528 0.0
C224 C 0.14572 0.80117 0.23631 0.0
C225 C 0.20072 0.90368 0.1762 0.0
N226 N 0.21125 0.75752 0.24205 0.0
N227 N 0.23069 0.8835 0.18288 0.0
H228 H 0.09915 0.02533 0.61582 0.0
H229 H 0.52042 0.34954 0.64783 0.0
H230 H 0.25287 0.19574 0.52731 0.0
H231 H 0.38224 0.16139 0.72659 0.0
H232 H 0.41699 0.30492 0.61394 0.0
H233 H 0.19586 0.08403 0.6657 0.0
C234 C 0.15294 0.07612 0.60741 0.0
C235 C 0.16815 0.10683 0.56784 0.0
C236 C 0.40877 0.2733 0.63881 0.0
C237 C 0.27863 0.17283 0.62391 0.0
C238 C 0.46792 0.29884 0.65825 0.0
C239 C 0.45982 0.25843 0.6895 0.0
C240 C 0.34042 0.20596 0.65004 0.0
C241 C 0.39059 0.19386 0.70237 0.0
C242 C 0.20808 0.10912 0.63566 0.0
C243 C 0.23891 0.17093 0.55773 0.0
N244 N 0.3332 0.16879 0.682 0.0
N245 N 0.29135 0.20172 0.58551 0.0
H246 H 0.14693 0.24852 1.01424 0.0
H247 H 0.18289 0.42853 0.22398 0.0
H248 H 0.00614 0.12745 0.12089 0.0
H249 H 0.31992 0.54665 0.11558 0.0
H250 H 0.11352 0.31685 0.18613 0.0
H251 H 0.20519 0.35867 0.04921 0.0
C252 C 0.1276 0.24508 0.04467 0.0
C253 C 0.0725 0.17905 0.06496 0.0
C254 C 0.15878 0.36739 0.17071 0.0
C255 C 0.13924 0.30434 0.10548 0.0
C256 C 0.19871 0.43101 0.19251 0.0
C257 C 0.25769 0.49702 0.17322 0.0
C258 C 0.17811 0.37012 0.12937 0.0
C259 C 0.27488 0.49711 0.13187 0.0
C260 C 0.16115 0.30789 0.06484 0.0
C261 C 0.04945 0.17751 0.10446 0.0
N262 N 0.23547 0.43484 0.11146 0.0
N263 N 0.08338 0.23923 0.12363 0.0
H264 H 0.90726 0.18256 0.66979 0.0
H265 H 0.60694 0.13823 0.74722 0.0
H266 H 0.71109 -0.00871 0.73006 0.0
H267 H 0.79015 0.31565 0.67284 0.0
H268 H 0.64654 0.08551 0.74496 0.0
H269 H 0.86876 0.23553 0.67521 0.0
C270 C 0.85611 0.15161 0.68413 0.0
C271 C 0.81231 0.08204 0.69918 0.0
C272 C 0.67796 0.13586 0.72902 0.0
C273 C 0.76787 0.14267 0.70572 0.0
C274 C 0.65538 0.16583 0.73038 0.0
C275 C 0.69576 0.23144 0.71046 0.0
C276 C 0.74148 0.17212 0.70772 0.0
C277 C 0.75772 0.26498 0.68868 0.0
C278 C 0.8342 0.182 0.68735 0.0
C279 C 0.74716 0.04528 0.71832 0.0
N280 N 0.77893 0.23525 0.68813 0.0
N281 N 0.72686 0.07587 0.72087 0.0
H282 H 0.90301 0.01472 0.08174 0.0
H283 H 0.54653 0.70505 0.21488 0.0
H284 H 0.74975 0.79155 0.05212 0.0
H285 H 0.64835 0.91734 0.20253 0.0
H286 H 0.64106 0.74164 0.17107 0.0
H287 H 0.82656 0.98385 0.13899 0.0
C288 C 0.85413 0.95904 0.08802 0.0
C289 C 0.83456 0.90523 0.06387 0.0
C290 C 0.64357 0.78061 0.17895 0.0
C291 C 0.74528 0.86954 0.1283 0.0
C292 C 0.59066 0.76027 0.20464 0.0
C293 C 0.59003 0.80845 0.21226 0.0
C294 C 0.69628 0.84972 0.16146 0.0
C295 C 0.64734 0.87886 0.19743 0.0
C296 C 0.80998 0.94151 0.12033 0.0
C297 C 0.76756 0.83428 0.07103 0.0
N298 N 0.69784 0.89726 0.17233 0.0
N299 N 0.72553 0.81821 0.10308 0.0
H300 H 0.86105 0.84031 0.64299 0.0
H301 H 0.88548 0.58346 0.6946 0.0
H302 H 0.96686 0.81728 0.5653 0.0
H303 H 0.72417 0.55065 0.74954 0.0
H304 H 0.9383 0.69215 0.66055 0.0
H305 H 0.8282 0.75269 0.69251 0.0
C306 C 0.8778 0.81719 0.63655 0.0
C307 C 0.91699 0.83621 0.60013 0.0
C308 C 0.89231 0.66222 0.68079 0.0
C309 C 0.88014 0.73664 0.65663 0.0
C310 C 0.86286 0.60083 0.70082 0.0
C311 C 0.8003 0.55798 0.72482 0.0
C312 C 0.85878 0.68088 0.68454 0.0
C313 C 0.77271 0.58251 0.73151 0.0
C314 C 0.85886 0.76712 0.66473 0.0
C315 C 0.93604 0.80358 0.5928 0.0
N316 N 0.80138 0.64181 0.71078 0.0
N317 N 0.91774 0.75571 0.62087 0.0
H318 H 0.15654 0.84372 0.44691 0.0
H319 H 0.3806 0.84759 0.29145 0.0
H320 H 0.19446 0.90866 0.31744 0.0
H321 H 0.27544 0.72127 0.40443 0.0
H322 H 0.33851 0.8965 0.30574 0.0
H323 H 0.22931 0.8283 0.43751 0.0
C324 C 0.18148 0.85637 0.41674 0.0
C325 C 0.16867 0.87681 0.38283 0.0
C326 C 0.32526 0.85846 0.32747 0.0
C327 C 0.25102 0.85778 0.37164 0.0
C328 C 0.34841 0.82996 0.31904 0.0
C329 C 0.32872 0.77803 0.34577 0.0
C330 C 0.28401 0.83614 0.36353 0.0
C331 C 0.29072 0.76018 0.3825 0.0
C332 C 0.22247 0.84683 0.41128 0.0
C333 C 0.20188 0.89155 0.34426 0.0
N334 N 0.26914 0.78867 0.39009 0.0
N335 N 0.24097 0.88103 0.33957 0.0
H336 H 0.2505 0.20771 0.99105 0.0
H337 H 0.34227 0.08138 0.82356 0.0
H338 H 0.09995 0.98803 0.95381 0.0
H339 H 0.45801 0.29948 0.82994 0.0
H340 H 0.24803 0.04451 0.86713 0.0
H341 H 0.32901 0.24284 0.93278 0.0
C342 C 0.23374 0.16708 0.97032 0.0
C343 C 0.16696 0.09537 0.97565 0.0
C344 C 0.29294 0.10021 0.85804 0.0
C345 C 0.25608 0.13441 0.90974 0.0
C346 C 0.346 0.12094 0.83248 0.0
C347 C 0.40742 0.19335 0.82293 0.0
C348 C 0.30277 0.15271 0.8752 0.0
C349 C 0.41084 0.24295 0.83621 0.0
C350 C 0.27808 0.18704 0.93697 0.0
C351 C 0.14863 0.04426 0.94908 0.0
N352 N 0.36019 0.22207 0.86272 0.0
N353 N 0.19272 0.06471 0.91721 0.0
H354 H 0.03879 0.19884 0.48359 0.0
H355 H 0.10631 0.42243 0.34178 0.0
H356 H 0.05814 0.11375 0.38235 0.0
H357 H 0.25342 0.43202 0.29041 0.0
H358 H 0.03935 0.30782 0.37486 0.0
H359 H 0.07174 0.28662 0.4354 0.0
C360 C 0.04958 0.19808 0.45122 0.0
C361 C 0.04676 0.14903 0.4374 0.0
C362 C 0.08543 0.33422 0.35565 0.0
C363 C 0.08419 0.24986 0.38163 0.0
C364 C 0.12287 0.39891 0.33614 0.0
C365 C 0.1857 0.43687 0.31361 0.0
C366 C 0.11141 0.3076 0.35301 0.0
C367 C 0.20512 0.40425 0.30747 0.0
C368 C 0.06779 0.24801 0.42355 0.0
C369 C 0.06126 0.15123 0.39481 0.0
N370 N 0.16881 0.34186 0.32781 0.0
N371 N 0.08066 0.20163 0.36858 0.0
H372 H 0.76844 0.04387 0.8888 0.0
H373 H 0.78807 0.31669 0.7881 0.0
H374 H 0.93233 0.20963 0.8008 0.0
H375 H 0.61277 0.13354 0.86366 0.0
H376 H 0.84345 0.28024 0.79239 0.0
H377 H 0.71206 0.07798 0.88038 0.0
C378 C 0.79285 0.08782 0.86792 0.0
C379 C 0.85559 0.12444 0.84584 0.0
C380 C 0.79274 0.24793 0.80787 0.0
C381 C 0.79085 0.16338 0.83561 0.0
C382 C 0.76115 0.26854 0.80527 0.0
C383 C 0.69559 0.22746 0.82517 0.0
C384 C 0.75854 0.18621 0.83082 0.0
C385 C 0.66326 0.16638 0.84773 0.0
C386 C 0.76032 0.10693 0.86284 0.0
C387 C 0.88389 0.17984 0.81838 0.0
N388 N 0.69501 0.14755 0.84989 0.0
N389 N 0.85149 0.19791 0.81419 0.0
H390 H 0.76598 0.82827 0.51237 0.0
H391 H 0.61365 0.83469 0.30782 0.0
H392 H 0.90291 0.00057 0.4225 0.0
H393 H 0.49565 0.64776 0.38512 0.0
H394 H 0.72308 0.89469 0.34461 0.0
H395 H 0.66716 0.76038 0.46352 0.0
C396 C 0.77541 0.85091 0.48183 0.0
C397 C 0.84318 0.9183 0.4705 0.0
C398 C 0.67334 0.84005 0.35289 0.0
C399 C 0.7301 0.84268 0.41494 0.0
C400 C 0.61111 0.80567 0.33166 0.0
C401 C 0.54545 0.73667 0.34396 0.0
C402 C 0.66919 0.80497 0.38657 0.0
C403 C 0.54498 0.70153 0.37519 0.0
C404 C 0.71912 0.81245 0.45396 0.0
C405 C 0.8521 0.94738 0.43161 0.0
N406 N 0.60552 0.73634 0.39575 0.0
N407 N 0.79617 0.90931 0.40507 0.0
H408 H -0.0036 0.87354 0.91665 0.0
H409 H 0.68786 0.44812 0.92842 0.0
H410 H 0.8593 0.74977 0.02426 0.0
H411 H 0.808 0.56842 0.81557 0.0
H412 H 0.75863 0.55888 0.96561 0.0
H413 H 0.93779 0.76391 0.88179 0.0
C414 C 0.95436 0.82322 0.93319 0.0
C415 C 0.93179 0.82059 0.97322 0.0
C416 C 0.7697 0.56134 0.93272 0.0
C417 C 0.86463 0.69473 0.93335 0.0
C418 C 0.72922 0.49793 0.91125 0.0
C419 C 0.7415 0.4987 0.86845 0.0
C420 C 0.82327 0.62667 0.91148 0.0
C421 C 0.79602 0.56516 0.84828 0.0
C422 C 0.92089 0.76062 0.91315 0.0
C423 C 0.87813 0.75416 0.99338 0.0
N424 N 0.83491 0.62664 0.87 0.0
N425 N 0.84582 0.69366 0.97301 0.0
loop_
_geom_bond_atom_site_label_1
_geom_bond_atom_site_label_2
_geom_bond_distance
_geom_bond_site_symmetry_2
_ccdc_geom_bond_type
Tb0 N31 2.660 1_455 S
Tb0 N38 2.600 . S
Tb0 O44 2.546 1_565 S
Tb0 O45 2.610 1_564 S
Tb0 O47 2.320 1_454 S
Tb0 O48 2.552 1_565 S
Tb0 O49 2.413 . S
Tb0 O51 2.362 1_455 S
Tb0 O52 2.421 1_565 S
Tb0 C64 2.833 . S
C1 C4 1.432 . S
C1 C5 1.414 . S
C1 N8 1.359 1_455 S
C2 C4 1.417 . S
C2 C6 1.432 . S
C2 C14 1.410 . S
C3 C5 1.444 . S
C3 C6 1.317 . S
C3 H26 0.929 . S
C4 C1 1.432 . S
C4 C2 1.417 . S
C4 N12 1.360 . S
C5 C1 1.414 . S
C5 C3 1.444 . S
C5 C10 1.385 1_455 S
C6 C2 1.432 . S
C6 C3 1.317 . S
C6 H18 0.930 . S
C7 C9 1.392 . S
C7 C10 1.370 1_565 S
C7 H19 0.931 . S
N8 C1 1.359 1_655 S
N8 C9 1.327 1_545 S
N8 Tb11 2.600 . S
C9 C7 1.392 . S
C9 N8 1.327 1_565 S
C9 H16 0.930 . S
C10 C5 1.385 1_655 S
C10 C7 1.370 1_545 S
C10 H29 0.930 . S
Tb11 N8 2.600 . S
Tb11 N12 2.660 1_655 S
Tb11 O45 2.362 1_655 S
Tb11 O46 2.421 1_545 S
Tb11 O50 2.546 1_545 S
Tb11 O51 2.610 1_546 S
Tb11 O53 2.320 1_656 S
Tb11 O54 2.552 1_545 S
Tb11 O55 2.413 . S
Tb11 C75 2.833 . S
N12 C4 1.360 . S
N12 Tb11 2.660 1_455 S
N12 C13 1.305 . S
C13 N12 1.305 . S
C13 C15 1.407 . S
C13 H20 0.930 . S
C14 C2 1.410 . S
C14 C15 1.345 . S
C14 H22 0.930 . S
C15 C13 1.407 . S
C15 C14 1.345 . S
C15 H17 0.930 . S
H16 C9 0.930 . S
H17 C15 0.930 . S
H18 C6 0.930 . S
H19 C7 0.931 . S
H20 C13 0.930 . S
H21 C35 0.930 . S
H22 C14 0.930 . S
H23 C41 0.930 . S
H24 C32 0.930 . S
H25 C39 0.931 . S
H26 C3 0.929 . S
H27 C33 0.930 . S
H28 C66 0.930 . S
H29 C10 0.930 . S
H30 C65 0.929 . S
N31 Tb0 2.660 1_655 S
N31 C32 1.305 . S
N31 C36 1.360 . S
C32 H24 0.930 . S
C32 N31 1.305 . S
C32 C35 1.407 . S
C33 H27 0.930 . S
C33 C34 1.410 . S
C33 C35 1.345 . S
C34 C33 1.410 . S
C34 C36 1.417 . S
C34 C66 1.432 . S
C35 H21 0.930 . S
C35 C32 1.407 . S
C35 C33 1.345 . S
C36 N31 1.360 . S
C36 C34 1.417 . S
C36 C40 1.432 . S
H37 C42 0.927 1_545 S
N38 Tb0 2.600 . S
N38 C40 1.359 1_455 S
N38 C41 1.327 1_565 S
C39 H25 0.931 . S
C39 C41 1.392 . S
C39 C42 1.370 1_545 S
C40 C36 1.432 . S
C40 N38 1.359 1_655 S
C40 C43 1.414 . S
C41 H23 0.930 . S
C41 N38 1.327 1_545 S
C41 C39 1.392 . S
C42 H37 0.927 1_565 S
C42 C39 1.370 1_565 S
C42 C43 1.385 1_455 S
C43 C40 1.414 . S
C43 C42 1.385 1_655 S
C43 C65 1.444 . S
O44 Tb0 2.546 1_545 S
O44 C64 1.251 1_545 S
O45 Tb0 2.610 1_546 S
O45 Tb11 2.362 1_455 S
O45 C56 1.283 . S
O46 Tb11 2.421 1_565 S
O46 C63 1.262 . S
O47 Tb0 2.320 1_656 S
O47 C63 1.260 . S
O48 Tb0 2.552 1_545 S
O48 C56 1.243 1_554 S
O49 Tb0 2.413 . S
O49 C64 1.256 . S
O50 Tb11 2.546 1_565 S
O50 C75 1.251 1_565 S
O51 Tb0 2.362 1_655 S
O51 Tb11 2.610 1_564 S
O51 C67 1.283 . S
O52 Tb0 2.421 1_545 S
O52 C74 1.262 . S
O53 Tb11 2.320 1_454 S
O53 C74 1.260 . S
O54 Tb11 2.552 1_565 S
O54 C67 1.243 1_556 S
O55 Tb11 2.413 . S
O55 C75 1.256 . S
C56 O45 1.283 . S
C56 O48 1.243 1_556 S
C57 C59 1.382 . S
C57 C61 1.393 . S
C57 C64 1.500 . S
C58 C59 1.400 . S
C58 C60 1.384 . S
C59 C57 1.382 . S
C59 C58 1.400 . S
C59 H76 0.930 . S
C60 C58 1.384 . S
C60 C62 1.392 . S
C60 H77 0.931 . S
C61 C57 1.393 . S
C61 C62 1.401 . S
C61 H78 0.930 . S
C62 C60 1.392 . S
C62 C61 1.401 . S
C62 H79 0.930 . S
C63 O46 1.262 . S
C63 O47 1.260 . S
C64 Tb0 2.833 . S
C64 O44 1.251 1_565 S
C64 O49 1.256 . S
C64 C57 1.500 . S
C65 H30 0.929 . S
C65 C43 1.444 . S
C65 C66 1.317 . S
C66 H28 0.930 . S
C66 C34 1.432 . S
C66 C65 1.317 . S
C67 O51 1.283 . S
C67 O54 1.243 1_554 S
C68 C69 1.382 . S
C68 C72 1.393 . S
C68 C75 1.500 . S
C69 C68 1.382 . S
C69 C70 1.400 . S
C69 H80 0.930 . S
C70 C69 1.400 . S
C70 C71 1.384 . S
C71 C70 1.384 . S
C71 C73 1.392 . S
C71 H81 0.931 . S
C72 C68 1.393 . S
C72 C73 1.401 . S
C72 H82 0.930 . S
C73 C71 1.392 . S
C73 C72 1.401 . S
C73 H83 0.930 . S
C74 O52 1.262 . S
C74 O53 1.260 . S
C75 Tb11 2.833 . S
C75 O50 1.251 1_545 S
C75 O55 1.256 . S
C75 C68 1.500 . S
H76 C59 0.930 . S
H77 C60 0.931 . S
H78 C61 0.930 . S
H79 C62 0.930 . S
H80 C69 0.930 . S
H81 C71 0.931 . S
H82 C72 0.930 . S
H83 C73 0.930 . S
Tb84 N115 2.660 1_655 S
Tb84 N122 2.600 1_655 S
Tb84 O128 2.546 . S
Tb84 O129 2.610 1_545 S
Tb84 O131 2.320 1_655 S
Tb84 O132 2.552 1_545 S
Tb84 O133 2.413 . S
Tb84 O135 2.362 1_655 S
Tb84 O136 2.421 1_545 S
Tb84 C148 2.833 . S
C85 C88 1.432 . S
C85 C89 1.414 . S
C85 N92 1.359 1_665 S
C86 C88 1.417 . S
C86 C90 1.432 . S
C86 C98 1.410 . S
C87 C89 1.444 . S
C87 C90 1.317 . S
C87 H110 0.929 . S
C88 C85 1.432 . S
C88 C86 1.417 . S
C88 N96 1.360 . S
C89 C85 1.414 . S
C89 C87 1.444 . S
C89 C94 1.385 1_665 S
C90 C86 1.432 . S
C90 C87 1.317 . S
C90 H102 0.930 . S
C91 C93 1.392 . S
C91 C94 1.370 . S
C91 H103 0.931 . S
N92 C85 1.359 1_445 S
N92 C93 1.327 . S
N92 Tb95 2.600 1_545 S
C93 C91 1.392 . S
C93 N92 1.327 . S
C93 H100 0.930 . S
C94 C89 1.385 1_445 S
C94 C91 1.370 . S
C94 H113 0.930 . S
Tb95 N92 2.600 1_565 S
Tb95 N96 2.660 1_455 S
Tb95 O129 2.362 1_455 S
Tb95 O130 2.421 1_565 S
Tb95 O134 2.546 1_565 S
Tb95 O135 2.610 1_565 S
Tb95 O137 2.320 1_455 S
Tb95 O138 2.552 1_565 S
Tb95 O139 2.413 . S
Tb95 C159 2.833 . S
N96 C88 1.360 . S
N96 Tb95 2.660 1_655 S
N96 C97 1.305 . S
C97 N96 1.305 . S
C97 C99 1.407 . S
C97 H104 0.930 . S
C98 C86 1.410 . S
C98 C99 1.345 . S
C98 H106 0.930 . S
C99 C97 1.407 . S
C99 C98 1.345 . S
C99 H101 0.930 . S
H100 C93 0.930 . S
H101 C99 0.930 . S
H102 C90 0.930 . S
H103 C91 0.931 . S
H104 C97 0.930 . S
H105 C119 0.930 . S
H106 C98 0.930 . S
H107 C125 0.930 . S
H108 C116 0.930 . S
H109 C123 0.931 . S
H110 C87 0.929 . S
H111 C117 0.930 . S
H112 C150 0.930 . S
H113 C94 0.930 . S
H114 C149 0.929 . S
N115 Tb84 2.660 1_455 S
N115 C116 1.305 . S
N115 C120 1.360 . S
C116 H108 0.930 . S
C116 N115 1.305 . S
C116 C119 1.407 . S
C117 H111 0.930 . S
C117 C118 1.410 . S
C117 C119 1.345 . S
C118 C117 1.410 . S
C118 C120 1.417 . S
C118 C150 1.432 . S
C119 H105 0.930 . S
C119 C116 1.407 . S
C119 C117 1.345 . S
C120 N115 1.360 . S
C120 C118 1.417 . S
C120 C124 1.432 . S
H121 C126 0.930 . S
N122 Tb84 2.600 1_455 S
N122 C124 1.359 . S
N122 C125 1.327 1_445 S
C123 H109 0.931 . S
C123 C125 1.392 . S
C123 C126 1.370 1_665 S
C124 C120 1.432 . S
C124 N122 1.359 . S
C124 C127 1.414 . S
C125 H107 0.930 . S
C125 N122 1.327 1_665 S
C125 C123 1.392 . S
C126 H121 0.930 . S
C126 C123 1.370 1_445 S
C126 C127 1.385 . S
C127 C124 1.414 . S
C127 C126 1.385 . S
C127 C149 1.444 . S
O128 Tb84 2.546 . S
O128 C148 1.251 . S
O129 Tb84 2.610 1_565 S
O129 Tb95 2.362 1_655 S
O129 C140 1.283 . S
O130 Tb95 2.421 1_545 S
O130 C147 1.262 . S
O131 Tb84 2.320 1_455 S
O131 C147 1.260 . S
O132 Tb84 2.552 1_565 S
O132 C140 1.243 . S
O133 Tb84 2.413 . S
O133 C148 1.256 . S
O134 Tb95 2.546 1_545 S
O134 C159 1.251 1_545 S
O135 Tb84 2.362 1_455 S
O135 Tb95 2.610 1_545 S
O135 C151 1.283 . S
O136 Tb84 2.421 1_565 S
O136 C158 1.262 . S
O137 Tb95 2.320 1_655 S
O137 C158 1.260 . S
O138 Tb95 2.552 1_545 S
O138 C151 1.243 . S
O139 Tb95 2.413 . S
O139 C159 1.256 . S
C140 O129 1.283 . S
C140 O132 1.243 . S
C141 C143 1.382 . S
C141 C145 1.393 . S
C141 C148 1.500 . S
C142 C143 1.400 . S
C142 C144 1.384 . S
C143 C141 1.382 . S
C143 C142 1.400 . S
C143 H160 0.930 . S
C144 C142 1.384 . S
C144 C146 1.392 . S
C144 H161 0.931 . S
C145 C141 1.393 . S
C145 C146 1.401 . S
C145 H162 0.930 . S
C146 C144 1.392 . S
C146 C145 1.401 . S
C146 H163 0.930 . S
C147 O130 1.262 . S
C147 O131 1.260 . S
C148 Tb84 2.833 . S
C148 O128 1.251 . S
C148 O133 1.256 . S
C148 C141 1.500 . S
C149 H114 0.929 . S
C149 C127 1.444 . S
C149 C150 1.317 . S
C150 H112 0.930 . S
C150 C118 1.432 . S
C150 C149 1.317 . S
C151 O135 1.283 . S
C151 O138 1.243 . S
C152 C153 1.382 . S
C152 C156 1.393 . S
C152 C159 1.500 . S
C153 C152 1.382 . S
C153 C154 1.400 . S
C153 H164 0.930 . S
C154 C153 1.400 . S
C154 C155 1.384 . S
C155 C154 1.384 . S
C155 C157 1.392 . S
C155 H165 0.931 . S
C156 C152 1.393 . S
C156 C157 1.401 . S
C156 H166 0.930 1_565 S
C157 C155 1.392 . S
C157 C156 1.401 . S
C157 H167 0.930 . S
C158 O136 1.262 . S
C158 O137 1.260 . S
C159 Tb95 2.833 . S
C159 O134 1.251 1_565 S
C159 O139 1.256 . S
C159 C152 1.500 . S
H160 C143 0.930 . S
H161 C144 0.931 . S
H162 C145 0.930 . S
H163 C146 0.930 . S
H164 C153 0.930 . S
H165 C155 0.931 . S
H166 C156 0.930 1_545 S
H167 C157 0.930 . S
Zn168 O174 1.920 . S
Zn168 O180 1.898 . S
Zn168 O183 1.905 . S
Zn169 O177 1.905 . S
Zn169 O178 1.898 . S
Zn169 O186 1.920 . S
Zn170 O173 2.080 . S
Zn170 O176 2.114 . S
Zn170 O179 2.120 . S
Zn170 O181 2.120 . S
Zn170 O182 2.114 . S
Zn170 O185 2.080 . S
C171 O176 1.166 . S
C171 O177 1.182 . S
C172 O178 1.167 . S
C172 O179 1.299 . S
O173 Zn170 2.080 . S
O173 C187 1.305 . S
O174 Zn168 1.920 . S
O174 C187 1.234 . S
C175 O180 1.167 . S
C175 O181 1.299 . S
O176 Zn170 2.114 . S
O176 C171 1.166 . S
O177 Zn169 1.905 . S
O177 C171 1.182 . S
O178 Zn169 1.898 . S
O178 C172 1.167 . S
O179 Zn170 2.120 . S
O179 C172 1.299 . S
O180 Zn168 1.898 . S
O180 C175 1.167 . S
O181 Zn170 2.120 . S
O181 C175 1.299 . S
O182 Zn170 2.114 . S
O182 C184 1.166 . S
O183 Zn168 1.905 . S
O183 C184 1.182 . S
C184 O182 1.166 . S
C184 O183 1.182 . S
O185 Zn170 2.080 . S
O185 C188 1.305 . S
O186 Zn169 1.920 . S
O186 C188 1.234 . S
C187 O173 1.305 . S
C187 O174 1.234 . S
C188 O185 1.305 . S
C188 O186 1.234 . S
Zn189 O195 1.920 . S
Zn189 O201 1.898 . S
Zn189 O204 1.905 . S
Zn190 O198 1.905 . S
Zn190 O199 1.898 . S
Zn190 O207 1.920 . S
Zn191 O194 2.080 . S
Zn191 O197 2.114 . S
Zn191 O200 2.120 . S
Zn191 O202 2.120 . S
Zn191 O203 2.114 . S
Zn191 O206 2.080 . S
C192 O197 1.166 . S
C192 O198 1.182 . S
C193 O199 1.167 . S
C193 O200 1.299 . S
O194 Zn191 2.080 . S
O194 C208 1.305 . S
O195 Zn189 1.920 . S
O195 C208 1.234 . S
C196 O201 1.167 . S
C196 O202 1.299 . S
O197 Zn191 2.114 . S
O197 C192 1.166 . S
O198 Zn190 1.905 . S
O198 C192 1.182 . S
O199 Zn190 1.898 . S
O199 C193 1.167 . S
O200 Zn191 2.120 . S
O200 C193 1.299 . S
O201 Zn189 1.898 . S
O201 C196 1.167 . S
O202 Zn191 2.120 . S
O202 C196 1.299 . S
O203 Zn191 2.114 . S
O203 C205 1.166 . S
O204 Zn189 1.905 . S
O204 C205 1.182 . S
C205 O203 1.166 . S
C205 O204 1.182 . S
O206 Zn191 2.080 . S
O206 C209 1.305 . S
O207 Zn190 1.920 . S
O207 C209 1.234 . S
C208 O194 1.305 . S
C208 O195 1.234 . S
C209 O206 1.305 . S
C209 O207 1.234 . S
H210 C216 0.930 . S
H211 C220 0.930 . S
H212 C225 0.929 . S
H213 C223 0.929 . S
H214 C218 0.929 . S
H215 C224 0.929 . S
C216 H210 0.930 . S
C216 C217 1.367 . S
C216 C224 1.378 . S
C217 C216 1.367 . S
C217 C225 1.433 . S
C218 H214 0.929 . S
C218 C220 1.378 . S
C218 C222 1.350 . S
C219 C222 1.463 . S
C219 C224 1.350 . S
C219 N227 1.427 . S
C220 H211 0.930 . S
C220 C218 1.378 . S
C220 C221 1.367 . S
C221 C220 1.367 . S
C221 C223 1.433 . S
C222 C218 1.350 . S
C222 C219 1.463 . S
C222 N226 1.427 . S
C223 H213 0.929 . S
C223 C221 1.433 . S
C223 N226 1.384 . S
C224 H215 0.929 . S
C224 C216 1.378 . S
C224 C219 1.350 . S
C225 H212 0.929 . S
C225 C217 1.433 . S
C225 N227 1.384 . S
N226 C222 1.427 . S
N226 C223 1.384 . S
N227 C219 1.427 . S
N227 C225 1.384 . S
H228 C234 0.930 . S
H229 C238 0.930 . S
H230 C243 0.929 . S
H231 C241 0.929 . S
H232 C236 0.929 . S
H233 C242 0.929 . S
C234 H228 0.930 . S
C234 C235 1.367 . S
C234 C242 1.378 . S
C235 C234 1.367 . S
C235 C243 1.433 . S
C236 H232 0.929 . S
C236 C238 1.378 . S
C236 C240 1.350 . S
C237 C240 1.463 . S
C237 C242 1.350 . S
C237 N245 1.427 . S
C238 H229 0.930 . S
C238 C236 1.378 . S
C238 C239 1.367 . S
C239 C238 1.367 . S
C239 C241 1.433 . S
C240 C236 1.350 . S
C240 C237 1.463 . S
C240 N244 1.427 . S
C241 H231 0.929 . S
C241 C239 1.433 . S
C241 N244 1.384 . S
C242 H233 0.929 . S
C242 C234 1.378 . S
C242 C237 1.350 . S
C243 H230 0.929 . S
C243 C235 1.433 . S
C243 N245 1.384 . S
N244 C240 1.427 . S
N244 C241 1.384 . S
N245 C237 1.427 . S
N245 C243 1.384 . S
H246 C252 0.930 . S
H247 C256 0.930 . S
H248 C261 0.929 . S
H249 C259 0.929 . S
H250 C254 0.929 . S
H251 C260 0.929 . S
C252 H246 0.930 . S
C252 C253 1.367 . S
C252 C260 1.378 . S
C253 C252 1.367 . S
C253 C261 1.433 . S
C254 H250 0.929 . S
C254 C256 1.378 . S
C254 C258 1.350 . S
C255 C258 1.463 . S
C255 C260 1.350 . S
C255 N263 1.427 . S
C256 H247 0.930 . S
C256 C254 1.378 . S
C256 C257 1.367 . S
C257 C256 1.367 . S
C257 C259 1.433 . S
C258 C254 1.350 . S
C258 C255 1.463 . S
C258 N262 1.427 . S
C259 H249 0.929 . S
C259 C257 1.433 . S
C259 N262 1.384 . S
C260 H251 0.929 . S
C260 C252 1.378 . S
C260 C255 1.350 . S
C261 H248 0.929 . S
C261 C253 1.433 . S
C261 N263 1.384 . S
N262 C258 1.427 . S
N262 C259 1.384 . S
N263 C255 1.427 . S
N263 C261 1.384 . S
H264 C270 0.930 . S
H265 C274 0.930 . S
H266 C279 0.929 . S
H267 C277 0.929 . S
H268 C272 0.929 . S
H269 C278 0.929 . S
C270 H264 0.930 . S
C270 C271 1.367 . S
C270 C278 1.378 . S
C271 C270 1.367 . S
C271 C279 1.433 . S
C272 H268 0.929 . S
C272 C274 1.378 . S
C272 C276 1.350 . S
C273 C276 1.463 . S
C273 C278 1.350 . S
C273 N281 1.427 . S
C274 H265 0.930 . S
C274 C272 1.378 . S
C274 C275 1.367 . S
C275 C274 1.367 . S
C275 C277 1.433 . S
C276 C272 1.350 . S
C276 C273 1.463 . S
C276 N280 1.427 . S
C277 H267 0.929 . S
C277 C275 1.433 . S
C277 N280 1.384 . S
C278 H269 0.929 . S
C278 C270 1.378 . S
C278 C273 1.350 . S
C279 H266 0.929 . S
C279 C271 1.433 . S
C279 N281 1.384 . S
N280 C276 1.427 . S
N280 C277 1.384 . S
N281 C273 1.427 . S
N281 C279 1.384 . S
H282 C288 0.930 1_545 S
H283 C292 0.930 . S
H284 C297 0.929 . S
H285 C295 0.929 . S
H286 C290 0.929 . S
H287 C296 0.929 . S
C288 H282 0.930 1_565 S
C288 C289 1.367 . S
C288 C296 1.378 . S
C289 C288 1.367 . S
C289 C297 1.433 . S
C290 H286 0.929 . S
C290 C292 1.378 . S
C290 C294 1.350 . S
C291 C294 1.463 . S
C291 C296 1.350 . S
C291 N299 1.427 . S
C292 H283 0.930 . S
C292 C290 1.378 . S
C292 C293 1.367 . S
C293 C292 1.367 . S
C293 C295 1.433 . S
C294 C290 1.350 . S
C294 C291 1.463 . S
C294 N298 1.427 . S
C295 H285 0.929 . S
C295 C293 1.433 . S
C295 N298 1.384 . S
C296 H287 0.929 . S
C296 C288 1.378 . S
C296 C291 1.350 . S
C297 H284 0.929 . S
C297 C289 1.433 . S
C297 N299 1.384 . S
N298 C294 1.427 . S
N298 C295 1.384 . S
N299 C291 1.427 . S
N299 C297 1.384 . S
H300 C306 0.930 . S
H301 C310 0.930 . S
H302 C315 0.929 . S
H303 C313 0.929 . S
H304 C308 0.929 . S
H305 C314 0.929 . S
C306 H300 0.930 . S
C306 C307 1.367 . S
C306 C314 1.378 . S
C307 C306 1.367 . S
C307 C315 1.433 . S
C308 H304 0.929 . S
C308 C310 1.378 . S
C308 C312 1.350 . S
C309 C312 1.463 . S
C309 C314 1.350 . S
C309 N317 1.427 . S
C310 H301 0.930 . S
C310 C308 1.378 . S
C310 C311 1.367 . S
C311 C310 1.367 . S
C311 C313 1.433 . S
C312 C308 1.350 . S
C312 C309 1.463 . S
C312 N316 1.427 . S
C313 H303 0.929 . S
C313 C311 1.433 . S
C313 N316 1.384 . S
C314 H305 0.929 . S
C314 C306 1.378 . S
C314 C309 1.350 . S
C315 H302 0.929 . S
C315 C307 1.433 . S
C315 N317 1.384 . S
N316 C312 1.427 . S
N316 C313 1.384 . S
N317 C309 1.427 . S
N317 C315 1.384 . S
H318 C324 0.930 . S
H319 C328 0.930 . S
H320 C333 0.929 . S
H321 C331 0.929 . S
H322 C326 0.929 . S
H323 C332 0.929 . S
C324 H318 0.930 . S
C324 C325 1.367 . S
C324 C332 1.378 . S
C325 C324 1.367 . S
C325 C333 1.433 . S
C326 H322 0.929 . S
C326 C328 1.378 . S
C326 C330 1.350 . S
C327 C330 1.463 . S
C327 C332 1.350 . S
C327 N335 1.427 . S
C328 H319 0.930 . S
C328 C326 1.378 . S
C328 C329 1.367 . S
C329 C328 1.367 . S
C329 C331 1.433 . S
C330 C326 1.350 . S
C330 C327 1.463 . S
C330 N334 1.427 . S
C331 H321 0.929 . S
C331 C329 1.433 . S
C331 N334 1.384 . S
C332 H323 0.929 . S
C332 C324 1.378 . S
C332 C327 1.350 . S
C333 H320 0.929 . S
C333 C325 1.433 . S
C333 N335 1.384 . S
N334 C330 1.427 . S
N334 C331 1.384 . S
N335 C327 1.427 . S
N335 C333 1.384 . S
H336 C342 0.930 . S
H337 C346 0.930 . S
H338 C351 0.929 . S
H339 C349 0.929 . S
H340 C344 0.929 . S
H341 C350 0.929 . S
C342 H336 0.930 . S
C342 C343 1.367 . S
C342 C350 1.378 . S
C343 C342 1.367 . S
C343 C351 1.433 . S
C344 H340 0.929 . S
C344 C346 1.378 . S
C344 C348 1.350 . S
C345 C348 1.463 . S
C345 C350 1.350 . S
C345 N353 1.427 . S
C346 H337 0.930 . S
C346 C344 1.378 . S
C346 C347 1.367 . S
C347 C346 1.367 . S
C347 C349 1.433 . S
C348 C344 1.350 . S
C348 C345 1.463 . S
C348 N352 1.427 . S
C349 H339 0.929 . S
C349 C347 1.433 . S
C349 N352 1.384 . S
C350 H341 0.929 . S
C350 C342 1.378 . S
C350 C345 1.350 . S
C351 H338 0.929 . S
C351 C343 1.433 . S
C351 N353 1.384 . S
N352 C348 1.427 . S
N352 C349 1.384 . S
N353 C345 1.427 . S
N353 C351 1.384 . S
H354 C360 0.930 . S
H355 C364 0.930 . S
H356 C369 0.929 . S
H357 C367 0.929 . S
H358 C362 0.929 . S
H359 C368 0.929 . S
C360 H354 0.930 . S
C360 C361 1.367 . S
C360 C368 1.378 . S
C361 C360 1.367 . S
C361 C369 1.433 . S
C362 H358 0.929 . S
C362 C364 1.378 . S
C362 C366 1.350 . S
C363 C366 1.463 . S
C363 C368 1.350 . S
C363 N371 1.427 . S
C364 H355 0.930 . S
C364 C362 1.378 . S
C364 C365 1.367 . S
C365 C364 1.367 . S
C365 C367 1.433 . S
C366 C362 1.350 . S
C366 C363 1.463 . S
C366 N370 1.427 . S
C367 H357 0.929 . S
C367 C365 1.433 . S
C367 N370 1.384 . S
C368 H359 0.929 . S
C368 C360 1.378 . S
C368 C363 1.350 . S
C369 H356 0.929 . S
C369 C361 1.433 . S
C369 N371 1.384 . S
N370 C366 1.427 . S
N370 C367 1.384 . S
N371 C363 1.427 . S
N371 C369 1.384 . S
H372 C378 0.930 . S
H373 C382 0.930 . S
H374 C387 0.929 . S
H375 C385 0.929 . S
H376 C380 0.929 . S
H377 C386 0.929 . S
C378 H372 0.930 . S
C378 C379 1.367 . S
C378 C386 1.378 . S
C379 C378 1.367 . S
C379 C387 1.433 . S
C380 H376 0.929 . S
C380 C382 1.378 . S
C380 C384 1.350 . S
C381 C384 1.463 . S
C381 C386 1.350 . S
C381 N389 1.427 . S
C382 H373 0.930 . S
C382 C380 1.378 . S
C382 C383 1.367 . S
C383 C382 1.367 . S
C383 C385 1.433 . S
C384 C380 1.350 . S
C384 C381 1.463 . S
C384 N388 1.427 . S
C385 H375 0.929 . S
C385 C383 1.433 . S
C385 N388 1.384 . S
C386 H377 0.929 . S
C386 C378 1.378 . S
C386 C381 1.350 . S
C387 H374 0.929 . S
C387 C379 1.433 . S
C387 N389 1.384 . S
N388 C384 1.427 . S
N388 C385 1.384 . S
N389 C381 1.427 . S
N389 C387 1.384 . S
H390 C396 0.930 . S
H391 C400 0.930 . S
H392 C405 0.929 1_545 S
H393 C403 0.929 . S
H394 C398 0.929 . S
H395 C404 0.929 . S
C396 H390 0.930 . S
C396 C397 1.367 . S
C396 C404 1.378 . S
C397 C396 1.367 . S
C397 C405 1.433 . S
C398 H394 0.929 . S
C398 C400 1.378 . S
C398 C402 1.350 . S
C399 C402 1.463 . S
C399 C404 1.350 . S
C399 N407 1.427 . S
C400 H391 0.930 . S
C400 C398 1.378 . S
C400 C401 1.367 . S
C401 C400 1.367 . S
C401 C403 1.433 . S
C402 C398 1.350 . S
C402 C399 1.463 . S
C402 N406 1.427 . S
C403 H393 0.929 . S
C403 C401 1.433 . S
C403 N406 1.384 . S
C404 H395 0.929 . S
C404 C396 1.378 . S
C404 C399 1.350 . S
C405 H392 0.929 1_565 S
C405 C397 1.433 . S
C405 N407 1.384 . S
N406 C402 1.427 . S
N406 C403 1.384 . S
N407 C399 1.427 . S
N407 C405 1.384 . S
H408 C414 0.930 . S
H409 C418 0.930 . S
H410 C423 0.929 . S
H411 C421 0.929 . S
H412 C416 0.929 . S
H413 C422 0.929 . S
C414 H408 0.930 . S
C414 C415 1.367 . S
C414 C422 1.378 . S
C415 C414 1.367 . S
C415 C423 1.433 . S
C416 H412 0.929 . S
C416 C418 1.378 . S
C416 C420 1.350 . S
C417 C420 1.463 . S
C417 C422 1.350 . S
C417 N425 1.427 . S
C418 H409 0.930 . S
C418 C416 1.378 . S
C418 C419 1.367 . S
C419 C418 1.367 . S
C419 C421 1.433 . S
C420 C416 1.350 . S
C420 C417 1.463 . S
C420 N424 1.427 . S
C421 H411 0.929 . S
C421 C419 1.433 . S
C421 N424 1.384 . S
C422 H413 0.929 . S
C422 C414 1.378 . S
C422 C417 1.350 . S
C423 H410 0.929 . S
C423 C415 1.433 . S
C423 N425 1.384 . S
N424 C420 1.427 . S
N424 C421 1.384 . S
N425 C417 1.427 . S
N425 C423 1.384 . S
C217 C58 1.136 . S
C221 C187 1.256 . S
C235 C151 1.584 . S
C239 C193 1.445 . S
C253 C74 1.550 . S
C257 C184 1.481 . S
C271 C142 1.149 . S
C275 C209 1.256 . S
C289 C67 1.575 . S
C293 C175 1.440 . S
C311 C192 1.463 . S
C307 C158 1.551 . S
C325 C154 1.156 . S
C329 C188 1.285 . S
C347 C205 1.498 . S
C343 C56 1.583 . S
C365 C172 1.428 . S
C361 C147 1.563 . S
C383 C208 1.285 . S
C379 C70 1.158 . S
C401 C171 1.489 . S
C397 C140 1.588 . S
C419 C196 1.406 . S
C415 C63 1.569 . S
