# Generated by pormake.
# Topology ocu, (6,8)-cn, num edge types: 1
# Building blocks:
#     Node 0, Type 0, BuildingBlock: FUNLAD_clean_sbu_0, # of connection points: 6
#     Node 1, Type 0, BuildingBlock: FUNLAD_clean_sbu_0, # of connection points: 6
#     Node 2, Type 0, BuildingBlock: FUNLAD_clean_sbu_0, # of connection points: 6
#     Node 3, Type 0, BuildingBlock: FUNLAD_clean_sbu_0, # of connection points: 6
#     Node 4, Type 0, BuildingBlock: FUNLAD_clean_sbu_0, # of connection points: 6
#     Node 5, Type 0, BuildingBlock: FUNLAD_clean_sbu_0, # of connection points: 6
#     Node 6, Type 0, BuildingBlock: FUNLAD_clean_sbu_0, # of connection points: 6
#     Node 7, Type 0, BuildingBlock: FUNLAD_clean_sbu_0, # of connection points: 6
#     Node 8, Type 1, BuildingBlock: GIZVER_clean_sbu_0, # of connection points: 8
#     Node 9, Type 1, BuildingBlock: GIZVER_clean_sbu_0, # of connection points: 8
#     Node 10, Type 1, BuildingBlock: GIZVER_clean_sbu_0, # of connection points: 8
#     Node 11, Type 1, BuildingBlock: GIZVER_clean_sbu_0, # of connection points: 8
#     Node 12, Type 1, BuildingBlock: GIZVER_clean_sbu_0, # of connection points: 8
#     Node 13, Type 1, BuildingBlock: GIZVER_clean_sbu_0, # of connection points: 8
#     Edge 14, Type (0, 1), BuildingBlock: AJUNOK_clean_linker_0, # of connection points: 2
#     Edge 15, Type (0, 1), BuildingBlock: AJUNOK_clean_linker_0, # of connection points: 2
#     Edge 16, Type (0, 1), BuildingBlock: AJUNOK_clean_linker_0, # of connection points: 2
#     Edge 17, Type (0, 1), BuildingBlock: AJUNOK_clean_linker_0, # of connection points: 2
#     Edge 18, Type (0, 1), BuildingBlock: AJUNOK_clean_linker_0, # of connection points: 2
#     Edge 19, Type (0, 1), BuildingBlock: AJUNOK_clean_linker_0, # of connection points: 2
#     Edge 20, Type (0, 1), BuildingBlock: AJUNOK_clean_linker_0, # of connection points: 2
#     Edge 21, Type (0, 1), BuildingBlock: AJUNOK_clean_linker_0, # of connection points: 2
#     Edge 22, Type (0, 1), BuildingBlock: AJUNOK_clean_linker_0, # of connection points: 2
#     Edge 23, Type (0, 1), BuildingBlock: AJUNOK_clean_linker_0, # of connection points: 2
#     Edge 24, Type (0, 1), BuildingBlock: AJUNOK_clean_linker_0, # of connection points: 2
#     Edge 25, Type (0, 1), BuildingBlock: AJUNOK_clean_linker_0, # of connection points: 2
#     Edge 26, Type (0, 1), BuildingBlock: AJUNOK_clean_linker_0, # of connection points: 2
#     Edge 27, Type (0, 1), BuildingBlock: AJUNOK_clean_linker_0, # of connection points: 2
#     Edge 28, Type (0, 1), BuildingBlock: AJUNOK_clean_linker_0, # of connection points: 2
#     Edge 29, Type (0, 1), BuildingBlock: AJUNOK_clean_linker_0, # of connection points: 2
#     Edge 30, Type (0, 1), BuildingBlock: AJUNOK_clean_linker_0, # of connection points: 2
#     Edge 31, Type (0, 1), BuildingBlock: AJUNOK_clean_linker_0, # of connection points: 2
#     Edge 32, Type (0, 1), BuildingBlock: AJUNOK_clean_linker_0, # of connection points: 2
#     Edge 33, Type (0, 1), BuildingBlock: AJUNOK_clean_linker_0, # of connection points: 2
#     Edge 34, Type (0, 1), BuildingBlock: AJUNOK_clean_linker_0, # of connection points: 2
#     Edge 35, Type (0, 1), BuildingBlock: AJUNOK_clean_linker_0, # of connection points: 2
#     Edge 36, Type (0, 1), BuildingBlock: AJUNOK_clean_linker_0, # of connection points: 2
#     Edge 37, Type (0, 1), BuildingBlock: AJUNOK_clean_linker_0, # of connection points: 2
#     Edge 38, Type (0, 1), BuildingBlock: AJUNOK_clean_linker_0, # of connection points: 2
#     Edge 39, Type (0, 1), BuildingBlock: AJUNOK_clean_linker_0, # of connection points: 2
#     Edge 40, Type (0, 1), BuildingBlock: AJUNOK_clean_linker_0, # of connection points: 2
#     Edge 41, Type (0, 1), BuildingBlock: AJUNOK_clean_linker_0, # of connection points: 2
#     Edge 42, Type (0, 1), BuildingBlock: AJUNOK_clean_linker_0, # of connection points: 2
#     Edge 43, Type (0, 1), BuildingBlock: AJUNOK_clean_linker_0, # of connection points: 2
#     Edge 44, Type (0, 1), BuildingBlock: AJUNOK_clean_linker_0, # of connection points: 2
#     Edge 45, Type (0, 1), BuildingBlock: AJUNOK_clean_linker_0, # of connection points: 2
#     Edge 46, Type (0, 1), BuildingBlock: AJUNOK_clean_linker_0, # of connection points: 2
#     Edge 47, Type (0, 1), BuildingBlock: AJUNOK_clean_linker_0, # of connection points: 2
#     Edge 48, Type (0, 1), BuildingBlock: AJUNOK_clean_linker_0, # of connection points: 2
#     Edge 49, Type (0, 1), BuildingBlock: AJUNOK_clean_linker_0, # of connection points: 2
#     Edge 50, Type (0, 1), BuildingBlock: AJUNOK_clean_linker_0, # of connection points: 2
#     Edge 51, Type (0, 1), BuildingBlock: AJUNOK_clean_linker_0, # of connection points: 2
#     Edge 52, Type (0, 1), BuildingBlock: AJUNOK_clean_linker_0, # of connection points: 2
#     Edge 53, Type (0, 1), BuildingBlock: AJUNOK_clean_linker_0, # of connection points: 2
#     Edge 54, Type (0, 1), BuildingBlock: AJUNOK_clean_linker_0, # of connection points: 2
#     Edge 55, Type (0, 1), BuildingBlock: AJUNOK_clean_linker_0, # of connection points: 2
#     Edge 56, Type (0, 1), BuildingBlock: AJUNOK_clean_linker_0, # of connection points: 2
#     Edge 57, Type (0, 1), BuildingBlock: AJUNOK_clean_linker_0, # of connection points: 2
#     Edge 58, Type (0, 1), BuildingBlock: AJUNOK_clean_linker_0, # of connection points: 2
#     Edge 59, Type (0, 1), BuildingBlock: AJUNOK_clean_linker_0, # of connection points: 2
#     Edge 60, Type (0, 1), BuildingBlock: AJUNOK_clean_linker_0, # of connection points: 2
#     Edge 61, Type (0, 1), BuildingBlock: AJUNOK_clean_linker_0, # of connection points: 2
# Relax obj value: 0.256
# Max RMSD: 0.297
# Mean RMSD: 0.224
data_MOF--net-ocu--node1-FUNLAD_clean_sbu_0--node2-GIZVER_clean_sbu_0--edge1-AJUNOK_clean_linker_0
_symmetry_space_group_name_H-M    P1
_symmetry_Int_Tables_number       1
_symmetry_cell_setting            triclinic
loop_
_symmetry_equiv_pos_as_xyz
'x, y, z'
_cell_length_a     32.079437
_cell_length_b     33.08898
_cell_length_c     24.674986
_cell_angle_alpha  81.405419
_cell_angle_beta   83.652012
_cell_angle_gamma 95.153024
loop_
_atom_site_label
_atom_site_type_symbol
_atom_site_fract_x
_atom_site_fract_y
_atom_site_fract_z
_atom_type_partial_charge
C0 C 0.22093 0.3179 0.33708 0.0
N1 N 0.1948 0.21097 0.2684 0.0
C2 C 0.17485 0.19059 0.31744 0.0
C3 C 0.14487 0.15756 0.31837 0.0
C4 C 0.13546 0.14577 0.26838 0.0
C5 C 0.15552 0.16768 0.21827 0.0
C6 C 0.18571 0.20046 0.21926 0.0
Zn7 Zn 0.24206 0.25466 0.26832 0.0
C8 C 0.23801 0.32539 0.18008 0.0
N9 N 0.34331 0.34456 0.26179 0.0
C10 C 0.35355 0.35454 0.31072 0.0
C11 C 0.36494 0.36276 0.21264 0.0
C12 C 0.3987 0.3922 0.21142 0.0
C13 C 0.41011 0.40271 0.26121 0.0
C14 C 0.38744 0.38383 0.31142 0.0
Zn15 Zn 0.29537 0.30157 0.26207 0.0
O16 O 0.20449 0.28497 0.32356 0.0
C17 C 0.29985 0.23135 0.35045 0.0
O18 O 0.25899 0.33071 0.31845 0.0
H19 H 0.35613 0.35418 0.17453 0.0
H20 H 0.18271 0.19961 0.35575 0.0
H21 H 0.33562 0.33955 0.34929 0.0
O22 O 0.26505 0.21864 0.33542 0.0
O23 O 0.31877 0.2656 0.32647 0.0
H24 H 0.20242 0.21702 0.18077 0.0
O25 O 0.33197 0.27193 0.20454 0.0
O26 O 0.27845 0.22477 0.2137 0.0
O27 O 0.27199 0.33843 0.19676 0.0
O28 O 0.2197 0.29034 0.20218 0.0
C29 C 0.3157 0.23838 0.19255 0.0
H30 H 0.12905 0.14128 0.35771 0.0
H31 H 0.14829 0.1593 0.17929 0.0
H32 H 0.4162 0.40637 0.17202 0.0
H33 H 0.39594 0.39143 0.35025 0.0
C34 C 0.7235 0.33186 0.20111 0.0
N35 N 0.76507 0.22366 0.15822 0.0
C36 C 0.75472 0.24174 0.10889 0.0
C37 C 0.72569 0.22076 0.08156 0.0
C38 C 0.70768 0.18081 0.10501 0.0
C39 C 0.7237 0.161 0.15136 0.0
C40 C 0.75261 0.18308 0.17742 0.0
Zn41 Zn 0.77636 0.25964 0.21823 0.0
C42 C 0.84438 0.32872 0.19366 0.0
N43 N 0.78335 0.33176 0.34689 0.0
C44 C 0.76134 0.36227 0.36298 0.0
C45 C 0.82389 0.32947 0.35783 0.0
C46 C 0.84408 0.35794 0.38428 0.0
C47 C 0.82359 0.391 0.39804 0.0
C48 C 0.78109 0.39257 0.38909 0.0
Zn49 Zn 0.76966 0.29561 0.28795 0.0
O50 O 0.73645 0.30071 0.18308 0.0
C51 C 0.70167 0.22825 0.31473 0.0
O52 O 0.73282 0.33938 0.2478 0.0
H53 H 0.84303 0.30844 0.34072 0.0
H54 H 0.76497 0.2739 0.09396 0.0
H55 H 0.72983 0.36493 0.35214 0.0
O56 O 0.72219 0.22247 0.26975 0.0
O57 O 0.71337 0.25984 0.33568 0.0
H58 H 0.76065 0.16917 0.21688 0.0
O59 O 0.80548 0.24996 0.32597 0.0
O60 O 0.81675 0.2179 0.25517 0.0
O61 O 0.82514 0.33066 0.24075 0.0
O62 O 0.8314 0.29981 0.16836 0.0
C63 C 0.82217 0.22183 0.30452 0.0
H64 H 0.71499 0.23669 0.04489 0.0
H65 H 0.71091 0.13012 0.17055 0.0
H66 H 0.87678 0.35559 0.39047 0.0
H67 H 0.76434 0.41802 0.39904 0.0
C68 C 0.79005 0.71981 0.34254 0.0
N69 N 0.84453 0.83508 0.28375 0.0
C70 C 0.83928 0.82871 0.34014 0.0
C71 C 0.86936 0.84403 0.36938 0.0
C72 C 0.90508 0.86808 0.34124 0.0
C73 C 0.9107 0.87528 0.2831 0.0
C74 C 0.87979 0.85762 0.25465 0.0
Zn75 Zn 0.79559 0.80174 0.25738 0.0
C76 C 0.82053 0.74262 0.18773 0.0
N77 N 0.69168 0.7197 0.24238 0.0
C78 C 0.65603 0.70162 0.27544 0.0
C79 C 0.69522 0.72098 0.1866 0.0
C80 C 0.66227 0.70516 0.16172 0.0
C81 C 0.62511 0.68694 0.19416 0.0
C82 C 0.62216 0.68417 0.25192 0.0
Zn83 Zn 0.7409 0.7546 0.26482 0.0
O84 O 0.80893 0.75352 0.31697 0.0
C85 C 0.71651 0.81492 0.33387 0.0
O86 O 0.75337 0.70853 0.33129 0.0
H87 H 0.72324 0.73579 0.1604 0.0
H88 H 0.81168 0.81093 0.36381 0.0
H89 H 0.65355 0.70142 0.31956 0.0
O90 O 0.75455 0.82694 0.31466 0.0
O91 O 0.6992 0.78236 0.32023 0.0
H92 H 0.88383 0.86203 0.20998 0.0
O93 O 0.72924 0.80101 0.19995 0.0
O94 O 0.78143 0.84937 0.19593 0.0
O95 O 0.78363 0.72764 0.20989 0.0
O96 O 0.83554 0.77708 0.19867 0.0
C97 C 0.74727 0.83647 0.17899 0.0
H98 H 0.86378 0.83857 0.41417 0.0
H99 H 0.93793 0.89466 0.26037 0.0
H100 H 0.66607 0.7067 0.11722 0.0
H101 H 0.59401 0.66926 0.27812 0.0
C102 C 0.22081 0.83428 0.30913 0.0
N103 N 0.3222 0.78151 0.36639 0.0
C104 C 0.3037 0.7937 0.41286 0.0
C105 C 0.32564 0.82269 0.43856 0.0
C106 C 0.3669 0.83978 0.41604 0.0
C107 C 0.38647 0.82254 0.37211 0.0
C108 C 0.36398 0.7923 0.34943 0.0
Zn109 Zn 0.28569 0.77367 0.30282 0.0
C110 C 0.21101 0.71362 0.32585 0.0
N111 N 0.21209 0.7787 0.1682 0.0
C112 C 0.17027 0.76999 0.18766 0.0
C113 C 0.22768 0.76787 0.11939 0.0
C114 C 0.20206 0.74313 0.09199 0.0
C115 C 0.1603 0.7296 0.11537 0.0
C116 C 0.1439 0.74484 0.16225 0.0
Zn117 Zn 0.25058 0.78547 0.22909 0.0
O118 O 0.24931 0.81686 0.33199 0.0
C119 C 0.32663 0.84422 0.2051 0.0
O120 O 0.21243 0.82657 0.26242 0.0
H121 H 0.26083 0.77502 0.10443 0.0
H122 H 0.27044 0.78489 0.42629 0.0
H123 H 0.15828 0.77822 0.22676 0.0
O124 O 0.32804 0.82262 0.25197 0.0
O125 O 0.29405 0.83764 0.1807 0.0
H126 H 0.37832 0.78183 0.31314 0.0
O127 O 0.28913 0.74493 0.19745 0.0
O128 O 0.32265 0.72974 0.26965 0.0
O129 O 0.20986 0.73331 0.27774 0.0
O130 O 0.24125 0.72392 0.35236 0.0
C131 C 0.31654 0.72556 0.2204 0.0
H132 H 0.30925 0.83365 0.47333 0.0
H133 H 0.41754 0.83455 0.35158 0.0
H134 H 0.21553 0.7323 0.05529 0.0
H135 H 0.11162 0.73546 0.18087 0.0
C136 C 0.22694 0.83459 0.72322 0.0
N137 N 0.26124 0.72777 0.66557 0.0
C138 C 0.22073 0.73199 0.65547 0.0
C139 C 0.19894 0.70456 0.62878 0.0
C140 C 0.21792 0.67102 0.6135 0.0
C141 C 0.26047 0.66799 0.62103 0.0
C142 C 0.28176 0.69701 0.64749 0.0
Zn143 Zn 0.27859 0.75901 0.72798 0.0
C144 C 0.3471 0.82551 0.70526 0.0
N145 N 0.29291 0.82157 0.86576 0.0
C146 C 0.2737 0.84944 0.89274 0.0
C147 C 0.33421 0.81653 0.87041 0.0
C148 C 0.35715 0.8378 0.90332 0.0
C149 C 0.33904 0.86708 0.93047 0.0
C150 C 0.29663 0.87317 0.92515 0.0
Zn151 Zn 0.27314 0.79052 0.80272 0.0
O152 O 0.24228 0.80693 0.69926 0.0
C153 C 0.20472 0.72383 0.82437 0.0
O154 O 0.23436 0.837 0.77247 0.0
H155 H 0.35151 0.79867 0.84481 0.0
H156 H 0.20283 0.75378 0.67309 0.0
H157 H 0.24162 0.85491 0.88697 0.0
O158 O 0.22354 0.72311 0.77643 0.0
O159 O 0.21811 0.75151 0.85145 0.0
H160 H 0.31329 0.69293 0.65734 0.0
O161 O 0.30956 0.743 0.83104 0.0
O162 O 0.31586 0.71156 0.75908 0.0
O163 O 0.32694 0.82713 0.75215 0.0
O164 O 0.33475 0.79663 0.6796 0.0
C165 C 0.3237 0.7146 0.80782 0.0
H166 H 0.16625 0.70802 0.62364 0.0
H167 H 0.27609 0.64215 0.61003 0.0
H168 H 0.39019 0.83344 0.90416 0.0
H169 H 0.28188 0.89644 0.94458 0.0
C170 C 0.30138 0.21896 0.84024 0.0
N171 N 0.35651 0.33412 0.77282 0.0
C172 C 0.35115 0.33381 0.82845 0.0
C173 C 0.38334 0.34883 0.85499 0.0
C174 C 0.42208 0.36465 0.82464 0.0
C175 C 0.4271 0.3666 0.76691 0.0
C176 C 0.3936 0.35033 0.74155 0.0
Zn177 Zn 0.30774 0.2988 0.75006 0.0
C178 C 0.33223 0.23648 0.68568 0.0
N179 N 0.20561 0.21649 0.73652 0.0
C180 C 0.17197 0.19113 0.76493 0.0
C181 C 0.21174 0.22276 0.68021 0.0
C182 C 0.18368 0.20532 0.65027 0.0
C183 C 0.14923 0.1787 0.67739 0.0
C184 C 0.14315 0.17125 0.73573 0.0
Zn185 Zn 0.25265 0.25189 0.76258 0.0
O186 O 0.31973 0.25347 0.81589 0.0
C187 C 0.22751 0.31273 0.82748 0.0
O188 O 0.26619 0.2059 0.82623 0.0
H189 H 0.23853 0.24209 0.65695 0.0
H190 H 0.32249 0.3197 0.85372 0.0
H191 H 0.16757 0.18627 0.80962 0.0
O192 O 0.26438 0.32649 0.80395 0.0
O193 O 0.21159 0.27779 0.8191 0.0
H194 H 0.39766 0.34951 0.69764 0.0
O195 O 0.23901 0.29943 0.70088 0.0
O196 O 0.2949 0.34408 0.68293 0.0
O197 O 0.29466 0.22504 0.70751 0.0
O198 O 0.34991 0.27028 0.69537 0.0
C199 C 0.25767 0.33273 0.67358 0.0
H200 H 0.37792 0.34793 0.89934 0.0
H201 H 0.4566 0.3796 0.74225 0.0
H202 H 0.18929 0.21283 0.6056 0.0
H203 H 0.11699 0.1503 0.75827 0.0
C204 C 0.72293 0.32914 0.7968 0.0
N205 N 0.82748 0.28143 0.85718 0.0
C206 C 0.81045 0.29615 0.90249 0.0
C207 C 0.83573 0.32155 0.92928 0.0
C208 C 0.8786 0.33138 0.90914 0.0
C209 C 0.89607 0.31254 0.86621 0.0
C210 C 0.86986 0.2873 0.84085 0.0
Zn211 Zn 0.79122 0.27139 0.79571 0.0
C212 C 0.71782 0.20845 0.82362 0.0
N213 N 0.7199 0.26432 0.65926 0.0
C214 C 0.67833 0.25125 0.67535 0.0
C215 C 0.74006 0.25411 0.61237 0.0
C216 C 0.71981 0.22593 0.58386 0.0
C217 C 0.67842 0.20797 0.60369 0.0
C218 C 0.6573 0.22242 0.64898 0.0
Zn219 Zn 0.75469 0.27564 0.72288 0.0
O220 O 0.7518 0.3137 0.8215 0.0
C221 C 0.82961 0.33882 0.6971 0.0
O222 O 0.71509 0.31865 0.75103 0.0
H223 H 0.77328 0.26415 0.60041 0.0
H224 H 0.77672 0.29156 0.91472 0.0
H225 H 0.66285 0.25897 0.71307 0.0
O226 O 0.83154 0.32118 0.74588 0.0
O227 O 0.7992 0.32646 0.67189 0.0
H228 H 0.88288 0.27638 0.80413 0.0
O229 O 0.79284 0.23342 0.6978 0.0
O230 O 0.83068 0.22888 0.76692 0.0
O231 O 0.71362 0.22579 0.77525 0.0
O232 O 0.74912 0.22126 0.8466 0.0
C233 C 0.82188 0.21817 0.72183 0.0
H234 H 0.82155 0.33531 0.96301 0.0
H235 H 0.92923 0.31924 0.85031 0.0
H236 H 0.73734 0.21637 0.54876 0.0
H237 H 0.62598 0.20907 0.66736 0.0
C238 C 0.72225 0.81112 0.83641 0.0
N239 N 0.69554 0.7042 0.76824 0.0
C240 C 0.67316 0.68683 0.81727 0.0
C241 C 0.63855 0.65837 0.81833 0.0
C242 C 0.62715 0.64798 0.76849 0.0
C243 C 0.65074 0.6658 0.71844 0.0
C244 C 0.68537 0.69418 0.7193 0.0
Zn245 Zn 0.74341 0.7473 0.76772 0.0
C246 C 0.73757 0.81718 0.67808 0.0
N247 N 0.8427 0.83933 0.75958 0.0
C248 C 0.8512 0.84968 0.80904 0.0
C249 C 0.86358 0.85942 0.71093 0.0
C250 C 0.89409 0.89188 0.71078 0.0
C251 C 0.90295 0.90342 0.76114 0.0
C252 C 0.88177 0.88191 0.81082 0.0
Zn253 Zn 0.79578 0.79541 0.75934 0.0
O254 O 0.70645 0.77691 0.82576 0.0
C255 C 0.80164 0.72508 0.84827 0.0
O256 O 0.759 0.82529 0.81377 0.0
H257 H 0.85619 0.8505 0.67237 0.0
H258 H 0.68193 0.69547 0.85538 0.0
H259 H 0.83384 0.83331 0.84723 0.0
O260 O 0.76767 0.71062 0.83281 0.0
O261 O 0.8186 0.7604 0.82534 0.0
H262 H 0.7038 0.70862 0.68081 0.0
O263 O 0.83385 0.76513 0.70437 0.0
O264 O 0.78014 0.71826 0.71089 0.0
O265 O 0.7725 0.83081 0.69196 0.0
O266 O 0.71938 0.78299 0.70333 0.0
C267 C 0.81798 0.73168 0.69163 0.0
H268 H 0.62048 0.64482 0.85761 0.0
H269 H 0.64235 0.65814 0.67959 0.0
H270 H 0.91078 0.90786 0.67177 0.0
H271 H 0.88852 0.8901 0.85008 0.0
Co272 Co 0.07815 0.94592 0.49541 0.0
Co273 Co 0.09681 0.99007 0.56716 0.0
Co274 Co 1.01993 1.0252 0.51655 0.0
O275 O 0.07421 1.00197 0.50242 0.0
H276 H 0.09419 1.02069 0.47605 0.0
O277 O 0.96542 0.04833 0.53057 0.0
Co278 Co 0.96198 0.1047 0.53561 0.0
Co279 Co 0.94214 0.05891 0.46543 0.0
H280 H 0.94578 0.03012 0.55802 0.0
O281 O 0.15185 0.98387 0.57235 0.0
O282 O 0.09836 0.9338 0.57135 0.0
O283 O 0.06577 1.00367 0.63187 0.0
O284 O 1.00694 0.99437 0.59362 0.0
O285 O 0.05021 0.06886 0.54558 0.0
O286 O 0.95396 0.15488 0.54647 0.0
O287 O 0.90926 0.09655 0.56915 0.0
O288 O 1.01907 0.11987 0.50517 0.0
O289 O 0.03282 0.05584 0.43924 0.0
O290 O 0.97407 0.04593 0.40083 0.0
O291 O 0.94202 0.11545 0.46033 0.0
O292 O 0.88703 0.06765 0.45919 0.0
C293 C 0.12109 0.91721 0.45619 0.0
C294 C 0.99137 0.9437 0.49803 0.0
C295 C 0.02596 0.99877 0.63558 0.0
C296 C 0.13528 0.94579 0.58552 0.0
C297 C 0.91912 0.13497 0.57313 0.0
C298 C 0.04787 0.10677 0.53252 0.0
C299 C 1.01389 0.05083 0.39733 0.0
C300 C 0.90432 0.10549 0.44751 0.0
O301 O 0.08646 0.89651 0.48211 0.0
O302 O 0.13127 0.95505 0.46258 0.0
O303 O 0.98975 0.98188 0.48744 0.0
O304 O 1.02029 0.92944 0.52441 0.0
Co305 Co 0.5734 0.94366 0.99558 0.0
Co306 Co 0.56789 0.96541 0.08933 0.0
Co307 Co 0.52151 0.02707 0.01365 0.0
O308 O 0.57122 0.99552 0.0207 0.0
H309 H 0.59782 1.01269 0.01191 0.0
O310 O 0.47201 0.05888 1.00577 0.0
Co311 Co 0.46809 0.10937 0.03462 0.0
Co312 Co 0.47791 0.09277 0.93878 0.0
H313 H 0.44554 0.04147 0.01145 0.0
O314 O 0.61574 0.96528 0.11965 0.0
O315 O 0.58843 0.91852 0.07055 0.0
O316 O 0.51381 0.95004 0.13102 0.0
O317 O 0.47932 0.98982 0.0753 0.0
O318 O 0.54288 0.06303 0.06499 0.0
O319 O 0.46208 0.15453 0.06186 0.0
O320 O 0.4114 0.1039 0.05808 0.0
O321 O 0.52771 0.12173 0.01886 0.0
O322 O 0.56389 0.06441 0.95242 0.0
O323 O 0.53308 0.1122 0.90266 0.0
O324 O 0.45504 0.13726 0.96049 0.0
O325 O 0.43173 0.09351 0.90465 0.0
C326 C 0.61718 0.91171 0.9577 0.0
C327 C 0.48957 0.95221 0.98348 0.0
C328 C 0.47933 0.96078 0.11636 0.0
C329 C 0.61864 0.93206 0.09778 0.0
C330 C 0.42283 0.13957 0.07219 0.0
C331 C 0.55142 0.10177 0.04907 0.0
C332 C 0.566 0.09684 0.91563 0.0
C333 C 0.42642 0.12445 0.93063 0.0
O334 O 0.57801 0.89689 0.97112 0.0
O335 O 0.62955 0.94788 0.96962 0.0
O336 O 0.50021 0.9902 0.9632 0.0
O337 O 0.51357 0.93271 0.01401 0.0
Co338 Co 0.08016 0.44699 0.98968 0.0
Co339 Co 0.07496 0.46864 0.08465 0.0
Co340 Co 0.02392 0.52771 1.00906 0.0
O341 O 0.07646 0.49919 0.01525 0.0
H342 H 0.10216 0.51771 1.00555 0.0
O343 O 0.97145 0.55626 1.00254 0.0
Co344 Co 0.96847 0.60913 0.02613 0.0
Co345 Co 0.97302 0.58554 0.93194 0.0
H346 H 0.94569 0.53793 0.01304 0.0
O347 O 0.12506 0.46614 0.11203 0.0
O348 O 0.09413 0.42201 0.06285 0.0
O349 O 1.02108 0.4496 0.12766 0.0
O350 O 0.98496 0.48825 0.07217 0.0
O351 O 0.04477 0.56785 0.05779 0.0
O352 O 0.96411 0.6565 0.04877 0.0
O353 O 0.91218 0.6054 0.05426 0.0
O354 O 0.02565 0.62053 1.00368 0.0
O355 O 0.06277 0.56677 0.94595 0.0
O356 O 0.02695 0.60383 0.88835 0.0
O357 O 0.95453 0.63284 0.95239 0.0
O358 O 0.92272 0.58829 0.90476 0.0
C359 C 0.12425 0.41535 0.95008 0.0
C360 C 0.99878 0.44924 0.97844 0.0
C361 C 0.98613 0.45911 0.11296 0.0
C362 C 0.12555 0.43353 0.08854 0.0
C363 C 0.92499 0.64227 0.06368 0.0
C364 C 0.04894 0.60666 0.03888 0.0
C365 C 0.06181 0.59492 0.90402 0.0
C366 C 0.92268 0.62129 0.92746 0.0
O367 O 0.08533 0.40021 0.96499 0.0
O368 O 0.1365 0.45176 0.96156 0.0
O369 O 1.00304 0.48806 0.96014 0.0
O370 O 0.02301 0.43466 0.01191 0.0
Co371 Co 0.57896 0.44975 0.97458 0.0
Co372 Co 0.60212 0.49073 0.04803 0.0
Co373 Co 0.51875 0.52362 0.01353 0.0
O374 O 0.57457 0.50514 0.98739 0.0
H375 H 0.59178 0.52559 0.95997 0.0
O376 O 0.46323 0.54259 0.03951 0.0
Co377 Co 0.45881 0.59854 0.05018 0.0
Co378 Co 0.43532 0.55573 0.97828 0.0
H379 H 0.44609 0.52254 0.06753 0.0
O380 O 0.65825 0.48583 0.04631 0.0
O381 O 0.60494 0.43577 0.04481 0.0
O382 O 0.57362 0.49638 0.11877 0.0
O383 O 0.51214 0.48677 0.0866 0.0
O384 O 0.54977 0.56549 0.04707 0.0
O385 O 0.45072 0.64799 0.06493 0.0
O386 O 0.40681 0.58907 0.08828 0.0
O387 O 0.51377 0.61457 0.01532 0.0
O388 O 0.52514 0.56057 0.94057 0.0
O389 O 0.46405 0.54847 0.90828 0.0
O390 O 0.43573 0.6116 0.97751 0.0
O391 O 0.37961 0.56473 0.97818 0.0
C392 C 0.62028 0.42137 0.92942 0.0
C393 C 0.49659 0.44453 0.98359 0.0
C394 C 0.53384 0.48957 0.12652 0.0
C395 C 0.64267 0.44739 0.0562 0.0
C396 C 0.41607 0.62776 0.0915 0.0
C397 C 0.54231 0.60257 0.04365 0.0
C398 C 0.50365 0.55727 0.90055 0.0
C399 C 0.3981 0.60208 0.96432 0.0
O400 O 0.58609 0.40076 0.95685 0.0
O401 O 0.62998 0.45966 0.93448 0.0
O402 O 0.48785 0.4813 0.98013 0.0
O403 O 0.52527 0.43367 0.01227 0.0
Co404 Co 0.10936 0.47552 0.51757 0.0
Co405 Co 0.07765 0.48363 0.42668 0.0
Co406 Co 1.02116 0.52643 0.51192 0.0
O407 O 0.0521 0.47737 0.49891 0.0
H408 H 0.03468 0.45138 0.50931 0.0
O409 O 0.99012 0.57529 0.52584 0.0
Co410 Co 0.93314 0.57728 0.50659 0.0
Co411 Co 0.96339 0.56793 0.59813 0.0
H412 H 1.0076 0.60129 0.5161 0.0
O413 O 0.08045 0.4372 0.39566 0.0
O414 O 0.12931 0.46667 0.44113 0.0
O415 O 0.09118 0.53832 0.38631 0.0
O416 O 0.05697 0.56887 0.44951 0.0
O417 O 0.97745 0.50996 0.46402 0.0
O418 O 0.88222 0.58038 0.4877 0.0
O419 O 0.93315 0.6325 0.48229 0.0
O420 O 0.92533 0.521 0.52461 0.0
O421 O 0.98539 0.48376 0.57371 0.0
O422 O 0.94906 0.51244 0.63719 0.0
O423 O 0.91206 0.58563 0.58303 0.0
O424 O 0.96011 0.6139 0.63058 0.0
C425 C 0.14828 0.43372 0.54965 0.0
C426 C 0.1039 0.5503 0.53829 0.0
C427 C 0.08307 0.57072 0.40523 0.0
C428 C 0.11649 0.43708 0.41506 0.0
C429 C 0.89496 0.61909 0.47377 0.0
C430 C 0.93822 0.50397 0.484 0.0
C431 C 0.95837 0.48071 0.61726 0.0
C432 C 0.92436 0.61454 0.61051 0.0
O433 O 0.16062 0.47249 0.53559 0.0
O434 O 0.10983 0.42016 0.54221 0.0
O435 O 0.06495 0.54322 0.55945 0.0
O436 O 0.11721 0.53201 0.49908 0.0
Co437 Co 0.61124 0.97669 0.51937 0.0
Co438 Co 0.59018 0.99204 0.42392 0.0
Co439 Co 0.52293 1.02596 0.50588 0.0
O440 O 0.55851 0.98169 0.49175 0.0
H441 H 0.54243 0.95501 0.49877 0.0
O442 O 0.48696 0.06983 0.52039 0.0
Co443 Co 0.43231 0.07269 0.49786 0.0
Co444 Co 0.45886 0.05977 0.591 0.0
H445 H 0.5022 0.09684 0.51061 0.0
O446 O 0.59231 0.95001 0.386 0.0
O447 O 0.63831 0.97032 0.44292 0.0
O448 O 0.6054 0.04778 0.39181 0.0
O449 O 0.55737 0.07271 0.4466 0.0
O450 O 0.48342 1.0073 0.45462 0.0
O451 O 0.38269 0.07889 0.47598 0.0
O452 O 0.43468 0.12807 0.48107 0.0
O453 O 0.42361 1.01322 0.50681 0.0
O454 O 0.48925 0.97942 0.56519 0.0
O455 O 0.44827 1.0042 0.62837 0.0
O456 O 0.40848 0.07874 0.57645 0.0
O457 O 0.45751 0.10294 0.62688 0.0
C458 C 0.64326 0.93031 0.55213 0.0
C459 C 0.6011 0.05646 0.54064 0.0
C460 C 0.58933 0.07803 0.40833 0.0
C461 C 0.62547 0.94432 0.41093 0.0
C462 C 0.39683 0.11749 0.46937 0.0
C463 C 0.44467 0.99436 0.47275 0.0
C464 C 0.46206 0.97392 0.60896 0.0
C465 C 0.42227 0.10627 0.60596 0.0
O466 O 0.65883 0.96852 0.54588 0.0
O467 O 0.6063 0.92115 0.53671 0.0
O468 O 0.56201 0.04464 0.55758 0.0
O469 O 0.62258 0.03575 0.50977 0.0
C470 C 0.06106 0.12154 0.27223 0.0
C471 C 0.10277 0.11169 0.271 0.0
C472 C 0.02885 0.09681 0.30816 0.0
C473 C 0.03829 0.06215 0.34296 0.0
H474 H 0.05457 0.15147 0.25261 0.0
H475 H 0.99836 0.10824 0.31462 0.0
S476 S 0.13924 1.01629 0.33876 0.0
N477 N 0.14937 0.05974 0.29457 0.0
N478 N 0.08863 1.01304 0.36256 0.0
C479 C 0.07783 0.04795 0.33353 0.0
C480 C 0.11038 0.07288 0.29677 0.0
C481 C 0.8404 0.15076 0.33654 0.0
C482 C 0.84549 0.19307 0.33877 0.0
C483 C 0.85871 0.12264 0.37283 0.0
C484 C 0.88363 0.13586 0.41188 0.0
H485 H 0.82112 0.13915 0.30766 0.0
H486 H 0.85373 0.0903 0.36969 0.0
S487 S 0.90774 0.24359 0.43324 0.0
N488 N 0.87763 0.2468 0.383 0.0
N489 N 0.91289 0.19423 0.44971 0.0
C490 C 0.8896 0.17813 0.41375 0.0
C491 C 0.87028 0.20663 0.37764 0.0
C492 C 0.96619 0.87351 0.39526 0.0
C493 C 0.93092 0.89008 0.37524 0.0
C494 C 0.98444 0.88856 0.43863 0.0
C495 C 0.96718 0.91984 0.46377 0.0
H496 H 0.97909 0.84834 0.37807 0.0
H497 H 1.01254 0.87634 0.45156 0.0
S498 S 0.87163 0.96929 0.42999 0.0
N499 N 0.87807 0.93727 0.38529 0.0
N500 N 0.91035 0.9639 0.4684 0.0
C501 C 0.9306 0.93496 0.44543 0.0
C502 C 0.91319 0.92074 0.40053 0.0
C503 C 0.21484 0.88173 0.37781 0.0
C504 C 0.19581 0.8601 0.34028 0.0
C505 C 0.19068 0.90128 0.41467 0.0
C506 C 0.14676 0.8986 0.41602 0.0
H507 H 0.24854 0.88275 0.37952 0.0
H508 H 0.20617 0.91721 0.4435 0.0
S509 S 0.08216 0.8484 0.32402 0.0
N510 N 0.13095 0.83952 0.30444 0.0
N511 N 0.08532 0.87552 0.3747 0.0
C512 C 0.12753 0.87833 0.3776 0.0
C513 C 0.15217 0.85927 0.3393 0.0
C514 C 0.18152 0.85014 0.64773 0.0
C515 C 0.20096 0.86287 0.69204 0.0
C516 C 0.1594 0.87659 0.61429 0.0
C517 C 0.15672 0.91726 0.62281 0.0
H518 H 0.1836 0.81944 0.6383 0.0
H519 H 0.14541 0.86549 0.58054 0.0
S520 S 0.19953 0.96556 0.7346 0.0
N521 N 0.2138 0.91853 0.74402 0.0
N522 N 0.17322 0.96861 0.6805 0.0
C523 C 0.17514 0.93026 0.66754 0.0
C524 C 0.19693 0.90301 0.70234 0.0
C525 C 0.13996 0.14614 0.59453 0.0
C526 C 0.1214 0.15959 0.64229 0.0
C527 C 0.11562 0.13339 0.55569 0.0
C528 C 0.0717 0.13264 0.56358 0.0
H529 H 0.1738 0.1454 0.58703 0.0
H530 H 0.1311 0.12203 0.52053 0.0
S531 S 1.00702 0.15853 0.68517 0.0
N532 N 0.05621 0.16922 0.69666 0.0
N533 N 1.00995 0.14143 0.62544 0.0
C534 C 0.0524 0.14434 0.61196 0.0
C535 C 0.07737 0.15844 0.65112 0.0
C536 C 0.88981 0.20595 0.67401 0.0
C537 C 0.84737 0.1922 0.69238 0.0
C538 C 0.9122 0.18804 0.63374 0.0
C539 C 0.89319 0.15505 0.61184 0.0
H540 H 0.90506 0.23217 0.6885 0.0
H541 H 0.94469 0.20024 0.61974 0.0
S542 S 0.78219 0.1084 0.64695 0.0
N543 N 0.78647 0.14489 0.68557 0.0
N544 N 0.82928 0.10951 0.61171 0.0
C545 C 0.85085 0.14055 0.63087 0.0
C546 C 0.82778 0.15954 0.67083 0.0
C547 C 0.92895 0.97578 0.73283 0.0
C548 C 0.93605 0.93695 0.75949 0.0
C549 C 0.96149 1.00046 0.69776 0.0
C550 C 1.00157 0.98687 0.68989 0.0
H551 H 0.89702 0.98389 0.73173 0.0
H552 H 0.95385 0.02722 0.67115 0.0
S553 S 0.03838 0.89443 0.76573 0.0
N554 N 0.98741 0.89108 0.78756 0.0
N555 N 0.04933 0.93818 0.7223 0.0
C556 C 1.01083 0.95244 0.72517 0.0
C557 C 0.97755 0.92712 0.76039 0.0
C558 C 0.38268 0.22796 0.13705 0.0
C559 C 0.34054 0.21382 0.15759 0.0
C560 C 0.40817 0.20396 0.10847 0.0
C561 C 0.39286 0.16453 0.09909 0.0
H562 H 0.39656 0.25751 0.14404 0.0
H563 H 0.4406 0.21647 0.09451 0.0
S564 S 0.28352 0.11448 0.14 0.0
N565 N 0.2835 0.15873 0.16331 0.0
N566 N 0.33188 0.11363 0.10958 0.0
C567 C 0.3503 0.15057 0.11737 0.0
C568 C 0.32408 0.17516 0.1466 0.0
C569 C 0.88319 0.38682 0.12013 0.0
C570 C 0.88131 0.36074 0.17137 0.0
C571 C 0.91506 0.42057 0.10329 0.0
C572 C 0.94725 0.42927 0.13618 0.0
H573 H 0.85945 0.3816 0.09323 0.0
H574 H 0.91532 0.43906 0.06315 0.0
S575 S 0.9547 0.37207 0.27585 0.0
N576 N 0.91294 0.34805 0.2563 0.0
N577 N 0.97298 0.40944 0.22427 0.0
C578 C 0.94491 0.40377 0.18796 0.0
C579 C 0.91212 0.3702 0.20547 0.0
C580 C 0.72013 0.90421 0.15418 0.0
C581 C 0.7227 0.86377 0.1446 0.0
C582 C 0.68738 0.9263 0.13661 0.0
C583 C 0.65564 0.90894 0.10877 0.0
H584 H 0.74159 0.91784 0.17905 0.0
H585 H 0.6861 0.95677 0.14732 0.0
S586 S 0.6537 0.80685 0.0637 0.0
N587 N 0.69493 0.80938 0.09807 0.0
N588 N 0.63302 0.85061 0.06576 0.0
C589 C 0.6601 0.86978 0.09477 0.0
C590 C 0.69367 0.84734 0.1125 0.0
C591 C 0.1224 0.65865 0.12564 0.0
C592 C 0.13447 0.69771 0.09354 0.0
C593 C 0.09631 0.62845 0.10699 0.0
C594 C 0.08021 0.63683 0.05623 0.0
H595 H 0.13287 0.65167 0.1658 0.0
H596 H 0.0875 0.599 0.13336 0.0
S597 S 0.10194 0.73553 0.95758 0.0
N598 N 0.12914 0.74316 1.00881 0.0
N599 N 0.07834 0.68817 0.97445 0.0
C600 C 0.09218 0.67619 0.02389 0.0
C601 C 0.11971 0.70619 0.04232 0.0
C602 C 0.38281 0.93326 0.93113 0.0
C603 C 0.36791 0.89311 0.95751 0.0
C604 C 0.42129 0.95284 0.94145 0.0
C605 C 0.44657 0.93281 0.97815 0.0
H606 H 0.36641 0.94832 0.89902 0.0
H607 H 0.43231 0.98303 0.91817 0.0
S608 S 0.41785 0.82956 0.06367 0.0
N609 N 0.37839 0.83608 0.02675 0.0
N610 N 0.45077 0.87195 0.04561 0.0
C611 C 0.43017 0.89383 1.00788 0.0
C612 C 0.3908 0.87433 0.99786 0.0
C613 C 0.15966 0.32761 0.87804 0.0
C614 C 0.203 0.33858 0.86149 0.0
C615 C 0.13522 0.35258 0.90676 0.0
C616 C 0.15273 0.38989 0.92066 0.0
H617 H 0.14411 0.29979 0.86787 0.0
H618 H 0.10188 0.34245 0.91753 0.0
S619 S 0.26554 0.43154 0.89059 0.0
N620 N 0.26313 0.38872 0.86366 0.0
N621 N 0.21693 0.4354 0.91777 0.0
C622 C 0.19627 0.40087 0.90562 0.0
C623 C 0.22137 0.37535 0.87612 0.0
C624 C 0.6791 0.13638 0.84656 0.0
C625 C 0.68283 0.17796 0.85433 0.0
C626 C 0.64222 0.10927 0.86835 0.0
C627 C 0.60719 0.12325 0.89689 0.0
H628 H 0.70439 0.12504 0.82224 0.0
H629 H 0.64043 0.07781 0.86072 0.0
S630 S 0.60168 0.22918 0.92892 0.0
N631 N 0.64908 0.23101 0.89437 0.0
N632 N 0.57975 0.18157 0.93275 0.0
C633 C 0.61116 0.16466 0.90541 0.0
C634 C 0.64885 0.19161 0.8847 0.0
C635 C 0.82026 0.65573 0.88473 0.0
C636 C 0.8263 0.69849 0.88301 0.0
C637 C 0.85072 0.63076 0.90225 0.0
C638 C 0.88817 0.64752 0.91912 0.0
H639 H 0.79349 0.64173 0.86846 0.0
H640 H 0.8457 0.59827 0.89997 0.0
S641 S 0.91481 0.75668 0.93289 0.0
N642 N 0.86922 0.75579 0.9077 0.0
N643 N 0.92659 0.70876 0.94062 0.0
C644 C 0.89256 0.68962 0.92296 0.0
C645 C 0.86154 0.71512 0.9049 0.0
C646 C 0.17765 0.33731 0.12616 0.0
C647 C 0.21569 0.35287 0.14298 0.0
C648 C 0.14981 0.36371 0.10417 0.0
C649 C 0.15892 0.40651 0.09879 0.0
H650 H 0.16795 0.30454 0.13326 0.0
H651 H 0.11971 0.35044 0.09521 0.0
S652 S 0.2584 0.4628 0.12407 0.0
N653 N 0.26418 0.41385 0.14319 0.0
N654 N 0.21157 0.46337 0.10232 0.0
C655 C 0.19867 0.42243 0.10981 0.0
C656 C 0.22722 0.3956 0.1317 0.0
C657 C 0.16595 0.66516 0.89661 0.0
C658 C 0.16777 0.69184 0.84593 0.0
C659 C 0.13352 0.63198 0.91332 0.0
C660 C 0.1008 0.62446 0.88074 0.0
H661 H 0.19005 0.66958 0.92328 0.0
H662 H 0.13319 0.61315 0.95325 0.0
S663 S 0.09258 0.68418 0.74286 0.0
N664 N 0.13526 0.7068 0.76205 0.0
N665 N 0.07424 0.6463 0.79372 0.0
C666 C 0.10303 0.65062 0.8295 0.0
C667 C 0.13634 0.68368 0.81217 0.0
C668 C 0.36022 0.2123 0.89848 0.0
C669 C 0.32567 0.19322 0.87727 0.0
C670 C 0.39136 0.18962 0.91992 0.0
C671 C 0.38929 0.14703 0.92045 0.0
H672 H 0.36471 0.24546 0.89536 0.0
H673 H 0.41856 0.20595 0.93244 0.0
S674 S 0.30128 0.08124 0.88054 0.0
N675 N 0.28831 0.12847 0.86608 0.0
N676 N 0.34642 0.0857 0.90656 0.0
C677 C 0.35281 0.12711 0.90459 0.0
C678 C 0.32104 0.1502 0.88306 0.0
C679 C 0.91434 0.40276 0.90148 0.0
C680 C 0.90525 0.36243 0.93073 0.0
C681 C 0.94352 0.43139 0.91802 0.0
C682 C 0.96514 0.42027 0.96368 0.0
H683 H 0.89943 0.41188 0.8649 0.0
H684 H 0.95015 0.4619 0.89385 0.0
S685 S 0.95038 0.31812 0.05488 0.0
N686 N 0.91803 0.31315 1.00818 0.0
N687 N 0.97364 0.36564 0.03898 0.0
C688 C 0.95535 0.37989 0.99373 0.0
C689 C 0.92519 0.35131 0.97734 0.0
C690 C 0.65457 0.82346 0.88924 0.0
C691 C 0.69751 0.83585 0.87141 0.0
C692 C 0.62954 0.84802 0.91768 0.0
C693 C 0.64617 0.88621 0.9298 0.0
H694 H 0.63975 0.79496 0.88007 0.0
H695 H 0.5965 0.83695 0.92948 0.0
S696 S 0.75787 0.93113 0.89706 0.0
N697 N 0.75652 0.88778 0.87141 0.0
N698 N 0.70917 0.93379 0.92495 0.0
C699 C 0.68943 0.89833 0.91416 0.0
C700 C 0.71511 0.87323 0.88503 0.0
C701 C 0.83201 0.67728 0.14935 0.0
C702 C 0.84601 0.71861 0.15214 0.0
C703 C 0.85679 0.65296 0.11938 0.0
C704 C 0.89665 0.66892 0.09095 0.0
H705 H 0.80201 0.66313 0.17163 0.0
H706 H 0.8451 0.62115 0.11984 0.0
S707 S 0.94603 0.77671 0.08007 0.0
N708 N 0.90104 0.7751 0.12015 0.0
N709 N 0.94744 0.73015 0.06415 0.0
C710 C 0.91019 0.71079 0.09159 0.0
C711 C 0.885 0.73538 0.12205 0.0
C712 C 0.36255 0.91149 0.14445 0.0
C713 C 0.36473 0.87437 0.18028 0.0
C714 C 0.399 0.94016 0.12522 0.0
C715 C 0.4392 0.93317 0.14129 0.0
H716 H 0.33252 0.91864 0.13153 0.0
H717 H 0.39569 0.96775 0.09704 0.0
S718 S 0.46268 0.83803 0.22897 0.0
N719 N 0.41165 0.83075 0.22567 0.0
N720 N 0.4782 0.88403 0.19317 0.0
C721 C 0.44141 0.89571 0.17652 0.0
C722 C 0.40488 0.86663 0.19488 0.0
C723 C 0.66551 0.12098 0.07699 0.0
C724 C 0.66871 0.16197 0.08656 0.0
C725 C 0.62757 0.10174 0.06465 0.0
C726 C 0.59142 0.12278 0.06122 0.0
H727 H 0.69243 0.10354 0.0796 0.0
H728 H 0.62661 0.07014 0.05771 0.0
S729 S 0.58182 0.22895 0.08824 0.0
N730 N 0.63125 0.22173 0.09582 0.0
N731 N 0.56065 0.18603 0.07117 0.0
C732 C 0.59416 0.16364 0.07083 0.0
C733 C 0.63257 0.18308 0.08386 0.0
C734 C 0.594 0.5776 0.79192 0.0
C735 C 0.58987 0.61873 0.77136 0.0
C736 C 0.56179 0.55416 0.82907 0.0
C737 C 0.5248 0.57127 0.84491 0.0
H738 H 0.62445 0.56593 0.78668 0.0
H739 H 0.56806 0.52478 0.85081 0.0
S740 S 0.4946 0.67291 0.78893 0.0
N741 N 0.54312 0.67217 0.7588 0.0
N742 N 0.48174 0.62744 0.82798 0.0
C743 C 0.51731 0.60925 0.81645 0.0
C744 C 0.5503 0.63328 0.77914 0.0
C745 C 0.33009 0.64381 0.85555 0.0
C746 C 0.34689 0.6851 0.84046 0.0
C747 C 0.34622 0.61752 0.89651 0.0
C748 C 0.37993 0.63149 0.92377 0.0
H749 H 0.30316 0.6322 0.83732 0.0
H750 H 0.33198 0.58597 0.90681 0.0
S751 S 0.43601 0.73712 0.8966 0.0
N752 N 0.39961 0.73867 0.85421 0.0
N753 N 0.43036 0.68958 0.93035 0.0
C754 C 0.39758 0.67266 0.90774 0.0
C755 C 0.38093 0.69935 0.86639 0.0
C756 C 0.4637 0.42505 0.84636 0.0
C757 C 0.45435 0.38229 0.85499 0.0
C758 C 0.47945 0.44471 0.88731 0.0
C759 C 0.48643 0.42232 0.93822 0.0
H760 H 0.4552 0.44366 0.81007 0.0
H761 H 0.48435 0.47787 0.87974 0.0
S762 S 0.47475 0.30891 0.97578 0.0
N763 N 0.45902 0.31746 0.91392 0.0
N764 N 0.48893 0.35469 0.99116 0.0
C765 C 0.48155 0.37928 0.94474 0.0
C766 C 0.46546 0.35919 0.90296 0.0
C767 C 0.65363 0.35267 0.82659 0.0
C768 C 0.69773 0.35704 0.8243 0.0
C769 C 0.62882 0.37394 0.86067 0.0
C770 C 0.64741 0.40095 0.89239 0.0
H771 H 0.63814 0.33123 0.80407 0.0
H772 H 0.59479 0.36897 0.86258 0.0
S773 S 0.76163 0.42407 0.89918 0.0
N774 N 0.7591 0.39077 0.85569 0.0
N775 N 0.71234 0.43167 0.91836 0.0
C776 C 0.69148 0.40671 0.88889 0.0
C777 C 0.71669 0.38445 0.85518 0.0
C778 C 0.69768 0.40073 0.17505 0.0
C779 C 0.70094 0.36031 0.16503 0.0
C780 C 0.6799 0.42909 0.13859 0.0
C781 C 0.66419 0.41792 0.09122 0.0
H782 H 0.70961 0.41083 0.21075 0.0
H783 H 0.67774 0.45981 0.14811 0.0
S784 S 0.66565 0.31696 0.04471 0.0
N785 N 0.68707 0.3111 0.10287 0.0
N786 N 0.6533 0.36458 0.03555 0.0
C787 C 0.66682 0.37783 0.0808 0.0
C788 C 0.6853 0.349 0.11735 0.0
C789 C 0.5883 0.6239 0.17275 0.0
C790 C 0.59282 0.66682 0.16615 0.0
C791 C 0.57047 0.60359 0.13381 0.0
C792 C 0.55638 0.62541 0.0868 0.0
H793 H 0.60165 0.60602 0.20574 0.0
H794 H 0.56929 0.5705 0.13986 0.0
S795 S 0.55471 0.73831 0.05649 0.0
N796 N 0.57711 0.73065 0.11382 0.0
N797 N 0.54329 0.69229 0.04017 0.0
C798 C 0.55735 0.66826 0.08247 0.0
C799 C 0.57567 0.68901 0.12228 0.0
C800 C 0.35864 0.66545 0.21348 0.0
C801 C 0.34139 0.69984 0.18771 0.0
C802 C 0.38113 0.64054 0.18192 0.0
C803 C 0.38736 0.64971 0.12389 0.0
H804 H 0.3546 0.65766 0.25811 0.0
H805 H 0.39479 0.61477 0.20296 0.0
S806 S 0.34897 0.73555 0.03612 0.0
N807 N 0.33244 0.74127 0.10002 0.0
N808 N 0.37469 0.69446 0.04189 0.0
C809 C 0.3703 0.68361 0.09774 0.0
C810 C 0.34727 0.70869 0.12938 0.0
C811 C 0.443 0.47297 0.2346 0.0
C812 C 0.44705 0.43244 0.25812 0.0
C813 C 0.47527 0.49515 0.19631 0.0
C814 C 0.51228 0.47743 0.18234 0.0
H815 H 0.41251 0.48472 0.2384 0.0
H816 H 0.46906 0.52377 0.17246 0.0
S817 S 0.54264 0.3781 0.24698 0.0
N818 N 0.49398 0.37976 0.27597 0.0
N819 N 0.5555 0.42215 0.20459 0.0
C820 C 0.51981 0.44063 0.21387 0.0
C821 C 0.48675 0.41788 0.2524 0.0
C822 C 0.88863 0.70982 0.6629 0.0
C823 C 0.84474 0.70538 0.66196 0.0
C824 C 0.91396 0.68095 0.64452 0.0
C825 C 0.89666 0.64649 0.62387 0.0
H826 H 0.90343 0.73469 0.68051 0.0
H827 H 0.94738 0.68526 0.64793 0.0
S828 S 0.78412 0.62369 0.60555 0.0
N829 N 0.78546 0.66596 0.63371 0.0
N830 N 0.83316 0.6119 0.59871 0.0
C831 C 0.85317 0.64307 0.61936 0.0
C832 C 0.82723 0.67239 0.63857 0.0
C833 C 0.39896 0.86701 0.62496 0.0
C834 C 0.38252 0.85923 0.68156 0.0
C835 C 0.42774 0.90226 0.60219 0.0
C836 C 0.44093 0.93167 0.63466 0.0
H837 H 0.38821 0.84674 0.59752 0.0
H838 H 0.43789 0.90758 0.55831 0.0
S839 S 0.41333 0.92281 0.78633 0.0
N840 N 0.38693 0.882 0.77045 0.0
N841 N 0.43906 0.94764 0.7275 0.0
C842 C 0.42692 0.92276 0.69163 0.0
C843 C 0.39833 0.8869 0.71496 0.0
C844 C 0.19135 0.34228 0.62984 0.0
C845 C 0.23305 0.35774 0.63553 0.0
C846 C 0.16467 0.36616 0.60031 0.0
C847 C 0.17837 0.40667 0.57487 0.0
H848 H 0.17841 0.31165 0.64987 0.0
H849 H 0.13263 0.35317 0.59907 0.0
S850 S 0.28638 0.46023 0.57073 0.0
N851 N 0.28774 0.41497 0.6087 0.0
N852 N 0.23833 0.45993 0.55269 0.0
C853 C 0.22085 0.42177 0.57746 0.0
C854 C 0.24794 0.39736 0.60778 0.0
C855 C 0.68324 0.14008 0.56833 0.0
C856 C 0.65892 0.17162 0.58166 0.0
C857 C 0.66459 0.10343 0.5542 0.0
C858 C 0.62067 0.09626 0.55373 0.0
H859 H 0.71686 0.14302 0.57052 0.0
H860 H 0.68467 0.08003 0.54518 0.0
S861 S 0.5435 0.17101 0.57811 0.0
N862 N 0.58916 0.19499 0.58611 0.0
N863 N 0.55398 0.12544 0.56448 0.0
C864 C 0.59629 0.12803 0.56547 0.0
C865 C 0.61538 0.16577 0.57805 0.0
C866 C 0.88858 0.44025 0.3875 0.0
C867 C 0.84899 0.42435 0.4174 0.0
C868 C 0.91715 0.46619 0.40897 0.0
C869 C 0.90704 0.47767 0.46091 0.0
H870 H 0.89808 0.43145 0.34776 0.0
H871 H 0.94751 0.47689 0.38492 0.0
S872 S 0.80677 0.44512 0.55499 0.0
N873 N 0.80083 0.42225 0.50086 0.0
N874 N 0.85366 0.47198 0.54119 0.0
C875 C 0.86672 0.46324 0.49032 0.0
C876 C 0.83786 0.43644 0.46852 0.0
C877 C 0.64945 0.84529 0.35791 0.0
C878 C 0.69214 0.84284 0.36406 0.0
C879 C 0.62828 0.87745 0.375 0.0
C880 C 0.64861 0.90854 0.39954 0.0
H881 H 0.63284 0.82363 0.33678 0.0
H882 H 0.59582 0.87848 0.36718 0.0
S883 S 0.75874 0.91259 0.43263 0.0
N884 N 0.75302 0.8718 0.40178 0.0
N885 N 0.71296 0.93188 0.43437 0.0
C886 C 0.69048 0.90479 0.40954 0.0
C887 C 0.71226 0.87213 0.39162 0.0
C888 C 0.15226 0.6738 0.39762 0.0
C889 C 0.17858 0.67734 0.34703 0.0
C890 C 0.1196 0.64089 0.41463 0.0
C891 C 0.11217 0.60966 0.38221 0.0
H892 H 0.15668 0.69678 0.42406 0.0
H893 H 0.10108 0.63916 0.45452 0.0
S894 S 0.17417 0.60407 0.24727 0.0
N895 N 0.19537 0.6466 0.26528 0.0
N896 N 0.13557 0.58506 0.2969 0.0
C897 C 0.13858 0.61326 0.33147 0.0
C898 C 0.17123 0.64685 0.31409 0.0
C899 C 0.36404 0.21582 0.39508 0.0
C900 C 0.32136 0.20471 0.38969 0.0
C901 C 0.38781 0.18822 0.42356 0.0
C902 C 0.36982 0.14849 0.44761 0.0
H903 H 0.37998 0.24535 0.37484 0.0
H904 H 0.421 0.19743 0.42423 0.0
S905 S 0.25725 0.10717 0.4548 0.0
N906 N 0.26064 0.15343 0.41767 0.0
N907 N 0.30514 0.10144 0.47113 0.0
C908 C 0.32631 0.13817 0.4464 0.0
C909 C 0.30211 0.16633 0.41749 0.0
C910 C 0.73299 0.88316 0.6164 0.0
C911 C 0.71562 0.84276 0.63806 0.0
C912 C 0.70985 0.91043 0.58651 0.0
C913 C 0.66831 0.89853 0.57698 0.0
H914 H 0.76406 0.89451 0.62453 0.0
H915 H 0.72439 0.9416 0.57239 0.0
S916 S 0.6106 0.79423 0.61736 0.0
N917 N 0.65605 0.79058 0.64223 0.0
N918 N 0.61256 0.84223 0.58614 0.0
C919 C 0.65163 0.85741 0.59482 0.0
C920 C 0.67527 0.82945 0.62535 0.0
C921 C 0.627 0.1915 0.34432 0.0
C922 C 0.67103 0.19357 0.3465 0.0
C923 C 0.59965 0.15507 0.3668 0.0
C924 C 0.61556 0.11915 0.3911 0.0
H925 H 0.61383 0.21761 0.32339 0.0
H926 H 0.56634 0.15444 0.36274 0.0
S927 S 0.72803 0.10984 0.41004 0.0
N928 N 0.72835 0.15735 0.37792 0.0
N929 N 0.67835 0.08963 0.41837 0.0
C930 C 0.65936 0.12177 0.39486 0.0
C931 C 0.68667 0.15863 0.37296 0.0
C932 C 0.85531 0.70969 0.3881 0.0
C933 C 0.81362 0.6947 0.38172 0.0
C934 C 0.8808 0.686 0.41981 0.0
C935 C 0.86585 0.6462 0.44681 0.0
H936 H 0.86919 0.73976 0.36704 0.0
H937 H 0.91294 0.69851 0.42146 0.0
S938 S 0.75727 0.59433 0.44999 0.0
N939 N 0.7575 0.63886 0.40953 0.0
N940 N 0.80479 0.59423 0.46971 0.0
C941 C 0.82337 0.63163 0.44349 0.0
C942 C 0.79747 0.65584 0.41089 0.0
C943 C 0.36287 0.9085 0.44995 0.0
C944 C 0.38742 0.87774 0.43407 0.0
C945 C 0.38142 0.94568 0.4627 0.0
C946 C 0.42553 0.95472 0.45843 0.0
H947 H 0.32888 0.90445 0.45143 0.0
H948 H 0.36094 0.96795 0.47482 0.0
S949 S 0.5044 0.88393 0.42332 0.0
N950 N 0.45856 0.8578 0.42118 0.0
N951 N 0.49318 0.929 0.43813 0.0
C952 C 0.45044 0.92441 0.44245 0.0
C953 C 0.43154 0.88575 0.43217 0.0
C954 C 0.15071 0.34013 0.36653 0.0
C955 C 0.19467 0.34455 0.36662 0.0
C956 C 0.12584 0.36956 0.38408 0.0
C957 C 0.14372 0.40459 0.40291 0.0
H958 H 0.13549 0.31486 0.3501 0.0
H959 H 0.0923 0.36525 0.38133 0.0
S960 S 0.25668 0.42754 0.41893 0.0
N961 N 0.25465 0.38444 0.39268 0.0
N962 N 0.20778 0.43972 0.4258 0.0
C963 C 0.18727 0.40799 0.40681 0.0
C964 C 0.21274 0.37803 0.3886 0.0
C965 C 0.39907 0.20695 0.65579 0.0
C966 C 0.35536 0.20728 0.65583 0.0
C967 C 0.42005 0.17486 0.63784 0.0
C968 C 0.39855 0.1416 0.61853 0.0
H969 H 0.41698 0.23051 0.67244 0.0
H970 H 0.45355 0.17576 0.64064 0.0
S971 S 0.28452 0.13055 0.60358 0.0
N972 N 0.29165 0.17329 0.63 0.0
N973 N 0.33128 0.11339 0.59609 0.0
C974 C 0.35526 0.14288 0.61505 0.0
C975 C 0.3337 0.17549 0.6338 0.0
C976 C 0.87308 0.40343 0.70803 0.0
C977 C 0.86208 0.37468 0.67373 0.0
C978 C 0.9054 0.43607 0.69044 0.0
C979 C 0.92967 0.44121 0.63807 0.0
H980 H 0.85603 0.40098 0.74904 0.0
H981 H 0.91103 0.45788 0.71817 0.0
S982 S 0.9166 0.37174 0.53402 0.0
N983 N 0.87956 0.35228 0.58563 0.0
N984 N 0.94149 0.41218 0.5532 0.0
C985 C 0.92016 0.41151 0.60407 0.0
C986 C 0.88616 0.37883 0.62157 0.0
C987 C 0.15185 0.62274 0.62594 0.0
C988 C 0.19117 0.63813 0.59495 0.0
C989 C 0.12371 0.59458 0.60736 0.0
C990 C 0.13396 0.58034 0.55727 0.0
H991 H 0.14259 0.63288 0.66484 0.0
H992 H 0.09381 0.58386 0.63256 0.0
S993 S 0.23315 0.61149 0.46052 0.0
N994 N 0.23882 0.63753 0.5118 0.0
N995 N 0.18678 0.58385 0.47686 0.0
C996 C 0.17366 0.59502 0.52626 0.0
C997 C 0.2021 0.62398 0.54516 0.0
loop_
_geom_bond_atom_site_label_1
_geom_bond_atom_site_label_2
_geom_bond_distance
_geom_bond_site_symmetry_2
_ccdc_geom_bond_type
C0 O16 1.251 . S
C0 O18 1.254 . S
N1 C2 1.333 . S
N1 C6 1.307 . S
N1 Zn7 2.020 . S
C2 N1 1.333 . S
C2 C3 1.379 . S
C2 H20 0.952 . S
C3 C2 1.379 . S
C3 C4 1.390 . S
C3 H30 0.949 . S
C4 C3 1.390 . S
C4 C5 1.357 . S
C5 C4 1.357 . S
C5 C6 1.370 . S
C5 H31 0.950 . S
C6 N1 1.307 . S
C6 C5 1.370 . S
C6 H24 0.948 . S
Zn7 N1 2.020 . S
Zn7 O16 2.039 . S
Zn7 O22 2.034 . S
Zn7 O26 2.025 . S
Zn7 O28 2.024 . S
C8 O27 1.246 . S
C8 O28 1.249 . S
N9 C10 1.307 . S
N9 C11 1.333 . S
N9 Zn15 2.020 . S
C10 N9 1.307 . S
C10 C14 1.370 . S
C10 H21 0.948 . S
C11 N9 1.333 . S
C11 C12 1.379 . S
C11 H19 0.952 . S
C12 C11 1.379 . S
C12 C13 1.390 . S
C12 H32 0.949 . S
C13 C12 1.390 . S
C13 C14 1.357 . S
C14 C10 1.370 . S
C14 C13 1.357 . S
C14 H33 0.950 . S
Zn15 N9 2.020 . S
Zn15 O18 2.025 . S
Zn15 O23 2.024 . S
Zn15 O25 2.039 . S
Zn15 O27 2.034 . S
O16 C0 1.251 . S
O16 Zn7 2.039 . S
C17 O22 1.246 . S
C17 O23 1.249 . S
O18 C0 1.254 . S
O18 Zn15 2.025 . S
H19 C11 0.952 . S
H20 C2 0.952 . S
H21 C10 0.948 . S
O22 Zn7 2.034 . S
O22 C17 1.246 . S
O23 Zn15 2.024 . S
O23 C17 1.249 . S
H24 C6 0.948 . S
O25 Zn15 2.039 . S
O25 C29 1.251 . S
O26 Zn7 2.025 . S
O26 C29 1.254 . S
O27 C8 1.246 . S
O27 Zn15 2.034 . S
O28 Zn7 2.024 . S
O28 C8 1.249 . S
C29 O25 1.251 . S
C29 O26 1.254 . S
H30 C3 0.949 . S
H31 C5 0.950 . S
H32 C12 0.949 . S
H33 C14 0.950 . S
C34 O50 1.251 . S
C34 O52 1.254 . S
N35 C36 1.333 . S
N35 C40 1.307 . S
N35 Zn41 2.020 . S
C36 N35 1.333 . S
C36 C37 1.379 . S
C36 H54 0.952 . S
C37 C36 1.379 . S
C37 C38 1.390 . S
C37 H64 0.949 . S
C38 C37 1.390 . S
C38 C39 1.357 . S
C39 C38 1.357 . S
C39 C40 1.370 . S
C39 H65 0.950 . S
C40 N35 1.307 . S
C40 C39 1.370 . S
C40 H58 0.948 . S
Zn41 N35 2.020 . S
Zn41 O50 2.039 . S
Zn41 O56 2.034 . S
Zn41 O60 2.025 . S
Zn41 O62 2.024 . S
C42 O61 1.246 . S
C42 O62 1.249 . S
N43 C44 1.307 . S
N43 C45 1.333 . S
N43 Zn49 2.020 . S
C44 N43 1.307 . S
C44 C48 1.370 . S
C44 H55 0.948 . S
C45 N43 1.333 . S
C45 C46 1.379 . S
C45 H53 0.952 . S
C46 C45 1.379 . S
C46 C47 1.390 . S
C46 H66 0.949 . S
C47 C46 1.390 . S
C47 C48 1.357 . S
C48 C44 1.370 . S
C48 C47 1.357 . S
C48 H67 0.950 . S
Zn49 N43 2.020 . S
Zn49 O52 2.025 . S
Zn49 O57 2.024 . S
Zn49 O59 2.039 . S
Zn49 O61 2.034 . S
O50 C34 1.251 . S
O50 Zn41 2.039 . S
C51 O56 1.246 . S
C51 O57 1.249 . S
O52 C34 1.254 . S
O52 Zn49 2.025 . S
H53 C45 0.952 . S
H54 C36 0.952 . S
H55 C44 0.948 . S
O56 Zn41 2.034 . S
O56 C51 1.246 . S
O57 Zn49 2.024 . S
O57 C51 1.249 . S
H58 C40 0.948 . S
O59 Zn49 2.039 . S
O59 C63 1.251 . S
O60 Zn41 2.025 . S
O60 C63 1.254 . S
O61 C42 1.246 . S
O61 Zn49 2.034 . S
O62 Zn41 2.024 . S
O62 C42 1.249 . S
C63 O59 1.251 . S
C63 O60 1.254 . S
H64 C37 0.949 . S
H65 C39 0.950 . S
H66 C46 0.949 . S
H67 C48 0.950 . S
C68 O84 1.251 . S
C68 O86 1.254 . S
N69 C70 1.333 . S
N69 C74 1.307 . S
N69 Zn75 2.020 . S
C70 N69 1.333 . S
C70 C71 1.379 . S
C70 H88 0.952 . S
C71 C70 1.379 . S
C71 C72 1.390 . S
C71 H98 0.949 . S
C72 C71 1.390 . S
C72 C73 1.357 . S
C73 C72 1.357 . S
C73 C74 1.370 . S
C73 H99 0.950 . S
C74 N69 1.307 . S
C74 C73 1.370 . S
C74 H92 0.948 . S
Zn75 N69 2.020 . S
Zn75 O84 2.039 . S
Zn75 O90 2.034 . S
Zn75 O94 2.025 . S
Zn75 O96 2.024 . S
C76 O95 1.246 . S
C76 O96 1.249 . S
N77 C78 1.307 . S
N77 C79 1.333 . S
N77 Zn83 2.020 . S
C78 N77 1.307 . S
C78 C82 1.370 . S
C78 H89 0.948 . S
C79 N77 1.333 . S
C79 C80 1.379 . S
C79 H87 0.952 . S
C80 C79 1.379 . S
C80 C81 1.390 . S
C80 H100 0.949 . S
C81 C80 1.390 . S
C81 C82 1.357 . S
C82 C78 1.370 . S
C82 C81 1.357 . S
C82 H101 0.950 . S
Zn83 N77 2.020 . S
Zn83 O86 2.025 . S
Zn83 O91 2.024 . S
Zn83 O93 2.039 . S
Zn83 O95 2.034 . S
O84 C68 1.251 . S
O84 Zn75 2.039 . S
C85 O90 1.246 . S
C85 O91 1.249 . S
O86 C68 1.254 . S
O86 Zn83 2.025 . S
H87 C79 0.952 . S
H88 C70 0.952 . S
H89 C78 0.948 . S
O90 Zn75 2.034 . S
O90 C85 1.246 . S
O91 Zn83 2.024 . S
O91 C85 1.249 . S
H92 C74 0.948 . S
O93 Zn83 2.039 . S
O93 C97 1.251 . S
O94 Zn75 2.025 . S
O94 C97 1.254 . S
O95 C76 1.246 . S
O95 Zn83 2.034 . S
O96 Zn75 2.024 . S
O96 C76 1.249 . S
C97 O93 1.251 . S
C97 O94 1.254 . S
H98 C71 0.949 . S
H99 C73 0.950 . S
H100 C80 0.949 . S
H101 C82 0.950 . S
C102 O118 1.251 . S
C102 O120 1.254 . S
N103 C104 1.333 . S
N103 C108 1.307 . S
N103 Zn109 2.020 . S
C104 N103 1.333 . S
C104 C105 1.379 . S
C104 H122 0.952 . S
C105 C104 1.379 . S
C105 C106 1.390 . S
C105 H132 0.949 . S
C106 C105 1.390 . S
C106 C107 1.357 . S
C107 C106 1.357 . S
C107 C108 1.370 . S
C107 H133 0.950 . S
C108 N103 1.307 . S
C108 C107 1.370 . S
C108 H126 0.948 . S
Zn109 N103 2.020 . S
Zn109 O118 2.039 . S
Zn109 O124 2.034 . S
Zn109 O128 2.025 . S
Zn109 O130 2.024 . S
C110 O129 1.246 . S
C110 O130 1.249 . S
N111 C112 1.307 . S
N111 C113 1.333 . S
N111 Zn117 2.020 . S
C112 N111 1.307 . S
C112 C116 1.370 . S
C112 H123 0.948 . S
C113 N111 1.333 . S
C113 C114 1.379 . S
C113 H121 0.952 . S
C114 C113 1.379 . S
C114 C115 1.390 . S
C114 H134 0.949 . S
C115 C114 1.390 . S
C115 C116 1.357 . S
C116 C112 1.370 . S
C116 C115 1.357 . S
C116 H135 0.950 . S
Zn117 N111 2.020 . S
Zn117 O120 2.025 . S
Zn117 O125 2.024 . S
Zn117 O127 2.039 . S
Zn117 O129 2.034 . S
O118 C102 1.251 . S
O118 Zn109 2.039 . S
C119 O124 1.246 . S
C119 O125 1.249 . S
O120 C102 1.254 . S
O120 Zn117 2.025 . S
H121 C113 0.952 . S
H122 C104 0.952 . S
H123 C112 0.948 . S
O124 Zn109 2.034 . S
O124 C119 1.246 . S
O125 Zn117 2.024 . S
O125 C119 1.249 . S
H126 C108 0.948 . S
O127 Zn117 2.039 . S
O127 C131 1.251 . S
O128 Zn109 2.025 . S
O128 C131 1.254 . S
O129 C110 1.246 . S
O129 Zn117 2.034 . S
O130 Zn109 2.024 . S
O130 C110 1.249 . S
C131 O127 1.251 . S
C131 O128 1.254 . S
H132 C105 0.949 . S
H133 C107 0.950 . S
H134 C114 0.949 . S
H135 C116 0.950 . S
C136 O152 1.251 . S
C136 O154 1.254 . S
N137 C138 1.333 . S
N137 C142 1.307 . S
N137 Zn143 2.020 . S
C138 N137 1.333 . S
C138 C139 1.379 . S
C138 H156 0.952 . S
C139 C138 1.379 . S
C139 C140 1.390 . S
C139 H166 0.949 . S
C140 C139 1.390 . S
C140 C141 1.357 . S
C141 C140 1.357 . S
C141 C142 1.370 . S
C141 H167 0.950 . S
C142 N137 1.307 . S
C142 C141 1.370 . S
C142 H160 0.948 . S
Zn143 N137 2.020 . S
Zn143 O152 2.039 . S
Zn143 O158 2.034 . S
Zn143 O162 2.025 . S
Zn143 O164 2.024 . S
C144 O163 1.246 . S
C144 O164 1.249 . S
N145 C146 1.307 . S
N145 C147 1.333 . S
N145 Zn151 2.020 . S
C146 N145 1.307 . S
C146 C150 1.370 . S
C146 H157 0.948 . S
C147 N145 1.333 . S
C147 C148 1.379 . S
C147 H155 0.952 . S
C148 C147 1.379 . S
C148 C149 1.390 . S
C148 H168 0.949 . S
C149 C148 1.390 . S
C149 C150 1.357 . S
C150 C146 1.370 . S
C150 C149 1.357 . S
C150 H169 0.950 . S
Zn151 N145 2.020 . S
Zn151 O154 2.025 . S
Zn151 O159 2.024 . S
Zn151 O161 2.039 . S
Zn151 O163 2.034 . S
O152 C136 1.251 . S
O152 Zn143 2.039 . S
C153 O158 1.246 . S
C153 O159 1.249 . S
O154 C136 1.254 . S
O154 Zn151 2.025 . S
H155 C147 0.952 . S
H156 C138 0.952 . S
H157 C146 0.948 . S
O158 Zn143 2.034 . S
O158 C153 1.246 . S
O159 Zn151 2.024 . S
O159 C153 1.249 . S
H160 C142 0.948 . S
O161 Zn151 2.039 . S
O161 C165 1.251 . S
O162 Zn143 2.025 . S
O162 C165 1.254 . S
O163 C144 1.246 . S
O163 Zn151 2.034 . S
O164 Zn143 2.024 . S
O164 C144 1.249 . S
C165 O161 1.251 . S
C165 O162 1.254 . S
H166 C139 0.949 . S
H167 C141 0.950 . S
H168 C148 0.949 . S
H169 C150 0.950 . S
C170 O186 1.251 . S
C170 O188 1.254 . S
N171 C172 1.333 . S
N171 C176 1.307 . S
N171 Zn177 2.020 . S
C172 N171 1.333 . S
C172 C173 1.379 . S
C172 H190 0.952 . S
C173 C172 1.379 . S
C173 C174 1.390 . S
C173 H200 0.949 . S
C174 C173 1.390 . S
C174 C175 1.357 . S
C175 C174 1.357 . S
C175 C176 1.370 . S
C175 H201 0.950 . S
C176 N171 1.307 . S
C176 C175 1.370 . S
C176 H194 0.948 . S
Zn177 N171 2.020 . S
Zn177 O186 2.039 . S
Zn177 O192 2.034 . S
Zn177 O196 2.025 . S
Zn177 O198 2.024 . S
C178 O197 1.246 . S
C178 O198 1.249 . S
N179 C180 1.307 . S
N179 C181 1.333 . S
N179 Zn185 2.020 . S
C180 N179 1.307 . S
C180 C184 1.370 . S
C180 H191 0.948 . S
C181 N179 1.333 . S
C181 C182 1.379 . S
C181 H189 0.952 . S
C182 C181 1.379 . S
C182 C183 1.390 . S
C182 H202 0.949 . S
C183 C182 1.390 . S
C183 C184 1.357 . S
C184 C180 1.370 . S
C184 C183 1.357 . S
C184 H203 0.950 . S
Zn185 N179 2.020 . S
Zn185 O188 2.025 . S
Zn185 O193 2.024 . S
Zn185 O195 2.039 . S
Zn185 O197 2.034 . S
O186 C170 1.251 . S
O186 Zn177 2.039 . S
C187 O192 1.246 . S
C187 O193 1.249 . S
O188 C170 1.254 . S
O188 Zn185 2.025 . S
H189 C181 0.952 . S
H190 C172 0.952 . S
H191 C180 0.948 . S
O192 Zn177 2.034 . S
O192 C187 1.246 . S
O193 Zn185 2.024 . S
O193 C187 1.249 . S
H194 C176 0.948 . S
O195 Zn185 2.039 . S
O195 C199 1.251 . S
O196 Zn177 2.025 . S
O196 C199 1.254 . S
O197 C178 1.246 . S
O197 Zn185 2.034 . S
O198 Zn177 2.024 . S
O198 C178 1.249 . S
C199 O195 1.251 . S
C199 O196 1.254 . S
H200 C173 0.949 . S
H201 C175 0.950 . S
H202 C182 0.949 . S
H203 C184 0.950 . S
C204 O220 1.251 . S
C204 O222 1.254 . S
N205 C206 1.333 . S
N205 C210 1.307 . S
N205 Zn211 2.020 . S
C206 N205 1.333 . S
C206 C207 1.379 . S
C206 H224 0.952 . S
C207 C206 1.379 . S
C207 C208 1.390 . S
C207 H234 0.949 . S
C208 C207 1.390 . S
C208 C209 1.357 . S
C209 C208 1.357 . S
C209 C210 1.370 . S
C209 H235 0.950 . S
C210 N205 1.307 . S
C210 C209 1.370 . S
C210 H228 0.948 . S
Zn211 N205 2.020 . S
Zn211 O220 2.039 . S
Zn211 O226 2.034 . S
Zn211 O230 2.025 . S
Zn211 O232 2.024 . S
C212 O231 1.246 . S
C212 O232 1.249 . S
N213 C214 1.307 . S
N213 C215 1.333 . S
N213 Zn219 2.020 . S
C214 N213 1.307 . S
C214 C218 1.370 . S
C214 H225 0.948 . S
C215 N213 1.333 . S
C215 C216 1.379 . S
C215 H223 0.952 . S
C216 C215 1.379 . S
C216 C217 1.390 . S
C216 H236 0.949 . S
C217 C216 1.390 . S
C217 C218 1.357 . S
C218 C214 1.370 . S
C218 C217 1.357 . S
C218 H237 0.950 . S
Zn219 N213 2.020 . S
Zn219 O222 2.025 . S
Zn219 O227 2.024 . S
Zn219 O229 2.039 . S
Zn219 O231 2.034 . S
O220 C204 1.251 . S
O220 Zn211 2.039 . S
C221 O226 1.246 . S
C221 O227 1.249 . S
O222 C204 1.254 . S
O222 Zn219 2.025 . S
H223 C215 0.952 . S
H224 C206 0.952 . S
H225 C214 0.948 . S
O226 Zn211 2.034 . S
O226 C221 1.246 . S
O227 Zn219 2.024 . S
O227 C221 1.249 . S
H228 C210 0.948 . S
O229 Zn219 2.039 . S
O229 C233 1.251 . S
O230 Zn211 2.025 . S
O230 C233 1.254 . S
O231 C212 1.246 . S
O231 Zn219 2.034 . S
O232 Zn211 2.024 . S
O232 C212 1.249 . S
C233 O229 1.251 . S
C233 O230 1.254 . S
H234 C207 0.949 . S
H235 C209 0.950 . S
H236 C216 0.949 . S
H237 C218 0.950 . S
C238 O254 1.251 . S
C238 O256 1.254 . S
N239 C240 1.333 . S
N239 C244 1.307 . S
N239 Zn245 2.020 . S
C240 N239 1.333 . S
C240 C241 1.379 . S
C240 H258 0.952 . S
C241 C240 1.379 . S
C241 C242 1.390 . S
C241 H268 0.949 . S
C242 C241 1.390 . S
C242 C243 1.357 . S
C243 C242 1.357 . S
C243 C244 1.370 . S
C243 H269 0.950 . S
C244 N239 1.307 . S
C244 C243 1.370 . S
C244 H262 0.948 . S
Zn245 N239 2.020 . S
Zn245 O254 2.039 . S
Zn245 O260 2.034 . S
Zn245 O264 2.025 . S
Zn245 O266 2.024 . S
C246 O265 1.246 . S
C246 O266 1.249 . S
N247 C248 1.307 . S
N247 C249 1.333 . S
N247 Zn253 2.020 . S
C248 N247 1.307 . S
C248 C252 1.370 . S
C248 H259 0.948 . S
C249 N247 1.333 . S
C249 C250 1.379 . S
C249 H257 0.952 . S
C250 C249 1.379 . S
C250 C251 1.390 . S
C250 H270 0.949 . S
C251 C250 1.390 . S
C251 C252 1.357 . S
C252 C248 1.370 . S
C252 C251 1.357 . S
C252 H271 0.950 . S
Zn253 N247 2.020 . S
Zn253 O256 2.025 . S
Zn253 O261 2.024 . S
Zn253 O263 2.039 . S
Zn253 O265 2.034 . S
O254 C238 1.251 . S
O254 Zn245 2.039 . S
C255 O260 1.246 . S
C255 O261 1.249 . S
O256 C238 1.254 . S
O256 Zn253 2.025 . S
H257 C249 0.952 . S
H258 C240 0.952 . S
H259 C248 0.948 . S
O260 Zn245 2.034 . S
O260 C255 1.246 . S
O261 Zn253 2.024 . S
O261 C255 1.249 . S
H262 C244 0.948 . S
O263 Zn253 2.039 . S
O263 C267 1.251 . S
O264 Zn245 2.025 . S
O264 C267 1.254 . S
O265 C246 1.246 . S
O265 Zn253 2.034 . S
O266 Zn245 2.024 . S
O266 C246 1.249 . S
C267 O263 1.251 . S
C267 O264 1.254 . S
H268 C241 0.949 . S
H269 C243 0.950 . S
H270 C250 0.949 . S
H271 C252 0.950 . S
Co272 O275 2.042 . S
Co272 O282 2.264 . S
Co272 O301 2.286 . S
Co272 O302 2.069 . S
Co272 O304 2.015 1_455 S
Co273 O275 2.122 . S
Co273 O281 2.073 . S
Co273 O282 2.327 . S
Co273 O283 1.976 1_455 S
Co274 O275 2.087 1_545 S
Co274 O277 2.087 1_455 S
Co274 O284 2.111 1_445 S
Co274 O285 2.143 . S
Co274 O289 2.111 . S
Co274 O303 2.143 1_445 S
O275 Co272 2.042 . S
O275 Co273 2.122 . S
O275 Co274 2.087 1_565 S
O275 H276 0.980 . S
H276 O275 0.980 . S
O277 Co274 2.087 1_655 S
O277 Co278 2.042 . S
O277 Co279 2.122 . S
O277 H280 0.980 . S
Co278 O277 2.042 . S
Co278 O286 2.286 . S
Co278 O287 2.069 . S
Co278 O288 2.015 1_655 S
Co278 O291 2.264 . S
Co279 O277 2.122 . S
Co279 O290 1.976 1_655 S
Co279 O291 2.327 . S
Co279 O292 2.073 . S
H280 O277 0.980 . S
O281 Co273 2.073 . S
O281 C296 1.245 . S
O282 Co272 2.264 . S
O282 Co273 2.327 . S
O282 C296 1.257 . S
O283 Co273 1.976 1_655 S
O283 C295 1.251 . S
O284 Co274 2.111 1_665 S
O284 C295 1.274 . S
O285 Co274 2.143 . S
O285 C298 1.246 . S
O286 Co278 2.286 . S
O286 C297 1.259 . S
O287 Co278 2.069 . S
O287 C297 1.289 . S
O288 Co278 2.015 1_455 S
O288 C298 1.257 . S
O289 Co274 2.111 . S
O289 C299 1.274 . S
O290 Co279 1.976 1_455 S
O290 C299 1.251 . S
O291 Co278 2.264 . S
O291 Co279 2.327 . S
O291 C300 1.257 . S
O292 Co279 2.073 . S
O292 C300 1.245 . S
C293 O301 1.259 . S
C293 O302 1.289 . S
C294 O303 1.246 . S
C294 O304 1.257 . S
C295 O283 1.251 . S
C295 O284 1.274 . S
C296 O281 1.245 . S
C296 O282 1.257 . S
C297 O286 1.259 . S
C297 O287 1.289 . S
C298 O285 1.246 . S
C298 O288 1.257 . S
C299 O289 1.274 . S
C299 O290 1.251 . S
C300 O291 1.257 . S
C300 O292 1.245 . S
O301 Co272 2.286 . S
O301 C293 1.259 . S
O302 Co272 2.069 . S
O302 C293 1.289 . S
O303 Co274 2.143 1_665 S
O303 C294 1.246 . S
O304 Co272 2.015 1_655 S
O304 C294 1.257 . S
Co305 O308 2.042 1_556 S
Co305 O315 2.264 1_556 S
Co305 O334 2.286 . S
Co305 O335 2.069 . S
Co305 O337 2.015 . S
Co306 O308 2.122 . S
Co306 O314 2.073 . S
Co306 O315 2.327 . S
Co306 O316 1.976 . S
Co307 O308 2.087 1_545 S
Co307 O310 2.087 1_554 S
Co307 O317 2.111 1_545 S
Co307 O318 2.143 . S
Co307 O322 2.111 1_554 S
Co307 O336 2.143 1_544 S
O308 Co305 2.042 1_554 S
O308 Co306 2.122 . S
O308 Co307 2.087 1_565 S
O308 H309 0.980 . S
H309 O308 0.980 . S
O310 Co307 2.087 1_556 S
O310 Co311 2.042 1_556 S
O310 Co312 2.122 . S
O310 H313 0.980 . S
Co311 O310 2.042 1_554 S
Co311 O319 2.286 . S
Co311 O320 2.069 . S
Co311 O321 2.015 . S
Co311 O324 2.264 1_554 S
Co312 O310 2.122 . S
Co312 O323 1.976 . S
Co312 O324 2.327 . S
Co312 O325 2.073 . S
H313 O310 0.980 . S
O314 Co306 2.073 . S
O314 C329 1.245 . S
O315 Co305 2.264 1_554 S
O315 Co306 2.327 . S
O315 C329 1.257 . S
O316 Co306 1.976 . S
O316 C328 1.251 . S
O317 Co307 2.111 1_565 S
O317 C328 1.274 . S
O318 Co307 2.143 . S
O318 C331 1.246 . S
O319 Co311 2.286 . S
O319 C330 1.259 . S
O320 Co311 2.069 . S
O320 C330 1.289 . S
O321 Co311 2.015 . S
O321 C331 1.257 . S
O322 Co307 2.111 1_556 S
O322 C332 1.274 . S
O323 Co312 1.976 . S
O323 C332 1.251 . S
O324 Co311 2.264 1_556 S
O324 Co312 2.327 . S
O324 C333 1.257 . S
O325 Co312 2.073 . S
O325 C333 1.245 . S
C326 O334 1.259 . S
C326 O335 1.289 . S
C327 O336 1.246 . S
C327 O337 1.257 . S
C328 O316 1.251 . S
C328 O317 1.274 . S
C329 O314 1.245 . S
C329 O315 1.257 . S
C330 O319 1.259 . S
C330 O320 1.289 . S
C331 O318 1.246 . S
C331 O321 1.257 . S
C332 O322 1.274 . S
C332 O323 1.251 . S
C333 O324 1.257 . S
C333 O325 1.245 . S
O334 Co305 2.286 . S
O334 C326 1.259 . S
O335 Co305 2.069 . S
O335 C326 1.289 . S
O336 Co307 2.143 1_566 S
O336 C327 1.246 . S
O337 Co305 2.015 . S
O337 C327 1.257 . S
Co338 O341 2.042 1_556 S
Co338 O348 2.264 1_556 S
Co338 O367 2.286 . S
Co338 O368 2.069 . S
Co338 O370 2.015 1_455 S
Co339 O341 2.122 . S
Co339 O347 2.073 . S
Co339 O348 2.327 . S
Co339 O349 1.976 1_455 S
Co340 O341 2.087 . S
Co340 O343 2.087 1_454 S
Co340 O350 2.111 1_455 S
Co340 O351 2.143 . S
Co340 O355 2.111 1_554 S
Co340 O369 2.143 1_454 S
O341 Co338 2.042 1_554 S
O341 Co339 2.122 . S
O341 Co340 2.087 . S
O341 H342 0.980 . S
H342 O341 0.980 . S
O343 Co340 2.087 1_656 S
O343 Co344 2.042 1_556 S
O343 Co345 2.122 . S
O343 H346 0.980 . S
Co344 O343 2.042 1_554 S
Co344 O352 2.286 . S
Co344 O353 2.069 . S
Co344 O354 2.015 1_655 S
Co344 O357 2.264 1_554 S
Co345 O343 2.122 . S
Co345 O356 1.976 1_655 S
Co345 O357 2.327 . S
Co345 O358 2.073 . S
H346 O343 0.980 . S
O347 Co339 2.073 . S
O347 C362 1.245 . S
O348 Co338 2.264 1_554 S
O348 Co339 2.327 . S
O348 C362 1.257 . S
O349 Co339 1.976 1_655 S
O349 C361 1.251 . S
O350 Co340 2.111 1_655 S
O350 C361 1.274 . S
O351 Co340 2.143 . S
O351 C364 1.246 . S
O352 Co344 2.286 . S
O352 C363 1.259 . S
O353 Co344 2.069 . S
O353 C363 1.289 . S
O354 Co344 2.015 1_455 S
O354 C364 1.257 . S
O355 Co340 2.111 1_556 S
O355 C365 1.274 . S
O356 Co345 1.976 1_455 S
O356 C365 1.251 . S
O357 Co344 2.264 1_556 S
O357 Co345 2.327 . S
O357 C366 1.257 . S
O358 Co345 2.073 . S
O358 C366 1.245 . S
C359 O367 1.259 . S
C359 O368 1.289 . S
C360 O369 1.246 . S
C360 O370 1.257 . S
C361 O349 1.251 . S
C361 O350 1.274 . S
C362 O347 1.245 . S
C362 O348 1.257 . S
C363 O352 1.259 . S
C363 O353 1.289 . S
C364 O351 1.246 . S
C364 O354 1.257 . S
C365 O355 1.274 . S
C365 O356 1.251 . S
C366 O357 1.257 . S
C366 O358 1.245 . S
O367 Co338 2.286 . S
O367 C359 1.259 . S
O368 Co338 2.069 . S
O368 C359 1.289 . S
O369 Co340 2.143 1_656 S
O369 C360 1.246 . S
O370 Co338 2.015 1_655 S
O370 C360 1.257 . S
Co371 O374 2.042 1_556 S
Co371 O381 2.264 1_556 S
Co371 O400 2.286 . S
Co371 O401 2.069 . S
Co371 O403 2.015 . S
Co372 O374 2.122 . S
Co372 O380 2.073 . S
Co372 O381 2.327 . S
Co372 O382 1.976 . S
Co373 O374 2.087 . S
Co373 O376 2.087 1_554 S
Co373 O383 2.111 . S
Co373 O384 2.143 . S
Co373 O388 2.111 1_554 S
Co373 O402 2.143 1_554 S
O374 Co371 2.042 1_554 S
O374 Co372 2.122 . S
O374 Co373 2.087 . S
O374 H375 0.980 . S
H375 O374 0.980 . S
O376 Co373 2.087 1_556 S
O376 Co377 2.042 1_556 S
O376 Co378 2.122 . S
O376 H379 0.980 . S
Co377 O376 2.042 1_554 S
Co377 O385 2.286 . S
Co377 O386 2.069 . S
Co377 O387 2.015 . S
Co377 O390 2.264 1_554 S
Co378 O376 2.122 . S
Co378 O389 1.976 . S
Co378 O390 2.327 . S
Co378 O391 2.073 . S
H379 O376 0.980 . S
O380 Co372 2.073 . S
O380 C395 1.245 . S
O381 Co371 2.264 1_554 S
O381 Co372 2.327 . S
O381 C395 1.257 . S
O382 Co372 1.976 . S
O382 C394 1.251 . S
O383 Co373 2.111 . S
O383 C394 1.274 . S
O384 Co373 2.143 . S
O384 C397 1.246 . S
O385 Co377 2.286 . S
O385 C396 1.259 . S
O386 Co377 2.069 . S
O386 C396 1.289 . S
O387 Co377 2.015 . S
O387 C397 1.257 . S
O388 Co373 2.111 1_556 S
O388 C398 1.274 . S
O389 Co378 1.976 . S
O389 C398 1.251 . S
O390 Co377 2.264 1_556 S
O390 Co378 2.327 . S
O390 C399 1.257 . S
O391 Co378 2.073 . S
O391 C399 1.245 . S
C392 O400 1.259 . S
C392 O401 1.289 . S
C393 O402 1.246 . S
C393 O403 1.257 . S
C394 O382 1.251 . S
C394 O383 1.274 . S
C395 O380 1.245 . S
C395 O381 1.257 . S
C396 O385 1.259 . S
C396 O386 1.289 . S
C397 O384 1.246 . S
C397 O387 1.257 . S
C398 O388 1.274 . S
C398 O389 1.251 . S
C399 O390 1.257 . S
C399 O391 1.245 . S
O400 Co371 2.286 . S
O400 C392 1.259 . S
O401 Co371 2.069 . S
O401 C392 1.289 . S
O402 Co373 2.143 1_556 S
O402 C393 1.246 . S
O403 Co371 2.015 . S
O403 C393 1.257 . S
Co404 O407 2.042 . S
Co404 O414 2.264 . S
Co404 O433 2.286 . S
Co404 O434 2.069 . S
Co404 O436 2.015 . S
Co405 O407 2.122 . S
Co405 O413 2.073 . S
Co405 O414 2.327 . S
Co405 O415 1.976 . S
Co406 O407 2.087 . S
Co406 O409 2.087 1_455 S
Co406 O416 2.111 . S
Co406 O417 2.143 1_455 S
Co406 O421 2.111 1_455 S
Co406 O435 2.143 . S
O407 Co404 2.042 . S
O407 Co405 2.122 . S
O407 Co406 2.087 . S
O407 H408 0.980 . S
H408 O407 0.980 . S
O409 Co406 2.087 1_655 S
O409 Co410 2.042 . S
O409 Co411 2.122 . S
O409 H412 0.980 . S
Co410 O409 2.042 . S
Co410 O418 2.286 . S
Co410 O419 2.069 . S
Co410 O420 2.015 . S
Co410 O423 2.264 . S
Co411 O409 2.122 . S
Co411 O422 1.976 . S
Co411 O423 2.327 . S
Co411 O424 2.073 . S
H412 O409 0.980 . S
O413 Co405 2.073 . S
O413 C428 1.245 . S
O414 Co404 2.264 . S
O414 Co405 2.327 . S
O414 C428 1.257 . S
O415 Co405 1.976 . S
O415 C427 1.251 . S
O416 Co406 2.111 . S
O416 C427 1.274 . S
O417 Co406 2.143 1_655 S
O417 C430 1.246 . S
O418 Co410 2.286 . S
O418 C429 1.259 . S
O419 Co410 2.069 . S
O419 C429 1.289 . S
O420 Co410 2.015 . S
O420 C430 1.257 . S
O421 Co406 2.111 1_655 S
O421 C431 1.274 . S
O422 Co411 1.976 . S
O422 C431 1.251 . S
O423 Co410 2.264 . S
O423 Co411 2.327 . S
O423 C432 1.257 . S
O424 Co411 2.073 . S
O424 C432 1.245 . S
C425 O433 1.259 . S
C425 O434 1.289 . S
C426 O435 1.246 . S
C426 O436 1.257 . S
C427 O415 1.251 . S
C427 O416 1.274 . S
C428 O413 1.245 . S
C428 O414 1.257 . S
C429 O418 1.259 . S
C429 O419 1.289 . S
C430 O417 1.246 . S
C430 O420 1.257 . S
C431 O421 1.274 . S
C431 O422 1.251 . S
C432 O423 1.257 . S
C432 O424 1.245 . S
O433 Co404 2.286 . S
O433 C425 1.259 . S
O434 Co404 2.069 . S
O434 C425 1.289 . S
O435 Co406 2.143 . S
O435 C426 1.246 . S
O436 Co404 2.015 . S
O436 C426 1.257 . S
Co437 O440 2.042 . S
Co437 O447 2.264 . S
Co437 O466 2.286 . S
Co437 O467 2.069 . S
Co437 O469 2.015 1_565 S
Co438 O440 2.122 . S
Co438 O446 2.073 . S
Co438 O447 2.327 . S
Co438 O448 1.976 1_565 S
Co439 O440 2.087 1_545 S
Co439 O442 2.087 . S
Co439 O449 2.111 . S
Co439 O450 2.143 1_545 S
Co439 O454 2.111 1_545 S
Co439 O468 2.143 . S
O440 Co437 2.042 . S
O440 Co438 2.122 . S
O440 Co439 2.087 1_565 S
O440 H441 0.980 . S
H441 O440 0.980 . S
O442 Co439 2.087 . S
O442 Co443 2.042 . S
O442 Co444 2.122 . S
O442 H445 0.980 . S
Co443 O442 2.042 . S
Co443 O451 2.286 . S
Co443 O452 2.069 . S
Co443 O453 2.015 1_545 S
Co443 O456 2.264 . S
Co444 O442 2.122 . S
Co444 O455 1.976 1_545 S
Co444 O456 2.327 . S
Co444 O457 2.073 . S
H445 O442 0.980 . S
O446 Co438 2.073 . S
O446 C461 1.245 . S
O447 Co437 2.264 . S
O447 Co438 2.327 . S
O447 C461 1.257 . S
O448 Co438 1.976 1_545 S
O448 C460 1.251 . S
O449 Co439 2.111 . S
O449 C460 1.274 . S
O450 Co439 2.143 1_565 S
O450 C463 1.246 . S
O451 Co443 2.286 . S
O451 C462 1.259 . S
O452 Co443 2.069 . S
O452 C462 1.289 . S
O453 Co443 2.015 1_565 S
O453 C463 1.257 . S
O454 Co439 2.111 1_565 S
O454 C464 1.274 . S
O455 Co444 1.976 1_565 S
O455 C464 1.251 . S
O456 Co443 2.264 . S
O456 Co444 2.327 . S
O456 C465 1.257 . S
O457 Co444 2.073 . S
O457 C465 1.245 . S
C458 O466 1.259 . S
C458 O467 1.289 . S
C459 O468 1.246 . S
C459 O469 1.257 . S
C460 O448 1.251 . S
C460 O449 1.274 . S
C461 O446 1.245 . S
C461 O447 1.257 . S
C462 O451 1.259 . S
C462 O452 1.289 . S
C463 O450 1.246 . S
C463 O453 1.257 . S
C464 O454 1.274 . S
C464 O455 1.251 . S
C465 O456 1.257 . S
C465 O457 1.245 . S
O466 Co437 2.286 . S
O466 C458 1.259 . S
O467 Co437 2.069 . S
O467 C458 1.289 . S
O468 Co439 2.143 . S
O468 C459 1.246 . S
O469 Co437 2.015 1_545 S
O469 C459 1.257 . S
C470 C471 1.369 . S
C470 C472 1.419 . S
C470 H474 0.930 . S
C471 C470 1.369 . S
C471 C480 1.429 . S
C472 C470 1.419 . S
C472 C473 1.363 . S
C472 H475 0.929 . S
C473 C472 1.363 . S
C473 C479 1.428 . S
H474 C470 0.930 . S
H475 C472 0.929 . S
S476 N477 1.613 . S
S476 N478 1.610 . S
N477 S476 1.613 . S
N477 C480 1.350 . S
N478 S476 1.610 . S
N478 C479 1.351 . S
C479 C473 1.428 . S
C479 N478 1.351 . S
C479 C480 1.434 . S
C480 C471 1.429 . S
C480 N477 1.350 . S
C480 C479 1.434 . S
C481 C482 1.369 . S
C481 C483 1.419 . S
C481 H485 0.930 . S
C482 C481 1.369 . S
C482 C491 1.429 . S
C483 C481 1.419 . S
C483 C484 1.363 . S
C483 H486 0.929 . S
C484 C483 1.363 . S
C484 C490 1.428 . S
H485 C481 0.930 . S
H486 C483 0.929 . S
S487 N488 1.613 . S
S487 N489 1.610 . S
N488 S487 1.613 . S
N488 C491 1.350 . S
N489 S487 1.610 . S
N489 C490 1.351 . S
C490 C484 1.428 . S
C490 N489 1.351 . S
C490 C491 1.434 . S
C491 C482 1.429 . S
C491 N488 1.350 . S
C491 C490 1.434 . S
C492 C493 1.369 . S
C492 C494 1.419 . S
C492 H496 0.930 . S
C493 C492 1.369 . S
C493 C502 1.429 . S
C494 C492 1.419 . S
C494 C495 1.363 . S
C494 H497 0.929 . S
C495 C494 1.363 . S
C495 C501 1.428 . S
H496 C492 0.930 . S
H497 C494 0.929 . S
S498 N499 1.613 1_545 S
S498 N500 1.610 1_545 S
N499 S498 1.613 1_565 S
N499 C502 1.350 . S
N500 S498 1.610 1_565 S
N500 C501 1.351 . S
C501 C495 1.428 . S
C501 N500 1.351 . S
C501 C502 1.434 . S
C502 C493 1.429 . S
C502 N499 1.350 . S
C502 C501 1.434 . S
C503 C504 1.369 . S
C503 C505 1.419 . S
C503 H507 0.930 . S
C504 C503 1.369 . S
C504 C513 1.429 . S
C505 C503 1.419 . S
C505 C506 1.363 . S
C505 H508 0.929 . S
C506 C505 1.363 . S
C506 C512 1.428 . S
H507 C503 0.930 . S
H508 C505 0.929 . S
S509 N510 1.613 . S
S509 N511 1.610 . S
N510 S509 1.613 . S
N510 C513 1.350 . S
N511 S509 1.610 . S
N511 C512 1.351 . S
C512 C506 1.428 . S
C512 N511 1.351 . S
C512 C513 1.434 . S
C513 C504 1.429 . S
C513 N510 1.350 . S
C513 C512 1.434 . S
C514 C515 1.369 . S
C514 C516 1.419 . S
C514 H518 0.930 . S
C515 C514 1.369 . S
C515 C524 1.429 . S
C516 C514 1.419 . S
C516 C517 1.363 . S
C516 H519 0.929 . S
C517 C516 1.363 . S
C517 C523 1.428 . S
H518 C514 0.930 . S
H519 C516 0.929 . S
S520 N521 1.613 . S
S520 N522 1.610 . S
N521 S520 1.613 . S
N521 C524 1.350 . S
N522 S520 1.610 . S
N522 C523 1.351 . S
C523 C517 1.428 . S
C523 N522 1.351 . S
C523 C524 1.434 . S
C524 C515 1.429 . S
C524 N521 1.350 . S
C524 C523 1.434 . S
C525 C526 1.369 . S
C525 C527 1.419 . S
C525 H529 0.930 . S
C526 C525 1.369 . S
C526 C535 1.429 . S
C527 C525 1.419 . S
C527 C528 1.363 . S
C527 H530 0.929 . S
C528 C527 1.363 . S
C528 C534 1.428 . S
H529 C525 0.930 . S
H530 C527 0.929 . S
S531 N532 1.613 1_655 S
S531 N533 1.610 1_655 S
N532 S531 1.613 1_455 S
N532 C535 1.350 . S
N533 S531 1.610 1_455 S
N533 C534 1.355 . S
C534 C528 1.428 . S
C534 N533 1.355 . S
C534 C535 1.434 . S
C535 C526 1.429 . S
C535 N532 1.350 . S
C535 C534 1.434 . S
C536 C537 1.369 . S
C536 C538 1.419 . S
C536 H540 0.930 . S
C537 C536 1.369 . S
C537 C546 1.429 . S
C538 C536 1.419 . S
C538 C539 1.363 . S
C538 H541 0.929 . S
C539 C538 1.363 . S
C539 C545 1.428 . S
H540 C536 0.930 . S
H541 C538 0.929 . S
S542 N543 1.613 . S
S542 N544 1.610 . S
N543 S542 1.613 . S
N543 C546 1.350 . S
N544 S542 1.610 . S
N544 C545 1.351 . S
C545 C539 1.428 . S
C545 N544 1.351 . S
C545 C546 1.434 . S
C546 C537 1.429 . S
C546 N543 1.350 . S
C546 C545 1.434 . S
C547 C548 1.369 . S
C547 C549 1.419 . S
C547 H551 0.930 . S
C548 C547 1.369 . S
C548 C557 1.429 . S
C549 C547 1.419 . S
C549 C550 1.363 . S
C549 H552 0.929 . S
C550 C549 1.363 . S
C550 C556 1.428 . S
H551 C547 0.930 . S
H552 C549 0.929 . S
S553 N554 1.613 . S
S553 N555 1.610 . S
N554 S553 1.613 . S
N554 C557 1.350 . S
N555 S553 1.610 . S
N555 C556 1.351 . S
C556 C550 1.428 . S
C556 N555 1.351 . S
C556 C557 1.434 . S
C557 C548 1.429 . S
C557 N554 1.350 . S
C557 C556 1.434 . S
C558 C559 1.369 . S
C558 C560 1.419 . S
C558 H562 0.930 . S
C559 C558 1.369 . S
C559 C568 1.429 . S
C560 C558 1.419 . S
C560 C561 1.363 . S
C560 H563 0.929 . S
C561 C560 1.363 . S
C561 C567 1.428 . S
H562 C558 0.930 . S
H563 C560 0.929 . S
S564 N565 1.613 . S
S564 N566 1.610 . S
N565 S564 1.613 . S
N565 C568 1.350 . S
N566 S564 1.610 . S
N566 C567 1.351 . S
C567 C561 1.428 . S
C567 N566 1.351 . S
C567 C568 1.434 . S
C568 C559 1.429 . S
C568 N565 1.350 . S
C568 C567 1.434 . S
C569 C570 1.369 . S
C569 C571 1.419 . S
C569 H573 0.930 . S
C570 C569 1.369 . S
C570 C579 1.429 . S
C571 C569 1.419 . S
C571 C572 1.363 . S
C571 H574 0.929 . S
C572 C571 1.363 . S
C572 C578 1.428 . S
H573 C569 0.930 . S
H574 C571 0.929 . S
S575 N576 1.613 . S
S575 N577 1.610 . S
N576 S575 1.613 . S
N576 C579 1.350 . S
N577 S575 1.610 . S
N577 C578 1.351 . S
C578 C572 1.428 . S
C578 N577 1.351 . S
C578 C579 1.434 . S
C579 C570 1.429 . S
C579 N576 1.350 . S
C579 C578 1.434 . S
C580 C581 1.369 . S
C580 C582 1.419 . S
C580 H584 0.930 . S
C581 C580 1.369 . S
C581 C590 1.429 . S
C582 C580 1.419 . S
C582 C583 1.363 . S
C582 H585 0.929 . S
C583 C582 1.363 . S
C583 C589 1.428 . S
H584 C580 0.930 . S
H585 C582 0.929 . S
S586 N587 1.613 . S
S586 N588 1.610 . S
N587 S586 1.613 . S
N587 C590 1.350 . S
N588 S586 1.610 . S
N588 C589 1.351 . S
C589 C583 1.428 . S
C589 N588 1.351 . S
C589 C590 1.434 . S
C590 C581 1.429 . S
C590 N587 1.350 . S
C590 C589 1.434 . S
C591 C592 1.369 . S
C591 C593 1.419 . S
C591 H595 0.930 . S
C592 C591 1.369 . S
C592 C601 1.429 . S
C593 C591 1.419 . S
C593 C594 1.363 . S
C593 H596 0.929 . S
C594 C593 1.363 . S
C594 C600 1.428 . S
H595 C591 0.930 . S
H596 C593 0.929 . S
S597 N598 1.613 . S
S597 N599 1.610 . S
N598 S597 1.613 . S
N598 C601 1.350 1_556 S
N599 S597 1.610 . S
N599 C600 1.351 1_556 S
C600 C594 1.428 . S
C600 N599 1.351 1_554 S
C600 C601 1.434 . S
C601 C592 1.429 . S
C601 N598 1.350 1_554 S
C601 C600 1.434 . S
C602 C603 1.369 . S
C602 C604 1.419 . S
C602 H606 0.930 . S
C603 C602 1.369 . S
C603 C612 1.429 . S
C604 C602 1.419 . S
C604 C605 1.363 . S
C604 H607 0.929 . S
C605 C604 1.363 . S
C605 C611 1.428 . S
H606 C602 0.930 . S
H607 C604 0.929 . S
S608 N609 1.613 1_554 S
S608 N610 1.610 1_554 S
N609 S608 1.613 1_556 S
N609 C612 1.350 . S
N610 S608 1.610 1_556 S
N610 C611 1.351 . S
C611 C605 1.428 . S
C611 N610 1.351 . S
C611 C612 1.434 . S
C612 C603 1.429 . S
C612 N609 1.350 . S
C612 C611 1.434 . S
C613 C614 1.369 . S
C613 C615 1.419 . S
C613 H617 0.930 . S
C614 C613 1.369 . S
C614 C623 1.429 . S
C615 C613 1.419 . S
C615 C616 1.363 . S
C615 H618 0.929 . S
C616 C615 1.363 . S
C616 C622 1.428 . S
H617 C613 0.930 . S
H618 C615 0.929 . S
S619 N620 1.613 1_554 S
S619 N621 1.610 1_554 S
N620 S619 1.613 1_556 S
N620 C623 1.350 . S
N621 S619 1.610 1_556 S
N621 C622 1.351 . S
C622 C616 1.428 . S
C622 N621 1.351 . S
C622 C623 1.434 . S
C623 C614 1.429 . S
C623 N620 1.350 . S
C623 C622 1.434 . S
C624 C625 1.369 . S
C624 C626 1.419 . S
C624 H628 0.930 . S
C625 C624 1.369 . S
C625 C634 1.429 . S
C626 C624 1.419 . S
C626 C627 1.363 . S
C626 H629 0.929 . S
C627 C626 1.363 . S
C627 C633 1.428 . S
H628 C624 0.930 . S
H629 C626 0.929 . S
S630 N631 1.613 . S
S630 N632 1.610 . S
N631 S630 1.613 . S
N631 C634 1.350 . S
N632 S630 1.610 . S
N632 C633 1.351 . S
C633 C627 1.428 . S
C633 N632 1.351 . S
C633 C634 1.434 . S
C634 C625 1.429 . S
C634 N631 1.350 . S
C634 C633 1.434 . S
C635 C636 1.369 . S
C635 C637 1.419 . S
C635 H639 0.930 . S
C636 C635 1.369 . S
C636 C645 1.429 . S
C637 C635 1.419 . S
C637 C638 1.363 . S
C637 H640 0.929 . S
C638 C637 1.363 . S
C638 C644 1.428 . S
H639 C635 0.930 . S
H640 C637 0.929 . S
S641 N642 1.613 . S
S641 N643 1.610 . S
N642 S641 1.613 . S
N642 C645 1.350 . S
N643 S641 1.610 . S
N643 C644 1.351 . S
C644 C638 1.428 . S
C644 N643 1.351 . S
C644 C645 1.434 . S
C645 C636 1.429 . S
C645 N642 1.350 . S
C645 C644 1.434 . S
C646 C647 1.369 . S
C646 C648 1.419 . S
C646 H650 0.930 . S
C647 C646 1.369 . S
C647 C656 1.429 . S
C648 C646 1.419 . S
C648 C649 1.363 . S
C648 H651 0.929 . S
C649 C648 1.363 . S
C649 C655 1.428 . S
H650 C646 0.930 . S
H651 C648 0.929 . S
S652 N653 1.613 . S
S652 N654 1.610 . S
N653 S652 1.613 . S
N653 C656 1.350 . S
N654 S652 1.610 . S
N654 C655 1.351 . S
C655 C649 1.428 . S
C655 N654 1.351 . S
C655 C656 1.434 . S
C656 C647 1.429 . S
C656 N653 1.350 . S
C656 C655 1.434 . S
C657 C658 1.369 . S
C657 C659 1.419 . S
C657 H661 0.930 . S
C658 C657 1.369 . S
C658 C667 1.429 . S
C659 C657 1.419 . S
C659 C660 1.363 . S
C659 H662 0.929 . S
C660 C659 1.363 . S
C660 C666 1.428 . S
H661 C657 0.930 . S
H662 C659 0.929 . S
S663 N664 1.613 . S
S663 N665 1.610 . S
N664 S663 1.613 . S
N664 C667 1.350 . S
N665 S663 1.610 . S
N665 C666 1.351 . S
C666 C660 1.428 . S
C666 N665 1.351 . S
C666 C667 1.434 . S
C667 C658 1.429 . S
C667 N664 1.350 . S
C667 C666 1.434 . S
C668 C669 1.369 . S
C668 C670 1.419 . S
C668 H672 0.930 . S
C669 C668 1.369 . S
C669 C678 1.429 . S
C670 C668 1.419 . S
C670 C671 1.363 . S
C670 H673 0.929 . S
C671 C670 1.363 . S
C671 C677 1.428 . S
H672 C668 0.930 . S
H673 C670 0.929 . S
S674 N675 1.613 . S
S674 N676 1.610 . S
N675 S674 1.613 . S
N675 C678 1.350 . S
N676 S674 1.610 . S
N676 C677 1.351 . S
C677 C671 1.428 . S
C677 N676 1.351 . S
C677 C678 1.434 . S
C678 C669 1.429 . S
C678 N675 1.350 . S
C678 C677 1.434 . S
C679 C680 1.369 . S
C679 C681 1.419 . S
C679 H683 0.930 . S
C680 C679 1.369 . S
C680 C689 1.429 . S
C681 C679 1.419 . S
C681 C682 1.363 . S
C681 H684 0.929 . S
C682 C681 1.363 . S
C682 C688 1.428 . S
H683 C679 0.930 . S
H684 C681 0.929 . S
S685 N686 1.613 . S
S685 N687 1.610 . S
N686 S685 1.613 . S
N686 C689 1.350 1_554 S
N687 S685 1.610 . S
N687 C688 1.351 1_554 S
C688 C682 1.428 . S
C688 N687 1.351 1_556 S
C688 C689 1.434 . S
C689 C680 1.429 . S
C689 N686 1.350 1_556 S
C689 C688 1.434 . S
C690 C691 1.369 . S
C690 C692 1.419 . S
C690 H694 0.930 . S
C691 C690 1.369 . S
C691 C700 1.429 . S
C692 C690 1.419 . S
C692 C693 1.363 . S
C692 H695 0.929 . S
C693 C692 1.363 . S
C693 C699 1.428 . S
H694 C690 0.930 . S
H695 C692 0.929 . S
S696 N697 1.613 . S
S696 N698 1.610 . S
N697 S696 1.613 . S
N697 C700 1.350 . S
N698 S696 1.610 . S
N698 C699 1.351 . S
C699 C693 1.428 . S
C699 N698 1.351 . S
C699 C700 1.434 . S
C700 C691 1.429 . S
C700 N697 1.350 . S
C700 C699 1.434 . S
C701 C702 1.369 . S
C701 C703 1.419 . S
C701 H705 0.930 . S
C702 C701 1.369 . S
C702 C711 1.429 . S
C703 C701 1.419 . S
C703 C704 1.363 . S
C703 H706 0.929 . S
C704 C703 1.363 . S
C704 C710 1.428 . S
H705 C701 0.930 . S
H706 C703 0.929 . S
S707 N708 1.626 . S
S707 N709 1.611 . S
N708 S707 1.626 . S
N708 C711 1.350 . S
N709 S707 1.611 . S
N709 C710 1.351 . S
C710 C704 1.428 . S
C710 N709 1.351 . S
C710 C711 1.434 . S
C711 C702 1.429 . S
C711 N708 1.350 . S
C711 C710 1.434 . S
C712 C713 1.369 . S
C712 C714 1.419 . S
C712 H716 0.930 . S
C713 C712 1.369 . S
C713 C722 1.429 . S
C714 C712 1.419 . S
C714 C715 1.363 . S
C714 H717 0.929 . S
C715 C714 1.363 . S
C715 C721 1.428 . S
H716 C712 0.930 . S
H717 C714 0.929 . S
S718 N719 1.613 . S
S718 N720 1.610 . S
N719 S718 1.613 . S
N719 C722 1.350 . S
N720 S718 1.610 . S
N720 C721 1.351 . S
C721 C715 1.428 . S
C721 N720 1.351 . S
C721 C722 1.434 . S
C722 C713 1.429 . S
C722 N719 1.350 . S
C722 C721 1.434 . S
C723 C724 1.369 . S
C723 C725 1.419 . S
C723 H727 0.935 . S
C724 C723 1.369 . S
C724 C733 1.429 . S
C725 C723 1.419 . S
C725 C726 1.363 . S
C725 H728 0.929 1_554 S
C726 C725 1.363 . S
C726 C732 1.428 . S
H727 C723 0.935 . S
H728 C725 0.929 1_556 S
S729 N730 1.613 . S
S729 N731 1.610 . S
N730 S729 1.613 . S
N730 C733 1.350 . S
N731 S729 1.610 . S
N731 C732 1.351 . S
C732 C726 1.428 . S
C732 N731 1.351 . S
C732 C733 1.434 . S
C733 C724 1.429 . S
C733 N730 1.350 . S
C733 C732 1.434 . S
C734 C735 1.369 . S
C734 C736 1.419 . S
C734 H738 0.930 . S
C735 C734 1.369 . S
C735 C744 1.429 . S
C736 C734 1.419 . S
C736 C737 1.363 . S
C736 H739 0.929 . S
C737 C736 1.363 . S
C737 C743 1.428 . S
H738 C734 0.930 . S
H739 C736 0.929 . S
S740 N741 1.613 . S
S740 N742 1.610 . S
N741 S740 1.613 . S
N741 C744 1.350 . S
N742 S740 1.610 . S
N742 C743 1.351 . S
C743 C737 1.428 . S
C743 N742 1.351 . S
C743 C744 1.434 . S
C744 C735 1.429 . S
C744 N741 1.350 . S
C744 C743 1.434 . S
C745 C746 1.369 . S
C745 C747 1.419 . S
C745 H749 0.930 . S
C746 C745 1.369 . S
C746 C755 1.429 . S
C747 C745 1.419 . S
C747 C748 1.363 . S
C747 H750 0.929 . S
C748 C747 1.363 . S
C748 C754 1.428 . S
H749 C745 0.930 . S
H750 C747 0.929 . S
S751 N752 1.613 . S
S751 N753 1.610 . S
N752 S751 1.613 . S
N752 C755 1.350 . S
N753 S751 1.610 . S
N753 C754 1.351 . S
C754 C748 1.428 . S
C754 N753 1.351 . S
C754 C755 1.434 . S
C755 C746 1.429 . S
C755 N752 1.350 . S
C755 C754 1.434 . S
C756 C757 1.369 . S
C756 C758 1.419 . S
C756 H760 0.930 . S
C757 C756 1.369 . S
C757 C766 1.429 . S
C758 C756 1.419 . S
C758 C759 1.363 . S
C758 H761 0.929 . S
C759 C758 1.363 . S
C759 C765 1.428 . S
H760 C756 0.930 . S
H761 C758 0.929 . S
S762 N763 1.613 . S
S762 N764 1.610 . S
N763 S762 1.613 . S
N763 C766 1.350 . S
N764 S762 1.610 . S
N764 C765 1.351 . S
C765 C759 1.428 . S
C765 N764 1.351 . S
C765 C766 1.434 . S
C766 C757 1.429 . S
C766 N763 1.350 . S
C766 C765 1.434 . S
C767 C768 1.369 . S
C767 C769 1.419 . S
C767 H771 0.930 . S
C768 C767 1.369 . S
C768 C777 1.429 . S
C769 C767 1.419 . S
C769 C770 1.363 . S
C769 H772 0.929 . S
C770 C769 1.363 . S
C770 C776 1.428 . S
H771 C767 0.930 . S
H772 C769 0.929 . S
S773 N774 1.613 . S
S773 N775 1.610 . S
N774 S773 1.613 . S
N774 C777 1.350 . S
N775 S773 1.610 . S
N775 C776 1.351 . S
C776 C770 1.428 . S
C776 N775 1.351 . S
C776 C777 1.434 . S
C777 C768 1.429 . S
C777 N774 1.350 . S
C777 C776 1.434 . S
C778 C779 1.369 . S
C778 C780 1.419 . S
C778 H782 0.930 . S
C779 C778 1.369 . S
C779 C788 1.429 . S
C780 C778 1.419 . S
C780 C781 1.363 . S
C780 H783 0.929 . S
C781 C780 1.363 . S
C781 C787 1.428 . S
H782 C778 0.930 . S
H783 C780 0.929 . S
S784 N785 1.613 . S
S784 N786 1.610 . S
N785 S784 1.613 . S
N785 C788 1.350 . S
N786 S784 1.610 . S
N786 C787 1.351 . S
C787 C781 1.428 . S
C787 N786 1.351 . S
C787 C788 1.434 . S
C788 C779 1.429 . S
C788 N785 1.350 . S
C788 C787 1.434 . S
C789 C790 1.369 . S
C789 C791 1.419 . S
C789 H793 0.930 . S
C790 C789 1.369 . S
C790 C799 1.429 . S
C791 C789 1.419 . S
C791 C792 1.363 . S
C791 H794 0.929 . S
C792 C791 1.363 . S
C792 C798 1.428 . S
H793 C789 0.930 . S
H794 C791 0.929 . S
S795 N796 1.613 . S
S795 N797 1.610 . S
N796 S795 1.613 . S
N796 C799 1.350 . S
N797 S795 1.610 . S
N797 C798 1.351 . S
C798 C792 1.428 . S
C798 N797 1.351 . S
C798 C799 1.434 . S
C799 C790 1.429 . S
C799 N796 1.350 . S
C799 C798 1.434 . S
C800 C801 1.369 . S
C800 C802 1.419 . S
C800 H804 0.930 . S
C801 C800 1.369 . S
C801 C810 1.429 . S
C802 C800 1.419 . S
C802 C803 1.363 . S
C802 H805 0.929 . S
C803 C802 1.363 . S
C803 C809 1.428 . S
H804 C800 0.930 . S
H805 C802 0.929 . S
S806 N807 1.613 . S
S806 N808 1.610 . S
N807 S806 1.613 . S
N807 C810 1.350 . S
N808 S806 1.610 . S
N808 C809 1.351 . S
C809 C803 1.428 . S
C809 N808 1.351 . S
C809 C810 1.434 . S
C810 C801 1.429 . S
C810 N807 1.350 . S
C810 C809 1.434 . S
C811 C812 1.369 . S
C811 C813 1.419 . S
C811 H815 0.930 . S
C812 C811 1.369 . S
C812 C821 1.429 . S
C813 C811 1.419 . S
C813 C814 1.363 . S
C813 H816 0.929 . S
C814 C813 1.363 . S
C814 C820 1.428 . S
H815 C811 0.930 . S
H816 C813 0.929 . S
S817 N818 1.613 . S
S817 N819 1.610 . S
N818 S817 1.613 . S
N818 C821 1.350 . S
N819 S817 1.610 . S
N819 C820 1.351 . S
C820 C814 1.428 . S
C820 N819 1.351 . S
C820 C821 1.434 . S
C821 C812 1.429 . S
C821 N818 1.350 . S
C821 C820 1.434 . S
C822 C823 1.369 . S
C822 C824 1.419 . S
C822 H826 0.930 . S
C823 C822 1.369 . S
C823 C832 1.429 . S
C824 C822 1.419 . S
C824 C825 1.363 . S
C824 H827 0.929 . S
C825 C824 1.363 . S
C825 C831 1.428 . S
H826 C822 0.930 . S
H827 C824 0.929 . S
S828 N829 1.613 . S
S828 N830 1.610 . S
N829 S828 1.613 . S
N829 C832 1.350 . S
N830 S828 1.610 . S
N830 C831 1.351 . S
C831 C825 1.428 . S
C831 N830 1.351 . S
C831 C832 1.434 . S
C832 C823 1.429 . S
C832 N829 1.350 . S
C832 C831 1.434 . S
C833 C834 1.369 . S
C833 C835 1.419 . S
C833 H837 0.930 . S
C834 C833 1.369 . S
C834 C843 1.429 . S
C835 C833 1.419 . S
C835 C836 1.363 . S
C835 H838 0.929 . S
C836 C835 1.363 . S
C836 C842 1.428 . S
H837 C833 0.930 . S
H838 C835 0.929 . S
S839 N840 1.613 . S
S839 N841 1.610 . S
N840 S839 1.613 . S
N840 C843 1.350 . S
N841 S839 1.610 . S
N841 C842 1.351 . S
C842 C836 1.428 . S
C842 N841 1.351 . S
C842 C843 1.434 . S
C843 C834 1.429 . S
C843 N840 1.350 . S
C843 C842 1.434 . S
C844 C845 1.369 . S
C844 C846 1.419 . S
C844 H848 0.930 . S
C845 C844 1.369 . S
C845 C854 1.429 . S
C846 C844 1.419 . S
C846 C847 1.363 . S
C846 H849 0.929 . S
C847 C846 1.363 . S
C847 C853 1.428 . S
H848 C844 0.930 . S
H849 C846 0.929 . S
S850 N851 1.613 . S
S850 N852 1.610 . S
N851 S850 1.613 . S
N851 C854 1.350 . S
N852 S850 1.610 . S
N852 C853 1.351 . S
C853 C847 1.428 . S
C853 N852 1.351 . S
C853 C854 1.434 . S
C854 C845 1.429 . S
C854 N851 1.350 . S
C854 C853 1.434 . S
C855 C856 1.369 . S
C855 C857 1.419 . S
C855 H859 0.930 . S
C856 C855 1.369 . S
C856 C865 1.429 . S
C857 C855 1.419 . S
C857 C858 1.363 . S
C857 H860 0.929 . S
C858 C857 1.363 . S
C858 C864 1.428 . S
H859 C855 0.930 . S
H860 C857 0.929 . S
S861 N862 1.613 . S
S861 N863 1.610 . S
N862 S861 1.613 . S
N862 C865 1.350 . S
N863 S861 1.610 . S
N863 C864 1.351 . S
C864 C858 1.428 . S
C864 N863 1.351 . S
C864 C865 1.434 . S
C865 C856 1.429 . S
C865 N862 1.350 . S
C865 C864 1.434 . S
C866 C867 1.369 . S
C866 C868 1.419 . S
C866 H870 0.930 . S
C867 C866 1.369 . S
C867 C876 1.429 . S
C868 C866 1.419 . S
C868 C869 1.363 . S
C868 H871 0.929 . S
C869 C868 1.363 . S
C869 C875 1.428 . S
H870 C866 0.930 . S
H871 C868 0.929 . S
S872 N873 1.613 . S
S872 N874 1.610 . S
N873 S872 1.613 . S
N873 C876 1.350 . S
N874 S872 1.610 . S
N874 C875 1.351 . S
C875 C869 1.428 . S
C875 N874 1.351 . S
C875 C876 1.434 . S
C876 C867 1.429 . S
C876 N873 1.350 . S
C876 C875 1.434 . S
C877 C878 1.369 . S
C877 C879 1.419 . S
C877 H881 0.930 . S
C878 C877 1.369 . S
C878 C887 1.429 . S
C879 C877 1.419 . S
C879 C880 1.363 . S
C879 H882 0.929 . S
C880 C879 1.363 . S
C880 C886 1.428 . S
H881 C877 0.930 . S
H882 C879 0.929 . S
S883 N884 1.613 . S
S883 N885 1.610 . S
N884 S883 1.613 . S
N884 C887 1.350 . S
N885 S883 1.610 . S
N885 C886 1.351 . S
C886 C880 1.428 . S
C886 N885 1.351 . S
C886 C887 1.434 . S
C887 C878 1.429 . S
C887 N884 1.350 . S
C887 C886 1.434 . S
C888 C889 1.369 . S
C888 C890 1.419 . S
C888 H892 0.930 . S
C889 C888 1.369 . S
C889 C898 1.429 . S
C890 C888 1.419 . S
C890 C891 1.363 . S
C890 H893 0.929 . S
C891 C890 1.363 . S
C891 C897 1.428 . S
H892 C888 0.930 . S
H893 C890 0.929 . S
S894 N895 1.613 . S
S894 N896 1.610 . S
N895 S894 1.613 . S
N895 C898 1.350 . S
N896 S894 1.610 . S
N896 C897 1.351 . S
C897 C891 1.428 . S
C897 N896 1.351 . S
C897 C898 1.434 . S
C898 C889 1.429 . S
C898 N895 1.350 . S
C898 C897 1.434 . S
C899 C900 1.369 . S
C899 C901 1.419 . S
C899 H903 0.930 . S
C900 C899 1.369 . S
C900 C909 1.429 . S
C901 C899 1.419 . S
C901 C902 1.363 . S
C901 H904 0.929 . S
C902 C901 1.363 . S
C902 C908 1.428 . S
H903 C899 0.930 . S
H904 C901 0.929 . S
S905 N906 1.613 . S
S905 N907 1.610 . S
N906 S905 1.613 . S
N906 C909 1.350 . S
N907 S905 1.610 . S
N907 C908 1.351 . S
C908 C902 1.428 . S
C908 N907 1.351 . S
C908 C909 1.434 . S
C909 C900 1.429 . S
C909 N906 1.350 . S
C909 C908 1.434 . S
C910 C911 1.369 . S
C910 C912 1.419 . S
C910 H914 0.930 . S
C911 C910 1.369 . S
C911 C920 1.429 . S
C912 C910 1.419 . S
C912 C913 1.363 . S
C912 H915 0.929 . S
C913 C912 1.363 . S
C913 C919 1.428 . S
H914 C910 0.930 . S
H915 C912 0.929 . S
S916 N917 1.613 . S
S916 N918 1.610 . S
N917 S916 1.613 . S
N917 C920 1.350 . S
N918 S916 1.610 . S
N918 C919 1.351 . S
C919 C913 1.428 . S
C919 N918 1.351 . S
C919 C920 1.434 . S
C920 C911 1.429 . S
C920 N917 1.350 . S
C920 C919 1.434 . S
C921 C922 1.369 . S
C921 C923 1.419 . S
C921 H925 0.930 . S
C922 C921 1.369 . S
C922 C931 1.429 . S
C923 C921 1.419 . S
C923 C924 1.363 . S
C923 H926 0.929 . S
C924 C923 1.363 . S
C924 C930 1.428 . S
H925 C921 0.930 . S
H926 C923 0.929 . S
S927 N928 1.613 . S
S927 N929 1.610 . S
N928 S927 1.613 . S
N928 C931 1.350 . S
N929 S927 1.610 . S
N929 C930 1.351 . S
C930 C924 1.428 . S
C930 N929 1.351 . S
C930 C931 1.434 . S
C931 C922 1.429 . S
C931 N928 1.350 . S
C931 C930 1.434 . S
C932 C933 1.369 . S
C932 C934 1.419 . S
C932 H936 0.930 . S
C933 C932 1.369 . S
C933 C942 1.429 . S
C934 C932 1.419 . S
C934 C935 1.363 . S
C934 H937 0.929 . S
C935 C934 1.363 . S
C935 C941 1.428 . S
H936 C932 0.930 . S
H937 C934 0.929 . S
S938 N939 1.613 . S
S938 N940 1.610 . S
N939 S938 1.613 . S
N939 C942 1.350 . S
N940 S938 1.610 . S
N940 C941 1.351 . S
C941 C935 1.428 . S
C941 N940 1.351 . S
C941 C942 1.434 . S
C942 C933 1.429 . S
C942 N939 1.350 . S
C942 C941 1.434 . S
C943 C944 1.369 . S
C943 C945 1.419 . S
C943 H947 0.930 . S
C944 C943 1.369 . S
C944 C953 1.429 . S
C945 C943 1.419 . S
C945 C946 1.363 . S
C945 H948 0.929 . S
C946 C945 1.363 . S
C946 C952 1.428 . S
H947 C943 0.930 . S
H948 C945 0.929 . S
S949 N950 1.613 . S
S949 N951 1.610 . S
N950 S949 1.613 . S
N950 C953 1.350 . S
N951 S949 1.610 . S
N951 C952 1.351 . S
C952 C946 1.428 . S
C952 N951 1.351 . S
C952 C953 1.434 . S
C953 C944 1.429 . S
C953 N950 1.350 . S
C953 C952 1.434 . S
C954 C955 1.369 . S
C954 C956 1.419 . S
C954 H958 0.930 . S
C955 C954 1.369 . S
C955 C964 1.429 . S
C956 C954 1.419 . S
C956 C957 1.363 . S
C956 H959 0.929 . S
C957 C956 1.363 . S
C957 C963 1.428 . S
H958 C954 0.930 . S
H959 C956 0.929 . S
S960 N961 1.613 . S
S960 N962 1.610 . S
N961 S960 1.613 . S
N961 C964 1.350 . S
N962 S960 1.610 . S
N962 C963 1.351 . S
C963 C957 1.428 . S
C963 N962 1.351 . S
C963 C964 1.434 . S
C964 C955 1.429 . S
C964 N961 1.350 . S
C964 C963 1.434 . S
C965 C966 1.369 . S
C965 C967 1.419 . S
C965 H969 0.930 . S
C966 C965 1.369 . S
C966 C975 1.429 . S
C967 C965 1.419 . S
C967 C968 1.363 . S
C967 H970 0.929 . S
C968 C967 1.363 . S
C968 C974 1.428 . S
H969 C965 0.930 . S
H970 C967 0.929 . S
S971 N972 1.613 . S
S971 N973 1.610 . S
N972 S971 1.613 . S
N972 C975 1.350 . S
N973 S971 1.610 . S
N973 C974 1.351 . S
C974 C968 1.428 . S
C974 N973 1.351 . S
C974 C975 1.434 . S
C975 C966 1.429 . S
C975 N972 1.350 . S
C975 C974 1.434 . S
C976 C977 1.369 . S
C976 C978 1.419 . S
C976 H980 0.930 . S
C977 C976 1.369 . S
C977 C986 1.429 . S
C978 C976 1.419 . S
C978 C979 1.363 . S
C978 H981 0.929 . S
C979 C978 1.363 . S
C979 C985 1.428 . S
H980 C976 0.930 . S
H981 C978 0.929 . S
S982 N983 1.613 . S
S982 N984 1.610 . S
N983 S982 1.613 . S
N983 C986 1.350 . S
N984 S982 1.610 . S
N984 C985 1.351 . S
C985 C979 1.428 . S
C985 N984 1.351 . S
C985 C986 1.434 . S
C986 C977 1.429 . S
C986 N983 1.350 . S
C986 C985 1.434 . S
C987 C988 1.369 . S
C987 C989 1.419 . S
C987 H991 0.930 . S
C988 C987 1.369 . S
C988 C997 1.429 . S
C989 C987 1.419 . S
C989 C990 1.363 . S
C989 H992 0.929 . S
C990 C989 1.363 . S
C990 C996 1.428 . S
H991 C987 0.930 . S
H992 C989 0.929 . S
S993 N994 1.613 . S
S993 N995 1.610 . S
N994 S993 1.613 . S
N994 C997 1.350 . S
N995 S993 1.610 . S
N995 C996 1.351 . S
C996 C990 1.428 . S
C996 N995 1.351 . S
C996 C997 1.434 . S
C997 C988 1.429 . S
C997 N994 1.350 . S
C997 C996 1.434 . S
C473 C299 0.692 . S
C471 C4 0.418 . S
C484 C300 1.812 . S
C482 C63 1.958 . S
C495 C294 1.194 . S
C493 C72 1.227 . S
C504 C102 1.305 . S
C506 C293 1.288 . S
C515 C136 1.962 . S
C517 C296 1.804 . S
C528 C298 1.191 . S
C526 C183 1.225 . S
C537 C233 1.309 . S
C539 C297 1.288 . S
C548 C251 0.433 . S
C550 C295 0.681 . S
C561 C330 1.578 . S
C559 C29 1.575 . S
C570 C42 2.205 . S
C572 C361 2.156 . S
C583 C329 1.571 . S
C581 C97 1.609 . S
C594 C364 1.378 . S
C592 C115 1.373 . S
C603 C149 1.389 . S
C605 C327 1.454 . S
C616 C359 1.575 . S
C614 C187 1.598 . S
C625 C212 2.052 . S
C627 C332 2.072 . S
C636 C255 1.555 . S
C638 C366 1.467 . S
C647 C8 1.554 . S
C649 C362 1.461 . S
C658 C153 2.206 . S
C660 C365 2.154 . S
C671 C333 1.567 . S
C669 C170 1.612 . S
C682 C360 1.380 . S
C680 C208 1.377 . S
C691 C238 1.579 . S
C693 C326 1.581 . S
C702 C76 1.597 . S
C704 C363 1.575 . S
C715 C328 2.070 . S
C713 C119 2.047 . S
C724 C38 1.380 . S
C726 C331 1.456 . S
C735 C242 0.408 . S
C737 C398 0.639 . S
C746 C165 1.572 . S
C748 C399 1.442 . S
C759 C393 1.188 . S
C757 C174 1.209 . S
C770 C392 1.650 . S
C768 C204 1.678 . S
C779 C34 1.572 . S
C781 C395 1.440 . S
C792 C397 1.182 . S
C790 C81 1.215 . S
C801 C131 1.676 . S
C803 C396 1.650 . S
C812 C13 0.406 . S
C814 C394 0.645 . S
C823 C267 1.745 . S
C825 C432 1.650 . S
C836 C464 2.081 . S
C834 C144 2.057 . S
C845 C199 1.399 . S
C847 C425 1.391 . S
C856 C217 1.453 . S
C858 C459 1.541 . S
C869 C430 1.359 . S
C867 C47 1.330 . S
C878 C85 1.890 . S
C880 C461 1.834 . S
C891 C427 2.171 . S
C889 C110 2.209 . S
C902 C462 1.442 . S
C900 C17 1.433 . S
C913 C458 1.441 . S
C911 C246 1.435 . S
C922 C51 2.056 . S
C924 C460 2.081 . S
C933 C68 1.402 . S
C935 C429 1.392 . S
C946 C463 1.541 . S
C944 C106 1.454 . S
C955 C0 1.745 . S
C957 C428 1.648 . S
C966 C178 1.890 . S
C968 C465 1.833 . S
C979 C431 2.176 . S
C977 C221 2.214 . S
C990 C426 1.359 . S
C988 C140 1.328 . S
