# Generated by pormake.
# Topology gar, (4,6)-cn, num edge types: 1
# Building blocks:
#     Node 0, Type 0, BuildingBlock: AZAVOO_clean_sbu_0, # of connection points: 4
#     Node 1, Type 0, BuildingBlock: AZAVOO_clean_sbu_0, # of connection points: 4
#     Node 2, Type 0, BuildingBlock: AZAVOO_clean_sbu_0, # of connection points: 4
#     Node 3, Type 0, BuildingBlock: AZAVOO_clean_sbu_0, # of connection points: 4
#     Node 4, Type 0, BuildingBlock: AZAVOO_clean_sbu_0, # of connection points: 4
#     Node 5, Type 0, BuildingBlock: AZAVOO_clean_sbu_0, # of connection points: 4
#     Node 6, Type 0, BuildingBlock: AZAVOO_clean_sbu_0, # of connection points: 4
#     Node 7, Type 0, BuildingBlock: AZAVOO_clean_sbu_0, # of connection points: 4
#     Node 8, Type 0, BuildingBlock: AZAVOO_clean_sbu_0, # of connection points: 4
#     Node 9, Type 0, BuildingBlock: AZAVOO_clean_sbu_0, # of connection points: 4
#     Node 10, Type 0, BuildingBlock: AZAVOO_clean_sbu_0, # of connection points: 4
#     Node 11, Type 0, BuildingBlock: AZAVOO_clean_sbu_0, # of connection points: 4
#     Node 12, Type 0, BuildingBlock: AZAVOO_clean_sbu_0, # of connection points: 4
#     Node 13, Type 0, BuildingBlock: AZAVOO_clean_sbu_0, # of connection points: 4
#     Node 14, Type 0, BuildingBlock: AZAVOO_clean_sbu_0, # of connection points: 4
#     Node 15, Type 0, BuildingBlock: AZAVOO_clean_sbu_0, # of connection points: 4
#     Node 16, Type 0, BuildingBlock: AZAVOO_clean_sbu_0, # of connection points: 4
#     Node 17, Type 0, BuildingBlock: AZAVOO_clean_sbu_0, # of connection points: 4
#     Node 18, Type 0, BuildingBlock: AZAVOO_clean_sbu_0, # of connection points: 4
#     Node 19, Type 0, BuildingBlock: AZAVOO_clean_sbu_0, # of connection points: 4
#     Node 20, Type 0, BuildingBlock: AZAVOO_clean_sbu_0, # of connection points: 4
#     Node 21, Type 0, BuildingBlock: AZAVOO_clean_sbu_0, # of connection points: 4
#     Node 22, Type 0, BuildingBlock: AZAVOO_clean_sbu_0, # of connection points: 4
#     Node 23, Type 0, BuildingBlock: AZAVOO_clean_sbu_0, # of connection points: 4
#     Node 24, Type 1, BuildingBlock: BETDAH_clean_sbu_0, # of connection points: 6
#     Node 25, Type 1, BuildingBlock: BETDAH_clean_sbu_0, # of connection points: 6
#     Node 26, Type 1, BuildingBlock: BETDAH_clean_sbu_0, # of connection points: 6
#     Node 27, Type 1, BuildingBlock: BETDAH_clean_sbu_0, # of connection points: 6
#     Node 28, Type 1, BuildingBlock: BETDAH_clean_sbu_0, # of connection points: 6
#     Node 29, Type 1, BuildingBlock: BETDAH_clean_sbu_0, # of connection points: 6
#     Node 30, Type 1, BuildingBlock: BETDAH_clean_sbu_0, # of connection points: 6
#     Node 31, Type 1, BuildingBlock: BETDAH_clean_sbu_0, # of connection points: 6
#     Node 32, Type 1, BuildingBlock: BETDAH_clean_sbu_0, # of connection points: 6
#     Node 33, Type 1, BuildingBlock: BETDAH_clean_sbu_0, # of connection points: 6
#     Node 34, Type 1, BuildingBlock: BETDAH_clean_sbu_0, # of connection points: 6
#     Node 35, Type 1, BuildingBlock: BETDAH_clean_sbu_0, # of connection points: 6
#     Node 36, Type 1, BuildingBlock: BETDAH_clean_sbu_0, # of connection points: 6
#     Node 37, Type 1, BuildingBlock: BETDAH_clean_sbu_0, # of connection points: 6
#     Node 38, Type 1, BuildingBlock: BETDAH_clean_sbu_0, # of connection points: 6
#     Node 39, Type 1, BuildingBlock: BETDAH_clean_sbu_0, # of connection points: 6
#     Edge 40, Type (0, 1), BuildingBlock: XUDNAN_clean_linker_2, # of connection points: 2
#     Edge 41, Type (0, 1), BuildingBlock: XUDNAN_clean_linker_2, # of connection points: 2
#     Edge 42, Type (0, 1), BuildingBlock: XUDNAN_clean_linker_2, # of connection points: 2
#     Edge 43, Type (0, 1), BuildingBlock: XUDNAN_clean_linker_2, # of connection points: 2
#     Edge 44, Type (0, 1), BuildingBlock: XUDNAN_clean_linker_2, # of connection points: 2
#     Edge 45, Type (0, 1), BuildingBlock: XUDNAN_clean_linker_2, # of connection points: 2
#     Edge 46, Type (0, 1), BuildingBlock: XUDNAN_clean_linker_2, # of connection points: 2
#     Edge 47, Type (0, 1), BuildingBlock: XUDNAN_clean_linker_2, # of connection points: 2
#     Edge 48, Type (0, 1), BuildingBlock: XUDNAN_clean_linker_2, # of connection points: 2
#     Edge 49, Type (0, 1), BuildingBlock: XUDNAN_clean_linker_2, # of connection points: 2
#     Edge 50, Type (0, 1), BuildingBlock: XUDNAN_clean_linker_2, # of connection points: 2
#     Edge 51, Type (0, 1), BuildingBlock: XUDNAN_clean_linker_2, # of connection points: 2
#     Edge 52, Type (0, 1), BuildingBlock: XUDNAN_clean_linker_2, # of connection points: 2
#     Edge 53, Type (0, 1), BuildingBlock: XUDNAN_clean_linker_2, # of connection points: 2
#     Edge 54, Type (0, 1), BuildingBlock: XUDNAN_clean_linker_2, # of connection points: 2
#     Edge 55, Type (0, 1), BuildingBlock: XUDNAN_clean_linker_2, # of connection points: 2
#     Edge 56, Type (0, 1), BuildingBlock: XUDNAN_clean_linker_2, # of connection points: 2
#     Edge 57, Type (0, 1), BuildingBlock: XUDNAN_clean_linker_2, # of connection points: 2
#     Edge 58, Type (0, 1), BuildingBlock: XUDNAN_clean_linker_2, # of connection points: 2
#     Edge 59, Type (0, 1), BuildingBlock: XUDNAN_clean_linker_2, # of connection points: 2
#     Edge 60, Type (0, 1), BuildingBlock: XUDNAN_clean_linker_2, # of connection points: 2
#     Edge 61, Type (0, 1), BuildingBlock: XUDNAN_clean_linker_2, # of connection points: 2
#     Edge 62, Type (0, 1), BuildingBlock: XUDNAN_clean_linker_2, # of connection points: 2
#     Edge 63, Type (0, 1), BuildingBlock: XUDNAN_clean_linker_2, # of connection points: 2
#     Edge 64, Type (0, 1), BuildingBlock: XUDNAN_clean_linker_2, # of connection points: 2
#     Edge 65, Type (0, 1), BuildingBlock: XUDNAN_clean_linker_2, # of connection points: 2
#     Edge 66, Type (0, 1), BuildingBlock: XUDNAN_clean_linker_2, # of connection points: 2
#     Edge 67, Type (0, 1), BuildingBlock: XUDNAN_clean_linker_2, # of connection points: 2
#     Edge 68, Type (0, 1), BuildingBlock: XUDNAN_clean_linker_2, # of connection points: 2
#     Edge 69, Type (0, 1), BuildingBlock: XUDNAN_clean_linker_2, # of connection points: 2
#     Edge 70, Type (0, 1), BuildingBlock: XUDNAN_clean_linker_2, # of connection points: 2
#     Edge 71, Type (0, 1), BuildingBlock: XUDNAN_clean_linker_2, # of connection points: 2
#     Edge 72, Type (0, 1), BuildingBlock: XUDNAN_clean_linker_2, # of connection points: 2
#     Edge 73, Type (0, 1), BuildingBlock: XUDNAN_clean_linker_2, # of connection points: 2
#     Edge 74, Type (0, 1), BuildingBlock: XUDNAN_clean_linker_2, # of connection points: 2
#     Edge 75, Type (0, 1), BuildingBlock: XUDNAN_clean_linker_2, # of connection points: 2
#     Edge 76, Type (0, 1), BuildingBlock: XUDNAN_clean_linker_2, # of connection points: 2
#     Edge 77, Type (0, 1), BuildingBlock: XUDNAN_clean_linker_2, # of connection points: 2
#     Edge 78, Type (0, 1), BuildingBlock: XUDNAN_clean_linker_2, # of connection points: 2
#     Edge 79, Type (0, 1), BuildingBlock: XUDNAN_clean_linker_2, # of connection points: 2
#     Edge 80, Type (0, 1), BuildingBlock: XUDNAN_clean_linker_2, # of connection points: 2
#     Edge 81, Type (0, 1), BuildingBlock: XUDNAN_clean_linker_2, # of connection points: 2
#     Edge 82, Type (0, 1), BuildingBlock: XUDNAN_clean_linker_2, # of connection points: 2
#     Edge 83, Type (0, 1), BuildingBlock: XUDNAN_clean_linker_2, # of connection points: 2
#     Edge 84, Type (0, 1), BuildingBlock: XUDNAN_clean_linker_2, # of connection points: 2
#     Edge 85, Type (0, 1), BuildingBlock: XUDNAN_clean_linker_2, # of connection points: 2
#     Edge 86, Type (0, 1), BuildingBlock: XUDNAN_clean_linker_2, # of connection points: 2
#     Edge 87, Type (0, 1), BuildingBlock: XUDNAN_clean_linker_2, # of connection points: 2
#     Edge 88, Type (0, 1), BuildingBlock: XUDNAN_clean_linker_2, # of connection points: 2
#     Edge 89, Type (0, 1), BuildingBlock: XUDNAN_clean_linker_2, # of connection points: 2
#     Edge 90, Type (0, 1), BuildingBlock: XUDNAN_clean_linker_2, # of connection points: 2
#     Edge 91, Type (0, 1), BuildingBlock: XUDNAN_clean_linker_2, # of connection points: 2
#     Edge 92, Type (0, 1), BuildingBlock: XUDNAN_clean_linker_2, # of connection points: 2
#     Edge 93, Type (0, 1), BuildingBlock: XUDNAN_clean_linker_2, # of connection points: 2
#     Edge 94, Type (0, 1), BuildingBlock: XUDNAN_clean_linker_2, # of connection points: 2
#     Edge 95, Type (0, 1), BuildingBlock: XUDNAN_clean_linker_2, # of connection points: 2
#     Edge 96, Type (0, 1), BuildingBlock: XUDNAN_clean_linker_2, # of connection points: 2
#     Edge 97, Type (0, 1), BuildingBlock: XUDNAN_clean_linker_2, # of connection points: 2
#     Edge 98, Type (0, 1), BuildingBlock: XUDNAN_clean_linker_2, # of connection points: 2
#     Edge 99, Type (0, 1), BuildingBlock: XUDNAN_clean_linker_2, # of connection points: 2
#     Edge 100, Type (0, 1), BuildingBlock: XUDNAN_clean_linker_2, # of connection points: 2
#     Edge 101, Type (0, 1), BuildingBlock: XUDNAN_clean_linker_2, # of connection points: 2
#     Edge 102, Type (0, 1), BuildingBlock: XUDNAN_clean_linker_2, # of connection points: 2
#     Edge 103, Type (0, 1), BuildingBlock: XUDNAN_clean_linker_2, # of connection points: 2
#     Edge 104, Type (0, 1), BuildingBlock: XUDNAN_clean_linker_2, # of connection points: 2
#     Edge 105, Type (0, 1), BuildingBlock: XUDNAN_clean_linker_2, # of connection points: 2
#     Edge 106, Type (0, 1), BuildingBlock: XUDNAN_clean_linker_2, # of connection points: 2
#     Edge 107, Type (0, 1), BuildingBlock: XUDNAN_clean_linker_2, # of connection points: 2
#     Edge 108, Type (0, 1), BuildingBlock: XUDNAN_clean_linker_2, # of connection points: 2
#     Edge 109, Type (0, 1), BuildingBlock: XUDNAN_clean_linker_2, # of connection points: 2
#     Edge 110, Type (0, 1), BuildingBlock: XUDNAN_clean_linker_2, # of connection points: 2
#     Edge 111, Type (0, 1), BuildingBlock: XUDNAN_clean_linker_2, # of connection points: 2
#     Edge 112, Type (0, 1), BuildingBlock: XUDNAN_clean_linker_2, # of connection points: 2
#     Edge 113, Type (0, 1), BuildingBlock: XUDNAN_clean_linker_2, # of connection points: 2
#     Edge 114, Type (0, 1), BuildingBlock: XUDNAN_clean_linker_2, # of connection points: 2
#     Edge 115, Type (0, 1), BuildingBlock: XUDNAN_clean_linker_2, # of connection points: 2
#     Edge 116, Type (0, 1), BuildingBlock: XUDNAN_clean_linker_2, # of connection points: 2
#     Edge 117, Type (0, 1), BuildingBlock: XUDNAN_clean_linker_2, # of connection points: 2
#     Edge 118, Type (0, 1), BuildingBlock: XUDNAN_clean_linker_2, # of connection points: 2
#     Edge 119, Type (0, 1), BuildingBlock: XUDNAN_clean_linker_2, # of connection points: 2
#     Edge 120, Type (0, 1), BuildingBlock: XUDNAN_clean_linker_2, # of connection points: 2
#     Edge 121, Type (0, 1), BuildingBlock: XUDNAN_clean_linker_2, # of connection points: 2
#     Edge 122, Type (0, 1), BuildingBlock: XUDNAN_clean_linker_2, # of connection points: 2
#     Edge 123, Type (0, 1), BuildingBlock: XUDNAN_clean_linker_2, # of connection points: 2
#     Edge 124, Type (0, 1), BuildingBlock: XUDNAN_clean_linker_2, # of connection points: 2
#     Edge 125, Type (0, 1), BuildingBlock: XUDNAN_clean_linker_2, # of connection points: 2
#     Edge 126, Type (0, 1), BuildingBlock: XUDNAN_clean_linker_2, # of connection points: 2
#     Edge 127, Type (0, 1), BuildingBlock: XUDNAN_clean_linker_2, # of connection points: 2
#     Edge 128, Type (0, 1), BuildingBlock: XUDNAN_clean_linker_2, # of connection points: 2
#     Edge 129, Type (0, 1), BuildingBlock: XUDNAN_clean_linker_2, # of connection points: 2
#     Edge 130, Type (0, 1), BuildingBlock: XUDNAN_clean_linker_2, # of connection points: 2
#     Edge 131, Type (0, 1), BuildingBlock: XUDNAN_clean_linker_2, # of connection points: 2
#     Edge 132, Type (0, 1), BuildingBlock: XUDNAN_clean_linker_2, # of connection points: 2
#     Edge 133, Type (0, 1), BuildingBlock: XUDNAN_clean_linker_2, # of connection points: 2
#     Edge 134, Type (0, 1), BuildingBlock: XUDNAN_clean_linker_2, # of connection points: 2
#     Edge 135, Type (0, 1), BuildingBlock: XUDNAN_clean_linker_2, # of connection points: 2
# Relax obj value: 0.225
# Max RMSD: 0.306
# Mean RMSD: 0.198
data_MOF--net-gar--node1-AZAVOO_clean_sbu_0--node2-BETDAH_clean_sbu_0--edge1-XUDNAN_clean_linker_2
_symmetry_space_group_name_H-M    P1
_symmetry_Int_Tables_number       1
_symmetry_cell_setting            triclinic
loop_
_symmetry_equiv_pos_as_xyz
'x, y, z'
_cell_length_a     63.293438
_cell_length_b     55.942222
_cell_length_c     57.112885
_cell_angle_alpha  102.00393
_cell_angle_beta   94.992494
_cell_angle_gamma 104.55873
loop_
_atom_site_label
_atom_site_type_symbol
_atom_site_fract_x
_atom_site_fract_y
_atom_site_fract_z
_atom_type_partial_charge
Mg0 Mg 0.10332 0.31615 0.36707 0.0
O1 O 0.10002 0.35442 0.3884 0.0
O2 O 0.06385 0.34852 0.38969 0.0
Mg3 Mg 0.04544 0.30691 0.37517 0.0
C4 C 0.08365 0.36272 0.39392 0.0
C5 C 0.14989 0.34729 0.36344 0.0
O6 O 0.13813 0.35757 0.35053 0.0
O7 O 0.10179 0.30062 0.40078 0.0
O8 O 0.06624 0.29709 0.40444 0.0
O9 O 0.09432 0.3273 0.33322 0.0
O10 O 0.07049 0.30434 0.35173 0.0
C11 C 0.08525 0.29537 0.41193 0.0
C12 C 0.07412 0.31673 0.33525 0.0
O13 O 0.14014 0.33146 0.37474 0.0
Mg14 Mg 0.99306 0.7639 0.66901 0.0
O15 O 0.99973 0.72953 0.64558 0.0
O16 O 0.97451 0.71419 0.61254 0.0
Mg17 Mg 0.95197 0.74055 0.61542 0.0
C18 C 0.99156 0.71336 0.62566 0.0
C19 C 0.03391 0.75752 0.69677 0.0
O20 O 0.02071 0.73452 0.69383 0.0
O21 O 1.00598 0.78731 0.64404 0.0
O22 O 0.98055 0.77395 0.61096 0.0
O23 O 0.97179 0.7397 0.68791 0.0
O24 O 0.96038 0.75165 0.65551 0.0
C25 C 0.99883 0.78864 0.62304 0.0
C26 C 0.95561 0.74005 0.67248 0.0
O27 O 0.02678 0.77418 0.68932 0.0
Mg28 Mg 0.60035 0.81326 0.86392 0.0
O29 O 0.6002 0.85154 0.88738 0.0
O30 O 0.56482 0.84849 0.89161 0.0
Mg31 Mg 0.543 0.80893 0.87211 0.0
C32 C 0.58519 0.86095 0.89555 0.0
C33 C 0.64848 0.8369 0.85978 0.0
O34 O 0.6389 0.84926 0.84697 0.0
O35 O 0.59637 0.79624 0.89643 0.0
O36 O 0.56022 0.79106 0.89794 0.0
O37 O 0.59331 0.82576 0.82986 0.0
O38 O 0.56824 0.80588 0.84924 0.0
C39 C 0.57889 0.78825 0.90534 0.0
C40 C 0.57283 0.81669 0.83194 0.0
O41 O 0.63705 0.82319 0.87177 0.0
Mg42 Mg 0.49462 0.26872 0.17025 0.0
O43 O 0.49914 0.23369 0.14525 0.0
O44 O 0.47253 0.22099 0.11352 0.0
Mg45 Mg 0.45138 0.24868 0.11974 0.0
C46 C 0.48956 0.21844 0.12526 0.0
C47 C 0.53559 0.26003 0.19491 0.0
O48 O 0.52189 0.2373 0.19183 0.0
O49 O 0.50655 0.29331 0.14576 0.0
O50 O 0.47991 0.28148 0.114 0.0
O51 O 0.47545 0.24369 0.18934 0.0
O52 O 0.46085 0.2582 0.16016 0.0
C53 C 0.4987 0.29545 0.12536 0.0
C54 C 0.45815 0.24489 0.17627 0.0
O55 O 0.52897 0.27728 0.188 0.0
Mg56 Mg 0.09252 0.82632 0.13769 0.0
O57 O 0.08905 0.78996 0.10895 0.0
O58 O 0.05746 0.77814 0.08377 0.0
Mg59 Mg 0.03906 0.80812 0.09709 0.0
C60 C 0.07581 0.77452 0.09094 0.0
C61 C 0.13604 0.82229 0.16914 0.0
O62 O 0.12159 0.81994 0.18428 0.0
O63 O 0.09758 0.85336 0.11034 0.0
O64 O 0.06392 0.84167 0.0883 0.0
O65 O 0.073 0.80284 0.16084 0.0
O66 O 0.05744 0.8191 0.13445 0.0
C67 C 0.08362 0.85622 0.09395 0.0
C68 C 0.05526 0.80597 0.15044 0.0
O69 O 0.13003 0.82651 0.14866 0.0
Mg70 Mg 0.51054 0.75837 0.40086 0.0
O71 O 0.51783 0.79638 0.42963 0.0
O72 O 0.48855 0.79398 0.44896 0.0
Mg73 Mg 0.46458 0.75423 0.43476 0.0
C74 C 0.5074 0.80627 0.44535 0.0
C75 C 0.55797 0.7861 0.38865 0.0
O76 O 0.54766 0.80179 0.38194 0.0
O77 O 0.5175 0.7353 0.42818 0.0
O78 O 0.48926 0.73376 0.4491 0.0
O79 O 0.49422 0.77661 0.37597 0.0
O80 O 0.47558 0.75353 0.39835 0.0
C81 C 0.50716 0.72816 0.44482 0.0
C82 C 0.47567 0.76809 0.38339 0.0
O83 O 0.5473 0.76767 0.39657 0.0
Mg84 Mg 0.59659 0.32981 0.63724 0.0
O85 O 0.59145 0.29218 0.60977 0.0
O86 O 0.55827 0.28021 0.58736 0.0
Mg87 Mg 0.54 0.30981 0.60231 0.0
C88 C 0.57701 0.27655 0.59287 0.0
C89 C 0.63876 0.31386 0.6571 0.0
O90 O 0.62193 0.29586 0.65979 0.0
O91 O 0.5991 0.35405 0.60713 0.0
O92 O 0.56325 0.34291 0.59134 0.0
O93 O 0.58023 0.30989 0.66458 0.0
O94 O 0.56162 0.322 0.6374 0.0
C95 C 0.58302 0.35679 0.59332 0.0
C96 C 0.56141 0.31118 0.65508 0.0
O97 O 0.6346 0.33122 0.64727 0.0
Mg98 Mg 0.00954 0.26653 0.90213 0.0
O99 O 0.01006 0.29912 0.93435 0.0
O100 O 0.97987 0.28641 0.95095 0.0
Mg101 Mg 0.96092 0.24556 0.93013 0.0
C102 C 0.99745 0.30329 0.95007 0.0
C103 C 0.05568 0.27405 0.88551 0.0
O104 O 0.0453 0.25054 0.87395 0.0
O105 O 0.02009 0.24177 0.92711 0.0
O106 O 0.98886 0.22831 0.94195 0.0
O107 O 0.98896 0.28315 0.87883 0.0
O108 O 0.97451 0.25325 0.8971 0.0
C109 C 0.00882 0.22838 0.93983 0.0
C110 C 0.97148 0.2686 0.88391 0.0
O111 O 0.04562 0.28652 0.89958 0.0
Mg112 Mg 0.45565 0.05645 0.30363 0.0
O113 O 0.42765 0.0208 0.29445 0.0
O114 O 0.40376 0.0217 0.32101 0.0
Mg115 Mg 0.41696 0.0603 0.34765 0.0
C116 C 0.41017 0.01087 0.30211 0.0
C117 C 0.4652 0.01913 0.26346 0.0
O118 O 0.46295 1.00682 0.28073 0.0
O119 O 0.4322 0.07448 0.28781 0.0
O120 O 0.40897 0.07643 0.3153 0.0
O121 O 0.47334 0.0394 0.32623 0.0
O122 O 0.45051 0.06223 0.33925 0.0
C123 C 0.41524 0.07986 0.29531 0.0
C124 C 0.46214 0.04705 0.3427 0.0
O125 O 0.46469 0.04218 0.26764 0.0
Mg126 Mg 0.28556 0.18422 0.49316 0.0
O127 O 0.28962 0.2117 0.52945 0.0
O128 O 0.3229 0.23908 0.53947 0.0
Mg129 Mg 0.34146 0.22722 0.50737 0.0
C130 C 0.30356 0.23022 0.54428 0.0
C131 C 0.2344 0.15181 0.48479 0.0
O132 O 0.24023 0.13726 0.46678 0.0
O133 O 0.28395 0.21442 0.4706 0.0
O134 O 0.31983 0.2357 0.47703 0.0
O135 O 0.29901 0.15824 0.51155 0.0
O136 O 0.31997 0.18746 0.49665 0.0
C137 C 0.30027 0.23067 0.46577 0.0
C138 C 0.31848 0.16961 0.50793 0.0
O139 O 0.24837 0.17225 0.49686 0.0
Mg140 Mg 0.16532 0.0124 0.77698 0.0
O141 O 0.19148 0.0547 0.78198 0.0
O142 O 0.21654 0.05759 0.81296 0.0
Mg143 Mg 0.20576 0.02437 0.83322 0.0
C144 C 0.20971 0.06711 0.7961 0.0
C145 C 0.14248 1.00217 0.71356 0.0
O146 O 0.14717 0.98037 0.70714 0.0
O147 O 0.18867 0.98033 0.771 0.0
O148 O 0.21131 0.98911 0.80574 0.0
O149 O 0.13932 0.02045 0.80452 0.0
O150 O 0.17008 0.0168 0.81843 0.0
C151 C 0.20388 0.9749 0.78444 0.0
C152 C 0.15142 0.02006 0.82346 0.0
O153 O 0.14795 0.01459 0.7361 0.0
Mg154 Mg 0.31989 0.94896 0.02331 0.0
O155 O 0.3208 0.92353 0.98662 0.0
O156 O 0.35334 0.91433 0.98812 0.0
Mg157 Mg 0.37281 0.93342 0.02539 0.0
C158 C 0.33439 0.91245 0.97712 0.0
C159 C 0.27991 0.96536 0.01728 0.0
O160 O 0.29662 0.98581 0.02103 0.0
O161 O 0.31325 0.9151 0.03965 0.0
O162 O 0.34652 0.90787 0.04018 0.0
O163 O 0.33726 0.98335 0.01069 0.0
O164 O 0.35321 0.9606 0.03001 0.0
C165 C 0.32655 0.90237 0.04405 0.0
C166 C 0.35504 0.97901 0.01958 0.0
O167 O 0.28368 0.9439 0.01497 0.0
Mg168 Mg 0.32448 0.40127 0.0484 0.0
O169 O 0.31825 0.37363 0.01095 0.0
O170 O 0.34341 0.35205 0.0076 0.0
Mg171 Mg 0.36601 0.36626 0.0447 0.0
C172 C 0.32671 0.3577 0.99848 0.0
C173 C 0.28684 0.42625 0.03613 0.0
O174 O 0.30436 0.44558 0.03859 0.0
O175 O 0.31282 0.37092 0.07022 0.0
O176 O 0.33957 0.35132 0.0681 0.0
O177 O 0.34632 0.43005 0.03264 0.0
O178 O 0.35865 0.4039 0.05082 0.0
C179 C 0.32199 0.35463 0.07607 0.0
C180 C 0.36252 0.42143 0.03898 0.0
O181 O 0.28939 0.40543 0.0399 0.0
Mg182 Mg 0.79607 0.13503 0.03095 0.0
O183 O 0.8002 0.16589 0.0657 0.0
O184 O 0.82496 0.19948 0.05984 0.0
Mg185 Mg 0.84094 0.1878 0.02648 0.0
C186 C 0.81082 0.18934 0.07206 0.0
C187 C 0.75213 0.10075 0.01977 0.0
O188 O 0.76139 0.09695 1.00011 0.0
O189 O 0.77983 0.15678 0.00905 0.0
O190 O 0.80882 0.18674 1.00383 0.0
O191 O 0.82045 0.11732 0.04546 0.0
O192 O 0.82772 0.14721 0.02511 0.0
C193 C 0.7882 0.17525 0.99983 0.0
C194 C 0.8343 0.13104 0.03473 0.0
O195 O 0.76362 0.11561 0.03896 0.0
Mg196 Mg 0.15484 0.53092 0.24714 0.0
O197 O 0.17792 0.57165 0.25982 0.0
O198 O 0.1828 0.58596 0.30014 0.0
Mg199 Mg 0.17596 0.548 0.3098 0.0
C200 C 0.18497 0.58948 0.27902 0.0
C201 C 0.15566 0.55185 0.20178 0.0
O202 O 0.15443 0.57139 0.21839 0.0
O203 O 0.1841 0.51369 0.25094 0.0
O204 O 0.19906 0.54561 0.28214 0.0
O205 O 0.12697 0.54723 0.25428 0.0
O206 O 0.14632 0.53534 0.2818 0.0
C207 C 0.19997 0.52553 0.26796 0.0
C208 C 0.13216 0.54733 0.27674 0.0
O209 O 0.15751 0.53191 0.20813 0.0
Mg210 Mg 0.82433 0.90307 0.55064 0.0
O211 O 0.81667 0.87532 0.51273 0.0
O212 O 0.84083 0.85231 0.50952 0.0
Mg213 Mg 0.8648 0.8666 0.54603 0.0
C214 C 0.82452 0.85866 0.50031 0.0
C215 C 0.78127 0.91557 0.52746 0.0
O216 O 0.7928 0.91892 0.50977 0.0
O217 O 0.81283 0.87307 0.57298 0.0
O218 O 0.84015 0.85433 0.57246 0.0
O219 O 0.84639 0.93223 0.53527 0.0
O220 O 0.85791 0.90421 0.55122 0.0
C221 C 0.82268 0.85808 0.58044 0.0
C222 C 0.8622 0.92242 0.54025 0.0
O223 O 0.78964 0.90928 0.5456 0.0
Mg224 Mg 0.94213 0.06992 0.26534 0.0
O225 O 0.91488 0.02873 0.26144 0.0
O226 O 0.89889 0.0327 0.29486 0.0
Mg227 Mg 0.91256 0.07463 0.31867 0.0
C228 C 0.90163 0.0188 0.27512 0.0
C229 C 0.96538 0.07414 0.21128 0.0
O230 O 0.97396 0.09809 0.22271 0.0
O231 O 0.9166 0.09772 0.26015 0.0
O232 O 0.90151 0.10048 0.29416 0.0
O233 O 0.9667 0.05584 0.28983 0.0
O234 O 0.94539 0.07708 0.30604 0.0
C235 C 0.9042 0.1075 0.27434 0.0
C236 C 0.96003 0.06526 0.30947 0.0
O237 O 0.95215 0.05969 0.22227 0.0
Mg238 Mg 0.27627 0.62163 0.52944 0.0
O239 O 0.28568 0.65262 0.56532 0.0
O240 O 0.31189 0.68274 0.55581 0.0
Mg241 Mg 0.32485 0.66915 0.52081 0.0
C242 C 0.29859 0.67521 0.57009 0.0
C243 C 0.24755 0.5838 0.48335 0.0
O244 O 0.24251 0.57028 0.46088 0.0
O245 O 0.26222 0.64813 0.51138 0.0
O246 O 0.29273 0.67035 0.50006 0.0
O247 O 0.30037 0.59987 0.54059 0.0
O248 O 0.30893 0.63078 0.52266 0.0
C249 C 0.2718 0.66342 0.49937 0.0
C250 C 0.31495 0.61414 0.53149 0.0
O251 O 0.26763 0.5933 0.49269 0.0
Mg252 Mg 0.44231 0.56955 0.76448 0.0
O253 O 0.41594 0.5277 0.76138 0.0
O254 O 0.39827 0.53246 0.79351 0.0
Mg255 Mg 0.4117 0.57446 0.81725 0.0
C256 C 0.40179 0.51819 0.77445 0.0
C257 C 0.46665 0.57332 0.71071 0.0
O258 O 0.47616 0.59692 0.72265 0.0
O259 O 0.41674 0.59756 0.75913 0.0
O260 O 0.40102 0.60021 0.79271 0.0
O261 O 0.46714 0.55674 0.79012 0.0
O262 O 0.44483 0.57713 0.80513 0.0
C263 C 0.40411 0.60733 0.77303 0.0
C264 C 0.45988 0.5661 0.80935 0.0
O265 O 0.45268 0.55921 0.72134 0.0
Mg266 Mg 0.65594 0.04719 0.74003 0.0
O267 O 0.67749 0.0852 0.76043 0.0
O268 O 0.68062 0.09059 0.80048 0.0
Mg269 Mg 0.66177 0.05168 0.80485 0.0
C270 C 0.6849 0.0988 0.78172 0.0
C271 C 0.65823 0.03892 0.68798 0.0
O272 O 0.65029 0.01589 0.69106 0.0
O273 O 0.68457 0.03169 0.74654 0.0
O274 O 0.68817 0.03651 0.78669 0.0
O275 O 0.62755 0.06315 0.74401 0.0
O276 O 0.64109 0.0435 0.76945 0.0
C277 C 0.69469 0.03037 0.7663 0.0
C278 C 0.62827 0.05699 0.76464 0.0
O279 O 0.66674 0.05673 0.70649 0.0
Mg280 Mg 0.78725 0.68262 0.99437 0.0
O281 O 0.79006 0.71144 0.03134 0.0
O282 O 0.82275 0.74022 0.03605 0.0
Mg283 Mg 0.8421 0.72892 1.0052 0.0
C284 C 0.80461 0.73152 0.0436 0.0
C285 C 0.73927 0.6564 0.00798 0.0
O286 O 0.75133 0.65398 0.0268 0.0
O287 O 0.78471 0.71042 0.96905 0.0
O288 O 0.81927 0.73552 0.97468 0.0
O289 O 0.80286 0.65809 0.01348 0.0
O290 O 0.82186 0.68921 0.99937 0.0
C291 C 0.79952 0.72791 0.9635 0.0
C292 C 0.82188 0.67165 0.0107 0.0
O293 O 0.74892 0.66735 0.99269 0.0
Mg294 Mg 0.96263 0.56191 0.794 0.0
O295 O 0.93881 0.52316 0.79043 0.0
O296 O 0.92583 0.51981 0.82497 0.0
Mg297 Mg 0.93779 0.55989 0.8492 0.0
C298 C 0.92724 0.51035 0.80301 0.0
C299 C 0.96427 0.52648 0.74863 0.0
O300 O 0.97269 0.51685 0.76508 0.0
O301 O 0.93294 0.57546 0.78733 0.0
O302 O 0.91746 0.57144 0.82059 0.0
O303 O 0.98884 0.54869 0.81051 0.0
O304 O 0.96677 0.56807 0.83074 0.0
C305 C 0.91724 0.57634 0.7997 0.0
C306 C 0.98132 0.55568 0.83041 0.0
O307 O 0.96192 0.54869 0.75459 0.0
Mg308 Mg 0.81958 0.44519 0.51615 0.0
O309 O 0.82491 0.41694 0.48162 0.0
O310 O 0.85942 0.41353 0.49002 0.0
Mg311 Mg 0.86687 0.42243 0.53036 0.0
C312 C 0.84182 0.40967 0.47528 0.0
C313 C 0.78512 0.46424 0.52383 0.0
O314 O 0.80366 0.47593 0.53863 0.0
O315 O 0.80473 0.41425 0.53523 0.0
O316 O 0.8313 0.39995 0.52314 0.0
O317 O 0.8417 0.47602 0.50418 0.0
O318 O 0.8531 0.45454 0.52903 0.0
C319 C 0.81925 0.40312 0.5393 0.0
C320 C 0.85769 0.47072 0.51591 0.0
O321 O 0.78533 0.44756 0.50488 0.0
Mg322 Mg 0.66383 0.51005 0.27679 0.0
O323 O 0.68954 0.55083 0.27776 0.0
O324 O 0.71456 0.56172 0.31042 0.0
Mg325 Mg 0.70458 0.52751 0.33041 0.0
C326 C 0.7066 0.56698 0.29132 0.0
C327 C 0.63476 0.51873 0.22572 0.0
O328 O 0.62571 0.53143 0.24206 0.0
O329 O 0.68889 0.48037 0.26985 0.0
O330 O 0.71156 0.49121 0.30479 0.0
O331 O 0.64151 0.52806 0.30379 0.0
O332 O 0.66717 0.51416 0.31802 0.0
C333 C 0.70439 0.47604 0.28379 0.0
C334 C 0.65118 0.52404 0.3228 0.0
O335 O 0.64952 0.50848 0.23344 0.0
Ho336 Ho 0.03578 0.02818 0.99829 0.0
Ho337 Ho 0.07403 0.06245 0.03269 0.0
C338 C 0.04665 0.09045 1.00471 0.0
C339 C 0.99523 1.00677 0.97875 0.0
C340 C 0.97549 0.01584 0.98117 0.0
C341 C 0.97339 0.03096 1.00329 0.0
C342 C 0.95631 0.04253 1.00477 0.0
C343 C 0.94127 0.03954 0.98411 0.0
C344 C 0.94327 0.02438 0.96198 0.0
C345 C 0.96025 0.01246 0.96056 0.0
C346 C 0.07018 0.03074 0.97105 0.0
C347 C 0.06353 1.00167 0.02919 0.0
C348 C 0.11446 0.0822 0.05211 0.0
C349 C 0.13136 0.06856 0.05112 0.0
C350 C 0.12904 0.0478 0.03148 0.0
C351 C 0.14261 0.03184 0.03188 0.0
C352 C 0.15854 0.03626 0.05201 0.0
C353 C 0.16095 0.05687 0.07175 0.0
C354 C 0.14726 0.07292 0.07138 0.0
C355 C 0.03976 0.05847 0.05997 0.0
O356 O 0.03244 0.06765 0.99609 0.0
O357 O 0.06501 0.09343 0.01898 0.0
O358 O 0.00979 0.02009 0.96829 0.0
O359 O 1.00421 1.00146 0.99786 0.0
O360 O 0.05029 0.01618 0.96444 0.0
O361 O 0.07156 0.04227 0.9935 0.0
O362 O 0.07777 0.02436 0.0358 0.0
O363 O 0.04492 0.99769 0.01463 0.0
O364 O 0.09892 0.07343 0.06415 0.0
O365 O 0.10669 0.08592 0.03154 0.0
O366 O 0.05931 0.0739 0.06661 0.0
O367 O 0.03839 0.04746 0.03744 0.0
H368 H 0.98536 0.0345 0.01927 0.0
H369 H 0.9553 0.05457 0.02191 0.0
H370 H 0.93187 0.02196 0.94582 0.0
H371 H 0.96191 1.00131 0.94324 0.0
H372 H 0.11634 0.04351 0.01604 0.0
H373 H 0.14087 0.01618 0.01638 0.0
H374 H 0.17352 0.06064 0.08722 0.0
H375 H 0.14876 0.08838 0.08697 0.0
Ho376 Ho 0.3188 0.78603 0.25278 0.0
Ho377 Ho 0.29663 0.79816 0.29238 0.0
C378 C 0.32219 0.8433 0.27412 0.0
C379 C 0.34356 0.7858 0.21911 0.0
C380 C 0.35289 0.80409 0.20541 0.0
C381 C 0.34411 0.8245 0.20434 0.0
C382 C 0.35114 0.83997 0.18885 0.0
C383 C 0.3667 0.8348 0.17385 0.0
C384 C 0.37741 0.81634 0.17718 0.0
C385 C 0.37045 0.80095 0.19292 0.0
C386 C 0.33992 0.78299 0.29546 0.0
C387 C 0.28811 0.73983 0.2626 0.0
C388 C 0.28059 0.79954 0.33266 0.0
C389 C 0.27154 0.78069 0.3464 0.0
C390 C 0.28416 0.76581 0.35445 0.0
C391 C 0.27559 0.74894 0.36837 0.0
C392 C 0.25415 0.74642 0.37438 0.0
C393 C 0.24131 0.76071 0.3656 0.0
C394 C 0.24996 0.77774 0.3518 0.0
C395 C 0.27348 0.80284 0.252 0.0
O396 O 0.31942 0.82599 0.25407 0.0
O397 O 0.31766 0.83717 0.29443 0.0
O398 O 0.35117 0.79278 0.24208 0.0
O399 O 0.32212 0.7762 0.21484 0.0
O400 O 0.33484 0.7652 0.27579 0.0
O401 O 0.33187 0.80072 0.29202 0.0
O402 O 0.28928 0.7554 0.28377 0.0
O403 O 0.29644 0.74772 0.2446 0.0
O404 O 0.26886 0.79759 0.3121 0.0
O405 O 0.30169 0.80452 0.33135 0.0
O406 O 0.27663 0.81784 0.27334 0.0
O407 O 0.28298 0.78524 0.25272 0.0
H408 H 0.33073 0.82741 0.21407 0.0
H409 H 0.34248 0.85397 0.18667 0.0
H410 H 0.38964 0.81228 0.16598 0.0
H411 H 0.37782 0.78568 0.19421 0.0
H412 H 0.30081 0.7675 0.35042 0.0
H413 H 0.28612 0.73859 0.37516 0.0
H414 H 0.22467 0.75899 0.36965 0.0
H415 H 0.23986 0.78887 0.34559 0.0
Ho416 Ho 0.57692 0.0434 0.51883 0.0
Ho417 Ho 0.52778 0.04553 0.52118 0.0
C418 C 0.53759 0.99063 0.51139 0.0
C419 C 0.61579 0.03687 0.52534 0.0
C420 C 0.62706 0.01671 0.5193 0.0
C421 C 0.61813 0.99207 0.52231 0.0
C422 C 0.63054 0.97443 0.51953 0.0
C423 C 0.65211 0.98109 0.51371 0.0
C424 C 0.66029 1.00515 0.509 0.0
C425 C 0.6479 0.02278 0.51183 0.0
C426 C 0.55224 0.03897 0.47709 0.0
C427 C 0.56739 0.09799 0.52691 0.0
C428 C 0.48891 0.05214 0.51477 0.0
C429 C 0.47674 0.07155 0.52086 0.0
C430 C 0.47937 0.09205 0.50968 0.0
C431 C 0.46426 0.10658 0.51113 0.0
C432 C 0.44651 0.1012 0.52414 0.0
C433 C 0.4451 0.08238 0.53722 0.0
C434 C 0.46003 0.06758 0.53549 0.0
C435 C 0.55217 0.0497 0.56293 0.0
O436 O 0.55894 1.00239 0.51845 0.0
O437 O 0.52292 1.00346 0.50825 0.0
O438 O 0.60891 0.0455 0.50734 0.0
O439 O 0.60187 0.03446 0.54102 0.0
O440 O 0.5733 0.0498 0.48093 0.0
O441 O 0.54613 0.03002 0.49431 0.0
O442 O 0.54595 0.08617 0.52064 0.0
O443 O 0.58215 0.08549 0.53058 0.0
O444 O 0.49567 0.04293 0.53241 0.0
O445 O 0.503 0.05517 0.49933 0.0
O446 O 0.53116 0.03858 0.55872 0.0
O447 O 0.55851 0.05902 0.5459 0.0
H448 H 0.60193 0.98672 0.52768 0.0
H449 H 0.62358 0.95588 0.52285 0.0
H450 H 0.67683 0.01099 0.50461 0.0
H451 H 0.65502 0.04162 0.5092 0.0
H452 H 0.49226 0.09591 0.49862 0.0
H453 H 0.46551 0.12084 0.50067 0.0
H454 H 0.43134 0.07762 0.54704 0.0
H455 H 0.45758 0.05193 0.54432 0.0
Ho456 Ho 0.28176 0.29485 0.76916 0.0
Ho457 Ho 0.32828 0.28161 0.76978 0.0
C458 C 0.31315 0.3051 0.82058 0.0
C459 C 0.24087 0.29225 0.77343 0.0
C460 C 0.22767 0.29997 0.79241 0.0
C461 C 0.22527 0.28833 0.81198 0.0
C462 C 0.21033 0.29308 0.82779 0.0
C463 C 0.19746 0.3096 0.82448 0.0
C464 C 0.20084 0.32245 0.80583 0.0
C465 C 0.21571 0.31756 0.78988 0.0
C466 C 0.31545 0.3375 0.7673 0.0
C467 C 0.29756 0.2755 0.71881 0.0
C468 C 0.36832 0.28002 0.76481 0.0
C469 C 0.38472 0.28245 0.74777 0.0
C470 C 0.39056 0.30368 0.73776 0.0
C471 C 0.40813 0.30663 0.72423 0.0
C472 C 0.42004 0.28834 0.72028 0.0
C473 C 0.41313 0.26628 0.72882 0.0
C474 C 0.39571 0.26344 0.7425 0.0
C475 C 0.29525 0.23924 0.77392 0.0
O476 O 0.29391 0.30415 0.80874 0.0
O477 O 0.3294 0.29843 0.80987 0.0
O478 O 0.25367 0.31025 0.76562 0.0
O479 O 0.25002 0.27416 0.77568 0.0
O480 O 0.29466 0.33639 0.76666 0.0
O481 O 0.31652 0.31522 0.76833 0.0
O482 O 0.31776 0.28007 0.73043 0.0
O483 O 0.28033 0.27657 0.73013 0.0
O484 O 0.35107 0.26031 0.75792 0.0
O485 O 0.36351 0.30046 0.77626 0.0
O486 O 0.31615 0.24138 0.77466 0.0
O487 O 0.29344 0.26092 0.77128 0.0
H488 H 0.23432 0.27481 0.81464 0.0
H489 H 0.20829 0.28314 0.84218 0.0
H490 H 0.19108 0.33516 0.80271 0.0
H491 H 0.21719 0.32679 0.77496 0.0
H492 H 0.3822 0.31846 0.7412 0.0
H493 H 0.41319 0.32386 0.71789 0.0
H494 H 0.42219 0.2521 0.72639 0.0
H495 H 0.39145 0.24682 0.74993 0.0
Ho496 Ho 0.04395 0.06314 0.52905 0.0
Ho497 Ho 0.0526 0.01722 0.50343 0.0
C498 C 0.03225 0.04732 0.46923 0.0
C499 C 0.04032 0.1086 0.54131 0.0
C500 C 0.04268 0.12814 0.52737 0.0
C501 C 0.06071 0.13341 0.51473 0.0
C502 C 0.06301 0.15211 0.50171 0.0
C503 C 0.04719 0.1657 0.50083 0.0
C504 C 0.02844 0.15927 0.51224 0.0
C505 C 0.02627 0.1407 0.52552 0.0
C506 C 0.01186 0.02093 0.5296 0.0
C507 C 0.0663 0.03564 0.56392 0.0
C508 C 0.05429 0.97082 0.49058 0.0
C509 C 0.05166 0.95212 0.5054 0.0
C510 C 0.0408 0.95576 0.52569 0.0
C511 C 0.03924 0.9393 0.54099 0.0
C512 C 0.04864 0.91893 0.53641 0.0
C513 C 0.05928 0.91499 0.51591 0.0
C514 C 0.06088 0.93164 0.5005 0.0
C515 C 0.08505 0.05947 0.50366 0.0
O516 O 0.03825 0.06576 0.4894 0.0
O517 O 0.03454 0.02454 0.47005 0.0
O518 O 0.0233 0.08879 0.53316 0.0
O519 O 0.05831 0.10253 0.54749 0.0
O520 O 0.01884 0.04074 0.54753 0.0
O521 O 0.02152 0.02502 0.51181 0.0
O522 O 0.06197 0.01678 0.54394 0.0
O523 O 0.06192 0.05725 0.56243 0.0
O524 O 0.07189 0.99007 0.49773 0.0
O525 O 0.03662 0.97793 0.48563 0.0
O526 O 0.07751 0.04028 0.48509 0.0
O527 O 0.07521 0.05498 0.52125 0.0
H528 H 0.0733 0.12341 0.51523 0.0
H529 H 0.0777 0.15664 0.49325 0.0
H530 H 0.01571 0.16899 0.51136 0.0
H531 H 0.0119 0.1363 0.53453 0.0
H532 H 0.03369 0.97155 0.52991 0.0
H533 H 0.03063 0.94253 0.55644 0.0
H534 H 0.06674 0.89943 0.51213 0.0
H535 H 0.06952 0.92876 0.48505 0.0
Ho536 Ho 0.32409 0.81135 0.77307 0.0
Ho537 Ho 0.28374 0.76954 0.77084 0.0
C538 C 0.32898 0.75169 0.77284 0.0
C539 C 0.36228 0.84228 0.79052 0.0
C540 C 0.3847 0.83947 0.7911 0.0
C541 C 0.39868 0.84663 0.81329 0.0
C542 C 0.41925 0.84173 0.81458 0.0
C543 C 0.42614 0.82972 0.79363 0.0
C544 C 0.41216 0.8229 0.7714 0.0
C545 C 0.39156 0.82755 0.77017 0.0
C546 C 0.30556 0.78714 0.72786 0.0
C547 C 0.27827 0.8282 0.76858 0.0
C548 C 0.24534 0.738 0.75754 0.0
C549 C 0.22414 0.74282 0.7513 0.0
C550 C 0.22162 0.75672 0.73387 0.0
C551 C 0.20225 0.76362 0.7299 0.0
C552 C 0.18516 0.75681 0.74333 0.0
C553 C 0.18765 0.74289 0.76071 0.0
C554 C 0.20701 0.73588 0.76462 0.0
C555 C 0.30164 0.7991 0.81522 0.0
O556 O 0.33853 0.77619 0.77306 0.0
O557 O 0.30721 0.74419 0.7722 0.0
O558 O 0.35179 0.84122 0.7693 0.0
O559 O 0.35002 0.82912 0.80333 0.0
O560 O 0.31563 0.81135 0.73455 0.0
O561 O 0.30734 0.77656 0.74524 0.0
O562 O 0.26893 0.80282 0.76356 0.0
O563 O 0.30012 0.83668 0.77503 0.0
O564 O 0.25412 0.74699 0.78027 0.0
O565 O 0.25963 0.74227 0.74261 0.0
O566 O 0.29315 0.7747 0.81168 0.0
O567 O 0.29905 0.80541 0.79577 0.0
H568 H 0.39346 0.85544 0.8297 0.0
H569 H 0.42954 0.84688 0.83203 0.0
H570 H 0.41714 0.81398 0.75489 0.0
H571 H 0.38092 0.82148 0.75288 0.0
H572 H 0.23471 0.76266 0.72352 0.0
H573 H 0.20056 0.77405 0.71616 0.0
H574 H 0.1747 0.73766 0.77144 0.0
H575 H 0.20883 0.72555 0.77842 0.0
Ho576 Ho 0.55549 0.03275 0.04349 0.0
Ho577 Ho 0.55015 0.04993 0.99453 0.0
C578 C 0.50958 0.01249 0.00716 0.0
C579 C 0.55757 0.0221 0.0849 0.0
C580 C 0.54154 1.00227 0.09218 0.0
C581 C 0.51958 0.99439 0.08067 0.0
C582 C 0.50348 0.97804 0.08932 0.0
C583 C 0.50921 0.96982 0.10988 0.0
C584 C 0.53159 0.97461 0.1191 0.0
C585 C 0.54777 0.99107 0.11038 0.0
C586 C 0.56155 1.00176 1.00357 0.0
C587 C 0.59584 0.07354 0.03051 0.0
C588 C 0.55611 0.05681 0.95261 0.0
C589 C 0.57498 0.07406 0.94605 0.0
C590 C 0.5963 0.07109 0.94988 0.0
C591 C 0.61381 0.08658 0.9422 0.0
C592 C 0.60976 0.10379 0.92884 0.0
C593 C 0.58932 0.10936 0.92826 0.0
C594 C 0.57192 0.09436 0.93664 0.0
C595 C 0.53567 0.07965 0.02954 0.0
O596 O 0.51916 0.01933 0.03003 0.0
O597 O 0.52024 0.01775 0.98928 0.0
O598 O 0.56834 0.01352 0.06808 0.0
O599 O 0.55037 0.04113 0.08084 0.0
O600 O 0.55184 0.99385 0.0207 0.0
O601 O 0.56786 0.02566 0.00887 0.0
O602 O 0.5833 0.0747 0.01135 0.0
O603 O 0.58858 0.06054 0.04646 0.0
O604 O 0.54396 0.06807 0.96585 0.0
O605 O 0.55981 0.03727 0.95982 0.0
O606 O 0.53467 0.0815 0.00729 0.0
O607 O 0.54356 0.06153 0.0313 0.0
H608 H 0.51453 1.00241 0.06625 0.0
H609 H 0.48629 0.97488 0.08222 0.0
H610 H 0.53623 0.96859 0.13518 0.0
H611 H 0.56479 0.99635 0.11892 0.0
H612 H 0.59921 0.0557 0.95717 0.0
H613 H 0.62948 0.08201 0.9429 0.0
H614 H 0.58582 0.12269 0.9182 0.0
H615 H 0.55576 0.09754 0.9343 0.0
Ho616 Ho 0.31756 0.31697 0.28124 0.0
Ho617 Ho 0.29174 0.26661 0.2574 0.0
C618 C 0.26409 0.30138 0.27859 0.0
C619 C 0.3328 0.36575 0.29422 0.0
C620 C 0.3205 0.38467 0.29507 0.0
C621 C 0.3001 0.37827 0.28022 0.0
C622 C 0.28716 0.395 0.28218 0.0
C623 C 0.29481 0.41903 0.29828 0.0
C624 C 0.31533 0.4255 0.31316 0.0
C625 C 0.32801 0.40825 0.31173 0.0
C626 C 0.3129 0.28603 0.31265 0.0
C627 C 0.34412 0.27813 0.26687 0.0
C628 C 0.27782 0.2185 0.23854 0.0
C629 C 0.29012 0.19934 0.23772 0.0
C630 C 0.29962 0.19541 0.25925 0.0
C631 C 0.31424 0.18054 0.25857 0.0
C632 C 0.31982 0.16948 0.23641 0.0
C633 C 0.30988 0.17271 0.21481 0.0
C634 C 0.2951 0.18755 0.21547 0.0
C635 C 0.29616 0.29939 0.22744 0.0
O636 O 0.28213 0.31967 0.27905 0.0
O637 O 0.26392 0.27745 0.2725 0.0
O638 O 0.32848 0.3516 0.30962 0.0
O639 O 0.33295 0.35249 0.27256 0.0
O640 O 0.33103 0.30286 0.31199 0.0
O641 O 0.29815 0.28651 0.29638 0.0
O642 O 0.32522 0.26148 0.26641 0.0
O643 O 0.34535 0.30233 0.26956 0.0
O644 O 0.28471 0.23516 0.22602 0.0
O645 O 0.27391 0.22897 0.25981 0.0
O646 O 0.27788 0.28367 0.22938 0.0
O647 O 0.31121 0.29745 0.24248 0.0
H648 H 0.2941 0.36028 0.26701 0.0
H649 H 0.27121 0.38909 0.27091 0.0
H650 H 0.32181 0.444 0.32557 0.0
H651 H 0.34364 0.41333 0.32347 0.0
H652 H 0.29638 0.20445 0.27674 0.0
H653 H 0.32136 0.17791 0.27548 0.0
H654 H 0.31398 0.16436 0.19753 0.0
H655 H 0.28819 0.19062 0.19867 0.0
Ho656 Ho 0.54566 0.56191 0.02978 0.0
Ho657 Ho 0.55246 0.5164 1.00102 0.0
C658 C 0.53092 0.54757 0.96957 0.0
C659 C 0.5439 0.60799 0.04476 0.0
C660 C 0.54702 0.62832 0.03185 0.0
C661 C 0.55917 0.62724 0.0124 0.0
C662 C 0.56264 0.64661 1.00017 0.0
C663 C 0.55403 0.66726 0.00726 0.0
C664 C 0.54131 0.66808 0.02618 0.0
C665 C 0.53771 0.64852 0.0384 0.0
C666 C 0.5129 0.51981 0.02931 0.0
C667 C 0.56802 0.5316 0.06144 0.0
C668 C 0.55313 0.46983 0.98744 0.0
C669 C 0.55191 0.45193 1.0031 0.0
C670 C 0.54083 0.45522 0.02328 0.0
C671 C 0.54135 0.44039 0.03992 0.0
C672 C 0.55286 0.42184 0.03666 0.0
C673 C 0.56363 0.41812 0.01624 0.0
C674 C 0.56333 0.4333 0.99962 0.0
C675 C 0.58429 0.55836 0.9998 0.0
O676 O 0.53691 0.56522 0.99045 0.0
O677 O 0.53381 0.5248 0.96897 0.0
O678 O 0.52636 0.58895 0.03609 0.0
O679 O 0.56149 0.6006 0.04946 0.0
O680 O 0.52092 0.53855 0.04811 0.0
O681 O 0.52218 0.52485 0.01156 0.0
O682 O 0.56381 0.51448 0.04029 0.0
O683 O 0.56317 0.5534 0.06232 0.0
O684 O 0.57104 0.4888 0.99259 0.0
O685 O 0.53532 0.47719 0.984 0.0
O686 O 0.57556 0.53943 0.98129 0.0
O687 O 0.57621 0.55384 0.0185 0.0
H688 H 0.56633 0.61164 0.00694 0.0
H689 H 0.57256 0.64586 0.98563 0.0
H690 H 0.53459 0.68402 0.03175 0.0
H691 H 0.528 0.64936 0.05311 0.0
H692 H 0.53198 0.46957 0.02646 0.0
H693 H 0.53256 0.44329 0.05526 0.0
H694 H 0.57254 0.40382 0.01341 0.0
H695 H 0.57222 0.43077 0.98434 0.0
Ho696 Ho 0.82284 0.31025 0.27525 0.0
Ho697 Ho 0.78305 0.26884 0.2704 0.0
C698 C 0.82771 0.25036 0.27261 0.0
C699 C 0.86139 0.34094 0.29185 0.0
C700 C 0.88407 0.33841 0.29424 0.0
C701 C 0.89253 0.33047 0.31404 0.0
C702 C 0.91429 0.32912 0.31666 0.0
C703 C 0.92791 0.33598 0.29971 0.0
C704 C 0.91947 0.34342 0.27976 0.0
C705 C 0.89769 0.34458 0.277 0.0
C706 C 0.80433 0.28857 0.22921 0.0
C707 C 0.77806 0.32835 0.27138 0.0
C708 C 0.7445 0.23758 0.25799 0.0
C709 C 0.72349 0.24287 0.25238 0.0
C710 C 0.72163 0.25911 0.23703 0.0
C711 C 0.70255 0.26682 0.23421 0.0
C712 C 0.68517 0.25837 0.24669 0.0
C713 C 0.68699 0.24217 0.26204 0.0
C714 C 0.70611 0.23447 0.2649 0.0
C715 C 0.80131 0.29283 0.31587 0.0
O716 O 0.83752 0.27534 0.27567 0.0
O717 O 0.80581 0.24256 0.26912 0.0
O718 O 0.85153 0.33788 0.26986 0.0
O719 O 0.84832 0.33009 0.30548 0.0
O720 O 0.81342 0.31284 0.23737 0.0
O721 O 0.80663 0.27691 0.24551 0.0
O722 O 0.76873 0.30296 0.26456 0.0
O723 O 0.7997 0.33641 0.27903 0.0
O724 O 0.75365 0.24684 0.28055 0.0
O725 O 0.75846 0.24146 0.24264 0.0
O726 O 0.79468 0.26826 0.30882 0.0
O727 O 0.79818 0.30287 0.29878 0.0
H728 H 0.8825 0.32572 0.32774 0.0
H729 H 0.92072 0.3236 0.3323 0.0
H730 H 0.92989 0.34878 0.26656 0.0
H731 H 0.89166 0.35077 0.2616 0.0
H732 H 0.73501 0.26625 0.2275 0.0
H733 H 0.70125 0.27903 0.22203 0.0
H734 H 0.67365 0.23558 0.27185 0.0
H735 H 0.70753 0.22244 0.27724 0.0
Ho736 Ho 0.06398 0.53459 0.5495 0.0
Ho737 Ho 0.05706 0.54786 0.50087 0.0
C738 C 0.01615 0.51372 0.51433 0.0
C739 C 0.05931 0.52658 0.59189 0.0
C740 C 0.03918 0.51731 0.60195 0.0
C741 C 0.01919 0.5194 0.59137 0.0
C742 C 0.9994 0.50711 0.59769 0.0
C743 C 0.99894 0.49367 0.61592 0.0
C744 C 0.01936 0.4929 0.62757 0.0
C745 C 0.03926 0.50417 0.62026 0.0
C746 C 0.07361 0.504 0.51142 0.0
C747 C 0.10579 0.56806 0.53388 0.0
C748 C 0.05997 0.55606 0.45853 0.0
C749 C 0.07416 0.57513 0.44829 0.0
C750 C 0.09176 0.56932 0.43728 0.0
C751 C 0.10345 0.58547 0.42454 0.0
C752 C 0.09766 0.60772 0.42233 0.0
C753 C 0.08119 0.61453 0.43495 0.0
C754 C 0.06947 0.59832 0.44782 0.0
C755 C 0.04557 0.57777 0.5377 0.0
O756 O 0.02672 0.52213 0.53684 0.0
O757 O 0.02668 0.51663 0.49589 0.0
O758 O 0.06296 0.50991 0.57413 0.0
O759 O 0.06218 0.54904 0.58723 0.0
O760 O 0.08505 0.50995 0.53283 0.0
O761 O 0.05759 0.51329 0.51201 0.0
O762 O 0.09351 0.56411 0.51276 0.0
O763 O 0.0977 0.56042 0.55246 0.0
O764 O 0.04623 0.56367 0.47218 0.0
O765 O 0.0695 0.54075 0.467 0.0
O766 O 0.03518 0.57102 0.5158 0.0
O767 O 0.06249 0.56979 0.53878 0.0
H768 H 0.01878 0.53032 0.57793 0.0
H769 H 0.98455 0.50837 0.58811 0.0
H770 H 0.02025 0.48398 0.64257 0.0
H771 H 0.05464 0.50259 0.62883 0.0
H772 H 0.09576 0.5516 0.43734 0.0
H773 H 0.11573 0.57922 0.4147 0.0
H774 H 0.07645 0.63155 0.43356 0.0
H775 H 0.05608 0.60338 0.45637 0.0
Ho776 Ho 0.78163 0.79595 0.26813 0.0
Ho777 Ho 0.82797 0.78187 0.27248 0.0
C778 C 0.80972 0.80386 0.32155 0.0
C779 C 0.7407 0.79482 0.27036 0.0
C780 C 0.72619 0.79578 0.28944 0.0
C781 C 0.71689 0.77408 0.29775 0.0
C782 C 0.70243 0.77499 0.31491 0.0
C783 C 0.6969 0.79763 0.32426 0.0
C784 C 0.70653 0.81945 0.31623 0.0
C785 C 0.7209 0.81849 0.29897 0.0
C786 C 0.81635 0.83821 0.26836 0.0
C787 C 0.80038 0.77684 0.21908 0.0
C788 C 0.86908 0.78287 0.27061 0.0
C789 C 0.88466 0.78156 0.25252 0.0
C790 C 0.89158 0.80098 0.24034 0.0
C791 C 0.90742 0.79972 0.22461 0.0
C792 C 0.91671 0.77904 0.22067 0.0
C793 C 0.90936 0.75949 0.23257 0.0
C794 C 0.89364 0.76077 0.24824 0.0
C795 C 0.79323 0.73988 0.27371 0.0
O796 O 0.79095 0.8023 0.30826 0.0
O797 O 0.82692 0.79822 0.31216 0.0
O798 O 0.75632 0.8156 0.27175 0.0
O799 O 0.74732 0.77431 0.264 0.0
O800 O 0.79558 0.83727 0.26588 0.0
O801 O 0.81692 0.81583 0.26983 0.0
O802 O 0.81924 0.77831 0.23228 0.0
O803 O 0.78281 0.78076 0.22863 0.0
O804 O 0.85331 0.76215 0.26894 0.0
O805 O 0.86241 0.8034 0.27633 0.0
O806 O 0.81392 0.74053 0.27477 0.0
O807 O 0.79266 0.76217 0.27188 0.0
H808 H 0.72046 0.75621 0.29073 0.0
H809 H 0.69507 0.75765 0.32024 0.0
H810 H 0.70291 0.83729 0.32318 0.0
H811 H 0.72772 0.83554 0.29288 0.0
H812 H 0.88499 0.81727 0.24314 0.0
H813 H 0.91241 0.81501 0.21559 0.0
H814 H 0.91628 0.74346 0.23045 0.0
H815 H 0.8888 0.74561 0.25746 0.0
Ho816 Ho 0.82075 0.28305 0.73963 0.0
Ho817 Ho 0.80167 0.29833 0.78715 0.0
C818 C 0.82461 0.34217 0.76362 0.0
C819 C 0.83624 0.28189 0.69961 0.0
C820 C 0.84071 0.30207 0.68651 0.0
C821 C 0.82462 0.31455 0.68232 0.0
C822 C 0.83018 0.33704 0.67471 0.0
C823 C 0.85202 0.34779 0.67153 0.0
C824 C 0.86801 0.33495 0.67509 0.0
C825 C 0.86236 0.3122 0.68248 0.0
C826 C 0.84484 0.2808 0.78024 0.0
C827 C 0.79552 0.23939 0.76107 0.0
C828 C 0.79449 0.30337 0.83135 0.0
C829 C 0.78251 0.28476 0.84377 0.0
C830 C 0.78505 0.26002 0.83962 0.0
C831 C 0.7747 0.24294 0.85251 0.0
C832 C 0.76177 0.25039 0.86986 0.0
C833 C 0.75823 0.2746 0.87302 0.0
C834 C 0.76847 0.29164 0.85998 0.0
C835 C 0.77039 0.29239 0.74799 0.0
O836 O 0.82365 0.32463 0.74382 0.0
O837 O 0.81925 0.33669 0.78407 0.0
O838 O 0.84877 0.28789 0.72058 0.0
O839 O 0.81543 0.27107 0.70054 0.0
O840 O 0.84164 0.26491 0.75945 0.0
O841 O 0.83535 0.29813 0.77866 0.0
O842 O 0.7972 0.25684 0.78108 0.0
O843 O 0.79968 0.24481 0.74023 0.0
O844 O 0.78246 0.30947 0.81501 0.0
O845 O 0.81279 0.29973 0.82432 0.0
O846 O 0.76758 0.29833 0.77038 0.0
O847 O 0.7895 0.28926 0.74809 0.0
H848 H 0.80787 0.30747 0.68568 0.0
H849 H 0.81727 0.34596 0.67127 0.0
H850 H 0.88491 0.34269 0.67254 0.0
H851 H 0.8751 0.30308 0.68608 0.0
H852 H 0.79568 0.25417 0.8271 0.0
H853 H 0.77797 0.22453 0.85002 0.0
H854 H 0.7483 0.2807 0.88636 0.0
H855 H 0.76601 0.31046 0.86313 0.0
Ho856 Ho 0.81933 0.82728 0.78466 0.0
Ho857 Ho 0.80577 0.76791 0.76537 0.0
C858 C 0.77008 0.79603 0.78266 0.0
C859 C 0.82963 0.87588 0.79099 0.0
C860 C 0.8159 0.89333 0.79539 0.0
C861 C 0.79299 0.88401 0.78817 0.0
C862 C 0.78028 0.90079 0.78709 0.0
C863 C 0.79031 0.92701 0.79364 0.0
C864 C 0.81275 0.93637 0.80333 0.0
C865 C 0.82561 0.9195 0.80405 0.0
C866 C 0.81491 0.80053 0.81964 0.0
C867 C 0.85561 0.79915 0.76649 0.0
C868 C 0.799 0.71974 0.75899 0.0
C869 C 0.80713 0.70078 0.74323 0.0
C870 C 0.82988 0.70446 0.74257 0.0
C871 C 0.83788 0.68359 0.73449 0.0
C872 C 0.82316 0.65914 0.72729 0.0
C873 C 0.80041 0.65651 0.7231 0.0
C874 C 0.79238 0.67726 0.73152 0.0
C875 C 0.8033 0.78998 0.72673 0.0
O876 O 0.78247 0.81711 0.77851 0.0
O877 O 0.77698 0.77557 0.78184 0.0
O878 O 0.83326 0.86485 0.80839 0.0
O879 O 0.82433 0.8601 0.76965 0.0
O880 O 0.81175 0.82283 0.82186 0.0
O881 O 0.82222 0.79469 0.79987 0.0
O882 O 0.84168 0.77669 0.76439 0.0
O883 O 0.85078 0.82095 0.77324 0.0
O884 O 0.7854 0.72974 0.74845 0.0
O885 O 0.81365 0.73627 0.77622 0.0
O886 O 0.7991 0.76591 0.72547 0.0
O887 O 0.80877 0.80103 0.74897 0.0
H888 H 0.78518 0.86386 0.78158 0.0
H889 H 0.76298 0.89336 0.77945 0.0
H890 H 0.82065 0.95665 0.80836 0.0
H891 H 0.84324 0.92691 0.80986 0.0
H892 H 0.8416 0.72275 0.75068 0.0
H893 H 0.85552 0.68608 0.73761 0.0
H894 H 0.78883 0.63776 0.71723 0.0
H895 H 0.77475 0.67425 0.73121 0.0
Ho896 Ho 0.53165 0.52724 0.49662 0.0
Ho897 Ho 0.57413 0.55835 0.52957 0.0
C898 C 0.54646 0.58957 0.5056 0.0
C899 C 0.48981 0.51049 0.48128 0.0
C900 C 0.47242 0.52336 0.48565 0.0
C901 C 0.47597 0.54402 0.50567 0.0
C902 C 0.46065 0.55809 0.50867 0.0
C903 C 0.44151 0.55193 0.49163 0.0
C904 C 0.43796 0.53112 0.47161 0.0
C905 C 0.45336 0.517 0.46861 0.0
C906 C 0.56459 0.52826 0.46699 0.0
C907 C 0.55965 0.49667 0.52217 0.0
C908 C 0.61565 0.57701 0.54517 0.0
C909 C 0.63295 0.56396 0.54384 0.0
C910 C 0.62866 0.5398 0.5282 0.0
C911 C 0.64322 0.52505 0.52983 0.0
C912 C 0.6625 0.53441 0.54689 0.0
C913 C 0.66708 0.55902 0.56198 0.0
C914 C 0.65228 0.57361 0.56058 0.0
C915 C 0.54091 0.55581 0.55885 0.0
O916 O 0.53114 0.56774 0.49674 0.0
O917 O 0.56517 0.59101 0.51857 0.0
O918 O 0.50416 0.52077 0.46866 0.0
O919 O 0.49918 0.50493 0.50003 0.0
O920 O 0.54408 0.51518 0.46118 0.0
O921 O 0.56703 0.53886 0.48984 0.0
O922 O 0.57547 0.51827 0.52908 0.0
O923 O 0.54025 0.49517 0.51031 0.0
O924 O 0.60117 0.56907 0.55875 0.0
O925 O 0.60653 0.57926 0.52455 0.0
O926 O 0.56136 0.56878 0.56546 0.0
O927 O 0.53902 0.54607 0.53599 0.0
H928 H 0.49078 0.54952 0.51884 0.0
H929 H 0.46374 0.57369 0.52451 0.0
H930 H 0.42348 0.52603 0.45806 0.0
H931 H 0.45059 0.50145 0.45279 0.0
H932 H 0.61369 0.53198 0.51523 0.0
H933 H 0.63909 0.50612 0.51813 0.0
H934 H 0.68204 0.56699 0.57494 0.0
H935 H 0.65565 0.5921 0.57296 0.0
Ho936 Ho 0.07562 0.54036 0.01887 0.0
Ho937 Ho 0.02731 0.54261 0.02564 0.0
C938 C 0.03671 0.48777 0.01597 0.0
C939 C 0.11474 0.53392 0.02119 0.0
C940 C 0.12642 0.5143 0.01392 0.0
C941 C 0.12347 0.49287 0.02382 0.0
C942 C 0.1371 0.47667 0.0194 0.0
C943 C 0.15403 0.48175 1.00523 0.0
C944 C 0.15616 0.50237 0.99432 0.0
C945 C 0.14247 0.51844 0.99859 0.0
C946 C 0.04841 0.53687 0.97931 0.0
C947 C 0.06643 0.59505 0.02975 0.0
C948 C 0.98828 0.5495 0.02131 0.0
C949 C 0.97641 0.56954 0.02487 0.0
C950 C 0.97427 0.58348 0.00731 0.0
C951 C 0.96067 0.5999 0.00947 0.0
C952 C 0.94879 0.60252 0.02905 0.0
C953 C 0.95126 0.58914 0.04686 0.0
C954 C 0.96494 0.57286 0.04481 0.0
C955 C 0.05438 0.54534 0.06544 0.0
O956 O 0.05818 0.49931 0.0184 0.0
O957 O 0.02145 0.50025 0.01547 0.0
O958 O 0.10608 0.54219 1.00387 0.0
O959 O 0.10242 0.53162 0.03834 0.0
O960 O 0.06927 0.54859 0.98243 0.0
O961 O 0.04341 0.5269 0.99636 0.0
O962 O 0.04495 0.58328 0.02458 0.0
O963 O 0.08135 0.58243 0.03207 0.0
O964 O 0.99747 0.54485 0.04071 0.0
O965 O 1.00011 0.54807 1.00358 0.0
O966 O 0.03341 0.53394 0.0622 0.0
O967 O 0.05934 0.55535 0.04833 0.0
H968 H 0.11126 0.48914 0.03573 0.0
H969 H 0.13521 0.46103 0.0282 0.0
H970 H 0.16896 0.50659 0.98317 0.0
H971 H 0.14507 0.53478 0.9907 0.0
H972 H 0.98258 0.58117 0.99153 0.0
H973 H 0.95885 0.60994 0.99544 0.0
H974 H 0.9422 0.59087 0.06208 0.0
H975 H 0.96597 0.56222 0.05849 0.0
H976 H 0.00775 0.17816 0.92299 0.0
H977 H 0.03072 0.24134 0.98591 0.0
H978 H 0.04298 0.21311 0.00911 0.0
H979 H 0.98623 0.1306 0.95345 0.0
H980 H 0.99504 0.10577 0.93483 0.0
H981 H 0.98971 0.13119 0.92255 0.0
H982 H 0.02912 0.14178 0.91103 0.0
H983 H 0.03447 0.11616 0.92302 0.0
H984 H 0.05255 0.14791 0.93395 0.0
H985 H 0.0519 0.17743 0.0258 0.0
H986 H 0.05693 0.1377 0.03471 0.0
H987 H 0.02678 0.0965 0.96158 0.0
C988 C 0.01578 0.1861 0.94151 0.0
C989 C 0.01869 0.21211 0.95256 0.0
C990 C 0.02875 0.22166 0.97699 0.0
C991 C 0.03565 0.20569 0.99031 0.0
C992 C 0.03235 0.18006 0.97902 0.0
C993 C 0.02278 0.17034 0.9551 0.0
C994 C 0.02069 0.14195 0.94746 0.0
C995 C 0.99647 0.12647 0.93908 0.0
C996 C 0.03506 0.13664 0.92769 0.0
C997 C 0.02982 0.13698 0.971 0.0
C998 C 0.0368 0.15937 0.98885 0.0
C999 C 0.04642 0.15986 0.01193 0.0
C1000 C 0.04919 0.13711 0.01684 0.0
C1001 C 0.04204 0.1138 0.999 0.0
C1002 C 0.03205 0.11383 0.97578 0.0
H1003 H 0.15573 0.82394 0.2145 0.0
H1004 H 0.16711 0.8119 0.13976 0.0
H1005 H 0.20262 0.80315 0.1518 0.0
H1006 H 0.21182 0.85638 0.2411 0.0
H1007 H 0.21014 0.84241 0.26686 0.0
H1008 H 0.18573 0.84687 0.2518 0.0
H1009 H 0.16612 0.79893 0.24553 0.0
H1010 H 0.19057 0.7943 0.26036 0.0
H1011 H 0.17863 0.77565 0.23025 0.0
H1012 H 0.2376 0.79414 0.17333 0.0
H1013 H 0.26856 0.79117 0.20172 0.0
H1014 H 0.23423 0.81153 0.26189 0.0
C1015 C 0.16565 0.81954 0.20055 0.0
C1016 C 0.1584 0.81866 0.17605 0.0
C1017 C 0.17218 0.81289 0.15862 0.0
C1018 C 0.19238 0.80771 0.16533 0.0
C1019 C 0.19887 0.80852 0.18966 0.0
C1020 C 0.18589 0.81464 0.20697 0.0
C1021 C 0.19658 0.81517 0.23202 0.0
C1022 C 0.20135 0.84179 0.24893 0.0
C1023 C 0.18211 0.7948 0.24266 0.0
C1024 C 0.21778 0.8087 0.22634 0.0
C1025 C 0.21878 0.80442 0.20179 0.0
C1026 C 0.23686 0.79764 0.19256 0.0
C1027 C 0.25437 0.7958 0.20879 0.0
C1028 C 0.25398 0.80114 0.23408 0.0
C1029 C 0.23521 0.80741 0.24269 0.0
H1030 H 0.53721 0.84246 0.48354 0.0
H1031 H 0.48804 0.83269 0.42194 0.0
H1032 H 0.4915 0.87846 0.43205 0.0
H1033 H 0.51999 0.88905 0.52387 0.0
H1034 H 0.54712 0.90866 0.53808 0.0
H1035 H 0.54272 0.87516 0.52553 0.0
H1036 H 0.57322 0.88511 0.49879 0.0
H1037 H 0.5779 0.91864 0.5115 0.0
H1038 H 0.57164 0.90623 0.47918 0.0
H1039 H 0.49613 0.92263 0.45028 0.0
H1040 H 0.50589 0.9669 0.47319 0.0
H1041 H 0.5544 0.95214 0.52291 0.0
C1042 C 0.52755 0.85023 0.4721 0.0
C1043 C 0.51232 0.83419 0.45185 0.0
C1044 C 0.49978 0.84478 0.43736 0.0
C1045 C 0.50159 0.87071 0.44301 0.0
C1046 C 0.51616 0.88601 0.46327 0.0
C1047 C 0.5293 0.87654 0.47748 0.0
C1048 C 0.54322 0.89786 0.4985 0.0
C1049 C 0.53794 0.89234 0.52294 0.0
C1050 C 0.56796 0.90221 0.49688 0.0
C1051 C 0.53533 0.92034 0.49395 0.0
C1052 C 0.51958 0.91269 0.47359 0.0
C1053 C 0.50867 0.92905 0.46609 0.0
C1054 C 0.51421 0.95418 0.47944 0.0
C1055 C 0.53085 0.96305 0.49992 0.0
C1056 C 0.54163 0.94587 0.5073 0.0
H1057 H 0.51951 0.2764 0.64188 0.0
H1058 H 0.5601 0.34027 0.69793 0.0
H1059 H 0.52806 0.34132 0.71928 0.0
H1060 H 0.46919 0.29414 0.6407 0.0
H1061 H 0.45114 0.26283 0.63806 0.0
H1062 H 0.47711 0.26638 0.62662 0.0
H1063 H 0.48824 0.23791 0.65299 0.0
H1064 H 0.46219 0.23408 0.66431 0.0
H1065 H 0.48763 0.24587 0.68513 0.0
H1066 H 0.49219 0.33887 0.7326 0.0
H1067 H 0.45426 0.32831 0.74202 0.0
H1068 H 0.4357 0.26265 0.68092 0.0
C1069 C 0.52157 0.29024 0.65886 0.0
C1070 C 0.54229 0.30826 0.66845 0.0
C1071 C 0.54446 0.3262 0.69055 0.0
C1072 C 0.52633 0.32704 0.70269 0.0
C1073 C 0.50612 0.3094 0.69283 0.0
C1074 C 0.5036 0.29081 0.67182 0.0
C1075 C 0.47994 0.27361 0.66613 0.0
C1076 C 0.46868 0.2743 0.64141 0.0
C1077 C 0.47948 0.24624 0.66721 0.0
C1078 C 0.46962 0.2861 0.68684 0.0
C1079 C 0.48516 0.30689 0.70169 0.0
C1080 C 0.47989 0.32245 0.72136 0.0
C1081 C 0.45826 0.31642 0.72646 0.0
C1082 C 0.44207 0.29481 0.71223 0.0
C1083 C 0.44781 0.27932 0.6921 0.0
H1084 H 1.00388 0.79009 0.57596 0.0
H1085 H 0.02132 0.83517 0.65009 0.0
H1086 H 0.04018 0.87242 0.63596 0.0
H1087 H 0.05697 0.8222 0.55618 0.0
H1088 H 0.04322 0.82014 0.52655 0.0
H1089 H 0.0331 0.79596 0.54253 0.0
H1090 H 0.99446 0.80386 0.53819 0.0
H1091 H 1.0044 0.82799 0.52224 0.0
H1092 H 0.99194 0.83554 0.54903 0.0
H1093 H 0.05109 0.90578 0.61417 0.0
H1094 H 0.05647 0.93324 0.58547 0.0
H1095 H 0.03585 0.86688 0.52529 0.0
C1096 C 0.012 0.80774 0.58912 0.0
C1097 C 0.0112 0.80989 0.61402 0.0
C1098 C 0.02195 0.83316 0.6309 0.0
C1099 C 0.03274 0.8544 0.62309 0.0
C1100 C 0.03309 0.85184 0.59842 0.0
C1101 C 0.0234 0.82907 0.58166 0.0
C1102 C 0.0255 0.83198 0.55614 0.0
C1103 C 0.0406 0.81666 0.54467 0.0
C1104 C 1.00272 0.8244 0.54049 0.0
C1105 C 0.03639 0.86028 0.56117 0.0
C1106 C 0.04085 0.87123 0.58573 0.0
C1107 C 0.04848 0.89741 0.59492 0.0
C1108 C 0.05152 0.91286 0.57852 0.0
C1109 C 0.04727 0.90211 0.55329 0.0
C1110 C 0.03995 0.87547 0.54452 0.0
H1111 H 0.55389 0.85514 0.83941 0.0
H1112 H 0.54973 0.7822 0.79231 0.0
H1113 H 0.51145 0.77858 0.77547 0.0
H1114 H 0.50351 0.83896 0.85571 0.0
H1115 H 0.49645 0.86833 0.85626 0.0
H1116 H 0.52494 0.86848 0.8611 0.0
H1117 H 0.53335 0.88995 0.8257 0.0
H1118 H 0.50505 0.89091 0.82125 0.0
H1119 H 0.51674 0.87613 0.79639 0.0
H1120 H 0.47247 0.77912 0.76968 0.0
H1121 H 0.43584 0.78685 0.77009 0.0
H1122 H 0.46541 0.8603 0.82014 0.0
C1123 C 0.54528 0.83926 0.82446 0.0
C1124 C 0.55472 0.81938 0.81629 0.0
C1125 C 0.54281 0.79799 0.79789 0.0
C1126 C 0.52106 0.79567 0.7885 0.0
C1127 C 0.51173 0.81503 0.79774 0.0
C1128 C 0.52358 0.83675 0.81486 0.0
C1129 C 0.50905 0.85361 0.82328 0.0
C1130 C 0.50846 0.85755 0.8507 0.0
C1131 C 0.51649 0.87916 0.81622 0.0
C1132 C 0.48709 0.83753 0.80881 0.0
C1133 C 0.48902 0.81538 0.79424 0.0
C1134 C 0.47081 0.79676 0.78038 0.0
C1135 C 0.45011 0.80134 0.78072 0.0
C1136 C 0.44787 0.8244 0.79473 0.0
C1137 C 0.4666 0.84253 0.80918 0.0
H1138 H 0.49056 0.19737 0.0781 0.0
H1139 H 0.50813 0.1911 0.15122 0.0
H1140 H 0.52123 0.1536 0.13508 0.0
H1141 H 0.4715 0.13213 0.0492 0.0
H1142 H 0.48377 0.13538 0.02229 0.0
H1143 H 0.4759 0.1616 0.03973 0.0
H1144 H 0.51578 0.19068 0.04412 0.0
H1145 H 0.52368 0.16458 0.02644 0.0
H1146 H 0.53861 0.18083 0.05615 0.0
H1147 H 0.53129 0.1155 0.11016 0.0
H1148 H 0.54026 0.08297 0.07881 0.0
H1149 H 0.51682 0.11614 0.0231 0.0
C1150 C 0.49711 0.18803 0.09068 0.0
C1151 C 0.49815 0.1968 0.1158 0.0
C1152 C 0.50723 0.18453 0.13183 0.0
C1153 C 0.51462 0.16322 0.12286 0.0
C1154 C 0.51315 0.15484 0.09788 0.0
C1155 C 0.50497 0.16718 0.08208 0.0
C1156 C 0.506 0.15524 0.05614 0.0
C1157 C 0.48291 0.1455 0.04096 0.0
C1158 C 0.52196 0.17394 0.04507 0.0
C1159 C 0.51518 0.13362 0.05968 0.0
C1160 C 0.51936 0.13363 0.08381 0.0
C1161 C 0.52812 0.11536 0.0912 0.0
C1162 C 0.53304 0.0969 0.07337 0.0
C1163 C 0.52912 0.09706 0.04867 0.0
C1164 C 0.51991 0.1155 0.04188 0.0
H1165 H 0.17133 0.36358 0.32737 0.0
H1166 H 0.17866 0.32967 0.38844 0.0
H1167 H 0.21004 0.31636 0.37333 0.0
H1168 H 0.18062 0.31688 0.28486 0.0
H1169 H 0.19653 0.33632 0.26754 0.0
H1170 H 0.17706 0.34782 0.28468 0.0
H1171 H 0.20775 0.38812 0.30782 0.0
H1172 H 0.22721 0.37716 0.29016 0.0
H1173 H 0.2328 0.38479 0.32273 0.0
H1174 H 0.23073 0.29541 0.34606 0.0
H1175 H 0.25193 0.28064 0.3149 0.0
H1176 H 0.23845 0.33443 0.27493 0.0
C1177 C 0.18023 0.35449 0.33819 0.0
C1178 C 0.17242 0.34735 0.35892 0.0
C1179 C 0.18425 0.3351 0.37241 0.0
C1180 C 0.20204 0.32738 0.36394 0.0
C1181 C 0.20814 0.33279 0.34242 0.0
C1182 C 0.19841 0.34705 0.3302 0.0
C1183 C 0.2076 0.34875 0.30668 0.0
C1184 C 0.18936 0.33674 0.28466 0.0
C1185 C 0.21956 0.37635 0.30688 0.0
C1186 C 0.22361 0.33276 0.30756 0.0
C1187 C 0.22289 0.32308 0.32796 0.0
C1188 C 0.23262 0.30403 0.33079 0.0
C1189 C 0.24451 0.29571 0.31297 0.0
C1190 C 0.24769 0.30746 0.29344 0.0
C1191 C 0.23688 0.32598 0.29034 0.0
H1192 H 0.98692 0.10341 0.18157 0.0
H1193 H 0.96129 0.02453 0.18349 0.0
H1194 H 0.97529 0.01149 0.14476 0.0
H1195 H 0.97404 0.093 0.11532 0.0
H1196 H 0.99828 0.11724 0.11348 0.0
H1197 H 0.98558 0.11993 0.14061 0.0
H1198 H 0.02264 0.12367 0.16598 0.0
H1199 H 0.03545 0.12112 0.13897 0.0
H1200 H 0.03658 0.09934 0.15799 0.0
H1201 H 0.99358 1.00742 0.10312 0.0
H1202 H 0.01426 0.01325 0.06862 0.0
H1203 H 0.0291 0.09478 0.09497 0.0
C1204 C 0.98399 0.08326 0.17392 0.0
C1205 C 0.97251 0.06514 0.18627 0.0
C1206 C 0.96952 0.03909 0.17491 0.0
C1207 C 0.97761 0.03147 0.15266 0.0
C1208 C 0.98879 0.04989 0.14113 0.0
C1209 C 0.99187 0.07536 0.15162 0.0
C1210 C 1.00441 0.09173 0.13602 0.0
C1211 C 0.98971 0.10635 0.12576 0.0
C1212 C 0.02606 0.11004 0.15061 0.0
C1213 C 0.00885 0.07183 0.11558 0.0
C1214 C 0.99928 0.04767 0.11838 0.0
C1215 C 1.00091 0.02642 0.1011 0.0
C1216 C 0.0126 0.02988 0.08113 0.0
C1217 C 0.02322 0.05448 0.07817 0.0
C1218 C 0.02107 0.0756 0.09602 0.0
H1219 H 0.27176 0.65201 0.45168 0.0
H1220 H 0.24362 0.6933 0.50761 0.0
H1221 H 0.22832 0.71329 0.47763 0.0
H1222 H 0.29145 0.69924 0.42654 0.0
H1223 H 0.28595 0.68145 0.39544 0.0
H1224 H 0.28925 0.66567 0.41923 0.0
H1225 H 0.25083 0.63342 0.40325 0.0
H1226 H 0.24748 0.64898 0.37906 0.0
H1227 H 0.2269 0.64484 0.39891 0.0
H1228 H 0.22423 0.73558 0.44448 0.0
H1229 H 0.23096 0.75763 0.41161 0.0
H1230 H 0.26032 0.70011 0.37643 0.0
C1231 C 0.26155 0.66446 0.45725 0.0
C1232 C 0.25856 0.67112 0.4816 0.0
C1233 C 0.24565 0.68781 0.48879 0.0
C1234 C 0.23693 0.69914 0.47189 0.0
C1235 C 0.24098 0.693 0.44799 0.0
C1236 C 0.25265 0.67561 0.44062 0.0
C1237 C 0.25749 0.67475 0.41506 0.0
C1238 C 0.2825 0.68065 0.41404 0.0
C1239 C 0.24491 0.64897 0.39806 0.0
C1240 C 0.24829 0.6958 0.40976 0.0
C1241 C 0.23833 0.70569 0.42868 0.0
C1242 C 0.23132 0.72748 0.42923 0.0
C1243 C 0.23518 0.73987 0.41041 0.0
C1244 C 0.24615 0.73057 0.39139 0.0
C1245 C 0.25191 0.70768 0.39069 0.0
H1246 H 0.63229 1.00664 0.64749 0.0
H1247 H 0.66218 0.08677 0.68124 0.0
H1248 H 0.63707 0.09813 0.65291 0.0
H1249 H 0.62108 0.01574 0.58441 0.0
H1250 H 0.59567 0.9906 0.57801 0.0
H1251 H 0.61858 0.98917 0.59823 0.0
H1252 H 0.59301 0.98425 0.63118 0.0
H1253 H 0.57031 0.98662 0.61138 0.0
H1254 H 0.57913 1.0083 0.64077 0.0
H1255 H 0.60631 0.10072 0.62458 0.0
H1256 H 0.57466 0.09421 0.59301 0.0
H1257 H 0.5639 0.01264 0.57945 0.0
C1258 C 0.63417 0.02659 0.64832 0.0
C1259 C 0.64902 0.04575 0.66665 0.0
C1260 C 0.65091 0.07171 0.66728 0.0
C1261 C 0.63663 0.0784 0.65141 0.0
C1262 C 0.62101 0.05892 0.6348 0.0
C1263 C 0.62009 0.03359 0.63262 0.0
C1264 C 0.60107 0.01634 0.61396 0.0
C1265 C 0.6096 1.00213 0.59237 0.0
C1266 C 0.58494 0.9978 0.62501 0.0
C1267 C 0.59083 0.03589 0.60696 0.0
C1268 C 0.60274 0.06036 0.61897 0.0
C1269 C 0.59684 0.08169 0.61503 0.0
C1270 C 0.5788 0.07785 0.59745 0.0
C1271 C 0.56684 0.05296 0.58477 0.0
C1272 C 0.57251 0.03173 0.5898 0.0
H1273 H 0.33078 0.31567 0.96464 0.0
H1274 H 0.30843 0.38382 0.97139 0.0
H1275 H 0.30372 0.37762 0.92728 0.0
H1276 H 0.36062 0.32097 0.91695 0.0
H1277 H 0.35119 0.28819 0.90025 0.0
H1278 H 0.35139 0.29615 0.9325 0.0
H1279 H 0.30977 0.27287 0.927 0.0
H1280 H 0.30954 0.26431 0.89473 0.0
H1281 H 0.29059 0.28107 0.90698 0.0
H1282 H 0.3052 0.36757 0.88357 0.0
H1283 H 0.30648 0.3497 0.84071 0.0
H1284 H 0.32565 0.28615 0.85965 0.0
C1285 C 0.32445 0.32894 0.95675 0.0
C1286 C 0.32006 0.35032 0.97169 0.0
C1287 C 0.31176 0.3672 0.96056 0.0
C1288 C 0.30917 0.36397 0.93542 0.0
C1289 C 0.31434 0.34334 0.92133 0.0
C1290 C 0.32107 0.32556 0.93136 0.0
C1291 C 0.32476 0.30472 0.91155 0.0
C1292 C 0.34841 0.30239 0.91556 0.0
C1293 C 0.30765 0.27923 0.90997 0.0
C1294 C 0.32068 0.31471 0.88918 0.0
C1295 C 0.31447 0.33692 0.89545 0.0
C1296 C 0.3098 0.35005 0.87838 0.0
C1297 C 0.31074 0.33984 0.8541 0.0
C1298 C 0.31642 0.31677 0.84689 0.0
C1299 C 0.32174 0.30413 0.86472 0.0
H1300 H 0.9646 0.02532 0.33203 0.0
H1301 H 0.98176 0.10741 0.34485 0.0
H1302 H 1.0024 0.11121 0.38488 0.0
H1303 H 0.95645 0.02532 0.39594 0.0
H1304 H 0.96662 0.99806 0.39639 0.0
H1305 H 0.95355 1.00144 0.36838 0.0
H1306 H 0.98812 0.99752 0.34866 0.0
H1307 H 1.00131 0.99428 0.37664 0.0
H1308 H 0.01472 0.01887 0.36257 0.0
H1309 H 0.02221 0.10655 0.42421 0.0
H1310 H 0.03702 0.09428 0.4598 0.0
H1311 H 0.00669 0.01475 0.42472 0.0
C1312 C 0.97265 0.04411 0.34329 0.0
C1313 C 0.97133 0.06619 0.33475 0.0
C1314 C 0.98213 0.09022 0.35056 0.0
C1315 C 0.99409 0.09255 0.3735 0.0
C1316 C 0.99505 0.07066 0.38135 0.0
C1317 C 0.98429 0.04682 0.36689 0.0
C1318 C 0.98712 0.0265 0.38055 0.0
C1319 C 0.9646 0.01196 0.3856 0.0
C1320 C 0.9985 1.00821 0.36624 0.0
C1321 C 1.00186 0.0425 0.40437 0.0
C1322 C 1.00603 0.06798 0.40435 0.0
C1323 C 0.01885 0.08662 0.42426 0.0
C1324 C 0.02731 0.07934 0.44465 0.0
C1325 C 0.02339 0.05343 0.44574 0.0
C1326 C 0.01043 0.03475 0.42487 0.0
H1327 H 0.28594 0.66867 0.61444 0.0
H1328 H 0.30728 0.72565 0.57366 0.0
H1329 H 0.30595 0.75917 0.60824 0.0
H1330 H 0.24981 0.70306 0.64967 0.0
H1331 H 0.25738 0.694 0.67701 0.0
H1332 H 0.25635 0.67325 0.64791 0.0
H1333 H 0.29681 0.67323 0.6596 0.0
H1334 H 0.2979 0.69386 0.68866 0.0
H1335 H 0.31798 0.7031 0.66934 0.0
H1336 H 0.3054 0.7869 0.64675 0.0
H1337 H 0.30911 0.80843 0.68956 0.0
H1338 H 0.29022 0.73524 0.70805 0.0
C1339 C 0.28997 0.68818 0.61277 0.0
C1340 C 0.29681 0.69453 0.59134 0.0
C1341 C 0.30221 0.72029 0.58991 0.0
C1342 C 0.30127 0.73951 0.60938 0.0
C1343 C 0.29488 0.73282 0.63031 0.0
C1344 C 0.28938 0.70789 0.63237 0.0
C1345 C 0.28513 0.70664 0.65798 0.0
C1346 C 0.26072 0.69345 0.65814 0.0
C1347 C 0.30038 0.69344 0.66957 0.0
C1348 C 0.29072 0.73481 0.67015 0.0
C1349 C 0.29539 0.74936 0.65347 0.0
C1350 C 0.30163 0.77579 0.66002 0.0
C1351 C 0.30375 0.78784 0.68443 0.0
C1352 C 0.3001 0.77351 0.70211 0.0
C1353 C 0.29303 0.74662 0.69484 0.0
H1354 H 0.60908 0.03546 0.79718 0.0
H1355 H 0.6324 0.10799 0.77903 0.0
H1356 H 0.63313 0.13028 0.82166 0.0
H1357 H 0.5774 0.05399 0.84546 0.0
H1358 H 0.58667 0.03377 0.86239 0.0
H1359 H 0.58347 0.02555 0.82987 0.0
H1360 H 0.62427 0.0235 0.8329 0.0
H1361 H 0.62773 0.0331 0.86539 0.0
H1362 H 0.64596 0.05127 0.8489 0.0
H1363 H 0.63217 0.14356 0.86786 0.0
H1364 H 0.62741 0.14585 0.91102 0.0
H1365 H 0.61296 0.06377 0.89679 0.0
C1366 C 0.61319 0.05606 0.80194 0.0
C1367 C 0.62005 0.07012 0.78503 0.0
C1368 C 0.62626 0.09703 0.79179 0.0
C1369 C 0.62719 0.10975 0.816 0.0
C1370 C 0.62212 0.09507 0.83279 0.0
C1371 C 0.61509 0.06878 0.82585 0.0
C1372 C 0.61278 0.05687 0.84704 0.0
C1373 C 0.58865 0.04167 0.84615 0.0
C1374 C 0.62864 0.04022 0.84862 0.0
C1375 C 0.61954 0.0805 0.86718 0.0
C1376 C 0.62455 0.10249 0.85891 0.0
C1377 C 0.62871 0.12647 0.87458 0.0
C1378 C 0.62633 0.12769 0.89903 0.0
C1379 C 0.62057 0.10508 0.90728 0.0
C1380 C 0.61837 0.0815 0.89132 0.0
H1381 H 0.31731 0.37618 0.12253 0.0
H1382 H 0.31084 0.30363 0.07331 0.0
H1383 H 0.30303 0.28197 0.10656 0.0
H1384 H 0.34643 0.36273 0.17224 0.0
H1385 H 0.33414 0.37947 0.1953 0.0
H1386 H 0.33676 0.38922 0.1673 0.0
H1387 H 0.29477 0.3841 0.15993 0.0
H1388 H 0.29207 0.37472 0.1881 0.0
H1389 H 0.27568 0.35431 0.16041 0.0
H1390 H 0.29736 0.2683 0.14541 0.0
H1391 H 0.29398 0.26333 0.18703 0.0
H1392 H 0.30628 0.34483 0.21262 0.0
C1393 C 0.3136 0.35565 0.11867 0.0
C1394 C 0.31407 0.34143 0.09512 0.0
C1395 C 0.31012 0.31477 0.09102 0.0
C1396 C 0.30577 0.30235 0.10986 0.0
C1397 C 0.30589 0.31691 0.13296 0.0
C1398 C 0.30972 0.34299 0.1375 0.0
C1399 C 0.31043 0.35427 0.16438 0.0
C1400 C 0.3333 0.3725 0.17545 0.0
C1401 C 0.29214 0.36764 0.16844 0.0
C1402 C 0.30615 0.33044 0.1742 0.0
C1403 C 0.30355 0.30913 0.15566 0.0
C1404 C 0.29939 0.28487 0.16001 0.0
C1405 C 0.29756 0.28222 0.18374 0.0
C1406 C 0.30002 0.30364 0.20307 0.0
C1407 C 0.30453 0.32814 0.19823 0.0
H1408 H 0.2635 1.00244 0.00694 0.0
H1409 H 0.24784 0.93561 0.03624 0.0
H1410 H 0.21411 0.94613 0.04891 0.0
H1411 H 0.24853 0.04325 0.05241 0.0
H1412 H 0.23692 0.05956 0.03278 0.0
H1413 H 0.25841 0.04529 0.02402 0.0
H1414 H 0.23348 0.01861 0.98386 0.0
H1415 H 0.21202 0.03316 0.99222 0.0
H1416 H 0.20634 0.99902 0.98481 0.0
H1417 H 0.18373 0.96678 0.06133 0.0
H1418 H 0.15768 0.99343 0.06857 0.0
H1419 H 0.19454 0.04583 0.03086 0.0
C1420 C 0.25268 0.98971 0.01552 0.0
C1421 C 0.25799 0.96824 0.02055 0.0
C1422 C 0.24368 0.95198 0.03193 0.0
C1423 C 0.22467 0.95792 0.03935 0.0
C1424 C 0.22029 0.97989 0.03485 0.0
C1425 C 0.23373 0.99521 0.02278 0.0
C1426 C 0.22595 0.01801 0.02049 0.0
C1427 C 0.2435 0.04299 0.03319 0.0
C1428 C 0.21903 0.01714 0.99376 0.0
C1429 C 0.20634 0.01364 0.03373 0.0
C1430 C 0.20317 0.99157 0.0419 0.0
C1431 C 0.186 0.984 0.05489 0.0
C1432 C 0.17147 0.99921 0.05909 0.0
C1433 C 0.17459 0.02155 0.05042 0.0
C1434 C 0.19219 0.02888 0.03781 0.0
H1435 H 0.71329 0.63198 0.03738 0.0
H1436 H 0.70946 0.65531 0.96959 0.0
H1437 H 0.66924 0.63542 0.96198 0.0
H1438 H 0.67376 0.57149 0.01641 0.0
H1439 H 0.66191 0.57237 0.04405 0.0
H1440 H 0.69025 0.58955 0.04492 0.0
H1441 H 0.68237 0.63108 0.06686 0.0
H1442 H 0.65397 0.61401 0.06599 0.0
H1443 H 0.66053 0.64151 0.05338 0.0
H1444 H 0.62993 0.6104 0.96005 0.0
H1445 H 0.5941 0.58249 0.96426 0.0
H1446 H 0.62217 0.57638 0.034 0.0
C1447 C 0.70398 0.63315 0.02103 0.0
C1448 C 0.71473 0.64537 1.00408 0.0
C1449 C 0.70179 0.64623 0.98289 0.0
C1450 C 0.67886 0.63496 0.97841 0.0
C1451 C 0.66887 0.62297 0.99534 0.0
C1452 C 0.68097 0.62207 0.01631 0.0
C1453 C 0.66615 0.60731 0.03118 0.0
C1454 C 0.67346 0.58378 0.03431 0.0
C1455 C 0.66573 0.62451 0.05582 0.0
C1456 C 0.6439 0.59974 0.01512 0.0
C1457 C 0.64593 0.60903 0.99454 0.0
C1458 C 0.6281 0.60335 0.97624 0.0
C1459 C 0.6078 0.58751 0.97879 0.0
C1460 C 0.60523 0.57766 0.99958 0.0
C1461 C 0.62349 0.5842 0.01819 0.0
H1462 H 0.73484 0.45842 0.31136 0.0
H1463 H 0.69532 0.43742 0.2406 0.0
H1464 H 0.70863 0.39892 0.23035 0.0
H1465 H 0.78223 0.43723 0.29348 0.0
H1466 H 0.7867 0.42496 0.31974 0.0
H1467 H 0.77388 0.45051 0.32156 0.0
H1468 H 0.74054 0.42409 0.33665 0.0
H1469 H 0.75328 0.39844 0.33478 0.0
H1470 H 0.72594 0.39269 0.31891 0.0
H1471 H 0.72606 0.35902 0.22841 0.0
H1472 H 0.74663 0.3277 0.23373 0.0
H1473 H 0.77749 0.3748 0.30457 0.0
C1474 C 0.72897 0.44595 0.29352 0.0
C1475 C 0.71368 0.45211 0.27686 0.0
C1476 C 0.70681 0.43421 0.254 0.0
C1477 C 0.71439 0.41185 0.24798 0.0
C1478 C 0.72922 0.40649 0.26478 0.0
C1479 C 0.7365 0.42332 0.28716 0.0
C1480 C 0.75238 0.41316 0.30214 0.0
C1481 C 0.77515 0.43263 0.30968 0.0
C1482 C 0.74246 0.40673 0.32446 0.0
C1483 C 0.75375 0.38865 0.28459 0.0
C1484 C 0.73971 0.38473 0.26331 0.0
C1485 C 0.73717 0.36252 0.24504 0.0
C1486 C 0.74906 0.34445 0.24827 0.0
C1487 C 0.76436 0.34804 0.26941 0.0
C1488 C 0.76645 0.37094 0.28782 0.0
H1489 H 0.89469 0.48196 0.54793 0.0
H1490 H 0.87098 0.47656 0.47293 0.0
H1491 H 0.90933 0.48426 0.4638 0.0
H1492 H 0.94152 0.53323 0.55115 0.0
H1493 H 0.96022 0.52429 0.5707 0.0
H1494 H 0.93123 0.5157 0.57286 0.0
H1495 H 0.92771 0.46836 0.56538 0.0
H1496 H 0.95675 0.47373 0.56392 0.0
H1497 H 0.937 0.45235 0.53918 0.0
H1498 H 0.94956 0.49024 0.46278 0.0
H1499 H 0.99003 0.50096 0.47054 0.0
H1500 H 0.98752 0.50477 0.54687 0.0
C1501 C 0.89768 0.48265 0.52965 0.0
C1502 C 0.88022 0.47885 0.51107 0.0
C1503 C 0.88442 0.47988 0.48737 0.0
C1504 C 0.90601 0.48388 0.48201 0.0
C1505 C 0.92291 0.48709 0.50069 0.0
C1506 C 0.91904 0.48704 0.52411 0.0
C1507 C 0.94017 0.49273 0.54122 0.0
C1508 C 0.94349 0.51791 0.56011 0.0
C1509 C 0.94042 0.4705 0.55314 0.0
C1510 C 0.95661 0.49525 0.52361 0.0
C1511 C 0.94626 0.49173 0.50033 0.0
C1512 C 0.95792 0.49318 0.48093 0.0
C1513 C 0.98091 0.49916 0.48557 0.0
C1514 C 0.99195 0.50383 0.50946 0.0
C1515 C 0.97956 0.50135 0.52856 0.0
H1516 H 0.4129 0.12795 0.30292 0.0
H1517 H 0.38758 0.05349 0.25409 0.0
H1518 H 0.36343 0.07031 0.22906 0.0
H1519 H 0.36374 0.1438 0.30366 0.0
H1520 H 0.37559 0.17698 0.30483 0.0
H1521 H 0.39218 0.15918 0.31659 0.0
H1522 H 0.4208 0.172 0.28832 0.0
H1523 H 0.40403 0.18951 0.27609 0.0
H1524 H 0.41206 0.16491 0.25615 0.0
H1525 H 0.3395 0.09432 0.21264 0.0
H1526 H 0.31614 0.12274 0.20726 0.0
H1527 H 0.35891 0.18189 0.26593 0.0
C1528 C 0.40253 0.11547 0.28666 0.0
C1529 C 0.40196 0.08978 0.27997 0.0
C1530 C 0.38817 0.07346 0.25899 0.0
C1531 C 0.37458 0.08284 0.24473 0.0
C1532 C 0.37552 0.10854 0.25171 0.0
C1533 C 0.38921 0.1246 0.27215 0.0
C1534 C 0.38601 0.15085 0.27689 0.0
C1535 C 0.37895 0.1581 0.30196 0.0
C1536 C 0.40697 0.17048 0.27419 0.0
C1537 C 0.36755 0.14679 0.25665 0.0
C1538 C 0.36198 0.12243 0.24202 0.0
C1539 C 0.34397 0.1136 0.22361 0.0
C1540 C 0.33085 0.12984 0.22064 0.0
C1541 C 0.33579 0.15436 0.23624 0.0
C1542 C 0.35483 0.16319 0.25378 0.0
H1543 H 0.35349 0.17663 0.5442 0.0
H1544 H 0.32309 0.13404 0.4715 0.0
H1545 H 0.35265 0.11261 0.46844 0.0
H1546 H 0.41013 0.18567 0.53332 0.0
H1547 H 0.42039 0.18139 0.56217 0.0
H1548 H 0.39675 0.19358 0.55931 0.0
H1549 H 0.37396 0.15753 0.57632 0.0
H1550 H 0.39756 0.14527 0.57928 0.0
H1551 H 0.37177 0.12489 0.56207 0.0
H1552 H 0.3851 0.09712 0.47175 0.0
H1553 H 0.41915 0.0856 0.48237 0.0
H1554 H 0.4295 0.13592 0.55378 0.0
C1555 C 0.35312 0.16261 0.52782 0.0
C1556 C 0.33607 0.15673 0.50803 0.0
C1557 C 0.33602 0.13856 0.48678 0.0
C1558 C 0.35273 0.12637 0.48487 0.0
C1559 C 0.36939 0.13251 0.50445 0.0
C1560 C 0.36979 0.14999 0.52564 0.0
C1561 C 0.3899 0.15267 0.54379 0.0
C1562 C 0.40519 0.17995 0.55001 0.0
C1563 C 0.38287 0.1446 0.56672 0.0
C1564 C 0.40057 0.13401 0.52931 0.0
C1565 C 0.38838 0.12288 0.50662 0.0
C1566 C 0.39479 0.10557 0.48947 0.0
C1567 C 0.41416 0.09924 0.4956 0.0
C1568 C 0.42687 0.10996 0.51872 0.0
C1569 C 0.42 0.12753 0.53594 0.0
H1570 H 0.7227 0.61804 0.31969 0.0
H1571 H 0.71601 0.57332 0.24642 0.0
H1572 H 0.73462 0.61215 0.23382 0.0
H1573 H 0.71176 0.67414 0.29934 0.0
H1574 H 0.73002 0.69717 0.32444 0.0
H1575 H 0.7161 0.66605 0.32797 0.0
H1576 H 0.75359 0.65923 0.34209 0.0
H1577 H 0.76755 0.69036 0.33876 0.0
H1578 H 0.77503 0.66285 0.3232 0.0
H1579 H 0.75621 0.65692 0.2292 0.0
H1580 H 0.77771 0.70147 0.23315 0.0
H1581 H 0.76981 0.7195 0.30873 0.0
C1582 C 0.72517 0.61635 0.30097 0.0
C1583 C 0.7178 0.59186 0.28417 0.0
C1584 C 0.72124 0.59128 0.25981 0.0
C1585 C 0.73191 0.6135 0.25244 0.0
C1586 C 0.73888 0.63712 0.26929 0.0
C1587 C 0.73533 0.63876 0.29305 0.0
C1588 C 0.74374 0.6668 0.30727 0.0
C1589 C 0.72425 0.67662 0.31525 0.0
C1590 C 0.76101 0.66999 0.32913 0.0
C1591 C 0.75398 0.68038 0.2884 0.0
C1592 C 0.75049 0.66287 0.26643 0.0
C1593 C 0.75858 0.67063 0.24631 0.0
C1594 C 0.77069 0.69633 0.24866 0.0
C1595 C 0.77497 0.71496 0.2709 0.0
C1596 C 0.76628 0.70645 0.29108 0.0
H1597 H 0.91051 0.47269 0.82486 0.0
H1598 H 0.9127 0.49007 0.75438 0.0
H1599 H 0.88459 0.44918 0.73584 0.0
H1600 H 0.90196 0.4035 0.80267 0.0
H1601 H 0.88486 0.39712 0.82551 0.0
H1602 H 0.90677 0.42621 0.83139 0.0
H1603 H 0.87782 0.45114 0.84183 0.0
H1604 H 0.85572 0.42216 0.8345 0.0
H1605 H 0.85457 0.44713 0.81933 0.0
H1606 H 0.8547 0.40658 0.72594 0.0
H1607 H 0.82906 0.36458 0.72504 0.0
H1608 H 0.84597 0.37874 0.80289 0.0
C1609 C 0.90527 0.4678 0.80549 0.0
C1610 C 0.91345 0.48457 0.79114 0.0
C1611 C 0.90653 0.47738 0.76574 0.0
C1612 C 0.8905 0.45432 0.75507 0.0
C1613 C 0.88192 0.43878 0.7701 0.0
C1614 C 0.88948 0.44505 0.79465 0.0
C1615 C 0.87771 0.42551 0.80708 0.0
C1616 C 0.89378 0.41231 0.81726 0.0
C1617 C 0.86574 0.43719 0.82684 0.0
C1618 C 0.86169 0.40768 0.78596 0.0
C1619 C 0.86446 0.41524 0.76462 0.0
C1620 C 0.85234 0.40048 0.74251 0.0
C1621 C 0.83782 0.37682 0.7422 0.0
C1622 C 0.83556 0.36862 0.76395 0.0
C1623 C 0.84701 0.38471 0.78606 0.0
H1624 H 0.06801 0.86314 0.0495 0.0
H1625 H 0.10695 0.90393 0.11919 0.0
H1626 H 0.10574 0.9446 0.10953 0.0
H1627 H 0.09521 0.91314 0.01691 0.0
H1628 H 0.07005 0.90791 0.99681 0.0
H1629 H 0.07574 0.88204 0.00813 0.0
H1630 H 0.0384 0.87466 0.02448 0.0
H1631 H 0.03281 0.90081 0.01371 0.0
H1632 H 0.03257 0.90047 0.04519 0.0
H1633 H 0.09699 0.98036 0.09478 0.0
H1634 H 0.08575 0.01022 0.07385 0.0
H1635 H 0.05309 0.94802 0.012 0.0
C1636 C 0.07694 0.88069 0.06237 0.0
C1637 C 0.08792 0.88019 0.08508 0.0
C1638 C 0.09898 0.90364 0.10152 0.0
C1639 C 0.09813 0.9269 0.09627 0.0
C1640 C 0.0866 0.92667 0.07418 0.0
C1641 C 0.07674 0.90427 0.05712 0.0
C1642 C 0.0656 0.9097 0.03468 0.0
C1643 C 0.07734 0.90278 0.01283 0.0
C1644 C 0.04087 0.89557 0.02921 0.0
C1645 C 0.06942 0.93846 0.04254 0.0
C1646 C 0.08187 0.94769 0.0653 0.0
C1647 C 0.0876 0.97338 0.07679 0.0
C1648 C 0.08107 0.99025 0.06463 0.0
C1649 C 0.06866 0.98175 0.04106 0.0
C1650 C 0.0625 0.95526 0.02997 0.0
H1651 H 0.95508 0.30801 0.87427 0.0
H1652 H 0.93709 0.22652 0.86749 0.0
H1653 H 0.90098 0.22243 0.84465 0.0
H1654 H 0.89633 0.31221 0.88093 0.0
H1655 H 0.89896 0.33752 0.86541 0.0
H1656 H 0.92282 0.33474 0.88323 0.0
H1657 H 0.94348 0.33357 0.8461 0.0
H1658 H 0.91978 0.33637 0.82822 0.0
H1659 H 0.93117 0.31014 0.81828 0.0
H1660 H 0.86947 0.22585 0.81846 0.0
H1661 H 0.84337 0.23638 0.7908 0.0
H1662 H 0.87829 0.31642 0.81564 0.0
C1663 C 0.9433 0.28941 0.86832 0.0
C1664 C 0.94892 0.26751 0.87276 0.0
C1665 C 0.93311 0.24354 0.86466 0.0
C1666 C 0.91253 0.24104 0.85161 0.0
C1667 C 0.90751 0.26282 0.84738 0.0
C1668 C 0.92218 0.28666 0.85584 0.0
C1669 C 0.91231 0.30676 0.8484 0.0
C1670 C 0.90732 0.32383 0.87082 0.0
C1671 C 0.9276 0.32263 0.8344 0.0
C1672 C 0.89088 0.29016 0.83237 0.0
C1673 C 0.88835 0.26495 0.8328 0.0
C1674 C 0.87093 0.24556 0.81852 0.0
C1675 C 0.85599 0.2518 0.80294 0.0
C1676 C 0.85812 0.27726 0.80156 0.0
C1677 C 0.87565 0.29689 0.81692 0.0
H1678 H 0.55164 0.2379 0.55458 0.0
H1679 H 0.61247 0.25995 0.60522 0.0
H1680 H 0.61833 0.21813 0.58999 0.0
H1681 H 0.53231 0.17656 0.55953 0.0
H1682 H 0.52213 0.16203 0.52796 0.0
H1683 H 0.52404 0.19501 0.53985 0.0
H1684 H 0.54835 0.20748 0.50771 0.0
H1685 H 0.5464 0.17441 0.49561 0.0
H1686 H 0.57306 0.19729 0.50514 0.0
H1687 H 0.61598 0.17322 0.5732 0.0
H1688 H 0.6053 0.12717 0.55595 0.0
H1689 H 0.54573 0.13249 0.51593 0.0
C1690 C 0.56644 0.23413 0.56206 0.0
C1691 C 0.58159 0.2524 0.58112 0.0
C1692 C 0.60065 0.24652 0.59053 0.0
C1693 C 0.6042 0.22276 0.58196 0.0
C1694 C 0.58877 0.20505 0.56363 0.0
C1695 C 0.57039 0.21042 0.55352 0.0
C1696 C 0.55582 0.18723 0.53494 0.0
C1697 C 0.53218 0.17978 0.54096 0.0
C1698 C 0.55591 0.19188 0.50934 0.0
C1699 C 0.56792 0.16753 0.5379 0.0
C1700 C 0.58728 0.17857 0.55391 0.0
C1701 C 0.60106 0.1644 0.56031 0.0
C1702 C 0.59481 0.13818 0.55035 0.0
C1703 C 0.5747 0.12615 0.53446 0.0
C1704 C 0.56123 0.14115 0.52792 0.0
H1705 H 0.58365 0.81666 0.36389 0.0
H1706 H 0.58552 0.76156 0.40691 0.0
H1707 H 0.62373 0.76351 0.39979 0.0
H1708 H 0.61013 0.79208 0.31881 0.0
H1709 H 0.62568 0.82209 0.31422 0.0
H1710 H 0.60005 0.81976 0.32608 0.0
H1711 H 0.61993 0.85623 0.36337 0.0
H1712 H 0.64572 0.85858 0.3516 0.0
H1713 H 0.64357 0.85354 0.38156 0.0
H1714 H 0.66015 0.76797 0.38472 0.0
H1715 H 0.69096 0.77255 0.36089 0.0
H1716 H 0.66473 0.8231 0.32597 0.0
C1717 C 0.59227 0.80545 0.37228 0.0
C1718 C 0.58156 0.78901 0.38602 0.0
C1719 C 0.59333 0.77431 0.39632 0.0
C1720 C 0.61512 0.77542 0.39252 0.0
C1721 C 0.62503 0.79139 0.37845 0.0
C1722 C 0.61402 0.80621 0.36852 0.0
C1723 C 0.62764 0.81986 0.35219 0.0
C1724 C 0.61513 0.81302 0.3263 0.0
C1725 C 0.63463 0.84877 0.36282 0.0
C1726 C 0.64735 0.80912 0.35327 0.0
C1727 C 0.64585 0.79339 0.36912 0.0
C1728 C 0.66155 0.78035 0.37234 0.0
C1729 C 0.67889 0.78287 0.3585 0.0
C1730 C 0.68024 0.79794 0.34125 0.0
C1731 C 0.66448 0.81171 0.33917 0.0
H1732 H 0.09502 0.25101 0.41152 0.0
H1733 H 0.07563 0.312 0.45647 0.0
H1734 H 0.06525 0.28544 0.48543 0.0
H1735 H 0.05091 0.20427 0.41522 0.0
H1736 H 0.06442 0.17963 0.41617 0.0
H1737 H 0.07575 0.20478 0.40185 0.0
H1738 H 0.11326 0.21682 0.42965 0.0
H1739 H 0.10241 0.19088 0.4433 0.0
H1740 H 0.11393 0.22261 0.462 0.0
H1741 H 0.05127 0.25074 0.50527 0.0
H1742 H 0.03944 0.21128 0.519 0.0
H1743 H 0.06548 0.1714 0.45957 0.0
C1744 C 0.0898 0.25914 0.4282 0.0
C1745 C 0.0866 0.28361 0.43232 0.0
C1746 C 0.07862 0.29344 0.45353 0.0
C1747 C 0.07255 0.27844 0.4699 0.0
C1748 C 0.07446 0.25371 0.46455 0.0
C1749 C 0.0833 0.24421 0.44451 0.0
C1750 C 0.08119 0.21611 0.44155 0.0
C1751 C 0.06723 0.20028 0.41726 0.0
C1752 C 0.10406 0.21133 0.4443 0.0
C1753 C 0.06929 0.21128 0.46268 0.0
C1754 C 0.06566 0.23324 0.47571 0.0
C1755 C 0.05431 0.23347 0.49549 0.0
C1756 C 0.04735 0.21084 0.50291 0.0
C1757 C 0.05164 0.18827 0.49045 0.0
C1758 C 0.0623 0.18845 0.46972 0.0
H1759 H 0.55756 0.22566 0.20239 0.0
H1760 H 0.56589 0.30646 0.20948 0.0
H1761 H 0.60538 0.31532 0.22487 0.0
H1762 H 0.59435 0.23061 0.25544 0.0
H1763 H 0.60506 0.20508 0.24139 0.0
H1764 H 0.57732 0.2051 0.23128 0.0
H1765 H 0.58605 0.202 0.18734 0.0
H1766 H 0.61376 0.20177 0.19729 0.0
H1767 H 0.6092 0.22526 0.1816 0.0
H1768 H 0.64403 0.31514 0.23815 0.0
H1769 H 0.67934 0.30552 0.24878 0.0
H1770 H 0.64488 0.2252 0.23322 0.0
C1771 C 0.56762 0.24523 0.20745 0.0
C1772 C 0.55877 0.26538 0.20499 0.0
C1773 C 0.57247 0.29074 0.21135 0.0
C1774 C 0.59486 0.29598 0.22009 0.0
C1775 C 0.60311 0.27563 0.22223 0.0
C1776 C 0.58995 0.25078 0.21605 0.0
C1777 C 0.60297 0.23228 0.21932 0.0
C1778 C 0.59441 0.2174 0.23798 0.0
C1779 C 0.60299 0.21428 0.19494 0.0
C1780 C 0.6254 0.25066 0.22878 0.0
C1781 C 0.62526 0.27556 0.23014 0.0
C1782 C 0.64437 0.29574 0.2374 0.0
C1783 C 0.66422 0.29017 0.24335 0.0
C1784 C 0.66445 0.26473 0.24209 0.0
C1785 C 0.64486 0.24485 0.23485 0.0
H1786 H 0.56634 0.89827 0.89117 0.0
H1787 H 0.61704 0.88079 0.93506 0.0
H1788 H 0.62143 0.92082 0.96581 0.0
H1789 H 0.59161 0.97123 0.91004 0.0
H1790 H 0.56437 0.97574 0.90885 0.0
H1791 H 0.5693 0.94932 0.88809 0.0
H1792 H 0.53804 0.91833 0.90238 0.0
H1793 H 0.53325 0.94442 0.92338 0.0
H1794 H 0.53948 0.91849 0.9341 0.0
H1795 H 0.61353 0.9563 0.99522 0.0
H1796 H 0.59635 0.98647 0.01933 0.0
H1797 H 0.5523 0.98214 0.95534 0.0
C1798 C 0.57896 0.9035 0.90684 0.0
C1799 C 0.59139 0.8868 0.91095 0.0
C1800 C 0.60759 0.89372 0.93164 0.0
C1801 C 0.61019 0.91637 0.94911 0.0
C1802 C 0.59691 0.93204 0.94506 0.0
C1803 C 0.58206 0.92624 0.92406 0.0
C1804 C 0.56808 0.9446 0.92508 0.0
C1805 C 0.57368 0.96121 0.90693 0.0
C1806 C 0.54326 0.93061 0.92101 0.0
C1807 C 0.57583 0.96015 0.95073 0.0
C1808 C 0.59285 0.95308 0.96184 0.0
C1809 C 0.60077 0.96259 0.98647 0.0
C1810 C 0.59087 0.97949 1.00003 0.0
C1811 C 0.57332 0.98652 0.98883 0.0
C1812 C 0.56606 0.97729 0.96393 0.0
H1813 H 0.94389 0.73429 0.7163 0.0
H1814 H 0.91871 0.74312 0.6463 0.0
H1815 H 0.892 0.76314 0.66516 0.0
H1816 H 0.88954 0.72382 0.74111 0.0
H1817 H 0.90355 0.74147 0.77087 0.0
H1818 H 0.91729 0.72332 0.75073 0.0
H1819 H 0.9495 0.76428 0.75652 0.0
H1820 H 0.93517 0.78287 0.77534 0.0
H1821 H 0.94403 0.79188 0.7485 0.0
H1822 H 0.87608 0.79197 0.69235 0.0
H1823 H 0.85829 0.81212 0.72457 0.0
H1824 H 0.89115 0.78177 0.77648 0.0
C1825 C 0.93195 0.73907 0.70465 0.0
C1826 C 0.93378 0.73794 0.67999 0.0
C1827 C 0.91779 0.74426 0.66533 0.0
C1828 C 0.90281 0.75601 0.67593 0.0
C1829 C 0.90363 0.76023 0.70089 0.0
C1830 C 0.91683 0.75074 0.71494 0.0
C1831 C 0.915 0.75875 0.74153 0.0
C1832 C 0.90577 0.73545 0.75165 0.0
C1833 C 0.93725 0.77542 0.75632 0.0
C1834 C 0.89878 0.77428 0.74008 0.0
C1835 C 0.89318 0.77567 0.71656 0.0
C1836 C 0.87983 0.79051 0.71076 0.0
C1837 C 0.87029 0.80241 0.72925 0.0
C1838 C 0.87368 0.79853 0.75279 0.0
C1839 C 0.88874 0.78524 0.7586 0.0
H1840 H 0.10927 1.0031 0.83676 0.0
H1841 H 0.17607 0.04602 0.86886 0.0
H1842 H 0.16364 0.05425 0.90917 0.0
H1843 H 0.07943 0.03925 0.87355 0.0
H1844 H 0.05827 0.01205 0.87636 0.0
H1845 H 0.07238 0.01013 0.85026 0.0
H1846 H 0.08344 0.97108 0.85893 0.0
H1847 H 0.06928 0.97284 0.88502 0.0
H1848 H 0.09796 0.9733 0.88823 0.0
H1849 H 0.14183 0.05966 0.94801 0.0
H1850 H 0.11561 0.0578 0.97813 0.0
H1851 H 0.06376 1.00823 0.9216 0.0
C1852 C 0.1214 0.01427 0.85223 0.0
C1853 C 0.14394 0.02406 0.8489 0.0
C1854 C 0.15888 0.03817 0.87024 0.0
C1855 C 0.15181 0.04304 0.89348 0.0
C1856 C 0.12956 0.03324 0.89603 0.0
C1857 C 0.11469 0.01864 0.87582 0.0
C1858 C 0.09194 0.00901 0.8834 0.0
C1859 C 0.07448 0.01816 0.8701 0.0
C1860 C 0.08526 0.97983 0.8786 0.0
C1861 C 0.09592 0.02115 0.91074 0.0
C1862 C 0.11773 0.03514 0.91784 0.0
C1863 C 0.12485 0.0484 0.9423 0.0
C1864 C 0.10971 0.04723 0.95958 0.0
C1865 C 0.08725 0.03266 0.953 0.0
C1866 C 0.08066 0.01952 0.92789 0.0
H1867 H 0.85342 0.38673 0.55463 0.0
H1868 H 0.80679 0.42727 0.58068 0.0
H1869 H 0.82222 0.43055 0.62263 0.0
H1870 H 0.84744 0.34763 0.58805 0.0
H1871 H 0.87567 0.34695 0.59456 0.0
H1872 H 0.86709 0.35622 0.56805 0.0
H1873 H 0.89803 0.39872 0.58202 0.0
H1874 H 0.90652 0.38952 0.60901 0.0
H1875 H 0.89969 0.41923 0.61138 0.0
H1876 H 0.83443 0.41959 0.65904 0.0
H1877 H 0.83749 0.39011 0.68459 0.0
H1878 H 0.87669 0.35642 0.63616 0.0
C1879 C 0.84708 0.39717 0.56924 0.0
C1880 C 0.82908 0.40687 0.5645 0.0
C1881 C 0.82067 0.41975 0.58393 0.0
C1882 C 0.82962 0.42212 0.60783 0.0
C1883 C 0.8471 0.41178 0.61197 0.0
C1884 C 0.85585 0.39965 0.59312 0.0
C1885 C 0.8711 0.38541 0.60185 0.0
C1886 C 0.8649 0.35742 0.5873 0.0
C1887 C 0.89526 0.39904 0.60102 0.0
C1888 C 0.86668 0.38794 0.62772 0.0
C1889 C 0.85415 0.40481 0.63369 0.0
C1890 C 0.84473 0.40694 0.6549 0.0
C1891 C 0.84643 0.38997 0.66927 0.0
C1892 C 0.85716 0.37089 0.66209 0.0
C1893 C 0.8688 0.37119 0.6422 0.0
H1894 H 0.47583 0.07821 0.3862 0.0
H1895 H 0.45462 0.99893 0.3482 0.0
H1896 H 0.47169 0.98739 0.38318 0.0
H1897 H 0.52558 0.07766 0.39995 0.0
H1898 H 0.53282 0.09944 0.42935 0.0
H1899 H 0.51134 0.10169 0.40797 0.0
H1900 H 0.48264 0.09596 0.43769 0.0
H1901 H 0.50476 0.09606 0.45985 0.0
H1902 H 0.47976 0.07016 0.45262 0.0
H1903 H 0.49854 0.98581 0.41605 0.0
H1904 H 0.53076 0.99388 0.44736 0.0
H1905 H 0.53862 0.07491 0.46052 0.0
C1906 C 0.47352 0.05834 0.38618 0.0
C1907 C 0.46379 0.03932 0.36522 0.0
C1908 C 0.46182 0.01352 0.36464 0.0
C1909 C 0.47147 1.00688 0.38435 0.0
C1910 C 0.48318 0.02644 0.40398 0.0
C1911 C 0.48398 0.05169 0.40523 0.0
C1912 C 0.50175 0.06951 0.42499 0.0
C1913 C 0.51886 0.08814 0.41494 0.0
C1914 C 0.4916 0.08374 0.44499 0.0
C1915 C 0.51163 0.05054 0.43364 0.0
C1916 C 0.50035 0.02579 0.42178 0.0
C1917 C 0.50727 1.00506 0.42574 0.0
C1918 C 0.52573 0.00979 0.44304 0.0
C1919 C 0.53718 0.03499 0.45537 0.0
C1920 C 0.53031 0.05559 0.45055 0.0
H1921 H 0.78217 0.70937 0.07677 0.0
H1922 H 0.8222 0.78117 0.06753 0.0
H1923 H 0.82309 0.80067 0.11062 0.0
H1924 H 0.75038 0.73619 0.1222 0.0
H1925 H 0.75091 0.71265 0.13937 0.0
H1926 H 0.75125 0.70481 0.10717 0.0
H1927 H 0.78703 0.69126 0.11428 0.0
H1928 H 0.7869 0.6992 0.14647 0.0
H1929 H 0.81075 0.71349 0.13396 0.0
H1930 H 0.82348 0.81131 0.15518 0.0
H1931 H 0.82145 0.81313 0.19837 0.0
H1932 H 0.78036 0.73543 0.18037 0.0
C1933 C 0.79053 0.7294 0.08367 0.0
C1934 C 0.80188 0.74383 0.06856 0.0
C1935 C 0.81325 0.76976 0.07858 0.0
C1936 C 0.81387 0.78102 0.10309 0.0
C1937 C 0.8031 0.76617 0.11761 0.0
C1938 C 0.79148 0.74097 0.10833 0.0
C1939 C 0.78263 0.72897 0.12843 0.0
C1940 C 0.75728 0.72013 0.12403 0.0
C1941 C 0.79241 0.70693 0.13092 0.0
C1942 C 0.79119 0.75132 0.15041 0.0
C1943 C 0.80301 0.77252 0.14361 0.0
C1944 C 0.81389 0.79499 0.16062 0.0
C1945 C 0.81264 0.79592 0.18517 0.0
C1946 C 0.8004 0.77477 0.19271 0.0
C1947 C 0.78944 0.75211 0.17505 0.0
H1948 H 0.13228 0.98197 0.66322 0.0
H1949 H 0.12446 0.04346 0.71897 0.0
H1950 H 0.10415 0.05759 0.68773 0.0
H1951 H 0.14086 0.01858 0.61705 0.0
H1952 H 0.12648 0.99212 0.59229 0.0
H1953 H 0.14009 0.98659 0.61889 0.0
H1954 H 0.10341 0.95646 0.62497 0.0
H1955 H 0.09092 0.96151 0.59756 0.0
H1956 H 0.07894 0.96745 0.62504 0.0
H1957 H 0.08422 0.06538 0.64904 0.0
H1958 H 0.06781 0.06645 0.60867 0.0
H1959 H 0.08778 0.99973 0.57665 0.0
C1960 C 0.12633 0.99846 0.66903 0.0
C1961 C 0.13028 0.01146 0.69417 0.0
C1962 C 0.12201 0.03299 0.70028 0.0
C1963 C 0.11029 0.04116 0.68244 0.0
C1964 C 0.10674 0.0279 0.65803 0.0
C1965 C 0.11465 1.007 0.65133 0.0
C1966 C 0.10912 0.99643 0.62377 0.0
C1967 C 0.13041 0.99856 0.61232 0.0
C1968 C 0.09471 0.9688 0.61751 0.0
C1969 C 0.09633 0.01409 0.61587 0.0
C1970 C 0.09537 0.03228 0.636 0.0
C1971 C 0.08497 0.05108 0.63338 0.0
C1972 C 0.07558 0.05152 0.61004 0.0
C1973 C 0.07611 0.03321 0.58877 0.0
C1974 C 0.08669 0.01405 0.59212 0.0
H1975 H 0.81354 0.40332 0.43322 0.0
H1976 H 0.86708 0.37769 0.46316 0.0
H1977 H 0.86302 0.34596 0.42528 0.0
H1978 H 0.77991 0.34409 0.40106 0.0
H1979 H 0.77133 0.35398 0.37455 0.0
H1980 H 0.7792 0.37653 0.40346 0.0
H1981 H 0.80847 0.40643 0.38581 0.0
H1982 H 0.8004 0.38411 0.35672 0.0
H1983 H 0.82883 0.39427 0.37077 0.0
H1984 H 0.85009 0.31304 0.38714 0.0
H1985 H 0.83261 0.28515 0.34684 0.0
H1986 H 0.7902 0.33394 0.33945 0.0
C1987 C 0.82458 0.39127 0.43161 0.0
C1988 C 0.84047 0.39292 0.45124 0.0
C1989 C 0.85475 0.37691 0.44842 0.0
C1990 C 0.85259 0.3587 0.42696 0.0
C1991 C 0.83641 0.35702 0.40824 0.0
C1992 C 0.82303 0.37325 0.40997 0.0
C1993 C 0.80696 0.36712 0.38689 0.0
C1994 C 0.78293 0.36 0.3918 0.0
C1995 C 0.81145 0.3893 0.3743 0.0
C1996 C 0.8129 0.34434 0.37257 0.0
C1997 C 0.82983 0.33874 0.38532 0.0
C1998 C 0.83709 0.31743 0.37668 0.0
C1999 C 0.82699 0.30159 0.35404 0.0
C2000 C 0.81026 0.30763 0.34043 0.0
C2001 C 0.80315 0.32921 0.3497 0.0
H2002 H 0.47887 0.04043 0.22713 0.0
H2003 H 0.45417 0.9677 0.24494 0.0
H2004 H 0.45656 0.94549 0.20345 0.0
H2005 H 0.45314 0.02324 0.16409 0.0
H2006 H 0.47735 0.04146 0.15479 0.0
H2007 H 0.47105 0.05131 0.18484 0.0
H2008 H 0.50976 0.05056 0.20332 0.0
H2009 H 0.51625 0.04113 0.17339 0.0
H2010 H 0.51842 0.02202 0.19482 0.0
H2011 H 0.4675 0.93184 0.16245 0.0
H2012 H 0.48621 0.9286 0.12576 0.0
H2013 H 0.50024 0.01006 0.13477 0.0
C2014 C 0.47355 0.01983 0.22217 0.0
C2015 C 0.46635 1.00572 0.23901 0.0
C2016 C 0.45993 0.9788 0.23215 0.0
C2017 C 0.46099 0.96605 0.20863 0.0
C2018 C 0.46838 0.9806 0.1924 0.0
C2019 C 0.47454 1.00692 0.19896 0.0
C2020 C 0.48434 0.01834 0.17943 0.0
C2021 C 0.47062 0.03453 0.17024 0.0
C2022 C 0.50861 0.03391 0.18826 0.0
C2023 C 0.48261 0.99435 0.16073 0.0
C2024 C 0.47357 0.97266 0.16844 0.0
C2025 C 0.47392 0.94855 0.15575 0.0
C2026 C 0.48445 0.9468 0.13504 0.0
C2027 C 0.49383 0.96901 0.12741 0.0
C2028 C 0.4922 0.99276 0.13987 0.0
H2029 H 0.8168 0.77483 0.95354 0.0
H2030 H 0.77429 0.69908 0.92083 0.0
H2031 H 0.774 0.70906 0.88062 0.0
H2032 H 0.7894 0.80641 0.91285 0.0
H2033 H 0.815 0.82941 0.91254 0.0
H2034 H 0.81074 0.81655 0.93873 0.0
H2035 H 0.84656 0.80253 0.93569 0.0
H2036 H 0.85069 0.81485 0.90922 0.0
H2037 H 0.84947 0.78206 0.90799 0.0
H2038 H 0.78235 0.72569 0.84295 0.0
H2039 H 0.79276 0.75006 0.81217 0.0
H2040 H 0.82677 0.81649 0.86911 0.0
C2041 C 0.80694 0.76057 0.93799 0.0
C2042 C 0.7954 0.73615 0.94053 0.0
C2043 C 0.78292 0.71802 0.91959 0.0
C2044 C 0.78287 0.72345 0.89655 0.0
C2045 C 0.79494 0.74739 0.8946 0.0
C2046 C 0.80616 0.76596 0.91489 0.0
C2047 C 0.8174 0.79037 0.90784 0.0
C2048 C 0.80755 0.81196 0.91863 0.0
C2049 C 0.84252 0.79788 0.91565 0.0
C2050 C 0.81148 0.78234 0.88038 0.0
C2051 C 0.79869 0.75737 0.87309 0.0
C2052 C 0.79212 0.74534 0.84855 0.0
C2053 C 0.79834 0.75925 0.83109 0.0
C2054 C 0.81068 0.78511 0.83809 0.0
C2055 C 0.81728 0.79672 0.86315 0.0
H2056 H 0.85168 0.09495 0.04853 0.0
H2057 H 0.85932 0.14777 1.0018 0.0
H2058 H 0.88518 0.12752 0.98128 0.0
H2059 H 0.9089 0.09391 0.05543 0.0
H2060 H 0.90213 0.06065 0.05552 0.0
H2061 H 0.88418 0.07945 0.0665 0.0
H2062 H 0.8514 0.04745 0.03617 0.0
H2063 H 0.86934 0.02879 0.02473 0.0
H2064 H 0.85351 0.0406 1.00432 0.0
H2065 H 0.9086 0.09998 0.96418 0.0
H2066 H 0.93328 0.07196 0.95687 0.0
H2067 H 0.91152 0.03856 0.01568 0.0
C2068 C 0.85919 0.10265 0.03439 0.0
C2069 C 0.85353 0.123 0.02688 0.0
C2070 C 0.86356 0.13236 0.00809 0.0
C2071 C 0.87806 0.12078 0.99606 0.0
C2072 C 0.88261 0.10011 1.00326 0.0
C2073 C 0.8739 0.09151 0.02234 0.0
C2074 C 0.88208 0.06953 0.02702 0.0
C2075 C 0.8951 0.0763 0.05264 0.0
C2076 C 0.86294 0.04516 0.02281 0.0
C2077 C 0.89696 0.06739 0.00783 0.0
C2078 C 0.89666 0.0848 0.99393 0.0
C2079 C 0.9091 0.08635 0.97503 0.0
C2080 C 0.9229 0.07031 0.9709 0.0
C2081 C 0.92424 0.05332 0.98583 0.0
C2082 C 0.91077 0.05151 1.00412 0.0
H2083 H 0.3946 0.46226 0.06596 0.0
H2084 H 0.38014 0.40426 0.99898 0.0
H2085 H 0.41734 0.42273 0.98906 0.0
H2086 H 0.4252 0.51347 0.04244 0.0
H2087 H 0.44467 0.52776 0.06978 0.0
H2088 H 0.41707 0.50986 0.07126 0.0
H2089 H 0.43281 0.48096 0.09377 0.0
H2090 H 0.46047 0.49874 0.09236 0.0
H2091 H 0.45169 0.46478 0.08034 0.0
H2092 H 0.45622 0.44865 0.98642 0.0
H2093 H 0.49333 0.47883 0.99151 0.0
H2094 H 0.48262 0.51895 0.06105 0.0
C2095 C 0.3994 0.45344 0.04929 0.0
C2096 C 0.38476 0.43181 0.03324 0.0
C2097 C 0.39133 0.42078 0.01149 0.0
C2098 C 0.41236 0.43118 1.00575 0.0
C2099 C 0.42655 0.45258 0.022 0.0
C2100 C 0.42032 0.46354 0.04336 0.0
C2101 C 0.43851 0.48647 0.05773 0.0
C2102 C 0.43091 0.51083 0.06045 0.0
C2103 C 0.44633 0.48249 0.08252 0.0
C2104 C 0.45615 0.48657 0.04136 0.0
C2105 C 0.44888 0.46704 0.02072 0.0
C2106 C 0.46209 0.46385 1.00262 0.0
C2107 C 0.48318 0.48105 1.00568 0.0
C2108 C 0.49102 0.50104 0.02678 0.0
C2109 C 0.47726 0.50365 0.04486 0.0
H2110 H 0.37542 0.63137 0.79893 0.0
H2111 H 0.40942 0.63461 0.73655 0.0
H2112 H 0.39522 0.67078 0.73057 0.0
H2113 H 0.32609 0.6463 0.77515 0.0
H2114 H 0.32332 0.66555 0.80362 0.0
H2115 H 0.33639 0.64036 0.80321 0.0
H2116 H 0.37099 0.67238 0.83002 0.0
H2117 H 0.35804 0.6977 0.83045 0.0
H2118 H 0.38454 0.70032 0.82037 0.0
H2119 H 0.37788 0.71033 0.7328 0.0
H2120 H 0.35764 0.74316 0.74016 0.0
H2121 H 0.33176 0.71334 0.79912 0.0
C2122 C 0.37984 0.63939 0.78376 0.0
C2123 C 0.39386 0.62906 0.76812 0.0
C2124 C 0.39888 0.64116 0.74887 0.0
C2125 C 0.39082 0.66215 0.74539 0.0
C2126 C 0.37729 0.67173 0.76114 0.0
C2127 C 0.37169 0.66041 0.77989 0.0
C2128 C 0.35675 0.67417 0.79425 0.0
C2129 C 0.3343 0.65547 0.79404 0.0
C2130 C 0.36826 0.68688 0.82032 0.0
C2131 C 0.35418 0.69452 0.78042 0.0
C2132 C 0.3667 0.69319 0.76171 0.0
C2133 C 0.36797 0.71097 0.74731 0.0
C2134 C 0.35632 0.72994 0.75174 0.0
C2135 C 0.34257 0.73157 0.77016 0.0
C2136 C 0.3417 0.7131 0.78464 0.0
H2137 H 0.20969 0.59486 0.46881 0.0
H2138 H 0.24604 0.58063 0.52988 0.0
H2139 H 0.21522 0.58304 0.55319 0.0
H2140 H 0.18195 0.63893 0.50694 0.0
H2141 H 0.15694 0.627 0.48543 0.0
H2142 H 0.1833 0.62859 0.47517 0.0
H2143 H 0.16968 0.58052 0.45412 0.0
H2144 H 0.14342 0.57896 0.46423 0.0
H2145 H 0.15906 0.55799 0.47162 0.0
H2146 H 0.17848 0.57929 0.56678 0.0
H2147 H 0.13866 0.56995 0.56954 0.0
H2148 H 0.12698 0.58937 0.50071 0.0
C2149 C 0.21125 0.59285 0.48729 0.0
C2150 C 0.23011 0.58776 0.49775 0.0
C2151 C 0.23175 0.585 0.52183 0.0
C2152 C 0.21439 0.58638 0.53519 0.0
C2153 C 0.1958 0.59112 0.52431 0.0
C2154 C 0.19425 0.59472 0.50102 0.0
C2155 C 0.17181 0.5975 0.49285 0.0
C2156 C 0.17362 0.62462 0.48993 0.0
C2157 C 0.16033 0.57754 0.46934 0.0
C2158 C 0.16044 0.59269 0.51432 0.0
C2159 C 0.17467 0.5897 0.53256 0.0
C2160 C 0.16728 0.58229 0.55296 0.0
C2161 C 0.14463 0.57704 0.55439 0.0
C2162 C 0.12975 0.57899 0.53538 0.0
C2163 C 0.13797 0.58791 0.51566 0.0
H2164 H 0.72239 0.02831 0.80474 0.0
H2165 H 0.70989 1.00866 0.72612 0.0
H2166 H 0.73717 0.98412 0.72513 0.0
H2167 H 0.78322 0.02954 0.81066 0.0
H2168 H 0.78053 0.01595 0.83659 0.0
H2169 H 0.76419 0.03685 0.83091 0.0
H2170 H 0.729 1.00184 0.83224 0.0
H2171 H 0.74498 0.98038 0.83684 0.0
H2172 H 0.72306 0.97104 0.8116 0.0
H2173 H 0.75827 0.9546 0.73232 0.0
H2174 H 0.77728 0.92614 0.74746 0.0
H2175 H 0.77711 0.9652 0.8214 0.0
C2176 C 0.72586 0.01947 0.7873 0.0
C2177 C 0.71378 0.01996 0.76552 0.0
C2178 C 0.71882 1.00831 0.74305 0.0
C2179 C 0.73435 0.99442 0.74229 0.0
C2180 C 0.74491 0.99291 0.76413 0.0
C2181 C 0.74136 1.00564 0.78624 0.0
C2182 C 0.75299 0.99863 0.80702 0.0
C2183 C 0.77132 0.02162 0.82218 0.0
C2184 C 0.73652 0.98729 0.82283 0.0
C2185 C 0.76251 0.97882 0.79305 0.0
C2186 C 0.75779 0.97604 0.76834 0.0
C2187 C 0.76275 0.95714 0.75158 0.0
C2188 C 0.77327 0.94096 0.76029 0.0
C2189 C 0.7787 0.94393 0.78545 0.0
C2190 C 0.77338 0.96307 0.80208 0.0
H2191 H 0.75914 0.93234 0.49296 0.0
H2192 H 0.75309 0.90926 0.56071 0.0
H2193 H 0.71724 0.91883 0.56138 0.0
H2194 H 0.73826 0.98456 0.50697 0.0
H2195 H 0.72298 0.97993 0.47746 0.0
H2196 H 0.74686 0.96826 0.48037 0.0
H2197 H 0.72335 0.92304 0.45766 0.0
H2198 H 0.69936 0.93466 0.45472 0.0
H2199 H 0.69864 0.9084 0.46862 0.0
H2200 H 0.68397 0.93391 0.55702 0.0
H2201 H 0.65608 0.95597 0.5491 0.0
H2202 H 0.68283 0.97011 0.48423 0.0
C2203 C 0.75011 0.92891 0.50774 0.0
C2204 C 0.75901 0.91997 0.5268 0.0
C2205 C 0.7467 0.91601 0.54589 0.0
C2206 C 0.72622 0.92128 0.54638 0.0
C2207 C 0.71807 0.93033 0.52756 0.0
C2208 C 0.72953 0.93409 0.50852 0.0
C2209 C 0.71755 0.94561 0.49148 0.0
C2210 C 0.7323 0.97111 0.48895 0.0
C2211 C 0.70923 0.92681 0.46665 0.0
C2212 C 0.69838 0.94919 0.50481 0.0
C2213 C 0.69872 0.93949 0.52516 0.0
C2214 C 0.68332 0.94124 0.54095 0.0
C2215 C 0.6674 0.95371 0.53619 0.0
C2216 C 0.66705 0.96463 0.51594 0.0
C2217 C 0.6826 0.96192 0.49983 0.0
H2218 H 0.36193 0.48186 0.74904 0.0
H2219 H 0.42178 0.48897 0.79597 0.0
H2220 H 0.40791 0.44403 0.79793 0.0
H2221 H 0.32427 0.44237 0.77688 0.0
H2222 H 0.30733 0.42243 0.74928 0.0
H2223 H 0.32262 0.45449 0.75008 0.0
H2224 H 0.34136 0.43779 0.71411 0.0
H2225 H 0.32608 0.40562 0.71319 0.0
H2226 H 0.35576 0.41415 0.71619 0.0
H2227 H 0.38624 0.39643 0.79551 0.0
H2228 H 0.35913 0.35423 0.79044 0.0
H2229 H 0.31255 0.3775 0.74633 0.0
C2230 C 0.37236 0.47381 0.75926 0.0
C2231 C 0.39348 0.48936 0.77184 0.0
C2232 C 0.40597 0.47775 0.78557 0.0
C2233 C 0.39808 0.45201 0.78691 0.0
C2234 C 0.37735 0.43724 0.77436 0.0
C2235 C 0.3647 0.44777 0.76065 0.0
C2236 C 0.34279 0.42783 0.74924 0.0
C2237 C 0.32309 0.43735 0.75684 0.0
C2238 C 0.34141 0.42095 0.72154 0.0
C2239 C 0.34452 0.40503 0.75962 0.0
C2240 C 0.36486 0.41056 0.77357 0.0
C2241 C 0.37034 0.39214 0.78451 0.0
C2242 C 0.3548 0.36792 0.78141 0.0
C2243 C 0.33349 0.3619 0.76784 0.0
C2244 C 0.32859 0.38107 0.7568 0.0
H2245 H 0.18283 0.62952 0.25917 0.0
H2246 H 0.22725 0.59555 0.29422 0.0
H2247 H 0.25928 0.62674 0.28637 0.0
H2248 H 0.21588 0.64884 0.21353 0.0
H2249 H 0.21002 0.67919 0.21702 0.0
H2250 H 0.19006 0.65249 0.22261 0.0
H2251 H 0.18966 0.67832 0.26594 0.0
H2252 H 0.20899 0.70521 0.26001 0.0
H2253 H 0.2154 0.69326 0.28593 0.0
H2254 H 0.286 0.66175 0.27724 0.0
H2255 H 0.30649 0.70451 0.27382 0.0
H2256 H 0.24544 0.71728 0.24609 0.0
C2257 C 0.19936 0.62892 0.26519 0.0
C2258 C 0.20293 0.61056 0.27731 0.0
C2259 C 0.22452 0.60994 0.28514 0.0
C2260 C 0.24271 0.6272 0.28042 0.0
C2261 C 0.23884 0.64497 0.26811 0.0
C2262 C 0.21779 0.64651 0.26118 0.0
C2263 C 0.21849 0.66962 0.25122 0.0
C2264 C 0.20799 0.66206 0.2245 0.0
C2265 C 0.2075 0.68766 0.2667 0.0
C2266 C 0.24317 0.68086 0.25403 0.0
C2267 C 0.25457 0.66595 0.26324 0.0
C2268 C 0.27742 0.67349 0.26966 0.0
C2269 C 0.28888 0.69758 0.26767 0.0
C2270 C 0.27724 0.71333 0.25942 0.0
C2271 C 0.2544 0.70483 0.25181 0.0
H2272 H 0.51423 0.68196 0.42662 0.0
H2273 H 0.51762 0.73639 0.49391 0.0
H2274 H 0.52991 0.70792 0.51681 0.0
H2275 H 0.49076 0.62727 0.44826 0.0
H2276 H 0.50517 0.6073 0.43113 0.0
H2277 H 0.49906 0.63307 0.42007 0.0
H2278 H 0.54052 0.65152 0.41787 0.0
H2279 H 0.54673 0.62574 0.42886 0.0
H2280 H 0.56055 0.65818 0.4445 0.0
H2281 H 0.54256 0.67316 0.53223 0.0
H2282 H 0.55011 0.63354 0.5391 0.0
H2283 H 0.53395 0.59956 0.46211 0.0
C2284 C 0.51787 0.68798 0.44616 0.0
C2285 C 0.51532 0.71156 0.45853 0.0
C2286 C 0.51965 0.71852 0.48412 0.0
C2287 C 0.52669 0.70247 0.49724 0.0
C2288 C 0.52885 0.6792 0.48453 0.0
C2289 C 0.52427 0.67183 0.45955 0.0
C2290 C 0.52616 0.64503 0.45033 0.0
C2291 C 0.50396 0.62711 0.43664 0.0
C2292 C 0.54458 0.64513 0.43445 0.0
C2293 C 0.53231 0.63832 0.47396 0.0
C2294 C 0.53433 0.65852 0.49347 0.0
C2295 C 0.54077 0.65718 0.51708 0.0
C2296 C 0.54505 0.63463 0.52083 0.0
C2297 C 0.5423 0.61341 0.50121 0.0
C2298 C 0.53582 0.61536 0.47749 0.0
H2299 H 0.65086 0.27911 0.67941 0.0
H2300 H 0.67912 0.34828 0.65696 0.0
H2301 H 0.71646 0.34788 0.67408 0.0
H2302 H 0.68483 0.29456 0.73567 0.0
H2303 H 0.68685 0.2627 0.73405 0.0
H2304 H 0.66302 0.26763 0.71832 0.0
H2305 H 0.66984 0.24117 0.67826 0.0
H2306 H 0.69387 0.23637 0.69388 0.0
H2307 H 0.6962 0.2501 0.66801 0.0
H2308 H 0.75152 0.33972 0.695 0.0
H2309 H 0.77893 0.32771 0.72073 0.0
H2310 H 0.72711 0.26554 0.7314 0.0
C2311 C 0.66485 0.29415 0.67782 0.0
C2312 C 0.66179 0.3137 0.66653 0.0
C2313 C 0.6808 0.33298 0.66523 0.0
C2314 C 0.70216 0.33284 0.67492 0.0
C2315 C 0.70449 0.31327 0.68592 0.0
C2316 C 0.6862 0.29434 0.68747 0.0
C2317 C 0.69279 0.27603 0.70111 0.0
C2318 C 0.68119 0.27521 0.72363 0.0
C2319 C 0.68787 0.24933 0.68432 0.0
C2320 C 0.71754 0.28809 0.70797 0.0
C2321 C 0.72416 0.30913 0.69844 0.0
C2322 C 0.74638 0.32319 0.70235 0.0
C2323 C 0.76195 0.31608 0.71681 0.0
C2324 C 0.75534 0.29534 0.72769 0.0
C2325 C 0.73281 0.28114 0.72293 0.0
H2326 H 0.03394 0.34453 0.95507 0.0
H2327 H 0.97083 0.32147 0.98029 0.0
H2328 H 0.97556 0.3657 1.00218 0.0
H2329 H 0.06172 0.39388 0.01132 0.0
H2330 H 0.07679 0.41492 0.99475 0.0
H2331 H 0.06961 0.38098 0.98284 0.0
H2332 H 0.0502 0.38603 0.94307 0.0
H2333 H 0.05717 0.4199 0.95491 0.0
H2334 H 0.02878 0.40207 0.9443 0.0
H2335 H 0.98457 0.41269 0.01708 0.0
H2336 H 0.99888 0.45945 0.02686 0.0
H2337 H 0.05712 0.45274 0.99413 0.0
C2338 C 0.02132 0.34866 0.96561 0.0
C2339 C 1.00198 0.32933 0.96591 0.0
C2340 C 0.98583 0.33573 0.97981 0.0
C2341 C 0.98835 0.36088 0.99231 0.0
C2342 C 0.00726 0.3795 0.99113 0.0
C2343 C 0.02368 0.37372 0.97848 0.0
C2344 C 0.04198 0.39762 0.97946 0.0
C2345 C 0.06382 0.39679 0.9929 0.0
C2346 C 0.04467 0.40163 0.95392 0.0
C2347 C 0.03289 0.41775 0.99398 0.0
C2348 C 0.01286 0.4068 1.00053 0.0
C2349 C 1.00044 0.42147 0.01249 0.0
C2350 C 0.00867 0.44801 0.01789 0.0
C2351 C 0.02921 0.45971 0.01154 0.0
C2352 C 0.04159 0.44431 0.99968 0.0
H2353 H 0.03172 0.83403 0.17556 0.0
H2354 H 0.02956 0.75663 0.1412 0.0
H2355 H 0.9923 0.74141 0.15254 0.0
H2356 H 0.00676 0.81904 0.22645 0.0
H2357 H 0.99209 0.84299 0.22864 0.0
H2358 H 0.01759 0.84748 0.21622 0.0
H2359 H 0.99782 0.85371 0.17716 0.0
H2360 H 0.97219 0.84898 0.18939 0.0
H2361 H 0.97368 0.82941 0.16055 0.0
H2362 H 0.95515 0.73506 0.16836 0.0
H2363 H 0.92333 0.73724 0.19002 0.0
H2364 H 0.95119 0.81884 0.21631 0.0
C2365 C 0.0233 0.81388 0.17038 0.0
C2366 C 0.03335 0.79641 0.15753 0.0
C2367 C 0.02207 0.77021 0.15117 0.0
C2368 C 1.00089 0.76149 0.15741 0.0
C2369 C 0.9914 0.77924 0.17023 0.0
C2370 C 1.00239 0.80488 0.17685 0.0
C2371 C 0.9893 0.8199 0.19187 0.0
C2372 C 1.0022 0.83313 0.2173 0.0
C2373 C 0.98286 0.83914 0.17897 0.0
C2374 C 0.96921 0.79878 0.19283 0.0
C2375 C 0.97058 0.7755 0.17999 0.0
C2376 C 0.95406 0.7532 0.1786 0.0
C2377 C 0.93607 0.75463 0.19113 0.0
C2378 C 0.93468 0.77818 0.20522 0.0
C2379 C 0.95143 0.80055 0.20559 0.0
H2380 H 0.50604 0.29562 0.07863 0.0
H2381 H 0.51935 0.34273 0.15182 0.0
H2382 H 0.53989 0.37927 0.13761 0.0
H2383 H 0.56132 0.32683 0.06251 0.0
H2384 H 0.54968 0.32374 0.03173 0.0
H2385 H 0.53799 0.30029 0.04789 0.0
H2386 H 0.49957 0.30782 0.03936 0.0
H2387 H 0.51105 0.33101 0.02303 0.0
H2388 H 0.49671 0.33962 0.04801 0.0
H2389 H 0.55447 0.41154 0.11532 0.0
H2390 H 0.56215 0.43794 0.08574 0.0
H2391 H 0.54153 0.37008 0.02706 0.0
C2392 C 0.5135 0.31362 0.09157 0.0
C2393 C 0.51114 0.31657 0.11622 0.0
C2394 C 0.52115 0.34021 0.13283 0.0
C2395 C 0.53293 0.36099 0.12499 0.0
C2396 C 0.53504 0.3576 0.10058 0.0
C2397 C 0.52586 0.33448 0.08412 0.0
C2398 C 0.52984 0.33644 0.05874 0.0
C2399 C 0.54564 0.3209 0.04968 0.0
C2400 C 0.50799 0.32826 0.04127 0.0
C2401 C 0.54086 0.36468 0.06328 0.0
C2402 C 0.54425 0.37636 0.08766 0.0
C2403 C 0.55239 0.40261 0.09623 0.0
C2404 C 0.55662 0.41743 0.07934 0.0
C2405 C 0.55254 0.40591 0.05425 0.0
C2406 C 0.54525 0.3792 0.0462 0.0
H2407 H 0.03375 0.28559 0.31544 0.0
H2408 H 0.07297 0.36424 0.33276 0.0
H2409 H 0.03934 0.37765 0.32395 0.0
H2410 H 0.99384 0.29174 0.2657 0.0
H2411 H 0.97124 0.26957 0.27368 0.0
H2412 H 0.99883 0.26633 0.27827 0.0
H2413 H 0.99551 0.26753 0.32335 0.0
H2414 H 0.96819 0.27141 0.31911 0.0
H2415 H 0.98915 0.29432 0.34193 0.0
H2416 H 1.00147 0.38266 0.31784 0.0
H2417 H 0.96149 0.37891 0.31119 0.0
H2418 H 0.94683 0.29689 0.2978 0.0
C2419 C 0.03526 0.30551 0.31636 0.0
C2420 C 0.05579 0.32392 0.32409 0.0
C2421 C 0.05737 0.3499 0.32599 0.0
C2422 C 0.03837 0.35766 0.32129 0.0
C2423 C 0.01819 0.33906 0.31434 0.0
C2424 C 0.01655 0.31347 0.31136 0.0
C2425 C 0.9928 0.29744 0.30473 0.0
C2426 C 0.98895 0.28026 0.27907 0.0
C2427 C 0.98603 0.28177 0.32341 0.0
C2428 C 0.98124 0.31813 0.30561 0.0
C2429 C 0.99623 0.34196 0.31091 0.0
C2430 C 0.98958 0.36413 0.31325 0.0
C2431 C 0.96697 0.36186 0.30953 0.0
C2432 C 0.95145 0.33767 0.30388 0.0
C2433 C 0.95858 0.31554 0.30207 0.0
H2434 H 0.97567 0.67018 0.5891 0.0
H2435 H 0.03242 0.71155 0.64379 0.0
H2436 H 0.0514 0.67903 0.62949 0.0
H2437 H 0.97947 0.60617 0.59217 0.0
H2438 H 0.97098 0.59357 0.56007 0.0
H2439 H 0.96108 0.61903 0.57588 0.0
H2440 H 0.97606 0.64643 0.5463 0.0
H2441 H 0.98592 0.62107 0.53041 0.0
H2442 H 1.00473 0.65228 0.5424 0.0
H2443 H 0.06515 0.64339 0.60767 0.0
H2444 H 0.07283 0.60795 0.57877 0.0
H2445 H 0.00717 0.59035 0.53881 0.0
C2446 C 0.99201 0.6723 0.59821 0.0
C2447 C 1.00253 0.69338 0.61755 0.0
C2448 C 0.02395 0.69546 0.629 0.0
C2449 C 0.03487 0.67708 0.62106 0.0
C2450 C 0.02406 0.65659 0.60188 0.0
C2451 C 1.00307 0.65403 0.59066 0.0
C2452 C 0.99548 0.63081 0.56978 0.0
C2453 C 0.97557 0.61124 0.57478 0.0
C2454 C 0.99026 0.6381 0.54581 0.0
C2455 C 0.01583 0.62136 0.57038 0.0
C2456 C 0.03201 0.63615 0.58928 0.0
C2457 C 0.05255 0.63149 0.59294 0.0
C2458 C 0.05676 0.61137 0.57655 0.0
C2459 C 0.04058 0.59664 0.55672 0.0
C2460 C 0.0198 0.60142 0.5539 0.0
H2461 H 0.67429 0.85483 0.82744 0.0
H2462 H 0.66954 0.80687 0.87881 0.0
H2463 H 0.69854 0.78956 0.86223 0.0
H2464 H 0.68258 0.81065 0.77804 0.0
H2465 H 0.70259 0.83317 0.76707 0.0
H2466 H 0.68213 0.84342 0.78347 0.0
H2467 H 0.71275 0.87784 0.81469 0.0
H2468 H 0.73313 0.86816 0.79778 0.0
H2469 H 0.73475 0.8687 0.82955 0.0
H2470 H 0.72389 0.77353 0.83747 0.0
H2471 H 0.75243 0.7671 0.81241 0.0
H2472 H 0.74358 0.82753 0.77875 0.0
C2473 C 0.67977 0.84122 0.83564 0.0
C2474 C 0.66945 0.83196 0.85421 0.0
C2475 C 0.67708 0.81412 0.86446 0.0
C2476 C 0.6934 0.80399 0.85505 0.0
C2477 C 0.70221 0.81231 0.83578 0.0
C2478 C 0.69631 0.8311 0.82668 0.0
C2479 C 0.70885 0.83681 0.80615 0.0
C2480 C 0.69309 0.83064 0.78228 0.0
C2481 C 0.72323 0.86452 0.81244 0.0
C2482 C 0.72275 0.81833 0.80538 0.0
C2483 C 0.71809 0.80395 0.8222 0.0
C2484 C 0.72802 0.78491 0.82447 0.0
C2485 C 0.74405 0.78127 0.80996 0.0
C2486 C 0.75025 0.79698 0.79378 0.0
C2487 C 0.73915 0.81539 0.79107 0.0
H2488 H 0.49096 0.60245 0.68251 0.0
H2489 H 0.45929 0.52379 0.68086 0.0
H2490 H 0.47268 0.51059 0.64178 0.0
H2491 H 0.47915 0.59601 0.61673 0.0
H2492 H 0.50486 0.6185 0.61581 0.0
H2493 H 0.49215 0.62141 0.64293 0.0
H2494 H 0.52789 0.62022 0.66764 0.0
H2495 H 0.54072 0.61743 0.64066 0.0
H2496 H 0.5395 0.59404 0.65833 0.0
H2497 H 0.49094 0.5063 0.60004 0.0
H2498 H 0.51214 0.5116 0.56583 0.0
H2499 H 0.53319 0.59287 0.59577 0.0
C2500 C 0.48659 0.58233 0.67402 0.0
C2501 C 0.47358 0.56433 0.68551 0.0
C2502 C 0.46876 0.5383 0.67302 0.0
C2503 C 0.47648 0.53059 0.65054 0.0
C2504 C 0.48918 0.54889 0.63989 0.0
C2505 C 0.49412 0.57434 0.65149 0.0
C2506 C 0.50808 0.59056 0.63669 0.0
C2507 C 0.49531 0.60764 0.62751 0.0
C2508 C 0.53037 0.6065 0.65173 0.0
C2509 C 0.51114 0.57049 0.61539 0.0
C2510 C 0.49968 0.54649 0.61711 0.0
C2511 C 0.49976 0.52519 0.59889 0.0
C2512 C 0.51179 0.52837 0.5791 0.0
C2513 C 0.5243 0.5527 0.57719 0.0
C2514 C 0.52373 0.57391 0.596 0.0
H2515 H 0.78938 0.2226 0.99502 0.0
H2516 H 0.75687 0.14294 0.96349 0.0
H2517 H 0.74058 0.15408 0.92762 0.0
H2518 H 0.74423 0.24798 0.96934 0.0
H2519 H 0.76461 0.27515 0.96516 0.0
H2520 H 0.76972 0.26111 0.99004 0.0
H2521 H 0.80633 0.25569 0.97555 0.0
H2522 H 0.80129 0.26937 0.95059 0.0
H2523 H 0.80573 0.23821 0.94506 0.0
H2524 H 0.7362 0.17324 0.89164 0.0
H2525 H 0.7399 0.1994 0.86125 0.0
H2526 H 0.77232 0.26652 0.91808 0.0
C2527 C 0.77809 0.20767 0.98097 0.0
C2528 C 0.77424 0.18203 0.98186 0.0
C2529 C 0.7597 0.16277 0.96314 0.0
C2530 C 0.75046 0.16893 0.94271 0.0
C2531 C 0.75543 0.19445 0.94181 0.0
C2532 C 0.76839 0.21356 0.96084 0.0
C2533 C 0.77305 0.23918 0.95474 0.0
C2534 C 0.76225 0.2569 0.97078 0.0
C2535 C 0.79807 0.25129 0.95658 0.0
C2536 C 0.7618 0.23141 0.92886 0.0
C2537 C 0.75164 0.20557 0.9216 0.0
C2538 C 0.74324 0.19364 0.89737 0.0
C2539 C 0.74545 0.20855 0.88023 0.0
C2540 C 0.75573 0.23503 0.88759 0.0
C2541 C 0.76349 0.24652 0.91222 0.0
H2542 H 0.1418 0.58731 0.18306 0.0
H2543 H 0.1532 0.51287 0.16285 0.0
H2544 H 0.1312 0.50511 0.12294 0.0
H2545 H 0.08882 0.56943 0.16181 0.0
H2546 H 0.08697 0.59647 0.15007 0.0
H2547 H 0.10846 0.60004 0.1743 0.0
H2548 H 0.13844 0.61748 0.14937 0.0
H2549 H 0.117 0.61491 0.12527 0.0
H2550 H 0.13855 0.59969 0.1192 0.0
H2551 H 0.10007 0.50033 0.09156 0.0
H2552 H 0.06788 0.50308 0.06543 0.0
H2553 H 0.07818 0.58131 0.1041 0.0
C2554 C 0.14055 0.56987 0.16985 0.0
C2555 C 0.14892 0.55053 0.17611 0.0
C2556 C 0.14677 0.52786 0.15845 0.0
C2557 C 0.1343 0.52327 0.13573 0.0
C2558 C 0.12456 0.54177 0.13091 0.0
C2559 C 0.12817 0.56504 0.14709 0.0
C2560 C 0.11376 0.58043 0.13869 0.0
C2561 C 0.09862 0.58695 0.15733 0.0
C2562 C 0.12778 0.60455 0.13277 0.0
C2563 C 0.10062 0.56154 0.11608 0.0
C2564 C 0.10708 0.53936 0.11192 0.0
C2565 C 0.09536 0.51789 0.09407 0.0
C2566 C 0.07697 0.51945 0.07961 0.0
C2567 C 0.07093 0.54239 0.08298 0.0
C2568 C 0.08281 0.56365 0.10131 0.0
H2569 H 0.83099 0.81794 0.46651 0.0
H2570 H 0.80264 0.88171 0.47274 0.0
H2571 H 0.79641 0.87424 0.42851 0.0
H2572 H 0.85897 0.82569 0.41757 0.0
H2573 H 0.85182 0.79267 0.40168 0.0
H2574 H 0.85269 0.80114 0.43401 0.0
H2575 H 0.81237 0.77377 0.42991 0.0
H2576 H 0.81151 0.76481 0.39756 0.0
H2577 H 0.79114 0.77902 0.41008 0.0
H2578 H 0.79607 0.86301 0.38423 0.0
H2579 H 0.79747 0.8452 0.3414 0.0
H2580 H 0.8249 0.78732 0.3614 0.0
C2581 C 0.82306 0.82999 0.45854 0.0
C2582 C 0.81736 0.8505 0.47343 0.0
C2583 C 0.80703 0.86577 0.46207 0.0
C2584 C 0.80352 0.86178 0.43681 0.0
C2585 C 0.80991 0.84203 0.42278 0.0
C2586 C 0.8189 0.82588 0.43306 0.0
C2587 C 0.82381 0.80581 0.41336 0.0
C2588 C 0.84829 0.80639 0.41687 0.0
C2589 C 0.80883 0.77928 0.41269 0.0
C2590 C 0.81765 0.81441 0.39066 0.0
C2591 C 0.80934 0.83513 0.39671 0.0
C2592 C 0.80233 0.84663 0.37926 0.0
C2593 C 0.80327 0.8364 0.35495 0.0
C2594 C 0.81138 0.81497 0.34798 0.0
C2595 C 0.81893 0.80395 0.36618 0.0
H2596 H 0.47264 0.5277 0.82865 0.0
H2597 H 0.4708 0.60611 0.84916 0.0
H2598 H 0.48923 0.60993 0.8903 0.0
H2599 H 0.46023 0.51459 0.88795 0.0
H2600 H 0.47715 0.49304 0.88788 0.0
H2601 H 0.46452 0.49643 0.85966 0.0
H2602 H 0.50278 0.50755 0.84572 0.0
H2603 H 0.51551 0.50431 0.87394 0.0
H2604 H 0.52472 0.53348 0.86436 0.0
H2605 H 0.5094 0.60599 0.92999 0.0
H2606 H 0.52584 0.59385 0.96486 0.0
H2607 H 0.51318 0.51672 0.92173 0.0
C2608 C 0.47606 0.54569 0.8418 0.0
C2609 C 0.47006 0.56673 0.83507 0.0
C2610 C 0.47485 0.58964 0.85336 0.0
C2611 C 0.48553 0.59202 0.87698 0.0
C2612 C 0.49115 0.57113 0.883 0.0
C2613 C 0.4862 0.54818 0.86604 0.0
C2614 C 0.49297 0.52834 0.87793 0.0
C2615 C 0.4725 0.50681 0.87837 0.0
C2616 C 0.51001 0.5178 0.86469 0.0
C2617 C 0.50316 0.54387 0.90382 0.0
C2618 C 0.50189 0.56856 0.9062 0.0
C2619 C 0.51019 0.5866 0.92818 0.0
C2620 C 0.51965 0.57942 0.94814 0.0
C2621 C 0.52106 0.55418 0.9468 0.0
C2622 C 0.51261 0.53622 0.9239 0.0
H2623 H 0.79745 0.17833 0.11444 0.0
H2624 H 0.81079 0.23823 0.07567 0.0
H2625 H 0.80263 0.26771 0.1097 0.0
H2626 H 0.75363 0.20141 0.14834 0.0
H2627 H 0.76319 0.19313 0.1754 0.0
H2628 H 0.76486 0.17457 0.14609 0.0
H2629 H 0.80676 0.18212 0.15866 0.0
H2630 H 0.80516 0.20055 0.18789 0.0
H2631 H 0.82426 0.21423 0.16944 0.0
H2632 H 0.79871 0.29234 0.14872 0.0
H2633 H 0.80249 0.3118 0.19222 0.0
H2634 H 0.79308 0.23746 0.20778 0.0
C2635 C 0.79815 0.19752 0.11303 0.0
C2636 C 0.8049 0.20611 0.09252 0.0
C2637 C 0.80594 0.23138 0.09134 0.0
C2638 C 0.80101 0.24817 0.11043 0.0
C2639 C 0.79503 0.23948 0.13068 0.0
C2640 C 0.79356 0.21477 0.13225 0.0
C2641 C 0.78968 0.21154 0.15745 0.0
C2642 C 0.76646 0.19413 0.15677 0.0
C2643 C 0.80754 0.20154 0.16903 0.0
C2644 C 0.79137 0.23879 0.17018 0.0
C2645 C 0.79338 0.25424 0.15404 0.0
C2646 C 0.79681 0.28043 0.16152 0.0
C2647 C 0.79905 0.29134 0.18627 0.0
C2648 C 0.79824 0.27614 0.20325 0.0
C2649 C 0.79361 0.24944 0.19507 0.0
H2650 H 0.15246 0.56718 0.32344 0.0
H2651 H 0.09669 0.56718 0.27412 0.0
H2652 H 0.08695 0.59742 0.30688 0.0
H2653 H 0.13435 0.56784 0.37294 0.0
H2654 H 0.15768 0.59047 0.39297 0.0
H2655 H 0.16169 0.57312 0.36459 0.0
H2656 H 0.17965 0.61518 0.35311 0.0
H2657 H 0.17563 0.63295 0.38176 0.0
H2658 H 0.16504 0.63908 0.35394 0.0
H2659 H 0.07901 0.61723 0.34688 0.0
H2660 H 0.07235 0.62101 0.38886 0.0
H2661 H 0.13887 0.61857 0.4102 0.0
C2662 C 0.13898 0.57428 0.31874 0.0
C2663 C 0.12575 0.56503 0.29596 0.0
C2664 C 0.10724 0.57413 0.29147 0.0
C2665 C 0.10185 0.59165 0.30979 0.0
C2666 C 0.11594 0.60097 0.33188 0.0
C2667 C 0.13453 0.59299 0.33606 0.0
C2668 C 0.14609 0.60369 0.36176 0.0
C2669 C 0.15011 0.58252 0.37373 0.0
C2670 C 0.16789 0.62393 0.36269 0.0
C2671 C 0.12921 0.61575 0.37254 0.0
C2672 C 0.11231 0.61489 0.35484 0.0
C2673 C 0.09245 0.61907 0.36081 0.0
C2674 C 0.08885 0.62144 0.3849 0.0
C2675 C 0.10509 0.61958 0.40257 0.0
C2676 C 0.12631 0.61998 0.39681 0.0
H2677 H 0.83366 0.87743 0.62992 0.0
H2678 H 0.79472 0.81104 0.57559 0.0
H2679 H 0.78378 0.7891 0.6079 0.0
H2680 H 0.85471 0.84508 0.66932 0.0
H2681 H 0.85302 0.86611 0.69724 0.0
H2682 H 0.85614 0.87789 0.67034 0.0
H2683 H 0.82104 0.89314 0.67449 0.0
H2684 H 0.81787 0.88151 0.70152 0.0
H2685 H 0.79558 0.87089 0.67659 0.0
H2686 H 0.77843 0.77353 0.64483 0.0
H2687 H 0.77975 0.76325 0.68432 0.0
H2688 H 0.82314 0.83866 0.71751 0.0
C2689 C 0.8225 0.85842 0.62498 0.0
C2690 C 0.81472 0.84596 0.60017 0.0
C2691 C 0.80057 0.82098 0.59434 0.0
C2692 C 0.7943 0.80842 0.61263 0.0
C2693 C 0.80231 0.82105 0.63683 0.0
C2694 C 0.81607 0.84551 0.64318 0.0
C2695 C 0.82299 0.854 0.6707 0.0
C2696 C 0.84822 0.86118 0.67728 0.0
C2697 C 0.81383 0.87621 0.68146 0.0
C2698 C 0.81178 0.83001 0.67867 0.0
C2699 C 0.79959 0.81164 0.65864 0.0
C2700 C 0.78785 0.78778 0.6606 0.0
C2701 C 0.78877 0.78215 0.68333 0.0
C2702 C 0.80149 0.8 0.70435 0.0
C2703 C 0.813 0.8246 0.70201 0.0
H2704 H 0.74662 0.46122 0.49539 0.0
H2705 H 0.77819 0.47859 0.56982 0.0
H2706 H 0.74646 0.49163 0.58408 0.0
H2707 H 0.72776 0.51344 0.50084 0.0
H2708 H 0.7016 0.49853 0.48162 0.0
H2709 H 0.72438 0.4852 0.47724 0.0
H2710 H 0.70052 0.44193 0.48206 0.0
H2711 H 0.67761 0.45525 0.48663 0.0
H2712 H 0.68765 0.44058 0.50888 0.0
H2713 H 0.71485 0.50854 0.59037 0.0
H2714 H 0.68554 0.5301 0.58798 0.0
H2715 H 0.67478 0.50383 0.50966 0.0
C2716 C 0.74639 0.46698 0.51466 0.0
C2717 C 0.7647 0.46886 0.53149 0.0
C2718 C 0.76428 0.4771 0.5566 0.0
C2719 C 0.74624 0.4843 0.56494 0.0
C2720 C 0.72867 0.48303 0.54796 0.0
C2721 C 0.72848 0.47453 0.52335 0.0
C2722 C 0.70883 0.47826 0.50897 0.0
C2723 C 0.71609 0.49486 0.49114 0.0
C2724 C 0.69269 0.45247 0.49586 0.0
C2725 C 0.69911 0.49185 0.52927 0.0
C2726 C 0.71037 0.49359 0.55163 0.0
C2727 C 0.70563 0.50701 0.573 0.0
C2728 C 0.68917 0.51946 0.57143 0.0
C2729 C 0.67801 0.51881 0.54862 0.0
C2730 C 0.68273 0.50429 0.52738 0.0
H2731 H 0.19448 0.12691 0.45657 0.0
H2732 H 0.22568 0.1554 0.53128 0.0
H2733 H 0.19041 0.13654 0.54481 0.0
H2734 H 0.14102 0.13917 0.46923 0.0
H2735 H 0.12531 0.11174 0.44614 0.0
H2736 H 0.15277 0.12845 0.44271 0.0
H2737 H 0.16423 0.08647 0.43736 0.0
H2738 H 0.13688 0.06969 0.44082 0.0
H2739 H 0.16044 0.06867 0.46035 0.0
H2740 H 0.15159 0.11214 0.54978 0.0
H2741 H 0.11316 0.08534 0.5457 0.0
H2742 H 0.10732 0.07399 0.46773 0.0
C2743 C 0.19378 0.12942 0.47578 0.0
C2744 C 0.21276 0.14269 0.49288 0.0
C2745 C 0.21124 0.14561 0.51788 0.0
C2746 C 0.19129 0.13487 0.52572 0.0
C2747 C 0.17284 0.12179 0.50835 0.0
C2748 C 0.17387 0.1194 0.4839 0.0
C2749 C 0.1517 0.10471 0.46888 0.0
C2750 C 0.14214 0.12204 0.45597 0.0
C2751 C 0.15343 0.08097 0.4508 0.0
C2752 C 0.13837 0.09774 0.48847 0.0
C2753 C 0.15068 0.10817 0.5112 0.0
C2754 C 0.14181 0.10412 0.53206 0.0
C2755 C 0.11993 0.08892 0.52958 0.0
C2756 C 0.10724 0.07762 0.50639 0.0
C2757 C 0.11661 0.08238 0.48568 0.0
H2758 H 0.23773 0.95957 0.80867 0.0
H2759 H 0.19029 0.93364 0.74305 0.0
H2760 H 0.20289 0.89461 0.73251 0.0
H2761 H 0.28208 0.93659 0.78406 0.0
H2762 H 0.29069 0.92712 0.81082 0.0
H2763 H 0.27761 0.95249 0.81331 0.0
H2764 H 0.24818 0.92873 0.83524 0.0
H2765 H 0.26116 0.90325 0.83276 0.0
H2766 H 0.23238 0.89653 0.82104 0.0
H2767 H 0.22062 0.85473 0.73028 0.0
H2768 H 0.24242 0.82426 0.73445 0.0
H2769 H 0.28099 0.87679 0.79966 0.0
C2770 C 0.22994 0.94589 0.79188 0.0
C2771 C 0.21266 0.95078 0.77677 0.0
C2772 C 0.2034 0.93143 0.75519 0.0
C2773 C 0.21055 0.90876 0.74906 0.0
C2774 C 0.22741 0.9047 0.76438 0.0
C2775 C 0.2371 0.92309 0.78535 0.0
C2776 C 0.25505 0.91442 0.79878 0.0
C2777 C 0.27771 0.93382 0.80193 0.0
C2778 C 0.24883 0.91052 0.82343 0.0
C2779 C 0.25464 0.88876 0.78195 0.0
C2780 C 0.23809 0.8831 0.76247 0.0
C2781 C 0.23371 0.85962 0.7454 0.0
C2782 C 0.24634 0.84207 0.74796 0.0
C2783 C 0.26413 0.84747 0.76712 0.0
C2784 C 0.26802 0.87159 0.78436 0.0
H2785 H 0.39263 0.98442 0.04769 0.0
H2786 H 0.36667 0.99954 0.98113 0.0
H2787 H 0.40429 1.0084 0.9695 0.0
H2788 H 0.44744 0.02861 0.05914 0.0
H2789 H 0.45969 1.00601 0.06925 0.0
H2790 H 0.43171 1.00544 0.0733 0.0
H2791 H 0.41929 0.95784 0.05048 0.0
H2792 H 0.44711 0.95864 0.04537 0.0
H2793 H 0.42517 0.94872 0.0201 0.0
H2794 H 0.44376 0.01077 0.96375 0.0
H2795 H 0.48344 0.01388 0.96709 0.0
H2796 H 0.48146 0.99329 0.03629 0.0
C2797 C 0.39495 0.99033 0.03096 0.0
C2798 C 0.377 0.99136 0.01521 0.0
C2799 C 0.38044 0.999 0.99347 0.0
C2800 C 0.4016 1.00367 0.98664 0.0
C2801 C 0.41864 1.00038 1.00181 0.0
C2802 C 0.41555 0.99428 0.0237 0.0
C2803 C 0.43581 0.98989 0.03599 0.0
C2804 C 0.44416 1.00863 0.06088 0.0
C2805 C 0.43158 0.96213 0.0381 0.0
C2806 C 0.45119 0.99533 0.01795 0.0
C2807 C 0.44094 1.00092 0.99818 0.0
C2808 C 0.45199 1.00659 0.97919 0.0
C2809 C 0.47446 1.00801 0.98116 0.0
C2810 C 0.48549 1.00405 1.00213 0.0
C2811 C 0.47347 0.99658 0.02018 0.0
H2812 H 0.90924 0.58478 0.75462 0.0
H2813 H 0.88162 0.58231 0.82146 0.0
H2814 H 0.85045 0.59568 0.80533 0.0
H2815 H 0.90027 0.63915 0.74713 0.0
H2816 H 0.89207 0.63029 0.71476 0.0
H2817 H 0.90952 0.61466 0.72854 0.0
H2818 H 0.88179 0.57077 0.70934 0.0
H2819 H 0.86432 0.58619 0.69498 0.0
H2820 H 0.85332 0.5654 0.71388 0.0
H2821 H 0.82613 0.61475 0.78588 0.0
H2822 H 0.81003 0.64119 0.76468 0.0
H2823 H 0.85361 0.63412 0.71061 0.0
C2824 C 0.8964 0.58659 0.76567 0.0
C2825 C 0.8979 0.58269 0.78935 0.0
C2826 C 0.88084 0.58524 0.80329 0.0
C2827 C 0.86294 0.59257 0.79419 0.0
C2828 C 0.86222 0.59688 0.77105 0.0
C2829 C 0.87837 0.5939 0.75684 0.0
C2830 C 0.87485 0.60271 0.73379 0.0
C2831 C 0.89539 0.62293 0.73092 0.0
C2832 C 0.86818 0.57991 0.71169 0.0
C2833 C 0.85558 0.61359 0.7386 0.0
C2834 C 0.848 0.60874 0.75963 0.0
C2835 C 0.83134 0.61797 0.76898 0.0
C2836 C 0.82224 0.63286 0.75673 0.0
C2837 C 0.83009 0.63882 0.7356 0.0
C2838 C 0.84689 0.62899 0.72625 0.0
H2839 H 0.82969 0.62534 0.0077 0.0
H2840 H 0.86145 0.70627 0.03113 0.0
H2841 H 0.89731 0.69754 0.04061 0.0
H2842 H 0.86277 0.60392 0.05054 0.0
H2843 H 0.86382 0.57637 0.02827 0.0
H2844 H 0.84046 0.58908 0.02583 0.0
H2845 H 0.8467 0.59314 0.9824 0.0
H2846 H 0.87017 0.58062 0.98478 0.0
H2847 H 0.87321 0.61104 0.9775 0.0
H2848 H 0.93035 0.67969 0.04503 0.0
H2849 H 0.9574 0.65419 0.04381 0.0
H2850 H 0.90418 0.58514 0.01646 0.0
C2851 C 0.84412 0.64118 0.01541 0.0
C2852 C 0.84279 0.66649 0.01899 0.0
C2853 C 0.86213 0.68675 0.02831 0.0
C2854 C 0.88255 0.68195 0.03379 0.0
C2855 C 0.88343 0.65676 0.0295 0.0
C2856 C 0.8647 0.6367 0.02047 0.0
C2857 C 0.87034 0.6115 0.0156 0.0
C2858 C 0.85865 0.5942 0.03099 0.0
C2859 C 0.86477 0.5983 0.98846 0.0
C2860 C 0.89507 0.62039 0.02362 0.0
C2861 C 0.90237 0.64658 0.03156 0.0
C2862 C 0.92476 0.65918 0.03898 0.0
C2863 C 0.94 0.64463 0.03819 0.0
C2864 C 0.93276 0.61784 0.03014 0.0
C2865 C 0.91003 0.60563 0.02288 0.0
H2866 H 0.20211 0.10191 0.7666 0.0
H2867 H 0.24978 0.09424 0.82214 0.0
H2868 H 0.27285 0.13677 0.82356 0.0
H2869 H 0.24297 0.1373 0.73496 0.0
H2870 H 0.22737 0.15874 0.72874 0.0
H2871 H 0.21325 0.12752 0.73181 0.0
H2872 H 0.19362 0.14772 0.76507 0.0
H2873 H 0.20786 0.17902 0.76224 0.0
H2874 H 0.20984 0.17117 0.79124 0.0
H2875 H 0.29115 0.18075 0.82141 0.0
H2876 H 0.30667 0.22139 0.81138 0.0
H2877 H 0.25115 0.20458 0.75458 0.0
C2878 C 0.21744 0.1091 0.77902 0.0
C2879 C 0.22357 0.09375 0.79447 0.0
C2880 C 0.24401 0.10471 0.8102 0.0
C2881 C 0.25748 0.12929 0.81123 0.0
C2882 C 0.25092 0.1438 0.79637 0.0
C2883 C 0.23157 0.1342 0.78023 0.0
C2884 C 0.22935 0.15449 0.76604 0.0
C2885 C 0.22817 0.14387 0.73876 0.0
C2886 C 0.20894 0.16363 0.77145 0.0
C2887 C 0.25073 0.17636 0.77631 0.0
C2888 C 0.26237 0.1696 0.79428 0.0
C2889 C 0.28217 0.18608 0.80727 0.0
C2890 C 0.29085 0.20954 0.80146 0.0
C2891 C 0.28041 0.21724 0.78238 0.0
C2892 C 0.25962 0.20016 0.76972 0.0
H2893 H 0.41934 0.96576 0.29672 0.0
H2894 H 0.37046 1.00224 0.27587 0.0
H2895 H 0.34441 0.96032 0.25675 0.0
H2896 H 0.39695 0.90262 0.24325 0.0
H2897 H 0.40318 0.88428 0.26403 0.0
H2898 H 0.42101 0.9156 0.26608 0.0
H2899 H 0.41632 0.92821 0.31117 0.0
H2900 H 0.39794 0.89749 0.3091 0.0
H2901 H 0.38899 0.92559 0.31916 0.0
H2902 H 0.32095 0.91754 0.25165 0.0
H2903 H 0.30215 0.87549 0.25836 0.0
H2904 H 0.36512 0.86678 0.28537 0.0
C2905 C 0.40343 0.9646 0.28714 0.0
C2906 C 0.39642 0.98658 0.28774 0.0
C2907 C 0.37565 0.98516 0.27563 0.0
C2908 C 0.361 0.96155 0.26445 0.0
C2909 C 0.36755 0.93983 0.26575 0.0
C2910 C 0.38852 0.94104 0.27632 0.0
C2911 C 0.38984 0.91542 0.28004 0.0
C2912 C 0.40356 0.90381 0.26228 0.0
C2913 C 0.39877 0.9168 0.30643 0.0
C2914 C 0.36578 0.90099 0.27347 0.0
C2915 C 0.35342 0.91482 0.26392 0.0
C2916 C 0.33047 0.90629 0.25861 0.0
C2917 C 0.31992 0.88288 0.263 0.0
C2918 C 0.33241 0.86906 0.27327 0.0
C2919 C 0.35547 0.87783 0.27819 0.0
H2920 H 0.56228 0.39403 0.60121 0.0
H2921 H 0.60815 0.36769 0.55742 0.0
H2922 H 0.60641 0.39982 0.53348 0.0
H2923 H 0.5278 0.40491 0.55543 0.0
H2924 H 0.52364 0.43345 0.57342 0.0
H2925 H 0.52965 0.40971 0.58784 0.0
H2926 H 0.56323 0.44328 0.61538 0.0
H2927 H 0.55706 0.46724 0.60136 0.0
H2928 H 0.58404 0.46203 0.60186 0.0
H2929 H 0.59819 0.43475 0.51339 0.0
H2930 H 0.58632 0.4699 0.50095 0.0
H2931 H 0.54533 0.47269 0.55773 0.0
C2932 C 0.57236 0.39541 0.5869 0.0
C2933 C 0.58569 0.37861 0.58146 0.0
C2934 C 0.59828 0.38071 0.56232 0.0
C2935 C 0.59718 0.39878 0.54849 0.0
C2936 C 0.58353 0.41477 0.55412 0.0
C2937 C 0.57161 0.41344 0.57318 0.0
C2938 C 0.55816 0.43264 0.57573 0.0
C2939 C 0.53334 0.41937 0.57293 0.0
C2940 C 0.5661 0.45247 0.60002 0.0
C2941 C 0.56374 0.44459 0.55467 0.0
C2942 C 0.57855 0.43421 0.5425 0.0
C2943 C 0.58656 0.44282 0.52282 0.0
C2944 C 0.57963 0.4627 0.51575 0.0
C2945 C 0.56451 0.4736 0.52796 0.0
C2946 C 0.55643 0.46426 0.54762 0.0
H2947 H 0.43334 0.73751 0.36498 0.0
H2948 H 0.47379 0.81546 0.38064 0.0
H2949 H 0.44232 0.82847 0.36381 0.0
H2950 H 0.40894 0.73935 0.30714 0.0
H2951 H 0.38236 0.71845 0.30799 0.0
H2952 H 0.40677 0.71581 0.32476 0.0
H2953 H 0.38932 0.72182 0.36418 0.0
H2954 H 0.3648 0.7244 0.34751 0.0
H2955 H 0.37941 0.74936 0.37343 0.0
H2956 H 0.40618 0.83293 0.34422 0.0
H2957 H 0.37062 0.82763 0.3191 0.0
H2958 H 0.35498 0.74608 0.3111 0.0
C2959 C 0.43531 0.75741 0.36549 0.0
C2960 C 0.45582 0.77569 0.37514 0.0
C2961 C 0.45807 0.80132 0.37423 0.0
C2962 C 0.44026 0.80886 0.36456 0.0
C2963 C 0.4203 0.79042 0.35503 0.0
C2964 C 0.41785 0.76512 0.355 0.0
C2965 C 0.39558 0.7487 0.34098 0.0
C2966 C 0.3986 0.72944 0.31891 0.0
C2967 C 0.38144 0.73528 0.35752 0.0
C2968 C 0.38589 0.76864 0.33324 0.0
C2969 C 0.40024 0.79267 0.34196 0.0
C2970 C 0.39486 0.81417 0.33732 0.0
C2971 C 0.37453 0.811 0.32312 0.0
C2972 C 0.35991 0.78647 0.31319 0.0
C2973 C 0.36574 0.76509 0.31852 0.0
H2974 H 0.05337 0.73621 0.05073 0.0
H2975 H 0.10934 0.75726 0.1079 0.0
H2976 H 0.1151 0.71504 0.09502 0.0
H2977 H 0.03071 0.6753 0.05431 0.0
H2978 H 0.02381 0.66072 0.02234 0.0
H2979 H 0.02587 0.69391 0.03316 0.0
H2980 H 0.05471 0.70544 1.00492 0.0
H2981 H 0.05263 0.67216 0.99387 0.0
H2982 H 0.07911 0.69445 0.00644 0.0
H2983 H 0.11266 0.66976 0.07966 0.0
H2984 H 0.10195 0.62358 0.06261 0.0
H2985 H 0.04721 0.63005 0.01529 0.0
C2986 C 0.06716 0.73214 0.06013 0.0
C2987 C 0.0809 0.75027 0.08036 0.0
C2988 C 0.09865 0.74399 0.09227 0.0
C2989 C 0.10212 0.71996 0.08506 0.0
C2990 C 0.08801 0.70238 0.06556 0.0
C2991 C 0.07107 0.70817 0.05296 0.0
C2992 C 0.05771 0.68509 0.03339 0.0
C2993 C 0.03307 0.67836 0.03599 0.0
C2994 C 0.06124 0.68955 0.00816 0.0
C2995 C 0.06841 0.66495 0.03873 0.0
C2996 C 0.08642 0.6757 0.05671 0.0
C2997 C 0.09882 0.66117 0.0653 0.0
C2998 C 0.09259 0.6349 0.05544 0.0
C2999 C 0.0738 0.62319 0.03755 0.0
C3000 C 0.06167 0.63851 0.02892 0.0
H3001 H 0.08476 0.2492 0.86755 0.0
H3002 H 0.07801 0.32501 0.89383 0.0
H3003 H 0.11504 0.3434 0.88361 0.0
H3004 H 0.14385 0.26484 0.88947 0.0
H3005 H 0.14856 0.2432 0.86362 0.0
H3006 H 0.12226 0.23661 0.87437 0.0
H3007 H 0.10247 0.23376 0.83168 0.0
H3008 H 0.12867 0.24024 0.82085 0.0
H3009 H 0.11065 0.26009 0.81771 0.0
H3010 H 0.15196 0.3528 0.86628 0.0
H3011 H 0.18508 0.35205 0.84607 0.0
H3012 H 0.16713 0.26991 0.83342 0.0
C3013 C 0.09111 0.2697 0.8714 0.0
C3014 C 0.07846 0.28565 0.88141 0.0
C3015 C 0.08746 0.3124 0.88626 0.0
C3016 C 0.10846 0.323 0.88047 0.0
C3017 C 0.12037 0.30659 0.87026 0.0
C3018 C 0.11202 0.2805 0.86612 0.0
C3019 C 0.12763 0.26675 0.85463 0.0
C3020 C 0.13607 0.25198 0.87153 0.0
C3021 C 0.1167 0.24919 0.82974 0.0
C3022 C 0.14584 0.28902 0.85219 0.0
C3023 C 0.14153 0.31194 0.8613 0.0
C3024 C 0.15558 0.33494 0.85946 0.0
C3025 C 0.17429 0.33435 0.84789 0.0
C3026 C 0.17885 0.31094 0.83849 0.0
C3027 C 0.16446 0.28815 0.84099 0.0
H3028 H 0.54978 0.74394 0.90547 0.0
H3029 H 0.6097 0.79903 0.94549 0.0
H3030 H 0.60928 0.77416 0.97684 0.0
H3031 H 0.52291 0.73004 0.95451 0.0
H3032 H 0.51215 0.69643 0.94114 0.0
H3033 H 0.51736 0.71851 0.92205 0.0
H3034 H 0.54273 0.69429 0.90015 0.0
H3035 H 0.53735 0.67193 0.91896 0.0
H3036 H 0.56536 0.68878 0.91767 0.0
H3037 H 0.60094 0.74455 1.00443 0.0
H3038 H 0.58776 0.70952 0.02458 0.0
H3039 H 0.53463 0.67263 0.96494 0.0
C3040 C 0.56276 0.75074 0.9209 0.0
C3041 C 0.57958 0.77344 0.92352 0.0
C3042 C 0.59666 0.78165 0.94346 0.0
C3043 C 0.59649 0.76772 0.96126 0.0
C3044 C 0.57942 0.74551 0.95832 0.0
C3045 C 0.56313 0.7368 0.93839 0.0
C3046 C 0.54713 0.71188 0.93896 0.0
C3047 C 0.52349 0.71438 0.93919 0.0
C3048 C 0.54822 0.69046 0.91768 0.0
C3049 C 0.55651 0.70831 0.96281 0.0
C3050 C 0.57511 0.72795 0.97371 0.0
C3051 C 0.5865 0.72902 0.99605 0.0
C3052 C 0.57888 0.70927 0.00739 0.0
C3053 C 0.5602 0.68888 0.99624 0.0
C3054 C 0.54884 0.68833 0.97377 0.0
H3055 H 0.05568 0.72539 0.71089 0.0
H3056 H 0.06528 0.80273 0.70266 0.0
H3057 H 0.10527 0.81166 0.71514 0.0
H3058 H 0.09716 0.74024 0.76346 0.0
H3059 H 0.1058 0.71192 0.75346 0.0
H3060 H 0.07773 0.71188 0.74482 0.0
H3061 H 0.08149 0.69744 0.69951 0.0
H3062 H 0.10951 0.6973 0.708 0.0
H3063 H 0.10359 0.71588 0.6873 0.0
H3064 H 0.14426 0.81155 0.72666 0.0
H3065 H 0.17965 0.80227 0.7372 0.0
H3066 H 0.14396 0.72521 0.73757 0.0
C3067 C 0.06613 0.74431 0.71204 0.0
C3068 C 0.05742 0.76339 0.70601 0.0
C3069 C 0.07165 0.78785 0.70741 0.0
C3070 C 0.09436 0.79313 0.71443 0.0
C3071 C 0.10244 0.77378 0.72005 0.0
C3072 C 0.08878 0.74991 0.71901 0.0
C3073 C 0.10167 0.73223 0.72523 0.0
C3074 C 0.0952 0.72357 0.74811 0.0
C3075 C 0.0989 0.70937 0.70373 0.0
C3076 C 0.1247 0.74988 0.72988 0.0
C3077 C 0.12486 0.77376 0.72679 0.0
C3078 C 0.14438 0.79299 0.72932 0.0
C3079 C 0.16431 0.78754 0.73518 0.0
C3080 C 0.16434 0.76311 0.73836 0.0
C3081 C 0.1443 0.74418 0.73575 0.0
H3082 H 0.11269 0.3939 0.43362 0.0
H3083 H 0.06096 0.39182 0.37766 0.0
H3084 H 0.05937 0.43408 0.39882 0.0
H3085 H 0.09195 0.41551 0.48059 0.0
H3086 H 0.11589 0.43801 0.49969 0.0
H3087 H 0.11922 0.41223 0.47706 0.0
H3088 H 0.14545 0.44389 0.45814 0.0
H3089 H 0.14253 0.46992 0.4811 0.0
H3090 H 0.13659 0.46946 0.44956 0.0
H3091 H 0.05472 0.46724 0.42957 0.0
H3092 H 0.05005 0.49378 0.46725 0.0
H3093 H 0.10579 0.47855 0.50525 0.0
C3094 C 0.10193 0.40312 0.4254 0.0
C3095 C 0.08698 0.38992 0.40407 0.0
C3096 C 0.07251 0.40183 0.39398 0.0
C3097 C 0.07163 0.42589 0.40578 0.0
C3098 C 0.08548 0.4379 0.42758 0.0
C3099 C 0.10082 0.42739 0.43717 0.0
C3100 C 0.11124 0.44283 0.46262 0.0
C3101 C 0.10943 0.42613 0.48106 0.0
C3102 C 0.13538 0.45738 0.46286 0.0
C3103 C 0.0971 0.46114 0.46685 0.0
C3104 C 0.08305 0.45851 0.44595 0.0
C3105 C 0.06629 0.47042 0.44575 0.0
C3106 C 0.06371 0.48542 0.46739 0.0
C3107 C 0.07797 0.48882 0.48902 0.0
C3108 C 0.09509 0.47678 0.48876 0.0
H3109 H 0.44571 0.2845 0.19827 0.0
H3110 H 0.42915 0.20231 0.1832 0.0
H3111 H 0.40083 0.20229 0.21085 0.0
H3112 H 0.44043 0.29222 0.26259 0.0
H3113 H 0.43053 0.3199 0.26377 0.0
H3114 H 0.44931 0.31307 0.24302 0.0
H3115 H 0.4217 0.31365 0.20691 0.0
H3116 H 0.40328 0.32123 0.22765 0.0
H3117 H 0.39368 0.29386 0.20242 0.0
H3118 H 0.37352 0.21181 0.23808 0.0
H3119 H 0.34664 0.22917 0.25968 0.0
H3120 H 0.38381 0.3056 0.25898 0.0
C3121 C 0.43567 0.26648 0.20036 0.0
C3122 C 0.43866 0.24332 0.18811 0.0
C3123 C 0.4263 0.22009 0.19201 0.0
C3124 C 0.4106 0.22001 0.20792 0.0
C3125 C 0.40841 0.24338 0.22025 0.0
C3126 C 0.42067 0.26616 0.21668 0.0
C3127 C 0.41537 0.2887 0.23201 0.0
C3128 C 0.43508 0.30439 0.2515 0.0
C3129 C 0.40804 0.3053 0.2163 0.0
C3130 C 0.39668 0.27497 0.24318 0.0
C3131 C 0.39343 0.2489 0.23685 0.0
C3132 C 0.37605 0.23216 0.24347 0.0
C3133 C 0.36088 0.24223 0.25571 0.0
C3134 C 0.36307 0.2687 0.26072 0.0
C3135 C 0.38181 0.28532 0.25551 0.0
H3136 H 0.64355 0.562 0.36191 0.0
H3137 H 0.63087 0.48055 0.33575 0.0
H3138 H 0.60986 0.47383 0.36944 0.0
H3139 H 0.65044 0.56067 0.42753 0.0
H3140 H 0.63788 0.58593 0.43707 0.0
H3141 H 0.652 0.585 0.41092 0.0
H3142 H 0.61693 0.58606 0.38497 0.0
H3143 H 0.60275 0.58707 0.41104 0.0
H3144 H 0.59125 0.56249 0.38381 0.0
H3145 H 0.58848 0.47515 0.40602 0.0
H3146 H 0.56951 0.48415 0.44132 0.0
H3147 H 0.59564 0.565 0.44785 0.0
C3148 C 0.63651 0.54271 0.36333 0.0
C3149 C 0.63942 0.52173 0.3455 0.0
C3150 C 0.62953 0.49705 0.34871 0.0
C3151 C 0.61734 0.49302 0.36802 0.0
C3152 C 0.61497 0.5138 0.38516 0.0
C3153 C 0.62447 0.53828 0.38321 0.0
C3154 C 0.61961 0.55713 0.40476 0.0
C3155 C 0.64127 0.57316 0.42103 0.0
C3156 C 0.60688 0.5742 0.39559 0.0
C3157 C 0.60532 0.53953 0.41853 0.0
C3158 C 0.60313 0.51458 0.40678 0.0
C3159 C 0.59052 0.4947 0.41536 0.0
C3160 C 0.5798 0.50009 0.43588 0.0
C3161 C 0.5813 0.52529 0.4488 0.0
C3162 C 0.59453 0.54539 0.43959 0.0
H3163 H 0.32984 0.91717 0.09143 0.0
H3164 H 0.31633 0.85094 0.03177 0.0
H3165 H 0.32775 0.82646 0.05957 0.0
H3166 H 0.37903 0.91014 0.11298 0.0
H3167 H 0.37826 0.92193 0.14466 0.0
H3168 H 0.36361 0.93263 0.12231 0.0
H3169 H 0.32663 0.91771 0.13832 0.0
H3170 H 0.34142 0.90854 0.16176 0.0
H3171 H 0.31788 0.88572 0.14228 0.0
H3172 H 0.34622 0.81209 0.09169 0.0
H3173 H 0.36224 0.80442 0.12914 0.0
H3174 H 0.36774 0.88211 0.16688 0.0
C3175 C 0.32781 0.89699 0.08471 0.0
C3176 C 0.32157 0.88541 0.05991 0.0
C3177 C 0.32035 0.85955 0.05101 0.0
C3178 C 0.32724 0.84581 0.06654 0.0
C3179 C 0.33557 0.85861 0.09051 0.0
C3180 C 0.33545 0.88345 0.09972 0.0
C3181 C 0.34778 0.89384 0.12518 0.0
C3182 C 0.36838 0.91594 0.12633 0.0
C3183 C 0.33251 0.90189 0.14293 0.0
C3184 C 0.35422 0.87062 0.12913 0.0
C3185 C 0.34743 0.85077 0.10872 0.0
C3186 C 0.35147 0.82737 0.10788 0.0
C3187 C 0.36102 0.82339 0.12916 0.0
C3188 C 0.36614 0.8427 0.15089 0.0
C3189 C 0.36397 0.86708 0.15047 0.0
H3190 H 1.00582 0.58564 0.87098 0.0
H3191 H 0.96869 0.50784 0.8376 0.0
H3192 H 0.97672 0.49548 0.8761 0.0
H3193 H 0.04885 0.57122 0.89953 0.0
H3194 H 0.0539 0.59686 0.92617 0.0
H3195 H 0.04139 0.59996 0.89793 0.0
H3196 H 0.00804 0.60915 0.91816 0.0
H3197 H 0.02057 0.60599 0.94653 0.0
H3198 H 0.993 0.5868 0.93358 0.0
H3199 H 0.99141 0.49173 0.91723 0.0
H3200 H 0.01584 0.49527 0.95495 0.0
H3201 H 0.04567 0.57484 0.95853 0.0
C3202 C 0.99935 0.56607 0.87199 0.0
C3203 C 0.98709 0.54751 0.85182 0.0
C3204 C 0.97858 0.52204 0.85319 0.0
C3205 C 0.9827 0.51504 0.87494 0.0
C3206 C 0.99525 0.5339 0.89471 0.0
C3207 C 1.00361 0.55883 0.89326 0.0
C3208 C 0.01917 0.57478 0.91558 0.0
C3209 C 0.04218 0.58636 0.90943 0.0
C3210 C 0.00961 0.59539 0.92927 0.0
C3211 C 0.01939 0.55467 0.92931 0.0
C3212 C 1.00476 0.53145 0.91759 0.0
C3213 C 1.00282 0.50982 0.9266 0.0
C3214 C 0.01672 0.51194 0.9478 0.0
C3215 C 0.03262 0.53523 0.95883 0.0
C3216 C 0.03369 0.55686 0.94991 0.0
H3217 H 0.32931 0.26612 0.58469 0.0
H3218 H 0.2641 0.2133 0.55956 0.0
H3219 H 0.25512 0.22152 0.6008 0.0
H3220 H 0.34018 0.25072 0.63877 0.0
H3221 H 0.35268 0.28252 0.65698 0.0
H3222 H 0.3535 0.27558 0.62492 0.0
H3223 H 0.33494 0.31102 0.6205 0.0
H3224 H 0.3343 0.31832 0.65267 0.0
H3225 H 0.3092 0.31079 0.63181 0.0
H3226 H 0.25393 0.23164 0.64487 0.0
H3227 H 0.26045 0.24456 0.68947 0.0
H3228 H 0.32629 0.29067 0.68749 0.0
C3229 C 0.31297 0.25678 0.58776 0.0
C3230 C 0.2975 0.23897 0.56866 0.0
C3231 C 0.27634 0.22703 0.57365 0.0
C3232 C 0.27099 0.23157 0.59713 0.0
C3233 C 0.28676 0.24849 0.6156 0.0
C3234 C 0.30719 0.26131 0.61125 0.0
C3235 C 0.32125 0.27786 0.63478 0.0
C3236 C 0.34319 0.27125 0.63911 0.0
C3237 C 0.32516 0.30617 0.63495 0.0
C3238 C 0.3062 0.27061 0.65304 0.0
C3239 C 0.28613 0.25425 0.64142 0.0
C3240 C 0.26947 0.24469 0.65419 0.0
C3241 C 0.27334 0.25211 0.67953 0.0
C3242 C 0.29387 0.26853 0.69196 0.0
C3243 C 0.3105 0.27792 0.67847 0.0
H3244 H 0.60373 0.53965 0.20551 0.0
H3245 H 0.64828 0.49436 0.18389 0.0
H3246 H 0.63584 0.49223 0.14084 0.0
H3247 H 0.55925 0.50665 0.15463 0.0
H3248 H 0.55171 0.53511 0.15213 0.0
H3249 H 0.5636 0.53244 0.18099 0.0
H3250 H 0.59422 0.574 0.18466 0.0
H3251 H 0.58244 0.57678 0.15582 0.0
H3252 H 0.61095 0.57676 0.16083 0.0
H3253 H 0.61692 0.49406 0.09852 0.0
H3254 H 0.59669 0.50213 0.06328 0.0
H3255 H 0.56573 0.54873 0.11161 0.0
C3256 C 0.61099 0.5292 0.19183 0.0
C3257 C 0.62726 0.51708 0.1988 0.0
C3258 C 0.63594 0.50378 0.17969 0.0
C3259 C 0.62884 0.50247 0.15494 0.0
C3260 C 0.61287 0.51457 0.14888 0.0
C3261 C 0.60412 0.5278 0.16693 0.0
C3262 C 0.58729 0.53937 0.15568 0.0
C3263 C 0.56409 0.52771 0.16119 0.0
C3264 C 0.59414 0.56846 0.16479 0.0
C3265 C 0.58835 0.53138 0.12849 0.0
C3266 C 0.60285 0.51653 0.12496 0.0
C3267 C 0.60579 0.50588 0.1014 0.0
C3268 C 0.59404 0.51057 0.08125 0.0
C3269 C 0.57953 0.52636 0.08404 0.0
C3270 C 0.5768 0.53686 0.10837 0.0
H3271 H 0.32198 0.86106 0.95844 0.0
H3272 H 0.33551 0.93386 0.93921 0.0
H3273 H 0.32979 0.91197 0.89591 0.0
H3274 H 0.34764 0.82928 0.91271 0.0
H3275 H 0.32689 0.79914 0.90633 0.0
H3276 H 0.3321 0.82022 0.936 0.0
H3277 H 0.29086 0.81955 0.93299 0.0
H3278 H 0.28549 0.79829 0.9034 0.0
H3279 H 0.27814 0.82784 0.90748 0.0
H3280 H 0.32482 0.88358 0.85627 0.0
H3281 H 0.31622 0.84944 0.81978 0.0
H3282 H 0.30294 0.79306 0.86269 0.0
C3283 C 0.32349 0.87217 0.94494 0.0
C3284 C 0.32905 0.89898 0.95171 0.0
C3285 C 0.33105 0.91326 0.934 0.0
C3286 C 0.32797 0.90103 0.90953 0.0
C3287 C 0.32268 0.87457 0.9033 0.0
C3288 C 0.32006 0.86018 0.9203 0.0
C3289 C 0.31359 0.83192 0.90829 0.0
C3290 C 0.3311 0.81941 0.91632 0.0
C3291 C 0.29065 0.81862 0.91334 0.0
C3292 C 0.31323 0.83281 0.88189 0.0
C3293 C 0.3188 0.85773 0.87974 0.0
C3294 C 0.32018 0.86399 0.85762 0.0
C3295 C 0.31523 0.84429 0.83695 0.0
C3296 C 0.30866 0.81848 0.83829 0.0
C3297 C 0.30787 0.81258 0.86113 0.0
H3298 H 0.97053 0.48123 0.72787 0.0
H3299 H 0.93469 0.53515 0.71627 0.0
H3300 H 0.92229 0.51166 0.67424 0.0
H3301 H 0.99668 0.47831 0.69005 0.0
H3302 H 0.99376 0.44524 0.67647 0.0
H3303 H 0.98749 0.45402 0.7063 0.0
H3304 H 0.94858 0.4231 0.69346 0.0
H3305 H 0.95479 0.41402 0.66317 0.0
H3306 H 0.93076 0.42505 0.66798 0.0
H3307 H 0.93109 0.50094 0.6356 0.0
H3308 H 0.96007 0.50815 0.61152 0.0
H3309 H 0.9886 0.45508 0.63972 0.0
C3310 C 0.95928 0.48718 0.71647 0.0
C3311 C 0.95413 0.51021 0.72475 0.0
C3312 C 0.93938 0.51785 0.70992 0.0
C3313 C 0.9318 0.50417 0.6861 0.0
C3314 C 0.93923 0.483 0.67727 0.0
C3315 C 0.9519 0.47373 0.69238 0.0
C3316 C 0.96226 0.45513 0.67772 0.0
C3317 C 0.98649 0.4585 0.68825 0.0
C3318 C 0.94826 0.42772 0.67544 0.0
C3319 C 0.9598 0.4623 0.65365 0.0
C3320 C 0.94416 0.47581 0.65294 0.0
C3321 C 0.94292 0.48996 0.63575 0.0
C3322 C 0.95991 0.49406 0.6219 0.0
C3323 C 0.9776 0.48303 0.62435 0.0
C3324 C 0.97594 0.46475 0.63833 0.0
H3325 H 0.32432 0.22751 0.42869 0.0
H3326 H 0.2707 0.25652 0.45318 0.0
H3327 H 0.26857 0.27463 0.41702 0.0
H3328 H 0.35105 0.27835 0.40341 0.0
H3329 H 0.3574 0.25799 0.37771 0.0
H3330 H 0.35492 0.248 0.4056 0.0
H3331 H 0.32524 0.20664 0.38286 0.0
H3332 H 0.32773 0.21644 0.35487 0.0
H3333 H 0.30117 0.2087 0.36492 0.0
H3334 H 0.27433 0.29186 0.37891 0.0
H3335 H 0.28437 0.30243 0.34062 0.0
H3336 H 0.3315 0.25823 0.33884 0.0
C3337 C 0.31213 0.23773 0.42645 0.0
C3338 C 0.2978 0.24088 0.44388 0.0
C3339 C 0.28183 0.25394 0.4401 0.0
C3340 C 0.2806 0.26433 0.41965 0.0
C3341 C 0.29511 0.26098 0.40286 0.0
C3342 C 0.31032 0.24757 0.40589 0.0
C3343 C 0.32338 0.24558 0.38478 0.0
C3344 C 0.34816 0.25824 0.3934 0.0
C3345 C 0.31912 0.21768 0.37105 0.0
C3346 C 0.31351 0.26036 0.36949 0.0
C3347 C 0.29732 0.26925 0.38031 0.0
C3348 C 0.28647 0.28426 0.37003 0.0
C3349 C 0.29194 0.28979 0.348 0.0
C3350 C 0.30767 0.27989 0.33601 0.0
C3351 C 0.31893 0.26543 0.34723 0.0
H3352 H 0.32307 0.56939 0.5124 0.0
H3353 H 0.3548 0.64968 0.54176 0.0
H3354 H 0.39056 0.64321 0.53155 0.0
H3355 H 0.36592 0.54409 0.53041 0.0
H3356 H 0.36171 0.52028 0.50249 0.0
H3357 H 0.33902 0.53166 0.51229 0.0
H3358 H 0.33254 0.54365 0.4713 0.0
H3359 H 0.35556 0.53274 0.46157 0.0
H3360 H 0.3548 0.56475 0.4617 0.0
H3361 H 0.42278 0.62751 0.51928 0.0
H3362 H 0.44963 0.60363 0.50749 0.0
H3363 H 0.39634 0.53376 0.4846 0.0
C3364 C 0.3377 0.58544 0.5171 0.0
C3365 C 0.33656 0.60988 0.52847 0.0
C3366 C 0.35565 0.63075 0.53346 0.0
C3367 C 0.37589 0.62728 0.52752 0.0
C3368 C 0.37646 0.60295 0.51597 0.0
C3369 C 0.35785 0.58242 0.51066 0.0
C3370 C 0.3628 0.55839 0.4977 0.0
C3371 C 0.35704 0.53738 0.51157 0.0
C3372 C 0.35071 0.54935 0.47152 0.0
C3373 C 0.38745 0.56819 0.4982 0.0
C3374 C 0.3949 0.59407 0.50824 0.0
C3375 C 0.41715 0.60726 0.51135 0.0
C3376 C 0.43228 0.59349 0.50476 0.0
C3377 C 0.42512 0.56677 0.49539 0.0
C3378 C 0.40232 0.55417 0.49149 0.0
H3379 H 0.88645 0.97187 0.55026 0.0
H3380 H 0.88837 0.89539 0.51785 0.0
H3381 H 0.92636 0.91243 0.50936 0.0
H3382 H 0.91957 1.00519 0.51157 0.0
H3383 H 0.93366 0.03198 0.53615 0.0
H3384 H 0.90597 0.01394 0.53716 0.0
H3385 H 0.91899 1.00616 0.5785 0.0
H3386 H 0.94671 0.02411 0.5776 0.0
H3387 H 0.94143 0.99196 0.58115 0.0
H3388 H 0.96412 0.93866 0.50356 0.0
H3389 H 0.99984 0.97061 0.50592 0.0
H3390 H 0.97477 0.02886 0.54726 0.0
C3391 C 0.89481 0.95881 0.54105 0.0
C3392 C 0.88449 0.93239 0.53432 0.0
C3393 C 0.89604 0.91571 0.52296 0.0
C3394 C 0.91755 0.92525 0.51802 0.0
C3395 C 0.9274 0.95145 0.52508 0.0
C3396 C 0.9165 0.96794 0.53672 0.0
C3397 C 0.93135 0.99495 0.54438 0.0
C3398 C 0.92208 0.01255 0.53154 0.0
C3399 C 0.93483 1.00487 0.57205 0.0
C3400 C 0.95239 0.99115 0.53541 0.0
C3401 C 0.94964 0.96605 0.52377 0.0
C3402 C 0.96652 0.95826 0.51298 0.0
C3403 C 0.98678 0.97649 0.51444 0.0
C3404 C 0.99024 1.00199 0.52728 0.0
C3405 C 0.97274 0.00934 0.53778 0.0
H3406 H 0.8779 0.13384 0.30208 0.0
H3407 H 0.90632 0.1317 0.23562 0.0
H3408 H 0.89116 0.16691 0.22874 0.0
H3409 H 0.82704 0.14751 0.28126 0.0
H3410 H 0.82643 0.16881 0.30946 0.0
H3411 H 0.83968 0.1438 0.30933 0.0
H3412 H 0.87564 0.17687 0.33201 0.0
H3413 H 0.8625 0.202 0.33217 0.0
H3414 H 0.88777 0.20331 0.31953 0.0
H3415 H 0.87296 0.2055 0.22981 0.0
H3416 H 0.85286 0.23849 0.23704 0.0
H3417 H 0.83378 0.21537 0.30165 0.0
C3418 C 0.88091 0.14049 0.28587 0.0
C3419 C 0.89362 0.12893 0.26933 0.0
C3420 C 0.89684 0.13928 0.2487 0.0
C3421 C 0.8882 0.15968 0.24467 0.0
C3422 C 0.87595 0.17048 0.26128 0.0
C3423 C 0.87223 0.161 0.2815 0.0
C3424 C 0.85851 0.17595 0.29665 0.0
C3425 C 0.83661 0.15794 0.29933 0.0
C3426 C 0.87189 0.19037 0.32157 0.0
C3427 C 0.85448 0.19485 0.28165 0.0
C3428 C 0.86514 0.1917 0.26151 0.0
C3429 C 0.86459 0.20766 0.24552 0.0
C3430 C 0.85304 0.22674 0.24987 0.0
C3431 C 0.84133 0.23032 0.26992 0.0
C3432 C 0.84224 0.21365 0.28598 0.0
H3433 H 0.72721 0.11539 0.05378 0.0
H3434 H 0.72313 0.0672 0.98223 0.0
H3435 H 0.68257 0.05577 0.97814 0.0
H3436 H 0.68002 0.0754 0.07186 0.0
H3437 H 0.67117 0.10185 0.08742 0.0
H3438 H 0.70001 0.10551 0.08536 0.0
H3439 H 0.70115 0.14378 0.06598 0.0
H3440 H 0.67229 0.14007 0.06785 0.0
H3441 H 0.68212 0.13967 0.03912 0.0
H3442 H 0.64389 0.04828 0.98209 0.0
H3443 H 0.60702 0.0465 0.99276 0.0
H3444 H 0.63498 0.1025 0.06021 0.0
C3445 C 0.71778 0.1021 0.03742 0.0
C3446 C 0.72819 0.09189 0.01839 0.0
C3447 C 0.71539 0.07498 0.99707 0.0
C3448 C 0.69243 0.06846 0.99456 0.0
C3449 C 0.68274 0.07914 0.01351 0.0
C3450 C 0.69486 0.0956 0.0345 0.0
C3451 C 0.68011 0.10481 0.05174 0.0
C3452 C 0.68301 0.09638 0.0755 0.0
C3453 C 0.68417 0.1338 0.05643 0.0
C3454 C 0.65776 0.09085 0.03705 0.0
C3455 C 0.6599 0.07606 0.01516 0.0
C3456 C 0.64195 0.06027 0.9988 0.0
C3457 C 0.62116 0.05972 1.00483 0.0
C3458 C 0.61844 0.07553 0.0265 0.0
C3459 C 0.63685 0.09095 0.0432 0.0
H3460 H 0.21443 0.48748 0.24074 0.0
H3461 H 0.22435 0.53811 0.31221 0.0
H3462 H 0.24968 0.51654 0.32743 0.0
H3463 H 0.21496 0.43202 0.25902 0.0
H3464 H 0.231 0.42045 0.23696 0.0
H3465 H 0.2144 0.44072 0.23034 0.0
H3466 H 0.24863 0.47279 0.22195 0.0
H3467 H 0.26525 0.45224 0.22782 0.0
H3468 H 0.27297 0.48502 0.24444 0.0
H3469 H 0.2698 0.48665 0.33664 0.0
H3470 H 0.28967 0.45407 0.33732 0.0
H3471 H 0.2705 0.42589 0.25943 0.0
C3472 C 0.22219 0.49414 0.25945 0.0
C3473 C 0.21717 0.51414 0.27528 0.0
C3474 C 0.22783 0.52268 0.29965 0.0
C3475 C 0.24224 0.51054 0.30862 0.0
C3476 C 0.24627 0.49034 0.29286 0.0
C3477 C 0.23718 0.48262 0.26866 0.0
C3478 C 0.24477 0.46056 0.25575 0.0
C3479 C 0.22511 0.43705 0.24489 0.0
C3480 C 0.25874 0.46811 0.23634 0.0
C3481 C 0.25875 0.45667 0.27673 0.0
C3482 C 0.25925 0.47394 0.29798 0.0
C3483 C 0.27012 0.47336 0.32002 0.0
C3484 C 0.28141 0.45489 0.32021 0.0
C3485 C 0.2819 0.43763 0.29843 0.0
C3486 C 0.2703 0.43858 0.27648 0.0
H3487 H 0.27534 0.47005 0.03504 0.0
H3488 H 0.24802 0.38817 0.01964 0.0
H3489 H 0.21121 0.39282 0.00655 0.0
H3490 H 0.22951 0.48527 0.05986 0.0
H3491 H 0.23183 0.51299 0.0478 0.0
H3492 H 0.25598 0.50275 0.05444 0.0
H3493 H 0.26357 0.50066 0.01024 0.0
H3494 H 0.23927 0.51065 1.00345 0.0
H3495 H 0.24242 0.4815 0.98554 0.0
H3496 H 0.17662 0.40715 0.99762 0.0
H3497 H 0.14786 0.42991 0.99454 0.0
H3498 H 0.19851 0.50193 0.01519 0.0
C3499 C 0.26169 0.45303 0.02874 0.0
C3500 C 0.2646 0.42873 0.02838 0.0
C3501 C 0.24619 0.40701 0.02022 0.0
C3502 C 0.22523 0.40946 0.01261 0.0
C3503 C 0.22294 0.43376 0.01331 0.0
C3504 C 0.24072 0.45515 0.02124 0.0
C3505 C 0.23383 0.47922 0.02155 0.0
C3506 C 0.23804 0.49604 0.04745 0.0
C3507 C 0.24546 0.49386 1.00415 0.0
C3508 C 0.20939 0.46814 0.01261 0.0
C3509 C 0.20332 0.44188 0.00792 0.0
C3510 C 0.18127 0.42768 1.00101 0.0
C3511 C 0.16505 0.44072 0.99934 0.0
C3512 C 0.17103 0.46762 1.00435 0.0
C3513 C 0.19352 0.48133 0.01067 0.0
H3514 H 0.88536 0.98819 0.30643 0.0
H3515 H 0.89214 0.98307 0.23084 0.0
H3516 H 0.874 0.93668 0.2217 0.0
H3517 H 0.89644 0.92636 0.30732 0.0
H3518 H 0.87765 0.9192 0.32848 0.0
H3519 H 0.89137 0.95181 0.32917 0.0
H3520 H 0.85368 0.96161 0.32435 0.0
H3521 H 0.83988 0.92913 0.32384 0.0
H3522 H 0.83279 0.94273 0.29929 0.0
H3523 H 0.85331 0.88944 0.2206 0.0
H3524 H 0.83209 0.84855 0.22741 0.0
H3525 H 0.83871 0.8829 0.30367 0.0
C3526 C 0.88297 0.97742 0.28786 0.0
C3527 C 0.89022 0.99003 0.26932 0.0
C3528 C 0.8869 0.97452 0.24547 0.0
C3529 C 0.87654 0.9479 0.24012 0.0
C3530 C 0.86969 0.93623 0.25876 0.0
C3531 C 0.87293 0.9506 0.28225 0.0
C3532 C 0.86436 0.93336 0.29908 0.0
C3533 C 0.88359 0.93265 0.31709 0.0
C3534 C 0.84661 0.94224 0.31242 0.0
C3535 C 0.85465 0.90729 0.28135 0.0
C3536 C 0.85837 0.9093 0.25822 0.0
C3537 C 0.85076 0.88788 0.23878 0.0
C3538 C 0.83886 0.86432 0.24284 0.0
C3539 C 0.83432 0.86146 0.26616 0.0
C3540 C 0.84248 0.88367 0.28567 0.0
H3541 H 0.69471 0.1235 0.74609 0.0
H3542 H 0.71436 0.12735 0.82195 0.0
H3543 H 0.7492 0.15933 0.82167 0.0
H3544 H 0.74767 0.12753 0.7284 0.0
H3545 H 0.74487 0.14684 0.70732 0.0
H3546 H 0.72077 0.125 0.71313 0.0
H3547 H 0.70235 0.16145 0.72586 0.0
H3548 H 0.72571 0.18277 0.71836 0.0
H3549 H 0.71779 0.18989 0.74804 0.0
H3550 H 0.78261 0.18716 0.81227 0.0
H3551 H 0.80716 0.22156 0.79904 0.0
H3552 H 0.76561 0.19986 0.72938 0.0
C3553 C 0.70616 0.1313 0.7628 0.0
C3554 C 0.70212 0.12256 0.78393 0.0
C3555 C 0.71727 0.13361 0.80552 0.0
C3556 C 0.73723 0.15139 0.8054 0.0
C3557 C 0.74152 0.15767 0.7836 0.0
C3558 C 0.72611 0.14877 0.76296 0.0
C3559 C 0.73435 0.1595 0.74219 0.0
C3560 C 0.73707 0.13846 0.72154 0.0
C3561 C 0.71916 0.1743 0.73311 0.0
C3562 C 0.7565 0.17681 0.75475 0.0
C3563 C 0.76065 0.17451 0.77829 0.0
C3564 C 0.77955 0.18922 0.79395 0.0
C3565 C 0.79349 0.20852 0.78615 0.0
C3566 C 0.78787 0.21333 0.76335 0.0
C3567 C 0.77023 0.19621 0.74673 0.0
loop_
_geom_bond_atom_site_label_1
_geom_bond_atom_site_label_2
_geom_bond_distance
_geom_bond_site_symmetry_2
_ccdc_geom_bond_type
Mg0 O1 2.028 . S
Mg0 O7 1.986 . S
Mg0 O9 2.114 . S
Mg0 O10 2.251 . S
Mg0 O13 2.010 . S
O1 Mg0 2.028 . S
O1 C4 1.250 . S
O2 Mg3 2.028 . S
O2 C4 1.248 . S
Mg3 O2 2.028 . S
Mg3 O8 2.032 . S
Mg3 O10 2.079 . S
C4 O1 1.250 . S
C4 O2 1.248 . S
C5 O6 1.264 . S
C5 O13 1.249 . S
O6 C5 1.264 . S
O7 Mg0 1.986 . S
O7 C11 1.246 . S
O8 Mg3 2.032 . S
O8 C11 1.259 . S
O9 Mg0 2.114 . S
O9 C12 1.252 . S
O10 Mg0 2.251 . S
O10 Mg3 2.079 . S
O10 C12 1.273 . S
C11 O7 1.246 . S
C11 O8 1.259 . S
C12 O9 1.252 . S
C12 O10 1.273 . S
O13 Mg0 2.010 . S
O13 C5 1.249 . S
Mg14 O15 2.028 . S
Mg14 O21 1.986 . S
Mg14 O23 2.114 1_455 S
Mg14 O24 2.251 1_455 S
Mg14 O27 2.010 . S
O15 Mg14 2.028 . S
O15 C18 1.250 1_455 S
O16 Mg17 2.028 . S
O16 C18 1.248 . S
Mg17 O16 2.028 . S
Mg17 O22 2.032 . S
Mg17 O24 2.079 . S
C18 O15 1.250 1_655 S
C18 O16 1.248 . S
C19 O20 1.264 . S
C19 O27 1.249 . S
O20 C19 1.264 . S
O21 Mg14 1.986 . S
O21 C25 1.246 1_455 S
O22 Mg17 2.032 . S
O22 C25 1.259 . S
O23 Mg14 2.114 1_655 S
O23 C26 1.252 . S
O24 Mg14 2.251 1_655 S
O24 Mg17 2.079 . S
O24 C26 1.273 . S
C25 O21 1.246 1_655 S
C25 O22 1.259 . S
C26 O23 1.252 . S
C26 O24 1.273 . S
O27 Mg14 2.010 . S
O27 C19 1.249 . S
Mg28 O29 2.028 . S
Mg28 O35 1.986 . S
Mg28 O37 2.114 . S
Mg28 O38 2.251 . S
Mg28 O41 2.010 . S
O29 Mg28 2.028 . S
O29 C32 1.250 . S
O30 Mg31 2.028 . S
O30 C32 1.248 . S
Mg31 O30 2.028 . S
Mg31 O36 2.032 . S
Mg31 O38 2.079 . S
C32 O29 1.250 . S
C32 O30 1.248 . S
C33 O34 1.264 . S
C33 O41 1.249 . S
O34 C33 1.264 . S
O35 Mg28 1.986 . S
O35 C39 1.246 . S
O36 Mg31 2.032 . S
O36 C39 1.259 . S
O37 Mg28 2.114 . S
O37 C40 1.252 . S
O38 Mg28 2.251 . S
O38 Mg31 2.079 . S
O38 C40 1.273 . S
C39 O35 1.246 . S
C39 O36 1.259 . S
C40 O37 1.252 . S
C40 O38 1.273 . S
O41 Mg28 2.010 . S
O41 C33 1.249 . S
Mg42 O43 2.028 . S
Mg42 O49 1.986 . S
Mg42 O51 2.114 . S
Mg42 O52 2.251 . S
Mg42 O55 2.010 . S
O43 Mg42 2.028 . S
O43 C46 1.250 . S
O44 Mg45 2.028 . S
O44 C46 1.248 . S
Mg45 O44 2.028 . S
Mg45 O50 2.032 . S
Mg45 O52 2.079 . S
C46 O43 1.250 . S
C46 O44 1.248 . S
C47 O48 1.264 . S
C47 O55 1.249 . S
O48 C47 1.264 . S
O49 Mg42 1.986 . S
O49 C53 1.246 . S
O50 Mg45 2.032 . S
O50 C53 1.259 . S
O51 Mg42 2.114 . S
O51 C54 1.252 . S
O52 Mg42 2.251 . S
O52 Mg45 2.079 . S
O52 C54 1.273 . S
C53 O49 1.246 . S
C53 O50 1.259 . S
C54 O51 1.252 . S
C54 O52 1.273 . S
O55 Mg42 2.010 . S
O55 C47 1.249 . S
Mg56 O57 2.028 . S
Mg56 O63 1.986 . S
Mg56 O65 2.114 . S
Mg56 O66 2.251 . S
Mg56 O69 2.010 . S
O57 Mg56 2.028 . S
O57 C60 1.250 . S
O58 Mg59 2.028 . S
O58 C60 1.248 . S
Mg59 O58 2.028 . S
Mg59 O64 2.032 . S
Mg59 O66 2.079 . S
C60 O57 1.250 . S
C60 O58 1.248 . S
C61 O62 1.264 . S
C61 O69 1.249 . S
O62 C61 1.264 . S
O63 Mg56 1.986 . S
O63 C67 1.246 . S
O64 Mg59 2.032 . S
O64 C67 1.259 . S
O65 Mg56 2.114 . S
O65 C68 1.252 . S
O66 Mg56 2.251 . S
O66 Mg59 2.079 . S
O66 C68 1.273 . S
C67 O63 1.246 . S
C67 O64 1.259 . S
C68 O65 1.252 . S
C68 O66 1.273 . S
O69 Mg56 2.010 . S
O69 C61 1.249 . S
Mg70 O71 2.028 . S
Mg70 O77 1.986 . S
Mg70 O79 2.114 . S
Mg70 O80 2.251 . S
Mg70 O83 2.010 . S
O71 Mg70 2.028 . S
O71 C74 1.250 . S
O72 Mg73 2.028 . S
O72 C74 1.248 . S
Mg73 O72 2.028 . S
Mg73 O78 2.032 . S
Mg73 O80 2.079 . S
C74 O71 1.250 . S
C74 O72 1.248 . S
C75 O76 1.264 . S
C75 O83 1.249 . S
O76 C75 1.264 . S
O77 Mg70 1.986 . S
O77 C81 1.246 . S
O78 Mg73 2.032 . S
O78 C81 1.259 . S
O79 Mg70 2.114 . S
O79 C82 1.252 . S
O80 Mg70 2.251 . S
O80 Mg73 2.079 . S
O80 C82 1.273 . S
C81 O77 1.246 . S
C81 O78 1.259 . S
C82 O79 1.252 . S
C82 O80 1.273 . S
O83 Mg70 2.010 . S
O83 C75 1.249 . S
Mg84 O85 2.028 . S
Mg84 O91 1.986 . S
Mg84 O93 2.114 . S
Mg84 O94 2.251 . S
Mg84 O97 2.010 . S
O85 Mg84 2.028 . S
O85 C88 1.250 . S
O86 Mg87 2.028 . S
O86 C88 1.248 . S
Mg87 O86 2.028 . S
Mg87 O92 2.032 . S
Mg87 O94 2.079 . S
C88 O85 1.250 . S
C88 O86 1.248 . S
C89 O90 1.264 . S
C89 O97 1.249 . S
O90 C89 1.264 . S
O91 Mg84 1.986 . S
O91 C95 1.246 . S
O92 Mg87 2.032 . S
O92 C95 1.259 . S
O93 Mg84 2.114 . S
O93 C96 1.252 . S
O94 Mg84 2.251 . S
O94 Mg87 2.079 . S
O94 C96 1.273 . S
C95 O91 1.246 . S
C95 O92 1.259 . S
C96 O93 1.252 . S
C96 O94 1.273 . S
O97 Mg84 2.010 . S
O97 C89 1.249 . S
Mg98 O99 2.028 . S
Mg98 O105 1.986 . S
Mg98 O107 2.114 1_455 S
Mg98 O108 2.251 1_455 S
Mg98 O111 2.010 . S
O99 Mg98 2.028 . S
O99 C102 1.250 . S
O100 Mg101 2.015 1_455 S
O100 C102 1.271 . S
Mg101 O100 2.015 1_655 S
Mg101 O106 2.032 . S
Mg101 O108 2.079 . S
C102 O99 1.250 . S
C102 O100 1.271 . S
C103 O104 1.264 . S
C103 O111 1.249 . S
O104 C103 1.264 . S
O105 Mg98 1.986 . S
O105 C109 1.246 . S
O106 Mg101 2.032 . S
O106 C109 1.259 1_655 S
O107 Mg98 2.114 1_655 S
O107 C110 1.252 . S
O108 Mg98 2.251 1_655 S
O108 Mg101 2.079 . S
O108 C110 1.273 . S
C109 O105 1.246 . S
C109 O106 1.259 1_455 S
C110 O107 1.252 . S
C110 O108 1.273 . S
O111 Mg98 2.010 . S
O111 C103 1.249 . S
Mg112 O113 2.028 1_545 S
Mg112 O119 1.986 . S
Mg112 O121 2.114 . S
Mg112 O122 2.251 . S
Mg112 O125 2.010 . S
O113 Mg112 2.028 1_565 S
O113 C116 1.250 . S
O114 Mg115 2.028 1_565 S
O114 C116 1.248 . S
Mg115 O114 2.028 1_545 S
Mg115 O120 2.032 . S
Mg115 O122 2.079 . S
C116 O113 1.250 . S
C116 O114 1.248 . S
C117 O118 1.264 . S
C117 O125 1.249 . S
O118 C117 1.264 . S
O119 Mg112 1.986 . S
O119 C123 1.246 . S
O120 Mg115 2.032 . S
O120 C123 1.259 . S
O121 Mg112 2.114 . S
O121 C124 1.252 . S
O122 Mg112 2.251 . S
O122 Mg115 2.079 . S
O122 C124 1.273 . S
C123 O119 1.246 . S
C123 O120 1.259 . S
C124 O121 1.252 . S
C124 O122 1.273 . S
O125 Mg112 2.010 . S
O125 C117 1.249 . S
Mg126 O127 2.028 . S
Mg126 O133 1.986 . S
Mg126 O135 2.114 . S
Mg126 O136 2.251 . S
Mg126 O139 2.010 . S
O127 Mg126 2.028 . S
O127 C130 1.250 . S
O128 Mg129 2.028 . S
O128 C130 1.248 . S
Mg129 O128 2.028 . S
Mg129 O134 2.032 . S
Mg129 O136 2.079 . S
C130 O127 1.250 . S
C130 O128 1.248 . S
C131 O132 1.264 . S
C131 O139 1.249 . S
O132 C131 1.264 . S
O133 Mg126 1.986 . S
O133 C137 1.246 . S
O134 Mg129 2.032 . S
O134 C137 1.259 . S
O135 Mg126 2.114 . S
O135 C138 1.252 . S
O136 Mg126 2.251 . S
O136 Mg129 2.079 . S
O136 C138 1.273 . S
C137 O133 1.246 . S
C137 O134 1.259 . S
C138 O135 1.252 . S
C138 O136 1.273 . S
O139 Mg126 2.010 . S
O139 C131 1.249 . S
Mg140 O141 2.028 1_565 S
Mg140 O147 1.986 . S
Mg140 O149 2.114 1_565 S
Mg140 O150 2.252 1_565 S
Mg140 O153 2.010 . S
O141 Mg140 2.028 1_545 S
O141 C144 1.250 . S
O142 Mg143 2.028 . S
O142 C144 1.248 . S
Mg143 O142 2.028 . S
Mg143 O148 2.032 1_545 S
Mg143 O150 2.079 . S
C144 O141 1.250 . S
C144 O142 1.248 . S
C145 O146 1.264 . S
C145 O153 1.249 . S
O146 C145 1.264 . S
O147 Mg140 1.986 . S
O147 C151 1.246 . S
O148 Mg143 2.032 1_565 S
O148 C151 1.259 . S
O149 Mg140 2.114 1_545 S
O149 C152 1.252 . S
O150 Mg140 2.252 1_545 S
O150 Mg143 2.079 . S
O150 C152 1.277 . S
C151 O147 1.246 . S
C151 O148 1.259 . S
C152 O149 1.252 . S
C152 O150 1.277 . S
O153 Mg140 2.010 . S
O153 C145 1.249 . S
Mg154 O155 2.028 1_554 S
Mg154 O161 1.986 . S
Mg154 O163 2.114 . S
Mg154 O164 2.251 . S
Mg154 O167 2.010 . S
O155 Mg154 2.028 1_556 S
O155 C158 1.250 . S
O156 Mg157 2.028 1_556 S
O156 C158 1.248 . S
Mg157 O156 2.028 1_554 S
Mg157 O162 2.032 . S
Mg157 O164 2.079 . S
C158 O155 1.250 . S
C158 O156 1.248 . S
C159 O160 1.264 . S
C159 O167 1.249 . S
O160 C159 1.264 . S
O161 Mg154 1.986 . S
O161 C165 1.246 . S
O162 Mg157 2.032 . S
O162 C165 1.259 . S
O163 Mg154 2.114 . S
O163 C166 1.252 . S
O164 Mg154 2.251 . S
O164 Mg157 2.079 . S
O164 C166 1.273 . S
C165 O161 1.246 . S
C165 O162 1.259 . S
C166 O163 1.252 . S
C166 O164 1.273 . S
O167 Mg154 2.010 . S
O167 C159 1.249 . S
Mg168 O169 2.028 1_554 S
Mg168 O175 1.986 . S
Mg168 O177 2.114 . S
Mg168 O178 2.251 . S
Mg168 O181 2.010 . S
O169 Mg168 2.028 1_556 S
O169 C172 1.250 . S
O170 Mg171 2.028 1_556 S
O170 C172 1.248 . S
Mg171 O170 2.028 1_554 S
Mg171 O176 2.032 . S
Mg171 O178 2.079 . S
C172 O169 1.250 . S
C172 O170 1.248 . S
C173 O174 1.264 . S
C173 O181 1.249 . S
O174 C173 1.264 . S
O175 Mg168 1.986 . S
O175 C179 1.246 . S
O176 Mg171 2.032 . S
O176 C179 1.259 . S
O177 Mg168 2.114 . S
O177 C180 1.252 . S
O178 Mg168 2.251 . S
O178 Mg171 2.079 . S
O178 C180 1.273 . S
C179 O175 1.246 . S
C179 O176 1.259 . S
C180 O177 1.252 . S
C180 O178 1.273 . S
O181 Mg168 2.010 . S
O181 C173 1.249 . S
Mg182 O183 2.028 . S
Mg182 O189 1.986 1_554 S
Mg182 O191 2.114 . S
Mg182 O192 2.251 . S
Mg182 O195 2.011 1_554 S
O183 Mg182 2.028 . S
O183 C186 1.250 . S
O184 Mg185 2.028 . S
O184 C186 1.248 . S
Mg185 O184 2.028 . S
Mg185 O190 2.032 1_554 S
Mg185 O192 2.079 . S
C186 O183 1.250 . S
C186 O184 1.248 . S
C187 O188 1.250 1_554 S
C187 O195 1.235 1_554 S
O188 C187 1.250 1_556 S
O189 Mg182 1.986 1_556 S
O189 C193 1.246 . S
O190 Mg185 2.032 1_556 S
O190 C193 1.259 . S
O191 Mg182 2.114 . S
O191 C194 1.252 . S
O192 Mg182 2.251 . S
O192 Mg185 2.079 . S
O192 C194 1.273 . S
C193 O189 1.246 . S
C193 O190 1.259 . S
C194 O191 1.252 . S
C194 O192 1.273 . S
O195 Mg182 2.011 1_556 S
O195 C187 1.235 1_556 S
Mg196 O197 2.028 . S
Mg196 O203 1.986 . S
Mg196 O205 2.114 . S
Mg196 O206 2.251 . S
Mg196 O209 2.010 . S
O197 Mg196 2.028 . S
O197 C200 1.250 . S
O198 Mg199 2.028 . S
O198 C200 1.248 . S
Mg199 O198 2.028 . S
Mg199 O204 2.032 . S
Mg199 O206 2.079 . S
C200 O197 1.250 . S
C200 O198 1.248 . S
C201 O202 1.264 . S
C201 O209 1.249 . S
O202 C201 1.264 . S
O203 Mg196 1.986 . S
O203 C207 1.246 . S
O204 Mg199 2.032 . S
O204 C207 1.259 . S
O205 Mg196 2.114 . S
O205 C208 1.252 . S
O206 Mg196 2.251 . S
O206 Mg199 2.079 . S
O206 C208 1.273 . S
C207 O203 1.246 . S
C207 O204 1.259 . S
C208 O205 1.252 . S
C208 O206 1.273 . S
O209 Mg196 2.010 . S
O209 C201 1.249 . S
Mg210 O211 2.028 . S
Mg210 O217 1.986 . S
Mg210 O219 2.114 . S
Mg210 O220 2.251 . S
Mg210 O223 2.010 . S
O211 Mg210 2.028 . S
O211 C214 1.250 . S
O212 Mg213 2.028 . S
O212 C214 1.248 . S
Mg213 O212 2.028 . S
Mg213 O218 2.032 . S
Mg213 O220 2.079 . S
C214 O211 1.250 . S
C214 O212 1.248 . S
C215 O216 1.264 . S
C215 O223 1.249 . S
O216 C215 1.264 . S
O217 Mg210 1.986 . S
O217 C221 1.246 . S
O218 Mg213 2.032 . S
O218 C221 1.259 . S
O219 Mg210 2.114 . S
O219 C222 1.252 . S
O220 Mg210 2.251 . S
O220 Mg213 2.079 . S
O220 C222 1.273 . S
C221 O217 1.246 . S
C221 O218 1.259 . S
C222 O219 1.252 . S
C222 O220 1.273 . S
O223 Mg210 2.010 . S
O223 C215 1.249 . S
Mg224 O225 2.028 . S
Mg224 O231 1.986 . S
Mg224 O233 2.114 . S
Mg224 O234 2.251 . S
Mg224 O237 2.010 . S
O225 Mg224 2.028 . S
O225 C228 1.250 . S
O226 Mg227 2.028 . S
O226 C228 1.248 . S
Mg227 O226 2.028 . S
Mg227 O232 2.032 . S
Mg227 O234 2.079 . S
C228 O225 1.250 . S
C228 O226 1.248 . S
C229 O230 1.264 . S
C229 O237 1.249 . S
O230 C229 1.264 . S
O231 Mg224 1.986 . S
O231 C235 1.246 . S
O232 Mg227 2.032 . S
O232 C235 1.259 . S
O233 Mg224 2.114 . S
O233 C236 1.252 . S
O234 Mg224 2.251 . S
O234 Mg227 2.079 . S
O234 C236 1.273 . S
C235 O231 1.246 . S
C235 O232 1.259 . S
C236 O233 1.252 . S
C236 O234 1.273 . S
O237 Mg224 2.010 . S
O237 C229 1.249 . S
Mg238 O239 2.028 . S
Mg238 O245 1.986 . S
Mg238 O247 2.114 . S
Mg238 O248 2.251 . S
Mg238 O251 2.010 . S
O239 Mg238 2.028 . S
O239 C242 1.250 . S
O240 Mg241 2.028 . S
O240 C242 1.248 . S
Mg241 O240 2.028 . S
Mg241 O246 2.032 . S
Mg241 O248 2.079 . S
C242 O239 1.250 . S
C242 O240 1.248 . S
C243 O244 1.264 . S
C243 O251 1.249 . S
O244 C243 1.264 . S
O245 Mg238 1.986 . S
O245 C249 1.246 . S
O246 Mg241 2.032 . S
O246 C249 1.259 . S
O247 Mg238 2.114 . S
O247 C250 1.252 . S
O248 Mg238 2.251 . S
O248 Mg241 2.079 . S
O248 C250 1.273 . S
C249 O245 1.246 . S
C249 O246 1.259 . S
C250 O247 1.252 . S
C250 O248 1.273 . S
O251 Mg238 2.010 . S
O251 C243 1.249 . S
Mg252 O253 2.028 . S
Mg252 O259 1.986 . S
Mg252 O261 2.114 . S
Mg252 O262 2.251 . S
Mg252 O265 2.010 . S
O253 Mg252 2.028 . S
O253 C256 1.250 . S
O254 Mg255 2.028 . S
O254 C256 1.248 . S
Mg255 O254 2.028 . S
Mg255 O260 2.032 . S
Mg255 O262 2.079 . S
C256 O253 1.250 . S
C256 O254 1.248 . S
C257 O258 1.264 . S
C257 O265 1.249 . S
O258 C257 1.264 . S
O259 Mg252 1.986 . S
O259 C263 1.246 . S
O260 Mg255 2.032 . S
O260 C263 1.259 . S
O261 Mg252 2.114 . S
O261 C264 1.252 . S
O262 Mg252 2.251 . S
O262 Mg255 2.079 . S
O262 C264 1.273 . S
C263 O259 1.246 . S
C263 O260 1.259 . S
C264 O261 1.252 . S
C264 O262 1.273 . S
O265 Mg252 2.010 . S
O265 C257 1.249 . S
Mg266 O267 2.028 . S
Mg266 O273 1.986 . S
Mg266 O275 2.114 . S
Mg266 O276 2.251 . S
Mg266 O279 2.010 . S
O267 Mg266 2.028 . S
O267 C270 1.250 . S
O268 Mg269 2.028 . S
O268 C270 1.248 . S
Mg269 O268 2.028 . S
Mg269 O274 2.032 . S
Mg269 O276 2.079 . S
C270 O267 1.250 . S
C270 O268 1.248 . S
C271 O272 1.264 . S
C271 O279 1.249 . S
O272 C271 1.264 . S
O273 Mg266 1.986 . S
O273 C277 1.246 . S
O274 Mg269 2.032 . S
O274 C277 1.259 . S
O275 Mg266 2.114 . S
O275 C278 1.252 . S
O276 Mg266 2.251 . S
O276 Mg269 2.079 . S
O276 C278 1.273 . S
C277 O273 1.246 . S
C277 O274 1.259 . S
C278 O275 1.252 . S
C278 O276 1.273 . S
O279 Mg266 2.010 . S
O279 C271 1.249 . S
Mg280 O281 2.028 1_556 S
Mg280 O287 1.986 . S
Mg280 O289 2.114 1_556 S
Mg280 O290 2.251 1_556 S
Mg280 O293 2.010 . S
O281 Mg280 2.028 1_554 S
O281 C284 1.250 . S
O282 Mg283 2.028 . S
O282 C284 1.248 . S
Mg283 O282 2.028 . S
Mg283 O288 2.032 1_554 S
Mg283 O290 2.079 . S
C284 O281 1.250 . S
C284 O282 1.248 . S
C285 O286 1.264 . S
C285 O293 1.249 . S
O286 C285 1.264 . S
O287 Mg280 1.986 . S
O287 C291 1.246 . S
O288 Mg283 2.032 1_556 S
O288 C291 1.259 . S
O289 Mg280 2.114 1_554 S
O289 C292 1.252 . S
O290 Mg280 2.251 1_554 S
O290 Mg283 2.079 . S
O290 C292 1.273 . S
C291 O287 1.246 . S
C291 O288 1.259 . S
C292 O289 1.252 . S
C292 O290 1.273 . S
O293 Mg280 2.010 . S
O293 C285 1.249 . S
Mg294 O295 2.028 . S
Mg294 O301 1.986 . S
Mg294 O303 2.114 . S
Mg294 O304 2.251 . S
Mg294 O307 2.010 . S
O295 Mg294 2.028 . S
O295 C298 1.250 . S
O296 Mg297 2.028 . S
O296 C298 1.248 . S
Mg297 O296 2.028 . S
Mg297 O302 2.032 . S
Mg297 O304 2.079 . S
C298 O295 1.250 . S
C298 O296 1.248 . S
C299 O300 1.264 . S
C299 O307 1.249 . S
O300 C299 1.264 . S
O301 Mg294 1.986 . S
O301 C305 1.246 . S
O302 Mg297 2.032 . S
O302 C305 1.259 . S
O303 Mg294 2.114 . S
O303 C306 1.252 . S
O304 Mg294 2.251 . S
O304 Mg297 2.079 . S
O304 C306 1.273 . S
C305 O301 1.246 . S
C305 O302 1.259 . S
C306 O303 1.252 . S
C306 O304 1.273 . S
O307 Mg294 2.010 . S
O307 C299 1.249 . S
Mg308 O309 2.028 . S
Mg308 O315 1.986 . S
Mg308 O317 2.114 . S
Mg308 O318 2.251 . S
Mg308 O321 2.010 . S
O309 Mg308 2.028 . S
O309 C312 1.250 . S
O310 Mg311 2.028 . S
O310 C312 1.248 . S
Mg311 O310 2.028 . S
Mg311 O316 2.032 . S
Mg311 O318 2.079 . S
C312 O309 1.250 . S
C312 O310 1.248 . S
C313 O314 1.264 . S
C313 O321 1.249 . S
O314 C313 1.264 . S
O315 Mg308 1.986 . S
O315 C319 1.246 . S
O316 Mg311 2.032 . S
O316 C319 1.259 . S
O317 Mg308 2.114 . S
O317 C320 1.252 . S
O318 Mg308 2.251 . S
O318 Mg311 2.079 . S
O318 C320 1.273 . S
C319 O315 1.246 . S
C319 O316 1.259 . S
C320 O317 1.252 . S
C320 O318 1.273 . S
O321 Mg308 2.010 . S
O321 C313 1.249 . S
Mg322 O323 2.028 . S
Mg322 O329 1.986 . S
Mg322 O331 2.114 . S
Mg322 O332 2.251 . S
Mg322 O335 2.010 . S
O323 Mg322 2.028 . S
O323 C326 1.250 . S
O324 Mg325 2.028 . S
O324 C326 1.248 . S
Mg325 O324 2.028 . S
Mg325 O330 2.032 . S
Mg325 O332 2.079 . S
C326 O323 1.250 . S
C326 O324 1.248 . S
C327 O328 1.264 . S
C327 O335 1.249 . S
O328 C327 1.264 . S
O329 Mg322 1.986 . S
O329 C333 1.246 . S
O330 Mg325 2.032 . S
O330 C333 1.259 . S
O331 Mg322 2.114 . S
O331 C334 1.252 . S
O332 Mg322 2.251 . S
O332 Mg325 2.079 . S
O332 C334 1.273 . S
C333 O329 1.246 . S
C333 O330 1.259 . S
C334 O331 1.252 . S
C334 O332 1.273 . S
O335 Mg322 2.010 . S
O335 C327 1.249 . S
Ho336 C339 2.811 1_455 S
Ho336 O356 2.322 . S
Ho336 O358 2.378 1_455 S
Ho336 O359 2.524 1_456 S
Ho336 O360 2.381 . S
Ho336 O361 2.669 . S
Ho336 O363 2.346 1_546 S
Ho336 O367 2.305 1_556 S
Ho337 C348 2.811 . S
Ho337 O357 2.346 . S
Ho337 O361 2.305 1_554 S
Ho337 O362 2.322 . S
Ho337 O364 2.378 . S
Ho337 O365 2.524 . S
Ho337 O366 2.381 . S
Ho337 O367 2.669 . S
C338 O356 1.259 1_554 S
C338 O357 1.268 . S
C339 Ho336 2.811 1_655 S
C339 C340 1.488 . S
C339 O358 1.215 . S
C339 O359 1.289 1_556 S
C340 C339 1.488 . S
C340 C341 1.348 . S
C340 C345 1.413 . S
C341 C340 1.348 . S
C341 C342 1.442 . S
C341 H368 0.930 1_556 S
C342 C341 1.442 . S
C342 C343 1.381 . S
C342 H369 0.931 1_556 S
C343 C342 1.381 . S
C343 C344 1.321 . S
C344 C343 1.321 . S
C344 C345 1.403 . S
C344 H370 0.934 . S
C345 C340 1.413 . S
C345 C344 1.403 . S
C345 H371 0.930 . S
C346 O360 1.275 . S
C346 O361 1.256 . S
C347 O362 1.259 1_565 S
C347 O363 1.268 . S
C348 Ho337 2.811 . S
C348 C349 1.488 . S
C348 O364 1.215 . S
C348 O365 1.289 . S
C349 C348 1.488 . S
C349 C350 1.348 . S
C349 C354 1.413 . S
C350 C349 1.348 . S
C350 C351 1.442 1_545 S
C350 H372 0.930 1_545 S
C351 C350 1.442 1_565 S
C351 C352 1.381 1_565 S
C351 H373 0.931 . S
C352 C351 1.381 1_545 S
C352 C353 1.321 . S
C353 C352 1.321 . S
C353 C354 1.403 . S
C353 H374 0.934 . S
C354 C349 1.413 . S
C354 C353 1.403 . S
C354 H375 0.930 . S
C355 O366 1.275 . S
C355 O367 1.256 . S
O356 Ho336 2.322 . S
O356 C338 1.259 1_556 S
O357 Ho337 2.346 . S
O357 C338 1.268 . S
O358 Ho336 2.378 1_655 S
O358 C339 1.215 . S
O359 Ho336 2.524 1_654 S
O359 C339 1.289 1_554 S
O360 Ho336 2.381 . S
O360 C346 1.275 . S
O361 Ho336 2.669 . S
O361 Ho337 2.305 1_556 S
O361 C346 1.256 . S
O362 Ho337 2.322 . S
O362 C347 1.259 1_545 S
O363 Ho336 2.346 1_564 S
O363 C347 1.268 . S
O364 Ho337 2.378 . S
O364 C348 1.215 . S
O365 Ho337 2.524 . S
O365 C348 1.289 . S
O366 Ho337 2.381 . S
O366 C355 1.275 . S
O367 Ho336 2.305 1_554 S
O367 Ho337 2.669 . S
O367 C355 1.256 . S
H368 C341 0.930 1_554 S
H369 C342 0.931 1_554 S
H370 C344 0.934 . S
H371 C345 0.930 . S
H372 C350 0.930 1_565 S
H373 C351 0.931 . S
H374 C353 0.934 . S
H375 C354 0.930 . S
Ho376 C379 2.811 . S
Ho376 O396 2.322 . S
Ho376 O398 2.378 . S
Ho376 O399 2.524 . S
Ho376 O400 2.381 . S
Ho376 O401 2.669 . S
Ho376 O403 2.346 . S
Ho376 O407 2.305 . S
Ho377 C388 2.811 . S
Ho377 O397 2.346 . S
Ho377 O401 2.305 . S
Ho377 O402 2.322 . S
Ho377 O404 2.378 . S
Ho377 O405 2.524 . S
Ho377 O406 2.381 . S
Ho377 O407 2.669 . S
C378 O396 1.259 . S
C378 O397 1.268 . S
C379 Ho376 2.811 . S
C379 C380 1.488 . S
C379 O398 1.215 . S
C379 O399 1.289 . S
C380 C379 1.488 . S
C380 C381 1.348 . S
C380 C385 1.413 . S
C381 C380 1.348 . S
C381 C382 1.442 . S
C381 H408 0.930 . S
C382 C381 1.442 . S
C382 C383 1.381 . S
C382 H409 0.931 . S
C383 C382 1.381 . S
C383 C384 1.321 . S
C384 C383 1.321 . S
C384 C385 1.403 . S
C384 H410 0.934 . S
C385 C380 1.413 . S
C385 C384 1.403 . S
C385 H411 0.930 . S
C386 O400 1.275 . S
C386 O401 1.256 . S
C387 O402 1.259 . S
C387 O403 1.268 . S
C388 Ho377 2.811 . S
C388 C389 1.488 . S
C388 O404 1.215 . S
C388 O405 1.289 . S
C389 C388 1.488 . S
C389 C390 1.348 . S
C389 C394 1.413 . S
C390 C389 1.348 . S
C390 C391 1.442 . S
C390 H412 0.930 . S
C391 C390 1.442 . S
C391 C392 1.381 . S
C391 H413 0.931 . S
C392 C391 1.381 . S
C392 C393 1.321 . S
C393 C392 1.321 . S
C393 C394 1.403 . S
C393 H414 0.934 . S
C394 C389 1.413 . S
C394 C393 1.403 . S
C394 H415 0.930 . S
C395 O406 1.275 . S
C395 O407 1.256 . S
O396 Ho376 2.322 . S
O396 C378 1.259 . S
O397 Ho377 2.346 . S
O397 C378 1.268 . S
O398 Ho376 2.378 . S
O398 C379 1.215 . S
O399 Ho376 2.524 . S
O399 C379 1.289 . S
O400 Ho376 2.381 . S
O400 C386 1.275 . S
O401 Ho376 2.669 . S
O401 Ho377 2.305 . S
O401 C386 1.256 . S
O402 Ho377 2.322 . S
O402 C387 1.259 . S
O403 Ho376 2.346 . S
O403 C387 1.268 . S
O404 Ho377 2.378 . S
O404 C388 1.215 . S
O405 Ho377 2.524 . S
O405 C388 1.289 . S
O406 Ho377 2.381 . S
O406 C395 1.275 . S
O407 Ho376 2.305 . S
O407 Ho377 2.669 . S
O407 C395 1.256 . S
H408 C381 0.930 . S
H409 C382 0.931 . S
H410 C384 0.934 . S
H411 C385 0.930 . S
H412 C390 0.930 . S
H413 C391 0.931 . S
H414 C393 0.934 . S
H415 C394 0.930 . S
Ho416 C419 2.811 . S
Ho416 O436 2.322 1_545 S
Ho416 O438 2.378 . S
Ho416 O439 2.524 . S
Ho416 O440 2.381 . S
Ho416 O441 2.669 . S
Ho416 O443 2.346 . S
Ho416 O447 2.305 . S
Ho417 C428 2.811 . S
Ho417 O437 2.346 1_545 S
Ho417 O441 2.305 . S
Ho417 O442 2.322 . S
Ho417 O444 2.378 . S
Ho417 O445 2.524 . S
Ho417 O446 2.381 . S
Ho417 O447 2.669 . S
C418 O436 1.259 . S
C418 O437 1.268 . S
C419 Ho416 2.811 . S
C419 C420 1.488 1_545 S
C419 O438 1.215 . S
C419 O439 1.289 . S
C420 C419 1.488 1_565 S
C420 C421 1.348 . S
C420 C425 1.413 . S
C421 C420 1.348 . S
C421 C422 1.442 . S
C421 H448 0.930 . S
C422 C421 1.442 . S
C422 C423 1.381 . S
C422 H449 0.931 . S
C423 C422 1.381 . S
C423 C424 1.321 . S
C424 C423 1.321 . S
C424 C425 1.403 . S
C424 H450 0.934 . S
C425 C420 1.413 . S
C425 C424 1.403 . S
C425 H451 0.930 . S
C426 O440 1.275 . S
C426 O441 1.256 . S
C427 O442 1.259 . S
C427 O443 1.268 . S
C428 Ho417 2.811 . S
C428 C429 1.488 . S
C428 O444 1.215 . S
C428 O445 1.289 . S
C429 C428 1.488 . S
C429 C430 1.348 . S
C429 C434 1.413 . S
C430 C429 1.348 . S
C430 C431 1.442 . S
C430 H452 0.930 . S
C431 C430 1.442 . S
C431 C432 1.381 . S
C431 H453 0.931 . S
C432 C431 1.381 . S
C432 C433 1.321 . S
C433 C432 1.321 . S
C433 C434 1.403 . S
C433 H454 0.934 . S
C434 C429 1.413 . S
C434 C433 1.403 . S
C434 H455 0.930 . S
C435 O446 1.275 . S
C435 O447 1.256 . S
O436 Ho416 2.322 1_565 S
O436 C418 1.259 . S
O437 Ho417 2.346 1_565 S
O437 C418 1.268 . S
O438 Ho416 2.378 . S
O438 C419 1.215 . S
O439 Ho416 2.524 . S
O439 C419 1.289 . S
O440 Ho416 2.381 . S
O440 C426 1.275 . S
O441 Ho416 2.669 . S
O441 Ho417 2.305 . S
O441 C426 1.256 . S
O442 Ho417 2.322 . S
O442 C427 1.259 . S
O443 Ho416 2.346 . S
O443 C427 1.268 . S
O444 Ho417 2.378 . S
O444 C428 1.215 . S
O445 Ho417 2.524 . S
O445 C428 1.289 . S
O446 Ho417 2.381 . S
O446 C435 1.275 . S
O447 Ho416 2.305 . S
O447 Ho417 2.669 . S
O447 C435 1.256 . S
H448 C421 0.930 . S
H449 C422 0.931 . S
H450 C424 0.934 . S
H451 C425 0.930 . S
H452 C430 0.930 . S
H453 C431 0.931 . S
H454 C433 0.934 . S
H455 C434 0.930 . S
Ho456 C459 2.811 . S
Ho456 O476 2.322 . S
Ho456 O478 2.378 . S
Ho456 O479 2.524 . S
Ho456 O480 2.381 . S
Ho456 O481 2.669 . S
Ho456 O483 2.346 . S
Ho456 O487 2.305 . S
Ho457 C468 2.811 . S
Ho457 O477 2.346 . S
Ho457 O481 2.305 . S
Ho457 O482 2.322 . S
Ho457 O484 2.378 . S
Ho457 O485 2.524 . S
Ho457 O486 2.381 . S
Ho457 O487 2.669 . S
C458 O476 1.259 . S
C458 O477 1.268 . S
C459 Ho456 2.811 . S
C459 C460 1.488 . S
C459 O478 1.215 . S
C459 O479 1.289 . S
C460 C459 1.488 . S
C460 C461 1.348 . S
C460 C465 1.413 . S
C461 C460 1.348 . S
C461 C462 1.442 . S
C461 H488 0.930 . S
C462 C461 1.442 . S
C462 C463 1.381 . S
C462 H489 0.931 . S
C463 C462 1.381 . S
C463 C464 1.321 . S
C464 C463 1.321 . S
C464 C465 1.403 . S
C464 H490 0.934 . S
C465 C460 1.413 . S
C465 C464 1.403 . S
C465 H491 0.930 . S
C466 O480 1.275 . S
C466 O481 1.256 . S
C467 O482 1.259 . S
C467 O483 1.268 . S
C468 Ho457 2.811 . S
C468 C469 1.488 . S
C468 O484 1.215 . S
C468 O485 1.289 . S
C469 C468 1.488 . S
C469 C470 1.348 . S
C469 C474 1.413 . S
C470 C469 1.348 . S
C470 C471 1.442 . S
C470 H492 0.930 . S
C471 C470 1.442 . S
C471 C472 1.381 . S
C471 H493 0.931 . S
C472 C471 1.381 . S
C472 C473 1.321 . S
C473 C472 1.321 . S
C473 C474 1.403 . S
C473 H494 0.934 . S
C474 C469 1.413 . S
C474 C473 1.403 . S
C474 H495 0.930 . S
C475 O486 1.275 . S
C475 O487 1.256 . S
O476 Ho456 2.322 . S
O476 C458 1.259 . S
O477 Ho457 2.346 . S
O477 C458 1.268 . S
O478 Ho456 2.378 . S
O478 C459 1.215 . S
O479 Ho456 2.524 . S
O479 C459 1.289 . S
O480 Ho456 2.381 . S
O480 C466 1.275 . S
O481 Ho456 2.669 . S
O481 Ho457 2.305 . S
O481 C466 1.256 . S
O482 Ho457 2.322 . S
O482 C467 1.259 . S
O483 Ho456 2.346 . S
O483 C467 1.268 . S
O484 Ho457 2.378 . S
O484 C468 1.215 . S
O485 Ho457 2.524 . S
O485 C468 1.289 . S
O486 Ho457 2.381 . S
O486 C475 1.275 . S
O487 Ho456 2.305 . S
O487 Ho457 2.669 . S
O487 C475 1.256 . S
H488 C461 0.930 . S
H489 C462 0.931 . S
H490 C464 0.934 . S
H491 C465 0.930 . S
H492 C470 0.930 . S
H493 C471 0.931 . S
H494 C473 0.934 . S
H495 C474 0.930 . S
Ho496 C499 2.811 . S
Ho496 O516 2.322 . S
Ho496 O518 2.378 . S
Ho496 O519 2.524 . S
Ho496 O520 2.423 . S
Ho496 O521 2.669 . S
Ho496 O523 2.346 . S
Ho496 O527 2.305 . S
Ho497 C508 2.814 . S
Ho497 O517 2.344 1_565 S
Ho497 O521 2.303 1_565 S
Ho497 O522 2.321 1_565 S
Ho497 O524 2.381 . S
Ho497 O525 2.526 . S
Ho497 O526 2.380 1_565 S
Ho497 O527 2.666 1_565 S
C498 O516 1.259 . S
C498 O517 1.268 . S
C499 Ho496 2.811 . S
C499 C500 1.488 . S
C499 O518 1.215 . S
C499 O519 1.289 . S
C500 C499 1.488 . S
C500 C501 1.348 . S
C500 C505 1.413 . S
C501 C500 1.348 . S
C501 C502 1.442 . S
C501 H528 0.930 . S
C502 C501 1.442 . S
C502 C503 1.381 . S
C502 H529 0.931 . S
C503 C502 1.381 . S
C503 C504 1.321 . S
C504 C503 1.321 . S
C504 C505 1.403 . S
C504 H530 0.934 . S
C505 C500 1.413 . S
C505 C504 1.403 . S
C505 H531 0.930 . S
C506 O520 1.291 . S
C506 O521 1.256 . S
C507 O522 1.259 . S
C507 O523 1.268 . S
C508 Ho497 2.814 . S
C508 C509 1.488 . S
C508 O524 1.215 . S
C508 O525 1.289 . S
C509 C508 1.488 . S
C509 C510 1.348 . S
C509 C514 1.413 . S
C510 C509 1.348 . S
C510 C511 1.442 . S
C510 H532 0.930 . S
C511 C510 1.442 . S
C511 C512 1.381 . S
C511 H533 0.931 . S
C512 C511 1.381 . S
C512 C513 1.321 . S
C513 C512 1.321 . S
C513 C514 1.403 . S
C513 H534 0.934 . S
C514 C509 1.413 . S
C514 C513 1.403 . S
C514 H535 0.930 . S
C515 O526 1.275 . S
C515 O527 1.256 . S
O516 Ho496 2.322 . S
O516 C498 1.259 . S
O517 Ho497 2.344 1_545 S
O517 C498 1.268 . S
O518 Ho496 2.378 . S
O518 C499 1.215 . S
O519 Ho496 2.524 . S
O519 C499 1.289 . S
O520 Ho496 2.423 . S
O520 C506 1.291 . S
O521 Ho496 2.669 . S
O521 Ho497 2.303 1_545 S
O521 C506 1.256 . S
O522 Ho497 2.321 1_545 S
O522 C507 1.259 . S
O523 Ho496 2.346 . S
O523 C507 1.268 . S
O524 Ho497 2.381 . S
O524 C508 1.215 . S
O525 Ho497 2.526 . S
O525 C508 1.289 . S
O526 Ho497 2.380 1_545 S
O526 C515 1.275 . S
O527 Ho496 2.305 . S
O527 Ho497 2.666 1_545 S
O527 C515 1.256 . S
H528 C501 0.930 . S
H529 C502 0.931 . S
H530 C504 0.934 . S
H531 C505 0.930 . S
H532 C510 0.930 . S
H533 C511 0.931 . S
H534 C513 0.934 . S
H535 C514 0.930 . S
Ho536 C539 2.811 . S
Ho536 O556 2.322 . S
Ho536 O558 2.378 . S
Ho536 O559 2.524 . S
Ho536 O560 2.381 . S
Ho536 O561 2.669 . S
Ho536 O563 2.346 . S
Ho536 O567 2.305 . S
Ho537 C548 2.811 . S
Ho537 O557 2.346 . S
Ho537 O561 2.305 . S
Ho537 O562 2.322 . S
Ho537 O564 2.378 . S
Ho537 O565 2.524 . S
Ho537 O566 2.381 . S
Ho537 O567 2.669 . S
C538 O556 1.259 . S
C538 O557 1.268 . S
C539 Ho536 2.811 . S
C539 C540 1.488 . S
C539 O558 1.215 . S
C539 O559 1.289 . S
C540 C539 1.488 . S
C540 C541 1.348 . S
C540 C545 1.413 . S
C541 C540 1.348 . S
C541 C542 1.442 . S
C541 H568 0.930 . S
C542 C541 1.442 . S
C542 C543 1.381 . S
C542 H569 0.931 . S
C543 C542 1.381 . S
C543 C544 1.321 . S
C544 C543 1.321 . S
C544 C545 1.403 . S
C544 H570 0.934 . S
C545 C540 1.413 . S
C545 C544 1.403 . S
C545 H571 0.930 . S
C546 O560 1.275 . S
C546 O561 1.256 . S
C547 O562 1.259 . S
C547 O563 1.268 . S
C548 Ho537 2.811 . S
C548 C549 1.488 . S
C548 O564 1.215 . S
C548 O565 1.289 . S
C549 C548 1.488 . S
C549 C550 1.348 . S
C549 C554 1.413 . S
C550 C549 1.348 . S
C550 C551 1.442 . S
C550 H572 0.930 . S
C551 C550 1.442 . S
C551 C552 1.381 . S
C551 H573 0.931 . S
C552 C551 1.381 . S
C552 C553 1.321 . S
C553 C552 1.321 . S
C553 C554 1.403 . S
C553 H574 0.934 . S
C554 C549 1.413 . S
C554 C553 1.403 . S
C554 H575 0.930 . S
C555 O566 1.275 . S
C555 O567 1.256 . S
O556 Ho536 2.322 . S
O556 C538 1.259 . S
O557 Ho537 2.346 . S
O557 C538 1.268 . S
O558 Ho536 2.378 . S
O558 C539 1.215 . S
O559 Ho536 2.524 . S
O559 C539 1.289 . S
O560 Ho536 2.381 . S
O560 C546 1.275 . S
O561 Ho536 2.669 . S
O561 Ho537 2.305 . S
O561 C546 1.256 . S
O562 Ho537 2.322 . S
O562 C547 1.259 . S
O563 Ho536 2.346 . S
O563 C547 1.268 . S
O564 Ho537 2.378 . S
O564 C548 1.215 . S
O565 Ho537 2.524 . S
O565 C548 1.289 . S
O566 Ho537 2.381 . S
O566 C555 1.275 . S
O567 Ho536 2.305 . S
O567 Ho537 2.669 . S
O567 C555 1.256 . S
H568 C541 0.930 . S
H569 C542 0.931 . S
H570 C544 0.934 . S
H571 C545 0.930 . S
H572 C550 0.930 . S
H573 C551 0.931 . S
H574 C553 0.934 . S
H575 C554 0.930 . S
Ho576 C579 2.811 . S
Ho576 O596 2.327 . S
Ho576 O598 2.378 1_545 S
Ho576 O599 2.524 . S
Ho576 O600 2.381 1_545 S
Ho576 O601 2.669 1_554 S
Ho576 O603 2.346 . S
Ho576 O607 2.305 . S
Ho577 C588 2.811 . S
Ho577 O597 2.346 . S
Ho577 O601 2.305 . S
Ho577 O602 2.331 . S
Ho577 O604 2.378 . S
Ho577 O605 2.524 . S
Ho577 O606 2.381 1_556 S
Ho577 O607 2.669 1_556 S
C578 O596 1.280 . S
C578 O597 1.268 1_554 S
C579 Ho576 2.811 . S
C579 C580 1.488 1_545 S
C579 O598 1.215 1_545 S
C579 O599 1.289 . S
C580 C579 1.488 1_565 S
C580 C581 1.348 1_565 S
C580 C585 1.413 . S
C581 C580 1.348 1_545 S
C581 C582 1.442 . S
C581 H608 0.930 . S
C582 C581 1.442 . S
C582 C583 1.381 1_545 S
C582 H609 0.931 . S
C583 C582 1.381 1_565 S
C583 C584 1.321 . S
C584 C583 1.321 . S
C584 C585 1.403 . S
C584 H610 0.934 . S
C585 C580 1.413 . S
C585 C584 1.403 . S
C585 H611 0.930 . S
C586 O600 1.275 1_556 S
C586 O601 1.256 1_565 S
C587 O602 1.240 1_554 S
C587 O603 1.268 . S
C588 Ho577 2.811 . S
C588 C589 1.488 . S
C588 O604 1.215 . S
C588 O605 1.289 . S
C589 C588 1.488 . S
C589 C590 1.348 . S
C589 C594 1.413 . S
C590 C589 1.348 . S
C590 C591 1.442 . S
C590 H612 0.930 . S
C591 C590 1.442 . S
C591 C592 1.381 . S
C591 H613 0.931 . S
C592 C591 1.381 . S
C592 C593 1.321 . S
C593 C592 1.321 . S
C593 C594 1.403 . S
C593 H614 0.934 . S
C594 C589 1.413 . S
C594 C593 1.403 . S
C594 H615 0.930 . S
C595 O606 1.275 . S
C595 O607 1.256 . S
O596 Ho576 2.327 . S
O596 C578 1.280 . S
O597 Ho577 2.346 . S
O597 C578 1.268 1_556 S
O598 Ho576 2.378 1_565 S
O598 C579 1.215 1_565 S
O599 Ho576 2.524 . S
O599 C579 1.289 . S
O600 Ho576 2.381 1_565 S
O600 C586 1.275 1_554 S
O601 Ho576 2.669 1_556 S
O601 Ho577 2.305 . S
O601 C586 1.256 1_545 S
O602 Ho577 2.331 . S
O602 C587 1.240 1_556 S
O603 Ho576 2.346 . S
O603 C587 1.268 . S
O604 Ho577 2.378 . S
O604 C588 1.215 . S
O605 Ho577 2.524 . S
O605 C588 1.289 . S
O606 Ho577 2.381 1_554 S
O606 C595 1.275 . S
O607 Ho576 2.305 . S
O607 Ho577 2.669 1_554 S
O607 C595 1.256 . S
H608 C581 0.930 . S
H609 C582 0.931 . S
H610 C584 0.934 . S
H611 C585 0.930 . S
H612 C590 0.930 . S
H613 C591 0.931 . S
H614 C593 0.934 . S
H615 C594 0.930 . S
Ho616 C619 2.811 . S
Ho616 O636 2.322 . S
Ho616 O638 2.378 . S
Ho616 O639 2.524 . S
Ho616 O640 2.381 . S
Ho616 O641 2.669 . S
Ho616 O643 2.346 . S
Ho616 O647 2.305 . S
Ho617 C628 2.811 . S
Ho617 O637 2.346 . S
Ho617 O641 2.305 . S
Ho617 O642 2.322 . S
Ho617 O644 2.378 . S
Ho617 O645 2.524 . S
Ho617 O646 2.381 . S
Ho617 O647 2.669 . S
C618 O636 1.259 . S
C618 O637 1.268 . S
C619 Ho616 2.811 . S
C619 C620 1.488 . S
C619 O638 1.215 . S
C619 O639 1.289 . S
C620 C619 1.488 . S
C620 C621 1.348 . S
C620 C625 1.413 . S
C621 C620 1.348 . S
C621 C622 1.442 . S
C621 H648 0.930 . S
C622 C621 1.442 . S
C622 C623 1.381 . S
C622 H649 0.931 . S
C623 C622 1.381 . S
C623 C624 1.321 . S
C624 C623 1.321 . S
C624 C625 1.403 . S
C624 H650 0.934 . S
C625 C620 1.413 . S
C625 C624 1.403 . S
C625 H651 0.930 . S
C626 O640 1.275 . S
C626 O641 1.256 . S
C627 O642 1.259 . S
C627 O643 1.268 . S
C628 Ho617 2.811 . S
C628 C629 1.488 . S
C628 O644 1.215 . S
C628 O645 1.289 . S
C629 C628 1.488 . S
C629 C630 1.348 . S
C629 C634 1.413 . S
C630 C629 1.348 . S
C630 C631 1.442 . S
C630 H652 0.930 . S
C631 C630 1.442 . S
C631 C632 1.381 . S
C631 H653 0.931 . S
C632 C631 1.381 . S
C632 C633 1.321 . S
C633 C632 1.321 . S
C633 C634 1.403 . S
C633 H654 0.934 . S
C634 C629 1.413 . S
C634 C633 1.403 . S
C634 H655 0.930 . S
C635 O646 1.275 . S
C635 O647 1.256 . S
O636 Ho616 2.322 . S
O636 C618 1.259 . S
O637 Ho617 2.346 . S
O637 C618 1.268 . S
O638 Ho616 2.378 . S
O638 C619 1.215 . S
O639 Ho616 2.524 . S
O639 C619 1.289 . S
O640 Ho616 2.381 . S
O640 C626 1.275 . S
O641 Ho616 2.669 . S
O641 Ho617 2.305 . S
O641 C626 1.256 . S
O642 Ho617 2.322 . S
O642 C627 1.259 . S
O643 Ho616 2.346 . S
O643 C627 1.268 . S
O644 Ho617 2.378 . S
O644 C628 1.215 . S
O645 Ho617 2.524 . S
O645 C628 1.289 . S
O646 Ho617 2.381 . S
O646 C635 1.275 . S
O647 Ho616 2.305 . S
O647 Ho617 2.669 . S
O647 C635 1.256 . S
H648 C621 0.930 . S
H649 C622 0.931 . S
H650 C624 0.934 . S
H651 C625 0.930 . S
H652 C630 0.930 . S
H653 C631 0.931 . S
H654 C633 0.934 . S
H655 C634 0.930 . S
Ho656 C659 2.811 . S
Ho656 O676 2.322 1_554 S
Ho656 O678 2.378 . S
Ho656 O679 2.540 . S
Ho656 O680 2.381 . S
Ho656 O681 2.669 . S
Ho656 O683 2.346 . S
Ho656 O687 2.305 . S
Ho657 C668 2.811 . S
Ho657 O677 2.346 1_554 S
Ho657 O681 2.305 . S
Ho657 O682 2.322 . S
Ho657 O684 2.378 . S
Ho657 O685 2.524 . S
Ho657 O686 2.391 . S
Ho657 O687 2.669 . S
C658 O676 1.259 . S
C658 O677 1.268 . S
C659 Ho656 2.811 . S
C659 C660 1.488 1_554 S
C659 O678 1.215 . S
C659 O679 1.292 . S
C660 C659 1.488 1_556 S
C660 C661 1.348 . S
C660 C665 1.413 . S
C661 C660 1.348 . S
C661 C662 1.442 . S
C661 H688 0.930 . S
C662 C661 1.442 . S
C662 C663 1.381 . S
C662 H689 0.931 . S
C663 C662 1.381 . S
C663 C664 1.321 . S
C664 C663 1.321 . S
C664 C665 1.403 . S
C664 H690 0.934 . S
C665 C660 1.413 . S
C665 C664 1.403 . S
C665 H691 0.930 1_556 S
C666 O680 1.275 . S
C666 O681 1.256 . S
C667 O682 1.259 . S
C667 O683 1.268 . S
C668 Ho657 2.811 . S
C668 C669 1.488 . S
C668 O684 1.215 . S
C668 O685 1.289 . S
C669 C668 1.488 . S
C669 C670 1.348 . S
C669 C674 1.413 . S
C670 C669 1.348 . S
C670 C671 1.442 . S
C670 H692 0.930 . S
C671 C670 1.442 . S
C671 C672 1.381 . S
C671 H693 0.931 . S
C672 C671 1.381 . S
C672 C673 1.321 . S
C673 C672 1.321 . S
C673 C674 1.403 . S
C673 H694 0.934 . S
C674 C669 1.413 . S
C674 C673 1.403 . S
C674 H695 0.930 . S
C675 O686 1.275 . S
C675 O687 1.256 . S
O676 Ho656 2.322 1_556 S
O676 C658 1.259 . S
O677 Ho657 2.346 1_556 S
O677 C658 1.268 . S
O678 Ho656 2.378 . S
O678 C659 1.215 . S
O679 Ho656 2.540 . S
O679 C659 1.292 . S
O680 Ho656 2.381 . S
O680 C666 1.275 . S
O681 Ho656 2.669 . S
O681 Ho657 2.305 . S
O681 C666 1.256 . S
O682 Ho657 2.322 . S
O682 C667 1.259 . S
O683 Ho656 2.346 . S
O683 C667 1.268 . S
O684 Ho657 2.378 . S
O684 C668 1.215 . S
O685 Ho657 2.524 . S
O685 C668 1.289 . S
O686 Ho657 2.391 . S
O686 C675 1.275 . S
O687 Ho656 2.305 . S
O687 Ho657 2.669 . S
O687 C675 1.256 . S
H688 C661 0.930 . S
H689 C662 0.931 . S
H690 C664 0.934 . S
H691 C665 0.930 1_554 S
H692 C670 0.930 . S
H693 C671 0.931 . S
H694 C673 0.934 . S
H695 C674 0.930 . S
Ho696 C699 2.811 . S
Ho696 O716 2.322 . S
Ho696 O718 2.378 . S
Ho696 O719 2.524 . S
Ho696 O720 2.381 . S
Ho696 O721 2.669 . S
Ho696 O723 2.346 . S
Ho696 O727 2.305 . S
Ho697 C708 2.811 . S
Ho697 O717 2.346 . S
Ho697 O721 2.305 . S
Ho697 O722 2.322 . S
Ho697 O724 2.378 . S
Ho697 O725 2.524 . S
Ho697 O726 2.381 . S
Ho697 O727 2.669 . S
C698 O716 1.259 . S
C698 O717 1.268 . S
C699 Ho696 2.811 . S
C699 C700 1.488 . S
C699 O718 1.215 . S
C699 O719 1.289 . S
C700 C699 1.488 . S
C700 C701 1.348 . S
C700 C705 1.413 . S
C701 C700 1.348 . S
C701 C702 1.442 . S
C701 H728 0.930 . S
C702 C701 1.442 . S
C702 C703 1.381 . S
C702 H729 0.931 . S
C703 C702 1.381 . S
C703 C704 1.321 . S
C704 C703 1.321 . S
C704 C705 1.403 . S
C704 H730 0.934 . S
C705 C700 1.413 . S
C705 C704 1.403 . S
C705 H731 0.930 . S
C706 O720 1.275 . S
C706 O721 1.256 . S
C707 O722 1.259 . S
C707 O723 1.268 . S
C708 Ho697 2.811 . S
C708 C709 1.488 . S
C708 O724 1.215 . S
C708 O725 1.289 . S
C709 C708 1.488 . S
C709 C710 1.348 . S
C709 C714 1.413 . S
C710 C709 1.348 . S
C710 C711 1.442 . S
C710 H732 0.930 . S
C711 C710 1.442 . S
C711 C712 1.381 . S
C711 H733 0.931 . S
C712 C711 1.381 . S
C712 C713 1.321 . S
C713 C712 1.321 . S
C713 C714 1.403 . S
C713 H734 0.934 . S
C714 C709 1.413 . S
C714 C713 1.403 . S
C714 H735 0.930 . S
C715 O726 1.275 . S
C715 O727 1.256 . S
O716 Ho696 2.322 . S
O716 C698 1.259 . S
O717 Ho697 2.346 . S
O717 C698 1.268 . S
O718 Ho696 2.378 . S
O718 C699 1.215 . S
O719 Ho696 2.524 . S
O719 C699 1.289 . S
O720 Ho696 2.381 . S
O720 C706 1.275 . S
O721 Ho696 2.669 . S
O721 Ho697 2.305 . S
O721 C706 1.256 . S
O722 Ho697 2.322 . S
O722 C707 1.259 . S
O723 Ho696 2.346 . S
O723 C707 1.268 . S
O724 Ho697 2.378 . S
O724 C708 1.215 . S
O725 Ho697 2.524 . S
O725 C708 1.289 . S
O726 Ho697 2.381 . S
O726 C715 1.275 . S
O727 Ho696 2.305 . S
O727 Ho697 2.669 . S
O727 C715 1.256 . S
H728 C701 0.930 . S
H729 C702 0.931 . S
H730 C704 0.934 . S
H731 C705 0.930 . S
H732 C710 0.930 . S
H733 C711 0.931 . S
H734 C713 0.934 . S
H735 C714 0.930 . S
Ho736 C739 2.811 . S
Ho736 O756 2.322 . S
Ho736 O758 2.378 . S
Ho736 O759 2.524 . S
Ho736 O760 2.381 . S
Ho736 O761 2.669 . S
Ho736 O763 2.346 . S
Ho736 O767 2.305 . S
Ho737 C748 2.811 . S
Ho737 O757 2.346 . S
Ho737 O761 2.305 . S
Ho737 O762 2.322 . S
Ho737 O764 2.378 . S
Ho737 O765 2.524 . S
Ho737 O766 2.381 . S
Ho737 O767 2.669 . S
C738 O756 1.259 . S
C738 O757 1.268 . S
C739 Ho736 2.811 . S
C739 C740 1.488 . S
C739 O758 1.215 . S
C739 O759 1.289 . S
C740 C739 1.488 . S
C740 C741 1.301 1_455 S
C740 C745 1.413 . S
C741 C740 1.301 1_655 S
C741 C742 1.473 . S
C741 H768 0.949 . S
C742 C741 1.473 . S
C742 C743 1.381 . S
C742 H769 0.931 . S
C743 C742 1.381 . S
C743 C744 1.321 1_655 S
C744 C743 1.321 1_455 S
C744 C745 1.403 . S
C744 H770 0.934 . S
C745 C740 1.413 . S
C745 C744 1.403 . S
C745 H771 0.930 . S
C746 O760 1.275 . S
C746 O761 1.256 . S
C747 O762 1.259 . S
C747 O763 1.268 . S
C748 Ho737 2.811 . S
C748 C749 1.488 . S
C748 O764 1.215 . S
C748 O765 1.289 . S
C749 C748 1.488 . S
C749 C750 1.348 . S
C749 C754 1.413 . S
C750 C749 1.348 . S
C750 C751 1.442 . S
C750 H772 0.930 . S
C751 C750 1.442 . S
C751 C752 1.381 . S
C751 H773 0.931 . S
C752 C751 1.381 . S
C752 C753 1.321 . S
C753 C752 1.321 . S
C753 C754 1.403 . S
C753 H774 0.934 . S
C754 C749 1.413 . S
C754 C753 1.403 . S
C754 H775 0.930 . S
C755 O766 1.275 . S
C755 O767 1.256 . S
O756 Ho736 2.322 . S
O756 C738 1.259 . S
O757 Ho737 2.346 . S
O757 C738 1.268 . S
O758 Ho736 2.378 . S
O758 C739 1.215 . S
O759 Ho736 2.524 . S
O759 C739 1.289 . S
O760 Ho736 2.381 . S
O760 C746 1.275 . S
O761 Ho736 2.669 . S
O761 Ho737 2.305 . S
O761 C746 1.256 . S
O762 Ho737 2.322 . S
O762 C747 1.259 . S
O763 Ho736 2.346 . S
O763 C747 1.268 . S
O764 Ho737 2.378 . S
O764 C748 1.215 . S
O765 Ho737 2.524 . S
O765 C748 1.289 . S
O766 Ho737 2.381 . S
O766 C755 1.275 . S
O767 Ho736 2.305 . S
O767 Ho737 2.669 . S
O767 C755 1.256 . S
H768 C741 0.949 . S
H769 C742 0.931 . S
H770 C744 0.934 . S
H771 C745 0.930 . S
H772 C750 0.930 . S
H773 C751 0.931 . S
H774 C753 0.934 . S
H775 C754 0.930 . S
Ho776 C779 2.811 . S
Ho776 O796 2.322 . S
Ho776 O798 2.378 . S
Ho776 O799 2.524 . S
Ho776 O800 2.381 . S
Ho776 O801 2.669 . S
Ho776 O803 2.346 . S
Ho776 O807 2.305 . S
Ho777 C788 2.811 . S
Ho777 O797 2.346 . S
Ho777 O801 2.305 . S
Ho777 O802 2.322 . S
Ho777 O804 2.378 . S
Ho777 O805 2.524 . S
Ho777 O806 2.381 . S
Ho777 O807 2.669 . S
C778 O796 1.259 . S
C778 O797 1.268 . S
C779 Ho776 2.811 . S
C779 C780 1.488 . S
C779 O798 1.215 . S
C779 O799 1.289 . S
C780 C779 1.488 . S
C780 C781 1.348 . S
C780 C785 1.413 . S
C781 C780 1.348 . S
C781 C782 1.442 . S
C781 H808 0.930 . S
C782 C781 1.442 . S
C782 C783 1.381 . S
C782 H809 0.931 . S
C783 C782 1.381 . S
C783 C784 1.321 . S
C784 C783 1.321 . S
C784 C785 1.403 . S
C784 H810 0.934 . S
C785 C780 1.413 . S
C785 C784 1.403 . S
C785 H811 0.930 . S
C786 O800 1.275 . S
C786 O801 1.256 . S
C787 O802 1.259 . S
C787 O803 1.268 . S
C788 Ho777 2.811 . S
C788 C789 1.488 . S
C788 O804 1.215 . S
C788 O805 1.289 . S
C789 C788 1.488 . S
C789 C790 1.348 . S
C789 C794 1.413 . S
C790 C789 1.348 . S
C790 C791 1.442 . S
C790 H812 0.930 . S
C791 C790 1.442 . S
C791 C792 1.381 . S
C791 H813 0.931 . S
C792 C791 1.381 . S
C792 C793 1.321 . S
C793 C792 1.321 . S
C793 C794 1.403 . S
C793 H814 0.934 . S
C794 C789 1.413 . S
C794 C793 1.403 . S
C794 H815 0.930 . S
C795 O806 1.275 . S
C795 O807 1.256 . S
O796 Ho776 2.322 . S
O796 C778 1.259 . S
O797 Ho777 2.346 . S
O797 C778 1.268 . S
O798 Ho776 2.378 . S
O798 C779 1.215 . S
O799 Ho776 2.524 . S
O799 C779 1.289 . S
O800 Ho776 2.381 . S
O800 C786 1.275 . S
O801 Ho776 2.669 . S
O801 Ho777 2.305 . S
O801 C786 1.256 . S
O802 Ho777 2.322 . S
O802 C787 1.259 . S
O803 Ho776 2.346 . S
O803 C787 1.268 . S
O804 Ho777 2.378 . S
O804 C788 1.215 . S
O805 Ho777 2.524 . S
O805 C788 1.289 . S
O806 Ho777 2.381 . S
O806 C795 1.275 . S
O807 Ho776 2.305 . S
O807 Ho777 2.669 . S
O807 C795 1.256 . S
H808 C781 0.930 . S
H809 C782 0.931 . S
H810 C784 0.934 . S
H811 C785 0.930 . S
H812 C790 0.930 . S
H813 C791 0.931 . S
H814 C793 0.934 . S
H815 C794 0.930 . S
Ho816 C819 2.811 . S
Ho816 O836 2.322 . S
Ho816 O838 2.378 . S
Ho816 O839 2.524 . S
Ho816 O840 2.381 . S
Ho816 O841 2.669 . S
Ho816 O843 2.346 . S
Ho816 O847 2.305 . S
Ho817 C828 2.811 . S
Ho817 O837 2.346 . S
Ho817 O841 2.305 . S
Ho817 O842 2.322 . S
Ho817 O844 2.378 . S
Ho817 O845 2.524 . S
Ho817 O846 2.381 . S
Ho817 O847 2.669 . S
C818 O836 1.259 . S
C818 O837 1.268 . S
C819 Ho816 2.811 . S
C819 C820 1.488 . S
C819 O838 1.215 . S
C819 O839 1.289 . S
C820 C819 1.488 . S
C820 C821 1.348 . S
C820 C825 1.413 . S
C821 C820 1.348 . S
C821 C822 1.442 . S
C821 H848 0.930 . S
C822 C821 1.442 . S
C822 C823 1.381 . S
C822 H849 0.931 . S
C823 C822 1.381 . S
C823 C824 1.321 . S
C824 C823 1.321 . S
C824 C825 1.403 . S
C824 H850 0.934 . S
C825 C820 1.413 . S
C825 C824 1.403 . S
C825 H851 0.930 . S
C826 O840 1.275 . S
C826 O841 1.256 . S
C827 O842 1.259 . S
C827 O843 1.268 . S
C828 Ho817 2.811 . S
C828 C829 1.488 . S
C828 O844 1.215 . S
C828 O845 1.289 . S
C829 C828 1.488 . S
C829 C830 1.348 . S
C829 C834 1.413 . S
C830 C829 1.348 . S
C830 C831 1.442 . S
C830 H852 0.930 . S
C831 C830 1.442 . S
C831 C832 1.381 . S
C831 H853 0.931 . S
C832 C831 1.381 . S
C832 C833 1.321 . S
C833 C832 1.321 . S
C833 C834 1.403 . S
C833 H854 0.934 . S
C834 C829 1.413 . S
C834 C833 1.403 . S
C834 H855 0.930 . S
C835 O846 1.275 . S
C835 O847 1.256 . S
O836 Ho816 2.322 . S
O836 C818 1.259 . S
O837 Ho817 2.346 . S
O837 C818 1.268 . S
O838 Ho816 2.378 . S
O838 C819 1.215 . S
O839 Ho816 2.524 . S
O839 C819 1.289 . S
O840 Ho816 2.381 . S
O840 C826 1.275 . S
O841 Ho816 2.669 . S
O841 Ho817 2.305 . S
O841 C826 1.256 . S
O842 Ho817 2.322 . S
O842 C827 1.259 . S
O843 Ho816 2.346 . S
O843 C827 1.268 . S
O844 Ho817 2.378 . S
O844 C828 1.215 . S
O845 Ho817 2.524 . S
O845 C828 1.289 . S
O846 Ho817 2.381 . S
O846 C835 1.275 . S
O847 Ho816 2.305 . S
O847 Ho817 2.669 . S
O847 C835 1.256 . S
H848 C821 0.930 . S
H849 C822 0.931 . S
H850 C824 0.934 . S
H851 C825 0.930 . S
H852 C830 0.930 . S
H853 C831 0.931 . S
H854 C833 0.934 . S
H855 C834 0.930 . S
Ho856 C859 2.811 . S
Ho856 O876 2.322 . S
Ho856 O878 2.378 . S
Ho856 O879 2.524 . S
Ho856 O880 2.381 . S
Ho856 O881 2.669 . S
Ho856 O883 2.346 . S
Ho856 O887 2.305 . S
Ho857 C868 2.811 . S
Ho857 O877 2.346 . S
Ho857 O881 2.305 . S
Ho857 O882 2.322 . S
Ho857 O884 2.378 . S
Ho857 O885 2.524 . S
Ho857 O886 2.381 . S
Ho857 O887 2.669 . S
C858 O876 1.259 . S
C858 O877 1.268 . S
C859 Ho856 2.811 . S
C859 C860 1.488 . S
C859 O878 1.215 . S
C859 O879 1.289 . S
C860 C859 1.488 . S
C860 C861 1.348 . S
C860 C865 1.413 . S
C861 C860 1.348 . S
C861 C862 1.442 . S
C861 H888 0.930 . S
C862 C861 1.442 . S
C862 C863 1.381 . S
C862 H889 0.931 . S
C863 C862 1.381 . S
C863 C864 1.321 . S
C864 C863 1.321 . S
C864 C865 1.403 . S
C864 H890 0.934 . S
C865 C860 1.413 . S
C865 C864 1.403 . S
C865 H891 0.930 . S
C866 O880 1.275 . S
C866 O881 1.256 . S
C867 O882 1.259 . S
C867 O883 1.268 . S
C868 Ho857 2.811 . S
C868 C869 1.488 . S
C868 O884 1.215 . S
C868 O885 1.289 . S
C869 C868 1.488 . S
C869 C870 1.348 . S
C869 C874 1.413 . S
C870 C869 1.348 . S
C870 C871 1.442 . S
C870 H892 0.930 . S
C871 C870 1.442 . S
C871 C872 1.381 . S
C871 H893 0.931 . S
C872 C871 1.381 . S
C872 C873 1.321 . S
C873 C872 1.321 . S
C873 C874 1.403 . S
C873 H894 0.934 . S
C874 C869 1.413 . S
C874 C873 1.403 . S
C874 H895 0.930 . S
C875 O886 1.275 . S
C875 O887 1.256 . S
O876 Ho856 2.322 . S
O876 C858 1.259 . S
O877 Ho857 2.346 . S
O877 C858 1.268 . S
O878 Ho856 2.378 . S
O878 C859 1.215 . S
O879 Ho856 2.524 . S
O879 C859 1.289 . S
O880 Ho856 2.381 . S
O880 C866 1.275 . S
O881 Ho856 2.669 . S
O881 Ho857 2.305 . S
O881 C866 1.256 . S
O882 Ho857 2.322 . S
O882 C867 1.259 . S
O883 Ho856 2.346 . S
O883 C867 1.268 . S
O884 Ho857 2.378 . S
O884 C868 1.215 . S
O885 Ho857 2.524 . S
O885 C868 1.289 . S
O886 Ho857 2.381 . S
O886 C875 1.275 . S
O887 Ho856 2.305 . S
O887 Ho857 2.669 . S
O887 C875 1.256 . S
H888 C861 0.930 . S
H889 C862 0.931 . S
H890 C864 0.934 . S
H891 C865 0.930 . S
H892 C870 0.930 . S
H893 C871 0.931 . S
H894 C873 0.934 . S
H895 C874 0.930 . S
Ho896 C899 2.811 . S
Ho896 O916 2.322 . S
Ho896 O918 2.378 . S
Ho896 O919 2.524 . S
Ho896 O920 2.381 . S
Ho896 O921 2.669 . S
Ho896 O923 2.346 . S
Ho896 O927 2.305 . S
Ho897 C908 2.811 . S
Ho897 O917 2.346 . S
Ho897 O921 2.305 . S
Ho897 O922 2.322 . S
Ho897 O924 2.378 . S
Ho897 O925 2.524 . S
Ho897 O926 2.381 . S
Ho897 O927 2.669 . S
C898 O916 1.259 . S
C898 O917 1.268 . S
C899 Ho896 2.811 . S
C899 C900 1.488 . S
C899 O918 1.215 . S
C899 O919 1.289 . S
C900 C899 1.488 . S
C900 C901 1.348 . S
C900 C905 1.413 . S
C901 C900 1.348 . S
C901 C902 1.442 . S
C901 H928 0.930 . S
C902 C901 1.442 . S
C902 C903 1.381 . S
C902 H929 0.931 . S
C903 C902 1.381 . S
C903 C904 1.321 . S
C904 C903 1.321 . S
C904 C905 1.403 . S
C904 H930 0.934 . S
C905 C900 1.413 . S
C905 C904 1.403 . S
C905 H931 0.930 . S
C906 O920 1.275 . S
C906 O921 1.256 . S
C907 O922 1.259 . S
C907 O923 1.268 . S
C908 Ho897 2.811 . S
C908 C909 1.488 . S
C908 O924 1.215 . S
C908 O925 1.289 . S
C909 C908 1.488 . S
C909 C910 1.348 . S
C909 C914 1.413 . S
C910 C909 1.348 . S
C910 C911 1.442 . S
C910 H932 0.930 . S
C911 C910 1.442 . S
C911 C912 1.381 . S
C911 H933 0.931 . S
C912 C911 1.381 . S
C912 C913 1.321 . S
C913 C912 1.321 . S
C913 C914 1.403 . S
C913 H934 0.934 . S
C914 C909 1.413 . S
C914 C913 1.403 . S
C914 H935 0.930 . S
C915 O926 1.275 . S
C915 O927 1.256 . S
O916 Ho896 2.322 . S
O916 C898 1.259 . S
O917 Ho897 2.346 . S
O917 C898 1.268 . S
O918 Ho896 2.378 . S
O918 C899 1.215 . S
O919 Ho896 2.524 . S
O919 C899 1.289 . S
O920 Ho896 2.381 . S
O920 C906 1.275 . S
O921 Ho896 2.669 . S
O921 Ho897 2.305 . S
O921 C906 1.256 . S
O922 Ho897 2.322 . S
O922 C907 1.259 . S
O923 Ho896 2.346 . S
O923 C907 1.268 . S
O924 Ho897 2.378 . S
O924 C908 1.215 . S
O925 Ho897 2.524 . S
O925 C908 1.289 . S
O926 Ho897 2.381 . S
O926 C915 1.275 . S
O927 Ho896 2.305 . S
O927 Ho897 2.669 . S
O927 C915 1.256 . S
H928 C901 0.930 . S
H929 C902 0.931 . S
H930 C904 0.934 . S
H931 C905 0.930 . S
H932 C910 0.930 . S
H933 C911 0.931 . S
H934 C913 0.934 . S
H935 C914 0.930 . S
Ho936 C939 2.807 1_554 S
Ho936 O956 2.322 1_554 S
Ho936 O958 2.352 1_554 S
Ho936 O959 2.544 . S
Ho936 O960 2.335 1_554 S
Ho936 O961 2.660 1_554 S
Ho936 O963 2.352 . S
Ho936 O967 2.352 . S
Ho937 C948 2.811 1_455 S
Ho937 O957 2.346 . S
Ho937 O961 2.305 1_554 S
Ho937 O962 2.322 . S
Ho937 O964 2.378 1_455 S
Ho937 O965 2.524 1_455 S
Ho937 O966 2.381 . S
Ho937 O967 2.669 . S
C938 O956 1.274 . S
C938 O957 1.258 1_556 S
C939 Ho936 2.807 1_556 S
C939 C940 1.488 . S
C939 O958 1.215 . S
C939 O959 1.289 1_556 S
C940 C939 1.488 . S
C940 C941 1.348 1_556 S
C940 C945 1.413 . S
C941 C940 1.348 1_554 S
C941 C942 1.442 1_554 S
C941 H968 0.930 . S
C942 C941 1.442 1_556 S
C942 C943 1.381 . S
C942 H969 0.931 1_556 S
C943 C942 1.381 . S
C943 C944 1.321 . S
C944 C943 1.321 . S
C944 C945 1.403 . S
C944 H970 0.934 . S
C945 C940 1.413 . S
C945 C944 1.403 . S
C945 H971 0.930 . S
C946 O960 1.275 . S
C946 O961 1.256 . S
C947 O962 1.259 . S
C947 O963 1.268 . S
C948 Ho937 2.811 1_655 S
C948 C949 1.488 . S
C948 O964 1.215 . S
C948 O965 1.289 . S
C949 C948 1.488 . S
C949 C950 1.348 . S
C949 C954 1.413 . S
C950 C949 1.348 . S
C950 C951 1.442 . S
C950 H972 0.930 . S
C951 C950 1.442 . S
C951 C952 1.381 . S
C951 H973 0.931 . S
C952 C951 1.381 . S
C952 C953 1.321 . S
C953 C952 1.321 . S
C953 C954 1.403 . S
C953 H974 0.934 . S
C954 C949 1.413 . S
C954 C953 1.403 . S
C954 H975 0.930 . S
C955 O966 1.275 . S
C955 O967 1.256 . S
O956 Ho936 2.322 1_556 S
O956 C938 1.274 . S
O957 Ho937 2.346 . S
O957 C938 1.258 1_554 S
O958 Ho936 2.352 1_556 S
O958 C939 1.215 . S
O959 Ho936 2.544 . S
O959 C939 1.289 1_554 S
O960 Ho936 2.335 1_556 S
O960 C946 1.275 . S
O961 Ho936 2.660 1_556 S
O961 Ho937 2.305 1_556 S
O961 C946 1.256 . S
O962 Ho937 2.322 . S
O962 C947 1.259 . S
O963 Ho936 2.352 . S
O963 C947 1.268 . S
O964 Ho937 2.378 1_655 S
O964 C948 1.215 . S
O965 Ho937 2.524 1_655 S
O965 C948 1.289 . S
O966 Ho937 2.381 . S
O966 C955 1.275 . S
O967 Ho936 2.352 . S
O967 Ho937 2.669 . S
O967 C955 1.256 . S
H968 C941 0.930 . S
H969 C942 0.931 1_554 S
H970 C944 0.934 . S
H971 C945 0.930 . S
H972 C950 0.930 . S
H973 C951 0.931 . S
H974 C953 0.934 . S
H975 C954 0.930 . S
H976 C988 0.930 . S
H977 C990 0.930 . S
H978 C991 0.960 . S
H979 C995 0.959 . S
H980 C995 0.959 . S
H981 C995 0.961 . S
H982 C996 0.960 . S
H983 C996 0.961 . S
H984 C996 0.959 . S
H985 C999 0.929 . S
H986 C1000 0.931 . S
H987 C1002 0.930 . S
C988 H976 0.930 . S
C988 C989 1.399 . S
C988 C993 1.399 . S
C989 C988 1.399 . S
C989 C990 1.376 . S
C990 H977 0.930 . S
C990 C989 1.376 . S
C990 C991 1.369 1_556 S
C991 H978 0.960 . S
C991 C990 1.369 1_554 S
C991 C992 1.380 1_554 S
C992 C991 1.380 1_556 S
C992 C993 1.394 . S
C992 C998 1.465 . S
C993 C988 1.399 . S
C993 C992 1.394 . S
C993 C994 1.516 . S
C994 C993 1.516 . S
C994 C995 1.502 1_455 S
C994 C996 1.561 . S
C994 C997 1.526 . S
C995 H979 0.959 . S
C995 H980 0.959 . S
C995 H981 0.961 . S
C995 C994 1.502 1_655 S
C996 H982 0.960 . S
C996 H983 0.961 . S
C996 H984 0.959 . S
C996 C994 1.561 . S
C997 C994 1.526 . S
C997 C998 1.396 . S
C997 C1002 1.390 . S
C998 C992 1.465 . S
C998 C997 1.396 . S
C998 C999 1.399 1_556 S
C999 H985 0.929 . S
C999 C998 1.399 1_554 S
C999 C1000 1.385 . S
C1000 H986 0.931 . S
C1000 C999 1.385 . S
C1000 C1001 1.389 . S
C1001 C1000 1.389 . S
C1001 C1002 1.388 1_554 S
C1002 H987 0.930 . S
C1002 C997 1.390 . S
C1002 C1001 1.388 1_556 S
H1003 C1015 0.930 . S
H1004 C1017 0.930 . S
H1005 C1018 0.930 . S
H1006 C1022 0.959 . S
H1007 C1022 0.959 . S
H1008 C1022 0.961 . S
H1009 C1023 0.960 . S
H1010 C1023 0.961 . S
H1011 C1023 0.959 . S
H1012 C1026 0.929 . S
H1013 C1027 0.931 . S
H1014 C1029 0.930 . S
C1015 H1003 0.930 . S
C1015 C1016 1.399 . S
C1015 C1020 1.399 . S
C1016 C1015 1.399 . S
C1016 C1017 1.376 . S
C1017 H1004 0.930 . S
C1017 C1016 1.376 . S
C1017 C1018 1.388 . S
C1018 H1005 0.930 . S
C1018 C1017 1.388 . S
C1018 C1019 1.390 . S
C1019 C1018 1.390 . S
C1019 C1020 1.394 . S
C1019 C1025 1.465 . S
C1020 C1015 1.399 . S
C1020 C1019 1.394 . S
C1020 C1021 1.516 . S
C1021 C1020 1.516 . S
C1021 C1022 1.502 . S
C1021 C1023 1.561 . S
C1021 C1024 1.526 . S
C1022 H1006 0.959 . S
C1022 H1007 0.959 . S
C1022 H1008 0.961 . S
C1022 C1021 1.502 . S
C1023 H1009 0.960 . S
C1023 H1010 0.961 . S
C1023 H1011 0.959 . S
C1023 C1021 1.561 . S
C1024 C1021 1.526 . S
C1024 C1025 1.396 . S
C1024 C1029 1.390 . S
C1025 C1019 1.465 . S
C1025 C1024 1.396 . S
C1025 C1026 1.399 . S
C1026 H1012 0.929 . S
C1026 C1025 1.399 . S
C1026 C1027 1.385 . S
C1027 H1013 0.931 . S
C1027 C1026 1.385 . S
C1027 C1028 1.389 . S
C1028 C1027 1.389 . S
C1028 C1029 1.387 . S
C1029 H1014 0.930 . S
C1029 C1024 1.390 . S
C1029 C1028 1.387 . S
H1030 C1042 0.930 . S
H1031 C1044 0.930 . S
H1032 C1045 0.930 . S
H1033 C1049 0.959 . S
H1034 C1049 0.959 . S
H1035 C1049 0.961 . S
H1036 C1050 0.960 . S
H1037 C1050 0.961 . S
H1038 C1050 0.959 . S
H1039 C1053 0.929 . S
H1040 C1054 0.931 . S
H1041 C1056 0.930 . S
C1042 H1030 0.930 . S
C1042 C1043 1.399 . S
C1042 C1047 1.399 . S
C1043 C1042 1.399 . S
C1043 C1044 1.376 . S
C1044 H1031 0.930 . S
C1044 C1043 1.376 . S
C1044 C1045 1.388 . S
C1045 H1032 0.930 . S
C1045 C1044 1.388 . S
C1045 C1046 1.390 . S
C1046 C1045 1.390 . S
C1046 C1047 1.394 . S
C1046 C1052 1.465 . S
C1047 C1042 1.399 . S
C1047 C1046 1.394 . S
C1047 C1048 1.516 . S
C1048 C1047 1.516 . S
C1048 C1049 1.502 . S
C1048 C1050 1.561 . S
C1048 C1051 1.526 . S
C1049 H1033 0.959 . S
C1049 H1034 0.959 . S
C1049 H1035 0.961 . S
C1049 C1048 1.502 . S
C1050 H1036 0.960 . S
C1050 H1037 0.961 . S
C1050 H1038 0.959 . S
C1050 C1048 1.561 . S
C1051 C1048 1.526 . S
C1051 C1052 1.396 . S
C1051 C1056 1.390 . S
C1052 C1046 1.465 . S
C1052 C1051 1.396 . S
C1052 C1053 1.399 . S
C1053 H1039 0.929 . S
C1053 C1052 1.399 . S
C1053 C1054 1.385 . S
C1054 H1040 0.931 . S
C1054 C1053 1.385 . S
C1054 C1055 1.389 . S
C1055 C1054 1.389 . S
C1055 C1056 1.387 . S
C1056 H1041 0.930 . S
C1056 C1051 1.390 . S
C1056 C1055 1.387 . S
H1057 C1069 0.930 . S
H1058 C1071 0.930 . S
H1059 C1072 0.930 . S
H1060 C1076 0.959 . S
H1061 C1076 0.959 . S
H1062 C1076 0.961 . S
H1063 C1077 0.960 . S
H1064 C1077 0.961 . S
H1065 C1077 0.959 . S
H1066 C1080 0.929 . S
H1067 C1081 0.931 . S
H1068 C1083 0.930 . S
C1069 H1057 0.930 . S
C1069 C1070 1.399 . S
C1069 C1074 1.399 . S
C1070 C1069 1.399 . S
C1070 C1071 1.376 . S
C1071 H1058 0.930 . S
C1071 C1070 1.376 . S
C1071 C1072 1.388 . S
C1072 H1059 0.930 . S
C1072 C1071 1.388 . S
C1072 C1073 1.390 . S
C1073 C1072 1.390 . S
C1073 C1074 1.394 . S
C1073 C1079 1.465 . S
C1074 C1069 1.399 . S
C1074 C1073 1.394 . S
C1074 C1075 1.516 . S
C1075 C1074 1.516 . S
C1075 C1076 1.502 . S
C1075 C1077 1.561 . S
C1075 C1078 1.526 . S
C1076 H1060 0.959 . S
C1076 H1061 0.959 . S
C1076 H1062 0.961 . S
C1076 C1075 1.502 . S
C1077 H1063 0.960 . S
C1077 H1064 0.961 . S
C1077 H1065 0.959 . S
C1077 C1075 1.561 . S
C1078 C1075 1.526 . S
C1078 C1079 1.396 . S
C1078 C1083 1.390 . S
C1079 C1073 1.465 . S
C1079 C1078 1.396 . S
C1079 C1080 1.399 . S
C1080 H1066 0.929 . S
C1080 C1079 1.399 . S
C1080 C1081 1.385 . S
C1081 H1067 0.931 . S
C1081 C1080 1.385 . S
C1081 C1082 1.389 . S
C1082 C1081 1.389 . S
C1082 C1083 1.387 . S
C1083 H1068 0.930 . S
C1083 C1078 1.390 . S
C1083 C1082 1.387 . S
H1084 C1096 0.930 . S
H1085 C1098 0.930 . S
H1086 C1099 0.930 . S
H1087 C1103 0.959 . S
H1088 C1103 0.959 . S
H1089 C1103 0.961 . S
H1090 C1104 0.960 1_655 S
H1091 C1104 0.961 . S
H1092 C1104 0.959 1_655 S
H1093 C1107 0.929 . S
H1094 C1108 0.931 . S
H1095 C1110 0.930 . S
C1096 H1084 0.930 . S
C1096 C1097 1.399 . S
C1096 C1101 1.399 . S
C1097 C1096 1.399 . S
C1097 C1098 1.376 . S
C1098 H1085 0.930 . S
C1098 C1097 1.376 . S
C1098 C1099 1.388 . S
C1099 H1086 0.930 . S
C1099 C1098 1.388 . S
C1099 C1100 1.390 . S
C1100 C1099 1.390 . S
C1100 C1101 1.394 . S
C1100 C1106 1.465 . S
C1101 C1096 1.399 . S
C1101 C1100 1.394 . S
C1101 C1102 1.516 . S
C1102 C1101 1.516 . S
C1102 C1103 1.502 . S
C1102 C1104 1.561 . S
C1102 C1105 1.526 . S
C1103 H1087 0.959 . S
C1103 H1088 0.959 . S
C1103 H1089 0.961 . S
C1103 C1102 1.502 . S
C1104 H1090 0.960 1_455 S
C1104 H1091 0.961 . S
C1104 H1092 0.959 1_455 S
C1104 C1102 1.561 . S
C1105 C1102 1.526 . S
C1105 C1106 1.396 . S
C1105 C1110 1.390 . S
C1106 C1100 1.465 . S
C1106 C1105 1.396 . S
C1106 C1107 1.399 . S
C1107 H1093 0.929 . S
C1107 C1106 1.399 . S
C1107 C1108 1.385 . S
C1108 H1094 0.931 . S
C1108 C1107 1.385 . S
C1108 C1109 1.389 . S
C1109 C1108 1.389 . S
C1109 C1110 1.387 . S
C1110 H1095 0.930 . S
C1110 C1105 1.390 . S
C1110 C1109 1.387 . S
H1111 C1123 0.930 . S
H1112 C1125 0.930 . S
H1113 C1126 0.930 . S
H1114 C1130 0.959 . S
H1115 C1130 0.959 . S
H1116 C1130 0.961 . S
H1117 C1131 0.960 . S
H1118 C1131 0.961 . S
H1119 C1131 0.959 . S
H1120 C1134 0.929 . S
H1121 C1135 0.931 . S
H1122 C1137 0.930 . S
C1123 H1111 0.930 . S
C1123 C1124 1.399 . S
C1123 C1128 1.399 . S
C1124 C1123 1.399 . S
C1124 C1125 1.376 . S
C1125 H1112 0.930 . S
C1125 C1124 1.376 . S
C1125 C1126 1.388 . S
C1126 H1113 0.930 . S
C1126 C1125 1.388 . S
C1126 C1127 1.390 . S
C1127 C1126 1.390 . S
C1127 C1128 1.394 . S
C1127 C1133 1.465 . S
C1128 C1123 1.399 . S
C1128 C1127 1.394 . S
C1128 C1129 1.516 . S
C1129 C1128 1.516 . S
C1129 C1130 1.502 . S
C1129 C1131 1.561 . S
C1129 C1132 1.526 . S
C1130 H1114 0.959 . S
C1130 H1115 0.959 . S
C1130 H1116 0.961 . S
C1130 C1129 1.502 . S
C1131 H1117 0.960 . S
C1131 H1118 0.961 . S
C1131 H1119 0.959 . S
C1131 C1129 1.561 . S
C1132 C1129 1.526 . S
C1132 C1133 1.396 . S
C1132 C1137 1.390 . S
C1133 C1127 1.465 . S
C1133 C1132 1.396 . S
C1133 C1134 1.399 . S
C1134 H1120 0.929 . S
C1134 C1133 1.399 . S
C1134 C1135 1.385 . S
C1135 H1121 0.931 . S
C1135 C1134 1.385 . S
C1135 C1136 1.389 . S
C1136 C1135 1.389 . S
C1136 C1137 1.387 . S
C1137 H1122 0.930 . S
C1137 C1132 1.390 . S
C1137 C1136 1.387 . S
H1138 C1150 0.930 . S
H1139 C1152 0.930 . S
H1140 C1153 0.930 . S
H1141 C1157 0.959 . S
H1142 C1157 0.959 . S
H1143 C1157 0.961 . S
H1144 C1158 0.960 . S
H1145 C1158 0.961 . S
H1146 C1158 0.959 . S
H1147 C1161 0.929 . S
H1148 C1162 0.931 . S
H1149 C1164 0.930 . S
C1150 H1138 0.930 . S
C1150 C1151 1.399 . S
C1150 C1155 1.399 . S
C1151 C1150 1.399 . S
C1151 C1152 1.376 . S
C1152 H1139 0.930 . S
C1152 C1151 1.376 . S
C1152 C1153 1.388 . S
C1153 H1140 0.930 . S
C1153 C1152 1.388 . S
C1153 C1154 1.390 . S
C1154 C1153 1.390 . S
C1154 C1155 1.394 . S
C1154 C1160 1.465 . S
C1155 C1150 1.399 . S
C1155 C1154 1.394 . S
C1155 C1156 1.516 . S
C1156 C1155 1.516 . S
C1156 C1157 1.502 . S
C1156 C1158 1.561 . S
C1156 C1159 1.526 . S
C1157 H1141 0.959 . S
C1157 H1142 0.959 . S
C1157 H1143 0.961 . S
C1157 C1156 1.502 . S
C1158 H1144 0.960 . S
C1158 H1145 0.961 . S
C1158 H1146 0.959 . S
C1158 C1156 1.561 . S
C1159 C1156 1.526 . S
C1159 C1160 1.396 . S
C1159 C1164 1.390 . S
C1160 C1154 1.465 . S
C1160 C1159 1.396 . S
C1160 C1161 1.399 . S
C1161 H1147 0.929 . S
C1161 C1160 1.399 . S
C1161 C1162 1.385 . S
C1162 H1148 0.931 . S
C1162 C1161 1.385 . S
C1162 C1163 1.389 . S
C1163 C1162 1.389 . S
C1163 C1164 1.387 . S
C1164 H1149 0.930 . S
C1164 C1159 1.390 . S
C1164 C1163 1.387 . S
H1165 C1177 0.930 . S
H1166 C1179 0.930 . S
H1167 C1180 0.930 . S
H1168 C1184 0.959 . S
H1169 C1184 0.959 . S
H1170 C1184 0.961 . S
H1171 C1185 0.960 . S
H1172 C1185 0.961 . S
H1173 C1185 0.959 . S
H1174 C1188 0.929 . S
H1175 C1189 0.931 . S
H1176 C1191 0.930 . S
C1177 H1165 0.930 . S
C1177 C1178 1.399 . S
C1177 C1182 1.399 . S
C1178 C1177 1.399 . S
C1178 C1179 1.376 . S
C1179 H1166 0.930 . S
C1179 C1178 1.376 . S
C1179 C1180 1.388 . S
C1180 H1167 0.930 . S
C1180 C1179 1.388 . S
C1180 C1181 1.390 . S
C1181 C1180 1.390 . S
C1181 C1182 1.394 . S
C1181 C1187 1.465 . S
C1182 C1177 1.399 . S
C1182 C1181 1.394 . S
C1182 C1183 1.516 . S
C1183 C1182 1.516 . S
C1183 C1184 1.502 . S
C1183 C1185 1.561 . S
C1183 C1186 1.526 . S
C1184 H1168 0.959 . S
C1184 H1169 0.959 . S
C1184 H1170 0.961 . S
C1184 C1183 1.502 . S
C1185 H1171 0.960 . S
C1185 H1172 0.961 . S
C1185 H1173 0.959 . S
C1185 C1183 1.561 . S
C1186 C1183 1.526 . S
C1186 C1187 1.396 . S
C1186 C1191 1.390 . S
C1187 C1181 1.465 . S
C1187 C1186 1.396 . S
C1187 C1188 1.399 . S
C1188 H1174 0.929 . S
C1188 C1187 1.399 . S
C1188 C1189 1.385 . S
C1189 H1175 0.931 . S
C1189 C1188 1.385 . S
C1189 C1190 1.389 . S
C1190 C1189 1.389 . S
C1190 C1191 1.387 . S
C1191 H1176 0.930 . S
C1191 C1186 1.390 . S
C1191 C1190 1.387 . S
H1192 C1204 0.930 . S
H1193 C1206 0.930 . S
H1194 C1207 0.930 1_455 S
H1195 C1211 0.959 . S
H1196 C1211 0.959 . S
H1197 C1211 0.961 . S
H1198 C1212 0.960 . S
H1199 C1212 0.961 . S
H1200 C1212 0.959 . S
H1201 C1215 0.929 . S
H1202 C1216 0.931 . S
H1203 C1218 0.930 . S
C1204 H1192 0.930 . S
C1204 C1205 1.399 . S
C1204 C1209 1.399 . S
C1205 C1204 1.399 . S
C1205 C1206 1.376 . S
C1206 H1193 0.930 . S
C1206 C1205 1.376 . S
C1206 C1207 1.388 . S
C1207 H1194 0.930 1_655 S
C1207 C1206 1.388 . S
C1207 C1208 1.390 1_655 S
C1208 C1207 1.390 1_455 S
C1208 C1209 1.374 1_455 S
C1208 C1214 1.483 . S
C1209 C1204 1.399 . S
C1209 C1208 1.374 1_655 S
C1209 C1210 1.516 . S
C1210 C1209 1.516 . S
C1210 C1211 1.502 . S
C1210 C1212 1.561 1_655 S
C1210 C1213 1.526 1_655 S
C1211 H1195 0.959 . S
C1211 H1196 0.959 . S
C1211 H1197 0.961 . S
C1211 C1210 1.502 . S
C1212 H1198 0.960 . S
C1212 H1199 0.961 . S
C1212 H1200 0.959 . S
C1212 C1210 1.561 1_455 S
C1213 C1210 1.526 1_455 S
C1213 C1214 1.396 . S
C1213 C1218 1.390 . S
C1214 C1208 1.483 . S
C1214 C1213 1.396 . S
C1214 C1215 1.399 . S
C1215 H1201 0.929 . S
C1215 C1214 1.399 . S
C1215 C1216 1.385 . S
C1216 H1202 0.931 . S
C1216 C1215 1.385 . S
C1216 C1217 1.389 . S
C1217 C1216 1.389 . S
C1217 C1218 1.387 . S
C1218 H1203 0.930 . S
C1218 C1213 1.390 . S
C1218 C1217 1.387 . S
H1219 C1231 0.930 . S
H1220 C1233 0.930 . S
H1221 C1234 0.930 . S
H1222 C1238 0.959 . S
H1223 C1238 0.959 . S
H1224 C1238 0.961 . S
H1225 C1239 0.960 . S
H1226 C1239 0.961 . S
H1227 C1239 0.959 . S
H1228 C1242 0.929 . S
H1229 C1243 0.931 . S
H1230 C1245 0.930 . S
C1231 H1219 0.930 . S
C1231 C1232 1.399 . S
C1231 C1236 1.399 . S
C1232 C1231 1.399 . S
C1232 C1233 1.376 . S
C1233 H1220 0.930 . S
C1233 C1232 1.376 . S
C1233 C1234 1.388 . S
C1234 H1221 0.930 . S
C1234 C1233 1.388 . S
C1234 C1235 1.390 . S
C1235 C1234 1.390 . S
C1235 C1236 1.394 . S
C1235 C1241 1.465 . S
C1236 C1231 1.399 . S
C1236 C1235 1.394 . S
C1236 C1237 1.516 . S
C1237 C1236 1.516 . S
C1237 C1238 1.502 . S
C1237 C1239 1.561 . S
C1237 C1240 1.526 . S
C1238 H1222 0.959 . S
C1238 H1223 0.959 . S
C1238 H1224 0.961 . S
C1238 C1237 1.502 . S
C1239 H1225 0.960 . S
C1239 H1226 0.961 . S
C1239 H1227 0.959 . S
C1239 C1237 1.561 . S
C1240 C1237 1.526 . S
C1240 C1241 1.396 . S
C1240 C1245 1.390 . S
C1241 C1235 1.465 . S
C1241 C1240 1.396 . S
C1241 C1242 1.399 . S
C1242 H1228 0.929 . S
C1242 C1241 1.399 . S
C1242 C1243 1.385 . S
C1243 H1229 0.931 . S
C1243 C1242 1.385 . S
C1243 C1244 1.389 . S
C1244 C1243 1.389 . S
C1244 C1245 1.387 . S
C1245 H1230 0.930 . S
C1245 C1240 1.390 . S
C1245 C1244 1.387 . S
H1246 C1258 0.930 . S
H1247 C1260 0.930 . S
H1248 C1261 0.930 . S
H1249 C1265 0.959 . S
H1250 C1265 0.959 1_565 S
H1251 C1265 0.949 1_565 S
H1252 C1266 0.960 . S
H1253 C1266 0.961 . S
H1254 C1266 0.959 1_545 S
H1255 C1269 0.929 . S
H1256 C1270 0.931 . S
H1257 C1272 0.930 . S
C1258 H1246 0.930 . S
C1258 C1259 1.399 . S
C1258 C1263 1.399 . S
C1259 C1258 1.399 . S
C1259 C1260 1.376 . S
C1260 H1247 0.930 . S
C1260 C1259 1.376 . S
C1260 C1261 1.388 . S
C1261 H1248 0.930 . S
C1261 C1260 1.388 . S
C1261 C1262 1.390 . S
C1262 C1261 1.390 . S
C1262 C1263 1.394 . S
C1262 C1268 1.465 . S
C1263 C1258 1.399 . S
C1263 C1262 1.394 . S
C1263 C1264 1.516 . S
C1264 C1263 1.516 . S
C1264 C1265 1.502 . S
C1264 C1266 1.561 1_545 S
C1264 C1267 1.526 . S
C1265 H1249 0.959 . S
C1265 H1250 0.959 1_545 S
C1265 H1251 0.949 1_545 S
C1265 C1264 1.502 . S
C1266 H1252 0.960 . S
C1266 H1253 0.961 . S
C1266 H1254 0.959 1_565 S
C1266 C1264 1.561 1_565 S
C1267 C1264 1.526 . S
C1267 C1268 1.396 . S
C1267 C1272 1.390 . S
C1268 C1262 1.465 . S
C1268 C1267 1.396 . S
C1268 C1269 1.399 . S
C1269 H1255 0.929 . S
C1269 C1268 1.399 . S
C1269 C1270 1.385 . S
C1270 H1256 0.931 . S
C1270 C1269 1.385 . S
C1270 C1271 1.389 . S
C1271 C1270 1.389 . S
C1271 C1272 1.387 . S
C1272 H1257 0.930 . S
C1272 C1267 1.390 . S
C1272 C1271 1.387 . S
H1273 C1285 0.930 . S
H1274 C1287 0.930 . S
H1275 C1288 0.930 . S
H1276 C1292 0.959 . S
H1277 C1292 0.959 . S
H1278 C1292 0.961 . S
H1279 C1293 0.960 . S
H1280 C1293 0.961 . S
H1281 C1293 0.959 . S
H1282 C1296 0.929 . S
H1283 C1297 0.931 . S
H1284 C1299 0.930 . S
C1285 H1273 0.930 . S
C1285 C1286 1.399 . S
C1285 C1290 1.399 . S
C1286 C1285 1.399 . S
C1286 C1287 1.376 . S
C1287 H1274 0.930 . S
C1287 C1286 1.376 . S
C1287 C1288 1.388 . S
C1288 H1275 0.930 . S
C1288 C1287 1.388 . S
C1288 C1289 1.390 . S
C1289 C1288 1.390 . S
C1289 C1290 1.394 . S
C1289 C1295 1.465 . S
C1290 C1285 1.399 . S
C1290 C1289 1.394 . S
C1290 C1291 1.516 . S
C1291 C1290 1.516 . S
C1291 C1292 1.502 . S
C1291 C1293 1.561 . S
C1291 C1294 1.526 . S
C1292 H1276 0.959 . S
C1292 H1277 0.959 . S
C1292 H1278 0.961 . S
C1292 C1291 1.502 . S
C1293 H1279 0.960 . S
C1293 H1280 0.961 . S
C1293 H1281 0.959 . S
C1293 C1291 1.561 . S
C1294 C1291 1.526 . S
C1294 C1295 1.396 . S
C1294 C1299 1.390 . S
C1295 C1289 1.465 . S
C1295 C1294 1.396 . S
C1295 C1296 1.399 . S
C1296 H1282 0.929 . S
C1296 C1295 1.399 . S
C1296 C1297 1.385 . S
C1297 H1283 0.931 . S
C1297 C1296 1.385 . S
C1297 C1298 1.389 . S
C1298 C1297 1.389 . S
C1298 C1299 1.387 . S
C1299 H1284 0.930 . S
C1299 C1294 1.390 . S
C1299 C1298 1.387 . S
H1300 C1312 0.930 . S
H1301 C1314 0.930 1_455 S
H1302 C1315 0.930 . S
H1303 C1319 0.959 . S
H1304 C1319 0.984 . S
H1305 C1319 0.961 . S
H1306 C1320 0.960 1_565 S
H1307 C1320 0.961 1_565 S
H1308 C1320 0.959 1_455 S
H1309 C1323 0.929 . S
H1310 C1324 0.931 . S
H1311 C1326 0.923 1_655 S
C1312 H1300 0.930 . S
C1312 C1313 1.399 . S
C1312 C1317 1.399 . S
C1313 C1312 1.399 . S
C1313 C1314 1.376 . S
C1314 H1301 0.930 1_655 S
C1314 C1313 1.376 . S
C1314 C1315 1.388 1_655 S
C1315 H1302 0.930 . S
C1315 C1314 1.388 1_455 S
C1315 C1316 1.390 . S
C1316 C1315 1.390 . S
C1316 C1317 1.394 1_455 S
C1316 C1322 1.465 . S
C1317 C1312 1.399 . S
C1317 C1316 1.394 1_655 S
C1317 C1318 1.516 . S
C1318 C1317 1.516 . S
C1318 C1319 1.502 . S
C1318 C1320 1.561 . S
C1318 C1321 1.526 1_655 S
C1319 H1303 0.959 . S
C1319 H1304 0.984 . S
C1319 H1305 0.961 . S
C1319 C1318 1.502 . S
C1320 H1306 0.960 1_545 S
C1320 H1307 0.961 1_545 S
C1320 H1308 0.959 1_655 S
C1320 C1318 1.561 . S
C1321 C1318 1.526 1_455 S
C1321 C1322 1.396 . S
C1321 C1326 1.390 . S
C1322 C1316 1.465 . S
C1322 C1321 1.396 . S
C1322 C1323 1.399 . S
C1323 H1309 0.929 . S
C1323 C1322 1.399 . S
C1323 C1324 1.385 . S
C1324 H1310 0.931 . S
C1324 C1323 1.385 . S
C1324 C1325 1.389 . S
C1325 C1324 1.389 . S
C1325 C1326 1.387 . S
C1326 H1311 0.923 1_455 S
C1326 C1321 1.390 . S
C1326 C1325 1.387 . S
H1327 C1339 0.930 . S
H1328 C1341 0.930 . S
H1329 C1342 0.930 . S
H1330 C1346 0.959 . S
H1331 C1346 0.959 . S
H1332 C1346 0.961 . S
H1333 C1347 0.960 . S
H1334 C1347 0.961 . S
H1335 C1347 0.959 . S
H1336 C1350 0.929 . S
H1337 C1351 0.931 . S
H1338 C1353 0.930 . S
C1339 H1327 0.930 . S
C1339 C1340 1.399 . S
C1339 C1344 1.399 . S
C1340 C1339 1.399 . S
C1340 C1341 1.376 . S
C1341 H1328 0.930 . S
C1341 C1340 1.376 . S
C1341 C1342 1.388 . S
C1342 H1329 0.930 . S
C1342 C1341 1.388 . S
C1342 C1343 1.390 . S
C1343 C1342 1.390 . S
C1343 C1344 1.394 . S
C1343 C1349 1.465 . S
C1344 C1339 1.399 . S
C1344 C1343 1.394 . S
C1344 C1345 1.516 . S
C1345 C1344 1.516 . S
C1345 C1346 1.502 . S
C1345 C1347 1.561 . S
C1345 C1348 1.526 . S
C1346 H1330 0.959 . S
C1346 H1331 0.959 . S
C1346 H1332 0.961 . S
C1346 C1345 1.502 . S
C1347 H1333 0.960 . S
C1347 H1334 0.961 . S
C1347 H1335 0.959 . S
C1347 C1345 1.561 . S
C1348 C1345 1.526 . S
C1348 C1349 1.396 . S
C1348 C1353 1.390 . S
C1349 C1343 1.465 . S
C1349 C1348 1.396 . S
C1349 C1350 1.399 . S
C1350 H1336 0.929 . S
C1350 C1349 1.399 . S
C1350 C1351 1.385 . S
C1351 H1337 0.931 . S
C1351 C1350 1.385 . S
C1351 C1352 1.389 . S
C1352 C1351 1.389 . S
C1352 C1353 1.387 . S
C1353 H1338 0.930 . S
C1353 C1348 1.390 . S
C1353 C1352 1.387 . S
H1354 C1366 0.930 . S
H1355 C1368 0.930 . S
H1356 C1369 0.930 . S
H1357 C1373 0.959 . S
H1358 C1373 0.959 . S
H1359 C1373 0.961 . S
H1360 C1374 0.960 . S
H1361 C1374 0.961 . S
H1362 C1374 0.959 . S
H1363 C1377 0.929 . S
H1364 C1378 0.931 . S
H1365 C1380 0.930 . S
C1366 H1354 0.930 . S
C1366 C1367 1.399 . S
C1366 C1371 1.399 . S
C1367 C1366 1.399 . S
C1367 C1368 1.376 . S
C1368 H1355 0.930 . S
C1368 C1367 1.376 . S
C1368 C1369 1.388 . S
C1369 H1356 0.930 . S
C1369 C1368 1.388 . S
C1369 C1370 1.390 . S
C1370 C1369 1.390 . S
C1370 C1371 1.394 . S
C1370 C1376 1.465 . S
C1371 C1366 1.399 . S
C1371 C1370 1.394 . S
C1371 C1372 1.516 . S
C1372 C1371 1.516 . S
C1372 C1373 1.502 . S
C1372 C1374 1.561 . S
C1372 C1375 1.526 . S
C1373 H1357 0.959 . S
C1373 H1358 0.959 . S
C1373 H1359 0.961 . S
C1373 C1372 1.502 . S
C1374 H1360 0.960 . S
C1374 H1361 0.961 . S
C1374 H1362 0.959 . S
C1374 C1372 1.561 . S
C1375 C1372 1.526 . S
C1375 C1376 1.396 . S
C1375 C1380 1.390 . S
C1376 C1370 1.465 . S
C1376 C1375 1.396 . S
C1376 C1377 1.399 . S
C1377 H1363 0.929 . S
C1377 C1376 1.399 . S
C1377 C1378 1.385 . S
C1378 H1364 0.931 . S
C1378 C1377 1.385 . S
C1378 C1379 1.389 . S
C1379 C1378 1.389 . S
C1379 C1380 1.387 . S
C1380 H1365 0.930 . S
C1380 C1375 1.390 . S
C1380 C1379 1.387 . S
H1381 C1393 0.930 . S
H1382 C1395 0.930 . S
H1383 C1396 0.930 . S
H1384 C1400 0.959 . S
H1385 C1400 0.959 . S
H1386 C1400 0.961 . S
H1387 C1401 0.960 . S
H1388 C1401 0.961 . S
H1389 C1401 0.959 . S
H1390 C1404 0.929 . S
H1391 C1405 0.931 . S
H1392 C1407 0.930 . S
C1393 H1381 0.930 . S
C1393 C1394 1.399 . S
C1393 C1398 1.399 . S
C1394 C1393 1.399 . S
C1394 C1395 1.376 . S
C1395 H1382 0.930 . S
C1395 C1394 1.376 . S
C1395 C1396 1.388 . S
C1396 H1383 0.930 . S
C1396 C1395 1.388 . S
C1396 C1397 1.390 . S
C1397 C1396 1.390 . S
C1397 C1398 1.394 . S
C1397 C1403 1.465 . S
C1398 C1393 1.399 . S
C1398 C1397 1.394 . S
C1398 C1399 1.516 . S
C1399 C1398 1.516 . S
C1399 C1400 1.502 . S
C1399 C1401 1.561 . S
C1399 C1402 1.526 . S
C1400 H1384 0.959 . S
C1400 H1385 0.959 . S
C1400 H1386 0.961 . S
C1400 C1399 1.502 . S
C1401 H1387 0.960 . S
C1401 H1388 0.961 . S
C1401 H1389 0.959 . S
C1401 C1399 1.561 . S
C1402 C1399 1.526 . S
C1402 C1403 1.396 . S
C1402 C1407 1.390 . S
C1403 C1397 1.465 . S
C1403 C1402 1.396 . S
C1403 C1404 1.399 . S
C1404 H1390 0.929 . S
C1404 C1403 1.399 . S
C1404 C1405 1.385 . S
C1405 H1391 0.931 . S
C1405 C1404 1.385 . S
C1405 C1406 1.389 . S
C1406 C1405 1.389 . S
C1406 C1407 1.387 . S
C1407 H1392 0.930 . S
C1407 C1402 1.390 . S
C1407 C1406 1.387 . S
H1408 C1420 0.930 . S
H1409 C1422 0.930 . S
H1410 C1423 0.930 . S
H1411 C1427 0.959 . S
H1412 C1427 0.959 . S
H1413 C1427 0.961 . S
H1414 C1428 0.960 . S
H1415 C1428 0.961 1_545 S
H1416 C1428 0.959 . S
H1417 C1431 0.929 . S
H1418 C1432 0.931 . S
H1419 C1434 0.930 . S
C1420 H1408 0.930 . S
C1420 C1421 1.399 . S
C1420 C1425 1.399 . S
C1421 C1420 1.399 . S
C1421 C1422 1.376 . S
C1422 H1409 0.930 . S
C1422 C1421 1.376 . S
C1422 C1423 1.388 . S
C1423 H1410 0.930 . S
C1423 C1422 1.388 . S
C1423 C1424 1.390 . S
C1424 C1423 1.390 . S
C1424 C1425 1.394 . S
C1424 C1430 1.465 . S
C1425 C1420 1.399 . S
C1425 C1424 1.394 . S
C1425 C1426 1.516 1_565 S
C1426 C1425 1.516 1_545 S
C1426 C1427 1.502 . S
C1426 C1428 1.561 1_544 S
C1426 C1429 1.526 1_545 S
C1427 H1411 0.959 . S
C1427 H1412 0.959 . S
C1427 H1413 0.961 . S
C1427 C1426 1.502 . S
C1428 H1414 0.960 . S
C1428 H1415 0.961 1_565 S
C1428 H1416 0.959 . S
C1428 C1426 1.561 1_566 S
C1429 C1426 1.526 1_565 S
C1429 C1430 1.396 . S
C1429 C1434 1.390 1_565 S
C1430 C1424 1.465 . S
C1430 C1429 1.396 . S
C1430 C1431 1.399 . S
C1431 H1417 0.929 . S
C1431 C1430 1.399 . S
C1431 C1432 1.385 . S
C1432 H1418 0.931 . S
C1432 C1431 1.385 . S
C1432 C1433 1.389 . S
C1433 C1432 1.389 . S
C1433 C1434 1.387 1_565 S
C1434 H1419 0.930 . S
C1434 C1429 1.390 1_545 S
C1434 C1433 1.387 1_545 S
H1435 C1447 0.930 . S
H1436 C1449 0.930 . S
H1437 C1450 0.930 . S
H1438 C1454 0.959 . S
H1439 C1454 0.959 . S
H1440 C1454 0.961 . S
H1441 C1455 0.960 . S
H1442 C1455 0.961 . S
H1443 C1455 0.959 . S
H1444 C1458 0.929 . S
H1445 C1459 0.931 . S
H1446 C1461 0.930 . S
C1447 H1435 0.930 . S
C1447 C1448 1.399 . S
C1447 C1452 1.399 . S
C1448 C1447 1.399 . S
C1448 C1449 1.376 1_554 S
C1449 H1436 0.930 . S
C1449 C1448 1.376 1_556 S
C1449 C1450 1.388 . S
C1450 H1437 0.930 . S
C1450 C1449 1.388 . S
C1450 C1451 1.390 . S
C1451 C1450 1.390 . S
C1451 C1452 1.394 1_556 S
C1451 C1457 1.465 . S
C1452 C1447 1.399 . S
C1452 C1451 1.394 1_554 S
C1452 C1453 1.516 . S
C1453 C1452 1.516 . S
C1453 C1454 1.502 . S
C1453 C1455 1.561 . S
C1453 C1456 1.526 . S
C1454 H1438 0.959 . S
C1454 H1439 0.959 . S
C1454 H1440 0.961 . S
C1454 C1453 1.502 . S
C1455 H1441 0.960 . S
C1455 H1442 0.961 . S
C1455 H1443 0.959 . S
C1455 C1453 1.561 . S
C1456 C1453 1.526 . S
C1456 C1457 1.396 1_554 S
C1456 C1461 1.390 . S
C1457 C1451 1.465 . S
C1457 C1456 1.396 1_556 S
C1457 C1458 1.399 . S
C1458 H1444 0.929 . S
C1458 C1457 1.399 . S
C1458 C1459 1.385 . S
C1459 H1445 0.931 . S
C1459 C1458 1.385 . S
C1459 C1460 1.389 1_556 S
C1460 C1459 1.389 1_554 S
C1460 C1461 1.387 . S
C1461 H1446 0.930 . S
C1461 C1456 1.390 . S
C1461 C1460 1.387 . S
H1462 C1474 0.930 . S
H1463 C1476 0.930 . S
H1464 C1477 0.930 . S
H1465 C1481 0.959 . S
H1466 C1481 0.959 . S
H1467 C1481 0.961 . S
H1468 C1482 0.960 . S
H1469 C1482 0.961 . S
H1470 C1482 0.959 . S
H1471 C1485 0.929 . S
H1472 C1486 0.931 . S
H1473 C1488 0.930 . S
C1474 H1462 0.930 . S
C1474 C1475 1.399 . S
C1474 C1479 1.399 . S
C1475 C1474 1.399 . S
C1475 C1476 1.376 . S
C1476 H1463 0.930 . S
C1476 C1475 1.376 . S
C1476 C1477 1.388 . S
C1477 H1464 0.930 . S
C1477 C1476 1.388 . S
C1477 C1478 1.390 . S
C1478 C1477 1.390 . S
C1478 C1479 1.394 . S
C1478 C1484 1.465 . S
C1479 C1474 1.399 . S
C1479 C1478 1.394 . S
C1479 C1480 1.516 . S
C1480 C1479 1.516 . S
C1480 C1481 1.502 . S
C1480 C1482 1.561 . S
C1480 C1483 1.526 . S
C1481 H1465 0.959 . S
C1481 H1466 0.959 . S
C1481 H1467 0.961 . S
C1481 C1480 1.502 . S
C1482 H1468 0.960 . S
C1482 H1469 0.961 . S
C1482 H1470 0.959 . S
C1482 C1480 1.561 . S
C1483 C1480 1.526 . S
C1483 C1484 1.396 . S
C1483 C1488 1.390 . S
C1484 C1478 1.465 . S
C1484 C1483 1.396 . S
C1484 C1485 1.399 . S
C1485 H1471 0.929 . S
C1485 C1484 1.399 . S
C1485 C1486 1.385 . S
C1486 H1472 0.931 . S
C1486 C1485 1.385 . S
C1486 C1487 1.389 . S
C1487 C1486 1.389 . S
C1487 C1488 1.387 . S
C1488 H1473 0.930 . S
C1488 C1483 1.390 . S
C1488 C1487 1.387 . S
H1489 C1501 0.930 . S
H1490 C1503 0.930 . S
H1491 C1504 0.930 . S
H1492 C1508 0.959 . S
H1493 C1508 0.959 . S
H1494 C1508 0.961 . S
H1495 C1509 0.960 . S
H1496 C1509 0.961 . S
H1497 C1509 0.959 . S
H1498 C1512 0.929 . S
H1499 C1513 0.931 . S
H1500 C1515 0.930 . S
C1501 H1489 0.930 . S
C1501 C1502 1.399 . S
C1501 C1506 1.399 . S
C1502 C1501 1.399 . S
C1502 C1503 1.376 . S
C1503 H1490 0.930 . S
C1503 C1502 1.376 . S
C1503 C1504 1.388 . S
C1504 H1491 0.930 . S
C1504 C1503 1.388 . S
C1504 C1505 1.390 . S
C1505 C1504 1.390 . S
C1505 C1506 1.394 . S
C1505 C1511 1.465 . S
C1506 C1501 1.399 . S
C1506 C1505 1.394 . S
C1506 C1507 1.516 . S
C1507 C1506 1.516 . S
C1507 C1508 1.502 . S
C1507 C1509 1.561 . S
C1507 C1510 1.526 . S
C1508 H1492 0.959 . S
C1508 H1493 0.959 . S
C1508 H1494 0.961 . S
C1508 C1507 1.502 . S
C1509 H1495 0.960 . S
C1509 H1496 0.961 . S
C1509 H1497 0.959 . S
C1509 C1507 1.561 . S
C1510 C1507 1.526 . S
C1510 C1511 1.396 . S
C1510 C1515 1.390 . S
C1511 C1505 1.465 . S
C1511 C1510 1.396 . S
C1511 C1512 1.399 . S
C1512 H1498 0.929 . S
C1512 C1511 1.399 . S
C1512 C1513 1.385 . S
C1513 H1499 0.931 . S
C1513 C1512 1.385 . S
C1513 C1514 1.389 . S
C1514 C1513 1.389 . S
C1514 C1515 1.387 . S
C1515 H1500 0.930 . S
C1515 C1510 1.390 . S
C1515 C1514 1.387 . S
H1516 C1528 0.930 . S
H1517 C1530 0.930 . S
H1518 C1531 0.930 . S
H1519 C1535 0.959 . S
H1520 C1535 0.959 . S
H1521 C1535 0.961 . S
H1522 C1536 0.960 . S
H1523 C1536 0.961 . S
H1524 C1536 0.959 . S
H1525 C1539 0.929 . S
H1526 C1540 0.931 . S
H1527 C1542 0.930 . S
C1528 H1516 0.930 . S
C1528 C1529 1.399 . S
C1528 C1533 1.399 . S
C1529 C1528 1.399 . S
C1529 C1530 1.376 . S
C1530 H1517 0.930 . S
C1530 C1529 1.376 . S
C1530 C1531 1.388 . S
C1531 H1518 0.930 . S
C1531 C1530 1.388 . S
C1531 C1532 1.390 . S
C1532 C1531 1.390 . S
C1532 C1533 1.394 . S
C1532 C1538 1.465 . S
C1533 C1528 1.399 . S
C1533 C1532 1.394 . S
C1533 C1534 1.516 . S
C1534 C1533 1.516 . S
C1534 C1535 1.502 . S
C1534 C1536 1.561 . S
C1534 C1537 1.526 . S
C1535 H1519 0.959 . S
C1535 H1520 0.959 . S
C1535 H1521 0.961 . S
C1535 C1534 1.502 . S
C1536 H1522 0.960 . S
C1536 H1523 0.961 . S
C1536 H1524 0.959 . S
C1536 C1534 1.561 . S
C1537 C1534 1.526 . S
C1537 C1538 1.396 . S
C1537 C1542 1.390 . S
C1538 C1532 1.465 . S
C1538 C1537 1.396 . S
C1538 C1539 1.399 . S
C1539 H1525 0.929 . S
C1539 C1538 1.399 . S
C1539 C1540 1.385 . S
C1540 H1526 0.931 . S
C1540 C1539 1.385 . S
C1540 C1541 1.389 . S
C1541 C1540 1.389 . S
C1541 C1542 1.387 . S
C1542 H1527 0.930 . S
C1542 C1537 1.390 . S
C1542 C1541 1.387 . S
H1543 C1555 0.930 . S
H1544 C1557 0.930 . S
H1545 C1558 0.930 . S
H1546 C1562 0.959 . S
H1547 C1562 0.959 . S
H1548 C1562 0.961 . S
H1549 C1563 0.960 . S
H1550 C1563 0.961 . S
H1551 C1563 0.959 . S
H1552 C1566 0.929 . S
H1553 C1567 0.931 . S
H1554 C1569 0.930 . S
C1555 H1543 0.930 . S
C1555 C1556 1.399 . S
C1555 C1560 1.399 . S
C1556 C1555 1.399 . S
C1556 C1557 1.376 . S
C1557 H1544 0.930 . S
C1557 C1556 1.376 . S
C1557 C1558 1.388 . S
C1558 H1545 0.930 . S
C1558 C1557 1.388 . S
C1558 C1559 1.390 . S
C1559 C1558 1.390 . S
C1559 C1560 1.394 . S
C1559 C1565 1.465 . S
C1560 C1555 1.399 . S
C1560 C1559 1.394 . S
C1560 C1561 1.516 . S
C1561 C1560 1.516 . S
C1561 C1562 1.502 . S
C1561 C1563 1.561 . S
C1561 C1564 1.526 . S
C1562 H1546 0.959 . S
C1562 H1547 0.959 . S
C1562 H1548 0.961 . S
C1562 C1561 1.502 . S
C1563 H1549 0.960 . S
C1563 H1550 0.961 . S
C1563 H1551 0.959 . S
C1563 C1561 1.561 . S
C1564 C1561 1.526 . S
C1564 C1565 1.396 . S
C1564 C1569 1.390 . S
C1565 C1559 1.465 . S
C1565 C1564 1.396 . S
C1565 C1566 1.399 . S
C1566 H1552 0.929 . S
C1566 C1565 1.399 . S
C1566 C1567 1.385 . S
C1567 H1553 0.931 . S
C1567 C1566 1.385 . S
C1567 C1568 1.389 . S
C1568 C1567 1.389 . S
C1568 C1569 1.387 . S
C1569 H1554 0.930 . S
C1569 C1564 1.390 . S
C1569 C1568 1.387 . S
H1570 C1582 0.930 . S
H1571 C1584 0.930 . S
H1572 C1585 0.930 . S
H1573 C1589 0.959 . S
H1574 C1589 0.959 . S
H1575 C1589 0.961 . S
H1576 C1590 0.960 . S
H1577 C1590 0.961 . S
H1578 C1590 0.959 . S
H1579 C1593 0.929 . S
H1580 C1594 0.931 . S
H1581 C1596 0.930 . S
C1582 H1570 0.930 . S
C1582 C1583 1.399 . S
C1582 C1587 1.399 . S
C1583 C1582 1.399 . S
C1583 C1584 1.376 . S
C1584 H1571 0.930 . S
C1584 C1583 1.376 . S
C1584 C1585 1.388 . S
C1585 H1572 0.930 . S
C1585 C1584 1.388 . S
C1585 C1586 1.390 . S
C1586 C1585 1.390 . S
C1586 C1587 1.394 . S
C1586 C1592 1.465 . S
C1587 C1582 1.399 . S
C1587 C1586 1.394 . S
C1587 C1588 1.516 . S
C1588 C1587 1.516 . S
C1588 C1589 1.502 . S
C1588 C1590 1.561 . S
C1588 C1591 1.526 . S
C1589 H1573 0.959 . S
C1589 H1574 0.959 . S
C1589 H1575 0.961 . S
C1589 C1588 1.502 . S
C1590 H1576 0.960 . S
C1590 H1577 0.961 . S
C1590 H1578 0.959 . S
C1590 C1588 1.561 . S
C1591 C1588 1.526 . S
C1591 C1592 1.396 . S
C1591 C1596 1.390 . S
C1592 C1586 1.465 . S
C1592 C1591 1.396 . S
C1592 C1593 1.399 . S
C1593 H1579 0.929 . S
C1593 C1592 1.399 . S
C1593 C1594 1.385 . S
C1594 H1580 0.931 . S
C1594 C1593 1.385 . S
C1594 C1595 1.389 . S
C1595 C1594 1.389 . S
C1595 C1596 1.387 . S
C1596 H1581 0.930 . S
C1596 C1591 1.390 . S
C1596 C1595 1.387 . S
H1597 C1609 0.930 . S
H1598 C1611 0.930 . S
H1599 C1612 0.930 . S
H1600 C1616 0.959 . S
H1601 C1616 0.959 . S
H1602 C1616 0.961 . S
H1603 C1617 0.960 . S
H1604 C1617 0.961 . S
H1605 C1617 0.959 . S
H1606 C1620 0.929 . S
H1607 C1621 0.931 . S
H1608 C1623 0.930 . S
C1609 H1597 0.930 . S
C1609 C1610 1.399 . S
C1609 C1614 1.399 . S
C1610 C1609 1.399 . S
C1610 C1611 1.376 . S
C1611 H1598 0.930 . S
C1611 C1610 1.376 . S
C1611 C1612 1.388 . S
C1612 H1599 0.930 . S
C1612 C1611 1.388 . S
C1612 C1613 1.390 . S
C1613 C1612 1.390 . S
C1613 C1614 1.394 . S
C1613 C1619 1.465 . S
C1614 C1609 1.399 . S
C1614 C1613 1.394 . S
C1614 C1615 1.516 . S
C1615 C1614 1.516 . S
C1615 C1616 1.502 . S
C1615 C1617 1.561 . S
C1615 C1618 1.526 . S
C1616 H1600 0.959 . S
C1616 H1601 0.959 . S
C1616 H1602 0.961 . S
C1616 C1615 1.502 . S
C1617 H1603 0.960 . S
C1617 H1604 0.961 . S
C1617 H1605 0.959 . S
C1617 C1615 1.561 . S
C1618 C1615 1.526 . S
C1618 C1619 1.396 . S
C1618 C1623 1.390 . S
C1619 C1613 1.465 . S
C1619 C1618 1.396 . S
C1619 C1620 1.399 . S
C1620 H1606 0.929 . S
C1620 C1619 1.399 . S
C1620 C1621 1.385 . S
C1621 H1607 0.931 . S
C1621 C1620 1.385 . S
C1621 C1622 1.389 . S
C1622 C1621 1.389 . S
C1622 C1623 1.387 . S
C1623 H1608 0.930 . S
C1623 C1618 1.390 . S
C1623 C1622 1.387 . S
H1624 C1636 0.930 . S
H1625 C1638 0.930 . S
H1626 C1639 0.930 . S
H1627 C1643 0.956 1_554 S
H1628 C1643 0.974 . S
H1629 C1643 0.961 . S
H1630 C1644 0.960 . S
H1631 C1644 0.961 1_556 S
H1632 C1644 0.959 . S
H1633 C1647 0.929 . S
H1634 C1648 0.931 . S
H1635 C1650 0.930 1_556 S
C1636 H1624 0.930 . S
C1636 C1637 1.399 . S
C1636 C1641 1.399 . S
C1637 C1636 1.399 . S
C1637 C1638 1.376 . S
C1638 H1625 0.930 . S
C1638 C1637 1.376 . S
C1638 C1639 1.388 . S
C1639 H1626 0.930 . S
C1639 C1638 1.388 . S
C1639 C1640 1.390 . S
C1640 C1639 1.390 . S
C1640 C1641 1.394 . S
C1640 C1646 1.465 . S
C1641 C1636 1.399 . S
C1641 C1640 1.394 . S
C1641 C1642 1.516 . S
C1642 C1641 1.516 . S
C1642 C1643 1.490 1_554 S
C1642 C1644 1.561 . S
C1642 C1645 1.526 . S
C1643 H1627 0.956 1_556 S
C1643 H1628 0.974 . S
C1643 H1629 0.961 . S
C1643 C1642 1.490 1_556 S
C1644 H1630 0.960 . S
C1644 H1631 0.961 1_554 S
C1644 H1632 0.959 . S
C1644 C1642 1.561 . S
C1645 C1642 1.526 . S
C1645 C1646 1.396 . S
C1645 C1650 1.390 . S
C1646 C1640 1.465 . S
C1646 C1645 1.396 . S
C1646 C1647 1.399 . S
C1647 H1633 0.929 . S
C1647 C1646 1.399 . S
C1647 C1648 1.385 . S
C1648 H1634 0.931 . S
C1648 C1647 1.385 . S
C1648 C1649 1.389 . S
C1649 C1648 1.389 . S
C1649 C1650 1.387 . S
C1650 H1635 0.930 1_554 S
C1650 C1645 1.390 . S
C1650 C1649 1.387 . S
H1651 C1663 0.930 . S
H1652 C1665 0.930 . S
H1653 C1666 0.930 . S
H1654 C1670 0.959 . S
H1655 C1670 0.959 . S
H1656 C1670 0.961 . S
H1657 C1671 0.960 . S
H1658 C1671 0.961 . S
H1659 C1671 0.959 . S
H1660 C1674 0.929 . S
H1661 C1675 0.931 . S
H1662 C1677 0.930 . S
C1663 H1651 0.930 . S
C1663 C1664 1.399 . S
C1663 C1668 1.399 . S
C1664 C1663 1.399 . S
C1664 C1665 1.376 . S
C1665 H1652 0.930 . S
C1665 C1664 1.376 . S
C1665 C1666 1.388 . S
C1666 H1653 0.930 . S
C1666 C1665 1.388 . S
C1666 C1667 1.390 . S
C1667 C1666 1.390 . S
C1667 C1668 1.394 . S
C1667 C1673 1.465 . S
C1668 C1663 1.399 . S
C1668 C1667 1.394 . S
C1668 C1669 1.516 . S
C1669 C1668 1.516 . S
C1669 C1670 1.502 . S
C1669 C1671 1.561 . S
C1669 C1672 1.526 . S
C1670 H1654 0.959 . S
C1670 H1655 0.959 . S
C1670 H1656 0.961 . S
C1670 C1669 1.502 . S
C1671 H1657 0.960 . S
C1671 H1658 0.961 . S
C1671 H1659 0.959 . S
C1671 C1669 1.561 . S
C1672 C1669 1.526 . S
C1672 C1673 1.396 . S
C1672 C1677 1.390 . S
C1673 C1667 1.465 . S
C1673 C1672 1.396 . S
C1673 C1674 1.399 . S
C1674 H1660 0.929 . S
C1674 C1673 1.399 . S
C1674 C1675 1.385 . S
C1675 H1661 0.931 . S
C1675 C1674 1.385 . S
C1675 C1676 1.389 . S
C1676 C1675 1.389 . S
C1676 C1677 1.387 . S
C1677 H1662 0.930 . S
C1677 C1672 1.390 . S
C1677 C1676 1.387 . S
H1678 C1690 0.930 . S
H1679 C1692 0.930 . S
H1680 C1693 0.930 . S
H1681 C1697 0.959 . S
H1682 C1697 0.959 . S
H1683 C1697 0.961 . S
H1684 C1698 0.960 . S
H1685 C1698 0.961 . S
H1686 C1698 0.959 . S
H1687 C1701 0.929 . S
H1688 C1702 0.931 . S
H1689 C1704 0.930 . S
C1690 H1678 0.930 . S
C1690 C1691 1.399 . S
C1690 C1695 1.399 . S
C1691 C1690 1.399 . S
C1691 C1692 1.376 . S
C1692 H1679 0.930 . S
C1692 C1691 1.376 . S
C1692 C1693 1.388 . S
C1693 H1680 0.930 . S
C1693 C1692 1.388 . S
C1693 C1694 1.390 . S
C1694 C1693 1.390 . S
C1694 C1695 1.394 . S
C1694 C1700 1.465 . S
C1695 C1690 1.399 . S
C1695 C1694 1.394 . S
C1695 C1696 1.516 . S
C1696 C1695 1.516 . S
C1696 C1697 1.502 . S
C1696 C1698 1.561 . S
C1696 C1699 1.526 . S
C1697 H1681 0.959 . S
C1697 H1682 0.959 . S
C1697 H1683 0.961 . S
C1697 C1696 1.502 . S
C1698 H1684 0.960 . S
C1698 H1685 0.961 . S
C1698 H1686 0.959 . S
C1698 C1696 1.561 . S
C1699 C1696 1.526 . S
C1699 C1700 1.396 . S
C1699 C1704 1.390 . S
C1700 C1694 1.465 . S
C1700 C1699 1.396 . S
C1700 C1701 1.399 . S
C1701 H1687 0.929 . S
C1701 C1700 1.399 . S
C1701 C1702 1.385 . S
C1702 H1688 0.931 . S
C1702 C1701 1.385 . S
C1702 C1703 1.389 . S
C1703 C1702 1.389 . S
C1703 C1704 1.387 . S
C1704 H1689 0.930 . S
C1704 C1699 1.390 . S
C1704 C1703 1.387 . S
H1705 C1717 0.930 . S
H1706 C1719 0.930 . S
H1707 C1720 0.930 . S
H1708 C1724 0.959 . S
H1709 C1724 0.959 . S
H1710 C1724 0.961 . S
H1711 C1725 0.960 . S
H1712 C1725 0.961 . S
H1713 C1725 0.959 . S
H1714 C1728 0.929 . S
H1715 C1729 0.931 . S
H1716 C1731 0.930 . S
C1717 H1705 0.930 . S
C1717 C1718 1.399 . S
C1717 C1722 1.399 . S
C1718 C1717 1.399 . S
C1718 C1719 1.376 . S
C1719 H1706 0.930 . S
C1719 C1718 1.376 . S
C1719 C1720 1.388 . S
C1720 H1707 0.930 . S
C1720 C1719 1.388 . S
C1720 C1721 1.390 . S
C1721 C1720 1.390 . S
C1721 C1722 1.394 . S
C1721 C1727 1.465 . S
C1722 C1717 1.399 . S
C1722 C1721 1.394 . S
C1722 C1723 1.516 . S
C1723 C1722 1.516 . S
C1723 C1724 1.502 . S
C1723 C1725 1.561 . S
C1723 C1726 1.526 . S
C1724 H1708 0.959 . S
C1724 H1709 0.959 . S
C1724 H1710 0.961 . S
C1724 C1723 1.502 . S
C1725 H1711 0.960 . S
C1725 H1712 0.961 . S
C1725 H1713 0.959 . S
C1725 C1723 1.561 . S
C1726 C1723 1.526 . S
C1726 C1727 1.396 . S
C1726 C1731 1.390 . S
C1727 C1721 1.465 . S
C1727 C1726 1.396 . S
C1727 C1728 1.399 . S
C1728 H1714 0.929 . S
C1728 C1727 1.399 . S
C1728 C1729 1.385 . S
C1729 H1715 0.931 . S
C1729 C1728 1.385 . S
C1729 C1730 1.389 . S
C1730 C1729 1.389 . S
C1730 C1731 1.387 . S
C1731 H1716 0.930 . S
C1731 C1726 1.390 . S
C1731 C1730 1.387 . S
H1732 C1744 0.930 . S
H1733 C1746 0.930 . S
H1734 C1747 0.930 . S
H1735 C1751 0.959 . S
H1736 C1751 0.959 . S
H1737 C1751 0.961 . S
H1738 C1752 0.960 . S
H1739 C1752 0.961 . S
H1740 C1752 0.959 . S
H1741 C1755 0.929 . S
H1742 C1756 0.931 . S
H1743 C1758 0.930 . S
C1744 H1732 0.930 . S
C1744 C1745 1.399 . S
C1744 C1749 1.399 . S
C1745 C1744 1.399 . S
C1745 C1746 1.376 . S
C1746 H1733 0.930 . S
C1746 C1745 1.376 . S
C1746 C1747 1.388 . S
C1747 H1734 0.930 . S
C1747 C1746 1.388 . S
C1747 C1748 1.390 . S
C1748 C1747 1.390 . S
C1748 C1749 1.394 . S
C1748 C1754 1.465 . S
C1749 C1744 1.399 . S
C1749 C1748 1.394 . S
C1749 C1750 1.516 . S
C1750 C1749 1.516 . S
C1750 C1751 1.502 . S
C1750 C1752 1.561 . S
C1750 C1753 1.526 . S
C1751 H1735 0.959 . S
C1751 H1736 0.959 . S
C1751 H1737 0.961 . S
C1751 C1750 1.502 . S
C1752 H1738 0.960 . S
C1752 H1739 0.961 . S
C1752 H1740 0.959 . S
C1752 C1750 1.561 . S
C1753 C1750 1.526 . S
C1753 C1754 1.396 . S
C1753 C1758 1.390 . S
C1754 C1748 1.465 . S
C1754 C1753 1.396 . S
C1754 C1755 1.399 . S
C1755 H1741 0.929 . S
C1755 C1754 1.399 . S
C1755 C1756 1.385 . S
C1756 H1742 0.931 . S
C1756 C1755 1.385 . S
C1756 C1757 1.389 . S
C1757 C1756 1.389 . S
C1757 C1758 1.387 . S
C1758 H1743 0.930 . S
C1758 C1753 1.390 . S
C1758 C1757 1.387 . S
H1759 C1771 0.930 . S
H1760 C1773 0.930 . S
H1761 C1774 0.930 . S
H1762 C1778 0.959 . S
H1763 C1778 0.959 . S
H1764 C1778 0.961 . S
H1765 C1779 0.960 . S
H1766 C1779 0.961 . S
H1767 C1779 0.959 . S
H1768 C1782 0.929 . S
H1769 C1783 0.931 . S
H1770 C1785 0.930 . S
C1771 H1759 0.930 . S
C1771 C1772 1.399 . S
C1771 C1776 1.399 . S
C1772 C1771 1.399 . S
C1772 C1773 1.376 . S
C1773 H1760 0.930 . S
C1773 C1772 1.376 . S
C1773 C1774 1.388 . S
C1774 H1761 0.930 . S
C1774 C1773 1.388 . S
C1774 C1775 1.390 . S
C1775 C1774 1.390 . S
C1775 C1776 1.394 . S
C1775 C1781 1.465 . S
C1776 C1771 1.399 . S
C1776 C1775 1.394 . S
C1776 C1777 1.516 . S
C1777 C1776 1.516 . S
C1777 C1778 1.502 . S
C1777 C1779 1.561 . S
C1777 C1780 1.526 . S
C1778 H1762 0.959 . S
C1778 H1763 0.959 . S
C1778 H1764 0.961 . S
C1778 C1777 1.502 . S
C1779 H1765 0.960 . S
C1779 H1766 0.961 . S
C1779 H1767 0.959 . S
C1779 C1777 1.561 . S
C1780 C1777 1.526 . S
C1780 C1781 1.396 . S
C1780 C1785 1.390 . S
C1781 C1775 1.465 . S
C1781 C1780 1.396 . S
C1781 C1782 1.399 . S
C1782 H1768 0.929 . S
C1782 C1781 1.399 . S
C1782 C1783 1.385 . S
C1783 H1769 0.931 . S
C1783 C1782 1.385 . S
C1783 C1784 1.389 . S
C1784 C1783 1.389 . S
C1784 C1785 1.387 . S
C1785 H1770 0.930 . S
C1785 C1780 1.390 . S
C1785 C1784 1.387 . S
H1786 C1798 0.930 . S
H1787 C1800 0.930 . S
H1788 C1801 0.930 . S
H1789 C1805 0.959 . S
H1790 C1805 0.959 . S
H1791 C1805 0.961 . S
H1792 C1806 0.960 . S
H1793 C1806 0.961 . S
H1794 C1806 0.959 . S
H1795 C1809 0.917 1_554 S
H1796 C1810 0.895 1_554 S
H1797 C1812 0.930 . S
C1798 H1786 0.930 . S
C1798 C1799 1.399 . S
C1798 C1803 1.399 . S
C1799 C1798 1.399 . S
C1799 C1800 1.376 . S
C1800 H1787 0.930 . S
C1800 C1799 1.376 . S
C1800 C1801 1.388 . S
C1801 H1788 0.930 . S
C1801 C1800 1.388 . S
C1801 C1802 1.390 . S
C1802 C1801 1.390 . S
C1802 C1803 1.394 . S
C1802 C1808 1.465 . S
C1803 C1798 1.399 . S
C1803 C1802 1.394 . S
C1803 C1804 1.516 . S
C1804 C1803 1.516 . S
C1804 C1805 1.502 . S
C1804 C1806 1.561 . S
C1804 C1807 1.526 . S
C1805 H1789 0.959 . S
C1805 H1790 0.959 . S
C1805 H1791 0.961 . S
C1805 C1804 1.502 . S
C1806 H1792 0.960 . S
C1806 H1793 0.961 . S
C1806 H1794 0.959 . S
C1806 C1804 1.561 . S
C1807 C1804 1.526 . S
C1807 C1808 1.396 . S
C1807 C1812 1.390 . S
C1808 C1802 1.465 . S
C1808 C1807 1.396 . S
C1808 C1809 1.399 . S
C1809 H1795 0.917 1_556 S
C1809 C1808 1.399 . S
C1809 C1810 1.396 . S
C1810 H1796 0.895 1_556 S
C1810 C1809 1.396 . S
C1810 C1811 1.415 . S
C1811 C1810 1.415 . S
C1811 C1812 1.387 . S
C1812 H1797 0.930 . S
C1812 C1807 1.390 . S
C1812 C1811 1.387 . S
H1813 C1825 0.930 . S
H1814 C1827 0.930 . S
H1815 C1828 0.930 . S
H1816 C1832 0.959 . S
H1817 C1832 0.959 . S
H1818 C1832 0.961 . S
H1819 C1833 0.960 . S
H1820 C1833 0.961 . S
H1821 C1833 0.959 . S
H1822 C1836 0.929 . S
H1823 C1837 0.931 . S
H1824 C1839 0.930 . S
C1825 H1813 0.930 . S
C1825 C1826 1.399 . S
C1825 C1830 1.399 . S
C1826 C1825 1.399 . S
C1826 C1827 1.376 . S
C1827 H1814 0.930 . S
C1827 C1826 1.376 . S
C1827 C1828 1.388 . S
C1828 H1815 0.930 . S
C1828 C1827 1.388 . S
C1828 C1829 1.390 . S
C1829 C1828 1.390 . S
C1829 C1830 1.394 . S
C1829 C1835 1.465 . S
C1830 C1825 1.399 . S
C1830 C1829 1.394 . S
C1830 C1831 1.516 . S
C1831 C1830 1.516 . S
C1831 C1832 1.502 . S
C1831 C1833 1.561 . S
C1831 C1834 1.526 . S
C1832 H1816 0.959 . S
C1832 H1817 0.959 . S
C1832 H1818 0.961 . S
C1832 C1831 1.502 . S
C1833 H1819 0.960 . S
C1833 H1820 0.961 . S
C1833 H1821 0.959 . S
C1833 C1831 1.561 . S
C1834 C1831 1.526 . S
C1834 C1835 1.396 . S
C1834 C1839 1.390 . S
C1835 C1829 1.465 . S
C1835 C1834 1.396 . S
C1835 C1836 1.399 . S
C1836 H1822 0.929 . S
C1836 C1835 1.399 . S
C1836 C1837 1.385 . S
C1837 H1823 0.931 . S
C1837 C1836 1.385 . S
C1837 C1838 1.389 . S
C1838 C1837 1.389 . S
C1838 C1839 1.387 . S
C1839 H1824 0.930 . S
C1839 C1834 1.390 . S
C1839 C1838 1.387 . S
H1840 C1852 0.930 . S
H1841 C1854 0.930 . S
H1842 C1855 0.930 . S
H1843 C1859 0.919 1_545 S
H1844 C1859 0.959 . S
H1845 C1859 0.961 . S
H1846 C1860 0.960 . S
H1847 C1860 0.961 . S
H1848 C1860 0.959 . S
H1849 C1863 0.929 . S
H1850 C1864 0.931 . S
H1851 C1866 0.927 1_565 S
C1852 H1840 0.930 . S
C1852 C1853 1.399 1_565 S
C1852 C1857 1.399 . S
C1853 C1852 1.399 1_545 S
C1853 C1854 1.376 . S
C1854 H1841 0.930 . S
C1854 C1853 1.376 . S
C1854 C1855 1.388 . S
C1855 H1842 0.930 . S
C1855 C1854 1.388 . S
C1855 C1856 1.390 . S
C1856 C1855 1.390 . S
C1856 C1857 1.391 1_545 S
C1856 C1862 1.465 . S
C1857 C1852 1.399 . S
C1857 C1856 1.391 1_565 S
C1857 C1858 1.519 . S
C1858 C1857 1.519 . S
C1858 C1859 1.502 . S
C1858 C1860 1.561 . S
C1858 C1861 1.526 1_565 S
C1859 H1843 0.919 1_565 S
C1859 H1844 0.959 . S
C1859 H1845 0.961 . S
C1859 C1858 1.502 . S
C1860 H1846 0.960 . S
C1860 H1847 0.961 . S
C1860 H1848 0.959 . S
C1860 C1858 1.561 . S
C1861 C1858 1.526 1_545 S
C1861 C1862 1.396 . S
C1861 C1866 1.390 . S
C1862 C1856 1.465 . S
C1862 C1861 1.396 . S
C1862 C1863 1.399 . S
C1863 H1849 0.929 . S
C1863 C1862 1.399 . S
C1863 C1864 1.385 . S
C1864 H1850 0.931 . S
C1864 C1863 1.385 . S
C1864 C1865 1.389 . S
C1865 C1864 1.389 . S
C1865 C1866 1.390 . S
C1866 H1851 0.927 1_545 S
C1866 C1861 1.390 . S
C1866 C1865 1.390 . S
H1867 C1879 0.930 . S
H1868 C1881 0.930 . S
H1869 C1882 0.930 . S
H1870 C1886 0.959 . S
H1871 C1886 0.959 . S
H1872 C1886 0.961 . S
H1873 C1887 0.960 . S
H1874 C1887 0.961 . S
H1875 C1887 0.959 . S
H1876 C1890 0.929 . S
H1877 C1891 0.931 . S
H1878 C1893 0.930 . S
C1879 H1867 0.930 . S
C1879 C1880 1.399 . S
C1879 C1884 1.399 . S
C1880 C1879 1.399 . S
C1880 C1881 1.376 . S
C1881 H1868 0.930 . S
C1881 C1880 1.376 . S
C1881 C1882 1.388 . S
C1882 H1869 0.930 . S
C1882 C1881 1.388 . S
C1882 C1883 1.390 . S
C1883 C1882 1.390 . S
C1883 C1884 1.394 . S
C1883 C1889 1.465 . S
C1884 C1879 1.399 . S
C1884 C1883 1.394 . S
C1884 C1885 1.516 . S
C1885 C1884 1.516 . S
C1885 C1886 1.502 . S
C1885 C1887 1.561 . S
C1885 C1888 1.526 . S
C1886 H1870 0.959 . S
C1886 H1871 0.959 . S
C1886 H1872 0.961 . S
C1886 C1885 1.502 . S
C1887 H1873 0.960 . S
C1887 H1874 0.961 . S
C1887 H1875 0.959 . S
C1887 C1885 1.561 . S
C1888 C1885 1.526 . S
C1888 C1889 1.396 . S
C1888 C1893 1.390 . S
C1889 C1883 1.465 . S
C1889 C1888 1.396 . S
C1889 C1890 1.399 . S
C1890 H1876 0.929 . S
C1890 C1889 1.399 . S
C1890 C1891 1.385 . S
C1891 H1877 0.931 . S
C1891 C1890 1.385 . S
C1891 C1892 1.389 . S
C1892 C1891 1.389 . S
C1892 C1893 1.387 . S
C1893 H1878 0.930 . S
C1893 C1888 1.390 . S
C1893 C1892 1.387 . S
H1894 C1906 0.930 . S
H1895 C1908 0.930 . S
H1896 C1909 0.930 . S
H1897 C1913 0.959 . S
H1898 C1913 0.959 . S
H1899 C1913 0.961 . S
H1900 C1914 0.960 . S
H1901 C1914 0.961 . S
H1902 C1914 0.959 . S
H1903 C1917 0.929 . S
H1904 C1918 0.931 1_565 S
H1905 C1920 0.930 . S
C1906 H1894 0.930 . S
C1906 C1907 1.399 . S
C1906 C1911 1.399 . S
C1907 C1906 1.399 . S
C1907 C1908 1.376 1_545 S
C1908 H1895 0.930 . S
C1908 C1907 1.376 1_565 S
C1908 C1909 1.388 . S
C1909 H1896 0.930 . S
C1909 C1908 1.388 . S
C1909 C1910 1.390 1_565 S
C1910 C1909 1.390 1_545 S
C1910 C1911 1.394 . S
C1910 C1916 1.465 . S
C1911 C1906 1.399 . S
C1911 C1910 1.394 . S
C1911 C1912 1.516 . S
C1912 C1911 1.516 . S
C1912 C1913 1.502 . S
C1912 C1914 1.561 . S
C1912 C1915 1.526 . S
C1913 H1897 0.959 . S
C1913 H1898 0.959 . S
C1913 H1899 0.961 . S
C1913 C1912 1.502 . S
C1914 H1900 0.960 . S
C1914 H1901 0.961 . S
C1914 H1902 0.959 . S
C1914 C1912 1.561 . S
C1915 C1912 1.526 . S
C1915 C1916 1.396 . S
C1915 C1920 1.390 . S
C1916 C1910 1.465 . S
C1916 C1915 1.396 . S
C1916 C1917 1.399 1_545 S
C1917 H1903 0.929 . S
C1917 C1916 1.399 1_565 S
C1917 C1918 1.385 1_565 S
C1918 H1904 0.931 1_545 S
C1918 C1917 1.385 1_545 S
C1918 C1919 1.389 . S
C1919 C1918 1.389 . S
C1919 C1920 1.387 . S
C1920 H1905 0.930 . S
C1920 C1915 1.390 . S
C1920 C1919 1.387 . S
H1921 C1933 0.930 . S
H1922 C1935 0.930 . S
H1923 C1936 0.930 . S
H1924 C1940 0.959 . S
H1925 C1940 0.959 . S
H1926 C1940 0.961 . S
H1927 C1941 0.960 . S
H1928 C1941 0.961 . S
H1929 C1941 0.959 . S
H1930 C1944 0.929 . S
H1931 C1945 0.931 . S
H1932 C1947 0.930 . S
C1933 H1921 0.930 . S
C1933 C1934 1.399 . S
C1933 C1938 1.399 . S
C1934 C1933 1.399 . S
C1934 C1935 1.376 . S
C1935 H1922 0.930 . S
C1935 C1934 1.376 . S
C1935 C1936 1.388 . S
C1936 H1923 0.930 . S
C1936 C1935 1.388 . S
C1936 C1937 1.390 . S
C1937 C1936 1.390 . S
C1937 C1938 1.394 . S
C1937 C1943 1.465 . S
C1938 C1933 1.399 . S
C1938 C1937 1.394 . S
C1938 C1939 1.516 . S
C1939 C1938 1.516 . S
C1939 C1940 1.502 . S
C1939 C1941 1.561 . S
C1939 C1942 1.526 . S
C1940 H1924 0.959 . S
C1940 H1925 0.959 . S
C1940 H1926 0.961 . S
C1940 C1939 1.502 . S
C1941 H1927 0.960 . S
C1941 H1928 0.961 . S
C1941 H1929 0.959 . S
C1941 C1939 1.561 . S
C1942 C1939 1.526 . S
C1942 C1943 1.396 . S
C1942 C1947 1.390 . S
C1943 C1937 1.465 . S
C1943 C1942 1.396 . S
C1943 C1944 1.399 . S
C1944 H1930 0.929 . S
C1944 C1943 1.399 . S
C1944 C1945 1.385 . S
C1945 H1931 0.931 . S
C1945 C1944 1.385 . S
C1945 C1946 1.389 . S
C1946 C1945 1.389 . S
C1946 C1947 1.387 . S
C1947 H1932 0.930 . S
C1947 C1942 1.390 . S
C1947 C1946 1.387 . S
H1948 C1960 0.930 . S
H1949 C1962 0.930 . S
H1950 C1963 0.930 . S
H1951 C1967 0.959 1_545 S
H1952 C1967 0.959 . S
H1953 C1967 0.961 . S
H1954 C1968 0.960 . S
H1955 C1968 0.961 . S
H1956 C1968 0.959 . S
H1957 C1971 0.929 . S
H1958 C1972 0.931 . S
H1959 C1974 0.930 1_565 S
C1960 H1948 0.930 . S
C1960 C1961 1.404 . S
C1960 C1965 1.399 . S
C1961 C1960 1.404 . S
C1961 C1962 1.357 1_565 S
C1962 H1949 0.930 . S
C1962 C1961 1.357 1_545 S
C1962 C1963 1.388 . S
C1963 H1950 0.930 . S
C1963 C1962 1.388 . S
C1963 C1964 1.390 . S
C1964 C1963 1.390 . S
C1964 C1965 1.394 1_545 S
C1964 C1970 1.465 . S
C1965 C1960 1.399 . S
C1965 C1964 1.394 1_565 S
C1965 C1966 1.516 . S
C1966 C1965 1.516 . S
C1966 C1967 1.502 . S
C1966 C1968 1.561 . S
C1966 C1969 1.526 1_565 S
C1967 H1951 0.959 1_565 S
C1967 H1952 0.959 . S
C1967 H1953 0.961 . S
C1967 C1966 1.502 . S
C1968 H1954 0.960 . S
C1968 H1955 0.961 . S
C1968 H1956 0.959 . S
C1968 C1966 1.561 . S
C1969 C1966 1.526 1_545 S
C1969 C1970 1.396 . S
C1969 C1974 1.390 . S
C1970 C1964 1.465 . S
C1970 C1969 1.396 . S
C1970 C1971 1.399 . S
C1971 H1957 0.929 . S
C1971 C1970 1.399 . S
C1971 C1972 1.385 . S
C1972 H1958 0.931 . S
C1972 C1971 1.385 . S
C1972 C1973 1.389 . S
C1973 C1972 1.389 . S
C1973 C1974 1.387 . S
C1974 H1959 0.930 1_545 S
C1974 C1969 1.390 . S
C1974 C1973 1.387 . S
H1975 C1987 0.930 . S
H1976 C1989 0.930 . S
H1977 C1990 0.930 . S
H1978 C1994 0.959 . S
H1979 C1994 0.959 . S
H1980 C1994 0.961 . S
H1981 C1995 0.960 . S
H1982 C1995 0.961 . S
H1983 C1995 0.959 . S
H1984 C1998 0.929 . S
H1985 C1999 0.931 . S
H1986 C2001 0.930 . S
C1987 H1975 0.930 . S
C1987 C1988 1.399 . S
C1987 C1992 1.399 . S
C1988 C1987 1.399 . S
C1988 C1989 1.376 . S
C1989 H1976 0.930 . S
C1989 C1988 1.376 . S
C1989 C1990 1.388 . S
C1990 H1977 0.930 . S
C1990 C1989 1.388 . S
C1990 C1991 1.390 . S
C1991 C1990 1.390 . S
C1991 C1992 1.394 . S
C1991 C1997 1.465 . S
C1992 C1987 1.399 . S
C1992 C1991 1.394 . S
C1992 C1993 1.516 . S
C1993 C1992 1.516 . S
C1993 C1994 1.502 . S
C1993 C1995 1.561 . S
C1993 C1996 1.526 . S
C1994 H1978 0.959 . S
C1994 H1979 0.959 . S
C1994 H1980 0.961 . S
C1994 C1993 1.502 . S
C1995 H1981 0.960 . S
C1995 H1982 0.961 . S
C1995 H1983 0.959 . S
C1995 C1993 1.561 . S
C1996 C1993 1.526 . S
C1996 C1997 1.396 . S
C1996 C2001 1.390 . S
C1997 C1991 1.465 . S
C1997 C1996 1.396 . S
C1997 C1998 1.399 . S
C1998 H1984 0.929 . S
C1998 C1997 1.399 . S
C1998 C1999 1.385 . S
C1999 H1985 0.931 . S
C1999 C1998 1.385 . S
C1999 C2000 1.389 . S
C2000 C1999 1.389 . S
C2000 C2001 1.387 . S
C2001 H1986 0.930 . S
C2001 C1996 1.390 . S
C2001 C2000 1.387 . S
H2002 C2014 0.930 . S
H2003 C2016 0.930 . S
H2004 C2017 0.930 . S
H2005 C2021 0.959 . S
H2006 C2021 0.959 . S
H2007 C2021 0.961 . S
H2008 C2022 0.960 . S
H2009 C2022 0.961 . S
H2010 C2022 0.959 . S
H2011 C2025 0.929 . S
H2012 C2026 0.931 . S
H2013 C2028 0.930 1_545 S
C2014 H2002 0.930 . S
C2014 C2015 1.399 1_545 S
C2014 C2019 1.399 . S
C2015 C2014 1.399 1_565 S
C2015 C2016 1.376 . S
C2016 H2003 0.930 . S
C2016 C2015 1.376 . S
C2016 C2017 1.388 . S
C2017 H2004 0.930 . S
C2017 C2016 1.388 . S
C2017 C2018 1.390 . S
C2018 C2017 1.390 . S
C2018 C2019 1.394 1_565 S
C2018 C2024 1.465 . S
C2019 C2014 1.399 . S
C2019 C2018 1.394 1_545 S
C2019 C2020 1.516 . S
C2020 C2019 1.516 . S
C2020 C2021 1.502 . S
C2020 C2022 1.561 . S
C2020 C2023 1.526 1_545 S
C2021 H2005 0.959 . S
C2021 H2006 0.959 . S
C2021 H2007 0.961 . S
C2021 C2020 1.502 . S
C2022 H2008 0.960 . S
C2022 H2009 0.961 . S
C2022 H2010 0.959 . S
C2022 C2020 1.561 . S
C2023 C2020 1.526 1_565 S
C2023 C2024 1.396 . S
C2023 C2028 1.390 . S
C2024 C2018 1.465 . S
C2024 C2023 1.396 . S
C2024 C2025 1.399 . S
C2025 H2011 0.929 . S
C2025 C2024 1.399 . S
C2025 C2026 1.385 . S
C2026 H2012 0.931 . S
C2026 C2025 1.385 . S
C2026 C2027 1.389 . S
C2027 C2026 1.389 . S
C2027 C2028 1.387 . S
C2028 H2013 0.930 1_565 S
C2028 C2023 1.390 . S
C2028 C2027 1.387 . S
H2029 C2041 0.930 . S
H2030 C2043 0.930 . S
H2031 C2044 0.930 . S
H2032 C2048 0.959 . S
H2033 C2048 0.959 . S
H2034 C2048 0.961 . S
H2035 C2049 0.960 . S
H2036 C2049 0.961 . S
H2037 C2049 0.959 . S
H2038 C2052 0.929 . S
H2039 C2053 0.931 . S
H2040 C2055 0.930 . S
C2041 H2029 0.930 . S
C2041 C2042 1.399 . S
C2041 C2046 1.399 . S
C2042 C2041 1.399 . S
C2042 C2043 1.376 . S
C2043 H2030 0.930 . S
C2043 C2042 1.376 . S
C2043 C2044 1.388 . S
C2044 H2031 0.930 . S
C2044 C2043 1.388 . S
C2044 C2045 1.390 . S
C2045 C2044 1.390 . S
C2045 C2046 1.394 . S
C2045 C2051 1.465 . S
C2046 C2041 1.399 . S
C2046 C2045 1.394 . S
C2046 C2047 1.516 . S
C2047 C2046 1.516 . S
C2047 C2048 1.502 . S
C2047 C2049 1.561 . S
C2047 C2050 1.526 . S
C2048 H2032 0.959 . S
C2048 H2033 0.959 . S
C2048 H2034 0.961 . S
C2048 C2047 1.502 . S
C2049 H2035 0.960 . S
C2049 H2036 0.961 . S
C2049 H2037 0.959 . S
C2049 C2047 1.561 . S
C2050 C2047 1.526 . S
C2050 C2051 1.396 . S
C2050 C2055 1.390 . S
C2051 C2045 1.465 . S
C2051 C2050 1.396 . S
C2051 C2052 1.399 . S
C2052 H2038 0.929 . S
C2052 C2051 1.399 . S
C2052 C2053 1.385 . S
C2053 H2039 0.931 . S
C2053 C2052 1.385 . S
C2053 C2054 1.389 . S
C2054 C2053 1.389 . S
C2054 C2055 1.387 . S
C2055 H2040 0.930 . S
C2055 C2050 1.390 . S
C2055 C2054 1.387 . S
H2056 C2068 0.930 . S
H2057 C2070 0.930 . S
H2058 C2071 0.930 . S
H2059 C2075 0.959 . S
H2060 C2075 0.959 . S
H2061 C2075 0.961 . S
H2062 C2076 0.960 . S
H2063 C2076 0.961 . S
H2064 C2076 0.959 1_556 S
H2065 C2079 0.929 . S
H2066 C2080 0.931 . S
H2067 C2082 0.930 . S
C2068 H2056 0.930 . S
C2068 C2069 1.399 . S
C2068 C2073 1.399 . S
C2069 C2068 1.399 . S
C2069 C2070 1.376 1_554 S
C2070 H2057 0.930 . S
C2070 C2069 1.376 1_556 S
C2070 C2071 1.388 . S
C2071 H2058 0.930 . S
C2071 C2070 1.388 . S
C2071 C2072 1.390 . S
C2072 C2071 1.390 . S
C2072 C2073 1.394 1_556 S
C2072 C2078 1.465 . S
C2073 C2068 1.399 . S
C2073 C2072 1.394 1_554 S
C2073 C2074 1.516 . S
C2074 C2073 1.516 . S
C2074 C2075 1.502 . S
C2074 C2076 1.561 . S
C2074 C2077 1.526 1_554 S
C2075 H2059 0.959 . S
C2075 H2060 0.959 . S
C2075 H2061 0.961 . S
C2075 C2074 1.502 . S
C2076 H2062 0.960 . S
C2076 H2063 0.961 . S
C2076 H2064 0.959 1_554 S
C2076 C2074 1.561 . S
C2077 C2074 1.526 1_556 S
C2077 C2078 1.396 . S
C2077 C2082 1.390 . S
C2078 C2072 1.465 . S
C2078 C2077 1.396 . S
C2078 C2079 1.399 . S
C2079 H2065 0.929 . S
C2079 C2078 1.399 . S
C2079 C2080 1.385 . S
C2080 H2066 0.931 . S
C2080 C2079 1.385 . S
C2080 C2081 1.389 . S
C2081 C2080 1.389 . S
C2081 C2082 1.387 . S
C2082 H2067 0.930 . S
C2082 C2077 1.390 . S
C2082 C2081 1.387 . S
H2083 C2095 0.930 . S
H2084 C2097 0.930 1_556 S
H2085 C2098 0.930 . S
H2086 C2102 0.959 . S
H2087 C2102 0.959 . S
H2088 C2102 0.961 . S
H2089 C2103 0.960 . S
H2090 C2103 0.961 . S
H2091 C2103 0.959 . S
H2092 C2106 0.929 . S
H2093 C2107 0.931 . S
H2094 C2109 0.930 . S
C2095 H2083 0.930 . S
C2095 C2096 1.399 . S
C2095 C2100 1.399 . S
C2096 C2095 1.399 . S
C2096 C2097 1.376 . S
C2097 H2084 0.930 1_554 S
C2097 C2096 1.376 . S
C2097 C2098 1.388 1_554 S
C2098 H2085 0.930 . S
C2098 C2097 1.388 1_556 S
C2098 C2099 1.390 1_556 S
C2099 C2098 1.390 1_554 S
C2099 C2100 1.394 . S
C2099 C2105 1.465 . S
C2100 C2095 1.399 . S
C2100 C2099 1.394 . S
C2100 C2101 1.516 . S
C2101 C2100 1.516 . S
C2101 C2102 1.502 . S
C2101 C2103 1.561 . S
C2101 C2104 1.526 . S
C2102 H2086 0.959 . S
C2102 H2087 0.959 . S
C2102 H2088 0.961 . S
C2102 C2101 1.502 . S
C2103 H2089 0.960 . S
C2103 H2090 0.961 . S
C2103 H2091 0.959 . S
C2103 C2101 1.561 . S
C2104 C2101 1.526 . S
C2104 C2105 1.396 . S
C2104 C2109 1.390 . S
C2105 C2099 1.465 . S
C2105 C2104 1.396 . S
C2105 C2106 1.399 1_554 S
C2106 H2092 0.929 . S
C2106 C2105 1.399 1_556 S
C2106 C2107 1.385 . S
C2107 H2093 0.931 . S
C2107 C2106 1.385 . S
C2107 C2108 1.389 1_556 S
C2108 C2107 1.389 1_554 S
C2108 C2109 1.387 . S
C2109 H2094 0.930 . S
C2109 C2104 1.390 . S
C2109 C2108 1.387 . S
H2110 C2122 0.930 . S
H2111 C2124 0.930 . S
H2112 C2125 0.930 . S
H2113 C2129 0.959 . S
H2114 C2129 0.959 . S
H2115 C2129 0.961 . S
H2116 C2130 0.960 . S
H2117 C2130 0.961 . S
H2118 C2130 0.959 . S
H2119 C2133 0.929 . S
H2120 C2134 0.931 . S
H2121 C2136 0.930 . S
C2122 H2110 0.930 . S
C2122 C2123 1.399 . S
C2122 C2127 1.399 . S
C2123 C2122 1.399 . S
C2123 C2124 1.376 . S
C2124 H2111 0.930 . S
C2124 C2123 1.376 . S
C2124 C2125 1.388 . S
C2125 H2112 0.930 . S
C2125 C2124 1.388 . S
C2125 C2126 1.390 . S
C2126 C2125 1.390 . S
C2126 C2127 1.394 . S
C2126 C2132 1.465 . S
C2127 C2122 1.399 . S
C2127 C2126 1.394 . S
C2127 C2128 1.516 . S
C2128 C2127 1.516 . S
C2128 C2129 1.502 . S
C2128 C2130 1.561 . S
C2128 C2131 1.526 . S
C2129 H2113 0.959 . S
C2129 H2114 0.959 . S
C2129 H2115 0.961 . S
C2129 C2128 1.502 . S
C2130 H2116 0.960 . S
C2130 H2117 0.961 . S
C2130 H2118 0.959 . S
C2130 C2128 1.561 . S
C2131 C2128 1.526 . S
C2131 C2132 1.396 . S
C2131 C2136 1.390 . S
C2132 C2126 1.465 . S
C2132 C2131 1.396 . S
C2132 C2133 1.399 . S
C2133 H2119 0.929 . S
C2133 C2132 1.399 . S
C2133 C2134 1.385 . S
C2134 H2120 0.931 . S
C2134 C2133 1.385 . S
C2134 C2135 1.389 . S
C2135 C2134 1.389 . S
C2135 C2136 1.387 . S
C2136 H2121 0.930 . S
C2136 C2131 1.390 . S
C2136 C2135 1.387 . S
H2137 C2149 0.930 . S
H2138 C2151 0.930 . S
H2139 C2152 0.930 . S
H2140 C2156 0.959 . S
H2141 C2156 0.959 . S
H2142 C2156 0.961 . S
H2143 C2157 0.960 . S
H2144 C2157 0.961 . S
H2145 C2157 0.959 . S
H2146 C2160 0.929 . S
H2147 C2161 0.931 . S
H2148 C2163 0.930 . S
C2149 H2137 0.930 . S
C2149 C2150 1.399 . S
C2149 C2154 1.399 . S
C2150 C2149 1.399 . S
C2150 C2151 1.376 . S
C2151 H2138 0.930 . S
C2151 C2150 1.376 . S
C2151 C2152 1.388 . S
C2152 H2139 0.930 . S
C2152 C2151 1.388 . S
C2152 C2153 1.390 . S
C2153 C2152 1.390 . S
C2153 C2154 1.394 . S
C2153 C2159 1.465 . S
C2154 C2149 1.399 . S
C2154 C2153 1.394 . S
C2154 C2155 1.516 . S
C2155 C2154 1.516 . S
C2155 C2156 1.502 . S
C2155 C2157 1.561 . S
C2155 C2158 1.526 . S
C2156 H2140 0.959 . S
C2156 H2141 0.959 . S
C2156 H2142 0.961 . S
C2156 C2155 1.502 . S
C2157 H2143 0.960 . S
C2157 H2144 0.961 . S
C2157 H2145 0.959 . S
C2157 C2155 1.561 . S
C2158 C2155 1.526 . S
C2158 C2159 1.396 . S
C2158 C2163 1.390 . S
C2159 C2153 1.465 . S
C2159 C2158 1.396 . S
C2159 C2160 1.399 . S
C2160 H2146 0.929 . S
C2160 C2159 1.399 . S
C2160 C2161 1.385 . S
C2161 H2147 0.931 . S
C2161 C2160 1.385 . S
C2161 C2162 1.389 . S
C2162 C2161 1.389 . S
C2162 C2163 1.387 . S
C2163 H2148 0.930 . S
C2163 C2158 1.390 . S
C2163 C2162 1.387 . S
H2164 C2176 0.930 . S
H2165 C2178 0.930 . S
H2166 C2179 0.930 . S
H2167 C2183 0.959 . S
H2168 C2183 0.959 . S
H2169 C2183 0.961 . S
H2170 C2184 0.960 1_545 S
H2171 C2184 0.961 . S
H2172 C2184 0.959 . S
H2173 C2187 0.929 . S
H2174 C2188 0.931 . S
H2175 C2190 0.930 . S
C2176 H2164 0.930 . S
C2176 C2177 1.399 . S
C2176 C2181 1.392 1_545 S
C2177 C2176 1.399 . S
C2177 C2178 1.376 1_545 S
C2178 H2165 0.930 . S
C2178 C2177 1.376 1_565 S
C2178 C2179 1.388 . S
C2179 H2166 0.930 . S
C2179 C2178 1.388 . S
C2179 C2180 1.390 . S
C2180 C2179 1.390 . S
C2180 C2181 1.399 . S
C2180 C2186 1.465 . S
C2181 C2176 1.392 1_565 S
C2181 C2180 1.399 . S
C2181 C2182 1.519 . S
C2182 C2181 1.519 . S
C2182 C2183 1.502 1_565 S
C2182 C2184 1.561 . S
C2182 C2185 1.526 . S
C2183 H2167 0.959 . S
C2183 H2168 0.959 . S
C2183 H2169 0.961 . S
C2183 C2182 1.502 1_545 S
C2184 H2170 0.960 1_565 S
C2184 H2171 0.961 . S
C2184 H2172 0.959 . S
C2184 C2182 1.561 . S
C2185 C2182 1.526 . S
C2185 C2186 1.396 . S
C2185 C2190 1.390 . S
C2186 C2180 1.465 . S
C2186 C2185 1.396 . S
C2186 C2187 1.399 . S
C2187 H2173 0.929 . S
C2187 C2186 1.399 . S
C2187 C2188 1.385 . S
C2188 H2174 0.931 . S
C2188 C2187 1.385 . S
C2188 C2189 1.389 . S
C2189 C2188 1.389 . S
C2189 C2190 1.387 . S
C2190 H2175 0.930 . S
C2190 C2185 1.390 . S
C2190 C2189 1.387 . S
H2191 C2203 0.930 . S
H2192 C2205 0.930 . S
H2193 C2206 0.930 . S
H2194 C2210 0.959 . S
H2195 C2210 0.959 . S
H2196 C2210 0.961 . S
H2197 C2211 0.960 . S
H2198 C2211 0.961 . S
H2199 C2211 0.959 . S
H2200 C2214 0.929 . S
H2201 C2215 0.931 . S
H2202 C2217 0.930 . S
C2203 H2191 0.930 . S
C2203 C2204 1.399 . S
C2203 C2208 1.399 . S
C2204 C2203 1.399 . S
C2204 C2205 1.376 . S
C2205 H2192 0.930 . S
C2205 C2204 1.376 . S
C2205 C2206 1.388 . S
C2206 H2193 0.930 . S
C2206 C2205 1.388 . S
C2206 C2207 1.390 . S
C2207 C2206 1.390 . S
C2207 C2208 1.394 . S
C2207 C2213 1.465 . S
C2208 C2203 1.399 . S
C2208 C2207 1.394 . S
C2208 C2209 1.516 . S
C2209 C2208 1.516 . S
C2209 C2210 1.502 . S
C2209 C2211 1.561 . S
C2209 C2212 1.526 . S
C2210 H2194 0.959 . S
C2210 H2195 0.959 . S
C2210 H2196 0.961 . S
C2210 C2209 1.502 . S
C2211 H2197 0.960 . S
C2211 H2198 0.961 . S
C2211 H2199 0.959 . S
C2211 C2209 1.561 . S
C2212 C2209 1.526 . S
C2212 C2213 1.396 . S
C2212 C2217 1.390 . S
C2213 C2207 1.465 . S
C2213 C2212 1.396 . S
C2213 C2214 1.399 . S
C2214 H2200 0.929 . S
C2214 C2213 1.399 . S
C2214 C2215 1.385 . S
C2215 H2201 0.931 . S
C2215 C2214 1.385 . S
C2215 C2216 1.389 . S
C2216 C2215 1.389 . S
C2216 C2217 1.387 . S
C2217 H2202 0.930 . S
C2217 C2212 1.390 . S
C2217 C2216 1.387 . S
H2218 C2230 0.930 . S
H2219 C2232 0.930 . S
H2220 C2233 0.930 . S
H2221 C2237 0.959 . S
H2222 C2237 0.959 . S
H2223 C2237 0.961 . S
H2224 C2238 0.960 . S
H2225 C2238 0.961 . S
H2226 C2238 0.959 . S
H2227 C2241 0.929 . S
H2228 C2242 0.931 . S
H2229 C2244 0.930 . S
C2230 H2218 0.930 . S
C2230 C2231 1.399 . S
C2230 C2235 1.399 . S
C2231 C2230 1.399 . S
C2231 C2232 1.376 . S
C2232 H2219 0.930 . S
C2232 C2231 1.376 . S
C2232 C2233 1.388 . S
C2233 H2220 0.930 . S
C2233 C2232 1.388 . S
C2233 C2234 1.390 . S
C2234 C2233 1.390 . S
C2234 C2235 1.394 . S
C2234 C2240 1.465 . S
C2235 C2230 1.399 . S
C2235 C2234 1.394 . S
C2235 C2236 1.516 . S
C2236 C2235 1.516 . S
C2236 C2237 1.502 . S
C2236 C2238 1.561 . S
C2236 C2239 1.526 . S
C2237 H2221 0.959 . S
C2237 H2222 0.959 . S
C2237 H2223 0.961 . S
C2237 C2236 1.502 . S
C2238 H2224 0.960 . S
C2238 H2225 0.961 . S
C2238 H2226 0.959 . S
C2238 C2236 1.561 . S
C2239 C2236 1.526 . S
C2239 C2240 1.396 . S
C2239 C2244 1.390 . S
C2240 C2234 1.465 . S
C2240 C2239 1.396 . S
C2240 C2241 1.399 . S
C2241 H2227 0.929 . S
C2241 C2240 1.399 . S
C2241 C2242 1.385 . S
C2242 H2228 0.931 . S
C2242 C2241 1.385 . S
C2242 C2243 1.389 . S
C2243 C2242 1.389 . S
C2243 C2244 1.387 . S
C2244 H2229 0.930 . S
C2244 C2239 1.390 . S
C2244 C2243 1.387 . S
H2245 C2257 0.930 . S
H2246 C2259 0.930 . S
H2247 C2260 0.930 . S
H2248 C2264 0.959 . S
H2249 C2264 0.959 . S
H2250 C2264 0.961 . S
H2251 C2265 0.960 . S
H2252 C2265 0.961 . S
H2253 C2265 0.959 . S
H2254 C2268 0.929 . S
H2255 C2269 0.931 . S
H2256 C2271 0.930 . S
C2257 H2245 0.930 . S
C2257 C2258 1.399 . S
C2257 C2262 1.399 . S
C2258 C2257 1.399 . S
C2258 C2259 1.376 . S
C2259 H2246 0.930 . S
C2259 C2258 1.376 . S
C2259 C2260 1.388 . S
C2260 H2247 0.930 . S
C2260 C2259 1.388 . S
C2260 C2261 1.390 . S
C2261 C2260 1.390 . S
C2261 C2262 1.394 . S
C2261 C2267 1.465 . S
C2262 C2257 1.399 . S
C2262 C2261 1.394 . S
C2262 C2263 1.516 . S
C2263 C2262 1.516 . S
C2263 C2264 1.502 . S
C2263 C2265 1.561 . S
C2263 C2266 1.526 . S
C2264 H2248 0.959 . S
C2264 H2249 0.959 . S
C2264 H2250 0.961 . S
C2264 C2263 1.502 . S
C2265 H2251 0.960 . S
C2265 H2252 0.961 . S
C2265 H2253 0.959 . S
C2265 C2263 1.561 . S
C2266 C2263 1.526 . S
C2266 C2267 1.396 . S
C2266 C2271 1.390 . S
C2267 C2261 1.465 . S
C2267 C2266 1.396 . S
C2267 C2268 1.399 . S
C2268 H2254 0.929 . S
C2268 C2267 1.399 . S
C2268 C2269 1.385 . S
C2269 H2255 0.931 . S
C2269 C2268 1.385 . S
C2269 C2270 1.389 . S
C2270 C2269 1.389 . S
C2270 C2271 1.387 . S
C2271 H2256 0.930 . S
C2271 C2266 1.390 . S
C2271 C2270 1.387 . S
H2272 C2284 0.930 . S
H2273 C2286 0.930 . S
H2274 C2287 0.930 . S
H2275 C2291 0.959 . S
H2276 C2291 0.959 . S
H2277 C2291 0.961 . S
H2278 C2292 0.960 . S
H2279 C2292 0.961 . S
H2280 C2292 0.959 . S
H2281 C2295 0.929 . S
H2282 C2296 0.931 . S
H2283 C2298 0.930 . S
C2284 H2272 0.930 . S
C2284 C2285 1.399 . S
C2284 C2289 1.399 . S
C2285 C2284 1.399 . S
C2285 C2286 1.376 . S
C2286 H2273 0.930 . S
C2286 C2285 1.376 . S
C2286 C2287 1.388 . S
C2287 H2274 0.930 . S
C2287 C2286 1.388 . S
C2287 C2288 1.390 . S
C2288 C2287 1.390 . S
C2288 C2289 1.394 . S
C2288 C2294 1.465 . S
C2289 C2284 1.399 . S
C2289 C2288 1.394 . S
C2289 C2290 1.516 . S
C2290 C2289 1.516 . S
C2290 C2291 1.502 . S
C2290 C2292 1.561 . S
C2290 C2293 1.526 . S
C2291 H2275 0.959 . S
C2291 H2276 0.959 . S
C2291 H2277 0.961 . S
C2291 C2290 1.502 . S
C2292 H2278 0.960 . S
C2292 H2279 0.961 . S
C2292 H2280 0.959 . S
C2292 C2290 1.561 . S
C2293 C2290 1.526 . S
C2293 C2294 1.396 . S
C2293 C2298 1.390 . S
C2294 C2288 1.465 . S
C2294 C2293 1.396 . S
C2294 C2295 1.399 . S
C2295 H2281 0.929 . S
C2295 C2294 1.399 . S
C2295 C2296 1.385 . S
C2296 H2282 0.931 . S
C2296 C2295 1.385 . S
C2296 C2297 1.389 . S
C2297 C2296 1.389 . S
C2297 C2298 1.387 . S
C2298 H2283 0.930 . S
C2298 C2293 1.390 . S
C2298 C2297 1.387 . S
H2299 C2311 0.930 . S
H2300 C2313 0.930 . S
H2301 C2314 0.930 . S
H2302 C2318 0.959 . S
H2303 C2318 0.959 . S
H2304 C2318 0.961 . S
H2305 C2319 0.960 . S
H2306 C2319 0.961 . S
H2307 C2319 0.959 . S
H2308 C2322 0.929 . S
H2309 C2323 0.931 . S
H2310 C2325 0.930 . S
C2311 H2299 0.930 . S
C2311 C2312 1.399 . S
C2311 C2316 1.399 . S
C2312 C2311 1.399 . S
C2312 C2313 1.376 . S
C2313 H2300 0.930 . S
C2313 C2312 1.376 . S
C2313 C2314 1.388 . S
C2314 H2301 0.930 . S
C2314 C2313 1.388 . S
C2314 C2315 1.390 . S
C2315 C2314 1.390 . S
C2315 C2316 1.394 . S
C2315 C2321 1.465 . S
C2316 C2311 1.399 . S
C2316 C2315 1.394 . S
C2316 C2317 1.516 . S
C2317 C2316 1.516 . S
C2317 C2318 1.502 . S
C2317 C2319 1.561 . S
C2317 C2320 1.526 . S
C2318 H2302 0.959 . S
C2318 H2303 0.959 . S
C2318 H2304 0.961 . S
C2318 C2317 1.502 . S
C2319 H2305 0.960 . S
C2319 H2306 0.961 . S
C2319 H2307 0.959 . S
C2319 C2317 1.561 . S
C2320 C2317 1.526 . S
C2320 C2321 1.396 . S
C2320 C2325 1.390 . S
C2321 C2315 1.465 . S
C2321 C2320 1.396 . S
C2321 C2322 1.399 . S
C2322 H2308 0.929 . S
C2322 C2321 1.399 . S
C2322 C2323 1.385 . S
C2323 H2309 0.931 . S
C2323 C2322 1.385 . S
C2323 C2324 1.389 . S
C2324 C2323 1.389 . S
C2324 C2325 1.387 . S
C2325 H2310 0.930 . S
C2325 C2320 1.390 . S
C2325 C2324 1.387 . S
H2326 C2338 0.930 . S
H2327 C2340 0.930 1_655 S
H2328 C2341 0.930 1_655 S
H2329 C2345 0.942 1_554 S
H2330 C2345 0.959 . S
H2331 C2345 0.961 . S
H2332 C2346 0.960 . S
H2333 C2346 0.961 . S
H2334 C2346 0.959 . S
H2335 C2349 0.929 1_655 S
H2336 C2350 0.931 1_554 S
H2337 C2352 0.930 . S
C2338 H2326 0.930 . S
C2338 C2339 1.399 . S
C2338 C2343 1.399 . S
C2339 C2338 1.399 . S
C2339 C2340 1.376 . S
C2340 H2327 0.930 1_455 S
C2340 C2339 1.376 . S
C2340 C2341 1.388 . S
C2341 H2328 0.930 1_455 S
C2341 C2340 1.388 . S
C2341 C2342 1.390 . S
C2342 C2341 1.390 . S
C2342 C2343 1.394 . S
C2342 C2348 1.465 . S
C2343 C2338 1.399 . S
C2343 C2342 1.394 . S
C2343 C2344 1.516 . S
C2344 C2343 1.516 . S
C2344 C2345 1.502 . S
C2344 C2346 1.561 . S
C2344 C2347 1.526 . S
C2345 H2329 0.942 1_556 S
C2345 H2330 0.959 . S
C2345 H2331 0.961 . S
C2345 C2344 1.502 . S
C2346 H2332 0.960 . S
C2346 H2333 0.961 . S
C2346 H2334 0.959 . S
C2346 C2344 1.561 . S
C2347 C2344 1.526 . S
C2347 C2348 1.396 . S
C2347 C2352 1.390 . S
C2348 C2342 1.465 . S
C2348 C2347 1.396 . S
C2348 C2349 1.399 . S
C2349 H2335 0.929 1_455 S
C2349 C2348 1.399 . S
C2349 C2350 1.385 . S
C2350 H2336 0.931 1_556 S
C2350 C2349 1.385 . S
C2350 C2351 1.389 . S
C2351 C2350 1.389 . S
C2351 C2352 1.387 . S
C2352 H2337 0.930 . S
C2352 C2347 1.390 . S
C2352 C2351 1.387 . S
H2353 C2365 0.930 . S
H2354 C2367 0.930 . S
H2355 C2368 0.930 . S
H2356 C2372 0.959 . S
H2357 C2372 0.959 . S
H2358 C2372 0.961 1_455 S
H2359 C2373 0.960 . S
H2360 C2373 0.961 . S
H2361 C2373 0.959 . S
H2362 C2376 0.929 . S
H2363 C2377 0.931 . S
H2364 C2379 0.930 . S
C2365 H2353 0.930 . S
C2365 C2366 1.399 . S
C2365 C2370 1.399 1_455 S
C2366 C2365 1.399 . S
C2366 C2367 1.376 . S
C2367 H2354 0.930 . S
C2367 C2366 1.376 . S
C2367 C2368 1.388 1_455 S
C2368 H2355 0.930 . S
C2368 C2367 1.388 1_655 S
C2368 C2369 1.390 . S
C2369 C2368 1.390 . S
C2369 C2370 1.394 . S
C2369 C2375 1.465 . S
C2370 C2365 1.399 1_655 S
C2370 C2369 1.394 . S
C2370 C2371 1.516 . S
C2371 C2370 1.516 . S
C2371 C2372 1.502 . S
C2371 C2373 1.561 . S
C2371 C2374 1.526 . S
C2372 H2356 0.959 . S
C2372 H2357 0.959 . S
C2372 H2358 0.961 1_655 S
C2372 C2371 1.502 . S
C2373 H2359 0.960 . S
C2373 H2360 0.961 . S
C2373 H2361 0.959 . S
C2373 C2371 1.561 . S
C2374 C2371 1.526 . S
C2374 C2375 1.396 . S
C2374 C2379 1.390 . S
C2375 C2369 1.465 . S
C2375 C2374 1.396 . S
C2375 C2376 1.399 . S
C2376 H2362 0.929 . S
C2376 C2375 1.399 . S
C2376 C2377 1.385 . S
C2377 H2363 0.931 . S
C2377 C2376 1.385 . S
C2377 C2378 1.389 . S
C2378 C2377 1.389 . S
C2378 C2379 1.387 . S
C2379 H2364 0.930 . S
C2379 C2374 1.390 . S
C2379 C2378 1.387 . S
H2380 C2392 0.930 . S
H2381 C2394 0.930 . S
H2382 C2395 0.930 . S
H2383 C2399 0.959 . S
H2384 C2399 0.959 . S
H2385 C2399 0.961 . S
H2386 C2400 0.960 . S
H2387 C2400 0.961 . S
H2388 C2400 0.959 . S
H2389 C2403 0.929 . S
H2390 C2404 0.931 . S
H2391 C2406 0.930 . S
C2392 H2380 0.930 . S
C2392 C2393 1.399 . S
C2392 C2397 1.399 . S
C2393 C2392 1.399 . S
C2393 C2394 1.376 . S
C2394 H2381 0.930 . S
C2394 C2393 1.376 . S
C2394 C2395 1.388 . S
C2395 H2382 0.930 . S
C2395 C2394 1.388 . S
C2395 C2396 1.390 . S
C2396 C2395 1.390 . S
C2396 C2397 1.394 . S
C2396 C2402 1.465 . S
C2397 C2392 1.399 . S
C2397 C2396 1.394 . S
C2397 C2398 1.516 . S
C2398 C2397 1.516 . S
C2398 C2399 1.502 . S
C2398 C2400 1.561 . S
C2398 C2401 1.526 . S
C2399 H2383 0.959 . S
C2399 H2384 0.959 . S
C2399 H2385 0.961 . S
C2399 C2398 1.502 . S
C2400 H2386 0.960 . S
C2400 H2387 0.961 . S
C2400 H2388 0.959 . S
C2400 C2398 1.561 . S
C2401 C2398 1.526 . S
C2401 C2402 1.396 . S
C2401 C2406 1.390 . S
C2402 C2396 1.465 . S
C2402 C2401 1.396 . S
C2402 C2403 1.399 . S
C2403 H2389 0.929 . S
C2403 C2402 1.399 . S
C2403 C2404 1.385 . S
C2404 H2390 0.931 . S
C2404 C2403 1.385 . S
C2404 C2405 1.389 . S
C2405 C2404 1.389 . S
C2405 C2406 1.387 . S
C2406 H2391 0.930 . S
C2406 C2401 1.390 . S
C2406 C2405 1.387 . S
H2407 C2419 0.930 . S
H2408 C2421 0.930 . S
H2409 C2422 0.930 . S
H2410 C2426 0.959 1_455 S
H2411 C2426 0.959 . S
H2412 C2426 0.961 1_455 S
H2413 C2427 0.960 . S
H2414 C2427 0.961 . S
H2415 C2427 0.959 . S
H2416 C2430 0.929 . S
H2417 C2431 0.931 . S
H2418 C2433 0.930 . S
C2419 H2407 0.930 . S
C2419 C2420 1.399 . S
C2419 C2424 1.399 . S
C2420 C2419 1.399 . S
C2420 C2421 1.376 . S
C2421 H2408 0.930 . S
C2421 C2420 1.376 . S
C2421 C2422 1.388 . S
C2422 H2409 0.930 . S
C2422 C2421 1.388 . S
C2422 C2423 1.390 . S
C2423 C2422 1.390 . S
C2423 C2424 1.394 . S
C2423 C2429 1.465 1_455 S
C2424 C2419 1.399 . S
C2424 C2423 1.394 . S
C2424 C2425 1.516 1_455 S
C2425 C2424 1.516 1_655 S
C2425 C2426 1.502 . S
C2425 C2427 1.561 . S
C2425 C2428 1.526 . S
C2426 H2410 0.959 1_655 S
C2426 H2411 0.959 . S
C2426 H2412 0.961 1_655 S
C2426 C2425 1.502 . S
C2427 H2413 0.960 . S
C2427 H2414 0.961 . S
C2427 H2415 0.959 . S
C2427 C2425 1.561 . S
C2428 C2425 1.526 . S
C2428 C2429 1.396 . S
C2428 C2433 1.390 . S
C2429 C2423 1.465 1_655 S
C2429 C2428 1.396 . S
C2429 C2430 1.399 . S
C2430 H2416 0.929 . S
C2430 C2429 1.399 . S
C2430 C2431 1.385 . S
C2431 H2417 0.931 . S
C2431 C2430 1.385 . S
C2431 C2432 1.389 . S
C2432 C2431 1.389 . S
C2432 C2433 1.387 . S
C2433 H2418 0.930 . S
C2433 C2428 1.390 . S
C2433 C2432 1.387 . S
H2434 C2446 0.930 . S
H2435 C2448 0.930 . S
H2436 C2449 0.930 . S
H2437 C2453 0.959 . S
H2438 C2453 0.959 . S
H2439 C2453 0.961 . S
H2440 C2454 0.960 . S
H2441 C2454 0.961 . S
H2442 C2454 0.959 . S
H2443 C2457 0.929 . S
H2444 C2458 0.931 . S
H2445 C2460 0.930 . S
C2446 H2434 0.930 . S
C2446 C2447 1.399 . S
C2446 C2451 1.399 . S
C2447 C2446 1.399 . S
C2447 C2448 1.376 1_655 S
C2448 H2435 0.930 . S
C2448 C2447 1.376 1_455 S
C2448 C2449 1.388 . S
C2449 H2436 0.930 . S
C2449 C2448 1.388 . S
C2449 C2450 1.390 . S
C2450 C2449 1.390 . S
C2450 C2451 1.394 1_455 S
C2450 C2456 1.465 . S
C2451 C2446 1.399 . S
C2451 C2450 1.394 1_655 S
C2451 C2452 1.516 . S
C2452 C2451 1.516 . S
C2452 C2453 1.502 . S
C2452 C2454 1.561 . S
C2452 C2455 1.526 1_655 S
C2453 H2437 0.959 . S
C2453 H2438 0.959 . S
C2453 H2439 0.961 . S
C2453 C2452 1.502 . S
C2454 H2440 0.960 . S
C2454 H2441 0.961 . S
C2454 H2442 0.959 . S
C2454 C2452 1.561 . S
C2455 C2452 1.526 1_455 S
C2455 C2456 1.396 . S
C2455 C2460 1.390 . S
C2456 C2450 1.465 . S
C2456 C2455 1.396 . S
C2456 C2457 1.399 . S
C2457 H2443 0.929 . S
C2457 C2456 1.399 . S
C2457 C2458 1.385 . S
C2458 H2444 0.931 . S
C2458 C2457 1.385 . S
C2458 C2459 1.389 . S
C2459 C2458 1.389 . S
C2459 C2460 1.387 . S
C2460 H2445 0.930 . S
C2460 C2455 1.390 . S
C2460 C2459 1.387 . S
H2461 C2473 0.930 . S
H2462 C2475 0.930 . S
H2463 C2476 0.930 . S
H2464 C2480 0.959 . S
H2465 C2480 0.959 . S
H2466 C2480 0.961 . S
H2467 C2481 0.960 . S
H2468 C2481 0.961 . S
H2469 C2481 0.959 . S
H2470 C2484 0.929 . S
H2471 C2485 0.931 . S
H2472 C2487 0.930 . S
C2473 H2461 0.930 . S
C2473 C2474 1.399 . S
C2473 C2478 1.399 . S
C2474 C2473 1.399 . S
C2474 C2475 1.376 . S
C2475 H2462 0.930 . S
C2475 C2474 1.376 . S
C2475 C2476 1.388 . S
C2476 H2463 0.930 . S
C2476 C2475 1.388 . S
C2476 C2477 1.390 . S
C2477 C2476 1.390 . S
C2477 C2478 1.394 . S
C2477 C2483 1.465 . S
C2478 C2473 1.399 . S
C2478 C2477 1.394 . S
C2478 C2479 1.516 . S
C2479 C2478 1.516 . S
C2479 C2480 1.502 . S
C2479 C2481 1.561 . S
C2479 C2482 1.526 . S
C2480 H2464 0.959 . S
C2480 H2465 0.959 . S
C2480 H2466 0.961 . S
C2480 C2479 1.502 . S
C2481 H2467 0.960 . S
C2481 H2468 0.961 . S
C2481 H2469 0.959 . S
C2481 C2479 1.561 . S
C2482 C2479 1.526 . S
C2482 C2483 1.396 . S
C2482 C2487 1.390 . S
C2483 C2477 1.465 . S
C2483 C2482 1.396 . S
C2483 C2484 1.399 . S
C2484 H2470 0.929 . S
C2484 C2483 1.399 . S
C2484 C2485 1.385 . S
C2485 H2471 0.931 . S
C2485 C2484 1.385 . S
C2485 C2486 1.389 . S
C2486 C2485 1.389 . S
C2486 C2487 1.387 . S
C2487 H2472 0.930 . S
C2487 C2482 1.390 . S
C2487 C2486 1.387 . S
H2488 C2500 0.930 . S
H2489 C2502 0.930 . S
H2490 C2503 0.930 . S
H2491 C2507 0.959 . S
H2492 C2507 0.959 . S
H2493 C2507 0.961 . S
H2494 C2508 0.960 . S
H2495 C2508 0.961 . S
H2496 C2508 0.959 . S
H2497 C2511 0.929 . S
H2498 C2512 0.931 . S
H2499 C2514 0.930 . S
C2500 H2488 0.930 . S
C2500 C2501 1.399 . S
C2500 C2505 1.399 . S
C2501 C2500 1.399 . S
C2501 C2502 1.376 . S
C2502 H2489 0.930 . S
C2502 C2501 1.376 . S
C2502 C2503 1.388 . S
C2503 H2490 0.930 . S
C2503 C2502 1.388 . S
C2503 C2504 1.390 . S
C2504 C2503 1.390 . S
C2504 C2505 1.394 . S
C2504 C2510 1.465 . S
C2505 C2500 1.399 . S
C2505 C2504 1.394 . S
C2505 C2506 1.516 . S
C2506 C2505 1.516 . S
C2506 C2507 1.502 . S
C2506 C2508 1.561 . S
C2506 C2509 1.526 . S
C2507 H2491 0.959 . S
C2507 H2492 0.959 . S
C2507 H2493 0.961 . S
C2507 C2506 1.502 . S
C2508 H2494 0.960 . S
C2508 H2495 0.961 . S
C2508 H2496 0.959 . S
C2508 C2506 1.561 . S
C2509 C2506 1.526 . S
C2509 C2510 1.396 . S
C2509 C2514 1.390 . S
C2510 C2504 1.465 . S
C2510 C2509 1.396 . S
C2510 C2511 1.399 . S
C2511 H2497 0.929 . S
C2511 C2510 1.399 . S
C2511 C2512 1.385 . S
C2512 H2498 0.931 . S
C2512 C2511 1.385 . S
C2512 C2513 1.389 . S
C2513 C2512 1.389 . S
C2513 C2514 1.387 . S
C2514 H2499 0.930 . S
C2514 C2509 1.390 . S
C2514 C2513 1.387 . S
H2515 C2527 0.930 . S
H2516 C2529 0.930 . S
H2517 C2530 0.930 . S
H2518 C2534 0.959 . S
H2519 C2534 0.959 . S
H2520 C2534 0.961 . S
H2521 C2535 0.960 . S
H2522 C2535 0.961 . S
H2523 C2535 0.959 . S
H2524 C2538 0.929 . S
H2525 C2539 0.931 . S
H2526 C2541 0.930 . S
C2527 H2515 0.930 . S
C2527 C2528 1.399 . S
C2527 C2532 1.399 . S
C2528 C2527 1.399 . S
C2528 C2529 1.376 . S
C2529 H2516 0.930 . S
C2529 C2528 1.376 . S
C2529 C2530 1.388 . S
C2530 H2517 0.930 . S
C2530 C2529 1.388 . S
C2530 C2531 1.390 . S
C2531 C2530 1.390 . S
C2531 C2532 1.394 . S
C2531 C2537 1.465 . S
C2532 C2527 1.399 . S
C2532 C2531 1.394 . S
C2532 C2533 1.516 . S
C2533 C2532 1.516 . S
C2533 C2534 1.502 . S
C2533 C2535 1.561 . S
C2533 C2536 1.526 . S
C2534 H2518 0.959 . S
C2534 H2519 0.959 . S
C2534 H2520 0.961 . S
C2534 C2533 1.502 . S
C2535 H2521 0.960 . S
C2535 H2522 0.961 . S
C2535 H2523 0.959 . S
C2535 C2533 1.561 . S
C2536 C2533 1.526 . S
C2536 C2537 1.396 . S
C2536 C2541 1.390 . S
C2537 C2531 1.465 . S
C2537 C2536 1.396 . S
C2537 C2538 1.399 . S
C2538 H2524 0.929 . S
C2538 C2537 1.399 . S
C2538 C2539 1.385 . S
C2539 H2525 0.931 . S
C2539 C2538 1.385 . S
C2539 C2540 1.389 . S
C2540 C2539 1.389 . S
C2540 C2541 1.387 . S
C2541 H2526 0.930 . S
C2541 C2536 1.390 . S
C2541 C2540 1.387 . S
H2542 C2554 0.930 . S
H2543 C2556 0.930 . S
H2544 C2557 0.930 . S
H2545 C2561 0.959 . S
H2546 C2561 0.959 . S
H2547 C2561 0.961 . S
H2548 C2562 0.960 . S
H2549 C2562 0.961 . S
H2550 C2562 0.959 . S
H2551 C2565 0.929 . S
H2552 C2566 0.931 . S
H2553 C2568 0.930 . S
C2554 H2542 0.930 . S
C2554 C2555 1.399 . S
C2554 C2559 1.399 . S
C2555 C2554 1.399 . S
C2555 C2556 1.376 . S
C2556 H2543 0.930 . S
C2556 C2555 1.376 . S
C2556 C2557 1.388 . S
C2557 H2544 0.930 . S
C2557 C2556 1.388 . S
C2557 C2558 1.390 . S
C2558 C2557 1.390 . S
C2558 C2559 1.394 . S
C2558 C2564 1.465 . S
C2559 C2554 1.399 . S
C2559 C2558 1.394 . S
C2559 C2560 1.516 . S
C2560 C2559 1.516 . S
C2560 C2561 1.502 . S
C2560 C2562 1.561 . S
C2560 C2563 1.526 . S
C2561 H2545 0.959 . S
C2561 H2546 0.959 . S
C2561 H2547 0.961 . S
C2561 C2560 1.502 . S
C2562 H2548 0.960 . S
C2562 H2549 0.961 . S
C2562 H2550 0.959 . S
C2562 C2560 1.561 . S
C2563 C2560 1.526 . S
C2563 C2564 1.396 . S
C2563 C2568 1.390 . S
C2564 C2558 1.465 . S
C2564 C2563 1.396 . S
C2564 C2565 1.399 . S
C2565 H2551 0.929 . S
C2565 C2564 1.399 . S
C2565 C2566 1.385 . S
C2566 H2552 0.931 . S
C2566 C2565 1.385 . S
C2566 C2567 1.389 . S
C2567 C2566 1.389 . S
C2567 C2568 1.387 . S
C2568 H2553 0.930 . S
C2568 C2563 1.390 . S
C2568 C2567 1.387 . S
H2569 C2581 0.930 . S
H2570 C2583 0.930 . S
H2571 C2584 0.930 . S
H2572 C2588 0.959 . S
H2573 C2588 0.959 . S
H2574 C2588 0.961 . S
H2575 C2589 0.960 . S
H2576 C2589 0.961 . S
H2577 C2589 0.959 . S
H2578 C2592 0.929 . S
H2579 C2593 0.931 . S
H2580 C2595 0.930 . S
C2581 H2569 0.930 . S
C2581 C2582 1.399 . S
C2581 C2586 1.399 . S
C2582 C2581 1.399 . S
C2582 C2583 1.376 . S
C2583 H2570 0.930 . S
C2583 C2582 1.376 . S
C2583 C2584 1.388 . S
C2584 H2571 0.930 . S
C2584 C2583 1.388 . S
C2584 C2585 1.390 . S
C2585 C2584 1.390 . S
C2585 C2586 1.394 . S
C2585 C2591 1.465 . S
C2586 C2581 1.399 . S
C2586 C2585 1.394 . S
C2586 C2587 1.516 . S
C2587 C2586 1.516 . S
C2587 C2588 1.502 . S
C2587 C2589 1.561 . S
C2587 C2590 1.526 . S
C2588 H2572 0.959 . S
C2588 H2573 0.959 . S
C2588 H2574 0.961 . S
C2588 C2587 1.502 . S
C2589 H2575 0.960 . S
C2589 H2576 0.961 . S
C2589 H2577 0.959 . S
C2589 C2587 1.561 . S
C2590 C2587 1.526 . S
C2590 C2591 1.396 . S
C2590 C2595 1.390 . S
C2591 C2585 1.465 . S
C2591 C2590 1.396 . S
C2591 C2592 1.399 . S
C2592 H2578 0.929 . S
C2592 C2591 1.399 . S
C2592 C2593 1.385 . S
C2593 H2579 0.931 . S
C2593 C2592 1.385 . S
C2593 C2594 1.389 . S
C2594 C2593 1.389 . S
C2594 C2595 1.387 . S
C2595 H2580 0.930 . S
C2595 C2590 1.390 . S
C2595 C2594 1.387 . S
H2596 C2608 0.930 . S
H2597 C2610 0.930 . S
H2598 C2611 0.930 . S
H2599 C2615 0.959 . S
H2600 C2615 0.959 . S
H2601 C2615 0.961 . S
H2602 C2616 0.960 . S
H2603 C2616 0.961 . S
H2604 C2616 0.959 . S
H2605 C2619 0.929 . S
H2606 C2620 0.931 . S
H2607 C2622 0.930 . S
C2608 H2596 0.930 . S
C2608 C2609 1.399 . S
C2608 C2613 1.399 . S
C2609 C2608 1.399 . S
C2609 C2610 1.376 . S
C2610 H2597 0.930 . S
C2610 C2609 1.376 . S
C2610 C2611 1.388 . S
C2611 H2598 0.930 . S
C2611 C2610 1.388 . S
C2611 C2612 1.390 . S
C2612 C2611 1.390 . S
C2612 C2613 1.394 . S
C2612 C2618 1.465 . S
C2613 C2608 1.399 . S
C2613 C2612 1.394 . S
C2613 C2614 1.516 . S
C2614 C2613 1.516 . S
C2614 C2615 1.502 . S
C2614 C2616 1.561 . S
C2614 C2617 1.526 . S
C2615 H2599 0.959 . S
C2615 H2600 0.959 . S
C2615 H2601 0.961 . S
C2615 C2614 1.502 . S
C2616 H2602 0.960 . S
C2616 H2603 0.961 . S
C2616 H2604 0.959 . S
C2616 C2614 1.561 . S
C2617 C2614 1.526 . S
C2617 C2618 1.396 . S
C2617 C2622 1.390 . S
C2618 C2612 1.465 . S
C2618 C2617 1.396 . S
C2618 C2619 1.399 . S
C2619 H2605 0.929 . S
C2619 C2618 1.399 . S
C2619 C2620 1.385 . S
C2620 H2606 0.931 . S
C2620 C2619 1.385 . S
C2620 C2621 1.389 . S
C2621 C2620 1.389 . S
C2621 C2622 1.387 . S
C2622 H2607 0.930 . S
C2622 C2617 1.390 . S
C2622 C2621 1.387 . S
H2623 C2635 0.930 . S
H2624 C2637 0.930 . S
H2625 C2638 0.930 . S
H2626 C2642 0.959 . S
H2627 C2642 0.959 . S
H2628 C2642 0.961 . S
H2629 C2643 0.960 . S
H2630 C2643 0.961 . S
H2631 C2643 0.959 . S
H2632 C2646 0.929 . S
H2633 C2647 0.931 . S
H2634 C2649 0.930 . S
C2635 H2623 0.930 . S
C2635 C2636 1.399 . S
C2635 C2640 1.399 . S
C2636 C2635 1.399 . S
C2636 C2637 1.376 . S
C2637 H2624 0.930 . S
C2637 C2636 1.376 . S
C2637 C2638 1.388 . S
C2638 H2625 0.930 . S
C2638 C2637 1.388 . S
C2638 C2639 1.390 . S
C2639 C2638 1.390 . S
C2639 C2640 1.394 . S
C2639 C2645 1.465 . S
C2640 C2635 1.399 . S
C2640 C2639 1.394 . S
C2640 C2641 1.516 . S
C2641 C2640 1.516 . S
C2641 C2642 1.502 . S
C2641 C2643 1.561 . S
C2641 C2644 1.526 . S
C2642 H2626 0.959 . S
C2642 H2627 0.959 . S
C2642 H2628 0.961 . S
C2642 C2641 1.502 . S
C2643 H2629 0.960 . S
C2643 H2630 0.961 . S
C2643 H2631 0.959 . S
C2643 C2641 1.561 . S
C2644 C2641 1.526 . S
C2644 C2645 1.396 . S
C2644 C2649 1.390 . S
C2645 C2639 1.465 . S
C2645 C2644 1.396 . S
C2645 C2646 1.399 . S
C2646 H2632 0.929 . S
C2646 C2645 1.399 . S
C2646 C2647 1.385 . S
C2647 H2633 0.931 . S
C2647 C2646 1.385 . S
C2647 C2648 1.389 . S
C2648 C2647 1.389 . S
C2648 C2649 1.387 . S
C2649 H2634 0.930 . S
C2649 C2644 1.390 . S
C2649 C2648 1.387 . S
H2650 C2662 0.930 . S
H2651 C2664 0.930 . S
H2652 C2665 0.930 . S
H2653 C2669 0.959 . S
H2654 C2669 0.959 . S
H2655 C2669 0.961 . S
H2656 C2670 0.960 . S
H2657 C2670 0.961 . S
H2658 C2670 0.959 . S
H2659 C2673 0.929 . S
H2660 C2674 0.931 . S
H2661 C2676 0.930 . S
C2662 H2650 0.930 . S
C2662 C2663 1.399 . S
C2662 C2667 1.399 . S
C2663 C2662 1.399 . S
C2663 C2664 1.376 . S
C2664 H2651 0.930 . S
C2664 C2663 1.376 . S
C2664 C2665 1.388 . S
C2665 H2652 0.930 . S
C2665 C2664 1.388 . S
C2665 C2666 1.390 . S
C2666 C2665 1.390 . S
C2666 C2667 1.394 . S
C2666 C2672 1.465 . S
C2667 C2662 1.399 . S
C2667 C2666 1.394 . S
C2667 C2668 1.516 . S
C2668 C2667 1.516 . S
C2668 C2669 1.502 . S
C2668 C2670 1.561 . S
C2668 C2671 1.526 . S
C2669 H2653 0.959 . S
C2669 H2654 0.959 . S
C2669 H2655 0.961 . S
C2669 C2668 1.502 . S
C2670 H2656 0.960 . S
C2670 H2657 0.961 . S
C2670 H2658 0.959 . S
C2670 C2668 1.561 . S
C2671 C2668 1.526 . S
C2671 C2672 1.396 . S
C2671 C2676 1.390 . S
C2672 C2666 1.465 . S
C2672 C2671 1.396 . S
C2672 C2673 1.399 . S
C2673 H2659 0.929 . S
C2673 C2672 1.399 . S
C2673 C2674 1.385 . S
C2674 H2660 0.931 . S
C2674 C2673 1.385 . S
C2674 C2675 1.389 . S
C2675 C2674 1.389 . S
C2675 C2676 1.387 . S
C2676 H2661 0.930 . S
C2676 C2671 1.390 . S
C2676 C2675 1.387 . S
H2677 C2689 0.930 . S
H2678 C2691 0.930 . S
H2679 C2692 0.930 . S
H2680 C2696 0.959 . S
H2681 C2696 0.959 . S
H2682 C2696 0.961 . S
H2683 C2697 0.960 . S
H2684 C2697 0.961 . S
H2685 C2697 0.959 . S
H2686 C2700 0.929 . S
H2687 C2701 0.931 . S
H2688 C2703 0.930 . S
C2689 H2677 0.930 . S
C2689 C2690 1.399 . S
C2689 C2694 1.399 . S
C2690 C2689 1.399 . S
C2690 C2691 1.376 . S
C2691 H2678 0.930 . S
C2691 C2690 1.376 . S
C2691 C2692 1.388 . S
C2692 H2679 0.930 . S
C2692 C2691 1.388 . S
C2692 C2693 1.390 . S
C2693 C2692 1.390 . S
C2693 C2694 1.394 . S
C2693 C2699 1.465 . S
C2694 C2689 1.399 . S
C2694 C2693 1.394 . S
C2694 C2695 1.516 . S
C2695 C2694 1.516 . S
C2695 C2696 1.502 . S
C2695 C2697 1.561 . S
C2695 C2698 1.526 . S
C2696 H2680 0.959 . S
C2696 H2681 0.959 . S
C2696 H2682 0.961 . S
C2696 C2695 1.502 . S
C2697 H2683 0.960 . S
C2697 H2684 0.961 . S
C2697 H2685 0.959 . S
C2697 C2695 1.561 . S
C2698 C2695 1.526 . S
C2698 C2699 1.396 . S
C2698 C2703 1.390 . S
C2699 C2693 1.465 . S
C2699 C2698 1.396 . S
C2699 C2700 1.399 . S
C2700 H2686 0.929 . S
C2700 C2699 1.399 . S
C2700 C2701 1.385 . S
C2701 H2687 0.931 . S
C2701 C2700 1.385 . S
C2701 C2702 1.389 . S
C2702 C2701 1.389 . S
C2702 C2703 1.387 . S
C2703 H2688 0.930 . S
C2703 C2698 1.390 . S
C2703 C2702 1.387 . S
H2704 C2716 0.930 . S
H2705 C2718 0.930 . S
H2706 C2719 0.930 . S
H2707 C2723 0.959 . S
H2708 C2723 0.959 . S
H2709 C2723 0.961 . S
H2710 C2724 0.960 . S
H2711 C2724 0.961 . S
H2712 C2724 0.959 . S
H2713 C2727 0.929 . S
H2714 C2728 0.931 . S
H2715 C2730 0.930 . S
C2716 H2704 0.930 . S
C2716 C2717 1.399 . S
C2716 C2721 1.399 . S
C2717 C2716 1.399 . S
C2717 C2718 1.376 . S
C2718 H2705 0.930 . S
C2718 C2717 1.376 . S
C2718 C2719 1.388 . S
C2719 H2706 0.930 . S
C2719 C2718 1.388 . S
C2719 C2720 1.390 . S
C2720 C2719 1.390 . S
C2720 C2721 1.394 . S
C2720 C2726 1.465 . S
C2721 C2716 1.399 . S
C2721 C2720 1.394 . S
C2721 C2722 1.516 . S
C2722 C2721 1.516 . S
C2722 C2723 1.502 . S
C2722 C2724 1.561 . S
C2722 C2725 1.526 . S
C2723 H2707 0.959 . S
C2723 H2708 0.959 . S
C2723 H2709 0.961 . S
C2723 C2722 1.502 . S
C2724 H2710 0.960 . S
C2724 H2711 0.961 . S
C2724 H2712 0.959 . S
C2724 C2722 1.561 . S
C2725 C2722 1.526 . S
C2725 C2726 1.396 . S
C2725 C2730 1.390 . S
C2726 C2720 1.465 . S
C2726 C2725 1.396 . S
C2726 C2727 1.399 . S
C2727 H2713 0.929 . S
C2727 C2726 1.399 . S
C2727 C2728 1.385 . S
C2728 H2714 0.931 . S
C2728 C2727 1.385 . S
C2728 C2729 1.389 . S
C2729 C2728 1.389 . S
C2729 C2730 1.387 . S
C2730 H2715 0.930 . S
C2730 C2725 1.390 . S
C2730 C2729 1.387 . S
H2731 C2743 0.930 . S
H2732 C2745 0.930 . S
H2733 C2746 0.930 . S
H2734 C2750 0.959 . S
H2735 C2750 0.959 . S
H2736 C2750 0.961 . S
H2737 C2751 0.960 . S
H2738 C2751 0.961 . S
H2739 C2751 0.959 . S
H2740 C2754 0.929 . S
H2741 C2755 0.931 . S
H2742 C2757 0.930 . S
C2743 H2731 0.930 . S
C2743 C2744 1.399 . S
C2743 C2748 1.399 . S
C2744 C2743 1.399 . S
C2744 C2745 1.376 . S
C2745 H2732 0.930 . S
C2745 C2744 1.376 . S
C2745 C2746 1.388 . S
C2746 H2733 0.930 . S
C2746 C2745 1.388 . S
C2746 C2747 1.390 . S
C2747 C2746 1.390 . S
C2747 C2748 1.394 . S
C2747 C2753 1.465 . S
C2748 C2743 1.399 . S
C2748 C2747 1.394 . S
C2748 C2749 1.516 . S
C2749 C2748 1.516 . S
C2749 C2750 1.502 . S
C2749 C2751 1.561 . S
C2749 C2752 1.526 . S
C2750 H2734 0.959 . S
C2750 H2735 0.959 . S
C2750 H2736 0.961 . S
C2750 C2749 1.502 . S
C2751 H2737 0.960 . S
C2751 H2738 0.961 . S
C2751 H2739 0.959 . S
C2751 C2749 1.561 . S
C2752 C2749 1.526 . S
C2752 C2753 1.396 . S
C2752 C2757 1.390 . S
C2753 C2747 1.465 . S
C2753 C2752 1.396 . S
C2753 C2754 1.399 . S
C2754 H2740 0.929 . S
C2754 C2753 1.399 . S
C2754 C2755 1.385 . S
C2755 H2741 0.931 . S
C2755 C2754 1.385 . S
C2755 C2756 1.389 . S
C2756 C2755 1.389 . S
C2756 C2757 1.387 . S
C2757 H2742 0.930 . S
C2757 C2752 1.390 . S
C2757 C2756 1.387 . S
H2758 C2770 0.930 . S
H2759 C2772 0.930 . S
H2760 C2773 0.930 . S
H2761 C2777 0.959 . S
H2762 C2777 0.959 . S
H2763 C2777 0.961 . S
H2764 C2778 0.960 . S
H2765 C2778 0.961 . S
H2766 C2778 0.959 . S
H2767 C2781 0.929 . S
H2768 C2782 0.931 . S
H2769 C2784 0.930 . S
C2770 H2758 0.930 . S
C2770 C2771 1.399 . S
C2770 C2775 1.399 . S
C2771 C2770 1.399 . S
C2771 C2772 1.376 . S
C2772 H2759 0.930 . S
C2772 C2771 1.376 . S
C2772 C2773 1.388 . S
C2773 H2760 0.930 . S
C2773 C2772 1.388 . S
C2773 C2774 1.390 . S
C2774 C2773 1.390 . S
C2774 C2775 1.394 . S
C2774 C2780 1.465 . S
C2775 C2770 1.399 . S
C2775 C2774 1.394 . S
C2775 C2776 1.516 . S
C2776 C2775 1.516 . S
C2776 C2777 1.502 . S
C2776 C2778 1.561 . S
C2776 C2779 1.526 . S
C2777 H2761 0.959 . S
C2777 H2762 0.959 . S
C2777 H2763 0.961 . S
C2777 C2776 1.502 . S
C2778 H2764 0.960 . S
C2778 H2765 0.961 . S
C2778 H2766 0.959 . S
C2778 C2776 1.561 . S
C2779 C2776 1.526 . S
C2779 C2780 1.396 . S
C2779 C2784 1.390 . S
C2780 C2774 1.465 . S
C2780 C2779 1.396 . S
C2780 C2781 1.399 . S
C2781 H2767 0.929 . S
C2781 C2780 1.399 . S
C2781 C2782 1.385 . S
C2782 H2768 0.931 . S
C2782 C2781 1.385 . S
C2782 C2783 1.389 . S
C2783 C2782 1.389 . S
C2783 C2784 1.387 . S
C2784 H2769 0.930 . S
C2784 C2779 1.390 . S
C2784 C2783 1.387 . S
H2785 C2797 0.930 . S
H2786 C2799 0.930 . S
H2787 C2800 0.930 . S
H2788 C2804 0.959 . S
H2789 C2804 0.959 . S
H2790 C2804 0.961 . S
H2791 C2805 0.960 . S
H2792 C2805 0.961 . S
H2793 C2805 0.959 . S
H2794 C2808 0.929 . S
H2795 C2809 0.931 . S
H2796 C2811 0.930 . S
C2797 H2785 0.930 . S
C2797 C2798 1.399 . S
C2797 C2802 1.399 . S
C2798 C2797 1.399 . S
C2798 C2799 1.376 1_554 S
C2799 H2786 0.930 . S
C2799 C2798 1.376 1_556 S
C2799 C2800 1.388 . S
C2800 H2787 0.930 . S
C2800 C2799 1.388 . S
C2800 C2801 1.390 1_556 S
C2801 C2800 1.390 1_554 S
C2801 C2802 1.394 . S
C2801 C2807 1.465 . S
C2802 C2797 1.399 . S
C2802 C2801 1.394 . S
C2802 C2803 1.516 . S
C2803 C2802 1.516 . S
C2803 C2804 1.502 . S
C2803 C2805 1.561 . S
C2803 C2806 1.526 . S
C2804 H2788 0.959 . S
C2804 H2789 0.959 . S
C2804 H2790 0.961 . S
C2804 C2803 1.502 . S
C2805 H2791 0.960 . S
C2805 H2792 0.961 . S
C2805 H2793 0.959 . S
C2805 C2803 1.561 . S
C2806 C2803 1.526 . S
C2806 C2807 1.396 . S
C2806 C2811 1.390 . S
C2807 C2801 1.465 . S
C2807 C2806 1.396 . S
C2807 C2808 1.399 1_564 S
C2808 H2794 0.929 . S
C2808 C2807 1.399 1_546 S
C2808 C2809 1.385 . S
C2809 H2795 0.931 . S
C2809 C2808 1.385 . S
C2809 C2810 1.389 1_556 S
C2810 C2809 1.389 1_554 S
C2810 C2811 1.387 1_545 S
C2811 H2796 0.930 . S
C2811 C2806 1.390 . S
C2811 C2810 1.387 1_565 S
H2812 C2824 0.930 . S
H2813 C2826 0.930 . S
H2814 C2827 0.930 . S
H2815 C2831 0.959 . S
H2816 C2831 0.959 . S
H2817 C2831 0.961 . S
H2818 C2832 0.960 . S
H2819 C2832 0.961 . S
H2820 C2832 0.959 . S
H2821 C2835 0.929 . S
H2822 C2836 0.931 . S
H2823 C2838 0.930 . S
C2824 H2812 0.930 . S
C2824 C2825 1.399 . S
C2824 C2829 1.399 . S
C2825 C2824 1.399 . S
C2825 C2826 1.376 . S
C2826 H2813 0.930 . S
C2826 C2825 1.376 . S
C2826 C2827 1.388 . S
C2827 H2814 0.930 . S
C2827 C2826 1.388 . S
C2827 C2828 1.390 . S
C2828 C2827 1.390 . S
C2828 C2829 1.394 . S
C2828 C2834 1.465 . S
C2829 C2824 1.399 . S
C2829 C2828 1.394 . S
C2829 C2830 1.516 . S
C2830 C2829 1.516 . S
C2830 C2831 1.502 . S
C2830 C2832 1.561 . S
C2830 C2833 1.526 . S
C2831 H2815 0.959 . S
C2831 H2816 0.959 . S
C2831 H2817 0.961 . S
C2831 C2830 1.502 . S
C2832 H2818 0.960 . S
C2832 H2819 0.961 . S
C2832 H2820 0.959 . S
C2832 C2830 1.561 . S
C2833 C2830 1.526 . S
C2833 C2834 1.396 . S
C2833 C2838 1.390 . S
C2834 C2828 1.465 . S
C2834 C2833 1.396 . S
C2834 C2835 1.399 . S
C2835 H2821 0.929 . S
C2835 C2834 1.399 . S
C2835 C2836 1.385 . S
C2836 H2822 0.931 . S
C2836 C2835 1.385 . S
C2836 C2837 1.389 . S
C2837 C2836 1.389 . S
C2837 C2838 1.387 . S
C2838 H2823 0.930 . S
C2838 C2833 1.390 . S
C2838 C2837 1.387 . S
H2839 C2851 0.935 . S
H2840 C2853 0.930 . S
H2841 C2854 0.930 . S
H2842 C2858 0.959 . S
H2843 C2858 0.959 . S
H2844 C2858 0.961 . S
H2845 C2859 0.960 . S
H2846 C2859 0.961 . S
H2847 C2859 0.959 . S
H2848 C2862 0.929 . S
H2849 C2863 0.931 . S
H2850 C2865 0.930 . S
C2851 H2839 0.935 . S
C2851 C2852 1.399 . S
C2851 C2856 1.399 . S
C2852 C2851 1.399 . S
C2852 C2853 1.376 . S
C2853 H2840 0.930 . S
C2853 C2852 1.376 . S
C2853 C2854 1.388 . S
C2854 H2841 0.930 . S
C2854 C2853 1.388 . S
C2854 C2855 1.390 . S
C2855 C2854 1.390 . S
C2855 C2856 1.394 . S
C2855 C2861 1.465 . S
C2856 C2851 1.399 . S
C2856 C2855 1.394 . S
C2856 C2857 1.516 . S
C2857 C2856 1.516 . S
C2857 C2858 1.502 . S
C2857 C2859 1.561 1_554 S
C2857 C2860 1.526 . S
C2858 H2842 0.959 . S
C2858 H2843 0.959 . S
C2858 H2844 0.961 . S
C2858 C2857 1.502 . S
C2859 H2845 0.960 . S
C2859 H2846 0.961 . S
C2859 H2847 0.959 . S
C2859 C2857 1.561 1_556 S
C2860 C2857 1.526 . S
C2860 C2861 1.396 . S
C2860 C2865 1.390 . S
C2861 C2855 1.465 . S
C2861 C2860 1.396 . S
C2861 C2862 1.399 . S
C2862 H2848 0.929 . S
C2862 C2861 1.399 . S
C2862 C2863 1.385 . S
C2863 H2849 0.931 . S
C2863 C2862 1.385 . S
C2863 C2864 1.389 . S
C2864 C2863 1.389 . S
C2864 C2865 1.387 . S
C2865 H2850 0.930 . S
C2865 C2860 1.390 . S
C2865 C2864 1.387 . S
H2866 C2878 0.930 . S
H2867 C2880 0.930 . S
H2868 C2881 0.930 . S
H2869 C2885 0.959 . S
H2870 C2885 0.959 . S
H2871 C2885 0.961 . S
H2872 C2886 0.960 . S
H2873 C2886 0.961 . S
H2874 C2886 0.959 . S
H2875 C2889 0.929 . S
H2876 C2890 0.931 . S
H2877 C2892 0.930 . S
C2878 H2866 0.930 . S
C2878 C2879 1.399 . S
C2878 C2883 1.399 . S
C2879 C2878 1.399 . S
C2879 C2880 1.376 . S
C2880 H2867 0.930 . S
C2880 C2879 1.376 . S
C2880 C2881 1.388 . S
C2881 H2868 0.930 . S
C2881 C2880 1.388 . S
C2881 C2882 1.390 . S
C2882 C2881 1.390 . S
C2882 C2883 1.394 . S
C2882 C2888 1.465 . S
C2883 C2878 1.399 . S
C2883 C2882 1.394 . S
C2883 C2884 1.516 . S
C2884 C2883 1.516 . S
C2884 C2885 1.502 . S
C2884 C2886 1.561 . S
C2884 C2887 1.526 . S
C2885 H2869 0.959 . S
C2885 H2870 0.959 . S
C2885 H2871 0.961 . S
C2885 C2884 1.502 . S
C2886 H2872 0.960 . S
C2886 H2873 0.961 . S
C2886 H2874 0.959 . S
C2886 C2884 1.561 . S
C2887 C2884 1.526 . S
C2887 C2888 1.396 . S
C2887 C2892 1.390 . S
C2888 C2882 1.465 . S
C2888 C2887 1.396 . S
C2888 C2889 1.399 . S
C2889 H2875 0.929 . S
C2889 C2888 1.399 . S
C2889 C2890 1.385 . S
C2890 H2876 0.931 . S
C2890 C2889 1.385 . S
C2890 C2891 1.389 . S
C2891 C2890 1.389 . S
C2891 C2892 1.387 . S
C2892 H2877 0.930 . S
C2892 C2887 1.390 . S
C2892 C2891 1.387 . S
H2893 C2905 0.930 . S
H2894 C2907 0.930 . S
H2895 C2908 0.930 . S
H2896 C2912 0.959 . S
H2897 C2912 0.959 . S
H2898 C2912 0.961 . S
H2899 C2913 0.960 . S
H2900 C2913 0.961 . S
H2901 C2913 0.959 . S
H2902 C2916 0.929 . S
H2903 C2917 0.931 . S
H2904 C2919 0.930 . S
C2905 H2893 0.930 . S
C2905 C2906 1.399 . S
C2905 C2910 1.399 . S
C2906 C2905 1.399 . S
C2906 C2907 1.376 . S
C2907 H2894 0.930 . S
C2907 C2906 1.376 . S
C2907 C2908 1.388 . S
C2908 H2895 0.930 . S
C2908 C2907 1.388 . S
C2908 C2909 1.390 . S
C2909 C2908 1.390 . S
C2909 C2910 1.394 . S
C2909 C2915 1.465 . S
C2910 C2905 1.399 . S
C2910 C2909 1.394 . S
C2910 C2911 1.516 . S
C2911 C2910 1.516 . S
C2911 C2912 1.502 . S
C2911 C2913 1.561 . S
C2911 C2914 1.526 . S
C2912 H2896 0.959 . S
C2912 H2897 0.959 . S
C2912 H2898 0.961 . S
C2912 C2911 1.502 . S
C2913 H2899 0.960 . S
C2913 H2900 0.961 . S
C2913 H2901 0.959 . S
C2913 C2911 1.561 . S
C2914 C2911 1.526 . S
C2914 C2915 1.396 . S
C2914 C2919 1.390 . S
C2915 C2909 1.465 . S
C2915 C2914 1.396 . S
C2915 C2916 1.399 . S
C2916 H2902 0.929 . S
C2916 C2915 1.399 . S
C2916 C2917 1.385 . S
C2917 H2903 0.931 . S
C2917 C2916 1.385 . S
C2917 C2918 1.389 . S
C2918 C2917 1.389 . S
C2918 C2919 1.387 . S
C2919 H2904 0.930 . S
C2919 C2914 1.390 . S
C2919 C2918 1.387 . S
H2920 C2932 0.930 . S
H2921 C2934 0.930 . S
H2922 C2935 0.930 . S
H2923 C2939 0.959 . S
H2924 C2939 0.959 . S
H2925 C2939 0.961 . S
H2926 C2940 0.960 . S
H2927 C2940 0.961 . S
H2928 C2940 0.959 . S
H2929 C2943 0.929 . S
H2930 C2944 0.931 . S
H2931 C2946 0.930 . S
C2932 H2920 0.930 . S
C2932 C2933 1.399 . S
C2932 C2937 1.399 . S
C2933 C2932 1.399 . S
C2933 C2934 1.376 . S
C2934 H2921 0.930 . S
C2934 C2933 1.376 . S
C2934 C2935 1.388 . S
C2935 H2922 0.930 . S
C2935 C2934 1.388 . S
C2935 C2936 1.390 . S
C2936 C2935 1.390 . S
C2936 C2937 1.394 . S
C2936 C2942 1.465 . S
C2937 C2932 1.399 . S
C2937 C2936 1.394 . S
C2937 C2938 1.516 . S
C2938 C2937 1.516 . S
C2938 C2939 1.502 . S
C2938 C2940 1.561 . S
C2938 C2941 1.526 . S
C2939 H2923 0.959 . S
C2939 H2924 0.959 . S
C2939 H2925 0.961 . S
C2939 C2938 1.502 . S
C2940 H2926 0.960 . S
C2940 H2927 0.961 . S
C2940 H2928 0.959 . S
C2940 C2938 1.561 . S
C2941 C2938 1.526 . S
C2941 C2942 1.396 . S
C2941 C2946 1.390 . S
C2942 C2936 1.465 . S
C2942 C2941 1.396 . S
C2942 C2943 1.399 . S
C2943 H2929 0.929 . S
C2943 C2942 1.399 . S
C2943 C2944 1.385 . S
C2944 H2930 0.931 . S
C2944 C2943 1.385 . S
C2944 C2945 1.389 . S
C2945 C2944 1.389 . S
C2945 C2946 1.387 . S
C2946 H2931 0.930 . S
C2946 C2941 1.390 . S
C2946 C2945 1.387 . S
H2947 C2959 0.930 . S
H2948 C2961 0.930 . S
H2949 C2962 0.930 . S
H2950 C2966 0.959 . S
H2951 C2966 0.959 . S
H2952 C2966 0.961 . S
H2953 C2967 0.960 . S
H2954 C2967 0.961 . S
H2955 C2967 0.959 . S
H2956 C2970 0.929 . S
H2957 C2971 0.931 . S
H2958 C2973 0.930 . S
C2959 H2947 0.930 . S
C2959 C2960 1.399 . S
C2959 C2964 1.399 . S
C2960 C2959 1.399 . S
C2960 C2961 1.376 . S
C2961 H2948 0.930 . S
C2961 C2960 1.376 . S
C2961 C2962 1.388 . S
C2962 H2949 0.930 . S
C2962 C2961 1.388 . S
C2962 C2963 1.390 . S
C2963 C2962 1.390 . S
C2963 C2964 1.394 . S
C2963 C2969 1.465 . S
C2964 C2959 1.399 . S
C2964 C2963 1.394 . S
C2964 C2965 1.516 . S
C2965 C2964 1.516 . S
C2965 C2966 1.502 . S
C2965 C2967 1.561 . S
C2965 C2968 1.526 . S
C2966 H2950 0.959 . S
C2966 H2951 0.959 . S
C2966 H2952 0.961 . S
C2966 C2965 1.502 . S
C2967 H2953 0.960 . S
C2967 H2954 0.961 . S
C2967 H2955 0.959 . S
C2967 C2965 1.561 . S
C2968 C2965 1.526 . S
C2968 C2969 1.396 . S
C2968 C2973 1.390 . S
C2969 C2963 1.465 . S
C2969 C2968 1.396 . S
C2969 C2970 1.399 . S
C2970 H2956 0.929 . S
C2970 C2969 1.399 . S
C2970 C2971 1.385 . S
C2971 H2957 0.931 . S
C2971 C2970 1.385 . S
C2971 C2972 1.389 . S
C2972 C2971 1.389 . S
C2972 C2973 1.387 . S
C2973 H2958 0.930 . S
C2973 C2968 1.390 . S
C2973 C2972 1.387 . S
H2974 C2986 0.930 . S
H2975 C2988 0.930 . S
H2976 C2989 0.930 . S
H2977 C2993 0.959 . S
H2978 C2993 0.959 1_556 S
H2979 C2993 0.961 . S
H2980 C2994 0.947 1_556 S
H2981 C2994 0.961 1_556 S
H2982 C2994 0.959 . S
H2983 C2997 0.929 . S
H2984 C2998 0.931 . S
H2985 C3000 0.949 . S
C2986 H2974 0.930 . S
C2986 C2987 1.399 . S
C2986 C2991 1.399 . S
C2987 C2986 1.399 . S
C2987 C2988 1.376 . S
C2988 H2975 0.930 . S
C2988 C2987 1.376 . S
C2988 C2989 1.388 . S
C2989 H2976 0.930 . S
C2989 C2988 1.388 . S
C2989 C2990 1.390 . S
C2990 C2989 1.390 . S
C2990 C2991 1.394 . S
C2990 C2996 1.465 . S
C2991 C2986 1.399 . S
C2991 C2990 1.394 . S
C2991 C2992 1.516 . S
C2992 C2991 1.516 . S
C2992 C2993 1.502 . S
C2992 C2994 1.561 . S
C2992 C2995 1.526 . S
C2993 H2977 0.959 . S
C2993 H2978 0.959 1_554 S
C2993 H2979 0.961 . S
C2993 C2992 1.502 . S
C2994 H2980 0.947 1_554 S
C2994 H2981 0.961 1_554 S
C2994 H2982 0.959 . S
C2994 C2992 1.561 . S
C2995 C2992 1.526 . S
C2995 C2996 1.396 . S
C2995 C3000 1.390 . S
C2996 C2990 1.465 . S
C2996 C2995 1.396 . S
C2996 C2997 1.399 . S
C2997 H2983 0.929 . S
C2997 C2996 1.399 . S
C2997 C2998 1.385 . S
C2998 H2984 0.931 . S
C2998 C2997 1.385 . S
C2998 C2999 1.389 . S
C2999 C2998 1.389 . S
C2999 C3000 1.387 . S
C3000 H2985 0.949 . S
C3000 C2995 1.390 . S
C3000 C2999 1.387 . S
H3001 C3013 0.930 . S
H3002 C3015 0.930 . S
H3003 C3016 0.930 . S
H3004 C3020 0.959 . S
H3005 C3020 0.959 . S
H3006 C3020 0.961 . S
H3007 C3021 0.960 . S
H3008 C3021 0.961 . S
H3009 C3021 0.959 . S
H3010 C3024 0.929 . S
H3011 C3025 0.931 . S
H3012 C3027 0.930 . S
C3013 H3001 0.930 . S
C3013 C3014 1.399 . S
C3013 C3018 1.399 . S
C3014 C3013 1.399 . S
C3014 C3015 1.376 . S
C3015 H3002 0.930 . S
C3015 C3014 1.376 . S
C3015 C3016 1.388 . S
C3016 H3003 0.930 . S
C3016 C3015 1.388 . S
C3016 C3017 1.390 . S
C3017 C3016 1.390 . S
C3017 C3018 1.394 . S
C3017 C3023 1.465 . S
C3018 C3013 1.399 . S
C3018 C3017 1.394 . S
C3018 C3019 1.516 . S
C3019 C3018 1.516 . S
C3019 C3020 1.502 . S
C3019 C3021 1.561 . S
C3019 C3022 1.526 . S
C3020 H3004 0.959 . S
C3020 H3005 0.959 . S
C3020 H3006 0.961 . S
C3020 C3019 1.502 . S
C3021 H3007 0.960 . S
C3021 H3008 0.961 . S
C3021 H3009 0.959 . S
C3021 C3019 1.561 . S
C3022 C3019 1.526 . S
C3022 C3023 1.396 . S
C3022 C3027 1.390 . S
C3023 C3017 1.465 . S
C3023 C3022 1.396 . S
C3023 C3024 1.399 . S
C3024 H3010 0.929 . S
C3024 C3023 1.399 . S
C3024 C3025 1.385 . S
C3025 H3011 0.931 . S
C3025 C3024 1.385 . S
C3025 C3026 1.389 . S
C3026 C3025 1.389 . S
C3026 C3027 1.387 . S
C3027 H3012 0.930 . S
C3027 C3022 1.390 . S
C3027 C3026 1.387 . S
H3028 C3040 0.930 . S
H3029 C3042 0.930 . S
H3030 C3043 0.930 . S
H3031 C3047 0.959 . S
H3032 C3047 0.959 . S
H3033 C3047 0.961 . S
H3034 C3048 0.960 . S
H3035 C3048 0.961 . S
H3036 C3048 0.959 . S
H3037 C3051 0.929 . S
H3038 C3052 0.931 . S
H3039 C3054 0.930 . S
C3040 H3028 0.930 . S
C3040 C3041 1.399 . S
C3040 C3045 1.399 . S
C3041 C3040 1.399 . S
C3041 C3042 1.376 . S
C3042 H3029 0.930 . S
C3042 C3041 1.376 . S
C3042 C3043 1.388 . S
C3043 H3030 0.930 . S
C3043 C3042 1.388 . S
C3043 C3044 1.390 . S
C3044 C3043 1.390 . S
C3044 C3045 1.394 . S
C3044 C3050 1.465 . S
C3045 C3040 1.399 . S
C3045 C3044 1.394 . S
C3045 C3046 1.516 . S
C3046 C3045 1.516 . S
C3046 C3047 1.502 . S
C3046 C3048 1.561 . S
C3046 C3049 1.526 . S
C3047 H3031 0.959 . S
C3047 H3032 0.959 . S
C3047 H3033 0.961 . S
C3047 C3046 1.502 . S
C3048 H3034 0.960 . S
C3048 H3035 0.961 . S
C3048 H3036 0.959 . S
C3048 C3046 1.561 . S
C3049 C3046 1.526 . S
C3049 C3050 1.396 . S
C3049 C3054 1.390 . S
C3050 C3044 1.465 . S
C3050 C3049 1.396 . S
C3050 C3051 1.399 . S
C3051 H3037 0.929 . S
C3051 C3050 1.399 . S
C3051 C3052 1.385 . S
C3052 H3038 0.931 . S
C3052 C3051 1.385 . S
C3052 C3053 1.389 . S
C3053 C3052 1.389 . S
C3053 C3054 1.387 . S
C3054 H3039 0.930 . S
C3054 C3049 1.390 . S
C3054 C3053 1.387 . S
H3055 C3067 0.930 . S
H3056 C3069 0.930 . S
H3057 C3070 0.930 . S
H3058 C3074 0.959 . S
H3059 C3074 0.959 . S
H3060 C3074 0.961 . S
H3061 C3075 0.960 . S
H3062 C3075 0.961 . S
H3063 C3075 0.959 . S
H3064 C3078 0.929 . S
H3065 C3079 0.931 . S
H3066 C3081 0.930 . S
C3067 H3055 0.930 . S
C3067 C3068 1.399 . S
C3067 C3072 1.399 . S
C3068 C3067 1.399 . S
C3068 C3069 1.376 . S
C3069 H3056 0.930 . S
C3069 C3068 1.376 . S
C3069 C3070 1.388 . S
C3070 H3057 0.930 . S
C3070 C3069 1.388 . S
C3070 C3071 1.390 . S
C3071 C3070 1.390 . S
C3071 C3072 1.394 . S
C3071 C3077 1.465 . S
C3072 C3067 1.399 . S
C3072 C3071 1.394 . S
C3072 C3073 1.516 . S
C3073 C3072 1.516 . S
C3073 C3074 1.502 . S
C3073 C3075 1.561 . S
C3073 C3076 1.526 . S
C3074 H3058 0.959 . S
C3074 H3059 0.959 . S
C3074 H3060 0.961 . S
C3074 C3073 1.502 . S
C3075 H3061 0.960 . S
C3075 H3062 0.961 . S
C3075 H3063 0.959 . S
C3075 C3073 1.561 . S
C3076 C3073 1.526 . S
C3076 C3077 1.396 . S
C3076 C3081 1.390 . S
C3077 C3071 1.465 . S
C3077 C3076 1.396 . S
C3077 C3078 1.399 . S
C3078 H3064 0.929 . S
C3078 C3077 1.399 . S
C3078 C3079 1.385 . S
C3079 H3065 0.931 . S
C3079 C3078 1.385 . S
C3079 C3080 1.389 . S
C3080 C3079 1.389 . S
C3080 C3081 1.387 . S
C3081 H3066 0.930 . S
C3081 C3076 1.390 . S
C3081 C3080 1.387 . S
H3082 C3094 0.930 . S
H3083 C3096 0.930 . S
H3084 C3097 0.930 . S
H3085 C3101 0.959 . S
H3086 C3101 0.959 . S
H3087 C3101 0.961 . S
H3088 C3102 0.960 . S
H3089 C3102 0.961 . S
H3090 C3102 0.959 . S
H3091 C3105 0.929 . S
H3092 C3106 0.931 . S
H3093 C3108 0.930 . S
C3094 H3082 0.930 . S
C3094 C3095 1.399 . S
C3094 C3099 1.399 . S
C3095 C3094 1.399 . S
C3095 C3096 1.376 . S
C3096 H3083 0.930 . S
C3096 C3095 1.376 . S
C3096 C3097 1.388 . S
C3097 H3084 0.930 . S
C3097 C3096 1.388 . S
C3097 C3098 1.390 . S
C3098 C3097 1.390 . S
C3098 C3099 1.394 . S
C3098 C3104 1.465 . S
C3099 C3094 1.399 . S
C3099 C3098 1.394 . S
C3099 C3100 1.516 . S
C3100 C3099 1.516 . S
C3100 C3101 1.502 . S
C3100 C3102 1.561 . S
C3100 C3103 1.526 . S
C3101 H3085 0.959 . S
C3101 H3086 0.959 . S
C3101 H3087 0.961 . S
C3101 C3100 1.502 . S
C3102 H3088 0.960 . S
C3102 H3089 0.961 . S
C3102 H3090 0.959 . S
C3102 C3100 1.561 . S
C3103 C3100 1.526 . S
C3103 C3104 1.396 . S
C3103 C3108 1.390 . S
C3104 C3098 1.465 . S
C3104 C3103 1.396 . S
C3104 C3105 1.399 . S
C3105 H3091 0.929 . S
C3105 C3104 1.399 . S
C3105 C3106 1.385 . S
C3106 H3092 0.931 . S
C3106 C3105 1.385 . S
C3106 C3107 1.389 . S
C3107 C3106 1.389 . S
C3107 C3108 1.387 . S
C3108 H3093 0.930 . S
C3108 C3103 1.390 . S
C3108 C3107 1.387 . S
H3109 C3121 0.930 . S
H3110 C3123 0.930 . S
H3111 C3124 0.930 . S
H3112 C3128 0.959 . S
H3113 C3128 0.959 . S
H3114 C3128 0.961 . S
H3115 C3129 0.960 . S
H3116 C3129 0.961 . S
H3117 C3129 0.959 . S
H3118 C3132 0.929 . S
H3119 C3133 0.931 . S
H3120 C3135 0.930 . S
C3121 H3109 0.930 . S
C3121 C3122 1.399 . S
C3121 C3126 1.399 . S
C3122 C3121 1.399 . S
C3122 C3123 1.376 . S
C3123 H3110 0.930 . S
C3123 C3122 1.376 . S
C3123 C3124 1.388 . S
C3124 H3111 0.930 . S
C3124 C3123 1.388 . S
C3124 C3125 1.390 . S
C3125 C3124 1.390 . S
C3125 C3126 1.394 . S
C3125 C3131 1.465 . S
C3126 C3121 1.399 . S
C3126 C3125 1.394 . S
C3126 C3127 1.516 . S
C3127 C3126 1.516 . S
C3127 C3128 1.502 . S
C3127 C3129 1.561 . S
C3127 C3130 1.526 . S
C3128 H3112 0.959 . S
C3128 H3113 0.959 . S
C3128 H3114 0.961 . S
C3128 C3127 1.502 . S
C3129 H3115 0.960 . S
C3129 H3116 0.961 . S
C3129 H3117 0.959 . S
C3129 C3127 1.561 . S
C3130 C3127 1.526 . S
C3130 C3131 1.396 . S
C3130 C3135 1.390 . S
C3131 C3125 1.465 . S
C3131 C3130 1.396 . S
C3131 C3132 1.399 . S
C3132 H3118 0.929 . S
C3132 C3131 1.399 . S
C3132 C3133 1.385 . S
C3133 H3119 0.931 . S
C3133 C3132 1.385 . S
C3133 C3134 1.389 . S
C3134 C3133 1.389 . S
C3134 C3135 1.387 . S
C3135 H3120 0.930 . S
C3135 C3130 1.390 . S
C3135 C3134 1.387 . S
H3136 C3148 0.930 . S
H3137 C3150 0.930 . S
H3138 C3151 0.930 . S
H3139 C3155 0.959 . S
H3140 C3155 0.959 . S
H3141 C3155 0.961 . S
H3142 C3156 0.960 . S
H3143 C3156 0.961 . S
H3144 C3156 0.959 . S
H3145 C3159 0.929 . S
H3146 C3160 0.931 . S
H3147 C3162 0.930 . S
C3148 H3136 0.930 . S
C3148 C3149 1.399 . S
C3148 C3153 1.399 . S
C3149 C3148 1.399 . S
C3149 C3150 1.376 . S
C3150 H3137 0.930 . S
C3150 C3149 1.376 . S
C3150 C3151 1.388 . S
C3151 H3138 0.930 . S
C3151 C3150 1.388 . S
C3151 C3152 1.390 . S
C3152 C3151 1.390 . S
C3152 C3153 1.394 . S
C3152 C3158 1.465 . S
C3153 C3148 1.399 . S
C3153 C3152 1.394 . S
C3153 C3154 1.516 . S
C3154 C3153 1.516 . S
C3154 C3155 1.502 . S
C3154 C3156 1.561 . S
C3154 C3157 1.526 . S
C3155 H3139 0.959 . S
C3155 H3140 0.959 . S
C3155 H3141 0.961 . S
C3155 C3154 1.502 . S
C3156 H3142 0.960 . S
C3156 H3143 0.961 . S
C3156 H3144 0.959 . S
C3156 C3154 1.561 . S
C3157 C3154 1.526 . S
C3157 C3158 1.396 . S
C3157 C3162 1.390 . S
C3158 C3152 1.465 . S
C3158 C3157 1.396 . S
C3158 C3159 1.399 . S
C3159 H3145 0.929 . S
C3159 C3158 1.399 . S
C3159 C3160 1.385 . S
C3160 H3146 0.931 . S
C3160 C3159 1.385 . S
C3160 C3161 1.389 . S
C3161 C3160 1.389 . S
C3161 C3162 1.387 . S
C3162 H3147 0.930 . S
C3162 C3157 1.390 . S
C3162 C3161 1.387 . S
H3163 C3175 0.930 . S
H3164 C3177 0.930 . S
H3165 C3178 0.930 . S
H3166 C3182 0.959 . S
H3167 C3182 0.959 . S
H3168 C3182 0.961 . S
H3169 C3183 0.960 . S
H3170 C3183 0.961 . S
H3171 C3183 0.959 . S
H3172 C3186 0.929 . S
H3173 C3187 0.931 . S
H3174 C3189 0.930 . S
C3175 H3163 0.930 . S
C3175 C3176 1.399 . S
C3175 C3180 1.399 . S
C3176 C3175 1.399 . S
C3176 C3177 1.376 . S
C3177 H3164 0.930 . S
C3177 C3176 1.376 . S
C3177 C3178 1.388 . S
C3178 H3165 0.930 . S
C3178 C3177 1.388 . S
C3178 C3179 1.390 . S
C3179 C3178 1.390 . S
C3179 C3180 1.394 . S
C3179 C3185 1.465 . S
C3180 C3175 1.399 . S
C3180 C3179 1.394 . S
C3180 C3181 1.516 . S
C3181 C3180 1.516 . S
C3181 C3182 1.502 . S
C3181 C3183 1.561 . S
C3181 C3184 1.526 . S
C3182 H3166 0.959 . S
C3182 H3167 0.959 . S
C3182 H3168 0.961 . S
C3182 C3181 1.502 . S
C3183 H3169 0.960 . S
C3183 H3170 0.961 . S
C3183 H3171 0.959 . S
C3183 C3181 1.561 . S
C3184 C3181 1.526 . S
C3184 C3185 1.396 . S
C3184 C3189 1.390 . S
C3185 C3179 1.465 . S
C3185 C3184 1.396 . S
C3185 C3186 1.399 . S
C3186 H3172 0.929 . S
C3186 C3185 1.399 . S
C3186 C3187 1.385 . S
C3187 H3173 0.931 . S
C3187 C3186 1.385 . S
C3187 C3188 1.389 . S
C3188 C3187 1.389 . S
C3188 C3189 1.387 . S
C3189 H3174 0.930 . S
C3189 C3184 1.390 . S
C3189 C3188 1.387 . S
H3190 C3202 0.930 . S
H3191 C3204 0.930 . S
H3192 C3205 0.930 . S
H3193 C3209 0.959 . S
H3194 C3209 0.959 . S
H3195 C3209 0.961 . S
H3196 C3210 0.960 . S
H3197 C3210 0.961 1_455 S
H3198 C3210 0.959 . S
H3199 C3213 0.929 . S
H3200 C3214 0.931 . S
H3201 C3216 0.930 . S
C3202 H3190 0.930 . S
C3202 C3203 1.399 . S
C3202 C3207 1.399 . S
C3203 C3202 1.399 . S
C3203 C3204 1.376 . S
C3204 H3191 0.930 . S
C3204 C3203 1.376 . S
C3204 C3205 1.388 . S
C3205 H3192 0.930 . S
C3205 C3204 1.388 . S
C3205 C3206 1.390 . S
C3206 C3205 1.390 . S
C3206 C3207 1.394 . S
C3206 C3212 1.465 . S
C3207 C3202 1.399 . S
C3207 C3206 1.394 . S
C3207 C3208 1.516 1_655 S
C3208 C3207 1.516 1_455 S
C3208 C3209 1.502 . S
C3208 C3210 1.561 1_455 S
C3208 C3211 1.526 . S
C3209 H3193 0.959 . S
C3209 H3194 0.959 . S
C3209 H3195 0.961 . S
C3209 C3208 1.502 . S
C3210 H3196 0.960 . S
C3210 H3197 0.961 1_655 S
C3210 H3198 0.959 . S
C3210 C3208 1.561 1_655 S
C3211 C3208 1.526 . S
C3211 C3212 1.396 1_455 S
C3211 C3216 1.390 . S
C3212 C3206 1.465 . S
C3212 C3211 1.396 1_655 S
C3212 C3213 1.399 . S
C3213 H3199 0.929 . S
C3213 C3212 1.399 . S
C3213 C3214 1.385 1_655 S
C3214 H3200 0.931 . S
C3214 C3213 1.385 1_455 S
C3214 C3215 1.389 . S
C3215 C3214 1.389 . S
C3215 C3216 1.387 . S
C3216 H3201 0.930 . S
C3216 C3211 1.390 . S
C3216 C3215 1.387 . S
H3217 C3229 0.930 . S
H3218 C3231 0.930 . S
H3219 C3232 0.930 . S
H3220 C3236 0.959 . S
H3221 C3236 0.959 . S
H3222 C3236 0.961 . S
H3223 C3237 0.960 . S
H3224 C3237 0.961 . S
H3225 C3237 0.959 . S
H3226 C3240 0.929 . S
H3227 C3241 0.931 . S
H3228 C3243 0.930 . S
C3229 H3217 0.930 . S
C3229 C3230 1.399 . S
C3229 C3234 1.399 . S
C3230 C3229 1.399 . S
C3230 C3231 1.376 . S
C3231 H3218 0.930 . S
C3231 C3230 1.376 . S
C3231 C3232 1.388 . S
C3232 H3219 0.930 . S
C3232 C3231 1.388 . S
C3232 C3233 1.390 . S
C3233 C3232 1.390 . S
C3233 C3234 1.394 . S
C3233 C3239 1.465 . S
C3234 C3229 1.399 . S
C3234 C3233 1.394 . S
C3234 C3235 1.516 . S
C3235 C3234 1.516 . S
C3235 C3236 1.502 . S
C3235 C3237 1.561 . S
C3235 C3238 1.526 . S
C3236 H3220 0.959 . S
C3236 H3221 0.959 . S
C3236 H3222 0.961 . S
C3236 C3235 1.502 . S
C3237 H3223 0.960 . S
C3237 H3224 0.961 . S
C3237 H3225 0.959 . S
C3237 C3235 1.561 . S
C3238 C3235 1.526 . S
C3238 C3239 1.396 . S
C3238 C3243 1.390 . S
C3239 C3233 1.465 . S
C3239 C3238 1.396 . S
C3239 C3240 1.399 . S
C3240 H3226 0.929 . S
C3240 C3239 1.399 . S
C3240 C3241 1.385 . S
C3241 H3227 0.931 . S
C3241 C3240 1.385 . S
C3241 C3242 1.389 . S
C3242 C3241 1.389 . S
C3242 C3243 1.387 . S
C3243 H3228 0.930 . S
C3243 C3238 1.390 . S
C3243 C3242 1.387 . S
H3244 C3256 0.930 . S
H3245 C3258 0.930 . S
H3246 C3259 0.930 . S
H3247 C3263 0.959 . S
H3248 C3263 0.959 . S
H3249 C3263 0.961 . S
H3250 C3264 0.960 . S
H3251 C3264 0.961 . S
H3252 C3264 0.959 . S
H3253 C3267 0.929 . S
H3254 C3268 0.931 . S
H3255 C3270 0.930 . S
C3256 H3244 0.930 . S
C3256 C3257 1.399 . S
C3256 C3261 1.399 . S
C3257 C3256 1.399 . S
C3257 C3258 1.376 . S
C3258 H3245 0.930 . S
C3258 C3257 1.376 . S
C3258 C3259 1.388 . S
C3259 H3246 0.930 . S
C3259 C3258 1.388 . S
C3259 C3260 1.390 . S
C3260 C3259 1.390 . S
C3260 C3261 1.394 . S
C3260 C3266 1.465 . S
C3261 C3256 1.399 . S
C3261 C3260 1.394 . S
C3261 C3262 1.516 . S
C3262 C3261 1.516 . S
C3262 C3263 1.502 . S
C3262 C3264 1.561 . S
C3262 C3265 1.526 . S
C3263 H3247 0.959 . S
C3263 H3248 0.959 . S
C3263 H3249 0.961 . S
C3263 C3262 1.502 . S
C3264 H3250 0.960 . S
C3264 H3251 0.961 . S
C3264 H3252 0.959 . S
C3264 C3262 1.561 . S
C3265 C3262 1.526 . S
C3265 C3266 1.396 . S
C3265 C3270 1.390 . S
C3266 C3260 1.465 . S
C3266 C3265 1.396 . S
C3266 C3267 1.399 . S
C3267 H3253 0.929 . S
C3267 C3266 1.399 . S
C3267 C3268 1.385 . S
C3268 H3254 0.931 . S
C3268 C3267 1.385 . S
C3268 C3269 1.389 . S
C3269 C3268 1.389 . S
C3269 C3270 1.387 . S
C3270 H3255 0.930 . S
C3270 C3265 1.390 . S
C3270 C3269 1.387 . S
H3271 C3283 0.930 . S
H3272 C3285 0.930 . S
H3273 C3286 0.930 . S
H3274 C3290 0.959 . S
H3275 C3290 0.959 . S
H3276 C3290 0.961 . S
H3277 C3291 0.960 . S
H3278 C3291 0.961 . S
H3279 C3291 0.959 . S
H3280 C3294 0.929 . S
H3281 C3295 0.931 . S
H3282 C3297 0.930 . S
C3283 H3271 0.930 . S
C3283 C3284 1.399 . S
C3283 C3288 1.399 . S
C3284 C3283 1.399 . S
C3284 C3285 1.376 . S
C3285 H3272 0.930 . S
C3285 C3284 1.376 . S
C3285 C3286 1.388 . S
C3286 H3273 0.930 . S
C3286 C3285 1.388 . S
C3286 C3287 1.390 . S
C3287 C3286 1.390 . S
C3287 C3288 1.394 . S
C3287 C3293 1.465 . S
C3288 C3283 1.399 . S
C3288 C3287 1.394 . S
C3288 C3289 1.516 . S
C3289 C3288 1.516 . S
C3289 C3290 1.502 . S
C3289 C3291 1.561 . S
C3289 C3292 1.526 . S
C3290 H3274 0.959 . S
C3290 H3275 0.959 . S
C3290 H3276 0.961 . S
C3290 C3289 1.502 . S
C3291 H3277 0.960 . S
C3291 H3278 0.961 . S
C3291 H3279 0.959 . S
C3291 C3289 1.561 . S
C3292 C3289 1.526 . S
C3292 C3293 1.396 . S
C3292 C3297 1.390 . S
C3293 C3287 1.465 . S
C3293 C3292 1.396 . S
C3293 C3294 1.399 . S
C3294 H3280 0.929 . S
C3294 C3293 1.399 . S
C3294 C3295 1.385 . S
C3295 H3281 0.931 . S
C3295 C3294 1.385 . S
C3295 C3296 1.389 . S
C3296 C3295 1.389 . S
C3296 C3297 1.387 . S
C3297 H3282 0.930 . S
C3297 C3292 1.390 . S
C3297 C3296 1.387 . S
H3298 C3310 0.930 . S
H3299 C3312 0.930 . S
H3300 C3313 0.930 . S
H3301 C3317 0.959 . S
H3302 C3317 0.959 . S
H3303 C3317 0.961 . S
H3304 C3318 0.960 . S
H3305 C3318 0.961 . S
H3306 C3318 0.959 . S
H3307 C3321 0.929 . S
H3308 C3322 0.931 . S
H3309 C3324 0.930 . S
C3310 H3298 0.930 . S
C3310 C3311 1.399 . S
C3310 C3315 1.399 . S
C3311 C3310 1.399 . S
C3311 C3312 1.376 . S
C3312 H3299 0.930 . S
C3312 C3311 1.376 . S
C3312 C3313 1.388 . S
C3313 H3300 0.930 . S
C3313 C3312 1.388 . S
C3313 C3314 1.390 . S
C3314 C3313 1.390 . S
C3314 C3315 1.394 . S
C3314 C3320 1.465 . S
C3315 C3310 1.399 . S
C3315 C3314 1.394 . S
C3315 C3316 1.516 . S
C3316 C3315 1.516 . S
C3316 C3317 1.502 . S
C3316 C3318 1.561 . S
C3316 C3319 1.526 . S
C3317 H3301 0.959 . S
C3317 H3302 0.959 . S
C3317 H3303 0.961 . S
C3317 C3316 1.502 . S
C3318 H3304 0.960 . S
C3318 H3305 0.961 . S
C3318 H3306 0.959 . S
C3318 C3316 1.561 . S
C3319 C3316 1.526 . S
C3319 C3320 1.396 . S
C3319 C3324 1.390 . S
C3320 C3314 1.465 . S
C3320 C3319 1.396 . S
C3320 C3321 1.399 . S
C3321 H3307 0.929 . S
C3321 C3320 1.399 . S
C3321 C3322 1.385 . S
C3322 H3308 0.931 . S
C3322 C3321 1.385 . S
C3322 C3323 1.389 . S
C3323 C3322 1.389 . S
C3323 C3324 1.387 . S
C3324 H3309 0.930 . S
C3324 C3319 1.390 . S
C3324 C3323 1.387 . S
H3325 C3337 0.930 . S
H3326 C3339 0.930 . S
H3327 C3340 0.930 . S
H3328 C3344 0.959 . S
H3329 C3344 0.959 . S
H3330 C3344 0.961 . S
H3331 C3345 0.960 . S
H3332 C3345 0.961 . S
H3333 C3345 0.959 . S
H3334 C3348 0.929 . S
H3335 C3349 0.931 . S
H3336 C3351 0.930 . S
C3337 H3325 0.930 . S
C3337 C3338 1.399 . S
C3337 C3342 1.399 . S
C3338 C3337 1.399 . S
C3338 C3339 1.376 . S
C3339 H3326 0.930 . S
C3339 C3338 1.376 . S
C3339 C3340 1.388 . S
C3340 H3327 0.930 . S
C3340 C3339 1.388 . S
C3340 C3341 1.390 . S
C3341 C3340 1.390 . S
C3341 C3342 1.394 . S
C3341 C3347 1.465 . S
C3342 C3337 1.399 . S
C3342 C3341 1.394 . S
C3342 C3343 1.516 . S
C3343 C3342 1.516 . S
C3343 C3344 1.502 . S
C3343 C3345 1.561 . S
C3343 C3346 1.526 . S
C3344 H3328 0.959 . S
C3344 H3329 0.959 . S
C3344 H3330 0.961 . S
C3344 C3343 1.502 . S
C3345 H3331 0.960 . S
C3345 H3332 0.961 . S
C3345 H3333 0.959 . S
C3345 C3343 1.561 . S
C3346 C3343 1.526 . S
C3346 C3347 1.396 . S
C3346 C3351 1.390 . S
C3347 C3341 1.465 . S
C3347 C3346 1.396 . S
C3347 C3348 1.399 . S
C3348 H3334 0.929 . S
C3348 C3347 1.399 . S
C3348 C3349 1.385 . S
C3349 H3335 0.931 . S
C3349 C3348 1.385 . S
C3349 C3350 1.389 . S
C3350 C3349 1.389 . S
C3350 C3351 1.387 . S
C3351 H3336 0.930 . S
C3351 C3346 1.390 . S
C3351 C3350 1.387 . S
H3352 C3364 0.930 . S
H3353 C3366 0.930 . S
H3354 C3367 0.930 . S
H3355 C3371 0.959 . S
H3356 C3371 0.959 . S
H3357 C3371 0.961 . S
H3358 C3372 0.960 . S
H3359 C3372 0.961 . S
H3360 C3372 0.959 . S
H3361 C3375 0.929 . S
H3362 C3376 0.931 . S
H3363 C3378 0.930 . S
C3364 H3352 0.930 . S
C3364 C3365 1.399 . S
C3364 C3369 1.399 . S
C3365 C3364 1.399 . S
C3365 C3366 1.376 . S
C3366 H3353 0.930 . S
C3366 C3365 1.376 . S
C3366 C3367 1.388 . S
C3367 H3354 0.930 . S
C3367 C3366 1.388 . S
C3367 C3368 1.390 . S
C3368 C3367 1.390 . S
C3368 C3369 1.394 . S
C3368 C3374 1.465 . S
C3369 C3364 1.399 . S
C3369 C3368 1.394 . S
C3369 C3370 1.516 . S
C3370 C3369 1.516 . S
C3370 C3371 1.502 . S
C3370 C3372 1.561 . S
C3370 C3373 1.526 . S
C3371 H3355 0.959 . S
C3371 H3356 0.959 . S
C3371 H3357 0.961 . S
C3371 C3370 1.502 . S
C3372 H3358 0.960 . S
C3372 H3359 0.961 . S
C3372 H3360 0.959 . S
C3372 C3370 1.561 . S
C3373 C3370 1.526 . S
C3373 C3374 1.396 . S
C3373 C3378 1.390 . S
C3374 C3368 1.465 . S
C3374 C3373 1.396 . S
C3374 C3375 1.399 . S
C3375 H3361 0.929 . S
C3375 C3374 1.399 . S
C3375 C3376 1.385 . S
C3376 H3362 0.931 . S
C3376 C3375 1.385 . S
C3376 C3377 1.389 . S
C3377 C3376 1.389 . S
C3377 C3378 1.387 . S
C3378 H3363 0.930 . S
C3378 C3373 1.390 . S
C3378 C3377 1.387 . S
H3379 C3391 0.930 . S
H3380 C3393 0.930 . S
H3381 C3394 0.930 . S
H3382 C3398 0.959 1_565 S
H3383 C3398 0.959 . S
H3384 C3398 0.961 . S
H3385 C3399 0.960 . S
H3386 C3399 0.961 1_545 S
H3387 C3399 0.959 . S
H3388 C3402 0.929 . S
H3389 C3403 0.931 . S
H3390 C3405 0.930 . S
C3391 H3379 0.930 . S
C3391 C3392 1.399 . S
C3391 C3396 1.399 . S
C3392 C3391 1.399 . S
C3392 C3393 1.376 . S
C3393 H3380 0.930 . S
C3393 C3392 1.376 . S
C3393 C3394 1.388 . S
C3394 H3381 0.930 . S
C3394 C3393 1.388 . S
C3394 C3395 1.390 . S
C3395 C3394 1.390 . S
C3395 C3396 1.394 . S
C3395 C3401 1.465 . S
C3396 C3391 1.399 . S
C3396 C3395 1.394 . S
C3396 C3397 1.516 . S
C3397 C3396 1.516 . S
C3397 C3398 1.502 1_565 S
C3397 C3399 1.561 . S
C3397 C3400 1.526 . S
C3398 H3382 0.959 1_545 S
C3398 H3383 0.959 . S
C3398 H3384 0.961 . S
C3398 C3397 1.502 1_545 S
C3399 H3385 0.960 . S
C3399 H3386 0.961 1_565 S
C3399 H3387 0.959 . S
C3399 C3397 1.561 . S
C3400 C3397 1.526 . S
C3400 C3401 1.396 . S
C3400 C3405 1.390 1_565 S
C3401 C3395 1.465 . S
C3401 C3400 1.396 . S
C3401 C3402 1.399 . S
C3402 H3388 0.929 . S
C3402 C3401 1.399 . S
C3402 C3403 1.385 . S
C3403 H3389 0.931 . S
C3403 C3402 1.385 . S
C3403 C3404 1.389 . S
C3404 C3403 1.389 . S
C3404 C3405 1.387 1_565 S
C3405 H3390 0.930 . S
C3405 C3400 1.390 1_545 S
C3405 C3404 1.387 1_545 S
H3406 C3418 0.930 . S
H3407 C3420 0.930 . S
H3408 C3421 0.930 . S
H3409 C3425 0.959 . S
H3410 C3425 0.959 . S
H3411 C3425 0.961 . S
H3412 C3426 0.960 . S
H3413 C3426 0.961 . S
H3414 C3426 0.959 . S
H3415 C3429 0.929 . S
H3416 C3430 0.931 . S
H3417 C3432 0.930 . S
C3418 H3406 0.930 . S
C3418 C3419 1.399 . S
C3418 C3423 1.399 . S
C3419 C3418 1.399 . S
C3419 C3420 1.376 . S
C3420 H3407 0.930 . S
C3420 C3419 1.376 . S
C3420 C3421 1.388 . S
C3421 H3408 0.930 . S
C3421 C3420 1.388 . S
C3421 C3422 1.390 . S
C3422 C3421 1.390 . S
C3422 C3423 1.394 . S
C3422 C3428 1.465 . S
C3423 C3418 1.399 . S
C3423 C3422 1.394 . S
C3423 C3424 1.516 . S
C3424 C3423 1.516 . S
C3424 C3425 1.502 . S
C3424 C3426 1.561 . S
C3424 C3427 1.526 . S
C3425 H3409 0.959 . S
C3425 H3410 0.959 . S
C3425 H3411 0.961 . S
C3425 C3424 1.502 . S
C3426 H3412 0.960 . S
C3426 H3413 0.961 . S
C3426 H3414 0.959 . S
C3426 C3424 1.561 . S
C3427 C3424 1.526 . S
C3427 C3428 1.396 . S
C3427 C3432 1.390 . S
C3428 C3422 1.465 . S
C3428 C3427 1.396 . S
C3428 C3429 1.399 . S
C3429 H3415 0.929 . S
C3429 C3428 1.399 . S
C3429 C3430 1.385 . S
C3430 H3416 0.931 . S
C3430 C3429 1.385 . S
C3430 C3431 1.389 . S
C3431 C3430 1.389 . S
C3431 C3432 1.387 . S
C3432 H3417 0.930 . S
C3432 C3427 1.390 . S
C3432 C3431 1.387 . S
H3433 C3445 0.930 . S
H3434 C3447 0.930 . S
H3435 C3448 0.930 . S
H3436 C3452 0.959 . S
H3437 C3452 0.959 . S
H3438 C3452 0.961 . S
H3439 C3453 0.960 . S
H3440 C3453 0.961 . S
H3441 C3453 0.959 . S
H3442 C3456 0.929 . S
H3443 C3457 0.931 . S
H3444 C3459 0.930 . S
C3445 H3433 0.930 . S
C3445 C3446 1.399 . S
C3445 C3450 1.399 . S
C3446 C3445 1.399 . S
C3446 C3447 1.376 1_554 S
C3447 H3434 0.930 . S
C3447 C3446 1.376 1_556 S
C3447 C3448 1.388 . S
C3448 H3435 0.930 . S
C3448 C3447 1.388 . S
C3448 C3449 1.390 . S
C3449 C3448 1.390 . S
C3449 C3450 1.394 1_556 S
C3449 C3455 1.465 . S
C3450 C3445 1.399 . S
C3450 C3449 1.394 1_554 S
C3450 C3451 1.516 . S
C3451 C3450 1.516 . S
C3451 C3452 1.502 . S
C3451 C3453 1.561 . S
C3451 C3454 1.526 . S
C3452 H3436 0.959 . S
C3452 H3437 0.959 . S
C3452 H3438 0.961 . S
C3452 C3451 1.502 . S
C3453 H3439 0.960 . S
C3453 H3440 0.961 . S
C3453 H3441 0.959 . S
C3453 C3451 1.561 . S
C3454 C3451 1.526 . S
C3454 C3455 1.396 1_554 S
C3454 C3459 1.390 . S
C3455 C3449 1.465 . S
C3455 C3454 1.396 1_556 S
C3455 C3456 1.399 . S
C3456 H3442 0.929 . S
C3456 C3455 1.399 . S
C3456 C3457 1.385 . S
C3457 H3443 0.931 . S
C3457 C3456 1.385 . S
C3457 C3458 1.389 1_556 S
C3458 C3457 1.389 1_554 S
C3458 C3459 1.387 . S
C3459 H3444 0.930 . S
C3459 C3454 1.390 . S
C3459 C3458 1.387 . S
H3460 C3472 0.930 . S
H3461 C3474 0.930 . S
H3462 C3475 0.930 . S
H3463 C3479 0.959 . S
H3464 C3479 0.959 . S
H3465 C3479 0.961 . S
H3466 C3480 0.960 . S
H3467 C3480 0.961 . S
H3468 C3480 0.959 . S
H3469 C3483 0.929 . S
H3470 C3484 0.931 . S
H3471 C3486 0.930 . S
C3472 H3460 0.930 . S
C3472 C3473 1.399 . S
C3472 C3477 1.399 . S
C3473 C3472 1.399 . S
C3473 C3474 1.376 . S
C3474 H3461 0.930 . S
C3474 C3473 1.376 . S
C3474 C3475 1.388 . S
C3475 H3462 0.930 . S
C3475 C3474 1.388 . S
C3475 C3476 1.390 . S
C3476 C3475 1.390 . S
C3476 C3477 1.394 . S
C3476 C3482 1.465 . S
C3477 C3472 1.399 . S
C3477 C3476 1.394 . S
C3477 C3478 1.516 . S
C3478 C3477 1.516 . S
C3478 C3479 1.502 . S
C3478 C3480 1.561 . S
C3478 C3481 1.526 . S
C3479 H3463 0.959 . S
C3479 H3464 0.959 . S
C3479 H3465 0.961 . S
C3479 C3478 1.502 . S
C3480 H3466 0.960 . S
C3480 H3467 0.961 . S
C3480 H3468 0.959 . S
C3480 C3478 1.561 . S
C3481 C3478 1.526 . S
C3481 C3482 1.396 . S
C3481 C3486 1.390 . S
C3482 C3476 1.465 . S
C3482 C3481 1.396 . S
C3482 C3483 1.399 . S
C3483 H3469 0.929 . S
C3483 C3482 1.399 . S
C3483 C3484 1.385 . S
C3484 H3470 0.931 . S
C3484 C3483 1.385 . S
C3484 C3485 1.389 . S
C3485 C3484 1.389 . S
C3485 C3486 1.387 . S
C3486 H3471 0.930 . S
C3486 C3481 1.390 . S
C3486 C3485 1.387 . S
H3487 C3499 0.930 . S
H3488 C3501 0.930 . S
H3489 C3502 0.930 . S
H3490 C3506 0.959 . S
H3491 C3506 0.959 . S
H3492 C3506 0.961 . S
H3493 C3507 0.960 1_554 S
H3494 C3507 0.961 . S
H3495 C3507 0.959 . S
H3496 C3510 0.929 . S
H3497 C3511 0.931 . S
H3498 C3513 0.930 . S
C3499 H3487 0.930 . S
C3499 C3500 1.399 . S
C3499 C3504 1.399 . S
C3500 C3499 1.399 . S
C3500 C3501 1.376 1_554 S
C3501 H3488 0.930 . S
C3501 C3500 1.376 1_556 S
C3501 C3502 1.388 . S
C3502 H3489 0.930 . S
C3502 C3501 1.388 . S
C3502 C3503 1.390 . S
C3503 C3502 1.390 . S
C3503 C3504 1.394 1_556 S
C3503 C3509 1.465 . S
C3504 C3499 1.399 . S
C3504 C3503 1.394 1_554 S
C3504 C3505 1.516 . S
C3505 C3504 1.516 . S
C3505 C3506 1.502 . S
C3505 C3507 1.561 1_554 S
C3505 C3508 1.526 1_554 S
C3506 H3490 0.959 . S
C3506 H3491 0.959 . S
C3506 H3492 0.961 . S
C3506 C3505 1.502 . S
C3507 H3493 0.960 1_556 S
C3507 H3494 0.961 . S
C3507 H3495 0.959 . S
C3507 C3505 1.561 1_556 S
C3508 C3505 1.526 1_556 S
C3508 C3509 1.396 . S
C3508 C3513 1.390 . S
C3509 C3503 1.465 . S
C3509 C3508 1.396 . S
C3509 C3510 1.399 . S
C3510 H3496 0.929 . S
C3510 C3509 1.399 . S
C3510 C3511 1.385 . S
C3511 H3497 0.931 . S
C3511 C3510 1.385 . S
C3511 C3512 1.389 . S
C3512 C3511 1.389 . S
C3512 C3513 1.387 . S
C3513 H3498 0.930 . S
C3513 C3508 1.390 . S
C3513 C3512 1.387 . S
H3514 C3526 0.930 . S
H3515 C3528 0.930 . S
H3516 C3529 0.930 . S
H3517 C3533 0.959 . S
H3518 C3533 0.959 . S
H3519 C3533 0.961 . S
H3520 C3534 0.960 . S
H3521 C3534 0.961 . S
H3522 C3534 0.959 . S
H3523 C3537 0.929 . S
H3524 C3538 0.931 . S
H3525 C3540 0.930 . S
C3526 H3514 0.930 . S
C3526 C3527 1.399 . S
C3526 C3531 1.399 . S
C3527 C3526 1.399 . S
C3527 C3528 1.376 . S
C3528 H3515 0.930 . S
C3528 C3527 1.376 . S
C3528 C3529 1.388 . S
C3529 H3516 0.930 . S
C3529 C3528 1.388 . S
C3529 C3530 1.390 . S
C3530 C3529 1.390 . S
C3530 C3531 1.394 . S
C3530 C3536 1.465 . S
C3531 C3526 1.399 . S
C3531 C3530 1.394 . S
C3531 C3532 1.516 . S
C3532 C3531 1.516 . S
C3532 C3533 1.502 . S
C3532 C3534 1.561 . S
C3532 C3535 1.526 . S
C3533 H3517 0.959 . S
C3533 H3518 0.959 . S
C3533 H3519 0.961 . S
C3533 C3532 1.502 . S
C3534 H3520 0.960 . S
C3534 H3521 0.961 . S
C3534 H3522 0.959 . S
C3534 C3532 1.561 . S
C3535 C3532 1.526 . S
C3535 C3536 1.396 . S
C3535 C3540 1.390 . S
C3536 C3530 1.465 . S
C3536 C3535 1.396 . S
C3536 C3537 1.399 . S
C3537 H3523 0.929 . S
C3537 C3536 1.399 . S
C3537 C3538 1.385 . S
C3538 H3524 0.931 . S
C3538 C3537 1.385 . S
C3538 C3539 1.389 . S
C3539 C3538 1.389 . S
C3539 C3540 1.387 . S
C3540 H3525 0.930 . S
C3540 C3535 1.390 . S
C3540 C3539 1.387 . S
H3541 C3553 0.930 . S
H3542 C3555 0.930 . S
H3543 C3556 0.930 . S
H3544 C3560 0.959 . S
H3545 C3560 0.959 . S
H3546 C3560 0.961 . S
H3547 C3561 0.960 . S
H3548 C3561 0.961 . S
H3549 C3561 0.959 . S
H3550 C3564 0.929 . S
H3551 C3565 0.931 . S
H3552 C3567 0.930 . S
C3553 H3541 0.930 . S
C3553 C3554 1.399 . S
C3553 C3558 1.399 . S
C3554 C3553 1.399 . S
C3554 C3555 1.376 . S
C3555 H3542 0.930 . S
C3555 C3554 1.376 . S
C3555 C3556 1.388 . S
C3556 H3543 0.930 . S
C3556 C3555 1.388 . S
C3556 C3557 1.390 . S
C3557 C3556 1.390 . S
C3557 C3558 1.394 . S
C3557 C3563 1.465 . S
C3558 C3553 1.399 . S
C3558 C3557 1.394 . S
C3558 C3559 1.516 . S
C3559 C3558 1.516 . S
C3559 C3560 1.502 . S
C3559 C3561 1.561 . S
C3559 C3562 1.526 . S
C3560 H3544 0.959 . S
C3560 H3545 0.959 . S
C3560 H3546 0.961 . S
C3560 C3559 1.502 . S
C3561 H3547 0.960 . S
C3561 H3548 0.961 . S
C3561 H3549 0.959 . S
C3561 C3559 1.561 . S
C3562 C3559 1.526 . S
C3562 C3563 1.396 . S
C3562 C3567 1.390 . S
C3563 C3557 1.465 . S
C3563 C3562 1.396 . S
C3563 C3564 1.399 . S
C3564 H3550 0.929 . S
C3564 C3563 1.399 . S
C3564 C3565 1.385 . S
C3565 H3551 0.931 . S
C3565 C3564 1.385 . S
C3565 C3566 1.389 . S
C3566 C3565 1.389 . S
C3566 C3567 1.387 . S
C3567 H3552 0.930 . S
C3567 C3562 1.390 . S
C3567 C3566 1.387 . S
C989 C109 2.188 . S
C1001 C338 2.166 . S
C1016 C61 1.881 . S
C1028 C395 2.073 . S
C1043 C74 1.158 . S
C1055 C418 1.158 . S
C1082 C472 1.374 . S
C1070 C96 1.423 . S
C1097 C25 1.248 1_455 S
C1109 C512 1.166 . S
C1136 C543 0.439 . S
C1124 C40 0.466 . S
C1163 C595 1.414 . S
C1151 C46 1.410 . S
C1178 C5 1.365 . S
C1190 C618 1.663 . S
C1217 C355 2.322 . S
C1205 C229 2.055 . S
C1232 C249 0.436 . S
C1244 C392 0.597 . S
C1271 C435 1.148 . S
C1259 C271 1.041 . S
C1298 C458 1.455 . S
C1286 C172 1.436 . S
C1313 C236 1.846 . S
C1325 C498 1.836 . S
C1352 C546 1.597 . S
C1340 C242 1.582 . S
C1379 C592 0.426 . S
C1367 C278 0.191 . S
C1406 C635 2.078 . S
C1394 C179 2.120 . S
C1433 C352 1.462 1_565 S
C1421 C159 1.174 . S
C1448 C285 1.623 1_554 S
C1460 C675 1.866 . S
C1487 C707 2.522 . S
C1475 C333 2.541 . S
C1514 C738 0.588 1_655 S
C1502 C320 0.588 . S
C1529 C123 1.409 . S
C1541 C632 1.408 . S
C1556 C138 1.584 . S
C1568 C432 1.518 . S
C1583 C326 2.325 . S
C1595 C795 2.308 . S
C1622 C818 0.579 . S
C1610 C298 0.603 . S
C1649 C347 2.122 . S
C1637 C67 2.094 . S
C1676 C826 1.994 . S
C1664 C110 1.997 . S
C1691 C88 1.198 . S
C1703 C427 1.136 . S
C1718 C75 1.156 . S
C1730 C783 1.302 . S
C1757 C503 1.256 . S
C1745 C11 1.166 . S
C1772 C47 0.566 . S
C1784 C712 0.396 . S
C1811 C586 1.198 . S
C1799 C32 1.102 . S
C1838 C867 1.725 . S
C1826 C26 1.798 . S
C1865 C346 2.445 . S
C1853 C152 2.450 . S
C1892 C823 0.440 . S
C1880 C319 0.628 . S
C1907 C124 1.139 . S
C1919 C426 1.129 . S
C1934 C284 1.449 . S
C1946 C787 1.493 . S
C1961 C145 1.724 . S
C1973 C507 1.838 . S
C2000 C715 1.534 . S
C1988 C312 1.477 . S
C2015 C117 0.797 1_565 S
C2027 C583 0.475 . S
C2042 C291 1.994 . S
C2054 C866 2.034 . S
C2069 C194 1.492 . S
C2081 C343 1.528 . S
C2096 C180 1.831 . S
C2108 C666 1.837 . S
C2123 C263 2.423 . S
C2135 C538 2.362 . S
C2150 C243 0.670 . S
C2162 C747 0.533 . S
C2189 C863 1.387 . S
C2177 C277 1.449 . S
C2204 C215 1.389 . S
C2216 C423 1.496 . S
C2243 C466 2.229 . S
C2231 C256 2.160 . S
C2270 C387 0.704 . S
C2258 C200 0.519 . S
C2285 C81 2.188 . S
C2297 C898 2.167 . S
C2324 C835 2.068 . S
C2312 C89 1.823 . S
C2339 C102 1.135 . S
C2351 C938 1.175 . S
C2366 C68 1.404 . S
C2378 C792 1.421 . S
C2393 C53 1.249 . S
C2405 C672 1.158 . S
C2432 C703 0.404 . S
C2420 C12 0.382 . S
C2459 C755 1.414 . S
C2447 C18 1.380 . S
C2486 C858 1.668 . S
C2474 C33 1.336 . S
C2513 C915 2.323 . S
C2501 C257 2.060 . S
C2528 C193 0.451 . S
C2540 C832 0.521 . S
C2567 C955 1.179 . S
C2555 C201 0.979 . S
C2594 C778 1.456 . S
C2582 C214 1.438 . S
C2621 C658 1.829 . S
C2609 C264 1.848 . S
C2636 C186 1.583 . S
C2648 C706 1.599 . S
C2675 C752 0.286 . S
C2663 C208 0.276 . S
C2690 C221 2.121 . S
C2702 C875 2.081 . S
C2729 C912 1.476 . S
C2717 C313 1.079 . S
C2744 C131 1.644 . S
C2756 C515 1.856 . S
C2783 C547 2.521 . S
C2771 C151 2.540 . S
C2810 C578 0.593 . S
C2798 C166 0.616 . S
C2837 C872 1.320 . S
C2825 C305 1.436 . S
C2852 C292 1.572 . S
C2864 C952 1.555 . S
C2891 C475 2.305 . S
C2879 C144 2.311 . S
C2918 C378 0.611 . S
C2906 C116 0.469 . S
C2933 C95 2.135 . S
C2945 C907 2.160 . S
C2972 C386 1.998 . S
C2960 C82 1.989 . S
C2987 C60 1.193 . S
C2999 C947 1.136 . S
C3014 C103 1.211 . S
C3026 C463 1.336 . S
C3041 C39 1.252 . S
C3053 C663 1.177 . S
C3080 C552 0.376 . S
C3068 C19 0.607 . S
C3095 C4 1.067 . S
C3107 C746 1.258 . S
C3122 C54 1.820 . S
C3134 C627 1.734 . S
C3161 C906 2.435 . S
C3149 C334 2.450 . S
C3176 C165 0.602 . S
C3188 C383 0.514 . S
C3215 C946 1.135 . S
C3203 C306 1.138 . S
C3230 C130 1.476 . S
C3242 C467 1.453 . S
C3257 C327 1.740 . S
C3269 C667 1.798 . S
C3296 C555 1.514 . S
C3284 C158 1.525 . S
C3311 C299 0.629 . S
C3323 C743 0.222 . S
C3350 C626 2.002 . S
C3338 C137 2.028 . S
C3377 C903 1.488 . S
C3365 C250 1.501 . S
C3404 C506 1.840 1_665 S
C3392 C222 1.836 . S
C3419 C235 2.423 . S
C3431 C698 2.361 . S
C3458 C587 0.582 . S
C3446 C187 0.555 . S
C3473 C207 1.352 . S
C3485 C623 1.480 . S
C3500 C173 1.465 . S
C3512 C943 1.544 . S
C3539 C786 2.209 . S
C3527 C228 2.186 1_565 S
C3566 C827 0.613 . S
C3554 C270 0.597 . S
