# Generated by pormake.
# Topology ocu, (6,8)-cn, num edge types: 1
# Building blocks:
#     Node 0, Type 0, BuildingBlock: CUWYAW_clean_sbu_0, # of connection points: 6
#     Node 1, Type 0, BuildingBlock: CUWYAW_clean_sbu_0, # of connection points: 6
#     Node 2, Type 0, BuildingBlock: CUWYAW_clean_sbu_0, # of connection points: 6
#     Node 3, Type 0, BuildingBlock: CUWYAW_clean_sbu_0, # of connection points: 6
#     Node 4, Type 0, BuildingBlock: CUWYAW_clean_sbu_0, # of connection points: 6
#     Node 5, Type 0, BuildingBlock: CUWYAW_clean_sbu_0, # of connection points: 6
#     Node 6, Type 0, BuildingBlock: CUWYAW_clean_sbu_0, # of connection points: 6
#     Node 7, Type 0, BuildingBlock: CUWYAW_clean_sbu_0, # of connection points: 6
#     Node 8, Type 1, BuildingBlock: TAGTUT_clean_sbu_1, # of connection points: 8
#     Node 9, Type 1, BuildingBlock: TAGTUT_clean_sbu_1, # of connection points: 8
#     Node 10, Type 1, BuildingBlock: TAGTUT_clean_sbu_1, # of connection points: 8
#     Node 11, Type 1, BuildingBlock: TAGTUT_clean_sbu_1, # of connection points: 8
#     Node 12, Type 1, BuildingBlock: TAGTUT_clean_sbu_1, # of connection points: 8
#     Node 13, Type 1, BuildingBlock: TAGTUT_clean_sbu_1, # of connection points: 8
#     Edge 14, Type (0, 1), None
#     Edge 15, Type (0, 1), None
#     Edge 16, Type (0, 1), None
#     Edge 17, Type (0, 1), None
#     Edge 18, Type (0, 1), None
#     Edge 19, Type (0, 1), None
#     Edge 20, Type (0, 1), None
#     Edge 21, Type (0, 1), None
#     Edge 22, Type (0, 1), None
#     Edge 23, Type (0, 1), None
#     Edge 24, Type (0, 1), None
#     Edge 25, Type (0, 1), None
#     Edge 26, Type (0, 1), None
#     Edge 27, Type (0, 1), None
#     Edge 28, Type (0, 1), None
#     Edge 29, Type (0, 1), None
#     Edge 30, Type (0, 1), None
#     Edge 31, Type (0, 1), None
#     Edge 32, Type (0, 1), None
#     Edge 33, Type (0, 1), None
#     Edge 34, Type (0, 1), None
#     Edge 35, Type (0, 1), None
#     Edge 36, Type (0, 1), None
#     Edge 37, Type (0, 1), None
#     Edge 38, Type (0, 1), None
#     Edge 39, Type (0, 1), None
#     Edge 40, Type (0, 1), None
#     Edge 41, Type (0, 1), None
#     Edge 42, Type (0, 1), None
#     Edge 43, Type (0, 1), None
#     Edge 44, Type (0, 1), None
#     Edge 45, Type (0, 1), None
#     Edge 46, Type (0, 1), None
#     Edge 47, Type (0, 1), None
#     Edge 48, Type (0, 1), None
#     Edge 49, Type (0, 1), None
#     Edge 50, Type (0, 1), None
#     Edge 51, Type (0, 1), None
#     Edge 52, Type (0, 1), None
#     Edge 53, Type (0, 1), None
#     Edge 54, Type (0, 1), None
#     Edge 55, Type (0, 1), None
#     Edge 56, Type (0, 1), None
#     Edge 57, Type (0, 1), None
#     Edge 58, Type (0, 1), None
#     Edge 59, Type (0, 1), None
#     Edge 60, Type (0, 1), None
#     Edge 61, Type (0, 1), None
# Relax obj value: 0.386
# Max RMSD: 0.254
# Mean RMSD: 0.151
data_MOF--net-ocu--node1-CUWYAW_clean_sbu_0--node2-TAGTUT_clean_sbu_1--edge1-none
_symmetry_space_group_name_H-M    P1
_symmetry_Int_Tables_number       1
_symmetry_cell_setting            triclinic
loop_
_symmetry_equiv_pos_as_xyz
'x, y, z'
_cell_length_a     22.546195
_cell_length_b     21.567853
_cell_length_c     19.664309
_cell_angle_alpha  80.211791
_cell_angle_beta   106.67795
_cell_angle_gamma 119.33302
loop_
_atom_site_label
_atom_site_type_symbol
_atom_site_fract_x
_atom_site_fract_y
_atom_site_fract_z
_atom_type_partial_charge
C0 C 0.46689 0.47047 0.45785 0.0
Eu1 Eu 0.38111 0.35787 0.38394 0.0
C2 C 0.46256 0.47549 0.52809 0.0
C3 C 0.47904 0.5418 0.54901 0.0
C4 C 0.42976 0.54786 0.5729 0.0
C5 C 0.3657 0.48705 0.57631 0.0
C6 C 0.35651 0.41979 0.56806 0.0
C7 C 0.40759 0.41406 0.54863 0.0
C8 C 0.4249 0.3758 0.25922 0.0
C9 C 0.24751 0.3753 0.28512 0.0
C10 C 0.20255 0.14173 0.25353 0.0
Eu11 Eu 0.2885 0.25438 0.32733 0.0
C12 C 0.20675 0.13663 0.18324 0.0
C13 C 0.19037 0.0703 0.16244 0.0
C14 C 0.23974 0.06425 0.13871 0.0
C15 C 0.30377 0.12509 0.13528 0.0
C16 C 0.31285 0.19235 0.14333 0.0
C17 C 0.26168 0.19806 0.16261 0.0
C18 C 0.245 0.23674 0.45222 0.0
C19 C 0.42221 0.23706 0.42617 0.0
O20 O 0.4837 0.4223 0.45229 0.0
O21 O 0.41035 0.46399 0.41038 0.0
O22 O 0.46272 0.37972 0.32261 0.0
O23 O 0.36109 0.35053 0.26449 0.0
O24 O 0.29566 0.3964 0.34542 0.0
O25 O 0.2415 0.32155 0.25689 0.0
O26 O 0.1858 0.18992 0.25914 0.0
O27 O 0.25914 0.14822 0.30092 0.0
O28 O 0.20714 0.23309 0.38887 0.0
O29 O 0.30863 0.26151 0.44665 0.0
O30 O 0.37399 0.21587 0.36592 0.0
O31 O 0.42824 0.29084 0.45437 0.0
H32 H 0.52409 0.58935 0.53736 0.0
H33 H 0.43886 0.60029 0.58204 0.0
H34 H 0.30872 0.37192 0.57339 0.0
H35 H 0.3951 0.36271 0.53277 0.0
H36 H 0.14534 1.02275 0.17411 0.0
H37 H 0.23072 1.01182 0.12967 0.0
H38 H 0.3606 0.24023 0.13795 0.0
H39 H 0.27407 0.24944 0.17832 0.0
C40 C 0.89915 0.30268 0.21029 0.0
Eu41 Eu 0.84178 0.28046 0.30617 0.0
C42 C 0.94031 0.37889 0.22076 0.0
C43 C 0.90382 0.41888 0.20234 0.0
C44 C 0.92639 0.47839 0.239 0.0
C45 C 0.99367 0.50911 0.28104 0.0
C46 C 1.03072 0.46944 0.30215 0.0
C47 C 1.00357 0.40411 0.27286 0.0
C48 C 0.70903 0.20092 0.29431 0.0
C49 C 0.7774 0.39932 0.26943 0.0
C50 C 0.77095 0.31014 0.50158 0.0
Eu51 Eu 0.82787 0.33191 0.40555 0.0
C52 C 0.72969 0.23396 0.49088 0.0
C53 C 0.76604 0.19383 0.50934 0.0
C54 C 0.74344 0.13435 0.47261 0.0
C55 C 0.67623 0.10378 0.43041 0.0
C56 C 0.63929 0.14357 0.4093 0.0
C57 C 0.66649 0.20887 0.43868 0.0
C58 C 0.96073 0.41132 0.41677 0.0
C59 C 0.89208 0.21282 0.44203 0.0
O60 O 0.91547 0.2654 0.2645 0.0
O61 O 0.83177 0.28038 0.19022 0.0
O62 O 0.75079 0.17372 0.30076 0.0
O63 O 0.74086 0.26466 0.31442 0.0
O64 O 0.782 0.34694 0.24759 0.0
O65 O 0.80735 0.4166 0.33541 0.0
O66 O 0.75468 0.3476 0.44753 0.0
O67 O 0.83831 0.33233 0.52159 0.0
O68 O 0.91906 0.43869 0.41006 0.0
O69 O 0.92846 0.34728 0.3976 0.0
O70 O 0.88761 0.26529 0.46392 0.0
O71 O 0.86208 0.19557 0.37607 0.0
H72 H 0.85467 0.40143 0.16263 0.0
H73 H 0.89433 0.50456 0.22936 0.0
H74 H 0.08244 0.4907 0.33768 0.0
H75 H 1.03173 0.37334 0.29127 0.0
H76 H 0.81515 0.21118 0.54911 0.0
H77 H 0.77543 0.10812 0.48225 0.0
H78 H 0.58761 0.12241 0.37369 0.0
H79 H 0.63842 0.23973 0.42027 0.0
C80 C 0.83807 0.68456 0.52324 0.0
Eu81 Eu 0.82033 0.74902 0.40598 0.0
C82 C 0.90193 0.67922 0.53547 0.0
C83 C 0.91245 0.65868 0.47753 0.0
C84 C 0.97956 0.6835 0.46938 0.0
C85 C 1.03395 0.7069 0.53002 0.0
C86 C 1.02729 0.73846 0.58233 0.0
C87 C 0.96063 0.72223 0.5866 0.0
C88 C 0.73273 0.70997 0.2821 0.0
C89 C 0.8948 0.7432 0.28092 0.0
C90 C 0.83171 0.92829 0.18804 0.0
Eu91 Eu 0.8493 0.86362 0.30516 0.0
C92 C 0.76779 0.93353 0.1759 0.0
C93 C 0.75735 0.95418 0.23383 0.0
C94 C 0.69026 0.92925 0.24214 0.0
C95 C 0.63577 0.90566 0.18159 0.0
C96 C 0.64237 0.87394 0.12939 0.0
C97 C 0.70903 0.89031 0.12494 0.0
C98 C 0.93655 0.90233 0.42922 0.0
C99 C 0.77469 0.86931 0.43014 0.0
O100 O 0.8517 0.7509 0.52134 0.0
O101 O 0.78743 0.64909 0.4698 0.0
O102 O 0.75059 0.66657 0.32571 0.0
O103 O 0.75085 0.76734 0.31071 0.0
O104 O 0.87108 0.71152 0.3395 0.0
O105 O 0.89987 0.80801 0.26395 0.0
O106 O 0.81815 0.86198 0.18978 0.0
O107 O 0.88233 0.96369 0.24153 0.0
O108 O 0.9187 0.94585 0.38577 0.0
O109 O 0.91865 0.84524 0.40026 0.0
O110 O 0.79841 0.90101 0.37157 0.0
O111 O 0.76967 0.80453 0.44715 0.0
H112 H 0.86886 0.6257 0.43678 0.0
H113 H 0.98542 0.66379 0.42579 0.0
H114 H 0.07073 0.76297 0.62714 0.0
H115 H 0.95488 0.74421 0.62851 0.0
H116 H 0.80098 0.98725 0.27449 0.0
H117 H 0.68445 0.94903 0.28571 0.0
H118 H 0.59884 0.84919 0.08471 0.0
H119 H 0.71471 0.86824 0.08307 0.0
C120 C 0.23988 0.91397 0.28927 0.0
Eu121 Eu 0.29702 0.83194 0.33962 0.0
C122 C 0.26028 0.97723 0.32392 0.0
C123 C 0.20734 0.9921 0.32565 0.0
C124 C 0.2105 1.0176 0.38715 0.0
C125 C 0.26305 1.02127 0.44812 0.0
C126 C 0.31974 1.01439 0.44364 0.0
C127 C 0.32115 0.99784 0.37945 0.0
C128 C 0.23153 0.71664 0.2588 0.0
C129 C 0.25748 0.72108 0.4589 0.0
C130 C 0.43031 0.69902 0.42223 0.0
Eu131 Eu 0.37288 0.78078 0.37176 0.0
C132 C 0.40998 0.63571 0.38769 0.0
C133 C 0.46291 0.62075 0.38615 0.0
C134 C 0.4597 0.59493 0.32481 0.0
C135 C 0.40708 0.59096 0.26381 0.0
C136 C 0.35037 0.59791 0.26816 0.0
C137 C 0.34908 0.6149 0.33219 0.0
C138 C 0.43799 0.89615 0.4526 0.0
C139 C 0.41222 0.89145 0.25224 0.0
O140 O 0.28903 0.9164 0.26558 0.0
O141 O 0.21133 0.85598 0.32713 0.0
O142 O 0.21074 0.72419 0.30947 0.0
O143 O 0.29505 0.76059 0.26717 0.0
O144 O 0.26433 0.78552 0.44356 0.0
O145 O 0.28525 0.70005 0.42365 0.0
O146 O 0.38117 0.69654 0.44597 0.0
O147 O 0.45872 0.75696 0.38426 0.0
O148 O 0.4588 0.88891 0.40177 0.0
O149 O 0.37462 0.85176 0.44421 0.0
O150 O 0.40552 0.82707 0.26777 0.0
O151 O 0.38443 0.91252 0.2874 0.0
H152 H 0.15894 0.97351 0.28505 0.0
H153 H 0.16577 1.02241 0.39061 0.0
H154 H 0.35703 1.01146 0.49118 0.0
H155 H 0.36221 0.98549 0.37906 0.0
H156 H 0.51133 0.63947 0.42672 0.0
H157 H 0.50445 0.59008 0.32145 0.0
H158 H 0.31302 0.60063 0.22058 0.0
H159 H 0.30804 0.62735 0.33243 0.0
C160 C 0.52167 0.89603 0.81233 0.0
Eu161 Eu 0.39396 0.83634 0.82021 0.0
C162 C 0.57407 0.96846 0.82473 0.0
C163 C 0.55249 1.02064 0.82023 0.0
C164 C 0.59238 0.0882 0.79434 0.0
C165 C 0.63909 0.09228 0.75819 0.0
C166 C 0.67783 0.05567 0.79003 0.0
C167 C 0.64136 0.98843 0.81895 0.0
C168 C 0.29009 0.7087 0.77262 0.0
C169 C 0.27386 0.88258 0.75838 0.0
C170 C 0.14764 0.71619 0.89932 0.0
Eu171 Eu 0.27535 0.7758 0.89155 0.0
C172 C 0.09531 0.64376 0.88683 0.0
C173 C 0.11704 0.5917 0.89125 0.0
C174 C 0.07721 0.52406 0.91704 0.0
C175 C 1.03051 0.51986 0.95328 0.0
C176 C 0.99163 0.55633 0.92149 0.0
C177 C 1.02798 0.62362 0.8926 0.0
C178 C 0.37942 0.90353 0.93901 0.0
C179 C 0.3955 0.72959 0.95334 0.0
O180 O 0.50152 0.86129 0.8692 0.0
O181 O 0.47006 0.88679 0.75582 0.0
O182 O 0.32807 0.75694 0.73224 0.0
O183 O 0.31208 0.72865 0.83448 0.0
O184 O 0.3431 0.90928 0.77151 0.0
O185 O 0.23701 0.81938 0.7849 0.0
O186 O 0.16785 0.75097 0.84249 0.0
O187 O 0.1992 0.72543 0.95589 0.0
O188 O 0.34155 0.85536 0.97953 0.0
O189 O 0.35709 0.88333 0.87725 0.0
O190 O 0.32625 0.70288 0.94023 0.0
O191 O 0.43234 0.79279 0.92684 0.0
H192 H 0.49999 1.00658 0.82265 0.0
H193 H 0.56941 0.12386 0.7793 0.0
H194 H 0.72057 0.06361 0.76939 0.0
H195 H 0.65947 0.94936 0.82347 0.0
H196 H 0.16958 0.60589 0.8889 0.0
H197 H 0.10026 0.48847 0.93201 0.0
H198 H 0.9489 0.54827 0.9422 0.0
H199 H 1.00977 0.6626 0.88811 0.0
C200 C 0.45771 0.37718 0.72465 0.0
Eu201 Eu 0.38731 0.35213 0.81562 0.0
C202 C 0.46615 0.32112 0.70159 0.0
C203 C 0.51989 0.30499 0.74013 0.0
C204 C 0.52539 0.24981 0.71985 0.0
C205 C 0.47755 0.21009 0.66031 0.0
C206 C 0.42056 0.22186 0.62553 0.0
C207 C 0.41415 0.27597 0.64712 0.0
C208 C 0.41435 0.40321 0.94169 0.0
C209 C 0.40203 0.21827 0.91453 0.0
C210 C 0.21116 0.23479 0.98648 0.0
Eu211 Eu 0.28189 0.26025 0.89577 0.0
C212 C 0.20293 0.29094 1.00966 0.0
C213 C 0.14922 0.30716 0.97124 0.0
C214 C 0.14394 0.36246 0.99153 0.0
C215 C 0.19195 0.40221 0.05099 0.0
C216 C 0.24893 0.39037 0.08563 0.0
C217 C 0.25514 0.33614 0.064 0.0
C218 C 0.25527 0.2094 0.76957 0.0
C219 C 0.26741 0.39436 0.79705 0.0
O220 O 0.39348 0.36762 0.70663 0.0
O221 O 0.48934 0.39755 0.79021 0.0
O222 O 0.42519 0.44337 0.88427 0.0
O223 O 0.39124 0.33947 0.92853 0.0
O224 O 0.42679 0.27142 0.8688 0.0
O225 O 0.34465 0.20181 0.93391 0.0
O226 O 0.27527 0.244 1.00466 0.0
O227 O 0.17969 0.21477 0.9208 0.0
O228 O 0.24456 0.16916 0.82697 0.0
O229 O 0.27788 0.27293 0.78297 0.0
O230 O 0.24263 0.34119 0.84277 0.0
O231 O 0.32476 0.41077 0.77763 0.0
H232 H 0.55728 0.33421 0.78633 0.0
H233 H 0.56923 0.24051 0.74873 0.0
H234 H 0.38328 0.19193 0.57959 0.0
H235 H 0.36829 0.28238 0.62099 0.0
H236 H 0.1117 0.27793 0.9251 0.0
H237 H 0.10012 0.37184 0.96274 0.0
H238 H 0.28636 0.42035 0.13149 0.0
H239 H 0.30101 0.3297 0.09 0.0
C240 C 0.73817 0.40445 0.77057 0.0
Eu241 Eu 0.80801 0.33416 0.82202 0.0
C242 C 0.74479 0.45764 0.81361 0.0
C243 C 0.68647 0.46485 0.81248 0.0
C244 C 0.68348 0.48826 0.87267 0.0
C245 C 0.73909 0.50498 0.93411 0.0
C246 C 0.8014 0.50815 0.93087 0.0
C247 C 0.80412 0.48499 0.87028 0.0
C248 C 0.79229 0.23392 0.72502 0.0
C249 C 0.71941 0.21108 0.92144 0.0
C250 C 0.93153 0.20785 0.94076 0.0
Eu251 Eu 0.8618 0.27827 0.88935 0.0
C252 C 0.92479 0.1546 0.89769 0.0
C253 C 0.98301 0.14716 0.89887 0.0
C254 C 0.98592 0.12363 0.83871 0.0
C255 C 0.93034 0.10698 0.77724 0.0
C256 C 0.86811 0.104 0.78046 0.0
C257 C 0.86546 0.12729 0.84101 0.0
C258 C 0.87737 0.37858 0.98631 0.0
C259 C 0.95027 0.4013 0.78968 0.0
O260 O 0.795 0.41911 0.75281 0.0
O261 O 0.70966 0.3398 0.797 0.0
O262 O 0.81527 0.3021 0.7184 0.0
O263 O 0.78017 0.22304 0.78754 0.0
O264 O 0.73722 0.2781 0.90285 0.0
O265 O 0.75612 0.18915 0.90152 0.0
O266 O 0.87475 0.1933 0.95858 0.0
O267 O 0.96009 0.27251 0.91434 0.0
O268 O 0.85429 0.31037 0.99287 0.0
O269 O 0.88963 0.38927 0.92385 0.0
O270 O 0.93247 0.33429 0.80837 0.0
O271 O 0.91361 0.42328 0.8096 0.0
H272 H 0.64137 0.44691 0.76793 0.0
H273 H 0.6352 0.48737 0.87345 0.0
H274 H 0.84441 0.52029 0.97743 0.0
H275 H 0.84944 0.48022 0.87059 0.0
H276 H 1.02808 0.16501 0.94344 0.0
H277 H 1.03415 0.12437 0.83797 0.0
H278 H 0.82511 0.0919 0.73389 0.0
H279 H 0.82018 0.13216 0.84068 0.0
C280 C 0.92286 0.96923 0.97303 0.0
Eu281 Eu 0.87898 0.86586 0.88898 0.0
C282 C 0.8799 0.99425 0.99088 0.0
C283 C 0.90733 0.04788 0.03943 0.0
C284 C 0.86286 0.06941 0.05412 0.0
C285 C 0.79125 0.03768 1.01963 0.0
C286 C 0.76473 0.98239 0.97322 0.0
C287 C 0.80835 0.96102 0.95915 0.0
C288 C 0.93704 0.87956 0.77583 0.0
C289 C 0.74716 0.86448 0.76477 0.0
C290 C 0.7464 0.64256 0.73818 0.0
Eu291 Eu 0.79038 0.74609 0.82207 0.0
C292 C 0.78941 0.6176 0.72034 0.0
C293 C 0.76207 0.56409 0.67167 0.0
C294 C 0.80661 0.54267 0.65693 0.0
C295 C 0.8782 0.5744 0.69151 0.0
C296 C 0.90464 0.62956 0.73804 0.0
C297 C 0.86095 0.65084 0.75213 0.0
C298 C 0.73266 0.73279 0.9354 0.0
C299 C 0.92229 0.74754 0.94617 0.0
O300 O 0.9089 0.90436 0.99553 0.0
O301 O 0.92555 0.97902 0.90663 0.0
O302 O 0.97246 0.89746 0.84074 0.0
O303 O 0.87122 0.84976 0.77608 0.0
O304 O 0.80652 0.90384 0.80851 0.0
O305 O 0.72284 0.79571 0.76626 0.0
O306 O 0.76024 0.70738 0.71558 0.0
O307 O 0.7438 0.63289 0.80461 0.0
O308 O 0.69708 0.71502 0.87049 0.0
O309 O 0.79836 0.7621 0.9349 0.0
O310 O 0.86284 0.70814 0.90256 0.0
O311 O 0.94662 0.81631 0.9446 0.0
H312 H 0.96257 0.07302 0.06539 0.0
H313 H 0.88428 0.11063 0.09188 0.0
H314 H 0.70945 0.95366 0.94891 0.0
H315 H 0.78571 0.91737 0.92407 0.0
H316 H 0.70685 0.53896 0.64564 0.0
H317 H 0.78526 0.50155 0.6191 0.0
H318 H 0.9599 0.65826 0.76245 0.0
H319 H 0.88355 0.69444 0.78725 0.0
C320 C 0.94611 0.11045 0.70895 0.0
C321 C 0.93497 0.17917 0.49049 0.0
C322 C 0.97866 0.92175 0.5007 0.0
Mg323 Mg 1.0576 0.18559 0.62318 0.0
O324 O 1.02816 0.09077 0.61423 0.0
Mg325 Mg 0.92818 1.02156 0.57343 0.0
Mg326 Mg 0.08854 0.05174 0.60838 0.0
O327 O 0.1494 1.01411 0.60196 0.0
Mg328 Mg 0.12138 0.92201 0.58601 0.0
Mg329 Mg 0.24983 0.08299 0.64504 0.0
C330 C 0.20442 0.18251 0.70394 0.0
C331 C 0.2146 0.18499 0.51378 0.0
O332 O 0.90346 0.06496 0.66014 0.0
O333 O 1.00674 0.15924 0.70391 0.0
O334 O 0.9143 0.11188 0.48832 0.0
O335 O 0.98988 0.21816 0.53638 0.0
O336 O 0.16896 0.21671 0.67556 0.0
O337 O 0.18297 0.11752 0.69266 0.0
C338 C 0.96537 0.92502 0.71017 0.0
O339 O 1.03114 0.96134 0.70622 0.0
O340 O 0.91997 0.93377 0.65996 0.0
O341 O 0.28406 0.04876 0.56631 0.0
O342 O 0.18252 0.95714 0.5141 0.0
O343 O 0.26129 0.98836 0.71935 0.0
C344 C 0.24424 1.00692 0.5149 0.0
O345 O 0.17797 0.88336 0.67188 0.0
O346 O 1.0141 0.88791 0.52745 0.0
C347 C 0.23575 0.92063 0.71478 0.0
O348 O 0.99401 0.9826 0.52225 0.0
O349 O 0.14806 0.14646 0.51449 0.0
O350 O 0.25878 0.17372 0.5631 0.0
C351 C 0.36111 0.11904 0.1238 0.0
C352 C 0.4448 0.18516 0.95802 0.0
C353 C 0.45038 0.95536 0.96537 0.0
Mg354 Mg 0.5176 0.18776 0.11976 0.0
O355 O 0.49603 0.09506 0.10571 0.0
Mg356 Mg 0.40134 0.0267 0.04876 0.0
Mg357 Mg 0.55894 0.05341 0.10656 0.0
O358 O 0.60149 0.1166 0.03938 0.0
Mg359 Mg 0.58752 1.01944 1.0172 0.0
Mg360 Mg 0.69573 0.13905 0.12796 0.0
C361 C 0.64593 0.17763 0.23451 0.0
C362 C 0.70065 0.18126 0.99158 0.0
O363 O 0.34542 0.06669 0.08878 0.0
O364 O 0.42389 0.16763 0.14598 0.0
O365 O 0.41202 0.11684 0.96255 0.0
O366 O 0.49502 0.22297 1.0086 0.0
O367 O 0.61283 0.21458 0.21093 0.0
O368 O 0.6335 0.12594 0.20021 0.0
C369 C 0.43594 0.93471 0.18963 0.0
O370 O 0.5012 0.97017 0.19048 0.0
O371 O 0.39041 0.94562 0.14093 0.0
O372 O 0.76165 0.10913 0.07259 0.0
O373 O 0.67699 1.01844 1.00618 0.0
O374 O 0.66376 1.0235 0.15712 0.0
C375 C 0.74131 0.05594 1.03442 0.0
O376 O 0.56149 0.94351 0.10071 0.0
O377 O 0.49862 0.96034 0.94167 0.0
C378 C 0.61464 0.95956 0.15133 0.0
O379 O 0.46556 0.99005 1.01837 0.0
O380 O 0.6356 0.1489 1.00367 0.0
O381 O 0.74911 0.17651 0.04137 0.0
C382 C 0.92287 0.71102 0.2365 0.0
C383 C 0.95127 0.71568 1.01039 0.0
C384 C 0.92618 0.42123 0.05584 0.0
Mg385 Mg 1.04311 0.73364 0.15842 0.0
O386 O 1.00493 0.63244 0.15272 0.0
Mg387 Mg 0.90353 0.56851 0.13028 0.0
Mg388 Mg 1.05195 0.56646 0.17465 0.0
O389 O 0.10317 0.50388 0.20019 0.0
Mg390 Mg 0.06629 0.4131 0.16007 0.0
Mg391 Mg 0.19302 0.57057 0.1687 0.0
C392 C 0.18339 0.71409 0.19058 0.0
C393 C 1.06171 0.53487 1.02914 0.0
O394 O 0.8844 0.64958 0.20364 0.0
O395 O 0.98602 0.75012 0.22821 0.0
O396 O 0.91265 0.65201 1.03146 0.0
O397 O 1.00716 0.75853 0.05138 0.0
O398 O 0.15255 0.75195 0.18822 0.0
O399 O 0.15426 0.6578 0.15514 0.0
C400 C 1.0328 0.58635 0.27727 0.0
O401 O 0.09789 0.60922 0.29121 0.0
O402 O 1.00854 0.61879 0.22408 0.0
O403 O 0.2168 0.48739 0.13346 0.0
O404 O 0.10829 0.42088 0.07491 0.0
O405 O 0.22658 0.47327 0.2219 0.0
C406 C 0.17319 0.44368 0.08396 0.0
O407 O 0.13301 0.37001 0.23594 0.0
O408 O 0.96374 0.39055 0.08824 0.0
C409 C 0.2001 0.40882 0.24946 0.0
O410 O 0.94476 0.4877 0.0753 0.0
O411 O 1.02744 0.54542 0.06322 0.0
O412 O 0.12402 0.54451 0.05705 0.0
C413 C 0.42586 0.60509 0.19701 0.0
C414 C 0.43363 0.69155 0.9969 0.0
C415 C 0.46522 0.42997 1.00734 0.0
Mg416 Mg 0.54831 0.69022 0.12539 0.0
O417 O 0.52033 0.59822 0.10933 0.0
Mg418 Mg 0.41984 0.52923 0.06639 0.0
Mg419 Mg 0.58128 0.56068 0.10295 0.0
O420 O 0.64147 0.5215 0.09698 0.0
Mg421 Mg 0.61187 0.42658 0.0882 0.0
Mg422 Mg 0.74142 0.59059 0.13777 0.0
C423 C 0.69112 0.69061 0.21044 0.0
C424 C 0.70437 0.68731 1.00108 0.0
O425 O 0.38587 0.56335 0.14555 0.0
O426 O 0.48755 0.6549 0.19769 0.0
O427 O 0.40817 0.62383 0.99224 0.0
O428 O 0.49144 0.72881 0.03976 0.0
O429 O 0.65582 0.72449 0.18323 0.0
O430 O 0.67588 0.6296 0.18931 0.0
C431 C 0.45522 0.42737 0.19755 0.0
O432 O 0.52176 0.46603 0.19686 0.0
O433 O 0.41097 0.43841 0.14814 0.0
O434 O 0.76606 0.54707 0.05116 0.0
O435 O 0.66274 0.45276 1.0075 0.0
O436 O 0.75529 0.50029 0.22294 0.0
C437 C 0.72337 0.50153 1.00242 0.0
O438 O 0.67955 0.39396 0.17507 0.0
O439 O 0.5005 0.39558 1.0357 0.0
C440 C 0.73452 0.43297 0.2209 0.0
O441 O 0.4869 0.49496 1.01874 0.0
O442 O 0.63862 0.6511 1.0051 0.0
O443 O 0.74973 0.67842 0.05121 0.0
C444 C 0.92822 0.55625 0.6767 0.0
C445 C 1.0551 0.65298 0.56008 0.0
C446 C 1.02374 0.43466 0.47671 0.0
Mg447 Mg 0.08205 0.59284 0.69406 0.0
O448 O 0.06818 0.49581 0.67169 0.0
Mg449 Mg 0.97399 0.47339 0.58307 0.0
Mg450 Mg 0.11071 0.55909 0.60451 0.0
O451 O 0.17364 0.51748 0.6054 0.0
Mg452 Mg 0.1519 0.42461 0.59182 0.0
Mg453 Mg 0.26825 0.58582 0.66245 0.0
C454 C 0.21917 0.6569 0.746 0.0
C455 C 0.23372 0.67774 0.52147 0.0
O456 O 0.90796 0.50314 0.63846 0.0
O457 O 0.99251 0.59374 0.70504 0.0
O458 O 1.00599 0.58903 0.55414 0.0
O459 O 0.10821 0.66895 0.61074 0.0
O460 O 0.17085 0.65162 0.76981 0.0
O461 O 0.20408 0.62267 0.69268 0.0
C462 C 0.96903 0.43106 0.7195 0.0
O463 O 1.03409 0.4635 0.70742 0.0
O464 O 0.92056 0.43576 0.66969 0.0
O465 O 0.32414 0.54566 0.62264 0.0
O466 O 0.24562 0.44451 0.56579 0.0
O467 O 0.25752 0.4958 0.74885 0.0
C468 C 0.3084 0.49315 0.58783 0.0
O469 O 0.17434 0.38962 0.70309 0.0
O470 O 1.05671 0.3976 0.50057 0.0
C471 C 0.22466 0.42749 0.75356 0.0
O472 O 1.03628 0.48653 0.5108 0.0
O473 O 0.16846 0.64237 0.52062 0.0
O474 O 0.27923 0.66679 0.57017 0.0
C475 C 0.49646 0.16869 0.62743 0.0
C476 C 0.46965 0.20358 0.46186 0.0
C477 C 0.48622 0.89854 0.52071 0.0
Mg478 Mg 0.60347 0.19945 0.55145 0.0
O479 O 0.5668 0.10883 0.51129 0.0
Mg480 Mg 0.47687 0.04195 0.54256 0.0
Mg481 Mg 0.61807 0.04631 0.5367 0.0
O482 O 0.66476 0.98009 0.55839 0.0
Mg483 Mg 0.62634 0.87885 0.55256 0.0
Mg484 Mg 0.76611 0.04384 0.58102 0.0
C485 C 0.74361 0.19112 0.65558 0.0
C486 C 0.63701 0.02654 0.43399 0.0
O487 O 0.45295 0.125 0.57788 0.0
O488 O 0.56138 0.19152 0.63661 0.0
O489 O 0.44318 0.13913 0.48943 0.0
O490 O 0.53673 0.24244 0.47546 0.0
O491 O 0.70596 0.22166 0.62309 0.0
O492 O 0.72514 0.12451 0.63662 0.0
C493 C 0.60804 0.07744 0.68229 0.0
O494 O 0.6424 0.06696 0.64825 0.0
O495 O 0.54577 0.06788 0.65429 0.0
O496 O 0.78513 0.96285 0.5075 0.0
O497 O 0.68342 0.8624 0.48275 0.0
O498 O 0.75688 0.96013 0.67964 0.0
C499 C 0.74661 0.90147 0.47454 0.0
O500 O 0.66228 0.8537 0.65956 0.0
O501 O 0.51684 0.86051 0.52288 0.0
C502 C 0.71821 0.89644 0.7006 0.0
O503 O 0.51587 0.95502 0.55596 0.0
O504 O 0.57193 1.00373 0.42002 0.0
O505 O 0.66117 0.9939 0.48704 0.0
loop_
_geom_bond_atom_site_label_1
_geom_bond_atom_site_label_2
_geom_bond_distance
_geom_bond_site_symmetry_2
_ccdc_geom_bond_type
C0 Eu1 2.835 . S
C0 C2 1.500 . S
C0 O20 1.257 . S
C0 O21 1.260 . S
Eu1 C0 2.835 . S
Eu1 O20 2.473 . S
Eu1 O21 2.480 . S
Eu1 O22 2.430 . S
Eu1 O23 2.670 . S
Eu1 O24 2.394 . S
Eu1 O29 2.355 . S
Eu1 O31 2.374 . S
C2 C0 1.500 . S
C2 C3 1.377 . S
C2 C7 1.377 . S
C3 C2 1.377 . S
C3 C4 1.395 . S
C3 H32 0.931 . S
C4 C3 1.395 . S
C4 C5 1.383 . S
C4 H33 0.931 . S
C5 C4 1.383 . S
C5 C6 1.394 . S
C6 C5 1.394 . S
C6 C7 1.378 . S
C6 H34 0.931 . S
C7 C2 1.377 . S
C7 C6 1.378 . S
C7 H35 0.931 . S
C8 O22 1.259 . S
C8 O23 1.270 . S
C9 O24 1.251 . S
C9 O25 1.251 . S
C10 Eu11 2.835 . S
C10 C12 1.500 . S
C10 O26 1.257 . S
C10 O27 1.260 . S
Eu11 C10 2.835 . S
Eu11 O23 2.355 . S
Eu11 O25 2.374 . S
Eu11 O26 2.473 . S
Eu11 O27 2.480 . S
Eu11 O28 2.430 . S
Eu11 O29 2.670 . S
Eu11 O30 2.394 . S
C12 C10 1.500 . S
C12 C13 1.377 . S
C12 C17 1.377 . S
C13 C12 1.377 . S
C13 C14 1.395 1_545 S
C13 H36 0.931 1_545 S
C14 C13 1.395 1_565 S
C14 C15 1.383 1_565 S
C14 H37 0.931 . S
C15 C14 1.383 1_545 S
C15 C16 1.394 . S
C16 C15 1.394 . S
C16 C17 1.378 . S
C16 H38 0.931 . S
C17 C12 1.377 . S
C17 C16 1.378 . S
C17 H39 0.931 . S
C18 O28 1.259 . S
C18 O29 1.270 . S
C19 O30 1.251 . S
C19 O31 1.251 . S
O20 C0 1.257 . S
O20 Eu1 2.473 . S
O21 C0 1.260 . S
O21 Eu1 2.480 . S
O22 Eu1 2.430 . S
O22 C8 1.259 . S
O23 Eu1 2.670 . S
O23 C8 1.270 . S
O23 Eu11 2.355 . S
O24 Eu1 2.394 . S
O24 C9 1.251 . S
O25 C9 1.251 . S
O25 Eu11 2.374 . S
O26 C10 1.257 . S
O26 Eu11 2.473 . S
O27 C10 1.260 . S
O27 Eu11 2.480 . S
O28 Eu11 2.430 . S
O28 C18 1.259 . S
O29 Eu1 2.355 . S
O29 Eu11 2.670 . S
O29 C18 1.270 . S
O30 Eu11 2.394 . S
O30 C19 1.251 . S
O31 Eu1 2.374 . S
O31 C19 1.251 . S
H32 C3 0.931 . S
H33 C4 0.931 . S
H34 C6 0.931 . S
H35 C7 0.931 . S
H36 C13 0.931 1_565 S
H37 C14 0.931 . S
H38 C16 0.931 . S
H39 C17 0.931 . S
C40 Eu41 2.835 . S
C40 C42 1.500 . S
C40 O60 1.257 . S
C40 O61 1.260 . S
Eu41 C40 2.835 . S
Eu41 O60 2.473 . S
Eu41 O61 2.480 . S
Eu41 O62 2.430 . S
Eu41 O63 2.670 . S
Eu41 O64 2.394 . S
Eu41 O69 2.355 . S
Eu41 O71 2.374 . S
C42 C40 1.500 . S
C42 C43 1.377 . S
C42 C47 1.377 . S
C43 C42 1.377 . S
C43 C44 1.395 . S
C43 H72 0.931 . S
C44 C43 1.395 . S
C44 C45 1.383 . S
C44 H73 0.931 . S
C45 C44 1.383 . S
C45 C46 1.394 . S
C46 C45 1.394 . S
C46 C47 1.378 . S
C46 H74 0.931 1_655 S
C47 C42 1.377 . S
C47 C46 1.378 . S
C47 H75 0.931 . S
C48 O62 1.259 . S
C48 O63 1.270 . S
C49 O64 1.251 . S
C49 O65 1.251 . S
C50 Eu51 2.835 . S
C50 C52 1.500 . S
C50 O66 1.257 . S
C50 O67 1.260 . S
Eu51 C50 2.835 . S
Eu51 O63 2.355 . S
Eu51 O65 2.374 . S
Eu51 O66 2.473 . S
Eu51 O67 2.480 . S
Eu51 O68 2.430 . S
Eu51 O69 2.670 . S
Eu51 O70 2.394 . S
C52 C50 1.500 . S
C52 C53 1.377 . S
C52 C57 1.377 . S
C53 C52 1.377 . S
C53 C54 1.395 . S
C53 H76 0.931 . S
C54 C53 1.395 . S
C54 C55 1.383 1_545 S
C54 H77 0.931 . S
C55 C54 1.383 1_565 S
C55 C56 1.394 . S
C56 C55 1.394 . S
C56 C57 1.378 1_565 S
C56 H78 0.931 . S
C57 C52 1.377 . S
C57 C56 1.378 1_545 S
C57 H79 0.931 . S
C58 O68 1.259 . S
C58 O69 1.270 . S
C59 O70 1.251 . S
C59 O71 1.251 . S
O60 C40 1.257 . S
O60 Eu41 2.473 . S
O61 C40 1.260 . S
O61 Eu41 2.480 . S
O62 Eu41 2.430 . S
O62 C48 1.259 . S
O63 Eu41 2.670 . S
O63 C48 1.270 . S
O63 Eu51 2.355 . S
O64 Eu41 2.394 . S
O64 C49 1.251 . S
O65 C49 1.251 . S
O65 Eu51 2.374 . S
O66 C50 1.257 . S
O66 Eu51 2.473 . S
O67 C50 1.260 . S
O67 Eu51 2.480 . S
O68 Eu51 2.430 . S
O68 C58 1.259 . S
O69 Eu41 2.355 . S
O69 Eu51 2.670 . S
O69 C58 1.270 . S
O70 Eu51 2.394 . S
O70 C59 1.251 . S
O71 Eu41 2.374 . S
O71 C59 1.251 . S
H72 C43 0.931 . S
H73 C44 0.931 . S
H74 C46 0.931 1_455 S
H75 C47 0.931 . S
H76 C53 0.931 . S
H77 C54 0.931 . S
H78 C56 0.931 . S
H79 C57 0.931 . S
C80 Eu81 2.835 . S
C80 C82 1.500 . S
C80 O100 1.257 . S
C80 O101 1.260 . S
Eu81 C80 2.835 . S
Eu81 O100 2.473 . S
Eu81 O101 2.480 . S
Eu81 O102 2.430 . S
Eu81 O103 2.670 . S
Eu81 O104 2.394 . S
Eu81 O109 2.355 . S
Eu81 O111 2.374 . S
C82 C80 1.500 . S
C82 C83 1.377 . S
C82 C87 1.377 . S
C83 C82 1.377 . S
C83 C84 1.395 . S
C83 H112 0.931 . S
C84 C83 1.395 . S
C84 C85 1.383 . S
C84 H113 0.931 . S
C85 C84 1.383 . S
C85 C86 1.394 1_655 S
C86 C85 1.394 1_455 S
C86 C87 1.378 1_455 S
C86 H114 0.931 . S
C87 C82 1.377 . S
C87 C86 1.378 1_655 S
C87 H115 0.931 . S
C88 O102 1.259 . S
C88 O103 1.270 . S
C89 O104 1.251 . S
C89 O105 1.251 . S
C90 Eu91 2.835 . S
C90 C92 1.500 . S
C90 O106 1.257 . S
C90 O107 1.260 . S
Eu91 C90 2.835 . S
Eu91 O103 2.355 . S
Eu91 O105 2.374 . S
Eu91 O106 2.473 . S
Eu91 O107 2.480 . S
Eu91 O108 2.430 . S
Eu91 O109 2.670 . S
Eu91 O110 2.394 . S
C92 C90 1.500 . S
C92 C93 1.377 1_565 S
C92 C97 1.377 . S
C93 C92 1.377 1_545 S
C93 C94 1.395 . S
C93 H116 0.931 . S
C94 C93 1.395 . S
C94 C95 1.383 . S
C94 H117 0.931 . S
C95 C94 1.383 . S
C95 C96 1.394 1_545 S
C96 C95 1.394 1_565 S
C96 C97 1.378 . S
C96 H118 0.931 . S
C97 C92 1.377 . S
C97 C96 1.378 . S
C97 H119 0.931 . S
C98 O108 1.259 . S
C98 O109 1.270 . S
C99 O110 1.251 . S
C99 O111 1.251 . S
O100 C80 1.257 . S
O100 Eu81 2.473 . S
O101 C80 1.260 . S
O101 Eu81 2.480 . S
O102 Eu81 2.430 . S
O102 C88 1.259 . S
O103 Eu81 2.670 . S
O103 C88 1.270 . S
O103 Eu91 2.355 . S
O104 Eu81 2.394 . S
O104 C89 1.251 . S
O105 C89 1.251 . S
O105 Eu91 2.374 . S
O106 C90 1.257 . S
O106 Eu91 2.473 . S
O107 C90 1.260 . S
O107 Eu91 2.480 . S
O108 Eu91 2.430 . S
O108 C98 1.259 . S
O109 Eu81 2.355 . S
O109 Eu91 2.670 . S
O109 C98 1.270 . S
O110 Eu91 2.394 . S
O110 C99 1.251 . S
O111 Eu81 2.374 . S
O111 C99 1.251 . S
H112 C83 0.931 . S
H113 C84 0.931 . S
H114 C86 0.931 . S
H115 C87 0.931 . S
H116 C93 0.931 . S
H117 C94 0.931 . S
H118 C96 0.931 . S
H119 C97 0.931 . S
C120 Eu121 2.835 . S
C120 C122 1.500 . S
C120 O140 1.257 . S
C120 O141 1.260 . S
Eu121 C120 2.835 . S
Eu121 O140 2.473 . S
Eu121 O141 2.480 . S
Eu121 O142 2.430 . S
Eu121 O143 2.670 . S
Eu121 O144 2.394 . S
Eu121 O149 2.355 . S
Eu121 O151 2.374 . S
C122 C120 1.500 . S
C122 C123 1.377 . S
C122 C127 1.377 . S
C123 C122 1.377 . S
C123 C124 1.395 . S
C123 H152 0.931 . S
C124 C123 1.395 . S
C124 C125 1.383 . S
C124 H153 0.931 1_455 S
C125 C124 1.383 . S
C125 C126 1.394 . S
C126 C125 1.394 . S
C126 C127 1.378 . S
C126 H154 0.931 . S
C127 C122 1.377 . S
C127 C126 1.378 . S
C127 H155 0.931 . S
C128 O142 1.259 . S
C128 O143 1.270 . S
C129 O144 1.251 . S
C129 O145 1.251 . S
C130 Eu131 2.835 . S
C130 C132 1.500 . S
C130 O146 1.257 . S
C130 O147 1.260 . S
Eu131 C130 2.835 . S
Eu131 O143 2.355 . S
Eu131 O145 2.374 . S
Eu131 O146 2.473 . S
Eu131 O147 2.480 . S
Eu131 O148 2.430 . S
Eu131 O149 2.670 . S
Eu131 O150 2.394 . S
C132 C130 1.500 . S
C132 C133 1.377 . S
C132 C137 1.377 . S
C133 C132 1.377 . S
C133 C134 1.395 . S
C133 H156 0.931 . S
C134 C133 1.395 . S
C134 C135 1.383 . S
C134 H157 0.931 . S
C135 C134 1.383 . S
C135 C136 1.394 . S
C136 C135 1.394 . S
C136 C137 1.378 . S
C136 H158 0.931 . S
C137 C132 1.377 . S
C137 C136 1.378 . S
C137 H159 0.931 . S
C138 O148 1.259 . S
C138 O149 1.270 . S
C139 O150 1.251 . S
C139 O151 1.251 . S
O140 C120 1.257 . S
O140 Eu121 2.473 . S
O141 C120 1.260 . S
O141 Eu121 2.480 . S
O142 Eu121 2.430 . S
O142 C128 1.259 . S
O143 Eu121 2.670 . S
O143 C128 1.270 . S
O143 Eu131 2.355 . S
O144 Eu121 2.394 . S
O144 C129 1.251 . S
O145 C129 1.251 . S
O145 Eu131 2.374 . S
O146 C130 1.257 . S
O146 Eu131 2.473 . S
O147 C130 1.260 . S
O147 Eu131 2.480 . S
O148 Eu131 2.430 . S
O148 C138 1.259 . S
O149 Eu121 2.355 . S
O149 Eu131 2.670 . S
O149 C138 1.270 . S
O150 Eu131 2.394 . S
O150 C139 1.251 . S
O151 Eu121 2.374 . S
O151 C139 1.251 . S
H152 C123 0.931 . S
H153 C124 0.931 1_655 S
H154 C126 0.931 . S
H155 C127 0.931 . S
H156 C133 0.931 . S
H157 C134 0.931 . S
H158 C136 0.931 . S
H159 C137 0.931 . S
C160 Eu161 2.835 . S
C160 C162 1.500 . S
C160 O180 1.257 . S
C160 O181 1.260 . S
Eu161 C160 2.835 . S
Eu161 O180 2.473 . S
Eu161 O181 2.480 . S
Eu161 O182 2.430 . S
Eu161 O183 2.670 . S
Eu161 O184 2.394 . S
Eu161 O189 2.355 . S
Eu161 O191 2.374 . S
C162 C160 1.500 . S
C162 C163 1.377 . S
C162 C167 1.377 1_565 S
C163 C162 1.377 . S
C163 C164 1.395 . S
C163 H192 0.931 . S
C164 C163 1.395 . S
C164 C165 1.383 1_565 S
C164 H193 0.931 . S
C165 C164 1.383 1_545 S
C165 C166 1.394 . S
C166 C165 1.394 . S
C166 C167 1.378 . S
C166 H194 0.931 . S
C167 C162 1.377 1_545 S
C167 C166 1.378 . S
C167 H195 0.931 . S
C168 O182 1.259 . S
C168 O183 1.270 . S
C169 O184 1.251 . S
C169 O185 1.251 . S
C170 Eu171 2.835 . S
C170 C172 1.500 . S
C170 O186 1.257 . S
C170 O187 1.260 . S
Eu171 C170 2.835 . S
Eu171 O183 2.355 . S
Eu171 O185 2.374 . S
Eu171 O186 2.473 . S
Eu171 O187 2.480 . S
Eu171 O188 2.430 . S
Eu171 O189 2.670 . S
Eu171 O190 2.394 . S
C172 C170 1.500 . S
C172 C173 1.377 1_556 S
C172 C177 1.377 . S
C173 C172 1.377 1_554 S
C173 C174 1.395 . S
C173 H196 0.931 . S
C174 C173 1.395 . S
C174 C175 1.383 . S
C174 H197 0.931 . S
C175 C174 1.383 . S
C175 C176 1.394 . S
C176 C175 1.394 . S
C176 C177 1.378 1_554 S
C176 H198 0.931 . S
C177 C172 1.377 . S
C177 C176 1.378 1_556 S
C177 H199 0.931 . S
C178 O188 1.259 . S
C178 O189 1.270 . S
C179 O190 1.251 . S
C179 O191 1.251 . S
O180 C160 1.257 . S
O180 Eu161 2.473 . S
O181 C160 1.260 . S
O181 Eu161 2.480 . S
O182 Eu161 2.430 . S
O182 C168 1.259 . S
O183 Eu161 2.670 . S
O183 C168 1.270 . S
O183 Eu171 2.355 . S
O184 Eu161 2.394 . S
O184 C169 1.251 . S
O185 C169 1.251 . S
O185 Eu171 2.374 . S
O186 C170 1.257 . S
O186 Eu171 2.473 . S
O187 C170 1.260 . S
O187 Eu171 2.480 . S
O188 Eu171 2.430 . S
O188 C178 1.259 . S
O189 Eu161 2.355 . S
O189 Eu171 2.670 . S
O189 C178 1.270 . S
O190 Eu171 2.394 . S
O190 C179 1.251 . S
O191 Eu161 2.374 . S
O191 C179 1.251 . S
H192 C163 0.931 . S
H193 C164 0.931 . S
H194 C166 0.931 . S
H195 C167 0.931 . S
H196 C173 0.931 . S
H197 C174 0.931 . S
H198 C176 0.931 . S
H199 C177 0.931 . S
C200 Eu201 2.835 . S
C200 C202 1.500 . S
C200 O220 1.257 . S
C200 O221 1.260 . S
Eu201 C200 2.835 . S
Eu201 O220 2.473 . S
Eu201 O221 2.480 . S
Eu201 O222 2.430 . S
Eu201 O223 2.670 . S
Eu201 O224 2.394 . S
Eu201 O229 2.355 . S
Eu201 O231 2.374 . S
C202 C200 1.500 . S
C202 C203 1.377 . S
C202 C207 1.377 . S
C203 C202 1.377 . S
C203 C204 1.395 . S
C203 H232 0.931 . S
C204 C203 1.395 . S
C204 C205 1.383 . S
C204 H233 0.931 . S
C205 C204 1.383 . S
C205 C206 1.394 . S
C206 C205 1.394 . S
C206 C207 1.378 . S
C206 H234 0.931 . S
C207 C202 1.377 . S
C207 C206 1.378 . S
C207 H235 0.931 . S
C208 O222 1.259 . S
C208 O223 1.270 . S
C209 O224 1.251 . S
C209 O225 1.251 . S
C210 Eu211 2.835 . S
C210 C212 1.500 . S
C210 O226 1.257 . S
C210 O227 1.260 . S
Eu211 C210 2.835 . S
Eu211 O223 2.355 . S
Eu211 O225 2.374 . S
Eu211 O226 2.473 . S
Eu211 O227 2.480 . S
Eu211 O228 2.430 . S
Eu211 O229 2.670 . S
Eu211 O230 2.394 . S
C212 C210 1.500 . S
C212 C213 1.377 . S
C212 C217 1.377 . S
C213 C212 1.377 . S
C213 C214 1.395 . S
C213 H236 0.931 . S
C214 C213 1.395 . S
C214 C215 1.383 . S
C214 H237 0.931 1_455 S
C215 C214 1.383 . S
C215 C216 1.394 . S
C216 C215 1.394 . S
C216 C217 1.378 . S
C216 H238 0.931 . S
C217 C212 1.377 . S
C217 C216 1.378 . S
C217 H239 0.931 . S
C218 O228 1.259 . S
C218 O229 1.270 . S
C219 O230 1.251 . S
C219 O231 1.251 . S
O220 C200 1.257 . S
O220 Eu201 2.473 . S
O221 C200 1.260 . S
O221 Eu201 2.480 . S
O222 Eu201 2.430 . S
O222 C208 1.259 . S
O223 Eu201 2.670 . S
O223 C208 1.270 . S
O223 Eu211 2.355 . S
O224 Eu201 2.394 . S
O224 C209 1.251 . S
O225 C209 1.251 . S
O225 Eu211 2.374 . S
O226 C210 1.257 . S
O226 Eu211 2.473 . S
O227 C210 1.260 . S
O227 Eu211 2.480 . S
O228 Eu211 2.430 . S
O228 C218 1.259 . S
O229 Eu201 2.355 . S
O229 Eu211 2.670 . S
O229 C218 1.270 . S
O230 Eu211 2.394 . S
O230 C219 1.251 . S
O231 Eu201 2.374 . S
O231 C219 1.251 . S
H232 C203 0.931 . S
H233 C204 0.931 . S
H234 C206 0.931 . S
H235 C207 0.931 . S
H236 C213 0.931 . S
H237 C214 0.931 1_655 S
H238 C216 0.931 . S
H239 C217 0.931 . S
C240 Eu241 2.835 . S
C240 C242 1.500 . S
C240 O260 1.257 . S
C240 O261 1.260 . S
Eu241 C240 2.835 . S
Eu241 O260 2.473 . S
Eu241 O261 2.480 . S
Eu241 O262 2.430 . S
Eu241 O263 2.670 . S
Eu241 O264 2.394 . S
Eu241 O269 2.355 . S
Eu241 O271 2.374 . S
C242 C240 1.500 . S
C242 C243 1.377 . S
C242 C247 1.377 . S
C243 C242 1.377 . S
C243 C244 1.395 . S
C243 H272 0.931 . S
C244 C243 1.395 . S
C244 C245 1.383 . S
C244 H273 0.931 . S
C245 C244 1.383 . S
C245 C246 1.394 . S
C246 C245 1.394 . S
C246 C247 1.378 . S
C246 H274 0.931 . S
C247 C242 1.377 . S
C247 C246 1.378 . S
C247 H275 0.931 . S
C248 O262 1.259 . S
C248 O263 1.270 . S
C249 O264 1.251 . S
C249 O265 1.251 . S
C250 Eu251 2.835 . S
C250 C252 1.500 . S
C250 O266 1.257 . S
C250 O267 1.260 . S
Eu251 C250 2.835 . S
Eu251 O263 2.355 . S
Eu251 O265 2.374 . S
Eu251 O266 2.473 . S
Eu251 O267 2.480 . S
Eu251 O268 2.430 . S
Eu251 O269 2.670 . S
Eu251 O270 2.394 . S
C252 C250 1.500 . S
C252 C253 1.377 1_655 S
C252 C257 1.377 . S
C253 C252 1.377 1_455 S
C253 C254 1.395 . S
C253 H276 0.931 . S
C254 C253 1.395 . S
C254 C255 1.383 . S
C254 H277 0.931 . S
C255 C254 1.383 . S
C255 C256 1.394 1_455 S
C256 C255 1.394 1_655 S
C256 C257 1.378 . S
C256 H278 0.931 . S
C257 C252 1.377 . S
C257 C256 1.378 . S
C257 H279 0.931 . S
C258 O268 1.259 . S
C258 O269 1.270 . S
C259 O270 1.251 . S
C259 O271 1.251 . S
O260 C240 1.257 . S
O260 Eu241 2.473 . S
O261 C240 1.260 . S
O261 Eu241 2.480 . S
O262 Eu241 2.430 . S
O262 C248 1.259 . S
O263 Eu241 2.670 . S
O263 C248 1.270 . S
O263 Eu251 2.355 . S
O264 Eu241 2.394 . S
O264 C249 1.251 . S
O265 C249 1.251 . S
O265 Eu251 2.374 . S
O266 C250 1.257 . S
O266 Eu251 2.473 . S
O267 C250 1.260 . S
O267 Eu251 2.480 . S
O268 Eu251 2.430 . S
O268 C258 1.259 . S
O269 Eu241 2.355 . S
O269 Eu251 2.670 . S
O269 C258 1.270 . S
O270 Eu251 2.394 . S
O270 C259 1.251 . S
O271 Eu241 2.374 . S
O271 C259 1.251 . S
H272 C243 0.931 . S
H273 C244 0.931 . S
H274 C246 0.931 . S
H275 C247 0.931 . S
H276 C253 0.931 . S
H277 C254 0.931 . S
H278 C256 0.931 . S
H279 C257 0.931 . S
C280 Eu281 2.835 . S
C280 C282 1.500 . S
C280 O300 1.257 . S
C280 O301 1.260 . S
Eu281 C280 2.835 . S
Eu281 O300 2.473 . S
Eu281 O301 2.480 . S
Eu281 O302 2.430 . S
Eu281 O303 2.670 . S
Eu281 O304 2.394 . S
Eu281 O309 2.355 . S
Eu281 O311 2.374 . S
C282 C280 1.500 . S
C282 C283 1.377 1_565 S
C282 C287 1.377 . S
C283 C282 1.377 1_545 S
C283 C284 1.395 . S
C283 H312 0.931 . S
C284 C283 1.395 . S
C284 C285 1.383 . S
C284 H313 0.931 . S
C285 C284 1.383 . S
C285 C286 1.394 1_545 S
C286 C285 1.394 1_565 S
C286 C287 1.378 . S
C286 H314 0.931 . S
C287 C282 1.377 . S
C287 C286 1.378 . S
C287 H315 0.931 . S
C288 O302 1.259 . S
C288 O303 1.270 . S
C289 O304 1.251 . S
C289 O305 1.251 . S
C290 Eu291 2.835 . S
C290 C292 1.500 . S
C290 O306 1.257 . S
C290 O307 1.260 . S
Eu291 C290 2.835 . S
Eu291 O303 2.355 . S
Eu291 O305 2.374 . S
Eu291 O306 2.473 . S
Eu291 O307 2.480 . S
Eu291 O308 2.430 . S
Eu291 O309 2.670 . S
Eu291 O310 2.394 . S
C292 C290 1.500 . S
C292 C293 1.377 . S
C292 C297 1.377 . S
C293 C292 1.377 . S
C293 C294 1.395 . S
C293 H316 0.931 . S
C294 C293 1.395 . S
C294 C295 1.383 . S
C294 H317 0.931 . S
C295 C294 1.383 . S
C295 C296 1.394 . S
C296 C295 1.394 . S
C296 C297 1.378 . S
C296 H318 0.931 . S
C297 C292 1.377 . S
C297 C296 1.378 . S
C297 H319 0.931 . S
C298 O308 1.259 . S
C298 O309 1.270 . S
C299 O310 1.251 . S
C299 O311 1.251 . S
O300 C280 1.257 . S
O300 Eu281 2.473 . S
O301 C280 1.260 . S
O301 Eu281 2.480 . S
O302 Eu281 2.430 . S
O302 C288 1.259 . S
O303 Eu281 2.670 . S
O303 C288 1.270 . S
O303 Eu291 2.355 . S
O304 Eu281 2.394 . S
O304 C289 1.251 . S
O305 C289 1.251 . S
O305 Eu291 2.374 . S
O306 C290 1.257 . S
O306 Eu291 2.473 . S
O307 C290 1.260 . S
O307 Eu291 2.480 . S
O308 Eu291 2.430 . S
O308 C298 1.259 . S
O309 Eu281 2.355 . S
O309 Eu291 2.670 . S
O309 C298 1.270 . S
O310 Eu291 2.394 . S
O310 C299 1.251 . S
O311 Eu281 2.374 . S
O311 C299 1.251 . S
H312 C283 0.931 . S
H313 C284 0.931 . S
H314 C286 0.931 . S
H315 C287 0.931 . S
H316 C293 0.931 . S
H317 C294 0.931 . S
H318 C296 0.931 . S
H319 C297 0.931 . S
C320 O332 1.241 . S
C320 O333 1.280 . S
C321 O334 1.277 . S
C321 O335 1.245 . S
C322 O346 1.247 . S
C322 O348 1.289 . S
Mg323 O324 1.926 1_455 S
Mg323 O333 1.984 1_455 S
Mg323 O335 1.988 1_455 S
Mg323 O336 2.061 . S
O324 Mg323 1.926 1_655 S
O324 Mg325 1.986 . S
O324 Mg326 1.917 1_655 S
Mg325 O324 1.986 . S
Mg325 O332 2.042 . S
Mg325 O334 2.041 . S
Mg325 O340 2.038 1_545 S
Mg325 O348 2.238 1_545 S
Mg326 O324 1.917 1_455 S
Mg326 O327 1.917 1_545 S
Mg326 O337 2.106 . S
Mg326 O339 2.079 1_445 S
Mg326 O348 2.106 1_445 S
Mg326 O349 2.079 . S
O327 Mg326 1.917 1_565 S
O327 Mg328 1.926 . S
O327 Mg329 1.986 1_565 S
Mg328 O327 1.926 . S
Mg328 O342 1.984 . S
Mg328 O345 1.988 . S
Mg328 O346 2.061 1_455 S
Mg329 O327 1.986 1_545 S
Mg329 O337 2.238 . S
Mg329 O341 2.042 1_545 S
Mg329 O343 2.041 1_545 S
Mg329 O350 2.038 . S
C330 O336 1.247 . S
C330 O337 1.289 . S
C331 O349 1.245 . S
C331 O350 1.274 . S
O332 C320 1.241 . S
O332 Mg325 2.042 . S
O333 C320 1.280 . S
O333 Mg323 1.984 1_655 S
O334 C321 1.277 . S
O334 Mg325 2.041 . S
O335 C321 1.245 . S
O335 Mg323 1.988 1_655 S
O336 Mg323 2.061 . S
O336 C330 1.247 . S
O337 Mg326 2.106 . S
O337 Mg329 2.238 . S
O337 C330 1.289 . S
C338 O339 1.245 . S
C338 O340 1.274 . S
O339 Mg326 2.079 1_665 S
O339 C338 1.245 . S
O340 Mg325 2.038 1_565 S
O340 C338 1.274 . S
O341 Mg329 2.042 1_565 S
O341 C344 1.241 . S
O342 Mg328 1.984 . S
O342 C344 1.280 . S
O343 Mg329 2.041 1_565 S
O343 C347 1.277 . S
C344 O341 1.241 . S
C344 O342 1.280 . S
O345 Mg328 1.988 . S
O345 C347 1.245 . S
O346 C322 1.247 . S
O346 Mg328 2.061 1_655 S
C347 O343 1.277 . S
C347 O345 1.245 . S
O348 C322 1.289 . S
O348 Mg325 2.238 1_565 S
O348 Mg326 2.106 1_665 S
O349 Mg326 2.079 . S
O349 C331 1.245 . S
O350 Mg329 2.038 . S
O350 C331 1.274 . S
C351 O363 1.241 . S
C351 O364 1.280 . S
C352 O365 1.277 . S
C352 O366 1.245 . S
C353 O377 1.247 . S
C353 O379 1.289 . S
Mg354 O355 1.926 . S
Mg354 O364 1.984 . S
Mg354 O366 1.988 1_554 S
Mg354 O367 2.061 . S
O355 Mg354 1.926 . S
O355 Mg356 1.986 1_554 S
O355 Mg357 1.917 . S
Mg356 O355 1.986 1_556 S
Mg356 O363 2.042 1_556 S
Mg356 O365 2.041 . S
Mg356 O371 2.038 1_546 S
Mg356 O379 2.238 1_545 S
Mg357 O355 1.917 . S
Mg357 O358 1.917 1_544 S
Mg357 O368 2.106 . S
Mg357 O370 2.079 1_545 S
Mg357 O379 2.106 1_544 S
Mg357 O380 2.079 1_554 S
O358 Mg357 1.917 1_566 S
O358 Mg359 1.926 . S
O358 Mg360 1.986 1_566 S
Mg359 O358 1.926 . S
Mg359 O373 1.984 . S
Mg359 O376 1.988 1_556 S
Mg359 O377 2.061 . S
Mg360 O358 1.986 1_544 S
Mg360 O368 2.238 . S
Mg360 O372 2.042 1_554 S
Mg360 O374 2.041 . S
Mg360 O381 2.038 1_554 S
C361 O367 1.247 . S
C361 O368 1.289 . S
C362 O380 1.245 . S
C362 O381 1.274 . S
O363 C351 1.241 . S
O363 Mg356 2.042 1_554 S
O364 C351 1.280 . S
O364 Mg354 1.984 . S
O365 C352 1.277 . S
O365 Mg356 2.041 . S
O366 C352 1.245 . S
O366 Mg354 1.988 1_556 S
O367 Mg354 2.061 . S
O367 C361 1.247 . S
O368 Mg357 2.106 . S
O368 Mg360 2.238 . S
O368 C361 1.289 . S
C369 O370 1.245 . S
C369 O371 1.274 . S
O370 Mg357 2.079 1_565 S
O370 C369 1.245 . S
O371 Mg356 2.038 1_564 S
O371 C369 1.274 . S
O372 Mg360 2.042 1_556 S
O372 C375 1.241 1_545 S
O373 Mg359 1.984 . S
O373 C375 1.280 . S
O374 Mg360 2.041 . S
O374 C378 1.277 1_545 S
C375 O372 1.241 1_565 S
C375 O373 1.280 . S
O376 Mg359 1.988 1_554 S
O376 C378 1.245 . S
O377 C353 1.247 . S
O377 Mg359 2.061 . S
C378 O374 1.277 1_565 S
C378 O376 1.245 . S
O379 C353 1.289 . S
O379 Mg356 2.238 1_565 S
O379 Mg357 2.106 1_566 S
O380 Mg357 2.079 1_556 S
O380 C362 1.245 . S
O381 Mg360 2.038 1_556 S
O381 C362 1.274 . S
C382 O394 1.241 . S
C382 O395 1.280 . S
C383 O396 1.277 . S
C383 O397 1.245 1_556 S
C384 O408 1.247 1_556 S
C384 O410 1.289 1_556 S
Mg385 O386 1.926 1_455 S
Mg385 O395 1.984 1_455 S
Mg385 O397 1.988 1_455 S
Mg385 O398 2.061 . S
O386 Mg385 1.926 1_655 S
O386 Mg387 1.986 . S
O386 Mg388 1.917 1_655 S
Mg387 O386 1.986 . S
Mg387 O394 2.042 . S
Mg387 O396 2.041 1_554 S
Mg387 O402 2.038 . S
Mg387 O410 2.238 . S
Mg388 O386 1.917 1_455 S
Mg388 O389 1.917 . S
Mg388 O399 2.106 . S
Mg388 O401 2.079 1_455 S
Mg388 O410 2.106 1_455 S
Mg388 O411 2.079 . S
O389 Mg388 1.917 . S
O389 Mg390 1.926 . S
O389 Mg391 1.986 . S
Mg390 O389 1.926 . S
Mg390 O404 1.984 . S
Mg390 O407 1.988 . S
Mg390 O408 2.061 1_455 S
Mg391 O389 1.986 . S
Mg391 O399 2.238 . S
Mg391 O403 2.042 . S
Mg391 O405 2.041 . S
Mg391 O412 2.038 . S
C392 O398 1.247 . S
C392 O399 1.289 . S
C393 O411 1.245 . S
C393 O412 1.274 . S
O394 C382 1.241 . S
O394 Mg387 2.042 . S
O395 C382 1.280 . S
O395 Mg385 1.984 1_655 S
O396 C383 1.277 . S
O396 Mg387 2.041 1_556 S
O397 C383 1.245 1_554 S
O397 Mg385 1.988 1_655 S
O398 Mg385 2.061 . S
O398 C392 1.247 . S
O399 Mg388 2.106 . S
O399 Mg391 2.238 . S
O399 C392 1.289 . S
C400 O401 1.245 . S
C400 O402 1.274 . S
O401 Mg388 2.079 1_655 S
O401 C400 1.245 . S
O402 Mg387 2.038 . S
O402 C400 1.274 . S
O403 Mg391 2.042 . S
O403 C406 1.241 . S
O404 Mg390 1.984 . S
O404 C406 1.280 . S
O405 Mg391 2.041 . S
O405 C409 1.277 . S
C406 O403 1.241 . S
C406 O404 1.280 . S
O407 Mg390 1.988 . S
O407 C409 1.245 . S
O408 C384 1.247 1_554 S
O408 Mg390 2.061 1_655 S
C409 O405 1.277 . S
C409 O407 1.245 . S
O410 C384 1.289 1_554 S
O410 Mg387 2.238 . S
O410 Mg388 2.106 1_655 S
O411 Mg388 2.079 . S
O411 C393 1.245 . S
O412 Mg391 2.038 . S
O412 C393 1.274 . S
C413 O425 1.241 . S
C413 O426 1.280 . S
C414 O427 1.277 . S
C414 O428 1.245 . S
C415 O439 1.247 . S
C415 O441 1.289 . S
Mg416 O417 1.926 . S
Mg416 O426 1.984 . S
Mg416 O428 1.988 1_554 S
Mg416 O429 2.061 . S
O417 Mg416 1.926 . S
O417 Mg418 1.986 . S
O417 Mg419 1.917 . S
Mg418 O417 1.986 . S
Mg418 O425 2.042 . S
Mg418 O427 2.041 1_554 S
Mg418 O433 2.038 . S
Mg418 O441 2.238 1_554 S
Mg419 O417 1.917 . S
Mg419 O420 1.917 . S
Mg419 O430 2.106 . S
Mg419 O432 2.079 . S
Mg419 O441 2.106 1_554 S
Mg419 O442 2.079 . S
O420 Mg419 1.917 . S
O420 Mg421 1.926 . S
O420 Mg422 1.986 . S
Mg421 O420 1.926 . S
Mg421 O435 1.984 . S
Mg421 O438 1.988 . S
Mg421 O439 2.061 1_554 S
Mg422 O420 1.986 . S
Mg422 O430 2.238 . S
Mg422 O434 2.042 . S
Mg422 O436 2.041 . S
Mg422 O443 2.038 . S
C423 O429 1.247 . S
C423 O430 1.289 . S
C424 O442 1.245 1_556 S
C424 O443 1.274 1_556 S
O425 C413 1.241 . S
O425 Mg418 2.042 . S
O426 C413 1.280 . S
O426 Mg416 1.984 . S
O427 C414 1.277 . S
O427 Mg418 2.041 1_556 S
O428 C414 1.245 . S
O428 Mg416 1.988 1_556 S
O429 Mg416 2.061 . S
O429 C423 1.247 . S
O430 Mg419 2.106 . S
O430 Mg422 2.238 . S
O430 C423 1.289 . S
C431 O432 1.245 . S
C431 O433 1.274 . S
O432 Mg419 2.079 . S
O432 C431 1.245 . S
O433 Mg418 2.038 . S
O433 C431 1.274 . S
O434 Mg422 2.042 . S
O434 C437 1.241 . S
O435 Mg421 1.984 . S
O435 C437 1.280 . S
O436 Mg422 2.041 . S
O436 C440 1.277 . S
C437 O434 1.241 . S
C437 O435 1.280 . S
O438 Mg421 1.988 . S
O438 C440 1.245 . S
O439 C415 1.247 . S
O439 Mg421 2.061 1_556 S
C440 O436 1.277 . S
C440 O438 1.245 . S
O441 C415 1.289 . S
O441 Mg418 2.238 1_556 S
O441 Mg419 2.106 1_556 S
O442 Mg419 2.079 . S
O442 C424 1.245 1_554 S
O443 Mg422 2.038 . S
O443 C424 1.274 1_554 S
C444 O456 1.241 . S
C444 O457 1.280 1_655 S
C445 O458 1.277 . S
C445 O459 1.245 1_655 S
C446 O470 1.247 . S
C446 O472 1.289 . S
Mg447 O448 1.926 . S
Mg447 O457 1.984 . S
Mg447 O459 1.988 . S
Mg447 O460 2.061 . S
O448 Mg447 1.926 . S
O448 Mg449 1.986 1_455 S
O448 Mg450 1.917 . S
Mg449 O448 1.986 1_655 S
Mg449 O456 2.042 . S
Mg449 O458 2.041 . S
Mg449 O464 2.038 . S
Mg449 O472 2.238 . S
Mg450 O448 1.917 . S
Mg450 O451 1.917 . S
Mg450 O461 2.106 . S
Mg450 O463 2.079 . S
Mg450 O472 2.106 1_455 S
Mg450 O473 2.079 . S
O451 Mg450 1.917 . S
O451 Mg452 1.926 . S
O451 Mg453 1.986 . S
Mg452 O451 1.926 . S
Mg452 O466 1.984 . S
Mg452 O469 1.988 . S
Mg452 O470 2.061 1_455 S
Mg453 O451 1.986 . S
Mg453 O461 2.238 . S
Mg453 O465 2.042 . S
Mg453 O467 2.041 . S
Mg453 O474 2.038 . S
C454 O460 1.247 . S
C454 O461 1.289 . S
C455 O473 1.245 . S
C455 O474 1.274 . S
O456 C444 1.241 . S
O456 Mg449 2.042 . S
O457 C444 1.280 1_455 S
O457 Mg447 1.984 . S
O458 C445 1.277 . S
O458 Mg449 2.041 . S
O459 C445 1.245 1_455 S
O459 Mg447 1.988 . S
O460 Mg447 2.061 . S
O460 C454 1.247 . S
O461 Mg450 2.106 . S
O461 Mg453 2.238 . S
O461 C454 1.289 . S
C462 O463 1.245 1_655 S
C462 O464 1.274 . S
O463 Mg450 2.079 . S
O463 C462 1.245 1_455 S
O464 Mg449 2.038 . S
O464 C462 1.274 . S
O465 Mg453 2.042 . S
O465 C468 1.241 . S
O466 Mg452 1.984 . S
O466 C468 1.280 . S
O467 Mg453 2.041 . S
O467 C471 1.277 . S
C468 O465 1.241 . S
C468 O466 1.280 . S
O469 Mg452 1.988 . S
O469 C471 1.245 . S
O470 C446 1.247 . S
O470 Mg452 2.061 1_655 S
C471 O467 1.277 . S
C471 O469 1.245 . S
O472 C446 1.289 . S
O472 Mg449 2.238 . S
O472 Mg450 2.106 1_655 S
O473 Mg450 2.079 . S
O473 C455 1.245 . S
O474 Mg453 2.038 . S
O474 C455 1.274 . S
C475 O487 1.241 . S
C475 O488 1.280 . S
C476 O489 1.277 . S
C476 O490 1.245 . S
C477 O501 1.247 . S
C477 O503 1.289 . S
Mg478 O479 1.926 . S
Mg478 O488 1.984 . S
Mg478 O490 1.988 . S
Mg478 O491 2.061 . S
O479 Mg478 1.926 . S
O479 Mg480 1.986 1_545 S
O479 Mg481 1.917 . S
Mg480 O479 1.986 1_565 S
Mg480 O487 2.042 1_565 S
Mg480 O489 2.041 1_565 S
Mg480 O495 2.038 . S
Mg480 O503 2.238 . S
Mg481 O479 1.917 . S
Mg481 O482 1.917 1_545 S
Mg481 O492 2.106 . S
Mg481 O494 2.079 1_545 S
Mg481 O503 2.106 1_545 S
Mg481 O504 2.079 . S
O482 Mg481 1.917 1_565 S
O482 Mg483 1.926 . S
O482 Mg484 1.986 1_565 S
Mg483 O482 1.926 . S
Mg483 O497 1.984 . S
Mg483 O500 1.988 . S
Mg483 O501 2.061 . S
Mg484 O482 1.986 1_545 S
Mg484 O492 2.238 . S
Mg484 O496 2.042 1_545 S
Mg484 O498 2.041 1_545 S
Mg484 O505 2.038 . S
C485 O491 1.247 . S
C485 O492 1.289 . S
C486 O504 1.245 . S
C486 O505 1.274 . S
O487 C475 1.241 . S
O487 Mg480 2.042 1_545 S
O488 C475 1.280 . S
O488 Mg478 1.984 . S
O489 C476 1.277 . S
O489 Mg480 2.041 1_545 S
O490 C476 1.245 . S
O490 Mg478 1.988 . S
O491 Mg478 2.061 . S
O491 C485 1.247 . S
O492 Mg481 2.106 . S
O492 Mg484 2.238 . S
O492 C485 1.289 . S
C493 O494 1.245 . S
C493 O495 1.274 . S
O494 Mg481 2.079 1_565 S
O494 C493 1.245 . S
O495 Mg480 2.038 . S
O495 C493 1.274 . S
O496 Mg484 2.042 1_565 S
O496 C499 1.241 . S
O497 Mg483 1.984 . S
O497 C499 1.280 . S
O498 Mg484 2.041 1_565 S
O498 C502 1.277 . S
C499 O496 1.241 . S
C499 O497 1.280 . S
O500 Mg483 1.988 . S
O500 C502 1.245 . S
O501 C477 1.247 . S
O501 Mg483 2.061 . S
C502 O498 1.277 . S
C502 O500 1.245 . S
O503 C477 1.289 . S
O503 Mg480 2.238 . S
O503 Mg481 2.106 1_565 S
O504 Mg481 2.079 . S
O504 C486 1.245 . S
O505 Mg484 2.038 . S
O505 C486 1.274 . S
C331 C18 4.223 . S
C321 C59 3.054 . S
C322 C98 1.446 . S
C125 C344 1.101 . S
C169 C347 3.235 . S
C330 C218 1.584 . S
C255 C320 2.777 1_455 S
C288 C338 4.235 . S
C351 C15 2.753 . S
C45 C400 2.783 . S
C378 C95 1.482 1_565 S
C392 C128 0.545 . S
C178 C353 1.133 . S
C406 C215 2.349 1_554 S
C249 C362 3.539 . S
C299 C383 2.718 . S
C9 C409 3.749 . S
C175 C393 2.574 . S
C352 C209 1.655 . S
C384 C258 2.542 . S
C285 C375 2.356 1_545 S
C89 C382 4.597 . S
C369 C139 4.452 . S
C48 C361 2.313 . S
C298 C424 4.235 . S
C179 C414 3.236 . S
C415 C208 1.584 . S
C437 C245 2.777 1_554 S
C49 C440 3.055 . S
C423 C88 1.447 . S
C135 C413 1.101 . S
C8 C431 4.223 . S
C295 C444 2.356 . S
C493 C165 2.574 1_565 S
C219 C471 1.655 . S
C248 C485 2.542 . S
C446 C58 2.315 . S
C99 C499 4.597 . S
C455 C129 4.454 . S
C476 C19 3.748 . S
C502 C289 2.718 . S
C55 C486 2.783 1_565 S
C85 C445 1.481 . S
C477 C138 0.545 . S
C5 C468 2.754 . S
C205 C475 2.349 . S
C462 C259 3.538 . S
C454 C168 1.134 . S
