# Generated by pormake.
# Topology zzz, (3,6)-cn, num edge types: 1
# Building blocks:
#     Node 0, Type 0, BuildingBlock: WUSLED_clean_sbu_0, # of connection points: 3
#     Node 1, Type 0, BuildingBlock: WUSLED_clean_sbu_0, # of connection points: 3
#     Node 2, Type 0, BuildingBlock: WUSLED_clean_sbu_0, # of connection points: 3
#     Node 3, Type 0, BuildingBlock: WUSLED_clean_sbu_0, # of connection points: 3
#     Node 4, Type 0, BuildingBlock: WUSLED_clean_sbu_0, # of connection points: 3
#     Node 5, Type 0, BuildingBlock: WUSLED_clean_sbu_0, # of connection points: 3
#     Node 6, Type 0, BuildingBlock: WUSLED_clean_sbu_0, # of connection points: 3
#     Node 7, Type 0, BuildingBlock: WUSLED_clean_sbu_0, # of connection points: 3
#     Node 8, Type 1, BuildingBlock: PAMTOO_clean_sbu_0, # of connection points: 6
#     Node 9, Type 1, BuildingBlock: PAMTOO_clean_sbu_0, # of connection points: 6
#     Node 10, Type 1, BuildingBlock: PAMTOO_clean_sbu_0, # of connection points: 6
#     Node 11, Type 1, BuildingBlock: PAMTOO_clean_sbu_0, # of connection points: 6
#     Edge 12, Type (0, 1), BuildingBlock: CIFDUS_clean_linker_0, # of connection points: 2
#     Edge 13, Type (0, 1), BuildingBlock: CIFDUS_clean_linker_0, # of connection points: 2
#     Edge 14, Type (0, 1), BuildingBlock: CIFDUS_clean_linker_0, # of connection points: 2
#     Edge 15, Type (0, 1), BuildingBlock: CIFDUS_clean_linker_0, # of connection points: 2
#     Edge 16, Type (0, 1), BuildingBlock: CIFDUS_clean_linker_0, # of connection points: 2
#     Edge 17, Type (0, 1), BuildingBlock: CIFDUS_clean_linker_0, # of connection points: 2
#     Edge 18, Type (0, 1), BuildingBlock: CIFDUS_clean_linker_0, # of connection points: 2
#     Edge 19, Type (0, 1), BuildingBlock: CIFDUS_clean_linker_0, # of connection points: 2
#     Edge 20, Type (0, 1), BuildingBlock: CIFDUS_clean_linker_0, # of connection points: 2
#     Edge 21, Type (0, 1), BuildingBlock: CIFDUS_clean_linker_0, # of connection points: 2
#     Edge 22, Type (0, 1), BuildingBlock: CIFDUS_clean_linker_0, # of connection points: 2
#     Edge 23, Type (0, 1), BuildingBlock: CIFDUS_clean_linker_0, # of connection points: 2
#     Edge 24, Type (0, 1), BuildingBlock: CIFDUS_clean_linker_0, # of connection points: 2
#     Edge 25, Type (0, 1), BuildingBlock: CIFDUS_clean_linker_0, # of connection points: 2
#     Edge 26, Type (0, 1), BuildingBlock: CIFDUS_clean_linker_0, # of connection points: 2
#     Edge 27, Type (0, 1), BuildingBlock: CIFDUS_clean_linker_0, # of connection points: 2
#     Edge 28, Type (0, 1), BuildingBlock: CIFDUS_clean_linker_0, # of connection points: 2
#     Edge 29, Type (0, 1), BuildingBlock: CIFDUS_clean_linker_0, # of connection points: 2
#     Edge 30, Type (0, 1), BuildingBlock: CIFDUS_clean_linker_0, # of connection points: 2
#     Edge 31, Type (0, 1), BuildingBlock: CIFDUS_clean_linker_0, # of connection points: 2
#     Edge 32, Type (0, 1), BuildingBlock: CIFDUS_clean_linker_0, # of connection points: 2
#     Edge 33, Type (0, 1), BuildingBlock: CIFDUS_clean_linker_0, # of connection points: 2
#     Edge 34, Type (0, 1), BuildingBlock: CIFDUS_clean_linker_0, # of connection points: 2
#     Edge 35, Type (0, 1), BuildingBlock: CIFDUS_clean_linker_0, # of connection points: 2
# Relax obj value: 0.336
# Max RMSD: 0.270
# Mean RMSD: 0.213
data_MOF--net-zzz--node1-WUSLED_clean_sbu_0--node2-PAMTOO_clean_sbu_0--edge1-CIFDUS_clean_linker_0
_symmetry_space_group_name_H-M    P1
_symmetry_Int_Tables_number       1
_symmetry_cell_setting            triclinic
loop_
_symmetry_equiv_pos_as_xyz
'x, y, z'
_cell_length_a     62.073362
_cell_length_b     54.071655
_cell_length_c     20.066174
_cell_angle_alpha  91.532612
_cell_angle_beta   82.134781
_cell_angle_gamma 84.745675
loop_
_atom_site_label
_atom_site_type_symbol
_atom_site_fract_x
_atom_site_fract_y
_atom_site_fract_z
_atom_type_partial_charge
C0 C 0.82009 0.51405 0.5588 0.0
C1 C 0.83991 0.51186 0.51466 0.0
C2 C 0.86051 0.51322 0.60973 0.0
C3 C 0.85993 0.51185 0.5399 0.0
C4 C 0.8407 0.51545 0.65361 0.0
C5 C 0.82073 0.51605 0.62837 0.0
U6 U 0.77696 0.52856 0.43763 0.0
O7 O 0.75498 0.50248 0.40564 0.0
O8 O 0.74115 0.53748 0.45929 0.0
C9 C 0.73732 0.51763 0.42507 0.0
C10 C 0.79863 0.51273 0.53479 0.0
C11 C 0.7221 0.52146 0.37471 0.0
C12 C 0.68473 0.52513 0.34957 0.0
C13 C 0.69956 0.52412 0.39632 0.0
C14 C 0.71479 0.52155 0.2583 0.0
C15 C 0.6921 0.52329 0.27982 0.0
C16 C 0.72963 0.52072 0.30522 0.0
C17 C 0.81946 0.56125 0.33048 0.0
C18 C 0.84921 0.56791 0.24413 0.0
C19 C 0.85676 0.55398 0.35333 0.0
C20 C 0.83438 0.55522 0.3754 0.0
C21 C 0.86428 0.55926 0.28652 0.0
C22 C 0.82688 0.56871 0.26594 0.0
C23 C 0.79713 0.55465 0.34499 0.0
O24 O 0.78541 0.53335 0.54031 0.0
O25 O 0.79849 0.49988 0.4783 0.0
O26 O 0.79564 0.53068 0.33768 0.0
O27 O 0.78547 0.56485 0.40014 0.0
H28 H 0.83999 0.50968 0.46085 0.0
H29 H 0.87498 0.50988 0.50498 0.0
H30 H 0.84067 0.51661 0.70761 0.0
H31 H 0.80572 0.51755 0.66347 0.0
H32 H 0.66743 0.52704 0.36831 0.0
H33 H 0.69338 0.52484 0.44959 0.0
H34 H 0.72118 0.51989 0.20523 0.0
H35 H 0.74699 0.51874 0.28712 0.0
H36 H 0.85462 0.57175 0.1921 0.0
H37 H 0.86812 0.54727 0.38677 0.0
H38 H 0.82868 0.5497 0.42566 0.0
H39 H 0.81549 0.57321 0.23067 0.0
C40 C 0.98908 0.77716 0.50794 0.0
C41 C 1.00907 0.78756 0.49344 0.0
C42 C 0.99342 0.82591 0.55597 0.0
C43 C 1.01125 0.81172 0.51756 0.0
C44 C 0.97356 0.81524 0.57042 0.0
C45 C 0.97145 0.79119 0.54669 0.0
U46 U 0.99938 0.72118 0.37959 0.0
O47 O 0.97432 0.69886 0.34866 0.0
O48 O 1.00139 0.68087 0.39499 0.0
C49 C 0.9846 0.6778 0.36307 0.0
C50 C 0.98585 0.75191 0.48369 0.0
C51 C 0.98808 0.65862 0.30804 0.0
C52 C 0.97414 0.62532 0.24776 0.0
C53 C 0.97199 0.64243 0.30236 0.0
C54 C 1.00876 0.64013 0.2041 0.0
C55 C 0.99248 0.62402 0.1976 0.0
C56 C 1.00652 0.65735 0.25859 0.0
C57 C 0.03846 0.75849 0.26937 0.0
C58 C 0.06609 0.77854 0.19957 0.0
C59 C 0.03746 0.80341 0.27317 0.0
C60 C 0.02892 0.78175 0.29656 0.0
C61 C 0.05566 0.80199 0.22262 0.0
C62 C 0.05746 0.75694 0.22261 0.0
C63 C 0.02766 0.73596 0.28376 0.0
O64 O 0.97567 0.75078 0.43058 0.0
O65 O 1.00233 0.73467 0.48221 0.0
O66 O 0.03353 0.72329 0.33438 0.0
O67 O 1.00646 0.7383 0.28248 0.0
H68 H 0.02291 0.7771 0.46329 0.0
H69 H 0.02671 0.81947 0.50508 0.0
H70 H 0.95961 0.82546 0.6006 0.0
H71 H 0.95592 0.78351 0.55862 0.0
H72 H 0.96111 0.61355 0.24404 0.0
H73 H 0.95751 0.64335 0.33957 0.0
H74 H 0.02326 0.63946 0.1671 0.0
H75 H 0.01905 0.66986 0.26169 0.0
H76 H 0.08036 0.77689 0.1615 0.0
H77 H 0.02897 0.82119 0.29155 0.0
H78 H 1.01425 0.78321 0.33309 0.0
H79 H 0.06505 0.73906 0.20163 0.0
C80 C 0.73109 0.99558 0.43375 0.0
C81 C 0.72211 0.01299 0.48577 0.0
C82 C 0.68619 0.99716 0.49102 0.0
C83 C 0.70002 0.01382 0.51391 0.0
C84 C 0.69522 0.97982 0.4385 0.0
C85 C 0.7173 0.97904 0.41032 0.0
U86 U 0.78112 0.99795 0.29446 0.0
O87 O 0.81219 0.01394 0.30022 0.0
O88 O 0.81243 0.97418 0.27545 0.0
C89 C 0.82412 0.99318 0.27849 0.0
C90 C 0.75502 0.99395 0.40835 0.0
C91 C 0.84192 0.99504 0.22134 0.0
C92 C 0.8763 0.97757 0.15559 0.0
C93 C 0.85903 0.97592 0.20793 0.0
C94 C 0.8598 0.01768 0.12904 0.0
C95 C 0.877 0.99851 0.11521 0.0
C96 C 0.84247 0.01591 0.18098 0.0
C97 C 0.73919 0.01222 0.17877 0.0
C98 C 0.71241 0.02507 0.10701 0.0
C99 C 0.70066 0.01374 0.22169 0.0
C100 C 0.72244 0.00894 0.23132 0.0
C101 C 0.69552 0.02205 0.15957 0.0
C102 C 0.73414 0.02019 0.11665 0.0
C103 C 0.76196 0.00799 0.18898 0.0
O104 O 0.76333 0.97485 0.36798 0.0
O105 O 0.76314 0.01476 0.39013 0.0
O106 O 0.76855 0.0252 0.22675 0.0
O107 O 0.7682 0.98522 0.20438 0.0
H108 H 0.73229 0.02589 0.50532 0.0
H109 H 0.69379 0.02771 0.55337 0.0
H110 H 0.68537 0.96638 0.41986 0.0
H111 H 0.72358 0.96523 0.37069 0.0
H112 H 0.88894 0.96222 0.14635 0.0
H113 H 0.85905 0.95961 0.23814 0.0
H114 H 0.85978 0.03434 0.10034 0.0
H115 H 0.82961 0.03105 0.18976 0.0
H116 H 0.70881 0.03108 0.05831 0.0
H117 H 0.6879 0.0114 0.26297 0.0
H118 H 0.72626 1.0029 0.27973 0.0
H119 H 0.74698 0.02275 0.0758 0.0
C120 C 0.54852 0.72344 0.42863 0.0
C121 C 0.55672 0.69982 0.40002 0.0
C122 C 0.54366 0.68037 0.50433 0.0
C123 C 0.55444 0.67849 0.43773 0.0
C124 C 0.53583 0.7041 0.53289 0.0
C125 C 0.53826 0.72536 0.49548 0.0
U126 U 0.54648 0.75654 0.26393 0.0
O127 O 0.53115 0.7935 0.24502 0.0
O128 O 0.56666 0.78495 0.2184 0.0
C129 C 0.54971 0.80142 0.21835 0.0
C130 C 0.54978 0.74619 0.38945 0.0
C131 C 0.54932 0.81711 0.15914 0.0
C132 C 0.56165 0.85361 0.10258 0.0
C133 C 0.56319 0.83622 0.15244 0.0
C134 C 0.5327 0.8326 0.06322 0.0
C135 C 0.54613 0.85233 0.05798 0.0
C136 C 0.53422 0.81518 0.11351 0.0
C137 C 0.53691 0.70488 0.12681 0.0
C138 C 0.51457 0.69492 0.04111 0.0
C139 C 0.54368 0.6651 0.06592 0.0
C140 C 0.54911 0.68185 0.11309 0.0
C141 C 0.5261 0.67113 0.02992 0.0
C142 C 0.51982 0.71163 0.08974 0.0
C143 C 0.54018 0.7187 0.18792 0.0
O144 O 0.56678 0.74646 0.34265 0.0
O145 O 0.5314 0.75513 0.36962 0.0
O146 O 0.52403 0.73381 0.21992 0.0
O147 O 0.55981 0.72482 0.19466 0.0
H148 H 0.56456 0.69779 0.34825 0.0
H149 H 0.56042 0.66047 0.41408 0.0
H150 H 0.52761 0.70622 0.58422 0.0
H151 H 0.53181 0.74335 0.51853 0.0
H152 H 0.57251 0.86823 0.0994 0.0
H153 H 0.57491 0.83814 0.1872 0.0
H154 H 0.52049 0.83111 0.02997 0.0
H155 H 0.52324 0.80067 0.11781 0.0
H156 H 0.50112 0.70037 0.01384 0.0
H157 H 0.55263 0.64685 0.06091 0.0
H158 H 0.56206 0.67607 0.14217 0.0
H159 H 0.51003 0.72929 0.1001 0.0
C160 C 0.22436 0.48589 0.93305 0.0
C161 C 0.2119 0.46569 0.94655 0.0
C162 C 0.18163 0.48662 0.89707 0.0
C163 C 0.19077 0.4661 0.92902 0.0
C164 C 0.19427 0.50666 0.88294 0.0
C165 C 0.21534 0.50629 0.90085 0.0
U166 U 0.26618 0.47635 0.05774 0.0
O167 O 0.29213 0.49979 0.07472 0.0
O168 O 0.30061 0.46046 0.04401 0.0
C169 C 0.30747 0.48111 0.06578 0.0
C170 C 0.24672 0.48615 0.95152 0.0
C171 C 0.32155 0.47867 0.1194 0.0
C172 C 0.35794 0.47659 0.15221 0.0
C173 C 0.34427 0.4774 0.10216 0.0
C174 C 0.32631 0.47799 0.23792 0.0
C175 C 0.34918 0.47705 0.22085 0.0
C176 C 0.31263 0.47874 0.18768 0.0
C177 C 0.21773 0.46109 0.17592 0.0
C178 C 0.18568 0.4553 0.25448 0.0
C179 C 0.18183 0.47311 0.14644 0.0
C180 C 0.20444 0.47061 0.12968 0.0
C181 C 0.17232 0.46642 0.21013 0.0
C182 C 0.20832 0.45266 0.23734 0.0
C183 C 0.24118 0.46285 0.16328 0.0
O184 O 0.2492 0.50321 0.99702 0.0
O185 O 0.25729 0.46449 0.96007 0.0
O186 O 0.25215 0.44678 0.11793 0.0
O187 O 0.24639 0.4857 0.15553 0.0
H188 H 0.21838 0.44964 0.97121 0.0
H189 H 0.18165 0.45021 0.94007 0.0
H190 H 0.18772 0.52289 0.8592 0.0
H191 H 0.2246 0.52208 0.88976 0.0
H192 H 0.3754 0.47621 0.13704 0.0
H193 H 0.35145 0.47745 0.04983 0.0
H194 H 0.31899 0.47804 0.29011 0.0
H195 H 0.2951 0.47967 0.20214 0.0
H196 H 0.17879 0.45034 0.30431 0.0
H197 H 0.17188 0.48163 0.11132 0.0
H198 H 0.21162 0.47752 0.08249 0.0
H199 H 0.21849 0.44541 0.27353 0.0
C200 C 0.04318 0.23749 0.99585 0.0
C201 C 0.04067 0.21859 0.04209 0.0
C202 C 0.0382 0.1884 0.95115 0.0
C203 C 0.03799 0.1944 0.02012 0.0
C204 C 0.0404 0.20757 0.90524 0.0
C205 C 0.04277 0.23183 0.92746 0.0
U206 U 0.03843 0.29276 0.12473 0.0
O207 O 0.0342 0.33305 0.11002 0.0
O208 O 0.06416 0.31631 0.14378 0.0
C209 C 0.05225 0.33696 0.13453 0.0
C210 C 0.04738 0.2628 0.01703 0.0
C211 C 0.04978 0.35564 0.19053 0.0
C212 C 0.05789 0.39536 0.23561 0.0
C213 C 0.05965 0.37783 0.18205 0.0
C214 C 0.03629 0.36867 0.30692 0.0
C215 C 0.0462 0.39101 0.2988 0.0
C216 C 0.03808 0.35115 0.25331 0.0
C217 C 1.00471 0.25521 0.25242 0.0
C218 C 0.98981 0.23071 0.34339 0.0
C219 C 0.99343 0.21458 0.22792 0.0
C220 C 1.00187 0.23647 0.20562 0.0
C221 C 0.98745 0.21152 0.29711 0.0
C222 C 0.99845 0.25235 0.32113 0.0
C223 C 1.01508 0.2774 0.23153 0.0
O224 O 0.0304 0.27957 0.02678 0.0
O225 O 0.06041 0.26418 0.06318 0.0
O226 O 0.03654 0.2746 0.22154 0.0
O227 O 1.00649 0.29014 0.18517 0.0
H228 H 0.04118 0.22241 0.09506 0.0
H229 H 0.03591 0.18038 0.05736 0.0
H230 H 0.04098 0.20376 0.85176 0.0
H231 H 0.04483 0.2461 0.89084 0.0
H232 H 0.06596 0.41217 0.22772 0.0
H233 H 0.06886 0.38153 0.13408 0.0
H234 H 0.02691 0.36483 0.35446 0.0
H235 H 0.03036 0.33407 0.26084 0.0
H236 H 0.98567 0.22863 0.39704 0.0
H237 H 0.99169 0.20005 0.19136 0.0
H238 H 1.00637 0.23869 0.15225 0.0
H239 H 1.00065 0.26669 0.35772 0.0
C240 C 0.31011 0.01595 0.06239 0.0
C241 C 0.32616 0.02925 0.0864 0.0
C242 C 0.35411 0.01072 0.99602 0.0
C243 C 0.34787 0.02666 0.05366 0.0
C244 C 0.33796 0.99741 0.97263 0.0
C245 C 0.31638 0.99998 1.0053 0.0
U246 U 0.26067 0.01485 0.20571 0.0
O247 O 0.22826 1.00219 0.19938 0.0
O248 O 0.23095 0.04099 0.22863 0.0
C249 C 0.21779 0.02358 0.22269 0.0
C250 C 0.28654 0.01962 0.09184 0.0
C251 C 0.19985 0.02236 0.27923 0.0
C252 C 0.16169 0.0329 0.32675 0.0
C253 C 0.17899 0.03389 0.27427 0.0
C254 C 0.18585 0.00867 0.39037 0.0
C255 C 0.16481 0.02027 0.38577 0.0
C256 C 0.20317 0.00977 0.33786 0.0
C257 C 0.30196 0.99392 0.31924 0.0
C258 C 0.32779 0.98102 0.39405 0.0
C259 C 0.34075 0.99174 0.27971 0.0
C260 C 0.31919 0.99665 0.2678 0.0
C261 C 0.3452 0.98399 0.3431 0.0
C262 C 0.30629 0.98596 0.3821 0.0
C263 C 0.27941 1.00004 0.30854 0.0
O264 O 0.27682 0.99944 0.10649 0.0
O265 O 0.28028 0.03798 0.13669 0.0
O266 O 0.27435 0.02358 0.29768 0.0
O267 O 0.27206 0.98465 0.26716 0.0
H268 H 0.32196 0.04182 0.13011 0.0
H269 H 0.35978 0.03704 0.07387 0.0
H270 H 0.34182 0.98534 0.92787 0.0
H271 H 0.30439 0.98975 0.98491 0.0
H272 H 0.14595 0.04241 0.32133 0.0
H273 H 0.17606 0.04378 0.22963 0.0
H274 H 0.18895 0.99843 0.43427 0.0
H275 H 0.21913 1.00068 0.34293 0.0
H276 H 0.33078 0.97549 0.44372 0.0
H277 H 0.3539 0.99403 0.23959 0.0
H278 H 0.31595 1.00279 0.21889 0.0
H279 H 0.29306 0.98393 0.4222 0.0
C280 C 0.4923 0.29507 0.06984 0.0
C281 C 0.48419 0.31874 0.09815 0.0
C282 C 0.49696 0.33782 0.99296 0.0
C283 C 0.48639 0.33994 0.05983 0.0
C284 C 0.5046 0.31402 0.96465 0.0
C285 C 0.50226 0.29293 1.00266 0.0
U286 U 0.49491 0.25838 0.2314 0.0
O287 O 0.4754 0.22866 0.27161 0.0
O288 O 0.51056 0.22051 0.2379 0.0
C289 C 0.49245 0.21202 0.26582 0.0
C290 C 0.491 0.27232 0.10875 0.0
C291 C 0.49449 0.19576 0.32289 0.0
C292 C 0.49796 0.15369 0.36238 0.0
C293 C 0.49572 0.17004 0.31056 0.0
C294 C 0.4978 0.18862 0.44056 0.0
C295 C 0.49895 0.16266 0.42826 0.0
C296 C 0.49561 0.20505 0.38823 0.0
C297 C 0.50742 0.31002 0.36808 0.0
C298 C 0.5294 0.32317 0.45123 0.0
C299 C 0.50066 0.3517 0.41818 0.0
C300 C 0.49538 0.33333 0.37483 0.0
C301 C 0.51781 0.34692 0.45686 0.0
C302 C 0.52439 0.30497 0.40661 0.0
C303 C 0.50288 0.29144 0.31877 0.0
O304 O 0.5095 0.26279 0.12656 0.0
O305 O 0.47427 0.27191 0.15648 0.0
O306 O 0.48281 0.28751 0.31016 0.0
O307 O 0.51863 0.27759 0.28083 0.0
H308 H 0.47648 0.32089 0.15004 0.0
H309 H 0.48052 0.35804 0.08316 0.0
H310 H 0.51261 0.31174 0.91311 0.0
H311 H 0.50854 0.27486 0.97973 0.0
H312 H 0.49931 0.13392 0.35031 0.0
H313 H 0.49509 0.16251 0.26033 0.0
H314 H 0.4984 0.19625 0.49065 0.0
H315 H 0.4948 0.2249 0.39869 0.0
H316 H 0.54241 0.31862 0.48094 0.0
H317 H 0.49168 0.36987 0.41958 0.0
H318 H 0.48235 0.33762 0.34489 0.0
H319 H 0.53378 0.28695 0.40218 0.0
Dy320 Dy 1.00265 0.01535 0.69621 0.0
Dy321 Dy 0.03801 0.99756 0.79521 0.0
C322 C 0.05448 0.0129 0.64603 0.0
O323 O 1.00031 0.97462 0.7067 0.0
O324 O 0.0348 0.9641 0.73046 0.0
O325 O 0.9892 0.00861 0.60472 0.0
O326 O 0.97595 0.04019 0.67125 0.0
O327 O 1.0056 0.98804 0.84774 0.0
O328 O 0.98266 0.01499 0.79773 0.0
O329 O 0.02935 0.03788 0.82168 0.0
O330 O 1.01633 0.05044 0.72523 0.0
O331 O 0.04722 0.99555 0.89496 0.0
O332 O 0.06923 0.97906 0.80902 0.0
C333 C 1.01692 0.95798 0.70882 0.0
O334 O 0.0351 0.00919 0.63057 0.0
O335 O 0.05797 0.01416 0.70909 0.0
C336 C 0.97772 0.04539 0.55553 0.0
C337 C 0.98019 0.0801 0.45404 0.0
C338 C 0.99934 0.06933 0.47597 0.0
C339 C 0.99811 0.05215 0.52657 0.0
C340 C 0.95866 0.05541 0.53237 0.0
C341 C 0.95987 0.07267 0.48186 0.0
C342 C 0.97621 0.02913 0.61258 0.0
C343 C 0.9863 1.00025 0.84676 0.0
C344 C 0.0234 0.05553 0.78245 0.0
C345 C 0.06719 0.95783 0.90911 0.0
C346 C 0.07052 0.91327 0.97696 0.0
C347 C 0.05713 0.91602 0.92603 0.0
C348 C 0.05545 0.93815 0.89246 0.0
C349 C 0.08055 0.95527 0.9598 0.0
C350 C 0.08219 0.93309 0.99373 0.0
C351 C 0.06501 0.98113 0.87447 0.0
H352 H 1.01518 0.07502 0.4563 0.0
H353 H 1.01298 0.04469 0.54446 0.0
H354 H 0.94283 0.05036 0.55452 0.0
H355 H 0.94489 0.08064 0.46561 0.0
H356 H 0.04763 0.90122 0.91301 0.0
H357 H 0.04486 0.93999 0.85382 0.0
H358 H 0.08961 0.97042 0.97325 0.0
H359 H 0.09264 0.93139 0.0327 0.0
Dy360 Dy 0.5163 0.99058 0.70176 0.0
Dy361 Dy 0.52591 0.03206 0.81001 0.0
C362 C 0.50988 0.04822 0.67208 0.0
O363 O 0.55044 1.00012 0.66654 0.0
O364 O 0.55912 0.0144 0.7667 0.0
O365 O 0.5201 0.97697 0.59865 0.0
O366 O 0.50269 0.95671 0.6771 0.0
O367 O 0.52617 0.99632 0.864 0.0
O368 O 0.53328 0.96822 0.77451 0.0
O369 O 0.48957 0.03542 0.81511 0.0
O370 O 0.4858 0.99596 0.7782 0.0
O371 O 0.51891 0.04887 0.91014 0.0
O372 O 0.54221 0.06384 0.83516 0.0
C373 C 0.56505 1.00644 0.70384 0.0
O374 O 0.50151 0.02684 0.66887 0.0
O375 O 0.52322 0.05231 0.71556 0.0
C376 C 0.48963 0.95827 0.5735 0.0
C377 C 0.45401 0.95659 0.50228 0.0
C378 C 0.45832 0.97915 0.53178 0.0
C379 C 0.47597 0.97995 0.56734 0.0
C380 C 0.48553 0.93576 0.54392 0.0
C381 C 0.46776 0.9349 0.50848 0.0
C382 C 0.50772 0.95906 0.61254 0.0
C383 C 0.53191 0.97356 0.83919 0.0
C384 C 0.47757 0.01683 0.8111 0.0
C385 C 0.55031 0.06257 0.94467 0.0
C386 C 0.58468 0.06027 0.02181 0.0
C387 C 0.5792 0.03857 0.99064 0.0
C388 C 0.56215 0.03973 0.95227 0.0
C389 C 0.5552 0.08414 0.97713 0.0
C390 C 0.57231 0.083 0.0157 0.0
C391 C 0.53409 0.06397 0.89861 0.0
H392 H 0.44772 0.99604 0.52887 0.0
H393 H 0.4788 0.99744 0.59068 0.0
H394 H 0.49594 0.91888 0.54872 0.0
H395 H 0.46476 0.91733 0.48601 0.0
H396 H 0.58871 0.02088 0.99329 0.0
H397 H 0.55866 0.02295 0.92668 0.0
H398 H 0.5462 0.10188 0.97119 0.0
H399 H 0.57617 0.09994 0.03953 0.0
Dy400 Dy 0.54524 0.50299 0.77471 0.0
Dy401 Dy 0.49547 0.51459 0.72065 0.0
C402 C 0.50731 0.46685 0.80955 0.0
O403 O 0.5441 0.47203 0.69974 0.0
O404 O 0.51957 0.49354 0.64272 0.0
O405 O 0.56153 0.49091 0.85722 0.0
O406 O 0.58048 0.50488 0.76971 0.0
O407 O 0.51247 0.54836 0.69844 0.0
O408 O 0.54854 0.53381 0.70105 0.0
O409 O 0.49674 0.54571 0.79491 0.0
O410 O 0.52101 0.52407 0.85243 0.0
O411 O 0.47918 0.52583 0.6374 0.0
O412 O 0.46017 0.51321 0.72678 0.0
C413 C 0.53162 0.47314 0.65198 0.0
O414 O 0.52831 0.46913 0.79602 0.0
O415 O 0.49225 0.48383 0.79437 0.0
C416 C 0.594 0.50815 0.87684 0.0
C417 C 0.62141 0.52039 0.97258 0.0
C418 C 0.59859 0.52207 0.9904 0.0
C419 C 0.58503 0.51612 0.94309 0.0
C420 C 0.61668 0.50748 0.85829 0.0
C421 C 0.63023 0.51363 0.90545 0.0
C422 C 0.58062 0.49676 0.83052 0.0
C423 C 0.53348 0.55071 0.68536 0.0
C424 C 0.50912 0.54457 0.84292 0.0
C425 C 0.44625 0.5089 0.62047 0.0
C426 C 0.41728 0.49726 0.52861 0.0
C427 C 0.43988 0.49688 0.50706 0.0
C428 C 0.45418 0.50256 0.55239 0.0
C429 C 0.42394 0.50788 0.64282 0.0
C430 C 0.40967 0.50197 0.59767 0.0
C431 C 0.46003 0.52053 0.66519 0.0
H432 H 0.59121 0.52758 0.04133 0.0
H433 H 0.56759 0.51684 0.95925 0.0
H434 H 0.62406 0.50111 0.80798 0.0
H435 H 0.64773 0.51195 0.89003 0.0
H436 H 0.44646 0.49354 0.45445 0.0
H437 H 0.47129 0.50322 0.53315 0.0
H438 H 0.41733 0.51277 0.69478 0.0
H439 H 0.3925 0.50185 0.61672 0.0
Dy440 Dy 0.02796 0.53217 0.69154 0.0
Dy441 Dy 1.01608 0.48853 0.79469 0.0
C442 C 0.03225 0.47486 0.64024 0.0
O443 O 0.99168 0.5361 0.71626 0.0
O444 O 0.9871 0.49578 0.73983 0.0
O445 O 0.01721 0.55714 0.61823 0.0
O446 O 0.04974 0.55773 0.64508 0.0
O447 O 1.00317 0.52451 0.85017 0.0
O448 O 0.0262 0.55001 0.79353 0.0
O449 O 0.04997 0.49635 0.80786 0.0
O450 O 0.06036 0.51273 0.70597 0.0
O451 O 0.02098 0.47085 0.8872 0.0
O452 O 0.99819 0.45734 0.82573 0.0
C453 C 0.9796 0.51743 0.71998 0.0
O454 O 0.02657 0.49807 0.62745 0.0
O455 O 0.03344 0.46792 0.702 0.0
C456 C 0.04604 0.56004 0.53103 0.0
C457 C 0.07036 0.54415 0.40676 0.0
C458 C 0.0513 0.53316 0.43026 0.0
C459 C 0.03929 0.54095 0.49209 0.0
C460 C 0.06408 0.57232 0.50529 0.0
C461 C 0.07619 0.56443 0.44347 0.0
C462 C 0.03662 0.56433 0.60186 0.0
C463 C 1.01286 0.54514 0.84705 0.0
C464 C 0.06522 0.50315 0.76215 0.0
C465 C 0.98731 0.46284 0.94228 0.0
C466 C 0.95924 0.48205 0.0569 0.0
C467 C 0.9558 0.48994 0.99281 0.0
C468 C 0.96977 0.48054 0.93608 0.0
C469 C 0.99027 0.45406 1.00581 0.0
C470 C 0.97618 0.46353 0.06299 0.0
C471 C 1.00455 0.45769 0.88506 0.0
H472 H 0.04639 0.51764 0.40261 0.0
H473 H 0.02546 0.53104 0.51095 0.0
H474 H 0.06962 0.5869 0.53494 0.0
H475 H 0.091 0.57302 0.42696 0.0
H476 H 0.94257 0.50384 0.98666 0.0
H477 H 0.96744 0.48801 0.8877 0.0
H478 H 1.00404 0.44084 1.0115 0.0
H479 H 0.97909 0.4572 0.11202 0.0
H480 H 0.12122 0.01696 0.37812 0.0
H481 H 0.16652 0.02189 0.52207 0.0
H482 H 0.13684 0.02004 0.61433 0.0
H483 H 0.09783 0.01707 0.65515 0.0
H484 H 0.05254 0.0132 0.51078 0.0
H485 H 0.08223 0.01513 0.4187 0.0
C486 C 0.12466 0.01794 0.42958 0.0
C487 C 0.14633 0.01944 0.44238 0.0
C488 C 0.10739 0.01717 0.4829 0.0
C489 C 0.15024 0.02025 0.50993 0.0
C490 C 0.13317 0.0194 0.56308 0.0
C491 C 0.0944 0.01675 0.6036 0.0
C492 C 0.07282 0.01496 0.59044 0.0
C493 C 0.11167 0.01782 0.55029 0.0
C494 C 0.06887 0.01452 0.52296 0.0
C495 C 0.0859 0.01561 0.46996 0.0
H496 H 0.48036 0.11907 0.44866 0.0
H497 H 0.52382 0.16581 0.53095 0.0
H498 H 0.53021 0.1352 0.61518 0.0
H499 H 0.525 0.09414 0.66184 0.0
H500 H 0.48252 0.0469 0.57635 0.0
H501 H 0.47461 0.07855 0.49642 0.0
C502 C 0.49137 0.12256 0.48464 0.0
C503 C 0.50169 0.14477 0.48278 0.0
C504 C 0.49531 0.10465 0.5322 0.0
C505 C 0.51545 0.1491 0.53124 0.0
C506 C 0.51928 0.13146 0.5792 0.0
C507 C 0.51394 0.09075 0.62595 0.0
C508 C 0.50446 0.06801 0.6252 0.0
C509 C 0.50951 0.10903 0.57964 0.0
C510 C 0.49013 0.06411 0.57822 0.0
C511 C 0.48557 0.08223 0.53237 0.0
H512 H 0.34281 0.5038 0.34074 0.0
H513 H 0.38885 0.45011 0.22067 0.0
H514 H 0.41365 0.4511 0.30503 0.0
H515 H 0.4225 0.46745 0.41282 0.0
H516 H 0.37662 0.52196 0.53096 0.0
H517 H 0.3514 0.51964 0.44885 0.0
C518 C 0.35813 0.49204 0.33332 0.0
C519 C 0.36388 0.47695 0.27406 0.0
C520 C 0.37237 0.49266 0.38218 0.0
C521 C 0.38404 0.46219 0.26516 0.0
C522 C 0.39822 0.46263 0.31366 0.0
C523 C 0.40705 0.47893 0.42064 0.0
C524 C 0.40158 0.49473 0.47884 0.0
C525 C 0.39264 0.47792 0.37225 0.0
C526 C 0.38125 0.50918 0.48786 0.0
C527 C 0.36682 0.50809 0.44039 0.0
H528 H 0.04805 0.38288 0.43195 0.0
H529 H 0.03972 0.44165 0.29353 0.0
H530 H 0.03573 0.47257 0.38614 0.0
H531 H 0.03327 0.48295 0.50658 0.0
H532 H 0.04082 0.42435 0.646 0.0
H533 H 0.04621 0.3934 0.55281 0.0
C534 C 0.04518 0.40243 0.42204 0.0
C535 C 0.04414 0.40982 0.35563 0.0
C536 C 0.04267 0.42019 0.47574 0.0
C537 C 0.04086 0.43534 0.34381 0.0
C538 C 0.03843 0.45309 0.39688 0.0
C539 C 0.03614 0.46344 0.51682 0.0
C540 C 0.03653 0.45606 0.58349 0.0
C541 C 0.03915 0.44572 0.46307 0.0
C542 C 0.0404 0.43063 0.59535 0.0
C543 C 0.04345 0.41288 0.54203 0.0
H544 H 0.9206 0.98127 0.10793 0.0
H545 H 0.87486 0.01969 0.993 0.0
H546 H 0.90426 0.02401 0.90194 0.0
H547 H 0.943 0.01693 0.85361 0.0
H548 H 0.98863 0.97692 0.96557 0.0
H549 H 0.95923 0.97281 0.05769 0.0
C550 C 0.91691 0.99033 0.06277 0.0
C551 C 0.8953 1.00034 0.05849 0.0
C552 C 0.93396 0.99243 1.00941 0.0
C553 C 0.89122 0.01228 0.99925 0.0
C554 C 0.90807 0.0146 0.9465 0.0
C555 C 0.94658 0.00728 0.89808 0.0
C556 C 0.96815 0.9973 0.90228 0.0
C557 C 0.92952 1.00483 0.951 0.0
C558 C 0.97227 0.98477 0.96049 0.0
C559 C 0.95542 0.98244 0.01345 0.0
H560 H 0.54677 0.90237 0.07709 0.0
H561 H 0.53967 0.84659 0.92597 0.0
H562 H 0.53537 0.87887 0.84434 0.0
H563 H 0.53323 0.92319 0.81611 0.0
H564 H 0.53986 0.97868 0.96883 0.0
H565 H 0.5451 0.94628 0.04886 0.0
C566 C 0.54454 0.89719 0.02609 0.0
C567 C 0.54363 0.87198 1.00783 0.0
C568 C 0.54204 0.91586 0.97945 0.0
C569 C 0.54025 0.8658 0.94175 0.0
C570 C 0.5379 0.88427 0.89487 0.0
C571 C 0.536 0.92819 0.86674 0.0
C572 C 0.53617 0.95343 0.8862 0.0
C573 C 0.53872 0.90939 0.91315 0.0
C574 C 0.53956 0.95949 0.95233 0.0
C575 C 0.54257 0.94094 0.99828 0.0
H576 H 0.69382 0.54306 0.15439 0.0
H577 H 0.65455 0.49983 0.29279 0.0
H578 H 0.62888 0.49639 0.21237 0.0
H579 H 0.61816 0.50397 0.10074 0.0
H580 H 0.65785 0.54588 0.96034 0.0
H581 H 0.68287 0.55097 0.04274 0.0
C582 C 0.67973 0.53274 0.16696 0.0
C583 C 0.67621 0.52188 0.23022 0.0
C584 C 0.6651 0.5304 0.11973 0.0
C585 C 0.6576 0.50888 0.2454 0.0
C586 C 0.64293 0.50668 0.19905 0.0
C587 C 0.63212 0.51451 0.0884 0.0
C588 C 0.63605 0.52454 0.02424 0.0
C589 C 0.64655 0.51725 0.13593 0.0
C590 C 0.65449 0.53775 1.00897 0.0
C591 C 0.66879 0.54075 0.05622 0.0
H592 H 1.00822 0.63188 0.0669 0.0
H593 H 0.98081 0.57623 0.1943 0.0
H594 H 0.98362 0.54748 0.09702 0.0
H595 H 0.99453 0.53771 0.97579 0.0
H596 H 0.02344 0.59296 0.85007 0.0
H597 H 0.01947 0.62208 0.94674 0.0
C598 C 1.00306 0.61338 0.07373 0.0
C599 C 0.99437 0.60633 0.1382 0.0
C600 C 1.0049 0.5968 0.01767 0.0
C601 C 0.98734 0.58238 0.14536 0.0
C602 C 0.98899 0.56584 0.0897 0.0
C603 C 0.99981 0.55619 0.96942 0.0
C604 C 1.00924 0.5631 0.90558 0.0
C605 C 0.99777 0.57283 0.02557 0.0
C606 C 1.01616 0.58707 0.89851 0.0
C607 C 1.01391 0.60378 0.95383 0.0
H608 H 1.00619 0.16509 0.26074 0.0
H609 H 0.95267 0.20533 0.3911 0.0
H610 H 0.94415 0.16708 0.4467 0.0
H611 H 0.95467 0.1236 0.46669 0.0
H612 H 1.0088 0.08331 0.33893 0.0
H613 H 1.01428 0.12023 0.27315 0.0
C614 C 0.99233 0.1653 0.30015 0.0
C615 C 0.98013 0.18789 0.32229 0.0
C616 C 0.98782 0.14337 0.33266 0.0
C617 C 0.96239 0.1881 0.37391 0.0
C618 C 0.95753 0.16629 0.40564 0.0
C619 C 0.96728 0.12269 0.42333 0.0
C620 C 0.98138 0.10087 0.40775 0.0
C621 C 0.97053 0.144 0.3867 0.0
C622 C 0.99792 0.10006 0.3522 0.0
C623 C 1.00103 0.12111 0.31464 0.0
H624 H 0.36289 0.94592 0.40875 0.0
H625 H 0.37804 0.01349 0.31048 0.0
H626 H 0.41426 0.00952 0.34584 0.0
H627 H 0.44018 0.98885 0.41294 0.0
H628 H 0.42423 0.9225 0.51608 0.0
H629 H 0.38972 0.92384 0.47005 0.0
C630 C 0.37419 0.9597 0.39493 0.0
C631 C 0.36784 0.98005 0.35769 0.0
C632 C 0.39473 0.95756 0.41644 0.0
C633 C 0.38268 0.99757 0.33884 0.0
C634 C 0.40329 0.99542 0.35942 0.0
C635 C 0.42915 0.97464 0.42499 0.0
C636 C 0.43454 0.95574 0.46811 0.0
C637 C 0.40926 0.97581 0.39949 0.0
C638 C 0.42042 0.93714 0.48255 0.0
C639 C 0.40065 0.938 0.45672 0.0
H640 H 0.49095 0.38371 0.52865 0.0
H641 H 0.55894 0.35559 0.48302 0.0
H642 H 0.5693 0.39105 0.5448 0.0
H643 H 0.55926 0.43236 0.60328 0.0
H644 H 0.49154 0.462 0.63443 0.0
H645 H 0.481 0.42412 0.58533 0.0
C646 C 0.50809 0.38538 0.53128 0.0
C647 C 0.52408 0.36708 0.50015 0.0
C648 C 0.51406 0.40643 0.56352 0.0
C649 C 0.54615 0.36922 0.50679 0.0
C650 C 0.55217 0.38969 0.54151 0.0
C651 C 0.54227 0.43041 0.59884 0.0
C652 C 0.52628 0.45004 0.62072 0.0
C653 C 0.53631 0.40875 0.56862 0.0
C654 C 0.50423 0.44734 0.61597 0.0
C655 C 0.49813 0.42562 0.58849 0.0
H656 H 0.15181 0.51163 0.19581 0.0
H657 H 0.14186 0.4407 0.2827 0.0
H658 H 0.10686 0.45823 0.34464 0.0
H659 H 0.0826 0.49507 0.38666 0.0
H660 H 0.09351 0.56637 0.30327 0.0
H661 H 0.12476 0.54713 0.22594 0.0
C662 C 0.14164 0.49975 0.22642 0.0
C663 C 0.14934 0.47496 0.23509 0.0
C664 C 0.12197 0.5101 0.26294 0.0
C665 C 0.13624 0.45991 0.27593 0.0
C666 C 0.11632 0.46993 0.31133 0.0
C667 C 0.09135 0.50628 0.35001 0.0
C668 C 0.08594 0.53211 0.35073 0.0
C669 C 0.1095 0.49522 0.30712 0.0
C670 C 0.09762 0.54648 0.30389 0.0
C671 C 0.11544 0.53551 0.25986 0.0
H672 H 0.0658 0.80659 0.08883 0.0
H673 H 0.05865 0.84825 0.27833 0.0
H674 H 0.06419 0.88649 0.21844 0.0
H675 H 0.06814 0.90828 0.11196 0.0
H676 H 0.07518 0.86604 0.92337 0.0
H677 H 0.0729 0.82756 0.98354 0.0
C678 C 0.06605 0.82389 0.11724 0.0
C679 C 0.06189 0.82459 0.18789 0.0
C680 C 0.06904 0.84566 0.08266 0.0
C681 C 0.06167 0.8473 0.22383 0.0
C682 C 0.06486 0.86912 0.18966 0.0
C683 C 0.06961 0.89059 0.08414 0.0
C684 C 0.07163 0.88995 0.01348 0.0
C685 C 0.06812 0.86857 0.11905 0.0
C686 C 0.07327 0.86697 0.97789 0.0
C687 C 0.07204 0.845 1.01217 0.0
H688 H 0.67832 0.06248 0.1029 0.0
H689 H 0.66168 0.99391 0.19271 0.0
H690 H 0.62456 1.00131 0.16473 0.0
H691 H 0.59814 0.02545 0.10584 0.0
H692 H 0.61583 0.09273 1.01031 0.0
H693 H 0.65121 0.08792 0.05058 0.0
C694 C 0.66651 0.04922 0.11642 0.0
C695 C 0.67264 0.02758 0.14889 0.0
C696 C 0.64547 0.0534 0.09934 0.0
C697 C 0.65719 0.01074 0.16768 0.0
C698 C 0.63607 0.01489 0.15144 0.0
C699 C 0.60972 0.03913 0.0943 0.0
C700 C 0.6045 0.05931 0.05491 0.0
C701 C 0.63021 0.03588 0.11596 0.0
C702 C 0.61941 0.07717 0.04119 0.0
C703 C 0.63972 0.0743 0.06356 0.0
H704 H 0.5519 0.63469 0.95335 0.0
H705 H 0.48431 0.66347 1.00681 0.0
H706 H 0.4729 0.62774 0.94845 0.0
H707 H 0.48207 0.58585 0.89184 0.0
H708 H 0.54955 0.55531 0.85705 0.0
H709 H 0.56092 0.59356 0.90123 0.0
C710 C 0.53461 0.63314 0.95334 0.0
C711 C 0.51906 0.65168 0.98578 0.0
C712 C 0.52807 0.6118 0.92423 0.0
C713 C 0.49678 0.64968 0.98202 0.0
C714 C 0.49017 0.62902 0.94945 0.0
C715 C 0.49919 0.58769 0.89447 0.0
C716 C 0.5149 0.56774 0.87265 0.0
C717 C 0.50565 0.60959 0.92209 0.0
C718 C 0.5371 0.57025 0.87527 0.0
C719 C 0.54367 0.59219 0.89985 0.0
H720 H 0.88547 0.51412 0.295 0.0
H721 H 0.89263 0.58541 0.20752 0.0
H722 H 0.92542 0.56787 0.13361 0.0
H723 H 0.94798 0.53103 0.08256 0.0
H724 H 0.93914 0.45911 0.16438 0.0
H725 H 0.91119 0.4782 0.25332 0.0
C726 C 0.8947 0.526 0.26149 0.0
C727 C 0.88681 0.55097 0.25635 0.0
C728 C 0.9129 0.51556 0.21761 0.0
C729 C 0.89855 0.56613 0.21195 0.0
C730 C 0.91712 0.55607 0.16953 0.0
C731 C 0.94011 0.51962 0.12049 0.0
C732 C 0.94521 0.49373 0.11662 0.0
C733 C 0.9238 0.5306 0.16998 0.0
C734 C 0.93533 0.4791 0.16651 0.0
C735 C 0.91932 0.48998 0.21699 0.0
H736 H 0.0183 0.17155 0.84638 0.0
H737 H 0.05601 0.14568 1.00091 0.0
H738 H 0.0544 0.10287 0.96323 0.0
H739 H 0.04277 0.07254 0.88622 0.0
H740 H 1.0066 0.0979 0.72793 0.0
H741 H 1.00765 0.14103 0.76637 0.0
C742 C 0.02638 0.15663 0.87152 0.0
C743 C 0.03707 0.16212 0.92715 0.0
C744 C 0.02582 0.13184 0.84864 0.0
C745 C 0.04717 0.14226 0.9592 0.0
C746 C 0.04647 0.11766 0.93722 0.0
C747 C 0.03509 0.08745 0.85994 0.0
C748 C 0.02457 0.08185 0.80424 0.0
C749 C 0.03584 0.11221 0.88209 0.0
C750 C 1.01487 0.10156 0.7708 0.0
C751 C 1.01541 0.12627 0.7929 0.0
H752 H 0.38309 0.04636 0.97408 0.0
H753 H 0.37751 0.96841 0.93617 0.0
H754 H 0.41428 0.96357 0.8739 0.0
H755 H 0.44859 0.98117 0.83055 0.0
H756 H 0.45448 0.05885 0.87156 0.0
H757 H 0.41747 0.06381 0.93225 0.0
C758 C 0.38994 0.02822 0.95294 0.0
C759 C 0.37719 0.00786 0.95997 0.0
C760 C 0.41136 0.02542 0.91734 0.0
C761 C 0.38653 0.98462 0.93096 0.0
C762 C 0.40773 0.98174 0.89547 0.0
C763 C 0.44177 0.99923 0.85242 0.0
C764 C 0.4545 0.01959 0.84593 0.0
C765 C 0.42034 1.00201 0.8881 0.0
C766 C 0.44525 0.04277 0.87534 0.0
C767 C 0.42399 0.04567 0.91033 0.0
H768 H 0.469 0.37913 0.97805 0.0
H769 H 0.53541 0.34691 0.92079 0.0
H770 H 0.54402 0.38338 0.85756 0.0
H771 H 0.53324 0.42454 0.82049 0.0
H772 H 0.46702 0.45768 0.87503 0.0
H773 H 0.45775 0.42069 0.93683 0.0
C774 C 0.48534 0.38019 0.95178 0.0
C775 C 0.50153 0.36026 0.95404 0.0
C776 C 0.49022 0.40132 0.91496 0.0
C777 C 0.52258 0.36179 0.91923 0.0
C778 C 0.52756 0.38271 0.88328 0.0
C779 C 0.51673 0.4238 0.84583 0.0
C780 C 0.50089 0.44403 0.84356 0.0
C781 C 0.51157 0.40259 0.88101 0.0
C782 C 0.47954 0.44242 0.87594 0.0
C783 C 0.47426 0.42129 0.91152 0.0
H784 H 0.16616 0.50381 0.78345 0.0
H785 H 0.14564 0.47125 0.97302 0.0
H786 H 0.1083 0.47267 0.94715 0.0
H787 H 0.08116 0.48399 0.87224 0.0
H788 H 0.10135 0.5171 0.68316 0.0
H789 H 0.13894 0.51479 0.70769 0.0
C790 C 0.15351 0.49715 0.81934 0.0
C791 C 0.15886 0.48736 0.88013 0.0
C792 C 0.13192 0.49816 0.80431 0.0
C793 C 0.14219 0.47853 0.92544 0.0
C794 C 0.12074 0.47948 0.91088 0.0
C795 C 0.09376 0.49064 0.83611 0.0
C796 C 0.0883 0.50073 0.7758 0.0
C797 C 0.11539 0.48932 0.85059 0.0
C798 C 0.10497 0.50921 0.72988 0.0
C799 C 0.12652 0.50794 0.74395 0.0
H800 H 0.02663 0.84418 0.61345 0.0
H801 H 0.96382 0.86619 0.55293 0.0
H802 H 0.96527 0.9085 0.59603 0.0
H803 H 0.98422 0.93941 0.65083 0.0
H804 H 0.04712 0.91786 0.71158 0.0
H805 H 0.04578 0.87543 0.66844 0.0
C806 C 1.01337 0.8583 0.60919 0.0
C807 C 0.9951 0.85191 0.58016 0.0
C808 C 1.01426 0.88273 0.63436 0.0
C809 C 0.97794 0.87044 0.57577 0.0
C810 C 0.97879 0.89471 0.60022 0.0
C811 C 0.99763 0.92546 0.65494 0.0
C812 C 1.01574 0.93195 0.68454 0.0
C813 C 0.9968 0.90106 0.62987 0.0
C814 C 0.03296 0.91351 0.68905 0.0
C815 C 0.03223 0.88918 0.66428 0.0
H816 H 0.66762 0.00748 0.62308 0.0
H817 H 0.6509 0.98852 0.42736 0.0
H818 H 0.61265 0.98879 0.47546 0.0
H819 H 0.58347 0.99497 0.57277 0.0
H820 H 0.60001 0.01531 0.76767 0.0
H821 H 0.63842 0.0143 0.71995 0.0
C822 C 0.65566 1.00366 0.59053 0.0
C823 C 0.66251 0.99784 0.52128 0.0
C824 C 0.63343 1.00413 0.61846 0.0
C825 C 0.64649 0.99259 0.48086 0.0
C826 C 0.62444 0.99292 0.50831 0.0
C827 C 0.59545 0.9991 0.60501 0.0
C828 C 0.58864 1.00515 0.67408 0.0
C829 C 0.61768 0.99865 0.57707 0.0
C830 C 0.60457 0.01056 0.71452 0.0
C831 C 0.62665 0.01 0.68718 0.0
H832 H 0.57165 0.63888 0.51809 0.0
H833 H 0.50523 0.67097 0.57626 0.0
H834 H 0.4967 0.63431 0.63872 0.0
H835 H 0.50754 0.59306 0.6751 0.0
H836 H 0.57374 0.55999 0.61965 0.0
H837 H 0.58294 0.59714 0.55836 0.0
C838 C 0.55532 0.63776 0.54438 0.0
C839 C 0.53912 0.65775 0.54265 0.0
C840 C 0.55048 0.61649 0.58076 0.0
C841 C 0.51808 0.65608 0.57745 0.0
C842 C 0.51314 0.63504 0.61296 0.0
C843 C 0.52403 0.59385 0.64965 0.0
C844 C 0.53988 0.57359 0.65154 0.0
C845 C 0.52916 0.61515 0.61479 0.0
C846 C 0.56121 0.57527 0.61904 0.0
C847 C 0.56645 0.59649 0.58376 0.0
H848 H 0.89477 0.54116 0.58086 0.0
H849 H 0.87346 0.48076 0.70094 0.0
H850 H 0.90823 0.4766 0.74619 0.0
H851 H 0.94506 0.48978 0.75046 0.0
H852 H 0.9654 0.55194 0.63538 0.0
H853 H 0.93081 0.55583 0.5899 0.0
C854 C 0.89782 0.52709 0.61684 0.0
C855 C 0.88165 0.51118 0.63723 0.0
C856 C 0.91769 0.52515 0.64378 0.0
C857 C 0.88566 0.49323 0.68459 0.0
C858 C 0.90554 0.49082 0.71039 0.0
C859 C 0.94187 0.50423 0.71566 0.0
C860 C 0.95786 0.5205 0.69641 0.0
C861 C 0.92173 0.50664 0.69026 0.0
C862 C 0.95337 0.53925 0.65155 0.0
C863 C 0.9336 0.54143 0.62514 0.0
loop_
_geom_bond_atom_site_label_1
_geom_bond_atom_site_label_2
_geom_bond_distance
_geom_bond_site_symmetry_2
_ccdc_geom_bond_type
C0 C1 1.264 . S
C0 C5 1.479 . S
C0 C10 1.465 . S
C1 C0 1.264 . S
C1 C3 1.339 . S
C1 H28 0.931 . S
C2 C3 1.395 . S
C2 C4 1.320 . S
C3 C1 1.339 . S
C3 C2 1.395 . S
C3 H29 0.929 . S
C4 C2 1.320 . S
C4 C5 1.405 . S
C4 H30 0.930 . S
C5 C0 1.479 . S
C5 C4 1.405 . S
C5 H31 0.931 . S
U6 O7 2.454 . S
U6 O8 2.458 . S
U6 C9 2.984 . S
U6 C10 2.847 . S
U6 C23 2.882 . S
U6 O24 2.441 . S
U6 O25 2.420 . S
U6 O26 2.455 . S
U6 O27 2.449 . S
O7 U6 2.454 . S
O7 C9 1.353 . S
O8 U6 2.458 . S
O8 C9 1.286 . S
C9 U6 2.984 . S
C9 O7 1.353 . S
C9 O8 1.286 . S
C9 C11 1.363 . S
C10 C0 1.465 . S
C10 U6 2.847 . S
C10 O24 1.249 . S
C10 O25 1.202 . S
C11 C9 1.363 . S
C11 C13 1.408 . S
C11 C16 1.342 . S
C12 C13 1.310 . S
C12 C15 1.461 . S
C12 H32 0.932 . S
C13 C11 1.408 . S
C13 C12 1.310 . S
C13 H33 0.930 . S
C14 C15 1.474 . S
C14 C16 1.285 . S
C14 H34 0.929 . S
C15 C12 1.461 . S
C15 C14 1.474 . S
C16 C11 1.342 . S
C16 C14 1.285 . S
C16 H35 0.930 . S
C17 C20 1.424 . S
C17 C22 1.245 . S
C17 C23 1.428 . S
C18 C21 1.260 . S
C18 C22 1.477 . S
C18 H36 0.932 . S
C19 C20 1.384 . S
C19 C21 1.479 . S
C19 H37 0.929 . S
C20 C17 1.424 . S
C20 C19 1.384 . S
C20 H38 0.928 . S
C21 C18 1.260 . S
C21 C19 1.479 . S
C22 C17 1.245 . S
C22 C18 1.477 . S
C22 H39 0.932 . S
C23 U6 2.882 . S
C23 C17 1.428 . S
C23 O26 1.301 . S
C23 O27 1.282 . S
O24 U6 2.441 . S
O24 C10 1.249 . S
O25 U6 2.420 . S
O25 C10 1.202 . S
O26 U6 2.455 . S
O26 C23 1.301 . S
O27 U6 2.449 . S
O27 C23 1.282 . S
H28 C1 0.931 . S
H29 C3 0.929 . S
H30 C4 0.930 . S
H31 C5 0.931 . S
H32 C12 0.932 . S
H33 C13 0.930 . S
H34 C14 0.929 . S
H35 C16 0.930 . S
H36 C18 0.932 . S
H37 C19 0.929 . S
H38 C20 0.928 . S
H39 C22 0.932 . S
C40 C41 1.264 . S
C40 C45 1.479 . S
C40 C50 1.465 . S
C41 C40 1.264 . S
C41 C43 1.339 . S
C41 H68 0.931 . S
C42 C43 1.395 1_655 S
C42 C44 1.320 . S
C43 C41 1.339 . S
C43 C42 1.395 1_455 S
C43 H69 0.929 . S
C44 C42 1.320 . S
C44 C45 1.405 1_655 S
C44 H70 0.930 . S
C45 C40 1.479 . S
C45 C44 1.405 1_455 S
C45 H71 0.931 . S
U46 O47 2.454 . S
U46 O48 2.458 . S
U46 C49 2.984 . S
U46 C50 2.847 . S
U46 C63 2.882 . S
U46 O64 2.441 . S
U46 O65 2.420 . S
U46 O66 2.455 . S
U46 O67 2.449 . S
O47 U46 2.454 . S
O47 C49 1.353 . S
O48 U46 2.458 . S
O48 C49 1.286 . S
C49 U46 2.984 . S
C49 O47 1.353 . S
C49 O48 1.286 . S
C49 C51 1.363 1_455 S
C50 C40 1.465 . S
C50 U46 2.847 . S
C50 O64 1.249 . S
C50 O65 1.202 . S
C51 C49 1.363 1_655 S
C51 C53 1.408 . S
C51 C56 1.342 . S
C52 C53 1.310 . S
C52 C55 1.461 . S
C52 H72 0.932 . S
C53 C51 1.408 . S
C53 C52 1.310 . S
C53 H73 0.934 . S
C54 C55 1.474 . S
C54 C56 1.285 . S
C54 H74 0.929 . S
C55 C52 1.461 . S
C55 C54 1.474 . S
C56 C51 1.342 . S
C56 C54 1.285 . S
C56 H75 0.930 . S
C57 C60 1.424 . S
C57 C62 1.245 . S
C57 C63 1.428 . S
C58 C61 1.260 1_455 S
C58 C62 1.477 . S
C58 H76 0.932 . S
C59 C60 1.390 . S
C59 C61 1.466 1_455 S
C59 H77 0.939 . S
C60 C57 1.424 . S
C60 C59 1.390 . S
C60 H78 0.928 . S
C61 C58 1.260 1_655 S
C61 C59 1.466 1_655 S
C62 C57 1.245 . S
C62 C58 1.477 . S
C62 H79 0.932 . S
C63 U46 2.882 . S
C63 C57 1.428 . S
C63 O66 1.301 . S
C63 O67 1.282 . S
O64 U46 2.441 . S
O64 C50 1.249 . S
O65 U46 2.420 . S
O65 C50 1.202 . S
O66 U46 2.455 . S
O66 C63 1.301 . S
O67 U46 2.449 . S
O67 C63 1.282 . S
H68 C41 0.931 . S
H69 C43 0.929 . S
H70 C44 0.930 . S
H71 C45 0.931 . S
H72 C52 0.932 . S
H73 C53 0.934 . S
H74 C54 0.929 . S
H75 C56 0.930 . S
H76 C58 0.932 . S
H77 C59 0.939 . S
H78 C60 0.928 . S
H79 C62 0.932 . S
C80 C81 1.264 . S
C80 C85 1.479 . S
C80 C90 1.465 . S
C81 C80 1.264 . S
C81 C83 1.339 . S
C81 H108 0.931 . S
C82 C83 1.395 . S
C82 C84 1.320 . S
C83 C81 1.339 . S
C83 C82 1.395 . S
C83 H109 0.929 . S
C84 C82 1.320 . S
C84 C85 1.405 . S
C84 H110 0.922 1_545 S
C85 C80 1.479 . S
C85 C84 1.405 . S
C85 H111 0.931 . S
U86 O87 2.454 . S
U86 O88 2.458 . S
U86 C89 2.984 . S
U86 C90 2.847 . S
U86 C103 2.882 . S
U86 O104 2.441 . S
U86 O105 2.420 . S
U86 O106 2.455 . S
U86 O107 2.449 . S
O87 U86 2.454 . S
O87 C89 1.353 . S
O88 U86 2.458 . S
O88 C89 1.286 . S
C89 U86 2.984 . S
C89 O87 1.353 . S
C89 O88 1.286 . S
C89 C91 1.363 . S
C90 C80 1.465 . S
C90 U86 2.847 . S
C90 O104 1.249 . S
C90 O105 1.202 . S
C91 C89 1.363 . S
C91 C93 1.408 . S
C91 C96 1.342 . S
C92 C93 1.310 . S
C92 C95 1.461 . S
C92 H112 0.932 . S
C93 C91 1.408 . S
C93 C92 1.310 . S
C93 H113 0.930 . S
C94 C95 1.473 1_565 S
C94 C96 1.286 1_565 S
C94 H114 0.930 . S
C95 C92 1.461 . S
C95 C94 1.473 1_545 S
C96 C91 1.342 . S
C96 C94 1.286 1_545 S
C96 H115 0.935 . S
C97 C100 1.424 . S
C97 C102 1.245 . S
C97 C103 1.428 . S
C98 C101 1.260 . S
C98 C102 1.477 . S
C98 H116 0.932 1_554 S
C99 C100 1.384 . S
C99 C101 1.479 . S
C99 H117 0.929 . S
C100 C97 1.424 . S
C100 C99 1.384 . S
C100 H118 0.928 . S
C101 C98 1.260 . S
C101 C99 1.479 . S
C102 C97 1.245 . S
C102 C98 1.477 . S
C102 H119 0.932 . S
C103 U86 2.882 . S
C103 C97 1.428 . S
C103 O106 1.301 . S
C103 O107 1.282 . S
O104 U86 2.441 . S
O104 C90 1.249 . S
O105 U86 2.420 . S
O105 C90 1.202 . S
O106 U86 2.455 . S
O106 C103 1.301 . S
O107 U86 2.449 . S
O107 C103 1.282 . S
H108 C81 0.931 . S
H109 C83 0.929 . S
H110 C84 0.922 1_565 S
H111 C85 0.931 . S
H112 C92 0.932 . S
H113 C93 0.930 . S
H114 C94 0.930 . S
H115 C96 0.935 . S
H116 C98 0.932 1_556 S
H117 C99 0.929 . S
H118 C100 0.928 . S
H119 C102 0.932 . S
C120 C121 1.264 . S
C120 C125 1.479 . S
C120 C130 1.465 . S
C121 C120 1.264 . S
C121 C123 1.339 . S
C121 H148 0.931 . S
C122 C123 1.395 . S
C122 C124 1.320 . S
C123 C121 1.339 . S
C123 C122 1.395 . S
C123 H149 0.929 . S
C124 C122 1.320 . S
C124 C125 1.405 . S
C124 H150 0.930 . S
C125 C120 1.479 . S
C125 C124 1.405 . S
C125 H151 0.931 . S
U126 O127 2.454 . S
U126 O128 2.458 . S
U126 C129 2.984 . S
U126 C130 2.847 . S
U126 C143 2.882 . S
U126 O144 2.441 . S
U126 O145 2.420 . S
U126 O146 2.455 . S
U126 O147 2.449 . S
O127 U126 2.454 . S
O127 C129 1.353 . S
O128 U126 2.458 . S
O128 C129 1.286 . S
C129 U126 2.984 . S
C129 O127 1.353 . S
C129 O128 1.286 . S
C129 C131 1.363 . S
C130 C120 1.465 . S
C130 U126 2.847 . S
C130 O144 1.249 . S
C130 O145 1.202 . S
C131 C129 1.363 . S
C131 C133 1.408 . S
C131 C136 1.342 . S
C132 C133 1.310 . S
C132 C135 1.461 . S
C132 H152 0.932 . S
C133 C131 1.408 . S
C133 C132 1.310 . S
C133 H153 0.930 . S
C134 C135 1.474 1_556 S
C134 C136 1.285 1_556 S
C134 H154 0.929 . S
C135 C132 1.461 . S
C135 C134 1.474 1_554 S
C136 C131 1.342 . S
C136 C134 1.285 1_554 S
C136 H155 0.930 1_554 S
C137 C140 1.424 . S
C137 C142 1.245 . S
C137 C143 1.428 1_556 S
C138 C141 1.260 . S
C138 C142 1.477 . S
C138 H156 0.932 . S
C139 C140 1.384 . S
C139 C141 1.479 . S
C139 H157 0.929 . S
C140 C137 1.424 . S
C140 C139 1.384 . S
C140 H158 0.928 1_556 S
C141 C138 1.260 . S
C141 C139 1.479 . S
C142 C137 1.245 . S
C142 C138 1.477 . S
C142 H159 0.932 . S
C143 U126 2.882 . S
C143 C137 1.428 1_554 S
C143 O146 1.301 . S
C143 O147 1.282 . S
O144 U126 2.441 . S
O144 C130 1.249 . S
O145 U126 2.420 . S
O145 C130 1.202 . S
O146 U126 2.455 . S
O146 C143 1.301 . S
O147 U126 2.449 . S
O147 C143 1.282 . S
H148 C121 0.931 . S
H149 C123 0.929 . S
H150 C124 0.930 . S
H151 C125 0.931 . S
H152 C132 0.932 . S
H153 C133 0.930 . S
H154 C134 0.929 . S
H155 C136 0.930 1_556 S
H156 C138 0.932 . S
H157 C139 0.929 . S
H158 C140 0.928 1_554 S
H159 C142 0.932 . S
C160 C161 1.264 . S
C160 C165 1.479 . S
C160 C170 1.465 . S
C161 C160 1.264 . S
C161 C163 1.339 . S
C161 H188 0.931 . S
C162 C163 1.395 . S
C162 C164 1.320 . S
C163 C161 1.339 . S
C163 C162 1.395 . S
C163 H189 0.929 . S
C164 C162 1.320 . S
C164 C165 1.405 . S
C164 H190 0.930 . S
C165 C160 1.479 . S
C165 C164 1.405 . S
C165 H191 0.931 . S
U166 O167 2.454 . S
U166 O168 2.458 1_556 S
U166 C169 2.984 1_556 S
U166 C170 2.847 . S
U166 C183 2.882 1_556 S
U166 O184 2.441 . S
U166 O185 2.420 . S
U166 O186 2.455 1_556 S
U166 O187 2.449 1_556 S
O167 U166 2.454 . S
O167 C169 1.353 1_556 S
O168 U166 2.458 1_554 S
O168 C169 1.286 . S
C169 U166 2.984 1_554 S
C169 O167 1.353 1_554 S
C169 O168 1.286 . S
C169 C171 1.363 . S
C170 C160 1.465 . S
C170 U166 2.847 . S
C170 O184 1.249 . S
C170 O185 1.202 . S
C171 C169 1.363 . S
C171 C173 1.408 1_554 S
C171 C176 1.342 . S
C172 C173 1.310 . S
C172 C175 1.461 1_556 S
C172 H192 0.932 . S
C173 C171 1.408 1_556 S
C173 C172 1.310 . S
C173 H193 0.930 . S
C174 C175 1.474 . S
C174 C176 1.285 . S
C174 H194 0.929 . S
C175 C172 1.461 1_554 S
C175 C174 1.474 . S
C176 C171 1.342 . S
C176 C174 1.285 . S
C176 H195 0.930 . S
C177 C180 1.424 . S
C177 C182 1.245 . S
C177 C183 1.428 . S
C178 C181 1.260 . S
C178 C182 1.477 . S
C178 H196 0.932 . S
C179 C180 1.384 . S
C179 C181 1.479 . S
C179 H197 0.929 . S
C180 C177 1.424 . S
C180 C179 1.384 . S
C180 H198 0.928 . S
C181 C178 1.260 . S
C181 C179 1.479 . S
C182 C177 1.245 . S
C182 C178 1.477 . S
C182 H199 0.932 . S
C183 U166 2.882 1_554 S
C183 C177 1.428 . S
C183 O186 1.301 . S
C183 O187 1.282 . S
O184 U166 2.441 . S
O184 C170 1.249 . S
O185 U166 2.420 . S
O185 C170 1.202 . S
O186 U166 2.455 1_554 S
O186 C183 1.301 . S
O187 U166 2.449 1_554 S
O187 C183 1.282 . S
H188 C161 0.931 . S
H189 C163 0.929 . S
H190 C164 0.930 . S
H191 C165 0.931 . S
H192 C172 0.932 . S
H193 C173 0.930 . S
H194 C174 0.929 . S
H195 C176 0.930 . S
H196 C178 0.932 . S
H197 C179 0.929 . S
H198 C180 0.928 . S
H199 C182 0.932 . S
C200 C201 1.264 . S
C200 C205 1.479 . S
C200 C210 1.465 . S
C201 C200 1.264 . S
C201 C203 1.339 . S
C201 H228 0.931 . S
C202 C203 1.395 . S
C202 C204 1.320 . S
C203 C201 1.339 . S
C203 C202 1.395 . S
C203 H229 0.929 . S
C204 C202 1.320 . S
C204 C205 1.405 . S
C204 H230 0.930 . S
C205 C200 1.479 . S
C205 C204 1.405 . S
C205 H231 0.931 . S
U206 O207 2.454 . S
U206 O208 2.458 . S
U206 C209 2.984 . S
U206 C210 2.847 1_554 S
U206 C223 2.882 . S
U206 O224 2.441 1_554 S
U206 O225 2.420 . S
U206 O226 2.455 . S
U206 O227 2.449 . S
O207 U206 2.454 . S
O207 C209 1.353 . S
O208 U206 2.458 . S
O208 C209 1.286 . S
C209 U206 2.984 . S
C209 O207 1.353 . S
C209 O208 1.286 . S
C209 C211 1.363 . S
C210 C200 1.465 . S
C210 U206 2.847 1_556 S
C210 O224 1.249 . S
C210 O225 1.202 1_556 S
C211 C209 1.363 . S
C211 C213 1.408 . S
C211 C216 1.342 . S
C212 C213 1.310 . S
C212 C215 1.461 . S
C212 H232 0.932 . S
C213 C211 1.408 . S
C213 C212 1.310 . S
C213 H233 0.930 . S
C214 C215 1.474 . S
C214 C216 1.285 . S
C214 H234 0.929 . S
C215 C212 1.461 . S
C215 C214 1.474 . S
C216 C211 1.342 . S
C216 C214 1.285 . S
C216 H235 0.930 . S
C217 C220 1.424 . S
C217 C222 1.245 . S
C217 C223 1.428 . S
C218 C221 1.260 . S
C218 C222 1.477 . S
C218 H236 0.932 . S
C219 C220 1.384 . S
C219 C221 1.479 . S
C219 H237 0.929 . S
C220 C217 1.424 . S
C220 C219 1.384 . S
C220 H238 0.928 . S
C221 C218 1.260 . S
C221 C219 1.479 . S
C222 C217 1.245 . S
C222 C218 1.477 . S
C222 H239 0.932 . S
C223 U206 2.882 . S
C223 C217 1.428 . S
C223 O226 1.301 . S
C223 O227 1.282 . S
O224 U206 2.441 1_556 S
O224 C210 1.249 . S
O225 U206 2.420 . S
O225 C210 1.202 1_554 S
O226 U206 2.455 . S
O226 C223 1.301 . S
O227 U206 2.449 . S
O227 C223 1.282 . S
H228 C201 0.931 . S
H229 C203 0.929 . S
H230 C204 0.930 . S
H231 C205 0.931 . S
H232 C212 0.932 . S
H233 C213 0.930 . S
H234 C214 0.929 . S
H235 C216 0.930 . S
H236 C218 0.932 . S
H237 C219 0.929 . S
H238 C220 0.928 . S
H239 C222 0.932 . S
C240 C241 1.264 . S
C240 C245 1.479 . S
C240 C250 1.465 1_556 S
C241 C240 1.264 . S
C241 C243 1.339 . S
C241 H268 0.931 1_556 S
C242 C243 1.395 . S
C242 C244 1.320 . S
C243 C241 1.339 . S
C243 C242 1.395 . S
C243 H269 0.929 . S
C244 C242 1.320 . S
C244 C245 1.405 . S
C244 H270 0.922 1_545 S
C245 C240 1.479 . S
C245 C244 1.405 . S
C245 H271 0.931 . S
U246 O247 2.454 . S
U246 O248 2.458 . S
U246 C249 2.984 . S
U246 C250 2.847 . S
U246 C263 2.882 . S
U246 O264 2.441 . S
U246 O265 2.420 . S
U246 O266 2.455 . S
U246 O267 2.449 . S
O247 U246 2.454 . S
O247 C249 1.353 . S
O248 U246 2.458 . S
O248 C249 1.286 . S
C249 U246 2.984 . S
C249 O247 1.353 . S
C249 O248 1.286 . S
C249 C251 1.363 . S
C250 C240 1.465 1_554 S
C250 U246 2.847 . S
C250 O264 1.249 . S
C250 O265 1.202 . S
C251 C249 1.363 . S
C251 C253 1.408 . S
C251 C256 1.342 . S
C252 C253 1.310 . S
C252 C255 1.463 . S
C252 H272 0.932 . S
C253 C251 1.408 . S
C253 C252 1.310 . S
C253 H273 0.930 . S
C254 C255 1.475 1_565 S
C254 C256 1.286 1_565 S
C254 H274 0.929 . S
C255 C252 1.463 . S
C255 C254 1.475 1_545 S
C256 C251 1.342 . S
C256 C254 1.286 1_545 S
C256 H275 0.930 . S
C257 C260 1.424 . S
C257 C262 1.245 . S
C257 C263 1.428 . S
C258 C261 1.260 . S
C258 C262 1.477 . S
C258 H276 0.932 . S
C259 C260 1.384 . S
C259 C261 1.479 . S
C259 H277 0.929 . S
C260 C257 1.424 . S
C260 C259 1.384 . S
C260 H278 0.928 . S
C261 C258 1.260 . S
C261 C259 1.479 . S
C262 C257 1.245 . S
C262 C258 1.477 . S
C262 H279 0.932 . S
C263 U246 2.882 . S
C263 C257 1.428 . S
C263 O266 1.301 . S
C263 O267 1.282 . S
O264 U246 2.441 . S
O264 C250 1.249 . S
O265 U246 2.420 . S
O265 C250 1.202 . S
O266 U246 2.455 . S
O266 C263 1.301 . S
O267 U246 2.449 . S
O267 C263 1.282 . S
H268 C241 0.931 1_554 S
H269 C243 0.929 . S
H270 C244 0.922 1_565 S
H271 C245 0.931 . S
H272 C252 0.932 . S
H273 C253 0.930 . S
H274 C254 0.929 . S
H275 C256 0.930 . S
H276 C258 0.932 . S
H277 C259 0.929 . S
H278 C260 0.928 . S
H279 C262 0.932 . S
C280 C281 1.264 . S
C280 C285 1.479 . S
C280 C290 1.465 . S
C281 C280 1.264 . S
C281 C283 1.339 . S
C281 H308 0.931 . S
C282 C283 1.395 . S
C282 C284 1.320 . S
C283 C281 1.339 . S
C283 C282 1.395 . S
C283 H309 0.929 . S
C284 C282 1.320 . S
C284 C285 1.405 . S
C284 H310 0.930 . S
C285 C280 1.479 . S
C285 C284 1.405 . S
C285 H311 0.931 . S
U286 O287 2.454 . S
U286 O288 2.458 . S
U286 C289 2.984 . S
U286 C290 2.847 . S
U286 C303 2.882 . S
U286 O304 2.441 . S
U286 O305 2.420 . S
U286 O306 2.455 . S
U286 O307 2.449 . S
O287 U286 2.454 . S
O287 C289 1.353 . S
O288 U286 2.458 . S
O288 C289 1.286 . S
C289 U286 2.984 . S
C289 O287 1.353 . S
C289 O288 1.286 . S
C289 C291 1.363 . S
C290 C280 1.465 . S
C290 U286 2.847 . S
C290 O304 1.249 . S
C290 O305 1.202 . S
C291 C289 1.363 . S
C291 C293 1.408 . S
C291 C296 1.342 . S
C292 C293 1.310 . S
C292 C295 1.461 . S
C292 H312 0.932 . S
C293 C291 1.408 . S
C293 C292 1.310 . S
C293 H313 0.930 . S
C294 C295 1.474 . S
C294 C296 1.285 . S
C294 H314 0.929 . S
C295 C292 1.461 . S
C295 C294 1.474 . S
C296 C291 1.342 . S
C296 C294 1.285 . S
C296 H315 0.930 . S
C297 C300 1.424 . S
C297 C302 1.245 . S
C297 C303 1.428 . S
C298 C301 1.260 . S
C298 C302 1.477 . S
C298 H316 0.932 . S
C299 C300 1.384 . S
C299 C301 1.479 . S
C299 H317 0.929 . S
C300 C297 1.424 . S
C300 C299 1.384 . S
C300 H318 0.928 . S
C301 C298 1.260 . S
C301 C299 1.479 . S
C302 C297 1.245 . S
C302 C298 1.477 . S
C302 H319 0.932 . S
C303 U286 2.882 . S
C303 C297 1.428 . S
C303 O306 1.301 . S
C303 O307 1.282 . S
O304 U286 2.441 . S
O304 C290 1.249 . S
O305 U286 2.420 . S
O305 C290 1.202 . S
O306 U286 2.455 . S
O306 C303 1.301 . S
O307 U286 2.449 . S
O307 C303 1.282 . S
H308 C281 0.931 . S
H309 C283 0.929 . S
H310 C284 0.930 . S
H311 C285 0.931 . S
H312 C292 0.932 . S
H313 C293 0.930 . S
H314 C294 0.929 . S
H315 C296 0.930 . S
H316 C298 0.932 . S
H317 C299 0.929 . S
H318 C300 0.928 . S
H319 C302 0.932 . S
Dy320 O323 2.307 1_545 S
Dy320 O325 2.395 1_655 S
Dy320 O326 2.379 . S
Dy320 O328 2.339 . S
Dy320 O330 2.298 . S
Dy320 O334 2.275 1_655 S
Dy320 C342 2.738 . S
Dy321 O324 2.298 . S
Dy321 O327 2.275 1_455 S
Dy321 O329 2.307 1_565 S
Dy321 O331 2.412 . S
Dy321 O332 2.379 . S
Dy321 O335 2.339 . S
Dy321 C351 2.738 . S
C322 O334 1.254 1_565 S
C322 O335 1.257 . S
O323 Dy320 2.307 1_565 S
O323 C333 1.266 . S
O324 Dy321 2.298 . S
O324 C333 1.236 1_455 S
O325 Dy320 2.395 1_455 S
O325 C342 1.255 1_455 S
O326 Dy320 2.379 . S
O326 C342 1.249 . S
O327 Dy321 2.275 1_655 S
O327 C343 1.254 1_565 S
O328 Dy320 2.339 . S
O328 C343 1.257 . S
O329 Dy321 2.307 1_545 S
O329 C344 1.266 . S
O330 Dy320 2.298 . S
O330 C344 1.236 1_655 S
O331 Dy321 2.412 . S
O331 C351 1.290 . S
O332 Dy321 2.379 . S
O332 C351 1.249 . S
C333 O323 1.266 . S
C333 O324 1.236 1_655 S
O334 Dy320 2.275 1_455 S
O334 C322 1.254 1_545 S
O335 Dy321 2.339 . S
O335 C322 1.257 . S
C336 C339 1.344 1_655 S
C336 C340 1.328 . S
C336 C342 1.516 . S
C337 C338 1.304 1_655 S
C337 C341 1.323 . S
C338 C337 1.304 1_455 S
C338 C339 1.371 . S
C338 H352 0.930 . S
C339 C336 1.344 1_455 S
C339 C338 1.371 . S
C339 H353 0.931 . S
C340 C336 1.328 . S
C340 C341 1.433 . S
C340 H354 0.931 . S
C341 C337 1.323 . S
C341 C340 1.433 . S
C341 H355 0.933 . S
C342 Dy320 2.738 . S
C342 O325 1.255 1_655 S
C342 O326 1.249 . S
C342 C336 1.516 . S
C343 O327 1.254 1_545 S
C343 O328 1.257 . S
C344 O329 1.266 . S
C344 O330 1.236 1_455 S
C345 C348 1.344 . S
C345 C349 1.328 . S
C345 C351 1.516 . S
C346 C347 1.304 . S
C346 C350 1.323 . S
C347 C346 1.304 . S
C347 C348 1.371 . S
C347 H356 0.930 1_455 S
C348 C345 1.344 . S
C348 C347 1.371 . S
C348 H357 0.931 1_455 S
C349 C345 1.328 . S
C349 C350 1.433 . S
C349 H358 0.931 . S
C350 C346 1.323 . S
C350 C349 1.433 . S
C350 H359 0.933 . S
C351 Dy321 2.738 . S
C351 O331 1.290 . S
C351 O332 1.249 . S
C351 C345 1.516 . S
H352 C338 0.930 . S
H353 C339 0.931 . S
H354 C340 0.931 . S
H355 C341 0.933 . S
H356 C347 0.930 1_655 S
H357 C348 0.931 1_655 S
H358 C349 0.931 . S
H359 C350 0.933 . S
Dy360 O363 2.307 . S
Dy360 O365 2.395 1_565 S
Dy360 O366 2.379 . S
Dy360 O368 2.339 . S
Dy360 O370 2.298 . S
Dy360 O374 2.275 1_565 S
Dy360 C382 2.738 . S
Dy361 O364 2.298 . S
Dy361 O367 2.275 1_545 S
Dy361 O369 2.307 . S
Dy361 O371 2.395 1_545 S
Dy361 O372 2.379 . S
Dy361 O375 2.339 . S
Dy361 C391 2.738 . S
C362 O374 1.254 . S
C362 O375 1.257 . S
O363 Dy360 2.307 . S
O363 C373 1.266 . S
O364 Dy361 2.298 . S
O364 C373 1.236 1_545 S
O365 Dy360 2.395 1_545 S
O365 C382 1.255 1_545 S
O366 Dy360 2.379 . S
O366 C382 1.249 . S
O367 Dy361 2.275 1_565 S
O367 C383 1.254 . S
O368 Dy360 2.339 . S
O368 C383 1.257 . S
O369 Dy361 2.307 . S
O369 C384 1.266 . S
O370 Dy360 2.298 . S
O370 C384 1.236 1_565 S
O371 Dy361 2.395 1_565 S
O371 C391 1.255 1_565 S
O372 Dy361 2.379 . S
O372 C391 1.249 . S
C373 O363 1.266 . S
C373 O364 1.236 1_565 S
O374 Dy360 2.275 1_545 S
O374 C362 1.254 . S
O375 Dy361 2.339 . S
O375 C362 1.257 . S
C376 C379 1.320 1_565 S
C376 C380 1.328 . S
C376 C382 1.516 . S
C377 C378 1.342 . S
C377 C381 1.323 . S
C378 C377 1.342 . S
C378 C379 1.363 1_565 S
C378 H392 0.897 1_565 S
C379 C376 1.320 1_545 S
C379 C378 1.363 1_545 S
C379 H393 0.960 . S
C380 C376 1.328 . S
C380 C381 1.433 . S
C380 H394 0.931 . S
C381 C377 1.323 . S
C381 C380 1.433 . S
C381 H395 0.933 . S
C382 Dy360 2.738 . S
C382 O365 1.255 1_565 S
C382 O366 1.249 . S
C382 C376 1.516 . S
C383 O367 1.254 . S
C383 O368 1.257 . S
C384 O369 1.266 . S
C384 O370 1.236 1_545 S
C385 C388 1.328 1_545 S
C385 C389 1.328 . S
C385 C391 1.516 . S
C386 C387 1.304 . S
C386 C390 1.323 . S
C387 C386 1.304 . S
C387 C388 1.368 1_545 S
C387 H396 0.930 1_545 S
C388 C385 1.328 1_565 S
C388 C387 1.368 1_565 S
C388 H397 0.950 . S
C389 C385 1.328 . S
C389 C390 1.433 . S
C389 H398 0.931 . S
C390 C386 1.323 . S
C390 C389 1.433 . S
C390 H399 0.933 . S
C391 Dy361 2.738 . S
C391 O371 1.255 1_545 S
C391 O372 1.249 . S
C391 C385 1.516 . S
H392 C378 0.897 1_545 S
H393 C379 0.960 . S
H394 C380 0.931 . S
H395 C381 0.933 . S
H396 C387 0.930 1_565 S
H397 C388 0.950 . S
H398 C389 0.931 . S
H399 C390 0.933 . S
Dy400 O403 2.307 . S
Dy400 O405 2.395 . S
Dy400 O406 2.379 . S
Dy400 O408 2.339 . S
Dy400 O410 2.298 . S
Dy400 O414 2.275 . S
Dy400 C422 2.738 . S
Dy401 O404 2.298 . S
Dy401 O407 2.275 . S
Dy401 O409 2.307 . S
Dy401 O411 2.395 . S
Dy401 O412 2.379 . S
Dy401 O415 2.339 . S
Dy401 C431 2.738 . S
C402 O414 1.254 . S
C402 O415 1.257 . S
O403 Dy400 2.307 . S
O403 C413 1.266 . S
O404 Dy401 2.298 . S
O404 C413 1.236 . S
O405 Dy400 2.395 . S
O405 C422 1.255 . S
O406 Dy400 2.379 . S
O406 C422 1.249 . S
O407 Dy401 2.275 . S
O407 C423 1.254 . S
O408 Dy400 2.339 . S
O408 C423 1.257 . S
O409 Dy401 2.307 . S
O409 C424 1.266 . S
O410 Dy400 2.298 . S
O410 C424 1.236 . S
O411 Dy401 2.395 . S
O411 C431 1.255 . S
O412 Dy401 2.379 . S
O412 C431 1.249 . S
C413 O403 1.266 . S
C413 O404 1.236 . S
O414 Dy400 2.275 . S
O414 C402 1.254 . S
O415 Dy401 2.339 . S
O415 C402 1.257 . S
C416 C419 1.344 . S
C416 C420 1.328 . S
C416 C422 1.516 . S
C417 C418 1.304 . S
C417 C421 1.323 . S
C418 C417 1.304 . S
C418 C419 1.371 . S
C418 H432 0.930 1_556 S
C419 C416 1.344 . S
C419 C418 1.371 . S
C419 H433 0.931 . S
C420 C416 1.328 . S
C420 C421 1.433 . S
C420 H434 0.931 . S
C421 C417 1.323 . S
C421 C420 1.433 . S
C421 H435 0.933 . S
C422 Dy400 2.738 . S
C422 O405 1.255 . S
C422 O406 1.249 . S
C422 C416 1.516 . S
C423 O407 1.254 . S
C423 O408 1.257 . S
C424 O409 1.266 . S
C424 O410 1.236 . S
C425 C428 1.344 . S
C425 C429 1.328 . S
C425 C431 1.516 . S
C426 C427 1.304 . S
C426 C430 1.323 . S
C427 C426 1.304 . S
C427 C428 1.371 . S
C427 H436 0.930 . S
C428 C425 1.344 . S
C428 C427 1.371 . S
C428 H437 0.931 . S
C429 C425 1.328 . S
C429 C430 1.433 . S
C429 H438 0.931 . S
C430 C426 1.323 . S
C430 C429 1.433 . S
C430 H439 0.933 . S
C431 Dy401 2.738 . S
C431 O411 1.255 . S
C431 O412 1.249 . S
C431 C425 1.516 . S
H432 C418 0.930 1_554 S
H433 C419 0.931 . S
H434 C420 0.931 . S
H435 C421 0.933 . S
H436 C427 0.930 . S
H437 C428 0.931 . S
H438 C429 0.931 . S
H439 C430 0.933 . S
Dy440 O443 2.307 1_455 S
Dy440 O445 2.395 . S
Dy440 O446 2.379 . S
Dy440 O448 2.339 . S
Dy440 O450 2.298 . S
Dy440 O454 2.275 . S
Dy440 C462 2.738 . S
Dy441 O444 2.298 . S
Dy441 O447 2.284 . S
Dy441 O449 2.307 1_655 S
Dy441 O451 2.395 . S
Dy441 O452 2.379 . S
Dy441 O455 2.339 . S
Dy441 C471 2.738 . S
C442 O454 1.254 . S
C442 O455 1.257 1_455 S
O443 Dy440 2.307 1_655 S
O443 C453 1.266 . S
O444 Dy441 2.298 . S
O444 C453 1.236 . S
O445 Dy440 2.395 . S
O445 C462 1.255 . S
O446 Dy440 2.379 . S
O446 C462 1.249 . S
O447 Dy441 2.284 . S
O447 C463 1.247 1_655 S
O448 Dy440 2.339 . S
O448 C463 1.257 . S
O449 Dy441 2.307 1_455 S
O449 C464 1.266 . S
O450 Dy440 2.298 . S
O450 C464 1.236 . S
O451 Dy441 2.395 . S
O451 C471 1.255 . S
O452 Dy441 2.379 . S
O452 C471 1.249 . S
C453 O443 1.266 . S
C453 O444 1.236 . S
O454 Dy440 2.275 . S
O454 C442 1.254 . S
O455 Dy441 2.339 . S
O455 C442 1.257 1_655 S
C456 C459 1.344 . S
C456 C460 1.328 . S
C456 C462 1.516 . S
C457 C458 1.304 . S
C457 C461 1.323 . S
C458 C457 1.304 . S
C458 C459 1.371 . S
C458 H472 0.930 . S
C459 C456 1.344 . S
C459 C458 1.371 . S
C459 H473 0.931 . S
C460 C456 1.328 . S
C460 C461 1.433 . S
C460 H474 0.931 . S
C461 C457 1.323 . S
C461 C460 1.433 . S
C461 H475 0.933 . S
C462 Dy440 2.738 . S
C462 O445 1.255 . S
C462 O446 1.249 . S
C462 C456 1.516 . S
C463 O447 1.247 1_455 S
C463 O448 1.257 . S
C464 O449 1.266 . S
C464 O450 1.236 . S
C465 C468 1.344 . S
C465 C469 1.328 . S
C465 C471 1.516 . S
C466 C467 1.304 . S
C466 C470 1.323 1_554 S
C467 C466 1.304 . S
C467 C468 1.371 1_554 S
C467 H476 0.930 . S
C468 C465 1.344 . S
C468 C467 1.371 1_556 S
C468 H477 0.931 . S
C469 C465 1.328 . S
C469 C470 1.433 . S
C469 H478 0.931 . S
C470 C466 1.323 1_556 S
C470 C469 1.433 . S
C470 H479 0.933 . S
C471 Dy441 2.738 . S
C471 O451 1.255 . S
C471 O452 1.249 . S
C471 C465 1.516 . S
H472 C458 0.930 . S
H473 C459 0.931 . S
H474 C460 0.931 . S
H475 C461 0.933 . S
H476 C467 0.930 . S
H477 C468 0.931 . S
H478 C469 0.931 . S
H479 C470 0.933 . S
H480 C486 0.929 . S
H481 C489 0.930 . S
H482 C490 0.930 . S
H483 C491 0.930 . S
H484 C494 0.929 . S
H485 C495 0.935 . S
C486 H480 0.929 . S
C486 C487 1.359 . S
C486 C488 1.412 . S
C487 C486 1.359 . S
C487 C489 1.419 . S
C488 C486 1.412 . S
C488 C493 1.424 . S
C488 C495 1.403 1_545 S
C489 H481 0.930 . S
C489 C487 1.419 . S
C489 C490 1.362 . S
C490 H482 0.930 . S
C490 C489 1.362 . S
C490 C493 1.413 . S
C491 H483 0.930 . S
C491 C492 1.353 . S
C491 C493 1.413 1_565 S
C492 C491 1.353 . S
C492 C494 1.418 . S
C493 C488 1.424 . S
C493 C490 1.413 . S
C493 C491 1.413 1_545 S
C494 H484 0.929 . S
C494 C492 1.418 . S
C494 C495 1.363 . S
C495 H485 0.935 . S
C495 C488 1.403 1_565 S
C495 C494 1.363 . S
H496 C502 0.930 . S
H497 C505 0.930 . S
H498 C506 0.930 . S
H499 C507 0.930 . S
H500 C510 0.930 . S
H501 C511 0.930 . S
C502 H496 0.930 . S
C502 C503 1.355 . S
C502 C504 1.415 . S
C503 C502 1.355 . S
C503 C505 1.419 . S
C504 C502 1.415 . S
C504 C509 1.425 . S
C504 C511 1.409 . S
C505 H497 0.930 . S
C505 C503 1.419 . S
C505 C506 1.362 . S
C506 H498 0.930 . S
C506 C505 1.362 . S
C506 C509 1.409 . S
C507 H499 0.930 . S
C507 C508 1.355 . S
C507 C509 1.415 . S
C508 C507 1.355 . S
C508 C510 1.419 . S
C509 C504 1.425 . S
C509 C506 1.409 . S
C509 C507 1.415 . S
C510 H500 0.930 . S
C510 C508 1.419 . S
C510 C511 1.362 . S
C511 H501 0.930 . S
C511 C504 1.409 . S
C511 C510 1.362 . S
H512 C518 0.930 . S
H513 C521 0.930 . S
H514 C522 0.930 . S
H515 C523 0.930 . S
H516 C526 0.930 . S
H517 C527 0.930 . S
C518 H512 0.930 . S
C518 C519 1.355 . S
C518 C520 1.415 . S
C519 C518 1.355 . S
C519 C521 1.419 . S
C520 C518 1.415 . S
C520 C525 1.425 . S
C520 C527 1.409 . S
C521 H513 0.930 . S
C521 C519 1.419 . S
C521 C522 1.362 . S
C522 H514 0.930 . S
C522 C521 1.362 . S
C522 C525 1.409 . S
C523 H515 0.930 . S
C523 C524 1.355 . S
C523 C525 1.415 . S
C524 C523 1.355 . S
C524 C526 1.419 . S
C525 C520 1.425 . S
C525 C522 1.409 . S
C525 C523 1.415 . S
C526 H516 0.930 . S
C526 C524 1.419 . S
C526 C527 1.362 . S
C527 H517 0.930 . S
C527 C520 1.409 . S
C527 C526 1.362 . S
H528 C534 0.930 . S
H529 C537 0.930 . S
H530 C538 0.930 . S
H531 C539 0.930 . S
H532 C542 0.930 . S
H533 C543 0.930 . S
C534 H528 0.930 . S
C534 C535 1.355 . S
C534 C536 1.415 . S
C535 C534 1.355 . S
C535 C537 1.419 1_455 S
C536 C534 1.415 . S
C536 C541 1.425 1_455 S
C536 C543 1.409 . S
C537 H529 0.930 . S
C537 C535 1.419 1_655 S
C537 C538 1.362 . S
C538 H530 0.930 . S
C538 C537 1.362 . S
C538 C541 1.409 . S
C539 H531 0.930 . S
C539 C540 1.355 1_655 S
C539 C541 1.415 . S
C540 C539 1.355 1_455 S
C540 C542 1.419 . S
C541 C536 1.425 1_655 S
C541 C538 1.409 . S
C541 C539 1.415 . S
C542 H532 0.930 . S
C542 C540 1.419 . S
C542 C543 1.362 . S
C543 H533 0.930 . S
C543 C536 1.409 . S
C543 C542 1.362 . S
H544 C550 0.930 . S
H545 C553 0.930 . S
H546 C554 0.930 . S
H547 C555 0.930 . S
H548 C558 0.930 . S
H549 C559 0.919 1_554 S
C550 H544 0.930 . S
C550 C551 1.357 . S
C550 C552 1.415 . S
C551 C550 1.357 . S
C551 C553 1.417 1_545 S
C552 C550 1.415 . S
C552 C557 1.425 1_544 S
C552 C559 1.407 1_554 S
C553 H545 0.930 . S
C553 C551 1.417 1_565 S
C553 C554 1.362 1_554 S
C554 H546 0.930 . S
C554 C553 1.362 1_556 S
C554 C557 1.409 . S
C555 H547 0.930 . S
C555 C556 1.363 . S
C555 C557 1.415 . S
C556 C555 1.363 . S
C556 C558 1.412 1_565 S
C557 C552 1.425 1_566 S
C557 C554 1.409 . S
C557 C555 1.415 . S
C558 H548 0.930 . S
C558 C556 1.412 1_545 S
C558 C559 1.375 . S
C559 H549 0.919 1_556 S
C559 C552 1.407 1_556 S
C559 C558 1.375 . S
H560 C566 0.930 . S
H561 C569 0.930 . S
H562 C570 0.930 . S
H563 C571 0.930 . S
H564 C574 0.930 . S
H565 C575 0.930 . S
C566 H560 0.930 . S
C566 C567 1.355 . S
C566 C568 1.415 . S
C567 C566 1.355 . S
C567 C569 1.419 . S
C568 C566 1.415 . S
C568 C573 1.425 . S
C568 C575 1.409 . S
C569 H561 0.930 . S
C569 C567 1.419 . S
C569 C570 1.362 . S
C570 H562 0.930 . S
C570 C569 1.362 . S
C570 C573 1.409 . S
C571 H563 0.930 . S
C571 C572 1.355 . S
C571 C573 1.415 . S
C572 C571 1.355 . S
C572 C574 1.419 . S
C573 C568 1.425 . S
C573 C570 1.409 . S
C573 C571 1.415 . S
C574 H564 0.930 . S
C574 C572 1.419 . S
C574 C575 1.362 . S
C575 H565 0.930 . S
C575 C568 1.409 . S
C575 C574 1.362 . S
H576 C582 0.930 . S
H577 C585 0.930 . S
H578 C586 0.930 . S
H579 C587 0.930 . S
H580 C590 0.930 . S
H581 C591 0.930 . S
C582 H576 0.930 . S
C582 C583 1.355 . S
C582 C584 1.415 . S
C583 C582 1.355 . S
C583 C585 1.419 . S
C584 C582 1.415 . S
C584 C589 1.425 . S
C584 C591 1.409 . S
C585 H577 0.930 . S
C585 C583 1.419 . S
C585 C586 1.362 . S
C586 H578 0.930 . S
C586 C585 1.362 . S
C586 C589 1.409 . S
C587 H579 0.930 . S
C587 C588 1.355 . S
C587 C589 1.415 . S
C588 C587 1.355 . S
C588 C590 1.419 . S
C589 C584 1.425 . S
C589 C586 1.409 . S
C589 C587 1.415 . S
C590 H580 0.930 . S
C590 C588 1.419 . S
C590 C591 1.362 . S
C591 H581 0.930 . S
C591 C584 1.409 . S
C591 C590 1.362 . S
H592 C598 0.930 . S
H593 C601 0.930 . S
H594 C602 0.930 . S
H595 C603 0.930 . S
H596 C606 0.930 . S
H597 C607 0.930 1_554 S
C598 H592 0.930 . S
C598 C599 1.355 . S
C598 C600 1.415 . S
C599 C598 1.355 . S
C599 C601 1.419 1_655 S
C600 C598 1.415 . S
C600 C605 1.418 1_655 S
C600 C607 1.409 1_554 S
C601 H593 0.930 . S
C601 C599 1.419 1_455 S
C601 C602 1.362 . S
C602 H594 0.930 . S
C602 C601 1.362 . S
C602 C605 1.421 . S
C603 H595 0.930 . S
C603 C604 1.351 1_455 S
C603 C605 1.413 1_556 S
C604 C603 1.351 1_655 S
C604 C606 1.421 . S
C605 C600 1.418 1_455 S
C605 C602 1.421 . S
C605 C603 1.413 1_554 S
C606 H596 0.930 . S
C606 C604 1.421 . S
C606 C607 1.362 . S
C607 H597 0.930 1_556 S
C607 C600 1.409 1_556 S
C607 C606 1.362 . S
H608 C614 0.930 . S
H609 C617 0.930 . S
H610 C618 0.930 . S
H611 C619 0.930 . S
H612 C622 0.930 . S
H613 C623 0.930 . S
C614 H608 0.930 . S
C614 C615 1.355 . S
C614 C616 1.415 . S
C615 C614 1.355 . S
C615 C617 1.419 1_455 S
C616 C614 1.415 . S
C616 C621 1.425 1_455 S
C616 C623 1.409 . S
C617 H609 0.930 . S
C617 C615 1.419 1_655 S
C617 C618 1.362 . S
C618 H610 0.930 . S
C618 C617 1.362 . S
C618 C621 1.409 . S
C619 H611 0.930 . S
C619 C620 1.355 . S
C619 C621 1.415 . S
C620 C619 1.355 . S
C620 C622 1.419 1_655 S
C621 C616 1.425 1_655 S
C621 C618 1.409 . S
C621 C619 1.415 . S
C622 H612 0.930 . S
C622 C620 1.419 1_455 S
C622 C623 1.362 . S
C623 H613 0.930 . S
C623 C616 1.409 . S
C623 C622 1.362 . S
H624 C630 0.930 . S
H625 C633 0.930 . S
H626 C634 0.930 . S
H627 C635 0.930 . S
H628 C638 0.930 . S
H629 C639 0.930 . S
C630 H624 0.930 . S
C630 C631 1.355 1_565 S
C630 C632 1.415 . S
C631 C630 1.355 1_545 S
C631 C633 1.419 . S
C632 C630 1.415 . S
C632 C637 1.425 . S
C632 C639 1.409 . S
C633 H625 0.930 . S
C633 C631 1.419 . S
C633 C634 1.362 . S
C634 H626 0.930 . S
C634 C633 1.362 . S
C634 C637 1.409 1_545 S
C635 H627 0.930 . S
C635 C636 1.355 . S
C635 C637 1.415 . S
C636 C635 1.355 . S
C636 C638 1.419 . S
C637 C632 1.425 . S
C637 C634 1.409 1_565 S
C637 C635 1.415 . S
C638 H628 0.930 . S
C638 C636 1.419 . S
C638 C639 1.362 . S
C639 H629 0.930 . S
C639 C632 1.409 . S
C639 C638 1.362 . S
H640 C646 0.930 . S
H641 C649 0.930 . S
H642 C650 0.930 . S
H643 C651 0.930 . S
H644 C654 0.930 . S
H645 C655 0.930 . S
C646 H640 0.930 . S
C646 C647 1.355 . S
C646 C648 1.415 . S
C647 C646 1.355 . S
C647 C649 1.419 . S
C648 C646 1.415 . S
C648 C653 1.425 . S
C648 C655 1.409 . S
C649 H641 0.930 . S
C649 C647 1.419 . S
C649 C650 1.362 . S
C650 H642 0.930 . S
C650 C649 1.362 . S
C650 C653 1.409 . S
C651 H643 0.930 . S
C651 C652 1.355 . S
C651 C653 1.415 . S
C652 C651 1.355 . S
C652 C654 1.419 . S
C653 C648 1.425 . S
C653 C650 1.409 . S
C653 C651 1.415 . S
C654 H644 0.930 . S
C654 C652 1.419 . S
C654 C655 1.362 . S
C655 H645 0.930 . S
C655 C648 1.409 . S
C655 C654 1.362 . S
H656 C662 0.930 . S
H657 C665 0.930 . S
H658 C666 0.930 . S
H659 C667 0.930 . S
H660 C670 0.930 . S
H661 C671 0.930 . S
C662 H656 0.930 . S
C662 C663 1.355 . S
C662 C664 1.415 . S
C663 C662 1.355 . S
C663 C665 1.419 . S
C664 C662 1.415 . S
C664 C669 1.425 . S
C664 C671 1.409 . S
C665 H657 0.930 . S
C665 C663 1.419 . S
C665 C666 1.362 . S
C666 H658 0.930 . S
C666 C665 1.362 . S
C666 C669 1.409 . S
C667 H659 0.930 . S
C667 C668 1.355 . S
C667 C669 1.415 . S
C668 C667 1.355 . S
C668 C670 1.419 . S
C669 C664 1.425 . S
C669 C666 1.409 . S
C669 C667 1.415 . S
C670 H660 0.930 . S
C670 C668 1.419 . S
C670 C671 1.362 . S
C671 H661 0.930 . S
C671 C664 1.409 . S
C671 C670 1.362 . S
H672 C678 0.930 . S
H673 C681 0.930 . S
H674 C682 0.930 . S
H675 C683 0.930 . S
H676 C686 0.930 . S
H677 C687 0.930 . S
C678 H672 0.930 . S
C678 C679 1.355 . S
C678 C680 1.415 1_655 S
C679 C678 1.355 . S
C679 C681 1.419 1_655 S
C680 C678 1.415 1_455 S
C680 C685 1.425 . S
C680 C687 1.409 1_454 S
C681 H673 0.930 . S
C681 C679 1.419 1_455 S
C681 C682 1.362 . S
C682 H674 0.930 . S
C682 C681 1.362 . S
C682 C685 1.409 . S
C683 H675 0.930 . S
C683 C684 1.355 1_554 S
C683 C685 1.415 . S
C684 C683 1.355 1_556 S
C684 C686 1.419 . S
C685 C680 1.425 . S
C685 C682 1.409 . S
C685 C683 1.415 . S
C686 H676 0.930 . S
C686 C684 1.419 . S
C686 C687 1.362 1_455 S
C687 H677 0.930 . S
C687 C680 1.409 1_656 S
C687 C686 1.362 1_655 S
H688 C694 0.930 . S
H689 C697 0.930 . S
H690 C698 0.930 . S
H691 C699 0.930 . S
H692 C702 0.930 . S
H693 C703 0.930 . S
C694 H688 0.930 . S
C694 C695 1.329 1_546 S
C694 C696 1.415 . S
C695 C694 1.329 1_564 S
C695 C697 1.442 . S
C696 C694 1.415 . S
C696 C701 1.425 1_556 S
C696 C703 1.409 . S
C697 H689 0.930 . S
C697 C695 1.442 . S
C697 C698 1.362 . S
C698 H690 0.930 . S
C698 C697 1.362 . S
C698 C701 1.409 1_565 S
C699 H691 0.930 . S
C699 C700 1.355 1_554 S
C699 C701 1.415 . S
C700 C699 1.355 1_556 S
C700 C702 1.419 . S
C701 C696 1.425 1_554 S
C701 C698 1.409 1_545 S
C701 C699 1.415 . S
C702 H692 0.930 . S
C702 C700 1.419 . S
C702 C703 1.362 . S
C703 H693 0.930 . S
C703 C696 1.409 . S
C703 C702 1.362 . S
H704 C710 0.930 . S
H705 C713 0.930 . S
H706 C714 0.930 . S
H707 C715 0.930 . S
H708 C718 0.930 . S
H709 C719 0.930 . S
C710 H704 0.930 . S
C710 C711 1.355 . S
C710 C712 1.415 . S
C711 C710 1.355 . S
C711 C713 1.419 . S
C712 C710 1.415 . S
C712 C717 1.425 . S
C712 C719 1.409 . S
C713 H705 0.930 . S
C713 C711 1.419 . S
C713 C714 1.362 . S
C714 H706 0.930 . S
C714 C713 1.362 . S
C714 C717 1.409 . S
C715 H707 0.930 . S
C715 C716 1.355 . S
C715 C717 1.415 . S
C716 C715 1.355 . S
C716 C718 1.419 . S
C717 C712 1.425 . S
C717 C714 1.409 . S
C717 C715 1.415 . S
C718 H708 0.930 . S
C718 C716 1.419 . S
C718 C719 1.362 . S
C719 H709 0.930 . S
C719 C712 1.409 . S
C719 C718 1.362 . S
H720 C726 0.930 . S
H721 C729 0.930 . S
H722 C730 0.930 . S
H723 C731 0.930 . S
H724 C734 0.930 . S
H725 C735 0.930 . S
C726 H720 0.930 . S
C726 C727 1.355 . S
C726 C728 1.415 . S
C727 C726 1.355 . S
C727 C729 1.419 . S
C728 C726 1.415 . S
C728 C733 1.425 . S
C728 C735 1.409 . S
C729 H721 0.930 . S
C729 C727 1.419 . S
C729 C730 1.362 . S
C730 H722 0.930 . S
C730 C729 1.362 . S
C730 C733 1.409 . S
C731 H723 0.930 . S
C731 C732 1.355 . S
C731 C733 1.415 . S
C732 C731 1.355 . S
C732 C734 1.419 . S
C733 C728 1.425 . S
C733 C730 1.409 . S
C733 C731 1.415 . S
C734 H724 0.930 . S
C734 C732 1.419 . S
C734 C735 1.362 . S
C735 H725 0.930 . S
C735 C728 1.409 . S
C735 C734 1.362 . S
H736 C742 0.930 . S
H737 C745 0.930 . S
H738 C746 0.930 . S
H739 C747 0.930 . S
H740 C750 0.930 . S
H741 C751 0.930 . S
C742 H736 0.930 . S
C742 C743 1.355 1_655 S
C742 C744 1.415 1_655 S
C743 C742 1.355 1_455 S
C743 C745 1.419 . S
C744 C742 1.415 1_455 S
C744 C749 1.425 . S
C744 C751 1.409 1_455 S
C745 H737 0.930 . S
C745 C743 1.419 . S
C745 C746 1.362 . S
C746 H738 0.930 . S
C746 C745 1.362 . S
C746 C749 1.409 . S
C747 H739 0.930 . S
C747 C748 1.355 . S
C747 C749 1.415 . S
C748 C747 1.355 . S
C748 C750 1.419 1_455 S
C749 C744 1.425 . S
C749 C746 1.409 . S
C749 C747 1.415 . S
C750 H740 0.930 . S
C750 C748 1.419 1_655 S
C750 C751 1.362 . S
C751 H741 0.930 . S
C751 C744 1.409 1_655 S
C751 C750 1.362 . S
H752 C758 0.930 . S
H753 C761 0.930 . S
H754 C762 0.930 . S
H755 C763 0.930 . S
H756 C766 0.930 . S
H757 C767 0.930 . S
C758 H752 0.930 . S
C758 C759 1.374 . S
C758 C760 1.415 . S
C759 C758 1.374 . S
C759 C761 1.400 1_545 S
C760 C758 1.415 . S
C760 C765 1.425 1_545 S
C760 C767 1.409 . S
C761 H753 0.930 . S
C761 C759 1.400 1_565 S
C761 C762 1.362 . S
C762 H754 0.930 . S
C762 C761 1.362 . S
C762 C765 1.409 . S
C763 H755 0.930 . S
C763 C764 1.355 1_565 S
C763 C765 1.415 . S
C764 C763 1.355 1_545 S
C764 C766 1.419 . S
C765 C760 1.425 1_565 S
C765 C762 1.409 . S
C765 C763 1.415 . S
C766 H756 0.930 . S
C766 C764 1.419 . S
C766 C767 1.362 . S
C767 H757 0.930 . S
C767 C760 1.409 . S
C767 C766 1.362 . S
H768 C774 0.930 . S
H769 C777 0.930 . S
H770 C778 0.930 . S
H771 C779 0.930 . S
H772 C782 0.930 . S
H773 C783 0.930 . S
C774 H768 0.930 . S
C774 C775 1.355 . S
C774 C776 1.415 . S
C775 C774 1.355 . S
C775 C777 1.419 . S
C776 C774 1.415 . S
C776 C781 1.425 . S
C776 C783 1.409 . S
C777 H769 0.930 . S
C777 C775 1.419 . S
C777 C778 1.362 . S
C778 H770 0.930 . S
C778 C777 1.362 . S
C778 C781 1.409 . S
C779 H771 0.930 . S
C779 C780 1.355 . S
C779 C781 1.415 . S
C780 C779 1.355 . S
C780 C782 1.419 . S
C781 C776 1.425 . S
C781 C778 1.409 . S
C781 C779 1.415 . S
C782 H772 0.930 . S
C782 C780 1.419 . S
C782 C783 1.362 . S
C783 H773 0.930 . S
C783 C776 1.409 . S
C783 C782 1.362 . S
H784 C790 0.930 . S
H785 C793 0.930 . S
H786 C794 0.930 . S
H787 C795 0.930 . S
H788 C798 0.930 . S
H789 C799 0.930 . S
C790 H784 0.930 . S
C790 C791 1.355 . S
C790 C792 1.415 . S
C791 C790 1.355 . S
C791 C793 1.419 . S
C792 C790 1.415 . S
C792 C797 1.425 . S
C792 C799 1.409 . S
C793 H785 0.930 . S
C793 C791 1.419 . S
C793 C794 1.362 . S
C794 H786 0.930 . S
C794 C793 1.362 . S
C794 C797 1.409 . S
C795 H787 0.930 . S
C795 C796 1.355 . S
C795 C797 1.415 . S
C796 C795 1.355 . S
C796 C798 1.419 . S
C797 C792 1.425 . S
C797 C794 1.409 . S
C797 C795 1.415 . S
C798 H788 0.930 . S
C798 C796 1.419 . S
C798 C799 1.362 . S
C799 H789 0.930 . S
C799 C792 1.409 . S
C799 C798 1.362 . S
H800 C806 0.930 . S
H801 C809 0.930 . S
H802 C810 0.930 . S
H803 C811 0.930 . S
H804 C814 0.930 . S
H805 C815 0.930 . S
C806 H800 0.930 . S
C806 C807 1.355 1_455 S
C806 C808 1.415 . S
C807 C806 1.355 1_655 S
C807 C809 1.419 . S
C808 C806 1.415 . S
C808 C813 1.425 1_455 S
C808 C815 1.409 . S
C809 H801 0.930 . S
C809 C807 1.419 . S
C809 C810 1.362 . S
C810 H802 0.930 . S
C810 C809 1.362 . S
C810 C813 1.409 . S
C811 H803 0.930 . S
C811 C812 1.355 . S
C811 C813 1.415 . S
C812 C811 1.355 . S
C812 C814 1.419 1_655 S
C813 C808 1.425 1_655 S
C813 C810 1.409 . S
C813 C811 1.415 . S
C814 H804 0.930 . S
C814 C812 1.419 1_455 S
C814 C815 1.362 . S
C815 H805 0.930 . S
C815 C808 1.409 . S
C815 C814 1.362 . S
H816 C822 0.930 . S
H817 C825 0.930 . S
H818 C826 0.930 . S
H819 C827 0.930 . S
H820 C830 0.930 . S
H821 C831 0.930 . S
C822 H816 0.930 . S
C822 C823 1.355 1_545 S
C822 C824 1.415 . S
C823 C822 1.355 1_565 S
C823 C825 1.419 . S
C824 C822 1.415 . S
C824 C829 1.425 1_545 S
C824 C831 1.409 . S
C825 H817 0.930 . S
C825 C823 1.419 . S
C825 C826 1.362 . S
C826 H818 0.930 . S
C826 C825 1.362 . S
C826 C829 1.409 . S
C827 H819 0.930 . S
C827 C828 1.355 . S
C827 C829 1.415 . S
C828 C827 1.355 . S
C828 C830 1.419 1_565 S
C829 C824 1.425 1_565 S
C829 C826 1.409 . S
C829 C827 1.415 . S
C830 H820 0.930 . S
C830 C828 1.419 1_545 S
C830 C831 1.362 . S
C831 H821 0.930 . S
C831 C824 1.409 . S
C831 C830 1.362 . S
H832 C838 0.930 . S
H833 C841 0.930 . S
H834 C842 0.930 . S
H835 C843 0.930 . S
H836 C846 0.930 . S
H837 C847 0.930 . S
C838 H832 0.930 . S
C838 C839 1.355 . S
C838 C840 1.415 . S
C839 C838 1.355 . S
C839 C841 1.419 . S
C840 C838 1.415 . S
C840 C845 1.425 . S
C840 C847 1.409 . S
C841 H833 0.930 . S
C841 C839 1.419 . S
C841 C842 1.362 . S
C842 H834 0.930 . S
C842 C841 1.362 . S
C842 C845 1.409 . S
C843 H835 0.930 . S
C843 C844 1.355 . S
C843 C845 1.415 . S
C844 C843 1.355 . S
C844 C846 1.419 . S
C845 C840 1.425 . S
C845 C842 1.409 . S
C845 C843 1.415 . S
C846 H836 0.930 . S
C846 C844 1.419 . S
C846 C847 1.362 . S
C847 H837 0.930 . S
C847 C840 1.409 . S
C847 C846 1.362 . S
H848 C854 0.930 . S
H849 C857 0.930 . S
H850 C858 0.930 . S
H851 C859 0.930 . S
H852 C862 0.930 . S
H853 C863 0.930 . S
C854 H848 0.930 . S
C854 C855 1.355 . S
C854 C856 1.415 . S
C855 C854 1.355 . S
C855 C857 1.419 . S
C856 C854 1.415 . S
C856 C861 1.425 . S
C856 C863 1.409 . S
C857 H849 0.930 . S
C857 C855 1.419 . S
C857 C858 1.362 . S
C858 H850 0.930 . S
C858 C857 1.362 . S
C858 C861 1.409 . S
C859 H851 0.930 . S
C859 C860 1.355 . S
C859 C861 1.415 . S
C860 C859 1.355 . S
C860 C862 1.419 . S
C861 C856 1.425 . S
C861 C858 1.409 . S
C861 C859 1.415 . S
C862 H852 0.930 . S
C862 C860 1.419 . S
C862 C863 1.362 . S
C863 H853 0.930 . S
C863 C856 1.409 . S
C863 C862 1.362 . S
C487 C255 2.157 . S
C492 C322 2.307 . S
C508 C362 2.254 . S
C503 C295 2.139 . S
C524 C426 2.850 . S
C519 C175 2.745 . S
C540 C442 2.568 . S
C535 C215 2.276 . S
C556 C343 2.304 1_565 S
C551 C95 2.156 . S
C567 C135 2.161 1_556 S
C572 C383 2.249 . S
C583 C15 2.697 . S
C588 C417 2.813 1_554 S
C599 C55 2.330 . S
C604 C463 2.585 1_655 S
C620 C337 0.370 . S
C615 C221 0.338 . S
C636 C377 0.698 . S
C631 C261 0.623 . S
C652 C413 0.580 . S
C647 C301 0.588 . S
C663 C181 0.924 . S
C668 C457 0.910 . S
C679 C61 0.399 . S
C684 C346 0.383 . S
C700 C386 0.665 . S
C695 C101 0.620 1_565 S
C716 C424 0.680 . S
C711 C141 0.674 . S
C727 C21 0.895 . S
C732 C466 0.910 . S
C743 C202 3.033 . S
C748 C344 3.363 . S
C759 C242 2.864 . S
C764 C384 3.144 . S
C780 C402 2.168 . S
C775 C282 2.199 1_556 S
C796 C464 3.845 . S
C791 C162 3.461 . S
C807 C42 3.072 . S
C812 C333 3.383 . S
C828 C373 3.120 . S
C823 C82 2.860 1_565 S
C844 C423 2.170 . S
C839 C122 2.119 . S
C855 C2 3.468 . S
C860 C453 3.868 . S
