# Generated by pormake.
# Topology bcu-b, (8,8)-cn, num edge types: 1
# Building blocks:
#     Node 0, Type 0, BuildingBlock: TAGTUT_clean_sbu_1, # of connection points: 8
#     Node 1, Type 1, BuildingBlock: TAGTUT_clean_sbu_3, # of connection points: 8
#     Edge 2, Type (0, 1), BuildingBlock: FUNLAD_clean_linker_1, # of connection points: 2
#     Edge 3, Type (0, 1), BuildingBlock: FUNLAD_clean_linker_1, # of connection points: 2
#     Edge 4, Type (0, 1), BuildingBlock: FUNLAD_clean_linker_1, # of connection points: 2
#     Edge 5, Type (0, 1), BuildingBlock: FUNLAD_clean_linker_1, # of connection points: 2
#     Edge 6, Type (0, 1), BuildingBlock: FUNLAD_clean_linker_1, # of connection points: 2
#     Edge 7, Type (0, 1), BuildingBlock: FUNLAD_clean_linker_1, # of connection points: 2
#     Edge 8, Type (0, 1), BuildingBlock: FUNLAD_clean_linker_1, # of connection points: 2
#     Edge 9, Type (0, 1), BuildingBlock: FUNLAD_clean_linker_1, # of connection points: 2
# Relax obj value: 0.017
# Max RMSD: 0.086
# Mean RMSD: 0.075
data_MOF--net-bcu-b--node1-TAGTUT_clean_sbu_1--node2-TAGTUT_clean_sbu_3--edge1-FUNLAD_clean_linker_1
_symmetry_space_group_name_H-M    P1
_symmetry_Int_Tables_number       1
_symmetry_cell_setting            triclinic
loop_
_symmetry_equiv_pos_as_xyz
'x, y, z'
_cell_length_a     20.535951
_cell_length_b     19.576345
_cell_length_c     21.740591
_cell_angle_alpha  90.647678
_cell_angle_beta   91.733933
_cell_angle_gamma 108.41557
loop_
_atom_site_label
_atom_site_type_symbol
_atom_site_fract_x
_atom_site_fract_y
_atom_site_fract_z
_atom_type_partial_charge
C0 C 0.88048 0.17502 0.07431 0.0
C1 C 0.95756 0.17728 0.89278 0.0
C2 C 0.87953 0.88718 0.92069 0.0
Mg3 Mg 0.02012 0.17261 0.02349 0.0
O4 O 0.9756 0.07334 0.02074 0.0
Mg5 Mg 0.88049 0.03467 0.98251 0.0
Mg6 Mg 0.01583 0.00266 0.98271 0.0
O7 O 0.05283 0.92825 0.94777 0.0
Mg8 Mg 1.00253 0.83347 0.96967 0.0
Mg9 Mg 0.14907 0.96572 0.98367 0.0
C10 C 0.14695 0.11521 0.05981 0.0
C11 C 0.1269 0.07656 0.8806 0.0
O12 O 0.85067 0.11828 0.04151 0.0
O13 O 0.94606 0.20368 0.07831 0.0
O14 O 0.90873 0.11973 0.90478 0.0
O15 O 0.0087 0.20459 0.93017 0.0
O16 O 0.11985 0.16641 0.05963 0.0
O17 O 0.11536 0.05266 0.03635 0.0
C18 C 0.90401 0.91859 0.0807 0.0
O19 O 0.96416 0.93091 0.05992 0.0
O20 O 0.86227 0.9509 0.06023 0.0
O21 O 0.16683 0.86999 0.92646 0.0
O22 O 0.06319 0.78368 0.91861 0.0
O23 O 0.12886 0.89432 0.06762 0.0
C24 C 0.12725 0.80737 0.90758 0.0
O25 O 0.02244 0.81751 0.06641 0.0
O26 O 0.90143 0.83403 0.93371 0.0
C27 C 0.08128 0.8456 0.09303 0.0
O28 O 0.91681 0.95287 0.92911 0.0
O29 O 0.06902 0.07398 0.90318 0.0
O30 O 0.1639 0.03986 0.9021 0.0
C31 C 0.63165 0.62457 0.57824 0.0
C32 C 0.69124 0.3817 0.5803 0.0
C33 C 0.6125 0.36084 0.39315 0.0
Mg34 Mg 0.50953 0.66366 0.50403 0.0
Mg35 Mg 0.36677 0.53384 0.47176 0.0
O36 O 0.46157 0.57155 0.45682 0.0
Mg37 Mg 0.51767 0.51186 0.48941 0.0
O38 O 0.57715 0.45755 0.52391 0.0
Mg39 Mg 0.66659 0.51002 0.48588 0.0
Mg40 Mg 0.54643 0.35659 0.51836 0.0
C41 C 0.39465 0.40048 0.40507 0.0
O42 O 0.43483 0.45088 0.55427 0.0
O43 O 0.43777 0.71196 0.44434 0.0
O44 O 0.4442 0.33906 0.5557 0.0
O45 O 0.43381 0.64365 0.58133 0.0
O46 O 0.33994 0.61914 0.42766 0.0
O47 O 0.34659 0.54215 0.56825 0.0
O48 O 0.6044 0.56958 0.42616 0.0
O49 O 0.58977 0.67846 0.43102 0.0
C50 C 0.62134 0.63611 0.41108 0.0
C51 C 0.37578 0.68541 0.42209 0.0
O52 O 0.45934 0.42405 0.41909 0.0
O53 O 0.71575 0.44145 0.55172 0.0
O54 O 0.35154 0.43058 0.42449 0.0
O55 O 0.65167 0.42373 0.40931 0.0
O56 O 0.62801 0.34303 0.57526 0.0
O57 O 0.56412 0.32464 0.42661 0.0
O58 O 0.56956 0.60106 0.55753 0.0
O59 O 0.6769 0.59671 0.56089 0.0
C60 C 0.38025 0.59734 0.60075 0.0
C61 C 0.41303 0.38462 0.56937 0.0
H62 H 0.23108 0.08026 0.10064 0.0
C63 C 0.21251 0.12602 0.09443 0.0
H64 H 0.2244 0.23358 0.1204 0.0
H65 H 0.32575 0.19092 0.38849 0.0
H66 H 0.2141 0.10006 0.39953 0.0
H67 H 0.13834 0.05126 0.30832 0.0
H68 H 0.17356 0.09206 0.20615 0.0
C69 C 0.24245 0.18747 0.12652 0.0
C70 C 0.29465 0.19445 0.17683 0.0
C71 C 0.27328 0.1681 0.23589 0.0
C72 C 0.31588 0.19736 0.28858 0.0
C73 C 0.29385 0.1714 0.34738 0.0
C74 C 0.23029 0.11929 0.35421 0.0
C75 C 0.18769 0.09177 0.30285 0.0
C76 C 0.20861 0.11572 0.24429 0.0
H77 H 0.31393 0.32565 0.3471 0.0
C78 C 0.36786 0.3395 0.36137 0.0
H79 H 0.46162 0.31985 0.34679 0.0
H80 H 0.35686 0.24054 0.06939 0.0
H81 H 0.47136 0.32637 0.05867 0.0
H82 H 0.54441 0.3793 0.1505 0.0
H83 H 0.50387 0.34695 0.25322 0.0
C84 C 0.40724 0.30493 0.33486 0.0
C85 C 0.37799 0.25433 0.28209 0.0
C86 C 0.40399 0.27208 0.22274 0.0
C87 C 0.36188 0.24204 0.16988 0.0
C88 C 0.38711 0.26265 0.11084 0.0
C89 C 0.45254 0.31148 0.10418 0.0
C90 C 0.49367 0.3413 0.15589 0.0
C91 C 0.46974 0.32242 0.21463 0.0
H92 H 0.78986 0.21111 0.08005 0.0
C93 C 0.836 0.20975 0.10516 0.0
H94 H 0.89298 0.23143 0.18904 0.0
H95 H 0.78502 0.46401 0.30851 0.0
H96 H 0.90575 0.52718 0.3001 0.0
H97 H 0.97969 0.47408 0.24185 0.0
H98 H 0.93314 0.35651 0.19262 0.0
C99 C 0.84721 0.2337 0.16383 0.0
C100 C 0.80014 0.26701 0.19491 0.0
C101 C 0.82747 0.33726 0.22147 0.0
C102 C 0.78406 0.36908 0.25302 0.0
C103 C 0.81421 0.43761 0.28213 0.0
C104 C 0.88395 0.47471 0.27797 0.0
C105 C 0.9256 0.44478 0.2453 0.0
C106 C 0.89809 0.37695 0.21741 0.0
H107 H 0.62465 0.26742 0.34401 0.0
C108 C 0.63218 0.32469 0.3404 0.0
H109 H 0.67474 0.41931 0.29168 0.0
H110 H 0.73088 0.12616 0.16031 0.0
H111 H 0.60764 0.06901 0.15654 0.0
H112 H 0.53027 0.13418 0.19244 0.0
H113 H 0.57649 0.25544 0.23548 0.0
C114 C 0.66892 0.36234 0.29461 0.0
C115 C 0.71242 0.33193 0.25556 0.0
C116 C 0.68437 0.26413 0.22478 0.0
C117 C 0.72858 0.22965 0.19806 0.0
C118 C 0.69962 0.15762 0.17605 0.0
C119 C 0.62884 0.12368 0.17441 0.0
C120 C 0.58533 0.16012 0.195 0.0
C121 C 0.61252 0.22945 0.22009 0.0
H122 H 0.92071 0.83783 0.14345 0.0
C123 C 0.88305 0.86285 0.12766 0.0
H124 H 0.7804 0.86174 0.1323 0.0
H125 H 0.64566 0.55401 0.23168 0.0
H126 H 0.59996 0.53919 0.12623 0.0
H127 H 0.64613 0.63336 0.05011 0.0
H128 H 0.73778 0.74309 0.07906 0.0
C129 C 0.81978 0.84006 0.14983 0.0
C130 C 0.79947 0.77939 0.19355 0.0
C131 C 0.74703 0.7148 0.17539 0.0
C132 C 0.72084 0.66011 0.21901 0.0
C133 C 0.66711 0.5972 0.20031 0.0
C134 C 0.6407 0.58792 0.1399 0.0
C135 C 0.6667 0.64093 0.09705 0.0
C136 C 0.71917 0.70377 0.11432 0.0
H137 H 0.69033 0.72563 0.36336 0.0
C138 C 0.67617 0.66751 0.3682 0.0
H139 H 0.68762 0.57169 0.33133 0.0
H140 H 0.90291 0.89478 0.24469 0.0
H141 H 0.95644 0.90141 0.3462 0.0
H142 H 0.91708 0.8009 0.41784 0.0
H143 H 0.82224 0.69339 0.38813 0.0
C144 C 0.70361 0.63012 0.33048 0.0
C145 C 0.74706 0.67027 0.28053 0.0
C146 C 0.80562 0.72997 0.29621 0.0
C147 C 0.83047 0.78602 0.25361 0.0
C148 C 0.88414 0.8486 0.2735 0.0
C149 C 0.91499 0.85348 0.3321 0.0
C150 C 0.89268 0.79704 0.37253 0.0
C151 C 0.83829 0.73601 0.35514 0.0
H152 H 0.05563 0.78529 0.1797 0.0
C153 C 0.09729 0.81832 0.15282 0.0
H154 H 0.20452 0.86206 0.14387 0.0
H155 H 0.31708 0.85286 0.4103 0.0
H156 H 0.34625 0.98145 0.39519 0.0
H157 H 0.30273 0.02822 0.30338 0.0
H158 H 0.22603 0.94724 0.22833 0.0
C159 C 0.16319 0.8292 0.17123 0.0
C160 C 0.18463 0.79959 0.2284 0.0
C161 C 0.22846 0.84787 0.27262 0.0
C162 C 0.25629 0.82091 0.32414 0.0
C163 C 0.29737 0.87041 0.3688 0.0
C164 C 0.31387 0.94439 0.36107 0.0
C165 C 0.28888 0.97076 0.30964 0.0
C166 C 0.24562 0.92348 0.26643 0.0
H167 H 0.37884 0.77288 0.35762 0.0
C168 C 0.34526 0.73084 0.38486 0.0
H169 H 0.24406 0.67471 0.40859 0.0
H170 H 0.10755 0.69091 0.14947 0.0
H171 H 0.08064 0.5632 0.16377 0.0
H172 H 0.12706 0.51653 0.254 0.0
H173 H 0.20113 0.59752 0.32998 0.0
C174 C 0.27657 0.71619 0.38014 0.0
C175 C 0.24235 0.74566 0.33027 0.0
C176 C 0.19695 0.69718 0.28701 0.0
C177 C 0.16876 0.72409 0.2356 0.0
C178 C 0.12779 0.67422 0.19097 0.0
C179 C 0.11251 0.60032 0.19814 0.0
C180 C 0.13872 0.57406 0.24886 0.0
C181 C 0.181 0.62151 0.29248 0.0
H182 H 0.11623 0.70926 0.85308 0.0
C183 C 0.15333 0.75987 0.86928 0.0
H184 H 0.25707 0.82579 0.86657 0.0
H185 H 0.33919 0.55048 0.77774 0.0
H186 H 0.38146 0.56134 0.88431 0.0
H187 H 0.35841 0.6489 0.95592 0.0
H188 H 0.29218 0.7256 0.92183 0.0
C189 C 0.21795 0.77661 0.85061 0.0
C190 C 0.23613 0.72738 0.80643 0.0
C191 C 0.27572 0.68388 0.82686 0.0
C192 C 0.28991 0.63412 0.78533 0.0
C193 C 0.32825 0.59012 0.80721 0.0
C194 C 0.35251 0.59562 0.86821 0.0
C195 C 0.33934 0.6448 0.9086 0.0
C196 C 0.30129 0.68847 0.88848 0.0
H197 H 0.39075 0.65894 0.68692 0.0
C198 C 0.35595 0.61413 0.66018 0.0
H199 H 0.25367 0.54617 0.64843 0.0
H200 H 0.16188 0.8057 0.75114 0.0
H201 H 0.11775 0.79289 0.64562 0.0
H202 H 0.14014 0.70468 0.57428 0.0
H203 H 0.20683 0.62896 0.60804 0.0
C204 C 0.29053 0.58767 0.67661 0.0
C205 C 0.26535 0.62877 0.72321 0.0
C206 C 0.22426 0.671 0.70316 0.0
C207 C 0.21046 0.72107 0.74453 0.0
C208 C 0.17224 0.7652 0.72234 0.0
C209 C 0.14702 0.75886 0.66164 0.0
C210 C 0.15971 0.7093 0.62147 0.0
C211 C 0.19813 0.66606 0.64157 0.0
H212 H 0.2049 0.12412 0.81388 0.0
C213 C 0.15485 0.12384 0.8293 0.0
H214 H 0.07424 0.16897 0.81503 0.0
H215 H 0.3714 0.38825 0.7222 0.0
H216 H 0.37471 0.43977 0.82425 0.0
H217 H 0.2795 0.39086 0.89431 0.0
H218 H 0.18064 0.28821 0.86239 0.0
C219 C 0.12426 0.16728 0.80188 0.0
C220 C 0.16193 0.21471 0.75311 0.0
C221 C 0.21686 0.27703 0.77054 0.0
C222 C 0.27029 0.30672 0.72917 0.0
C223 C 0.32775 0.36499 0.75027 0.0
C224 C 0.3306 0.39492 0.80917 0.0
C225 C 0.27713 0.36721 0.84871 0.0
C226 C 0.22101 0.30846 0.83002 0.0
H227 H 0.32396 0.40085 0.61432 0.0
C228 C 0.35014 0.36164 0.60504 0.0
H229 H 0.35122 0.25562 0.61928 0.0
H230 H 0.05499 0.10641 0.70243 0.0
H231 H 0.04463 0.05979 0.59684 0.0
H232 H 0.13526 0.11268 0.52321 0.0
H233 H 0.23686 0.21199 0.55455 0.0
C234 C 0.32685 0.29613 0.62934 0.0
C235 C 0.26645 0.27537 0.66929 0.0
C236 C 0.20683 0.21875 0.64957 0.0
C237 C 0.15441 0.18846 0.69168 0.0
C238 C 0.09628 0.13061 0.67183 0.0
C239 C 0.08969 0.10376 0.61153 0.0
C240 C 0.14071 0.1336 0.57005 0.0
C241 C 0.19881 0.19037 0.58862 0.0
H242 H 0.99418 0.26701 0.82847 0.0
C243 C 0.95172 0.2189 0.83759 0.0
H244 H 0.84837 0.15997 0.81539 0.0
H245 H 0.77185 0.43283 0.73366 0.0
H246 H 0.74152 0.42994 0.84095 0.0
H247 H 0.7741 0.34899 0.9132 0.0
H248 H 0.83771 0.27105 0.87884 0.0
C249 C 0.89256 0.20547 0.80444 0.0
C250 C 0.88023 0.25977 0.76206 0.0
C251 C 0.84256 0.30455 0.78279 0.0
C252 C 0.82257 0.35017 0.74093 0.0
C253 C 0.78644 0.3956 0.76322 0.0
C254 C 0.76919 0.39487 0.82474 0.0
C255 C 0.78762 0.34936 0.86543 0.0
C256 C 0.82396 0.30472 0.84502 0.0
H257 H 0.7077 0.30779 0.6492 0.0
C258 C 0.7345 0.35469 0.62285 0.0
H259 H 0.83244 0.42772 0.60472 0.0
H260 H 0.95987 0.1882 0.70961 0.0
H261 H 0.99428 0.19523 0.6032 0.0
H262 H 0.95782 0.27274 0.53017 0.0
H263 H 0.88683 0.34418 0.56297 0.0
C264 C 0.8029 0.38282 0.63164 0.0
C265 C 0.83835 0.34939 0.67788 0.0
C266 C 0.88087 0.30917 0.65834 0.0
C267 C 0.90186 0.26424 0.70053 0.0
C268 C 0.94274 0.2232 0.67946 0.0
C269 C 0.96278 0.22672 0.61859 0.0
C270 C 0.9422 0.2704 0.57742 0.0
C271 C 0.90145 0.31103 0.59674 0.0
H272 H 0.78972 0.91752 0.88833 0.0
C273 C 0.81103 0.87334 0.89143 0.0
H274 H 0.80252 0.76801 0.86176 0.0
H275 H 0.52045 0.6352 0.7413 0.0
H276 H 0.49873 0.57854 0.84096 0.0
H277 H 0.57831 0.62593 0.93017 0.0
H278 H 0.68081 0.72969 0.91986 0.0
C279 C 0.78134 0.8123 0.85905 0.0
C280 C 0.72284 0.803 0.81459 0.0
C281 C 0.66195 0.7448 0.82225 0.0
C282 C 0.61581 0.71797 0.77124 0.0
C283 C 0.55712 0.65739 0.77886 0.0
C284 C 0.54394 0.62477 0.83581 0.0
C285 C 0.58883 0.65139 0.88601 0.0
C286 C 0.64743 0.71061 0.87952 0.0
H287 H 0.70612 0.70189 0.63943 0.0
C288 C 0.65192 0.68189 0.6256 0.0
H289 H 0.55182 0.68174 0.64637 0.0
H290 H 0.82958 0.92477 0.78483 0.0
H291 H 0.84153 0.98752 0.68897 0.0
H292 H 0.75573 0.94417 0.60358 0.0
H293 H 0.65755 0.83571 0.61426 0.0
C294 C 0.6065 0.70411 0.65686 0.0
C295 C 0.63141 0.74949 0.71316 0.0
C296 C 0.6847 0.81551 0.70857 0.0
C297 C 0.73221 0.84165 0.75876 0.0
C298 C 0.78979 0.90336 0.74988 0.0
C299 C 0.79766 0.93996 0.69454 0.0
C300 C 0.74948 0.9155 0.64641 0.0
C301 C 0.69376 0.85355 0.65295 0.0
loop_
_geom_bond_atom_site_label_1
_geom_bond_atom_site_label_2
_geom_bond_distance
_geom_bond_site_symmetry_2
_ccdc_geom_bond_type
C0 O12 1.241 . S
C0 O13 1.280 . S
C1 O14 1.277 . S
C1 O15 1.245 . S
C2 O26 1.247 . S
C2 O28 1.289 . S
Mg3 O4 1.926 . S
Mg3 O13 1.984 . S
Mg3 O15 1.988 1_554 S
Mg3 O16 2.061 1_655 S
O4 Mg3 1.926 . S
O4 Mg5 1.986 . S
O4 Mg6 1.922 1_655 S
Mg5 O4 1.986 . S
Mg5 O12 2.042 . S
Mg5 O14 2.041 1_554 S
Mg5 O20 2.038 1_545 S
Mg5 O28 2.238 1_544 S
Mg6 O4 1.922 1_455 S
Mg6 O7 1.912 1_544 S
Mg6 O17 2.116 . S
Mg6 O19 2.093 1_445 S
Mg6 O28 2.097 1_444 S
Mg6 O29 2.064 1_554 S
O7 Mg6 1.912 1_566 S
O7 Mg8 1.926 . S
O7 Mg9 1.990 1_556 S
Mg8 O7 1.926 . S
Mg8 O22 1.984 . S
Mg8 O25 1.988 1_556 S
Mg8 O26 2.061 1_455 S
Mg9 O7 1.990 1_554 S
Mg9 O17 2.227 1_565 S
Mg9 O21 2.054 1_554 S
Mg9 O23 2.050 . S
Mg9 O30 2.030 1_564 S
C10 O16 1.247 . S
C10 O17 1.289 . S
C11 O29 1.245 . S
C11 O30 1.274 . S
O12 C0 1.241 . S
O12 Mg5 2.042 . S
O13 C0 1.280 . S
O13 Mg3 1.984 . S
O14 C1 1.277 . S
O14 Mg5 2.041 1_556 S
O15 C1 1.245 . S
O15 Mg3 1.988 1_556 S
O16 Mg3 2.061 1_455 S
O16 C10 1.247 . S
O17 Mg6 2.116 . S
O17 Mg9 2.227 1_545 S
O17 C10 1.289 . S
C18 O19 1.245 . S
C18 O20 1.274 . S
O19 Mg6 2.093 1_665 S
O19 C18 1.245 . S
O20 Mg5 2.038 1_565 S
O20 C18 1.274 . S
O21 Mg9 2.054 1_556 S
O21 C24 1.241 . S
O22 Mg8 1.984 . S
O22 C24 1.280 . S
O23 Mg9 2.050 . S
O23 C27 1.277 . S
C24 O21 1.241 . S
C24 O22 1.280 . S
O25 Mg8 1.988 1_554 S
O25 C27 1.245 . S
O26 C2 1.247 . S
O26 Mg8 2.061 1_655 S
C27 O23 1.277 . S
C27 O25 1.245 . S
O28 C2 1.289 . S
O28 Mg5 2.238 1_566 S
O28 Mg6 2.097 1_666 S
O29 Mg6 2.064 1_556 S
O29 C11 1.245 . S
O30 Mg9 2.030 1_546 S
O30 C11 1.274 . S
C31 O58 1.312 . S
C31 O59 1.208 . S
C32 O53 1.331 . S
C32 O56 1.244 . S
C33 O55 1.264 . S
C33 O57 1.273 . S
Mg34 O36 1.936 . S
Mg34 O43 2.081 . S
Mg34 O45 2.023 . S
Mg34 O49 2.031 . S
Mg34 O58 2.291 . S
Mg35 O36 1.963 . S
Mg35 O46 1.942 . S
Mg35 O47 1.955 . S
Mg35 O54 1.986 . S
O36 Mg34 1.936 . S
O36 Mg35 1.963 . S
O36 Mg37 1.915 . S
Mg37 O36 1.915 . S
Mg37 O38 1.915 . S
Mg37 O42 2.013 . S
Mg37 O48 2.114 . S
Mg37 O52 2.013 . S
Mg37 O58 2.114 . S
O38 Mg37 1.915 . S
O38 Mg39 1.936 . S
O38 Mg40 1.963 . S
Mg39 O38 1.936 . S
Mg39 O48 2.291 . S
Mg39 O53 2.081 . S
Mg39 O55 2.023 . S
Mg39 O59 2.031 . S
Mg40 O38 1.963 . S
Mg40 O44 1.986 . S
Mg40 O56 1.942 . S
Mg40 O57 1.955 . S
C41 O52 1.191 . S
C41 O54 1.307 . S
O42 Mg37 2.013 . S
O42 C61 1.191 . S
O43 Mg34 2.081 . S
O43 C51 1.331 . S
O44 Mg40 1.986 . S
O44 C61 1.307 . S
O45 Mg34 2.023 . S
O45 C60 1.264 . S
O46 Mg35 1.942 . S
O46 C51 1.244 . S
O47 Mg35 1.955 . S
O47 C60 1.273 . S
O48 Mg37 2.114 . S
O48 Mg39 2.291 . S
O48 C50 1.312 . S
O49 Mg34 2.031 . S
O49 C50 1.208 . S
C50 O48 1.312 . S
C50 O49 1.208 . S
C51 O43 1.331 . S
C51 O46 1.244 . S
O52 Mg37 2.013 . S
O52 C41 1.191 . S
O53 C32 1.331 . S
O53 Mg39 2.081 . S
O54 Mg35 1.986 . S
O54 C41 1.307 . S
O55 C33 1.264 . S
O55 Mg39 2.023 . S
O56 C32 1.244 . S
O56 Mg40 1.942 . S
O57 C33 1.273 . S
O57 Mg40 1.955 . S
O58 C31 1.312 . S
O58 Mg34 2.291 . S
O58 Mg37 2.114 . S
O59 C31 1.208 . S
O59 Mg39 2.031 . S
C60 O45 1.264 . S
C60 O47 1.273 . S
C61 O42 1.191 . S
C61 O44 1.307 . S
H62 C63 0.951 . S
C63 H62 0.951 . S
C63 C69 1.265 . S
H64 C69 0.950 . S
H65 C73 0.949 . S
H66 C74 0.950 . S
H67 C75 0.951 . S
H68 C76 0.951 . S
C69 C63 1.265 . S
C69 H64 0.950 . S
C69 C70 1.478 . S
C70 C69 1.478 . S
C70 C71 1.397 . S
C70 C87 1.394 . S
C71 C70 1.397 . S
C71 C72 1.438 . S
C71 C76 1.429 . S
C72 C71 1.438 . S
C72 C73 1.428 . S
C72 C85 1.394 . S
C73 H65 0.949 . S
C73 C72 1.428 . S
C73 C74 1.345 . S
C74 H66 0.950 . S
C74 C73 1.345 . S
C74 C75 1.424 . S
C75 H67 0.951 . S
C75 C74 1.424 . S
C75 C76 1.347 . S
C76 H68 0.951 . S
C76 C71 1.429 . S
C76 C75 1.347 . S
H77 C78 0.951 . S
C78 H77 0.951 . S
C78 C84 1.265 . S
H79 C84 0.950 . S
H80 C88 0.949 . S
H81 C89 0.950 . S
H82 C90 0.951 . S
H83 C91 0.951 . S
C84 C78 1.265 . S
C84 H79 0.950 . S
C84 C85 1.478 . S
C85 C72 1.394 . S
C85 C84 1.478 . S
C85 C86 1.397 . S
C86 C85 1.397 . S
C86 C87 1.438 . S
C86 C91 1.429 . S
C87 C70 1.394 . S
C87 C86 1.438 . S
C87 C88 1.428 . S
C88 H80 0.949 . S
C88 C87 1.428 . S
C88 C89 1.345 . S
C89 H81 0.950 . S
C89 C88 1.345 . S
C89 C90 1.424 . S
C90 H82 0.951 . S
C90 C89 1.424 . S
C90 C91 1.347 . S
C91 H83 0.951 . S
C91 C86 1.429 . S
C91 C90 1.347 . S
H92 C93 0.951 . S
C93 H92 0.951 . S
C93 C99 1.265 . S
H94 C99 0.950 . S
H95 C103 0.949 . S
H96 C104 0.950 . S
H97 C105 0.951 . S
H98 C106 0.951 . S
C99 C93 1.265 . S
C99 H94 0.950 . S
C99 C100 1.478 . S
C100 C99 1.478 . S
C100 C101 1.397 . S
C100 C117 1.394 . S
C101 C100 1.397 . S
C101 C102 1.438 . S
C101 C106 1.429 . S
C102 C101 1.438 . S
C102 C103 1.428 . S
C102 C115 1.394 . S
C103 H95 0.949 . S
C103 C102 1.428 . S
C103 C104 1.345 . S
C104 H96 0.950 . S
C104 C103 1.345 . S
C104 C105 1.424 . S
C105 H97 0.951 . S
C105 C104 1.424 . S
C105 C106 1.347 . S
C106 H98 0.951 . S
C106 C101 1.429 . S
C106 C105 1.347 . S
H107 C108 0.951 . S
C108 H107 0.951 . S
C108 C114 1.265 . S
H109 C114 0.950 . S
H110 C118 0.949 . S
H111 C119 0.950 . S
H112 C120 0.951 . S
H113 C121 0.951 . S
C114 C108 1.265 . S
C114 H109 0.950 . S
C114 C115 1.478 . S
C115 C102 1.394 . S
C115 C114 1.478 . S
C115 C116 1.397 . S
C116 C115 1.397 . S
C116 C117 1.438 . S
C116 C121 1.429 . S
C117 C100 1.394 . S
C117 C116 1.438 . S
C117 C118 1.428 . S
C118 H110 0.949 . S
C118 C117 1.428 . S
C118 C119 1.345 . S
C119 H111 0.950 . S
C119 C118 1.345 . S
C119 C120 1.424 . S
C120 H112 0.951 . S
C120 C119 1.424 . S
C120 C121 1.347 . S
C121 H113 0.951 . S
C121 C116 1.429 . S
C121 C120 1.347 . S
H122 C123 0.951 . S
C123 H122 0.951 . S
C123 C129 1.265 . S
H124 C129 0.950 . S
H125 C133 0.949 . S
H126 C134 0.950 . S
H127 C135 0.951 . S
H128 C136 0.951 . S
C129 C123 1.265 . S
C129 H124 0.950 . S
C129 C130 1.478 . S
C130 C129 1.478 . S
C130 C131 1.397 . S
C130 C147 1.394 . S
C131 C130 1.397 . S
C131 C132 1.438 . S
C131 C136 1.429 . S
C132 C131 1.438 . S
C132 C133 1.428 . S
C132 C145 1.394 . S
C133 H125 0.949 . S
C133 C132 1.428 . S
C133 C134 1.345 . S
C134 H126 0.950 . S
C134 C133 1.345 . S
C134 C135 1.424 . S
C135 H127 0.951 . S
C135 C134 1.424 . S
C135 C136 1.347 . S
C136 H128 0.951 . S
C136 C131 1.429 . S
C136 C135 1.347 . S
H137 C138 0.951 . S
C138 H137 0.951 . S
C138 C144 1.265 . S
H139 C144 0.950 . S
H140 C148 0.949 . S
H141 C149 0.950 . S
H142 C150 0.951 . S
H143 C151 0.951 . S
C144 C138 1.265 . S
C144 H139 0.950 . S
C144 C145 1.478 . S
C145 C132 1.394 . S
C145 C144 1.478 . S
C145 C146 1.397 . S
C146 C145 1.397 . S
C146 C147 1.438 . S
C146 C151 1.429 . S
C147 C130 1.394 . S
C147 C146 1.438 . S
C147 C148 1.428 . S
C148 H140 0.949 . S
C148 C147 1.428 . S
C148 C149 1.345 . S
C149 H141 0.950 . S
C149 C148 1.345 . S
C149 C150 1.424 . S
C150 H142 0.951 . S
C150 C149 1.424 . S
C150 C151 1.347 . S
C151 H143 0.951 . S
C151 C146 1.429 . S
C151 C150 1.347 . S
H152 C153 0.951 . S
C153 H152 0.951 . S
C153 C159 1.265 . S
H154 C159 0.950 . S
H155 C163 0.949 . S
H156 C164 0.950 . S
H157 C165 0.951 . S
H158 C166 0.951 . S
C159 C153 1.265 . S
C159 H154 0.950 . S
C159 C160 1.478 . S
C160 C159 1.478 . S
C160 C161 1.397 . S
C160 C177 1.394 . S
C161 C160 1.397 . S
C161 C162 1.438 . S
C161 C166 1.429 . S
C162 C161 1.438 . S
C162 C163 1.428 . S
C162 C175 1.394 . S
C163 H155 0.949 . S
C163 C162 1.428 . S
C163 C164 1.345 . S
C164 H156 0.950 . S
C164 C163 1.345 . S
C164 C165 1.424 . S
C165 H157 0.951 . S
C165 C164 1.424 . S
C165 C166 1.347 . S
C166 H158 0.951 . S
C166 C161 1.429 . S
C166 C165 1.347 . S
H167 C168 0.951 . S
C168 H167 0.951 . S
C168 C174 1.265 . S
H169 C174 0.950 . S
H170 C178 0.949 . S
H171 C179 0.950 . S
H172 C180 0.951 . S
H173 C181 0.951 . S
C174 C168 1.265 . S
C174 H169 0.950 . S
C174 C175 1.478 . S
C175 C162 1.394 . S
C175 C174 1.478 . S
C175 C176 1.397 . S
C176 C175 1.397 . S
C176 C177 1.438 . S
C176 C181 1.429 . S
C177 C160 1.394 . S
C177 C176 1.438 . S
C177 C178 1.428 . S
C178 H170 0.949 . S
C178 C177 1.428 . S
C178 C179 1.345 . S
C179 H171 0.950 . S
C179 C178 1.345 . S
C179 C180 1.424 . S
C180 H172 0.951 . S
C180 C179 1.424 . S
C180 C181 1.347 . S
C181 H173 0.951 . S
C181 C176 1.429 . S
C181 C180 1.347 . S
H182 C183 0.951 . S
C183 H182 0.951 . S
C183 C189 1.265 . S
H184 C189 0.950 . S
H185 C193 0.949 . S
H186 C194 0.950 . S
H187 C195 0.951 . S
H188 C196 0.951 . S
C189 C183 1.265 . S
C189 H184 0.950 . S
C189 C190 1.478 . S
C190 C189 1.478 . S
C190 C191 1.397 . S
C190 C207 1.394 . S
C191 C190 1.397 . S
C191 C192 1.438 . S
C191 C196 1.429 . S
C192 C191 1.438 . S
C192 C193 1.428 . S
C192 C205 1.394 . S
C193 H185 0.949 . S
C193 C192 1.428 . S
C193 C194 1.345 . S
C194 H186 0.950 . S
C194 C193 1.345 . S
C194 C195 1.424 . S
C195 H187 0.951 . S
C195 C194 1.424 . S
C195 C196 1.347 . S
C196 H188 0.951 . S
C196 C191 1.429 . S
C196 C195 1.347 . S
H197 C198 0.951 . S
C198 H197 0.951 . S
C198 C204 1.265 . S
H199 C204 0.950 . S
H200 C208 0.949 . S
H201 C209 0.950 . S
H202 C210 0.951 . S
H203 C211 0.951 . S
C204 C198 1.265 . S
C204 H199 0.950 . S
C204 C205 1.478 . S
C205 C192 1.394 . S
C205 C204 1.478 . S
C205 C206 1.397 . S
C206 C205 1.397 . S
C206 C207 1.438 . S
C206 C211 1.429 . S
C207 C190 1.394 . S
C207 C206 1.438 . S
C207 C208 1.428 . S
C208 H200 0.949 . S
C208 C207 1.428 . S
C208 C209 1.345 . S
C209 H201 0.950 . S
C209 C208 1.345 . S
C209 C210 1.424 . S
C210 H202 0.951 . S
C210 C209 1.424 . S
C210 C211 1.347 . S
C211 H203 0.951 . S
C211 C206 1.429 . S
C211 C210 1.347 . S
H212 C213 0.951 . S
C213 H212 0.951 . S
C213 C219 1.265 . S
H214 C219 0.950 . S
H215 C223 0.949 . S
H216 C224 0.950 . S
H217 C225 0.951 . S
H218 C226 0.951 . S
C219 C213 1.265 . S
C219 H214 0.950 . S
C219 C220 1.478 . S
C220 C219 1.478 . S
C220 C221 1.397 . S
C220 C237 1.394 . S
C221 C220 1.397 . S
C221 C222 1.438 . S
C221 C226 1.429 . S
C222 C221 1.438 . S
C222 C223 1.428 . S
C222 C235 1.394 . S
C223 H215 0.949 . S
C223 C222 1.428 . S
C223 C224 1.345 . S
C224 H216 0.950 . S
C224 C223 1.345 . S
C224 C225 1.424 . S
C225 H217 0.951 . S
C225 C224 1.424 . S
C225 C226 1.347 . S
C226 H218 0.951 . S
C226 C221 1.429 . S
C226 C225 1.347 . S
H227 C228 0.951 . S
C228 H227 0.951 . S
C228 C234 1.265 . S
H229 C234 0.950 . S
H230 C238 0.949 . S
H231 C239 0.950 . S
H232 C240 0.951 . S
H233 C241 0.951 . S
C234 C228 1.265 . S
C234 H229 0.950 . S
C234 C235 1.478 . S
C235 C222 1.394 . S
C235 C234 1.478 . S
C235 C236 1.397 . S
C236 C235 1.397 . S
C236 C237 1.438 . S
C236 C241 1.429 . S
C237 C220 1.394 . S
C237 C236 1.438 . S
C237 C238 1.428 . S
C238 H230 0.949 . S
C238 C237 1.428 . S
C238 C239 1.345 . S
C239 H231 0.950 . S
C239 C238 1.345 . S
C239 C240 1.424 . S
C240 H232 0.951 . S
C240 C239 1.424 . S
C240 C241 1.347 . S
C241 H233 0.951 . S
C241 C236 1.429 . S
C241 C240 1.347 . S
H242 C243 0.951 . S
C243 H242 0.951 . S
C243 C249 1.265 . S
H244 C249 0.950 . S
H245 C253 0.949 . S
H246 C254 0.950 . S
H247 C255 0.951 . S
H248 C256 0.951 . S
C249 C243 1.265 . S
C249 H244 0.950 . S
C249 C250 1.478 . S
C250 C249 1.478 . S
C250 C251 1.397 . S
C250 C267 1.394 . S
C251 C250 1.397 . S
C251 C252 1.438 . S
C251 C256 1.429 . S
C252 C251 1.438 . S
C252 C253 1.428 . S
C252 C265 1.394 . S
C253 H245 0.949 . S
C253 C252 1.428 . S
C253 C254 1.345 . S
C254 H246 0.950 . S
C254 C253 1.345 . S
C254 C255 1.424 . S
C255 H247 0.951 . S
C255 C254 1.424 . S
C255 C256 1.347 . S
C256 H248 0.951 . S
C256 C251 1.429 . S
C256 C255 1.347 . S
H257 C258 0.951 . S
C258 H257 0.951 . S
C258 C264 1.265 . S
H259 C264 0.950 . S
H260 C268 0.949 . S
H261 C269 0.950 . S
H262 C270 0.951 . S
H263 C271 0.951 . S
C264 C258 1.265 . S
C264 H259 0.950 . S
C264 C265 1.478 . S
C265 C252 1.394 . S
C265 C264 1.478 . S
C265 C266 1.397 . S
C266 C265 1.397 . S
C266 C267 1.438 . S
C266 C271 1.429 . S
C267 C250 1.394 . S
C267 C266 1.438 . S
C267 C268 1.428 . S
C268 H260 0.949 . S
C268 C267 1.428 . S
C268 C269 1.345 . S
C269 H261 0.950 . S
C269 C268 1.345 . S
C269 C270 1.424 . S
C270 H262 0.951 . S
C270 C269 1.424 . S
C270 C271 1.347 . S
C271 H263 0.951 . S
C271 C266 1.429 . S
C271 C270 1.347 . S
H272 C273 0.951 . S
C273 H272 0.951 . S
C273 C279 1.265 . S
H274 C279 0.950 . S
H275 C283 0.949 . S
H276 C284 0.950 . S
H277 C285 0.951 . S
H278 C286 0.951 . S
C279 C273 1.265 . S
C279 H274 0.950 . S
C279 C280 1.478 . S
C280 C279 1.478 . S
C280 C281 1.397 . S
C280 C297 1.394 . S
C281 C280 1.397 . S
C281 C282 1.438 . S
C281 C286 1.429 . S
C282 C281 1.438 . S
C282 C283 1.428 . S
C282 C295 1.394 . S
C283 H275 0.949 . S
C283 C282 1.428 . S
C283 C284 1.345 . S
C284 H276 0.950 . S
C284 C283 1.345 . S
C284 C285 1.424 . S
C285 H277 0.951 . S
C285 C284 1.424 . S
C285 C286 1.347 . S
C286 H278 0.951 . S
C286 C281 1.429 . S
C286 C285 1.347 . S
H287 C288 0.951 . S
C288 H287 0.951 . S
C288 C294 1.265 . S
H289 C294 0.950 . S
H290 C298 0.949 . S
H291 C299 0.950 . S
H292 C300 0.951 . S
H293 C301 0.951 . S
C294 C288 1.265 . S
C294 H289 0.950 . S
C294 C295 1.478 . S
C295 C282 1.394 . S
C295 C294 1.478 . S
C295 C296 1.397 . S
C296 C295 1.397 . S
C296 C297 1.438 . S
C296 C301 1.429 . S
C297 C280 1.394 . S
C297 C296 1.438 . S
C297 C298 1.428 . S
C298 H290 0.949 . S
C298 C297 1.428 . S
C298 C299 1.345 . S
C299 H291 0.950 . S
C299 C298 1.345 . S
C299 C300 1.424 . S
C300 H292 0.951 . S
C300 C299 1.424 . S
C300 C301 1.347 . S
C301 H293 0.951 . S
C301 C296 1.429 . S
C301 C300 1.347 . S
C63 C10 1.024 . S
C78 C41 0.973 . S
C93 C0 1.597 . S
C108 C33 1.613 . S
C123 C18 1.447 . S
C138 C50 1.411 . S
C153 C27 1.687 . S
C168 C51 1.688 . S
C183 C24 1.654 . S
C198 C60 1.676 . S
C228 C61 1.358 . S
C213 C11 1.298 . S
C243 C1 1.660 . S
C258 C32 1.650 . S
C288 C31 0.995 . S
C273 C2 1.064 . S
