# Generated by pormake.
# Topology nia, (6,6)-cn, num edge types: 1
# Building blocks:
#     Node 0, Type 0, BuildingBlock: JUFBIX_clean_sbu_0, # of connection points: 6
#     Node 1, Type 0, BuildingBlock: JUFBIX_clean_sbu_0, # of connection points: 6
#     Node 2, Type 1, BuildingBlock: MIDCAF_clean_sbu_0, # of connection points: 6
#     Node 3, Type 1, BuildingBlock: MIDCAF_clean_sbu_0, # of connection points: 6
#     Edge 4, Type (0, 1), BuildingBlock: EZIPEK_clean_linker_0, # of connection points: 2
#     Edge 5, Type (0, 1), BuildingBlock: EZIPEK_clean_linker_0, # of connection points: 2
#     Edge 6, Type (0, 1), BuildingBlock: EZIPEK_clean_linker_0, # of connection points: 2
#     Edge 7, Type (0, 1), BuildingBlock: EZIPEK_clean_linker_0, # of connection points: 2
#     Edge 8, Type (0, 1), BuildingBlock: EZIPEK_clean_linker_0, # of connection points: 2
#     Edge 9, Type (0, 1), BuildingBlock: EZIPEK_clean_linker_0, # of connection points: 2
#     Edge 10, Type (0, 1), BuildingBlock: EZIPEK_clean_linker_0, # of connection points: 2
#     Edge 11, Type (0, 1), BuildingBlock: EZIPEK_clean_linker_0, # of connection points: 2
#     Edge 12, Type (0, 1), BuildingBlock: EZIPEK_clean_linker_0, # of connection points: 2
#     Edge 13, Type (0, 1), BuildingBlock: EZIPEK_clean_linker_0, # of connection points: 2
#     Edge 14, Type (0, 1), BuildingBlock: EZIPEK_clean_linker_0, # of connection points: 2
#     Edge 15, Type (0, 1), BuildingBlock: EZIPEK_clean_linker_0, # of connection points: 2
# Relax obj value: 0.169
# Max RMSD: 0.242
# Mean RMSD: 0.164
data_MOF--net-nia--node1-JUFBIX_clean_sbu_0--node2-MIDCAF_clean_sbu_0--edge1-EZIPEK_clean_linker_0
_symmetry_space_group_name_H-M    P1
_symmetry_Int_Tables_number       1
_symmetry_cell_setting            triclinic
loop_
_symmetry_equiv_pos_as_xyz
'x, y, z'
_cell_length_a     17.902218
_cell_length_b     18.014424
_cell_length_c     25.226429
_cell_angle_alpha  83.138613
_cell_angle_beta   81.893003
_cell_angle_gamma 119.30438
loop_
_atom_site_label
_atom_site_type_symbol
_atom_site_fract_x
_atom_site_fract_y
_atom_site_fract_z
_atom_type_partial_charge
Co0 Co 0.94729 0.91849 1.03727 0.0
C1 C 0.83736 0.92952 0.12516 0.0
Co2 Co 0.00664 0.03952 0.06798 0.0
C3 C 0.8958 0.80315 0.96199 0.0
C4 C 0.83376 0.73632 0.04612 0.0
N5 N 0.88958 0.81621 1.01367 0.0
N6 N 0.84622 0.71813 0.96135 0.0
C7 C 0.80716 0.67581 1.01397 0.0
H8 H 0.93759 0.85422 0.92583 0.0
H9 H 0.81532 0.72274 0.09043 0.0
C10 C 0.11786 0.0314 0.98013 0.0
N11 N 0.0689 0.13944 0.0941 0.0
C12 C 0.04704 0.19167 0.11804 0.0
C13 C 0.15123 0.16541 0.10045 0.0
N14 N 0.11248 0.24701 0.13969 0.0
C15 C 0.1775 0.23013 0.12874 0.0
C16 C 0.02951 0.90777 0.11923 0.0
O17 O 0.05114 0.95795 0.98107 0.0
O18 O 0.11061 0.07518 1.01416 0.0
O19 O 0.04157 -0.01678 0.11847 0.0
O20 O -0.01089 0.86528 0.08575 0.0
O21 O 0.90387 0.00421 0.12159 0.0
H22 H 0.19003 0.1382 0.08615 0.0
H23 H -0.01515 0.18878 0.12005 0.0
O24 O 0.84332 0.88102 0.09392 0.0
O25 O 0.90594 0.97065 0.98899 0.0
O26 O -0.03144 0.09445 1.01658 0.0
C27 C 0.92137 0.04787 0.98639 0.0
H28 H 0.76445 0.60585 1.02803 0.0
H29 H 0.24098 0.26481 0.13893 0.0
Co30 Co 0.04356 0.00866 0.56139 0.0
C31 C 0.03197 0.1314 0.4874 0.0
Co32 Co 0.91553 0.96208 0.54045 0.0
C33 C 0.1719 0.0484 0.62738 0.0
C34 C 0.2313 0.10245 0.54155 0.0
N35 N 0.15267 0.05312 0.57763 0.0
N36 N 0.25938 0.09327 0.6234 0.0
C37 C 0.29714 0.1273 0.56968 0.0
H38 H 0.12299 0.01463 0.66573 0.0
H39 H 0.24005 0.12076 0.49772 0.0
C40 C 0.924 0.83694 0.61251 0.0
N41 N 0.80665 0.91757 0.52457 0.0
C42 C 0.78742 0.91757 0.47474 0.0
C43 C 0.7281 0.87397 0.56099 0.0
N44 N 0.69999 0.87524 0.47895 0.0
C45 C 0.66219 0.84762 0.5329 0.0
C46 C 0.03091 0.93415 0.47059 0.0
O47 O 0.00398 0.89639 0.60665 0.0
O48 O 0.87473 0.85506 0.5893 0.0
O49 O 0.95311 0.92039 0.48163 0.0
O50 O 0.08192 -0.02702 0.50098 0.0
O51 O 0.95477 0.06837 0.49184 0.0
H52 H 0.71945 0.86075 0.60509 0.0
H53 H 0.8362 0.94618 0.43624 0.0
O54 O 0.08216 0.12056 0.51452 0.0
O55 O 0.00503 0.04447 0.62252 0.0
O56 O 0.8799 0.00453 0.59875 0.0
C57 C 0.93093 0.03941 0.6301 0.0
H58 H 0.36722 0.16842 0.55235 0.0
H59 H 0.592 0.80978 0.55047 0.0
Zn60 Zn 0.3172 0.73018 0.20561 0.0
Zn61 Zn 0.24353 0.65323 0.41446 0.0
Zn62 Zn 0.27812 0.67895 0.30593 0.0
C63 C 0.42581 0.75004 0.37629 0.0
C64 C 0.17687 0.48913 0.38649 0.0
O65 O 0.21025 0.74792 0.27779 0.0
O66 O 0.27486 0.80827 0.19014 0.0
C67 C 0.4764 0.78376 0.2247 0.0
O68 O 0.40492 0.74124 0.3297 0.0
O69 O 0.36739 0.71838 0.42032 0.0
O70 O 0.18484 0.52537 0.42689 0.0
O71 O 0.20624 0.53533 0.33704 0.0
O72 O 0.44445 0.77922 0.18302 0.0
O73 O 0.42533 0.75367 0.27321 0.0
O74 O 0.22286 0.5556 0.27827 0.0
O75 O 0.23939 0.61473 0.1925 0.0
C76 C 0.212 0.54778 0.22949 0.0
O77 O 0.20118 0.7384 0.33489 0.0
O78 O 0.17244 0.70871 0.42572 0.0
C79 C 0.21779 0.79369 0.23173 0.0
C80 C 0.16621 0.7437 0.38152 0.0
Zn81 Zn 0.63992 0.26778 0.9065 0.0
Zn82 Zn 0.71582 0.30291 0.69311 0.0
Zn83 Zn 0.67924 0.28734 0.79897 0.0
C84 C 0.78509 0.47192 0.70757 0.0
C85 C 0.53286 0.21034 0.72836 0.0
O86 O 0.74166 0.2196 0.83542 0.0
O87 O 0.70281 0.20804 0.92481 0.0
C88 C 0.73898 0.4467 0.86016 0.0
O89 O 0.751 0.42985 0.75809 0.0
O90 O 0.78235 0.431 0.66993 0.0
O91 O 0.59254 0.2396 0.68514 0.0
O92 O 0.55238 0.22148 0.7751 0.0
O93 O 0.69889 0.39348 0.90583 0.0
O94 O 0.73936 0.41963 0.8152 0.0
O95 O 0.53255 0.21278 0.83153 0.0
O96 O 0.5105 0.19903 0.92169 0.0
C97 C 0.48015 0.18447 0.87949 0.0
O98 O 0.7555 0.22168 0.77894 0.0
O99 O 0.78091 0.24203 0.68836 0.0
C100 C 0.74379 0.19574 0.88523 0.0
C101 C 0.78805 0.21086 0.73349 0.0
C102 C 0.16112 0.93389 0.15497 0.0
C103 C 0.07184 0.876 0.1548 0.0
C104 C 0.06899 0.76456 0.22283 0.0
C105 C 0.15728 0.82518 0.22373 0.0
N106 N 0.27435 -0.02591 0.20638 0.0
N107 N 0.93576 0.7398 0.19506 0.0
C108 C 0.19772 0.91267 0.19592 0.0
C109 C 0.02381 0.79245 0.19105 0.0
N110 N 0.21388 0.00435 0.1126 0.0
N111 N 0.03046 0.67931 0.24917 0.0
H112 H 0.90183 0.75507 0.1698 0.0
H113 H 0.89541 0.68321 0.22543 0.0
H114 H 0.05952 0.6575 0.27501 0.0
H115 H -0.02882 0.62961 0.24389 0.0
H116 H 0.28126 0.04485 0.10893 0.0
H117 H 0.19286 0.01476 0.07745 0.0
H118 H 0.30406 0.04053 0.18955 0.0
H119 H 0.30221 0.95842 0.23633 0.0
C120 C 0.33766 0.05286 0.68239 0.0
C121 C 0.30546 0.10784 0.66681 0.0
C122 C 0.40112 0.21616 0.71357 0.0
C123 C 0.44075 0.1659 0.72312 0.0
N124 N 0.43268 0.02796 0.73276 0.0
N125 N 0.28737 0.22879 0.67776 0.0
C126 C 0.4034 0.08067 0.7133 0.0
C127 C 0.33028 0.18493 0.68662 0.0
N128 N 0.30862 -0.02318 0.6646 0.0
N129 N 0.43517 0.2957 0.72731 0.0
H130 H 0.23619 0.20668 0.65733 0.0
H131 H 0.29801 0.28323 0.69328 0.0
H132 H 0.48539 0.31817 0.74851 0.0
H133 H 0.41529 0.33998 0.71736 0.0
H134 H 0.33486 0.93683 0.66963 0.0
H135 H 0.25884 0.95495 0.64303 0.0
H136 H 0.40542 0.963 0.73002 0.0
H137 H 0.48056 0.04811 0.75582 0.0
C138 C 0.07808 0.31151 0.21426 0.0
C139 C 0.12338 0.32137 0.16064 0.0
C140 C 0.23377 0.4693 0.16094 0.0
C141 C 0.1832 0.46497 0.21114 0.0
N142 N 0.04852 0.38486 0.28181 0.0
N143 N 0.22872 0.41643 0.07743 0.0
C144 C 0.10262 0.38674 0.23711 0.0
C145 C 0.19557 0.40312 0.13209 0.0
N146 N 0.01422 0.23045 0.24374 0.0
N147 N 0.31999 0.53434 0.14212 0.0
H148 H 0.19996 0.3685 0.0551 0.0
H149 H 0.278 0.47736 0.05371 0.0
H150 H 0.3534 0.58031 0.16463 0.0
H151 H 0.36085 0.53579 0.10768 0.0
H152 H -0.01466 0.21807 0.28512 0.0
H153 H -0.00537 0.17493 0.22743 0.0
H154 H -0.01419 0.33131 0.29945 0.0
H155 H 0.06352 0.43938 0.29847 0.0
C156 C 0.95827 0.17044 0.66969 0.0
C157 C 0.90593 0.07931 0.67225 0.0
C158 C 0.78529 0.07043 0.73799 0.0
C159 C 0.83471 0.16216 0.73117 0.0
N160 N -0.02457 0.29387 0.70819 0.0
N161 N 0.7828 0.93915 0.72107 0.0
C162 C 0.9243 0.20975 0.7035 0.0
C163 C 0.82368 0.02804 0.71081 0.0
N164 N 0.03646 0.22097 0.63175 0.0
N165 N 0.70008 0.02511 0.76756 0.0
H166 H 0.81059 0.90707 0.70211 0.0
H167 H 0.72594 0.89768 0.75155 0.0
H168 H 0.67252 0.05467 0.7897 0.0
H169 H 0.65637 0.95965 0.76894 0.0
H170 H 0.07151 0.28885 0.62362 0.0
H171 H 0.06402 0.1963 0.60521 0.0
H172 H 0.04341 0.33066 0.69315 0.0
H173 H 0.95007 0.32346 0.73211 0.0
C174 C 0.70584 0.81767 0.19913 0.0
C175 C 0.75141 0.90068 0.16265 0.0
C176 C 0.62404 0.91688 0.19008 0.0
C177 C 0.57323 0.8273 0.21578 0.0
N178 N 0.56422 0.69047 0.24544 0.0
N179 N 0.75192 0.02999 0.12193 0.0
C180 C 0.61393 0.77731 0.22142 0.0
C181 C 0.71087 0.9516 0.15859 0.0
N182 N 0.75124 0.77882 0.21343 0.0
N183 N 0.58838 0.96825 0.19549 0.0
H184 H 0.81463 0.05807 0.09694 0.0
H185 H 0.72069 0.06416 0.11277 0.0
H186 H 0.52483 0.94375 0.21871 0.0
H187 H 0.62444 0.03586 0.18205 0.0
H188 H 0.72337 0.72126 0.24302 0.0
H189 H 0.81945 0.81044 0.20025 0.0
H190 H 0.58854 0.64848 0.24513 0.0
H191 H 0.49705 0.65947 0.26305 0.0
C192 C 0.9121 0.72147 0.6887 0.0
C193 C 0.88908 0.74426 0.64005 0.0
C194 C 0.78124 0.59011 0.64882 0.0
C195 C 0.81537 0.56608 0.69059 0.0
N196 N 0.92612 0.61078 0.74365 0.0
N197 N 0.8214 0.69237 0.5648 0.0
C198 C 0.88424 0.63221 0.70908 0.0
C199 C 0.8289 0.67645 0.61756 0.0
N200 N 0.95753 0.7835 0.71653 0.0
N201 N 0.70313 0.53055 0.63877 0.0
H202 H 0.86304 0.752 0.53726 0.0
H203 H 0.7825 0.64278 0.54615 0.0
H204 H 0.66391 0.46714 0.66255 0.0
H205 H 0.67304 0.54768 0.61113 0.0
H206 H -0.03119 0.7682 0.75465 0.0
H207 H -0.02466 0.84848 0.70462 0.0
H208 H -0.0179 0.65731 0.7543 0.0
H209 H 0.90925 0.54652 0.75775 0.0
C210 C 0.15377 0.94031 0.40403 0.0
C211 C 0.06182 0.89921 0.4268 0.0
C212 C 0.03778 0.76552 0.39793 0.0
C213 C 0.13001 0.80161 0.38433 0.0
N214 N 0.2772 0.92535 0.36602 0.0
N215 N 0.91751 0.79204 0.41741 0.0
C216 C 0.18841 0.89061 0.38331 0.0
C217 C 0.00365 0.8177 0.41499 0.0
N218 N 0.20711 0.02737 0.4013 0.0
N219 N -0.01694 0.68026 0.39673 0.0
H220 H 0.89306 0.83319 0.42242 0.0
H221 H 0.87342 0.73544 0.40632 0.0
H222 H 0.00654 0.64218 0.38172 0.0
H223 H 0.91538 0.64632 0.4129 0.0
H224 H 0.2736 0.06393 0.38202 0.0
H225 H 0.18276 0.06542 0.41465 0.0
H226 H 0.32496 -0.01364 0.37003 0.0
H227 H 0.30401 0.89162 0.34835 0.0
C228 C 0.24382 0.01351 0.937 0.0
C229 C 0.20536 0.06628 0.94198 0.0
C230 C 0.34601 0.19558 0.89016 0.0
C231 C 0.3837 0.14287 0.88662 0.0
N232 N 0.36479 0.00107 0.89083 0.0
N233 N 0.21534 0.2045 0.91251 0.0
C234 C 0.33075 0.05136 0.90435 0.0
C235 C 0.25498 0.15626 0.91477 0.0
N236 N 0.20154 0.92995 0.96732 0.0
N237 N 0.39878 0.28418 0.87288 0.0
H238 H 0.15063 0.18053 0.93254 0.0
H239 H 0.24455 0.26655 0.88766 0.0
H240 H 0.46463 0.31444 0.85212 0.0
H241 H 0.37898 0.32795 0.8812 0.0
H242 H 0.23092 0.89243 0.9697 0.0
H243 H 0.14039 0.90012 0.9945 0.0
H244 H 0.32736 0.93329 0.89795 0.0
H245 H 0.42865 0.0283 0.86724 0.0
C246 C 0.01896 0.26454 0.47085 0.0
C247 C 0.06013 0.21834 0.45411 0.0
C248 C 0.16923 0.34587 0.38187 0.0
C249 C 0.1287 0.39236 0.39925 0.0
N250 N -0.00171 0.38626 0.44596 0.0
N251 N 0.15041 0.2033 0.38124 0.0
C252 C 0.0477 0.34807 0.43899 0.0
C253 C 0.12806 0.25541 0.40566 0.0
N254 N 0.95545 0.23091 0.51844 0.0
N255 N 0.24867 0.38821 0.34505 0.0
H256 H 0.11511 0.13585 0.39555 0.0
H257 H 0.1949 0.22511 0.3435 0.0
H258 H 0.28086 0.45414 0.3264 0.0
H259 H 0.28522 0.3589 0.3358 0.0
H260 H 0.9309 0.26655 0.53576 0.0
H261 H 0.93204 0.16979 0.54306 0.0
H262 H 0.93506 0.35425 0.47101 0.0
H263 H 0.01704 0.44663 0.42192 0.0
C264 C 0.78207 0.03456 0.96596 0.0
C265 C 0.8756 0.07837 0.95285 0.0
C266 C 0.88279 0.19227 0.88488 0.0
C267 C 0.7897 0.1491 0.89865 0.0
N268 N 0.65108 0.01669 0.93796 0.0
N269 N 0.00948 0.17654 0.88498 0.0
C270 C 0.73953 0.06585 0.93447 0.0
C271 C 0.9246 0.15078 0.90777 0.0
N272 N 0.7337 0.96567 1.00991 0.0
N273 N 0.93142 0.27407 0.85207 0.0
H274 H 0.03693 0.13996 0.89726 0.0
H275 H 0.047 0.22519 0.84953 0.0
H276 H 0.90303 0.30624 0.83425 0.0
H277 H -0.00033 0.31194 0.84557 0.0
H278 H 0.66649 0.93863 1.02526 0.0
H279 H 0.76131 0.93938 1.03394 0.0
H280 H 0.61193 0.95203 0.95947 0.0
H281 H 0.61879 0.03787 0.91443 0.0
C282 C 0.62572 0.7752 0.42082 0.0
C283 C 0.65403 0.85641 0.43568 0.0
C284 C 0.55954 0.88193 0.38466 0.0
C285 C 0.51828 0.7938 0.38025 0.0
N286 N 0.5162 0.65868 0.38605 0.0
N287 N 0.65808 -0.00776 0.42835 0.0
C288 C 0.55433 0.74172 0.39455 0.0
C289 C 0.6255 0.91241 0.41528 0.0
N290 N 0.6657 0.72976 0.4338 0.0
N291 N 0.53341 0.93472 0.36073 0.0
H292 H 0.70793 0.01579 0.4498 0.0
H293 H 0.63464 0.03386 0.41956 0.0
H294 H 0.48518 0.9124 0.33799 0.0
H295 H 0.56354 0.00123 0.35958 0.0
H296 H 0.65258 0.67221 0.42166 0.0
H297 H 0.71704 0.7534 0.45406 0.0
H298 H 0.53328 0.61356 0.39985 0.0
H299 H 0.46522 0.63425 0.36551 0.0
C300 C 0.89663 0.64139 0.90622 0.0
C301 C 0.84211 0.67671 0.91581 0.0
C302 C 0.74828 0.58873 0.85933 0.0
C303 C 0.79037 0.53985 0.86105 0.0
N304 N 0.91214 0.52499 0.87661 0.0
N305 N 0.72481 0.69614 0.89666 0.0
C306 C 0.86865 0.56955 0.88027 0.0
C307 C 0.77185 0.6557 0.88944 0.0
N308 N -0.02724 0.67485 0.92424 0.0
N309 N 0.68421 0.5684 0.83057 0.0
H310 H 0.74316 0.74655 0.9178 0.0
H311 H 0.66749 0.67914 0.88302 0.0
H312 H 0.66719 0.51922 0.80846 0.0
H313 H 0.65316 0.60379 0.82506 0.0
H314 H 0.01873 0.65573 0.91665 0.0
H315 H -0.00725 0.72691 0.94398 0.0
H316 H -0.03491 0.53716 0.89418 0.0
H317 H 0.89374 0.47404 0.85591 0.0
loop_
_geom_bond_atom_site_label_1
_geom_bond_atom_site_label_2
_geom_bond_distance
_geom_bond_site_symmetry_2
_ccdc_geom_bond_type
Co0 N5 2.057 . S
Co0 O17 2.021 1_665 S
Co0 O20 2.062 1_656 S
Co0 O24 2.117 1_556 S
Co0 O25 2.020 1_565 S
C1 O21 1.259 1_565 S
C1 O24 1.258 . S
Co2 N11 2.057 . S
Co2 O18 2.117 1_554 S
Co2 O19 2.020 . S
Co2 O21 2.021 1_455 S
Co2 O26 2.062 1_454 S
C3 N5 1.316 . S
C3 N6 1.347 . S
C3 H8 0.931 1_655 S
C4 N5 1.375 . S
C4 C7 1.350 . S
C4 H9 0.930 . S
N5 Co0 2.057 . S
N5 C3 1.316 . S
N5 C4 1.375 . S
N6 C3 1.347 . S
N6 C7 1.373 . S
C7 C4 1.350 . S
C7 N6 1.373 . S
C7 H28 0.931 . S
H8 C3 0.931 1_455 S
H9 C4 0.930 . S
C10 O17 1.259 . S
C10 O18 1.258 . S
N11 Co2 2.057 . S
N11 C12 1.316 . S
N11 C13 1.375 . S
C12 N11 1.316 . S
C12 N14 1.347 . S
C12 H23 0.931 . S
C13 N11 1.375 . S
C13 C15 1.350 . S
C13 H22 0.930 . S
N14 C12 1.347 . S
N14 C15 1.373 . S
C15 C13 1.350 . S
C15 N14 1.373 . S
C15 H29 0.931 . S
C16 O19 1.256 1_565 S
C16 O20 1.255 . S
O17 Co0 2.021 1_445 S
O17 C10 1.259 . S
O18 Co2 2.117 1_556 S
O18 C10 1.258 . S
O19 Co2 2.020 . S
O19 C16 1.256 1_545 S
O20 Co0 2.062 1_454 S
O20 C16 1.255 . S
O21 C1 1.259 1_545 S
O21 Co2 2.021 1_655 S
H22 C13 0.930 . S
H23 C12 0.931 . S
O24 Co0 2.117 1_554 S
O24 C1 1.258 . S
O25 Co0 2.020 1_545 S
O25 C27 1.256 . S
O26 Co2 2.062 1_656 S
O26 C27 1.255 . S
C27 O25 1.256 . S
C27 O26 1.255 . S
H28 C7 0.931 . S
H29 C15 0.931 . S
Co30 N35 2.057 . S
Co30 O47 2.021 1_545 S
Co30 O50 2.062 1_545 S
Co30 O54 2.117 . S
Co30 O55 2.020 1_455 S
C31 O51 1.259 . S
C31 O54 1.258 . S
Co32 N41 2.057 . S
Co32 O48 2.117 . S
Co32 O49 2.020 1_655 S
Co32 O51 2.021 1_665 S
Co32 O56 2.062 1_565 S
C33 N35 1.316 . S
C33 N36 1.347 . S
C33 H38 0.931 . S
C34 N35 1.375 . S
C34 C37 1.350 . S
C34 H39 0.930 . S
N35 Co30 2.057 . S
N35 C33 1.316 . S
N35 C34 1.375 . S
N36 C33 1.347 . S
N36 C37 1.373 . S
C37 C34 1.350 . S
C37 N36 1.373 . S
C37 H58 0.931 . S
H38 C33 0.931 . S
H39 C34 0.930 . S
C40 O47 1.259 1_655 S
C40 O48 1.258 . S
N41 Co32 2.057 . S
N41 C42 1.316 . S
N41 C43 1.375 . S
C42 N41 1.316 . S
C42 N44 1.347 . S
C42 H53 0.921 1_565 S
C43 N41 1.375 . S
C43 C45 1.350 . S
C43 H52 0.930 . S
N44 C42 1.347 . S
N44 C45 1.373 . S
C45 C43 1.350 . S
C45 N44 1.373 . S
C45 H59 0.931 . S
C46 O49 1.256 . S
C46 O50 1.255 . S
O47 Co30 2.021 1_565 S
O47 C40 1.259 1_455 S
O48 Co32 2.117 . S
O48 C40 1.258 . S
O49 Co32 2.020 1_455 S
O49 C46 1.256 . S
O50 Co30 2.062 1_565 S
O50 C46 1.255 . S
O51 C31 1.259 . S
O51 Co32 2.021 1_445 S
H52 C43 0.930 . S
H53 C42 0.921 1_545 S
O54 Co30 2.117 . S
O54 C31 1.258 . S
O55 Co30 2.020 1_655 S
O55 C57 1.256 . S
O56 Co32 2.062 1_545 S
O56 C57 1.255 . S
C57 O55 1.256 . S
C57 O56 1.255 . S
H58 C37 0.931 . S
H59 C45 0.931 . S
Zn60 O66 1.920 . S
Zn60 O72 1.898 . S
Zn60 O75 1.905 . S
Zn61 O69 1.905 . S
Zn61 O70 1.898 . S
Zn61 O78 1.920 . S
Zn62 O65 2.080 . S
Zn62 O68 2.114 . S
Zn62 O71 2.120 . S
Zn62 O73 2.120 . S
Zn62 O74 2.114 . S
Zn62 O77 2.080 . S
C63 O68 1.166 . S
C63 O69 1.182 . S
C64 O70 1.167 . S
C64 O71 1.299 . S
O65 Zn62 2.080 . S
O65 C79 1.305 . S
O66 Zn60 1.920 . S
O66 C79 1.234 . S
C67 O72 1.167 . S
C67 O73 1.299 . S
O68 Zn62 2.114 . S
O68 C63 1.166 . S
O69 Zn61 1.905 . S
O69 C63 1.182 . S
O70 Zn61 1.898 . S
O70 C64 1.167 . S
O71 Zn62 2.120 . S
O71 C64 1.299 . S
O72 Zn60 1.898 . S
O72 C67 1.167 . S
O73 Zn62 2.120 . S
O73 C67 1.299 . S
O74 Zn62 2.114 . S
O74 C76 1.166 . S
O75 Zn60 1.905 . S
O75 C76 1.182 . S
C76 O74 1.166 . S
C76 O75 1.182 . S
O77 Zn62 2.080 . S
O77 C80 1.305 . S
O78 Zn61 1.920 . S
O78 C80 1.234 . S
C79 O65 1.305 . S
C79 O66 1.234 . S
C80 O77 1.305 . S
C80 O78 1.234 . S
Zn81 O87 1.920 . S
Zn81 O93 1.898 . S
Zn81 O96 1.905 . S
Zn82 O90 1.905 . S
Zn82 O91 1.898 . S
Zn82 O99 1.920 . S
Zn83 O86 2.080 . S
Zn83 O89 2.114 . S
Zn83 O92 2.120 . S
Zn83 O94 2.120 . S
Zn83 O95 2.114 . S
Zn83 O98 2.080 . S
C84 O89 1.166 . S
C84 O90 1.182 . S
C85 O91 1.167 . S
C85 O92 1.299 . S
O86 Zn83 2.080 . S
O86 C100 1.305 . S
O87 Zn81 1.920 . S
O87 C100 1.234 . S
C88 O93 1.167 . S
C88 O94 1.299 . S
O89 Zn83 2.114 . S
O89 C84 1.166 . S
O90 Zn82 1.905 . S
O90 C84 1.182 . S
O91 Zn82 1.898 . S
O91 C85 1.167 . S
O92 Zn83 2.120 . S
O92 C85 1.299 . S
O93 Zn81 1.898 . S
O93 C88 1.167 . S
O94 Zn83 2.120 . S
O94 C88 1.299 . S
O95 Zn83 2.114 . S
O95 C97 1.166 . S
O96 Zn81 1.905 . S
O96 C97 1.182 . S
C97 O95 1.166 . S
C97 O96 1.182 . S
O98 Zn83 2.080 . S
O98 C101 1.305 . S
O99 Zn82 1.920 . S
O99 C101 1.234 . S
C100 O86 1.305 . S
C100 O87 1.234 . S
C101 O98 1.305 . S
C101 O99 1.234 . S
C102 C103 1.363 . S
C102 C108 1.379 . S
C102 N110 1.356 1_565 S
C103 C102 1.363 . S
C103 C109 1.363 . S
C104 C105 1.363 . S
C104 C109 1.379 . S
C104 N111 1.356 . S
C105 C104 1.363 . S
C105 C108 1.363 . S
N106 C108 1.356 . S
N106 H118 0.984 . S
N106 H119 0.985 . S
N107 C109 1.356 1_655 S
N107 H112 0.984 . S
N107 H113 0.985 . S
C108 C102 1.379 . S
C108 C105 1.363 . S
C108 N106 1.356 . S
C109 C103 1.363 . S
C109 C104 1.379 . S
C109 N107 1.356 1_455 S
N110 C102 1.356 1_545 S
N110 H116 0.984 . S
N110 H117 0.984 . S
N111 C104 1.356 . S
N111 H114 0.984 . S
N111 H115 0.985 1_455 S
H112 N107 0.984 . S
H113 N107 0.985 . S
H114 N111 0.984 . S
H115 N111 0.985 1_655 S
H116 N110 0.984 . S
H117 N110 0.984 . S
H118 N106 0.984 . S
H119 N106 0.985 . S
C120 C121 1.363 . S
C120 C126 1.379 . S
C120 N128 1.356 . S
C121 C120 1.363 . S
C121 C127 1.363 . S
C122 C123 1.363 . S
C122 C127 1.379 . S
C122 N129 1.356 . S
C123 C122 1.363 . S
C123 C126 1.363 . S
N124 C126 1.356 . S
N124 H136 0.984 . S
N124 H137 0.985 . S
N125 C127 1.356 . S
N125 H130 0.984 . S
N125 H131 0.985 . S
C126 C120 1.379 . S
C126 C123 1.363 . S
C126 N124 1.356 . S
C127 C121 1.363 . S
C127 C122 1.379 . S
C127 N125 1.356 . S
N128 C120 1.356 . S
N128 H134 0.984 . S
N128 H135 0.984 . S
N129 C122 1.356 . S
N129 H132 0.984 . S
N129 H133 0.985 . S
H130 N125 0.984 . S
H131 N125 0.985 . S
H132 N129 0.984 . S
H133 N129 0.985 . S
H134 N128 0.984 . S
H135 N128 0.984 . S
H136 N124 0.984 . S
H137 N124 0.985 . S
C138 C139 1.363 . S
C138 C144 1.379 . S
C138 N146 1.356 . S
C139 C138 1.363 . S
C139 C145 1.363 . S
C140 C141 1.363 . S
C140 C145 1.379 . S
C140 N147 1.356 . S
C141 C140 1.363 . S
C141 C144 1.363 . S
N142 C144 1.356 . S
N142 H154 0.984 . S
N142 H155 0.985 . S
N143 C145 1.356 . S
N143 H148 0.984 . S
N143 H149 0.985 . S
C144 C138 1.379 . S
C144 C141 1.363 . S
C144 N142 1.356 . S
C145 C139 1.363 . S
C145 C140 1.379 . S
C145 N143 1.356 . S
N146 C138 1.356 . S
N146 H152 0.984 1_455 S
N146 H153 0.984 . S
N147 C140 1.356 . S
N147 H150 0.984 . S
N147 H151 0.985 . S
H148 N143 0.984 . S
H149 N143 0.985 . S
H150 N147 0.984 . S
H151 N147 0.985 . S
H152 N146 0.984 1_655 S
H153 N146 0.984 . S
H154 N142 0.984 . S
H155 N142 0.985 . S
C156 C157 1.363 . S
C156 C162 1.379 . S
C156 N164 1.356 1_655 S
C157 C156 1.363 . S
C157 C163 1.363 . S
C158 C159 1.363 . S
C158 C163 1.379 . S
C158 N165 1.356 . S
C159 C158 1.363 . S
C159 C162 1.363 . S
N160 C162 1.356 . S
N160 H172 0.984 1_655 S
N160 H173 0.985 . S
N161 C163 1.356 . S
N161 H166 0.984 . S
N161 H167 0.985 . S
C162 C156 1.379 . S
C162 C159 1.363 . S
C162 N160 1.356 . S
C163 C157 1.363 . S
C163 C158 1.379 . S
C163 N161 1.356 . S
N164 C156 1.356 1_455 S
N164 H170 0.984 . S
N164 H171 0.984 1_455 S
N165 C158 1.356 . S
N165 H168 0.984 . S
N165 H169 0.985 . S
H166 N161 0.984 . S
H167 N161 0.985 . S
H168 N165 0.984 . S
H169 N165 0.985 . S
H170 N164 0.984 . S
H171 N164 0.984 1_655 S
H172 N160 0.984 1_455 S
H173 N160 0.985 . S
C174 C175 1.363 . S
C174 C180 1.379 . S
C174 N182 1.356 . S
C175 C174 1.363 . S
C175 C181 1.363 . S
C176 C177 1.363 . S
C176 C181 1.379 . S
C176 N183 1.356 . S
C177 C176 1.363 . S
C177 C180 1.363 . S
N178 C180 1.356 . S
N178 H190 0.984 . S
N178 H191 0.985 . S
N179 C181 1.356 1_545 S
N179 H184 0.984 . S
N179 H185 0.985 . S
C180 C174 1.379 . S
C180 C177 1.363 . S
C180 N178 1.356 . S
C181 C175 1.363 . S
C181 C176 1.379 . S
C181 N179 1.356 1_565 S
N182 C174 1.356 . S
N182 H188 0.984 . S
N182 H189 0.984 . S
N183 C176 1.356 . S
N183 H186 0.984 . S
N183 H187 0.985 1_565 S
H184 N179 0.984 . S
H185 N179 0.985 . S
H186 N183 0.984 . S
H187 N183 0.985 1_545 S
H188 N182 0.984 . S
H189 N182 0.984 . S
H190 N178 0.984 . S
H191 N178 0.985 . S
C192 C193 1.363 . S
C192 C198 1.379 . S
C192 N200 1.356 . S
C193 C192 1.363 . S
C193 C199 1.363 . S
C194 C195 1.363 . S
C194 C199 1.379 . S
C194 N201 1.356 . S
C195 C194 1.363 . S
C195 C198 1.363 . S
N196 C198 1.356 . S
N196 H208 0.984 . S
N196 H209 0.985 . S
N197 C199 1.356 . S
N197 H202 0.984 . S
N197 H203 0.985 . S
C198 C192 1.379 . S
C198 C195 1.363 . S
C198 N196 1.356 . S
C199 C193 1.363 . S
C199 C194 1.379 . S
C199 N197 1.356 . S
N200 C192 1.356 . S
N200 H206 0.984 1_655 S
N200 H207 0.984 1_655 S
N201 C194 1.356 . S
N201 H204 0.984 . S
N201 H205 0.985 . S
H202 N197 0.984 . S
H203 N197 0.985 . S
H204 N201 0.984 . S
H205 N201 0.985 . S
H206 N200 0.984 1_455 S
H207 N200 0.984 1_455 S
H208 N196 0.984 . S
H209 N196 0.985 . S
C210 C211 1.363 . S
C210 C216 1.379 . S
C210 N218 1.356 1_565 S
C211 C210 1.363 . S
C211 C217 1.363 . S
C212 C213 1.363 . S
C212 C217 1.379 . S
C212 N219 1.356 . S
C213 C212 1.363 . S
C213 C216 1.363 . S
N214 C216 1.356 . S
N214 H226 0.984 1_565 S
N214 H227 0.985 . S
N215 C217 1.356 . S
N215 H220 0.984 . S
N215 H221 0.985 1_455 S
C216 C210 1.379 . S
C216 C213 1.363 . S
C216 N214 1.356 . S
C217 C211 1.363 . S
C217 C212 1.379 . S
C217 N215 1.356 . S
N218 C210 1.356 1_545 S
N218 H224 0.984 . S
N218 H225 0.984 . S
N219 C212 1.356 . S
N219 H222 0.984 . S
N219 H223 0.985 . S
H220 N215 0.984 . S
H221 N215 0.985 1_655 S
H222 N219 0.984 . S
H223 N219 0.985 . S
H224 N218 0.984 . S
H225 N218 0.984 . S
H226 N214 0.984 1_545 S
H227 N214 0.985 . S
C228 C229 1.363 . S
C228 C234 1.379 . S
C228 N236 1.356 . S
C229 C228 1.363 . S
C229 C235 1.363 . S
C230 C231 1.363 . S
C230 C235 1.379 . S
C230 N237 1.356 . S
C231 C230 1.363 . S
C231 C234 1.363 . S
N232 C234 1.356 . S
N232 H244 0.984 . S
N232 H245 0.985 . S
N233 C235 1.356 . S
N233 H238 0.984 . S
N233 H239 0.985 . S
C234 C228 1.379 . S
C234 C231 1.363 . S
C234 N232 1.356 . S
C235 C229 1.363 . S
C235 C230 1.379 . S
C235 N233 1.356 . S
N236 C228 1.356 . S
N236 H242 0.984 1_545 S
N236 H243 0.984 1_545 S
N237 C230 1.356 . S
N237 H240 0.984 . S
N237 H241 0.985 . S
H238 N233 0.984 . S
H239 N233 0.985 . S
H240 N237 0.984 . S
H241 N237 0.985 . S
H242 N236 0.984 1_565 S
H243 N236 0.984 1_565 S
H244 N232 0.984 . S
H245 N232 0.985 . S
C246 C247 1.363 . S
C246 C252 1.379 . S
C246 N254 1.356 . S
C247 C246 1.363 . S
C247 C253 1.363 . S
C248 C249 1.363 . S
C248 C253 1.379 . S
C248 N255 1.356 . S
C249 C248 1.363 . S
C249 C252 1.363 . S
N250 C252 1.356 . S
N250 H262 0.984 . S
N250 H263 0.985 . S
N251 C253 1.356 . S
N251 H256 0.984 . S
N251 H257 0.985 . S
C252 C246 1.379 . S
C252 C249 1.363 . S
C252 N250 1.356 . S
C253 C247 1.363 . S
C253 C248 1.379 . S
C253 N251 1.356 . S
N254 C246 1.356 . S
N254 H260 0.984 1_455 S
N254 H261 0.984 . S
N255 C248 1.356 . S
N255 H258 0.984 . S
N255 H259 0.985 . S
H256 N251 0.984 . S
H257 N251 0.985 . S
H258 N255 0.984 . S
H259 N255 0.985 . S
H260 N254 0.984 1_655 S
H261 N254 0.984 . S
H262 N250 0.984 . S
H263 N250 0.985 . S
C264 C265 1.363 . S
C264 C270 1.379 . S
C264 N272 1.356 . S
C265 C264 1.363 . S
C265 C271 1.363 . S
C266 C267 1.363 . S
C266 C271 1.379 . S
C266 N273 1.356 . S
C267 C266 1.363 . S
C267 C270 1.363 . S
N268 C270 1.356 . S
N268 H280 0.984 1_545 S
N268 H281 0.985 . S
N269 C271 1.356 1_455 S
N269 H274 0.984 . S
N269 H275 0.985 . S
C270 C264 1.379 . S
C270 C267 1.363 . S
C270 N268 1.356 . S
C271 C265 1.363 . S
C271 C266 1.379 . S
C271 N269 1.356 1_655 S
N272 C264 1.356 . S
N272 H278 0.984 1_545 S
N272 H279 0.984 . S
N273 C266 1.356 . S
N273 H276 0.984 . S
N273 H277 0.985 . S
H274 N269 0.984 . S
H275 N269 0.985 . S
H276 N273 0.984 . S
H277 N273 0.985 . S
H278 N272 0.984 1_565 S
H279 N272 0.984 . S
H280 N268 0.984 1_565 S
H281 N268 0.985 . S
C282 C283 1.363 . S
C282 C288 1.379 . S
C282 N290 1.356 . S
C283 C282 1.363 . S
C283 C289 1.363 . S
C284 C285 1.363 . S
C284 C289 1.379 . S
C284 N291 1.356 . S
C285 C284 1.363 . S
C285 C288 1.363 . S
N286 C288 1.356 . S
N286 H298 0.984 . S
N286 H299 0.985 . S
N287 C289 1.356 . S
N287 H292 0.984 . S
N287 H293 0.985 . S
C288 C282 1.379 . S
C288 C285 1.363 . S
C288 N286 1.356 . S
C289 C283 1.363 . S
C289 C284 1.379 . S
C289 N287 1.356 . S
N290 C282 1.356 . S
N290 H296 0.984 . S
N290 H297 0.984 . S
N291 C284 1.356 . S
N291 H294 0.984 . S
N291 H295 0.985 . S
H292 N287 0.984 . S
H293 N287 0.985 . S
H294 N291 0.984 . S
H295 N291 0.985 . S
H296 N290 0.984 . S
H297 N290 0.984 . S
H298 N286 0.984 . S
H299 N286 0.985 . S
C300 C301 1.363 . S
C300 C306 1.379 . S
C300 N308 1.356 . S
C301 C300 1.363 . S
C301 C307 1.363 . S
C302 C303 1.363 . S
C302 C307 1.379 . S
C302 N309 1.356 . S
C303 C302 1.363 . S
C303 C306 1.363 . S
N304 C306 1.356 . S
N304 H316 0.984 . S
N304 H317 0.985 . S
N305 C307 1.356 . S
N305 H310 0.984 . S
N305 H311 0.985 . S
C306 C300 1.379 . S
C306 C303 1.363 . S
C306 N304 1.356 . S
C307 C301 1.363 . S
C307 C302 1.379 . S
C307 N305 1.356 . S
N308 C300 1.356 . S
N308 H314 0.984 . S
N308 H315 0.984 . S
N309 C302 1.356 . S
N309 H312 0.984 . S
N309 H313 0.985 . S
H310 N305 0.984 . S
H311 N305 0.985 . S
H312 N309 0.984 . S
H313 N309 0.985 . S
H314 N308 0.984 . S
H315 N308 0.984 . S
H316 N304 0.984 . S
H317 N304 0.985 . S
C103 C16 1.525 . S
C105 C79 1.348 . S
C121 N36 1.248 . S
C123 C85 1.124 . S
C139 N14 1.251 . S
C141 C76 1.184 . S
C157 C57 1.714 . S
C159 C101 1.501 . S
C175 C1 1.858 . S
C177 C67 1.706 . S
C195 C84 1.593 . S
C193 C40 1.699 . S
C211 C46 1.525 . S
C213 C80 1.348 . S
C231 C97 1.593 . S
C229 C10 1.699 . S
C249 C64 1.706 . S
C247 C31 1.858 . S
C267 C100 1.501 . S
C265 C27 1.714 . S
C285 C63 1.184 . S
C283 N44 1.251 . S
C303 C88 1.124 . S
C301 N6 1.248 . S
