# Generated by pormake.
# Topology zzz, (3,6)-cn, num edge types: 1
# Building blocks:
#     Node 0, Type 0, BuildingBlock: OLANEW_clean_sbu_2, # of connection points: 3
#     Node 1, Type 0, BuildingBlock: OLANEW_clean_sbu_2, # of connection points: 3
#     Node 2, Type 0, BuildingBlock: OLANEW_clean_sbu_2, # of connection points: 3
#     Node 3, Type 0, BuildingBlock: OLANEW_clean_sbu_2, # of connection points: 3
#     Node 4, Type 0, BuildingBlock: OLANEW_clean_sbu_2, # of connection points: 3
#     Node 5, Type 0, BuildingBlock: OLANEW_clean_sbu_2, # of connection points: 3
#     Node 6, Type 0, BuildingBlock: OLANEW_clean_sbu_2, # of connection points: 3
#     Node 7, Type 0, BuildingBlock: OLANEW_clean_sbu_2, # of connection points: 3
#     Node 8, Type 1, BuildingBlock: BETDAH_clean_sbu_0, # of connection points: 6
#     Node 9, Type 1, BuildingBlock: BETDAH_clean_sbu_0, # of connection points: 6
#     Node 10, Type 1, BuildingBlock: BETDAH_clean_sbu_0, # of connection points: 6
#     Node 11, Type 1, BuildingBlock: BETDAH_clean_sbu_0, # of connection points: 6
#     Edge 12, Type (0, 1), BuildingBlock: EZIPEK_clean_linker_0, # of connection points: 2
#     Edge 13, Type (0, 1), BuildingBlock: EZIPEK_clean_linker_0, # of connection points: 2
#     Edge 14, Type (0, 1), BuildingBlock: EZIPEK_clean_linker_0, # of connection points: 2
#     Edge 15, Type (0, 1), BuildingBlock: EZIPEK_clean_linker_0, # of connection points: 2
#     Edge 16, Type (0, 1), BuildingBlock: EZIPEK_clean_linker_0, # of connection points: 2
#     Edge 17, Type (0, 1), BuildingBlock: EZIPEK_clean_linker_0, # of connection points: 2
#     Edge 18, Type (0, 1), BuildingBlock: EZIPEK_clean_linker_0, # of connection points: 2
#     Edge 19, Type (0, 1), BuildingBlock: EZIPEK_clean_linker_0, # of connection points: 2
#     Edge 20, Type (0, 1), BuildingBlock: EZIPEK_clean_linker_0, # of connection points: 2
#     Edge 21, Type (0, 1), BuildingBlock: EZIPEK_clean_linker_0, # of connection points: 2
#     Edge 22, Type (0, 1), BuildingBlock: EZIPEK_clean_linker_0, # of connection points: 2
#     Edge 23, Type (0, 1), BuildingBlock: EZIPEK_clean_linker_0, # of connection points: 2
#     Edge 24, Type (0, 1), BuildingBlock: EZIPEK_clean_linker_0, # of connection points: 2
#     Edge 25, Type (0, 1), BuildingBlock: EZIPEK_clean_linker_0, # of connection points: 2
#     Edge 26, Type (0, 1), BuildingBlock: EZIPEK_clean_linker_0, # of connection points: 2
#     Edge 27, Type (0, 1), BuildingBlock: EZIPEK_clean_linker_0, # of connection points: 2
#     Edge 28, Type (0, 1), BuildingBlock: EZIPEK_clean_linker_0, # of connection points: 2
#     Edge 29, Type (0, 1), BuildingBlock: EZIPEK_clean_linker_0, # of connection points: 2
#     Edge 30, Type (0, 1), BuildingBlock: EZIPEK_clean_linker_0, # of connection points: 2
#     Edge 31, Type (0, 1), BuildingBlock: EZIPEK_clean_linker_0, # of connection points: 2
#     Edge 32, Type (0, 1), BuildingBlock: EZIPEK_clean_linker_0, # of connection points: 2
#     Edge 33, Type (0, 1), BuildingBlock: EZIPEK_clean_linker_0, # of connection points: 2
#     Edge 34, Type (0, 1), BuildingBlock: EZIPEK_clean_linker_0, # of connection points: 2
#     Edge 35, Type (0, 1), BuildingBlock: EZIPEK_clean_linker_0, # of connection points: 2
# Relax obj value: 0.305
# Max RMSD: 0.210
# Mean RMSD: 0.176
data_MOF--net-zzz--node1-OLANEW_clean_sbu_2--node2-BETDAH_clean_sbu_0--edge1-EZIPEK_clean_linker_0
_symmetry_space_group_name_H-M    P1
_symmetry_Int_Tables_number       1
_symmetry_cell_setting            triclinic
loop_
_symmetry_equiv_pos_as_xyz
'x, y, z'
_cell_length_a     42.47407
_cell_length_b     42.541846
_cell_length_c     11.469466
_cell_angle_alpha  89.48975
_cell_angle_beta   89.859839
_cell_angle_gamma 90.009678
loop_
_atom_site_label
_atom_site_type_symbol
_atom_site_fract_x
_atom_site_fract_y
_atom_site_fract_z
_atom_type_partial_charge
O0 O 0.74386 0.5458 0.35974 0.0
Cd1 Cd 0.69806 0.55082 0.4888 0.0
O2 O 0.73027 0.49694 0.34064 0.0
Cd3 Cd 0.7252 0.49714 0.52902 0.0
O4 O 0.77456 0.49724 0.58521 0.0
C5 C 0.79321 0.48176 0.52025 0.0
O6 O 0.78165 0.46498 0.43487 0.0
C7 C 0.74535 0.52058 0.30163 0.0
C8 C 0.64776 0.52519 0.3653 0.0
O9 O 0.65716 0.5534 0.34659 0.0
O10 O 0.66069 0.50961 0.4484 0.0
O11 O 0.94278 0.6986 0.25224 0.0
Cd12 Cd 0.9324 0.64625 0.3333 0.0
O13 O 0.9527 0.70624 0.43631 0.0
Cd14 Cd 0.96643 0.73829 0.57083 0.0
O15 O 0.96966 0.78707 0.61578 0.0
C16 C 0.97149 0.79667 0.71972 0.0
O17 O 0.97211 0.77643 0.80685 0.0
C18 C 0.9519 0.71676 0.3324 0.0
C19 C 0.94422 0.60107 0.16615 0.0
O20 O 0.9159 0.60808 0.19461 0.0
O21 O 0.96676 0.61472 0.21976 0.0
O22 O 0.74608 0.00996 0.3219 0.0
Cd23 Cd 0.78813 0.9835 0.42927 0.0
O24 O 0.75737 0.05483 0.40228 0.0
Cd25 Cd 0.77343 0.02826 0.55364 0.0
O26 O 0.72664 0.01506 0.61737 0.0
C27 C 0.70741 0.03797 0.61873 0.0
O28 O 0.71791 0.06649 0.59758 0.0
C29 C 0.7426 0.03964 0.32501 0.0
C30 C 0.84284 0.9874 0.29697 0.0
O31 O 0.82439 0.96369 0.28885 0.0
O32 O 0.83605 0.00896 0.37013 0.0
O33 O 0.52908 0.79034 0.2233 0.0
Cd34 Cd 0.54148 0.84311 0.29042 0.0
O35 O 0.55592 0.76968 0.36884 0.0
Cd36 Cd 0.56922 0.72633 0.4594 0.0
O37 O 0.56715 0.67616 0.49891 0.0
C38 C 0.56989 0.66593 0.60266 0.0
O39 O 0.57562 0.68567 0.68739 0.0
C40 C 0.53842 0.76634 0.28008 0.0
C41 C 0.53388 0.8889 0.11726 0.0
O42 O 0.56132 0.87852 0.1435 0.0
O43 O 0.51014 0.87739 0.17204 0.0
O44 O 0.28812 0.52652 0.31253 0.0
Cd45 Cd 0.34064 0.52222 0.22676 0.0
O46 O 0.27253 0.50361 0.1523 0.0
Cd47 Cd 0.23328 0.48749 0.04799 0.0
O48 O 0.18646 0.48116 0.97715 0.0
C49 C 0.17791 0.45569 0.93004 0.0
O50 O 0.19768 0.43204 0.92322 0.0
C51 C 0.26606 0.51565 0.25032 0.0
C52 C 0.38412 0.49779 0.38311 0.0
O53 O 0.37962 0.52749 0.37421 0.0
O54 O 0.36828 0.47941 0.31759 0.0
O55 O 0.94057 0.25231 0.12137 0.0
Cd56 Cd 0.94695 0.30239 0.0196 0.0
O57 O 0.99121 0.25585 0.15677 0.0
Cd58 Cd 0.03264 0.23259 0.22783 0.0
O59 O 0.03883 0.1825 0.20606 0.0
C60 C 0.05095 0.17336 0.1111 0.0
O61 O 0.0632 0.19413 0.03871 0.0
C62 C 0.96532 0.24106 0.1676 0.0
C63 C 0.96514 0.3434 0.19208 0.0
O64 O 0.93605 0.34009 0.16548 0.0
O65 O 0.98592 0.32866 0.13267 0.0
O66 O 0.23357 0.97763 0.26669 0.0
Cd67 Cd 0.17741 0.97116 0.22879 0.0
O68 O 0.23486 0.01936 0.15263 0.0
Cd69 Cd 0.26434 0.05288 0.05935 0.0
O70 O 0.30927 0.05782 0.97126 0.0
C71 C 0.31127 0.05153 0.86355 0.0
O72 O 0.2858 0.04418 0.80519 0.0
C73 C 0.24904 -0.0005 0.21708 0.0
C74 C 0.1394 0.97811 0.42506 0.0
O75 O 0.15526 0.95293 0.40809 0.0
O76 O 0.14188 0.00045 0.34987 0.0
O77 O 0.54553 0.24099 0.03622 0.0
Cd78 Cd 0.5265 0.19037 0.96906 0.0
O79 O 0.49534 0.25215 0.02502 0.0
Cd80 Cd 0.45538 0.28158 0.07082 0.0
O81 O 0.4092 0.30309 0.09083 0.0
C82 C 0.40344 0.33228 0.07985 0.0
O83 O 0.37422 0.34198 0.09082 0.0
C84 C 0.52291 0.25962 0.0568 0.0
C85 C 0.5168 0.15639 0.17491 0.0
O86 O 0.49638 0.17631 0.1385 0.0
O87 O 0.54092 0.15128 0.11054 0.0
Ho88 Ho 0.01536 0.97405 0.99862 0.0
Ho89 Ho 0.98355 0.00215 0.78292 0.0
C90 C 0.98266 0.92874 0.80268 0.0
C91 C 0.02511 0.93951 0.18085 0.0
C92 C 0.01579 0.90656 0.20517 0.0
C93 C 0.99905 0.89907 0.30747 0.0
C94 C 0.98823 0.86837 0.32759 0.0
C95 C 0.99395 0.84478 0.24542 0.0
C96 C 0.01057 0.85218 0.14306 0.0
C97 C 0.0213 0.88282 0.12279 0.0
C98 C 0.05432 0.98628 0.81884 0.0
C99 C 0.0189 0.04734 0.96936 0.0
C100 C 0.96734 0.03299 0.5967 0.0
C101 C 0.96828 0.06479 0.54343 0.0
C102 C 0.99653 0.07833 0.50253 0.0
C103 C 0.99614 0.10737 0.44396 0.0
C104 C 0.96757 0.12323 0.42567 0.0
C105 C 0.93949 0.11002 0.46773 0.0
C106 C 0.93984 0.08101 0.52563 0.0
C107 C 0.945 0.98809 0.96486 0.0
O108 O 0.99252 0.93248 0.91092 0.0
O109 O 0.97982 0.95236 0.72864 0.0
O110 O 0.04634 0.94403 0.09953 0.0
O111 O 0.00194 0.95962 0.17358 0.0
O112 O 0.06238 0.98922 0.92746 0.0
O113 O 0.02685 0.97514 0.81173 0.0
O114 O 0.01071 0.04265 0.85948 0.0
O115 O 0.01877 0.02445 0.04792 0.0
O116 O 0.94905 0.02932 0.68758 0.0
O117 O 0.99375 0.01729 0.606 0.0
O118 O 0.9372 0.98532 0.85635 0.0
O119 O 0.97186 0.00047 0.9706 0.0
H120 H 0.99403 0.91707 0.37109 0.0
H121 H 0.97541 0.86301 0.4071 0.0
H122 H 0.01505 0.83426 0.07857 0.0
H123 H 0.03356 0.88795 0.04191 0.0
H124 H 0.0188 0.06632 0.51399 0.0
H125 H 0.018 0.11728 0.4115 0.0
H126 H 0.91726 0.12195 0.45391 0.0
H127 H 0.91771 0.07095 0.55482 0.0
Ho128 Ho 0.50918 0.05406 0.80854 0.0
Ho129 Ho 0.50253 0.02114 0.56916 0.0
C130 C 0.5715 0.03276 0.66057 0.0
C131 C 0.52681 0.06905 0.01639 0.0
C132 C 0.55805 0.07068 0.07264 0.0
C133 C 0.56637 0.0484 0.15852 0.0
C134 C 0.59729 0.04685 0.19994 0.0
C135 C 0.62013 0.06769 0.15637 0.0
C136 C 0.61151 0.09111 0.07617 0.0
C137 C 0.58072 0.09263 0.03462 0.0
C138 C 0.50486 0.09196 0.61867 0.0
C139 C 0.43966 0.04043 0.72094 0.0
C140 C 0.48191 0.01129 0.36235 0.0
C141 C 0.44913 0.00557 0.32621 0.0
C142 C 0.43761 0.0186 0.22181 0.0
C143 C 0.40545 0.0168 0.19542 0.0
C144 C 0.38445 0.00255 0.2746 0.0
C145 C 0.39603 0.98911 0.37787 0.0
C146 C 0.42811 0.99047 0.40326 0.0
C147 C 0.51102 0.98224 0.75382 0.0
O148 O 0.5582 0.03626 0.76455 0.0
O149 O 0.55437 0.03101 0.56431 0.0
O150 O 0.52103 0.08974 0.93411 0.0
O151 O 0.51725 0.04088 0.98879 0.0
O152 O 0.49339 0.09938 0.71979 0.0
O153 O 0.51953 0.06652 0.62721 0.0
O154 O 0.45214 0.03101 0.62158 0.0
O155 O 0.45689 0.04835 0.81191 0.0
O156 O 0.49525 0.9892 0.42586 0.0
O157 O 0.4869 0.03951 0.40286 0.0
O158 O 0.51967 0.97567 0.64761 0.0
O159 O 0.49495 0.00726 0.75172 0.0
H160 H 0.54928 0.03141 0.19013 0.0
H161 H 0.60366 0.02878 0.26276 0.0
H162 H 0.62891 0.10747 0.04256 0.0
H163 H 0.57509 0.11028 0.96937 0.0
H164 H 0.45334 0.03082 0.16227 0.0
H165 H 0.39681 0.02731 0.11529 0.0
H166 H 0.3801 0.97811 0.43989 0.0
H167 H 0.4363 0.98064 0.48518 0.0
Ho168 Ho 0.49602 0.50511 0.94652 0.0
Ho169 Ho 0.54168 0.46525 0.78316 0.0
C170 C 0.54085 0.54005 0.75194 0.0
C171 C 0.47418 0.54486 0.09469 0.0
C172 C 0.48177 0.57782 0.11949 0.0
C173 C 0.49461 0.59739 0.03223 0.0
C174 C 0.50325 0.62821 0.05754 0.0
C175 C 0.49903 0.63991 0.17028 0.0
C176 C 0.4858 0.62058 0.25723 0.0
C177 C 0.4773 0.58963 0.23204 0.0
C178 C 0.46875 0.47947 0.75597 0.0
C179 C 0.492 0.43191 0.95957 0.0
C180 C 0.56717 0.42973 0.62764 0.0
C181 C 0.55877 0.41001 0.52855 0.0
C182 C 0.52727 0.40525 0.49636 0.0
C183 C 0.5199 0.38343 0.40998 0.0
C184 C 0.54394 0.36583 0.35718 0.0
C185 C 0.57544 0.37158 0.38656 0.0
C186 C 0.58279 0.39364 0.47139 0.0
C187 C 0.57026 0.48208 0.98843 0.0
O188 O 0.52115 0.54221 0.84097 0.0
O189 O 0.55102 0.51317 0.70875 0.0
O190 O 0.46104 0.53957 0.99362 0.0
O191 O 0.49628 0.5245 0.12021 0.0
O192 O 0.4545 0.48422 0.85494 0.0
O193 O 0.4963 0.49068 0.76161 0.0
O194 O 0.50421 0.43191 0.85281 0.0
O195 O 0.49449 0.45695 0.02611 0.0
O196 O 0.55772 0.41955 0.72993 0.0
O197 O 0.564 0.46014 0.61421 0.0
O198 O 0.58396 0.46611 0.90752 0.0
O199 O 0.54315 0.48725 0.95185 0.0
H200 H 0.49808 0.58893 0.9446 0.0
H201 H 0.51337 0.64289 0.98948 0.0
H202 H 0.48221 0.62945 0.34432 0.0
H203 H 0.46741 0.57492 0.30042 0.0
H204 H 0.50844 0.41755 0.54057 0.0
H205 H 0.49547 0.37924 0.38797 0.0
H206 H 0.59424 0.35824 0.34647 0.0
H207 H 0.60719 0.39708 0.4955 0.0
Ho208 Ho 0.97497 0.45003 0.78847 0.0
Ho209 Ho 0.00023 0.4914 0.58957 0.0
C210 C 0.92707 0.4813 0.59564 0.0
C211 C 0.94291 0.43417 0.97092 0.0
C212 C 0.91367 0.44811 0.01499 0.0
C213 C 0.90333 0.47681 0.96752 0.0
C214 C 0.87506 0.49007 0.00366 0.0
C215 C 0.857 0.47524 0.09041 0.0
C216 C 0.86753 0.4468 0.14014 0.0
C217 C 0.89574 0.43317 0.102 0.0
C218 C 0.99258 0.4177 0.59767 0.0
C219 C 0.0485 0.4564 0.77657 0.0
C220 C 0.03379 0.51556 0.42292 0.0
C221 C 0.06805 0.51769 0.40379 0.0
C222 C 0.07998 0.52074 0.29025 0.0
C223 C 0.1125 0.52107 0.27056 0.0
C224 C 0.13347 0.51841 0.36451 0.0
C225 C 0.1216 0.51584 0.47841 0.0
C226 C 0.08911 0.51557 0.49794 0.0
C227 C 0.97849 0.52241 0.77636 0.0
O228 O 0.93159 0.47065 0.70312 0.0
O229 O 0.95073 0.48775 0.52429 0.0
O230 O 0.94044 0.41964 0.87121 0.0
O231 O 0.96736 0.45285 0.97421 0.0
O232 O 0.99554 0.40722 0.7041 0.0
O233 O 0.97915 0.44414 0.59889 0.0
O234 O 0.04415 0.47297 0.67944 0.0
O235 O 0.02499 0.44453 0.83735 0.0
O236 O 0.02253 0.53191 0.50943 0.0
O237 O 0.02187 0.48728 0.41917 0.0
O238 O 0.97538 0.53259 0.67 0.0
O239 O 0.99441 0.49741 0.77771 0.0
H240 H 0.91718 0.48902 0.90241 0.0
H241 H 0.86736 0.51205 0.96469 0.0
H242 H 0.85381 0.43514 0.20753 0.0
H243 H 0.90349 0.41108 0.13996 0.0
H244 H 0.06415 0.5226 0.21686 0.0
H245 H 0.12132 0.5231 0.1821 0.0
H246 H 0.13749 0.51385 0.55186 0.0
H247 H 0.08051 0.51363 0.58651 0.0
C248 C 0.09843 0.95487 0.55836 0.0
C249 C 0.11802 0.9807 0.52737 0.0
C250 C 0.09485 0.01122 0.68695 0.0
C251 C 0.07761 0.98429 0.72309 0.0
N252 N 0.07205 0.9279 0.71653 0.0
N253 N 0.14017 0.03095 0.58083 0.0
C254 C 0.08208 0.95531 0.66588 0.0
C255 C 0.1177 0.00831 0.59662 0.0
N256 N 0.094 0.93057 0.48301 0.0
N257 N 0.08913 0.03963 0.73738 0.0
H258 H 0.15839 0.02903 0.52032 0.0
H259 H 0.14276 0.05005 0.63621 0.0
H260 H 0.0734 0.04241 0.80641 0.0
H261 H 0.09832 0.06071 0.70525 0.0
H262 H 0.07797 0.91249 0.49911 0.0
H263 H 0.10335 0.93029 0.39893 0.0
H264 H 0.07785 0.90589 0.6834 0.0
H265 H 0.06097 0.927 0.79777 0.0
C266 C 0.54012 0.13965 0.3676 0.0
C267 C 0.51364 0.14134 0.29201 0.0
C268 C 0.48044 0.12047 0.44967 0.0
C269 C 0.50756 0.11313 0.51549 0.0
N270 N 0.56402 0.11511 0.53636 0.0
N271 N 0.45937 0.12718 0.25582 0.0
C272 C 0.5377 0.1223 0.47362 0.0
C273 C 0.4839 0.13026 0.33171 0.0
N274 N 0.56688 0.15635 0.34283 0.0
N275 N 0.45139 0.11846 0.49979 0.0
H276 H 0.46139 0.13191 0.16679 0.0
H277 H 0.43818 0.11642 0.27904 0.0
H278 H 0.44828 0.11236 0.5873 0.0
H279 H 0.43099 0.12624 0.45816 0.0
H280 H 0.58576 0.15806 0.40022 0.0
H281 H 0.56894 0.17162 0.27172 0.0
H282 H 0.58677 0.11709 0.5028 0.0
H283 H 0.56291 0.10611 0.62085 0.0
C284 C 0.43996 0.49211 0.4482 0.0
C285 C 0.40761 0.48528 0.4663 0.0
C286 C 0.42002 0.46102 0.65508 0.0
C287 C 0.45089 0.47339 0.64632 0.0
N288 N 0.49359 0.48526 0.51497 0.0
N289 N 0.36632 0.46218 0.58398 0.0
C290 C 0.46204 0.48433 0.5367 0.0
C291 C 0.39756 0.46867 0.56764 0.0
N292 N 0.44938 0.50688 0.34776 0.0
N293 N 0.41279 0.44094 0.74486 0.0
H294 H 0.34919 0.46713 0.52151 0.0
H295 H 0.35701 0.45362 0.66207 0.0
H296 H 0.42972 0.4334 0.80469 0.0
H297 H 0.39149 0.42899 0.75229 0.0
H298 H 0.47172 0.51644 0.33616 0.0
H299 H 0.43429 0.51086 0.27751 0.0
H300 H 0.50349 0.49092 0.43441 0.0
H301 H 0.50975 0.47598 0.57355 0.0
C302 C 0.99551 0.38661 0.28906 0.0
C303 C 0.97411 0.36112 0.29696 0.0
C304 C 0.96507 0.37207 0.50327 0.0
C305 C 0.98819 0.39624 0.49786 0.0
N306 N 0.0308 0.421 0.39298 0.0
N307 N 0.94567 0.32406 0.41838 0.0
C308 C 0.00506 0.40184 0.39282 0.0
C309 C 0.96109 0.35213 0.40619 0.0
N310 N 0.00565 0.39716 0.18252 0.0
N311 N 0.94558 0.36903 0.5978 0.0
H312 H 0.94274 0.30834 0.35 0.0
H313 H 0.93877 0.31488 0.49903 0.0
H314 H 0.94628 0.38379 0.66958 0.0
H315 H 0.92621 0.354 0.59935 0.0
H316 H 0.0186 0.41778 0.17117 0.0
H317 H 0.99878 0.38688 0.10439 0.0
H318 H 0.04589 0.42363 0.32181 0.0
H319 H 0.03858 0.43197 0.46833 0.0
C320 C 0.87368 0.01452 0.13814 0.0
C321 C 0.87109 0.9898 0.22165 0.0
C322 C 0.91796 0.96451 0.14064 0.0
C323 C 0.92123 0.98972 0.05953 0.0
N324 N 0.9066 0.04202 0.99758 0.0
N325 N 0.89465 0.94564 0.32122 0.0
C326 C 0.9005 0.01583 0.06381 0.0
C327 C 0.89444 0.9661 0.22857 0.0
N328 N 0.84969 0.0357 0.12503 0.0
N329 N 0.93649 0.93846 0.13126 0.0
H330 H 0.87798 0.94643 0.3881 0.0
H331 H 0.91296 0.92994 0.3378 0.0
H332 H 0.95451 0.93684 0.07033 0.0
H333 H 0.93268 0.91772 0.17814 0.0
H334 H 0.84859 0.05195 0.05673 0.0
H335 H 0.82947 0.03549 0.17674 0.0
H336 H 0.89443 0.06311 0.00665 0.0
H337 H 0.92567 0.0436 0.94045 0.0
C338 C 0.54642 0.9142 0.92267 0.0
C339 C 0.52968 0.91452 0.02954 0.0
C340 C 0.50151 0.96189 0.96414 0.0
C341 C 0.51951 0.96241 0.85875 0.0
N342 N 0.56895 0.94676 0.77173 0.0
N343 N 0.49921 0.94495 0.16577 0.0
C344 C 0.54497 0.94088 0.84814 0.0
C345 C 0.50946 0.94012 0.05429 0.0
N346 N 0.56281 0.88816 0.88916 0.0
N347 N 0.47664 0.98157 0.98018 0.0
H348 H 0.50626 0.93116 0.2366 0.0
H349 H 0.48676 0.96488 0.1901 0.0
H350 H 0.47238 0.0013 0.92958 0.0
H351 H 0.45959 0.97756 0.04409 0.0
H352 H 0.57306 0.88625 0.80679 0.0
H353 H 0.56314 0.86731 0.93753 0.0
H354 H 0.58904 0.93274 0.76687 0.0
H355 H 0.57097 0.9681 0.7274 0.0
C356 C 0.62837 0.48102 0.23668 0.0
C357 C 0.62362 0.511 0.28793 0.0
C358 C 0.58094 0.52162 0.1499 0.0
C359 C 0.58489 0.4912 0.1014 0.0
N360 N 0.60471 0.4385 0.12964 0.0
N361 N 0.58807 0.55431 0.31954 0.0
C362 C 0.60605 0.46977 0.15525 0.0
C363 C 0.5974 0.52943 0.25332 0.0
N364 N 0.6551 0.46406 0.25788 0.0
N365 N 0.56357 0.54399 0.09377 0.0
H366 H 0.59899 0.55993 0.39809 0.0
H367 H 0.56743 0.56687 0.30341 0.0
H368 H 0.55234 0.53991 0.01538 0.0
H369 H 0.56282 0.5674 0.11968 0.0
H370 H 0.6609 0.4439 0.21147 0.0
H371 H 0.67305 0.47136 0.31271 0.0
H372 H 0.61757 0.42152 0.1751 0.0
H373 H 0.58807 0.42921 0.07287 0.0
C374 C 0.97667 0.55752 0.08115 0.0
C375 C 0.95104 0.57873 0.07067 0.0
C376 C 0.93948 0.55685 0.87937 0.0
C377 C 0.96851 0.54034 0.88078 0.0
N378 N 0.01881 0.53262 0.97604 0.0
N379 N 0.9126 0.60343 0.94311 0.0
C380 C 0.98827 0.54253 0.97996 0.0
C381 C 0.93351 0.57973 0.96541 0.0
N382 N 0.98958 0.55098 0.18749 0.0
N383 N 0.9171 0.55016 0.79835 0.0
H384 H 0.90914 0.62242 0.9983 0.0
H385 H 0.90154 0.60621 0.8626 0.0
H386 H 0.91977 0.53199 0.73932 0.0
H387 H 0.89451 0.55976 0.80042 0.0
H388 H 0.00653 0.53352 0.19905 0.0
H389 H 0.98065 0.56004 0.26504 0.0
H390 H 0.03457 0.53659 0.04384 0.0
H391 H 0.02953 0.52429 0.90067 0.0
C392 C 0.95589 0.18257 0.17787 0.0
C393 C 0.96431 0.21096 0.2346 0.0
C394 C 0.97314 0.18193 0.41825 0.0
C395 C 0.96675 0.15344 0.35962 0.0
N396 N 0.9527 0.12538 0.18611 0.0
N397 N 0.98126 0.23834 0.40703 0.0
C398 C 0.9581 0.15345 0.24009 0.0
C399 C 0.97302 0.21079 0.35441 0.0
N400 N 0.94634 0.18352 0.06399 0.0
N401 N 0.97806 0.18138 0.5362 0.0
H402 H 0.97866 0.26031 0.3673 0.0
H403 H 0.99182 0.23965 0.48853 0.0
H404 H 0.97883 0.16065 0.58535 0.0
H405 H 0.97945 0.20133 0.58766 0.0
H406 H 0.9371 0.16454 0.01917 0.0
H407 H 0.94696 0.20384 0.01267 0.0
H408 H 0.9468 0.12296 0.09897 0.0
H409 H 0.95494 0.10367 0.22822 0.0
C410 C 0.3025 0.9762 0.182 0.0
C411 C 0.28382 0.00077 0.2287 0.0
C412 C 0.33159 0.02857 0.28975 0.0
C413 C 0.34999 0.00262 0.25283 0.0
N414 N 0.35332 0.95023 0.17568 0.0
N415 N 0.27978 0.04839 0.34009 0.0
C416 C 0.33552 0.97597 0.20245 0.0
C417 C 0.29816 0.02656 0.28556 0.0
N418 N 0.28887 0.95386 0.11349 0.0
N419 N 0.34615 0.05521 0.3282 0.0
H420 H 0.25524 0.04768 0.33897 0.0
H421 H 0.28865 0.06576 0.39425 0.0
H422 H 0.37053 0.05719 0.33581 0.0
H423 H 0.33436 0.07616 0.34454 0.0
H424 H 0.30166 0.93745 0.06608 0.0
H425 H 0.26483 0.9534 0.09537 0.0
H426 H 0.34375 0.92868 0.15205 0.0
H427 H 0.37778 0.94978 0.18374 0.0
C428 C 0.54339 0.3143 0.08765 0.0
C429 C 0.52763 0.2873 0.13168 0.0
C430 C 0.52299 0.31156 0.32399 0.0
C431 C 0.53642 0.33955 0.27763 0.0
N432 N 0.55564 0.36962 0.11379 0.0
N433 N 0.49903 0.26106 0.28697 0.0
C434 C 0.54557 0.34149 0.15869 0.0
C435 C 0.51619 0.2863 0.24815 0.0
N436 N 0.55628 0.31382 0.97832 0.0
N437 N 0.51863 0.30827 0.44177 0.0
H438 H 0.4956 0.24077 0.23829 0.0
H439 H 0.48648 0.26094 0.3651 0.0
H440 H 0.52377 0.3259 0.5013 0.0
H441 H 0.51255 0.28711 0.48221 0.0
H442 H 0.57079 0.33144 0.94485 0.0
H443 H 0.55382 0.29479 0.92233 0.0
H444 H 0.56189 0.37333 0.0271 0.0
H445 H 0.5557 0.39019 0.16255 0.0
C446 C 0.21757 0.48888 0.32571 0.0
C447 C 0.23289 0.51702 0.29013 0.0
C448 C 0.18405 0.54667 0.32009 0.0
C449 C 0.16797 0.51803 0.34323 0.0
N450 N 0.1682 0.46148 0.35933 0.0
N451 N 0.23071 0.57224 0.24197 0.0
C452 C 0.18444 0.489 0.34428 0.0
C453 C 0.21619 0.54587 0.28495 0.0
N454 N 0.23491 0.46223 0.34441 0.0
N455 N 0.16872 0.57464 0.33437 0.0
H456 H 0.25438 0.57272 0.21753 0.0
H457 H 0.21889 0.59309 0.2229 0.0
H458 H 0.1451 0.57608 0.35897 0.0
H459 H 0.17991 0.5964 0.33118 0.0
H460 H 0.22585 0.44179 0.38208 0.0
H461 H 0.25921 0.46134 0.33129 0.0
H462 H 0.17813 0.43935 0.34792 0.0
H463 H 0.14401 0.46064 0.37492 0.0
C464 C 0.94171 0.77169 0.25566 0.0
C465 C 0.96267 0.74939 0.30599 0.0
C466 C 0.00312 0.79036 0.32458 0.0
C467 C 0.98298 0.81202 0.26697 0.0
N468 N 0.93516 0.82257 0.16096 0.0
N469 N 0.01537 0.73581 0.36655 0.0
C470 C 0.95287 0.80244 0.22731 0.0
C471 C 0.99395 0.75829 0.33464 0.0
N472 N 0.91077 0.76399 0.23995 0.0
N473 N 0.03089 0.80055 0.37112 0.0
H474 H 0.00984 0.71196 0.37245 0.0
H475 H 0.03931 0.74027 0.37654 0.0
H476 H 0.03885 0.82365 0.36267 0.0
H477 H 0.04486 0.78679 0.42584 0.0
H478 H 0.89358 0.7802 0.21564 0.0
H479 H 0.90163 0.74187 0.26056 0.0
H480 H 0.9147 0.81584 0.11806 0.0
H481 H 0.94215 0.84555 0.14145 0.0
C482 C 0.6995 0.08029 0.30113 0.0
C483 C 0.71669 0.05454 0.25563 0.0
C484 C 0.67261 0.04202 0.12634 0.0
C485 C 0.65369 0.06386 0.18807 0.0
N486 N 0.64809 0.10275 0.33836 0.0
N487 N 0.72502 0.02101 0.09146 0.0
C488 C 0.66691 0.08294 0.27593 0.0
C489 C 0.7048 0.03839 0.15761 0.0
N490 N 0.71465 0.10343 0.36065 0.0
N491 N 0.65943 0.02399 0.04116 0.0
H492 H 0.74914 0.02026 0.10883 0.0
H493 H 0.71892 0.01032 0.0135 0.0
H494 H 0.63627 0.02686 0.01286 0.0
H495 H 0.67082 0.00526 0.00149 0.0
H496 H 0.70355 0.12378 0.38937 0.0
H497 H 0.7391 0.10478 0.36498 0.0
H498 H 0.65565 0.11426 0.41303 0.0
H499 H 0.62416 0.10572 0.32112 0.0
C500 C 0.551 0.71121 0.22007 0.0
C501 C 0.52811 0.73443 0.24604 0.0
C502 C 0.48599 0.69633 0.21012 0.0
C503 C 0.50895 0.67242 0.19725 0.0
N504 N 0.56309 0.65566 0.2099 0.0
N505 N 0.47386 0.74783 0.28598 0.0
C506 C 0.54144 0.67944 0.2078 0.0
C507 C 0.49555 0.72673 0.24611 0.0
N508 N 0.58175 0.71967 0.20373 0.0
N509 N 0.45513 0.69019 0.18536 0.0
H510 H 0.47982 0.77018 0.31525 0.0
H511 H 0.45028 0.7422 0.30006 0.0
H512 H 0.44718 0.66812 0.15963 0.0
H513 H 0.43791 0.70758 0.18062 0.0
H514 H 0.59891 0.70428 0.17324 0.0
H515 H 0.58957 0.74283 0.21019 0.0
H516 H 0.58671 0.65909 0.23041 0.0
H517 H 0.55698 0.63203 0.20156 0.0
C518 C 0.76925 0.48811 0.14128 0.0
C519 C 0.77022 0.51556 0.21083 0.0
C520 C 0.82722 0.51885 0.18672 0.0
C521 C 0.82687 0.48968 0.12768 0.0
N522 N 0.79767 0.45121 0.0189 0.0
N523 N 0.79704 0.56497 0.23699 0.0
C524 C 0.79782 0.47569 0.09546 0.0
C525 C 0.79825 0.53359 0.21383 0.0
N526 N 0.74087 0.47433 0.11888 0.0
N527 N 0.85512 0.53199 0.22026 0.0
H528 H 0.77579 0.57716 0.24173 0.0
H529 H 0.8167 0.5796 0.23325 0.0
H530 H 0.87691 0.52141 0.20583 0.0
H531 H 0.85651 0.55211 0.27102 0.0
H532 H 0.73822 0.45224 0.08202 0.0
H533 H 0.71961 0.48558 0.13734 0.0
H534 H 0.77736 0.44127 0.98478 0.0
H535 H 0.81819 0.44199 0.98258 0.0
C536 C 0.0607 0.11533 0.11883 0.0
C537 C 0.04415 0.14125 0.071 0.0
C538 C 0.00924 0.10556 0.96637 0.0
C539 C 0.02775 0.07963 0.00477 0.0
N540 N 0.07589 0.06105 0.09438 0.0
N541 N 0.00607 0.16167 0.93353 0.0
C542 C 0.05478 0.08476 0.07511 0.0
C543 C 0.01971 0.13656 0.98889 0.0
N544 N 0.0821 0.11985 0.20587 0.0
N545 N 0.98058 0.10071 0.91532 0.0
H546 H 0.01113 0.18498 0.95337 0.0
H547 H 0.99117 0.15937 0.86207 0.0
H548 H 0.97037 0.0786 0.90704 0.0
H549 H 0.96506 0.11877 0.89363 0.0
H550 H 0.09213 0.10142 0.25328 0.0
H551 H 0.0881 0.14208 0.23644 0.0
H552 H 0.09746 0.0644 0.13551 0.0
H553 H 0.07365 0.03883 0.05812 0.0
C554 C 0.35445 0.06594 0.7234 0.0
C555 C 0.34256 0.04577 0.81205 0.0
C556 C 0.39223 0.0166 0.81615 0.0
C557 C 0.40499 0.03861 0.73572 0.0
N558 N 0.3949 0.07459 0.57727 0.0
N559 N 0.34623 0.99702 0.91991 0.0
C560 C 0.38506 0.06037 0.67794 0.0
C561 C 0.36035 0.01958 0.85198 0.0
N562 N 0.337 0.09104 0.68588 0.0
N563 N 0.41055 0.99233 0.85478 0.0
H564 H 0.32261 0.99811 0.9446 0.0
H565 H 0.35691 0.97607 0.94505 0.0
H566 H 0.43168 0.98663 0.81356 0.0
H567 H 0.40487 0.97772 0.92494 0.0
H568 H 0.34581 0.1086 0.63105 0.0
H569 H 0.31422 0.09544 0.71581 0.0
H570 H 0.38063 0.08906 0.52628 0.0
H571 H 0.41608 0.06872 0.53722 0.0
C572 C 0.45113 0.35169 0.96637 0.0
C573 C 0.4289 0.35562 0.05758 0.0
C574 C 0.44586 0.41004 0.07828 0.0
C575 C 0.47128 0.40512 0.99846 0.0
N576 N 0.50239 0.36652 0.8939 0.0
N577 N 0.41325 0.3856 0.22576 0.0
C578 C 0.47535 0.37447 0.95099 0.0
C579 C 0.42913 0.38374 0.12237 0.0
N580 N 0.44841 0.32734 0.89027 0.0
N581 N 0.43525 0.43947 0.10472 0.0
H582 H 0.40157 0.3664 0.26312 0.0
H583 H 0.41496 0.40508 0.28004 0.0
H584 H 0.44229 0.45981 0.06121 0.0
H585 H 0.41552 0.44321 0.15714 0.0
H586 H 0.46236 0.32545 0.81574 0.0
H587 H 0.43023 0.31092 0.89462 0.0
H588 H 0.50677 0.34383 0.86446 0.0
H589 H 0.52199 0.38115 0.88913 0.0
C590 C 0.13741 0.44702 0.77403 0.0
C591 C 0.14488 0.45213 0.89269 0.0
C592 C 0.08885 0.45816 0.93891 0.0
C593 C 0.08126 0.45216 0.82004 0.0
N594 N 0.09862 0.43447 0.63042 0.0
N595 N 0.12762 0.45354 0.09291 0.0
C596 C 0.10562 0.44451 0.74 0.0
C597 C 0.12053 0.45487 0.97668 0.0
N598 N 0.16007 0.44461 0.69031 0.0
N599 N 0.06651 0.46898 0.0146 0.0
H600 H 0.15055 0.45079 0.1237 0.0
H601 H 0.11065 0.45184 0.1584 0.0
H602 H 0.04323 0.47332 0.9921 0.0
H603 H 0.07166 0.47653 0.09839 0.0
H604 H 0.18417 0.44678 0.70586 0.0
H605 H 0.18417 0.44678 0.70586 0.0
H606 H 0.11591 0.42943 0.56846 0.0
H607 H 0.07579 0.42882 0.60551 0.0
C608 C 0.94985 0.84599 0.80712 0.0
C609 C 0.97338 0.83075 0.74016 0.0
C610 C 0.99611 0.88156 0.68501 0.0
C611 C 0.97571 0.8964 0.76521 0.0
N612 N 0.93184 0.89403 0.89802 0.0
N613 N 0.02204 0.83328 0.63117 0.0
C614 C 0.95221 0.87891 0.82522 0.0
C615 C 0.99724 0.84834 0.6826 0.0
N616 N 0.92454 0.82934 0.84825 0.0
N617 N 0.01423 0.89902 0.6103 0.0
H618 H 0.02452 0.80889 0.6317 0.0
H619 H 0.04182 0.84494 0.59876 0.0
H620 H 0.01428 0.92347 0.60861 0.0
H621 H 0.02697 0.8892 0.54207 0.0
H622 H 0.90508 0.83958 0.88804 0.0
H623 H 0.92171 0.8053 0.83515 0.0
H624 H 0.91718 0.88256 0.95753 0.0
H625 H 0.93013 0.91847 0.89979 0.0
C626 C 0.65781 0.051 0.72359 0.0
C627 C 0.67322 0.03317 0.63718 0.0
C628 C 0.62237 0.0114 0.57685 0.0
C629 C 0.60657 0.03258 0.65258 0.0
N630 N 0.61052 0.07845 0.77641 0.0
N631 N 0.6695 0.00098 0.46518 0.0
C632 C 0.62459 0.05391 0.72067 0.0
C633 C 0.65538 0.01451 0.5594 0.0
N634 N 0.67491 0.06501 0.80959 0.0
N635 N 0.60633 0.98755 0.52434 0.0
H636 H 0.69357 0.00242 0.44888 0.0
H637 H 0.65686 0.99071 0.39769 0.0
H638 H 0.58236 0.98353 0.53602 0.0
H639 H 0.61752 0.96969 0.47845 0.0
H640 H 0.66457 0.07606 0.88081 0.0
H641 H 0.6993 0.06268 0.81627 0.0
H642 H 0.62326 0.09666 0.81402 0.0
H643 H 0.58648 0.08291 0.77417 0.0
C644 C 0.58769 0.61405 0.68469 0.0
C645 C 0.56398 0.63234 0.62941 0.0
C646 C 0.52894 0.58661 0.62759 0.0
C647 C 0.55085 0.56985 0.69694 0.0
N648 N 0.60007 0.56769 0.8006 0.0
N649 N 0.51012 0.63751 0.56411 0.0
C650 C 0.58011 0.58346 0.72731 0.0
C651 C 0.53418 0.61895 0.60367 0.0
N652 N 0.61759 0.62563 0.69378 0.0
N653 N 0.50315 0.5715 0.58421 0.0
H654 H 0.51253 0.6615 0.54713 0.0
H655 H 0.48692 0.62974 0.55868 0.0
H656 H 0.49856 0.54779 0.60111 0.0
H657 H 0.48804 0.5816 0.52304 0.0
H658 H 0.63662 0.61229 0.72281 0.0
H659 H 0.624 0.64783 0.66243 0.0
H660 H 0.61993 0.57788 0.83759 0.0
H661 H 0.59571 0.54484 0.83037 0.0
C662 C 0.84479 0.51115 0.52188 0.0
C663 C 0.82777 0.48256 0.53736 0.0
C664 C 0.87718 0.45341 0.55466 0.0
C665 C 0.89405 0.48209 0.55407 0.0
N666 N 0.89539 0.5382 0.5277 0.0
N667 N 0.8273 0.42722 0.58521 0.0
C668 C 0.87828 0.51103 0.53409 0.0
C669 C 0.84386 0.45385 0.55749 0.0
N670 N 0.82895 0.53811 0.49313 0.0
N671 N 0.89326 0.42566 0.5486 0.0
H672 H 0.8028 0.4267 0.59145 0.0
H673 H 0.83789 0.40641 0.61316 0.0
H674 H 0.91772 0.42488 0.54128 0.0
H675 H 0.88244 0.40394 0.53736 0.0
H676 H 0.83965 0.55954 0.47454 0.0
H677 H 0.80462 0.53896 0.48214 0.0
H678 H 0.8857 0.56062 0.52476 0.0
H679 H 0.91994 0.53836 0.52831 0.0
loop_
_geom_bond_atom_site_label_1
_geom_bond_atom_site_label_2
_geom_bond_distance
_geom_bond_site_symmetry_2
_ccdc_geom_bond_type
O0 Cd1 2.300 . S
O0 C7 1.275 . S
Cd1 O0 2.300 . S
Cd1 O9 2.381 . S
Cd1 O10 2.378 . S
O2 Cd3 2.385 . S
O2 C7 1.255 . S
Cd3 O2 2.385 . S
Cd3 O4 2.317 . S
O4 Cd3 2.317 . S
O4 C5 1.232 . S
C5 O4 1.232 . S
C5 O6 1.218 . S
O6 C5 1.218 . S
C7 O0 1.275 . S
C7 O2 1.255 . S
C8 O9 1.258 . S
C8 O10 1.256 . S
O9 Cd1 2.381 . S
O9 C8 1.258 . S
O10 Cd1 2.378 . S
O10 C8 1.256 . S
O11 Cd12 2.300 1_655 S
O11 C18 1.275 1_655 S
Cd12 O11 2.300 1_455 S
Cd12 O20 2.381 1_455 S
Cd12 O21 2.378 . S
O13 Cd14 2.385 . S
O13 C18 1.255 . S
Cd14 O13 2.385 . S
Cd14 O15 2.317 . S
O15 Cd14 2.317 . S
O15 C16 1.232 . S
C16 O15 1.232 . S
C16 O17 1.218 . S
O17 C16 1.218 . S
C18 O11 1.275 1_455 S
C18 O13 1.255 . S
C19 O20 1.258 1_455 S
C19 O21 1.256 . S
O20 Cd12 2.381 1_655 S
O20 C19 1.258 1_655 S
O21 Cd12 2.378 . S
O21 C19 1.256 . S
O22 Cd23 2.300 1_565 S
O22 C29 1.275 1_565 S
Cd23 O22 2.300 1_545 S
Cd23 O31 2.381 1_545 S
Cd23 O32 2.378 . S
O24 Cd25 2.385 . S
O24 C29 1.255 . S
Cd25 O24 2.385 . S
Cd25 O26 2.317 . S
O26 Cd25 2.317 . S
O26 C27 1.232 . S
C27 O26 1.232 . S
C27 O28 1.218 . S
O28 C27 1.218 . S
C29 O22 1.275 1_545 S
C29 O24 1.255 . S
C30 O31 1.258 1_545 S
C30 O32 1.256 . S
O31 Cd23 2.381 1_565 S
O31 C30 1.258 1_565 S
O32 Cd23 2.378 . S
O32 C30 1.256 . S
O33 Cd34 2.300 . S
O33 C40 1.275 . S
Cd34 O33 2.300 . S
Cd34 O42 2.381 . S
Cd34 O43 2.378 . S
O35 Cd36 2.385 . S
O35 C40 1.255 . S
Cd36 O35 2.385 . S
Cd36 O37 2.317 . S
O37 Cd36 2.317 . S
O37 C38 1.232 . S
C38 O37 1.232 . S
C38 O39 1.218 . S
O39 C38 1.218 . S
C40 O33 1.275 . S
C40 O35 1.255 . S
C41 O42 1.258 . S
C41 O43 1.256 . S
O42 Cd34 2.381 . S
O42 C41 1.258 . S
O43 Cd34 2.378 . S
O43 C41 1.256 . S
O44 Cd45 2.300 . S
O44 C51 1.275 . S
Cd45 O44 2.300 . S
Cd45 O53 2.381 . S
Cd45 O54 2.378 . S
O46 Cd47 2.385 1_554 S
O46 C51 1.255 . S
Cd47 O46 2.385 1_556 S
Cd47 O48 2.317 . S
O48 Cd47 2.317 . S
O48 C49 1.232 . S
C49 O48 1.232 . S
C49 O50 1.218 . S
O50 C49 1.218 . S
C51 O44 1.275 . S
C51 O46 1.255 . S
C52 O53 1.258 . S
C52 O54 1.256 . S
O53 Cd45 2.381 . S
O53 C52 1.258 . S
O54 Cd45 2.378 . S
O54 C52 1.256 . S
O55 Cd56 2.300 1_655 S
O55 C62 1.275 1_655 S
Cd56 O55 2.300 1_455 S
Cd56 O64 2.381 1_455 S
Cd56 O65 2.378 . S
O57 Cd58 2.385 1_554 S
O57 C62 1.255 . S
Cd58 O57 2.385 1_556 S
Cd58 O59 2.317 . S
O59 Cd58 2.317 . S
O59 C60 1.232 . S
C60 O59 1.232 . S
C60 O61 1.218 . S
O61 C60 1.218 . S
C62 O55 1.275 1_455 S
C62 O57 1.255 . S
C63 O64 1.258 1_455 S
C63 O65 1.256 . S
O64 Cd56 2.381 1_655 S
O64 C63 1.258 1_655 S
O65 Cd56 2.378 . S
O65 C63 1.256 . S
O66 Cd67 2.300 1_565 S
O66 C73 1.275 1_565 S
Cd67 O66 2.300 1_545 S
Cd67 O75 2.381 1_545 S
Cd67 O76 2.378 . S
O68 Cd69 2.385 1_554 S
O68 C73 1.255 . S
Cd69 O68 2.385 1_556 S
Cd69 O70 2.317 . S
O70 Cd69 2.317 . S
O70 C71 1.232 . S
C71 O70 1.232 . S
C71 O72 1.218 . S
O72 C71 1.218 . S
C73 O66 1.275 1_545 S
C73 O68 1.255 . S
C74 O75 1.258 1_545 S
C74 O76 1.256 . S
O75 Cd67 2.381 1_565 S
O75 C74 1.258 1_565 S
O76 Cd67 2.378 . S
O76 C74 1.256 . S
O77 Cd78 2.300 . S
O77 C84 1.275 . S
Cd78 O77 2.300 . S
Cd78 O86 2.381 . S
Cd78 O87 2.378 . S
O79 Cd80 2.385 1_554 S
O79 C84 1.255 . S
Cd80 O79 2.385 1_556 S
Cd80 O81 2.317 . S
O81 Cd80 2.317 . S
O81 C82 1.232 . S
C82 O81 1.232 . S
C82 O83 1.218 . S
O83 C82 1.218 . S
C84 O77 1.275 . S
C84 O79 1.255 . S
C85 O86 1.258 . S
C85 O87 1.256 . S
O86 Cd78 2.381 . S
O86 C85 1.258 . S
O87 Cd78 2.378 . S
O87 C85 1.256 . S
Ho88 C91 2.811 1_556 S
Ho88 O108 2.322 . S
Ho88 O110 2.378 . S
Ho88 O111 2.524 1_556 S
Ho88 O112 2.381 . S
Ho88 O113 2.669 1_565 S
Ho88 O115 2.346 1_565 S
Ho88 O119 2.305 1_455 S
Ho89 C100 2.811 . S
Ho89 O109 2.346 1_545 S
Ho89 O113 2.305 1_655 S
Ho89 O114 2.322 . S
Ho89 O116 2.378 . S
Ho89 O117 2.524 . S
Ho89 O118 2.381 . S
Ho89 O119 2.669 1_545 S
C90 O108 1.259 1_655 S
C90 O109 1.268 . S
C91 Ho88 2.811 1_554 S
C91 C92 1.488 . S
C91 O110 1.215 1_554 S
C91 O111 1.289 . S
C92 C91 1.488 . S
C92 C93 1.348 . S
C92 C97 1.413 . S
C93 C92 1.348 . S
C93 C94 1.442 . S
C93 H120 0.930 1_455 S
C94 C93 1.442 . S
C94 C95 1.381 . S
C94 H121 0.931 1_455 S
C95 C94 1.381 . S
C95 C96 1.321 . S
C96 C95 1.321 . S
C96 C97 1.403 . S
C96 H122 0.934 . S
C97 C92 1.413 . S
C97 C96 1.403 . S
C97 H123 0.930 . S
C98 O112 1.275 . S
C98 O113 1.256 1_565 S
C99 O114 1.259 1_455 S
C99 O115 1.268 . S
C100 Ho89 2.811 . S
C100 C101 1.488 . S
C100 O116 1.215 . S
C100 O117 1.289 . S
C101 C100 1.488 . S
C101 C102 1.348 . S
C101 C106 1.413 . S
C102 C101 1.348 . S
C102 C103 1.442 . S
C102 H124 0.930 1_655 S
C103 C102 1.442 . S
C103 C104 1.381 . S
C103 H125 0.931 1_655 S
C104 C103 1.381 . S
C104 C105 1.321 . S
C105 C104 1.321 . S
C105 C106 1.403 . S
C105 H126 0.934 . S
C106 C101 1.413 . S
C106 C105 1.403 . S
C106 H127 0.930 . S
C107 O118 1.275 . S
C107 O119 1.256 1_545 S
O108 Ho88 2.322 . S
O108 C90 1.259 1_455 S
O109 Ho89 2.346 1_565 S
O109 C90 1.268 . S
O110 Ho88 2.378 . S
O110 C91 1.215 1_556 S
O111 Ho88 2.524 1_554 S
O111 C91 1.289 . S
O112 Ho88 2.381 . S
O112 C98 1.275 . S
O113 Ho88 2.669 1_545 S
O113 Ho89 2.305 1_455 S
O113 C98 1.256 1_545 S
O114 Ho89 2.322 . S
O114 C99 1.259 1_655 S
O115 Ho88 2.346 1_545 S
O115 C99 1.268 . S
O116 Ho89 2.378 . S
O116 C100 1.215 . S
O117 Ho89 2.524 . S
O117 C100 1.289 . S
O118 Ho89 2.381 . S
O118 C107 1.275 . S
O119 Ho88 2.305 1_655 S
O119 Ho89 2.669 1_565 S
O119 C107 1.256 1_565 S
H120 C93 0.930 1_655 S
H121 C94 0.931 1_655 S
H122 C96 0.934 . S
H123 C97 0.930 . S
H124 C102 0.930 1_455 S
H125 C103 0.931 1_455 S
H126 C105 0.934 . S
H127 C106 0.930 . S
Ho128 C131 2.811 1_556 S
Ho128 O148 2.322 . S
Ho128 O150 2.378 . S
Ho128 O151 2.524 1_556 S
Ho128 O152 2.381 . S
Ho128 O153 2.669 . S
Ho128 O155 2.346 . S
Ho128 O159 2.305 1_545 S
Ho129 C140 2.811 . S
Ho129 O149 2.346 . S
Ho129 O153 2.305 1_565 S
Ho129 O154 2.322 . S
Ho129 O156 2.378 . S
Ho129 O157 2.524 . S
Ho129 O158 2.381 . S
Ho129 O159 2.669 . S
C130 O148 1.259 1_565 S
C130 O149 1.268 . S
C131 Ho128 2.811 1_554 S
C131 C132 1.488 . S
C131 O150 1.215 1_554 S
C131 O151 1.289 . S
C132 C131 1.488 . S
C132 C133 1.348 . S
C132 C137 1.413 . S
C133 C132 1.348 . S
C133 C134 1.442 . S
C133 H160 0.930 1_545 S
C134 C133 1.442 . S
C134 C135 1.381 . S
C134 H161 0.931 1_545 S
C135 C134 1.381 . S
C135 C136 1.321 . S
C136 C135 1.321 . S
C136 C137 1.403 . S
C136 H162 0.934 . S
C137 C132 1.413 . S
C137 C136 1.403 . S
C137 H163 0.930 . S
C138 O152 1.275 . S
C138 O153 1.256 . S
C139 O154 1.259 1_545 S
C139 O155 1.268 . S
C140 Ho129 2.811 . S
C140 C141 1.488 . S
C140 O156 1.215 . S
C140 O157 1.289 . S
C141 C140 1.488 . S
C141 C142 1.348 . S
C141 C146 1.413 . S
C142 C141 1.348 . S
C142 C143 1.442 . S
C142 H164 0.930 1_565 S
C143 C142 1.442 . S
C143 C144 1.381 . S
C143 H165 0.931 1_565 S
C144 C143 1.381 . S
C144 C145 1.321 . S
C145 C144 1.321 . S
C145 C146 1.403 . S
C145 H166 0.934 . S
C146 C141 1.413 . S
C146 C145 1.403 . S
C146 H167 0.930 . S
C147 O158 1.275 . S
C147 O159 1.256 . S
O148 Ho128 2.322 . S
O148 C130 1.259 1_545 S
O149 Ho129 2.346 . S
O149 C130 1.268 . S
O150 Ho128 2.378 . S
O150 C131 1.215 1_556 S
O151 Ho128 2.524 1_554 S
O151 C131 1.289 . S
O152 Ho128 2.381 . S
O152 C138 1.275 . S
O153 Ho128 2.669 . S
O153 Ho129 2.305 1_545 S
O153 C138 1.256 . S
O154 Ho129 2.322 . S
O154 C139 1.259 1_565 S
O155 Ho128 2.346 . S
O155 C139 1.268 . S
O156 Ho129 2.378 . S
O156 C140 1.215 . S
O157 Ho129 2.524 . S
O157 C140 1.289 . S
O158 Ho129 2.381 . S
O158 C147 1.275 . S
O159 Ho128 2.305 1_565 S
O159 Ho129 2.669 . S
O159 C147 1.256 . S
H160 C133 0.930 1_565 S
H161 C134 0.931 1_565 S
H162 C136 0.934 . S
H163 C137 0.930 . S
H164 C142 0.930 1_545 S
H165 C143 0.931 1_545 S
H166 C145 0.934 . S
H167 C146 0.930 . S
Ho168 C171 2.811 1_556 S
Ho168 O188 2.322 . S
Ho168 O190 2.378 . S
Ho168 O191 2.524 1_556 S
Ho168 O192 2.381 . S
Ho168 O193 2.669 . S
Ho168 O195 2.346 . S
Ho168 O199 2.305 . S
Ho169 C180 2.811 . S
Ho169 O189 2.346 . S
Ho169 O193 2.305 . S
Ho169 O194 2.322 . S
Ho169 O196 2.378 . S
Ho169 O197 2.524 . S
Ho169 O198 2.381 . S
Ho169 O199 2.669 . S
C170 O188 1.259 . S
C170 O189 1.268 . S
C171 Ho168 2.811 1_554 S
C171 C172 1.488 . S
C171 O190 1.215 1_554 S
C171 O191 1.289 . S
C172 C171 1.488 . S
C172 C173 1.348 . S
C172 C177 1.413 . S
C173 C172 1.348 . S
C173 C174 1.442 . S
C173 H200 0.930 . S
C174 C173 1.442 . S
C174 C175 1.381 . S
C174 H201 0.931 . S
C175 C174 1.381 . S
C175 C176 1.321 . S
C176 C175 1.321 . S
C176 C177 1.403 . S
C176 H202 0.934 . S
C177 C172 1.413 . S
C177 C176 1.403 . S
C177 H203 0.930 . S
C178 O192 1.275 . S
C178 O193 1.256 . S
C179 O194 1.259 . S
C179 O195 1.268 . S
C180 Ho169 2.811 . S
C180 C181 1.488 . S
C180 O196 1.215 . S
C180 O197 1.289 . S
C181 C180 1.488 . S
C181 C182 1.348 . S
C181 C186 1.413 . S
C182 C181 1.348 . S
C182 C183 1.442 . S
C182 H204 0.930 . S
C183 C182 1.442 . S
C183 C184 1.381 . S
C183 H205 0.931 . S
C184 C183 1.381 . S
C184 C185 1.321 . S
C185 C184 1.321 . S
C185 C186 1.403 . S
C185 H206 0.934 . S
C186 C181 1.413 . S
C186 C185 1.403 . S
C186 H207 0.930 . S
C187 O198 1.275 . S
C187 O199 1.256 . S
O188 Ho168 2.322 . S
O188 C170 1.259 . S
O189 Ho169 2.346 . S
O189 C170 1.268 . S
O190 Ho168 2.378 . S
O190 C171 1.215 1_556 S
O191 Ho168 2.524 1_554 S
O191 C171 1.289 . S
O192 Ho168 2.381 . S
O192 C178 1.275 . S
O193 Ho168 2.669 . S
O193 Ho169 2.305 . S
O193 C178 1.256 . S
O194 Ho169 2.322 . S
O194 C179 1.259 . S
O195 Ho168 2.346 . S
O195 C179 1.268 . S
O196 Ho169 2.378 . S
O196 C180 1.215 . S
O197 Ho169 2.524 . S
O197 C180 1.289 . S
O198 Ho169 2.381 . S
O198 C187 1.275 . S
O199 Ho168 2.305 . S
O199 Ho169 2.669 . S
O199 C187 1.256 . S
H200 C173 0.930 . S
H201 C174 0.931 . S
H202 C176 0.934 . S
H203 C177 0.930 . S
H204 C182 0.930 . S
H205 C183 0.931 . S
H206 C185 0.934 . S
H207 C186 0.930 . S
Ho208 C211 2.811 1_556 S
Ho208 O228 2.322 . S
Ho208 O230 2.378 . S
Ho208 O231 2.524 1_556 S
Ho208 O232 2.381 . S
Ho208 O233 2.669 1_655 S
Ho208 O235 2.346 1_655 S
Ho208 O239 2.305 . S
Ho209 C220 2.811 . S
Ho209 O229 2.346 1_455 S
Ho209 O233 2.305 . S
Ho209 O234 2.322 . S
Ho209 O236 2.378 . S
Ho209 O237 2.524 . S
Ho209 O238 2.381 . S
Ho209 O239 2.669 1_455 S
C210 O228 1.259 . S
C210 O229 1.268 . S
C211 Ho208 2.811 1_554 S
C211 C212 1.488 . S
C211 O230 1.215 1_554 S
C211 O231 1.289 . S
C212 C211 1.488 . S
C212 C213 1.348 . S
C212 C217 1.413 . S
C213 C212 1.348 . S
C213 C214 1.442 . S
C213 H240 0.930 . S
C214 C213 1.442 . S
C214 C215 1.381 . S
C214 H241 0.931 . S
C215 C214 1.381 . S
C215 C216 1.321 . S
C216 C215 1.321 . S
C216 C217 1.403 . S
C216 H242 0.934 . S
C217 C212 1.413 . S
C217 C216 1.403 . S
C217 H243 0.930 . S
C218 O232 1.285 . S
C218 O233 1.250 1_655 S
C219 O234 1.259 . S
C219 O235 1.268 . S
C220 Ho209 2.811 . S
C220 C221 1.488 . S
C220 O236 1.215 . S
C220 O237 1.289 . S
C221 C220 1.488 . S
C221 C222 1.348 . S
C221 C226 1.413 . S
C222 C221 1.348 . S
C222 C223 1.442 . S
C222 H244 0.930 . S
C223 C222 1.442 . S
C223 C224 1.381 . S
C223 H245 0.931 . S
C224 C223 1.381 . S
C224 C225 1.321 . S
C225 C224 1.321 . S
C225 C226 1.403 . S
C225 H246 0.934 . S
C226 C221 1.413 . S
C226 C225 1.403 . S
C226 H247 0.930 . S
C227 O238 1.289 . S
C227 O239 1.248 1_455 S
O228 Ho208 2.322 . S
O228 C210 1.259 . S
O229 Ho209 2.346 1_655 S
O229 C210 1.268 . S
O230 Ho208 2.378 . S
O230 C211 1.215 1_556 S
O231 Ho208 2.524 1_554 S
O231 C211 1.289 . S
O232 Ho208 2.381 . S
O232 C218 1.285 . S
O233 Ho208 2.669 1_455 S
O233 Ho209 2.305 . S
O233 C218 1.250 1_455 S
O234 Ho209 2.322 . S
O234 C219 1.259 . S
O235 Ho208 2.346 1_455 S
O235 C219 1.268 . S
O236 Ho209 2.378 . S
O236 C220 1.215 . S
O237 Ho209 2.524 . S
O237 C220 1.289 . S
O238 Ho209 2.381 . S
O238 C227 1.289 . S
O239 Ho208 2.305 . S
O239 Ho209 2.669 1_655 S
O239 C227 1.248 1_655 S
H240 C213 0.930 . S
H241 C214 0.931 . S
H242 C216 0.934 . S
H243 C217 0.930 . S
H244 C222 0.930 . S
H245 C223 0.931 . S
H246 C225 0.934 . S
H247 C226 0.930 . S
C248 C249 1.351 1_565 S
C248 C254 1.379 . S
C248 N256 1.356 . S
C249 C248 1.351 1_545 S
C249 C255 1.375 . S
C250 C251 1.363 . S
C250 C255 1.379 . S
C250 N257 1.356 . S
C251 C250 1.363 . S
C251 C254 1.363 1_545 S
N252 C254 1.356 . S
N252 H264 0.984 . S
N252 H265 0.985 . S
N253 C255 1.356 . S
N253 H258 0.984 . S
N253 H259 0.985 . S
C254 C248 1.379 . S
C254 C251 1.363 1_565 S
C254 N252 1.356 . S
C255 C249 1.375 . S
C255 C250 1.379 . S
C255 N253 1.356 . S
N256 C248 1.356 . S
N256 H262 0.984 . S
N256 H263 0.984 . S
N257 C250 1.356 . S
N257 H260 0.984 . S
N257 H261 0.985 . S
H258 N253 0.984 . S
H259 N253 0.985 . S
H260 N257 0.984 . S
H261 N257 0.985 . S
H262 N256 0.984 . S
H263 N256 0.984 . S
H264 N252 0.984 . S
H265 N252 0.985 . S
C266 C267 1.363 . S
C266 C272 1.379 . S
C266 N274 1.356 . S
C267 C266 1.363 . S
C267 C273 1.363 . S
C268 C269 1.363 . S
C268 C273 1.379 . S
C268 N275 1.356 . S
C269 C268 1.363 . S
C269 C272 1.363 . S
N270 C272 1.356 . S
N270 H282 0.984 . S
N270 H283 0.985 . S
N271 C273 1.356 . S
N271 H276 0.984 . S
N271 H277 0.985 . S
C272 C266 1.379 . S
C272 C269 1.363 . S
C272 N270 1.356 . S
C273 C267 1.363 . S
C273 C268 1.379 . S
C273 N271 1.356 . S
N274 C266 1.356 . S
N274 H280 0.984 . S
N274 H281 0.984 . S
N275 C268 1.356 . S
N275 H278 0.984 . S
N275 H279 0.985 . S
H276 N271 0.984 . S
H277 N271 0.985 . S
H278 N275 0.984 . S
H279 N275 0.985 . S
H280 N274 0.984 . S
H281 N274 0.984 . S
H282 N270 0.984 . S
H283 N270 0.985 . S
C284 C285 1.363 . S
C284 C290 1.379 . S
C284 N292 1.356 . S
C285 C284 1.363 . S
C285 C291 1.363 . S
C286 C287 1.363 . S
C286 C291 1.379 . S
C286 N293 1.356 . S
C287 C286 1.363 . S
C287 C290 1.363 . S
N288 C290 1.356 . S
N288 H300 0.984 . S
N288 H301 0.985 . S
N289 C291 1.356 . S
N289 H294 0.984 . S
N289 H295 0.985 . S
C290 C284 1.379 . S
C290 C287 1.363 . S
C290 N288 1.356 . S
C291 C285 1.363 . S
C291 C286 1.379 . S
C291 N289 1.356 . S
N292 C284 1.356 . S
N292 H298 0.984 . S
N292 H299 0.984 . S
N293 C286 1.356 . S
N293 H296 0.984 . S
N293 H297 0.985 . S
H294 N289 0.984 . S
H295 N289 0.985 . S
H296 N293 0.984 . S
H297 N293 0.985 . S
H298 N292 0.984 . S
H299 N292 0.984 . S
H300 N288 0.984 . S
H301 N288 0.985 . S
C302 C303 1.374 . S
C302 C308 1.379 . S
C302 N310 1.356 . S
C303 C302 1.374 . S
C303 C309 1.353 1_455 S
C304 C305 1.363 1_655 S
C304 C309 1.379 . S
C304 N311 1.356 . S
C305 C304 1.363 1_455 S
C305 C308 1.363 . S
N306 C308 1.356 . S
N306 H318 0.984 . S
N306 H319 0.985 . S
N307 C309 1.356 . S
N307 H312 0.984 . S
N307 H313 0.985 . S
C308 C302 1.379 . S
C308 C305 1.363 . S
C308 N306 1.356 . S
C309 C303 1.353 1_655 S
C309 C304 1.379 . S
C309 N307 1.356 . S
N310 C302 1.356 . S
N310 H316 0.984 . S
N310 H317 0.984 . S
N311 C304 1.356 . S
N311 H314 0.984 . S
N311 H315 0.985 . S
H312 N307 0.984 . S
H313 N307 0.985 . S
H314 N311 0.984 . S
H315 N311 0.985 . S
H316 N310 0.984 . S
H317 N310 0.984 . S
H318 N306 0.984 . S
H319 N306 0.985 . S
C320 C321 1.357 1_545 S
C320 C326 1.379 . S
C320 N328 1.356 . S
C321 C320 1.357 1_565 S
C321 C327 1.369 . S
C322 C323 1.363 . S
C322 C327 1.379 . S
C322 N329 1.356 . S
C323 C322 1.363 . S
C323 C326 1.363 1_565 S
N324 C326 1.356 1_556 S
N324 H336 0.984 . S
N324 H337 0.985 . S
N325 C327 1.356 . S
N325 H330 0.984 . S
N325 H331 0.985 . S
C326 C320 1.379 . S
C326 C323 1.363 1_545 S
C326 N324 1.356 1_554 S
C327 C321 1.369 . S
C327 C322 1.379 . S
C327 N325 1.356 . S
N328 C320 1.356 . S
N328 H334 0.984 . S
N328 H335 0.984 . S
N329 C322 1.356 . S
N329 H332 0.984 1_554 S
N329 H333 0.985 . S
H330 N325 0.984 . S
H331 N325 0.985 . S
H332 N329 0.984 1_556 S
H333 N329 0.985 . S
H334 N328 0.984 . S
H335 N328 0.984 . S
H336 N324 0.984 . S
H337 N324 0.985 . S
C338 C339 1.363 . S
C338 C344 1.379 . S
C338 N346 1.356 . S
C339 C338 1.363 . S
C339 C345 1.363 . S
C340 C341 1.363 . S
C340 C345 1.379 . S
C340 N347 1.356 . S
C341 C340 1.363 . S
C341 C344 1.363 . S
N342 C344 1.356 1_556 S
N342 H354 0.984 . S
N342 H355 0.985 . S
N343 C345 1.356 . S
N343 H348 0.984 . S
N343 H349 0.985 . S
C344 C338 1.379 . S
C344 C341 1.363 . S
C344 N342 1.356 1_554 S
C345 C339 1.363 . S
C345 C340 1.379 . S
C345 N343 1.356 . S
N346 C338 1.356 . S
N346 H352 0.984 . S
N346 H353 0.984 . S
N347 C340 1.356 . S
N347 H350 0.984 1_554 S
N347 H351 0.985 . S
H348 N343 0.984 . S
H349 N343 0.985 . S
H350 N347 0.984 1_556 S
H351 N347 0.985 . S
H352 N346 0.984 . S
H353 N346 0.984 . S
H354 N342 0.984 . S
H355 N342 0.985 . S
C356 C357 1.363 . S
C356 C362 1.379 . S
C356 N364 1.356 . S
C357 C356 1.363 . S
C357 C363 1.363 . S
C358 C359 1.363 . S
C358 C363 1.379 . S
C358 N365 1.356 . S
C359 C358 1.363 . S
C359 C362 1.363 . S
N360 C362 1.356 1_556 S
N360 H372 0.984 . S
N360 H373 0.985 . S
N361 C363 1.356 . S
N361 H366 0.984 . S
N361 H367 0.985 . S
C362 C356 1.379 . S
C362 C359 1.363 . S
C362 N360 1.356 1_554 S
C363 C357 1.363 . S
C363 C358 1.379 . S
C363 N361 1.356 . S
N364 C356 1.356 . S
N364 H370 0.984 . S
N364 H371 0.984 . S
N365 C358 1.356 . S
N365 H368 0.984 1_554 S
N365 H369 0.985 . S
H366 N361 0.984 . S
H367 N361 0.985 . S
H368 N365 0.984 1_556 S
H369 N365 0.985 . S
H370 N364 0.984 . S
H371 N364 0.984 . S
H372 N360 0.984 . S
H373 N360 0.985 . S
C374 C375 1.350 1_455 S
C374 C380 1.379 . S
C374 N382 1.356 . S
C375 C374 1.350 1_655 S
C375 C381 1.377 . S
C376 C377 1.363 . S
C376 C381 1.379 . S
C376 N383 1.356 1_554 S
C377 C376 1.363 . S
C377 C380 1.363 1_655 S
N378 C380 1.356 . S
N378 H390 0.984 . S
N378 H391 0.985 1_554 S
N379 C381 1.356 . S
N379 H384 0.984 . S
N379 H385 0.985 . S
C380 C374 1.379 . S
C380 C377 1.363 1_455 S
C380 N378 1.356 . S
C381 C375 1.377 . S
C381 C376 1.379 . S
C381 N379 1.356 . S
N382 C374 1.356 . S
N382 H388 0.984 . S
N382 H389 0.984 . S
N383 C376 1.356 1_556 S
N383 H386 0.984 . S
N383 H387 0.985 . S
H384 N379 0.984 . S
H385 N379 0.985 . S
H386 N383 0.984 . S
H387 N383 0.985 . S
H388 N382 0.984 . S
H389 N382 0.984 . S
H390 N378 0.984 . S
H391 N378 0.985 1_556 S
C392 C393 1.363 . S
C392 C398 1.379 . S
C392 N400 1.356 . S
C393 C392 1.363 . S
C393 C399 1.363 . S
C394 C395 1.363 . S
C394 C399 1.379 . S
C394 N401 1.356 . S
C395 C394 1.363 . S
C395 C398 1.363 . S
N396 C398 1.356 . S
N396 H408 0.984 . S
N396 H409 0.985 . S
N397 C399 1.356 1_455 S
N397 H402 0.984 . S
N397 H403 0.985 . S
C398 C392 1.379 . S
C398 C395 1.363 . S
C398 N396 1.356 . S
C399 C393 1.363 . S
C399 C394 1.379 . S
C399 N397 1.356 1_655 S
N400 C392 1.356 . S
N400 H406 0.984 1_554 S
N400 H407 0.984 . S
N401 C394 1.356 . S
N401 H404 0.984 . S
N401 H405 0.985 . S
H402 N397 0.984 . S
H403 N397 0.985 . S
H404 N401 0.984 . S
H405 N401 0.985 . S
H406 N400 0.984 1_556 S
H407 N400 0.984 . S
H408 N396 0.984 . S
H409 N396 0.985 . S
C410 C411 1.363 . S
C410 C416 1.379 . S
C410 N418 1.356 . S
C411 C410 1.363 . S
C411 C417 1.363 1_565 S
C412 C413 1.363 . S
C412 C417 1.379 1_565 S
C412 N419 1.356 . S
C413 C412 1.363 . S
C413 C416 1.363 . S
N414 C416 1.356 . S
N414 H426 0.984 . S
N414 H427 0.985 . S
N415 C417 1.356 . S
N415 H420 0.984 . S
N415 H421 0.985 . S
C416 C410 1.379 . S
C416 C413 1.363 . S
C416 N414 1.356 . S
C417 C411 1.363 1_545 S
C417 C412 1.379 1_545 S
C417 N415 1.356 . S
N418 C410 1.356 . S
N418 H424 0.984 . S
N418 H425 0.984 . S
N419 C412 1.356 . S
N419 H422 0.984 . S
N419 H423 0.985 1_565 S
H420 N415 0.984 . S
H421 N415 0.985 . S
H422 N419 0.984 . S
H423 N419 0.985 1_545 S
H424 N418 0.984 . S
H425 N418 0.984 . S
H426 N414 0.984 . S
H427 N414 0.985 . S
C428 C429 1.363 . S
C428 C434 1.379 . S
C428 N436 1.356 . S
C429 C428 1.363 . S
C429 C435 1.363 . S
C430 C431 1.363 . S
C430 C435 1.379 . S
C430 N437 1.356 . S
C431 C430 1.363 . S
C431 C434 1.363 . S
N432 C434 1.356 . S
N432 H444 0.984 . S
N432 H445 0.985 . S
N433 C435 1.356 . S
N433 H438 0.984 . S
N433 H439 0.985 . S
C434 C428 1.379 . S
C434 C431 1.363 . S
C434 N432 1.356 . S
C435 C429 1.363 . S
C435 C430 1.379 . S
C435 N433 1.356 . S
N436 C428 1.356 . S
N436 H442 0.984 1_554 S
N436 H443 0.984 . S
N437 C430 1.356 . S
N437 H440 0.984 . S
N437 H441 0.985 . S
H438 N433 0.984 . S
H439 N433 0.985 . S
H440 N437 0.984 . S
H441 N437 0.985 . S
H442 N436 0.984 1_556 S
H443 N436 0.984 . S
H444 N432 0.984 . S
H445 N432 0.985 . S
C446 C447 1.363 . S
C446 C452 1.379 . S
C446 N454 1.356 . S
C447 C446 1.363 . S
C447 C453 1.363 . S
C448 C449 1.363 . S
C448 C453 1.379 . S
C448 N455 1.356 . S
C449 C448 1.363 . S
C449 C452 1.363 . S
N450 C452 1.356 . S
N450 H462 0.984 . S
N450 H463 0.985 . S
N451 C453 1.356 . S
N451 H456 0.984 . S
N451 H457 0.985 . S
C452 C446 1.379 . S
C452 C449 1.363 . S
C452 N450 1.356 . S
C453 C447 1.363 . S
C453 C448 1.379 . S
C453 N451 1.356 . S
N454 C446 1.356 . S
N454 H460 0.984 . S
N454 H461 0.984 . S
N455 C448 1.356 . S
N455 H458 0.984 . S
N455 H459 0.985 . S
H456 N451 0.984 . S
H457 N451 0.985 . S
H458 N455 0.984 . S
H459 N455 0.985 . S
H460 N454 0.984 . S
H461 N454 0.984 . S
H462 N450 0.984 . S
H463 N450 0.985 . S
C464 C465 1.363 1_655 S
C464 C470 1.379 1_655 S
C464 N472 1.356 . S
C465 C464 1.363 1_455 S
C465 C471 1.363 . S
C466 C467 1.363 . S
C466 C471 1.379 . S
C466 N473 1.356 . S
C467 C466 1.363 . S
C467 C470 1.363 . S
N468 C470 1.356 . S
N468 H480 0.984 1_455 S
N468 H481 0.985 . S
N469 C471 1.356 . S
N469 H474 0.984 . S
N469 H475 0.985 . S
C470 C464 1.379 1_455 S
C470 C467 1.363 . S
C470 N468 1.356 . S
C471 C465 1.363 . S
C471 C466 1.379 . S
C471 N469 1.356 . S
N472 C464 1.356 . S
N472 H478 0.984 . S
N472 H479 0.984 . S
N473 C466 1.356 . S
N473 H476 0.984 . S
N473 H477 0.985 . S
H474 N469 0.984 . S
H475 N469 0.985 . S
H476 N473 0.984 . S
H477 N473 0.985 . S
H478 N472 0.984 . S
H479 N472 0.984 . S
H480 N468 0.984 1_655 S
H481 N468 0.985 . S
C482 C483 1.363 . S
C482 C488 1.379 . S
C482 N490 1.356 . S
C483 C482 1.363 . S
C483 C489 1.363 1_545 S
C484 C485 1.363 . S
C484 C489 1.379 1_545 S
C484 N491 1.356 . S
C485 C484 1.363 . S
C485 C488 1.363 . S
N486 C488 1.356 . S
N486 H498 0.984 . S
N486 H499 0.985 . S
N487 C489 1.356 . S
N487 H492 0.984 . S
N487 H493 0.985 . S
C488 C482 1.379 . S
C488 C485 1.363 . S
C488 N486 1.356 . S
C489 C483 1.363 1_565 S
C489 C484 1.379 1_565 S
C489 N487 1.356 . S
N490 C482 1.356 . S
N490 H496 0.984 . S
N490 H497 0.984 . S
N491 C484 1.356 . S
N491 H494 0.984 . S
N491 H495 0.985 . S
H492 N487 0.984 . S
H493 N487 0.985 . S
H494 N491 0.984 . S
H495 N491 0.985 . S
H496 N490 0.984 . S
H497 N490 0.984 . S
H498 N486 0.984 . S
H499 N486 0.985 . S
C500 C501 1.363 . S
C500 C506 1.379 . S
C500 N508 1.356 . S
C501 C500 1.363 . S
C501 C507 1.363 . S
C502 C503 1.363 . S
C502 C507 1.379 . S
C502 N509 1.356 . S
C503 C502 1.363 . S
C503 C506 1.363 . S
N504 C506 1.356 . S
N504 H516 0.984 . S
N504 H517 0.985 . S
N505 C507 1.356 . S
N505 H510 0.984 . S
N505 H511 0.985 . S
C506 C500 1.379 . S
C506 C503 1.363 . S
C506 N504 1.356 . S
C507 C501 1.363 . S
C507 C502 1.379 . S
C507 N505 1.356 . S
N508 C500 1.356 . S
N508 H514 0.984 . S
N508 H515 0.984 . S
N509 C502 1.356 . S
N509 H512 0.984 . S
N509 H513 0.985 1_554 S
H510 N505 0.984 . S
H511 N505 0.985 . S
H512 N509 0.984 . S
H513 N509 0.985 1_556 S
H514 N508 0.984 . S
H515 N508 0.984 . S
H516 N504 0.984 . S
H517 N504 0.985 . S
C518 C519 1.363 . S
C518 C524 1.379 . S
C518 N526 1.356 . S
C519 C518 1.363 . S
C519 C525 1.363 . S
C520 C521 1.363 . S
C520 C525 1.379 . S
C520 N527 1.356 . S
C521 C520 1.363 . S
C521 C524 1.363 . S
N522 C524 1.356 . S
N522 H534 0.984 . S
N522 H535 0.985 . S
N523 C525 1.356 . S
N523 H528 0.984 . S
N523 H529 0.985 . S
C524 C518 1.379 . S
C524 C521 1.363 . S
C524 N522 1.356 . S
C525 C519 1.363 . S
C525 C520 1.379 . S
C525 N523 1.356 . S
N526 C518 1.356 . S
N526 H532 0.984 . S
N526 H533 0.984 . S
N527 C520 1.356 . S
N527 H530 0.984 . S
N527 H531 0.985 . S
H528 N523 0.984 . S
H529 N523 0.985 . S
H530 N527 0.984 . S
H531 N527 0.985 . S
H532 N526 0.984 . S
H533 N526 0.984 . S
H534 N522 0.984 . S
H535 N522 0.985 . S
C536 C537 1.363 . S
C536 C542 1.379 . S
C536 N544 1.356 . S
C537 C536 1.363 . S
C537 C543 1.363 1_455 S
C538 C539 1.363 1_655 S
C538 C543 1.379 . S
C538 N545 1.356 . S
C539 C538 1.363 1_455 S
C539 C542 1.363 . S
N540 C542 1.356 . S
N540 H552 0.984 1_556 S
N540 H553 0.985 . S
N541 C543 1.356 . S
N541 H546 0.984 . S
N541 H547 0.985 . S
C542 C536 1.379 . S
C542 C539 1.363 . S
C542 N540 1.356 . S
C543 C537 1.363 1_655 S
C543 C538 1.379 . S
C543 N541 1.356 . S
N544 C536 1.356 . S
N544 H550 0.984 . S
N544 H551 0.984 . S
N545 C538 1.356 . S
N545 H548 0.984 . S
N545 H549 0.985 . S
H546 N541 0.984 . S
H547 N541 0.985 . S
H548 N545 0.984 . S
H549 N545 0.985 . S
H550 N544 0.984 . S
H551 N544 0.984 . S
H552 N540 0.984 1_554 S
H553 N540 0.985 . S
C554 C555 1.363 . S
C554 C560 1.379 . S
C554 N562 1.356 . S
C555 C554 1.363 . S
C555 C561 1.363 1_545 S
C556 C557 1.356 1_565 S
C556 C561 1.381 . S
C556 N563 1.359 . S
C557 C556 1.356 1_545 S
C557 C560 1.363 . S
N558 C560 1.356 . S
N558 H570 0.984 . S
N558 H571 0.985 . S
N559 C561 1.356 . S
N559 H564 0.984 . S
N559 H565 0.985 1_556 S
C560 C554 1.379 . S
C560 C557 1.363 . S
C560 N558 1.356 . S
C561 C555 1.363 1_565 S
C561 C556 1.381 . S
C561 N559 1.356 . S
N562 C554 1.356 . S
N562 H568 0.984 . S
N562 H569 0.984 . S
N563 C556 1.359 . S
N563 H566 0.984 . S
N563 H567 0.985 1_556 S
H564 N559 0.984 . S
H565 N559 0.985 1_554 S
H566 N563 0.984 . S
H567 N563 0.985 1_554 S
H568 N562 0.984 . S
H569 N562 0.984 . S
H570 N558 0.984 . S
H571 N558 0.985 . S
C572 C573 1.363 . S
C572 C578 1.379 . S
C572 N580 1.356 . S
C573 C572 1.363 . S
C573 C579 1.363 . S
C574 C575 1.363 . S
C574 C579 1.379 . S
C574 N581 1.356 . S
C575 C574 1.363 . S
C575 C578 1.363 . S
N576 C578 1.356 . S
N576 H588 0.984 . S
N576 H589 0.985 . S
N577 C579 1.356 . S
N577 H582 0.984 . S
N577 H583 0.985 . S
C578 C572 1.379 . S
C578 C575 1.363 . S
C578 N576 1.356 . S
C579 C573 1.363 . S
C579 C574 1.379 . S
C579 N577 1.356 . S
N580 C572 1.356 . S
N580 H586 0.984 . S
N580 H587 0.984 . S
N581 C574 1.356 . S
N581 H584 0.984 . S
N581 H585 0.985 . S
H582 N577 0.984 . S
H583 N577 0.985 . S
H584 N581 0.984 . S
H585 N581 0.985 . S
H586 N580 0.984 . S
H587 N580 0.984 . S
H588 N576 0.984 . S
H589 N576 0.985 . S
C590 C591 1.363 . S
C590 C596 1.379 . S
C590 N598 1.356 . S
C591 C590 1.363 . S
C591 C597 1.363 . S
C592 C593 1.363 . S
C592 C597 1.379 . S
C592 N599 1.356 . S
C593 C592 1.363 . S
C593 C596 1.363 . S
N594 C596 1.356 . S
N594 H606 0.984 . S
N594 H607 0.985 . S
N595 C597 1.356 . S
N595 H600 0.984 . S
N595 H601 0.985 1_556 S
C596 C590 1.379 . S
C596 C593 1.363 . S
C596 N594 1.356 . S
C597 C591 1.363 . S
C597 C592 1.379 . S
C597 N595 1.356 . S
N598 C590 1.356 . S
N598 H604 0.984 . S
N598 H605 0.984 . S
N599 C592 1.356 . S
N599 H602 0.984 . S
N599 H603 0.985 1_556 S
H600 N595 0.984 . S
H601 N595 0.985 1_554 S
H602 N599 0.984 . S
H603 N599 0.985 1_554 S
H604 N598 0.984 . S
H605 N598 0.984 . S
H606 N594 0.984 . S
H607 N594 0.985 . S
C608 C609 1.363 . S
C608 C614 1.379 . S
C608 N616 1.356 . S
C609 C608 1.363 . S
C609 C615 1.363 1_655 S
C610 C611 1.363 1_455 S
C610 C615 1.379 . S
C610 N617 1.356 . S
C611 C610 1.363 1_655 S
C611 C614 1.363 . S
N612 C614 1.356 . S
N612 H624 0.984 . S
N612 H625 0.985 . S
N613 C615 1.356 . S
N613 H618 0.984 . S
N613 H619 0.985 . S
C614 C608 1.379 . S
C614 C611 1.363 . S
C614 N612 1.356 . S
C615 C609 1.363 1_455 S
C615 C610 1.379 . S
C615 N613 1.356 . S
N616 C608 1.356 . S
N616 H622 0.984 . S
N616 H623 0.984 . S
N617 C610 1.356 . S
N617 H620 0.984 . S
N617 H621 0.985 . S
H618 N613 0.984 . S
H619 N613 0.985 . S
H620 N617 0.984 . S
H621 N617 0.985 . S
H622 N616 0.984 . S
H623 N616 0.984 . S
H624 N612 0.984 . S
H625 N612 0.985 . S
C626 C627 1.363 1_545 S
C626 C632 1.379 . S
C626 N634 1.356 . S
C627 C626 1.363 1_565 S
C627 C633 1.363 . S
C628 C629 1.363 . S
C628 C633 1.379 . S
C628 N635 1.356 . S
C629 C628 1.363 . S
C629 C632 1.363 1_565 S
N630 C632 1.356 . S
N630 H642 0.984 . S
N630 H643 0.985 . S
N631 C633 1.356 . S
N631 H636 0.984 . S
N631 H637 0.985 . S
C632 C626 1.379 . S
C632 C629 1.363 1_545 S
C632 N630 1.356 . S
C633 C627 1.363 . S
C633 C628 1.379 . S
C633 N631 1.356 . S
N634 C626 1.356 . S
N634 H640 0.984 . S
N634 H641 0.984 . S
N635 C628 1.356 . S
N635 H638 0.984 . S
N635 H639 0.985 . S
H636 N631 0.984 . S
H637 N631 0.985 . S
H638 N635 0.984 . S
H639 N635 0.985 . S
H640 N634 0.984 . S
H641 N634 0.984 . S
H642 N630 0.984 . S
H643 N630 0.985 . S
C644 C645 1.363 . S
C644 C650 1.379 . S
C644 N652 1.356 . S
C645 C644 1.363 . S
C645 C651 1.363 . S
C646 C647 1.363 . S
C646 C651 1.379 . S
C646 N653 1.356 . S
C647 C646 1.363 . S
C647 C650 1.363 . S
N648 C650 1.356 . S
N648 H660 0.984 . S
N648 H661 0.985 . S
N649 C651 1.356 . S
N649 H654 0.984 . S
N649 H655 0.985 . S
C650 C644 1.379 . S
C650 C647 1.363 . S
C650 N648 1.356 . S
C651 C645 1.363 . S
C651 C646 1.379 . S
C651 N649 1.356 . S
N652 C644 1.356 . S
N652 H658 0.984 . S
N652 H659 0.984 . S
N653 C646 1.356 . S
N653 H656 0.984 . S
N653 H657 0.985 . S
H654 N649 0.984 . S
H655 N649 0.985 . S
H656 N653 0.984 . S
H657 N653 0.985 . S
H658 N652 0.984 . S
H659 N652 0.984 . S
H660 N648 0.984 . S
H661 N648 0.985 . S
C662 C663 1.363 . S
C662 C668 1.379 . S
C662 N670 1.356 . S
C663 C662 1.363 . S
C663 C669 1.363 . S
C664 C665 1.363 . S
C664 C669 1.379 . S
C664 N671 1.356 . S
C665 C664 1.363 . S
C665 C668 1.363 . S
N666 C668 1.356 . S
N666 H678 0.984 . S
N666 H679 0.985 . S
N667 C669 1.356 . S
N667 H672 0.984 . S
N667 H673 0.985 . S
C668 C662 1.379 . S
C668 C665 1.363 . S
C668 N666 1.356 . S
C669 C663 1.363 . S
C669 C664 1.379 . S
C669 N667 1.356 . S
N670 C662 1.356 . S
N670 H676 0.984 . S
N670 H677 0.984 . S
N671 C664 1.356 . S
N671 H674 0.984 . S
N671 H675 0.985 . S
H672 N667 0.984 . S
H673 N667 0.985 . S
H674 N671 0.984 . S
H675 N671 0.985 . S
H676 N670 0.984 . S
H677 N670 0.984 . S
H678 N666 0.984 . S
H679 N666 0.985 . S
C249 C74 1.930 . S
C251 C98 2.125 1_545 S
C269 C138 2.136 . S
C267 C85 1.932 . S
C287 C178 2.141 . S
C285 C52 1.940 . S
C305 C218 2.131 1_455 S
C303 C63 1.937 . S
C323 C107 2.127 1_564 S
C321 C30 1.933 1_565 S
C339 C41 1.948 . S
C341 C147 2.138 1_554 S
C357 C8 1.955 . S
C359 C187 2.141 1_554 S
C375 C19 1.936 1_655 S
C377 C227 2.131 1_654 S
C395 C104 0.884 . S
C393 C62 0.926 1_655 S
C413 C144 0.885 . S
C411 C73 0.929 1_565 S
C431 C184 0.879 . S
C429 C84 0.919 . S
C447 C51 0.920 . S
C449 C224 0.874 . S
C465 C18 0.862 . S
C467 C95 0.888 . S
C485 C135 0.885 . S
C483 C29 0.862 . S
C503 C175 0.879 . S
C501 C40 0.861 . S
C519 C7 0.859 . S
C521 C215 0.881 . S
C537 C60 1.926 . S
C539 C99 2.569 . S
C555 C71 1.904 . S
C557 C139 2.552 . S
C575 C179 2.545 . S
C573 C82 1.878 . S
C593 C219 2.566 . S
C591 C49 1.896 . S
C609 C16 2.050 1_655 S
C611 C90 2.577 . S
C629 C130 2.552 . S
C627 C27 2.030 1_565 S
C647 C170 2.545 . S
C645 C38 2.049 . S
C663 C5 2.066 . S
C665 C210 2.570 . S
