# Generated by pormake.
# Topology cor, (4,6)-cn, num edge types: 1
# Building blocks:
#     Node 0, Type 0, BuildingBlock: NAHDIM_clean_sbu_0, # of connection points: 4
#     Node 1, Type 0, BuildingBlock: NAHDIM_clean_sbu_0, # of connection points: 4
#     Node 2, Type 0, BuildingBlock: NAHDIM_clean_sbu_0, # of connection points: 4
#     Node 3, Type 0, BuildingBlock: NAHDIM_clean_sbu_0, # of connection points: 4
#     Node 4, Type 0, BuildingBlock: NAHDIM_clean_sbu_0, # of connection points: 4
#     Node 5, Type 0, BuildingBlock: NAHDIM_clean_sbu_0, # of connection points: 4
#     Node 6, Type 0, BuildingBlock: NAHDIM_clean_sbu_0, # of connection points: 4
#     Node 7, Type 0, BuildingBlock: NAHDIM_clean_sbu_0, # of connection points: 4
#     Node 8, Type 0, BuildingBlock: NAHDIM_clean_sbu_0, # of connection points: 4
#     Node 9, Type 0, BuildingBlock: NAHDIM_clean_sbu_0, # of connection points: 4
#     Node 10, Type 0, BuildingBlock: NAHDIM_clean_sbu_0, # of connection points: 4
#     Node 11, Type 0, BuildingBlock: NAHDIM_clean_sbu_0, # of connection points: 4
#     Node 12, Type 0, BuildingBlock: NAHDIM_clean_sbu_0, # of connection points: 4
#     Node 13, Type 0, BuildingBlock: NAHDIM_clean_sbu_0, # of connection points: 4
#     Node 14, Type 0, BuildingBlock: NAHDIM_clean_sbu_0, # of connection points: 4
#     Node 15, Type 0, BuildingBlock: NAHDIM_clean_sbu_0, # of connection points: 4
#     Node 16, Type 0, BuildingBlock: NAHDIM_clean_sbu_0, # of connection points: 4
#     Node 17, Type 0, BuildingBlock: NAHDIM_clean_sbu_0, # of connection points: 4
#     Node 18, Type 1, BuildingBlock: MIDCAF_clean_sbu_0, # of connection points: 6
#     Node 19, Type 1, BuildingBlock: MIDCAF_clean_sbu_0, # of connection points: 6
#     Node 20, Type 1, BuildingBlock: MIDCAF_clean_sbu_0, # of connection points: 6
#     Node 21, Type 1, BuildingBlock: MIDCAF_clean_sbu_0, # of connection points: 6
#     Node 22, Type 1, BuildingBlock: MIDCAF_clean_sbu_0, # of connection points: 6
#     Node 23, Type 1, BuildingBlock: MIDCAF_clean_sbu_0, # of connection points: 6
#     Node 24, Type 1, BuildingBlock: MIDCAF_clean_sbu_0, # of connection points: 6
#     Node 25, Type 1, BuildingBlock: MIDCAF_clean_sbu_0, # of connection points: 6
#     Node 26, Type 1, BuildingBlock: MIDCAF_clean_sbu_0, # of connection points: 6
#     Node 27, Type 1, BuildingBlock: MIDCAF_clean_sbu_0, # of connection points: 6
#     Node 28, Type 1, BuildingBlock: MIDCAF_clean_sbu_0, # of connection points: 6
#     Node 29, Type 1, BuildingBlock: MIDCAF_clean_sbu_0, # of connection points: 6
#     Edge 30, Type (0, 1), BuildingBlock: KIFKEQ_clean_linker_1, # of connection points: 2
#     Edge 31, Type (0, 1), BuildingBlock: KIFKEQ_clean_linker_1, # of connection points: 2
#     Edge 32, Type (0, 1), BuildingBlock: KIFKEQ_clean_linker_1, # of connection points: 2
#     Edge 33, Type (0, 1), BuildingBlock: KIFKEQ_clean_linker_1, # of connection points: 2
#     Edge 34, Type (0, 1), BuildingBlock: KIFKEQ_clean_linker_1, # of connection points: 2
#     Edge 35, Type (0, 1), BuildingBlock: KIFKEQ_clean_linker_1, # of connection points: 2
#     Edge 36, Type (0, 1), BuildingBlock: KIFKEQ_clean_linker_1, # of connection points: 2
#     Edge 37, Type (0, 1), BuildingBlock: KIFKEQ_clean_linker_1, # of connection points: 2
#     Edge 38, Type (0, 1), BuildingBlock: KIFKEQ_clean_linker_1, # of connection points: 2
#     Edge 39, Type (0, 1), BuildingBlock: KIFKEQ_clean_linker_1, # of connection points: 2
#     Edge 40, Type (0, 1), BuildingBlock: KIFKEQ_clean_linker_1, # of connection points: 2
#     Edge 41, Type (0, 1), BuildingBlock: KIFKEQ_clean_linker_1, # of connection points: 2
#     Edge 42, Type (0, 1), BuildingBlock: KIFKEQ_clean_linker_1, # of connection points: 2
#     Edge 43, Type (0, 1), BuildingBlock: KIFKEQ_clean_linker_1, # of connection points: 2
#     Edge 44, Type (0, 1), BuildingBlock: KIFKEQ_clean_linker_1, # of connection points: 2
#     Edge 45, Type (0, 1), BuildingBlock: KIFKEQ_clean_linker_1, # of connection points: 2
#     Edge 46, Type (0, 1), BuildingBlock: KIFKEQ_clean_linker_1, # of connection points: 2
#     Edge 47, Type (0, 1), BuildingBlock: KIFKEQ_clean_linker_1, # of connection points: 2
#     Edge 48, Type (0, 1), BuildingBlock: KIFKEQ_clean_linker_1, # of connection points: 2
#     Edge 49, Type (0, 1), BuildingBlock: KIFKEQ_clean_linker_1, # of connection points: 2
#     Edge 50, Type (0, 1), BuildingBlock: KIFKEQ_clean_linker_1, # of connection points: 2
#     Edge 51, Type (0, 1), BuildingBlock: KIFKEQ_clean_linker_1, # of connection points: 2
#     Edge 52, Type (0, 1), BuildingBlock: KIFKEQ_clean_linker_1, # of connection points: 2
#     Edge 53, Type (0, 1), BuildingBlock: KIFKEQ_clean_linker_1, # of connection points: 2
#     Edge 54, Type (0, 1), BuildingBlock: KIFKEQ_clean_linker_1, # of connection points: 2
#     Edge 55, Type (0, 1), BuildingBlock: KIFKEQ_clean_linker_1, # of connection points: 2
#     Edge 56, Type (0, 1), BuildingBlock: KIFKEQ_clean_linker_1, # of connection points: 2
#     Edge 57, Type (0, 1), BuildingBlock: KIFKEQ_clean_linker_1, # of connection points: 2
#     Edge 58, Type (0, 1), BuildingBlock: KIFKEQ_clean_linker_1, # of connection points: 2
#     Edge 59, Type (0, 1), BuildingBlock: KIFKEQ_clean_linker_1, # of connection points: 2
#     Edge 60, Type (0, 1), BuildingBlock: KIFKEQ_clean_linker_1, # of connection points: 2
#     Edge 61, Type (0, 1), BuildingBlock: KIFKEQ_clean_linker_1, # of connection points: 2
#     Edge 62, Type (0, 1), BuildingBlock: KIFKEQ_clean_linker_1, # of connection points: 2
#     Edge 63, Type (0, 1), BuildingBlock: KIFKEQ_clean_linker_1, # of connection points: 2
#     Edge 64, Type (0, 1), BuildingBlock: KIFKEQ_clean_linker_1, # of connection points: 2
#     Edge 65, Type (0, 1), BuildingBlock: KIFKEQ_clean_linker_1, # of connection points: 2
#     Edge 66, Type (0, 1), BuildingBlock: KIFKEQ_clean_linker_1, # of connection points: 2
#     Edge 67, Type (0, 1), BuildingBlock: KIFKEQ_clean_linker_1, # of connection points: 2
#     Edge 68, Type (0, 1), BuildingBlock: KIFKEQ_clean_linker_1, # of connection points: 2
#     Edge 69, Type (0, 1), BuildingBlock: KIFKEQ_clean_linker_1, # of connection points: 2
#     Edge 70, Type (0, 1), BuildingBlock: KIFKEQ_clean_linker_1, # of connection points: 2
#     Edge 71, Type (0, 1), BuildingBlock: KIFKEQ_clean_linker_1, # of connection points: 2
#     Edge 72, Type (0, 1), BuildingBlock: KIFKEQ_clean_linker_1, # of connection points: 2
#     Edge 73, Type (0, 1), BuildingBlock: KIFKEQ_clean_linker_1, # of connection points: 2
#     Edge 74, Type (0, 1), BuildingBlock: KIFKEQ_clean_linker_1, # of connection points: 2
#     Edge 75, Type (0, 1), BuildingBlock: KIFKEQ_clean_linker_1, # of connection points: 2
#     Edge 76, Type (0, 1), BuildingBlock: KIFKEQ_clean_linker_1, # of connection points: 2
#     Edge 77, Type (0, 1), BuildingBlock: KIFKEQ_clean_linker_1, # of connection points: 2
#     Edge 78, Type (0, 1), BuildingBlock: KIFKEQ_clean_linker_1, # of connection points: 2
#     Edge 79, Type (0, 1), BuildingBlock: KIFKEQ_clean_linker_1, # of connection points: 2
#     Edge 80, Type (0, 1), BuildingBlock: KIFKEQ_clean_linker_1, # of connection points: 2
#     Edge 81, Type (0, 1), BuildingBlock: KIFKEQ_clean_linker_1, # of connection points: 2
#     Edge 82, Type (0, 1), BuildingBlock: KIFKEQ_clean_linker_1, # of connection points: 2
#     Edge 83, Type (0, 1), BuildingBlock: KIFKEQ_clean_linker_1, # of connection points: 2
#     Edge 84, Type (0, 1), BuildingBlock: KIFKEQ_clean_linker_1, # of connection points: 2
#     Edge 85, Type (0, 1), BuildingBlock: KIFKEQ_clean_linker_1, # of connection points: 2
#     Edge 86, Type (0, 1), BuildingBlock: KIFKEQ_clean_linker_1, # of connection points: 2
#     Edge 87, Type (0, 1), BuildingBlock: KIFKEQ_clean_linker_1, # of connection points: 2
#     Edge 88, Type (0, 1), BuildingBlock: KIFKEQ_clean_linker_1, # of connection points: 2
#     Edge 89, Type (0, 1), BuildingBlock: KIFKEQ_clean_linker_1, # of connection points: 2
#     Edge 90, Type (0, 1), BuildingBlock: KIFKEQ_clean_linker_1, # of connection points: 2
#     Edge 91, Type (0, 1), BuildingBlock: KIFKEQ_clean_linker_1, # of connection points: 2
#     Edge 92, Type (0, 1), BuildingBlock: KIFKEQ_clean_linker_1, # of connection points: 2
#     Edge 93, Type (0, 1), BuildingBlock: KIFKEQ_clean_linker_1, # of connection points: 2
#     Edge 94, Type (0, 1), BuildingBlock: KIFKEQ_clean_linker_1, # of connection points: 2
#     Edge 95, Type (0, 1), BuildingBlock: KIFKEQ_clean_linker_1, # of connection points: 2
#     Edge 96, Type (0, 1), BuildingBlock: KIFKEQ_clean_linker_1, # of connection points: 2
#     Edge 97, Type (0, 1), BuildingBlock: KIFKEQ_clean_linker_1, # of connection points: 2
#     Edge 98, Type (0, 1), BuildingBlock: KIFKEQ_clean_linker_1, # of connection points: 2
#     Edge 99, Type (0, 1), BuildingBlock: KIFKEQ_clean_linker_1, # of connection points: 2
#     Edge 100, Type (0, 1), BuildingBlock: KIFKEQ_clean_linker_1, # of connection points: 2
#     Edge 101, Type (0, 1), BuildingBlock: KIFKEQ_clean_linker_1, # of connection points: 2
# Relax obj value: 0.160
# Max RMSD: 0.189
# Mean RMSD: 0.174
data_MOF--net-cor--node1-NAHDIM_clean_sbu_0--node2-MIDCAF_clean_sbu_0--edge1-KIFKEQ_clean_linker_1
_symmetry_space_group_name_H-M    P1
_symmetry_Int_Tables_number       1
_symmetry_cell_setting            triclinic
loop_
_symmetry_equiv_pos_as_xyz
'x, y, z'
_cell_length_a     39.583098
_cell_length_b     39.263161
_cell_length_c     98.949132
_cell_angle_alpha  91.349383
_cell_angle_beta   89.319655
_cell_angle_gamma 121.1584
loop_
_atom_site_label
_atom_site_type_symbol
_atom_site_fract_x
_atom_site_fract_y
_atom_site_fract_z
_atom_type_partial_charge
C0 C 0.72724 0.06576 0.25048 0.0
O1 O 0.70863 0.03332 0.24288 0.0
O2 O 0.69347 0.96719 0.26591 0.0
Zn3 Zn 0.74778 0.01579 0.26301 0.0
O4 O 0.77208 0.01195 0.24542 0.0
C5 C 0.76914 0.01871 0.29104 0.0
O6 O 0.73664 0.01943 0.29306 0.0
O7 O 0.74532 0.06538 0.26096 0.0
C8 C 0.76167 0.9811 0.23808 0.0
O9 O 0.73367 0.94616 0.24227 0.0
C10 C 0.69094 0.93795 0.27216 0.0
O11 O 0.72341 0.93907 0.27564 0.0
O12 O 0.7813 0.01989 0.27898 0.0
C13 C 0.06274 0.72505 0.27441 0.0
O14 O 0.03115 0.70843 0.28211 0.0
O15 O 0.96439 0.69204 0.25704 0.0
Zn16 Zn 0.01457 0.74551 0.25985 0.0
O17 O 0.01093 0.77357 0.27664 0.0
C18 C 0.01632 0.76206 0.23139 0.0
O19 O 0.00421 0.72405 0.23008 0.0
O20 O 0.06188 0.74071 0.2634 0.0
C21 C 0.04125 0.80742 0.2793 0.0
O22 O 0.07031 0.82302 0.27051 0.0
C23 C 0.93549 0.69105 0.25112 0.0
O24 O 0.93845 0.72465 0.24774 0.0
O25 O 0.0238 0.77825 0.24315 0.0
C26 C 0.34433 0.28633 0.24985 0.0
O27 O 0.32625 0.29704 0.24143 0.0
O28 O 0.28868 0.32936 0.27087 0.0
Zn29 Zn 0.27995 0.27549 0.26582 0.0
O30 O 0.24679 0.25312 0.24889 0.0
C31 C 0.25941 0.25573 0.29367 0.0
O32 O 0.29186 0.29045 0.29559 0.0
O33 O 0.33123 0.2773 0.26187 0.0
C34 C 0.24223 0.22077 0.24398 0.0
O35 O 0.25639 0.2023 0.25064 0.0
C36 C 0.27779 0.34863 0.26385 0.0
O37 O 0.26326 0.33535 0.25169 0.0
O38 O 0.24986 0.24145 0.28169 0.0
C39 C 0.26705 0.95317 0.77762 0.0
O40 O 0.24872 0.96493 0.7859 0.0
O41 O 0.33908 0.06755 0.75681 0.0
Zn42 Zn 0.28582 0.02573 0.76394 0.0
O43 O 0.27307 0.04426 0.78159 0.0
C44 C 0.25892 0.0208 0.73686 0.0
O45 O 0.2907 0.01912 0.73433 0.0
O46 O 0.28428 0.97376 0.76724 0.0
C47 C 0.25649 0.06465 0.78237 0.0
O48 O 0.24777 0.07584 0.77118 0.0
C49 C 0.3552 0.10414 0.76016 0.0
O50 O 0.33957 0.11492 0.76987 0.0
O51 O 0.24848 0.02057 0.74911 0.0
C52 C 0.94538 0.29049 0.75273 0.0
O53 O 0.97201 0.29139 0.74448 0.0
O54 O 0.04118 0.31924 0.77584 0.0
Zn55 Zn 0.98756 0.271 0.77107 0.0
O56 O 0.98888 0.2376 0.75543 0.0
C57 C 0.97109 0.25078 0.79938 0.0
O58 O 0.98644 0.28935 0.80099 0.0
O59 O 0.9475 0.28526 0.76528 0.0
C60 C 0.01461 0.24754 0.74614 0.0
O61 O 0.04769 0.28219 0.74693 0.0
C62 C 0.05783 0.35185 0.76955 0.0
O63 O 0.04035 0.35524 0.7589 0.0
O64 O 0.9677 0.23627 0.78749 0.0
C65 C 0.68119 0.73529 0.78127 0.0
O66 O 0.6902 0.71378 0.78869 0.0
O67 O 0.73555 0.69331 0.76149 0.0
Zn68 Zn 0.75097 0.74873 0.76748 0.0
O69 O 0.78264 0.76427 0.78497 0.0
C70 C 0.80613 0.77338 0.74582 0.0
O71 O 0.81095 0.7457 0.751 0.0
O72 O 0.70267 0.75296 0.77109 0.0
C73 C 0.81968 0.77926 0.78618 0.0
O74 O 0.84146 0.78664 0.77529 0.0
C75 C 0.74181 0.66993 0.76818 0.0
O76 O 0.75445 0.67937 0.78071 0.0
O77 O 0.78248 0.78219 0.7515 0.0
C78 C 0.38758 0.40008 0.57949 0.0
O79 O 0.36805 0.36743 0.57205 0.0
O80 O 0.35653 0.30445 0.59946 0.0
Zn81 Zn 0.40834 0.35077 0.59313 0.0
O82 O 0.42801 0.3414 0.5753 0.0
C83 C 0.44408 0.3313 0.61388 0.0
O84 O 0.42103 0.29572 0.60849 0.0
O85 O 0.40555 0.39966 0.59 0.0
C86 C 0.42846 0.31125 0.57062 0.0
O87 O 0.41495 0.27945 0.57803 0.0
C88 C 0.33043 0.27427 0.59286 0.0
O89 O 0.33399 0.27211 0.5797 0.0
O90 O 0.44582 0.36126 0.60847 0.0
C91 C 0.75177 0.07851 0.60632 0.0
O92 O 0.72136 0.06981 0.61412 0.0
O93 O 0.65513 0.03781 0.58553 0.0
Zn94 Zn 0.70431 0.09177 0.58847 0.0
O95 O 0.69464 0.11892 0.60433 0.0
C96 C 0.70524 0.10596 0.55973 0.0
O97 O 0.69175 0.06758 0.55884 0.0
O98 O 0.75095 0.08707 0.59402 0.0
C99 C 0.72352 0.14988 0.60975 0.0
O100 O 0.75846 0.1661 0.60403 0.0
C101 C 0.62519 0.03632 0.58027 0.0
O102 O 0.62706 0.0697 0.5773 0.0
O103 O 0.7146 0.12336 0.5713 0.0
C104 C 0.01532 0.63401 0.58051 0.0
O105 O -0.00462 0.64088 0.57157 0.0
O106 O 0.95706 0.67455 0.60281 0.0
Zn107 Zn 0.95055 0.6221 0.597 0.0
O108 O 0.91571 0.5983 0.58049 0.0
C109 C 0.94008 0.5994 0.62463 0.0
O110 O 0.97549 0.63137 0.6256 0.0
O111 O 0.00291 0.62685 0.59264 0.0
C112 C 0.91221 0.56652 0.57545 0.0
O113 O 0.9292 0.54996 0.58162 0.0
C114 C 0.94229 0.69218 0.59689 0.0
O115 O 0.92448 0.67827 0.58519 0.0
O116 O 0.92411 0.58758 0.61304 0.0
C117 C 0.95709 0.28341 0.10856 0.0
O118 O 0.97467 0.31525 0.11647 0.0
O119 O -0.00472 0.37999 0.08814 0.0
Zn120 Zn 0.94173 0.33509 0.09374 0.0
O121 O 0.92155 0.34782 0.11084 0.0
C122 C 0.90992 0.35777 0.07284 0.0
O123 O 0.93145 0.392 0.07929 0.0
O124 O 0.94212 0.28511 0.09748 0.0
C125 C 0.89019 0.31908 0.11582 0.0
O126 O 0.87184 0.28494 0.10911 0.0
C127 C 0.01477 0.41348 0.09424 0.0
O128 O 0.00226 0.41898 0.10598 0.0
O129 O 0.90718 0.32667 0.07766 0.0
C130 C 0.60205 0.62445 0.08399 0.0
O131 O 0.63273 0.63742 0.07593 0.0
O132 O 0.69846 0.66012 0.10478 0.0
Zn133 Zn 0.65119 0.6072 0.09932 0.0
O134 O 0.66117 0.58536 0.08198 0.0
C135 C 0.67349 0.57522 0.12029 0.0
O136 O 0.70743 0.59768 0.11421 0.0
O137 O 0.60322 0.61114 0.09548 0.0
C138 C 0.69342 0.58908 0.07787 0.0
O139 O 0.72481 0.60714 0.08566 0.0
C140 C 0.72465 0.68633 0.09721 0.0
O141 O 0.7204 0.68191 0.08402 0.0
O142 O 0.64245 0.57216 0.11533 0.0
C143 C 0.33521 0.06065 0.10465 0.0
O144 O 0.34743 0.03989 0.11095 0.0
O145 O 0.39448 0.02871 0.08237 0.0
Zn146 Zn 0.40418 0.0818 0.08929 0.0
O147 O 0.43648 0.10012 0.1065 0.0
C148 C 0.42547 0.10825 0.06204 0.0
O149 O 0.39969 0.07054 0.05945 0.0
O150 O 0.3536 0.07962 0.09417 0.0
C151 C 0.43866 0.13028 0.11246 0.0
O152 O 0.42285 0.1485 0.10664 0.0
C153 C 0.42227 0.02144 0.08204 0.0
O154 O 0.45631 0.04694 0.08769 0.0
O155 O 0.43203 0.12082 0.07427 0.0
C156 C 0.02723 0.71413 0.91203 0.0
O157 O 0.02459 0.68925 0.90241 0.0
O158 O 0.0212 0.62201 0.92682 0.0
Zn159 Zn 0.06548 0.67909 0.92474 0.0
O160 O 0.09778 0.6881 0.90772 0.0
C161 C 0.08824 0.69125 0.95326 0.0
O162 O 0.05276 0.68545 0.95522 0.0
O163 O 0.04284 0.71461 0.92328 0.0
C164 C 0.08916 0.66395 0.89776 0.0
O165 O 0.05773 0.62805 0.89838 0.0
C166 C 0.02617 0.59849 0.93403 0.0
O167 O 0.06138 0.61035 0.93889 0.0
O168 O 0.10057 0.69277 0.94121 0.0
C169 C 0.43667 0.43145 0.93581 0.0
O170 O 0.40372 0.408 0.94231 0.0
O171 O 0.34231 0.38079 0.9188 0.0
Zn172 Zn 0.38064 0.43936 0.92262 0.0
O173 O 0.37031 0.45859 0.94046 0.0
C174 C 0.37685 0.45862 0.89479 0.0
O175 O 0.38367 0.42969 0.89229 0.0
O176 O 0.43514 0.44877 0.92533 0.0
C177 C 0.34037 0.44162 0.94816 0.0
O178 O 0.30894 0.4081 0.94421 0.0
C179 C 0.31009 0.37027 0.91273 0.0
O180 O 0.30109 0.39734 0.91019 0.0
O181 O 0.37684 0.46966 0.907 0.0
C182 C 0.69659 0.00779 0.9134 0.0
O183 O 0.67663 0.0112 0.90355 0.0
O184 O 0.61956 0.02642 0.93016 0.0
Zn185 Zn 0.62189 0.97712 0.9259 0.0
O186 O 0.59804 0.95003 0.90788 0.0
C187 C 0.5648 0.9374 0.94689 0.0
O188 O 0.55124 0.95877 0.94196 0.0
O189 O 0.67942 0.99399 0.92464 0.0
C190 C 0.56217 0.9315 0.90414 0.0
O191 O 0.53487 0.92873 0.9125 0.0
C192 C 0.59379 0.03446 0.92654 0.0
O193 O 0.56587 0.0104 0.91805 0.0
O194 O 0.59501 0.93923 0.94144 0.0
C195 C 0.61413 0.61127 0.43796 0.0
O196 O 0.63397 0.64415 0.44527 0.0
O197 O 0.65929 0.70718 0.41918 0.0
Zn198 Zn 0.60303 0.66518 0.42346 0.0
O199 O 0.58346 0.6787 0.44054 0.0
C200 C 0.58283 0.69893 0.4028 0.0
O201 O 0.60848 0.7302 0.40995 0.0
O202 O 0.59835 0.61237 0.42697 0.0
C203 C 0.55098 0.65109 0.44531 0.0
O204 O 0.53105 0.61742 0.43841 0.0
C205 C 0.67978 0.73908 0.42607 0.0
O206 O 0.66642 0.74356 0.43778 0.0
O207 O 0.57234 0.66439 0.40701 0.0
C208 C 0.28143 0.95777 0.41476 0.0
O209 O 0.3068 0.96007 0.40562 0.0
O210 O 0.38413 0.99462 0.43238 0.0
Zn211 Zn 0.33152 0.94352 0.43074 0.0
O212 O 0.32865 0.90764 0.41527 0.0
C213 C 0.35576 0.92381 0.45477 0.0
O214 O 0.38993 0.94562 0.44876 0.0
O215 O 0.28698 0.95324 0.42709 0.0
C216 C 0.35232 0.91722 0.40534 0.0
O217 O 0.38515 0.95213 0.40539 0.0
C218 C 0.40274 0.02654 0.4258 0.0
O219 O 0.38707 0.03094 0.41485 0.0
O220 O 0.32432 0.91639 0.44872 0.0
C221 C 0.00678 0.40711 0.44142 0.0
O222 O 0.02647 0.39847 0.44988 0.0
O223 O 0.06025 0.36109 0.42185 0.0
Zn224 Zn 0.06946 0.416 0.42529 0.0
O225 O 0.10302 0.44416 0.44172 0.0
C226 C 0.12186 0.43676 0.40356 0.0
O227 O 0.12983 0.41402 0.41072 0.0
O228 O 0.01817 0.41407 0.42916 0.0
C229 C 0.12765 0.43914 0.44814 0.0
O230 O 0.13731 0.41372 0.44347 0.0
C231 C 0.05716 0.3342 0.42953 0.0
O232 O 0.05665 0.33883 0.44271 0.0
O233 O 0.0968 0.44527 0.40814 0.0
Zn234 Zn 0.0102 0.00592 0.12444 0.0
Zn235 Zn 0.00183 0.00477 0.17201 0.0
Zn236 Zn 0.0069 0.00573 0.14979 0.0
C237 C 0.01093 0.94415 0.16682 0.0
C238 C 0.06597 0.07336 0.16836 0.0
O239 O 0.97401 0.0342 0.14332 0.0
O240 O 0.98549 0.03776 0.12137 0.0
C241 C 0.96768 0.92616 0.13152 0.0
O242 O 0.99191 0.94581 0.15663 0.0
O243 O 0.02731 0.97346 0.17494 0.0
O244 O 0.03447 0.06357 0.17469 0.0
O245 O 0.06505 0.05032 0.15868 0.0
O246 O 0.97816 0.94774 0.12123 0.0
O247 O 0.97772 0.94227 0.14343 0.0
O248 O 0.07078 0.04119 0.14507 0.0
O249 O 0.06803 0.03272 0.12287 0.0
C250 C 0.08817 0.04616 0.13357 0.0
O251 O 0.9616 0.02011 0.15655 0.0
O252 O 0.94345 0.97792 0.17313 0.0
C253 C 0.9712 0.04586 0.13155 0.0
C254 C 0.93622 -0.00109 0.16565 0.0
Zn255 Zn 0.0069 0.01388 0.34804 0.0
Zn256 Zn 0.00539 0.00891 0.39938 0.0
Zn257 Zn 0.00614 0.01221 0.37288 0.0
C258 C 0.04493 0.08919 0.39308 0.0
C259 C 0.92699 0.96988 0.39117 0.0
O260 O 0.03132 0.97636 0.36476 0.0
O261 O 0.04003 0.99185 0.34319 0.0
C262 C 0.04845 0.09207 0.35524 0.0
O263 O 0.0372 0.07422 0.38098 0.0
O264 O 0.03512 0.06673 0.40312 0.0
O265 O 0.94761 0.98004 0.40178 0.0
O266 O 0.94365 0.97958 0.37948 0.0
O267 O 0.03035 0.07091 0.34502 0.0
O268 O 0.04409 0.07557 0.36676 0.0
O269 O 0.94417 0.98681 0.36544 0.0
O270 O 0.95086 0.98005 0.34356 0.0
C271 C 0.92897 0.97564 0.35353 0.0
O272 O 0.03689 0.98112 0.37897 0.0
O273 O 0.03317 0.9796 0.40129 0.0
C274 C 0.04343 0.97357 0.35286 0.0
C275 C 0.04499 0.97185 0.3904 0.0
Zn276 Zn 0.02712 0.03169 0.90097 0.0
Zn277 Zn 0.01302 0.02526 0.85378 0.0
Zn278 Zn 0.01987 0.02729 0.87627 0.0
C279 C -0.00452 0.07893 0.86056 0.0
C280 C 0.9617 0.95139 0.86022 0.0
O281 O 0.00451 0.96652 0.88233 0.0
O282 O 0.02839 0.98271 0.90303 0.0
C283 C 0.0979 0.09312 0.89147 0.0
O284 O 0.98599 0.05617 0.87085 0.0
O285 O 0.01689 0.07701 0.85142 0.0
O286 O 0.95993 0.97645 0.853 0.0
O287 O 0.98892 0.96383 0.86929 0.0
O288 O 0.0782 0.08238 0.90229 0.0
O289 O 0.08233 0.07389 0.88032 0.0
O290 O 0.97703 0.04346 0.88411 0.0
O291 O 0.97744 0.03006 0.90561 0.0
C292 C 0.96221 0.03848 0.89609 0.0
O293 O 0.07995 0.05975 0.86711 0.0
O294 O 0.05941 0.02089 0.84896 0.0
C295 C 0.01446 0.95747 0.89343 0.0
C296 C 0.08754 0.04591 0.85631 0.0
Zn297 Zn 0.01776 0.01637 0.67948 0.0
Zn298 Zn 0.01156 0.01826 0.62949 0.0
Zn299 Zn 0.0157 0.019 0.65561 0.0
C300 C 0.9691 0.93959 0.63651 0.0
C301 C 0.09132 0.05428 0.63584 0.0
O302 O 0.99199 0.05519 0.66448 0.0
O303 O 0.97897 0.03109 0.68499 0.0
C304 C 0.97848 0.93985 0.67371 0.0
O305 O 0.98144 0.95643 0.64821 0.0
O306 O 0.97641 0.96047 0.62617 0.0
O307 O 0.06839 0.04177 0.62579 0.0
O308 O 0.07721 0.04878 0.64793 0.0
O309 O 0.00207 0.96081 0.683 0.0
O310 O 0.97782 0.9565 0.66271 0.0
O311 O 0.07843 0.04423 0.66224 0.0
O312 O 0.07286 0.05669 0.68368 0.0
C313 C 0.09438 0.05867 0.67389 0.0
O314 O 0.98664 0.05241 0.65012 0.0
O315 O 0.98914 0.05263 0.62779 0.0
C316 C 0.97765 0.0535 0.67638 0.0
C317 C 0.97922 0.06235 0.63871 0.0
Zn318 Zn 0.66342 0.33425 0.50372 0.0
Zn319 Zn 0.68289 0.35021 0.45653 0.0
Zn320 Zn 0.67273 0.34189 0.48164 0.0
C321 C 0.75791 0.39146 0.46776 0.0
C322 C 0.64284 0.26842 0.46083 0.0
O323 O 0.62394 0.3513 0.48831 0.0
O324 O 0.60483 0.30464 0.50337 0.0
C325 C 0.72577 0.40582 0.50257 0.0
O326 O 0.73723 0.38137 0.47869 0.0
O327 O 0.74108 0.38126 0.45639 0.0
O328 O 0.65514 0.2931 0.45138 0.0
O329 O 0.64895 0.28094 0.47324 0.0
O330 O 0.69317 0.39201 0.50864 0.0
O331 O 0.7278 0.38664 0.49214 0.0
O332 O 0.66076 0.28138 0.48664 0.0
O333 O 0.6904 0.30437 0.50624 0.0
C334 C 0.67788 0.27785 0.49707 0.0
O335 O 0.63735 0.36802 0.47526 0.0
O336 O 0.65445 0.37838 0.45375 0.0
C337 C 0.59751 0.32682 0.49657 0.0
C338 C 0.63599 0.38168 0.46369 0.0
Zn339 Zn 0.6768 0.34485 0.72994 0.0
Zn340 Zn 0.69374 0.36275 0.68254 0.0
Zn341 Zn 0.68504 0.35436 0.7044 0.0
C342 C 0.62976 0.36476 0.68575 0.0
C343 C 0.75858 0.42345 0.69145 0.0
O344 O 0.71138 0.31859 0.7096 0.0
O345 O 0.70428 0.31513 0.73182 0.0
C346 C 0.60097 0.31036 0.71878 0.0
O347 O 0.62888 0.3411 0.69475 0.0
O348 O 0.66234 0.38854 0.68025 0.0
O349 O 0.75236 0.39622 0.68303 0.0
O350 O 0.73156 0.41696 0.70017 0.0
O351 O 0.61841 0.31523 0.72989 0.0
O352 O 0.62079 0.32401 0.7078 0.0
O353 O 0.71706 0.41478 0.71354 0.0
O354 O 0.70547 0.40195 0.73531 0.0
C355 C 0.72034 0.4268 0.72594 0.0
O356 O 0.70252 0.31283 0.69562 0.0
O357 O 0.66878 0.30578 0.67726 0.0
C358 C 0.7172 0.30778 0.72111 0.0
C359 C 0.6857 0.29333 0.68464 0.0
Zn360 Zn 0.66996 0.33828 0.23226 0.0
Zn361 Zn 0.67813 0.34206 0.1851 0.0
Zn362 Zn 0.67454 0.34089 0.20701 0.0
C363 C 0.66774 0.4013 0.19037 0.0
C364 C 0.61627 0.27277 0.18831 0.0
O365 O 0.70839 0.3129 0.213 0.0
O366 O 0.69555 0.30717 0.2349 0.0
C367 C 0.7118 0.41909 0.22576 0.0
O368 O 0.68855 0.40073 0.2002 0.0
O369 O 0.64989 0.37095 0.18274 0.0
O370 O 0.64805 0.28332 0.18205 0.0
O371 O 0.61658 0.29541 0.19803 0.0
O372 O 0.7017 0.39644 0.23577 0.0
O373 O 0.70203 0.404 0.21371 0.0
O374 O 0.61066 0.30475 0.21148 0.0
O375 O 0.61175 0.31059 0.23377 0.0
C376 C 0.59244 0.29837 0.22286 0.0
O377 O 0.72056 0.32792 0.19966 0.0
O378 O 0.73666 0.3719 0.18385 0.0
C379 C 0.71079 0.30044 0.22469 0.0
C380 C 0.74515 0.35044 0.19057 0.0
Zn381 Zn 0.68708 0.36631 1.00433 0.0
Zn382 Zn 0.68831 0.36529 0.95676 0.0
Zn383 Zn 0.68797 0.36522 0.98215 0.0
C384 C 0.63507 0.28717 0.96372 0.0
C385 C 0.76519 0.38967 0.96443 0.0
O386 O 0.68076 0.41468 0.99016 0.0
O387 O 0.71975 0.42499 1.00734 0.0
C388 C 0.61543 0.3089 0.99911 0.0
O389 O 0.64512 0.30315 0.97564 0.0
O390 O 0.64929 0.30843 0.95342 0.0
O391 O 0.7444 0.38311 0.95402 0.0
O392 O 0.7494 0.38402 0.97626 0.0
O393 O 0.62894 0.33978 1.00652 0.0
O394 O 0.63707 0.30815 0.9894 0.0
O395 O 0.74396 0.37232 0.99006 0.0
O396 O 0.71152 0.33393 1.00705 0.0
C397 C 0.7423 0.35056 0.99991 0.0
O398 O 0.67003 0.4078 0.97623 0.0
O399 O 0.67134 0.4037 0.95397 0.0
C400 C 0.70199 0.43691 1.00014 0.0
C401 C 0.66438 0.41773 0.96452 0.0
Zn402 Zn 0.34235 0.68394 0.84198 0.0
Zn403 Zn 0.34654 0.68596 0.79029 0.0
Zn404 Zn 0.3434 0.68518 0.81662 0.0
C405 C 0.42426 0.7208 0.799 0.0
C406 C 0.30064 0.60609 0.79742 0.0
O407 O 0.30453 0.70787 0.82368 0.0
O408 O 0.3111 0.70842 0.84584 0.0
C409 C 0.41987 0.73394 0.8363 0.0
O410 O 0.40688 0.7166 0.81049 0.0
O411 O 0.40411 0.7092 0.78826 0.0
O412 O 0.31168 0.62791 0.78718 0.0
O413 O 0.31141 0.62199 0.80934 0.0
O414 O 0.39852 0.71651 0.84635 0.0
O415 O 0.40475 0.72599 0.82432 0.0
O416 O 0.32014 0.62246 0.82318 0.0
O417 O 0.31687 0.62721 0.84539 0.0
C418 C 0.31209 0.60635 0.83491 0.0
O419 O 0.31286 0.71627 0.80979 0.0
O420 O 0.32406 0.7202 0.78778 0.0
C421 C 0.29622 0.71469 0.83572 0.0
C422 C 0.31037 0.72859 0.79807 0.0
Zn423 Zn 0.33417 0.69179 0.05856 0.0
Zn424 Zn 0.32139 0.65599 0.01139 0.0
Zn425 Zn 0.3306 0.67511 0.03341 0.0
C426 C 0.25752 0.65847 0.01566 0.0
C427 C 0.38883 0.72753 0.01146 0.0
O428 O 0.36232 0.64839 0.04248 0.0
O429 O 0.36956 0.67225 0.06336 0.0
C430 C 0.25478 0.64117 0.05313 0.0
O431 O 0.268 0.65362 0.02741 0.0
O432 O 0.28075 0.6669 1.00581 0.0
O433 O 0.37659 0.69416 1.00566 0.0
O434 O 0.37048 0.72939 0.02203 0.0
O435 O 0.27757 0.65813 0.06306 0.0
O436 O 0.26891 0.64609 0.04103 0.0
O437 O 0.36401 0.74109 0.03487 0.0
O438 O 0.35657 0.74946 0.05667 0.0
C439 C 0.3686 0.76389 0.04513 0.0
O440 O 0.3499 0.63142 0.02908 0.0
O441 O 0.30429 0.59933 0.0136 0.0
C442 C 0.3764 0.6529 0.0545 0.0
C443 C 0.33007 0.60062 0.02128 0.0
Zn444 Zn 0.346 0.68349 0.56505 0.0
Zn445 Zn 0.34916 0.69287 0.5173 0.0
Zn446 Zn 0.3488 0.68753 0.53952 0.0
C447 C 0.34931 0.75635 0.52497 0.0
C448 C 0.28426 0.62481 0.52047 0.0
O449 O 0.37948 0.65548 0.5441 0.0
O450 O 0.36806 0.64861 0.56608 0.0
C451 C 0.39253 0.76421 0.5594 0.0
O452 O 0.36809 0.74982 0.53412 0.0
O453 O 0.32804 0.72884 0.51666 0.0
O454 O 0.31291 0.6362 0.51245 0.0
O455 O 0.28866 0.64524 0.53139 0.0
O456 O 0.38177 0.74088 0.56923 0.0
O457 O 0.38089 0.74999 0.54734 0.0
O458 O 0.28539 0.6547 0.54484 0.0
O459 O 0.28819 0.6596 0.56716 0.0
C460 C 0.26811 0.64896 0.5564 0.0
O461 O 0.38991 0.67034 0.53059 0.0
O462 O 0.40682 0.71534 0.51505 0.0
C463 C 0.38159 0.64143 0.55548 0.0
C464 C 0.41379 0.69181 0.52118 0.0
Zn465 Zn 0.33878 0.67852 0.29107 0.0
Zn466 Zn 0.34389 0.67849 0.34134 0.0
Zn467 Zn 0.34254 0.67995 0.31721 0.0
C468 C 0.42076 0.71983 0.33571 0.0
C469 C 0.30549 0.60132 0.33561 0.0
O470 O 0.3113 0.71125 0.31152 0.0
O471 O 0.31018 0.70667 0.28922 0.0
C472 C 0.41891 0.72003 0.29765 0.0
O473 O 0.40508 0.706 0.32398 0.0
O474 O 0.39919 0.7174 0.34554 0.0
O475 O 0.32691 0.62312 0.34521 0.0
O476 O 0.30594 0.6172 0.32429 0.0
O477 O 0.39603 0.70846 0.28758 0.0
O478 O 0.4045 0.71142 0.30969 0.0
O479 O 0.31012 0.6171 0.30999 0.0
O480 O 0.30916 0.62044 0.28774 0.0
C481 C 0.30062 0.59992 0.29823 0.0
O482 O 0.31819 0.71605 0.3258 0.0
O483 O 0.30651 0.69487 0.34672 0.0
C484 C 0.30094 0.71769 0.3 0.0
C485 C 0.30473 0.71609 0.33774 0.0
H486 H 0.22259 0.25805 0.22529 0.0
H487 H 0.22047 0.14877 0.23226 0.0
H488 H 0.19099 0.23175 0.20338 0.0
H489 H 0.18774 0.12196 0.21068 0.0
H490 H 0.13779 0.07944 0.17049 0.0
H491 H 0.18975 0.12292 0.18653 0.0
H492 H 0.12671 0.18326 0.19614 0.0
H493 H 0.07618 0.14103 0.17985 0.0
C494 C 0.21529 0.22838 0.22216 0.0
C495 C 0.22352 0.20527 0.2306 0.0
C496 C 0.19726 0.21332 0.20958 0.0
C497 C 0.18672 0.17467 0.20521 0.0
C498 C 0.19605 0.1521 0.21353 0.0
C499 C 0.21436 0.16728 0.22603 0.0
C500 C 0.13622 0.10332 0.17554 0.0
C501 C 0.10293 0.10675 0.17401 0.0
C502 C 0.16557 0.12779 0.18493 0.0
C503 C 0.16196 0.15596 0.19291 0.0
C504 C 0.13072 0.16207 0.19022 0.0
C505 C 0.10159 0.13775 0.18086 0.0
H506 H 0.76587 0.92374 0.22335 0.0
H507 H 0.80007 0.04742 0.22269 0.0
H508 H 0.80131 0.93155 0.20235 0.0
H509 H 0.83376 0.05498 0.20122 0.0
H510 H 0.94034 0.06351 0.17741 0.0
H511 H 0.89155 0.06058 0.19324 0.0
H512 H 0.80823 0.94051 0.17925 0.0
H513 H 0.85854 0.94307 0.16412 0.0
C514 C 0.78038 0.95244 0.21856 0.0
C515 C 0.78071 0.98506 0.22478 0.0
C516 C 0.80041 0.95693 0.20638 0.0
C517 C 0.82063 0.99402 0.19995 0.0
C518 C 0.8193 0.02619 0.20593 0.0
C519 C 0.79991 0.02185 0.21825 0.0
C520 C 0.91092 0.03729 0.17728 0.0
C521 C 0.90301 0.00358 0.16957 0.0
C522 C 0.88283 0.03536 0.18646 0.0
C523 C 0.8461 -0.00025 0.18791 0.0
C524 C 0.83662 0.96791 0.17881 0.0
C525 C 0.86506 0.9696 0.16989 0.0
H526 H 0.98112 0.73301 0.20672 0.0
H527 H 0.05449 0.84265 0.22917 0.0
H528 H 0.98068 0.77111 0.1875 0.0
H529 H 0.05431 0.88042 0.21002 0.0
H530 H 0.07641 0.94297 0.17234 0.0
H531 H 0.07956 0.89368 0.18589 0.0
H532 H 0.95279 0.81775 0.1835 0.0
H533 H 0.94981 0.86738 0.16969 0.0
C534 C -0.00246 0.76521 0.20749 0.0
C535 C 0.01793 0.7849 0.21946 0.0
C536 C -0.0029 0.78691 0.19652 0.0
C537 C 0.01772 0.82866 0.19722 0.0
C538 C 0.03865 0.84824 0.2091 0.0
C539 C 0.03857 0.82663 0.22011 0.0
C540 C 0.0494 0.91495 0.17421 0.0
C541 C 0.01287 0.90887 0.17006 0.0
C542 C 0.05116 0.88696 0.18208 0.0
C543 C 0.01636 0.85242 0.18603 0.0
C544 C 0.98007 0.84421 0.18062 0.0
C545 C 0.97833 0.87239 0.17265 0.0
H546 H 0.18285 0.19471 0.29212 0.0
H547 H 0.27209 0.27414 0.3208 0.0
H548 H 0.13468 0.16735 0.31028 0.0
H549 H 0.22341 0.24611 0.33913 0.0
H550 H 0.12445 0.1281 0.36395 0.0
H551 H 0.18043 0.1761 0.35037 0.0
H552 H 0.10134 0.19405 0.32607 0.0
H553 H 0.04561 0.1459 0.3395 0.0
C554 C 0.19231 0.20617 0.30231 0.0
C555 C 0.23134 0.23666 0.30499 0.0
C556 C 0.16455 0.19082 0.31271 0.0
C557 C 0.17512 0.20523 0.32607 0.0
C558 C 0.21442 0.23478 0.32889 0.0
C559 C 0.24222 0.25065 0.31841 0.0
C560 C 0.11941 0.14412 0.35623 0.0
C561 C 0.08073 0.13295 0.35261 0.0
C562 C 0.15142 0.17128 0.34835 0.0
C563 C 0.1449 0.18763 0.33689 0.0
C564 C 0.10699 0.18105 0.33465 0.0
C565 C 0.07516 0.15396 0.34246 0.0
H566 H 0.75253 0.01609 0.31818 0.0
H567 H 0.82666 0.00024 0.28946 0.0
H568 H 0.77953 0.99604 0.33647 0.0
H569 H 0.85322 0.98032 0.30758 0.0
H570 H 0.87616 0.91687 0.33693 0.0
H571 H 0.82881 0.92276 0.3232 0.0
H572 H 0.84664 0.02253 0.34809 0.0
H573 H 0.89354 0.01595 0.36202 0.0
C574 C 0.77465 0.00852 0.31577 0.0
C575 C 0.78747 0.0098 0.30234 0.0
C576 C 0.78994 -0.00308 0.32623 0.0
C577 C 0.81783 0.98578 0.32342 0.0
C578 C 0.83098 0.9877 0.31004 0.0
C579 C 0.81612 -0.00034 0.29965 0.0
C580 C 0.86823 0.93856 0.33993 0.0
C581 C 0.88874 0.96621 0.35042 0.0
C582 C 0.84162 0.94238 0.33194 0.0
C583 C 0.83521 0.97404 0.33428 0.0
C584 C 0.85127 -0.00195 0.34598 0.0
C585 C 0.87783 0.99401 0.35406 0.0
H586 H 0.08733 0.88652 0.28489 0.0
H587 H 0.00515 0.77481 0.30331 0.0
H588 H 0.09423 0.92134 0.30615 0.0
H589 H 0.01381 0.80922 0.32503 0.0
H590 H 0.99312 0.89459 0.35275 0.0
H591 H -0.00383 0.84939 0.33636 0.0
H592 H 0.1178 0.93831 0.32779 0.0
H593 H 0.11299 0.98447 0.34346 0.0
C594 C 0.07113 0.86934 0.29359 0.0
C595 C 0.04529 0.82807 0.2924 0.0
C596 C 0.07554 0.88923 0.30592 0.0
C597 C 0.05491 0.86828 0.31752 0.0
C598 C 0.0298 0.82663 0.31635 0.0
C599 C 0.02475 0.80682 0.3039 0.0
C600 C 0.02107 0.90363 0.34784 0.0
C601 C 0.05275 0.94292 0.34927 0.0
C602 C 0.02284 0.87777 0.33829 0.0
C603 C 0.05677 0.89059 0.33024 0.0
C604 C 0.09053 0.92793 0.33332 0.0
C605 C 0.08826 0.95416 0.34256 0.0
H606 H 0.78343 0.76418 0.81093 0.0
H607 H 0.89847 0.82089 0.79211 0.0
H608 H 0.81439 0.79063 0.83292 0.0
H609 H 0.92927 0.84826 0.81391 0.0
H610 H 0.98388 0.89883 0.85244 0.0
H611 H 0.94603 0.84274 0.8367 0.0
H612 H 0.84512 0.85647 0.84212 0.0
H613 H 0.8827 0.91142 0.85788 0.0
C614 C 0.81534 0.78195 0.8115 0.0
C615 C 0.83844 0.79108 0.79972 0.0
C616 C 0.8331 0.79709 0.82411 0.0
C617 C 0.87435 0.82193 0.82523 0.0
C618 C 0.89748 0.82886 0.81354 0.0
C619 C 0.87975 0.81352 0.80095 0.0
C620 C 0.95291 0.88818 0.85082 0.0
C621 C 0.93607 0.90926 0.85632 0.0
C622 C 0.9314 0.85654 0.84163 0.0
C623 C 0.89282 0.84572 0.83784 0.0
C624 C 0.87461 0.86371 0.84476 0.0
C625 C 0.89611 0.89524 0.85387 0.0
H626 H 0.21725 0.10396 0.78758 0.0
H627 H 0.268 0.04382 0.80737 0.0
H628 H 0.18914 0.10911 0.80898 0.0
H629 H 0.24048 0.04971 0.82888 0.0
H630 H 0.14309 0.1202 0.84823 0.0
H631 H 0.19659 0.13459 0.83227 0.0
H632 H 0.17265 0.01476 0.83655 0.0
H633 H 0.11988 0.00097 0.85238 0.0
C634 C 0.22311 0.09255 0.79654 0.0
C635 C 0.24427 0.07283 0.7957 0.0
C636 C 0.20732 0.0959 0.80888 0.0
C637 C 0.21234 0.07963 0.82067 0.0
C638 C 0.23565 0.06215 0.81997 0.0
C639 C 0.25143 0.05878 0.80763 0.0
C640 C 0.15084 0.09782 0.84626 0.0
C641 C 0.12778 0.05963 0.85156 0.0
C642 C 0.18099 0.10576 0.83697 0.0
C643 C 0.18851 0.07562 0.83295 0.0
C644 C 0.16802 0.03882 0.83945 0.0
C645 C 0.13779 0.03086 0.84858 0.0
H646 H 0.93619 0.16984 0.79965 0.0
H647 H 0.98685 0.27388 0.82603 0.0
H648 H 0.93186 0.12925 0.81852 0.0
H649 H 0.9821 0.23298 0.84502 0.0
H650 H 0.03707 0.15896 0.86165 0.0
H651 H 0.02093 0.20178 0.8494 0.0
H652 H 0.90475 0.10074 0.84075 0.0
H653 H 0.92144 0.05792 0.85304 0.0
C654 C 0.94564 0.18393 0.80954 0.0
C655 C 0.9625 0.22524 0.81127 0.0
C656 C 0.94277 0.16053 0.82042 0.0
C657 C 0.95682 0.17789 0.8333 0.0
C658 C 0.97135 0.21878 0.83521 0.0
C659 C 0.97403 0.24219 0.82432 0.0
C660 C 0.0074 0.14644 0.85773 0.0
C661 C 0.98031 0.10543 0.85838 0.0
C662 C -0.00188 0.17089 0.85066 0.0
C663 C 0.96172 0.15456 0.84391 0.0
C664 C 0.93319 0.11409 0.84571 0.0
C665 C 0.94248 0.08968 0.85288 0.0
H666 H 0.77789 0.79143 0.72378 0.0
H667 H 0.88176 0.79739 0.73963 0.0
H668 H 0.8121 0.81868 0.7025 0.0
H669 H 0.91747 0.82795 0.7191 0.0
H670 H 0.98037 0.87527 0.68209 0.0
H671 H 0.93217 0.82563 0.69732 0.0
H672 H 0.85639 0.87352 0.69167 0.0
H673 H 0.90274 0.91959 0.67545 0.0
C674 C 0.80839 0.79938 0.72275 0.0
C675 C 0.82741 0.79274 0.73333 0.0
C676 C 0.82818 0.81508 0.71054 0.0
C677 C 0.86792 0.82572 0.70881 0.0
C678 C 0.88671 0.81918 0.71962 0.0
C679 C 0.86649 0.80228 0.73159 0.0
C680 C 0.95226 0.87334 0.68357 0.0
C681 C 0.94508 0.90099 0.6776 0.0
C682 C 0.92497 0.84568 0.69262 0.0
C683 C 0.8909 0.84654 0.69641 0.0
C684 C 0.882 0.87151 0.68921 0.0
C685 C 0.90859 0.898 0.67976 0.0
H686 H 0.20184 0.04003 0.73893 0.0
H687 H 0.27167 0.0198 0.70959 0.0
H688 H 0.17296 0.05774 0.72086 0.0
H689 H 0.24263 0.03775 0.69142 0.0
H690 H 0.12951 0.01739 0.6661 0.0
H691 H 0.17616 0.01133 0.68034 0.0
H692 H 0.19411 0.11235 0.70452 0.0
H693 H 0.14706 0.1178 0.69046 0.0
C694 C 0.21092 0.03917 0.72862 0.0
C695 C 0.23905 0.02844 0.72573 0.0
C696 C 0.19475 0.04985 0.71826 0.0
C697 C 0.20609 0.0499 0.70471 0.0
C698 C 0.23349 0.03823 0.70175 0.0
C699 C 0.25 0.02786 0.71217 0.0
C700 C 0.14512 0.03964 0.67399 0.0
C701 C 0.13438 0.06777 0.6773 0.0
C702 C 0.17151 0.03588 0.68226 0.0
C703 C 0.18763 0.06047 0.69385 0.0
C704 C 0.1812 0.0922 0.69591 0.0
C705 C 0.1548 0.0958 0.68771 0.0
H706 H 0.06457 0.24832 0.72657 0.0
H707 H 0.94125 0.19112 0.73733 0.0
H708 H 0.04717 0.20511 0.70651 0.0
H709 H 0.92364 0.14929 0.71704 0.0
H710 H 0.92336 0.04258 0.69531 0.0
H711 H 0.92812 0.09414 0.71046 0.0
H712 H 0.0168 0.18402 0.68463 0.0
H713 H 0.01253 0.1316 0.66957 0.0
C714 C 0.03373 0.22683 0.72456 0.0
C715 C 0.00442 0.22248 0.7337 0.0
C716 C 0.02363 0.2024 0.71295 0.0
C717 C 0.9839 0.17348 0.71013 0.0
C718 C 0.95454 0.17061 0.71899 0.0
C719 C 0.96469 0.19455 0.73067 0.0
C720 C 0.9426 0.07339 0.69255 0.0
C721 C 0.96802 0.08311 0.68141 0.0
C722 C 0.94548 0.10315 0.70128 0.0
C723 C 0.97375 0.14338 0.69902 0.0
C724 C -0.00447 0.15327 0.68688 0.0
C725 C 0.99255 0.12329 0.6781 0.0
H726 H 0.89712 0.49746 0.56286 0.0
H727 H 0.87983 0.59673 0.55871 0.0
H728 H 0.85963 0.46712 0.54225 0.0
H729 H 0.84308 0.56679 0.53782 0.0
H730 H 0.72761 0.46525 0.51745 0.0
H731 H 0.77901 0.51052 0.53301 0.0
H732 H 0.85479 0.4692 0.51786 0.0
H733 H 0.80233 0.42284 0.50237 0.0
C734 C 0.88569 0.51306 0.55746 0.0
C735 C 0.89092 0.54921 0.56255 0.0
C736 C 0.86459 0.49588 0.54552 0.0
C737 C 0.84831 0.51449 0.53834 0.0
C738 C 0.85484 0.55143 0.54318 0.0
C739 C 0.87583 0.56856 0.55516 0.0
C740 C 0.75566 0.46661 0.51717 0.0
C741 C 0.76085 0.44022 0.50883 0.0
C742 C 0.7853 0.49276 0.52607 0.0
C743 C 0.82087 0.49311 0.52686 0.0
C744 C 0.82741 0.46913 0.51766 0.0
C745 C 0.79762 0.44295 0.50866 0.0
H746 H 0.4424 0.25647 0.5584 0.0
H747 H 0.45289 0.37005 0.55202 0.0
H748 H 0.47499 0.26189 0.5369 0.0
H749 H 0.48461 0.37502 0.53028 0.0
H750 H 0.59626 0.39116 0.50639 0.0
H751 H 0.54744 0.38726 0.52256 0.0
H752 H 0.47209 0.26188 0.51293 0.0
H753 H 0.52193 0.26583 0.49725 0.0
C754 C 0.45109 0.28231 0.55231 0.0
C755 C 0.4454 0.31296 0.55702 0.0
C756 C 0.46947 0.2853 0.53987 0.0
C757 C 0.48241 0.31891 0.53176 0.0
C758 C 0.47545 0.34894 0.53629 0.0
C759 C 0.45719 0.34602 0.54876 0.0
C760 C 0.56834 0.36334 0.50723 0.0
C761 C 0.56275 0.3288 0.50063 0.0
C762 C 0.54039 0.3609 0.5166 0.0
C763 C 0.50631 0.3239 0.51938 0.0
C764 C 0.49856 0.29057 0.51136 0.0
C765 C 0.52671 0.29293 0.50218 0.0
H766 H 0.66578 0.07422 0.53588 0.0
H767 H 0.74314 0.18636 0.5564 0.0
H768 H 0.66046 0.10981 0.5168 0.0
H769 H 0.7381 0.22172 0.53735 0.0
H770 H 0.74655 0.28064 0.49973 0.0
H771 H 0.75605 0.23416 0.51268 0.0
H772 H 0.62983 0.15345 0.51392 0.0
H773 H 0.62051 0.20024 0.50077 0.0
C774 C 0.68215 0.10646 0.53624 0.0
C775 C 0.70493 0.12752 0.54767 0.0
C776 C 0.67892 0.12675 0.52533 0.0
C777 C 0.69903 0.16851 0.52553 0.0
C778 C 0.72271 0.18952 0.53679 0.0
C779 C 0.72543 0.16927 0.54776 0.0
C780 C 0.72098 0.25204 0.50218 0.0
C781 C 0.68284 0.24379 0.49921 0.0
C782 C 0.72637 0.2257 0.50976 0.0
C783 C 0.69367 0.19064 0.51459 0.0
C784 C 0.6556 0.18027 0.51033 0.0
C785 C 0.65021 0.2068 0.5027 0.0
H786 H 0.86028 0.55248 0.62707 0.0
H787 H 0.96836 0.60388 0.65015 0.0
H788 H 0.82223 0.52219 0.64745 0.0
H789 H 0.92995 0.57264 0.6706 0.0
H790 H 0.83481 0.44364 0.69022 0.0
H791 H 0.88462 0.49653 0.67621 0.0
H792 H 0.80767 0.54284 0.67131 0.0
H793 H 0.75814 0.49025 0.68565 0.0
C794 C 0.87592 0.55726 0.6365 0.0
C795 C 0.91732 0.58025 0.63698 0.0
C796 C 0.8541 0.54042 0.64821 0.0
C797 C 0.87317 0.54564 0.66063 0.0
C798 C 0.91458 0.56855 0.66116 0.0
C799 C 0.93646 0.58615 0.64946 0.0
C800 C 0.82963 0.46661 0.68683 0.0
C801 C 0.79286 0.46312 0.689 0.0
C802 C 0.858 0.49671 0.67873 0.0
C803 C 0.84959 0.52321 0.67248 0.0
C804 C 0.81464 0.52249 0.67594 0.0
C805 C 0.78655 0.49278 0.68428 0.0
H806 H 0.45985 0.27787 0.62479 0.0
H807 H 0.47597 0.39436 0.63177 0.0
H808 H 0.49675 0.28565 0.64528 0.0
H809 H 0.51126 0.40151 0.65265 0.0
H810 H 0.62452 0.42263 0.67361 0.0
H811 H 0.57364 0.41376 0.65818 0.0
H812 H 0.50218 0.29021 0.66927 0.0
H813 H 0.55466 0.2991 0.68451 0.0
C814 C 0.47091 0.30498 0.6308 0.0
C815 C 0.46567 0.33581 0.62653 0.0
C816 C 0.49162 0.30924 0.64268 0.0
C817 C 0.50715 0.34426 0.65068 0.0
C818 C 0.50042 0.37442 0.64665 0.0
C819 C 0.48024 0.3704 0.63465 0.0
C820 C 0.5975 0.39379 0.67304 0.0
C821 C 0.59383 0.36137 0.68006 0.0
C822 C 0.56806 0.3887 0.6642 0.0
C823 C 0.53396 0.35103 0.66222 0.0
C824 C 0.52853 0.31942 0.6703 0.0
C825 C 0.55827 0.32457 0.67918 0.0
H826 H 0.77445 0.22126 0.62209 0.0
H827 H 0.66245 0.11246 0.62759 0.0
H828 H 0.76586 0.24716 0.64362 0.0
H829 H 0.65453 0.13759 0.6494 0.0
H830 H 0.62889 0.22675 0.67234 0.0
H831 H 0.63918 0.18574 0.65619 0.0
H832 H 0.76211 0.24507 0.66784 0.0
H833 H 0.75154 0.28722 0.68389 0.0
C834 C 0.74818 0.20269 0.62798 0.0
C835 C 0.71875 0.16517 0.62301 0.0
C836 C 0.7435 0.2173 0.64044 0.0
C837 C 0.70945 0.19451 0.6483 0.0
C838 C 0.68082 0.15625 0.64354 0.0
C839 C 0.68528 0.14187 0.63101 0.0
C840 C 0.65776 0.22992 0.67182 0.0
C841 C 0.68948 0.26023 0.67925 0.0
C842 C 0.66375 0.20635 0.66254 0.0
C843 C 0.70172 0.21259 0.66046 0.0
C844 C 0.73266 0.24012 0.66898 0.0
C845 C 0.72655 0.26378 0.67835 0.0
H846 H 0.45681 0.19913 0.12583 0.0
H847 H 0.46219 0.09268 0.12967 0.0
H848 H 0.49008 0.22399 0.14741 0.0
H849 H 0.49427 0.11687 0.15164 0.0
H850 H 0.60825 0.20785 0.17529 0.0
H851 H 0.55756 0.16628 0.15899 0.0
H852 H 0.49046 0.22035 0.1714 0.0
H853 H 0.5426 0.2633 0.18752 0.0
C854 C 0.46465 0.18075 0.13138 0.0
C855 C 0.45745 0.14422 0.12592 0.0
C856 C 0.48329 0.19478 0.1439 0.0
C857 C 0.49494 0.1725 0.15136 0.0
C858 C 0.48626 0.13514 0.14611 0.0
C859 C 0.46793 0.12127 0.1335 0.0
C860 C 0.58203 0.20994 0.17486 0.0
C861 C 0.57963 0.23923 0.18249 0.0
C862 C 0.55276 0.18593 0.16551 0.0
C863 C 0.52023 0.19053 0.1636 0.0
C864 C 0.51566 0.21676 0.17236 0.0
C865 C 0.54517 0.24094 0.18176 0.0
H866 H 0.81866 0.26805 0.12699 0.0
H867 H 0.92799 0.3784 0.13502 0.0
H868 H 0.79251 0.27479 0.14851 0.0
H869 H 0.90244 0.38448 0.15695 0.0
H870 H 0.81459 0.40918 0.1809 0.0
H871 H 0.85626 0.40054 0.16481 0.0
H872 H 0.79227 0.27422 0.17235 0.0
H873 H 0.74915 0.28305 0.18802 0.0
C874 C 0.83735 0.29355 0.13345 0.0
C875 C 0.87517 0.323 0.12919 0.0
C876 C 0.82253 0.29717 0.14593 0.0
C877 C 0.84532 0.33014 0.15459 0.0
C878 C 0.88379 0.35894 0.1505 0.0
C879 C 0.89845 0.35553 0.13792 0.0
C880 C 0.81041 0.37977 0.17951 0.0
C881 C 0.77843 0.34673 0.18564 0.0
C882 C 0.83441 0.37475 0.17025 0.0
C883 C 0.82707 0.33647 0.16695 0.0
C884 C 0.79807 0.30401 0.17436 0.0
C885 C 0.77383 0.30909 0.1836 0.0
H886 H 0.73013 0.56287 0.13002 0.0
H887 H 0.61501 0.54412 0.13948 0.0
H888 H 0.72894 0.5299 0.15057 0.0
H889 H 0.61445 0.51262 0.16054 0.0
H890 H 0.60467 0.40358 0.182 0.0
H891 H 0.60622 0.45243 0.16715 0.0
H892 H 0.73171 0.52862 0.17418 0.0
H893 H 0.73007 0.47797 0.18853 0.0
C894 C 0.7047 0.55211 0.13661 0.0
C895 C 0.67239 0.55557 0.13301 0.0
C896 C 0.70425 0.53365 0.14855 0.0
C897 C 0.67167 0.5186 0.15736 0.0
C898 C 0.63984 0.52327 0.15395 0.0
C899 C 0.64006 0.54127 0.14186 0.0
C900 C 0.63233 0.43148 0.18078 0.0
C901 C 0.66729 0.43696 0.18637 0.0
C902 C 0.63328 0.45968 0.17223 0.0
C903 C 0.6693 0.49423 0.16911 0.0
C904 C 0.70359 0.50183 0.17604 0.0
C905 C 0.70262 0.47326 0.18454 0.0
H906 H 0.43057 0.08796 0.03577 0.0
H907 H 0.47103 0.18935 0.06302 0.0
H908 H 0.46962 0.13244 0.01752 0.0
H909 H 0.50976 0.23353 0.04481 0.0
H910 H 0.55152 0.3083 1.00913 0.0
H911 H 0.49919 0.25615 0.0226 0.0
H912 H 0.54351 0.17859 0.01277 0.0
H913 H 0.59606 0.23109 0.9992 0.0
C914 C 0.4475 0.11974 0.03784 0.0
C915 C 0.44774 0.1352 0.05085 0.0
C916 C 0.46991 0.14509 0.02739 0.0
C917 C 0.49243 0.1864 0.02971 0.0
C918 C 0.49214 0.20183 0.04266 0.0
C919 C 0.4702 0.17652 0.05312 0.0
C920 C 0.54924 0.2796 1.00946 0.0
C921 C 0.57788 0.2737 1.00319 0.0
C922 C 0.51952 0.24992 0.01726 0.0
C923 C 0.51788 0.21372 0.01899 0.0
C924 C 0.5441 0.20626 0.01161 0.0
C925 C 0.57399 0.23614 1.00374 0.0
H926 H 0.90031 0.41549 0.06211 0.0
H927 H 0.87846 0.29724 0.05387 0.0
H928 H 0.86865 0.41313 0.04096 0.0
H929 H 0.84814 0.29541 0.03233 0.0
H930 H 0.7409 0.28669 1.00987 0.0
H931 H 0.78839 0.28837 0.02547 0.0
H932 H 0.86849 0.41271 0.01697 0.0
H933 H 0.81951 0.41104 1.00167 0.0
C934 C 0.88913 0.38912 0.05569 0.0
C935 C 0.8913 0.35629 0.05978 0.0
C936 C 0.87144 0.38797 0.04342 0.0
C937 C 0.85584 0.35411 0.03483 0.0
C938 C 0.85931 0.32178 0.03874 0.0
C939 C 0.8766 0.32276 0.05111 0.0
C940 C 0.76931 0.31399 1.01094 0.0
C941 C 0.77647 0.34881 1.00465 0.0
C942 C 0.7967 0.31501 0.01991 0.0
C943 C 0.83203 0.35095 0.02278 0.0
C944 C 0.84112 0.38475 0.01525 0.0
C945 C 0.81346 0.3837 1.00626 0.0
H946 H 0.64052 0.56666 0.05713 0.0
H947 H 0.75132 0.57765 0.06774 0.0
H948 H 0.64324 0.5402 0.03487 0.0
H949 H 0.75332 0.54969 0.04581 0.0
H950 H 0.76287 0.51129 1.00561 0.0
H951 H 0.76158 0.55705 0.02241 0.0
H952 H 0.63466 0.48101 0.02517 0.0
H953 H 0.63624 0.43684 1.00784 0.0
C954 C 0.66543 0.56332 0.05471 0.0
C955 C 0.69557 0.57393 0.06424 0.0
C956 C 0.66698 0.54811 0.04194 0.0
C957 C 0.6985 0.54275 0.03844 0.0
C958 C 0.72898 0.55416 0.04794 0.0
C959 C 0.72766 0.56981 0.06063 0.0
C960 C 0.7346 0.50571 1.00932 0.0
C961 C 0.69964 0.47086 1.0054 0.0
C962 C 0.73384 0.53141 0.01915 0.0
C963 C 0.69818 0.52209 0.02554 0.0
C964 C 0.66273 0.48935 0.02052 0.0
C965 C 0.66349 0.46407 1.01047 0.0
H966 H 0.60489 0.90924 0.88832 0.0
H967 H 0.49455 0.90683 0.88984 0.0
H968 H 0.58355 0.86878 0.86745 0.0
H969 H 0.47377 0.86725 0.86887 0.0
H970 H 0.44706 0.80971 0.82906 0.0
H971 H 0.4924 0.86756 0.84306 0.0
H972 H 0.52398 0.79451 0.86511 0.0
H973 H 0.47787 0.73666 0.8514 0.0
C974 C 0.57645 0.90078 0.88406 0.0
C975 C 0.55116 0.91083 0.89079 0.0
C976 C 0.56437 0.87775 0.87211 0.0
C977 C 0.52723 0.86523 0.8665 0.0
C978 C 0.50285 0.87706 0.87286 0.0
C979 C 0.51454 0.89933 0.88494 0.0
C980 C 0.46546 0.80661 0.83636 0.0
C981 C 0.459 0.76885 0.83923 0.0
C982 C 0.49098 0.83957 0.84448 0.0
C983 C 0.51105 0.83524 0.85531 0.0
C984 C 0.50889 0.79869 0.85683 0.0
C985 C 0.48273 0.76561 0.84892 0.0
H986 H 0.09374 0.61712 0.87778 0.0
H987 H 0.14058 0.7399 0.88984 0.0
H988 H 0.13955 0.63837 0.85882 0.0
H989 H 0.18513 0.7614 0.87053 0.0
H990 H 0.29948 0.76948 0.85339 0.0
H991 H 0.24333 0.76201 0.86595 0.0
H992 H 0.16454 0.66968 0.83771 0.0
H993 H 0.22171 0.67684 0.82532 0.0
C994 C 0.11332 0.64869 0.87622 0.0
C995 C 0.11419 0.67678 0.88548 0.0
C996 C 0.13933 0.661 0.86522 0.0
C997 C 0.16644 0.70173 0.86312 0.0
C998 C 0.16535 0.7298 0.87195 0.0
C999 C 0.13982 0.71747 0.88305 0.0
C1000 C 0.27013 0.74902 0.84948 0.0
C1001 C 0.26485 0.72344 0.83851 0.0
C1002 C 0.23769 0.74451 0.85673 0.0
C1003 C 0.19917 0.71429 0.85313 0.0
C1004 C 0.19383 0.69246 0.841 0.0
C1005 C 0.22652 0.69708 0.83371 0.0
H1006 H 0.37582 0.44401 0.86745 0.0
H1007 H 0.34744 0.50777 0.8972 0.0
H1008 H 0.35039 0.46688 0.84954 0.0
H1009 H 0.32231 0.53038 0.87944 0.0
H1010 H 0.35723 0.57727 0.8257 0.0
H1011 H 0.36892 0.53252 0.83891 0.0
H1012 H 0.26635 0.50293 0.86322 0.0
H1013 H 0.25545 0.54837 0.85022 0.0
C1014 C 0.36427 0.46293 0.87017 0.0
C1015 C 0.36377 0.47415 0.88377 0.0
C1016 C 0.3496 0.47586 0.85992 0.0
C1017 C 0.33362 0.49975 0.86309 0.0
C1018 C 0.33345 0.51112 0.87667 0.0
C1019 C 0.3484 0.4986 0.88686 0.0
C1020 C 0.33585 0.55934 0.83333 0.0
C1021 C 0.30571 0.56651 0.83707 0.0
C1022 C 0.34281 0.53402 0.84102 0.0
C1023 C 0.31938 0.5154 0.85242 0.0
C1024 C 0.28557 0.51782 0.85473 0.0
C1025 C 0.27886 0.54327 0.84714 0.0
H1026 H 0.49756 0.92448 0.95942 0.0
H1027 H 0.5864 0.892 0.96086 0.0
H1028 H 0.46159 0.87899 0.97757 0.0
H1029 H 0.55083 0.84712 0.97937 0.0
H1030 H 0.44318 0.72938 0.99419 0.0
H1031 H 0.49069 0.78436 0.98072 0.0
H1032 H 0.45857 0.86212 1.00114 0.0
H1033 H 0.40967 0.80604 0.01454 0.0
C1034 C 0.50972 0.90799 0.96373 0.0
C1035 C 0.54459 0.91144 0.95854 0.0
C1036 C 0.48926 0.88219 0.97427 0.0
C1037 C 0.5032 0.85927 0.97994 0.0
C1038 C 0.53895 0.86393 0.97511 0.0
C1039 C 0.55937 0.88965 0.9645 0.0
C1040 C 0.44656 0.75832 0.99598 0.0
C1041 C 0.42225 0.76324 1.0053 0.0
C1042 C 0.47419 0.79005 0.98831 0.0
C1043 C 0.47834 0.82769 0.98974 0.0
C1044 C 0.45569 0.83331 0.99966 0.0
C1045 C 0.42794 0.80135 1.00742 0.0
H1046 H 0.14973 0.67871 0.95186 0.0
H1047 H 0.07611 0.6955 0.98054 0.0
H1048 H 0.18118 0.66558 0.97032 0.0
H1049 H 0.10865 0.683 0.99917 0.0
H1050 H 0.19768 0.59878 1.00171 0.0
H1051 H 0.15076 0.60606 0.98814 0.0
H1052 H 0.18689 0.71839 1.0083 0.0
H1053 H 0.23421 0.71103 0.02189 0.0
C1054 C 0.14057 0.68015 0.96211 0.0
C1055 C 0.11031 0.6881 0.9647 0.0
C1056 C 0.15836 0.67223 0.97268 0.0
C1057 C 0.14682 0.67263 0.98613 0.0
C1058 C 0.11779 0.68222 0.98887 0.0
C1059 C 0.09934 0.68946 0.97821 0.0
C1060 C 0.19396 0.62388 1.00378 0.0
C1061 C 0.2191 0.65411 0.01292 0.0
C1062 C 0.16754 0.62832 0.9959 0.0
C1063 C 0.16581 0.66311 0.99703 0.0
C1064 C 0.18765 0.69127 1.00728 0.0
C1065 C 0.21436 0.68686 0.01515 0.0
H1066 H 0.40583 0.48947 0.96335 0.0
H1067 H 0.27893 0.43263 0.96374 0.0
H1068 H 0.40951 0.5205 0.9853 0.0
H1069 H 0.28239 0.46546 0.98525 0.0
H1070 H 0.28674 0.52048 0.02355 0.0
H1071 H 0.29318 0.47464 1.00823 0.0
H1072 H 0.40487 0.57239 0.99428 0.0
H1073 H 0.39926 0.61691 1.01029 0.0
C1074 C 0.37868 0.48379 0.96813 0.0
C1075 C 0.34209 0.45904 0.96175 0.0
C1076 C 0.38077 0.50166 0.98074 0.0
C1077 C 0.34635 0.49596 0.98717 0.0
C1078 C 0.30963 0.47014 0.98088 0.0
C1079 C 0.30753 0.45159 0.96841 0.0
C1080 C 0.31377 0.53139 0.0178 0.0
C1081 C 0.34257 0.57209 0.01811 0.0
C1082 C 0.31707 0.5054 1.00873 0.0
C1083 C 0.3487 0.51993 0.99951 0.0
C1084 C 0.37993 0.55975 1.00111 0.0
C1085 C 0.37702 0.58547 1.01044 0.0
H1086 H 0.09976 0.47808 0.46342 0.0
H1087 H 0.19078 0.4485 0.46248 0.0
H1088 H 0.1264 0.51532 0.4845 0.0
H1089 H 0.21854 0.48713 0.48328 0.0
H1090 H 0.22671 0.62752 0.50729 0.0
H1091 H 0.18148 0.57653 0.49133 0.0
H1092 H 0.21329 0.49474 0.50683 0.0
H1093 H 0.25995 0.54693 0.52234 0.0
C1094 C 0.12561 0.47965 0.4677 0.0
C1095 C 0.14351 0.46074 0.46117 0.0
C1096 C 0.14089 0.50104 0.47981 0.0
C1097 C 0.17475 0.50448 0.48565 0.0
C1098 C 0.192 0.48462 0.47928 0.0
C1099 C 0.17639 0.4628 0.46723 0.0
C1100 C 0.22241 0.59797 0.50772 0.0
C1101 C 0.24628 0.59082 0.51609 0.0
C1102 C 0.19668 0.56868 0.49849 0.0
C1103 C 0.19434 0.53165 0.49753 0.0
C1104 C 0.21511 0.52323 0.50702 0.0
C1105 C 0.24119 0.55275 0.51613 0.0
H1106 H 0.59106 0.70893 0.46476 0.0
H1107 H 0.47821 0.60307 0.45623 0.0
H1108 H 0.56638 0.71634 0.48668 0.0
H1109 H 0.45304 0.61122 0.47778 0.0
H1110 H 0.4125 0.62173 0.51786 0.0
H1111 H 0.45278 0.60986 0.50176 0.0
H1112 H 0.52261 0.73614 0.49436 0.0
H1113 H 0.4836 0.7477 0.5108 0.0
C1114 C 0.56094 0.68733 0.46754 0.0
C1115 C 0.53643 0.65571 0.45868 0.0
C1116 C 0.54678 0.69151 0.48013 0.0
C1117 C 0.50764 0.66441 0.48407 0.0
C1118 C 0.48356 0.63225 0.47529 0.0
C1119 C 0.49784 0.62786 0.4628 0.0
C1120 C 0.43776 0.64699 0.51332 0.0
C1121 C 0.44487 0.68557 0.51554 0.0
C1122 C 0.4604 0.64021 0.50387 0.0
C1123 C 0.49037 0.67192 0.49645 0.0
C1124 C 0.49997 0.71091 0.49982 0.0
C1125 C 0.47751 0.7176 0.50927 0.0
H1126 H 0.41578 0.95248 0.47296 0.0
H1127 H 0.2936 0.86057 0.46728 0.0
H1128 H 0.41683 0.92422 0.49446 0.0
H1129 H 0.29496 0.83099 0.48846 0.0
H1130 H 0.29655 0.78031 0.52627 0.0
H1131 H 0.29896 0.83153 0.5121 0.0
H1132 H 0.41904 0.8686 0.50098 0.0
H1133 H 0.41679 0.8188 0.51569 0.0
C1134 C 0.38906 0.92619 0.47634 0.0
C1135 C 0.35473 0.90833 0.46834 0.0
C1136 C 0.38969 0.90996 0.48867 0.0
C1137 C 0.35617 0.87504 0.49323 0.0
C1138 C 0.32126 0.85826 0.48547 0.0
C1139 C 0.32048 0.87493 0.47322 0.0
C1140 C 0.32413 0.80111 0.5214 0.0
C1141 C 0.35661 0.79604 0.52212 0.0
C1142 C 0.32531 0.8299 0.51305 0.0
C1143 C 0.3587 0.85341 0.505 0.0
C1144 C 0.39277 0.85126 0.507 0.0
C1145 C 0.39173 0.82287 0.51555 0.0
H1146 H 0.12417 0.49452 0.3877 0.0
H1147 H 0.16363 0.41065 0.38936 0.0
H1148 H 0.16237 0.52164 0.36701 0.0
H1149 H 0.2008 0.43693 0.36859 0.0
H1150 H 0.31306 0.54912 0.35067 0.0
H1151 H 0.26092 0.49895 0.36457 0.0
H1152 H 0.17479 0.5132 0.34304 0.0
H1153 H 0.22763 0.56388 0.32909 0.0
C1154 C 0.14042 0.48145 0.38353 0.0
C1155 C 0.14158 0.45109 0.39034 0.0
C1156 C 0.16197 0.49664 0.37158 0.0
C1157 C 0.18486 0.48156 0.36617 0.0
C1158 C 0.18399 0.4496 0.37258 0.0
C1159 C 0.16275 0.43466 0.38453 0.0
C1160 C 0.28275 0.54 0.34844 0.0
C1161 C 0.27436 0.56054 0.33893 0.0
C1162 C 0.25274 0.51133 0.35646 0.0
C1163 C 0.21375 0.50281 0.35516 0.0
C1164 C 0.20469 0.51977 0.34447 0.0
C1165 C 0.23482 0.54826 0.33631 0.0
H1166 H 0.60952 0.76851 0.38971 0.0
H1167 H 0.52298 0.64272 0.38661 0.0
H1168 H 0.58327 0.77987 0.36934 0.0
H1169 H 0.49601 0.65428 0.36632 0.0
H1170 H 0.45559 0.67789 0.32862 0.0
H1171 H 0.50481 0.67522 0.34258 0.0
H1172 H 0.52273 0.77857 0.36534 0.0
H1173 H 0.47395 0.78101 0.35144 0.0
C1174 C 0.5849 0.74318 0.38466 0.0
C1175 C 0.56784 0.70474 0.38993 0.0
C1176 C 0.56997 0.74975 0.37294 0.0
C1177 C 0.53744 0.71809 0.36621 0.0
C1178 C 0.52146 0.67932 0.37113 0.0
C1179 C 0.53658 0.6727 0.38286 0.0
C1180 C 0.47174 0.70128 0.33612 0.0
C1181 C 0.46093 0.72953 0.33904 0.0
C1182 C 0.49936 0.69931 0.34428 0.0
C1183 C 0.51691 0.72601 0.35531 0.0
C1184 C 0.50985 0.75748 0.35697 0.0
C1185 C 0.48203 0.75912 0.34894 0.0
H1186 H 0.27749 0.86137 0.39772 0.0
H1187 H 0.39904 0.91555 0.38505 0.0
H1188 H 0.25651 0.81793 0.37776 0.0
H1189 H 0.37839 0.87067 0.36537 0.0
H1190 H 0.33948 0.79313 0.32971 0.0
H1191 H 0.34568 0.8476 0.34409 0.0
H1192 H 0.25855 0.76162 0.37132 0.0
H1193 H 0.25177 0.70805 0.3568 0.0
C1194 C 0.2998 0.86375 0.3907 0.0
C1195 C 0.34003 0.89127 0.39309 0.0
C1196 C 0.28774 0.83892 0.37921 0.0
C1197 C 0.31567 0.8404 0.36994 0.0
C1198 C 0.35588 0.86899 0.37213 0.0
C1199 C 0.36787 0.89437 0.38352 0.0
C1200 C 0.32022 0.7861 0.33839 0.0
C1201 C 0.29566 0.74647 0.34231 0.0
C1202 C 0.32429 0.81727 0.34679 0.0
C1203 C 0.30368 0.8091 0.35914 0.0
C1204 C 0.27511 0.76935 0.36197 0.0
C1205 C 0.27108 0.73841 0.3536 0.0
H1206 H 0.27894 0.0122 0.12266 0.0
H1207 H 0.31923 0.11912 0.09997 0.0
H1208 H 0.22508 0.01837 0.13194 0.0
H1209 H 0.26668 0.12665 0.10976 0.0
H1210 H 0.13491 0.08733 0.11267 0.0
H1211 H 0.19885 0.09672 0.10719 0.0
H1212 H 0.20295 0.05186 0.14627 0.0
H1213 H 0.13725 0.04031 0.15138 0.0
C1214 C 0.27648 0.03727 0.11977 0.0
C1215 C 0.30283 0.06474 0.1104 0.0
C1216 C 0.2459 0.04118 0.12524 0.0
C1217 C 0.24134 0.07305 0.12163 0.0
C1218 C 0.26871 0.1013 0.11259 0.0
C1219 C 0.29885 0.09698 0.10695 0.0
C1220 C 0.14997 0.08052 0.12025 0.0
C1221 C 0.13111 0.06304 0.13244 0.0
C1222 C 0.18687 0.08606 0.11714 0.0
C1223 C 0.20603 0.07447 0.12619 0.0
C1224 C 0.18868 0.06033 0.13894 0.0
C1225 C 0.15142 0.0545 0.14202 0.0
H1226 H 0.90768 0.20871 0.09813 0.0
H1227 H -0.00444 0.27234 0.12914 0.0
H1228 H 0.90015 0.1463 0.10539 0.0
H1229 H 0.9893 0.21021 0.13606 0.0
H1230 H 0.96114 0.0919 0.15068 0.0
H1231 H 0.94999 0.14642 0.14625 0.0
H1232 H 0.93767 0.11564 0.10362 0.0
H1233 H 0.94723 0.06097 0.10809 0.0
C1234 C 0.92559 0.20939 0.10644 0.0
C1235 C 0.9526 0.24552 0.11294 0.0
C1236 C 0.92126 0.17359 0.11063 0.0
C1237 C 0.94424 0.17312 0.12129 0.0
C1238 C 0.97062 0.20924 0.12797 0.0
C1239 C 0.9746 0.24499 0.12389 0.0
C1240 C 0.9548 0.09612 0.14044 0.0
C1241 C 0.95558 0.07248 0.12971 0.0
C1242 C 0.94891 0.12766 0.13787 0.0
C1243 C 0.94361 0.13594 0.12454 0.0
C1244 C 0.94137 0.1102 0.11402 0.0
C1245 C 0.94715 0.07886 0.11658 0.0
H1246 H 0.78487 0.75072 0.08461 0.0
H1247 H 0.74824 0.69561 0.12359 0.0
H1248 H 0.84648 0.80323 0.09452 0.0
H1249 H 0.81048 0.74747 0.13343 0.0
H1250 H 0.90406 0.87856 0.14723 0.0
H1251 H 0.84546 0.81673 0.13965 0.0
H1252 H 0.9075 0.81593 0.10349 0.0
H1253 H 0.96518 0.87848 0.11085 0.0
C1254 C 0.79004 0.74972 0.09528 0.0
C1255 C 0.76156 0.71909 0.1033 0.0
C1256 C 0.8256 0.77958 0.10096 0.0
C1257 C 0.83376 0.77935 0.11477 0.0
C1258 C 0.80514 0.74875 0.1228 0.0
C1259 C 0.76943 0.71901 0.11714 0.0
C1260 C 0.90552 0.86431 0.13791 0.0
C1261 C 0.93886 0.88339 0.12954 0.0
C1262 C 0.87188 0.82897 0.1335 0.0
C1263 C 0.87135 0.812 0.12074 0.0
C1264 C 0.9064 0.82893 0.11314 0.0
C1265 C 0.93967 0.86443 0.11744 0.0
H1266 H 0.07177 0.32403 0.40317 0.0
H1267 H 0.04627 0.26763 0.442 0.0
H1268 H 0.07719 0.26997 0.39311 0.0
H1269 H 0.05044 0.21277 0.43182 0.0
H1270 H 0.08918 0.13422 0.41438 0.0
H1271 H 0.09666 0.19675 0.42252 0.0
H1272 H 0.03772 0.20109 0.38667 0.0
H1273 H 0.03148 0.13906 0.37836 0.0
C1274 C 0.06694 0.29988 0.40956 0.0
C1275 C 0.05848 0.30011 0.42342 0.0
C1276 C 0.07003 0.26883 0.40375 0.0
C1277 C 0.06455 0.2371 0.41164 0.0
C1278 C 0.05573 0.23717 0.42549 0.0
C1279 C 0.05291 0.26841 0.43132 0.0
C1280 C 0.07893 0.14923 0.40806 0.0
C1281 C 0.05949 0.13168 0.3958 0.0
C1282 C 0.0827 0.18476 0.4128 0.0
C1283 C 0.06671 0.20334 0.40546 0.0
C1284 C 0.05033 0.18758 0.39262 0.0
C1285 C 0.04693 0.15211 0.38779 0.0
H1286 H 0.69737 0.75141 0.39922 0.0
H1287 H 0.73998 0.80446 0.43877 0.0
H1288 H 0.7514 0.81019 0.38876 0.0
H1289 H 0.7953 0.86234 0.42843 0.0
H1290 H 0.87758 0.97443 0.40925 0.0
H1291 H 0.81382 0.91943 0.41642 0.0
H1292 H 0.81905 0.84488 0.38456 0.0
H1293 H 0.88157 0.90103 0.37693 0.0
C1294 C 0.71875 0.77541 0.40569 0.0
C1295 C 0.71458 0.77328 0.41984 0.0
C1296 C 0.74978 0.8092 0.39968 0.0
C1297 C 0.77775 0.84145 0.40768 0.0
C1298 C 0.77382 0.83877 0.42187 0.0
C1299 C 0.7424 0.80531 0.42785 0.0
C1300 C 0.86417 0.94666 0.40349 0.0
C1301 C 0.88433 0.94179 0.39258 0.0
C1302 C 0.82801 0.91485 0.40774 0.0
C1303 C 0.81179 0.87711 0.40142 0.0
C1304 C 0.83046 0.87335 0.38973 0.0
C1305 C 0.86627 0.90559 0.38528 0.0
H1306 H 0.25365 0.94927 0.38908 0.0
H1307 H 0.22689 0.96279 0.43061 0.0
H1308 H 0.19276 0.94431 0.3818 0.0
H1309 H 0.16668 0.95946 0.4233 0.0
H1310 H 0.04721 0.92451 0.40949 0.0
H1311 H 0.10256 0.9162 0.41456 0.0
H1312 H 0.16363 0.98326 0.37914 0.0
H1313 H 0.10754 0.99014 0.37387 0.0
C1314 C 0.23494 0.95161 0.39666 0.0
C1315 C 0.24517 0.95658 0.41044 0.0
C1316 C 0.19999 0.9488 0.39247 0.0
C1317 C 0.17457 0.95127 0.40194 0.0
C1318 C 0.18502 0.95651 0.41573 0.0
C1319 C 0.21979 0.95888 0.41993 0.0
C1320 C 0.07203 0.93641 0.40259 0.0
C1321 C 0.07315 0.95803 0.39131 0.0
C1322 C 0.104 0.93216 0.40558 0.0
C1323 C 0.1381 0.94999 0.39748 0.0
C1324 C 0.13789 0.96901 0.38561 0.0
C1325 C 0.1056 0.97281 0.38252 0.0
H1326 H 0.75256 0.02223 0.9323 0.0
H1327 H 0.73333 0.01583 0.88921 0.0
H1328 H 0.81928 0.03591 0.92833 0.0
H1329 H 0.79911 0.02732 0.88518 0.0
H1330 H 0.92977 0.0732 0.88133 0.0
H1331 H 0.86793 0.0712 0.8858 0.0
H1332 H 0.85008 0.00172 0.92135 0.0
H1333 H 0.91206 0.00527 0.91715 0.0
C1334 C 0.76258 0.02359 0.92198 0.0
C1335 C 0.73764 0.01771 0.91108 0.0
C1336 C 0.80077 0.03121 0.91967 0.0
C1337 C 0.81466 0.03233 0.90641 0.0
C1338 C 0.78985 0.02729 0.89552 0.0
C1339 C 0.75192 0.02036 0.89784 0.0
C1340 C 0.91263 0.05774 0.8901 0.0
C1341 C 0.92583 0.03939 0.89883 0.0
C1342 C 0.87709 0.05643 0.89268 0.0
C1343 C 0.85379 0.0363 0.90398 0.0
C1344 C 0.86742 0.01832 0.91274 0.0
C1345 C 0.90302 0.02012 0.91026 0.0
H1346 H 0.01807 0.76221 0.93019 0.0
H1347 H 0.01239 0.73425 0.88748 0.0
H1348 H 0.00825 0.81699 0.92532 0.0
H1349 H 0.00415 0.79013 0.88255 0.0
H1350 H 0.96912 0.8857 0.87954 0.0
H1351 H 0.96521 0.82238 0.884 0.0
H1352 H 0.05128 0.88038 0.91596 0.0
H1353 H 0.05451 0.94215 0.91174 0.0
C1354 C 0.01452 0.76764 0.91976 0.0
C1355 C 0.01659 0.74428 0.90922 0.0
C1356 C 0.00907 0.79916 0.91695 0.0
C1357 C 0.00624 0.80851 0.90351 0.0
C1358 C 0.00608 0.78372 0.893 0.0
C1359 C 0.01105 0.75182 0.89584 0.0
C1360 C 0.98716 0.88468 0.88746 0.0
C1361 C 0.01185 0.91886 0.89532 0.0
C1362 C 0.9849 0.8485 0.89005 0.0
C1363 C 0.00738 0.84608 0.90054 0.0
C1364 C 0.03255 0.88063 0.90812 0.0
C1365 C 0.03461 0.91631 0.9056 0.0
H1366 H 0.31781 0.30589 0.91702 0.0
H1367 H 0.24368 0.34062 0.89729 0.0
H1368 H 0.27372 0.23713 0.90934 0.0
H1369 H 0.19957 0.27203 0.88979 0.0
H1370 H 0.13474 0.14899 0.87188 0.0
H1371 H 0.19244 0.21619 0.87517 0.0
H1372 H 0.20617 0.18649 0.9157 0.0
H1373 H 0.14921 0.11995 0.91238 0.0
C1374 C 0.29222 0.29891 0.91102 0.0
C1375 C 0.28399 0.32865 0.90792 0.0
C1376 C 0.26703 0.25956 0.9066 0.0
C1377 C 0.23322 0.24915 0.89892 0.0
C1378 C 0.22569 0.27914 0.89549 0.0
C1379 C 0.25073 0.3184 0.89996 0.0
C1380 C 0.15097 0.15657 0.8813 0.0
C1381 C 0.1374 0.12952 0.89192 0.0
C1382 C 0.18369 0.19507 0.88324 0.0
C1383 C 0.20355 0.20678 0.89576 0.0
C1384 C 0.19176 0.17846 0.90592 0.0
C1385 C 0.15897 0.14035 0.90404 0.0
H1386 H 0.94847 0.70893 0.62394 0.0
H1387 H 0.93395 0.75019 0.58563 0.0
H1388 H 0.94512 0.76229 0.63564 0.0
H1389 H 0.93305 0.8051 0.59715 0.0
H1390 H 0.91157 0.89003 0.61889 0.0
H1391 H 0.8985 0.82535 0.61069 0.0
H1392 H 0.98079 0.82997 0.64016 0.0
H1393 H 0.99143 0.89323 0.64886 0.0
C1394 C 0.94507 0.7298 0.61801 0.0
C1395 C 0.94171 0.72558 0.60385 0.0
C1396 C 0.94319 0.7605 0.62472 0.0
C1397 C 0.93869 0.78823 0.61743 0.0
C1398 C 0.93548 0.78389 0.60322 0.0
C1399 C 0.93652 0.75268 0.59654 0.0
C1400 C 0.92563 0.87634 0.62391 0.0
C1401 C 0.9526 0.89657 0.63444 0.0
C1402 C 0.91875 0.8396 0.61907 0.0
C1403 C 0.9396 0.82284 0.62441 0.0
C1404 C 0.96405 0.84166 0.63575 0.0
C1405 C 0.97015 0.878 0.64081 0.0
H1406 H 0.3239 0.2628 0.62014 0.0
H1407 H 0.26431 0.2091 0.58238 0.0
H1408 H 0.27216 0.20639 0.63235 0.0
H1409 H 0.21184 0.15343 0.59459 0.0
H1410 H 0.13379 0.04437 0.6162 0.0
H1411 H 0.19614 0.09623 0.60686 0.0
H1412 H 0.20508 0.1769 0.63906 0.0
H1413 H 0.14348 0.12406 0.64871 0.0
C1414 C 0.29955 0.23908 0.61444 0.0
C1415 C 0.29816 0.2405 0.60027 0.0
C1416 C 0.26984 0.20671 0.62147 0.0
C1417 C 0.23785 0.17506 0.6145 0.0
C1418 C 0.23646 0.17669 0.60031 0.0
C1419 C 0.26635 0.20888 0.59328 0.0
C1420 C 0.14994 0.07277 0.62154 0.0
C1421 C 0.13382 0.08036 0.63311 0.0
C1422 C 0.18534 0.10274 0.61608 0.0
C1423 C 0.20503 0.14125 0.62191 0.0
C1424 C 0.19075 0.14769 0.63424 0.0
C1425 C 0.15553 0.11734 0.63985 0.0
H1426 H 0.8146 0.08239 0.59295 0.0
H1427 H 0.76984 0.0818 0.63301 0.0
H1428 H 0.87282 0.08667 0.60275 0.0
H1429 H 0.82883 0.0879 0.64287 0.0
H1430 H 0.91346 0.04274 0.65357 0.0
H1431 H 0.8595 0.0513 0.64659 0.0
H1432 H 0.93222 0.12721 0.61433 0.0
H1433 H 0.98513 0.11669 0.62095 0.0
C1434 C 0.8174 0.08356 0.60386 0.0
C1435 C 0.78745 0.0814 0.61218 0.0
C1436 C 0.85104 0.08649 0.60952 0.0
C1437 C 0.85589 0.08796 0.62367 0.0
C1438 C 0.82604 0.08634 0.63197 0.0
C1439 C 0.79217 0.08289 0.6263 0.0
C1440 C 0.9183 0.06238 0.6453 0.0
C1441 C 0.95326 0.07879 0.63773 0.0
C1442 C 0.88726 0.06718 0.64122 0.0
C1443 C 0.89095 0.08902 0.6296 0.0
C1444 C 0.9277 0.10898 0.623 0.0
C1445 C 0.95833 0.10356 0.62693 0.0
H1446 H 0.95167 0.41261 0.42671 0.0
H1447 H 0.98732 0.41111 0.46767 0.0
H1448 H 0.89663 0.41795 0.43527 0.0
H1449 H 0.93332 0.41808 0.47627 0.0
H1450 H 0.79938 0.37089 0.48384 0.0
H1451 H 0.86389 0.38033 0.47846 0.0
H1452 H 0.87753 0.45931 0.44633 0.0
H1453 H 0.8122 0.44815 0.4514 0.0
C1454 C 0.94797 0.41383 0.43754 0.0
C1455 C 0.97361 0.41105 0.44649 0.0
C1456 C 0.91666 0.41736 0.44249 0.0
C1457 C 0.91055 0.41872 0.45651 0.0
C1458 C 0.93673 0.41664 0.46544 0.0
C1459 C 0.96776 0.41267 0.46049 0.0
C1460 C 0.81695 0.39153 0.47601 0.0
C1461 C 0.8009 0.40869 0.46799 0.0
C1462 C 0.85389 0.3968 0.47283 0.0
C1463 C 0.87554 0.41972 0.46168 0.0
C1464 C 0.86114 0.44038 0.45468 0.0
C1465 C 0.82403 0.43459 0.45772 0.0
H1466 H 0.65267 0.60192 0.45885 0.0
H1467 H 0.5637 0.53533 0.42842 0.0
H1468 H 0.64645 0.54073 0.46665 0.0
H1469 H 0.55628 0.47361 0.43657 0.0
H1470 H 0.62319 0.42643 0.48254 0.0
H1471 H 0.60845 0.47828 0.47759 0.0
H1472 H 0.59388 0.44292 0.43533 0.0
H1473 H 0.60707 0.39092 0.44036 0.0
C1474 C 0.63141 0.5741 0.45392 0.0
C1475 C 0.60914 0.57357 0.44287 0.0
C1476 C 0.62744 0.53884 0.45852 0.0
C1477 C 0.60082 0.50204 0.45227 0.0
C1478 C 0.5775 0.50142 0.44151 0.0
C1479 C 0.58177 0.5368 0.43681 0.0
C1480 C 0.61536 0.42893 0.47231 0.0
C1481 C 0.61682 0.40505 0.46181 0.0
C1482 C 0.60746 0.45895 0.46942 0.0
C1483 C 0.60079 0.46544 0.456 0.0
C1484 C 0.59868 0.43895 0.44578 0.0
C1485 C 0.60651 0.40914 0.44866 0.0
H1486 H 0.4395 0.02758 0.44913 0.0
H1487 H 0.45384 0.09828 0.41428 0.0
H1488 H 0.50225 0.08066 0.45812 0.0
H1489 H 0.51648 0.15176 0.42344 0.0
H1490 H 0.63948 0.23121 0.43696 0.0
H1491 H 0.58396 0.16862 0.42853 0.0
H1492 H 0.52864 0.14788 0.4678 0.0
H1493 H 0.58466 0.2104 0.47632 0.0
C1494 C 0.45609 0.05437 0.44333 0.0
C1495 C 0.44156 0.05868 0.43095 0.0
C1496 C 0.49203 0.08486 0.44855 0.0
C1497 C 0.51443 0.12034 0.4415 0.0
C1498 C 0.50022 0.12447 0.42903 0.0
C1499 C 0.46416 0.09398 0.42382 0.0
C1500 C 0.616 0.21271 0.44391 0.0
C1501 C 0.61612 0.22595 0.45725 0.0
C1502 C 0.58401 0.17707 0.43903 0.0
C1503 C 0.55143 0.1539 0.44738 0.0
C1504 C 0.55327 0.16516 0.4611 0.0
C1505 C 0.58546 0.2009 0.46601 0.0
H1506 H 0.74808 0.65999 0.74112 0.0
H1507 H 0.73492 0.6038 0.77939 0.0
H1508 H 0.75214 0.60687 0.72958 0.0
H1509 H 0.73652 0.54927 0.76784 0.0
H1510 H 0.76603 0.46786 0.7475 0.0
H1511 H 0.77652 0.53051 0.75685 0.0
H1512 H 0.71599 0.54076 0.72247 0.0
H1513 H 0.70818 0.47947 0.71277 0.0
C1514 C 0.74536 0.63584 0.74704 0.0
C1515 C 0.741 0.63591 0.76117 0.0
C1516 C 0.74768 0.60531 0.74041 0.0
C1517 C 0.74498 0.5737 0.74772 0.0
C1518 C 0.73988 0.57357 0.76186 0.0
C1519 C 0.73839 0.60455 0.76851 0.0
C1520 C 0.75629 0.4844 0.74175 0.0
C1521 C 0.73623 0.46898 0.72947 0.0
C1522 C 0.76162 0.51994 0.74721 0.0
C1523 C 0.74593 0.54019 0.74068 0.0
C1524 C 0.72858 0.5262 0.72783 0.0
C1525 C 0.72416 0.49108 0.72221 0.0
H1526 H 0.37517 0.09747 0.73413 0.0
H1527 H 0.40918 0.18012 0.76798 0.0
H1528 H 0.42744 0.14922 0.7205 0.0
H1529 H 0.46277 0.23118 0.75474 0.0
H1530 H 0.54732 0.32612 0.7296 0.0
H1531 H 0.48169 0.27594 0.73738 0.0
H1532 H 0.49537 0.18424 0.71764 0.0
H1533 H 0.55952 0.23502 0.70915 0.0
C1534 C 0.39424 0.1266 0.73871 0.0
C1535 C 0.38835 0.13473 0.75215 0.0
C1536 C 0.42421 0.15635 0.73088 0.0
C1537 C 0.44942 0.19471 0.73641 0.0
C1538 C 0.44343 0.20251 0.74992 0.0
C1539 C 0.41302 0.17303 0.75764 0.0
C1540 C 0.53515 0.29539 0.72637 0.0
C1541 C 0.55799 0.28424 0.71872 0.0
C1542 C 0.49796 0.26646 0.73106 0.0
C1543 C 0.48363 0.22573 0.72858 0.0
C1544 C 0.50512 0.21514 0.71978 0.0
C1545 C 0.5419 0.24426 0.71482 0.0
H1546 H 0.92536 0.28569 0.72619 0.0
H1547 H 0.88727 0.29479 0.76652 0.0
H1548 H 0.86668 0.28133 0.71682 0.0
H1549 H 0.82923 0.29191 0.75712 0.0
H1550 H 0.71376 0.25645 0.73971 0.0
H1551 H 0.76784 0.24777 0.74637 0.0
H1552 H 0.83769 0.32039 0.71307 0.0
H1553 H 0.78285 0.32766 0.70617 0.0
C1554 C 0.90466 0.28723 0.73306 0.0
C1555 C 0.91101 0.29067 0.74712 0.0
C1556 C 0.87099 0.28472 0.72767 0.0
C1557 C 0.84297 0.28588 0.73619 0.0
C1558 C 0.84966 0.28991 0.75025 0.0
C1559 C 0.88319 0.29206 0.75566 0.0
C1560 C 0.74024 0.26939 0.73356 0.0
C1561 C 0.74427 0.29285 0.72247 0.0
C1562 C 0.77144 0.26495 0.73749 0.0
C1563 C 0.80758 0.2844 0.73052 0.0
C1564 C 0.81032 0.30499 0.71869 0.0
C1565 C 0.7788 0.30898 0.71466 0.0
H1566 H 0.40007 0.28291 0.26486 0.0
H1567 H 0.36297 0.27957 0.22375 0.0
H1568 H 0.45534 0.27753 0.25662 0.0
H1569 H 0.41692 0.27208 0.21545 0.0
H1570 H 0.54886 0.31609 0.20669 0.0
H1571 H 0.48519 0.30813 0.21246 0.0
H1572 H 0.47605 0.23709 0.24665 0.0
H1573 H 0.54079 0.24728 0.24121 0.0
C1574 C 0.4035 0.28054 0.25406 0.0
C1575 C 0.37746 0.2821 0.24497 0.0
C1576 C 0.43496 0.27699 0.24929 0.0
C1577 C 0.44071 0.27414 0.23531 0.0
C1578 C 0.41398 0.27483 0.22625 0.0
C1579 C 0.38293 0.27906 0.23102 0.0
C1580 C 0.5325 0.29764 0.21514 0.0
C1581 C 0.54967 0.28245 0.22355 0.0
C1582 C 0.49599 0.29316 0.21853 0.0
C1583 C 0.47574 0.27281 0.23028 0.0
C1584 C 0.49133 0.25416 0.23783 0.0
C1585 C 0.52811 0.25937 0.2346 0.0
H1586 H 0.68156 0.07319 0.2318 0.0
H1587 H 0.77974 0.14221 0.2589 0.0
H1588 H 0.6864 0.13391 0.22412 0.0
H1589 H 0.78594 0.20333 0.25077 0.0
H1590 H 0.74443 0.29324 0.24723 0.0
H1591 H 0.75338 0.23858 0.25264 0.0
H1592 H 0.72191 0.1927 0.21164 0.0
H1593 H 0.71051 0.24656 0.20654 0.0
C1594 C 0.70441 0.10144 0.23605 0.0
C1595 C 0.72994 0.10287 0.24608 0.0
C1596 C 0.70758 0.1364 0.2315 0.0
C1597 C 0.73674 0.17378 0.23674 0.0
C1598 C 0.76275 0.17515 0.24663 0.0
C1599 C 0.75919 0.14009 0.25132 0.0
C1600 C 0.74035 0.27201 0.23927 0.0
C1601 C 0.72684 0.27422 0.22644 0.0
C1602 C 0.74567 0.24063 0.24235 0.0
C1603 C 0.73783 0.21069 0.23265 0.0
C1604 C 0.72743 0.21474 0.21946 0.0
C1605 C 0.72177 0.24612 0.2164 0.0
H1606 H 0.90931 0.618 0.26176 0.0
H1607 H 0.88237 0.67745 0.23128 0.0
H1608 H 0.85139 0.55448 0.25486 0.0
H1609 H 0.82481 0.61362 0.22423 0.0
H1610 H 0.76245 0.47603 0.20806 0.0
H1611 H 0.81452 0.54452 0.2138 0.0
H1612 H 0.77468 0.52697 0.25521 0.0
H1613 H 0.72213 0.4595 0.24947 0.0
C1614 C 0.89104 0.61748 0.2536 0.0
C1615 C 0.90021 0.65268 0.24712 0.0
C1616 C 0.85788 0.58123 0.24969 0.0
C1617 C 0.83368 0.57934 0.23905 0.0
C1618 C 0.84306 0.61438 0.23244 0.0
C1619 C 0.87582 0.65082 0.23654 0.0
C1620 C 0.76383 0.48736 0.21823 0.0
C1621 C 0.73809 0.46239 0.22827 0.0
C1622 C 0.79384 0.52636 0.22155 0.0
C1623 C 0.79882 0.54063 0.23499 0.0
C1624 C 0.77177 0.51643 0.24483 0.0
C1625 C 0.74162 0.47786 0.2415 0.0
H1626 H 0.53682 0.05401 0.92454 0.0
H1627 H 0.64796 0.09021 0.944 0.0
H1628 H 0.53463 0.10827 0.93628 0.0
H1629 H 0.64623 0.14464 0.95541 0.0
H1630 H 0.63339 0.23065 0.9797 0.0
H1631 H 0.61405 0.16308 0.97243 0.0
H1632 H 0.57004 0.17962 0.9349 0.0
H1633 H 0.58787 0.24619 0.94243 0.0
C1634 C 0.56084 0.0736 0.93127 0.0
C1635 C 0.59273 0.06799 0.93324 0.0
C1636 C 0.55949 0.10457 0.93804 0.0
C1637 C 0.59005 0.13061 0.94689 0.0
C1638 C 0.62169 0.12463 0.94893 0.0
C1639 C 0.62298 0.09371 0.94222 0.0
C1640 C 0.61771 0.21903 0.97023 0.0
C1641 C 0.61229 0.24364 0.9616 0.0
C1642 C 0.6073 0.1806 0.96593 0.0
C1643 C 0.59146 0.16635 0.95293 0.0
C1644 C 0.58216 0.18953 0.94496 0.0
C1645 C 0.59249 0.2278 0.94926 0.0
H1646 H 0.95428 0.5554 0.92183 0.0
H1647 H 0.02016 0.55701 0.95659 0.0
H1648 H 0.89532 0.497 0.93054 0.0
H1649 H 0.96072 0.49877 0.96542 0.0
H1650 H 0.82449 0.44486 0.98079 0.0
H1651 H 0.89295 0.48998 0.97381 0.0
H1652 H 0.87029 0.42369 0.93622 0.0
H1653 H 0.80237 0.37845 0.94323 0.0
C1654 C 0.95626 0.54295 0.93123 0.0
C1655 C 0.99176 0.5607 0.93851 0.0
C1656 C 0.92261 0.50943 0.93619 0.0
C1657 C 0.92361 0.49337 0.94863 0.0
C1658 C 0.95927 0.5106 0.95581 0.0
C1659 C 0.99321 0.54373 0.95071 0.0
C1660 C 0.83473 0.4388 0.97136 0.0
C1661 C 0.80815 0.40838 0.96252 0.0
C1662 C 0.8738 0.46477 0.96731 0.0
C1663 C 0.88651 0.46065 0.95437 0.0
C1664 C 0.86099 0.42782 0.94615 0.0
C1665 C 0.82221 0.40188 0.9502 0.0
H1666 H 0.44714 0.39152 0.95578 0.0
H1667 H 0.51182 0.4886 0.92837 0.0
H1668 H 0.50858 0.40214 0.96474 0.0
H1669 H 0.57394 0.50039 0.93775 0.0
H1670 H 0.66214 0.45548 0.94222 0.0
H1671 H 0.61055 0.46846 0.93663 0.0
H1672 H 0.56669 0.44224 0.97761 0.0
H1673 H 0.61756 0.42724 0.983 0.0
C1674 C 0.47458 0.41551 0.95176 0.0
C1675 C 0.4746 0.43886 0.94123 0.0
C1676 C 0.50997 0.42203 0.95707 0.0
C1677 C 0.54642 0.45237 0.95207 0.0
C1678 C 0.54644 0.47652 0.94176 0.0
C1679 C 0.51088 0.46971 0.93635 0.0
C1680 C 0.64221 0.45361 0.95017 0.0
C1681 C 0.64328 0.43934 0.96296 0.0
C1682 C 0.61261 0.46129 0.94697 0.0
C1683 C 0.58362 0.45522 0.95654 0.0
C1684 C 0.58785 0.44598 0.96987 0.0
C1685 C 0.6174 0.43798 0.97304 0.0
H1686 H 0.62355 0.69261 0.79978 0.0
H1687 H 0.66107 0.78683 0.77111 0.0
H1688 H 0.56583 0.69689 0.80529 0.0
H1689 H 0.60406 0.79233 0.77701 0.0
H1690 H 0.47362 0.72273 0.8188 0.0
H1691 H 0.5396 0.73331 0.81568 0.0
H1692 H 0.53558 0.75665 0.77343 0.0
H1693 H 0.47099 0.74823 0.77675 0.0
C1694 C 0.61971 0.71459 0.79475 0.0
C1695 C 0.64674 0.73907 0.78489 0.0
C1696 C 0.58673 0.71737 0.79803 0.0
C1697 C 0.58005 0.745 0.79163 0.0
C1698 C 0.60776 0.77024 0.78201 0.0
C1699 C 0.64056 0.76717 0.77863 0.0
C1700 C 0.48744 0.7316 0.80899 0.0
C1701 C 0.46693 0.73467 0.79805 0.0
C1702 C 0.52507 0.73697 0.80712 0.0
C1703 C 0.5429 0.74526 0.79424 0.0
C1704 C 0.52323 0.75066 0.78352 0.0
C1705 C 0.48588 0.74556 0.78541 0.0
H1706 H 0.30075 0.91892 0.7626 0.0
H1707 H 0.23816 0.90663 0.79996 0.0
H1708 H 0.30596 0.86174 0.76829 0.0
H1709 H 0.24297 0.84906 0.80556 0.0
H1710 H 0.30725 0.78033 0.81664 0.0
H1711 H 0.29296 0.8326 0.81198 0.0
H1712 H 0.26497 0.79003 0.7706 0.0
H1713 H 0.27939 0.73832 0.77522 0.0
C1714 C 0.28785 0.90388 0.77198 0.0
C1715 C 0.26902 0.91742 0.7808 0.0
C1716 C 0.29062 0.8709 0.77522 0.0
C1717 C 0.27471 0.85063 0.78737 0.0
C1718 C 0.2558 0.86412 0.79618 0.0
C1719 C 0.25287 0.89702 0.79291 0.0
C1720 C 0.29697 0.78148 0.80667 0.0
C1721 C 0.29462 0.75526 0.7963 0.0
C1722 C 0.28898 0.81158 0.80396 0.0
C1723 C 0.27856 0.816 0.79082 0.0
C1724 C 0.2739 0.78817 0.78072 0.0
C1725 C 0.28188 0.75829 0.78342 0.0
H1726 H 0.09676 0.35969 0.7933 0.0
H1727 H 0.1055 0.4215 0.75666 0.0
H1728 H 0.15926 0.41706 0.80123 0.0
H1729 H 0.16741 0.47844 0.76458 0.0
H1730 H 0.29213 0.56137 0.77499 0.0
H1731 H 0.23579 0.49636 0.76897 0.0
H1732 H 0.18616 0.48861 0.80868 0.0
H1733 H 0.24317 0.55397 0.8148 0.0
C1734 C 0.11207 0.38538 0.78691 0.0
C1735 C 0.09615 0.38597 0.77432 0.0
C1736 C 0.14776 0.41826 0.79149 0.0
C1737 C 0.16848 0.45217 0.78349 0.0
C1738 C 0.15259 0.45253 0.77089 0.0
C1739 C 0.11688 0.41994 0.76638 0.0
C1740 C 0.26968 0.54543 0.78257 0.0
C1741 C 0.27188 0.56303 0.79532 0.0
C1742 C 0.23724 0.50828 0.77908 0.0
C1743 C 0.20602 0.48779 0.78822 0.0
C1744 C 0.20972 0.50373 0.8014 0.0
C1745 C 0.24245 0.5411 0.80493 0.0
H1746 H 0.46072 0.98141 0.08574 0.0
H1747 H 0.37448 0.98433 0.06033 0.0
H1748 H 0.45242 0.92377 0.07302 0.0
H1749 H 0.36802 0.92854 0.04692 0.0
H1750 H 0.32332 0.79479 0.04116 0.0
H1751 H 0.3395 0.86113 0.0481 0.0
H1752 H 0.46137 0.89493 0.05373 0.0
H1753 H 0.4438 0.82699 0.04754 0.0
C1754 C 0.44032 0.96993 0.0773 0.0
C1755 C 0.41771 0.98682 0.07419 0.0
C1756 C 0.43592 0.93717 0.06984 0.0
C1757 C 0.40947 0.92111 0.05884 0.0
C1758 C 0.38799 0.93923 0.05546 0.0
C1759 C 0.39168 0.97132 0.06315 0.0
C1760 C 0.35388 0.81701 0.04333 0.0
C1761 C 0.38243 0.80616 0.0437 0.0
C1762 C 0.3633 0.85521 0.04739 0.0
C1763 C 0.40172 0.88359 0.05181 0.0
C1764 C 0.43121 0.87365 0.05081 0.0
C1765 C 0.42149 0.83505 0.04697 0.0
H1766 H 0.02936 0.42162 0.06715 0.0
H1767 H 0.07478 0.48203 0.10557 0.0
H1768 H 0.08168 0.4788 0.05547 0.0
H1769 H 0.12857 0.53838 0.09403 0.0
H1770 H 0.20789 0.64719 0.07204 0.0
H1771 H 0.14612 0.59297 0.08087 0.0
H1772 H 0.14849 0.51317 0.05046 0.0
H1773 H 0.20889 0.56835 0.04117 0.0
C1774 C 0.05097 0.44696 0.07312 0.0
C1775 C 0.04811 0.4473 0.08729 0.0
C1776 C 0.08107 0.47981 0.06641 0.0
C1777 C 0.1095 0.5136 0.07373 0.0
C1778 C 0.10676 0.51353 0.08796 0.0
C1779 C 0.07619 0.48098 0.09464 0.0
C1780 C 0.19435 0.61828 0.067 0.0
C1781 C 0.21306 0.61182 0.05596 0.0
C1782 C 0.15929 0.58697 0.07219 0.0
C1783 C 0.14273 0.54817 0.0667 0.0
C1784 C 0.16008 0.5425 0.05499 0.0
C1785 C 0.19472 0.57417 0.0496 0.0
H1786 H 0.52915 0.58889 0.09599 0.0
H1787 H 0.59345 0.65717 0.06123 0.0
H1788 H 0.47004 0.58679 0.08799 0.0
H1789 H 0.53488 0.65621 0.05346 0.0
H1790 H 0.41765 0.63015 0.03766 0.0
H1791 H 0.46907 0.61681 0.04431 0.0
H1792 H 0.44755 0.63192 0.08633 0.0
H1793 H 0.3959 0.64374 0.07976 0.0
C1794 C 0.53074 0.60364 0.08668 0.0
C1795 C 0.56613 0.62351 0.07932 0.0
C1796 C 0.49684 0.60244 0.08208 0.0
C1797 C 0.4976 0.62137 0.07006 0.0
C1798 C 0.53291 0.64072 0.06262 0.0
C1799 C 0.5667 0.64167 0.06717 0.0
C1800 C 0.42332 0.62961 0.0483 0.0
C1801 C 0.40291 0.63835 0.05816 0.0
C1802 C 0.45307 0.62242 0.05213 0.0
C1803 C 0.46282 0.62371 0.06587 0.0
C1804 C 0.44076 0.63026 0.07568 0.0
C1805 C 0.41122 0.63739 0.07188 0.0
H1806 H 0.03555 0.62477 0.55483 0.0
H1807 H 0.07322 0.63786 0.59638 0.0
H1808 H 0.09174 0.61953 0.54762 0.0
H1809 H 0.13053 0.63473 0.58919 0.0
H1810 H 0.21742 0.6034 0.57601 0.0
H1811 H 0.15266 0.59373 0.58089 0.0
H1812 H 0.16019 0.65688 0.54465 0.0
H1813 H 0.22397 0.66423 0.53945 0.0
C1814 C 0.05611 0.62692 0.56242 0.0
C1815 C 0.05006 0.63185 0.57618 0.0
C1816 C 0.08843 0.62401 0.55827 0.0
C1817 C 0.11581 0.62652 0.56778 0.0
C1818 C 0.10967 0.63163 0.58156 0.0
C1819 C 0.07701 0.63389 0.58572 0.0
C1820 C 0.20458 0.61411 0.5689 0.0
C1821 C 0.22568 0.63474 0.55741 0.0
C1822 C 0.16771 0.60913 0.57179 0.0
C1823 C 0.15153 0.62557 0.56341 0.0
C1824 C 0.17149 0.64369 0.55135 0.0
C1825 C 0.2081 0.64789 0.54832 0.0
H1826 H 0.34126 0.40916 0.56148 0.0
H1827 H 0.44422 0.4759 0.58682 0.0
H1828 H 0.34831 0.47104 0.55386 0.0
H1829 H 0.4527 0.53787 0.57868 0.0
H1830 H 0.41724 0.63231 0.577 0.0
H1831 H 0.42341 0.57559 0.58166 0.0
H1832 H 0.38353 0.52943 0.54112 0.0
H1833 H 0.37501 0.58566 0.53682 0.0
C1834 C 0.36562 0.43713 0.56533 0.0
C1835 C 0.39179 0.43767 0.57492 0.0
C1836 C 0.37004 0.47269 0.56082 0.0
C1837 C 0.40115 0.50969 0.56562 0.0
C1838 C 0.42795 0.51006 0.57494 0.0
C1839 C 0.4231 0.4745 0.57962 0.0
C1840 C 0.41071 0.61054 0.56896 0.0
C1841 C 0.39572 0.61343 0.55653 0.0
C1842 C 0.41444 0.57795 0.57161 0.0
C1843 C 0.40352 0.54743 0.56184 0.0
C1844 C 0.39148 0.55196 0.54898 0.0
C1845 C 0.38744 0.58462 0.54637 0.0
H1846 H 0.56503 0.02208 0.56331 0.0
H1847 H 0.60454 0.96315 0.58958 0.0
H1848 H 0.50583 0.95794 0.55774 0.0
H1849 H 0.5453 0.89933 0.58408 0.0
H1850 H 0.4166 0.80225 0.58382 0.0
H1851 H 0.47136 0.86925 0.5885 0.0
H1852 H 0.48928 0.89084 0.54571 0.0
H1853 H 0.43444 0.82308 0.54091 0.0
C1854 C 0.56101 0.99549 0.56793 0.0
C1855 C 0.58934 -0.00236 0.57694 0.0
C1856 C 0.52727 0.95884 0.56467 0.0
C1857 C 0.52095 0.92382 0.57054 0.0
C1858 C 0.54927 0.92599 0.57953 0.0
C1859 C 0.58324 0.96247 0.58263 0.0
C1860 C 0.43179 0.82129 0.57535 0.0
C1861 C 0.42128 0.80708 0.56195 0.0
C1862 C 0.46329 0.85963 0.57807 0.0
C1863 C 0.48489 0.88492 0.56748 0.0
C1864 C 0.47304 0.87183 0.55407 0.0
C1865 C 0.44158 0.83311 0.55131 0.0
H1866 H 0.27441 0.4073 0.25085 0.0
H1867 H 0.28 0.36767 0.29065 0.0
H1868 H 0.27311 0.4637 0.26091 0.0
H1869 H 0.27646 0.42279 0.30082 0.0
H1870 H 0.32188 0.55504 0.31219 0.0
H1871 H 0.31281 0.49133 0.30469 0.0
H1872 H 0.23556 0.48425 0.27275 0.0
H1873 H 0.2469 0.54917 0.27982 0.0
C1874 C 0.27501 0.4105 0.26176 0.0
C1875 C 0.27764 0.38329 0.26994 0.0
C1876 C 0.27374 0.44259 0.26758 0.0
C1877 C 0.27425 0.4478 0.28174 0.0
C1878 C 0.27654 0.4202 0.2899 0.0
C1879 C 0.27853 0.38852 0.28406 0.0
C1880 C 0.30203 0.53919 0.30383 0.0
C1881 C 0.28534 0.55703 0.2965 0.0
C1882 C 0.29686 0.50263 0.29947 0.0
C1883 C 0.27429 0.48296 0.28783 0.0
C1884 C 0.25437 0.49916 0.28141 0.0
C1885 C 0.26028 0.53604 0.28558 0.0
H1886 H 0.67579 0.88582 0.29234 0.0
H1887 H 0.61864 0.914 0.26133 0.0
H1888 H 0.61159 0.83034 0.29942 0.0
H1889 H 0.55463 0.85806 0.26829 0.0
H1890 H 0.45751 0.72859 0.27397 0.0
H1891 H 0.52447 0.7802 0.26822 0.0
H1892 H 0.5448 0.82366 0.30954 0.0
H1893 H 0.47691 0.77272 0.31529 0.0
C1894 C 0.64956 0.88 0.28698 0.0
C1895 C 0.65219 0.9041 0.27623 0.0
C1896 C 0.6129 0.84845 0.2911 0.0
C1897 C 0.57836 0.83995 0.28436 0.0
C1898 C 0.58097 0.86389 0.27357 0.0
C1899 C 0.61751 0.89591 0.26963 0.0
C1900 C 0.47629 0.74874 0.28192 0.0
C1901 C 0.46175 0.74643 0.29513 0.0
C1902 C 0.51459 0.77835 0.27858 0.0
C1903 C 0.53949 0.80607 0.2884 0.0
C1904 C 0.52607 0.80246 0.30181 0.0
C1905 C 0.48734 0.77303 0.30513 0.0
H1906 H 0.07165 0.67978 0.29287 0.0
H1907 H 0.13784 0.78101 0.26725 0.0
H1908 H 0.13296 0.68699 0.30093 0.0
H1909 H 0.1993 0.78992 0.27586 0.0
H1910 H 0.29267 0.7542 0.27855 0.0
H1911 H 0.23686 0.76088 0.27352 0.0
H1912 H 0.19104 0.72225 0.31377 0.0
H1913 H 0.2462 0.71305 0.31845 0.0
C1914 C 0.09941 0.70381 0.28906 0.0
C1915 C 0.09996 0.72934 0.27924 0.0
C1916 C 0.13467 0.70837 0.29382 0.0
C1917 C 0.1714 0.73909 0.28908 0.0
C1918 C 0.17175 0.76538 0.27956 0.0
C1919 C 0.13647 0.76029 0.27459 0.0
C1920 C 0.27116 0.74797 0.28646 0.0
C1921 C 0.27375 0.73278 0.29887 0.0
C1922 C 0.23906 0.75203 0.2836 0.0
C1923 C 0.20879 0.74147 0.29314 0.0
C1924 C 0.21324 0.72972 0.30604 0.0
C1925 C 0.24534 0.72523 0.30885 0.0
loop_
_geom_bond_atom_site_label_1
_geom_bond_atom_site_label_2
_geom_bond_distance
_geom_bond_site_symmetry_2
_ccdc_geom_bond_type
C0 O1 1.160 . S
C0 O7 1.185 . S
O1 C0 1.160 . S
O2 Zn3 1.899 1_565 S
O2 C10 1.284 . S
Zn3 O2 1.899 1_545 S
Zn3 O4 2.032 . S
Zn3 O7 2.086 . S
Zn3 O12 1.977 . S
O4 Zn3 2.032 . S
O4 C8 1.278 . S
C5 O6 1.203 1_545 S
C5 O12 1.267 . S
O6 C5 1.203 1_565 S
O7 C0 1.185 . S
O7 Zn3 2.086 . S
C8 O4 1.278 . S
C8 O9 1.211 1_545 S
O9 C8 1.211 1_565 S
C10 O2 1.284 . S
C10 O11 1.273 . S
O11 C10 1.273 . S
O12 Zn3 1.977 . S
O12 C5 1.267 . S
C13 O14 1.160 . S
C13 O20 1.185 . S
O14 C13 1.160 . S
O15 Zn16 1.899 1_655 S
O15 C23 1.284 . S
Zn16 O15 1.899 1_455 S
Zn16 O17 2.032 . S
Zn16 O20 2.086 . S
Zn16 O25 1.977 . S
O17 Zn16 2.032 . S
O17 C21 1.278 . S
C18 O19 1.203 1_455 S
C18 O25 1.267 . S
O19 C18 1.203 1_655 S
O20 C13 1.185 . S
O20 Zn16 2.086 . S
C21 O17 1.278 . S
C21 O22 1.211 1_455 S
O22 C21 1.211 1_655 S
C23 O15 1.284 . S
C23 O24 1.273 . S
O24 C23 1.273 . S
O25 Zn16 1.977 . S
O25 C18 1.267 . S
C26 O27 1.160 . S
C26 O33 1.185 . S
O27 C26 1.160 . S
O28 Zn29 1.899 . S
O28 C36 1.284 . S
Zn29 O28 1.899 . S
Zn29 O30 2.032 . S
Zn29 O33 2.086 . S
Zn29 O38 1.977 . S
O30 Zn29 2.032 . S
O30 C34 1.278 . S
C31 O32 1.203 . S
C31 O38 1.267 . S
O32 C31 1.203 . S
O33 C26 1.185 . S
O33 Zn29 2.086 . S
C34 O30 1.278 . S
C34 O35 1.211 . S
O35 C34 1.211 . S
C36 O28 1.284 . S
C36 O37 1.273 . S
O37 C36 1.273 . S
O38 Zn29 1.977 . S
O38 C31 1.267 . S
C39 O40 1.160 . S
C39 O46 1.185 . S
O40 C39 1.160 . S
O41 Zn42 1.899 . S
O41 C49 1.284 . S
Zn42 O41 1.899 . S
Zn42 O43 2.032 . S
Zn42 O46 2.086 1_545 S
Zn42 O51 1.977 1_545 S
O43 Zn42 2.032 . S
O43 C47 1.278 . S
C44 O45 1.203 . S
C44 O51 1.267 1_545 S
O45 C44 1.203 . S
O46 C39 1.185 . S
O46 Zn42 2.086 1_565 S
C47 O43 1.278 . S
C47 O48 1.211 . S
O48 C47 1.211 . S
C49 O41 1.284 . S
C49 O50 1.273 . S
O50 C49 1.273 . S
O51 Zn42 1.977 1_565 S
O51 C44 1.267 1_565 S
C52 O53 1.160 . S
C52 O59 1.185 . S
O53 C52 1.160 . S
O54 Zn55 1.899 . S
O54 C62 1.284 . S
Zn55 O54 1.899 . S
Zn55 O56 2.032 . S
Zn55 O59 2.086 1_455 S
Zn55 O64 1.977 1_455 S
O56 Zn55 2.032 . S
O56 C60 1.278 . S
C57 O58 1.203 . S
C57 O64 1.267 1_455 S
O58 C57 1.203 . S
O59 C52 1.185 . S
O59 Zn55 2.086 1_655 S
C60 O56 1.278 . S
C60 O61 1.211 . S
O61 C60 1.211 . S
C62 O54 1.284 . S
C62 O63 1.273 . S
O63 C62 1.273 . S
O64 Zn55 1.977 1_655 S
O64 C57 1.267 1_655 S
C65 O66 1.160 . S
C65 O72 1.185 . S
O66 C65 1.160 . S
O67 Zn68 1.899 . S
O67 C75 1.284 . S
Zn68 O67 1.899 . S
Zn68 O69 2.032 . S
Zn68 O72 2.086 . S
Zn68 O77 1.977 . S
O69 Zn68 2.032 . S
O69 C73 1.278 . S
C70 O71 1.203 . S
C70 O77 1.267 . S
O71 C70 1.203 . S
O72 C65 1.185 . S
O72 Zn68 2.086 . S
C73 O69 1.278 . S
C73 O74 1.211 . S
O74 C73 1.211 . S
C75 O67 1.284 . S
C75 O76 1.273 . S
O76 C75 1.273 . S
O77 Zn68 1.977 . S
O77 C70 1.267 . S
C78 O79 1.160 . S
C78 O85 1.185 . S
O79 C78 1.160 . S
O80 Zn81 1.899 . S
O80 C88 1.284 . S
Zn81 O80 1.899 . S
Zn81 O82 2.032 . S
Zn81 O85 2.086 . S
Zn81 O90 1.977 . S
O82 Zn81 2.032 . S
O82 C86 1.278 . S
C83 O84 1.203 . S
C83 O90 1.267 . S
O84 C83 1.203 . S
O85 C78 1.185 . S
O85 Zn81 2.086 . S
C86 O82 1.278 . S
C86 O87 1.211 . S
O87 C86 1.211 . S
C88 O80 1.284 . S
C88 O89 1.273 . S
O89 C88 1.273 . S
O90 Zn81 1.977 . S
O90 C83 1.267 . S
C91 O92 1.160 . S
C91 O98 1.185 . S
O92 C91 1.160 . S
O93 Zn94 1.899 . S
O93 C101 1.284 . S
Zn94 O93 1.899 . S
Zn94 O95 2.032 . S
Zn94 O98 2.086 . S
Zn94 O103 1.977 . S
O95 Zn94 2.032 . S
O95 C99 1.278 . S
C96 O97 1.203 . S
C96 O103 1.267 . S
O97 C96 1.203 . S
O98 C91 1.185 . S
O98 Zn94 2.086 . S
C99 O95 1.278 . S
C99 O100 1.211 . S
O100 C99 1.211 . S
C101 O93 1.284 . S
C101 O102 1.273 . S
O102 C101 1.273 . S
O103 Zn94 1.977 . S
O103 C96 1.267 . S
C104 O105 1.160 . S
C104 O111 1.185 . S
O105 C104 1.160 . S
O106 Zn107 1.899 . S
O106 C114 1.284 . S
Zn107 O106 1.899 . S
Zn107 O108 2.032 . S
Zn107 O111 2.086 1_655 S
Zn107 O116 1.977 . S
O108 Zn107 2.032 . S
O108 C112 1.278 . S
C109 O110 1.203 . S
C109 O116 1.267 . S
O110 C109 1.203 . S
O111 C104 1.185 . S
O111 Zn107 2.086 1_455 S
C112 O108 1.278 . S
C112 O113 1.211 . S
O113 C112 1.211 . S
C114 O106 1.284 . S
C114 O115 1.273 . S
O115 C114 1.273 . S
O116 Zn107 1.977 . S
O116 C109 1.267 . S
C117 O118 1.160 1_655 S
C117 O124 1.185 . S
O118 C117 1.160 1_455 S
O119 Zn120 1.899 1_455 S
O119 C127 1.284 . S
Zn120 O119 1.899 1_655 S
Zn120 O121 2.032 . S
Zn120 O124 2.086 . S
Zn120 O129 1.977 . S
O121 Zn120 2.032 . S
O121 C125 1.278 . S
C122 O123 1.203 . S
C122 O129 1.267 . S
O123 C122 1.203 . S
O124 C117 1.185 . S
O124 Zn120 2.086 . S
C125 O121 1.278 . S
C125 O126 1.211 . S
O126 C125 1.211 . S
C127 O119 1.284 . S
C127 O128 1.273 . S
O128 C127 1.273 . S
O129 Zn120 1.977 . S
O129 C122 1.267 . S
C130 O131 1.160 . S
C130 O137 1.185 . S
O131 C130 1.160 . S
O132 Zn133 1.899 . S
O132 C140 1.284 . S
Zn133 O132 1.899 . S
Zn133 O134 2.032 . S
Zn133 O137 2.086 . S
Zn133 O142 1.977 . S
O134 Zn133 2.032 . S
O134 C138 1.278 . S
C135 O136 1.203 . S
C135 O142 1.267 . S
O136 C135 1.203 . S
O137 C130 1.185 . S
O137 Zn133 2.086 . S
C138 O134 1.278 . S
C138 O139 1.211 . S
O139 C138 1.211 . S
C140 O132 1.284 . S
C140 O141 1.273 . S
O141 C140 1.273 . S
O142 Zn133 1.977 . S
O142 C135 1.267 . S
C143 O144 1.160 . S
C143 O150 1.185 . S
O144 C143 1.160 . S
O145 Zn146 1.899 . S
O145 C153 1.284 . S
Zn146 O145 1.899 . S
Zn146 O147 2.032 . S
Zn146 O150 2.086 . S
Zn146 O155 1.977 . S
O147 Zn146 2.032 . S
O147 C151 1.278 . S
C148 O149 1.203 . S
C148 O155 1.267 . S
O149 C148 1.203 . S
O150 C143 1.185 . S
O150 Zn146 2.086 . S
C151 O147 1.278 . S
C151 O152 1.211 . S
O152 C151 1.211 . S
C153 O145 1.284 . S
C153 O154 1.273 . S
O154 C153 1.273 . S
O155 Zn146 1.977 . S
O155 C148 1.267 . S
C156 O157 1.160 . S
C156 O163 1.185 . S
O157 C156 1.160 . S
O158 Zn159 1.899 . S
O158 C166 1.284 . S
Zn159 O158 1.899 . S
Zn159 O160 2.032 . S
Zn159 O163 2.086 . S
Zn159 O168 1.977 . S
O160 Zn159 2.032 . S
O160 C164 1.278 . S
C161 O162 1.203 . S
C161 O168 1.267 . S
O162 C161 1.203 . S
O163 C156 1.185 . S
O163 Zn159 2.086 . S
C164 O160 1.278 . S
C164 O165 1.211 . S
O165 C164 1.211 . S
C166 O158 1.284 . S
C166 O167 1.273 . S
O167 C166 1.273 . S
O168 Zn159 1.977 . S
O168 C161 1.267 . S
C169 O170 1.160 . S
C169 O176 1.185 . S
O170 C169 1.160 . S
O171 Zn172 1.899 . S
O171 C179 1.284 . S
Zn172 O171 1.899 . S
Zn172 O173 2.032 . S
Zn172 O176 2.086 . S
Zn172 O181 1.977 . S
O173 Zn172 2.032 . S
O173 C177 1.278 . S
C174 O175 1.203 . S
C174 O181 1.267 . S
O175 C174 1.203 . S
O176 C169 1.185 . S
O176 Zn172 2.086 . S
C177 O173 1.278 . S
C177 O178 1.211 . S
O178 C177 1.211 . S
C179 O171 1.284 . S
C179 O180 1.273 . S
O180 C179 1.273 . S
O181 Zn172 1.977 . S
O181 C174 1.267 . S
C182 O183 1.160 1_565 S
C182 O189 1.185 . S
O183 C182 1.160 1_545 S
O184 Zn185 1.899 1_545 S
O184 C192 1.284 . S
Zn185 O184 1.899 1_565 S
Zn185 O186 2.032 . S
Zn185 O189 2.086 . S
Zn185 O194 1.977 . S
O186 Zn185 2.032 . S
O186 C190 1.278 . S
C187 O188 1.203 . S
C187 O194 1.267 . S
O188 C187 1.203 . S
O189 C182 1.185 . S
O189 Zn185 2.086 . S
C190 O186 1.278 . S
C190 O191 1.211 . S
O191 C190 1.211 . S
C192 O184 1.284 . S
C192 O193 1.273 . S
O193 C192 1.273 . S
O194 Zn185 1.977 . S
O194 C187 1.267 . S
C195 O196 1.160 . S
C195 O202 1.185 . S
O196 C195 1.160 . S
O197 Zn198 1.899 . S
O197 C205 1.284 . S
Zn198 O197 1.899 . S
Zn198 O199 2.032 . S
Zn198 O202 2.086 . S
Zn198 O207 1.977 . S
O199 Zn198 2.032 . S
O199 C203 1.278 . S
C200 O201 1.203 . S
C200 O207 1.267 . S
O201 C200 1.203 . S
O202 C195 1.185 . S
O202 Zn198 2.086 . S
C203 O199 1.278 . S
C203 O204 1.211 . S
O204 C203 1.211 . S
C205 O197 1.284 . S
C205 O206 1.273 . S
O206 C205 1.273 . S
O207 Zn198 1.977 . S
O207 C200 1.267 . S
C208 O209 1.160 1_565 S
C208 O215 1.185 . S
O209 C208 1.160 1_545 S
O210 Zn211 1.899 1_545 S
O210 C218 1.284 . S
Zn211 O210 1.899 1_565 S
Zn211 O212 2.032 . S
Zn211 O215 2.086 . S
Zn211 O220 1.977 . S
O212 Zn211 2.032 . S
O212 C216 1.278 . S
C213 O214 1.203 . S
C213 O220 1.267 . S
O214 C213 1.203 . S
O215 C208 1.185 . S
O215 Zn211 2.086 . S
C216 O212 1.278 . S
C216 O217 1.211 . S
O217 C216 1.211 . S
C218 O210 1.284 . S
C218 O219 1.273 . S
O219 C218 1.273 . S
O220 Zn211 1.977 . S
O220 C213 1.267 . S
C221 O222 1.160 . S
C221 O228 1.185 1_655 S
O222 C221 1.160 . S
O223 Zn224 1.899 . S
O223 C231 1.284 . S
Zn224 O223 1.899 . S
Zn224 O225 2.032 . S
Zn224 O228 2.086 . S
Zn224 O233 1.977 . S
O225 Zn224 2.032 . S
O225 C229 1.278 . S
C226 O227 1.203 . S
C226 O233 1.267 . S
O227 C226 1.203 . S
O228 C221 1.185 1_455 S
O228 Zn224 2.086 . S
C229 O225 1.278 . S
C229 O230 1.211 . S
O230 C229 1.211 . S
C231 O223 1.284 . S
C231 O232 1.273 . S
O232 C231 1.273 . S
O233 Zn224 1.977 . S
O233 C226 1.267 . S
Zn234 O240 1.920 1_455 S
Zn234 O246 1.898 1_445 S
Zn234 O249 1.905 . S
Zn235 O243 1.905 1_445 S
Zn235 O244 1.898 . S
Zn235 O252 1.920 1_455 S
Zn236 O239 2.080 . S
Zn236 O242 2.114 1_545 S
Zn236 O245 2.120 . S
Zn236 O247 2.120 1_445 S
Zn236 O248 2.114 . S
Zn236 O251 2.080 1_455 S
C237 O242 1.166 . S
C237 O243 1.182 1_455 S
C238 O244 1.167 . S
C238 O245 1.299 . S
O239 Zn236 2.080 . S
O239 C253 1.305 1_455 S
O240 Zn234 1.920 1_655 S
O240 C253 1.234 . S
C241 O246 1.167 . S
C241 O247 1.299 . S
O242 Zn236 2.114 1_565 S
O242 C237 1.166 . S
O243 Zn235 1.905 1_665 S
O243 C237 1.182 1_655 S
O244 Zn235 1.898 . S
O244 C238 1.167 . S
O245 Zn236 2.120 . S
O245 C238 1.299 . S
O246 Zn234 1.898 1_665 S
O246 C241 1.167 . S
O247 Zn236 2.120 1_665 S
O247 C241 1.299 . S
O248 Zn236 2.114 . S
O248 C250 1.166 . S
O249 Zn234 1.905 . S
O249 C250 1.182 . S
C250 O248 1.166 . S
C250 O249 1.182 . S
O251 Zn236 2.080 1_655 S
O251 C254 1.305 . S
O252 Zn235 1.920 1_655 S
O252 C254 1.234 . S
C253 O239 1.305 1_655 S
C253 O240 1.234 . S
C254 O251 1.305 . S
C254 O252 1.234 . S
Zn255 O261 1.920 1_545 S
Zn255 O267 1.898 . S
Zn255 O270 1.905 1_455 S
Zn256 O264 1.905 . S
Zn256 O265 1.898 1_445 S
Zn256 O273 1.920 1_545 S
Zn257 O260 2.080 1_545 S
Zn257 O263 2.114 . S
Zn257 O266 2.120 1_445 S
Zn257 O268 2.120 . S
Zn257 O269 2.114 1_455 S
Zn257 O272 2.080 . S
C258 O263 1.166 . S
C258 O264 1.182 . S
C259 O265 1.167 . S
C259 O266 1.299 . S
O260 Zn257 2.080 1_565 S
O260 C274 1.305 . S
O261 Zn255 1.920 1_565 S
O261 C274 1.234 . S
C262 O267 1.167 . S
C262 O268 1.299 . S
O263 Zn257 2.114 . S
O263 C258 1.166 . S
O264 Zn256 1.905 . S
O264 C258 1.182 . S
O265 Zn256 1.898 1_665 S
O265 C259 1.167 . S
O266 Zn257 2.120 1_665 S
O266 C259 1.299 . S
O267 Zn255 1.898 . S
O267 C262 1.167 . S
O268 Zn257 2.120 . S
O268 C262 1.299 . S
O269 Zn257 2.114 1_655 S
O269 C271 1.166 . S
O270 Zn255 1.905 1_655 S
O270 C271 1.182 . S
C271 O269 1.166 . S
C271 O270 1.182 . S
O272 Zn257 2.080 . S
O272 C275 1.323 . S
O273 Zn256 1.920 1_565 S
O273 C275 1.238 1_565 S
C274 O260 1.305 . S
C274 O261 1.234 . S
C275 O272 1.323 . S
C275 O273 1.238 1_545 S
Zn276 O282 1.920 1_545 S
Zn276 O288 1.898 . S
Zn276 O291 1.903 1_455 S
Zn277 O285 1.905 . S
Zn277 O286 1.898 1_445 S
Zn277 O294 1.920 . S
Zn278 O281 2.080 1_545 S
Zn278 O284 2.114 . S
Zn278 O287 2.120 1_445 S
Zn278 O289 2.120 . S
Zn278 O290 2.114 1_455 S
Zn278 O293 2.080 . S
C279 O284 1.166 . S
C279 O285 1.182 . S
C280 O286 1.167 . S
C280 O287 1.299 . S
O281 Zn278 2.080 1_565 S
O281 C295 1.305 . S
O282 Zn276 1.920 1_565 S
O282 C295 1.234 . S
C283 O288 1.167 . S
C283 O289 1.299 . S
O284 Zn278 2.114 . S
O284 C279 1.166 . S
O285 Zn277 1.905 . S
O285 C279 1.182 . S
O286 Zn277 1.898 1_665 S
O286 C280 1.167 . S
O287 Zn278 2.120 1_665 S
O287 C280 1.299 . S
O288 Zn276 1.898 . S
O288 C283 1.167 . S
O289 Zn278 2.120 . S
O289 C283 1.299 . S
O290 Zn278 2.114 1_655 S
O290 C292 1.166 . S
O291 Zn276 1.903 1_655 S
O291 C292 1.188 . S
C292 O290 1.166 . S
C292 O291 1.188 . S
O293 Zn278 2.080 . S
O293 C296 1.305 . S
O294 Zn277 1.920 . S
O294 C296 1.234 . S
C295 O281 1.305 . S
C295 O282 1.234 . S
C296 O293 1.305 . S
C296 O294 1.234 . S
Zn297 O303 1.920 . S
Zn297 O309 1.898 1_445 S
Zn297 O312 1.905 . S
Zn298 O306 1.905 1_445 S
Zn298 O307 1.898 . S
Zn298 O315 1.920 1_455 S
Zn299 O302 2.080 . S
Zn299 O305 2.114 1_545 S
Zn299 O308 2.120 . S
Zn299 O310 2.120 1_445 S
Zn299 O311 2.114 . S
Zn299 O314 2.080 1_455 S
C300 O305 1.166 . S
C300 O306 1.182 1_455 S
C301 O307 1.167 . S
C301 O308 1.299 . S
O302 Zn299 2.080 . S
O302 C316 1.305 . S
O303 Zn297 1.920 . S
O303 C316 1.234 . S
C304 O309 1.167 . S
C304 O310 1.299 . S
O305 Zn299 2.114 1_565 S
O305 C300 1.166 . S
O306 Zn298 1.905 1_665 S
O306 C300 1.182 1_655 S
O307 Zn298 1.898 . S
O307 C301 1.167 . S
O308 Zn299 2.120 . S
O308 C301 1.299 . S
O309 Zn297 1.898 1_665 S
O309 C304 1.167 . S
O310 Zn299 2.120 1_665 S
O310 C304 1.299 . S
O311 Zn299 2.114 . S
O311 C313 1.166 . S
O312 Zn297 1.905 . S
O312 C313 1.182 . S
C313 O311 1.166 . S
C313 O312 1.182 . S
O314 Zn299 2.080 1_655 S
O314 C317 1.305 . S
O315 Zn298 1.920 1_655 S
O315 C317 1.234 . S
C316 O302 1.305 . S
C316 O303 1.234 . S
C317 O314 1.305 . S
C317 O315 1.234 . S
Zn318 O324 1.920 . S
Zn318 O330 1.898 . S
Zn318 O333 1.905 . S
Zn319 O327 1.905 . S
Zn319 O328 1.898 . S
Zn319 O336 1.920 . S
Zn320 O323 2.080 . S
Zn320 O326 2.114 . S
Zn320 O329 2.120 . S
Zn320 O331 2.120 . S
Zn320 O332 2.114 . S
Zn320 O335 2.080 . S
C321 O326 1.166 . S
C321 O327 1.182 . S
C322 O328 1.167 . S
C322 O329 1.299 . S
O323 Zn320 2.080 . S
O323 C337 1.305 . S
O324 Zn318 1.920 . S
O324 C337 1.234 . S
C325 O330 1.167 . S
C325 O331 1.299 . S
O326 Zn320 2.114 . S
O326 C321 1.166 . S
O327 Zn319 1.905 . S
O327 C321 1.182 . S
O328 Zn319 1.898 . S
O328 C322 1.167 . S
O329 Zn320 2.120 . S
O329 C322 1.299 . S
O330 Zn318 1.898 . S
O330 C325 1.167 . S
O331 Zn320 2.120 . S
O331 C325 1.299 . S
O332 Zn320 2.114 . S
O332 C334 1.166 . S
O333 Zn318 1.905 . S
O333 C334 1.182 . S
C334 O332 1.166 . S
C334 O333 1.182 . S
O335 Zn320 2.080 . S
O335 C338 1.305 . S
O336 Zn319 1.920 . S
O336 C338 1.234 . S
C337 O323 1.305 . S
C337 O324 1.234 . S
C338 O335 1.305 . S
C338 O336 1.234 . S
Zn339 O345 1.920 . S
Zn339 O351 1.898 . S
Zn339 O354 1.905 . S
Zn340 O348 1.905 . S
Zn340 O349 1.898 . S
Zn340 O357 1.920 . S
Zn341 O344 2.080 . S
Zn341 O347 2.114 . S
Zn341 O350 2.120 . S
Zn341 O352 2.120 . S
Zn341 O353 2.114 . S
Zn341 O356 2.080 . S
C342 O347 1.166 . S
C342 O348 1.182 . S
C343 O349 1.167 . S
C343 O350 1.299 . S
O344 Zn341 2.080 . S
O344 C358 1.305 . S
O345 Zn339 1.920 . S
O345 C358 1.234 . S
C346 O351 1.167 . S
C346 O352 1.299 . S
O347 Zn341 2.114 . S
O347 C342 1.166 . S
O348 Zn340 1.905 . S
O348 C342 1.182 . S
O349 Zn340 1.898 . S
O349 C343 1.167 . S
O350 Zn341 2.120 . S
O350 C343 1.299 . S
O351 Zn339 1.898 . S
O351 C346 1.167 . S
O352 Zn341 2.120 . S
O352 C346 1.299 . S
O353 Zn341 2.114 . S
O353 C355 1.166 . S
O354 Zn339 1.905 . S
O354 C355 1.182 . S
C355 O353 1.166 . S
C355 O354 1.182 . S
O356 Zn341 2.080 . S
O356 C359 1.305 . S
O357 Zn340 1.920 . S
O357 C359 1.234 . S
C358 O344 1.305 . S
C358 O345 1.234 . S
C359 O356 1.305 . S
C359 O357 1.234 . S
Zn360 O366 1.920 . S
Zn360 O372 1.898 . S
Zn360 O375 1.905 . S
Zn361 O369 1.905 . S
Zn361 O370 1.898 . S
Zn361 O378 1.920 . S
Zn362 O365 2.080 . S
Zn362 O368 2.114 . S
Zn362 O371 2.120 . S
Zn362 O373 2.120 . S
Zn362 O374 2.114 . S
Zn362 O377 2.080 . S
C363 O368 1.166 . S
C363 O369 1.182 . S
C364 O370 1.167 . S
C364 O371 1.299 . S
O365 Zn362 2.080 . S
O365 C379 1.305 . S
O366 Zn360 1.920 . S
O366 C379 1.234 . S
C367 O372 1.167 . S
C367 O373 1.299 . S
O368 Zn362 2.114 . S
O368 C363 1.166 . S
O369 Zn361 1.905 . S
O369 C363 1.182 . S
O370 Zn361 1.898 . S
O370 C364 1.167 . S
O371 Zn362 2.120 . S
O371 C364 1.299 . S
O372 Zn360 1.898 . S
O372 C367 1.167 . S
O373 Zn362 2.120 . S
O373 C367 1.299 . S
O374 Zn362 2.114 . S
O374 C376 1.166 . S
O375 Zn360 1.905 . S
O375 C376 1.182 . S
C376 O374 1.166 . S
C376 O375 1.182 . S
O377 Zn362 2.080 . S
O377 C380 1.305 . S
O378 Zn361 1.920 . S
O378 C380 1.234 . S
C379 O365 1.305 . S
C379 O366 1.234 . S
C380 O377 1.305 . S
C380 O378 1.234 . S
Zn381 O387 1.920 . S
Zn381 O393 1.898 . S
Zn381 O396 1.905 . S
Zn382 O390 1.905 . S
Zn382 O391 1.898 . S
Zn382 O399 1.920 . S
Zn383 O386 2.080 . S
Zn383 O389 2.114 . S
Zn383 O392 2.120 . S
Zn383 O394 2.120 . S
Zn383 O395 2.114 . S
Zn383 O398 2.080 . S
C384 O389 1.166 . S
C384 O390 1.182 . S
C385 O391 1.167 . S
C385 O392 1.299 . S
O386 Zn383 2.080 . S
O386 C400 1.305 1_556 S
O387 Zn381 1.920 . S
O387 C400 1.234 . S
C388 O393 1.167 . S
C388 O394 1.299 1_554 S
O389 Zn383 2.114 . S
O389 C384 1.166 . S
O390 Zn382 1.905 . S
O390 C384 1.182 . S
O391 Zn382 1.898 . S
O391 C385 1.167 . S
O392 Zn383 2.120 . S
O392 C385 1.299 . S
O393 Zn381 1.898 . S
O393 C388 1.167 . S
O394 Zn383 2.120 . S
O394 C388 1.299 1_556 S
O395 Zn383 2.114 . S
O395 C397 1.166 1_556 S
O396 Zn381 1.905 . S
O396 C397 1.182 . S
C397 O395 1.166 1_554 S
C397 O396 1.182 . S
O398 Zn383 2.080 . S
O398 C401 1.305 . S
O399 Zn382 1.920 . S
O399 C401 1.234 . S
C400 O386 1.305 1_554 S
C400 O387 1.234 . S
C401 O398 1.305 . S
C401 O399 1.234 . S
Zn402 O408 1.920 . S
Zn402 O414 1.898 . S
Zn402 O417 1.905 . S
Zn403 O411 1.905 . S
Zn403 O412 1.898 . S
Zn403 O420 1.920 . S
Zn404 O407 2.080 . S
Zn404 O410 2.114 . S
Zn404 O413 2.120 . S
Zn404 O415 2.120 . S
Zn404 O416 2.114 . S
Zn404 O419 2.080 . S
C405 O410 1.166 . S
C405 O411 1.182 . S
C406 O412 1.167 . S
C406 O413 1.299 . S
O407 Zn404 2.080 . S
O407 C421 1.305 . S
O408 Zn402 1.920 . S
O408 C421 1.234 . S
C409 O414 1.167 . S
C409 O415 1.299 . S
O410 Zn404 2.114 . S
O410 C405 1.166 . S
O411 Zn403 1.905 . S
O411 C405 1.182 . S
O412 Zn403 1.898 . S
O412 C406 1.167 . S
O413 Zn404 2.120 . S
O413 C406 1.299 . S
O414 Zn402 1.898 . S
O414 C409 1.167 . S
O415 Zn404 2.120 . S
O415 C409 1.299 . S
O416 Zn404 2.114 . S
O416 C418 1.166 . S
O417 Zn402 1.905 . S
O417 C418 1.182 . S
C418 O416 1.166 . S
C418 O417 1.182 . S
O419 Zn404 2.080 . S
O419 C422 1.305 . S
O420 Zn403 1.920 . S
O420 C422 1.234 . S
C421 O407 1.305 . S
C421 O408 1.234 . S
C422 O419 1.305 . S
C422 O420 1.234 . S
Zn423 O429 1.920 . S
Zn423 O435 1.898 . S
Zn423 O438 1.905 . S
Zn424 O432 1.905 . S
Zn424 O433 1.898 . S
Zn424 O441 1.920 . S
Zn425 O428 2.080 . S
Zn425 O431 2.114 . S
Zn425 O434 2.120 . S
Zn425 O436 2.120 . S
Zn425 O437 2.114 . S
Zn425 O440 2.080 . S
C426 O431 1.166 1_556 S
C426 O432 1.182 . S
C427 O433 1.167 . S
C427 O434 1.299 1_556 S
O428 Zn425 2.080 . S
O428 C442 1.305 . S
O429 Zn423 1.920 . S
O429 C442 1.234 . S
C430 O435 1.167 . S
C430 O436 1.299 . S
O431 Zn425 2.114 . S
O431 C426 1.166 1_554 S
O432 Zn424 1.905 . S
O432 C426 1.182 . S
O433 Zn424 1.898 . S
O433 C427 1.167 . S
O434 Zn425 2.120 . S
O434 C427 1.299 1_554 S
O435 Zn423 1.898 . S
O435 C430 1.167 . S
O436 Zn425 2.120 . S
O436 C430 1.299 . S
O437 Zn425 2.114 . S
O437 C439 1.166 . S
O438 Zn423 1.905 . S
O438 C439 1.182 . S
C439 O437 1.166 . S
C439 O438 1.182 . S
O440 Zn425 2.080 . S
O440 C443 1.305 1_554 S
O441 Zn424 1.920 . S
O441 C443 1.234 . S
C442 O428 1.305 . S
C442 O429 1.234 . S
C443 O440 1.305 1_556 S
C443 O441 1.234 . S
Zn444 O450 1.920 . S
Zn444 O456 1.898 . S
Zn444 O459 1.905 . S
Zn445 O453 1.905 . S
Zn445 O454 1.898 . S
Zn445 O462 1.920 . S
Zn446 O449 2.080 . S
Zn446 O452 2.114 . S
Zn446 O455 2.120 . S
Zn446 O457 2.120 . S
Zn446 O458 2.114 . S
Zn446 O461 2.080 . S
C447 O452 1.166 . S
C447 O453 1.182 . S
C448 O454 1.167 . S
C448 O455 1.299 . S
O449 Zn446 2.080 . S
O449 C463 1.305 . S
O450 Zn444 1.920 . S
O450 C463 1.234 . S
C451 O456 1.167 . S
C451 O457 1.299 . S
O452 Zn446 2.114 . S
O452 C447 1.166 . S
O453 Zn445 1.905 . S
O453 C447 1.182 . S
O454 Zn445 1.898 . S
O454 C448 1.167 . S
O455 Zn446 2.120 . S
O455 C448 1.299 . S
O456 Zn444 1.898 . S
O456 C451 1.167 . S
O457 Zn446 2.120 . S
O457 C451 1.299 . S
O458 Zn446 2.114 . S
O458 C460 1.166 . S
O459 Zn444 1.905 . S
O459 C460 1.182 . S
C460 O458 1.166 . S
C460 O459 1.182 . S
O461 Zn446 2.080 . S
O461 C464 1.305 . S
O462 Zn445 1.920 . S
O462 C464 1.234 . S
C463 O449 1.305 . S
C463 O450 1.234 . S
C464 O461 1.305 . S
C464 O462 1.234 . S
Zn465 O471 1.920 . S
Zn465 O477 1.898 . S
Zn465 O480 1.905 . S
Zn466 O474 1.905 . S
Zn466 O475 1.898 . S
Zn466 O483 1.920 . S
Zn467 O470 2.080 . S
Zn467 O473 2.114 . S
Zn467 O476 2.120 . S
Zn467 O478 2.120 . S
Zn467 O479 2.114 . S
Zn467 O482 2.080 . S
C468 O473 1.166 . S
C468 O474 1.182 . S
C469 O475 1.167 . S
C469 O476 1.299 . S
O470 Zn467 2.080 . S
O470 C484 1.305 . S
O471 Zn465 1.920 . S
O471 C484 1.234 . S
C472 O477 1.167 . S
C472 O478 1.299 . S
O473 Zn467 2.114 . S
O473 C468 1.166 . S
O474 Zn466 1.905 . S
O474 C468 1.182 . S
O475 Zn466 1.898 . S
O475 C469 1.167 . S
O476 Zn467 2.120 . S
O476 C469 1.299 . S
O477 Zn465 1.898 . S
O477 C472 1.167 . S
O478 Zn467 2.120 . S
O478 C472 1.299 . S
O479 Zn467 2.114 . S
O479 C481 1.166 . S
O480 Zn465 1.905 . S
O480 C481 1.182 . S
C481 O479 1.166 . S
C481 O480 1.182 . S
O482 Zn467 2.080 . S
O482 C485 1.305 . S
O483 Zn466 1.920 . S
O483 C485 1.234 . S
C484 O470 1.305 . S
C484 O471 1.234 . S
C485 O482 1.305 . S
C485 O483 1.234 . S
H486 C494 0.950 . S
H487 C499 0.950 . S
H488 C496 0.950 . S
H489 C498 0.950 . S
H490 C500 0.950 . S
H491 C502 0.950 . S
H492 C504 0.950 . S
H493 C505 0.950 . S
C494 H486 0.950 . S
C494 C495 1.386 . S
C494 C496 1.391 . S
C495 C494 1.386 . S
C495 C499 1.393 . S
C496 H488 0.950 . S
C496 C494 1.391 . S
C496 C497 1.400 . S
C497 C496 1.400 . S
C497 C498 1.398 . S
C497 C503 1.491 . S
C498 H489 0.950 . S
C498 C497 1.398 . S
C498 C499 1.391 . S
C499 H487 0.950 . S
C499 C495 1.393 . S
C499 C498 1.391 . S
C500 H490 0.950 . S
C500 C501 1.386 . S
C500 C502 1.391 . S
C501 C500 1.386 . S
C501 C505 1.393 . S
C502 H491 0.950 . S
C502 C500 1.391 . S
C502 C503 1.400 . S
C503 C497 1.491 . S
C503 C502 1.400 . S
C503 C504 1.398 . S
C504 H492 0.950 . S
C504 C503 1.398 . S
C504 C505 1.391 . S
C505 H493 0.950 . S
C505 C501 1.393 . S
C505 C504 1.391 . S
H506 C514 0.950 . S
H507 C519 0.950 . S
H508 C516 0.950 . S
H509 C518 0.950 . S
H510 C520 0.950 . S
H511 C522 0.950 . S
H512 C524 0.950 . S
H513 C525 0.950 1_565 S
C514 H506 0.950 . S
C514 C515 1.386 1_565 S
C514 C516 1.391 . S
C515 C514 1.386 1_545 S
C515 C519 1.393 . S
C516 H508 0.950 . S
C516 C514 1.391 . S
C516 C517 1.400 1_565 S
C517 C516 1.400 1_545 S
C517 C518 1.398 . S
C517 C523 1.491 . S
C518 H509 0.950 . S
C518 C517 1.398 . S
C518 C519 1.391 . S
C519 H507 0.950 . S
C519 C515 1.393 . S
C519 C518 1.391 . S
C520 H510 0.950 . S
C520 C521 1.386 . S
C520 C522 1.391 . S
C521 C520 1.386 . S
C521 C525 1.393 . S
C522 H511 0.950 . S
C522 C520 1.391 . S
C522 C523 1.400 . S
C523 C517 1.491 . S
C523 C522 1.400 . S
C523 C524 1.398 1_545 S
C524 H512 0.950 . S
C524 C523 1.398 1_565 S
C524 C525 1.391 1_565 S
C525 H513 0.950 1_545 S
C525 C521 1.393 . S
C525 C524 1.391 1_545 S
H526 C534 0.950 . S
H527 C539 0.950 . S
H528 C536 0.950 1_655 S
H529 C538 0.950 . S
H530 C540 0.950 . S
H531 C542 0.950 . S
H532 C544 0.950 . S
H533 C545 0.950 . S
C534 H526 0.950 . S
C534 C535 1.386 . S
C534 C536 1.391 . S
C535 C534 1.386 . S
C535 C539 1.393 . S
C536 H528 0.950 1_455 S
C536 C534 1.391 . S
C536 C537 1.400 . S
C537 C536 1.400 . S
C537 C538 1.398 . S
C537 C543 1.491 . S
C538 H529 0.950 . S
C538 C537 1.398 . S
C538 C539 1.391 . S
C539 H527 0.950 . S
C539 C535 1.393 . S
C539 C538 1.391 . S
C540 H530 0.950 . S
C540 C541 1.392 . S
C540 C542 1.391 . S
C541 C540 1.392 . S
C541 C545 1.400 1_455 S
C542 H531 0.950 . S
C542 C540 1.391 . S
C542 C543 1.400 . S
C543 C537 1.491 . S
C543 C542 1.400 . S
C543 C544 1.398 1_455 S
C544 H532 0.950 . S
C544 C543 1.398 1_655 S
C544 C545 1.391 . S
C545 H533 0.950 . S
C545 C541 1.400 1_655 S
C545 C544 1.391 . S
H546 C554 0.950 . S
H547 C559 0.950 . S
H548 C556 0.950 . S
H549 C558 0.950 . S
H550 C560 0.950 . S
H551 C562 0.950 . S
H552 C564 0.950 . S
H553 C565 0.950 . S
C554 H546 0.950 . S
C554 C555 1.386 . S
C554 C556 1.391 . S
C555 C554 1.386 . S
C555 C559 1.393 . S
C556 H548 0.950 . S
C556 C554 1.391 . S
C556 C557 1.400 . S
C557 C556 1.400 . S
C557 C558 1.398 . S
C557 C563 1.491 . S
C558 H549 0.950 . S
C558 C557 1.398 . S
C558 C559 1.391 . S
C559 H547 0.950 . S
C559 C555 1.393 . S
C559 C558 1.391 . S
C560 H550 0.950 . S
C560 C561 1.386 . S
C560 C562 1.391 . S
C561 C560 1.386 . S
C561 C565 1.393 . S
C562 H551 0.950 . S
C562 C560 1.391 . S
C562 C563 1.400 . S
C563 C557 1.491 . S
C563 C562 1.400 . S
C563 C564 1.398 . S
C564 H552 0.950 . S
C564 C563 1.398 . S
C564 C565 1.391 . S
C565 H553 0.950 . S
C565 C561 1.393 . S
C565 C564 1.391 . S
H566 C574 0.950 . S
H567 C579 0.950 . S
H568 C576 0.950 . S
H569 C578 0.950 . S
H570 C580 0.950 . S
H571 C582 0.950 . S
H572 C584 0.950 . S
H573 C585 0.949 1_565 S
C574 H566 0.950 . S
C574 C575 1.386 . S
C574 C576 1.391 . S
C575 C574 1.386 . S
C575 C579 1.393 . S
C576 H568 0.950 . S
C576 C574 1.391 . S
C576 C577 1.400 . S
C577 C576 1.400 . S
C577 C578 1.398 . S
C577 C583 1.491 . S
C578 H569 0.950 . S
C578 C577 1.398 . S
C578 C579 1.391 . S
C579 H567 0.950 . S
C579 C575 1.393 . S
C579 C578 1.391 . S
C580 H570 0.950 . S
C580 C581 1.386 . S
C580 C582 1.391 . S
C581 C580 1.386 . S
C581 C585 1.392 . S
C582 H571 0.950 . S
C582 C580 1.391 . S
C582 C583 1.400 . S
C583 C577 1.491 . S
C583 C582 1.400 . S
C583 C584 1.398 . S
C584 H572 0.950 . S
C584 C583 1.398 . S
C584 C585 1.392 . S
C585 H573 0.949 1_545 S
C585 C581 1.392 . S
C585 C584 1.392 . S
H586 C594 0.950 . S
H587 C599 0.950 . S
H588 C596 0.950 . S
H589 C598 0.950 1_655 S
H590 C600 0.950 . S
H591 C602 0.950 . S
H592 C604 0.950 . S
H593 C605 0.950 . S
C594 H586 0.950 . S
C594 C595 1.386 1_455 S
C594 C596 1.391 . S
C595 C594 1.386 1_655 S
C595 C599 1.393 . S
C596 H588 0.950 . S
C596 C594 1.391 . S
C596 C597 1.400 . S
C597 C596 1.400 . S
C597 C598 1.394 . S
C597 C603 1.491 . S
C598 H589 0.950 1_455 S
C598 C597 1.394 . S
C598 C599 1.395 1_455 S
C599 H587 0.950 . S
C599 C595 1.393 . S
C599 C598 1.395 1_655 S
C600 H590 0.950 . S
C600 C601 1.386 . S
C600 C602 1.391 . S
C601 C600 1.386 . S
C601 C605 1.393 . S
C602 H591 0.950 . S
C602 C600 1.391 . S
C602 C603 1.400 . S
C603 C597 1.491 . S
C603 C602 1.400 . S
C603 C604 1.398 . S
C604 H592 0.950 . S
C604 C603 1.398 . S
C604 C605 1.391 . S
C605 H593 0.950 . S
C605 C601 1.393 . S
C605 C604 1.391 . S
H606 C614 0.950 . S
H607 C619 0.950 . S
H608 C616 0.950 . S
H609 C618 0.950 . S
H610 C620 0.950 . S
H611 C622 0.950 . S
H612 C624 0.950 . S
H613 C625 0.950 . S
C614 H606 0.950 . S
C614 C615 1.386 . S
C614 C616 1.391 . S
C615 C614 1.386 . S
C615 C619 1.393 . S
C616 H608 0.950 . S
C616 C614 1.391 . S
C616 C617 1.400 . S
C617 C616 1.400 . S
C617 C618 1.398 . S
C617 C623 1.491 . S
C618 H609 0.950 . S
C618 C617 1.398 . S
C618 C619 1.391 . S
C619 H607 0.950 . S
C619 C615 1.393 . S
C619 C618 1.391 . S
C620 H610 0.950 . S
C620 C621 1.386 . S
C620 C622 1.391 . S
C621 C620 1.386 . S
C621 C625 1.393 . S
C622 H611 0.950 . S
C622 C620 1.391 . S
C622 C623 1.400 . S
C623 C617 1.491 . S
C623 C622 1.400 . S
C623 C624 1.398 . S
C624 H612 0.950 . S
C624 C623 1.398 . S
C624 C625 1.391 . S
C625 H613 0.950 . S
C625 C621 1.393 . S
C625 C624 1.391 . S
H626 C634 0.950 1_565 S
H627 C639 0.950 . S
H628 C636 0.950 1_565 S
H629 C638 0.950 . S
H630 C640 0.950 . S
H631 C642 0.950 . S
H632 C644 0.950 . S
H633 C645 0.950 . S
C634 H626 0.950 1_545 S
C634 C635 1.386 . S
C634 C636 1.391 . S
C635 C634 1.386 . S
C635 C639 1.393 . S
C636 H628 0.950 1_545 S
C636 C634 1.391 . S
C636 C637 1.400 . S
C637 C636 1.400 . S
C637 C638 1.398 . S
C637 C643 1.491 . S
C638 H629 0.950 . S
C638 C637 1.398 . S
C638 C639 1.391 . S
C639 H627 0.950 . S
C639 C635 1.393 . S
C639 C638 1.391 . S
C640 H630 0.950 . S
C640 C641 1.386 . S
C640 C642 1.391 . S
C641 C640 1.386 . S
C641 C645 1.393 1_545 S
C642 H631 0.950 . S
C642 C640 1.391 . S
C642 C643 1.400 . S
C643 C637 1.491 . S
C643 C642 1.400 . S
C643 C644 1.398 1_545 S
C644 H632 0.950 . S
C644 C643 1.398 1_565 S
C644 C645 1.391 . S
C645 H633 0.950 . S
C645 C641 1.393 1_565 S
C645 C644 1.391 . S
H646 C654 0.950 . S
H647 C659 0.950 . S
H648 C656 0.950 . S
H649 C658 0.950 . S
H650 C660 0.950 . S
H651 C662 0.950 . S
H652 C664 0.950 1_655 S
H653 C665 0.950 . S
C654 H646 0.950 . S
C654 C655 1.386 1_655 S
C654 C656 1.391 . S
C655 C654 1.386 1_455 S
C655 C659 1.393 . S
C656 H648 0.950 . S
C656 C654 1.391 . S
C656 C657 1.400 1_655 S
C657 C656 1.400 1_455 S
C657 C658 1.398 . S
C657 C663 1.491 . S
C658 H649 0.950 . S
C658 C657 1.398 . S
C658 C659 1.391 . S
C659 H647 0.950 . S
C659 C655 1.393 . S
C659 C658 1.391 . S
C660 H650 0.950 . S
C660 C661 1.386 . S
C660 C662 1.391 . S
C661 C660 1.386 . S
C661 C665 1.393 . S
C662 H651 0.950 . S
C662 C660 1.391 . S
C662 C663 1.400 . S
C663 C657 1.491 . S
C663 C662 1.400 . S
C663 C664 1.398 . S
C664 H652 0.950 1_455 S
C664 C663 1.398 . S
C664 C665 1.391 . S
C665 H653 0.950 . S
C665 C661 1.393 . S
C665 C664 1.391 . S
H666 C674 0.950 . S
H667 C679 0.950 . S
H668 C676 0.950 . S
H669 C678 0.950 . S
H670 C680 0.950 . S
H671 C682 0.950 . S
H672 C684 0.950 . S
H673 C685 0.950 . S
C674 H666 0.950 . S
C674 C675 1.386 . S
C674 C676 1.391 . S
C675 C674 1.386 . S
C675 C679 1.393 . S
C676 H668 0.950 . S
C676 C674 1.391 . S
C676 C677 1.400 . S
C677 C676 1.400 . S
C677 C678 1.398 . S
C677 C683 1.491 . S
C678 H669 0.950 . S
C678 C677 1.398 . S
C678 C679 1.391 . S
C679 H667 0.950 . S
C679 C675 1.393 . S
C679 C678 1.391 . S
C680 H670 0.950 . S
C680 C681 1.386 . S
C680 C682 1.391 . S
C681 C680 1.386 . S
C681 C685 1.393 . S
C682 H671 0.950 . S
C682 C680 1.391 . S
C682 C683 1.400 . S
C683 C677 1.491 . S
C683 C682 1.400 . S
C683 C684 1.398 . S
C684 H672 0.950 . S
C684 C683 1.398 . S
C684 C685 1.391 . S
C685 H673 0.950 . S
C685 C681 1.393 . S
C685 C684 1.391 . S
H686 C694 0.950 . S
H687 C699 0.950 . S
H688 C696 0.950 . S
H689 C698 0.950 . S
H690 C700 0.950 . S
H691 C702 0.950 . S
H692 C704 0.950 . S
H693 C705 0.950 . S
C694 H686 0.950 . S
C694 C695 1.386 . S
C694 C696 1.391 . S
C695 C694 1.386 . S
C695 C699 1.393 . S
C696 H688 0.950 . S
C696 C694 1.391 . S
C696 C697 1.400 . S
C697 C696 1.400 . S
C697 C698 1.398 . S
C697 C703 1.491 . S
C698 H689 0.950 . S
C698 C697 1.398 . S
C698 C699 1.391 . S
C699 H687 0.950 . S
C699 C695 1.393 . S
C699 C698 1.391 . S
C700 H690 0.950 . S
C700 C701 1.386 . S
C700 C702 1.391 . S
C701 C700 1.386 . S
C701 C705 1.393 . S
C702 H691 0.950 . S
C702 C700 1.391 . S
C702 C703 1.400 . S
C703 C697 1.491 . S
C703 C702 1.400 . S
C703 C704 1.398 . S
C704 H692 0.950 . S
C704 C703 1.398 . S
C704 C705 1.391 . S
C705 H693 0.950 . S
C705 C701 1.393 . S
C705 C704 1.391 . S
H706 C714 0.950 . S
H707 C719 0.950 . S
H708 C716 0.950 . S
H709 C718 0.950 . S
H710 C720 0.950 . S
H711 C722 0.950 . S
H712 C724 0.950 . S
H713 C725 0.950 . S
C714 H706 0.950 . S
C714 C715 1.386 . S
C714 C716 1.391 . S
C715 C714 1.386 . S
C715 C719 1.393 1_455 S
C716 H708 0.950 . S
C716 C714 1.391 . S
C716 C717 1.400 . S
C717 C716 1.400 . S
C717 C718 1.398 1_455 S
C717 C723 1.491 . S
C718 H709 0.950 . S
C718 C717 1.398 1_655 S
C718 C719 1.391 . S
C719 H707 0.950 . S
C719 C715 1.393 1_655 S
C719 C718 1.391 . S
C720 H710 0.950 . S
C720 C721 1.386 1_655 S
C720 C722 1.391 . S
C721 C720 1.386 1_455 S
C721 C725 1.393 . S
C722 H711 0.950 . S
C722 C720 1.391 . S
C722 C723 1.400 1_655 S
C723 C717 1.491 . S
C723 C722 1.400 1_455 S
C723 C724 1.398 . S
C724 H712 0.950 . S
C724 C723 1.398 . S
C724 C725 1.391 . S
C725 H713 0.950 . S
C725 C721 1.393 . S
C725 C724 1.391 . S
H726 C734 0.950 . S
H727 C739 0.950 . S
H728 C736 0.950 . S
H729 C738 0.950 . S
H730 C740 0.950 . S
H731 C742 0.950 . S
H732 C744 0.950 . S
H733 C745 0.950 . S
C734 H726 0.950 . S
C734 C735 1.386 . S
C734 C736 1.391 . S
C735 C734 1.386 . S
C735 C739 1.393 . S
C736 H728 0.950 . S
C736 C734 1.391 . S
C736 C737 1.400 . S
C737 C736 1.400 . S
C737 C738 1.398 . S
C737 C743 1.491 . S
C738 H729 0.950 . S
C738 C737 1.398 . S
C738 C739 1.391 . S
C739 H727 0.950 . S
C739 C735 1.393 . S
C739 C738 1.391 . S
C740 H730 0.950 . S
C740 C741 1.386 . S
C740 C742 1.391 . S
C741 C740 1.386 . S
C741 C745 1.393 . S
C742 H731 0.950 . S
C742 C740 1.391 . S
C742 C743 1.400 . S
C743 C737 1.491 . S
C743 C742 1.400 . S
C743 C744 1.398 . S
C744 H732 0.950 . S
C744 C743 1.398 . S
C744 C745 1.391 . S
C745 H733 0.950 . S
C745 C741 1.393 . S
C745 C744 1.391 . S
H746 C754 0.950 . S
H747 C759 0.950 . S
H748 C756 0.950 . S
H749 C758 0.950 . S
H750 C760 0.950 . S
H751 C762 0.950 . S
H752 C764 0.950 . S
H753 C765 0.950 . S
C754 H746 0.950 . S
C754 C755 1.386 . S
C754 C756 1.391 . S
C755 C754 1.386 . S
C755 C759 1.393 . S
C756 H748 0.950 . S
C756 C754 1.391 . S
C756 C757 1.400 . S
C757 C756 1.400 . S
C757 C758 1.398 . S
C757 C763 1.491 . S
C758 H749 0.950 . S
C758 C757 1.398 . S
C758 C759 1.391 . S
C759 H747 0.950 . S
C759 C755 1.393 . S
C759 C758 1.391 . S
C760 H750 0.950 . S
C760 C761 1.386 . S
C760 C762 1.391 . S
C761 C760 1.386 . S
C761 C765 1.393 . S
C762 H751 0.950 . S
C762 C760 1.391 . S
C762 C763 1.400 . S
C763 C757 1.491 . S
C763 C762 1.400 . S
C763 C764 1.398 . S
C764 H752 0.950 . S
C764 C763 1.398 . S
C764 C765 1.391 . S
C765 H753 0.950 . S
C765 C761 1.393 . S
C765 C764 1.391 . S
H766 C774 0.950 . S
H767 C779 0.950 . S
H768 C776 0.950 . S
H769 C778 0.950 . S
H770 C780 0.950 . S
H771 C782 0.950 . S
H772 C784 0.950 . S
H773 C785 0.950 . S
C774 H766 0.950 . S
C774 C775 1.386 . S
C774 C776 1.391 . S
C775 C774 1.386 . S
C775 C779 1.393 . S
C776 H768 0.950 . S
C776 C774 1.391 . S
C776 C777 1.400 . S
C777 C776 1.400 . S
C777 C778 1.398 . S
C777 C783 1.491 . S
C778 H769 0.950 . S
C778 C777 1.398 . S
C778 C779 1.391 . S
C779 H767 0.950 . S
C779 C775 1.393 . S
C779 C778 1.391 . S
C780 H770 0.950 . S
C780 C781 1.386 . S
C780 C782 1.391 . S
C781 C780 1.386 . S
C781 C785 1.393 . S
C782 H771 0.950 . S
C782 C780 1.391 . S
C782 C783 1.400 . S
C783 C777 1.491 . S
C783 C782 1.400 . S
C783 C784 1.398 . S
C784 H772 0.950 . S
C784 C783 1.398 . S
C784 C785 1.391 . S
C785 H773 0.950 . S
C785 C781 1.393 . S
C785 C784 1.391 . S
H786 C794 0.950 . S
H787 C799 0.950 . S
H788 C796 0.950 . S
H789 C798 0.950 . S
H790 C800 0.950 . S
H791 C802 0.950 . S
H792 C804 0.950 . S
H793 C805 0.950 . S
C794 H786 0.950 . S
C794 C795 1.386 . S
C794 C796 1.391 . S
C795 C794 1.386 . S
C795 C799 1.393 . S
C796 H788 0.950 . S
C796 C794 1.391 . S
C796 C797 1.400 . S
C797 C796 1.400 . S
C797 C798 1.398 . S
C797 C803 1.491 . S
C798 H789 0.950 . S
C798 C797 1.398 . S
C798 C799 1.391 . S
C799 H787 0.950 . S
C799 C795 1.393 . S
C799 C798 1.391 . S
C800 H790 0.950 . S
C800 C801 1.386 . S
C800 C802 1.391 . S
C801 C800 1.386 . S
C801 C805 1.393 . S
C802 H791 0.950 . S
C802 C800 1.391 . S
C802 C803 1.400 . S
C803 C797 1.491 . S
C803 C802 1.400 . S
C803 C804 1.398 . S
C804 H792 0.950 . S
C804 C803 1.398 . S
C804 C805 1.391 . S
C805 H793 0.950 . S
C805 C801 1.393 . S
C805 C804 1.391 . S
H806 C814 0.950 . S
H807 C819 0.950 . S
H808 C816 0.950 . S
H809 C818 0.950 . S
H810 C820 0.950 . S
H811 C822 0.950 . S
H812 C824 0.950 . S
H813 C825 0.950 . S
C814 H806 0.950 . S
C814 C815 1.386 . S
C814 C816 1.391 . S
C815 C814 1.386 . S
C815 C819 1.393 . S
C816 H808 0.950 . S
C816 C814 1.391 . S
C816 C817 1.400 . S
C817 C816 1.400 . S
C817 C818 1.398 . S
C817 C823 1.491 . S
C818 H809 0.950 . S
C818 C817 1.398 . S
C818 C819 1.391 . S
C819 H807 0.950 . S
C819 C815 1.393 . S
C819 C818 1.391 . S
C820 H810 0.950 . S
C820 C821 1.386 . S
C820 C822 1.391 . S
C821 C820 1.386 . S
C821 C825 1.393 . S
C822 H811 0.950 . S
C822 C820 1.391 . S
C822 C823 1.400 . S
C823 C817 1.491 . S
C823 C822 1.400 . S
C823 C824 1.398 . S
C824 H812 0.950 . S
C824 C823 1.398 . S
C824 C825 1.391 . S
C825 H813 0.950 . S
C825 C821 1.393 . S
C825 C824 1.391 . S
H826 C834 0.950 . S
H827 C839 0.950 . S
H828 C836 0.950 . S
H829 C838 0.950 . S
H830 C840 0.950 . S
H831 C842 0.950 . S
H832 C844 0.950 . S
H833 C845 0.950 . S
C834 H826 0.950 . S
C834 C835 1.386 . S
C834 C836 1.391 . S
C835 C834 1.386 . S
C835 C839 1.393 . S
C836 H828 0.950 . S
C836 C834 1.391 . S
C836 C837 1.400 . S
C837 C836 1.400 . S
C837 C838 1.398 . S
C837 C843 1.491 . S
C838 H829 0.950 . S
C838 C837 1.398 . S
C838 C839 1.391 . S
C839 H827 0.950 . S
C839 C835 1.393 . S
C839 C838 1.391 . S
C840 H830 0.950 . S
C840 C841 1.386 . S
C840 C842 1.391 . S
C841 C840 1.386 . S
C841 C845 1.393 . S
C842 H831 0.950 . S
C842 C840 1.391 . S
C842 C843 1.400 . S
C843 C837 1.491 . S
C843 C842 1.400 . S
C843 C844 1.398 . S
C844 H832 0.950 . S
C844 C843 1.398 . S
C844 C845 1.391 . S
C845 H833 0.950 . S
C845 C841 1.393 . S
C845 C844 1.391 . S
H846 C854 0.950 . S
H847 C859 0.950 . S
H848 C856 0.950 . S
H849 C858 0.950 . S
H850 C860 0.950 . S
H851 C862 0.950 . S
H852 C864 0.950 . S
H853 C865 0.950 . S
C854 H846 0.950 . S
C854 C855 1.386 . S
C854 C856 1.391 . S
C855 C854 1.386 . S
C855 C859 1.393 . S
C856 H848 0.950 . S
C856 C854 1.391 . S
C856 C857 1.400 . S
C857 C856 1.400 . S
C857 C858 1.398 . S
C857 C863 1.491 . S
C858 H849 0.950 . S
C858 C857 1.398 . S
C858 C859 1.391 . S
C859 H847 0.950 . S
C859 C855 1.393 . S
C859 C858 1.391 . S
C860 H850 0.950 . S
C860 C861 1.386 . S
C860 C862 1.391 . S
C861 C860 1.386 . S
C861 C865 1.393 . S
C862 H851 0.950 . S
C862 C860 1.391 . S
C862 C863 1.400 . S
C863 C857 1.491 . S
C863 C862 1.400 . S
C863 C864 1.398 . S
C864 H852 0.950 . S
C864 C863 1.398 . S
C864 C865 1.391 . S
C865 H853 0.950 . S
C865 C861 1.393 . S
C865 C864 1.391 . S
H866 C874 0.950 . S
H867 C879 0.950 . S
H868 C876 0.950 . S
H869 C878 0.950 . S
H870 C880 0.950 . S
H871 C882 0.950 . S
H872 C884 0.950 . S
H873 C885 0.950 . S
C874 H866 0.950 . S
C874 C875 1.386 . S
C874 C876 1.391 . S
C875 C874 1.386 . S
C875 C879 1.393 . S
C876 H868 0.950 . S
C876 C874 1.391 . S
C876 C877 1.400 . S
C877 C876 1.400 . S
C877 C878 1.398 . S
C877 C883 1.491 . S
C878 H869 0.950 . S
C878 C877 1.398 . S
C878 C879 1.391 . S
C879 H867 0.950 . S
C879 C875 1.393 . S
C879 C878 1.391 . S
C880 H870 0.950 . S
C880 C881 1.386 . S
C880 C882 1.391 . S
C881 C880 1.386 . S
C881 C885 1.393 . S
C882 H871 0.950 . S
C882 C880 1.391 . S
C882 C883 1.400 . S
C883 C877 1.491 . S
C883 C882 1.400 . S
C883 C884 1.398 . S
C884 H872 0.950 . S
C884 C883 1.398 . S
C884 C885 1.391 . S
C885 H873 0.950 . S
C885 C881 1.393 . S
C885 C884 1.391 . S
H886 C894 0.950 . S
H887 C899 0.950 . S
H888 C896 0.950 . S
H889 C898 0.950 . S
H890 C900 0.950 . S
H891 C902 0.950 . S
H892 C904 0.950 . S
H893 C905 0.950 . S
C894 H886 0.950 . S
C894 C895 1.386 . S
C894 C896 1.391 . S
C895 C894 1.386 . S
C895 C899 1.393 . S
C896 H888 0.950 . S
C896 C894 1.391 . S
C896 C897 1.400 . S
C897 C896 1.400 . S
C897 C898 1.398 . S
C897 C903 1.491 . S
C898 H889 0.950 . S
C898 C897 1.398 . S
C898 C899 1.391 . S
C899 H887 0.950 . S
C899 C895 1.393 . S
C899 C898 1.391 . S
C900 H890 0.950 . S
C900 C901 1.386 . S
C900 C902 1.391 . S
C901 C900 1.386 . S
C901 C905 1.393 . S
C902 H891 0.950 . S
C902 C900 1.391 . S
C902 C903 1.400 . S
C903 C897 1.491 . S
C903 C902 1.400 . S
C903 C904 1.398 . S
C904 H892 0.950 . S
C904 C903 1.398 . S
C904 C905 1.391 . S
C905 H893 0.950 . S
C905 C901 1.393 . S
C905 C904 1.391 . S
H906 C914 0.950 . S
H907 C919 0.950 . S
H908 C916 0.950 . S
H909 C918 0.950 . S
H910 C920 0.950 . S
H911 C922 0.950 . S
H912 C924 0.950 . S
H913 C925 0.950 1_556 S
C914 H906 0.950 . S
C914 C915 1.386 . S
C914 C916 1.391 . S
C915 C914 1.386 . S
C915 C919 1.393 . S
C916 H908 0.950 . S
C916 C914 1.391 . S
C916 C917 1.400 . S
C917 C916 1.400 . S
C917 C918 1.398 . S
C917 C923 1.491 . S
C918 H909 0.950 . S
C918 C917 1.398 . S
C918 C919 1.391 . S
C919 H907 0.950 . S
C919 C915 1.393 . S
C919 C918 1.391 . S
C920 H910 0.950 . S
C920 C921 1.386 . S
C920 C922 1.391 . S
C921 C920 1.386 . S
C921 C925 1.393 . S
C922 H911 0.950 . S
C922 C920 1.391 . S
C922 C923 1.400 . S
C923 C917 1.491 . S
C923 C922 1.400 . S
C923 C924 1.398 . S
C924 H912 0.950 . S
C924 C923 1.398 . S
C924 C925 1.391 . S
C925 H913 0.950 1_554 S
C925 C921 1.393 . S
C925 C924 1.391 . S
H926 C934 0.950 . S
H927 C939 0.950 . S
H928 C936 0.950 . S
H929 C938 0.950 . S
H930 C940 0.950 . S
H931 C942 0.950 . S
H932 C944 0.950 . S
H933 C945 0.950 . S
C934 H926 0.950 . S
C934 C935 1.386 . S
C934 C936 1.391 . S
C935 C934 1.386 . S
C935 C939 1.393 . S
C936 H928 0.950 . S
C936 C934 1.391 . S
C936 C937 1.400 . S
C937 C936 1.400 . S
C937 C938 1.398 . S
C937 C943 1.491 . S
C938 H929 0.950 . S
C938 C937 1.398 . S
C938 C939 1.391 . S
C939 H927 0.950 . S
C939 C935 1.393 . S
C939 C938 1.391 . S
C940 H930 0.950 . S
C940 C941 1.386 . S
C940 C942 1.391 . S
C941 C940 1.386 . S
C941 C945 1.393 . S
C942 H931 0.950 . S
C942 C940 1.391 . S
C942 C943 1.400 . S
C943 C937 1.491 . S
C943 C942 1.400 . S
C943 C944 1.398 . S
C944 H932 0.950 . S
C944 C943 1.398 . S
C944 C945 1.391 . S
C945 H933 0.950 . S
C945 C941 1.393 . S
C945 C944 1.391 . S
H946 C954 0.950 . S
H947 C959 0.950 . S
H948 C956 0.950 . S
H949 C958 0.950 . S
H950 C960 0.950 . S
H951 C962 0.950 . S
H952 C964 0.950 . S
H953 C965 0.950 1_556 S
C954 H946 0.950 . S
C954 C955 1.386 . S
C954 C956 1.391 . S
C955 C954 1.386 . S
C955 C959 1.393 . S
C956 H948 0.950 . S
C956 C954 1.391 . S
C956 C957 1.400 . S
C957 C956 1.400 . S
C957 C958 1.398 . S
C957 C963 1.491 . S
C958 H949 0.950 . S
C958 C957 1.398 . S
C958 C959 1.391 . S
C959 H947 0.950 . S
C959 C955 1.393 . S
C959 C958 1.391 . S
C960 H950 0.950 . S
C960 C961 1.386 . S
C960 C962 1.391 . S
C961 C960 1.386 . S
C961 C965 1.393 . S
C962 H951 0.950 . S
C962 C960 1.391 . S
C962 C963 1.400 . S
C963 C957 1.491 . S
C963 C962 1.400 . S
C963 C964 1.398 . S
C964 H952 0.950 . S
C964 C963 1.398 . S
C964 C965 1.391 . S
C965 H953 0.950 1_554 S
C965 C961 1.393 . S
C965 C964 1.391 . S
H966 C974 0.950 . S
H967 C979 0.950 . S
H968 C976 0.950 . S
H969 C978 0.950 . S
H970 C980 0.950 . S
H971 C982 0.950 . S
H972 C984 0.950 . S
H973 C985 0.950 . S
C974 H966 0.950 . S
C974 C975 1.386 . S
C974 C976 1.391 . S
C975 C974 1.386 . S
C975 C979 1.393 . S
C976 H968 0.950 . S
C976 C974 1.391 . S
C976 C977 1.400 . S
C977 C976 1.400 . S
C977 C978 1.398 . S
C977 C983 1.491 . S
C978 H969 0.950 . S
C978 C977 1.398 . S
C978 C979 1.391 . S
C979 H967 0.950 . S
C979 C975 1.393 . S
C979 C978 1.391 . S
C980 H970 0.950 . S
C980 C981 1.386 . S
C980 C982 1.391 . S
C981 C980 1.386 . S
C981 C985 1.393 . S
C982 H971 0.950 . S
C982 C980 1.391 . S
C982 C983 1.400 . S
C983 C977 1.491 . S
C983 C982 1.400 . S
C983 C984 1.398 . S
C984 H972 0.950 . S
C984 C983 1.398 . S
C984 C985 1.391 . S
C985 H973 0.950 . S
C985 C981 1.393 . S
C985 C984 1.391 . S
H986 C994 0.950 . S
H987 C999 0.950 . S
H988 C996 0.950 . S
H989 C998 0.950 . S
H990 C1000 0.950 . S
H991 C1002 0.950 . S
H992 C1004 0.950 . S
H993 C1005 0.950 . S
C994 H986 0.950 . S
C994 C995 1.386 . S
C994 C996 1.391 . S
C995 C994 1.386 . S
C995 C999 1.393 . S
C996 H988 0.950 . S
C996 C994 1.391 . S
C996 C997 1.400 . S
C997 C996 1.400 . S
C997 C998 1.398 . S
C997 C1003 1.491 . S
C998 H989 0.950 . S
C998 C997 1.398 . S
C998 C999 1.391 . S
C999 H987 0.950 . S
C999 C995 1.393 . S
C999 C998 1.391 . S
C1000 H990 0.950 . S
C1000 C1001 1.386 . S
C1000 C1002 1.391 . S
C1001 C1000 1.386 . S
C1001 C1005 1.393 . S
C1002 H991 0.950 . S
C1002 C1000 1.391 . S
C1002 C1003 1.400 . S
C1003 C997 1.491 . S
C1003 C1002 1.400 . S
C1003 C1004 1.398 . S
C1004 H992 0.950 . S
C1004 C1003 1.398 . S
C1004 C1005 1.391 . S
C1005 H993 0.950 . S
C1005 C1001 1.393 . S
C1005 C1004 1.391 . S
H1006 C1014 0.950 . S
H1007 C1019 0.950 . S
H1008 C1016 0.950 . S
H1009 C1018 0.950 . S
H1010 C1020 0.950 . S
H1011 C1022 0.950 . S
H1012 C1024 0.950 . S
H1013 C1025 0.950 . S
C1014 H1006 0.950 . S
C1014 C1015 1.386 . S
C1014 C1016 1.391 . S
C1015 C1014 1.386 . S
C1015 C1019 1.393 . S
C1016 H1008 0.950 . S
C1016 C1014 1.391 . S
C1016 C1017 1.400 . S
C1017 C1016 1.400 . S
C1017 C1018 1.398 . S
C1017 C1023 1.491 . S
C1018 H1009 0.950 . S
C1018 C1017 1.398 . S
C1018 C1019 1.391 . S
C1019 H1007 0.950 . S
C1019 C1015 1.393 . S
C1019 C1018 1.391 . S
C1020 H1010 0.950 . S
C1020 C1021 1.386 . S
C1020 C1022 1.391 . S
C1021 C1020 1.386 . S
C1021 C1025 1.393 . S
C1022 H1011 0.950 . S
C1022 C1020 1.391 . S
C1022 C1023 1.400 . S
C1023 C1017 1.491 . S
C1023 C1022 1.400 . S
C1023 C1024 1.398 . S
C1024 H1012 0.950 . S
C1024 C1023 1.398 . S
C1024 C1025 1.391 . S
C1025 H1013 0.950 . S
C1025 C1021 1.393 . S
C1025 C1024 1.391 . S
H1026 C1034 0.950 . S
H1027 C1039 0.950 . S
H1028 C1036 0.950 . S
H1029 C1038 0.950 . S
H1030 C1040 0.959 . S
H1031 C1042 0.950 . S
H1032 C1044 0.950 . S
H1033 C1045 0.950 . S
C1034 H1026 0.950 . S
C1034 C1035 1.386 . S
C1034 C1036 1.391 . S
C1035 C1034 1.386 . S
C1035 C1039 1.393 . S
C1036 H1028 0.950 . S
C1036 C1034 1.391 . S
C1036 C1037 1.400 . S
C1037 C1036 1.400 . S
C1037 C1038 1.398 . S
C1037 C1043 1.491 . S
C1038 H1029 0.950 . S
C1038 C1037 1.398 . S
C1038 C1039 1.391 . S
C1039 H1027 0.950 . S
C1039 C1035 1.393 . S
C1039 C1038 1.391 . S
C1040 H1030 0.959 . S
C1040 C1041 1.383 1_554 S
C1040 C1042 1.384 1_554 S
C1041 C1040 1.383 1_556 S
C1041 C1045 1.393 . S
C1042 H1031 0.950 . S
C1042 C1040 1.384 1_556 S
C1042 C1043 1.400 . S
C1043 C1037 1.491 . S
C1043 C1042 1.400 . S
C1043 C1044 1.398 . S
C1044 H1032 0.950 . S
C1044 C1043 1.398 . S
C1044 C1045 1.391 . S
C1045 H1033 0.950 . S
C1045 C1041 1.393 . S
C1045 C1044 1.391 . S
H1046 C1054 0.950 . S
H1047 C1059 0.950 . S
H1048 C1056 0.950 . S
H1049 C1058 0.950 . S
H1050 C1060 0.950 1_554 S
H1051 C1062 0.950 . S
H1052 C1064 0.950 . S
H1053 C1065 0.950 . S
C1054 H1046 0.950 . S
C1054 C1055 1.386 . S
C1054 C1056 1.391 . S
C1055 C1054 1.386 . S
C1055 C1059 1.393 . S
C1056 H1048 0.950 . S
C1056 C1054 1.391 . S
C1056 C1057 1.400 . S
C1057 C1056 1.400 . S
C1057 C1058 1.398 . S
C1057 C1063 1.491 . S
C1058 H1049 0.950 . S
C1058 C1057 1.398 . S
C1058 C1059 1.391 . S
C1059 H1047 0.950 . S
C1059 C1055 1.393 . S
C1059 C1058 1.391 . S
C1060 H1050 0.950 1_556 S
C1060 C1061 1.386 . S
C1060 C1062 1.391 . S
C1061 C1060 1.386 . S
C1061 C1065 1.393 . S
C1062 H1051 0.950 . S
C1062 C1060 1.391 . S
C1062 C1063 1.400 . S
C1063 C1057 1.491 . S
C1063 C1062 1.400 . S
C1063 C1064 1.398 . S
C1064 H1052 0.950 . S
C1064 C1063 1.398 . S
C1064 C1065 1.391 . S
C1065 H1053 0.950 . S
C1065 C1061 1.393 . S
C1065 C1064 1.391 . S
H1066 C1074 0.950 . S
H1067 C1079 0.950 . S
H1068 C1076 0.950 . S
H1069 C1078 0.950 . S
H1070 C1080 0.950 . S
H1071 C1082 0.950 . S
H1072 C1084 0.950 . S
H1073 C1085 0.950 . S
C1074 H1066 0.950 . S
C1074 C1075 1.386 . S
C1074 C1076 1.391 . S
C1075 C1074 1.386 . S
C1075 C1079 1.393 . S
C1076 H1068 0.950 . S
C1076 C1074 1.391 . S
C1076 C1077 1.400 . S
C1077 C1076 1.400 . S
C1077 C1078 1.398 . S
C1077 C1083 1.491 . S
C1078 H1069 0.950 . S
C1078 C1077 1.398 . S
C1078 C1079 1.391 . S
C1079 H1067 0.950 . S
C1079 C1075 1.393 . S
C1079 C1078 1.391 . S
C1080 H1070 0.950 . S
C1080 C1081 1.386 . S
C1080 C1082 1.391 . S
C1081 C1080 1.386 . S
C1081 C1085 1.393 . S
C1082 H1071 0.950 . S
C1082 C1080 1.391 . S
C1082 C1083 1.400 . S
C1083 C1077 1.491 . S
C1083 C1082 1.400 . S
C1083 C1084 1.398 . S
C1084 H1072 0.950 . S
C1084 C1083 1.398 . S
C1084 C1085 1.391 . S
C1085 H1073 0.950 . S
C1085 C1081 1.393 . S
C1085 C1084 1.391 . S
H1086 C1094 0.950 . S
H1087 C1099 0.950 . S
H1088 C1096 0.950 . S
H1089 C1098 0.950 . S
H1090 C1100 0.950 . S
H1091 C1102 0.950 . S
H1092 C1104 0.950 . S
H1093 C1105 0.950 . S
C1094 H1086 0.950 . S
C1094 C1095 1.386 . S
C1094 C1096 1.391 . S
C1095 C1094 1.386 . S
C1095 C1099 1.393 . S
C1096 H1088 0.950 . S
C1096 C1094 1.391 . S
C1096 C1097 1.400 . S
C1097 C1096 1.400 . S
C1097 C1098 1.398 . S
C1097 C1103 1.491 . S
C1098 H1089 0.950 . S
C1098 C1097 1.398 . S
C1098 C1099 1.391 . S
C1099 H1087 0.950 . S
C1099 C1095 1.393 . S
C1099 C1098 1.391 . S
C1100 H1090 0.950 . S
C1100 C1101 1.386 . S
C1100 C1102 1.391 . S
C1101 C1100 1.386 . S
C1101 C1105 1.393 . S
C1102 H1091 0.950 . S
C1102 C1100 1.391 . S
C1102 C1103 1.400 . S
C1103 C1097 1.491 . S
C1103 C1102 1.400 . S
C1103 C1104 1.398 . S
C1104 H1092 0.950 . S
C1104 C1103 1.398 . S
C1104 C1105 1.391 . S
C1105 H1093 0.950 . S
C1105 C1101 1.393 . S
C1105 C1104 1.391 . S
H1106 C1114 0.950 . S
H1107 C1119 0.950 . S
H1108 C1116 0.950 . S
H1109 C1118 0.950 . S
H1110 C1120 0.950 . S
H1111 C1122 0.950 . S
H1112 C1124 0.950 . S
H1113 C1125 0.950 . S
C1114 H1106 0.950 . S
C1114 C1115 1.386 . S
C1114 C1116 1.391 . S
C1115 C1114 1.386 . S
C1115 C1119 1.393 . S
C1116 H1108 0.950 . S
C1116 C1114 1.391 . S
C1116 C1117 1.400 . S
C1117 C1116 1.400 . S
C1117 C1118 1.398 . S
C1117 C1123 1.491 . S
C1118 H1109 0.950 . S
C1118 C1117 1.398 . S
C1118 C1119 1.391 . S
C1119 H1107 0.950 . S
C1119 C1115 1.393 . S
C1119 C1118 1.391 . S
C1120 H1110 0.950 . S
C1120 C1121 1.386 . S
C1120 C1122 1.391 . S
C1121 C1120 1.386 . S
C1121 C1125 1.393 . S
C1122 H1111 0.950 . S
C1122 C1120 1.391 . S
C1122 C1123 1.400 . S
C1123 C1117 1.491 . S
C1123 C1122 1.400 . S
C1123 C1124 1.398 . S
C1124 H1112 0.950 . S
C1124 C1123 1.398 . S
C1124 C1125 1.391 . S
C1125 H1113 0.950 . S
C1125 C1121 1.393 . S
C1125 C1124 1.391 . S
H1126 C1134 0.950 . S
H1127 C1139 0.950 . S
H1128 C1136 0.950 . S
H1129 C1138 0.950 . S
H1130 C1140 0.950 . S
H1131 C1142 0.950 . S
H1132 C1144 0.950 . S
H1133 C1145 0.950 . S
C1134 H1126 0.950 . S
C1134 C1135 1.386 . S
C1134 C1136 1.391 . S
C1135 C1134 1.386 . S
C1135 C1139 1.393 . S
C1136 H1128 0.950 . S
C1136 C1134 1.391 . S
C1136 C1137 1.400 . S
C1137 C1136 1.400 . S
C1137 C1138 1.398 . S
C1137 C1143 1.491 . S
C1138 H1129 0.950 . S
C1138 C1137 1.398 . S
C1138 C1139 1.391 . S
C1139 H1127 0.950 . S
C1139 C1135 1.393 . S
C1139 C1138 1.391 . S
C1140 H1130 0.950 . S
C1140 C1141 1.386 . S
C1140 C1142 1.391 . S
C1141 C1140 1.386 . S
C1141 C1145 1.393 . S
C1142 H1131 0.950 . S
C1142 C1140 1.391 . S
C1142 C1143 1.400 . S
C1143 C1137 1.491 . S
C1143 C1142 1.400 . S
C1143 C1144 1.398 . S
C1144 H1132 0.950 . S
C1144 C1143 1.398 . S
C1144 C1145 1.391 . S
C1145 H1133 0.950 . S
C1145 C1141 1.393 . S
C1145 C1144 1.391 . S
H1146 C1154 0.950 . S
H1147 C1159 0.950 . S
H1148 C1156 0.950 . S
H1149 C1158 0.950 . S
H1150 C1160 0.950 . S
H1151 C1162 0.950 . S
H1152 C1164 0.950 . S
H1153 C1165 0.950 . S
C1154 H1146 0.950 . S
C1154 C1155 1.386 . S
C1154 C1156 1.391 . S
C1155 C1154 1.386 . S
C1155 C1159 1.393 . S
C1156 H1148 0.950 . S
C1156 C1154 1.391 . S
C1156 C1157 1.400 . S
C1157 C1156 1.400 . S
C1157 C1158 1.398 . S
C1157 C1163 1.491 . S
C1158 H1149 0.950 . S
C1158 C1157 1.398 . S
C1158 C1159 1.391 . S
C1159 H1147 0.950 . S
C1159 C1155 1.393 . S
C1159 C1158 1.391 . S
C1160 H1150 0.950 . S
C1160 C1161 1.386 . S
C1160 C1162 1.391 . S
C1161 C1160 1.386 . S
C1161 C1165 1.393 . S
C1162 H1151 0.950 . S
C1162 C1160 1.391 . S
C1162 C1163 1.400 . S
C1163 C1157 1.491 . S
C1163 C1162 1.400 . S
C1163 C1164 1.398 . S
C1164 H1152 0.950 . S
C1164 C1163 1.398 . S
C1164 C1165 1.391 . S
C1165 H1153 0.950 . S
C1165 C1161 1.393 . S
C1165 C1164 1.391 . S
H1166 C1174 0.950 . S
H1167 C1179 0.950 . S
H1168 C1176 0.950 . S
H1169 C1178 0.950 . S
H1170 C1180 0.950 . S
H1171 C1182 0.950 . S
H1172 C1184 0.950 . S
H1173 C1185 0.950 . S
C1174 H1166 0.950 . S
C1174 C1175 1.386 . S
C1174 C1176 1.391 . S
C1175 C1174 1.386 . S
C1175 C1179 1.393 . S
C1176 H1168 0.950 . S
C1176 C1174 1.391 . S
C1176 C1177 1.400 . S
C1177 C1176 1.400 . S
C1177 C1178 1.398 . S
C1177 C1183 1.491 . S
C1178 H1169 0.950 . S
C1178 C1177 1.398 . S
C1178 C1179 1.391 . S
C1179 H1167 0.950 . S
C1179 C1175 1.393 . S
C1179 C1178 1.391 . S
C1180 H1170 0.950 . S
C1180 C1181 1.386 . S
C1180 C1182 1.391 . S
C1181 C1180 1.386 . S
C1181 C1185 1.393 . S
C1182 H1171 0.950 . S
C1182 C1180 1.391 . S
C1182 C1183 1.400 . S
C1183 C1177 1.491 . S
C1183 C1182 1.400 . S
C1183 C1184 1.398 . S
C1184 H1172 0.950 . S
C1184 C1183 1.398 . S
C1184 C1185 1.391 . S
C1185 H1173 0.950 . S
C1185 C1181 1.393 . S
C1185 C1184 1.391 . S
H1186 C1194 0.950 . S
H1187 C1199 0.950 . S
H1188 C1196 0.950 . S
H1189 C1198 0.950 . S
H1190 C1200 0.950 . S
H1191 C1202 0.950 . S
H1192 C1204 0.950 . S
H1193 C1205 0.950 . S
C1194 H1186 0.950 . S
C1194 C1195 1.386 . S
C1194 C1196 1.391 . S
C1195 C1194 1.386 . S
C1195 C1199 1.393 . S
C1196 H1188 0.950 . S
C1196 C1194 1.391 . S
C1196 C1197 1.400 . S
C1197 C1196 1.400 . S
C1197 C1198 1.398 . S
C1197 C1203 1.491 . S
C1198 H1189 0.950 . S
C1198 C1197 1.398 . S
C1198 C1199 1.391 . S
C1199 H1187 0.950 . S
C1199 C1195 1.393 . S
C1199 C1198 1.391 . S
C1200 H1190 0.950 . S
C1200 C1201 1.386 . S
C1200 C1202 1.391 . S
C1201 C1200 1.386 . S
C1201 C1205 1.393 . S
C1202 H1191 0.950 . S
C1202 C1200 1.391 . S
C1202 C1203 1.400 . S
C1203 C1197 1.491 . S
C1203 C1202 1.400 . S
C1203 C1204 1.398 . S
C1204 H1192 0.950 . S
C1204 C1203 1.398 . S
C1204 C1205 1.391 . S
C1205 H1193 0.950 . S
C1205 C1201 1.393 . S
C1205 C1204 1.391 . S
H1206 C1214 0.950 1_565 S
H1207 C1219 0.950 . S
H1208 C1216 0.950 1_565 S
H1209 C1218 0.950 . S
H1210 C1220 0.950 . S
H1211 C1222 0.950 . S
H1212 C1224 0.950 1_565 S
H1213 C1225 0.950 1_565 S
C1214 H1206 0.950 1_545 S
C1214 C1215 1.386 . S
C1214 C1216 1.391 . S
C1215 C1214 1.386 . S
C1215 C1219 1.393 . S
C1216 H1208 0.950 1_545 S
C1216 C1214 1.391 . S
C1216 C1217 1.400 . S
C1217 C1216 1.400 . S
C1217 C1218 1.398 . S
C1217 C1223 1.491 . S
C1218 H1209 0.950 . S
C1218 C1217 1.398 . S
C1218 C1219 1.391 . S
C1219 H1207 0.950 . S
C1219 C1215 1.393 . S
C1219 C1218 1.391 . S
C1220 H1210 0.950 . S
C1220 C1221 1.386 . S
C1220 C1222 1.391 . S
C1221 C1220 1.386 . S
C1221 C1225 1.393 . S
C1222 H1211 0.950 . S
C1222 C1220 1.391 . S
C1222 C1223 1.400 . S
C1223 C1217 1.491 . S
C1223 C1222 1.400 . S
C1223 C1224 1.398 . S
C1224 H1212 0.950 1_545 S
C1224 C1223 1.398 . S
C1224 C1225 1.391 . S
C1225 H1213 0.950 1_545 S
C1225 C1221 1.393 . S
C1225 C1224 1.391 . S
H1226 C1234 0.950 . S
H1227 C1239 0.950 . S
H1228 C1236 0.950 . S
H1229 C1238 0.950 . S
H1230 C1240 0.950 . S
H1231 C1242 0.950 . S
H1232 C1244 0.950 . S
H1233 C1245 0.950 1_455 S
C1234 H1226 0.950 . S
C1234 C1235 1.386 . S
C1234 C1236 1.391 . S
C1235 C1234 1.386 . S
C1235 C1239 1.393 . S
C1236 H1228 0.950 . S
C1236 C1234 1.391 . S
C1236 C1237 1.400 . S
C1237 C1236 1.400 . S
C1237 C1238 1.398 . S
C1237 C1243 1.491 . S
C1238 H1229 0.950 . S
C1238 C1237 1.398 . S
C1238 C1239 1.391 . S
C1239 H1227 0.950 . S
C1239 C1235 1.393 . S
C1239 C1238 1.391 . S
C1240 H1230 0.950 . S
C1240 C1241 1.386 . S
C1240 C1242 1.391 . S
C1241 C1240 1.386 . S
C1241 C1245 1.393 . S
C1242 H1231 0.950 . S
C1242 C1240 1.391 . S
C1242 C1243 1.400 . S
C1243 C1237 1.491 . S
C1243 C1242 1.400 . S
C1243 C1244 1.398 . S
C1244 H1232 0.950 . S
C1244 C1243 1.398 . S
C1244 C1245 1.391 . S
C1245 H1233 0.950 1_655 S
C1245 C1241 1.393 . S
C1245 C1244 1.391 . S
H1246 C1254 0.950 . S
H1247 C1259 0.950 . S
H1248 C1256 0.950 . S
H1249 C1258 0.950 . S
H1250 C1260 0.950 . S
H1251 C1262 0.950 . S
H1252 C1264 0.950 . S
H1253 C1265 0.950 . S
C1254 H1246 0.950 . S
C1254 C1255 1.386 . S
C1254 C1256 1.391 . S
C1255 C1254 1.386 . S
C1255 C1259 1.393 . S
C1256 H1248 0.950 . S
C1256 C1254 1.391 . S
C1256 C1257 1.400 . S
C1257 C1256 1.400 . S
C1257 C1258 1.398 . S
C1257 C1263 1.491 . S
C1258 H1249 0.950 . S
C1258 C1257 1.398 . S
C1258 C1259 1.391 . S
C1259 H1247 0.950 . S
C1259 C1255 1.393 . S
C1259 C1258 1.391 . S
C1260 H1250 0.950 . S
C1260 C1261 1.386 . S
C1260 C1262 1.391 . S
C1261 C1260 1.386 . S
C1261 C1265 1.393 . S
C1262 H1251 0.950 . S
C1262 C1260 1.391 . S
C1262 C1263 1.400 . S
C1263 C1257 1.491 . S
C1263 C1262 1.400 . S
C1263 C1264 1.398 . S
C1264 H1252 0.950 . S
C1264 C1263 1.398 . S
C1264 C1265 1.391 . S
C1265 H1253 0.950 . S
C1265 C1261 1.393 . S
C1265 C1264 1.391 . S
H1266 C1274 0.950 . S
H1267 C1279 0.950 . S
H1268 C1276 0.944 1_655 S
H1269 C1278 0.950 . S
H1270 C1280 0.950 . S
H1271 C1282 0.950 . S
H1272 C1284 0.950 1_655 S
H1273 C1285 0.950 1_655 S
C1274 H1266 0.950 . S
C1274 C1275 1.386 . S
C1274 C1276 1.391 . S
C1275 C1274 1.386 . S
C1275 C1279 1.393 . S
C1276 H1268 0.944 1_455 S
C1276 C1274 1.391 . S
C1276 C1277 1.400 . S
C1277 C1276 1.400 . S
C1277 C1278 1.398 . S
C1277 C1283 1.491 . S
C1278 H1269 0.950 . S
C1278 C1277 1.398 . S
C1278 C1279 1.391 . S
C1279 H1267 0.950 . S
C1279 C1275 1.393 . S
C1279 C1278 1.391 . S
C1280 H1270 0.950 . S
C1280 C1281 1.386 . S
C1280 C1282 1.391 . S
C1281 C1280 1.386 . S
C1281 C1285 1.393 . S
C1282 H1271 0.950 . S
C1282 C1280 1.391 . S
C1282 C1283 1.400 . S
C1283 C1277 1.491 . S
C1283 C1282 1.400 . S
C1283 C1284 1.398 . S
C1284 H1272 0.950 1_455 S
C1284 C1283 1.398 . S
C1284 C1285 1.391 . S
C1285 H1273 0.950 1_455 S
C1285 C1281 1.393 . S
C1285 C1284 1.391 . S
H1286 C1294 0.950 . S
H1287 C1299 0.950 . S
H1288 C1296 0.950 . S
H1289 C1298 0.950 . S
H1290 C1300 0.950 . S
H1291 C1302 0.950 . S
H1292 C1304 0.950 . S
H1293 C1305 0.950 . S
C1294 H1286 0.950 . S
C1294 C1295 1.386 . S
C1294 C1296 1.391 . S
C1295 C1294 1.386 . S
C1295 C1299 1.393 . S
C1296 H1288 0.950 . S
C1296 C1294 1.391 . S
C1296 C1297 1.400 . S
C1297 C1296 1.400 . S
C1297 C1298 1.398 . S
C1297 C1303 1.491 . S
C1298 H1289 0.950 . S
C1298 C1297 1.398 . S
C1298 C1299 1.391 . S
C1299 H1287 0.950 . S
C1299 C1295 1.393 . S
C1299 C1298 1.391 . S
C1300 H1290 0.950 . S
C1300 C1301 1.386 . S
C1300 C1302 1.391 . S
C1301 C1300 1.386 . S
C1301 C1305 1.393 . S
C1302 H1291 0.950 . S
C1302 C1300 1.391 . S
C1302 C1303 1.400 . S
C1303 C1297 1.491 . S
C1303 C1302 1.400 . S
C1303 C1304 1.398 . S
C1304 H1292 0.950 . S
C1304 C1303 1.398 . S
C1304 C1305 1.391 . S
C1305 H1293 0.950 . S
C1305 C1301 1.393 . S
C1305 C1304 1.391 . S
H1306 C1314 0.950 . S
H1307 C1319 0.950 . S
H1308 C1316 0.950 . S
H1309 C1318 0.950 . S
H1310 C1320 0.950 . S
H1311 C1322 0.950 . S
H1312 C1324 0.950 . S
H1313 C1325 0.950 . S
C1314 H1306 0.950 . S
C1314 C1315 1.386 1_545 S
C1314 C1316 1.391 . S
C1315 C1314 1.386 1_565 S
C1315 C1319 1.393 . S
C1316 H1308 0.950 . S
C1316 C1314 1.391 . S
C1316 C1317 1.400 1_545 S
C1317 C1316 1.400 1_565 S
C1317 C1318 1.398 . S
C1317 C1323 1.491 . S
C1318 H1309 0.950 . S
C1318 C1317 1.398 . S
C1318 C1319 1.391 . S
C1319 H1307 0.950 . S
C1319 C1315 1.393 . S
C1319 C1318 1.391 . S
C1320 H1310 0.950 . S
C1320 C1321 1.386 . S
C1320 C1322 1.391 . S
C1321 C1320 1.386 . S
C1321 C1325 1.393 1_565 S
C1322 H1311 0.950 . S
C1322 C1320 1.391 . S
C1322 C1323 1.400 . S
C1323 C1317 1.491 . S
C1323 C1322 1.400 . S
C1323 C1324 1.398 1_565 S
C1324 H1312 0.950 . S
C1324 C1323 1.398 1_545 S
C1324 C1325 1.391 . S
C1325 H1313 0.950 . S
C1325 C1321 1.393 1_545 S
C1325 C1324 1.391 . S
H1326 C1334 0.950 . S
H1327 C1339 0.950 1_545 S
H1328 C1336 0.950 . S
H1329 C1338 0.950 1_545 S
H1330 C1340 0.950 . S
H1331 C1342 0.950 . S
H1332 C1344 0.950 . S
H1333 C1345 0.950 . S
C1334 H1326 0.950 . S
C1334 C1335 1.386 . S
C1334 C1336 1.391 . S
C1335 C1334 1.386 . S
C1335 C1339 1.393 . S
C1336 H1328 0.950 . S
C1336 C1334 1.391 . S
C1336 C1337 1.400 . S
C1337 C1336 1.400 . S
C1337 C1338 1.398 . S
C1337 C1343 1.491 . S
C1338 H1329 0.950 1_565 S
C1338 C1337 1.398 . S
C1338 C1339 1.391 . S
C1339 H1327 0.950 1_565 S
C1339 C1335 1.393 . S
C1339 C1338 1.391 . S
C1340 H1330 0.950 . S
C1340 C1341 1.386 1_545 S
C1340 C1342 1.391 . S
C1341 C1340 1.386 1_565 S
C1341 C1345 1.393 . S
C1342 H1331 0.950 . S
C1342 C1340 1.391 . S
C1342 C1343 1.400 1_545 S
C1343 C1337 1.491 . S
C1343 C1342 1.400 1_565 S
C1343 C1344 1.398 . S
C1344 H1332 0.950 . S
C1344 C1343 1.398 . S
C1344 C1345 1.391 . S
C1345 H1333 0.950 . S
C1345 C1341 1.393 . S
C1345 C1344 1.391 . S
H1346 C1354 0.950 . S
H1347 C1359 0.950 . S
H1348 C1356 0.950 . S
H1349 C1358 0.950 . S
H1350 C1360 0.950 . S
H1351 C1362 0.950 . S
H1352 C1364 0.950 . S
H1353 C1365 0.950 . S
C1354 H1346 0.950 . S
C1354 C1355 1.386 . S
C1354 C1356 1.391 . S
C1355 C1354 1.386 . S
C1355 C1359 1.393 . S
C1356 H1348 0.950 . S
C1356 C1354 1.391 . S
C1356 C1357 1.400 . S
C1357 C1356 1.400 . S
C1357 C1358 1.398 . S
C1357 C1363 1.491 . S
C1358 H1349 0.950 . S
C1358 C1357 1.398 . S
C1358 C1359 1.391 . S
C1359 H1347 0.950 . S
C1359 C1355 1.393 . S
C1359 C1358 1.391 . S
C1360 H1350 0.950 . S
C1360 C1361 1.386 . S
C1360 C1362 1.391 . S
C1361 C1360 1.386 . S
C1361 C1365 1.393 . S
C1362 H1351 0.950 . S
C1362 C1360 1.391 . S
C1362 C1363 1.400 . S
C1363 C1357 1.491 . S
C1363 C1362 1.400 . S
C1363 C1364 1.398 . S
C1364 H1352 0.950 . S
C1364 C1363 1.398 . S
C1364 C1365 1.391 . S
C1365 H1353 0.950 . S
C1365 C1361 1.393 . S
C1365 C1364 1.391 . S
H1366 C1374 0.950 . S
H1367 C1379 0.950 . S
H1368 C1376 0.950 . S
H1369 C1378 0.950 . S
H1370 C1380 0.950 . S
H1371 C1382 0.950 . S
H1372 C1384 0.950 . S
H1373 C1385 0.950 . S
C1374 H1366 0.950 . S
C1374 C1375 1.386 . S
C1374 C1376 1.391 . S
C1375 C1374 1.386 . S
C1375 C1379 1.393 . S
C1376 H1368 0.950 . S
C1376 C1374 1.391 . S
C1376 C1377 1.400 . S
C1377 C1376 1.400 . S
C1377 C1378 1.398 . S
C1377 C1383 1.491 . S
C1378 H1369 0.950 . S
C1378 C1377 1.398 . S
C1378 C1379 1.391 . S
C1379 H1367 0.950 . S
C1379 C1375 1.393 . S
C1379 C1378 1.391 . S
C1380 H1370 0.950 . S
C1380 C1381 1.386 . S
C1380 C1382 1.391 . S
C1381 C1380 1.386 . S
C1381 C1385 1.393 . S
C1382 H1371 0.950 . S
C1382 C1380 1.391 . S
C1382 C1383 1.400 . S
C1383 C1377 1.491 . S
C1383 C1382 1.400 . S
C1383 C1384 1.398 . S
C1384 H1372 0.950 . S
C1384 C1383 1.398 . S
C1384 C1385 1.391 . S
C1385 H1373 0.950 . S
C1385 C1381 1.393 . S
C1385 C1384 1.391 . S
H1386 C1394 0.950 . S
H1387 C1399 0.950 . S
H1388 C1396 0.950 . S
H1389 C1398 0.950 . S
H1390 C1400 0.950 . S
H1391 C1402 0.950 . S
H1392 C1404 0.950 . S
H1393 C1405 0.950 . S
C1394 H1386 0.950 . S
C1394 C1395 1.386 1_455 S
C1394 C1396 1.391 . S
C1395 C1394 1.386 1_655 S
C1395 C1399 1.393 . S
C1396 H1388 0.950 . S
C1396 C1394 1.391 . S
C1396 C1397 1.400 1_455 S
C1397 C1396 1.400 1_655 S
C1397 C1398 1.398 . S
C1397 C1403 1.491 . S
C1398 H1389 0.950 . S
C1398 C1397 1.398 . S
C1398 C1399 1.391 . S
C1399 H1387 0.950 . S
C1399 C1395 1.393 . S
C1399 C1398 1.391 . S
C1400 H1390 0.950 . S
C1400 C1401 1.386 . S
C1400 C1402 1.391 . S
C1401 C1400 1.386 . S
C1401 C1405 1.393 1_655 S
C1402 H1391 0.950 . S
C1402 C1400 1.391 . S
C1402 C1403 1.400 . S
C1403 C1397 1.491 . S
C1403 C1402 1.400 . S
C1403 C1404 1.398 1_655 S
C1404 H1392 0.950 . S
C1404 C1403 1.398 1_455 S
C1404 C1405 1.391 . S
C1405 H1393 0.950 . S
C1405 C1401 1.393 1_455 S
C1405 C1404 1.391 . S
H1406 C1414 0.950 . S
H1407 C1419 0.950 . S
H1408 C1416 0.950 . S
H1409 C1418 0.950 . S
H1410 C1420 0.950 . S
H1411 C1422 0.950 . S
H1412 C1424 0.950 . S
H1413 C1425 0.950 . S
C1414 H1406 0.950 . S
C1414 C1415 1.386 . S
C1414 C1416 1.391 . S
C1415 C1414 1.386 . S
C1415 C1419 1.393 . S
C1416 H1408 0.950 . S
C1416 C1414 1.391 . S
C1416 C1417 1.400 . S
C1417 C1416 1.400 . S
C1417 C1418 1.398 . S
C1417 C1423 1.491 . S
C1418 H1409 0.950 . S
C1418 C1417 1.398 . S
C1418 C1419 1.391 . S
C1419 H1407 0.950 . S
C1419 C1415 1.393 . S
C1419 C1418 1.391 . S
C1420 H1410 0.950 . S
C1420 C1421 1.386 . S
C1420 C1422 1.391 . S
C1421 C1420 1.386 . S
C1421 C1425 1.393 . S
C1422 H1411 0.950 . S
C1422 C1420 1.391 . S
C1422 C1423 1.400 . S
C1423 C1417 1.491 . S
C1423 C1422 1.400 . S
C1423 C1424 1.398 . S
C1424 H1412 0.950 . S
C1424 C1423 1.398 . S
C1424 C1425 1.391 . S
C1425 H1413 0.950 . S
C1425 C1421 1.393 . S
C1425 C1424 1.391 . S
H1426 C1434 0.950 . S
H1427 C1439 0.950 . S
H1428 C1436 0.950 . S
H1429 C1438 0.968 . S
H1430 C1440 0.950 1_565 S
H1431 C1442 0.950 1_565 S
H1432 C1444 0.950 . S
H1433 C1445 0.950 . S
C1434 H1426 0.950 . S
C1434 C1435 1.386 . S
C1434 C1436 1.391 . S
C1435 C1434 1.386 . S
C1435 C1439 1.393 . S
C1436 H1428 0.950 . S
C1436 C1434 1.391 . S
C1436 C1437 1.400 . S
C1437 C1436 1.400 . S
C1437 C1438 1.398 . S
C1437 C1443 1.491 . S
C1438 H1429 0.968 . S
C1438 C1437 1.398 . S
C1438 C1439 1.391 . S
C1439 H1427 0.950 . S
C1439 C1435 1.393 . S
C1439 C1438 1.391 . S
C1440 H1430 0.950 1_545 S
C1440 C1441 1.386 . S
C1440 C1442 1.391 . S
C1441 C1440 1.386 . S
C1441 C1445 1.393 . S
C1442 H1431 0.950 1_545 S
C1442 C1440 1.391 . S
C1442 C1443 1.400 . S
C1443 C1437 1.491 . S
C1443 C1442 1.400 . S
C1443 C1444 1.398 . S
C1444 H1432 0.950 . S
C1444 C1443 1.398 . S
C1444 C1445 1.391 . S
C1445 H1433 0.950 . S
C1445 C1441 1.393 . S
C1445 C1444 1.391 . S
H1446 C1454 0.950 . S
H1447 C1459 0.950 . S
H1448 C1456 0.950 . S
H1449 C1458 0.950 . S
H1450 C1460 0.950 . S
H1451 C1462 0.950 . S
H1452 C1464 0.950 . S
H1453 C1465 0.950 . S
C1454 H1446 0.950 . S
C1454 C1455 1.386 . S
C1454 C1456 1.391 . S
C1455 C1454 1.386 . S
C1455 C1459 1.393 . S
C1456 H1448 0.950 . S
C1456 C1454 1.391 . S
C1456 C1457 1.400 . S
C1457 C1456 1.400 . S
C1457 C1458 1.398 . S
C1457 C1463 1.491 . S
C1458 H1449 0.950 . S
C1458 C1457 1.398 . S
C1458 C1459 1.391 . S
C1459 H1447 0.950 . S
C1459 C1455 1.393 . S
C1459 C1458 1.391 . S
C1460 H1450 0.950 . S
C1460 C1461 1.386 . S
C1460 C1462 1.391 . S
C1461 C1460 1.386 . S
C1461 C1465 1.393 . S
C1462 H1451 0.950 . S
C1462 C1460 1.391 . S
C1462 C1463 1.400 . S
C1463 C1457 1.491 . S
C1463 C1462 1.400 . S
C1463 C1464 1.398 . S
C1464 H1452 0.950 . S
C1464 C1463 1.398 . S
C1464 C1465 1.391 . S
C1465 H1453 0.950 . S
C1465 C1461 1.393 . S
C1465 C1464 1.391 . S
H1466 C1474 0.950 . S
H1467 C1479 0.950 . S
H1468 C1476 0.950 . S
H1469 C1478 0.950 . S
H1470 C1480 0.950 . S
H1471 C1482 0.950 . S
H1472 C1484 0.950 . S
H1473 C1485 0.950 . S
C1474 H1466 0.950 . S
C1474 C1475 1.386 . S
C1474 C1476 1.391 . S
C1475 C1474 1.386 . S
C1475 C1479 1.393 . S
C1476 H1468 0.950 . S
C1476 C1474 1.391 . S
C1476 C1477 1.400 . S
C1477 C1476 1.400 . S
C1477 C1478 1.398 . S
C1477 C1483 1.491 . S
C1478 H1469 0.950 . S
C1478 C1477 1.398 . S
C1478 C1479 1.391 . S
C1479 H1467 0.950 . S
C1479 C1475 1.393 . S
C1479 C1478 1.391 . S
C1480 H1470 0.950 . S
C1480 C1481 1.386 . S
C1480 C1482 1.391 . S
C1481 C1480 1.386 . S
C1481 C1485 1.393 . S
C1482 H1471 0.950 . S
C1482 C1480 1.391 . S
C1482 C1483 1.400 . S
C1483 C1477 1.491 . S
C1483 C1482 1.400 . S
C1483 C1484 1.398 . S
C1484 H1472 0.950 . S
C1484 C1483 1.398 . S
C1484 C1485 1.391 . S
C1485 H1473 0.950 . S
C1485 C1481 1.393 . S
C1485 C1484 1.391 . S
H1486 C1494 0.950 . S
H1487 C1499 0.950 . S
H1488 C1496 0.950 . S
H1489 C1498 0.950 . S
H1490 C1500 0.950 . S
H1491 C1502 0.950 . S
H1492 C1504 0.950 . S
H1493 C1505 0.950 . S
C1494 H1486 0.950 . S
C1494 C1495 1.386 . S
C1494 C1496 1.391 . S
C1495 C1494 1.386 . S
C1495 C1499 1.393 . S
C1496 H1488 0.950 . S
C1496 C1494 1.391 . S
C1496 C1497 1.400 . S
C1497 C1496 1.400 . S
C1497 C1498 1.398 . S
C1497 C1503 1.491 . S
C1498 H1489 0.950 . S
C1498 C1497 1.398 . S
C1498 C1499 1.391 . S
C1499 H1487 0.950 . S
C1499 C1495 1.393 . S
C1499 C1498 1.391 . S
C1500 H1490 0.950 . S
C1500 C1501 1.386 . S
C1500 C1502 1.391 . S
C1501 C1500 1.386 . S
C1501 C1505 1.393 . S
C1502 H1491 0.950 . S
C1502 C1500 1.391 . S
C1502 C1503 1.400 . S
C1503 C1497 1.491 . S
C1503 C1502 1.400 . S
C1503 C1504 1.398 . S
C1504 H1492 0.950 . S
C1504 C1503 1.398 . S
C1504 C1505 1.391 . S
C1505 H1493 0.950 . S
C1505 C1501 1.393 . S
C1505 C1504 1.391 . S
H1506 C1514 0.950 . S
H1507 C1519 0.950 . S
H1508 C1516 0.950 . S
H1509 C1518 0.950 . S
H1510 C1520 0.950 . S
H1511 C1522 0.950 . S
H1512 C1524 0.950 . S
H1513 C1525 0.950 . S
C1514 H1506 0.950 . S
C1514 C1515 1.386 . S
C1514 C1516 1.391 . S
C1515 C1514 1.386 . S
C1515 C1519 1.393 . S
C1516 H1508 0.950 . S
C1516 C1514 1.391 . S
C1516 C1517 1.400 . S
C1517 C1516 1.400 . S
C1517 C1518 1.398 . S
C1517 C1523 1.491 . S
C1518 H1509 0.950 . S
C1518 C1517 1.398 . S
C1518 C1519 1.391 . S
C1519 H1507 0.950 . S
C1519 C1515 1.393 . S
C1519 C1518 1.391 . S
C1520 H1510 0.950 . S
C1520 C1521 1.386 . S
C1520 C1522 1.391 . S
C1521 C1520 1.386 . S
C1521 C1525 1.393 . S
C1522 H1511 0.950 . S
C1522 C1520 1.391 . S
C1522 C1523 1.400 . S
C1523 C1517 1.491 . S
C1523 C1522 1.400 . S
C1523 C1524 1.398 . S
C1524 H1512 0.950 . S
C1524 C1523 1.398 . S
C1524 C1525 1.391 . S
C1525 H1513 0.950 . S
C1525 C1521 1.393 . S
C1525 C1524 1.391 . S
H1526 C1534 0.950 . S
H1527 C1539 0.950 . S
H1528 C1536 0.950 . S
H1529 C1538 0.950 . S
H1530 C1540 0.950 . S
H1531 C1542 0.950 . S
H1532 C1544 0.950 . S
H1533 C1545 0.950 . S
C1534 H1526 0.950 . S
C1534 C1535 1.386 . S
C1534 C1536 1.391 . S
C1535 C1534 1.386 . S
C1535 C1539 1.393 . S
C1536 H1528 0.950 . S
C1536 C1534 1.391 . S
C1536 C1537 1.400 . S
C1537 C1536 1.400 . S
C1537 C1538 1.398 . S
C1537 C1543 1.491 . S
C1538 H1529 0.950 . S
C1538 C1537 1.398 . S
C1538 C1539 1.391 . S
C1539 H1527 0.950 . S
C1539 C1535 1.393 . S
C1539 C1538 1.391 . S
C1540 H1530 0.950 . S
C1540 C1541 1.386 . S
C1540 C1542 1.391 . S
C1541 C1540 1.386 . S
C1541 C1545 1.393 . S
C1542 H1531 0.950 . S
C1542 C1540 1.391 . S
C1542 C1543 1.400 . S
C1543 C1537 1.491 . S
C1543 C1542 1.400 . S
C1543 C1544 1.398 . S
C1544 H1532 0.950 . S
C1544 C1543 1.398 . S
C1544 C1545 1.391 . S
C1545 H1533 0.950 . S
C1545 C1541 1.393 . S
C1545 C1544 1.391 . S
H1546 C1554 0.950 . S
H1547 C1559 0.950 . S
H1548 C1556 0.950 . S
H1549 C1558 0.950 . S
H1550 C1560 0.950 . S
H1551 C1562 0.950 . S
H1552 C1564 0.950 . S
H1553 C1565 0.950 . S
C1554 H1546 0.950 . S
C1554 C1555 1.386 . S
C1554 C1556 1.391 . S
C1555 C1554 1.386 . S
C1555 C1559 1.393 . S
C1556 H1548 0.950 . S
C1556 C1554 1.391 . S
C1556 C1557 1.400 . S
C1557 C1556 1.400 . S
C1557 C1558 1.398 . S
C1557 C1563 1.491 . S
C1558 H1549 0.950 . S
C1558 C1557 1.398 . S
C1558 C1559 1.391 . S
C1559 H1547 0.950 . S
C1559 C1555 1.393 . S
C1559 C1558 1.391 . S
C1560 H1550 0.950 . S
C1560 C1561 1.386 . S
C1560 C1562 1.391 . S
C1561 C1560 1.386 . S
C1561 C1565 1.393 . S
C1562 H1551 0.950 . S
C1562 C1560 1.391 . S
C1562 C1563 1.400 . S
C1563 C1557 1.491 . S
C1563 C1562 1.400 . S
C1563 C1564 1.398 . S
C1564 H1552 0.950 . S
C1564 C1563 1.398 . S
C1564 C1565 1.391 . S
C1565 H1553 0.950 . S
C1565 C1561 1.393 . S
C1565 C1564 1.391 . S
H1566 C1574 0.950 . S
H1567 C1579 0.950 . S
H1568 C1576 0.950 . S
H1569 C1578 0.950 . S
H1570 C1580 0.950 . S
H1571 C1582 0.950 . S
H1572 C1584 0.950 . S
H1573 C1585 0.950 . S
C1574 H1566 0.950 . S
C1574 C1575 1.386 . S
C1574 C1576 1.391 . S
C1575 C1574 1.386 . S
C1575 C1579 1.393 . S
C1576 H1568 0.950 . S
C1576 C1574 1.391 . S
C1576 C1577 1.400 . S
C1577 C1576 1.400 . S
C1577 C1578 1.398 . S
C1577 C1583 1.491 . S
C1578 H1569 0.950 . S
C1578 C1577 1.398 . S
C1578 C1579 1.391 . S
C1579 H1567 0.950 . S
C1579 C1575 1.393 . S
C1579 C1578 1.391 . S
C1580 H1570 0.950 . S
C1580 C1581 1.386 . S
C1580 C1582 1.391 . S
C1581 C1580 1.386 . S
C1581 C1585 1.393 . S
C1582 H1571 0.950 . S
C1582 C1580 1.391 . S
C1582 C1583 1.400 . S
C1583 C1577 1.491 . S
C1583 C1582 1.400 . S
C1583 C1584 1.398 . S
C1584 H1572 0.950 . S
C1584 C1583 1.398 . S
C1584 C1585 1.391 . S
C1585 H1573 0.950 . S
C1585 C1581 1.393 . S
C1585 C1584 1.391 . S
H1586 C1594 0.950 . S
H1587 C1599 0.950 . S
H1588 C1596 0.950 . S
H1589 C1598 0.950 . S
H1590 C1600 0.950 . S
H1591 C1602 0.950 . S
H1592 C1604 0.950 . S
H1593 C1605 0.950 . S
C1594 H1586 0.950 . S
C1594 C1595 1.386 . S
C1594 C1596 1.391 . S
C1595 C1594 1.386 . S
C1595 C1599 1.393 . S
C1596 H1588 0.950 . S
C1596 C1594 1.391 . S
C1596 C1597 1.400 . S
C1597 C1596 1.400 . S
C1597 C1598 1.398 . S
C1597 C1603 1.491 . S
C1598 H1589 0.950 . S
C1598 C1597 1.398 . S
C1598 C1599 1.391 . S
C1599 H1587 0.950 . S
C1599 C1595 1.393 . S
C1599 C1598 1.391 . S
C1600 H1590 0.950 . S
C1600 C1601 1.386 . S
C1600 C1602 1.391 . S
C1601 C1600 1.386 . S
C1601 C1605 1.393 . S
C1602 H1591 0.950 . S
C1602 C1600 1.391 . S
C1602 C1603 1.400 . S
C1603 C1597 1.491 . S
C1603 C1602 1.400 . S
C1603 C1604 1.398 . S
C1604 H1592 0.950 . S
C1604 C1603 1.398 . S
C1604 C1605 1.391 . S
C1605 H1593 0.950 . S
C1605 C1601 1.393 . S
C1605 C1604 1.391 . S
H1606 C1614 0.950 . S
H1607 C1619 0.950 . S
H1608 C1616 0.950 . S
H1609 C1618 0.950 . S
H1610 C1620 0.950 . S
H1611 C1622 0.950 . S
H1612 C1624 0.950 . S
H1613 C1625 0.950 . S
C1614 H1606 0.950 . S
C1614 C1615 1.386 . S
C1614 C1616 1.391 . S
C1615 C1614 1.386 . S
C1615 C1619 1.393 . S
C1616 H1608 0.950 . S
C1616 C1614 1.391 . S
C1616 C1617 1.400 . S
C1617 C1616 1.400 . S
C1617 C1618 1.398 . S
C1617 C1623 1.491 . S
C1618 H1609 0.950 . S
C1618 C1617 1.398 . S
C1618 C1619 1.391 . S
C1619 H1607 0.950 . S
C1619 C1615 1.393 . S
C1619 C1618 1.391 . S
C1620 H1610 0.950 . S
C1620 C1621 1.386 . S
C1620 C1622 1.391 . S
C1621 C1620 1.386 . S
C1621 C1625 1.393 . S
C1622 H1611 0.950 . S
C1622 C1620 1.391 . S
C1622 C1623 1.400 . S
C1623 C1617 1.491 . S
C1623 C1622 1.400 . S
C1623 C1624 1.398 . S
C1624 H1612 0.950 . S
C1624 C1623 1.398 . S
C1624 C1625 1.391 . S
C1625 H1613 0.950 . S
C1625 C1621 1.393 . S
C1625 C1624 1.391 . S
H1626 C1634 0.950 . S
H1627 C1639 0.950 . S
H1628 C1636 0.950 . S
H1629 C1638 0.950 . S
H1630 C1640 0.950 . S
H1631 C1642 0.950 . S
H1632 C1644 0.950 . S
H1633 C1645 0.950 . S
C1634 H1626 0.950 . S
C1634 C1635 1.386 . S
C1634 C1636 1.391 . S
C1635 C1634 1.386 . S
C1635 C1639 1.393 . S
C1636 H1628 0.950 . S
C1636 C1634 1.391 . S
C1636 C1637 1.400 . S
C1637 C1636 1.400 . S
C1637 C1638 1.398 . S
C1637 C1643 1.491 . S
C1638 H1629 0.950 . S
C1638 C1637 1.398 . S
C1638 C1639 1.391 . S
C1639 H1627 0.950 . S
C1639 C1635 1.393 . S
C1639 C1638 1.391 . S
C1640 H1630 0.950 . S
C1640 C1641 1.386 . S
C1640 C1642 1.391 . S
C1641 C1640 1.386 . S
C1641 C1645 1.393 . S
C1642 H1631 0.950 . S
C1642 C1640 1.391 . S
C1642 C1643 1.400 . S
C1643 C1637 1.491 . S
C1643 C1642 1.400 . S
C1643 C1644 1.398 . S
C1644 H1632 0.950 . S
C1644 C1643 1.398 . S
C1644 C1645 1.391 . S
C1645 H1633 0.950 . S
C1645 C1641 1.393 . S
C1645 C1644 1.391 . S
H1646 C1654 0.950 . S
H1647 C1659 0.950 . S
H1648 C1656 0.950 . S
H1649 C1658 0.950 . S
H1650 C1660 0.950 . S
H1651 C1662 0.950 . S
H1652 C1664 0.950 . S
H1653 C1665 0.950 . S
C1654 H1646 0.950 . S
C1654 C1655 1.386 . S
C1654 C1656 1.391 . S
C1655 C1654 1.386 . S
C1655 C1659 1.393 . S
C1656 H1648 0.950 . S
C1656 C1654 1.391 . S
C1656 C1657 1.400 . S
C1657 C1656 1.400 . S
C1657 C1658 1.398 . S
C1657 C1663 1.491 . S
C1658 H1649 0.950 . S
C1658 C1657 1.398 . S
C1658 C1659 1.391 . S
C1659 H1647 0.950 . S
C1659 C1655 1.393 . S
C1659 C1658 1.391 . S
C1660 H1650 0.950 . S
C1660 C1661 1.386 . S
C1660 C1662 1.391 . S
C1661 C1660 1.386 . S
C1661 C1665 1.393 . S
C1662 H1651 0.950 . S
C1662 C1660 1.391 . S
C1662 C1663 1.400 . S
C1663 C1657 1.491 . S
C1663 C1662 1.400 . S
C1663 C1664 1.398 . S
C1664 H1652 0.950 . S
C1664 C1663 1.398 . S
C1664 C1665 1.391 . S
C1665 H1653 0.950 . S
C1665 C1661 1.393 . S
C1665 C1664 1.391 . S
H1666 C1674 0.950 . S
H1667 C1679 0.950 . S
H1668 C1676 0.950 . S
H1669 C1678 0.950 . S
H1670 C1680 0.950 . S
H1671 C1682 0.950 . S
H1672 C1684 0.950 . S
H1673 C1685 0.950 . S
C1674 H1666 0.950 . S
C1674 C1675 1.386 . S
C1674 C1676 1.391 . S
C1675 C1674 1.386 . S
C1675 C1679 1.393 . S
C1676 H1668 0.950 . S
C1676 C1674 1.391 . S
C1676 C1677 1.400 . S
C1677 C1676 1.400 . S
C1677 C1678 1.398 . S
C1677 C1683 1.491 . S
C1678 H1669 0.950 . S
C1678 C1677 1.398 . S
C1678 C1679 1.391 . S
C1679 H1667 0.950 . S
C1679 C1675 1.393 . S
C1679 C1678 1.391 . S
C1680 H1670 0.950 . S
C1680 C1681 1.386 . S
C1680 C1682 1.391 . S
C1681 C1680 1.386 . S
C1681 C1685 1.393 . S
C1682 H1671 0.950 . S
C1682 C1680 1.391 . S
C1682 C1683 1.400 . S
C1683 C1677 1.491 . S
C1683 C1682 1.400 . S
C1683 C1684 1.398 . S
C1684 H1672 0.950 . S
C1684 C1683 1.398 . S
C1684 C1685 1.391 . S
C1685 H1673 0.950 . S
C1685 C1681 1.393 . S
C1685 C1684 1.391 . S
H1686 C1694 0.950 . S
H1687 C1699 0.950 . S
H1688 C1696 0.950 . S
H1689 C1698 0.950 . S
H1690 C1700 0.950 . S
H1691 C1702 0.950 . S
H1692 C1704 0.950 . S
H1693 C1705 0.950 . S
C1694 H1686 0.950 . S
C1694 C1695 1.386 . S
C1694 C1696 1.391 . S
C1695 C1694 1.386 . S
C1695 C1699 1.393 . S
C1696 H1688 0.950 . S
C1696 C1694 1.391 . S
C1696 C1697 1.400 . S
C1697 C1696 1.400 . S
C1697 C1698 1.398 . S
C1697 C1703 1.491 . S
C1698 H1689 0.950 . S
C1698 C1697 1.398 . S
C1698 C1699 1.391 . S
C1699 H1687 0.950 . S
C1699 C1695 1.393 . S
C1699 C1698 1.391 . S
C1700 H1690 0.950 . S
C1700 C1701 1.386 . S
C1700 C1702 1.391 . S
C1701 C1700 1.386 . S
C1701 C1705 1.393 . S
C1702 H1691 0.950 . S
C1702 C1700 1.391 . S
C1702 C1703 1.400 . S
C1703 C1697 1.491 . S
C1703 C1702 1.400 . S
C1703 C1704 1.398 . S
C1704 H1692 0.950 . S
C1704 C1703 1.398 . S
C1704 C1705 1.391 . S
C1705 H1693 0.950 . S
C1705 C1701 1.393 . S
C1705 C1704 1.391 . S
H1706 C1714 0.950 . S
H1707 C1719 0.950 . S
H1708 C1716 0.950 . S
H1709 C1718 0.950 . S
H1710 C1720 0.950 . S
H1711 C1722 0.950 . S
H1712 C1724 0.950 . S
H1713 C1725 0.950 . S
C1714 H1706 0.950 . S
C1714 C1715 1.386 . S
C1714 C1716 1.391 . S
C1715 C1714 1.386 . S
C1715 C1719 1.393 . S
C1716 H1708 0.950 . S
C1716 C1714 1.391 . S
C1716 C1717 1.400 . S
C1717 C1716 1.400 . S
C1717 C1718 1.398 . S
C1717 C1723 1.491 . S
C1718 H1709 0.950 . S
C1718 C1717 1.398 . S
C1718 C1719 1.391 . S
C1719 H1707 0.950 . S
C1719 C1715 1.393 . S
C1719 C1718 1.391 . S
C1720 H1710 0.950 . S
C1720 C1721 1.386 . S
C1720 C1722 1.391 . S
C1721 C1720 1.386 . S
C1721 C1725 1.393 . S
C1722 H1711 0.950 . S
C1722 C1720 1.391 . S
C1722 C1723 1.400 . S
C1723 C1717 1.491 . S
C1723 C1722 1.400 . S
C1723 C1724 1.398 . S
C1724 H1712 0.950 . S
C1724 C1723 1.398 . S
C1724 C1725 1.391 . S
C1725 H1713 0.950 . S
C1725 C1721 1.393 . S
C1725 C1724 1.391 . S
H1726 C1734 0.950 . S
H1727 C1739 0.950 . S
H1728 C1736 0.950 . S
H1729 C1738 0.950 . S
H1730 C1740 0.950 . S
H1731 C1742 0.950 . S
H1732 C1744 0.950 . S
H1733 C1745 0.950 . S
C1734 H1726 0.950 . S
C1734 C1735 1.386 . S
C1734 C1736 1.391 . S
C1735 C1734 1.386 . S
C1735 C1739 1.393 . S
C1736 H1728 0.950 . S
C1736 C1734 1.391 . S
C1736 C1737 1.400 . S
C1737 C1736 1.400 . S
C1737 C1738 1.398 . S
C1737 C1743 1.491 . S
C1738 H1729 0.950 . S
C1738 C1737 1.398 . S
C1738 C1739 1.391 . S
C1739 H1727 0.950 . S
C1739 C1735 1.393 . S
C1739 C1738 1.391 . S
C1740 H1730 0.950 . S
C1740 C1741 1.386 . S
C1740 C1742 1.391 . S
C1741 C1740 1.386 . S
C1741 C1745 1.393 . S
C1742 H1731 0.950 . S
C1742 C1740 1.391 . S
C1742 C1743 1.400 . S
C1743 C1737 1.491 . S
C1743 C1742 1.400 . S
C1743 C1744 1.398 . S
C1744 H1732 0.950 . S
C1744 C1743 1.398 . S
C1744 C1745 1.391 . S
C1745 H1733 0.950 . S
C1745 C1741 1.393 . S
C1745 C1744 1.391 . S
H1746 C1754 0.950 . S
H1747 C1759 0.950 . S
H1748 C1756 0.950 . S
H1749 C1758 0.950 . S
H1750 C1760 0.950 . S
H1751 C1762 0.950 . S
H1752 C1764 0.950 . S
H1753 C1765 0.950 . S
C1754 H1746 0.950 . S
C1754 C1755 1.386 . S
C1754 C1756 1.391 . S
C1755 C1754 1.386 . S
C1755 C1759 1.393 . S
C1756 H1748 0.950 . S
C1756 C1754 1.391 . S
C1756 C1757 1.400 . S
C1757 C1756 1.400 . S
C1757 C1758 1.398 . S
C1757 C1763 1.491 . S
C1758 H1749 0.950 . S
C1758 C1757 1.398 . S
C1758 C1759 1.391 . S
C1759 H1747 0.950 . S
C1759 C1755 1.393 . S
C1759 C1758 1.391 . S
C1760 H1750 0.950 . S
C1760 C1761 1.386 . S
C1760 C1762 1.391 . S
C1761 C1760 1.386 . S
C1761 C1765 1.393 . S
C1762 H1751 0.950 . S
C1762 C1760 1.391 . S
C1762 C1763 1.400 . S
C1763 C1757 1.491 . S
C1763 C1762 1.400 . S
C1763 C1764 1.398 . S
C1764 H1752 0.950 . S
C1764 C1763 1.398 . S
C1764 C1765 1.391 . S
C1765 H1753 0.950 . S
C1765 C1761 1.393 . S
C1765 C1764 1.391 . S
H1766 C1774 0.950 . S
H1767 C1779 0.950 . S
H1768 C1776 0.950 . S
H1769 C1778 0.950 . S
H1770 C1780 0.950 . S
H1771 C1782 0.950 . S
H1772 C1784 0.950 . S
H1773 C1785 0.950 . S
C1774 H1766 0.950 . S
C1774 C1775 1.386 . S
C1774 C1776 1.391 . S
C1775 C1774 1.386 . S
C1775 C1779 1.393 . S
C1776 H1768 0.950 . S
C1776 C1774 1.391 . S
C1776 C1777 1.400 . S
C1777 C1776 1.400 . S
C1777 C1778 1.398 . S
C1777 C1783 1.491 . S
C1778 H1769 0.950 . S
C1778 C1777 1.398 . S
C1778 C1779 1.391 . S
C1779 H1767 0.950 . S
C1779 C1775 1.393 . S
C1779 C1778 1.391 . S
C1780 H1770 0.950 . S
C1780 C1781 1.386 . S
C1780 C1782 1.391 . S
C1781 C1780 1.386 . S
C1781 C1785 1.393 . S
C1782 H1771 0.950 . S
C1782 C1780 1.391 . S
C1782 C1783 1.400 . S
C1783 C1777 1.491 . S
C1783 C1782 1.400 . S
C1783 C1784 1.398 . S
C1784 H1772 0.950 . S
C1784 C1783 1.398 . S
C1784 C1785 1.391 . S
C1785 H1773 0.950 . S
C1785 C1781 1.393 . S
C1785 C1784 1.391 . S
H1786 C1794 0.950 . S
H1787 C1799 0.950 . S
H1788 C1796 0.950 . S
H1789 C1798 0.950 . S
H1790 C1800 0.950 . S
H1791 C1802 0.950 . S
H1792 C1804 0.950 . S
H1793 C1805 0.950 . S
C1794 H1786 0.950 . S
C1794 C1795 1.386 . S
C1794 C1796 1.391 . S
C1795 C1794 1.386 . S
C1795 C1799 1.393 . S
C1796 H1788 0.950 . S
C1796 C1794 1.391 . S
C1796 C1797 1.400 . S
C1797 C1796 1.400 . S
C1797 C1798 1.398 . S
C1797 C1803 1.491 . S
C1798 H1789 0.950 . S
C1798 C1797 1.398 . S
C1798 C1799 1.391 . S
C1799 H1787 0.950 . S
C1799 C1795 1.393 . S
C1799 C1798 1.391 . S
C1800 H1790 0.950 . S
C1800 C1801 1.386 . S
C1800 C1802 1.391 . S
C1801 C1800 1.386 . S
C1801 C1805 1.393 . S
C1802 H1791 0.950 . S
C1802 C1800 1.391 . S
C1802 C1803 1.400 . S
C1803 C1797 1.491 . S
C1803 C1802 1.400 . S
C1803 C1804 1.398 . S
C1804 H1792 0.950 . S
C1804 C1803 1.398 . S
C1804 C1805 1.391 . S
C1805 H1793 0.950 . S
C1805 C1801 1.393 . S
C1805 C1804 1.391 . S
H1806 C1814 0.950 . S
H1807 C1819 0.950 . S
H1808 C1816 0.950 . S
H1809 C1818 0.950 . S
H1810 C1820 0.950 . S
H1811 C1822 0.950 . S
H1812 C1824 0.950 . S
H1813 C1825 0.950 . S
C1814 H1806 0.950 . S
C1814 C1815 1.386 . S
C1814 C1816 1.391 . S
C1815 C1814 1.386 . S
C1815 C1819 1.393 . S
C1816 H1808 0.950 . S
C1816 C1814 1.391 . S
C1816 C1817 1.400 . S
C1817 C1816 1.400 . S
C1817 C1818 1.398 . S
C1817 C1823 1.491 . S
C1818 H1809 0.950 . S
C1818 C1817 1.398 . S
C1818 C1819 1.391 . S
C1819 H1807 0.950 . S
C1819 C1815 1.393 . S
C1819 C1818 1.391 . S
C1820 H1810 0.950 . S
C1820 C1821 1.386 . S
C1820 C1822 1.391 . S
C1821 C1820 1.386 . S
C1821 C1825 1.393 . S
C1822 H1811 0.950 . S
C1822 C1820 1.391 . S
C1822 C1823 1.400 . S
C1823 C1817 1.491 . S
C1823 C1822 1.400 . S
C1823 C1824 1.398 . S
C1824 H1812 0.950 . S
C1824 C1823 1.398 . S
C1824 C1825 1.391 . S
C1825 H1813 0.950 . S
C1825 C1821 1.393 . S
C1825 C1824 1.391 . S
H1826 C1834 0.950 . S
H1827 C1839 0.950 . S
H1828 C1836 0.950 . S
H1829 C1838 0.950 . S
H1830 C1840 0.950 . S
H1831 C1842 0.950 . S
H1832 C1844 0.950 . S
H1833 C1845 0.950 . S
C1834 H1826 0.950 . S
C1834 C1835 1.386 . S
C1834 C1836 1.391 . S
C1835 C1834 1.386 . S
C1835 C1839 1.393 . S
C1836 H1828 0.950 . S
C1836 C1834 1.391 . S
C1836 C1837 1.400 . S
C1837 C1836 1.400 . S
C1837 C1838 1.398 . S
C1837 C1843 1.491 . S
C1838 H1829 0.950 . S
C1838 C1837 1.398 . S
C1838 C1839 1.391 . S
C1839 H1827 0.950 . S
C1839 C1835 1.393 . S
C1839 C1838 1.391 . S
C1840 H1830 0.950 . S
C1840 C1841 1.386 . S
C1840 C1842 1.391 . S
C1841 C1840 1.386 . S
C1841 C1845 1.393 . S
C1842 H1831 0.950 . S
C1842 C1840 1.391 . S
C1842 C1843 1.400 . S
C1843 C1837 1.491 . S
C1843 C1842 1.400 . S
C1843 C1844 1.398 . S
C1844 H1832 0.950 . S
C1844 C1843 1.398 . S
C1844 C1845 1.391 . S
C1845 H1833 0.950 . S
C1845 C1841 1.393 . S
C1845 C1844 1.391 . S
H1846 C1854 0.950 . S
H1847 C1859 0.950 . S
H1848 C1856 0.950 . S
H1849 C1858 0.950 . S
H1850 C1860 0.950 . S
H1851 C1862 0.950 . S
H1852 C1864 0.950 . S
H1853 C1865 0.950 . S
C1854 H1846 0.950 . S
C1854 C1855 1.386 . S
C1854 C1856 1.391 . S
C1855 C1854 1.386 . S
C1855 C1859 1.393 . S
C1856 H1848 0.950 . S
C1856 C1854 1.391 . S
C1856 C1857 1.400 . S
C1857 C1856 1.400 . S
C1857 C1858 1.398 . S
C1857 C1863 1.491 . S
C1858 H1849 0.950 . S
C1858 C1857 1.398 . S
C1858 C1859 1.391 . S
C1859 H1847 0.950 . S
C1859 C1855 1.393 . S
C1859 C1858 1.391 . S
C1860 H1850 0.950 . S
C1860 C1861 1.386 . S
C1860 C1862 1.391 . S
C1861 C1860 1.386 . S
C1861 C1865 1.393 . S
C1862 H1851 0.950 . S
C1862 C1860 1.391 . S
C1862 C1863 1.400 . S
C1863 C1857 1.491 . S
C1863 C1862 1.400 . S
C1863 C1864 1.398 . S
C1864 H1852 0.950 . S
C1864 C1863 1.398 . S
C1864 C1865 1.391 . S
C1865 H1853 0.950 . S
C1865 C1861 1.393 . S
C1865 C1864 1.391 . S
H1866 C1874 0.950 . S
H1867 C1879 0.950 . S
H1868 C1876 0.950 . S
H1869 C1878 0.950 . S
H1870 C1880 0.950 . S
H1871 C1882 0.950 . S
H1872 C1884 0.950 . S
H1873 C1885 0.950 . S
C1874 H1866 0.950 . S
C1874 C1875 1.386 . S
C1874 C1876 1.391 . S
C1875 C1874 1.386 . S
C1875 C1879 1.393 . S
C1876 H1868 0.950 . S
C1876 C1874 1.391 . S
C1876 C1877 1.400 . S
C1877 C1876 1.400 . S
C1877 C1878 1.398 . S
C1877 C1883 1.491 . S
C1878 H1869 0.950 . S
C1878 C1877 1.398 . S
C1878 C1879 1.391 . S
C1879 H1867 0.950 . S
C1879 C1875 1.393 . S
C1879 C1878 1.391 . S
C1880 H1870 0.950 . S
C1880 C1881 1.386 . S
C1880 C1882 1.391 . S
C1881 C1880 1.386 . S
C1881 C1885 1.393 . S
C1882 H1871 0.950 . S
C1882 C1880 1.391 . S
C1882 C1883 1.400 . S
C1883 C1877 1.491 . S
C1883 C1882 1.400 . S
C1883 C1884 1.398 . S
C1884 H1872 0.950 . S
C1884 C1883 1.398 . S
C1884 C1885 1.391 . S
C1885 H1873 0.950 . S
C1885 C1881 1.393 . S
C1885 C1884 1.391 . S
H1886 C1894 0.950 . S
H1887 C1899 0.950 . S
H1888 C1896 0.950 . S
H1889 C1898 0.950 . S
H1890 C1900 0.950 . S
H1891 C1902 0.950 . S
H1892 C1904 0.950 . S
H1893 C1905 0.950 . S
C1894 H1886 0.950 . S
C1894 C1895 1.386 . S
C1894 C1896 1.391 . S
C1895 C1894 1.386 . S
C1895 C1899 1.393 . S
C1896 H1888 0.950 . S
C1896 C1894 1.391 . S
C1896 C1897 1.400 . S
C1897 C1896 1.400 . S
C1897 C1898 1.398 . S
C1897 C1903 1.491 . S
C1898 H1889 0.950 . S
C1898 C1897 1.398 . S
C1898 C1899 1.391 . S
C1899 H1887 0.950 . S
C1899 C1895 1.393 . S
C1899 C1898 1.391 . S
C1900 H1890 0.950 . S
C1900 C1901 1.386 . S
C1900 C1902 1.391 . S
C1901 C1900 1.386 . S
C1901 C1905 1.393 . S
C1902 H1891 0.950 . S
C1902 C1900 1.391 . S
C1902 C1903 1.400 . S
C1903 C1897 1.491 . S
C1903 C1902 1.400 . S
C1903 C1904 1.398 . S
C1904 H1892 0.950 . S
C1904 C1903 1.398 . S
C1904 C1905 1.391 . S
C1905 H1893 0.950 . S
C1905 C1901 1.393 . S
C1905 C1904 1.391 . S
H1906 C1914 0.950 . S
H1907 C1919 0.950 . S
H1908 C1916 0.950 . S
H1909 C1918 0.950 . S
H1910 C1920 0.950 . S
H1911 C1922 0.950 . S
H1912 C1924 0.950 . S
H1913 C1925 0.950 . S
C1914 H1906 0.950 . S
C1914 C1915 1.386 . S
C1914 C1916 1.391 . S
C1915 C1914 1.386 . S
C1915 C1919 1.393 . S
C1916 H1908 0.950 . S
C1916 C1914 1.391 . S
C1916 C1917 1.400 . S
C1917 C1916 1.400 . S
C1917 C1918 1.398 . S
C1917 C1923 1.491 . S
C1918 H1909 0.950 . S
C1918 C1917 1.398 . S
C1918 C1919 1.391 . S
C1919 H1907 0.950 . S
C1919 C1915 1.393 . S
C1919 C1918 1.391 . S
C1920 H1910 0.950 . S
C1920 C1921 1.386 . S
C1920 C1922 1.391 . S
C1921 C1920 1.386 . S
C1921 C1925 1.393 . S
C1922 H1911 0.950 . S
C1922 C1920 1.391 . S
C1922 C1923 1.400 . S
C1923 C1917 1.491 . S
C1923 C1922 1.400 . S
C1923 C1924 1.398 . S
C1924 H1912 0.950 . S
C1924 C1923 1.398 . S
C1924 C1925 1.391 . S
C1925 H1913 0.950 . S
C1925 C1921 1.393 . S
C1925 C1924 1.391 . S
C495 C34 1.276 . S
C501 C238 1.114 . S
C515 C8 1.288 . S
C521 C254 1.135 . S
C541 C237 1.132 . S
C535 C18 1.231 . S
C561 C262 1.126 . S
C555 C31 1.259 . S
C575 C5 1.255 . S
C581 C271 1.162 . S
C601 C274 1.159 . S
C595 C21 1.277 1_655 S
C615 C73 1.282 . S
C621 C280 1.115 . S
C641 C296 1.126 . S
C635 C47 1.277 . S
C661 C279 1.139 . S
C655 C57 1.230 . S
C675 C70 1.238 . S
C681 C304 1.146 . S
C701 C313 1.147 . S
C695 C44 1.255 . S
C721 C316 1.174 . S
C715 C60 1.254 . S
C741 C325 1.150 . S
C735 C112 1.276 . S
C761 C337 1.126 . S
C755 C86 1.287 . S
C781 C334 1.158 . S
C775 C96 1.237 . S
C795 C109 1.256 . S
C801 C343 1.140 . S
C821 C342 1.186 . S
C815 C83 1.268 . S
C835 C99 1.259 . S
C841 C359 1.177 . S
C861 C364 1.123 . S
C855 C151 1.266 . S
C881 C380 1.126 . S
C875 C125 1.277 . S
C895 C135 1.245 . S
C901 C363 1.111 . S
C921 C388 1.108 . S
C915 C148 1.256 . S
C941 C397 1.136 . S
C935 C122 1.277 . S
C955 C138 1.285 . S
C961 C400 1.141 . S
C975 C190 1.251 . S
C981 C409 1.167 . S
C1001 C421 1.129 . S
C995 C164 1.288 . S
C1021 C418 1.147 . S
C1015 C174 1.232 . S
C1035 C187 1.257 . S
C1041 C427 1.137 . S
C1061 C426 1.149 . S
C1055 C161 1.286 . S
C1075 C177 1.255 . S
C1081 C443 1.176 . S
C1101 C448 1.145 . S
C1095 C229 1.279 . S
C1121 C464 1.172 . S
C1115 C203 1.271 . S
C1135 C213 1.257 . S
C1141 C447 1.119 . S
C1161 C469 1.140 . S
C1155 C226 1.232 . S
C1181 C468 1.147 . S
C1175 C200 1.286 . S
C1201 C485 1.124 . S
C1195 C216 1.286 . S
C1221 C250 1.347 . S
C1215 C143 1.437 . S
C1235 C117 1.452 . S
C1241 C253 1.379 . S
C1261 C241 1.337 . S
C1255 C140 1.422 . S
C1275 C231 1.457 . S
C1281 C258 1.361 . S
C1295 C205 1.475 . S
C1301 C259 1.369 . S
C1321 C275 1.366 1_565 S
C1315 C208 1.476 . S
C1341 C292 1.350 1_565 S
C1335 C182 1.443 . S
C1361 C295 1.363 . S
C1355 C156 1.466 . S
C1375 C179 1.418 . S
C1381 C283 1.339 . S
C1401 C300 1.395 1_655 S
C1395 C114 1.462 . S
C1415 C88 1.482 . S
C1421 C301 1.400 . S
C1435 C91 1.473 . S
C1441 C317 1.384 . S
C1455 C221 1.429 . S
C1461 C321 1.372 . S
C1475 C195 1.456 . S
C1481 C338 1.365 . S
C1501 C322 1.302 . S
C1495 C218 1.417 . S
C1521 C355 1.366 . S
C1515 C75 1.462 . S
C1541 C346 1.363 . S
C1535 C49 1.477 . S
C1555 C52 1.480 . S
C1561 C358 1.392 . S
C1581 C376 1.347 . S
C1575 C26 1.440 . S
C1601 C379 1.378 . S
C1595 C0 1.452 . S
C1615 C23 1.415 . S
C1621 C367 1.334 . S
C1641 C384 1.378 . S
C1635 C192 1.455 . S
C1661 C385 1.367 . S
C1655 C166 1.481 1_655 S
C1681 C401 1.418 . S
C1675 C169 1.472 . S
C1701 C405 1.351 . S
C1695 C65 1.434 . S
C1721 C422 1.387 . S
C1715 C39 1.453 . S
C1735 C62 1.414 . S
C1741 C406 1.306 . S
C1755 C153 1.460 1_565 S
C1761 C439 1.396 . S
C1775 C127 1.479 . S
C1781 C430 1.363 . S
C1801 C442 1.399 . S
C1795 C130 1.464 . S
C1815 C104 1.432 . S
C1821 C460 1.381 . S
C1835 C78 1.462 . S
C1841 C463 1.396 . S
C1861 C451 1.307 . S
C1855 C101 1.419 1_565 S
C1881 C481 1.363 . S
C1875 C36 1.460 . S
C1901 C472 1.371 . S
C1895 C10 1.482 . S
C1915 C13 1.472 . S
C1921 C484 1.418 . S
