# Generated by pormake.
# Topology ocu, (6,8)-cn, num edge types: 1
# Building blocks:
#     Node 0, Type 0, BuildingBlock: PAMTOO_clean_sbu_0, # of connection points: 6
#     Node 1, Type 0, BuildingBlock: PAMTOO_clean_sbu_0, # of connection points: 6
#     Node 2, Type 0, BuildingBlock: PAMTOO_clean_sbu_0, # of connection points: 6
#     Node 3, Type 0, BuildingBlock: PAMTOO_clean_sbu_0, # of connection points: 6
#     Node 4, Type 0, BuildingBlock: PAMTOO_clean_sbu_0, # of connection points: 6
#     Node 5, Type 0, BuildingBlock: PAMTOO_clean_sbu_0, # of connection points: 6
#     Node 6, Type 0, BuildingBlock: PAMTOO_clean_sbu_0, # of connection points: 6
#     Node 7, Type 0, BuildingBlock: PAMTOO_clean_sbu_0, # of connection points: 6
#     Node 8, Type 1, BuildingBlock: TAGTUT_clean_sbu_1, # of connection points: 8
#     Node 9, Type 1, BuildingBlock: TAGTUT_clean_sbu_1, # of connection points: 8
#     Node 10, Type 1, BuildingBlock: TAGTUT_clean_sbu_1, # of connection points: 8
#     Node 11, Type 1, BuildingBlock: TAGTUT_clean_sbu_1, # of connection points: 8
#     Node 12, Type 1, BuildingBlock: TAGTUT_clean_sbu_1, # of connection points: 8
#     Node 13, Type 1, BuildingBlock: TAGTUT_clean_sbu_1, # of connection points: 8
#     Edge 14, Type (0, 1), BuildingBlock: EZIPEK_clean_linker_0, # of connection points: 2
#     Edge 15, Type (0, 1), BuildingBlock: EZIPEK_clean_linker_0, # of connection points: 2
#     Edge 16, Type (0, 1), BuildingBlock: EZIPEK_clean_linker_0, # of connection points: 2
#     Edge 17, Type (0, 1), BuildingBlock: EZIPEK_clean_linker_0, # of connection points: 2
#     Edge 18, Type (0, 1), BuildingBlock: EZIPEK_clean_linker_0, # of connection points: 2
#     Edge 19, Type (0, 1), BuildingBlock: EZIPEK_clean_linker_0, # of connection points: 2
#     Edge 20, Type (0, 1), BuildingBlock: EZIPEK_clean_linker_0, # of connection points: 2
#     Edge 21, Type (0, 1), BuildingBlock: EZIPEK_clean_linker_0, # of connection points: 2
#     Edge 22, Type (0, 1), BuildingBlock: EZIPEK_clean_linker_0, # of connection points: 2
#     Edge 23, Type (0, 1), BuildingBlock: EZIPEK_clean_linker_0, # of connection points: 2
#     Edge 24, Type (0, 1), BuildingBlock: EZIPEK_clean_linker_0, # of connection points: 2
#     Edge 25, Type (0, 1), BuildingBlock: EZIPEK_clean_linker_0, # of connection points: 2
#     Edge 26, Type (0, 1), BuildingBlock: EZIPEK_clean_linker_0, # of connection points: 2
#     Edge 27, Type (0, 1), BuildingBlock: EZIPEK_clean_linker_0, # of connection points: 2
#     Edge 28, Type (0, 1), BuildingBlock: EZIPEK_clean_linker_0, # of connection points: 2
#     Edge 29, Type (0, 1), BuildingBlock: EZIPEK_clean_linker_0, # of connection points: 2
#     Edge 30, Type (0, 1), BuildingBlock: EZIPEK_clean_linker_0, # of connection points: 2
#     Edge 31, Type (0, 1), BuildingBlock: EZIPEK_clean_linker_0, # of connection points: 2
#     Edge 32, Type (0, 1), BuildingBlock: EZIPEK_clean_linker_0, # of connection points: 2
#     Edge 33, Type (0, 1), BuildingBlock: EZIPEK_clean_linker_0, # of connection points: 2
#     Edge 34, Type (0, 1), BuildingBlock: EZIPEK_clean_linker_0, # of connection points: 2
#     Edge 35, Type (0, 1), BuildingBlock: EZIPEK_clean_linker_0, # of connection points: 2
#     Edge 36, Type (0, 1), BuildingBlock: EZIPEK_clean_linker_0, # of connection points: 2
#     Edge 37, Type (0, 1), BuildingBlock: EZIPEK_clean_linker_0, # of connection points: 2
#     Edge 38, Type (0, 1), BuildingBlock: EZIPEK_clean_linker_0, # of connection points: 2
#     Edge 39, Type (0, 1), BuildingBlock: EZIPEK_clean_linker_0, # of connection points: 2
#     Edge 40, Type (0, 1), BuildingBlock: EZIPEK_clean_linker_0, # of connection points: 2
#     Edge 41, Type (0, 1), BuildingBlock: EZIPEK_clean_linker_0, # of connection points: 2
#     Edge 42, Type (0, 1), BuildingBlock: EZIPEK_clean_linker_0, # of connection points: 2
#     Edge 43, Type (0, 1), BuildingBlock: EZIPEK_clean_linker_0, # of connection points: 2
#     Edge 44, Type (0, 1), BuildingBlock: EZIPEK_clean_linker_0, # of connection points: 2
#     Edge 45, Type (0, 1), BuildingBlock: EZIPEK_clean_linker_0, # of connection points: 2
#     Edge 46, Type (0, 1), BuildingBlock: EZIPEK_clean_linker_0, # of connection points: 2
#     Edge 47, Type (0, 1), BuildingBlock: EZIPEK_clean_linker_0, # of connection points: 2
#     Edge 48, Type (0, 1), BuildingBlock: EZIPEK_clean_linker_0, # of connection points: 2
#     Edge 49, Type (0, 1), BuildingBlock: EZIPEK_clean_linker_0, # of connection points: 2
#     Edge 50, Type (0, 1), BuildingBlock: EZIPEK_clean_linker_0, # of connection points: 2
#     Edge 51, Type (0, 1), BuildingBlock: EZIPEK_clean_linker_0, # of connection points: 2
#     Edge 52, Type (0, 1), BuildingBlock: EZIPEK_clean_linker_0, # of connection points: 2
#     Edge 53, Type (0, 1), BuildingBlock: EZIPEK_clean_linker_0, # of connection points: 2
#     Edge 54, Type (0, 1), BuildingBlock: EZIPEK_clean_linker_0, # of connection points: 2
#     Edge 55, Type (0, 1), BuildingBlock: EZIPEK_clean_linker_0, # of connection points: 2
#     Edge 56, Type (0, 1), BuildingBlock: EZIPEK_clean_linker_0, # of connection points: 2
#     Edge 57, Type (0, 1), BuildingBlock: EZIPEK_clean_linker_0, # of connection points: 2
#     Edge 58, Type (0, 1), BuildingBlock: EZIPEK_clean_linker_0, # of connection points: 2
#     Edge 59, Type (0, 1), BuildingBlock: EZIPEK_clean_linker_0, # of connection points: 2
#     Edge 60, Type (0, 1), BuildingBlock: EZIPEK_clean_linker_0, # of connection points: 2
#     Edge 61, Type (0, 1), BuildingBlock: EZIPEK_clean_linker_0, # of connection points: 2
# Relax obj value: 0.304
# Max RMSD: 0.321
# Mean RMSD: 0.144
data_MOF--net-ocu--node1-PAMTOO_clean_sbu_0--node2-TAGTUT_clean_sbu_1--edge1-EZIPEK_clean_linker_0
_symmetry_space_group_name_H-M    P1
_symmetry_Int_Tables_number       1
_symmetry_cell_setting            triclinic
loop_
_symmetry_equiv_pos_as_xyz
'x, y, z'
_cell_length_a     30.135758
_cell_length_b     30.841962
_cell_length_c     31.191415
_cell_angle_alpha  93.200821
_cell_angle_beta   95.149739
_cell_angle_gamma 111.50585
loop_
_atom_site_label
_atom_site_type_symbol
_atom_site_fract_x
_atom_site_fract_y
_atom_site_fract_z
_atom_type_partial_charge
Dy0 Dy 0.3744 0.31743 0.32518 0.0
Dy1 Dy 0.28013 0.2852 0.26328 0.0
C2 C 0.3626 0.24456 0.23817 0.0
O3 O 0.40063 0.35396 0.26469 0.0
O4 O 0.32906 0.3539 0.23776 0.0
O5 O 0.44195 0.37181 0.35217 0.0
O6 O 0.41877 0.30276 0.37534 0.0
O7 O 0.26413 0.33201 0.31457 0.0
O8 O 0.33694 0.36346 0.35521 0.0
O9 O 0.25849 0.22779 0.31026 0.0
O10 O 0.3221 0.2617 0.36236 0.0
O11 O 0.20347 0.26771 0.25024 0.0
O12 O 0.24505 0.26796 0.19757 0.0
C13 C 0.37594 0.36866 0.23587 0.0
O14 O 0.38851 0.26724 0.27497 0.0
O15 O 0.31889 0.2445 0.22908 0.0
C16 C 0.49935 0.33765 0.36862 0.0
C17 C 0.55798 0.28756 0.35403 0.0
C18 C 0.5398 0.3054 0.31918 0.0
C19 C 0.50985 0.32995 0.32644 0.0
C20 C 0.52345 0.32585 0.4037 0.0
C21 C 0.55227 0.30052 0.39632 0.0
C22 C 0.45411 0.34286 0.37508 0.0
C23 C 0.29156 0.35996 0.34811 0.0
C24 C 0.27876 0.22932 0.35016 0.0
C25 C 0.19747 0.31182 0.19395 0.0
C26 C 0.18939 0.39316 0.16638 0.0
C27 C 0.22539 0.39636 0.19901 0.0
C28 C 0.22789 0.35598 0.21384 0.0
C29 C 0.16293 0.30831 0.15947 0.0
C30 C 0.15833 0.3492 0.14611 0.0
C31 C 0.20602 0.27146 0.20911 0.0
H32 H 0.54416 0.29579 0.28634 0.0
H33 H 0.49105 0.3384 0.29887 0.0
H34 H 0.51535 0.331 0.43632 0.0
H35 H 0.56588 0.28659 0.42325 0.0
H36 H 0.24929 0.43007 0.21496 0.0
H37 H 0.25329 0.35945 0.24153 0.0
H38 H 0.13948 0.27447 0.14359 0.0
H39 H 0.13041 0.34669 0.12056 0.0
Dy40 Dy 0.88941 0.31862 0.24701 0.0
Dy41 Dy 0.7933 0.28079 0.28419 0.0
C42 C 0.88215 0.36388 0.3422 0.0
O43 O 0.89585 0.26162 0.29124 0.0
O44 O 0.83098 0.24539 0.32883 0.0
O45 O 0.95301 0.30327 0.2377 0.0
O46 O 0.9406 0.35971 0.20772 0.0
O47 O 0.80366 0.22928 0.23599 0.0
O48 O 0.837 0.27908 0.19038 0.0
O49 O 0.78697 0.34499 0.25386 0.0
O50 O 0.85431 0.36827 0.21952 0.0
O51 O 0.72156 0.25277 0.25013 0.0
O52 O 0.73282 0.24713 0.31885 0.0
C53 C 0.87242 0.24131 0.32363 0.0
O54 O 0.90611 0.36641 0.30833 0.0
O55 O 0.83678 0.33441 0.34065 0.0
C56 C 1.01813 0.37514 0.23699 0.0
C57 C 1.04222 0.46634 0.27298 0.0
C58 C 1.03684 0.43074 0.30026 0.0
C59 C 1.02514 0.38482 0.28226 0.0
C60 C 1.03717 0.41186 0.21164 0.0
C61 C 1.04469 0.45675 0.22876 0.0
C62 C 0.97166 0.34066 0.21793 0.0
C63 C 0.80602 0.23855 0.19587 0.0
C64 C 0.81275 0.37187 0.22631 0.0
C65 C 0.67994 0.18026 0.27504 0.0
C66 C 0.67342 0.09697 0.30751 0.0
C67 C 0.7012 0.1117 0.27375 0.0
C68 C 0.70496 0.15412 0.25794 0.0
C69 C 0.64103 0.15719 0.29671 0.0
C70 C 0.63843 0.11594 0.3145 0.0
C71 C 0.70331 0.23161 0.28301 0.0
H72 H 1.03447 0.43719 0.33412 0.0
H73 H 1.01272 0.35665 0.30275 0.0
H74 H 1.03328 0.4051 0.17673 0.0
H75 H 1.0452 0.48201 0.20604 0.0
H76 H 0.72522 0.09482 0.2646 0.0
H77 H 0.731 0.16836 0.23638 0.0
H78 H 0.61695 0.17424 0.304 0.0
H79 H 0.61373 0.10276 0.3381 0.0
Dy80 Dy 0.7489 0.7276 0.37873 0.0
Dy81 Dy 0.78667 0.82761 0.33254 0.0
C82 C 0.84603 0.81145 0.41323 0.0
O83 O 0.72766 0.77821 0.41743 0.0
O84 O 0.72013 0.82179 0.36226 0.0
O85 O 0.74597 0.69201 0.43687 0.0
O86 O 0.71313 0.65212 0.37544 0.0
O87 O 0.73638 0.77431 0.28375 0.0
O88 O 0.69041 0.721 0.32629 0.0
O89 O 0.83742 0.79303 0.31638 0.0
O90 O 0.79136 0.71703 0.32696 0.0
O91 O 0.81416 0.8672 0.27941 0.0
O92 O 0.80037 0.90163 0.33606 0.0
C93 C 0.71311 0.80982 0.4016 0.0
O94 O 0.82601 0.76605 0.40406 0.0
O95 O 0.82947 0.84053 0.39559 0.0
C96 C 0.77146 0.63203 0.41611 0.0
C97 C 0.86801 0.64081 0.42323 0.0
C98 C 0.84244 0.63593 0.38239 0.0
C99 C 0.79421 0.63039 0.37877 0.0
C100 C 0.79556 0.63148 0.45659 0.0
C101 C 0.84355 0.63569 0.46009 0.0
C102 C 0.73357 0.65171 0.41404 0.0
C103 C 0.6991 0.73712 0.28851 0.0
C104 C 0.82802 0.74778 0.31184 0.0
C105 C 0.77643 0.91957 0.26825 0.0
C106 C 0.71232 0.93207 0.20445 0.0
C107 C 0.69478 0.90462 0.23789 0.0
C108 C 0.7267 0.89842 0.26969 0.0
C109 C 0.79406 0.94908 0.2361 0.0
C110 C 0.76198 0.95558 0.20433 0.0
C111 C 0.80852 0.90433 0.29582 0.0
H112 H 0.86048 0.63926 0.35354 0.0
H113 H 0.7766 0.63019 0.34689 0.0
H114 H 0.77916 0.63315 0.48584 0.0
H115 H 0.86276 0.63899 0.49194 0.0
H116 H 0.65649 0.88648 0.23828 0.0
H117 H 0.71253 0.87512 0.2941 0.0
H118 H 0.83233 0.96512 0.23438 0.0
H119 H 0.77575 0.97695 0.17851 0.0
Dy120 Dy 0.28328 0.8283 0.26141 0.0
Dy121 Dy 0.36374 0.78992 0.28352 0.0
C122 C 0.36817 0.88445 0.3369 0.0
O123 O 0.33812 0.87345 0.22041 0.0
O124 O 0.39838 0.84672 0.23777 0.0
O125 O 0.24906 0.87675 0.24646 0.0
O126 O 0.20756 0.80175 0.23838 0.0
O127 O 0.30429 0.73781 0.23676 0.0
O128 O 0.2953 0.79458 0.20165 0.0
O129 O 0.31528 0.75455 0.33413 0.0
O130 O 0.25195 0.77452 0.31211 0.0
O131 O 0.40346 0.75833 0.32379 0.0
O132 O 0.41851 0.77085 0.25791 0.0
C133 C 0.38179 0.87464 0.21589 0.0
O134 O 0.32632 0.8801 0.31688 0.0
O135 O 0.38966 0.85548 0.328 0.0
C136 C 0.17927 0.84937 0.27792 0.0
C137 C 0.1363 0.86733 0.34828 0.0
C138 C 0.18264 0.86696 0.35431 0.0
C139 C 0.20331 0.857 0.31973 0.0
C140 C 0.13194 0.84742 0.27125 0.0
C141 C 0.10992 0.8557 0.30691 0.0
C142 C 0.20636 0.84364 0.24349 0.0
C143 C 0.29091 0.75135 0.20056 0.0
C144 C 0.27085 0.7511 0.33811 0.0
C145 C 0.41692 0.70016 0.28032 0.0
C146 C 0.3918 0.61076 0.23693 0.0
C147 C 0.36255 0.61846 0.26662 0.0
C148 C 0.37463 0.66332 0.28769 0.0
C149 C 0.4479 0.69132 0.25364 0.0
C150 C 0.43515 0.64751 0.23161 0.0
C151 C 0.4241 0.74912 0.29139 0.0
H152 H 0.20359 0.87556 0.38591 0.0
H153 H 0.23919 0.85704 0.32566 0.0
H154 H 0.1127 0.84034 0.23901 0.0
H155 H 0.07366 0.85513 0.30217 0.0
H156 H 0.32974 0.59061 0.27223 0.0
H157 H 0.3498 0.66968 0.30788 0.0
H158 H 0.4802 0.71937 0.24706 0.0
H159 H 0.45859 0.64318 0.20882 0.0
Dy160 Dy 0.3693 0.83464 0.80317 0.0
Dy161 Dy 0.26449 0.7639 0.81361 0.0
C162 C 0.30793 0.86214 0.86898 0.0
O163 O 0.38207 0.78062 0.84543 0.0
O164 O 0.30682 0.73096 0.85546 0.0
O165 O 0.43329 0.88082 0.84287 0.0
O166 O 0.43374 0.86779 0.77368 0.0
O167 O 0.2964 0.72681 0.76959 0.0
O168 O 0.34915 0.78863 0.74159 0.0
O169 O 0.25047 0.81753 0.77086 0.0
O170 O 0.32615 0.86953 0.76337 0.0
O171 O 0.20888 0.72089 0.84839 0.0
O172 O 0.19525 0.72141 0.77889 0.0
C173 C 0.35384 0.74391 0.86293 0.0
O174 O 0.33505 0.87574 0.8383 0.0
O175 O 0.28247 0.81767 0.87042 0.0
C176 C 0.4753 0.94367 0.80523 0.0
C177 C 0.48551 1.02065 0.75987 0.0
C178 C 0.52046 1.00058 0.76017 0.0
C179 C 0.51534 0.96193 0.78299 0.0
C180 C 0.44595 0.96938 0.81166 0.0
C181 C 0.45149 1.00853 0.78927 0.0
C182 C 0.45644 0.89359 0.80947 0.0
C183 C 0.32194 0.74425 0.73844 0.0
C184 C 0.2787 0.85601 0.75513 0.0
C185 C 0.13002 0.70622 0.8198 0.0
C186 C 1.04402 0.70221 0.85138 0.0
C187 C 0.04984 0.66114 0.83465 0.0
C188 C 0.09225 0.66331 0.81907 0.0
C189 C 0.12356 0.74768 0.832 0.0
C190 C 0.08072 0.74575 0.84728 0.0
C191 C 0.17738 0.70604 0.81411 0.0
H192 H 0.54755 1.01045 0.7381 0.0
H193 H 0.53858 0.94273 0.77831 0.0
H194 H 0.41493 0.95575 0.82901 0.0
H195 H 0.42475 1.02429 0.78962 0.0
H196 H 1.02335 0.62649 0.83609 0.0
H197 H 0.09674 0.631 0.80933 0.0
H198 H 0.15266 0.78128 0.83222 0.0
H199 H 0.0782 0.77845 0.8582 0.0
Dy200 Dy 0.37761 0.34218 0.76862 0.0
Dy201 Dy 0.27866 0.29968 0.81544 0.0
C202 C 0.28816 0.25446 0.72429 0.0
O203 O 0.32922 0.37496 0.73385 0.0
O204 O 0.26433 0.35273 0.77242 0.0
O205 O 0.43224 0.40397 0.74941 0.0
O206 O 0.43859 0.33581 0.74299 0.0
O207 O 0.32117 0.36308 0.85943 0.0
O208 O 0.39428 0.37586 0.83555 0.0
O209 O 0.32837 0.26768 0.8504 0.0
O210 O 0.39101 0.28697 0.80855 0.0
O211 O 0.239 0.28335 0.87069 0.0
O212 O 0.20124 0.26433 0.80636 0.0
C213 C 0.28628 0.37468 0.74037 0.0
O214 O 0.3248 0.29163 0.71805 0.0
O215 O 0.27573 0.24571 0.76312 0.0
C216 C 0.4744 0.38778 0.69376 0.0
C217 C 0.51041 0.3616 0.62191 0.0
C218 C 0.46127 0.35375 0.61969 0.0
C219 C 0.44312 0.3666 0.65591 0.0
C220 C 0.52412 0.40343 0.69268 0.0
C221 C 0.5422 0.39037 0.65668 0.0
C222 C 0.4569 0.3799 0.73588 0.0
C223 C 0.36797 0.38102 0.86499 0.0
C224 C 0.37016 0.26609 0.84155 0.0
C225 C 0.16867 0.29871 0.85704 0.0
C226 C 0.11754 0.35389 0.88207 0.0
C227 C 0.16494 0.37515 0.87291 0.0
C228 C 0.19022 0.34777 0.86021 0.0
C229 C 0.12017 0.27732 0.86326 0.0
C230 C 0.09451 0.30488 0.87553 0.0
C231 C 0.19756 0.27089 0.84713 0.0
H232 H 0.43637 0.33153 0.59298 0.0
H233 H 0.40456 0.35429 0.65638 0.0
H234 H 0.54863 0.41997 0.72166 0.0
H235 H 0.58021 0.39681 0.65868 0.0
H236 H 0.18319 0.41285 0.87789 0.0
H237 H 0.22731 0.36494 0.8545 0.0
H238 H 0.10276 0.23952 0.86009 0.0
H239 H 0.05794 0.28802 0.88278 0.0
Dy240 Dy 0.81085 0.36118 0.78997 0.0
Dy241 Dy 0.87864 0.31049 0.82389 0.0
C242 C 0.87051 0.39163 0.8871 0.0
O243 O 0.86668 0.37148 0.74287 0.0
O244 O 0.92765 0.36853 0.78859 0.0
O245 O 0.82259 0.42936 0.76933 0.0
O246 O 0.74999 0.37771 0.76585 0.0
O247 O 0.84267 0.2724 0.75809 0.0
O248 O 0.77702 0.29313 0.75109 0.0
O249 O 0.80942 0.27625 0.85473 0.0
O250 O 0.75733 0.30912 0.82624 0.0
O251 O 0.88576 0.25255 0.85587 0.0
O252 O 0.94653 0.30119 0.83013 0.0
C253 C 0.91297 0.38201 0.75262 0.0
O254 O 0.83354 0.38942 0.86009 0.0
O255 O 0.89798 0.36904 0.87673 0.0
C256 C 0.76541 0.4554 0.79139 0.0
C257 C 0.75826 0.52403 0.84933 0.0
C258 C 0.75468 0.48046 0.8629 0.0
C259 C 0.75797 0.44637 0.83415 0.0
C260 C 0.77002 0.49928 0.77767 0.0
C261 C 0.76605 0.53365 0.80665 0.0
C262 C 0.77687 0.4218 0.76454 0.0
C263 C 0.79953 0.26622 0.73925 0.0
C264 C 0.76615 0.27853 0.85011 0.0
C265 C 0.93228 0.22132 0.81637 0.0
C266 C 0.93091 0.16008 0.74596 0.0
C267 C 0.89203 0.14833 0.77027 0.0
C268 C 0.89265 0.17884 0.80534 0.0
C269 C 0.97313 0.23016 0.79472 0.0
C270 C 0.97231 0.19987 0.75958 0.0
C271 C 0.92787 0.25986 0.84364 0.0
H272 H 0.74826 0.47252 0.89575 0.0
H273 H 0.75564 0.41317 0.84563 0.0
H274 H 0.77724 0.50703 0.74498 0.0
H275 H 0.76831 0.56709 0.79585 0.0
H276 H 0.86028 0.11713 0.76056 0.0
H277 H 0.86082 0.17061 0.82181 0.0
H278 H 1.00431 0.26226 0.80282 0.0
H279 H 1.00302 0.20886 0.74149 0.0
Dy280 Dy 0.86642 0.83251 0.81753 0.0
Dy281 Dy 0.77661 0.78125 0.75578 0.0
C282 C 0.87068 0.75241 0.74006 0.0
O283 O 0.87681 0.88211 0.76485 0.0
O284 O 0.82791 0.82961 0.71154 0.0
O285 O 0.93252 0.83869 0.85465 0.0
O286 O 0.91516 0.90028 0.84674 0.0
O287 O 0.75616 0.8395 0.79054 0.0
O288 O 0.81145 0.8574 0.84931 0.0
O289 O 0.75469 0.74707 0.81916 0.0
O290 O 0.82682 0.77404 0.86037 0.0
O291 O 0.71177 0.71987 0.73661 0.0
O292 O 0.72831 0.7805 0.70035 0.0
C293 C 0.86386 0.87031 0.72329 0.0
O294 O 0.89409 0.78941 0.76892 0.0
O295 O 0.82295 0.73914 0.73438 0.0
C296 C 0.9511 0.89322 0.91414 0.0
C297 C 0.93778 0.8511 0.98983 0.0
C298 C 0.98278 0.86415 0.97457 0.0
C299 C 0.98952 0.88534 0.93626 0.0
C300 C 0.9115 0.89147 0.93568 0.0
C301 C 0.90478 0.8701 0.97392 0.0
C302 C 0.94328 0.88285 0.86737 0.0
C303 C 0.77146 0.8605 0.83054 0.0
C304 C 0.78034 0.74683 0.85603 0.0
C305 C 0.64916 0.74551 0.7135 0.0
C306 C 0.59653 0.80308 0.71816 0.0
C307 C 0.61508 0.79095 0.75653 0.0
C308 C 0.64207 0.76252 0.75414 0.0
C309 C 0.6212 0.7489 0.67648 0.0
C310 C 0.59454 0.7774 0.67887 0.0
C311 C 0.69538 0.74127 0.70801 0.0
H312 H 1.0093 0.85106 0.98804 0.0
H313 H 1.02074 0.88748 0.92043 0.0
H314 H 0.88202 0.89889 0.91969 0.0
H315 H 0.87097 0.86231 0.98704 0.0
H316 H 0.61658 0.81008 0.78719 0.0
H317 H 0.66312 0.76003 0.78328 0.0
H318 H 0.62579 0.7357 0.64492 0.0
H319 H 0.57955 0.78566 0.64895 0.0
C320 C 0.9682 0.1054 0.58154 0.0
C321 C 0.96335 0.14203 0.44798 0.0
C322 C 1.00183 0.94365 0.52044 0.0
Mg323 Mg 1.04624 0.14883 0.52411 0.0
O324 O 1.03779 0.08532 0.50925 0.0
Mg325 Mg 0.9702 0.03736 0.49093 0.0
Mg326 Mg 0.07703 0.05128 0.54109 0.0
O327 O 0.11924 1.02087 0.57274 0.0
Mg328 Mg 0.09782 0.95695 0.5845 0.0
Mg329 Mg 0.19178 0.05921 0.57904 0.0
C330 C 0.14984 0.1545 0.57767 0.0
C331 C 0.1731 0.10275 0.48212 0.0
O332 O 0.95408 0.06689 0.55686 0.0
O333 O 1.00204 0.14212 0.57379 0.0
O334 O 0.94472 0.09761 0.45421 0.0
O335 O 1.00457 0.16814 0.46885 0.0
O336 O 0.12053 0.17297 0.56118 0.0
O337 O 0.14149 0.11036 0.57224 0.0
C338 C 0.97602 1.00052 0.59525 0.0
O339 O 1.02269 1.02134 0.59835 0.0
O340 O 0.95166 1.00375 0.55997 0.0
O341 O 0.17503 1.00146 0.51996 0.0
O342 O 0.13032 0.93205 0.53998 0.0
O343 O 0.20548 1.003 0.63079 0.0
C344 C 0.15404 0.95668 0.5128 0.0
O345 O 0.13867 0.94314 0.6406 0.0
O346 O 1.02708 0.9286 0.5468 0.0
C347 C 0.18431 0.96479 0.64905 0.0
O348 O 1.01364 0.98723 0.51379 0.0
O349 O 0.12709 0.0805 0.48104 0.0
O350 O 0.20039 0.10203 0.51596 0.0
C351 C 0.44964 0.15992 0.10421 0.0
C352 C 0.46613 0.17232 0.9643 0.0
C353 C 0.45808 0.98464 0.956 0.0
Mg354 Mg 0.53797 0.17261 0.04873 0.0
O355 O 0.51742 0.10683 0.03958 0.0
Mg356 Mg 0.44556 0.07362 0.02134 0.0
Mg357 Mg 0.55124 0.06629 1.00881 0.0
O358 O 0.58333 1.02562 0.97497 0.0
Mg359 Mg 0.55911 0.95925 0.96456 0.0
Mg360 Mg 0.65324 0.05478 1.00063 0.0
C361 C 0.63852 0.14507 0.06854 0.0
C362 C 0.63493 0.13321 0.94374 0.0
O363 O 0.42612 0.12196 0.07858 0.0
O364 O 0.49404 0.18353 0.10027 0.0
O365 O 0.44144 0.1298 0.97131 0.0
O366 O 0.50712 0.1944 0.98739 0.0
O367 O 0.6117 0.17004 0.06991 0.0
O368 O 0.62356 0.10413 0.04688 0.0
C369 C 0.47662 1.00158 0.08313 0.0
O370 O 0.51618 1.01108 0.06487 0.0
O371 O 0.44714 1.02101 0.07127 0.0
O372 O 0.67826 1.00079 0.95046 0.0
O373 O 0.61158 0.94025 0.92369 0.0
O374 O 0.64119 1.00147 0.04963 0.0
C375 C 0.65788 0.96121 0.92588 0.0
O376 O 0.57405 0.93894 0.02835 0.0
O377 O 0.4831 0.95839 0.95103 0.0
C378 C 0.6106 0.96167 0.05579 0.0
O379 O 0.47667 1.02803 0.97206 0.0
O380 O 0.59323 0.12475 0.9583 0.0
O381 O 0.66007 0.10851 0.95282 0.0
C382 C 0.93514 0.67886 0.19954 0.0
C383 C 0.94034 0.69562 0.07088 0.0
C384 C 0.91194 0.49792 0.05887 0.0
Mg385 Mg 1.01602 0.69198 0.14153 0.0
O386 O 0.98442 0.6288 0.12443 0.0
Mg387 Mg 0.91484 0.59474 0.11815 0.0
Mg388 Mg 1.00066 0.58949 0.08232 0.0
O389 O 1.01893 0.54634 0.0433 0.0
Mg390 Mg 1.00657 0.487 0.06362 0.0
Mg391 Mg 0.08737 0.58568 0.03877 0.0
C392 C 0.10818 0.67276 0.11925 0.0
C393 C 1.02006 0.63638 0.99293 0.0
O394 O 0.91042 0.64195 0.17468 0.0
O395 O 0.97941 0.70271 0.19606 0.0
O396 O 0.91069 0.65386 0.07523 0.0
O397 O 0.98332 0.71369 0.08972 0.0
O398 O 0.09133 0.69834 0.14143 0.0
O399 O 0.08057 0.63655 0.09445 0.0
C400 C 0.97257 0.54408 0.17256 0.0
O401 O 1.00285 0.55253 0.14448 0.0
O402 O 0.93341 0.55116 0.16633 0.0
O403 O 0.08154 0.52247 0.98853 0.0
O404 O 1.01967 0.45879 1.00419 0.0
O405 O 0.12088 0.55227 0.08753 0.0
C406 C 0.05362 0.4787 0.98141 0.0
O407 O 0.06582 0.49063 0.1104 0.0
O408 O 0.93857 0.48447 0.08471 0.0
C409 C 0.10945 0.51814 0.1105 0.0
O410 O 0.92078 0.54239 0.06157 0.0
O411 O 0.99604 0.63001 0.02515 0.0
O412 O 0.05421 0.62147 0.98983 0.0
C413 C 0.43674 0.57232 0.09195 0.0
C414 C 0.44784 0.643 0.97692 0.0
C415 C 0.52155 0.46077 0.99788 0.0
Mg416 Mg 0.52054 0.64497 0.05542 0.0
O417 O 0.53378 0.59578 0.02721 0.0
Mg418 Mg 0.47394 0.54216 0.9984 0.0
Mg419 Mg 0.57886 0.56285 0.05192 0.0
O420 O 0.62196 0.52803 0.07652 0.0
Mg421 Mg 0.6246 0.47062 0.05107 0.0
Mg422 Mg 0.68393 0.58087 0.10229 0.0
C423 C 0.61951 0.65598 0.11637 0.0
C424 C 0.67802 0.628 0.99966 0.0
O425 O 0.437 0.54159 0.06242 0.0
O426 O 0.46465 0.61485 0.09384 0.0
O427 O 0.43547 0.59768 0.97532 0.0
O428 O 0.48438 0.67013 1.00297 0.0
O429 O 0.58457 0.66863 0.10337 0.0
O430 O 0.62931 0.62398 0.09546 0.0
C431 C 0.48 0.4925 0.09797 0.0
O432 O 0.52553 0.51811 0.1034 0.0
O433 O 0.4554 0.49922 0.06424 0.0
O434 O 0.70712 0.56981 0.03429 0.0
O435 O 0.67469 0.49482 1.00655 0.0
O436 O 0.72251 0.52299 0.12344 0.0
C437 C 0.7021 0.53708 1.00464 0.0
O438 O 0.66981 0.4499 0.1017 0.0
O439 O 0.55096 0.44061 1.01018 0.0
C440 C 0.70961 0.47755 0.12379 0.0
O441 O 0.52831 0.50273 1.01067 0.0
O442 O 0.6318 0.60669 0.99815 0.0
O443 O 0.70368 0.62034 0.03246 0.0
C444 C 0.98397 0.65521 0.63583 0.0
C445 C 1.03014 0.65592 0.50401 0.0
C446 C 1.01086 0.46888 0.49918 0.0
Mg447 Mg 0.08341 0.66274 0.59556 0.0
O448 O 0.06332 0.59699 0.58211 0.0
Mg449 Mg 0.99345 0.56251 0.56011 0.0
Mg450 Mg 0.09876 0.55808 0.55126 0.0
O451 O 0.13449 0.51727 0.52521 0.0
Mg452 Mg 0.11496 0.45158 0.52714 0.0
Mg453 Mg 0.20567 0.55249 0.54578 0.0
C454 C 0.18567 0.6403 0.61164 0.0
C455 C 0.1776 0.62298 0.47661 0.0
O456 O 0.96522 0.61551 0.61089 0.0
O457 O 1.02999 0.67761 0.6379 0.0
O458 O 1.00242 0.615 0.5112 0.0
O459 O 0.0659 0.6816 0.53124 0.0
O460 O 0.15861 0.66458 0.61598 0.0
O461 O 0.17108 0.59982 0.58949 0.0
C462 C 1.02233 0.49492 0.62428 0.0
O463 O 0.06353 0.5055 0.60854 0.0
O464 O 0.99165 0.51219 0.61066 0.0
O465 O 0.22687 0.4985 0.49479 0.0
O466 O 0.15884 0.436 0.47716 0.0
O467 O 0.21069 0.50217 0.60223 0.0
C468 C 0.20357 0.45807 0.47242 0.0
O469 O 0.14742 0.43511 0.58963 0.0
O470 O 1.03687 0.44429 0.50946 0.0
C471 C 0.18739 0.46055 0.61236 0.0
O472 O 1.02521 0.51379 0.51147 0.0
O473 O 0.13618 0.61323 0.49249 0.0
O474 O 0.20578 0.60279 0.49089 0.0
C475 C 0.56731 0.2255 0.53285 0.0
C476 C 0.59565 0.15449 0.42555 0.0
C477 C 0.49303 0.99329 0.47727 0.0
Mg478 Mg 0.63792 0.17535 0.51915 0.0
O479 O 0.5856 0.12849 0.53773 0.0
Mg480 Mg 0.52213 0.10996 0.50144 0.0
Mg481 Mg 0.59185 0.0674 0.53772 0.0
O482 O 0.60022 1.00757 0.53608 0.0
Mg483 Mg 0.55539 0.94694 0.53239 0.0
Mg484 Mg 0.6658 1.02615 0.56629 0.0
C485 C 0.6952 0.13938 0.58798 0.0
C486 C 0.67346 0.07165 0.47632 0.0
O487 O 0.53189 0.18688 0.51981 0.0
O488 O 0.61141 0.2294 0.53615 0.0
O489 O 0.55481 0.13416 0.4389 0.0
O490 O 0.63414 0.16778 0.45137 0.0
O491 O 0.69738 0.16446 0.55614 0.0
O492 O 0.66074 0.09929 0.58801 0.0
C493 C 0.50968 0.06919 0.59502 0.0
O494 O 0.54483 0.05587 0.59131 0.0
O495 O 0.49396 0.08913 0.5657 0.0
O496 O 0.66761 0.95526 0.53617 0.0
O497 O 0.59473 0.91195 0.50109 0.0
O498 O 0.6307 0.98973 0.62458 0.0
C499 C 0.63944 0.92021 0.51006 0.0
O500 O 0.55998 0.9325 0.59866 0.0
O501 O 0.49798 0.95668 0.49114 0.0
C502 C 0.59415 0.95289 0.62911 0.0
O503 O 0.5232 0.03493 0.49024 0.0
O504 O 0.63568 0.07951 0.48188 0.0
O505 O 0.69451 0.05618 0.50539 0.0
C506 C 0.23585 0.21314 0.42041 0.0
C507 C 0.25113 0.19562 0.38328 0.0
C508 C 0.21679 0.1162 0.41141 0.0
C509 C 0.19641 0.13322 0.44526 0.0
N510 N 0.17792 0.19814 0.47268 0.0
N511 N 0.25035 0.1269 0.34223 0.0
C512 C 0.20356 0.18175 0.44683 0.0
C513 C 0.23938 0.14597 0.37837 0.0
N514 N 0.25313 0.2602 0.43181 0.0
N515 N 0.21616 0.07176 0.41148 0.0
H516 H 0.26873 0.14725 0.31911 0.0
H517 H 0.23854 0.09098 0.33386 0.0
H518 H 0.2007 0.04979 0.43473 0.0
H519 H 0.2342 0.05812 0.39092 0.0
H520 H 0.24767 0.27475 0.46089 0.0
H521 H 0.27637 0.28446 0.41417 0.0
H522 H 0.17777 0.23188 0.47263 0.0
H523 H 0.15245 0.176 0.49008 0.0
C524 C 0.90077 0.22547 0.40162 0.0
C525 C 0.89392 0.21408 0.35555 0.0
C526 C 0.93223 0.15497 0.36979 0.0
C527 C 0.93685 0.16481 0.41582 0.0
N528 N 0.91634 0.2047 0.47456 0.0
N529 N 0.89573 0.16004 0.29778 0.0
C530 C 0.9185 0.19881 0.43117 0.0
C531 C 0.90786 0.17669 0.34041 0.0
N532 N 0.89236 0.26352 0.4176 0.0
N533 N 0.95276 0.12572 0.35367 0.0
H534 H 0.87762 0.17397 0.27586 0.0
H535 H 0.89945 0.12984 0.28495 0.0
H536 H 0.96956 0.10873 0.37351 0.0
H537 H 0.95634 0.121 0.32104 0.0
H538 H 0.9022 0.27781 0.44965 0.0
H539 H 0.8793 0.28356 0.39811 0.0
H540 H 0.89835 0.22414 0.48813 0.0
H541 H 0.92877 0.18647 0.4968 0.0
C542 C 0.93045 0.86179 0.42409 0.0
C543 C 0.89019 0.83284 0.4424 0.0
C544 C 0.92519 0.8731 0.51365 0.0
C545 C 0.96099 0.90769 0.49378 0.0
N546 N 0.99524 0.93638 0.42836 0.0
N547 N 0.84716 0.80973 0.50373 0.0
C548 C 0.96302 0.90247 0.44853 0.0
C549 C 0.88728 0.83758 0.48713 0.0
N550 N 0.9372 0.85028 0.38297 0.0
N551 N 0.92736 0.874 0.5576 0.0
H552 H 0.82 0.78175 0.48524 0.0
H553 H 0.83979 0.81557 0.53506 0.0
H554 H 0.95333 0.9004 0.57825 0.0
H555 H 0.90543 0.84695 0.57363 0.0
H556 H 0.96869 0.86682 0.36929 0.0
H557 H 0.91313 0.82073 0.36431 0.0
H558 H 0.99394 0.93634 0.39487 0.0
H559 H 1.02093 0.96686 0.44418 0.0
C560 C 0.12227 0.85923 0.42351 0.0
C561 C 0.11952 0.8831 0.38663 0.0
C562 C 0.12779 0.95165 0.43367 0.0
C563 C 0.14504 0.93266 0.46893 0.0
N564 N 0.1593 0.86516 0.49513 0.0
N565 N 0.12177 0.95451 0.35656 0.0
C566 C 0.14205 0.88554 0.46349 0.0
C567 C 0.12224 0.92993 0.39154 0.0
N568 N 0.11187 0.81216 0.41918 0.0
N569 N 0.11254 0.9876 0.44053 0.0
H570 H 0.11592 0.93964 0.32478 0.0
H571 H 0.1297 0.99051 0.35954 0.0
H572 H 0.10722 0.99804 0.47129 0.0
H573 H 0.09792 1.00128 0.41561 0.0
H574 H 0.11508 0.7936 0.44553 0.0
H575 H 0.09783 0.79216 0.38948 0.0
H576 H 0.17804 0.88275 0.52465 0.0
H577 H 0.17804 0.88275 0.52465 0.0
C578 C 0.26769 0.89653 0.68546 0.0
C579 C 0.25596 0.88566 0.72818 0.0
C580 C 0.20319 0.93269 0.72089 0.0
C581 C 0.21282 0.94141 0.67752 0.0
N582 N 0.25021 0.92548 0.61683 0.0
N583 N 0.20577 0.88921 0.78336 0.0
C584 C 0.24446 0.92199 0.65966 0.0
C585 C 0.22171 0.90255 0.74473 0.0
N586 N 0.30029 0.8812 0.66869 0.0
N587 N 0.17759 0.9551 0.74032 0.0
H588 H 0.22007 0.87058 0.80346 0.0
H589 H 0.17626 0.89413 0.79452 0.0
H590 H 0.164 0.97726 0.72438 0.0
H591 H 0.17359 0.95543 0.77312 0.0
H592 H 0.31477 0.89129 0.64015 0.0
H593 H 0.31445 0.85921 0.68411 0.0
H594 H 0.26758 0.908 0.59953 0.0
H595 H 0.2346 0.94362 0.59728 0.0
C596 C 0.20545 0.22548 0.68443 0.0
C597 C 0.25368 0.22841 0.68614 0.0
C598 C 0.2364 0.19374 0.61106 0.0
C599 C 0.18671 0.18269 0.6132 0.0
N600 N 0.12334 0.18224 0.65616 0.0
N601 N 0.31458 0.2113 0.6514 0.0
C602 C 0.17105 0.19653 0.65123 0.0
C603 C 0.26914 0.21126 0.6495 0.0
N604 N 0.19301 0.25376 0.71198 0.0
N605 N 0.2526 0.19085 0.57205 0.0
H606 H 0.33916 0.2234 0.67927 0.0
H607 H 0.32619 0.19552 0.62666 0.0
H608 H 0.22974 0.184 0.54335 0.0
H609 H 0.2889 0.20162 0.56804 0.0
H610 H 0.15922 0.25606 0.70921 0.0
H611 H 0.21843 0.27977 0.73318 0.0
H612 H 0.11116 0.18733 0.68559 0.0
H613 H 0.09606 0.16234 0.63222 0.0
C614 C 0.95987 0.10892 0.70205 0.0
C615 C 0.92841 0.13307 0.70458 0.0
C616 C 0.90996 0.12151 0.62569 0.0
C617 C 0.94928 0.10721 0.62332 0.0
N618 N 1.01748 0.09549 0.66024 0.0
N619 N 0.87569 0.16633 0.66852 0.0
C620 C 0.97539 0.10225 0.66173 0.0
C621 C 0.90307 0.13963 0.66636 0.0
N622 N 0.97637 0.09426 0.73848 0.0
N623 N 0.88046 0.11927 0.58906 0.0
H624 H 0.87082 0.18131 0.6976 0.0
H625 H 0.86077 0.17651 0.64132 0.0
H626 H 0.88551 0.10687 0.55878 0.0
H627 H 0.8488 0.12557 0.58945 0.0
H628 H 0.9965 0.07307 0.73777 0.0
H629 H 0.96553 0.0993 0.76862 0.0
H630 H 1.04002 0.09584 0.68773 0.0
H631 H 1.03253 0.0951 0.63162 0.0
C632 C 0.86999 0.92357 0.65955 0.0
C633 C 0.89243 0.90322 0.6903 0.0
C634 C 0.96993 0.9455 0.65955 0.0
C635 C 0.94855 0.96984 0.63116 0.0
N636 N 0.877 0.98772 0.61577 0.0
N637 N 0.96752 0.90194 0.72277 0.0
C638 C 0.89819 0.96003 0.63433 0.0
C639 C 0.94346 0.91697 0.69143 0.0
N640 N 0.82104 0.90869 0.65443 0.0
N641 N 1.01449 0.94565 0.65421 0.0
H642 H 0.95036 0.87711 0.74323 0.0
H643 H 1.00476 0.91627 0.73012 0.0
H644 H 1.0351 0.96278 0.63102 0.0
H645 H 1.02913 0.92395 0.66951 0.0
H646 H 0.80173 0.91684 0.62882 0.0
H647 H 0.79942 0.88522 0.67378 0.0
H648 H 0.84284 0.98625 0.62094 0.0
H649 H 0.89529 1.01639 0.59998 0.0
C650 C 0.38498 0.234 0.16025 0.0
C651 C 0.38419 0.22144 0.2039 0.0
C652 C 0.42818 0.16974 0.1828 0.0
C653 C 0.42485 0.17902 0.13838 0.0
N654 N 0.39319 0.2163 0.08466 0.0
N655 N 0.39822 0.16931 0.25309 0.0
C656 C 0.40096 0.20989 0.12725 0.0
C657 C 0.40414 0.18719 0.21405 0.0
N658 N 0.37322 0.27135 0.15056 0.0
N659 N 0.45567 0.14514 0.19577 0.0
H660 H 0.38123 0.18083 0.27639 0.0
H661 H 0.406 0.14019 0.26059 0.0
H662 H 0.47312 0.13181 0.17425 0.0
H663 H 0.4643 0.14137 0.22808 0.0
H664 H 0.37806 0.2861 0.12128 0.0
H665 H 0.36334 0.29081 0.17347 0.0
H666 H 0.37141 0.23374 0.07331 0.0
H667 H 0.40536 0.20076 0.0601 0.0
C668 C 0.05671 0.54903 0.27084 0.0
C669 C 1.02905 0.50655 0.28567 0.0
C670 C 0.95775 0.50385 0.24203 0.0
C671 C 0.98832 0.53681 0.21699 0.0
N672 N 0.05664 0.61029 0.22539 0.0
N673 N 0.95332 0.47244 0.31229 0.0
C674 C 1.03493 0.56622 0.2371 0.0
C675 C 0.97914 0.49469 0.28106 0.0
N676 N 0.10442 0.56844 0.28497 0.0
N677 N 0.91021 0.48027 0.22842 0.0
H678 H 0.97075 0.46638 0.34045 0.0
H679 H 0.91663 0.46485 0.31203 0.0
H680 H 0.89361 0.48329 0.19863 0.0
H681 H 0.88776 0.45605 0.24649 0.0
H682 H 0.12821 0.59752 0.2727 0.0
H683 H 0.11957 0.55361 0.30864 0.0
H684 H 0.08862 0.63424 0.24185 0.0
H685 H 1.03998 0.62403 0.20197 0.0
C686 C 0.6738 0.90513 0.12845 0.0
C687 C 0.67855 0.93306 0.16771 0.0
C688 C 0.62164 0.9649 0.13571 0.0
C689 C 0.62134 0.94151 0.09527 0.0
N690 N 0.63623 0.88107 0.05415 0.0
N691 N 0.65921 0.99056 0.20946 0.0
C692 C 0.64376 0.90861 0.09207 0.0
C693 C 0.6523 0.96256 0.17188 0.0
N694 N 0.69997 0.87721 0.12562 0.0
N695 N 0.59185 0.98882 0.13919 0.0
H696 H 0.68135 0.98965 0.23681 0.0
H697 H 0.64559 1.01689 0.21296 0.0
H698 H 0.56897 0.99001 0.11278 0.0
H699 H 0.58648 1.00347 0.16819 0.0
H700 H 0.70235 0.85945 0.09714 0.0
H701 H 0.72107 0.87263 0.15203 0.0
H702 H 0.64889 0.8542 0.04974 0.0
H703 H 0.61397 0.88288 0.0273 0.0
C704 C 0.22584 0.67462 0.1747 0.0
C705 C 0.25612 0.71882 0.16518 0.0
C706 C 0.19399 0.71976 0.10889 0.0
C707 C 0.16035 0.68234 0.12718 0.0
N708 N 0.14442 0.62377 0.17737 0.0
N709 N 0.27773 0.77272 0.11112 0.0
C710 C 0.17657 0.6587 0.15894 0.0
C711 C 0.24299 0.73767 0.12774 0.0
N712 N 0.2442 0.64768 0.19809 0.0
N713 N 0.1784 0.73922 0.07532 0.0
H714 H 0.31376 0.78406 0.12411 0.0
H715 H 0.27192 0.7881 0.08343 0.0
H716 H 0.14288 0.72535 0.06074 0.0
H717 H 0.20002 0.7687 0.06198 0.0
H718 H 0.22381 0.61336 0.20348 0.0
H719 H 0.28108 0.65777 0.20695 0.0
H720 H 0.15386 0.61429 0.20729 0.0
H721 H 0.10849 0.60757 0.16447 0.0
C722 C 0.33282 0.94434 0.8961 0.0
C723 C 0.31728 0.89751 0.90621 0.0
C724 C 0.38115 0.91935 0.96585 0.0
C725 C 0.40507 0.96119 0.94643 0.0
N726 N 0.40119 1.01664 0.8958 0.0
N727 N 0.3101 0.84731 0.96274 0.0
C728 C 0.37947 0.9757 0.91346 0.0
C729 C 0.33562 0.88763 0.94585 0.0
N730 N 0.30416 0.9567 0.86703 0.0
N731 N 0.40317 0.90955 1.00204 0.0
H732 H 0.27586 0.82569 0.94831 0.0
H733 H 0.32067 0.83697 0.99182 0.0
H734 H 0.43556 0.9335 1.01751 0.0
H735 H 0.3898 0.87867 1.01675 0.0
H736 H 0.31163 0.99084 0.85917 0.0
H737 H 0.27043 0.9325 0.85421 0.0
H738 H 0.38602 1.02617 0.86838 0.0
H739 H 0.43577 0.03999 0.907 0.0
C740 C 0.1022 0.38508 0.95215 0.0
C741 C 0.09632 0.38267 0.90633 0.0
C742 C 0.05894 0.44138 0.90897 0.0
C743 C 0.06871 0.44663 0.95465 0.0
N744 N 0.10167 0.42602 0.02038 0.0
N745 N 0.07081 0.40819 0.84026 0.0
C746 C 0.09054 0.41886 0.97639 0.0
C747 C 0.07497 0.41066 0.88443 0.0
N748 N 0.11905 0.35496 0.97253 0.0
N749 N 1.03312 0.46469 0.88943 0.0
H750 H 0.08014 0.38442 0.82157 0.0
H751 H 0.06004 0.43066 0.82209 0.0
H752 H 1.0216 0.48776 0.9067 0.0
H753 H 1.02059 0.45922 0.85668 0.0
H754 H 0.11813 0.35025 1.00524 0.0
H755 H 0.13146 0.33192 0.95647 0.0
H756 H 0.12196 0.41072 0.03803 0.0
H757 H 0.09332 0.4499 0.03969 0.0
C758 C 0.73706 0.24644 0.92021 0.0
C759 C 0.72727 0.24658 0.8749 0.0
C760 C 0.64789 0.18253 0.87839 0.0
C761 C 0.66172 0.17709 0.92196 0.0
N762 N 0.72433 0.2025 0.98271 0.0
N763 N 0.67312 0.21147 0.80986 0.0
C764 C 0.70756 0.20892 0.94235 0.0
C765 C 0.68218 0.21421 0.85382 0.0
N766 N 0.77387 0.28338 0.94274 0.0
N767 N 0.60213 0.15708 0.86019 0.0
H768 H 0.69703 0.23323 0.79088 0.0
H769 H 0.64374 0.18533 0.79192 0.0
H770 H 0.57713 0.13297 0.87674 0.0
H771 H 0.58792 0.16349 0.83068 0.0
H772 H 0.78009 0.28792 0.9764 0.0
H773 H 0.79454 0.31231 0.92795 0.0
H774 H 0.75971 0.22023 0.99657 0.0
H775 H 0.70385 0.17763 1.00156 0.0
C776 C 0.92418 0.80909 0.05555 0.0
C777 C 0.92084 0.80722 1.01035 0.0
C778 C 0.91409 0.72549 1.0049 0.0
C779 C 0.92342 0.7291 0.0503 0.0
N780 N 0.9355 0.77545 0.11975 0.0
N781 N 0.90293 0.76041 0.94099 0.0
C782 C 0.92659 0.77038 0.07583 0.0
C783 C 0.91163 0.76438 0.98488 0.0
N784 N 0.92796 0.84897 0.07959 0.0
N785 N 0.91139 0.68639 0.98027 0.0
H786 H 0.90014 0.78715 0.92328 0.0
H787 H 0.90014 0.78715 0.92328 0.0
H788 H 0.91581 0.65774 0.99352 0.0
H789 H 0.90572 0.68325 0.94655 0.0
H790 H 0.93142 0.85194 0.11332 0.0
H791 H 0.92615 0.87832 0.06556 0.0
H792 H 0.94036 0.75015 0.13839 0.0
H793 H 0.94036 0.75015 0.13839 0.0
C794 C 0.19297 0.4541 0.11624 0.0
C795 C 0.18196 0.43601 0.15634 0.0
C796 C 0.14796 0.49412 0.17375 0.0
C797 C 0.14783 0.50389 0.13031 0.0
N798 N 0.19012 0.51148 0.06699 0.0
N799 N 0.15406 0.44146 0.22622 0.0
C800 C 0.17714 0.49008 0.10362 0.0
C801 C 0.16269 0.45799 0.18671 0.0
N802 N 0.21699 0.43564 0.09004 0.0
N803 N 0.13407 0.51978 0.2025 0.0
H804 H 0.16076 0.41259 0.23626 0.0
H805 H 0.13749 0.45456 0.24866 0.0
H806 H 0.11495 0.54 0.19225 0.0
H807 H 0.14252 0.52146 0.2358 0.0
H808 H 0.22192 0.44324 0.05835 0.0
H809 H 0.23138 0.41126 0.09992 0.0
H810 H 0.21263 0.50409 0.04687 0.0
H811 H 0.18236 0.5402 0.05838 0.0
C812 C 1.01836 0.72815 0.91836 0.0
C813 C 1.00492 0.6984 0.87958 0.0
C814 C 0.97655 0.63078 0.91963 0.0
C815 C 1.0058 0.65884 0.95677 0.0
N816 N 1.04598 0.73587 0.99496 0.0
N817 N 0.93968 0.63035 0.84676 0.0
C818 C 1.02328 0.70838 0.95769 0.0
C819 C 0.97145 0.65302 0.88204 0.0
N820 N 1.02389 0.77383 0.91719 0.0
N821 N 0.95757 0.58327 0.91899 0.0
H822 H 0.9386 0.64715 0.81874 0.0
H823 H 0.91336 0.59703 0.84668 0.0
H824 H 0.95936 0.56593 0.94651 0.0
H825 H 0.94342 0.56159 0.89034 0.0
H826 H 1.03128 0.79699 0.94481 0.0
H827 H 1.0162 0.78651 0.88821 0.0
H828 H 0.06312 0.7721 0.99618 0.0
H829 H 0.04897 0.72193 0.02432 0.0
C830 C 0.43237 0.26845 0.90578 0.0
C831 C 0.39638 0.24203 0.87139 0.0
C832 C 0.41457 0.17242 0.89187 0.0
C833 C 0.44419 0.19727 0.93088 0.0
N834 N 0.46954 0.26928 0.97815 0.0
N835 N 0.35051 0.16577 0.83491 0.0
C836 C 0.45004 0.24547 0.93853 0.0
C837 C 0.38655 0.19303 0.86568 0.0
N838 N 0.4511 0.31603 0.90698 0.0
N839 N 0.41546 0.13009 0.87791 0.0
H840 H 0.33082 0.17964 0.8145 0.0
H841 H 0.33797 0.12932 0.83198 0.0
H842 H 0.4386 0.11623 0.89343 0.0
H843 H 0.39826 0.11194 0.84818 0.0
H844 H 0.48087 0.33687 0.92845 0.0
H845 H 0.44018 0.33404 0.8836 0.0
H846 H 0.47061 0.30291 0.98636 0.0
H847 H 0.4789 0.2538 1.00447 0.0
C848 C 0.88757 0.39771 0.96962 0.0
C849 C 0.87893 0.41828 0.93143 0.0
C850 C 0.87636 0.48516 0.97816 0.0
C851 C 0.89258 0.4681 1.01544 0.0
N852 N 0.88522 0.39645 0.04686 0.0
N853 N 0.86798 0.48402 0.89982 0.0
C854 C 0.89053 0.42109 1.01127 0.0
C855 C 0.87361 0.46249 0.93594 0.0
N856 N 0.89224 0.35523 0.96676 0.0
N857 N 0.85931 0.52024 0.98323 0.0
H858 H 0.87134 0.47189 0.86891 0.0
H859 H 0.86462 0.51641 0.90043 0.0
H860 H 0.85411 0.53267 1.01335 0.0
H861 H 0.84303 0.53164 0.95789 0.0
H862 H 0.90731 0.34306 0.99253 0.0
H863 H 0.88247 0.33232 0.93878 0.0
H864 H 0.87844 0.36076 0.04571 0.0
H865 H 0.88013 0.40974 0.07666 0.0
C866 C 0.72867 0.87718 0.89759 0.0
C867 C 0.74288 0.88728 0.85522 0.0
C868 C 0.69922 0.94411 0.8579 0.0
C869 C 0.68864 0.93688 0.90157 0.0
N870 N 0.70224 0.89996 0.9645 0.0
N871 N 0.74912 0.94074 0.80089 0.0
C872 C 0.70622 0.90445 0.92159 0.0
C873 C 0.72975 0.92344 0.8371 0.0
N874 N 0.73425 0.83941 0.91454 0.0
N875 N 0.67931 0.97045 0.83535 0.0
H876 H 0.7722 0.9282 0.78588 0.0
H877 H 0.74591 0.97012 0.78819 0.0
H878 H 0.65856 0.9868 0.84929 0.0
H879 H 0.68015 0.97284 0.80222 0.0
H880 H 0.72058 0.8264 0.94267 0.0
H881 H 0.74827 0.81805 0.89798 0.0
H882 H 0.71862 0.88164 0.98295 0.0
H883 H 0.68602 0.91819 0.98255 0.0
C884 C 0.89806 0.72376 0.30168 0.0
C885 C 0.8559 0.72989 0.28395 0.0
C886 C 0.86665 0.70393 0.21149 0.0
C887 C 0.90872 0.69704 0.22904 0.0
N888 N 0.9598 0.69223 0.29117 0.0
N889 N 0.79392 0.71563 0.22446 0.0
C890 C 0.9235 0.70514 0.27426 0.0
C891 C 0.83853 0.7171 0.23961 0.0
N892 N 0.91313 0.73487 0.34488 0.0
N893 N 0.85397 0.69939 0.16771 0.0
H894 H 0.77261 0.72628 0.24356 0.0
H895 H 0.77605 0.69998 0.19414 0.0
H896 H 0.87077 0.68715 0.14491 0.0
H897 H 0.82864 0.71132 0.15323 0.0
H898 H 0.94657 0.7373 0.35929 0.0
H899 H 0.89215 0.74284 0.36646 0.0
H900 H 0.96929 0.69255 0.32412 0.0
H901 H 0.97846 0.67762 0.27213 0.0
C902 C 0.41922 0.9565 0.18696 0.0
C903 C 0.41225 0.90786 0.18428 0.0
C904 C 0.4576 0.9218 0.11873 0.0
C905 C 0.46295 0.96997 0.12112 0.0
N906 N 0.46304 0.03485 0.16726 0.0
N907 N 0.42886 0.84536 0.1479 0.0
C908 C 0.44764 0.98745 0.15806 0.0
C909 C 0.43328 0.89117 0.1505 0.0
N910 N 0.39808 0.97382 0.21696 0.0
N911 N 0.47479 0.90489 0.08531 0.0
H912 H 0.4075 0.82095 0.16663 0.0
H913 H 0.44688 0.83113 0.12797 0.0
H914 H 0.49531 0.92663 0.06425 0.0
H915 H 0.46852 0.86978 0.07759 0.0
H916 H 0.39543 1.00653 0.21644 0.0
H917 H 0.38048 0.95476 0.241 0.0
H918 H 0.45881 0.0507 0.19614 0.0
H919 H 0.48542 0.05843 0.14839 0.0
C920 C 0.74236 0.2373 0.13671 0.0
C921 C 0.76576 0.21239 0.16065 0.0
C922 C 0.7061 0.13936 0.12238 0.0
C923 C 0.68719 0.16573 0.09479 0.0
N924 N 0.70041 0.24174 0.06902 0.0
N925 N 0.77474 0.13888 0.16966 0.0
C926 C 0.71029 0.21518 0.09932 0.0
C927 C 0.74946 0.16312 0.15106 0.0
N928 N 0.74587 0.28059 0.1523 0.0
N929 N 0.68127 0.0927 0.12433 0.0
H930 H 0.80598 0.15521 0.1911 0.0
H931 H 0.76686 0.10351 0.1609 0.0
H932 H 0.6482 0.07399 0.10652 0.0
H933 H 0.69127 0.07355 0.14717 0.0
H934 H 0.72537 0.29809 0.13819 0.0
H935 H 0.76315 0.2951 0.18276 0.0
H936 H 0.71966 0.27773 0.07008 0.0
H937 H 0.6768 0.22751 0.04087 0.0
C938 C 0.71468 0.6724 0.88341 0.0
C939 C 0.75529 0.71579 0.89317 0.0
C940 C 0.74724 0.69996 0.97196 0.0
C941 C 0.70351 0.65888 0.96231 0.0
N942 N 0.64075 0.6163 0.90396 0.0
N943 N 0.8004 0.77468 0.95117 0.0
C944 C 0.68581 0.64857 0.91672 0.0
C945 C 0.76905 0.73006 0.93867 0.0
N946 N 0.70452 0.65165 0.84201 0.0
N947 N 0.76808 0.71239 1.01377 0.0
H948 H 0.8152 0.79883 0.92944 0.0
H949 H 0.80706 0.78956 0.98302 0.0
H950 H 0.75075 0.6992 0.04027 0.0
H951 H 0.80353 0.73555 0.02197 0.0
H952 H 0.67782 0.6189 0.83266 0.0
H953 H 0.72658 0.66426 0.81803 0.0
H954 H 0.62381 0.61195 0.87252 0.0
H955 H 0.61825 0.59664 0.92484 0.0
C956 C 0.40332 0.69124 0.87467 0.0
C957 C 0.37619 0.71623 0.89195 0.0
C958 C 0.39479 0.69214 0.96476 0.0
C959 C 0.42022 0.66556 0.94712 0.0
N960 N 0.44334 0.63565 0.8835 0.0
N961 N 0.34289 0.73671 0.95369 0.0
C962 C 0.42264 0.66387 0.90151 0.0
C963 C 0.37094 0.7153 0.93707 0.0
N964 N 0.41159 0.69436 0.83237 0.0
N965 N 0.394 0.69588 1.00854 0.0
H966 H 0.32778 0.75641 0.93569 0.0
H967 H 0.33237 0.73324 0.98458 0.0
H968 H 0.40766 0.67713 0.02921 0.0
H969 H 0.38193 0.71896 0.02489 0.0
H970 H 0.4356 0.68237 0.8185 0.0
H971 H 0.39657 0.71176 0.81138 0.0
H972 H 0.44151 0.62779 0.85037 0.0
H973 H 0.45985 0.61726 0.90177 0.0
C974 C 0.39844 0.38014 0.94207 0.0
C975 C 0.39469 0.40591 0.90647 0.0
C976 C 0.474 0.46428 0.92972 0.0
C977 C 0.4791 0.43846 0.96525 0.0
N978 N 0.44093 0.37927 1.01181 0.0
N979 N 0.41953 0.47908 0.87577 0.0
C980 C 0.43965 0.39859 0.97358 0.0
C981 C 0.42937 0.45047 0.90388 0.0
N982 N 0.36407 0.33699 0.94442 0.0
N983 N 0.51228 0.50119 0.91962 0.0
H984 H 0.38644 0.46883 0.8566 0.0
H985 H 0.4416 0.51403 0.87493 0.0
H986 H 0.54595 0.51319 0.93748 0.0
H987 H 0.51176 0.5176 0.89138 0.0
H988 H 0.36799 0.31373 0.96603 0.0
H989 H 0.33226 0.32384 0.92343 0.0
H990 H 0.4113 0.35321 0.02153 0.0
H991 H 0.47067 0.39173 0.03534 0.0
C992 C 0.78094 0.57748 0.91573 0.0
C993 C 0.74663 0.55514 0.87974 0.0
C994 C 0.68228 0.53629 0.9252 0.0
C995 C 0.71752 0.5503 0.96214 0.0
N996 N 0.79989 0.59278 0.99293 0.0
N997 N 0.66568 0.53097 0.84689 0.0
C998 C 0.76649 0.57486 0.95759 0.0
C999 C 0.69744 0.54146 0.88356 0.0
N1000 N 0.82819 0.59829 0.91073 0.0
N1001 N 0.63463 0.51639 0.92997 0.0
H1002 H 0.67739 0.53446 0.81632 0.0
H1003 H 0.62903 0.52329 0.84666 0.0
H1004 H 0.62161 0.51726 0.95971 0.0
H1005 H 0.60804 0.49873 0.90462 0.0
H1006 H 0.84067 0.60081 0.88045 0.0
H1007 H 0.84067 0.60081 0.88045 0.0
H1008 H 0.83627 0.60948 0.99015 0.0
H1009 H 0.7915 0.59043 0.02462 0.0
C1010 C 0.7908 0.40517 0.15408 0.0
C1011 C 0.79173 0.40407 0.20029 0.0
C1012 C 0.74038 0.45311 0.19663 0.0
C1013 C 0.74094 0.45536 0.15093 0.0
N1014 N 0.7762 0.44052 0.08855 0.0
N1015 N 0.77582 0.43856 0.26536 0.0
C1016 C 0.76901 0.4334 0.13063 0.0
C1017 C 0.7687 0.4313 0.22127 0.0
N1018 N 0.80832 0.37711 0.13141 0.0
N1019 N 0.71142 0.47078 0.21679 0.0
H1020 H 0.79759 0.42549 0.28417 0.0
H1021 H 0.76473 0.46161 0.283 0.0
H1022 H 0.69179 0.48793 0.20066 0.0
H1023 H 0.70415 0.46553 0.24851 0.0
H1024 H 0.80124 0.36985 0.09794 0.0
H1025 H 0.82591 0.35733 0.1458 0.0
H1026 H 0.80069 0.43085 0.07281 0.0
H1027 H 0.76089 0.46012 0.07055 0.0
C1028 C 0.66578 0.66514 0.23534 0.0
C1029 C 0.67027 0.71171 0.24785 0.0
C1030 C 0.65368 0.72322 0.17235 0.0
C1031 C 0.6433 0.67527 0.16038 0.0
N1032 N 0.62521 0.59751 0.18428 0.0
N1033 N 0.6552 0.78025 0.22934 0.0
C1034 C 0.64519 0.64511 0.19283 0.0
C1035 C 0.65958 0.73906 0.21659 0.0
N1036 N 0.68344 0.64068 0.26265 0.0
N1037 N 0.65895 0.75385 0.14147 0.0
H1038 H 0.65794 0.79188 0.26191 0.0
H1039 H 0.64369 0.79977 0.20789 0.0
H1040 H 0.6575 0.74385 0.10868 0.0
H1041 H 0.66987 0.78978 0.14902 0.0
H1042 H 0.68546 0.60867 0.25267 0.0
H1043 H 0.70009 0.65398 0.29373 0.0
H1044 H 0.62198 0.5749 0.20848 0.0
H1045 H 0.6072 0.58046 0.15447 0.0
C1046 C 0.34713 0.56051 0.17049 0.0
C1047 C 0.37824 0.56617 0.20896 0.0
C1048 C 0.43868 0.55556 0.16957 0.0
C1049 C 0.41176 0.55729 0.13022 0.0
N1050 N 0.33448 0.54488 0.09192 0.0
N1051 N 0.43598 0.54071 0.24506 0.0
C1052 C 0.36335 0.55318 0.13014 0.0
C1053 C 0.41599 0.55011 0.20763 0.0
N1054 N 0.30467 0.56633 0.17274 0.0
N1055 N 0.48704 0.56613 0.17214 0.0
H1056 H 0.42062 0.54102 0.27378 0.0
H1057 H 0.46485 0.52975 0.2464 0.0
H1058 H 0.50658 0.57689 0.14622 0.0
H1059 H 0.50844 0.56907 0.20116 0.0
H1060 H 0.28228 0.56774 0.14587 0.0
H1061 H 0.29217 0.56981 0.20234 0.0
H1062 H 0.29811 0.53928 0.08981 0.0
H1063 H 0.34657 0.54008 0.06235 0.0
C1064 C 0.45045 0.43336 0.20868 0.0
C1065 C 0.40144 0.40123 0.20053 0.0
C1066 C 0.40292 0.42887 0.12542 0.0
C1067 C 0.4535 0.45844 0.13261 0.0
N1068 N 0.52627 0.47016 0.18008 0.0
N1069 N 0.33528 0.36318 0.14436 0.0
C1070 C 0.47736 0.45526 0.17391 0.0
C1071 C 0.37885 0.39823 0.15726 0.0
N1072 N 0.47178 0.44508 0.25039 0.0
N1073 N 0.37678 0.42756 0.08701 0.0
H1074 H 0.31672 0.33845 0.1641 0.0
H1075 H 0.31949 0.35503 0.11236 0.0
H1076 H 0.39128 0.43258 0.05788 0.0
H1077 H 0.3396 0.41815 0.08394 0.0
H1078 H 0.50565 0.47122 0.25896 0.0
H1079 H 0.45327 0.43382 0.27683 0.0
H1080 H 0.54496 0.46527 0.20797 0.0
H1081 H 0.54786 0.4799 0.15544 0.0
C1082 C 0.88704 0.71167 0.66705 0.0
C1083 C 0.89871 0.72582 0.71312 0.0
C1084 C 0.96247 0.68932 0.70864 0.0
C1085 C 0.95244 0.6774 0.66258 0.0
N1086 N 0.90719 0.68483 0.59809 0.0
N1087 N 0.95361 0.72952 0.77554 0.0
C1088 C 0.91478 0.69028 0.64225 0.0
C1089 C 0.9383 0.71508 0.73281 0.0
N1090 N 0.84936 0.71942 0.64595 0.0
N1091 N 0.99374 0.67331 0.73052 0.0
H1092 H 0.93423 0.7415 0.79598 0.0
H1093 H 0.98674 0.73161 0.79036 0.0
H1094 H 1.01142 0.6546 0.71513 0.0
H1095 H 0.99858 0.6744 0.76396 0.0
H1096 H 0.83333 0.70423 0.61504 0.0
H1097 H 0.83267 0.73989 0.65989 0.0
H1098 H 0.88555 0.69825 0.57971 0.0
H1099 H 0.92573 0.66982 0.57933 0.0
C1100 C 0.51113 0.08682 0.71493 0.0
C1101 C 0.47718 0.04249 0.72082 0.0
C1102 C 0.44976 0.0287 0.64338 0.0
C1103 C 0.49144 0.06658 0.63708 0.0
N1104 N 0.56114 0.13303 0.66389 0.0
N1105 N 0.41346 0.96977 0.6905 0.0
C1106 C 0.52139 0.09693 0.67235 0.0
C1107 C 0.44508 1.01354 0.68522 0.0
N1108 N 0.53405 0.1178 0.75012 0.0
N1109 N 0.41565 1.00663 0.60929 0.0
H1110 H 0.40737 0.95698 0.72047 0.0
H1111 H 0.39548 0.94488 0.6646 0.0
H1112 H 0.4187 1.01811 0.57852 0.0
H1113 H 0.38252 0.98081 0.61261 0.0
H1114 H 0.55677 0.15226 0.74815 0.0
H1115 H 0.52588 0.10979 0.78126 0.0
H1116 H 0.58759 0.15542 0.68743 0.0
H1117 H 0.58759 0.15542 0.68743 0.0
C1118 C 0.25367 0.38363 0.66257 0.0
C1119 C 0.26019 0.39703 0.70814 0.0
C1120 C 0.21385 0.44861 0.69165 0.0
C1121 C 0.21169 0.43843 0.64606 0.0
N1122 N 0.23776 0.40127 0.58892 0.0
N1123 N 0.25013 0.44764 0.76486 0.0
C1124 C 0.23395 0.40734 0.63199 0.0
C1125 C 0.24092 0.43084 0.72224 0.0
N1126 N 0.26379 0.34605 0.64812 0.0
N1127 N 0.18884 0.47446 0.70594 0.0
H1128 H 0.2698 0.43621 0.78766 0.0
H1129 H 0.24188 0.47553 0.77704 0.0
H1130 H 0.16944 0.48793 0.68478 0.0
H1131 H 0.18412 0.47944 0.73824 0.0
H1132 H 0.25445 0.33066 0.61637 0.0
H1133 H 0.27687 0.327 0.66871 0.0
H1134 H 0.25849 0.38392 0.57676 0.0
H1135 H 0.22373 0.41717 0.56554 0.0
C1136 C 0.77211 0.18421 0.69876 0.0
C1137 C 0.77636 0.23194 0.70045 0.0
C1138 C 0.71625 0.21177 0.63767 0.0
C1139 C 0.7192 0.16723 0.63012 0.0
N1140 N 0.75359 0.11177 0.65286 0.0
N1141 N 0.76252 0.29242 0.6614 0.0
C1142 C 0.74825 0.15345 0.66052 0.0
C1143 C 0.75164 0.24613 0.66671 0.0
N1144 N 0.78823 0.16755 0.73402 0.0
N1145 N 0.67839 0.22079 0.61859 0.0
H1146 H 0.79132 0.31906 0.67964 0.0
H1147 H 0.74669 0.30351 0.63529 0.0
H1148 H 0.64876 0.19454 0.60095 0.0
H1149 H 0.67368 0.25221 0.62554 0.0
H1150 H 0.78192 0.13217 0.73571 0.0
H1151 H 0.80408 0.1884 0.76288 0.0
H1152 H 0.77771 0.10188 0.6721 0.0
H1153 H 0.73616 0.08866 0.62552 0.0
C1154 C 0.958 0.38964 0.39472 0.0
C1155 C 0.91149 0.39074 0.38443 0.0
C1156 C 0.92776 0.44473 0.45166 0.0
C1157 C 0.9762 0.44742 0.45798 0.0
N1158 N 1.04 0.43516 0.42354 0.0
N1159 N 0.85497 0.42606 0.40109 0.0
C1160 C 0.99196 0.42387 0.42566 0.0
C1161 C 0.89702 0.42018 0.41244 0.0
N1162 N 0.96976 0.3548 0.37614 0.0
N1163 N 0.91074 0.46446 0.48325 0.0
H1164 H 0.83238 0.40922 0.37292 0.0
H1165 H 0.84458 0.45032 0.41773 0.0
H1166 H 0.93241 0.48266 0.51146 0.0
H1167 H 0.87473 0.46005 0.48269 0.0
H1168 H 1.0016 0.35015 0.38592 0.0
H1169 H 0.9456 0.32738 0.35496 0.0
H1170 H 0.05358 0.4191 0.40065 0.0
H1171 H 0.06622 0.46429 0.44153 0.0
C1172 C 0.71924 0.88647 0.43816 0.0
C1173 C 0.69468 0.83728 0.43078 0.0
C1174 C 0.63989 0.84185 0.48297 0.0
C1175 C 0.66021 0.89152 0.48499 0.0
N1176 N 0.71239 0.96046 0.45542 0.0
N1177 N 0.62765 0.76813 0.44232 0.0
C1178 C 0.69802 0.91371 0.46013 0.0
C1179 C 0.65391 0.81482 0.45227 0.0
N1180 N 0.76413 0.90728 0.42624 0.0
N1181 N 0.60837 0.82058 0.51123 0.0
H1182 H 0.63658 0.74745 0.41966 0.0
H1183 H 0.59484 0.75089 0.45368 0.0
H1184 H 0.59838 0.83938 0.53483 0.0
H1185 H 0.59589 0.78471 0.51405 0.0
H1186 H 0.78533 0.94251 0.43471 0.0
H1187 H 0.78244 0.88824 0.41279 0.0
H1188 H 0.73604 0.97681 0.4336 0.0
H1189 H 0.69698 0.98193 0.46954 0.0
C1190 C 0.26598 0.72708 0.4178 0.0
C1191 C 0.24312 0.72116 0.37434 0.0
C1192 C 0.17259 0.65617 0.39971 0.0
C1193 C 0.19723 0.65989 0.44225 0.0
N1194 N 0.27136 0.69928 0.48904 0.0
N1195 N 0.16932 0.68352 0.32724 0.0
C1196 C 0.24489 0.69557 0.45014 0.0
C1197 C 0.19466 0.68696 0.36664 0.0
N1198 N 0.30688 0.76577 0.42968 0.0
N1199 N 0.12909 0.62038 0.38961 0.0
H1200 H 0.1848 0.70097 0.30149 0.0
H1201 H 0.13246 0.66556 0.32042 0.0
H1202 H 0.11428 0.59567 0.41101 0.0
H1203 H 0.10802 0.61361 0.36002 0.0
H1204 H 0.32272 0.77648 0.46147 0.0
H1205 H 0.32221 0.79061 0.40855 0.0
H1206 H 0.30825 0.718 0.49496 0.0
H1207 H 0.25712 0.68159 0.51508 0.0
C1208 C 0.6233 0.25696 0.36282 0.0
C1209 C 0.57489 0.24856 0.34793 0.0
C1210 C 0.55243 0.16569 0.35819 0.0
C1211 C 0.59635 0.17735 0.38476 0.0
N1212 N 0.68058 0.22559 0.39483 0.0
N1213 N 0.49408 0.19381 0.32469 0.0
C1214 C 0.63448 0.22044 0.38112 0.0
C1215 C 0.54006 0.20216 0.34185 0.0
N1216 N 0.65737 0.30039 0.3609 0.0
N1217 N 0.52299 0.1198 0.34931 0.0
H1218 H 0.48394 0.21921 0.31085 0.0
H1219 H 0.46567 0.16211 0.32563 0.0
H1220 H 0.53317 0.0933 0.36084 0.0
H1221 H 0.49188 0.10814 0.32743 0.0
H1222 H 0.6935 0.31038 0.37239 0.0
H1223 H 0.64886 0.32651 0.34637 0.0
H1224 H 0.71003 0.25694 0.39693 0.0
H1225 H 0.6895 0.19675 0.40137 0.0
C1226 C 0.64215 0.8841 0.70467 0.0
C1227 C 0.59835 0.85153 0.71506 0.0
C1228 C 0.55686 0.90023 0.68545 0.0
C1229 C 0.5982 0.92489 0.66529 0.0
N1230 N 0.6773 0.92933 0.64817 0.0
N1231 N 0.51383 0.82927 0.71842 0.0
C1232 C 0.64068 0.91498 0.67356 0.0
C1233 C 0.55561 0.8603 0.70709 0.0
N1234 N 0.685 0.88254 0.72112 0.0
N1235 N 0.5188 0.91433 0.68281 0.0
H1236 H 0.51319 0.80108 0.73577 0.0
H1237 H 0.48025 0.83058 0.70947 0.0
H1238 H 0.5196 0.94396 0.66776 0.0
H1239 H 0.48858 0.89934 0.69863 0.0
H1240 H 0.71797 0.90728 0.7157 0.0
H1241 H 0.68778 0.86024 0.74407 0.0
H1242 H 0.70587 0.91786 0.65049 0.0
H1243 H 0.67698 0.94694 0.62084 0.0
C1244 C 0.72879 0.10347 0.37312 0.0
C1245 C 0.68903 0.07438 0.34339 0.0
C1246 C 0.65237 0.03092 0.40209 0.0
C1247 C 0.68465 0.0683 0.43176 0.0
N1248 N 0.75604 0.13796 0.44715 0.0
N1249 N 0.62007 1.00378 0.32672 0.0
C1250 C 0.72436 0.1034 0.41792 0.0
C1251 C 0.65382 0.03493 0.3571 0.0
N1252 N 0.77022 0.13125 0.35854 0.0
N1253 N 0.61981 0.99273 0.41718 0.0
H1254 H 0.62228 1.00681 0.29371 0.0
H1255 H 0.59042 0.97578 0.33366 0.0
H1256 H 0.61766 0.98935 0.45009 0.0
H1257 H 0.5969 0.96316 0.39761 0.0
H1258 H 0.8013 0.15078 0.37899 0.0
H1259 H 0.7757 0.13011 0.32612 0.0
H1260 H 0.78239 0.16782 0.43838 0.0
H1261 H 0.75423 0.13789 0.4804 0.0
C1262 C 0.94473 0.62762 0.41409 0.0
C1263 C 0.9212 0.65708 0.4286 0.0
C1264 C 0.99573 0.70917 0.47173 0.0
C1265 C 1.01425 0.67388 0.46499 0.0
N1266 N 1.0203 0.61583 0.41487 0.0
N1267 N 0.92838 0.73404 0.45726 0.0
C1268 C 0.99385 0.63985 0.42945 0.0
C1269 C 0.94842 0.70111 0.45247 0.0
N1270 N 0.91953 0.58621 0.38961 0.0
N1271 N 1.02212 0.74809 0.49895 0.0
H1272 H 0.89386 0.72864 0.44303 0.0
H1273 H 0.94655 0.76751 0.47275 0.0
H1274 H 0.05767 0.75457 0.51091 0.0
H1275 H 1.00967 0.77383 0.50902 0.0
H1276 H 0.93421 0.56145 0.38182 0.0
H1277 H 0.883 0.57512 0.37903 0.0
H1278 H 1.00923 0.59181 0.38751 0.0
H1279 H 0.05532 0.62366 0.42922 0.0
C1280 C 0.43929 0.95731 0.36221 0.0
C1281 C 0.39405 0.92452 0.36989 0.0
C1282 C 0.40789 0.95917 0.4449 0.0
C1283 C 0.45642 0.98446 0.43944 0.0
N1284 N 0.51856 1.0111 0.3927 0.0
N1285 N 0.33305 0.89537 0.41751 0.0
C1286 C 0.47175 0.98581 0.39768 0.0
C1287 C 0.37705 0.9266 0.41068 0.0
N1288 N 0.45131 0.96055 0.32097 0.0
N1289 N 0.39222 0.96591 0.48347 0.0
H1290 H 0.30942 0.87138 0.39312 0.0
H1291 H 0.32065 0.89156 0.44768 0.0
H1292 H 0.41507 0.99002 0.50821 0.0
H1293 H 0.35657 0.95134 0.4895 0.0
H1294 H 0.48136 0.98687 0.31222 0.0
H1295 H 0.42895 0.93878 0.29469 0.0
H1296 H 0.53396 1.00862 0.36459 0.0
H1297 H 0.54277 0.03415 0.4173 0.0
C1298 C 0.2884 0.43632 0.38863 0.0
C1299 C 0.2696 0.38631 0.37959 0.0
C1300 C 0.21422 0.38438 0.43575 0.0
C1301 C 0.2284 0.43433 0.44111 0.0
N1302 N 0.27444 0.50652 0.41289 0.0
N1303 N 0.20323 0.31505 0.38869 0.0
C1304 C 0.26459 0.45989 0.41504 0.0
C1305 C 0.22893 0.36134 0.40108 0.0
N1306 N 0.32868 0.46201 0.37113 0.0
N1307 N 0.18912 0.35807 0.46572 0.0
H1308 H 0.21255 0.29555 0.36536 0.0
H1309 H 0.17035 0.29681 0.39961 0.0
H1310 H 0.18153 0.37264 0.49371 0.0
H1311 H 0.18183 0.32232 0.46588 0.0
H1312 H 0.34775 0.49754 0.38019 0.0
H1313 H 0.34476 0.44712 0.34953 0.0
H1314 H 0.29635 0.52624 0.39142 0.0
H1315 H 0.25661 0.5245 0.42896 0.0
C1316 C 0.5178 0.28392 0.61502 0.0
C1317 C 0.52556 0.32766 0.59804 0.0
C1318 C 0.56588 0.30678 0.53999 0.0
C1319 C 0.55574 0.26233 0.55576 0.0
N1320 N 0.5352 0.21338 0.61431 0.0
N1321 N 0.55332 0.38046 0.54376 0.0
C1322 C 0.53506 0.25209 0.59483 0.0
C1323 C 0.54892 0.33922 0.56044 0.0
N1324 N 0.49305 0.27234 0.65012 0.0
N1325 N 0.59338 0.31842 0.50679 0.0
H1326 H 0.54166 0.40491 0.55853 0.0
H1327 H 0.56574 0.38944 0.51419 0.0
H1328 H 0.60695 0.29553 0.49202 0.0
H1329 H 0.60568 0.35149 0.49574 0.0
H1330 H 0.47946 0.23856 0.65955 0.0
H1331 H 0.4833 0.29565 0.66884 0.0
H1332 H 0.52617 0.20677 0.64536 0.0
H1333 H 0.54895 0.1897 0.60137 0.0
C1334 C 0.9447 0.38758 0.67851 0.0
C1335 C 0.94816 0.40793 0.72149 0.0
C1336 C 1.01439 0.47876 0.70317 0.0
C1337 C 1.00618 0.46102 0.65884 0.0
N1338 N 0.96173 0.39844 0.604 0.0
N1339 N 0.98459 0.47532 0.77359 0.0
C1340 C 0.97113 0.41512 0.64668 0.0
C1341 C 0.9832 0.45394 0.73366 0.0
N1342 N 0.91678 0.34129 0.66827 0.0
N1343 N 0.05203 0.51992 0.716 0.0
H1344 H 0.96213 0.4589 0.79622 0.0
H1345 H 1.00526 0.51036 0.78327 0.0
H1346 H 0.07483 0.53843 0.6944 0.0
H1347 H 0.06335 0.53339 0.74815 0.0
H1348 H 0.916 0.32267 0.63915 0.0
H1349 H 0.89741 0.32025 0.69051 0.0
H1350 H 0.93266 0.36835 0.59147 0.0
H1351 H 0.98214 0.41621 0.58062 0.0
C1352 C 0.29035 0.6654 0.69817 0.0
C1353 C 0.31099 0.7143 0.69675 0.0
C1354 C 0.26442 0.70777 0.62709 0.0
C1355 C 0.23536 0.6611 0.63394 0.0
N1356 N 0.22299 0.5934 0.67421 0.0
N1357 N 0.33795 0.77534 0.64974 0.0
C1358 C 0.25009 0.63854 0.66795 0.0
C1359 C 0.30482 0.73345 0.65767 0.0
N1360 N 0.30907 0.64556 0.72937 0.0
N1361 N 0.25156 0.72825 0.59289 0.0
H1362 H 0.36985 0.792 0.67025 0.0
H1363 H 0.33703 0.79037 0.62078 0.0
H1364 H 0.22309 0.70983 0.56916 0.0
H1365 H 0.26766 0.76371 0.58892 0.0
H1366 H 0.29859 0.60961 0.73098 0.0
H1367 H 0.33885 0.66582 0.75117 0.0
H1368 H 0.22872 0.57729 0.70145 0.0
H1369 H 0.19299 0.57225 0.65333 0.0
loop_
_geom_bond_atom_site_label_1
_geom_bond_atom_site_label_2
_geom_bond_distance
_geom_bond_site_symmetry_2
_ccdc_geom_bond_type
Dy0 O3 2.307 . S
Dy0 O5 2.395 . S
Dy0 O6 2.379 . S
Dy0 O8 2.339 . S
Dy0 O10 2.298 . S
Dy0 O14 2.275 . S
Dy0 C22 2.738 . S
Dy1 O4 2.298 . S
Dy1 O7 2.275 . S
Dy1 O9 2.307 . S
Dy1 O11 2.395 . S
Dy1 O12 2.379 . S
Dy1 O15 2.339 . S
Dy1 C31 2.738 . S
C2 O14 1.254 . S
C2 O15 1.257 . S
O3 Dy0 2.307 . S
O3 C13 1.266 . S
O4 Dy1 2.298 . S
O4 C13 1.236 . S
O5 Dy0 2.395 . S
O5 C22 1.255 . S
O6 Dy0 2.379 . S
O6 C22 1.249 . S
O7 Dy1 2.275 . S
O7 C23 1.254 . S
O8 Dy0 2.339 . S
O8 C23 1.257 . S
O9 Dy1 2.307 . S
O9 C24 1.266 . S
O10 Dy0 2.298 . S
O10 C24 1.236 . S
O11 Dy1 2.395 . S
O11 C31 1.255 . S
O12 Dy1 2.379 . S
O12 C31 1.249 . S
C13 O3 1.266 . S
C13 O4 1.236 . S
O14 Dy0 2.275 . S
O14 C2 1.254 . S
O15 Dy1 2.339 . S
O15 C2 1.257 . S
C16 C19 1.344 . S
C16 C20 1.328 . S
C16 C22 1.516 . S
C17 C18 1.304 . S
C17 C21 1.323 . S
C18 C17 1.304 . S
C18 C19 1.371 . S
C18 H32 0.930 . S
C19 C16 1.344 . S
C19 C18 1.371 . S
C19 H33 0.931 . S
C20 C16 1.328 . S
C20 C21 1.433 . S
C20 H34 0.931 . S
C21 C17 1.323 . S
C21 C20 1.433 . S
C21 H35 0.933 . S
C22 Dy0 2.738 . S
C22 O5 1.255 . S
C22 O6 1.249 . S
C22 C16 1.516 . S
C23 O7 1.254 . S
C23 O8 1.257 . S
C24 O9 1.266 . S
C24 O10 1.236 . S
C25 C28 1.344 . S
C25 C29 1.328 . S
C25 C31 1.516 . S
C26 C27 1.304 . S
C26 C30 1.323 . S
C27 C26 1.304 . S
C27 C28 1.371 . S
C27 H36 0.930 . S
C28 C25 1.344 . S
C28 C27 1.371 . S
C28 H37 0.931 . S
C29 C25 1.328 . S
C29 C30 1.433 . S
C29 H38 0.931 . S
C30 C26 1.323 . S
C30 C29 1.433 . S
C30 H39 0.933 . S
C31 Dy1 2.738 . S
C31 O11 1.255 . S
C31 O12 1.249 . S
C31 C25 1.516 . S
H32 C18 0.930 . S
H33 C19 0.931 . S
H34 C20 0.931 . S
H35 C21 0.933 . S
H36 C27 0.930 . S
H37 C28 0.931 . S
H38 C29 0.931 . S
H39 C30 0.933 . S
Dy40 O43 2.307 . S
Dy40 O45 2.395 . S
Dy40 O46 2.379 . S
Dy40 O48 2.339 . S
Dy40 O50 2.298 . S
Dy40 O54 2.275 . S
Dy40 C62 2.738 . S
Dy41 O44 2.298 . S
Dy41 O47 2.275 . S
Dy41 O49 2.307 . S
Dy41 O51 2.395 . S
Dy41 O52 2.379 . S
Dy41 O55 2.339 . S
Dy41 C71 2.738 . S
C42 O54 1.254 . S
C42 O55 1.257 . S
O43 Dy40 2.307 . S
O43 C53 1.266 . S
O44 Dy41 2.298 . S
O44 C53 1.236 . S
O45 Dy40 2.395 . S
O45 C62 1.255 . S
O46 Dy40 2.379 . S
O46 C62 1.249 . S
O47 Dy41 2.275 . S
O47 C63 1.254 . S
O48 Dy40 2.339 . S
O48 C63 1.257 . S
O49 Dy41 2.307 . S
O49 C64 1.266 . S
O50 Dy40 2.298 . S
O50 C64 1.236 . S
O51 Dy41 2.395 . S
O51 C71 1.255 . S
O52 Dy41 2.379 . S
O52 C71 1.249 . S
C53 O43 1.266 . S
C53 O44 1.236 . S
O54 Dy40 2.275 . S
O54 C42 1.254 . S
O55 Dy41 2.339 . S
O55 C42 1.257 . S
C56 C59 1.344 . S
C56 C60 1.328 . S
C56 C62 1.516 . S
C57 C58 1.304 . S
C57 C61 1.323 . S
C58 C57 1.304 . S
C58 C59 1.371 . S
C58 H72 0.930 . S
C59 C56 1.344 . S
C59 C58 1.371 . S
C59 H73 0.931 . S
C60 C56 1.328 . S
C60 C61 1.433 . S
C60 H74 0.931 . S
C61 C57 1.323 . S
C61 C60 1.433 . S
C61 H75 0.933 . S
C62 Dy40 2.738 . S
C62 O45 1.255 . S
C62 O46 1.249 . S
C62 C56 1.516 . S
C63 O47 1.254 . S
C63 O48 1.257 . S
C64 O49 1.266 . S
C64 O50 1.236 . S
C65 C68 1.344 . S
C65 C69 1.328 . S
C65 C71 1.516 . S
C66 C67 1.304 . S
C66 C70 1.323 . S
C67 C66 1.304 . S
C67 C68 1.371 . S
C67 H76 0.930 . S
C68 C65 1.344 . S
C68 C67 1.371 . S
C68 H77 0.931 . S
C69 C65 1.328 . S
C69 C70 1.433 . S
C69 H78 0.931 . S
C70 C66 1.323 . S
C70 C69 1.433 . S
C70 H79 0.933 . S
C71 Dy41 2.738 . S
C71 O51 1.255 . S
C71 O52 1.249 . S
C71 C65 1.516 . S
H72 C58 0.930 . S
H73 C59 0.931 . S
H74 C60 0.931 . S
H75 C61 0.933 . S
H76 C67 0.930 . S
H77 C68 0.931 . S
H78 C69 0.931 . S
H79 C70 0.933 . S
Dy80 O83 2.307 . S
Dy80 O85 2.395 . S
Dy80 O86 2.379 . S
Dy80 O88 2.339 . S
Dy80 O90 2.298 . S
Dy80 O94 2.275 . S
Dy80 C102 2.738 . S
Dy81 O84 2.298 . S
Dy81 O87 2.275 . S
Dy81 O89 2.307 . S
Dy81 O91 2.395 . S
Dy81 O92 2.379 . S
Dy81 O95 2.339 . S
Dy81 C111 2.738 . S
C82 O94 1.254 . S
C82 O95 1.257 . S
O83 Dy80 2.307 . S
O83 C93 1.266 . S
O84 Dy81 2.298 . S
O84 C93 1.236 . S
O85 Dy80 2.395 . S
O85 C102 1.255 . S
O86 Dy80 2.379 . S
O86 C102 1.249 . S
O87 Dy81 2.275 . S
O87 C103 1.254 . S
O88 Dy80 2.339 . S
O88 C103 1.257 . S
O89 Dy81 2.307 . S
O89 C104 1.266 . S
O90 Dy80 2.298 . S
O90 C104 1.236 . S
O91 Dy81 2.395 . S
O91 C111 1.255 . S
O92 Dy81 2.379 . S
O92 C111 1.249 . S
C93 O83 1.266 . S
C93 O84 1.236 . S
O94 Dy80 2.275 . S
O94 C82 1.254 . S
O95 Dy81 2.339 . S
O95 C82 1.257 . S
C96 C99 1.344 . S
C96 C100 1.328 . S
C96 C102 1.516 . S
C97 C98 1.304 . S
C97 C101 1.323 . S
C98 C97 1.304 . S
C98 C99 1.371 . S
C98 H112 0.930 . S
C99 C96 1.344 . S
C99 C98 1.371 . S
C99 H113 0.931 . S
C100 C96 1.328 . S
C100 C101 1.433 . S
C100 H114 0.931 . S
C101 C97 1.323 . S
C101 C100 1.433 . S
C101 H115 0.933 . S
C102 Dy80 2.738 . S
C102 O85 1.255 . S
C102 O86 1.249 . S
C102 C96 1.516 . S
C103 O87 1.254 . S
C103 O88 1.257 . S
C104 O89 1.266 . S
C104 O90 1.236 . S
C105 C108 1.344 . S
C105 C109 1.328 . S
C105 C111 1.516 . S
C106 C107 1.304 . S
C106 C110 1.323 . S
C107 C106 1.304 . S
C107 C108 1.371 . S
C107 H116 0.930 . S
C108 C105 1.344 . S
C108 C107 1.371 . S
C108 H117 0.931 . S
C109 C105 1.328 . S
C109 C110 1.433 . S
C109 H118 0.931 . S
C110 C106 1.323 . S
C110 C109 1.433 . S
C110 H119 0.948 . S
C111 Dy81 2.738 . S
C111 O91 1.255 . S
C111 O92 1.249 . S
C111 C105 1.516 . S
H112 C98 0.930 . S
H113 C99 0.931 . S
H114 C100 0.931 . S
H115 C101 0.933 . S
H116 C107 0.930 . S
H117 C108 0.931 . S
H118 C109 0.931 . S
H119 C110 0.948 . S
Dy120 O123 2.307 . S
Dy120 O125 2.395 . S
Dy120 O126 2.379 . S
Dy120 O128 2.339 . S
Dy120 O130 2.298 . S
Dy120 O134 2.275 . S
Dy120 C142 2.738 . S
Dy121 O124 2.298 . S
Dy121 O127 2.275 . S
Dy121 O129 2.307 . S
Dy121 O131 2.395 . S
Dy121 O132 2.379 . S
Dy121 O135 2.339 . S
Dy121 C151 2.738 . S
C122 O134 1.254 . S
C122 O135 1.257 . S
O123 Dy120 2.307 . S
O123 C133 1.266 . S
O124 Dy121 2.298 . S
O124 C133 1.236 . S
O125 Dy120 2.395 . S
O125 C142 1.255 . S
O126 Dy120 2.379 . S
O126 C142 1.249 . S
O127 Dy121 2.275 . S
O127 C143 1.254 . S
O128 Dy120 2.339 . S
O128 C143 1.257 . S
O129 Dy121 2.307 . S
O129 C144 1.266 . S
O130 Dy120 2.298 . S
O130 C144 1.236 . S
O131 Dy121 2.395 . S
O131 C151 1.255 . S
O132 Dy121 2.379 . S
O132 C151 1.249 . S
C133 O123 1.266 . S
C133 O124 1.236 . S
O134 Dy120 2.275 . S
O134 C122 1.254 . S
O135 Dy121 2.339 . S
O135 C122 1.257 . S
C136 C139 1.344 . S
C136 C140 1.328 . S
C136 C142 1.516 . S
C137 C138 1.304 . S
C137 C141 1.323 . S
C138 C137 1.304 . S
C138 C139 1.371 . S
C138 H152 0.930 . S
C139 C136 1.344 . S
C139 C138 1.371 . S
C139 H153 0.931 . S
C140 C136 1.328 . S
C140 C141 1.433 . S
C140 H154 0.931 . S
C141 C137 1.323 . S
C141 C140 1.433 . S
C141 H155 0.933 . S
C142 Dy120 2.738 . S
C142 O125 1.255 . S
C142 O126 1.249 . S
C142 C136 1.516 . S
C143 O127 1.254 . S
C143 O128 1.257 . S
C144 O129 1.266 . S
C144 O130 1.236 . S
C145 C148 1.344 . S
C145 C149 1.328 . S
C145 C151 1.516 . S
C146 C147 1.304 . S
C146 C150 1.323 . S
C147 C146 1.304 . S
C147 C148 1.371 . S
C147 H156 0.930 . S
C148 C145 1.344 . S
C148 C147 1.371 . S
C148 H157 0.931 . S
C149 C145 1.328 . S
C149 C150 1.433 . S
C149 H158 0.931 . S
C150 C146 1.323 . S
C150 C149 1.433 . S
C150 H159 0.933 . S
C151 Dy121 2.738 . S
C151 O131 1.255 . S
C151 O132 1.249 . S
C151 C145 1.516 . S
H152 C138 0.930 . S
H153 C139 0.931 . S
H154 C140 0.931 . S
H155 C141 0.933 . S
H156 C147 0.930 . S
H157 C148 0.931 . S
H158 C149 0.931 . S
H159 C150 0.933 . S
Dy160 O163 2.307 . S
Dy160 O165 2.395 . S
Dy160 O166 2.379 . S
Dy160 O168 2.339 . S
Dy160 O170 2.298 . S
Dy160 O174 2.275 . S
Dy160 C182 2.738 . S
Dy161 O164 2.298 . S
Dy161 O167 2.275 . S
Dy161 O169 2.307 . S
Dy161 O171 2.395 . S
Dy161 O172 2.379 . S
Dy161 O175 2.339 . S
Dy161 C191 2.738 . S
C162 O174 1.254 . S
C162 O175 1.257 . S
O163 Dy160 2.307 . S
O163 C173 1.266 . S
O164 Dy161 2.298 . S
O164 C173 1.236 . S
O165 Dy160 2.395 . S
O165 C182 1.255 . S
O166 Dy160 2.379 . S
O166 C182 1.249 . S
O167 Dy161 2.275 . S
O167 C183 1.254 . S
O168 Dy160 2.339 . S
O168 C183 1.257 . S
O169 Dy161 2.307 . S
O169 C184 1.266 . S
O170 Dy160 2.298 . S
O170 C184 1.236 . S
O171 Dy161 2.395 . S
O171 C191 1.255 . S
O172 Dy161 2.379 . S
O172 C191 1.249 . S
C173 O163 1.266 . S
C173 O164 1.236 . S
O174 Dy160 2.275 . S
O174 C162 1.254 . S
O175 Dy161 2.339 . S
O175 C162 1.257 . S
C176 C179 1.344 . S
C176 C180 1.328 . S
C176 C182 1.516 . S
C177 C178 1.304 . S
C177 C181 1.323 . S
C178 C177 1.304 . S
C178 C179 1.371 . S
C178 H192 0.930 . S
C179 C176 1.344 . S
C179 C178 1.371 . S
C179 H193 0.931 . S
C180 C176 1.328 . S
C180 C181 1.433 . S
C180 H194 0.931 . S
C181 C177 1.323 . S
C181 C180 1.433 . S
C181 H195 0.933 . S
C182 Dy160 2.738 . S
C182 O165 1.255 . S
C182 O166 1.249 . S
C182 C176 1.516 . S
C183 O167 1.254 . S
C183 O168 1.257 . S
C184 O169 1.266 . S
C184 O170 1.236 . S
C185 C188 1.344 . S
C185 C189 1.328 . S
C185 C191 1.516 . S
C186 C187 1.304 . S
C186 C190 1.323 . S
C187 C186 1.304 . S
C187 C188 1.371 . S
C187 H196 0.930 . S
C188 C185 1.344 . S
C188 C187 1.371 . S
C188 H197 0.931 . S
C189 C185 1.328 . S
C189 C190 1.433 . S
C189 H198 0.931 . S
C190 C186 1.323 . S
C190 C189 1.433 . S
C190 H199 0.933 . S
C191 Dy161 2.738 . S
C191 O171 1.255 . S
C191 O172 1.249 . S
C191 C185 1.516 . S
H192 C178 0.930 . S
H193 C179 0.931 . S
H194 C180 0.931 . S
H195 C181 0.933 . S
H196 C187 0.930 . S
H197 C188 0.931 . S
H198 C189 0.931 . S
H199 C190 0.933 . S
Dy200 O203 2.307 . S
Dy200 O205 2.395 . S
Dy200 O206 2.379 . S
Dy200 O208 2.339 . S
Dy200 O210 2.298 . S
Dy200 O214 2.275 . S
Dy200 C222 2.738 . S
Dy201 O204 2.298 . S
Dy201 O207 2.275 . S
Dy201 O209 2.307 . S
Dy201 O211 2.395 . S
Dy201 O212 2.379 . S
Dy201 O215 2.339 . S
Dy201 C231 2.738 . S
C202 O214 1.254 . S
C202 O215 1.257 . S
O203 Dy200 2.307 . S
O203 C213 1.266 . S
O204 Dy201 2.298 . S
O204 C213 1.236 . S
O205 Dy200 2.395 . S
O205 C222 1.255 . S
O206 Dy200 2.379 . S
O206 C222 1.249 . S
O207 Dy201 2.275 . S
O207 C223 1.254 . S
O208 Dy200 2.339 . S
O208 C223 1.257 . S
O209 Dy201 2.307 . S
O209 C224 1.266 . S
O210 Dy200 2.298 . S
O210 C224 1.236 . S
O211 Dy201 2.395 . S
O211 C231 1.255 . S
O212 Dy201 2.379 . S
O212 C231 1.249 . S
C213 O203 1.266 . S
C213 O204 1.236 . S
O214 Dy200 2.275 . S
O214 C202 1.254 . S
O215 Dy201 2.339 . S
O215 C202 1.257 . S
C216 C219 1.344 . S
C216 C220 1.328 . S
C216 C222 1.516 . S
C217 C218 1.304 . S
C217 C221 1.323 . S
C218 C217 1.304 . S
C218 C219 1.371 . S
C218 H232 0.930 . S
C219 C216 1.344 . S
C219 C218 1.371 . S
C219 H233 0.931 . S
C220 C216 1.328 . S
C220 C221 1.433 . S
C220 H234 0.931 . S
C221 C217 1.323 . S
C221 C220 1.433 . S
C221 H235 0.933 . S
C222 Dy200 2.738 . S
C222 O205 1.255 . S
C222 O206 1.249 . S
C222 C216 1.516 . S
C223 O207 1.254 . S
C223 O208 1.257 . S
C224 O209 1.266 . S
C224 O210 1.236 . S
C225 C228 1.344 . S
C225 C229 1.328 . S
C225 C231 1.516 . S
C226 C227 1.304 . S
C226 C230 1.323 . S
C227 C226 1.304 . S
C227 C228 1.371 . S
C227 H236 0.930 . S
C228 C225 1.344 . S
C228 C227 1.371 . S
C228 H237 0.931 . S
C229 C225 1.328 . S
C229 C230 1.433 . S
C229 H238 0.931 . S
C230 C226 1.323 . S
C230 C229 1.433 . S
C230 H239 0.933 . S
C231 Dy201 2.738 . S
C231 O211 1.255 . S
C231 O212 1.249 . S
C231 C225 1.516 . S
H232 C218 0.930 . S
H233 C219 0.931 . S
H234 C220 0.931 . S
H235 C221 0.933 . S
H236 C227 0.930 . S
H237 C228 0.931 . S
H238 C229 0.931 . S
H239 C230 0.933 . S
Dy240 O243 2.307 . S
Dy240 O245 2.395 . S
Dy240 O246 2.379 . S
Dy240 O248 2.339 . S
Dy240 O250 2.298 . S
Dy240 O254 2.275 . S
Dy240 C262 2.738 . S
Dy241 O244 2.298 . S
Dy241 O247 2.275 . S
Dy241 O249 2.307 . S
Dy241 O251 2.395 . S
Dy241 O252 2.379 . S
Dy241 O255 2.339 . S
Dy241 C271 2.738 . S
C242 O254 1.254 . S
C242 O255 1.257 . S
O243 Dy240 2.307 . S
O243 C253 1.266 . S
O244 Dy241 2.298 . S
O244 C253 1.236 . S
O245 Dy240 2.395 . S
O245 C262 1.255 . S
O246 Dy240 2.379 . S
O246 C262 1.249 . S
O247 Dy241 2.275 . S
O247 C263 1.254 . S
O248 Dy240 2.339 . S
O248 C263 1.257 . S
O249 Dy241 2.307 . S
O249 C264 1.266 . S
O250 Dy240 2.298 . S
O250 C264 1.236 . S
O251 Dy241 2.395 . S
O251 C271 1.255 . S
O252 Dy241 2.379 . S
O252 C271 1.249 . S
C253 O243 1.266 . S
C253 O244 1.236 . S
O254 Dy240 2.275 . S
O254 C242 1.254 . S
O255 Dy241 2.339 . S
O255 C242 1.257 . S
C256 C259 1.344 . S
C256 C260 1.328 . S
C256 C262 1.516 . S
C257 C258 1.304 . S
C257 C261 1.323 . S
C258 C257 1.304 . S
C258 C259 1.371 . S
C258 H272 0.930 . S
C259 C256 1.344 . S
C259 C258 1.371 . S
C259 H273 0.931 . S
C260 C256 1.328 . S
C260 C261 1.433 . S
C260 H274 0.931 . S
C261 C257 1.323 . S
C261 C260 1.433 . S
C261 H275 0.933 . S
C262 Dy240 2.738 . S
C262 O245 1.255 . S
C262 O246 1.249 . S
C262 C256 1.516 . S
C263 O247 1.254 . S
C263 O248 1.257 . S
C264 O249 1.266 . S
C264 O250 1.236 . S
C265 C268 1.344 . S
C265 C269 1.328 . S
C265 C271 1.516 . S
C266 C267 1.304 . S
C266 C270 1.323 . S
C267 C266 1.304 . S
C267 C268 1.371 . S
C267 H276 0.930 . S
C268 C265 1.344 . S
C268 C267 1.371 . S
C268 H277 0.931 . S
C269 C265 1.328 . S
C269 C270 1.433 . S
C269 H278 0.931 . S
C270 C266 1.323 . S
C270 C269 1.433 . S
C270 H279 0.933 . S
C271 Dy241 2.738 . S
C271 O251 1.255 . S
C271 O252 1.249 . S
C271 C265 1.516 . S
H272 C258 0.930 . S
H273 C259 0.931 . S
H274 C260 0.931 . S
H275 C261 0.933 . S
H276 C267 0.930 . S
H277 C268 0.931 . S
H278 C269 0.931 . S
H279 C270 0.933 . S
Dy280 O283 2.307 . S
Dy280 O285 2.395 . S
Dy280 O286 2.379 . S
Dy280 O288 2.339 . S
Dy280 O290 2.298 . S
Dy280 O294 2.275 . S
Dy280 C302 2.738 . S
Dy281 O284 2.298 . S
Dy281 O287 2.275 . S
Dy281 O289 2.307 . S
Dy281 O291 2.395 . S
Dy281 O292 2.379 . S
Dy281 O295 2.339 . S
Dy281 C311 2.738 . S
C282 O294 1.254 . S
C282 O295 1.257 . S
O283 Dy280 2.307 . S
O283 C293 1.266 . S
O284 Dy281 2.298 . S
O284 C293 1.236 . S
O285 Dy280 2.395 . S
O285 C302 1.255 . S
O286 Dy280 2.379 . S
O286 C302 1.249 . S
O287 Dy281 2.275 . S
O287 C303 1.254 . S
O288 Dy280 2.339 . S
O288 C303 1.257 . S
O289 Dy281 2.307 . S
O289 C304 1.266 . S
O290 Dy280 2.298 . S
O290 C304 1.236 . S
O291 Dy281 2.395 . S
O291 C311 1.255 . S
O292 Dy281 2.379 . S
O292 C311 1.249 . S
C293 O283 1.266 . S
C293 O284 1.236 . S
O294 Dy280 2.275 . S
O294 C282 1.254 . S
O295 Dy281 2.339 . S
O295 C282 1.257 . S
C296 C299 1.344 . S
C296 C300 1.328 . S
C296 C302 1.516 . S
C297 C298 1.304 . S
C297 C301 1.323 . S
C298 C297 1.304 . S
C298 C299 1.371 . S
C298 H312 0.930 . S
C299 C296 1.344 . S
C299 C298 1.371 . S
C299 H313 0.931 . S
C300 C296 1.328 . S
C300 C301 1.433 . S
C300 H314 0.931 . S
C301 C297 1.323 . S
C301 C300 1.433 . S
C301 H315 0.933 1_556 S
C302 Dy280 2.738 . S
C302 O285 1.255 . S
C302 O286 1.249 . S
C302 C296 1.516 . S
C303 O287 1.254 . S
C303 O288 1.257 . S
C304 O289 1.266 . S
C304 O290 1.236 . S
C305 C308 1.344 . S
C305 C309 1.328 . S
C305 C311 1.516 . S
C306 C307 1.304 . S
C306 C310 1.323 . S
C307 C306 1.304 . S
C307 C308 1.371 . S
C307 H316 0.930 . S
C308 C305 1.344 . S
C308 C307 1.371 . S
C308 H317 0.931 . S
C309 C305 1.328 . S
C309 C310 1.433 . S
C309 H318 0.931 . S
C310 C306 1.323 . S
C310 C309 1.433 . S
C310 H319 0.933 . S
C311 Dy281 2.738 . S
C311 O291 1.255 . S
C311 O292 1.249 . S
C311 C305 1.516 . S
H312 C298 0.930 . S
H313 C299 0.931 . S
H314 C300 0.931 . S
H315 C301 0.933 1_554 S
H316 C307 0.930 . S
H317 C308 0.931 . S
H318 C309 0.931 . S
H319 C310 0.933 . S
C320 O332 1.241 . S
C320 O333 1.280 . S
C321 O334 1.277 . S
C321 O335 1.245 . S
C322 O346 1.247 . S
C322 O348 1.289 . S
Mg323 O324 1.926 1_455 S
Mg323 O333 1.984 1_455 S
Mg323 O335 1.988 1_455 S
Mg323 O336 2.061 . S
O324 Mg323 1.926 1_655 S
O324 Mg325 1.986 . S
O324 Mg326 1.917 1_655 S
Mg325 O324 1.986 . S
Mg325 O332 2.042 . S
Mg325 O334 2.041 . S
Mg325 O340 2.038 1_545 S
Mg325 O348 2.238 1_545 S
Mg326 O324 1.917 1_455 S
Mg326 O327 1.917 1_545 S
Mg326 O337 2.106 . S
Mg326 O339 2.079 1_445 S
Mg326 O348 2.106 1_445 S
Mg326 O349 2.079 . S
O327 Mg326 1.917 1_565 S
O327 Mg328 1.926 . S
O327 Mg329 1.986 1_565 S
Mg328 O327 1.926 . S
Mg328 O342 1.984 . S
Mg328 O345 1.988 . S
Mg328 O346 2.061 1_455 S
Mg329 O327 1.986 1_545 S
Mg329 O337 2.238 . S
Mg329 O341 2.042 1_545 S
Mg329 O343 2.041 1_545 S
Mg329 O350 2.038 . S
C330 O336 1.247 . S
C330 O337 1.289 . S
C331 O349 1.245 . S
C331 O350 1.274 . S
O332 C320 1.241 . S
O332 Mg325 2.042 . S
O333 C320 1.280 . S
O333 Mg323 1.984 1_655 S
O334 C321 1.277 . S
O334 Mg325 2.041 . S
O335 C321 1.245 . S
O335 Mg323 1.988 1_655 S
O336 Mg323 2.061 . S
O336 C330 1.247 . S
O337 Mg326 2.106 . S
O337 Mg329 2.238 . S
O337 C330 1.289 . S
C338 O339 1.245 . S
C338 O340 1.274 . S
O339 Mg326 2.079 1_665 S
O339 C338 1.245 . S
O340 Mg325 2.038 1_565 S
O340 C338 1.274 . S
O341 Mg329 2.042 1_565 S
O341 C344 1.241 . S
O342 Mg328 1.984 . S
O342 C344 1.280 . S
O343 Mg329 2.041 1_565 S
O343 C347 1.277 . S
C344 O341 1.241 . S
C344 O342 1.280 . S
O345 Mg328 1.988 . S
O345 C347 1.245 . S
O346 C322 1.247 . S
O346 Mg328 2.061 1_655 S
C347 O343 1.277 . S
C347 O345 1.245 . S
O348 C322 1.289 . S
O348 Mg325 2.238 1_565 S
O348 Mg326 2.106 1_665 S
O349 Mg326 2.079 . S
O349 C331 1.245 . S
O350 Mg329 2.038 . S
O350 C331 1.274 . S
C351 O363 1.241 . S
C351 O364 1.280 . S
C352 O365 1.277 . S
C352 O366 1.245 . S
C353 O377 1.247 . S
C353 O379 1.289 1_565 S
Mg354 O355 1.926 . S
Mg354 O364 1.984 . S
Mg354 O366 1.988 1_554 S
Mg354 O367 2.061 . S
O355 Mg354 1.926 . S
O355 Mg356 1.986 1_554 S
O355 Mg357 1.922 . S
Mg356 O355 1.986 1_556 S
Mg356 O363 2.042 1_556 S
Mg356 O365 2.041 . S
Mg356 O371 2.038 1_556 S
Mg356 O379 2.238 . S
Mg357 O355 1.922 . S
Mg357 O358 1.912 1_554 S
Mg357 O368 2.115 . S
Mg357 O370 2.095 . S
Mg357 O379 2.098 1_554 S
Mg357 O380 2.063 1_554 S
O358 Mg357 1.912 1_556 S
O358 Mg359 1.926 1_545 S
O358 Mg360 1.986 1_556 S
Mg359 O358 1.926 1_565 S
Mg359 O373 1.984 . S
Mg359 O376 1.988 1_556 S
Mg359 O377 2.061 . S
Mg360 O358 1.986 1_554 S
Mg360 O368 2.238 . S
Mg360 O372 2.042 1_554 S
Mg360 O374 2.041 . S
Mg360 O381 2.038 1_554 S
C361 O367 1.247 . S
C361 O368 1.289 . S
C362 O380 1.245 . S
C362 O381 1.274 . S
O363 C351 1.241 . S
O363 Mg356 2.042 1_554 S
O364 C351 1.280 . S
O364 Mg354 1.984 . S
O365 C352 1.277 . S
O365 Mg356 2.041 . S
O366 C352 1.245 . S
O366 Mg354 1.988 1_556 S
O367 Mg354 2.061 . S
O367 C361 1.247 . S
O368 Mg357 2.115 . S
O368 Mg360 2.238 . S
O368 C361 1.289 . S
C369 O370 1.245 1_565 S
C369 O371 1.274 1_565 S
O370 Mg357 2.095 . S
O370 C369 1.245 1_545 S
O371 Mg356 2.038 1_554 S
O371 C369 1.274 1_545 S
O372 Mg360 2.042 1_556 S
O372 C375 1.241 1_545 S
O373 Mg359 1.984 . S
O373 C375 1.280 . S
O374 Mg360 2.041 . S
O374 C378 1.277 1_545 S
C375 O372 1.241 1_565 S
C375 O373 1.280 . S
O376 Mg359 1.988 1_554 S
O376 C378 1.245 . S
O377 C353 1.247 . S
O377 Mg359 2.061 . S
C378 O374 1.277 1_565 S
C378 O376 1.245 . S
O379 C353 1.289 1_545 S
O379 Mg356 2.238 . S
O379 Mg357 2.098 1_556 S
O380 Mg357 2.063 1_556 S
O380 C362 1.245 . S
O381 Mg360 2.038 1_556 S
O381 C362 1.274 . S
C382 O394 1.241 . S
C382 O395 1.280 . S
C383 O396 1.277 . S
C383 O397 1.245 . S
C384 O408 1.247 1_556 S
C384 O410 1.289 1_556 S
Mg385 O386 1.926 1_455 S
Mg385 O395 1.984 1_455 S
Mg385 O397 1.988 1_455 S
Mg385 O398 2.061 . S
O386 Mg385 1.926 1_655 S
O386 Mg387 1.986 . S
O386 Mg388 1.917 1_655 S
Mg387 O386 1.986 . S
Mg387 O394 2.042 . S
Mg387 O396 2.041 . S
Mg387 O402 2.038 . S
Mg387 O410 2.238 . S
Mg388 O386 1.917 1_455 S
Mg388 O389 1.917 . S
Mg388 O399 2.106 . S
Mg388 O401 2.079 1_455 S
Mg388 O410 2.106 1_455 S
Mg388 O411 2.079 . S
O389 Mg388 1.917 . S
O389 Mg390 1.926 . S
O389 Mg391 1.986 . S
Mg390 O389 1.926 . S
Mg390 O404 1.999 . S
Mg390 O407 1.988 . S
Mg390 O408 2.061 1_455 S
Mg391 O389 1.986 . S
Mg391 O399 2.238 . S
Mg391 O403 2.042 . S
Mg391 O405 2.041 . S
Mg391 O412 2.038 . S
C392 O398 1.247 . S
C392 O399 1.289 . S
C393 O411 1.245 . S
C393 O412 1.274 . S
O394 C382 1.241 . S
O394 Mg387 2.042 . S
O395 C382 1.280 . S
O395 Mg385 1.984 1_655 S
O396 C383 1.277 . S
O396 Mg387 2.041 . S
O397 C383 1.245 . S
O397 Mg385 1.988 1_655 S
O398 Mg385 2.061 . S
O398 C392 1.247 . S
O399 Mg388 2.106 . S
O399 Mg391 2.238 . S
O399 C392 1.289 . S
C400 O401 1.245 . S
C400 O402 1.274 . S
O401 Mg388 2.079 1_655 S
O401 C400 1.245 . S
O402 Mg387 2.038 . S
O402 C400 1.274 . S
O403 Mg391 2.042 . S
O403 C406 1.247 . S
O404 Mg390 1.999 . S
O404 C406 1.278 . S
O405 Mg391 2.041 . S
O405 C409 1.277 . S
C406 O403 1.247 . S
C406 O404 1.278 . S
O407 Mg390 1.988 . S
O407 C409 1.245 . S
O408 C384 1.247 1_554 S
O408 Mg390 2.061 1_655 S
C409 O405 1.277 . S
C409 O407 1.245 . S
O410 C384 1.289 1_554 S
O410 Mg387 2.238 . S
O410 Mg388 2.106 1_655 S
O411 Mg388 2.079 . S
O411 C393 1.245 . S
O412 Mg391 2.038 . S
O412 C393 1.274 . S
C413 O425 1.241 . S
C413 O426 1.280 . S
C414 O427 1.277 . S
C414 O428 1.245 . S
C415 O439 1.247 . S
C415 O441 1.289 . S
Mg416 O417 1.926 . S
Mg416 O426 1.984 . S
Mg416 O428 1.988 1_554 S
Mg416 O429 2.061 . S
O417 Mg416 1.926 . S
O417 Mg418 1.986 . S
O417 Mg419 1.917 . S
Mg418 O417 1.986 . S
Mg418 O425 2.042 . S
Mg418 O427 2.041 1_554 S
Mg418 O433 2.038 . S
Mg418 O441 2.238 1_554 S
Mg419 O417 1.917 . S
Mg419 O420 1.917 . S
Mg419 O430 2.106 . S
Mg419 O432 2.079 . S
Mg419 O441 2.106 1_554 S
Mg419 O442 2.079 1_554 S
O420 Mg419 1.917 . S
O420 Mg421 1.926 . S
O420 Mg422 1.986 . S
Mg421 O420 1.926 . S
Mg421 O435 1.984 1_554 S
Mg421 O438 1.988 . S
Mg421 O439 2.061 1_554 S
Mg422 O420 1.986 . S
Mg422 O430 2.238 . S
Mg422 O434 2.042 1_554 S
Mg422 O436 2.041 . S
Mg422 O443 2.038 1_554 S
C423 O429 1.247 . S
C423 O430 1.289 . S
C424 O442 1.245 . S
C424 O443 1.274 . S
O425 C413 1.241 . S
O425 Mg418 2.042 . S
O426 C413 1.280 . S
O426 Mg416 1.984 . S
O427 C414 1.277 . S
O427 Mg418 2.041 1_556 S
O428 C414 1.245 . S
O428 Mg416 1.988 1_556 S
O429 Mg416 2.061 . S
O429 C423 1.247 . S
O430 Mg419 2.106 . S
O430 Mg422 2.238 . S
O430 C423 1.289 . S
C431 O432 1.245 . S
C431 O433 1.274 . S
O432 Mg419 2.079 . S
O432 C431 1.245 . S
O433 Mg418 2.038 . S
O433 C431 1.274 . S
O434 Mg422 2.042 1_556 S
O434 C437 1.241 . S
O435 Mg421 1.984 1_556 S
O435 C437 1.280 . S
O436 Mg422 2.041 . S
O436 C440 1.277 . S
C437 O434 1.241 . S
C437 O435 1.280 . S
O438 Mg421 1.988 . S
O438 C440 1.245 . S
O439 C415 1.247 . S
O439 Mg421 2.061 1_556 S
C440 O436 1.277 . S
C440 O438 1.245 . S
O441 C415 1.289 . S
O441 Mg418 2.238 1_556 S
O441 Mg419 2.106 1_556 S
O442 Mg419 2.079 1_556 S
O442 C424 1.245 . S
O443 Mg422 2.038 1_556 S
O443 C424 1.274 . S
C444 O456 1.241 . S
C444 O457 1.280 . S
C445 O458 1.277 . S
C445 O459 1.245 1_655 S
C446 O470 1.247 . S
C446 O472 1.289 . S
Mg447 O448 1.926 . S
Mg447 O457 1.984 1_455 S
Mg447 O459 1.988 . S
Mg447 O460 2.061 . S
O448 Mg447 1.926 . S
O448 Mg449 1.986 1_455 S
O448 Mg450 1.917 . S
Mg449 O448 1.986 1_655 S
Mg449 O456 2.042 . S
Mg449 O458 2.041 . S
Mg449 O464 2.038 . S
Mg449 O472 2.238 . S
Mg450 O448 1.917 . S
Mg450 O451 1.917 . S
Mg450 O461 2.106 . S
Mg450 O463 2.079 . S
Mg450 O472 2.106 1_455 S
Mg450 O473 2.079 . S
O451 Mg450 1.917 . S
O451 Mg452 1.926 . S
O451 Mg453 1.986 . S
Mg452 O451 1.926 . S
Mg452 O466 1.984 . S
Mg452 O469 1.988 . S
Mg452 O470 2.061 1_455 S
Mg453 O451 1.986 . S
Mg453 O461 2.238 . S
Mg453 O465 2.042 . S
Mg453 O467 2.041 . S
Mg453 O474 2.038 . S
C454 O460 1.247 . S
C454 O461 1.289 . S
C455 O473 1.245 . S
C455 O474 1.274 . S
O456 C444 1.241 . S
O456 Mg449 2.042 . S
O457 C444 1.280 . S
O457 Mg447 1.984 1_655 S
O458 C445 1.277 . S
O458 Mg449 2.041 . S
O459 C445 1.245 1_455 S
O459 Mg447 1.988 . S
O460 Mg447 2.061 . S
O460 C454 1.247 . S
O461 Mg450 2.106 . S
O461 Mg453 2.238 . S
O461 C454 1.289 . S
C462 O463 1.245 1_655 S
C462 O464 1.274 . S
O463 Mg450 2.079 . S
O463 C462 1.245 1_455 S
O464 Mg449 2.038 . S
O464 C462 1.274 . S
O465 Mg453 2.042 . S
O465 C468 1.241 . S
O466 Mg452 1.984 . S
O466 C468 1.280 . S
O467 Mg453 2.041 . S
O467 C471 1.277 . S
C468 O465 1.241 . S
C468 O466 1.280 . S
O469 Mg452 1.988 . S
O469 C471 1.245 . S
O470 C446 1.247 . S
O470 Mg452 2.061 1_655 S
C471 O467 1.277 . S
C471 O469 1.245 . S
O472 C446 1.289 . S
O472 Mg449 2.238 . S
O472 Mg450 2.106 1_655 S
O473 Mg450 2.079 . S
O473 C455 1.245 . S
O474 Mg453 2.038 . S
O474 C455 1.274 . S
C475 O487 1.241 . S
C475 O488 1.280 . S
C476 O489 1.277 . S
C476 O490 1.245 . S
C477 O501 1.247 . S
C477 O503 1.289 . S
Mg478 O479 1.926 . S
Mg478 O488 1.984 . S
Mg478 O490 1.988 . S
Mg478 O491 2.061 . S
O479 Mg478 1.926 . S
O479 Mg480 1.986 1_545 S
O479 Mg481 1.917 . S
Mg480 O479 1.986 1_565 S
Mg480 O487 2.042 1_565 S
Mg480 O489 2.041 1_565 S
Mg480 O495 2.038 . S
Mg480 O503 2.238 . S
Mg481 O479 1.917 . S
Mg481 O482 1.917 1_545 S
Mg481 O492 2.106 . S
Mg481 O494 2.079 1_545 S
Mg481 O503 2.106 1_545 S
Mg481 O504 2.079 . S
O482 Mg481 1.917 1_565 S
O482 Mg483 1.926 . S
O482 Mg484 1.986 1_565 S
Mg483 O482 1.926 . S
Mg483 O497 1.984 . S
Mg483 O500 1.988 . S
Mg483 O501 2.061 . S
Mg484 O482 1.986 1_545 S
Mg484 O492 2.238 . S
Mg484 O496 2.042 1_545 S
Mg484 O498 2.041 1_545 S
Mg484 O505 2.038 . S
C485 O491 1.247 . S
C485 O492 1.289 . S
C486 O504 1.245 . S
C486 O505 1.274 . S
O487 C475 1.241 . S
O487 Mg480 2.042 1_545 S
O488 C475 1.280 . S
O488 Mg478 1.984 . S
O489 C476 1.277 . S
O489 Mg480 2.041 1_545 S
O490 C476 1.245 . S
O490 Mg478 1.988 . S
O491 Mg478 2.061 . S
O491 C485 1.247 . S
O492 Mg481 2.106 . S
O492 Mg484 2.238 . S
O492 C485 1.289 . S
C493 O494 1.245 . S
C493 O495 1.274 . S
O494 Mg481 2.079 1_565 S
O494 C493 1.245 . S
O495 Mg480 2.038 . S
O495 C493 1.274 . S
O496 Mg484 2.042 1_565 S
O496 C499 1.241 . S
O497 Mg483 1.984 . S
O497 C499 1.280 . S
O498 Mg484 2.041 1_565 S
O498 C502 1.277 . S
C499 O496 1.241 . S
C499 O497 1.280 . S
O500 Mg483 1.988 . S
O500 C502 1.245 . S
O501 C477 1.247 . S
O501 Mg483 2.061 . S
C502 O498 1.277 . S
C502 O500 1.245 . S
O503 C477 1.289 . S
O503 Mg480 2.238 . S
O503 Mg481 2.106 1_565 S
O504 Mg481 2.079 . S
O504 C486 1.245 . S
O505 Mg484 2.038 . S
O505 C486 1.274 . S
C506 C507 1.363 . S
C506 C512 1.379 . S
C506 N514 1.356 . S
C507 C506 1.363 . S
C507 C513 1.363 . S
C508 C509 1.363 . S
C508 C513 1.379 . S
C508 N515 1.356 . S
C509 C508 1.363 . S
C509 C512 1.363 . S
N510 C512 1.356 . S
N510 H522 0.984 . S
N510 H523 0.985 . S
N511 C513 1.356 . S
N511 H516 0.984 . S
N511 H517 0.985 . S
C512 C506 1.379 . S
C512 C509 1.363 . S
C512 N510 1.356 . S
C513 C507 1.363 . S
C513 C508 1.379 . S
C513 N511 1.356 . S
N514 C506 1.356 . S
N514 H520 0.984 . S
N514 H521 0.984 . S
N515 C508 1.356 . S
N515 H518 0.984 . S
N515 H519 0.985 . S
H516 N511 0.984 . S
H517 N511 0.985 . S
H518 N515 0.984 . S
H519 N515 0.985 . S
H520 N514 0.984 . S
H521 N514 0.984 . S
H522 N510 0.984 . S
H523 N510 0.985 . S
C524 C525 1.363 . S
C524 C530 1.379 . S
C524 N532 1.356 . S
C525 C524 1.363 . S
C525 C531 1.363 . S
C526 C527 1.363 . S
C526 C531 1.379 . S
C526 N533 1.356 . S
C527 C526 1.363 . S
C527 C530 1.363 . S
N528 C530 1.356 . S
N528 H540 0.984 . S
N528 H541 0.985 . S
N529 C531 1.356 . S
N529 H534 0.984 . S
N529 H535 0.985 . S
C530 C524 1.379 . S
C530 C527 1.363 . S
C530 N528 1.356 . S
C531 C525 1.363 . S
C531 C526 1.379 . S
C531 N529 1.356 . S
N532 C524 1.356 . S
N532 H538 0.984 . S
N532 H539 0.984 . S
N533 C526 1.356 . S
N533 H536 0.984 . S
N533 H537 0.985 . S
H534 N529 0.984 . S
H535 N529 0.985 . S
H536 N533 0.984 . S
H537 N533 0.985 . S
H538 N532 0.984 . S
H539 N532 0.984 . S
H540 N528 0.984 . S
H541 N528 0.985 . S
C542 C543 1.363 . S
C542 C548 1.379 . S
C542 N550 1.356 . S
C543 C542 1.363 . S
C543 C549 1.363 . S
C544 C545 1.363 . S
C544 C549 1.379 . S
C544 N551 1.356 . S
C545 C544 1.363 . S
C545 C548 1.363 . S
N546 C548 1.356 . S
N546 H558 0.984 1_565 S
N546 H559 0.985 1_565 S
N547 C549 1.356 . S
N547 H552 0.984 . S
N547 H553 0.985 . S
C548 C542 1.379 . S
C548 C545 1.363 . S
C548 N546 1.356 . S
C549 C543 1.363 . S
C549 C544 1.379 . S
C549 N547 1.356 . S
N550 C542 1.356 . S
N550 H556 0.984 . S
N550 H557 0.984 . S
N551 C544 1.356 . S
N551 H554 0.984 . S
N551 H555 0.985 . S
H552 N547 0.984 . S
H553 N547 0.985 . S
H554 N551 0.984 . S
H555 N551 0.985 . S
H556 N550 0.984 . S
H557 N550 0.984 . S
H558 N546 0.984 1_545 S
H559 N546 0.985 1_545 S
C560 C561 1.363 . S
C560 C566 1.379 . S
C560 N568 1.356 . S
C561 C560 1.363 . S
C561 C567 1.363 . S
C562 C563 1.363 . S
C562 C567 1.379 . S
C562 N569 1.356 1_565 S
C563 C562 1.363 . S
C563 C566 1.363 . S
N564 C566 1.356 . S
N564 H576 0.984 . S
N564 H577 0.988 . S
N565 C567 1.356 . S
N565 H570 0.984 . S
N565 H571 0.985 . S
C566 C560 1.379 . S
C566 C563 1.363 . S
C566 N564 1.356 . S
C567 C561 1.363 . S
C567 C562 1.379 . S
C567 N565 1.356 . S
N568 C560 1.356 . S
N568 H574 0.984 . S
N568 H575 0.984 . S
N569 C562 1.356 1_545 S
N569 H572 0.984 . S
N569 H573 0.985 . S
H570 N565 0.984 . S
H571 N565 0.985 . S
H572 N569 0.984 . S
H573 N569 0.985 . S
H574 N568 0.984 . S
H575 N568 0.984 . S
H576 N564 0.984 . S
H577 N564 0.988 . S
C578 C579 1.363 . S
C578 C584 1.379 . S
C578 N586 1.356 . S
C579 C578 1.363 . S
C579 C585 1.363 . S
C580 C581 1.363 . S
C580 C585 1.379 . S
C580 N587 1.356 . S
C581 C580 1.363 . S
C581 C584 1.363 . S
N582 C584 1.356 . S
N582 H594 0.984 . S
N582 H595 0.985 . S
N583 C585 1.356 . S
N583 H588 0.984 . S
N583 H589 0.985 . S
C584 C578 1.379 . S
C584 C581 1.363 . S
C584 N582 1.356 . S
C585 C579 1.363 . S
C585 C580 1.379 . S
C585 N583 1.356 . S
N586 C578 1.356 . S
N586 H592 0.984 . S
N586 H593 0.984 . S
N587 C580 1.356 . S
N587 H590 0.984 . S
N587 H591 0.985 . S
H588 N583 0.984 . S
H589 N583 0.985 . S
H590 N587 0.984 . S
H591 N587 0.985 . S
H592 N586 0.984 . S
H593 N586 0.984 . S
H594 N582 0.984 . S
H595 N582 0.985 . S
C596 C597 1.363 . S
C596 C602 1.379 . S
C596 N604 1.356 . S
C597 C596 1.363 . S
C597 C603 1.363 . S
C598 C599 1.363 . S
C598 C603 1.379 . S
C598 N605 1.356 . S
C599 C598 1.363 . S
C599 C602 1.363 . S
N600 C602 1.356 . S
N600 H612 0.984 . S
N600 H613 0.985 . S
N601 C603 1.356 . S
N601 H606 0.984 . S
N601 H607 0.985 . S
C602 C596 1.379 . S
C602 C599 1.363 . S
C602 N600 1.356 . S
C603 C597 1.363 . S
C603 C598 1.379 . S
C603 N601 1.356 . S
N604 C596 1.356 . S
N604 H610 0.984 . S
N604 H611 0.984 . S
N605 C598 1.356 . S
N605 H608 0.984 . S
N605 H609 0.985 . S
H606 N601 0.984 . S
H607 N601 0.985 . S
H608 N605 0.984 . S
H609 N605 0.985 . S
H610 N604 0.984 . S
H611 N604 0.984 . S
H612 N600 0.984 . S
H613 N600 0.985 . S
C614 C615 1.363 . S
C614 C620 1.379 . S
C614 N622 1.356 1_655 S
C615 C614 1.363 . S
C615 C621 1.363 . S
C616 C617 1.363 . S
C616 C621 1.379 . S
C616 N623 1.356 . S
C617 C616 1.363 . S
C617 C620 1.363 . S
N618 C620 1.356 . S
N618 H630 0.984 . S
N618 H631 0.985 . S
N619 C621 1.356 . S
N619 H624 0.984 . S
N619 H625 0.985 . S
C620 C614 1.379 . S
C620 C617 1.363 . S
C620 N618 1.356 . S
C621 C615 1.363 . S
C621 C616 1.379 . S
C621 N619 1.356 . S
N622 C614 1.356 1_455 S
N622 H628 0.984 . S
N622 H629 0.984 . S
N623 C616 1.356 . S
N623 H626 0.984 . S
N623 H627 0.985 . S
H624 N619 0.984 . S
H625 N619 0.985 . S
H626 N623 0.984 . S
H627 N623 0.985 . S
H628 N622 0.984 . S
H629 N622 0.984 . S
H630 N618 0.984 . S
H631 N618 0.985 . S
C632 C633 1.363 . S
C632 C638 1.379 . S
C632 N640 1.356 . S
C633 C632 1.363 . S
C633 C639 1.363 . S
C634 C635 1.363 . S
C634 C639 1.379 . S
C634 N641 1.356 . S
C635 C634 1.363 . S
C635 C638 1.363 . S
N636 C638 1.356 . S
N636 H648 0.984 1_565 S
N636 H649 0.986 . S
N637 C639 1.356 . S
N637 H642 0.984 . S
N637 H643 0.985 . S
C638 C632 1.379 . S
C638 C635 1.363 . S
C638 N636 1.356 . S
C639 C633 1.363 . S
C639 C634 1.379 . S
C639 N637 1.356 . S
N640 C632 1.356 . S
N640 H646 0.984 . S
N640 H647 0.984 . S
N641 C634 1.356 . S
N641 H644 0.984 . S
N641 H645 0.985 . S
H642 N637 0.984 . S
H643 N637 0.985 . S
H644 N641 0.984 . S
H645 N641 0.985 . S
H646 N640 0.984 . S
H647 N640 0.984 . S
H648 N636 0.984 1_545 S
H649 N636 0.986 . S
C650 C651 1.363 . S
C650 C656 1.379 . S
C650 N658 1.356 . S
C651 C650 1.363 . S
C651 C657 1.363 . S
C652 C653 1.363 . S
C652 C657 1.379 . S
C652 N659 1.356 . S
C653 C652 1.363 . S
C653 C656 1.363 . S
N654 C656 1.356 . S
N654 H666 0.984 . S
N654 H667 0.985 . S
N655 C657 1.356 . S
N655 H660 0.984 . S
N655 H661 0.985 . S
C656 C650 1.379 . S
C656 C653 1.363 . S
C656 N654 1.356 . S
C657 C651 1.363 . S
C657 C652 1.379 . S
C657 N655 1.356 . S
N658 C650 1.356 . S
N658 H664 0.984 . S
N658 H665 0.984 . S
N659 C652 1.356 . S
N659 H662 0.984 . S
N659 H663 0.985 . S
H660 N655 0.984 . S
H661 N655 0.985 . S
H662 N659 0.984 . S
H663 N659 0.985 . S
H664 N658 0.984 . S
H665 N658 0.984 . S
H666 N654 0.984 . S
H667 N654 0.985 . S
C668 C669 1.363 . S
C668 C674 1.379 . S
C668 N676 1.356 . S
C669 C668 1.363 . S
C669 C675 1.363 . S
C670 C671 1.363 . S
C670 C675 1.379 . S
C670 N677 1.356 . S
C671 C670 1.363 . S
C671 C674 1.363 . S
N672 C674 1.356 1_455 S
N672 H684 0.984 . S
N672 H685 0.985 . S
N673 C675 1.356 . S
N673 H678 0.984 . S
N673 H679 0.985 . S
C674 C668 1.379 . S
C674 C671 1.363 . S
C674 N672 1.356 1_655 S
C675 C669 1.363 . S
C675 C670 1.379 . S
C675 N673 1.356 . S
N676 C668 1.356 . S
N676 H682 0.984 1_655 S
N676 H683 0.984 . S
N677 C670 1.356 . S
N677 H680 0.984 . S
N677 H681 0.985 . S
H678 N673 0.984 . S
H679 N673 0.985 . S
H680 N677 0.984 . S
H681 N677 0.985 . S
H682 N676 0.984 1_455 S
H683 N676 0.984 . S
H684 N672 0.984 . S
H685 N672 0.985 . S
C686 C687 1.363 . S
C686 C692 1.379 . S
C686 N694 1.356 . S
C687 C686 1.363 . S
C687 C693 1.371 . S
C688 C689 1.360 1_545 S
C688 C693 1.372 1_545 S
C688 N695 1.362 . S
C689 C688 1.360 1_565 S
C689 C692 1.363 . S
N690 C692 1.356 . S
N690 H702 0.984 . S
N690 H703 0.985 . S
N691 C693 1.354 1_545 S
N691 H696 0.984 . S
N691 H697 0.985 . S
C692 C686 1.379 . S
C692 C689 1.363 . S
C692 N690 1.356 . S
C693 C687 1.371 . S
C693 C688 1.372 1_565 S
C693 N691 1.354 1_565 S
N694 C686 1.356 . S
N694 H700 0.984 . S
N694 H701 0.984 . S
N695 C688 1.362 . S
N695 H698 0.984 . S
N695 H699 0.985 . S
H696 N691 0.984 . S
H697 N691 0.985 . S
H698 N695 0.984 . S
H699 N695 0.985 . S
H700 N694 0.984 . S
H701 N694 0.984 . S
H702 N690 0.984 . S
H703 N690 0.985 . S
C704 C705 1.363 . S
C704 C710 1.379 . S
C704 N712 1.356 . S
C705 C704 1.363 . S
C705 C711 1.363 . S
C706 C707 1.363 . S
C706 C711 1.379 . S
C706 N713 1.356 . S
C707 C706 1.363 . S
C707 C710 1.363 . S
N708 C710 1.356 . S
N708 H720 0.984 . S
N708 H721 0.985 . S
N709 C711 1.356 . S
N709 H714 0.984 . S
N709 H715 0.985 . S
C710 C704 1.379 . S
C710 C707 1.363 . S
C710 N708 1.356 . S
C711 C705 1.363 . S
C711 C706 1.379 . S
C711 N709 1.356 . S
N712 C704 1.356 . S
N712 H718 0.984 . S
N712 H719 0.984 . S
N713 C706 1.356 . S
N713 H716 0.984 . S
N713 H717 0.985 . S
H714 N709 0.984 . S
H715 N709 0.985 . S
H716 N713 0.984 . S
H717 N713 0.985 . S
H718 N712 0.984 . S
H719 N712 0.984 . S
H720 N708 0.984 . S
H721 N708 0.985 . S
C722 C723 1.363 . S
C722 C728 1.379 . S
C722 N730 1.356 . S
C723 C722 1.363 . S
C723 C729 1.363 . S
C724 C725 1.363 . S
C724 C729 1.379 . S
C724 N731 1.356 . S
C725 C724 1.363 . S
C725 C728 1.363 . S
N726 C728 1.356 . S
N726 H738 0.984 . S
N726 H739 0.985 . S
N727 C729 1.356 . S
N727 H732 0.984 . S
N727 H733 0.985 . S
C728 C722 1.379 . S
C728 C725 1.363 . S
C728 N726 1.356 . S
C729 C723 1.363 . S
C729 C724 1.379 . S
C729 N727 1.356 . S
N730 C722 1.356 . S
N730 H736 0.984 . S
N730 H737 0.984 . S
N731 C724 1.356 . S
N731 H734 0.984 . S
N731 H735 0.985 . S
H732 N727 0.984 . S
H733 N727 0.985 . S
H734 N731 0.984 . S
H735 N731 0.985 . S
H736 N730 0.984 . S
H737 N730 0.984 . S
H738 N726 0.984 . S
H739 N726 0.985 . S
C740 C741 1.363 . S
C740 C746 1.379 . S
C740 N748 1.356 . S
C741 C740 1.363 . S
C741 C747 1.363 . S
C742 C743 1.363 . S
C742 C747 1.379 . S
C742 N749 1.356 . S
C743 C742 1.363 . S
C743 C746 1.363 . S
N744 C746 1.356 1_554 S
N744 H756 0.984 . S
N744 H757 0.985 . S
N745 C747 1.356 . S
N745 H750 0.984 . S
N745 H751 0.985 1_455 S
C746 C740 1.379 . S
C746 C743 1.363 . S
C746 N744 1.356 1_556 S
C747 C741 1.363 . S
C747 C742 1.379 . S
C747 N745 1.356 . S
N748 C740 1.356 . S
N748 H754 0.984 . S
N748 H755 0.984 . S
N749 C742 1.356 . S
N749 H752 0.984 . S
N749 H753 0.985 . S
H750 N745 0.984 . S
H751 N745 0.985 1_655 S
H752 N749 0.984 . S
H753 N749 0.985 . S
H754 N748 0.984 . S
H755 N748 0.984 . S
H756 N744 0.984 . S
H757 N744 0.985 . S
C758 C759 1.363 . S
C758 C764 1.379 . S
C758 N766 1.356 . S
C759 C758 1.363 . S
C759 C765 1.363 . S
C760 C761 1.363 . S
C760 C765 1.379 . S
C760 N767 1.356 . S
C761 C760 1.363 . S
C761 C764 1.363 . S
N762 C764 1.356 . S
N762 H774 0.984 . S
N762 H775 0.985 . S
N763 C765 1.356 . S
N763 H768 0.984 . S
N763 H769 0.985 . S
C764 C758 1.379 . S
C764 C761 1.363 . S
C764 N762 1.356 . S
C765 C759 1.363 . S
C765 C760 1.379 . S
C765 N763 1.356 . S
N766 C758 1.356 . S
N766 H772 0.984 . S
N766 H773 0.984 . S
N767 C760 1.356 . S
N767 H770 0.984 . S
N767 H771 0.985 . S
H768 N763 0.984 . S
H769 N763 0.985 . S
H770 N767 0.984 . S
H771 N767 0.985 . S
H772 N766 0.984 . S
H773 N766 0.984 . S
H774 N762 0.984 . S
H775 N762 0.985 . S
C776 C777 1.363 . S
C776 C782 1.379 . S
C776 N784 1.356 . S
C777 C776 1.363 . S
C777 C783 1.363 1_554 S
C778 C779 1.363 . S
C778 C783 1.379 . S
C778 N785 1.356 . S
C779 C778 1.363 . S
C779 C782 1.363 1_556 S
N780 C782 1.356 . S
N780 H792 0.984 . S
N780 H793 0.985 . S
N781 C783 1.356 . S
N781 H786 0.984 . S
N781 H787 0.985 . S
C782 C776 1.379 . S
C782 C779 1.363 1_554 S
C782 N780 1.356 . S
C783 C777 1.363 1_556 S
C783 C778 1.379 . S
C783 N781 1.356 . S
N784 C776 1.356 . S
N784 H790 0.984 . S
N784 H791 0.984 . S
N785 C778 1.356 . S
N785 H788 0.984 . S
N785 H789 0.985 . S
H786 N781 0.984 . S
H787 N781 0.985 . S
H788 N785 0.984 . S
H789 N785 0.985 . S
H790 N784 0.984 . S
H791 N784 0.984 . S
H792 N780 0.984 . S
H793 N780 0.985 . S
C794 C795 1.363 . S
C794 C800 1.379 . S
C794 N802 1.356 . S
C795 C794 1.363 . S
C795 C801 1.363 . S
C796 C797 1.363 . S
C796 C801 1.379 . S
C796 N803 1.356 . S
C797 C796 1.363 . S
C797 C800 1.363 . S
N798 C800 1.356 . S
N798 H810 0.984 . S
N798 H811 0.985 . S
N799 C801 1.356 . S
N799 H804 0.984 . S
N799 H805 0.985 . S
C800 C794 1.379 . S
C800 C797 1.363 . S
C800 N798 1.356 . S
C801 C795 1.363 . S
C801 C796 1.379 . S
C801 N799 1.356 . S
N802 C794 1.356 . S
N802 H808 0.984 . S
N802 H809 0.984 . S
N803 C796 1.356 . S
N803 H806 0.984 . S
N803 H807 0.985 . S
H804 N799 0.984 . S
H805 N799 0.985 . S
H806 N803 0.984 . S
H807 N803 0.985 . S
H808 N802 0.984 . S
H809 N802 0.984 . S
H810 N798 0.984 . S
H811 N798 0.985 . S
C812 C813 1.363 . S
C812 C818 1.379 1_556 S
C812 N820 1.356 . S
C813 C812 1.363 . S
C813 C819 1.363 . S
C814 C815 1.361 . S
C814 C819 1.379 . S
C814 N821 1.355 1_455 S
C815 C814 1.361 . S
C815 C818 1.363 1_556 S
N816 C818 1.356 . S
N816 H828 0.984 . S
N816 H829 0.985 . S
N817 C819 1.356 . S
N817 H822 0.984 . S
N817 H823 0.985 . S
C818 C812 1.379 1_554 S
C818 C815 1.363 1_554 S
C818 N816 1.356 . S
C819 C813 1.363 . S
C819 C814 1.379 . S
C819 N817 1.356 . S
N820 C812 1.356 . S
N820 H826 0.984 1_556 S
N820 H827 0.984 . S
N821 C814 1.355 1_655 S
N821 H824 0.985 . S
N821 H825 0.985 . S
H822 N817 0.984 . S
H823 N817 0.985 . S
H824 N821 0.985 . S
H825 N821 0.985 . S
H826 N820 0.984 1_554 S
H827 N820 0.984 . S
H828 N816 0.984 . S
H829 N816 0.985 . S
C830 C831 1.363 . S
C830 C836 1.379 . S
C830 N838 1.356 . S
C831 C830 1.363 . S
C831 C837 1.363 . S
C832 C833 1.363 . S
C832 C837 1.379 . S
C832 N839 1.356 . S
C833 C832 1.363 . S
C833 C836 1.363 . S
N834 C836 1.356 . S
N834 H846 0.984 . S
N834 H847 0.985 . S
N835 C837 1.356 . S
N835 H840 0.984 . S
N835 H841 0.985 . S
C836 C830 1.379 . S
C836 C833 1.363 . S
C836 N834 1.356 . S
C837 C831 1.363 . S
C837 C832 1.379 . S
C837 N835 1.356 . S
N838 C830 1.356 . S
N838 H844 0.984 . S
N838 H845 0.984 . S
N839 C832 1.356 . S
N839 H842 0.984 . S
N839 H843 0.985 . S
H840 N835 0.984 . S
H841 N835 0.985 . S
H842 N839 0.984 . S
H843 N839 0.985 . S
H844 N838 0.984 . S
H845 N838 0.984 . S
H846 N834 0.984 . S
H847 N834 0.985 . S
C848 C849 1.363 . S
C848 C854 1.379 . S
C848 N856 1.356 . S
C849 C848 1.363 . S
C849 C855 1.363 . S
C850 C851 1.363 . S
C850 C855 1.379 . S
C850 N857 1.356 . S
C851 C850 1.363 . S
C851 C854 1.363 . S
N852 C854 1.356 . S
N852 H864 0.984 . S
N852 H865 0.985 . S
N853 C855 1.356 . S
N853 H858 0.984 . S
N853 H859 0.985 . S
C854 C848 1.379 . S
C854 C851 1.363 . S
C854 N852 1.356 . S
C855 C849 1.363 . S
C855 C850 1.379 . S
C855 N853 1.356 . S
N856 C848 1.356 . S
N856 H862 0.984 . S
N856 H863 0.984 . S
N857 C850 1.356 . S
N857 H860 0.984 . S
N857 H861 0.985 . S
H858 N853 0.984 . S
H859 N853 0.985 . S
H860 N857 0.984 . S
H861 N857 0.985 . S
H862 N856 0.984 . S
H863 N856 0.984 . S
H864 N852 0.984 . S
H865 N852 0.985 . S
C866 C867 1.363 . S
C866 C872 1.379 . S
C866 N874 1.356 . S
C867 C866 1.363 . S
C867 C873 1.363 . S
C868 C869 1.363 . S
C868 C873 1.379 . S
C868 N875 1.356 . S
C869 C868 1.363 . S
C869 C872 1.363 . S
N870 C872 1.356 . S
N870 H882 0.984 . S
N870 H883 0.985 . S
N871 C873 1.356 . S
N871 H876 0.984 . S
N871 H877 0.985 . S
C872 C866 1.379 . S
C872 C869 1.363 . S
C872 N870 1.356 . S
C873 C867 1.363 . S
C873 C868 1.379 . S
C873 N871 1.356 . S
N874 C866 1.356 . S
N874 H880 0.984 . S
N874 H881 0.984 . S
N875 C868 1.356 . S
N875 H878 0.984 . S
N875 H879 0.985 . S
H876 N871 0.984 . S
H877 N871 0.985 . S
H878 N875 0.984 . S
H879 N875 0.985 . S
H880 N874 0.984 . S
H881 N874 0.984 . S
H882 N870 0.984 . S
H883 N870 0.985 . S
C884 C885 1.363 . S
C884 C890 1.379 . S
C884 N892 1.356 . S
C885 C884 1.363 . S
C885 C891 1.363 . S
C886 C887 1.363 . S
C886 C891 1.379 . S
C886 N893 1.356 . S
C887 C886 1.363 . S
C887 C890 1.363 . S
N888 C890 1.356 . S
N888 H900 0.984 . S
N888 H901 0.985 . S
N889 C891 1.356 . S
N889 H894 0.984 . S
N889 H895 0.985 . S
C890 C884 1.379 . S
C890 C887 1.363 . S
C890 N888 1.356 . S
C891 C885 1.363 . S
C891 C886 1.379 . S
C891 N889 1.356 . S
N892 C884 1.356 . S
N892 H898 0.984 . S
N892 H899 0.984 . S
N893 C886 1.356 . S
N893 H896 0.984 . S
N893 H897 0.985 . S
H894 N889 0.984 . S
H895 N889 0.985 . S
H896 N893 0.984 . S
H897 N893 0.985 . S
H898 N892 0.984 . S
H899 N892 0.984 . S
H900 N888 0.984 . S
H901 N888 0.985 . S
C902 C903 1.363 . S
C902 C908 1.379 . S
C902 N910 1.356 . S
C903 C902 1.363 . S
C903 C909 1.363 . S
C904 C905 1.363 . S
C904 C909 1.379 . S
C904 N911 1.356 . S
C905 C904 1.363 . S
C905 C908 1.363 . S
N906 C908 1.356 . S
N906 H918 0.984 1_565 S
N906 H919 0.985 1_565 S
N907 C909 1.356 . S
N907 H912 0.984 . S
N907 H913 0.985 . S
C908 C902 1.379 . S
C908 C905 1.363 . S
C908 N906 1.356 . S
C909 C903 1.363 . S
C909 C904 1.379 . S
C909 N907 1.356 . S
N910 C902 1.356 . S
N910 H916 0.984 . S
N910 H917 0.984 . S
N911 C904 1.356 . S
N911 H914 0.984 . S
N911 H915 0.985 . S
H912 N907 0.984 . S
H913 N907 0.985 . S
H914 N911 0.984 . S
H915 N911 0.985 . S
H916 N910 0.984 . S
H917 N910 0.984 . S
H918 N906 0.984 1_545 S
H919 N906 0.985 1_545 S
C920 C921 1.363 . S
C920 C926 1.379 . S
C920 N928 1.356 . S
C921 C920 1.363 . S
C921 C927 1.363 . S
C922 C923 1.363 . S
C922 C927 1.379 . S
C922 N929 1.356 . S
C923 C922 1.363 . S
C923 C926 1.363 . S
N924 C926 1.356 . S
N924 H936 0.984 . S
N924 H937 0.985 . S
N925 C927 1.356 . S
N925 H930 0.984 . S
N925 H931 0.985 . S
C926 C920 1.379 . S
C926 C923 1.363 . S
C926 N924 1.356 . S
C927 C921 1.363 . S
C927 C922 1.379 . S
C927 N925 1.356 . S
N928 C920 1.356 . S
N928 H934 0.984 . S
N928 H935 0.984 . S
N929 C922 1.356 . S
N929 H932 0.984 . S
N929 H933 0.985 . S
H930 N925 0.984 . S
H931 N925 0.985 . S
H932 N929 0.984 . S
H933 N929 0.985 . S
H934 N928 0.984 . S
H935 N928 0.984 . S
H936 N924 0.984 . S
H937 N924 0.985 . S
C938 C939 1.363 . S
C938 C944 1.379 . S
C938 N946 1.356 . S
C939 C938 1.363 . S
C939 C945 1.363 . S
C940 C941 1.363 . S
C940 C945 1.379 . S
C940 N947 1.356 . S
C941 C940 1.363 . S
C941 C944 1.363 . S
N942 C944 1.356 . S
N942 H954 0.984 . S
N942 H955 0.985 . S
N943 C945 1.356 . S
N943 H948 0.984 . S
N943 H949 0.985 . S
C944 C938 1.379 . S
C944 C941 1.363 . S
C944 N942 1.356 . S
C945 C939 1.363 . S
C945 C940 1.379 . S
C945 N943 1.356 . S
N946 C938 1.356 . S
N946 H952 0.984 . S
N946 H953 0.984 . S
N947 C940 1.356 . S
N947 H950 0.984 . S
N947 H951 0.985 . S
H948 N943 0.984 . S
H949 N943 0.985 . S
H950 N947 0.984 . S
H951 N947 0.985 . S
H952 N946 0.984 . S
H953 N946 0.984 . S
H954 N942 0.984 . S
H955 N942 0.985 . S
C956 C957 1.363 . S
C956 C962 1.379 . S
C956 N964 1.356 . S
C957 C956 1.363 . S
C957 C963 1.363 . S
C958 C959 1.363 . S
C958 C963 1.379 . S
C958 N965 1.356 . S
C959 C958 1.363 . S
C959 C962 1.363 . S
N960 C962 1.356 . S
N960 H972 0.984 . S
N960 H973 0.985 . S
N961 C963 1.356 . S
N961 H966 0.984 . S
N961 H967 0.985 . S
C962 C956 1.379 . S
C962 C959 1.363 . S
C962 N960 1.356 . S
C963 C957 1.363 . S
C963 C958 1.379 . S
C963 N961 1.356 . S
N964 C956 1.356 . S
N964 H970 0.984 . S
N964 H971 0.984 . S
N965 C958 1.356 . S
N965 H968 0.984 . S
N965 H969 0.985 . S
H966 N961 0.984 . S
H967 N961 0.985 . S
H968 N965 0.984 . S
H969 N965 0.985 . S
H970 N964 0.984 . S
H971 N964 0.984 . S
H972 N960 0.984 . S
H973 N960 0.985 . S
C974 C975 1.363 . S
C974 C980 1.379 . S
C974 N982 1.356 . S
C975 C974 1.363 . S
C975 C981 1.363 . S
C976 C977 1.363 . S
C976 C981 1.379 . S
C976 N983 1.356 . S
C977 C976 1.363 . S
C977 C980 1.363 . S
N978 C980 1.356 . S
N978 H990 0.984 . S
N978 H991 0.985 . S
N979 C981 1.356 . S
N979 H984 0.984 . S
N979 H985 0.985 . S
C980 C974 1.379 . S
C980 C977 1.363 . S
C980 N978 1.356 . S
C981 C975 1.363 . S
C981 C976 1.379 . S
C981 N979 1.356 . S
N982 C974 1.356 . S
N982 H988 0.984 . S
N982 H989 0.984 . S
N983 C976 1.356 . S
N983 H986 0.984 . S
N983 H987 0.985 . S
H984 N979 0.984 . S
H985 N979 0.985 . S
H986 N983 0.984 . S
H987 N983 0.985 . S
H988 N982 0.984 . S
H989 N982 0.984 . S
H990 N978 0.984 . S
H991 N978 0.985 . S
C992 C993 1.363 . S
C992 C998 1.379 . S
C992 N1000 1.356 . S
C993 C992 1.363 . S
C993 C999 1.363 . S
C994 C995 1.363 . S
C994 C999 1.379 . S
C994 N1001 1.356 . S
C995 C994 1.363 . S
C995 C998 1.363 . S
N996 C998 1.356 . S
N996 H1008 0.984 . S
N996 H1009 0.985 . S
N997 C999 1.356 . S
N997 H1002 0.984 . S
N997 H1003 0.985 . S
C998 C992 1.379 . S
C998 C995 1.363 . S
C998 N996 1.356 . S
C999 C993 1.363 . S
C999 C994 1.379 . S
C999 N997 1.356 . S
N1000 C992 1.356 . S
N1000 H1006 0.984 . S
N1000 H1007 0.984 . S
N1001 C994 1.356 . S
N1001 H1004 0.984 . S
N1001 H1005 0.985 . S
H1002 N997 0.984 . S
H1003 N997 0.985 . S
H1004 N1001 0.984 . S
H1005 N1001 0.985 . S
H1006 N1000 0.984 . S
H1007 N1000 0.984 . S
H1008 N996 0.984 . S
H1009 N996 0.985 . S
C1010 C1011 1.363 . S
C1010 C1016 1.379 . S
C1010 N1018 1.356 . S
C1011 C1010 1.363 . S
C1011 C1017 1.363 . S
C1012 C1013 1.363 . S
C1012 C1017 1.379 . S
C1012 N1019 1.356 . S
C1013 C1012 1.363 . S
C1013 C1016 1.363 . S
N1014 C1016 1.356 . S
N1014 H1026 0.984 . S
N1014 H1027 0.985 . S
N1015 C1017 1.356 . S
N1015 H1020 0.984 . S
N1015 H1021 0.985 . S
C1016 C1010 1.379 . S
C1016 C1013 1.363 . S
C1016 N1014 1.356 . S
C1017 C1011 1.363 . S
C1017 C1012 1.379 . S
C1017 N1015 1.356 . S
N1018 C1010 1.356 . S
N1018 H1024 0.984 . S
N1018 H1025 0.984 . S
N1019 C1012 1.356 . S
N1019 H1022 0.984 . S
N1019 H1023 0.985 . S
H1020 N1015 0.984 . S
H1021 N1015 0.985 . S
H1022 N1019 0.984 . S
H1023 N1019 0.985 . S
H1024 N1018 0.984 . S
H1025 N1018 0.984 . S
H1026 N1014 0.984 . S
H1027 N1014 0.985 . S
C1028 C1029 1.363 . S
C1028 C1034 1.379 . S
C1028 N1036 1.356 . S
C1029 C1028 1.363 . S
C1029 C1035 1.363 . S
C1030 C1031 1.363 . S
C1030 C1035 1.379 . S
C1030 N1037 1.356 . S
C1031 C1030 1.363 . S
C1031 C1034 1.363 . S
N1032 C1034 1.356 . S
N1032 H1044 0.984 . S
N1032 H1045 0.985 . S
N1033 C1035 1.356 . S
N1033 H1038 0.984 . S
N1033 H1039 0.985 . S
C1034 C1028 1.379 . S
C1034 C1031 1.363 . S
C1034 N1032 1.356 . S
C1035 C1029 1.363 . S
C1035 C1030 1.379 . S
C1035 N1033 1.356 . S
N1036 C1028 1.356 . S
N1036 H1042 0.984 . S
N1036 H1043 0.984 . S
N1037 C1030 1.356 . S
N1037 H1040 0.984 . S
N1037 H1041 0.985 . S
H1038 N1033 0.984 . S
H1039 N1033 0.985 . S
H1040 N1037 0.984 . S
H1041 N1037 0.985 . S
H1042 N1036 0.984 . S
H1043 N1036 0.984 . S
H1044 N1032 0.984 . S
H1045 N1032 0.985 . S
C1046 C1047 1.363 . S
C1046 C1052 1.379 . S
C1046 N1054 1.356 . S
C1047 C1046 1.363 . S
C1047 C1053 1.363 . S
C1048 C1049 1.363 . S
C1048 C1053 1.379 . S
C1048 N1055 1.356 . S
C1049 C1048 1.363 . S
C1049 C1052 1.363 . S
N1050 C1052 1.356 . S
N1050 H1062 0.984 . S
N1050 H1063 0.985 . S
N1051 C1053 1.356 . S
N1051 H1056 0.984 . S
N1051 H1057 0.985 . S
C1052 C1046 1.379 . S
C1052 C1049 1.363 . S
C1052 N1050 1.356 . S
C1053 C1047 1.363 . S
C1053 C1048 1.379 . S
C1053 N1051 1.356 . S
N1054 C1046 1.356 . S
N1054 H1060 0.984 . S
N1054 H1061 0.984 . S
N1055 C1048 1.356 . S
N1055 H1058 0.984 . S
N1055 H1059 0.985 . S
H1056 N1051 0.984 . S
H1057 N1051 0.985 . S
H1058 N1055 0.984 . S
H1059 N1055 0.985 . S
H1060 N1054 0.984 . S
H1061 N1054 0.984 . S
H1062 N1050 0.984 . S
H1063 N1050 0.985 . S
C1064 C1065 1.363 . S
C1064 C1070 1.379 . S
C1064 N1072 1.356 . S
C1065 C1064 1.363 . S
C1065 C1071 1.363 . S
C1066 C1067 1.363 . S
C1066 C1071 1.379 . S
C1066 N1073 1.356 . S
C1067 C1066 1.363 . S
C1067 C1070 1.363 . S
N1068 C1070 1.356 . S
N1068 H1080 0.984 . S
N1068 H1081 0.985 . S
N1069 C1071 1.356 . S
N1069 H1074 0.984 . S
N1069 H1075 0.985 . S
C1070 C1064 1.379 . S
C1070 C1067 1.363 . S
C1070 N1068 1.356 . S
C1071 C1065 1.363 . S
C1071 C1066 1.379 . S
C1071 N1069 1.356 . S
N1072 C1064 1.356 . S
N1072 H1078 0.984 . S
N1072 H1079 0.984 . S
N1073 C1066 1.356 . S
N1073 H1076 0.984 . S
N1073 H1077 0.985 . S
H1074 N1069 0.984 . S
H1075 N1069 0.985 . S
H1076 N1073 0.984 . S
H1077 N1073 0.985 . S
H1078 N1072 0.984 . S
H1079 N1072 0.984 . S
H1080 N1068 0.984 . S
H1081 N1068 0.985 . S
C1082 C1083 1.363 . S
C1082 C1088 1.379 . S
C1082 N1090 1.356 . S
C1083 C1082 1.363 . S
C1083 C1089 1.363 . S
C1084 C1085 1.363 . S
C1084 C1089 1.379 . S
C1084 N1091 1.356 . S
C1085 C1084 1.363 . S
C1085 C1088 1.363 . S
N1086 C1088 1.356 . S
N1086 H1098 0.984 . S
N1086 H1099 0.985 . S
N1087 C1089 1.356 . S
N1087 H1092 0.984 . S
N1087 H1093 0.985 . S
C1088 C1082 1.379 . S
C1088 C1085 1.363 . S
C1088 N1086 1.356 . S
C1089 C1083 1.363 . S
C1089 C1084 1.379 . S
C1089 N1087 1.356 . S
N1090 C1082 1.356 . S
N1090 H1096 0.984 . S
N1090 H1097 0.984 . S
N1091 C1084 1.356 . S
N1091 H1094 0.984 . S
N1091 H1095 0.985 . S
H1092 N1087 0.984 . S
H1093 N1087 0.985 . S
H1094 N1091 0.984 . S
H1095 N1091 0.985 . S
H1096 N1090 0.984 . S
H1097 N1090 0.984 . S
H1098 N1086 0.984 . S
H1099 N1086 0.985 . S
C1100 C1101 1.363 . S
C1100 C1106 1.379 . S
C1100 N1108 1.356 . S
C1101 C1100 1.363 . S
C1101 C1107 1.363 . S
C1102 C1103 1.363 . S
C1102 C1107 1.379 . S
C1102 N1109 1.356 . S
C1103 C1102 1.363 . S
C1103 C1106 1.363 . S
N1104 C1106 1.358 1_545 S
N1104 H1116 0.982 . S
N1104 H1117 0.986 1_545 S
N1105 C1107 1.356 . S
N1105 H1110 0.984 . S
N1105 H1111 0.985 . S
C1106 C1100 1.379 . S
C1106 C1103 1.363 . S
C1106 N1104 1.358 1_565 S
C1107 C1101 1.363 . S
C1107 C1102 1.379 . S
C1107 N1105 1.356 . S
N1108 C1100 1.356 . S
N1108 H1114 0.984 1_565 S
N1108 H1115 0.984 . S
N1109 C1102 1.356 . S
N1109 H1112 0.984 . S
N1109 H1113 0.985 . S
H1110 N1105 0.984 . S
H1111 N1105 0.985 . S
H1112 N1109 0.984 . S
H1113 N1109 0.985 . S
H1114 N1108 0.984 1_545 S
H1115 N1108 0.984 . S
H1116 N1104 0.982 . S
H1117 N1104 0.986 1_565 S
C1118 C1119 1.363 . S
C1118 C1124 1.379 . S
C1118 N1126 1.356 . S
C1119 C1118 1.363 . S
C1119 C1125 1.363 . S
C1120 C1121 1.363 . S
C1120 C1125 1.379 . S
C1120 N1127 1.356 . S
C1121 C1120 1.363 . S
C1121 C1124 1.363 . S
N1122 C1124 1.356 . S
N1122 H1134 0.984 . S
N1122 H1135 0.985 . S
N1123 C1125 1.356 . S
N1123 H1128 0.984 . S
N1123 H1129 0.985 . S
C1124 C1118 1.379 . S
C1124 C1121 1.363 . S
C1124 N1122 1.356 . S
C1125 C1119 1.363 . S
C1125 C1120 1.379 . S
C1125 N1123 1.356 . S
N1126 C1118 1.356 . S
N1126 H1132 0.984 . S
N1126 H1133 0.984 . S
N1127 C1120 1.356 . S
N1127 H1130 0.984 . S
N1127 H1131 0.985 . S
H1128 N1123 0.984 . S
H1129 N1123 0.985 . S
H1130 N1127 0.984 . S
H1131 N1127 0.985 . S
H1132 N1126 0.984 . S
H1133 N1126 0.984 . S
H1134 N1122 0.984 . S
H1135 N1122 0.985 . S
C1136 C1137 1.363 . S
C1136 C1142 1.379 . S
C1136 N1144 1.356 . S
C1137 C1136 1.363 . S
C1137 C1143 1.363 . S
C1138 C1139 1.363 . S
C1138 C1143 1.379 . S
C1138 N1145 1.356 . S
C1139 C1138 1.363 . S
C1139 C1142 1.363 . S
N1140 C1142 1.356 . S
N1140 H1152 0.984 . S
N1140 H1153 0.985 . S
N1141 C1143 1.356 . S
N1141 H1146 0.984 . S
N1141 H1147 0.985 . S
C1142 C1136 1.379 . S
C1142 C1139 1.363 . S
C1142 N1140 1.356 . S
C1143 C1137 1.363 . S
C1143 C1138 1.379 . S
C1143 N1141 1.356 . S
N1144 C1136 1.356 . S
N1144 H1150 0.984 . S
N1144 H1151 0.984 . S
N1145 C1138 1.356 . S
N1145 H1148 0.984 . S
N1145 H1149 0.985 . S
H1146 N1141 0.984 . S
H1147 N1141 0.985 . S
H1148 N1145 0.984 . S
H1149 N1145 0.985 . S
H1150 N1144 0.984 . S
H1151 N1144 0.984 . S
H1152 N1140 0.984 . S
H1153 N1140 0.985 . S
C1154 C1155 1.363 . S
C1154 C1160 1.379 . S
C1154 N1162 1.356 . S
C1155 C1154 1.363 . S
C1155 C1161 1.363 . S
C1156 C1157 1.363 . S
C1156 C1161 1.379 . S
C1156 N1163 1.356 . S
C1157 C1156 1.363 . S
C1157 C1160 1.363 . S
N1158 C1160 1.356 . S
N1158 H1170 0.984 1_655 S
N1158 H1171 0.985 1_655 S
N1159 C1161 1.356 . S
N1159 H1164 0.984 . S
N1159 H1165 0.985 . S
C1160 C1154 1.379 . S
C1160 C1157 1.363 . S
C1160 N1158 1.356 . S
C1161 C1155 1.363 . S
C1161 C1156 1.379 . S
C1161 N1159 1.356 . S
N1162 C1154 1.356 . S
N1162 H1168 0.984 . S
N1162 H1169 0.984 . S
N1163 C1156 1.356 . S
N1163 H1166 0.984 . S
N1163 H1167 0.985 . S
H1164 N1159 0.984 . S
H1165 N1159 0.985 . S
H1166 N1163 0.984 . S
H1167 N1163 0.985 . S
H1168 N1162 0.984 . S
H1169 N1162 0.984 . S
H1170 N1158 0.984 1_455 S
H1171 N1158 0.985 1_455 S
C1172 C1173 1.363 . S
C1172 C1178 1.379 . S
C1172 N1180 1.356 . S
C1173 C1172 1.363 . S
C1173 C1179 1.363 . S
C1174 C1175 1.363 . S
C1174 C1179 1.379 . S
C1174 N1181 1.356 . S
C1175 C1174 1.363 . S
C1175 C1178 1.363 . S
N1176 C1178 1.356 . S
N1176 H1188 0.984 . S
N1176 H1189 0.985 . S
N1177 C1179 1.356 . S
N1177 H1182 0.984 . S
N1177 H1183 0.985 . S
C1178 C1172 1.379 . S
C1178 C1175 1.363 . S
C1178 N1176 1.356 . S
C1179 C1173 1.363 . S
C1179 C1174 1.379 . S
C1179 N1177 1.356 . S
N1180 C1172 1.356 . S
N1180 H1186 0.984 . S
N1180 H1187 0.984 . S
N1181 C1174 1.356 . S
N1181 H1184 0.984 . S
N1181 H1185 0.985 . S
H1182 N1177 0.984 . S
H1183 N1177 0.985 . S
H1184 N1181 0.984 . S
H1185 N1181 0.985 . S
H1186 N1180 0.984 . S
H1187 N1180 0.984 . S
H1188 N1176 0.984 . S
H1189 N1176 0.985 . S
C1190 C1191 1.363 . S
C1190 C1196 1.379 . S
C1190 N1198 1.356 . S
C1191 C1190 1.363 . S
C1191 C1197 1.363 . S
C1192 C1193 1.363 . S
C1192 C1197 1.379 . S
C1192 N1199 1.356 . S
C1193 C1192 1.363 . S
C1193 C1196 1.363 . S
N1194 C1196 1.356 . S
N1194 H1206 0.984 . S
N1194 H1207 0.985 . S
N1195 C1197 1.356 . S
N1195 H1200 0.984 . S
N1195 H1201 0.985 . S
C1196 C1190 1.379 . S
C1196 C1193 1.363 . S
C1196 N1194 1.356 . S
C1197 C1191 1.363 . S
C1197 C1192 1.379 . S
C1197 N1195 1.356 . S
N1198 C1190 1.356 . S
N1198 H1204 0.984 . S
N1198 H1205 0.984 . S
N1199 C1192 1.356 . S
N1199 H1202 0.984 . S
N1199 H1203 0.985 . S
H1200 N1195 0.984 . S
H1201 N1195 0.985 . S
H1202 N1199 0.984 . S
H1203 N1199 0.985 . S
H1204 N1198 0.984 . S
H1205 N1198 0.984 . S
H1206 N1194 0.984 . S
H1207 N1194 0.985 . S
C1208 C1209 1.363 . S
C1208 C1214 1.379 . S
C1208 N1216 1.356 . S
C1209 C1208 1.363 . S
C1209 C1215 1.363 . S
C1210 C1211 1.363 . S
C1210 C1215 1.379 . S
C1210 N1217 1.356 . S
C1211 C1210 1.363 . S
C1211 C1214 1.363 . S
N1212 C1214 1.356 . S
N1212 H1224 0.984 . S
N1212 H1225 0.985 . S
N1213 C1215 1.356 . S
N1213 H1218 0.984 . S
N1213 H1219 0.985 . S
C1214 C1208 1.379 . S
C1214 C1211 1.363 . S
C1214 N1212 1.356 . S
C1215 C1209 1.363 . S
C1215 C1210 1.379 . S
C1215 N1213 1.356 . S
N1216 C1208 1.356 . S
N1216 H1222 0.984 . S
N1216 H1223 0.984 . S
N1217 C1210 1.356 . S
N1217 H1220 0.984 . S
N1217 H1221 0.985 . S
H1218 N1213 0.984 . S
H1219 N1213 0.985 . S
H1220 N1217 0.984 . S
H1221 N1217 0.985 . S
H1222 N1216 0.984 . S
H1223 N1216 0.984 . S
H1224 N1212 0.984 . S
H1225 N1212 0.985 . S
C1226 C1227 1.363 . S
C1226 C1232 1.379 . S
C1226 N1234 1.356 . S
C1227 C1226 1.363 . S
C1227 C1233 1.363 . S
C1228 C1229 1.363 . S
C1228 C1233 1.379 . S
C1228 N1235 1.356 . S
C1229 C1228 1.363 . S
C1229 C1232 1.363 . S
N1230 C1232 1.356 . S
N1230 H1242 0.984 . S
N1230 H1243 0.985 . S
N1231 C1233 1.356 . S
N1231 H1236 0.984 . S
N1231 H1237 0.985 . S
C1232 C1226 1.379 . S
C1232 C1229 1.363 . S
C1232 N1230 1.356 . S
C1233 C1227 1.363 . S
C1233 C1228 1.379 . S
C1233 N1231 1.356 . S
N1234 C1226 1.356 . S
N1234 H1240 0.984 . S
N1234 H1241 0.984 . S
N1235 C1228 1.356 . S
N1235 H1238 0.984 . S
N1235 H1239 0.985 . S
H1236 N1231 0.984 . S
H1237 N1231 0.985 . S
H1238 N1235 0.984 . S
H1239 N1235 0.985 . S
H1240 N1234 0.984 . S
H1241 N1234 0.984 . S
H1242 N1230 0.984 . S
H1243 N1230 0.985 . S
C1244 C1245 1.363 . S
C1244 C1250 1.379 . S
C1244 N1252 1.356 . S
C1245 C1244 1.363 . S
C1245 C1251 1.363 . S
C1246 C1247 1.363 . S
C1246 C1251 1.379 . S
C1246 N1253 1.356 . S
C1247 C1246 1.363 . S
C1247 C1250 1.363 . S
N1248 C1250 1.356 . S
N1248 H1260 0.984 . S
N1248 H1261 0.985 1_545 S
N1249 C1251 1.356 . S
N1249 H1254 0.984 . S
N1249 H1255 0.985 . S
C1250 C1244 1.379 . S
C1250 C1247 1.363 . S
C1250 N1248 1.356 . S
C1251 C1245 1.363 . S
C1251 C1246 1.379 . S
C1251 N1249 1.356 . S
N1252 C1244 1.356 . S
N1252 H1258 0.984 . S
N1252 H1259 0.984 . S
N1253 C1246 1.356 . S
N1253 H1256 0.984 . S
N1253 H1257 0.985 . S
H1254 N1249 0.984 . S
H1255 N1249 0.985 . S
H1256 N1253 0.984 . S
H1257 N1253 0.985 . S
H1258 N1252 0.984 . S
H1259 N1252 0.984 . S
H1260 N1248 0.984 . S
H1261 N1248 0.985 1_565 S
C1262 C1263 1.363 . S
C1262 C1268 1.379 . S
C1262 N1270 1.356 . S
C1263 C1262 1.363 . S
C1263 C1269 1.363 . S
C1264 C1265 1.363 . S
C1264 C1269 1.379 . S
C1264 N1271 1.356 1_655 S
C1265 C1264 1.363 . S
C1265 C1268 1.363 . S
N1266 C1268 1.356 . S
N1266 H1278 0.984 . S
N1266 H1279 0.985 . S
N1267 C1269 1.356 . S
N1267 H1272 0.984 . S
N1267 H1273 0.985 . S
C1268 C1262 1.379 . S
C1268 C1265 1.363 . S
C1268 N1266 1.356 . S
C1269 C1263 1.363 . S
C1269 C1264 1.379 . S
C1269 N1267 1.356 . S
N1270 C1262 1.356 . S
N1270 H1276 0.984 . S
N1270 H1277 0.984 . S
N1271 C1264 1.356 1_455 S
N1271 H1274 0.984 . S
N1271 H1275 0.985 . S
H1272 N1267 0.984 . S
H1273 N1267 0.985 . S
H1274 N1271 0.984 . S
H1275 N1271 0.985 . S
H1276 N1270 0.984 . S
H1277 N1270 0.984 . S
H1278 N1266 0.984 . S
H1279 N1266 0.985 . S
C1280 C1281 1.363 . S
C1280 C1286 1.379 . S
C1280 N1288 1.356 . S
C1281 C1280 1.363 . S
C1281 C1287 1.363 . S
C1282 C1283 1.363 . S
C1282 C1287 1.379 . S
C1282 N1289 1.356 . S
C1283 C1282 1.363 . S
C1283 C1286 1.363 . S
N1284 C1286 1.356 . S
N1284 H1296 0.984 . S
N1284 H1297 0.985 . S
N1285 C1287 1.356 . S
N1285 H1290 0.984 . S
N1285 H1291 0.985 . S
C1286 C1280 1.379 . S
C1286 C1283 1.363 . S
C1286 N1284 1.356 . S
C1287 C1281 1.363 . S
C1287 C1282 1.379 . S
C1287 N1285 1.356 . S
N1288 C1280 1.356 . S
N1288 H1294 0.984 . S
N1288 H1295 0.984 . S
N1289 C1282 1.356 . S
N1289 H1292 0.984 . S
N1289 H1293 0.985 . S
H1290 N1285 0.984 . S
H1291 N1285 0.985 . S
H1292 N1289 0.984 . S
H1293 N1289 0.985 . S
H1294 N1288 0.984 . S
H1295 N1288 0.984 . S
H1296 N1284 0.984 . S
H1297 N1284 0.985 . S
C1298 C1299 1.363 . S
C1298 C1304 1.379 . S
C1298 N1306 1.356 . S
C1299 C1298 1.363 . S
C1299 C1305 1.363 . S
C1300 C1301 1.363 . S
C1300 C1305 1.379 . S
C1300 N1307 1.356 . S
C1301 C1300 1.363 . S
C1301 C1304 1.363 . S
N1302 C1304 1.356 . S
N1302 H1314 0.984 . S
N1302 H1315 0.985 . S
N1303 C1305 1.356 . S
N1303 H1308 0.984 . S
N1303 H1309 0.985 . S
C1304 C1298 1.379 . S
C1304 C1301 1.363 . S
C1304 N1302 1.356 . S
C1305 C1299 1.363 . S
C1305 C1300 1.379 . S
C1305 N1303 1.356 . S
N1306 C1298 1.356 . S
N1306 H1312 0.984 . S
N1306 H1313 0.984 . S
N1307 C1300 1.356 . S
N1307 H1310 0.984 . S
N1307 H1311 0.985 . S
H1308 N1303 0.984 . S
H1309 N1303 0.985 . S
H1310 N1307 0.984 . S
H1311 N1307 0.985 . S
H1312 N1306 0.984 . S
H1313 N1306 0.984 . S
H1314 N1302 0.984 . S
H1315 N1302 0.985 . S
C1316 C1317 1.363 . S
C1316 C1322 1.379 . S
C1316 N1324 1.356 . S
C1317 C1316 1.363 . S
C1317 C1323 1.363 . S
C1318 C1319 1.363 . S
C1318 C1323 1.379 . S
C1318 N1325 1.356 . S
C1319 C1318 1.363 . S
C1319 C1322 1.363 . S
N1320 C1322 1.356 . S
N1320 H1332 0.984 . S
N1320 H1333 0.985 . S
N1321 C1323 1.356 . S
N1321 H1326 0.984 . S
N1321 H1327 0.985 . S
C1322 C1316 1.379 . S
C1322 C1319 1.363 . S
C1322 N1320 1.356 . S
C1323 C1317 1.363 . S
C1323 C1318 1.379 . S
C1323 N1321 1.356 . S
N1324 C1316 1.356 . S
N1324 H1330 0.984 . S
N1324 H1331 0.984 . S
N1325 C1318 1.356 . S
N1325 H1328 0.984 . S
N1325 H1329 0.985 . S
H1326 N1321 0.984 . S
H1327 N1321 0.985 . S
H1328 N1325 0.984 . S
H1329 N1325 0.985 . S
H1330 N1324 0.984 . S
H1331 N1324 0.984 . S
H1332 N1320 0.984 . S
H1333 N1320 0.985 . S
C1334 C1335 1.363 . S
C1334 C1340 1.379 . S
C1334 N1342 1.356 . S
C1335 C1334 1.363 . S
C1335 C1341 1.363 . S
C1336 C1337 1.363 . S
C1336 C1341 1.379 . S
C1336 N1343 1.356 . S
C1337 C1336 1.363 . S
C1337 C1340 1.363 . S
N1338 C1340 1.356 . S
N1338 H1350 0.984 . S
N1338 H1351 0.985 . S
N1339 C1341 1.356 . S
N1339 H1344 0.984 . S
N1339 H1345 0.985 . S
C1340 C1334 1.379 . S
C1340 C1337 1.363 . S
C1340 N1338 1.356 . S
C1341 C1335 1.363 . S
C1341 C1336 1.379 . S
C1341 N1339 1.356 . S
N1342 C1334 1.356 . S
N1342 H1348 0.984 . S
N1342 H1349 0.984 . S
N1343 C1336 1.356 . S
N1343 H1346 0.984 . S
N1343 H1347 0.985 . S
H1344 N1339 0.984 . S
H1345 N1339 0.985 . S
H1346 N1343 0.984 . S
H1347 N1343 0.985 . S
H1348 N1342 0.984 . S
H1349 N1342 0.984 . S
H1350 N1338 0.984 . S
H1351 N1338 0.985 . S
C1352 C1353 1.363 . S
C1352 C1358 1.379 . S
C1352 N1360 1.356 . S
C1353 C1352 1.363 . S
C1353 C1359 1.363 . S
C1354 C1355 1.363 . S
C1354 C1359 1.379 . S
C1354 N1361 1.356 . S
C1355 C1354 1.363 . S
C1355 C1358 1.363 . S
N1356 C1358 1.356 . S
N1356 H1368 0.984 . S
N1356 H1369 0.985 . S
N1357 C1359 1.356 . S
N1357 H1362 0.984 . S
N1357 H1363 0.985 . S
C1358 C1352 1.379 . S
C1358 C1355 1.363 . S
C1358 N1356 1.356 . S
C1359 C1353 1.363 . S
C1359 C1354 1.379 . S
C1359 N1357 1.356 . S
N1360 C1352 1.356 . S
N1360 H1366 0.984 . S
N1360 H1367 0.984 . S
N1361 C1354 1.356 . S
N1361 H1364 0.984 . S
N1361 H1365 0.985 . S
H1362 N1357 0.984 . S
H1363 N1357 0.985 . S
H1364 N1361 0.984 . S
H1365 N1361 0.985 . S
H1366 N1360 0.984 . S
H1367 N1360 0.984 . S
H1368 N1356 0.984 . S
H1369 N1356 0.985 . S
C509 C331 2.767 . S
C507 C24 2.729 . S
C527 C321 3.171 . S
C525 C53 3.159 . S
C545 C322 1.179 . S
C543 C82 1.187 . S
C561 C137 0.613 . S
C563 C344 0.749 . S
C579 C184 3.050 . S
C581 C347 3.016 . S
C599 C330 1.187 . S
C597 C202 1.201 . S
C615 C266 0.712 . S
C617 C320 0.659 . S
C633 C293 2.738 . S
C635 C338 2.754 . S
C653 C351 2.875 . S
C651 C2 2.864 . S
C669 C57 1.063 . S
C671 C400 1.107 . S
C689 C378 0.912 . S
C687 C106 0.901 . S
C707 C392 0.784 . S
C705 C143 0.786 . S
C723 C162 0.895 . S
C725 C353 0.881 . S
C743 C406 1.034 1_556 S
C741 C226 1.034 . S
C759 C264 2.516 . S
C761 C362 2.436 . S
C777 C297 0.713 1_554 S
C779 C383 0.715 1_556 S
C795 C26 1.022 . S
C797 C409 0.940 . S
C813 C186 0.371 . S
C815 C393 0.618 1_556 S
C833 C352 2.465 . S
C831 C224 2.473 . S
C851 C384 1.638 . S
C849 C242 1.767 . S
C867 C303 3.295 . S
C869 C375 3.207 . S
C885 C104 2.138 . S
C887 C382 2.127 . S
C905 C369 2.947 . S
C903 C133 2.963 . S
C921 C63 1.525 . S
C923 C361 1.598 . S
C939 C304 2.738 . S
C941 C424 2.754 . S
C957 C173 3.050 . S
C959 C414 3.016 . S
C977 C415 1.187 . S
C975 C223 1.200 . S
C995 C437 0.659 . S
C993 C257 0.712 . S
C1011 C64 3.159 . S
C1013 C440 3.171 . S
C1031 C423 1.179 . S
C1029 C103 1.187 . S
C1047 C146 0.613 . S
C1049 C413 0.749 . S
C1065 C13 2.729 . S
C1067 C431 2.767 . S
C1083 C282 3.295 . S
C1085 C444 3.207 . S
C1103 C493 0.617 . S
C1101 C177 0.374 . S
C1119 C213 2.473 . S
C1121 C471 2.465 . S
C1137 C263 1.767 . S
C1139 C485 1.636 . S
C1157 C446 1.597 . S
C1155 C42 1.525 . S
C1173 C93 2.138 . S
C1175 C499 2.129 . S
C1193 C455 2.946 . S
C1191 C144 2.963 . S
C1211 C476 0.940 . S
C1209 C17 1.019 . S
C1229 C502 0.715 . S
C1227 C306 0.714 . S
C1245 C66 1.063 . S
C1247 C486 1.108 . S
C1263 C97 0.901 . S
C1265 C445 0.912 . S
C1283 C477 0.784 . S
C1281 C122 0.788 . S
C1299 C23 2.864 . S
C1301 C468 2.875 . S
C1317 C217 1.034 . S
C1319 C475 1.043 . S
C1337 C462 2.436 . S
C1335 C253 2.517 . S
C1355 C454 0.881 . S
C1353 C183 0.895 . S
