# Generated by pormake.
# Topology scu, (8,4)-cn, num edge types: 1
# Building blocks:
#     Node 0, Type 0, BuildingBlock: GIZVER_clean_sbu_0, # of connection points: 8
#     Node 1, Type 1, BuildingBlock: NAWXER_clean_sbu_0, # of connection points: 4
#     Node 2, Type 1, BuildingBlock: NAWXER_clean_sbu_0, # of connection points: 4
#     Edge 3, Type (0, 1), BuildingBlock: FUNLAD_clean_linker_1, # of connection points: 2
#     Edge 4, Type (0, 1), BuildingBlock: FUNLAD_clean_linker_1, # of connection points: 2
#     Edge 5, Type (0, 1), BuildingBlock: FUNLAD_clean_linker_1, # of connection points: 2
#     Edge 6, Type (0, 1), BuildingBlock: FUNLAD_clean_linker_1, # of connection points: 2
#     Edge 7, Type (0, 1), BuildingBlock: FUNLAD_clean_linker_1, # of connection points: 2
#     Edge 8, Type (0, 1), BuildingBlock: FUNLAD_clean_linker_1, # of connection points: 2
#     Edge 9, Type (0, 1), BuildingBlock: FUNLAD_clean_linker_1, # of connection points: 2
#     Edge 10, Type (0, 1), BuildingBlock: FUNLAD_clean_linker_1, # of connection points: 2
# Relax obj value: 0.017
# Max RMSD: 0.080
# Mean RMSD: 0.059
data_MOF--net-scu--node1-GIZVER_clean_sbu_0--node2-NAWXER_clean_sbu_0--edge1-FUNLAD_clean_linker_1
_symmetry_space_group_name_H-M    P1
_symmetry_Int_Tables_number       1
_symmetry_cell_setting            triclinic
loop_
_symmetry_equiv_pos_as_xyz
'x, y, z'
_cell_length_a     24.104601
_cell_length_b     24.627512
_cell_length_c     22.642754
_cell_angle_alpha  99.126188
_cell_angle_beta   82.59813
_cell_angle_gamma 113.24445
loop_
_atom_site_label
_atom_site_type_symbol
_atom_site_fract_x
_atom_site_fract_y
_atom_site_fract_z
_atom_type_partial_charge
Co0 Co 0.03061 0.95911 0.15417 0.0
Co1 Co 0.12049 0.04501 0.10433 0.0
Co2 Co 1.00966 1.0117 0.02978 0.0
O3 O 0.05436 0.97916 0.07331 0.0
H4 H 0.0682 0.95102 0.04767 0.0
O5 O 0.9675 0.04766 0.98708 0.0
Co6 Co 1.00162 0.0753 0.91052 0.0
Co7 Co 0.90591 0.99125 0.94668 0.0
H8 H 0.95301 0.07502 1.01331 0.0
O9 O 0.18738 0.03694 0.12666 0.0
O10 O 0.10117 0.02975 0.1834 0.0
O11 O 0.12375 0.12486 0.10439 0.0
O12 O 0.02689 0.08741 0.08678 0.0
O13 O 0.08536 0.04673 0.97794 0.0
O14 O 0.03209 0.10532 0.84235 0.0
O15 O 0.9759 0.13702 0.91618 0.0
O16 O 0.03756 1.01799 0.89454 0.0
O17 O 0.98966 0.93406 0.97336 0.0
O18 O 0.89966 0.91116 0.93881 0.0
O19 O 0.92526 1.0198 0.87287 0.0
O20 O 0.84134 1.00713 0.9372 0.0
C21 C 0.04792 0.90818 0.20759 0.0
C22 C 0.93195 0.9848 0.13805 0.0
C23 C 0.0734 0.13016 0.10696 0.0
C24 C 0.15671 0.03281 0.17844 0.0
C25 C 1.00781 0.14335 0.86448 0.0
C26 C 0.08541 0.0315 0.92144 0.0
C27 C 0.94379 0.8976 0.94549 0.0
C28 C 0.87104 0.02094 0.88604 0.0
O29 O 0.01312 0.93712 0.22751 0.0
O30 O 0.07275 0.91145 0.15273 0.0
O31 O 0.9341 0.97559 0.08099 0.0
O32 O 0.97998 1.00328 0.16595 0.0
C33 C 0.90887 0.55225 0.60117 0.0
C34 C 0.93456 0.40736 0.43629 0.0
O35 O 0.96395 0.55718 0.58905 0.0
Zn36 Zn 0.01517 0.51632 0.52772 0.0
O37 O 0.86749 0.51292 0.57055 0.0
Zn38 Zn 0.91904 0.47865 0.51851 0.0
O39 O 0.94857 0.4404 0.58004 0.0
O40 O 0.04785 0.48437 0.5831 0.0
O41 O 0.88505 0.41174 0.4584 0.0
O42 O 0.98455 0.44294 0.45818 0.0
O43 O 0.06639 0.58258 0.48176 0.0
O44 O 0.96973 0.54742 0.46401 0.0
C45 C 0.99751 0.44597 0.60117 0.0
C46 C 0.02423 0.58358 0.45385 0.0
C47 C 0.62127 0.10625 0.61223 0.0
C48 C 0.47087 0.08991 0.47924 0.0
O49 O 0.58896 0.05222 0.59347 0.0
Zn50 Zn 0.51605 1.00499 0.53679 0.0
O51 O 0.61048 0.14864 0.59757 0.0
Zn52 Zn 0.54556 0.0997 0.54723 0.0
O53 O 0.47186 0.05504 0.60899 0.0
O54 O 0.4513 0.95854 0.58976 0.0
O55 O 0.50964 0.13748 0.5036 0.0
O56 O 0.46944 0.03924 0.48805 0.0
O57 O 0.55365 0.96501 0.4735 0.0
O58 O 0.59373 0.06305 0.47716 0.0
C59 C 0.44002 1.00149 0.6201 0.0
C60 C 0.59285 1.01189 0.45382 0.0
H61 H 0.1057 0.21718 0.16327 0.0
C62 C 0.06591 0.18219 0.14437 0.0
H63 H 0.97043 0.14708 0.14557 0.0
H64 H 0.93337 0.2597 0.41029 0.0
H65 H 0.89426 0.15475 0.42104 0.0
H66 H 0.90388 0.08188 0.33667 0.0
H67 H 0.95294 0.11355 0.24053 0.0
C68 C 1.01073 0.18341 0.16185 0.0
C69 C 1.00189 0.22775 0.21134 0.0
C70 C 0.9717 0.2083 0.26685 0.0
C71 C 0.96543 0.25035 0.31553 0.0
C72 C 0.93779 0.22982 0.37121 0.0
C73 C 0.91547 0.16959 0.37822 0.0
C74 C 0.9209 0.12852 0.33061 0.0
C75 C 0.94897 0.14737 0.27564 0.0
H76 H 0.89182 0.33138 0.36816 0.0
C77 C 0.93476 0.36169 0.38531 0.0
H78 H 0.02986 0.38833 0.37576 0.0
H79 H 0.05533 0.27908 0.10911 0.0
H80 H 0.09285 0.38412 0.09763 0.0
H81 H 0.08308 0.45717 0.18222 0.0
H82 H 0.03529 0.42559 0.27867 0.0
C83 C 0.98664 0.35686 0.36017 0.0
C84 C 0.98836 0.31175 0.30831 0.0
C85 C 0.0171 0.33094 0.25234 0.0
C86 C 0.02348 0.28891 0.20371 0.0
C87 C 0.05071 0.30924 0.14792 0.0
C88 C 0.0721 0.36938 0.14061 0.0
C89 C 0.06655 0.4105 0.18822 0.0
C90 C 0.03924 0.39178 0.24344 0.0
H91 H 0.83315 0.96109 0.14639 0.0
C92 C 0.87317 0.97661 0.17154 0.0
H93 H 0.90742 1.00097 0.25701 0.0
H94 H 0.63299 1.01703 0.29171 0.0
H95 H 0.67128 0.08878 0.21944 0.0
H96 H 0.77482 0.11461 0.17124 0.0
H97 H 0.83937 0.06702 0.19289 0.0
C98 C 0.86792 0.98767 0.23158 0.0
C99 C 0.80838 0.97832 0.26567 0.0
C100 C 0.77305 1.00992 0.25542 0.0
C101 C 0.71555 0.99907 0.28714 0.0
C102 C 0.67865 0.0267 0.27182 0.0
C103 C 0.69985 0.06755 0.23004 0.0
C104 C 0.75796 0.0818 0.20264 0.0
C105 C 0.79435 0.05355 0.21503 0.0
H106 H 0.67771 0.05208 0.40013 0.0
C107 C 0.64083 1.0099 0.40735 0.0
H108 H 0.60663 0.917 0.38283 0.0
H109 H 0.86346 0.9087 0.29491 0.0
H110 H 0.82891 0.84389 0.37335 0.0
H111 H 0.73407 0.83297 0.43544 0.0
H112 H 0.67262 0.88589 0.41869 0.0
C113 C 0.64232 0.9597 0.37529 0.0
C114 C 0.69628 0.96168 0.33368 0.0
C115 C 0.73191 0.93066 0.34445 0.0
C116 C 0.78755 0.93832 0.30982 0.0
C117 C 0.82155 0.90574 0.32069 0.0
C118 C 0.80217 0.86816 0.36551 0.0
C119 C 0.74873 0.86194 0.40039 0.0
C120 C 0.71382 0.89264 0.3902 0.0
H121 H 0.05697 0.89079 0.29711 0.0
C122 C 0.06076 0.87527 0.24963 0.0
H123 H 0.07269 0.80783 0.18584 0.0
H124 H 0.18304 0.69414 0.34597 0.0
H125 H 0.26184 0.72433 0.26568 0.0
H126 H 0.25598 0.78487 0.19168 0.0
H127 H 0.17163 0.81617 0.19743 0.0
C128 C 0.06923 0.82404 0.23313 0.0
C129 C 0.07306 0.78786 0.27888 0.0
C130 C 0.12397 0.77187 0.27632 0.0
C131 C 0.12786 0.73749 0.31966 0.0
C132 C 0.17812 0.72056 0.31463 0.0
C133 C 0.2237 0.73766 0.26883 0.0
C134 C 0.22044 0.77188 0.2272 0.0
C135 C 0.17153 0.78924 0.23085 0.0
H136 H 0.99864 0.61394 0.37986 0.0
C137 C 0.0348 0.62507 0.40935 0.0
H138 H 0.11834 0.69059 0.4363 0.0
H139 H 0.96161 0.79709 0.29097 0.0
H140 H 0.88814 0.77507 0.37621 0.0
H141 H 0.90508 0.73307 0.46099 0.0
H142 H 0.99421 0.70988 0.45907 0.0
C143 C 0.08144 0.67786 0.40749 0.0
C144 C 0.08167 0.72024 0.36648 0.0
C145 C 0.03271 0.73942 0.37119 0.0
C146 C 0.02628 0.7696 0.32544 0.0
C147 C 0.97201 0.77958 0.32706 0.0
C148 C 0.92883 0.76627 0.37541 0.0
C149 C 0.93811 0.74219 0.42288 0.0
C150 C 0.98922 0.72862 0.42093 0.0
H151 H 0.15638 1.02009 0.27301 0.0
C152 C 0.18492 0.03222 0.23211 0.0
H153 H 0.27346 0.05874 0.19037 0.0
H154 H 0.32831 0.11667 0.47861 0.0
H155 H 0.27884 0.18666 0.48731 0.0
H156 H 0.22934 0.19434 0.40189 0.0
H157 H 0.22756 0.13104 0.30801 0.0
C158 C 0.24492 0.04739 0.23143 0.0
C159 C 0.27417 0.04379 0.28369 0.0
C160 C 0.27702 0.08326 0.33724 0.0
C161 C 0.30853 0.08127 0.38531 0.0
C162 C 0.30756 0.1184 0.43971 0.0
C163 C 0.27893 0.15845 0.44546 0.0
C164 C 0.25084 0.16258 0.39746 0.0
C165 C 0.24985 0.12565 0.34386 0.0
H166 H 0.43821 0.13356 0.42114 0.0
C167 C 0.42819 0.09235 0.43973 0.0
H168 H 0.36857 1.00297 0.44409 0.0
H169 H 0.27231 0.9584 0.18937 0.0
H170 H 0.32352 0.89005 0.17997 0.0
H171 H 0.38254 0.88995 0.26118 0.0
H172 H 0.3915 0.9589 0.35179 0.0
C173 C 0.37847 0.04406 0.42529 0.0
C174 C 0.33992 0.04233 0.37829 0.0
C175 C 0.33553 1.00171 0.32546 0.0
C176 C 0.30225 1.00221 0.2783 0.0
C177 C 0.298 0.96079 0.2262 0.0
C178 C 0.32686 0.92096 0.22032 0.0
C179 C 0.36011 0.92097 0.26601 0.0
C180 C 0.36471 0.96081 0.31796 0.0
H181 H 0.98836 0.83469 0.90939 0.0
C182 C 0.94654 0.84208 0.91147 0.0
H183 H 0.86062 0.81354 0.87754 0.0
H184 H 0.92993 0.70575 0.62346 0.0
H185 H 0.92182 0.79508 0.60085 0.0
H186 H 0.90851 0.86952 0.68203 0.0
H187 H 0.90357 0.85515 0.78622 0.0
C188 C 0.90171 0.80516 0.87708 0.0
C189 C 0.91047 0.7599 0.82893 0.0
C190 C 0.9123 0.76856 0.76805 0.0
C191 C 0.91959 0.7255 0.72119 0.0
C192 C 0.92329 0.73633 0.66088 0.0
C193 C 0.919 0.78765 0.6472 0.0
C194 C 0.91152 0.82955 0.69289 0.0
C195 C 0.90845 0.82052 0.75261 0.0
H196 H 0.84862 0.59228 0.65661 0.0
C197 C 0.89429 0.59281 0.65034 0.0
H198 H 0.98196 0.6299 0.68209 0.0
H199 H 0.90471 0.72769 0.94055 0.0
H200 H 0.91398 0.63867 0.96311 0.0
H201 H 0.92841 0.56483 0.88184 0.0
H202 H 0.93315 0.5793 0.77744 0.0
C203 C 0.93681 0.63063 0.68665 0.0
C204 C 0.92454 0.67358 0.73528 0.0
C205 C 0.92271 0.66492 0.79607 0.0
C206 C 0.91518 0.70789 0.84299 0.0
C207 C 0.91166 0.69715 0.90321 0.0
C208 C 0.91662 0.64609 0.91679 0.0
C209 C 0.92471 0.60449 0.87102 0.0
C210 C 0.92755 0.61344 0.8113 0.0
H211 H 0.18337 0.05069 0.91008 0.0
C212 C 0.1415 0.03027 0.88757 0.0
H213 H 0.10073 0.98553 0.80734 0.0
H214 H 0.33122 0.08182 0.63067 0.0
H215 H 0.26501 0.12354 0.60059 0.0
H216 H 0.16912 0.11506 0.65964 0.0
H217 H 0.13846 0.06402 0.74851 0.0
C218 C 0.14232 1.00538 0.83031 0.0
C219 C 0.20018 1.00957 0.79483 0.0
C220 C 0.21795 0.04058 0.7435 0.0
C221 C 0.27406 0.04696 0.71045 0.0
C222 C 0.28984 0.07682 0.65841 0.0
C223 C 0.25213 0.10085 0.64042 0.0
C224 C 0.1981 0.09595 0.67357 0.0
C225 C 0.18099 0.06632 0.72451 0.0
H226 H 0.35573 0.94356 0.66625 0.0
C227 C 0.38672 0.98945 0.66377 0.0
H228 H 0.40318 0.07989 0.69218 0.0
H229 H 0.17519 0.93817 0.88413 0.0
H230 H 0.24279 0.89902 0.91618 0.0
H231 H 0.34444 0.91872 0.8651 0.0
H232 H 0.37845 0.97639 0.78073 0.0
C233 C 0.37313 0.03393 0.69608 0.0
C234 C 0.31305 0.02347 0.72946 0.0
C235 C 0.29511 0.99201 0.78048 0.0
C236 C 0.23782 0.98354 0.81212 0.0
C237 C 0.21936 0.94854 0.86039 0.0
C238 C 0.25754 0.92536 0.87895 0.0
C239 C 0.31466 0.93623 0.85003 0.0
C240 C 0.33348 0.96915 0.80138 0.0
H241 H 0.04882 0.19472 0.78875 0.0
C242 C 0.01748 0.19181 0.82836 0.0
H243 H 0.95861 0.22925 0.87874 0.0
H244 H 0.07219 0.47485 0.76883 0.0
H245 H 0.08913 0.50605 0.87436 0.0
H246 H 0.06658 0.43206 0.94488 0.0
H247 H 0.0263 0.32638 0.91061 0.0
C248 C 0.9888 0.22974 0.83867 0.0
C249 C 0.99997 0.27464 0.79607 0.0
C250 C 0.02415 0.33642 0.81662 0.0
C251 C 0.03817 0.37929 0.77564 0.0
C252 C 0.06133 0.44051 0.79779 0.0
C253 C 0.07127 0.45904 0.85826 0.0
C254 C 0.05852 0.41736 0.89798 0.0
C255 C 0.03532 0.35677 0.87769 0.0
H256 H 0.94732 0.37403 0.65661 0.0
C257 C 0.9925 0.40604 0.64563 0.0
H258 H 0.08467 0.43797 0.66345 0.0
H259 H 0.94561 0.16085 0.7419 0.0
H260 H 0.93217 0.12962 0.63611 0.0
H261 H 0.96651 0.20352 0.5639 0.0
H262 H 0.01288 0.30883 0.59756 0.0
C263 C 0.03921 0.40541 0.67172 0.0
C264 C 0.02851 0.36057 0.71395 0.0
C265 C 1.0053 0.29883 0.69314 0.0
C266 C 0.98901 0.25603 0.73436 0.0
C267 C 0.96135 0.19504 0.71253 0.0
C268 C 0.953 0.17653 0.65182 0.0
C269 C 0.97212 0.21811 0.61122 0.0
C270 C 0.99817 0.27854 0.63132 0.0
H271 H 0.79335 0.0304 0.85562 0.0
C272 C 0.84016 0.03573 0.84298 0.0
H273 H 0.91275 0.06199 0.77683 0.0
H274 H 0.72776 1.01927 0.5802 0.0
H275 H 0.78283 0.95725 0.53494 0.0
H276 H 0.86003 0.94715 0.58932 0.0
H277 H 0.88327 0.99974 0.68882 0.0
C278 C 0.86655 0.05743 0.79134 0.0
C279 C 0.83086 0.07338 0.75286 0.0
C280 C 0.81809 0.04241 0.69495 0.0
C281 C 0.77263 0.04719 0.66432 0.0
C282 C 0.76087 1.0161 0.60611 0.0
C283 C 0.79235 0.9806 0.5795 0.0
C284 C 0.83586 0.97498 0.61008 0.0
C285 C 0.84866 1.00528 0.66723 0.0
H286 H 0.70722 0.16405 0.65272 0.0
C287 C 0.67397 0.11875 0.64634 0.0
H288 H 0.6501 0.02889 0.65781 0.0
H289 H 0.86008 0.15399 0.85284 0.0
H290 H 0.80825 0.2192 0.8974 0.0
H291 H 0.72089 0.21881 0.85098 0.0
H292 H 0.6866 0.15539 0.75911 0.0
C293 C 0.68279 0.07429 0.6661 0.0
C294 C 0.73917 0.08177 0.6924 0.0
C295 C 0.75614 0.11731 0.74791 0.0
C296 C 0.80382 0.11474 0.77685 0.0
C297 C 0.82257 0.15281 0.83045 0.0
C298 C 0.79334 0.19046 0.85632 0.0
C299 C 0.74436 0.19041 0.83004 0.0
C300 C 0.72545 0.15402 0.77677 0.0
loop_
_geom_bond_atom_site_label_1
_geom_bond_atom_site_label_2
_geom_bond_distance
_geom_bond_site_symmetry_2
_ccdc_geom_bond_type
Co0 O3 2.042 . S
Co0 O10 2.264 1_565 S
Co0 O29 2.286 1_455 S
Co0 O30 2.069 . S
Co0 O32 2.015 1_455 S
Co1 O3 2.122 1_545 S
Co1 O9 2.073 . S
Co1 O10 2.327 . S
Co1 O11 1.976 . S
Co2 O3 2.090 1_545 S
Co2 O5 2.084 1_454 S
Co2 O12 2.118 . S
Co2 O13 2.142 1_554 S
Co2 O17 2.105 1_444 S
Co2 O31 2.145 1_445 S
O3 Co0 2.042 . S
O3 Co1 2.122 1_565 S
O3 Co2 2.090 1_565 S
O3 H4 0.980 . S
H4 O3 0.980 . S
O5 Co2 2.084 1_656 S
O5 Co6 2.046 . S
O5 Co7 2.122 1_545 S
O5 H8 0.980 . S
Co6 O5 2.046 . S
Co6 O14 2.287 1_655 S
Co6 O15 2.082 . S
Co6 O16 1.999 1_655 S
Co6 O19 2.276 1_545 S
Co7 O5 2.122 1_565 S
Co7 O18 1.976 . S
Co7 O19 2.327 . S
Co7 O20 2.073 . S
H8 O5 0.980 . S
O9 Co1 2.073 . S
O9 C24 1.245 1_545 S
O10 Co0 2.264 1_545 S
O10 Co1 2.327 . S
O10 C24 1.257 1_545 S
O11 Co1 1.976 . S
O11 C23 1.251 . S
O12 Co2 2.118 . S
O12 C23 1.274 . S
O13 Co2 2.142 1_556 S
O13 C26 1.246 . S
O14 Co6 2.287 1_455 S
O14 C25 1.259 1_455 S
O15 Co6 2.082 . S
O15 C25 1.289 . S
O16 Co6 1.999 1_455 S
O16 C26 1.257 . S
O17 Co2 2.105 1_666 S
O17 C27 1.274 . S
O18 Co7 1.976 . S
O18 C27 1.251 . S
O19 Co6 2.276 1_565 S
O19 Co7 2.327 . S
O19 C28 1.257 1_565 S
O20 Co7 2.073 . S
O20 C28 1.245 1_565 S
C21 O29 1.259 1_455 S
C21 O30 1.289 . S
C22 O31 1.246 . S
C22 O32 1.257 . S
C23 O11 1.251 . S
C23 O12 1.274 . S
C24 O9 1.245 1_565 S
C24 O10 1.257 1_565 S
C25 O14 1.259 1_655 S
C25 O15 1.289 . S
C26 O13 1.246 . S
C26 O16 1.257 . S
C27 O17 1.274 . S
C27 O18 1.251 . S
C28 O19 1.257 1_545 S
C28 O20 1.245 1_545 S
O29 Co0 2.286 1_655 S
O29 C21 1.259 1_655 S
O30 Co0 2.069 . S
O30 C21 1.289 . S
O31 Co2 2.145 1_665 S
O31 C22 1.246 . S
O32 Co0 2.015 1_655 S
O32 C22 1.257 . S
C33 O35 1.254 . S
C33 O37 1.253 1_455 S
C34 O41 1.245 . S
C34 O42 1.260 1_655 S
O35 C33 1.254 . S
O35 Zn36 2.028 . S
Zn36 O35 2.028 . S
Zn36 O40 2.035 . S
Zn36 O42 2.035 . S
Zn36 O43 2.028 . S
O37 C33 1.253 1_655 S
O37 Zn38 2.035 . S
Zn38 O37 2.035 . S
Zn38 O39 2.028 . S
Zn38 O41 2.028 . S
Zn38 O44 2.035 . S
O39 Zn38 2.028 . S
O39 C45 1.245 . S
O40 Zn36 2.035 . S
O40 C45 1.259 1_455 S
O41 C34 1.245 . S
O41 Zn38 2.028 . S
O42 C34 1.260 1_455 S
O42 Zn36 2.035 . S
O43 Zn36 2.028 . S
O43 C46 1.254 . S
O44 Zn38 2.035 . S
O44 C46 1.253 1_655 S
C45 O39 1.245 . S
C45 O40 1.259 1_655 S
C46 O43 1.254 . S
C46 O44 1.253 1_455 S
C47 O49 1.246 1_545 S
C47 O51 1.259 . S
C48 O55 1.253 . S
C48 O56 1.247 1_545 S
O49 C47 1.246 1_565 S
O49 Zn50 2.028 . S
Zn50 O49 2.028 . S
Zn50 O54 2.035 . S
Zn50 O56 2.035 . S
Zn50 O57 2.028 . S
O51 C47 1.259 . S
O51 Zn52 2.035 . S
Zn52 O51 2.035 . S
Zn52 O53 2.028 . S
Zn52 O55 2.028 . S
Zn52 O58 2.035 . S
O53 Zn52 2.028 . S
O53 C59 1.255 . S
O54 Zn50 2.035 . S
O54 C59 1.248 1_565 S
O55 C48 1.253 . S
O55 Zn52 2.028 . S
O56 C48 1.247 1_565 S
O56 Zn50 2.035 . S
O57 Zn50 2.028 . S
O57 C60 1.246 1_565 S
O58 Zn52 2.035 . S
O58 C60 1.259 . S
C59 O53 1.255 . S
C59 O54 1.248 1_545 S
C60 O57 1.246 1_545 S
C60 O58 1.259 . S
H61 C62 0.951 . S
C62 H61 0.951 . S
C62 C68 1.265 1_455 S
H63 C68 0.950 . S
H64 C72 0.949 . S
H65 C73 0.950 . S
H66 C74 0.951 . S
H67 C75 0.951 . S
C68 C62 1.265 1_655 S
C68 H63 0.950 . S
C68 C69 1.478 . S
C69 C68 1.478 . S
C69 C70 1.397 . S
C69 C86 1.394 1_655 S
C70 C69 1.397 . S
C70 C71 1.438 . S
C70 C75 1.429 . S
C71 C70 1.438 . S
C71 C72 1.428 . S
C71 C84 1.394 1_655 S
C72 H64 0.949 . S
C72 C71 1.428 . S
C72 C73 1.345 . S
C73 H65 0.950 . S
C73 C72 1.345 . S
C73 C74 1.424 . S
C74 H66 0.951 . S
C74 C73 1.424 . S
C74 C75 1.347 . S
C75 H67 0.951 . S
C75 C70 1.429 . S
C75 C74 1.347 . S
H76 C77 0.951 . S
C77 H76 0.951 . S
C77 C83 1.265 1_655 S
H78 C83 0.950 . S
H79 C87 0.949 . S
H80 C88 0.950 . S
H81 C89 0.951 . S
H82 C90 0.951 . S
C83 C77 1.265 1_455 S
C83 H78 0.950 . S
C83 C84 1.478 . S
C84 C71 1.394 1_455 S
C84 C83 1.478 . S
C84 C85 1.397 . S
C85 C84 1.397 . S
C85 C86 1.438 . S
C85 C90 1.429 . S
C86 C69 1.394 1_455 S
C86 C85 1.438 . S
C86 C87 1.428 . S
C87 H79 0.949 . S
C87 C86 1.428 . S
C87 C88 1.345 . S
C88 H80 0.950 . S
C88 C87 1.345 . S
C88 C89 1.424 . S
C89 H81 0.951 . S
C89 C88 1.424 . S
C89 C90 1.347 . S
C90 H82 0.951 . S
C90 C85 1.429 . S
C90 C89 1.347 . S
H91 C92 0.951 . S
C92 H91 0.951 . S
C92 C98 1.265 1_565 S
H93 C98 0.950 . S
H94 C102 0.949 . S
H95 C103 0.950 . S
H96 C104 0.951 . S
H97 C105 0.951 . S
C98 C92 1.265 1_545 S
C98 H93 0.950 . S
C98 C99 1.478 . S
C99 C98 1.478 . S
C99 C100 1.397 . S
C99 C116 1.394 1_545 S
C100 C99 1.397 . S
C100 C101 1.438 . S
C100 C105 1.429 . S
C101 C100 1.438 . S
C101 C102 1.428 . S
C101 C114 1.394 1_545 S
C102 H94 0.949 . S
C102 C101 1.428 . S
C102 C103 1.345 . S
C103 H95 0.950 . S
C103 C102 1.345 . S
C103 C104 1.424 . S
C104 H96 0.951 . S
C104 C103 1.424 . S
C104 C105 1.347 . S
C105 H97 0.951 . S
C105 C100 1.429 . S
C105 C104 1.347 . S
H106 C107 0.951 . S
C107 H106 0.951 . S
C107 C113 1.265 1_545 S
H108 C113 0.950 . S
H109 C117 0.949 . S
H110 C118 0.950 . S
H111 C119 0.951 . S
H112 C120 0.951 . S
C113 C107 1.265 1_565 S
C113 H108 0.950 . S
C113 C114 1.478 . S
C114 C101 1.394 1_565 S
C114 C113 1.478 . S
C114 C115 1.397 . S
C115 C114 1.397 . S
C115 C116 1.438 . S
C115 C120 1.429 . S
C116 C99 1.394 1_565 S
C116 C115 1.438 . S
C116 C117 1.428 . S
C117 H109 0.949 . S
C117 C116 1.428 . S
C117 C118 1.345 . S
C118 H110 0.950 . S
C118 C117 1.345 . S
C118 C119 1.424 . S
C119 H111 0.951 . S
C119 C118 1.424 . S
C119 C120 1.347 . S
C120 H112 0.951 . S
C120 C115 1.429 . S
C120 C119 1.347 . S
H121 C122 0.951 . S
C122 H121 0.951 . S
C122 C128 1.263 . S
H123 C128 0.947 1_655 S
H124 C132 0.949 . S
H125 C133 0.950 . S
H126 C134 0.951 . S
H127 C135 0.951 . S
C128 C122 1.263 . S
C128 H123 0.947 1_455 S
C128 C129 1.483 . S
C129 C128 1.483 . S
C129 C130 1.397 . S
C129 C146 1.394 1_455 S
C130 C129 1.397 . S
C130 C131 1.438 . S
C130 C135 1.429 . S
C131 C130 1.438 . S
C131 C132 1.428 . S
C131 C144 1.394 . S
C132 H124 0.949 . S
C132 C131 1.428 . S
C132 C133 1.345 . S
C133 H125 0.950 . S
C133 C132 1.345 . S
C133 C134 1.424 . S
C134 H126 0.951 . S
C134 C133 1.424 . S
C134 C135 1.347 . S
C135 H127 0.951 . S
C135 C130 1.429 . S
C135 C134 1.347 . S
H136 C137 0.951 . S
C137 H136 0.951 . S
C137 C143 1.265 1_655 S
H138 C143 0.950 . S
H139 C147 0.949 . S
H140 C148 0.950 . S
H141 C149 0.951 . S
H142 C150 0.951 . S
C143 C137 1.265 1_455 S
C143 H138 0.950 . S
C143 C144 1.478 . S
C144 C131 1.394 . S
C144 C143 1.478 . S
C144 C145 1.397 1_455 S
C145 C144 1.397 1_655 S
C145 C146 1.438 . S
C145 C150 1.429 . S
C146 C129 1.394 1_655 S
C146 C145 1.438 . S
C146 C147 1.428 . S
C147 H139 0.949 . S
C147 C146 1.428 . S
C147 C148 1.345 . S
C148 H140 0.950 . S
C148 C147 1.345 . S
C148 C149 1.424 . S
C149 H141 0.951 . S
C149 C148 1.424 . S
C149 C150 1.347 . S
C150 H142 0.951 . S
C150 C145 1.429 . S
C150 C149 1.347 . S
H151 C152 0.951 . S
C152 H151 0.951 . S
C152 C158 1.265 . S
H153 C158 0.950 . S
H154 C162 0.949 . S
H155 C163 0.950 . S
H156 C164 0.951 . S
H157 C165 0.951 . S
C158 C152 1.265 . S
C158 H153 0.950 . S
C158 C159 1.478 . S
C159 C158 1.478 . S
C159 C160 1.397 1_565 S
C159 C176 1.394 . S
C160 C159 1.397 1_545 S
C160 C161 1.438 . S
C160 C165 1.429 . S
C161 C160 1.438 . S
C161 C162 1.428 . S
C161 C174 1.394 1_545 S
C162 H154 0.949 . S
C162 C161 1.428 . S
C162 C163 1.345 . S
C163 H155 0.950 . S
C163 C162 1.345 . S
C163 C164 1.424 . S
C164 H156 0.951 . S
C164 C163 1.424 . S
C164 C165 1.347 . S
C165 H157 0.951 . S
C165 C160 1.429 . S
C165 C164 1.347 . S
H166 C167 0.951 . S
C167 H166 0.951 . S
C167 C173 1.265 . S
H168 C173 0.950 . S
H169 C177 0.949 . S
H170 C178 0.950 . S
H171 C179 0.951 . S
H172 C180 0.951 . S
C173 C167 1.265 . S
C173 H168 0.950 . S
C173 C174 1.478 . S
C174 C161 1.394 1_565 S
C174 C173 1.478 . S
C174 C175 1.397 . S
C175 C174 1.397 . S
C175 C176 1.438 . S
C175 C180 1.429 . S
C176 C159 1.394 . S
C176 C175 1.438 . S
C176 C177 1.428 . S
C177 H169 0.949 . S
C177 C176 1.428 . S
C177 C178 1.345 . S
C178 H170 0.950 . S
C178 C177 1.345 . S
C178 C179 1.424 . S
C179 H171 0.951 . S
C179 C178 1.424 . S
C179 C180 1.347 . S
C180 H172 0.951 . S
C180 C175 1.429 . S
C180 C179 1.347 . S
H181 C182 0.951 . S
C182 H181 0.951 . S
C182 C188 1.265 1_455 S
H183 C188 0.950 . S
H184 C192 0.949 . S
H185 C193 0.950 . S
H186 C194 0.951 . S
H187 C195 0.951 . S
C188 C182 1.265 1_655 S
C188 H183 0.950 . S
C188 C189 1.478 . S
C189 C188 1.478 . S
C189 C190 1.397 . S
C189 C206 1.394 1_655 S
C190 C189 1.397 . S
C190 C191 1.438 . S
C190 C195 1.429 . S
C191 C190 1.438 . S
C191 C192 1.428 . S
C191 C204 1.394 1_655 S
C192 H184 0.949 . S
C192 C191 1.428 . S
C192 C193 1.345 . S
C193 H185 0.950 . S
C193 C192 1.345 . S
C193 C194 1.424 . S
C194 H186 0.951 . S
C194 C193 1.424 . S
C194 C195 1.347 . S
C195 H187 0.951 . S
C195 C190 1.429 . S
C195 C194 1.347 . S
H196 C197 0.951 . S
C197 H196 0.951 . S
C197 C203 1.265 1_655 S
H198 C203 0.950 . S
H199 C207 0.944 1_655 S
H200 C208 0.950 . S
H201 C209 0.951 . S
H202 C210 0.951 . S
C203 C197 1.265 1_455 S
C203 H198 0.950 . S
C203 C204 1.478 . S
C204 C191 1.394 1_455 S
C204 C203 1.478 . S
C204 C205 1.397 . S
C205 C204 1.397 . S
C205 C206 1.438 . S
C205 C210 1.429 . S
C206 C189 1.394 1_455 S
C206 C205 1.438 . S
C206 C207 1.428 . S
C207 H199 0.944 1_455 S
C207 C206 1.428 . S
C207 C208 1.345 . S
C208 H200 0.950 . S
C208 C207 1.345 . S
C208 C209 1.424 . S
C209 H201 0.951 . S
C209 C208 1.424 . S
C209 C210 1.347 . S
C210 H202 0.951 . S
C210 C205 1.429 . S
C210 C209 1.347 . S
H211 C212 0.951 . S
C212 H211 0.951 . S
C212 C218 1.265 . S
H213 C218 0.950 1_565 S
H214 C222 0.949 . S
H215 C223 0.950 . S
H216 C224 0.951 . S
H217 C225 0.951 . S
C218 C212 1.265 . S
C218 H213 0.950 1_545 S
C218 C219 1.478 . S
C219 C218 1.478 . S
C219 C220 1.397 . S
C219 C236 1.394 1_545 S
C220 C219 1.397 . S
C220 C221 1.438 . S
C220 C225 1.429 . S
C221 C220 1.438 . S
C221 C222 1.428 . S
C221 C234 1.394 . S
C222 H214 0.949 . S
C222 C221 1.428 . S
C222 C223 1.345 . S
C223 H215 0.950 . S
C223 C222 1.345 . S
C223 C224 1.424 . S
C224 H216 0.951 . S
C224 C223 1.424 . S
C224 C225 1.347 . S
C225 H217 0.951 . S
C225 C220 1.429 . S
C225 C224 1.347 . S
H226 C227 0.945 . S
C227 H226 0.945 . S
C227 C233 1.265 1_565 S
H228 C233 0.950 . S
H229 C237 0.949 . S
H230 C238 0.950 . S
H231 C239 0.951 . S
H232 C240 0.951 . S
C233 C227 1.265 1_545 S
C233 H228 0.950 . S
C233 C234 1.478 . S
C234 C221 1.394 . S
C234 C233 1.478 . S
C234 C235 1.397 1_545 S
C235 C234 1.397 1_565 S
C235 C236 1.438 . S
C235 C240 1.429 . S
C236 C219 1.394 1_565 S
C236 C235 1.438 . S
C236 C237 1.428 . S
C237 H229 0.949 . S
C237 C236 1.428 . S
C237 C238 1.345 . S
C238 H230 0.950 . S
C238 C237 1.345 . S
C238 C239 1.424 . S
C239 H231 0.951 . S
C239 C238 1.424 . S
C239 C240 1.347 . S
C240 H232 0.951 . S
C240 C235 1.429 . S
C240 C239 1.347 . S
H241 C242 0.951 1_455 S
C242 H241 0.951 1_655 S
C242 C248 1.265 . S
H243 C248 0.950 . S
H244 C252 0.949 . S
H245 C253 0.950 . S
H246 C254 0.951 . S
H247 C255 0.951 . S
C248 C242 1.265 . S
C248 H243 0.950 . S
C248 C249 1.478 . S
C249 C248 1.478 . S
C249 C250 1.397 . S
C249 C266 1.394 . S
C250 C249 1.397 . S
C250 C251 1.438 1_655 S
C250 C255 1.429 . S
C251 C250 1.438 1_455 S
C251 C252 1.428 . S
C251 C264 1.394 . S
C252 H244 0.949 . S
C252 C251 1.428 . S
C252 C253 1.345 . S
C253 H245 0.950 . S
C253 C252 1.345 . S
C253 C254 1.424 1_455 S
C254 H246 0.951 . S
C254 C253 1.424 1_655 S
C254 C255 1.347 . S
C255 H247 0.951 . S
C255 C250 1.429 . S
C255 C254 1.347 . S
H256 C257 0.951 . S
C257 H256 0.951 . S
C257 C263 1.265 1_655 S
H258 C263 0.950 . S
H259 C267 0.949 . S
H260 C268 0.950 . S
H261 C269 0.951 1_455 S
H262 C270 0.951 . S
C263 C257 1.265 1_455 S
C263 H258 0.950 . S
C263 C264 1.478 . S
C264 C251 1.394 . S
C264 C263 1.478 . S
C264 C265 1.402 1_455 S
C265 C264 1.402 1_655 S
C265 C266 1.435 . S
C265 C270 1.427 1_655 S
C266 C249 1.394 . S
C266 C265 1.435 . S
C266 C267 1.428 . S
C267 H259 0.949 . S
C267 C266 1.428 . S
C267 C268 1.345 . S
C268 H260 0.950 . S
C268 C267 1.345 . S
C268 C269 1.424 . S
C269 H261 0.951 1_655 S
C269 C268 1.424 . S
C269 C270 1.347 1_655 S
C270 H262 0.951 . S
C270 C265 1.427 1_455 S
C270 C269 1.347 1_455 S
H271 C272 0.951 . S
C272 H271 0.951 . S
C272 C278 1.265 . S
H273 C278 0.950 . S
H274 C282 0.949 . S
H275 C283 0.950 . S
H276 C284 0.951 . S
H277 C285 0.951 . S
C278 C272 1.265 . S
C278 H273 0.950 . S
C278 C279 1.478 . S
C279 C278 1.478 . S
C279 C280 1.397 1_545 S
C279 C296 1.394 . S
C280 C279 1.397 1_565 S
C280 C281 1.438 . S
C280 C285 1.429 . S
C281 C280 1.438 . S
C281 C282 1.428 . S
C281 C294 1.394 1_565 S
C282 H274 0.949 . S
C282 C281 1.428 . S
C282 C283 1.345 . S
C283 H275 0.950 . S
C283 C282 1.345 . S
C283 C284 1.424 . S
C284 H276 0.951 . S
C284 C283 1.424 . S
C284 C285 1.347 . S
C285 H277 0.951 . S
C285 C280 1.429 . S
C285 C284 1.347 . S
H286 C287 0.951 . S
C287 H286 0.951 . S
C287 C293 1.265 1_545 S
H288 C293 0.950 . S
H289 C297 0.949 . S
H290 C298 0.950 . S
H291 C299 0.951 . S
H292 C300 0.951 . S
C293 C287 1.265 1_565 S
C293 H288 0.950 . S
C293 C294 1.478 1_565 S
C294 C281 1.394 1_545 S
C294 C293 1.478 1_545 S
C294 C295 1.397 . S
C295 C294 1.397 . S
C295 C296 1.438 . S
C295 C300 1.429 . S
C296 C279 1.394 . S
C296 C295 1.438 . S
C296 C297 1.428 . S
C297 H289 0.949 . S
C297 C296 1.428 . S
C297 C298 1.345 . S
C298 H290 0.950 . S
C298 C297 1.345 . S
C298 C299 1.424 . S
C299 H291 0.951 . S
C299 C298 1.424 . S
C299 C300 1.347 . S
C300 H292 0.951 . S
C300 C295 1.429 . S
C300 C299 1.347 . S
C62 C23 1.235 . S
C77 C34 1.367 . S
C92 C22 1.398 . S
C107 C60 1.465 . S
C122 C21 1.709 . S
C137 C46 1.718 1_655 S
C152 C24 1.474 . S
C167 C48 1.524 1_565 S
C182 C27 1.361 1_455 S
C197 C33 1.375 1_655 S
C212 C26 1.448 . S
C227 C59 1.482 1_565 S
C257 C45 1.721 . S
C242 C25 1.691 . S
C272 C28 1.446 . S
C287 C47 1.540 . S
