# Generated by pormake.
# Topology anh, (6,3)-cn, num edge types: 1
# Building blocks:
#     Node 0, Type 0, BuildingBlock: BETDIP_clean_sbu_0, # of connection points: 6
#     Node 1, Type 0, BuildingBlock: BETDIP_clean_sbu_0, # of connection points: 6
#     Node 2, Type 0, BuildingBlock: BETDIP_clean_sbu_0, # of connection points: 6
#     Node 3, Type 1, BuildingBlock: WUSLED_clean_sbu_0, # of connection points: 3
#     Node 4, Type 1, BuildingBlock: WUSLED_clean_sbu_0, # of connection points: 3
#     Node 5, Type 1, BuildingBlock: WUSLED_clean_sbu_0, # of connection points: 3
#     Node 6, Type 1, BuildingBlock: WUSLED_clean_sbu_0, # of connection points: 3
#     Node 7, Type 1, BuildingBlock: WUSLED_clean_sbu_0, # of connection points: 3
#     Node 8, Type 1, BuildingBlock: WUSLED_clean_sbu_0, # of connection points: 3
#     Edge 9, Type (0, 1), BuildingBlock: ZUJKAS_clean_linker_0, # of connection points: 2
#     Edge 10, Type (0, 1), BuildingBlock: ZUJKAS_clean_linker_0, # of connection points: 2
#     Edge 11, Type (0, 1), BuildingBlock: ZUJKAS_clean_linker_0, # of connection points: 2
#     Edge 12, Type (0, 1), BuildingBlock: ZUJKAS_clean_linker_0, # of connection points: 2
#     Edge 13, Type (0, 1), BuildingBlock: ZUJKAS_clean_linker_0, # of connection points: 2
#     Edge 14, Type (0, 1), BuildingBlock: ZUJKAS_clean_linker_0, # of connection points: 2
#     Edge 15, Type (0, 1), BuildingBlock: ZUJKAS_clean_linker_0, # of connection points: 2
#     Edge 16, Type (0, 1), BuildingBlock: ZUJKAS_clean_linker_0, # of connection points: 2
#     Edge 17, Type (0, 1), BuildingBlock: ZUJKAS_clean_linker_0, # of connection points: 2
#     Edge 18, Type (0, 1), BuildingBlock: ZUJKAS_clean_linker_0, # of connection points: 2
#     Edge 19, Type (0, 1), BuildingBlock: ZUJKAS_clean_linker_0, # of connection points: 2
#     Edge 20, Type (0, 1), BuildingBlock: ZUJKAS_clean_linker_0, # of connection points: 2
#     Edge 21, Type (0, 1), BuildingBlock: ZUJKAS_clean_linker_0, # of connection points: 2
#     Edge 22, Type (0, 1), BuildingBlock: ZUJKAS_clean_linker_0, # of connection points: 2
#     Edge 23, Type (0, 1), BuildingBlock: ZUJKAS_clean_linker_0, # of connection points: 2
#     Edge 24, Type (0, 1), BuildingBlock: ZUJKAS_clean_linker_0, # of connection points: 2
#     Edge 25, Type (0, 1), BuildingBlock: ZUJKAS_clean_linker_0, # of connection points: 2
#     Edge 26, Type (0, 1), BuildingBlock: ZUJKAS_clean_linker_0, # of connection points: 2
# Relax obj value: 0.192
# Max RMSD: 0.174
# Mean RMSD: 0.143
data_MOF--net-anh--node1-BETDIP_clean_sbu_0--node2-WUSLED_clean_sbu_0--edge1-ZUJKAS_clean_linker_0
_symmetry_space_group_name_H-M    P1
_symmetry_Int_Tables_number       1
_symmetry_cell_setting            triclinic
loop_
_symmetry_equiv_pos_as_xyz
'x, y, z'
_cell_length_a     48.548273
_cell_length_b     48.545432
_cell_length_c     84.518703
_cell_angle_alpha  89.771561
_cell_angle_beta   90.441423
_cell_angle_gamma 120.04906
loop_
_atom_site_label
_atom_site_type_symbol
_atom_site_fract_x
_atom_site_fract_y
_atom_site_fract_z
_atom_type_partial_charge
Tb0 Tb 0.1006 0.60911 0.18105 0.0
Tb1 Tb 0.07059 0.53691 0.17695 0.0
C2 C 0.1356 0.66402 0.19062 0.0
C3 C 0.16849 0.68378 0.18566 0.0
C4 C 0.19188 0.70319 0.19658 0.0
C5 C 0.22376 0.7189 0.19217 0.0
C6 C 0.23244 0.71517 0.17681 0.0
C7 C 0.20893 0.69542 0.16597 0.0
C8 C 0.17718 0.67973 0.17037 0.0
C9 C 0.08812 0.58827 0.15216 0.0
C10 C 0.14625 0.5772 0.17727 0.0
C11 C 1.04572 0.48539 0.1626 0.0
C12 C 1.01183 0.46285 0.1605 0.0
C13 C 0.99769 0.46132 0.14572 0.0
C14 C 0.96485 0.44748 0.1444 0.0
C15 C 0.94578 0.43453 0.15779 0.0
C16 C 0.95981 0.4343 0.17235 0.0
C17 C 0.99259 0.44843 0.17372 0.0
C18 C 0.06994 0.55157 0.20737 0.0
C19 C 1.02544 0.5687 0.17769 0.0
O20 O 0.13037 0.63906 0.19899 0.0
O21 O 0.11442 0.65728 0.17937 0.0
O22 O 0.09837 0.5782 0.16312 0.0
O23 O 0.08694 0.61307 0.15684 0.0
O24 O 0.1436 0.60346 0.17721 0.0
O25 O 0.1206 0.54847 0.1781 0.0
O26 O 1.05481 0.51271 0.1556 0.0
O27 O 1.05736 0.48867 0.17701 0.0
O28 O 0.07987 0.56924 0.19546 0.0
O29 O 1.05812 0.52268 0.20215 0.0
O30 O 1.02902 0.54428 0.17319 0.0
O31 O 1.04991 0.59493 0.18383 0.0
H32 H 0.18552 0.70587 0.2085 0.0
H33 H 0.24155 0.73454 0.20064 0.0
H34 H 0.21511 0.69218 0.1541 0.0
H35 H 0.15948 0.664 0.16188 0.0
H36 H 1.01219 0.47258 0.1354 0.0
H37 H 0.95442 0.44749 0.13302 0.0
H38 H 0.94545 0.42326 0.18273 0.0
H39 H 1.00278 0.44925 0.18527 0.0
Tb40 Tb 0.63619 0.05056 0.51327 0.0
Tb41 Tb 0.59461 0.08148 0.50927 0.0
C42 C 0.65606 1.01569 0.5231 0.0
C43 C 0.63893 0.98107 0.5214 0.0
C44 C 0.60786 0.96272 0.52733 0.0
C45 C 0.58913 0.93099 0.52296 0.0
C46 C 0.60116 0.91724 0.5126 0.0
C47 C 0.63217 0.93552 0.50668 0.0
C48 C 0.65096 0.96716 0.51112 0.0
C49 C 0.62763 0.0634 0.48439 0.0
C50 C 0.55838 1.00558 0.50959 0.0
C51 C 0.56776 0.10713 0.49555 0.0
C52 C 0.57715 0.14075 0.49445 0.0
C53 C 0.592 0.15737 0.48058 0.0
C54 C 0.6085 0.19037 0.48047 0.0
C55 C 0.60955 0.20726 0.49409 0.0
C56 C 0.59274 0.1906 0.50762 0.0
C57 C 0.57677 0.15754 0.50784 0.0
C58 C 0.60955 0.08065 0.53974 0.0
C59 C 0.67183 0.12575 0.50996 0.0
O60 O 0.64324 1.02754 0.53255 0.0
O61 O 0.66521 1.03088 0.5096 0.0
O62 O 0.60735 0.05333 0.4953 0.0
O63 O 0.65364 0.06461 0.48925 0.0
O64 O 0.58696 1.00759 0.51056 0.0
O65 O 0.556 1.03166 0.50933 0.0
O66 O 0.58762 0.10033 0.48856 0.0
O67 O 0.55881 0.0936 0.50951 0.0
O68 O 0.61749 0.07155 0.52766 0.0
O69 O 0.59205 0.09215 0.53468 0.0
O70 O 0.64372 0.12273 0.50597 0.0
O71 O 0.67375 0.10098 0.51549 0.0
H72 H 0.59763 0.97298 0.53502 0.0
H73 H 0.56545 0.91705 0.52782 0.0
H74 H 0.64229 0.92506 0.49903 0.0
H75 H 0.67459 0.98102 0.50617 0.0
H76 H 0.5926 0.14486 0.4701 0.0
H77 H 0.6213 0.20259 0.46989 0.0
H78 H 0.59229 0.20308 0.51813 0.0
H79 H 0.56537 0.14532 0.51869 0.0
Tb80 Tb 0.54233 0.52114 0.84805 0.0
Tb81 Tb 0.6132 0.56331 0.84159 0.0
C82 C 0.48806 0.50104 0.85834 0.0
C83 C 0.46731 0.51245 0.85241 0.0
C84 C 0.4512 0.52133 0.86301 0.0
C85 C 0.43584 0.53724 0.85748 0.0
C86 C 0.43656 0.54449 0.84129 0.0
C87 C 0.45291 0.5358 0.83073 0.0
C88 C 0.46833 0.52006 0.83625 0.0
C89 C 0.55914 0.52726 0.81846 0.0
C90 C 0.57257 0.59819 0.8426 0.0
C91 C 0.66338 0.59034 0.82638 0.0
C92 C 0.68815 0.5823 0.82636 0.0
C93 C 0.70601 0.58692 0.81272 0.0
C94 C 0.7253 0.5734 0.81172 0.0
C95 C 0.72629 0.555 0.82432 0.0
C96 C 0.70832 0.55048 0.83794 0.0
C97 C 0.68929 0.56403 0.83895 0.0
C98 C 0.60368 0.55115 0.87277 0.0
C99 C 0.58259 0.48674 0.84405 0.0
O100 O 0.51335 0.52281 0.86578 0.0
O101 O 0.4946 0.48493 0.84811 0.0
O102 O 0.57034 0.54843 0.8289 0.0
O103 O 0.53497 0.50182 0.82398 0.0
O104 O 0.54672 0.56947 0.84475 0.0
O105 O 0.60109 0.60124 0.84116 0.0
O106 O 0.6367 0.56745 0.82049 0.0
O107 O 0.65968 0.60161 0.8398 0.0
O108 O 0.584 0.54167 0.86152 0.0
O109 O 0.63135 0.56827 0.8663 0.0
O110 O 0.60576 0.51431 0.8383 0.0
O111 O 0.55767 0.4855 0.8513 0.0
H112 H 0.45108 0.51654 0.87555 0.0
H113 H 0.42284 0.54328 0.86581 0.0
H114 H 0.45377 0.54119 0.81823 0.0
H115 H 0.48171 0.51456 0.8279 0.0
H116 H 0.70429 0.60009 0.80274 0.0
H117 H 0.73924 0.57706 0.80116 0.0
H118 H 0.70931 0.53685 0.8479 0.0
H119 H 0.6747 0.55941 0.84935 0.0
C120 C 0.60789 0.12864 0.21329 0.0
C121 C 0.63321 0.14264 0.22414 0.0
C122 C 0.66819 0.17457 0.20319 0.0
C123 C 0.66324 0.16535 0.21911 0.0
C124 C 0.64286 0.1601 0.19227 0.0
C125 C 0.61272 0.1371 0.19732 0.0
U126 U 0.55888 0.09151 0.24836 0.0
O127 O 0.50811 0.07298 0.25335 0.0
O128 O 0.52852 0.04151 0.25493 0.0
C129 C 0.50264 0.04351 0.25342 0.0
C130 C 0.57662 0.10569 0.21906 0.0
C131 C 0.48228 1.0232 0.24069 0.0
C132 C 0.47927 1.01461 0.2123 0.0
C133 C 0.48885 1.03525 0.22516 0.0
C134 C 0.45413 0.96975 0.23029 0.0
C135 C 0.463 0.9817 0.21483 0.0
C136 C 0.46389 0.99042 0.24317 0.0
C137 C 0.59739 0.11448 0.28798 0.0
C138 C 0.56681 0.08151 0.30995 0.0
C139 C 0.6226 0.12103 0.31351 0.0
C140 C 0.62436 0.12987 0.29767 0.0
C141 C 0.59384 0.09665 0.31974 0.0
C142 C 0.5686 0.09035 0.29415 0.0
C143 C 0.59982 0.12098 0.27108 0.0
O144 O 0.576 0.08155 0.22643 0.0
O145 O 0.56225 0.11837 0.22677 0.0
O146 O 0.58084 0.13083 0.26549 0.0
O147 O 0.5996 0.09825 0.26262 0.0
H148 H 0.62961 0.13623 0.23655 0.0
H149 H 0.68246 0.17607 0.2277 0.0
H150 H 0.6461 0.16734 0.17997 0.0
H151 H 0.59321 0.12643 0.1889 0.0
H152 H 0.48626 1.02436 0.2005 0.0
H153 H 0.50371 0.06052 0.223 0.0
H154 H 0.44076 0.94435 0.23247 0.0
H155 H 0.45919 0.98076 0.25506 0.0
H156 H 0.54449 0.06242 0.31443 0.0
H157 H 0.64367 0.13331 0.32089 0.0
H158 H 0.64681 0.14826 0.29294 0.0
H159 H 0.54773 0.07788 0.28664 0.0
C160 C 0.6242 0.60929 0.54502 0.0
C161 C 0.61855 0.6305 0.55363 0.0
C162 C 0.64437 0.67023 0.53317 0.0
C163 C 0.62838 0.66069 0.54771 0.0
C164 C 0.65045 0.64902 0.5247 0.0
C165 C 0.64038 0.61861 0.53063 0.0
U166 U 0.60251 0.55657 0.58058 0.0
O167 O 0.56965 0.50507 0.58314 0.0
O168 O 0.62053 0.52557 0.58867 0.0
C169 C 0.59352 0.49979 0.58522 0.0
C170 C 0.61513 0.57831 0.55167 0.0
C171 C 0.59732 0.48149 0.57272 0.0
C172 C 0.61553 0.48371 0.54592 0.0
C173 C 0.60237 0.49398 0.55734 0.0
C174 C 0.61545 0.44569 0.56467 0.0
C175 C 0.62308 0.46009 0.54958 0.0
C176 C 0.60308 0.45673 0.57628 0.0
C177 C 0.60309 0.58562 0.62098 0.0
C178 C 0.60409 0.5527 0.64236 0.0
C179 C 0.60283 0.601 0.6481 0.0
C180 C 0.6026 0.60684 0.63193 0.0
C181 C 0.60375 0.57396 0.65344 0.0
C182 C 0.60361 0.55842 0.62624 0.0
C183 C 0.60485 0.5923 0.60407 0.0
O184 O 0.63662 0.57854 0.56127 0.0
O185 O 0.58597 0.56244 0.55723 0.0
O186 O 0.5785 0.57436 0.59601 0.0
O187 O 0.63041 0.59487 0.59743 0.0
H188 H 0.60635 0.62361 0.56489 0.0
H189 H 0.62251 0.67614 0.55429 0.0
H190 H 0.66263 0.65583 0.51345 0.0
H191 H 0.64522 0.60244 0.52402 0.0
H192 H 0.62118 0.49544 0.53451 0.0
H193 H 0.59826 0.51335 0.55446 0.0
H194 H 0.61992 0.42657 0.56766 0.0
H195 H 0.59953 0.44709 0.58815 0.0
H196 H 0.60447 0.53155 0.64616 0.0
H197 H 0.60285 0.6179 0.65644 0.0
H198 H 0.60245 0.62803 0.62799 0.0
H199 H 0.60405 0.54184 0.61784 0.0
C200 C 1.02797 0.5027 0.8797 0.0
C201 C 1.0099 0.50998 0.8899 0.0
C202 C 0.97877 0.51023 0.86771 0.0
C203 C 0.98547 0.51384 0.88393 0.0
C204 C 0.99681 0.50291 0.85744 0.0
C205 C 1.02161 0.49928 0.86345 0.0
U206 U 0.06727 0.50109 0.91641 0.0
O207 O 0.08848 0.47258 0.92447 0.0
O208 O 0.11766 0.52483 0.92324 0.0
C209 C 0.11728 0.49756 0.92338 0.0
C210 C 1.05319 0.49882 0.88651 0.0
C211 C 0.1371 0.4959 0.91092 0.0
C212 C 0.14028 0.48859 0.88269 0.0
C213 C 0.12247 0.4814 0.89647 0.0
C214 C 0.18789 0.52345 0.89776 0.0
C215 C 0.1729 0.51053 0.88317 0.0
C216 C 0.17006 0.51622 0.91157 0.0
C217 C 1.03825 0.51509 0.95434 0.0
C218 C 0.06625 0.51447 0.97801 0.0
C219 C 1.0284 0.53325 0.97909 0.0
C220 C 1.02237 0.52741 0.96292 0.0
C221 C 1.05043 0.52684 0.98675 0.0
C222 C 1.06026 0.50873 0.9619 0.0
C223 C 1.03379 0.51079 0.93731 0.0
O224 O 0.07543 0.52475 0.8934 0.0
O225 O 1.04295 0.47311 0.89525 0.0
O226 O 1.02612 0.4822 0.93225 0.0
O227 O 1.05663 0.53391 0.92914 0.0
H228 H 1.01461 0.51246 0.90252 0.0
H229 H 0.97134 0.51891 0.89201 0.0
H230 H 0.99166 0.50001 0.84486 0.0
H231 H 1.03555 0.49366 0.85554 0.0
H232 H 0.12832 0.4783 0.87158 0.0
H233 H 0.09689 0.4663 0.89554 0.0
H234 H 0.21329 0.53989 0.8984 0.0
H235 H 0.18161 0.52822 0.92249 0.0
H236 H 0.08305 0.50899 0.98364 0.0
H237 H 1.01623 0.54322 0.98554 0.0
H238 H 1.00569 0.53286 0.95711 0.0
H239 H 0.07298 0.49955 0.95529 0.0
C240 C 1.03251 0.49 0.47662 0.0
C241 C 1.00586 0.48154 0.46675 0.0
C242 C 0.97297 0.43048 0.48111 0.0
C243 C 0.97679 0.45232 0.46888 0.0
C244 C 0.99993 0.43949 0.49093 0.0
C245 C 1.02884 0.46832 0.48868 0.0
U246 U 0.1096 0.57134 0.4604 0.0
O247 O 0.13188 0.61791 0.47305 0.0
O248 O 0.15843 0.59286 0.47053 0.0
C249 C 0.15877 0.61838 0.47595 0.0
C250 C 0.06336 0.52185 0.47595 0.0
C251 C 0.18987 0.65001 0.47629 0.0
C252 C 0.22554 0.69927 0.49097 0.0
C253 C 0.19588 0.67104 0.48899 0.0
C254 C 0.24463 0.68713 0.46733 0.0
C255 C 0.25089 0.70817 0.48024 0.0
C256 C 0.21485 0.65858 0.46544 0.0
C257 C 0.10559 0.57531 0.4119 0.0
C258 C 0.12872 0.60189 0.38685 0.0
C259 C 0.07836 0.5526 0.38686 0.0
C260 C 0.07973 0.55139 0.40345 0.0
C261 C 0.10281 0.57791 0.37823 0.0
C262 C 0.13008 0.60055 0.40346 0.0
C263 C 0.10701 0.57385 0.42943 0.0
O264 O 0.08958 0.52303 0.47108 0.0
O265 O 0.06263 0.54788 0.47239 0.0
O266 O 0.09434 0.58613 0.43872 0.0
O267 O 0.121 0.56015 0.43675 0.0
H268 H 1.00735 0.49756 0.45741 0.0
H269 H 0.95738 0.44695 0.46079 0.0
H270 H 0.99879 0.4247 0.50078 0.0
H271 H 1.04843 0.47405 0.49676 0.0
H272 H 0.22865 0.71361 0.50131 0.0
H273 H 0.17765 0.66519 0.4978 0.0
H274 H 0.26272 0.69259 0.45853 0.0
H275 H 0.21154 0.64306 0.45556 0.0
H276 H 0.14784 0.62201 0.38082 0.0
H277 H 1.05826 0.53333 0.3808 0.0
H278 H 1.06059 0.5316 0.40969 0.0
H279 H 0.15027 0.61935 0.40972 0.0
C280 C 0.58493 0.96631 0.80976 0.0
C281 C 0.57289 0.94284 0.7978 0.0
C282 C 0.58264 0.9056 0.81407 0.0
C283 C 0.5719 0.91318 0.79988 0.0
C284 C 0.595 0.92957 0.82583 0.0
C285 C 0.59603 0.95901 0.82373 0.0
U286 U 0.58558 0.04581 0.79304 0.0
O287 O 0.55813 0.06695 0.80335 0.0
O288 O 0.60997 0.0931 0.80494 0.0
C289 C 0.58352 0.09287 0.80844 0.0
C290 C 0.58447 0.99744 0.80894 0.0
C291 C 0.5834 0.12415 0.80958 0.0
C292 C 0.57925 0.16313 0.82666 0.0
C293 C 0.5789 0.13406 0.82451 0.0
C294 C 0.58852 0.17401 0.79883 0.0
C295 C 0.5839 0.18402 0.81391 0.0
C296 C 0.58834 0.14475 0.79672 0.0
C297 C 0.59132 0.04778 0.74445 0.0
C298 C 0.60611 0.07756 0.71963 0.0
C299 C 0.58315 1.02045 0.71914 0.0
C300 C 0.58067 1.01963 0.73574 0.0
C301 C 0.59588 0.04946 0.71073 0.0
C302 C 0.60414 0.07673 0.73623 0.0
C303 C 0.58922 0.04701 0.76203 0.0
O304 O 0.6107 1.02412 0.8056 0.0
O305 O 0.55893 0.99745 0.80366 0.0
O306 O 0.56189 1.03259 0.7695 0.0
O307 O 0.61458 0.06091 0.77119 0.0
H308 H 0.56385 0.9472 0.78689 0.0
H309 H 0.56193 0.89591 0.79042 0.0
H310 H 0.60427 0.92591 0.83682 0.0
H311 H 0.6053 0.97617 0.83329 0.0
H312 H 0.57639 0.1693 0.83857 0.0
H313 H 0.57534 0.11922 0.83478 0.0
H314 H 0.59193 0.18855 0.7885 0.0
H315 H 0.59205 0.13827 0.78501 0.0
H316 H 0.61534 0.10037 0.71381 0.0
H317 H 0.57549 0.99826 0.71297 0.0
H318 H 0.57085 0.99697 0.74179 0.0
H319 H 0.6123 0.09878 0.74266 0.0
C320 C 0.66009 0.56422 0.14207 0.0
C321 C 0.66929 0.54734 0.13186 0.0
C322 C 0.71941 0.56369 0.14705 0.0
C323 C 0.69837 0.54725 0.13423 0.0
C324 C 0.70968 0.58033 0.15721 0.0
C325 C 0.68096 0.58066 0.15473 0.0
U326 U 0.57827 0.56176 0.12647 0.0
O327 O 0.53204 0.53703 0.13924 0.0
O328 O 0.55837 0.58885 0.13827 0.0
C329 C 0.53258 0.56343 0.14328 0.0
C330 C 0.62834 0.56347 0.14099 0.0
C331 C 0.50157 0.56403 0.14427 0.0
C332 C 0.46214 0.56734 0.16124 0.0
C333 C 0.4905 0.56629 0.15929 0.0
C334 C 0.45417 0.56371 0.13304 0.0
C335 C 0.4429 0.56589 0.14823 0.0
C336 C 0.48292 0.56285 0.1311 0.0
C337 C 0.57507 0.55801 0.078 0.0
C338 C 0.55596 0.56167 0.05167 0.0
C339 C 0.59754 0.54836 0.05428 0.0
C340 C 0.5964 0.55026 0.07091 0.0
C341 C 0.57718 0.55389 0.04437 0.0
C342 C 0.555 0.56374 0.06819 0.0
C343 C 0.5722 0.55962 0.09546 0.0
O344 O 0.62733 0.58901 0.13667 0.0
O345 O 0.60215 0.53704 0.13714 0.0
O346 O 0.5618 0.53397 0.10427 0.0
O347 O 0.58762 0.58657 0.10329 0.0
H348 H 0.65395 0.53404 0.12205 0.0
H349 H 0.70429 0.53428 0.12585 0.0
H350 H 0.72383 0.59276 0.16748 0.0
H351 H 0.67468 0.59347 0.16308 0.0
H352 H 0.45578 0.56986 0.17316 0.0
H353 H 0.50411 0.56748 0.16975 0.0
H354 H 0.44064 0.56222 0.12254 0.0
H355 H 0.49047 0.56118 0.1193 0.0
H356 H 0.54025 0.56663 0.04461 0.0
H357 H 0.61404 0.54204 0.0492 0.0
H358 H 0.61205 0.54558 0.07819 0.0
H359 H 0.5383 0.56972 0.07335 0.0
H360 H 0.17507 0.55036 0.19468 0.0
H361 H 0.22464 0.55036 0.18948 0.0
H362 H 0.23648 0.60335 0.14652 0.0
H363 H 0.18872 0.60608 0.15275 0.0
H364 H 0.2457 0.52735 0.1718 0.0
H365 H 0.32437 0.65374 0.15648 0.0
H366 H 0.28515 0.63979 0.16418 0.0
H367 H 0.29086 0.63568 0.14338 0.0
C368 C 0.18881 0.56289 0.18436 0.0
C369 C 0.17812 0.57917 0.17449 0.0
C370 C 0.21733 0.56262 0.18122 0.0
C371 C 0.23611 0.57771 0.16773 0.0
C372 C 0.2245 0.59295 0.15752 0.0
H373 H 0.41017 0.58548 0.12752 0.0
H374 H 0.3611 0.58693 0.13183 0.0
C375 C 0.1966 0.59429 0.16101 0.0
C376 C 0.26658 0.57618 0.16426 0.0
H377 H 0.34386 0.61893 0.15069 0.0
C378 C 0.2671 0.54776 0.16736 0.0
C379 C 0.29539 0.60223 0.15826 0.0
C380 C 0.29906 0.63462 0.15554 0.0
C381 C 0.29433 0.54456 0.16468 0.0
C382 C 0.32292 0.57049 0.15859 0.0
C383 C 0.3224 0.59875 0.15526 0.0
C384 C 0.35346 0.569 0.15582 0.0
C385 C 0.29165 0.51281 0.16816 0.0
C386 C 0.36685 0.55872 0.16772 0.0
C387 C 0.39494 0.55728 0.16518 0.0
C388 C 0.41177 0.56673 0.15068 0.0
C389 C 0.39847 0.57741 0.13881 0.0
C390 C 0.37013 0.57858 0.14134 0.0
H391 H 0.26652 0.49315 0.16765 0.0
H392 H 0.30575 0.50746 0.15973 0.0
H393 H 0.30064 0.51322 0.18032 0.0
H394 H 0.35575 0.55198 0.17921 0.0
H395 H 0.40315 0.54836 0.17476 0.0
H396 H 0.73457 0.14291 0.51692 0.0
H397 H 0.78354 0.19357 0.51224 0.0
H398 H 0.72848 0.23178 0.49141 0.0
H399 H 0.67948 0.18165 0.49662 0.0
H400 H 0.81523 0.22627 0.48844 0.0
H401 H 0.78098 0.30565 0.51806 0.0
H402 H 0.75702 0.26299 0.51943 0.0
H403 H 0.75383 0.28373 0.50238 0.0
C404 C 0.73266 0.16217 0.51156 0.0
C405 C 0.70236 0.15768 0.50746 0.0
C406 C 0.76105 0.19147 0.50877 0.0
C407 C 0.76061 0.21776 0.50176 0.0
C408 C 0.73033 0.21302 0.49738 0.0
H409 H 0.91001 0.41335 0.47294 0.0
H410 H 0.86061 0.36313 0.47736 0.0
C411 C 0.70191 0.18382 0.50028 0.0
C412 C 0.7916 0.24935 0.49868 0.0
H413 H 0.82769 0.33098 0.50236 0.0
C414 C 0.81776 0.24903 0.49164 0.0
C415 C 0.79595 0.27983 0.50265 0.0
C416 C 0.77059 0.28314 0.51119 0.0
C417 C 0.84696 0.27735 0.48826 0.0
C418 C 0.85124 0.30781 0.49217 0.0
C419 C 0.82509 0.30818 0.49917 0.0
C420 C 0.8824 0.33924 0.48926 0.0
C421 C 0.87264 0.27411 0.48002 0.0
C422 C 0.91213 0.34391 0.49449 0.0
C423 C 0.94088 0.37273 0.49169 0.0
C424 C 0.94153 0.3989 0.48379 0.0
C425 C 0.91155 0.39432 0.47879 0.0
C426 C 0.88276 0.36527 0.48149 0.0
H427 H 0.86259 0.25145 0.4733 0.0
H428 H 0.88626 0.29414 0.47172 0.0
H429 H 0.88935 0.27396 0.48901 0.0
H430 H 0.91329 0.32522 0.50094 0.0
H431 H 0.96272 0.37409 0.4957 0.0
H432 H 0.57134 0.6403 0.86422 0.0
H433 H 0.57247 0.69085 0.8591 0.0
H434 H 0.57272 0.67548 0.80894 0.0
H435 H 0.57081 0.62478 0.81414 0.0
H436 H 0.61222 0.74528 0.8466 0.0
H437 H 0.50624 0.69912 0.80789 0.0
H438 H 0.51613 0.67296 0.81851 0.0
H439 H 0.53535 0.69062 0.80004 0.0
C440 C 0.57075 0.64729 0.85209 0.0
C441 C 0.56982 0.6276 0.83963 0.0
C442 C 0.57174 0.6766 0.84911 0.0
C443 C 0.57179 0.68748 0.83353 0.0
C444 C 0.57145 0.66788 0.82109 0.0
H445 H 0.58377 0.8628 0.79209 0.0
H446 H 0.58163 0.81193 0.79674 0.0
C447 C 0.57046 0.63862 0.82408 0.0
C448 C 0.57323 0.71944 0.83039 0.0
H449 H 0.5392 0.75543 0.80886 0.0
C450 C 0.59597 0.74719 0.83841 0.0
C451 C 0.55244 0.72304 0.81965 0.0
C452 C 0.52598 0.69481 0.81115 0.0
C453 C 0.59881 0.77757 0.83588 0.0
C454 C 0.57801 0.78114 0.82514 0.0
C455 C 0.55541 0.75347 0.81706 0.0
C456 C 0.57905 0.81296 0.82226 0.0
C457 C 0.62493 0.8058 0.84454 0.0
C458 C 0.57759 0.83124 0.83483 0.0
C459 C 0.57854 0.86057 0.83218 0.0
C460 C 0.58093 0.87328 0.81678 0.0
C461 C 0.58175 0.85455 0.80416 0.0
C462 C 0.58068 0.82509 0.80684 0.0
H463 H 0.64462 0.80157 0.84804 0.0
H464 H 0.6349 0.82767 0.83718 0.0
H465 H 0.61512 0.80994 0.85551 0.0
H466 H 0.57519 0.82262 0.84685 0.0
H467 H 0.5768 0.87297 0.84238 0.0
H468 H 0.97001 0.52174 0.16303 0.0
H469 H 0.91989 0.52103 0.15769 0.0
H470 H 0.9567 0.61112 0.18148 0.0
H471 H 1.0071 0.61247 0.18626 0.0
H472 H 0.87309 0.51757 0.173 0.0
H473 H 0.92499 0.63549 0.14464 0.0
H474 H 0.94885 0.61776 0.14957 0.0
H475 H 0.93985 0.63871 0.1644 0.0
C476 C 0.96765 0.54157 0.16711 0.0
C477 C 0.9934 0.56727 0.17509 0.0
C478 C 0.93859 0.54115 0.16402 0.0
C479 C 0.93378 0.56642 0.16869 0.0
C480 C 0.95926 0.59166 0.17705 0.0
H481 H 0.77503 0.60791 0.16314 0.0
H482 H 0.82381 0.6068 0.16846 0.0
C483 C 0.98838 0.59222 0.18002 0.0
C484 C 0.90226 0.56594 0.16517 0.0
H485 H 0.87038 0.61125 0.1515 0.0
C486 C 0.8728 0.53814 0.16818 0.0
C487 C 0.90066 0.59242 0.15882 0.0
C488 C 0.93025 0.62264 0.15401 0.0
C489 C 0.84284 0.53633 0.16553 0.0
C490 C 0.8413 0.56292 0.15934 0.0
C491 C 0.87072 0.59067 0.15629 0.0
C492 C 0.8099 0.56277 0.15611 0.0
C493 C 0.81306 0.50595 0.16995 0.0
C494 C 0.78464 0.53867 0.14714 0.0
C495 C 0.75584 0.53889 0.14424 0.0
C496 C 0.75085 0.56346 0.14997 0.0
C497 C 0.77656 0.58789 0.15868 0.0
C498 C 0.8052 0.58752 0.16165 0.0
H499 H 0.81809 0.49209 0.17884 0.0
H500 H 0.79474 0.51081 0.1748 0.0
H501 H 0.80315 0.49086 0.15925 0.0
H502 H 0.78716 0.51958 0.14215 0.0
H503 H 0.73734 0.51931 0.13757 0.0
H504 H 0.5494 0.94764 0.49797 0.0
H505 H 0.49896 0.89852 0.49223 0.0
H506 H 0.44709 0.94145 0.51109 0.0
H507 H 0.49693 0.99072 0.51582 0.0
H508 H 0.45249 0.85424 0.50624 0.0
H509 H 0.39472 0.91031 0.47363 0.0
H510 H 0.43586 0.93276 0.47958 0.0
H511 H 0.40465 0.92611 0.49324 0.0
C512 C 0.52725 0.94668 0.50087 0.0
C513 C 0.52778 0.97376 0.50731 0.0
C514 C 0.49806 0.91832 0.49753 0.0
C515 C 0.46815 0.9157 0.50061 0.0
C516 C 0.46899 0.94241 0.50771 0.0
H517 H 0.26527 0.76471 0.4959 0.0
H518 H 0.3167 0.81217 0.50074 0.0
C519 C 0.49797 0.97084 0.51071 0.0
C520 C 0.43648 0.88516 0.49688 0.0
H521 H 0.36058 0.85684 0.48201 0.0
C522 C 0.43267 0.85509 0.50078 0.0
C523 C 0.40974 0.88511 0.48966 0.0
C524 C 0.41155 0.91528 0.48364 0.0
C525 C 0.40361 0.82602 0.49819 0.0
C526 C 0.37676 0.82613 0.49134 0.0
C527 C 0.38056 0.85608 0.48736 0.0
C528 C 0.34465 0.79583 0.48835 0.0
C529 C 0.40183 0.79539 0.50332 0.0
C530 C 0.34193 0.76992 0.47951 0.0
C531 C 0.31208 0.74202 0.47684 0.0
C532 C 0.28333 0.73871 0.48275 0.0
C533 C 0.2862 0.7651 0.49133 0.0
C534 C 0.31604 0.79288 0.49403 0.0
H535 H 0.42045 0.79962 0.51226 0.0
H536 H 0.37818 0.77862 0.50838 0.0
H537 H 0.40569 0.78393 0.4929 0.0
H538 H 0.36299 0.77124 0.47448 0.0
H539 H 0.31183 0.72283 0.47026 0.0
H540 H 0.61854 0.47452 0.82268 0.0
H541 H 0.6179 0.4246 0.81735 0.0
H542 H 0.55027 0.37908 0.85489 0.0
H543 H 0.54925 0.42828 0.85942 0.0
H544 H 0.63391 0.38831 0.82925 0.0
H545 H 0.50383 0.30926 0.82636 0.0
H546 H 0.52137 0.35175 0.82779 0.0
H547 H 0.51551 0.328 0.84531 0.0
C548 C 0.6033 0.45386 0.82979 0.0
C549 C 0.58376 0.45605 0.84148 0.0
C550 C 0.60293 0.42489 0.82671 0.0
C551 C 0.58327 0.3966 0.83526 0.0
C552 C 0.56468 0.39925 0.84737 0.0
H553 H 0.55446 0.20055 0.83757 0.0
H554 H 0.55609 0.25076 0.84235 0.0
C555 C 0.56447 0.42801 0.8502 0.0
C556 C 0.58302 0.36516 0.83176 0.0
H557 H 0.53458 0.28374 0.82788 0.0
C558 C 0.61195 0.36563 0.82884 0.0
C559 C 0.55477 0.33461 0.83107 0.0
C560 C 0.52214 0.33086 0.83263 0.0
C561 C 0.61353 0.33755 0.82574 0.0
C562 C 0.58535 0.30707 0.82531 0.0
C563 C 0.55646 0.30652 0.82821 0.0
C564 C 0.58515 0.27567 0.82216 0.0
C565 C 0.64587 0.34099 0.8234 0.0
C566 C 0.60051 0.27136 0.80902 0.0
C567 C 0.6001 0.24222 0.80631 0.0
C568 C 0.58399 0.21564 0.81652 0.0
C569 C 0.56802 0.21991 0.82946 0.0
C570 C 0.5686 0.24904 0.83218 0.0
H571 H 0.66505 0.36337 0.82873 0.0
H572 H 0.64712 0.32065 0.82867 0.0
H573 H 0.65066 0.34181 0.81054 0.0
H574 H 0.61274 0.29051 0.80061 0.0
H575 H 0.6129 0.24088 0.79621 0.0
H576 H 0.58882 0.88441 0.48487 0.0
H577 H 0.58632 0.83296 0.48294 0.0
H578 H 0.57731 0.82291 0.53372 0.0
H579 H 0.57865 0.87322 0.53558 0.0
H580 H 0.63857 0.83847 0.4972 0.0
H581 H 0.53299 0.73202 0.52107 0.0
H582 H 0.53142 0.76671 0.51455 0.0
H583 H 0.54601 0.76539 0.53405 0.0
C584 C 0.5842 0.87008 0.49544 0.0
C585 C 0.58462 0.88274 0.51039 0.0
C586 C 0.58285 0.84084 0.49435 0.0
C587 C 0.58205 0.82446 0.50819 0.0
C588 C 0.57739 0.83486 0.52285 0.0
H589 H 0.66811 0.72773 0.54791 0.0
H590 H 0.65974 0.77094 0.5389 0.0
C591 C 0.57825 0.86378 0.52392 0.0
C592 C 0.59487 0.80279 0.50806 0.0
H593 H 0.58365 0.7334 0.52379 0.0
C594 C 0.6262 0.81505 0.50258 0.0
C595 C 0.57903 0.77281 0.51553 0.0
C596 C 0.5454 0.75843 0.5215 0.0
C597 C 0.64243 0.79835 0.50484 0.0
C598 C 0.6268 0.76893 0.51267 0.0
C599 C 0.59535 0.75623 0.51779 0.0
C600 C 0.64228 0.75035 0.51578 0.0
C601 C 0.67637 0.81242 0.49943 0.0
C602 C 0.63679 0.72586 0.50533 0.0
C603 C 0.641 0.70099 0.51049 0.0
C604 C 0.65064 0.70058 0.52616 0.0
C605 C 0.66006 0.72732 0.53587 0.0
C606 C 0.65558 0.75205 0.53073 0.0
H607 H 0.68525 0.83581 0.4935 0.0
H608 H 0.69196 0.81552 0.50975 0.0
H609 H 0.6782 0.79579 0.4911 0.0
H610 H 0.62629 0.72439 0.49378 0.0
H611 H 0.63346 0.68066 0.50278 0.0
H612 H 0.78867 0.58932 0.81807 0.0
H613 H 0.82833 0.57385 0.82385 0.0
H614 H 0.754 0.47998 0.83731 0.0
H615 H 0.7139 0.49529 0.83142 0.0
H616 H 0.80603 0.52027 0.86078 0.0
H617 H 0.84778 0.50823 0.80138 0.0
H618 H 0.84172 0.54155 0.8041 0.0
H619 H 0.80825 0.50185 0.80471 0.0
C620 C 0.78078 0.56503 0.82163 0.0
C621 C 0.74857 0.54331 0.82423 0.0
C622 C 0.80331 0.55635 0.82501 0.0
C623 C 0.79364 0.52588 0.83084 0.0
C624 C 0.76142 0.50353 0.8327 0.0
H625 H 0.92968 0.46616 0.85041 0.0
H626 H 0.88167 0.46733 0.84256 0.0
C627 C 0.73879 0.51221 0.82932 0.0
C628 C 0.81771 0.51879 0.83635 0.0
H629 H 0.88058 0.51313 0.82341 0.0
C630 C 0.82207 0.51801 0.85271 0.0
C631 C 0.83832 0.51634 0.8256 0.0
C632 C 0.83379 0.51681 0.80795 0.0
C633 C 0.84763 0.51564 0.85869 0.0
C634 C 0.86893 0.51428 0.84789 0.0
C635 C 0.86395 0.51419 0.83154 0.0
C636 C 0.89697 0.51333 0.85317 0.0
C637 C 0.85188 0.51507 0.87638 0.0
C638 C 0.9212 0.53918 0.86139 0.0
C639 C 0.94845 0.53856 0.86584 0.0
C640 C 0.95165 0.5123 0.86184 0.0
C641 C 0.92764 0.48677 0.85334 0.0
C642 C 0.9003 0.48727 0.84904 0.0
H643 H 0.82935 0.50796 0.88275 0.0
H644 H 0.86046 0.49847 0.87967 0.0
H645 H 0.86984 0.53926 0.88046 0.0
H646 H 0.91908 0.55977 0.86427 0.0
H647 H 0.96695 0.55844 0.8724 0.0
H648 H 0.28605 0.72503 0.19231 0.0
H649 H 0.33945 0.77027 0.18798 0.0
H650 H 0.30643 0.79477 0.14562 0.0
H651 H 0.25307 0.75008 0.14995 0.0
H652 H 0.38717 0.80842 0.15785 0.0
H653 H 0.31493 0.8532 0.18775 0.0
H654 H 0.30471 0.81211 0.18891 0.0
H655 H 0.29766 0.82739 0.17093 0.0
C656 C 0.2906 0.73935 0.18175 0.0
C657 C 0.26554 0.73475 0.17167 0.0
C658 C 0.32109 0.7648 0.17917 0.0
C659 C 0.32648 0.78563 0.16653 0.0
C660 C 0.30252 0.77854 0.15531 0.0
H661 H 0.43838 0.98326 0.18594 0.0
H662 H 0.41454 0.9396 0.16688 0.0
C663 C 0.27206 0.75313 0.15787 0.0
C664 C 0.35252 0.81844 0.1679 0.0
H665 H 0.36826 0.88927 0.18344 0.0
C666 C 0.38321 0.82644 0.16316 0.0
C667 C 0.34685 0.84138 0.17503 0.0
C668 C 0.31436 0.83327 0.18105 0.0
C669 C 0.40891 0.85721 0.16574 0.0
C670 C 0.40331 0.87996 0.17315 0.0
C671 C 0.37231 0.87199 0.17735 0.0
C672 C 0.42896 0.91005 0.17958 0.0
C673 C 0.44184 0.86484 0.16101 0.0
C674 C 0.44666 0.90853 0.19238 0.0
C675 C 0.46008 0.93328 0.20328 0.0
C676 C 0.45574 0.95962 0.20152 0.0
C677 C 0.44167 0.96296 0.18763 0.0
C678 C 0.42837 0.93824 0.17666 0.0
H679 H 0.44095 0.84949 0.15108 0.0
H680 H 0.45659 0.8902 0.15751 0.0
H681 H 0.45357 0.86036 0.17122 0.0
H682 H 0.44702 0.88684 0.19497 0.0
H683 H 0.47177 0.93072 0.21369 0.0
H684 H 0.64602 0.24689 0.51794 0.0
H685 H 0.66654 0.30418 0.51944 0.0
H686 H 0.63549 0.30381 0.47145 0.0
H687 H 0.61327 0.24648 0.47009 0.0
H688 H 0.70652 0.36304 0.49933 0.0
H689 H 0.57597 0.31784 0.50258 0.0
H690 H 0.59263 0.29229 0.50524 0.0
H691 H 0.58951 0.30545 0.48577 0.0
C692 C 0.64393 0.25911 0.50764 0.0
C693 C 0.62735 0.24221 0.49404 0.0
C694 C 0.65622 0.29181 0.50842 0.0
C695 C 0.6523 0.30777 0.49554 0.0
C696 C 0.63875 0.29159 0.48141 0.0
H697 H 0.61424 0.45552 0.5174 0.0
H698 H 0.63406 0.43153 0.49887 0.0
C699 C 0.62603 0.25887 0.4807 0.0
C700 C 0.65535 0.33886 0.49814 0.0
H701 H 0.60986 0.37176 0.50647 0.0
C702 C 0.68558 0.36541 0.50056 0.0
C703 C 0.62774 0.34126 0.49989 0.0
C704 C 0.59458 0.31274 0.49836 0.0
C705 C 0.68888 0.39455 0.50524 0.0
C706 C 0.66119 0.39663 0.50758 0.0
C707 C 0.63111 0.37034 0.50431 0.0
C708 C 0.66145 0.42273 0.51641 0.0
C709 C 0.72175 0.42232 0.50824 0.0
C710 C 0.6721 0.42761 0.53215 0.0
C711 C 0.66134 0.44191 0.54273 0.0
C712 C 0.63914 0.45072 0.5378 0.0
C713 C 0.63118 0.44885 0.52165 0.0
C714 C 0.64266 0.43533 0.51098 0.0
H715 H 0.7393 0.42154 0.50016 0.0
H716 H 0.72248 0.4454 0.5067 0.0
H717 H 0.72914 0.42091 0.52053 0.0
H718 H 0.68612 0.41759 0.53669 0.0
H719 H 0.66892 0.44424 0.55498 0.0
H720 H 0.39513 0.5222 0.81669 0.0
H721 H 0.35009 0.53052 0.81297 0.0
H722 H 0.38763 0.60306 0.84905 0.0
H723 H 0.43305 0.59497 0.85281 0.0
H724 H 0.33328 0.53703 0.85572 0.0
H725 H 0.31492 0.59454 0.80262 0.0
H726 H 0.33513 0.57208 0.8005 0.0
H727 H 0.35384 0.60863 0.81139 0.0
C728 C 0.39477 0.54123 0.82317 0.0
C729 C 0.41693 0.55746 0.83531 0.0
C730 C 0.36915 0.54613 0.82093 0.0
C731 C 0.36572 0.56733 0.83075 0.0
C732 C 0.39024 0.58683 0.84128 0.0
H733 H 0.21436 0.57053 0.87328 0.0
H734 H 0.25663 0.58496 0.854 0.0
C735 C 0.41584 0.58189 0.84357 0.0
C736 C 0.33349 0.56075 0.83409 0.0
H737 H 0.27079 0.56662 0.81984 0.0
C738 C 0.31962 0.54363 0.84793 0.0
C739 C 0.31596 0.5689 0.82366 0.0
C740 C 0.33057 0.58716 0.80868 0.0
C741 C 0.28852 0.53476 0.85185 0.0
C742 C 0.27077 0.54296 0.84146 0.0
C743 C 0.28452 0.56003 0.82754 0.0
C744 C 0.23925 0.53658 0.84626 0.0
C745 C 0.27508 0.51719 0.86723 0.0
C746 C 0.2144 0.50495 0.84723 0.0
C747 C 0.19058 0.49658 0.85843 0.0
C748 C 0.19165 0.51991 0.86857 0.0
C749 C 0.21378 0.55211 0.86584 0.0
C750 C 0.2375 0.56045 0.85465 0.0
H751 H 0.29355 0.5165 0.8748 0.0
H752 H 0.26397 0.52851 0.87408 0.0
H753 H 0.2564 0.4923 0.86465 0.0
H754 H 0.21568 0.48632 0.84084 0.0
H755 H 0.17346 0.47163 0.86024 0.0
H756 H 0.90898 0.39327 0.1349 0.0
H757 H 0.85354 0.35245 0.13812 0.0
H758 H 0.84946 0.39677 0.18152 0.0
H759 H 0.90456 0.43856 0.17801 0.0
H760 H 0.85296 0.3213 0.16654 0.0
H761 H 0.75692 0.35192 0.16538 0.0
H762 H 0.79373 0.37455 0.15467 0.0
H763 H 0.79259 0.38001 0.17562 0.0
C764 C 0.89572 0.39546 0.14459 0.0
C765 C 0.91104 0.41829 0.15649 0.0
C766 C 0.86407 0.37214 0.1464 0.0
C767 C 0.84784 0.37161 0.16011 0.0
C768 C 0.86166 0.39708 0.17078 0.0
H769 H 0.7035 0.23068 0.21851 0.0
H770 H 0.75066 0.27779 0.20857 0.0
C771 C 0.89322 0.42061 0.16889 0.0
C772 C 0.82189 0.34119 0.16565 0.0
H773 H 0.74613 0.30455 0.17931 0.0
C774 C 0.82934 0.3173 0.16905 0.0
C775 C 0.79177 0.33685 0.16934 0.0
C776 C 0.78312 0.36211 0.16596 0.0
C777 C 0.80728 0.28901 0.17631 0.0
C778 C 0.77709 0.2846 0.1799 0.0
C779 C 0.76954 0.30836 0.17645 0.0
C780 C 0.75249 0.25512 0.18693 0.0
C781 C 0.81668 0.26455 0.18054 0.0
C782 C 0.73897 0.22691 0.17814 0.0
C783 C 0.71229 0.19994 0.18382 0.0
C784 C 0.69891 0.20117 0.19826 0.0
C785 C 0.7136 0.22908 0.2074 0.0
C786 C 0.7403 0.25597 0.20174 0.0
H787 H 0.8429 0.27477 0.18033 0.0
H788 H 0.80782 0.25444 0.19246 0.0
H789 H 0.80588 0.24477 0.17185 0.0
H790 H 0.74814 0.22621 0.1666 0.0
H791 H 0.70149 0.1785 0.17671 0.0
H792 H 1.04567 0.58699 0.13092 0.0
H793 H 1.04092 0.57239 0.10293 0.0
H794 H 0.11809 0.55293 0.10844 0.0
H795 H 0.12137 0.56554 0.13668 0.0
H796 H 0.08446 0.60287 0.0816 0.0
H797 H 1.05831 0.47759 0.08292 0.0
H798 H 1.0564 0.49768 0.10043 0.0
H799 H 0.09417 0.50467 0.09323 0.0
C800 C 0.06118 0.57907 0.12614 0.0
C801 C 0.08389 0.57739 0.13575 0.0
C802 C 1.05851 0.57075 0.11021 0.0
C803 C 0.07901 0.56136 0.10362 0.0
C804 C 0.10147 0.55927 0.11334 0.0
H805 H 0.10798 0.55395 1.00194 0.0
H806 H 0.11794 0.56257 0.03048 0.0
C807 C 0.10352 0.56673 0.1294 0.0
C808 C 0.07836 0.55643 0.08635 0.0
H809 H 0.06869 0.5027 0.05778 0.0
C810 C 0.08101 0.58094 0.07643 0.0
C811 C 0.07418 0.5279 0.07962 0.0
C812 C 0.07032 0.50035 0.0896 0.0
C813 C 0.07869 0.57735 0.06 0.0
C814 C 0.07405 0.54878 0.05337 0.0
C815 C 0.07238 0.5246 0.06311 0.0
C816 C 0.06831 0.54276 0.03638 0.0
C817 C 0.08023 0.60362 0.04976 0.0
C818 C 1.03715 0.52885 0.03052 0.0
C819 C 1.03135 0.52383 0.01434 0.0
C820 C 1.05671 0.53267 1.00385 0.0
C821 C 0.08798 0.5466 0.00981 0.0
C822 C 0.09374 0.5516 0.02603 0.0
H823 H 0.08558 0.62512 0.05673 0.0
H824 H 0.09876 0.61037 0.04057 0.0
H825 H 1.05709 0.59496 0.04356 0.0
H826 H 1.01736 0.52202 0.03848 0.0
H827 H 1.00702 0.51268 0.01007 0.0
H828 H 0.66976 0.08735 0.4603 0.0
H829 H 0.65796 0.08974 0.43223 0.0
H830 H 0.55839 0.04905 0.44298 0.0
H831 H 0.56987 0.04618 0.47108 0.0
H832 H 0.59555 1.02371 0.41508 0.0
H833 H 0.60435 0.14283 0.41435 0.0
H834 H 0.62981 0.13543 0.42722 0.0
H835 H 0.58807 0.1166 0.43119 0.0
C836 C 0.64539 0.07909 0.45668 0.0
C837 C 0.62072 0.0667 0.46778 0.0
C838 C 0.63874 0.08047 0.44072 0.0
C839 C 0.60739 0.06954 0.43572 0.0
C840 C 0.58272 0.0576 0.44677 0.0
H841 H 0.54735 0.08602 0.34079 0.0
H842 H 0.54632 0.07439 0.36906 0.0
C843 C 0.58934 0.05614 0.46275 0.0
C844 C 0.6005 0.06982 0.41882 0.0
H845 H 0.59677 0.11684 0.38989 0.0
C846 C 0.59549 0.04387 0.40952 0.0
C847 C 0.60041 0.09618 0.41184 0.0
C848 C 0.6059 0.12448 0.42157 0.0
C849 C 0.59102 0.04393 0.39313 0.0
C850 C 0.59193 0.07076 0.38606 0.0
C851 C 0.59603 0.09631 0.39546 0.0
C852 C 0.59058 0.07382 0.36881 0.0
C853 C 0.5856 1.01554 0.38349 0.0
C854 C 0.6157 0.07699 0.35944 0.0
C855 C 0.61638 0.08364 0.34336 0.0
C856 C 0.59199 0.08731 0.33648 0.0
C857 C 0.56634 0.08311 0.34581 0.0
C858 C 0.56574 0.07657 0.36191 0.0
H859 H 0.57789 0.99408 0.39099 0.0
H860 H 0.56738 1.01006 0.37414 0.0
H861 H 0.60814 1.02097 0.37762 0.0
H862 H 0.63528 0.07536 0.36468 0.0
H863 H 0.63619 0.08636 0.33635 0.0
H864 H 0.59445 0.50626 0.80357 0.0
H865 H 0.61272 0.51653 0.77599 0.0
H866 H 0.56248 0.56806 0.76871 0.0
H867 H 0.54618 0.55957 0.79647 0.0
H868 H 0.58103 0.49862 0.74961 0.0
H869 H 0.64511 0.62975 0.74988 0.0
H870 H 0.63233 0.60691 0.76794 0.0
H871 H 0.60534 0.61496 0.75671 0.0
C872 C 0.58768 0.52001 0.79602 0.0
C873 C 0.56916 0.53234 0.80193 0.0
C874 C 0.5981 0.5259 0.78034 0.0
C875 C 0.58965 0.54376 0.77037 0.0
C876 C 0.57038 0.55532 0.77631 0.0
H877 H 0.56641 0.57783 0.67602 0.0
H878 H 0.56792 0.56962 0.70447 0.0
C879 C 0.56068 0.55012 0.79206 0.0
C880 C 0.59907 0.54868 0.7535 0.0
H881 H 0.62549 0.60466 0.72427 0.0
C882 C 0.59141 0.5219 0.74412 0.0
C883 C 0.61316 0.57914 0.74635 0.0
C884 C 0.62477 0.60929 0.75583 0.0
C885 C 0.5951 0.52448 0.72763 0.0
C886 C 0.60657 0.55454 0.72046 0.0
C887 C 0.61621 0.58156 0.72988 0.0
C888 C 0.60554 0.55814 0.7032 0.0
C889 C 0.58512 0.49493 0.7179 0.0
C890 C 0.62615 0.55419 0.69316 0.0
C891 C 0.62536 0.55892 0.67688 0.0
C892 C 0.60412 0.5679 0.67053 0.0
C893 C 0.58333 0.57144 0.68065 0.0
C894 C 0.58408 0.56663 0.69685 0.0
H895 H 0.57372 0.47294 0.72518 0.0
H896 H 0.56828 0.49295 0.70841 0.0
H897 H 0.60635 0.49658 0.71212 0.0
H898 H 0.64309 0.54797 0.69793 0.0
H899 H 0.6418 0.55628 0.66931 0.0
H900 H 0.57763 1.02468 0.556 0.0
H901 H 0.57672 1.01726 0.58486 0.0
H902 H 0.64969 0.1156 0.59029 0.0
H903 H 0.64928 0.12326 0.5616 0.0
H904 H 0.6162 1.02198 0.60806 0.0
H905 H 0.58398 0.11474 0.61825 0.0
H906 H 0.58484 0.10047 0.59872 0.0
H907 H 0.62106 0.13028 0.60807 0.0
C908 C 0.59377 0.04453 0.56339 0.0
C909 C 0.61356 0.07455 0.5566 0.0
C910 C 0.59319 1.04033 0.57991 0.0
C911 C 0.61243 0.06609 0.58998 0.0
C912 C 0.63372 0.09555 0.58298 0.0
H913 H 0.64089 0.09735 0.69177 0.0
H914 H 0.64414 0.09975 0.66298 0.0
C915 C 0.63386 0.09986 0.56653 0.0
C916 C 0.60945 0.06257 0.60771 0.0
H917 H 0.59815 0.09567 0.64105 0.0
C918 C 0.61209 1.03803 0.61523 0.0
C919 C 0.60367 0.08315 0.61726 0.0
C920 C 0.59787 0.1084 0.61016 0.0
C921 C 0.61015 1.03422 0.63186 0.0
C922 C 0.60522 0.05536 0.64137 0.0
C923 C 0.60224 0.07961 0.63386 0.0
C924 C 0.60329 0.05307 0.6591 0.0
C925 C 0.61409 1.008 0.63916 0.0
C926 C 0.57897 1.02615 0.66673 0.0
C927 C 0.57658 1.02489 0.68334 0.0
C928 C 0.59854 0.05049 0.69287 0.0
C929 C 0.62301 0.0773 0.68508 0.0
C930 C 0.62516 0.07865 0.6685 0.0
H931 H 0.62522 0.99883 0.63083 0.0
H932 H 0.62886 1.0164 0.65009 0.0
H933 H 0.59035 0.98794 0.64242 0.0
H934 H 0.56134 1.00631 0.65983 0.0
H935 H 0.55698 1.00401 0.68864 0.0
H936 H 0.64756 0.57226 0.8965 0.0
H937 H 0.6392 0.57024 0.92504 0.0
H938 H 0.53772 0.52212 0.91732 0.0
H939 H 0.54616 0.52274 0.88871 0.0
H940 H 0.61473 0.59695 0.94258 0.0
H941 H 0.53998 0.46657 0.95134 0.0
H942 H 0.55997 0.48348 0.93293 0.0
H943 H 0.52352 0.48278 0.9376 0.0
C944 C 0.62339 0.56086 0.90086 0.0
C945 C 0.59752 0.54776 0.89021 0.0
C946 C 0.61862 0.55982 0.91726 0.0
C947 C 0.58778 0.54574 0.92361 0.0
C948 C 0.56179 0.53249 0.91296 0.0
H949 H 0.52692 0.53026 0.02313 0.0
H950 H 0.52842 0.52905 0.99422 0.0
C951 C 0.56661 0.53318 0.89649 0.0
C952 C 0.58348 0.54622 0.94125 0.0
H953 H 0.54842 0.49909 0.97371 0.0
C954 C 0.60027 0.57543 0.94933 0.0
C955 C 0.56427 0.51837 0.95026 0.0
C956 C 0.54611 0.48598 0.94264 0.0
C957 C 0.59876 0.57757 0.96592 0.0
C958 C 0.58038 0.54964 0.97497 0.0
C959 C 0.56279 0.52053 0.9669 0.0
C960 C 0.57952 0.55015 0.99277 0.0
C961 C 0.61655 0.60997 0.97356 0.0
C962 C 0.60762 0.56191 1.00184 0.0
C963 C 0.60688 0.56279 0.01847 0.0
C964 C 0.57797 0.55184 0.02657 0.0
C965 C 0.54977 0.53948 0.01744 0.0
C966 C 0.55053 0.53854 1.00082 0.0
H967 H 0.62119 0.62922 0.96499 0.0
H968 H 0.60315 0.61177 0.98371 0.0
H969 H 0.63988 0.61406 0.978 0.0
H970 H 0.63029 0.57041 0.99606 0.0
H971 H 0.62914 0.57265 0.02495 0.0
H972 H 0.12436 0.59458 0.22301 0.0
H973 H 0.13206 0.60238 0.2518 0.0
H974 H 1.03162 0.53839 0.25858 0.0
H975 H 1.02458 0.52878 0.23004 0.0
H976 H 0.11448 0.62358 0.27526 0.0
H977 H 0.06234 0.49498 0.28649 0.0
H978 H 0.06993 0.51105 0.26675 0.0
H979 H 1.03388 0.50258 0.27685 0.0
C980 C 0.10394 0.58246 0.23069 0.0
C981 C 0.07389 0.56091 0.22432 0.0
C982 C 0.10834 0.58682 0.24719 0.0
C983 C 0.08266 0.57007 0.25763 0.0
C984 C 1.05222 0.55047 0.25102 0.0
H985 H 1.0499 0.55818 0.35902 0.0
H986 H 1.0471 0.55809 0.33015 0.0
C987 C 1.04805 0.54532 0.23464 0.0
C988 C 0.0876 0.57232 0.27532 0.0
H989 H 0.06901 0.52715 0.30907 0.0
C990 C 0.10472 0.60242 0.28259 0.0
C991 C 0.07547 0.54485 0.28512 0.0
C992 C 1.05973 0.5116 0.27838 0.0
C993 C 0.10886 0.60573 0.2992 0.0
C994 C 0.09544 0.57827 0.30893 0.0
C995 C 0.0789 0.54826 0.30169 0.0
C996 C 0.09783 0.57985 0.32666 0.0
C997 C 0.12698 0.63864 0.30626 0.0
C998 C 0.1273 0.59191 0.33449 0.0
C999 C 0.129 0.59156 0.35111 0.0
C1000 C 0.10124 0.57914 0.36041 0.0
C1001 C 0.07182 0.56741 0.35244 0.0
C1002 C 0.07016 0.56758 0.33585 0.0
H1003 H 0.13014 0.6573 0.29762 0.0
H1004 H 0.11461 0.6405 0.31685 0.0
H1005 H 0.15092 0.64344 0.31005 0.0
H1006 H 0.14899 0.60093 0.32773 0.0
H1007 H 0.15209 0.60035 0.35664 0.0
loop_
_geom_bond_atom_site_label_1
_geom_bond_atom_site_label_2
_geom_bond_distance
_geom_bond_site_symmetry_2
_ccdc_geom_bond_type
Tb0 C2 2.809 . S
Tb0 O20 2.484 . S
Tb0 O21 2.440 . S
Tb0 O22 2.658 . S
Tb0 O23 2.409 . S
Tb0 O24 2.378 . S
Tb0 O28 2.325 . S
Tb0 O31 2.341 1_455 S
Tb1 C11 2.809 1_455 S
Tb1 O22 2.325 . S
Tb1 O25 2.341 . S
Tb1 O26 2.484 1_455 S
Tb1 O27 2.440 1_455 S
Tb1 O28 2.658 . S
Tb1 O29 2.409 . S
Tb1 O30 2.378 1_455 S
C2 Tb0 2.809 . S
C2 C3 1.514 . S
C2 O20 1.248 . S
C2 O21 1.266 . S
C3 C2 1.514 . S
C3 C4 1.359 . S
C3 C8 1.348 . S
C4 C3 1.359 . S
C4 C5 1.380 . S
C4 H32 0.929 . S
C5 C4 1.380 . S
C5 C6 1.347 . S
C5 H33 0.931 . S
C6 C5 1.347 . S
C6 C7 1.369 . S
C7 C6 1.369 . S
C7 C8 1.408 . S
C7 H34 0.930 . S
C8 C3 1.348 . S
C8 C7 1.408 . S
C8 H35 0.930 . S
C9 O22 1.281 . S
C9 O23 1.254 . S
C10 O24 1.236 . S
C10 O25 1.266 . S
C11 Tb1 2.809 1_655 S
C11 C12 1.514 . S
C11 O26 1.248 . S
C11 O27 1.266 . S
C12 C11 1.514 . S
C12 C13 1.359 . S
C12 C17 1.348 . S
C13 C12 1.359 . S
C13 C14 1.380 . S
C13 H36 0.929 . S
C14 C13 1.380 . S
C14 C15 1.347 . S
C14 H37 0.931 . S
C15 C14 1.347 . S
C15 C16 1.369 . S
C16 C15 1.369 . S
C16 C17 1.408 . S
C16 H38 0.930 . S
C17 C12 1.348 . S
C17 C16 1.408 . S
C17 H39 0.930 . S
C18 O28 1.281 . S
C18 O29 1.254 . S
C19 O30 1.236 . S
C19 O31 1.266 . S
O20 Tb0 2.484 . S
O20 C2 1.248 . S
O21 Tb0 2.440 . S
O21 C2 1.266 . S
O22 Tb0 2.658 . S
O22 Tb1 2.325 . S
O22 C9 1.281 . S
O23 Tb0 2.409 . S
O23 C9 1.254 . S
O24 Tb0 2.378 . S
O24 C10 1.236 . S
O25 Tb1 2.341 . S
O25 C10 1.266 . S
O26 Tb1 2.484 1_655 S
O26 C11 1.248 . S
O27 Tb1 2.440 1_655 S
O27 C11 1.266 . S
O28 Tb0 2.325 . S
O28 Tb1 2.658 . S
O28 C18 1.281 . S
O29 Tb1 2.409 . S
O29 C18 1.254 . S
O30 Tb1 2.378 1_655 S
O30 C19 1.236 . S
O31 Tb0 2.341 1_655 S
O31 C19 1.266 . S
H32 C4 0.929 . S
H33 C5 0.931 . S
H34 C7 0.930 . S
H35 C8 0.930 . S
H36 C13 0.929 . S
H37 C14 0.931 . S
H38 C16 0.930 . S
H39 C17 0.930 . S
Tb40 C42 2.809 1_545 S
Tb40 O60 2.484 1_545 S
Tb40 O61 2.440 1_545 S
Tb40 O62 2.658 . S
Tb40 O63 2.409 . S
Tb40 O64 2.378 1_545 S
Tb40 O68 2.325 . S
Tb40 O71 2.341 . S
Tb41 C51 2.809 . S
Tb41 O62 2.325 . S
Tb41 O65 2.341 1_545 S
Tb41 O66 2.484 . S
Tb41 O67 2.440 . S
Tb41 O68 2.658 . S
Tb41 O69 2.409 . S
Tb41 O70 2.378 . S
C42 Tb40 2.809 1_565 S
C42 C43 1.514 . S
C42 O60 1.248 . S
C42 O61 1.266 . S
C43 C42 1.514 . S
C43 C44 1.359 . S
C43 C48 1.348 . S
C44 C43 1.359 . S
C44 C45 1.380 . S
C44 H72 0.929 . S
C45 C44 1.380 . S
C45 C46 1.347 . S
C45 H73 0.931 . S
C46 C45 1.347 . S
C46 C47 1.369 . S
C47 C46 1.369 . S
C47 C48 1.408 . S
C47 H74 0.930 . S
C48 C43 1.348 . S
C48 C47 1.408 . S
C48 H75 0.930 . S
C49 O62 1.281 . S
C49 O63 1.254 . S
C50 O64 1.236 . S
C50 O65 1.266 . S
C51 Tb41 2.809 . S
C51 C52 1.514 . S
C51 O66 1.248 . S
C51 O67 1.266 . S
C52 C51 1.514 . S
C52 C53 1.359 . S
C52 C57 1.348 . S
C53 C52 1.359 . S
C53 C54 1.380 . S
C53 H76 0.929 . S
C54 C53 1.380 . S
C54 C55 1.347 . S
C54 H77 0.931 . S
C55 C54 1.347 . S
C55 C56 1.369 . S
C56 C55 1.369 . S
C56 C57 1.408 . S
C56 H78 0.930 . S
C57 C52 1.348 . S
C57 C56 1.408 . S
C57 H79 0.930 . S
C58 O68 1.281 . S
C58 O69 1.254 . S
C59 O70 1.236 . S
C59 O71 1.266 . S
O60 Tb40 2.484 1_565 S
O60 C42 1.248 . S
O61 Tb40 2.440 1_565 S
O61 C42 1.266 . S
O62 Tb40 2.658 . S
O62 Tb41 2.325 . S
O62 C49 1.281 . S
O63 Tb40 2.409 . S
O63 C49 1.254 . S
O64 Tb40 2.378 1_565 S
O64 C50 1.236 . S
O65 Tb41 2.341 1_565 S
O65 C50 1.266 . S
O66 Tb41 2.484 . S
O66 C51 1.248 . S
O67 Tb41 2.440 . S
O67 C51 1.266 . S
O68 Tb40 2.325 . S
O68 Tb41 2.658 . S
O68 C58 1.281 . S
O69 Tb41 2.409 . S
O69 C58 1.254 . S
O70 Tb41 2.378 . S
O70 C59 1.236 . S
O71 Tb40 2.341 . S
O71 C59 1.266 . S
H72 C44 0.929 . S
H73 C45 0.931 . S
H74 C47 0.930 . S
H75 C48 0.930 . S
H76 C53 0.929 . S
H77 C54 0.931 . S
H78 C56 0.930 . S
H79 C57 0.930 . S
Tb80 C82 2.809 . S
Tb80 O100 2.484 . S
Tb80 O101 2.440 . S
Tb80 O102 2.658 . S
Tb80 O103 2.409 . S
Tb80 O104 2.378 . S
Tb80 O108 2.325 . S
Tb80 O111 2.341 . S
Tb81 C91 2.809 . S
Tb81 O102 2.325 . S
Tb81 O105 2.341 . S
Tb81 O106 2.484 . S
Tb81 O107 2.440 . S
Tb81 O108 2.658 . S
Tb81 O109 2.409 . S
Tb81 O110 2.378 . S
C82 Tb80 2.809 . S
C82 C83 1.514 . S
C82 O100 1.248 . S
C82 O101 1.266 . S
C83 C82 1.514 . S
C83 C84 1.359 . S
C83 C88 1.348 . S
C84 C83 1.359 . S
C84 C85 1.380 . S
C84 H112 0.929 . S
C85 C84 1.380 . S
C85 C86 1.347 . S
C85 H113 0.931 . S
C86 C85 1.347 . S
C86 C87 1.369 . S
C87 C86 1.369 . S
C87 C88 1.408 . S
C87 H114 0.930 . S
C88 C83 1.348 . S
C88 C87 1.408 . S
C88 H115 0.930 . S
C89 O102 1.281 . S
C89 O103 1.254 . S
C90 O104 1.236 . S
C90 O105 1.266 . S
C91 Tb81 2.809 . S
C91 C92 1.514 . S
C91 O106 1.248 . S
C91 O107 1.266 . S
C92 C91 1.514 . S
C92 C93 1.359 . S
C92 C97 1.348 . S
C93 C92 1.359 . S
C93 C94 1.380 . S
C93 H116 0.929 . S
C94 C93 1.380 . S
C94 C95 1.347 . S
C94 H117 0.931 . S
C95 C94 1.347 . S
C95 C96 1.369 . S
C96 C95 1.369 . S
C96 C97 1.408 . S
C96 H118 0.930 . S
C97 C92 1.348 . S
C97 C96 1.408 . S
C97 H119 0.930 . S
C98 O108 1.281 . S
C98 O109 1.254 . S
C99 O110 1.236 . S
C99 O111 1.266 . S
O100 Tb80 2.484 . S
O100 C82 1.248 . S
O101 Tb80 2.440 . S
O101 C82 1.266 . S
O102 Tb80 2.658 . S
O102 Tb81 2.325 . S
O102 C89 1.281 . S
O103 Tb80 2.409 . S
O103 C89 1.254 . S
O104 Tb80 2.378 . S
O104 C90 1.236 . S
O105 Tb81 2.341 . S
O105 C90 1.266 . S
O106 Tb81 2.484 . S
O106 C91 1.248 . S
O107 Tb81 2.440 . S
O107 C91 1.266 . S
O108 Tb80 2.325 . S
O108 Tb81 2.658 . S
O108 C98 1.281 . S
O109 Tb81 2.409 . S
O109 C98 1.254 . S
O110 Tb81 2.378 . S
O110 C99 1.236 . S
O111 Tb80 2.341 . S
O111 C99 1.266 . S
H112 C84 0.929 . S
H113 C85 0.931 . S
H114 C87 0.930 . S
H115 C88 0.930 . S
H116 C93 0.929 . S
H117 C94 0.931 . S
H118 C96 0.930 . S
H119 C97 0.930 . S
C120 C121 1.264 . S
C120 C125 1.479 . S
C120 C130 1.465 . S
C121 C120 1.264 . S
C121 C123 1.339 . S
C121 H148 0.931 . S
C122 C123 1.395 . S
C122 C124 1.320 . S
C123 C121 1.339 . S
C123 C122 1.395 . S
C123 H149 0.929 . S
C124 C122 1.320 . S
C124 C125 1.405 . S
C124 H150 0.930 . S
C125 C120 1.479 . S
C125 C124 1.405 . S
C125 H151 0.931 . S
U126 O127 2.454 . S
U126 O128 2.458 . S
U126 C129 2.984 1_545 S
U126 C130 2.847 . S
U126 C143 2.882 . S
U126 O144 2.441 . S
U126 O145 2.420 . S
U126 O146 2.455 . S
U126 O147 2.449 . S
O127 U126 2.454 . S
O127 C129 1.353 1_545 S
O128 U126 2.458 . S
O128 C129 1.286 1_545 S
C129 U126 2.984 1_565 S
C129 O127 1.353 1_565 S
C129 O128 1.286 1_565 S
C129 C131 1.363 . S
C130 C120 1.465 . S
C130 U126 2.847 . S
C130 O144 1.249 . S
C130 O145 1.202 . S
C131 C129 1.363 . S
C131 C133 1.408 . S
C131 C136 1.342 . S
C132 C133 1.310 . S
C132 C135 1.461 . S
C132 H152 0.932 . S
C133 C131 1.408 . S
C133 C132 1.310 . S
C133 H153 0.930 . S
C134 C135 1.474 . S
C134 C136 1.285 . S
C134 H154 0.929 . S
C135 C132 1.461 . S
C135 C134 1.474 . S
C136 C131 1.342 . S
C136 C134 1.285 . S
C136 H155 0.930 . S
C137 C140 1.424 . S
C137 C142 1.245 . S
C137 C143 1.428 . S
C138 C141 1.260 . S
C138 C142 1.477 . S
C138 H156 0.932 . S
C139 C140 1.384 . S
C139 C141 1.479 . S
C139 H157 0.929 . S
C140 C137 1.424 . S
C140 C139 1.384 . S
C140 H158 0.928 . S
C141 C138 1.260 . S
C141 C139 1.479 . S
C142 C137 1.245 . S
C142 C138 1.477 . S
C142 H159 0.932 . S
C143 U126 2.882 . S
C143 C137 1.428 . S
C143 O146 1.301 . S
C143 O147 1.282 . S
O144 U126 2.441 . S
O144 C130 1.249 . S
O145 U126 2.420 . S
O145 C130 1.202 . S
O146 U126 2.455 . S
O146 C143 1.301 . S
O147 U126 2.449 . S
O147 C143 1.282 . S
H148 C121 0.931 . S
H149 C123 0.929 . S
H150 C124 0.930 . S
H151 C125 0.931 . S
H152 C132 0.932 . S
H153 C133 0.930 . S
H154 C134 0.929 . S
H155 C136 0.930 . S
H156 C138 0.932 . S
H157 C139 0.929 . S
H158 C140 0.928 . S
H159 C142 0.932 . S
C160 C161 1.264 . S
C160 C165 1.479 . S
C160 C170 1.465 . S
C161 C160 1.264 . S
C161 C163 1.339 . S
C161 H188 0.931 . S
C162 C163 1.395 . S
C162 C164 1.320 . S
C163 C161 1.339 . S
C163 C162 1.395 . S
C163 H189 0.929 . S
C164 C162 1.320 . S
C164 C165 1.405 . S
C164 H190 0.930 . S
C165 C160 1.479 . S
C165 C164 1.405 . S
C165 H191 0.931 . S
U166 O167 2.454 . S
U166 O168 2.458 . S
U166 C169 2.984 . S
U166 C170 2.847 . S
U166 C183 2.882 . S
U166 O184 2.441 . S
U166 O185 2.420 . S
U166 O186 2.455 . S
U166 O187 2.449 . S
O167 U166 2.454 . S
O167 C169 1.353 . S
O168 U166 2.458 . S
O168 C169 1.286 . S
C169 U166 2.984 . S
C169 O167 1.353 . S
C169 O168 1.286 . S
C169 C171 1.363 . S
C170 C160 1.465 . S
C170 U166 2.847 . S
C170 O184 1.249 . S
C170 O185 1.202 . S
C171 C169 1.363 . S
C171 C173 1.408 . S
C171 C176 1.342 . S
C172 C173 1.310 . S
C172 C175 1.461 . S
C172 H192 0.932 . S
C173 C171 1.408 . S
C173 C172 1.310 . S
C173 H193 0.930 . S
C174 C175 1.474 . S
C174 C176 1.285 . S
C174 H194 0.929 . S
C175 C172 1.461 . S
C175 C174 1.474 . S
C176 C171 1.342 . S
C176 C174 1.285 . S
C176 H195 0.930 . S
C177 C180 1.424 . S
C177 C182 1.245 . S
C177 C183 1.428 . S
C178 C181 1.260 . S
C178 C182 1.477 . S
C178 H196 0.932 . S
C179 C180 1.384 . S
C179 C181 1.479 . S
C179 H197 0.929 . S
C180 C177 1.424 . S
C180 C179 1.384 . S
C180 H198 0.928 . S
C181 C178 1.260 . S
C181 C179 1.479 . S
C182 C177 1.245 . S
C182 C178 1.477 . S
C182 H199 0.932 . S
C183 U166 2.882 . S
C183 C177 1.428 . S
C183 O186 1.301 . S
C183 O187 1.282 . S
O184 U166 2.441 . S
O184 C170 1.249 . S
O185 U166 2.420 . S
O185 C170 1.202 . S
O186 U166 2.455 . S
O186 C183 1.301 . S
O187 U166 2.449 . S
O187 C183 1.282 . S
H188 C161 0.931 . S
H189 C163 0.929 . S
H190 C164 0.930 . S
H191 C165 0.931 . S
H192 C172 0.932 . S
H193 C173 0.930 . S
H194 C174 0.929 . S
H195 C176 0.930 . S
H196 C178 0.932 . S
H197 C179 0.929 . S
H198 C180 0.928 . S
H199 C182 0.932 . S
C200 C201 1.264 . S
C200 C205 1.479 . S
C200 C210 1.465 . S
C201 C200 1.264 . S
C201 C203 1.339 . S
C201 H228 0.931 . S
C202 C203 1.395 . S
C202 C204 1.320 . S
C203 C201 1.339 . S
C203 C202 1.395 . S
C203 H229 0.929 . S
C204 C202 1.320 . S
C204 C205 1.405 . S
C204 H230 0.930 . S
C205 C200 1.479 . S
C205 C204 1.405 . S
C205 H231 0.931 . S
U206 O207 2.434 1_655 S
U206 O208 2.422 1_655 S
U206 C209 2.953 1_655 S
U206 C210 2.878 . S
U206 C223 2.882 . S
U206 O224 2.461 . S
U206 O225 2.456 . S
U206 O226 2.439 1_655 S
U206 O227 2.465 . S
O207 U206 2.434 1_455 S
O207 C209 1.353 . S
O208 U206 2.422 1_455 S
O208 C209 1.286 . S
C209 U206 2.953 1_455 S
C209 O207 1.353 . S
C209 O208 1.286 . S
C209 C211 1.363 . S
C210 C200 1.465 . S
C210 U206 2.878 . S
C210 O224 1.249 . S
C210 O225 1.202 . S
C211 C209 1.363 . S
C211 C213 1.408 . S
C211 C216 1.342 . S
C212 C213 1.310 . S
C212 C215 1.461 . S
C212 H232 0.932 . S
C213 C211 1.408 . S
C213 C212 1.310 . S
C213 H233 0.930 . S
C214 C215 1.474 . S
C214 C216 1.285 . S
C214 H234 0.929 . S
C215 C212 1.461 . S
C215 C214 1.474 . S
C216 C211 1.342 . S
C216 C214 1.285 . S
C216 H235 0.930 . S
C217 C220 1.424 1_455 S
C217 C222 1.245 . S
C217 C223 1.428 1_455 S
C218 C221 1.260 . S
C218 C222 1.477 . S
C218 H236 0.932 . S
C219 C220 1.384 . S
C219 C221 1.479 1_655 S
C219 H237 0.929 . S
C220 C217 1.424 1_655 S
C220 C219 1.384 . S
C220 H238 0.928 . S
C221 C218 1.260 . S
C221 C219 1.479 1_455 S
C222 C217 1.245 . S
C222 C218 1.477 . S
C222 H239 0.932 . S
C223 U206 2.882 . S
C223 C217 1.428 1_655 S
C223 O226 1.265 1_655 S
C223 O227 1.318 . S
O224 U206 2.461 . S
O224 C210 1.249 . S
O225 U206 2.456 . S
O225 C210 1.202 . S
O226 U206 2.439 1_455 S
O226 C223 1.265 1_455 S
O227 U206 2.465 . S
O227 C223 1.318 . S
H228 C201 0.931 . S
H229 C203 0.929 . S
H230 C204 0.930 . S
H231 C205 0.931 . S
H232 C212 0.932 . S
H233 C213 0.930 . S
H234 C214 0.929 . S
H235 C216 0.930 . S
H236 C218 0.932 . S
H237 C219 0.929 . S
H238 C220 0.928 . S
H239 C222 0.932 . S
C240 C241 1.264 . S
C240 C245 1.479 . S
C240 C250 1.465 . S
C241 C240 1.264 . S
C241 C243 1.339 . S
C241 H268 0.931 . S
C242 C243 1.395 . S
C242 C244 1.320 . S
C243 C241 1.339 . S
C243 C242 1.395 . S
C243 H269 0.929 . S
C244 C242 1.320 . S
C244 C245 1.405 . S
C244 H270 0.930 . S
C245 C240 1.479 . S
C245 C244 1.405 . S
C245 H271 0.931 . S
U246 O247 2.454 . S
U246 O248 2.458 . S
U246 C249 2.984 . S
U246 C250 2.847 1_455 S
U246 C263 2.882 . S
U246 O264 2.441 . S
U246 O265 2.420 1_455 S
U246 O266 2.455 . S
U246 O267 2.449 . S
O247 U246 2.454 . S
O247 C249 1.353 . S
O248 U246 2.458 . S
O248 C249 1.286 . S
C249 U246 2.984 . S
C249 O247 1.353 . S
C249 O248 1.286 . S
C249 C251 1.363 . S
C250 C240 1.465 . S
C250 U246 2.847 1_655 S
C250 O264 1.249 1_655 S
C250 O265 1.202 . S
C251 C249 1.363 . S
C251 C253 1.408 . S
C251 C256 1.342 . S
C252 C253 1.310 . S
C252 C255 1.461 . S
C252 H272 0.932 . S
C253 C251 1.408 . S
C253 C252 1.310 . S
C253 H273 0.930 . S
C254 C255 1.474 . S
C254 C256 1.285 . S
C254 H274 0.929 . S
C255 C252 1.461 . S
C255 C254 1.474 . S
C256 C251 1.342 . S
C256 C254 1.285 . S
C256 H275 0.930 . S
C257 C260 1.424 . S
C257 C262 1.245 . S
C257 C263 1.428 . S
C258 C261 1.260 . S
C258 C262 1.477 . S
C258 H276 0.932 . S
C259 C260 1.384 . S
C259 C261 1.479 . S
C259 H277 0.929 1_455 S
C260 C257 1.424 . S
C260 C259 1.384 . S
C260 H278 0.928 . S
C261 C258 1.260 . S
C261 C259 1.479 . S
C262 C257 1.245 . S
C262 C258 1.477 . S
C262 H279 0.932 . S
C263 U246 2.882 . S
C263 C257 1.428 . S
C263 O266 1.301 . S
C263 O267 1.282 . S
O264 U246 2.441 . S
O264 C250 1.249 1_455 S
O265 U246 2.420 1_655 S
O265 C250 1.202 . S
O266 U246 2.455 . S
O266 C263 1.301 . S
O267 U246 2.449 . S
O267 C263 1.282 . S
H268 C241 0.931 . S
H269 C243 0.929 . S
H270 C244 0.930 . S
H271 C245 0.931 . S
H272 C252 0.932 . S
H273 C253 0.930 . S
H274 C254 0.929 . S
H275 C256 0.930 . S
H276 C258 0.932 . S
H277 C259 0.929 1_655 S
H278 C260 0.928 . S
H279 C262 0.932 . S
C280 C281 1.264 . S
C280 C285 1.479 . S
C280 C290 1.465 . S
C281 C280 1.264 . S
C281 C283 1.339 . S
C281 H308 0.931 . S
C282 C283 1.395 . S
C282 C284 1.320 . S
C283 C281 1.339 . S
C283 C282 1.395 . S
C283 H309 0.929 . S
C284 C282 1.320 . S
C284 C285 1.405 . S
C284 H310 0.930 . S
C285 C280 1.479 . S
C285 C284 1.405 . S
C285 H311 0.931 . S
U286 O287 2.454 1_565 S
U286 O288 2.458 1_565 S
U286 C289 2.984 1_565 S
U286 C290 2.847 . S
U286 C303 2.882 . S
U286 O304 2.441 . S
U286 O305 2.420 . S
U286 O306 2.455 1_565 S
U286 O307 2.449 . S
O287 U286 2.454 1_545 S
O287 C289 1.353 . S
O288 U286 2.458 1_545 S
O288 C289 1.286 . S
C289 U286 2.984 1_545 S
C289 O287 1.353 . S
C289 O288 1.286 . S
C289 C291 1.363 . S
C290 C280 1.465 . S
C290 U286 2.847 . S
C290 O304 1.249 . S
C290 O305 1.202 . S
C291 C289 1.363 . S
C291 C293 1.408 . S
C291 C296 1.342 . S
C292 C293 1.310 . S
C292 C295 1.461 . S
C292 H312 0.932 . S
C293 C291 1.408 . S
C293 C292 1.310 . S
C293 H313 0.930 . S
C294 C295 1.474 . S
C294 C296 1.285 . S
C294 H314 0.929 . S
C295 C292 1.461 . S
C295 C294 1.474 . S
C296 C291 1.342 . S
C296 C294 1.285 . S
C296 H315 0.930 . S
C297 C300 1.384 1_545 S
C297 C302 1.284 . S
C297 C303 1.428 1_545 S
C298 C301 1.260 . S
C298 C302 1.477 . S
C298 H316 0.932 . S
C299 C300 1.384 . S
C299 C301 1.479 1_565 S
C299 H317 0.929 . S
C300 C297 1.384 1_565 S
C300 C299 1.384 . S
C300 H318 0.928 . S
C301 C298 1.260 . S
C301 C299 1.479 1_545 S
C302 C297 1.284 . S
C302 C298 1.477 . S
C302 H319 0.932 . S
C303 U286 2.882 . S
C303 C297 1.428 1_565 S
C303 O306 1.301 1_565 S
C303 O307 1.282 . S
O304 U286 2.441 . S
O304 C290 1.249 . S
O305 U286 2.420 . S
O305 C290 1.202 . S
O306 U286 2.455 1_545 S
O306 C303 1.301 1_545 S
O307 U286 2.449 . S
O307 C303 1.282 . S
H308 C281 0.931 . S
H309 C283 0.929 . S
H310 C284 0.930 . S
H311 C285 0.931 . S
H312 C292 0.932 . S
H313 C293 0.930 . S
H314 C294 0.929 . S
H315 C296 0.930 . S
H316 C298 0.932 . S
H317 C299 0.929 . S
H318 C300 0.928 . S
H319 C302 0.932 . S
C320 C321 1.264 . S
C320 C325 1.479 . S
C320 C330 1.465 . S
C321 C320 1.264 . S
C321 C323 1.339 . S
C321 H348 0.931 . S
C322 C323 1.395 . S
C322 C324 1.320 . S
C323 C321 1.339 . S
C323 C322 1.395 . S
C323 H349 0.929 . S
C324 C322 1.320 . S
C324 C325 1.405 . S
C324 H350 0.930 . S
C325 C320 1.479 . S
C325 C324 1.405 . S
C325 H351 0.931 . S
U326 O327 2.454 . S
U326 O328 2.458 . S
U326 C329 2.984 . S
U326 C330 2.847 . S
U326 C343 2.882 . S
U326 O344 2.441 . S
U326 O345 2.420 . S
U326 O346 2.455 . S
U326 O347 2.449 . S
O327 U326 2.454 . S
O327 C329 1.353 . S
O328 U326 2.458 . S
O328 C329 1.286 . S
C329 U326 2.984 . S
C329 O327 1.353 . S
C329 O328 1.286 . S
C329 C331 1.363 . S
C330 C320 1.465 . S
C330 U326 2.847 . S
C330 O344 1.249 . S
C330 O345 1.202 . S
C331 C329 1.363 . S
C331 C333 1.408 . S
C331 C336 1.342 . S
C332 C333 1.310 . S
C332 C335 1.461 . S
C332 H352 0.932 . S
C333 C331 1.408 . S
C333 C332 1.310 . S
C333 H353 0.930 . S
C334 C335 1.474 . S
C334 C336 1.285 . S
C334 H354 0.929 . S
C335 C332 1.461 . S
C335 C334 1.474 . S
C336 C331 1.342 . S
C336 C334 1.285 . S
C336 H355 0.930 . S
C337 C340 1.424 . S
C337 C342 1.245 . S
C337 C343 1.428 . S
C338 C341 1.260 . S
C338 C342 1.477 . S
C338 H356 0.932 . S
C339 C340 1.384 . S
C339 C341 1.479 . S
C339 H357 0.929 . S
C340 C337 1.424 . S
C340 C339 1.384 . S
C340 H358 0.928 . S
C341 C338 1.260 . S
C341 C339 1.479 . S
C342 C337 1.245 . S
C342 C338 1.477 . S
C342 H359 0.932 . S
C343 U326 2.882 . S
C343 C337 1.428 . S
C343 O346 1.301 . S
C343 O347 1.282 . S
O344 U326 2.441 . S
O344 C330 1.249 . S
O345 U326 2.420 . S
O345 C330 1.202 . S
O346 U326 2.455 . S
O346 C343 1.301 . S
O347 U326 2.449 . S
O347 C343 1.282 . S
H348 C321 0.931 . S
H349 C323 0.929 . S
H350 C324 0.930 . S
H351 C325 0.931 . S
H352 C332 0.932 . S
H353 C333 0.930 . S
H354 C334 0.929 . S
H355 C336 0.930 . S
H356 C338 0.932 . S
H357 C339 0.929 . S
H358 C340 0.928 . S
H359 C342 0.932 . S
H360 C368 0.929 . S
H361 C370 0.930 . S
H362 C372 0.930 . S
H363 C375 0.929 . S
H364 C378 0.930 . S
H365 C380 0.960 . S
H366 C380 0.960 . S
H367 C380 0.960 . S
C368 H360 0.929 . S
C368 C369 1.377 . S
C368 C370 1.384 . S
C369 C368 1.377 . S
C369 C375 1.390 . S
C370 H361 0.930 . S
C370 C368 1.384 . S
C370 C371 1.372 . S
C371 C370 1.372 . S
C371 C372 1.400 . S
C371 C376 1.490 . S
C372 H362 0.930 . S
C372 C371 1.400 . S
C372 C375 1.386 . S
H373 C389 0.930 . S
H374 C390 0.931 . S
C375 H363 0.929 . S
C375 C369 1.390 . S
C375 C372 1.386 . S
C376 C371 1.490 . S
C376 C378 1.395 . S
C376 C379 1.403 . S
H377 C383 0.930 . S
C378 H364 0.930 . S
C378 C376 1.395 . S
C378 C381 1.403 . S
C379 C376 1.403 . S
C379 C380 1.524 . S
C379 C383 1.400 . S
C380 H365 0.960 . S
C380 H366 0.960 . S
C380 H367 0.960 . S
C380 C379 1.524 . S
C381 C378 1.403 . S
C381 C382 1.392 . S
C381 C385 1.495 . S
C382 C381 1.392 . S
C382 C383 1.385 . S
C382 C384 1.478 . S
C383 H377 0.930 . S
C383 C379 1.400 . S
C383 C382 1.385 . S
C384 C382 1.478 . S
C384 C386 1.381 . S
C384 C390 1.383 . S
C385 C381 1.495 . S
C385 H391 0.959 . S
C385 H392 0.961 . S
C385 H393 0.960 . S
C386 C384 1.381 . S
C386 C387 1.394 . S
C386 H394 0.930 . S
C387 C386 1.394 . S
C387 C388 1.383 . S
C387 H395 0.929 . S
C388 C387 1.383 . S
C388 C389 1.377 . S
C389 H373 0.930 . S
C389 C388 1.377 . S
C389 C390 1.379 . S
C390 H374 0.931 . S
C390 C384 1.383 . S
C390 C389 1.379 . S
H391 C385 0.959 . S
H392 C385 0.961 . S
H393 C385 0.960 . S
H394 C386 0.930 . S
H395 C387 0.929 . S
H396 C404 0.929 . S
H397 C406 0.930 . S
H398 C408 0.930 . S
H399 C411 0.929 . S
H400 C414 0.930 . S
H401 C416 0.960 . S
H402 C416 0.960 . S
H403 C416 0.960 . S
C404 H396 0.929 . S
C404 C405 1.377 . S
C404 C406 1.384 . S
C405 C404 1.377 . S
C405 C411 1.390 . S
C406 H397 0.930 . S
C406 C404 1.384 . S
C406 C407 1.372 . S
C407 C406 1.372 . S
C407 C408 1.400 . S
C407 C412 1.490 . S
C408 H398 0.930 . S
C408 C407 1.400 . S
C408 C411 1.386 . S
H409 C425 0.930 . S
H410 C426 0.931 . S
C411 H399 0.929 . S
C411 C405 1.390 . S
C411 C408 1.386 . S
C412 C407 1.490 . S
C412 C414 1.395 . S
C412 C415 1.403 . S
H413 C419 0.930 . S
C414 H400 0.930 . S
C414 C412 1.395 . S
C414 C417 1.403 . S
C415 C412 1.403 . S
C415 C416 1.524 . S
C415 C419 1.400 . S
C416 H401 0.960 . S
C416 H402 0.960 . S
C416 H403 0.960 . S
C416 C415 1.524 . S
C417 C414 1.403 . S
C417 C418 1.392 . S
C417 C421 1.495 . S
C418 C417 1.392 . S
C418 C419 1.385 . S
C418 C420 1.478 . S
C419 H413 0.930 . S
C419 C415 1.400 . S
C419 C418 1.385 . S
C420 C418 1.478 . S
C420 C422 1.381 . S
C420 C426 1.383 . S
C421 C417 1.495 . S
C421 H427 0.959 . S
C421 H428 0.961 . S
C421 H429 0.960 . S
C422 C420 1.381 . S
C422 C423 1.394 . S
C422 H430 0.930 . S
C423 C422 1.394 . S
C423 C424 1.383 . S
C423 H431 0.929 . S
C424 C423 1.383 . S
C424 C425 1.377 . S
C425 H409 0.930 . S
C425 C424 1.377 . S
C425 C426 1.379 . S
C426 H410 0.931 . S
C426 C420 1.383 . S
C426 C425 1.379 . S
H427 C421 0.959 . S
H428 C421 0.961 . S
H429 C421 0.960 . S
H430 C422 0.930 . S
H431 C423 0.929 . S
H432 C440 0.929 . S
H433 C442 0.930 . S
H434 C444 0.930 . S
H435 C447 0.929 . S
H436 C450 0.930 . S
H437 C452 0.960 . S
H438 C452 0.960 . S
H439 C452 0.960 . S
C440 H432 0.929 . S
C440 C441 1.377 . S
C440 C442 1.384 . S
C441 C440 1.377 . S
C441 C447 1.390 . S
C442 H433 0.930 . S
C442 C440 1.384 . S
C442 C443 1.372 . S
C443 C442 1.372 . S
C443 C444 1.400 . S
C443 C448 1.490 . S
C444 H434 0.930 . S
C444 C443 1.400 . S
C444 C447 1.386 . S
H445 C461 0.930 . S
H446 C462 0.931 . S
C447 H435 0.929 . S
C447 C441 1.390 . S
C447 C444 1.386 . S
C448 C443 1.490 . S
C448 C450 1.395 . S
C448 C451 1.403 . S
H449 C455 0.930 . S
C450 H436 0.930 . S
C450 C448 1.395 . S
C450 C453 1.403 . S
C451 C448 1.403 . S
C451 C452 1.524 . S
C451 C455 1.400 . S
C452 H437 0.960 . S
C452 H438 0.960 . S
C452 H439 0.960 . S
C452 C451 1.524 . S
C453 C450 1.403 . S
C453 C454 1.392 . S
C453 C457 1.495 . S
C454 C453 1.392 . S
C454 C455 1.385 . S
C454 C456 1.478 . S
C455 H449 0.930 . S
C455 C451 1.400 . S
C455 C454 1.385 . S
C456 C454 1.478 . S
C456 C458 1.381 . S
C456 C462 1.383 . S
C457 C453 1.495 . S
C457 H463 0.959 . S
C457 H464 0.961 . S
C457 H465 0.960 . S
C458 C456 1.381 . S
C458 C459 1.394 . S
C458 H466 0.930 . S
C459 C458 1.394 . S
C459 C460 1.383 . S
C459 H467 0.929 . S
C460 C459 1.383 . S
C460 C461 1.377 . S
C461 H445 0.930 . S
C461 C460 1.377 . S
C461 C462 1.379 . S
C462 H446 0.931 . S
C462 C456 1.383 . S
C462 C461 1.379 . S
H463 C457 0.959 . S
H464 C457 0.961 . S
H465 C457 0.960 . S
H466 C458 0.930 . S
H467 C459 0.929 . S
H468 C476 0.929 . S
H469 C478 0.930 . S
H470 C480 0.930 . S
H471 C483 0.929 . S
H472 C486 0.930 . S
H473 C488 0.960 . S
H474 C488 0.960 . S
H475 C488 0.960 . S
C476 H468 0.929 . S
C476 C477 1.377 . S
C476 C478 1.384 . S
C477 C476 1.377 . S
C477 C483 1.390 . S
C478 H469 0.930 . S
C478 C476 1.384 . S
C478 C479 1.372 . S
C479 C478 1.372 . S
C479 C480 1.400 . S
C479 C484 1.490 . S
C480 H470 0.930 . S
C480 C479 1.400 . S
C480 C483 1.386 . S
H481 C497 0.930 . S
H482 C498 0.931 . S
C483 H471 0.929 . S
C483 C477 1.390 . S
C483 C480 1.386 . S
C484 C479 1.490 . S
C484 C486 1.395 . S
C484 C487 1.403 . S
H485 C491 0.930 . S
C486 H472 0.930 . S
C486 C484 1.395 . S
C486 C489 1.403 . S
C487 C484 1.403 . S
C487 C488 1.524 . S
C487 C491 1.400 . S
C488 H473 0.960 . S
C488 H474 0.960 . S
C488 H475 0.960 . S
C488 C487 1.524 . S
C489 C486 1.403 . S
C489 C490 1.392 . S
C489 C493 1.495 . S
C490 C489 1.392 . S
C490 C491 1.385 . S
C490 C492 1.478 . S
C491 H485 0.930 . S
C491 C487 1.400 . S
C491 C490 1.385 . S
C492 C490 1.478 . S
C492 C494 1.381 . S
C492 C498 1.383 . S
C493 C489 1.495 . S
C493 H499 0.959 . S
C493 H500 0.961 . S
C493 H501 0.960 . S
C494 C492 1.381 . S
C494 C495 1.394 . S
C494 H502 0.930 . S
C495 C494 1.394 . S
C495 C496 1.383 . S
C495 H503 0.929 . S
C496 C495 1.383 . S
C496 C497 1.377 . S
C497 H481 0.930 . S
C497 C496 1.377 . S
C497 C498 1.379 . S
C498 H482 0.931 . S
C498 C492 1.383 . S
C498 C497 1.379 . S
H499 C493 0.959 . S
H500 C493 0.961 . S
H501 C493 0.960 . S
H502 C494 0.930 . S
H503 C495 0.929 . S
H504 C512 0.929 . S
H505 C514 0.930 . S
H506 C516 0.930 . S
H507 C519 0.929 . S
H508 C522 0.930 . S
H509 C524 0.960 . S
H510 C524 0.960 . S
H511 C524 0.960 . S
C512 H504 0.929 . S
C512 C513 1.377 . S
C512 C514 1.384 . S
C513 C512 1.377 . S
C513 C519 1.390 . S
C514 H505 0.930 . S
C514 C512 1.384 . S
C514 C515 1.372 . S
C515 C514 1.372 . S
C515 C516 1.400 . S
C515 C520 1.490 . S
C516 H506 0.930 . S
C516 C515 1.400 . S
C516 C519 1.386 . S
H517 C533 0.930 . S
H518 C534 0.931 . S
C519 H507 0.929 . S
C519 C513 1.390 . S
C519 C516 1.386 . S
C520 C515 1.490 . S
C520 C522 1.395 . S
C520 C523 1.403 . S
H521 C527 0.930 . S
C522 H508 0.930 . S
C522 C520 1.395 . S
C522 C525 1.403 . S
C523 C520 1.403 . S
C523 C524 1.524 . S
C523 C527 1.400 . S
C524 H509 0.960 . S
C524 H510 0.960 . S
C524 H511 0.960 . S
C524 C523 1.524 . S
C525 C522 1.403 . S
C525 C526 1.392 . S
C525 C529 1.495 . S
C526 C525 1.392 . S
C526 C527 1.385 . S
C526 C528 1.478 . S
C527 H521 0.930 . S
C527 C523 1.400 . S
C527 C526 1.385 . S
C528 C526 1.478 . S
C528 C530 1.381 . S
C528 C534 1.383 . S
C529 C525 1.495 . S
C529 H535 0.959 . S
C529 H536 0.961 . S
C529 H537 0.960 . S
C530 C528 1.381 . S
C530 C531 1.394 . S
C530 H538 0.930 . S
C531 C530 1.394 . S
C531 C532 1.383 . S
C531 H539 0.929 . S
C532 C531 1.383 . S
C532 C533 1.377 . S
C533 H517 0.930 . S
C533 C532 1.377 . S
C533 C534 1.379 . S
C534 H518 0.931 . S
C534 C528 1.383 . S
C534 C533 1.379 . S
H535 C529 0.959 . S
H536 C529 0.961 . S
H537 C529 0.960 . S
H538 C530 0.930 . S
H539 C531 0.929 . S
H540 C548 0.929 . S
H541 C550 0.930 . S
H542 C552 0.930 . S
H543 C555 0.929 . S
H544 C558 0.930 . S
H545 C560 0.960 . S
H546 C560 0.960 . S
H547 C560 0.960 . S
C548 H540 0.929 . S
C548 C549 1.377 . S
C548 C550 1.384 . S
C549 C548 1.377 . S
C549 C555 1.390 . S
C550 H541 0.930 . S
C550 C548 1.384 . S
C550 C551 1.372 . S
C551 C550 1.372 . S
C551 C552 1.400 . S
C551 C556 1.490 . S
C552 H542 0.930 . S
C552 C551 1.400 . S
C552 C555 1.386 . S
H553 C569 0.930 . S
H554 C570 0.931 . S
C555 H543 0.929 . S
C555 C549 1.390 . S
C555 C552 1.386 . S
C556 C551 1.490 . S
C556 C558 1.395 . S
C556 C559 1.403 . S
H557 C563 0.930 . S
C558 H544 0.930 . S
C558 C556 1.395 . S
C558 C561 1.403 . S
C559 C556 1.403 . S
C559 C560 1.524 . S
C559 C563 1.400 . S
C560 H545 0.960 . S
C560 H546 0.960 . S
C560 H547 0.960 . S
C560 C559 1.524 . S
C561 C558 1.403 . S
C561 C562 1.392 . S
C561 C565 1.495 . S
C562 C561 1.392 . S
C562 C563 1.385 . S
C562 C564 1.478 . S
C563 H557 0.930 . S
C563 C559 1.400 . S
C563 C562 1.385 . S
C564 C562 1.478 . S
C564 C566 1.381 . S
C564 C570 1.383 . S
C565 C561 1.495 . S
C565 H571 0.959 . S
C565 H572 0.961 . S
C565 H573 0.960 . S
C566 C564 1.381 . S
C566 C567 1.394 . S
C566 H574 0.930 . S
C567 C566 1.394 . S
C567 C568 1.383 . S
C567 H575 0.929 . S
C568 C567 1.383 . S
C568 C569 1.377 . S
C569 H553 0.930 . S
C569 C568 1.377 . S
C569 C570 1.379 . S
C570 H554 0.931 . S
C570 C564 1.383 . S
C570 C569 1.379 . S
H571 C565 0.959 . S
H572 C565 0.961 . S
H573 C565 0.960 . S
H574 C566 0.930 . S
H575 C567 0.929 . S
H576 C584 0.929 . S
H577 C586 0.930 . S
H578 C588 0.930 . S
H579 C591 0.929 . S
H580 C594 0.930 . S
H581 C596 0.960 . S
H582 C596 0.960 . S
H583 C596 0.960 . S
C584 H576 0.929 . S
C584 C585 1.377 . S
C584 C586 1.384 . S
C585 C584 1.377 . S
C585 C591 1.390 . S
C586 H577 0.930 . S
C586 C584 1.384 . S
C586 C587 1.372 . S
C587 C586 1.372 . S
C587 C588 1.400 . S
C587 C592 1.490 . S
C588 H578 0.930 . S
C588 C587 1.400 . S
C588 C591 1.386 . S
H589 C605 0.930 . S
H590 C606 0.931 . S
C591 H579 0.929 . S
C591 C585 1.390 . S
C591 C588 1.386 . S
C592 C587 1.490 . S
C592 C594 1.395 . S
C592 C595 1.403 . S
H593 C599 0.930 . S
C594 H580 0.930 . S
C594 C592 1.395 . S
C594 C597 1.403 . S
C595 C592 1.403 . S
C595 C596 1.524 . S
C595 C599 1.400 . S
C596 H581 0.960 . S
C596 H582 0.960 . S
C596 H583 0.960 . S
C596 C595 1.524 . S
C597 C594 1.403 . S
C597 C598 1.392 . S
C597 C601 1.495 . S
C598 C597 1.392 . S
C598 C599 1.385 . S
C598 C600 1.478 . S
C599 H593 0.930 . S
C599 C595 1.400 . S
C599 C598 1.385 . S
C600 C598 1.478 . S
C600 C602 1.381 . S
C600 C606 1.383 . S
C601 C597 1.495 . S
C601 H607 0.959 . S
C601 H608 0.961 . S
C601 H609 0.960 . S
C602 C600 1.381 . S
C602 C603 1.394 . S
C602 H610 0.930 . S
C603 C602 1.394 . S
C603 C604 1.383 . S
C603 H611 0.929 . S
C604 C603 1.383 . S
C604 C605 1.377 . S
C605 H589 0.930 . S
C605 C604 1.377 . S
C605 C606 1.379 . S
C606 H590 0.931 . S
C606 C600 1.383 . S
C606 C605 1.379 . S
H607 C601 0.959 . S
H608 C601 0.961 . S
H609 C601 0.960 . S
H610 C602 0.930 . S
H611 C603 0.929 . S
H612 C620 0.929 . S
H613 C622 0.930 . S
H614 C624 0.930 . S
H615 C627 0.929 . S
H616 C630 0.930 . S
H617 C632 0.960 . S
H618 C632 0.960 . S
H619 C632 0.960 . S
C620 H612 0.929 . S
C620 C621 1.377 . S
C620 C622 1.384 . S
C621 C620 1.377 . S
C621 C627 1.390 . S
C622 H613 0.930 . S
C622 C620 1.384 . S
C622 C623 1.372 . S
C623 C622 1.372 . S
C623 C624 1.400 . S
C623 C628 1.490 . S
C624 H614 0.930 . S
C624 C623 1.400 . S
C624 C627 1.386 . S
H625 C641 0.930 . S
H626 C642 0.931 . S
C627 H615 0.929 . S
C627 C621 1.390 . S
C627 C624 1.386 . S
C628 C623 1.490 . S
C628 C630 1.395 . S
C628 C631 1.403 . S
H629 C635 0.930 . S
C630 H616 0.930 . S
C630 C628 1.395 . S
C630 C633 1.403 . S
C631 C628 1.403 . S
C631 C632 1.524 . S
C631 C635 1.400 . S
C632 H617 0.960 . S
C632 H618 0.960 . S
C632 H619 0.960 . S
C632 C631 1.524 . S
C633 C630 1.403 . S
C633 C634 1.392 . S
C633 C637 1.495 . S
C634 C633 1.392 . S
C634 C635 1.385 . S
C634 C636 1.478 . S
C635 H629 0.930 . S
C635 C631 1.400 . S
C635 C634 1.385 . S
C636 C634 1.478 . S
C636 C638 1.381 . S
C636 C642 1.383 . S
C637 C633 1.495 . S
C637 H643 0.959 . S
C637 H644 0.961 . S
C637 H645 0.960 . S
C638 C636 1.381 . S
C638 C639 1.394 . S
C638 H646 0.930 . S
C639 C638 1.394 . S
C639 C640 1.383 . S
C639 H647 0.929 . S
C640 C639 1.383 . S
C640 C641 1.377 . S
C641 H625 0.930 . S
C641 C640 1.377 . S
C641 C642 1.379 . S
C642 H626 0.931 . S
C642 C636 1.383 . S
C642 C641 1.379 . S
H643 C637 0.959 . S
H644 C637 0.961 . S
H645 C637 0.960 . S
H646 C638 0.930 . S
H647 C639 0.929 . S
H648 C656 0.929 . S
H649 C658 0.930 . S
H650 C660 0.930 . S
H651 C663 0.929 . S
H652 C666 0.930 . S
H653 C668 0.960 . S
H654 C668 0.960 . S
H655 C668 0.960 . S
C656 H648 0.929 . S
C656 C657 1.377 . S
C656 C658 1.384 . S
C657 C656 1.377 . S
C657 C663 1.390 . S
C658 H649 0.930 . S
C658 C656 1.384 . S
C658 C659 1.372 . S
C659 C658 1.372 . S
C659 C660 1.400 . S
C659 C664 1.490 . S
C660 H650 0.930 . S
C660 C659 1.400 . S
C660 C663 1.386 . S
H661 C677 0.930 . S
H662 C678 0.931 . S
C663 H651 0.929 . S
C663 C657 1.390 . S
C663 C660 1.386 . S
C664 C659 1.490 . S
C664 C666 1.395 . S
C664 C667 1.403 . S
H665 C671 0.930 . S
C666 H652 0.930 . S
C666 C664 1.395 . S
C666 C669 1.403 . S
C667 C664 1.403 . S
C667 C668 1.524 . S
C667 C671 1.400 . S
C668 H653 0.960 . S
C668 H654 0.960 . S
C668 H655 0.960 . S
C668 C667 1.524 . S
C669 C666 1.403 . S
C669 C670 1.392 . S
C669 C673 1.495 . S
C670 C669 1.392 . S
C670 C671 1.385 . S
C670 C672 1.478 . S
C671 H665 0.930 . S
C671 C667 1.400 . S
C671 C670 1.385 . S
C672 C670 1.478 . S
C672 C674 1.381 . S
C672 C678 1.383 . S
C673 C669 1.495 . S
C673 H679 0.959 . S
C673 H680 0.961 . S
C673 H681 0.960 . S
C674 C672 1.381 . S
C674 C675 1.394 . S
C674 H682 0.930 . S
C675 C674 1.394 . S
C675 C676 1.383 . S
C675 H683 0.929 . S
C676 C675 1.383 . S
C676 C677 1.377 . S
C677 H661 0.930 . S
C677 C676 1.377 . S
C677 C678 1.379 . S
C678 H662 0.931 . S
C678 C672 1.383 . S
C678 C677 1.379 . S
H679 C673 0.959 . S
H680 C673 0.961 . S
H681 C673 0.960 . S
H682 C674 0.930 . S
H683 C675 0.929 . S
H684 C692 0.929 . S
H685 C694 0.930 . S
H686 C696 0.930 . S
H687 C699 0.929 . S
H688 C702 0.930 . S
H689 C704 0.960 . S
H690 C704 0.960 . S
H691 C704 0.960 . S
C692 H684 0.929 . S
C692 C693 1.377 . S
C692 C694 1.384 . S
C693 C692 1.377 . S
C693 C699 1.390 . S
C694 H685 0.930 . S
C694 C692 1.384 . S
C694 C695 1.372 . S
C695 C694 1.372 . S
C695 C696 1.400 . S
C695 C700 1.490 . S
C696 H686 0.930 . S
C696 C695 1.400 . S
C696 C699 1.386 . S
H697 C713 0.930 . S
H698 C714 0.931 . S
C699 H687 0.929 . S
C699 C693 1.390 . S
C699 C696 1.386 . S
C700 C695 1.490 . S
C700 C702 1.395 . S
C700 C703 1.403 . S
H701 C707 0.930 . S
C702 H688 0.930 . S
C702 C700 1.395 . S
C702 C705 1.403 . S
C703 C700 1.403 . S
C703 C704 1.524 . S
C703 C707 1.400 . S
C704 H689 0.960 . S
C704 H690 0.960 . S
C704 H691 0.960 . S
C704 C703 1.524 . S
C705 C702 1.403 . S
C705 C706 1.392 . S
C705 C709 1.495 . S
C706 C705 1.392 . S
C706 C707 1.385 . S
C706 C708 1.478 . S
C707 H701 0.930 . S
C707 C703 1.400 . S
C707 C706 1.385 . S
C708 C706 1.478 . S
C708 C710 1.381 . S
C708 C714 1.383 . S
C709 C705 1.495 . S
C709 H715 0.959 . S
C709 H716 0.961 . S
C709 H717 0.960 . S
C710 C708 1.381 . S
C710 C711 1.394 . S
C710 H718 0.930 . S
C711 C710 1.394 . S
C711 C712 1.383 . S
C711 H719 0.929 . S
C712 C711 1.383 . S
C712 C713 1.377 . S
C713 H697 0.930 . S
C713 C712 1.377 . S
C713 C714 1.379 . S
C714 H698 0.931 . S
C714 C708 1.383 . S
C714 C713 1.379 . S
H715 C709 0.959 . S
H716 C709 0.961 . S
H717 C709 0.960 . S
H718 C710 0.930 . S
H719 C711 0.929 . S
H720 C728 0.929 . S
H721 C730 0.930 . S
H722 C732 0.930 . S
H723 C735 0.929 . S
H724 C738 0.930 . S
H725 C740 0.960 . S
H726 C740 0.960 . S
H727 C740 0.960 . S
C728 H720 0.929 . S
C728 C729 1.377 . S
C728 C730 1.384 . S
C729 C728 1.377 . S
C729 C735 1.390 . S
C730 H721 0.930 . S
C730 C728 1.384 . S
C730 C731 1.372 . S
C731 C730 1.372 . S
C731 C732 1.400 . S
C731 C736 1.490 . S
C732 H722 0.930 . S
C732 C731 1.400 . S
C732 C735 1.386 . S
H733 C749 0.930 . S
H734 C750 0.931 . S
C735 H723 0.929 . S
C735 C729 1.390 . S
C735 C732 1.386 . S
C736 C731 1.490 . S
C736 C738 1.395 . S
C736 C739 1.403 . S
H737 C743 0.930 . S
C738 H724 0.930 . S
C738 C736 1.395 . S
C738 C741 1.403 . S
C739 C736 1.403 . S
C739 C740 1.524 . S
C739 C743 1.400 . S
C740 H725 0.960 . S
C740 H726 0.960 . S
C740 H727 0.960 . S
C740 C739 1.524 . S
C741 C738 1.403 . S
C741 C742 1.392 . S
C741 C745 1.495 . S
C742 C741 1.392 . S
C742 C743 1.385 . S
C742 C744 1.478 . S
C743 H737 0.930 . S
C743 C739 1.400 . S
C743 C742 1.385 . S
C744 C742 1.478 . S
C744 C746 1.381 . S
C744 C750 1.383 . S
C745 C741 1.495 . S
C745 H751 0.959 . S
C745 H752 0.961 . S
C745 H753 0.960 . S
C746 C744 1.381 . S
C746 C747 1.394 . S
C746 H754 0.930 . S
C747 C746 1.394 . S
C747 C748 1.383 . S
C747 H755 0.929 . S
C748 C747 1.383 . S
C748 C749 1.377 . S
C749 H733 0.930 . S
C749 C748 1.377 . S
C749 C750 1.379 . S
C750 H734 0.931 . S
C750 C744 1.383 . S
C750 C749 1.379 . S
H751 C745 0.959 . S
H752 C745 0.961 . S
H753 C745 0.960 . S
H754 C746 0.930 . S
H755 C747 0.929 . S
H756 C764 0.929 . S
H757 C766 0.930 . S
H758 C768 0.930 . S
H759 C771 0.929 . S
H760 C774 0.930 . S
H761 C776 0.960 . S
H762 C776 0.960 . S
H763 C776 0.960 . S
C764 H756 0.929 . S
C764 C765 1.377 . S
C764 C766 1.384 . S
C765 C764 1.377 . S
C765 C771 1.390 . S
C766 H757 0.930 . S
C766 C764 1.384 . S
C766 C767 1.372 . S
C767 C766 1.372 . S
C767 C768 1.400 . S
C767 C772 1.490 . S
C768 H758 0.930 . S
C768 C767 1.400 . S
C768 C771 1.386 . S
H769 C785 0.930 . S
H770 C786 0.931 . S
C771 H759 0.929 . S
C771 C765 1.390 . S
C771 C768 1.386 . S
C772 C767 1.490 . S
C772 C774 1.395 . S
C772 C775 1.403 . S
H773 C779 0.930 . S
C774 H760 0.930 . S
C774 C772 1.395 . S
C774 C777 1.403 . S
C775 C772 1.403 . S
C775 C776 1.524 . S
C775 C779 1.400 . S
C776 H761 0.960 . S
C776 H762 0.960 . S
C776 H763 0.960 . S
C776 C775 1.524 . S
C777 C774 1.403 . S
C777 C778 1.392 . S
C777 C781 1.495 . S
C778 C777 1.392 . S
C778 C779 1.385 . S
C778 C780 1.478 . S
C779 H773 0.930 . S
C779 C775 1.400 . S
C779 C778 1.385 . S
C780 C778 1.478 . S
C780 C782 1.381 . S
C780 C786 1.383 . S
C781 C777 1.495 . S
C781 H787 0.959 . S
C781 H788 0.961 . S
C781 H789 0.960 . S
C782 C780 1.381 . S
C782 C783 1.394 . S
C782 H790 0.930 . S
C783 C782 1.394 . S
C783 C784 1.383 . S
C783 H791 0.929 . S
C784 C783 1.383 . S
C784 C785 1.377 . S
C785 H769 0.930 . S
C785 C784 1.377 . S
C785 C786 1.379 . S
C786 H770 0.931 . S
C786 C780 1.383 . S
C786 C785 1.379 . S
H787 C781 0.959 . S
H788 C781 0.961 . S
H789 C781 0.960 . S
H790 C782 0.930 . S
H791 C783 0.929 . S
H792 C800 0.929 . S
H793 C802 0.930 . S
H794 C804 0.930 . S
H795 C807 0.929 . S
H796 C810 0.930 . S
H797 C812 0.960 . S
H798 C812 0.960 1_655 S
H799 C812 0.960 . S
C800 H792 0.929 . S
C800 C801 1.377 1_655 S
C800 C802 1.384 . S
C801 C800 1.377 1_455 S
C801 C807 1.390 . S
C802 H793 0.930 . S
C802 C800 1.384 . S
C802 C803 1.372 1_655 S
C803 C802 1.372 1_455 S
C803 C804 1.400 . S
C803 C808 1.490 . S
C804 H794 0.930 . S
C804 C803 1.400 . S
C804 C807 1.386 . S
H805 C821 0.930 . S
H806 C822 0.931 . S
C807 H795 0.929 . S
C807 C801 1.390 . S
C807 C804 1.386 . S
C808 C803 1.490 . S
C808 C810 1.395 . S
C808 C811 1.403 . S
H809 C815 0.930 . S
C810 H796 0.930 . S
C810 C808 1.395 . S
C810 C813 1.403 . S
C811 C808 1.403 . S
C811 C812 1.524 . S
C811 C815 1.400 . S
C812 H797 0.960 . S
C812 H798 0.960 1_455 S
C812 H799 0.960 . S
C812 C811 1.524 . S
C813 C810 1.403 . S
C813 C814 1.392 . S
C813 C817 1.495 . S
C814 C813 1.392 . S
C814 C815 1.385 . S
C814 C816 1.478 . S
C815 H809 0.930 . S
C815 C811 1.400 . S
C815 C814 1.385 . S
C816 C814 1.478 . S
C816 C818 1.381 1_455 S
C816 C822 1.383 . S
C817 C813 1.495 . S
C817 H823 0.959 . S
C817 H824 0.961 . S
C817 H825 0.960 1_455 S
C818 C816 1.381 1_655 S
C818 C819 1.394 1_554 S
C818 H826 0.930 . S
C819 C818 1.394 1_556 S
C819 C820 1.383 1_655 S
C819 H827 0.929 . S
C820 C819 1.383 1_455 S
C820 C821 1.377 . S
C821 H805 0.930 . S
C821 C820 1.377 . S
C821 C822 1.379 1_556 S
C822 H806 0.931 . S
C822 C816 1.383 . S
C822 C821 1.379 1_554 S
H823 C817 0.959 . S
H824 C817 0.961 . S
H825 C817 0.960 1_655 S
H826 C818 0.930 . S
H827 C819 0.929 . S
H828 C836 0.929 . S
H829 C838 0.930 . S
H830 C840 0.930 . S
H831 C843 0.929 . S
H832 C846 0.930 1_565 S
H833 C848 0.960 . S
H834 C848 0.960 . S
H835 C848 0.960 . S
C836 H828 0.929 . S
C836 C837 1.377 . S
C836 C838 1.384 . S
C837 C836 1.377 . S
C837 C843 1.390 . S
C838 H829 0.930 . S
C838 C836 1.384 . S
C838 C839 1.372 . S
C839 C838 1.372 . S
C839 C840 1.400 . S
C839 C844 1.490 . S
C840 H830 0.930 . S
C840 C839 1.400 . S
C840 C843 1.386 . S
H841 C857 0.930 . S
H842 C858 0.931 . S
C843 H831 0.929 . S
C843 C837 1.390 . S
C843 C840 1.386 . S
C844 C839 1.490 . S
C844 C846 1.395 . S
C844 C847 1.403 . S
H845 C851 0.930 . S
C846 H832 0.930 1_545 S
C846 C844 1.395 . S
C846 C849 1.403 . S
C847 C844 1.403 . S
C847 C848 1.524 . S
C847 C851 1.400 . S
C848 H833 0.960 . S
C848 H834 0.960 . S
C848 H835 0.960 . S
C848 C847 1.524 . S
C849 C846 1.403 . S
C849 C850 1.392 . S
C849 C853 1.495 1_545 S
C850 C849 1.392 . S
C850 C851 1.385 . S
C850 C852 1.478 . S
C851 H845 0.930 . S
C851 C847 1.400 . S
C851 C850 1.385 . S
C852 C850 1.478 . S
C852 C854 1.381 . S
C852 C858 1.383 . S
C853 C849 1.495 1_565 S
C853 H859 0.959 . S
C853 H860 0.961 . S
C853 H861 0.960 . S
C854 C852 1.381 . S
C854 C855 1.394 . S
C854 H862 0.930 . S
C855 C854 1.394 . S
C855 C856 1.383 . S
C855 H863 0.929 . S
C856 C855 1.383 . S
C856 C857 1.377 . S
C857 H841 0.930 . S
C857 C856 1.377 . S
C857 C858 1.379 . S
C858 H842 0.931 . S
C858 C852 1.383 . S
C858 C857 1.379 . S
H859 C853 0.959 . S
H860 C853 0.961 . S
H861 C853 0.960 . S
H862 C854 0.930 . S
H863 C855 0.929 . S
H864 C872 0.929 . S
H865 C874 0.930 . S
H866 C876 0.930 . S
H867 C879 0.929 . S
H868 C882 0.930 . S
H869 C884 0.960 . S
H870 C884 0.960 . S
H871 C884 0.960 . S
C872 H864 0.929 . S
C872 C873 1.377 . S
C872 C874 1.384 . S
C873 C872 1.377 . S
C873 C879 1.390 . S
C874 H865 0.930 . S
C874 C872 1.384 . S
C874 C875 1.372 . S
C875 C874 1.372 . S
C875 C876 1.400 . S
C875 C880 1.490 . S
C876 H866 0.930 . S
C876 C875 1.400 . S
C876 C879 1.386 . S
H877 C893 0.930 . S
H878 C894 0.931 . S
C879 H867 0.929 . S
C879 C873 1.390 . S
C879 C876 1.386 . S
C880 C875 1.490 . S
C880 C882 1.395 . S
C880 C883 1.403 . S
H881 C887 0.930 . S
C882 H868 0.930 . S
C882 C880 1.395 . S
C882 C885 1.403 . S
C883 C880 1.403 . S
C883 C884 1.524 . S
C883 C887 1.400 . S
C884 H869 0.960 . S
C884 H870 0.960 . S
C884 H871 0.960 . S
C884 C883 1.524 . S
C885 C882 1.403 . S
C885 C886 1.392 . S
C885 C889 1.495 . S
C886 C885 1.392 . S
C886 C887 1.385 . S
C886 C888 1.478 . S
C887 H881 0.930 . S
C887 C883 1.400 . S
C887 C886 1.385 . S
C888 C886 1.478 . S
C888 C890 1.381 . S
C888 C894 1.383 . S
C889 C885 1.495 . S
C889 H895 0.959 . S
C889 H896 0.961 . S
C889 H897 0.960 . S
C890 C888 1.381 . S
C890 C891 1.394 . S
C890 H898 0.930 . S
C891 C890 1.394 . S
C891 C892 1.383 . S
C891 H899 0.929 . S
C892 C891 1.383 . S
C892 C893 1.377 . S
C893 H877 0.930 . S
C893 C892 1.377 . S
C893 C894 1.379 . S
C894 H878 0.931 . S
C894 C888 1.383 . S
C894 C893 1.379 . S
H895 C889 0.959 . S
H896 C889 0.961 . S
H897 C889 0.960 . S
H898 C890 0.930 . S
H899 C891 0.929 . S
H900 C908 0.929 . S
H901 C910 0.930 . S
H902 C912 0.930 . S
H903 C915 0.929 . S
H904 C918 0.930 . S
H905 C920 0.960 . S
H906 C920 0.960 . S
H907 C920 0.960 . S
C908 H900 0.929 . S
C908 C909 1.377 1_565 S
C908 C910 1.384 . S
C909 C908 1.377 1_545 S
C909 C915 1.390 . S
C910 H901 0.930 . S
C910 C908 1.384 . S
C910 C911 1.372 1_565 S
C911 C910 1.372 1_545 S
C911 C912 1.400 . S
C911 C916 1.490 . S
C912 H902 0.930 . S
C912 C911 1.400 . S
C912 C915 1.386 . S
H913 C929 0.930 . S
H914 C930 0.931 . S
C915 H903 0.929 . S
C915 C909 1.390 . S
C915 C912 1.386 . S
C916 C911 1.490 . S
C916 C918 1.395 1_545 S
C916 C919 1.403 . S
H917 C923 0.930 . S
C918 H904 0.930 . S
C918 C916 1.395 1_565 S
C918 C921 1.403 . S
C919 C916 1.403 . S
C919 C920 1.524 . S
C919 C923 1.400 . S
C920 H905 0.960 . S
C920 H906 0.960 . S
C920 H907 0.960 . S
C920 C919 1.524 . S
C921 C918 1.403 . S
C921 C922 1.392 1_565 S
C921 C925 1.495 . S
C922 C921 1.392 1_545 S
C922 C923 1.385 . S
C922 C924 1.478 . S
C923 H917 0.930 . S
C923 C919 1.400 . S
C923 C922 1.385 . S
C924 C922 1.478 . S
C924 C926 1.381 1_545 S
C924 C930 1.383 . S
C925 C921 1.495 . S
C925 H931 0.959 . S
C925 H932 0.961 . S
C925 H933 0.960 . S
C926 C924 1.381 1_565 S
C926 C927 1.394 . S
C926 H934 0.930 . S
C927 C926 1.394 . S
C927 C928 1.383 1_565 S
C927 H935 0.929 . S
C928 C927 1.383 1_545 S
C928 C929 1.377 . S
C929 H913 0.930 . S
C929 C928 1.377 . S
C929 C930 1.379 . S
C930 H914 0.931 . S
C930 C924 1.383 . S
C930 C929 1.379 . S
H931 C925 0.959 . S
H932 C925 0.961 . S
H933 C925 0.960 . S
H934 C926 0.930 . S
H935 C927 0.929 . S
H936 C944 0.929 . S
H937 C946 0.930 . S
H938 C948 0.930 . S
H939 C951 0.929 . S
H940 C954 0.930 . S
H941 C956 0.960 . S
H942 C956 0.960 . S
H943 C956 0.960 . S
C944 H936 0.929 . S
C944 C945 1.377 . S
C944 C946 1.384 . S
C945 C944 1.377 . S
C945 C951 1.390 . S
C946 H937 0.930 . S
C946 C944 1.384 . S
C946 C947 1.372 . S
C947 C946 1.372 . S
C947 C948 1.400 . S
C947 C952 1.490 . S
C948 H938 0.930 . S
C948 C947 1.400 . S
C948 C951 1.386 . S
H949 C965 0.912 1_554 S
H950 C966 0.931 . S
C951 H939 0.929 . S
C951 C945 1.390 . S
C951 C948 1.386 . S
C952 C947 1.490 . S
C952 C954 1.395 . S
C952 C955 1.403 . S
H953 C959 0.930 . S
C954 H940 0.930 . S
C954 C952 1.395 . S
C954 C957 1.403 . S
C955 C952 1.403 . S
C955 C956 1.524 . S
C955 C959 1.400 . S
C956 H941 0.960 . S
C956 H942 0.960 . S
C956 H943 0.960 . S
C956 C955 1.524 . S
C957 C954 1.403 . S
C957 C958 1.392 . S
C957 C961 1.495 . S
C958 C957 1.392 . S
C958 C959 1.385 . S
C958 C960 1.478 . S
C959 H953 0.930 . S
C959 C955 1.400 . S
C959 C958 1.385 . S
C960 C958 1.478 . S
C960 C962 1.381 . S
C960 C966 1.383 . S
C961 C957 1.495 . S
C961 H967 0.959 . S
C961 H968 0.961 . S
C961 H969 0.960 . S
C962 C960 1.381 . S
C962 C963 1.362 1_556 S
C962 H970 0.930 . S
C963 C962 1.362 1_554 S
C963 C964 1.399 . S
C963 H971 0.947 . S
C964 C963 1.399 . S
C964 C965 1.356 1_554 S
C965 H949 0.912 1_556 S
C965 C964 1.356 1_556 S
C965 C966 1.419 . S
C966 H950 0.931 . S
C966 C960 1.383 . S
C966 C965 1.419 . S
H967 C961 0.959 . S
H968 C961 0.961 . S
H969 C961 0.960 . S
H970 C962 0.930 . S
H971 C963 0.947 . S
H972 C980 0.929 . S
H973 C982 0.930 . S
H974 C984 0.930 1_655 S
H975 C987 0.929 1_655 S
H976 C990 0.930 . S
H977 C992 0.960 1_655 S
H978 C992 0.960 . S
H979 C992 0.960 1_655 S
C980 H972 0.929 . S
C980 C981 1.377 . S
C980 C982 1.384 . S
C981 C980 1.377 . S
C981 C987 1.390 . S
C982 H973 0.930 . S
C982 C980 1.384 . S
C982 C983 1.372 . S
C983 C982 1.372 . S
C983 C984 1.400 . S
C983 C988 1.490 . S
C984 H974 0.930 1_455 S
C984 C983 1.400 . S
C984 C987 1.386 . S
H985 C1001 0.930 1_655 S
H986 C1002 0.931 1_655 S
C987 H975 0.929 1_455 S
C987 C981 1.390 . S
C987 C984 1.386 . S
C988 C983 1.490 . S
C988 C990 1.395 . S
C988 C991 1.403 . S
H989 C995 0.930 . S
C990 H976 0.930 . S
C990 C988 1.395 . S
C990 C993 1.403 . S
C991 C988 1.403 . S
C991 C992 1.524 . S
C991 C995 1.400 . S
C992 H977 0.960 1_455 S
C992 H978 0.960 . S
C992 H979 0.960 1_455 S
C992 C991 1.524 . S
C993 C990 1.403 . S
C993 C994 1.392 . S
C993 C997 1.495 . S
C994 C993 1.392 . S
C994 C995 1.385 . S
C994 C996 1.478 . S
C995 H989 0.930 . S
C995 C991 1.400 . S
C995 C994 1.385 . S
C996 C994 1.478 . S
C996 C998 1.381 . S
C996 C1002 1.383 . S
C997 C993 1.495 . S
C997 H1003 0.959 . S
C997 H1004 0.961 . S
C997 H1005 0.960 . S
C998 C996 1.381 . S
C998 C999 1.394 . S
C998 H1006 0.930 . S
C999 C998 1.394 . S
C999 C1000 1.383 . S
C999 H1007 0.929 . S
C1000 C999 1.383 . S
C1000 C1001 1.377 . S
C1001 H985 0.930 1_455 S
C1001 C1000 1.377 . S
C1001 C1002 1.379 . S
C1002 H986 0.931 1_455 S
C1002 C996 1.383 . S
C1002 C1001 1.379 . S
H1003 C997 0.959 . S
H1004 C997 0.961 . S
H1005 C997 0.960 . S
H1006 C998 0.930 . S
H1007 C999 0.929 . S
C369 C10 3.008 . S
C388 C335 2.972 . S
C405 C59 3.079 . S
C424 C242 3.043 . S
C441 C90 2.989 . S
C460 C282 2.971 . S
C477 C19 3.083 . S
C496 C322 3.042 . S
C532 C255 2.978 . S
C513 C50 3.008 . S
C568 C295 3.046 . S
C549 C99 3.101 . S
C585 C46 0.348 . S
C604 C162 0.455 . S
C621 C95 0.273 . S
C640 C202 0.205 . S
C657 C6 0.356 . S
C676 C135 0.388 . S
C712 C175 0.289 . S
C693 C55 0.269 . S
C748 C215 0.352 . S
C729 C86 0.369 . S
C765 C15 0.289 . S
C784 C122 0.299 . S
C820 C221 1.124 . S
C801 C9 1.101 . S
C837 C49 1.095 . S
C856 C141 1.127 . S
C873 C89 1.097 . S
C892 C181 1.097 . S
C928 C301 1.760 . S
C909 C58 1.690 . S
C964 C341 1.764 . S
C945 C98 1.692 . S
C981 C18 1.690 . S
C1000 C261 1.751 . S
