# Generated by pormake.
# Topology anh, (6,3)-cn, num edge types: 1
# Building blocks:
#     Node 0, Type 0, BuildingBlock: CUKXOW_clean_sbu_0, # of connection points: 6
#     Node 1, Type 0, BuildingBlock: CUKXOW_clean_sbu_0, # of connection points: 6
#     Node 2, Type 0, BuildingBlock: CUKXOW_clean_sbu_0, # of connection points: 6
#     Node 3, Type 1, BuildingBlock: WUSLED_clean_sbu_0, # of connection points: 3
#     Node 4, Type 1, BuildingBlock: WUSLED_clean_sbu_0, # of connection points: 3
#     Node 5, Type 1, BuildingBlock: WUSLED_clean_sbu_0, # of connection points: 3
#     Node 6, Type 1, BuildingBlock: WUSLED_clean_sbu_0, # of connection points: 3
#     Node 7, Type 1, BuildingBlock: WUSLED_clean_sbu_0, # of connection points: 3
#     Node 8, Type 1, BuildingBlock: WUSLED_clean_sbu_0, # of connection points: 3
#     Edge 9, Type (0, 1), BuildingBlock: EZIPEK_clean_linker_0, # of connection points: 2
#     Edge 10, Type (0, 1), BuildingBlock: EZIPEK_clean_linker_0, # of connection points: 2
#     Edge 11, Type (0, 1), BuildingBlock: EZIPEK_clean_linker_0, # of connection points: 2
#     Edge 12, Type (0, 1), BuildingBlock: EZIPEK_clean_linker_0, # of connection points: 2
#     Edge 13, Type (0, 1), BuildingBlock: EZIPEK_clean_linker_0, # of connection points: 2
#     Edge 14, Type (0, 1), BuildingBlock: EZIPEK_clean_linker_0, # of connection points: 2
#     Edge 15, Type (0, 1), BuildingBlock: EZIPEK_clean_linker_0, # of connection points: 2
#     Edge 16, Type (0, 1), BuildingBlock: EZIPEK_clean_linker_0, # of connection points: 2
#     Edge 17, Type (0, 1), BuildingBlock: EZIPEK_clean_linker_0, # of connection points: 2
#     Edge 18, Type (0, 1), BuildingBlock: EZIPEK_clean_linker_0, # of connection points: 2
#     Edge 19, Type (0, 1), BuildingBlock: EZIPEK_clean_linker_0, # of connection points: 2
#     Edge 20, Type (0, 1), BuildingBlock: EZIPEK_clean_linker_0, # of connection points: 2
#     Edge 21, Type (0, 1), BuildingBlock: EZIPEK_clean_linker_0, # of connection points: 2
#     Edge 22, Type (0, 1), BuildingBlock: EZIPEK_clean_linker_0, # of connection points: 2
#     Edge 23, Type (0, 1), BuildingBlock: EZIPEK_clean_linker_0, # of connection points: 2
#     Edge 24, Type (0, 1), BuildingBlock: EZIPEK_clean_linker_0, # of connection points: 2
#     Edge 25, Type (0, 1), BuildingBlock: EZIPEK_clean_linker_0, # of connection points: 2
#     Edge 26, Type (0, 1), BuildingBlock: EZIPEK_clean_linker_0, # of connection points: 2
# Relax obj value: 0.130
# Max RMSD: 0.190
# Mean RMSD: 0.136
data_MOF--net-anh--node1-CUKXOW_clean_sbu_0--node2-WUSLED_clean_sbu_0--edge1-EZIPEK_clean_linker_0
_symmetry_space_group_name_H-M    P1
_symmetry_Int_Tables_number       1
_symmetry_cell_setting            triclinic
loop_
_symmetry_equiv_pos_as_xyz
'x, y, z'
_cell_length_a     30.141362
_cell_length_b     29.100939
_cell_length_c     53.472938
_cell_angle_alpha  94.848952
_cell_angle_beta   90.59035
_cell_angle_gamma 114.74292
loop_
_atom_site_label
_atom_site_type_symbol
_atom_site_fract_x
_atom_site_fract_y
_atom_site_fract_z
_atom_type_partial_charge
Tb0 Tb 0.0841 0.55497 0.17836 0.0
C1 C 0.04986 0.50022 0.22776 0.0
Tb2 Tb 0.02352 0.43908 0.17328 0.0
O3 O 1.01866 0.56937 0.1863 0.0
O4 O 1.01093 0.5036 0.16599 0.0
O5 O 0.07655 0.54297 0.21795 0.0
C6 C 0.93743 0.36005 0.17461 0.0
O7 O 0.02774 0.45599 0.21402 0.0
C8 C 0.11934 0.45782 0.17442 0.0
C9 C 0.06321 0.49452 0.12491 0.0
O10 O 0.95104 0.40353 0.18771 0.0
O11 O 0.97255 0.36022 0.16046 0.0
O12 O 0.08256 0.4131 0.17413 0.0
O13 O 0.09928 0.48909 0.1767 0.0
O14 O 0.02848 0.45429 0.13385 0.0
O15 O 0.09397 0.53475 0.13946 0.0
C16 C 0.15646 0.64839 0.18072 0.0
O17 O 0.12147 0.62899 0.16332 0.0
O18 O 0.15021 0.6158 0.19694 0.0
C19 C 0.98638 0.52537 0.17658 0.0
Tb20 Tb 0.49303 0.01441 0.51343 0.0
C21 C 0.54 0.04402 0.46211 0.0
Tb22 Tb 0.60247 0.07503 0.51495 0.0
O23 O 0.48027 0.07905 0.50301 0.0
O24 O 0.54249 0.09128 0.52477 0.0
O25 O 0.5005 0.01374 0.47297 0.0
C26 C 0.68649 0.15634 0.513 0.0
O27 O 0.58191 0.07281 0.47494 0.0
C28 C 0.57751 0.97772 0.51483 0.0
C29 C 0.55121 0.04425 0.56646 0.0
O30 O 0.65799 0.13026 0.49386 0.0
O31 O 0.66904 0.13534 0.5332 0.0
O32 O 0.62175 0.01198 0.52075 0.0
O33 O 0.55416 0.99932 0.50482 0.0
O34 O 0.59173 0.07216 0.55539 0.0
O35 O 0.509 0.0182 0.55355 0.0
C36 C 0.40718 0.93628 0.51488 0.0
O37 O 0.41464 0.9836 0.51915 0.0
O38 O 0.4478 0.93309 0.51006 0.0
C39 C 0.52202 0.11329 0.51273 0.0
Tb40 Tb 0.53229 0.53452 0.84542 0.0
C41 C 0.58498 0.54764 0.89883 0.0
Tb42 Tb 0.64378 0.56974 0.84867 0.0
O43 O 0.52062 0.45908 0.82855 0.0
O44 O 0.58081 0.50017 0.85256 0.0
O45 O 0.54686 0.54894 0.88642 0.0
C46 C 0.73102 0.56958 0.84557 0.0
O47 O 0.62483 0.5499 0.88724 0.0
C48 C 0.62132 0.649 0.8495 0.0
C49 C 0.58881 0.55586 0.7955 0.0
O50 O 0.71919 0.59624 0.86277 0.0
O51 O 0.69367 0.54309 0.8302 0.0
O52 O 0.66589 0.65322 0.85101 0.0
O53 O 0.59452 0.60235 0.84851 0.0
O54 O 0.62914 0.56023 0.80775 0.0
O55 O 0.54808 0.54851 0.80678 0.0
C56 C 0.44803 0.5406 0.84016 0.0
O57 O 0.48657 0.5646 0.82814 0.0
O58 O 0.45653 0.51227 0.8555 0.0
C59 C 0.56042 0.4593 0.83833 0.0
C60 C 0.64085 0.14626 0.19061 0.0
C61 C 0.66631 0.18345 0.21039 0.0
C62 C 0.73633 0.21955 0.18433 0.0
C63 C 0.71373 0.22017 0.2072 0.0
C64 C 0.71006 0.1833 0.16442 0.0
C65 C 0.6627 0.14713 0.16753 0.0
U66 U 0.53923 0.05443 0.22956 0.0
O67 O 0.50412 0.9703 0.2222 0.0
O68 O 0.46028 0.01533 0.21954 0.0
C69 C 0.46143 0.97047 0.21715 0.0
C70 C 0.59351 0.10348 0.19384 0.0
C71 C 0.41715 0.92402 0.20913 0.0
C72 C 0.34657 0.87714 0.18015 0.0
C73 C 0.38848 0.92159 0.18773 0.0
C74 C 0.36185 0.83707 0.21515 0.0
C75 C 0.33268 0.83485 0.19405 0.0
C76 C 0.40398 0.88119 0.22251 0.0
C77 C 0.55731 0.07581 0.30324 0.0
C78 C 0.50221 0.04169 0.33683 0.0
C79 C 0.58961 0.08507 0.3462 0.0
C80 C 0.597 0.09321 0.3209 0.0
C81 C 0.54227 0.05947 0.35443 0.0
C82 C 0.50968 0.0497 0.31132 0.0
C83 C 0.5678 0.08732 0.27695 0.0
O84 O 0.5965 0.06421 0.20279 0.0
O85 O 0.55855 0.11414 0.20348 0.0
O86 O 0.53773 0.10022 0.26434 0.0
O87 O 0.58345 0.05795 0.2633 0.0
H88 H 0.65013 0.18324 0.2284 0.0
H89 H 0.73343 0.24796 0.22276 0.0
H90 H 0.72675 0.18223 0.14666 0.0
H91 H 0.64363 0.11869 0.15208 0.0
H92 H 0.32443 0.87606 0.16383 0.0
H93 H 0.39852 0.954 0.17689 0.0
H94 H 0.35148 0.80487 0.22615 0.0
H95 H 0.4258 0.88221 0.23895 0.0
H96 H 0.46536 0.02183 0.34285 0.0
H97 H 0.6209 0.09924 0.35946 0.0
H98 H 0.63398 0.11363 0.31513 0.0
H99 H 0.47847 0.03591 0.29802 0.0
C100 C 0.53749 0.67206 0.53277 0.0
C101 C 0.51427 0.69248 0.55015 0.0
C102 C 0.53899 0.76849 0.52781 0.0
C103 C 0.51512 0.74054 0.5477 0.0
C104 C 0.5616 0.74769 0.51038 0.0
C105 C 0.56083 0.69998 0.51285 0.0
U106 U 0.54049 0.54857 0.55831 0.0
O107 O 0.57703 0.50604 0.53818 0.0
O108 O 0.49701 0.47166 0.5396 0.0
C109 C 0.53579 0.46621 0.53167 0.0
C110 C 0.53579 0.6207 0.53334 0.0
C111 C 0.5356 0.41552 0.53209 0.0
C112 C 0.51199 0.33105 0.51056 0.0
C113 C 0.51115 0.37881 0.51201 0.0
C114 C 0.56193 0.35572 0.5494 0.0
C115 C 0.53744 0.31914 0.52918 0.0
C116 C 0.56102 0.40375 0.55088 0.0
C117 C 0.55593 0.56069 0.6351 0.0
C118 C 0.53142 0.52199 0.67429 0.0
C119 C 0.60005 0.60436 0.67472 0.0
C120 C 0.59355 0.60272 0.64859 0.0
C121 C 0.56943 0.56367 0.68771 0.0
C122 C 0.52455 0.52064 0.64823 0.0
C123 C 0.55101 0.55714 0.60732 0.0
O124 O 0.57695 0.61747 0.53873 0.0
O125 O 0.49725 0.58505 0.5421 0.0
O126 O 0.50787 0.53631 0.59526 0.0
O127 O 0.58876 0.57435 0.59307 0.0
H128 H 0.4956 0.67144 0.56552 0.0
H129 H 0.49768 0.7562 0.5614 0.0
H130 H 0.58036 0.7687 0.49501 0.0
H131 H 0.57839 0.68464 0.49904 0.0
H132 H 0.49305 0.30342 0.4948 0.0
H133 H 0.49178 0.38735 0.4972 0.0
H134 H 0.5818 0.34711 0.56392 0.0
H135 H 0.58039 0.43166 0.56645 0.0
H136 H 0.50738 0.49029 0.68399 0.0
H137 H 0.62936 0.637 0.68478 0.0
H138 H 0.61811 0.63414 0.63891 0.0
H139 H 0.49548 0.48765 0.63825 0.0
C140 C 0.99667 0.5328 0.84969 0.0
C141 C 0.95287 0.49771 0.85851 0.0
C142 C 0.90957 0.54329 0.84216 0.0
C143 C 0.90948 0.50269 0.85454 0.0
C144 C 0.95263 0.57673 0.83213 0.0
C145 C 0.99601 0.57128 0.83577 0.0
U146 U 0.07722 0.52871 0.9025 0.0
O147 O 0.12801 0.49299 0.90496 0.0
O148 O 0.15497 0.5761 0.91227 0.0
C149 C 0.1662 0.53714 0.90838 0.0
C150 C 0.04375 0.5345 0.85816 0.0
C151 C 0.20369 0.54348 0.89047 0.0
C152 C 0.2287 0.5459 0.84745 0.0
C153 C 0.19373 0.54381 0.86474 0.0
C154 C 0.28362 0.54864 0.88174 0.0
C155 C 0.27336 0.5474 0.85597 0.0
C156 C 0.24887 0.54666 0.89893 0.0
C157 C 0.03322 0.51084 0.96763 0.0
C158 C 0.09003 0.51398 1.00103 0.0
C159 C 1.00593 0.49653 1.00982 0.0
C160 C 0.99615 0.50012 0.98469 0.0
C161 C 0.05287 0.50358 0.01813 0.0
C162 C 0.08017 0.51743 0.97582 0.0
C163 C 1.0229 0.5152 0.94135 0.0
O164 O 0.06999 0.57476 0.8736 0.0
O165 O 0.04276 0.49196 0.86538 0.0
O166 O 1.0213 0.47744 0.92548 0.0
O167 O 0.04819 0.56022 0.93365 0.0
H168 H 0.95249 0.46808 0.86959 0.0
H169 H 0.8764 0.47676 0.86244 0.0
H170 H 0.95308 0.60832 0.82261 0.0
H171 H 0.02955 0.59885 0.82901 0.0
H172 H 0.22073 0.54526 0.82759 0.0
H173 H 0.15867 0.54142 0.85809 0.0
H174 H 0.31832 0.55016 0.88844 0.0
H175 H 0.25684 0.54653 0.91873 0.0
H176 H 0.12655 0.52006 1.00726 0.0
H177 H 0.97709 0.48899 0.02293 0.0
H178 H 0.95983 0.49496 0.97861 0.0
H179 H 0.10919 0.52571 0.96277 0.0
C180 C 0.90734 0.45089 0.49517 0.0
C181 C 0.86793 0.42889 0.47738 0.0
C182 C 0.83018 0.35862 0.50288 0.0
C183 C 0.82914 0.3827 0.48132 0.0
C184 C 0.86893 0.38161 0.52089 0.0
C185 C 0.90712 0.42767 0.5171 0.0
U186 U 1.01792 0.55668 0.46449 0.0
O187 O 0.08956 0.58572 0.4845 0.0
O188 O 0.05135 0.63557 0.48211 0.0
C189 C 0.08916 0.62993 0.49136 0.0
C190 C 0.95062 0.49697 0.49182 0.0
C191 C 0.13602 0.67397 0.4943 0.0
C192 C 0.19274 0.74466 0.52206 0.0
C193 C 0.14773 0.70319 0.5176 0.0
C194 C 0.21506 0.72765 0.47988 0.0
C195 C 0.22637 0.75718 0.50319 0.0
C196 C 0.16983 0.68583 0.47544 0.0
C197 C 1.01727 0.53267 0.38796 0.0
C198 C 0.02449 0.56421 0.34673 0.0
C199 C 1.0184 0.47942 0.3505 0.0
C200 C 1.01544 0.48654 0.37656 0.0
C201 C 0.02372 0.5185 0.33547 0.0
C202 C 1.02105 0.57115 0.37277 0.0
C203 C 1.01751 0.54143 0.41564 0.0
O204 O 0.99007 0.49069 0.48606 0.0
O205 O 0.94609 0.53415 0.48128 0.0
O206 O 0.99898 0.57108 0.42677 0.0
O207 O 0.03599 0.5198 0.43078 0.0
H208 H 0.86774 0.44661 0.46039 0.0
H209 H 0.79931 0.36484 0.46725 0.0
H210 H 0.87013 0.36321 0.53752 0.0
H211 H 0.93734 0.44459 0.53104 0.0
H212 H 0.20111 0.76742 0.54004 0.0
H213 H 0.12196 0.69383 0.5324 0.0
H214 H 0.24096 0.73739 0.46517 0.0
H215 H 0.16125 0.66302 0.45747 0.0
H216 H 0.02858 0.59476 0.3354 0.0
H217 H 1.01745 0.4438 0.34209 0.0
H218 H 1.01214 0.45614 0.38783 0.0
H219 H 1.02271 0.60712 0.3811 0.0
C220 C 0.56573 0.91363 0.83422 0.0
C221 C 0.55036 0.87533 0.81405 0.0
C222 C 0.57539 0.82207 0.83841 0.0
C223 C 0.55503 0.82973 0.81618 0.0
C224 C 0.58986 0.86011 0.85862 0.0
C225 C 0.58498 0.90537 0.85654 0.0
U226 U 0.56031 0.02618 0.80089 0.0
O227 O 0.52238 0.07374 0.81404 0.0
O228 O 0.60315 0.10727 0.81402 0.0
C229 C 0.56386 0.11356 0.82027 0.0
C230 C 0.56352 0.96309 0.83275 0.0
C231 C 0.56539 0.16505 0.82332 0.0
C232 C 0.57121 0.23712 0.85205 0.0
C233 C 0.56995 0.18852 0.84785 0.0
C234 C 0.56367 0.23999 0.80711 0.0
C235 C 0.56786 0.26317 0.83174 0.0
C236 C 0.56249 0.19111 0.80289 0.0
C237 C 0.55583 1.01019 0.72603 0.0
C238 C 0.54926 0.06071 0.69327 0.0
C239 C 0.55975 0.98361 0.68202 0.0
C240 C 0.56041 0.97573 0.7074 0.0
C241 C 0.55407 0.02604 0.67461 0.0
C242 C 0.55028 0.05293 0.71888 0.0
C243 C 0.55682 0.99905 0.75242 0.0
O244 O 0.60259 0.9993 0.82485 0.0
O245 O 0.52251 0.96265 0.82387 0.0
O246 O 0.51755 0.99044 0.76524 0.0
O247 O 0.59795 0.02362 0.76602 0.0
H248 H 0.53546 0.88096 0.79665 0.0
H249 H 0.5438 0.80087 0.80034 0.0
H250 H 0.60578 0.85512 0.87587 0.0
H251 H 0.59699 0.93441 0.87232 0.0
H252 H 0.57425 0.25422 0.87116 0.0
H253 H 0.57229 0.16901 0.86386 0.0
H254 H 0.56093 0.25957 0.79123 0.0
H255 H 0.55906 0.17367 0.78384 0.0
H256 H 0.54471 0.09366 0.68799 0.0
H257 H 0.5634 0.95631 0.66808 0.0
H258 H 0.56448 0.94239 0.7125 0.0
H259 H 0.54665 0.07997 0.73298 0.0
C260 C 0.67774 0.48104 0.15747 0.0
C261 C 0.71498 0.51259 0.14281 0.0
C262 C 0.77685 0.4898 0.16251 0.0
C263 C 0.76358 0.51669 0.14522 0.0
C264 C 0.73931 0.45757 0.17675 0.0
C265 C 0.69089 0.45336 0.17428 0.0
U266 U 0.54976 0.48077 0.13293 0.0
O267 O 0.47559 0.43527 0.14631 0.0
O268 O 0.50812 0.51784 0.15391 0.0
C269 C 0.47011 0.47504 0.15674 0.0
C270 C 0.62665 0.47951 0.15784 0.0
C271 C 0.41936 0.47437 0.15768 0.0
C272 C 0.34967 0.46888 0.18325 0.0
C273 C 0.39654 0.46916 0.18088 0.0
C274 C 0.346 0.47882 0.13914 0.0
C275 C 0.32334 0.47368 0.16247 0.0
C276 C 0.39324 0.4793 0.13677 0.0
C277 C 0.55739 0.49474 0.05699 0.0
C278 C 0.54468 0.53404 0.0206 0.0
C279 C 0.58368 0.47634 0.0157 0.0
C280 C 0.5787 0.46897 0.04137 0.0
C281 C 0.56682 0.5091 1.00508 0.0
C282 C 0.54035 0.52723 0.0463 0.0
C283 C 0.55474 0.48952 0.08445 0.0
O284 O 0.62101 0.52105 0.15453 0.0
O285 O 0.58923 0.43835 0.14811 0.0
O286 O 0.53856 0.44514 0.09362 0.0
O287 O 0.56753 0.52901 0.1013 0.0
H288 H 0.70681 0.53484 0.12977 0.0
H289 H 0.79119 0.54179 0.13385 0.0
H290 H 0.74768 0.43619 0.19022 0.0
H291 H 0.6637 0.4291 0.18613 0.0
H292 H 0.33373 0.4645 0.20145 0.0
H293 H 0.41519 0.46525 0.19744 0.0
H294 H 0.32699 0.48235 0.12263 0.0
H295 H 0.40924 0.48344 0.1186 0.0
H296 H 0.53115 0.5592 0.01283 0.0
H297 H 0.60091 0.45673 1.00413 0.0
H298 H 0.59248 0.444 0.04914 0.0
H299 H 0.52361 0.54738 0.05786 0.0
C300 C 0.21471 0.51357 0.17223 0.0
C301 C 0.17273 0.4655 0.16884 0.0
C302 C 0.23009 0.42414 0.16171 0.0
C303 C 0.27169 0.47152 0.16504 0.0
N304 N 0.30412 0.56217 0.1735 0.0
N305 N 0.14502 0.3801 0.14804 0.0
C306 C 0.26396 0.51649 0.17033 0.0
C307 C 0.18172 0.42213 0.16033 0.0
N308 N 0.20747 0.55674 0.17576 0.0
N309 N 0.23643 0.38017 0.15991 0.0
H310 H 0.11202 0.37967 0.14184 0.0
H311 H 0.15024 0.34902 0.13993 0.0
H312 H 0.27079 0.37957 0.15993 0.0
H313 H 0.2076 0.34452 0.16073 0.0
H314 H 0.23474 0.5932 0.17999 0.0
H315 H 0.17345 0.55635 0.17239 0.0
H316 H 0.30321 0.59728 0.17752 0.0
H317 H 0.33973 0.56516 0.17226 0.0
C318 C 0.76356 0.21491 0.49552 0.0
C319 C 0.72538 0.20772 0.51216 0.0
C320 C 0.75646 0.29963 0.52311 0.0
C321 C 0.79334 0.30686 0.50569 0.0
N322 N 0.83817 0.27328 0.47838 0.0
N323 N 0.67963 0.24264 0.53842 0.0
C324 C 0.79841 0.26499 0.49256 0.0
C325 C 0.72054 0.2498 0.52538 0.0
N326 N 0.76572 0.17366 0.48219 0.0
N327 N 0.75636 0.34045 0.53781 0.0
H328 H 0.65125 0.20719 0.54012 0.0
H329 H 0.67123 0.27214 0.5458 0.0
H330 H 0.78007 0.37797 0.53558 0.0
H331 H 0.73508 0.33717 0.55335 0.0
H332 H 0.78812 0.17589 0.46725 0.0
H333 H 0.74352 0.13626 0.48546 0.0
H334 H 0.84724 0.24475 0.47037 0.0
H335 H 0.86453 0.30944 0.4757 0.0
C336 C 0.57174 0.6992 0.86105 0.0
C337 C 0.60658 0.69111 0.84574 0.0
C338 C 0.62254 0.7702 0.82664 0.0
C339 C 0.58462 0.77579 0.84022 0.0
N340 N 0.51786 0.74168 0.86756 0.0
N341 N 0.65731 0.71336 0.81002 0.0
C342 C 0.55756 0.73899 0.85657 0.0
C343 C 0.62981 0.72509 0.82744 0.0
N344 N 0.55412 0.67074 0.88072 0.0
N345 N 0.65314 0.80895 0.81376 0.0
H346 H 0.66203 0.67977 0.80911 0.0
H347 H 0.67067 0.73393 0.79465 0.0
H348 H 0.6495 0.84285 0.81277 0.0
H349 H 0.68491 0.80948 0.80602 0.0
H350 H 0.53253 0.67812 0.89412 0.0
H351 H 0.56488 0.6426 0.88506 0.0
H352 H 0.49376 0.71341 0.87774 0.0
H353 H 0.5064 0.77011 0.86461 0.0
C354 C 0.90634 0.52436 0.19315 0.0
C355 C 0.93138 0.51194 0.17294 0.0
C356 C 0.85269 0.47807 0.14718 0.0
C357 C 0.82989 0.49638 0.16629 0.0
N358 N 0.83885 0.54416 0.20649 0.0
N359 N 0.92807 0.48488 0.12862 0.0
C360 C 0.85782 0.52128 0.18902 0.0
C361 C 0.90431 0.4905 0.14944 0.0
N362 N 0.92827 0.53776 0.21677 0.0
N363 N 0.82472 0.44768 0.12688 0.0
H364 H 0.9655 0.49547 0.12875 0.0
H365 H 0.91162 0.47482 0.11057 0.0
H366 H 0.78727 0.43757 0.12466 0.0
H367 H 0.83756 0.42878 0.11346 0.0
H368 H 0.91001 0.54112 0.23277 0.0
H369 H 0.96324 0.54061 0.22087 0.0
H370 H 0.85917 0.56797 0.22206 0.0
H371 H 0.80408 0.54326 0.20428 0.0
C372 C 0.35437 0.84992 0.52671 0.0
C373 C 0.35952 0.89226 0.51369 0.0
C374 C 0.27494 0.84815 0.49713 0.0
C375 C 0.27203 0.80371 0.50733 0.0
N376 N 0.30927 0.75962 0.53001 0.0
N377 N 0.32784 0.92865 0.48285 0.0
C378 C 0.31182 0.80379 0.52169 0.0
C379 C 0.32057 0.8909 0.49808 0.0
N380 N 0.38936 0.85442 0.54446 0.0
N381 N 0.23392 0.84978 0.48689 0.0
H382 H 0.36118 0.96001 0.48205 0.0
H383 H 0.30209 0.92641 0.4691 0.0
H384 H 0.19969 0.8189 0.48555 0.0
H385 H 0.2329 0.88312 0.4818 0.0
H386 H 0.38556 0.8264 0.55622 0.0
H387 H 0.42035 0.88821 0.54918 0.0
H388 H 0.33902 0.7561 0.53823 0.0
H389 H 0.27819 0.72527 0.52702 0.0
C390 C 0.60963 0.40708 0.84357 0.0
C391 C 0.564 0.41037 0.84265 0.0
C392 C 0.52157 0.31701 0.84041 0.0
C393 C 0.56683 0.31397 0.83656 0.0
N394 N 0.65453 0.35558 0.83472 0.0
N395 N 0.47989 0.36986 0.8535 0.0
C396 C 0.61111 0.35889 0.83839 0.0
C397 C 0.52065 0.3656 0.84482 0.0
N398 N 0.65087 0.44893 0.85183 0.0
N399 N 0.47926 0.2734 0.83919 0.0
H400 H 0.47978 0.40477 0.85964 0.0
H401 H 0.44836 0.33921 0.85783 0.0
H402 H 0.47864 0.23717 0.83701 0.0
H403 H 0.44451 0.27284 0.83882 0.0
H404 H 0.68497 0.4486 0.85464 0.0
H405 H 0.64925 0.48204 0.85969 0.0
H406 H 0.68733 0.38702 0.83284 0.0
H407 H 0.65724 0.32095 0.83185 0.0
C408 C 0.58002 0.9114 0.54114 0.0
C409 C 0.55995 0.92289 0.51956 0.0
C410 C 0.51665 0.83092 0.50675 0.0
C411 C 0.54346 0.82106 0.52593 0.0
N412 N 0.60693 0.85326 0.55899 0.0
N413 N 0.51109 0.89194 0.48034 0.0
C414 C 0.57674 0.86164 0.54251 0.0
C415 C 0.52824 0.8822 0.50207 0.0
N416 N 0.60073 0.94751 0.56098 0.0
N417 N 0.47964 0.79119 0.4932 0.0
H418 H 0.51655 0.92808 0.4763 0.0
H419 H 0.49364 0.86422 0.46551 0.0
H420 H 0.47061 0.75333 0.49603 0.0
H421 H 0.45518 0.79579 0.48086 0.0
H422 H 0.61136 0.93953 0.57809 0.0
H423 H 0.60166 0.98371 0.56164 0.0
H424 H 0.63599 0.88262 0.56932 0.0
H425 H 0.60593 0.81741 0.56072 0.0
C426 C 0.79793 0.56145 0.82092 0.0
C427 C 0.77842 0.56636 0.84457 0.0
C428 C 0.85079 0.56761 0.86584 0.0
C429 C 0.86588 0.55394 0.84247 0.0
N430 N 0.84975 0.52989 0.79787 0.0
N431 N 0.78129 0.56073 0.88954 0.0
C432 C 0.83835 0.5486 0.81996 0.0
C433 C 0.80349 0.56612 0.86712 0.0
N434 N 0.7794 0.57109 0.79955 0.0
N435 N 0.88172 0.58251 0.88677 0.0
H436 H 0.74486 0.55438 0.89129 0.0
H437 H 0.79722 0.55599 0.90595 0.0
H438 H 0.91732 0.58517 0.88649 0.0
H439 H 0.87372 0.59737 0.90367 0.0
H440 H 0.79521 0.57204 0.78225 0.0
H441 H 0.75193 0.58399 0.79959 0.0
H442 H 0.8275 0.52021 0.78147 0.0
H443 H 0.87909 0.51982 0.79649 0.0
C444 C 0.20241 0.73766 0.20033 0.0
C445 C 0.19881 0.69863 0.18157 0.0
C446 C 0.28235 0.75013 0.16954 0.0
C447 C 0.28546 0.78954 0.18801 0.0
N448 N 0.24554 0.82602 0.21696 0.0
N449 N 0.2311 0.67007 0.14544 0.0
C450 C 0.24449 0.78485 0.20216 0.0
C451 C 0.23739 0.70579 0.16513 0.0
N452 N 0.16603 0.72919 0.21681 0.0
N453 N 0.32295 0.75428 0.15699 0.0
H454 H 0.19935 0.63646 0.14216 0.0
H455 H 0.25574 0.67513 0.13131 0.0
H456 H 0.35598 0.7867 0.15935 0.0
H457 H 0.32502 0.72471 0.14541 0.0
H458 H 0.16922 0.75344 0.23287 0.0
H459 H 0.13343 0.69623 0.21525 0.0
H460 H 0.21512 0.82685 0.22567 0.0
H461 H 0.27581 0.86117 0.21883 0.0
C462 C 0.50324 0.17953 0.53771 0.0
C463 C 0.53064 0.16747 0.51892 0.0
C464 C 0.56877 0.25721 0.5099 0.0
C465 C 0.53807 0.26799 0.52717 0.0
N466 N 0.47248 0.23933 0.55555 0.0
N467 N 0.59347 0.19473 0.48904 0.0
C468 C 0.5047 0.22924 0.54075 0.0
C469 C 0.5647 0.20644 0.50558 0.0
N470 N 0.47695 0.14375 0.55325 0.0
N471 N 0.60072 0.29553 0.49719 0.0
H472 H 0.5903 0.15797 0.48526 0.0
H473 H 0.62132 0.22069 0.47951 0.0
H474 H 0.60585 0.33327 0.50073 0.0
H475 H 0.62212 0.29086 0.48297 0.0
H476 H 0.46071 0.15161 0.56914 0.0
H477 H 0.47486 0.10693 0.55163 0.0
H478 H 0.44304 0.21144 0.56337 0.0
H479 H 0.47292 0.27539 0.55868 0.0
C480 C 0.35779 0.49686 0.83178 0.0
C481 C 0.40089 0.54294 0.83569 0.0
C482 C 0.35233 0.59241 0.83755 0.0
C483 C 0.3105 0.54653 0.83868 0.0
N484 N 0.26873 0.45683 0.82789 0.0
N485 N 0.44012 0.63482 0.83517 0.0
C486 C 0.3118 0.49916 0.83242 0.0
C487 C 0.39856 0.5909 0.83575 0.0
N488 N 0.36112 0.45136 0.82792 0.0
N489 N 0.34754 0.63719 0.8406 0.0
H490 H 0.47532 0.637 0.83658 0.0
H491 H 0.44015 0.66972 0.83231 0.0
H492 H 0.3132 0.63792 0.84098 0.0
H493 H 0.37654 0.67305 0.84303 0.0
H494 H 0.33149 0.41607 0.82751 0.0
H495 H 0.39418 0.44875 0.82499 0.0
H496 H 0.26601 0.42065 0.82221 0.0
H497 H 0.23507 0.45907 0.82815 0.0
C498 C 0.87574 0.28464 0.19332 0.0
C499 C 0.88744 0.31927 0.17474 0.0
C500 C 0.80026 0.29206 0.1641 0.0
C501 C 0.78846 0.25473 0.18142 0.0
N502 N 0.81542 0.20851 0.20882 0.0
N503 N 0.86227 0.34986 0.13925 0.0
C504 C 0.82636 0.24903 0.19502 0.0
C505 C 0.85008 0.32093 0.15907 0.0
N506 N 0.91167 0.28658 0.20975 0.0
N507 N 0.76404 0.30168 0.15337 0.0
H508 H 0.89845 0.37196 0.13526 0.0
H509 H 0.83682 0.34811 0.12546 0.0
H510 H 0.72723 0.28209 0.15701 0.0
H511 H 0.77084 0.33211 0.14274 0.0
H512 H 0.90459 0.26683 0.22568 0.0
H513 H 0.94854 0.31053 0.20831 0.0
H514 H 0.8419 0.19952 0.21701 0.0
H515 H 0.77989 0.18106 0.21025 0.0
C516 C 0.06011 0.53974 0.0877 0.0
C517 C 0.06449 0.49785 0.0975 0.0
C518 C 0.06545 0.46062 0.05478 0.0
C519 C 0.06318 0.50366 0.04525 0.0
N520 N 0.07278 0.59021 0.05255 0.0
N521 N 0.08235 0.42446 0.09101 0.0
C522 C 0.06533 0.54524 0.06173 0.0
C523 C 0.07046 0.45996 0.08122 0.0
N524 N 0.04792 0.57263 0.10279 0.0
N525 N 0.06125 0.41983 0.03865 0.0
H526 H 0.08692 0.42346 0.11028 0.0
H527 H 0.09196 0.39897 0.0801 0.0
H528 H 0.05876 0.41959 0.01917 0.0
H529 H 0.05718 0.38517 0.04458 0.0
H530 H 0.03914 0.60037 0.09589 0.0
H531 H 0.04152 0.5692 0.1218 0.0
H532 H 0.07973 0.62347 0.06405 0.0
H533 H 0.07708 0.5956 0.03352 0.0
C534 C 0.52931 0.08624 0.42463 0.0
C535 C 0.53733 0.04627 0.43438 0.0
C536 C 0.53761 1.00945 0.39127 0.0
C537 C 0.53564 0.05261 0.38172 0.0
N538 N 0.53463 0.13499 0.38922 0.0
N539 N 0.55665 0.97401 0.42716 0.0
C540 C 0.53276 0.0918 0.3984 0.0
C541 C 0.5432 1.00876 0.41773 0.0
N542 N 0.51708 0.11814 0.44036 0.0
N543 N 0.53403 0.96905 0.37503 0.0
H544 H 0.56322 0.97396 0.44631 0.0
H545 H 0.56597 0.9486 0.41601 0.0
H546 H 0.53083 0.96875 0.35556 0.0
H547 H 0.52994 0.9343 0.38084 0.0
H548 H 0.50611 0.14493 0.43416 0.0
H549 H 0.51366 0.11478 0.45954 0.0
H550 H 0.53904 0.16759 0.40063 0.0
H551 H 0.53496 0.13951 0.37007 0.0
C552 C 0.57007 0.59452 0.75867 0.0
C553 C 0.58845 0.56098 0.76793 0.0
C554 C 0.60134 0.53559 0.72453 0.0
C555 C 0.57747 0.56423 0.71536 0.0
N556 N 0.533 0.61562 0.72354 0.0
N557 N 0.61397 0.49311 0.75919 0.0
C558 C 0.56024 0.59233 0.7324 0.0
C559 C 0.60248 0.53004 0.75075 0.0
N560 N 0.56342 0.62975 0.77491 0.0
N561 N 0.62351 0.51417 0.70819 0.0
H562 H 0.61377 0.48648 0.77805 0.0
H563 H 0.61921 0.46581 0.74726 0.0
H564 H 0.62289 0.51686 0.68887 0.0
H565 H 0.64606 0.49763 0.714 0.0
H566 H 0.55539 0.65878 0.76906 0.0
H567 H 0.57057 0.63326 0.79423 0.0
H568 H 0.51438 0.63143 0.73512 0.0
H569 H 0.52564 0.61556 0.70443 0.0
C570 C 0.58473 0.08233 0.6113 0.0
C571 C 0.5527 0.0407 0.59436 0.0
C572 C 0.51586 0.99495 0.63076 0.0
C573 C 0.55252 0.03291 0.6472 0.0
N574 N 0.62972 0.10706 0.65162 0.0
N575 N 0.49919 0.95032 0.58936 0.0
C576 C 0.58941 0.07494 0.63704 0.0
C577 C 0.52131 0.99494 0.60444 0.0
N578 N 0.60871 0.12965 0.60346 0.0
N579 N 0.47546 0.95901 0.64016 0.0
H580 H 0.50664 0.94629 0.57053 0.0
H581 H 0.47887 0.91567 0.59643 0.0
H582 H 0.46947 0.95852 0.65934 0.0
H583 H 0.44573 0.93336 0.62868 0.0
H584 H 0.6297 0.16148 0.61573 0.0
H585 H 0.60266 0.1387 0.5857 0.0
H586 H 0.65996 0.135 0.64428 0.0
H587 H 0.63502 0.10243 0.67038 0.0
C588 C 0.53925 0.49552 0.93378 0.0
C589 C 0.58079 0.53758 0.92615 0.0
C590 C 0.61452 0.55886 0.97018 0.0
C591 C 0.57249 0.51777 0.97773 0.0
N592 N 0.49694 0.44421 0.96723 0.0
N593 N 0.65941 0.60767 0.93667 0.0
C594 C 0.53529 0.48554 0.95964 0.0
C595 C 0.61897 0.56857 0.94426 0.0
N596 N 0.50402 0.46425 0.91612 0.0
N597 N 0.64951 0.58955 0.98811 0.0
H598 H 0.66155 0.62026 0.91887 0.0
H599 H 0.69153 0.62757 0.94766 0.0
H600 H 0.64819 0.58254 1.00696 0.0
H601 H 0.67924 0.62292 0.98488 0.0
H602 H 0.46973 0.43756 0.92016 0.0
H603 H 0.50882 0.46459 0.89688 0.0
H604 H 0.47 0.41624 0.95527 0.0
H605 H 0.49269 0.43626 0.98594 0.0
C606 C 0.99512 0.4817 0.26483 0.0
C607 C 0.04319 0.50245 0.25553 0.0
C608 C 0.07825 0.53093 0.29898 0.0
C609 C 0.03032 0.51222 0.30797 0.0
N610 N 0.94302 0.4728 0.30028 0.0
N611 N 0.13065 0.54667 0.26355 0.0
C612 C 0.98875 0.48787 0.29112 0.0
C613 C 0.08476 0.52717 0.27259 0.0
N614 N 0.95526 0.45673 0.24854 0.0
N615 N 0.11761 0.5506 0.3159 0.0
H616 H 0.13786 0.53834 0.24512 0.0
H617 H 0.16187 0.57192 0.27406 0.0
H618 H 0.11427 0.55462 0.33527 0.0
H619 H 0.15361 0.56051 0.3112 0.0
H620 H 0.9206 0.4335 0.254 0.0
H621 H 0.95644 0.45819 0.22921 0.0
H622 H 0.91084 0.45991 0.28916 0.0
H623 H 0.93701 0.47576 0.3194 0.0
loop_
_geom_bond_atom_site_label_1
_geom_bond_atom_site_label_2
_geom_bond_distance
_geom_bond_site_symmetry_2
_ccdc_geom_bond_type
Tb0 O3 2.453 1_455 S
Tb0 O4 2.596 1_455 S
Tb0 O5 2.374 . S
Tb0 O13 2.343 . S
Tb0 O15 2.353 . S
Tb0 O17 2.427 . S
Tb0 O18 2.513 . S
C1 O5 1.251 . S
C1 O7 1.263 . S
Tb2 O4 2.343 1_455 S
Tb2 O7 2.353 . S
Tb2 O10 2.427 1_455 S
Tb2 O11 2.513 1_455 S
Tb2 O12 2.453 . S
Tb2 O13 2.596 . S
Tb2 O14 2.374 . S
O3 Tb0 2.453 1_655 S
O3 C19 1.245 . S
O4 Tb0 2.596 1_655 S
O4 Tb2 2.343 1_655 S
O4 C19 1.259 . S
O5 Tb0 2.374 . S
O5 C1 1.251 . S
C6 O10 1.275 . S
C6 O11 1.246 . S
O7 C1 1.263 . S
O7 Tb2 2.353 . S
C8 O12 1.245 . S
C8 O13 1.259 . S
C9 O14 1.250 . S
C9 O15 1.263 . S
O10 Tb2 2.427 1_655 S
O10 C6 1.275 . S
O11 Tb2 2.513 1_655 S
O11 C6 1.246 . S
O12 Tb2 2.453 . S
O12 C8 1.245 . S
O13 Tb0 2.343 . S
O13 Tb2 2.596 . S
O13 C8 1.259 . S
O14 Tb2 2.374 . S
O14 C9 1.250 . S
O15 Tb0 2.353 . S
O15 C9 1.263 . S
C16 O17 1.275 . S
C16 O18 1.246 . S
O17 Tb0 2.427 . S
O17 C16 1.275 . S
O18 Tb0 2.513 . S
O18 C16 1.246 . S
C19 O3 1.245 . S
C19 O4 1.259 . S
Tb20 O23 2.453 . S
Tb20 O24 2.596 . S
Tb20 O25 2.374 . S
Tb20 O33 2.343 1_545 S
Tb20 O35 2.353 . S
Tb20 O37 2.427 1_545 S
Tb20 O38 2.513 1_545 S
C21 O25 1.251 . S
C21 O27 1.263 . S
Tb22 O24 2.343 . S
Tb22 O27 2.353 . S
Tb22 O30 2.427 . S
Tb22 O31 2.513 . S
Tb22 O32 2.453 1_545 S
Tb22 O33 2.596 1_545 S
Tb22 O34 2.374 . S
O23 Tb20 2.453 . S
O23 C39 1.245 . S
O24 Tb20 2.596 . S
O24 Tb22 2.343 . S
O24 C39 1.259 . S
O25 Tb20 2.374 . S
O25 C21 1.251 . S
C26 O30 1.275 . S
C26 O31 1.246 . S
O27 C21 1.263 . S
O27 Tb22 2.353 . S
C28 O32 1.245 . S
C28 O33 1.259 . S
C29 O34 1.250 . S
C29 O35 1.263 . S
O30 Tb22 2.427 . S
O30 C26 1.275 . S
O31 Tb22 2.513 . S
O31 C26 1.246 . S
O32 Tb22 2.453 1_565 S
O32 C28 1.245 . S
O33 Tb20 2.343 1_565 S
O33 Tb22 2.596 1_565 S
O33 C28 1.259 . S
O34 Tb22 2.374 . S
O34 C29 1.250 . S
O35 Tb20 2.353 . S
O35 C29 1.263 . S
C36 O37 1.275 . S
C36 O38 1.246 . S
O37 Tb20 2.427 1_565 S
O37 C36 1.275 . S
O38 Tb20 2.513 1_565 S
O38 C36 1.246 . S
C39 O23 1.245 . S
C39 O24 1.259 . S
Tb40 O43 2.453 . S
Tb40 O44 2.596 . S
Tb40 O45 2.374 . S
Tb40 O53 2.343 . S
Tb40 O55 2.353 . S
Tb40 O57 2.427 . S
Tb40 O58 2.513 . S
C41 O45 1.251 . S
C41 O47 1.263 . S
Tb42 O44 2.343 . S
Tb42 O47 2.353 . S
Tb42 O50 2.427 . S
Tb42 O51 2.513 . S
Tb42 O52 2.453 . S
Tb42 O53 2.596 . S
Tb42 O54 2.374 . S
O43 Tb40 2.453 . S
O43 C59 1.245 . S
O44 Tb40 2.596 . S
O44 Tb42 2.343 . S
O44 C59 1.259 . S
O45 Tb40 2.374 . S
O45 C41 1.251 . S
C46 O50 1.275 . S
C46 O51 1.246 . S
O47 C41 1.263 . S
O47 Tb42 2.353 . S
C48 O52 1.245 . S
C48 O53 1.259 . S
C49 O54 1.250 . S
C49 O55 1.263 . S
O50 Tb42 2.427 . S
O50 C46 1.275 . S
O51 Tb42 2.513 . S
O51 C46 1.246 . S
O52 Tb42 2.453 . S
O52 C48 1.245 . S
O53 Tb40 2.343 . S
O53 Tb42 2.596 . S
O53 C48 1.259 . S
O54 Tb42 2.374 . S
O54 C49 1.250 . S
O55 Tb40 2.353 . S
O55 C49 1.263 . S
C56 O57 1.275 . S
C56 O58 1.246 . S
O57 Tb40 2.427 . S
O57 C56 1.275 . S
O58 Tb40 2.513 . S
O58 C56 1.246 . S
C59 O43 1.245 . S
C59 O44 1.259 . S
C60 C61 1.264 . S
C60 C65 1.479 . S
C60 C70 1.465 . S
C61 C60 1.264 . S
C61 C63 1.339 . S
C61 H88 0.931 . S
C62 C63 1.395 . S
C62 C64 1.320 . S
C63 C61 1.339 . S
C63 C62 1.395 . S
C63 H89 0.929 . S
C64 C62 1.320 . S
C64 C65 1.405 . S
C64 H90 0.930 . S
C65 C60 1.479 . S
C65 C64 1.405 . S
C65 H91 0.931 . S
U66 O67 2.454 1_545 S
U66 O68 2.458 1_545 S
U66 C69 2.984 1_545 S
U66 C70 2.847 . S
U66 C83 2.882 . S
U66 O84 2.441 . S
U66 O85 2.420 . S
U66 O86 2.455 . S
U66 O87 2.449 . S
O67 U66 2.454 1_565 S
O67 C69 1.353 . S
O68 U66 2.458 1_565 S
O68 C69 1.286 . S
C69 U66 2.984 1_565 S
C69 O67 1.353 . S
C69 O68 1.286 . S
C69 C71 1.363 . S
C70 C60 1.465 . S
C70 U66 2.847 . S
C70 O84 1.249 . S
C70 O85 1.202 . S
C71 C69 1.363 . S
C71 C73 1.408 . S
C71 C76 1.342 . S
C72 C73 1.310 . S
C72 C75 1.461 . S
C72 H92 0.932 . S
C73 C71 1.408 . S
C73 C72 1.310 . S
C73 H93 0.930 . S
C74 C75 1.474 . S
C74 C76 1.285 . S
C74 H94 0.929 . S
C75 C72 1.461 . S
C75 C74 1.474 . S
C76 C71 1.342 . S
C76 C74 1.285 . S
C76 H95 0.930 . S
C77 C80 1.424 . S
C77 C82 1.245 . S
C77 C83 1.428 . S
C78 C81 1.260 . S
C78 C82 1.477 . S
C78 H96 0.932 . S
C79 C80 1.384 . S
C79 C81 1.479 . S
C79 H97 0.929 . S
C80 C77 1.424 . S
C80 C79 1.384 . S
C80 H98 0.928 . S
C81 C78 1.260 . S
C81 C79 1.479 . S
C82 C77 1.245 . S
C82 C78 1.477 . S
C82 H99 0.932 . S
C83 U66 2.882 . S
C83 C77 1.428 . S
C83 O86 1.301 . S
C83 O87 1.282 . S
O84 U66 2.441 . S
O84 C70 1.249 . S
O85 U66 2.420 . S
O85 C70 1.202 . S
O86 U66 2.455 . S
O86 C83 1.301 . S
O87 U66 2.449 . S
O87 C83 1.282 . S
H88 C61 0.931 . S
H89 C63 0.929 . S
H90 C64 0.930 . S
H91 C65 0.931 . S
H92 C72 0.932 . S
H93 C73 0.930 . S
H94 C74 0.929 . S
H95 C76 0.930 . S
H96 C78 0.932 . S
H97 C79 0.929 . S
H98 C80 0.928 . S
H99 C82 0.932 . S
C100 C101 1.264 . S
C100 C105 1.479 . S
C100 C110 1.465 . S
C101 C100 1.264 . S
C101 C103 1.339 . S
C101 H128 0.931 . S
C102 C103 1.395 . S
C102 C104 1.320 . S
C103 C101 1.339 . S
C103 C102 1.395 . S
C103 H129 0.929 . S
C104 C102 1.320 . S
C104 C105 1.405 . S
C104 H130 0.930 . S
C105 C100 1.479 . S
C105 C104 1.405 . S
C105 H131 0.931 . S
U106 O107 2.454 . S
U106 O108 2.458 . S
U106 C109 2.984 . S
U106 C110 2.847 . S
U106 C123 2.882 . S
U106 O124 2.441 . S
U106 O125 2.420 . S
U106 O126 2.455 . S
U106 O127 2.449 . S
O107 U106 2.454 . S
O107 C109 1.353 . S
O108 U106 2.458 . S
O108 C109 1.286 . S
C109 U106 2.984 . S
C109 O107 1.353 . S
C109 O108 1.286 . S
C109 C111 1.363 . S
C110 C100 1.465 . S
C110 U106 2.847 . S
C110 O124 1.249 . S
C110 O125 1.202 . S
C111 C109 1.363 . S
C111 C113 1.408 . S
C111 C116 1.342 . S
C112 C113 1.310 . S
C112 C115 1.461 . S
C112 H132 0.932 . S
C113 C111 1.408 . S
C113 C112 1.310 . S
C113 H133 0.930 . S
C114 C115 1.474 . S
C114 C116 1.285 . S
C114 H134 0.929 . S
C115 C112 1.461 . S
C115 C114 1.474 . S
C116 C111 1.342 . S
C116 C114 1.285 . S
C116 H135 0.930 . S
C117 C120 1.424 . S
C117 C122 1.245 . S
C117 C123 1.428 . S
C118 C121 1.260 . S
C118 C122 1.477 . S
C118 H136 0.932 . S
C119 C120 1.384 . S
C119 C121 1.479 . S
C119 H137 0.929 . S
C120 C117 1.424 . S
C120 C119 1.384 . S
C120 H138 0.928 . S
C121 C118 1.260 . S
C121 C119 1.479 . S
C122 C117 1.245 . S
C122 C118 1.477 . S
C122 H139 0.932 . S
C123 U106 2.882 . S
C123 C117 1.428 . S
C123 O126 1.301 . S
C123 O127 1.282 . S
O124 U106 2.441 . S
O124 C110 1.249 . S
O125 U106 2.420 . S
O125 C110 1.202 . S
O126 U106 2.455 . S
O126 C123 1.301 . S
O127 U106 2.449 . S
O127 C123 1.282 . S
H128 C101 0.931 . S
H129 C103 0.929 . S
H130 C104 0.930 . S
H131 C105 0.931 . S
H132 C112 0.932 . S
H133 C113 0.930 . S
H134 C114 0.929 . S
H135 C116 0.930 . S
H136 C118 0.932 . S
H137 C119 0.929 . S
H138 C120 0.928 . S
H139 C122 0.932 . S
C140 C141 1.264 . S
C140 C145 1.479 . S
C140 C150 1.465 . S
C141 C140 1.264 . S
C141 C143 1.339 . S
C141 H168 0.931 . S
C142 C143 1.395 . S
C142 C144 1.320 . S
C143 C141 1.339 . S
C143 C142 1.395 . S
C143 H169 0.929 . S
C144 C142 1.320 . S
C144 C145 1.405 . S
C144 H170 0.930 . S
C145 C140 1.479 . S
C145 C144 1.405 . S
C145 H171 0.931 . S
U146 O147 2.454 . S
U146 O148 2.458 . S
U146 C149 2.984 . S
U146 C150 2.847 1_455 S
U146 C163 2.882 . S
U146 O164 2.441 . S
U146 O165 2.420 1_455 S
U146 O166 2.455 . S
U146 O167 2.449 . S
O147 U146 2.454 . S
O147 C149 1.353 . S
O148 U146 2.458 . S
O148 C149 1.286 . S
C149 U146 2.984 . S
C149 O147 1.353 . S
C149 O148 1.286 . S
C149 C151 1.363 . S
C150 C140 1.465 . S
C150 U146 2.847 1_655 S
C150 O164 1.249 1_655 S
C150 O165 1.202 . S
C151 C149 1.363 . S
C151 C153 1.408 . S
C151 C156 1.342 . S
C152 C153 1.310 . S
C152 C155 1.461 . S
C152 H172 0.932 . S
C153 C151 1.408 . S
C153 C152 1.310 . S
C153 H173 0.930 . S
C154 C155 1.474 . S
C154 C156 1.285 . S
C154 H174 0.929 . S
C155 C152 1.461 . S
C155 C154 1.474 . S
C156 C151 1.342 . S
C156 C154 1.285 . S
C156 H175 0.930 . S
C157 C160 1.424 . S
C157 C162 1.245 . S
C157 C163 1.428 . S
C158 C161 1.269 . S
C158 C162 1.461 1_554 S
C158 H176 0.941 . S
C159 C160 1.384 . S
C159 C161 1.479 1_556 S
C159 H177 0.929 1_456 S
C160 C157 1.424 . S
C160 C159 1.384 . S
C160 H178 0.928 1_455 S
C161 C158 1.269 . S
C161 C159 1.479 1_554 S
C162 C157 1.245 . S
C162 C158 1.461 1_556 S
C162 H179 0.932 . S
C163 U146 2.882 . S
C163 C157 1.428 . S
C163 O166 1.301 . S
C163 O167 1.282 . S
O164 U146 2.441 . S
O164 C150 1.249 1_455 S
O165 U146 2.420 1_655 S
O165 C150 1.202 . S
O166 U146 2.455 . S
O166 C163 1.301 . S
O167 U146 2.449 . S
O167 C163 1.282 . S
H168 C141 0.931 . S
H169 C143 0.929 . S
H170 C144 0.930 . S
H171 C145 0.931 . S
H172 C152 0.932 . S
H173 C153 0.930 . S
H174 C154 0.929 . S
H175 C156 0.930 . S
H176 C158 0.941 . S
H177 C159 0.929 1_654 S
H178 C160 0.928 1_655 S
H179 C162 0.932 . S
C180 C181 1.264 . S
C180 C185 1.479 . S
C180 C190 1.465 . S
C181 C180 1.264 . S
C181 C183 1.339 . S
C181 H208 0.931 . S
C182 C183 1.395 . S
C182 C184 1.320 . S
C183 C181 1.339 . S
C183 C182 1.395 . S
C183 H209 0.929 . S
C184 C182 1.320 . S
C184 C185 1.405 . S
C184 H210 0.930 . S
C185 C180 1.479 . S
C185 C184 1.405 . S
C185 H211 0.931 . S
U186 O187 2.454 1_655 S
U186 O188 2.458 1_655 S
U186 C189 2.984 1_655 S
U186 C190 2.847 . S
U186 C203 2.882 . S
U186 O204 2.441 . S
U186 O205 2.420 . S
U186 O206 2.455 1_655 S
U186 O207 2.449 . S
O187 U186 2.454 1_455 S
O187 C189 1.353 . S
O188 U186 2.458 1_455 S
O188 C189 1.286 . S
C189 U186 2.984 1_455 S
C189 O187 1.353 . S
C189 O188 1.286 . S
C189 C191 1.363 . S
C190 C180 1.465 . S
C190 U186 2.847 . S
C190 O204 1.249 . S
C190 O205 1.202 . S
C191 C189 1.363 . S
C191 C193 1.408 . S
C191 C196 1.342 . S
C192 C193 1.310 . S
C192 C195 1.461 . S
C192 H212 0.932 . S
C193 C191 1.408 . S
C193 C192 1.310 . S
C193 H213 0.930 . S
C194 C195 1.474 . S
C194 C196 1.285 . S
C194 H214 0.929 . S
C195 C192 1.461 . S
C195 C194 1.474 . S
C196 C191 1.342 . S
C196 C194 1.285 . S
C196 H215 0.930 . S
C197 C200 1.424 . S
C197 C202 1.245 1_655 S
C197 C203 1.428 . S
C198 C201 1.260 1_455 S
C198 C202 1.477 . S
C198 H216 0.932 . S
C199 C200 1.384 . S
C199 C201 1.479 . S
C199 H217 0.929 . S
C200 C197 1.424 . S
C200 C199 1.384 . S
C200 H218 0.928 . S
C201 C198 1.260 1_655 S
C201 C199 1.479 . S
C202 C197 1.245 1_455 S
C202 C198 1.477 . S
C202 H219 0.932 . S
C203 U186 2.882 . S
C203 C197 1.428 . S
C203 O206 1.301 1_655 S
C203 O207 1.282 . S
O204 U186 2.441 . S
O204 C190 1.249 . S
O205 U186 2.420 . S
O205 C190 1.202 . S
O206 U186 2.455 1_455 S
O206 C203 1.301 1_455 S
O207 U186 2.449 . S
O207 C203 1.282 . S
H208 C181 0.931 . S
H209 C183 0.929 . S
H210 C184 0.930 . S
H211 C185 0.931 . S
H212 C192 0.932 . S
H213 C193 0.930 . S
H214 C194 0.929 . S
H215 C196 0.930 . S
H216 C198 0.932 . S
H217 C199 0.929 . S
H218 C200 0.928 . S
H219 C202 0.932 . S
C220 C221 1.264 . S
C220 C225 1.479 . S
C220 C230 1.465 . S
C221 C220 1.264 . S
C221 C223 1.339 . S
C221 H248 0.931 . S
C222 C223 1.395 . S
C222 C224 1.320 . S
C223 C221 1.339 . S
C223 C222 1.395 . S
C223 H249 0.929 . S
C224 C222 1.320 . S
C224 C225 1.405 . S
C224 H250 0.930 . S
C225 C220 1.479 . S
C225 C224 1.405 . S
C225 H251 0.931 . S
U226 O227 2.454 . S
U226 O228 2.458 . S
U226 C229 2.984 . S
U226 C230 2.847 1_545 S
U226 C243 2.883 1_545 S
U226 O244 2.441 1_545 S
U226 O245 2.420 1_545 S
U226 O246 2.455 . S
U226 O247 2.449 1_545 S
O227 U226 2.454 . S
O227 C229 1.353 . S
O228 U226 2.458 . S
O228 C229 1.286 . S
C229 U226 2.984 . S
C229 O227 1.353 . S
C229 O228 1.286 . S
C229 C231 1.363 . S
C230 C220 1.465 . S
C230 U226 2.847 1_565 S
C230 O244 1.249 . S
C230 O245 1.202 . S
C231 C229 1.363 . S
C231 C233 1.408 . S
C231 C236 1.342 . S
C232 C233 1.310 . S
C232 C235 1.461 . S
C232 H252 0.932 . S
C233 C231 1.408 . S
C233 C232 1.310 . S
C233 H253 0.930 . S
C234 C235 1.474 . S
C234 C236 1.285 . S
C234 H254 0.929 . S
C235 C232 1.461 . S
C235 C234 1.474 . S
C236 C231 1.342 . S
C236 C234 1.285 . S
C236 H255 0.930 . S
C237 C240 1.429 . S
C237 C242 1.240 1_565 S
C237 C243 1.428 . S
C238 C241 1.260 1_545 S
C238 C242 1.477 . S
C238 H256 0.932 . S
C239 C240 1.384 . S
C239 C241 1.479 . S
C239 H257 0.929 . S
C240 C237 1.429 . S
C240 C239 1.384 . S
C240 H258 0.928 . S
C241 C238 1.260 1_565 S
C241 C239 1.479 . S
C242 C237 1.240 1_545 S
C242 C238 1.477 . S
C242 H259 0.932 . S
C243 U226 2.883 1_565 S
C243 C237 1.428 . S
C243 O246 1.298 1_565 S
C243 O247 1.286 . S
O244 U226 2.441 1_565 S
O244 C230 1.249 . S
O245 U226 2.420 1_565 S
O245 C230 1.202 . S
O246 U226 2.455 . S
O246 C243 1.298 1_545 S
O247 U226 2.449 1_565 S
O247 C243 1.286 . S
H248 C221 0.931 . S
H249 C223 0.929 . S
H250 C224 0.930 . S
H251 C225 0.931 . S
H252 C232 0.932 . S
H253 C233 0.930 . S
H254 C234 0.929 . S
H255 C236 0.930 . S
H256 C238 0.932 . S
H257 C239 0.929 . S
H258 C240 0.928 . S
H259 C242 0.932 . S
C260 C261 1.264 . S
C260 C265 1.479 . S
C260 C270 1.465 . S
C261 C260 1.264 . S
C261 C263 1.339 . S
C261 H288 0.931 . S
C262 C263 1.395 . S
C262 C264 1.320 . S
C263 C261 1.339 . S
C263 C262 1.395 . S
C263 H289 0.929 . S
C264 C262 1.320 . S
C264 C265 1.405 . S
C264 H290 0.930 . S
C265 C260 1.479 . S
C265 C264 1.405 . S
C265 H291 0.931 . S
U266 O267 2.454 . S
U266 O268 2.458 . S
U266 C269 2.984 . S
U266 C270 2.847 . S
U266 C283 2.882 . S
U266 O284 2.441 . S
U266 O285 2.420 . S
U266 O286 2.455 . S
U266 O287 2.449 . S
O267 U266 2.454 . S
O267 C269 1.353 . S
O268 U266 2.458 . S
O268 C269 1.286 . S
C269 U266 2.984 . S
C269 O267 1.353 . S
C269 O268 1.286 . S
C269 C271 1.363 . S
C270 C260 1.465 . S
C270 U266 2.847 . S
C270 O284 1.249 . S
C270 O285 1.202 . S
C271 C269 1.363 . S
C271 C273 1.408 . S
C271 C276 1.342 . S
C272 C273 1.310 . S
C272 C275 1.461 . S
C272 H292 0.932 . S
C273 C271 1.408 . S
C273 C272 1.310 . S
C273 H293 0.930 . S
C274 C275 1.474 . S
C274 C276 1.285 . S
C274 H294 0.929 . S
C275 C272 1.461 . S
C275 C274 1.474 . S
C276 C271 1.342 . S
C276 C274 1.285 . S
C276 H295 0.930 . S
C277 C280 1.424 . S
C277 C282 1.245 . S
C277 C283 1.428 . S
C278 C281 1.260 . S
C278 C282 1.477 1_556 S
C278 H296 0.932 . S
C279 C280 1.384 1_556 S
C279 C281 1.479 . S
C279 H297 0.929 . S
C280 C277 1.424 . S
C280 C279 1.384 1_554 S
C280 H298 0.928 . S
C281 C278 1.260 . S
C281 C279 1.479 . S
C282 C277 1.245 . S
C282 C278 1.477 1_554 S
C282 H299 0.932 . S
C283 U266 2.882 . S
C283 C277 1.428 . S
C283 O286 1.301 . S
C283 O287 1.282 . S
O284 U266 2.441 . S
O284 C270 1.249 . S
O285 U266 2.420 . S
O285 C270 1.202 . S
O286 U266 2.455 . S
O286 C283 1.301 . S
O287 U266 2.449 . S
O287 C283 1.282 . S
H288 C261 0.931 . S
H289 C263 0.929 . S
H290 C264 0.930 . S
H291 C265 0.931 . S
H292 C272 0.932 . S
H293 C273 0.930 . S
H294 C274 0.929 . S
H295 C276 0.930 . S
H296 C278 0.932 . S
H297 C279 0.929 . S
H298 C280 0.928 . S
H299 C282 0.932 . S
C300 C301 1.363 . S
C300 C306 1.379 . S
C300 N308 1.356 . S
C301 C300 1.363 . S
C301 C307 1.363 . S
C302 C303 1.363 . S
C302 C307 1.379 . S
C302 N309 1.356 . S
C303 C302 1.363 . S
C303 C306 1.363 . S
N304 C306 1.356 . S
N304 H316 0.984 . S
N304 H317 0.985 . S
N305 C307 1.356 . S
N305 H310 0.984 . S
N305 H311 0.985 . S
C306 C300 1.379 . S
C306 C303 1.363 . S
C306 N304 1.356 . S
C307 C301 1.363 . S
C307 C302 1.379 . S
C307 N305 1.356 . S
N308 C300 1.356 . S
N308 H314 0.984 . S
N308 H315 0.984 . S
N309 C302 1.356 . S
N309 H312 0.984 . S
N309 H313 0.985 . S
H310 N305 0.984 . S
H311 N305 0.985 . S
H312 N309 0.984 . S
H313 N309 0.985 . S
H314 N308 0.984 . S
H315 N308 0.984 . S
H316 N304 0.984 . S
H317 N304 0.985 . S
C318 C319 1.363 . S
C318 C324 1.379 . S
C318 N326 1.356 . S
C319 C318 1.363 . S
C319 C325 1.363 . S
C320 C321 1.363 . S
C320 C325 1.379 . S
C320 N327 1.356 . S
C321 C320 1.363 . S
C321 C324 1.363 . S
N322 C324 1.356 . S
N322 H334 0.984 . S
N322 H335 0.985 . S
N323 C325 1.356 . S
N323 H328 0.984 . S
N323 H329 0.985 . S
C324 C318 1.379 . S
C324 C321 1.363 . S
C324 N322 1.356 . S
C325 C319 1.363 . S
C325 C320 1.379 . S
C325 N323 1.356 . S
N326 C318 1.356 . S
N326 H332 0.984 . S
N326 H333 0.984 . S
N327 C320 1.356 . S
N327 H330 0.984 . S
N327 H331 0.985 . S
H328 N323 0.984 . S
H329 N323 0.985 . S
H330 N327 0.984 . S
H331 N327 0.985 . S
H332 N326 0.984 . S
H333 N326 0.984 . S
H334 N322 0.984 . S
H335 N322 0.985 . S
C336 C337 1.363 . S
C336 C342 1.379 . S
C336 N344 1.356 . S
C337 C336 1.363 . S
C337 C343 1.363 . S
C338 C339 1.363 . S
C338 C343 1.379 . S
C338 N345 1.356 . S
C339 C338 1.363 . S
C339 C342 1.363 . S
N340 C342 1.356 . S
N340 H352 0.984 . S
N340 H353 0.985 . S
N341 C343 1.356 . S
N341 H346 0.984 . S
N341 H347 0.985 . S
C342 C336 1.379 . S
C342 C339 1.363 . S
C342 N340 1.356 . S
C343 C337 1.363 . S
C343 C338 1.379 . S
C343 N341 1.356 . S
N344 C336 1.356 . S
N344 H350 0.984 . S
N344 H351 0.984 . S
N345 C338 1.356 . S
N345 H348 0.984 . S
N345 H349 0.985 . S
H346 N341 0.984 . S
H347 N341 0.985 . S
H348 N345 0.984 . S
H349 N345 0.985 . S
H350 N344 0.984 . S
H351 N344 0.984 . S
H352 N340 0.984 . S
H353 N340 0.985 . S
C354 C355 1.363 . S
C354 C360 1.379 . S
C354 N362 1.356 . S
C355 C354 1.363 . S
C355 C361 1.363 . S
C356 C357 1.363 . S
C356 C361 1.379 . S
C356 N363 1.356 . S
C357 C356 1.363 . S
C357 C360 1.363 . S
N358 C360 1.356 . S
N358 H370 0.984 . S
N358 H371 0.985 . S
N359 C361 1.356 . S
N359 H364 0.984 . S
N359 H365 0.985 . S
C360 C354 1.379 . S
C360 C357 1.363 . S
C360 N358 1.356 . S
C361 C355 1.363 . S
C361 C356 1.379 . S
C361 N359 1.356 . S
N362 C354 1.356 . S
N362 H368 0.984 . S
N362 H369 0.984 . S
N363 C356 1.356 . S
N363 H366 0.984 . S
N363 H367 0.985 . S
H364 N359 0.984 . S
H365 N359 0.985 . S
H366 N363 0.984 . S
H367 N363 0.985 . S
H368 N362 0.984 . S
H369 N362 0.984 . S
H370 N358 0.984 . S
H371 N358 0.985 . S
C372 C373 1.363 . S
C372 C378 1.379 . S
C372 N380 1.356 . S
C373 C372 1.363 . S
C373 C379 1.363 . S
C374 C375 1.363 . S
C374 C379 1.379 . S
C374 N381 1.356 . S
C375 C374 1.363 . S
C375 C378 1.363 . S
N376 C378 1.356 . S
N376 H388 0.984 . S
N376 H389 0.985 . S
N377 C379 1.356 . S
N377 H382 0.984 . S
N377 H383 0.985 . S
C378 C372 1.379 . S
C378 C375 1.363 . S
C378 N376 1.356 . S
C379 C373 1.363 . S
C379 C374 1.379 . S
C379 N377 1.356 . S
N380 C372 1.356 . S
N380 H386 0.984 . S
N380 H387 0.984 . S
N381 C374 1.356 . S
N381 H384 0.984 . S
N381 H385 0.985 . S
H382 N377 0.984 . S
H383 N377 0.985 . S
H384 N381 0.984 . S
H385 N381 0.985 . S
H386 N380 0.984 . S
H387 N380 0.984 . S
H388 N376 0.984 . S
H389 N376 0.985 . S
C390 C391 1.363 . S
C390 C396 1.379 . S
C390 N398 1.356 . S
C391 C390 1.363 . S
C391 C397 1.363 . S
C392 C393 1.363 . S
C392 C397 1.379 . S
C392 N399 1.356 . S
C393 C392 1.363 . S
C393 C396 1.363 . S
N394 C396 1.356 . S
N394 H406 0.984 . S
N394 H407 0.985 . S
N395 C397 1.356 . S
N395 H400 0.984 . S
N395 H401 0.985 . S
C396 C390 1.379 . S
C396 C393 1.363 . S
C396 N394 1.356 . S
C397 C391 1.363 . S
C397 C392 1.379 . S
C397 N395 1.356 . S
N398 C390 1.356 . S
N398 H404 0.984 . S
N398 H405 0.984 . S
N399 C392 1.356 . S
N399 H402 0.984 . S
N399 H403 0.985 . S
H400 N395 0.984 . S
H401 N395 0.985 . S
H402 N399 0.984 . S
H403 N399 0.985 . S
H404 N398 0.984 . S
H405 N398 0.984 . S
H406 N394 0.984 . S
H407 N394 0.985 . S
C408 C409 1.363 . S
C408 C414 1.379 . S
C408 N416 1.356 . S
C409 C408 1.363 . S
C409 C415 1.363 . S
C410 C411 1.363 . S
C410 C415 1.379 . S
C410 N417 1.356 . S
C411 C410 1.363 . S
C411 C414 1.363 . S
N412 C414 1.356 . S
N412 H424 0.984 . S
N412 H425 0.985 . S
N413 C415 1.356 . S
N413 H418 0.984 . S
N413 H419 0.985 . S
C414 C408 1.379 . S
C414 C411 1.363 . S
C414 N412 1.356 . S
C415 C409 1.363 . S
C415 C410 1.379 . S
C415 N413 1.356 . S
N416 C408 1.356 . S
N416 H422 0.984 . S
N416 H423 0.984 . S
N417 C410 1.356 . S
N417 H420 0.984 . S
N417 H421 0.985 . S
H418 N413 0.984 . S
H419 N413 0.985 . S
H420 N417 0.984 . S
H421 N417 0.985 . S
H422 N416 0.984 . S
H423 N416 0.984 . S
H424 N412 0.984 . S
H425 N412 0.985 . S
C426 C427 1.363 . S
C426 C432 1.379 . S
C426 N434 1.356 . S
C427 C426 1.363 . S
C427 C433 1.363 . S
C428 C429 1.363 . S
C428 C433 1.379 . S
C428 N435 1.356 . S
C429 C428 1.363 . S
C429 C432 1.363 . S
N430 C432 1.356 . S
N430 H442 0.984 . S
N430 H443 0.985 . S
N431 C433 1.356 . S
N431 H436 0.984 . S
N431 H437 0.985 . S
C432 C426 1.379 . S
C432 C429 1.363 . S
C432 N430 1.356 . S
C433 C427 1.363 . S
C433 C428 1.379 . S
C433 N431 1.356 . S
N434 C426 1.356 . S
N434 H440 0.984 . S
N434 H441 0.984 . S
N435 C428 1.356 . S
N435 H438 0.984 . S
N435 H439 0.985 . S
H436 N431 0.984 . S
H437 N431 0.985 . S
H438 N435 0.984 . S
H439 N435 0.985 . S
H440 N434 0.984 . S
H441 N434 0.984 . S
H442 N430 0.984 . S
H443 N430 0.985 . S
C444 C445 1.363 . S
C444 C450 1.379 . S
C444 N452 1.356 . S
C445 C444 1.363 . S
C445 C451 1.363 . S
C446 C447 1.363 . S
C446 C451 1.379 . S
C446 N453 1.356 . S
C447 C446 1.363 . S
C447 C450 1.363 . S
N448 C450 1.356 . S
N448 H460 0.984 . S
N448 H461 0.985 . S
N449 C451 1.356 . S
N449 H454 0.984 . S
N449 H455 0.985 . S
C450 C444 1.379 . S
C450 C447 1.363 . S
C450 N448 1.356 . S
C451 C445 1.363 . S
C451 C446 1.379 . S
C451 N449 1.356 . S
N452 C444 1.356 . S
N452 H458 0.984 . S
N452 H459 0.984 . S
N453 C446 1.356 . S
N453 H456 0.984 . S
N453 H457 0.985 . S
H454 N449 0.984 . S
H455 N449 0.985 . S
H456 N453 0.984 . S
H457 N453 0.985 . S
H458 N452 0.984 . S
H459 N452 0.984 . S
H460 N448 0.984 . S
H461 N448 0.985 . S
C462 C463 1.363 . S
C462 C468 1.379 . S
C462 N470 1.356 . S
C463 C462 1.363 . S
C463 C469 1.363 . S
C464 C465 1.363 . S
C464 C469 1.379 . S
C464 N471 1.356 . S
C465 C464 1.363 . S
C465 C468 1.363 . S
N466 C468 1.356 . S
N466 H478 0.984 . S
N466 H479 0.985 . S
N467 C469 1.356 . S
N467 H472 0.984 . S
N467 H473 0.985 . S
C468 C462 1.379 . S
C468 C465 1.363 . S
C468 N466 1.356 . S
C469 C463 1.363 . S
C469 C464 1.379 . S
C469 N467 1.356 . S
N470 C462 1.356 . S
N470 H476 0.984 . S
N470 H477 0.984 . S
N471 C464 1.356 . S
N471 H474 0.984 . S
N471 H475 0.985 . S
H472 N467 0.984 . S
H473 N467 0.985 . S
H474 N471 0.984 . S
H475 N471 0.985 . S
H476 N470 0.984 . S
H477 N470 0.984 . S
H478 N466 0.984 . S
H479 N466 0.985 . S
C480 C481 1.363 . S
C480 C486 1.379 . S
C480 N488 1.356 . S
C481 C480 1.363 . S
C481 C487 1.363 . S
C482 C483 1.363 . S
C482 C487 1.379 . S
C482 N489 1.356 . S
C483 C482 1.363 . S
C483 C486 1.363 . S
N484 C486 1.356 . S
N484 H496 0.984 . S
N484 H497 0.985 . S
N485 C487 1.356 . S
N485 H490 0.984 . S
N485 H491 0.985 . S
C486 C480 1.379 . S
C486 C483 1.363 . S
C486 N484 1.356 . S
C487 C481 1.363 . S
C487 C482 1.379 . S
C487 N485 1.356 . S
N488 C480 1.356 . S
N488 H494 0.984 . S
N488 H495 0.984 . S
N489 C482 1.356 . S
N489 H492 0.984 . S
N489 H493 0.985 . S
H490 N485 0.984 . S
H491 N485 0.985 . S
H492 N489 0.984 . S
H493 N489 0.985 . S
H494 N488 0.984 . S
H495 N488 0.984 . S
H496 N484 0.984 . S
H497 N484 0.985 . S
C498 C499 1.363 . S
C498 C504 1.379 . S
C498 N506 1.356 . S
C499 C498 1.363 . S
C499 C505 1.363 . S
C500 C501 1.363 . S
C500 C505 1.379 . S
C500 N507 1.356 . S
C501 C500 1.363 . S
C501 C504 1.363 . S
N502 C504 1.356 . S
N502 H514 0.984 . S
N502 H515 0.985 . S
N503 C505 1.356 . S
N503 H508 0.984 . S
N503 H509 0.985 . S
C504 C498 1.379 . S
C504 C501 1.363 . S
C504 N502 1.356 . S
C505 C499 1.363 . S
C505 C500 1.379 . S
C505 N503 1.356 . S
N506 C498 1.356 . S
N506 H512 0.984 . S
N506 H513 0.984 . S
N507 C500 1.356 . S
N507 H510 0.984 . S
N507 H511 0.985 . S
H508 N503 0.984 . S
H509 N503 0.985 . S
H510 N507 0.984 . S
H511 N507 0.985 . S
H512 N506 0.984 . S
H513 N506 0.984 . S
H514 N502 0.984 . S
H515 N502 0.985 . S
C516 C517 1.363 . S
C516 C522 1.379 . S
C516 N524 1.356 . S
C517 C516 1.363 . S
C517 C523 1.363 . S
C518 C519 1.363 . S
C518 C523 1.379 . S
C518 N525 1.356 . S
C519 C518 1.363 . S
C519 C522 1.363 . S
N520 C522 1.356 . S
N520 H532 0.984 . S
N520 H533 0.985 . S
N521 C523 1.356 . S
N521 H526 0.984 . S
N521 H527 0.985 . S
C522 C516 1.379 . S
C522 C519 1.363 . S
C522 N520 1.356 . S
C523 C517 1.363 . S
C523 C518 1.379 . S
C523 N521 1.356 . S
N524 C516 1.356 . S
N524 H530 0.984 . S
N524 H531 0.984 . S
N525 C518 1.356 . S
N525 H528 0.984 . S
N525 H529 0.985 . S
H526 N521 0.984 . S
H527 N521 0.985 . S
H528 N525 0.984 . S
H529 N525 0.985 . S
H530 N524 0.984 . S
H531 N524 0.984 . S
H532 N520 0.984 . S
H533 N520 0.985 . S
C534 C535 1.363 . S
C534 C540 1.379 . S
C534 N542 1.356 . S
C535 C534 1.363 . S
C535 C541 1.363 . S
C536 C537 1.363 . S
C536 C541 1.379 . S
C536 N543 1.356 1_545 S
C537 C536 1.363 . S
C537 C540 1.363 . S
N538 C540 1.356 . S
N538 H550 0.984 . S
N538 H551 0.985 . S
N539 C541 1.356 1_565 S
N539 H544 0.984 . S
N539 H545 0.985 . S
C540 C534 1.379 . S
C540 C537 1.363 . S
C540 N538 1.356 . S
C541 C535 1.363 . S
C541 C536 1.379 . S
C541 N539 1.356 1_545 S
N542 C534 1.356 . S
N542 H548 0.984 . S
N542 H549 0.984 . S
N543 C536 1.356 1_565 S
N543 H546 0.984 1_565 S
N543 H547 0.985 . S
H544 N539 0.984 . S
H545 N539 0.985 . S
H546 N543 0.984 1_545 S
H547 N543 0.985 . S
H548 N542 0.984 . S
H549 N542 0.984 . S
H550 N538 0.984 . S
H551 N538 0.985 . S
C552 C553 1.363 . S
C552 C558 1.379 . S
C552 N560 1.356 . S
C553 C552 1.363 . S
C553 C559 1.363 . S
C554 C555 1.363 . S
C554 C559 1.379 . S
C554 N561 1.356 . S
C555 C554 1.363 . S
C555 C558 1.363 . S
N556 C558 1.356 . S
N556 H568 0.984 . S
N556 H569 0.985 . S
N557 C559 1.356 . S
N557 H562 0.984 . S
N557 H563 0.985 . S
C558 C552 1.379 . S
C558 C555 1.363 . S
C558 N556 1.356 . S
C559 C553 1.363 . S
C559 C554 1.379 . S
C559 N557 1.356 . S
N560 C552 1.356 . S
N560 H566 0.984 . S
N560 H567 0.984 . S
N561 C554 1.356 . S
N561 H564 0.984 . S
N561 H565 0.985 . S
H562 N557 0.984 . S
H563 N557 0.985 . S
H564 N561 0.984 . S
H565 N561 0.985 . S
H566 N560 0.984 . S
H567 N560 0.984 . S
H568 N556 0.984 . S
H569 N556 0.985 . S
C570 C571 1.363 . S
C570 C576 1.379 . S
C570 N578 1.356 . S
C571 C570 1.363 . S
C571 C577 1.363 1_545 S
C572 C573 1.363 1_565 S
C572 C577 1.379 . S
C572 N579 1.356 . S
C573 C572 1.363 1_545 S
C573 C576 1.363 . S
N574 C576 1.356 . S
N574 H586 0.984 . S
N574 H587 0.985 . S
N575 C577 1.356 . S
N575 H580 0.984 . S
N575 H581 0.985 . S
C576 C570 1.379 . S
C576 C573 1.363 . S
C576 N574 1.356 . S
C577 C571 1.363 1_565 S
C577 C572 1.379 . S
C577 N575 1.356 . S
N578 C570 1.356 . S
N578 H584 0.984 . S
N578 H585 0.984 . S
N579 C572 1.356 . S
N579 H582 0.984 . S
N579 H583 0.985 . S
H580 N575 0.984 . S
H581 N575 0.985 . S
H582 N579 0.984 . S
H583 N579 0.985 . S
H584 N578 0.984 . S
H585 N578 0.984 . S
H586 N574 0.984 . S
H587 N574 0.985 . S
C588 C589 1.363 . S
C588 C594 1.379 . S
C588 N596 1.356 . S
C589 C588 1.363 . S
C589 C595 1.363 . S
C590 C591 1.363 . S
C590 C595 1.379 . S
C590 N597 1.356 . S
C591 C590 1.363 . S
C591 C594 1.363 . S
N592 C594 1.356 . S
N592 H604 0.984 . S
N592 H605 0.985 . S
N593 C595 1.356 . S
N593 H598 0.984 . S
N593 H599 0.985 . S
C594 C588 1.379 . S
C594 C591 1.363 . S
C594 N592 1.356 . S
C595 C589 1.363 . S
C595 C590 1.379 . S
C595 N593 1.356 . S
N596 C588 1.356 . S
N596 H602 0.984 . S
N596 H603 0.984 . S
N597 C590 1.356 . S
N597 H600 0.984 . S
N597 H601 0.985 . S
H598 N593 0.984 . S
H599 N593 0.985 . S
H600 N597 0.984 . S
H601 N597 0.985 . S
H602 N596 0.984 . S
H603 N596 0.984 . S
H604 N592 0.984 . S
H605 N592 0.985 . S
C606 C607 1.363 1_655 S
C606 C612 1.379 . S
C606 N614 1.356 . S
C607 C606 1.363 1_455 S
C607 C613 1.363 . S
C608 C609 1.363 1_455 S
C608 C613 1.379 . S
C608 N615 1.356 . S
C609 C608 1.363 1_655 S
C609 C612 1.363 . S
N610 C612 1.356 . S
N610 H622 0.984 . S
N610 H623 0.985 . S
N611 C613 1.356 . S
N611 H616 0.984 . S
N611 H617 0.985 . S
C612 C606 1.379 . S
C612 C609 1.363 . S
C612 N610 1.356 . S
C613 C607 1.363 . S
C613 C608 1.379 . S
C613 N611 1.356 . S
N614 C606 1.356 . S
N614 H620 0.984 . S
N614 H621 0.984 . S
N615 C608 1.356 . S
N615 H618 0.984 . S
N615 H619 0.985 . S
H616 N611 0.984 . S
H617 N611 0.985 . S
H618 N615 0.984 . S
H619 N615 0.985 . S
H620 N614 0.984 . S
H621 N614 0.984 . S
H622 N610 0.984 . S
H623 N610 0.985 . S
C301 C8 2.162 . S
C303 C275 2.210 . S
C319 C26 1.462 . S
C321 C182 1.446 . S
C337 C48 1.625 . S
C339 C222 1.668 . S
C355 C19 2.035 . S
C357 C262 2.020 . S
C375 C195 1.667 . S
C373 C36 1.696 . S
C393 C235 1.923 . S
C391 C59 1.960 . S
C409 C28 1.649 . S
C411 C102 1.693 . S
C427 C46 1.368 . S
C429 C142 1.356 . S
C445 C16 1.767 . S
C447 C75 1.735 . S
C465 C115 1.885 . S
C463 C39 1.937 . S
C483 C155 1.165 . S
C481 C56 1.189 . S
C499 C6 1.522 . S
C501 C62 1.501 . S
C519 C161 1.426 . S
C517 C9 1.410 . S
C535 C21 1.533 . S
C537 C81 1.536 . S
C553 C49 1.503 . S
C555 C121 1.505 . S
C573 C241 1.492 1_545 S
C571 C29 1.499 . S
C591 C281 1.597 . S
C589 C41 1.581 . S
C607 C1 1.522 . S
C609 C201 1.527 . S
