# Generated by pormake.
# Topology scu, (8,4)-cn, num edge types: 1
# Building blocks:
#     Node 0, Type 0, BuildingBlock: GIZVER_clean_sbu_0, # of connection points: 8
#     Node 1, Type 1, BuildingBlock: MUDLON_clean_sbu_0, # of connection points: 4
#     Node 2, Type 1, BuildingBlock: MUDLON_clean_sbu_0, # of connection points: 4
#     Edge 3, Type (0, 1), BuildingBlock: XUDNAN_clean_linker_2, # of connection points: 2
#     Edge 4, Type (0, 1), BuildingBlock: XUDNAN_clean_linker_2, # of connection points: 2
#     Edge 5, Type (0, 1), BuildingBlock: XUDNAN_clean_linker_2, # of connection points: 2
#     Edge 6, Type (0, 1), BuildingBlock: XUDNAN_clean_linker_2, # of connection points: 2
#     Edge 7, Type (0, 1), BuildingBlock: XUDNAN_clean_linker_2, # of connection points: 2
#     Edge 8, Type (0, 1), BuildingBlock: XUDNAN_clean_linker_2, # of connection points: 2
#     Edge 9, Type (0, 1), BuildingBlock: XUDNAN_clean_linker_2, # of connection points: 2
#     Edge 10, Type (0, 1), BuildingBlock: XUDNAN_clean_linker_2, # of connection points: 2
# Relax obj value: 0.010
# Max RMSD: 0.073
# Mean RMSD: 0.042
data_MOF--net-scu--node1-GIZVER_clean_sbu_0--node2-MUDLON_clean_sbu_0--edge1-XUDNAN_clean_linker_2
_symmetry_space_group_name_H-M    P1
_symmetry_Int_Tables_number       1
_symmetry_cell_setting            triclinic
loop_
_symmetry_equiv_pos_as_xyz
'x, y, z'
_cell_length_a     23.138753
_cell_length_b     23.906454
_cell_length_c     22.939349
_cell_angle_alpha  99.84353
_cell_angle_beta   82.763213
_cell_angle_gamma 115.67113
loop_
_atom_site_label
_atom_site_type_symbol
_atom_site_fract_x
_atom_site_fract_y
_atom_site_fract_z
_atom_type_partial_charge
Co0 Co 0.04147 0.95505 0.17145 0.0
Co1 Co 0.13728 0.04199 0.11798 0.0
Co2 Co 0.01501 1.01734 0.05699 0.0
O3 O 0.0593 0.9763 0.09175 0.0
H4 H 0.0675 0.94529 0.06342 0.0
O5 O 0.97364 0.0616 1.0221 0.0
Co6 Co 0.01211 0.09697 0.94931 0.0
Co7 Co 0.90366 1.01048 0.97935 0.0
H8 H 0.96306 0.09041 0.05146 0.0
O9 O 0.20587 0.0247 0.12316 0.0
O10 O 0.12759 0.0227 0.19395 0.0
O11 O 0.14905 0.12829 0.12983 0.0
O12 O 0.04632 0.09581 0.11599 0.0
O13 O 0.09271 0.04936 1.00168 0.0
O14 O 0.04743 0.13487 0.88601 0.0
O15 O 0.99432 0.16587 0.96454 0.0
O16 O 0.03868 0.03216 0.92319 0.0
O17 O 0.97993 0.93697 0.99897 0.0
O18 O 0.8893 0.92446 0.96216 0.0
O19 O 0.92992 0.04759 0.90986 0.0
O20 O 0.84226 0.03759 0.97046 0.0
C21 C 0.05776 0.89773 0.21848 0.0
C22 C 0.94455 0.99282 0.1698 0.0
C23 C 0.0984 0.13707 0.13729 0.0
C24 C 0.18223 0.01913 0.17736 0.0
C25 C 0.02772 0.17599 0.91386 0.0
C26 C 0.08707 0.03455 0.94598 0.0
C27 C 0.93037 0.9043 0.96855 0.0
C28 C 0.87685 0.05508 0.92213 0.0
O29 O 0.02853 0.93218 0.24344 0.0
O30 O 0.07567 0.89797 0.16208 0.0
O31 O 0.93892 0.98361 0.11373 0.0
O32 O 0.99881 1.00884 0.19107 0.0
Mg33 Mg 0.03446 0.52802 0.56008 0.0
C34 C 0.03534 0.4454 0.44694 0.0
O35 O 0.08647 0.49714 0.43859 0.0
C36 C 1.00557 0.60554 0.65677 0.0
O37 O 0.06812 0.62375 0.65071 0.0
C38 C 0.03635 0.46607 0.65802 0.0
O39 O 0.9758 0.45305 0.65276 0.0
O40 O 0.07875 0.50091 0.62278 0.0
O41 O 0.99974 0.4441 0.49442 0.0
O42 O 0.08793 0.60825 0.51087 0.0
C43 C 0.05702 0.6086 0.46873 0.0
O44 O 1.00063 0.56196 0.4586 0.0
O45 O 0.97082 0.56017 0.62026 0.0
Mg46 Mg 0.52841 0.03548 0.56588 0.0
C47 C 0.44972 1.00351 0.46861 0.0
O48 O 0.45031 0.95216 0.48119 0.0
C49 C 0.60218 0.10979 0.67344 0.0
O50 O 0.54578 0.07963 0.69982 0.0
C51 C 0.40557 1.00556 0.6361 0.0
O52 O 0.40712 0.04488 0.60173 0.0
O53 O 0.45097 0.98804 0.62975 0.0
O54 O 0.48229 0.05527 0.49938 0.0
O55 O 0.57698 0.983 0.51005 0.0
C56 C 0.63445 1.01736 0.49324 0.0
O57 O 0.65946 0.07698 0.51447 0.0
O58 O 0.606 0.10861 0.61745 0.0
H59 H 0.10205 0.25553 0.14377 0.0
H60 H 0.07703 0.11169 0.24926 0.0
H61 H 0.04465 0.16906 0.33718 0.0
H62 H 0.17523 0.3841 0.26092 0.0
H63 H 0.13982 0.43149 0.24069 0.0
H64 H 0.15684 0.37675 0.18514 0.0
H65 H 0.03789 0.32555 0.15791 0.0
H66 H 0.02027 0.37932 0.21438 0.0
H67 H 0.9751 0.29613 0.21465 0.0
H68 H 1.00916 0.23866 0.41239 0.0
H69 H 0.99817 0.32838 0.47647 0.0
H70 H 0.05902 0.43403 0.32687 0.0
C71 C 0.09061 0.23689 0.18568 0.0
C72 C 0.09137 0.17903 0.18992 0.0
C73 C 0.07619 0.15579 0.24525 0.0
C74 C 0.05739 0.18783 0.29532 0.0
C75 C 0.05547 0.244 0.28973 0.0
C76 C 0.07374 0.26955 0.23696 0.0
C77 C 0.07269 0.33341 0.24478 0.0
C78 C 0.14016 0.38445 0.23216 0.0
C79 C 0.02355 0.33358 0.20559 0.0
C80 C 0.05125 0.33955 0.31001 0.0
C81 C 0.03969 0.28657 0.33457 0.0
C82 C 0.01854 0.2807 0.39387 0.0
C83 C 0.01179 0.33155 0.42979 0.0
C84 C 0.02766 0.38784 0.40651 0.0
C85 C 0.04636 0.3913 0.34561 0.0
H86 H 0.94397 0.05499 0.281 0.0
H87 H 0.81828 0.91487 0.15179 0.0
H88 H 0.72509 0.89877 0.22412 0.0
H89 H 0.86626 0.98415 0.41148 0.0
H90 H 0.87683 0.05717 0.45647 0.0
H91 H 0.93359 0.05574 0.39544 0.0
H92 H 0.91443 0.13796 0.35002 0.0
H93 H 0.85893 0.14077 0.41164 0.0
H94 H 0.83371 0.12358 0.33693 0.0
H95 H 0.64593 0.89702 0.3126 0.0
H96 H 0.58574 0.92062 0.40346 0.0
H97 H 0.76385 0.06575 0.47112 0.0
C98 C 0.89685 0.02083 0.26796 0.0
C99 C 0.8882 0.98579 0.21109 0.0
C100 C 0.82573 0.94225 0.19523 0.0
C101 C 0.77272 0.93249 0.23612 0.0
C102 C 0.78305 0.96734 0.29224 0.0
C103 C 0.84348 1.0115 0.30765 0.0
C104 C 0.84149 0.04587 0.36912 0.0
C105 C 0.88194 0.03504 0.41056 0.0
C106 C 0.86339 0.11618 0.36677 0.0
C107 C 0.77048 1.0139 0.38623 0.0
C108 C 0.73756 0.9681 0.34178 0.0
C109 C 0.67124 0.9328 0.34767 0.0
C110 C 0.6375 0.9461 0.39956 0.0
C111 C 0.6702 0.99483 0.44425 0.0
C112 C 0.73761 0.02809 0.43773 0.0
H113 H 0.03513 0.7734 0.20462 0.0
H114 H 0.11849 0.94827 0.32028 0.0
H115 H 0.14482 0.89517 0.38932 0.0
H116 H 0.95404 0.68666 0.32001 0.0
H117 H 0.96206 0.61607 0.28722 0.0
H118 H 0.96269 0.66962 0.24057 0.0
H119 H 0.07265 0.67746 0.19141 0.0
H120 H 0.07241 0.62392 0.23819 0.0
H121 H 0.13908 0.69975 0.23709 0.0
H122 H 0.15396 0.82185 0.45025 0.0
H123 H 0.13209 0.73252 0.504 0.0
H124 H 0.03197 0.60372 0.35466 0.0
C125 C 0.06061 0.80051 0.24364 0.0
C126 C 0.0767 0.86516 0.25642 0.0
C127 C 0.10724 0.89892 0.30919 0.0
C128 C 0.12253 0.8692 0.34857 0.0
C129 C 0.10522 0.80512 0.33548 0.0
C130 C 0.07402 0.77092 0.28472 0.0
C131 C 0.05181 0.70138 0.28573 0.0
C132 C 0.97831 0.66641 0.28327 0.0
C133 C 0.08605 0.67403 0.23509 0.0
C134 C 0.07369 0.70186 0.34552 0.0
C135 C 0.1062 0.76221 0.37272 0.0
C136 C 0.12899 0.77434 0.4292 0.0
C137 C 0.11662 0.72342 0.45935 0.0
C138 C 0.08043 0.66142 0.43347 0.0
C139 C 0.05997 0.65074 0.3754 0.0
H140 H 0.22337 0.08121 0.28737 0.0
H141 H 0.21968 0.92525 0.15735 0.0
H142 H 0.28475 0.9032 0.21987 0.0
H143 H 0.38613 0.13584 0.31989 0.0
H144 H 0.37482 0.15856 0.39804 0.0
H145 H 0.32178 0.15858 0.34695 0.0
H146 H 0.22328 0.08438 0.40599 0.0
H147 H 0.27605 0.08491 0.45779 0.0
H148 H 0.22104 1.0117 0.42049 0.0
H149 H 0.35264 0.90014 0.29253 0.0
H150 H 0.42196 0.91608 0.37238 0.0
H151 H 0.38955 0.07838 0.45484 0.0
C152 C 0.23551 0.04186 0.27294 0.0
C153 C 0.21614 1.00423 0.21815 0.0
C154 C 0.23399 0.95414 0.19946 0.0
C155 C 0.27074 0.94127 0.23465 0.0
C156 C 0.29028 0.97976 0.2879 0.0
C157 C 0.27356 0.0291 0.30717 0.0
C158 C 0.30458 0.06522 0.36463 0.0
C159 C 0.34949 0.1336 0.35688 0.0
C160 C 0.25317 0.0613 0.41523 0.0
C161 C 0.34216 0.02908 0.37385 0.0
C162 C 0.33222 0.9795 0.3293 0.0
C163 C 0.36083 0.93872 0.32773 0.0
C164 C 0.40023 0.94829 0.37326 0.0
C165 C 0.41149 0.99869 0.4195 0.0
C166 C 0.38247 0.04002 0.41955 0.0
H167 H 0.02821 0.87053 0.92644 0.0
H168 H 0.82212 0.80704 0.92403 0.0
H169 H 0.81688 0.71797 0.84864 0.0
H170 H 0.05386 0.84284 0.77536 0.0
H171 H 0.11717 0.81842 0.77721 0.0
H172 H 0.10353 0.87067 0.83786 0.0
H173 H 0.08961 0.79488 0.91185 0.0
H174 H 0.10415 0.74228 0.85185 0.0
H175 H 0.0318 0.71441 0.89921 0.0
H176 H 0.83614 0.64151 0.76563 0.0
H177 H 0.87848 0.58415 0.6842 0.0
H178 H 0.07174 0.70082 0.74026 0.0
C179 C 0.98164 0.83665 0.91169 0.0
C180 C 0.92544 0.84524 0.93178 0.0
C181 C 0.86574 0.80107 0.90963 0.0
C182 C 0.86228 0.75031 0.86678 0.0
C183 C 0.91896 0.74441 0.84635 0.0
C184 C 0.97745 0.78623 0.86846 0.0
C185 C 0.03208 0.77321 0.83541 0.0
C186 C 0.07946 0.82961 0.80461 0.0
C187 C 0.06641 0.75509 0.87707 0.0
C188 C 0.99536 0.71808 0.79082 0.0
C189 C 0.93013 0.70168 0.79795 0.0
C190 C 0.88711 0.65354 0.76007 0.0
C191 C 0.91153 0.62133 0.71384 0.0
C192 C 0.97833 0.6378 0.70576 0.0
C193 C 0.02033 0.68669 0.74516 0.0
H194 H 0.10879 0.0353 0.82668 0.0
H195 H 0.17491 0.99802 0.97828 0.0
H196 H 0.2568 0.97341 0.91264 0.0
H197 H 0.13695 0.91774 0.71368 0.0
H198 H 0.16252 0.97058 0.65889 0.0
H199 H 0.10468 0.97488 0.71789 0.0
H200 H 0.18038 0.09338 0.74399 0.0
H201 H 0.23828 0.08676 0.68639 0.0
H202 H 0.26176 0.11514 0.76159 0.0
H203 H 0.33598 0.95876 0.82969 0.0
H204 H 0.40997 0.96503 0.74034 0.0
H205 H 0.29212 1.01534 0.64579 0.0
C206 C 0.13975 0.02093 0.84602 0.0
C207 C 0.13533 0.01823 0.90748 0.0
C208 C 0.17762 1.00051 0.93124 0.0
C209 C 0.22392 0.98602 0.89424 0.0
C210 C 0.22738 0.98978 0.83373 0.0
C211 C 0.18649 1.00718 0.81 0.0
C212 C 0.20355 1.01373 0.74495 0.0
C213 C 0.1486 0.9664 0.70666 0.0
C214 C 0.22211 0.08125 0.7336 0.0
C215 C 0.26088 0.99793 0.73568 0.0
C216 C 0.27351 0.98321 0.78696 0.0
C217 C 0.32611 0.96968 0.7892 0.0
C218 C 0.36768 0.97301 0.7382 0.0
C219 C 0.35668 0.99053 0.68615 0.0
C220 C 0.3017 1.00157 0.68483 0.0
H221 H 0.95011 0.23354 0.89963 0.0
H222 H 0.14257 0.2439 0.86211 0.0
H223 H 0.16991 0.32846 0.8012 0.0
H224 H 0.92732 0.24832 0.75913 0.0
H225 H 0.88423 0.29677 0.77886 0.0
H226 H 0.88168 0.24591 0.82933 0.0
H227 H 0.92315 0.33776 0.91247 0.0
H228 H 0.92456 0.38995 0.86355 0.0
H229 H 0.9961 0.40591 0.89938 0.0
H230 H 0.17358 0.4035 0.73565 0.0
H231 H 0.15171 0.46212 0.66867 0.0
H232 H 0.95642 0.40193 0.74583 0.0
C233 C 0.99858 0.2554 0.88032 0.0
C234 C 0.04469 0.23314 0.88637 0.0
C235 C 0.10688 0.26092 0.85849 0.0
C236 C 0.12291 0.30904 0.82388 0.0
C237 C 0.07614 0.32897 0.8172 0.0
C238 C 0.01527 0.30335 0.84481 0.0
C239 C 0.97242 0.32943 0.82565 0.0
C240 C 0.91295 0.27695 0.79642 0.0
C241 C 0.95293 0.36807 0.87841 0.0
C242 C 0.01779 0.3711 0.78116 0.0
C243 C 0.07781 0.3713 0.77794 0.0
C244 C 0.12695 0.40437 0.73827 0.0
C245 C 0.11416 0.43755 0.70035 0.0
C246 C 0.05248 0.43671 0.70185 0.0
C247 C 1.00421 0.4037 0.74356 0.0
H248 H 0.7688 0.07654 0.93555 0.0
H249 H 0.93029 0.08751 0.81171 0.0
H250 H 0.88481 0.11965 0.73833 0.0
H251 H 0.65132 1.0083 0.8346 0.0
H252 H 0.60426 0.05018 0.86813 0.0
H253 H 0.65433 0.03671 0.91271 0.0
H254 H 0.71176 0.15609 0.94653 0.0
H255 H 0.66214 0.17003 0.90138 0.0
H256 H 0.74842 0.20907 0.89172 0.0
H257 H 0.81532 0.14033 0.67502 0.0
H258 H 0.72572 0.13928 0.62592 0.0
H259 H 0.61057 0.11478 0.7921 0.0
C260 C 0.79532 0.08665 0.89339 0.0
C261 C 0.85308 0.07929 0.87941 0.0
C262 C 0.88592 0.09274 0.82351 0.0
C263 C 0.86053 0.11123 0.78159 0.0
C264 C 0.80272 0.11685 0.79651 0.0
C265 C 0.7708 0.1052 0.85128 0.0
C266 C 0.70717 0.10973 0.85513 0.0
C267 C 0.65099 0.04754 0.86838 0.0
C268 C 0.70741 0.1645 0.90144 0.0
C269 C 0.70667 0.1229 0.79304 0.0
C270 C 0.76288 0.1285 0.76026 0.0
C271 C 0.77145 0.1367 0.70051 0.0
C272 C 0.72026 0.13633 0.67302 0.0
C273 C 0.6609 0.1269 0.7051 0.0
C274 C 0.65536 0.1226 0.7664 0.0
loop_
_geom_bond_atom_site_label_1
_geom_bond_atom_site_label_2
_geom_bond_distance
_geom_bond_site_symmetry_2
_ccdc_geom_bond_type
Co0 O3 2.042 . S
Co0 O10 2.264 1_565 S
Co0 O29 2.286 1_455 S
Co0 O30 2.069 . S
Co0 O32 2.015 1_455 S
Co1 O3 2.122 1_545 S
Co1 O9 2.073 . S
Co1 O10 2.327 . S
Co1 O11 1.976 . S
Co2 O3 2.087 1_545 S
Co2 O5 2.087 1_454 S
Co2 O12 2.111 . S
Co2 O13 2.143 1_554 S
Co2 O17 2.111 1_444 S
Co2 O31 2.143 1_445 S
O3 Co0 2.042 . S
O3 Co1 2.122 1_565 S
O3 Co2 2.087 1_565 S
O3 H4 0.980 . S
H4 O3 0.980 . S
O5 Co2 2.087 1_656 S
O5 Co6 2.042 1_655 S
O5 Co7 2.122 1_545 S
O5 H8 0.980 1_556 S
Co6 O5 2.042 1_455 S
Co6 O14 2.286 . S
Co6 O15 2.069 1_455 S
Co6 O16 2.015 . S
Co6 O19 2.264 1_455 S
Co7 O5 2.122 1_565 S
Co7 O18 1.976 . S
Co7 O19 2.327 1_565 S
Co7 O20 2.073 . S
H8 O5 0.980 1_554 S
O9 Co1 2.073 . S
O9 C24 1.245 . S
O10 Co0 2.264 1_545 S
O10 Co1 2.327 . S
O10 C24 1.257 . S
O11 Co1 1.976 . S
O11 C23 1.251 . S
O12 Co2 2.111 . S
O12 C23 1.274 . S
O13 Co2 2.143 1_556 S
O13 C26 1.246 . S
O14 Co6 2.286 . S
O14 C25 1.259 . S
O15 Co6 2.069 1_655 S
O15 C25 1.289 1_655 S
O16 Co6 2.015 . S
O16 C26 1.257 . S
O17 Co2 2.111 1_666 S
O17 C27 1.274 . S
O18 Co7 1.976 . S
O18 C27 1.251 . S
O19 Co6 2.264 1_655 S
O19 Co7 2.327 1_545 S
O19 C28 1.257 . S
O20 Co7 2.073 . S
O20 C28 1.245 1_565 S
C21 O29 1.259 1_455 S
C21 O30 1.289 . S
C22 O31 1.246 . S
C22 O32 1.257 . S
C23 O11 1.251 . S
C23 O12 1.274 . S
C24 O9 1.245 . S
C24 O10 1.257 . S
C25 O14 1.259 . S
C25 O15 1.289 1_455 S
C26 O13 1.246 . S
C26 O16 1.257 . S
C27 O17 1.274 . S
C27 O18 1.251 . S
C28 O19 1.257 . S
C28 O20 1.245 1_545 S
O29 Co0 2.286 1_655 S
O29 C21 1.259 1_655 S
O30 Co0 2.069 . S
O30 C21 1.289 . S
O31 Co2 2.143 1_665 S
O31 C22 1.246 . S
O32 Co0 2.015 1_655 S
O32 C22 1.257 . S
Mg33 O40 2.141 . S
Mg33 O41 2.048 . S
Mg33 O42 2.048 . S
Mg33 O45 2.141 . S
C34 O35 1.313 . S
C34 O41 1.195 1_455 S
O35 C34 1.313 . S
C36 O37 1.245 . S
C36 O45 1.289 1_455 S
O37 C36 1.245 . S
C38 O39 1.245 . S
C38 O40 1.289 1_455 S
O39 C38 1.245 . S
O40 Mg33 2.141 . S
O40 C38 1.289 1_655 S
O41 Mg33 2.048 . S
O41 C34 1.195 1_655 S
O42 Mg33 2.048 . S
O42 C43 1.195 1_655 S
C43 O42 1.195 1_455 S
C43 O44 1.313 . S
O44 C43 1.313 . S
O45 Mg33 2.141 . S
O45 C36 1.289 1_655 S
Mg46 O53 2.141 . S
Mg46 O54 2.048 . S
Mg46 O55 2.048 . S
Mg46 O58 2.141 . S
C47 O48 1.298 1_545 S
C47 O54 1.200 . S
O48 C47 1.298 1_565 S
C49 O50 1.245 . S
C49 O58 1.289 1_565 S
O50 C49 1.245 . S
C51 O52 1.245 . S
C51 O53 1.289 1_565 S
O52 C51 1.245 . S
O53 Mg46 2.141 . S
O53 C51 1.289 1_545 S
O54 Mg46 2.048 . S
O54 C47 1.200 . S
O55 Mg46 2.048 . S
O55 C56 1.206 . S
C56 O55 1.206 . S
C56 O57 1.302 1_545 S
O57 C56 1.302 1_565 S
O58 Mg46 2.141 . S
O58 C49 1.289 1_545 S
H59 C71 0.930 . S
H60 C73 0.930 . S
H61 C74 0.930 . S
H62 C78 0.959 . S
H63 C78 0.959 . S
H64 C78 0.961 . S
H65 C79 0.960 . S
H66 C79 0.961 . S
H67 C79 0.959 . S
H68 C82 0.929 . S
H69 C83 0.931 . S
H70 C85 0.930 . S
C71 H59 0.930 . S
C71 C72 1.399 . S
C71 C76 1.399 . S
C72 C71 1.399 . S
C72 C73 1.376 1_455 S
C73 H60 0.930 . S
C73 C72 1.376 1_655 S
C73 C74 1.388 . S
C74 H61 0.930 . S
C74 C73 1.388 . S
C74 C75 1.390 . S
C75 C74 1.390 . S
C75 C76 1.394 1_655 S
C75 C81 1.465 . S
C76 C71 1.399 . S
C76 C75 1.394 1_455 S
C76 C77 1.516 . S
C77 C76 1.516 . S
C77 C78 1.502 . S
C77 C79 1.561 . S
C77 C80 1.526 . S
C78 H62 0.959 . S
C78 H63 0.959 . S
C78 H64 0.961 . S
C78 C77 1.502 . S
C79 H65 0.960 . S
C79 H66 0.961 . S
C79 H67 0.959 . S
C79 C77 1.561 . S
C80 C77 1.526 . S
C80 C81 1.396 1_455 S
C80 C85 1.390 . S
C81 C75 1.465 . S
C81 C80 1.396 1_655 S
C81 C82 1.399 . S
C82 H68 0.929 . S
C82 C81 1.399 . S
C82 C83 1.385 . S
C83 H69 0.931 . S
C83 C82 1.385 . S
C83 C84 1.389 1_655 S
C84 C83 1.389 1_455 S
C84 C85 1.387 . S
C85 H70 0.930 . S
C85 C80 1.390 . S
C85 C84 1.387 . S
H86 C98 0.930 . S
H87 C100 0.930 . S
H88 C101 0.930 . S
H89 C105 0.959 . S
H90 C105 0.959 . S
H91 C105 0.961 . S
H92 C106 0.960 . S
H93 C106 0.961 . S
H94 C106 0.959 . S
H95 C109 0.929 . S
H96 C110 0.931 . S
H97 C112 0.930 . S
C98 H86 0.930 . S
C98 C99 1.399 1_545 S
C98 C103 1.399 . S
C99 C98 1.399 1_565 S
C99 C100 1.376 . S
C100 H87 0.930 . S
C100 C99 1.376 . S
C100 C101 1.388 . S
C101 H88 0.930 . S
C101 C100 1.388 . S
C101 C102 1.390 . S
C102 C101 1.390 . S
C102 C103 1.394 1_565 S
C102 C108 1.465 . S
C103 C98 1.399 . S
C103 C102 1.394 1_545 S
C103 C104 1.516 . S
C104 C103 1.516 . S
C104 C105 1.502 . S
C104 C106 1.561 . S
C104 C107 1.526 . S
C105 H89 0.959 . S
C105 H90 0.959 . S
C105 H91 0.961 . S
C105 C104 1.502 . S
C106 H92 0.960 . S
C106 H93 0.961 . S
C106 H94 0.959 . S
C106 C104 1.561 . S
C107 C104 1.526 . S
C107 C108 1.396 1_545 S
C107 C112 1.390 . S
C108 C102 1.465 . S
C108 C107 1.396 1_565 S
C108 C109 1.399 . S
C109 H95 0.929 . S
C109 C108 1.399 . S
C109 C110 1.385 . S
C110 H96 0.931 . S
C110 C109 1.385 . S
C110 C111 1.395 . S
C111 C110 1.395 . S
C111 C112 1.383 1_565 S
C112 H97 0.930 . S
C112 C107 1.390 . S
C112 C111 1.383 1_545 S
H113 C125 0.930 . S
H114 C127 0.930 . S
H115 C128 0.930 . S
H116 C132 0.959 . S
H117 C132 0.959 . S
H118 C132 0.961 . S
H119 C133 0.960 . S
H120 C133 0.961 . S
H121 C133 0.959 . S
H122 C136 0.929 . S
H123 C137 0.931 . S
H124 C139 0.930 . S
C125 H113 0.930 . S
C125 C126 1.399 . S
C125 C130 1.399 . S
C126 C125 1.399 . S
C126 C127 1.376 1_455 S
C127 H114 0.930 . S
C127 C126 1.376 1_655 S
C127 C128 1.388 . S
C128 H115 0.930 . S
C128 C127 1.388 . S
C128 C129 1.390 1_655 S
C129 C128 1.390 1_455 S
C129 C130 1.394 . S
C129 C135 1.465 . S
C130 C125 1.399 . S
C130 C129 1.394 . S
C130 C131 1.516 . S
C131 C130 1.516 . S
C131 C132 1.502 . S
C131 C133 1.561 . S
C131 C134 1.526 . S
C132 H116 0.959 . S
C132 H117 0.959 . S
C132 H118 0.961 . S
C132 C131 1.502 . S
C133 H119 0.960 . S
C133 H120 0.961 . S
C133 H121 0.959 . S
C133 C131 1.561 . S
C134 C131 1.526 . S
C134 C135 1.396 . S
C134 C139 1.390 . S
C135 C129 1.465 . S
C135 C134 1.396 . S
C135 C136 1.399 1_455 S
C136 H122 0.929 . S
C136 C135 1.399 1_655 S
C136 C137 1.385 . S
C137 H123 0.931 . S
C137 C136 1.385 . S
C137 C138 1.389 1_655 S
C138 C137 1.389 1_455 S
C138 C139 1.387 . S
C139 H124 0.930 . S
C139 C134 1.390 . S
C139 C138 1.387 . S
H140 C152 0.930 . S
H141 C154 0.930 . S
H142 C155 0.930 . S
H143 C159 0.959 . S
H144 C159 0.959 . S
H145 C159 0.961 . S
H146 C160 0.960 . S
H147 C160 0.961 . S
H148 C160 0.959 . S
H149 C163 0.929 . S
H150 C164 0.931 . S
H151 C166 0.930 . S
C152 H140 0.930 . S
C152 C153 1.399 1_545 S
C152 C157 1.399 . S
C153 C152 1.399 1_565 S
C153 C154 1.376 . S
C154 H141 0.930 . S
C154 C153 1.376 . S
C154 C155 1.388 . S
C155 H142 0.930 . S
C155 C154 1.388 . S
C155 C156 1.390 . S
C156 C155 1.390 . S
C156 C157 1.394 1_565 S
C156 C162 1.465 . S
C157 C152 1.399 . S
C157 C156 1.394 1_545 S
C157 C158 1.516 . S
C158 C157 1.516 . S
C158 C159 1.502 . S
C158 C160 1.561 . S
C158 C161 1.526 . S
C159 H143 0.959 . S
C159 H144 0.959 . S
C159 H145 0.961 . S
C159 C158 1.502 . S
C160 H146 0.960 . S
C160 H147 0.961 . S
C160 H148 0.959 . S
C160 C158 1.561 . S
C161 C158 1.526 . S
C161 C162 1.396 1_545 S
C161 C166 1.390 . S
C162 C156 1.465 . S
C162 C161 1.396 1_565 S
C162 C163 1.399 . S
C163 H149 0.929 . S
C163 C162 1.399 . S
C163 C164 1.385 . S
C164 H150 0.931 . S
C164 C163 1.385 . S
C164 C165 1.389 . S
C165 C164 1.389 . S
C165 C166 1.387 1_565 S
C166 H151 0.930 . S
C166 C161 1.390 . S
C166 C165 1.387 1_545 S
H167 C179 0.930 . S
H168 C181 0.930 . S
H169 C182 0.930 . S
H170 C186 0.959 . S
H171 C186 0.959 . S
H172 C186 0.961 . S
H173 C187 0.960 . S
H174 C187 0.961 . S
H175 C187 0.959 . S
H176 C190 0.929 . S
H177 C191 0.932 . S
H178 C193 0.930 . S
C179 H167 0.930 . S
C179 C180 1.399 . S
C179 C184 1.399 . S
C180 C179 1.399 . S
C180 C181 1.376 1_455 S
C181 H168 0.930 . S
C181 C180 1.376 1_655 S
C181 C182 1.388 . S
C182 H169 0.930 . S
C182 C181 1.388 . S
C182 C183 1.395 . S
C183 C182 1.395 . S
C183 C184 1.390 1_655 S
C183 C189 1.462 1_655 S
C184 C179 1.399 . S
C184 C183 1.390 1_455 S
C184 C185 1.516 . S
C185 C184 1.516 . S
C185 C186 1.502 . S
C185 C187 1.561 1_455 S
C185 C188 1.526 . S
C186 H170 0.959 . S
C186 H171 0.959 . S
C186 H172 0.961 . S
C186 C185 1.502 . S
C187 H173 0.960 . S
C187 H174 0.961 . S
C187 H175 0.959 . S
C187 C185 1.561 1_655 S
C188 C185 1.526 . S
C188 C189 1.396 . S
C188 C193 1.390 . S
C189 C183 1.462 1_455 S
C189 C188 1.396 . S
C189 C190 1.399 1_455 S
C190 H176 0.929 . S
C190 C189 1.399 1_655 S
C190 C191 1.385 1_655 S
C191 H177 0.932 . S
C191 C190 1.385 1_455 S
C191 C192 1.389 . S
C192 C191 1.389 . S
C192 C193 1.387 . S
C193 H178 0.930 . S
C193 C188 1.390 . S
C193 C192 1.387 . S
H194 C206 0.930 . S
H195 C208 0.930 . S
H196 C209 0.930 . S
H197 C213 0.959 . S
H198 C213 0.959 . S
H199 C213 0.961 . S
H200 C214 0.960 . S
H201 C214 0.961 . S
H202 C214 0.959 . S
H203 C217 0.929 . S
H204 C218 0.931 . S
H205 C220 0.930 . S
C206 H194 0.930 . S
C206 C207 1.399 . S
C206 C211 1.399 . S
C207 C206 1.399 . S
C207 C208 1.376 1_545 S
C208 H195 0.930 . S
C208 C207 1.376 1_565 S
C208 C209 1.388 . S
C209 H196 0.930 . S
C209 C208 1.388 . S
C209 C210 1.390 . S
C210 C209 1.390 . S
C210 C211 1.394 1_565 S
C210 C216 1.465 . S
C211 C206 1.399 . S
C211 C210 1.394 1_545 S
C211 C212 1.516 . S
C212 C211 1.516 . S
C212 C213 1.502 . S
C212 C214 1.561 . S
C212 C215 1.526 . S
C213 H197 0.959 . S
C213 H198 0.959 . S
C213 H199 0.961 . S
C213 C212 1.502 . S
C214 H200 0.960 . S
C214 H201 0.961 . S
C214 H202 0.959 . S
C214 C212 1.561 . S
C215 C212 1.526 . S
C215 C216 1.396 1_545 S
C215 C220 1.390 . S
C216 C210 1.465 . S
C216 C215 1.396 1_565 S
C216 C217 1.399 . S
C217 H203 0.929 . S
C217 C216 1.399 . S
C217 C218 1.385 . S
C218 H204 0.931 . S
C218 C217 1.385 . S
C218 C219 1.389 1_565 S
C219 C218 1.389 1_545 S
C219 C220 1.387 . S
C220 H205 0.930 . S
C220 C215 1.390 . S
C220 C219 1.387 . S
H221 C233 0.930 . S
H222 C235 0.930 . S
H223 C236 0.930 . S
H224 C240 0.959 . S
H225 C240 0.959 . S
H226 C240 0.961 . S
H227 C241 0.960 . S
H228 C241 0.961 . S
H229 C241 0.959 . S
H230 C244 0.929 . S
H231 C245 0.931 . S
H232 C247 0.930 . S
C233 H221 0.930 . S
C233 C234 1.399 1_655 S
C233 C238 1.399 . S
C234 C233 1.399 1_455 S
C234 C235 1.376 . S
C235 H222 0.930 . S
C235 C234 1.376 . S
C235 C236 1.388 . S
C236 H223 0.930 . S
C236 C235 1.388 . S
C236 C237 1.390 . S
C237 C236 1.390 . S
C237 C238 1.394 1_455 S
C237 C243 1.465 . S
C238 C233 1.399 . S
C238 C237 1.394 1_655 S
C238 C239 1.516 . S
C239 C238 1.516 . S
C239 C240 1.502 . S
C239 C241 1.561 . S
C239 C242 1.526 . S
C240 H224 0.959 . S
C240 H225 0.959 . S
C240 H226 0.961 . S
C240 C239 1.502 . S
C241 H227 0.960 . S
C241 H228 0.961 . S
C241 H229 0.959 . S
C241 C239 1.561 . S
C242 C239 1.526 . S
C242 C243 1.396 1_655 S
C242 C247 1.390 . S
C243 C237 1.465 . S
C243 C242 1.396 1_455 S
C243 C244 1.399 . S
C244 H230 0.929 . S
C244 C243 1.399 . S
C244 C245 1.385 . S
C245 H231 0.931 . S
C245 C244 1.385 . S
C245 C246 1.389 . S
C246 C245 1.389 . S
C246 C247 1.387 1_455 S
C247 H232 0.930 . S
C247 C242 1.390 . S
C247 C246 1.387 1_655 S
H248 C260 0.930 . S
H249 C262 0.930 . S
H250 C263 0.930 . S
H251 C267 0.959 . S
H252 C267 0.959 . S
H253 C267 0.961 . S
H254 C268 0.960 . S
H255 C268 0.961 . S
H256 C268 0.959 . S
H257 C271 0.929 . S
H258 C272 0.931 . S
H259 C274 0.930 . S
C260 H248 0.930 . S
C260 C261 1.399 . S
C260 C265 1.399 . S
C261 C260 1.399 . S
C261 C262 1.376 1_545 S
C262 H249 0.930 . S
C262 C261 1.376 1_565 S
C262 C263 1.388 . S
C263 H250 0.930 . S
C263 C262 1.388 . S
C263 C264 1.390 . S
C264 C263 1.390 . S
C264 C265 1.394 1_565 S
C264 C270 1.465 . S
C265 C260 1.399 . S
C265 C264 1.394 1_545 S
C265 C266 1.516 . S
C266 C265 1.516 . S
C266 C267 1.502 . S
C266 C268 1.561 . S
C266 C269 1.526 . S
C267 H251 0.959 . S
C267 H252 0.959 . S
C267 H253 0.961 . S
C267 C266 1.502 . S
C268 H254 0.960 . S
C268 H255 0.961 . S
C268 H256 0.959 . S
C268 C266 1.561 . S
C269 C266 1.526 . S
C269 C270 1.396 1_545 S
C269 C274 1.390 . S
C270 C264 1.465 . S
C270 C269 1.396 1_565 S
C270 C271 1.399 . S
C271 H257 0.929 . S
C271 C270 1.399 . S
C271 C272 1.385 . S
C272 H258 0.931 . S
C272 C271 1.385 . S
C272 C273 1.389 1_565 S
C273 C272 1.389 1_545 S
C273 C274 1.387 . S
C274 H259 0.930 . S
C274 C269 1.390 . S
C274 C273 1.387 . S
C72 C23 1.344 . S
C84 C34 1.395 . S
C99 C22 1.427 . S
C111 C56 1.439 1_565 S
C126 C21 1.694 . S
C138 C43 1.724 . S
C153 C24 1.503 1_565 S
C165 C47 1.515 1_565 S
C180 C27 1.196 1_455 S
C192 C36 1.325 . S
C207 C26 1.398 . S
C219 C51 1.384 1_545 S
C246 C38 1.644 . S
C234 C25 1.634 . S
C261 C28 1.393 . S
C273 C49 1.461 1_545 S
