# Generated by pormake.
# Topology ibd, (4,6)-cn, num edge types: 1
# Building blocks:
#     Node 0, Type 0, BuildingBlock: NAHDIM_clean_sbu_0, # of connection points: 4
#     Node 1, Type 0, BuildingBlock: NAHDIM_clean_sbu_0, # of connection points: 4
#     Node 2, Type 0, BuildingBlock: NAHDIM_clean_sbu_0, # of connection points: 4
#     Node 3, Type 0, BuildingBlock: NAHDIM_clean_sbu_0, # of connection points: 4
#     Node 4, Type 0, BuildingBlock: NAHDIM_clean_sbu_0, # of connection points: 4
#     Node 5, Type 0, BuildingBlock: NAHDIM_clean_sbu_0, # of connection points: 4
#     Node 6, Type 0, BuildingBlock: NAHDIM_clean_sbu_0, # of connection points: 4
#     Node 7, Type 0, BuildingBlock: NAHDIM_clean_sbu_0, # of connection points: 4
#     Node 8, Type 0, BuildingBlock: NAHDIM_clean_sbu_0, # of connection points: 4
#     Node 9, Type 0, BuildingBlock: NAHDIM_clean_sbu_0, # of connection points: 4
#     Node 10, Type 0, BuildingBlock: NAHDIM_clean_sbu_0, # of connection points: 4
#     Node 11, Type 0, BuildingBlock: NAHDIM_clean_sbu_0, # of connection points: 4
#     Node 12, Type 0, BuildingBlock: NAHDIM_clean_sbu_0, # of connection points: 4
#     Node 13, Type 0, BuildingBlock: NAHDIM_clean_sbu_0, # of connection points: 4
#     Node 14, Type 0, BuildingBlock: NAHDIM_clean_sbu_0, # of connection points: 4
#     Node 15, Type 0, BuildingBlock: NAHDIM_clean_sbu_0, # of connection points: 4
#     Node 16, Type 0, BuildingBlock: NAHDIM_clean_sbu_0, # of connection points: 4
#     Node 17, Type 0, BuildingBlock: NAHDIM_clean_sbu_0, # of connection points: 4
#     Node 18, Type 0, BuildingBlock: NAHDIM_clean_sbu_0, # of connection points: 4
#     Node 19, Type 0, BuildingBlock: NAHDIM_clean_sbu_0, # of connection points: 4
#     Node 20, Type 0, BuildingBlock: NAHDIM_clean_sbu_0, # of connection points: 4
#     Node 21, Type 0, BuildingBlock: NAHDIM_clean_sbu_0, # of connection points: 4
#     Node 22, Type 0, BuildingBlock: NAHDIM_clean_sbu_0, # of connection points: 4
#     Node 23, Type 0, BuildingBlock: NAHDIM_clean_sbu_0, # of connection points: 4
#     Node 24, Type 1, BuildingBlock: OJICUG_clean_sbu_0, # of connection points: 6
#     Node 25, Type 1, BuildingBlock: OJICUG_clean_sbu_0, # of connection points: 6
#     Node 26, Type 1, BuildingBlock: OJICUG_clean_sbu_0, # of connection points: 6
#     Node 27, Type 1, BuildingBlock: OJICUG_clean_sbu_0, # of connection points: 6
#     Node 28, Type 1, BuildingBlock: OJICUG_clean_sbu_0, # of connection points: 6
#     Node 29, Type 1, BuildingBlock: OJICUG_clean_sbu_0, # of connection points: 6
#     Node 30, Type 1, BuildingBlock: OJICUG_clean_sbu_0, # of connection points: 6
#     Node 31, Type 1, BuildingBlock: OJICUG_clean_sbu_0, # of connection points: 6
#     Node 32, Type 1, BuildingBlock: OJICUG_clean_sbu_0, # of connection points: 6
#     Node 33, Type 1, BuildingBlock: OJICUG_clean_sbu_0, # of connection points: 6
#     Node 34, Type 1, BuildingBlock: OJICUG_clean_sbu_0, # of connection points: 6
#     Node 35, Type 1, BuildingBlock: OJICUG_clean_sbu_0, # of connection points: 6
#     Node 36, Type 1, BuildingBlock: OJICUG_clean_sbu_0, # of connection points: 6
#     Node 37, Type 1, BuildingBlock: OJICUG_clean_sbu_0, # of connection points: 6
#     Node 38, Type 1, BuildingBlock: OJICUG_clean_sbu_0, # of connection points: 6
#     Node 39, Type 1, BuildingBlock: OJICUG_clean_sbu_0, # of connection points: 6
#     Edge 40, Type (0, 1), BuildingBlock: XIVTED_clean_linker_0, # of connection points: 2
#     Edge 41, Type (0, 1), BuildingBlock: XIVTED_clean_linker_0, # of connection points: 2
#     Edge 42, Type (0, 1), BuildingBlock: XIVTED_clean_linker_0, # of connection points: 2
#     Edge 43, Type (0, 1), BuildingBlock: XIVTED_clean_linker_0, # of connection points: 2
#     Edge 44, Type (0, 1), BuildingBlock: XIVTED_clean_linker_0, # of connection points: 2
#     Edge 45, Type (0, 1), BuildingBlock: XIVTED_clean_linker_0, # of connection points: 2
#     Edge 46, Type (0, 1), BuildingBlock: XIVTED_clean_linker_0, # of connection points: 2
#     Edge 47, Type (0, 1), BuildingBlock: XIVTED_clean_linker_0, # of connection points: 2
#     Edge 48, Type (0, 1), BuildingBlock: XIVTED_clean_linker_0, # of connection points: 2
#     Edge 49, Type (0, 1), BuildingBlock: XIVTED_clean_linker_0, # of connection points: 2
#     Edge 50, Type (0, 1), BuildingBlock: XIVTED_clean_linker_0, # of connection points: 2
#     Edge 51, Type (0, 1), BuildingBlock: XIVTED_clean_linker_0, # of connection points: 2
#     Edge 52, Type (0, 1), BuildingBlock: XIVTED_clean_linker_0, # of connection points: 2
#     Edge 53, Type (0, 1), BuildingBlock: XIVTED_clean_linker_0, # of connection points: 2
#     Edge 54, Type (0, 1), BuildingBlock: XIVTED_clean_linker_0, # of connection points: 2
#     Edge 55, Type (0, 1), BuildingBlock: XIVTED_clean_linker_0, # of connection points: 2
#     Edge 56, Type (0, 1), BuildingBlock: XIVTED_clean_linker_0, # of connection points: 2
#     Edge 57, Type (0, 1), BuildingBlock: XIVTED_clean_linker_0, # of connection points: 2
#     Edge 58, Type (0, 1), BuildingBlock: XIVTED_clean_linker_0, # of connection points: 2
#     Edge 59, Type (0, 1), BuildingBlock: XIVTED_clean_linker_0, # of connection points: 2
#     Edge 60, Type (0, 1), BuildingBlock: XIVTED_clean_linker_0, # of connection points: 2
#     Edge 61, Type (0, 1), BuildingBlock: XIVTED_clean_linker_0, # of connection points: 2
#     Edge 62, Type (0, 1), BuildingBlock: XIVTED_clean_linker_0, # of connection points: 2
#     Edge 63, Type (0, 1), BuildingBlock: XIVTED_clean_linker_0, # of connection points: 2
#     Edge 64, Type (0, 1), BuildingBlock: XIVTED_clean_linker_0, # of connection points: 2
#     Edge 65, Type (0, 1), BuildingBlock: XIVTED_clean_linker_0, # of connection points: 2
#     Edge 66, Type (0, 1), BuildingBlock: XIVTED_clean_linker_0, # of connection points: 2
#     Edge 67, Type (0, 1), BuildingBlock: XIVTED_clean_linker_0, # of connection points: 2
#     Edge 68, Type (0, 1), BuildingBlock: XIVTED_clean_linker_0, # of connection points: 2
#     Edge 69, Type (0, 1), BuildingBlock: XIVTED_clean_linker_0, # of connection points: 2
#     Edge 70, Type (0, 1), BuildingBlock: XIVTED_clean_linker_0, # of connection points: 2
#     Edge 71, Type (0, 1), BuildingBlock: XIVTED_clean_linker_0, # of connection points: 2
#     Edge 72, Type (0, 1), BuildingBlock: XIVTED_clean_linker_0, # of connection points: 2
#     Edge 73, Type (0, 1), BuildingBlock: XIVTED_clean_linker_0, # of connection points: 2
#     Edge 74, Type (0, 1), BuildingBlock: XIVTED_clean_linker_0, # of connection points: 2
#     Edge 75, Type (0, 1), BuildingBlock: XIVTED_clean_linker_0, # of connection points: 2
#     Edge 76, Type (0, 1), BuildingBlock: XIVTED_clean_linker_0, # of connection points: 2
#     Edge 77, Type (0, 1), BuildingBlock: XIVTED_clean_linker_0, # of connection points: 2
#     Edge 78, Type (0, 1), BuildingBlock: XIVTED_clean_linker_0, # of connection points: 2
#     Edge 79, Type (0, 1), BuildingBlock: XIVTED_clean_linker_0, # of connection points: 2
#     Edge 80, Type (0, 1), BuildingBlock: XIVTED_clean_linker_0, # of connection points: 2
#     Edge 81, Type (0, 1), BuildingBlock: XIVTED_clean_linker_0, # of connection points: 2
#     Edge 82, Type (0, 1), BuildingBlock: XIVTED_clean_linker_0, # of connection points: 2
#     Edge 83, Type (0, 1), BuildingBlock: XIVTED_clean_linker_0, # of connection points: 2
#     Edge 84, Type (0, 1), BuildingBlock: XIVTED_clean_linker_0, # of connection points: 2
#     Edge 85, Type (0, 1), BuildingBlock: XIVTED_clean_linker_0, # of connection points: 2
#     Edge 86, Type (0, 1), BuildingBlock: XIVTED_clean_linker_0, # of connection points: 2
#     Edge 87, Type (0, 1), BuildingBlock: XIVTED_clean_linker_0, # of connection points: 2
#     Edge 88, Type (0, 1), BuildingBlock: XIVTED_clean_linker_0, # of connection points: 2
#     Edge 89, Type (0, 1), BuildingBlock: XIVTED_clean_linker_0, # of connection points: 2
#     Edge 90, Type (0, 1), BuildingBlock: XIVTED_clean_linker_0, # of connection points: 2
#     Edge 91, Type (0, 1), BuildingBlock: XIVTED_clean_linker_0, # of connection points: 2
#     Edge 92, Type (0, 1), BuildingBlock: XIVTED_clean_linker_0, # of connection points: 2
#     Edge 93, Type (0, 1), BuildingBlock: XIVTED_clean_linker_0, # of connection points: 2
#     Edge 94, Type (0, 1), BuildingBlock: XIVTED_clean_linker_0, # of connection points: 2
#     Edge 95, Type (0, 1), BuildingBlock: XIVTED_clean_linker_0, # of connection points: 2
#     Edge 96, Type (0, 1), BuildingBlock: XIVTED_clean_linker_0, # of connection points: 2
#     Edge 97, Type (0, 1), BuildingBlock: XIVTED_clean_linker_0, # of connection points: 2
#     Edge 98, Type (0, 1), BuildingBlock: XIVTED_clean_linker_0, # of connection points: 2
#     Edge 99, Type (0, 1), BuildingBlock: XIVTED_clean_linker_0, # of connection points: 2
#     Edge 100, Type (0, 1), BuildingBlock: XIVTED_clean_linker_0, # of connection points: 2
#     Edge 101, Type (0, 1), BuildingBlock: XIVTED_clean_linker_0, # of connection points: 2
#     Edge 102, Type (0, 1), BuildingBlock: XIVTED_clean_linker_0, # of connection points: 2
#     Edge 103, Type (0, 1), BuildingBlock: XIVTED_clean_linker_0, # of connection points: 2
#     Edge 104, Type (0, 1), BuildingBlock: XIVTED_clean_linker_0, # of connection points: 2
#     Edge 105, Type (0, 1), BuildingBlock: XIVTED_clean_linker_0, # of connection points: 2
#     Edge 106, Type (0, 1), BuildingBlock: XIVTED_clean_linker_0, # of connection points: 2
#     Edge 107, Type (0, 1), BuildingBlock: XIVTED_clean_linker_0, # of connection points: 2
#     Edge 108, Type (0, 1), BuildingBlock: XIVTED_clean_linker_0, # of connection points: 2
#     Edge 109, Type (0, 1), BuildingBlock: XIVTED_clean_linker_0, # of connection points: 2
#     Edge 110, Type (0, 1), BuildingBlock: XIVTED_clean_linker_0, # of connection points: 2
#     Edge 111, Type (0, 1), BuildingBlock: XIVTED_clean_linker_0, # of connection points: 2
#     Edge 112, Type (0, 1), BuildingBlock: XIVTED_clean_linker_0, # of connection points: 2
#     Edge 113, Type (0, 1), BuildingBlock: XIVTED_clean_linker_0, # of connection points: 2
#     Edge 114, Type (0, 1), BuildingBlock: XIVTED_clean_linker_0, # of connection points: 2
#     Edge 115, Type (0, 1), BuildingBlock: XIVTED_clean_linker_0, # of connection points: 2
#     Edge 116, Type (0, 1), BuildingBlock: XIVTED_clean_linker_0, # of connection points: 2
#     Edge 117, Type (0, 1), BuildingBlock: XIVTED_clean_linker_0, # of connection points: 2
#     Edge 118, Type (0, 1), BuildingBlock: XIVTED_clean_linker_0, # of connection points: 2
#     Edge 119, Type (0, 1), BuildingBlock: XIVTED_clean_linker_0, # of connection points: 2
#     Edge 120, Type (0, 1), BuildingBlock: XIVTED_clean_linker_0, # of connection points: 2
#     Edge 121, Type (0, 1), BuildingBlock: XIVTED_clean_linker_0, # of connection points: 2
#     Edge 122, Type (0, 1), BuildingBlock: XIVTED_clean_linker_0, # of connection points: 2
#     Edge 123, Type (0, 1), BuildingBlock: XIVTED_clean_linker_0, # of connection points: 2
#     Edge 124, Type (0, 1), BuildingBlock: XIVTED_clean_linker_0, # of connection points: 2
#     Edge 125, Type (0, 1), BuildingBlock: XIVTED_clean_linker_0, # of connection points: 2
#     Edge 126, Type (0, 1), BuildingBlock: XIVTED_clean_linker_0, # of connection points: 2
#     Edge 127, Type (0, 1), BuildingBlock: XIVTED_clean_linker_0, # of connection points: 2
#     Edge 128, Type (0, 1), BuildingBlock: XIVTED_clean_linker_0, # of connection points: 2
#     Edge 129, Type (0, 1), BuildingBlock: XIVTED_clean_linker_0, # of connection points: 2
#     Edge 130, Type (0, 1), BuildingBlock: XIVTED_clean_linker_0, # of connection points: 2
#     Edge 131, Type (0, 1), BuildingBlock: XIVTED_clean_linker_0, # of connection points: 2
#     Edge 132, Type (0, 1), BuildingBlock: XIVTED_clean_linker_0, # of connection points: 2
#     Edge 133, Type (0, 1), BuildingBlock: XIVTED_clean_linker_0, # of connection points: 2
#     Edge 134, Type (0, 1), BuildingBlock: XIVTED_clean_linker_0, # of connection points: 2
#     Edge 135, Type (0, 1), BuildingBlock: XIVTED_clean_linker_0, # of connection points: 2
# Relax obj value: 0.381
# Max RMSD: 0.298
# Mean RMSD: 0.288
data_MOF--net-ibd--node1-NAHDIM_clean_sbu_0--node2-OJICUG_clean_sbu_0--edge1-XIVTED_clean_linker_0
_symmetry_space_group_name_H-M    P1
_symmetry_Int_Tables_number       1
_symmetry_cell_setting            triclinic
loop_
_symmetry_equiv_pos_as_xyz
'x, y, z'
_cell_length_a     48.645003
_cell_length_b     48.6234
_cell_length_c     48.580983
_cell_angle_alpha  91.148976
_cell_angle_beta   91.242069
_cell_angle_gamma 91.920365
loop_
_atom_site_label
_atom_site_type_symbol
_atom_site_fract_x
_atom_site_fract_y
_atom_site_fract_z
_atom_type_partial_charge
C0 C 0.04474 0.17866 0.33804 0.0
O1 O 0.04718 0.17247 0.36415 0.0
O2 O 0.99186 0.20152 0.37823 0.0
Zn3 Zn 0.98656 0.17434 0.34724 0.0
O4 O 0.95543 0.18591 0.32285 0.0
C5 C 0.95795 0.126 0.36612 0.0
O6 O 0.93694 0.13658 0.35316 0.0
O7 O 0.02113 0.17823 0.3263 0.0
C8 C 0.93783 0.20254 0.33159 0.0
O9 O 0.93756 0.20885 0.358 0.0
C10 C 0.00192 0.22533 0.37342 0.0
O11 O 0.00666 0.23219 0.34789 0.0
O12 O 0.98161 0.13743 0.36404 0.0
C13 C 0.03265 0.76145 0.64654 0.0
O14 O 0.04047 0.76238 0.62086 0.0
O15 O 0.96753 0.72673 0.60578 0.0
Zn16 Zn 0.97741 0.76366 0.62328 0.0
O17 O 0.9455 0.77819 0.64331 0.0
C18 C 0.9767 0.8052 0.58028 0.0
O19 O 0.94978 0.80184 0.5801 0.0
O20 O 0.00718 0.76062 0.65182 0.0
C21 C 0.94609 0.80313 0.65151 0.0
O22 O 0.96645 0.81963 0.64414 0.0
C23 C 0.94547 0.7134 0.61144 0.0
O24 O 0.92862 0.72382 0.62932 0.0
O25 O 0.99131 0.79075 0.59597 0.0
C26 C 0.56853 0.69411 0.86791 0.0
O27 O 0.55831 0.6803 0.88852 0.0
O28 O 0.55013 0.75741 0.92144 0.0
Zn29 Zn 0.53429 0.73707 0.88805 0.0
O30 O 0.51246 0.76069 0.86305 0.0
C31 C 0.48689 0.69848 0.88821 0.0
O32 O 0.48038 0.70813 0.86397 0.0
O33 O 0.56268 0.71921 0.86523 0.0
C34 C 0.48912 0.76975 0.86916 0.0
O35 O 0.48038 0.76719 0.89441 0.0
C36 C 0.57033 0.77466 0.9222 0.0
O37 O 0.58268 0.78098 0.89928 0.0
O38 O 0.5084 0.70759 0.90117 0.0
C39 C 0.57908 0.24959 0.14475 0.0
O40 O 0.56863 0.23883 0.12165 0.0
O41 O 0.51108 0.25002 0.12323 0.0
Zn42 Zn 0.52997 0.28144 0.14424 0.0
O43 O 0.51017 0.29196 0.17846 0.0
C44 C 0.51535 0.31629 0.10034 0.0
O45 O 0.49252 0.30114 0.10098 0.0
O46 O 0.5669 0.26912 0.15659 0.0
C47 C 0.4893 0.30689 0.1795 0.0
O48 O 0.47861 0.31623 0.15661 0.0
C49 C 0.48628 0.24135 0.12492 0.0
O50 O 0.47026 0.25261 0.14309 0.0
O51 O 0.53423 0.31264 0.11827 0.0
C52 C 0.06178 0.73598 0.10672 0.0
O53 O 0.06576 0.72512 0.13097 0.0
O54 O 0.05905 0.80946 0.15179 0.0
Zn55 Zn 0.03309 0.78062 0.13489 0.0
O56 O -0.00094 0.79473 0.11727 0.0
C57 C 0.01174 0.76647 0.18631 0.0
O58 O 0.01225 0.79342 0.189 0.0
O59 O 0.05024 0.75893 0.1049 0.0
C60 C 0.98156 0.81269 0.12288 0.0
O61 O 0.98492 0.8288 0.1448 0.0
C62 C 0.05949 0.83537 0.14879 0.0
O63 O 0.04202 0.84625 0.1315 0.0
O64 O 0.02058 0.75556 0.1644 0.0
C65 C 0.53117 0.72413 0.40511 0.0
O66 O 0.54126 0.72677 0.3804 0.0
O67 O 0.48718 0.75521 0.35505 0.0
Zn68 Zn 0.50094 0.77197 0.39076 0.0
O69 O 0.46993 0.78982 0.40986 0.0
C70 C 0.55627 0.7984 0.39259 0.0
O71 O 0.56301 0.77898 0.4096 0.0
O72 O 0.5142 0.74138 0.41391 0.0
C73 C 0.47324 0.81268 0.42278 0.0
O74 O 0.49744 0.82553 0.42285 0.0
C75 C 0.47232 0.73322 0.35473 0.0
O76 O 0.46529 0.72223 0.37816 0.0
O77 O 0.53171 0.79929 0.38319 0.0
C78 C 0.49402 0.18655 0.58095 0.0
O79 O 0.49516 0.17425 0.60476 0.0
O80 O 0.52774 0.24112 0.6346 0.0
Zn81 Zn 0.49067 0.23447 0.61587 0.0
O82 O 0.47486 0.27146 0.60831 0.0
C83 C 0.44366 0.22036 0.64974 0.0
O84 O 0.43361 0.24344 0.64103 0.0
O85 O 0.49286 0.21262 0.58051 0.0
C86 C 0.48045 0.29277 0.62331 0.0
O87 O 0.49611 0.29092 0.6455 0.0
C88 C 0.54483 0.25978 0.62723 0.0
O89 O 0.53996 0.27287 0.60433 0.0
O90 O 0.46697 0.21303 0.64158 0.0
C91 C 0.04149 0.2441 0.88538 0.0
O92 O 0.05598 0.2466 0.86301 0.0
O93 O 0.97812 0.26554 0.83438 0.0
Zn94 Zn 0.00528 0.2842 0.86099 0.0
O95 O 0.98946 0.31383 0.88409 0.0
C96 C 0.04173 0.3258 0.83813 0.0
O97 O 0.02713 0.34308 0.85234 0.0
O98 O 0.0196 0.25734 0.88778 0.0
C99 C 0.96476 0.32115 0.88554 0.0
O100 O 0.94572 0.30913 0.86943 0.0
C101 C 0.96564 0.2428 0.83913 0.0
O102 O 0.96878 0.23163 0.86335 0.0
O103 O 0.03632 0.3001 0.83936 0.0
C104 C 0.37978 0.87562 0.18923 0.0
O105 O 0.3742 0.86721 0.21409 0.0
O106 O 0.33013 0.90186 0.23782 0.0
Zn107 Zn 0.3495 0.92098 0.20693 0.0
O108 O 0.38023 0.94495 0.22373 0.0
C109 C 0.31309 0.96306 0.20622 0.0
O110 O 0.31837 0.96013 0.23262 0.0
O111 O 0.36744 0.89625 0.18009 0.0
C112 C 0.38647 0.96932 0.21654 0.0
O113 O 0.37283 0.98035 0.19616 0.0
C114 C 0.34148 0.90244 0.26167 0.0
O115 O 0.36731 0.91093 0.26456 0.0
O116 O 0.32356 0.94657 0.18907 0.0
C117 C 0.3411 0.09269 0.5623 0.0
O118 O 0.33645 0.09546 0.53577 0.0
O119 O 0.33588 0.16256 0.53105 0.0
Zn120 Zn 0.31579 0.14257 0.56055 0.0
O121 O 0.28214 0.12346 0.54382 0.0
C122 C 0.28209 0.1654 0.60193 0.0
O123 O 0.27168 0.14011 0.60201 0.0
O124 O 0.33669 0.11289 0.5784 0.0
C125 C 0.26602 0.13348 0.52605 0.0
O126 O 0.27116 0.15835 0.51697 0.0
C127 C 0.35993 0.17328 0.53417 0.0
O128 O 0.374 0.16901 0.55698 0.0
O129 O 0.30293 0.17063 0.5874 0.0
C130 C 0.11938 0.91541 0.77148 0.0
O131 O 0.09438 0.91811 0.76135 0.0
O132 O 0.09381 0.96287 0.83564 0.0
Zn133 Zn 0.11119 0.96803 0.79918 0.0
O134 O 0.1391 -0.00088 0.80119 0.0
C135 C 0.08691 0.9825 0.74696 0.0
O136 O 0.11262 0.98496 0.73938 0.0
O137 O 0.12993 0.93382 0.78777 0.0
C138 C 0.13684 0.02016 0.81678 0.0
O139 O 0.11506 0.02216 0.83214 0.0
C140 C 0.09956 0.94361 0.85186 0.0
O141 O 0.11892 0.92658 0.8454 0.0
O142 O 0.08168 0.97585 0.77148 0.0
C143 C 0.30311 0.88221 0.12279 0.0
O144 O 0.31796 0.90222 0.11216 0.0
O145 O 0.2882 0.92649 0.06833 0.0
Zn146 Zn 0.26194 0.89831 0.0833 0.0
O147 O 0.25377 0.8701 0.05334 0.0
C148 C 0.2146 0.92483 0.06905 0.0
O149 O 0.22614 0.9206 0.04519 0.0
O150 O 0.27795 0.87896 0.11548 0.0
C151 C 0.23094 0.85667 0.05253 0.0
O152 O 0.21348 0.86015 0.07246 0.0
C153 C 0.30508 0.92002 0.04988 0.0
O154 O 0.30659 0.89412 0.042 0.0
O155 O 0.22665 0.91681 0.09081 0.0
C156 C 0.20106 0.40911 0.89577 0.0
O157 O 0.21435 0.39622 0.8764 0.0
O158 O 0.25866 0.3666 0.90072 0.0
Zn159 Zn 0.24036 0.38465 0.93232 0.0
O160 O 0.26598 0.4119 0.95219 0.0
C161 C 0.25117 0.34081 0.96712 0.0
O162 O 0.27506 0.34352 0.95519 0.0
O163 O 0.2074 0.40511 0.92082 0.0
C164 C 0.26235 0.41571 0.9778 0.0
O165 O 0.24225 0.40216 0.98976 0.0
C166 C 0.28293 0.37297 0.89349 0.0
O167 O 0.29572 0.39469 0.90486 0.0
O168 O 0.23145 0.35558 0.95942 0.0
C169 C 0.7018 0.14785 0.96231 0.0
O170 O 0.68546 0.12592 0.96414 0.0
O171 O 0.74933 0.10156 0.00982 0.0
Zn172 Zn 0.72341 0.13177 0.01547 0.0
O173 O 0.73814 0.15745 0.04535 0.0
C174 C 0.67317 0.11828 0.04551 0.0
O175 O 0.68048 0.1388 0.06241 0.0
O176 O 0.7195 0.15345 0.98135 0.0
C177 C 0.7589 0.15239 0.06053 0.0
O178 O 0.77004 0.12821 0.05865 0.0
C179 C 0.77241 0.10367 -0.00172 0.0
O180 O 0.78069 0.12739 0.98834 0.0
O181 O 0.68765 0.11342 0.02468 0.0
C182 C 0.13073 0.5137 0.35662 0.0
O183 O 0.13945 0.4891 0.36209 0.0
O184 O 0.17631 0.47516 0.31042 0.0
Zn185 Zn 0.15298 0.50669 0.30056 0.0
O186 O 0.12415 0.49424 0.27247 0.0
C187 C 0.17058 0.55093 0.26502 0.0
O188 O 0.1451 0.54937 0.25544 0.0
O189 O 0.13482 0.52389 0.33311 0.0
C190 C 0.12809 0.4758 0.2542 0.0
O191 O 0.15189 0.46384 0.25349 0.0
C192 C 0.16915 0.45135 0.31852 0.0
O193 O 0.14314 0.44499 0.3227 0.0
O194 O 0.17789 0.53509 0.28411 0.0
C195 C 0.66518 0.85854 0.44022 0.0
O196 O 0.68017 0.84058 0.42734 0.0
O197 O 0.71931 0.81939 0.46933 0.0
Zn198 Zn 0.69879 0.84821 0.48968 0.0
O199 O 0.72569 0.87788 0.50289 0.0
C200 C 0.68027 0.84204 0.54624 0.0
O201 O 0.69379 0.86534 0.55191 0.0
O202 O 0.67002 0.86425 0.46553 0.0
C203 C 0.74525 0.87291 0.51964 0.0
O204 O 0.74786 0.84783 0.52869 0.0
C205 C 0.74118 0.8257 0.4567 0.0
O206 O 0.74991 0.85154 0.4563 0.0
O207 O 0.68003 0.83168 0.52199 0.0
C208 C 0.85503 0.14012 0.32107 0.0
O209 O 0.87506 0.12912 0.33514 0.0
O210 O 0.90896 0.0987 0.2965 0.0
Zn211 Zn 0.87948 0.11494 0.273 0.0
O212 O 0.85481 0.08384 0.25669 0.0
C213 C 0.90031 0.1252 0.2193 0.0
O214 O 0.88697 0.10181 0.21344 0.0
O215 O 0.85563 0.13959 0.29492 0.0
C216 C 0.83323 0.07601 0.2691 0.0
O217 O 0.82725 0.08817 0.29248 0.0
C218 C 0.90471 0.07891 0.31272 0.0
O219 O 0.87957 0.0688 0.31551 0.0
O220 O 0.89872 0.13572 0.24333 0.0
C221 C 0.18977 0.67808 0.42124 0.0
O222 O 0.21418 0.66939 0.41499 0.0
O223 O 0.22399 0.61823 0.44665 0.0
Zn224 Zn 0.18989 0.63475 0.46196 0.0
O225 O 0.19933 0.6489 0.50051 0.0
C226 C 0.15718 0.58708 0.44428 0.0
O227 O 0.17318 0.58812 0.42285 0.0
O228 O 0.17621 0.66603 0.4398 0.0
C229 C 0.21429 0.63579 0.51721 0.0
O230 O 0.22252 0.61125 0.51007 0.0
C231 C 0.24798 0.62709 0.45401 0.0
O232 O 0.25087 0.64943 0.4696 0.0
O233 O 0.16032 0.60526 0.46335 0.0
C234 C 0.36851 0.5762 0.76484 0.0
O235 O 0.38907 0.5658 0.77866 0.0
O236 O 0.38769 0.50719 0.76588 0.0
Zn237 Zn 0.36801 0.52439 0.73441 0.0
O238 O 0.33485 0.50233 0.72073 0.0
C239 C 0.40309 0.50276 0.69441 0.0
O240 O 0.39522 0.47962 0.70582 0.0
O241 O 0.3571 0.56239 0.74499 0.0
C242 C 0.32776 0.50672 0.6959 0.0
O243 O 0.34143 0.52549 0.68213 0.0
C244 C 0.38533 0.48213 0.77252 0.0
O245 O 0.36682 0.46592 0.75975 0.0
O246 O 0.39433 0.52543 0.7036 0.0
C247 C 0.5793 0.00083 0.77901 0.0
O248 O 0.57603 0.97465 0.77216 0.0
O249 O 0.6434 0.9777 0.74474 0.0
Zn250 Zn 0.614 0.00209 0.73165 0.0
O251 O 0.58767 0.98068 0.7065 0.0
C252 C 0.63311 0.04225 0.68999 0.0
O253 O 0.61696 0.02948 0.67149 0.0
O254 O 0.59431 0.01637 0.76445 0.0
C255 C 0.56536 0.99116 0.69867 0.0
O256 O 0.56092 0.01691 0.70544 0.0
C257 C 0.64038 0.9527 0.75143 0.0
O258 O 0.61597 0.94035 0.74958 0.0
O259 O 0.63354 0.03403 0.71461 0.0
C260 C 0.80515 0.60731 0.04496 0.0
O261 O 0.81131 0.61933 0.02182 0.0
O262 O 0.75528 0.64628 0.00362 0.0
Zn263 Zn 0.74754 0.62484 0.03725 0.0
O264 O 0.72025 0.5951 0.02479 0.0
C265 C 0.75516 0.67082 0.06953 0.0
O266 O 0.77771 0.66902 0.05527 0.0
O267 O 0.78065 0.60725 0.05343 0.0
C268 C 0.69793 0.59964 0.01185 0.0
O269 O 0.68931 0.6249 0.0105 0.0
C270 C 0.76109 0.637 0.97991 0.0
O271 O 0.76515 0.61066 0.97601 0.0
O272 O 0.73608 0.65244 0.06577 0.0
C273 C 0.89742 0.45383 0.6928 0.0
O274 O 0.87461 0.4438 0.70325 0.0
O275 O 0.8726 0.46554 0.75833 0.0
Zn276 Zn 0.89533 0.4929 0.73787 0.0
O277 O 0.92593 0.5111 0.76087 0.0
C278 C 0.85726 0.53594 0.74301 0.0
O279 O 0.86079 0.53141 0.76939 0.0
O280 O 0.90989 0.47451 0.70437 0.0
C281 C 0.93259 0.53579 0.75504 0.0
O282 O 0.92014 0.54741 0.73426 0.0
C283 C 0.87016 0.46402 0.7842 0.0
O284 O 0.88513 0.48065 0.80057 0.0
O285 O 0.86992 0.52166 0.72551 0.0
C286 C 0.8238 0.33139 0.50803 0.0
O287 O 0.83795 0.34481 0.48955 0.0
O288 O 0.80017 0.3631 0.44857 0.0
Zn289 Zn 0.77518 0.34647 0.47629 0.0
O290 O 0.75039 0.3166 0.45972 0.0
C291 C 0.7471 0.39784 0.48165 0.0
O292 O 0.75628 0.40223 0.45685 0.0
O293 O 0.7977 0.33 0.50612 0.0
C294 C 0.72679 0.32052 0.44906 0.0
O295 O 0.71793 0.34567 0.44742 0.0
C296 C 0.79466 0.36419 0.42298 0.0
O297 O 0.77151 0.35291 0.41308 0.0
O298 O 0.75253 0.37557 0.49353 0.0
C299 C 0.66358 0.46401 0.24339 0.0
O300 O 0.66517 0.47703 0.26733 0.0
O301 O 0.60634 0.51047 0.2612 0.0
Zn302 Zn 0.63032 0.50944 0.22822 0.0
O303 O 0.6597 0.53925 0.23226 0.0
C304 C 0.61205 0.52233 0.17152 0.0
O305 O 0.63756 0.52989 0.16636 0.0
O306 O 0.6486 0.4734 0.22427 0.0
C307 C 0.68234 0.53725 0.21993 0.0
O308 O 0.68545 0.51652 0.20264 0.0
C309 C 0.61401 0.51708 0.2857 0.0
O310 O 0.64002 0.52328 0.29139 0.0
O311 O 0.60586 0.51407 0.1953 0.0
Sc312 Sc 0.13412 0.19628 0.12407 0.0
Sc313 Sc 0.13872 0.13072 0.15204 0.0
Sc314 Sc 0.17138 0.14495 0.09009 0.0
O315 O 0.14822 0.15739 0.12208 0.0
C316 C 0.12599 0.18081 0.06046 0.0
C317 C 0.08243 0.16094 0.14469 0.0
C318 C 0.13407 0.09121 0.09886 0.0
C319 C 0.15028 0.18702 0.18638 0.0
C320 C 0.19439 0.20614 0.09993 0.0
C321 C 0.20048 0.11611 0.14111 0.0
O322 O 0.11869 0.19325 0.08225 0.0
O323 O 0.09587 0.13954 0.14942 0.0
O324 O 0.14738 0.10736 0.08334 0.0
O325 O 0.14782 0.20313 0.16625 0.0
O326 O 0.19791 0.18123 0.09281 0.0
O327 O 0.18046 0.1189 0.15716 0.0
O328 O 0.17242 0.21413 0.1108 0.0
O329 O 0.1464 0.16113 0.18397 0.0
O330 O 0.19995 0.12388 0.11625 0.0
O331 O 0.09366 0.18344 0.13717 0.0
O332 O 0.14536 0.1639 0.06011 0.0
O333 O 0.13021 0.09676 0.12407 0.0
Sc334 Sc 0.14319 0.92646 0.42617 0.0
Sc335 Sc 0.08584 0.91341 0.38219 0.0
Sc336 Sc 0.13145 0.96966 0.36985 0.0
O337 O 0.12007 0.93664 0.39283 0.0
C338 C 0.14732 0.9918 0.43086 0.0
C339 C 0.08246 0.9147 0.44763 0.0
C340 C 0.06667 0.97512 0.37294 0.0
C341 C 0.12779 0.86751 0.39911 0.0
C342 C 0.18831 0.94126 0.38155 0.0
C343 C 0.10984 0.92654 0.32333 0.0
O344 O 0.1473 0.96817 0.44156 0.0
O345 O 0.07171 0.91203 0.42363 0.0
O346 O 0.09081 0.98563 0.37071 0.0
O347 O 0.14264 0.88388 0.4142 0.0
O348 O 0.173 0.95616 0.36694 0.0
O349 O 0.09646 0.91153 0.33975 0.0
O350 O 0.18063 0.93008 0.40363 0.0
O351 O 0.10612 0.87477 0.38652 0.0
O352 O 0.12254 0.94879 0.33075 0.0
O353 O 0.10796 0.92027 0.45194 0.0
O354 O 0.14236 -0.00474 0.4054 0.0
O355 O 0.06189 0.94953 0.37647 0.0
Sc356 Sc 0.36936 0.8112 0.6463 0.0
Sc357 Sc 0.3079 0.84059 0.62319 0.0
Sc358 Sc 0.34011 0.86444 0.6845 0.0
O359 O 0.33909 0.83846 0.65142 0.0
C360 C 0.36516 0.8107 0.71112 0.0
C361 C 0.31437 0.77613 0.6286 0.0
C362 C 0.27738 0.84719 0.68074 0.0
C363 C 0.35899 0.83025 0.58485 0.0
C364 C 0.40188 0.86715 0.66531 0.0
C365 C 0.31996 0.90349 0.63661 0.0
O366 O 0.3693 0.79834 0.68838 0.0
O367 O 0.3002 0.7972 0.62444 0.0
O368 O 0.29915 0.85225 0.69513 0.0
O369 O 0.37409 0.82152 0.60415 0.0
O370 O 0.38098 0.87811 0.67557 0.0
O371 O 0.31399 0.88415 0.61938 0.0
O372 O 0.40154 0.84247 0.65577 0.0
O373 O 0.3341 0.83646 0.58806 0.0
O374 O 0.32642 0.89916 0.66158 0.0
O375 O 0.33989 0.77755 0.6355 0.0
O376 O 0.35531 0.83452 0.7125 0.0
O377 O 0.27728 0.84504 0.65457 0.0
Sc378 Sc 0.37641 0.09294 0.86909 0.0
Sc379 Sc 0.41379 0.1537 0.8889 0.0
Sc380 Sc 0.35059 0.13789 0.91915 0.0
O381 O 0.38032 0.12804 0.8924 0.0
C382 C 0.31403 0.11034 0.87003 0.0
C383 C 0.39751 0.13775 0.82663 0.0
C384 C 0.36475 0.19551 0.89341 0.0
C385 C 0.44091 0.09525 0.88141 0.0
C386 C 0.35795 0.07409 0.92892 0.0
C387 C 0.40569 0.15664 0.95299 0.0
O388 O 0.33391 0.09848 0.85893 0.0
O389 O 0.40802 0.15397 0.84512 0.0
O390 O 0.34723 0.17814 0.90242 0.0
O391 O 0.41832 0.08239 0.87581 0.0
O392 O 0.35195 0.0981 0.93723 0.0
O393 O 0.42161 0.15573 0.93261 0.0
O394 O 0.36612 0.06885 0.90466 0.0
O395 O 0.44254 0.12103 0.88616 0.0
O396 O 0.3798 0.15257 0.95052 0.0
O397 O 0.38638 0.11434 0.83168 0.0
O398 O 0.31686 0.12459 0.89213 0.0
O399 O 0.38986 0.19015 0.89018 0.0
Sc400 Sc 0.64784 0.38265 0.89416 0.0
Sc401 Sc 0.59092 0.3515 0.85929 0.0
Sc402 Sc 0.62435 0.40998 0.83185 0.0
O403 O 0.62104 0.3814 0.86168 0.0
C404 C 0.6365 0.44569 0.88731 0.0
C405 C 0.59117 0.36651 0.92281 0.0
C406 C 0.55962 0.40415 0.83815 0.0
C407 C 0.6426 0.31871 0.88137 0.0
C408 C 0.68704 0.39901 0.84464 0.0
C409 C 0.60937 0.35436 0.79716 0.0
O410 O 0.64078 0.42514 0.9023 0.0
O411 O 0.5782 0.35912 0.90078 0.0
O412 O 0.58125 0.41856 0.83344 0.0
O413 O 0.65691 0.34001 0.88883 0.0
O414 O 0.66774 0.40412 0.82762 0.0
O415 O 0.60073 0.34113 0.81771 0.0
O416 O 0.68278 0.39259 0.86943 0.0
O417 O 0.618 0.31978 0.87214 0.0
O418 O 0.61698 0.3797 0.79869 0.0
O419 O 0.61655 0.37352 0.92337 0.0
O420 O 0.63241 0.44381 0.86133 0.0
O421 O 0.56017 0.37941 0.84602 0.0
Sc422 Sc 0.92201 0.35464 0.12884 0.0
Sc423 Sc 0.89593 0.40492 0.17397 0.0
Sc424 Sc 0.86253 0.38944 0.11058 0.0
O425 O 0.89363 0.38309 0.1378 0.0
C426 C 0.91197 0.37888 0.06977 0.0
C427 C 0.95918 0.40251 0.15811 0.0
C428 C 0.88165 0.44999 0.12911 0.0
C429 C 0.9104 0.34422 0.19223 0.0
C430 C 0.86464 0.3247 0.11006 0.0
C431 C 0.83144 0.39615 0.16752 0.0
O432 O 0.92804 0.36903 0.08772 0.0
O433 O 0.9391 0.41299 0.17028 0.0
O434 O 0.87227 0.43256 0.11115 0.0
O435 O 0.9185 0.33701 0.16857 0.0
O436 O 0.85138 0.3467 0.10872 0.0
O437 O 0.8531 0.39942 0.18232 0.0
O438 O 0.89048 0.32449 0.11501 0.0
O439 O 0.90225 0.3683 0.19776 0.0
O440 O 0.83193 0.39374 0.1415 0.0
O441 O 0.9566 0.38114 0.14256 0.0
O442 O 0.88768 0.38566 0.07508 0.0
O443 O 0.88932 0.44359 0.15337 0.0
Sc444 Sc 0.90451 0.59004 0.34707 0.0
Sc445 Sc 0.91641 0.64399 0.39572 0.0
Sc446 Sc 0.85432 0.6046 0.39604 0.0
O447 O 0.89171 0.61285 0.37961 0.0
C448 C 0.84188 0.60044 0.33109 0.0
C449 C 0.92755 0.65042 0.33232 0.0
C450 C 0.8575 0.67018 0.4003 0.0
C451 C 0.95872 0.5963 0.38459 0.0
C452 C 0.87158 0.54402 0.3797 0.0
C453 C 0.89248 0.61544 0.4493 0.0
O454 O 0.86637 0.59513 0.32444 0.0
O455 O 0.92552 0.66067 0.35638 0.0
O456 O 0.84485 0.64698 0.39996 0.0
O457 O 0.94313 0.58272 0.3675 0.0
O458 O 0.85784 0.56087 0.3936 0.0
O459 O 0.90996 0.63009 0.43658 0.0
O460 O 0.88948 0.55139 0.36254 0.0
O461 O 0.95249 0.61935 0.39513 0.0
O462 O 0.87078 0.60463 0.43791 0.0
O463 O 0.92156 0.62532 0.32645 0.0
O464 O 0.8347 0.60425 0.3559 0.0
O465 O 0.8835 0.67271 0.39863 0.0
Sc466 Sc 0.87731 0.83316 0.89623 0.0
Sc467 Sc 0.81852 0.86475 0.92161 0.0
Sc468 Sc 0.86234 0.90041 0.87703 0.0
O469 O 0.85272 0.86608 0.89829 0.0
C470 C 0.92101 0.88358 0.90011 0.0
C471 C 0.86265 0.8374 0.96019 0.0
C472 C 0.83903 0.92744 0.93108 0.0
C473 C 0.8189 0.80286 0.8975 0.0
C474 C 0.87752 0.85315 0.83424 0.0
C475 C 0.79736 0.89221 0.86674 0.0
O476 O 0.91429 0.85829 0.90261 0.0
O477 O 0.84174 0.85216 0.95718 0.0
O478 O 0.85464 0.92787 0.91058 0.0
O479 O 0.84367 0.80403 0.88991 0.0
O480 O 0.87141 0.87761 0.84047 0.0
O481 O 0.79307 0.8774 0.88764 0.0
O482 O 0.88041 0.83463 0.85208 0.0
O483 O 0.80781 0.82271 0.90996 0.0
O484 O 0.8209 0.90264 0.86122 0.0
O485 O 0.87633 0.82822 0.94014 0.0
O486 O 0.90449 0.90113 0.89104 0.0
O487 O 0.82414 0.90651 0.9369 0.0
Sc488 Sc 0.85272 0.10316 0.5857 0.0
Sc489 Sc 0.9195 0.11617 0.61237 0.0
Sc490 Sc 0.87172 0.07491 0.64889 0.0
O491 O 0.88137 0.09799 0.61575 0.0
C492 C 0.81437 0.10331 0.6378 0.0
C493 C 0.88032 0.16281 0.59084 0.0
C494 C 0.90477 0.12728 0.67547 0.0
C495 C 0.90734 0.09548 0.55107 0.0
C496 C 0.84546 0.03935 0.59832 0.0
C497 C 0.93438 0.05971 0.64048 0.0
O498 O 0.81954 0.10906 0.6131 0.0
O499 O 0.90388 0.15454 0.59795 0.0
O500 O 0.88781 0.10682 0.67721 0.0
O501 O 0.88156 0.09728 0.55365 0.0
O502 O 0.85494 0.04117 0.62301 0.0
O503 O 0.94063 0.0809 0.62681 0.0
O504 O 0.84355 0.05998 0.58283 0.0
O505 O 0.92446 0.10077 0.57078 0.0
O506 O 0.91039 0.05488 0.64935 0.0
O507 O 0.85947 0.14676 0.58679 0.0
O508 O 0.83138 0.0914 0.65335 0.0
O509 O 0.91756 0.13295 0.65357 0.0
Sc510 Sc 0.60633 0.07333 0.32179 0.0
Sc511 Sc 0.61038 0.08952 0.39257 0.0
Sc512 Sc 0.56604 0.12584 0.3493 0.0
O513 O 0.59404 0.09615 0.35459 0.0
C514 C 0.60066 0.13181 0.29464 0.0
C515 C 0.66263 0.08701 0.35397 0.0
C516 C 0.61024 0.15515 0.39049 0.0
C517 C 0.60345 0.02845 0.3688 0.0
C518 C 0.54148 0.07514 0.31235 0.0
C519 C 0.54894 0.10305 0.40799 0.0
O520 O 0.60924 0.10751 0.29457 0.0
O521 O 0.65176 0.08819 0.37751 0.0
O522 O 0.59137 0.15629 0.37201 0.0
O523 O 0.60568 0.03544 0.34391 0.0
O524 O 0.53859 0.09773 0.32567 0.0
O525 O 0.57156 0.0915 0.41265 0.0
O526 O 0.56455 0.06398 0.30943 0.0
O527 O 0.60373 0.04574 0.38874 0.0
O528 O 0.54397 0.1158 0.38594 0.0
O529 O 0.6488 0.08195 0.33187 0.0
O530 O 0.58501 0.14098 0.31295 0.0
O531 O 0.6185 0.13262 0.39997 0.0
Sc532 Sc 0.67833 0.89673 0.13768 0.0
Sc533 Sc 0.63563 0.848 0.17051 0.0
Sc534 Sc 0.63274 0.91798 0.18892 0.0
O535 O 0.64904 0.88757 0.16574 0.0
C536 C 0.69694 0.93551 0.189 0.0
C537 C 0.69876 0.8389 0.15915 0.0
C538 C 0.63854 0.87018 0.23261 0.0
C539 C 0.63934 0.85274 0.10491 0.0
C540 C 0.63896 0.94797 0.13201 0.0
C541 C 0.57967 0.87978 0.17487 0.0
O542 O 0.70244 0.92175 0.1673 0.0
O543 O 0.6759 0.83223 0.16957 0.0
O544 O 0.63543 0.89504 0.22606 0.0
O545 O 0.65662 0.87301 0.10567 0.0
O546 O 0.62788 0.94494 0.15514 0.0
O547 O 0.59325 0.8582 0.17167 0.0
O548 O 0.65755 0.93245 0.12329 0.0
O549 O 0.63021 0.84152 0.12653 0.0
O550 O 0.59095 0.90323 0.18059 0.0
O551 O 0.70296 0.86161 0.14711 0.0
O552 O 0.67291 0.93599 0.19891 0.0
O553 O 0.63972 0.85069 0.21485 0.0
Sc554 Sc 0.34565 0.63652 0.09378 0.0
Sc555 Sc 0.41506 0.65349 0.10963 0.0
Sc556 Sc 0.38343 0.59572 0.13946 0.0
O557 O 0.38134 0.62854 0.11437 0.0
C558 C 0.32345 0.6164 0.15166 0.0
C559 C 0.36677 0.69624 0.1133 0.0
C560 C 0.41728 0.64287 0.1739 0.0
C561 C 0.39082 0.6483 0.04871 0.0
C562 C 0.34866 0.57158 0.08727 0.0
C563 C 0.4421 0.59475 0.11175 0.0
O564 O 0.3203 0.62807 0.1287 0.0
O565 O 0.39202 0.69043 0.1129 0.0
O566 O 0.40387 0.61991 0.1723 0.0
O567 O 0.36585 0.64545 0.05555 0.0
O568 O 0.36299 0.56849 0.10918 0.0
O569 O 0.44259 0.62013 0.10618 0.0
O570 O 0.34121 0.59485 0.07895 0.0
O571 O 0.41069 0.65084 0.06597 0.0
O572 O 0.42195 0.58291 0.12342 0.0
O573 O 0.34742 0.67876 0.10746 0.0
O574 O 0.34532 0.60452 0.15851 0.0
O575 O 0.42255 0.65729 0.15304 0.0
Sc576 Sc 0.15606 0.65191 0.8268 0.0
Sc577 Sc 0.17915 0.66367 0.8944 0.0
Sc578 Sc 0.11999 0.6955 0.87018 0.0
O579 O 0.15173 0.67059 0.86375 0.0
C580 C 0.13497 0.7109 0.80944 0.0
C581 C 0.21761 0.66583 0.84172 0.0
C582 C 0.17124 0.72693 0.90168 0.0
C583 C 0.16941 0.60445 0.8689 0.0
C584 C 0.092 0.64548 0.83485 0.0
C585 C 0.12343 0.66792 0.92791 0.0
O586 O 0.1443 0.68732 0.80417 0.0
O587 O 0.21377 0.66199 0.86719 0.0
O588 O 0.14621 0.72512 0.89316 0.0
O589 O 0.16776 0.61366 0.84462 0.0
O590 O 0.09048 0.66793 0.84862 0.0
O591 O 0.14918 0.66476 0.92648 0.0
O592 O 0.11456 0.63605 0.82681 0.0
O593 O 0.17134 0.62005 0.89023 0.0
O594 O 0.10897 0.67563 0.9076 0.0
O595 O 0.19793 0.66628 0.82419 0.0
O596 O 0.12726 0.7181 0.83328 0.0
O597 O 0.18745 0.70693 0.90044 0.0
Sc598 Sc 0.1407 0.36777 0.55651 0.0
Sc599 Sc 0.09142 0.33493 0.59805 0.0
Sc600 Sc 0.10148 0.4066 0.60209 0.0
O601 O 0.1112 0.36975 0.58546 0.0
C602 C 0.1666 0.4114 0.60066 0.0
C603 C 0.15277 0.31484 0.59173 0.0
C604 C 0.10003 0.36775 0.65445 0.0
C605 C 0.09377 0.32519 0.53339 0.0
C606 C 0.1113 0.4223 0.53928 0.0
C607 C 0.04272 0.37751 0.59524 0.0
O608 O 0.16883 0.39505 0.58007 0.0
O609 O 0.12835 0.31185 0.60013 0.0
O610 O 0.09921 0.39123 0.64347 0.0
O611 O 0.11525 0.34042 0.53024 0.0
O612 O 0.10245 0.42712 0.56325 0.0
O613 O 0.05155 0.3534 0.59824 0.0
O614 O 0.12493 0.40124 0.53346 0.0
O615 O 0.08275 0.32162 0.55656 0.0
O616 O 0.05851 0.39878 0.59457 0.0
O617 O 0.16031 0.33427 0.57624 0.0
O618 O 0.14371 0.41712 0.61104 0.0
O619 O 0.09877 0.34536 0.64054 0.0
Sc620 Sc 0.59372 0.62001 0.62329 0.0
Sc621 Sc 0.63465 0.5664 0.64596 0.0
Sc622 Sc 0.6604 0.61421 0.59813 0.0
O623 O 0.62962 0.60014 0.62239 0.0
C624 C 0.60715 0.62244 0.55977 0.0
C625 C 0.57285 0.55717 0.62484 0.0
C626 C 0.66292 0.54922 0.58958 0.0
C627 C 0.60409 0.60687 0.68663 0.0
C628 C 0.63747 0.67019 0.62173 0.0
C629 C 0.69339 0.59701 0.6521 0.0
O630 O 0.5904 0.62157 0.57942 0.0
O631 O 0.59512 0.54796 0.63443 0.0
O632 O 0.66697 0.57373 0.58156 0.0
O633 O 0.5938 0.62083 0.66739 0.0
O634 O 0.65688 0.65603 0.61252 0.0
O635 O 0.67443 0.58094 0.66052 0.0
O636 O 0.61351 0.66012 0.62571 0.0
O637 O 0.61855 0.58601 0.68219 0.0
O638 O 0.69167 0.60975 0.62959 0.0
O639 O 0.56956 0.58248 0.62041 0.0
O640 O 0.63301 0.6208 0.5634 0.0
O641 O 0.65189 0.54351 0.61239 0.0
Sc642 Sc 0.37948 0.41053 0.44753 0.0
Sc643 Sc 0.40251 0.43635 0.38498 0.0
Sc644 Sc 0.44628 0.3963 0.42509 0.0
O645 O 0.40952 0.41447 0.41932 0.0
C646 C 0.43366 0.41552 0.48628 0.0
C647 C 0.37369 0.4729 0.43084 0.0
C648 C 0.4648 0.45393 0.39949 0.0
C649 C 0.34445 0.40577 0.39119 0.0
C650 C 0.40338 0.35034 0.44587 0.0
C651 C 0.43533 0.38593 0.36077 0.0
O652 O 0.40784 0.41597 0.48183 0.0
O653 O 0.38348 0.46886 0.40714 0.0
O654 O 0.46978 0.43213 0.41249 0.0
O655 O 0.34695 0.40372 0.41713 0.0
O656 O 0.42717 0.35835 0.43836 0.0
O657 O 0.42 0.40638 0.35853 0.0
O658 O 0.38357 0.36654 0.44878 0.0
O659 O 0.36334 0.41603 0.37655 0.0
O660 O 0.44612 0.37908 0.38361 0.0
O661 O 0.37227 0.45426 0.44886 0.0
O662 O 0.4506 0.41064 0.46733 0.0
O663 O 0.44118 0.45878 0.38938 0.0
H664 H 0.04513 0.21915 0.30075 0.0
H665 H 0.17159 0.16352 0.23237 0.0
H666 H 0.09837 0.1632 0.34196 0.0
H667 H 0.13135 0.23612 0.20505 0.0
H668 H 0.15463 0.17163 0.27852 0.0
H669 H 0.08291 0.23347 0.27178 0.0
C670 C 0.06495 0.21 0.30374 0.0
C671 C 0.06854 0.18934 0.32303 0.0
C672 C 0.15028 0.1864 0.26275 0.0
C673 C 0.1119 0.20536 0.28975 0.0
C674 C 0.16008 0.18182 0.23638 0.0
C675 C 0.15179 0.19851 0.21468 0.0
C676 C 0.13164 0.2074 0.26706 0.0
C677 C 0.13754 0.22228 0.22106 0.0
C678 C 0.08666 0.21841 0.28743 0.0
C679 C 0.09475 0.17878 0.32681 0.0
N680 N 0.12702 0.2255 0.24653 0.0
N681 N 0.11533 0.18636 0.30973 0.0
H682 H 0.95389 0.83546 0.53899 0.0
H683 H 0.09879 0.90575 0.50105 0.0
H684 H 0.0304 0.82313 0.58306 0.0
H685 H 0.02649 0.90613 0.44784 0.0
H686 H 0.07121 0.88404 0.53646 0.0
H687 H 0.97784 0.86884 0.51001 0.0
C688 C 0.97565 0.83987 0.54267 0.0
C689 C 0.99025 0.82622 0.5632 0.0
C690 C 0.06131 0.88921 0.51715 0.0
C691 C 0.01762 0.86446 0.53042 0.0
C692 C 0.07702 0.9018 0.49697 0.0
C693 C 0.06509 0.90729 0.47118 0.0
C694 C 0.0335 0.88209 0.51153 0.0
C695 C 0.0367 0.90181 0.46722 0.0
C696 C 0.98928 0.85894 0.52618 0.0
C697 C 0.01838 0.83287 0.56721 0.0
N698 N 0.02195 0.88918 0.48703 0.0
N699 N 0.03115 0.8514 0.5509 0.0
H700 H 0.49636 0.76355 0.81392 0.0
H701 H 0.35723 0.82753 0.76464 0.0
H702 H 0.4375 0.79082 0.87303 0.0
H703 H 0.40108 0.76888 0.71582 0.0
H704 H 0.38595 0.81652 0.80469 0.0
H705 H 0.46257 0.76965 0.77714 0.0
C706 C 0.47641 0.77113 0.81919 0.0
C707 C 0.46978 0.77672 0.84667 0.0
C708 C 0.38888 0.80576 0.78529 0.0
C709 C 0.43082 0.78348 0.80445 0.0
C710 C 0.37246 0.81192 0.76244 0.0
C711 C 0.37699 0.7994 0.73667 0.0
C712 C 0.4102 0.78732 0.78217 0.0
C713 C 0.39691 0.77923 0.73514 0.0
C714 C 0.45701 0.77428 0.79815 0.0
C715 C 0.44348 0.78631 0.85213 0.0
N716 N 0.41312 0.77421 0.75744 0.0
N717 N 0.42493 0.78953 0.83115 0.0
H718 H 0.51432 0.21353 0.08573 0.0
H719 H 0.37824 0.16502 0.001 0.0
H720 H 0.4322 0.22564 0.11468 0.0
H721 H 0.4601 0.1643 0.96827 0.0
H722 H 0.3979 0.18005 0.04564 0.0
H723 H 0.49491 0.18783 0.04596 0.0
C724 C 0.49218 0.21051 0.08391 0.0
C725 C 0.47482 0.22213 0.10337 0.0
C726 C 0.41155 0.17641 0.02873 0.0
C727 C 0.45247 0.19285 0.05768 0.0
C728 C 0.40036 0.16782 0.00319 0.0
C729 C 0.41751 0.16371 0.98066 0.0
C730 C 0.4401 0.18087 0.03183 0.0
C731 C 0.44603 0.16749 0.9849 0.0
C732 C 0.48112 0.19587 0.06113 0.0
C733 C 0.44634 0.21724 0.10007 0.0
N734 N 0.4564 0.17602 0.00993 0.0
N735 N 0.43601 0.20322 0.07745 0.0
H736 H 0.10146 0.81969 0.1823 0.0
H737 H 0.10342 0.9564 0.27636 0.0
H738 H 0.05516 0.89065 0.16068 0.0
H739 H 0.11802 0.87474 0.30513 0.0
H740 H 0.09853 0.93748 0.22892 0.0
H741 H 0.12159 0.84544 0.22169 0.0
C742 C 0.09587 0.84088 0.18555 0.0
C743 C 0.07608 0.85283 0.16857 0.0
C744 C 0.10329 0.9239 0.24564 0.0
C745 C 0.09894 0.88232 0.2138 0.0
C746 C 0.10616 0.93464 0.27255 0.0
C747 C 0.11078 0.91695 0.29449 0.0
C748 C 0.10571 0.89549 0.24088 0.0
C749 C 0.11409 0.88895 0.28872 0.0
C750 C 0.10735 0.85553 0.20808 0.0
C751 C 0.07006 0.88053 0.17349 0.0
N752 N 0.1114 0.87908 0.2625 0.0
N753 N 0.08109 0.89426 0.19603 0.0
H754 H 0.41969 0.79372 0.4247 0.0
H755 H 0.33421 0.82599 0.53339 0.0
H756 H 0.47752 0.85281 0.46296 0.0
H757 H 0.41245 0.84286 0.57496 0.0
H758 H 0.35748 0.82784 0.48898 0.0
H759 H 0.38702 0.80353 0.46076 0.0
C760 C 0.42527 0.80922 0.44034 0.0
C761 C 0.45153 0.82216 0.4411 0.0
C762 C 0.36946 0.83111 0.50787 0.0
C763 C 0.41421 0.83362 0.48225 0.0
C764 C 0.3562 0.83026 0.53312 0.0
C765 C 0.37158 0.83366 0.55778 0.0
C766 C 0.39815 0.83574 0.50753 0.0
C767 C 0.39994 0.83946 0.55641 0.0
C768 C 0.40648 0.81499 0.46079 0.0
C769 C 0.45761 0.84217 0.46171 0.0
N770 N 0.4123 0.84026 0.53172 0.0
N771 N 0.43931 0.84683 0.48183 0.0
H772 H 0.45255 0.16751 0.66484 0.0
H773 H 0.38997 0.18971 0.80997 0.0
H774 H 0.40374 0.23755 0.68426 0.0
H775 H 0.40522 0.10804 0.77887 0.0
H776 H 0.39446 0.20731 0.76359 0.0
H777 H 0.43487 0.14447 0.70544 0.0
C778 C 0.43782 0.17788 0.67745 0.0
C779 C 0.42991 0.20466 0.67147 0.0
C780 C 0.39646 0.18547 0.76676 0.0
C781 C 0.40993 0.17857 0.71795 0.0
C782 C 0.39411 0.17547 0.79324 0.0
C783 C 0.3976 0.14748 0.79817 0.0
C784 C 0.40302 0.16749 0.74514 0.0
C785 C 0.40252 0.12979 0.77581 0.0
C786 C 0.42766 0.16466 0.70051 0.0
C787 C 0.41055 0.21701 0.68826 0.0
N788 N 0.40563 0.1402 0.75022 0.0
N789 N 0.4016 0.20406 0.71106 0.0
H790 H 0.09025 0.21752 0.89072 0.0
H791 H 0.07716 0.20624 0.05304 0.0
H792 H 0.01703 0.23708 0.93483 0.0
H793 H 0.1422 0.16862 0.00805 0.0
H794 H 0.05485 0.21741 0.00948 0.0
H795 H 0.10956 0.19845 0.93293 0.0
C796 C 0.07811 0.21751 0.90914 0.0
C797 C 0.05214 0.22922 0.90933 0.0
C798 C 0.0739 0.20653 0.00912 0.0
C799 C 0.07415 0.20776 0.9576 0.0
C800 C 0.08672 0.20027 0.034 0.0
C801 C 0.11167 0.18663 0.03421 0.0
C802 C 0.08625 0.19941 0.98421 0.0
C803 C 0.12298 0.17918 0.00887 0.0
C804 C 0.08915 0.20665 0.93322 0.0
C805 C 0.03726 0.22855 0.93377 0.0
N806 N 0.1103 0.18589 0.98486 0.0
N807 N 0.04861 0.2183 0.95696 0.0
H808 H 0.28909 0.00195 0.23791 0.0
H809 H 0.23794 0.08911 0.11007 0.0
H810 H 0.30409 0.97964 0.15319 0.0
H811 H 0.21467 0.1043 0.19417 0.0
H812 H 0.26848 0.05355 0.12601 0.0
H813 H 0.26668 0.0431 0.22248 0.0
C814 C 0.28758 0.00565 0.21603 0.0
C815 C 0.29829 0.98722 0.19679 0.0
C816 C 0.25695 0.06494 0.14098 0.0
C817 C 0.27285 0.03452 0.17899 0.0
C818 C 0.23971 0.08544 0.13194 0.0
C819 C 0.22343 0.09943 0.15079 0.0
C820 C 0.25794 0.05853 0.16904 0.0
C821 C 0.22654 0.09375 0.17887 0.0
C822 C 0.27488 0.02924 0.20724 0.0
C823 C 0.29591 0.99319 0.16871 0.0
N824 N 0.24321 0.07353 0.1871 0.0
N825 N 0.28337 0.01635 0.16063 0.0
H826 H 0.2332 0.14278 0.48065 0.0
H827 H 0.16013 0.99345 0.48613 0.0
H828 H 0.24559 0.08503 0.54576 0.0
H829 H 0.1563 0.04524 0.415 0.0
H830 H 0.18348 0.0311 0.51205 0.0
H831 H 0.19773 0.1113 0.46005 0.0
C832 C 0.22826 0.12365 0.49078 0.0
C833 C 0.24266 0.11631 0.51471 0.0
C834 C 0.17725 0.03434 0.49086 0.0
C835 C 0.20217 0.08035 0.49138 0.0
C836 C 0.16382 0.01284 0.47603 0.0
C837 C 0.15669 0.01593 0.44813 0.0
C838 C 0.18374 0.05911 0.47772 0.0
C839 C 0.16173 0.04174 0.43634 0.0
C840 C 0.20804 0.1057 0.47901 0.0
C841 C 0.23531 0.09135 0.52706 0.0
N842 N 0.1753 0.06221 0.45109 0.0
N843 N 0.21574 0.07421 0.51515 0.0
H844 H 0.11406 0.88659 0.7225 0.0
H845 H 0.26936 0.8423 0.73595 0.0
H846 H 0.16506 0.8955 0.79613 0.0
H847 H 0.22507 0.84856 0.65842 0.0
H848 H 0.2265 0.84788 0.76006 0.0
H849 H 0.14949 0.85901 0.70127 0.0
C850 C 0.13239 0.88215 0.73443 0.0
C851 C 0.13704 0.89384 0.76082 0.0
C852 C 0.22608 0.84765 0.73776 0.0
C853 C 0.17743 0.86259 0.73677 0.0
C854 C 0.25057 0.84455 0.72395 0.0
C855 C 0.25094 0.84579 0.69512 0.0
C856 C 0.2018 0.85232 0.72269 0.0
C857 C 0.22582 0.84801 0.68069 0.0
C858 C 0.15262 0.86654 0.72228 0.0
C859 C 0.161 0.88737 0.77547 0.0
N860 N 0.20229 0.85175 0.69466 0.0
N861 N 0.18049 0.87249 0.76311 0.0
H862 H 0.3341 0.91498 0.00242 0.0
H863 H 0.34546 0.07763 0.98344 0.0
H864 H 0.30883 0.97494 0.06274 0.0
H865 H 0.36395 0.01868 0.91928 0.0
H866 H 0.3383 0.04002 0.01497 0.0
H867 H 0.35187 0.95247 0.97429 0.0
C868 C 0.33265 0.93599 0.00995 0.0
C869 C 0.31962 0.94189 0.03477 0.0
C870 C 0.34405 0.03528 0.99404 0.0
C871 C 0.33971 0.98476 0.00267 0.0
C872 C 0.34808 0.05677 0.97594 0.0
C873 C 0.35496 0.05133 0.94848 0.0
C874 C 0.34678 0.00804 0.9847 0.0
C875 C 0.35843 0.02385 0.94017 0.0
C876 C 0.3427 0.95737 0.99383 0.0
C877 C 0.31841 0.96946 0.04357 0.0
N878 N 0.35407 0.00319 0.95816 0.0
N879 N 0.32808 0.98987 0.02741 0.0
H880 H 0.34835 0.93357 0.30847 0.0
H881 H 0.20894 0.89025 0.37848 0.0
H882 H 0.29387 0.87217 0.26903 0.0
H883 H 0.2273 0.97491 0.3588 0.0
H884 H 0.25017 0.87665 0.35387 0.0
H885 H 0.31366 0.94131 0.34337 0.0
C886 C 0.3295 0.92105 0.30769 0.0
C887 C 0.32381 0.90226 0.28584 0.0
C888 C 0.24535 0.89821 0.35554 0.0
C889 C 0.28462 0.91082 0.32568 0.0
C890 C 0.22208 0.906 0.36959 0.0
C891 C 0.21493 0.93372 0.37054 0.0
C892 C 0.26185 0.91842 0.34325 0.0
C893 C 0.23223 0.95335 0.35838 0.0
C894 C 0.30975 0.92566 0.32744 0.0
C895 C 0.2989 0.88689 0.28555 0.0
N896 N 0.25508 0.94532 0.34524 0.0
N897 N 0.28006 0.89156 0.30521 0.0
H898 H 0.34433 0.04406 0.53366 0.0
H899 H 0.33029 0.95117 0.66688 0.0
H900 H 0.34375 0.07792 0.6165 0.0
H901 H 0.31616 0.92079 0.5834 0.0
H902 H 0.33929 -0.00278 0.64924 0.0
H903 H 0.34002 -0.00207 0.55214 0.0
C904 C 0.34374 0.0418 0.55578 0.0
C905 C 0.34409 0.06493 0.57354 0.0
C906 C 0.33411 0.98046 0.63483 0.0
C907 C 0.33873 0.01212 0.5948 0.0
C908 C 0.32881 0.95418 0.64488 0.0
C909 C 0.32236 0.932 0.62662 0.0
C910 C 0.33314 0.9846 0.60632 0.0
C911 C 0.3209 0.9372 0.5983 0.0
C912 C 0.34105 0.01543 0.5663 0.0
C913 C 0.34338 0.06069 0.60203 0.0
N914 N 0.32637 0.96292 0.58905 0.0
N915 N 0.34048 0.03478 0.61178 0.0
H916 H 0.18139 0.02552 0.78394 0.0
H917 H 0.26442 0.12335 0.89203 0.0
H918 H 0.14528 0.06074 0.8564 0.0
H919 H 0.29986 0.08536 0.82054 0.0
H920 H 0.21876 0.10779 0.87503 0.0
H921 H 0.22267 0.05435 0.79272 0.0
C922 C 0.18204 0.03955 0.80157 0.0
C923 C 0.16007 0.04037 0.81977 0.0
C924 C 0.23651 0.1032 0.8629 0.0
C925 C 0.20743 0.07331 0.8301 0.0
C926 C 0.26261 0.11212 0.87256 0.0
C927 C 0.2861 0.10517 0.85798 0.0
C928 C 0.23393 0.08722 0.83852 0.0
C929 C 0.28242 0.09077 0.83276 0.0
C930 C 0.20563 0.05604 0.80656 0.0
C931 C 0.16187 0.05925 0.84202 0.0
N932 N 0.25688 0.082 0.82403 0.0
N933 N 0.18536 0.0747 0.84681 0.0
H934 H 0.18443 0.93715 0.11441 0.0
H935 H 0.13879 0.06978 0.04649 0.0
H936 H 0.18805 0.94987 0.02685 0.0
H937 H 0.11555 0.04725 0.12853 0.0
H938 H 0.14528 0.02146 0.03536 0.0
H939 H 0.14933 0.97168 0.11745 0.0
C940 C 0.17751 0.94688 0.09575 0.0
C941 C 0.18983 0.94138 0.07052 0.0
C942 C 0.13803 0.02695 0.05559 0.0
C943 C 0.14992 0.98104 0.07381 0.0
C944 C 0.13427 0.05463 0.06194 0.0
C945 C 0.12791 0.06272 0.08888 0.0
C946 C 0.13594 0.00748 0.07651 0.0
C947 C 0.12149 0.04208 0.10777 0.0
C948 C 0.15733 0.9665 0.09744 0.0
C949 C 0.17964 0.95407 0.04689 0.0
N950 N 0.12657 0.01545 0.10152 0.0
N951 N 0.16074 0.97382 0.04921 0.0
H952 H 0.21378 0.34467 0.00771 0.0
H953 H 0.23874 0.19969 0.06651 0.0
H954 H 0.28214 0.29711 0.98131 0.0
H955 H 0.1942 0.26168 0.11021 0.0
H956 H 0.25927 0.23562 0.0384 0.0
H957 H 0.20861 0.31498 0.04717 0.0
C958 C 0.22768 0.32789 0.01022 0.0
C959 C 0.24811 0.32299 0.99104 0.0
C960 C 0.24555 0.24141 0.05463 0.0
C961 C 0.24242 0.28899 0.03622 0.0
C962 C 0.23387 0.22091 0.07081 0.0
C963 C 0.21389 0.22755 0.09009 0.0
C964 C 0.23691 0.26854 0.05766 0.0
C965 C 0.20883 0.25546 0.09501 0.0
C966 C 0.22496 0.31116 0.03295 0.0
C967 C 0.26593 0.30135 -0.00444 0.0
N968 N 0.21968 0.27486 0.07837 0.0
N969 N 0.2624 0.2848 0.01751 0.0
H970 H 0.65733 0.15095 0.92694 0.0
H971 H 0.69569 0.30726 0.89578 0.0
H972 H 0.73477 0.19205 0.94976 0.0
H973 H 0.61682 0.26784 0.87508 0.0
H974 H 0.71346 0.26256 0.90715 0.0
H975 H 0.6456 0.19047 0.89917 0.0
C976 C 0.67209 0.16803 0.92567 0.0
C977 C 0.69678 0.16853 0.94117 0.0
C978 C 0.69234 0.26363 0.89983 0.0
C979 C 0.68343 0.21378 0.90973 0.0
C980 C 0.68214 0.28919 0.8934 0.0
C981 C 0.65453 0.29143 0.88503 0.0
C982 C 0.67476 0.24011 0.89814 0.0
C983 C 0.63813 0.26719 0.88185 0.0
C984 C 0.66535 0.19063 0.9099 0.0
C985 C 0.71525 0.19107 0.93859 0.0
N986 N 0.64838 0.24258 0.8888 0.0
N987 N 0.70802 0.21296 0.92354 0.0
H988 H 0.08099 0.50271 0.24336 0.0
H989 H 0.00971 0.37871 0.15549 0.0
H990 H 0.12395 0.42973 0.2205 0.0
H991 H 0.97125 0.45518 0.17506 0.0
H992 H 0.05359 0.39853 0.17395 0.0
H993 H 0.04235 0.48712 0.21382 0.0
C994 C 0.08233 0.48341 0.23201 0.0
C995 C 0.10557 0.46732 0.23467 0.0
C996 C 0.03559 0.41105 0.1738 0.0
C997 C 0.06119 0.44915 0.20078 0.0
C998 C 0.01061 0.3998 0.16314 0.0
C999 C 0.98673 0.41516 0.1642 0.0
C1000 C 0.03653 0.43778 0.18547 0.0
C1001 C 0.98903 0.44239 0.17433 0.0
C1002 C 0.06026 0.47453 0.21503 0.0
C1003 C 0.10631 0.44268 0.21916 0.0
N1004 N 0.01336 0.45268 0.18481 0.0
N1005 N 0.08426 0.43414 0.20311 0.0
H1006 H 0.7253 0.77214 0.44619 0.0
H1007 H 0.87526 0.72432 0.40848 0.0
H1008 H 0.79426 0.82959 0.43901 0.0
H1009 H 0.80158 0.67234 0.40052 0.0
H1010 H 0.84655 0.76363 0.41863 0.0
H1011 H 0.75347 0.73552 0.42866 0.0
C1012 C 0.74636 0.77707 0.44078 0.0
C1013 C 0.75751 0.80389 0.44421 0.0
C1014 C 0.83676 0.74362 0.41441 0.0
C1015 C 0.79003 0.76199 0.42427 0.0
C1016 C 0.85312 0.72119 0.40862 0.0
C1017 C 0.84089 0.69488 0.40398 0.0
C1018 C 0.80806 0.7396 0.41567 0.0
C1019 C 0.81206 0.69209 0.40431 0.0
C1020 C 0.76245 0.75616 0.4307 0.0
C1021 C 0.78488 0.80915 0.43669 0.0
N1022 N 0.79672 0.71407 0.41028 0.0
N1023 N 0.80033 0.78829 0.42731 0.0
H1024 H 0.9179 0.10094 0.17194 0.0
H1025 H 0.04932 0.20259 0.16064 0.0
H1026 H 0.93134 0.1733 0.22415 0.0
H1027 H 0.04768 0.11615 0.13843 0.0
H1028 H 0.00052 0.19818 0.17239 0.0
H1029 H 0.95949 0.1134 0.14721 0.0
C1030 C 0.92924 0.11976 0.17785 0.0
C1031 C 0.9215 0.13578 0.20056 0.0
C1032 C 0.01083 0.18035 0.16455 0.0
C1033 C 0.96905 0.15002 0.17237 0.0
C1034 C 0.03857 0.18283 0.15781 0.0
C1035 C 0.05253 0.15959 0.14894 0.0
C1036 C -0.00297 0.15459 0.16185 0.0
C1037 C 0.03773 0.13447 0.14563 0.0
C1038 C 0.95303 0.12677 0.16379 0.0
C1039 C 0.93687 0.1601 0.20708 0.0
N1040 N 0.01079 0.13261 0.15218 0.0
N1041 N 0.96019 0.16632 0.19327 0.0
H1042 H 0.19295 0.67786 0.54676 0.0
H1043 H 0.33669 0.72781 0.61042 0.0
H1044 H 0.26411 0.6275 0.54244 0.0
H1045 H 0.25982 0.76337 0.63218 0.0
H1046 H 0.31085 0.68796 0.58989 0.0
H1047 H 0.21673 0.70683 0.58191 0.0
C1048 C 0.21346 0.67268 0.55357 0.0
C1049 C 0.22665 0.65041 0.5416 0.0
C1050 C 0.29971 0.70422 0.59972 0.0
C1051 C 0.25437 0.68382 0.5814 0.0
C1052 C 0.31446 0.72689 0.61156 0.0
C1053 C 0.30035 0.74916 0.62249 0.0
C1054 C 0.27077 0.70407 0.59878 0.0
C1055 C 0.27153 0.74692 0.62341 0.0
C1056 C 0.22706 0.68918 0.57368 0.0
C1057 C 0.25321 0.6445 0.55122 0.0
N1058 N 0.25772 0.72507 0.61129 0.0
N1059 N 0.26644 0.66145 0.57021 0.0
H1060 H 0.09401 0.48922 0.39101 0.0
H1061 H 0.00646 0.62465 0.3995 0.0
H1062 H 0.1225 0.56854 0.36284 0.0
H1063 H 0.97209 0.54235 0.38627 0.0
H1064 H 0.05224 0.60548 0.4052 0.0
H1065 H 0.05326 0.51069 0.4096 0.0
C1066 C 0.09212 0.51128 0.38952 0.0
C1067 C 0.11111 0.52709 0.37472 0.0
C1068 C 0.03452 0.59167 0.40164 0.0
C1069 C 0.06492 0.55154 0.3958 0.0
C1070 C 0.00848 0.60254 0.39834 0.0
C1071 C 0.98565 0.58505 0.39178 0.0
C1072 C 0.03753 0.56316 0.39884 0.0
C1073 C 0.98931 0.55657 0.39067 0.0
C1074 C 0.06886 0.52345 0.4 0.0
C1075 C 0.10788 0.55559 0.37355 0.0
N1076 N 0.01483 0.5465 0.39393 0.0
N1077 N 0.08491 0.5669 0.38355 0.0
H1078 H 0.39274 0.42802 0.78508 0.0
H1079 H 0.54842 0.45845 0.83112 0.0
H1080 H 0.42802 0.5099 0.79929 0.0
H1081 H 0.50895 0.37777 0.83529 0.0
H1082 H 0.50368 0.47777 0.82144 0.0
H1083 H 0.43386 0.40912 0.80635 0.0
C1084 C 0.40888 0.44204 0.7931 0.0
C1085 C 0.40714 0.47055 0.78997 0.0
C1086 C 0.50476 0.45587 0.82473 0.0
C1087 C 0.45432 0.4491 0.81389 0.0
C1088 C 0.53035 0.4448 0.83009 0.0
C1089 C 0.53251 0.41641 0.83374 0.0
C1090 C 0.48118 0.43839 0.82263 0.0
C1091 C 0.5083 0.39977 0.83249 0.0
C1092 C 0.43239 0.43124 0.80517 0.0
C1093 C 0.42863 0.48775 0.80088 0.0
N1094 N 0.48368 0.41097 0.82674 0.0
N1095 N 0.45149 0.47674 0.81197 0.0
H1096 H 0.91068 0.7706 0.68059 0.0
H1097 H 0.88366 0.88883 0.79187 0.0
H1098 H 0.94029 0.85484 0.67334 0.0
H1099 H 0.88117 0.80209 0.80975 0.0
H1100 H 0.89348 0.87752 0.74402 0.0
H1101 H 0.88811 0.78333 0.72317 0.0
C1102 C 0.91199 0.7919 0.68763 0.0
C1103 C 0.92782 0.81163 0.6737 0.0
C1104 C 0.89057 0.861 0.75841 0.0
C1105 C 0.90215 0.82616 0.72233 0.0
C1106 C 0.88496 0.86738 0.78573 0.0
C1107 C 0.88196 0.84635 0.80496 0.0
C1108 C 0.89295 0.83341 0.75018 0.0
C1109 C 0.88373 0.81896 0.79573 0.0
C1110 C 0.89923 0.79906 0.71201 0.0
C1111 C 0.92864 0.83891 0.68368 0.0
N1112 N 0.88924 0.81327 0.76897 0.0
N1113 N 0.91621 0.84534 0.7076 0.0
H1114 H -0.00409 0.10631 0.40261 0.0
H1115 H 0.87719 0.07349 0.50749 0.0
H1116 H 0.90917 0.10177 0.38151 0.0
H1117 H 0.96006 0.09991 0.53155 0.0
H1118 H 0.89176 0.06803 0.46015 0.0
H1119 H 0.98571 0.08736 0.44756 0.0
C1120 C 0.97477 0.10067 0.40711 0.0
C1121 C 0.9532 0.10667 0.38873 0.0
C1122 C 0.90686 0.07462 0.47585 0.0
C1123 C 0.94153 0.08506 0.44003 0.0
C1124 C 0.89856 0.0779 0.50291 0.0
C1125 C 0.91728 0.088 0.52344 0.0
C1126 C 0.93404 0.08161 0.46913 0.0
C1127 C 0.94483 0.09257 0.51632 0.0
C1128 C 0.969 0.08994 0.43283 0.0
C1129 C 0.92635 0.09828 0.3954 0.0
N1130 N 0.9523 0.08982 0.48961 0.0
N1131 N 0.9212 0.08842 0.42078 0.0
H1132 H 0.61267 0.26914 0.18691 0.0
H1133 H 0.60235 0.18778 0.29601 0.0
H1134 H 0.58965 0.19478 0.14095 0.0
H1135 H 0.61812 0.11809 0.24293 0.0
H1136 H 0.61086 0.21822 0.25805 0.0
H1137 H 0.63132 0.24131 0.22369 0.0
C1138 C 0.61209 0.24693 0.18434 0.0
C1139 C 0.59869 0.23416 0.1614 0.0
C1140 C 0.61343 0.19641 0.25472 0.0
C1141 C 0.61836 0.2023 0.20393 0.0
C1142 C 0.60805 0.17893 0.27638 0.0
C1143 C 0.60901 0.15036 0.27245 0.0
C1144 C 0.61955 0.18526 0.22872 0.0
C1145 C 0.6169 0.14003 0.24672 0.0
C1146 C 0.62235 0.23104 0.20551 0.0
C1147 C 0.59921 0.20542 0.15864 0.0
N1148 N 0.62125 0.15747 0.2256 0.0
N1149 N 0.60813 0.19035 0.1801 0.0
H1150 H 0.55061 0.76374 0.97321 0.0
H1151 H 0.65621 0.86814 0.05367 0.0
H1152 H 0.6123 0.81307 0.93244 0.0
H1153 H 0.59967 0.81234 0.09378 0.0
H1154 H 0.6394 0.84975 0.00904 0.0
H1155 H 0.56724 0.78298 0.01739 0.0
C1156 C 0.56765 0.77868 0.97351 0.0
C1157 C 0.5801 0.78677 0.94901 0.0
C1158 C 0.6307 0.84153 0.02762 0.0
C1159 C 0.5993 0.80893 -0.00024 0.0
C1160 C 0.64026 0.85204 0.05316 0.0
C1161 C 0.62939 0.84178 0.07764 0.0
C1162 C 0.61002 0.82068 0.02647 0.0
C1163 C 0.60876 0.82089 0.07555 0.0
C1164 C 0.57717 0.78963 -0.00119 0.0
C1165 C 0.6021 0.80621 0.95078 0.0
N1166 N 0.59975 0.81108 0.05045 0.0
N1167 N 0.61101 0.81663 0.97574 0.0
H1168 H 0.93964 0.19179 0.84031 0.0
H1169 H 0.92812 0.17911 0.67678 0.0
H1170 H 0.95897 0.25838 0.78573 0.0
H1171 H 0.89343 0.11735 0.72976 0.0
H1172 H 0.93868 0.20849 0.71695 0.0
H1173 H 0.92116 0.16449 0.8008 0.0
C1174 C 0.9397 0.20081 0.82011 0.0
C1175 C 0.95114 0.22733 0.81631 0.0
C1176 C 0.92861 0.18859 0.71986 0.0
C1177 C 0.9303 0.19612 0.77105 0.0
C1178 C 0.92269 0.17169 0.69689 0.0
C1179 C 0.91007 0.14557 0.69988 0.0
C1180 C 0.9222 0.17929 0.7462 0.0
C1181 C 0.90323 0.13729 0.72649 0.0
C1182 C 0.92918 0.18519 0.79756 0.0
C1183 C 0.95058 0.23797 0.78966 0.0
N1184 N 0.90962 0.15401 0.74869 0.0
N1185 N 0.94063 0.22224 0.76807 0.0
H1186 H 0.48122 0.20327 0.52895 0.0
H1187 H 0.54943 0.07664 0.45742 0.0
H1188 H 0.50779 0.13279 0.57377 0.0
H1189 H 0.50649 0.13844 0.41244 0.0
H1190 H 0.52866 0.09295 0.49971 0.0
H1191 H 0.4856 0.17721 0.4859 0.0
C1192 C 0.48787 0.18225 0.52974 0.0
C1193 C 0.49465 0.17034 0.55494 0.0
C1194 C 0.52331 0.10256 0.4805 0.0
C1195 C 0.49972 0.14035 0.50572 0.0
C1196 C 0.53509 0.09317 0.45627 0.0
C1197 C 0.53028 0.10663 0.43139 0.0
C1198 C 0.50691 0.12578 0.47988 0.0
C1199 C 0.51119 0.12769 0.43117 0.0
C1200 C 0.49017 0.16729 0.50515 0.0
C1201 C 0.50266 0.14287 0.55477 0.0
N1202 N 0.50073 0.13704 0.45516 0.0
N1203 N 0.50539 0.12894 0.5305 0.0
H1204 H 0.55279 0.8509 0.37495 0.0
H1205 H 0.64977 0.82116 0.25702 0.0
H1206 H 0.60795 0.78347 0.37941 0.0
H1207 H 0.62544 0.90397 0.27577 0.0
H1208 H 0.63927 0.80844 0.30414 0.0
H1209 H 0.58316 0.87328 0.34219 0.0
C1210 C 0.57171 0.8412 0.36951 0.0
C1211 C 0.57772 0.81517 0.37939 0.0
C1212 C 0.63688 0.82956 0.29811 0.0
C1213 C 0.612 0.84005 0.34137 0.0
C1214 C 0.6427 0.83679 0.27114 0.0
C1215 C 0.63776 0.86347 0.26217 0.0
C1216 C 0.62551 0.84899 0.31596 0.0
C1217 C 0.62905 0.883 0.28155 0.0
C1218 C 0.58905 0.85393 0.35084 0.0
C1219 C 0.60255 0.80349 0.37201 0.0
N1220 N 0.62255 0.87519 0.30733 0.0
N1221 N 0.61844 0.81564 0.35274 0.0
H1222 H 0.95921 0.77213 0.08984 0.0
H1223 H 0.85944 0.86958 0.00701 0.0
H1224 H 0.94897 0.85713 0.11356 0.0
H1225 H 0.8892 0.79226 0.97681 0.0
H1226 H 0.88282 0.86209 0.0515 0.0
H1227 H 0.92372 0.77598 0.05441 0.0
C1228 C 0.94933 0.79164 0.08766 0.0
C1229 C 0.95745 0.81456 0.10421 0.0
C1230 C 0.88383 0.84665 0.03521 0.0
C1231 C 0.91684 0.81917 0.06335 0.0
C1232 C 0.87042 0.85081 0.00994 0.0
C1233 C 0.87274 0.83162 0.9882 0.0
C1234 C 0.89921 0.82298 0.03865 0.0
C1235 C 0.88724 0.80773 0.99293 0.0
C1236 C 0.92901 0.7938 0.06742 0.0
C1237 C 0.94346 0.83909 0.10096 0.0
N1238 N 0.90002 0.80418 0.01757 0.0
N1239 N 0.92404 0.84093 0.08049 0.0
H1240 H 0.69453 0.96601 0.74567 0.0
H1241 H 0.7435 0.87337 0.86946 0.0
H1242 H 0.63978 0.90862 0.78581 0.0
H1243 H 0.79826 0.92291 0.82028 0.0
H1244 H 0.70546 0.88384 0.83803 0.0
H1245 H 0.73318 0.94781 0.7712 0.0
C1246 C 0.69071 0.94934 0.75971 0.0
C1247 C 0.66394 0.93898 0.7639 0.0
C1248 C 0.72587 0.89222 0.83407 0.0
C1249 C 0.70806 0.91825 0.79354 0.0
C1250 C 0.74758 0.88638 0.85207 0.0
C1251 C 0.7741 0.89753 0.84772 0.0
C1252 C 0.73075 0.90942 0.8117 0.0
C1253 C 0.77817 0.91403 0.82468 0.0
C1254 C 0.71279 0.93893 0.77429 0.0
C1255 C 0.66015 0.9172 0.78208 0.0
N1256 N 0.75672 0.91959 0.80769 0.0
N1257 N 0.68199 0.90777 0.79659 0.0
H1258 H 0.75396 0.92278 0.49658 0.0
H1259 H 0.8371 0.99015 0.62496 0.0
H1260 H 0.7781 0.87479 0.56632 0.0
H1261 H 0.83064 0.02716 0.54503 0.0
H1262 H 0.81589 0.94749 0.60502 0.0
H1263 H 0.7819 0.96149 0.51517 0.0
C1264 C 0.76527 0.92038 0.51579 0.0
C1265 C 0.76364 0.89564 0.53001 0.0
C1266 C 0.81942 0.96495 0.59191 0.0
C1267 C 0.79559 0.93998 0.5516 0.0
C1268 C 0.83149 0.98927 0.60325 0.0
C1269 C 0.83527 0.01244 0.58678 0.0
C1270 C 0.81103 0.96401 0.56403 0.0
C1271 C 0.82774 0.01007 0.55873 0.0
C1272 C 0.78132 0.94246 0.52637 0.0
C1273 C 0.77888 0.89357 0.55473 0.0
N1274 N 0.8158 0.98644 0.54837 0.0
N1275 N 0.79405 0.91562 0.56495 0.0
H1276 H 0.83777 0.12103 0.37088 0.0
H1277 H 0.68929 0.10152 0.30748 0.0
H1278 H 0.80994 0.16394 0.29903 0.0
H1279 H 0.70234 0.09346 0.39518 0.0
H1280 H 0.73554 0.1213 0.30421 0.0
H1281 H 0.78974 0.11067 0.38211 0.0
C1282 C 0.82161 0.12911 0.35799 0.0
C1283 C 0.82784 0.14275 0.33355 0.0
C1284 C 0.72828 0.11529 0.32421 0.0
C1285 C 0.77325 0.13032 0.3459 0.0
C1286 C 0.70197 0.10358 0.32606 0.0
C1287 C 0.69188 0.09568 0.35166 0.0
C1288 C 0.74493 0.11884 0.34802 0.0
C1289 C 0.70932 0.09921 0.37502 0.0
C1290 C 0.79423 0.12296 0.36431 0.0
C1291 C 0.80607 0.15282 0.31773 0.0
N1292 N 0.73516 0.11039 0.37263 0.0
N1293 N 0.77974 0.1458 0.32379 0.0
H1294 H 0.65303 0.07417 0.01485 0.0
H1295 H 0.61299 0.99394 0.1497 0.0
H1296 H 0.64857 0.11246 0.09553 0.0
H1297 H 0.64847 0.95732 0.07753 0.0
H1298 H 0.60868 0.03696 0.12509 0.0
H1299 H 0.63288 0.03186 0.03299 0.0
C1300 C 0.64715 0.07394 0.03623 0.0
C1301 C 0.65339 0.09656 0.05398 0.0
C1302 C 0.61686 0.0193 0.11452 0.0
C1303 C 0.63044 0.04823 0.07471 0.0
C1304 C 0.61935 0.99472 0.12849 0.0
C1305 C 0.63174 0.97218 0.11582 0.0
C1306 C 0.62656 0.02123 0.08765 0.0
C1307 C 0.63936 0.97436 0.08827 0.0
C1308 C 0.63571 0.04974 0.04653 0.0
C1309 C 0.6447 0.0953 0.08128 0.0
N1310 N 0.63695 -0.0014 0.07519 0.0
N1311 N 0.63419 0.07124 0.09102 0.0
H1312 H 0.64636 0.05842 0.63789 0.0
H1313 H 0.77017 0.122 0.60841 0.0
H1314 H 0.66918 0.07197 0.7236 0.0
H1315 H 0.79345 0.0927 0.6887 0.0
H1316 H 0.72193 0.11741 0.62069 0.0
H1317 H 0.68813 0.08376 0.62512 0.0
C1318 C 0.65975 0.06738 0.65402 0.0
C1319 C 0.65456 0.06255 0.68182 0.0
C1320 C 0.73759 0.11208 0.63563 0.0
C1321 C 0.70233 0.09181 0.66745 0.0
C1322 C 0.76522 0.11496 0.62878 0.0
C1323 C 0.78596 0.10689 0.64727 0.0
C1324 C 0.73069 0.10101 0.66111 0.0
C1325 C 0.77821 0.09854 0.67354 0.0
C1326 C 0.68359 0.08205 0.64673 0.0
C1327 C 0.67261 0.07471 0.70187 0.0
N1328 N 0.75116 0.09545 0.67953 0.0
N1329 N 0.69599 0.08822 0.69428 0.0
H1330 H 0.66268 0.86813 0.38468 0.0
H1331 H 0.58426 0.00433 0.41518 0.0
H1332 H 0.62326 0.88734 0.46111 0.0
H1333 H 0.61966 0.98521 0.33664 0.0
H1334 H 0.58898 0.95663 0.42824 0.0
H1335 H 0.63777 0.90505 0.36269 0.0
C1336 C 0.6483 0.87968 0.39666 0.0
C1337 C 0.64568 0.87539 0.42495 0.0
C1338 C 0.59538 0.96269 0.40797 0.0
C1339 C 0.61736 0.91751 0.40012 0.0
C1340 C 0.59279 0.99 0.40057 0.0
C1341 C 0.60224 -0.00112 0.37509 0.0
C1342 C 0.60806 0.94425 0.39001 0.0
C1343 C 0.6125 0.97929 0.35669 0.0
C1344 C 0.63415 0.9008 0.38413 0.0
C1345 C 0.62649 0.89058 0.43941 0.0
N1346 N 0.6157 0.95297 0.36475 0.0
N1347 N 0.61343 0.91129 0.42696 0.0
H1348 H 0.83884 0.04538 0.2214 0.0
H1349 H 0.69542 0.96261 0.23884 0.0
H1350 H 0.78568 0.05541 0.29066 0.0
H1351 H 0.74848 0.94919 0.17005 0.0
H1352 H 0.7297 -0.00494 0.25894 0.0
H1353 H 0.80726 0.0089 0.20284 0.0
C1354 C 0.8206 0.03988 0.23273 0.0
C1355 C 0.81487 0.05354 0.25759 0.0
C1356 C 0.73398 0.98493 0.23952 0.0
C1357 C 0.77873 0.01186 0.23651 0.0
C1358 C 0.71436 0.96632 0.22799 0.0
C1359 C 0.71892 0.9532 0.20256 0.0
C1360 C 0.7584 0.99071 0.22553 0.0
C1361 C 0.74403 0.9588 0.18966 0.0
C1362 C 0.80261 0.01904 0.22215 0.0
C1363 C 0.79095 0.04553 0.27141 0.0
N1364 N 0.76274 0.9773 0.20119 0.0
N1365 N 0.77378 0.02532 0.26065 0.0
H1366 H 0.76512 0.0547 0.02372 0.0
H1367 H 0.8653 0.97736 0.92336 0.0
H1368 H 0.81662 0.09613 0.9651 0.0
H1369 H 0.80678 0.93646 0.97577 0.0
H1370 H 0.85518 0.02115 0.94552 0.0
H1371 H 0.78769 0.01191 0.01344 0.0
C1372 C 0.78137 0.05484 0.00882 0.0
C1373 C 0.78863 0.07886 0.99477 0.0
C1374 C 0.84482 0.00254 0.9524 0.0
C1375 C 0.81445 0.02985 0.98284 0.0
C1376 C 0.85058 0.97748 0.93977 0.0
C1377 C 0.83639 0.95321 0.94729 0.0
C1378 C 0.82474 0.00336 0.97264 0.0
C1379 C 0.81787 0.95466 0.96896 0.0
C1380 C 0.79429 0.03039 0.00301 0.0
C1381 C 0.81018 0.07797 0.97613 0.0
N1382 N 0.81232 0.97939 0.98062 0.0
N1383 N 0.8221 0.0537 0.97037 0.0
H1384 H 0.79488 0.63557 0.93537 0.0
H1385 H 0.76446 0.79187 0.90751 0.0
H1386 H 0.7314 0.68239 0.97295 0.0
H1387 H 0.83869 0.75244 0.88327 0.0
H1388 H 0.74367 0.74683 0.91676 0.0
H1389 H 0.80279 0.67312 0.90298 0.0
C1390 C 0.78224 0.65347 0.93636 0.0
C1391 C 0.76302 0.65639 0.95719 0.0
C1392 C 0.76433 0.74799 0.90889 0.0
C1393 C 0.77163 0.6989 0.92042 0.0
C1394 C 0.77622 0.77373 0.90358 0.0
C1395 C 0.80372 0.77602 0.8956 0.0
C1396 C 0.78018 0.72447 0.90656 0.0
C1397 C 0.81766 0.75172 0.89011 0.0
C1398 C 0.78673 0.67483 0.91795 0.0
C1399 C 0.74695 0.67976 0.95758 0.0
N1400 N 0.80598 0.72694 0.89639 0.0
N1401 N 0.75184 0.70025 0.9397 0.0
H1402 H 0.35781 0.87058 0.12225 0.0
H1403 H 0.31713 0.71318 0.13102 0.0
H1404 H 0.27935 0.83961 0.15041 0.0
H1405 H 0.40009 0.74295 0.11648 0.0
H1406 H 0.30502 0.75959 0.14452 0.0
H1407 H 0.37648 0.82512 0.12841 0.0
C1408 C 0.34471 0.85445 0.13052 0.0
C1409 C 0.31676 0.85863 0.13508 0.0
C1410 C 0.32596 0.756 0.13863 0.0
C1411 C 0.33774 0.80647 0.14139 0.0
C1412 C 0.33281 0.72951 0.13061 0.0
C1413 C 0.35951 0.72428 0.12204 0.0
C1414 C 0.34581 0.77759 0.13768 0.0
C1415 C 0.37915 0.74614 0.12259 0.0
C1416 C 0.35534 0.8284 0.13383 0.0
C1417 C 0.30086 0.83707 0.14602 0.0
N1418 N 0.37179 0.77195 0.12987 0.0
N1419 N 0.31139 0.81172 0.14818 0.0
H1420 H 0.97313 0.51575 0.78832 0.0
H1421 H 0.03979 0.66416 0.82795 0.0
H1422 H 0.94089 0.59139 0.75815 0.0
H1423 H 0.08647 0.59022 0.82528 0.0
H1424 H -0.00127 0.63702 0.8123 0.0
H1425 H 0.01052 0.5425 0.81205 0.0
C1426 C 0.97379 0.53797 0.78691 0.0
C1427 C 0.95416 0.5514 0.77102 0.0
C1428 C 0.01798 0.6268 0.81536 0.0
C1429 C -0.00359 0.58194 0.79821 0.0
C1430 C 0.04131 0.64221 0.82436 0.0
C1431 C 0.06656 0.62943 0.82755 0.0
C1432 C 0.01992 0.59844 0.81006 0.0
C1433 C 0.06746 0.60092 0.82266 0.0
C1434 C -0.0049 0.55316 0.80036 0.0
C1435 C 0.95587 0.58022 0.7699 0.0
N1436 N 0.04446 0.58637 0.81412 0.0
N1437 N 0.97668 0.59456 0.7833 0.0
H1438 H 0.23057 0.16326 0.62377 0.0
H1439 H 0.20866 0.31908 0.58686 0.0
H1440 H 0.29623 0.22029 0.60231 0.0
H1441 H 0.14391 0.26514 0.61644 0.0
H1442 H 0.24207 0.28474 0.59846 0.0
H1443 H 0.2 0.2018 0.62857 0.0
C1444 C 0.23876 0.18393 0.62069 0.0
C1445 C 0.26581 0.18849 0.61196 0.0
C1446 C 0.22059 0.28047 0.60267 0.0
C1447 C 0.23084 0.23258 0.61696 0.0
C1448 C 0.20145 0.30003 0.59586 0.0
C1449 C 0.17335 0.2948 0.60022 0.0
C1450 C 0.2116 0.2553 0.61362 0.0
C1451 C 0.16533 0.26993 0.61244 0.0
C1452 C 0.22124 0.20593 0.6233 0.0
C1453 C 0.27536 0.21574 0.60853 0.0
N1454 N 0.18433 0.25095 0.61837 0.0
N1455 N 0.25775 0.2367 0.61054 0.0
H1456 H 0.06503 0.97817 0.87766 0.0
H1457 H 0.96588 0.85181 0.9089 0.0
H1458 H 0.08933 0.89364 0.87522 0.0
H1459 H 0.94179 0.93639 0.90549 0.0
H1460 H 0.01409 0.86766 0.9106 0.0
H1461 H 0.02413 0.9643 0.90268 0.0
C1462 C 0.06206 0.95676 0.883 0.0
C1463 C 0.08007 0.93687 0.87367 0.0
C1464 C -0.00178 0.88276 0.91001 0.0
C1465 C 0.03304 0.92075 0.9016 0.0
C1466 C 0.97068 0.87373 0.90899 0.0
C1467 C 0.94979 0.89278 0.90615 0.0
C1468 C 0.00484 0.91098 0.9081 0.0
C1469 C 0.95723 0.92092 0.90684 0.0
C1470 C 0.03867 0.94882 0.89723 0.0
C1471 C 0.07564 0.90955 0.88162 0.0
N1472 N 0.98414 0.92913 0.90729 0.0
N1473 N 0.05211 0.90212 0.89451 0.0
H1474 H 0.73641 0.26626 0.45628 0.0
H1475 H 0.60184 0.20855 0.3748 0.0
H1476 H 0.67682 0.32033 0.42144 0.0
H1477 H 0.65217 0.16033 0.42863 0.0
H1478 H 0.62943 0.24976 0.38911 0.0
H1479 H 0.70668 0.22693 0.44284 0.0
C1480 C 0.71707 0.26988 0.44571 0.0
C1481 C 0.70908 0.29665 0.44001 0.0
C1482 C 0.6342 0.23013 0.39785 0.0
C1483 C 0.67476 0.25152 0.42458 0.0
C1484 C 0.61847 0.20662 0.38975 0.0
C1485 C 0.62474 0.18084 0.40039 0.0
C1486 C 0.65642 0.22771 0.4165 0.0
C1487 C 0.64655 0.17963 0.4197 0.0
C1488 C 0.70001 0.24738 0.43815 0.0
C1489 C 0.68374 0.30002 0.42628 0.0
N1490 N 0.66165 0.20264 0.42694 0.0
N1491 N 0.66744 0.27766 0.41894 0.0
H1492 H 0.88893 0.40045 0.67431 0.0
H1493 H 0.00295 0.34425 0.61785 0.0
H1494 H 0.93415 0.47588 0.65744 0.0
H1495 H 0.01486 0.42135 0.57655 0.0
H1496 H 0.95837 0.35915 0.6331 0.0
H1497 H 0.91577 0.37651 0.63966 0.0
C1498 C 0.90426 0.41201 0.66306 0.0
C1499 C 0.90997 0.43997 0.66923 0.0
C1500 C 0.97011 0.37241 0.61976 0.0
C1501 C 0.94078 0.41284 0.63005 0.0
C1502 C -0.00429 0.36388 0.61108 0.0
C1503 C 0.01295 0.38198 0.59668 0.0
C1504 C 0.96195 0.3992 0.61393 0.0
C1505 C 0.00251 0.4071 0.58836 0.0
C1506 C 0.91969 0.3983 0.64345 0.0
C1507 C 0.92965 0.45414 0.65382 0.0
N1508 N 0.97799 0.41526 0.59771 0.0
N1509 N 0.94452 0.44035 0.63514 0.0
H1510 H 0.61257 0.55417 0.12533 0.0
H1511 H 0.49129 0.61367 0.09159 0.0
H1512 H 0.5605 0.4991 0.17139 0.0
H1513 H 0.45059 0.54036 0.12186 0.0
H1514 H 0.53491 0.59127 0.09482 0.0
H1515 H 0.57238 0.56692 0.09799 0.0
C1516 C 0.59271 0.54456 0.12946 0.0
C1517 C 0.58963 0.52632 0.15126 0.0
C1518 C 0.51651 0.57959 0.09997 0.0
C1519 C 0.54345 0.54135 0.1208 0.0
C1520 C 0.49142 0.59256 0.0983 0.0
C1521 C 0.46731 0.57922 0.10735 0.0
C1522 C 0.51747 0.55304 0.11081 0.0
C1523 C 0.46873 0.55174 0.11535 0.0
C1524 C 0.56965 0.55207 0.11405 0.0
C1525 C 0.56364 0.51396 0.15535 0.0
N1526 N 0.49348 0.5398 0.11743 0.0
N1527 N 0.54152 0.52202 0.14057 0.0
H1528 H 0.57662 0.63867 0.8618 0.0
H1529 H 0.61684 0.58095 0.73506 0.0
H1530 H 0.58835 0.71601 0.82074 0.0
H1531 H 0.58474 0.6562 0.70355 0.0
H1532 H 0.61369 0.60003 0.78195 0.0
H1533 H 0.58833 0.61443 0.81927 0.0
C1534 C 0.58233 0.65058 0.84408 0.0
C1535 C 0.58116 0.67942 0.84474 0.0
C1536 C 0.60702 0.61214 0.76475 0.0
C1537 C 0.59456 0.65186 0.79612 0.0
C1538 C 0.60888 0.60131 0.73798 0.0
C1539 C 0.60078 0.61686 0.71529 0.0
C1540 C 0.59725 0.63876 0.7687 0.0
C1541 C 0.59093 0.64326 0.72031 0.0
C1542 C 0.58908 0.6367 0.8198 0.0
C1543 C 0.58868 0.69377 0.82115 0.0
N1544 N 0.58962 0.65338 0.7464 0.0
N1545 N 0.59457 0.67982 0.7977 0.0
H1546 H 0.48418 0.32009 0.05309 0.0
H1547 H 0.61016 0.38635 0.97297 0.0
H1548 H 0.56042 0.34996 0.09193 0.0
H1549 H 0.53874 0.3469 0.93277 0.0
H1550 H 0.58768 0.38229 0.017 0.0
H1551 H 0.49915 0.33949 0.00972 0.0
C1552 C 0.50383 0.3312 0.05266 0.0
C1553 C 0.52137 0.33289 0.076 0.0
C1554 C 0.57681 0.37473 -0.00147 0.0
C1555 C 0.53865 0.35488 0.02645 0.0
C1556 C 0.58967 0.37694 0.97334 0.0
C1557 C 0.57656 0.3664 0.94915 0.0
C1558 C 0.55069 0.36175 -0.00034 0.0
C1559 C 0.54979 0.35495 0.95092 0.0
C1560 C 0.5124 0.34216 0.02785 0.0
C1561 C 0.54646 0.34774 0.0743 0.0
N1562 N 0.53786 0.35261 0.97583 0.0
N1563 N 0.55453 0.35783 0.04982 0.0
H1564 H 0.9295 0.19269 0.27648 0.0
H1565 H 0.89936 0.35008 0.24754 0.0
H1566 H 0.91492 0.25244 0.34098 0.0
H1567 H 0.91833 0.28931 0.18528 0.0
H1568 H 0.89828 0.31364 0.28174 0.0
H1569 H 0.91701 0.2264 0.24234 0.0
C1570 C 0.92315 0.21275 0.28347 0.0
C1571 C 0.92376 0.21996 0.31156 0.0
C1572 C 0.9025 0.30836 0.26053 0.0
C1573 C 0.91001 0.2589 0.27262 0.0
C1574 C 0.90326 0.32916 0.24104 0.0
C1575 C 0.90938 0.32289 0.21355 0.0
C1576 C 0.90778 0.28116 0.25239 0.0
C1577 C 0.91396 0.29533 0.20626 0.0
C1578 C 0.91616 0.23208 0.26397 0.0
C1579 C 0.91499 0.24612 0.31949 0.0
N1580 N 0.91318 0.2756 0.22555 0.0
N1581 N 0.90896 0.26487 0.30008 0.0
H1582 H 0.97878 0.67936 0.58321 0.0
H1583 H 0.85533 0.62241 0.49013 0.0
H1584 H 0.89381 0.69014 0.60332 0.0
H1585 H 0.94049 0.60621 0.47606 0.0
H1586 H 0.86753 0.63629 0.53776 0.0
H1587 H 0.96442 0.64271 0.55057 0.0
C1588 C 0.95709 0.67374 0.58098 0.0
C1589 C 0.9374 0.68822 0.59544 0.0
C1590 C 0.88343 0.62886 0.52453 0.0
C1591 C 0.92066 0.6466 0.55772 0.0
C1592 C 0.87639 0.62069 0.49744 0.0
C1593 C 0.89708 0.61375 0.47919 0.0
C1594 C 0.9113 0.63016 0.53304 0.0
C1595 C 0.92406 0.61196 0.4895 0.0
C1596 C 0.94886 0.65272 0.5624 0.0
C1597 C 0.90962 0.67973 0.59222 0.0
N1598 N 0.9305 0.62068 0.51557 0.0
N1599 N 0.90199 0.65989 0.5732 0.0
H1600 H 0.57051 0.31091 0.62829 0.0
H1601 H 0.60819 0.29886 0.78777 0.0
H1602 H 0.56388 0.23587 0.674 0.0
H1603 H 0.60978 0.37591 0.74511 0.0
H1604 H 0.60122 0.27439 0.74389 0.0
H1605 H 0.59427 0.33345 0.66797 0.0
C1606 C 0.57468 0.29895 0.64638 0.0
C1607 C 0.56483 0.27155 0.64799 0.0
C1608 C 0.60337 0.29663 0.744 0.0
C1609 C 0.59167 0.29734 0.69353 0.0
C1610 C 0.6073 0.31067 0.76911 0.0
C1611 C 0.60905 0.33955 0.7702 0.0
C1612 C 0.60083 0.31151 0.71966 0.0
C1613 C 0.60829 0.35365 0.74526 0.0
C1614 C 0.58808 0.31191 0.66911 0.0
C1615 C 0.57078 0.25712 0.67199 0.0
N1616 N 0.60379 0.33951 0.72101 0.0
N1617 N 0.58347 0.27028 0.69391 0.0
H1618 H -0.00034 0.34895 0.92185 0.0
H1619 H 0.87999 0.38697 0.02377 0.0
H1620 H 0.91324 0.33512 0.90206 0.0
H1621 H 0.96383 0.37314 0.0497 0.0
H1622 H 0.89328 0.38138 0.97588 0.0
H1623 H 0.98758 0.37151 0.96493 0.0
C1624 C 0.9781 0.35102 0.92633 0.0
C1625 C 0.95739 0.33952 0.90861 0.0
C1626 C 0.9088 0.37998 0.99207 0.0
C1627 C 0.94356 0.36537 0.95793 0.0
C1628 C 0.90131 0.38324 0.01944 0.0
C1629 C 0.92075 0.38001 0.04086 0.0
C1630 C 0.93596 0.37372 0.98607 0.0
C1631 C 0.94807 0.37535 0.0339 0.0
C1632 C 0.97128 0.36389 0.95097 0.0
C1633 C 0.92986 0.34331 0.9153 0.0
N1634 N 0.95481 0.37209 0.00708 0.0
N1635 N 0.92371 0.35561 0.93969 0.0
H1636 H 0.00339 0.71055 0.18518 0.0
H1637 H 0.93921 0.70597 0.33512 0.0
H1638 H 0.99243 0.78292 0.23625 0.0
H1639 H 0.94102 0.6354 0.27976 0.0
H1640 H 0.95959 0.73437 0.2996 0.0
H1641 H 0.98197 0.68244 0.22036 0.0
C1642 C -0.00344 0.72053 0.20384 0.0
C1643 C -0.00031 0.74913 0.2078 0.0
C1644 C 0.95543 0.71269 0.2952 0.0
C1645 C 0.97508 0.71708 0.24809 0.0
C1646 C 0.94378 0.69644 0.31548 0.0
C1647 C 0.93845 0.66819 0.31048 0.0
C1648 C 0.96194 0.70063 0.26978 0.0
C1649 C 0.94475 0.65705 0.28458 0.0
C1650 C 0.98424 0.70447 0.22387 0.0
C1651 C 0.99041 0.76094 0.23234 0.0
N1652 N 0.95628 0.67329 0.26525 0.0
N1653 N 0.97853 0.74484 0.25158 0.0
H1654 H 0.50394 0.70195 0.44796 0.0
H1655 H 0.63544 0.6369 0.51347 0.0
H1656 H 0.57982 0.69733 0.40398 0.0
H1657 H 0.55322 0.62203 0.54294 0.0
H1658 H 0.61573 0.65547 0.47124 0.0
H1659 H 0.52144 0.66979 0.48131 0.0
C1660 C 0.52426 0.69395 0.44525 0.0
C1661 C 0.54063 0.70251 0.42345 0.0
C1662 C 0.60205 0.64766 0.48677 0.0
C1663 C 0.56097 0.6659 0.4617 0.0
C1664 C 0.61328 0.63703 0.51088 0.0
C1665 C 0.59598 0.6285 0.53209 0.0
C1666 C 0.57341 0.6499 0.48406 0.0
C1667 C 0.56741 0.62894 0.52746 0.0
C1668 C 0.5342 0.67547 0.4642 0.0
C1669 C 0.56663 0.69127 0.42063 0.0
N1670 N 0.55706 0.63991 0.50417 0.0
N1671 N 0.57626 0.67386 0.43988 0.0
H1672 H 0.81527 0.55786 0.77185 0.0
H1673 H 0.74477 0.61254 0.63492 0.0
H1674 H 0.85309 0.55846 0.69228 0.0
H1675 H 0.70065 0.58688 0.70672 0.0
H1676 H 0.78812 0.60797 0.66066 0.0
H1677 H 0.77718 0.58362 0.75271 0.0
C1678 C 0.81582 0.56388 0.75052 0.0
C1679 C 0.83691 0.55546 0.73338 0.0
C1680 C 0.76889 0.60385 0.67087 0.0
C1681 C 0.79371 0.58484 0.71154 0.0
C1682 C 0.74418 0.6065 0.65625 0.0
C1683 C 0.71918 0.59935 0.66852 0.0
C1684 C 0.76845 0.5942 0.69791 0.0
C1685 C 0.71955 0.59189 0.69627 0.0
C1686 C 0.79411 0.57853 0.73963 0.0
C1687 C 0.83682 0.56401 0.70599 0.0
N1688 N 0.74385 0.58915 0.70995 0.0
N1689 N 0.81532 0.57795 0.69579 0.0
H1690 H 0.72567 0.56147 0.98336 0.0
H1691 H 0.60815 0.46408 0.93123 0.0
H1692 H 0.64369 0.58961 -0.00358 0.0
H1693 H 0.67208 0.48778 0.87554 0.0
H1694 H 0.62015 0.50508 0.96013 0.0
H1695 H 0.70702 0.52789 0.94916 0.0
C1696 C 0.70367 0.56032 0.97927 0.0
C1697 C 0.6861 0.57811 0.99288 0.0
C1698 C 0.63101 0.5016 0.94121 0.0
C1699 C 0.6648 0.53976 0.95392 0.0
C1700 C 0.6242 0.47838 0.92477 0.0
C1701 C 0.63904 0.4729 0.90095 0.0
C1702 C 0.65349 0.51864 0.93425 0.0
C1703 C 0.65998 0.49162 0.89358 0.0
C1704 C 0.69316 0.54144 0.95954 0.0
C1705 C 0.65783 0.5761 0.98642 0.0
N1706 N 0.66708 0.51337 0.91058 0.0
N1707 N 0.64789 0.55687 0.96762 0.0
H1708 H 0.7064 0.44659 0.27539 0.0
H1709 H 0.78017 0.388 0.14363 0.0
H1710 H 0.66686 0.43396 0.19549 0.0
H1711 H 0.82116 0.40509 0.22221 0.0
H1712 H 0.73605 0.39462 0.16519 0.0
H1713 H 0.74538 0.4208 0.25941 0.0
C1714 C 0.70562 0.43788 0.25468 0.0
C1715 C 0.68368 0.44304 0.2365 0.0
C1716 C 0.75468 0.39659 0.17779 0.0
C1717 C 0.72832 0.41386 0.21801 0.0
C1718 C 0.77992 0.39289 0.16547 0.0
C1719 C 0.80449 0.39665 0.18098 0.0
C1720 C 0.75398 0.40429 0.20577 0.0
C1721 C 0.80279 0.40247 0.20931 0.0
C1722 C 0.72795 0.42324 0.24553 0.0
C1723 C 0.68363 0.43097 0.21002 0.0
N1724 N 0.77799 0.40652 0.22071 0.0
N1725 N 0.70586 0.41736 0.2014 0.0
H1726 H 0.77681 0.39305 0.37888 0.0
H1727 H 0.90501 0.49965 0.38162 0.0
H1728 H 0.84836 0.38101 0.43079 0.0
H1729 H 0.81999 0.52218 0.3795 0.0
H1730 H 0.88976 0.45079 0.38411 0.0
H1731 H 0.79918 0.43479 0.36136 0.0
C1732 C 0.79758 0.39865 0.38588 0.0
C1733 C 0.8106 0.38399 0.40669 0.0
C1734 C 0.87461 0.46656 0.38277 0.0
C1735 C 0.83606 0.43138 0.38683 0.0
C1736 C 0.88322 0.49423 0.38151 0.0
C1737 C 0.86364 0.51473 0.38098 0.0
C1738 C 0.84635 0.45966 0.38246 0.0
C1739 C 0.83566 0.50691 0.38053 0.0
C1740 C 0.81021 0.42251 0.37603 0.0
C1741 C 0.83751 0.39214 0.41507 0.0
N1742 N 0.82783 0.47996 0.38122 0.0
N1743 N 0.84929 0.41562 0.40538 0.0
H1744 H 0.85387 0.45937 0.83779 0.0
H1745 H 0.70605 0.40084 0.79202 0.0
H1746 H 0.83349 0.43067 0.75489 0.0
H1747 H 0.73359 0.40472 0.87717 0.0
H1748 H 0.75327 0.41053 0.77817 0.0
H1749 H 0.8109 0.43776 0.85329 0.0
C1750 C 0.84062 0.44818 0.82294 0.0
C1751 C 0.84707 0.44724 0.79494 0.0
C1752 C 0.74904 0.40893 0.79988 0.0
C1753 C 0.79785 0.42285 0.81241 0.0
C1754 C 0.72205 0.40352 0.80779 0.0
C1755 C 0.71581 0.40223 0.83579 0.0
C1756 C 0.76986 0.41354 0.82012 0.0
C1757 C 0.73744 0.40562 0.85534 0.0
C1758 C 0.8161 0.43586 0.83179 0.0
C1759 C 0.82919 0.43229 0.77662 0.0
N1760 N 0.76346 0.41151 0.84715 0.0
N1761 N 0.80522 0.42107 0.78561 0.0
H1762 H 0.85241 0.5851 0.02595 0.0
H1763 H 0.86897 0.49508 0.16049 0.0
H1764 H 0.80457 0.59432 0.09914 0.0
H1765 H 0.89455 0.47055 0.07944 0.0
H1766 H 0.85905 0.54081 0.1429 0.0
H1767 H 0.88123 0.55256 0.05028 0.0
C1768 C 0.84835 0.58073 0.04729 0.0
C1769 C 0.82572 0.59181 0.06038 0.0
C1770 C 0.86748 0.52558 0.12918 0.0
C1771 C 0.85849 0.55494 0.08822 0.0
C1772 C 0.87326 0.49962 0.13923 0.0
C1773 C 0.88201 0.47903 0.12119 0.0
C1774 C 0.87078 0.53081 0.10105 0.0
C1775 C 0.88726 0.48582 0.09383 0.0
C1776 C 0.86474 0.56217 0.06113 0.0
C1777 C 0.82146 0.58566 0.0881 0.0
N1778 N 0.88123 0.51104 0.08448 0.0
N1779 N 0.83747 0.56736 0.10101 0.0
H1780 H 0.73565 0.53438 0.20325 0.0
H1781 H 0.79048 0.62122 0.33411 0.0
H1782 H 0.68382 0.57995 0.25751 0.0
H1783 H 0.84346 0.57851 0.27865 0.0
H1784 H 0.75235 0.61349 0.30126 0.0
H1785 H 0.77607 0.5574 0.22515 0.0
C1786 C 0.73272 0.5496 0.21942 0.0
C1787 C 0.70634 0.55482 0.22897 0.0
C1788 C 0.77239 0.60612 0.29605 0.0
C1789 C 0.7525 0.58101 0.25427 0.0
C1790 C 0.79419 0.61049 0.31486 0.0
C1791 C 0.82008 0.59999 0.30938 0.0
C1792 C 0.77635 0.59081 0.27173 0.0
C1793 C 0.82378 0.5867 0.28387 0.0
C1794 C 0.75584 0.56271 0.23195 0.0
C1795 C 0.70379 0.57493 0.24979 0.0
N1796 N 0.80201 0.58205 0.26618 0.0
N1797 N 0.7266 0.58696 0.26203 0.0
H1798 H 0.72227 0.39389 0.53143 0.0
H1799 H 0.68384 0.55215 0.53773 0.0
H1800 H 0.73662 0.45003 0.46508 0.0
H1801 H 0.66335 0.4942 0.60101 0.0
H1802 H 0.7016 0.51466 0.51004 0.0
H1803 H 0.69898 0.42999 0.55641 0.0
C1804 C 0.72043 0.41378 0.52205 0.0
C1805 C 0.73159 0.41902 0.49621 0.0
C1806 C 0.69308 0.51012 0.52991 0.0
C1807 C 0.705 0.46048 0.52476 0.0
C1808 C 0.68296 0.53154 0.5458 0.0
C1809 C 0.67226 0.52641 0.57189 0.0
C1810 C 0.69266 0.48335 0.54021 0.0
C1811 C 0.6715 0.4992 0.5811 0.0
C1812 C 0.70708 0.43438 0.53632 0.0
C1813 C 0.72842 0.44512 0.485 0.0
N1814 N 0.68174 0.47874 0.56534 0.0
N1815 N 0.71557 0.46495 0.49944 0.0
H1816 H 0.63041 0.81575 0.54681 0.0
H1817 H 0.68647 0.69937 0.62751 0.0
H1818 H 0.70519 0.82992 0.59492 0.0
H1819 H 0.59869 0.70952 0.62197 0.0
H1820 H 0.69357 0.74871 0.62061 0.0
H1821 H 0.6166 0.77924 0.57798 0.0
C1822 C 0.64351 0.81158 0.56446 0.0
C1823 C 0.66898 0.82545 0.56836 0.0
C1824 C 0.67275 0.74025 0.62175 0.0
C1825 C 0.65395 0.78335 0.60336 0.0
C1826 C 0.66869 0.71208 0.62548 0.0
C1827 C 0.64198 0.70026 0.62452 0.0
C1828 C 0.64996 0.75641 0.6163 0.0
C1829 C 0.61966 0.71772 0.62234 0.0
C1830 C 0.63564 0.79087 0.58229 0.0
C1831 C 0.68538 0.81948 0.59139 0.0
N1832 N 0.62416 0.74485 0.61747 0.0
N1833 N 0.67798 0.79819 0.60765 0.0
H1834 H 0.21765 0.71557 0.38996 0.0
H1835 H 0.18021 0.85027 0.4017 0.0
H1836 H 0.1387 0.69931 0.42637 0.0
H1837 H 0.09633 0.82012 0.38928 0.0
H1838 H 0.1955 0.80317 0.4 0.0
H1839 H 0.20262 0.76124 0.37744 0.0
C1840 C 0.19708 0.72149 0.3951 0.0
C1841 C 0.17963 0.70387 0.40981 0.0
C1842 C 0.17382 0.80678 0.39694 0.0
C1843 C 0.16258 0.75618 0.39606 0.0
C1844 C 0.16502 0.83368 0.3983 0.0
C1845 C 0.13693 0.83904 0.39581 0.0
C1846 C 0.15437 0.78497 0.39342 0.0
C1847 C 0.11817 0.8168 0.39126 0.0
C1848 C 0.18862 0.74764 0.38817 0.0
C1849 C 0.15303 0.71247 0.41554 0.0
N1850 N 0.12719 0.79059 0.39074 0.0
N1851 N 0.14538 0.73815 0.40886 0.0
H1852 H 0.51452 0.00627 0.68075 0.0
H1853 H 0.45561 0.85121 0.66123 0.0
H1854 H 0.56523 0.93548 0.68828 0.0
H1855 H 0.40591 0.92298 0.66653 0.0
H1856 H 0.49709 0.88157 0.66306 0.0
H1857 H 0.47572 0.9758 0.6667 0.0
C1858 C 0.5176 0.98434 0.67913 0.0
C1859 C 0.54304 0.9734 0.68611 0.0
C1860 C 0.47704 0.89058 0.66361 0.0
C1861 C 0.49859 0.93829 0.67032 0.0
C1862 C 0.45342 0.87329 0.66254 0.0
C1863 C 0.42732 0.88455 0.66424 0.0
C1864 C 0.47438 0.91924 0.66609 0.0
C1865 C 0.42562 0.91332 0.66574 0.0
C1866 C 0.4954 0.96691 0.67118 0.0
C1867 C 0.54588 0.9448 0.68335 0.0
N1868 N 0.44878 0.92959 0.66676 0.0
N1869 N 0.5238 0.92817 0.67599 0.0
H1870 H 0.3389 0.36869 0.89199 0.0
H1871 H 0.39624 0.24077 0.87916 0.0
H1872 H 0.26274 0.32776 0.8647 0.0
H1873 H 0.31193 0.21265 0.88922 0.0
H1874 H 0.38011 0.28629 0.86781 0.0
H1875 H 0.3627 0.32618 0.88388 0.0
C1876 C 0.32736 0.35105 0.88326 0.0
C1877 C 0.29868 0.35149 0.87975 0.0
C1878 C 0.36518 0.27022 0.87268 0.0
C1879 C 0.32572 0.30272 0.8704 0.0
C1880 C 0.37435 0.24417 0.87909 0.0
C1881 C 0.35544 0.22301 0.88583 0.0
C1882 C 0.3369 0.27506 0.87305 0.0
C1883 C 0.32732 0.22845 0.8848 0.0
C1884 C 0.34101 0.32666 0.8786 0.0
C1885 C 0.28479 0.32809 0.86832 0.0
N1886 N 0.31895 0.25397 0.8787 0.0
N1887 N 0.29834 0.30442 0.86473 0.0
H1888 H 0.41161 0.54155 0.65586 0.0
H1889 H 0.52897 0.56193 0.58963 0.0
H1890 H 0.44171 0.46445 0.68438 0.0
H1891 H 0.56106 0.51029 0.65311 0.0
H1892 H 0.48369 0.53961 0.59442 0.0
H1893 H 0.45106 0.54629 0.62645 0.0
C1894 C 0.4263 0.52529 0.65538 0.0
C1895 C 0.42382 0.50291 0.6729 0.0
C1896 C 0.50066 0.53302 0.60718 0.0
C1897 C 0.46906 0.50789 0.63904 0.0
C1898 C 0.52653 0.54556 0.60429 0.0
C1899 C 0.54841 0.53864 0.6218 0.0
C1900 C 0.49663 0.51412 0.62831 0.0
C1901 C 0.54449 0.51669 0.63971 0.0
C1902 C 0.44871 0.52775 0.63824 0.0
C1903 C 0.44314 0.4822 0.67132 0.0
N1904 N 0.5188 0.50567 0.64308 0.0
N1905 N 0.46545 0.48557 0.65523 0.0
H1906 H 0.81181 0.15459 0.08131 0.0
H1907 H 0.80894 0.31724 0.10491 0.0
H1908 H 0.73914 0.20268 0.07347 0.0
H1909 H 0.88388 0.27198 0.10809 0.0
H1910 H 0.78265 0.27423 0.09923 0.0
H1911 H 0.83773 0.19588 0.09793 0.0
C1912 C 0.80118 0.17369 0.0836 0.0
C1913 C 0.77338 0.17534 0.07561 0.0
C1914 C 0.80483 0.27361 0.10122 0.0
C1915 C 0.8029 0.22252 0.09426 0.0
C1916 C 0.81996 0.29825 0.10434 0.0
C1917 C 0.84879 0.29833 0.10661 0.0
C1918 C 0.8185 0.24868 0.1002 0.0
C1919 C 0.86173 0.27293 0.10614 0.0
C1920 C 0.81603 0.19726 0.09291 0.0
C1921 C 0.76063 0.20057 0.07903 0.0
N1922 N 0.84648 0.24909 0.10278 0.0
N1923 N 0.77556 0.2232 0.08782 0.0
H1924 H 0.54169 0.97478 0.81154 0.0
H1925 H 0.49354 0.11631 0.87622 0.0
H1926 H 0.58253 0.0537 0.79942 0.0
H1927 H 0.44654 0.03947 0.8786 0.0
H1928 H 0.53263 0.09138 0.8591 0.0
H1929 H 0.51301 -0.00392 0.84609 0.0
C1930 C 0.54484 -0.00349 0.81635 0.0
C1931 C 0.56411 0.01261 0.80216 0.0
C1932 C 0.51392 0.07993 0.86386 0.0
C1933 C 0.53141 0.03708 0.84166 0.0
C1934 C 0.49162 0.09413 0.8738 0.0
C1935 C 0.46648 0.08005 0.87814 0.0
C1936 C 0.51098 0.05152 0.85823 0.0
C1937 C 0.46532 0.05127 0.87488 0.0
C1938 C 0.52849 0.00865 0.83612 0.0
C1939 C 0.56757 0.0406 0.80951 0.0
N1940 N 0.48709 0.03801 0.86465 0.0
N1941 N 0.55112 0.05202 0.82851 0.0
H1942 H 0.90351 0.03713 0.34979 0.0
H1943 H 0.06732 0.02939 0.35861 0.0
H1944 H 0.95939 0.09204 0.30779 0.0
H1945 H 0.01198 0.96232 0.38043 0.0
H1946 H 0.02771 0.05746 0.34916 0.0
H1947 H 0.94306 0.01439 0.37001 0.0
C1948 C 0.92406 0.0445 0.34494 0.0
C1949 C 0.92816 0.06631 0.32683 0.0
C1950 C 0.02428 0.03666 0.3562 0.0
C1951 C 0.97333 0.0405 0.34991 0.0
C1952 C 0.04688 0.0206 0.36166 0.0
C1953 C 0.043 0.99324 0.36989 0.0
C1954 C -0.00239 0.02535 0.35905 0.0
C1955 C 0.01599 0.98315 0.37373 0.0
C1956 C 0.94658 0.03154 0.3565 0.0
C1957 C 0.95524 0.07516 0.32145 0.0
N1958 N -0.0057 -0.00086 0.36806 0.0
N1959 N 0.97679 0.06214 0.33285 0.0
H1960 H 0.445 0.33846 0.18986 0.0
H1961 H 0.47368 0.34621 0.35273 0.0
H1962 H 0.50889 0.29388 0.2307 0.0
H1963 H 0.40991 0.38981 0.31048 0.0
H1964 H 0.48461 0.32359 0.30897 0.0
H1965 H 0.42951 0.35434 0.23469 0.0
C1966 C 0.45567 0.33188 0.20825 0.0
C1967 C 0.47842 0.31503 0.2065 0.0
C1968 C 0.46812 0.33799 0.3094 0.0
C1969 C 0.4609 0.33323 0.25795 0.0
C1970 C 0.46185 0.35087 0.33437 0.0
C1971 C 0.44108 0.3702 0.33527 0.0
C1972 C 0.45348 0.3445 0.28524 0.0
C1973 C 0.42636 0.37535 0.31081 0.0
C1974 C 0.44683 0.34095 0.23388 0.0
C1975 C 0.49136 0.30701 0.23107 0.0
N1976 N 0.43295 0.36273 0.28684 0.0
N1977 N 0.48254 0.31635 0.25578 0.0
H1978 H 0.43084 0.70076 0.88816 0.0
H1979 H 0.43038 0.61795 0.02701 0.0
H1980 H 0.49888 0.65703 0.92222 0.0
H1981 H 0.36728 0.67404 0.00455 0.0
H1982 H 0.44795 0.62007 0.98057 0.0
H1983 H 0.40061 0.67959 0.92227 0.0
C1984 C 0.43915 0.68598 0.90223 0.0
C1985 C 0.46735 0.68085 0.90288 0.0
C1986 C 0.43004 0.63169 0.98556 0.0
C1987 C 0.43327 0.65689 0.94162 0.0
C1988 C 0.42009 0.63054 0.01206 0.0
C1989 C 0.3979 0.64644 0.01959 0.0
C1990 C 0.41819 0.64947 0.96663 0.0
C1991 C 0.38475 0.66184 -0.00055 0.0
C1992 C 0.42198 0.67408 0.92174 0.0
C1993 C 0.47728 0.66176 0.92145 0.0
N1994 N 0.39555 0.66354 0.97389 0.0
N1995 N 0.46031 0.65072 0.94031 0.0
H1996 H 0.08707 0.74851 0.64486 0.0
H1997 H 0.10267 0.75604 0.80859 0.0
H1998 H 0.02465 0.77538 0.7002 0.0
H1999 H 0.15278 0.70611 0.75648 0.0
H2000 H 0.08295 0.7766 0.76757 0.0
H2001 H 0.11903 0.74518 0.68437 0.0
C2002 C 0.08022 0.75401 0.66525 0.0
C2003 C 0.05305 0.76164 0.66941 0.0
C2004 C 0.09867 0.76152 0.76519 0.0
C2005 C 0.08942 0.75834 0.71434 0.0
C2006 C 0.11008 0.74988 0.7886 0.0
C2007 C 0.12882 0.72871 0.78594 0.0
C2008 C 0.10609 0.75195 0.73901 0.0
C2009 C 0.13785 0.72186 0.75947 0.0
C2010 C 0.09844 0.75217 0.68771 0.0
C2011 C 0.04526 0.76882 0.69617 0.0
N2012 N 0.12601 0.73308 0.73696 0.0
N2013 N 0.06329 0.7668 0.71764 0.0
H2014 H 0.98999 0.22053 0.42765 0.0
H2015 H 0.10513 0.33212 0.47865 0.0
H2016 H 0.03725 0.27025 0.37182 0.0
H2017 H 0.05092 0.28753 0.53266 0.0
H2018 H 0.08061 0.31025 0.43902 0.0
H2019 H 0.01145 0.24629 0.46632 0.0
C2020 C 0.0047 0.23708 0.42353 0.0
C2021 C 0.01201 0.24317 0.39654 0.0
C2022 C 0.07411 0.30536 0.45958 0.0
C2023 C 0.03696 0.27252 0.44072 0.0
C2024 C 0.08819 0.31769 0.4822 0.0
C2025 C 0.08015 0.31161 0.50904 0.0
C2026 C 0.05196 0.28678 0.46391 0.0
C2027 C 0.05791 0.2929 0.51239 0.0
C2028 C 0.01701 0.25176 0.44563 0.0
C2029 C 0.03106 0.26491 0.39236 0.0
N2030 N 0.04468 0.28115 0.49012 0.0
N2031 N 0.04313 0.27867 0.41428 0.0
H2032 H 0.4848 0.74995 0.3031 0.0
H2033 H 0.4052 0.62328 0.22528 0.0
H2034 H 0.44161 0.68533 0.34605 0.0
H2035 H 0.45028 0.68841 0.18478 0.0
H2036 H 0.41884 0.64457 0.26987 0.0
H2037 H 0.47235 0.72683 0.25956 0.0
C2038 C 0.47263 0.7309 0.30338 0.0
C2039 C 0.4642 0.71958 0.32826 0.0
C2040 C 0.42578 0.65407 0.25117 0.0
C2041 C 0.44989 0.69284 0.27833 0.0
C2042 C 0.41808 0.6419 0.22572 0.0
C2043 C 0.42649 0.65411 0.2012 0.0
C2044 C 0.44197 0.67857 0.25201 0.0
C2045 C 0.44312 0.67828 0.20306 0.0
C2046 C 0.46556 0.71764 0.27847 0.0
C2047 C 0.4485 0.69479 0.32732 0.0
N2048 N 0.45021 0.68969 0.22797 0.0
N2049 N 0.44182 0.68222 0.30272 0.0
H2050 H 0.04062 0.74402 0.05549 0.0
H2051 H 0.06873 0.67063 0.93972 0.0
H2052 H 0.09698 0.69328 0.09977 0.0
H2053 H 0.14883 0.6637 0.97863 0.0
H2054 H 0.04972 0.68099 0.98463 0.0
H2055 H 0.05138 0.72006 0.01302 0.0
C2056 C 0.05517 0.72764 0.05631 0.0
C2057 C 0.06807 0.72073 0.08119 0.0
C2058 C 0.07145 0.67713 0.98331 0.0
C2059 C 0.08 0.69258 0.03249 0.0
C2060 C 0.08229 0.67092 0.95771 0.0
C2061 C 0.11061 0.66714 0.95524 0.0
C2062 C 0.08912 0.6799 0.00652 0.0
C2063 C 0.12698 0.66705 0.97946 0.0
C2064 C 0.06095 0.71361 0.03204 0.0
C2065 C 0.08661 0.69922 0.08098 0.0
N2066 N 0.11607 0.67389 0.00409 0.0
N2067 N 0.09241 0.68615 0.05684 0.0
H2068 H 0.07985 0.29683 0.81046 0.0
H2069 H 0.08789 0.40753 0.69285 0.0
H2070 H 0.04657 0.37779 0.81768 0.0
H2071 H 0.11464 0.32399 0.68508 0.0
H2072 H 0.08302 0.40124 0.7424 0.0
H2073 H 0.10353 0.31098 0.76913 0.0
C2074 C 0.07789 0.31775 0.80358 0.0
C2075 C 0.06066 0.33595 0.81706 0.0
C2076 C 0.09038 0.38446 0.72988 0.0
C2077 C 0.08732 0.35215 0.76954 0.0
C2078 C 0.09317 0.38804 0.70161 0.0
C2079 C 0.101 0.36601 0.68474 0.0
C2080 C 0.09553 0.35873 0.74122 0.0
C2081 C 0.10786 0.34131 0.69721 0.0
C2082 C 0.0914 0.32583 0.77996 0.0
C2083 C 0.05931 0.36297 0.80761 0.0
N2084 N 0.10463 0.33824 0.72462 0.0
N2085 N 0.072 0.37011 0.78404 0.0
H2086 H 0.51201 0.34025 0.62497 0.0
H2087 H 0.48683 0.41229 0.50637 0.0
H2088 H 0.43265 0.30641 0.59802 0.0
H2089 H 0.40258 0.41367 0.53258 0.0
H2090 H 0.49951 0.39118 0.5498 0.0
H2091 H 0.50266 0.38252 0.5998 0.0
C2092 C 0.49234 0.34207 0.61438 0.0
C2093 C 0.47313 0.31987 0.61314 0.0
C2094 C 0.47847 0.39717 0.54649 0.0
C2095 C 0.46238 0.36772 0.58485 0.0
C2096 C 0.47117 0.40919 0.52162 0.0
C2097 C 0.4434 0.41384 0.51531 0.0
C2098 C 0.45776 0.38947 0.56479 0.0
C2099 C 0.42413 0.40972 0.53612 0.0
C2100 C 0.48714 0.36603 0.59998 0.0
C2101 C 0.44806 0.32302 0.59911 0.0
N2102 N 0.43147 0.39673 0.55947 0.0
N2103 N 0.44343 0.3465 0.58539 0.0
H2104 H 0.17236 0.41607 0.36165 0.0
H2105 H 0.33209 0.40167 0.33601 0.0
H2106 H 0.21533 0.44352 0.28998 0.0
H2107 H 0.29514 0.39424 0.41569 0.0
H2108 H 0.2863 0.40075 0.31464 0.0
H2109 H 0.21389 0.39263 0.37691 0.0
C2110 C 0.19027 0.41643 0.34878 0.0
C2111 C 0.19082 0.43205 0.32487 0.0
C2112 C 0.28822 0.39883 0.33677 0.0
C2113 C 0.23791 0.40555 0.34195 0.0
C2114 C 0.31437 0.39938 0.34901 0.0
C2115 C 0.31745 0.39893 0.37778 0.0
C2116 C 0.26498 0.3981 0.3534 0.0
C2117 C 0.29373 0.39524 0.39347 0.0
C2118 C 0.21393 0.40321 0.35751 0.0
C2119 C 0.21439 0.43204 0.30884 0.0
N2120 N 0.26842 0.39558 0.38112 0.0
N2121 N 0.23711 0.41928 0.31783 0.0
H2122 H 0.26871 0.41984 0.03357 0.0
H2123 H 0.33636 0.5693 0.03233 0.0
H2124 H 0.29454 0.45799 0.95849 0.0
H2125 H 0.34156 0.51832 0.10389 0.0
H2126 H 0.31941 0.52933 0.00508 0.0
H2127 H 0.29384 0.45614 0.06012 0.0
C2128 C 0.27983 0.43578 0.02269 0.0
C2129 C 0.27938 0.43612 0.99382 0.0
C2130 C 0.32451 0.52683 0.02667 0.0
C2131 C 0.30789 0.47768 0.02401 0.0
C2132 C 0.334 0.54964 0.04228 0.0
C2133 C 0.3401 0.54711 0.07046 0.0
C2134 C 0.32063 0.50143 0.03943 0.0
C2135 C 0.33703 0.52112 0.08223 0.0
C2136 C 0.29426 0.45637 0.03785 0.0
C2137 C 0.29432 0.45705 0.98073 0.0
N2138 N 0.32712 0.49929 0.06671 0.0
N2139 N 0.3077 0.47727 -0.00404 0.0
H2140 H 0.37343 0.60025 0.81629 0.0
H2141 H 0.23478 0.67734 0.78975 0.0
H2142 H 0.33306 0.60847 0.73704 0.0
H2143 H 0.2653 0.65473 0.87005 0.0
H2144 H 0.27916 0.66675 0.77058 0.0
H2145 H 0.34276 0.63411 0.83572 0.0
C2146 C 0.35861 0.6097 0.80282 0.0
C2147 C 0.35521 0.60104 0.7752 0.0
C2148 C 0.27632 0.6646 0.79249 0.0
C2149 C 0.32017 0.63955 0.79724 0.0
C2150 C 0.25096 0.67063 0.80348 0.0
C2151 C 0.24599 0.66602 0.8314 0.0
C2152 C 0.29676 0.65366 0.80948 0.0
C2153 C 0.26798 0.65798 0.84828 0.0
C2154 C 0.34107 0.62895 0.81394 0.0
C2155 C 0.33588 0.61411 0.75861 0.0
N2156 N 0.29225 0.65145 0.83693 0.0
N2157 N 0.31877 0.63239 0.77 0.0
H2158 H 0.11332 0.5826 0.47807 0.0
H2159 H 0.13062 0.42226 0.48653 0.0
H2160 H 0.16124 0.53549 0.42153 0.0
H2161 H 0.08382 0.47047 0.54333 0.0
H2162 H 0.13192 0.46098 0.45536 0.0
H2163 H 0.09196 0.53992 0.49412 0.0
C2164 C 0.11897 0.56325 0.46869 0.0
C2165 C 0.13961 0.56245 0.44904 0.0
C2166 C 0.12096 0.46291 0.47443 0.0
C2167 C 0.11576 0.51354 0.46768 0.0
C2168 C 0.12023 0.4408 0.4923 0.0
C2169 C 0.1078 0.44337 0.51802 0.0
C2170 C 0.10935 0.48781 0.48242 0.0
C2171 C 0.09424 0.46773 0.52406 0.0
C2172 C 0.10678 0.53887 0.47785 0.0
C2173 C 0.14576 0.53695 0.43712 0.0
N2174 N 0.09582 0.48916 0.50663 0.0
N2175 N 0.13437 0.5134 0.44712 0.0
H2176 H 0.22288 0.56343 0.28356 0.0
H2177 H 0.26903 0.62639 0.14083 0.0
H2178 H 0.16615 0.57835 0.21636 0.0
H2179 H 0.32484 0.60298 0.20595 0.0
H2180 H 0.23039 0.61755 0.17123 0.0
H2181 H 0.25939 0.58672 0.25857 0.0
C2182 C 0.21803 0.57186 0.26363 0.0
C2183 C 0.19156 0.56849 0.25178 0.0
C2184 C 0.25114 0.61469 0.17892 0.0
C2185 C 0.23339 0.595 0.2229 0.0
C2186 C 0.27321 0.61979 0.16162 0.0
C2187 C 0.30019 0.61492 0.17069 0.0
C2188 C 0.25615 0.60477 0.20546 0.0
C2189 C 0.30437 0.60651 0.19788 0.0
C2190 C 0.23891 0.58517 0.24936 0.0
C2191 C 0.18636 0.58024 0.22611 0.0
N2192 N 0.28258 0.60146 0.21418 0.0
N2193 N 0.20723 0.59265 0.2123 0.0
H2194 H 0.19284 0.43213 0.84531 0.0
H2195 H 0.16385 0.5758 0.91658 0.0
H2196 H 0.17363 0.44216 0.93123 0.0
H2197 H 0.17164 0.56436 0.8287 0.0
H2198 H 0.16238 0.52597 0.92147 0.0
H2199 H 0.17833 0.47893 0.83743 0.0
C2200 C 0.18495 0.4439 0.86239 0.0
C2201 C 0.18519 0.43352 0.88912 0.0
C2202 C 0.16419 0.53436 0.90108 0.0
C2203 C 0.1691 0.48718 0.88037 0.0
C2204 C 0.16529 0.56284 0.89831 0.0
C2205 C 0.16832 0.57432 0.87225 0.0
C2206 C 0.16643 0.51721 0.87767 0.0
C2207 C 0.16959 0.55646 0.84925 0.0
C2208 C 0.17681 0.47071 0.85791 0.0
C2209 C 0.17441 0.44958 0.91039 0.0
N2210 N 0.16892 0.5288 0.85254 0.0
N2211 N 0.16734 0.47583 0.90567 0.0
H2212 H 0.28708 0.47605 0.71999 0.0
H2213 H 0.21729 0.42125 0.57829 0.0
H2214 H 0.31688 0.50076 0.64084 0.0
H2215 H 0.17284 0.42908 0.65389 0.0
H2216 H 0.25805 0.44275 0.60174 0.0
H2217 H 0.24871 0.45065 0.69657 0.0
C2218 C 0.2856 0.47602 0.69771 0.0
C2219 C 0.30496 0.49069 0.6823 0.0
C2220 C 0.23931 0.43967 0.61308 0.0
C2221 C 0.26154 0.46159 0.65553 0.0
C2222 C 0.21616 0.42739 0.59978 0.0
C2223 C 0.19164 0.42368 0.61411 0.0
C2224 C 0.23794 0.44771 0.64093 0.0
C2225 C 0.19123 0.43192 0.64196 0.0
C2226 C 0.26373 0.46162 0.6844 0.0
C2227 C 0.30218 0.48995 0.65348 0.0
N2228 N 0.21407 0.44348 0.65449 0.0
N2229 N 0.28085 0.47558 0.64097 0.0
H2230 H 0.29311 0.62229 0.48772 0.0
H2231 H 0.3591 0.49605 0.4805 0.0
H2232 H 0.25567 0.59075 0.41166 0.0
H2233 H 0.35807 0.5102 0.39298 0.0
H2234 H 0.33262 0.53771 0.48715 0.0
H2235 H 0.3284 0.58753 0.48405 0.0
C2236 C 0.29264 0.60838 0.47001 0.0
C2237 C 0.27147 0.60924 0.44996 0.0
C2238 C 0.3388 0.53193 0.46661 0.0
C2239 C 0.31137 0.56959 0.44585 0.0
C2240 C 0.35372 0.5081 0.46278 0.0
C2241 C 0.3608 0.49958 0.43616 0.0
C2242 C 0.33054 0.54689 0.44358 0.0
C2243 C 0.35319 0.51596 0.4139 0.0
C2244 C 0.31252 0.5884 0.46815 0.0
C2245 C 0.27159 0.59062 0.42759 0.0
N2246 N 0.33803 0.5385 0.41807 0.0
N2247 N 0.29132 0.57158 0.42608 0.0
H2248 H 0.33123 0.19387 0.49069 0.0
H2249 H 0.44215 0.31386 0.46147 0.0
H2250 H 0.40984 0.20154 0.53374 0.0
H2251 H 0.35472 0.32054 0.44729 0.0
H2252 H 0.43395 0.26711 0.47807 0.0
H2253 H 0.34363 0.23434 0.46424 0.0
C2254 C 0.3513 0.20376 0.4943 0.0
C2255 C 0.36935 0.19455 0.51483 0.0
C2256 C 0.41666 0.27876 0.47103 0.0
C2257 C 0.38356 0.24093 0.48455 0.0
C2258 C 0.42128 0.30536 0.46146 0.0
C2259 C 0.39903 0.32119 0.4532 0.0
C2260 C 0.38966 0.2678 0.47192 0.0
C2261 C 0.37243 0.30918 0.45373 0.0
C2262 C 0.35827 0.22695 0.47925 0.0
C2263 C 0.39515 0.20814 0.51838 0.0
N2264 N 0.36848 0.28321 0.463 0.0
N2265 N 0.40142 0.23085 0.50353 0.0
H2266 H 0.87708 0.31441 0.50826 0.0
H2267 H 0.83548 0.19152 0.60337 0.0
H2268 H 0.80206 0.30923 0.554 0.0
H2269 H 0.91654 0.20099 0.56983 0.0
H2270 H 0.82637 0.23874 0.59154 0.0
H2271 H 0.8957 0.27788 0.53643 0.0
C2272 C 0.86478 0.30604 0.52463 0.0
C2273 C 0.83771 0.31425 0.52835 0.0
C2274 C 0.84633 0.23076 0.58703 0.0
C2275 C 0.8587 0.27255 0.56035 0.0
C2276 C 0.85145 0.20374 0.59367 0.0
C2277 C 0.87656 0.19233 0.58702 0.0
C2278 C 0.86619 0.24631 0.57295 0.0
C2279 C 0.89681 0.2091 0.57501 0.0
C2280 C 0.8754 0.28517 0.54067 0.0
C2281 C 0.82277 0.30298 0.54998 0.0
N2282 N 0.89097 0.23518 0.56776 0.0
N2283 N 0.83329 0.28239 0.56485 0.0
H2284 H 0.4254 0.94975 0.25152 0.0
H2285 H 0.49249 0.09657 0.29516 0.0
H2286 H 0.3977 0.02493 0.21595 0.0
H2287 H 0.53512 0.02036 0.3011 0.0
H2288 H 0.45343 0.07116 0.27241 0.0
H2289 H 0.46191 0.97612 0.27638 0.0
C2290 C 0.42698 0.97183 0.24896 0.0
C2291 C 0.40862 0.98518 0.23152 0.0
C2292 C 0.47139 0.06013 0.27878 0.0
C2293 C 0.45019 0.01546 0.2601 0.0
C2294 C 0.49354 0.07453 0.29185 0.0
C2295 C 0.51709 0.06056 0.29983 0.0
C2296 C 0.47276 0.03159 0.27423 0.0
C2297 C 0.51748 0.03202 0.29502 0.0
C2298 C 0.44784 0.98684 0.26312 0.0
C2299 C 0.4116 0.01384 0.22903 0.0
N2300 N 0.49564 0.01849 0.28262 0.0
N2301 N 0.432 0.0281 0.24326 0.0
H2302 H 0.7172 0.67743 0.10991 0.0
H2303 H 0.74241 0.83644 0.1242 0.0
H2304 H 0.7864 0.71841 0.07212 0.0
H2305 H 0.69911 0.78965 0.18534 0.0
H2306 H 0.76218 0.79397 0.10726 0.0
H2307 H 0.71154 0.71845 0.13905 0.0
C2308 C 0.73126 0.69498 0.10786 0.0
C2309 C 0.75208 0.69463 0.0884 0.0
C2310 C 0.74889 0.79313 0.12484 0.0
C2311 C 0.74576 0.74155 0.12151 0.0
C2312 C 0.73776 0.81746 0.13469 0.0
C2313 C 0.7184 0.81654 0.1557 0.0
C2314 C 0.74029 0.76785 0.13588 0.0
C2315 C 0.71335 0.79127 0.16858 0.0
C2316 C 0.7282 0.71829 0.12464 0.0
C2317 C 0.76994 0.71785 0.08677 0.0
N2318 N 0.72359 0.76781 0.15797 0.0
N2319 N 0.76612 0.74053 0.1028 0.0
H2320 H 0.55989 0.52803 0.28082 0.0
H2321 H 0.51977 0.44918 0.41252 0.0
H2322 H 0.62172 0.50466 0.34004 0.0
H2323 H 0.46342 0.50069 0.36905 0.0
H2324 H 0.55808 0.47265 0.39002 0.0
H2325 H 0.52478 0.52133 0.31529 0.0
C2326 C 0.56606 0.52175 0.30125 0.0
C2327 C 0.59358 0.51651 0.30758 0.0
C2328 C 0.53736 0.47923 0.38593 0.0
C2329 C 0.55352 0.50838 0.34705 0.0
C2330 C 0.51543 0.46583 0.39877 0.0
C2331 C 0.48821 0.47239 0.39206 0.0
C2332 C 0.53195 0.49902 0.36606 0.0
C2333 C 0.48397 0.49443 0.37439 0.0
C2334 C 0.54606 0.51809 0.321 0.0
C2335 C 0.60062 0.50876 0.3344 0.0
N2336 N 0.50555 0.50651 0.36154 0.0
N2337 N 0.58057 0.50432 0.35307 0.0
H2338 H 0.26423 0.83805 0.01203 0.0
H2339 H 0.1398 0.7668 0.92419 0.0
H2340 H 0.17956 0.83719 0.037 0.0
H2341 H 0.22415 0.74321 0.91621 0.0
H2342 H 0.15485 0.80162 0.95863 0.0
H2343 H 0.25023 0.81082 0.97083 0.0
C2344 C 0.24271 0.83213 0.00884 0.0
C2345 C 0.22303 0.83963 0.02805 0.0
C2346 C 0.17007 0.78904 0.94905 0.0
C2347 C 0.20693 0.80907 0.98089 0.0
C2348 C 0.16156 0.76933 0.92918 0.0
C2349 C 0.18071 0.75178 0.91758 0.0
C2350 C 0.19791 0.79136 0.95716 0.0
C2351 C 0.20864 0.75605 0.92491 0.0
C2352 C 0.23477 0.81668 0.98534 0.0
C2353 C 0.19543 0.83156 0.02287 0.0
N2354 N 0.21639 0.77527 0.94445 0.0
N2355 N 0.18818 0.81673 -0.00027 0.0
H2356 H 0.40438 0.89869 0.14461 0.0
H2357 H 0.54361 0.92017 0.16295 0.0
H2358 H 0.41587 0.83695 0.20613 0.0
H2359 H 0.54702 0.83333 0.17913 0.0
H2360 H 0.49356 0.91513 0.15816 0.0
H2361 H 0.45331 0.89766 0.13473 0.0
C2362 C 0.41703 0.88446 0.15565 0.0
C2363 C 0.40622 0.86858 0.17697 0.0
C2364 C 0.50533 0.89706 0.16213 0.0
C2365 C 0.46217 0.86784 0.16612 0.0
C2366 C 0.53384 0.90003 0.16531 0.0
C2367 C 0.54946 0.87717 0.17153 0.0
C2368 C 0.49237 0.87111 0.16554 0.0
C2369 C 0.53574 0.8515 0.17427 0.0
C2370 C 0.44502 0.88421 0.15022 0.0
C2371 C 0.42349 0.85008 0.19005 0.0
N2372 N 0.50791 0.84924 0.17169 0.0
N2373 N 0.4508 0.85054 0.18473 0.0
H2374 H 0.03214 0.97202 0.75388 0.0
H2375 H 0.92932 0.00948 0.66482 0.0
H2376 H 0.08966 0.00568 0.69599 0.0
H2377 H 0.99015 0.06841 0.63628 0.0
H2378 H 0.96591 0.98414 0.68662 0.0
H2379 H -0.00563 0.98461 0.72379 0.0
C2380 C 0.03683 0.98172 0.73458 0.0
C2381 C 0.0641 0.98801 0.72754 0.0
C2382 C 0.97129 0.00271 0.67579 0.0
C2383 C 0.02077 0.00193 0.69238 0.0
C2384 C 0.95039 0.01705 0.66303 0.0
C2385 C 0.95657 0.04155 0.6493 0.0
C2386 C -0.00147 0.01319 0.6752 0.0
C2387 C 0.98434 0.0499 0.64704 0.0
C2388 C 0.01517 0.98859 0.71713 0.0
C2389 C 0.06893 0.00053 0.70225 0.0
N2390 N 0.00427 0.03596 0.66023 0.0
N2391 N 0.04743 0.00746 0.68574 0.0
loop_
_geom_bond_atom_site_label_1
_geom_bond_atom_site_label_2
_geom_bond_distance
_geom_bond_site_symmetry_2
_ccdc_geom_bond_type
C0 O1 1.160 . S
C0 O7 1.185 . S
O1 C0 1.160 . S
O2 Zn3 1.899 . S
O2 C10 1.284 . S
Zn3 O2 1.899 . S
Zn3 O4 2.032 1_455 S
Zn3 O7 2.086 . S
Zn3 O12 1.977 1_455 S
O4 Zn3 2.032 1_655 S
O4 C8 1.278 . S
C5 O6 1.203 . S
C5 O12 1.267 . S
O6 C5 1.203 . S
O7 C0 1.185 . S
O7 Zn3 2.086 . S
C8 O4 1.278 . S
C8 O9 1.211 . S
O9 C8 1.211 . S
C10 O2 1.284 . S
C10 O11 1.273 . S
O11 C10 1.273 . S
O12 Zn3 1.977 1_655 S
O12 C5 1.267 . S
C13 O14 1.160 . S
C13 O20 1.185 . S
O14 C13 1.160 . S
O15 Zn16 1.899 1_655 S
O15 C23 1.284 . S
Zn16 O15 1.899 1_455 S
Zn16 O17 2.032 1_455 S
Zn16 O20 2.086 . S
Zn16 O25 1.977 . S
O17 Zn16 2.032 1_655 S
O17 C21 1.278 . S
C18 O19 1.203 . S
C18 O25 1.267 . S
O19 C18 1.203 . S
O20 C13 1.185 . S
O20 Zn16 2.086 . S
C21 O17 1.278 . S
C21 O22 1.211 . S
O22 C21 1.211 . S
C23 O15 1.284 . S
C23 O24 1.273 . S
O24 C23 1.273 . S
O25 Zn16 1.977 . S
O25 C18 1.267 . S
C26 O27 1.160 . S
C26 O33 1.185 . S
O27 C26 1.160 . S
O28 Zn29 1.899 . S
O28 C36 1.284 . S
Zn29 O28 1.899 . S
Zn29 O30 2.032 . S
Zn29 O33 2.086 . S
Zn29 O38 1.977 . S
O30 Zn29 2.032 . S
O30 C34 1.278 . S
C31 O32 1.203 . S
C31 O38 1.267 . S
O32 C31 1.203 . S
O33 C26 1.185 . S
O33 Zn29 2.086 . S
C34 O30 1.278 . S
C34 O35 1.211 . S
O35 C34 1.211 . S
C36 O28 1.284 . S
C36 O37 1.273 . S
O37 C36 1.273 . S
O38 Zn29 1.977 . S
O38 C31 1.267 . S
C39 O40 1.160 . S
C39 O46 1.185 . S
O40 C39 1.160 . S
O41 Zn42 1.899 . S
O41 C49 1.284 . S
Zn42 O41 1.899 . S
Zn42 O43 2.032 . S
Zn42 O46 2.086 . S
Zn42 O51 1.977 . S
O43 Zn42 2.032 . S
O43 C47 1.278 . S
C44 O45 1.203 . S
C44 O51 1.267 . S
O45 C44 1.203 . S
O46 C39 1.185 . S
O46 Zn42 2.086 . S
C47 O43 1.278 . S
C47 O48 1.211 . S
O48 C47 1.211 . S
C49 O41 1.284 . S
C49 O50 1.273 . S
O50 C49 1.273 . S
O51 Zn42 1.977 . S
O51 C44 1.267 . S
C52 O53 1.160 . S
C52 O59 1.185 . S
O53 C52 1.160 . S
O54 Zn55 1.899 . S
O54 C62 1.284 . S
Zn55 O54 1.899 . S
Zn55 O56 2.032 1_455 S
Zn55 O59 2.086 . S
Zn55 O64 1.977 1_455 S
O56 Zn55 2.032 1_655 S
O56 C60 1.278 . S
C57 O58 1.203 . S
C57 O64 1.267 . S
O58 C57 1.203 . S
O59 C52 1.185 . S
O59 Zn55 2.086 . S
C60 O56 1.278 . S
C60 O61 1.211 . S
O61 C60 1.211 . S
C62 O54 1.284 . S
C62 O63 1.273 . S
O63 C62 1.273 . S
O64 Zn55 1.977 1_655 S
O64 C57 1.267 . S
C65 O66 1.160 . S
C65 O72 1.185 . S
O66 C65 1.160 . S
O67 Zn68 1.899 . S
O67 C75 1.284 . S
Zn68 O67 1.899 . S
Zn68 O69 2.032 . S
Zn68 O72 2.086 . S
Zn68 O77 1.977 . S
O69 Zn68 2.032 . S
O69 C73 1.278 . S
C70 O71 1.203 . S
C70 O77 1.267 . S
O71 C70 1.203 . S
O72 C65 1.185 . S
O72 Zn68 2.086 . S
C73 O69 1.278 . S
C73 O74 1.211 . S
O74 C73 1.211 . S
C75 O67 1.284 . S
C75 O76 1.273 . S
O76 C75 1.273 . S
O77 Zn68 1.977 . S
O77 C70 1.267 . S
C78 O79 1.160 . S
C78 O85 1.185 . S
O79 C78 1.160 . S
O80 Zn81 1.899 . S
O80 C88 1.284 . S
Zn81 O80 1.899 . S
Zn81 O82 2.032 . S
Zn81 O85 2.086 . S
Zn81 O90 1.977 . S
O82 Zn81 2.032 . S
O82 C86 1.278 . S
C83 O84 1.203 . S
C83 O90 1.267 . S
O84 C83 1.203 . S
O85 C78 1.185 . S
O85 Zn81 2.086 . S
C86 O82 1.278 . S
C86 O87 1.211 . S
O87 C86 1.211 . S
C88 O80 1.284 . S
C88 O89 1.273 . S
O89 C88 1.273 . S
O90 Zn81 1.977 . S
O90 C83 1.267 . S
C91 O92 1.160 . S
C91 O98 1.185 . S
O92 C91 1.160 . S
O93 Zn94 1.899 . S
O93 C101 1.284 1_455 S
Zn94 O93 1.899 . S
Zn94 O95 2.039 . S
Zn94 O98 2.086 . S
Zn94 O103 1.977 . S
O95 Zn94 2.039 . S
O95 C99 1.272 1_455 S
C96 O97 1.203 . S
C96 O103 1.267 . S
O97 C96 1.203 . S
O98 C91 1.185 . S
O98 Zn94 2.086 . S
C99 O95 1.272 1_655 S
C99 O100 1.211 . S
O100 C99 1.211 . S
C101 O93 1.284 1_655 S
C101 O102 1.273 . S
O102 C101 1.273 . S
O103 Zn94 1.977 . S
O103 C96 1.267 . S
C104 O105 1.160 . S
C104 O111 1.185 . S
O105 C104 1.160 . S
O106 Zn107 1.899 1_565 S
O106 C114 1.284 . S
Zn107 O106 1.899 1_545 S
Zn107 O108 2.032 . S
Zn107 O111 2.086 1_545 S
Zn107 O116 1.977 . S
O108 Zn107 2.032 . S
O108 C112 1.278 . S
C109 O110 1.203 . S
C109 O116 1.267 . S
O110 C109 1.203 . S
O111 C104 1.185 . S
O111 Zn107 2.086 1_565 S
C112 O108 1.278 . S
C112 O113 1.211 . S
O113 C112 1.211 . S
C114 O106 1.284 . S
C114 O115 1.273 1_565 S
O115 C114 1.273 1_545 S
O116 Zn107 1.977 . S
O116 C109 1.267 . S
C117 O118 1.160 . S
C117 O124 1.185 . S
O118 C117 1.160 . S
O119 Zn120 1.899 . S
O119 C127 1.284 . S
Zn120 O119 1.899 . S
Zn120 O121 2.032 . S
Zn120 O124 2.086 . S
Zn120 O129 1.977 . S
O121 Zn120 2.032 . S
O121 C125 1.278 . S
C122 O123 1.203 . S
C122 O129 1.267 . S
O123 C122 1.203 . S
O124 C117 1.185 . S
O124 Zn120 2.086 . S
C125 O121 1.278 . S
C125 O126 1.211 . S
O126 C125 1.211 . S
C127 O119 1.284 . S
C127 O128 1.273 . S
O128 C127 1.273 . S
O129 Zn120 1.977 . S
O129 C122 1.267 . S
C130 O131 1.160 . S
C130 O137 1.185 . S
O131 C130 1.160 . S
O132 Zn133 1.899 . S
O132 C140 1.284 . S
Zn133 O132 1.899 . S
Zn133 O134 2.032 1_565 S
Zn133 O137 2.086 . S
Zn133 O142 1.977 1_565 S
O134 Zn133 2.032 1_545 S
O134 C138 1.278 . S
C135 O136 1.203 . S
C135 O142 1.267 . S
O136 C135 1.203 . S
O137 C130 1.185 . S
O137 Zn133 2.086 . S
C138 O134 1.278 . S
C138 O139 1.211 . S
O139 C138 1.211 . S
C140 O132 1.284 . S
C140 O141 1.273 . S
O141 C140 1.273 . S
O142 Zn133 1.977 1_545 S
O142 C135 1.267 . S
C143 O144 1.160 . S
C143 O150 1.185 . S
O144 C143 1.160 . S
O145 Zn146 1.899 . S
O145 C153 1.284 1_554 S
Zn146 O145 1.899 . S
Zn146 O147 2.032 1_554 S
Zn146 O150 2.086 . S
Zn146 O155 1.977 . S
O147 Zn146 2.032 1_556 S
O147 C151 1.278 . S
C148 O149 1.203 . S
C148 O155 1.267 . S
O149 C148 1.203 . S
O150 C143 1.185 . S
O150 Zn146 2.086 . S
C151 O147 1.278 . S
C151 O152 1.211 . S
O152 C151 1.211 . S
C153 O145 1.284 1_556 S
C153 O154 1.273 . S
O154 C153 1.273 . S
O155 Zn146 1.977 . S
O155 C148 1.267 . S
C156 O157 1.160 . S
C156 O163 1.185 . S
O157 C156 1.160 . S
O158 Zn159 1.899 1_556 S
O158 C166 1.284 . S
Zn159 O158 1.899 1_554 S
Zn159 O160 2.032 . S
Zn159 O163 2.086 1_554 S
Zn159 O168 1.977 . S
O160 Zn159 2.032 . S
O160 C164 1.278 . S
C161 O162 1.203 . S
C161 O168 1.267 . S
O162 C161 1.203 . S
O163 C156 1.185 . S
O163 Zn159 2.086 1_556 S
C164 O160 1.278 . S
C164 O165 1.211 . S
O165 C164 1.211 . S
C166 O158 1.284 . S
C166 O167 1.272 . S
O167 C166 1.272 . S
O168 Zn159 1.977 . S
O168 C161 1.267 . S
C169 O170 1.160 . S
C169 O176 1.185 . S
O170 C169 1.160 . S
O171 Zn172 1.899 . S
O171 C179 1.284 . S
Zn172 O171 1.899 . S
Zn172 O173 2.032 1_556 S
Zn172 O176 2.086 . S
Zn172 O181 1.977 1_556 S
O173 Zn172 2.032 1_554 S
O173 C177 1.278 . S
C174 O175 1.203 . S
C174 O181 1.267 . S
O175 C174 1.203 . S
O176 C169 1.185 . S
O176 Zn172 2.086 . S
C177 O173 1.278 . S
C177 O178 1.211 . S
O178 C177 1.211 . S
C179 O171 1.284 . S
C179 O180 1.273 . S
O180 C179 1.273 . S
O181 Zn172 1.977 1_554 S
O181 C174 1.267 . S
C182 O183 1.160 . S
C182 O189 1.185 . S
O183 C182 1.160 . S
O184 Zn185 1.899 . S
O184 C192 1.284 . S
Zn185 O184 1.899 . S
Zn185 O186 2.032 . S
Zn185 O189 2.086 . S
Zn185 O194 1.977 . S
O186 Zn185 2.032 . S
O186 C190 1.278 . S
C187 O188 1.203 . S
C187 O194 1.267 . S
O188 C187 1.203 . S
O189 C182 1.185 . S
O189 Zn185 2.086 . S
C190 O186 1.278 . S
C190 O191 1.211 . S
O191 C190 1.211 . S
C192 O184 1.284 . S
C192 O193 1.273 . S
O193 C192 1.273 . S
O194 Zn185 1.977 . S
O194 C187 1.267 . S
C195 O196 1.160 . S
C195 O202 1.185 . S
O196 C195 1.160 . S
O197 Zn198 1.899 . S
O197 C205 1.284 . S
Zn198 O197 1.899 . S
Zn198 O199 2.032 . S
Zn198 O202 2.086 . S
Zn198 O207 1.977 . S
O199 Zn198 2.032 . S
O199 C203 1.278 . S
C200 O201 1.203 . S
C200 O207 1.267 . S
O201 C200 1.203 . S
O202 C195 1.185 . S
O202 Zn198 2.086 . S
C203 O199 1.278 . S
C203 O204 1.211 . S
O204 C203 1.211 . S
C205 O197 1.284 . S
C205 O206 1.273 . S
O206 C205 1.273 . S
O207 Zn198 1.977 . S
O207 C200 1.267 . S
C208 O209 1.160 . S
C208 O215 1.185 . S
O209 C208 1.160 . S
O210 Zn211 1.899 . S
O210 C218 1.284 1_545 S
Zn211 O210 1.899 . S
Zn211 O212 2.031 . S
Zn211 O215 2.086 . S
Zn211 O220 1.977 . S
O212 Zn211 2.031 . S
O212 C216 1.279 1_545 S
C213 O214 1.203 . S
C213 O220 1.267 . S
O214 C213 1.203 . S
O215 C208 1.185 . S
O215 Zn211 2.086 . S
C216 O212 1.279 1_565 S
C216 O217 1.211 . S
O217 C216 1.211 . S
C218 O210 1.284 1_565 S
C218 O219 1.273 . S
O219 C218 1.273 . S
O220 Zn211 1.977 . S
O220 C213 1.267 . S
C221 O222 1.160 . S
C221 O228 1.185 . S
O222 C221 1.160 . S
O223 Zn224 1.899 . S
O223 C231 1.284 . S
Zn224 O223 1.899 . S
Zn224 O225 2.032 . S
Zn224 O228 2.086 . S
Zn224 O233 1.977 . S
O225 Zn224 2.032 . S
O225 C229 1.278 . S
C226 O227 1.203 . S
C226 O233 1.267 . S
O227 C226 1.203 . S
O228 C221 1.185 . S
O228 Zn224 2.086 . S
C229 O225 1.278 . S
C229 O230 1.211 . S
O230 C229 1.211 . S
C231 O223 1.284 . S
C231 O232 1.273 . S
O232 C231 1.273 . S
O233 Zn224 1.977 . S
O233 C226 1.267 . S
C234 O235 1.160 . S
C234 O241 1.185 . S
O235 C234 1.160 . S
O236 Zn237 1.899 . S
O236 C244 1.284 . S
Zn237 O236 1.899 . S
Zn237 O238 2.032 . S
Zn237 O241 2.086 . S
Zn237 O246 1.977 . S
O238 Zn237 2.032 . S
O238 C242 1.278 . S
C239 O240 1.203 . S
C239 O246 1.267 . S
O240 C239 1.203 . S
O241 C234 1.185 . S
O241 Zn237 2.086 . S
C242 O238 1.278 . S
C242 O243 1.211 . S
O243 C242 1.211 . S
C244 O236 1.284 . S
C244 O245 1.273 . S
O245 C244 1.273 . S
O246 Zn237 1.977 . S
O246 C239 1.267 . S
C247 O248 1.160 . S
C247 O254 1.185 . S
O248 C247 1.160 . S
O249 Zn250 1.899 . S
O249 C257 1.284 1_545 S
Zn250 O249 1.899 . S
Zn250 O251 2.032 1_545 S
Zn250 O254 2.086 . S
Zn250 O259 1.977 . S
O251 Zn250 2.032 1_565 S
O251 C255 1.278 . S
C252 O253 1.203 . S
C252 O259 1.267 . S
O253 C252 1.203 . S
O254 C247 1.185 . S
O254 Zn250 2.086 . S
C255 O251 1.278 . S
C255 O256 1.211 . S
O256 C255 1.211 . S
C257 O249 1.284 1_565 S
C257 O258 1.273 . S
O258 C257 1.273 . S
O259 Zn250 1.977 . S
O259 C252 1.267 . S
C260 O261 1.160 . S
C260 O267 1.185 . S
O261 C260 1.160 . S
O262 Zn263 1.899 . S
O262 C270 1.284 1_554 S
Zn263 O262 1.899 . S
Zn263 O264 2.032 1_554 S
Zn263 O267 2.086 . S
Zn263 O272 1.977 . S
O264 Zn263 2.032 1_556 S
O264 C268 1.278 . S
C265 O266 1.203 . S
C265 O272 1.267 . S
O266 C265 1.203 . S
O267 C260 1.185 . S
O267 Zn263 2.086 . S
C268 O264 1.278 . S
C268 O269 1.211 . S
O269 C268 1.211 . S
C270 O262 1.284 1_556 S
C270 O271 1.273 . S
O271 C270 1.273 . S
O272 Zn263 1.977 . S
O272 C265 1.267 . S
C273 O274 1.160 . S
C273 O280 1.185 . S
O274 C273 1.160 . S
O275 Zn276 1.899 . S
O275 C283 1.284 . S
Zn276 O275 1.899 . S
Zn276 O277 2.032 . S
Zn276 O280 2.086 . S
Zn276 O285 1.977 . S
O277 Zn276 2.032 . S
O277 C281 1.278 . S
C278 O279 1.203 . S
C278 O285 1.267 . S
O279 C278 1.203 . S
O280 C273 1.185 . S
O280 Zn276 2.086 . S
C281 O277 1.278 . S
C281 O282 1.211 . S
O282 C281 1.211 . S
C283 O275 1.284 . S
C283 O284 1.273 . S
O284 C283 1.273 . S
O285 Zn276 1.977 . S
O285 C278 1.267 . S
C286 O287 1.160 . S
C286 O293 1.185 . S
O287 C286 1.160 . S
O288 Zn289 1.899 . S
O288 C296 1.284 . S
Zn289 O288 1.899 . S
Zn289 O290 2.032 . S
Zn289 O293 2.086 . S
Zn289 O298 1.977 . S
O290 Zn289 2.032 . S
O290 C294 1.278 . S
C291 O292 1.203 . S
C291 O298 1.267 . S
O292 C291 1.203 . S
O293 C286 1.185 . S
O293 Zn289 2.086 . S
C294 O290 1.278 . S
C294 O295 1.211 . S
O295 C294 1.211 . S
C296 O288 1.284 . S
C296 O297 1.273 . S
O297 C296 1.273 . S
O298 Zn289 1.977 . S
O298 C291 1.267 . S
C299 O300 1.160 . S
C299 O306 1.185 . S
O300 C299 1.160 . S
O301 Zn302 1.899 . S
O301 C309 1.284 . S
Zn302 O301 1.899 . S
Zn302 O303 2.032 . S
Zn302 O306 2.086 . S
Zn302 O311 1.977 . S
O303 Zn302 2.032 . S
O303 C307 1.278 . S
C304 O305 1.203 . S
C304 O311 1.267 . S
O305 C304 1.203 . S
O306 C299 1.185 . S
O306 Zn302 2.086 . S
C307 O303 1.278 . S
C307 O308 1.211 . S
O308 C307 1.211 . S
C309 O301 1.284 . S
C309 O310 1.273 . S
O310 C309 1.273 . S
O311 Zn302 1.977 . S
O311 C304 1.267 . S
Sc312 O315 2.025 . S
Sc312 O322 2.105 . S
Sc312 O325 2.105 . S
Sc312 O328 2.105 . S
Sc312 O331 2.105 . S
Sc313 O315 2.025 . S
Sc313 O323 2.105 . S
Sc313 O327 2.105 . S
Sc313 O329 2.105 . S
Sc313 O333 2.105 . S
Sc314 O315 2.025 . S
Sc314 O324 2.105 . S
Sc314 O326 2.105 . S
Sc314 O330 2.105 . S
Sc314 O332 2.105 . S
O315 Sc312 2.025 . S
O315 Sc313 2.025 . S
O315 Sc314 2.025 . S
C316 O322 1.268 . S
C316 O332 1.268 . S
C317 O323 1.268 . S
C317 O331 1.268 . S
C318 O324 1.268 . S
C318 O333 1.268 . S
C319 O325 1.268 . S
C319 O329 1.268 . S
C320 O326 1.268 . S
C320 O328 1.268 . S
C321 O327 1.268 . S
C321 O330 1.268 . S
O322 Sc312 2.105 . S
O322 C316 1.268 . S
O323 Sc313 2.105 . S
O323 C317 1.268 . S
O324 Sc314 2.105 . S
O324 C318 1.268 . S
O325 Sc312 2.105 . S
O325 C319 1.268 . S
O326 Sc314 2.105 . S
O326 C320 1.268 . S
O327 Sc313 2.105 . S
O327 C321 1.268 . S
O328 Sc312 2.105 . S
O328 C320 1.268 . S
O329 Sc313 2.105 . S
O329 C319 1.268 . S
O330 Sc314 2.105 . S
O330 C321 1.268 . S
O331 Sc312 2.105 . S
O331 C317 1.268 . S
O332 Sc314 2.105 . S
O332 C316 1.268 . S
O333 Sc313 2.105 . S
O333 C318 1.268 . S
Sc334 O337 2.025 . S
Sc334 O344 2.105 . S
Sc334 O347 2.105 . S
Sc334 O350 2.105 . S
Sc334 O353 2.105 . S
Sc335 O337 2.025 . S
Sc335 O345 2.105 . S
Sc335 O349 2.105 . S
Sc335 O351 2.105 . S
Sc335 O355 2.105 . S
Sc336 O337 2.025 . S
Sc336 O346 2.105 . S
Sc336 O348 2.105 . S
Sc336 O352 2.105 . S
Sc336 O354 2.105 . S
O337 Sc334 2.025 . S
O337 Sc335 2.025 . S
O337 Sc336 2.025 . S
C338 O344 1.268 . S
C338 O354 1.268 . S
C339 O345 1.268 . S
C339 O353 1.268 . S
C340 O346 1.268 . S
C340 O355 1.268 . S
C341 O347 1.268 . S
C341 O351 1.268 . S
C342 O348 1.268 . S
C342 O350 1.268 . S
C343 O349 1.268 . S
C343 O352 1.268 . S
O344 Sc334 2.105 . S
O344 C338 1.268 . S
O345 Sc335 2.105 . S
O345 C339 1.268 . S
O346 Sc336 2.105 . S
O346 C340 1.268 . S
O347 Sc334 2.105 . S
O347 C341 1.268 . S
O348 Sc336 2.105 . S
O348 C342 1.268 . S
O349 Sc335 2.105 . S
O349 C343 1.268 . S
O350 Sc334 2.105 . S
O350 C342 1.268 . S
O351 Sc335 2.105 . S
O351 C341 1.268 . S
O352 Sc336 2.105 . S
O352 C343 1.268 . S
O353 Sc334 2.105 . S
O353 C339 1.268 . S
O354 Sc336 2.105 . S
O354 C338 1.268 . S
O355 Sc335 2.105 . S
O355 C340 1.268 . S
Sc356 O359 2.025 . S
Sc356 O366 2.105 . S
Sc356 O369 2.105 . S
Sc356 O372 2.105 . S
Sc356 O375 2.105 . S
Sc357 O359 2.025 . S
Sc357 O367 2.105 . S
Sc357 O371 2.105 . S
Sc357 O373 2.105 . S
Sc357 O377 2.105 . S
Sc358 O359 2.025 . S
Sc358 O368 2.105 . S
Sc358 O370 2.105 . S
Sc358 O374 2.105 . S
Sc358 O376 2.105 . S
O359 Sc356 2.025 . S
O359 Sc357 2.025 . S
O359 Sc358 2.025 . S
C360 O366 1.268 . S
C360 O376 1.268 . S
C361 O367 1.268 . S
C361 O375 1.268 . S
C362 O368 1.268 . S
C362 O377 1.268 . S
C363 O369 1.268 . S
C363 O373 1.268 . S
C364 O370 1.268 . S
C364 O372 1.268 . S
C365 O371 1.268 . S
C365 O374 1.268 . S
O366 Sc356 2.105 . S
O366 C360 1.268 . S
O367 Sc357 2.105 . S
O367 C361 1.268 . S
O368 Sc358 2.105 . S
O368 C362 1.268 . S
O369 Sc356 2.105 . S
O369 C363 1.268 . S
O370 Sc358 2.105 . S
O370 C364 1.268 . S
O371 Sc357 2.105 . S
O371 C365 1.268 . S
O372 Sc356 2.105 . S
O372 C364 1.268 . S
O373 Sc357 2.105 . S
O373 C363 1.268 . S
O374 Sc358 2.105 . S
O374 C365 1.268 . S
O375 Sc356 2.105 . S
O375 C361 1.268 . S
O376 Sc358 2.105 . S
O376 C360 1.268 . S
O377 Sc357 2.105 . S
O377 C362 1.268 . S
Sc378 O381 2.025 . S
Sc378 O388 2.105 . S
Sc378 O391 2.105 . S
Sc378 O394 2.105 . S
Sc378 O397 2.105 . S
Sc379 O381 2.025 . S
Sc379 O389 2.105 . S
Sc379 O393 2.105 . S
Sc379 O395 2.105 . S
Sc379 O399 2.105 . S
Sc380 O381 2.025 . S
Sc380 O390 2.105 . S
Sc380 O392 2.105 . S
Sc380 O396 2.105 . S
Sc380 O398 2.105 . S
O381 Sc378 2.025 . S
O381 Sc379 2.025 . S
O381 Sc380 2.025 . S
C382 O388 1.268 . S
C382 O398 1.268 . S
C383 O389 1.268 . S
C383 O397 1.268 . S
C384 O390 1.268 . S
C384 O399 1.268 . S
C385 O391 1.268 . S
C385 O395 1.268 . S
C386 O392 1.268 . S
C386 O394 1.268 . S
C387 O393 1.268 . S
C387 O396 1.268 . S
O388 Sc378 2.105 . S
O388 C382 1.268 . S
O389 Sc379 2.105 . S
O389 C383 1.268 . S
O390 Sc380 2.105 . S
O390 C384 1.268 . S
O391 Sc378 2.105 . S
O391 C385 1.268 . S
O392 Sc380 2.105 . S
O392 C386 1.268 . S
O393 Sc379 2.105 . S
O393 C387 1.268 . S
O394 Sc378 2.105 . S
O394 C386 1.268 . S
O395 Sc379 2.105 . S
O395 C385 1.268 . S
O396 Sc380 2.105 . S
O396 C387 1.268 . S
O397 Sc378 2.105 . S
O397 C383 1.268 . S
O398 Sc380 2.105 . S
O398 C382 1.268 . S
O399 Sc379 2.105 . S
O399 C384 1.268 . S
Sc400 O403 2.025 . S
Sc400 O410 2.105 . S
Sc400 O413 2.105 . S
Sc400 O416 2.105 . S
Sc400 O419 2.105 . S
Sc401 O403 2.025 . S
Sc401 O411 2.105 . S
Sc401 O415 2.105 . S
Sc401 O417 2.105 . S
Sc401 O421 2.105 . S
Sc402 O403 2.025 . S
Sc402 O412 2.105 . S
Sc402 O414 2.105 . S
Sc402 O418 2.105 . S
Sc402 O420 2.105 . S
O403 Sc400 2.025 . S
O403 Sc401 2.025 . S
O403 Sc402 2.025 . S
C404 O410 1.268 . S
C404 O420 1.268 . S
C405 O411 1.268 . S
C405 O419 1.268 . S
C406 O412 1.268 . S
C406 O421 1.268 . S
C407 O413 1.268 . S
C407 O417 1.268 . S
C408 O414 1.268 . S
C408 O416 1.268 . S
C409 O415 1.268 . S
C409 O418 1.268 . S
O410 Sc400 2.105 . S
O410 C404 1.268 . S
O411 Sc401 2.105 . S
O411 C405 1.268 . S
O412 Sc402 2.105 . S
O412 C406 1.268 . S
O413 Sc400 2.105 . S
O413 C407 1.268 . S
O414 Sc402 2.105 . S
O414 C408 1.268 . S
O415 Sc401 2.105 . S
O415 C409 1.268 . S
O416 Sc400 2.105 . S
O416 C408 1.268 . S
O417 Sc401 2.105 . S
O417 C407 1.268 . S
O418 Sc402 2.105 . S
O418 C409 1.268 . S
O419 Sc400 2.105 . S
O419 C405 1.268 . S
O420 Sc402 2.105 . S
O420 C404 1.268 . S
O421 Sc401 2.105 . S
O421 C406 1.268 . S
Sc422 O425 2.025 . S
Sc422 O432 2.105 . S
Sc422 O435 2.105 . S
Sc422 O438 2.105 . S
Sc422 O441 2.105 . S
Sc423 O425 2.025 . S
Sc423 O433 2.105 . S
Sc423 O437 2.105 . S
Sc423 O439 2.105 . S
Sc423 O443 2.105 . S
Sc424 O425 2.025 . S
Sc424 O434 2.105 . S
Sc424 O436 2.105 . S
Sc424 O440 2.105 . S
Sc424 O442 2.105 . S
O425 Sc422 2.025 . S
O425 Sc423 2.025 . S
O425 Sc424 2.025 . S
C426 O432 1.268 . S
C426 O442 1.268 . S
C427 O433 1.268 . S
C427 O441 1.268 . S
C428 O434 1.268 . S
C428 O443 1.268 . S
C429 O435 1.268 . S
C429 O439 1.268 . S
C430 O436 1.268 . S
C430 O438 1.268 . S
C431 O437 1.268 . S
C431 O440 1.268 . S
O432 Sc422 2.105 . S
O432 C426 1.268 . S
O433 Sc423 2.105 . S
O433 C427 1.268 . S
O434 Sc424 2.105 . S
O434 C428 1.268 . S
O435 Sc422 2.105 . S
O435 C429 1.268 . S
O436 Sc424 2.105 . S
O436 C430 1.268 . S
O437 Sc423 2.105 . S
O437 C431 1.268 . S
O438 Sc422 2.105 . S
O438 C430 1.268 . S
O439 Sc423 2.105 . S
O439 C429 1.268 . S
O440 Sc424 2.105 . S
O440 C431 1.268 . S
O441 Sc422 2.105 . S
O441 C427 1.268 . S
O442 Sc424 2.105 . S
O442 C426 1.268 . S
O443 Sc423 2.105 . S
O443 C428 1.268 . S
Sc444 O447 2.025 . S
Sc444 O454 2.105 . S
Sc444 O457 2.105 . S
Sc444 O460 2.105 . S
Sc444 O463 2.105 . S
Sc445 O447 2.025 . S
Sc445 O455 2.105 . S
Sc445 O459 2.105 . S
Sc445 O461 2.105 . S
Sc445 O465 2.105 . S
Sc446 O447 2.025 . S
Sc446 O456 2.105 . S
Sc446 O458 2.105 . S
Sc446 O462 2.105 . S
Sc446 O464 2.105 . S
O447 Sc444 2.025 . S
O447 Sc445 2.025 . S
O447 Sc446 2.025 . S
C448 O454 1.268 . S
C448 O464 1.268 . S
C449 O455 1.268 . S
C449 O463 1.268 . S
C450 O456 1.268 . S
C450 O465 1.268 . S
C451 O457 1.268 . S
C451 O461 1.268 . S
C452 O458 1.268 . S
C452 O460 1.268 . S
C453 O459 1.268 . S
C453 O462 1.268 . S
O454 Sc444 2.105 . S
O454 C448 1.268 . S
O455 Sc445 2.105 . S
O455 C449 1.268 . S
O456 Sc446 2.105 . S
O456 C450 1.268 . S
O457 Sc444 2.105 . S
O457 C451 1.268 . S
O458 Sc446 2.105 . S
O458 C452 1.268 . S
O459 Sc445 2.105 . S
O459 C453 1.268 . S
O460 Sc444 2.105 . S
O460 C452 1.268 . S
O461 Sc445 2.105 . S
O461 C451 1.268 . S
O462 Sc446 2.105 . S
O462 C453 1.268 . S
O463 Sc444 2.105 . S
O463 C449 1.268 . S
O464 Sc446 2.105 . S
O464 C448 1.268 . S
O465 Sc445 2.105 . S
O465 C450 1.268 . S
Sc466 O469 2.025 . S
Sc466 O476 2.105 . S
Sc466 O479 2.105 . S
Sc466 O482 2.105 . S
Sc466 O485 2.105 . S
Sc467 O469 2.025 . S
Sc467 O477 2.105 . S
Sc467 O481 2.105 . S
Sc467 O483 2.105 . S
Sc467 O487 2.105 . S
Sc468 O469 2.025 . S
Sc468 O478 2.105 . S
Sc468 O480 2.105 . S
Sc468 O484 2.105 . S
Sc468 O486 2.105 . S
O469 Sc466 2.025 . S
O469 Sc467 2.025 . S
O469 Sc468 2.025 . S
C470 O476 1.268 . S
C470 O486 1.268 . S
C471 O477 1.268 . S
C471 O485 1.268 . S
C472 O478 1.268 . S
C472 O487 1.268 . S
C473 O479 1.268 . S
C473 O483 1.268 . S
C474 O480 1.268 . S
C474 O482 1.268 . S
C475 O481 1.268 . S
C475 O484 1.268 . S
O476 Sc466 2.105 . S
O476 C470 1.268 . S
O477 Sc467 2.105 . S
O477 C471 1.268 . S
O478 Sc468 2.105 . S
O478 C472 1.268 . S
O479 Sc466 2.105 . S
O479 C473 1.268 . S
O480 Sc468 2.105 . S
O480 C474 1.268 . S
O481 Sc467 2.105 . S
O481 C475 1.268 . S
O482 Sc466 2.105 . S
O482 C474 1.268 . S
O483 Sc467 2.105 . S
O483 C473 1.268 . S
O484 Sc468 2.105 . S
O484 C475 1.268 . S
O485 Sc466 2.105 . S
O485 C471 1.268 . S
O486 Sc468 2.105 . S
O486 C470 1.268 . S
O487 Sc467 2.105 . S
O487 C472 1.268 . S
Sc488 O491 2.025 . S
Sc488 O498 2.105 . S
Sc488 O501 2.105 . S
Sc488 O504 2.105 . S
Sc488 O507 2.105 . S
Sc489 O491 2.025 . S
Sc489 O499 2.105 . S
Sc489 O503 2.105 . S
Sc489 O505 2.105 . S
Sc489 O509 2.105 . S
Sc490 O491 2.025 . S
Sc490 O500 2.105 . S
Sc490 O502 2.105 . S
Sc490 O506 2.105 . S
Sc490 O508 2.105 . S
O491 Sc488 2.025 . S
O491 Sc489 2.025 . S
O491 Sc490 2.025 . S
C492 O498 1.268 . S
C492 O508 1.268 . S
C493 O499 1.268 . S
C493 O507 1.268 . S
C494 O500 1.268 . S
C494 O509 1.268 . S
C495 O501 1.268 . S
C495 O505 1.268 . S
C496 O502 1.268 . S
C496 O504 1.268 . S
C497 O503 1.268 . S
C497 O506 1.268 . S
O498 Sc488 2.105 . S
O498 C492 1.268 . S
O499 Sc489 2.105 . S
O499 C493 1.268 . S
O500 Sc490 2.105 . S
O500 C494 1.268 . S
O501 Sc488 2.105 . S
O501 C495 1.268 . S
O502 Sc490 2.105 . S
O502 C496 1.268 . S
O503 Sc489 2.105 . S
O503 C497 1.268 . S
O504 Sc488 2.105 . S
O504 C496 1.268 . S
O505 Sc489 2.105 . S
O505 C495 1.268 . S
O506 Sc490 2.105 . S
O506 C497 1.268 . S
O507 Sc488 2.105 . S
O507 C493 1.268 . S
O508 Sc490 2.105 . S
O508 C492 1.268 . S
O509 Sc489 2.105 . S
O509 C494 1.268 . S
Sc510 O513 2.025 . S
Sc510 O520 2.105 . S
Sc510 O523 2.105 . S
Sc510 O526 2.105 . S
Sc510 O529 2.105 . S
Sc511 O513 2.025 . S
Sc511 O521 2.105 . S
Sc511 O525 2.105 . S
Sc511 O527 2.105 . S
Sc511 O531 2.105 . S
Sc512 O513 2.025 . S
Sc512 O522 2.105 . S
Sc512 O524 2.105 . S
Sc512 O528 2.105 . S
Sc512 O530 2.105 . S
O513 Sc510 2.025 . S
O513 Sc511 2.025 . S
O513 Sc512 2.025 . S
C514 O520 1.268 . S
C514 O530 1.268 . S
C515 O521 1.268 . S
C515 O529 1.268 . S
C516 O522 1.268 . S
C516 O531 1.268 . S
C517 O523 1.268 . S
C517 O527 1.268 . S
C518 O524 1.268 . S
C518 O526 1.268 . S
C519 O525 1.268 . S
C519 O528 1.268 . S
O520 Sc510 2.105 . S
O520 C514 1.268 . S
O521 Sc511 2.105 . S
O521 C515 1.268 . S
O522 Sc512 2.105 . S
O522 C516 1.268 . S
O523 Sc510 2.105 . S
O523 C517 1.268 . S
O524 Sc512 2.105 . S
O524 C518 1.268 . S
O525 Sc511 2.105 . S
O525 C519 1.268 . S
O526 Sc510 2.105 . S
O526 C518 1.268 . S
O527 Sc511 2.105 . S
O527 C517 1.268 . S
O528 Sc512 2.105 . S
O528 C519 1.268 . S
O529 Sc510 2.105 . S
O529 C515 1.268 . S
O530 Sc512 2.105 . S
O530 C514 1.268 . S
O531 Sc511 2.105 . S
O531 C516 1.268 . S
Sc532 O535 2.025 . S
Sc532 O542 2.105 . S
Sc532 O545 2.105 . S
Sc532 O548 2.105 . S
Sc532 O551 2.105 . S
Sc533 O535 2.025 . S
Sc533 O543 2.105 . S
Sc533 O547 2.105 . S
Sc533 O549 2.105 . S
Sc533 O553 2.105 . S
Sc534 O535 2.025 . S
Sc534 O544 2.105 . S
Sc534 O546 2.105 . S
Sc534 O550 2.105 . S
Sc534 O552 2.105 . S
O535 Sc532 2.025 . S
O535 Sc533 2.025 . S
O535 Sc534 2.025 . S
C536 O542 1.268 . S
C536 O552 1.268 . S
C537 O543 1.268 . S
C537 O551 1.268 . S
C538 O544 1.268 . S
C538 O553 1.268 . S
C539 O545 1.268 . S
C539 O549 1.268 . S
C540 O546 1.268 . S
C540 O548 1.268 . S
C541 O547 1.268 . S
C541 O550 1.268 . S
O542 Sc532 2.105 . S
O542 C536 1.268 . S
O543 Sc533 2.105 . S
O543 C537 1.268 . S
O544 Sc534 2.105 . S
O544 C538 1.268 . S
O545 Sc532 2.105 . S
O545 C539 1.268 . S
O546 Sc534 2.105 . S
O546 C540 1.268 . S
O547 Sc533 2.105 . S
O547 C541 1.268 . S
O548 Sc532 2.105 . S
O548 C540 1.268 . S
O549 Sc533 2.105 . S
O549 C539 1.268 . S
O550 Sc534 2.105 . S
O550 C541 1.268 . S
O551 Sc532 2.105 . S
O551 C537 1.268 . S
O552 Sc534 2.105 . S
O552 C536 1.268 . S
O553 Sc533 2.105 . S
O553 C538 1.268 . S
Sc554 O557 2.025 . S
Sc554 O564 2.105 . S
Sc554 O567 2.105 . S
Sc554 O570 2.105 . S
Sc554 O573 2.105 . S
Sc555 O557 2.025 . S
Sc555 O565 2.105 . S
Sc555 O569 2.105 . S
Sc555 O571 2.105 . S
Sc555 O575 2.105 . S
Sc556 O557 2.025 . S
Sc556 O566 2.105 . S
Sc556 O568 2.105 . S
Sc556 O572 2.105 . S
Sc556 O574 2.105 . S
O557 Sc554 2.025 . S
O557 Sc555 2.025 . S
O557 Sc556 2.025 . S
C558 O564 1.268 . S
C558 O574 1.268 . S
C559 O565 1.268 . S
C559 O573 1.268 . S
C560 O566 1.268 . S
C560 O575 1.268 . S
C561 O567 1.268 . S
C561 O571 1.268 . S
C562 O568 1.268 . S
C562 O570 1.268 . S
C563 O569 1.268 . S
C563 O572 1.268 . S
O564 Sc554 2.105 . S
O564 C558 1.268 . S
O565 Sc555 2.105 . S
O565 C559 1.268 . S
O566 Sc556 2.105 . S
O566 C560 1.268 . S
O567 Sc554 2.105 . S
O567 C561 1.268 . S
O568 Sc556 2.105 . S
O568 C562 1.268 . S
O569 Sc555 2.105 . S
O569 C563 1.268 . S
O570 Sc554 2.105 . S
O570 C562 1.268 . S
O571 Sc555 2.105 . S
O571 C561 1.268 . S
O572 Sc556 2.105 . S
O572 C563 1.268 . S
O573 Sc554 2.105 . S
O573 C559 1.268 . S
O574 Sc556 2.105 . S
O574 C558 1.268 . S
O575 Sc555 2.105 . S
O575 C560 1.268 . S
Sc576 O579 2.025 . S
Sc576 O586 2.105 . S
Sc576 O589 2.105 . S
Sc576 O592 2.105 . S
Sc576 O595 2.105 . S
Sc577 O579 2.025 . S
Sc577 O587 2.105 . S
Sc577 O591 2.105 . S
Sc577 O593 2.105 . S
Sc577 O597 2.105 . S
Sc578 O579 2.025 . S
Sc578 O588 2.105 . S
Sc578 O590 2.105 . S
Sc578 O594 2.105 . S
Sc578 O596 2.105 . S
O579 Sc576 2.025 . S
O579 Sc577 2.025 . S
O579 Sc578 2.025 . S
C580 O586 1.268 . S
C580 O596 1.268 . S
C581 O587 1.268 . S
C581 O595 1.268 . S
C582 O588 1.268 . S
C582 O597 1.268 . S
C583 O589 1.268 . S
C583 O593 1.268 . S
C584 O590 1.268 . S
C584 O592 1.268 . S
C585 O591 1.268 . S
C585 O594 1.268 . S
O586 Sc576 2.105 . S
O586 C580 1.268 . S
O587 Sc577 2.105 . S
O587 C581 1.268 . S
O588 Sc578 2.105 . S
O588 C582 1.268 . S
O589 Sc576 2.105 . S
O589 C583 1.268 . S
O590 Sc578 2.105 . S
O590 C584 1.268 . S
O591 Sc577 2.105 . S
O591 C585 1.268 . S
O592 Sc576 2.105 . S
O592 C584 1.268 . S
O593 Sc577 2.105 . S
O593 C583 1.268 . S
O594 Sc578 2.105 . S
O594 C585 1.268 . S
O595 Sc576 2.105 . S
O595 C581 1.268 . S
O596 Sc578 2.105 . S
O596 C580 1.268 . S
O597 Sc577 2.105 . S
O597 C582 1.268 . S
Sc598 O601 2.025 . S
Sc598 O608 2.105 . S
Sc598 O611 2.105 . S
Sc598 O614 2.105 . S
Sc598 O617 2.105 . S
Sc599 O601 2.025 . S
Sc599 O609 2.105 . S
Sc599 O613 2.105 . S
Sc599 O615 2.105 . S
Sc599 O619 2.105 . S
Sc600 O601 2.025 . S
Sc600 O610 2.105 . S
Sc600 O612 2.105 . S
Sc600 O616 2.105 . S
Sc600 O618 2.105 . S
O601 Sc598 2.025 . S
O601 Sc599 2.025 . S
O601 Sc600 2.025 . S
C602 O608 1.268 . S
C602 O618 1.268 . S
C603 O609 1.268 . S
C603 O617 1.268 . S
C604 O610 1.268 . S
C604 O619 1.268 . S
C605 O611 1.268 . S
C605 O615 1.268 . S
C606 O612 1.268 . S
C606 O614 1.268 . S
C607 O613 1.268 . S
C607 O616 1.268 . S
O608 Sc598 2.105 . S
O608 C602 1.268 . S
O609 Sc599 2.105 . S
O609 C603 1.268 . S
O610 Sc600 2.105 . S
O610 C604 1.268 . S
O611 Sc598 2.105 . S
O611 C605 1.268 . S
O612 Sc600 2.105 . S
O612 C606 1.268 . S
O613 Sc599 2.105 . S
O613 C607 1.268 . S
O614 Sc598 2.105 . S
O614 C606 1.268 . S
O615 Sc599 2.105 . S
O615 C605 1.268 . S
O616 Sc600 2.105 . S
O616 C607 1.268 . S
O617 Sc598 2.105 . S
O617 C603 1.268 . S
O618 Sc600 2.105 . S
O618 C602 1.268 . S
O619 Sc599 2.105 . S
O619 C604 1.268 . S
Sc620 O623 2.025 . S
Sc620 O630 2.105 . S
Sc620 O633 2.105 . S
Sc620 O636 2.105 . S
Sc620 O639 2.105 . S
Sc621 O623 2.025 . S
Sc621 O631 2.105 . S
Sc621 O635 2.105 . S
Sc621 O637 2.105 . S
Sc621 O641 2.105 . S
Sc622 O623 2.025 . S
Sc622 O632 2.105 . S
Sc622 O634 2.105 . S
Sc622 O638 2.105 . S
Sc622 O640 2.105 . S
O623 Sc620 2.025 . S
O623 Sc621 2.025 . S
O623 Sc622 2.025 . S
C624 O630 1.268 . S
C624 O640 1.268 . S
C625 O631 1.268 . S
C625 O639 1.268 . S
C626 O632 1.268 . S
C626 O641 1.268 . S
C627 O633 1.268 . S
C627 O637 1.268 . S
C628 O634 1.268 . S
C628 O636 1.268 . S
C629 O635 1.268 . S
C629 O638 1.268 . S
O630 Sc620 2.105 . S
O630 C624 1.268 . S
O631 Sc621 2.105 . S
O631 C625 1.268 . S
O632 Sc622 2.105 . S
O632 C626 1.268 . S
O633 Sc620 2.105 . S
O633 C627 1.268 . S
O634 Sc622 2.105 . S
O634 C628 1.268 . S
O635 Sc621 2.105 . S
O635 C629 1.268 . S
O636 Sc620 2.105 . S
O636 C628 1.268 . S
O637 Sc621 2.105 . S
O637 C627 1.268 . S
O638 Sc622 2.105 . S
O638 C629 1.268 . S
O639 Sc620 2.105 . S
O639 C625 1.268 . S
O640 Sc622 2.105 . S
O640 C624 1.268 . S
O641 Sc621 2.105 . S
O641 C626 1.268 . S
Sc642 O645 2.025 . S
Sc642 O652 2.105 . S
Sc642 O655 2.105 . S
Sc642 O658 2.105 . S
Sc642 O661 2.105 . S
Sc643 O645 2.025 . S
Sc643 O653 2.105 . S
Sc643 O657 2.105 . S
Sc643 O659 2.105 . S
Sc643 O663 2.105 . S
Sc644 O645 2.025 . S
Sc644 O654 2.105 . S
Sc644 O656 2.105 . S
Sc644 O660 2.105 . S
Sc644 O662 2.105 . S
O645 Sc642 2.025 . S
O645 Sc643 2.025 . S
O645 Sc644 2.025 . S
C646 O652 1.268 . S
C646 O662 1.268 . S
C647 O653 1.268 . S
C647 O661 1.268 . S
C648 O654 1.268 . S
C648 O663 1.268 . S
C649 O655 1.268 . S
C649 O659 1.268 . S
C650 O656 1.268 . S
C650 O658 1.268 . S
C651 O657 1.268 . S
C651 O660 1.268 . S
O652 Sc642 2.105 . S
O652 C646 1.268 . S
O653 Sc643 2.105 . S
O653 C647 1.268 . S
O654 Sc644 2.105 . S
O654 C648 1.268 . S
O655 Sc642 2.105 . S
O655 C649 1.268 . S
O656 Sc644 2.105 . S
O656 C650 1.268 . S
O657 Sc643 2.105 . S
O657 C651 1.268 . S
O658 Sc642 2.105 . S
O658 C650 1.268 . S
O659 Sc643 2.105 . S
O659 C649 1.268 . S
O660 Sc644 2.105 . S
O660 C651 1.268 . S
O661 Sc642 2.105 . S
O661 C647 1.268 . S
O662 Sc644 2.105 . S
O662 C646 1.268 . S
O663 Sc643 2.105 . S
O663 C648 1.268 . S
H664 C670 0.930 . S
H665 C674 0.930 . S
H666 C679 0.929 . S
H667 C677 0.929 . S
H668 C672 0.929 . S
H669 C678 0.929 . S
C670 H664 0.930 . S
C670 C671 1.367 . S
C670 C678 1.378 . S
C671 C670 1.367 . S
C671 C679 1.433 . S
C672 H668 0.929 . S
C672 C674 1.378 . S
C672 C676 1.350 . S
C673 C676 1.463 . S
C673 C678 1.350 . S
C673 N681 1.427 . S
C674 H665 0.930 . S
C674 C672 1.378 . S
C674 C675 1.367 . S
C675 C674 1.367 . S
C675 C677 1.433 . S
C676 C672 1.350 . S
C676 C673 1.463 . S
C676 N680 1.427 . S
C677 H667 0.929 . S
C677 C675 1.433 . S
C677 N680 1.384 . S
C678 H669 0.929 . S
C678 C670 1.378 . S
C678 C673 1.350 . S
C679 H666 0.929 . S
C679 C671 1.433 . S
C679 N681 1.384 . S
N680 C676 1.427 . S
N680 C677 1.384 . S
N681 C673 1.427 . S
N681 C679 1.384 . S
H682 C688 0.930 . S
H683 C692 0.930 . S
H684 C697 0.929 . S
H685 C695 0.929 . S
H686 C690 0.929 . S
H687 C696 0.929 . S
C688 H682 0.930 . S
C688 C689 1.367 . S
C688 C696 1.378 . S
C689 C688 1.367 . S
C689 C697 1.433 . S
C690 H686 0.929 . S
C690 C692 1.378 . S
C690 C694 1.350 . S
C691 C694 1.463 . S
C691 C696 1.350 . S
C691 N699 1.427 . S
C692 H683 0.930 . S
C692 C690 1.378 . S
C692 C693 1.367 . S
C693 C692 1.367 . S
C693 C695 1.433 . S
C694 C690 1.350 . S
C694 C691 1.463 . S
C694 N698 1.427 . S
C695 H685 0.929 . S
C695 C693 1.433 . S
C695 N698 1.384 . S
C696 H687 0.929 . S
C696 C688 1.378 . S
C696 C691 1.350 . S
C697 H684 0.929 . S
C697 C689 1.433 . S
C697 N699 1.384 . S
N698 C694 1.427 . S
N698 C695 1.384 . S
N699 C691 1.427 . S
N699 C697 1.384 . S
H700 C706 0.930 . S
H701 C710 0.930 . S
H702 C715 0.929 . S
H703 C713 0.929 . S
H704 C708 0.929 . S
H705 C714 0.929 . S
C706 H700 0.930 . S
C706 C707 1.367 . S
C706 C714 1.378 . S
C707 C706 1.367 . S
C707 C715 1.433 . S
C708 H704 0.929 . S
C708 C710 1.378 . S
C708 C712 1.350 . S
C709 C712 1.463 . S
C709 C714 1.350 . S
C709 N717 1.427 . S
C710 H701 0.930 . S
C710 C708 1.378 . S
C710 C711 1.367 . S
C711 C710 1.367 . S
C711 C713 1.433 . S
C712 C708 1.350 . S
C712 C709 1.463 . S
C712 N716 1.427 . S
C713 H703 0.929 . S
C713 C711 1.433 . S
C713 N716 1.384 . S
C714 H705 0.929 . S
C714 C706 1.378 . S
C714 C709 1.350 . S
C715 H702 0.929 . S
C715 C707 1.433 . S
C715 N717 1.384 . S
N716 C712 1.427 . S
N716 C713 1.384 . S
N717 C709 1.427 . S
N717 C715 1.384 . S
H718 C724 0.930 . S
H719 C728 0.930 . S
H720 C733 0.929 . S
H721 C731 0.929 . S
H722 C726 0.929 . S
H723 C732 0.929 . S
C724 H718 0.930 . S
C724 C725 1.367 . S
C724 C732 1.378 . S
C725 C724 1.367 . S
C725 C733 1.433 . S
C726 H722 0.929 . S
C726 C728 1.378 1_554 S
C726 C730 1.350 . S
C727 C730 1.463 . S
C727 C732 1.350 . S
C727 N735 1.427 . S
C728 H719 0.930 . S
C728 C726 1.378 1_556 S
C728 C729 1.367 . S
C729 C728 1.367 . S
C729 C731 1.433 . S
C730 C726 1.350 . S
C730 C727 1.463 . S
C730 N734 1.427 1_554 S
C731 H721 0.929 . S
C731 C729 1.433 . S
C731 N734 1.384 . S
C732 H723 0.929 . S
C732 C724 1.378 . S
C732 C727 1.350 . S
C733 H720 0.929 . S
C733 C725 1.433 . S
C733 N735 1.384 . S
N734 C730 1.427 1_556 S
N734 C731 1.384 . S
N735 C727 1.427 . S
N735 C733 1.384 . S
H736 C742 0.930 . S
H737 C746 0.930 . S
H738 C751 0.929 . S
H739 C749 0.929 . S
H740 C744 0.929 . S
H741 C750 0.929 . S
C742 H736 0.930 . S
C742 C743 1.367 . S
C742 C750 1.378 . S
C743 C742 1.367 . S
C743 C751 1.433 . S
C744 H740 0.929 . S
C744 C746 1.378 . S
C744 C748 1.350 . S
C745 C748 1.463 . S
C745 C750 1.350 . S
C745 N753 1.427 . S
C746 H737 0.930 . S
C746 C744 1.378 . S
C746 C747 1.367 . S
C747 C746 1.367 . S
C747 C749 1.433 . S
C748 C744 1.350 . S
C748 C745 1.463 . S
C748 N752 1.427 . S
C749 H739 0.929 . S
C749 C747 1.433 . S
C749 N752 1.384 . S
C750 H741 0.929 . S
C750 C742 1.378 . S
C750 C745 1.350 . S
C751 H738 0.929 . S
C751 C743 1.433 . S
C751 N753 1.384 . S
N752 C748 1.427 . S
N752 C749 1.384 . S
N753 C745 1.427 . S
N753 C751 1.384 . S
H754 C760 0.930 . S
H755 C764 0.930 . S
H756 C769 0.929 . S
H757 C767 0.929 . S
H758 C762 0.929 . S
H759 C768 0.929 . S
C760 H754 0.930 . S
C760 C761 1.367 . S
C760 C768 1.378 . S
C761 C760 1.367 . S
C761 C769 1.433 . S
C762 H758 0.929 . S
C762 C764 1.378 . S
C762 C766 1.350 . S
C763 C766 1.463 . S
C763 C768 1.350 . S
C763 N771 1.427 . S
C764 H755 0.930 . S
C764 C762 1.378 . S
C764 C765 1.367 . S
C765 C764 1.367 . S
C765 C767 1.433 . S
C766 C762 1.350 . S
C766 C763 1.463 . S
C766 N770 1.427 . S
C767 H757 0.929 . S
C767 C765 1.433 . S
C767 N770 1.384 . S
C768 H759 0.929 . S
C768 C760 1.378 . S
C768 C763 1.350 . S
C769 H756 0.929 . S
C769 C761 1.433 . S
C769 N771 1.384 . S
N770 C766 1.427 . S
N770 C767 1.384 . S
N771 C763 1.427 . S
N771 C769 1.384 . S
H772 C778 0.930 . S
H773 C782 0.930 . S
H774 C787 0.929 . S
H775 C785 0.929 . S
H776 C780 0.929 . S
H777 C786 0.929 . S
C778 H772 0.930 . S
C778 C779 1.367 . S
C778 C786 1.378 . S
C779 C778 1.367 . S
C779 C787 1.433 . S
C780 H776 0.929 . S
C780 C782 1.378 . S
C780 C784 1.350 . S
C781 C784 1.463 . S
C781 C786 1.350 . S
C781 N789 1.427 . S
C782 H773 0.930 . S
C782 C780 1.378 . S
C782 C783 1.367 . S
C783 C782 1.367 . S
C783 C785 1.433 . S
C784 C780 1.350 . S
C784 C781 1.463 . S
C784 N788 1.427 . S
C785 H775 0.929 . S
C785 C783 1.433 . S
C785 N788 1.384 . S
C786 H777 0.929 . S
C786 C778 1.378 . S
C786 C781 1.350 . S
C787 H774 0.929 . S
C787 C779 1.433 . S
C787 N789 1.384 . S
N788 C784 1.427 . S
N788 C785 1.384 . S
N789 C781 1.427 . S
N789 C787 1.384 . S
H790 C796 0.930 . S
H791 C800 0.930 . S
H792 C805 0.929 . S
H793 C803 0.929 . S
H794 C798 0.929 . S
H795 C804 0.929 . S
C796 H790 0.930 . S
C796 C797 1.367 . S
C796 C804 1.378 . S
C797 C796 1.367 . S
C797 C805 1.433 . S
C798 H794 0.929 . S
C798 C800 1.378 . S
C798 C802 1.350 . S
C799 C802 1.463 1_556 S
C799 C804 1.350 . S
C799 N807 1.427 . S
C800 H791 0.930 . S
C800 C798 1.378 . S
C800 C801 1.367 . S
C801 C800 1.367 . S
C801 C803 1.433 . S
C802 C798 1.350 . S
C802 C799 1.463 1_554 S
C802 N806 1.427 . S
C803 H793 0.929 . S
C803 C801 1.433 . S
C803 N806 1.384 . S
C804 H795 0.929 . S
C804 C796 1.378 . S
C804 C799 1.350 . S
C805 H792 0.929 . S
C805 C797 1.433 . S
C805 N807 1.384 . S
N806 C802 1.427 . S
N806 C803 1.384 . S
N807 C799 1.427 . S
N807 C805 1.384 . S
H808 C814 0.930 . S
H809 C818 0.930 . S
H810 C823 0.929 . S
H811 C821 0.929 . S
H812 C816 0.929 . S
H813 C822 0.929 . S
C814 H808 0.930 . S
C814 C815 1.367 . S
C814 C822 1.378 . S
C815 C814 1.367 . S
C815 C823 1.433 . S
C816 H812 0.929 . S
C816 C818 1.378 . S
C816 C820 1.350 . S
C817 C820 1.463 . S
C817 C822 1.350 . S
C817 N825 1.427 . S
C818 H809 0.930 . S
C818 C816 1.378 . S
C818 C819 1.367 . S
C819 C818 1.367 . S
C819 C821 1.433 . S
C820 C816 1.350 . S
C820 C817 1.463 . S
C820 N824 1.427 . S
C821 H811 0.929 . S
C821 C819 1.433 . S
C821 N824 1.384 . S
C822 H813 0.929 . S
C822 C814 1.378 . S
C822 C817 1.350 . S
C823 H810 0.929 . S
C823 C815 1.433 . S
C823 N825 1.384 . S
N824 C820 1.427 . S
N824 C821 1.384 . S
N825 C817 1.427 . S
N825 C823 1.384 . S
H826 C832 0.930 . S
H827 C836 0.930 . S
H828 C841 0.929 . S
H829 C839 0.929 . S
H830 C834 0.929 . S
H831 C840 0.929 . S
C832 H826 0.930 . S
C832 C833 1.367 . S
C832 C840 1.378 . S
C833 C832 1.367 . S
C833 C841 1.433 . S
C834 H830 0.929 . S
C834 C836 1.378 1_545 S
C834 C838 1.350 . S
C835 C838 1.463 . S
C835 C840 1.350 . S
C835 N843 1.427 . S
C836 H827 0.930 . S
C836 C834 1.378 1_565 S
C836 C837 1.367 . S
C837 C836 1.367 . S
C837 C839 1.433 . S
C838 C834 1.350 . S
C838 C835 1.463 . S
C838 N842 1.427 . S
C839 H829 0.929 . S
C839 C837 1.433 . S
C839 N842 1.384 1_565 S
C840 H831 0.929 . S
C840 C832 1.378 . S
C840 C835 1.350 . S
C841 H828 0.929 . S
C841 C833 1.433 . S
C841 N843 1.384 . S
N842 C838 1.427 . S
N842 C839 1.384 1_545 S
N843 C835 1.427 . S
N843 C841 1.384 . S
H844 C850 0.930 . S
H845 C854 0.930 . S
H846 C859 0.929 . S
H847 C857 0.929 . S
H848 C852 0.929 . S
H849 C858 0.929 . S
C850 H844 0.930 . S
C850 C851 1.367 . S
C850 C858 1.378 . S
C851 C850 1.367 . S
C851 C859 1.433 . S
C852 H848 0.929 . S
C852 C854 1.378 . S
C852 C856 1.350 . S
C853 C856 1.463 . S
C853 C858 1.350 . S
C853 N861 1.427 . S
C854 H845 0.930 . S
C854 C852 1.378 . S
C854 C855 1.367 . S
C855 C854 1.367 . S
C855 C857 1.433 . S
C856 C852 1.350 . S
C856 C853 1.463 . S
C856 N860 1.427 . S
C857 H847 0.929 . S
C857 C855 1.433 . S
C857 N860 1.384 . S
C858 H849 0.929 . S
C858 C850 1.378 . S
C858 C853 1.350 . S
C859 H846 0.929 . S
C859 C851 1.433 . S
C859 N861 1.384 . S
N860 C856 1.427 . S
N860 C857 1.384 . S
N861 C853 1.427 . S
N861 C859 1.384 . S
H862 C868 0.930 . S
H863 C872 0.930 . S
H864 C877 0.929 1_554 S
H865 C875 0.929 . S
H866 C870 0.929 . S
H867 C876 0.929 . S
C868 H862 0.930 . S
C868 C869 1.367 . S
C868 C876 1.378 . S
C869 C868 1.367 . S
C869 C877 1.433 . S
C870 H866 0.929 . S
C870 C872 1.378 . S
C870 C874 1.350 . S
C871 C874 1.463 1_565 S
C871 C876 1.350 . S
C871 N879 1.427 . S
C872 H863 0.930 . S
C872 C870 1.378 . S
C872 C873 1.367 . S
C873 C872 1.367 . S
C873 C875 1.433 . S
C874 C870 1.350 . S
C874 C871 1.463 1_545 S
C874 N878 1.427 . S
C875 H865 0.929 . S
C875 C873 1.433 . S
C875 N878 1.384 . S
C876 H867 0.929 . S
C876 C868 1.378 . S
C876 C871 1.350 . S
C877 H864 0.929 1_556 S
C877 C869 1.433 . S
C877 N879 1.384 . S
N878 C874 1.427 . S
N878 C875 1.384 . S
N879 C871 1.427 . S
N879 C877 1.384 . S
H880 C886 0.930 1_545 S
H881 C890 0.930 . S
H882 C895 0.929 . S
H883 C893 0.929 . S
H884 C888 0.929 . S
H885 C894 0.929 . S
C886 H880 0.930 1_565 S
C886 C887 1.367 . S
C886 C894 1.378 . S
C887 C886 1.367 . S
C887 C895 1.433 . S
C888 H884 0.929 . S
C888 C890 1.378 . S
C888 C892 1.350 . S
C889 C892 1.463 . S
C889 C894 1.350 . S
C889 N897 1.427 . S
C890 H881 0.930 . S
C890 C888 1.378 . S
C890 C891 1.367 . S
C891 C890 1.367 . S
C891 C893 1.433 . S
C892 C888 1.350 . S
C892 C889 1.463 . S
C892 N896 1.427 . S
C893 H883 0.929 . S
C893 C891 1.433 . S
C893 N896 1.384 . S
C894 H885 0.929 . S
C894 C886 1.378 . S
C894 C889 1.350 . S
C895 H882 0.929 . S
C895 C887 1.433 . S
C895 N897 1.384 . S
N896 C892 1.427 . S
N896 C893 1.384 . S
N897 C889 1.427 . S
N897 C895 1.384 . S
H898 C904 0.930 . S
H899 C908 0.930 . S
H900 C913 0.929 . S
H901 C911 0.929 . S
H902 C906 0.929 . S
H903 C912 0.929 . S
C904 H898 0.930 . S
C904 C905 1.367 . S
C904 C912 1.378 . S
C905 C904 1.367 . S
C905 C913 1.433 . S
C906 H902 0.929 . S
C906 C908 1.378 . S
C906 C910 1.350 1_565 S
C907 C910 1.463 . S
C907 C912 1.350 . S
C907 N915 1.427 . S
C908 H899 0.930 . S
C908 C906 1.378 . S
C908 C909 1.367 . S
C909 C908 1.367 . S
C909 C911 1.433 . S
C910 C906 1.350 1_545 S
C910 C907 1.463 . S
C910 N914 1.427 1_545 S
C911 H901 0.929 . S
C911 C909 1.433 . S
C911 N914 1.384 . S
C912 H903 0.929 . S
C912 C904 1.378 . S
C912 C907 1.350 . S
C913 H900 0.929 . S
C913 C905 1.433 . S
C913 N915 1.384 . S
N914 C910 1.427 1_565 S
N914 C911 1.384 . S
N915 C907 1.427 . S
N915 C913 1.384 . S
H916 C922 0.930 . S
H917 C926 0.930 . S
H918 C931 0.929 . S
H919 C929 0.929 . S
H920 C924 0.929 . S
H921 C930 0.929 . S
C922 H916 0.930 . S
C922 C923 1.367 . S
C922 C930 1.378 . S
C923 C922 1.367 . S
C923 C931 1.433 . S
C924 H920 0.929 . S
C924 C926 1.378 . S
C924 C928 1.350 . S
C925 C928 1.463 . S
C925 C930 1.350 . S
C925 N933 1.427 . S
C926 H917 0.930 . S
C926 C924 1.378 . S
C926 C927 1.367 . S
C927 C926 1.367 . S
C927 C929 1.433 . S
C928 C924 1.350 . S
C928 C925 1.463 . S
C928 N932 1.427 . S
C929 H919 0.929 . S
C929 C927 1.433 . S
C929 N932 1.384 . S
C930 H921 0.929 . S
C930 C922 1.378 . S
C930 C925 1.350 . S
C931 H918 0.929 . S
C931 C923 1.433 . S
C931 N933 1.384 . S
N932 C928 1.427 . S
N932 C929 1.384 . S
N933 C925 1.427 . S
N933 C931 1.384 . S
H934 C940 0.930 . S
H935 C944 0.930 . S
H936 C949 0.929 . S
H937 C947 0.929 . S
H938 C942 0.929 . S
H939 C948 0.929 . S
C940 H934 0.930 . S
C940 C941 1.367 . S
C940 C948 1.378 . S
C941 C940 1.367 . S
C941 C949 1.433 . S
C942 H938 0.929 . S
C942 C944 1.378 . S
C942 C946 1.350 . S
C943 C946 1.463 1_565 S
C943 C948 1.350 . S
C943 N951 1.427 . S
C944 H935 0.930 . S
C944 C942 1.378 . S
C944 C945 1.367 . S
C945 C944 1.367 . S
C945 C947 1.433 . S
C946 C942 1.350 . S
C946 C943 1.463 1_545 S
C946 N950 1.427 . S
C947 H937 0.929 . S
C947 C945 1.433 . S
C947 N950 1.384 . S
C948 H939 0.929 . S
C948 C940 1.378 . S
C948 C943 1.350 . S
C949 H936 0.929 . S
C949 C941 1.433 . S
C949 N951 1.384 . S
N950 C946 1.427 . S
N950 C947 1.384 . S
N951 C943 1.427 . S
N951 C949 1.384 . S
H952 C958 0.930 . S
H953 C962 0.930 . S
H954 C967 0.929 . S
H955 C965 0.929 . S
H956 C960 0.929 . S
H957 C966 0.929 . S
C958 H952 0.930 . S
C958 C959 1.367 . S
C958 C966 1.378 . S
C959 C958 1.367 . S
C959 C967 1.433 . S
C960 H956 0.929 . S
C960 C962 1.378 . S
C960 C964 1.350 . S
C961 C964 1.463 . S
C961 C966 1.350 . S
C961 N969 1.427 . S
C962 H953 0.930 . S
C962 C960 1.378 . S
C962 C963 1.367 . S
C963 C962 1.367 . S
C963 C965 1.433 . S
C964 C960 1.350 . S
C964 C961 1.463 . S
C964 N968 1.427 . S
C965 H955 0.929 . S
C965 C963 1.433 . S
C965 N968 1.384 . S
C966 H957 0.929 . S
C966 C958 1.378 . S
C966 C961 1.350 . S
C967 H954 0.929 . S
C967 C959 1.433 . S
C967 N969 1.384 . S
N968 C964 1.427 . S
N968 C965 1.384 . S
N969 C961 1.427 . S
N969 C967 1.384 . S
H970 C976 0.930 . S
H971 C980 0.930 . S
H972 C985 0.929 . S
H973 C983 0.929 . S
H974 C978 0.929 . S
H975 C984 0.929 . S
C976 H970 0.930 . S
C976 C977 1.367 . S
C976 C984 1.378 . S
C977 C976 1.367 . S
C977 C985 1.433 . S
C978 H974 0.929 . S
C978 C980 1.378 . S
C978 C982 1.350 . S
C979 C982 1.463 . S
C979 C984 1.350 . S
C979 N987 1.427 . S
C980 H971 0.930 . S
C980 C978 1.378 . S
C980 C981 1.367 . S
C981 C980 1.367 . S
C981 C983 1.433 . S
C982 C978 1.350 . S
C982 C979 1.463 . S
C982 N986 1.427 . S
C983 H973 0.929 . S
C983 C981 1.433 . S
C983 N986 1.384 . S
C984 H975 0.929 . S
C984 C976 1.378 . S
C984 C979 1.350 . S
C985 H972 0.929 . S
C985 C977 1.433 . S
C985 N987 1.384 . S
N986 C982 1.427 . S
N986 C983 1.384 . S
N987 C979 1.427 . S
N987 C985 1.384 . S
H988 C994 0.930 . S
H989 C998 0.928 1_455 S
H990 C1003 0.929 . S
H991 C1001 0.929 . S
H992 C996 0.929 . S
H993 C1002 0.929 . S
C994 H988 0.930 . S
C994 C995 1.367 . S
C994 C1002 1.378 . S
C995 C994 1.367 . S
C995 C1003 1.433 . S
C996 H992 0.929 . S
C996 C998 1.362 1_455 S
C996 C1000 1.350 . S
C997 C1000 1.463 . S
C997 C1002 1.350 . S
C997 N1005 1.427 . S
C998 H989 0.928 1_655 S
C998 C996 1.362 1_655 S
C998 C999 1.385 . S
C999 C998 1.385 . S
C999 C1001 1.433 . S
C1000 C996 1.350 . S
C1000 C997 1.463 . S
C1000 N1004 1.427 1_455 S
C1001 H991 0.929 . S
C1001 C999 1.433 . S
C1001 N1004 1.384 . S
C1002 H993 0.929 . S
C1002 C994 1.378 . S
C1002 C997 1.350 . S
C1003 H990 0.929 . S
C1003 C995 1.433 . S
C1003 N1005 1.384 . S
N1004 C1000 1.427 1_655 S
N1004 C1001 1.384 . S
N1005 C997 1.427 . S
N1005 C1003 1.384 . S
H1006 C1012 0.930 . S
H1007 C1016 0.930 . S
H1008 C1021 0.929 . S
H1009 C1019 0.929 . S
H1010 C1014 0.929 . S
H1011 C1020 0.929 . S
C1012 H1006 0.930 . S
C1012 C1013 1.367 . S
C1012 C1020 1.378 . S
C1013 C1012 1.367 . S
C1013 C1021 1.433 . S
C1014 H1010 0.929 . S
C1014 C1016 1.378 . S
C1014 C1018 1.350 . S
C1015 C1018 1.463 . S
C1015 C1020 1.350 . S
C1015 N1023 1.427 . S
C1016 H1007 0.930 . S
C1016 C1014 1.378 . S
C1016 C1017 1.367 . S
C1017 C1016 1.367 . S
C1017 C1019 1.433 . S
C1018 C1014 1.350 . S
C1018 C1015 1.463 . S
C1018 N1022 1.427 . S
C1019 H1009 0.929 . S
C1019 C1017 1.433 . S
C1019 N1022 1.384 . S
C1020 H1011 0.929 . S
C1020 C1012 1.378 . S
C1020 C1015 1.350 . S
C1021 H1008 0.929 . S
C1021 C1013 1.433 . S
C1021 N1023 1.384 . S
N1022 C1018 1.427 . S
N1022 C1019 1.384 . S
N1023 C1015 1.427 . S
N1023 C1021 1.384 . S
H1024 C1030 0.930 . S
H1025 C1034 0.930 . S
H1026 C1039 0.929 . S
H1027 C1037 0.929 . S
H1028 C1032 0.929 . S
H1029 C1038 0.929 . S
C1030 H1024 0.930 . S
C1030 C1031 1.367 . S
C1030 C1038 1.378 . S
C1031 C1030 1.367 . S
C1031 C1039 1.433 . S
C1032 H1028 0.929 . S
C1032 C1034 1.378 . S
C1032 C1036 1.350 . S
C1033 C1036 1.463 1_655 S
C1033 C1038 1.350 . S
C1033 N1041 1.427 . S
C1034 H1025 0.930 . S
C1034 C1032 1.378 . S
C1034 C1035 1.367 . S
C1035 C1034 1.367 . S
C1035 C1037 1.433 . S
C1036 C1032 1.350 . S
C1036 C1033 1.463 1_455 S
C1036 N1040 1.427 . S
C1037 H1027 0.929 . S
C1037 C1035 1.433 . S
C1037 N1040 1.384 . S
C1038 H1029 0.929 . S
C1038 C1030 1.378 . S
C1038 C1033 1.350 . S
C1039 H1026 0.929 . S
C1039 C1031 1.433 . S
C1039 N1041 1.384 . S
N1040 C1036 1.427 . S
N1040 C1037 1.384 . S
N1041 C1033 1.427 . S
N1041 C1039 1.384 . S
H1042 C1048 0.930 . S
H1043 C1052 0.930 . S
H1044 C1057 0.929 . S
H1045 C1055 0.929 . S
H1046 C1050 0.929 . S
H1047 C1056 0.929 . S
C1048 H1042 0.930 . S
C1048 C1049 1.367 . S
C1048 C1056 1.378 . S
C1049 C1048 1.367 . S
C1049 C1057 1.433 . S
C1050 H1046 0.929 . S
C1050 C1052 1.378 . S
C1050 C1054 1.350 . S
C1051 C1054 1.463 . S
C1051 C1056 1.350 . S
C1051 N1059 1.427 . S
C1052 H1043 0.930 . S
C1052 C1050 1.378 . S
C1052 C1053 1.367 . S
C1053 C1052 1.367 . S
C1053 C1055 1.433 . S
C1054 C1050 1.350 . S
C1054 C1051 1.463 . S
C1054 N1058 1.427 . S
C1055 H1045 0.929 . S
C1055 C1053 1.433 . S
C1055 N1058 1.384 . S
C1056 H1047 0.929 . S
C1056 C1048 1.378 . S
C1056 C1051 1.350 . S
C1057 H1044 0.929 . S
C1057 C1049 1.433 . S
C1057 N1059 1.384 . S
N1058 C1054 1.427 . S
N1058 C1055 1.384 . S
N1059 C1051 1.427 . S
N1059 C1057 1.384 . S
H1060 C1066 0.930 . S
H1061 C1070 0.930 . S
H1062 C1075 0.929 . S
H1063 C1073 0.929 . S
H1064 C1068 0.929 1_455 S
H1065 C1074 0.929 . S
C1066 H1060 0.930 . S
C1066 C1067 1.367 . S
C1066 C1074 1.378 . S
C1067 C1066 1.367 . S
C1067 C1075 1.433 . S
C1068 H1064 0.929 1_655 S
C1068 C1070 1.378 . S
C1068 C1072 1.350 1_655 S
C1069 C1072 1.463 . S
C1069 C1074 1.350 . S
C1069 N1077 1.427 . S
C1070 H1061 0.930 . S
C1070 C1068 1.378 . S
C1070 C1071 1.367 . S
C1071 C1070 1.367 . S
C1071 C1073 1.433 . S
C1072 C1068 1.350 1_455 S
C1072 C1069 1.463 . S
C1072 N1076 1.427 1_455 S
C1073 H1063 0.929 . S
C1073 C1071 1.433 . S
C1073 N1076 1.384 . S
C1074 H1065 0.929 . S
C1074 C1066 1.378 . S
C1074 C1069 1.350 . S
C1075 H1062 0.929 . S
C1075 C1067 1.433 . S
C1075 N1077 1.384 . S
N1076 C1072 1.427 1_655 S
N1076 C1073 1.384 . S
N1077 C1069 1.427 . S
N1077 C1075 1.384 . S
H1078 C1084 0.930 . S
H1079 C1088 0.930 . S
H1080 C1093 0.929 . S
H1081 C1091 0.929 . S
H1082 C1086 0.929 . S
H1083 C1092 0.929 . S
C1084 H1078 0.930 . S
C1084 C1085 1.367 . S
C1084 C1092 1.378 . S
C1085 C1084 1.367 . S
C1085 C1093 1.433 . S
C1086 H1082 0.929 . S
C1086 C1088 1.378 . S
C1086 C1090 1.350 . S
C1087 C1090 1.463 . S
C1087 C1092 1.350 . S
C1087 N1095 1.427 . S
C1088 H1079 0.930 . S
C1088 C1086 1.378 . S
C1088 C1089 1.367 . S
C1089 C1088 1.367 . S
C1089 C1091 1.433 . S
C1090 C1086 1.350 . S
C1090 C1087 1.463 . S
C1090 N1094 1.427 . S
C1091 H1081 0.929 . S
C1091 C1089 1.433 . S
C1091 N1094 1.384 . S
C1092 H1083 0.929 . S
C1092 C1084 1.378 . S
C1092 C1087 1.350 . S
C1093 H1080 0.929 . S
C1093 C1085 1.433 . S
C1093 N1095 1.384 . S
N1094 C1090 1.427 . S
N1094 C1091 1.384 . S
N1095 C1087 1.427 . S
N1095 C1093 1.384 . S
H1096 C1102 0.930 . S
H1097 C1106 0.930 . S
H1098 C1111 0.929 . S
H1099 C1109 0.929 . S
H1100 C1104 0.929 . S
H1101 C1110 0.929 . S
C1102 H1096 0.930 . S
C1102 C1103 1.367 . S
C1102 C1110 1.378 . S
C1103 C1102 1.367 . S
C1103 C1111 1.433 . S
C1104 H1100 0.929 . S
C1104 C1106 1.378 . S
C1104 C1108 1.350 . S
C1105 C1108 1.463 . S
C1105 C1110 1.350 . S
C1105 N1113 1.427 . S
C1106 H1097 0.930 . S
C1106 C1104 1.378 . S
C1106 C1107 1.367 . S
C1107 C1106 1.367 . S
C1107 C1109 1.433 . S
C1108 C1104 1.350 . S
C1108 C1105 1.463 . S
C1108 N1112 1.427 . S
C1109 H1099 0.929 . S
C1109 C1107 1.433 . S
C1109 N1112 1.384 . S
C1110 H1101 0.929 . S
C1110 C1102 1.378 . S
C1110 C1105 1.350 . S
C1111 H1098 0.929 . S
C1111 C1103 1.433 . S
C1111 N1113 1.384 . S
N1112 C1108 1.427 . S
N1112 C1109 1.384 . S
N1113 C1105 1.427 . S
N1113 C1111 1.384 . S
H1114 C1120 0.930 . S
H1115 C1124 0.930 . S
H1116 C1129 0.929 . S
H1117 C1127 0.929 . S
H1118 C1122 0.929 . S
H1119 C1128 0.929 . S
C1120 H1114 0.930 . S
C1120 C1121 1.367 . S
C1120 C1128 1.378 . S
C1121 C1120 1.367 . S
C1121 C1129 1.433 . S
C1122 H1118 0.929 . S
C1122 C1124 1.378 . S
C1122 C1126 1.350 . S
C1123 C1126 1.463 . S
C1123 C1128 1.350 . S
C1123 N1131 1.427 . S
C1124 H1115 0.930 . S
C1124 C1122 1.378 . S
C1124 C1125 1.367 . S
C1125 C1124 1.367 . S
C1125 C1127 1.433 . S
C1126 C1122 1.350 . S
C1126 C1123 1.463 . S
C1126 N1130 1.427 . S
C1127 H1117 0.929 . S
C1127 C1125 1.433 . S
C1127 N1130 1.384 . S
C1128 H1119 0.929 . S
C1128 C1120 1.378 . S
C1128 C1123 1.350 . S
C1129 H1116 0.929 . S
C1129 C1121 1.433 . S
C1129 N1131 1.384 . S
N1130 C1126 1.427 . S
N1130 C1127 1.384 . S
N1131 C1123 1.427 . S
N1131 C1129 1.384 . S
H1132 C1138 0.930 . S
H1133 C1142 0.930 . S
H1134 C1147 0.929 . S
H1135 C1145 0.929 . S
H1136 C1140 0.929 . S
H1137 C1146 0.929 . S
C1138 H1132 0.930 . S
C1138 C1139 1.367 . S
C1138 C1146 1.378 . S
C1139 C1138 1.367 . S
C1139 C1147 1.433 . S
C1140 H1136 0.929 . S
C1140 C1142 1.378 . S
C1140 C1144 1.350 . S
C1141 C1144 1.463 . S
C1141 C1146 1.350 . S
C1141 N1149 1.427 . S
C1142 H1133 0.930 . S
C1142 C1140 1.378 . S
C1142 C1143 1.367 . S
C1143 C1142 1.367 . S
C1143 C1145 1.433 . S
C1144 C1140 1.350 . S
C1144 C1141 1.463 . S
C1144 N1148 1.427 . S
C1145 H1135 0.929 . S
C1145 C1143 1.433 . S
C1145 N1148 1.384 . S
C1146 H1137 0.929 . S
C1146 C1138 1.378 . S
C1146 C1141 1.350 . S
C1147 H1134 0.929 . S
C1147 C1139 1.433 . S
C1147 N1149 1.384 . S
N1148 C1144 1.427 . S
N1148 C1145 1.384 . S
N1149 C1141 1.427 . S
N1149 C1147 1.384 . S
H1150 C1156 0.930 . S
H1151 C1160 0.930 . S
H1152 C1165 0.929 . S
H1153 C1163 0.929 . S
H1154 C1158 0.929 . S
H1155 C1164 0.929 . S
C1156 H1150 0.930 . S
C1156 C1157 1.367 . S
C1156 C1164 1.378 . S
C1157 C1156 1.367 . S
C1157 C1165 1.433 . S
C1158 H1154 0.929 . S
C1158 C1160 1.378 . S
C1158 C1162 1.350 . S
C1159 C1162 1.463 1_556 S
C1159 C1164 1.350 . S
C1159 N1167 1.427 . S
C1160 H1151 0.930 . S
C1160 C1158 1.378 . S
C1160 C1161 1.367 . S
C1161 C1160 1.367 . S
C1161 C1163 1.433 . S
C1162 C1158 1.350 . S
C1162 C1159 1.463 1_554 S
C1162 N1166 1.427 . S
C1163 H1153 0.929 . S
C1163 C1161 1.433 . S
C1163 N1166 1.384 . S
C1164 H1155 0.929 . S
C1164 C1156 1.378 . S
C1164 C1159 1.350 . S
C1165 H1152 0.929 . S
C1165 C1157 1.433 . S
C1165 N1167 1.384 . S
N1166 C1162 1.427 . S
N1166 C1163 1.384 . S
N1167 C1159 1.427 . S
N1167 C1165 1.384 . S
H1168 C1174 0.930 . S
H1169 C1178 0.930 . S
H1170 C1183 0.929 . S
H1171 C1181 0.929 . S
H1172 C1176 0.929 . S
H1173 C1182 0.929 . S
C1174 H1168 0.930 . S
C1174 C1175 1.367 . S
C1174 C1182 1.378 . S
C1175 C1174 1.367 . S
C1175 C1183 1.433 . S
C1176 H1172 0.929 . S
C1176 C1178 1.378 . S
C1176 C1180 1.350 . S
C1177 C1180 1.463 . S
C1177 C1182 1.350 . S
C1177 N1185 1.427 . S
C1178 H1169 0.930 . S
C1178 C1176 1.378 . S
C1178 C1179 1.367 . S
C1179 C1178 1.367 . S
C1179 C1181 1.433 . S
C1180 C1176 1.350 . S
C1180 C1177 1.463 . S
C1180 N1184 1.427 . S
C1181 H1171 0.929 . S
C1181 C1179 1.433 . S
C1181 N1184 1.384 . S
C1182 H1173 0.929 . S
C1182 C1174 1.378 . S
C1182 C1177 1.350 . S
C1183 H1170 0.929 . S
C1183 C1175 1.433 . S
C1183 N1185 1.384 . S
N1184 C1180 1.427 . S
N1184 C1181 1.384 . S
N1185 C1177 1.427 . S
N1185 C1183 1.384 . S
H1186 C1192 0.930 . S
H1187 C1196 0.930 . S
H1188 C1201 0.929 . S
H1189 C1199 0.929 . S
H1190 C1194 0.929 . S
H1191 C1200 0.929 . S
C1192 H1186 0.930 . S
C1192 C1193 1.367 . S
C1192 C1200 1.378 . S
C1193 C1192 1.367 . S
C1193 C1201 1.433 . S
C1194 H1190 0.929 . S
C1194 C1196 1.378 . S
C1194 C1198 1.350 . S
C1195 C1198 1.463 . S
C1195 C1200 1.350 . S
C1195 N1203 1.427 . S
C1196 H1187 0.930 . S
C1196 C1194 1.378 . S
C1196 C1197 1.367 . S
C1197 C1196 1.367 . S
C1197 C1199 1.433 . S
C1198 C1194 1.350 . S
C1198 C1195 1.463 . S
C1198 N1202 1.427 . S
C1199 H1189 0.929 . S
C1199 C1197 1.433 . S
C1199 N1202 1.384 . S
C1200 H1191 0.929 . S
C1200 C1192 1.378 . S
C1200 C1195 1.350 . S
C1201 H1188 0.929 . S
C1201 C1193 1.433 . S
C1201 N1203 1.384 . S
N1202 C1198 1.427 . S
N1202 C1199 1.384 . S
N1203 C1195 1.427 . S
N1203 C1201 1.384 . S
H1204 C1210 0.930 . S
H1205 C1214 0.930 . S
H1206 C1219 0.929 . S
H1207 C1217 0.929 . S
H1208 C1212 0.929 . S
H1209 C1218 0.929 . S
C1210 H1204 0.930 . S
C1210 C1211 1.367 . S
C1210 C1218 1.378 . S
C1211 C1210 1.367 . S
C1211 C1219 1.433 . S
C1212 H1208 0.929 . S
C1212 C1214 1.378 . S
C1212 C1216 1.350 . S
C1213 C1216 1.463 . S
C1213 C1218 1.350 . S
C1213 N1221 1.427 . S
C1214 H1205 0.930 . S
C1214 C1212 1.378 . S
C1214 C1215 1.367 . S
C1215 C1214 1.367 . S
C1215 C1217 1.433 . S
C1216 C1212 1.350 . S
C1216 C1213 1.463 . S
C1216 N1220 1.427 . S
C1217 H1207 0.929 . S
C1217 C1215 1.433 . S
C1217 N1220 1.384 . S
C1218 H1209 0.929 . S
C1218 C1210 1.378 . S
C1218 C1213 1.350 . S
C1219 H1206 0.929 . S
C1219 C1211 1.433 . S
C1219 N1221 1.384 . S
N1220 C1216 1.427 . S
N1220 C1217 1.384 . S
N1221 C1213 1.427 . S
N1221 C1219 1.384 . S
H1222 C1228 0.930 . S
H1223 C1232 0.930 . S
H1224 C1237 0.929 . S
H1225 C1235 0.929 . S
H1226 C1230 0.929 . S
H1227 C1236 0.929 . S
C1228 H1222 0.930 . S
C1228 C1229 1.367 . S
C1228 C1236 1.378 . S
C1229 C1228 1.367 . S
C1229 C1237 1.433 . S
C1230 H1226 0.929 . S
C1230 C1232 1.378 1_554 S
C1230 C1234 1.350 . S
C1231 C1234 1.463 . S
C1231 C1236 1.350 . S
C1231 N1239 1.427 . S
C1232 H1223 0.930 . S
C1232 C1230 1.378 1_556 S
C1232 C1233 1.367 . S
C1233 C1232 1.367 . S
C1233 C1235 1.433 . S
C1234 C1230 1.350 . S
C1234 C1231 1.463 . S
C1234 N1238 1.427 1_554 S
C1235 H1225 0.929 . S
C1235 C1233 1.433 . S
C1235 N1238 1.384 . S
C1236 H1227 0.929 . S
C1236 C1228 1.378 . S
C1236 C1231 1.350 . S
C1237 H1224 0.929 . S
C1237 C1229 1.433 . S
C1237 N1239 1.384 . S
N1238 C1234 1.427 1_556 S
N1238 C1235 1.384 . S
N1239 C1231 1.427 . S
N1239 C1237 1.384 . S
H1240 C1246 0.930 . S
H1241 C1250 0.930 . S
H1242 C1255 0.929 . S
H1243 C1253 0.929 . S
H1244 C1248 0.929 . S
H1245 C1254 0.929 . S
C1246 H1240 0.930 . S
C1246 C1247 1.367 . S
C1246 C1254 1.378 . S
C1247 C1246 1.367 . S
C1247 C1255 1.433 . S
C1248 H1244 0.929 . S
C1248 C1250 1.378 . S
C1248 C1252 1.350 . S
C1249 C1252 1.463 . S
C1249 C1254 1.350 . S
C1249 N1257 1.427 . S
C1250 H1241 0.930 . S
C1250 C1248 1.378 . S
C1250 C1251 1.367 . S
C1251 C1250 1.367 . S
C1251 C1253 1.433 . S
C1252 C1248 1.350 . S
C1252 C1249 1.463 . S
C1252 N1256 1.427 . S
C1253 H1243 0.929 . S
C1253 C1251 1.433 . S
C1253 N1256 1.384 . S
C1254 H1245 0.929 . S
C1254 C1246 1.378 . S
C1254 C1249 1.350 . S
C1255 H1242 0.929 . S
C1255 C1247 1.433 . S
C1255 N1257 1.384 . S
N1256 C1252 1.427 . S
N1256 C1253 1.384 . S
N1257 C1249 1.427 . S
N1257 C1255 1.384 . S
H1258 C1264 0.930 . S
H1259 C1268 0.930 . S
H1260 C1273 0.929 . S
H1261 C1271 0.929 . S
H1262 C1266 0.929 . S
H1263 C1272 0.929 . S
C1264 H1258 0.930 . S
C1264 C1265 1.367 . S
C1264 C1272 1.378 . S
C1265 C1264 1.367 . S
C1265 C1273 1.433 . S
C1266 H1262 0.929 . S
C1266 C1268 1.378 1_565 S
C1266 C1270 1.348 1_565 S
C1267 C1270 1.453 1_565 S
C1267 C1272 1.350 . S
C1267 N1275 1.427 . S
C1268 H1259 0.930 . S
C1268 C1266 1.378 1_545 S
C1268 C1269 1.367 . S
C1269 C1268 1.367 . S
C1269 C1271 1.433 . S
C1270 C1266 1.348 1_545 S
C1270 C1267 1.453 1_545 S
C1270 N1274 1.438 . S
C1271 H1261 0.929 . S
C1271 C1269 1.433 . S
C1271 N1274 1.384 . S
C1272 H1263 0.929 . S
C1272 C1264 1.378 . S
C1272 C1267 1.350 . S
C1273 H1260 0.929 . S
C1273 C1265 1.433 . S
C1273 N1275 1.384 . S
N1274 C1270 1.438 . S
N1274 C1271 1.384 . S
N1275 C1267 1.427 . S
N1275 C1273 1.384 . S
H1276 C1282 0.930 . S
H1277 C1286 0.930 . S
H1278 C1291 0.929 . S
H1279 C1289 0.929 . S
H1280 C1284 0.929 . S
H1281 C1290 0.929 . S
C1282 H1276 0.930 . S
C1282 C1283 1.367 . S
C1282 C1290 1.378 . S
C1283 C1282 1.367 . S
C1283 C1291 1.433 . S
C1284 H1280 0.929 . S
C1284 C1286 1.378 . S
C1284 C1288 1.350 . S
C1285 C1288 1.463 . S
C1285 C1290 1.350 . S
C1285 N1293 1.427 . S
C1286 H1277 0.930 . S
C1286 C1284 1.378 . S
C1286 C1287 1.367 . S
C1287 C1286 1.367 . S
C1287 C1289 1.433 . S
C1288 C1284 1.350 . S
C1288 C1285 1.463 . S
C1288 N1292 1.427 . S
C1289 H1279 0.929 . S
C1289 C1287 1.433 . S
C1289 N1292 1.384 . S
C1290 H1281 0.929 . S
C1290 C1282 1.378 . S
C1290 C1285 1.350 . S
C1291 H1278 0.929 . S
C1291 C1283 1.433 . S
C1291 N1293 1.384 . S
N1292 C1288 1.427 . S
N1292 C1289 1.384 . S
N1293 C1285 1.427 . S
N1293 C1291 1.384 . S
H1294 C1300 0.930 . S
H1295 C1304 0.930 . S
H1296 C1309 0.929 . S
H1297 C1307 0.929 . S
H1298 C1302 0.929 . S
H1299 C1308 0.929 . S
C1300 H1294 0.930 . S
C1300 C1301 1.367 . S
C1300 C1308 1.378 . S
C1301 C1300 1.367 . S
C1301 C1309 1.433 . S
C1302 H1298 0.929 . S
C1302 C1304 1.378 1_545 S
C1302 C1306 1.350 . S
C1303 C1306 1.463 . S
C1303 C1308 1.350 . S
C1303 N1311 1.427 . S
C1304 H1295 0.930 . S
C1304 C1302 1.378 1_565 S
C1304 C1305 1.367 . S
C1305 C1304 1.367 . S
C1305 C1307 1.433 . S
C1306 C1302 1.350 . S
C1306 C1303 1.463 . S
C1306 N1310 1.427 1_545 S
C1307 H1297 0.929 . S
C1307 C1305 1.433 . S
C1307 N1310 1.384 . S
C1308 H1299 0.929 . S
C1308 C1300 1.378 . S
C1308 C1303 1.350 . S
C1309 H1296 0.929 . S
C1309 C1301 1.433 . S
C1309 N1311 1.384 . S
N1310 C1306 1.427 1_565 S
N1310 C1307 1.384 . S
N1311 C1303 1.427 . S
N1311 C1309 1.384 . S
H1312 C1318 0.930 . S
H1313 C1322 0.930 . S
H1314 C1327 0.929 . S
H1315 C1325 0.929 . S
H1316 C1320 0.929 . S
H1317 C1326 0.929 . S
C1318 H1312 0.930 . S
C1318 C1319 1.367 . S
C1318 C1326 1.378 . S
C1319 C1318 1.367 . S
C1319 C1327 1.433 . S
C1320 H1316 0.929 . S
C1320 C1322 1.378 . S
C1320 C1324 1.350 . S
C1321 C1324 1.463 . S
C1321 C1326 1.350 . S
C1321 N1329 1.427 . S
C1322 H1313 0.930 . S
C1322 C1320 1.378 . S
C1322 C1323 1.367 . S
C1323 C1322 1.367 . S
C1323 C1325 1.433 . S
C1324 C1320 1.350 . S
C1324 C1321 1.463 . S
C1324 N1328 1.427 . S
C1325 H1315 0.929 . S
C1325 C1323 1.433 . S
C1325 N1328 1.384 . S
C1326 H1317 0.929 . S
C1326 C1318 1.378 . S
C1326 C1321 1.350 . S
C1327 H1314 0.929 . S
C1327 C1319 1.433 . S
C1327 N1329 1.384 . S
N1328 C1324 1.427 . S
N1328 C1325 1.384 . S
N1329 C1321 1.427 . S
N1329 C1327 1.384 . S
H1330 C1336 0.930 . S
H1331 C1340 0.930 . S
H1332 C1345 0.929 . S
H1333 C1343 0.929 . S
H1334 C1338 0.929 1_565 S
H1335 C1344 0.929 1_545 S
C1336 H1330 0.930 . S
C1336 C1337 1.367 . S
C1336 C1344 1.378 . S
C1337 C1336 1.367 . S
C1337 C1345 1.433 . S
C1338 H1334 0.929 1_545 S
C1338 C1340 1.378 . S
C1338 C1342 1.350 . S
C1339 C1342 1.463 1_565 S
C1339 C1344 1.350 . S
C1339 N1347 1.427 . S
C1340 H1331 0.930 . S
C1340 C1338 1.378 . S
C1340 C1341 1.367 . S
C1341 C1340 1.367 . S
C1341 C1343 1.433 . S
C1342 C1338 1.350 . S
C1342 C1339 1.463 1_545 S
C1342 N1346 1.427 . S
C1343 H1333 0.929 . S
C1343 C1341 1.433 . S
C1343 N1346 1.384 . S
C1344 H1335 0.929 1_565 S
C1344 C1336 1.378 . S
C1344 C1339 1.350 . S
C1345 H1332 0.929 . S
C1345 C1337 1.433 . S
C1345 N1347 1.384 . S
N1346 C1342 1.427 . S
N1346 C1343 1.384 . S
N1347 C1339 1.427 . S
N1347 C1345 1.384 . S
H1348 C1354 0.930 1_545 S
H1349 C1358 0.930 . S
H1350 C1363 0.929 . S
H1351 C1361 0.929 . S
H1352 C1356 0.929 . S
H1353 C1362 0.929 . S
C1354 H1348 0.930 1_565 S
C1354 C1355 1.367 . S
C1354 C1362 1.378 . S
C1355 C1354 1.367 . S
C1355 C1363 1.433 . S
C1356 H1352 0.929 . S
C1356 C1358 1.378 . S
C1356 C1360 1.350 . S
C1357 C1360 1.463 . S
C1357 C1362 1.350 . S
C1357 N1365 1.427 . S
C1358 H1349 0.930 . S
C1358 C1356 1.378 . S
C1358 C1359 1.367 . S
C1359 C1358 1.367 . S
C1359 C1361 1.433 . S
C1360 C1356 1.350 . S
C1360 C1357 1.463 . S
C1360 N1364 1.427 . S
C1361 H1351 0.929 . S
C1361 C1359 1.433 . S
C1361 N1364 1.384 . S
C1362 H1353 0.929 . S
C1362 C1354 1.378 . S
C1362 C1357 1.350 . S
C1363 H1350 0.929 . S
C1363 C1355 1.433 . S
C1363 N1365 1.384 . S
N1364 C1360 1.427 . S
N1364 C1361 1.384 . S
N1365 C1357 1.427 . S
N1365 C1363 1.384 . S
H1366 C1372 0.930 . S
H1367 C1376 0.930 . S
H1368 C1381 0.929 . S
H1369 C1379 0.929 . S
H1370 C1374 0.929 . S
H1371 C1380 0.929 . S
C1372 H1366 0.930 . S
C1372 C1373 1.367 . S
C1372 C1380 1.378 . S
C1373 C1372 1.367 . S
C1373 C1381 1.433 . S
C1374 H1370 0.929 . S
C1374 C1376 1.378 1_545 S
C1374 C1378 1.350 . S
C1375 C1378 1.463 . S
C1375 C1380 1.350 . S
C1375 N1383 1.427 . S
C1376 H1367 0.930 . S
C1376 C1374 1.378 1_565 S
C1376 C1377 1.367 . S
C1377 C1376 1.367 . S
C1377 C1379 1.433 . S
C1378 C1374 1.350 . S
C1378 C1375 1.463 . S
C1378 N1382 1.427 1_545 S
C1379 H1369 0.929 . S
C1379 C1377 1.433 . S
C1379 N1382 1.384 . S
C1380 H1371 0.929 . S
C1380 C1372 1.378 . S
C1380 C1375 1.350 . S
C1381 H1368 0.929 . S
C1381 C1373 1.433 . S
C1381 N1383 1.384 . S
N1382 C1378 1.427 1_565 S
N1382 C1379 1.384 . S
N1383 C1375 1.427 . S
N1383 C1381 1.384 . S
H1384 C1390 0.930 . S
H1385 C1394 0.930 . S
H1386 C1399 0.929 . S
H1387 C1397 0.929 . S
H1388 C1392 0.929 . S
H1389 C1398 0.929 . S
C1390 H1384 0.930 . S
C1390 C1391 1.367 . S
C1390 C1398 1.378 . S
C1391 C1390 1.367 . S
C1391 C1399 1.433 . S
C1392 H1388 0.929 . S
C1392 C1394 1.378 . S
C1392 C1396 1.350 . S
C1393 C1396 1.463 . S
C1393 C1398 1.350 . S
C1393 N1401 1.427 . S
C1394 H1385 0.930 . S
C1394 C1392 1.378 . S
C1394 C1395 1.367 . S
C1395 C1394 1.367 . S
C1395 C1397 1.433 . S
C1396 C1392 1.350 . S
C1396 C1393 1.463 . S
C1396 N1400 1.427 . S
C1397 H1387 0.929 . S
C1397 C1395 1.433 . S
C1397 N1400 1.384 . S
C1398 H1389 0.929 . S
C1398 C1390 1.378 . S
C1398 C1393 1.350 . S
C1399 H1386 0.929 . S
C1399 C1391 1.433 . S
C1399 N1401 1.384 . S
N1400 C1396 1.427 . S
N1400 C1397 1.384 . S
N1401 C1393 1.427 . S
N1401 C1399 1.384 . S
H1402 C1408 0.930 . S
H1403 C1412 0.930 . S
H1404 C1417 0.929 . S
H1405 C1415 0.929 . S
H1406 C1410 0.929 . S
H1407 C1416 0.929 . S
C1408 H1402 0.930 . S
C1408 C1409 1.367 . S
C1408 C1416 1.378 . S
C1409 C1408 1.367 . S
C1409 C1417 1.433 . S
C1410 H1406 0.929 . S
C1410 C1412 1.378 . S
C1410 C1414 1.350 . S
C1411 C1414 1.463 . S
C1411 C1416 1.350 . S
C1411 N1419 1.427 . S
C1412 H1403 0.930 . S
C1412 C1410 1.378 . S
C1412 C1413 1.367 . S
C1413 C1412 1.367 . S
C1413 C1415 1.433 . S
C1414 C1410 1.350 . S
C1414 C1411 1.463 . S
C1414 N1418 1.427 . S
C1415 H1405 0.929 . S
C1415 C1413 1.433 . S
C1415 N1418 1.384 . S
C1416 H1407 0.929 . S
C1416 C1408 1.378 . S
C1416 C1411 1.350 . S
C1417 H1404 0.929 . S
C1417 C1409 1.433 . S
C1417 N1419 1.384 . S
N1418 C1414 1.427 . S
N1418 C1415 1.384 . S
N1419 C1411 1.427 . S
N1419 C1417 1.384 . S
H1420 C1426 0.930 . S
H1421 C1430 0.930 . S
H1422 C1435 0.929 . S
H1423 C1433 0.929 . S
H1424 C1428 0.929 1_655 S
H1425 C1434 0.929 . S
C1426 H1420 0.930 . S
C1426 C1427 1.367 . S
C1426 C1434 1.378 . S
C1427 C1426 1.367 . S
C1427 C1435 1.433 . S
C1428 H1424 0.929 1_455 S
C1428 C1430 1.378 . S
C1428 C1432 1.348 1_455 S
C1429 C1432 1.469 . S
C1429 C1434 1.350 . S
C1429 N1437 1.427 . S
C1430 H1421 0.930 . S
C1430 C1428 1.378 . S
C1430 C1431 1.367 . S
C1431 C1430 1.367 . S
C1431 C1433 1.433 . S
C1432 C1428 1.348 1_655 S
C1432 C1429 1.469 . S
C1432 N1436 1.423 1_655 S
C1433 H1423 0.929 . S
C1433 C1431 1.433 . S
C1433 N1436 1.384 . S
C1434 H1425 0.929 . S
C1434 C1426 1.378 . S
C1434 C1429 1.350 . S
C1435 H1422 0.929 . S
C1435 C1427 1.433 . S
C1435 N1437 1.384 . S
N1436 C1432 1.423 1_455 S
N1436 C1433 1.384 . S
N1437 C1429 1.427 . S
N1437 C1435 1.384 . S
H1438 C1444 0.930 . S
H1439 C1448 0.930 . S
H1440 C1453 0.929 . S
H1441 C1451 0.929 . S
H1442 C1446 0.929 . S
H1443 C1452 0.929 . S
C1444 H1438 0.930 . S
C1444 C1445 1.367 . S
C1444 C1452 1.378 . S
C1445 C1444 1.367 . S
C1445 C1453 1.433 . S
C1446 H1442 0.929 . S
C1446 C1448 1.378 . S
C1446 C1450 1.350 . S
C1447 C1450 1.463 . S
C1447 C1452 1.350 . S
C1447 N1455 1.427 . S
C1448 H1439 0.930 . S
C1448 C1446 1.378 . S
C1448 C1449 1.367 . S
C1449 C1448 1.367 . S
C1449 C1451 1.433 . S
C1450 C1446 1.350 . S
C1450 C1447 1.463 . S
C1450 N1454 1.427 . S
C1451 H1441 0.929 . S
C1451 C1449 1.433 . S
C1451 N1454 1.384 . S
C1452 H1443 0.929 . S
C1452 C1444 1.378 . S
C1452 C1447 1.350 . S
C1453 H1440 0.929 . S
C1453 C1445 1.433 . S
C1453 N1455 1.384 . S
N1454 C1450 1.427 . S
N1454 C1451 1.384 . S
N1455 C1447 1.427 . S
N1455 C1453 1.384 . S
H1456 C1462 0.930 . S
H1457 C1466 0.930 . S
H1458 C1471 0.929 . S
H1459 C1469 0.929 . S
H1460 C1464 0.929 . S
H1461 C1470 0.929 . S
C1462 H1456 0.930 . S
C1462 C1463 1.367 . S
C1462 C1470 1.378 . S
C1463 C1462 1.367 . S
C1463 C1471 1.433 . S
C1464 H1460 0.929 . S
C1464 C1466 1.378 1_455 S
C1464 C1468 1.350 . S
C1465 C1468 1.463 . S
C1465 C1470 1.350 . S
C1465 N1473 1.427 . S
C1466 H1457 0.930 . S
C1466 C1464 1.378 1_655 S
C1466 C1467 1.367 . S
C1467 C1466 1.367 . S
C1467 C1469 1.433 . S
C1468 C1464 1.350 . S
C1468 C1465 1.463 . S
C1468 N1472 1.427 1_455 S
C1469 H1459 0.929 . S
C1469 C1467 1.433 . S
C1469 N1472 1.384 . S
C1470 H1461 0.929 . S
C1470 C1462 1.378 . S
C1470 C1465 1.350 . S
C1471 H1458 0.929 . S
C1471 C1463 1.433 . S
C1471 N1473 1.384 . S
N1472 C1468 1.427 1_655 S
N1472 C1469 1.384 . S
N1473 C1465 1.427 . S
N1473 C1471 1.384 . S
H1474 C1480 0.930 . S
H1475 C1484 0.930 . S
H1476 C1489 0.929 . S
H1477 C1487 0.929 . S
H1478 C1482 0.929 . S
H1479 C1488 0.929 . S
C1480 H1474 0.930 . S
C1480 C1481 1.367 . S
C1480 C1488 1.378 . S
C1481 C1480 1.367 . S
C1481 C1489 1.433 . S
C1482 H1478 0.929 . S
C1482 C1484 1.378 . S
C1482 C1486 1.350 . S
C1483 C1486 1.463 . S
C1483 C1488 1.350 . S
C1483 N1491 1.427 . S
C1484 H1475 0.930 . S
C1484 C1482 1.378 . S
C1484 C1485 1.367 . S
C1485 C1484 1.367 . S
C1485 C1487 1.433 . S
C1486 C1482 1.350 . S
C1486 C1483 1.463 . S
C1486 N1490 1.427 . S
C1487 H1477 0.929 . S
C1487 C1485 1.433 . S
C1487 N1490 1.384 . S
C1488 H1479 0.929 . S
C1488 C1480 1.378 . S
C1488 C1483 1.350 . S
C1489 H1476 0.929 . S
C1489 C1481 1.433 . S
C1489 N1491 1.384 . S
N1490 C1486 1.427 . S
N1490 C1487 1.384 . S
N1491 C1483 1.427 . S
N1491 C1489 1.384 . S
H1492 C1498 0.930 . S
H1493 C1502 0.930 . S
H1494 C1507 0.929 . S
H1495 C1505 0.929 . S
H1496 C1500 0.929 1_655 S
H1497 C1506 0.929 . S
C1498 H1492 0.930 . S
C1498 C1499 1.367 . S
C1498 C1506 1.378 . S
C1499 C1498 1.367 . S
C1499 C1507 1.433 . S
C1500 H1496 0.929 1_455 S
C1500 C1502 1.378 . S
C1500 C1504 1.350 . S
C1501 C1504 1.463 1_655 S
C1501 C1506 1.350 . S
C1501 N1509 1.427 . S
C1502 H1493 0.930 . S
C1502 C1500 1.378 . S
C1502 C1503 1.367 . S
C1503 C1502 1.367 . S
C1503 C1505 1.433 . S
C1504 C1500 1.350 . S
C1504 C1501 1.463 1_455 S
C1504 N1508 1.427 . S
C1505 H1495 0.929 . S
C1505 C1503 1.433 . S
C1505 N1508 1.384 . S
C1506 H1497 0.929 . S
C1506 C1498 1.378 . S
C1506 C1501 1.350 . S
C1507 H1494 0.929 . S
C1507 C1499 1.433 . S
C1507 N1509 1.384 . S
N1508 C1504 1.427 . S
N1508 C1505 1.384 . S
N1509 C1501 1.427 . S
N1509 C1507 1.384 . S
H1510 C1516 0.930 . S
H1511 C1520 0.930 . S
H1512 C1525 0.929 . S
H1513 C1523 0.929 . S
H1514 C1518 0.929 . S
H1515 C1524 0.929 . S
C1516 H1510 0.930 . S
C1516 C1517 1.367 . S
C1516 C1524 1.378 . S
C1517 C1516 1.367 . S
C1517 C1525 1.433 . S
C1518 H1514 0.929 . S
C1518 C1520 1.378 . S
C1518 C1522 1.350 . S
C1519 C1522 1.463 . S
C1519 C1524 1.350 . S
C1519 N1527 1.427 . S
C1520 H1511 0.930 . S
C1520 C1518 1.378 . S
C1520 C1521 1.367 . S
C1521 C1520 1.367 . S
C1521 C1523 1.433 . S
C1522 C1518 1.350 . S
C1522 C1519 1.463 . S
C1522 N1526 1.427 . S
C1523 H1513 0.929 . S
C1523 C1521 1.433 . S
C1523 N1526 1.384 . S
C1524 H1515 0.929 . S
C1524 C1516 1.378 . S
C1524 C1519 1.350 . S
C1525 H1512 0.929 . S
C1525 C1517 1.433 . S
C1525 N1527 1.384 . S
N1526 C1522 1.427 . S
N1526 C1523 1.384 . S
N1527 C1519 1.427 . S
N1527 C1525 1.384 . S
H1528 C1534 0.930 . S
H1529 C1538 0.930 . S
H1530 C1543 0.929 . S
H1531 C1541 0.929 . S
H1532 C1536 0.929 . S
H1533 C1542 0.929 . S
C1534 H1528 0.930 . S
C1534 C1535 1.367 . S
C1534 C1542 1.378 . S
C1535 C1534 1.367 . S
C1535 C1543 1.433 . S
C1536 H1532 0.929 . S
C1536 C1538 1.378 . S
C1536 C1540 1.350 . S
C1537 C1540 1.463 . S
C1537 C1542 1.350 . S
C1537 N1545 1.427 . S
C1538 H1529 0.930 . S
C1538 C1536 1.378 . S
C1538 C1539 1.367 . S
C1539 C1538 1.367 . S
C1539 C1541 1.433 . S
C1540 C1536 1.350 . S
C1540 C1537 1.463 . S
C1540 N1544 1.427 . S
C1541 H1531 0.929 . S
C1541 C1539 1.433 . S
C1541 N1544 1.384 . S
C1542 H1533 0.929 . S
C1542 C1534 1.378 . S
C1542 C1537 1.350 . S
C1543 H1530 0.929 . S
C1543 C1535 1.433 . S
C1543 N1545 1.384 . S
N1544 C1540 1.427 . S
N1544 C1541 1.384 . S
N1545 C1537 1.427 . S
N1545 C1543 1.384 . S
H1546 C1552 0.930 . S
H1547 C1556 0.930 . S
H1548 C1561 0.929 . S
H1549 C1559 0.929 . S
H1550 C1554 0.929 . S
H1551 C1560 0.929 . S
C1552 H1546 0.930 . S
C1552 C1553 1.367 . S
C1552 C1560 1.378 . S
C1553 C1552 1.367 . S
C1553 C1561 1.433 . S
C1554 H1550 0.929 . S
C1554 C1556 1.378 1_554 S
C1554 C1558 1.350 . S
C1555 C1558 1.463 . S
C1555 C1560 1.350 . S
C1555 N1563 1.427 . S
C1556 H1547 0.930 . S
C1556 C1554 1.378 1_556 S
C1556 C1557 1.367 . S
C1557 C1556 1.367 . S
C1557 C1559 1.433 . S
C1558 C1554 1.350 . S
C1558 C1555 1.463 . S
C1558 N1562 1.427 1_554 S
C1559 H1549 0.929 . S
C1559 C1557 1.433 . S
C1559 N1562 1.384 . S
C1560 H1551 0.929 . S
C1560 C1552 1.378 . S
C1560 C1555 1.350 . S
C1561 H1548 0.929 . S
C1561 C1553 1.433 . S
C1561 N1563 1.384 . S
N1562 C1558 1.427 1_556 S
N1562 C1559 1.384 . S
N1563 C1555 1.427 . S
N1563 C1561 1.384 . S
H1564 C1570 0.930 . S
H1565 C1574 0.930 . S
H1566 C1579 0.929 . S
H1567 C1577 0.929 . S
H1568 C1572 0.929 . S
H1569 C1578 0.929 . S
C1570 H1564 0.930 . S
C1570 C1571 1.367 . S
C1570 C1578 1.378 . S
C1571 C1570 1.367 . S
C1571 C1579 1.433 . S
C1572 H1568 0.929 . S
C1572 C1574 1.378 . S
C1572 C1576 1.350 . S
C1573 C1576 1.463 . S
C1573 C1578 1.350 . S
C1573 N1581 1.427 . S
C1574 H1565 0.930 . S
C1574 C1572 1.378 . S
C1574 C1575 1.367 . S
C1575 C1574 1.367 . S
C1575 C1577 1.433 . S
C1576 C1572 1.350 . S
C1576 C1573 1.463 . S
C1576 N1580 1.427 . S
C1577 H1567 0.929 . S
C1577 C1575 1.433 . S
C1577 N1580 1.384 . S
C1578 H1569 0.929 . S
C1578 C1570 1.378 . S
C1578 C1573 1.350 . S
C1579 H1566 0.929 . S
C1579 C1571 1.433 . S
C1579 N1581 1.384 . S
N1580 C1576 1.427 . S
N1580 C1577 1.384 . S
N1581 C1573 1.427 . S
N1581 C1579 1.384 . S
H1582 C1588 0.930 . S
H1583 C1592 0.930 . S
H1584 C1597 0.929 . S
H1585 C1595 0.929 . S
H1586 C1590 0.929 . S
H1587 C1596 0.929 . S
C1588 H1582 0.930 . S
C1588 C1589 1.367 . S
C1588 C1596 1.378 . S
C1589 C1588 1.367 . S
C1589 C1597 1.433 . S
C1590 H1586 0.929 . S
C1590 C1592 1.378 . S
C1590 C1594 1.350 . S
C1591 C1594 1.463 . S
C1591 C1596 1.350 . S
C1591 N1599 1.427 . S
C1592 H1583 0.930 . S
C1592 C1590 1.378 . S
C1592 C1593 1.367 . S
C1593 C1592 1.367 . S
C1593 C1595 1.433 . S
C1594 C1590 1.350 . S
C1594 C1591 1.463 . S
C1594 N1598 1.427 . S
C1595 H1585 0.929 . S
C1595 C1593 1.433 . S
C1595 N1598 1.384 . S
C1596 H1587 0.929 . S
C1596 C1588 1.378 . S
C1596 C1591 1.350 . S
C1597 H1584 0.929 . S
C1597 C1589 1.433 . S
C1597 N1599 1.384 . S
N1598 C1594 1.427 . S
N1598 C1595 1.384 . S
N1599 C1591 1.427 . S
N1599 C1597 1.384 . S
H1600 C1606 0.930 . S
H1601 C1610 0.930 . S
H1602 C1615 0.929 . S
H1603 C1613 0.929 . S
H1604 C1608 0.929 . S
H1605 C1614 0.929 . S
C1606 H1600 0.930 . S
C1606 C1607 1.367 . S
C1606 C1614 1.378 . S
C1607 C1606 1.367 . S
C1607 C1615 1.433 . S
C1608 H1604 0.929 . S
C1608 C1610 1.378 . S
C1608 C1612 1.350 . S
C1609 C1612 1.463 . S
C1609 C1614 1.350 . S
C1609 N1617 1.427 . S
C1610 H1601 0.930 . S
C1610 C1608 1.378 . S
C1610 C1611 1.367 . S
C1611 C1610 1.367 . S
C1611 C1613 1.433 . S
C1612 C1608 1.350 . S
C1612 C1609 1.463 . S
C1612 N1616 1.427 . S
C1613 H1603 0.929 . S
C1613 C1611 1.433 . S
C1613 N1616 1.384 . S
C1614 H1605 0.929 . S
C1614 C1606 1.378 . S
C1614 C1609 1.350 . S
C1615 H1602 0.929 . S
C1615 C1607 1.433 . S
C1615 N1617 1.384 . S
N1616 C1612 1.427 . S
N1616 C1613 1.384 . S
N1617 C1609 1.427 . S
N1617 C1615 1.384 . S
H1618 C1624 0.930 1_455 S
H1619 C1628 0.930 . S
H1620 C1633 0.929 . S
H1621 C1631 0.929 . S
H1622 C1626 0.929 1_556 S
H1623 C1632 0.929 . S
C1624 H1618 0.930 1_655 S
C1624 C1625 1.367 . S
C1624 C1632 1.378 . S
C1625 C1624 1.367 . S
C1625 C1633 1.433 . S
C1626 H1622 0.929 1_554 S
C1626 C1628 1.378 . S
C1626 C1630 1.350 . S
C1627 C1630 1.463 1_556 S
C1627 C1632 1.350 . S
C1627 N1635 1.427 . S
C1628 H1619 0.930 . S
C1628 C1626 1.378 . S
C1628 C1629 1.367 . S
C1629 C1628 1.367 . S
C1629 C1631 1.433 . S
C1630 C1626 1.350 . S
C1630 C1627 1.463 1_554 S
C1630 N1634 1.427 . S
C1631 H1621 0.929 . S
C1631 C1629 1.433 . S
C1631 N1634 1.384 . S
C1632 H1623 0.929 . S
C1632 C1624 1.378 . S
C1632 C1627 1.350 . S
C1633 H1620 0.929 . S
C1633 C1625 1.433 . S
C1633 N1635 1.384 . S
N1634 C1630 1.427 . S
N1634 C1631 1.384 . S
N1635 C1627 1.427 . S
N1635 C1633 1.384 . S
H1636 C1642 0.930 . S
H1637 C1646 0.930 . S
H1638 C1651 0.929 . S
H1639 C1649 0.929 . S
H1640 C1644 0.929 . S
H1641 C1650 0.929 . S
C1642 H1636 0.930 . S
C1642 C1643 1.367 . S
C1642 C1650 1.378 . S
C1643 C1642 1.367 . S
C1643 C1651 1.433 . S
C1644 H1640 0.929 . S
C1644 C1646 1.378 . S
C1644 C1648 1.350 . S
C1645 C1648 1.463 . S
C1645 C1650 1.350 . S
C1645 N1653 1.427 . S
C1646 H1637 0.930 . S
C1646 C1644 1.378 . S
C1646 C1647 1.367 . S
C1647 C1646 1.367 . S
C1647 C1649 1.433 . S
C1648 C1644 1.350 . S
C1648 C1645 1.463 . S
C1648 N1652 1.427 . S
C1649 H1639 0.929 . S
C1649 C1647 1.433 . S
C1649 N1652 1.384 . S
C1650 H1641 0.929 . S
C1650 C1642 1.378 . S
C1650 C1645 1.350 . S
C1651 H1638 0.929 . S
C1651 C1643 1.433 . S
C1651 N1653 1.384 . S
N1652 C1648 1.427 . S
N1652 C1649 1.384 . S
N1653 C1645 1.427 . S
N1653 C1651 1.384 . S
H1654 C1660 0.930 . S
H1655 C1664 0.930 . S
H1656 C1669 0.929 . S
H1657 C1667 0.929 . S
H1658 C1662 0.929 . S
H1659 C1668 0.929 . S
C1660 H1654 0.930 . S
C1660 C1661 1.367 . S
C1660 C1668 1.378 . S
C1661 C1660 1.367 . S
C1661 C1669 1.433 . S
C1662 H1658 0.929 . S
C1662 C1664 1.378 . S
C1662 C1666 1.350 . S
C1663 C1666 1.463 . S
C1663 C1668 1.350 . S
C1663 N1671 1.427 . S
C1664 H1655 0.930 . S
C1664 C1662 1.378 . S
C1664 C1665 1.367 . S
C1665 C1664 1.367 . S
C1665 C1667 1.433 . S
C1666 C1662 1.350 . S
C1666 C1663 1.463 . S
C1666 N1670 1.427 . S
C1667 H1657 0.929 . S
C1667 C1665 1.433 . S
C1667 N1670 1.384 . S
C1668 H1659 0.929 . S
C1668 C1660 1.378 . S
C1668 C1663 1.350 . S
C1669 H1656 0.929 . S
C1669 C1661 1.433 . S
C1669 N1671 1.384 . S
N1670 C1666 1.427 . S
N1670 C1667 1.384 . S
N1671 C1663 1.427 . S
N1671 C1669 1.384 . S
H1672 C1678 0.930 . S
H1673 C1682 0.930 . S
H1674 C1687 0.929 . S
H1675 C1685 0.929 . S
H1676 C1680 0.929 . S
H1677 C1686 0.929 . S
C1678 H1672 0.930 . S
C1678 C1679 1.367 . S
C1678 C1686 1.378 . S
C1679 C1678 1.367 . S
C1679 C1687 1.433 . S
C1680 H1676 0.929 . S
C1680 C1682 1.378 . S
C1680 C1684 1.350 . S
C1681 C1684 1.463 . S
C1681 C1686 1.350 . S
C1681 N1689 1.427 . S
C1682 H1673 0.930 . S
C1682 C1680 1.378 . S
C1682 C1683 1.367 . S
C1683 C1682 1.367 . S
C1683 C1685 1.433 . S
C1684 C1680 1.350 . S
C1684 C1681 1.463 . S
C1684 N1688 1.427 . S
C1685 H1675 0.929 . S
C1685 C1683 1.433 . S
C1685 N1688 1.384 . S
C1686 H1677 0.929 . S
C1686 C1678 1.378 . S
C1686 C1681 1.350 . S
C1687 H1674 0.929 . S
C1687 C1679 1.433 . S
C1687 N1689 1.384 . S
N1688 C1684 1.427 . S
N1688 C1685 1.384 . S
N1689 C1681 1.427 . S
N1689 C1687 1.384 . S
H1690 C1696 0.930 . S
H1691 C1700 0.930 . S
H1692 C1705 0.929 . S
H1693 C1703 0.929 . S
H1694 C1698 0.929 . S
H1695 C1704 0.929 . S
C1696 H1690 0.930 . S
C1696 C1697 1.367 . S
C1696 C1704 1.378 . S
C1697 C1696 1.367 . S
C1697 C1705 1.433 . S
C1698 H1694 0.929 . S
C1698 C1700 1.378 . S
C1698 C1702 1.350 . S
C1699 C1702 1.463 . S
C1699 C1704 1.350 . S
C1699 N1707 1.427 . S
C1700 H1691 0.930 . S
C1700 C1698 1.378 . S
C1700 C1701 1.367 . S
C1701 C1700 1.367 . S
C1701 C1703 1.433 . S
C1702 C1698 1.350 . S
C1702 C1699 1.463 . S
C1702 N1706 1.427 . S
C1703 H1693 0.929 . S
C1703 C1701 1.433 . S
C1703 N1706 1.384 . S
C1704 H1695 0.929 . S
C1704 C1696 1.378 . S
C1704 C1699 1.350 . S
C1705 H1692 0.929 . S
C1705 C1697 1.433 . S
C1705 N1707 1.384 . S
N1706 C1702 1.427 . S
N1706 C1703 1.384 . S
N1707 C1699 1.427 . S
N1707 C1705 1.384 . S
H1708 C1714 0.930 . S
H1709 C1718 0.930 . S
H1710 C1723 0.929 . S
H1711 C1721 0.929 . S
H1712 C1716 0.929 . S
H1713 C1722 0.929 . S
C1714 H1708 0.930 . S
C1714 C1715 1.367 . S
C1714 C1722 1.378 . S
C1715 C1714 1.367 . S
C1715 C1723 1.433 . S
C1716 H1712 0.929 . S
C1716 C1718 1.378 . S
C1716 C1720 1.350 . S
C1717 C1720 1.463 . S
C1717 C1722 1.350 . S
C1717 N1725 1.427 . S
C1718 H1709 0.930 . S
C1718 C1716 1.378 . S
C1718 C1719 1.367 . S
C1719 C1718 1.367 . S
C1719 C1721 1.433 . S
C1720 C1716 1.350 . S
C1720 C1717 1.463 . S
C1720 N1724 1.427 . S
C1721 H1711 0.929 . S
C1721 C1719 1.433 . S
C1721 N1724 1.384 . S
C1722 H1713 0.929 . S
C1722 C1714 1.378 . S
C1722 C1717 1.350 . S
C1723 H1710 0.929 . S
C1723 C1715 1.433 . S
C1723 N1725 1.384 . S
N1724 C1720 1.427 . S
N1724 C1721 1.384 . S
N1725 C1717 1.427 . S
N1725 C1723 1.384 . S
H1726 C1732 0.930 . S
H1727 C1736 0.930 . S
H1728 C1741 0.929 . S
H1729 C1739 0.929 . S
H1730 C1734 0.929 . S
H1731 C1740 0.929 . S
C1732 H1726 0.930 . S
C1732 C1733 1.367 . S
C1732 C1740 1.378 . S
C1733 C1732 1.367 . S
C1733 C1741 1.433 . S
C1734 H1730 0.929 . S
C1734 C1736 1.378 . S
C1734 C1738 1.350 . S
C1735 C1738 1.463 . S
C1735 C1740 1.350 . S
C1735 N1743 1.427 . S
C1736 H1727 0.930 . S
C1736 C1734 1.378 . S
C1736 C1737 1.367 . S
C1737 C1736 1.367 . S
C1737 C1739 1.433 . S
C1738 C1734 1.350 . S
C1738 C1735 1.463 . S
C1738 N1742 1.427 . S
C1739 H1729 0.929 . S
C1739 C1737 1.433 . S
C1739 N1742 1.384 . S
C1740 H1731 0.929 . S
C1740 C1732 1.378 . S
C1740 C1735 1.350 . S
C1741 H1728 0.929 . S
C1741 C1733 1.433 . S
C1741 N1743 1.384 . S
N1742 C1738 1.427 . S
N1742 C1739 1.384 . S
N1743 C1735 1.427 . S
N1743 C1741 1.384 . S
H1744 C1750 0.930 . S
H1745 C1754 0.930 . S
H1746 C1759 0.929 . S
H1747 C1757 0.929 . S
H1748 C1752 0.929 . S
H1749 C1758 0.929 . S
C1750 H1744 0.930 . S
C1750 C1751 1.367 . S
C1750 C1758 1.378 . S
C1751 C1750 1.367 . S
C1751 C1759 1.433 . S
C1752 H1748 0.929 . S
C1752 C1754 1.378 . S
C1752 C1756 1.350 . S
C1753 C1756 1.463 . S
C1753 C1758 1.350 . S
C1753 N1761 1.427 . S
C1754 H1745 0.930 . S
C1754 C1752 1.378 . S
C1754 C1755 1.367 . S
C1755 C1754 1.367 . S
C1755 C1757 1.433 . S
C1756 C1752 1.350 . S
C1756 C1753 1.463 . S
C1756 N1760 1.427 . S
C1757 H1747 0.929 . S
C1757 C1755 1.433 . S
C1757 N1760 1.384 . S
C1758 H1749 0.929 . S
C1758 C1750 1.378 . S
C1758 C1753 1.350 . S
C1759 H1746 0.929 . S
C1759 C1751 1.433 . S
C1759 N1761 1.384 . S
N1760 C1756 1.427 . S
N1760 C1757 1.384 . S
N1761 C1753 1.427 . S
N1761 C1759 1.384 . S
H1762 C1768 0.930 . S
H1763 C1772 0.930 . S
H1764 C1777 0.929 . S
H1765 C1775 0.929 . S
H1766 C1770 0.929 . S
H1767 C1776 0.929 . S
C1768 H1762 0.930 . S
C1768 C1769 1.367 . S
C1768 C1776 1.378 . S
C1769 C1768 1.367 . S
C1769 C1777 1.433 . S
C1770 H1766 0.929 . S
C1770 C1772 1.378 . S
C1770 C1774 1.350 . S
C1771 C1774 1.463 . S
C1771 C1776 1.350 . S
C1771 N1779 1.427 . S
C1772 H1763 0.930 . S
C1772 C1770 1.378 . S
C1772 C1773 1.367 . S
C1773 C1772 1.367 . S
C1773 C1775 1.433 . S
C1774 C1770 1.350 . S
C1774 C1771 1.463 . S
C1774 N1778 1.427 . S
C1775 H1765 0.929 . S
C1775 C1773 1.433 . S
C1775 N1778 1.384 . S
C1776 H1767 0.929 . S
C1776 C1768 1.378 . S
C1776 C1771 1.350 . S
C1777 H1764 0.929 . S
C1777 C1769 1.433 . S
C1777 N1779 1.384 . S
N1778 C1774 1.427 . S
N1778 C1775 1.384 . S
N1779 C1771 1.427 . S
N1779 C1777 1.384 . S
H1780 C1786 0.930 . S
H1781 C1790 0.930 . S
H1782 C1795 0.929 . S
H1783 C1793 0.929 . S
H1784 C1788 0.929 . S
H1785 C1794 0.929 . S
C1786 H1780 0.930 . S
C1786 C1787 1.367 . S
C1786 C1794 1.378 . S
C1787 C1786 1.367 . S
C1787 C1795 1.433 . S
C1788 H1784 0.929 . S
C1788 C1790 1.378 . S
C1788 C1792 1.350 . S
C1789 C1792 1.463 . S
C1789 C1794 1.350 . S
C1789 N1797 1.427 . S
C1790 H1781 0.930 . S
C1790 C1788 1.378 . S
C1790 C1791 1.367 . S
C1791 C1790 1.367 . S
C1791 C1793 1.433 . S
C1792 C1788 1.350 . S
C1792 C1789 1.463 . S
C1792 N1796 1.427 . S
C1793 H1783 0.929 . S
C1793 C1791 1.433 . S
C1793 N1796 1.384 . S
C1794 H1785 0.929 . S
C1794 C1786 1.378 . S
C1794 C1789 1.350 . S
C1795 H1782 0.929 . S
C1795 C1787 1.433 . S
C1795 N1797 1.384 . S
N1796 C1792 1.427 . S
N1796 C1793 1.384 . S
N1797 C1789 1.427 . S
N1797 C1795 1.384 . S
H1798 C1804 0.930 . S
H1799 C1808 0.930 . S
H1800 C1813 0.929 . S
H1801 C1811 0.929 . S
H1802 C1806 0.929 . S
H1803 C1812 0.929 . S
C1804 H1798 0.930 . S
C1804 C1805 1.367 . S
C1804 C1812 1.378 . S
C1805 C1804 1.367 . S
C1805 C1813 1.433 . S
C1806 H1802 0.929 . S
C1806 C1808 1.378 . S
C1806 C1810 1.350 . S
C1807 C1810 1.463 . S
C1807 C1812 1.350 . S
C1807 N1815 1.427 . S
C1808 H1799 0.930 . S
C1808 C1806 1.378 . S
C1808 C1809 1.367 . S
C1809 C1808 1.367 . S
C1809 C1811 1.433 . S
C1810 C1806 1.350 . S
C1810 C1807 1.463 . S
C1810 N1814 1.427 . S
C1811 H1801 0.929 . S
C1811 C1809 1.433 . S
C1811 N1814 1.384 . S
C1812 H1803 0.929 . S
C1812 C1804 1.378 . S
C1812 C1807 1.350 . S
C1813 H1800 0.929 . S
C1813 C1805 1.433 . S
C1813 N1815 1.384 . S
N1814 C1810 1.427 . S
N1814 C1811 1.384 . S
N1815 C1807 1.427 . S
N1815 C1813 1.384 . S
H1816 C1822 0.930 . S
H1817 C1826 0.930 . S
H1818 C1831 0.929 . S
H1819 C1829 0.929 . S
H1820 C1824 0.929 . S
H1821 C1830 0.929 . S
C1822 H1816 0.930 . S
C1822 C1823 1.367 . S
C1822 C1830 1.378 . S
C1823 C1822 1.367 . S
C1823 C1831 1.433 . S
C1824 H1820 0.929 . S
C1824 C1826 1.378 . S
C1824 C1828 1.350 . S
C1825 C1828 1.463 . S
C1825 C1830 1.350 . S
C1825 N1833 1.427 . S
C1826 H1817 0.930 . S
C1826 C1824 1.378 . S
C1826 C1827 1.367 . S
C1827 C1826 1.367 . S
C1827 C1829 1.433 . S
C1828 C1824 1.350 . S
C1828 C1825 1.463 . S
C1828 N1832 1.427 . S
C1829 H1819 0.929 . S
C1829 C1827 1.433 . S
C1829 N1832 1.384 . S
C1830 H1821 0.929 . S
C1830 C1822 1.378 . S
C1830 C1825 1.350 . S
C1831 H1818 0.929 . S
C1831 C1823 1.433 . S
C1831 N1833 1.384 . S
N1832 C1828 1.427 . S
N1832 C1829 1.384 . S
N1833 C1825 1.427 . S
N1833 C1831 1.384 . S
H1834 C1840 0.930 . S
H1835 C1844 0.930 . S
H1836 C1849 0.929 . S
H1837 C1847 0.929 . S
H1838 C1842 0.929 . S
H1839 C1848 0.929 . S
C1840 H1834 0.930 . S
C1840 C1841 1.367 . S
C1840 C1848 1.378 . S
C1841 C1840 1.367 . S
C1841 C1849 1.433 . S
C1842 H1838 0.929 . S
C1842 C1844 1.378 . S
C1842 C1846 1.350 . S
C1843 C1846 1.463 . S
C1843 C1848 1.350 . S
C1843 N1851 1.427 . S
C1844 H1835 0.930 . S
C1844 C1842 1.378 . S
C1844 C1845 1.367 . S
C1845 C1844 1.367 . S
C1845 C1847 1.433 . S
C1846 C1842 1.350 . S
C1846 C1843 1.463 . S
C1846 N1850 1.427 . S
C1847 H1837 0.929 . S
C1847 C1845 1.433 . S
C1847 N1850 1.384 . S
C1848 H1839 0.929 . S
C1848 C1840 1.378 . S
C1848 C1843 1.350 . S
C1849 H1836 0.929 . S
C1849 C1841 1.433 . S
C1849 N1851 1.384 . S
N1850 C1846 1.427 . S
N1850 C1847 1.384 . S
N1851 C1843 1.427 . S
N1851 C1849 1.384 . S
H1852 C1858 0.930 . S
H1853 C1862 0.930 . S
H1854 C1867 0.929 . S
H1855 C1865 0.929 . S
H1856 C1860 0.929 . S
H1857 C1866 0.929 . S
C1858 H1852 0.930 . S
C1858 C1859 1.367 . S
C1858 C1866 1.378 . S
C1859 C1858 1.367 . S
C1859 C1867 1.433 . S
C1860 H1856 0.929 . S
C1860 C1862 1.378 . S
C1860 C1864 1.350 . S
C1861 C1864 1.463 . S
C1861 C1866 1.350 . S
C1861 N1869 1.427 . S
C1862 H1853 0.930 . S
C1862 C1860 1.378 . S
C1862 C1863 1.367 . S
C1863 C1862 1.367 . S
C1863 C1865 1.433 . S
C1864 C1860 1.350 . S
C1864 C1861 1.463 . S
C1864 N1868 1.427 . S
C1865 H1855 0.929 . S
C1865 C1863 1.433 . S
C1865 N1868 1.384 . S
C1866 H1857 0.929 . S
C1866 C1858 1.378 . S
C1866 C1861 1.350 . S
C1867 H1854 0.929 . S
C1867 C1859 1.433 . S
C1867 N1869 1.384 . S
N1868 C1864 1.427 . S
N1868 C1865 1.384 . S
N1869 C1861 1.427 . S
N1869 C1867 1.384 . S
H1870 C1876 0.930 . S
H1871 C1880 0.930 . S
H1872 C1885 0.929 . S
H1873 C1883 0.929 . S
H1874 C1878 0.929 . S
H1875 C1884 0.929 . S
C1876 H1870 0.930 . S
C1876 C1877 1.367 . S
C1876 C1884 1.378 . S
C1877 C1876 1.367 . S
C1877 C1885 1.433 . S
C1878 H1874 0.929 . S
C1878 C1880 1.378 . S
C1878 C1882 1.350 . S
C1879 C1882 1.463 . S
C1879 C1884 1.350 . S
C1879 N1887 1.427 . S
C1880 H1871 0.930 . S
C1880 C1878 1.378 . S
C1880 C1881 1.367 . S
C1881 C1880 1.367 . S
C1881 C1883 1.433 . S
C1882 C1878 1.350 . S
C1882 C1879 1.463 . S
C1882 N1886 1.427 . S
C1883 H1873 0.929 . S
C1883 C1881 1.433 . S
C1883 N1886 1.384 . S
C1884 H1875 0.929 . S
C1884 C1876 1.378 . S
C1884 C1879 1.350 . S
C1885 H1872 0.929 . S
C1885 C1877 1.433 . S
C1885 N1887 1.384 . S
N1886 C1882 1.427 . S
N1886 C1883 1.384 . S
N1887 C1879 1.427 . S
N1887 C1885 1.384 . S
H1888 C1894 0.930 . S
H1889 C1898 0.930 . S
H1890 C1903 0.929 . S
H1891 C1901 0.929 . S
H1892 C1896 0.929 . S
H1893 C1902 0.929 . S
C1894 H1888 0.930 . S
C1894 C1895 1.367 . S
C1894 C1902 1.378 . S
C1895 C1894 1.367 . S
C1895 C1903 1.433 . S
C1896 H1892 0.929 . S
C1896 C1898 1.378 . S
C1896 C1900 1.350 . S
C1897 C1900 1.463 . S
C1897 C1902 1.350 . S
C1897 N1905 1.427 . S
C1898 H1889 0.930 . S
C1898 C1896 1.378 . S
C1898 C1899 1.367 . S
C1899 C1898 1.367 . S
C1899 C1901 1.433 . S
C1900 C1896 1.350 . S
C1900 C1897 1.463 . S
C1900 N1904 1.427 . S
C1901 H1891 0.929 . S
C1901 C1899 1.433 . S
C1901 N1904 1.384 . S
C1902 H1893 0.929 . S
C1902 C1894 1.378 . S
C1902 C1897 1.350 . S
C1903 H1890 0.929 . S
C1903 C1895 1.433 . S
C1903 N1905 1.384 . S
N1904 C1900 1.427 . S
N1904 C1901 1.384 . S
N1905 C1897 1.427 . S
N1905 C1903 1.384 . S
H1906 C1912 0.930 . S
H1907 C1916 0.930 . S
H1908 C1921 0.929 . S
H1909 C1919 0.929 . S
H1910 C1914 0.929 . S
H1911 C1920 0.929 . S
C1912 H1906 0.930 . S
C1912 C1913 1.367 . S
C1912 C1920 1.378 . S
C1913 C1912 1.367 . S
C1913 C1921 1.433 . S
C1914 H1910 0.929 . S
C1914 C1916 1.378 . S
C1914 C1918 1.350 . S
C1915 C1918 1.463 . S
C1915 C1920 1.350 . S
C1915 N1923 1.427 . S
C1916 H1907 0.930 . S
C1916 C1914 1.378 . S
C1916 C1917 1.367 . S
C1917 C1916 1.367 . S
C1917 C1919 1.433 . S
C1918 C1914 1.350 . S
C1918 C1915 1.463 . S
C1918 N1922 1.427 . S
C1919 H1909 0.929 . S
C1919 C1917 1.433 . S
C1919 N1922 1.384 . S
C1920 H1911 0.929 . S
C1920 C1912 1.378 . S
C1920 C1915 1.350 . S
C1921 H1908 0.929 . S
C1921 C1913 1.433 . S
C1921 N1923 1.384 . S
N1922 C1918 1.427 . S
N1922 C1919 1.384 . S
N1923 C1915 1.427 . S
N1923 C1921 1.384 . S
H1924 C1930 0.930 . S
H1925 C1934 0.930 . S
H1926 C1939 0.929 . S
H1927 C1937 0.929 . S
H1928 C1932 0.929 . S
H1929 C1938 0.929 . S
C1930 H1924 0.930 . S
C1930 C1931 1.367 . S
C1930 C1938 1.378 . S
C1931 C1930 1.367 . S
C1931 C1939 1.433 . S
C1932 H1928 0.929 . S
C1932 C1934 1.378 . S
C1932 C1936 1.350 . S
C1933 C1936 1.463 . S
C1933 C1938 1.350 . S
C1933 N1941 1.427 . S
C1934 H1925 0.930 . S
C1934 C1932 1.378 . S
C1934 C1935 1.367 . S
C1935 C1934 1.367 . S
C1935 C1937 1.433 . S
C1936 C1932 1.350 . S
C1936 C1933 1.463 . S
C1936 N1940 1.427 . S
C1937 H1927 0.929 . S
C1937 C1935 1.433 . S
C1937 N1940 1.384 . S
C1938 H1929 0.929 . S
C1938 C1930 1.378 . S
C1938 C1933 1.350 . S
C1939 H1926 0.929 . S
C1939 C1931 1.433 . S
C1939 N1941 1.384 . S
N1940 C1936 1.427 . S
N1940 C1937 1.384 . S
N1941 C1933 1.427 . S
N1941 C1939 1.384 . S
H1942 C1948 0.930 . S
H1943 C1952 0.930 . S
H1944 C1957 0.929 1_545 S
H1945 C1955 0.929 . S
H1946 C1950 0.929 . S
H1947 C1956 0.929 . S
C1948 H1942 0.930 . S
C1948 C1949 1.367 . S
C1948 C1956 1.378 . S
C1949 C1948 1.367 . S
C1949 C1957 1.433 . S
C1950 H1946 0.929 . S
C1950 C1952 1.378 . S
C1950 C1954 1.350 . S
C1951 C1954 1.463 1_655 S
C1951 C1956 1.350 . S
C1951 N1959 1.427 . S
C1952 H1943 0.930 . S
C1952 C1950 1.378 . S
C1952 C1953 1.367 . S
C1953 C1952 1.367 . S
C1953 C1955 1.433 . S
C1954 C1950 1.350 . S
C1954 C1951 1.463 1_455 S
C1954 N1958 1.427 . S
C1955 H1945 0.929 . S
C1955 C1953 1.433 . S
C1955 N1958 1.384 . S
C1956 H1947 0.929 . S
C1956 C1948 1.378 . S
C1956 C1951 1.350 . S
C1957 H1944 0.929 1_565 S
C1957 C1949 1.433 . S
C1957 N1959 1.384 . S
N1958 C1954 1.427 . S
N1958 C1955 1.384 . S
N1959 C1951 1.427 . S
N1959 C1957 1.384 . S
H1960 C1966 0.930 . S
H1961 C1970 0.930 . S
H1962 C1975 0.929 . S
H1963 C1973 0.929 . S
H1964 C1968 0.929 . S
H1965 C1974 0.929 . S
C1966 H1960 0.930 . S
C1966 C1967 1.367 . S
C1966 C1974 1.378 . S
C1967 C1966 1.367 . S
C1967 C1975 1.433 . S
C1968 H1964 0.929 . S
C1968 C1970 1.378 . S
C1968 C1972 1.350 . S
C1969 C1972 1.463 . S
C1969 C1974 1.350 . S
C1969 N1977 1.427 . S
C1970 H1961 0.930 . S
C1970 C1968 1.378 . S
C1970 C1971 1.367 . S
C1971 C1970 1.367 . S
C1971 C1973 1.433 . S
C1972 C1968 1.350 . S
C1972 C1969 1.463 . S
C1972 N1976 1.427 . S
C1973 H1963 0.929 . S
C1973 C1971 1.433 . S
C1973 N1976 1.384 . S
C1974 H1965 0.929 . S
C1974 C1966 1.378 . S
C1974 C1969 1.350 . S
C1975 H1962 0.929 . S
C1975 C1967 1.433 . S
C1975 N1977 1.384 . S
N1976 C1972 1.427 . S
N1976 C1973 1.384 . S
N1977 C1969 1.427 . S
N1977 C1975 1.384 . S
H1978 C1984 0.930 . S
H1979 C1988 0.930 . S
H1980 C1993 0.929 . S
H1981 C1991 0.929 . S
H1982 C1986 0.929 1_556 S
H1983 C1992 0.929 . S
C1984 H1978 0.930 . S
C1984 C1985 1.367 . S
C1984 C1992 1.378 . S
C1985 C1984 1.367 . S
C1985 C1993 1.433 . S
C1986 H1982 0.929 1_554 S
C1986 C1988 1.378 . S
C1986 C1990 1.350 . S
C1987 C1990 1.463 1_556 S
C1987 C1992 1.350 . S
C1987 N1995 1.427 . S
C1988 H1979 0.930 . S
C1988 C1986 1.378 . S
C1988 C1989 1.367 . S
C1989 C1988 1.367 . S
C1989 C1991 1.433 . S
C1990 C1986 1.350 . S
C1990 C1987 1.463 1_554 S
C1990 N1994 1.427 . S
C1991 H1981 0.929 . S
C1991 C1989 1.433 . S
C1991 N1994 1.384 . S
C1992 H1983 0.929 . S
C1992 C1984 1.378 . S
C1992 C1987 1.350 . S
C1993 H1980 0.929 . S
C1993 C1985 1.433 . S
C1993 N1995 1.384 . S
N1994 C1990 1.427 . S
N1994 C1991 1.384 . S
N1995 C1987 1.427 . S
N1995 C1993 1.384 . S
H1996 C2002 0.930 . S
H1997 C2006 0.930 . S
H1998 C2011 0.929 . S
H1999 C2009 0.929 . S
H2000 C2004 0.929 . S
H2001 C2010 0.929 . S
C2002 H1996 0.930 . S
C2002 C2003 1.367 . S
C2002 C2010 1.378 . S
C2003 C2002 1.367 . S
C2003 C2011 1.433 . S
C2004 H2000 0.929 . S
C2004 C2006 1.378 . S
C2004 C2008 1.350 . S
C2005 C2008 1.463 . S
C2005 C2010 1.350 . S
C2005 N2013 1.427 . S
C2006 H1997 0.930 . S
C2006 C2004 1.378 . S
C2006 C2007 1.367 . S
C2007 C2006 1.367 . S
C2007 C2009 1.433 . S
C2008 C2004 1.350 . S
C2008 C2005 1.463 . S
C2008 N2012 1.427 . S
C2009 H1999 0.929 . S
C2009 C2007 1.433 . S
C2009 N2012 1.384 . S
C2010 H2001 0.929 . S
C2010 C2002 1.378 . S
C2010 C2005 1.350 . S
C2011 H1998 0.929 . S
C2011 C2003 1.433 . S
C2011 N2013 1.384 . S
N2012 C2008 1.427 . S
N2012 C2009 1.384 . S
N2013 C2005 1.427 . S
N2013 C2011 1.384 . S
H2014 C2020 0.930 . S
H2015 C2024 0.930 . S
H2016 C2029 0.929 . S
H2017 C2027 0.929 . S
H2018 C2022 0.929 . S
H2019 C2028 0.929 . S
C2020 H2014 0.930 . S
C2020 C2021 1.367 . S
C2020 C2028 1.378 . S
C2021 C2020 1.367 . S
C2021 C2029 1.433 . S
C2022 H2018 0.929 . S
C2022 C2024 1.378 . S
C2022 C2026 1.350 . S
C2023 C2026 1.463 . S
C2023 C2028 1.350 . S
C2023 N2031 1.427 . S
C2024 H2015 0.930 . S
C2024 C2022 1.378 . S
C2024 C2025 1.367 . S
C2025 C2024 1.367 . S
C2025 C2027 1.433 . S
C2026 C2022 1.350 . S
C2026 C2023 1.463 . S
C2026 N2030 1.427 . S
C2027 H2017 0.929 . S
C2027 C2025 1.433 . S
C2027 N2030 1.384 . S
C2028 H2019 0.929 . S
C2028 C2020 1.378 . S
C2028 C2023 1.350 . S
C2029 H2016 0.929 . S
C2029 C2021 1.433 . S
C2029 N2031 1.384 . S
N2030 C2026 1.427 . S
N2030 C2027 1.384 . S
N2031 C2023 1.427 . S
N2031 C2029 1.384 . S
H2032 C2038 0.930 . S
H2033 C2042 0.930 . S
H2034 C2047 0.929 . S
H2035 C2045 0.929 . S
H2036 C2040 0.929 . S
H2037 C2046 0.929 . S
C2038 H2032 0.930 . S
C2038 C2039 1.367 . S
C2038 C2046 1.378 . S
C2039 C2038 1.367 . S
C2039 C2047 1.433 . S
C2040 H2036 0.929 . S
C2040 C2042 1.378 . S
C2040 C2044 1.350 . S
C2041 C2044 1.463 . S
C2041 C2046 1.350 . S
C2041 N2049 1.427 . S
C2042 H2033 0.930 . S
C2042 C2040 1.378 . S
C2042 C2043 1.367 . S
C2043 C2042 1.367 . S
C2043 C2045 1.433 . S
C2044 C2040 1.350 . S
C2044 C2041 1.463 . S
C2044 N2048 1.427 . S
C2045 H2035 0.929 . S
C2045 C2043 1.433 . S
C2045 N2048 1.384 . S
C2046 H2037 0.929 . S
C2046 C2038 1.378 . S
C2046 C2041 1.350 . S
C2047 H2034 0.929 . S
C2047 C2039 1.433 . S
C2047 N2049 1.384 . S
N2048 C2044 1.427 . S
N2048 C2045 1.384 . S
N2049 C2041 1.427 . S
N2049 C2047 1.384 . S
H2050 C2056 0.930 . S
H2051 C2060 0.930 . S
H2052 C2065 0.929 . S
H2053 C2063 0.929 . S
H2054 C2058 0.929 . S
H2055 C2064 0.929 . S
C2056 H2050 0.930 . S
C2056 C2057 1.367 . S
C2056 C2064 1.378 . S
C2057 C2056 1.367 . S
C2057 C2065 1.433 . S
C2058 H2054 0.929 . S
C2058 C2060 1.378 . S
C2058 C2062 1.350 1_556 S
C2059 C2062 1.463 . S
C2059 C2064 1.350 . S
C2059 N2067 1.427 . S
C2060 H2051 0.930 . S
C2060 C2058 1.378 . S
C2060 C2061 1.367 . S
C2061 C2060 1.367 . S
C2061 C2063 1.433 . S
C2062 C2058 1.350 1_554 S
C2062 C2059 1.463 . S
C2062 N2066 1.427 . S
C2063 H2053 0.929 . S
C2063 C2061 1.433 . S
C2063 N2066 1.384 1_556 S
C2064 H2055 0.929 . S
C2064 C2056 1.378 . S
C2064 C2059 1.350 . S
C2065 H2052 0.929 . S
C2065 C2057 1.433 . S
C2065 N2067 1.384 . S
N2066 C2062 1.427 . S
N2066 C2063 1.384 1_554 S
N2067 C2059 1.427 . S
N2067 C2065 1.384 . S
H2068 C2074 0.930 . S
H2069 C2078 0.930 . S
H2070 C2083 0.929 . S
H2071 C2081 0.929 . S
H2072 C2076 0.929 . S
H2073 C2082 0.929 . S
C2074 H2068 0.930 . S
C2074 C2075 1.367 . S
C2074 C2082 1.378 . S
C2075 C2074 1.367 . S
C2075 C2083 1.433 . S
C2076 H2072 0.929 . S
C2076 C2078 1.378 . S
C2076 C2080 1.350 . S
C2077 C2080 1.463 . S
C2077 C2082 1.350 . S
C2077 N2085 1.427 . S
C2078 H2069 0.930 . S
C2078 C2076 1.378 . S
C2078 C2079 1.367 . S
C2079 C2078 1.367 . S
C2079 C2081 1.433 . S
C2080 C2076 1.350 . S
C2080 C2077 1.463 . S
C2080 N2084 1.427 . S
C2081 H2071 0.929 . S
C2081 C2079 1.433 . S
C2081 N2084 1.384 . S
C2082 H2073 0.929 . S
C2082 C2074 1.378 . S
C2082 C2077 1.350 . S
C2083 H2070 0.929 . S
C2083 C2075 1.433 . S
C2083 N2085 1.384 . S
N2084 C2080 1.427 . S
N2084 C2081 1.384 . S
N2085 C2077 1.427 . S
N2085 C2083 1.384 . S
H2086 C2092 0.930 . S
H2087 C2096 0.930 . S
H2088 C2101 0.929 . S
H2089 C2099 0.929 . S
H2090 C2094 0.929 . S
H2091 C2100 0.929 . S
C2092 H2086 0.930 . S
C2092 C2093 1.367 . S
C2092 C2100 1.378 . S
C2093 C2092 1.367 . S
C2093 C2101 1.433 . S
C2094 H2090 0.929 . S
C2094 C2096 1.378 . S
C2094 C2098 1.350 . S
C2095 C2098 1.463 . S
C2095 C2100 1.350 . S
C2095 N2103 1.427 . S
C2096 H2087 0.930 . S
C2096 C2094 1.378 . S
C2096 C2097 1.367 . S
C2097 C2096 1.367 . S
C2097 C2099 1.433 . S
C2098 C2094 1.350 . S
C2098 C2095 1.463 . S
C2098 N2102 1.427 . S
C2099 H2089 0.929 . S
C2099 C2097 1.433 . S
C2099 N2102 1.384 . S
C2100 H2091 0.929 . S
C2100 C2092 1.378 . S
C2100 C2095 1.350 . S
C2101 H2088 0.929 . S
C2101 C2093 1.433 . S
C2101 N2103 1.384 . S
N2102 C2098 1.427 . S
N2102 C2099 1.384 . S
N2103 C2095 1.427 . S
N2103 C2101 1.384 . S
H2104 C2110 0.930 . S
H2105 C2114 0.930 . S
H2106 C2119 0.929 . S
H2107 C2117 0.929 . S
H2108 C2112 0.929 . S
H2109 C2118 0.929 . S
C2110 H2104 0.930 . S
C2110 C2111 1.367 . S
C2110 C2118 1.378 . S
C2111 C2110 1.367 . S
C2111 C2119 1.433 . S
C2112 H2108 0.929 . S
C2112 C2114 1.378 . S
C2112 C2116 1.350 . S
C2113 C2116 1.463 . S
C2113 C2118 1.350 . S
C2113 N2121 1.427 . S
C2114 H2105 0.930 . S
C2114 C2112 1.378 . S
C2114 C2115 1.367 . S
C2115 C2114 1.367 . S
C2115 C2117 1.433 . S
C2116 C2112 1.350 . S
C2116 C2113 1.463 . S
C2116 N2120 1.427 . S
C2117 H2107 0.929 . S
C2117 C2115 1.433 . S
C2117 N2120 1.384 . S
C2118 H2109 0.929 . S
C2118 C2110 1.378 . S
C2118 C2113 1.350 . S
C2119 H2106 0.929 . S
C2119 C2111 1.433 . S
C2119 N2121 1.384 . S
N2120 C2116 1.427 . S
N2120 C2117 1.384 . S
N2121 C2113 1.427 . S
N2121 C2119 1.384 . S
H2122 C2128 0.930 . S
H2123 C2132 0.930 . S
H2124 C2137 0.929 . S
H2125 C2135 0.929 . S
H2126 C2130 0.929 . S
H2127 C2136 0.929 . S
C2128 H2122 0.930 . S
C2128 C2129 1.367 . S
C2128 C2136 1.378 . S
C2129 C2128 1.367 . S
C2129 C2137 1.433 . S
C2130 H2126 0.929 . S
C2130 C2132 1.378 . S
C2130 C2134 1.350 . S
C2131 C2134 1.463 . S
C2131 C2136 1.350 . S
C2131 N2139 1.427 . S
C2132 H2123 0.930 . S
C2132 C2130 1.378 . S
C2132 C2133 1.367 . S
C2133 C2132 1.367 . S
C2133 C2135 1.433 . S
C2134 C2130 1.350 . S
C2134 C2131 1.463 . S
C2134 N2138 1.427 . S
C2135 H2125 0.929 . S
C2135 C2133 1.433 . S
C2135 N2138 1.384 . S
C2136 H2127 0.929 . S
C2136 C2128 1.378 . S
C2136 C2131 1.350 . S
C2137 H2124 0.929 . S
C2137 C2129 1.433 . S
C2137 N2139 1.384 . S
N2138 C2134 1.427 . S
N2138 C2135 1.384 . S
N2139 C2131 1.427 . S
N2139 C2137 1.384 . S
H2140 C2146 0.930 . S
H2141 C2150 0.930 . S
H2142 C2155 0.929 . S
H2143 C2153 0.929 . S
H2144 C2148 0.929 . S
H2145 C2154 0.929 . S
C2146 H2140 0.930 . S
C2146 C2147 1.367 . S
C2146 C2154 1.378 . S
C2147 C2146 1.367 . S
C2147 C2155 1.433 . S
C2148 H2144 0.929 . S
C2148 C2150 1.378 . S
C2148 C2152 1.350 . S
C2149 C2152 1.463 . S
C2149 C2154 1.350 . S
C2149 N2157 1.427 . S
C2150 H2141 0.930 . S
C2150 C2148 1.378 . S
C2150 C2151 1.367 . S
C2151 C2150 1.367 . S
C2151 C2153 1.433 . S
C2152 C2148 1.350 . S
C2152 C2149 1.463 . S
C2152 N2156 1.427 . S
C2153 H2143 0.929 . S
C2153 C2151 1.433 . S
C2153 N2156 1.384 . S
C2154 H2145 0.929 . S
C2154 C2146 1.378 . S
C2154 C2149 1.350 . S
C2155 H2142 0.929 . S
C2155 C2147 1.433 . S
C2155 N2157 1.384 . S
N2156 C2152 1.427 . S
N2156 C2153 1.384 . S
N2157 C2149 1.427 . S
N2157 C2155 1.384 . S
H2158 C2164 0.930 . S
H2159 C2168 0.930 . S
H2160 C2173 0.929 . S
H2161 C2171 0.929 . S
H2162 C2166 0.929 . S
H2163 C2172 0.929 . S
C2164 H2158 0.930 . S
C2164 C2165 1.367 . S
C2164 C2172 1.378 . S
C2165 C2164 1.367 . S
C2165 C2173 1.433 . S
C2166 H2162 0.929 . S
C2166 C2168 1.378 . S
C2166 C2170 1.350 . S
C2167 C2170 1.463 . S
C2167 C2172 1.350 . S
C2167 N2175 1.427 . S
C2168 H2159 0.930 . S
C2168 C2166 1.378 . S
C2168 C2169 1.367 . S
C2169 C2168 1.367 . S
C2169 C2171 1.433 . S
C2170 C2166 1.350 . S
C2170 C2167 1.463 . S
C2170 N2174 1.427 . S
C2171 H2161 0.929 . S
C2171 C2169 1.433 . S
C2171 N2174 1.384 . S
C2172 H2163 0.929 . S
C2172 C2164 1.378 . S
C2172 C2167 1.350 . S
C2173 H2160 0.929 . S
C2173 C2165 1.433 . S
C2173 N2175 1.384 . S
N2174 C2170 1.427 . S
N2174 C2171 1.384 . S
N2175 C2167 1.427 . S
N2175 C2173 1.384 . S
H2176 C2182 0.930 . S
H2177 C2186 0.930 . S
H2178 C2191 0.929 . S
H2179 C2189 0.929 . S
H2180 C2184 0.929 . S
H2181 C2190 0.929 . S
C2182 H2176 0.930 . S
C2182 C2183 1.367 . S
C2182 C2190 1.378 . S
C2183 C2182 1.367 . S
C2183 C2191 1.433 . S
C2184 H2180 0.929 . S
C2184 C2186 1.378 . S
C2184 C2188 1.350 . S
C2185 C2188 1.463 . S
C2185 C2190 1.350 . S
C2185 N2193 1.427 . S
C2186 H2177 0.930 . S
C2186 C2184 1.378 . S
C2186 C2187 1.367 . S
C2187 C2186 1.367 . S
C2187 C2189 1.433 . S
C2188 C2184 1.350 . S
C2188 C2185 1.463 . S
C2188 N2192 1.427 . S
C2189 H2179 0.929 . S
C2189 C2187 1.433 . S
C2189 N2192 1.384 . S
C2190 H2181 0.929 . S
C2190 C2182 1.378 . S
C2190 C2185 1.350 . S
C2191 H2178 0.929 . S
C2191 C2183 1.433 . S
C2191 N2193 1.384 . S
N2192 C2188 1.427 . S
N2192 C2189 1.384 . S
N2193 C2185 1.427 . S
N2193 C2191 1.384 . S
H2194 C2200 0.930 . S
H2195 C2204 0.930 . S
H2196 C2209 0.929 . S
H2197 C2207 0.929 . S
H2198 C2202 0.929 . S
H2199 C2208 0.929 . S
C2200 H2194 0.930 . S
C2200 C2201 1.367 . S
C2200 C2208 1.378 . S
C2201 C2200 1.367 . S
C2201 C2209 1.433 . S
C2202 H2198 0.929 . S
C2202 C2204 1.378 . S
C2202 C2206 1.350 . S
C2203 C2206 1.463 . S
C2203 C2208 1.350 . S
C2203 N2211 1.427 . S
C2204 H2195 0.930 . S
C2204 C2202 1.378 . S
C2204 C2205 1.367 . S
C2205 C2204 1.367 . S
C2205 C2207 1.433 . S
C2206 C2202 1.350 . S
C2206 C2203 1.463 . S
C2206 N2210 1.427 . S
C2207 H2197 0.929 . S
C2207 C2205 1.433 . S
C2207 N2210 1.384 . S
C2208 H2199 0.929 . S
C2208 C2200 1.378 . S
C2208 C2203 1.350 . S
C2209 H2196 0.929 . S
C2209 C2201 1.433 . S
C2209 N2211 1.384 . S
N2210 C2206 1.427 . S
N2210 C2207 1.384 . S
N2211 C2203 1.427 . S
N2211 C2209 1.384 . S
H2212 C2218 0.930 . S
H2213 C2222 0.930 . S
H2214 C2227 0.929 . S
H2215 C2225 0.929 . S
H2216 C2220 0.929 . S
H2217 C2226 0.929 . S
C2218 H2212 0.930 . S
C2218 C2219 1.367 . S
C2218 C2226 1.378 . S
C2219 C2218 1.367 . S
C2219 C2227 1.433 . S
C2220 H2216 0.929 . S
C2220 C2222 1.378 . S
C2220 C2224 1.350 . S
C2221 C2224 1.463 . S
C2221 C2226 1.350 . S
C2221 N2229 1.427 . S
C2222 H2213 0.930 . S
C2222 C2220 1.378 . S
C2222 C2223 1.367 . S
C2223 C2222 1.367 . S
C2223 C2225 1.433 . S
C2224 C2220 1.350 . S
C2224 C2221 1.463 . S
C2224 N2228 1.427 . S
C2225 H2215 0.929 . S
C2225 C2223 1.433 . S
C2225 N2228 1.384 . S
C2226 H2217 0.929 . S
C2226 C2218 1.378 . S
C2226 C2221 1.350 . S
C2227 H2214 0.929 . S
C2227 C2219 1.433 . S
C2227 N2229 1.384 . S
N2228 C2224 1.427 . S
N2228 C2225 1.384 . S
N2229 C2221 1.427 . S
N2229 C2227 1.384 . S
H2230 C2236 0.930 . S
H2231 C2240 0.930 . S
H2232 C2245 0.929 . S
H2233 C2243 0.929 . S
H2234 C2238 0.929 . S
H2235 C2244 0.929 . S
C2236 H2230 0.930 . S
C2236 C2237 1.367 . S
C2236 C2244 1.378 . S
C2237 C2236 1.367 . S
C2237 C2245 1.433 . S
C2238 H2234 0.929 . S
C2238 C2240 1.378 . S
C2238 C2242 1.350 . S
C2239 C2242 1.463 . S
C2239 C2244 1.350 . S
C2239 N2247 1.427 . S
C2240 H2231 0.930 . S
C2240 C2238 1.378 . S
C2240 C2241 1.367 . S
C2241 C2240 1.367 . S
C2241 C2243 1.433 . S
C2242 C2238 1.350 . S
C2242 C2239 1.463 . S
C2242 N2246 1.427 . S
C2243 H2233 0.929 . S
C2243 C2241 1.433 . S
C2243 N2246 1.384 . S
C2244 H2235 0.929 . S
C2244 C2236 1.378 . S
C2244 C2239 1.350 . S
C2245 H2232 0.929 . S
C2245 C2237 1.433 . S
C2245 N2247 1.384 . S
N2246 C2242 1.427 . S
N2246 C2243 1.384 . S
N2247 C2239 1.427 . S
N2247 C2245 1.384 . S
H2248 C2254 0.930 . S
H2249 C2258 0.930 . S
H2250 C2263 0.929 . S
H2251 C2261 0.929 . S
H2252 C2256 0.929 . S
H2253 C2262 0.929 . S
C2254 H2248 0.930 . S
C2254 C2255 1.367 . S
C2254 C2262 1.378 . S
C2255 C2254 1.367 . S
C2255 C2263 1.433 . S
C2256 H2252 0.929 . S
C2256 C2258 1.378 . S
C2256 C2260 1.350 . S
C2257 C2260 1.463 . S
C2257 C2262 1.350 . S
C2257 N2265 1.427 . S
C2258 H2249 0.930 . S
C2258 C2256 1.378 . S
C2258 C2259 1.367 . S
C2259 C2258 1.367 . S
C2259 C2261 1.433 . S
C2260 C2256 1.350 . S
C2260 C2257 1.463 . S
C2260 N2264 1.427 . S
C2261 H2251 0.929 . S
C2261 C2259 1.433 . S
C2261 N2264 1.384 . S
C2262 H2253 0.929 . S
C2262 C2254 1.378 . S
C2262 C2257 1.350 . S
C2263 H2250 0.929 . S
C2263 C2255 1.433 . S
C2263 N2265 1.384 . S
N2264 C2260 1.427 . S
N2264 C2261 1.384 . S
N2265 C2257 1.427 . S
N2265 C2263 1.384 . S
H2266 C2272 0.930 . S
H2267 C2276 0.930 . S
H2268 C2281 0.929 . S
H2269 C2279 0.929 . S
H2270 C2274 0.929 . S
H2271 C2280 0.929 . S
C2272 H2266 0.930 . S
C2272 C2273 1.367 . S
C2272 C2280 1.378 . S
C2273 C2272 1.367 . S
C2273 C2281 1.433 . S
C2274 H2270 0.929 . S
C2274 C2276 1.378 . S
C2274 C2278 1.350 . S
C2275 C2278 1.463 . S
C2275 C2280 1.350 . S
C2275 N2283 1.427 . S
C2276 H2267 0.930 . S
C2276 C2274 1.378 . S
C2276 C2277 1.367 . S
C2277 C2276 1.367 . S
C2277 C2279 1.433 . S
C2278 C2274 1.350 . S
C2278 C2275 1.463 . S
C2278 N2282 1.427 . S
C2279 H2269 0.929 . S
C2279 C2277 1.433 . S
C2279 N2282 1.384 . S
C2280 H2271 0.929 . S
C2280 C2272 1.378 . S
C2280 C2275 1.350 . S
C2281 H2268 0.929 . S
C2281 C2273 1.433 . S
C2281 N2283 1.384 . S
N2282 C2278 1.427 . S
N2282 C2279 1.384 . S
N2283 C2275 1.427 . S
N2283 C2281 1.384 . S
H2284 C2290 0.930 . S
H2285 C2294 0.930 . S
H2286 C2299 0.929 . S
H2287 C2297 0.929 . S
H2288 C2292 0.929 . S
H2289 C2298 0.929 . S
C2290 H2284 0.930 . S
C2290 C2291 1.367 . S
C2290 C2298 1.378 . S
C2291 C2290 1.367 . S
C2291 C2299 1.433 . S
C2292 H2288 0.929 . S
C2292 C2294 1.378 . S
C2292 C2296 1.350 . S
C2293 C2296 1.463 . S
C2293 C2298 1.350 . S
C2293 N2301 1.427 . S
C2294 H2285 0.930 . S
C2294 C2292 1.378 . S
C2294 C2295 1.367 . S
C2295 C2294 1.367 . S
C2295 C2297 1.433 . S
C2296 C2292 1.350 . S
C2296 C2293 1.463 . S
C2296 N2300 1.427 . S
C2297 H2287 0.929 . S
C2297 C2295 1.433 . S
C2297 N2300 1.384 . S
C2298 H2289 0.929 . S
C2298 C2290 1.378 . S
C2298 C2293 1.350 . S
C2299 H2286 0.929 . S
C2299 C2291 1.433 . S
C2299 N2301 1.384 . S
N2300 C2296 1.427 . S
N2300 C2297 1.384 . S
N2301 C2293 1.427 . S
N2301 C2299 1.384 . S
H2302 C2308 0.930 . S
H2303 C2312 0.930 . S
H2304 C2317 0.929 . S
H2305 C2315 0.929 . S
H2306 C2310 0.929 . S
H2307 C2316 0.929 . S
C2308 H2302 0.930 . S
C2308 C2309 1.367 . S
C2308 C2316 1.378 . S
C2309 C2308 1.367 . S
C2309 C2317 1.433 . S
C2310 H2306 0.929 . S
C2310 C2312 1.378 . S
C2310 C2314 1.350 . S
C2311 C2314 1.463 . S
C2311 C2316 1.350 . S
C2311 N2319 1.427 . S
C2312 H2303 0.930 . S
C2312 C2310 1.378 . S
C2312 C2313 1.367 . S
C2313 C2312 1.367 . S
C2313 C2315 1.433 . S
C2314 C2310 1.350 . S
C2314 C2311 1.463 . S
C2314 N2318 1.427 . S
C2315 H2305 0.929 . S
C2315 C2313 1.433 . S
C2315 N2318 1.384 . S
C2316 H2307 0.929 . S
C2316 C2308 1.378 . S
C2316 C2311 1.350 . S
C2317 H2304 0.929 . S
C2317 C2309 1.433 . S
C2317 N2319 1.384 . S
N2318 C2314 1.427 . S
N2318 C2315 1.384 . S
N2319 C2311 1.427 . S
N2319 C2317 1.384 . S
H2320 C2326 0.930 . S
H2321 C2330 0.930 . S
H2322 C2335 0.929 . S
H2323 C2333 0.929 . S
H2324 C2328 0.929 . S
H2325 C2334 0.929 . S
C2326 H2320 0.930 . S
C2326 C2327 1.367 . S
C2326 C2334 1.378 . S
C2327 C2326 1.367 . S
C2327 C2335 1.433 . S
C2328 H2324 0.929 . S
C2328 C2330 1.378 . S
C2328 C2332 1.350 . S
C2329 C2332 1.463 . S
C2329 C2334 1.350 . S
C2329 N2337 1.427 . S
C2330 H2321 0.930 . S
C2330 C2328 1.378 . S
C2330 C2331 1.367 . S
C2331 C2330 1.367 . S
C2331 C2333 1.433 . S
C2332 C2328 1.350 . S
C2332 C2329 1.463 . S
C2332 N2336 1.427 . S
C2333 H2323 0.929 . S
C2333 C2331 1.433 . S
C2333 N2336 1.384 . S
C2334 H2325 0.929 . S
C2334 C2326 1.378 . S
C2334 C2329 1.350 . S
C2335 H2322 0.929 . S
C2335 C2327 1.433 . S
C2335 N2337 1.384 . S
N2336 C2332 1.427 . S
N2336 C2333 1.384 . S
N2337 C2329 1.427 . S
N2337 C2335 1.384 . S
H2338 C2344 0.930 . S
H2339 C2348 0.930 . S
H2340 C2353 0.933 . S
H2341 C2351 0.929 . S
H2342 C2346 0.929 . S
H2343 C2352 0.929 . S
C2344 H2338 0.930 . S
C2344 C2345 1.367 . S
C2344 C2352 1.378 . S
C2345 C2344 1.367 . S
C2345 C2353 1.433 . S
C2346 H2342 0.929 . S
C2346 C2348 1.378 . S
C2346 C2350 1.350 . S
C2347 C2350 1.463 . S
C2347 C2352 1.350 . S
C2347 N2355 1.427 . S
C2348 H2339 0.930 . S
C2348 C2346 1.378 . S
C2348 C2349 1.367 . S
C2349 C2348 1.367 . S
C2349 C2351 1.433 . S
C2350 C2346 1.350 . S
C2350 C2347 1.463 . S
C2350 N2354 1.427 . S
C2351 H2341 0.929 . S
C2351 C2349 1.433 . S
C2351 N2354 1.384 . S
C2352 H2343 0.929 . S
C2352 C2344 1.378 . S
C2352 C2347 1.350 . S
C2353 H2340 0.933 . S
C2353 C2345 1.433 . S
C2353 N2355 1.384 . S
N2354 C2350 1.427 . S
N2354 C2351 1.384 . S
N2355 C2347 1.427 . S
N2355 C2353 1.384 . S
H2356 C2362 0.930 . S
H2357 C2366 0.930 . S
H2358 C2371 0.929 . S
H2359 C2369 0.929 . S
H2360 C2364 0.929 . S
H2361 C2370 0.929 . S
C2362 H2356 0.930 . S
C2362 C2363 1.367 . S
C2362 C2370 1.378 . S
C2363 C2362 1.367 . S
C2363 C2371 1.433 . S
C2364 H2360 0.929 . S
C2364 C2366 1.378 . S
C2364 C2368 1.350 . S
C2365 C2368 1.463 . S
C2365 C2370 1.350 . S
C2365 N2373 1.427 . S
C2366 H2357 0.930 . S
C2366 C2364 1.378 . S
C2366 C2367 1.367 . S
C2367 C2366 1.367 . S
C2367 C2369 1.433 . S
C2368 C2364 1.350 . S
C2368 C2365 1.463 . S
C2368 N2372 1.427 . S
C2369 H2359 0.929 . S
C2369 C2367 1.433 . S
C2369 N2372 1.384 . S
C2370 H2361 0.929 . S
C2370 C2362 1.378 . S
C2370 C2365 1.350 . S
C2371 H2358 0.929 . S
C2371 C2363 1.433 . S
C2371 N2373 1.384 . S
N2372 C2368 1.427 . S
N2372 C2369 1.384 . S
N2373 C2365 1.427 . S
N2373 C2371 1.384 . S
H2374 C2380 0.930 . S
H2375 C2384 0.930 . S
H2376 C2389 0.929 . S
H2377 C2387 0.929 . S
H2378 C2382 0.929 . S
H2379 C2388 0.929 . S
C2380 H2374 0.930 . S
C2380 C2381 1.367 . S
C2380 C2388 1.378 . S
C2381 C2380 1.367 . S
C2381 C2389 1.433 . S
C2382 H2378 0.929 . S
C2382 C2384 1.378 . S
C2382 C2386 1.350 1_655 S
C2383 C2386 1.463 . S
C2383 C2388 1.350 . S
C2383 N2391 1.427 . S
C2384 H2375 0.930 . S
C2384 C2382 1.378 . S
C2384 C2385 1.367 . S
C2385 C2384 1.367 . S
C2385 C2387 1.433 . S
C2386 C2382 1.350 1_455 S
C2386 C2383 1.463 . S
C2386 N2390 1.427 . S
C2387 H2377 0.929 . S
C2387 C2385 1.433 . S
C2387 N2390 1.384 1_655 S
C2388 H2379 0.929 . S
C2388 C2380 1.378 . S
C2388 C2383 1.350 . S
C2389 H2376 0.929 . S
C2389 C2381 1.433 . S
C2389 N2391 1.384 . S
N2390 C2386 1.427 . S
N2390 C2387 1.384 1_455 S
N2391 C2383 1.427 . S
N2391 C2389 1.384 . S
C675 C319 0.926 . S
C671 C0 0.940 . S
C689 C18 1.086 . S
C693 C339 1.108 . S
C711 C360 1.121 . S
C707 C34 1.163 . S
C729 C387 1.074 . S
C725 C49 1.104 . S
C747 C343 1.057 . S
C743 C62 1.107 . S
C761 C73 1.169 . S
C765 C363 1.137 . S
C783 C383 1.107 . S
C779 C83 1.103 . S
C797 C91 0.948 . S
C801 C316 0.923 . S
C815 C109 0.943 . S
C819 C321 0.945 . S
C837 C338 1.067 . S
C833 C125 1.100 . S
C855 C362 1.105 . S
C851 C130 1.145 . S
C873 C386 1.098 . S
C869 C153 1.124 . S
C891 C342 1.101 . S
C887 C114 1.120 . S
C909 C365 1.097 . S
C905 C117 1.134 . S
C923 C138 1.087 . S
C927 C382 1.047 . S
C945 C318 0.957 . S
C941 C148 0.966 . S
C959 C161 0.985 . S
C963 C320 0.978 . S
C977 C169 1.147 . S
C981 C407 1.110 . S
C999 C427 1.071 . S
C995 C190 1.099 . S
C1017 C450 1.074 . S
C1013 C205 1.101 . S
C1031 C213 0.963 . S
C1035 C317 0.965 . S
C1049 C229 1.097 . S
C1053 C361 1.069 . S
C1071 C451 1.106 . S
C1067 C182 1.138 . S
C1089 C406 1.062 . S
C1085 C244 1.109 . S
C1107 C474 1.131 . S
C1103 C21 1.197 . S
C1125 C495 1.068 . S
C1121 C5 1.058 . S
C1139 C39 0.992 . S
C1143 C514 0.941 . S
C1157 C36 1.102 . S
C1161 C539 1.065 . S
C1175 C101 1.113 . S
C1179 C494 1.073 . S
C1193 C78 0.990 . S
C1197 C519 0.948 . S
C1215 C538 1.066 . S
C1211 C70 1.078 . S
C1229 C60 1.194 . S
C1233 C471 1.148 . S
C1247 C257 1.123 . S
C1251 C475 1.095 . S
C1269 C496 1.068 . S
C1265 C203 1.109 . S
C1287 C515 1.064 . S
C1283 C208 1.092 . S
C1305 C540 1.022 . S
C1301 C174 1.014 . S
C1323 C492 1.030 . S
C1319 C252 1.014 . S
C1341 C517 1.054 . S
C1337 C195 1.095 . S
C1359 C536 1.075 . S
C1355 C216 1.106 . S
C1373 C179 1.118 . S
C1377 C472 1.086 . S
C1395 C473 1.087 . S
C1391 C270 1.128 . S
C1409 C143 1.101 . S
C1413 C559 1.068 . S
C1431 C584 1.057 . S
C1427 C281 1.112 . S
C1445 C122 1.017 . S
C1449 C603 1.031 . S
C1467 C470 1.082 . S
C1463 C140 1.115 . S
C1485 C516 1.054 . S
C1481 C294 1.113 . S
C1503 C607 1.057 . S
C1499 C273 1.104 . S
C1517 C304 1.014 . S
C1521 C563 1.029 . S
C1535 C26 0.948 . S
C1539 C627 0.934 . S
C1553 C44 1.085 . S
C1557 C405 1.099 . S
C1575 C429 1.121 . S
C1571 C8 1.163 . S
C1589 C23 1.104 . S
C1593 C453 1.072 . S
C1607 C88 1.108 . S
C1611 C409 1.068 . S
C1625 C99 1.164 . S
C1629 C426 1.129 . S
C1647 C449 1.111 . S
C1643 C57 1.096 . S
C1665 C624 0.926 . S
C1661 C65 0.939 . S
C1683 C629 0.940 . S
C1679 C278 0.955 . S
C1701 C404 1.069 . S
C1697 C268 1.100 . S
C1719 C431 1.113 . S
C1715 C299 1.139 . S
C1733 C296 1.121 . S
C1737 C452 1.101 . S
C1755 C408 1.100 . S
C1751 C283 1.123 . S
C1769 C260 1.134 . S
C1773 C428 1.097 . S
C1791 C448 1.046 . S
C1787 C307 1.088 . S
C1805 C291 0.963 . S
C1809 C626 0.962 . S
C1827 C628 0.969 . S
C1823 C200 0.985 . S
C1841 C221 1.143 . S
C1845 C341 1.106 . S
C1863 C364 1.051 . S
C1859 C255 1.090 . S
C1877 C166 1.101 . S
C1881 C384 1.073 . S
C1899 C625 0.985 . S
C1895 C239 0.964 . S
C1917 C430 1.059 . S
C1913 C177 1.098 . S
C1935 C385 1.106 . S
C1931 C247 1.139 . S
C1953 C340 1.067 . S
C1949 C218 1.107 . S
C1967 C47 1.199 . S
C1971 C651 1.127 . S
C1985 C31 1.065 . S
C1989 C561 1.075 . S
C2003 C13 0.985 . S
C2007 C580 0.961 . S
C2025 C605 1.074 . S
C2021 C10 1.102 . S
C2043 C560 1.086 . S
C2039 C75 1.113 . S
C2057 C52 0.992 . S
C2061 C585 0.937 . S
C2079 C604 1.061 . S
C2075 C96 1.062 . S
C2093 C86 1.199 . S
C2097 C646 1.122 . S
C2115 C649 1.094 . S
C2111 C192 1.134 . S
C2129 C164 1.109 . S
C2133 C562 1.063 . S
C2147 C234 1.094 . S
C2151 C581 1.057 . S
C2169 C606 1.017 . S
C2165 C226 1.036 . S
C2187 C558 1.008 . S
C2183 C187 1.029 . S
C2201 C156 1.093 . S
C2205 C583 1.060 . S
C2223 C602 1.065 . S
C2219 C242 1.110 . S
C2241 C647 1.081 . S
C2237 C231 1.128 . S
C2259 C650 1.082 . S
C2255 C127 1.113 . S
C2277 C493 1.069 . S
C2273 C286 1.101 . S
C2291 C112 1.113 . S
C2295 C518 1.055 . S
C2309 C265 1.036 . S
C2313 C537 1.013 . S
C2331 C648 1.077 . S
C2327 C309 1.112 . S
C2349 C582 1.053 . S
C2345 C151 1.113 . S
C2367 C541 1.051 . S
C2363 C104 1.106 . S
C2385 C497 1.008 . S
C2381 C135 1.034 . S
