# Generated by pormake.
# Topology pto, (3,4)-cn, num edge types: 1
# Building blocks:
#     Node 0, Type 0, BuildingBlock: OLANEW_clean_sbu_2, # of connection points: 3
#     Node 1, Type 0, BuildingBlock: OLANEW_clean_sbu_2, # of connection points: 3
#     Node 2, Type 0, BuildingBlock: OLANEW_clean_sbu_2, # of connection points: 3
#     Node 3, Type 0, BuildingBlock: OLANEW_clean_sbu_2, # of connection points: 3
#     Node 4, Type 0, BuildingBlock: OLANEW_clean_sbu_2, # of connection points: 3
#     Node 5, Type 0, BuildingBlock: OLANEW_clean_sbu_2, # of connection points: 3
#     Node 6, Type 0, BuildingBlock: OLANEW_clean_sbu_2, # of connection points: 3
#     Node 7, Type 0, BuildingBlock: OLANEW_clean_sbu_2, # of connection points: 3
#     Node 8, Type 1, BuildingBlock: NAWXER_clean_sbu_0, # of connection points: 4
#     Node 9, Type 1, BuildingBlock: NAWXER_clean_sbu_0, # of connection points: 4
#     Node 10, Type 1, BuildingBlock: NAWXER_clean_sbu_0, # of connection points: 4
#     Node 11, Type 1, BuildingBlock: NAWXER_clean_sbu_0, # of connection points: 4
#     Node 12, Type 1, BuildingBlock: NAWXER_clean_sbu_0, # of connection points: 4
#     Node 13, Type 1, BuildingBlock: NAWXER_clean_sbu_0, # of connection points: 4
#     Edge 14, Type (0, 1), BuildingBlock: KIFKEQ_clean_linker_1, # of connection points: 2
#     Edge 15, Type (0, 1), BuildingBlock: KIFKEQ_clean_linker_1, # of connection points: 2
#     Edge 16, Type (0, 1), BuildingBlock: KIFKEQ_clean_linker_1, # of connection points: 2
#     Edge 17, Type (0, 1), BuildingBlock: KIFKEQ_clean_linker_1, # of connection points: 2
#     Edge 18, Type (0, 1), BuildingBlock: KIFKEQ_clean_linker_1, # of connection points: 2
#     Edge 19, Type (0, 1), BuildingBlock: KIFKEQ_clean_linker_1, # of connection points: 2
#     Edge 20, Type (0, 1), BuildingBlock: KIFKEQ_clean_linker_1, # of connection points: 2
#     Edge 21, Type (0, 1), BuildingBlock: KIFKEQ_clean_linker_1, # of connection points: 2
#     Edge 22, Type (0, 1), BuildingBlock: KIFKEQ_clean_linker_1, # of connection points: 2
#     Edge 23, Type (0, 1), BuildingBlock: KIFKEQ_clean_linker_1, # of connection points: 2
#     Edge 24, Type (0, 1), BuildingBlock: KIFKEQ_clean_linker_1, # of connection points: 2
#     Edge 25, Type (0, 1), BuildingBlock: KIFKEQ_clean_linker_1, # of connection points: 2
#     Edge 26, Type (0, 1), BuildingBlock: KIFKEQ_clean_linker_1, # of connection points: 2
#     Edge 27, Type (0, 1), BuildingBlock: KIFKEQ_clean_linker_1, # of connection points: 2
#     Edge 28, Type (0, 1), BuildingBlock: KIFKEQ_clean_linker_1, # of connection points: 2
#     Edge 29, Type (0, 1), BuildingBlock: KIFKEQ_clean_linker_1, # of connection points: 2
#     Edge 30, Type (0, 1), BuildingBlock: KIFKEQ_clean_linker_1, # of connection points: 2
#     Edge 31, Type (0, 1), BuildingBlock: KIFKEQ_clean_linker_1, # of connection points: 2
#     Edge 32, Type (0, 1), BuildingBlock: KIFKEQ_clean_linker_1, # of connection points: 2
#     Edge 33, Type (0, 1), BuildingBlock: KIFKEQ_clean_linker_1, # of connection points: 2
#     Edge 34, Type (0, 1), BuildingBlock: KIFKEQ_clean_linker_1, # of connection points: 2
#     Edge 35, Type (0, 1), BuildingBlock: KIFKEQ_clean_linker_1, # of connection points: 2
#     Edge 36, Type (0, 1), BuildingBlock: KIFKEQ_clean_linker_1, # of connection points: 2
#     Edge 37, Type (0, 1), BuildingBlock: KIFKEQ_clean_linker_1, # of connection points: 2
# Relax obj value: 0.012
# Max RMSD: 0.129
# Mean RMSD: 0.056
data_MOF--net-pto--node1-OLANEW_clean_sbu_2--node2-NAWXER_clean_sbu_0--edge1-KIFKEQ_clean_linker_1
_symmetry_space_group_name_H-M    P1
_symmetry_Int_Tables_number       1
_symmetry_cell_setting            triclinic
loop_
_symmetry_equiv_pos_as_xyz
'x, y, z'
_cell_length_a     45.862525
_cell_length_b     45.104245
_cell_length_c     41.797126
_cell_angle_alpha  93.032029
_cell_angle_beta   90.238104
_cell_angle_gamma 103.29286
loop_
_atom_site_label
_atom_site_type_symbol
_atom_site_fract_x
_atom_site_fract_y
_atom_site_fract_z
_atom_type_partial_charge
O0 O 0.37125 0.42051 0.27245 0.0
Cd1 Cd 0.34345 0.41875 0.32214 0.0
O2 O 0.34819 0.4496 0.24587 0.0
Cd3 Cd 0.31398 0.45192 0.28171 0.0
O4 O 0.26964 0.45708 0.29688 0.0
C5 C 0.24682 0.4361 0.28861 0.0
O6 O 0.25088 0.41132 0.27304 0.0
C7 C 0.36847 0.43464 0.24751 0.0
C8 C 0.34582 0.36515 0.35155 0.0
O9 O 0.32332 0.36664 0.33392 0.0
O10 O 0.36701 0.38914 0.35574 0.0
O11 O 0.34191 0.91634 0.81345 0.0
Cd12 Cd 0.29791 0.92124 0.78257 0.0
O13 O 0.33099 0.86677 0.80194 0.0
Cd14 Cd 0.28661 0.86213 0.7804 0.0
O15 O 0.2418 0.83297 0.7719 0.0
C16 C 0.22379 0.82779 0.79508 0.0
O17 O 0.23177 0.84197 0.82313 0.0
C18 C 0.34847 0.89052 0.81476 0.0
C19 C 0.31051 0.96441 0.7359 0.0
O20 O 0.30175 0.97141 0.7638 0.0
O21 O 0.31372 0.93715 0.73021 0.0
O22 O 0.83621 0.81029 0.29491 0.0
Cd23 Cd 0.82316 0.76489 0.25793 0.0
O24 O 0.81618 0.83721 0.26228 0.0
Cd25 Cd 0.79672 0.80257 0.22491 0.0
O26 O 0.75975 0.79612 0.19 0.0
C27 C 0.74513 0.81691 0.19252 0.0
O28 O 0.75331 0.83886 0.21494 0.0
C29 C 0.83009 0.83542 0.28823 0.0
C30 C 0.85992 0.72343 0.26238 0.0
O31 O 0.86586 0.74502 0.24298 0.0
O32 O 0.83694 0.72177 0.28014 0.0
O33 O 0.81938 0.32901 0.75334 0.0
Cd34 Cd 0.77483 0.28722 0.74452 0.0
O35 O 0.80969 0.34291 0.80286 0.0
Cd36 Cd 0.7645 0.31463 0.80673 0.0
O37 O 0.72333 0.31703 0.83191 0.0
C38 C 0.70062 0.3225 0.8179 0.0
O39 O 0.70072 0.32441 0.78664 0.0
C40 C 0.8268 0.34585 0.77883 0.0
C41 C 0.78536 0.23998 0.70297 0.0
O42 O 0.77961 0.26412 0.69215 0.0
O43 O 0.78631 0.23812 0.73344 0.0
O44 O 0.75383 0.7763 0.66259 0.0
Cd45 Cd 0.74978 0.73212 0.69538 0.0
O46 O 0.71167 0.78579 0.68064 0.0
Cd47 Cd 0.702 0.75115 0.71616 0.0
O48 O 0.68134 0.73884 0.7621 0.0
C49 C 0.65307 0.72916 0.76337 0.0
O50 O 0.63727 0.72429 0.73652 0.0
C51 C 0.73419 0.79216 0.6625 0.0
C52 C 0.80163 0.70936 0.69645 0.0
O53 O 0.78087 0.69914 0.67537 0.0
O54 O 0.79801 0.73053 0.71668 0.0
O55 O 0.78534 0.27315 0.22518 0.0
Cd56 Cd 0.73941 0.23301 0.22817 0.0
O57 O 0.75955 0.30873 0.22867 0.0
Cd58 Cd 0.7151 0.2786 0.22052 0.0
O59 O 0.67027 0.27113 0.1989 0.0
C60 C 0.66442 0.25827 0.17105 0.0
O61 O 0.68508 0.24714 0.1562 0.0
C62 C 0.78462 0.3012 0.22775 0.0
C63 C 0.74251 0.19456 0.27781 0.0
O64 O 0.74819 0.18704 0.2489 0.0
O65 O 0.73534 0.22017 0.28326 0.0
O66 O 0.27094 0.38389 0.79773 0.0
Cd67 Cd 0.23816 0.38122 0.75044 0.0
O68 O 0.31084 0.40131 0.76922 0.0
Cd69 Cd 0.28616 0.39437 0.72371 0.0
O70 O 0.27177 0.36486 0.68079 0.0
C71 C 0.25518 0.33844 0.68399 0.0
O72 O 0.24544 0.33087 0.71262 0.0
C73 C 0.29923 0.3935 0.79598 0.0
C74 C 0.20301 0.42401 0.74739 0.0
O75 O 0.19212 0.39725 0.75701 0.0
O76 O 0.23081 0.43095 0.74019 0.0
O77 O 0.3409 0.84692 0.23932 0.0
Cd78 Cd 0.30677 0.8456 0.28441 0.0
O79 O 0.30535 0.81259 0.21489 0.0
Cd80 Cd 0.28129 0.7762 0.1813 0.0
O81 O 0.24462 0.73758 0.16679 0.0
C82 C 0.2459 0.71152 0.17601 0.0
O83 O 0.27004 0.7088 0.19154 0.0
C84 C 0.33211 0.82863 0.21519 0.0
C85 C 0.30604 0.90163 0.31549 0.0
O86 O 0.32708 0.88805 0.32091 0.0
O87 O 0.28564 0.88912 0.29478 0.0
C88 C 0.96911 0.47367 0.22794 0.0
C89 C 0.05487 0.55744 0.21018 0.0
O90 O 0.97919 0.4887 0.25414 0.0
Zn91 Zn 0.0145 0.52743 0.26852 0.0
O92 O 0.9814 0.4819 0.20169 0.0
Zn93 Zn 0.01146 0.51648 0.21867 0.0
O94 O 0.04158 0.49587 0.2451 0.0
O95 O 0.03979 0.51064 0.29609 0.0
O96 O 0.03889 0.53951 0.18905 0.0
O97 O 0.04791 0.55531 0.23981 0.0
O98 O 0.9936 0.55638 0.28739 0.0
O99 O 0.98657 0.54944 0.23508 0.0
C100 C 0.05055 0.49582 0.27423 0.0
C101 C 0.98182 0.56274 0.26184 0.0
C102 C 0.98485 0.54109 0.77627 0.0
C103 C 0.05345 0.64151 0.77604 0.0
O104 O 0.99386 0.55927 0.80045 0.0
Zn105 Zn 0.01844 0.59177 0.77708 0.0
O106 O 0.99289 0.5492 0.74812 0.0
Zn107 Zn 0.01986 0.58756 0.72604 0.0
O108 O 0.04912 0.56857 0.70512 0.0
O109 O 0.05268 0.57072 0.75798 0.0
O110 O 0.04697 0.62903 0.74782 0.0
O111 O 0.0419 0.62763 0.80027 0.0
O112 O 0.9855 0.6093 0.75253 0.0
O113 O 0.99093 0.602 0.70054 0.0
C114 C 0.06187 0.56306 0.73051 0.0
C115 C 0.9772 0.61185 0.72367 0.0
C116 C 0.32626 0.10423 0.55328 0.0
C117 C 0.34027 0.17416 0.46642 0.0
O118 O 0.30169 0.10406 0.53839 0.0
Zn119 Zn 0.28736 0.12544 0.4982 0.0
O120 O 0.35069 0.12076 0.54392 0.0
Zn121 Zn 0.33413 0.13816 0.5088 0.0
O122 O 0.3074 0.1657 0.53254 0.0
O123 O 0.26001 0.1476 0.51804 0.0
O124 O 0.36039 0.16872 0.48475 0.0
O125 O 0.31299 0.15942 0.4689 0.0
O126 O 0.27172 0.09201 0.46747 0.0
O127 O 0.32061 0.09984 0.47511 0.0
C128 C 0.27987 0.16728 0.53392 0.0
C129 C 0.29631 0.08465 0.46135 0.0
C130 C 0.57343 0.8237 0.04267 0.0
C131 C 0.50073 0.84195 0.96494 0.0
O132 O 0.55334 0.7994 0.03502 0.0
Zn133 Zn 0.51401 0.7867 0.00424 0.0
O134 O 0.57207 0.84859 0.03053 0.0
Zn135 Zn 0.53685 0.83315 0.00417 0.0
O136 O 0.50163 0.82309 0.03852 0.0
O137 O 0.48171 0.77365 0.0335 0.0
O138 O 0.52324 0.86107 0.97728 0.0
O139 O 0.49523 0.81418 0.97302 0.0
O140 O 0.52408 0.75656 0.97434 0.0
O141 O 0.55191 0.803 0.96969 0.0
C142 C 0.48226 0.79965 0.04708 0.0
C143 C 0.54524 0.77456 0.96074 0.0
C144 C 0.76119 0.97833 0.53123 0.0
C145 C 0.76178 0.05633 0.45471 0.0
O146 O 0.73911 0.98452 0.51674 0.0
Zn147 Zn 0.76128 0.01828 0.4941 0.0
O148 O 0.78766 0.99471 0.52728 0.0
Zn149 Zn 0.80832 0.03299 0.49973 0.0
O150 O 0.8254 0.0649 0.53175 0.0
O151 O 0.77598 0.05345 0.53135 0.0
O152 O 0.78814 0.05728 0.46585 0.0
O153 O 0.7395 0.03694 0.46468 0.0
O154 O 0.7871 0.99627 0.46185 0.0
O155 O 0.83509 0.01501 0.47303 0.0
C156 C 0.80098 0.06932 0.54304 0.0
C157 C 0.81469 0.99683 0.45631 0.0
C158 C 0.51271 0.32018 0.03328 0.0
C159 C 0.4459 0.35537 0.96003 0.0
O160 O 0.49008 0.3038 0.01808 0.0
Zn161 Zn 0.47954 0.33677 -0.00411 0.0
O162 O 0.52045 0.34888 0.02909 0.0
Zn163 Zn 0.5061 0.38214 0.00167 0.0
O164 O 0.498 0.4102 0.03523 0.0
O165 O 0.46794 0.36428 0.0353 0.0
O166 O 0.46786 0.37683 0.97044 0.0
O167 O 0.444 0.32841 0.96866 0.0
O168 O 0.51575 0.34751 0.96306 0.0
O169 O 0.53998 0.39517 0.97425 0.0
C170 C 0.47657 0.39155 0.04774 0.0
C171 C 0.53728 0.37029 0.95754 0.0
H172 H 0.19372 0.39696 0.27078 0.0
H173 H 0.23039 0.48626 0.31599 0.0
H174 H 0.14378 0.40713 0.27208 0.0
H175 H 0.18048 0.49657 0.31681 0.0
H176 H 0.08382 0.50112 0.32986 0.0
H177 H 0.12948 0.48307 0.33826 0.0
H178 H 0.12003 0.44065 0.24251 0.0
H179 H 0.07444 0.45823 0.23428 0.0
C180 C 0.19112 0.41865 0.28131 0.0
C181 C 0.21614 0.44093 0.29298 0.0
C182 C 0.16248 0.42451 0.28192 0.0
C183 C 0.15816 0.45275 0.29427 0.0
C184 C 0.18296 0.47446 0.30738 0.0
C185 C 0.21163 0.46862 0.30672 0.0
C186 C 0.09119 0.48744 0.31085 0.0
C187 C 0.07556 0.48127 0.28133 0.0
C188 C 0.11747 0.4773 0.31558 0.0
C189 C 0.12852 0.46058 0.291 0.0
C190 C 0.11203 0.45319 0.26209 0.0
C191 C 0.08593 0.46344 0.25731 0.0
H192 H 0.17914 0.81269 0.83868 0.0
H193 H 0.20537 0.78779 0.74366 0.0
H194 H 0.13528 0.7701 0.83447 0.0
H195 H 0.16229 0.74477 0.73987 0.0
H196 H 0.07152 0.68216 0.73019 0.0
H197 H 0.10955 0.72967 0.73481 0.0
H198 H 0.12326 0.71566 0.83476 0.0
H199 H 0.08424 0.66855 0.83034 0.0
C200 C 0.17549 0.79822 0.81684 0.0
C201 C 0.19581 0.80362 0.79153 0.0
C202 C 0.15045 0.77365 0.81452 0.0
C203 C 0.14524 0.75383 0.7869 0.0
C204 C 0.16524 0.75976 0.76132 0.0
C205 C 0.19011 0.7844 0.76355 0.0
C206 C 0.08248 0.68933 0.75324 0.0
C207 C 0.07504 0.67145 0.77985 0.0
C208 C 0.10444 0.71652 0.75585 0.0
C209 C 0.11982 0.7264 0.78505 0.0
C210 C 0.1117 0.70897 0.81196 0.0
C211 C 0.08944 0.68186 0.80942 0.0
H212 H 0.85489 0.6769 0.30303 0.0
H213 H 0.90696 0.71807 0.22424 0.0
H214 H 0.88416 0.63802 0.30336 0.0
H215 H 0.93635 0.67938 0.2248 0.0
H216 H 0.95795 0.58526 0.21096 0.0
H217 H 0.92888 0.62422 0.21191 0.0
H218 H 0.93534 0.63212 0.31524 0.0
H219 H 0.96425 0.59287 0.31439 0.0
C220 C 0.87268 0.67778 0.2859 0.0
C221 C 0.87853 0.70058 0.26357 0.0
C222 C 0.88955 0.65556 0.2862 0.0
C223 C 0.91252 0.65552 0.26403 0.0
C224 C 0.91855 0.67852 0.24192 0.0
C225 C 0.90182 0.70082 0.24174 0.0
C226 C 0.95312 0.5952 0.23393 0.0
C227 C 0.96347 0.58591 0.26261 0.0
C228 C 0.93662 0.61771 0.23444 0.0
C229 C 0.92989 0.63139 0.26364 0.0
C230 C 0.93993 0.62186 0.29236 0.0
C231 C 0.95661 0.59946 0.29185 0.0
H232 H 0.85686 0.37655 0.83167 0.0
H233 H 0.85782 0.37244 0.72823 0.0
H234 H 0.89825 0.42153 0.83325 0.0
H235 H 0.89797 0.41819 0.72961 0.0
H236 H 0.98214 0.49041 0.73761 0.0
H237 H 0.94791 0.44078 0.74024 0.0
H238 H 0.90788 0.47365 0.8245 0.0
H239 H 0.94359 0.52288 0.82273 0.0
C240 C 0.86603 0.38521 0.80925 0.0
C241 C 0.85405 0.37097 0.77981 0.0
C242 C 0.88959 0.4112 0.81014 0.0
C243 C 0.90144 0.42386 0.78159 0.0
C244 C 0.88993 0.40897 0.75216 0.0
C245 C 0.86673 0.38271 0.7513 0.0
C246 C 0.96617 0.48689 0.75687 0.0
C247 C 0.96531 0.51054 0.77982 0.0
C248 C 0.94636 0.45846 0.75827 0.0
C249 C 0.92466 0.45313 0.78227 0.0
C250 C 0.92444 0.47665 0.80585 0.0
C251 C 0.94478 0.50498 0.8048 0.0
H252 H 0.29995 0.31596 0.36008 0.0
H253 H 0.39512 0.34953 0.37648 0.0
H254 H 0.30193 0.2691 0.38512 0.0
H255 H 0.39758 0.30184 0.40011 0.0
H256 H 0.38209 0.22792 0.47509 0.0
H257 H 0.38531 0.27376 0.44562 0.0
H258 H 0.31681 0.22338 0.37919 0.0
H259 H 0.31253 0.17828 0.40991 0.0
C260 C 0.3214 0.31313 0.36872 0.0
C261 C 0.34733 0.33647 0.3664 0.0
C262 C 0.32265 0.28607 0.38283 0.0
C263 C 0.35001 0.28134 0.39449 0.0
C264 C 0.37605 0.30469 0.39185 0.0
C265 C 0.37468 0.33202 0.37817 0.0
C266 C 0.3682 0.22659 0.4538 0.0
C267 C 0.34691 0.19967 0.44489 0.0
C268 C 0.37001 0.25289 0.43682 0.0
C269 C 0.35089 0.2526 0.41026 0.0
C270 C 0.3312 0.22487 0.40009 0.0
C271 C 0.32897 0.19886 0.41744 0.0
H272 H 0.38167 0.93019 0.86062 0.0
H273 H 0.37554 0.84288 0.81003 0.0
H274 H 0.42086 0.92028 0.89569 0.0
H275 H 0.415 0.83342 0.84422 0.0
H276 H 0.44985 0.80667 0.93725 0.0
H277 H 0.41619 0.82096 0.89926 0.0
H278 H 0.47206 0.91234 0.90084 0.0
H279 H 0.50577 0.8981 0.93982 0.0
C280 C 0.38911 0.90921 0.85656 0.0
C281 C 0.3752 0.88712 0.83288 0.0
C282 C 0.4116 0.90355 0.87659 0.0
C283 C 0.42066 0.8758 0.87314 0.0
C284 C 0.40799 0.85466 0.84811 0.0
C285 C 0.38546 0.86017 0.82837 0.0
C286 C 0.45513 0.82982 0.92953 0.0
C287 C 0.48061 0.8512 0.94153 0.0
C288 C 0.43588 0.83797 0.90749 0.0
C289 C 0.4416 0.86771 0.89666 0.0
C290 C 0.46697 0.88927 0.9088 0.0
C291 C 0.48632 0.88108 0.93101 0.0
H292 H 0.85018 0.83869 0.35088 0.0
H293 H 0.82359 0.89278 0.27857 0.0
H294 H 0.85155 0.88065 0.39108 0.0
H295 H 0.82497 0.93422 0.31853 0.0
H296 H 0.77926 0.9704 0.40582 0.0
H297 H 0.78896 0.93392 0.36474 0.0
H298 H 0.87591 0.93864 0.4074 0.0
H299 H 0.86626 0.97584 0.4489 0.0
C300 C 0.84528 0.85967 0.3434 0.0
C301 C 0.83629 0.86214 0.3116 0.0
C302 C 0.84615 0.8837 0.3664 0.0
C303 C 0.83794 0.91047 0.35795 0.0
C304 C 0.83096 0.91365 0.32578 0.0
C305 C 0.83021 0.88984 0.30289 0.0
C306 C 0.80057 0.9639 0.40643 0.0
C307 C 0.82201 0.97602 0.4306 0.0
C308 C 0.80618 0.94311 0.38276 0.0
C309 C 0.83325 0.93357 0.38279 0.0
C310 C 0.85485 0.94564 0.40688 0.0
C311 C 0.8494 0.96699 0.43044 0.0
H312 H 0.7 0.3353 0.88242 0.0
H313 H 0.64504 0.32609 0.7966 0.0
H314 H 0.65999 0.34934 0.91372 0.0
H315 H 0.60481 0.3399 0.8282 0.0
H316 H 0.53151 0.32656 0.90884 0.0
H317 H 0.57057 0.31612 0.87339 0.0
H318 H 0.63358 0.39395 0.91713 0.0
H319 H 0.59443 0.40466 0.95251 0.0
C320 C 0.67933 0.33609 0.87024 0.0
C321 C 0.67568 0.32951 0.83701 0.0
C322 C 0.65654 0.34442 0.88815 0.0
C323 C 0.62942 0.34593 0.87333 0.0
C324 C 0.62551 0.33888 0.84021 0.0
C325 C 0.64852 0.331 0.82216 0.0
C326 C 0.55359 0.34171 0.91061 0.0
C327 C 0.55993 0.36637 0.93356 0.0
C328 C 0.57589 0.33576 0.89023 0.0
C329 C 0.60511 0.35408 0.89271 0.0
C330 C 0.61127 0.3793 0.91496 0.0
C331 C 0.58883 0.38555 0.93502 0.0
H332 H 0.33944 0.96096 0.6792 0.0
H333 H 0.29307 0.01835 0.73539 0.0
H334 H 0.34527 0.99651 0.63618 0.0
H335 H 0.29863 0.0536 0.6922 0.0
H336 H 0.27818 0.08008 0.5893 0.0
H337 H 0.2766 0.048 0.63474 0.0
H338 H 0.37129 0.05292 0.62588 0.0
H339 H 0.37307 0.08551 0.58044 0.0
C340 C 0.33066 0.98123 0.68244 0.0
C341 C 0.31569 0.98679 0.71064 0.0
C342 C 0.33414 0.00163 0.65789 0.0
C343 C 0.32231 0.02772 0.66085 0.0
C344 C 0.30778 0.03354 0.68923 0.0
C345 C 0.30471 0.01341 0.71398 0.0
C346 C 0.29872 0.07443 0.59706 0.0
C347 C 0.32576 0.08529 0.58124 0.0
C348 C 0.29782 0.05622 0.6232 0.0
C349 C 0.32382 0.04804 0.63383 0.0
C350 C 0.3509 0.05882 0.61806 0.0
C351 C 0.35192 0.07753 0.59218 0.0
H352 H 0.72155 0.77526 0.14339 0.0
H353 H 0.71099 0.85897 0.19214 0.0
H354 H 0.68004 0.77667 0.10701 0.0
H355 H 0.66945 0.86008 0.15628 0.0
H356 H 0.61927 0.87073 0.06464 0.0
H357 H 0.66075 0.8684 0.10031 0.0
H358 H 0.62546 0.77154 0.10689 0.0
H359 H 0.58418 0.77373 0.07079 0.0
C360 C 0.71034 0.79387 0.14642 0.0
C361 C 0.71966 0.81704 0.17061 0.0
C362 C 0.68646 0.7946 0.12569 0.0
C363 C 0.6715 0.81856 0.12867 0.0
C364 C 0.68076 0.84156 0.153 0.0
C365 C 0.70451 0.8408 0.17371 0.0
C366 C 0.62031 0.84893 0.07371 0.0
C367 C 0.59834 0.82244 0.06489 0.0
C368 C 0.64403 0.84761 0.09428 0.0
C369 C 0.6464 0.81978 0.10649 0.0
C370 C 0.62448 0.79327 0.09762 0.0
C371 C 0.6007 0.79459 0.0771 0.0
H372 H 0.8011 0.24281 0.64006 0.0
H373 H 0.78035 0.18025 0.71591 0.0
H374 H 0.80732 0.20089 0.60305 0.0
H375 H 0.78592 0.13824 0.67859 0.0
H376 H 0.75675 0.07247 0.58556 0.0
H377 H 0.75523 0.11343 0.62582 0.0
H378 H 0.84313 0.1618 0.59811 0.0
H379 H 0.84503 0.12045 0.55821 0.0
C380 C 0.79793 0.22014 0.64883 0.0
C381 C 0.79018 0.21481 0.68088 0.0
C382 C 0.80165 0.19622 0.6277 0.0
C383 C 0.79709 0.16638 0.63801 0.0
C384 C 0.78948 0.16104 0.67006 0.0
C385 C 0.78639 0.18508 0.69139 0.0
C386 C 0.77587 0.0917 0.58825 0.0
C387 C 0.80101 0.09326 0.56871 0.0
C388 C 0.77504 0.11505 0.61137 0.0
C389 C 0.79904 0.14075 0.61498 0.0
C390 C 0.8243 0.14225 0.59568 0.0
C391 C 0.82543 0.11855 0.573 0.0
H392 H 0.40767 0.39768 0.23941 0.0
H393 H 0.37296 0.46582 0.19242 0.0
H394 H 0.43589 0.38984 0.19171 0.0
H395 H 0.40145 0.45787 0.14462 0.0
H396 H 0.47994 0.44906 0.07525 0.0
H397 H 0.45612 0.46236 0.1248 0.0
H398 H 0.41744 0.36689 0.1363 0.0
H399 H 0.44079 0.35361 0.08718 0.0
C400 C 0.4063 0.41124 0.21907 0.0
C401 C 0.3878 0.43217 0.21964 0.0
C402 C 0.4224 0.40665 0.19172 0.0
C403 C 0.42063 0.42307 0.16443 0.0
C404 C 0.40328 0.44501 0.16541 0.0
C405 C 0.38687 0.4494 0.1927 0.0
C406 C 0.46633 0.43098 0.0884 0.0
C407 C 0.46221 0.4003 0.07728 0.0
C408 C 0.45267 0.4386 0.11664 0.0
C409 C 0.43516 0.41562 0.13444 0.0
C410 C 0.43114 0.38504 0.12328 0.0
C411 C 0.44436 0.37748 0.09498 0.0
H412 H 0.81445 0.66218 0.6593 0.0
H413 H 0.84982 0.72744 0.7373 0.0
H414 H 0.8574 0.63915 0.66442 0.0
H415 H 0.89293 0.70489 0.74194 0.0
H416 H 0.94366 0.634 0.76855 0.0
H417 H 0.90225 0.65803 0.76024 0.0
H418 H 0.91179 0.64745 0.65776 0.0
H419 H 0.95323 0.62267 0.66609 0.0
C420 C 0.83152 0.67181 0.67733 0.0
C421 C 0.82858 0.69652 0.69805 0.0
C422 C 0.85623 0.6587 0.68013 0.0
C423 C 0.87852 0.67001 0.70375 0.0
C424 C 0.87591 0.69524 0.72387 0.0
C425 C 0.85125 0.7083 0.72109 0.0
C426 C 0.93704 0.63676 0.74418 0.0
C427 C 0.95187 0.62642 0.71797 0.0
C428 C 0.91336 0.65077 0.73943 0.0
C429 C 0.90381 0.65494 0.70834 0.0
C430 C 0.91845 0.64442 0.68203 0.0
C431 C 0.94228 0.63034 0.6868 0.0
H432 H 0.84115 0.29626 0.21078 0.0
H433 H 0.79149 0.36096 0.24756 0.0
H434 H 0.88681 0.33717 0.21116 0.0
H435 H 0.83698 0.40148 0.24815 0.0
H436 H 0.93081 0.45767 0.27715 0.0
H437 H 0.88725 0.41489 0.27794 0.0
H438 H 0.90505 0.38669 0.1811 0.0
H439 H 0.94867 0.42972 0.18009 0.0
C440 C 0.84001 0.31911 0.21913 0.0
C441 C 0.81269 0.32537 0.22912 0.0
C442 C 0.86608 0.34251 0.21916 0.0
C443 C 0.8654 0.37246 0.22971 0.0
C444 C 0.83821 0.37856 0.24015 0.0
C445 C 0.81213 0.35535 0.23967 0.0
C446 C 0.92555 0.44232 0.25603 0.0
C447 C 0.94314 0.44718 0.2285 0.0
C448 C 0.90054 0.41789 0.25648 0.0
C449 C 0.89277 0.39752 0.22957 0.0
C450 C 0.91067 0.40194 0.20225 0.0
C451 C 0.9355 0.42667 0.20163 0.0
H452 H 0.14226 0.41108 0.74002 0.0
H453 H 0.2203 0.48614 0.74572 0.0
H454 H 0.11036 0.44685 0.73231 0.0
H455 H 0.18811 0.52198 0.73884 0.0
H456 H 0.10747 0.56751 0.77349 0.0
H457 H 0.14357 0.53524 0.77531 0.0
H458 H 0.10561 0.48697 0.68744 0.0
H459 H 0.06987 0.51986 0.68509 0.0
C460 C 0.15257 0.43522 0.73979 0.0
C461 C 0.18376 0.44584 0.74358 0.0
C462 C 0.13435 0.45561 0.7351 0.0
C463 C 0.14687 0.48707 0.7348 0.0
C464 C 0.17799 0.49779 0.73892 0.0
C465 C 0.19633 0.47731 0.74287 0.0
C466 C 0.10719 0.55037 0.75426 0.0
C467 C 0.0859 0.54615 0.72914 0.0
C468 C 0.12786 0.532 0.75528 0.0
C469 C 0.1272 0.50861 0.7316 0.0
C470 C 0.10644 0.50484 0.70602 0.0
C471 C 0.08619 0.52373 0.70458 0.0
H472 H 0.23918 0.65563 0.20068 0.0
H473 H 0.19166 0.70959 0.14693 0.0
H474 H 0.19294 0.61673 0.20492 0.0
H475 H 0.1453 0.67034 0.15122 0.0
H476 H 0.0726 0.57713 0.15051 0.0
H477 H 0.11974 0.61248 0.1372 0.0
H478 H 0.14665 0.62175 0.23699 0.0
H479 H 0.10003 0.58708 0.25034 0.0
C480 C 0.21901 0.659 0.18929 0.0
C481 C 0.21902 0.68594 0.17389 0.0
C482 C 0.19253 0.63673 0.19182 0.0
C483 C 0.16554 0.64077 0.17876 0.0
C484 C 0.16584 0.66668 0.16146 0.0
C485 C 0.19235 0.68916 0.15914 0.0
C486 C 0.08861 0.58682 0.16954 0.0
C487 C 0.08256 0.57937 0.20147 0.0
C488 C 0.11548 0.60701 0.16192 0.0
C489 C 0.1369 0.61951 0.18604 0.0
C490 C 0.13073 0.61207 0.21786 0.0
C491 C 0.10386 0.5924 0.22551 0.0
H492 H 0.69684 0.83104 0.6581 0.0
H493 H 0.77959 0.81372 0.62116 0.0
H494 H 0.70335 0.87599 0.6269 0.0
H495 H 0.78575 0.8585 0.58928 0.0
H496 H 0.80362 0.95901 0.56545 0.0
H497 H 0.79688 0.9138 0.59653 0.0
H498 H 0.70237 0.89107 0.57243 0.0
H499 H 0.70896 0.93665 0.5419 0.0
C500 C 0.71633 0.83666 0.64312 0.0
C501 C 0.73773 0.81873 0.64221 0.0
C502 C 0.71997 0.8624 0.62507 0.0
C503 C 0.74507 0.87091 0.60559 0.0
C504 C 0.76635 0.85283 0.60439 0.0
C505 C 0.76272 0.82703 0.62249 0.0
C506 C 0.78135 0.94447 0.5669 0.0
C507 C 0.75681 0.95152 0.55123 0.0
C508 C 0.77755 0.91838 0.58451 0.0
C509 C 0.74911 0.8987 0.58686 0.0
C510 C 0.72452 0.9059 0.57141 0.0
C511 C 0.72832 0.93201 0.55382 0.0
H512 H 0.62007 0.28533 0.1926 0.0
H513 H 0.64608 0.236 0.11017 0.0
H514 H 0.57899 0.29587 0.16137 0.0
H515 H 0.60495 0.24678 0.07893 0.0
H516 H 0.5158 0.26018 0.03685 0.0
H517 H 0.5483 0.23997 0.07263 0.0
H518 H 0.58197 0.33045 0.11619 0.0
H519 H 0.54995 0.35047 0.08082 0.0
C520 C 0.61677 0.27629 0.16799 0.0
C521 C 0.63668 0.26022 0.15375 0.0
C522 C 0.59326 0.28241 0.15008 0.0
C523 C 0.589 0.27248 0.1176 0.0
C524 C 0.60761 0.25463 0.10394 0.0
C525 C 0.63127 0.24861 0.12183 0.0
C526 C 0.52994 0.2756 0.05433 0.0
C527 C 0.53044 0.30693 0.05591 0.0
C528 C 0.54858 0.26407 0.07467 0.0
C529 C 0.56755 0.28361 0.0973 0.0
C530 C 0.56732 0.31473 0.09936 0.0
C531 C 0.54913 0.32625 0.07885 0.0
H532 H 0.27868 0.34436 0.62402 0.0
H533 H 0.22333 0.27915 0.68361 0.0
H534 H 0.28008 0.30347 0.58393 0.0
H535 H 0.22501 0.23827 0.64351 0.0
H536 H 0.22427 0.17355 0.5537 0.0
H537 H 0.21288 0.2164 0.58611 0.0
H538 H 0.30683 0.26143 0.5888 0.0
H539 H 0.31816 0.21918 0.55687 0.0
C540 C 0.26634 0.32143 0.62833 0.0
C541 C 0.25135 0.31493 0.65727 0.0
C542 C 0.26724 0.29801 0.6054 0.0
C543 C 0.25304 0.26765 0.61086 0.0
C544 C 0.2361 0.26147 0.63864 0.0
C545 C 0.23531 0.28489 0.66168 0.0
C546 C 0.24238 0.19271 0.56114 0.0
C547 C 0.27212 0.19289 0.55292 0.0
C548 C 0.23588 0.21715 0.57966 0.0
C549 C 0.25894 0.24234 0.5897 0.0
C550 C 0.28851 0.2426 0.58097 0.0
C551 C 0.29503 0.21818 0.56294 0.0
H552 H 0.3929 0.84477 0.21937 0.0
H553 H 0.3203 0.80499 0.15296 0.0
H554 H 0.42894 0.83732 0.17889 0.0
H555 H 0.35646 0.79679 0.11273 0.0
H556 H 0.43194 0.75791 0.06402 0.0
H557 H 0.39513 0.76514 0.10415 0.0
H558 H 0.44597 0.85719 0.12609 0.0
H559 H 0.4827 0.85006 0.08625 0.0
C560 C 0.38456 0.8344 0.19615 0.0
C561 C 0.35359 0.82487 0.18971 0.0
C562 C 0.40526 0.83015 0.17296 0.0
C563 C 0.39552 0.81623 0.14274 0.0
C564 C 0.3646 0.80701 0.13607 0.0
C565 C 0.34385 0.81151 0.15924 0.0
C566 C 0.43531 0.77963 0.07751 0.0
C567 C 0.46029 0.80338 0.07199 0.0
C568 C 0.41412 0.78383 0.1003 0.0
C569 C 0.41768 0.81173 0.11824 0.0
C570 C 0.44277 0.83534 0.11285 0.0
C571 C 0.46375 0.83127 0.08992 0.0
H572 H 0.74019 0.13341 0.27323 0.0
H573 H 0.74898 0.2101 0.3419 0.0
H574 H 0.74346 0.10012 0.31688 0.0
H575 H 0.75293 0.17686 0.38539 0.0
H576 H 0.79869 0.11091 0.442 0.0
H577 H 0.79291 0.14467 0.39965 0.0
H578 H 0.71048 0.08229 0.36815 0.0
H579 H 0.71582 0.04874 0.41096 0.0
C580 C 0.74288 0.14315 0.29761 0.0
C581 C 0.74433 0.17436 0.30416 0.0
C582 C 0.74459 0.12409 0.32254 0.0
C583 C 0.74844 0.13599 0.35441 0.0
C584 C 0.75007 0.16719 0.36098 0.0
C585 C 0.74771 0.18613 0.33612 0.0
C586 C 0.77925 0.10448 0.42615 0.0
C587 C 0.75769 0.0772 0.42979 0.0
C588 C 0.77591 0.12384 0.40204 0.0
C589 C 0.75129 0.11599 0.38068 0.0
C590 C 0.72973 0.08874 0.38427 0.0
C591 C 0.73272 0.06968 0.40883 0.0
H592 H 0.35927 0.41824 0.80205 0.0
H593 H 0.28445 0.36563 0.85239 0.0
H594 H 0.3934 0.41019 0.84367 0.0
H595 H 0.31879 0.35785 0.89439 0.0
H596 H 0.39494 0.31653 0.93482 0.0
H597 H 0.35815 0.32844 0.8981 0.0
H598 H 0.40808 0.42222 0.89996 0.0
H599 H 0.44497 0.41034 0.93619 0.0
C600 C 0.35002 0.40537 0.82229 0.0
C601 C 0.31911 0.39247 0.82378 0.0
C602 C 0.36962 0.40084 0.84623 0.0
C603 C 0.35885 0.38318 0.87224 0.0
C604 C 0.32781 0.37122 0.87442 0.0
C605 C 0.30812 0.37594 0.85052 0.0
C606 C 0.39802 0.33969 0.92745 0.0
C607 C 0.42303 0.3624 0.93829 0.0
C608 C 0.37681 0.34658 0.90662 0.0
C609 C 0.3802 0.37628 0.89609 0.0
C610 C 0.40498 0.39904 0.90732 0.0
C611 C 0.42609 0.39221 0.92818 0.0
H612 H 0.25647 0.92306 0.32993 0.0
H613 H 0.35259 0.94435 0.34256 0.0
H614 H 0.2537 0.96741 0.36457 0.0
H615 H 0.35034 0.98995 0.37529 0.0
H616 H 0.33615 0.04859 0.46167 0.0
H617 H 0.33806 0.00525 0.42548 0.0
H618 H 0.26157 0.0196 0.3726 0.0
H619 H 0.25861 0.0618 0.41052 0.0
C620 C 0.27708 0.93766 0.33963 0.0
C621 C 0.30472 0.93019 0.33379 0.0
C622 C 0.27556 0.96326 0.35939 0.0
C623 C 0.30177 0.98239 0.37319 0.0
C624 C 0.32954 0.97542 0.36605 0.0
C625 C 0.33093 0.94942 0.34698 0.0
C626 C 0.31973 0.0424 0.44231 0.0
C627 C 0.29723 0.05851 0.43889 0.0
C628 C 0.32096 0.01767 0.42126 0.0
C629 C 0.30016 0.00884 0.39567 0.0
C630 C 0.27771 0.02523 0.39222 0.0
C631 C 0.27606 0.04957 0.41383 0.0
H632 H 0.67868 0.74437 0.823 0.0
H633 H 0.59292 0.7122 0.7745 0.0
H634 H 0.65324 0.75058 0.87316 0.0
H635 H 0.56755 0.71874 0.82467 0.0
H636 H 0.5311 0.71927 0.92654 0.0
H637 H 0.55797 0.70268 0.88092 0.0
H638 H 0.62393 0.78824 0.88988 0.0
H639 H 0.59742 0.80467 0.93519 0.0
C640 C 0.65442 0.73817 0.8231 0.0
C641 C 0.63783 0.72819 0.79462 0.0
C642 C 0.63986 0.74186 0.85183 0.0
C643 C 0.60841 0.73554 0.85276 0.0
C644 C 0.59181 0.72369 0.82476 0.0
C645 C 0.60638 0.7201 0.79596 0.0
C646 C 0.5515 0.73436 0.91892 0.0
C647 C 0.56204 0.76334 0.93437 0.0
C648 C 0.5668 0.72491 0.89276 0.0
C649 C 0.59311 0.74411 0.88189 0.0
C650 C 0.60398 0.77272 0.89794 0.0
C651 C 0.58861 0.78225 0.92377 0.0
loop_
_geom_bond_atom_site_label_1
_geom_bond_atom_site_label_2
_geom_bond_distance
_geom_bond_site_symmetry_2
_ccdc_geom_bond_type
O0 Cd1 2.300 . S
O0 C7 1.275 . S
Cd1 O0 2.300 . S
Cd1 O9 2.381 . S
Cd1 O10 2.378 . S
O2 Cd3 2.385 . S
O2 C7 1.255 . S
Cd3 O2 2.385 . S
Cd3 O4 2.317 . S
O4 Cd3 2.317 . S
O4 C5 1.232 . S
C5 O4 1.232 . S
C5 O6 1.218 . S
O6 C5 1.218 . S
C7 O0 1.275 . S
C7 O2 1.255 . S
C8 O9 1.258 . S
C8 O10 1.256 . S
O9 Cd1 2.381 . S
O9 C8 1.258 . S
O10 Cd1 2.378 . S
O10 C8 1.256 . S
O11 Cd12 2.300 . S
O11 C18 1.275 . S
Cd12 O11 2.300 . S
Cd12 O20 2.381 . S
Cd12 O21 2.378 . S
O13 Cd14 2.385 . S
O13 C18 1.255 . S
Cd14 O13 2.385 . S
Cd14 O15 2.317 . S
O15 Cd14 2.317 . S
O15 C16 1.232 . S
C16 O15 1.232 . S
C16 O17 1.218 . S
O17 C16 1.218 . S
C18 O11 1.275 . S
C18 O13 1.255 . S
C19 O20 1.258 . S
C19 O21 1.256 . S
O20 Cd12 2.381 . S
O20 C19 1.258 . S
O21 Cd12 2.378 . S
O21 C19 1.256 . S
O22 Cd23 2.300 . S
O22 C29 1.275 . S
Cd23 O22 2.300 . S
Cd23 O31 2.381 . S
Cd23 O32 2.378 . S
O24 Cd25 2.385 . S
O24 C29 1.255 . S
Cd25 O24 2.385 . S
Cd25 O26 2.317 . S
O26 Cd25 2.317 . S
O26 C27 1.232 . S
C27 O26 1.232 . S
C27 O28 1.218 . S
O28 C27 1.218 . S
C29 O22 1.275 . S
C29 O24 1.255 . S
C30 O31 1.258 . S
C30 O32 1.256 . S
O31 Cd23 2.381 . S
O31 C30 1.258 . S
O32 Cd23 2.378 . S
O32 C30 1.256 . S
O33 Cd34 2.300 . S
O33 C40 1.275 . S
Cd34 O33 2.300 . S
Cd34 O42 2.381 . S
Cd34 O43 2.378 . S
O35 Cd36 2.385 . S
O35 C40 1.255 . S
Cd36 O35 2.385 . S
Cd36 O37 2.317 . S
O37 Cd36 2.317 . S
O37 C38 1.232 . S
C38 O37 1.232 . S
C38 O39 1.218 . S
O39 C38 1.218 . S
C40 O33 1.275 . S
C40 O35 1.255 . S
C41 O42 1.258 . S
C41 O43 1.256 . S
O42 Cd34 2.381 . S
O42 C41 1.258 . S
O43 Cd34 2.378 . S
O43 C41 1.256 . S
O44 Cd45 2.300 . S
O44 C51 1.275 . S
Cd45 O44 2.300 . S
Cd45 O53 2.381 . S
Cd45 O54 2.378 . S
O46 Cd47 2.385 . S
O46 C51 1.255 . S
Cd47 O46 2.385 . S
Cd47 O48 2.317 . S
O48 Cd47 2.317 . S
O48 C49 1.232 . S
C49 O48 1.232 . S
C49 O50 1.218 . S
O50 C49 1.218 . S
C51 O44 1.275 . S
C51 O46 1.255 . S
C52 O53 1.258 . S
C52 O54 1.256 . S
O53 Cd45 2.381 . S
O53 C52 1.258 . S
O54 Cd45 2.378 . S
O54 C52 1.256 . S
O55 Cd56 2.300 . S
O55 C62 1.275 . S
Cd56 O55 2.300 . S
Cd56 O64 2.381 . S
Cd56 O65 2.378 . S
O57 Cd58 2.385 . S
O57 C62 1.255 . S
Cd58 O57 2.385 . S
Cd58 O59 2.317 . S
O59 Cd58 2.317 . S
O59 C60 1.232 . S
C60 O59 1.232 . S
C60 O61 1.218 . S
O61 C60 1.218 . S
C62 O55 1.275 . S
C62 O57 1.255 . S
C63 O64 1.258 . S
C63 O65 1.256 . S
O64 Cd56 2.381 . S
O64 C63 1.258 . S
O65 Cd56 2.378 . S
O65 C63 1.256 . S
O66 Cd67 2.300 . S
O66 C73 1.275 . S
Cd67 O66 2.300 . S
Cd67 O75 2.381 . S
Cd67 O76 2.378 . S
O68 Cd69 2.385 . S
O68 C73 1.255 . S
Cd69 O68 2.385 . S
Cd69 O70 2.317 . S
O70 Cd69 2.317 . S
O70 C71 1.232 . S
C71 O70 1.232 . S
C71 O72 1.218 . S
O72 C71 1.218 . S
C73 O66 1.275 . S
C73 O68 1.255 . S
C74 O75 1.258 . S
C74 O76 1.256 . S
O75 Cd67 2.381 . S
O75 C74 1.258 . S
O76 Cd67 2.378 . S
O76 C74 1.256 . S
O77 Cd78 2.300 . S
O77 C84 1.275 . S
Cd78 O77 2.300 . S
Cd78 O86 2.381 . S
Cd78 O87 2.378 . S
O79 Cd80 2.385 . S
O79 C84 1.255 . S
Cd80 O79 2.385 . S
Cd80 O81 2.317 . S
O81 Cd80 2.317 . S
O81 C82 1.232 . S
C82 O81 1.232 . S
C82 O83 1.218 . S
O83 C82 1.218 . S
C84 O77 1.275 . S
C84 O79 1.255 . S
C85 O86 1.258 . S
C85 O87 1.256 . S
O86 Cd78 2.381 . S
O86 C85 1.258 . S
O87 Cd78 2.378 . S
O87 C85 1.256 . S
C88 O90 1.238 1_655 S
C88 O92 1.258 1_655 S
C89 O96 1.247 . S
C89 O97 1.258 . S
O90 C88 1.238 1_455 S
O90 Zn91 2.047 . S
Zn91 O90 2.047 . S
Zn91 O95 2.035 . S
Zn91 O97 2.035 . S
Zn91 O98 2.028 . S
O92 C88 1.258 1_455 S
O92 Zn93 2.035 . S
Zn93 O92 2.035 . S
Zn93 O94 2.028 . S
Zn93 O96 2.028 . S
Zn93 O99 2.035 . S
O94 Zn93 2.028 . S
O94 C100 1.247 . S
O95 Zn91 2.035 . S
O95 C100 1.258 . S
O96 C89 1.247 . S
O96 Zn93 2.028 . S
O97 C89 1.258 . S
O97 Zn91 2.035 . S
O98 Zn91 2.028 . S
O98 C101 1.247 1_455 S
O99 Zn93 2.035 . S
O99 C101 1.258 1_455 S
C100 O94 1.247 . S
C100 O95 1.258 . S
C101 O98 1.247 1_655 S
C101 O99 1.258 1_655 S
C102 O104 1.247 . S
C102 O106 1.258 . S
C103 O110 1.247 . S
C103 O111 1.258 . S
O104 C102 1.247 . S
O104 Zn105 2.028 1_655 S
Zn105 O104 2.028 1_455 S
Zn105 O109 2.035 . S
Zn105 O111 2.035 . S
Zn105 O112 2.028 1_455 S
O106 C102 1.258 . S
O106 Zn107 2.035 1_655 S
Zn107 O106 2.035 1_455 S
Zn107 O108 2.028 . S
Zn107 O110 2.028 . S
Zn107 O113 2.035 1_455 S
O108 Zn107 2.028 . S
O108 C114 1.247 . S
O109 Zn105 2.035 . S
O109 C114 1.258 . S
O110 C103 1.247 . S
O110 Zn107 2.028 . S
O111 C103 1.258 . S
O111 Zn105 2.035 . S
O112 Zn105 2.028 1_655 S
O112 C115 1.247 . S
O113 Zn107 2.035 1_655 S
O113 C115 1.258 . S
C114 O108 1.247 . S
C114 O109 1.258 . S
C115 O112 1.247 . S
C115 O113 1.258 . S
C116 O118 1.247 . S
C116 O120 1.258 . S
C117 O124 1.247 . S
C117 O125 1.258 . S
O118 C116 1.247 . S
O118 Zn119 2.028 . S
Zn119 O118 2.028 . S
Zn119 O123 2.035 . S
Zn119 O125 2.035 . S
Zn119 O126 2.028 . S
O120 C116 1.258 . S
O120 Zn121 2.035 . S
Zn121 O120 2.035 . S
Zn121 O122 2.028 . S
Zn121 O124 2.028 . S
Zn121 O127 2.035 . S
O122 Zn121 2.028 . S
O122 C128 1.247 . S
O123 Zn119 2.035 . S
O123 C128 1.258 . S
O124 C117 1.247 . S
O124 Zn121 2.028 . S
O125 C117 1.258 . S
O125 Zn119 2.035 . S
O126 Zn119 2.028 . S
O126 C129 1.247 . S
O127 Zn121 2.035 . S
O127 C129 1.258 . S
C128 O122 1.247 . S
C128 O123 1.258 . S
C129 O126 1.247 . S
C129 O127 1.258 . S
C130 O132 1.247 . S
C130 O134 1.258 . S
C131 O138 1.247 . S
C131 O139 1.258 . S
O132 C130 1.247 . S
O132 Zn133 2.028 . S
Zn133 O132 2.028 . S
Zn133 O137 2.035 . S
Zn133 O139 2.035 1_554 S
Zn133 O140 2.028 1_554 S
O134 C130 1.258 . S
O134 Zn135 2.035 . S
Zn135 O134 2.035 . S
Zn135 O136 2.028 . S
Zn135 O138 2.028 1_554 S
Zn135 O141 2.035 1_554 S
O136 Zn135 2.028 . S
O136 C142 1.247 . S
O137 Zn133 2.035 . S
O137 C142 1.258 . S
O138 C131 1.247 . S
O138 Zn135 2.028 1_556 S
O139 C131 1.258 . S
O139 Zn133 2.035 1_556 S
O140 Zn133 2.028 1_556 S
O140 C143 1.247 . S
O141 Zn135 2.035 1_556 S
O141 C143 1.258 . S
C142 O136 1.247 . S
C142 O137 1.258 . S
C143 O140 1.247 . S
C143 O141 1.258 . S
C144 O146 1.247 . S
C144 O148 1.258 . S
C145 O152 1.247 . S
C145 O153 1.258 . S
O146 C144 1.247 . S
O146 Zn147 2.028 . S
Zn147 O146 2.028 . S
Zn147 O151 2.035 1_565 S
Zn147 O153 2.035 1_565 S
Zn147 O154 2.028 . S
O148 C144 1.258 . S
O148 Zn149 2.035 1_565 S
Zn149 O148 2.035 1_545 S
Zn149 O150 2.028 . S
Zn149 O152 2.028 . S
Zn149 O155 2.035 1_545 S
O150 Zn149 2.028 . S
O150 C156 1.247 . S
O151 Zn147 2.035 1_545 S
O151 C156 1.258 . S
O152 C145 1.247 . S
O152 Zn149 2.028 . S
O153 C145 1.258 . S
O153 Zn147 2.035 1_545 S
O154 Zn147 2.028 . S
O154 C157 1.247 . S
O155 Zn149 2.035 1_565 S
O155 C157 1.258 . S
C156 O150 1.247 . S
C156 O151 1.258 . S
C157 O154 1.247 . S
C157 O155 1.258 . S
C158 O160 1.247 . S
C158 O162 1.258 . S
C159 O166 1.247 . S
C159 O167 1.258 . S
O160 C158 1.247 . S
O160 Zn161 2.028 . S
Zn161 O160 2.028 . S
Zn161 O165 2.035 . S
Zn161 O167 2.035 1_554 S
Zn161 O168 2.028 1_554 S
O162 C158 1.258 . S
O162 Zn163 2.035 . S
Zn163 O162 2.035 . S
Zn163 O164 2.028 . S
Zn163 O166 2.028 1_554 S
Zn163 O169 2.035 1_554 S
O164 Zn163 2.028 . S
O164 C170 1.247 . S
O165 Zn161 2.035 . S
O165 C170 1.258 . S
O166 C159 1.247 . S
O166 Zn163 2.028 1_556 S
O167 C159 1.258 . S
O167 Zn161 2.035 1_556 S
O168 Zn161 2.028 1_556 S
O168 C171 1.247 . S
O169 Zn163 2.035 1_556 S
O169 C171 1.258 . S
C170 O164 1.247 . S
C170 O165 1.258 . S
C171 O168 1.247 . S
C171 O169 1.258 . S
H172 C180 0.950 . S
H173 C185 0.950 . S
H174 C182 0.950 . S
H175 C184 0.950 . S
H176 C186 0.950 . S
H177 C188 0.950 . S
H178 C190 0.950 . S
H179 C191 0.950 . S
C180 H172 0.950 . S
C180 C181 1.386 . S
C180 C182 1.391 . S
C181 C180 1.386 . S
C181 C185 1.393 . S
C182 H174 0.950 . S
C182 C180 1.391 . S
C182 C183 1.400 . S
C183 C182 1.400 . S
C183 C184 1.398 . S
C183 C189 1.491 . S
C184 H175 0.950 . S
C184 C183 1.398 . S
C184 C185 1.391 . S
C185 H173 0.950 . S
C185 C181 1.393 . S
C185 C184 1.391 . S
C186 H176 0.950 . S
C186 C187 1.386 . S
C186 C188 1.391 . S
C187 C186 1.386 . S
C187 C191 1.393 . S
C188 H177 0.950 . S
C188 C186 1.391 . S
C188 C189 1.400 . S
C189 C183 1.491 . S
C189 C188 1.400 . S
C189 C190 1.398 . S
C190 H178 0.950 . S
C190 C189 1.398 . S
C190 C191 1.391 . S
C191 H179 0.950 . S
C191 C187 1.393 . S
C191 C190 1.391 . S
H192 C200 0.950 . S
H193 C205 0.950 . S
H194 C202 0.950 . S
H195 C204 0.950 . S
H196 C206 0.950 . S
H197 C208 0.950 . S
H198 C210 0.950 . S
H199 C211 0.950 . S
C200 H192 0.950 . S
C200 C201 1.386 . S
C200 C202 1.391 . S
C201 C200 1.386 . S
C201 C205 1.393 . S
C202 H194 0.950 . S
C202 C200 1.391 . S
C202 C203 1.400 . S
C203 C202 1.400 . S
C203 C204 1.398 . S
C203 C209 1.491 . S
C204 H195 0.950 . S
C204 C203 1.398 . S
C204 C205 1.391 . S
C205 H193 0.950 . S
C205 C201 1.393 . S
C205 C204 1.391 . S
C206 H196 0.950 . S
C206 C207 1.386 . S
C206 C208 1.391 . S
C207 C206 1.386 . S
C207 C211 1.393 . S
C208 H197 0.950 . S
C208 C206 1.391 . S
C208 C209 1.400 . S
C209 C203 1.491 . S
C209 C208 1.400 . S
C209 C210 1.398 . S
C210 H198 0.950 . S
C210 C209 1.398 . S
C210 C211 1.391 . S
C211 H199 0.950 . S
C211 C207 1.393 . S
C211 C210 1.391 . S
H212 C220 0.950 . S
H213 C225 0.950 . S
H214 C222 0.950 . S
H215 C224 0.950 . S
H216 C226 0.950 . S
H217 C228 0.950 . S
H218 C230 0.950 . S
H219 C231 0.950 . S
C220 H212 0.950 . S
C220 C221 1.386 . S
C220 C222 1.391 . S
C221 C220 1.386 . S
C221 C225 1.393 . S
C222 H214 0.950 . S
C222 C220 1.391 . S
C222 C223 1.400 . S
C223 C222 1.400 . S
C223 C224 1.398 . S
C223 C229 1.491 . S
C224 H215 0.950 . S
C224 C223 1.398 . S
C224 C225 1.391 . S
C225 H213 0.950 . S
C225 C221 1.393 . S
C225 C224 1.391 . S
C226 H216 0.950 . S
C226 C227 1.386 . S
C226 C228 1.391 . S
C227 C226 1.386 . S
C227 C231 1.393 . S
C228 H217 0.950 . S
C228 C226 1.391 . S
C228 C229 1.400 . S
C229 C223 1.491 . S
C229 C228 1.400 . S
C229 C230 1.398 . S
C230 H218 0.950 . S
C230 C229 1.398 . S
C230 C231 1.391 . S
C231 H219 0.950 . S
C231 C227 1.393 . S
C231 C230 1.391 . S
H232 C240 0.950 . S
H233 C245 0.950 . S
H234 C242 0.950 . S
H235 C244 0.950 . S
H236 C246 0.950 . S
H237 C248 0.950 . S
H238 C250 0.950 . S
H239 C251 0.950 . S
C240 H232 0.950 . S
C240 C241 1.386 . S
C240 C242 1.391 . S
C241 C240 1.386 . S
C241 C245 1.393 . S
C242 H234 0.950 . S
C242 C240 1.391 . S
C242 C243 1.400 . S
C243 C242 1.400 . S
C243 C244 1.398 . S
C243 C249 1.491 . S
C244 H235 0.950 . S
C244 C243 1.398 . S
C244 C245 1.391 . S
C245 H233 0.950 . S
C245 C241 1.393 . S
C245 C244 1.391 . S
C246 H236 0.950 . S
C246 C247 1.386 . S
C246 C248 1.391 . S
C247 C246 1.386 . S
C247 C251 1.393 . S
C248 H237 0.950 . S
C248 C246 1.391 . S
C248 C249 1.400 . S
C249 C243 1.491 . S
C249 C248 1.400 . S
C249 C250 1.398 . S
C250 H238 0.950 . S
C250 C249 1.398 . S
C250 C251 1.391 . S
C251 H239 0.950 . S
C251 C247 1.393 . S
C251 C250 1.391 . S
H252 C260 0.950 . S
H253 C265 0.950 . S
H254 C262 0.950 . S
H255 C264 0.950 . S
H256 C266 0.950 . S
H257 C268 0.950 . S
H258 C270 0.950 . S
H259 C271 0.950 . S
C260 H252 0.950 . S
C260 C261 1.386 . S
C260 C262 1.391 . S
C261 C260 1.386 . S
C261 C265 1.393 . S
C262 H254 0.950 . S
C262 C260 1.391 . S
C262 C263 1.400 . S
C263 C262 1.400 . S
C263 C264 1.398 . S
C263 C269 1.491 . S
C264 H255 0.950 . S
C264 C263 1.398 . S
C264 C265 1.391 . S
C265 H253 0.950 . S
C265 C261 1.393 . S
C265 C264 1.391 . S
C266 H256 0.950 . S
C266 C267 1.386 . S
C266 C268 1.391 . S
C267 C266 1.386 . S
C267 C271 1.393 . S
C268 H257 0.950 . S
C268 C266 1.391 . S
C268 C269 1.400 . S
C269 C263 1.491 . S
C269 C268 1.400 . S
C269 C270 1.398 . S
C270 H258 0.950 . S
C270 C269 1.398 . S
C270 C271 1.391 . S
C271 H259 0.950 . S
C271 C267 1.393 . S
C271 C270 1.391 . S
H272 C280 0.950 . S
H273 C285 0.950 . S
H274 C282 0.950 . S
H275 C284 0.950 . S
H276 C286 0.950 . S
H277 C288 0.950 . S
H278 C290 0.950 . S
H279 C291 0.950 . S
C280 H272 0.950 . S
C280 C281 1.386 . S
C280 C282 1.391 . S
C281 C280 1.386 . S
C281 C285 1.393 . S
C282 H274 0.950 . S
C282 C280 1.391 . S
C282 C283 1.400 . S
C283 C282 1.400 . S
C283 C284 1.398 . S
C283 C289 1.491 . S
C284 H275 0.950 . S
C284 C283 1.398 . S
C284 C285 1.391 . S
C285 H273 0.950 . S
C285 C281 1.393 . S
C285 C284 1.391 . S
C286 H276 0.950 . S
C286 C287 1.386 . S
C286 C288 1.391 . S
C287 C286 1.386 . S
C287 C291 1.393 . S
C288 H277 0.950 . S
C288 C286 1.391 . S
C288 C289 1.400 . S
C289 C283 1.491 . S
C289 C288 1.400 . S
C289 C290 1.398 . S
C290 H278 0.950 . S
C290 C289 1.398 . S
C290 C291 1.391 . S
C291 H279 0.950 . S
C291 C287 1.393 . S
C291 C290 1.391 . S
H292 C300 0.950 . S
H293 C305 0.950 . S
H294 C302 0.950 . S
H295 C304 0.950 . S
H296 C306 0.950 . S
H297 C308 0.950 . S
H298 C310 0.950 . S
H299 C311 0.950 . S
C300 H292 0.950 . S
C300 C301 1.386 . S
C300 C302 1.391 . S
C301 C300 1.386 . S
C301 C305 1.393 . S
C302 H294 0.950 . S
C302 C300 1.391 . S
C302 C303 1.400 . S
C303 C302 1.400 . S
C303 C304 1.398 . S
C303 C309 1.491 . S
C304 H295 0.950 . S
C304 C303 1.398 . S
C304 C305 1.391 . S
C305 H293 0.950 . S
C305 C301 1.393 . S
C305 C304 1.391 . S
C306 H296 0.950 . S
C306 C307 1.386 . S
C306 C308 1.391 . S
C307 C306 1.386 . S
C307 C311 1.393 . S
C308 H297 0.950 . S
C308 C306 1.391 . S
C308 C309 1.400 . S
C309 C303 1.491 . S
C309 C308 1.400 . S
C309 C310 1.398 . S
C310 H298 0.950 . S
C310 C309 1.398 . S
C310 C311 1.391 . S
C311 H299 0.950 . S
C311 C307 1.393 . S
C311 C310 1.391 . S
H312 C320 0.950 . S
H313 C325 0.950 . S
H314 C322 0.950 . S
H315 C324 0.950 . S
H316 C326 0.950 . S
H317 C328 0.950 . S
H318 C330 0.950 . S
H319 C331 0.950 . S
C320 H312 0.950 . S
C320 C321 1.386 . S
C320 C322 1.391 . S
C321 C320 1.386 . S
C321 C325 1.393 . S
C322 H314 0.950 . S
C322 C320 1.391 . S
C322 C323 1.400 . S
C323 C322 1.400 . S
C323 C324 1.398 . S
C323 C329 1.491 . S
C324 H315 0.950 . S
C324 C323 1.398 . S
C324 C325 1.391 . S
C325 H313 0.950 . S
C325 C321 1.393 . S
C325 C324 1.391 . S
C326 H316 0.950 . S
C326 C327 1.386 . S
C326 C328 1.391 . S
C327 C326 1.386 . S
C327 C331 1.393 . S
C328 H317 0.950 . S
C328 C326 1.391 . S
C328 C329 1.400 . S
C329 C323 1.491 . S
C329 C328 1.400 . S
C329 C330 1.398 . S
C330 H318 0.950 . S
C330 C329 1.398 . S
C330 C331 1.391 . S
C331 H319 0.950 . S
C331 C327 1.393 . S
C331 C330 1.391 . S
H332 C340 0.950 . S
H333 C345 0.950 . S
H334 C342 0.950 . S
H335 C344 0.950 . S
H336 C346 0.950 . S
H337 C348 0.950 . S
H338 C350 0.950 . S
H339 C351 0.950 . S
C340 H332 0.950 . S
C340 C341 1.386 . S
C340 C342 1.391 . S
C341 C340 1.386 . S
C341 C345 1.393 . S
C342 H334 0.950 . S
C342 C340 1.391 . S
C342 C343 1.400 1_565 S
C343 C342 1.400 1_545 S
C343 C344 1.398 . S
C343 C349 1.491 . S
C344 H335 0.950 . S
C344 C343 1.398 . S
C344 C345 1.391 1_545 S
C345 H333 0.950 . S
C345 C341 1.393 . S
C345 C344 1.391 1_565 S
C346 H336 0.950 . S
C346 C347 1.386 . S
C346 C348 1.391 . S
C347 C346 1.386 . S
C347 C351 1.393 . S
C348 H337 0.950 . S
C348 C346 1.391 . S
C348 C349 1.400 . S
C349 C343 1.491 . S
C349 C348 1.400 . S
C349 C350 1.398 . S
C350 H338 0.950 . S
C350 C349 1.398 . S
C350 C351 1.391 . S
C351 H339 0.950 . S
C351 C347 1.393 . S
C351 C350 1.391 . S
H352 C360 0.950 . S
H353 C365 0.950 . S
H354 C362 0.950 . S
H355 C364 0.950 . S
H356 C366 0.950 . S
H357 C368 0.950 . S
H358 C370 0.950 . S
H359 C371 0.950 . S
C360 H352 0.950 . S
C360 C361 1.386 . S
C360 C362 1.391 . S
C361 C360 1.386 . S
C361 C365 1.393 . S
C362 H354 0.950 . S
C362 C360 1.391 . S
C362 C363 1.400 . S
C363 C362 1.400 . S
C363 C364 1.398 . S
C363 C369 1.491 . S
C364 H355 0.950 . S
C364 C363 1.398 . S
C364 C365 1.391 . S
C365 H353 0.950 . S
C365 C361 1.393 . S
C365 C364 1.391 . S
C366 H356 0.950 . S
C366 C367 1.386 . S
C366 C368 1.391 . S
C367 C366 1.386 . S
C367 C371 1.393 . S
C368 H357 0.950 . S
C368 C366 1.391 . S
C368 C369 1.400 . S
C369 C363 1.491 . S
C369 C368 1.400 . S
C369 C370 1.398 . S
C370 H358 0.950 . S
C370 C369 1.398 . S
C370 C371 1.391 . S
C371 H359 0.950 . S
C371 C367 1.393 . S
C371 C370 1.391 . S
H372 C380 0.950 . S
H373 C385 0.950 . S
H374 C382 0.950 . S
H375 C384 0.950 . S
H376 C386 0.950 . S
H377 C388 0.950 . S
H378 C390 0.950 . S
H379 C391 0.950 . S
C380 H372 0.950 . S
C380 C381 1.386 . S
C380 C382 1.391 . S
C381 C380 1.386 . S
C381 C385 1.393 . S
C382 H374 0.950 . S
C382 C380 1.391 . S
C382 C383 1.400 . S
C383 C382 1.400 . S
C383 C384 1.398 . S
C383 C389 1.491 . S
C384 H375 0.950 . S
C384 C383 1.398 . S
C384 C385 1.391 . S
C385 H373 0.950 . S
C385 C381 1.393 . S
C385 C384 1.391 . S
C386 H376 0.950 . S
C386 C387 1.386 . S
C386 C388 1.391 . S
C387 C386 1.386 . S
C387 C391 1.393 . S
C388 H377 0.950 . S
C388 C386 1.391 . S
C388 C389 1.400 . S
C389 C383 1.491 . S
C389 C388 1.400 . S
C389 C390 1.398 . S
C390 H378 0.950 . S
C390 C389 1.398 . S
C390 C391 1.391 . S
C391 H379 0.950 . S
C391 C387 1.393 . S
C391 C390 1.391 . S
H392 C400 0.950 . S
H393 C405 0.950 . S
H394 C402 0.950 . S
H395 C404 0.950 . S
H396 C406 0.950 . S
H397 C408 0.950 . S
H398 C410 0.950 . S
H399 C411 0.950 . S
C400 H392 0.950 . S
C400 C401 1.386 . S
C400 C402 1.391 . S
C401 C400 1.386 . S
C401 C405 1.393 . S
C402 H394 0.950 . S
C402 C400 1.391 . S
C402 C403 1.400 . S
C403 C402 1.400 . S
C403 C404 1.398 . S
C403 C409 1.491 . S
C404 H395 0.950 . S
C404 C403 1.398 . S
C404 C405 1.391 . S
C405 H393 0.950 . S
C405 C401 1.393 . S
C405 C404 1.391 . S
C406 H396 0.950 . S
C406 C407 1.386 . S
C406 C408 1.391 . S
C407 C406 1.386 . S
C407 C411 1.393 . S
C408 H397 0.950 . S
C408 C406 1.391 . S
C408 C409 1.400 . S
C409 C403 1.491 . S
C409 C408 1.400 . S
C409 C410 1.398 . S
C410 H398 0.950 . S
C410 C409 1.398 . S
C410 C411 1.391 . S
C411 H399 0.950 . S
C411 C407 1.393 . S
C411 C410 1.391 . S
H412 C420 0.950 . S
H413 C425 0.950 . S
H414 C422 0.950 . S
H415 C424 0.950 . S
H416 C426 0.950 . S
H417 C428 0.950 . S
H418 C430 0.950 . S
H419 C431 0.950 . S
C420 H412 0.950 . S
C420 C421 1.386 . S
C420 C422 1.391 . S
C421 C420 1.386 . S
C421 C425 1.393 . S
C422 H414 0.950 . S
C422 C420 1.391 . S
C422 C423 1.400 . S
C423 C422 1.400 . S
C423 C424 1.398 . S
C423 C429 1.491 . S
C424 H415 0.950 . S
C424 C423 1.398 . S
C424 C425 1.391 . S
C425 H413 0.950 . S
C425 C421 1.393 . S
C425 C424 1.391 . S
C426 H416 0.950 . S
C426 C427 1.386 . S
C426 C428 1.391 . S
C427 C426 1.386 . S
C427 C431 1.393 . S
C428 H417 0.950 . S
C428 C426 1.391 . S
C428 C429 1.400 . S
C429 C423 1.491 . S
C429 C428 1.400 . S
C429 C430 1.398 . S
C430 H418 0.950 . S
C430 C429 1.398 . S
C430 C431 1.391 . S
C431 H419 0.950 . S
C431 C427 1.393 . S
C431 C430 1.391 . S
H432 C440 0.950 . S
H433 C445 0.950 . S
H434 C442 0.950 . S
H435 C444 0.950 . S
H436 C446 0.950 . S
H437 C448 0.950 . S
H438 C450 0.950 . S
H439 C451 0.950 . S
C440 H432 0.950 . S
C440 C441 1.386 . S
C440 C442 1.391 . S
C441 C440 1.386 . S
C441 C445 1.393 . S
C442 H434 0.950 . S
C442 C440 1.391 . S
C442 C443 1.400 . S
C443 C442 1.400 . S
C443 C444 1.398 . S
C443 C449 1.491 . S
C444 H435 0.950 . S
C444 C443 1.398 . S
C444 C445 1.391 . S
C445 H433 0.950 . S
C445 C441 1.393 . S
C445 C444 1.391 . S
C446 H436 0.950 . S
C446 C447 1.386 . S
C446 C448 1.391 . S
C447 C446 1.386 . S
C447 C451 1.393 . S
C448 H437 0.950 . S
C448 C446 1.391 . S
C448 C449 1.400 . S
C449 C443 1.491 . S
C449 C448 1.400 . S
C449 C450 1.398 . S
C450 H438 0.950 . S
C450 C449 1.398 . S
C450 C451 1.391 . S
C451 H439 0.950 . S
C451 C447 1.393 . S
C451 C450 1.391 . S
H452 C460 0.950 . S
H453 C465 0.950 . S
H454 C462 0.950 . S
H455 C464 0.950 . S
H456 C466 0.950 . S
H457 C468 0.950 . S
H458 C470 0.950 . S
H459 C471 0.950 . S
C460 H452 0.950 . S
C460 C461 1.386 . S
C460 C462 1.391 . S
C461 C460 1.386 . S
C461 C465 1.393 . S
C462 H454 0.950 . S
C462 C460 1.391 . S
C462 C463 1.400 . S
C463 C462 1.400 . S
C463 C464 1.398 . S
C463 C469 1.491 . S
C464 H455 0.950 . S
C464 C463 1.398 . S
C464 C465 1.391 . S
C465 H453 0.950 . S
C465 C461 1.393 . S
C465 C464 1.391 . S
C466 H456 0.950 . S
C466 C467 1.386 . S
C466 C468 1.391 . S
C467 C466 1.386 . S
C467 C471 1.393 . S
C468 H457 0.950 . S
C468 C466 1.391 . S
C468 C469 1.400 . S
C469 C463 1.491 . S
C469 C468 1.400 . S
C469 C470 1.398 . S
C470 H458 0.950 . S
C470 C469 1.398 . S
C470 C471 1.391 . S
C471 H459 0.950 . S
C471 C467 1.393 . S
C471 C470 1.391 . S
H472 C480 0.950 . S
H473 C485 0.950 . S
H474 C482 0.950 . S
H475 C484 0.950 . S
H476 C486 0.950 . S
H477 C488 0.950 . S
H478 C490 0.950 . S
H479 C491 0.950 . S
C480 H472 0.950 . S
C480 C481 1.386 . S
C480 C482 1.391 . S
C481 C480 1.386 . S
C481 C485 1.393 . S
C482 H474 0.950 . S
C482 C480 1.391 . S
C482 C483 1.400 . S
C483 C482 1.400 . S
C483 C484 1.398 . S
C483 C489 1.491 . S
C484 H475 0.950 . S
C484 C483 1.398 . S
C484 C485 1.391 . S
C485 H473 0.950 . S
C485 C481 1.393 . S
C485 C484 1.391 . S
C486 H476 0.950 . S
C486 C487 1.386 . S
C486 C488 1.391 . S
C487 C486 1.386 . S
C487 C491 1.393 . S
C488 H477 0.950 . S
C488 C486 1.391 . S
C488 C489 1.400 . S
C489 C483 1.491 . S
C489 C488 1.400 . S
C489 C490 1.398 . S
C490 H478 0.950 . S
C490 C489 1.398 . S
C490 C491 1.391 . S
C491 H479 0.950 . S
C491 C487 1.393 . S
C491 C490 1.391 . S
H492 C500 0.950 . S
H493 C505 0.950 . S
H494 C502 0.950 . S
H495 C504 0.950 . S
H496 C506 0.950 . S
H497 C508 0.950 . S
H498 C510 0.950 . S
H499 C511 0.950 . S
C500 H492 0.950 . S
C500 C501 1.386 . S
C500 C502 1.391 . S
C501 C500 1.386 . S
C501 C505 1.393 . S
C502 H494 0.950 . S
C502 C500 1.391 . S
C502 C503 1.400 . S
C503 C502 1.400 . S
C503 C504 1.398 . S
C503 C509 1.491 . S
C504 H495 0.950 . S
C504 C503 1.398 . S
C504 C505 1.391 . S
C505 H493 0.950 . S
C505 C501 1.393 . S
C505 C504 1.391 . S
C506 H496 0.950 . S
C506 C507 1.386 . S
C506 C508 1.391 . S
C507 C506 1.386 . S
C507 C511 1.393 . S
C508 H497 0.950 . S
C508 C506 1.391 . S
C508 C509 1.400 . S
C509 C503 1.491 . S
C509 C508 1.400 . S
C509 C510 1.398 . S
C510 H498 0.950 . S
C510 C509 1.398 . S
C510 C511 1.391 . S
C511 H499 0.950 . S
C511 C507 1.393 . S
C511 C510 1.391 . S
H512 C520 0.950 . S
H513 C525 0.950 . S
H514 C522 0.950 . S
H515 C524 0.950 . S
H516 C526 0.950 . S
H517 C528 0.950 . S
H518 C530 0.950 . S
H519 C531 0.950 . S
C520 H512 0.950 . S
C520 C521 1.386 . S
C520 C522 1.391 . S
C521 C520 1.386 . S
C521 C525 1.393 . S
C522 H514 0.950 . S
C522 C520 1.391 . S
C522 C523 1.400 . S
C523 C522 1.400 . S
C523 C524 1.398 . S
C523 C529 1.491 . S
C524 H515 0.950 . S
C524 C523 1.398 . S
C524 C525 1.391 . S
C525 H513 0.950 . S
C525 C521 1.393 . S
C525 C524 1.391 . S
C526 H516 0.950 . S
C526 C527 1.386 . S
C526 C528 1.391 . S
C527 C526 1.386 . S
C527 C531 1.393 . S
C528 H517 0.950 . S
C528 C526 1.391 . S
C528 C529 1.400 . S
C529 C523 1.491 . S
C529 C528 1.400 . S
C529 C530 1.398 . S
C530 H518 0.950 . S
C530 C529 1.398 . S
C530 C531 1.391 . S
C531 H519 0.950 . S
C531 C527 1.393 . S
C531 C530 1.391 . S
H532 C540 0.950 . S
H533 C545 0.950 . S
H534 C542 0.950 . S
H535 C544 0.950 . S
H536 C546 0.950 . S
H537 C548 0.950 . S
H538 C550 0.950 . S
H539 C551 0.950 . S
C540 H532 0.950 . S
C540 C541 1.386 . S
C540 C542 1.391 . S
C541 C540 1.386 . S
C541 C545 1.393 . S
C542 H534 0.950 . S
C542 C540 1.391 . S
C542 C543 1.400 . S
C543 C542 1.400 . S
C543 C544 1.398 . S
C543 C549 1.491 . S
C544 H535 0.950 . S
C544 C543 1.398 . S
C544 C545 1.391 . S
C545 H533 0.950 . S
C545 C541 1.393 . S
C545 C544 1.391 . S
C546 H536 0.950 . S
C546 C547 1.386 . S
C546 C548 1.391 . S
C547 C546 1.386 . S
C547 C551 1.393 . S
C548 H537 0.950 . S
C548 C546 1.391 . S
C548 C549 1.400 . S
C549 C543 1.491 . S
C549 C548 1.400 . S
C549 C550 1.398 . S
C550 H538 0.950 . S
C550 C549 1.398 . S
C550 C551 1.391 . S
C551 H539 0.950 . S
C551 C547 1.393 . S
C551 C550 1.391 . S
H552 C560 0.950 . S
H553 C565 0.950 . S
H554 C562 0.950 . S
H555 C564 0.950 . S
H556 C566 0.950 . S
H557 C568 0.950 . S
H558 C570 0.950 . S
H559 C571 0.950 . S
C560 H552 0.950 . S
C560 C561 1.386 . S
C560 C562 1.391 . S
C561 C560 1.386 . S
C561 C565 1.393 . S
C562 H554 0.950 . S
C562 C560 1.391 . S
C562 C563 1.400 . S
C563 C562 1.400 . S
C563 C564 1.398 . S
C563 C569 1.491 . S
C564 H555 0.950 . S
C564 C563 1.398 . S
C564 C565 1.391 . S
C565 H553 0.950 . S
C565 C561 1.393 . S
C565 C564 1.391 . S
C566 H556 0.950 . S
C566 C567 1.386 . S
C566 C568 1.391 . S
C567 C566 1.386 . S
C567 C571 1.393 . S
C568 H557 0.950 . S
C568 C566 1.391 . S
C568 C569 1.400 . S
C569 C563 1.491 . S
C569 C568 1.400 . S
C569 C570 1.398 . S
C570 H558 0.950 . S
C570 C569 1.398 . S
C570 C571 1.391 . S
C571 H559 0.950 . S
C571 C567 1.393 . S
C571 C570 1.391 . S
H572 C580 0.950 . S
H573 C585 0.950 . S
H574 C582 0.950 . S
H575 C584 0.950 . S
H576 C586 0.950 . S
H577 C588 0.950 . S
H578 C590 0.950 . S
H579 C591 0.950 . S
C580 H572 0.950 . S
C580 C581 1.386 . S
C580 C582 1.391 . S
C581 C580 1.386 . S
C581 C585 1.393 . S
C582 H574 0.950 . S
C582 C580 1.391 . S
C582 C583 1.400 . S
C583 C582 1.400 . S
C583 C584 1.398 . S
C583 C589 1.491 . S
C584 H575 0.950 . S
C584 C583 1.398 . S
C584 C585 1.391 . S
C585 H573 0.950 . S
C585 C581 1.393 . S
C585 C584 1.391 . S
C586 H576 0.950 . S
C586 C587 1.386 . S
C586 C588 1.391 . S
C587 C586 1.386 . S
C587 C591 1.393 . S
C588 H577 0.950 . S
C588 C586 1.391 . S
C588 C589 1.400 . S
C589 C583 1.491 . S
C589 C588 1.400 . S
C589 C590 1.398 . S
C590 H578 0.950 . S
C590 C589 1.398 . S
C590 C591 1.391 . S
C591 H579 0.950 . S
C591 C587 1.393 . S
C591 C590 1.391 . S
H592 C600 0.950 . S
H593 C605 0.950 . S
H594 C602 0.950 . S
H595 C604 0.950 . S
H596 C606 0.950 . S
H597 C608 0.950 . S
H598 C610 0.950 . S
H599 C611 0.950 . S
C600 H592 0.950 . S
C600 C601 1.386 . S
C600 C602 1.391 . S
C601 C600 1.386 . S
C601 C605 1.393 . S
C602 H594 0.950 . S
C602 C600 1.391 . S
C602 C603 1.400 . S
C603 C602 1.400 . S
C603 C604 1.398 . S
C603 C609 1.491 . S
C604 H595 0.950 . S
C604 C603 1.398 . S
C604 C605 1.391 . S
C605 H593 0.950 . S
C605 C601 1.393 . S
C605 C604 1.391 . S
C606 H596 0.950 . S
C606 C607 1.386 . S
C606 C608 1.391 . S
C607 C606 1.386 . S
C607 C611 1.393 . S
C608 H597 0.950 . S
C608 C606 1.391 . S
C608 C609 1.400 . S
C609 C603 1.491 . S
C609 C608 1.400 . S
C609 C610 1.398 . S
C610 H598 0.950 . S
C610 C609 1.398 . S
C610 C611 1.391 . S
C611 H599 0.950 . S
C611 C607 1.393 . S
C611 C610 1.391 . S
H612 C620 0.950 . S
H613 C625 0.950 . S
H614 C622 0.950 . S
H615 C624 0.950 . S
H616 C626 0.950 . S
H617 C628 0.950 . S
H618 C630 0.950 . S
H619 C631 0.950 . S
C620 H612 0.950 . S
C620 C621 1.386 . S
C620 C622 1.391 . S
C621 C620 1.386 . S
C621 C625 1.393 . S
C622 H614 0.950 . S
C622 C620 1.391 . S
C622 C623 1.400 . S
C623 C622 1.400 . S
C623 C624 1.398 . S
C623 C629 1.491 1_565 S
C624 H615 0.950 . S
C624 C623 1.398 . S
C624 C625 1.391 . S
C625 H613 0.950 . S
C625 C621 1.393 . S
C625 C624 1.391 . S
C626 H616 0.950 . S
C626 C627 1.386 . S
C626 C628 1.391 . S
C627 C626 1.386 . S
C627 C631 1.393 . S
C628 H617 0.950 . S
C628 C626 1.391 . S
C628 C629 1.400 . S
C629 C623 1.491 1_545 S
C629 C628 1.400 . S
C629 C630 1.398 . S
C630 H618 0.950 . S
C630 C629 1.398 . S
C630 C631 1.391 . S
C631 H619 0.950 . S
C631 C627 1.393 . S
C631 C630 1.391 . S
H632 C640 0.950 . S
H633 C645 0.950 . S
H634 C642 0.950 . S
H635 C644 0.950 . S
H636 C646 0.950 . S
H637 C648 0.950 . S
H638 C650 0.950 . S
H639 C651 0.950 . S
C640 H632 0.950 . S
C640 C641 1.386 . S
C640 C642 1.391 . S
C641 C640 1.386 . S
C641 C645 1.393 . S
C642 H634 0.950 . S
C642 C640 1.391 . S
C642 C643 1.400 . S
C643 C642 1.400 . S
C643 C644 1.398 . S
C643 C649 1.491 . S
C644 H635 0.950 . S
C644 C643 1.398 . S
C644 C645 1.391 . S
C645 H633 0.950 . S
C645 C641 1.393 . S
C645 C644 1.391 . S
C646 H636 0.950 . S
C646 C647 1.386 . S
C646 C648 1.391 . S
C647 C646 1.386 . S
C647 C651 1.393 . S
C648 H637 0.950 . S
C648 C646 1.391 . S
C648 C649 1.400 . S
C649 C643 1.491 . S
C649 C648 1.400 . S
C649 C650 1.398 . S
C650 H638 0.950 . S
C650 C649 1.398 . S
C650 C651 1.391 . S
C651 H639 0.950 . S
C651 C647 1.393 . S
C651 C650 1.391 . S
C187 C100 1.665 . S
C181 C5 1.528 . S
C207 C103 1.452 . S
C201 C16 1.256 . S
C227 C101 1.729 . S
C221 C30 1.752 . S
C247 C102 1.578 . S
C241 C40 1.534 . S
C267 C117 1.435 . S
C261 C8 1.435 . S
C287 C131 1.369 . S
C281 C18 1.322 . S
C301 C29 1.711 . S
C307 C157 1.730 . S
C327 C171 1.564 . S
C321 C38 1.376 . S
C347 C116 1.413 . S
C341 C19 1.403 . S
C361 C27 1.423 . S
C367 C130 1.588 . S
C387 C156 1.541 . S
C381 C41 1.524 . S
C407 C170 1.629 . S
C401 C7 1.592 . S
C421 C52 1.564 . S
C427 C115 1.599 . S
C447 C88 1.705 . S
C441 C62 1.689 . S
C461 C74 1.400 . S
C467 C114 1.392 . S
C481 C82 1.275 . S
C487 C89 1.490 . S
C507 C144 1.803 . S
C501 C51 1.696 . S
C527 C158 1.682 . S
C521 C60 1.425 . S
C547 C128 1.440 . S
C541 C71 1.247 . S
C561 C84 1.405 . S
C567 C142 1.441 . S
C587 C145 1.670 . S
C581 C63 1.660 . S
C607 C159 1.488 . S
C601 C73 1.462 . S
C627 C129 1.496 . S
C621 C85 1.503 . S
C641 C49 1.300 . S
C647 C143 1.592 . S
