# Generated by pormake.
# Topology gar, (4,6)-cn, num edge types: 1
# Building blocks:
#     Node 0, Type 0, BuildingBlock: CEKHIL_clean_sbu_0, # of connection points: 4
#     Node 1, Type 0, BuildingBlock: CEKHIL_clean_sbu_0, # of connection points: 4
#     Node 2, Type 0, BuildingBlock: CEKHIL_clean_sbu_0, # of connection points: 4
#     Node 3, Type 0, BuildingBlock: CEKHIL_clean_sbu_0, # of connection points: 4
#     Node 4, Type 0, BuildingBlock: CEKHIL_clean_sbu_0, # of connection points: 4
#     Node 5, Type 0, BuildingBlock: CEKHIL_clean_sbu_0, # of connection points: 4
#     Node 6, Type 0, BuildingBlock: CEKHIL_clean_sbu_0, # of connection points: 4
#     Node 7, Type 0, BuildingBlock: CEKHIL_clean_sbu_0, # of connection points: 4
#     Node 8, Type 0, BuildingBlock: CEKHIL_clean_sbu_0, # of connection points: 4
#     Node 9, Type 0, BuildingBlock: CEKHIL_clean_sbu_0, # of connection points: 4
#     Node 10, Type 0, BuildingBlock: CEKHIL_clean_sbu_0, # of connection points: 4
#     Node 11, Type 0, BuildingBlock: CEKHIL_clean_sbu_0, # of connection points: 4
#     Node 12, Type 0, BuildingBlock: CEKHIL_clean_sbu_0, # of connection points: 4
#     Node 13, Type 0, BuildingBlock: CEKHIL_clean_sbu_0, # of connection points: 4
#     Node 14, Type 0, BuildingBlock: CEKHIL_clean_sbu_0, # of connection points: 4
#     Node 15, Type 0, BuildingBlock: CEKHIL_clean_sbu_0, # of connection points: 4
#     Node 16, Type 0, BuildingBlock: CEKHIL_clean_sbu_0, # of connection points: 4
#     Node 17, Type 0, BuildingBlock: CEKHIL_clean_sbu_0, # of connection points: 4
#     Node 18, Type 0, BuildingBlock: CEKHIL_clean_sbu_0, # of connection points: 4
#     Node 19, Type 0, BuildingBlock: CEKHIL_clean_sbu_0, # of connection points: 4
#     Node 20, Type 0, BuildingBlock: CEKHIL_clean_sbu_0, # of connection points: 4
#     Node 21, Type 0, BuildingBlock: CEKHIL_clean_sbu_0, # of connection points: 4
#     Node 22, Type 0, BuildingBlock: CEKHIL_clean_sbu_0, # of connection points: 4
#     Node 23, Type 0, BuildingBlock: CEKHIL_clean_sbu_0, # of connection points: 4
#     Node 24, Type 1, BuildingBlock: KUMBUR_clean_sbu_1, # of connection points: 6
#     Node 25, Type 1, BuildingBlock: KUMBUR_clean_sbu_1, # of connection points: 6
#     Node 26, Type 1, BuildingBlock: KUMBUR_clean_sbu_1, # of connection points: 6
#     Node 27, Type 1, BuildingBlock: KUMBUR_clean_sbu_1, # of connection points: 6
#     Node 28, Type 1, BuildingBlock: KUMBUR_clean_sbu_1, # of connection points: 6
#     Node 29, Type 1, BuildingBlock: KUMBUR_clean_sbu_1, # of connection points: 6
#     Node 30, Type 1, BuildingBlock: KUMBUR_clean_sbu_1, # of connection points: 6
#     Node 31, Type 1, BuildingBlock: KUMBUR_clean_sbu_1, # of connection points: 6
#     Node 32, Type 1, BuildingBlock: KUMBUR_clean_sbu_1, # of connection points: 6
#     Node 33, Type 1, BuildingBlock: KUMBUR_clean_sbu_1, # of connection points: 6
#     Node 34, Type 1, BuildingBlock: KUMBUR_clean_sbu_1, # of connection points: 6
#     Node 35, Type 1, BuildingBlock: KUMBUR_clean_sbu_1, # of connection points: 6
#     Node 36, Type 1, BuildingBlock: KUMBUR_clean_sbu_1, # of connection points: 6
#     Node 37, Type 1, BuildingBlock: KUMBUR_clean_sbu_1, # of connection points: 6
#     Node 38, Type 1, BuildingBlock: KUMBUR_clean_sbu_1, # of connection points: 6
#     Node 39, Type 1, BuildingBlock: KUMBUR_clean_sbu_1, # of connection points: 6
#     Edge 40, Type (0, 1), BuildingBlock: TEMPAE_clean_linker_10, # of connection points: 2
#     Edge 41, Type (0, 1), BuildingBlock: TEMPAE_clean_linker_10, # of connection points: 2
#     Edge 42, Type (0, 1), BuildingBlock: TEMPAE_clean_linker_10, # of connection points: 2
#     Edge 43, Type (0, 1), BuildingBlock: TEMPAE_clean_linker_10, # of connection points: 2
#     Edge 44, Type (0, 1), BuildingBlock: TEMPAE_clean_linker_10, # of connection points: 2
#     Edge 45, Type (0, 1), BuildingBlock: TEMPAE_clean_linker_10, # of connection points: 2
#     Edge 46, Type (0, 1), BuildingBlock: TEMPAE_clean_linker_10, # of connection points: 2
#     Edge 47, Type (0, 1), BuildingBlock: TEMPAE_clean_linker_10, # of connection points: 2
#     Edge 48, Type (0, 1), BuildingBlock: TEMPAE_clean_linker_10, # of connection points: 2
#     Edge 49, Type (0, 1), BuildingBlock: TEMPAE_clean_linker_10, # of connection points: 2
#     Edge 50, Type (0, 1), BuildingBlock: TEMPAE_clean_linker_10, # of connection points: 2
#     Edge 51, Type (0, 1), BuildingBlock: TEMPAE_clean_linker_10, # of connection points: 2
#     Edge 52, Type (0, 1), BuildingBlock: TEMPAE_clean_linker_10, # of connection points: 2
#     Edge 53, Type (0, 1), BuildingBlock: TEMPAE_clean_linker_10, # of connection points: 2
#     Edge 54, Type (0, 1), BuildingBlock: TEMPAE_clean_linker_10, # of connection points: 2
#     Edge 55, Type (0, 1), BuildingBlock: TEMPAE_clean_linker_10, # of connection points: 2
#     Edge 56, Type (0, 1), BuildingBlock: TEMPAE_clean_linker_10, # of connection points: 2
#     Edge 57, Type (0, 1), BuildingBlock: TEMPAE_clean_linker_10, # of connection points: 2
#     Edge 58, Type (0, 1), BuildingBlock: TEMPAE_clean_linker_10, # of connection points: 2
#     Edge 59, Type (0, 1), BuildingBlock: TEMPAE_clean_linker_10, # of connection points: 2
#     Edge 60, Type (0, 1), BuildingBlock: TEMPAE_clean_linker_10, # of connection points: 2
#     Edge 61, Type (0, 1), BuildingBlock: TEMPAE_clean_linker_10, # of connection points: 2
#     Edge 62, Type (0, 1), BuildingBlock: TEMPAE_clean_linker_10, # of connection points: 2
#     Edge 63, Type (0, 1), BuildingBlock: TEMPAE_clean_linker_10, # of connection points: 2
#     Edge 64, Type (0, 1), BuildingBlock: TEMPAE_clean_linker_10, # of connection points: 2
#     Edge 65, Type (0, 1), BuildingBlock: TEMPAE_clean_linker_10, # of connection points: 2
#     Edge 66, Type (0, 1), BuildingBlock: TEMPAE_clean_linker_10, # of connection points: 2
#     Edge 67, Type (0, 1), BuildingBlock: TEMPAE_clean_linker_10, # of connection points: 2
#     Edge 68, Type (0, 1), BuildingBlock: TEMPAE_clean_linker_10, # of connection points: 2
#     Edge 69, Type (0, 1), BuildingBlock: TEMPAE_clean_linker_10, # of connection points: 2
#     Edge 70, Type (0, 1), BuildingBlock: TEMPAE_clean_linker_10, # of connection points: 2
#     Edge 71, Type (0, 1), BuildingBlock: TEMPAE_clean_linker_10, # of connection points: 2
#     Edge 72, Type (0, 1), BuildingBlock: TEMPAE_clean_linker_10, # of connection points: 2
#     Edge 73, Type (0, 1), BuildingBlock: TEMPAE_clean_linker_10, # of connection points: 2
#     Edge 74, Type (0, 1), BuildingBlock: TEMPAE_clean_linker_10, # of connection points: 2
#     Edge 75, Type (0, 1), BuildingBlock: TEMPAE_clean_linker_10, # of connection points: 2
#     Edge 76, Type (0, 1), BuildingBlock: TEMPAE_clean_linker_10, # of connection points: 2
#     Edge 77, Type (0, 1), BuildingBlock: TEMPAE_clean_linker_10, # of connection points: 2
#     Edge 78, Type (0, 1), BuildingBlock: TEMPAE_clean_linker_10, # of connection points: 2
#     Edge 79, Type (0, 1), BuildingBlock: TEMPAE_clean_linker_10, # of connection points: 2
#     Edge 80, Type (0, 1), BuildingBlock: TEMPAE_clean_linker_10, # of connection points: 2
#     Edge 81, Type (0, 1), BuildingBlock: TEMPAE_clean_linker_10, # of connection points: 2
#     Edge 82, Type (0, 1), BuildingBlock: TEMPAE_clean_linker_10, # of connection points: 2
#     Edge 83, Type (0, 1), BuildingBlock: TEMPAE_clean_linker_10, # of connection points: 2
#     Edge 84, Type (0, 1), BuildingBlock: TEMPAE_clean_linker_10, # of connection points: 2
#     Edge 85, Type (0, 1), BuildingBlock: TEMPAE_clean_linker_10, # of connection points: 2
#     Edge 86, Type (0, 1), BuildingBlock: TEMPAE_clean_linker_10, # of connection points: 2
#     Edge 87, Type (0, 1), BuildingBlock: TEMPAE_clean_linker_10, # of connection points: 2
#     Edge 88, Type (0, 1), BuildingBlock: TEMPAE_clean_linker_10, # of connection points: 2
#     Edge 89, Type (0, 1), BuildingBlock: TEMPAE_clean_linker_10, # of connection points: 2
#     Edge 90, Type (0, 1), BuildingBlock: TEMPAE_clean_linker_10, # of connection points: 2
#     Edge 91, Type (0, 1), BuildingBlock: TEMPAE_clean_linker_10, # of connection points: 2
#     Edge 92, Type (0, 1), BuildingBlock: TEMPAE_clean_linker_10, # of connection points: 2
#     Edge 93, Type (0, 1), BuildingBlock: TEMPAE_clean_linker_10, # of connection points: 2
#     Edge 94, Type (0, 1), BuildingBlock: TEMPAE_clean_linker_10, # of connection points: 2
#     Edge 95, Type (0, 1), BuildingBlock: TEMPAE_clean_linker_10, # of connection points: 2
#     Edge 96, Type (0, 1), BuildingBlock: TEMPAE_clean_linker_10, # of connection points: 2
#     Edge 97, Type (0, 1), BuildingBlock: TEMPAE_clean_linker_10, # of connection points: 2
#     Edge 98, Type (0, 1), BuildingBlock: TEMPAE_clean_linker_10, # of connection points: 2
#     Edge 99, Type (0, 1), BuildingBlock: TEMPAE_clean_linker_10, # of connection points: 2
#     Edge 100, Type (0, 1), BuildingBlock: TEMPAE_clean_linker_10, # of connection points: 2
#     Edge 101, Type (0, 1), BuildingBlock: TEMPAE_clean_linker_10, # of connection points: 2
#     Edge 102, Type (0, 1), BuildingBlock: TEMPAE_clean_linker_10, # of connection points: 2
#     Edge 103, Type (0, 1), BuildingBlock: TEMPAE_clean_linker_10, # of connection points: 2
#     Edge 104, Type (0, 1), BuildingBlock: TEMPAE_clean_linker_10, # of connection points: 2
#     Edge 105, Type (0, 1), BuildingBlock: TEMPAE_clean_linker_10, # of connection points: 2
#     Edge 106, Type (0, 1), BuildingBlock: TEMPAE_clean_linker_10, # of connection points: 2
#     Edge 107, Type (0, 1), BuildingBlock: TEMPAE_clean_linker_10, # of connection points: 2
#     Edge 108, Type (0, 1), BuildingBlock: TEMPAE_clean_linker_10, # of connection points: 2
#     Edge 109, Type (0, 1), BuildingBlock: TEMPAE_clean_linker_10, # of connection points: 2
#     Edge 110, Type (0, 1), BuildingBlock: TEMPAE_clean_linker_10, # of connection points: 2
#     Edge 111, Type (0, 1), BuildingBlock: TEMPAE_clean_linker_10, # of connection points: 2
#     Edge 112, Type (0, 1), BuildingBlock: TEMPAE_clean_linker_10, # of connection points: 2
#     Edge 113, Type (0, 1), BuildingBlock: TEMPAE_clean_linker_10, # of connection points: 2
#     Edge 114, Type (0, 1), BuildingBlock: TEMPAE_clean_linker_10, # of connection points: 2
#     Edge 115, Type (0, 1), BuildingBlock: TEMPAE_clean_linker_10, # of connection points: 2
#     Edge 116, Type (0, 1), BuildingBlock: TEMPAE_clean_linker_10, # of connection points: 2
#     Edge 117, Type (0, 1), BuildingBlock: TEMPAE_clean_linker_10, # of connection points: 2
#     Edge 118, Type (0, 1), BuildingBlock: TEMPAE_clean_linker_10, # of connection points: 2
#     Edge 119, Type (0, 1), BuildingBlock: TEMPAE_clean_linker_10, # of connection points: 2
#     Edge 120, Type (0, 1), BuildingBlock: TEMPAE_clean_linker_10, # of connection points: 2
#     Edge 121, Type (0, 1), BuildingBlock: TEMPAE_clean_linker_10, # of connection points: 2
#     Edge 122, Type (0, 1), BuildingBlock: TEMPAE_clean_linker_10, # of connection points: 2
#     Edge 123, Type (0, 1), BuildingBlock: TEMPAE_clean_linker_10, # of connection points: 2
#     Edge 124, Type (0, 1), BuildingBlock: TEMPAE_clean_linker_10, # of connection points: 2
#     Edge 125, Type (0, 1), BuildingBlock: TEMPAE_clean_linker_10, # of connection points: 2
#     Edge 126, Type (0, 1), BuildingBlock: TEMPAE_clean_linker_10, # of connection points: 2
#     Edge 127, Type (0, 1), BuildingBlock: TEMPAE_clean_linker_10, # of connection points: 2
#     Edge 128, Type (0, 1), BuildingBlock: TEMPAE_clean_linker_10, # of connection points: 2
#     Edge 129, Type (0, 1), BuildingBlock: TEMPAE_clean_linker_10, # of connection points: 2
#     Edge 130, Type (0, 1), BuildingBlock: TEMPAE_clean_linker_10, # of connection points: 2
#     Edge 131, Type (0, 1), BuildingBlock: TEMPAE_clean_linker_10, # of connection points: 2
#     Edge 132, Type (0, 1), BuildingBlock: TEMPAE_clean_linker_10, # of connection points: 2
#     Edge 133, Type (0, 1), BuildingBlock: TEMPAE_clean_linker_10, # of connection points: 2
#     Edge 134, Type (0, 1), BuildingBlock: TEMPAE_clean_linker_10, # of connection points: 2
#     Edge 135, Type (0, 1), BuildingBlock: TEMPAE_clean_linker_10, # of connection points: 2
# Relax obj value: 0.067
# Max RMSD: 0.179
# Mean RMSD: 0.109
data_MOF--net-gar--node1-CEKHIL_clean_sbu_0--node2-KUMBUR_clean_sbu_1--edge1-TEMPAE_clean_linker_10
_symmetry_space_group_name_H-M    P1
_symmetry_Int_Tables_number       1
_symmetry_cell_setting            triclinic
loop_
_symmetry_equiv_pos_as_xyz
'x, y, z'
_cell_length_a     60.98464
_cell_length_b     60.323154
_cell_length_c     55.913887
_cell_angle_alpha  96.163651
_cell_angle_beta   96.244198
_cell_angle_gamma 100.99656
loop_
_atom_site_label
_atom_site_type_symbol
_atom_site_fract_x
_atom_site_fract_y
_atom_site_fract_z
_atom_type_partial_charge
Co0 Co 0.06285 0.32722 0.36649 0.0
O1 O 0.09651 0.33041 0.37174 0.0
O2 O 0.07671 0.31712 0.33698 0.0
C3 C 0.06176 0.36246 0.38855 0.0
O4 O 0.02742 0.32202 0.35316 0.0
Co5 Co 0.03388 0.32773 0.40954 0.0
O6 O 1.00869 0.32948 0.38479 0.0
C7 C 0.05259 0.28716 0.39573 0.0
C8 C 0.09675 0.32192 0.34947 0.0
C9 C 1.00878 0.32466 0.36205 0.0
O10 O 0.05888 0.29502 0.37632 0.0
O11 O 0.04408 0.29838 0.41175 0.0
O12 O 0.06622 0.36121 0.3662 0.0
O13 O 0.05977 0.34324 0.39674 0.0
Co14 Co 0.02459 0.76357 0.70071 0.0
O15 O 0.99151 0.76248 0.69258 0.0
O16 O 1.00565 0.75692 0.72783 0.0
C17 C 0.03404 0.7977 0.68558 0.0
O18 O 0.05891 0.76499 0.71647 0.0
Co19 Co 0.05758 0.76648 0.66182 0.0
O20 O 0.0826 0.77347 0.68881 0.0
C21 C 0.02939 0.72136 0.66601 0.0
C22 C 0.98768 0.75963 0.71444 0.0
C23 C 0.07942 0.76988 0.71029 0.0
O24 O 0.02157 0.7297 0.68523 0.0
O25 O 0.04234 0.73368 0.65389 0.0
O26 O 0.02885 0.79714 0.70741 0.0
O27 O 0.03286 0.77804 0.67353 0.0
Co28 Co 0.5631 0.82761 0.8668 0.0
O29 O 0.59667 0.83048 0.8718 0.0
O30 O 0.57666 0.81713 0.83719 0.0
C31 C 0.56249 0.86308 0.88853 0.0
O32 O 0.52757 0.82274 0.85399 0.0
Co33 Co 0.53562 0.82853 0.91123 0.0
O34 O 0.50965 0.82845 0.88667 0.0
C35 C 0.55474 0.78851 0.89747 0.0
C36 C 0.59677 0.82191 0.84954 0.0
C37 C 0.50906 0.82424 0.86373 0.0
O38 O 0.55879 0.79545 0.87691 0.0
O39 O 0.54797 0.80047 0.91433 0.0
O40 O 0.56701 0.86161 0.86621 0.0
O41 O 0.56043 0.84398 0.89694 0.0
Co42 Co 0.52279 0.26285 0.20051 0.0
O43 O 0.48949 0.26144 0.19325 0.0
O44 O 0.50477 0.25729 0.22856 0.0
C45 C 0.53122 0.29621 0.18354 0.0
O46 O 0.55756 0.26471 0.21533 0.0
Co47 Co 0.5542 0.26443 0.1601 0.0
O48 O 0.58007 0.27092 0.18611 0.0
C49 C 0.52629 0.21986 0.16642 0.0
C50 C 0.48637 0.25923 0.21541 0.0
C51 C 0.57773 0.26853 0.20808 0.0
O52 O 0.51953 0.22866 0.18612 0.0
O53 O 0.53835 0.2318 0.15322 0.0
O54 O 0.52712 0.29657 0.20584 0.0
O55 O 0.5298 0.27614 0.17236 0.0
Co56 Co 0.06897 0.80786 0.12024 0.0
O57 O 0.03605 0.8041 0.11421 0.0
O58 O 0.05501 0.79979 0.14846 0.0
C59 C 0.07484 0.84392 0.10423 0.0
O60 O 0.10169 0.81081 0.13795 0.0
Co61 Co 0.09901 0.80649 0.08724 0.0
O62 O 0.12632 0.81153 0.11179 0.0
C63 C 0.0747 0.76142 0.0921 0.0
C64 C 0.03566 0.79981 0.13647 0.0
C65 C 0.12218 0.81172 0.13352 0.0
O66 O 0.06625 0.77285 0.10856 0.0
O67 O 0.08844 0.77215 0.07959 0.0
O68 O 0.07148 0.84142 0.12632 0.0
O69 O 0.07499 0.82449 0.09123 0.0
Co70 Co 0.51761 0.78218 0.44584 0.0
O71 O 0.55059 0.78933 0.45148 0.0
O72 O 0.53039 0.77209 0.41723 0.0
C73 C 0.51397 0.81913 0.4621 0.0
O74 O 0.48421 0.77411 0.42891 0.0
Co75 Co 0.48742 0.77776 0.48022 0.0
O76 O 0.46366 0.78488 0.4564 0.0
C77 C 0.50925 0.73892 0.47437 0.0
C78 C 0.55018 0.7804 0.42918 0.0
C79 C 0.46579 0.77988 0.43427 0.0
O80 O 0.51794 0.74995 0.4577 0.0
O81 O 0.49574 0.7475 0.48674 0.0
O82 O 0.51782 0.81385 0.44011 0.0
O83 O 0.51297 0.8021 0.475 0.0
Co84 Co 0.56911 0.30757 0.6199 0.0
O85 O 0.53614 0.30405 0.61368 0.0
O86 O 0.55485 0.3005 0.64837 0.0
C87 C 0.57497 0.34331 0.60335 0.0
O88 O 0.60186 0.31018 0.63792 0.0
Co89 Co 0.59987 0.30648 0.58744 0.0
O90 O 0.62691 0.31119 0.61221 0.0
C91 C 0.57542 0.26128 0.59227 0.0
C92 C 0.53565 0.30075 0.63621 0.0
C93 C 0.62248 0.31106 0.63381 0.0
O94 O 0.56611 0.27253 0.60811 0.0
O95 O 0.58992 0.2721 0.58064 0.0
O96 O 0.57182 0.34116 0.62555 0.0
O97 O 0.5753 0.32379 0.59069 0.0
Co98 Co 0.01811 0.28276 0.94552 0.0
O99 O 0.05099 0.28804 0.95164 0.0
O100 O 0.03073 0.27282 0.91674 0.0
C101 C 0.01544 0.31951 0.96291 0.0
O102 O 0.98485 0.27676 0.92877 0.0
Co103 Co 0.98805 0.2793 0.98166 0.0
O104 O 0.96265 0.28184 0.95692 0.0
C105 C 1.01054 0.24089 0.97533 0.0
C106 C 0.05057 0.27978 0.9291 0.0
C107 C 0.9654 0.27904 0.93466 0.0
O108 O 0.01622 0.24986 0.95614 0.0
O109 O 1.00005 0.25137 0.98998 0.0
O110 O 0.02011 0.31509 0.94108 0.0
O111 O 1.01401 0.30199 0.975 0.0
Co112 Co 0.3953 0.02691 0.31931 0.0
O113 O 0.39916 0.059 0.32131 0.0
O114 O 0.36731 0.03335 0.30733 0.0
C115 C 0.41306 0.02741 0.35577 0.0
O116 O 0.3849 0.99325 0.3155 0.0
Co117 Co 0.43556 1.00193 0.3246 0.0
O118 O 0.41229 0.97469 0.32637 0.0
C119 C 0.42362 0.02139 0.2801 0.0
C120 C 0.37787 0.05442 0.31287 0.0
C121 C 0.39181 0.97526 0.31984 0.0
O122 O 0.40465 0.02462 0.28613 0.0
O123 O 0.43909 0.0164 0.29462 0.0
O124 O 0.39199 0.02902 0.3537 0.0
O125 O 0.42255 0.02698 0.33638 0.0
Co126 Co 0.27747 0.18208 0.51223 0.0
O127 O 0.31014 0.1886 0.51484 0.0
O128 O 0.28917 0.15641 0.5219 0.0
C129 C 0.27279 0.19567 0.47544 0.0
O130 O 0.24417 0.16671 0.51044 0.0
Co131 Co 0.24774 0.21607 0.51098 0.0
O132 O 0.22101 0.19057 0.50437 0.0
C133 C 0.27198 0.2122 0.55824 0.0
C134 C 0.30906 0.16814 0.52056 0.0
C135 C 0.22416 0.17066 0.50684 0.0
O136 O 0.27878 0.19503 0.54789 0.0
O137 O 0.26041 0.224 0.54638 0.0
O138 O 0.27578 0.17511 0.47694 0.0
O139 O 0.27325 0.20793 0.49612 0.0
Co140 Co 0.14737 0.05499 0.80286 0.0
O141 O 0.1408 0.02185 0.80001 0.0
O142 O 0.17332 0.0432 0.79505 0.0
C143 C 0.13254 0.05938 0.83892 0.0
O144 O 0.16311 0.08858 0.80493 0.0
Co145 Co 0.11483 0.08629 0.80394 0.0
O146 O 0.14039 0.11291 0.81061 0.0
C147 C 0.11947 0.06235 0.7563 0.0
C148 C 0.16158 0.02311 0.79603 0.0
C149 C 0.15988 0.10908 0.80833 0.0
O150 O 0.13527 0.05373 0.7668 0.0
O151 O 0.10871 0.07507 0.76818 0.0
O152 O 0.15308 0.05666 0.83832 0.0
O153 O 0.12125 0.05946 0.81787 0.0
Co154 Co 0.30551 0.94013 0.99223 0.0
O155 O 0.27396 0.93659 0.99121 0.0
O156 O 0.2997 0.96787 0.00721 0.0
C157 C 0.30536 0.92594 0.9543 0.0
O158 O 0.33909 0.94946 0.99589 0.0
Co159 Co 0.32577 0.8964 0.98318 0.0
O160 O 0.35481 0.91851 0.99192 0.0
C161 C 0.30858 0.90741 0.02883 0.0
C162 C 0.27872 0.95741 1.00195 0.0
C163 C 0.35609 0.9399 0.9962 0.0
O164 O 0.30749 0.92758 0.02408 0.0
O165 O 0.31186 0.89172 0.01319 0.0
O166 O 0.30372 0.94707 0.95882 0.0
O167 O 0.30436 0.91395 0.97198 0.0
Co168 Co 0.30959 0.39658 0.04061 0.0
O169 O 0.2769 0.39108 0.03665 0.0
O170 O 0.29956 0.42397 0.05171 0.0
C171 C 0.31192 0.37949 0.00263 0.0
O172 O 0.34349 0.41091 0.0462 0.0
Co173 Co 0.33781 0.36056 0.03949 0.0
O174 O 0.36315 0.38497 0.03452 0.0
C175 C 0.31618 0.36934 0.0834 0.0
C176 C 0.27918 0.41238 0.04531 0.0
C177 C 0.36199 0.40558 0.04073 0.0
O178 O 0.30976 0.38633 0.07446 0.0
O179 O 0.32679 0.35631 0.0717 0.0
O180 O 0.30926 0.40037 0.00619 0.0
O181 O 0.31197 0.36897 0.02165 0.0
Co182 Co 0.78241 0.13798 0.05594 0.0
O183 O 0.81429 0.14402 0.06322 0.0
O184 O 0.79126 0.11166 0.06725 0.0
C185 C 0.78138 0.15124 0.02037 0.0
O186 O 0.74885 0.12619 0.04956 0.0
Co187 Co 0.75813 0.17898 0.05008 0.0
O188 O 0.73105 0.15449 0.04123 0.0
C189 C 0.7805 0.17187 0.09689 0.0
C190 C 0.81175 0.1234 0.06865 0.0
C191 C 0.731 0.13367 0.04333 0.0
O192 O 0.78015 0.15101 0.08948 0.0
O193 O 0.77527 0.18624 0.08322 0.0
O194 O 0.78451 0.13065 0.02146 0.0
O195 O 0.78127 0.1634 0.04069 0.0
Co196 Co 0.19115 0.54973 0.25895 0.0
O197 O 0.18562 0.51785 0.24918 0.0
O198 O 0.21677 0.5424 0.24518 0.0
C199 C 0.1799 0.54618 0.2949 0.0
O200 O 0.20251 0.58347 0.26747 0.0
Co201 Co 0.15215 0.57366 0.2725 0.0
O202 O 0.17657 0.60075 0.28279 0.0
C203 C 0.15581 0.55599 0.22186 0.0
C204 C 0.20584 0.52139 0.2433 0.0
C205 C 0.1963 0.60111 0.27715 0.0
O206 O 0.17623 0.55408 0.22718 0.0
O207 O 0.14309 0.56107 0.23749 0.0
O208 O 0.2006 0.54538 0.29224 0.0
O209 O 0.16679 0.54833 0.27606 0.0
Co210 Co 0.80805 0.89568 0.53997 0.0
O211 O 0.77535 0.89 0.53627 0.0
O212 O 0.79794 0.92298 0.55114 0.0
C213 C 0.81013 0.87845 0.50169 0.0
O214 O 0.84184 0.91044 0.54501 0.0
Co215 Co 0.83648 0.86012 0.53953 0.0
O216 O 0.86232 0.8845 0.53595 0.0
C217 C 0.81554 0.8693 0.58361 0.0
C218 C 0.77759 0.91131 0.5449 0.0
C219 C 0.86073 0.90515 0.54095 0.0
O220 O 0.80854 0.88573 0.57408 0.0
O221 O 0.8265 0.85637 0.57234 0.0
O222 O 0.80727 0.89927 0.50552 0.0
O223 O 0.81064 0.86804 0.52087 0.0
Co224 Co 0.93761 0.02303 0.27411 0.0
O225 O 0.94339 0.05607 0.27881 0.0
O226 O 0.9111 0.03383 0.26203 0.0
C227 C 0.95362 0.02052 0.31253 0.0
O228 O 0.9229 0.98899 0.26778 0.0
Co229 Co 0.97227 0.99329 0.27729 0.0
O230 O 0.94701 0.96947 0.284 0.0
C231 C 0.96722 0.01723 0.23392 0.0
C232 C 0.9225 0.05428 0.26964 0.0
C233 C 0.92705 0.9709 0.27603 0.0
O234 O 0.94921 0.02288 0.24086 0.0
O235 O 0.97939 1.00662 0.2468 0.0
O236 O 0.93291 0.02303 0.3084 0.0
O237 O 0.96422 0.0201 0.29373 0.0
Co238 Co 0.2844 0.63595 0.55768 0.0
O239 O 0.31624 0.64021 0.56276 0.0
O240 O 0.29198 0.60911 0.56864 0.0
C241 C 0.28164 0.64913 0.52191 0.0
O242 O 0.25075 0.62594 0.55388 0.0
Co243 Co 0.26172 0.67844 0.55363 0.0
O244 O 0.23358 0.65498 0.54625 0.0
C245 C 0.28945 0.67222 0.59508 0.0
C246 C 0.31267 0.61979 0.56887 0.0
C247 C 0.23319 0.63411 0.54857 0.0
O248 O 0.28479 0.65052 0.59117 0.0
O249 O 0.28976 0.68397 0.57749 0.0
O250 O 0.28386 0.62814 0.52253 0.0
O251 O 0.28337 0.66135 0.54254 0.0
Co252 Co 0.43849 0.52471 0.77523 0.0
O253 O 0.44403 0.55778 0.7803 0.0
O254 O 0.41197 0.53542 0.76318 0.0
C255 C 0.45424 0.52178 0.81372 0.0
O256 O 0.42384 0.49069 0.76809 0.0
Co257 Co 0.47289 0.49486 0.77822 0.0
O258 O 0.44754 0.47085 0.78447 0.0
C259 C 0.46821 0.51928 0.73507 0.0
C260 C 0.42317 0.55591 0.77096 0.0
C261 C 0.42775 0.47243 0.77608 0.0
O262 O 0.45038 0.52518 0.74219 0.0
O263 O 0.48008 0.50821 0.74772 0.0
O264 O 0.4335 0.52417 0.80941 0.0
O265 O 0.46503 0.52164 0.79504 0.0
Co266 Co 0.69357 0.05123 0.76041 0.0
O267 O 0.68724 0.01925 0.75129 0.0
O268 O 0.71853 0.04292 0.74594 0.0
C269 C 0.68344 0.04988 0.79714 0.0
O270 O 0.70521 0.08508 0.76836 0.0
Co271 Co 0.65329 0.07444 0.77217 0.0
O272 O 0.67756 0.10187 0.78059 0.0
C273 C 0.65753 0.05536 0.72268 0.0
C274 C 0.70705 0.02211 0.74433 0.0
C275 C 0.69789 0.10256 0.77675 0.0
O276 O 0.67834 0.05519 0.72847 0.0
O277 O 0.64419 0.05971 0.73788 0.0
O278 O 0.70359 0.04738 0.79381 0.0
O279 O 0.66988 0.051 0.77823 0.0
Co280 Co 0.77755 0.68344 0.01338 0.0
O281 O 0.81018 0.68892 0.01528 0.0
O282 O 0.78847 0.65705 0.02223 0.0
C283 C 0.77313 0.69799 0.977 0.0
O284 O 0.74422 0.66883 0.0121 0.0
Co285 Co 0.74838 0.71805 0.01292 0.0
O286 O 0.72124 0.6929 0.00654 0.0
C287 C 0.7734 0.71372 0.05976 0.0
C288 C 0.80847 0.66823 0.0205 0.0
C289 C 0.72428 0.67294 0.00889 0.0
O290 O 0.77947 0.6961 0.0493 0.0
O291 O 0.76227 0.72594 0.04798 0.0
O292 O 0.77519 0.67704 0.97788 0.0
O293 O 0.77381 0.7098 0.99799 0.0
Co294 Co 0.8974 0.5324 0.82168 0.0
O295 O 0.9024 0.56449 0.82274 0.0
O296 O 0.86943 0.54014 0.81122 0.0
C297 C 0.91621 0.53337 0.85769 0.0
O298 O 0.88593 0.49892 0.81914 0.0
Co299 Co 0.93662 0.50561 0.82754 0.0
O300 O 0.91238 0.47999 0.83199 0.0
C301 C 0.92306 0.52258 0.78096 0.0
C302 C 0.88083 0.561 0.81599 0.0
C303 C 0.89205 0.48086 0.82482 0.0
O304 O 0.9055 0.52878 0.78799 0.0
O305 O 0.93783 0.51575 0.79484 0.0
O306 O 0.89531 0.53544 0.85628 0.0
O307 O 0.92493 0.53193 0.83787 0.0
Co308 Co 0.80511 0.44082 0.49485 0.0
O309 O 0.7734 0.43703 0.49242 0.0
O310 O 0.79821 0.46993 0.5033 0.0
C311 C 0.80409 0.41978 0.46001 0.0
O312 O 0.83875 0.45072 0.49865 0.0
Co313 Co 0.82934 0.39946 0.49384 0.0
O314 O 0.85504 0.42177 0.48647 0.0
C315 C 0.81492 0.41936 0.53929 0.0
C316 C 0.77736 0.45894 0.49836 0.0
C317 C 0.8558 0.44274 0.49314 0.0
O318 O 0.8071 0.43487 0.52929 0.0
O319 O 0.82306 0.4038 0.52807 0.0
O320 O 0.80312 0.44111 0.46008 0.0
O321 O 0.80463 0.4119 0.48049 0.0
Co322 Co 0.6492 0.55431 0.30359 0.0
O323 O 0.6447 0.52142 0.30193 0.0
O324 O 0.67618 0.5443 0.29648 0.0
C325 C 0.63385 0.55901 0.33915 0.0
O326 O 0.66263 0.58807 0.30459 0.0
Co327 Co 0.61346 0.58219 0.30184 0.0
O328 O 0.63738 0.61026 0.30506 0.0
C329 C 0.61908 0.55554 0.25657 0.0
C330 C 0.66561 0.52382 0.29798 0.0
C331 C 0.65762 0.6078 0.30497 0.0
O332 O 0.63752 0.55162 0.26737 0.0
O333 O 0.60583 0.56556 0.2679 0.0
O334 O 0.65472 0.55723 0.3391 0.0
O335 O 0.62243 0.5574 0.31784 0.0
Tb336 Tb 0.07418 0.05452 0.05085 0.0
C337 C 1.00013 0.97762 0.99136 0.0
N338 N 1.01212 0.99782 0.98665 0.0
C339 C 0.01502 0.98069 0.9466 0.0
C340 C 0.9954 0.9581 0.97385 0.0
C341 C 0.01916 0.99965 0.96439 0.0
C342 C 1.00318 0.95981 0.95136 0.0
C343 C 0.97873 0.95628 0.01869 0.0
C344 C 0.99183 0.97671 0.01355 0.0
C345 C 0.97433 0.93675 1.00142 0.0
C346 C 0.98259 0.93767 0.97906 0.0
Tb347 Tb 0.01447 0.02777 0.01629 0.0
N348 N 0.99596 0.99603 0.02973 0.0
C349 C 0.9698 0.95628 0.04071 0.0
C350 C 0.98587 0.99647 0.05033 0.0
C351 C 0.9732 0.97654 0.05648 0.0
H352 H 0.0269 0.01583 0.95957 0.0
H353 H 0.96549 0.97699 0.07303 0.0
H354 H 0.06617 0.06412 0.10968 0.0
H355 H 0.11981 0.10781 0.99379 0.0
H356 H 0.9866 0.01231 0.06149 0.0
H357 H 0.9596 0.94095 0.0453 0.0
H358 H 0.09882 0.07206 0.00458 0.0
H359 H 0.0205 0.98233 0.92898 0.0
H360 H 0.96419 0.92095 0.005 0.0
H361 H 0.9787 0.92256 0.96576 0.0
H362 H 0.07417 0.09653 0.1417 0.0
H363 H 0.9997 0.94525 0.93736 0.0
H364 H 0.12762 0.14289 0.02331 0.0
N365 N 0.07834 0.08353 0.08223 0.0
C366 C 0.08985 0.10411 0.07785 0.0
C367 C 0.07829 0.099 0.12369 0.0
C368 C 0.09562 0.12299 0.09618 0.0
C369 C 0.07318 0.08066 0.10509 0.0
C370 C 0.0894 0.12028 0.1192 0.0
N371 N 0.09187 0.08717 0.03823 0.0
C372 C 0.10066 0.08747 0.01681 0.0
C373 C 0.10995 0.12657 0.05039 0.0
C374 C 0.09711 0.10591 0.05528 0.0
C375 C 0.11769 0.12735 0.02776 0.0
C376 C 0.1132 0.10763 0.01098 0.0
H377 H 0.0937 0.13432 0.13382 0.0
H378 H 0.11266 0.15839 0.10515 0.0
H379 H 0.12504 0.16154 0.06501 0.0
O380 O 0.10311 0.04378 0.04109 0.0
O381 O 0.05669 0.08098 0.03608 0.0
O382 O 0.02192 0.0649 0.01384 0.0
O383 O 0.10205 0.05924 0.07751 0.0
O384 O 0.07084 0.03636 0.01369 0.0
O385 O 0.03888 0.044 0.99433 0.0
O386 O 0.98286 0.03409 0.02225 0.0
O387 O 0.03554 1.00202 0.02703 0.0
O388 O 0.06167 0.01943 0.05998 0.0
O389 O 0.9904 0.02577 0.98534 0.0
O390 O 0.01596 0.04439 0.05391 0.0
O391 O 0.04963 0.04039 0.07387 0.0
C392 C 0.03787 0.0829 0.02279 0.0
C393 C 0.12492 0.03248 0.07288 0.0
C394 C 0.15543 0.01257 0.07057 0.0
C395 C 0.15045 1.00289 0.09158 0.0
C396 C 0.11946 0.02255 0.09367 0.0
C397 C 0.1323 1.00777 0.10298 0.0
C398 C 0.14269 0.0273 0.06142 0.0
C399 C 0.05967 0.04141 0.99427 0.0
C400 C 0.11353 0.04929 0.06315 0.0
C401 C 0.10806 0.14373 0.09125 0.0
C402 C 0.11516 0.14553 0.06841 0.0
C403 C 0.04992 1.0006 0.04636 0.0
C404 C 0.9532 0.03352 0.98986 0.0
C405 C 0.92057 0.05008 0.99592 0.0
C406 C 0.90996 0.03903 0.97295 0.0
C407 C 0.94261 0.02275 0.96694 0.0
C408 C 0.94233 0.04741 0.00402 0.0
C409 C 0.92103 0.02557 0.95852 0.0
C410 C 0.02857 0.04223 0.07381 0.0
C411 C 0.97581 0.031 0.99908 0.0
H412 H 0.16039 0.9915 0.09891 0.0
H413 H 0.10559 0.02638 0.10279 0.0
H414 H 0.12829 1.00023 0.11909 0.0
H415 H 0.14698 0.03519 0.0455 0.0
H416 H 0.893 0.04043 0.96629 0.0
H417 H 0.95092 0.01212 0.95566 0.0
H418 H 0.951 0.05638 0.02133 0.0
H419 H 0.91278 0.01713 0.94089 0.0
Tb420 Tb 0.2738 0.79151 0.3152 0.0
C421 C 0.32453 0.75059 0.2263 0.0
N422 N 0.33318 0.76734 0.24494 0.0
C423 C 0.36555 0.7507 0.25268 0.0
C424 C 0.3356 0.73262 0.22065 0.0
C425 C 0.35364 0.76789 0.2579 0.0
C426 C 0.35637 0.73281 0.23416 0.0
C427 C 0.29483 0.73477 0.19327 0.0
C428 C 0.30449 0.75168 0.21297 0.0
C429 C 0.30518 0.7162 0.18812 0.0
C430 C 0.32561 0.71519 0.20172 0.0
Tb431 Tb 0.31142 0.79315 0.25415 0.0
N432 N 0.29508 0.7699 0.21867 0.0
C433 C 0.27547 0.73742 0.17897 0.0
C434 C 0.27775 0.77377 0.20299 0.0
C435 C 0.26726 0.75731 0.18348 0.0
H436 H 0.36083 0.78155 0.27233 0.0
H437 H 0.25299 0.76013 0.17175 0.0
H438 H 0.22181 0.79921 0.2989 0.0
H439 H 0.33776 0.83356 0.39041 0.0
H440 H 0.27187 0.78954 0.20508 0.0
H441 H 0.26739 0.72475 0.16378 0.0
H442 H 0.32087 0.80381 0.35724 0.0
H443 H 0.38172 0.75116 0.26306 0.0
H444 H 0.29784 0.70287 0.17329 0.0
H445 H 0.33367 0.70103 0.19727 0.0
H446 H 0.198 0.82584 0.31127 0.0
H447 H 0.36552 0.7194 0.2303 0.0
H448 H 0.31692 0.86296 0.40377 0.0
N449 N 0.24961 0.81451 0.32592 0.0
C450 C 0.25731 0.83071 0.34542 0.0
C451 C 0.21472 0.8275 0.32093 0.0
C452 C 0.24422 0.84642 0.35299 0.0
C453 C 0.22844 0.81254 0.31383 0.0
C454 C 0.22269 0.84461 0.34048 0.0
N455 N 0.29098 0.81674 0.34912 0.0
C456 C 0.31161 0.81674 0.36156 0.0
C457 C 0.28769 0.8491 0.37709 0.0
C458 C 0.27871 0.83193 0.3574 0.0
C459 C 0.30937 0.84995 0.38868 0.0
C460 C 0.32123 0.8335 0.38108 0.0
H461 H 0.21208 0.85629 0.34578 0.0
H462 H 0.24336 0.87586 0.3785 0.0
H463 H 0.28151 0.87831 0.3995 0.0
O464 O 0.27559 0.76713 0.33886 0.0
O465 O 0.2858 0.82668 0.31049 0.0
O466 O 0.29899 0.80653 0.28446 0.0
O467 O 0.2435 0.77196 0.32247 0.0
O468 O 0.30869 0.78335 0.31956 0.0
O469 O 0.33163 0.7982 0.29096 0.0
O470 O 0.31171 0.82149 0.23561 0.0
O471 O 0.30377 0.76011 0.26612 0.0
O472 O 0.27391 0.76891 0.282 0.0
O473 O 0.34276 0.81252 0.24922 0.0
O474 O 0.27562 0.79772 0.24676 0.0
O475 O 0.25366 0.79267 0.27925 0.0
C476 C 0.29729 0.82676 0.2928 0.0
C477 C 0.246 0.76201 0.36209 0.0
C478 C 0.24531 0.74511 0.3992 0.0
C479 C 0.23219 0.76007 0.40804 0.0
C480 C 0.23301 0.77725 0.37086 0.0
C481 C 0.22616 0.77624 0.39386 0.0
C482 C 0.2522 0.74617 0.3764 0.0
C483 C 0.32875 0.78934 0.31164 0.0
C484 C 0.25384 0.76211 0.3384 0.0
C485 C 0.25311 0.86354 0.37256 0.0
C486 C 0.27482 0.86494 0.38451 0.0
C487 C 0.2877 0.755 0.27933 0.0
C488 C 0.34056 0.82701 0.21171 0.0
C489 C 0.33804 0.84466 0.17506 0.0
C490 C 0.34992 0.82946 0.16412 0.0
C491 C 0.35233 0.81161 0.20079 0.0
C492 C 0.33358 0.84354 0.1988 0.0
C493 C 0.35709 0.81299 0.17704 0.0
C494 C 0.25633 0.79665 0.25647 0.0
C495 C 0.33338 0.82511 0.23556 0.0
H496 H 0.22669 0.75922 0.42577 0.0
H497 H 0.2281 0.78977 0.36005 0.0
H498 H 0.21611 0.7879 0.40063 0.0
H499 H 0.26224 0.73439 0.36966 0.0
H500 H 0.35331 0.83017 0.14556 0.0
H501 H 0.35748 0.79838 0.21035 0.0
H502 H 0.32414 0.8552 0.20701 0.0
H503 H 0.36604 0.80109 0.16855 0.0
Tb504 Tb 0.5115 0.03629 0.54976 0.0
C505 C 0.59184 0.08351 0.4952 0.0
N506 N 0.57659 0.0634 0.48883 0.0
C507 C 0.57117 0.07177 0.44775 0.0
C508 C 0.59644 0.09891 0.47819 0.0
C509 C 0.56723 0.05694 0.46507 0.0
C510 C 0.58556 0.09296 0.45439 0.0
C511 C 0.61956 0.10905 0.52561 0.0
C512 C 0.6036 0.0885 0.51866 0.0
C513 C 0.6236 0.12458 0.50884 0.0
C514 C 0.61212 0.11951 0.48522 0.0
Tb515 Tb 0.57314 0.04118 0.5196 0.0
N516 N 0.59906 0.07338 0.53481 0.0
C517 C 0.63113 0.11336 0.5492 0.0
C518 C 0.61135 0.07686 0.55726 0.0
C519 C 0.6272 0.09705 0.56499 0.0
H520 H 0.55716 0.04015 0.4589 0.0
H521 H 0.63663 0.09984 0.58298 0.0
H522 H 0.53016 0.03624 0.60999 0.0
H523 H 0.4404 0.98197 0.49305 0.0
H524 H 0.6095 0.06392 0.56895 0.0
H525 H 0.6435 0.12896 0.55522 0.0
H526 H 0.46965 0.01705 0.50559 0.0
H527 H 0.56341 0.06665 0.42913 0.0
H528 H 0.63574 0.14048 0.5139 0.0
H529 H 0.61572 0.13153 0.47239 0.0
H530 H 0.52705 1.00867 0.63878 0.0
H531 H 0.58872 0.1043 0.44081 0.0
H532 H 0.43756 0.95063 0.51835 0.0
N533 N 0.51043 0.01311 0.58002 0.0
C534 C 0.49544 0.99281 0.57398 0.0
C535 C 0.51848 1.00378 0.62044 0.0
C536 C 0.49239 0.97682 0.59064 0.0
C537 C 0.5207 0.01925 0.60354 0.0
C538 C 0.50462 0.98231 0.61384 0.0
N539 N 0.4843 1.00473 0.53633 0.0
C540 C 0.46907 1.00305 0.51614 0.0
C541 C 0.46511 0.96852 0.54549 0.0
C542 C 0.48173 0.98866 0.5517 0.0
C543 C 0.45063 0.96581 0.52369 0.0
C544 C 0.45229 0.98339 0.50924 0.0
H545 H 0.50266 0.97054 0.62716 0.0
H546 H 0.4741 0.94379 0.59661 0.0
H547 H 0.45033 0.93649 0.55705 0.0
O548 O 0.4837 0.05137 0.53746 0.0
O549 O 0.5167 1.0034 0.52885 0.0
O550 O 0.55401 1.00539 0.51986 0.0
O551 O 0.49256 0.04727 0.5754 0.0
O552 O 0.52313 0.04886 0.51758 0.0
O553 O 0.54336 0.03042 0.49402 0.0
O554 O 0.60303 0.02971 0.53221 0.0
O555 O 0.56494 0.07465 0.53569 0.0
O556 O 0.53197 0.0718 0.55484 0.0
O557 O 0.59 0.02685 0.49369 0.0
O558 O 0.56018 0.02805 0.55047 0.0
O559 O 0.54188 0.04725 0.57486 0.0
C560 C 0.53332 0.99368 0.52147 0.0
C561 C 0.45978 0.06328 0.5678 0.0
C562 C 0.43157 0.08694 0.56388 0.0
C563 C 0.42581 0.0824 0.58677 0.0
C564 C 0.45344 0.05888 0.59057 0.0
C565 C 0.43658 0.06835 0.59991 0.0
C566 C 0.44845 0.07709 0.55416 0.0
C567 C 0.52431 0.03558 0.49811 0.0
C568 C 0.47893 0.05409 0.55965 0.0
C569 C 0.47651 0.95628 0.58407 0.0
C570 C 0.46293 0.95214 0.56156 0.0
C571 C 0.55042 0.08394 0.54798 0.0
C572 C 0.62413 0.01291 0.50189 0.0
C573 C 0.65418 0.99189 0.50883 0.0
C574 C 0.65696 0.99109 0.48419 0.0
C575 C 0.62742 0.01199 0.4773 0.0
C576 C 0.63781 1.00297 0.51783 0.0
C577 C 0.64372 1.00118 0.46858 0.0
C578 C 0.56037 0.04098 0.5704 0.0
C579 C 0.6055 0.02315 0.5098 0.0
H580 H 0.41278 0.08968 0.59444 0.0
H581 H 0.46167 0.0482 0.60139 0.0
H582 H 0.43196 0.06493 0.61751 0.0
H583 H 0.45313 0.0807 0.53661 0.0
H584 H 0.66947 0.98261 0.47704 0.0
H585 H 0.61722 0.01948 0.46462 0.0
H586 H 0.63542 1.00335 0.53678 0.0
H587 H 0.64598 1.00046 0.44959 0.0
Tb588 Tb 0.32367 0.27861 0.78822 0.0
C589 C 0.24259 0.31034 0.73053 0.0
N590 N 0.25515 0.32081 0.75175 0.0
C591 C 0.25537 0.35727 0.73824 0.0
C592 C 0.23642 0.32292 0.71201 0.0
C593 C 0.26078 0.34402 0.75621 0.0
C594 C 0.2434 0.34666 0.71591 0.0
C595 C 0.2208 0.27546 0.70691 0.0
C596 C 0.23498 0.28694 0.72791 0.0
C597 C 0.21515 0.28781 0.68805 0.0
C598 C 0.22302 0.31148 0.69056 0.0
Tb599 Tb 0.26365 0.29704 0.77898 0.0
N600 N 0.24132 0.27548 0.74626 0.0
C601 C 0.21235 0.25204 0.70584 0.0
C602 C 0.23147 0.25328 0.74632 0.0
C603 C 0.21731 0.24101 0.7259 0.0
H604 H 0.26875 0.35236 0.77388 0.0
H605 H 0.20985 0.22322 0.72585 0.0
H606 H 0.31552 0.22268 0.79301 0.0
H607 H 0.3708 0.35275 0.84769 0.0
H608 H 0.23384 0.24542 0.76245 0.0
H609 H 0.20129 0.24257 0.69007 0.0
H610 H 0.34809 0.33211 0.80995 0.0
H611 H 0.2601 0.37566 0.74178 0.0
H612 H 0.20444 0.27928 0.67163 0.0
H613 H 0.21822 0.32084 0.67603 0.0
H614 H 0.32389 0.19892 0.82453 0.0
H615 H 0.23902 0.35698 0.70213 0.0
H616 H 0.38057 0.33154 0.88148 0.0
N617 N 0.3305 0.25409 0.81524 0.0
C618 C 0.34282 0.26417 0.83677 0.0
C619 C 0.32913 0.21726 0.82827 0.0
C620 C 0.34851 0.2511 0.85504 0.0
C621 C 0.32408 0.23088 0.81056 0.0
C622 C 0.34129 0.2274 0.85064 0.0
N623 N 0.34389 0.29987 0.82251 0.0
C624 C 0.35178 0.3228 0.82462 0.0
C625 C 0.36321 0.29873 0.86222 0.0
C626 C 0.3501 0.28773 0.84035 0.0
C627 C 0.37044 0.32244 0.86495 0.0
C628 C 0.36487 0.33449 0.84597 0.0
H629 H 0.34531 0.21676 0.86424 0.0
H630 H 0.36592 0.25226 0.89123 0.0
H631 H 0.37877 0.29393 0.8975 0.0
O632 O 0.34983 0.29256 0.76868 0.0
O633 O 0.30824 0.29002 0.82073 0.0
O634 O 0.28618 0.31577 0.81075 0.0
O635 O 0.3504 0.26174 0.78408 0.0
O636 O 0.31951 0.30812 0.76936 0.0
O637 O 0.29296 0.32596 0.78489 0.0
O638 O 0.24007 0.28414 0.80199 0.0
O639 O 0.27719 0.28428 0.74573 0.0
O640 O 0.30263 0.26117 0.75475 0.0
O641 O 0.23642 0.31295 0.78379 0.0
O642 O 0.26774 0.26647 0.79635 0.0
O643 O 0.29467 0.24987 0.77972 0.0
C644 C 0.298 0.30687 0.82689 0.0
C645 C 0.36872 0.26575 0.74906 0.0
C646 C 0.39812 0.26554 0.72216 0.0
C647 C 0.38729 0.24337 0.71186 0.0
C648 C 0.35817 0.24372 0.73796 0.0
C649 C 0.36741 0.23268 0.71955 0.0
C650 C 0.38865 0.27683 0.74077 0.0
C651 C 0.31249 0.32679 0.77637 0.0
C652 C 0.3604 0.27594 0.77088 0.0
C653 C 0.36139 0.26203 0.87698 0.0
C654 C 0.36874 0.28577 0.88054 0.0
C655 C 0.28956 0.26941 0.73907 0.0
C656 C 0.21948 0.31034 0.8198 0.0
C657 C 0.18926 0.31111 0.84544 0.0
C658 C 0.19949 0.33367 0.85494 0.0
C659 C 0.22955 0.33273 0.8301 0.0
C660 C 0.19944 0.29938 0.82788 0.0
C661 C 0.21957 0.34427 0.84751 0.0
C662 C 0.27535 0.24835 0.78857 0.0
C663 C 0.22807 0.2995 0.79863 0.0
H664 H 0.39426 0.23428 0.69773 0.0
H665 H 0.34307 0.23472 0.74401 0.0
H666 H 0.35932 0.21556 0.71144 0.0
H667 H 0.39714 0.29372 0.74932 0.0
H668 H 0.19192 0.3431 0.86825 0.0
H669 H 0.24479 0.34155 0.82416 0.0
H670 H 0.19136 0.2822 0.81989 0.0
H671 H 0.22724 0.36167 0.855 0.0
Tb672 Tb 0.05511 1.00846 0.52871 0.0
C673 C 0.02158 0.08871 0.58352 0.0
N674 N 1.01118 0.0742 0.56347 0.0
C675 C 0.9763 0.0694 0.58037 0.0
C676 C 1.00982 0.09382 0.60305 0.0
C677 C 0.98869 0.06484 0.56145 0.0
C678 C 0.98693 0.08383 0.60133 0.0
C679 C 0.05561 0.11391 0.60453 0.0
C680 C 0.04418 0.09847 0.58435 0.0
C681 C 0.0441 0.11881 0.62427 0.0
C682 C 0.02126 0.10876 0.62354 0.0
Tb683 Tb 0.03353 0.06755 0.5343 0.0
N684 N 0.05487 0.09287 0.56516 0.0
C685 C 0.0781 0.12428 0.60398 0.0
C686 C 0.07607 0.10433 0.56365 0.0
C687 C 0.08823 0.1198 0.58323 0.0
H688 H 0.98008 0.05421 0.54509 0.0
H689 H 0.10524 0.12856 0.58211 0.0
H690 H 0.10848 0.02125 0.51722 0.0
H691 H 0.98168 0.94971 0.48067 0.0
H692 H 0.0833 0.10216 0.54709 0.0
H693 H 0.08751 0.13633 0.61909 0.0
H694 H 1.00384 0.97609 0.51531 0.0
H695 H 0.95852 0.06189 0.5787 0.0
H696 H 0.05262 0.13053 0.64004 0.0
H697 H 1.01255 0.11285 0.63879 0.0
H698 H 0.12979 0.01205 0.48391 0.0
H699 H 0.97726 0.08734 0.61593 0.0
H700 H 0.99989 0.93942 0.44475 0.0
N701 N 0.0772 1.00098 0.49955 0.0
C702 C 0.06667 0.98576 0.48009 0.0
C703 C 0.11199 1.00467 0.48252 0.0
C704 C 0.07833 0.97972 0.46078 0.0
C705 C 0.09971 1.01014 0.50124 0.0
C706 C 0.10125 0.9895 0.46214 0.0
N707 N 0.03312 0.98334 0.49803 0.0
C708 C 1.01142 0.97306 0.49918 0.0
C709 C 0.03231 0.96072 0.45951 0.0
C710 C 0.04393 0.97647 0.4794 0.0
C711 C 1.00946 0.95153 0.4597 0.0
C712 C 0.99907 0.95747 0.47983 0.0
H713 H 0.11082 0.9853 0.44768 0.0
H714 H 0.07543 0.95942 0.42573 0.0
H715 H 0.03516 0.94276 0.42464 0.0
O716 O 0.04522 0.98112 0.54959 0.0
O717 O 0.04517 0.02157 0.49392 0.0
O718 O 0.01868 0.0425 0.50289 0.0
O719 O 0.07831 0.9884 0.53777 0.0
O720 O 0.02395 1.01011 0.54538 0.0
O721 O 1.00758 0.03619 0.52634 0.0
O722 O 0.04309 0.09427 0.51263 0.0
O723 O 0.04326 0.05377 0.56861 0.0
O724 O 0.07048 0.03337 0.56031 0.0
O725 O 1.01014 0.08732 0.52492 0.0
O726 O 0.06516 0.06663 0.51849 0.0
O727 O 0.08158 0.03959 0.53597 0.0
C728 C 0.02915 0.03244 0.48699 0.0
C729 C 0.07192 0.95601 0.56016 0.0
C730 C 0.06779 0.92552 0.58626 0.0
C731 C 0.08811 0.92037 0.5801 0.0
C732 C 0.09219 0.95017 0.55445 0.0
C733 C 0.10013 0.93253 0.5643 0.0
C734 C 0.05948 0.94337 0.57608 0.0
C735 C 1.00615 0.01831 0.5381 0.0
C736 C 0.06473 0.97537 0.54915 0.0
C737 C 0.06678 0.96421 0.44079 0.0
C738 C 0.04383 0.95471 0.44017 0.0
C739 C 0.06021 0.04424 0.5758 0.0
C740 C 0.01554 0.11766 0.49972 0.0
C741 C 0.02159 0.15102 0.47772 0.0
C742 C 0.99834 0.15052 0.47554 0.0
C743 C 0.99235 0.11776 0.49703 0.0
C744 C 0.03027 0.13434 0.4897 0.0
C745 C 0.98389 0.13399 0.48503 0.0
C746 C 0.08284 0.05791 0.52487 0.0
C747 C 0.02336 0.09959 0.51251 0.0
H748 H 0.09474 0.90677 0.5876 0.0
H749 H 0.10207 0.95927 0.54224 0.0
H750 H 0.11577 0.92831 0.55971 0.0
H751 H 0.04385 0.94755 0.58078 0.0
H752 H 0.99132 0.16301 0.46632 0.0
H753 H 0.98057 0.10511 0.50413 0.0
H754 H 0.04817 0.13455 0.49146 0.0
H755 H 0.96599 0.13378 0.48308 0.0
Tb756 Tb 0.29687 0.82173 0.76791 0.0
C757 C 0.24852 0.74356 0.82265 0.0
N758 N 0.26932 0.75748 0.82875 0.0
C759 C 0.26213 0.76347 0.87017 0.0
C760 C 0.23343 0.74001 0.83995 0.0
C761 C 0.2767 0.76616 0.85257 0.0
C762 C 0.24027 0.75071 0.86375 0.0
C763 C 0.22228 0.71555 0.79311 0.0
C764 C 0.24287 0.73138 0.7994 0.0
C765 C 0.20686 0.71291 0.80998 0.0
C766 C 0.21239 0.72514 0.8333 0.0
Tb767 Tb 0.29062 0.75949 0.79729 0.0
N768 N 0.25797 0.73448 0.78321 0.0
C769 C 0.21825 0.70216 0.7704 0.0
C770 C 0.25514 0.71996 0.76223 0.0
C771 C 0.23501 0.70397 0.75516 0.0
H772 H 0.29392 0.77479 0.85856 0.0
H773 H 0.23267 0.69267 0.73828 0.0
H774 H 0.28687 0.80571 0.70617 0.0
H775 H 0.35667 0.8948 0.81381 0.0
H776 H 0.26875 0.72017 0.75146 0.0
H777 H 0.20273 0.68962 0.76498 0.0
H778 H 0.32096 0.86585 0.80705 0.0
H779 H 0.26796 0.77084 0.88882 0.0
H780 H 0.19087 0.70095 0.8054 0.0
H781 H 0.20057 0.72237 0.84635 0.0
H782 H 0.30971 0.80553 0.67286 0.0
H783 H 0.22919 0.74836 0.87757 0.0
H784 H 0.38464 0.89345 0.7853 0.0
N785 N 0.31462 0.82153 0.73344 0.0
C786 C 0.33607 0.83421 0.73697 0.0
C787 C 0.31748 0.81324 0.69092 0.0
C788 C 0.34934 0.83581 0.71779 0.0
C789 C 0.30471 0.81287 0.71022 0.0
C790 C 0.34008 0.82425 0.69485 0.0
N791 N 0.33 0.84729 0.77662 0.0
C792 C 0.33372 0.86454 0.79535 0.0
C793 C 0.36421 0.86414 0.76196 0.0
C794 C 0.34372 0.84803 0.75899 0.0
C795 C 0.3693 0.88049 0.78258 0.0
C796 C 0.35362 0.88115 0.7989 0.0
H797 H 0.34974 0.82501 0.67969 0.0
H798 H 0.38126 0.85141 0.70714 0.0
H799 H 0.39412 0.87646 0.74574 0.0
O800 O 0.28037 0.84647 0.78411 0.0
O801 O 0.3296 0.81425 0.78564 0.0
O802 O 0.32643 0.77845 0.80025 0.0
O803 O 0.29142 0.84855 0.74912 0.0
O804 O 0.28669 0.8102 0.80127 0.0
O805 O 0.30429 0.78864 0.82374 0.0
O806 O 0.30409 0.73184 0.78252 0.0
O807 O 0.25823 0.76996 0.78207 0.0
O808 O 0.2615 0.80169 0.76013 0.0
O809 O 0.29786 0.73556 0.81967 0.0
O810 O 0.30219 0.7701 0.76437 0.0
O811 O 0.28364 0.7915 0.74263 0.0
C812 C 0.3386 0.79796 0.79523 0.0
C813 C 0.2601 0.86458 0.75525 0.0
C814 C 0.23667 0.8932 0.75578 0.0
C815 C 0.22676 0.88418 0.73204 0.0
C816 C 0.24936 0.85535 0.73173 0.0
C817 C 0.23291 0.86521 0.72022 0.0
C818 C 0.25332 0.88331 0.76744 0.0
C819 C 0.3005 0.80854 0.8201 0.0
C820 C 0.28068 0.85737 0.7652 0.0
C821 C 0.37079 0.85019 0.7216 0.0
C822 C 0.37814 0.86446 0.74359 0.0
C823 C 0.24924 0.78432 0.769 0.0
C824 C 0.32739 0.71707 0.81147 0.0
C825 C 0.35079 0.6884 0.8104 0.0
C826 C 0.3641 0.70022 0.83168 0.0
C827 C 0.34137 0.72897 0.8324 0.0
C828 C 0.33246 0.69694 0.80022 0.0
C829 C 0.35954 0.7205 0.84243 0.0
C830 C 0.28851 0.77184 0.74557 0.0
C831 C 0.30607 0.7239 0.80323 0.0
H832 H 0.21415 0.8918 0.72269 0.0
H833 H 0.2543 0.84105 0.72183 0.0
H834 H 0.22519 0.85838 0.70189 0.0
H835 H 0.26162 0.89077 0.78543 0.0
H836 H 0.37815 0.69379 0.83987 0.0
H837 H 0.33789 0.74447 0.84145 0.0
H838 H 0.32176 0.68754 0.78416 0.0
H839 H 0.36993 0.72952 0.85881 0.0
Tb840 Tb 0.54265 0.06063 1.00134 0.0
C841 C 0.5804 1.00526 0.0898 0.0
N842 N 0.56315 0.99634 0.07197 0.0
C843 C 0.57727 0.96186 0.06645 0.0
C844 C 0.59726 0.99313 0.09628 0.0
C845 C 0.56125 0.97481 0.06036 0.0
C846 C 0.5955 0.97113 0.08435 0.0
C847 C 0.5987 0.03681 0.12015 0.0
C848 C 0.58102 0.02666 0.10147 0.0
C849 C 0.61606 0.02526 0.12615 0.0
C850 C 0.61528 1.00338 0.11432 0.0
Tb851 Tb 0.5395 0.01959 0.06046 0.0
N852 N 0.56388 0.03717 0.09499 0.0
C853 C 0.59815 0.05802 0.13254 0.0
C854 C 0.56229 0.05684 0.10883 0.0
C855 C 0.57958 0.06781 0.12721 0.0
H856 H 0.54747 0.9676 0.04617 0.0
H857 H 0.57838 0.0837 0.1375 0.0
H858 H 0.5329 0.11154 0.02292 0.0
H859 H 0.51234 1.0095 0.9143 0.0
H860 H 0.5477 0.0642 0.10658 0.0
H861 H 0.61147 0.0665 0.14685 0.0
H862 H 0.53979 0.02456 0.9508 0.0
H863 H 0.5757 0.94484 0.05712 0.0
H864 H 0.62991 0.0329 0.14024 0.0
H865 H 0.62857 0.99447 0.11937 0.0
H866 H 0.50402 0.1341 0.01513 0.0
H867 H 0.60803 0.96118 0.08886 0.0
H868 H 0.47898 0.02664 0.90586 0.0
N869 N 0.51838 0.08483 0.99433 0.0
C870 C 0.50276 0.07836 0.97428 0.0
C871 C 0.50319 0.11819 0.00375 0.0
C872 C 0.48581 0.09073 0.96905 0.0
C873 C 0.51938 0.10506 0.00842 0.0
C874 C 0.48603 0.11076 0.98428 0.0
N875 N 0.52101 0.04836 0.96437 0.0
C876 C 0.52488 0.03159 0.94792 0.0
C877 C 0.48825 0.05184 0.9378 0.0
C878 C 0.50408 0.05941 0.95875 0.0
C879 C 0.49085 0.03313 0.92209 0.0
C880 C 0.50959 0.02333 0.92688 0.0
H881 H 0.47343 0.12089 0.9808 0.0
H882 H 0.45606 0.09192 0.94455 0.0
H883 H 0.45803 0.05763 0.91731 0.0
O884 O 0.56985 0.06078 0.98154 0.0
O885 O 0.50807 0.04343 1.00163 0.0
O886 O 0.52745 0.03403 0.03115 0.0
O887 O 0.56051 0.09212 0.99452 0.0
O888 O 0.54697 0.02402 0.99345 0.0
O889 O 0.53797 0.9999 0.02383 0.0
O890 O 0.51187 0.01916 0.07934 0.0
O891 O 0.57212 0.02688 0.0484 0.0
O892 O 0.5643 0.05822 0.03433 0.0
O893 O 0.51795 0.98795 0.06167 0.0
O894 O 0.53127 0.05428 0.06737 0.0
O895 O 0.54257 0.07899 0.0386 0.0
C896 C 0.5077 0.03235 0.01976 0.0
C897 C 0.57387 0.08973 0.95659 0.0
C898 C 0.58805 0.08536 0.91794 0.0
C899 C 0.57694 0.10216 0.91006 0.0
C900 C 0.56287 0.10666 0.94876 0.0
C901 C 0.56442 0.11279 0.92551 0.0
C902 C 0.58634 0.0792 0.9411 0.0
C903 C 0.5435 1.00366 1.00181 0.0
C904 C 0.57281 0.08262 0.98072 0.0
C905 C 0.46946 0.08287 0.94865 0.0
C906 C 0.4706 0.06337 0.93312 0.0
C907 C 0.57744 0.04353 0.03574 0.0
C908 C 0.50377 0.98788 0.09942 0.0
C909 C 0.48842 0.99201 0.13721 0.0
C910 C 0.50344 0.97972 0.14768 0.0
C911 C 0.51882 0.97542 0.1097 0.0
C912 C 0.4882 0.99548 0.11306 0.0
C913 C 0.51839 0.97111 0.13375 0.0
C914 C 0.53514 0.07484 0.05973 0.0
C915 C 0.50638 0.9971 0.07663 0.0
H916 H 0.57838 0.10741 0.89228 0.0
H917 H 0.55313 0.11514 0.96048 0.0
H918 H 0.55608 0.12592 0.91954 0.0
H919 H 0.59482 0.06612 0.94714 0.0
H920 H 0.50368 0.97697 0.16654 0.0
H921 H 0.5313 0.96974 0.09955 0.0
H922 H 0.47692 1.00557 0.10536 0.0
H923 H 0.53009 0.96172 0.1418 0.0
Tb924 Tb 0.2768 0.25876 0.262 0.0
C925 C 0.35181 0.3356 0.32823 0.0
N926 N 0.33175 0.32332 0.33227 0.0
C927 C 0.34589 0.32571 0.37452 0.0
C928 C 0.36955 0.34389 0.34734 0.0
C929 C 0.3287 0.31806 0.35505 0.0
C930 C 0.36634 0.33885 0.3707 0.0
C931 C 0.37519 0.35231 0.29975 0.0
C932 C 0.35455 0.33983 0.30478 0.0
C933 C 0.39268 0.36117 0.31881 0.0
C934 C 0.38986 0.35698 0.34255 0.0
Tb935 Tb 0.30374 0.31594 0.29986 0.0
N936 N 0.3372 0.33111 0.28683 0.0
C937 C 0.37772 0.35538 0.27569 0.0
C938 C 0.3399 0.33364 0.26327 0.0
C939 C 0.36007 0.34572 0.25734 0.0
H940 H 0.31261 0.30928 0.35867 0.0
H941 H 0.36198 0.34753 0.23859 0.0
H942 H 0.26814 0.25653 0.20177 0.0
H943 H 0.22259 0.21986 0.32323 0.0
H944 H 0.327 0.32582 0.2488 0.0
H945 H 0.39331 0.36482 0.27106 0.0
H946 H 0.25806 0.23776 0.31088 0.0
H947 H 0.34315 0.32189 0.39257 0.0
H948 H 0.40853 0.37107 0.31533 0.0
H949 H 0.40356 0.36377 0.35706 0.0
H950 H 0.23618 0.24647 0.16896 0.0
H951 H 0.37951 0.34501 0.38588 0.0
H952 H 0.18799 0.2103 0.29357 0.0
N953 N 0.24815 0.24955 0.22992 0.0
C954 C 0.22758 0.23968 0.23512 0.0
C955 C 0.23336 0.24495 0.18755 0.0
C956 C 0.20898 0.2324 0.21675 0.0
C957 C 0.25131 0.25158 0.20631 0.0
C958 C 0.21202 0.23552 0.19282 0.0
N959 N 0.24413 0.2419 0.2756 0.0
C960 C 0.24325 0.23549 0.29824 0.0
C961 C 0.20475 0.22416 0.26462 0.0
C962 C 0.22552 0.23558 0.2587 0.0
C963 C 0.20358 0.21912 0.28832 0.0
C964 C 0.22301 0.22459 0.30512 0.0
H965 H 0.1982 0.22998 0.17819 0.0
H966 H 0.17374 0.21573 0.20878 0.0
H967 H 0.17003 0.20856 0.25076 0.0
O968 O 0.28873 0.22973 0.27184 0.0
O969 O 0.25129 0.27967 0.27229 0.0
O970 O 0.26887 0.30178 0.30771 0.0
O971 O 0.27749 0.23307 0.2343 0.0
O972 O 0.29397 0.25809 0.29937 0.0
O973 O 0.28909 0.29041 0.32128 0.0
O974 O 0.29324 0.34537 0.29038 0.0
O975 O 0.32844 0.29386 0.29013 0.0
O976 O 0.31101 0.27448 0.25355 0.0
O977 O 0.30472 0.34227 0.32812 0.0
O978 O 0.28802 0.31869 0.26282 0.0
O979 O 0.28694 0.28494 0.2387 0.0
C980 C 0.25017 0.29271 0.29269 0.0
C981 C 0.29049 0.19905 0.24024 0.0
C982 C 0.30702 0.16721 0.24858 0.0
C983 C 0.30507 0.15968 0.22369 0.0
C984 C 0.28818 0.19153 0.2152 0.0
C985 C 0.29539 0.17178 0.20699 0.0
C986 C 0.29955 0.18659 0.25683 0.0
C987 C 0.29238 0.2696 0.32037 0.0
C988 C 0.28562 0.22088 0.24908 0.0
C989 C 0.18817 0.2215 0.22266 0.0
C990 C 0.18606 0.21741 0.24655 0.0
C991 C 0.32966 0.28196 0.26905 0.0
C992 C 0.29243 0.37695 0.32082 0.0
C993 C 0.27652 0.40898 0.31097 0.0
C994 C 0.28078 0.4185 0.33543 0.0
C995 C 0.29669 0.38635 0.34541 0.0
C996 C 0.28233 0.38836 0.30371 0.0
C997 C 0.29085 0.40711 0.35264 0.0
C998 C 0.28594 0.30668 0.24123 0.0
C999 C 0.2966 0.35445 0.31308 0.0
H1000 H 0.31103 0.14458 0.21731 0.0
H1001 H 0.28131 0.20113 0.20199 0.0
H1002 H 0.29384 0.1661 0.18774 0.0
H1003 H 0.30166 0.1924 0.27617 0.0
H1004 H 0.27624 0.43458 0.34112 0.0
H1005 H 0.3042 0.37755 0.35901 0.0
H1006 H 0.27874 0.38119 0.28471 0.0
H1007 H 0.294 0.4143 0.37158 0.0
Tb1008 Tb 0.55444 0.50976 0.03087 0.0
C1009 C 0.51763 0.58977 0.08459 0.0
N1010 N 0.50889 0.57566 0.06369 0.0
C1011 C 0.47212 0.57068 0.07648 0.0
C1012 C 0.50401 0.59451 0.10251 0.0
C1013 C 0.48623 0.56685 0.05902 0.0
C1014 C 0.48108 0.58435 0.09843 0.0
C1015 C 0.54972 0.61613 0.10815 0.0
C1016 C 0.54023 0.60022 0.08758 0.0
C1017 C 0.53637 0.62049 0.12634 0.0
C1018 C 0.5136 0.60959 0.1236 0.0
Tb1019 Tb 0.53433 0.57039 0.03739 0.0
N1020 N 0.55291 0.5948 0.07015 0.0
C1021 C 0.57234 0.62712 0.1097 0.0
C1022 C 0.57431 0.60668 0.07062 0.0
C1023 C 0.58457 0.62266 0.09062 0.0
H1024 H 0.47874 0.55727 0.0417 0.0
H1025 H 0.60172 0.63184 0.09111 0.0
H1026 H 0.60862 0.51728 0.02263 0.0
H1027 H 0.47973 0.45509 0.97997 0.0
H1028 H 0.58305 0.60445 0.05513 0.0
H1029 H 0.5803 0.63949 0.12519 0.0
H1030 H 0.50202 0.48036 0.01529 0.0
H1031 H 0.45426 0.56337 0.07282 0.0
H1032 H 0.54343 0.63239 0.14248 0.0
H1033 H 0.50343 0.61332 0.13765 0.0
H1034 H 0.63055 0.50648 0.99042 0.0
H1035 H 0.47004 0.58748 0.11179 0.0
H1036 H 0.49846 0.4434 0.94496 0.0
N1037 N 0.57702 0.49937 0.00338 0.0
C1038 C 0.56635 0.48509 0.98331 0.0
C1039 C 0.61247 0.50044 0.98813 0.0
C1040 C 0.57826 0.47828 0.96453 0.0
C1041 C 0.59989 0.50672 0.00627 0.0
C1042 C 0.6016 0.4863 0.96708 0.0
N1043 N 0.53246 0.48493 0.9998 0.0
C1044 C 0.51011 0.47636 0.99982 0.0
C1045 C 0.53146 0.46247 0.96115 0.0
C1046 C 0.54331 0.47737 0.98159 0.0
C1047 C 0.50821 0.45482 0.96036 0.0
C1048 C 0.49755 0.46153 0.97998 0.0
H1049 H 0.61138 0.48151 0.95305 0.0
H1050 H 0.57536 0.45847 0.92918 0.0
H1051 H 0.53435 0.44459 0.92624 0.0
O1052 O 0.54168 0.48262 0.05031 0.0
O1053 O 0.54354 0.52262 0.99625 0.0
O1054 O 0.51899 0.54657 0.00489 0.0
O1055 O 0.57681 0.49129 0.04623 0.0
O1056 O 0.52523 0.51507 0.04926 0.0
O1057 O 0.50779 0.5394 0.0291 0.0
O1058 O 0.54608 0.59558 0.01543 0.0
O1059 O 0.54748 0.55833 0.07156 0.0
O1060 O 0.57171 0.5352 0.06087 0.0
O1061 O 0.51546 0.59534 0.0311 0.0
O1062 O 0.56642 0.56992 0.0226 0.0
O1063 O 0.58199 0.53986 0.03487 0.0
C1064 C 0.52835 0.53456 0.98927 0.0
C1065 C 0.56398 0.45396 0.05588 0.0
C1066 C 0.56256 0.42082 0.0782 0.0
C1067 C 0.57627 0.41217 0.06248 0.0
C1068 C 0.57725 0.44451 0.04016 0.0
C1069 C 0.58334 0.4238 0.04352 0.0
C1070 C 0.55628 0.44177 0.07472 0.0
C1071 C 0.50682 0.52121 0.04032 0.0
C1072 C 0.56152 0.47795 0.05543 0.0
C1073 C 0.56653 0.46375 0.9439 0.0
C1074 C 0.54318 0.45583 0.94222 0.0
C1075 C 0.56262 0.54607 0.0774 0.0
C1076 C 0.51899 0.6143 0.99616 0.0
C1077 C 0.51988 0.64444 0.96986 0.0
C1078 C 0.49751 0.63479 0.96 0.0
C1079 C 0.4967 0.60488 0.98573 0.0
C1080 C 0.53067 0.63405 0.98791 0.0
C1081 C 0.48609 0.61508 0.96777 0.0
C1082 C 0.58337 0.55937 0.02587 0.0
C1083 C 0.52915 0.60559 0.01762 0.0
H1084 H 0.5815 0.39626 0.06487 0.0
H1085 H 0.58362 0.45353 0.02579 0.0
H1086 H 0.59398 0.41694 0.03163 0.0
H1087 H 0.54641 0.44904 0.08727 0.0
H1088 H 0.48883 0.64261 0.9463 0.0
H1089 H 0.48723 0.58998 0.99192 0.0
H1090 H 0.54773 0.64176 0.9961 0.0
H1091 H 0.46879 0.60791 0.96012 0.0
Tb1092 Tb 0.79712 0.32107 0.2673 0.0
C1093 C 0.7464 0.24035 0.31981 0.0
N1094 N 0.7671 0.25431 0.3266 0.0
C1095 C 0.75969 0.25819 0.36806 0.0
C1096 C 0.73136 0.23547 0.33694 0.0
C1097 C 0.77426 0.26218 0.35065 0.0
C1098 C 0.73807 0.24503 0.36115 0.0
C1099 C 0.71968 0.21457 0.2886 0.0
C1100 C 0.74052 0.22987 0.29579 0.0
C1101 C 0.70461 0.21019 0.30558 0.0
C1102 C 0.71039 0.22065 0.32962 0.0
Tb1103 Tb 0.78859 0.25782 0.29548 0.0
N1104 N 0.75524 0.23467 0.27947 0.0
C1105 C 0.71475 0.20384 0.26461 0.0
C1106 C 0.75121 0.22299 0.25664 0.0
C1107 C 0.73073 0.20784 0.24866 0.0
H1108 H 0.79136 0.27103 0.35698 0.0
H1109 H 0.72749 0.19889 0.23038 0.0
H1110 H 0.79344 0.30668 0.20554 0.0
H1111 H 0.85452 0.3884 0.32606 0.0
H1112 H 0.76396 0.22476 0.24486 0.0
H1113 H 0.69895 0.19194 0.25842 0.0
H1114 H 0.81882 0.36022 0.3131 0.0
H1115 H 0.76536 0.26483 0.38694 0.0
H1116 H 0.68851 0.19854 0.30035 0.0
H1117 H 0.69868 0.21678 0.34257 0.0
H1118 H 0.81938 0.31065 0.1753 0.0
H1119 H 0.72699 0.24167 0.3748 0.0
H1120 H 0.88409 0.39241 0.29894 0.0
N1121 N 0.81807 0.3239 0.23544 0.0
C1122 C 0.83879 0.33794 0.24147 0.0
C1123 C 0.82521 0.31805 0.19396 0.0
C1124 C 0.85377 0.34176 0.22408 0.0
C1125 C 0.81067 0.31531 0.21157 0.0
C1126 C 0.84699 0.33096 0.20031 0.0
N1127 N 0.82955 0.34652 0.28102 0.0
C1128 C 0.83232 0.36087 0.30214 0.0
C1129 C 0.86472 0.36638 0.27082 0.0
C1130 C 0.84441 0.35007 0.26469 0.0
C1131 C 0.86876 0.37962 0.29361 0.0
C1132 C 0.85221 0.37724 0.30909 0.0
H1133 H 0.85804 0.33341 0.18647 0.0
H1134 H 0.88632 0.36001 0.21747 0.0
H1135 H 0.89577 0.3817 0.25828 0.0
O1136 O 0.78148 0.34616 0.2838 0.0
O1137 O 0.8293 0.31186 0.28494 0.0
O1138 O 0.82482 0.27694 0.30185 0.0
O1139 O 0.79098 0.34746 0.24797 0.0
O1140 O 0.78523 0.30772 0.29903 0.0
O1141 O 0.80132 0.28634 0.3228 0.0
O1142 O 0.80149 0.23054 0.27895 0.0
O1143 O 0.75683 0.26911 0.27978 0.0
O1144 O 0.76145 0.3014 0.25866 0.0
O1145 O 0.7949 0.23225 0.31597 0.0
O1146 O 0.802 0.27279 0.26571 0.0
O1147 O 0.78521 0.29184 0.24029 0.0
C1148 C 0.83765 0.29601 0.29631 0.0
C1149 C 0.75916 0.36208 0.25532 0.0
C1150 C 0.73409 0.38914 0.25467 0.0
C1151 C 0.72088 0.37564 0.23412 0.0
C1152 C 0.74568 0.34886 0.23482 0.0
C1153 C 0.72664 0.35562 0.22436 0.0
C1154 C 0.75317 0.38212 0.26537 0.0
C1155 C 0.79815 0.3063 0.3186 0.0
C1156 C 0.78072 0.35646 0.26448 0.0
C1157 C 0.87459 0.35704 0.23058 0.0
C1158 C 0.87997 0.36944 0.25381 0.0
C1159 C 0.74853 0.28391 0.26674 0.0
C1160 C 0.8246 0.21449 0.30692 0.0
C1161 C 0.84874 0.18655 0.30467 0.0
C1162 C 0.86207 0.19815 0.32601 0.0
C1163 C 0.83849 0.22606 0.32807 0.0
C1164 C 0.82992 0.19472 0.29511 0.0
C1165 C 0.85701 0.21783 0.33756 0.0
C1166 C 0.7902 0.27272 0.24511 0.0
C1167 C 0.80326 0.22143 0.29898 0.0
H1168 H 0.70605 0.38058 0.22561 0.0
H1169 H 0.75025 0.33365 0.22646 0.0
H1170 H 0.71652 0.34553 0.20837 0.0
H1171 H 0.76381 0.39264 0.28086 0.0
H1172 H 0.87643 0.19189 0.33375 0.0
H1173 H 0.83469 0.24114 0.33769 0.0
H1174 H 0.81928 0.18552 0.27892 0.0
H1175 H 0.86731 0.2266 0.3541 0.0
Tb1176 Tb 0.0425 0.55909 0.50055 0.0
C1177 C 0.08384 0.50533 0.58826 0.0
N1178 N 0.06601 0.49669 0.57091 0.0
C1179 C 0.07873 0.46143 0.56518 0.0
C1180 C 0.10011 0.49241 0.59452 0.0
C1181 C 0.06334 0.47508 0.5592 0.0
C1182 C 0.09722 0.47014 0.58291 0.0
C1183 C 0.10557 0.53774 0.6157 0.0
C1184 C 0.08639 0.52763 0.59876 0.0
C1185 C 0.12176 0.52496 0.62209 0.0
C1186 C 0.11899 0.50231 0.61161 0.0
Tb1187 Tb 0.0425 0.52044 0.56079 0.0
N1188 N 0.07065 0.53966 0.59149 0.0
C1189 C 0.10817 0.56053 0.62539 0.0
C1190 C 0.07305 0.56185 0.6017 0.0
C1191 C 0.09176 0.57256 0.61845 0.0
H1192 H 0.04932 0.46828 0.54516 0.0
H1193 H 0.09349 0.5902 0.626 0.0
H1194 H 0.03509 0.61158 0.51629 0.0
H1195 H 1.00408 0.49663 0.42239 0.0
H1196 H 0.06097 0.57195 0.5975 0.0
H1197 H 0.12273 0.56897 0.63825 0.0
H1198 H 0.03349 0.51407 0.45572 0.0
H1199 H 0.07647 0.4443 0.55591 0.0
H1200 H 0.13659 0.5325 0.63497 0.0
H1201 H 0.13172 0.4927 0.61655 0.0
H1202 H 1.00795 0.63527 0.505 0.0
H1203 H 0.10931 0.45966 0.58724 0.0
H1204 H 0.97332 0.5163 0.41058 0.0
N1205 N 0.01973 0.5835 0.48967 0.0
C1206 C 1.00354 0.57567 0.47037 0.0
C1207 C 1.00635 0.61842 0.49525 0.0
C1208 C 0.98746 0.58853 0.46337 0.0
C1209 C 0.02161 0.60482 0.50179 0.0
C1210 C 0.989 0.61014 0.47614 0.0
N1211 N 0.01876 0.54268 0.46541 0.0
C1212 C 0.01986 0.52264 0.45202 0.0
C1213 C 0.98602 0.54536 0.43812 0.0
C1214 C 1.00296 0.5545 0.45783 0.0
C1215 C 0.98611 0.524 0.42571 0.0
C1216 C 1.00336 0.5128 0.43243 0.0
H1217 H 0.97705 0.62061 0.47127 0.0
H1218 H 0.95769 0.5889 0.43852 0.0
H1219 H 0.9563 0.55096 0.41652 0.0
O1220 O 0.06832 0.55868 0.4788 0.0
O1221 O 1.00768 0.54512 0.50411 0.0
O1222 O 0.02737 0.53134 0.53001 0.0
O1223 O 0.06242 0.59031 0.49588 0.0
O1224 O 0.05068 0.52385 0.49503 0.0
O1225 O 0.03753 0.50001 0.52395 0.0
O1226 O 0.01788 0.52161 0.58373 0.0
O1227 O 0.07499 0.52897 0.54849 0.0
O1228 O 0.06292 0.55802 0.53441 0.0
O1229 O 0.0225 0.48939 0.56651 0.0
O1230 O 0.03261 0.55445 0.56775 0.0
O1231 O 0.04026 0.57813 0.5369 0.0
C1232 C 1.00732 0.53265 0.5212 0.0
C1233 C 0.07612 0.59085 0.45808 0.0
C1234 C 0.09041 0.58901 0.41919 0.0
C1235 C 0.08768 0.61145 0.4174 0.0
C1236 C 0.07351 0.61326 0.45617 0.0
C1237 C 0.07896 0.62334 0.43569 0.0
C1238 C 0.08382 0.57866 0.4392 0.0
C1239 C 0.04539 0.50344 0.50288 0.0
C1240 C 0.07345 0.58082 0.48061 0.0
C1241 C 0.97036 0.57939 0.44398 0.0
C1242 C 0.96958 0.5578 0.43145 0.0
C1243 C 0.0784 0.54597 0.53607 0.0
C1244 C 1.00594 0.48967 0.60312 0.0
C1245 C 0.98388 0.49017 0.63647 0.0
C1246 C 0.98891 0.46933 0.64177 0.0
C1247 C 1.01115 0.46886 0.6084 0.0
C1248 C 0.99255 0.5003 0.61742 0.0
C1249 C 1.00271 0.45882 0.62785 0.0
C1250 C 0.03423 0.57446 0.55881 0.0
C1251 C 1.01148 0.49957 0.58131 0.0
H1252 H 0.093 0.62013 0.4024 0.0
H1253 H 0.06775 0.62315 0.47065 0.0
H1254 H 0.07718 0.6407 0.43438 0.0
H1255 H 0.08553 0.56127 0.44058 0.0
H1256 H 0.98225 0.46134 0.65664 0.0
H1257 H 0.02126 0.46021 0.59732 0.0
H1258 H 0.98811 0.51617 0.6132 0.0
H1259 H 1.00658 0.44274 0.63189 0.0
Tb1260 Tb 0.82196 0.77736 0.28402 0.0
C1261 C 0.73949 0.80992 0.23331 0.0
N1262 N 0.75453 0.82049 0.25286 0.0
C1263 C 0.75742 0.85602 0.23664 0.0
C1264 C 0.7336 0.82189 0.21409 0.0
C1265 C 0.76288 0.84341 0.25518 0.0
C1266 C 0.74291 0.84518 0.21588 0.0
C1267 C 0.71542 0.7751 0.21195 0.0
C1268 C 0.73041 0.78681 0.23233 0.0
C1269 C 0.70966 0.78693 0.19266 0.0
C1270 C 0.71869 0.81026 0.19375 0.0
Tb1271 Tb 0.76188 0.79794 0.28168 0.0
N1272 N 0.73696 0.7757 0.25097 0.0
C1273 C 0.70687 0.7518 0.21147 0.0
C1274 C 0.72774 0.75327 0.25113 0.0
C1275 C 0.71288 0.7409 0.23127 0.0
H1276 H 0.77343 0.85221 0.27144 0.0
H1277 H 0.70588 0.72302 0.23136 0.0
H1278 H 0.8104 0.7222 0.2923 0.0
H1279 H 0.88656 0.84672 0.33096 0.0
H1280 H 0.73125 0.74495 0.26669 0.0
H1281 H 0.6954 0.74215 0.19609 0.0
H1282 H 0.85806 0.82634 0.29689 0.0
H1283 H 0.76429 0.87413 0.23845 0.0
H1284 H 0.69828 0.77819 0.17679 0.0
H1285 H 0.71408 0.81913 0.17873 0.0
H1286 H 0.81791 0.69934 0.32486 0.0
H1287 H 0.73878 0.85499 0.20152 0.0
H1288 H 0.89457 0.82773 0.36714 0.0
N1289 N 0.82881 0.75365 0.31227 0.0
C1290 C 0.84357 0.76338 0.33228 0.0
C1291 C 0.82495 0.71744 0.32737 0.0
C1292 C 0.84887 0.75077 0.35115 0.0
C1293 C 0.82037 0.73066 0.30908 0.0
C1294 C 0.83896 0.72761 0.34869 0.0
N1295 N 0.84935 0.79685 0.31412 0.0
C1296 C 0.86131 0.81814 0.31269 0.0
C1297 C 0.87067 0.79645 0.3529 0.0
C1298 C 0.85444 0.78573 0.33312 0.0
C1299 C 0.88202 0.81883 0.35227 0.0
C1300 C 0.87754 0.82961 0.33189 0.0
H1301 H 0.84264 0.71728 0.36272 0.0
H1302 H 0.86854 0.75219 0.38623 0.0
H1303 H 0.88751 0.79233 0.38783 0.0
O1304 O 0.84601 0.78839 0.26058 0.0
O1305 O 0.81665 0.8004 0.31589 0.0
O1306 O 0.77853 0.7906 0.31597 0.0
O1307 O 0.83978 0.7542 0.26903 0.0
O1308 O 0.81676 0.80772 0.26746 0.0
O1309 O 0.79274 0.82499 0.28856 0.0
O1310 O 0.7287 0.79197 0.29142 0.0
O1311 O 0.77524 0.78964 0.24667 0.0
O1312 O 0.79401 0.76184 0.25587 0.0
O1313 O 0.75161 0.82493 0.30172 0.0
O1314 O 0.76276 0.76597 0.29712 0.0
O1315 O 0.79093 0.75056 0.28076 0.0
C1316 C 0.79867 0.80036 0.32709 0.0
C1317 C 0.87583 0.76758 0.25808 0.0
C1318 C 0.90909 0.76909 0.23677 0.0
C1319 C 0.91866 0.75766 0.25447 0.0
C1320 C 0.88618 0.75674 0.2759 0.0
C1321 C 0.90738 0.75175 0.27399 0.0
C1322 C 0.88761 0.77414 0.23867 0.0
C1323 C 0.81108 0.82613 0.27771 0.0
C1324 C 0.8517 0.76869 0.25759 0.0
C1325 C 0.86441 0.76152 0.37143 0.0
C1326 C 0.87526 0.78436 0.37232 0.0
C1327 C 0.78497 0.77268 0.23967 0.0
C1328 C 0.7143 0.82159 0.31499 0.0
C1329 C 0.68041 0.81696 0.33574 0.0
C1330 C 0.68187 0.84062 0.33746 0.0
C1331 C 0.71519 0.84515 0.31724 0.0
C1332 C 0.69683 0.80738 0.32447 0.0
C1333 C 0.69909 0.85453 0.32835 0.0
C1334 C 0.77278 0.74882 0.29199 0.0
C1335 C 0.73179 0.81253 0.3027 0.0
H1336 H 0.93502 0.7534 0.25324 0.0
H1337 H 0.87756 0.75136 0.2909 0.0
H1338 H 0.91495 0.74292 0.2875 0.0
H1339 H 0.87977 0.78228 0.22465 0.0
H1340 H 0.66965 0.84844 0.34611 0.0
H1341 H 0.72829 0.8564 0.31018 0.0
H1342 H 0.69594 0.78917 0.32299 0.0
H1343 H 0.69996 0.87273 0.3299 0.0
Tb1344 Tb 0.77411 0.2887 0.81313 0.0
C1345 C 0.82816 0.25209 0.72376 0.0
N1346 N 0.83513 0.26721 0.74434 0.0
C1347 C 0.86788 0.25107 0.75213 0.0
C1348 C 0.84019 0.23508 0.71731 0.0
C1349 C 0.85511 0.2673 0.75814 0.0
C1350 C 0.86026 0.2347 0.73183 0.0
C1351 C 0.79983 0.2371 0.6889 0.0
C1352 C 0.80839 0.25325 0.70954 0.0
C1353 C 0.81151 0.21982 0.68271 0.0
C1354 C 0.8317 0.2189 0.6968 0.0
Tb1355 Tb 0.81205 0.29211 0.75282 0.0
N1356 N 0.79693 0.26953 0.71683 0.0
C1357 C 0.77966 0.23864 0.67529 0.0
C1358 C 0.77818 0.27211 0.70249 0.0
C1359 C 0.769 0.25645 0.6819 0.0
H1360 H 0.86164 0.28008 0.77356 0.0
H1361 H 0.75374 0.25821 0.67107 0.0
H1362 H 0.72349 0.29809 0.79719 0.0
H1363 H 0.83835 0.32876 0.88891 0.0
H1364 H 0.77017 0.28625 0.70646 0.0
H1365 H 0.77239 0.22642 0.65944 0.0
H1366 H 0.81891 0.2976 0.85804 0.0
H1367 H 0.88362 0.25118 0.76319 0.0
H1368 H 0.80508 0.20711 0.66706 0.0
H1369 H 0.84056 0.20552 0.69174 0.0
H1370 H 0.70142 0.32723 0.80745 0.0
H1371 H 0.87007 0.22198 0.72742 0.0
H1372 H 0.8214 0.36227 0.89822 0.0
N1373 N 0.75174 0.31362 0.82336 0.0
C1374 C 0.76057 0.33094 0.84135 0.0
C1375 C 0.7181 0.32854 0.81708 0.0
C1376 C 0.74885 0.3483 0.84743 0.0
C1377 C 0.73067 0.31204 0.81133 0.0
C1378 C 0.7273 0.34688 0.83508 0.0
N1379 N 0.79205 0.314 0.84677 0.0
C1380 C 0.81161 0.31241 0.86043 0.0
C1381 C 0.7919 0.34936 0.87165 0.0
C1382 C 0.78171 0.3314 0.85317 0.0
C1383 C 0.81291 0.34875 0.88402 0.0
C1384 C 0.82257 0.32994 0.87871 0.0
H1385 H 0.71766 0.3598 0.83928 0.0
H1386 H 0.7505 0.38021 0.87014 0.0
H1387 H 0.78833 0.3812 0.89134 0.0
O1388 O 0.7738 0.26347 0.8358 0.0
O1389 O 0.7808 0.3217 0.80084 0.0
O1390 O 0.8116 0.31377 0.78653 0.0
O1391 O 0.74308 0.2668 0.81497 0.0
O1392 O 0.8086 0.28014 0.81889 0.0
O1393 O 0.83177 0.29366 0.78981 0.0
O1394 O 0.81171 0.31956 0.73309 0.0
O1395 O 0.79588 0.25689 0.75329 0.0
O1396 O 0.78792 0.27591 0.78377 0.0
O1397 O 0.84268 0.30855 0.74306 0.0
O1398 O 0.7766 0.29885 0.74782 0.0
O1399 O 0.75356 0.28404 0.77656 0.0
C1400 C 0.79789 0.32776 0.78922 0.0
C1401 C 0.74172 0.2558 0.85427 0.0
C1402 C 0.74244 0.24128 0.89283 0.0
C1403 C 0.72973 0.25683 0.90123 0.0
C1404 C 0.72886 0.27139 0.86245 0.0
C1405 C 0.72269 0.27168 0.88586 0.0
C1406 C 0.74799 0.24052 0.86934 0.0
C1407 C 0.82864 0.28528 0.81076 0.0
C1408 C 0.75203 0.25702 0.83201 0.0
C1409 C 0.7591 0.36653 0.86539 0.0
C1410 C 0.78065 0.36712 0.8774 0.0
C1411 C 0.78596 0.25602 0.77204 0.0
C1412 C 0.83793 0.32243 0.70546 0.0
C1413 C 0.83126 0.33786 0.66788 0.0
C1414 C 0.84611 0.3256 0.6576 0.0
C1415 C 0.85293 0.31024 0.69533 0.0
C1416 C 0.82733 0.33621 0.6917 0.0
C1417 C 0.85698 0.31189 0.6714 0.0
C1418 C 0.75657 0.29262 0.75574 0.0
C1419 C 0.83287 0.32146 0.73026 0.0
H1420 H 0.72532 0.25744 0.9195 0.0
H1421 H 0.72412 0.28363 0.85113 0.0
H1422 H 0.71289 0.28375 0.89226 0.0
H1423 H 0.75828 0.22874 0.86322 0.0
H1424 H 0.84964 0.32704 0.63919 0.0
H1425 H 0.86146 0.29952 0.70578 0.0
H1426 H 0.81584 0.34572 0.69956 0.0
H1427 H 0.86862 0.30265 0.6636 0.0
Tb1428 Tb 0.77604 0.7578 0.76353 0.0
C1429 C 0.85194 0.83306 0.82779 0.0
N1430 N 0.83159 0.82072 0.83121 0.0
C1431 C 0.8461 0.81946 0.87271 0.0
C1432 C 0.87018 0.83885 0.84667 0.0
C1433 C 0.82838 0.81443 0.85361 0.0
C1434 C 0.8671 0.83162 0.86922 0.0
C1435 C 0.87461 0.85464 0.80163 0.0
C1436 C 0.85414 0.84103 0.80563 0.0
C1437 C 0.89288 0.86008 0.82025 0.0
C1438 C 0.89066 0.85225 0.84273 0.0
Tb1439 Tb 0.8033 0.81713 0.7994 0.0
N1440 N 0.83603 0.83567 0.78807 0.0
C1441 C 0.87594 0.86277 0.7792 0.0
C1442 C 0.83701 0.84443 0.76661 0.0
C1443 C 0.857 0.85769 0.76164 0.0
H1444 H 0.81196 0.8067 0.85749 0.0
H1445 H 0.85765 0.86431 0.74443 0.0
H1446 H 0.76331 0.7683 0.70646 0.0
H1447 H 0.7248 0.71711 0.82606 0.0
H1448 H 0.82235 0.84171 0.75353 0.0
H1449 H 0.89136 0.87326 0.77542 0.0
H1450 H 0.75986 0.73515 0.81261 0.0
H1451 H 0.84333 0.8145 0.89036 0.0
H1452 H 0.9087 0.8706 0.81756 0.0
H1453 H 0.90479 0.85694 0.85708 0.0
H1454 H 0.73025 0.7594 0.67547 0.0
H1455 H 0.88064 0.83588 0.88423 0.0
H1456 H 0.68928 0.70922 0.79789 0.0
N1457 N 0.74588 0.75492 0.73435 0.0
C1458 C 0.72598 0.74344 0.73988 0.0
C1459 C 0.7287 0.75517 0.69363 0.0
C1460 C 0.70664 0.73742 0.72235 0.0
C1461 C 0.74741 0.76077 0.71153 0.0
C1462 C 0.70823 0.7434 0.69902 0.0
N1463 N 0.74437 0.7422 0.77922 0.0
C1464 C 0.74445 0.7343 0.8012 0.0
C1465 C 0.70479 0.72501 0.76921 0.0
C1466 C 0.72514 0.73711 0.76304 0.0
C1467 C 0.70457 0.7185 0.79245 0.0
C1468 C 0.72454 0.72306 0.80846 0.0
H1469 H 0.69385 0.73876 0.68497 0.0
H1470 H 0.67155 0.72022 0.71511 0.0
H1471 H 0.66986 0.70959 0.75617 0.0
O1472 O 0.77744 0.72396 0.76807 0.0
O1473 O 0.75205 0.78126 0.77199 0.0
O1474 O 0.76871 0.80284 0.80788 0.0
O1475 O 0.77378 0.73429 0.73252 0.0
O1476 O 0.79421 0.75783 0.80035 0.0
O1477 O 0.78899 0.7909 0.82057 0.0
O1478 O 0.79166 0.84673 0.79124 0.0
O1479 O 0.82946 0.79982 0.78385 0.0
O1480 O 0.81301 0.76503 0.76088 0.0
O1481 O 0.80639 0.84353 0.82782 0.0
O1482 O 0.78665 0.81597 0.7619 0.0
O1483 O 0.79155 0.78273 0.74128 0.0
C1484 C 0.75026 0.79363 0.79258 0.0
C1485 C 0.79517 0.70636 0.73818 0.0
C1486 C 0.81791 0.67858 0.74648 0.0
C1487 C 0.82888 0.6831 0.72618 0.0
C1488 C 0.80631 0.71095 0.71793 0.0
C1489 C 0.82308 0.69929 0.712 0.0
C1490 C 0.80101 0.69011 0.75225 0.0
C1491 C 0.7931 0.77042 0.82078 0.0
C1492 C 0.77736 0.71813 0.74495 0.0
C1493 C 0.68648 0.7252 0.72843 0.0
C1494 C 0.68552 0.71915 0.75182 0.0
C1495 C 0.83108 0.78101 0.76986 0.0
C1496 C 0.79513 0.87897 0.82285 0.0
C1497 C 0.77954 0.91236 0.81676 0.0
C1498 C 0.79135 0.92336 0.83925 0.0
C1499 C 0.80677 0.89005 0.84532 0.0
C1500 C 0.78131 0.89001 0.8089 0.0
C1501 C 0.80476 0.91214 0.85349 0.0
C1502 C 0.78981 0.80416 0.74176 0.0
C1503 C 0.79777 0.85615 0.81368 0.0
H1504 H 0.84205 0.67432 0.72149 0.0
H1505 H 0.8021 0.72346 0.70668 0.0
H1506 H 0.83163 0.70285 0.69644 0.0
H1507 H 0.79222 0.68623 0.76764 0.0
H1508 H 0.79064 0.94078 0.84562 0.0
H1509 H 0.8176 0.88176 0.8564 0.0
H1510 H 0.77196 0.88115 0.79185 0.0
H1511 H 0.8139 0.92072 0.87071 0.0
Tb1512 Tb 0.57206 0.55309 0.55155 0.0
C1513 C 0.50016 0.47609 0.48993 0.0
N1514 N 0.5121 0.49633 0.48528 0.0
C1515 C 0.51481 0.47933 0.4451 0.0
C1516 C 0.49533 0.45663 0.47233 0.0
C1517 C 0.51892 0.49825 0.46294 0.0
C1518 C 0.50307 0.45841 0.44983 0.0
C1519 C 0.47793 0.45499 0.51675 0.0
C1520 C 0.49167 0.47522 0.51199 0.0
C1521 C 0.47356 0.43547 0.4995 0.0
C1522 C 0.48224 0.43628 0.47736 0.0
Tb1523 Tb 0.51423 0.52644 0.51476 0.0
N1524 N 0.49577 0.49457 0.52812 0.0
C1525 C 0.46801 0.45531 0.53817 0.0
C1526 C 0.48441 0.49539 0.54779 0.0
C1527 C 0.47095 0.47573 0.55354 0.0
H1528 H 0.52634 0.51448 0.45811 0.0
H1529 H 0.46221 0.47655 0.56936 0.0
H1530 H 0.56417 0.56275 0.60989 0.0
H1531 H 0.61503 0.60744 0.49296 0.0
H1532 H 0.48455 0.5114 0.55834 0.0
H1533 H 0.45716 0.4402 0.54238 0.0
H1534 H 0.59543 0.5716 0.50415 0.0
H1535 H 0.52013 0.48108 0.42743 0.0
H1536 H 0.46297 0.41982 0.50282 0.0
H1537 H 0.47827 0.42122 0.46399 0.0
H1538 H 0.57343 0.5949 0.64254 0.0
H1539 H 0.49951 0.44391 0.43576 0.0
H1540 H 0.62382 0.64217 0.52294 0.0
N1541 N 0.57716 0.58214 0.58293 0.0
C1542 C 0.5887 0.60263 0.57855 0.0
C1543 C 0.57754 0.5974 0.62454 0.0
C1544 C 0.59504 0.62134 0.59707 0.0
C1545 C 0.57178 0.57927 0.6057 0.0
C1546 C 0.58919 0.61853 0.62022 0.0
N1547 N 0.58933 0.58593 0.5385 0.0
C1548 C 0.59718 0.58669 0.51659 0.0
C1549 C 0.60751 0.62538 0.55059 0.0
C1550 C 0.59496 0.60459 0.55562 0.0
C1551 C 0.61416 0.62654 0.52752 0.0
C1552 C 0.60911 0.60703 0.51051 0.0
H1553 H 0.59394 0.63243 0.63497 0.0
H1554 H 0.61261 0.65655 0.60614 0.0
H1555 H 0.62339 0.66013 0.56541 0.0
O1556 O 0.60221 0.54361 0.5434 0.0
O1557 O 0.55118 0.57908 0.5422 0.0
O1558 O 0.52633 0.56246 0.50795 0.0
O1559 O 0.59736 0.5547 0.58064 0.0
O1560 O 0.57124 0.53633 0.51386 0.0
O1561 O 0.53896 0.54229 0.4931 0.0
O1562 O 0.48296 0.53352 0.5209 0.0
O1563 O 0.53514 0.5006 0.52512 0.0
O1564 O 0.55925 0.5177 0.55942 0.0
O1565 O 0.48907 0.52245 0.48475 0.0
O1566 O 0.51446 0.54326 0.55232 0.0
O1567 O 0.54704 0.53812 0.57339 0.0
C1568 C 0.53751 0.58092 0.52258 0.0
C1569 C 0.63295 0.54453 0.57538 0.0
C1570 C 0.66515 0.52795 0.56866 0.0
C1571 C 0.67442 0.53513 0.59301 0.0
C1572 C 0.64224 0.55183 0.59972 0.0
C1573 C 0.66297 0.54714 0.60845 0.0
C1574 C 0.64451 0.53274 0.55997 0.0
C1575 C 0.55981 0.53961 0.49356 0.0
C1576 C 0.61053 0.54756 0.56632 0.0
C1577 C 0.60746 0.64206 0.59209 0.0
C1578 C 0.6136 0.6441 0.56889 0.0
C1579 C 0.54865 0.49898 0.54495 0.0
C1580 C 0.45826 0.54097 0.48826 0.0
C1581 C 0.4289 0.56186 0.49596 0.0
C1582 C 0.42017 0.5572 0.47122 0.0
C1583 C 0.44939 0.53634 0.46357 0.0
C1584 C 0.44823 0.5542 0.50419 0.0
C1585 C 0.43056 0.54467 0.45508 0.0
C1586 C 0.52626 0.54086 0.57276 0.0
C1587 C 0.47446 0.52814 0.49816 0.0
H1588 H 0.69053 0.53165 0.59997 0.0
H1589 H 0.63341 0.56089 0.61201 0.0
H1590 H 0.67011 0.55269 0.62721 0.0
H1591 H 0.63714 0.52666 0.54131 0.0
H1592 H 0.40488 0.5625 0.46455 0.0
H1593 H 0.45641 0.52551 0.45106 0.0
H1594 H 0.45468 0.55755 0.52336 0.0
H1595 H 0.42348 0.54064 0.43615 0.0
Tb1596 Tb 1.01144 0.53576 0.04962 0.0
C1597 C 0.09236 0.58458 0.99511 0.0
N1598 N 0.07694 0.56465 0.9884 0.0
C1599 C 0.07108 0.57422 0.94784 0.0
C1600 C 0.09688 0.60048 0.9786 0.0
C1601 C 0.06727 0.55885 0.96467 0.0
C1602 C 0.08566 0.59525 0.95491 0.0
C1603 C 0.12098 0.60892 0.02555 0.0
C1604 C 0.10452 0.58875 0.01834 0.0
C1605 C 0.1249 0.625 0.00934 0.0
C1606 C 0.1129 0.6208 0.98596 0.0
Tb1607 Tb 0.07344 0.54161 0.01846 0.0
N1608 N 0.10012 0.5731 0.03392 0.0
C1609 C 0.13314 0.61225 0.04882 0.0
C1610 C 0.11322 0.57542 0.05577 0.0
C1611 C 0.12948 0.59524 0.06385 0.0
H1612 H 0.05706 0.54221 0.9581 0.0
H1613 H 0.13948 0.59717 0.08146 0.0
H1614 H 0.02739 0.53511 0.10997 0.0
H1615 H 0.94552 0.48005 0.9866 0.0
H1616 H 0.11179 0.56175 0.06661 0.0
H1617 H 0.14585 0.62756 0.05506 0.0
H1618 H 0.97259 0.5159 1.00194 0.0
H1619 H 0.06309 0.56962 0.92925 0.0
H1620 H 0.13737 0.64065 0.01462 0.0
H1621 H 0.11642 0.63323 0.97353 0.0
H1622 H 0.02151 0.50758 0.13876 0.0
H1623 H 0.08873 0.60699 0.9417 0.0
H1624 H 0.94015 0.44904 0.01232 0.0
N1625 N 1.00812 0.51245 0.0795 0.0
C1626 C 0.9931 0.49227 0.07259 0.0
C1627 C 1.01377 0.50289 0.12008 0.0
C1628 C 0.98873 0.47625 0.08901 0.0
C1629 C 0.0175 0.51833 0.10331 0.0
C1630 C 0.99962 0.48164 0.11284 0.0
N1631 N 0.98497 0.50408 0.03406 0.0
C1632 C 0.9716 0.50193 0.01241 0.0
C1633 C 0.96496 0.46766 0.04189 0.0
C1634 C 0.98105 0.48805 0.04934 0.0
C1635 C 0.95263 0.46449 0.01872 0.0
C1636 C 0.95571 0.48188 0.00407 0.0
H1637 H 0.99659 0.46984 0.126 0.0
H1638 H 0.96965 0.44319 0.0938 0.0
H1639 H 0.94907 0.43559 0.05251 0.0
O1640 O 0.98316 0.54972 0.03661 0.0
O1641 O 0.01916 0.50271 0.03165 0.0
O1642 O 0.05273 0.50586 0.0132 0.0
O1643 O 0.99299 0.54806 0.07507 0.0
O1644 O 0.02481 0.54881 0.01864 0.0
O1645 O 0.04351 0.53143 0.9928 0.0
O1646 O 0.10142 0.52741 0.03198 0.0
O1647 O 0.06586 0.57491 0.03637 0.0
O1648 O 0.03196 0.57139 0.05414 0.0
O1649 O 0.09221 0.52928 0.99343 0.0
O1650 O 0.05943 0.52867 0.04897 0.0
O1651 O 0.04143 0.54589 0.07538 0.0
C1652 C 0.03386 0.49367 0.01935 0.0
C1653 C 0.9605 0.56459 0.06671 0.0
C1654 C 0.93023 0.58537 0.0596 0.0
C1655 C 0.92753 0.58636 0.08426 0.0
C1656 C 0.95727 0.56577 0.09135 0.0
C1657 C 0.94093 0.57656 0.09999 0.0
C1658 C 0.94672 0.57438 0.05068 0.0
C1659 C 0.02473 0.53624 0.99835 0.0
C1660 C 0.97907 0.55409 0.05891 0.0
C1661 C 0.9731 0.45569 0.08144 0.0
C1662 C 0.96133 0.45137 0.05793 0.0
C1663 C 0.05085 0.58385 0.04836 0.0
C1664 C 0.12456 0.5127 0.00227 0.0
C1665 C 0.15421 0.49112 0.00936 0.0
C1666 C 0.15756 0.49086 0.98491 0.0
C1667 C 0.1285 0.51227 0.97787 0.0
C1668 C 0.13776 0.50224 0.01822 0.0
C1669 C 0.14485 0.50146 0.96933 0.0
C1670 C 0.06009 0.54104 0.06945 0.0
C1671 C 0.10586 0.52315 0.00979 0.0
H1672 H 0.91499 0.59485 0.09136 0.0
H1673 H 0.96754 0.5585 0.10417 0.0
H1674 H 0.93876 0.57747 0.119 0.0
H1675 H 0.94903 0.57383 0.0317 0.0
H1676 H 0.17014 0.48242 0.97785 0.0
H1677 H 0.11875 0.52015 0.96514 0.0
H1678 H 0.13494 0.50226 0.03703 0.0
H1679 H 0.14757 0.50115 0.9505 0.0
C1680 C 0.02135 0.21419 0.00566 0.0
C1681 C 0.01614 0.21791 0.98131 0.0
C1682 C 0.02578 0.19302 0.01224 0.0
C1683 C 0.02445 0.17393 0.99433 0.0
C1684 C 0.01917 0.17751 0.96965 0.0
C1685 C 0.01547 0.19918 0.9635 0.0
C1686 C 0.03201 0.19113 0.03868 0.0
C1687 C 0.01691 0.15813 0.94957 0.0
C1688 C 0.05278 0.12318 0.01132 0.0
C1689 C 0.03472 0.10643 0.016 0.0
C1690 C 0.04974 0.14459 0.00396 0.0
C1691 C 0.02804 0.15041 1.00151 0.0
C1692 C 1.00978 0.13363 0.0065 0.0
C1693 C 1.01323 0.11213 0.01319 0.0
C1694 C 0.06997 0.161 0.99858 0.0
C1695 C 0.98636 0.13848 0.00511 0.0
H1696 H 0.02222 0.22816 0.01987 0.0
H1697 H 1.01133 0.20121 0.94463 0.0
H1698 H 0.02009 0.17692 0.04428 0.0
H1699 H 0.04907 0.18718 0.04152 0.0
H1700 H 0.03195 0.20706 0.05064 0.0
H1701 H 1.01388 0.16349 0.93131 0.0
H1702 H 0.03237 0.15092 0.95074 0.0
H1703 H 1.00266 0.1443 0.95165 0.0
H1704 H 0.0694 0.11931 0.01273 0.0
H1705 H 0.99891 0.09978 0.01664 0.0
H1706 H 0.07276 0.17709 0.01117 0.0
H1707 H 0.06689 0.16532 0.97988 0.0
H1708 H 0.08554 0.15397 1.00035 0.0
H1709 H 0.9861 0.15283 0.0192 0.0
H1710 H 0.97362 0.1235 0.0079 0.0
H1711 H 0.98146 0.14377 0.98723 0.0
C1712 C 0.16388 0.81844 0.15037 0.0
C1713 C 0.14111 0.8113 0.15358 0.0
C1714 C 0.18192 0.81672 0.16799 0.0
C1715 C 0.17758 0.80697 0.18949 0.0
C1716 C 0.15461 0.7998 0.19293 0.0
C1717 C 0.13685 0.80231 0.17528 0.0
C1718 C 0.20581 0.82517 0.16338 0.0
C1719 C 0.14874 0.78904 0.21516 0.0
C1720 C 0.22579 0.78201 0.22054 0.0
C1721 C 0.23565 0.79888 0.24008 0.0
C1722 C 0.20671 0.78411 0.20458 0.0
C1723 C 0.19704 0.80376 0.20775 0.0
C1724 C 0.20673 0.82064 0.22786 0.0
C1725 C 0.22564 0.81792 0.24376 0.0
C1726 C 0.1969 0.76517 0.1842 0.0
C1727 C 0.19761 0.84205 0.23222 0.0
H1728 H 0.1677 0.82543 0.13389 0.0
H1729 H 0.11951 0.79647 0.17815 0.0
H1730 H 0.2154 0.83697 0.17929 0.0
H1731 H 0.21437 0.8106 0.16083 0.0
H1732 H 0.20658 0.83413 0.14704 0.0
H1733 H 0.13032 0.78267 0.21443 0.0
H1734 H 0.15743 0.77463 0.21717 0.0
H1735 H 0.15468 0.80168 0.23161 0.0
H1736 H 0.23293 0.76695 0.21782 0.0
H1737 H 0.23296 0.83103 0.25883 0.0
H1738 H 0.19848 0.77161 0.16648 0.0
H1739 H 0.17866 0.75914 0.18503 0.0
H1740 H 0.20541 0.75048 0.18484 0.0
H1741 H 0.20137 0.85266 0.21756 0.0
H1742 H 0.20511 0.85229 0.24994 0.0
H1743 H 0.17904 0.83789 0.23167 0.0
C1744 C 0.52673 0.86197 0.46027 0.0
C1745 C 0.51611 0.84436 0.47249 0.0
C1746 C 0.52902 0.88559 0.46882 0.0
C1747 C 0.52018 0.89276 0.49023 0.0
C1748 C 0.50932 0.8751 0.50267 0.0
C1749 C 0.5076 0.85146 0.4939 0.0
C1750 C 0.54114 0.90301 0.45477 0.0
C1751 C 0.49928 0.88119 0.52532 0.0
C1752 C 0.5454 0.95511 0.52162 0.0
C1753 C 0.52897 0.96763 0.51459 0.0
C1754 C 0.54233 0.93105 0.51488 0.0
C1755 C 0.52269 0.91851 0.49952 0.0
C1756 C 0.50603 0.93111 0.49232 0.0
C1757 C 0.50908 0.95503 0.5003 0.0
C1758 C 0.56038 0.91902 0.52423 0.0
C1759 C 0.48513 0.91944 0.47537 0.0
H1760 H 0.53363 0.85728 0.44385 0.0
H1761 H 0.49921 0.8385 0.50369 0.0
H1762 H 0.53019 0.91498 0.44977 0.0
H1763 H 0.55646 0.91321 0.46629 0.0
H1764 H 0.54628 0.89506 0.43798 0.0
H1765 H 0.49279 0.86597 0.53401 0.0
H1766 H 0.51204 0.89329 0.53861 0.0
H1767 H 0.48517 0.88987 0.52077 0.0
H1768 H 0.56079 0.96417 0.53282 0.0
H1769 H 0.49609 0.96402 0.49454 0.0
H1770 H 0.56857 0.91256 0.50892 0.0
H1771 H 0.55279 0.90408 0.53273 0.0
H1772 H 0.57354 0.93038 0.53779 0.0
H1773 H 0.48994 0.91348 0.45758 0.0
H1774 H 0.47311 0.9309 0.47239 0.0
H1775 H 0.47648 0.9042 0.48263 0.0
C1776 C 0.51591 0.31133 0.67137 0.0
C1777 C 0.5149 0.2991 0.64831 0.0
C1778 C 0.49698 0.30937 0.68401 0.0
C1779 C 0.4767 0.29395 0.67392 0.0
C1780 C 0.4755 0.28185 0.65038 0.0
C1781 C 0.49445 0.28492 0.63767 0.0
C1782 C 0.49903 0.32335 0.70851 0.0
C1783 C 0.4544 0.26503 0.63897 0.0
C1784 C 0.43811 0.26519 0.71601 0.0
C1785 C 0.4196 0.27583 0.71342 0.0
C1786 C 0.45706 0.27157 0.70406 0.0
C1787 C 0.45754 0.28888 0.68873 0.0
C1788 C 0.43928 0.30041 0.68691 0.0
C1789 C 0.42056 0.29378 0.69932 0.0
C1790 C 0.47619 0.25906 0.70703 0.0
C1791 C 0.43926 0.31935 0.67135 0.0
H1792 H 0.5316 0.32256 0.67957 0.0
H1793 H 0.49357 0.27545 0.61986 0.0
H1794 H 0.48364 0.33029 0.71052 0.0
H1795 H 0.50097 0.31238 0.72297 0.0
H1796 H 0.51384 0.33774 0.71143 0.0
H1797 H 0.45624 0.25657 0.62086 0.0
H1798 H 0.45011 0.25174 0.65095 0.0
H1799 H 0.44003 0.27381 0.63695 0.0
H1800 H 0.4374 0.25125 0.72683 0.0
H1801 H 0.40621 0.30191 0.69708 0.0
H1802 H 0.49229 0.27133 0.7135 0.0
H1803 H 0.478 0.25003 0.68921 0.0
H1804 H 0.47357 0.24645 0.72007 0.0
H1805 H 0.4542 0.33321 0.67774 0.0
H1806 H 0.42382 0.32655 0.67171 0.0
H1807 H 0.44051 0.31298 0.65229 0.0
C1808 C 0.02569 0.83589 0.67834 0.0
C1809 C 0.03804 0.81884 0.67379 0.0
C1810 C 0.02741 0.85466 0.66506 0.0
C1811 C 0.04238 0.85685 0.64732 0.0
C1812 C 0.0553 0.83991 0.64317 0.0
C1813 C 0.05267 0.82098 0.65611 0.0
C1814 C 1.01264 0.8717 0.66942 0.0
C1815 C 0.07199 0.84177 0.62505 0.0
C1816 C 0.03903 0.89287 0.59521 0.0
C1817 C 0.05642 0.9118 0.60371 0.0
C1818 C 0.03314 0.87553 0.60982 0.0
C1819 C 0.04513 0.87699 0.63338 0.0
C1820 C 0.06162 0.89689 0.64255 0.0
C1821 C 0.06702 0.91399 0.62764 0.0
C1822 C 0.01518 0.85488 0.59937 0.0
C1823 C 0.07485 0.89933 0.66746 0.0
H1824 H 1.01397 0.83406 0.69159 0.0
H1825 H 0.06218 0.80782 0.65245 0.0
H1826 H 0.02295 0.88925 0.67326 0.0
H1827 H 1.00067 0.87101 0.65279 0.0
H1828 H 1.00284 0.86837 0.68474 0.0
H1829 H 0.08087 0.82731 0.62406 0.0
H1830 H 0.06325 0.84233 0.60673 0.0
H1831 H 0.08472 0.85788 0.63007 0.0
H1832 H 0.03113 0.89086 0.57656 0.0
H1833 H 0.08074 0.92841 0.63411 0.0
H1834 H 1.00355 0.85023 0.61281 0.0
H1835 H 0.02319 0.84016 0.59501 0.0
H1836 H 1.00524 0.85771 0.58253 0.0
H1837 H 0.06324 0.89695 0.68134 0.0
H1838 H 0.08639 0.91623 0.67236 0.0
H1839 H 0.085 0.88591 0.66812 0.0
C1840 C 0.46651 0.81965 0.86309 0.0
C1841 C 0.48501 0.82024 0.8496 0.0
C1842 C 0.44378 0.81618 0.8523 0.0
C1843 C 0.43814 0.81299 0.82674 0.0
C1844 C 0.45648 0.81348 0.81264 0.0
C1845 C 0.47946 0.81706 0.82407 0.0
C1846 C 0.42556 0.81585 0.86862 0.0
C1847 C 0.45186 0.81051 0.78536 0.0
C1848 C 0.37526 0.7836 0.80521 0.0
C1849 C 0.36435 0.80193 0.80184 0.0
C1850 C 0.39905 0.78679 0.81179 0.0
C1851 C 0.41309 0.80899 0.81557 0.0
C1852 C 0.40225 0.82751 0.81168 0.0
C1853 C 0.3784 0.82381 0.80497 0.0
C1854 C 0.40913 0.76621 0.81521 0.0
C1855 C 0.41581 0.85156 0.81544 0.0
H1856 H 0.46964 0.82186 0.88272 0.0
H1857 H 0.49299 0.81744 0.81298 0.0
H1858 H 0.41564 0.82896 0.86466 0.0
H1859 H 0.41375 0.79906 0.86509 0.0
H1860 H 0.43245 0.81907 0.88818 0.0
H1861 H 0.46695 0.80799 0.77677 0.0
H1862 H 0.43783 0.79576 0.77868 0.0
H1863 H 0.44659 0.82589 0.77942 0.0
H1864 H 0.36512 0.76649 0.80273 0.0
H1865 H 0.37069 0.8383 0.80293 0.0
H1866 H 0.41586 0.76691 0.83459 0.0
H1867 H 0.42346 0.76619 0.80456 0.0
H1868 H 0.39663 0.74999 0.80961 0.0
H1869 H 0.42184 0.8568 0.83505 0.0
H1870 H 0.40583 0.86383 0.80895 0.0
H1871 H 0.43089 0.85257 0.80583 0.0
C1872 C 0.53877 0.18248 0.16309 0.0
C1873 C 0.52179 0.19475 0.15769 0.0
C1874 C 0.54004 0.16213 0.14844 0.0
C1875 C 0.52411 0.15361 0.1274 0.0
C1876 C 0.50639 0.16542 0.12244 0.0
C1877 C 0.50555 0.18573 0.13742 0.0
C1878 C 0.5594 0.15059 0.15465 0.0
C1879 C 0.48901 0.15735 0.10036 0.0
C1880 C 0.54271 0.11747 0.07477 0.0
C1881 C 0.532 0.09503 0.07683 0.0
C1882 C 0.53998 0.13647 0.09063 0.0
C1883 C 0.52672 0.13331 0.10989 0.0
C1884 C 0.51611 0.11069 0.1123 0.0
C1885 C 0.51861 0.09205 0.09574 0.0
C1886 C 0.55148 0.16003 0.08679 0.0
C1887 C 0.50237 0.10608 0.13275 0.0
H1888 H 0.5521 0.18971 0.17787 0.0
H1889 H 0.49299 0.19547 0.13226 0.0
H1890 H 0.55331 0.13193 0.15369 0.0
H1891 H 0.57146 0.15337 0.14124 0.0
H1892 H 0.56859 0.1573 0.17304 0.0
H1893 H 0.4759 0.16785 0.09926 0.0
H1894 H 0.49735 0.15799 0.08369 0.0
H1895 H 0.48067 0.13936 0.10062 0.0
H1896 H 0.55363 0.12028 0.06089 0.0
H1897 H 0.51015 0.07499 0.09778 0.0
H1898 H 0.564 0.16785 0.1028 0.0
H1899 H 0.53895 0.17108 0.08492 0.0
H1900 H 0.56025 0.15987 0.07038 0.0
H1901 H 0.51348 0.11104 0.15035 0.0
H1902 H 0.49407 0.08784 0.13148 0.0
H1903 H 0.48927 0.11655 0.13283 0.0
C1904 C 0.12078 0.29541 0.32972 0.0
C1905 C 0.11858 0.31738 0.33954 0.0
C1906 C 0.14145 0.29075 0.32212 0.0
C1907 C 0.16096 0.30847 0.32312 0.0
C1908 C 0.15852 0.33082 0.33229 0.0
C1909 C 0.13799 0.33481 0.34079 0.0
C1910 C 0.14253 0.2665 0.31348 0.0
C1911 C 0.17752 0.35091 0.33242 0.0
C1912 C 0.22315 0.29808 0.32473 0.0
C1913 C 0.22702 0.29592 0.30016 0.0
C1914 C 0.20201 0.3013 0.33212 0.0
C1915 C 0.18371 0.30375 0.31497 0.0
C1916 C 0.18765 0.3018 0.29009 0.0
C1917 C 0.2086 0.29739 0.2831 0.0
C1918 C 0.19916 0.30167 0.3586 0.0
C1919 C 0.16976 0.30444 0.27039 0.0
H1920 H 0.1064 0.2815 0.32869 0.0
H1921 H 0.13701 0.35192 0.34806 0.0
H1922 H 0.14596 0.26499 0.29437 0.0
H1923 H 0.15664 0.26151 0.32449 0.0
H1924 H 0.12664 0.25436 0.31467 0.0
H1925 H 0.1735 0.36717 0.3402 0.0
H1926 H 0.19312 0.3484 0.34297 0.0
H1927 H 0.18113 0.35235 0.31355 0.0
H1928 H 0.23669 0.29674 0.33841 0.0
H1929 H 0.21076 0.29577 0.26405 0.0
H1930 H 0.18369 0.28931 0.36066 0.0
H1931 H 0.19707 0.31878 0.36618 0.0
H1932 H 0.2138 0.29743 0.36947 0.0
H1933 H 0.15847 0.28764 0.26411 0.0
H1934 H 0.17733 0.31053 0.25448 0.0
H1935 H 0.15939 0.3165 0.27693 0.0
C1936 C 0.99802 0.02522 0.20764 0.0
C1937 C 0.97507 0.02322 0.21035 0.0
C1938 C 1.00623 0.02958 0.18564 0.0
C1939 C 0.99118 0.03163 0.16521 0.0
C1940 C 0.96799 0.03 0.1678 0.0
C1941 C 0.96026 0.02607 0.19034 0.0
C1942 C 0.03116 0.0319 0.18429 0.0
C1943 C 0.95116 0.03149 0.14648 0.0
C1944 C 0.01522 0.05881 0.11173 0.0
C1945 C 0.01841 0.03978 0.0968 0.0
C1946 C 1.00663 0.05651 0.13408 0.0
C1947 C 0.99979 0.03453 0.14109 0.0
C1948 C 1.00267 0.01527 0.1257 0.0
C1949 C 1.01285 0.01825 0.10446 0.0
C1950 C 1.00544 0.07768 0.15048 0.0
C1951 C 0.99496 0.99142 0.13161 0.0
H1952 H 1.00979 0.02339 0.22293 0.0
H1953 H 0.94251 0.02448 0.19204 0.0
H1954 H 0.03406 0.01826 0.1708 0.0
H1955 H 0.03798 0.04843 0.17816 0.0
H1956 H 0.04081 0.03089 0.20204 0.0
H1957 H 0.93423 0.03202 0.1518 0.0
H1958 H 0.95699 0.04684 0.13778 0.0
H1959 H 0.94966 0.01645 0.13264 0.0
H1960 H 0.02015 0.07557 0.1063 0.0
H1961 H 0.01601 1.00356 0.09345 0.0
H1962 H 0.01499 0.07784 0.1686 0.0
H1963 H 0.9877 0.0777 0.1532 0.0
H1964 H 1.01241 0.09351 0.14306 0.0
H1965 H 1.00536 0.98877 0.14819 0.0
H1966 H 0.99618 0.97825 0.11659 0.0
H1967 H 0.97722 0.98891 0.13537 0.0
C1968 C 0.27931 0.64937 0.47692 0.0
C1969 C 0.27535 0.65858 0.4997 0.0
C1970 C 0.27517 0.6604 0.4565 0.0
C1971 C 0.26669 0.68069 0.4593 0.0
C1972 C 0.26191 0.68942 0.48213 0.0
C1973 C 0.26644 0.67833 0.50194 0.0
C1974 C 0.28072 0.65097 0.43233 0.0
C1975 C 0.25264 0.71096 0.48596 0.0
C1976 C 0.2737 0.72967 0.42351 0.0
C1977 C 0.25142 0.72759 0.41303 0.0
C1978 C 0.27976 0.71286 0.43668 0.0
C1979 C 0.26305 0.69369 0.43901 0.0
C1980 C 0.24098 0.69074 0.42664 0.0
C1981 C 0.23535 0.70796 0.4139 0.0
C1982 C 0.30337 0.71668 0.44994 0.0
C1983 C 0.22287 0.67042 0.42871 0.0
H1984 H 0.28636 0.63417 0.47525 0.0
H1985 H 0.26331 0.68569 0.51929 0.0
H1986 H 0.26733 0.65162 0.41747 0.0
H1987 H 0.29661 0.66155 0.42851 0.0
H1988 H 0.28301 0.63312 0.43216 0.0
H1989 H 0.24923 0.7149 0.5049 0.0
H1990 H 0.26481 0.72567 0.48164 0.0
H1991 H 0.2367 0.70932 0.47368 0.0
H1992 H 0.28613 0.74477 0.42206 0.0
H1993 H 0.21831 0.70632 0.40494 0.0
H1994 H 0.3097 0.70059 0.44893 0.0
H1995 H 0.30323 0.72263 0.46941 0.0
H1996 H 0.31527 0.72972 0.44254 0.0
H1997 H 0.22945 0.6545 0.42656 0.0
H1998 H 0.20786 0.6688 0.41496 0.0
H1999 H 0.21745 0.67223 0.44702 0.0
C2000 C 0.62697 0.03579 0.6914 0.0
C2001 C 0.64818 0.05001 0.69738 0.0
C2002 C 0.61578 0.03307 0.66799 0.0
C2003 C 0.62622 0.04515 0.65056 0.0
C2004 C 0.64839 0.05819 0.656 0.0
C2005 C 0.65934 0.06039 0.67965 0.0
C2006 C 0.59212 0.0188 0.66253 0.0
C2007 C 0.6597 0.07122 0.63753 0.0
C2008 C 0.59258 0.02735 0.5896 0.0
C2009 C 0.57843 0.0431 0.58993 0.0
C2010 C 0.60991 0.02907 0.60844 0.0
C2011 C 0.61243 0.04651 0.62805 0.0
C2012 C 0.59873 0.06299 0.62796 0.0
C2013 C 0.58173 0.06103 0.60873 0.0
C2014 C 0.62457 0.01153 0.60805 0.0
C2015 C 0.60095 0.08168 0.6489 0.0
H2016 H 0.61879 0.02752 0.70533 0.0
H2017 H 0.67589 0.07132 0.68462 0.0
H2018 H 0.57992 0.02994 0.65897 0.0
H2019 H 0.59055 1.00637 0.64601 0.0
H2020 H 0.58726 1.00932 0.67775 0.0
H2021 H 0.67816 0.07682 0.64307 0.0
H2022 H 0.65663 0.06077 0.61945 0.0
H2023 H 0.65248 0.08658 0.63555 0.0
H2024 H 0.58989 0.01349 0.57485 0.0
H2025 H 0.57082 0.07329 0.60853 0.0
H2026 H 0.62015 0.99989 0.62166 0.0
H2027 H 0.64258 0.0199 0.61304 0.0
H2028 H 0.62246 1.00117 0.58996 0.0
H2029 H 0.59496 0.07415 0.66487 0.0
H2030 H 0.59093 0.09462 0.64449 0.0
H2031 H 0.61883 0.09036 0.65418 0.0
C2032 C 0.32949 0.36999 0.96516 0.0
C2033 C 0.31069 0.36737 0.97772 0.0
C2034 C 0.32811 0.35927 0.94112 0.0
C2035 C 0.30729 0.34595 0.92909 0.0
C2036 C 0.28829 0.34319 0.94192 0.0
C2037 C 0.29027 0.35379 0.96606 0.0
C2038 C 0.34886 0.36253 0.9284 0.0
C2039 C 0.26579 0.32914 0.93007 0.0
C2040 C 0.29638 0.3386 0.85955 0.0
C2041 C 0.30056 0.31678 0.85306 0.0
C2042 C 0.29872 0.34826 0.88405 0.0
C2043 C 0.3051 0.33579 0.90284 0.0
C2044 C 0.30915 0.31365 0.89641 0.0
C2045 C 0.30701 0.30453 0.87171 0.0
C2046 C 0.29431 0.37191 0.88983 0.0
C2047 C 0.31584 0.29953 0.9156 0.0
H2048 H 0.34529 0.3805 0.97414 0.0
H2049 H 0.27568 0.35182 0.97572 0.0
H2050 H 0.35222 0.34576 0.92139 0.0
H2051 H 0.34604 0.37173 0.91256 0.0
H2052 H 0.36403 0.3723 0.94056 0.0
H2053 H 0.25247 0.32925 0.94213 0.0
H2054 H 0.26032 0.33568 0.91308 0.0
H2055 H 0.26737 0.31127 0.92506 0.0
H2056 H 0.29147 0.34833 0.8454 0.0
H2057 H 0.31009 0.28759 0.86703 0.0
H2058 H 0.30936 0.38314 0.90086 0.0
H2059 H 0.28015 0.37132 0.9008 0.0
H2060 H 0.29008 0.37966 0.87323 0.0
H2061 H 0.33313 0.30724 0.92462 0.0
H2062 H 0.31555 0.2817 0.90788 0.0
H2063 H 0.30441 0.29927 0.92976 0.0
C2064 C 0.95521 1.00874 0.35457 0.0
C2065 C 0.96541 0.0212 0.33751 0.0
C2066 C 0.96645 1.00951 0.37825 0.0
C2067 C 0.98799 0.02396 0.38552 0.0
C2068 C 0.99814 0.03681 0.36834 0.0
C2069 C 0.987 0.03485 0.34448 0.0
C2070 C 0.95524 0.99488 0.39552 0.0
C2071 C 0.02065 0.053 0.37524 0.0
C2072 C 1.00399 0.04386 0.4537 0.0
C2073 C 0.0198 0.03074 0.46064 0.0
C2074 C 0.99401 0.04216 0.42943 0.0
C2075 C 0.99936 0.02647 0.41134 0.0
C2076 C 0.01561 0.01345 0.41806 0.0
C2077 C 0.02589 0.01606 0.44242 0.0
C2078 C 0.97774 0.05731 0.42317 0.0
C2079 C 0.02165 0.99616 0.39971 0.0
H2080 H 0.9386 0.99804 0.34925 0.0
H2081 H 0.99491 0.04466 0.33143 0.0
H2082 H 0.96707 0.98494 0.40354 0.0
H2083 H 0.95073 1.00583 0.41067 0.0
H2084 H 0.9397 0.98287 0.38646 0.0
H2085 H 0.02529 0.06332 0.36056 0.0
H2086 H 0.02036 0.06473 0.39187 0.0
H2087 H 0.03398 0.04327 0.37936 0.0
H2088 H 0.99937 0.05571 0.46729 0.0
H2089 H 0.03851 1.00637 0.44715 0.0
H2090 H 0.96077 0.04677 0.41647 0.0
H2091 H 0.98325 0.06704 0.40836 0.0
H2092 H 0.97635 0.06957 0.43897 0.0
H2093 H 1.00726 0.98142 0.39501 0.0
H2094 H 0.03675 0.98986 0.40675 0.0
H2095 H 0.02485 1.00341 0.38272 0.0
C2096 C 0.29561 0.67717 0.64007 0.0
C2097 C 0.28719 0.68387 0.61838 0.0
C2098 C 0.29469 0.69005 0.66212 0.0
C2099 C 0.28523 0.7097 0.66181 0.0
C2100 C 0.27586 0.71584 0.63995 0.0
C2101 C 0.27668 0.70257 0.61847 0.0
C2102 C 0.30431 0.68313 0.68555 0.0
C2103 C 0.26607 0.73705 0.63903 0.0
C2104 C 0.26725 0.74178 0.71443 0.0
C2105 C 0.28746 0.75657 0.72387 0.0
C2106 C 0.26691 0.72468 0.69556 0.0
C2107 C 0.2864 0.72504 0.68398 0.0
C2108 C 0.30615 0.74192 0.6918 0.0
C2109 C 0.3068 0.75688 0.71267 0.0
C2110 C 0.2461 0.70601 0.68858 0.0
C2111 C 0.3263 0.74457 0.67802 0.0
H2112 H 0.30345 0.66247 0.6397 0.0
H2113 H 0.26949 0.70721 0.60157 0.0
H2114 H 0.31959 0.69589 0.69379 0.0
H2115 H 0.29193 0.68267 0.69874 0.0
H2116 H 0.30898 0.6662 0.68276 0.0
H2117 H 0.25988 0.73939 0.62022 0.0
H2118 H 0.25181 0.73629 0.64982 0.0
H2119 H 0.27907 0.75231 0.64707 0.0
H2120 H 0.25218 0.74268 0.72283 0.0
H2121 H 0.32211 0.76927 0.71982 0.0
H2122 H 0.25014 0.68974 0.69342 0.0
H2123 H 0.24063 0.70349 0.66875 0.0
H2124 H 0.2318 0.70953 0.69806 0.0
H2125 H 0.33567 0.73088 0.68115 0.0
H2126 H 0.33803 0.76126 0.68385 0.0
H2127 H 0.32089 0.74315 0.65821 0.0
C2128 C 0.66727 0.03358 0.83106 0.0
C2129 C 0.67632 0.05284 0.82086 0.0
C2130 C 0.6536 0.03541 0.8494 0.0
C2131 C 0.64887 0.05692 0.857 0.0
C2132 C 0.65928 0.07662 0.84771 0.0
C2133 C 0.67315 0.0743 0.82981 0.0
C2134 C 0.64288 0.01414 0.85912 0.0
C2135 C 0.65446 0.09987 0.8553 0.0
C2136 C 0.595 0.06683 0.87835 0.0
C2137 C 0.60257 0.07501 0.90277 0.0
C2138 C 0.60948 0.05867 0.86346 0.0
C2139 C 0.63195 0.05908 0.87339 0.0
C2140 C 0.63911 0.06575 0.89841 0.0
C2141 C 0.6243 0.07374 0.91286 0.0
C2142 C 0.60124 0.05135 0.83679 0.0
C2143 C 0.66294 0.06624 0.9095 0.0
H2144 H 0.66957 0.01697 0.82354 0.0
H2145 H 0.68037 0.08906 0.82176 0.0
H2146 H 0.64326 0.0173 0.87908 0.0
H2147 H 0.62495 1.00892 0.85097 0.0
H2148 H 0.65141 0.9998 0.85467 0.0
H2149 H 0.66463 0.11349 0.84687 0.0
H2150 H 0.63636 0.09972 0.84994 0.0
H2151 H 0.65799 0.10421 0.87531 0.0
H2152 H 0.57799 0.06735 0.8708 0.0
H2153 H 0.6301 0.08004 0.93184 0.0
H2154 H 0.60718 0.03583 0.83014 0.0
H2155 H 0.60814 0.06508 0.8263 0.0
H2156 H 0.58255 0.04791 0.83299 0.0
H2157 H 0.66845 0.05044 0.90288 0.0
H2158 H 0.6647 0.06819 0.92965 0.0
H2159 H 0.6745 0.08077 0.90396 0.0
C2160 C 0.29173 0.36853 0.11751 0.0
C2161 C 0.31113 0.36402 0.10812 0.0
C2162 C 0.28594 0.36118 0.13968 0.0
C2163 C 0.30018 0.34958 0.15325 0.0
C2164 C 0.32014 0.34572 0.14417 0.0
C2165 C 0.32519 0.35272 0.12179 0.0
C2166 C 0.26419 0.36514 0.14817 0.0
C2167 C 0.3359 0.33341 0.15771 0.0
C2168 C 0.29666 0.34223 0.22047 0.0
C2169 C 0.28652 0.31901 0.21898 0.0
C2170 C 0.30064 0.35267 0.19935 0.0
C2171 C 0.29368 0.33993 0.17596 0.0
C2172 C 0.28192 0.31711 0.17438 0.0
C2173 C 0.27848 0.30719 0.19571 0.0
C2174 C 0.31328 0.37704 0.2021 0.0
C2175 C 0.2734 0.30282 0.15008 0.0
H2176 H 0.28058 0.377 0.10706 0.0
H2177 H 0.34024 0.34914 0.11484 0.0
H2178 H 0.25325 0.34861 0.14998 0.0
H2179 H 0.26771 0.37538 0.16636 0.0
H2180 H 0.25477 0.37408 0.13551 0.0
H2181 H 0.35193 0.33408 0.14983 0.0
H2182 H 0.33987 0.34089 0.17708 0.0
H2183 H 0.32759 0.31528 0.15709 0.0
H2184 H 0.30255 0.35203 0.23816 0.0
H2185 H 0.26938 0.29006 0.19389 0.0
H2186 H 0.30329 0.38732 0.19182 0.0
H2187 H 0.32935 0.37779 0.19432 0.0
H2188 H 0.31712 0.38489 0.22137 0.0
H2189 H 0.26135 0.31089 0.1395 0.0
H2190 H 0.26484 0.2852 0.1519 0.0
H2191 H 0.28758 0.30182 0.13942 0.0
C2192 C 0.2434 0.9555 0.01882 0.0
C2193 C 0.26081 0.9682 0.0088 0.0
C2194 C 0.22622 0.96548 0.02644 0.0
C2195 C 0.22636 0.98843 0.02313 0.0
C2196 C 0.24335 1.00097 0.01177 0.0
C2197 C 0.26087 0.99074 0.00516 0.0
C2198 C 0.20836 0.95166 0.0387 0.0
C2199 C 0.24329 0.02515 0.0071 0.0
C2200 C 0.17012 1.00028 0.03301 0.0
C2201 C 0.17408 1.00794 0.05795 0.0
C2202 C 0.18774 0.99599 0.02052 0.0
C2203 C 0.20953 0.99935 0.03352 0.0
C2204 C 0.21388 1.00869 0.05829 0.0
C2205 C 0.19591 0.01274 0.07035 0.0
C2206 C 0.18273 0.98632 0.99398 0.0
C2207 C 0.23711 0.01262 0.0725 0.0
H2208 H 0.24367 0.93799 0.02143 0.0
H2209 H 0.27441 1.00017 0.99692 0.0
H2210 H 0.20808 0.96029 0.05718 0.0
H2211 H 0.1915 0.95024 0.02828 0.0
H2212 H 0.21122 0.9342 0.04029 0.0
H2213 H 0.25518 0.0308 0.99419 0.0
H2214 H 0.22615 0.02688 0.99973 0.0
H2215 H 0.24833 0.03675 0.02442 0.0
H2216 H 0.15313 0.99705 0.02348 0.0
H2217 H 0.19883 0.0194 0.08947 0.0
H2218 H 0.1816 0.96763 0.99215 0.0
H2219 H 0.19641 0.99364 0.9838 0.0
H2220 H 0.16651 0.98956 0.98546 0.0
H2221 H 0.24108 0.99597 0.07606 0.0
H2222 H 0.23834 0.02341 0.09018 0.0
H2223 H 0.25007 0.02085 0.06202 0.0
C2224 C 0.70757 0.63398 0.01895 0.0
C2225 C 0.7045 0.65411 0.00963 0.0
C2226 C 0.68907 0.61672 0.02135 0.0
C2227 C 0.66684 0.61936 0.01401 0.0
C2228 C 0.66365 0.63945 0.00424 0.0
C2229 C 0.68243 0.65652 0.0022 0.0
C2230 C 0.6933 0.59596 0.03247 0.0
C2231 C 0.64027 0.64336 0.99688 0.0
C2232 C 0.61487 0.57081 1.00145 0.0
C2233 C 0.60609 0.57235 0.02354 0.0
C2234 C 0.63547 0.58496 0.99862 0.0
C2235 C 0.64682 0.60193 0.01789 0.0
C2236 C 0.63833 0.60277 0.04055 0.0
C2237 C 0.61866 0.5873 0.0433 0.0
C2238 C 0.64496 0.58192 0.97496 0.0
C2239 C 0.64947 0.62001 0.06214 0.0
H2240 H 0.72446 0.63194 0.02505 0.0
H2241 H 0.67978 0.67193 0.99503 0.0
H2242 H 0.68691 0.596 0.05032 0.0
H2243 H 0.684 0.58021 0.02077 0.0
H2244 H 0.71149 0.59541 0.03528 0.0
H2245 H 0.64056 0.65939 0.98871 0.0
H2246 H 0.63048 0.62896 0.98359 0.0
H2247 H 0.63124 0.64414 0.01305 0.0
H2248 H 0.60556 0.55865 0.98636 0.0
H2249 H 0.61271 0.58747 0.06087 0.0
H2250 H 0.66291 0.5806 0.97849 0.0
H2251 H 0.64436 0.597 0.96537 0.0
H2252 H 0.63552 0.56646 0.96285 0.0
H2253 H 0.65876 0.61143 0.07528 0.0
H2254 H 0.63651 0.62671 0.07157 0.0
H2255 H 0.66139 0.63463 0.05732 0.0
C2256 C 0.70088 0.50845 0.29849 0.0
C2257 C 0.67724 0.50442 0.29589 0.0
C2258 C 0.7123 0.49043 0.29551 0.0
C2259 C 0.69976 0.46788 0.2892 0.0
C2260 C 0.67592 0.46363 0.28757 0.0
C2261 C 0.66495 0.48196 0.29115 0.0
C2262 C 0.73773 0.49567 0.29809 0.0
C2263 C 0.66197 0.43979 0.28098 0.0
C2264 C 0.72217 0.42566 0.24834 0.0
C2265 C 0.72791 0.41068 0.26433 0.0
C2266 C 0.71385 0.44481 0.25649 0.0
C2267 C 0.71114 0.44912 0.28128 0.0
C2268 C 0.718 0.43472 0.29779 0.0
C2269 C 0.7264 0.41566 0.2891 0.0
C2270 C 0.7071 0.45994 0.23834 0.0
C2271 C 0.71596 0.43913 0.32446 0.0
H2272 H 0.71052 0.52578 0.30264 0.0
H2273 H 0.64671 0.47875 0.2894 0.0
H2274 H 0.74477 0.48336 0.30844 0.0
H2275 H 0.74327 0.4941 0.27984 0.0
H2276 H 0.74498 0.51319 0.30734 0.0
H2277 H 0.64368 0.43925 0.2812 0.0
H2278 H 0.66457 0.43274 0.26258 0.0
H2279 H 0.66745 0.42851 0.29384 0.0
H2280 H 0.72381 0.42212 0.22926 0.0
H2281 H 0.73096 0.40416 0.30152 0.0
H2282 H 0.71594 0.47785 0.24428 0.0
H2283 H 0.68873 0.45949 0.23728 0.0
H2284 H 0.711 0.45468 0.21989 0.0
H2285 H 0.72631 0.45605 0.33228 0.0
H2286 H 0.72154 0.426 0.33479 0.0
H2287 H 0.69824 0.43951 0.32699 0.0
C2288 C 0.88309 0.46621 0.52552 0.0
C2289 C 0.87769 0.45726 0.50098 0.0
C2290 C 0.90444 0.47917 0.53435 0.0
C2291 C 0.92015 0.48373 0.5179 0.0
C2292 C 0.91456 0.47504 0.49291 0.0
C2293 C 0.89333 0.46137 0.48478 0.0
C2294 C 0.9103 0.48757 0.56116 0.0
C2295 C 0.93101 0.48003 0.47484 0.0
C2296 C 0.96861 0.53327 0.52774 0.0
C2297 C 0.98642 0.52175 0.5287 0.0
C2298 C 0.9465 0.52125 0.52618 0.0
C2299 C 0.94263 0.49746 0.52657 0.0
C2300 C 0.9608 0.48631 0.53065 0.0
C2301 C 0.9826 0.49854 0.53065 0.0
C2302 C 0.92745 0.53349 0.52088 0.0
C2303 C 0.95713 0.46106 0.53218 0.0
H2304 H 0.87077 0.46248 0.53792 0.0
H2305 H 0.88882 0.45416 0.46586 0.0
H2306 H 0.92549 0.48164 0.56856 0.0
H2307 H 0.91442 0.50645 0.56415 0.0
H2308 H 0.89631 0.48156 0.5716 0.0
H2309 H 0.92314 0.47385 0.45584 0.0
H2310 H 0.93783 0.49862 0.47638 0.0
H2311 H 0.94546 0.47167 0.47877 0.0
H2312 H 0.97182 0.55127 0.52581 0.0
H2313 H 0.99618 0.48945 0.52978 0.0
H2314 H 0.91369 0.52826 0.53179 0.0
H2315 H 0.92031 0.5289 0.50145 0.0
H2316 H 0.93321 0.5523 0.52454 0.0
H2317 H 0.94389 0.45597 0.5438 0.0
H2318 H 0.97285 0.45602 0.5396 0.0
H2319 H 0.95134 0.45145 0.51381 0.0
C2320 C 0.35298 0.07196 0.28753 0.0
C2321 C 0.3661 0.07254 0.3096 0.0
C2322 C 0.34295 0.09017 0.28312 0.0
C2323 C 0.34567 0.10875 0.30175 0.0
C2324 C 0.35785 0.1087 0.32468 0.0
C2325 C 0.36839 0.09052 0.32823 0.0
C2326 C 0.33055 0.09001 0.25811 0.0
C2327 C 0.3601 0.12789 0.34505 0.0
C2328 C 0.34101 0.15757 0.26873 0.0
C2329 C 0.31771 0.15549 0.26626 0.0
C2330 C 0.35125 0.1445 0.28377 0.0
C2331 C 0.33748 0.12891 0.29581 0.0
C2332 C 0.3143 0.12889 0.29559 0.0
C2333 C 0.30456 0.14238 0.2806 0.0
C2334 C 0.37617 0.14517 0.28408 0.0
C2335 C 0.29931 0.11256 0.30848 0.0
H2336 H 0.35149 0.05777 0.27336 0.0
H2337 H 0.37838 0.0903 0.34546 0.0
H2338 H 0.31318 0.09259 0.25944 0.0
H2339 H 0.33933 0.10419 0.24933 0.0
H2340 H 0.32952 0.07381 0.24613 0.0
H2341 H 0.3706 0.12527 0.36163 0.0
H2342 H 0.36769 0.14434 0.33926 0.0
H2343 H 0.34316 0.12934 0.34971 0.0
H2344 H 0.35099 0.16856 0.25804 0.0
H2345 H 0.28653 0.14159 0.27891 0.0
H2346 H 0.37859 0.13047 0.27163 0.0
H2347 H 0.3842 0.1438 0.30249 0.0
H2348 H 0.38498 0.16107 0.27804 0.0
H2349 H 0.29428 0.09577 0.29696 0.0
H2350 H 0.28373 0.11869 0.31188 0.0
H2351 H 0.30825 0.10995 0.32598 0.0
C2352 C 0.34805 0.16486 0.51257 0.0
C2353 C 0.32928 0.15813 0.52451 0.0
C2354 C 0.36677 0.15439 0.51521 0.0
C2355 C 0.36691 0.13727 0.53066 0.0
C2356 C 0.34807 0.13068 0.54298 0.0
C2357 C 0.32938 0.14096 0.53948 0.0
C2358 C 0.3862 0.16135 0.50119 0.0
C2359 C 0.34776 0.11299 0.56021 0.0
C2360 C 0.40396 0.0933 0.53021 0.0
C2361 C 0.41946 0.10211 0.55097 0.0
C2362 C 0.3877 0.10547 0.52205 0.0
C2363 C 0.387 0.12679 0.53508 0.0
C2364 C 0.40392 0.13652 0.55477 0.0
C2365 C 0.41997 0.12406 0.56243 0.0
C2366 C 0.37016 0.09465 0.50076 0.0
C2367 C 0.40395 0.15925 0.56904 0.0
H2368 H 0.34784 0.17789 0.50068 0.0
H2369 H 0.31491 0.13576 0.54876 0.0
H2370 H 0.40216 0.16699 0.51373 0.0
H2371 H 0.38814 0.14648 0.4887 0.0
H2372 H 0.38374 0.17531 0.49038 0.0
H2373 H 0.33177 0.1097 0.56827 0.0
H2374 H 0.35011 0.09672 0.55059 0.0
H2375 H 0.36195 0.11873 0.57515 0.0
H2376 H 0.40348 0.07624 0.52149 0.0
H2377 H 0.43203 0.1308 0.57849 0.0
H2378 H 0.36744 0.1073 0.48832 0.0
H2379 H 0.35387 0.08851 0.50739 0.0
H2380 H 0.37498 0.07995 0.49039 0.0
H2381 H 0.40444 0.17256 0.55678 0.0
H2382 H 0.41853 0.16461 0.5836 0.0
H2383 H 0.3882 0.15833 0.57748 0.0
C2384 C 0.69863 0.62572 0.30582 0.0
C2385 C 0.67593 0.62786 0.3037 0.0
C2386 C 0.71604 0.64413 0.30362 0.0
C2387 C 0.71075 0.66526 0.29901 0.0
C2388 C 0.6879 0.66746 0.29649 0.0
C2389 C 0.67083 0.64885 0.29903 0.0
C2390 C 0.74014 0.64105 0.3065 0.0
C2391 C 0.68146 0.68947 0.29081 0.0
C2392 C 0.75257 0.72172 0.31675 0.0
C2393 C 0.76014 0.72595 0.29461 0.0
C2394 C 0.73758 0.70137 0.31868 0.0
C2395 C 0.72904 0.68539 0.29769 0.0
C2396 C 0.73705 0.68947 0.27533 0.0
C2397 C 0.75303 0.70942 0.27425 0.0
C2398 C 0.73024 0.69735 0.34305 0.0
C2399 C 0.72813 0.67329 0.25232 0.0
H2400 H 0.70286 0.6096 0.30926 0.0
H2401 H 0.65342 0.65068 0.29696 0.0
H2402 H 0.74808 0.64529 0.2902 0.0
H2403 H 0.74998 0.65292 0.32222 0.0
H2404 H 0.74144 0.62337 0.30931 0.0
H2405 H 0.66294 0.68832 0.28881 0.0
H2406 H 0.6895 0.70348 0.30544 0.0
H2407 H 0.68772 0.69412 0.27373 0.0
H2408 H 0.75815 0.73454 0.33248 0.0
H2409 H 0.75872 0.71289 0.25706 0.0
H2410 H 0.73248 0.6803 0.34726 0.0
H2411 H 0.71206 0.69763 0.34257 0.0
H2412 H 0.73986 0.71042 0.35792 0.0
H2413 H 0.73475 0.65746 0.25318 0.0
H2414 H 0.73318 0.68078 0.23594 0.0
H2415 H 0.70947 0.66847 0.25024 0.0
C2416 C 0.87539 0.44245 0.83416 0.0
C2417 C 0.87487 0.46003 0.81994 0.0
C2418 C 0.85913 0.4223 0.82861 0.0
C2419 C 0.84272 0.41979 0.808 0.0
C2420 C 0.84183 0.43772 0.79398 0.0
C2421 C 0.85786 0.45781 0.8003 0.0
C2422 C 0.86018 0.40331 0.844 0.0
C2423 C 0.8249 0.43514 0.77148 0.0
C2424 C 0.82707 0.35901 0.78074 0.0
C2425 C 0.80653 0.35201 0.78931 0.0
C2426 C 0.83808 0.38167 0.78489 0.0
C2427 C 0.82878 0.39734 0.79914 0.0
C2428 C 0.8074 0.39079 0.8067 0.0
C2429 C 0.79617 0.3681 0.80113 0.0
C2430 C 0.86055 0.38835 0.77575 0.0
C2431 C 0.79736 0.4071 0.82245 0.0
H2432 H 0.88849 0.44443 0.84945 0.0
H2433 H 0.85766 0.47146 0.78919 0.0
H2434 H 0.84314 0.39592 0.84819 0.0
H2435 H 0.86642 0.38947 0.83383 0.0
H2436 H 0.8716 0.40924 0.86132 0.0
H2437 H 0.82566 0.45131 0.76347 0.0
H2438 H 0.82817 0.422 0.7576 0.0
H2439 H 0.80757 0.42928 0.77573 0.0
H2440 H 0.8354 0.34662 0.77225 0.0
H2441 H 0.78017 0.36274 0.80769 0.0
H2442 H 0.87431 0.39128 0.79115 0.0
H2443 H 0.86154 0.40441 0.76757 0.0
H2444 H 0.86355 0.37493 0.76197 0.0
H2445 H 0.80642 0.40976 0.84117 0.0
H2446 H 0.77919 0.40045 0.82325 0.0
H2447 H 0.79932 0.42395 0.81581 0.0
C2448 C 0.04993 0.87305 0.09405 0.0
C2449 C 0.07066 0.8658 0.09342 0.0
C2450 C 0.04598 0.89394 0.0858 0.0
C2451 C 0.06321 0.90924 0.07687 0.0
C2452 C 0.08425 0.90203 0.07633 0.0
C2453 C 0.0876 0.88078 0.08425 0.0
C2454 C 0.02309 0.89971 0.08681 0.0
C2455 C 0.10368 0.91717 0.06778 0.0
C2456 C 0.04725 0.95645 0.03761 0.0
C2457 C 0.05277 0.97697 0.05392 0.0
C2458 C 0.05073 0.93488 0.04454 0.0
C2459 C 0.05946 0.93268 0.06883 0.0
C2460 C 0.06453 0.95328 0.08545 0.0
C2461 C 0.06149 0.97469 0.07789 0.0
C2462 C 0.04521 0.91427 0.02551 0.0
C2463 C 0.07299 0.95273 0.11168 0.0
H2464 H 0.03651 0.86221 0.1011 0.0
H2465 H 0.1039 0.87619 0.08387 0.0
H2466 H 0.02476 0.91668 0.09749 0.0
H2467 H 0.01523 0.90067 0.0682 0.0
H2468 H 1.01162 0.8869 0.09498 0.0
H2469 H 0.1183 0.90882 0.06632 0.0
H2470 H 0.09829 0.9221 0.04985 0.0
H2471 H 0.10921 0.93307 0.08071 0.0
H2472 H 0.04055 0.95725 0.01903 0.0
H2473 H 0.06575 0.98983 0.09116 0.0
H2474 H 0.03187 0.90116 0.03077 0.0
H2475 H 0.06031 0.90666 0.02428 0.0
H2476 H 0.03938 0.91845 0.00733 0.0
H2477 H 0.06011 0.94145 0.11988 0.0
H2478 H 0.07681 0.96991 0.12245 0.0
H2479 H 0.08844 0.94552 0.11304 0.0
C2480 C 0.92391 0.27892 0.92169 0.0
C2481 C 0.94566 0.27884 0.91532 0.0
C2482 C 0.90539 0.27975 0.90432 0.0
C2483 C 0.90819 0.28062 0.87952 0.0
C2484 C 0.93006 0.28046 0.87287 0.0
C2485 C 0.94835 0.27956 0.89066 0.0
C2486 C 0.88268 0.27984 0.91264 0.0
C2487 C 0.93428 0.2816 0.8469 0.0
C2488 C 0.85411 0.26295 0.83265 0.0
C2489 C 0.84936 0.28398 0.82755 0.0
C2490 C 0.87343 0.26162 0.84871 0.0
C2491 C 0.88828 0.2818 0.86081 0.0
C2492 C 0.88343 0.30309 0.85563 0.0
C2493 C 0.86437 0.3039 0.83896 0.0
C2494 C 0.87792 0.2385 0.85279 0.0
C2495 C 0.89808 0.32516 0.86823 0.0
H2496 H 0.92128 0.2784 0.94049 0.0
H2497 H 0.9649 0.27974 0.88523 0.0
H2498 H 0.87649 0.2951 0.90769 0.0
H2499 H 0.87026 0.26466 0.90331 0.0
H2500 H 0.8832 0.27975 0.93255 0.0
H2501 H 0.9515 0.2793 0.84406 0.0
H2502 H 0.92178 0.26835 0.83454 0.0
H2503 H 0.93217 0.29838 0.8417 0.0
H2504 H 0.84277 0.24745 0.82386 0.0
H2505 H 0.86082 0.32024 0.83532 0.0
H2506 H 0.8772 0.2361 0.8721 0.0
H2507 H 0.89513 0.2373 0.84883 0.0
H2508 H 0.86559 0.22445 0.84125 0.0
H2509 H 0.89683 0.32651 0.88796 0.0
H2510 H 0.89311 0.34026 0.86117 0.0
H2511 H 0.916 0.32551 0.86605 0.0
C2512 C 0.55065 0.22234 0.57318 0.0
C2513 C 0.57039 0.23508 0.58762 0.0
C2514 C 0.54737 0.19822 0.56623 0.0
C2515 C 0.5639 0.18573 0.57413 0.0
C2516 C 0.58369 0.19857 0.58902 0.0
C2517 C 0.5868 0.22271 0.59511 0.0
C2518 C 0.52617 0.18613 0.54996 0.0
C2519 C 0.60189 0.18676 0.59846 0.0
C2520 C 0.54594 0.11985 0.57485 0.0
C2521 C 0.55468 0.11003 0.5548 0.0
C2522 C 0.5489 0.14392 0.58127 0.0
C2523 C 0.56056 0.1595 0.5672 0.0
C2524 C 0.56925 0.1497 0.54674 0.0
C2525 C 0.56636 0.12549 0.54098 0.0
C2526 C 0.53954 0.15272 0.60344 0.0
C2527 C 0.58108 0.16483 0.5303 0.0
H2528 H 0.53794 0.23138 0.56664 0.0
H2529 H 0.60234 0.23205 0.60583 0.0
H2530 H 0.53035 0.17525 0.53451 0.0
H2531 H 0.51535 0.17481 0.56027 0.0
H2532 H 0.51635 0.19823 0.5427 0.0
H2533 H 0.61536 0.19845 0.61137 0.0
H2534 H 0.59454 0.17225 0.6077 0.0
H2535 H 0.60964 0.17971 0.58307 0.0
H2536 H 0.53679 0.10858 0.58588 0.0
H2537 H 0.57272 0.11868 0.52504 0.0
H2538 H 0.52626 0.16214 0.59803 0.0
H2539 H 0.55303 0.16485 0.61587 0.0
H2540 H 0.53218 0.1388 0.61348 0.0
H2541 H 0.56882 0.17345 0.52082 0.0
H2542 H 0.58861 0.15513 0.51648 0.0
H2543 H 0.59456 0.17832 0.54101 0.0
C2544 C 0.57256 0.76327 0.39962 0.0
C2545 C 0.57088 0.78117 0.41712 0.0
C2546 C 0.59105 0.76476 0.38628 0.0
C2547 C 0.60787 0.78504 0.38977 0.0
C2548 C 0.60637 0.80299 0.40777 0.0
C2549 C 0.58817 0.80067 0.4215 0.0
C2550 C 0.59243 0.74476 0.36822 0.0
C2551 C 0.62336 0.82524 0.41163 0.0
C2552 C 0.66542 0.79246 0.36662 0.0
C2553 C 0.66144 0.80329 0.34605 0.0
C2554 C 0.64783 0.78495 0.38024 0.0
C2555 C 0.62581 0.78857 0.37325 0.0
C2556 C 0.62149 0.79793 0.35144 0.0
C2557 C 0.63927 0.80508 0.33816 0.0
C2558 C 0.65311 0.77444 0.40291 0.0
C2559 C 0.59836 0.80191 0.34296 0.0
H2560 H 0.55931 0.74808 0.39628 0.0
H2561 H 0.58683 0.81466 0.43478 0.0
H2562 H 0.59272 0.74987 0.34978 0.0
H2563 H 0.60836 0.73897 0.37303 0.0
H2564 H 0.57807 0.7302 0.36767 0.0
H2565 H 0.62039 0.8372 0.42691 0.0
H2566 H 0.64068 0.82214 0.41532 0.0
H2567 H 0.62249 0.83354 0.39486 0.0
H2568 H 0.68253 0.79116 0.37293 0.0
H2569 H 0.63611 0.8134 0.32225 0.0
H2570 H 0.64006 0.75905 0.40368 0.0
H2571 H 0.65301 0.78674 0.41911 0.0
H2572 H 0.66988 0.76968 0.40395 0.0
H2573 H 0.58571 0.78573 0.34083 0.0
H2574 H 0.59766 0.80894 0.32539 0.0
H2575 H 0.59339 0.81398 0.35676 0.0
C2576 C 0.07336 0.25922 0.41266 0.0
C2577 C 0.05374 0.26367 0.40027 0.0
C2578 C 0.07268 0.23963 0.42454 0.0
C2579 C 0.05185 0.22426 0.42417 0.0
C2580 C 0.0323 0.22809 0.41036 0.0
C2581 C 0.0335 0.24773 0.39869 0.0
C2582 C 0.09393 0.23616 0.43881 0.0
C2583 C 1.00963 0.21249 0.40959 0.0
C2584 C 0.04329 0.16518 0.44481 0.0
C2585 C 0.03579 0.16955 0.46735 0.0
C2586 C 0.05031 0.18307 0.43121 0.0
C2587 C 0.04959 0.20578 0.44028 0.0
C2588 C 0.04366 0.21034 0.46389 0.0
C2589 C 0.03685 0.1922 0.47706 0.0
C2590 C 0.05674 0.17744 0.40632 0.0
C2591 C 0.04265 0.23418 0.47447 0.0
H2592 H 0.0889 0.27186 0.41451 0.0
H2593 H 0.0182 0.25148 0.38972 0.0
H2594 H 0.09218 0.2375 0.45843 0.0
H2595 H 0.09677 0.21882 0.43329 0.0
H2596 H 0.10898 0.24887 0.43624 0.0
H2597 H 0.99662 0.21645 0.39613 0.0
H2598 H 1.01088 0.19446 0.40506 0.0
H2599 H 1.00392 0.21425 0.42776 0.0
H2600 H 0.04212 0.14767 0.43705 0.0
H2601 H 0.03079 0.19558 0.49435 0.0
H2602 H 0.07214 0.18955 0.40365 0.0
H2603 H 0.043 0.17913 0.39234 0.0
H2604 H 0.05971 0.15981 0.40333 0.0
H2605 H 0.05873 0.24609 0.47359 0.0
H2606 H 0.03928 0.2351 0.49364 0.0
H2607 H 0.02908 0.24015 0.46366 0.0
C2608 C 0.61177 0.28643 0.24087 0.0
C2609 C 0.59992 0.26796 0.22371 0.0
C2610 C 0.63519 0.28869 0.2499 0.0
C2611 C 0.64786 0.27246 0.24145 0.0
C2612 C 0.63572 0.25347 0.22478 0.0
C2613 C 0.61242 0.25157 0.21624 0.0
C2614 C 0.64665 0.30918 0.26779 0.0
C2615 C 0.64767 0.23545 0.21495 0.0
C2616 C 0.71306 0.2901 0.24067 0.0
C2617 C 0.72271 0.28065 0.26031 0.0
C2618 C 0.68926 0.28784 0.23472 0.0
C2619 C 0.67378 0.27581 0.24857 0.0
C2620 C 0.68339 0.26631 0.26852 0.0
C2621 C 0.70732 0.26891 0.27411 0.0
C2622 C 0.68062 0.29839 0.2133 0.0
C2623 C 0.66834 0.25362 0.28439 0.0
H2624 H 0.60306 0.29981 0.24637 0.0
H2625 H 0.60409 0.23753 0.20251 0.0
H2626 H 0.65717 0.30403 0.28286 0.0
H2627 H 0.65802 0.32111 0.25858 0.0
H2628 H 0.63434 0.31835 0.27551 0.0
H2629 H 0.6361 0.22149 0.20247 0.0
H2630 H 0.66135 0.24324 0.20504 0.0
H2631 H 0.65562 0.22802 0.23013 0.0
H2632 H 0.7242 0.29916 0.22956 0.0
H2633 H 0.71396 0.26209 0.28981 0.0
H2634 H 0.67176 0.31193 0.21961 0.0
H2635 H 0.66825 0.28539 0.20052 0.0
H2636 H 0.69436 0.30594 0.20331 0.0
H2637 H 0.65955 0.26556 0.29416 0.0
H2638 H 0.6779 0.24569 0.29797 0.0
H2639 H 0.65521 0.24011 0.27316 0.0
C2640 C 0.54299 0.88256 0.91998 0.0
C2641 C 0.55908 0.88432 0.90362 0.0
C2642 C 0.54033 0.90158 0.93584 0.0
C2643 C 0.55453 0.92328 0.93626 0.0
C2644 C 0.57107 0.92512 0.92002 0.0
C2645 C 0.57291 0.90586 0.90376 0.0
C2646 C 0.52219 0.89837 0.95222 0.0
C2647 C 0.58729 0.94741 0.92028 0.0
C2648 C 0.53437 0.97732 0.96152 0.0
C2649 C 0.54616 0.98302 0.98511 0.0
C2650 C 0.53712 0.95834 0.94559 0.0
C2651 C 0.55176 0.94397 0.95327 0.0
C2652 C 0.56328 0.94929 0.97738 0.0
C2653 C 0.56039 0.96859 0.99281 0.0
C2654 C 0.52414 0.95354 0.92042 0.0
C2655 C 0.57857 0.93447 0.98709 0.0
H2656 H 0.53222 0.86613 0.92032 0.0
H2657 H 0.58577 0.90751 0.89177 0.0
H2658 H 0.52971 0.90347 0.97146 0.0
H2659 H 0.51011 0.90952 0.94815 0.0
H2660 H 0.51271 0.88047 0.9501 0.0
H2661 H 0.59898 0.94641 0.90648 0.0
H2662 H 0.57787 0.96104 0.91693 0.0
H2663 H 0.59739 0.95244 0.93848 0.0
H2664 H 0.52243 0.98738 0.95563 0.0
H2665 H 0.56962 0.97258 0.01091 0.0
H2666 H 0.51311 0.93633 0.91779 0.0
H2667 H 0.53601 0.95362 0.90671 0.0
H2668 H 0.51356 0.96623 0.91694 0.0
H2669 H 0.56831 0.91775 0.9894 0.0
H2670 H 0.5884 0.94224 0.00492 0.0
H2671 H 0.59044 0.9312 0.97408 0.0
C2672 C 0.9617 0.76431 0.74829 0.0
C2673 C 0.96472 0.76169 0.72346 0.0
C2674 C 0.94081 0.76776 0.75642 0.0
C2675 C 0.92152 0.76846 0.73966 0.0
C2676 C 0.92453 0.76579 0.7146 0.0
C2677 C 0.94562 0.76264 0.707 0.0
C2678 C 0.93943 0.77075 0.78327 0.0
C2679 C 0.90538 0.7667 0.6955 0.0
C2680 C 0.8594 0.75613 0.75669 0.0
C2681 C 0.85448 0.77791 0.76273 0.0
C2682 C 0.88082 0.75293 0.74998 0.0
C2683 C 0.89843 0.77182 0.74806 0.0
C2684 C 0.89341 0.79386 0.75375 0.0
C2685 C 0.87214 0.79654 0.76128 0.0
C2686 C 0.88463 0.72901 0.74496 0.0
C2687 C 0.91059 0.81494 0.75184 0.0
H2688 H 0.97592 0.76407 0.76162 0.0
H2689 H 0.94716 0.76102 0.6878 0.0
H2690 H 0.9337 0.78674 0.78858 0.0
H2691 H 0.92679 0.75648 0.78772 0.0
H2692 H 0.95588 0.77126 0.79425 0.0
H2693 H 0.90962 0.76337 0.6768 0.0
H2694 H 0.89017 0.75401 0.69755 0.0
H2695 H 0.901 0.78376 0.69794 0.0
H2696 H 0.84648 0.74128 0.75757 0.0
H2697 H 0.86916 0.81351 0.76545 0.0
H2698 H 0.90022 0.72727 0.7562 0.0
H2699 H 0.88704 0.72534 0.72566 0.0
H2700 H 0.87034 0.7161 0.74886 0.0
H2701 H 0.9247 0.81727 0.76677 0.0
H2702 H 0.9033 0.8305 0.75301 0.0
H2703 H 0.91773 0.81318 0.73446 0.0
C2704 C 0.13392 0.06525 0.88461 0.0
C2705 C 0.12148 0.05764 0.86156 0.0
C2706 C 0.12385 0.06287 0.9061 0.0
C2707 C 0.10096 0.05165 0.90479 0.0
C2708 C 0.08847 0.04355 0.88151 0.0
C2709 C 0.09869 0.04705 0.86031 0.0
C2710 C 0.13778 0.07246 0.93027 0.0
C2711 C 0.0643 0.03087 0.87894 0.0
C2712 C 0.08273 0.02803 0.9626 0.0
C2713 C 0.07016 0.04362 0.97135 0.0
C2714 C 0.09222 0.03001 0.9407 0.0
C2715 C 0.09006 0.04865 0.92767 0.0
C2716 C 0.07759 0.06459 0.93674 0.0
C2717 C 0.06747 0.06162 0.95806 0.0
C2718 C 0.10432 0.01194 0.93133 0.0
C2719 C 0.07552 0.08527 0.92437 0.0
H2720 H 0.15153 0.07337 0.88584 0.0
H2721 H 0.08898 0.04078 0.84266 0.0
H2722 H 0.12863 0.08318 0.94125 0.0
H2723 H 0.14068 0.05836 0.9406 0.0
H2724 H 0.1544 0.08288 0.92821 0.0
H2725 H 0.05774 0.02332 0.8599 0.0
H2726 H 0.06274 0.01703 0.89062 0.0
H2727 H 0.0535 0.04264 0.88504 0.0
H2728 H 0.08468 0.01394 0.97259 0.0
H2729 H 0.05797 0.07387 0.96482 0.0
H2730 H 0.12246 0.01941 0.93177 0.0
H2731 H 0.09745 1.00528 0.91215 0.0
H2732 H 0.10276 0.99748 0.9422 0.0
H2733 H 0.09242 0.09648 0.9257 0.0
H2734 H 0.06404 0.09522 0.93263 0.0
H2735 H 0.06922 0.08023 0.90481 0.0
C2736 C 0.83367 0.41359 0.57808 0.0
C2737 C 0.81482 0.41875 0.56515 0.0
C2738 C 0.83197 0.40467 0.59982 0.0
C2739 C 0.81091 0.40138 0.60882 0.0
C2740 C 0.79282 0.40985 0.59767 0.0
C2741 C 0.79496 0.41846 0.57555 0.0
C2742 C 0.85183 0.39591 0.61112 0.0
C2743 C 0.77066 0.40766 0.60772 0.0
C2744 C 0.80926 0.34591 0.63112 0.0
C2745 C 0.82062 0.35339 0.65445 0.0
C2746 C 0.80213 0.36145 0.61684 0.0
C2747 C 0.80713 0.38492 0.62622 0.0
C2748 C 0.81572 0.39197 0.65088 0.0
C2749 C 0.82257 0.37603 0.66479 0.0
C2750 C 0.7924 0.35312 0.5907 0.0
C2751 C 0.82074 0.41672 0.66161 0.0
H2752 H 0.84913 0.4144 0.56994 0.0
H2753 H 0.78055 0.42284 0.56542 0.0
H2754 H 0.85532 0.40162 0.6309 0.0
H2755 H 0.84793 0.377 0.60841 0.0
H2756 H 0.86741 0.40173 0.60297 0.0
H2757 H 0.75944 0.41766 0.59869 0.0
H2758 H 0.76187 0.38953 0.60511 0.0
H2759 H 0.77354 0.4135 0.62752 0.0
H2760 H 0.80707 0.32816 0.62362 0.0
H2761 H 0.83099 0.38165 0.68315 0.0
H2762 H 0.80594 0.35651 0.579 0.0
H2763 H 0.779 0.36213 0.58465 0.0
H2764 H 0.78528 0.33451 0.58789 0.0
H2765 H 0.83793 0.42483 0.65848 0.0
H2766 H 0.82023 0.41852 0.68152 0.0
H2767 H 0.80868 0.42609 0.65306 0.0
C2768 C 0.44573 0.01688 0.37694 0.0
C2769 C 0.42616 0.0256 0.37836 0.0
C2770 C 0.46182 0.01945 0.39686 0.0
C2771 C 0.4574 0.0297 0.41911 0.0
C2772 C 0.43711 0.03737 0.42129 0.0
C2773 C 0.42154 0.0354 0.40052 0.0
C2774 C 0.48372 0.01172 0.3938 0.0
C2775 C 0.43235 0.04831 0.44523 0.0
C2776 C 0.49316 0.0134 0.46961 0.0
C2777 C 0.50792 0.03404 0.47754 0.0
C2778 C 0.47526 0.01232 0.45171 0.0
C2779 C 0.47414 0.03176 0.44004 0.0
C2780 C 0.49066 0.05205 0.44637 0.0
C2781 C 0.50711 0.05322 0.46594 0.0
C2782 C 0.45743 0.99065 0.44562 0.0
C2783 C 0.4917 0.07185 0.43181 0.0
H2784 H 0.44924 1.00895 0.36 0.0
H2785 H 0.40646 0.04233 0.40139 0.0
H2786 H 0.49839 0.02518 0.40225 0.0
H2787 H 0.48442 0.9964 0.40294 0.0
H2788 H 0.48562 1.00737 0.37442 0.0
H2789 H 0.4149 0.05136 0.44426 0.0
H2790 H 0.435 0.0374 0.45962 0.0
H2791 H 0.44426 0.06489 0.45074 0.0
H2792 H 0.49487 0.99857 0.4784 0.0
H2793 H 0.51963 0.06878 0.47182 0.0
H2794 H 0.4558 0.98395 0.42613 0.0
H2795 H 0.44086 0.9944 0.44913 0.0
H2796 H 0.46117 0.97709 0.45643 0.0
H2797 H 0.49599 0.06664 0.41353 0.0
H2798 H 0.50461 0.08696 0.44052 0.0
H2799 H 0.47512 0.07683 0.42917 0.0
C2800 C 0.79399 0.73985 0.09673 0.0
C2801 C 0.77832 0.71998 0.08665 0.0
C2802 C 0.79639 0.74806 0.12173 0.0
C2803 C 0.78227 0.73658 0.13708 0.0
C2804 C 0.76672 0.71619 0.12698 0.0
C2805 C 0.76504 0.7081 0.102 0.0
C2806 C 0.8138 0.7693 0.13164 0.0
C2807 C 0.75109 0.70344 0.14233 0.0
C2808 C 0.7974 0.74801 0.20645 0.0
C2809 C 0.78456 0.76419 0.21325 0.0
C2810 C 0.79714 0.73925 0.18193 0.0
C2811 C 0.78326 0.74627 0.1634 0.0
C2812 C 0.7703 0.76263 0.17009 0.0
C2813 C 0.77143 0.77165 0.19474 0.0
C2814 C 0.8118 0.72245 0.1759 0.0
C2815 C 0.75502 0.7705 0.15116 0.0
H2816 H 0.80414 0.74922 0.08491 0.0
H2817 H 0.7526 0.69298 0.09423 0.0
H2818 H 0.80547 0.78279 0.1392 0.0
H2819 H 0.82545 0.76566 0.1467 0.0
H2820 H 0.82383 0.77595 0.11756 0.0
H2821 H 0.74107 0.68712 0.13232 0.0
H2822 H 0.76078 0.69979 0.15889 0.0
H2823 H 0.73932 0.7142 0.14835 0.0
H2824 H 0.8079 0.7422 0.22037 0.0
H2825 H 0.76183 0.78441 0.19945 0.0
H2826 H 0.82309 0.72883 0.16276 0.0
H2827 H 0.80116 0.70597 0.16713 0.0
H2828 H 0.82231 0.71934 0.19223 0.0
H2829 H 0.76512 0.77899 0.13812 0.0
H2830 H 0.74536 0.78258 0.15925 0.0
H2831 H 0.74295 0.75562 0.1407 0.0
C2832 C 0.10815 0.03678 0.71591 0.0
C2833 C 0.11347 0.05863 0.72927 0.0
C2834 C 0.0993 0.03343 0.69094 0.0
C2835 C 0.0964 0.05243 0.67877 0.0
C2836 C 0.10268 0.07454 0.69209 0.0
C2837 C 0.11069 0.07728 0.71707 0.0
C2838 C 0.09249 1.00949 0.67777 0.0
C2839 C 0.10062 0.09542 0.68003 0.0
C2840 C 0.09221 0.04731 0.60928 0.0
C2841 C 0.06926 0.04684 0.60219 0.0
C2842 C 0.10117 0.049 0.63393 0.0
C2843 C 0.08681 0.04951 0.65222 0.0
C2844 C 0.06353 0.04872 0.64512 0.0
C2845 C 0.05514 0.04778 0.62032 0.0
C2846 C 0.12617 0.05066 0.6404 0.0
C2847 C 0.04734 0.0484 0.66371 0.0
H2848 H 0.10994 0.02223 0.72521 0.0
H2849 H 0.11473 0.09422 0.72722 0.0
H2850 H 0.07493 1.00646 0.66854 0.0
H2851 H 0.10349 1.00717 0.66355 0.0
H2852 H 0.09372 0.99646 0.69019 0.0
H2853 H 0.10804 0.11147 0.69227 0.0
H2854 H 0.10914 0.09535 0.66347 0.0
H2855 H 0.0826 0.09529 0.67428 0.0
H2856 H 0.10334 0.04674 0.59547 0.0
H2857 H 0.03736 0.04714 0.61506 0.0
H2858 H 0.12921 0.03605 0.64981 0.0
H2859 H 0.13351 0.06642 0.65309 0.0
H2860 H 0.1352 0.05083 0.62418 0.0
H2861 H 0.04706 0.03294 0.6729 0.0
H2862 H 0.02993 0.04841 0.65548 0.0
H2863 H 0.053 0.06337 0.67787 0.0
C2864 C 0.81186 0.3843 0.44091 0.0
C2865 C 0.80534 0.40502 0.4383 0.0
C2866 C 0.81076 0.36833 0.42095 0.0
C2867 C 0.80328 0.37355 0.39791 0.0
C2868 C 0.79718 0.39463 0.39488 0.0
C2869 C 0.79831 0.41035 0.4154 0.0
C2870 C 0.8171 0.34572 0.42462 0.0
C2871 C 0.78888 0.40019 0.37022 0.0
C2872 C 0.82042 0.33663 0.34859 0.0
C2873 C 0.79968 0.32278 0.33927 0.0
C2874 C 0.82147 0.35462 0.36666 0.0
C2875 C 0.80175 0.35657 0.37711 0.0
C2876 C 0.78118 0.34094 0.36928 0.0
C2877 C 0.78022 0.32449 0.34964 0.0
C2878 C 0.84333 0.3718 0.37409 0.0
C2879 C 0.76062 0.34104 0.38212 0.0
H2880 H 0.81729 0.38016 0.45864 0.0
H2881 H 0.79302 0.42634 0.41362 0.0
H2882 H 0.80331 0.33141 0.41598 0.0
H2883 H 0.83229 0.34407 0.4159 0.0
H2884 H 0.82074 0.34384 0.44412 0.0
H2885 H 0.78702 0.41819 0.37081 0.0
H2886 H 0.80064 0.39687 0.35708 0.0
H2887 H 0.77225 0.38902 0.36329 0.0
H2888 H 0.83541 0.33432 0.34062 0.0
H2889 H 0.76449 0.31268 0.34267 0.0
H2890 H 0.84885 0.37294 0.39382 0.0
H2891 H 0.84069 0.38892 0.3705 0.0
H2892 H 0.85709 0.36756 0.36411 0.0
H2893 H 0.76429 0.33701 0.40087 0.0
H2894 H 0.74569 0.32834 0.37273 0.0
H2895 H 0.75634 0.35814 0.3836 0.0
C2896 C 0.44061 1.00505 0.24676 0.0
C2897 C 0.42729 0.02009 0.2547 0.0
C2898 C 0.44625 1.00381 0.22344 0.0
C2899 C 0.43815 0.01795 0.20743 0.0
C2900 C 0.42361 0.03235 0.21476 0.0
C2901 C 0.41818 0.0332 0.23858 0.0
C2902 C 0.46178 0.98802 0.21653 0.0
C2903 C 0.41447 0.04725 0.19782 0.0
C2904 C 0.48231 0.02222 0.1677 0.0
C2905 C 0.47359 1.00236 0.1516 0.0
C2906 C 0.46887 0.0306 0.18373 0.0
C2907 C 0.44672 0.01817 0.18389 0.0
C2908 C 0.43703 1.00004 0.1653 0.0
C2909 C 0.45075 0.99229 0.14921 0.0
C2910 C 0.47956 0.0504 0.20294 0.0
C2911 C 0.41351 0.98635 0.16484 0.0
H2912 H 0.44699 0.99428 0.25903 0.0
H2913 H 0.40753 0.04452 0.24479 0.0
H2914 H 0.45442 0.97663 0.19952 0.0
H2915 H 0.47819 0.99816 0.2135 0.0
H2916 H 0.46514 0.97718 0.23082 0.0
H2917 H 0.40216 0.05624 0.20582 0.0
H2918 H 0.42852 0.06011 0.19343 0.0
H2919 H 0.40617 0.03689 0.18048 0.0
H2920 H 0.49991 0.03038 0.16867 0.0
H2921 H 0.44407 0.97733 0.136 0.0
H2922 H 0.48592 0.04378 0.21956 0.0
H2923 H 0.46714 0.06077 0.20787 0.0
H2924 H 0.49401 0.06154 0.19682 0.0
H2925 H 0.41422 0.97244 0.17622 0.0
H2926 H 0.4062 0.97843 0.14611 0.0
H2927 H 0.4022 0.99696 0.17221 0.0
C2928 C 0.76748 0.69637 0.9312 0.0
C2929 C 0.77538 0.70891 0.9542 0.0
C2930 C 0.77035 0.7063 0.9096 0.0
C2931 C 0.7824 0.72909 0.91073 0.0
C2932 C 0.79073 0.74169 0.93397 0.0
C2933 C 0.78672 0.73166 0.95527 0.0
C2934 C 0.76023 0.69239 0.88552 0.0
C2935 C 0.80408 0.7658 0.93643 0.0
C2936 C 0.80575 0.74616 0.85223 0.0
C2937 C 0.79116 0.7599 0.84392 0.0
C2938 C 0.80363 0.73671 0.87427 0.0
C2939 C 0.7857 0.73993 0.88775 0.0
C2940 C 0.77078 0.75356 0.87909 0.0
C2941 C 0.7741 0.76378 0.85787 0.0
C2942 C 0.82081 0.72355 0.88334 0.0
C2943 C 0.75066 0.75666 0.89165 0.0
H2944 H 0.75872 0.6788 0.93009 0.0
H2945 H 0.79316 0.74149 0.97286 0.0
H2946 H 0.74994 0.70207 0.87471 0.0
H2947 H 0.77384 0.68889 0.87496 0.0
H2948 H 0.74945 0.67587 0.8877 0.0
H2949 H 0.81216 0.7721 0.95534 0.0
H2950 H 0.81735 0.76695 0.92425 0.0
H2951 H 0.79279 0.77729 0.93094 0.0
H2952 H 0.81918 0.74329 0.84184 0.0
H2953 H 0.76273 0.77431 0.85165 0.0
H2954 H 0.8127 0.7054 0.88283 0.0
H2955 H 0.82772 0.73023 0.90251 0.0
H2956 H 0.83498 0.72453 0.87231 0.0
H2957 H 0.73851 0.74011 0.8895 0.0
H2958 H 0.74191 0.76941 0.88406 0.0
H2959 H 0.75571 0.76205 0.91137 0.0
C2960 C 0.82831 0.08923 0.06391 0.0
C2961 C 0.83131 0.11268 0.07082 0.0
C2962 C 0.84605 0.07997 0.05613 0.0
C2963 C 0.86715 0.09457 0.05593 0.0
C2964 C 0.87102 0.11764 0.06616 0.0
C2965 C 0.85293 0.12647 0.07359 0.0
C2966 C 0.84145 0.05517 0.04551 0.0
C2967 C 0.89343 0.13361 0.06666 0.0
C2968 C 0.91125 0.06292 0.03701 0.0
C2969 C 0.90883 0.06376 0.01184 0.0
C2970 C 0.89904 0.07447 0.05205 0.0
C2971 C 0.88358 0.08643 0.04154 0.0
C2972 C 0.88187 0.08836 0.01641 0.0
C2973 C 0.89472 0.07715 1.00189 0.0
C2974 C 0.90184 0.07289 0.07895 0.0
C2975 C 0.86545 0.10106 0.00454 0.0
H2976 H 0.8116 0.07854 0.062 0.0
H2977 H 0.85527 0.14461 0.07939 0.0
H2978 H 0.84252 0.05381 0.02573 0.0
H2979 H 0.85433 0.04658 0.05384 0.0
H2980 H 0.82451 0.04591 0.04823 0.0
H2981 H 0.89504 0.14937 0.07954 0.0
H2982 H 0.9076 0.12519 0.07174 0.0
H2983 H 0.895 0.13859 0.04829 0.0
H2984 H 0.92204 0.05255 0.04493 0.0
H2985 H 0.89331 0.07845 0.98262 0.0
H2986 H 0.88694 0.06123 0.0835 0.0
H2987 H 0.90291 0.0898 0.08953 0.0
H2988 H 0.91715 0.06638 0.08482 0.0
H2989 H 0.84797 0.09157 0.00459 0.0
H2990 H 0.86805 0.10309 0.98547 0.0
H2991 H 0.86702 0.11819 0.0148 0.0
C2992 C 0.38416 0.44585 0.05403 0.0
C2993 C 0.38267 0.42385 0.04189 0.0
C2994 C 0.40373 0.46302 0.05519 0.0
C2995 C 0.42216 0.45832 0.0435 0.0
C2996 C 0.42064 0.43622 0.03103 0.0
C2997 C 0.40111 0.41931 0.03056 0.0
C2998 C 0.40468 0.48618 0.06897 0.0
C2999 C 0.43974 0.4304 0.01816 0.0
C3000 C 0.46558 0.50631 0.02566 0.0
C3001 C 0.48442 0.50713 0.04281 0.0
C3002 C 0.44509 0.49093 0.026 0.0
C3003 C 0.44313 0.47629 0.04423 0.0
C3004 C 0.46185 0.47777 0.06219 0.0
C3005 C 0.48226 0.49298 0.06113 0.0
C3006 C 0.42582 0.48969 0.00621 0.0
C3007 C 0.46044 0.46304 0.08238 0.0
H3008 H 0.37011 0.44963 0.0629 0.0
H3009 H 0.40021 0.40249 0.02098 0.0
H3010 H 0.42014 0.49118 0.08238 0.0
H3011 H 0.40552 0.49912 0.05624 0.0
H3012 H 0.38978 0.48665 0.07866 0.0
H3013 H 0.43549 0.41289 0.00814 0.0
H3014 H 0.44417 0.44266 0.00514 0.0
H3015 H 0.45494 0.43184 0.03153 0.0
H3016 H 0.46716 0.51697 0.01126 0.0
H3017 H 0.49668 0.49359 0.07455 0.0
H3018 H 0.4106 0.49256 0.01427 0.0
H3019 H 0.42155 0.47243 0.99565 0.0
H3020 H 0.42986 0.50242 0.99355 0.0
H3021 H 0.44754 0.46724 0.09367 0.0
H3022 H 0.47677 0.46544 0.09426 0.0
H3023 H 0.45508 0.4448 0.0748 0.0
C3024 C 0.38999 0.57346 0.75944 0.0
C3025 C 0.41188 0.5757 0.77157 0.0
C3026 C 0.378 0.59113 0.76234 0.0
C3027 C 0.38805 0.61146 0.7779 0.0
C3028 C 0.41042 0.6141 0.7895 0.0
C3029 C 0.42209 0.59627 0.78609 0.0
C3030 C 0.35435 0.58779 0.74931 0.0
C3031 C 0.42171 0.63539 0.80645 0.0
C3032 C 0.36665 0.66683 0.77818 0.0
C3033 C 0.35637 0.6671 0.79936 0.0
C3034 C 0.37605 0.64825 0.77012 0.0
C3035 C 0.3749 0.62947 0.78351 0.0
C3036 C 0.3631 0.62909 0.804 0.0
C3037 C 0.35418 0.64803 0.81182 0.0
C3038 C 0.38844 0.64939 0.74822 0.0
C3039 C 0.36091 0.60918 0.81842 0.0
H3040 H 0.382 0.55766 0.74808 0.0
H3041 H 0.43892 0.59812 0.79564 0.0
H3042 H 0.3423 0.58893 0.76268 0.0
H3043 H 0.35321 0.60151 0.73781 0.0
H3044 H 0.34901 0.57107 0.73766 0.0
H3045 H 0.43967 0.63552 0.81269 0.0
H3046 H 0.4208 0.65074 0.7974 0.0
H3047 H 0.41272 0.63669 0.82261 0.0
H3048 H 0.36845 0.68171 0.7687 0.0
H3049 H 0.34616 0.6483 0.82821 0.0
H3050 H 0.38325 0.63322 0.73569 0.0
H3051 H 0.4068 0.65179 0.75412 0.0
H3052 H 0.38546 0.66368 0.73814 0.0
H3053 H 0.35364 0.59308 0.80626 0.0
H3054 H 0.3501 0.61092 0.83299 0.0
H3055 H 0.37783 0.60773 0.82684 0.0
C3056 C 0.19604 0.61907 0.52455 0.0
C3057 C 0.21161 0.61829 0.54452 0.0
C3058 C 0.17519 0.60407 0.5205 0.0
C3059 C 0.1698 0.58874 0.53742 0.0
C3060 C 0.18578 0.58739 0.55722 0.0
C3061 C 0.2068 0.60209 0.56035 0.0
C3062 C 0.15846 0.60553 0.499 0.0
C3063 C 0.18015 0.57151 0.57585 0.0
C3064 C 0.10917 0.57885 0.5468 0.0
C3065 C 0.10135 0.55676 0.53494 0.0
C3066 C 0.1317 0.58919 0.5482 0.0
C3067 C 0.14635 0.57723 0.53676 0.0
C3068 C 0.13843 0.55489 0.52452 0.0
C3069 C 0.11579 0.54466 0.52407 0.0
C3070 C 0.13984 0.61277 0.56219 0.0
C3071 C 0.1537 0.54203 0.51177 0.0
H3072 H 0.2002 0.63141 0.51215 0.0
H3073 H 0.21913 0.60161 0.57571 0.0
H3074 H 0.15036 0.58825 0.48972 0.0
H3075 H 0.14495 0.61372 0.50536 0.0
H3076 H 0.16651 0.61564 0.48564 0.0
H3077 H 0.19496 0.57168 0.58938 0.0
H3078 H 0.16661 0.57657 0.58563 0.0
H3079 H 0.17367 0.55382 0.56682 0.0
H3080 H 0.09777 0.58774 0.5557 0.0
H3081 H 0.10933 0.5274 0.51515 0.0
H3082 H 0.1466 0.62491 0.54994 0.0
H3083 H 0.15372 0.6126 0.57671 0.0
H3084 H 0.12622 0.61921 0.57068 0.0
H3085 H 0.15929 0.55083 0.49639 0.0
H3086 H 0.14519 0.5242 0.50465 0.0
H3087 H 0.16904 0.54176 0.52427 0.0
C3088 C 0.74091 1.00541 0.74758 0.0
C3089 C 0.71763 1.00238 0.74117 0.0
C3090 C 0.75017 0.98765 0.75568 0.0
C3091 C 0.73574 0.96649 0.75671 0.0
C3092 C 0.71279 0.96247 0.74694 0.0
C3093 C 0.70398 0.98056 0.73903 0.0
C3094 C 0.77484 0.99236 0.76584 0.0
C3095 C 0.69698 0.94006 0.7476 0.0
C3096 C 0.76656 0.92157 0.77574 0.0
C3097 C 0.76617 0.9244 0.80096 0.0
C3098 C 0.75527 0.93404 0.76073 0.0
C3099 C 0.74403 0.95017 0.77133 0.0
C3100 C 0.74266 0.95239 0.79658 0.0
C3101 C 0.75361 0.93927 0.81107 0.0
C3102 C 0.75627 0.93074 0.73374 0.0
C3103 C 0.73078 0.96953 0.80855 0.0
H3104 H 0.75147 0.02226 0.74905 0.0
H3105 H 0.68597 0.97819 0.73368 0.0
H3106 H 0.77656 0.99177 0.78572 0.0
H3107 H 0.78311 0.97909 0.75767 0.0
H3108 H 0.78394 1.00931 0.76251 0.0
H3109 H 0.68094 0.9383 0.73537 0.0
H3110 H 0.70496 0.92551 0.7424 0.0
H3111 H 0.69288 0.93897 0.76635 0.0
H3112 H 0.77635 0.91022 0.76775 0.0
H3113 H 0.75275 0.94103 0.83043 0.0
H3114 H 0.76751 0.94574 0.72866 0.0
H3115 H 0.73932 0.92939 0.7235 0.0
H3116 H 0.76272 0.91526 0.72799 0.0
H3117 H 0.74039 0.98701 0.80797 0.0
H3118 H 0.72921 0.96733 0.82781 0.0
H3119 H 0.71368 0.96813 0.7987 0.0
C3120 C 0.74701 0.92582 0.56427 0.0
C3121 C 0.75829 0.92273 0.54404 0.0
C3122 C 0.72907 0.93752 0.56339 0.0
C3123 C 0.7225 0.94633 0.54182 0.0
C3124 C 0.7342 0.94341 0.5215 0.0
C3125 C 0.75193 0.93162 0.52289 0.0
C3126 C 0.717 0.94024 0.58535 0.0
C3127 C 0.728 0.95275 0.49824 0.0
C3128 C 0.6645 0.95679 0.52172 0.0
C3129 C 0.66867 0.98061 0.52426 0.0
C3130 C 0.68138 0.94528 0.52947 0.0
C3131 C 0.70299 0.95797 0.53975 0.0
C3132 C 0.70659 0.98206 0.54424 0.0
C3133 C 0.68932 0.99313 0.53638 0.0
C3134 C 0.67676 0.91962 0.5244 0.0
C3135 C 0.72927 0.99623 0.55533 0.0
H3136 H 0.75221 0.91909 0.5807 0.0
H3137 H 0.76096 0.92943 0.50742 0.0
H3138 H 0.71633 0.95838 0.59028 0.0
H3139 H 0.69935 0.93057 0.58108 0.0
H3140 H 0.72526 0.93403 0.6013 0.0
H3141 H 0.73879 0.94903 0.48416 0.0
H3142 H 0.71016 0.94534 0.49084 0.0
H3143 H 0.72965 0.97148 0.5019 0.0
H3144 H 0.64858 0.94719 0.51199 0.0
H3145 H 0.69257 0.01157 0.53797 0.0
H3146 H 0.68338 0.91226 0.54034 0.0
H3147 H 0.68551 0.91445 0.50898 0.0
H3148 H 0.65846 0.91221 0.51968 0.0
H3149 H 0.73532 0.98988 0.57221 0.0
H3150 H 0.72874 0.01452 0.55959 0.0
H3151 H 0.74177 0.99472 0.54253 0.0
C3152 C 0.40582 0.44169 0.79585 0.0
C3153 C 0.40883 0.45256 0.77516 0.0
C3154 C 0.38823 0.4227 0.79549 0.0
C3155 C 0.37366 0.41373 0.77365 0.0
C3156 C 0.37642 0.4249 0.75275 0.0
C3157 C 0.39372 0.4444 0.75388 0.0
C3158 C 0.38561 0.41185 0.8184 0.0
C3159 C 0.36137 0.41599 0.72909 0.0
C3160 C 0.3484 0.35004 0.76623 0.0
C3161 C 0.32705 0.34932 0.77384 0.0
C3162 C 0.36351 0.37076 0.766 0.0
C3163 C 0.35691 0.39166 0.77232 0.0
C3164 C 0.33495 0.39119 0.77871 0.0
C3165 C 0.32061 0.37013 0.78011 0.0
C3166 C 0.38689 0.37023 0.75973 0.0
C3167 C 0.32676 0.41293 0.78478 0.0
H3168 H 0.4172 0.44821 0.81246 0.0
H3169 H 0.3959 0.45284 0.73788 0.0
H3170 H 0.36795 0.40987 0.82234 0.0
H3171 H 0.38945 0.39456 0.81589 0.0
H3172 H 0.39691 0.422 0.83435 0.0
H3173 H 0.36569 0.4265 0.71447 0.0
H3174 H 0.36276 0.39823 0.72307 0.0
H3175 H 0.34353 0.41562 0.73166 0.0
H3176 H 0.35382 0.33432 0.76128 0.0
H3177 H 0.30453 0.37012 0.78651 0.0
H3178 H 0.39962 0.37883 0.7753 0.0
H3179 H 0.3901 0.37968 0.74408 0.0
H3180 H 0.38945 0.3526 0.75517 0.0
H3181 H 0.33476 0.42117 0.80316 0.0
H3182 H 0.30817 0.40972 0.78452 0.0
H3183 H 0.33153 0.42511 0.77178 0.0
C3184 C 0.20482 0.64339 0.28449 0.0
C3185 C 0.2123 0.623 0.27985 0.0
C3186 C 0.21931 0.66431 0.28455 0.0
C3187 C 0.24173 0.66466 0.28009 0.0
C3188 C 0.24959 0.64425 0.27589 0.0
C3189 C 0.23473 0.62356 0.27586 0.0
C3190 C 0.21043 0.68598 0.28864 0.0
C3191 C 0.27351 0.6443 0.27109 0.0
C3192 C 0.26817 0.71829 0.25742 0.0
C3193 C 0.2789 0.73113 0.27921 0.0
C3194 C 0.25693 0.6959 0.25716 0.0
C3195 C 0.2567 0.68656 0.27929 0.0
C3196 C 0.2688 0.69917 0.30111 0.0
C3197 C 0.27984 0.7216 0.30079 0.0
C3198 C 0.24416 0.68288 0.23357 0.0
C3199 C 0.26893 0.6895 0.32492 0.0
H3200 H 0.18747 0.64305 0.28735 0.0
H3201 H 0.24061 0.60782 0.2723 0.0
H3202 H 0.22098 0.69767 0.30407 0.0
H3203 H 0.21137 0.69494 0.27233 0.0
H3204 H 0.19268 0.68271 0.29246 0.0
H3205 H 0.27666 0.62682 0.26719 0.0
H3206 H 0.27732 0.6536 0.25546 0.0
H3207 H 0.28545 0.6534 0.28708 0.0
H3208 H 0.26775 0.72613 0.24083 0.0
H3209 H 0.28869 0.73181 0.3174 0.0
H3210 H 0.22578 0.68038 0.2345 0.0
H3211 H 0.24829 0.66577 0.23048 0.0
H3212 H 0.24794 0.69197 0.21775 0.0
H3213 H 0.25196 0.68782 0.3308 0.0
H3214 H 0.28136 0.70049 0.33947 0.0
H3215 H 0.27285 0.67223 0.32278 0.0
C3216 C 0.53648 0.71354 0.48987 0.0
C3217 C 0.51479 0.7157 0.47978 0.0
C3218 C 0.54112 0.69255 0.49723 0.0
C3219 C 0.52399 0.67224 0.49407 0.0
C3220 C 0.50219 0.67429 0.48341 0.0
C3221 C 0.49786 0.69564 0.47698 0.0
C3222 C 0.56456 0.69224 0.50875 0.0
C3223 C 0.48308 0.65379 0.47904 0.0
C3224 C 0.53784 0.61074 0.49239 0.0
C3225 C 0.53516 0.60474 0.51584 0.0
C3226 C 0.53515 0.63245 0.48553 0.0
C3227 C 0.52859 0.64912 0.50191 0.0
C3228 C 0.52586 0.64309 0.52564 0.0
C3229 C 0.52959 0.6216 0.53235 0.0
C3230 C 0.53936 0.63755 0.46043 0.0
C3231 C 0.51872 0.65938 0.54415 0.0
H3232 H 0.54987 0.72859 0.49276 0.0
H3233 H 0.48094 0.69659 0.46956 0.0
H3234 H 0.5639 0.68582 0.52658 0.0
H3235 H 0.57207 0.68042 0.49713 0.0
H3236 H 0.57578 0.70938 0.51148 0.0
H3237 H 0.46767 0.65725 0.46889 0.0
H3238 H 0.48815 0.63927 0.46868 0.0
H3239 H 0.47898 0.64846 0.4967 0.0
H3240 H 0.54241 0.5984 0.47928 0.0
H3241 H 0.52741 0.6177 0.55052 0.0
H3242 H 0.55211 0.65358 0.46164 0.0
H3243 H 0.52362 0.64016 0.45021 0.0
H3244 H 0.5454 0.62365 0.45006 0.0
H3245 H 0.53235 0.67474 0.54936 0.0
H3246 H 0.51494 0.65164 0.56078 0.0
H3247 H 0.50354 0.66507 0.5363 0.0
C3248 C 0.66415 0.3165 0.65057 0.0
C3249 C 0.64131 0.3102 0.65395 0.0
C3250 C 0.68209 0.3142 0.66803 0.0
C3251 C 0.67762 0.30478 0.68968 0.0
C3252 C 0.65459 0.29854 0.69337 0.0
C3253 C 0.63692 0.30151 0.67578 0.0
C3254 C 0.70603 0.32162 0.66305 0.0
C3255 C 0.64853 0.28838 0.71586 0.0
C3256 C 0.72466 0.27806 0.72092 0.0
C3257 C 0.73572 0.29524 0.7397 0.0
C3258 C 0.70565 0.28069 0.7051 0.0
C3259 C 0.69701 0.30105 0.70786 0.0
C3260 C 0.70782 0.31818 0.72735 0.0
C3261 C 0.72689 0.31512 0.74283 0.0
C3262 C 0.69492 0.26165 0.68514 0.0
C3263 C 0.69965 0.34016 0.73155 0.0
H3264 H 0.66812 0.32325 0.63401 0.0
H3265 H 0.61955 0.29632 0.67885 0.0
H3266 H 0.71601 0.33357 0.67864 0.0
H3267 H 0.71403 0.30661 0.66091 0.0
H3268 H 0.70699 0.33009 0.6464 0.0
H3269 H 0.63003 0.28286 0.71547 0.0
H3270 H 0.6565 0.2735 0.71794 0.0
H3271 H 0.65514 0.30111 0.73212 0.0
H3272 H 0.73105 0.26251 0.71841 0.0
H3273 H 0.7351 0.3285 0.75731 0.0
H3274 H 0.69645 0.26768 0.66723 0.0
H3275 H 0.67667 0.25639 0.68642 0.0
H3276 H 0.7028 0.24654 0.68589 0.0
H3277 H 0.70376 0.35048 0.71675 0.0
H3278 H 0.70755 0.35037 0.74917 0.0
H3279 H 0.68108 0.33676 0.73117 0.0
C3280 C 0.03804 0.36038 0.97422 0.0
C3281 C 0.01799 0.34427 0.97445 0.0
C3282 C 0.04045 0.38398 0.9829 0.0
C3283 C 0.02211 0.39264 0.99137 0.0
C3284 C 1.00174 0.37641 0.99156 0.0
C3285 C 1.00006 0.35269 0.98354 0.0
C3286 C 0.0629 0.39972 0.98306 0.0
C3287 C 0.98118 0.38424 0.99912 0.0
C3288 C 0.03137 0.45284 0.03001 0.0
C3289 C 0.02947 0.46771 0.0124 0.0
C3290 C 0.02938 0.42882 0.0236 0.0
C3291 C 0.02402 0.41856 0.99888 0.0
C3292 C 0.0213 0.4335 0.98118 0.0
C3293 C 0.02494 0.45755 0.98798 0.0
C3294 C 0.03396 0.41452 0.04337 0.0
C3295 C 0.01464 0.42418 0.95471 0.0
H3296 H 0.05208 0.35444 0.9672 0.0
H3297 H 0.98428 0.34082 0.98346 0.0
H3298 H 0.06105 0.41288 0.97103 0.0
H3299 H 0.06902 0.40873 1.00166 0.0
H3300 H 0.07584 0.3905 0.97698 0.0
H3301 H 0.96714 0.36974 1.0 0.0
H3302 H 0.98529 0.39486 0.01709 0.0
H3303 H 0.97537 0.39504 0.98589 0.0
H3304 H 0.03537 0.46014 0.04892 0.0
H3305 H 0.02421 0.46837 0.97387 0.0
H3306 H 0.04833 0.40636 0.03977 0.0
H3307 H 0.01916 0.40065 0.04347 0.0
H3308 H 0.03801 0.42473 0.06162 0.0
H3309 H 0.02947 0.41982 0.94691 0.0
H3310 H 1.00827 0.43673 0.94411 0.0
H3311 H 1.0014 0.4084 0.95246 0.0
C3312 C 0.99383 0.79824 0.13647 0.0
C3313 C 0.01466 0.79588 0.14826 0.0
C3314 C 0.97425 0.79508 0.14816 0.0
C3315 C 0.97547 0.7894 0.17218 0.0
C3316 C 0.99648 0.78707 0.1841 0.0
C3317 C 0.01569 0.79033 0.17206 0.0
C3318 C 0.95229 0.79797 0.13488 0.0
C3319 C 0.99868 0.7809 0.20961 0.0
C3320 C 0.93314 0.79766 0.21621 0.0
C3321 C 0.92198 0.77515 0.21649 0.0
C3322 C 0.94961 0.80286 0.20068 0.0
C3323 C 0.95493 0.78512 0.18495 0.0
C3324 C 0.94244 0.76259 0.184 0.0
C3325 C 0.92628 0.75786 0.19991 0.0
C3326 C 0.96247 0.82708 0.20245 0.0
C3327 C 0.94713 0.74322 0.16721 0.0
H3328 H 0.99286 0.80272 0.11818 0.0
H3329 H 0.03163 0.78849 0.18141 0.0
H3330 H 0.93911 0.7824 0.13438 0.0
H3331 H 0.94641 0.81225 0.1447 0.0
H3332 H 0.95387 0.80151 0.11598 0.0
H3333 H 0.01633 0.78054 0.21669 0.0
H3334 H 0.99259 0.79331 0.22203 0.0
H3335 H 0.98803 0.76387 0.21002 0.0
H3336 H 0.93002 0.81099 0.22924 0.0
H3337 H 0.91768 0.74043 0.20019 0.0
H3338 H 0.96375 0.83221 0.18411 0.0
H3339 H 0.97988 0.82839 0.21149 0.0
H3340 H 0.95446 0.83926 0.21304 0.0
H3341 H 0.94539 0.74708 0.14822 0.0
H3342 H 0.93556 0.7268 0.16814 0.0
H3343 H 0.96472 0.74119 0.17192 0.0
C3344 C 0.53989 0.31455 0.14657 0.0
C3345 C 0.53494 0.31675 0.17057 0.0
C3346 C 0.54244 0.33317 0.13325 0.0
C3347 C 0.54004 0.35479 0.14404 0.0
C3348 C 0.53467 0.3571 0.16814 0.0
C3349 C 0.53225 0.33809 0.18114 0.0
C3350 C 0.54792 0.32971 0.10759 0.0
C3351 C 0.53125 0.37959 0.18009 0.0
C3352 C 0.5724 0.40341 0.11556 0.0
C3353 C 0.55577 0.40776 0.09834 0.0
C3354 C 0.56714 0.38738 0.13168 0.0
C3355 C 0.54472 0.37503 0.13043 0.0
C3356 C 0.52759 0.38041 0.11405 0.0
C3357 C 0.53332 0.39674 0.09823 0.0
C3358 C 0.58591 0.38262 0.14905 0.0
C3359 C 0.50343 0.36783 0.11186 0.0
H3360 H 0.54176 0.29812 0.13806 0.0
H3361 H 0.52801 0.3399 0.19947 0.0
H3362 H 0.5352 0.33508 0.09496 0.0
H3363 H 0.56456 0.34048 0.10629 0.0
H3364 H 0.54837 0.31169 0.10147 0.0
H3365 H 0.5278 0.37885 0.19912 0.0
H3366 H 0.54639 0.39309 0.17997 0.0
H3367 H 0.51688 0.38466 0.16966 0.0
H3368 H 0.58978 0.4119 0.11569 0.0
H3369 H 0.52044 0.39986 0.08479 0.0
H3370 H 0.58874 0.36525 0.14359 0.0
H3371 H 0.5812 0.38311 0.16769 0.0
H3372 H 0.60198 0.39503 0.14944 0.0
H3373 H 0.50132 0.35149 0.09984 0.0
H3374 H 0.49164 0.3778 0.1038 0.0
H3375 H 0.49868 0.36385 0.12975 0.0
C3376 C 0.97665 0.30446 0.32734 0.0
C3377 C 0.98547 0.32178 0.34696 0.0
C3378 C 0.95324 0.29965 0.31728 0.0
C3379 C 0.93778 0.31231 0.32678 0.0
C3380 C 0.9469 0.33026 0.34591 0.0
C3381 C 0.9701 0.33464 0.35552 0.0
C3382 C 0.94492 0.28061 0.29669 0.0
C3383 C 0.93185 0.34451 0.35704 0.0
C3384 C 0.87888 0.31446 0.29246 0.0
C3385 C 0.86337 0.29981 0.30365 0.0
C3386 C 0.90272 0.3181 0.29912 0.0
C3387 C 0.91215 0.30682 0.31759 0.0
C3388 C 0.89662 0.29155 0.32856 0.0
C3389 C 0.87284 0.28822 0.32151 0.0
C3390 C 0.91791 0.33435 0.28638 0.0
C3391 C 0.90513 0.27859 0.34797 0.0
H3392 H 0.98776 0.29398 0.3205 0.0
H3393 H 0.97618 0.34807 0.3706 0.0
H3394 H 0.93085 0.26808 0.3016 0.0
H3395 H 0.93822 0.28756 0.28047 0.0
H3396 H 0.95843 0.27163 0.29181 0.0
H3397 H 0.94139 0.35839 0.37115 0.0
H3398 H 0.92286 0.3522 0.3428 0.0
H3399 H 0.91889 0.33352 0.36542 0.0
H3400 H 0.87244 0.32287 0.278 0.0
H3401 H 0.86158 0.27661 0.33036 0.0
H3402 H 0.93154 0.32635 0.28001 0.0
H3403 H 0.92603 0.34974 0.29928 0.0
H3404 H 0.90859 0.33972 0.27058 0.0
H3405 H 0.91497 0.26663 0.34006 0.0
H3406 H 0.8912 0.26869 0.35611 0.0
H3407 H 0.9166 0.29049 0.3626 0.0
C3408 C 1.00727 0.68611 0.63895 0.0
C3409 C 0.0254 0.69629 0.65696 0.0
C3410 C 1.00737 0.66559 0.62383 0.0
C3411 C 0.02619 0.65482 0.6263 0.0
C3412 C 0.04422 0.6647 0.64498 0.0
C3413 C 0.04362 0.68513 0.65982 0.0
C3414 C 0.9878 0.6561 0.60425 0.0
C3415 C 0.06495 0.65454 0.64832 0.0
C3416 C 0.02135 0.59245 0.59709 0.0
C3417 C 0.03139 0.595 0.57572 0.0
C3418 C 0.01954 0.61153 0.61351 0.0
C3419 C 0.02765 0.63409 0.60866 0.0
C3420 C 0.03778 0.63677 0.58713 0.0
C3421 C 0.03973 0.61743 0.57129 0.0
C3422 C 1.00919 0.6075 0.63635 0.0
C3423 C 0.04672 0.6602 0.58076 0.0
H3424 H 0.99359 0.69498 0.63563 0.0
H3425 H 0.05824 0.69327 0.67277 0.0
H3426 H 0.99362 0.65671 0.58616 0.0
H3427 H 0.98098 0.63796 0.60578 0.0
H3428 H 0.97401 0.66569 0.60517 0.0
H3429 H 0.07622 0.66239 0.66528 0.0
H3430 H 0.06019 0.6359 0.64866 0.0
H3431 H 0.07456 0.65721 0.63275 0.0
H3432 H 0.01504 0.57543 0.60119 0.0
H3433 H 0.04844 0.62002 0.55568 0.0
H3434 H 0.99452 0.61586 0.63704 0.0
H3435 H 0.02162 0.6153 0.65246 0.0
H3436 H 1.00356 0.58908 0.63765 0.0
H3437 H 0.03263 0.66925 0.57774 0.0
H3438 H 0.05518 0.65957 0.56415 0.0
H3439 H 0.05888 0.67042 0.59598 0.0
C3440 C 0.61918 0.79793 0.82344 0.0
C3441 C 0.61861 0.8176 0.83946 0.0
C3442 C 0.63971 0.79324 0.81545 0.0
C3443 C 0.66083 0.80886 0.8225 0.0
C3444 C 0.66014 0.82907 0.83806 0.0
C3445 C 0.6396 0.83282 0.84664 0.0
C3446 C 0.63883 0.77101 0.7999 0.0
C3447 C 0.6812 0.84727 0.84525 0.0
C3448 C 0.72026 0.79197 0.82223 0.0
C3449 C 0.72688 0.79656 0.7995 0.0
C3450 C 0.69897 0.79498 0.82932 0.0
C3451 C 0.68346 0.8041 0.81412 0.0
C3452 C 0.69018 0.80897 0.79114 0.0
C3453 C 0.71112 0.80464 0.78401 0.0
C3454 C 0.69296 0.788 0.85327 0.0
C3455 C 0.67534 0.81903 0.77381 0.0
H3456 H 0.60355 0.78565 0.8177 0.0
H3457 H 0.63993 0.84818 0.85878 0.0
H3458 H 0.64497 0.77426 0.7824 0.0
H3459 H 0.65019 0.76127 0.80912 0.0
H3460 H 0.62154 0.76035 0.7961 0.0
H3461 H 0.67824 0.86217 0.85701 0.0
H3462 H 0.69459 0.84026 0.85503 0.0
H3463 H 0.68763 0.85315 0.8287 0.0
H3464 H 0.73165 0.78548 0.83453 0.0
H3465 H 0.71549 0.80839 0.76639 0.0
H3466 H 0.67605 0.7766 0.85058 0.0
H3467 H 0.69214 0.80324 0.86586 0.0
H3468 H 0.70538 0.77907 0.86199 0.0
H3469 H 0.66209 0.80518 0.76332 0.0
H3470 H 0.68509 0.82788 0.76069 0.0
H3471 H 0.66692 0.83128 0.78364 0.0
C3472 C 0.46229 0.53287 0.69345 0.0
C3473 C 0.47602 0.52532 0.71143 0.0
C3474 C 0.46971 0.53724 0.67087 0.0
C3475 C 0.4915 0.53434 0.66611 0.0
C3476 C 0.50571 0.52771 0.68462 0.0
C3477 C 0.49779 0.52312 0.70671 0.0
C3478 C 0.45395 0.5443 0.6518 0.0
C3479 C 0.52943 0.52541 0.68113 0.0
C3480 C 0.50726 0.51855 0.60297 0.0
C3481 C 0.51582 0.53972 0.59577 0.0
C3482 C 0.49756 0.51686 0.62463 0.0
C3483 C 0.4991 0.53665 0.64144 0.0
C3484 C 0.50947 0.55805 0.63515 0.0
C3485 C 0.51671 0.55941 0.61201 0.0
C3486 C 0.48574 0.49377 0.62956 0.0
C3487 C 0.51357 0.57949 0.65299 0.0
H3488 H 0.44554 0.53484 0.69675 0.0
H3489 H 0.50888 0.51775 0.72042 0.0
H3490 H 0.46215 0.56045 0.64587 0.0
H3491 H 0.45003 0.53115 0.63561 0.0
H3492 H 0.43792 0.54668 0.65843 0.0
H3493 H 0.53884 0.52141 0.69773 0.0
H3494 H 0.52908 0.51169 0.66612 0.0
H3495 H 0.5388 0.54147 0.67599 0.0
H3496 H 0.50808 0.50313 0.5916 0.0
H3497 H 0.52406 0.57584 0.60708 0.0
H3498 H 0.46864 0.49464 0.63418 0.0
H3499 H 0.49513 0.48847 0.64534 0.0
H3500 H 0.48409 0.48047 0.61373 0.0
H3501 H 0.49777 0.58601 0.65318 0.0
H3502 H 0.52673 0.59305 0.64806 0.0
H3503 H 0.5189 0.57613 0.67166 0.0
C3504 C 0.78743 0.15591 0.97784 0.0
C3505 C 0.77593 0.15989 0.99764 0.0
C3506 C 0.78438 0.16726 0.9575 0.0
C3507 C 0.76925 0.18239 0.95726 0.0
C3508 C 0.7568 0.1854 0.9768 0.0
C3509 C 0.76045 0.17419 0.99678 0.0
C3510 C 0.79822 0.16405 0.93712 0.0
C3511 C 0.74018 0.20113 0.97712 0.0
C3512 C 0.76953 0.23381 0.92568 0.0
C3513 C 0.7506 0.22584 0.9083 0.0
C3514 C 0.77775 0.21889 0.94012 0.0
C3515 C 0.76631 0.19583 0.93722 0.0
C3516 C 0.7482 0.1875 0.91845 0.0
C3517 C 0.7406 0.20271 0.90402 0.0
C3518 C 0.79749 0.22811 0.95968 0.0
C3519 C 0.7356 0.16304 0.91503 0.0
H3520 H 0.79957 0.14492 0.97879 0.0
H3521 H 0.75135 0.17705 0.01191 0.0
H3522 H 0.78819 0.1634 0.91919 0.0
H3523 H 0.81263 0.17876 0.93908 0.0
H3524 H 0.80506 0.14826 0.93745 0.0
H3525 H 0.73088 0.20027 0.99313 0.0
H3526 H 0.74922 0.21898 0.9775 0.0
H3527 H 0.72772 0.19676 0.96048 0.0
H3528 H 0.77765 0.25168 0.92813 0.0
H3529 H 0.72639 0.19671 0.88989 0.0
H3530 H 0.80894 0.2159 0.96097 0.0
H3531 H 0.79122 0.23056 0.97749 0.0
H3532 H 0.80726 0.24475 0.95633 0.0
H3533 H 0.74753 0.15129 0.9158 0.0
H3534 H 0.72428 0.15853 0.89751 0.0
H3535 H 0.72521 0.16032 0.92998 0.0
C3536 C 0.12324 0.54174 0.19093 0.0
C3537 C 0.1461 0.5516 0.1966 0.0
C3538 C 0.11272 0.53934 0.16728 0.0
C3539 C 0.12556 0.5472 0.14916 0.0
C3540 C 0.14896 0.55596 0.15444 0.0
C3541 C 0.15913 0.55797 0.17839 0.0
C3542 C 0.08766 0.52953 0.16204 0.0
C3543 C 0.16283 0.56445 0.13524 0.0
C3544 C 0.09118 0.52656 0.08933 0.0
C3545 C 0.07917 0.544 0.08776 0.0
C3546 C 0.10848 0.52837 0.10823 0.0
C3547 C 0.11357 0.54812 0.12545 0.0
C3548 C 0.10274 0.5666 0.1226 0.0
C3549 C 0.08512 0.56407 0.10391 0.0
C3550 C 0.11962 0.50833 0.11109 0.0
C3551 C 0.10818 0.58806 0.14058 0.0
H3552 H 0.11346 0.53636 0.20514 0.0
H3553 H 0.17692 0.56549 0.18304 0.0
H3554 H 0.07859 0.54279 0.15636 0.0
H3555 H 0.08411 0.51531 0.14692 0.0
H3556 H 0.08063 0.52309 0.17808 0.0
H3557 H 0.1812 0.56688 0.14128 0.0
H3558 H 0.15844 0.55249 0.11813 0.0
H3559 H 0.15912 0.58105 0.1311 0.0
H3560 H 0.0863 0.51107 0.07654 0.0
H3561 H 0.07582 0.57758 0.10205 0.0
H3562 H 0.11283 0.4992 0.12576 0.0
H3563 H 0.13806 0.51412 0.11639 0.0
H3564 H 0.11652 0.4961 0.09415 0.0
H3565 H 0.10044 0.58466 0.15723 0.0
H3566 H 0.10157 0.60221 0.13313 0.0
H3567 H 0.12664 0.59363 0.14589 0.0
C3568 C 0.81414 0.84471 0.47232 0.0
C3569 C 0.80937 0.8666 0.47642 0.0
C3570 C 0.81278 0.83332 0.44851 0.0
C3571 C 0.80631 0.84385 0.42805 0.0
C3572 C 0.80133 0.86589 0.43216 0.0
C3573 C 0.80306 0.87696 0.4561 0.0
C3574 C 0.81834 0.80996 0.44525 0.0
C3575 C 0.7938 0.8777 0.4112 0.0
C3576 C 0.82135 0.82469 0.36495 0.0
C3577 C 0.801 0.81089 0.3532 0.0
C3578 C 0.8234 0.83515 0.38922 0.0
C3579 C 0.80464 0.83194 0.4024 0.0
C3580 C 0.78406 0.81792 0.39068 0.0
C3581 C 0.78252 0.80765 0.36642 0.0
C3582 C 0.84563 0.85 0.40066 0.0
C3583 C 0.76357 0.8137 0.40377 0.0
H3584 H 0.81899 0.83646 0.48777 0.0
H3585 H 0.79907 0.89373 0.45888 0.0
H3586 H 0.80406 0.79765 0.43418 0.0
H3587 H 0.83316 0.81045 0.43527 0.0
H3588 H 0.82215 0.80362 0.46285 0.0
H3589 H 0.79114 0.89502 0.41725 0.0
H3590 H 0.8065 0.87909 0.39837 0.0
H3591 H 0.77778 0.86745 0.40105 0.0
H3592 H 0.83566 0.8277 0.35502 0.0
H3593 H 0.76665 0.79704 0.35778 0.0
H3594 H 0.8516 0.84384 0.41771 0.0
H3595 H 0.84343 0.8677 0.40551 0.0
H3596 H 0.85883 0.85029 0.38841 0.0
H3597 H 0.76688 0.80388 0.41897 0.0
H3598 H 0.74835 0.80404 0.39161 0.0
H3599 H 0.75997 0.83007 0.4117 0.0
C3600 C 0.45578 0.50916 0.85543 0.0
C3601 C 0.46582 0.52236 0.83883 0.0
C3602 C 0.46677 0.50986 0.87924 0.0
C3603 C 0.48785 0.52496 0.88715 0.0
C3604 C 0.49785 0.53854 0.87041 0.0
C3605 C 0.48701 0.53666 0.84641 0.0
C3606 C 0.45574 0.49448 0.89598 0.0
C3607 C 0.51986 0.55541 0.87795 0.0
C3608 C 0.50228 0.54453 0.95561 0.0
C3609 C 0.51872 0.53219 0.96286 0.0
C3610 C 0.4925 0.54257 0.93122 0.0
C3611 C 0.49878 0.52748 0.91321 0.0
C3612 C 0.51553 0.51511 0.92024 0.0
C3613 C 0.52547 0.51786 0.94478 0.0
C3614 C 0.47553 0.55691 0.9247 0.0
C3615 C 0.52256 0.49844 0.90199 0.0
H3616 H 0.43949 0.49796 0.84966 0.0
H3617 H 0.49481 0.54703 0.83372 0.0
H3618 H 0.4679 0.48489 0.90399 0.0
H3619 H 0.45061 0.50486 0.91118 0.0
H3620 H 0.44061 0.48214 0.88649 0.0
H3621 H 0.52437 0.56617 0.86359 0.0
H3622 H 0.51891 0.56669 0.89469 0.0
H3623 H 0.53361 0.54619 0.88215 0.0
H3624 H 0.49696 0.55592 0.96907 0.0
H3625 H 0.5385 0.50868 0.94972 0.0
H3626 H 0.45926 0.54585 0.9163 0.0
H3627 H 0.48161 0.56796 0.91114 0.0
H3628 H 0.47244 0.56785 0.94073 0.0
H3629 H 0.50856 0.48339 0.89669 0.0
H3630 H 0.53778 0.49253 0.90939 0.0
H3631 H 0.52601 0.50611 0.88529 0.0
C3632 C 0.8016 0.20127 0.12824 0.0
C3633 C 0.78684 0.18022 0.12227 0.0
C3634 C 0.80278 0.21375 0.15079 0.0
C3635 C 0.78913 0.20442 0.16757 0.0
C3636 C 0.77599 0.18209 0.16257 0.0
C3637 C 0.77492 0.17004 0.13957 0.0
C3638 C 0.81687 0.2377 0.15563 0.0
C3639 C 0.76158 0.17188 0.18056 0.0
C3640 C 0.80483 0.24056 0.22724 0.0
C3641 C 0.78906 0.25459 0.22573 0.0
C3642 C 0.80357 0.22241 0.20936 0.0
C3643 C 0.78699 0.2193 0.18904 0.0
C3644 C 0.7709 0.23337 0.18743 0.0
C3645 C 0.77211 0.25099 0.20606 0.0
C3646 C 0.8207 0.2074 0.21157 0.0
C3647 C 0.7534 0.2308 0.16546 0.0
H3648 H 0.81082 0.20872 0.11453 0.0
H3649 H 0.76343 0.1537 0.13451 0.0
H3650 H 0.8058 0.25016 0.15812 0.0
H3651 H 0.82876 0.23983 0.17257 0.0
H3652 H 0.82672 0.24201 0.14057 0.0
H3653 H 0.75566 0.15319 0.17569 0.0
H3654 H 0.77101 0.1754 0.19915 0.0
H3655 H 0.74659 0.17978 0.18097 0.0
H3656 H 0.8184 0.24397 0.24219 0.0
H3657 H 0.76001 0.26203 0.20519 0.0
H3658 H 0.8331 0.21139 0.19874 0.0
H3659 H 0.81235 0.18919 0.20675 0.0
H3660 H 0.82999 0.20984 0.23021 0.0
H3661 H 0.7618 0.23633 0.14983 0.0
H3662 H 0.74051 0.24119 0.16857 0.0
H3663 H 0.74476 0.21272 0.16035 0.0
C3664 C 0.15203 0.52927 0.3191 0.0
C3665 C 0.17128 0.54565 0.3179 0.0
C3666 C 0.13855 0.53222 0.33729 0.0
C3667 C 0.14445 0.55232 0.35404 0.0
C3668 C 0.16494 0.56803 0.35398 0.0
C3669 C 0.17834 0.56437 0.33579 0.0
C3670 C 0.11704 0.51494 0.33709 0.0
C3671 C 0.17162 0.58968 0.37168 0.0
C3672 C 0.09927 0.58011 0.37706 0.0
C3673 C 0.10206 0.57707 0.40159 0.0
C3674 C 0.11238 0.57122 0.36098 0.0
C3675 C 0.12809 0.55847 0.36963 0.0
C3676 C 0.12969 0.55371 0.39379 0.0
C3677 C 0.11702 0.56351 0.40968 0.0
C3678 C 0.11038 0.57666 0.33517 0.0
C3679 C 0.14561 0.53929 0.40316 0.0
H3680 H 0.1467 0.51496 0.30481 0.0
H3681 H 0.19309 0.57714 0.33424 0.0
H3682 H 0.11419 0.51179 0.3558 0.0
H3683 H 0.10254 0.52159 0.32907 0.0
H3684 H 0.11725 0.49849 0.32616 0.0
H3685 H 0.1883 0.59985 0.36943 0.0
H3686 H 0.15881 0.60035 0.3691 0.0
H3687 H 0.17221 0.58559 0.39058 0.0
H3688 H 0.08733 0.59002 0.37057 0.0
H3689 H 0.11964 0.56124 0.42866 0.0
H3690 H 0.10794 0.5609 0.32216 0.0
H3691 H 0.12623 0.58796 0.33224 0.0
H3692 H 0.09617 0.58531 0.33091 0.0
H3693 H 0.14408 0.52354 0.39031 0.0
H3694 H 0.14237 0.53443 0.42126 0.0
H3695 H 0.16324 0.54887 0.40468 0.0
C3696 C 0.828 0.86199 0.62595 0.0
C3697 C 0.81057 0.86439 0.60844 0.0
C3698 C 0.82358 0.85451 0.64838 0.0
C3699 C 0.80102 0.84797 0.65319 0.0
C3700 C 0.78332 0.8508 0.6357 0.0
C3701 C 0.78834 0.85941 0.61385 0.0
C3702 C 0.84319 0.85303 0.66666 0.0
C3703 C 0.75899 0.84375 0.63955 0.0
C3704 C 0.79525 0.80311 0.69718 0.0
C3705 C 0.79109 0.81514 0.71866 0.0
C3706 C 0.79679 0.81313 0.67555 0.0
C3707 C 0.79613 0.83652 0.67546 0.0
C3708 C 0.79221 0.84893 0.69713 0.0
C3709 C 0.78901 0.83795 0.71803 0.0
C3710 C 0.79933 0.79854 0.65273 0.0
C3711 C 0.79287 0.87419 0.69896 0.0
H3712 H 0.84523 0.86581 0.62198 0.0
H3713 H 0.77474 0.861 0.60037 0.0
H3714 H 0.84036 0.85905 0.68532 0.0
H3715 H 0.84499 0.83504 0.66617 0.0
H3716 H 0.85929 0.86323 0.66277 0.0
H3717 H 0.74717 0.84539 0.62357 0.0
H3718 H 0.75549 0.82581 0.64333 0.0
H3719 H 0.75555 0.85445 0.65555 0.0
H3720 H 0.79739 0.7857 0.69714 0.0
H3721 H 0.78593 0.84767 0.73434 0.0
H3722 H 0.81693 0.80282 0.64871 0.0
H3723 H 0.78817 0.80181 0.637 0.0
H3724 H 0.79521 0.78008 0.65448 0.0
H3725 H 0.81074 0.88336 0.7018 0.0
H3726 H 0.78461 0.88022 0.71447 0.0
H3727 H 0.78474 0.87893 0.68209 0.0
C3728 C 0.76212 0.4917 0.51416 0.0
C3729 C 0.75868 0.47048 0.50015 0.0
C3730 C 0.74375 0.50087 0.51983 0.0
C3731 C 0.72172 0.48844 0.51093 0.0
C3732 C 0.71829 0.46818 0.49465 0.0
C3733 C 0.73699 0.45932 0.48947 0.0
C3734 C 0.74792 0.52262 0.5373 0.0
C3735 C 0.69496 0.45508 0.48423 0.0
C3736 C 0.68555 0.49704 0.55921 0.0
C3737 C 0.67689 0.51546 0.55205 0.0
C3738 C 0.69854 0.48638 0.54451 0.0
C3739 C 0.70289 0.49461 0.52236 0.0
C3740 C 0.69244 0.51177 0.51399 0.0
C3741 C 0.67957 0.52219 0.52913 0.0
C3742 C 0.70913 0.46764 0.55365 0.0
C3743 C 0.69639 0.5205 0.49018 0.0
H3744 H 0.77901 0.50036 0.5221 0.0
H3745 H 0.73455 0.44314 0.47799 0.0
H3746 H 0.73773 0.53456 0.53046 0.0
H3747 H 0.74273 0.51866 0.55505 0.0
H3748 H 0.76595 0.53134 0.54034 0.0
H3749 H 0.69538 0.44004 0.47108 0.0
H3750 H 0.68556 0.44914 0.49903 0.0
H3751 H 0.68541 0.46633 0.47495 0.0
H3752 H 0.68272 0.49145 0.57662 0.0
H3753 H 0.67256 0.53633 0.52353 0.0
H3754 H 0.72753 0.47407 0.55883 0.0
H3755 H 0.70683 0.45297 0.53921 0.0
H3756 H 0.70189 0.4615 0.56971 0.0
H3757 H 0.71261 0.53303 0.49273 0.0
H3758 H 0.6828 0.52911 0.48351 0.0
H3759 H 0.6975 0.50651 0.47607 0.0
C3760 C 0.18219 0.15529 0.50219 0.0
C3761 C 0.20426 0.15181 0.50726 0.0
C3762 C 0.16331 0.13837 0.50428 0.0
C3763 C 0.16636 0.11725 0.51162 0.0
C3764 C 0.18855 0.11334 0.51614 0.0
C3765 C 0.20717 0.13059 0.51391 0.0
C3766 C 0.14004 0.14342 0.49935 0.0
C3767 C 0.19265 0.09094 0.52341 0.0
C3768 C 0.1194 0.08425 0.54186 0.0
C3769 C 0.10545 0.07084 0.52189 0.0
C3770 C 0.13919 0.09947 0.5388 0.0
C3771 C 0.14632 0.09981 0.51548 0.0
C3772 C 0.13338 0.08444 0.4957 0.0
C3773 C 0.1127 0.07074 0.49896 0.0
C3774 C 0.15175 0.11603 0.56029 0.0
C3775 C 0.14102 0.08286 0.47092 0.0
H3776 H 0.1796 0.17147 0.49694 0.0
H3777 H 0.22406 0.12755 0.51784 0.0
H3778 H 0.12937 0.13017 0.48537 0.0
H3779 H 0.13187 0.14302 0.51614 0.0
H3780 H 0.14041 0.16031 0.49302 0.0
H3781 H 0.21089 0.09064 0.52669 0.0
H3782 H 0.1851 0.08744 0.54013 0.0
H3783 H 0.18433 0.07689 0.50892 0.0
H3784 H 0.11414 0.08381 0.55973 0.0
H3785 H 0.1022 0.05991 0.48359 0.0
H3786 H 0.15164 0.13372 0.55656 0.0
H3787 H 0.16962 0.1144 0.5633 0.0
H3788 H 0.14418 0.1134 0.57722 0.0
H3789 H 0.13794 0.09774 0.46201 0.0
H3790 H 0.13184 0.0671 0.4591 0.0
H3791 H 0.15936 0.08312 0.4724 0.0
C3792 C 0.19228 1.00358 0.80945 0.0
C3793 C 0.17219 1.00306 0.7944 0.0
C3794 C 0.20366 0.98542 0.80725 0.0
C3795 C 0.19523 0.9668 0.78883 0.0
C3796 C 0.17463 0.96603 0.77393 0.0
C3797 C 0.16312 0.98403 0.77721 0.0
C3798 C 0.22508 0.98663 0.82408 0.0
C3799 C 0.16525 0.94665 0.75384 0.0
C3800 C 0.23446 0.93414 0.75875 0.0
C3801 C 0.22955 0.91321 0.76771 0.0
C3802 C 0.22442 0.95222 0.76665 0.0
C3803 C 0.20875 0.94909 0.78356 0.0
C3804 C 0.20472 0.92833 0.79364 0.0
C3805 C 0.21529 0.91062 0.78564 0.0
C3806 C 0.22963 0.97424 0.75587 0.0
C3807 C 0.18856 0.9245 0.81211 0.0
H3808 H 0.19915 0.01828 0.82293 0.0
H3809 H 0.14761 0.98373 0.76557 0.0
H3810 H 0.2256 0.9699 0.8304 0.0
H3811 H 0.23981 0.99111 0.81422 0.0
H3812 H 0.22688 0.99967 0.84018 0.0
H3813 H 0.14887 0.94835 0.74416 0.0
H3814 H 0.1774 0.94604 0.7405 0.0
H3815 H 0.16288 0.93018 0.76132 0.0
H3816 H 0.24555 0.93604 0.74487 0.0
H3817 H 0.2115 0.89434 0.79244 0.0
H3818 H 0.23477 0.98888 0.77048 0.0
H3819 H 0.21426 0.97674 0.7448 0.0
H3820 H 0.24327 0.97447 0.74419 0.0
H3821 H 0.19411 0.93768 0.82817 0.0
H3822 H 0.18732 0.90742 0.81819 0.0
H3823 H 0.17152 0.92619 0.80433 0.0
C3824 C 0.39201 0.94953 0.02303 0.0
C3825 C 0.37805 0.95443 0.00366 0.0
C3826 C 0.41307 0.96353 0.03088 0.0
C3827 C 0.42029 0.98212 0.01835 0.0
C3828 C 0.40581 0.98765 0.99934 0.0
C3829 C 0.38453 0.97374 0.99239 0.0
C3830 C 0.42802 0.95784 0.05173 0.0
C3831 C 0.41328 1.0072 0.9853 0.0
C3832 C 0.47341 0.02594 0.03892 0.0
C3833 C 0.48774 0.01744 0.0242 0.0
C3834 C 0.45139 0.01391 0.03834 0.0
C3835 C 0.44404 0.99339 0.02234 0.0
C3836 C 0.45905 0.98428 0.0084 0.0
C3837 C 0.48094 0.99656 0.00958 0.0
C3838 C 0.43566 0.02393 0.05336 0.0
C3839 C 0.45155 0.96253 0.99091 0.0
H3840 H 0.38638 0.93482 0.03204 0.0
H3841 H 0.3733 0.97743 0.97759 0.0
H3842 H 0.44229 0.95138 0.04477 0.0
H3843 H 0.43529 0.97334 0.06483 0.0
H3844 H 0.41875 0.94471 0.06149 0.0
H3845 H 0.3989 0.01136 0.97392 0.0
H3846 H 0.42202 0.02269 0.99771 0.0
H3847 H 0.42543 1.00254 0.97321 0.0
H3848 H 0.47903 0.0425 0.04978 0.0
H3849 H 0.49229 0.99059 0.99789 0.0
H3850 H 0.42595 0.01071 0.06263 0.0
H3851 H 0.42335 0.03045 0.04132 0.0
H3852 H 0.44487 0.03822 0.0672 0.0
H3853 H 0.44386 0.9484 1.00044 0.0
H3854 H 0.46571 0.95746 0.98223 0.0
H3855 H 0.43852 0.96479 0.97641 0.0
C3856 C 0.8467 0.57754 0.81541 0.0
C3857 C 0.86979 0.58012 0.814 0.0
C3858 C 0.83568 0.5952 0.81082 0.0
C3859 C 0.84809 0.61518 0.80383 0.0
C3860 C 0.87179 0.61856 0.80468 0.0
C3861 C 0.88243 0.60095 0.81011 0.0
C3862 C 0.81057 0.59163 0.81135 0.0
C3863 C 0.88561 0.63974 0.79737 0.0
C3864 C 0.82505 0.64012 0.75066 0.0
C3865 C 0.82371 0.66163 0.76163 0.0
C3866 C 0.83134 0.62404 0.76464 0.0
C3867 C 0.83637 0.62982 0.79014 0.0
C3868 C 0.83369 0.65098 0.8015 0.0
C3869 C 0.82748 0.66683 0.787 0.0
C3870 C 0.83395 0.60142 0.75196 0.0
C3871 C 0.83816 0.65712 0.82875 0.0
H3872 H 0.83717 0.56156 0.81936 0.0
H3873 H 0.90042 0.60294 0.80962 0.0
H3874 H 0.80547 0.60785 0.81717 0.0
H3875 H 0.80166 0.58491 0.79288 0.0
H3876 H 0.80497 0.57909 0.82375 0.0
H3877 H 0.90394 0.63974 0.79961 0.0
H3878 H 0.88019 0.64107 0.77806 0.0
H3879 H 0.88292 0.65515 0.8084 0.0
H3880 H 0.82149 0.63602 0.73108 0.0
H3881 H 0.82619 0.6835 0.79542 0.0
H3882 H 0.82394 0.58718 0.75962 0.0
H3883 H 0.85187 0.59989 0.7549 0.0
H3884 H 0.82844 0.59937 0.73211 0.0
H3885 H 0.82877 0.64341 0.83767 0.0
H3886 H 0.83325 0.67343 0.83481 0.0
H3887 H 0.85632 0.65869 0.83513 0.0
C3888 C 0.8338 0.64876 0.04471 0.0
C3889 C 0.82801 0.65721 0.02309 0.0
C3890 C 0.85154 0.637 0.04704 0.0
C3891 C 0.86317 0.63285 0.02691 0.0
C3892 C 0.85703 0.64102 0.00484 0.0
C3893 C 0.83971 0.65345 0.00331 0.0
C3894 C 0.85786 0.62906 0.07108 0.0
C3895 C 0.86833 0.6361 0.98272 0.0
C3896 C 0.92078 0.62028 0.04531 0.0
C3897 C 0.91564 0.59654 0.04418 0.0
C3898 C 0.90418 0.63231 0.03796 0.0
C3899 C 0.88193 0.62022 0.02939 0.0
C3900 C 0.87722 0.59607 0.02631 0.0
C3901 C 0.89415 0.5845 0.03392 0.0
C3902 C 0.90997 0.65801 0.0415 0.0
C3903 C 0.85385 0.58245 0.01701 0.0
H3904 H 0.82453 0.65155 0.05987 0.0
H3905 H 0.83478 0.65958 0.98641 0.0
H3906 H 0.85593 0.61027 0.06875 0.0
H3907 H 0.87582 0.6365 0.07794 0.0
H3908 H 0.84736 0.63394 0.08502 0.0
H3909 H 0.86211 0.64425 0.96715 0.0
H3910 H 0.88684 0.64214 0.98697 0.0
H3911 H 0.86515 0.61742 0.97716 0.0
H3912 H 0.93732 0.62955 0.05369 0.0
H3913 H 0.89011 0.56615 0.03353 0.0
H3914 H 0.90175 0.66458 0.05676 0.0
H3915 H 0.90351 0.66478 0.02506 0.0
H3916 H 0.92843 0.66472 0.04564 0.0
H3917 H 0.84305 0.58304 0.03171 0.0
H3918 H 0.85401 0.56431 0.01104 0.0
H3919 H 0.84604 0.58972 1.00163 0.0
C3920 C 0.17571 0.1512 0.81013 0.0
C3921 C 0.17906 0.12869 0.80776 0.0
C3922 C 0.19301 0.16968 0.80773 0.0
C3923 C 0.21445 0.16582 0.80298 0.0
C3924 C 0.21818 0.14323 0.8012 0.0
C3925 C 0.20051 0.12501 0.80353 0.0
C3926 C 0.18806 0.19335 0.80952 0.0
C3927 C 0.24089 0.13831 0.79686 0.0
C3928 C 0.25096 0.21028 0.77221 0.0
C3929 C 0.26273 0.22558 0.79216 0.0
C3930 C 0.23513 0.19087 0.77542 0.0
C3931 C 0.23257 0.18539 0.79917 0.0
C3932 C 0.24637 0.19958 0.81926 0.0
C3933 C 0.26065 0.21992 0.81558 0.0
C3934 C 0.22015 0.17709 0.75347 0.0
C3935 C 0.24557 0.19371 0.84474 0.0
H3936 H 0.15933 0.1544 0.81339 0.0
H3937 H 0.20346 0.10779 0.80171 0.0
H3938 H 0.20026 0.20495 0.82375 0.0
H3939 H 0.19 0.20023 0.79207 0.0
H3940 H 0.17076 0.19364 0.81386 0.0
H3941 H 0.24105 0.11984 0.79556 0.0
H3942 H 0.2458 0.14456 0.77987 0.0
H3943 H 0.25389 0.14756 0.81189 0.0
H3944 H 0.25288 0.21443 0.75406 0.0
H3945 H 0.27012 0.23149 0.83104 0.0
H3946 H 0.20229 0.17768 0.75519 0.0
H3947 H 0.22159 0.15898 0.75235 0.0
H3948 H 0.22429 0.18354 0.73628 0.0
H3949 H 0.23004 0.19751 0.85139 0.0
H3950 H 0.26032 0.20362 0.85743 0.0
H3951 H 0.24512 0.17527 0.84515 0.0
C3952 C 0.36615 0.94144 0.32877 0.0
C3953 C 0.37586 0.95425 0.31195 0.0
C3954 C 0.34965 0.92186 0.32071 0.0
C3955 C 0.34351 0.91518 0.29538 0.0
C3956 C 0.35261 0.92879 0.27848 0.0
C3957 C 0.36875 0.94842 0.28707 0.0
C3958 C 0.33978 0.90772 0.33918 0.0
C3959 C 0.34628 0.92194 0.25144 0.0
C3960 C 0.33139 0.85221 0.28607 0.0
C3961 C 0.30805 0.84761 0.28502 0.0
C3962 C 0.34311 0.87434 0.28645 0.0
C3963 C 0.33097 0.89209 0.28691 0.0
C3964 C 0.30718 0.88733 0.28374 0.0
C3965 C 0.29587 0.86483 0.2828 0.0
C3966 C 0.36858 0.8789 0.28956 0.0
C3967 C 0.2938 0.90596 0.28437 0.0
H3968 H 0.37143 0.94674 0.34803 0.0
H3969 H 0.37617 0.95905 0.27437 0.0
H3970 H 0.32126 0.90208 0.33443 0.0
H3971 H 0.34708 0.89222 0.33933 0.0
H3972 H 0.34338 0.91724 0.35779 0.0
H3973 H 0.35307 0.9357 0.24092 0.0
H3974 H 0.35298 0.90662 0.24574 0.0
H3975 H 0.32769 0.91734 0.24674 0.0
H3976 H 0.34076 0.83902 0.28891 0.0
H3977 H 0.27769 0.86095 0.28242 0.0
H3978 H 0.37521 0.88571 0.30876 0.0
H3979 H 0.37536 0.89179 0.27808 0.0
H3980 H 0.37502 0.86317 0.28484 0.0
H3981 H 0.29291 0.91229 0.30355 0.0
H3982 H 0.27629 0.89955 0.27516 0.0
H3983 H 0.30185 0.92058 0.27573 0.0
C3984 C 0.58613 0.37835 0.58004 0.0
C3985 C 0.57037 0.36481 0.5921 0.0
C3986 C 0.58252 0.39933 0.57166 0.0
C3987 C 0.5623 0.40758 0.57455 0.0
C3988 C 0.54609 0.39356 0.58607 0.0
C3989 C 0.55039 0.37304 0.59486 0.0
C3990 C 0.6008 0.41309 0.56011 0.0
C3991 C 0.52389 0.40028 0.58918 0.0
C3992 C 0.56197 0.47316 0.57555 0.0
C3993 C 0.55166 0.47532 0.55218 0.0
C3994 C 0.56523 0.45176 0.58285 0.0
C3995 C 0.55851 0.43098 0.5666 0.0
C3996 C 0.54798 0.43299 0.54294 0.0
C3997 C 0.54467 0.45466 0.53619 0.0
C3998 C 0.57598 0.45143 0.60835 0.0
C3999 C 0.54044 0.41216 0.52433 0.0
H4000 H 0.60179 0.3729 0.57779 0.0
H4001 H 0.53782 0.36321 0.60395 0.0
H4002 H 0.59377 0.41697 0.54225 0.0
H4003 H 0.60767 0.42959 0.57173 0.0
H4004 H 0.61485 0.40413 0.5575 0.0
H4005 H 0.51289 0.38795 0.59837 0.0
H4006 H 0.52683 0.41739 0.5999 0.0
H4007 H 0.51485 0.40138 0.57115 0.0
H4008 H 0.56748 0.48842 0.58854 0.0
H4009 H 0.53677 0.45537 0.51805 0.0
H4010 H 0.59179 0.44496 0.60785 0.0
H4011 H 0.56457 0.43965 0.61769 0.0
H4012 H 0.5799 0.46857 0.61921 0.0
H4013 H 0.55548 0.40652 0.5183 0.0
H4014 H 0.52986 0.41549 0.50817 0.0
H4015 H 0.53078 0.39792 0.53232 0.0
C4016 C 0.43076 0.79437 0.41968 0.0
C4017 C 0.4465 0.78067 0.4148 0.0
C4018 C 0.41265 0.79585 0.40208 0.0
C4019 C 0.40927 0.7828 0.37878 0.0
C4020 C 0.42505 0.76884 0.37368 0.0
C4021 C 0.44353 0.76825 0.39144 0.0
C4022 C 0.39705 0.81155 0.40855 0.0
C4023 C 0.42239 0.75436 0.34941 0.0
C4024 C 0.34838 0.77131 0.34496 0.0
C4025 C 0.34968 0.78694 0.3279 0.0
C4026 C 0.36757 0.76929 0.3608 0.0
C4027 C 0.38897 0.78349 0.36027 0.0
C4028 C 0.39046 0.79911 0.34285 0.0
C4029 C 0.37105 0.80049 0.32691 0.0
C4030 C 0.36486 0.7519 0.37829 0.0
C4031 C 0.41248 0.81502 0.34156 0.0
H4032 H 0.43279 0.80436 0.43737 0.0
H4033 H 0.45541 0.75764 0.38714 0.0
H4034 H 0.39547 0.82299 0.39445 0.0
H4035 H 0.37997 0.80139 0.40916 0.0
H4036 H 0.403 0.82217 0.4264 0.0
H4037 H 0.43408 0.74231 0.34918 0.0
H4038 H 0.40483 0.7445 0.34465 0.0
H4039 H 0.42582 0.76548 0.33512 0.0
H4040 H 0.33221 0.7605 0.34594 0.0
H4041 H 0.37254 0.81274 0.31404 0.0
H4042 H 0.36824 0.76064 0.39721 0.0
H4043 H 0.37732 0.74083 0.37629 0.0
H4044 H 0.34767 0.74101 0.37544 0.0
H4045 H 0.4171 0.82733 0.35842 0.0
H4046 H 0.41156 0.8247 0.32578 0.0
H4047 H 0.42619 0.80542 0.34035 0.0
C4048 C 0.08275 0.72229 0.10021 0.0
C4049 C 0.06938 0.73519 0.08769 0.0
C4050 C 0.07977 0.69807 0.09447 0.0
C4051 C 0.06301 0.68565 0.07544 0.0
C4052 C 0.04929 0.69862 0.06293 0.0
C4053 C 0.05267 0.72285 0.06903 0.0
C4054 C 0.09501 0.68576 0.10863 0.0
C4055 C 0.03094 0.68687 0.04281 0.0
C4056 C 0.06923 0.62579 0.04464 0.0
C4057 C 0.05469 0.60996 0.05563 0.0
C4058 C 0.07205 0.64995 0.05078 0.0
C4059 C 0.06006 0.65942 0.06852 0.0
C4060 C 0.04522 0.64354 0.07955 0.0
C4061 C 0.04276 0.61949 0.07309 0.0
C4062 C 0.08788 0.66547 0.03798 0.0
C4063 C 0.03184 0.65194 0.09848 0.0
H4064 H 0.096 0.73126 0.11436 0.0
H4065 H 0.04231 0.73225 0.05882 0.0
H4066 H 0.08481 0.67168 0.11636 0.0
H4067 H 0.10538 0.67803 0.0963 0.0
H4068 H 0.10643 0.69726 0.12363 0.0
H4069 H 0.02244 0.6991 0.03384 0.0
H4070 H 0.03801 0.67676 0.02894 0.0
H4071 H 0.01813 0.6748 0.05024 0.0
H4072 H 0.07809 0.61935 0.03063 0.0
H4073 H 0.03131 0.60804 0.08193 0.0
H4074 H 0.10176 0.67588 0.05138 0.0
H4075 H 0.07884 0.67742 0.02922 0.0
H4076 H 0.09526 0.65591 0.02392 0.0
H4077 H 0.04349 0.66043 0.11493 0.0
H4078 H 0.01941 0.6379 0.10372 0.0
H4079 H 0.02274 0.66478 0.09173 0.0
C4080 C 0.09157 0.29518 0.92691 0.0
C4081 C 0.07146 0.27978 0.91741 0.0
C4082 C 0.11062 0.29728 0.91444 0.0
C4083 C 0.10982 0.28332 0.89211 0.0
C4084 C 0.08995 0.26682 0.88317 0.0
C4085 C 0.07096 0.26545 0.89573 0.0
C4086 C 0.13134 0.31517 0.92466 0.0
C4087 C 0.0886 0.2509 0.86008 0.0
C4088 C 0.1486 0.31023 0.84928 0.0
C4089 C 0.16766 0.30072 0.8538 0.0
C4090 C 0.12926 0.30373 0.86059 0.0
C4091 C 0.129 0.28754 0.87724 0.0
C4092 C 0.14781 0.27699 0.88086 0.0
C4093 C 0.16691 0.2837 0.86909 0.0
C4094 C 0.1095 0.31506 0.8556 0.0
C4095 C 0.14844 0.25958 0.89824 0.0
H4096 H 0.09213 0.30635 0.94359 0.0
H4097 H 0.05559 0.25328 0.8884 0.0
H4098 H 0.1464 0.30736 0.92627 0.0
H4099 H 0.13421 0.32818 0.9121 0.0
H4100 H 0.12981 0.32385 0.94278 0.0
H4101 H 0.0722 0.23859 0.85585 0.0
H4102 H 0.09101 0.2608 0.84462 0.0
H4103 H 0.10234 0.24123 0.86168 0.0
H4104 H 0.14915 0.3234 0.83748 0.0
H4105 H 0.1817 0.27648 0.87284 0.0
H4106 H 0.10735 0.32558 0.87239 0.0
H4107 H 0.09374 0.30202 0.85018 0.0
H4108 H 0.11169 0.32614 0.84104 0.0
H4109 H 0.15313 0.26851 0.91704 0.0
H4110 H 0.16107 0.24904 0.89451 0.0
H4111 H 0.1317 0.24818 0.89733 0.0
C4112 C 0.57212 0.76264 0.92164 0.0
C4113 C 0.55635 0.76523 0.90247 0.0
C4114 C 0.56965 0.74253 0.93265 0.0
C4115 C 0.55071 0.72465 0.92457 0.0
C4116 C 0.5354 0.72673 0.9043 0.0
C4117 C 0.53843 0.74698 0.89348 0.0
C4118 C 0.58653 0.74106 0.95396 0.0
C4119 C 0.51481 0.7083 0.89525 0.0
C4120 C 0.54569 0.66506 0.94381 0.0
C4121 C 0.53111 0.66578 0.96146 0.0
C4122 C 0.55301 0.68434 0.9323 0.0
C4123 C 0.54557 0.70482 0.93862 0.0
C4124 C 0.53179 0.70589 0.95743 0.0
C4125 C 0.52459 0.68632 0.96845 0.0
C4126 C 0.56772 0.68241 0.91249 0.0
C4127 C 0.52384 0.72744 0.96523 0.0
H4128 H 0.58565 0.77697 0.92902 0.0
H4129 H 0.52579 0.74922 0.87923 0.0
H4130 H 0.57817 0.74019 0.97059 0.0
H4131 H 0.59319 0.72527 0.95084 0.0
H4132 H 0.60089 0.75592 0.95727 0.0
H4133 H 0.50587 0.71133 0.87789 0.0
H4134 H 0.51952 0.69141 0.89262 0.0
H4135 H 0.50296 0.7076 0.90901 0.0
H4136 H 0.55051 0.64909 0.93821 0.0
H4137 H 0.5132 0.68683 0.98201 0.0
H4138 H 0.58234 0.69696 0.9154 0.0
H4139 H 0.55793 0.68306 0.89474 0.0
H4140 H 0.57404 0.66628 0.9115 0.0
H4141 H 0.53848 0.74184 0.97052 0.0
H4142 H 0.51399 0.72577 0.98077 0.0
H4143 H 0.51313 0.73186 0.94984 0.0
C4144 C 0.11498 0.79003 0.73905 0.0
C4145 C 0.10113 0.76963 0.72677 0.0
C4146 C 0.13826 0.79167 0.7479 0.0
C4147 C 0.14889 0.7727 0.74392 0.0
C4148 C 0.13484 0.75191 0.73209 0.0
C4149 C 0.11156 0.75069 0.72377 0.0
C4150 C 0.15177 0.81421 0.76062 0.0
C4151 C 0.14471 0.73107 0.72697 0.0
C4152 C 0.21374 0.78572 0.74034 0.0
C4153 C 0.2235 0.78015 0.76239 0.0
C4154 C 0.18995 0.7829 0.73407 0.0
C4155 C 0.17472 0.77499 0.75042 0.0
C4156 C 0.18451 0.76937 0.7728 0.0
C4157 C 0.2084 0.77174 0.77831 0.0
C4158 C 0.18107 0.78838 0.70963 0.0
C4159 C 0.16981 0.76165 0.79156 0.0
H4160 H 0.10787 0.80519 0.74072 0.0
H4161 H 0.10172 0.73503 0.71349 0.0
H4162 H 0.16245 0.81171 0.7771 0.0
H4163 H 0.16316 0.82223 0.74839 0.0
H4164 H 0.14081 0.82614 0.76594 0.0
H4165 H 0.13187 0.71615 0.71771 0.0
H4166 H 0.15828 0.73475 0.71538 0.0
H4167 H 0.15245 0.72651 0.74416 0.0
H4168 H 0.22481 0.79215 0.72763 0.0
H4169 H 0.21532 0.76772 0.79561 0.0
H4170 H 0.17266 0.80306 0.71206 0.0
H4171 H 0.16828 0.77368 0.69988 0.0
H4172 H 0.19464 0.79261 0.69812 0.0
H4173 H 0.16332 0.77633 0.79965 0.0
H4174 H 0.17917 0.75489 0.80635 0.0
H4175 H 0.15502 0.74834 0.78316 0.0
C4176 C 0.06098 0.40525 0.39631 0.0
C4177 C 0.05846 0.38359 0.40413 0.0
C4178 C 0.05838 0.42478 0.41173 0.0
C4179 C 0.05321 0.42298 0.43581 0.0
C4180 C 0.05043 0.40109 0.4436 0.0
C4181 C 0.05303 0.38196 0.42788 0.0
C4182 C 0.06139 0.4475 0.40229 0.0
C4183 C 0.04475 0.39778 0.46876 0.0
C4184 C 0.06816 0.47646 0.48442 0.0
C4185 C 0.04727 0.48269 0.48609 0.0
C4186 C 0.07027 0.45724 0.46841 0.0
C4187 C 0.05112 0.44383 0.45303 0.0
C4188 C 0.02993 0.45011 0.45478 0.0
C4189 C 0.02826 0.46918 0.47131 0.0
C4190 C 0.0931 0.45114 0.46811 0.0
C4191 C 1.00895 0.43687 0.43889 0.0
H4192 H 0.06514 0.40702 0.37817 0.0
H4193 H 0.05093 0.36552 0.43443 0.0
H4194 H 0.04648 0.45519 0.40459 0.0
H4195 H 0.07624 0.45934 0.41297 0.0
H4196 H 0.06383 0.44608 0.38283 0.0
H4197 H 0.04405 0.37998 0.47258 0.0
H4198 H 0.05745 0.40935 0.48257 0.0
H4199 H 0.02816 0.4022 0.4709 0.0
H4200 H 0.08294 0.4866 0.49586 0.0
H4201 H 1.01202 0.47378 0.47238 0.0
H4202 H 0.09814 0.45153 0.44967 0.0
H4203 H 0.0923 0.43353 0.47255 0.0
H4204 H 0.1063 0.46291 0.48126 0.0
H4205 H 1.01063 0.4388 0.41962 0.0
H4206 H 0.99355 0.44275 0.44349 0.0
H4207 H 1.00679 0.41845 0.44058 0.0
C4208 C 0.46142 0.28272 0.23779 0.0
C4209 C 0.46393 0.2619 0.22517 0.0
C4210 C 0.44024 0.28651 0.24474 0.0
C4211 C 0.42029 0.26896 0.23988 0.0
C4212 C 0.42288 0.24776 0.22746 0.0
C4213 C 0.4441 0.24473 0.21996 0.0
C4214 C 0.43934 0.30972 0.25713 0.0
C4215 C 0.40303 0.228 0.22189 0.0
C4216 C 0.37003 0.27389 0.27822 0.0
C4217 C 0.35297 0.27899 0.2617 0.0
C4218 C 0.3913 0.27024 0.27141 0.0
C4219 C 0.39701 0.27268 0.24754 0.0
C4220 C 0.38011 0.27869 0.23107 0.0
C4221 C 0.35857 0.28118 0.23803 0.0
C4222 C 0.40767 0.26335 0.28995 0.0
C4223 C 0.38504 0.28327 0.20602 0.0
H4224 H 0.47608 0.29651 0.24173 0.0
H4225 H 0.44514 0.22863 0.20995 0.0
H4226 H 0.42376 0.31515 0.25004 0.0
H4227 H 0.4392 0.30905 0.27685 0.0
H4228 H 0.45415 0.32281 0.25473 0.0
H4229 H 0.4081 0.21184 0.21564 0.0
H4230 H 0.39437 0.22571 0.23819 0.0
H4231 H 0.39069 0.23152 0.20745 0.0
H4232 H 0.36651 0.27208 0.29657 0.0
H4233 H 0.34618 0.28551 0.22489 0.0
H4234 H 0.42286 0.27716 0.29486 0.0
H4235 H 0.41325 0.24794 0.2822 0.0
H4236 H 0.40025 0.25976 0.30676 0.0
H4237 H 0.39981 0.29755 0.20752 0.0
H4238 H 0.37054 0.28773 0.19513 0.0
H4239 H 0.38949 0.26815 0.19615 0.0
C4240 C 0.62739 0.57335 0.38136 0.0
C4241 C 0.62256 0.55625 0.36136 0.0
C4242 C 0.61716 0.57046 0.40267 0.0
C4243 C 0.60233 0.54963 0.4045 0.0
C4244 C 0.59773 0.5322 0.38435 0.0
C4245 C 0.60762 0.53584 0.363 0.0
C4246 C 0.62213 0.58979 0.42323 0.0
C4247 C 0.58229 0.50965 0.38528 0.0
C4248 C 0.59146 0.535 0.46823 0.0
C4249 C 0.5706 0.54119 0.47053 0.0
C4250 C 0.60189 0.53753 0.44695 0.0
C4251 C 0.59125 0.54631 0.42719 0.0
C4252 C 0.57005 0.5522 0.42928 0.0
C4253 C 0.56021 0.54982 0.45083 0.0
C4254 C 0.62442 0.53093 0.44566 0.0
C4255 C 0.55787 0.56156 0.40893 0.0
H4256 H 0.63897 0.58912 0.3802 0.0
H4257 H 0.60403 0.52247 0.34768 0.0
H4258 H 0.60619 0.59457 0.42761 0.0
H4259 H 0.6301 0.5843 0.43977 0.0
H4260 H 0.63347 0.60511 0.41884 0.0
H4261 H 0.58188 0.4972 0.369 0.0
H4262 H 0.58775 0.50222 0.40168 0.0
H4263 H 0.56492 0.51228 0.38658 0.0
H4264 H 0.59979 0.52841 0.48321 0.0
H4265 H 0.54428 0.55499 0.45226 0.0
H4266 H 0.63718 0.54598 0.44315 0.0
H4267 H 0.62327 0.5179 0.42973 0.0
H4268 H 0.63042 0.52407 0.46227 0.0
H4269 H 0.56708 0.57898 0.40745 0.0
H4270 H 0.54032 0.56241 0.41194 0.0
H4271 H 0.55735 0.55094 0.39132 0.0
C4272 C 0.31744 0.88353 0.06016 0.0
C4273 C 0.30888 0.90242 0.054 0.0
C4274 C 0.31987 0.8789 0.08397 0.0
C4275 C 0.31315 0.89333 0.10222 0.0
C4276 C 0.30414 0.91229 0.09626 0.0
C4277 C 0.30232 0.9168 0.07208 0.0
C4278 C 0.3298 0.85852 0.08946 0.0
C4279 C 0.29664 0.92777 0.11536 0.0
C4280 C 0.30711 0.85641 0.15051 0.0
C4281 C 0.32952 0.8612 0.1614 0.0
C4282 C 0.29999 0.86978 0.13348 0.0
C4283 C 0.31591 0.88786 0.12726 0.0
C4284 C 0.33756 0.89465 0.141 0.0
C4285 C 0.34422 0.88094 0.15787 0.0
C4286 C 0.27662 0.86238 0.11954 0.0
C4287 C 0.35496 0.91403 0.13531 0.0
H4288 H 0.3229 0.87249 0.04641 0.0
H4289 H 0.29583 0.93151 0.06735 0.0
H4290 H 0.34458 0.86378 0.10373 0.0
H4291 H 0.31711 0.84584 0.09627 0.0
H4292 H 0.33532 0.84996 0.07325 0.0
H4293 H 0.28873 0.94093 0.10744 0.0
H4294 H 0.28441 0.91766 0.12534 0.0
H4295 H 0.31129 0.93645 0.12882 0.0
H4296 H 0.29571 0.84127 0.1539 0.0
H4297 H 0.3614 0.88474 0.167 0.0
H4298 H 0.27738 0.85148 0.10246 0.0
H4299 H 0.26976 0.87728 0.11459 0.0
H4300 H 0.26486 0.85235 0.13013 0.0
H4301 H 0.36446 0.9074 0.12127 0.0
H4302 H 0.36719 0.92165 0.15166 0.0
H4303 H 0.34713 0.92755 0.12821 0.0
C4304 C 0.91867 0.52253 0.89936 0.0
C4305 C 0.92903 0.52937 0.87952 0.0
C4306 C 0.9318 0.51872 0.91998 0.0
C4307 C 0.95542 0.5224 0.92039 0.0
C4308 C 0.96572 0.52814 0.89988 0.0
C4309 C 0.95229 0.53156 0.87965 0.0
C4310 C 0.9207 0.51183 0.94164 0.0
C4311 C 0.99101 0.53229 0.89979 0.0
C4312 C 0.99428 0.54951 0.97596 0.0
C4313 C 1.00569 0.53206 0.9799 0.0
C4314 C 0.97659 0.54606 0.95723 0.0
C4315 C 0.96997 0.52436 0.94315 0.0
C4316 C 0.98072 0.50632 0.94807 0.0
C4317 C 0.99912 0.5107 0.96609 0.0
C4318 C 0.96643 0.5661 0.95121 0.0
C4319 C 0.97336 0.48283 0.9338 0.0
H4320 H 0.90055 0.5203 0.89879 0.0
H4321 H 0.96023 0.53665 0.8641 0.0
H4322 H 0.92796 0.49815 0.94924 0.0
H4323 H 0.92392 0.52661 0.9561 0.0
H4324 H 0.90219 0.50583 0.93695 0.0
H4325 H 0.99598 0.53594 0.88184 0.0
H4326 H 0.99939 0.54698 0.91353 0.0
H4327 H 0.99762 0.51724 0.90463 0.0
H4328 H 0.9999 0.5661 0.98674 0.0
H4329 H 1.00811 0.49745 0.96974 0.0
H4330 H 0.94782 0.56166 0.94992 0.0
H4331 H 0.97066 0.5706 0.93328 0.0
H4332 H 0.97275 0.58139 0.96491 0.0
H4333 H 0.95541 0.47603 0.93533 0.0
H4334 H 0.98359 0.47072 0.94028 0.0
H4335 H 0.97466 0.48361 0.91426 0.0
C4336 C 0.29502 0.23557 0.5957 0.0
C4337 C 0.27667 0.21831 0.5851 0.0
C4338 C 0.29807 0.24349 0.62081 0.0
C4339 C 0.28224 0.23411 0.63576 0.0
C4340 C 0.26388 0.21636 0.62508 0.0
C4341 C 0.26133 0.20872 0.59996 0.0
C4342 C 0.318 0.26223 0.63127 0.0
C4343 C 0.24646 0.20594 0.64007 0.0
C4344 C 0.29767 0.24211 0.70505 0.0
C4345 C 0.28772 0.26044 0.71261 0.0
C4346 C 0.29633 0.23363 0.68027 0.0
C4347 C 0.28441 0.24336 0.6623 0.0
C4348 C 0.27437 0.26188 0.66978 0.0
C4349 C 0.27642 0.27034 0.69464 0.0
C4350 C 0.3077 0.2142 0.67332 0.0
C4351 C 0.26143 0.27285 0.65146 0.0
H4352 H 0.30676 0.24322 0.58422 0.0
H4353 H 0.24693 0.19562 0.59176 0.0
H4354 H 0.31211 0.27722 0.63953 0.0
H4355 H 0.32839 0.25637 0.64591 0.0
H4356 H 0.32882 0.26769 0.61734 0.0
H4357 H 0.23411 0.19127 0.62955 0.0
H4358 H 0.25475 0.20011 0.65622 0.0
H4359 H 0.23719 0.21898 0.64677 0.0
H4360 H 0.30657 0.23427 0.71854 0.0
H4361 H 0.26931 0.28494 0.69992 0.0
H4362 H 0.32009 0.21934 0.66078 0.0
H4363 H 0.29503 0.19942 0.66354 0.0
H4364 H 0.31658 0.20868 0.68934 0.0
H4365 H 0.27248 0.27946 0.63823 0.0
H4366 H 0.25467 0.28712 0.6601 0.0
H4367 H 0.24716 0.25997 0.64112 0.0
C4368 C 0.62816 0.55606 0.2136 0.0
C4369 C 0.61282 0.54948 0.22977 0.0
C4370 C 0.62097 0.55429 0.1884 0.0
C4371 C 0.59802 0.54522 0.17905 0.0
C4372 C 0.58288 0.5372 0.19523 0.0
C4373 C 0.59035 0.53978 0.2203 0.0
C4374 C 0.63768 0.5633 0.17198 0.0
C4375 C 0.55855 0.52646 0.18612 0.0
C4376 C 0.57087 0.56377 0.12146 0.0
C4377 C 0.57158 0.54598 0.10346 0.0
C4378 C 0.57995 0.56402 0.14581 0.0
C4379 C 0.58936 0.54553 0.1528 0.0
C4380 C 0.58967 0.52717 0.13481 0.0
C4381 C 0.58121 0.52783 0.11042 0.0
C4382 C 0.5795 0.5842 0.16409 0.0
C4383 C 0.59888 0.50674 0.14123 0.0
H4384 H 0.64548 0.56383 0.22079 0.0
H4385 H 0.57842 0.53458 0.23268 0.0
H4386 H 0.63728 0.55033 0.15622 0.0
H4387 H 0.63296 0.57842 0.16475 0.0
H4388 H 0.65516 0.56829 0.18158 0.0
H4389 H 0.54927 0.51978 0.20073 0.0
H4390 H 0.54993 0.53918 0.17832 0.0
H4391 H 0.55757 0.51226 0.17142 0.0
H4392 H 0.56358 0.57775 0.1165 0.0
H4393 H 0.58179 0.51382 0.09681 0.0
H4394 H 0.5968 0.59165 0.1733 0.0
H4395 H 0.56906 0.57862 0.17825 0.0
H4396 H 0.57259 0.59769 0.15562 0.0
H4397 H 0.61749 0.51159 0.14543 0.0
H4398 H 0.59458 0.49241 0.12616 0.0
H4399 H 0.59228 0.50069 0.15763 0.0
C4400 C 0.29631 0.91486 0.91022 0.0
C4401 C 0.31081 0.91612 0.93161 0.0
C4402 C 0.29641 0.89825 0.8908 0.0
C4403 C 0.31046 0.88229 0.89398 0.0
C4404 C 0.32585 0.88446 0.91521 0.0
C4405 C 0.32676 0.90239 0.93311 0.0
C4406 C 0.28032 0.89679 0.8679 0.0
C4407 C 0.34005 0.86694 0.91999 0.0
C4408 C 0.28777 0.82596 0.85603 0.0
C4409 C 0.30424 0.82574 0.84066 0.0
C4410 C 0.29033 0.84378 0.87472 0.0
C4411 C 0.30846 0.86258 0.87587 0.0
C4412 C 0.32539 0.86196 0.86062 0.0
C4413 C 0.3237 0.84257 0.84411 0.0
C4414 C 0.27377 0.84233 0.89301 0.0
C4415 C 0.3442 0.88221 0.86026 0.0
H4416 H 0.28389 0.92555 0.90934 0.0
H4417 H 0.33843 0.90411 0.94945 0.0
H4418 H 0.28713 0.89 0.85165 0.0
H4419 H 0.26414 0.88528 0.86933 0.0
H4420 H 0.27659 0.91374 0.86524 0.0
H4421 H 0.34767 0.86902 0.93928 0.0
H4422 H 0.32973 0.84942 0.9153 0.0
H4423 H 0.35394 0.8685 0.90865 0.0
H4424 H 0.27301 0.81227 0.85345 0.0
H4425 H 0.33685 0.84123 0.83282 0.0
H4426 H 0.26093 0.85247 0.88837 0.0
H4427 H 0.28242 0.8492 0.91158 0.0
H4428 H 0.26485 0.82447 0.89317 0.0
H4429 H 0.33739 0.89445 0.84958 0.0
H4430 H 0.35844 0.87712 0.85177 0.0
H4431 H 0.35087 0.89149 0.87853 0.0
C4432 C 0.93847 0.50548 0.74657 0.0
C4433 C 0.92618 0.52124 0.75529 0.0
C4434 C 0.94377 0.50436 0.72307 0.0
C4435 C 0.93625 0.51924 0.70759 0.0
C4436 C 0.92277 0.53447 0.71572 0.0
C4437 C 0.91782 0.53531 0.73975 0.0
C4438 C 0.9582 0.4877 0.71533 0.0
C4439 C 0.91415 0.55012 0.69937 0.0
C4440 C 0.97883 0.52184 0.66583 0.0
C4441 C 0.96948 0.50155 0.65061 0.0
C4442 C 0.96627 0.53083 0.68248 0.0
C4443 C 0.94405 0.51902 0.68358 0.0
C4444 C 0.93351 0.50084 0.66537 0.0
C4445 C 0.9466 0.49193 0.64926 0.0
C4446 C 0.97809 0.55042 0.70143 0.0
C4447 C 0.90961 0.48835 0.66539 0.0
H4448 H 0.94435 0.49407 0.75834 0.0
H4449 H 0.90806 0.5473 0.74652 0.0
H4450 H 0.94951 0.47602 0.69896 0.0
H4451 H 0.97439 0.49706 0.7108 0.0
H4452 H 0.96212 0.47714 0.7297 0.0
H4453 H 0.9023 0.55946 0.7078 0.0
H4454 H 0.92848 0.56274 0.69513 0.0
H4455 H 0.90548 0.54029 0.68189 0.0
H4456 H 0.99646 0.52956 0.66611 0.0
H4457 H 0.93932 0.47672 0.63661 0.0
H4458 H 0.98477 0.54356 0.71773 0.0
H4459 H 0.96634 0.56131 0.70707 0.0
H4460 H 0.99247 0.56111 0.69471 0.0
H4461 H 0.90969 0.47437 0.67678 0.0
H4462 H 0.90179 0.48063 0.64674 0.0
H4463 H 0.89911 0.49978 0.67295 0.0
C4464 C 0.29714 0.21914 0.45004 0.0
C4465 C 0.27604 0.20623 0.45275 0.0
C4466 C 0.30095 0.22865 0.42843 0.0
C4467 C 0.28315 0.22554 0.40898 0.0
C4468 C 0.26177 0.21246 0.41174 0.0
C4469 C 0.25856 0.2028 0.43341 0.0
C4470 C 0.32402 0.24231 0.42658 0.0
C4471 C 0.2422 0.20878 0.39178 0.0
C4472 C 0.28382 0.26903 0.36362 0.0
C4473 C 0.29122 0.25831 0.34323 0.0
C4474 C 0.28184 0.25892 0.3851 0.0
C4475 C 0.28647 0.2369 0.38636 0.0
C4476 C 0.29368 0.22575 0.3658 0.0
C4477 C 0.29618 0.23662 0.34467 0.0
C4478 C 0.27448 0.27182 0.40644 0.0
C4479 C 0.29869 0.20223 0.36607 0.0
H4480 H 0.31079 0.22163 0.46483 0.0
H4481 H 0.24227 0.19272 0.43534 0.0
H4482 H 0.33005 0.23618 0.40956 0.0
H4483 H 0.32309 0.26043 0.42595 0.0
H4484 H 0.3366 0.24135 0.44218 0.0
H4485 H 0.22668 0.19825 0.39659 0.0
H4486 H 0.23853 0.22544 0.3878 0.0
H4487 H 0.24661 0.20029 0.37488 0.0
H4488 H 0.27913 0.2854 0.36278 0.0
H4489 H 0.30167 0.22794 0.32913 0.0
H4490 H 0.28696 0.27331 0.42283 0.0
H4491 H 0.25815 0.26235 0.41052 0.0
H4492 H 0.27256 0.28921 0.40308 0.0
H4493 H 0.31348 0.20291 0.37977 0.0
H4494 H 0.30231 0.19504 0.34813 0.0
H4495 H 0.28423 0.19052 0.37141 0.0
C4496 C 0.32862 0.58803 0.55372 0.0
C4497 C 0.33109 0.60782 0.56999 0.0
C4498 C 0.34755 0.58126 0.54594 0.0
C4499 C 0.36922 0.59397 0.5559 0.0
C4500 C 0.37171 0.61223 0.57472 0.0
C4501 C 0.35242 0.61932 0.58123 0.0
C4502 C 0.34424 0.56212 0.52523 0.0
C4503 C 0.39459 0.62562 0.58621 0.0
C4504 C 0.41253 0.56293 0.53486 0.0
C4505 C 0.41669 0.57265 0.51365 0.0
C4506 C 0.39877 0.57137 0.55045 0.0
C4507 C 0.38873 0.58956 0.54432 0.0
C4508 C 0.39428 0.60057 0.52399 0.0
C4509 C 0.40821 0.59187 0.5088 0.0
C4510 C 0.39354 0.55973 0.57238 0.0
C4511 C 0.3839 0.62012 0.51682 0.0
H4512 H 0.31197 0.57953 0.54484 0.0
H4513 H 0.35402 0.63477 0.59373 0.0
H4514 H 0.35129 0.56873 0.50929 0.0
H4515 H 0.35336 0.54879 0.5305 0.0
H4516 H 0.32619 0.55409 0.51958 0.0
H4517 H 0.39358 0.63623 0.60342 0.0
H4518 H 0.40632 0.61405 0.58994 0.0
H4519 H 0.40184 0.63707 0.57355 0.0
H4520 H 0.41904 0.54798 0.53863 0.0
H4521 H 0.41182 0.59959 0.49264 0.0
H4522 H 0.37634 0.54891 0.56866 0.0
H4523 H 0.39382 0.57249 0.58833 0.0
H4524 H 0.40565 0.54876 0.57706 0.0
H4525 H 0.36671 0.61323 0.50703 0.0
H4526 H 0.39393 0.63003 0.50463 0.0
H4527 H 0.38237 0.63187 0.53292 0.0
C4528 C 0.9026 0.91789 0.54128 0.0
C4529 C 0.88134 0.92353 0.54207 0.0
C4530 C 0.92213 0.93468 0.54134 0.0
C4531 C 0.92062 0.9579 0.54226 0.0
C4532 C 0.8993 0.96384 0.54335 0.0
C4533 C 0.87996 0.94663 0.54323 0.0
C4534 C 0.94443 0.92747 0.54016 0.0
C4535 C 0.89684 0.98833 0.54428 0.0
C4536 C 0.97724 0.99908 0.56197 0.0
C4537 C 0.98341 1.00488 0.5397 0.0
C4538 C 0.95615 0.98511 0.56325 0.0
C4539 C 0.94141 0.97569 0.5416 0.0
C4540 C 0.94753 0.98191 0.5191 0.0
C4541 C 0.96811 0.99699 0.51855 0.0
C4542 C 0.94982 0.98008 0.58773 0.0
C4543 C 0.933 0.97164 0.49545 0.0
H4544 H 0.90403 0.9002 0.5405 0.0
H4545 H 0.86369 0.9513 0.5437 0.0
H4546 H 0.95216 0.93366 0.52439 0.0
H4547 H 0.95625 0.93525 0.55672 0.0
H4548 H 0.94268 0.90869 0.53857 0.0
H4549 H 0.87975 0.99049 0.54783 0.0
H4550 H 0.9095 0.99931 0.5586 0.0
H4551 H 0.90001 0.9945 0.52674 0.0
H4552 H 0.9889 1.00556 0.57838 0.0
H4553 H 0.97292 1.00148 0.5013 0.0
H4554 H 0.9494 0.96186 0.58944 0.0
H4555 H 0.93269 0.98322 0.58958 0.0
H4556 H 0.96188 0.99065 0.60288 0.0
H4557 H 0.93245 0.95304 0.49254 0.0
H4558 H 0.93945 0.97922 0.47968 0.0
H4559 H 0.91545 0.97395 0.49605 0.0
C4560 C 0.89284 0.07457 0.25355 0.0
C4561 C 0.9114 0.07413 0.27056 0.0
C4562 C 0.881 0.09244 0.25567 0.0
C4563 C 0.88741 0.10984 0.27574 0.0
C4564 C 0.90618 0.10943 0.29291 0.0
C4565 C 0.91814 0.0918 0.2899 0.0
C4566 C 0.86158 0.09265 0.23657 0.0
C4567 C 0.91318 0.1272 0.31499 0.0
C4568 C 0.87201 0.16814 0.27804 0.0
C4569 C 0.85496 0.1659 0.29297 0.0
C4570 C 0.88178 0.14959 0.27096 0.0
C4571 C 0.87445 0.12836 0.27927 0.0
C4572 C 0.85629 0.12575 0.29328 0.0
C4573 C 0.84677 0.14461 0.30001 0.0
C4574 C 0.90093 0.15314 0.25591 0.0
C4575 C 0.84784 0.10342 0.3024 0.0
H4576 H 0.88759 0.06091 0.23858 0.0
H4577 H 0.93222 0.09132 0.30332 0.0
H4578 H 0.84584 0.09204 0.24494 0.0
H4579 H 0.86472 0.10874 0.22839 0.0
H4580 H 0.85892 0.07808 0.22188 0.0
H4581 H 0.92851 0.12486 0.32629 0.0
H4582 H 0.9165 0.14451 0.30944 0.0
H4583 H 0.89928 0.12636 0.32635 0.0
H4584 H 0.87847 0.18475 0.27291 0.0
H4585 H 0.83373 0.14305 0.31182 0.0
H4586 H 0.89845 0.13907 0.24075 0.0
H4587 H 0.91696 0.15307 0.26734 0.0
H4588 H 0.90264 0.16958 0.24832 0.0
H4589 H 0.84308 0.08947 0.28701 0.0
H4590 H 0.83304 0.10391 0.31225 0.0
H4591 H 0.86148 0.09919 0.31481 0.0
C4592 C 0.68939 0.12542 0.03338 0.0
C4593 C 0.70924 0.11762 0.03944 0.0
C4594 C 0.66843 0.11088 0.03152 0.0
C4595 C 0.66747 0.08807 0.03572 0.0
C4596 C 0.68733 0.0798 0.04106 0.0
C4597 C 0.70812 0.09474 0.04283 0.0
C4598 C 0.64733 0.12019 0.02613 0.0
C4599 C 0.68655 0.05544 0.04561 0.0
C4600 C 0.61364 0.06316 0.05773 0.0
C4601 C 0.60114 0.05192 0.036 0.0
C4602 C 0.63596 0.07397 0.05818 0.0
C4603 C 0.64552 0.07347 0.03625 0.0
C4604 C 0.63317 0.06104 0.01447 0.0
C4605 C 0.61089 0.05011 0.01468 0.0
C4606 C 0.64872 0.0871 0.08173 0.0
C4607 C 0.64298 0.06049 0.9908 0.0
H4608 H 0.69013 0.14306 0.03067 0.0
H4609 H 0.72342 0.0886 0.04743 0.0
H4610 H 0.63587 0.10926 0.01081 0.0
H4611 H 0.63812 0.12015 0.0422 0.0
H4612 H 0.65111 0.13788 0.02156 0.0
H4613 H 0.70363 0.05168 0.04935 0.0
H4614 H 0.67737 0.05187 0.06131 0.0
H4615 H 0.67715 0.04362 0.02963 0.0
H4616 H 0.60563 0.06423 0.07411 0.0
H4617 H 0.60094 0.04079 0.99815 0.0
H4618 H 0.65176 0.10562 0.08035 0.0
H4619 H 0.6654 0.08246 0.08538 0.0
H4620 H 0.63937 0.08392 0.09743 0.0
H4621 H 0.6451 0.07762 0.98476 0.0
H4622 H 0.63202 0.04804 0.97621 0.0
H4623 H 0.6599 0.05617 0.99322 0.0
C4624 C 0.22384 0.4999 0.27026 0.0
C4625 C 0.21813 0.50345 0.24635 0.0
C4626 C 0.23209 0.48086 0.27539 0.0
C4627 C 0.23547 0.46539 0.25594 0.0
C4628 C 0.22995 0.46897 0.23158 0.0
C4629 C 0.22088 0.48806 0.22698 0.0
C4630 C 0.2371 0.47738 0.30171 0.0
C4631 C 0.2333 0.45257 0.21063 0.0
C4632 C 0.27978 0.43877 0.28415 0.0
C4633 C 0.26638 0.42069 0.29266 0.0
C4634 C 0.27003 0.4518 0.26858 0.0
C4635 C 0.24637 0.44667 0.26203 0.0
C4636 C 0.23316 0.42682 0.26853 0.0
C4637 C 0.24345 0.41393 0.28394 0.0
C4638 C 0.28462 0.47281 0.26193 0.0
C4639 C 0.20787 0.42085 0.26197 0.0
H4640 H 0.22108 0.51175 0.28509 0.0
H4641 H 0.21571 0.49077 0.20853 0.0
H4642 H 0.22792 0.46042 0.30478 0.0
H4643 H 0.25538 0.47803 0.30641 0.0
H4644 H 0.23219 0.4905 0.31439 0.0
H4645 H 0.22958 0.45866 0.19286 0.0
H4646 H 0.25088 0.44993 0.21265 0.0
H4647 H 0.22208 0.43576 0.2106 0.0
H4648 H 0.29768 0.44337 0.29065 0.0
H4649 H 0.23339 0.39944 0.29031 0.0
H4650 H 0.283 0.48791 0.27432 0.0
H4651 H 0.27917 0.47562 0.24311 0.0
H4652 H 0.30267 0.47165 0.26367 0.0
H4653 H 0.2 0.43001 0.27589 0.0
H4654 H 0.20133 0.40229 0.26153 0.0
H4655 H 0.20256 0.42597 0.24413 0.0
C4656 C 0.24667 0.42401 0.06355 0.0
C4657 C 0.25985 0.42378 0.04456 0.0
C4658 C 0.22841 0.43527 0.06268 0.0
C4659 C 0.2232 0.44624 0.04222 0.0
C4660 C 0.23672 0.44609 0.02312 0.0
C4661 C 0.25494 0.43496 0.02462 0.0
C4662 C 0.21455 0.43521 0.08344 0.0
C4663 C 0.23181 0.45751 1.00093 0.0
C4664 C 0.16521 0.45556 0.01987 0.0
C4665 C 0.16831 0.47929 0.02465 0.0
C4666 C 0.18235 0.44426 0.02736 0.0
C4667 C 0.20311 0.45707 0.03986 0.0
C4668 C 0.20551 0.48084 0.04661 0.0
C4669 C 0.18802 0.49171 0.03885 0.0
C4670 C 0.17902 0.41895 0.01969 0.0
C4671 C 0.22724 0.49507 0.06019 0.0
H4672 H 0.25069 0.41545 0.07904 0.0
H4673 H 0.26532 0.43483 0.01006 0.0
H4674 H 0.213 0.45281 0.08991 0.0
H4675 H 0.19726 0.42521 0.07714 0.0
H4676 H 0.22196 0.42774 0.09894 0.0
H4677 H 0.24376 0.45557 0.98758 0.0
H4678 H 0.21444 0.45017 0.99187 0.0
H4679 H 0.23281 0.47595 0.00636 0.0
H4680 H 0.15005 0.44605 0.00855 0.0
H4681 H 0.19051 0.51012 0.04219 0.0
H4682 H 0.18485 0.41031 0.03499 0.0
H4683 H 0.18924 0.41585 0.00489 0.0
H4684 H 0.1611 0.41106 0.01303 0.0
H4685 H 0.2324 0.48747 0.07656 0.0
H4686 H 0.22577 0.51291 0.06581 0.0
H4687 H 0.24085 0.49536 0.04851 0.0
C4688 C 0.90941 0.93624 0.2936 0.0
C4689 C 0.9082 0.951 0.27594 0.0
C4690 C 0.89194 0.91732 0.29396 0.0
C4691 C 0.87289 0.91255 0.27587 0.0
C4692 C 0.87141 0.92755 0.25814 0.0
C4693 C 0.8889 0.94675 0.25859 0.0
C4694 C 0.89414 0.90209 0.31347 0.0
C4695 C 0.85151 0.92312 0.23846 0.0
C4696 C 0.84338 0.85002 0.2618 0.0
C4697 C 0.82546 0.84879 0.27579 0.0
C4698 C 0.85856 0.87064 0.26138 0.0
C4699 C 0.85552 0.89096 0.27461 0.0
C4700 C 0.83679 0.89014 0.28773 0.0
C4701 C 0.82219 0.86906 0.28845 0.0
C4702 C 0.87835 0.87051 0.24733 0.0
C4703 C 0.83253 0.9114 0.30167 0.0
H4704 H 0.92403 0.9396 0.30734 0.0
H4705 H 0.88774 0.9581 0.24496 0.0
H4706 H 0.87874 0.89957 0.32259 0.0
H4707 H 0.89588 0.88508 0.30514 0.0
H4708 H 0.90894 0.90917 0.32742 0.0
H4709 H 0.8531 0.93601 0.22564 0.0
H4710 H 0.84975 0.90601 0.22804 0.0
H4711 H 0.83578 0.92319 0.24672 0.0
H4712 H 0.84608 0.83463 0.25171 0.0
H4713 H 0.80849 0.86846 0.29933 0.0
H4714 H 0.89432 0.87588 0.25992 0.0
H4715 H 0.87846 0.88288 0.23401 0.0
H4716 H 0.87805 0.85342 0.23748 0.0
H4717 H 0.84567 0.91713 0.31763 0.0
H4718 H 0.81575 0.90854 0.30814 0.0
H4719 H 0.83361 0.92539 0.29021 0.0
C4720 C 0.70709 0.14335 0.79396 0.0
C4721 C 0.71344 0.12475 0.78129 0.0
C4722 C 0.72031 0.16517 0.79587 0.0
C4723 C 0.74021 0.16826 0.78486 0.0
C4724 C 0.74752 0.14946 0.77337 0.0
C4725 C 0.73399 0.12776 0.77178 0.0
C4726 C 0.71216 0.1851 0.80811 0.0
C4727 C 0.7689 0.15243 0.76163 0.0
C4728 C 0.75528 0.22343 0.75967 0.0
C4729 C 0.77262 0.23527 0.77732 0.0
C4730 C 0.74453 0.20143 0.76198 0.0
C4731 C 0.75157 0.19139 0.78245 0.0
C4732 C 0.76906 0.20348 0.80047 0.0
C4733 C 0.77964 0.22547 0.79752 0.0
C4734 C 0.72613 0.18878 0.74222 0.0
C4735 C 0.77688 0.19305 0.8224 0.0
H4736 H 0.6914 0.14103 0.8017 0.0
H4737 H 0.73903 0.11338 0.76214 0.0
H4738 H 0.72591 0.19618 0.82116 0.0
H4739 H 0.70696 0.19563 0.79426 0.0
H4740 H 0.69759 0.17954 0.81791 0.0
H4741 H 0.77239 0.13591 0.75388 0.0
H4742 H 0.76766 0.16323 0.74687 0.0
H4743 H 0.78345 0.16131 0.77514 0.0
H4744 H 0.75061 0.23121 0.74376 0.0
H4745 H 0.79388 0.23459 0.81044 0.0
H4746 H 0.7104 0.18301 0.75006 0.0
H4747 H 0.73116 0.17338 0.73366 0.0
H4748 H 0.72247 0.19942 0.72784 0.0
H4749 H 0.7627 0.18847 0.833 0.0
H4750 H 0.79098 0.20477 0.83449 0.0
H4751 H 0.78247 0.1771 0.81656 0.0
loop_
_geom_bond_atom_site_label_1
_geom_bond_atom_site_label_2
_geom_bond_distance
_geom_bond_site_symmetry_2
_ccdc_geom_bond_type
Co0 O1 2.216 . S
Co0 O2 2.091 . S
Co0 O4 2.004 . S
Co0 O10 2.021 . S
Co0 O12 2.137 . S
Co0 O13 2.244 . S
O1 Co0 2.216 . S
O1 C8 1.247 . S
O2 Co0 2.091 . S
O2 C8 1.261 . S
C3 O12 1.247 . S
C3 O13 1.272 . S
O4 Co0 2.004 . S
O4 C9 1.259 1_455 S
Co5 O6 2.061 1_455 S
Co5 O11 2.052 . S
Co5 O13 2.135 . S
O6 Co5 2.061 1_655 S
O6 C9 1.235 . S
C7 O10 1.238 . S
C7 O11 1.241 . S
C8 O1 1.247 . S
C8 O2 1.261 . S
C9 O4 1.259 1_655 S
C9 O6 1.235 . S
O10 Co0 2.021 . S
O10 C7 1.238 . S
O11 Co5 2.052 . S
O11 C7 1.241 . S
O12 Co0 2.137 . S
O12 C3 1.247 . S
O13 Co0 2.244 . S
O13 C3 1.272 . S
O13 Co5 2.135 . S
Co14 O15 2.216 1_455 S
Co14 O16 2.091 1_455 S
Co14 O18 2.004 . S
Co14 O24 2.021 . S
Co14 O26 2.137 . S
Co14 O27 2.244 . S
O15 Co14 2.216 1_655 S
O15 C22 1.247 . S
O16 Co14 2.091 1_655 S
O16 C22 1.261 . S
C17 O26 1.247 . S
C17 O27 1.272 . S
O18 Co14 2.004 . S
O18 C23 1.259 . S
Co19 O20 2.061 . S
Co19 O25 2.052 . S
Co19 O27 2.135 . S
O20 Co19 2.061 . S
O20 C23 1.235 . S
C21 O24 1.238 . S
C21 O25 1.241 . S
C22 O15 1.247 . S
C22 O16 1.261 . S
C23 O18 1.259 . S
C23 O20 1.235 . S
O24 Co14 2.021 . S
O24 C21 1.238 . S
O25 Co19 2.052 . S
O25 C21 1.241 . S
O26 Co14 2.137 . S
O26 C17 1.247 . S
O27 Co14 2.244 . S
O27 C17 1.272 . S
O27 Co19 2.135 . S
Co28 O29 2.216 . S
Co28 O30 2.091 . S
Co28 O32 2.004 . S
Co28 O38 2.021 . S
Co28 O40 2.137 . S
Co28 O41 2.244 . S
O29 Co28 2.216 . S
O29 C36 1.247 . S
O30 Co28 2.091 . S
O30 C36 1.261 . S
C31 O40 1.247 . S
C31 O41 1.272 . S
O32 Co28 2.004 . S
O32 C37 1.259 . S
Co33 O34 2.061 . S
Co33 O39 2.052 . S
Co33 O41 2.135 . S
O34 Co33 2.061 . S
O34 C37 1.235 . S
C35 O38 1.238 . S
C35 O39 1.241 . S
C36 O29 1.247 . S
C36 O30 1.261 . S
C37 O32 1.259 . S
C37 O34 1.235 . S
O38 Co28 2.021 . S
O38 C35 1.238 . S
O39 Co33 2.052 . S
O39 C35 1.241 . S
O40 Co28 2.137 . S
O40 C31 1.247 . S
O41 Co28 2.244 . S
O41 C31 1.272 . S
O41 Co33 2.135 . S
Co42 O43 2.216 . S
Co42 O44 2.091 . S
Co42 O46 2.004 . S
Co42 O52 2.021 . S
Co42 O54 2.137 . S
Co42 O55 2.244 . S
O43 Co42 2.216 . S
O43 C50 1.247 . S
O44 Co42 2.091 . S
O44 C50 1.261 . S
C45 O54 1.247 . S
C45 O55 1.272 . S
O46 Co42 2.004 . S
O46 C51 1.259 . S
Co47 O48 2.061 . S
Co47 O53 2.052 . S
Co47 O55 2.135 . S
O48 Co47 2.061 . S
O48 C51 1.235 . S
C49 O52 1.238 . S
C49 O53 1.241 . S
C50 O43 1.247 . S
C50 O44 1.261 . S
C51 O46 1.259 . S
C51 O48 1.235 . S
O52 Co42 2.021 . S
O52 C49 1.238 . S
O53 Co47 2.052 . S
O53 C49 1.241 . S
O54 Co42 2.137 . S
O54 C45 1.247 . S
O55 Co42 2.244 . S
O55 C45 1.272 . S
O55 Co47 2.135 . S
Co56 O57 2.216 . S
Co56 O58 2.091 . S
Co56 O60 2.004 . S
Co56 O66 2.021 . S
Co56 O68 2.137 . S
Co56 O69 2.244 . S
O57 Co56 2.216 . S
O57 C64 1.247 . S
O58 Co56 2.091 . S
O58 C64 1.261 . S
C59 O68 1.247 . S
C59 O69 1.272 . S
O60 Co56 2.004 . S
O60 C65 1.259 . S
Co61 O62 2.061 . S
Co61 O67 2.052 . S
Co61 O69 2.135 . S
O62 Co61 2.061 . S
O62 C65 1.235 . S
C63 O66 1.238 . S
C63 O67 1.241 . S
C64 O57 1.247 . S
C64 O58 1.261 . S
C65 O60 1.259 . S
C65 O62 1.235 . S
O66 Co56 2.021 . S
O66 C63 1.238 . S
O67 Co61 2.052 . S
O67 C63 1.241 . S
O68 Co56 2.137 . S
O68 C59 1.247 . S
O69 Co56 2.244 . S
O69 C59 1.272 . S
O69 Co61 2.135 . S
Co70 O71 2.216 . S
Co70 O72 2.091 . S
Co70 O74 2.004 . S
Co70 O80 2.021 . S
Co70 O82 2.137 . S
Co70 O83 2.244 . S
O71 Co70 2.216 . S
O71 C78 1.247 . S
O72 Co70 2.091 . S
O72 C78 1.261 . S
C73 O82 1.247 . S
C73 O83 1.272 . S
O74 Co70 2.004 . S
O74 C79 1.259 . S
Co75 O76 2.061 . S
Co75 O81 2.052 . S
Co75 O83 2.135 . S
O76 Co75 2.061 . S
O76 C79 1.235 . S
C77 O80 1.238 . S
C77 O81 1.241 . S
C78 O71 1.247 . S
C78 O72 1.261 . S
C79 O74 1.259 . S
C79 O76 1.235 . S
O80 Co70 2.021 . S
O80 C77 1.238 . S
O81 Co75 2.052 . S
O81 C77 1.241 . S
O82 Co70 2.137 . S
O82 C73 1.247 . S
O83 Co70 2.244 . S
O83 C73 1.272 . S
O83 Co75 2.135 . S
Co84 O85 2.216 . S
Co84 O86 2.091 . S
Co84 O88 2.004 . S
Co84 O94 2.021 . S
Co84 O96 2.137 . S
Co84 O97 2.244 . S
O85 Co84 2.216 . S
O85 C92 1.247 . S
O86 Co84 2.091 . S
O86 C92 1.261 . S
C87 O96 1.247 . S
C87 O97 1.272 . S
O88 Co84 2.004 . S
O88 C93 1.259 . S
Co89 O90 2.061 . S
Co89 O95 2.052 . S
Co89 O97 2.135 . S
O90 Co89 2.061 . S
O90 C93 1.235 . S
C91 O94 1.238 . S
C91 O95 1.241 . S
C92 O85 1.247 . S
C92 O86 1.261 . S
C93 O88 1.259 . S
C93 O90 1.235 . S
O94 Co84 2.021 . S
O94 C91 1.238 . S
O95 Co89 2.052 . S
O95 C91 1.241 . S
O96 Co84 2.137 . S
O96 C87 1.247 . S
O97 Co84 2.244 . S
O97 C87 1.272 . S
O97 Co89 2.135 . S
Co98 O99 2.216 . S
Co98 O100 2.091 . S
Co98 O102 2.004 1_455 S
Co98 O108 2.021 1_455 S
Co98 O110 2.137 . S
Co98 O111 2.244 1_455 S
O99 Co98 2.216 . S
O99 C106 1.247 . S
O100 Co98 2.091 . S
O100 C106 1.261 . S
C101 O110 1.247 . S
C101 O111 1.272 1_455 S
O102 Co98 2.004 1_655 S
O102 C107 1.259 . S
Co103 O104 2.061 . S
Co103 O109 2.052 . S
Co103 O111 2.135 . S
O104 Co103 2.061 . S
O104 C107 1.235 . S
C105 O108 1.238 . S
C105 O109 1.241 . S
C106 O99 1.247 . S
C106 O100 1.261 . S
C107 O102 1.259 . S
C107 O104 1.235 . S
O108 Co98 2.021 1_655 S
O108 C105 1.238 . S
O109 Co103 2.052 . S
O109 C105 1.241 . S
O110 Co98 2.137 . S
O110 C101 1.247 . S
O111 Co98 2.244 1_655 S
O111 C101 1.272 1_655 S
O111 Co103 2.135 . S
Co112 O113 2.216 . S
Co112 O114 2.091 . S
Co112 O116 2.004 1_545 S
Co112 O122 2.021 . S
Co112 O124 2.137 . S
Co112 O125 2.244 . S
O113 Co112 2.216 . S
O113 C120 1.247 . S
O114 Co112 2.091 . S
O114 C120 1.261 . S
C115 O124 1.247 . S
C115 O125 1.272 . S
O116 Co112 2.004 1_565 S
O116 C121 1.259 . S
Co117 O118 2.061 . S
Co117 O123 2.052 . S
Co117 O125 2.135 1_565 S
O118 Co117 2.061 . S
O118 C121 1.235 . S
C119 O122 1.238 . S
C119 O123 1.241 1_545 S
C120 O113 1.247 . S
C120 O114 1.261 . S
C121 O116 1.259 . S
C121 O118 1.235 . S
O122 Co112 2.021 . S
O122 C119 1.238 . S
O123 Co117 2.052 . S
O123 C119 1.241 1_565 S
O124 Co112 2.137 . S
O124 C115 1.247 . S
O125 Co112 2.244 . S
O125 C115 1.272 . S
O125 Co117 2.135 1_545 S
Co126 O127 2.216 . S
Co126 O128 2.091 . S
Co126 O130 2.004 . S
Co126 O136 2.021 . S
Co126 O138 2.137 . S
Co126 O139 2.244 . S
O127 Co126 2.216 . S
O127 C134 1.247 . S
O128 Co126 2.091 . S
O128 C134 1.261 . S
C129 O138 1.247 . S
C129 O139 1.272 . S
O130 Co126 2.004 . S
O130 C135 1.259 . S
Co131 O132 2.061 . S
Co131 O137 2.052 . S
Co131 O139 2.135 . S
O132 Co131 2.061 . S
O132 C135 1.235 . S
C133 O136 1.238 . S
C133 O137 1.241 . S
C134 O127 1.247 . S
C134 O128 1.261 . S
C135 O130 1.259 . S
C135 O132 1.235 . S
O136 Co126 2.021 . S
O136 C133 1.238 . S
O137 Co131 2.052 . S
O137 C133 1.241 . S
O138 Co126 2.137 . S
O138 C129 1.247 . S
O139 Co126 2.244 . S
O139 C129 1.272 . S
O139 Co131 2.135 . S
Co140 O141 2.216 . S
Co140 O142 2.091 . S
Co140 O144 2.004 . S
Co140 O150 2.021 . S
Co140 O152 2.137 . S
Co140 O153 2.244 . S
O141 Co140 2.216 . S
O141 C148 1.247 . S
O142 Co140 2.091 . S
O142 C148 1.261 . S
C143 O152 1.247 . S
C143 O153 1.272 . S
O144 Co140 2.004 . S
O144 C149 1.259 . S
Co145 O146 2.061 . S
Co145 O151 2.052 . S
Co145 O153 2.135 . S
O146 Co145 2.061 . S
O146 C149 1.235 . S
C147 O150 1.238 . S
C147 O151 1.241 . S
C148 O141 1.247 . S
C148 O142 1.261 . S
C149 O144 1.259 . S
C149 O146 1.235 . S
O150 Co140 2.021 . S
O150 C147 1.238 . S
O151 Co145 2.052 . S
O151 C147 1.241 . S
O152 Co140 2.137 . S
O152 C143 1.247 . S
O153 Co140 2.244 . S
O153 C143 1.272 . S
O153 Co145 2.135 . S
Co154 O155 2.216 . S
Co154 O156 2.091 1_556 S
Co154 O158 2.002 . S
Co154 O164 2.021 1_556 S
Co154 O166 2.137 . S
Co154 O167 2.244 . S
O155 Co154 2.216 . S
O155 C162 1.247 . S
O156 Co154 2.091 1_554 S
O156 C162 1.261 1_554 S
C157 O166 1.247 . S
C157 O167 1.272 . S
O158 Co154 2.002 . S
O158 C163 1.256 1_556 S
Co159 O160 2.061 1_556 S
Co159 O165 2.052 1_556 S
Co159 O167 2.135 . S
O160 Co159 2.061 1_554 S
O160 C163 1.235 . S
C161 O164 1.238 . S
C161 O165 1.241 . S
C162 O155 1.247 . S
C162 O156 1.261 1_556 S
C163 O158 1.256 1_554 S
C163 O160 1.235 . S
O164 Co154 2.021 1_554 S
O164 C161 1.238 . S
O165 Co159 2.052 1_554 S
O165 C161 1.241 . S
O166 Co154 2.137 . S
O166 C157 1.247 . S
O167 Co154 2.244 . S
O167 C157 1.272 . S
O167 Co159 2.135 . S
Co168 O169 2.216 . S
Co168 O170 2.091 . S
Co168 O172 2.004 . S
Co168 O178 2.021 . S
Co168 O180 2.137 . S
Co168 O181 2.244 . S
O169 Co168 2.216 . S
O169 C176 1.247 . S
O170 Co168 2.091 . S
O170 C176 1.261 . S
C171 O180 1.247 . S
C171 O181 1.272 . S
O172 Co168 2.004 . S
O172 C177 1.259 . S
Co173 O174 2.061 . S
Co173 O179 2.052 . S
Co173 O181 2.135 . S
O174 Co173 2.061 . S
O174 C177 1.235 . S
C175 O178 1.238 . S
C175 O179 1.241 . S
C176 O169 1.247 . S
C176 O170 1.261 . S
C177 O172 1.259 . S
C177 O174 1.235 . S
O178 Co168 2.021 . S
O178 C175 1.238 . S
O179 Co173 2.052 . S
O179 C175 1.241 . S
O180 Co168 2.137 . S
O180 C171 1.247 . S
O181 Co168 2.244 . S
O181 C171 1.272 . S
O181 Co173 2.135 . S
Co182 O183 2.216 . S
Co182 O184 2.091 . S
Co182 O186 2.004 . S
Co182 O192 2.021 . S
Co182 O194 2.137 . S
Co182 O195 2.244 . S
O183 Co182 2.216 . S
O183 C190 1.247 . S
O184 Co182 2.091 . S
O184 C190 1.261 . S
C185 O194 1.247 . S
C185 O195 1.272 . S
O186 Co182 2.004 . S
O186 C191 1.259 . S
Co187 O188 2.061 . S
Co187 O193 2.052 . S
Co187 O195 2.135 . S
O188 Co187 2.061 . S
O188 C191 1.235 . S
C189 O192 1.238 . S
C189 O193 1.241 . S
C190 O183 1.247 . S
C190 O184 1.261 . S
C191 O186 1.259 . S
C191 O188 1.235 . S
O192 Co182 2.021 . S
O192 C189 1.238 . S
O193 Co187 2.052 . S
O193 C189 1.241 . S
O194 Co182 2.137 . S
O194 C185 1.247 . S
O195 Co182 2.244 . S
O195 C185 1.272 . S
O195 Co187 2.135 . S
Co196 O197 2.216 . S
Co196 O198 2.091 . S
Co196 O200 2.004 . S
Co196 O206 2.021 . S
Co196 O208 2.137 . S
Co196 O209 2.244 . S
O197 Co196 2.216 . S
O197 C204 1.247 . S
O198 Co196 2.091 . S
O198 C204 1.261 . S
C199 O208 1.247 . S
C199 O209 1.272 . S
O200 Co196 2.004 . S
O200 C205 1.259 . S
Co201 O202 2.061 . S
Co201 O207 2.052 . S
Co201 O209 2.135 . S
O202 Co201 2.061 . S
O202 C205 1.235 . S
C203 O206 1.238 . S
C203 O207 1.241 . S
C204 O197 1.247 . S
C204 O198 1.261 . S
C205 O200 1.259 . S
C205 O202 1.235 . S
O206 Co196 2.021 . S
O206 C203 1.238 . S
O207 Co201 2.052 . S
O207 C203 1.241 . S
O208 Co196 2.137 . S
O208 C199 1.247 . S
O209 Co196 2.244 . S
O209 C199 1.272 . S
O209 Co201 2.135 . S
Co210 O211 2.216 . S
Co210 O212 2.091 . S
Co210 O214 2.004 . S
Co210 O220 2.021 . S
Co210 O222 2.137 . S
Co210 O223 2.244 . S
O211 Co210 2.216 . S
O211 C218 1.247 . S
O212 Co210 2.091 . S
O212 C218 1.261 . S
C213 O222 1.247 . S
C213 O223 1.272 . S
O214 Co210 2.004 . S
O214 C219 1.259 . S
Co215 O216 2.061 . S
Co215 O221 2.052 . S
Co215 O223 2.135 . S
O216 Co215 2.061 . S
O216 C219 1.235 . S
C217 O220 1.238 . S
C217 O221 1.241 . S
C218 O211 1.247 . S
C218 O212 1.261 . S
C219 O214 1.259 . S
C219 O216 1.235 . S
O220 Co210 2.021 . S
O220 C217 1.238 . S
O221 Co215 2.052 . S
O221 C217 1.241 . S
O222 Co210 2.137 . S
O222 C213 1.247 . S
O223 Co210 2.244 . S
O223 C213 1.272 . S
O223 Co215 2.135 . S
Co224 O225 2.216 . S
Co224 O226 2.091 . S
Co224 O228 2.004 1_545 S
Co224 O234 2.021 . S
Co224 O236 2.137 . S
Co224 O237 2.244 . S
O225 Co224 2.216 . S
O225 C232 1.247 . S
O226 Co224 2.091 . S
O226 C232 1.261 . S
C227 O236 1.247 . S
C227 O237 1.272 . S
O228 Co224 2.004 1_565 S
O228 C233 1.259 . S
Co229 O230 2.061 . S
Co229 O235 2.052 1_565 S
Co229 O237 2.135 1_565 S
O230 Co229 2.061 . S
O230 C233 1.235 . S
C231 O234 1.238 . S
C231 O235 1.241 . S
C232 O225 1.247 . S
C232 O226 1.261 . S
C233 O228 1.259 . S
C233 O230 1.235 . S
O234 Co224 2.021 . S
O234 C231 1.238 . S
O235 Co229 2.052 1_545 S
O235 C231 1.241 . S
O236 Co224 2.137 . S
O236 C227 1.247 . S
O237 Co224 2.244 . S
O237 C227 1.272 . S
O237 Co229 2.135 1_545 S
Co238 O239 2.216 . S
Co238 O240 2.091 . S
Co238 O242 2.004 . S
Co238 O248 2.021 . S
Co238 O250 2.137 . S
Co238 O251 2.244 . S
O239 Co238 2.216 . S
O239 C246 1.247 . S
O240 Co238 2.091 . S
O240 C246 1.261 . S
C241 O250 1.247 . S
C241 O251 1.272 . S
O242 Co238 2.004 . S
O242 C247 1.259 . S
Co243 O244 2.061 . S
Co243 O249 2.052 . S
Co243 O251 2.135 . S
O244 Co243 2.061 . S
O244 C247 1.235 . S
C245 O248 1.238 . S
C245 O249 1.241 . S
C246 O239 1.247 . S
C246 O240 1.261 . S
C247 O242 1.259 . S
C247 O244 1.235 . S
O248 Co238 2.021 . S
O248 C245 1.238 . S
O249 Co243 2.052 . S
O249 C245 1.241 . S
O250 Co238 2.137 . S
O250 C241 1.247 . S
O251 Co238 2.244 . S
O251 C241 1.272 . S
O251 Co243 2.135 . S
Co252 O253 2.216 . S
Co252 O254 2.091 . S
Co252 O256 2.004 . S
Co252 O262 2.021 . S
Co252 O264 2.137 . S
Co252 O265 2.244 . S
O253 Co252 2.216 . S
O253 C260 1.247 . S
O254 Co252 2.091 . S
O254 C260 1.261 . S
C255 O264 1.247 . S
C255 O265 1.272 . S
O256 Co252 2.004 . S
O256 C261 1.259 . S
Co257 O258 2.061 . S
Co257 O263 2.052 . S
Co257 O265 2.135 . S
O258 Co257 2.061 . S
O258 C261 1.235 . S
C259 O262 1.238 . S
C259 O263 1.241 . S
C260 O253 1.247 . S
C260 O254 1.261 . S
C261 O256 1.259 . S
C261 O258 1.235 . S
O262 Co252 2.021 . S
O262 C259 1.238 . S
O263 Co257 2.052 . S
O263 C259 1.241 . S
O264 Co252 2.137 . S
O264 C255 1.247 . S
O265 Co252 2.244 . S
O265 C255 1.272 . S
O265 Co257 2.135 . S
Co266 O267 2.216 . S
Co266 O268 2.091 . S
Co266 O270 2.004 . S
Co266 O276 2.021 . S
Co266 O278 2.137 . S
Co266 O279 2.244 . S
O267 Co266 2.216 . S
O267 C274 1.247 . S
O268 Co266 2.091 . S
O268 C274 1.261 . S
C269 O278 1.247 . S
C269 O279 1.272 . S
O270 Co266 2.004 . S
O270 C275 1.259 . S
Co271 O272 2.061 . S
Co271 O277 2.052 . S
Co271 O279 2.135 . S
O272 Co271 2.061 . S
O272 C275 1.235 . S
C273 O276 1.238 . S
C273 O277 1.241 . S
C274 O267 1.247 . S
C274 O268 1.261 . S
C275 O270 1.259 . S
C275 O272 1.235 . S
O276 Co266 2.021 . S
O276 C273 1.238 . S
O277 Co271 2.052 . S
O277 C273 1.241 . S
O278 Co266 2.137 . S
O278 C269 1.247 . S
O279 Co266 2.244 . S
O279 C269 1.272 . S
O279 Co271 2.135 . S
Co280 O281 2.216 . S
Co280 O282 2.091 . S
Co280 O284 2.004 . S
Co280 O290 2.021 . S
Co280 O292 2.137 1_554 S
Co280 O293 2.244 1_554 S
O281 Co280 2.216 . S
O281 C288 1.247 . S
O282 Co280 2.091 . S
O282 C288 1.261 . S
C283 O292 1.247 . S
C283 O293 1.272 . S
O284 Co280 2.004 . S
O284 C289 1.259 . S
Co285 O286 2.061 . S
Co285 O291 2.052 . S
Co285 O293 2.135 1_554 S
O286 Co285 2.061 . S
O286 C289 1.235 . S
C287 O290 1.238 . S
C287 O291 1.241 . S
C288 O281 1.247 . S
C288 O282 1.261 . S
C289 O284 1.259 . S
C289 O286 1.235 . S
O290 Co280 2.021 . S
O290 C287 1.238 . S
O291 Co285 2.052 . S
O291 C287 1.241 . S
O292 Co280 2.137 1_556 S
O292 C283 1.247 . S
O293 Co280 2.244 1_556 S
O293 C283 1.272 . S
O293 Co285 2.135 1_556 S
Co294 O295 2.216 . S
Co294 O296 2.091 . S
Co294 O298 2.004 . S
Co294 O304 2.021 . S
Co294 O306 2.137 . S
Co294 O307 2.244 . S
O295 Co294 2.216 . S
O295 C302 1.247 . S
O296 Co294 2.091 . S
O296 C302 1.261 . S
C297 O306 1.247 . S
C297 O307 1.272 . S
O298 Co294 2.004 . S
O298 C303 1.259 . S
Co299 O300 2.061 . S
Co299 O305 2.052 . S
Co299 O307 2.135 . S
O300 Co299 2.061 . S
O300 C303 1.235 . S
C301 O304 1.238 . S
C301 O305 1.241 . S
C302 O295 1.247 . S
C302 O296 1.261 . S
C303 O298 1.259 . S
C303 O300 1.235 . S
O304 Co294 2.021 . S
O304 C301 1.238 . S
O305 Co299 2.052 . S
O305 C301 1.241 . S
O306 Co294 2.137 . S
O306 C297 1.247 . S
O307 Co294 2.244 . S
O307 C297 1.272 . S
O307 Co299 2.135 . S
Co308 O309 2.216 . S
Co308 O310 2.091 . S
Co308 O312 2.004 . S
Co308 O318 2.021 . S
Co308 O320 2.137 . S
Co308 O321 2.244 . S
O309 Co308 2.216 . S
O309 C316 1.247 . S
O310 Co308 2.091 . S
O310 C316 1.261 . S
C311 O320 1.247 . S
C311 O321 1.272 . S
O312 Co308 2.004 . S
O312 C317 1.259 . S
Co313 O314 2.061 . S
Co313 O319 2.052 . S
Co313 O321 2.135 . S
O314 Co313 2.061 . S
O314 C317 1.235 . S
C315 O318 1.238 . S
C315 O319 1.241 . S
C316 O309 1.247 . S
C316 O310 1.261 . S
C317 O312 1.259 . S
C317 O314 1.235 . S
O318 Co308 2.021 . S
O318 C315 1.238 . S
O319 Co313 2.052 . S
O319 C315 1.241 . S
O320 Co308 2.137 . S
O320 C311 1.247 . S
O321 Co308 2.244 . S
O321 C311 1.272 . S
O321 Co313 2.135 . S
Co322 O323 2.216 . S
Co322 O324 2.091 . S
Co322 O326 2.004 . S
Co322 O332 2.021 . S
Co322 O334 2.137 . S
Co322 O335 2.244 . S
O323 Co322 2.216 . S
O323 C330 1.247 . S
O324 Co322 2.091 . S
O324 C330 1.261 . S
C325 O334 1.247 . S
C325 O335 1.272 . S
O326 Co322 2.004 . S
O326 C331 1.259 . S
Co327 O328 2.061 . S
Co327 O333 2.052 . S
Co327 O335 2.135 . S
O328 Co327 2.061 . S
O328 C331 1.235 . S
C329 O332 1.238 . S
C329 O333 1.241 . S
C330 O323 1.247 . S
C330 O324 1.261 . S
C331 O326 1.259 . S
C331 O328 1.235 . S
O332 Co322 2.021 . S
O332 C329 1.238 . S
O333 Co327 2.052 . S
O333 C329 1.241 . S
O334 Co322 2.137 . S
O334 C325 1.247 . S
O335 Co322 2.244 . S
O335 C325 1.272 . S
O335 Co327 2.135 . S
Tb336 N365 2.617 . S
Tb336 N371 2.572 . S
Tb336 O380 2.465 . S
Tb336 O381 2.387 . S
Tb336 O383 2.428 . S
Tb336 O384 2.308 . S
Tb336 O388 2.349 . S
Tb336 O391 2.393 . S
Tb336 C400 2.802 . S
C337 N338 1.379 . S
C337 C340 1.416 . S
C337 C344 1.424 1_556 S
N338 C337 1.379 . S
N338 C341 1.334 . S
N338 Tb347 2.617 1_566 S
C339 C341 1.390 . S
C339 C342 1.339 . S
C339 H359 0.930 . S
C340 C337 1.416 . S
C340 C342 1.416 . S
C340 C346 1.448 . S
C341 N338 1.334 . S
C341 C339 1.390 . S
C341 H352 0.934 1_565 S
C342 C339 1.339 . S
C342 C340 1.416 . S
C342 H363 0.930 . S
C343 C344 1.413 . S
C343 C345 1.427 1_554 S
C343 C349 1.416 . S
C344 C337 1.424 1_554 S
C344 C343 1.413 . S
C344 N348 1.361 . S
C345 C343 1.427 1_556 S
C345 C346 1.328 . S
C345 H360 0.918 1_556 S
C346 C340 1.448 . S
C346 C345 1.328 . S
C346 H361 0.930 . S
Tb347 N338 2.617 1_544 S
Tb347 N348 2.572 1_545 S
Tb347 O382 2.349 1_655 S
Tb347 O385 2.393 1_654 S
Tb347 O386 2.465 . S
Tb347 O387 2.387 1_645 S
Tb347 O389 2.428 1_554 S
Tb347 O390 2.308 1_655 S
Tb347 C411 2.802 . S
N348 C344 1.361 . S
N348 Tb347 2.572 1_565 S
N348 C350 1.340 . S
C349 C343 1.416 . S
C349 C351 1.332 . S
C349 H357 0.931 . S
C350 N348 1.340 . S
C350 C351 1.407 . S
C350 H356 0.930 . S
C351 C349 1.332 . S
C351 C350 1.407 . S
C351 H353 0.929 . S
H352 C341 0.934 1_545 S
H353 C351 0.929 . S
H354 C369 0.930 . S
H355 C376 0.929 1_556 S
H356 C350 0.930 . S
H357 C349 0.931 . S
H358 C372 0.930 . S
H359 C339 0.930 . S
H360 C345 0.918 1_554 S
H361 C346 0.930 . S
H362 C367 0.930 . S
H363 C342 0.930 . S
H364 C375 0.931 . S
N365 Tb336 2.617 . S
N365 C366 1.379 . S
N365 C369 1.334 . S
C366 N365 1.379 . S
C366 C368 1.416 . S
C366 C374 1.424 . S
C367 H362 0.930 . S
C367 C369 1.390 . S
C367 C370 1.339 . S
C368 C366 1.416 . S
C368 C370 1.416 . S
C368 C401 1.448 . S
C369 H354 0.930 . S
C369 N365 1.334 . S
C369 C367 1.390 . S
C370 C367 1.339 . S
C370 C368 1.416 . S
C370 H377 0.930 . S
N371 Tb336 2.572 . S
N371 C372 1.340 . S
N371 C374 1.361 . S
C372 H358 0.930 . S
C372 N371 1.340 . S
C372 C376 1.407 . S
C373 C374 1.413 . S
C373 C375 1.416 . S
C373 C402 1.427 . S
C374 C366 1.424 . S
C374 N371 1.361 . S
C374 C373 1.413 . S
C375 H364 0.931 . S
C375 C373 1.416 . S
C375 C376 1.332 . S
C376 H355 0.929 1_554 S
C376 C372 1.407 . S
C376 C375 1.332 . S
H377 C370 0.930 . S
H378 C401 0.930 . S
H379 C402 0.929 . S
O380 Tb336 2.465 . S
O380 C400 1.264 . S
O381 Tb336 2.387 . S
O381 C392 1.264 . S
O382 Tb347 2.349 1_455 S
O382 C392 1.243 . S
O383 Tb336 2.428 . S
O383 C400 1.256 . S
O384 Tb336 2.308 . S
O384 C399 1.266 1_554 S
O385 Tb347 2.393 1_456 S
O385 C399 1.248 . S
O386 Tb347 2.465 . S
O386 C411 1.264 . S
O387 Tb347 2.387 1_465 S
O387 C403 1.264 . S
O388 Tb336 2.349 . S
O388 C403 1.243 1_545 S
O389 Tb347 2.428 1_556 S
O389 C411 1.256 1_556 S
O390 Tb347 2.308 1_455 S
O390 C410 1.266 . S
O391 Tb336 2.393 . S
O391 C410 1.248 . S
C392 O381 1.264 . S
C392 O382 1.243 . S
C393 C396 1.399 . S
C393 C398 1.383 . S
C393 C400 1.496 . S
C394 C395 1.399 . S
C394 C398 1.389 . S
C395 C394 1.399 . S
C395 C397 1.380 . S
C395 H412 0.929 . S
C396 C393 1.399 . S
C396 C397 1.392 . S
C396 H413 0.929 . S
C397 C395 1.380 . S
C397 C396 1.392 . S
C397 H414 0.929 . S
C398 C393 1.383 . S
C398 C394 1.389 . S
C398 H415 0.931 . S
C399 O384 1.266 1_556 S
C399 O385 1.248 . S
C400 Tb336 2.802 . S
C400 O380 1.264 . S
C400 O383 1.256 . S
C400 C393 1.496 . S
C401 C368 1.448 . S
C401 H378 0.930 . S
C401 C402 1.328 . S
C402 C373 1.427 . S
C402 H379 0.929 . S
C402 C401 1.328 . S
C403 O387 1.264 . S
C403 O388 1.243 1_565 S
C404 C407 1.399 1_554 S
C404 C408 1.383 . S
C404 C411 1.496 . S
C405 C406 1.399 1_554 S
C405 C408 1.389 . S
C406 C405 1.399 1_556 S
C406 C409 1.380 . S
C406 H416 0.929 . S
C407 C404 1.399 1_556 S
C407 C409 1.392 . S
C407 H417 0.929 . S
C408 C404 1.383 . S
C408 C405 1.389 . S
C408 H418 0.931 . S
C409 C406 1.380 . S
C409 C407 1.392 . S
C409 H419 0.929 . S
C410 O390 1.266 . S
C410 O391 1.248 . S
C411 Tb347 2.802 . S
C411 O386 1.264 . S
C411 O389 1.256 1_554 S
C411 C404 1.496 . S
H412 C395 0.929 . S
H413 C396 0.929 . S
H414 C397 0.929 . S
H415 C398 0.931 . S
H416 C406 0.929 . S
H417 C407 0.929 . S
H418 C408 0.931 . S
H419 C409 0.929 . S
Tb420 N449 2.617 . S
Tb420 N455 2.572 . S
Tb420 O464 2.465 . S
Tb420 O465 2.387 . S
Tb420 O467 2.428 . S
Tb420 O468 2.308 . S
Tb420 O472 2.349 . S
Tb420 O475 2.393 . S
Tb420 C484 2.802 . S
C421 N422 1.379 . S
C421 C424 1.416 . S
C421 C428 1.424 . S
N422 C421 1.379 . S
N422 C425 1.334 . S
N422 Tb431 2.617 . S
C423 C425 1.390 . S
C423 C426 1.339 . S
C423 H443 0.930 . S
C424 C421 1.416 . S
C424 C426 1.416 . S
C424 C430 1.448 . S
C425 N422 1.334 . S
C425 C423 1.390 . S
C425 H436 0.930 . S
C426 C423 1.339 . S
C426 C424 1.416 . S
C426 H447 0.930 . S
C427 C428 1.413 . S
C427 C429 1.427 . S
C427 C433 1.416 . S
C428 C421 1.424 . S
C428 C427 1.413 . S
C428 N432 1.361 . S
C429 C427 1.427 . S
C429 C430 1.328 . S
C429 H444 0.929 . S
C430 C424 1.448 . S
C430 C429 1.328 . S
C430 H445 0.930 . S
Tb431 N422 2.617 . S
Tb431 N432 2.572 . S
Tb431 O466 2.349 . S
Tb431 O469 2.393 . S
Tb431 O470 2.465 . S
Tb431 O471 2.387 . S
Tb431 O473 2.428 . S
Tb431 O474 2.308 . S
Tb431 C495 2.802 . S
N432 C428 1.361 . S
N432 Tb431 2.572 . S
N432 C434 1.340 . S
C433 C427 1.416 . S
C433 C435 1.332 . S
C433 H441 0.931 . S
C434 N432 1.340 . S
C434 C435 1.407 . S
C434 H440 0.930 . S
C435 C433 1.332 . S
C435 C434 1.407 . S
C435 H437 0.929 . S
H436 C425 0.930 . S
H437 C435 0.929 . S
H438 C453 0.930 . S
H439 C460 0.929 . S
H440 C434 0.930 . S
H441 C433 0.931 . S
H442 C456 0.930 . S
H443 C423 0.930 . S
H444 C429 0.929 . S
H445 C430 0.930 . S
H446 C451 0.930 . S
H447 C426 0.930 . S
H448 C459 0.931 . S
N449 Tb420 2.617 . S
N449 C450 1.379 . S
N449 C453 1.334 . S
C450 N449 1.379 . S
C450 C452 1.416 . S
C450 C458 1.424 . S
C451 H446 0.930 . S
C451 C453 1.390 . S
C451 C454 1.339 . S
C452 C450 1.416 . S
C452 C454 1.416 . S
C452 C485 1.448 . S
C453 H438 0.930 . S
C453 N449 1.334 . S
C453 C451 1.390 . S
C454 C451 1.339 . S
C454 C452 1.416 . S
C454 H461 0.930 . S
N455 Tb420 2.572 . S
N455 C456 1.340 . S
N455 C458 1.361 . S
C456 H442 0.930 . S
C456 N455 1.340 . S
C456 C460 1.407 . S
C457 C458 1.413 . S
C457 C459 1.416 . S
C457 C486 1.427 . S
C458 C450 1.424 . S
C458 N455 1.361 . S
C458 C457 1.413 . S
C459 H448 0.931 . S
C459 C457 1.416 . S
C459 C460 1.332 . S
C460 H439 0.929 . S
C460 C456 1.407 . S
C460 C459 1.332 . S
H461 C454 0.930 . S
H462 C485 0.930 . S
H463 C486 0.929 . S
O464 Tb420 2.465 . S
O464 C484 1.264 . S
O465 Tb420 2.387 . S
O465 C476 1.264 . S
O466 Tb431 2.349 . S
O466 C476 1.243 . S
O467 Tb420 2.428 . S
O467 C484 1.256 . S
O468 Tb420 2.308 . S
O468 C483 1.266 . S
O469 Tb431 2.393 . S
O469 C483 1.248 . S
O470 Tb431 2.465 . S
O470 C495 1.264 . S
O471 Tb431 2.387 . S
O471 C487 1.264 . S
O472 Tb420 2.349 . S
O472 C487 1.243 . S
O473 Tb431 2.428 . S
O473 C495 1.256 . S
O474 Tb431 2.308 . S
O474 C494 1.266 . S
O475 Tb420 2.393 . S
O475 C494 1.248 . S
C476 O465 1.264 . S
C476 O466 1.243 . S
C477 C480 1.399 . S
C477 C482 1.383 . S
C477 C484 1.496 . S
C478 C479 1.399 . S
C478 C482 1.389 . S
C479 C478 1.399 . S
C479 C481 1.380 . S
C479 H496 0.929 . S
C480 C477 1.399 . S
C480 C481 1.392 . S
C480 H497 0.929 . S
C481 C479 1.380 . S
C481 C480 1.392 . S
C481 H498 0.929 . S
C482 C477 1.383 . S
C482 C478 1.389 . S
C482 H499 0.931 . S
C483 O468 1.266 . S
C483 O469 1.248 . S
C484 Tb420 2.802 . S
C484 O464 1.264 . S
C484 O467 1.256 . S
C484 C477 1.496 . S
C485 C452 1.448 . S
C485 H462 0.930 . S
C485 C486 1.328 . S
C486 C457 1.427 . S
C486 H463 0.929 . S
C486 C485 1.328 . S
C487 O471 1.264 . S
C487 O472 1.243 . S
C488 C491 1.399 . S
C488 C492 1.383 . S
C488 C495 1.496 . S
C489 C490 1.399 . S
C489 C492 1.389 . S
C490 C489 1.399 . S
C490 C493 1.380 . S
C490 H500 0.929 . S
C491 C488 1.399 . S
C491 C493 1.392 . S
C491 H501 0.929 . S
C492 C488 1.383 . S
C492 C489 1.389 . S
C492 H502 0.931 . S
C493 C490 1.380 . S
C493 C491 1.392 . S
C493 H503 0.929 . S
C494 O474 1.266 . S
C494 O475 1.248 . S
C495 Tb431 2.802 . S
C495 O470 1.264 . S
C495 O473 1.256 . S
C495 C488 1.496 . S
H496 C479 0.929 . S
H497 C480 0.929 . S
H498 C481 0.929 . S
H499 C482 0.931 . S
H500 C490 0.929 . S
H501 C491 0.929 . S
H502 C492 0.931 . S
H503 C493 0.929 . S
Tb504 N533 2.601 1_545 S
Tb504 N539 2.572 1_545 S
Tb504 O548 2.465 . S
Tb504 O549 2.387 1_545 S
Tb504 O551 2.428 . S
Tb504 O552 2.308 . S
Tb504 O556 2.349 . S
Tb504 O559 2.393 . S
Tb504 C568 2.802 . S
C505 N506 1.379 . S
C505 C508 1.416 . S
C505 C512 1.424 . S
N506 C505 1.379 . S
N506 C509 1.334 . S
N506 Tb515 2.617 . S
C507 C509 1.390 . S
C507 C510 1.339 . S
C507 H527 0.930 . S
C508 C505 1.416 . S
C508 C510 1.416 . S
C508 C514 1.448 . S
C509 N506 1.334 . S
C509 C507 1.390 . S
C509 H520 0.930 . S
C510 C507 1.339 . S
C510 C508 1.416 . S
C510 H531 0.930 . S
C511 C512 1.413 . S
C511 C513 1.427 . S
C511 C517 1.416 . S
C512 C505 1.424 . S
C512 C511 1.413 . S
C512 N516 1.361 . S
C513 C511 1.427 . S
C513 C514 1.328 . S
C513 H528 0.929 . S
C514 C508 1.448 . S
C514 C513 1.328 . S
C514 H529 0.930 . S
Tb515 N506 2.617 . S
Tb515 N516 2.572 . S
Tb515 O550 2.349 1_545 S
Tb515 O553 2.393 . S
Tb515 O554 2.465 . S
Tb515 O555 2.387 . S
Tb515 O557 2.428 . S
Tb515 O558 2.308 . S
Tb515 C579 2.802 . S
N516 C512 1.361 . S
N516 Tb515 2.572 . S
N516 C518 1.340 . S
C517 C511 1.416 . S
C517 C519 1.332 . S
C517 H525 0.931 . S
C518 N516 1.340 . S
C518 C519 1.407 . S
C518 H524 0.930 . S
C519 C517 1.332 . S
C519 C518 1.407 . S
C519 H521 0.929 . S
H520 C509 0.930 . S
H521 C519 0.929 . S
H522 C537 0.930 . S
H523 C544 0.929 . S
H524 C518 0.930 . S
H525 C517 0.931 . S
H526 C540 0.930 . S
H527 C507 0.930 . S
H528 C513 0.929 . S
H529 C514 0.930 . S
H530 C535 0.930 . S
H531 C510 0.930 . S
H532 C543 0.931 . S
N533 Tb504 2.601 1_565 S
N533 C534 1.397 . S
N533 C537 1.335 1_565 S
C534 N533 1.397 . S
C534 C536 1.416 . S
C534 C542 1.424 . S
C535 H530 0.930 . S
C535 C537 1.390 1_565 S
C535 C538 1.339 . S
C536 C534 1.416 . S
C536 C538 1.416 . S
C536 C569 1.448 . S
C537 H522 0.930 . S
C537 N533 1.335 1_545 S
C537 C535 1.390 1_545 S
C538 C535 1.339 . S
C538 C536 1.416 . S
C538 H545 0.930 . S
N539 Tb504 2.572 1_565 S
N539 C540 1.340 . S
N539 C542 1.361 . S
C540 H526 0.930 . S
C540 N539 1.340 . S
C540 C544 1.407 . S
C541 C542 1.413 . S
C541 C543 1.416 . S
C541 C570 1.427 . S
C542 C534 1.424 . S
C542 N539 1.361 . S
C542 C541 1.413 . S
C543 H532 0.931 . S
C543 C541 1.416 . S
C543 C544 1.332 . S
C544 H523 0.929 . S
C544 C540 1.407 . S
C544 C543 1.332 . S
H545 C538 0.930 . S
H546 C569 0.930 . S
H547 C570 0.929 . S
O548 Tb504 2.465 . S
O548 C568 1.264 . S
O549 Tb504 2.387 1_565 S
O549 C560 1.264 . S
O550 Tb515 2.349 1_565 S
O550 C560 1.243 . S
O551 Tb504 2.428 . S
O551 C568 1.256 . S
O552 Tb504 2.308 . S
O552 C567 1.266 . S
O553 Tb515 2.393 . S
O553 C567 1.248 . S
O554 Tb515 2.465 . S
O554 C579 1.264 . S
O555 Tb515 2.387 . S
O555 C571 1.264 . S
O556 Tb504 2.349 . S
O556 C571 1.243 . S
O557 Tb515 2.428 . S
O557 C579 1.256 . S
O558 Tb515 2.308 . S
O558 C578 1.266 . S
O559 Tb504 2.393 . S
O559 C578 1.248 . S
C560 O549 1.264 . S
C560 O550 1.243 . S
C561 C564 1.399 . S
C561 C566 1.383 . S
C561 C568 1.496 . S
C562 C563 1.399 . S
C562 C566 1.389 . S
C563 C562 1.399 . S
C563 C565 1.380 . S
C563 H580 0.929 . S
C564 C561 1.399 . S
C564 C565 1.392 . S
C564 H581 0.929 . S
C565 C563 1.380 . S
C565 C564 1.392 . S
C565 H582 0.929 . S
C566 C561 1.383 . S
C566 C562 1.389 . S
C566 H583 0.931 . S
C567 O552 1.266 . S
C567 O553 1.248 . S
C568 Tb504 2.802 . S
C568 O548 1.264 . S
C568 O551 1.256 . S
C568 C561 1.496 . S
C569 C536 1.448 . S
C569 H546 0.930 . S
C569 C570 1.328 . S
C570 C541 1.427 . S
C570 H547 0.929 . S
C570 C569 1.328 . S
C571 O555 1.264 . S
C571 O556 1.243 . S
C572 C575 1.399 . S
C572 C576 1.383 . S
C572 C579 1.496 1_565 S
C573 C574 1.399 . S
C573 C576 1.389 . S
C574 C573 1.399 . S
C574 C577 1.380 . S
C574 H584 0.929 . S
C575 C572 1.399 . S
C575 C577 1.392 . S
C575 H585 0.929 . S
C576 C572 1.383 . S
C576 C573 1.389 . S
C576 H586 0.931 . S
C577 C574 1.380 . S
C577 C575 1.392 . S
C577 H587 0.929 . S
C578 O558 1.266 . S
C578 O559 1.248 . S
C579 Tb515 2.802 . S
C579 O554 1.264 . S
C579 O557 1.256 . S
C579 C572 1.496 1_545 S
H580 C563 0.929 . S
H581 C564 0.929 . S
H582 C565 0.929 . S
H583 C566 0.931 . S
H584 C574 0.929 . S
H585 C575 0.929 . S
H586 C576 0.931 . S
H587 C577 0.929 . S
Tb588 N617 2.617 . S
Tb588 N623 2.572 . S
Tb588 O632 2.465 . S
Tb588 O633 2.387 . S
Tb588 O635 2.428 . S
Tb588 O636 2.308 . S
Tb588 O640 2.349 . S
Tb588 O643 2.393 . S
Tb588 C652 2.802 . S
C589 N590 1.379 . S
C589 C592 1.416 . S
C589 C596 1.424 . S
N590 C589 1.379 . S
N590 C593 1.334 . S
N590 Tb599 2.617 . S
C591 C593 1.390 . S
C591 C594 1.339 . S
C591 H611 0.930 . S
C592 C589 1.416 . S
C592 C594 1.416 . S
C592 C598 1.448 . S
C593 N590 1.334 . S
C593 C591 1.390 . S
C593 H604 0.930 . S
C594 C591 1.339 . S
C594 C592 1.416 . S
C594 H615 0.930 . S
C595 C596 1.413 . S
C595 C597 1.427 . S
C595 C601 1.416 . S
C596 C589 1.424 . S
C596 C595 1.413 . S
C596 N600 1.361 . S
C597 C595 1.427 . S
C597 C598 1.328 . S
C597 H612 0.929 . S
C598 C592 1.448 . S
C598 C597 1.328 . S
C598 H613 0.930 . S
Tb599 N590 2.617 . S
Tb599 N600 2.572 . S
Tb599 O634 2.349 . S
Tb599 O637 2.393 . S
Tb599 O638 2.465 . S
Tb599 O639 2.387 . S
Tb599 O641 2.428 . S
Tb599 O642 2.308 . S
Tb599 C663 2.802 . S
N600 C596 1.361 . S
N600 Tb599 2.572 . S
N600 C602 1.340 . S
C601 C595 1.416 . S
C601 C603 1.332 . S
C601 H609 0.931 . S
C602 N600 1.340 . S
C602 C603 1.407 . S
C602 H608 0.930 . S
C603 C601 1.332 . S
C603 C602 1.407 . S
C603 H605 0.929 . S
H604 C593 0.930 . S
H605 C603 0.929 . S
H606 C621 0.930 . S
H607 C628 0.929 . S
H608 C602 0.930 . S
H609 C601 0.931 . S
H610 C624 0.930 . S
H611 C591 0.930 . S
H612 C597 0.929 . S
H613 C598 0.930 . S
H614 C619 0.930 . S
H615 C594 0.930 . S
H616 C627 0.931 . S
N617 Tb588 2.617 . S
N617 C618 1.379 . S
N617 C621 1.334 . S
C618 N617 1.379 . S
C618 C620 1.416 . S
C618 C626 1.424 . S
C619 H614 0.930 . S
C619 C621 1.390 . S
C619 C622 1.339 . S
C620 C618 1.416 . S
C620 C622 1.416 . S
C620 C653 1.448 . S
C621 H606 0.930 . S
C621 N617 1.334 . S
C621 C619 1.390 . S
C622 C619 1.339 . S
C622 C620 1.416 . S
C622 H629 0.930 . S
N623 Tb588 2.572 . S
N623 C624 1.340 . S
N623 C626 1.361 . S
C624 H610 0.930 . S
C624 N623 1.340 . S
C624 C628 1.407 . S
C625 C626 1.413 . S
C625 C627 1.416 . S
C625 C654 1.427 . S
C626 C618 1.424 . S
C626 N623 1.361 . S
C626 C625 1.413 . S
C627 H616 0.931 . S
C627 C625 1.416 . S
C627 C628 1.332 . S
C628 H607 0.929 . S
C628 C624 1.407 . S
C628 C627 1.332 . S
H629 C622 0.930 . S
H630 C653 0.930 . S
H631 C654 0.929 . S
O632 Tb588 2.465 . S
O632 C652 1.264 . S
O633 Tb588 2.387 . S
O633 C644 1.264 . S
O634 Tb599 2.349 . S
O634 C644 1.243 . S
O635 Tb588 2.428 . S
O635 C652 1.256 . S
O636 Tb588 2.308 . S
O636 C651 1.266 . S
O637 Tb599 2.393 . S
O637 C651 1.248 . S
O638 Tb599 2.465 . S
O638 C663 1.264 . S
O639 Tb599 2.387 . S
O639 C655 1.264 . S
O640 Tb588 2.349 . S
O640 C655 1.243 . S
O641 Tb599 2.428 . S
O641 C663 1.256 . S
O642 Tb599 2.308 . S
O642 C662 1.266 . S
O643 Tb588 2.393 . S
O643 C662 1.248 . S
C644 O633 1.264 . S
C644 O634 1.243 . S
C645 C648 1.399 . S
C645 C650 1.383 . S
C645 C652 1.496 . S
C646 C647 1.399 . S
C646 C650 1.389 . S
C647 C646 1.399 . S
C647 C649 1.380 . S
C647 H664 0.929 . S
C648 C645 1.399 . S
C648 C649 1.392 . S
C648 H665 0.929 . S
C649 C647 1.380 . S
C649 C648 1.392 . S
C649 H666 0.929 . S
C650 C645 1.383 . S
C650 C646 1.389 . S
C650 H667 0.931 . S
C651 O636 1.266 . S
C651 O637 1.248 . S
C652 Tb588 2.802 . S
C652 O632 1.264 . S
C652 O635 1.256 . S
C652 C645 1.496 . S
C653 C620 1.448 . S
C653 H630 0.930 . S
C653 C654 1.328 . S
C654 C625 1.427 . S
C654 H631 0.929 . S
C654 C653 1.328 . S
C655 O639 1.264 . S
C655 O640 1.243 . S
C656 C659 1.399 . S
C656 C660 1.383 . S
C656 C663 1.496 . S
C657 C658 1.399 . S
C657 C660 1.389 . S
C658 C657 1.399 . S
C658 C661 1.380 . S
C658 H668 0.929 . S
C659 C656 1.399 . S
C659 C661 1.392 . S
C659 H669 0.929 . S
C660 C656 1.383 . S
C660 C657 1.389 . S
C660 H670 0.931 . S
C661 C658 1.380 . S
C661 C659 1.392 . S
C661 H671 0.929 . S
C662 O642 1.266 . S
C662 O643 1.248 . S
C663 Tb599 2.802 . S
C663 O638 1.264 . S
C663 O641 1.256 . S
C663 C656 1.496 . S
H664 C647 0.929 . S
H665 C648 0.929 . S
H666 C649 0.929 . S
H667 C650 0.931 . S
H668 C658 0.929 . S
H669 C659 0.929 . S
H670 C660 0.931 . S
H671 C661 0.929 . S
Tb672 N701 2.617 . S
Tb672 N707 2.572 . S
Tb672 O716 2.465 . S
Tb672 O717 2.387 1_565 S
Tb672 O719 2.428 . S
Tb672 O720 2.308 1_565 S
Tb672 O724 2.349 1_565 S
Tb672 O727 2.393 1_565 S
Tb672 C736 2.802 . S
C673 N674 1.379 1_455 S
C673 C676 1.416 1_455 S
C673 C680 1.424 . S
N674 C673 1.379 1_655 S
N674 C677 1.334 . S
N674 Tb683 2.617 1_655 S
C675 C677 1.390 . S
C675 C678 1.339 . S
C675 H695 0.930 . S
C676 C673 1.416 1_655 S
C676 C678 1.416 . S
C676 C682 1.448 1_655 S
C677 N674 1.334 . S
C677 C675 1.390 . S
C677 H688 0.930 . S
C678 C675 1.339 . S
C678 C676 1.416 . S
C678 H699 0.930 . S
C679 C680 1.413 . S
C679 C681 1.427 . S
C679 C685 1.416 . S
C680 C673 1.424 . S
C680 C679 1.413 . S
C680 N684 1.361 . S
C681 C679 1.427 . S
C681 C682 1.328 . S
C681 H696 0.929 . S
C682 C676 1.448 1_455 S
C682 C681 1.328 . S
C682 H697 0.903 1_455 S
Tb683 N674 2.617 1_455 S
Tb683 N684 2.572 . S
Tb683 O718 2.349 . S
Tb683 O721 2.393 1_455 S
Tb683 O722 2.465 . S
Tb683 O723 2.387 . S
Tb683 O725 2.428 1_455 S
Tb683 O726 2.308 . S
Tb683 C747 2.802 . S
N684 C680 1.361 . S
N684 Tb683 2.572 . S
N684 C686 1.340 . S
C685 C679 1.416 . S
C685 C687 1.332 . S
C685 H693 0.931 . S
C686 N684 1.340 . S
C686 C687 1.407 . S
C686 H692 0.930 . S
C687 C685 1.332 . S
C687 C686 1.407 . S
C687 H689 0.929 . S
H688 C677 0.930 . S
H689 C687 0.929 . S
H690 C705 0.930 1_545 S
H691 C712 0.929 . S
H692 C686 0.930 . S
H693 C685 0.931 . S
H694 C708 0.919 1_655 S
H695 C675 0.930 . S
H696 C681 0.929 . S
H697 C682 0.903 1_655 S
H698 C703 0.930 . S
H699 C678 0.930 . S
H700 C711 0.931 . S
N701 Tb672 2.617 . S
N701 C702 1.379 . S
N701 C705 1.334 . S
C702 N701 1.379 . S
C702 C704 1.416 . S
C702 C710 1.424 . S
C703 H698 0.930 . S
C703 C705 1.390 . S
C703 C706 1.339 . S
C704 C702 1.416 . S
C704 C706 1.416 . S
C704 C737 1.448 . S
C705 H690 0.930 1_565 S
C705 N701 1.334 . S
C705 C703 1.390 . S
C706 C703 1.339 . S
C706 C704 1.416 . S
C706 H713 0.930 . S
N707 Tb672 2.572 . S
N707 C708 1.356 . S
N707 C710 1.361 . S
C708 H694 0.919 1_455 S
C708 N707 1.356 . S
C708 C712 1.402 1_455 S
C709 C710 1.413 . S
C709 C711 1.416 1_455 S
C709 C738 1.427 . S
C710 C702 1.424 . S
C710 N707 1.361 . S
C710 C709 1.413 . S
C711 H700 0.931 . S
C711 C709 1.416 1_655 S
C711 C712 1.332 . S
C712 H691 0.929 . S
C712 C708 1.402 1_655 S
C712 C711 1.332 . S
H713 C706 0.930 . S
H714 C737 0.930 . S
H715 C738 0.929 . S
O716 Tb672 2.465 . S
O716 C736 1.264 . S
O717 Tb672 2.387 1_545 S
O717 C728 1.264 . S
O718 Tb683 2.349 . S
O718 C728 1.243 . S
O719 Tb672 2.428 . S
O719 C736 1.256 . S
O720 Tb672 2.308 1_545 S
O720 C735 1.266 1_455 S
O721 Tb683 2.393 1_655 S
O721 C735 1.248 . S
O722 Tb683 2.465 . S
O722 C747 1.264 . S
O723 Tb683 2.387 . S
O723 C739 1.264 . S
O724 Tb672 2.349 1_545 S
O724 C739 1.243 . S
O725 Tb683 2.428 1_655 S
O725 C747 1.256 1_655 S
O726 Tb683 2.308 . S
O726 C746 1.266 . S
O727 Tb672 2.393 1_545 S
O727 C746 1.248 . S
C728 O717 1.264 . S
C728 O718 1.243 . S
C729 C732 1.399 . S
C729 C734 1.383 . S
C729 C736 1.496 . S
C730 C731 1.399 . S
C730 C734 1.389 . S
C731 C730 1.399 . S
C731 C733 1.380 . S
C731 H748 0.929 . S
C732 C729 1.399 . S
C732 C733 1.392 . S
C732 H749 0.929 . S
C733 C731 1.380 . S
C733 C732 1.392 . S
C733 H750 0.929 . S
C734 C729 1.383 . S
C734 C730 1.389 . S
C734 H751 0.931 . S
C735 O720 1.266 1_655 S
C735 O721 1.248 . S
C736 Tb672 2.802 . S
C736 O716 1.264 . S
C736 O719 1.256 . S
C736 C729 1.496 . S
C737 C704 1.448 . S
C737 H714 0.930 . S
C737 C738 1.328 . S
C738 C709 1.427 . S
C738 H715 0.929 . S
C738 C737 1.328 . S
C739 O723 1.264 . S
C739 O724 1.243 . S
C740 C743 1.399 1_455 S
C740 C744 1.383 . S
C740 C747 1.496 . S
C741 C742 1.351 1_455 S
C741 C744 1.389 . S
C742 C741 1.351 1_655 S
C742 C745 1.414 . S
C742 H752 0.945 . S
C743 C740 1.399 1_655 S
C743 C745 1.392 . S
C743 H753 0.929 . S
C744 C740 1.383 . S
C744 C741 1.389 . S
C744 H754 0.931 . S
C745 C742 1.414 . S
C745 C743 1.392 . S
C745 H755 0.929 . S
C746 O726 1.266 . S
C746 O727 1.248 . S
C747 Tb683 2.802 . S
C747 O722 1.264 . S
C747 O725 1.256 1_455 S
C747 C740 1.496 . S
H748 C731 0.929 . S
H749 C732 0.929 . S
H750 C733 0.929 . S
H751 C734 0.931 . S
H752 C742 0.945 . S
H753 C743 0.929 . S
H754 C744 0.931 . S
H755 C745 0.929 . S
Tb756 N785 2.617 . S
Tb756 N791 2.572 . S
Tb756 O800 2.465 . S
Tb756 O801 2.387 . S
Tb756 O803 2.428 . S
Tb756 O804 2.308 . S
Tb756 O808 2.349 . S
Tb756 O811 2.393 . S
Tb756 C820 2.802 . S
C757 N758 1.379 . S
C757 C760 1.416 . S
C757 C764 1.424 . S
N758 C757 1.379 . S
N758 C761 1.334 . S
N758 Tb767 2.617 . S
C759 C761 1.390 . S
C759 C762 1.339 . S
C759 H779 0.930 . S
C760 C757 1.416 . S
C760 C762 1.416 . S
C760 C766 1.448 . S
C761 N758 1.334 . S
C761 C759 1.390 . S
C761 H772 0.930 . S
C762 C759 1.339 . S
C762 C760 1.416 . S
C762 H783 0.930 . S
C763 C764 1.413 . S
C763 C765 1.427 . S
C763 C769 1.416 . S
C764 C757 1.424 . S
C764 C763 1.413 . S
C764 N768 1.361 . S
C765 C763 1.427 . S
C765 C766 1.328 . S
C765 H780 0.929 . S
C766 C760 1.448 . S
C766 C765 1.328 . S
C766 H781 0.930 . S
Tb767 N758 2.617 . S
Tb767 N768 2.572 . S
Tb767 O802 2.349 . S
Tb767 O805 2.393 . S
Tb767 O806 2.465 . S
Tb767 O807 2.387 . S
Tb767 O809 2.428 . S
Tb767 O810 2.308 . S
Tb767 C831 2.802 . S
N768 C764 1.361 . S
N768 Tb767 2.572 . S
N768 C770 1.340 . S
C769 C763 1.416 . S
C769 C771 1.332 . S
C769 H777 0.931 . S
C770 N768 1.340 . S
C770 C771 1.407 . S
C770 H776 0.930 . S
C771 C769 1.332 . S
C771 C770 1.407 . S
C771 H773 0.929 . S
H772 C761 0.930 . S
H773 C771 0.929 . S
H774 C789 0.930 . S
H775 C796 0.929 . S
H776 C770 0.930 . S
H777 C769 0.931 . S
H778 C792 0.930 . S
H779 C759 0.930 . S
H780 C765 0.929 . S
H781 C766 0.930 . S
H782 C787 0.930 . S
H783 C762 0.930 . S
H784 C795 0.931 . S
N785 Tb756 2.617 . S
N785 C786 1.379 . S
N785 C789 1.334 . S
C786 N785 1.379 . S
C786 C788 1.416 . S
C786 C794 1.424 . S
C787 H782 0.930 . S
C787 C789 1.390 . S
C787 C790 1.339 . S
C788 C786 1.416 . S
C788 C790 1.416 . S
C788 C821 1.448 . S
C789 H774 0.930 . S
C789 N785 1.334 . S
C789 C787 1.390 . S
C790 C787 1.339 . S
C790 C788 1.416 . S
C790 H797 0.930 . S
N791 Tb756 2.572 . S
N791 C792 1.340 . S
N791 C794 1.361 . S
C792 H778 0.930 . S
C792 N791 1.340 . S
C792 C796 1.407 . S
C793 C794 1.413 . S
C793 C795 1.416 . S
C793 C822 1.427 . S
C794 C786 1.424 . S
C794 N791 1.361 . S
C794 C793 1.413 . S
C795 H784 0.931 . S
C795 C793 1.416 . S
C795 C796 1.332 . S
C796 H775 0.929 . S
C796 C792 1.407 . S
C796 C795 1.332 . S
H797 C790 0.930 . S
H798 C821 0.930 . S
H799 C822 0.929 . S
O800 Tb756 2.465 . S
O800 C820 1.264 . S
O801 Tb756 2.387 . S
O801 C812 1.264 . S
O802 Tb767 2.349 . S
O802 C812 1.243 . S
O803 Tb756 2.428 . S
O803 C820 1.256 . S
O804 Tb756 2.308 . S
O804 C819 1.266 . S
O805 Tb767 2.393 . S
O805 C819 1.248 . S
O806 Tb767 2.465 . S
O806 C831 1.264 . S
O807 Tb767 2.387 . S
O807 C823 1.264 . S
O808 Tb756 2.349 . S
O808 C823 1.243 . S
O809 Tb767 2.428 . S
O809 C831 1.256 . S
O810 Tb767 2.308 . S
O810 C830 1.266 . S
O811 Tb756 2.393 . S
O811 C830 1.248 . S
C812 O801 1.264 . S
C812 O802 1.243 . S
C813 C816 1.399 . S
C813 C818 1.383 . S
C813 C820 1.496 . S
C814 C815 1.399 . S
C814 C818 1.389 . S
C815 C814 1.399 . S
C815 C817 1.380 . S
C815 H832 0.929 . S
C816 C813 1.399 . S
C816 C817 1.392 . S
C816 H833 0.929 . S
C817 C815 1.380 . S
C817 C816 1.392 . S
C817 H834 0.929 . S
C818 C813 1.383 . S
C818 C814 1.389 . S
C818 H835 0.931 . S
C819 O804 1.266 . S
C819 O805 1.248 . S
C820 Tb756 2.802 . S
C820 O800 1.264 . S
C820 O803 1.256 . S
C820 C813 1.496 . S
C821 C788 1.448 . S
C821 H798 0.930 . S
C821 C822 1.328 . S
C822 C793 1.427 . S
C822 H799 0.929 . S
C822 C821 1.328 . S
C823 O807 1.264 . S
C823 O808 1.243 . S
C824 C827 1.399 . S
C824 C828 1.383 . S
C824 C831 1.496 . S
C825 C826 1.399 . S
C825 C828 1.389 . S
C826 C825 1.399 . S
C826 C829 1.380 . S
C826 H836 0.929 . S
C827 C824 1.399 . S
C827 C829 1.392 . S
C827 H837 0.929 . S
C828 C824 1.383 . S
C828 C825 1.389 . S
C828 H838 0.931 . S
C829 C826 1.380 . S
C829 C827 1.392 . S
C829 H839 0.929 . S
C830 O810 1.266 . S
C830 O811 1.248 . S
C831 Tb767 2.802 . S
C831 O806 1.264 . S
C831 O809 1.256 . S
C831 C824 1.496 . S
H832 C815 0.929 . S
H833 C816 0.929 . S
H834 C817 0.929 . S
H835 C818 0.931 . S
H836 C826 0.929 . S
H837 C827 0.929 . S
H838 C828 0.931 . S
H839 C829 0.929 . S
Tb840 N869 2.617 . S
Tb840 N875 2.572 . S
Tb840 O884 2.465 . S
Tb840 O885 2.387 1_556 S
Tb840 O887 2.428 . S
Tb840 O888 2.306 1_556 S
Tb840 O892 2.349 1_556 S
Tb840 O895 2.393 1_556 S
Tb840 C904 2.802 . S
C841 N842 1.390 . S
C841 C844 1.454 . S
C841 C848 1.375 1_565 S
N842 C841 1.390 . S
N842 C845 1.334 . S
N842 Tb851 2.617 1_565 S
C843 C845 1.390 . S
C843 C846 1.339 . S
C843 H863 0.930 . S
C844 C841 1.454 . S
C844 C846 1.416 . S
C844 C850 1.448 . S
C845 N842 1.334 . S
C845 C843 1.390 . S
C845 H856 0.930 . S
C846 C843 1.339 . S
C846 C844 1.416 . S
C846 H867 0.930 . S
C847 C848 1.413 . S
C847 C849 1.427 . S
C847 C853 1.416 . S
C848 C841 1.375 1_545 S
C848 C847 1.413 . S
C848 N852 1.361 . S
C849 C847 1.427 . S
C849 C850 1.328 1_545 S
C849 H864 0.929 . S
C850 C844 1.448 . S
C850 C849 1.328 1_565 S
C850 H865 0.930 . S
Tb851 N842 2.617 1_545 S
Tb851 N852 2.572 . S
Tb851 O886 2.349 . S
Tb851 O889 2.393 1_545 S
Tb851 O890 2.465 . S
Tb851 O891 2.387 . S
Tb851 O893 2.428 1_545 S
Tb851 O894 2.308 . S
Tb851 C915 2.802 . S
N852 C848 1.361 . S
N852 Tb851 2.572 . S
N852 C854 1.340 . S
C853 C847 1.416 . S
C853 C855 1.332 . S
C853 H861 0.931 . S
C854 N852 1.340 . S
C854 C855 1.407 . S
C854 H860 0.930 . S
C855 C853 1.332 . S
C855 C854 1.407 . S
C855 H857 0.929 . S
H856 C845 0.930 . S
H857 C855 0.929 . S
H858 C873 0.930 1_554 S
H859 C880 0.929 . S
H860 C854 0.930 . S
H861 C853 0.931 . S
H862 C876 0.963 . S
H863 C843 0.930 . S
H864 C849 0.929 . S
H865 C850 0.930 . S
H866 C871 0.930 . S
H867 C846 0.930 . S
H868 C879 0.935 . S
N869 Tb840 2.617 . S
N869 C870 1.379 . S
N869 C873 1.334 . S
C870 N869 1.379 . S
C870 C872 1.416 . S
C870 C878 1.424 . S
C871 H866 0.930 . S
C871 C873 1.390 . S
C871 C874 1.339 . S
C872 C870 1.416 . S
C872 C874 1.416 . S
C872 C905 1.448 . S
C873 H858 0.930 1_556 S
C873 N869 1.334 . S
C873 C871 1.390 . S
C874 C871 1.339 . S
C874 C872 1.416 . S
C874 H881 0.930 . S
N875 Tb840 2.572 . S
N875 C876 1.340 . S
N875 C878 1.361 . S
C876 H862 0.963 . S
C876 N875 1.340 . S
C876 C880 1.407 1_545 S
C877 C878 1.413 . S
C877 C879 1.416 . S
C877 C906 1.427 . S
C878 C870 1.424 . S
C878 N875 1.361 . S
C878 C877 1.413 . S
C879 H868 0.935 . S
C879 C877 1.416 . S
C879 C880 1.332 1_545 S
C880 H859 0.929 . S
C880 C876 1.407 1_565 S
C880 C879 1.332 1_565 S
H881 C874 0.930 . S
H882 C905 0.930 . S
H883 C906 0.929 . S
O884 Tb840 2.465 . S
O884 C904 1.264 . S
O885 Tb840 2.387 1_554 S
O885 C896 1.264 . S
O886 Tb851 2.349 . S
O886 C896 1.243 . S
O887 Tb840 2.428 . S
O887 C904 1.256 . S
O888 Tb840 2.306 1_554 S
O888 C903 1.271 1_545 S
O889 Tb851 2.393 1_565 S
O889 C903 1.248 . S
O890 Tb851 2.465 . S
O890 C915 1.264 . S
O891 Tb851 2.387 . S
O891 C907 1.264 . S
O892 Tb840 2.349 1_554 S
O892 C907 1.243 . S
O893 Tb851 2.428 1_565 S
O893 C915 1.256 1_565 S
O894 Tb851 2.308 . S
O894 C914 1.266 . S
O895 Tb840 2.393 1_554 S
O895 C914 1.248 . S
C896 O885 1.264 . S
C896 O886 1.243 . S
C897 C900 1.399 . S
C897 C902 1.383 . S
C897 C904 1.496 . S
C898 C899 1.399 . S
C898 C902 1.389 . S
C899 C898 1.399 . S
C899 C901 1.380 . S
C899 H916 0.929 . S
C900 C897 1.399 . S
C900 C901 1.392 . S
C900 H917 0.929 . S
C901 C899 1.380 . S
C901 C900 1.392 . S
C901 H918 0.929 . S
C902 C897 1.383 . S
C902 C898 1.389 . S
C902 H919 0.931 . S
C903 O888 1.271 1_565 S
C903 O889 1.248 . S
C904 Tb840 2.802 . S
C904 O884 1.264 . S
C904 O887 1.256 . S
C904 C897 1.496 . S
C905 C872 1.448 . S
C905 H882 0.930 . S
C905 C906 1.328 . S
C906 C877 1.427 . S
C906 H883 0.929 . S
C906 C905 1.328 . S
C907 O891 1.264 . S
C907 O892 1.243 . S
C908 C911 1.399 . S
C908 C912 1.383 1_565 S
C908 C915 1.496 1_565 S
C909 C910 1.399 1_545 S
C909 C912 1.389 . S
C910 C909 1.399 1_565 S
C910 C913 1.380 . S
C910 H920 0.929 . S
C911 C908 1.399 . S
C911 C913 1.392 . S
C911 H921 0.929 . S
C912 C908 1.383 1_545 S
C912 C909 1.389 . S
C912 H922 0.931 . S
C913 C910 1.380 . S
C913 C911 1.392 . S
C913 H923 0.929 . S
C914 O894 1.266 . S
C914 O895 1.248 . S
C915 Tb851 2.802 . S
C915 O890 1.264 . S
C915 O893 1.256 1_545 S
C915 C908 1.496 1_545 S
H916 C899 0.929 . S
H917 C900 0.929 . S
H918 C901 0.929 . S
H919 C902 0.931 . S
H920 C910 0.929 . S
H921 C911 0.929 . S
H922 C912 0.931 . S
H923 C913 0.929 . S
Tb924 N953 2.617 . S
Tb924 N959 2.572 . S
Tb924 O968 2.465 . S
Tb924 O969 2.387 . S
Tb924 O971 2.428 . S
Tb924 O972 2.308 . S
Tb924 O976 2.349 . S
Tb924 O979 2.393 . S
Tb924 C988 2.802 . S
C925 N926 1.379 . S
C925 C928 1.416 . S
C925 C932 1.424 . S
N926 C925 1.379 . S
N926 C929 1.334 . S
N926 Tb935 2.617 . S
C927 C929 1.390 . S
C927 C930 1.339 . S
C927 H947 0.930 . S
C928 C925 1.416 . S
C928 C930 1.416 . S
C928 C934 1.448 . S
C929 N926 1.334 . S
C929 C927 1.390 . S
C929 H940 0.930 . S
C930 C927 1.339 . S
C930 C928 1.416 . S
C930 H951 0.930 . S
C931 C932 1.413 . S
C931 C933 1.427 . S
C931 C937 1.416 . S
C932 C925 1.424 . S
C932 C931 1.413 . S
C932 N936 1.361 . S
C933 C931 1.427 . S
C933 C934 1.328 . S
C933 H948 0.929 . S
C934 C928 1.448 . S
C934 C933 1.328 . S
C934 H949 0.930 . S
Tb935 N926 2.617 . S
Tb935 N936 2.572 . S
Tb935 O970 2.349 . S
Tb935 O973 2.393 . S
Tb935 O974 2.465 . S
Tb935 O975 2.387 . S
Tb935 O977 2.428 . S
Tb935 O978 2.308 . S
Tb935 C999 2.802 . S
N936 C932 1.361 . S
N936 Tb935 2.572 . S
N936 C938 1.340 . S
C937 C931 1.416 . S
C937 C939 1.332 . S
C937 H945 0.931 . S
C938 N936 1.340 . S
C938 C939 1.407 . S
C938 H944 0.930 . S
C939 C937 1.332 . S
C939 C938 1.407 . S
C939 H941 0.929 . S
H940 C929 0.930 . S
H941 C939 0.929 . S
H942 C957 0.930 . S
H943 C964 0.929 . S
H944 C938 0.930 . S
H945 C937 0.931 . S
H946 C960 0.930 . S
H947 C927 0.930 . S
H948 C933 0.929 . S
H949 C934 0.930 . S
H950 C955 0.930 . S
H951 C930 0.930 . S
H952 C963 0.931 . S
N953 Tb924 2.617 . S
N953 C954 1.379 . S
N953 C957 1.334 . S
C954 N953 1.379 . S
C954 C956 1.416 . S
C954 C962 1.424 . S
C955 H950 0.930 . S
C955 C957 1.390 . S
C955 C958 1.339 . S
C956 C954 1.416 . S
C956 C958 1.416 . S
C956 C989 1.448 . S
C957 H942 0.930 . S
C957 N953 1.334 . S
C957 C955 1.390 . S
C958 C955 1.339 . S
C958 C956 1.416 . S
C958 H965 0.930 . S
N959 Tb924 2.572 . S
N959 C960 1.340 . S
N959 C962 1.361 . S
C960 H946 0.930 . S
C960 N959 1.340 . S
C960 C964 1.407 . S
C961 C962 1.413 . S
C961 C963 1.416 . S
C961 C990 1.427 . S
C962 C954 1.424 . S
C962 N959 1.361 . S
C962 C961 1.413 . S
C963 H952 0.931 . S
C963 C961 1.416 . S
C963 C964 1.332 . S
C964 H943 0.929 . S
C964 C960 1.407 . S
C964 C963 1.332 . S
H965 C958 0.930 . S
H966 C989 0.930 . S
H967 C990 0.929 . S
O968 Tb924 2.465 . S
O968 C988 1.264 . S
O969 Tb924 2.387 . S
O969 C980 1.264 . S
O970 Tb935 2.349 . S
O970 C980 1.243 . S
O971 Tb924 2.428 . S
O971 C988 1.256 . S
O972 Tb924 2.308 . S
O972 C987 1.266 . S
O973 Tb935 2.393 . S
O973 C987 1.248 . S
O974 Tb935 2.465 . S
O974 C999 1.264 . S
O975 Tb935 2.387 . S
O975 C991 1.264 . S
O976 Tb924 2.349 . S
O976 C991 1.243 . S
O977 Tb935 2.428 . S
O977 C999 1.256 . S
O978 Tb935 2.308 . S
O978 C998 1.266 . S
O979 Tb924 2.393 . S
O979 C998 1.248 . S
C980 O969 1.264 . S
C980 O970 1.243 . S
C981 C984 1.399 . S
C981 C986 1.383 . S
C981 C988 1.496 . S
C982 C983 1.399 . S
C982 C986 1.389 . S
C983 C982 1.399 . S
C983 C985 1.380 . S
C983 H1000 0.929 . S
C984 C981 1.399 . S
C984 C985 1.392 . S
C984 H1001 0.929 . S
C985 C983 1.380 . S
C985 C984 1.392 . S
C985 H1002 0.929 . S
C986 C981 1.383 . S
C986 C982 1.389 . S
C986 H1003 0.931 . S
C987 O972 1.266 . S
C987 O973 1.248 . S
C988 Tb924 2.802 . S
C988 O968 1.264 . S
C988 O971 1.256 . S
C988 C981 1.496 . S
C989 C956 1.448 . S
C989 H966 0.930 . S
C989 C990 1.328 . S
C990 C961 1.427 . S
C990 H967 0.929 . S
C990 C989 1.328 . S
C991 O975 1.264 . S
C991 O976 1.243 . S
C992 C995 1.399 . S
C992 C996 1.383 . S
C992 C999 1.496 . S
C993 C994 1.399 . S
C993 C996 1.389 . S
C994 C993 1.399 . S
C994 C997 1.380 . S
C994 H1004 0.929 . S
C995 C992 1.399 . S
C995 C997 1.392 . S
C995 H1005 0.929 . S
C996 C992 1.383 . S
C996 C993 1.389 . S
C996 H1006 0.931 . S
C997 C994 1.380 . S
C997 C995 1.392 . S
C997 H1007 0.929 . S
C998 O978 1.266 . S
C998 O979 1.248 . S
C999 Tb935 2.802 . S
C999 O974 1.264 . S
C999 O977 1.256 . S
C999 C992 1.496 . S
H1000 C983 0.929 . S
H1001 C984 0.929 . S
H1002 C985 0.929 . S
H1003 C986 0.931 . S
H1004 C994 0.929 . S
H1005 C995 0.929 . S
H1006 C996 0.931 . S
H1007 C997 0.929 . S
Tb1008 N1037 2.617 1_554 S
Tb1008 N1043 2.572 1_554 S
Tb1008 O1052 2.465 . S
Tb1008 O1053 2.387 1_554 S
Tb1008 O1055 2.428 . S
Tb1008 O1056 2.308 . S
Tb1008 O1060 2.349 . S
Tb1008 O1063 2.393 . S
Tb1008 C1072 2.802 . S
C1009 N1010 1.379 . S
C1009 C1012 1.416 . S
C1009 C1016 1.424 . S
N1010 C1009 1.379 . S
N1010 C1013 1.334 . S
N1010 Tb1019 2.617 . S
C1011 C1013 1.390 . S
C1011 C1014 1.339 . S
C1011 H1031 0.930 . S
C1012 C1009 1.416 . S
C1012 C1014 1.416 . S
C1012 C1018 1.448 . S
C1013 N1010 1.334 . S
C1013 C1011 1.390 . S
C1013 H1024 0.930 . S
C1014 C1011 1.339 . S
C1014 C1012 1.416 . S
C1014 H1035 0.930 . S
C1015 C1016 1.413 . S
C1015 C1017 1.427 . S
C1015 C1021 1.416 . S
C1016 C1009 1.424 . S
C1016 C1015 1.413 . S
C1016 N1020 1.361 . S
C1017 C1015 1.427 . S
C1017 C1018 1.328 . S
C1017 H1032 0.929 . S
C1018 C1012 1.448 . S
C1018 C1017 1.328 . S
C1018 H1033 0.930 . S
Tb1019 N1010 2.617 . S
Tb1019 N1020 2.572 . S
Tb1019 O1054 2.349 1_554 S
Tb1019 O1057 2.393 . S
Tb1019 O1058 2.465 . S
Tb1019 O1059 2.387 . S
Tb1019 O1061 2.428 . S
Tb1019 O1062 2.308 . S
Tb1019 C1083 2.802 . S
N1020 C1016 1.361 . S
N1020 Tb1019 2.572 . S
N1020 C1022 1.340 . S
C1021 C1015 1.416 . S
C1021 C1023 1.332 . S
C1021 H1029 0.931 . S
C1022 N1020 1.340 . S
C1022 C1023 1.407 . S
C1022 H1028 0.930 . S
C1023 C1021 1.332 . S
C1023 C1022 1.407 . S
C1023 H1025 0.929 . S
H1024 C1013 0.930 . S
H1025 C1023 0.929 . S
H1026 C1041 0.930 1_554 S
H1027 C1048 0.929 . S
H1028 C1022 0.930 . S
H1029 C1021 0.931 . S
H1030 C1044 0.930 1_554 S
H1031 C1011 0.930 . S
H1032 C1017 0.929 . S
H1033 C1018 0.930 . S
H1034 C1039 0.930 . S
H1035 C1014 0.930 . S
H1036 C1047 0.931 . S
N1037 Tb1008 2.617 1_556 S
N1037 C1038 1.379 . S
N1037 C1041 1.334 . S
C1038 N1037 1.379 . S
C1038 C1040 1.416 . S
C1038 C1046 1.424 . S
C1039 H1034 0.930 . S
C1039 C1041 1.390 . S
C1039 C1042 1.339 . S
C1040 C1038 1.416 . S
C1040 C1042 1.416 . S
C1040 C1073 1.448 . S
C1041 H1026 0.930 1_556 S
C1041 N1037 1.334 . S
C1041 C1039 1.390 . S
C1042 C1039 1.339 . S
C1042 C1040 1.416 . S
C1042 H1049 0.930 . S
N1043 Tb1008 2.572 1_556 S
N1043 C1044 1.340 . S
N1043 C1046 1.361 . S
C1044 H1030 0.930 1_556 S
C1044 N1043 1.340 . S
C1044 C1048 1.407 . S
C1045 C1046 1.413 . S
C1045 C1047 1.416 . S
C1045 C1074 1.427 . S
C1046 C1038 1.424 . S
C1046 N1043 1.361 . S
C1046 C1045 1.413 . S
C1047 H1036 0.931 . S
C1047 C1045 1.416 . S
C1047 C1048 1.332 . S
C1048 H1027 0.929 . S
C1048 C1044 1.407 . S
C1048 C1047 1.332 . S
H1049 C1042 0.930 . S
H1050 C1073 0.930 . S
H1051 C1074 0.929 . S
O1052 Tb1008 2.465 . S
O1052 C1072 1.264 . S
O1053 Tb1008 2.387 1_556 S
O1053 C1064 1.264 . S
O1054 Tb1019 2.349 1_556 S
O1054 C1064 1.243 . S
O1055 Tb1008 2.428 . S
O1055 C1072 1.256 . S
O1056 Tb1008 2.308 . S
O1056 C1071 1.266 . S
O1057 Tb1019 2.393 . S
O1057 C1071 1.248 . S
O1058 Tb1019 2.465 . S
O1058 C1083 1.264 . S
O1059 Tb1019 2.387 . S
O1059 C1075 1.264 . S
O1060 Tb1008 2.349 . S
O1060 C1075 1.243 . S
O1061 Tb1019 2.428 . S
O1061 C1083 1.256 . S
O1062 Tb1019 2.308 . S
O1062 C1082 1.266 . S
O1063 Tb1008 2.393 . S
O1063 C1082 1.248 . S
C1064 O1053 1.264 . S
C1064 O1054 1.243 . S
C1065 C1068 1.399 . S
C1065 C1070 1.383 . S
C1065 C1072 1.496 . S
C1066 C1067 1.399 . S
C1066 C1070 1.389 . S
C1067 C1066 1.399 . S
C1067 C1069 1.380 . S
C1067 H1084 0.929 . S
C1068 C1065 1.399 . S
C1068 C1069 1.392 . S
C1068 H1085 0.929 . S
C1069 C1067 1.380 . S
C1069 C1068 1.392 . S
C1069 H1086 0.929 . S
C1070 C1065 1.383 . S
C1070 C1066 1.389 . S
C1070 H1087 0.931 . S
C1071 O1056 1.266 . S
C1071 O1057 1.248 . S
C1072 Tb1008 2.802 . S
C1072 O1052 1.264 . S
C1072 O1055 1.256 . S
C1072 C1065 1.496 . S
C1073 C1040 1.448 . S
C1073 H1050 0.930 . S
C1073 C1074 1.328 . S
C1074 C1045 1.427 . S
C1074 H1051 0.929 . S
C1074 C1073 1.328 . S
C1075 O1059 1.264 . S
C1075 O1060 1.243 . S
C1076 C1079 1.399 . S
C1076 C1080 1.383 . S
C1076 C1083 1.496 1_556 S
C1077 C1078 1.399 . S
C1077 C1080 1.389 . S
C1078 C1077 1.399 . S
C1078 C1081 1.380 . S
C1078 H1088 0.929 . S
C1079 C1076 1.399 . S
C1079 C1081 1.392 . S
C1079 H1089 0.928 . S
C1080 C1076 1.383 . S
C1080 C1077 1.389 . S
C1080 H1090 0.931 . S
C1081 C1078 1.380 . S
C1081 C1079 1.392 . S
C1081 H1091 0.929 . S
C1082 O1062 1.266 . S
C1082 O1063 1.248 . S
C1083 Tb1019 2.802 . S
C1083 O1058 1.264 . S
C1083 O1061 1.256 . S
C1083 C1076 1.496 1_554 S
H1084 C1067 0.929 . S
H1085 C1068 0.929 . S
H1086 C1069 0.929 . S
H1087 C1070 0.931 . S
H1088 C1078 0.929 . S
H1089 C1079 0.928 . S
H1090 C1080 0.931 . S
H1091 C1081 0.929 . S
Tb1092 N1121 2.617 . S
Tb1092 N1127 2.572 . S
Tb1092 O1136 2.465 . S
Tb1092 O1137 2.387 . S
Tb1092 O1139 2.428 . S
Tb1092 O1140 2.308 . S
Tb1092 O1144 2.349 . S
Tb1092 O1147 2.393 . S
Tb1092 C1156 2.802 . S
C1093 N1094 1.379 . S
C1093 C1096 1.416 . S
C1093 C1100 1.424 . S
N1094 C1093 1.379 . S
N1094 C1097 1.334 . S
N1094 Tb1103 2.617 . S
C1095 C1097 1.390 . S
C1095 C1098 1.339 . S
C1095 H1115 0.930 . S
C1096 C1093 1.416 . S
C1096 C1098 1.416 . S
C1096 C1102 1.448 . S
C1097 N1094 1.334 . S
C1097 C1095 1.390 . S
C1097 H1108 0.930 . S
C1098 C1095 1.339 . S
C1098 C1096 1.416 . S
C1098 H1119 0.930 . S
C1099 C1100 1.413 . S
C1099 C1101 1.427 . S
C1099 C1105 1.416 . S
C1100 C1093 1.424 . S
C1100 C1099 1.413 . S
C1100 N1104 1.361 . S
C1101 C1099 1.427 . S
C1101 C1102 1.328 . S
C1101 H1116 0.929 . S
C1102 C1096 1.448 . S
C1102 C1101 1.328 . S
C1102 H1117 0.930 . S
Tb1103 N1094 2.617 . S
Tb1103 N1104 2.572 . S
Tb1103 O1138 2.349 . S
Tb1103 O1141 2.393 . S
Tb1103 O1142 2.465 . S
Tb1103 O1143 2.387 . S
Tb1103 O1145 2.428 . S
Tb1103 O1146 2.308 . S
Tb1103 C1167 2.802 . S
N1104 C1100 1.361 . S
N1104 Tb1103 2.572 . S
N1104 C1106 1.340 . S
C1105 C1099 1.416 . S
C1105 C1107 1.332 . S
C1105 H1113 0.931 . S
C1106 N1104 1.340 . S
C1106 C1107 1.407 . S
C1106 H1112 0.930 . S
C1107 C1105 1.332 . S
C1107 C1106 1.407 . S
C1107 H1109 0.929 . S
H1108 C1097 0.930 . S
H1109 C1107 0.929 . S
H1110 C1125 0.930 . S
H1111 C1132 0.929 . S
H1112 C1106 0.930 . S
H1113 C1105 0.931 . S
H1114 C1128 0.930 . S
H1115 C1095 0.930 . S
H1116 C1101 0.929 . S
H1117 C1102 0.930 . S
H1118 C1123 0.930 . S
H1119 C1098 0.930 . S
H1120 C1131 0.931 . S
N1121 Tb1092 2.617 . S
N1121 C1122 1.379 . S
N1121 C1125 1.334 . S
C1122 N1121 1.379 . S
C1122 C1124 1.416 . S
C1122 C1130 1.424 . S
C1123 H1118 0.930 . S
C1123 C1125 1.390 . S
C1123 C1126 1.339 . S
C1124 C1122 1.416 . S
C1124 C1126 1.416 . S
C1124 C1157 1.448 . S
C1125 H1110 0.930 . S
C1125 N1121 1.334 . S
C1125 C1123 1.390 . S
C1126 C1123 1.339 . S
C1126 C1124 1.416 . S
C1126 H1133 0.930 . S
N1127 Tb1092 2.572 . S
N1127 C1128 1.340 . S
N1127 C1130 1.361 . S
C1128 H1114 0.930 . S
C1128 N1127 1.340 . S
C1128 C1132 1.407 . S
C1129 C1130 1.413 . S
C1129 C1131 1.416 . S
C1129 C1158 1.427 . S
C1130 C1122 1.424 . S
C1130 N1127 1.361 . S
C1130 C1129 1.413 . S
C1131 H1120 0.931 . S
C1131 C1129 1.416 . S
C1131 C1132 1.332 . S
C1132 H1111 0.929 . S
C1132 C1128 1.407 . S
C1132 C1131 1.332 . S
H1133 C1126 0.930 . S
H1134 C1157 0.930 . S
H1135 C1158 0.929 . S
O1136 Tb1092 2.465 . S
O1136 C1156 1.264 . S
O1137 Tb1092 2.387 . S
O1137 C1148 1.264 . S
O1138 Tb1103 2.349 . S
O1138 C1148 1.243 . S
O1139 Tb1092 2.428 . S
O1139 C1156 1.256 . S
O1140 Tb1092 2.308 . S
O1140 C1155 1.266 . S
O1141 Tb1103 2.393 . S
O1141 C1155 1.248 . S
O1142 Tb1103 2.465 . S
O1142 C1167 1.264 . S
O1143 Tb1103 2.387 . S
O1143 C1159 1.264 . S
O1144 Tb1092 2.349 . S
O1144 C1159 1.243 . S
O1145 Tb1103 2.428 . S
O1145 C1167 1.256 . S
O1146 Tb1103 2.308 . S
O1146 C1166 1.266 . S
O1147 Tb1092 2.393 . S
O1147 C1166 1.248 . S
C1148 O1137 1.264 . S
C1148 O1138 1.243 . S
C1149 C1152 1.399 . S
C1149 C1154 1.383 . S
C1149 C1156 1.496 . S
C1150 C1151 1.399 . S
C1150 C1154 1.389 . S
C1151 C1150 1.399 . S
C1151 C1153 1.380 . S
C1151 H1168 0.929 . S
C1152 C1149 1.399 . S
C1152 C1153 1.392 . S
C1152 H1169 0.929 . S
C1153 C1151 1.380 . S
C1153 C1152 1.392 . S
C1153 H1170 0.929 . S
C1154 C1149 1.383 . S
C1154 C1150 1.389 . S
C1154 H1171 0.931 . S
C1155 O1140 1.266 . S
C1155 O1141 1.248 . S
C1156 Tb1092 2.802 . S
C1156 O1136 1.264 . S
C1156 O1139 1.256 . S
C1156 C1149 1.496 . S
C1157 C1124 1.448 . S
C1157 H1134 0.930 . S
C1157 C1158 1.328 . S
C1158 C1129 1.427 . S
C1158 H1135 0.929 . S
C1158 C1157 1.328 . S
C1159 O1143 1.264 . S
C1159 O1144 1.243 . S
C1160 C1163 1.399 . S
C1160 C1164 1.383 . S
C1160 C1167 1.496 . S
C1161 C1162 1.399 . S
C1161 C1164 1.389 . S
C1162 C1161 1.399 . S
C1162 C1165 1.380 . S
C1162 H1172 0.929 . S
C1163 C1160 1.399 . S
C1163 C1165 1.392 . S
C1163 H1173 0.929 . S
C1164 C1160 1.383 . S
C1164 C1161 1.389 . S
C1164 H1174 0.931 . S
C1165 C1162 1.380 . S
C1165 C1163 1.392 . S
C1165 H1175 0.929 . S
C1166 O1146 1.266 . S
C1166 O1147 1.248 . S
C1167 Tb1103 2.802 . S
C1167 O1142 1.264 . S
C1167 O1145 1.256 . S
C1167 C1160 1.496 . S
H1168 C1151 0.929 . S
H1169 C1152 0.929 . S
H1170 C1153 0.929 . S
H1171 C1154 0.931 . S
H1172 C1162 0.929 . S
H1173 C1163 0.929 . S
H1174 C1164 0.931 . S
H1175 C1165 0.929 . S
Tb1176 N1205 2.617 1_455 S
Tb1176 N1211 2.572 1_455 S
Tb1176 O1220 2.465 . S
Tb1176 O1221 2.387 1_455 S
Tb1176 O1223 2.428 . S
Tb1176 O1224 2.308 . S
Tb1176 O1228 2.349 . S
Tb1176 O1231 2.393 . S
Tb1176 C1240 2.802 . S
C1177 N1178 1.379 . S
C1177 C1180 1.416 . S
C1177 C1184 1.424 . S
N1178 C1177 1.379 . S
N1178 C1181 1.334 . S
N1178 Tb1187 2.617 . S
C1179 C1181 1.390 . S
C1179 C1182 1.339 . S
C1179 H1199 0.930 . S
C1180 C1177 1.416 . S
C1180 C1182 1.416 . S
C1180 C1186 1.448 . S
C1181 N1178 1.334 . S
C1181 C1179 1.390 . S
C1181 H1192 0.930 . S
C1182 C1179 1.339 . S
C1182 C1180 1.416 . S
C1182 H1203 0.930 . S
C1183 C1184 1.413 . S
C1183 C1185 1.427 . S
C1183 C1189 1.416 . S
C1184 C1177 1.424 . S
C1184 C1183 1.413 . S
C1184 N1188 1.361 . S
C1185 C1183 1.427 . S
C1185 C1186 1.328 . S
C1185 H1200 0.929 . S
C1186 C1180 1.448 . S
C1186 C1185 1.328 . S
C1186 H1201 0.930 . S
Tb1187 N1178 2.617 . S
Tb1187 N1188 2.572 . S
Tb1187 O1222 2.349 1_455 S
Tb1187 O1225 2.393 . S
Tb1187 O1226 2.465 . S
Tb1187 O1227 2.387 . S
Tb1187 O1229 2.428 . S
Tb1187 O1230 2.308 . S
Tb1187 C1251 2.802 . S
N1188 C1184 1.361 . S
N1188 Tb1187 2.572 . S
N1188 C1190 1.340 . S
C1189 C1183 1.416 . S
C1189 C1191 1.332 . S
C1189 H1197 0.931 . S
C1190 N1188 1.340 . S
C1190 C1191 1.407 . S
C1190 H1196 0.930 . S
C1191 C1189 1.332 . S
C1191 C1190 1.407 . S
C1191 H1193 0.929 . S
H1192 C1181 0.930 . S
H1193 C1191 0.929 . S
H1194 C1209 0.898 1_455 S
H1195 C1216 0.929 . S
H1196 C1190 0.930 . S
H1197 C1189 0.931 . S
H1198 C1212 0.930 1_455 S
H1199 C1179 0.930 . S
H1200 C1185 0.929 . S
H1201 C1186 0.930 . S
H1202 C1207 0.930 . S
H1203 C1182 0.930 . S
H1204 C1215 0.931 . S
N1205 Tb1176 2.617 1_655 S
N1205 C1206 1.379 . S
N1205 C1209 1.326 . S
C1206 N1205 1.379 . S
C1206 C1208 1.416 . S
C1206 C1214 1.424 . S
C1207 H1202 0.930 . S
C1207 C1209 1.432 . S
C1207 C1210 1.339 . S
C1208 C1206 1.416 . S
C1208 C1210 1.416 . S
C1208 C1241 1.448 . S
C1209 H1194 0.898 1_655 S
C1209 N1205 1.326 . S
C1209 C1207 1.432 . S
C1210 C1207 1.339 . S
C1210 C1208 1.416 . S
C1210 H1217 0.930 . S
N1211 Tb1176 2.572 1_655 S
N1211 C1212 1.340 . S
N1211 C1214 1.361 . S
C1212 H1198 0.930 1_655 S
C1212 N1211 1.340 . S
C1212 C1216 1.407 . S
C1213 C1214 1.413 . S
C1213 C1215 1.416 . S
C1213 C1242 1.427 . S
C1214 C1206 1.424 . S
C1214 N1211 1.361 . S
C1214 C1213 1.413 . S
C1215 H1204 0.931 . S
C1215 C1213 1.416 . S
C1215 C1216 1.332 . S
C1216 H1195 0.929 . S
C1216 C1212 1.407 . S
C1216 C1215 1.332 . S
H1217 C1210 0.930 . S
H1218 C1241 0.930 . S
H1219 C1242 0.929 . S
O1220 Tb1176 2.465 . S
O1220 C1240 1.264 . S
O1221 Tb1176 2.387 1_655 S
O1221 C1232 1.264 . S
O1222 Tb1187 2.349 1_655 S
O1222 C1232 1.243 . S
O1223 Tb1176 2.428 . S
O1223 C1240 1.256 . S
O1224 Tb1176 2.308 . S
O1224 C1239 1.266 . S
O1225 Tb1187 2.393 . S
O1225 C1239 1.248 . S
O1226 Tb1187 2.465 . S
O1226 C1251 1.264 . S
O1227 Tb1187 2.387 . S
O1227 C1243 1.264 . S
O1228 Tb1176 2.349 . S
O1228 C1243 1.243 . S
O1229 Tb1187 2.428 . S
O1229 C1251 1.256 . S
O1230 Tb1187 2.308 . S
O1230 C1250 1.266 . S
O1231 Tb1176 2.393 . S
O1231 C1250 1.248 . S
C1232 O1221 1.264 . S
C1232 O1222 1.243 . S
C1233 C1236 1.399 . S
C1233 C1238 1.383 . S
C1233 C1240 1.496 . S
C1234 C1235 1.399 . S
C1234 C1238 1.389 . S
C1235 C1234 1.399 . S
C1235 C1237 1.380 . S
C1235 H1252 0.929 . S
C1236 C1233 1.399 . S
C1236 C1237 1.392 . S
C1236 H1253 0.929 . S
C1237 C1235 1.380 . S
C1237 C1236 1.392 . S
C1237 H1254 0.929 . S
C1238 C1233 1.383 . S
C1238 C1234 1.389 . S
C1238 H1255 0.931 . S
C1239 O1224 1.266 . S
C1239 O1225 1.248 . S
C1240 Tb1176 2.802 . S
C1240 O1220 1.264 . S
C1240 O1223 1.256 . S
C1240 C1233 1.496 . S
C1241 C1208 1.448 . S
C1241 H1218 0.930 . S
C1241 C1242 1.328 . S
C1242 C1213 1.427 . S
C1242 H1219 0.929 . S
C1242 C1241 1.328 . S
C1243 O1227 1.264 . S
C1243 O1228 1.243 . S
C1244 C1247 1.399 . S
C1244 C1248 1.383 . S
C1244 C1251 1.496 1_655 S
C1245 C1246 1.399 . S
C1245 C1248 1.389 . S
C1246 C1245 1.399 . S
C1246 C1249 1.380 . S
C1246 H1256 0.929 . S
C1247 C1244 1.399 . S
C1247 C1249 1.392 . S
C1247 H1257 0.929 . S
C1248 C1244 1.383 . S
C1248 C1245 1.389 . S
C1248 H1258 0.931 . S
C1249 C1246 1.380 . S
C1249 C1247 1.392 . S
C1249 H1259 0.929 . S
C1250 O1230 1.266 . S
C1250 O1231 1.248 . S
C1251 Tb1187 2.802 . S
C1251 O1226 1.264 . S
C1251 O1229 1.256 . S
C1251 C1244 1.496 1_455 S
H1252 C1235 0.929 . S
H1253 C1236 0.929 . S
H1254 C1237 0.929 . S
H1255 C1238 0.931 . S
H1256 C1246 0.929 . S
H1257 C1247 0.929 . S
H1258 C1248 0.931 . S
H1259 C1249 0.929 . S
Tb1260 N1289 2.617 . S
Tb1260 N1295 2.572 . S
Tb1260 O1304 2.465 . S
Tb1260 O1305 2.387 . S
Tb1260 O1307 2.428 . S
Tb1260 O1308 2.308 . S
Tb1260 O1312 2.349 . S
Tb1260 O1315 2.393 . S
Tb1260 C1324 2.802 . S
C1261 N1262 1.379 . S
C1261 C1264 1.416 . S
C1261 C1268 1.424 . S
N1262 C1261 1.379 . S
N1262 C1265 1.334 . S
N1262 Tb1271 2.617 . S
C1263 C1265 1.390 . S
C1263 C1266 1.339 . S
C1263 H1283 0.930 . S
C1264 C1261 1.416 . S
C1264 C1266 1.416 . S
C1264 C1270 1.448 . S
C1265 N1262 1.334 . S
C1265 C1263 1.390 . S
C1265 H1276 0.930 . S
C1266 C1263 1.339 . S
C1266 C1264 1.416 . S
C1266 H1287 0.930 . S
C1267 C1268 1.413 . S
C1267 C1269 1.427 . S
C1267 C1273 1.416 . S
C1268 C1261 1.424 . S
C1268 C1267 1.413 . S
C1268 N1272 1.361 . S
C1269 C1267 1.427 . S
C1269 C1270 1.328 . S
C1269 H1284 0.929 . S
C1270 C1264 1.448 . S
C1270 C1269 1.328 . S
C1270 H1285 0.930 . S
Tb1271 N1262 2.617 . S
Tb1271 N1272 2.572 . S
Tb1271 O1306 2.349 . S
Tb1271 O1309 2.393 . S
Tb1271 O1310 2.465 . S
Tb1271 O1311 2.387 . S
Tb1271 O1313 2.428 . S
Tb1271 O1314 2.308 . S
Tb1271 C1335 2.802 . S
N1272 C1268 1.361 . S
N1272 Tb1271 2.572 . S
N1272 C1274 1.340 . S
C1273 C1267 1.416 . S
C1273 C1275 1.332 . S
C1273 H1281 0.931 . S
C1274 N1272 1.340 . S
C1274 C1275 1.407 . S
C1274 H1280 0.930 . S
C1275 C1273 1.332 . S
C1275 C1274 1.407 . S
C1275 H1277 0.929 . S
H1276 C1265 0.930 . S
H1277 C1275 0.929 . S
H1278 C1293 0.930 . S
H1279 C1300 0.929 . S
H1280 C1274 0.930 . S
H1281 C1273 0.931 . S
H1282 C1296 0.930 . S
H1283 C1263 0.930 . S
H1284 C1269 0.929 . S
H1285 C1270 0.930 . S
H1286 C1291 0.930 . S
H1287 C1266 0.930 . S
H1288 C1299 0.931 . S
N1289 Tb1260 2.617 . S
N1289 C1290 1.379 . S
N1289 C1293 1.334 . S
C1290 N1289 1.379 . S
C1290 C1292 1.416 . S
C1290 C1298 1.424 . S
C1291 H1286 0.930 . S
C1291 C1293 1.390 . S
C1291 C1294 1.339 . S
C1292 C1290 1.416 . S
C1292 C1294 1.416 . S
C1292 C1325 1.448 . S
C1293 H1278 0.930 . S
C1293 N1289 1.334 . S
C1293 C1291 1.390 . S
C1294 C1291 1.339 . S
C1294 C1292 1.416 . S
C1294 H1301 0.930 . S
N1295 Tb1260 2.572 . S
N1295 C1296 1.340 . S
N1295 C1298 1.361 . S
C1296 H1282 0.930 . S
C1296 N1295 1.340 . S
C1296 C1300 1.407 . S
C1297 C1298 1.413 . S
C1297 C1299 1.416 . S
C1297 C1326 1.427 . S
C1298 C1290 1.424 . S
C1298 N1295 1.361 . S
C1298 C1297 1.413 . S
C1299 H1288 0.931 . S
C1299 C1297 1.416 . S
C1299 C1300 1.332 . S
C1300 H1279 0.929 . S
C1300 C1296 1.407 . S
C1300 C1299 1.332 . S
H1301 C1294 0.930 . S
H1302 C1325 0.930 . S
H1303 C1326 0.929 . S
O1304 Tb1260 2.465 . S
O1304 C1324 1.264 . S
O1305 Tb1260 2.387 . S
O1305 C1316 1.264 . S
O1306 Tb1271 2.349 . S
O1306 C1316 1.243 . S
O1307 Tb1260 2.428 . S
O1307 C1324 1.256 . S
O1308 Tb1260 2.308 . S
O1308 C1323 1.266 . S
O1309 Tb1271 2.393 . S
O1309 C1323 1.248 . S
O1310 Tb1271 2.465 . S
O1310 C1335 1.264 . S
O1311 Tb1271 2.387 . S
O1311 C1327 1.264 . S
O1312 Tb1260 2.349 . S
O1312 C1327 1.243 . S
O1313 Tb1271 2.428 . S
O1313 C1335 1.256 . S
O1314 Tb1271 2.308 . S
O1314 C1334 1.266 . S
O1315 Tb1260 2.393 . S
O1315 C1334 1.248 . S
C1316 O1305 1.264 . S
C1316 O1306 1.243 . S
C1317 C1320 1.399 . S
C1317 C1322 1.383 . S
C1317 C1324 1.496 . S
C1318 C1319 1.399 . S
C1318 C1322 1.389 . S
C1319 C1318 1.399 . S
C1319 C1321 1.380 . S
C1319 H1336 0.929 . S
C1320 C1317 1.399 . S
C1320 C1321 1.392 . S
C1320 H1337 0.929 . S
C1321 C1319 1.380 . S
C1321 C1320 1.392 . S
C1321 H1338 0.929 . S
C1322 C1317 1.383 . S
C1322 C1318 1.389 . S
C1322 H1339 0.931 . S
C1323 O1308 1.266 . S
C1323 O1309 1.248 . S
C1324 Tb1260 2.802 . S
C1324 O1304 1.264 . S
C1324 O1307 1.256 . S
C1324 C1317 1.496 . S
C1325 C1292 1.448 . S
C1325 H1302 0.930 . S
C1325 C1326 1.328 . S
C1326 C1297 1.427 . S
C1326 H1303 0.929 . S
C1326 C1325 1.328 . S
C1327 O1311 1.264 . S
C1327 O1312 1.243 . S
C1328 C1331 1.399 . S
C1328 C1332 1.383 . S
C1328 C1335 1.496 . S
C1329 C1330 1.399 . S
C1329 C1332 1.389 . S
C1330 C1329 1.399 . S
C1330 C1333 1.380 . S
C1330 H1340 0.929 . S
C1331 C1328 1.399 . S
C1331 C1333 1.392 . S
C1331 H1341 0.929 . S
C1332 C1328 1.383 . S
C1332 C1329 1.389 . S
C1332 H1342 0.931 . S
C1333 C1330 1.380 . S
C1333 C1331 1.392 . S
C1333 H1343 0.929 . S
C1334 O1314 1.266 . S
C1334 O1315 1.248 . S
C1335 Tb1271 2.802 . S
C1335 O1310 1.264 . S
C1335 O1313 1.256 . S
C1335 C1328 1.496 . S
H1336 C1319 0.929 . S
H1337 C1320 0.929 . S
H1338 C1321 0.929 . S
H1339 C1322 0.931 . S
H1340 C1330 0.929 . S
H1341 C1331 0.929 . S
H1342 C1332 0.931 . S
H1343 C1333 0.929 . S
Tb1344 N1373 2.617 . S
Tb1344 N1379 2.572 . S
Tb1344 O1388 2.465 . S
Tb1344 O1389 2.387 . S
Tb1344 O1391 2.428 . S
Tb1344 O1392 2.308 . S
Tb1344 O1396 2.349 . S
Tb1344 O1399 2.393 . S
Tb1344 C1408 2.802 . S
C1345 N1346 1.379 . S
C1345 C1348 1.416 . S
C1345 C1352 1.424 . S
N1346 C1345 1.379 . S
N1346 C1349 1.334 . S
N1346 Tb1355 2.617 . S
C1347 C1349 1.390 . S
C1347 C1350 1.339 . S
C1347 H1367 0.930 . S
C1348 C1345 1.416 . S
C1348 C1350 1.416 . S
C1348 C1354 1.448 . S
C1349 N1346 1.334 . S
C1349 C1347 1.390 . S
C1349 H1360 0.930 . S
C1350 C1347 1.339 . S
C1350 C1348 1.416 . S
C1350 H1371 0.930 . S
C1351 C1352 1.413 . S
C1351 C1353 1.427 . S
C1351 C1357 1.416 . S
C1352 C1345 1.424 . S
C1352 C1351 1.413 . S
C1352 N1356 1.361 . S
C1353 C1351 1.427 . S
C1353 C1354 1.328 . S
C1353 H1368 0.929 . S
C1354 C1348 1.448 . S
C1354 C1353 1.328 . S
C1354 H1369 0.930 . S
Tb1355 N1346 2.617 . S
Tb1355 N1356 2.572 . S
Tb1355 O1390 2.349 . S
Tb1355 O1393 2.393 . S
Tb1355 O1394 2.465 . S
Tb1355 O1395 2.387 . S
Tb1355 O1397 2.428 . S
Tb1355 O1398 2.308 . S
Tb1355 C1419 2.802 . S
N1356 C1352 1.361 . S
N1356 Tb1355 2.572 . S
N1356 C1358 1.340 . S
C1357 C1351 1.416 . S
C1357 C1359 1.332 . S
C1357 H1365 0.931 . S
C1358 N1356 1.340 . S
C1358 C1359 1.407 . S
C1358 H1364 0.930 . S
C1359 C1357 1.332 . S
C1359 C1358 1.407 . S
C1359 H1361 0.929 . S
H1360 C1349 0.930 . S
H1361 C1359 0.929 . S
H1362 C1377 0.930 . S
H1363 C1384 0.929 . S
H1364 C1358 0.930 . S
H1365 C1357 0.931 . S
H1366 C1380 0.930 . S
H1367 C1347 0.930 . S
H1368 C1353 0.929 . S
H1369 C1354 0.930 . S
H1370 C1375 0.930 . S
H1371 C1350 0.930 . S
H1372 C1383 0.931 . S
N1373 Tb1344 2.617 . S
N1373 C1374 1.379 . S
N1373 C1377 1.334 . S
C1374 N1373 1.379 . S
C1374 C1376 1.416 . S
C1374 C1382 1.424 . S
C1375 H1370 0.930 . S
C1375 C1377 1.390 . S
C1375 C1378 1.339 . S
C1376 C1374 1.416 . S
C1376 C1378 1.416 . S
C1376 C1409 1.448 . S
C1377 H1362 0.930 . S
C1377 N1373 1.334 . S
C1377 C1375 1.390 . S
C1378 C1375 1.339 . S
C1378 C1376 1.416 . S
C1378 H1385 0.930 . S
N1379 Tb1344 2.572 . S
N1379 C1380 1.340 . S
N1379 C1382 1.361 . S
C1380 H1366 0.930 . S
C1380 N1379 1.340 . S
C1380 C1384 1.407 . S
C1381 C1382 1.413 . S
C1381 C1383 1.416 . S
C1381 C1410 1.427 . S
C1382 C1374 1.424 . S
C1382 N1379 1.361 . S
C1382 C1381 1.413 . S
C1383 H1372 0.931 . S
C1383 C1381 1.416 . S
C1383 C1384 1.332 . S
C1384 H1363 0.929 . S
C1384 C1380 1.407 . S
C1384 C1383 1.332 . S
H1385 C1378 0.930 . S
H1386 C1409 0.930 . S
H1387 C1410 0.929 . S
O1388 Tb1344 2.465 . S
O1388 C1408 1.264 . S
O1389 Tb1344 2.387 . S
O1389 C1400 1.264 . S
O1390 Tb1355 2.349 . S
O1390 C1400 1.243 . S
O1391 Tb1344 2.428 . S
O1391 C1408 1.256 . S
O1392 Tb1344 2.308 . S
O1392 C1407 1.266 . S
O1393 Tb1355 2.393 . S
O1393 C1407 1.248 . S
O1394 Tb1355 2.465 . S
O1394 C1419 1.264 . S
O1395 Tb1355 2.387 . S
O1395 C1411 1.264 . S
O1396 Tb1344 2.349 . S
O1396 C1411 1.243 . S
O1397 Tb1355 2.428 . S
O1397 C1419 1.256 . S
O1398 Tb1355 2.308 . S
O1398 C1418 1.266 . S
O1399 Tb1344 2.393 . S
O1399 C1418 1.248 . S
C1400 O1389 1.264 . S
C1400 O1390 1.243 . S
C1401 C1404 1.399 . S
C1401 C1406 1.383 . S
C1401 C1408 1.496 . S
C1402 C1403 1.399 . S
C1402 C1406 1.389 . S
C1403 C1402 1.399 . S
C1403 C1405 1.380 . S
C1403 H1420 0.929 . S
C1404 C1401 1.399 . S
C1404 C1405 1.392 . S
C1404 H1421 0.929 . S
C1405 C1403 1.380 . S
C1405 C1404 1.392 . S
C1405 H1422 0.929 . S
C1406 C1401 1.383 . S
C1406 C1402 1.389 . S
C1406 H1423 0.931 . S
C1407 O1392 1.266 . S
C1407 O1393 1.248 . S
C1408 Tb1344 2.802 . S
C1408 O1388 1.264 . S
C1408 O1391 1.256 . S
C1408 C1401 1.496 . S
C1409 C1376 1.448 . S
C1409 H1386 0.930 . S
C1409 C1410 1.328 . S
C1410 C1381 1.427 . S
C1410 H1387 0.929 . S
C1410 C1409 1.328 . S
C1411 O1395 1.264 . S
C1411 O1396 1.243 . S
C1412 C1415 1.399 . S
C1412 C1416 1.383 . S
C1412 C1419 1.496 . S
C1413 C1414 1.399 . S
C1413 C1416 1.389 . S
C1414 C1413 1.399 . S
C1414 C1417 1.380 . S
C1414 H1424 0.929 . S
C1415 C1412 1.399 . S
C1415 C1417 1.392 . S
C1415 H1425 0.929 . S
C1416 C1412 1.383 . S
C1416 C1413 1.389 . S
C1416 H1426 0.931 . S
C1417 C1414 1.380 . S
C1417 C1415 1.392 . S
C1417 H1427 0.929 . S
C1418 O1398 1.266 . S
C1418 O1399 1.248 . S
C1419 Tb1355 2.802 . S
C1419 O1394 1.264 . S
C1419 O1397 1.256 . S
C1419 C1412 1.496 . S
H1420 C1403 0.929 . S
H1421 C1404 0.929 . S
H1422 C1405 0.929 . S
H1423 C1406 0.931 . S
H1424 C1414 0.929 . S
H1425 C1415 0.929 . S
H1426 C1416 0.931 . S
H1427 C1417 0.929 . S
Tb1428 N1457 2.617 . S
Tb1428 N1463 2.572 . S
Tb1428 O1472 2.465 . S
Tb1428 O1473 2.387 . S
Tb1428 O1475 2.428 . S
Tb1428 O1476 2.308 . S
Tb1428 O1480 2.349 . S
Tb1428 O1483 2.393 . S
Tb1428 C1492 2.802 . S
C1429 N1430 1.379 . S
C1429 C1432 1.416 . S
C1429 C1436 1.424 . S
N1430 C1429 1.379 . S
N1430 C1433 1.334 . S
N1430 Tb1439 2.617 . S
C1431 C1433 1.390 . S
C1431 C1434 1.339 . S
C1431 H1451 0.930 . S
C1432 C1429 1.416 . S
C1432 C1434 1.416 . S
C1432 C1438 1.448 . S
C1433 N1430 1.334 . S
C1433 C1431 1.390 . S
C1433 H1444 0.930 . S
C1434 C1431 1.339 . S
C1434 C1432 1.416 . S
C1434 H1455 0.930 . S
C1435 C1436 1.413 . S
C1435 C1437 1.427 . S
C1435 C1441 1.416 . S
C1436 C1429 1.424 . S
C1436 C1435 1.413 . S
C1436 N1440 1.361 . S
C1437 C1435 1.427 . S
C1437 C1438 1.328 . S
C1437 H1452 0.929 . S
C1438 C1432 1.448 . S
C1438 C1437 1.328 . S
C1438 H1453 0.930 . S
Tb1439 N1430 2.617 . S
Tb1439 N1440 2.572 . S
Tb1439 O1474 2.349 . S
Tb1439 O1477 2.393 . S
Tb1439 O1478 2.465 . S
Tb1439 O1479 2.387 . S
Tb1439 O1481 2.428 . S
Tb1439 O1482 2.308 . S
Tb1439 C1503 2.802 . S
N1440 C1436 1.361 . S
N1440 Tb1439 2.572 . S
N1440 C1442 1.340 . S
C1441 C1435 1.416 . S
C1441 C1443 1.332 . S
C1441 H1449 0.931 . S
C1442 N1440 1.340 . S
C1442 C1443 1.407 . S
C1442 H1448 0.930 . S
C1443 C1441 1.332 . S
C1443 C1442 1.407 . S
C1443 H1445 0.929 . S
H1444 C1433 0.930 . S
H1445 C1443 0.929 . S
H1446 C1461 0.930 . S
H1447 C1468 0.929 . S
H1448 C1442 0.930 . S
H1449 C1441 0.931 . S
H1450 C1464 0.930 . S
H1451 C1431 0.930 . S
H1452 C1437 0.929 . S
H1453 C1438 0.930 . S
H1454 C1459 0.930 . S
H1455 C1434 0.930 . S
H1456 C1467 0.931 . S
N1457 Tb1428 2.617 . S
N1457 C1458 1.379 . S
N1457 C1461 1.334 . S
C1458 N1457 1.379 . S
C1458 C1460 1.416 . S
C1458 C1466 1.424 . S
C1459 H1454 0.930 . S
C1459 C1461 1.390 . S
C1459 C1462 1.339 . S
C1460 C1458 1.416 . S
C1460 C1462 1.416 . S
C1460 C1493 1.448 . S
C1461 H1446 0.930 . S
C1461 N1457 1.334 . S
C1461 C1459 1.390 . S
C1462 C1459 1.339 . S
C1462 C1460 1.416 . S
C1462 H1469 0.930 . S
N1463 Tb1428 2.572 . S
N1463 C1464 1.340 . S
N1463 C1466 1.361 . S
C1464 H1450 0.930 . S
C1464 N1463 1.340 . S
C1464 C1468 1.407 . S
C1465 C1466 1.413 . S
C1465 C1467 1.416 . S
C1465 C1494 1.427 . S
C1466 C1458 1.424 . S
C1466 N1463 1.361 . S
C1466 C1465 1.413 . S
C1467 H1456 0.931 . S
C1467 C1465 1.416 . S
C1467 C1468 1.332 . S
C1468 H1447 0.929 . S
C1468 C1464 1.407 . S
C1468 C1467 1.332 . S
H1469 C1462 0.930 . S
H1470 C1493 0.930 . S
H1471 C1494 0.929 . S
O1472 Tb1428 2.465 . S
O1472 C1492 1.264 . S
O1473 Tb1428 2.387 . S
O1473 C1484 1.264 . S
O1474 Tb1439 2.349 . S
O1474 C1484 1.243 . S
O1475 Tb1428 2.428 . S
O1475 C1492 1.256 . S
O1476 Tb1428 2.308 . S
O1476 C1491 1.266 . S
O1477 Tb1439 2.393 . S
O1477 C1491 1.248 . S
O1478 Tb1439 2.465 . S
O1478 C1503 1.264 . S
O1479 Tb1439 2.387 . S
O1479 C1495 1.264 . S
O1480 Tb1428 2.349 . S
O1480 C1495 1.243 . S
O1481 Tb1439 2.428 . S
O1481 C1503 1.256 . S
O1482 Tb1439 2.308 . S
O1482 C1502 1.266 . S
O1483 Tb1428 2.393 . S
O1483 C1502 1.248 . S
C1484 O1473 1.264 . S
C1484 O1474 1.243 . S
C1485 C1488 1.399 . S
C1485 C1490 1.383 . S
C1485 C1492 1.496 . S
C1486 C1487 1.399 . S
C1486 C1490 1.389 . S
C1487 C1486 1.399 . S
C1487 C1489 1.380 . S
C1487 H1504 0.929 . S
C1488 C1485 1.399 . S
C1488 C1489 1.392 . S
C1488 H1505 0.929 . S
C1489 C1487 1.380 . S
C1489 C1488 1.392 . S
C1489 H1506 0.929 . S
C1490 C1485 1.383 . S
C1490 C1486 1.389 . S
C1490 H1507 0.931 . S
C1491 O1476 1.266 . S
C1491 O1477 1.248 . S
C1492 Tb1428 2.802 . S
C1492 O1472 1.264 . S
C1492 O1475 1.256 . S
C1492 C1485 1.496 . S
C1493 C1460 1.448 . S
C1493 H1470 0.930 . S
C1493 C1494 1.328 . S
C1494 C1465 1.427 . S
C1494 H1471 0.929 . S
C1494 C1493 1.328 . S
C1495 O1479 1.264 . S
C1495 O1480 1.243 . S
C1496 C1499 1.399 . S
C1496 C1500 1.383 . S
C1496 C1503 1.496 . S
C1497 C1498 1.399 . S
C1497 C1500 1.389 . S
C1498 C1497 1.399 . S
C1498 C1501 1.380 . S
C1498 H1508 0.929 . S
C1499 C1496 1.399 . S
C1499 C1501 1.392 . S
C1499 H1509 0.929 . S
C1500 C1496 1.383 . S
C1500 C1497 1.389 . S
C1500 H1510 0.931 . S
C1501 C1498 1.380 . S
C1501 C1499 1.392 . S
C1501 H1511 0.929 . S
C1502 O1482 1.266 . S
C1502 O1483 1.248 . S
C1503 Tb1439 2.802 . S
C1503 O1478 1.264 . S
C1503 O1481 1.256 . S
C1503 C1496 1.496 . S
H1504 C1487 0.929 . S
H1505 C1488 0.929 . S
H1506 C1489 0.929 . S
H1507 C1490 0.931 . S
H1508 C1498 0.929 . S
H1509 C1499 0.929 . S
H1510 C1500 0.931 . S
H1511 C1501 0.929 . S
Tb1512 N1541 2.617 . S
Tb1512 N1547 2.572 . S
Tb1512 O1556 2.465 . S
Tb1512 O1557 2.387 . S
Tb1512 O1559 2.428 . S
Tb1512 O1560 2.308 . S
Tb1512 O1564 2.349 . S
Tb1512 O1567 2.393 . S
Tb1512 C1576 2.802 . S
C1513 N1514 1.379 . S
C1513 C1516 1.416 . S
C1513 C1520 1.424 . S
N1514 C1513 1.379 . S
N1514 C1517 1.334 . S
N1514 Tb1523 2.617 . S
C1515 C1517 1.390 . S
C1515 C1518 1.339 . S
C1515 H1535 0.930 . S
C1516 C1513 1.416 . S
C1516 C1518 1.416 . S
C1516 C1522 1.448 . S
C1517 N1514 1.334 . S
C1517 C1515 1.390 . S
C1517 H1528 0.930 . S
C1518 C1515 1.339 . S
C1518 C1516 1.416 . S
C1518 H1539 0.930 . S
C1519 C1520 1.413 . S
C1519 C1521 1.427 . S
C1519 C1525 1.416 . S
C1520 C1513 1.424 . S
C1520 C1519 1.413 . S
C1520 N1524 1.361 . S
C1521 C1519 1.427 . S
C1521 C1522 1.328 . S
C1521 H1536 0.929 . S
C1522 C1516 1.448 . S
C1522 C1521 1.328 . S
C1522 H1537 0.930 . S
Tb1523 N1514 2.617 . S
Tb1523 N1524 2.572 . S
Tb1523 O1558 2.349 . S
Tb1523 O1561 2.393 . S
Tb1523 O1562 2.465 . S
Tb1523 O1563 2.387 . S
Tb1523 O1565 2.428 . S
Tb1523 O1566 2.308 . S
Tb1523 C1587 2.802 . S
N1524 C1520 1.361 . S
N1524 Tb1523 2.572 . S
N1524 C1526 1.340 . S
C1525 C1519 1.416 . S
C1525 C1527 1.332 . S
C1525 H1533 0.931 . S
C1526 N1524 1.340 . S
C1526 C1527 1.407 . S
C1526 H1532 0.930 . S
C1527 C1525 1.332 . S
C1527 C1526 1.407 . S
C1527 H1529 0.929 . S
H1528 C1517 0.930 . S
H1529 C1527 0.929 . S
H1530 C1545 0.930 . S
H1531 C1552 0.929 . S
H1532 C1526 0.930 . S
H1533 C1525 0.931 . S
H1534 C1548 0.930 . S
H1535 C1515 0.930 . S
H1536 C1521 0.929 . S
H1537 C1522 0.930 . S
H1538 C1543 0.930 . S
H1539 C1518 0.930 . S
H1540 C1551 0.931 . S
N1541 Tb1512 2.617 . S
N1541 C1542 1.379 . S
N1541 C1545 1.334 . S
C1542 N1541 1.379 . S
C1542 C1544 1.416 . S
C1542 C1550 1.424 . S
C1543 H1538 0.930 . S
C1543 C1545 1.390 . S
C1543 C1546 1.339 . S
C1544 C1542 1.416 . S
C1544 C1546 1.416 . S
C1544 C1577 1.448 . S
C1545 H1530 0.930 . S
C1545 N1541 1.334 . S
C1545 C1543 1.390 . S
C1546 C1543 1.339 . S
C1546 C1544 1.416 . S
C1546 H1553 0.930 . S
N1547 Tb1512 2.572 . S
N1547 C1548 1.340 . S
N1547 C1550 1.361 . S
C1548 H1534 0.930 . S
C1548 N1547 1.340 . S
C1548 C1552 1.407 . S
C1549 C1550 1.413 . S
C1549 C1551 1.416 . S
C1549 C1578 1.427 . S
C1550 C1542 1.424 . S
C1550 N1547 1.361 . S
C1550 C1549 1.413 . S
C1551 H1540 0.931 . S
C1551 C1549 1.416 . S
C1551 C1552 1.332 . S
C1552 H1531 0.929 . S
C1552 C1548 1.407 . S
C1552 C1551 1.332 . S
H1553 C1546 0.930 . S
H1554 C1577 0.930 . S
H1555 C1578 0.929 . S
O1556 Tb1512 2.465 . S
O1556 C1576 1.264 . S
O1557 Tb1512 2.387 . S
O1557 C1568 1.264 . S
O1558 Tb1523 2.349 . S
O1558 C1568 1.243 . S
O1559 Tb1512 2.428 . S
O1559 C1576 1.256 . S
O1560 Tb1512 2.308 . S
O1560 C1575 1.266 . S
O1561 Tb1523 2.393 . S
O1561 C1575 1.248 . S
O1562 Tb1523 2.465 . S
O1562 C1587 1.264 . S
O1563 Tb1523 2.387 . S
O1563 C1579 1.264 . S
O1564 Tb1512 2.349 . S
O1564 C1579 1.243 . S
O1565 Tb1523 2.428 . S
O1565 C1587 1.256 . S
O1566 Tb1523 2.308 . S
O1566 C1586 1.266 . S
O1567 Tb1512 2.393 . S
O1567 C1586 1.248 . S
C1568 O1557 1.264 . S
C1568 O1558 1.243 . S
C1569 C1572 1.399 . S
C1569 C1574 1.383 . S
C1569 C1576 1.496 . S
C1570 C1571 1.399 . S
C1570 C1574 1.389 . S
C1571 C1570 1.399 . S
C1571 C1573 1.380 . S
C1571 H1588 0.929 . S
C1572 C1569 1.399 . S
C1572 C1573 1.392 . S
C1572 H1589 0.929 . S
C1573 C1571 1.380 . S
C1573 C1572 1.392 . S
C1573 H1590 0.929 . S
C1574 C1569 1.383 . S
C1574 C1570 1.389 . S
C1574 H1591 0.931 . S
C1575 O1560 1.266 . S
C1575 O1561 1.248 . S
C1576 Tb1512 2.802 . S
C1576 O1556 1.264 . S
C1576 O1559 1.256 . S
C1576 C1569 1.496 . S
C1577 C1544 1.448 . S
C1577 H1554 0.930 . S
C1577 C1578 1.328 . S
C1578 C1549 1.427 . S
C1578 H1555 0.929 . S
C1578 C1577 1.328 . S
C1579 O1563 1.264 . S
C1579 O1564 1.243 . S
C1580 C1583 1.399 . S
C1580 C1584 1.383 . S
C1580 C1587 1.496 . S
C1581 C1582 1.399 . S
C1581 C1584 1.389 . S
C1582 C1581 1.399 . S
C1582 C1585 1.380 . S
C1582 H1592 0.929 . S
C1583 C1580 1.399 . S
C1583 C1585 1.392 . S
C1583 H1593 0.929 . S
C1584 C1580 1.383 . S
C1584 C1581 1.389 . S
C1584 H1594 0.931 . S
C1585 C1582 1.380 . S
C1585 C1583 1.392 . S
C1585 H1595 0.929 . S
C1586 O1566 1.266 . S
C1586 O1567 1.248 . S
C1587 Tb1523 2.802 . S
C1587 O1562 1.264 . S
C1587 O1565 1.256 . S
C1587 C1580 1.496 . S
H1588 C1571 0.929 . S
H1589 C1572 0.929 . S
H1590 C1573 0.929 . S
H1591 C1574 0.931 . S
H1592 C1582 0.929 . S
H1593 C1583 0.929 . S
H1594 C1584 0.931 . S
H1595 C1585 0.929 . S
Tb1596 N1625 2.629 . S
Tb1596 N1631 2.600 . S
Tb1596 O1640 2.504 . S
Tb1596 O1641 2.362 1_655 S
Tb1596 O1643 2.459 . S
Tb1596 O1644 2.300 1_655 S
Tb1596 O1648 2.336 1_655 S
Tb1596 O1651 2.361 1_655 S
Tb1596 C1660 2.841 . S
C1597 N1598 1.379 . S
C1597 C1600 1.416 . S
C1597 C1604 1.424 1_556 S
N1598 C1597 1.379 . S
N1598 C1601 1.334 . S
N1598 Tb1607 2.617 1_556 S
C1599 C1601 1.390 . S
C1599 C1602 1.339 . S
C1599 H1619 0.930 . S
C1600 C1597 1.416 . S
C1600 C1602 1.416 . S
C1600 C1606 1.448 . S
C1601 N1598 1.334 . S
C1601 C1599 1.390 . S
C1601 H1612 0.930 . S
C1602 C1599 1.339 . S
C1602 C1600 1.416 . S
C1602 H1623 0.930 . S
C1603 C1604 1.413 . S
C1603 C1605 1.427 . S
C1603 C1609 1.416 . S
C1604 C1597 1.424 1_554 S
C1604 C1603 1.413 . S
C1604 N1608 1.361 . S
C1605 C1603 1.427 . S
C1605 C1606 1.328 1_554 S
C1605 H1620 0.929 . S
C1606 C1600 1.448 . S
C1606 C1605 1.328 1_556 S
C1606 H1621 0.930 . S
Tb1607 N1598 2.617 1_554 S
Tb1607 N1608 2.572 . S
Tb1607 O1642 2.349 . S
Tb1607 O1645 2.393 1_554 S
Tb1607 O1646 2.465 . S
Tb1607 O1647 2.387 . S
Tb1607 O1649 2.428 1_554 S
Tb1607 O1650 2.308 . S
Tb1607 C1671 2.802 . S
N1608 C1604 1.361 . S
N1608 Tb1607 2.572 . S
N1608 C1610 1.340 . S
C1609 C1603 1.416 . S
C1609 C1611 1.332 . S
C1609 H1617 0.931 . S
C1610 N1608 1.340 . S
C1610 C1611 1.407 . S
C1610 H1616 0.930 . S
C1611 C1609 1.332 . S
C1611 C1610 1.407 . S
C1611 H1613 0.929 . S
H1612 C1601 0.930 . S
H1613 C1611 0.929 . S
H1614 C1629 0.930 1_455 S
H1615 C1636 0.929 1_556 S
H1616 C1610 0.930 . S
H1617 C1609 0.931 . S
H1618 C1632 0.930 . S
H1619 C1599 0.930 . S
H1620 C1605 0.929 . S
H1621 C1606 0.930 . S
H1622 C1627 0.924 1_455 S
H1623 C1602 0.930 . S
H1624 C1635 0.931 . S
N1625 Tb1596 2.629 . S
N1625 C1626 1.379 . S
N1625 C1629 1.334 . S
C1626 N1625 1.379 . S
C1626 C1628 1.416 . S
C1626 C1634 1.424 . S
C1627 H1622 0.924 1_655 S
C1627 C1629 1.390 . S
C1627 C1630 1.339 . S
C1628 C1626 1.416 . S
C1628 C1630 1.416 . S
C1628 C1661 1.448 . S
C1629 H1614 0.930 1_655 S
C1629 N1625 1.334 . S
C1629 C1627 1.390 . S
C1630 C1627 1.339 . S
C1630 C1628 1.416 . S
C1630 H1637 0.930 . S
N1631 Tb1596 2.600 . S
N1631 C1632 1.340 . S
N1631 C1634 1.361 . S
C1632 H1618 0.930 . S
C1632 N1631 1.340 . S
C1632 C1636 1.407 . S
C1633 C1634 1.413 . S
C1633 C1635 1.416 . S
C1633 C1662 1.427 . S
C1634 C1626 1.424 . S
C1634 N1631 1.361 . S
C1634 C1633 1.413 . S
C1635 H1624 0.931 . S
C1635 C1633 1.416 . S
C1635 C1636 1.332 . S
C1636 H1615 0.929 1_554 S
C1636 C1632 1.407 . S
C1636 C1635 1.332 . S
H1637 C1630 0.930 . S
H1638 C1661 0.930 . S
H1639 C1662 0.929 . S
O1640 Tb1596 2.504 . S
O1640 C1660 1.264 . S
O1641 Tb1596 2.362 1_455 S
O1641 C1652 1.264 . S
O1642 Tb1607 2.349 . S
O1642 C1652 1.243 . S
O1643 Tb1596 2.459 . S
O1643 C1660 1.256 . S
O1644 Tb1596 2.300 1_455 S
O1644 C1659 1.266 1_554 S
O1645 Tb1607 2.393 1_556 S
O1645 C1659 1.248 . S
O1646 Tb1607 2.465 . S
O1646 C1671 1.264 . S
O1647 Tb1607 2.387 . S
O1647 C1663 1.264 . S
O1648 Tb1596 2.336 1_455 S
O1648 C1663 1.243 . S
O1649 Tb1607 2.428 1_556 S
O1649 C1671 1.256 1_556 S
O1650 Tb1607 2.308 . S
O1650 C1670 1.266 . S
O1651 Tb1596 2.361 1_455 S
O1651 C1670 1.248 . S
C1652 O1641 1.264 . S
C1652 O1642 1.243 . S
C1653 C1656 1.399 . S
C1653 C1658 1.383 . S
C1653 C1660 1.496 . S
C1654 C1655 1.399 . S
C1654 C1658 1.389 . S
C1655 C1654 1.399 . S
C1655 C1657 1.380 . S
C1655 H1672 0.929 . S
C1656 C1653 1.399 . S
C1656 C1657 1.392 . S
C1656 H1673 0.929 . S
C1657 C1655 1.380 . S
C1657 C1656 1.392 . S
C1657 H1674 0.929 . S
C1658 C1653 1.383 . S
C1658 C1654 1.389 . S
C1658 H1675 0.931 . S
C1659 O1644 1.266 1_556 S
C1659 O1645 1.248 . S
C1660 Tb1596 2.841 . S
C1660 O1640 1.264 . S
C1660 O1643 1.256 . S
C1660 C1653 1.496 . S
C1661 C1628 1.448 . S
C1661 H1638 0.930 . S
C1661 C1662 1.328 . S
C1662 C1633 1.427 . S
C1662 H1639 0.929 . S
C1662 C1661 1.328 . S
C1663 O1647 1.264 . S
C1663 O1648 1.243 . S
C1664 C1667 1.361 1_554 S
C1664 C1668 1.412 . S
C1664 C1671 1.505 . S
C1665 C1666 1.399 1_554 S
C1665 C1668 1.389 . S
C1666 C1665 1.399 1_556 S
C1666 C1669 1.380 . S
C1666 H1676 0.929 . S
C1667 C1664 1.361 1_556 S
C1667 C1669 1.392 . S
C1667 H1677 0.929 . S
C1668 C1664 1.412 . S
C1668 C1665 1.389 . S
C1668 H1678 0.931 . S
C1669 C1666 1.380 . S
C1669 C1667 1.392 . S
C1669 H1679 0.929 . S
C1670 O1650 1.266 . S
C1670 O1651 1.248 . S
C1671 Tb1607 2.802 . S
C1671 O1646 1.264 . S
C1671 O1649 1.256 1_554 S
C1671 C1664 1.505 . S
H1672 C1655 0.929 . S
H1673 C1656 0.929 . S
H1674 C1657 0.929 . S
H1675 C1658 0.931 . S
H1676 C1666 0.929 . S
H1677 C1667 0.929 . S
H1678 C1668 0.931 . S
H1679 C1669 0.929 . S
C1680 C1681 1.392 1_454 S
C1680 C1682 1.394 . S
C1680 H1696 0.931 . S
C1681 C1680 1.392 1_656 S
C1681 C1685 1.376 . S
C1682 C1680 1.394 . S
C1682 C1683 1.369 1_554 S
C1682 C1686 1.531 . S
C1683 C1682 1.369 1_556 S
C1683 C1684 1.410 1_455 S
C1683 C1691 1.503 1_556 S
C1684 C1683 1.410 1_655 S
C1684 C1685 1.392 . S
C1684 C1687 1.511 . S
C1685 C1681 1.376 . S
C1685 C1684 1.392 . S
C1685 H1697 0.929 . S
C1686 C1682 1.531 . S
C1686 H1698 0.960 . S
C1686 H1699 0.962 . S
C1686 H1700 0.960 . S
C1687 C1684 1.511 . S
C1687 H1701 0.961 . S
C1687 H1702 0.991 . S
C1687 H1703 0.961 . S
C1688 C1689 1.370 . S
C1688 C1690 1.363 . S
C1688 H1704 0.931 . S
C1689 C1688 1.370 . S
C1689 C1693 1.447 . S
C1690 C1688 1.363 . S
C1690 C1691 1.370 . S
C1690 C1694 1.524 1_554 S
C1691 C1683 1.503 1_554 S
C1691 C1690 1.370 . S
C1691 C1692 1.403 1_455 S
C1692 C1691 1.403 1_655 S
C1692 C1693 1.390 1_655 S
C1692 C1695 1.539 . S
C1693 C1689 1.447 . S
C1693 C1692 1.390 1_455 S
C1693 H1705 0.907 1_455 S
C1694 C1690 1.524 1_556 S
C1694 H1706 0.956 1_556 S
C1694 H1707 0.961 . S
C1694 H1708 0.961 . S
C1695 C1692 1.539 . S
C1695 H1709 0.958 . S
C1695 H1710 0.961 . S
C1695 H1711 0.960 . S
H1696 C1680 0.931 . S
H1697 C1685 0.929 . S
H1698 C1686 0.960 . S
H1699 C1686 0.962 . S
H1700 C1686 0.960 . S
H1701 C1687 0.961 . S
H1702 C1687 0.991 . S
H1703 C1687 0.961 . S
H1704 C1688 0.931 . S
H1705 C1693 0.907 1_655 S
H1706 C1694 0.956 1_554 S
H1707 C1694 0.961 . S
H1708 C1694 0.961 . S
H1709 C1695 0.958 . S
H1710 C1695 0.961 . S
H1711 C1695 0.960 . S
C1712 C1713 1.391 . S
C1712 C1714 1.394 . S
C1712 H1728 0.931 . S
C1713 C1712 1.391 . S
C1713 C1717 1.376 . S
C1714 C1712 1.394 . S
C1714 C1715 1.369 . S
C1714 C1718 1.531 . S
C1715 C1714 1.369 . S
C1715 C1716 1.410 . S
C1715 C1723 1.503 . S
C1716 C1715 1.410 . S
C1716 C1717 1.392 . S
C1716 C1719 1.511 . S
C1717 C1713 1.376 . S
C1717 C1716 1.392 . S
C1717 H1729 0.929 . S
C1718 C1714 1.531 . S
C1718 H1730 0.960 . S
C1718 H1731 0.962 . S
C1718 H1732 0.960 . S
C1719 C1716 1.511 . S
C1719 H1733 0.961 . S
C1719 H1734 0.961 . S
C1719 H1735 0.961 . S
C1720 C1721 1.370 . S
C1720 C1722 1.363 . S
C1720 H1736 0.931 . S
C1721 C1720 1.370 . S
C1721 C1725 1.408 . S
C1722 C1720 1.363 . S
C1722 C1723 1.370 . S
C1722 C1726 1.524 . S
C1723 C1715 1.503 . S
C1723 C1722 1.370 . S
C1723 C1724 1.403 . S
C1724 C1723 1.403 . S
C1724 C1725 1.404 . S
C1724 C1727 1.539 . S
C1725 C1721 1.408 . S
C1725 C1724 1.404 . S
C1725 H1737 0.930 . S
C1726 C1722 1.524 . S
C1726 H1738 0.956 . S
C1726 H1739 0.961 . S
C1726 H1740 0.961 . S
C1727 C1724 1.539 . S
C1727 H1741 0.958 . S
C1727 H1742 0.961 . S
C1727 H1743 0.960 . S
H1728 C1712 0.931 . S
H1729 C1717 0.929 . S
H1730 C1718 0.960 . S
H1731 C1718 0.962 . S
H1732 C1718 0.960 . S
H1733 C1719 0.961 . S
H1734 C1719 0.961 . S
H1735 C1719 0.961 . S
H1736 C1720 0.931 . S
H1737 C1725 0.930 . S
H1738 C1726 0.956 . S
H1739 C1726 0.961 . S
H1740 C1726 0.961 . S
H1741 C1727 0.958 . S
H1742 C1727 0.961 . S
H1743 C1727 0.960 . S
C1744 C1745 1.391 . S
C1744 C1746 1.394 . S
C1744 H1760 0.931 . S
C1745 C1744 1.391 . S
C1745 C1749 1.376 . S
C1746 C1744 1.394 . S
C1746 C1747 1.369 . S
C1746 C1750 1.531 . S
C1747 C1746 1.369 . S
C1747 C1748 1.410 . S
C1747 C1755 1.503 . S
C1748 C1747 1.410 . S
C1748 C1749 1.392 . S
C1748 C1751 1.511 . S
C1749 C1745 1.376 . S
C1749 C1748 1.392 . S
C1749 H1761 0.929 . S
C1750 C1746 1.531 . S
C1750 H1762 0.960 . S
C1750 H1763 0.962 . S
C1750 H1764 0.960 . S
C1751 C1748 1.511 . S
C1751 H1765 0.961 . S
C1751 H1766 0.961 . S
C1751 H1767 0.961 . S
C1752 C1753 1.370 . S
C1752 C1754 1.363 . S
C1752 H1768 0.931 . S
C1753 C1752 1.370 . S
C1753 C1757 1.408 . S
C1754 C1752 1.363 . S
C1754 C1755 1.370 . S
C1754 C1758 1.524 . S
C1755 C1747 1.503 . S
C1755 C1754 1.370 . S
C1755 C1756 1.403 . S
C1756 C1755 1.403 . S
C1756 C1757 1.404 . S
C1756 C1759 1.539 . S
C1757 C1753 1.408 . S
C1757 C1756 1.404 . S
C1757 H1769 0.930 . S
C1758 C1754 1.524 . S
C1758 H1770 0.956 . S
C1758 H1771 0.961 . S
C1758 H1772 0.961 . S
C1759 C1756 1.539 . S
C1759 H1773 0.958 . S
C1759 H1774 0.961 . S
C1759 H1775 0.960 . S
H1760 C1744 0.931 . S
H1761 C1749 0.929 . S
H1762 C1750 0.960 . S
H1763 C1750 0.962 . S
H1764 C1750 0.960 . S
H1765 C1751 0.961 . S
H1766 C1751 0.961 . S
H1767 C1751 0.961 . S
H1768 C1752 0.931 . S
H1769 C1757 0.930 . S
H1770 C1758 0.956 . S
H1771 C1758 0.961 . S
H1772 C1758 0.961 . S
H1773 C1759 0.958 . S
H1774 C1759 0.961 . S
H1775 C1759 0.960 . S
C1776 C1777 1.391 . S
C1776 C1778 1.394 . S
C1776 H1792 0.931 . S
C1777 C1776 1.391 . S
C1777 C1781 1.376 . S
C1778 C1776 1.394 . S
C1778 C1779 1.369 . S
C1778 C1782 1.531 . S
C1779 C1778 1.369 . S
C1779 C1780 1.410 . S
C1779 C1787 1.503 . S
C1780 C1779 1.410 . S
C1780 C1781 1.392 . S
C1780 C1783 1.511 . S
C1781 C1777 1.376 . S
C1781 C1780 1.392 . S
C1781 H1793 0.929 . S
C1782 C1778 1.531 . S
C1782 H1794 0.960 . S
C1782 H1795 0.962 . S
C1782 H1796 0.960 . S
C1783 C1780 1.511 . S
C1783 H1797 0.961 . S
C1783 H1798 0.961 . S
C1783 H1799 0.961 . S
C1784 C1785 1.370 . S
C1784 C1786 1.363 . S
C1784 H1800 0.931 . S
C1785 C1784 1.370 . S
C1785 C1789 1.408 . S
C1786 C1784 1.363 . S
C1786 C1787 1.370 . S
C1786 C1790 1.524 . S
C1787 C1779 1.503 . S
C1787 C1786 1.370 . S
C1787 C1788 1.403 . S
C1788 C1787 1.403 . S
C1788 C1789 1.404 . S
C1788 C1791 1.539 . S
C1789 C1785 1.408 . S
C1789 C1788 1.404 . S
C1789 H1801 0.930 . S
C1790 C1786 1.524 . S
C1790 H1802 0.956 . S
C1790 H1803 0.961 . S
C1790 H1804 0.961 . S
C1791 C1788 1.539 . S
C1791 H1805 0.958 . S
C1791 H1806 0.961 . S
C1791 H1807 0.960 . S
H1792 C1776 0.931 . S
H1793 C1781 0.929 . S
H1794 C1782 0.960 . S
H1795 C1782 0.962 . S
H1796 C1782 0.960 . S
H1797 C1783 0.961 . S
H1798 C1783 0.961 . S
H1799 C1783 0.961 . S
H1800 C1784 0.931 . S
H1801 C1789 0.930 . S
H1802 C1790 0.956 . S
H1803 C1790 0.961 . S
H1804 C1790 0.961 . S
H1805 C1791 0.958 . S
H1806 C1791 0.961 . S
H1807 C1791 0.960 . S
C1808 C1809 1.391 . S
C1808 C1810 1.394 . S
C1808 H1824 0.931 . S
C1809 C1808 1.391 . S
C1809 C1813 1.376 . S
C1810 C1808 1.394 . S
C1810 C1811 1.369 . S
C1810 C1814 1.531 . S
C1811 C1810 1.369 . S
C1811 C1812 1.410 . S
C1811 C1819 1.503 . S
C1812 C1811 1.410 . S
C1812 C1813 1.392 . S
C1812 C1815 1.511 . S
C1813 C1809 1.376 . S
C1813 C1812 1.392 . S
C1813 H1825 0.929 . S
C1814 C1810 1.531 . S
C1814 H1826 0.960 . S
C1814 H1827 0.961 1_455 S
C1814 H1828 0.960 1_455 S
C1815 C1812 1.511 . S
C1815 H1829 0.961 . S
C1815 H1830 0.961 . S
C1815 H1831 0.961 . S
C1816 C1817 1.370 . S
C1816 C1818 1.363 . S
C1816 H1832 0.931 . S
C1817 C1816 1.370 . S
C1817 C1821 1.408 . S
C1818 C1816 1.363 . S
C1818 C1819 1.370 . S
C1818 C1822 1.524 . S
C1819 C1811 1.503 . S
C1819 C1818 1.370 . S
C1819 C1820 1.403 . S
C1820 C1819 1.403 . S
C1820 C1821 1.404 . S
C1820 C1823 1.539 . S
C1821 C1817 1.408 . S
C1821 C1820 1.404 . S
C1821 H1833 0.930 . S
C1822 C1818 1.524 . S
C1822 H1834 0.956 1_455 S
C1822 H1835 0.961 . S
C1822 H1836 0.961 1_455 S
C1823 C1820 1.539 . S
C1823 H1837 0.958 . S
C1823 H1838 0.961 . S
C1823 H1839 0.960 . S
H1824 C1808 0.931 . S
H1825 C1813 0.929 . S
H1826 C1814 0.960 . S
H1827 C1814 0.961 1_655 S
H1828 C1814 0.960 1_655 S
H1829 C1815 0.961 . S
H1830 C1815 0.961 . S
H1831 C1815 0.961 . S
H1832 C1816 0.931 . S
H1833 C1821 0.930 . S
H1834 C1822 0.956 1_655 S
H1835 C1822 0.961 . S
H1836 C1822 0.961 1_655 S
H1837 C1823 0.958 . S
H1838 C1823 0.961 . S
H1839 C1823 0.960 . S
C1840 C1841 1.391 . S
C1840 C1842 1.394 . S
C1840 H1856 0.931 . S
C1841 C1840 1.391 . S
C1841 C1845 1.376 . S
C1842 C1840 1.394 . S
C1842 C1843 1.369 . S
C1842 C1846 1.531 . S
C1843 C1842 1.369 . S
C1843 C1844 1.410 . S
C1843 C1851 1.503 . S
C1844 C1843 1.410 . S
C1844 C1845 1.392 . S
C1844 C1847 1.511 . S
C1845 C1841 1.376 . S
C1845 C1844 1.392 . S
C1845 H1857 0.929 . S
C1846 C1842 1.531 . S
C1846 H1858 0.960 . S
C1846 H1859 0.962 . S
C1846 H1860 0.960 . S
C1847 C1844 1.511 . S
C1847 H1861 0.961 . S
C1847 H1862 0.961 . S
C1847 H1863 0.961 . S
C1848 C1849 1.370 . S
C1848 C1850 1.363 . S
C1848 H1864 0.931 . S
C1849 C1848 1.370 . S
C1849 C1853 1.408 . S
C1850 C1848 1.363 . S
C1850 C1851 1.370 . S
C1850 C1854 1.524 . S
C1851 C1843 1.503 . S
C1851 C1850 1.370 . S
C1851 C1852 1.403 . S
C1852 C1851 1.403 . S
C1852 C1853 1.404 . S
C1852 C1855 1.539 . S
C1853 C1849 1.408 . S
C1853 C1852 1.404 . S
C1853 H1865 0.930 . S
C1854 C1850 1.524 . S
C1854 H1866 0.956 . S
C1854 H1867 0.961 . S
C1854 H1868 0.961 . S
C1855 C1852 1.539 . S
C1855 H1869 0.958 . S
C1855 H1870 0.961 . S
C1855 H1871 0.960 . S
H1856 C1840 0.931 . S
H1857 C1845 0.929 . S
H1858 C1846 0.960 . S
H1859 C1846 0.962 . S
H1860 C1846 0.960 . S
H1861 C1847 0.961 . S
H1862 C1847 0.961 . S
H1863 C1847 0.961 . S
H1864 C1848 0.931 . S
H1865 C1853 0.930 . S
H1866 C1854 0.956 . S
H1867 C1854 0.961 . S
H1868 C1854 0.961 . S
H1869 C1855 0.958 . S
H1870 C1855 0.961 . S
H1871 C1855 0.960 . S
C1872 C1873 1.391 . S
C1872 C1874 1.394 . S
C1872 H1888 0.931 . S
C1873 C1872 1.391 . S
C1873 C1877 1.376 . S
C1874 C1872 1.394 . S
C1874 C1875 1.369 . S
C1874 C1878 1.531 . S
C1875 C1874 1.369 . S
C1875 C1876 1.410 . S
C1875 C1883 1.503 . S
C1876 C1875 1.410 . S
C1876 C1877 1.392 . S
C1876 C1879 1.511 . S
C1877 C1873 1.376 . S
C1877 C1876 1.392 . S
C1877 H1889 0.929 . S
C1878 C1874 1.531 . S
C1878 H1890 0.960 . S
C1878 H1891 0.962 . S
C1878 H1892 0.960 . S
C1879 C1876 1.511 . S
C1879 H1893 0.961 . S
C1879 H1894 0.961 . S
C1879 H1895 0.961 . S
C1880 C1881 1.370 . S
C1880 C1882 1.363 . S
C1880 H1896 0.931 . S
C1881 C1880 1.370 . S
C1881 C1885 1.408 . S
C1882 C1880 1.363 . S
C1882 C1883 1.370 . S
C1882 C1886 1.524 . S
C1883 C1875 1.503 . S
C1883 C1882 1.370 . S
C1883 C1884 1.403 . S
C1884 C1883 1.403 . S
C1884 C1885 1.404 . S
C1884 C1887 1.539 . S
C1885 C1881 1.408 . S
C1885 C1884 1.404 . S
C1885 H1897 0.930 . S
C1886 C1882 1.524 . S
C1886 H1898 0.956 . S
C1886 H1899 0.961 . S
C1886 H1900 0.961 . S
C1887 C1884 1.539 . S
C1887 H1901 0.958 . S
C1887 H1902 0.961 . S
C1887 H1903 0.960 . S
H1888 C1872 0.931 . S
H1889 C1877 0.929 . S
H1890 C1878 0.960 . S
H1891 C1878 0.962 . S
H1892 C1878 0.960 . S
H1893 C1879 0.961 . S
H1894 C1879 0.961 . S
H1895 C1879 0.961 . S
H1896 C1880 0.931 . S
H1897 C1885 0.930 . S
H1898 C1886 0.956 . S
H1899 C1886 0.961 . S
H1900 C1886 0.961 . S
H1901 C1887 0.958 . S
H1902 C1887 0.961 . S
H1903 C1887 0.960 . S
C1904 C1905 1.391 . S
C1904 C1906 1.394 . S
C1904 H1920 0.931 . S
C1905 C1904 1.391 . S
C1905 C1909 1.376 . S
C1906 C1904 1.394 . S
C1906 C1907 1.369 . S
C1906 C1910 1.531 . S
C1907 C1906 1.369 . S
C1907 C1908 1.410 . S
C1907 C1915 1.503 . S
C1908 C1907 1.410 . S
C1908 C1909 1.392 . S
C1908 C1911 1.511 . S
C1909 C1905 1.376 . S
C1909 C1908 1.392 . S
C1909 H1921 0.929 . S
C1910 C1906 1.531 . S
C1910 H1922 0.960 . S
C1910 H1923 0.962 . S
C1910 H1924 0.960 . S
C1911 C1908 1.511 . S
C1911 H1925 0.961 . S
C1911 H1926 0.961 . S
C1911 H1927 0.961 . S
C1912 C1913 1.370 . S
C1912 C1914 1.363 . S
C1912 H1928 0.931 . S
C1913 C1912 1.370 . S
C1913 C1917 1.408 . S
C1914 C1912 1.363 . S
C1914 C1915 1.370 . S
C1914 C1918 1.524 . S
C1915 C1907 1.503 . S
C1915 C1914 1.370 . S
C1915 C1916 1.403 . S
C1916 C1915 1.403 . S
C1916 C1917 1.404 . S
C1916 C1919 1.539 . S
C1917 C1913 1.408 . S
C1917 C1916 1.404 . S
C1917 H1929 0.930 . S
C1918 C1914 1.524 . S
C1918 H1930 0.956 . S
C1918 H1931 0.961 . S
C1918 H1932 0.961 . S
C1919 C1916 1.539 . S
C1919 H1933 0.958 . S
C1919 H1934 0.961 . S
C1919 H1935 0.960 . S
H1920 C1904 0.931 . S
H1921 C1909 0.929 . S
H1922 C1910 0.960 . S
H1923 C1910 0.962 . S
H1924 C1910 0.960 . S
H1925 C1911 0.961 . S
H1926 C1911 0.961 . S
H1927 C1911 0.961 . S
H1928 C1912 0.931 . S
H1929 C1917 0.930 . S
H1930 C1918 0.956 . S
H1931 C1918 0.961 . S
H1932 C1918 0.961 . S
H1933 C1919 0.958 . S
H1934 C1919 0.961 . S
H1935 C1919 0.960 . S
C1936 C1937 1.391 . S
C1936 C1938 1.394 . S
C1936 H1952 0.931 . S
C1937 C1936 1.391 . S
C1937 C1941 1.376 . S
C1938 C1936 1.394 . S
C1938 C1939 1.369 . S
C1938 C1942 1.531 1_655 S
C1939 C1938 1.369 . S
C1939 C1940 1.410 . S
C1939 C1947 1.503 . S
C1940 C1939 1.410 . S
C1940 C1941 1.392 . S
C1940 C1943 1.511 . S
C1941 C1937 1.376 . S
C1941 C1940 1.392 . S
C1941 H1953 0.929 . S
C1942 C1938 1.531 1_455 S
C1942 H1954 0.960 . S
C1942 H1955 0.962 . S
C1942 H1956 0.960 . S
C1943 C1940 1.511 . S
C1943 H1957 0.961 . S
C1943 H1958 0.961 . S
C1943 H1959 0.961 . S
C1944 C1945 1.370 . S
C1944 C1946 1.363 1_455 S
C1944 H1960 0.931 . S
C1945 C1944 1.370 . S
C1945 C1949 1.408 1_455 S
C1946 C1944 1.363 1_655 S
C1946 C1947 1.370 . S
C1946 C1950 1.524 . S
C1947 C1939 1.503 . S
C1947 C1946 1.370 . S
C1947 C1948 1.403 . S
C1948 C1947 1.403 . S
C1948 C1949 1.404 . S
C1948 C1951 1.539 1_545 S
C1949 C1945 1.408 1_655 S
C1949 C1948 1.404 . S
C1949 H1961 0.920 1_545 S
C1950 C1946 1.524 . S
C1950 H1962 0.974 . S
C1950 H1963 0.961 . S
C1950 H1964 0.961 . S
C1951 C1948 1.539 1_565 S
C1951 H1965 0.958 . S
C1951 H1966 0.961 . S
C1951 H1967 0.960 . S
H1952 C1936 0.931 . S
H1953 C1941 0.929 . S
H1954 C1942 0.960 . S
H1955 C1942 0.962 . S
H1956 C1942 0.960 . S
H1957 C1943 0.961 . S
H1958 C1943 0.961 . S
H1959 C1943 0.961 . S
H1960 C1944 0.931 . S
H1961 C1949 0.920 1_565 S
H1962 C1950 0.974 . S
H1963 C1950 0.961 . S
H1964 C1950 0.961 . S
H1965 C1951 0.958 . S
H1966 C1951 0.961 . S
H1967 C1951 0.960 . S
C1968 C1969 1.391 . S
C1968 C1970 1.394 . S
C1968 H1984 0.931 . S
C1969 C1968 1.391 . S
C1969 C1973 1.376 . S
C1970 C1968 1.394 . S
C1970 C1971 1.369 . S
C1970 C1974 1.531 . S
C1971 C1970 1.369 . S
C1971 C1972 1.410 . S
C1971 C1979 1.503 . S
C1972 C1971 1.410 . S
C1972 C1973 1.392 . S
C1972 C1975 1.511 . S
C1973 C1969 1.376 . S
C1973 C1972 1.392 . S
C1973 H1985 0.929 . S
C1974 C1970 1.531 . S
C1974 H1986 0.960 . S
C1974 H1987 0.962 . S
C1974 H1988 0.960 . S
C1975 C1972 1.511 . S
C1975 H1989 0.961 . S
C1975 H1990 0.961 . S
C1975 H1991 0.961 . S
C1976 C1977 1.370 . S
C1976 C1978 1.363 . S
C1976 H1992 0.931 . S
C1977 C1976 1.370 . S
C1977 C1981 1.408 . S
C1978 C1976 1.363 . S
C1978 C1979 1.370 . S
C1978 C1982 1.524 . S
C1979 C1971 1.503 . S
C1979 C1978 1.370 . S
C1979 C1980 1.403 . S
C1980 C1979 1.403 . S
C1980 C1981 1.404 . S
C1980 C1983 1.539 . S
C1981 C1977 1.408 . S
C1981 C1980 1.404 . S
C1981 H1993 0.930 . S
C1982 C1978 1.524 . S
C1982 H1994 0.956 . S
C1982 H1995 0.961 . S
C1982 H1996 0.961 . S
C1983 C1980 1.539 . S
C1983 H1997 0.958 . S
C1983 H1998 0.961 . S
C1983 H1999 0.960 . S
H1984 C1968 0.931 . S
H1985 C1973 0.929 . S
H1986 C1974 0.960 . S
H1987 C1974 0.962 . S
H1988 C1974 0.960 . S
H1989 C1975 0.961 . S
H1990 C1975 0.961 . S
H1991 C1975 0.961 . S
H1992 C1976 0.931 . S
H1993 C1981 0.930 . S
H1994 C1982 0.956 . S
H1995 C1982 0.961 . S
H1996 C1982 0.961 . S
H1997 C1983 0.958 . S
H1998 C1983 0.961 . S
H1999 C1983 0.960 . S
C2000 C2001 1.391 . S
C2000 C2002 1.394 . S
C2000 H2016 0.931 . S
C2001 C2000 1.391 . S
C2001 C2005 1.376 . S
C2002 C2000 1.394 . S
C2002 C2003 1.369 . S
C2002 C2006 1.531 . S
C2003 C2002 1.369 . S
C2003 C2004 1.410 . S
C2003 C2011 1.503 . S
C2004 C2003 1.410 . S
C2004 C2005 1.392 . S
C2004 C2007 1.511 . S
C2005 C2001 1.376 . S
C2005 C2004 1.392 . S
C2005 H2017 0.929 . S
C2006 C2002 1.531 . S
C2006 H2018 0.960 . S
C2006 H2019 0.962 . S
C2006 H2020 0.960 . S
C2007 C2004 1.511 . S
C2007 H2021 0.961 . S
C2007 H2022 0.961 . S
C2007 H2023 0.961 . S
C2008 C2009 1.370 . S
C2008 C2010 1.363 . S
C2008 H2024 0.931 . S
C2009 C2008 1.370 . S
C2009 C2013 1.408 . S
C2010 C2008 1.363 . S
C2010 C2011 1.370 . S
C2010 C2014 1.524 . S
C2011 C2003 1.503 . S
C2011 C2010 1.370 . S
C2011 C2012 1.403 . S
C2012 C2011 1.403 . S
C2012 C2013 1.404 . S
C2012 C2015 1.539 . S
C2013 C2009 1.408 . S
C2013 C2012 1.404 . S
C2013 H2025 0.930 . S
C2014 C2010 1.524 . S
C2014 H2026 0.956 1_545 S
C2014 H2027 0.961 . S
C2014 H2028 0.961 1_545 S
C2015 C2012 1.539 . S
C2015 H2029 0.958 . S
C2015 H2030 0.961 . S
C2015 H2031 0.960 . S
H2016 C2000 0.931 . S
H2017 C2005 0.929 . S
H2018 C2006 0.960 . S
H2019 C2006 0.962 . S
H2020 C2006 0.960 . S
H2021 C2007 0.961 . S
H2022 C2007 0.961 . S
H2023 C2007 0.961 . S
H2024 C2008 0.931 . S
H2025 C2013 0.930 . S
H2026 C2014 0.956 1_565 S
H2027 C2014 0.961 . S
H2028 C2014 0.961 1_565 S
H2029 C2015 0.958 . S
H2030 C2015 0.961 . S
H2031 C2015 0.960 . S
C2032 C2033 1.391 . S
C2032 C2034 1.394 . S
C2032 H2048 0.931 . S
C2033 C2032 1.391 . S
C2033 C2037 1.376 . S
C2034 C2032 1.394 . S
C2034 C2035 1.369 . S
C2034 C2038 1.531 . S
C2035 C2034 1.369 . S
C2035 C2036 1.410 . S
C2035 C2043 1.503 . S
C2036 C2035 1.410 . S
C2036 C2037 1.392 . S
C2036 C2039 1.511 . S
C2037 C2033 1.376 . S
C2037 C2036 1.392 . S
C2037 H2049 0.929 . S
C2038 C2034 1.531 . S
C2038 H2050 0.960 . S
C2038 H2051 0.962 . S
C2038 H2052 0.960 . S
C2039 C2036 1.511 . S
C2039 H2053 0.961 . S
C2039 H2054 0.961 . S
C2039 H2055 0.961 . S
C2040 C2041 1.370 . S
C2040 C2042 1.363 . S
C2040 H2056 0.931 . S
C2041 C2040 1.370 . S
C2041 C2045 1.408 . S
C2042 C2040 1.363 . S
C2042 C2043 1.370 . S
C2042 C2046 1.524 . S
C2043 C2035 1.503 . S
C2043 C2042 1.370 . S
C2043 C2044 1.403 . S
C2044 C2043 1.403 . S
C2044 C2045 1.404 . S
C2044 C2047 1.539 . S
C2045 C2041 1.408 . S
C2045 C2044 1.404 . S
C2045 H2057 0.930 . S
C2046 C2042 1.524 . S
C2046 H2058 0.956 . S
C2046 H2059 0.961 . S
C2046 H2060 0.961 . S
C2047 C2044 1.539 . S
C2047 H2061 0.958 . S
C2047 H2062 0.961 . S
C2047 H2063 0.960 . S
H2048 C2032 0.931 . S
H2049 C2037 0.929 . S
H2050 C2038 0.960 . S
H2051 C2038 0.962 . S
H2052 C2038 0.960 . S
H2053 C2039 0.961 . S
H2054 C2039 0.961 . S
H2055 C2039 0.961 . S
H2056 C2040 0.931 . S
H2057 C2045 0.930 . S
H2058 C2046 0.956 . S
H2059 C2046 0.961 . S
H2060 C2046 0.961 . S
H2061 C2047 0.958 . S
H2062 C2047 0.961 . S
H2063 C2047 0.960 . S
C2064 C2065 1.391 . S
C2064 C2066 1.394 . S
C2064 H2080 0.931 1_545 S
C2065 C2064 1.391 . S
C2065 C2069 1.376 . S
C2066 C2064 1.394 . S
C2066 C2067 1.369 . S
C2066 C2070 1.531 1_545 S
C2067 C2066 1.369 . S
C2067 C2068 1.410 . S
C2067 C2075 1.503 . S
C2068 C2067 1.410 . S
C2068 C2069 1.392 . S
C2068 C2071 1.511 1_655 S
C2069 C2065 1.376 . S
C2069 C2068 1.392 . S
C2069 H2081 0.929 . S
C2070 C2066 1.531 1_565 S
C2070 H2082 0.960 . S
C2070 H2083 0.962 . S
C2070 H2084 0.960 . S
C2071 C2068 1.511 1_455 S
C2071 H2085 0.961 . S
C2071 H2086 0.961 . S
C2071 H2087 0.961 . S
C2072 C2073 1.370 1_655 S
C2072 C2074 1.363 . S
C2072 H2088 0.931 . S
C2073 C2072 1.370 1_455 S
C2073 C2077 1.408 . S
C2074 C2072 1.363 . S
C2074 C2075 1.370 . S
C2074 C2078 1.524 . S
C2075 C2067 1.503 . S
C2075 C2074 1.370 . S
C2075 C2076 1.403 1_655 S
C2076 C2075 1.403 1_455 S
C2076 C2077 1.404 . S
C2076 C2079 1.539 1_545 S
C2077 C2073 1.408 . S
C2077 C2076 1.404 . S
C2077 H2089 0.930 1_545 S
C2078 C2074 1.524 . S
C2078 H2090 0.956 . S
C2078 H2091 0.961 . S
C2078 H2092 0.961 . S
C2079 C2076 1.539 1_565 S
C2079 H2093 0.958 . S
C2079 H2094 0.961 . S
C2079 H2095 0.960 . S
H2080 C2064 0.931 1_565 S
H2081 C2069 0.929 . S
H2082 C2070 0.960 . S
H2083 C2070 0.962 . S
H2084 C2070 0.960 . S
H2085 C2071 0.961 . S
H2086 C2071 0.961 . S
H2087 C2071 0.961 . S
H2088 C2072 0.931 . S
H2089 C2077 0.930 1_565 S
H2090 C2078 0.956 . S
H2091 C2078 0.961 . S
H2092 C2078 0.961 . S
H2093 C2079 0.958 . S
H2094 C2079 0.961 . S
H2095 C2079 0.960 . S
C2096 C2097 1.391 . S
C2096 C2098 1.394 . S
C2096 H2112 0.931 . S
C2097 C2096 1.391 . S
C2097 C2101 1.376 . S
C2098 C2096 1.394 . S
C2098 C2099 1.369 . S
C2098 C2102 1.531 . S
C2099 C2098 1.369 . S
C2099 C2100 1.410 . S
C2099 C2107 1.503 . S
C2100 C2099 1.410 . S
C2100 C2101 1.392 . S
C2100 C2103 1.511 . S
C2101 C2097 1.376 . S
C2101 C2100 1.392 . S
C2101 H2113 0.929 . S
C2102 C2098 1.531 . S
C2102 H2114 0.960 . S
C2102 H2115 0.962 . S
C2102 H2116 0.960 . S
C2103 C2100 1.511 . S
C2103 H2117 0.961 . S
C2103 H2118 0.961 . S
C2103 H2119 0.961 . S
C2104 C2105 1.370 . S
C2104 C2106 1.363 . S
C2104 H2120 0.931 . S
C2105 C2104 1.370 . S
C2105 C2109 1.408 . S
C2106 C2104 1.363 . S
C2106 C2107 1.370 . S
C2106 C2110 1.524 . S
C2107 C2099 1.503 . S
C2107 C2106 1.370 . S
C2107 C2108 1.403 . S
C2108 C2107 1.403 . S
C2108 C2109 1.404 . S
C2108 C2111 1.539 . S
C2109 C2105 1.408 . S
C2109 C2108 1.404 . S
C2109 H2121 0.930 . S
C2110 C2106 1.524 . S
C2110 H2122 0.956 . S
C2110 H2123 0.961 . S
C2110 H2124 0.961 . S
C2111 C2108 1.539 . S
C2111 H2125 0.958 . S
C2111 H2126 0.961 . S
C2111 H2127 0.960 . S
H2112 C2096 0.931 . S
H2113 C2101 0.929 . S
H2114 C2102 0.960 . S
H2115 C2102 0.962 . S
H2116 C2102 0.960 . S
H2117 C2103 0.961 . S
H2118 C2103 0.961 . S
H2119 C2103 0.961 . S
H2120 C2104 0.931 . S
H2121 C2109 0.930 . S
H2122 C2110 0.956 . S
H2123 C2110 0.961 . S
H2124 C2110 0.961 . S
H2125 C2111 0.958 . S
H2126 C2111 0.961 . S
H2127 C2111 0.960 . S
C2128 C2129 1.391 . S
C2128 C2130 1.394 . S
C2128 H2144 0.931 . S
C2129 C2128 1.391 . S
C2129 C2133 1.376 . S
C2130 C2128 1.394 . S
C2130 C2131 1.369 . S
C2130 C2134 1.531 . S
C2131 C2130 1.369 . S
C2131 C2132 1.410 . S
C2131 C2139 1.503 . S
C2132 C2131 1.410 . S
C2132 C2133 1.392 . S
C2132 C2135 1.511 . S
C2133 C2129 1.376 . S
C2133 C2132 1.392 . S
C2133 H2145 0.929 . S
C2134 C2130 1.531 . S
C2134 H2146 0.960 . S
C2134 H2147 0.962 . S
C2134 H2148 0.960 . S
C2135 C2132 1.511 . S
C2135 H2149 0.961 . S
C2135 H2150 0.961 . S
C2135 H2151 0.961 . S
C2136 C2137 1.370 . S
C2136 C2138 1.363 . S
C2136 H2152 0.931 . S
C2137 C2136 1.370 . S
C2137 C2141 1.408 . S
C2138 C2136 1.363 . S
C2138 C2139 1.370 . S
C2138 C2142 1.524 . S
C2139 C2131 1.503 . S
C2139 C2138 1.370 . S
C2139 C2140 1.403 . S
C2140 C2139 1.403 . S
C2140 C2141 1.404 . S
C2140 C2143 1.539 . S
C2141 C2137 1.408 . S
C2141 C2140 1.404 . S
C2141 H2153 0.930 . S
C2142 C2138 1.524 . S
C2142 H2154 0.956 . S
C2142 H2155 0.961 . S
C2142 H2156 0.961 . S
C2143 C2140 1.539 . S
C2143 H2157 0.958 . S
C2143 H2158 0.961 . S
C2143 H2159 0.960 . S
H2144 C2128 0.931 . S
H2145 C2133 0.929 . S
H2146 C2134 0.960 . S
H2147 C2134 0.962 . S
H2148 C2134 0.960 . S
H2149 C2135 0.961 . S
H2150 C2135 0.961 . S
H2151 C2135 0.961 . S
H2152 C2136 0.931 . S
H2153 C2141 0.930 . S
H2154 C2142 0.956 . S
H2155 C2142 0.961 . S
H2156 C2142 0.961 . S
H2157 C2143 0.958 . S
H2158 C2143 0.961 . S
H2159 C2143 0.960 . S
C2160 C2161 1.391 . S
C2160 C2162 1.394 . S
C2160 H2176 0.931 . S
C2161 C2160 1.391 . S
C2161 C2165 1.376 . S
C2162 C2160 1.394 . S
C2162 C2163 1.369 . S
C2162 C2166 1.531 . S
C2163 C2162 1.369 . S
C2163 C2164 1.410 . S
C2163 C2171 1.503 . S
C2164 C2163 1.410 . S
C2164 C2165 1.392 . S
C2164 C2167 1.511 . S
C2165 C2161 1.376 . S
C2165 C2164 1.392 . S
C2165 H2177 0.929 . S
C2166 C2162 1.531 . S
C2166 H2178 0.960 . S
C2166 H2179 0.962 . S
C2166 H2180 0.960 . S
C2167 C2164 1.511 . S
C2167 H2181 0.961 . S
C2167 H2182 0.961 . S
C2167 H2183 0.961 . S
C2168 C2169 1.370 . S
C2168 C2170 1.363 . S
C2168 H2184 0.931 . S
C2169 C2168 1.370 . S
C2169 C2173 1.408 . S
C2170 C2168 1.363 . S
C2170 C2171 1.370 . S
C2170 C2174 1.524 . S
C2171 C2163 1.503 . S
C2171 C2170 1.370 . S
C2171 C2172 1.403 . S
C2172 C2171 1.403 . S
C2172 C2173 1.404 . S
C2172 C2175 1.539 . S
C2173 C2169 1.408 . S
C2173 C2172 1.404 . S
C2173 H2185 0.930 . S
C2174 C2170 1.524 . S
C2174 H2186 0.956 . S
C2174 H2187 0.961 . S
C2174 H2188 0.961 . S
C2175 C2172 1.539 . S
C2175 H2189 0.958 . S
C2175 H2190 0.961 . S
C2175 H2191 0.960 . S
H2176 C2160 0.931 . S
H2177 C2165 0.929 . S
H2178 C2166 0.960 . S
H2179 C2166 0.962 . S
H2180 C2166 0.960 . S
H2181 C2167 0.961 . S
H2182 C2167 0.961 . S
H2183 C2167 0.961 . S
H2184 C2168 0.931 . S
H2185 C2173 0.930 . S
H2186 C2174 0.956 . S
H2187 C2174 0.961 . S
H2188 C2174 0.961 . S
H2189 C2175 0.958 . S
H2190 C2175 0.961 . S
H2191 C2175 0.960 . S
C2192 C2193 1.391 . S
C2192 C2194 1.394 . S
C2192 H2208 0.931 . S
C2193 C2192 1.391 . S
C2193 C2197 1.379 . S
C2194 C2192 1.394 . S
C2194 C2195 1.369 . S
C2194 C2198 1.531 . S
C2195 C2194 1.369 . S
C2195 C2196 1.410 . S
C2195 C2203 1.503 . S
C2196 C2195 1.410 . S
C2196 C2197 1.398 . S
C2196 C2199 1.511 1_565 S
C2197 C2193 1.379 . S
C2197 C2196 1.398 . S
C2197 H2209 0.920 1_554 S
C2198 C2194 1.531 . S
C2198 H2210 0.960 . S
C2198 H2211 0.962 . S
C2198 H2212 0.960 . S
C2199 C2196 1.511 1_545 S
C2199 H2213 0.961 1_554 S
C2199 H2214 0.961 . S
C2199 H2215 0.961 . S
C2200 C2201 1.367 1_565 S
C2200 C2202 1.363 . S
C2200 H2216 0.931 . S
C2201 C2200 1.367 1_545 S
C2201 C2205 1.408 . S
C2202 C2200 1.363 . S
C2202 C2203 1.370 . S
C2202 C2206 1.524 1_554 S
C2203 C2195 1.503 . S
C2203 C2202 1.370 . S
C2203 C2204 1.403 . S
C2204 C2203 1.403 . S
C2204 C2205 1.404 1_565 S
C2204 C2207 1.539 . S
C2205 C2201 1.408 . S
C2205 C2204 1.404 1_545 S
C2205 H2217 0.930 . S
C2206 C2202 1.524 1_556 S
C2206 H2218 0.956 . S
C2206 H2219 0.961 . S
C2206 H2220 0.961 . S
C2207 C2204 1.539 . S
C2207 H2221 0.958 . S
C2207 H2222 0.961 1_565 S
C2207 H2223 0.960 . S
H2208 C2192 0.931 . S
H2209 C2197 0.920 1_556 S
H2210 C2198 0.960 . S
H2211 C2198 0.962 . S
H2212 C2198 0.960 . S
H2213 C2199 0.961 1_556 S
H2214 C2199 0.961 . S
H2215 C2199 0.961 . S
H2216 C2200 0.931 . S
H2217 C2205 0.930 . S
H2218 C2206 0.956 . S
H2219 C2206 0.961 . S
H2220 C2206 0.961 . S
H2221 C2207 0.958 . S
H2222 C2207 0.961 1_545 S
H2223 C2207 0.960 . S
C2224 C2225 1.391 . S
C2224 C2226 1.394 . S
C2224 H2240 0.931 . S
C2225 C2224 1.391 . S
C2225 C2229 1.376 . S
C2226 C2224 1.394 . S
C2226 C2227 1.369 . S
C2226 C2230 1.531 . S
C2227 C2226 1.369 . S
C2227 C2228 1.410 . S
C2227 C2235 1.503 . S
C2228 C2227 1.410 . S
C2228 C2229 1.392 . S
C2228 C2231 1.511 1_554 S
C2229 C2225 1.376 . S
C2229 C2228 1.392 . S
C2229 H2241 0.929 1_554 S
C2230 C2226 1.531 . S
C2230 H2242 0.960 . S
C2230 H2243 0.962 . S
C2230 H2244 0.960 . S
C2231 C2228 1.511 1_556 S
C2231 H2245 0.961 . S
C2231 H2246 0.961 . S
C2231 H2247 0.961 1_556 S
C2232 C2233 1.370 . S
C2232 C2234 1.373 . S
C2232 H2248 0.931 1_554 S
C2233 C2232 1.370 . S
C2233 C2237 1.408 . S
C2234 C2232 1.373 . S
C2234 C2235 1.398 . S
C2234 C2238 1.488 1_554 S
C2235 C2227 1.503 . S
C2235 C2234 1.398 . S
C2235 C2236 1.403 . S
C2236 C2235 1.403 . S
C2236 C2237 1.404 . S
C2236 C2239 1.539 . S
C2237 C2233 1.408 . S
C2237 C2236 1.404 . S
C2237 H2249 0.930 . S
C2238 C2234 1.488 1_556 S
C2238 H2250 0.956 . S
C2238 H2251 0.961 . S
C2238 H2252 0.961 . S
C2239 C2236 1.539 . S
C2239 H2253 0.958 . S
C2239 H2254 0.961 . S
C2239 H2255 0.960 . S
H2240 C2224 0.931 . S
H2241 C2229 0.929 1_556 S
H2242 C2230 0.960 . S
H2243 C2230 0.962 . S
H2244 C2230 0.960 . S
H2245 C2231 0.961 . S
H2246 C2231 0.961 . S
H2247 C2231 0.961 1_554 S
H2248 C2232 0.931 1_556 S
H2249 C2237 0.930 . S
H2250 C2238 0.956 . S
H2251 C2238 0.961 . S
H2252 C2238 0.961 . S
H2253 C2239 0.958 . S
H2254 C2239 0.961 . S
H2255 C2239 0.960 . S
C2256 C2257 1.391 . S
C2256 C2258 1.394 . S
C2256 H2272 0.931 . S
C2257 C2256 1.391 . S
C2257 C2261 1.376 . S
C2258 C2256 1.394 . S
C2258 C2259 1.369 . S
C2258 C2262 1.531 . S
C2259 C2258 1.369 . S
C2259 C2260 1.410 . S
C2259 C2267 1.503 . S
C2260 C2259 1.410 . S
C2260 C2261 1.392 . S
C2260 C2263 1.511 . S
C2261 C2257 1.376 . S
C2261 C2260 1.392 . S
C2261 H2273 0.929 . S
C2262 C2258 1.531 . S
C2262 H2274 0.960 . S
C2262 H2275 0.962 . S
C2262 H2276 0.960 . S
C2263 C2260 1.511 . S
C2263 H2277 0.961 . S
C2263 H2278 0.961 . S
C2263 H2279 0.961 . S
C2264 C2265 1.370 . S
C2264 C2266 1.363 . S
C2264 H2280 0.931 . S
C2265 C2264 1.370 . S
C2265 C2269 1.408 . S
C2266 C2264 1.363 . S
C2266 C2267 1.370 . S
C2266 C2270 1.524 . S
C2267 C2259 1.503 . S
C2267 C2266 1.370 . S
C2267 C2268 1.403 . S
C2268 C2267 1.403 . S
C2268 C2269 1.404 . S
C2268 C2271 1.539 . S
C2269 C2265 1.408 . S
C2269 C2268 1.404 . S
C2269 H2281 0.930 . S
C2270 C2266 1.524 . S
C2270 H2282 0.956 . S
C2270 H2283 0.961 . S
C2270 H2284 0.961 . S
C2271 C2268 1.539 . S
C2271 H2285 0.958 . S
C2271 H2286 0.961 . S
C2271 H2287 0.960 . S
H2272 C2256 0.931 . S
H2273 C2261 0.929 . S
H2274 C2262 0.960 . S
H2275 C2262 0.962 . S
H2276 C2262 0.960 . S
H2277 C2263 0.961 . S
H2278 C2263 0.961 . S
H2279 C2263 0.961 . S
H2280 C2264 0.931 . S
H2281 C2269 0.930 . S
H2282 C2270 0.956 . S
H2283 C2270 0.961 . S
H2284 C2270 0.961 . S
H2285 C2271 0.958 . S
H2286 C2271 0.961 . S
H2287 C2271 0.960 . S
C2288 C2289 1.391 . S
C2288 C2290 1.394 . S
C2288 H2304 0.931 . S
C2289 C2288 1.391 . S
C2289 C2293 1.376 . S
C2290 C2288 1.394 . S
C2290 C2291 1.369 . S
C2290 C2294 1.531 . S
C2291 C2290 1.369 . S
C2291 C2292 1.410 . S
C2291 C2299 1.503 . S
C2292 C2291 1.410 . S
C2292 C2293 1.392 . S
C2292 C2295 1.511 . S
C2293 C2289 1.376 . S
C2293 C2292 1.392 . S
C2293 H2305 0.929 . S
C2294 C2290 1.531 . S
C2294 H2306 0.960 . S
C2294 H2307 0.962 . S
C2294 H2308 0.960 . S
C2295 C2292 1.511 . S
C2295 H2309 0.961 . S
C2295 H2310 0.961 . S
C2295 H2311 0.961 . S
C2296 C2297 1.370 . S
C2296 C2298 1.363 . S
C2296 H2312 0.931 . S
C2297 C2296 1.370 . S
C2297 C2301 1.408 . S
C2298 C2296 1.363 . S
C2298 C2299 1.370 . S
C2298 C2302 1.524 . S
C2299 C2291 1.503 . S
C2299 C2298 1.370 . S
C2299 C2300 1.403 . S
C2300 C2299 1.403 . S
C2300 C2301 1.404 . S
C2300 C2303 1.539 . S
C2301 C2297 1.408 . S
C2301 C2300 1.404 . S
C2301 H2313 0.930 . S
C2302 C2298 1.524 . S
C2302 H2314 0.956 . S
C2302 H2315 0.961 . S
C2302 H2316 0.961 . S
C2303 C2300 1.539 . S
C2303 H2317 0.958 . S
C2303 H2318 0.961 . S
C2303 H2319 0.960 . S
H2304 C2288 0.931 . S
H2305 C2293 0.929 . S
H2306 C2294 0.960 . S
H2307 C2294 0.962 . S
H2308 C2294 0.960 . S
H2309 C2295 0.961 . S
H2310 C2295 0.961 . S
H2311 C2295 0.961 . S
H2312 C2296 0.931 . S
H2313 C2301 0.930 . S
H2314 C2302 0.956 . S
H2315 C2302 0.961 . S
H2316 C2302 0.961 . S
H2317 C2303 0.958 . S
H2318 C2303 0.961 . S
H2319 C2303 0.960 . S
C2320 C2321 1.391 . S
C2320 C2322 1.394 . S
C2320 H2336 0.931 . S
C2321 C2320 1.391 . S
C2321 C2325 1.376 . S
C2322 C2320 1.394 . S
C2322 C2323 1.369 . S
C2322 C2326 1.531 . S
C2323 C2322 1.369 . S
C2323 C2324 1.410 . S
C2323 C2331 1.503 . S
C2324 C2323 1.410 . S
C2324 C2325 1.392 . S
C2324 C2327 1.511 . S
C2325 C2321 1.376 . S
C2325 C2324 1.392 . S
C2325 H2337 0.929 . S
C2326 C2322 1.531 . S
C2326 H2338 0.960 . S
C2326 H2339 0.962 . S
C2326 H2340 0.960 . S
C2327 C2324 1.511 . S
C2327 H2341 0.961 . S
C2327 H2342 0.961 . S
C2327 H2343 0.961 . S
C2328 C2329 1.370 . S
C2328 C2330 1.363 . S
C2328 H2344 0.931 . S
C2329 C2328 1.370 . S
C2329 C2333 1.408 . S
C2330 C2328 1.363 . S
C2330 C2331 1.370 . S
C2330 C2334 1.524 . S
C2331 C2323 1.503 . S
C2331 C2330 1.370 . S
C2331 C2332 1.403 . S
C2332 C2331 1.403 . S
C2332 C2333 1.404 . S
C2332 C2335 1.539 . S
C2333 C2329 1.408 . S
C2333 C2332 1.404 . S
C2333 H2345 0.930 . S
C2334 C2330 1.524 . S
C2334 H2346 0.956 . S
C2334 H2347 0.961 . S
C2334 H2348 0.961 . S
C2335 C2332 1.539 . S
C2335 H2349 0.958 . S
C2335 H2350 0.961 . S
C2335 H2351 0.960 . S
H2336 C2320 0.931 . S
H2337 C2325 0.929 . S
H2338 C2326 0.960 . S
H2339 C2326 0.962 . S
H2340 C2326 0.960 . S
H2341 C2327 0.961 . S
H2342 C2327 0.961 . S
H2343 C2327 0.961 . S
H2344 C2328 0.931 . S
H2345 C2333 0.930 . S
H2346 C2334 0.956 . S
H2347 C2334 0.961 . S
H2348 C2334 0.961 . S
H2349 C2335 0.958 . S
H2350 C2335 0.961 . S
H2351 C2335 0.960 . S
C2352 C2353 1.391 . S
C2352 C2354 1.394 . S
C2352 H2368 0.931 . S
C2353 C2352 1.391 . S
C2353 C2357 1.376 . S
C2354 C2352 1.394 . S
C2354 C2355 1.369 . S
C2354 C2358 1.531 . S
C2355 C2354 1.369 . S
C2355 C2356 1.410 . S
C2355 C2363 1.503 . S
C2356 C2355 1.410 . S
C2356 C2357 1.392 . S
C2356 C2359 1.511 . S
C2357 C2353 1.376 . S
C2357 C2356 1.392 . S
C2357 H2369 0.929 . S
C2358 C2354 1.531 . S
C2358 H2370 0.960 . S
C2358 H2371 0.962 . S
C2358 H2372 0.960 . S
C2359 C2356 1.511 . S
C2359 H2373 0.961 . S
C2359 H2374 0.961 . S
C2359 H2375 0.961 . S
C2360 C2361 1.370 . S
C2360 C2362 1.363 . S
C2360 H2376 0.931 . S
C2361 C2360 1.370 . S
C2361 C2365 1.408 . S
C2362 C2360 1.363 . S
C2362 C2363 1.370 . S
C2362 C2366 1.524 . S
C2363 C2355 1.503 . S
C2363 C2362 1.370 . S
C2363 C2364 1.403 . S
C2364 C2363 1.403 . S
C2364 C2365 1.404 . S
C2364 C2367 1.539 . S
C2365 C2361 1.408 . S
C2365 C2364 1.404 . S
C2365 H2377 0.930 . S
C2366 C2362 1.524 . S
C2366 H2378 0.956 . S
C2366 H2379 0.961 . S
C2366 H2380 0.961 . S
C2367 C2364 1.539 . S
C2367 H2381 0.958 . S
C2367 H2382 0.961 . S
C2367 H2383 0.960 . S
H2368 C2352 0.931 . S
H2369 C2357 0.929 . S
H2370 C2358 0.960 . S
H2371 C2358 0.962 . S
H2372 C2358 0.960 . S
H2373 C2359 0.961 . S
H2374 C2359 0.961 . S
H2375 C2359 0.961 . S
H2376 C2360 0.931 . S
H2377 C2365 0.930 . S
H2378 C2366 0.956 . S
H2379 C2366 0.961 . S
H2380 C2366 0.961 . S
H2381 C2367 0.958 . S
H2382 C2367 0.961 . S
H2383 C2367 0.960 . S
C2384 C2385 1.391 . S
C2384 C2386 1.394 . S
C2384 H2400 0.931 . S
C2385 C2384 1.391 . S
C2385 C2389 1.376 . S
C2386 C2384 1.394 . S
C2386 C2387 1.369 . S
C2386 C2390 1.531 . S
C2387 C2386 1.369 . S
C2387 C2388 1.410 . S
C2387 C2395 1.503 . S
C2388 C2387 1.410 . S
C2388 C2389 1.392 . S
C2388 C2391 1.511 . S
C2389 C2385 1.376 . S
C2389 C2388 1.392 . S
C2389 H2401 0.929 . S
C2390 C2386 1.531 . S
C2390 H2402 0.960 . S
C2390 H2403 0.962 . S
C2390 H2404 0.960 . S
C2391 C2388 1.511 . S
C2391 H2405 0.961 . S
C2391 H2406 0.961 . S
C2391 H2407 0.961 . S
C2392 C2393 1.370 . S
C2392 C2394 1.363 . S
C2392 H2408 0.931 . S
C2393 C2392 1.370 . S
C2393 C2397 1.408 . S
C2394 C2392 1.363 . S
C2394 C2395 1.370 . S
C2394 C2398 1.524 . S
C2395 C2387 1.503 . S
C2395 C2394 1.370 . S
C2395 C2396 1.403 . S
C2396 C2395 1.403 . S
C2396 C2397 1.404 . S
C2396 C2399 1.539 . S
C2397 C2393 1.408 . S
C2397 C2396 1.404 . S
C2397 H2409 0.930 . S
C2398 C2394 1.524 . S
C2398 H2410 0.956 . S
C2398 H2411 0.961 . S
C2398 H2412 0.961 . S
C2399 C2396 1.539 . S
C2399 H2413 0.958 . S
C2399 H2414 0.961 . S
C2399 H2415 0.960 . S
H2400 C2384 0.931 . S
H2401 C2389 0.929 . S
H2402 C2390 0.960 . S
H2403 C2390 0.962 . S
H2404 C2390 0.960 . S
H2405 C2391 0.961 . S
H2406 C2391 0.961 . S
H2407 C2391 0.961 . S
H2408 C2392 0.931 . S
H2409 C2397 0.930 . S
H2410 C2398 0.956 . S
H2411 C2398 0.961 . S
H2412 C2398 0.961 . S
H2413 C2399 0.958 . S
H2414 C2399 0.961 . S
H2415 C2399 0.960 . S
C2416 C2417 1.391 . S
C2416 C2418 1.394 . S
C2416 H2432 0.931 . S
C2417 C2416 1.391 . S
C2417 C2421 1.376 . S
C2418 C2416 1.394 . S
C2418 C2419 1.369 . S
C2418 C2422 1.531 . S
C2419 C2418 1.369 . S
C2419 C2420 1.410 . S
C2419 C2427 1.503 . S
C2420 C2419 1.410 . S
C2420 C2421 1.392 . S
C2420 C2423 1.511 . S
C2421 C2417 1.376 . S
C2421 C2420 1.392 . S
C2421 H2433 0.929 . S
C2422 C2418 1.531 . S
C2422 H2434 0.960 . S
C2422 H2435 0.962 . S
C2422 H2436 0.960 . S
C2423 C2420 1.511 . S
C2423 H2437 0.961 . S
C2423 H2438 0.961 . S
C2423 H2439 0.961 . S
C2424 C2425 1.370 . S
C2424 C2426 1.363 . S
C2424 H2440 0.931 . S
C2425 C2424 1.370 . S
C2425 C2429 1.408 . S
C2426 C2424 1.363 . S
C2426 C2427 1.370 . S
C2426 C2430 1.524 . S
C2427 C2419 1.503 . S
C2427 C2426 1.370 . S
C2427 C2428 1.403 . S
C2428 C2427 1.403 . S
C2428 C2429 1.404 . S
C2428 C2431 1.539 . S
C2429 C2425 1.408 . S
C2429 C2428 1.404 . S
C2429 H2441 0.930 . S
C2430 C2426 1.524 . S
C2430 H2442 0.956 . S
C2430 H2443 0.961 . S
C2430 H2444 0.961 . S
C2431 C2428 1.539 . S
C2431 H2445 0.958 . S
C2431 H2446 0.961 . S
C2431 H2447 0.960 . S
H2432 C2416 0.931 . S
H2433 C2421 0.929 . S
H2434 C2422 0.960 . S
H2435 C2422 0.962 . S
H2436 C2422 0.960 . S
H2437 C2423 0.961 . S
H2438 C2423 0.961 . S
H2439 C2423 0.961 . S
H2440 C2424 0.931 . S
H2441 C2429 0.930 . S
H2442 C2430 0.956 . S
H2443 C2430 0.961 . S
H2444 C2430 0.961 . S
H2445 C2431 0.958 . S
H2446 C2431 0.961 . S
H2447 C2431 0.960 . S
C2448 C2449 1.391 . S
C2448 C2450 1.394 . S
C2448 H2464 0.931 . S
C2449 C2448 1.391 . S
C2449 C2453 1.376 . S
C2450 C2448 1.394 . S
C2450 C2451 1.369 . S
C2450 C2454 1.531 . S
C2451 C2450 1.369 . S
C2451 C2452 1.410 . S
C2451 C2459 1.503 . S
C2452 C2451 1.410 . S
C2452 C2453 1.392 . S
C2452 C2455 1.511 . S
C2453 C2449 1.376 . S
C2453 C2452 1.392 . S
C2453 H2465 0.929 . S
C2454 C2450 1.531 . S
C2454 H2466 0.960 . S
C2454 H2467 0.962 . S
C2454 H2468 0.960 . S
C2455 C2452 1.511 . S
C2455 H2469 0.961 . S
C2455 H2470 0.961 . S
C2455 H2471 0.961 . S
C2456 C2457 1.370 . S
C2456 C2458 1.363 . S
C2456 H2472 0.931 . S
C2457 C2456 1.370 . S
C2457 C2461 1.408 . S
C2458 C2456 1.363 . S
C2458 C2459 1.370 . S
C2458 C2462 1.524 . S
C2459 C2451 1.503 . S
C2459 C2458 1.370 . S
C2459 C2460 1.403 . S
C2460 C2459 1.403 . S
C2460 C2461 1.404 . S
C2460 C2463 1.539 . S
C2461 C2457 1.408 . S
C2461 C2460 1.404 . S
C2461 H2473 0.930 . S
C2462 C2458 1.524 . S
C2462 H2474 0.956 . S
C2462 H2475 0.961 . S
C2462 H2476 0.961 . S
C2463 C2460 1.539 . S
C2463 H2477 0.958 . S
C2463 H2478 0.961 . S
C2463 H2479 0.960 . S
H2464 C2448 0.931 . S
H2465 C2453 0.929 . S
H2466 C2454 0.960 . S
H2467 C2454 0.962 . S
H2468 C2454 0.960 . S
H2469 C2455 0.961 . S
H2470 C2455 0.961 . S
H2471 C2455 0.961 . S
H2472 C2456 0.931 . S
H2473 C2461 0.930 . S
H2474 C2462 0.956 . S
H2475 C2462 0.961 . S
H2476 C2462 0.961 . S
H2477 C2463 0.958 . S
H2478 C2463 0.961 . S
H2479 C2463 0.960 . S
C2480 C2481 1.391 . S
C2480 C2482 1.394 . S
C2480 H2496 0.931 . S
C2481 C2480 1.391 . S
C2481 C2485 1.376 . S
C2482 C2480 1.394 . S
C2482 C2483 1.369 . S
C2482 C2486 1.531 . S
C2483 C2482 1.369 . S
C2483 C2484 1.410 . S
C2483 C2491 1.503 . S
C2484 C2483 1.410 . S
C2484 C2485 1.392 . S
C2484 C2487 1.511 . S
C2485 C2481 1.376 . S
C2485 C2484 1.392 . S
C2485 H2497 0.929 . S
C2486 C2482 1.531 . S
C2486 H2498 0.960 . S
C2486 H2499 0.962 . S
C2486 H2500 0.960 . S
C2487 C2484 1.511 . S
C2487 H2501 0.961 . S
C2487 H2502 0.961 . S
C2487 H2503 0.961 . S
C2488 C2489 1.370 . S
C2488 C2490 1.363 . S
C2488 H2504 0.931 . S
C2489 C2488 1.370 . S
C2489 C2493 1.408 . S
C2490 C2488 1.363 . S
C2490 C2491 1.370 . S
C2490 C2494 1.524 . S
C2491 C2483 1.503 . S
C2491 C2490 1.370 . S
C2491 C2492 1.403 . S
C2492 C2491 1.403 . S
C2492 C2493 1.404 . S
C2492 C2495 1.539 . S
C2493 C2489 1.408 . S
C2493 C2492 1.404 . S
C2493 H2505 0.930 . S
C2494 C2490 1.524 . S
C2494 H2506 0.956 . S
C2494 H2507 0.961 . S
C2494 H2508 0.961 . S
C2495 C2492 1.539 . S
C2495 H2509 0.958 . S
C2495 H2510 0.961 . S
C2495 H2511 0.960 . S
H2496 C2480 0.931 . S
H2497 C2485 0.929 . S
H2498 C2486 0.960 . S
H2499 C2486 0.962 . S
H2500 C2486 0.960 . S
H2501 C2487 0.961 . S
H2502 C2487 0.961 . S
H2503 C2487 0.961 . S
H2504 C2488 0.931 . S
H2505 C2493 0.930 . S
H2506 C2494 0.956 . S
H2507 C2494 0.961 . S
H2508 C2494 0.961 . S
H2509 C2495 0.958 . S
H2510 C2495 0.961 . S
H2511 C2495 0.960 . S
C2512 C2513 1.391 . S
C2512 C2514 1.394 . S
C2512 H2528 0.931 . S
C2513 C2512 1.391 . S
C2513 C2517 1.376 . S
C2514 C2512 1.394 . S
C2514 C2515 1.369 . S
C2514 C2518 1.531 . S
C2515 C2514 1.369 . S
C2515 C2516 1.410 . S
C2515 C2523 1.503 . S
C2516 C2515 1.410 . S
C2516 C2517 1.392 . S
C2516 C2519 1.511 . S
C2517 C2513 1.376 . S
C2517 C2516 1.392 . S
C2517 H2529 0.929 . S
C2518 C2514 1.531 . S
C2518 H2530 0.960 . S
C2518 H2531 0.962 . S
C2518 H2532 0.960 . S
C2519 C2516 1.511 . S
C2519 H2533 0.961 . S
C2519 H2534 0.961 . S
C2519 H2535 0.961 . S
C2520 C2521 1.370 . S
C2520 C2522 1.363 . S
C2520 H2536 0.931 . S
C2521 C2520 1.370 . S
C2521 C2525 1.408 . S
C2522 C2520 1.363 . S
C2522 C2523 1.370 . S
C2522 C2526 1.524 . S
C2523 C2515 1.503 . S
C2523 C2522 1.370 . S
C2523 C2524 1.403 . S
C2524 C2523 1.403 . S
C2524 C2525 1.404 . S
C2524 C2527 1.539 . S
C2525 C2521 1.408 . S
C2525 C2524 1.404 . S
C2525 H2537 0.930 . S
C2526 C2522 1.524 . S
C2526 H2538 0.956 . S
C2526 H2539 0.961 . S
C2526 H2540 0.961 . S
C2527 C2524 1.539 . S
C2527 H2541 0.958 . S
C2527 H2542 0.961 . S
C2527 H2543 0.960 . S
H2528 C2512 0.931 . S
H2529 C2517 0.929 . S
H2530 C2518 0.960 . S
H2531 C2518 0.962 . S
H2532 C2518 0.960 . S
H2533 C2519 0.961 . S
H2534 C2519 0.961 . S
H2535 C2519 0.961 . S
H2536 C2520 0.931 . S
H2537 C2525 0.930 . S
H2538 C2526 0.956 . S
H2539 C2526 0.961 . S
H2540 C2526 0.961 . S
H2541 C2527 0.958 . S
H2542 C2527 0.961 . S
H2543 C2527 0.960 . S
C2544 C2545 1.391 . S
C2544 C2546 1.394 . S
C2544 H2560 0.931 . S
C2545 C2544 1.391 . S
C2545 C2549 1.376 . S
C2546 C2544 1.394 . S
C2546 C2547 1.369 . S
C2546 C2550 1.531 . S
C2547 C2546 1.369 . S
C2547 C2548 1.410 . S
C2547 C2555 1.503 . S
C2548 C2547 1.410 . S
C2548 C2549 1.392 . S
C2548 C2551 1.511 . S
C2549 C2545 1.376 . S
C2549 C2548 1.392 . S
C2549 H2561 0.929 . S
C2550 C2546 1.531 . S
C2550 H2562 0.960 . S
C2550 H2563 0.962 . S
C2550 H2564 0.960 . S
C2551 C2548 1.511 . S
C2551 H2565 0.961 . S
C2551 H2566 0.961 . S
C2551 H2567 0.961 . S
C2552 C2553 1.370 . S
C2552 C2554 1.363 . S
C2552 H2568 0.931 . S
C2553 C2552 1.370 . S
C2553 C2557 1.408 . S
C2554 C2552 1.363 . S
C2554 C2555 1.370 . S
C2554 C2558 1.524 . S
C2555 C2547 1.503 . S
C2555 C2554 1.370 . S
C2555 C2556 1.403 . S
C2556 C2555 1.403 . S
C2556 C2557 1.404 . S
C2556 C2559 1.539 . S
C2557 C2553 1.408 . S
C2557 C2556 1.404 . S
C2557 H2569 0.930 . S
C2558 C2554 1.524 . S
C2558 H2570 0.956 . S
C2558 H2571 0.961 . S
C2558 H2572 0.961 . S
C2559 C2556 1.539 . S
C2559 H2573 0.958 . S
C2559 H2574 0.961 . S
C2559 H2575 0.960 . S
H2560 C2544 0.931 . S
H2561 C2549 0.929 . S
H2562 C2550 0.960 . S
H2563 C2550 0.962 . S
H2564 C2550 0.960 . S
H2565 C2551 0.961 . S
H2566 C2551 0.961 . S
H2567 C2551 0.961 . S
H2568 C2552 0.931 . S
H2569 C2557 0.930 . S
H2570 C2558 0.956 . S
H2571 C2558 0.961 . S
H2572 C2558 0.961 . S
H2573 C2559 0.958 . S
H2574 C2559 0.961 . S
H2575 C2559 0.960 . S
C2576 C2577 1.391 . S
C2576 C2578 1.394 . S
C2576 H2592 0.931 . S
C2577 C2576 1.391 . S
C2577 C2581 1.376 . S
C2578 C2576 1.394 . S
C2578 C2579 1.369 . S
C2578 C2582 1.531 . S
C2579 C2578 1.369 . S
C2579 C2580 1.410 . S
C2579 C2587 1.503 . S
C2580 C2579 1.410 . S
C2580 C2581 1.392 . S
C2580 C2583 1.511 1_455 S
C2581 C2577 1.376 . S
C2581 C2580 1.392 . S
C2581 H2593 0.929 . S
C2582 C2578 1.531 . S
C2582 H2594 0.960 . S
C2582 H2595 0.962 . S
C2582 H2596 0.960 . S
C2583 C2580 1.511 1_655 S
C2583 H2597 0.961 . S
C2583 H2598 0.961 . S
C2583 H2599 0.961 . S
C2584 C2585 1.370 . S
C2584 C2586 1.363 . S
C2584 H2600 0.931 . S
C2585 C2584 1.370 . S
C2585 C2589 1.408 . S
C2586 C2584 1.363 . S
C2586 C2587 1.370 . S
C2586 C2590 1.524 . S
C2587 C2579 1.503 . S
C2587 C2586 1.370 . S
C2587 C2588 1.403 . S
C2588 C2587 1.403 . S
C2588 C2589 1.404 . S
C2588 C2591 1.539 . S
C2589 C2585 1.408 . S
C2589 C2588 1.404 . S
C2589 H2601 0.930 . S
C2590 C2586 1.524 . S
C2590 H2602 0.956 . S
C2590 H2603 0.961 . S
C2590 H2604 0.961 . S
C2591 C2588 1.539 . S
C2591 H2605 0.958 . S
C2591 H2606 0.961 . S
C2591 H2607 0.960 . S
H2592 C2576 0.931 . S
H2593 C2581 0.929 . S
H2594 C2582 0.960 . S
H2595 C2582 0.962 . S
H2596 C2582 0.960 . S
H2597 C2583 0.961 . S
H2598 C2583 0.961 . S
H2599 C2583 0.961 . S
H2600 C2584 0.931 . S
H2601 C2589 0.930 . S
H2602 C2590 0.956 . S
H2603 C2590 0.961 . S
H2604 C2590 0.961 . S
H2605 C2591 0.958 . S
H2606 C2591 0.961 . S
H2607 C2591 0.960 . S
C2608 C2609 1.391 . S
C2608 C2610 1.394 . S
C2608 H2624 0.931 . S
C2609 C2608 1.391 . S
C2609 C2613 1.376 . S
C2610 C2608 1.394 . S
C2610 C2611 1.369 . S
C2610 C2614 1.531 . S
C2611 C2610 1.369 . S
C2611 C2612 1.410 . S
C2611 C2619 1.503 . S
C2612 C2611 1.410 . S
C2612 C2613 1.392 . S
C2612 C2615 1.511 . S
C2613 C2609 1.376 . S
C2613 C2612 1.392 . S
C2613 H2625 0.929 . S
C2614 C2610 1.531 . S
C2614 H2626 0.960 . S
C2614 H2627 0.962 . S
C2614 H2628 0.960 . S
C2615 C2612 1.511 . S
C2615 H2629 0.961 . S
C2615 H2630 0.961 . S
C2615 H2631 0.961 . S
C2616 C2617 1.370 . S
C2616 C2618 1.363 . S
C2616 H2632 0.931 . S
C2617 C2616 1.370 . S
C2617 C2621 1.408 . S
C2618 C2616 1.363 . S
C2618 C2619 1.370 . S
C2618 C2622 1.524 . S
C2619 C2611 1.503 . S
C2619 C2618 1.370 . S
C2619 C2620 1.403 . S
C2620 C2619 1.403 . S
C2620 C2621 1.404 . S
C2620 C2623 1.539 . S
C2621 C2617 1.408 . S
C2621 C2620 1.404 . S
C2621 H2633 0.930 . S
C2622 C2618 1.524 . S
C2622 H2634 0.956 . S
C2622 H2635 0.961 . S
C2622 H2636 0.961 . S
C2623 C2620 1.539 . S
C2623 H2637 0.958 . S
C2623 H2638 0.961 . S
C2623 H2639 0.960 . S
H2624 C2608 0.931 . S
H2625 C2613 0.929 . S
H2626 C2614 0.960 . S
H2627 C2614 0.962 . S
H2628 C2614 0.960 . S
H2629 C2615 0.961 . S
H2630 C2615 0.961 . S
H2631 C2615 0.961 . S
H2632 C2616 0.931 . S
H2633 C2621 0.930 . S
H2634 C2622 0.956 . S
H2635 C2622 0.961 . S
H2636 C2622 0.961 . S
H2637 C2623 0.958 . S
H2638 C2623 0.961 . S
H2639 C2623 0.960 . S
C2640 C2641 1.391 . S
C2640 C2642 1.394 . S
C2640 H2656 0.931 . S
C2641 C2640 1.391 . S
C2641 C2645 1.376 . S
C2642 C2640 1.394 . S
C2642 C2643 1.369 . S
C2642 C2646 1.531 . S
C2643 C2642 1.369 . S
C2643 C2644 1.410 . S
C2643 C2651 1.503 . S
C2644 C2643 1.410 . S
C2644 C2645 1.392 . S
C2644 C2647 1.511 . S
C2645 C2641 1.376 . S
C2645 C2644 1.392 . S
C2645 H2657 0.929 . S
C2646 C2642 1.531 . S
C2646 H2658 0.960 . S
C2646 H2659 0.962 . S
C2646 H2660 0.960 . S
C2647 C2644 1.511 . S
C2647 H2661 0.961 . S
C2647 H2662 0.961 . S
C2647 H2663 0.961 . S
C2648 C2649 1.370 . S
C2648 C2650 1.363 . S
C2648 H2664 0.931 . S
C2649 C2648 1.370 . S
C2649 C2653 1.408 . S
C2650 C2648 1.363 . S
C2650 C2651 1.370 . S
C2650 C2654 1.524 . S
C2651 C2643 1.503 . S
C2651 C2650 1.370 . S
C2651 C2652 1.403 . S
C2652 C2651 1.403 . S
C2652 C2653 1.404 . S
C2652 C2655 1.539 . S
C2653 C2649 1.408 . S
C2653 C2652 1.404 . S
C2653 H2665 0.930 1_556 S
C2654 C2650 1.524 . S
C2654 H2666 0.956 . S
C2654 H2667 0.961 . S
C2654 H2668 0.961 . S
C2655 C2652 1.539 . S
C2655 H2669 0.985 . S
C2655 H2670 0.961 1_556 S
C2655 H2671 0.960 . S
H2656 C2640 0.931 . S
H2657 C2645 0.929 . S
H2658 C2646 0.960 . S
H2659 C2646 0.962 . S
H2660 C2646 0.960 . S
H2661 C2647 0.961 . S
H2662 C2647 0.961 . S
H2663 C2647 0.961 . S
H2664 C2648 0.931 . S
H2665 C2653 0.930 1_554 S
H2666 C2654 0.956 . S
H2667 C2654 0.961 . S
H2668 C2654 0.961 . S
H2669 C2655 0.985 . S
H2670 C2655 0.961 1_554 S
H2671 C2655 0.960 . S
C2672 C2673 1.391 . S
C2672 C2674 1.394 . S
C2672 H2688 0.931 . S
C2673 C2672 1.391 . S
C2673 C2677 1.376 . S
C2674 C2672 1.394 . S
C2674 C2675 1.369 . S
C2674 C2678 1.531 . S
C2675 C2674 1.369 . S
C2675 C2676 1.410 . S
C2675 C2683 1.503 . S
C2676 C2675 1.410 . S
C2676 C2677 1.392 . S
C2676 C2679 1.511 . S
C2677 C2673 1.376 . S
C2677 C2676 1.392 . S
C2677 H2689 0.929 . S
C2678 C2674 1.531 . S
C2678 H2690 0.960 . S
C2678 H2691 0.962 . S
C2678 H2692 0.960 . S
C2679 C2676 1.511 . S
C2679 H2693 0.961 . S
C2679 H2694 0.961 . S
C2679 H2695 0.961 . S
C2680 C2681 1.370 . S
C2680 C2682 1.363 . S
C2680 H2696 0.931 . S
C2681 C2680 1.370 . S
C2681 C2685 1.408 . S
C2682 C2680 1.363 . S
C2682 C2683 1.370 . S
C2682 C2686 1.524 . S
C2683 C2675 1.503 . S
C2683 C2682 1.370 . S
C2683 C2684 1.403 . S
C2684 C2683 1.403 . S
C2684 C2685 1.404 . S
C2684 C2687 1.539 . S
C2685 C2681 1.408 . S
C2685 C2684 1.404 . S
C2685 H2697 0.930 . S
C2686 C2682 1.524 . S
C2686 H2698 0.956 . S
C2686 H2699 0.961 . S
C2686 H2700 0.961 . S
C2687 C2684 1.539 . S
C2687 H2701 0.958 . S
C2687 H2702 0.961 . S
C2687 H2703 0.960 . S
H2688 C2672 0.931 . S
H2689 C2677 0.929 . S
H2690 C2678 0.960 . S
H2691 C2678 0.962 . S
H2692 C2678 0.960 . S
H2693 C2679 0.961 . S
H2694 C2679 0.961 . S
H2695 C2679 0.961 . S
H2696 C2680 0.931 . S
H2697 C2685 0.930 . S
H2698 C2686 0.956 . S
H2699 C2686 0.961 . S
H2700 C2686 0.961 . S
H2701 C2687 0.958 . S
H2702 C2687 0.961 . S
H2703 C2687 0.960 . S
C2704 C2705 1.391 . S
C2704 C2706 1.394 . S
C2704 H2720 0.931 . S
C2705 C2704 1.391 . S
C2705 C2709 1.376 . S
C2706 C2704 1.394 . S
C2706 C2707 1.369 . S
C2706 C2710 1.531 . S
C2707 C2706 1.369 . S
C2707 C2708 1.410 . S
C2707 C2715 1.503 . S
C2708 C2707 1.410 . S
C2708 C2709 1.392 . S
C2708 C2711 1.511 . S
C2709 C2705 1.376 . S
C2709 C2708 1.392 . S
C2709 H2721 0.929 . S
C2710 C2706 1.531 . S
C2710 H2722 0.960 . S
C2710 H2723 0.962 . S
C2710 H2724 0.960 . S
C2711 C2708 1.511 . S
C2711 H2725 0.961 . S
C2711 H2726 0.961 . S
C2711 H2727 0.961 . S
C2712 C2713 1.370 . S
C2712 C2714 1.363 . S
C2712 H2728 0.949 . S
C2713 C2712 1.370 . S
C2713 C2717 1.408 . S
C2714 C2712 1.363 . S
C2714 C2715 1.370 . S
C2714 C2718 1.563 . S
C2715 C2707 1.503 . S
C2715 C2714 1.370 . S
C2715 C2716 1.403 . S
C2716 C2715 1.403 . S
C2716 C2717 1.404 . S
C2716 C2719 1.539 . S
C2717 C2713 1.408 . S
C2717 C2716 1.404 . S
C2717 H2729 0.930 . S
C2718 C2714 1.563 . S
C2718 H2730 0.969 . S
C2718 H2731 0.958 1_545 S
C2718 H2732 0.915 1_545 S
C2719 C2716 1.539 . S
C2719 H2733 0.958 . S
C2719 H2734 0.961 . S
C2719 H2735 0.960 . S
H2720 C2704 0.931 . S
H2721 C2709 0.929 . S
H2722 C2710 0.960 . S
H2723 C2710 0.962 . S
H2724 C2710 0.960 . S
H2725 C2711 0.961 . S
H2726 C2711 0.961 . S
H2727 C2711 0.961 . S
H2728 C2712 0.949 . S
H2729 C2717 0.930 . S
H2730 C2718 0.969 . S
H2731 C2718 0.958 1_565 S
H2732 C2718 0.915 1_565 S
H2733 C2719 0.958 . S
H2734 C2719 0.961 . S
H2735 C2719 0.960 . S
C2736 C2737 1.391 . S
C2736 C2738 1.394 . S
C2736 H2752 0.931 . S
C2737 C2736 1.391 . S
C2737 C2741 1.376 . S
C2738 C2736 1.394 . S
C2738 C2739 1.369 . S
C2738 C2742 1.531 . S
C2739 C2738 1.369 . S
C2739 C2740 1.410 . S
C2739 C2747 1.503 . S
C2740 C2739 1.410 . S
C2740 C2741 1.392 . S
C2740 C2743 1.511 . S
C2741 C2737 1.376 . S
C2741 C2740 1.392 . S
C2741 H2753 0.929 . S
C2742 C2738 1.531 . S
C2742 H2754 0.960 . S
C2742 H2755 0.962 . S
C2742 H2756 0.960 . S
C2743 C2740 1.511 . S
C2743 H2757 0.961 . S
C2743 H2758 0.961 . S
C2743 H2759 0.961 . S
C2744 C2745 1.370 . S
C2744 C2746 1.363 . S
C2744 H2760 0.931 . S
C2745 C2744 1.370 . S
C2745 C2749 1.408 . S
C2746 C2744 1.363 . S
C2746 C2747 1.370 . S
C2746 C2750 1.524 . S
C2747 C2739 1.503 . S
C2747 C2746 1.370 . S
C2747 C2748 1.403 . S
C2748 C2747 1.403 . S
C2748 C2749 1.404 . S
C2748 C2751 1.539 . S
C2749 C2745 1.408 . S
C2749 C2748 1.404 . S
C2749 H2761 0.930 . S
C2750 C2746 1.524 . S
C2750 H2762 0.956 . S
C2750 H2763 0.961 . S
C2750 H2764 0.961 . S
C2751 C2748 1.539 . S
C2751 H2765 0.958 . S
C2751 H2766 0.961 . S
C2751 H2767 0.960 . S
H2752 C2736 0.931 . S
H2753 C2741 0.929 . S
H2754 C2742 0.960 . S
H2755 C2742 0.962 . S
H2756 C2742 0.960 . S
H2757 C2743 0.961 . S
H2758 C2743 0.961 . S
H2759 C2743 0.961 . S
H2760 C2744 0.931 . S
H2761 C2749 0.930 . S
H2762 C2750 0.956 . S
H2763 C2750 0.961 . S
H2764 C2750 0.961 . S
H2765 C2751 0.958 . S
H2766 C2751 0.961 . S
H2767 C2751 0.960 . S
C2768 C2769 1.391 . S
C2768 C2770 1.394 . S
C2768 H2784 0.931 1_545 S
C2769 C2768 1.391 . S
C2769 C2773 1.376 . S
C2770 C2768 1.394 . S
C2770 C2771 1.369 . S
C2770 C2774 1.531 1_545 S
C2771 C2770 1.369 . S
C2771 C2772 1.410 . S
C2771 C2779 1.503 . S
C2772 C2771 1.410 . S
C2772 C2773 1.392 . S
C2772 C2775 1.511 . S
C2773 C2769 1.376 . S
C2773 C2772 1.392 . S
C2773 H2785 0.929 . S
C2774 C2770 1.531 1_565 S
C2774 H2786 0.960 1_565 S
C2774 H2787 0.962 . S
C2774 H2788 0.960 . S
C2775 C2772 1.511 . S
C2775 H2789 0.961 . S
C2775 H2790 0.961 . S
C2775 H2791 0.961 . S
C2776 C2777 1.370 . S
C2776 C2778 1.363 . S
C2776 H2792 0.937 . S
C2777 C2776 1.370 . S
C2777 C2781 1.408 . S
C2778 C2776 1.363 . S
C2778 C2779 1.370 . S
C2778 C2782 1.524 1_545 S
C2779 C2771 1.503 . S
C2779 C2778 1.370 . S
C2779 C2780 1.403 . S
C2780 C2779 1.403 . S
C2780 C2781 1.404 . S
C2780 C2783 1.539 . S
C2781 C2777 1.408 . S
C2781 C2780 1.404 . S
C2781 H2793 0.930 . S
C2782 C2778 1.524 1_565 S
C2782 H2794 0.956 . S
C2782 H2795 0.961 . S
C2782 H2796 0.961 . S
C2783 C2780 1.539 . S
C2783 H2797 0.958 . S
C2783 H2798 0.961 . S
C2783 H2799 0.960 . S
H2784 C2768 0.931 1_565 S
H2785 C2773 0.929 . S
H2786 C2774 0.960 1_545 S
H2787 C2774 0.962 . S
H2788 C2774 0.960 . S
H2789 C2775 0.961 . S
H2790 C2775 0.961 . S
H2791 C2775 0.961 . S
H2792 C2776 0.937 . S
H2793 C2781 0.930 . S
H2794 C2782 0.956 . S
H2795 C2782 0.961 . S
H2796 C2782 0.961 . S
H2797 C2783 0.958 . S
H2798 C2783 0.961 . S
H2799 C2783 0.960 . S
C2800 C2801 1.391 . S
C2800 C2802 1.394 . S
C2800 H2816 0.931 . S
C2801 C2800 1.391 . S
C2801 C2805 1.376 . S
C2802 C2800 1.394 . S
C2802 C2803 1.369 . S
C2802 C2806 1.531 . S
C2803 C2802 1.369 . S
C2803 C2804 1.410 . S
C2803 C2811 1.503 . S
C2804 C2803 1.410 . S
C2804 C2805 1.392 . S
C2804 C2807 1.511 . S
C2805 C2801 1.376 . S
C2805 C2804 1.392 . S
C2805 H2817 0.929 . S
C2806 C2802 1.531 . S
C2806 H2818 0.960 . S
C2806 H2819 0.962 . S
C2806 H2820 0.960 . S
C2807 C2804 1.511 . S
C2807 H2821 0.961 . S
C2807 H2822 0.961 . S
C2807 H2823 0.961 . S
C2808 C2809 1.370 . S
C2808 C2810 1.363 . S
C2808 H2824 0.931 . S
C2809 C2808 1.370 . S
C2809 C2813 1.408 . S
C2810 C2808 1.363 . S
C2810 C2811 1.370 . S
C2810 C2814 1.524 . S
C2811 C2803 1.503 . S
C2811 C2810 1.370 . S
C2811 C2812 1.403 . S
C2812 C2811 1.403 . S
C2812 C2813 1.404 . S
C2812 C2815 1.539 . S
C2813 C2809 1.408 . S
C2813 C2812 1.404 . S
C2813 H2825 0.930 . S
C2814 C2810 1.524 . S
C2814 H2826 0.956 . S
C2814 H2827 0.961 . S
C2814 H2828 0.961 . S
C2815 C2812 1.539 . S
C2815 H2829 0.958 . S
C2815 H2830 0.961 . S
C2815 H2831 0.960 . S
H2816 C2800 0.931 . S
H2817 C2805 0.929 . S
H2818 C2806 0.960 . S
H2819 C2806 0.962 . S
H2820 C2806 0.960 . S
H2821 C2807 0.961 . S
H2822 C2807 0.961 . S
H2823 C2807 0.961 . S
H2824 C2808 0.931 . S
H2825 C2813 0.930 . S
H2826 C2814 0.956 . S
H2827 C2814 0.961 . S
H2828 C2814 0.961 . S
H2829 C2815 0.958 . S
H2830 C2815 0.961 . S
H2831 C2815 0.960 . S
C2832 C2833 1.391 . S
C2832 C2834 1.394 . S
C2832 H2848 0.931 . S
C2833 C2832 1.391 . S
C2833 C2837 1.376 . S
C2834 C2832 1.394 . S
C2834 C2835 1.369 . S
C2834 C2838 1.531 1_545 S
C2835 C2834 1.369 . S
C2835 C2836 1.410 . S
C2835 C2843 1.503 . S
C2836 C2835 1.410 . S
C2836 C2837 1.392 . S
C2836 C2839 1.511 . S
C2837 C2833 1.376 . S
C2837 C2836 1.392 . S
C2837 H2849 0.929 . S
C2838 C2834 1.531 1_565 S
C2838 H2850 0.960 . S
C2838 H2851 0.962 . S
C2838 H2852 0.960 . S
C2839 C2836 1.511 . S
C2839 H2853 0.961 . S
C2839 H2854 0.961 . S
C2839 H2855 0.961 . S
C2840 C2841 1.370 . S
C2840 C2842 1.363 . S
C2840 H2856 0.931 . S
C2841 C2840 1.370 . S
C2841 C2845 1.408 . S
C2842 C2840 1.363 . S
C2842 C2843 1.370 . S
C2842 C2846 1.524 . S
C2843 C2835 1.503 . S
C2843 C2842 1.370 . S
C2843 C2844 1.403 . S
C2844 C2843 1.403 . S
C2844 C2845 1.404 . S
C2844 C2847 1.539 . S
C2845 C2841 1.408 . S
C2845 C2844 1.404 . S
C2845 H2857 0.930 . S
C2846 C2842 1.524 . S
C2846 H2858 0.956 . S
C2846 H2859 0.961 . S
C2846 H2860 0.961 . S
C2847 C2844 1.539 . S
C2847 H2861 0.958 . S
C2847 H2862 0.961 . S
C2847 H2863 0.960 . S
H2848 C2832 0.931 . S
H2849 C2837 0.929 . S
H2850 C2838 0.960 . S
H2851 C2838 0.962 . S
H2852 C2838 0.960 . S
H2853 C2839 0.961 . S
H2854 C2839 0.961 . S
H2855 C2839 0.961 . S
H2856 C2840 0.931 . S
H2857 C2845 0.930 . S
H2858 C2846 0.956 . S
H2859 C2846 0.961 . S
H2860 C2846 0.961 . S
H2861 C2847 0.958 . S
H2862 C2847 0.961 . S
H2863 C2847 0.960 . S
C2864 C2865 1.391 . S
C2864 C2866 1.394 . S
C2864 H2880 0.931 . S
C2865 C2864 1.391 . S
C2865 C2869 1.376 . S
C2866 C2864 1.394 . S
C2866 C2867 1.369 . S
C2866 C2870 1.531 . S
C2867 C2866 1.369 . S
C2867 C2868 1.410 . S
C2867 C2875 1.503 . S
C2868 C2867 1.410 . S
C2868 C2869 1.392 . S
C2868 C2871 1.511 . S
C2869 C2865 1.376 . S
C2869 C2868 1.392 . S
C2869 H2881 0.929 . S
C2870 C2866 1.531 . S
C2870 H2882 0.960 . S
C2870 H2883 0.962 . S
C2870 H2884 0.960 . S
C2871 C2868 1.511 . S
C2871 H2885 0.961 . S
C2871 H2886 0.961 . S
C2871 H2887 0.961 . S
C2872 C2873 1.370 . S
C2872 C2874 1.363 . S
C2872 H2888 0.931 . S
C2873 C2872 1.370 . S
C2873 C2877 1.408 . S
C2874 C2872 1.363 . S
C2874 C2875 1.370 . S
C2874 C2878 1.524 . S
C2875 C2867 1.503 . S
C2875 C2874 1.370 . S
C2875 C2876 1.403 . S
C2876 C2875 1.403 . S
C2876 C2877 1.404 . S
C2876 C2879 1.539 . S
C2877 C2873 1.408 . S
C2877 C2876 1.404 . S
C2877 H2889 0.930 . S
C2878 C2874 1.524 . S
C2878 H2890 0.956 . S
C2878 H2891 0.961 . S
C2878 H2892 0.961 . S
C2879 C2876 1.539 . S
C2879 H2893 0.958 . S
C2879 H2894 0.961 . S
C2879 H2895 0.960 . S
H2880 C2864 0.931 . S
H2881 C2869 0.929 . S
H2882 C2870 0.960 . S
H2883 C2870 0.962 . S
H2884 C2870 0.960 . S
H2885 C2871 0.961 . S
H2886 C2871 0.961 . S
H2887 C2871 0.961 . S
H2888 C2872 0.931 . S
H2889 C2877 0.930 . S
H2890 C2878 0.956 . S
H2891 C2878 0.961 . S
H2892 C2878 0.961 . S
H2893 C2879 0.958 . S
H2894 C2879 0.961 . S
H2895 C2879 0.960 . S
C2896 C2897 1.391 1_565 S
C2896 C2898 1.394 . S
C2896 H2912 0.931 . S
C2897 C2896 1.391 1_545 S
C2897 C2901 1.376 . S
C2898 C2896 1.394 . S
C2898 C2899 1.369 1_565 S
C2898 C2902 1.531 . S
C2899 C2898 1.369 1_545 S
C2899 C2900 1.410 . S
C2899 C2907 1.503 . S
C2900 C2899 1.410 . S
C2900 C2901 1.392 . S
C2900 C2903 1.511 . S
C2901 C2897 1.376 . S
C2901 C2900 1.392 . S
C2901 H2913 0.929 . S
C2902 C2898 1.531 . S
C2902 H2914 0.960 . S
C2902 H2915 0.962 . S
C2902 H2916 0.960 . S
C2903 C2900 1.511 . S
C2903 H2917 0.961 . S
C2903 H2918 0.961 . S
C2903 H2919 0.961 . S
C2904 C2905 1.370 . S
C2904 C2906 1.363 . S
C2904 H2920 0.931 . S
C2905 C2904 1.370 . S
C2905 C2909 1.408 1_545 S
C2906 C2904 1.363 . S
C2906 C2907 1.370 . S
C2906 C2910 1.524 . S
C2907 C2899 1.503 . S
C2907 C2906 1.370 . S
C2907 C2908 1.403 1_545 S
C2908 C2907 1.403 1_565 S
C2908 C2909 1.404 . S
C2908 C2911 1.539 . S
C2909 C2905 1.408 1_565 S
C2909 C2908 1.404 . S
C2909 H2921 0.930 . S
C2910 C2906 1.524 . S
C2910 H2922 0.956 . S
C2910 H2923 0.961 . S
C2910 H2924 0.961 . S
C2911 C2908 1.539 . S
C2911 H2925 0.958 . S
C2911 H2926 0.961 . S
C2911 H2927 0.960 . S
H2912 C2896 0.931 . S
H2913 C2901 0.929 . S
H2914 C2902 0.960 . S
H2915 C2902 0.962 . S
H2916 C2902 0.960 . S
H2917 C2903 0.961 . S
H2918 C2903 0.961 . S
H2919 C2903 0.961 . S
H2920 C2904 0.931 . S
H2921 C2909 0.930 . S
H2922 C2910 0.956 . S
H2923 C2910 0.961 . S
H2924 C2910 0.961 . S
H2925 C2911 0.958 . S
H2926 C2911 0.961 . S
H2927 C2911 0.960 . S
C2928 C2929 1.391 . S
C2928 C2930 1.394 . S
C2928 H2944 0.931 . S
C2929 C2928 1.391 . S
C2929 C2933 1.376 . S
C2930 C2928 1.394 . S
C2930 C2931 1.369 . S
C2930 C2934 1.531 . S
C2931 C2930 1.369 . S
C2931 C2932 1.410 . S
C2931 C2939 1.503 . S
C2932 C2931 1.410 . S
C2932 C2933 1.392 . S
C2932 C2935 1.511 . S
C2933 C2929 1.376 . S
C2933 C2932 1.392 . S
C2933 H2945 0.929 . S
C2934 C2930 1.531 . S
C2934 H2946 0.960 . S
C2934 H2947 0.962 . S
C2934 H2948 0.960 . S
C2935 C2932 1.511 . S
C2935 H2949 0.961 . S
C2935 H2950 0.961 . S
C2935 H2951 0.961 . S
C2936 C2937 1.370 . S
C2936 C2938 1.363 . S
C2936 H2952 0.931 . S
C2937 C2936 1.370 . S
C2937 C2941 1.408 . S
C2938 C2936 1.363 . S
C2938 C2939 1.370 . S
C2938 C2942 1.524 . S
C2939 C2931 1.503 . S
C2939 C2938 1.370 . S
C2939 C2940 1.403 . S
C2940 C2939 1.403 . S
C2940 C2941 1.404 . S
C2940 C2943 1.539 . S
C2941 C2937 1.408 . S
C2941 C2940 1.404 . S
C2941 H2953 0.930 . S
C2942 C2938 1.524 . S
C2942 H2954 0.956 . S
C2942 H2955 0.961 . S
C2942 H2956 0.961 . S
C2943 C2940 1.539 . S
C2943 H2957 0.958 . S
C2943 H2958 0.961 . S
C2943 H2959 0.960 . S
H2944 C2928 0.931 . S
H2945 C2933 0.929 . S
H2946 C2934 0.960 . S
H2947 C2934 0.962 . S
H2948 C2934 0.960 . S
H2949 C2935 0.961 . S
H2950 C2935 0.961 . S
H2951 C2935 0.961 . S
H2952 C2936 0.931 . S
H2953 C2941 0.930 . S
H2954 C2942 0.956 . S
H2955 C2942 0.961 . S
H2956 C2942 0.961 . S
H2957 C2943 0.958 . S
H2958 C2943 0.961 . S
H2959 C2943 0.960 . S
C2960 C2961 1.391 . S
C2960 C2962 1.394 . S
C2960 H2976 0.931 . S
C2961 C2960 1.391 . S
C2961 C2965 1.376 . S
C2962 C2960 1.394 . S
C2962 C2963 1.369 . S
C2962 C2966 1.531 . S
C2963 C2962 1.369 . S
C2963 C2964 1.410 . S
C2963 C2971 1.503 . S
C2964 C2963 1.410 . S
C2964 C2965 1.392 . S
C2964 C2967 1.511 . S
C2965 C2961 1.376 . S
C2965 C2964 1.392 . S
C2965 H2977 0.929 . S
C2966 C2962 1.531 . S
C2966 H2978 0.960 . S
C2966 H2979 0.962 . S
C2966 H2980 0.960 . S
C2967 C2964 1.511 . S
C2967 H2981 0.961 . S
C2967 H2982 0.961 . S
C2967 H2983 0.961 . S
C2968 C2969 1.370 . S
C2968 C2970 1.363 . S
C2968 H2984 0.931 . S
C2969 C2968 1.370 . S
C2969 C2973 1.408 . S
C2970 C2968 1.363 . S
C2970 C2971 1.370 . S
C2970 C2974 1.524 . S
C2971 C2963 1.503 . S
C2971 C2970 1.370 . S
C2971 C2972 1.403 . S
C2972 C2971 1.403 . S
C2972 C2973 1.404 . S
C2972 C2975 1.539 1_554 S
C2973 C2969 1.408 . S
C2973 C2972 1.404 . S
C2973 H2985 0.930 1_554 S
C2974 C2970 1.524 . S
C2974 H2986 0.956 . S
C2974 H2987 0.961 . S
C2974 H2988 0.961 . S
C2975 C2972 1.539 1_556 S
C2975 H2989 0.958 . S
C2975 H2990 0.961 . S
C2975 H2991 0.960 . S
H2976 C2960 0.931 . S
H2977 C2965 0.929 . S
H2978 C2966 0.960 . S
H2979 C2966 0.962 . S
H2980 C2966 0.960 . S
H2981 C2967 0.961 . S
H2982 C2967 0.961 . S
H2983 C2967 0.961 . S
H2984 C2968 0.931 . S
H2985 C2973 0.930 1_556 S
H2986 C2974 0.956 . S
H2987 C2974 0.961 . S
H2988 C2974 0.961 . S
H2989 C2975 0.958 . S
H2990 C2975 0.961 . S
H2991 C2975 0.960 . S
C2992 C2993 1.391 . S
C2992 C2994 1.394 . S
C2992 H3008 0.931 . S
C2993 C2992 1.391 . S
C2993 C2997 1.376 . S
C2994 C2992 1.394 . S
C2994 C2995 1.369 . S
C2994 C2998 1.531 . S
C2995 C2994 1.369 . S
C2995 C2996 1.410 . S
C2995 C3003 1.503 . S
C2996 C2995 1.410 . S
C2996 C2997 1.392 . S
C2996 C2999 1.511 . S
C2997 C2993 1.376 . S
C2997 C2996 1.392 . S
C2997 H3009 0.929 . S
C2998 C2994 1.531 . S
C2998 H3010 0.960 . S
C2998 H3011 0.962 . S
C2998 H3012 0.960 . S
C2999 C2996 1.511 . S
C2999 H3013 0.961 . S
C2999 H3014 0.961 . S
C2999 H3015 0.961 . S
C3000 C3001 1.370 . S
C3000 C3002 1.363 . S
C3000 H3016 0.931 . S
C3001 C3000 1.370 . S
C3001 C3005 1.408 . S
C3002 C3000 1.363 . S
C3002 C3003 1.370 . S
C3002 C3006 1.524 . S
C3003 C2995 1.503 . S
C3003 C3002 1.370 . S
C3003 C3004 1.403 . S
C3004 C3003 1.403 . S
C3004 C3005 1.404 . S
C3004 C3007 1.539 . S
C3005 C3001 1.408 . S
C3005 C3004 1.404 . S
C3005 H3017 0.930 . S
C3006 C3002 1.524 . S
C3006 H3018 0.956 . S
C3006 H3019 0.961 . S
C3006 H3020 0.961 1_554 S
C3007 C3004 1.539 . S
C3007 H3021 0.958 . S
C3007 H3022 0.961 . S
C3007 H3023 0.960 . S
H3008 C2992 0.931 . S
H3009 C2997 0.929 . S
H3010 C2998 0.960 . S
H3011 C2998 0.962 . S
H3012 C2998 0.960 . S
H3013 C2999 0.961 . S
H3014 C2999 0.961 . S
H3015 C2999 0.961 . S
H3016 C3000 0.931 . S
H3017 C3005 0.930 . S
H3018 C3006 0.956 . S
H3019 C3006 0.961 . S
H3020 C3006 0.961 1_556 S
H3021 C3007 0.958 . S
H3022 C3007 0.961 . S
H3023 C3007 0.960 . S
C3024 C3025 1.391 . S
C3024 C3026 1.394 . S
C3024 H3040 0.931 . S
C3025 C3024 1.391 . S
C3025 C3029 1.376 . S
C3026 C3024 1.394 . S
C3026 C3027 1.369 . S
C3026 C3030 1.531 . S
C3027 C3026 1.369 . S
C3027 C3028 1.410 . S
C3027 C3035 1.503 . S
C3028 C3027 1.410 . S
C3028 C3029 1.392 . S
C3028 C3031 1.511 . S
C3029 C3025 1.376 . S
C3029 C3028 1.392 . S
C3029 H3041 0.929 . S
C3030 C3026 1.531 . S
C3030 H3042 0.960 . S
C3030 H3043 0.962 . S
C3030 H3044 0.960 . S
C3031 C3028 1.511 . S
C3031 H3045 0.961 . S
C3031 H3046 0.961 . S
C3031 H3047 0.961 . S
C3032 C3033 1.370 . S
C3032 C3034 1.363 . S
C3032 H3048 0.931 . S
C3033 C3032 1.370 . S
C3033 C3037 1.408 . S
C3034 C3032 1.363 . S
C3034 C3035 1.370 . S
C3034 C3038 1.524 . S
C3035 C3027 1.503 . S
C3035 C3034 1.370 . S
C3035 C3036 1.403 . S
C3036 C3035 1.403 . S
C3036 C3037 1.404 . S
C3036 C3039 1.539 . S
C3037 C3033 1.408 . S
C3037 C3036 1.404 . S
C3037 H3049 0.930 . S
C3038 C3034 1.524 . S
C3038 H3050 0.956 . S
C3038 H3051 0.961 . S
C3038 H3052 0.961 . S
C3039 C3036 1.539 . S
C3039 H3053 0.958 . S
C3039 H3054 0.961 . S
C3039 H3055 0.960 . S
H3040 C3024 0.931 . S
H3041 C3029 0.929 . S
H3042 C3030 0.960 . S
H3043 C3030 0.962 . S
H3044 C3030 0.960 . S
H3045 C3031 0.961 . S
H3046 C3031 0.961 . S
H3047 C3031 0.961 . S
H3048 C3032 0.931 . S
H3049 C3037 0.930 . S
H3050 C3038 0.956 . S
H3051 C3038 0.961 . S
H3052 C3038 0.961 . S
H3053 C3039 0.958 . S
H3054 C3039 0.961 . S
H3055 C3039 0.960 . S
C3056 C3057 1.391 . S
C3056 C3058 1.394 . S
C3056 H3072 0.931 . S
C3057 C3056 1.391 . S
C3057 C3061 1.376 . S
C3058 C3056 1.394 . S
C3058 C3059 1.369 . S
C3058 C3062 1.531 . S
C3059 C3058 1.369 . S
C3059 C3060 1.410 . S
C3059 C3067 1.503 . S
C3060 C3059 1.410 . S
C3060 C3061 1.392 . S
C3060 C3063 1.511 . S
C3061 C3057 1.376 . S
C3061 C3060 1.392 . S
C3061 H3073 0.929 . S
C3062 C3058 1.531 . S
C3062 H3074 0.960 . S
C3062 H3075 0.962 . S
C3062 H3076 0.960 . S
C3063 C3060 1.511 . S
C3063 H3077 0.961 . S
C3063 H3078 0.961 . S
C3063 H3079 0.961 . S
C3064 C3065 1.370 . S
C3064 C3066 1.363 . S
C3064 H3080 0.931 . S
C3065 C3064 1.370 . S
C3065 C3069 1.408 . S
C3066 C3064 1.363 . S
C3066 C3067 1.370 . S
C3066 C3070 1.524 . S
C3067 C3059 1.503 . S
C3067 C3066 1.370 . S
C3067 C3068 1.403 . S
C3068 C3067 1.403 . S
C3068 C3069 1.404 . S
C3068 C3071 1.539 . S
C3069 C3065 1.408 . S
C3069 C3068 1.404 . S
C3069 H3081 0.930 . S
C3070 C3066 1.524 . S
C3070 H3082 0.956 . S
C3070 H3083 0.961 . S
C3070 H3084 0.961 . S
C3071 C3068 1.539 . S
C3071 H3085 0.958 . S
C3071 H3086 0.961 . S
C3071 H3087 0.960 . S
H3072 C3056 0.931 . S
H3073 C3061 0.929 . S
H3074 C3062 0.960 . S
H3075 C3062 0.962 . S
H3076 C3062 0.960 . S
H3077 C3063 0.961 . S
H3078 C3063 0.961 . S
H3079 C3063 0.961 . S
H3080 C3064 0.931 . S
H3081 C3069 0.930 . S
H3082 C3070 0.956 . S
H3083 C3070 0.961 . S
H3084 C3070 0.961 . S
H3085 C3071 0.958 . S
H3086 C3071 0.961 . S
H3087 C3071 0.960 . S
C3088 C3089 1.392 1_545 S
C3088 C3090 1.394 1_545 S
C3088 H3104 0.931 . S
C3089 C3088 1.392 1_565 S
C3089 C3093 1.389 . S
C3090 C3088 1.394 1_565 S
C3090 C3091 1.369 . S
C3090 C3094 1.531 . S
C3091 C3090 1.369 . S
C3091 C3092 1.410 . S
C3091 C3099 1.503 . S
C3092 C3091 1.410 . S
C3092 C3093 1.392 . S
C3092 C3095 1.511 . S
C3093 C3089 1.389 . S
C3093 C3092 1.392 . S
C3093 H3105 0.929 . S
C3094 C3090 1.531 . S
C3094 H3106 0.960 . S
C3094 H3107 0.962 . S
C3094 H3108 0.960 1_565 S
C3095 C3092 1.511 . S
C3095 H3109 0.961 . S
C3095 H3110 0.961 . S
C3095 H3111 0.961 . S
C3096 C3097 1.370 . S
C3096 C3098 1.363 . S
C3096 H3112 0.931 . S
C3097 C3096 1.370 . S
C3097 C3101 1.408 . S
C3098 C3096 1.363 . S
C3098 C3099 1.370 . S
C3098 C3102 1.524 . S
C3099 C3091 1.503 . S
C3099 C3098 1.370 . S
C3099 C3100 1.403 . S
C3100 C3099 1.403 . S
C3100 C3101 1.404 . S
C3100 C3103 1.539 . S
C3101 C3097 1.408 . S
C3101 C3100 1.404 . S
C3101 H3113 0.930 . S
C3102 C3098 1.524 . S
C3102 H3114 0.956 . S
C3102 H3115 0.961 . S
C3102 H3116 0.961 . S
C3103 C3100 1.539 . S
C3103 H3117 0.958 . S
C3103 H3118 0.961 . S
C3103 H3119 0.960 . S
H3104 C3088 0.931 . S
H3105 C3093 0.929 . S
H3106 C3094 0.960 . S
H3107 C3094 0.962 . S
H3108 C3094 0.960 1_545 S
H3109 C3095 0.961 . S
H3110 C3095 0.961 . S
H3111 C3095 0.961 . S
H3112 C3096 0.931 . S
H3113 C3101 0.930 . S
H3114 C3102 0.956 . S
H3115 C3102 0.961 . S
H3116 C3102 0.961 . S
H3117 C3103 0.958 . S
H3118 C3103 0.961 . S
H3119 C3103 0.960 . S
C3120 C3121 1.391 . S
C3120 C3122 1.394 . S
C3120 H3136 0.931 . S
C3121 C3120 1.391 . S
C3121 C3125 1.376 . S
C3122 C3120 1.394 . S
C3122 C3123 1.369 . S
C3122 C3126 1.531 . S
C3123 C3122 1.369 . S
C3123 C3124 1.410 . S
C3123 C3131 1.503 . S
C3124 C3123 1.410 . S
C3124 C3125 1.392 . S
C3124 C3127 1.511 . S
C3125 C3121 1.376 . S
C3125 C3124 1.392 . S
C3125 H3137 0.929 . S
C3126 C3122 1.531 . S
C3126 H3138 0.960 . S
C3126 H3139 0.962 . S
C3126 H3140 0.960 . S
C3127 C3124 1.511 . S
C3127 H3141 0.961 . S
C3127 H3142 0.961 . S
C3127 H3143 0.961 . S
C3128 C3129 1.370 . S
C3128 C3130 1.363 . S
C3128 H3144 0.931 . S
C3129 C3128 1.370 . S
C3129 C3133 1.408 . S
C3130 C3128 1.363 . S
C3130 C3131 1.370 . S
C3130 C3134 1.524 . S
C3131 C3123 1.503 . S
C3131 C3130 1.370 . S
C3131 C3132 1.403 . S
C3132 C3131 1.403 . S
C3132 C3133 1.404 . S
C3132 C3135 1.539 . S
C3133 C3129 1.408 . S
C3133 C3132 1.404 . S
C3133 H3145 0.919 1_565 S
C3134 C3130 1.524 . S
C3134 H3146 0.956 . S
C3134 H3147 0.961 . S
C3134 H3148 0.961 . S
C3135 C3132 1.539 . S
C3135 H3149 0.958 . S
C3135 H3150 0.961 1_565 S
C3135 H3151 0.960 . S
H3136 C3120 0.931 . S
H3137 C3125 0.929 . S
H3138 C3126 0.960 . S
H3139 C3126 0.962 . S
H3140 C3126 0.960 . S
H3141 C3127 0.961 . S
H3142 C3127 0.961 . S
H3143 C3127 0.961 . S
H3144 C3128 0.931 . S
H3145 C3133 0.919 1_545 S
H3146 C3134 0.956 . S
H3147 C3134 0.961 . S
H3148 C3134 0.961 . S
H3149 C3135 0.958 . S
H3150 C3135 0.961 1_545 S
H3151 C3135 0.960 . S
C3152 C3153 1.391 . S
C3152 C3154 1.394 . S
C3152 H3168 0.931 . S
C3153 C3152 1.391 . S
C3153 C3157 1.376 . S
C3154 C3152 1.394 . S
C3154 C3155 1.369 . S
C3154 C3158 1.531 . S
C3155 C3154 1.369 . S
C3155 C3156 1.410 . S
C3155 C3163 1.503 . S
C3156 C3155 1.410 . S
C3156 C3157 1.392 . S
C3156 C3159 1.511 . S
C3157 C3153 1.376 . S
C3157 C3156 1.392 . S
C3157 H3169 0.929 . S
C3158 C3154 1.531 . S
C3158 H3170 0.960 . S
C3158 H3171 0.962 . S
C3158 H3172 0.960 . S
C3159 C3156 1.511 . S
C3159 H3173 0.961 . S
C3159 H3174 0.961 . S
C3159 H3175 0.961 . S
C3160 C3161 1.370 . S
C3160 C3162 1.363 . S
C3160 H3176 0.931 . S
C3161 C3160 1.370 . S
C3161 C3165 1.408 . S
C3162 C3160 1.363 . S
C3162 C3163 1.370 . S
C3162 C3166 1.524 . S
C3163 C3155 1.503 . S
C3163 C3162 1.370 . S
C3163 C3164 1.403 . S
C3164 C3163 1.403 . S
C3164 C3165 1.404 . S
C3164 C3167 1.539 . S
C3165 C3161 1.408 . S
C3165 C3164 1.404 . S
C3165 H3177 0.930 . S
C3166 C3162 1.524 . S
C3166 H3178 0.956 . S
C3166 H3179 0.961 . S
C3166 H3180 0.961 . S
C3167 C3164 1.539 . S
C3167 H3181 0.958 . S
C3167 H3182 0.961 . S
C3167 H3183 0.960 . S
H3168 C3152 0.931 . S
H3169 C3157 0.929 . S
H3170 C3158 0.960 . S
H3171 C3158 0.962 . S
H3172 C3158 0.960 . S
H3173 C3159 0.961 . S
H3174 C3159 0.961 . S
H3175 C3159 0.961 . S
H3176 C3160 0.931 . S
H3177 C3165 0.930 . S
H3178 C3166 0.956 . S
H3179 C3166 0.961 . S
H3180 C3166 0.961 . S
H3181 C3167 0.958 . S
H3182 C3167 0.961 . S
H3183 C3167 0.960 . S
C3184 C3185 1.391 . S
C3184 C3186 1.394 . S
C3184 H3200 0.931 . S
C3185 C3184 1.391 . S
C3185 C3189 1.376 . S
C3186 C3184 1.394 . S
C3186 C3187 1.369 . S
C3186 C3190 1.531 . S
C3187 C3186 1.369 . S
C3187 C3188 1.410 . S
C3187 C3195 1.503 . S
C3188 C3187 1.410 . S
C3188 C3189 1.392 . S
C3188 C3191 1.511 . S
C3189 C3185 1.376 . S
C3189 C3188 1.392 . S
C3189 H3201 0.929 . S
C3190 C3186 1.531 . S
C3190 H3202 0.960 . S
C3190 H3203 0.962 . S
C3190 H3204 0.960 . S
C3191 C3188 1.511 . S
C3191 H3205 0.961 . S
C3191 H3206 0.961 . S
C3191 H3207 0.961 . S
C3192 C3193 1.370 . S
C3192 C3194 1.363 . S
C3192 H3208 0.931 . S
C3193 C3192 1.370 . S
C3193 C3197 1.408 . S
C3194 C3192 1.363 . S
C3194 C3195 1.370 . S
C3194 C3198 1.524 . S
C3195 C3187 1.503 . S
C3195 C3194 1.370 . S
C3195 C3196 1.403 . S
C3196 C3195 1.403 . S
C3196 C3197 1.404 . S
C3196 C3199 1.539 . S
C3197 C3193 1.408 . S
C3197 C3196 1.404 . S
C3197 H3209 0.930 . S
C3198 C3194 1.524 . S
C3198 H3210 0.956 . S
C3198 H3211 0.961 . S
C3198 H3212 0.961 . S
C3199 C3196 1.539 . S
C3199 H3213 0.958 . S
C3199 H3214 0.961 . S
C3199 H3215 0.960 . S
H3200 C3184 0.931 . S
H3201 C3189 0.929 . S
H3202 C3190 0.960 . S
H3203 C3190 0.962 . S
H3204 C3190 0.960 . S
H3205 C3191 0.961 . S
H3206 C3191 0.961 . S
H3207 C3191 0.961 . S
H3208 C3192 0.931 . S
H3209 C3197 0.930 . S
H3210 C3198 0.956 . S
H3211 C3198 0.961 . S
H3212 C3198 0.961 . S
H3213 C3199 0.958 . S
H3214 C3199 0.961 . S
H3215 C3199 0.960 . S
C3216 C3217 1.391 . S
C3216 C3218 1.394 . S
C3216 H3232 0.931 . S
C3217 C3216 1.391 . S
C3217 C3221 1.376 . S
C3218 C3216 1.394 . S
C3218 C3219 1.369 . S
C3218 C3222 1.531 . S
C3219 C3218 1.369 . S
C3219 C3220 1.410 . S
C3219 C3227 1.503 . S
C3220 C3219 1.410 . S
C3220 C3221 1.392 . S
C3220 C3223 1.511 . S
C3221 C3217 1.376 . S
C3221 C3220 1.392 . S
C3221 H3233 0.929 . S
C3222 C3218 1.531 . S
C3222 H3234 0.960 . S
C3222 H3235 0.962 . S
C3222 H3236 0.960 . S
C3223 C3220 1.511 . S
C3223 H3237 0.961 . S
C3223 H3238 0.961 . S
C3223 H3239 0.961 . S
C3224 C3225 1.370 . S
C3224 C3226 1.363 . S
C3224 H3240 0.931 . S
C3225 C3224 1.370 . S
C3225 C3229 1.408 . S
C3226 C3224 1.363 . S
C3226 C3227 1.370 . S
C3226 C3230 1.524 . S
C3227 C3219 1.503 . S
C3227 C3226 1.370 . S
C3227 C3228 1.403 . S
C3228 C3227 1.403 . S
C3228 C3229 1.404 . S
C3228 C3231 1.539 . S
C3229 C3225 1.408 . S
C3229 C3228 1.404 . S
C3229 H3241 0.930 . S
C3230 C3226 1.524 . S
C3230 H3242 0.956 . S
C3230 H3243 0.961 . S
C3230 H3244 0.961 . S
C3231 C3228 1.539 . S
C3231 H3245 0.958 . S
C3231 H3246 0.961 . S
C3231 H3247 0.960 . S
H3232 C3216 0.931 . S
H3233 C3221 0.929 . S
H3234 C3222 0.960 . S
H3235 C3222 0.962 . S
H3236 C3222 0.960 . S
H3237 C3223 0.961 . S
H3238 C3223 0.961 . S
H3239 C3223 0.961 . S
H3240 C3224 0.931 . S
H3241 C3229 0.930 . S
H3242 C3230 0.956 . S
H3243 C3230 0.961 . S
H3244 C3230 0.961 . S
H3245 C3231 0.958 . S
H3246 C3231 0.961 . S
H3247 C3231 0.960 . S
C3248 C3249 1.391 . S
C3248 C3250 1.394 . S
C3248 H3264 0.931 . S
C3249 C3248 1.391 . S
C3249 C3253 1.376 . S
C3250 C3248 1.394 . S
C3250 C3251 1.369 . S
C3250 C3254 1.531 . S
C3251 C3250 1.369 . S
C3251 C3252 1.410 . S
C3251 C3259 1.503 . S
C3252 C3251 1.410 . S
C3252 C3253 1.392 . S
C3252 C3255 1.511 . S
C3253 C3249 1.376 . S
C3253 C3252 1.392 . S
C3253 H3265 0.929 . S
C3254 C3250 1.531 . S
C3254 H3266 0.960 . S
C3254 H3267 0.962 . S
C3254 H3268 0.960 . S
C3255 C3252 1.511 . S
C3255 H3269 0.961 . S
C3255 H3270 0.961 . S
C3255 H3271 0.961 . S
C3256 C3257 1.370 . S
C3256 C3258 1.363 . S
C3256 H3272 0.931 . S
C3257 C3256 1.370 . S
C3257 C3261 1.408 . S
C3258 C3256 1.363 . S
C3258 C3259 1.370 . S
C3258 C3262 1.524 . S
C3259 C3251 1.503 . S
C3259 C3258 1.370 . S
C3259 C3260 1.403 . S
C3260 C3259 1.403 . S
C3260 C3261 1.404 . S
C3260 C3263 1.539 . S
C3261 C3257 1.408 . S
C3261 C3260 1.404 . S
C3261 H3273 0.930 . S
C3262 C3258 1.524 . S
C3262 H3274 0.956 . S
C3262 H3275 0.961 . S
C3262 H3276 0.961 . S
C3263 C3260 1.539 . S
C3263 H3277 0.958 . S
C3263 H3278 0.961 . S
C3263 H3279 0.960 . S
H3264 C3248 0.931 . S
H3265 C3253 0.929 . S
H3266 C3254 0.960 . S
H3267 C3254 0.962 . S
H3268 C3254 0.960 . S
H3269 C3255 0.961 . S
H3270 C3255 0.961 . S
H3271 C3255 0.961 . S
H3272 C3256 0.931 . S
H3273 C3261 0.930 . S
H3274 C3262 0.956 . S
H3275 C3262 0.961 . S
H3276 C3262 0.961 . S
H3277 C3263 0.958 . S
H3278 C3263 0.961 . S
H3279 C3263 0.960 . S
C3280 C3281 1.391 . S
C3280 C3282 1.394 . S
C3280 H3296 0.931 . S
C3281 C3280 1.391 . S
C3281 C3285 1.376 1_455 S
C3282 C3280 1.394 . S
C3282 C3283 1.369 . S
C3282 C3286 1.531 . S
C3283 C3282 1.369 . S
C3283 C3284 1.410 1_455 S
C3283 C3291 1.503 . S
C3284 C3283 1.410 1_655 S
C3284 C3285 1.392 . S
C3284 C3287 1.511 . S
C3285 C3281 1.376 1_655 S
C3285 C3284 1.392 . S
C3285 H3297 0.929 . S
C3286 C3282 1.531 . S
C3286 H3298 0.960 . S
C3286 H3299 0.962 . S
C3286 H3300 0.960 . S
C3287 C3284 1.511 . S
C3287 H3301 0.961 1_556 S
C3287 H3302 0.961 1_556 S
C3287 H3303 0.961 . S
C3288 C3289 1.370 . S
C3288 C3290 1.363 . S
C3288 H3304 0.931 . S
C3289 C3288 1.370 . S
C3289 C3293 1.408 1_554 S
C3290 C3288 1.363 . S
C3290 C3291 1.370 1_554 S
C3290 C3294 1.524 . S
C3291 C3283 1.503 . S
C3291 C3290 1.370 1_556 S
C3291 C3292 1.403 . S
C3292 C3291 1.403 . S
C3292 C3293 1.404 . S
C3292 C3295 1.539 . S
C3293 C3289 1.408 1_556 S
C3293 C3292 1.404 . S
C3293 H3305 0.930 . S
C3294 C3290 1.524 . S
C3294 H3306 0.956 . S
C3294 H3307 0.961 . S
C3294 H3308 0.961 . S
C3295 C3292 1.539 . S
C3295 H3309 0.958 . S
C3295 H3310 0.961 1_455 S
C3295 H3311 0.960 1_455 S
H3296 C3280 0.931 . S
H3297 C3285 0.929 . S
H3298 C3286 0.960 . S
H3299 C3286 0.962 . S
H3300 C3286 0.960 . S
H3301 C3287 0.961 1_554 S
H3302 C3287 0.961 1_554 S
H3303 C3287 0.961 . S
H3304 C3288 0.931 . S
H3305 C3293 0.930 . S
H3306 C3294 0.956 . S
H3307 C3294 0.961 . S
H3308 C3294 0.961 . S
H3309 C3295 0.958 . S
H3310 C3295 0.961 1_655 S
H3311 C3295 0.960 1_655 S
C3312 C3313 1.391 . S
C3312 C3314 1.394 . S
C3312 H3328 0.931 . S
C3313 C3312 1.391 . S
C3313 C3317 1.378 . S
C3314 C3312 1.394 . S
C3314 C3315 1.369 . S
C3314 C3318 1.531 . S
C3315 C3314 1.369 . S
C3315 C3316 1.410 . S
C3315 C3323 1.503 . S
C3316 C3315 1.410 . S
C3316 C3317 1.408 . S
C3316 C3319 1.511 . S
C3317 C3313 1.378 . S
C3317 C3316 1.408 . S
C3317 H3329 0.911 1_655 S
C3318 C3314 1.531 . S
C3318 H3330 0.960 . S
C3318 H3331 0.962 . S
C3318 H3332 0.960 . S
C3319 C3316 1.511 . S
C3319 H3333 0.961 1_655 S
C3319 H3334 0.961 . S
C3319 H3335 0.961 . S
C3320 C3321 1.370 . S
C3320 C3322 1.363 . S
C3320 H3336 0.931 . S
C3321 C3320 1.370 . S
C3321 C3325 1.408 . S
C3322 C3320 1.363 . S
C3322 C3323 1.370 . S
C3322 C3326 1.524 . S
C3323 C3315 1.503 . S
C3323 C3322 1.370 . S
C3323 C3324 1.403 . S
C3324 C3323 1.403 . S
C3324 C3325 1.404 . S
C3324 C3327 1.539 . S
C3325 C3321 1.408 . S
C3325 C3324 1.404 . S
C3325 H3337 0.930 . S
C3326 C3322 1.524 . S
C3326 H3338 0.956 . S
C3326 H3339 0.961 . S
C3326 H3340 0.961 . S
C3327 C3324 1.539 . S
C3327 H3341 0.958 . S
C3327 H3342 0.961 . S
C3327 H3343 0.960 . S
H3328 C3312 0.931 . S
H3329 C3317 0.911 1_455 S
H3330 C3318 0.960 . S
H3331 C3318 0.962 . S
H3332 C3318 0.960 . S
H3333 C3319 0.961 1_455 S
H3334 C3319 0.961 . S
H3335 C3319 0.961 . S
H3336 C3320 0.931 . S
H3337 C3325 0.930 . S
H3338 C3326 0.956 . S
H3339 C3326 0.961 . S
H3340 C3326 0.961 . S
H3341 C3327 0.958 . S
H3342 C3327 0.961 . S
H3343 C3327 0.960 . S
C3344 C3345 1.391 . S
C3344 C3346 1.394 . S
C3344 H3360 0.931 . S
C3345 C3344 1.391 . S
C3345 C3349 1.376 . S
C3346 C3344 1.394 . S
C3346 C3347 1.369 . S
C3346 C3350 1.531 . S
C3347 C3346 1.369 . S
C3347 C3348 1.410 . S
C3347 C3355 1.503 . S
C3348 C3347 1.410 . S
C3348 C3349 1.392 . S
C3348 C3351 1.511 . S
C3349 C3345 1.376 . S
C3349 C3348 1.392 . S
C3349 H3361 0.929 . S
C3350 C3346 1.531 . S
C3350 H3362 0.960 . S
C3350 H3363 0.962 . S
C3350 H3364 0.960 . S
C3351 C3348 1.511 . S
C3351 H3365 0.961 . S
C3351 H3366 0.961 . S
C3351 H3367 0.961 . S
C3352 C3353 1.370 . S
C3352 C3354 1.363 . S
C3352 H3368 0.931 . S
C3353 C3352 1.370 . S
C3353 C3357 1.408 . S
C3354 C3352 1.363 . S
C3354 C3355 1.370 . S
C3354 C3358 1.524 . S
C3355 C3347 1.503 . S
C3355 C3354 1.370 . S
C3355 C3356 1.403 . S
C3356 C3355 1.403 . S
C3356 C3357 1.404 . S
C3356 C3359 1.539 . S
C3357 C3353 1.408 . S
C3357 C3356 1.404 . S
C3357 H3369 0.930 . S
C3358 C3354 1.524 . S
C3358 H3370 0.956 . S
C3358 H3371 0.961 . S
C3358 H3372 0.961 . S
C3359 C3356 1.539 . S
C3359 H3373 0.958 . S
C3359 H3374 0.961 . S
C3359 H3375 0.960 . S
H3360 C3344 0.931 . S
H3361 C3349 0.929 . S
H3362 C3350 0.960 . S
H3363 C3350 0.962 . S
H3364 C3350 0.960 . S
H3365 C3351 0.961 . S
H3366 C3351 0.961 . S
H3367 C3351 0.961 . S
H3368 C3352 0.931 . S
H3369 C3357 0.930 . S
H3370 C3358 0.956 . S
H3371 C3358 0.961 . S
H3372 C3358 0.961 . S
H3373 C3359 0.958 . S
H3374 C3359 0.961 . S
H3375 C3359 0.960 . S
C3376 C3377 1.391 . S
C3376 C3378 1.394 . S
C3376 H3392 0.931 . S
C3377 C3376 1.391 . S
C3377 C3381 1.376 . S
C3378 C3376 1.394 . S
C3378 C3379 1.369 . S
C3378 C3382 1.531 . S
C3379 C3378 1.369 . S
C3379 C3380 1.410 . S
C3379 C3387 1.503 . S
C3380 C3379 1.410 . S
C3380 C3381 1.392 . S
C3380 C3383 1.511 . S
C3381 C3377 1.376 . S
C3381 C3380 1.392 . S
C3381 H3393 0.929 . S
C3382 C3378 1.531 . S
C3382 H3394 0.960 . S
C3382 H3395 0.962 . S
C3382 H3396 0.960 . S
C3383 C3380 1.511 . S
C3383 H3397 0.961 . S
C3383 H3398 0.961 . S
C3383 H3399 0.961 . S
C3384 C3385 1.370 . S
C3384 C3386 1.363 . S
C3384 H3400 0.931 . S
C3385 C3384 1.370 . S
C3385 C3389 1.408 . S
C3386 C3384 1.363 . S
C3386 C3387 1.370 . S
C3386 C3390 1.524 . S
C3387 C3379 1.503 . S
C3387 C3386 1.370 . S
C3387 C3388 1.403 . S
C3388 C3387 1.403 . S
C3388 C3389 1.404 . S
C3388 C3391 1.539 . S
C3389 C3385 1.408 . S
C3389 C3388 1.404 . S
C3389 H3401 0.930 . S
C3390 C3386 1.524 . S
C3390 H3402 0.956 . S
C3390 H3403 0.961 . S
C3390 H3404 0.961 . S
C3391 C3388 1.539 . S
C3391 H3405 0.958 . S
C3391 H3406 0.961 . S
C3391 H3407 0.960 . S
H3392 C3376 0.931 . S
H3393 C3381 0.929 . S
H3394 C3382 0.960 . S
H3395 C3382 0.962 . S
H3396 C3382 0.960 . S
H3397 C3383 0.961 . S
H3398 C3383 0.961 . S
H3399 C3383 0.961 . S
H3400 C3384 0.931 . S
H3401 C3389 0.930 . S
H3402 C3390 0.956 . S
H3403 C3390 0.961 . S
H3404 C3390 0.961 . S
H3405 C3391 0.958 . S
H3406 C3391 0.961 . S
H3407 C3391 0.960 . S
C3408 C3409 1.391 1_655 S
C3408 C3410 1.394 . S
C3408 H3424 0.931 . S
C3409 C3408 1.391 1_455 S
C3409 C3413 1.376 . S
C3410 C3408 1.394 . S
C3410 C3411 1.369 1_655 S
C3410 C3414 1.531 . S
C3411 C3410 1.369 1_455 S
C3411 C3412 1.410 . S
C3411 C3419 1.503 . S
C3412 C3411 1.410 . S
C3412 C3413 1.392 . S
C3412 C3415 1.511 . S
C3413 C3409 1.376 . S
C3413 C3412 1.392 . S
C3413 H3425 0.929 . S
C3414 C3410 1.531 . S
C3414 H3426 0.960 . S
C3414 H3427 0.962 . S
C3414 H3428 0.960 . S
C3415 C3412 1.511 . S
C3415 H3429 0.961 . S
C3415 H3430 0.961 . S
C3415 H3431 0.961 . S
C3416 C3417 1.370 . S
C3416 C3418 1.363 . S
C3416 H3432 0.931 . S
C3417 C3416 1.370 . S
C3417 C3421 1.408 . S
C3418 C3416 1.363 . S
C3418 C3419 1.370 . S
C3418 C3422 1.524 . S
C3419 C3411 1.503 . S
C3419 C3418 1.370 . S
C3419 C3420 1.403 . S
C3420 C3419 1.403 . S
C3420 C3421 1.404 . S
C3420 C3423 1.539 . S
C3421 C3417 1.408 . S
C3421 C3420 1.404 . S
C3421 H3433 0.930 . S
C3422 C3418 1.524 . S
C3422 H3434 0.956 1_455 S
C3422 H3435 0.961 . S
C3422 H3436 0.961 1_455 S
C3423 C3420 1.539 . S
C3423 H3437 0.958 . S
C3423 H3438 0.961 . S
C3423 H3439 0.960 . S
H3424 C3408 0.931 . S
H3425 C3413 0.929 . S
H3426 C3414 0.960 . S
H3427 C3414 0.962 . S
H3428 C3414 0.960 . S
H3429 C3415 0.961 . S
H3430 C3415 0.961 . S
H3431 C3415 0.961 . S
H3432 C3416 0.931 . S
H3433 C3421 0.930 . S
H3434 C3422 0.956 1_655 S
H3435 C3422 0.961 . S
H3436 C3422 0.961 1_655 S
H3437 C3423 0.958 . S
H3438 C3423 0.961 . S
H3439 C3423 0.960 . S
C3440 C3441 1.391 . S
C3440 C3442 1.394 . S
C3440 H3456 0.931 . S
C3441 C3440 1.391 . S
C3441 C3445 1.376 . S
C3442 C3440 1.394 . S
C3442 C3443 1.369 . S
C3442 C3446 1.531 . S
C3443 C3442 1.369 . S
C3443 C3444 1.410 . S
C3443 C3451 1.503 . S
C3444 C3443 1.410 . S
C3444 C3445 1.392 . S
C3444 C3447 1.511 . S
C3445 C3441 1.376 . S
C3445 C3444 1.392 . S
C3445 H3457 0.929 . S
C3446 C3442 1.531 . S
C3446 H3458 0.960 . S
C3446 H3459 0.962 . S
C3446 H3460 0.960 . S
C3447 C3444 1.511 . S
C3447 H3461 0.961 . S
C3447 H3462 0.961 . S
C3447 H3463 0.961 . S
C3448 C3449 1.370 . S
C3448 C3450 1.363 . S
C3448 H3464 0.931 . S
C3449 C3448 1.370 . S
C3449 C3453 1.408 . S
C3450 C3448 1.363 . S
C3450 C3451 1.370 . S
C3450 C3454 1.524 . S
C3451 C3443 1.503 . S
C3451 C3450 1.370 . S
C3451 C3452 1.403 . S
C3452 C3451 1.403 . S
C3452 C3453 1.404 . S
C3452 C3455 1.539 . S
C3453 C3449 1.408 . S
C3453 C3452 1.404 . S
C3453 H3465 0.930 . S
C3454 C3450 1.524 . S
C3454 H3466 0.956 . S
C3454 H3467 0.961 . S
C3454 H3468 0.961 . S
C3455 C3452 1.539 . S
C3455 H3469 0.958 . S
C3455 H3470 0.961 . S
C3455 H3471 0.960 . S
H3456 C3440 0.931 . S
H3457 C3445 0.929 . S
H3458 C3446 0.960 . S
H3459 C3446 0.962 . S
H3460 C3446 0.960 . S
H3461 C3447 0.961 . S
H3462 C3447 0.961 . S
H3463 C3447 0.961 . S
H3464 C3448 0.931 . S
H3465 C3453 0.930 . S
H3466 C3454 0.956 . S
H3467 C3454 0.961 . S
H3468 C3454 0.961 . S
H3469 C3455 0.958 . S
H3470 C3455 0.961 . S
H3471 C3455 0.960 . S
C3472 C3473 1.391 . S
C3472 C3474 1.394 . S
C3472 H3488 0.931 . S
C3473 C3472 1.391 . S
C3473 C3477 1.376 . S
C3474 C3472 1.394 . S
C3474 C3475 1.369 . S
C3474 C3478 1.531 . S
C3475 C3474 1.369 . S
C3475 C3476 1.410 . S
C3475 C3483 1.503 . S
C3476 C3475 1.410 . S
C3476 C3477 1.392 . S
C3476 C3479 1.511 . S
C3477 C3473 1.376 . S
C3477 C3476 1.392 . S
C3477 H3489 0.929 . S
C3478 C3474 1.531 . S
C3478 H3490 0.960 . S
C3478 H3491 0.962 . S
C3478 H3492 0.960 . S
C3479 C3476 1.511 . S
C3479 H3493 0.961 . S
C3479 H3494 0.961 . S
C3479 H3495 0.961 . S
C3480 C3481 1.370 . S
C3480 C3482 1.363 . S
C3480 H3496 0.931 . S
C3481 C3480 1.370 . S
C3481 C3485 1.408 . S
C3482 C3480 1.363 . S
C3482 C3483 1.370 . S
C3482 C3486 1.524 . S
C3483 C3475 1.503 . S
C3483 C3482 1.370 . S
C3483 C3484 1.403 . S
C3484 C3483 1.403 . S
C3484 C3485 1.404 . S
C3484 C3487 1.539 . S
C3485 C3481 1.408 . S
C3485 C3484 1.404 . S
C3485 H3497 0.930 . S
C3486 C3482 1.524 . S
C3486 H3498 0.956 . S
C3486 H3499 0.961 . S
C3486 H3500 0.961 . S
C3487 C3484 1.539 . S
C3487 H3501 0.958 . S
C3487 H3502 0.961 . S
C3487 H3503 0.960 . S
H3488 C3472 0.931 . S
H3489 C3477 0.929 . S
H3490 C3478 0.960 . S
H3491 C3478 0.962 . S
H3492 C3478 0.960 . S
H3493 C3479 0.961 . S
H3494 C3479 0.961 . S
H3495 C3479 0.961 . S
H3496 C3480 0.931 . S
H3497 C3485 0.930 . S
H3498 C3486 0.956 . S
H3499 C3486 0.961 . S
H3500 C3486 0.961 . S
H3501 C3487 0.958 . S
H3502 C3487 0.961 . S
H3503 C3487 0.960 . S
C3504 C3505 1.391 1_556 S
C3504 C3506 1.394 . S
C3504 H3520 0.931 . S
C3505 C3504 1.391 1_554 S
C3505 C3509 1.376 . S
C3506 C3504 1.394 . S
C3506 C3507 1.369 . S
C3506 C3510 1.531 . S
C3507 C3506 1.369 . S
C3507 C3508 1.410 . S
C3507 C3515 1.503 . S
C3508 C3507 1.410 . S
C3508 C3509 1.392 1_556 S
C3508 C3511 1.511 . S
C3509 C3505 1.376 . S
C3509 C3508 1.392 1_554 S
C3509 H3521 0.929 . S
C3510 C3506 1.531 . S
C3510 H3522 0.960 . S
C3510 H3523 0.962 . S
C3510 H3524 0.960 . S
C3511 C3508 1.511 . S
C3511 H3525 0.961 1_556 S
C3511 H3526 0.961 . S
C3511 H3527 0.961 . S
C3512 C3513 1.370 . S
C3512 C3514 1.363 . S
C3512 H3528 0.931 . S
C3513 C3512 1.370 . S
C3513 C3517 1.408 . S
C3514 C3512 1.363 . S
C3514 C3515 1.370 . S
C3514 C3518 1.524 . S
C3515 C3507 1.503 . S
C3515 C3514 1.370 . S
C3515 C3516 1.403 . S
C3516 C3515 1.403 . S
C3516 C3517 1.404 . S
C3516 C3519 1.539 . S
C3517 C3513 1.408 . S
C3517 C3516 1.404 . S
C3517 H3529 0.930 . S
C3518 C3514 1.524 . S
C3518 H3530 0.956 . S
C3518 H3531 0.961 . S
C3518 H3532 0.961 . S
C3519 C3516 1.539 . S
C3519 H3533 0.958 . S
C3519 H3534 0.961 . S
C3519 H3535 0.960 . S
H3520 C3504 0.931 . S
H3521 C3509 0.929 . S
H3522 C3510 0.960 . S
H3523 C3510 0.962 . S
H3524 C3510 0.960 . S
H3525 C3511 0.961 1_554 S
H3526 C3511 0.961 . S
H3527 C3511 0.961 . S
H3528 C3512 0.931 . S
H3529 C3517 0.930 . S
H3530 C3518 0.956 . S
H3531 C3518 0.961 . S
H3532 C3518 0.961 . S
H3533 C3519 0.958 . S
H3534 C3519 0.961 . S
H3535 C3519 0.960 . S
C3536 C3537 1.391 . S
C3536 C3538 1.394 . S
C3536 H3552 0.931 . S
C3537 C3536 1.391 . S
C3537 C3541 1.376 . S
C3538 C3536 1.394 . S
C3538 C3539 1.369 . S
C3538 C3542 1.531 . S
C3539 C3538 1.369 . S
C3539 C3540 1.410 . S
C3539 C3547 1.503 . S
C3540 C3539 1.410 . S
C3540 C3541 1.392 . S
C3540 C3543 1.511 . S
C3541 C3537 1.376 . S
C3541 C3540 1.392 . S
C3541 H3553 0.929 . S
C3542 C3538 1.531 . S
C3542 H3554 0.960 . S
C3542 H3555 0.962 . S
C3542 H3556 0.960 . S
C3543 C3540 1.511 . S
C3543 H3557 0.961 . S
C3543 H3558 0.961 . S
C3543 H3559 0.961 . S
C3544 C3545 1.370 . S
C3544 C3546 1.363 . S
C3544 H3560 0.931 . S
C3545 C3544 1.370 . S
C3545 C3549 1.408 . S
C3546 C3544 1.363 . S
C3546 C3547 1.370 . S
C3546 C3550 1.524 . S
C3547 C3539 1.503 . S
C3547 C3546 1.370 . S
C3547 C3548 1.403 . S
C3548 C3547 1.403 . S
C3548 C3549 1.404 . S
C3548 C3551 1.539 . S
C3549 C3545 1.408 . S
C3549 C3548 1.404 . S
C3549 H3561 0.930 . S
C3550 C3546 1.524 . S
C3550 H3562 0.956 . S
C3550 H3563 0.961 . S
C3550 H3564 0.961 . S
C3551 C3548 1.539 . S
C3551 H3565 0.958 . S
C3551 H3566 0.961 . S
C3551 H3567 0.960 . S
H3552 C3536 0.931 . S
H3553 C3541 0.929 . S
H3554 C3542 0.960 . S
H3555 C3542 0.962 . S
H3556 C3542 0.960 . S
H3557 C3543 0.961 . S
H3558 C3543 0.961 . S
H3559 C3543 0.961 . S
H3560 C3544 0.931 . S
H3561 C3549 0.930 . S
H3562 C3550 0.956 . S
H3563 C3550 0.961 . S
H3564 C3550 0.961 . S
H3565 C3551 0.958 . S
H3566 C3551 0.961 . S
H3567 C3551 0.960 . S
C3568 C3569 1.391 . S
C3568 C3570 1.394 . S
C3568 H3584 0.931 . S
C3569 C3568 1.391 . S
C3569 C3573 1.376 . S
C3570 C3568 1.394 . S
C3570 C3571 1.369 . S
C3570 C3574 1.531 . S
C3571 C3570 1.369 . S
C3571 C3572 1.410 . S
C3571 C3579 1.503 . S
C3572 C3571 1.410 . S
C3572 C3573 1.392 . S
C3572 C3575 1.511 . S
C3573 C3569 1.376 . S
C3573 C3572 1.392 . S
C3573 H3585 0.929 . S
C3574 C3570 1.531 . S
C3574 H3586 0.960 . S
C3574 H3587 0.962 . S
C3574 H3588 0.960 . S
C3575 C3572 1.511 . S
C3575 H3589 0.961 . S
C3575 H3590 0.961 . S
C3575 H3591 0.961 . S
C3576 C3577 1.370 . S
C3576 C3578 1.363 . S
C3576 H3592 0.931 . S
C3577 C3576 1.370 . S
C3577 C3581 1.408 . S
C3578 C3576 1.363 . S
C3578 C3579 1.370 . S
C3578 C3582 1.524 . S
C3579 C3571 1.503 . S
C3579 C3578 1.370 . S
C3579 C3580 1.403 . S
C3580 C3579 1.403 . S
C3580 C3581 1.404 . S
C3580 C3583 1.539 . S
C3581 C3577 1.408 . S
C3581 C3580 1.404 . S
C3581 H3593 0.930 . S
C3582 C3578 1.524 . S
C3582 H3594 0.956 . S
C3582 H3595 0.961 . S
C3582 H3596 0.961 . S
C3583 C3580 1.539 . S
C3583 H3597 0.958 . S
C3583 H3598 0.961 . S
C3583 H3599 0.960 . S
H3584 C3568 0.931 . S
H3585 C3573 0.929 . S
H3586 C3574 0.960 . S
H3587 C3574 0.962 . S
H3588 C3574 0.960 . S
H3589 C3575 0.961 . S
H3590 C3575 0.961 . S
H3591 C3575 0.961 . S
H3592 C3576 0.931 . S
H3593 C3581 0.930 . S
H3594 C3582 0.956 . S
H3595 C3582 0.961 . S
H3596 C3582 0.961 . S
H3597 C3583 0.958 . S
H3598 C3583 0.961 . S
H3599 C3583 0.960 . S
C3600 C3601 1.391 . S
C3600 C3602 1.394 . S
C3600 H3616 0.931 . S
C3601 C3600 1.391 . S
C3601 C3605 1.376 . S
C3602 C3600 1.394 . S
C3602 C3603 1.369 . S
C3602 C3606 1.531 . S
C3603 C3602 1.369 . S
C3603 C3604 1.410 . S
C3603 C3611 1.503 . S
C3604 C3603 1.410 . S
C3604 C3605 1.392 . S
C3604 C3607 1.511 . S
C3605 C3601 1.376 . S
C3605 C3604 1.392 . S
C3605 H3617 0.929 . S
C3606 C3602 1.531 . S
C3606 H3618 0.960 . S
C3606 H3619 0.962 . S
C3606 H3620 0.960 . S
C3607 C3604 1.511 . S
C3607 H3621 0.961 . S
C3607 H3622 0.961 . S
C3607 H3623 0.961 . S
C3608 C3609 1.370 . S
C3608 C3610 1.363 . S
C3608 H3624 0.931 . S
C3609 C3608 1.370 . S
C3609 C3613 1.408 . S
C3610 C3608 1.363 . S
C3610 C3611 1.370 . S
C3610 C3614 1.524 . S
C3611 C3603 1.503 . S
C3611 C3610 1.370 . S
C3611 C3612 1.403 . S
C3612 C3611 1.403 . S
C3612 C3613 1.404 . S
C3612 C3615 1.539 . S
C3613 C3609 1.408 . S
C3613 C3612 1.404 . S
C3613 H3625 0.930 . S
C3614 C3610 1.524 . S
C3614 H3626 0.956 . S
C3614 H3627 0.961 . S
C3614 H3628 0.961 . S
C3615 C3612 1.539 . S
C3615 H3629 0.958 . S
C3615 H3630 0.961 . S
C3615 H3631 0.960 . S
H3616 C3600 0.931 . S
H3617 C3605 0.929 . S
H3618 C3606 0.960 . S
H3619 C3606 0.962 . S
H3620 C3606 0.960 . S
H3621 C3607 0.961 . S
H3622 C3607 0.961 . S
H3623 C3607 0.961 . S
H3624 C3608 0.931 . S
H3625 C3613 0.930 . S
H3626 C3614 0.956 . S
H3627 C3614 0.961 . S
H3628 C3614 0.961 . S
H3629 C3615 0.958 . S
H3630 C3615 0.961 . S
H3631 C3615 0.960 . S
C3632 C3633 1.391 . S
C3632 C3634 1.394 . S
C3632 H3648 0.931 . S
C3633 C3632 1.391 . S
C3633 C3637 1.376 . S
C3634 C3632 1.394 . S
C3634 C3635 1.369 . S
C3634 C3638 1.531 . S
C3635 C3634 1.369 . S
C3635 C3636 1.410 . S
C3635 C3643 1.503 . S
C3636 C3635 1.410 . S
C3636 C3637 1.392 . S
C3636 C3639 1.511 . S
C3637 C3633 1.376 . S
C3637 C3636 1.392 . S
C3637 H3649 0.929 . S
C3638 C3634 1.531 . S
C3638 H3650 0.960 . S
C3638 H3651 0.962 . S
C3638 H3652 0.960 . S
C3639 C3636 1.511 . S
C3639 H3653 0.961 . S
C3639 H3654 0.961 . S
C3639 H3655 0.961 . S
C3640 C3641 1.370 . S
C3640 C3642 1.363 . S
C3640 H3656 0.931 . S
C3641 C3640 1.370 . S
C3641 C3645 1.408 . S
C3642 C3640 1.363 . S
C3642 C3643 1.370 . S
C3642 C3646 1.524 . S
C3643 C3635 1.503 . S
C3643 C3642 1.370 . S
C3643 C3644 1.403 . S
C3644 C3643 1.403 . S
C3644 C3645 1.404 . S
C3644 C3647 1.539 . S
C3645 C3641 1.408 . S
C3645 C3644 1.404 . S
C3645 H3657 0.930 . S
C3646 C3642 1.524 . S
C3646 H3658 0.956 . S
C3646 H3659 0.961 . S
C3646 H3660 0.961 . S
C3647 C3644 1.539 . S
C3647 H3661 0.958 . S
C3647 H3662 0.961 . S
C3647 H3663 0.960 . S
H3648 C3632 0.931 . S
H3649 C3637 0.929 . S
H3650 C3638 0.960 . S
H3651 C3638 0.962 . S
H3652 C3638 0.960 . S
H3653 C3639 0.961 . S
H3654 C3639 0.961 . S
H3655 C3639 0.961 . S
H3656 C3640 0.931 . S
H3657 C3645 0.930 . S
H3658 C3646 0.956 . S
H3659 C3646 0.961 . S
H3660 C3646 0.961 . S
H3661 C3647 0.958 . S
H3662 C3647 0.961 . S
H3663 C3647 0.960 . S
C3664 C3665 1.391 . S
C3664 C3666 1.394 . S
C3664 H3680 0.931 . S
C3665 C3664 1.391 . S
C3665 C3669 1.376 . S
C3666 C3664 1.394 . S
C3666 C3667 1.369 . S
C3666 C3670 1.531 . S
C3667 C3666 1.369 . S
C3667 C3668 1.410 . S
C3667 C3675 1.503 . S
C3668 C3667 1.410 . S
C3668 C3669 1.392 . S
C3668 C3671 1.511 . S
C3669 C3665 1.376 . S
C3669 C3668 1.392 . S
C3669 H3681 0.929 . S
C3670 C3666 1.531 . S
C3670 H3682 0.960 . S
C3670 H3683 0.962 . S
C3670 H3684 0.960 . S
C3671 C3668 1.511 . S
C3671 H3685 0.961 . S
C3671 H3686 0.961 . S
C3671 H3687 0.961 . S
C3672 C3673 1.370 . S
C3672 C3674 1.363 . S
C3672 H3688 0.931 . S
C3673 C3672 1.370 . S
C3673 C3677 1.408 . S
C3674 C3672 1.363 . S
C3674 C3675 1.370 . S
C3674 C3678 1.524 . S
C3675 C3667 1.503 . S
C3675 C3674 1.370 . S
C3675 C3676 1.403 . S
C3676 C3675 1.403 . S
C3676 C3677 1.404 . S
C3676 C3679 1.539 . S
C3677 C3673 1.408 . S
C3677 C3676 1.404 . S
C3677 H3689 0.930 . S
C3678 C3674 1.524 . S
C3678 H3690 0.956 . S
C3678 H3691 0.961 . S
C3678 H3692 0.961 . S
C3679 C3676 1.539 . S
C3679 H3693 0.958 . S
C3679 H3694 0.961 . S
C3679 H3695 0.960 . S
H3680 C3664 0.931 . S
H3681 C3669 0.929 . S
H3682 C3670 0.960 . S
H3683 C3670 0.962 . S
H3684 C3670 0.960 . S
H3685 C3671 0.961 . S
H3686 C3671 0.961 . S
H3687 C3671 0.961 . S
H3688 C3672 0.931 . S
H3689 C3677 0.930 . S
H3690 C3678 0.956 . S
H3691 C3678 0.961 . S
H3692 C3678 0.961 . S
H3693 C3679 0.958 . S
H3694 C3679 0.961 . S
H3695 C3679 0.960 . S
C3696 C3697 1.391 . S
C3696 C3698 1.394 . S
C3696 H3712 0.931 . S
C3697 C3696 1.391 . S
C3697 C3701 1.376 . S
C3698 C3696 1.394 . S
C3698 C3699 1.369 . S
C3698 C3702 1.531 . S
C3699 C3698 1.369 . S
C3699 C3700 1.410 . S
C3699 C3707 1.503 . S
C3700 C3699 1.410 . S
C3700 C3701 1.392 . S
C3700 C3703 1.511 . S
C3701 C3697 1.376 . S
C3701 C3700 1.392 . S
C3701 H3713 0.929 . S
C3702 C3698 1.531 . S
C3702 H3714 0.960 . S
C3702 H3715 0.962 . S
C3702 H3716 0.960 . S
C3703 C3700 1.511 . S
C3703 H3717 0.961 . S
C3703 H3718 0.961 . S
C3703 H3719 0.961 . S
C3704 C3705 1.370 . S
C3704 C3706 1.363 . S
C3704 H3720 0.931 . S
C3705 C3704 1.370 . S
C3705 C3709 1.408 . S
C3706 C3704 1.363 . S
C3706 C3707 1.370 . S
C3706 C3710 1.524 . S
C3707 C3699 1.503 . S
C3707 C3706 1.370 . S
C3707 C3708 1.403 . S
C3708 C3707 1.403 . S
C3708 C3709 1.404 . S
C3708 C3711 1.539 . S
C3709 C3705 1.408 . S
C3709 C3708 1.404 . S
C3709 H3721 0.930 . S
C3710 C3706 1.524 . S
C3710 H3722 0.956 . S
C3710 H3723 0.961 . S
C3710 H3724 0.961 . S
C3711 C3708 1.539 . S
C3711 H3725 0.958 . S
C3711 H3726 0.961 . S
C3711 H3727 0.960 . S
H3712 C3696 0.931 . S
H3713 C3701 0.929 . S
H3714 C3702 0.960 . S
H3715 C3702 0.962 . S
H3716 C3702 0.960 . S
H3717 C3703 0.961 . S
H3718 C3703 0.961 . S
H3719 C3703 0.961 . S
H3720 C3704 0.931 . S
H3721 C3709 0.930 . S
H3722 C3710 0.956 . S
H3723 C3710 0.961 . S
H3724 C3710 0.961 . S
H3725 C3711 0.958 . S
H3726 C3711 0.961 . S
H3727 C3711 0.960 . S
C3728 C3729 1.391 . S
C3728 C3730 1.394 . S
C3728 H3744 0.931 . S
C3729 C3728 1.391 . S
C3729 C3733 1.376 . S
C3730 C3728 1.394 . S
C3730 C3731 1.369 . S
C3730 C3734 1.531 . S
C3731 C3730 1.369 . S
C3731 C3732 1.410 . S
C3731 C3739 1.503 . S
C3732 C3731 1.410 . S
C3732 C3733 1.392 . S
C3732 C3735 1.511 . S
C3733 C3729 1.376 . S
C3733 C3732 1.392 . S
C3733 H3745 0.929 . S
C3734 C3730 1.531 . S
C3734 H3746 0.960 . S
C3734 H3747 0.962 . S
C3734 H3748 0.960 . S
C3735 C3732 1.511 . S
C3735 H3749 0.961 . S
C3735 H3750 0.961 . S
C3735 H3751 0.961 . S
C3736 C3737 1.370 . S
C3736 C3738 1.363 . S
C3736 H3752 0.931 . S
C3737 C3736 1.370 . S
C3737 C3741 1.408 . S
C3738 C3736 1.363 . S
C3738 C3739 1.370 . S
C3738 C3742 1.524 . S
C3739 C3731 1.503 . S
C3739 C3738 1.370 . S
C3739 C3740 1.403 . S
C3740 C3739 1.403 . S
C3740 C3741 1.404 . S
C3740 C3743 1.539 . S
C3741 C3737 1.408 . S
C3741 C3740 1.404 . S
C3741 H3753 0.930 . S
C3742 C3738 1.524 . S
C3742 H3754 0.956 . S
C3742 H3755 0.961 . S
C3742 H3756 0.961 . S
C3743 C3740 1.539 . S
C3743 H3757 0.958 . S
C3743 H3758 0.961 . S
C3743 H3759 0.960 . S
H3744 C3728 0.931 . S
H3745 C3733 0.929 . S
H3746 C3734 0.960 . S
H3747 C3734 0.962 . S
H3748 C3734 0.960 . S
H3749 C3735 0.961 . S
H3750 C3735 0.961 . S
H3751 C3735 0.961 . S
H3752 C3736 0.931 . S
H3753 C3741 0.930 . S
H3754 C3742 0.956 . S
H3755 C3742 0.961 . S
H3756 C3742 0.961 . S
H3757 C3743 0.958 . S
H3758 C3743 0.961 . S
H3759 C3743 0.960 . S
C3760 C3761 1.391 . S
C3760 C3762 1.394 . S
C3760 H3776 0.931 . S
C3761 C3760 1.391 . S
C3761 C3765 1.376 . S
C3762 C3760 1.394 . S
C3762 C3763 1.369 . S
C3762 C3766 1.531 . S
C3763 C3762 1.369 . S
C3763 C3764 1.410 . S
C3763 C3771 1.503 . S
C3764 C3763 1.410 . S
C3764 C3765 1.392 . S
C3764 C3767 1.511 . S
C3765 C3761 1.376 . S
C3765 C3764 1.392 . S
C3765 H3777 0.929 . S
C3766 C3762 1.531 . S
C3766 H3778 0.960 . S
C3766 H3779 0.962 . S
C3766 H3780 0.960 . S
C3767 C3764 1.511 . S
C3767 H3781 0.961 . S
C3767 H3782 0.961 . S
C3767 H3783 0.961 . S
C3768 C3769 1.370 . S
C3768 C3770 1.363 . S
C3768 H3784 0.931 . S
C3769 C3768 1.370 . S
C3769 C3773 1.408 . S
C3770 C3768 1.363 . S
C3770 C3771 1.370 . S
C3770 C3774 1.524 . S
C3771 C3763 1.503 . S
C3771 C3770 1.370 . S
C3771 C3772 1.403 . S
C3772 C3771 1.403 . S
C3772 C3773 1.404 . S
C3772 C3775 1.539 . S
C3773 C3769 1.408 . S
C3773 C3772 1.404 . S
C3773 H3785 0.930 . S
C3774 C3770 1.524 . S
C3774 H3786 0.956 . S
C3774 H3787 0.961 . S
C3774 H3788 0.961 . S
C3775 C3772 1.539 . S
C3775 H3789 0.958 . S
C3775 H3790 0.961 . S
C3775 H3791 0.960 . S
H3776 C3760 0.931 . S
H3777 C3765 0.929 . S
H3778 C3766 0.960 . S
H3779 C3766 0.962 . S
H3780 C3766 0.960 . S
H3781 C3767 0.961 . S
H3782 C3767 0.961 . S
H3783 C3767 0.961 . S
H3784 C3768 0.931 . S
H3785 C3773 0.930 . S
H3786 C3774 0.956 . S
H3787 C3774 0.961 . S
H3788 C3774 0.961 . S
H3789 C3775 0.958 . S
H3790 C3775 0.961 . S
H3791 C3775 0.960 . S
C3792 C3793 1.391 . S
C3792 C3794 1.394 . S
C3792 H3808 0.931 . S
C3793 C3792 1.391 . S
C3793 C3797 1.376 . S
C3794 C3792 1.394 . S
C3794 C3795 1.369 . S
C3794 C3798 1.531 . S
C3795 C3794 1.369 . S
C3795 C3796 1.410 . S
C3795 C3803 1.503 . S
C3796 C3795 1.410 . S
C3796 C3797 1.392 . S
C3796 C3799 1.511 . S
C3797 C3793 1.376 . S
C3797 C3796 1.392 . S
C3797 H3809 0.929 . S
C3798 C3794 1.531 . S
C3798 H3810 0.960 . S
C3798 H3811 0.962 . S
C3798 H3812 0.960 . S
C3799 C3796 1.511 . S
C3799 H3813 0.961 . S
C3799 H3814 0.961 . S
C3799 H3815 0.961 . S
C3800 C3801 1.370 . S
C3800 C3802 1.363 . S
C3800 H3816 0.931 . S
C3801 C3800 1.370 . S
C3801 C3805 1.408 . S
C3802 C3800 1.363 . S
C3802 C3803 1.370 . S
C3802 C3806 1.524 . S
C3803 C3795 1.503 . S
C3803 C3802 1.370 . S
C3803 C3804 1.403 . S
C3804 C3803 1.403 . S
C3804 C3805 1.404 . S
C3804 C3807 1.539 . S
C3805 C3801 1.408 . S
C3805 C3804 1.404 . S
C3805 H3817 0.930 . S
C3806 C3802 1.524 . S
C3806 H3818 0.956 . S
C3806 H3819 0.961 . S
C3806 H3820 0.961 . S
C3807 C3804 1.539 . S
C3807 H3821 0.958 . S
C3807 H3822 0.961 . S
C3807 H3823 0.960 . S
H3808 C3792 0.931 . S
H3809 C3797 0.929 . S
H3810 C3798 0.960 . S
H3811 C3798 0.962 . S
H3812 C3798 0.960 . S
H3813 C3799 0.961 . S
H3814 C3799 0.961 . S
H3815 C3799 0.961 . S
H3816 C3800 0.931 . S
H3817 C3805 0.930 . S
H3818 C3806 0.956 . S
H3819 C3806 0.961 . S
H3820 C3806 0.961 . S
H3821 C3807 0.958 . S
H3822 C3807 0.961 . S
H3823 C3807 0.960 . S
C3824 C3825 1.391 . S
C3824 C3826 1.394 . S
C3824 H3840 0.931 . S
C3825 C3824 1.391 . S
C3825 C3829 1.376 1_554 S
C3826 C3824 1.394 . S
C3826 C3827 1.369 . S
C3826 C3830 1.531 . S
C3827 C3826 1.369 . S
C3827 C3828 1.410 1_554 S
C3827 C3835 1.503 . S
C3828 C3827 1.410 1_556 S
C3828 C3829 1.392 . S
C3828 C3831 1.511 . S
C3829 C3825 1.376 1_556 S
C3829 C3828 1.392 . S
C3829 H3841 0.929 . S
C3830 C3826 1.531 . S
C3830 H3842 0.960 . S
C3830 H3843 0.962 . S
C3830 H3844 0.960 . S
C3831 C3828 1.511 . S
C3831 H3845 0.961 1_565 S
C3831 H3846 0.961 1_565 S
C3831 H3847 0.961 . S
C3832 C3833 1.370 . S
C3832 C3834 1.363 . S
C3832 H3848 0.931 . S
C3833 C3832 1.370 . S
C3833 C3837 1.408 1_545 S
C3834 C3832 1.363 . S
C3834 C3835 1.370 1_545 S
C3834 C3838 1.524 . S
C3835 C3827 1.503 . S
C3835 C3834 1.370 1_565 S
C3835 C3836 1.404 . S
C3836 C3835 1.404 . S
C3836 C3837 1.404 . S
C3836 C3839 1.538 1_554 S
C3837 C3833 1.408 1_565 S
C3837 C3836 1.404 . S
C3837 H3849 0.930 1_554 S
C3838 C3834 1.524 . S
C3838 H3850 0.956 . S
C3838 H3851 0.961 . S
C3838 H3852 0.961 . S
C3839 C3836 1.538 1_556 S
C3839 H3853 0.958 . S
C3839 H3854 0.961 . S
C3839 H3855 0.960 . S
H3840 C3824 0.931 . S
H3841 C3829 0.929 . S
H3842 C3830 0.960 . S
H3843 C3830 0.962 . S
H3844 C3830 0.960 . S
H3845 C3831 0.961 1_545 S
H3846 C3831 0.961 1_545 S
H3847 C3831 0.961 . S
H3848 C3832 0.931 . S
H3849 C3837 0.930 1_556 S
H3850 C3838 0.956 . S
H3851 C3838 0.961 . S
H3852 C3838 0.961 . S
H3853 C3839 0.958 . S
H3854 C3839 0.961 . S
H3855 C3839 0.960 . S
C3856 C3857 1.391 . S
C3856 C3858 1.394 . S
C3856 H3872 0.931 . S
C3857 C3856 1.391 . S
C3857 C3861 1.376 . S
C3858 C3856 1.394 . S
C3858 C3859 1.369 . S
C3858 C3862 1.531 . S
C3859 C3858 1.369 . S
C3859 C3860 1.410 . S
C3859 C3867 1.503 . S
C3860 C3859 1.410 . S
C3860 C3861 1.392 . S
C3860 C3863 1.511 . S
C3861 C3857 1.376 . S
C3861 C3860 1.392 . S
C3861 H3873 0.929 . S
C3862 C3858 1.531 . S
C3862 H3874 0.960 . S
C3862 H3875 0.962 . S
C3862 H3876 0.960 . S
C3863 C3860 1.511 . S
C3863 H3877 0.961 . S
C3863 H3878 0.961 . S
C3863 H3879 0.961 . S
C3864 C3865 1.370 . S
C3864 C3866 1.363 . S
C3864 H3880 0.931 . S
C3865 C3864 1.370 . S
C3865 C3869 1.408 . S
C3866 C3864 1.363 . S
C3866 C3867 1.370 . S
C3866 C3870 1.524 . S
C3867 C3859 1.503 . S
C3867 C3866 1.370 . S
C3867 C3868 1.403 . S
C3868 C3867 1.403 . S
C3868 C3869 1.404 . S
C3868 C3871 1.539 . S
C3869 C3865 1.408 . S
C3869 C3868 1.404 . S
C3869 H3881 0.930 . S
C3870 C3866 1.524 . S
C3870 H3882 0.956 . S
C3870 H3883 0.961 . S
C3870 H3884 0.961 . S
C3871 C3868 1.539 . S
C3871 H3885 0.958 . S
C3871 H3886 0.961 . S
C3871 H3887 0.960 . S
H3872 C3856 0.931 . S
H3873 C3861 0.929 . S
H3874 C3862 0.960 . S
H3875 C3862 0.962 . S
H3876 C3862 0.960 . S
H3877 C3863 0.961 . S
H3878 C3863 0.961 . S
H3879 C3863 0.961 . S
H3880 C3864 0.931 . S
H3881 C3869 0.930 . S
H3882 C3870 0.956 . S
H3883 C3870 0.961 . S
H3884 C3870 0.961 . S
H3885 C3871 0.958 . S
H3886 C3871 0.961 . S
H3887 C3871 0.960 . S
C3888 C3889 1.391 . S
C3888 C3890 1.394 . S
C3888 H3904 0.931 . S
C3889 C3888 1.391 . S
C3889 C3893 1.380 . S
C3890 C3888 1.394 . S
C3890 C3891 1.369 . S
C3890 C3894 1.531 . S
C3891 C3890 1.369 . S
C3891 C3892 1.410 . S
C3891 C3899 1.503 . S
C3892 C3891 1.410 . S
C3892 C3893 1.393 . S
C3892 C3895 1.511 1_554 S
C3893 C3889 1.380 . S
C3893 C3892 1.393 . S
C3893 H3905 0.923 1_554 S
C3894 C3890 1.531 . S
C3894 H3906 0.960 . S
C3894 H3907 0.962 . S
C3894 H3908 0.960 . S
C3895 C3892 1.511 1_556 S
C3895 H3909 0.961 . S
C3895 H3910 0.961 . S
C3895 H3911 0.961 . S
C3896 C3897 1.370 . S
C3896 C3898 1.363 . S
C3896 H3912 0.931 . S
C3897 C3896 1.370 . S
C3897 C3901 1.408 . S
C3898 C3896 1.363 . S
C3898 C3899 1.370 . S
C3898 C3902 1.524 . S
C3899 C3891 1.503 . S
C3899 C3898 1.370 . S
C3899 C3900 1.403 . S
C3900 C3899 1.403 . S
C3900 C3901 1.404 . S
C3900 C3903 1.539 . S
C3901 C3897 1.408 . S
C3901 C3900 1.404 . S
C3901 H3913 0.930 . S
C3902 C3898 1.524 . S
C3902 H3914 0.956 . S
C3902 H3915 0.961 . S
C3902 H3916 0.961 . S
C3903 C3900 1.539 . S
C3903 H3917 0.958 . S
C3903 H3918 0.961 . S
C3903 H3919 0.960 . S
H3904 C3888 0.931 . S
H3905 C3893 0.923 1_556 S
H3906 C3894 0.960 . S
H3907 C3894 0.962 . S
H3908 C3894 0.960 . S
H3909 C3895 0.961 . S
H3910 C3895 0.961 . S
H3911 C3895 0.961 . S
H3912 C3896 0.931 . S
H3913 C3901 0.930 . S
H3914 C3902 0.956 . S
H3915 C3902 0.961 . S
H3916 C3902 0.961 . S
H3917 C3903 0.958 . S
H3918 C3903 0.961 . S
H3919 C3903 0.960 . S
C3920 C3921 1.391 . S
C3920 C3922 1.394 . S
C3920 H3936 0.931 . S
C3921 C3920 1.391 . S
C3921 C3925 1.376 . S
C3922 C3920 1.394 . S
C3922 C3923 1.369 . S
C3922 C3926 1.531 . S
C3923 C3922 1.369 . S
C3923 C3924 1.410 . S
C3923 C3931 1.503 . S
C3924 C3923 1.410 . S
C3924 C3925 1.392 . S
C3924 C3927 1.511 . S
C3925 C3921 1.376 . S
C3925 C3924 1.392 . S
C3925 H3937 0.929 . S
C3926 C3922 1.531 . S
C3926 H3938 0.960 . S
C3926 H3939 0.962 . S
C3926 H3940 0.960 . S
C3927 C3924 1.511 . S
C3927 H3941 0.961 . S
C3927 H3942 0.961 . S
C3927 H3943 0.961 . S
C3928 C3929 1.370 . S
C3928 C3930 1.363 . S
C3928 H3944 0.931 . S
C3929 C3928 1.370 . S
C3929 C3933 1.408 . S
C3930 C3928 1.363 . S
C3930 C3931 1.370 . S
C3930 C3934 1.524 . S
C3931 C3923 1.503 . S
C3931 C3930 1.370 . S
C3931 C3932 1.403 . S
C3932 C3931 1.403 . S
C3932 C3933 1.404 . S
C3932 C3935 1.539 . S
C3933 C3929 1.408 . S
C3933 C3932 1.404 . S
C3933 H3945 0.930 . S
C3934 C3930 1.524 . S
C3934 H3946 0.956 . S
C3934 H3947 0.961 . S
C3934 H3948 0.961 . S
C3935 C3932 1.539 . S
C3935 H3949 0.958 . S
C3935 H3950 0.961 . S
C3935 H3951 0.960 . S
H3936 C3920 0.931 . S
H3937 C3925 0.929 . S
H3938 C3926 0.960 . S
H3939 C3926 0.962 . S
H3940 C3926 0.960 . S
H3941 C3927 0.961 . S
H3942 C3927 0.961 . S
H3943 C3927 0.961 . S
H3944 C3928 0.931 . S
H3945 C3933 0.930 . S
H3946 C3934 0.956 . S
H3947 C3934 0.961 . S
H3948 C3934 0.961 . S
H3949 C3935 0.958 . S
H3950 C3935 0.961 . S
H3951 C3935 0.960 . S
C3952 C3953 1.391 . S
C3952 C3954 1.394 . S
C3952 H3968 0.931 . S
C3953 C3952 1.391 . S
C3953 C3957 1.376 . S
C3954 C3952 1.394 . S
C3954 C3955 1.369 . S
C3954 C3958 1.531 . S
C3955 C3954 1.369 . S
C3955 C3956 1.410 . S
C3955 C3963 1.503 . S
C3956 C3955 1.410 . S
C3956 C3957 1.392 . S
C3956 C3959 1.511 . S
C3957 C3953 1.376 . S
C3957 C3956 1.392 . S
C3957 H3969 0.929 . S
C3958 C3954 1.531 . S
C3958 H3970 0.960 . S
C3958 H3971 0.962 . S
C3958 H3972 0.960 . S
C3959 C3956 1.511 . S
C3959 H3973 0.961 . S
C3959 H3974 0.961 . S
C3959 H3975 0.961 . S
C3960 C3961 1.370 . S
C3960 C3962 1.363 . S
C3960 H3976 0.931 . S
C3961 C3960 1.370 . S
C3961 C3965 1.408 . S
C3962 C3960 1.363 . S
C3962 C3963 1.370 . S
C3962 C3966 1.524 . S
C3963 C3955 1.503 . S
C3963 C3962 1.370 . S
C3963 C3964 1.403 . S
C3964 C3963 1.403 . S
C3964 C3965 1.404 . S
C3964 C3967 1.539 . S
C3965 C3961 1.408 . S
C3965 C3964 1.404 . S
C3965 H3977 0.930 . S
C3966 C3962 1.524 . S
C3966 H3978 0.956 . S
C3966 H3979 0.961 . S
C3966 H3980 0.961 . S
C3967 C3964 1.539 . S
C3967 H3981 0.958 . S
C3967 H3982 0.961 . S
C3967 H3983 0.960 . S
H3968 C3952 0.931 . S
H3969 C3957 0.929 . S
H3970 C3958 0.960 . S
H3971 C3958 0.962 . S
H3972 C3958 0.960 . S
H3973 C3959 0.961 . S
H3974 C3959 0.961 . S
H3975 C3959 0.961 . S
H3976 C3960 0.931 . S
H3977 C3965 0.930 . S
H3978 C3966 0.956 . S
H3979 C3966 0.961 . S
H3980 C3966 0.961 . S
H3981 C3967 0.958 . S
H3982 C3967 0.961 . S
H3983 C3967 0.960 . S
C3984 C3985 1.391 . S
C3984 C3986 1.394 . S
C3984 H4000 0.931 . S
C3985 C3984 1.391 . S
C3985 C3989 1.376 . S
C3986 C3984 1.394 . S
C3986 C3987 1.369 . S
C3986 C3990 1.531 . S
C3987 C3986 1.369 . S
C3987 C3988 1.410 . S
C3987 C3995 1.503 . S
C3988 C3987 1.410 . S
C3988 C3989 1.392 . S
C3988 C3991 1.511 . S
C3989 C3985 1.376 . S
C3989 C3988 1.392 . S
C3989 H4001 0.929 . S
C3990 C3986 1.531 . S
C3990 H4002 0.960 . S
C3990 H4003 0.962 . S
C3990 H4004 0.960 . S
C3991 C3988 1.511 . S
C3991 H4005 0.961 . S
C3991 H4006 0.961 . S
C3991 H4007 0.961 . S
C3992 C3993 1.370 . S
C3992 C3994 1.363 . S
C3992 H4008 0.931 . S
C3993 C3992 1.370 . S
C3993 C3997 1.408 . S
C3994 C3992 1.363 . S
C3994 C3995 1.370 . S
C3994 C3998 1.524 . S
C3995 C3987 1.503 . S
C3995 C3994 1.370 . S
C3995 C3996 1.403 . S
C3996 C3995 1.403 . S
C3996 C3997 1.404 . S
C3996 C3999 1.539 . S
C3997 C3993 1.408 . S
C3997 C3996 1.404 . S
C3997 H4009 0.930 . S
C3998 C3994 1.524 . S
C3998 H4010 0.956 . S
C3998 H4011 0.961 . S
C3998 H4012 0.961 . S
C3999 C3996 1.539 . S
C3999 H4013 0.958 . S
C3999 H4014 0.961 . S
C3999 H4015 0.960 . S
H4000 C3984 0.931 . S
H4001 C3989 0.929 . S
H4002 C3990 0.960 . S
H4003 C3990 0.962 . S
H4004 C3990 0.960 . S
H4005 C3991 0.961 . S
H4006 C3991 0.961 . S
H4007 C3991 0.961 . S
H4008 C3992 0.931 . S
H4009 C3997 0.930 . S
H4010 C3998 0.956 . S
H4011 C3998 0.961 . S
H4012 C3998 0.961 . S
H4013 C3999 0.958 . S
H4014 C3999 0.961 . S
H4015 C3999 0.960 . S
C4016 C4017 1.391 . S
C4016 C4018 1.394 . S
C4016 H4032 0.931 . S
C4017 C4016 1.391 . S
C4017 C4021 1.376 . S
C4018 C4016 1.394 . S
C4018 C4019 1.369 . S
C4018 C4022 1.531 . S
C4019 C4018 1.369 . S
C4019 C4020 1.410 . S
C4019 C4027 1.503 . S
C4020 C4019 1.410 . S
C4020 C4021 1.392 . S
C4020 C4023 1.511 . S
C4021 C4017 1.376 . S
C4021 C4020 1.392 . S
C4021 H4033 0.929 . S
C4022 C4018 1.531 . S
C4022 H4034 0.960 . S
C4022 H4035 0.962 . S
C4022 H4036 0.960 . S
C4023 C4020 1.511 . S
C4023 H4037 0.961 . S
C4023 H4038 0.961 . S
C4023 H4039 0.961 . S
C4024 C4025 1.370 . S
C4024 C4026 1.363 . S
C4024 H4040 0.931 . S
C4025 C4024 1.370 . S
C4025 C4029 1.408 . S
C4026 C4024 1.363 . S
C4026 C4027 1.370 . S
C4026 C4030 1.524 . S
C4027 C4019 1.503 . S
C4027 C4026 1.370 . S
C4027 C4028 1.403 . S
C4028 C4027 1.403 . S
C4028 C4029 1.404 . S
C4028 C4031 1.539 . S
C4029 C4025 1.408 . S
C4029 C4028 1.404 . S
C4029 H4041 0.930 . S
C4030 C4026 1.524 . S
C4030 H4042 0.956 . S
C4030 H4043 0.961 . S
C4030 H4044 0.961 . S
C4031 C4028 1.539 . S
C4031 H4045 0.958 . S
C4031 H4046 0.961 . S
C4031 H4047 0.960 . S
H4032 C4016 0.931 . S
H4033 C4021 0.929 . S
H4034 C4022 0.960 . S
H4035 C4022 0.962 . S
H4036 C4022 0.960 . S
H4037 C4023 0.961 . S
H4038 C4023 0.961 . S
H4039 C4023 0.961 . S
H4040 C4024 0.931 . S
H4041 C4029 0.930 . S
H4042 C4030 0.956 . S
H4043 C4030 0.961 . S
H4044 C4030 0.961 . S
H4045 C4031 0.958 . S
H4046 C4031 0.961 . S
H4047 C4031 0.960 . S
C4048 C4049 1.391 . S
C4048 C4050 1.394 . S
C4048 H4064 0.931 . S
C4049 C4048 1.391 . S
C4049 C4053 1.376 . S
C4050 C4048 1.394 . S
C4050 C4051 1.369 . S
C4050 C4054 1.531 . S
C4051 C4050 1.369 . S
C4051 C4052 1.410 . S
C4051 C4059 1.503 . S
C4052 C4051 1.410 . S
C4052 C4053 1.392 . S
C4052 C4055 1.511 . S
C4053 C4049 1.376 . S
C4053 C4052 1.392 . S
C4053 H4065 0.929 . S
C4054 C4050 1.531 . S
C4054 H4066 0.960 . S
C4054 H4067 0.962 . S
C4054 H4068 0.960 . S
C4055 C4052 1.511 . S
C4055 H4069 0.961 . S
C4055 H4070 0.961 . S
C4055 H4071 0.961 1_455 S
C4056 C4057 1.370 . S
C4056 C4058 1.363 . S
C4056 H4072 0.931 . S
C4057 C4056 1.370 . S
C4057 C4061 1.408 . S
C4058 C4056 1.363 . S
C4058 C4059 1.370 . S
C4058 C4062 1.524 . S
C4059 C4051 1.503 . S
C4059 C4058 1.370 . S
C4059 C4060 1.403 . S
C4060 C4059 1.403 . S
C4060 C4061 1.404 . S
C4060 C4063 1.539 . S
C4061 C4057 1.408 . S
C4061 C4060 1.404 . S
C4061 H4073 0.930 . S
C4062 C4058 1.524 . S
C4062 H4074 0.956 . S
C4062 H4075 0.961 . S
C4062 H4076 0.961 . S
C4063 C4060 1.539 . S
C4063 H4077 0.958 . S
C4063 H4078 0.961 1_455 S
C4063 H4079 0.960 . S
H4064 C4048 0.931 . S
H4065 C4053 0.929 . S
H4066 C4054 0.960 . S
H4067 C4054 0.962 . S
H4068 C4054 0.960 . S
H4069 C4055 0.961 . S
H4070 C4055 0.961 . S
H4071 C4055 0.961 1_655 S
H4072 C4056 0.931 . S
H4073 C4061 0.930 . S
H4074 C4062 0.956 . S
H4075 C4062 0.961 . S
H4076 C4062 0.961 . S
H4077 C4063 0.958 . S
H4078 C4063 0.961 1_655 S
H4079 C4063 0.960 . S
C4080 C4081 1.391 . S
C4080 C4082 1.394 . S
C4080 H4096 0.931 . S
C4081 C4080 1.391 . S
C4081 C4085 1.376 . S
C4082 C4080 1.394 . S
C4082 C4083 1.369 . S
C4082 C4086 1.531 . S
C4083 C4082 1.369 . S
C4083 C4084 1.410 . S
C4083 C4091 1.503 . S
C4084 C4083 1.410 . S
C4084 C4085 1.392 . S
C4084 C4087 1.511 . S
C4085 C4081 1.376 . S
C4085 C4084 1.392 . S
C4085 H4097 0.929 . S
C4086 C4082 1.531 . S
C4086 H4098 0.960 . S
C4086 H4099 0.962 . S
C4086 H4100 0.960 . S
C4087 C4084 1.511 . S
C4087 H4101 0.961 . S
C4087 H4102 0.961 . S
C4087 H4103 0.961 . S
C4088 C4089 1.370 . S
C4088 C4090 1.363 . S
C4088 H4104 0.931 . S
C4089 C4088 1.370 . S
C4089 C4093 1.408 . S
C4090 C4088 1.363 . S
C4090 C4091 1.370 . S
C4090 C4094 1.524 . S
C4091 C4083 1.503 . S
C4091 C4090 1.370 . S
C4091 C4092 1.403 . S
C4092 C4091 1.403 . S
C4092 C4093 1.404 . S
C4092 C4095 1.539 . S
C4093 C4089 1.408 . S
C4093 C4092 1.404 . S
C4093 H4105 0.930 . S
C4094 C4090 1.524 . S
C4094 H4106 0.956 . S
C4094 H4107 0.961 . S
C4094 H4108 0.961 . S
C4095 C4092 1.539 . S
C4095 H4109 0.958 . S
C4095 H4110 0.961 . S
C4095 H4111 0.960 . S
H4096 C4080 0.931 . S
H4097 C4085 0.929 . S
H4098 C4086 0.960 . S
H4099 C4086 0.962 . S
H4100 C4086 0.960 . S
H4101 C4087 0.961 . S
H4102 C4087 0.961 . S
H4103 C4087 0.961 . S
H4104 C4088 0.931 . S
H4105 C4093 0.930 . S
H4106 C4094 0.956 . S
H4107 C4094 0.961 . S
H4108 C4094 0.961 . S
H4109 C4095 0.958 . S
H4110 C4095 0.961 . S
H4111 C4095 0.960 . S
C4112 C4113 1.391 . S
C4112 C4114 1.394 . S
C4112 H4128 0.931 . S
C4113 C4112 1.391 . S
C4113 C4117 1.376 . S
C4114 C4112 1.394 . S
C4114 C4115 1.369 . S
C4114 C4118 1.531 . S
C4115 C4114 1.369 . S
C4115 C4116 1.410 . S
C4115 C4123 1.503 . S
C4116 C4115 1.410 . S
C4116 C4117 1.392 . S
C4116 C4119 1.511 . S
C4117 C4113 1.376 . S
C4117 C4116 1.392 . S
C4117 H4129 0.929 . S
C4118 C4114 1.531 . S
C4118 H4130 0.960 . S
C4118 H4131 0.962 . S
C4118 H4132 0.960 . S
C4119 C4116 1.511 . S
C4119 H4133 0.961 . S
C4119 H4134 0.961 . S
C4119 H4135 0.961 . S
C4120 C4121 1.370 . S
C4120 C4122 1.363 . S
C4120 H4136 0.931 . S
C4121 C4120 1.370 . S
C4121 C4125 1.408 . S
C4122 C4120 1.363 . S
C4122 C4123 1.370 . S
C4122 C4126 1.524 . S
C4123 C4115 1.503 . S
C4123 C4122 1.370 . S
C4123 C4124 1.403 . S
C4124 C4123 1.403 . S
C4124 C4125 1.404 . S
C4124 C4127 1.539 . S
C4125 C4121 1.408 . S
C4125 C4124 1.404 . S
C4125 H4137 0.930 . S
C4126 C4122 1.524 . S
C4126 H4138 0.956 . S
C4126 H4139 0.961 . S
C4126 H4140 0.961 . S
C4127 C4124 1.539 . S
C4127 H4141 0.958 . S
C4127 H4142 0.961 . S
C4127 H4143 0.960 . S
H4128 C4112 0.931 . S
H4129 C4117 0.929 . S
H4130 C4118 0.960 . S
H4131 C4118 0.962 . S
H4132 C4118 0.960 . S
H4133 C4119 0.961 . S
H4134 C4119 0.961 . S
H4135 C4119 0.961 . S
H4136 C4120 0.931 . S
H4137 C4125 0.930 . S
H4138 C4126 0.956 . S
H4139 C4126 0.961 . S
H4140 C4126 0.961 . S
H4141 C4127 0.958 . S
H4142 C4127 0.961 . S
H4143 C4127 0.960 . S
C4144 C4145 1.391 . S
C4144 C4146 1.394 . S
C4144 H4160 0.931 . S
C4145 C4144 1.391 . S
C4145 C4149 1.376 . S
C4146 C4144 1.394 . S
C4146 C4147 1.369 . S
C4146 C4150 1.531 . S
C4147 C4146 1.369 . S
C4147 C4148 1.410 . S
C4147 C4155 1.503 . S
C4148 C4147 1.410 . S
C4148 C4149 1.392 . S
C4148 C4151 1.511 . S
C4149 C4145 1.376 . S
C4149 C4148 1.392 . S
C4149 H4161 0.929 . S
C4150 C4146 1.531 . S
C4150 H4162 0.960 . S
C4150 H4163 0.962 . S
C4150 H4164 0.960 . S
C4151 C4148 1.511 . S
C4151 H4165 0.961 . S
C4151 H4166 0.961 . S
C4151 H4167 0.961 . S
C4152 C4153 1.370 . S
C4152 C4154 1.363 . S
C4152 H4168 0.931 . S
C4153 C4152 1.370 . S
C4153 C4157 1.408 . S
C4154 C4152 1.363 . S
C4154 C4155 1.370 . S
C4154 C4158 1.524 . S
C4155 C4147 1.503 . S
C4155 C4154 1.370 . S
C4155 C4156 1.403 . S
C4156 C4155 1.403 . S
C4156 C4157 1.404 . S
C4156 C4159 1.539 . S
C4157 C4153 1.408 . S
C4157 C4156 1.404 . S
C4157 H4169 0.930 . S
C4158 C4154 1.524 . S
C4158 H4170 0.956 . S
C4158 H4171 0.961 . S
C4158 H4172 0.961 . S
C4159 C4156 1.539 . S
C4159 H4173 0.958 . S
C4159 H4174 0.961 . S
C4159 H4175 0.960 . S
H4160 C4144 0.931 . S
H4161 C4149 0.929 . S
H4162 C4150 0.960 . S
H4163 C4150 0.962 . S
H4164 C4150 0.960 . S
H4165 C4151 0.961 . S
H4166 C4151 0.961 . S
H4167 C4151 0.961 . S
H4168 C4152 0.931 . S
H4169 C4157 0.930 . S
H4170 C4158 0.956 . S
H4171 C4158 0.961 . S
H4172 C4158 0.961 . S
H4173 C4159 0.958 . S
H4174 C4159 0.961 . S
H4175 C4159 0.960 . S
C4176 C4177 1.391 . S
C4176 C4178 1.394 . S
C4176 H4192 0.931 . S
C4177 C4176 1.391 . S
C4177 C4181 1.376 . S
C4178 C4176 1.394 . S
C4178 C4179 1.369 . S
C4178 C4182 1.531 . S
C4179 C4178 1.369 . S
C4179 C4180 1.410 . S
C4179 C4187 1.503 . S
C4180 C4179 1.410 . S
C4180 C4181 1.392 . S
C4180 C4183 1.511 . S
C4181 C4177 1.376 . S
C4181 C4180 1.392 . S
C4181 H4193 0.929 . S
C4182 C4178 1.531 . S
C4182 H4194 0.960 . S
C4182 H4195 0.962 . S
C4182 H4196 0.960 . S
C4183 C4180 1.511 . S
C4183 H4197 0.961 . S
C4183 H4198 0.961 . S
C4183 H4199 0.961 . S
C4184 C4185 1.370 . S
C4184 C4186 1.363 . S
C4184 H4200 0.931 . S
C4185 C4184 1.370 . S
C4185 C4189 1.408 . S
C4186 C4184 1.363 . S
C4186 C4187 1.370 . S
C4186 C4190 1.524 . S
C4187 C4179 1.503 . S
C4187 C4186 1.370 . S
C4187 C4188 1.403 . S
C4188 C4187 1.403 . S
C4188 C4189 1.404 . S
C4188 C4191 1.539 1_455 S
C4189 C4185 1.408 . S
C4189 C4188 1.404 . S
C4189 H4201 0.930 . S
C4190 C4186 1.524 . S
C4190 H4202 0.956 . S
C4190 H4203 0.961 . S
C4190 H4204 0.961 . S
C4191 C4188 1.539 1_655 S
C4191 H4205 0.958 . S
C4191 H4206 0.961 . S
C4191 H4207 0.960 . S
H4192 C4176 0.931 . S
H4193 C4181 0.929 . S
H4194 C4182 0.960 . S
H4195 C4182 0.962 . S
H4196 C4182 0.960 . S
H4197 C4183 0.961 . S
H4198 C4183 0.961 . S
H4199 C4183 0.961 . S
H4200 C4184 0.931 . S
H4201 C4189 0.930 . S
H4202 C4190 0.956 . S
H4203 C4190 0.961 . S
H4204 C4190 0.961 . S
H4205 C4191 0.958 . S
H4206 C4191 0.961 . S
H4207 C4191 0.960 . S
C4208 C4209 1.391 . S
C4208 C4210 1.394 . S
C4208 H4224 0.931 . S
C4209 C4208 1.391 . S
C4209 C4213 1.376 . S
C4210 C4208 1.394 . S
C4210 C4211 1.369 . S
C4210 C4214 1.531 . S
C4211 C4210 1.369 . S
C4211 C4212 1.410 . S
C4211 C4219 1.503 . S
C4212 C4211 1.410 . S
C4212 C4213 1.392 . S
C4212 C4215 1.511 . S
C4213 C4209 1.376 . S
C4213 C4212 1.392 . S
C4213 H4225 0.929 . S
C4214 C4210 1.531 . S
C4214 H4226 0.960 . S
C4214 H4227 0.962 . S
C4214 H4228 0.960 . S
C4215 C4212 1.511 . S
C4215 H4229 0.961 . S
C4215 H4230 0.961 . S
C4215 H4231 0.961 . S
C4216 C4217 1.370 . S
C4216 C4218 1.363 . S
C4216 H4232 0.931 . S
C4217 C4216 1.370 . S
C4217 C4221 1.408 . S
C4218 C4216 1.363 . S
C4218 C4219 1.370 . S
C4218 C4222 1.524 . S
C4219 C4211 1.503 . S
C4219 C4218 1.370 . S
C4219 C4220 1.403 . S
C4220 C4219 1.403 . S
C4220 C4221 1.404 . S
C4220 C4223 1.539 . S
C4221 C4217 1.408 . S
C4221 C4220 1.404 . S
C4221 H4233 0.930 . S
C4222 C4218 1.524 . S
C4222 H4234 0.956 . S
C4222 H4235 0.961 . S
C4222 H4236 0.961 . S
C4223 C4220 1.539 . S
C4223 H4237 0.958 . S
C4223 H4238 0.961 . S
C4223 H4239 0.960 . S
H4224 C4208 0.931 . S
H4225 C4213 0.929 . S
H4226 C4214 0.960 . S
H4227 C4214 0.962 . S
H4228 C4214 0.960 . S
H4229 C4215 0.961 . S
H4230 C4215 0.961 . S
H4231 C4215 0.961 . S
H4232 C4216 0.931 . S
H4233 C4221 0.930 . S
H4234 C4222 0.956 . S
H4235 C4222 0.961 . S
H4236 C4222 0.961 . S
H4237 C4223 0.958 . S
H4238 C4223 0.961 . S
H4239 C4223 0.960 . S
C4240 C4241 1.391 . S
C4240 C4242 1.394 . S
C4240 H4256 0.931 . S
C4241 C4240 1.391 . S
C4241 C4245 1.376 . S
C4242 C4240 1.394 . S
C4242 C4243 1.369 . S
C4242 C4246 1.531 . S
C4243 C4242 1.369 . S
C4243 C4244 1.410 . S
C4243 C4251 1.503 . S
C4244 C4243 1.410 . S
C4244 C4245 1.392 . S
C4244 C4247 1.511 . S
C4245 C4241 1.376 . S
C4245 C4244 1.392 . S
C4245 H4257 0.929 . S
C4246 C4242 1.531 . S
C4246 H4258 0.960 . S
C4246 H4259 0.962 . S
C4246 H4260 0.960 . S
C4247 C4244 1.511 . S
C4247 H4261 0.961 . S
C4247 H4262 0.961 . S
C4247 H4263 0.961 . S
C4248 C4249 1.370 . S
C4248 C4250 1.363 . S
C4248 H4264 0.931 . S
C4249 C4248 1.370 . S
C4249 C4253 1.408 . S
C4250 C4248 1.363 . S
C4250 C4251 1.370 . S
C4250 C4254 1.524 . S
C4251 C4243 1.503 . S
C4251 C4250 1.370 . S
C4251 C4252 1.403 . S
C4252 C4251 1.403 . S
C4252 C4253 1.404 . S
C4252 C4255 1.539 . S
C4253 C4249 1.408 . S
C4253 C4252 1.404 . S
C4253 H4265 0.930 . S
C4254 C4250 1.524 . S
C4254 H4266 0.956 . S
C4254 H4267 0.961 . S
C4254 H4268 0.961 . S
C4255 C4252 1.539 . S
C4255 H4269 0.958 . S
C4255 H4270 0.961 . S
C4255 H4271 0.960 . S
H4256 C4240 0.931 . S
H4257 C4245 0.929 . S
H4258 C4246 0.960 . S
H4259 C4246 0.962 . S
H4260 C4246 0.960 . S
H4261 C4247 0.961 . S
H4262 C4247 0.961 . S
H4263 C4247 0.961 . S
H4264 C4248 0.931 . S
H4265 C4253 0.930 . S
H4266 C4254 0.956 . S
H4267 C4254 0.961 . S
H4268 C4254 0.961 . S
H4269 C4255 0.958 . S
H4270 C4255 0.961 . S
H4271 C4255 0.960 . S
C4272 C4273 1.391 . S
C4272 C4274 1.394 . S
C4272 H4288 0.931 . S
C4273 C4272 1.391 . S
C4273 C4277 1.376 . S
C4274 C4272 1.394 . S
C4274 C4275 1.369 . S
C4274 C4278 1.531 . S
C4275 C4274 1.369 . S
C4275 C4276 1.410 . S
C4275 C4283 1.503 . S
C4276 C4275 1.410 . S
C4276 C4277 1.392 . S
C4276 C4279 1.511 . S
C4277 C4273 1.376 . S
C4277 C4276 1.392 . S
C4277 H4289 0.929 . S
C4278 C4274 1.531 . S
C4278 H4290 0.960 . S
C4278 H4291 0.962 . S
C4278 H4292 0.960 . S
C4279 C4276 1.511 . S
C4279 H4293 0.961 . S
C4279 H4294 0.961 . S
C4279 H4295 0.961 . S
C4280 C4281 1.370 . S
C4280 C4282 1.363 . S
C4280 H4296 0.931 . S
C4281 C4280 1.370 . S
C4281 C4285 1.408 . S
C4282 C4280 1.363 . S
C4282 C4283 1.370 . S
C4282 C4286 1.524 . S
C4283 C4275 1.503 . S
C4283 C4282 1.370 . S
C4283 C4284 1.403 . S
C4284 C4283 1.403 . S
C4284 C4285 1.404 . S
C4284 C4287 1.539 . S
C4285 C4281 1.408 . S
C4285 C4284 1.404 . S
C4285 H4297 0.930 . S
C4286 C4282 1.524 . S
C4286 H4298 0.956 . S
C4286 H4299 0.961 . S
C4286 H4300 0.961 . S
C4287 C4284 1.539 . S
C4287 H4301 0.958 . S
C4287 H4302 0.961 . S
C4287 H4303 0.960 . S
H4288 C4272 0.931 . S
H4289 C4277 0.929 . S
H4290 C4278 0.960 . S
H4291 C4278 0.962 . S
H4292 C4278 0.960 . S
H4293 C4279 0.961 . S
H4294 C4279 0.961 . S
H4295 C4279 0.961 . S
H4296 C4280 0.931 . S
H4297 C4285 0.930 . S
H4298 C4286 0.956 . S
H4299 C4286 0.961 . S
H4300 C4286 0.961 . S
H4301 C4287 0.958 . S
H4302 C4287 0.961 . S
H4303 C4287 0.960 . S
C4304 C4305 1.391 . S
C4304 C4306 1.394 . S
C4304 H4320 0.931 . S
C4305 C4304 1.391 . S
C4305 C4309 1.376 . S
C4306 C4304 1.394 . S
C4306 C4307 1.369 . S
C4306 C4310 1.531 . S
C4307 C4306 1.369 . S
C4307 C4308 1.410 . S
C4307 C4315 1.503 . S
C4308 C4307 1.410 . S
C4308 C4309 1.392 . S
C4308 C4311 1.511 . S
C4309 C4305 1.376 . S
C4309 C4308 1.392 . S
C4309 H4321 0.929 . S
C4310 C4306 1.531 . S
C4310 H4322 0.960 . S
C4310 H4323 0.962 . S
C4310 H4324 0.960 . S
C4311 C4308 1.511 . S
C4311 H4325 0.961 . S
C4311 H4326 0.961 . S
C4311 H4327 0.961 . S
C4312 C4313 1.370 . S
C4312 C4314 1.363 . S
C4312 H4328 0.931 . S
C4313 C4312 1.370 . S
C4313 C4317 1.408 . S
C4314 C4312 1.363 . S
C4314 C4315 1.370 . S
C4314 C4318 1.524 . S
C4315 C4307 1.503 . S
C4315 C4314 1.370 . S
C4315 C4316 1.403 . S
C4316 C4315 1.403 . S
C4316 C4317 1.404 . S
C4316 C4319 1.539 . S
C4317 C4313 1.408 . S
C4317 C4316 1.404 . S
C4317 H4329 0.930 . S
C4318 C4314 1.524 . S
C4318 H4330 0.956 . S
C4318 H4331 0.961 . S
C4318 H4332 0.961 . S
C4319 C4316 1.539 . S
C4319 H4333 0.958 . S
C4319 H4334 0.961 . S
C4319 H4335 0.960 . S
H4320 C4304 0.931 . S
H4321 C4309 0.929 . S
H4322 C4310 0.960 . S
H4323 C4310 0.962 . S
H4324 C4310 0.960 . S
H4325 C4311 0.961 . S
H4326 C4311 0.961 . S
H4327 C4311 0.961 . S
H4328 C4312 0.931 . S
H4329 C4317 0.930 . S
H4330 C4318 0.956 . S
H4331 C4318 0.961 . S
H4332 C4318 0.961 . S
H4333 C4319 0.958 . S
H4334 C4319 0.961 . S
H4335 C4319 0.960 . S
C4336 C4337 1.391 . S
C4336 C4338 1.394 . S
C4336 H4352 0.931 . S
C4337 C4336 1.391 . S
C4337 C4341 1.376 . S
C4338 C4336 1.394 . S
C4338 C4339 1.369 . S
C4338 C4342 1.531 . S
C4339 C4338 1.369 . S
C4339 C4340 1.410 . S
C4339 C4347 1.503 . S
C4340 C4339 1.410 . S
C4340 C4341 1.392 . S
C4340 C4343 1.511 . S
C4341 C4337 1.376 . S
C4341 C4340 1.392 . S
C4341 H4353 0.929 . S
C4342 C4338 1.531 . S
C4342 H4354 0.960 . S
C4342 H4355 0.962 . S
C4342 H4356 0.960 . S
C4343 C4340 1.511 . S
C4343 H4357 0.961 . S
C4343 H4358 0.961 . S
C4343 H4359 0.961 . S
C4344 C4345 1.370 . S
C4344 C4346 1.363 . S
C4344 H4360 0.931 . S
C4345 C4344 1.370 . S
C4345 C4349 1.408 . S
C4346 C4344 1.363 . S
C4346 C4347 1.370 . S
C4346 C4350 1.524 . S
C4347 C4339 1.503 . S
C4347 C4346 1.370 . S
C4347 C4348 1.403 . S
C4348 C4347 1.403 . S
C4348 C4349 1.404 . S
C4348 C4351 1.539 . S
C4349 C4345 1.408 . S
C4349 C4348 1.404 . S
C4349 H4361 0.930 . S
C4350 C4346 1.524 . S
C4350 H4362 0.956 . S
C4350 H4363 0.961 . S
C4350 H4364 0.961 . S
C4351 C4348 1.539 . S
C4351 H4365 0.958 . S
C4351 H4366 0.961 . S
C4351 H4367 0.960 . S
H4352 C4336 0.931 . S
H4353 C4341 0.929 . S
H4354 C4342 0.960 . S
H4355 C4342 0.962 . S
H4356 C4342 0.960 . S
H4357 C4343 0.961 . S
H4358 C4343 0.961 . S
H4359 C4343 0.961 . S
H4360 C4344 0.931 . S
H4361 C4349 0.930 . S
H4362 C4350 0.956 . S
H4363 C4350 0.961 . S
H4364 C4350 0.961 . S
H4365 C4351 0.958 . S
H4366 C4351 0.961 . S
H4367 C4351 0.960 . S
C4368 C4369 1.391 . S
C4368 C4370 1.394 . S
C4368 H4384 0.931 . S
C4369 C4368 1.391 . S
C4369 C4373 1.376 . S
C4370 C4368 1.394 . S
C4370 C4371 1.369 . S
C4370 C4374 1.531 . S
C4371 C4370 1.369 . S
C4371 C4372 1.410 . S
C4371 C4379 1.503 . S
C4372 C4371 1.410 . S
C4372 C4373 1.392 . S
C4372 C4375 1.511 . S
C4373 C4369 1.376 . S
C4373 C4372 1.392 . S
C4373 H4385 0.929 . S
C4374 C4370 1.531 . S
C4374 H4386 0.960 . S
C4374 H4387 0.962 . S
C4374 H4388 0.960 . S
C4375 C4372 1.511 . S
C4375 H4389 0.961 . S
C4375 H4390 0.961 . S
C4375 H4391 0.961 . S
C4376 C4377 1.370 . S
C4376 C4378 1.363 . S
C4376 H4392 0.931 . S
C4377 C4376 1.370 . S
C4377 C4381 1.408 . S
C4378 C4376 1.363 . S
C4378 C4379 1.370 . S
C4378 C4382 1.524 . S
C4379 C4371 1.503 . S
C4379 C4378 1.370 . S
C4379 C4380 1.403 . S
C4380 C4379 1.403 . S
C4380 C4381 1.404 . S
C4380 C4383 1.539 . S
C4381 C4377 1.408 . S
C4381 C4380 1.404 . S
C4381 H4393 0.930 . S
C4382 C4378 1.524 . S
C4382 H4394 0.956 . S
C4382 H4395 0.961 . S
C4382 H4396 0.961 . S
C4383 C4380 1.539 . S
C4383 H4397 0.958 . S
C4383 H4398 0.961 . S
C4383 H4399 0.960 . S
H4384 C4368 0.931 . S
H4385 C4373 0.929 . S
H4386 C4374 0.960 . S
H4387 C4374 0.962 . S
H4388 C4374 0.960 . S
H4389 C4375 0.961 . S
H4390 C4375 0.961 . S
H4391 C4375 0.961 . S
H4392 C4376 0.931 . S
H4393 C4381 0.930 . S
H4394 C4382 0.956 . S
H4395 C4382 0.961 . S
H4396 C4382 0.961 . S
H4397 C4383 0.958 . S
H4398 C4383 0.961 . S
H4399 C4383 0.960 . S
C4400 C4401 1.391 . S
C4400 C4402 1.394 . S
C4400 H4416 0.931 . S
C4401 C4400 1.391 . S
C4401 C4405 1.376 . S
C4402 C4400 1.394 . S
C4402 C4403 1.369 . S
C4402 C4406 1.531 . S
C4403 C4402 1.369 . S
C4403 C4404 1.410 . S
C4403 C4411 1.503 . S
C4404 C4403 1.410 . S
C4404 C4405 1.392 . S
C4404 C4407 1.511 . S
C4405 C4401 1.376 . S
C4405 C4404 1.392 . S
C4405 H4417 0.929 . S
C4406 C4402 1.531 . S
C4406 H4418 0.960 . S
C4406 H4419 0.962 . S
C4406 H4420 0.960 . S
C4407 C4404 1.511 . S
C4407 H4421 0.961 . S
C4407 H4422 0.961 . S
C4407 H4423 0.961 . S
C4408 C4409 1.370 . S
C4408 C4410 1.363 . S
C4408 H4424 0.931 . S
C4409 C4408 1.370 . S
C4409 C4413 1.408 . S
C4410 C4408 1.363 . S
C4410 C4411 1.370 . S
C4410 C4414 1.524 . S
C4411 C4403 1.503 . S
C4411 C4410 1.370 . S
C4411 C4412 1.403 . S
C4412 C4411 1.403 . S
C4412 C4413 1.404 . S
C4412 C4415 1.539 . S
C4413 C4409 1.408 . S
C4413 C4412 1.404 . S
C4413 H4425 0.930 . S
C4414 C4410 1.524 . S
C4414 H4426 0.956 . S
C4414 H4427 0.961 . S
C4414 H4428 0.961 . S
C4415 C4412 1.539 . S
C4415 H4429 0.958 . S
C4415 H4430 0.961 . S
C4415 H4431 0.960 . S
H4416 C4400 0.931 . S
H4417 C4405 0.929 . S
H4418 C4406 0.960 . S
H4419 C4406 0.962 . S
H4420 C4406 0.960 . S
H4421 C4407 0.961 . S
H4422 C4407 0.961 . S
H4423 C4407 0.961 . S
H4424 C4408 0.931 . S
H4425 C4413 0.930 . S
H4426 C4414 0.956 . S
H4427 C4414 0.961 . S
H4428 C4414 0.961 . S
H4429 C4415 0.958 . S
H4430 C4415 0.961 . S
H4431 C4415 0.960 . S
C4432 C4433 1.391 . S
C4432 C4434 1.394 . S
C4432 H4448 0.931 . S
C4433 C4432 1.391 . S
C4433 C4437 1.376 . S
C4434 C4432 1.394 . S
C4434 C4435 1.369 . S
C4434 C4438 1.531 . S
C4435 C4434 1.369 . S
C4435 C4436 1.410 . S
C4435 C4443 1.503 . S
C4436 C4435 1.410 . S
C4436 C4437 1.392 . S
C4436 C4439 1.511 . S
C4437 C4433 1.376 . S
C4437 C4436 1.392 . S
C4437 H4449 0.929 . S
C4438 C4434 1.531 . S
C4438 H4450 0.960 . S
C4438 H4451 0.962 . S
C4438 H4452 0.960 . S
C4439 C4436 1.511 . S
C4439 H4453 0.961 . S
C4439 H4454 0.961 . S
C4439 H4455 0.961 . S
C4440 C4441 1.370 . S
C4440 C4442 1.363 . S
C4440 H4456 0.931 . S
C4441 C4440 1.370 . S
C4441 C4445 1.408 . S
C4442 C4440 1.363 . S
C4442 C4443 1.370 . S
C4442 C4446 1.524 . S
C4443 C4435 1.503 . S
C4443 C4442 1.370 . S
C4443 C4444 1.403 . S
C4444 C4443 1.403 . S
C4444 C4445 1.404 . S
C4444 C4447 1.539 . S
C4445 C4441 1.408 . S
C4445 C4444 1.404 . S
C4445 H4457 0.930 . S
C4446 C4442 1.524 . S
C4446 H4458 0.956 . S
C4446 H4459 0.961 . S
C4446 H4460 0.961 . S
C4447 C4444 1.539 . S
C4447 H4461 0.958 . S
C4447 H4462 0.961 . S
C4447 H4463 0.960 . S
H4448 C4432 0.931 . S
H4449 C4437 0.929 . S
H4450 C4438 0.960 . S
H4451 C4438 0.962 . S
H4452 C4438 0.960 . S
H4453 C4439 0.961 . S
H4454 C4439 0.961 . S
H4455 C4439 0.961 . S
H4456 C4440 0.931 . S
H4457 C4445 0.930 . S
H4458 C4446 0.956 . S
H4459 C4446 0.961 . S
H4460 C4446 0.961 . S
H4461 C4447 0.958 . S
H4462 C4447 0.961 . S
H4463 C4447 0.960 . S
C4464 C4465 1.391 . S
C4464 C4466 1.394 . S
C4464 H4480 0.931 . S
C4465 C4464 1.391 . S
C4465 C4469 1.376 . S
C4466 C4464 1.394 . S
C4466 C4467 1.369 . S
C4466 C4470 1.531 . S
C4467 C4466 1.369 . S
C4467 C4468 1.410 . S
C4467 C4475 1.503 . S
C4468 C4467 1.410 . S
C4468 C4469 1.392 . S
C4468 C4471 1.511 . S
C4469 C4465 1.376 . S
C4469 C4468 1.392 . S
C4469 H4481 0.929 . S
C4470 C4466 1.531 . S
C4470 H4482 0.960 . S
C4470 H4483 0.962 . S
C4470 H4484 0.960 . S
C4471 C4468 1.511 . S
C4471 H4485 0.961 . S
C4471 H4486 0.961 . S
C4471 H4487 0.961 . S
C4472 C4473 1.370 . S
C4472 C4474 1.363 . S
C4472 H4488 0.931 . S
C4473 C4472 1.370 . S
C4473 C4477 1.408 . S
C4474 C4472 1.363 . S
C4474 C4475 1.370 . S
C4474 C4478 1.524 . S
C4475 C4467 1.503 . S
C4475 C4474 1.370 . S
C4475 C4476 1.403 . S
C4476 C4475 1.403 . S
C4476 C4477 1.404 . S
C4476 C4479 1.539 . S
C4477 C4473 1.408 . S
C4477 C4476 1.404 . S
C4477 H4489 0.930 . S
C4478 C4474 1.524 . S
C4478 H4490 0.956 . S
C4478 H4491 0.961 . S
C4478 H4492 0.961 . S
C4479 C4476 1.539 . S
C4479 H4493 0.958 . S
C4479 H4494 0.961 . S
C4479 H4495 0.960 . S
H4480 C4464 0.931 . S
H4481 C4469 0.929 . S
H4482 C4470 0.960 . S
H4483 C4470 0.962 . S
H4484 C4470 0.960 . S
H4485 C4471 0.961 . S
H4486 C4471 0.961 . S
H4487 C4471 0.961 . S
H4488 C4472 0.931 . S
H4489 C4477 0.930 . S
H4490 C4478 0.956 . S
H4491 C4478 0.961 . S
H4492 C4478 0.961 . S
H4493 C4479 0.958 . S
H4494 C4479 0.961 . S
H4495 C4479 0.960 . S
C4496 C4497 1.391 . S
C4496 C4498 1.394 . S
C4496 H4512 0.931 . S
C4497 C4496 1.391 . S
C4497 C4501 1.376 . S
C4498 C4496 1.394 . S
C4498 C4499 1.369 . S
C4498 C4502 1.531 . S
C4499 C4498 1.369 . S
C4499 C4500 1.410 . S
C4499 C4507 1.503 . S
C4500 C4499 1.410 . S
C4500 C4501 1.392 . S
C4500 C4503 1.511 . S
C4501 C4497 1.376 . S
C4501 C4500 1.392 . S
C4501 H4513 0.929 . S
C4502 C4498 1.531 . S
C4502 H4514 0.960 . S
C4502 H4515 0.962 . S
C4502 H4516 0.960 . S
C4503 C4500 1.511 . S
C4503 H4517 0.961 . S
C4503 H4518 0.961 . S
C4503 H4519 0.961 . S
C4504 C4505 1.370 . S
C4504 C4506 1.363 . S
C4504 H4520 0.931 . S
C4505 C4504 1.370 . S
C4505 C4509 1.408 . S
C4506 C4504 1.363 . S
C4506 C4507 1.370 . S
C4506 C4510 1.524 . S
C4507 C4499 1.503 . S
C4507 C4506 1.370 . S
C4507 C4508 1.403 . S
C4508 C4507 1.403 . S
C4508 C4509 1.404 . S
C4508 C4511 1.539 . S
C4509 C4505 1.408 . S
C4509 C4508 1.404 . S
C4509 H4521 0.930 . S
C4510 C4506 1.524 . S
C4510 H4522 0.956 . S
C4510 H4523 0.961 . S
C4510 H4524 0.961 . S
C4511 C4508 1.539 . S
C4511 H4525 0.958 . S
C4511 H4526 0.961 . S
C4511 H4527 0.960 . S
H4512 C4496 0.931 . S
H4513 C4501 0.929 . S
H4514 C4502 0.960 . S
H4515 C4502 0.962 . S
H4516 C4502 0.960 . S
H4517 C4503 0.961 . S
H4518 C4503 0.961 . S
H4519 C4503 0.961 . S
H4520 C4504 0.931 . S
H4521 C4509 0.930 . S
H4522 C4510 0.956 . S
H4523 C4510 0.961 . S
H4524 C4510 0.961 . S
H4525 C4511 0.958 . S
H4526 C4511 0.961 . S
H4527 C4511 0.960 . S
C4528 C4529 1.391 . S
C4528 C4530 1.394 . S
C4528 H4544 0.931 . S
C4529 C4528 1.391 . S
C4529 C4533 1.376 . S
C4530 C4528 1.394 . S
C4530 C4531 1.369 . S
C4530 C4534 1.531 . S
C4531 C4530 1.369 . S
C4531 C4532 1.410 . S
C4531 C4539 1.503 . S
C4532 C4531 1.410 . S
C4532 C4533 1.392 . S
C4532 C4535 1.511 . S
C4533 C4529 1.376 . S
C4533 C4532 1.392 . S
C4533 H4545 0.929 . S
C4534 C4530 1.531 . S
C4534 H4546 0.960 . S
C4534 H4547 0.962 . S
C4534 H4548 0.960 . S
C4535 C4532 1.511 . S
C4535 H4549 0.961 . S
C4535 H4550 0.961 . S
C4535 H4551 0.961 . S
C4536 C4537 1.370 . S
C4536 C4538 1.363 . S
C4536 H4552 0.931 . S
C4537 C4536 1.370 . S
C4537 C4541 1.408 . S
C4538 C4536 1.363 . S
C4538 C4539 1.370 . S
C4538 C4542 1.524 . S
C4539 C4531 1.503 . S
C4539 C4538 1.370 . S
C4539 C4540 1.403 . S
C4540 C4539 1.403 . S
C4540 C4541 1.404 . S
C4540 C4543 1.539 . S
C4541 C4537 1.408 . S
C4541 C4540 1.404 . S
C4541 H4553 0.930 . S
C4542 C4538 1.524 . S
C4542 H4554 0.956 . S
C4542 H4555 0.961 . S
C4542 H4556 0.961 . S
C4543 C4540 1.539 . S
C4543 H4557 0.958 . S
C4543 H4558 0.961 . S
C4543 H4559 0.960 . S
H4544 C4528 0.931 . S
H4545 C4533 0.929 . S
H4546 C4534 0.960 . S
H4547 C4534 0.962 . S
H4548 C4534 0.960 . S
H4549 C4535 0.961 . S
H4550 C4535 0.961 . S
H4551 C4535 0.961 . S
H4552 C4536 0.931 . S
H4553 C4541 0.930 . S
H4554 C4542 0.956 . S
H4555 C4542 0.961 . S
H4556 C4542 0.961 . S
H4557 C4543 0.958 . S
H4558 C4543 0.961 . S
H4559 C4543 0.960 . S
C4560 C4561 1.391 . S
C4560 C4562 1.394 . S
C4560 H4576 0.931 . S
C4561 C4560 1.391 . S
C4561 C4565 1.376 . S
C4562 C4560 1.394 . S
C4562 C4563 1.369 . S
C4562 C4566 1.531 . S
C4563 C4562 1.369 . S
C4563 C4564 1.410 . S
C4563 C4571 1.503 . S
C4564 C4563 1.410 . S
C4564 C4565 1.392 . S
C4564 C4567 1.511 . S
C4565 C4561 1.376 . S
C4565 C4564 1.392 . S
C4565 H4577 0.929 . S
C4566 C4562 1.531 . S
C4566 H4578 0.960 . S
C4566 H4579 0.962 . S
C4566 H4580 0.960 . S
C4567 C4564 1.511 . S
C4567 H4581 0.961 . S
C4567 H4582 0.961 . S
C4567 H4583 0.961 . S
C4568 C4569 1.370 . S
C4568 C4570 1.363 . S
C4568 H4584 0.931 . S
C4569 C4568 1.370 . S
C4569 C4573 1.408 . S
C4570 C4568 1.363 . S
C4570 C4571 1.370 . S
C4570 C4574 1.524 . S
C4571 C4563 1.503 . S
C4571 C4570 1.370 . S
C4571 C4572 1.403 . S
C4572 C4571 1.403 . S
C4572 C4573 1.404 . S
C4572 C4575 1.539 . S
C4573 C4569 1.408 . S
C4573 C4572 1.404 . S
C4573 H4585 0.930 . S
C4574 C4570 1.524 . S
C4574 H4586 0.956 . S
C4574 H4587 0.961 . S
C4574 H4588 0.961 . S
C4575 C4572 1.539 . S
C4575 H4589 0.958 . S
C4575 H4590 0.961 . S
C4575 H4591 0.960 . S
H4576 C4560 0.931 . S
H4577 C4565 0.929 . S
H4578 C4566 0.960 . S
H4579 C4566 0.962 . S
H4580 C4566 0.960 . S
H4581 C4567 0.961 . S
H4582 C4567 0.961 . S
H4583 C4567 0.961 . S
H4584 C4568 0.931 . S
H4585 C4573 0.930 . S
H4586 C4574 0.956 . S
H4587 C4574 0.961 . S
H4588 C4574 0.961 . S
H4589 C4575 0.958 . S
H4590 C4575 0.961 . S
H4591 C4575 0.960 . S
C4592 C4593 1.391 . S
C4592 C4594 1.394 . S
C4592 H4608 0.931 . S
C4593 C4592 1.391 . S
C4593 C4597 1.376 . S
C4594 C4592 1.394 . S
C4594 C4595 1.369 . S
C4594 C4598 1.531 . S
C4595 C4594 1.369 . S
C4595 C4596 1.410 . S
C4595 C4603 1.503 . S
C4596 C4595 1.410 . S
C4596 C4597 1.392 . S
C4596 C4599 1.511 . S
C4597 C4593 1.376 . S
C4597 C4596 1.392 . S
C4597 H4609 0.929 . S
C4598 C4594 1.531 . S
C4598 H4610 0.960 . S
C4598 H4611 0.962 . S
C4598 H4612 0.960 . S
C4599 C4596 1.511 . S
C4599 H4613 0.961 . S
C4599 H4614 0.961 . S
C4599 H4615 0.961 . S
C4600 C4601 1.370 . S
C4600 C4602 1.363 . S
C4600 H4616 0.931 . S
C4601 C4600 1.370 . S
C4601 C4605 1.408 . S
C4602 C4600 1.363 . S
C4602 C4603 1.370 . S
C4602 C4606 1.524 . S
C4603 C4595 1.503 . S
C4603 C4602 1.370 . S
C4603 C4604 1.403 . S
C4604 C4603 1.403 . S
C4604 C4605 1.404 . S
C4604 C4607 1.539 1_554 S
C4605 C4601 1.408 . S
C4605 C4604 1.404 . S
C4605 H4617 0.927 . S
C4606 C4602 1.524 . S
C4606 H4618 0.956 . S
C4606 H4619 0.961 . S
C4606 H4620 0.961 . S
C4607 C4604 1.539 1_556 S
C4607 H4621 0.958 . S
C4607 H4622 0.961 . S
C4607 H4623 0.960 . S
H4608 C4592 0.931 . S
H4609 C4597 0.929 . S
H4610 C4598 0.960 . S
H4611 C4598 0.962 . S
H4612 C4598 0.960 . S
H4613 C4599 0.961 . S
H4614 C4599 0.961 . S
H4615 C4599 0.961 . S
H4616 C4600 0.931 . S
H4617 C4605 0.927 . S
H4618 C4606 0.956 . S
H4619 C4606 0.961 . S
H4620 C4606 0.961 . S
H4621 C4607 0.958 . S
H4622 C4607 0.961 . S
H4623 C4607 0.960 . S
C4624 C4625 1.391 . S
C4624 C4626 1.394 . S
C4624 H4640 0.931 . S
C4625 C4624 1.391 . S
C4625 C4629 1.376 . S
C4626 C4624 1.394 . S
C4626 C4627 1.369 . S
C4626 C4630 1.531 . S
C4627 C4626 1.369 . S
C4627 C4628 1.410 . S
C4627 C4635 1.503 . S
C4628 C4627 1.410 . S
C4628 C4629 1.392 . S
C4628 C4631 1.511 . S
C4629 C4625 1.376 . S
C4629 C4628 1.392 . S
C4629 H4641 0.929 . S
C4630 C4626 1.531 . S
C4630 H4642 0.960 . S
C4630 H4643 0.962 . S
C4630 H4644 0.960 . S
C4631 C4628 1.511 . S
C4631 H4645 0.961 . S
C4631 H4646 0.961 . S
C4631 H4647 0.961 . S
C4632 C4633 1.370 . S
C4632 C4634 1.363 . S
C4632 H4648 0.931 . S
C4633 C4632 1.370 . S
C4633 C4637 1.408 . S
C4634 C4632 1.363 . S
C4634 C4635 1.370 . S
C4634 C4638 1.524 . S
C4635 C4627 1.503 . S
C4635 C4634 1.370 . S
C4635 C4636 1.403 . S
C4636 C4635 1.403 . S
C4636 C4637 1.404 . S
C4636 C4639 1.539 . S
C4637 C4633 1.408 . S
C4637 C4636 1.404 . S
C4637 H4649 0.930 . S
C4638 C4634 1.524 . S
C4638 H4650 0.956 . S
C4638 H4651 0.961 . S
C4638 H4652 0.961 . S
C4639 C4636 1.539 . S
C4639 H4653 0.958 . S
C4639 H4654 0.961 . S
C4639 H4655 0.960 . S
H4640 C4624 0.931 . S
H4641 C4629 0.929 . S
H4642 C4630 0.960 . S
H4643 C4630 0.962 . S
H4644 C4630 0.960 . S
H4645 C4631 0.961 . S
H4646 C4631 0.961 . S
H4647 C4631 0.961 . S
H4648 C4632 0.931 . S
H4649 C4637 0.930 . S
H4650 C4638 0.956 . S
H4651 C4638 0.961 . S
H4652 C4638 0.961 . S
H4653 C4639 0.958 . S
H4654 C4639 0.961 . S
H4655 C4639 0.960 . S
C4656 C4657 1.391 . S
C4656 C4658 1.394 . S
C4656 H4672 0.931 . S
C4657 C4656 1.391 . S
C4657 C4661 1.376 . S
C4658 C4656 1.394 . S
C4658 C4659 1.369 . S
C4658 C4662 1.531 . S
C4659 C4658 1.369 . S
C4659 C4660 1.410 . S
C4659 C4667 1.503 . S
C4660 C4659 1.410 . S
C4660 C4661 1.392 . S
C4660 C4663 1.510 1_554 S
C4661 C4657 1.376 . S
C4661 C4660 1.392 . S
C4661 H4673 0.929 . S
C4662 C4658 1.531 . S
C4662 H4674 0.960 . S
C4662 H4675 0.962 . S
C4662 H4676 0.960 . S
C4663 C4660 1.510 1_556 S
C4663 H4677 0.961 . S
C4663 H4678 0.961 . S
C4663 H4679 0.960 1_556 S
C4664 C4665 1.370 . S
C4664 C4666 1.363 . S
C4664 H4680 0.931 . S
C4665 C4664 1.370 . S
C4665 C4669 1.408 . S
C4666 C4664 1.363 . S
C4666 C4667 1.370 . S
C4666 C4670 1.524 . S
C4667 C4659 1.503 . S
C4667 C4666 1.370 . S
C4667 C4668 1.403 . S
C4668 C4667 1.403 . S
C4668 C4669 1.404 . S
C4668 C4671 1.539 . S
C4669 C4665 1.408 . S
C4669 C4668 1.404 . S
C4669 H4681 0.930 . S
C4670 C4666 1.524 . S
C4670 H4682 0.956 . S
C4670 H4683 0.961 . S
C4670 H4684 0.961 . S
C4671 C4668 1.539 . S
C4671 H4685 0.958 . S
C4671 H4686 0.961 . S
C4671 H4687 0.960 . S
H4672 C4656 0.931 . S
H4673 C4661 0.929 . S
H4674 C4662 0.960 . S
H4675 C4662 0.962 . S
H4676 C4662 0.960 . S
H4677 C4663 0.961 . S
H4678 C4663 0.961 . S
H4679 C4663 0.960 1_554 S
H4680 C4664 0.931 . S
H4681 C4669 0.930 . S
H4682 C4670 0.956 . S
H4683 C4670 0.961 . S
H4684 C4670 0.961 . S
H4685 C4671 0.958 . S
H4686 C4671 0.961 . S
H4687 C4671 0.960 . S
C4688 C4689 1.391 . S
C4688 C4690 1.394 . S
C4688 H4704 0.931 . S
C4689 C4688 1.391 . S
C4689 C4693 1.376 . S
C4690 C4688 1.394 . S
C4690 C4691 1.369 . S
C4690 C4694 1.531 . S
C4691 C4690 1.369 . S
C4691 C4692 1.410 . S
C4691 C4699 1.503 . S
C4692 C4691 1.410 . S
C4692 C4693 1.392 . S
C4692 C4695 1.511 . S
C4693 C4689 1.376 . S
C4693 C4692 1.392 . S
C4693 H4705 0.929 . S
C4694 C4690 1.531 . S
C4694 H4706 0.960 . S
C4694 H4707 0.962 . S
C4694 H4708 0.960 . S
C4695 C4692 1.511 . S
C4695 H4709 0.961 . S
C4695 H4710 0.961 . S
C4695 H4711 0.961 . S
C4696 C4697 1.370 . S
C4696 C4698 1.363 . S
C4696 H4712 0.931 . S
C4697 C4696 1.370 . S
C4697 C4701 1.408 . S
C4698 C4696 1.363 . S
C4698 C4699 1.370 . S
C4698 C4702 1.524 . S
C4699 C4691 1.503 . S
C4699 C4698 1.370 . S
C4699 C4700 1.403 . S
C4700 C4699 1.403 . S
C4700 C4701 1.404 . S
C4700 C4703 1.539 . S
C4701 C4697 1.408 . S
C4701 C4700 1.404 . S
C4701 H4713 0.930 . S
C4702 C4698 1.524 . S
C4702 H4714 0.956 . S
C4702 H4715 0.961 . S
C4702 H4716 0.961 . S
C4703 C4700 1.539 . S
C4703 H4717 0.958 . S
C4703 H4718 0.961 . S
C4703 H4719 0.960 . S
H4704 C4688 0.931 . S
H4705 C4693 0.929 . S
H4706 C4694 0.960 . S
H4707 C4694 0.962 . S
H4708 C4694 0.960 . S
H4709 C4695 0.961 . S
H4710 C4695 0.961 . S
H4711 C4695 0.961 . S
H4712 C4696 0.931 . S
H4713 C4701 0.930 . S
H4714 C4702 0.956 . S
H4715 C4702 0.961 . S
H4716 C4702 0.961 . S
H4717 C4703 0.958 . S
H4718 C4703 0.961 . S
H4719 C4703 0.960 . S
C4720 C4721 1.391 . S
C4720 C4722 1.394 . S
C4720 H4736 0.931 . S
C4721 C4720 1.391 . S
C4721 C4725 1.376 . S
C4722 C4720 1.394 . S
C4722 C4723 1.369 . S
C4722 C4726 1.531 . S
C4723 C4722 1.369 . S
C4723 C4724 1.410 . S
C4723 C4731 1.503 . S
C4724 C4723 1.410 . S
C4724 C4725 1.392 . S
C4724 C4727 1.511 . S
C4725 C4721 1.376 . S
C4725 C4724 1.392 . S
C4725 H4737 0.929 . S
C4726 C4722 1.531 . S
C4726 H4738 0.960 . S
C4726 H4739 0.962 . S
C4726 H4740 0.960 . S
C4727 C4724 1.511 . S
C4727 H4741 0.961 . S
C4727 H4742 0.961 . S
C4727 H4743 0.961 . S
C4728 C4729 1.370 . S
C4728 C4730 1.363 . S
C4728 H4744 0.931 . S
C4729 C4728 1.370 . S
C4729 C4733 1.408 . S
C4730 C4728 1.363 . S
C4730 C4731 1.370 . S
C4730 C4734 1.524 . S
C4731 C4723 1.503 . S
C4731 C4730 1.370 . S
C4731 C4732 1.403 . S
C4732 C4731 1.403 . S
C4732 C4733 1.404 . S
C4732 C4735 1.539 . S
C4733 C4729 1.408 . S
C4733 C4732 1.404 . S
C4733 H4745 0.930 . S
C4734 C4730 1.524 . S
C4734 H4746 0.956 . S
C4734 H4747 0.961 . S
C4734 H4748 0.961 . S
C4735 C4732 1.539 . S
C4735 H4749 0.958 . S
C4735 H4750 0.961 . S
C4735 H4751 0.960 . S
H4736 C4720 0.931 . S
H4737 C4725 0.929 . S
H4738 C4726 0.960 . S
H4739 C4726 0.962 . S
H4740 C4726 0.960 . S
H4741 C4727 0.961 . S
H4742 C4727 0.961 . S
H4743 C4727 0.961 . S
H4744 C4728 0.931 . S
H4745 C4733 0.930 . S
H4746 C4734 0.956 . S
H4747 C4734 0.961 . S
H4748 C4734 0.961 . S
H4749 C4735 0.958 . S
H4750 C4735 0.961 . S
H4751 C4735 0.960 . S
C1681 C105 2.155 . S
C1689 C392 2.159 . S
C1713 C65 1.905 . S
C1721 C494 1.894 . S
C1745 C73 1.858 . S
C1753 C560 1.892 . S
C1785 C646 1.414 . S
C1777 C92 1.497 . S
C1809 C17 1.553 . S
C1817 C730 1.426 . S
C1849 C812 1.859 . S
C1841 C37 1.810 . S
C1881 C914 1.908 . S
C1873 C49 1.840 . S
C1905 C8 2.092 . S
C1913 C980 2.093 . S
C1945 C410 1.681 . S
C1937 C231 1.700 . S
C1969 C241 0.958 . S
C1977 C478 0.880 . S
C2009 C578 1.150 . S
C2001 C273 1.081 . S
C2041 C644 1.633 . S
C2033 C171 1.635 1_556 S
C2065 C227 1.619 . S
C2073 C728 1.621 . S
C2105 C830 1.175 . S
C2097 C245 1.118 . S
C2137 C898 0.899 . S
C2129 C269 0.956 . S
C2169 C998 1.679 . S
C2161 C175 1.685 . S
C2201 C394 0.992 . S
C2193 C162 1.006 1_554 S
C2225 C289 1.689 . S
C2233 C1082 1.683 . S
C2265 C1150 1.346 . S
C2257 C330 1.392 . S
C2297 C1232 0.836 . S
C2289 C317 0.806 . S
C2321 C120 0.988 . S
C2329 C982 0.985 . S
C2353 C134 1.408 . S
C2361 C562 1.324 . S
C2385 C331 1.652 . S
C2393 C1334 1.642 . S
C2425 C1400 0.777 . S
C2417 C303 0.795 . S
C2457 C403 2.185 . S
C2449 C59 2.146 . S
C2489 C1407 1.930 . S
C2481 C107 1.923 . S
C2513 C91 1.907 . S
C2521 C571 1.942 . S
C2545 C78 1.500 . S
C2553 C1329 1.415 . S
C2585 C741 1.459 . S
C2577 C7 1.508 . S
C2609 C51 1.870 . S
C2617 C1159 1.901 . S
C2649 C903 1.946 1_556 S
C2641 C31 1.950 . S
C2681 C1495 2.125 . S
C2673 C22 2.088 . S
C2713 C399 1.715 . S
C2705 C143 1.767 . S
C2745 C1413 0.930 . S
C2737 C315 0.989 . S
C2769 C115 1.189 . S
C2777 C567 1.199 . S
C2801 C287 1.618 . S
C2809 C1327 1.679 . S
C2833 C147 1.620 . S
C2841 C739 1.667 . S
C2873 C1155 1.209 . S
C2865 C311 1.199 . S
C2897 C119 0.964 . S
C2905 C909 0.912 . S
C2929 C283 1.757 . S
C2937 C1491 1.704 . S
C2961 C190 0.998 . S
C2969 C405 0.988 . S
C2993 C177 1.732 . S
C3001 C1071 1.726 . S
C3025 C260 1.368 . S
C3033 C825 1.321 . S
C3057 C247 0.897 . S
C3065 C1243 0.879 . S
C3097 C1497 0.954 . S
C3089 C274 0.947 1_565 S
C3121 C218 1.393 . S
C3129 C573 1.352 . S
C3161 C651 1.680 . S
C3153 C261 1.691 . S
C3193 C487 0.814 . S
C3185 C205 0.811 . S
C3217 C77 2.153 . S
C3225 C1568 2.161 . S
C3257 C1418 1.894 . S
C3249 C93 1.905 . S
C3281 C101 1.853 . S
C3289 C1652 1.892 . S
C3313 C64 1.495 1_655 S
C3321 C1318 1.384 . S
C3345 C45 1.546 . S
C3353 C1066 1.457 . S
C3385 C1148 1.855 . S
C3377 C9 1.802 . S
C3417 C1250 1.899 . S
C3409 C21 1.780 . S
C3449 C1484 2.092 . S
C3441 C36 2.094 . S
C3481 C1586 1.693 . S
C3473 C259 1.703 . S
C3505 C185 0.960 . S
C3513 C1402 0.885 . S
C3545 C1670 1.149 . S
C3537 C203 1.092 . S
C3577 C1316 1.630 . S
C3569 C213 1.632 . S
C3609 C1064 1.621 . S
C3601 C255 1.619 . S
C3633 C189 1.087 . S
C3641 C1166 1.159 . S
C3673 C1234 0.920 . S
C3665 C199 0.949 . S
C3697 C217 1.712 . S
C3705 C1502 1.684 . S
C3737 C1570 1.025 . S
C3729 C316 1.041 . S
C3761 C135 1.705 . S
C3769 C746 1.688 . S
C3801 C814 1.336 . S
C3793 C148 1.404 1_565 S
C3833 C896 0.839 . S
C3825 C163 0.812 . S
C3865 C1486 0.992 . S
C3857 C302 1.017 . S
C3889 C288 1.382 . S
C3897 C1654 1.348 . S
C3929 C662 1.652 . S
C3921 C149 1.666 . S
C3961 C476 0.775 . S
C3953 C121 0.800 . S
C3985 C87 2.161 . S
C3993 C1579 2.188 . S
C4025 C483 1.930 . S
C4017 C79 1.926 . S
C4049 C63 1.926 . S
C4057 C1663 1.940 . S
C4081 C106 1.531 . S
C4089 C657 1.441 . S
C4113 C35 1.507 . S
C4121 C1077 1.454 . S
C4153 C823 1.900 . S
C4145 C23 1.873 . S
C4177 C3 1.945 . S
C4185 C1239 1.940 . S
C4209 C50 2.095 . S
C4217 C991 2.122 . S
C4249 C1575 1.719 . S
C4241 C325 1.763 . S
C4273 C161 0.954 . S
C4281 C489 0.907 . S
C4313 C1659 1.180 1_655 S
C4305 C297 1.202 . S
C4337 C133 1.619 . S
C4345 C655 1.678 . S
C4369 C329 1.652 . S
C4377 C1075 1.664 . S
C4409 C819 1.195 . S
C4401 C157 1.228 . S
C4433 C301 0.966 . S
C4441 C1245 0.914 . S
C4473 C987 1.719 . S
C4465 C129 1.740 . S
C4505 C1581 0.994 . S
C4497 C246 1.011 . S
C4537 C735 1.713 1_565 S
C4529 C219 1.714 . S
C4561 C232 1.367 . S
C4569 C1161 1.326 . S
C4601 C907 0.877 . S
C4593 C191 0.873 . S
C4625 C204 1.005 . S
C4633 C993 0.976 . S
C4657 C176 1.395 . S
C4665 C1665 1.354 . S
C4697 C1323 1.678 . S
C4689 C233 1.686 . S
C4729 C1411 0.814 . S
C4721 C275 0.819 . S
