# Generated by pormake.
# Topology nia, (6,6)-cn, num edge types: 1
# Building blocks:
#     Node 0, Type 0, BuildingBlock: BETFAJ_clean_sbu_0, # of connection points: 6
#     Node 1, Type 0, BuildingBlock: BETFAJ_clean_sbu_0, # of connection points: 6
#     Node 2, Type 1, BuildingBlock: MIDCAF_clean_sbu_0, # of connection points: 6
#     Node 3, Type 1, BuildingBlock: MIDCAF_clean_sbu_0, # of connection points: 6
#     Edge 4, Type (0, 1), BuildingBlock: ZUJKAS_clean_linker_0, # of connection points: 2
#     Edge 5, Type (0, 1), BuildingBlock: ZUJKAS_clean_linker_0, # of connection points: 2
#     Edge 6, Type (0, 1), BuildingBlock: ZUJKAS_clean_linker_0, # of connection points: 2
#     Edge 7, Type (0, 1), BuildingBlock: ZUJKAS_clean_linker_0, # of connection points: 2
#     Edge 8, Type (0, 1), BuildingBlock: ZUJKAS_clean_linker_0, # of connection points: 2
#     Edge 9, Type (0, 1), BuildingBlock: ZUJKAS_clean_linker_0, # of connection points: 2
#     Edge 10, Type (0, 1), BuildingBlock: ZUJKAS_clean_linker_0, # of connection points: 2
#     Edge 11, Type (0, 1), BuildingBlock: ZUJKAS_clean_linker_0, # of connection points: 2
#     Edge 12, Type (0, 1), BuildingBlock: ZUJKAS_clean_linker_0, # of connection points: 2
#     Edge 13, Type (0, 1), BuildingBlock: ZUJKAS_clean_linker_0, # of connection points: 2
#     Edge 14, Type (0, 1), BuildingBlock: ZUJKAS_clean_linker_0, # of connection points: 2
#     Edge 15, Type (0, 1), BuildingBlock: ZUJKAS_clean_linker_0, # of connection points: 2
# Relax obj value: 0.293
# Max RMSD: 0.261
# Mean RMSD: 0.239
data_MOF--net-nia--node1-BETFAJ_clean_sbu_0--node2-MIDCAF_clean_sbu_0--edge1-ZUJKAS_clean_linker_0
_symmetry_space_group_name_H-M    P1
_symmetry_Int_Tables_number       1
_symmetry_cell_setting            triclinic
loop_
_symmetry_equiv_pos_as_xyz
'x, y, z'
_cell_length_a     32.719922
_cell_length_b     35.409708
_cell_length_c     41.008722
_cell_angle_alpha  71.452032
_cell_angle_beta   98.747345
_cell_angle_gamma 125.85111
loop_
_atom_site_label
_atom_site_type_symbol
_atom_site_fract_x
_atom_site_fract_y
_atom_site_fract_z
_atom_type_partial_charge
Sm0 Sm 0.04654 0.01639 0.06244 0.0
Sm1 Sm 0.96141 0.91841 1.04301 0.0
C2 C 0.12026 0.10561 0.0645 0.0
C3 C 0.12555 0.14302 0.07672 0.0
C4 C 0.15469 0.19179 0.05704 0.0
C5 C 0.16122 0.22793 0.06874 0.0
C6 C 0.13896 0.21592 0.10051 0.0
C7 C 0.1088 0.16674 0.11978 0.0
C8 C 0.10194 0.13062 0.10792 0.0
C9 C 0.96361 0.95155 0.10785 0.0
C10 C 0.95931 0.01456 1.00859 0.0
C11 C 0.8807 0.83195 1.04124 0.0
C12 C 0.87158 0.79571 1.02583 0.0
C13 C 0.82225 0.75605 1.02393 0.0
C14 C 0.813 0.72504 1.00529 0.0
C15 C 0.85299 0.73382 0.98797 0.0
C16 C 0.90252 0.77282 0.99081 0.0
C17 C 0.91176 0.80338 1.00976 0.0
C18 C 0.04784 -0.02987 1.00095 0.0
C19 C 0.05201 0.92406 0.09247 0.0
O20 O 0.09331 0.09625 1.03747 0.0
O21 O 0.11193 0.06655 0.08813 0.0
O22 O 0.96282 0.96007 0.07561 0.0
O23 O 0.00861 -0.01851 0.11682 0.0
O24 O 0.00299 0.0409 1.02224 0.0
O25 O 0.93447 0.96698 1.015 0.0
O26 O 0.91019 0.83879 0.06745 0.0
O27 O 0.89085 0.87256 1.01887 0.0
O28 O 0.04011 -0.01914 1.02452 0.0
O29 O 0.00723 0.92928 0.99813 0.0
O30 O 0.00333 0.89638 0.08689 0.0
O31 O 0.07967 -0.02818 0.0793 0.0
H32 H 0.17272 0.20197 1.03271 0.0
H33 H 0.18392 0.26531 0.05294 0.0
H34 H 0.09159 0.15617 0.14453 0.0
H35 H 0.0788 0.09309 0.12342 0.0
H36 H 0.79081 0.74992 1.03597 0.0
H37 H 0.77443 0.69531 1.00335 0.0
H38 H 0.93402 0.77996 0.97807 0.0
H39 H 0.95013 0.83379 1.01107 0.0
Sm40 Sm 0.98387 -0.00821 0.56433 0.0
Sm41 Sm 0.03904 0.95213 0.5415 0.0
C42 C 0.94006 0.03261 0.57056 0.0
C43 C 0.92035 0.03929 0.5967 0.0
C44 C 0.87253 0.03064 0.59279 0.0
C45 C 0.85345 0.03875 0.61603 0.0
C46 C 0.882 0.05606 0.64364 0.0
C47 C 0.9295 0.06354 0.64807 0.0
C48 C 0.94854 0.05519 0.62479 0.0
C49 C 0.96129 0.90246 0.60517 0.0
C50 C 0.94278 0.94406 0.49907 0.0
C51 C 0.06786 0.8982 0.53619 0.0
C52 C 0.09823 0.89908 0.51266 0.0
C53 C 0.10759 0.86328 0.52212 0.0
C54 C 0.13427 0.8619 0.49949 0.0
C55 C 0.15215 0.89641 0.4669 0.0
C56 C 0.14307 0.93265 0.45766 0.0
C57 C 0.11634 0.934 0.4804 0.0
C58 C 0.07896 0.04808 0.50353 0.0
C59 C 0.08309 0.00642 0.60309 0.0
O60 O 0.91473 -0.01147 0.5675 0.0
O61 O -0.01085 0.05597 0.56722 0.0
O62 O 0.96863 0.91819 0.57295 0.0
O63 O 0.9609 0.93244 0.6167 0.0
O64 O 0.9469 -0.02557 0.51374 0.0
O65 O 0.97033 0.92645 0.50774 0.0
O66 O 0.09224 0.93027 0.55357 0.0
O67 O 0.0257 0.89254 0.5244 0.0
O68 O 0.04458 0.02103 0.52665 0.0
O69 O 0.09419 0.02347 0.49889 0.0
O70 O 0.075 -0.02884 0.59216 0.0
O71 O 0.05785 0.02627 0.5918 0.0
H72 H 0.85006 0.01809 0.57142 0.0
H73 H 0.81634 0.03168 0.61223 0.0
H74 H 0.95256 0.07714 0.66892 0.0
H75 H -0.0145 0.06188 0.62846 0.0
H76 H 0.09356 0.83587 0.54684 0.0
H77 H 0.13977 0.83299 0.50724 0.0
H78 H 0.15668 0.95998 0.43291 0.0
H79 H 0.10935 0.96193 0.47271 0.0
Zn80 Zn 0.39322 0.70071 0.22967 0.0
Zn81 Zn 0.36662 0.64454 0.3625 0.0
Zn82 Zn 0.37822 0.66892 0.29541 0.0
C83 C 0.4698 0.69652 0.34767 0.0
C84 C 0.3097 0.55748 0.34544 0.0
O85 O 0.34076 0.70764 0.27208 0.0
O86 O 0.35363 0.72832 0.21591 0.0
C87 C 0.48795 0.73976 0.25233 0.0
O88 O 0.45435 0.70099 0.31672 0.0
O89 O 0.43842 0.67078 0.37307 0.0
O90 O 0.31777 0.57391 0.3706 0.0
O91 O 0.33021 0.58699 0.31541 0.0
O92 O 0.46706 0.74542 0.22448 0.0
O93 O 0.46092 0.71206 0.28073 0.0
O94 O 0.33753 0.60208 0.27916 0.0
O95 O 0.36266 0.63571 0.22412 0.0
C96 C 0.33872 0.59817 0.24921 0.0
O97 O 0.34555 0.70341 0.3075 0.0
O98 O 0.34065 0.68212 0.36445 0.0
C99 C 0.33396 0.7266 0.24098 0.0
C100 C 0.3349 0.70527 0.33575 0.0
Zn101 Zn 0.64224 0.26116 0.87484 0.0
Zn102 Zn 0.64622 0.29705 0.73827 0.0
Zn103 Zn 0.64203 0.27902 0.80743 0.0
C104 C 0.69414 0.38649 0.75147 0.0
C105 C 0.54376 0.23388 0.76228 0.0
O106 O 0.67919 0.24073 0.83097 0.0
O107 O 0.66556 0.21814 0.88731 0.0
C108 C 0.70151 0.36186 0.84668 0.0
O109 O 0.68544 0.35895 0.7827 0.0
O110 O 0.67821 0.36834 0.72653 0.0
O111 O 0.57159 0.25173 0.73581 0.0
O112 O 0.56326 0.24171 0.79118 0.0
O113 O 0.69171 0.32984 0.8751 0.0
O114 O 0.68452 0.34954 0.81867 0.0
O115 O 0.56226 0.23622 0.82647 0.0
O116 O 0.56999 0.23274 0.88174 0.0
C117 C 0.54258 0.22385 0.85621 0.0
O118 O 0.67722 0.2475 0.79504 0.0
O119 O 0.68834 0.27314 0.73822 0.0
C120 C 0.68349 0.2189 0.86178 0.0
C121 C 0.69334 0.24981 0.7672 0.0
H122 H 0.03974 0.84076 0.09319 0.0
H123 H 0.08421 0.80608 0.12767 0.0
H124 H 0.16052 0.91972 0.17812 0.0
H125 H 0.11923 0.95652 0.14147 0.0
H126 H 0.2246 0.91098 0.16554 0.0
H127 H 0.06392 0.72277 0.22131 0.0
H128 H 0.06149 0.73665 0.17543 0.0
H129 H 0.05496 0.76969 0.19757 0.0
C130 C 0.06581 0.85799 0.11184 0.0
C131 C 0.07624 0.90125 0.11471 0.0
C132 C 0.09079 0.83783 0.13193 0.0
C133 C 0.125 0.85934 0.15638 0.0
C134 C 0.1344 0.90216 0.15962 0.0
H135 H 0.25543 0.70158 0.27981 0.0
H136 H 0.20609 0.73625 0.26562 0.0
C137 C 0.1108 0.92322 0.13869 0.0
C138 C 0.1541 0.83976 0.17637 0.0
H139 H 0.14451 0.73436 0.21817 0.0
C140 C 0.20666 0.87237 0.17758 0.0
C141 C 0.13125 0.7896 0.19329 0.0
C142 C 0.07474 0.7529 0.19718 0.0
C143 C 0.23696 0.85612 0.19329 0.0
C144 C 0.21474 0.80555 0.20642 0.0
C145 C 0.16195 0.77308 0.20728 0.0
C146 C 0.24589 0.78583 0.21658 0.0
C147 C 0.29257 0.8936 0.19557 0.0
C148 C 0.28406 0.80134 0.19367 0.0
C149 C 0.31306 0.78274 0.2022 0.0
C150 C 0.304 0.74725 0.23359 0.0
C151 C 0.26465 0.73031 0.25611 0.0
C152 C 0.23607 0.74972 0.24781 0.0
H153 H 0.29928 0.92714 0.19811 0.0
H154 H 0.30886 0.87968 0.21782 0.0
H155 H 0.31288 0.904 0.17153 0.0
H156 H 0.29107 0.82744 0.16877 0.0
H157 H 0.34243 0.79595 0.18392 0.0
H158 H 0.10123 0.06788 0.63896 0.0
H159 H 0.16903 0.10192 0.67818 0.0
H160 H 0.22183 0.02151 0.66368 0.0
H161 H 0.15348 -0.01364 0.62509 0.0
H162 H 0.22418 0.02111 0.73173 0.0
H163 H 0.31407 0.209 0.64359 0.0
H164 H 0.24991 0.1789 0.65747 0.0
H165 H 0.26395 0.15621 0.6305 0.0
C166 C 0.12709 0.0572 0.64422 0.0
C167 C 0.1222 0.02475 0.62854 0.0
C168 C 0.16595 0.07686 0.66659 0.0
C169 C 0.20107 0.06498 0.67336 0.0
C170 C 0.19523 0.0313 0.65874 0.0
H171 H 0.49139 0.15833 0.73536 0.0
H172 H 0.40204 0.11406 0.72231 0.0
C173 C 0.15617 0.01132 0.63659 0.0
C174 C 0.24532 0.08906 0.69436 0.0
H175 H 0.35558 0.1988 0.69402 0.0
C176 C 0.25259 0.06004 0.72372 0.0
C177 C 0.28232 0.13996 0.68401 0.0
C178 C 0.2776 0.17292 0.65205 0.0
C179 C 0.29674 0.08034 0.7422 0.0
C180 C 0.33456 0.13075 0.73086 0.0
C181 C 0.32619 0.16016 0.70271 0.0
C182 C 0.38598 0.15247 0.74412 0.0
C183 C 0.30346 0.04767 0.77309 0.0
C184 C 0.40639 0.18848 0.76099 0.0
C185 C 0.45753 0.21358 0.76876 0.0
C186 C 0.48873 0.2033 0.75925 0.0
C187 C 0.46786 0.16652 0.74316 0.0
C188 C 0.41687 0.1411 0.73587 0.0
H189 H 0.26669 0.0131 0.78391 0.0
H190 H 0.32712 0.03869 0.76527 0.0
H191 H 0.32294 0.06618 0.79351 0.0
H192 H 0.38317 0.19807 0.76721 0.0
H193 H 0.47315 0.24232 0.78079 0.0
H194 H 0.07363 0.21465 0.13661 0.0
H195 H 0.09351 0.27603 0.16345 0.0
H196 H 0.24686 0.36585 0.1225 0.0
H197 H 0.22802 0.30452 0.09653 0.0
H198 H 0.17042 0.30945 0.21245 0.0
H199 H 0.20301 0.46005 0.09753 0.0
H200 H 0.16759 0.39767 0.09657 0.0
H201 H 0.23546 0.43429 0.09441 0.0
C202 C 0.11159 0.2475 0.13327 0.0
C203 C 0.14924 0.25462 0.11437 0.0
C204 C 0.12271 0.28261 0.14841 0.0
C205 C 0.1714 0.32565 0.14449 0.0
C206 C 0.20873 0.33331 0.12514 0.0
H207 H 0.37304 0.57435 0.20921 0.0
H208 H 0.32473 0.50366 0.18732 0.0
C209 C 0.19781 0.29819 0.11024 0.0
C210 C 0.18497 0.36114 0.16277 0.0
H211 H 0.23941 0.48174 0.1496 0.0
C212 C 0.18466 0.34698 0.19884 0.0
C213 C 0.20308 0.40983 0.14486 0.0
C214 C 0.20191 0.42637 0.1062 0.0
C215 C 0.20552 0.38118 0.21739 0.0
C216 C 0.22639 0.43046 0.19939 0.0
C217 C 0.22378 0.44395 0.1634 0.0
C218 C 0.25595 0.46957 0.2166 0.0
C219 C 0.20731 0.36482 0.25586 0.0
C220 C 0.23386 0.4729 0.2415 0.0
C221 C 0.26192 0.51324 0.25456 0.0
C222 C 0.31198 0.55071 0.24246 0.0
C223 C 0.33445 0.54592 0.2189 0.0
C224 C 0.30681 0.50573 0.20621 0.0
H225 H 0.19733 0.32716 0.26529 0.0
H226 H 0.24541 0.38965 0.26452 0.0
H227 H 0.17984 0.36586 0.26774 0.0
H228 H 0.1945 0.44559 0.24964 0.0
H229 H 0.24366 0.51656 0.27237 0.0
H230 H 0.88768 0.03917 0.71405 0.0
H231 H 0.85491 0.05913 0.75124 0.0
H232 H 0.80088 0.12011 0.66231 0.0
H233 H 0.83388 0.10123 0.62519 0.0
H234 H 0.87794 0.15141 0.7483 0.0
H235 H 0.67577 0.02317 0.72884 0.0
H236 H 0.72388 0.01767 0.71927 0.0
H237 H 0.71182 0.05916 0.68871 0.0
C238 C 0.86896 0.05699 0.70246 0.0
C239 C 0.8628 0.06802 0.66668 0.0
C240 C 0.85008 0.06811 0.72375 0.0
C241 C 0.82449 0.09006 0.70958 0.0
C242 C 0.81926 0.10192 0.67388 0.0
H243 H 0.7756 0.28333 0.73004 0.0
H244 H 0.80952 0.23846 0.72743 0.0
C245 C 0.83811 0.09101 0.65268 0.0
C246 C 0.80443 0.10256 0.73133 0.0
H247 H 0.69822 0.09366 0.74418 0.0
C248 C 0.83843 0.13796 0.74818 0.0
C249 C 0.7527 0.08411 0.73197 0.0
C250 C 0.71385 0.04352 0.71654 0.0
C251 C 0.82273 0.15871 0.76273 0.0
C252 C 0.77212 0.14411 0.75979 0.0
C253 C 0.73724 0.1054 0.74597 0.0
C254 C 0.75617 0.17283 0.76589 0.0
C255 C 0.86084 0.19745 0.77985 0.0
C256 C 0.71467 0.15073 0.78822 0.0
C257 C 0.69513 0.17636 0.78961 0.0
C258 C 0.71668 0.22428 0.76854 0.0
C259 C 0.75865 0.24654 0.74671 0.0
C260 C 0.77835 0.22112 0.7455 0.0
H261 H 0.89065 0.19192 0.79121 0.0
H262 H 0.87937 0.23354 0.76031 0.0
H263 H 0.84267 0.19783 0.8004 0.0
H264 H 0.69659 0.11328 0.8038 0.0
H265 H 0.66222 0.15826 0.80626 0.0
H266 H 0.95941 0.94165 0.17615 0.0
H267 H 0.88404 0.89971 0.21313 0.0
H268 H 0.78987 0.8552 0.12834 0.0
H269 H 0.86509 0.89662 0.09137 0.0
H270 H 0.81446 0.92118 0.20308 0.0
H271 H 0.7204 0.72949 0.20679 0.0
H272 H 0.78579 0.77595 0.19279 0.0
H273 H 0.7364 0.76914 0.16361 0.0
C274 C 0.92258 0.92229 0.16556 0.0
C275 C 0.91805 0.92247 0.13087 0.0
C276 C 0.87958 0.89838 0.18671 0.0
C277 C 0.83127 0.87382 0.17367 0.0
C278 C 0.82669 0.87302 0.13921 0.0
H279 H 0.55745 0.82606 0.20897 0.0
H280 H 0.64502 0.8587 0.19807 0.0
C281 C 0.86968 0.89697 0.11802 0.0
C282 C 0.78587 0.85252 0.19506 0.0
H283 H 0.66768 0.74951 0.22091 0.0
C284 C 0.78269 0.88339 0.20753 0.0
C285 C 0.74477 0.80306 0.2015 0.0
C286 C 0.74713 0.76736 0.19078 0.0
C287 C 0.73831 0.86699 0.22415 0.0
C288 C 0.69573 0.81851 0.22808 0.0
C289 C 0.70012 0.78677 0.21774 0.0
C290 C 0.64485 0.80174 0.23861 0.0
C291 C 0.73729 0.90243 0.23629 0.0
C292 C 0.61528 0.75872 0.26512 0.0
C293 C 0.56467 0.73963 0.27121 0.0
C294 C 0.543 0.76331 0.25083 0.0
C295 C 0.57326 0.80723 0.22526 0.0
C296 C 0.62351 0.82614 0.21916 0.0
H297 H 0.77455 0.92736 0.24588 0.0
H298 H 0.72953 0.92505 0.21422 0.0
H299 H 0.7079 0.88384 0.25699 0.0
H300 H 0.63085 0.73907 0.28028 0.0
H301 H 0.54193 0.70527 0.29067 0.0
H302 H 0.97318 0.84 0.58968 0.0
H303 H 0.93435 0.75381 0.61995 0.0
H304 H 0.86354 0.76354 0.69462 0.0
H305 H 0.90479 0.85036 0.66552 0.0
H306 H 0.89014 0.70482 0.72583 0.0
H307 H 0.79133 0.65229 0.60936 0.0
H308 H 0.85851 0.69023 0.6022 0.0
H309 H 0.82696 0.71399 0.61137 0.0
C310 C 0.94973 0.82376 0.61275 0.0
C311 C 0.94147 0.85163 0.62503 0.0
C312 C 0.92718 0.7744 0.62991 0.0
C313 C 0.89457 0.75157 0.659 0.0
C314 C 0.88814 0.78003 0.67211 0.0
H315 H 0.66209 0.44247 0.71599 0.0
H316 H 0.71052 0.5312 0.69816 0.0
C317 C 0.91165 0.82967 0.65542 0.0
C318 C 0.86561 0.6979 0.67496 0.0
H319 H 0.78592 0.58954 0.65631 0.0
C320 C 0.86714 0.67956 0.71067 0.0
C321 C 0.83469 0.66474 0.65539 0.0
C322 C 0.82727 0.68128 0.61756 0.0
C323 C 0.83893 0.62921 0.72724 0.0
C324 C 0.80968 0.59612 0.70736 0.0
C325 C 0.80838 0.61462 0.67168 0.0
C326 C 0.77884 0.54219 0.72257 0.0
C327 C 0.83955 0.61226 0.76594 0.0
C328 C 0.80037 0.51831 0.74308 0.0
C329 C 0.77202 0.46735 0.75409 0.0
C330 C 0.72221 0.43959 0.74403 0.0
C331 C 0.70046 0.46326 0.72406 0.0
C332 C 0.72823 0.51395 0.71382 0.0
H333 H 0.84982 0.64074 0.77785 0.0
H334 H 0.80228 0.57899 0.77712 0.0
H335 H 0.86816 0.60398 0.77294 0.0
H336 H 0.83959 0.5389 0.74949 0.0
H337 H 0.78963 0.44969 0.76919 0.0
H338 H 0.22254 0.87571 0.48142 0.0
H339 H 0.25863 0.86111 0.44307 0.0
H340 H 0.17941 0.89644 0.35853 0.0
H341 H 0.14133 0.90922 0.39727 0.0
H342 H 0.16467 0.81287 0.36292 0.0
H343 H 0.3688 0.94692 0.36905 0.0
H344 H 0.34088 0.91292 0.41177 0.0
H345 H 0.32239 0.95086 0.38367 0.0
C346 C 0.21297 0.88069 0.45463 0.0
C347 C 0.17874 0.89331 0.44251 0.0
C348 C 0.23432 0.87308 0.43255 0.0
C349 C 0.22253 0.87854 0.3977 0.0
C350 C 0.1895 0.89252 0.38523 0.0
H351 H 0.36514 0.796 0.29385 0.0
H352 H 0.33643 0.84495 0.29832 0.0
C353 C 0.16796 0.90004 0.40738 0.0
C354 C 0.24037 0.8642 0.37573 0.0
H355 H 0.34425 0.87227 0.35793 0.0
C356 C 0.20414 0.82679 0.36105 0.0
C357 C 0.29193 0.88302 0.3724 0.0
C358 C 0.33319 0.92605 0.38475 0.0
C359 C 0.21757 0.80469 0.34615 0.0
C360 C 0.26827 0.81972 0.34656 0.0
C361 C 0.30519 0.86017 0.35816 0.0
C362 C 0.28218 0.78944 0.34047 0.0
C363 C 0.17704 0.764 0.33138 0.0
C364 C 0.26125 0.74229 0.36263 0.0
C365 C 0.27767 0.71474 0.36026 0.0
C366 C 0.31519 0.73361 0.33554 0.0
C367 C 0.33568 0.78051 0.31284 0.0
C368 C 0.31942 0.8084 0.31541 0.0
H369 H 0.14545 0.76773 0.32243 0.0
H370 H 0.19242 0.76315 0.30949 0.0
H371 H 0.1615 0.72875 0.35163 0.0
H372 H 0.2334 0.72736 0.38269 0.0
H373 H 0.26154 0.67881 0.37819 0.0
H374 H 0.06802 0.94607 0.95173 0.0
H375 H 0.14893 -0.01133 0.9209 0.0
H376 H 0.21588 0.0992 0.97328 0.0
H377 H 0.13525 0.05626 1.00463 0.0
H378 H 0.21277 0.08339 0.87732 0.0
H379 H 0.30533 0.04933 0.99711 0.0
H380 H 0.2378 0.01847 0.99519 0.0
H381 H 0.27708 0.07931 0.99921 0.0
C382 C 0.09999 -0.02039 0.95652 0.0
C383 C 0.09564 -0.00227 0.98075 0.0
C384 C 0.14608 0.00393 0.93882 0.0
C385 C 0.18858 0.04666 0.94518 0.0
C386 C 0.18376 0.06577 0.96846 0.0
H387 H 0.50147 0.2478 0.89076 0.0
H388 H 0.41275 0.20373 0.90757 0.0
C389 C 0.13772 0.04138 0.98625 0.0
C390 C 0.23845 0.07024 0.9286 0.0
H391 H 0.35908 0.10563 0.94721 0.0
C392 C 0.24477 0.08801 0.8925 0.0
C393 C 0.27983 0.07539 0.94846 0.0
C394 C 0.27469 0.05419 0.9871 0.0
C395 C 0.29218 0.11301 0.87588 0.0
C396 C 0.33392 0.11998 0.89597 0.0
C397 C 0.32705 0.10064 0.9319 0.0
C398 C 0.38601 0.14982 0.88094 0.0
C399 C 0.29781 0.13322 0.83719 0.0
C400 C 0.4003 0.13472 0.85969 0.0
C401 C 0.45132 0.16015 0.84992 0.0
C402 C 0.48833 0.20078 0.86137 0.0
C403 C 0.47356 0.21663 0.88155 0.0
C404 C 0.42295 0.19153 0.89113 0.0
H405 H 0.26387 0.1315 0.82588 0.0
H406 H 0.33126 0.17157 0.82946 0.0
H407 H 0.30377 0.11191 0.8261 0.0
H408 H 0.37247 0.10215 0.852 0.0
H409 H 0.46204 0.14676 0.83491 0.0
H410 H 0.15362 0.10819 0.45329 0.0
H411 H 0.19015 0.19414 0.42341 0.0
H412 H 0.08773 0.19001 0.48167 0.0
H413 H 0.05123 0.104 0.51174 0.0
H414 H 0.14243 0.23779 0.38316 0.0
H415 H 0.22745 0.30638 0.49711 0.0
H416 H 0.20605 0.24658 0.49663 0.0
H417 H 0.16133 0.25798 0.50263 0.0
C418 C 0.13891 0.12564 0.45973 0.0
C419 C 0.09979 0.09955 0.48499 0.0
C420 C 0.15979 0.1747 0.44263 0.0
C421 C 0.1422 0.1987 0.45066 0.0
C422 C 0.10256 0.17249 0.47553 0.0
H423 H 0.22671 0.49306 0.38793 0.0
H424 H 0.18411 0.40528 0.41014 0.0
C425 C 0.08156 0.12333 0.49259 0.0
C426 C 0.16503 0.25098 0.43266 0.0
H427 H 0.2302 0.3629 0.44586 0.0
C428 C 0.16169 0.26521 0.39683 0.0
C429 C 0.19041 0.28672 0.45051 0.0
C430 C 0.19705 0.2739 0.4888 0.0
C431 C 0.18195 0.31405 0.37849 0.0
C432 C 0.20714 0.34986 0.39626 0.0
C433 C 0.2108 0.33555 0.43212 0.0
C434 C 0.2289 0.40223 0.37864 0.0
C435 C 0.17577 0.32673 0.3403 0.0
C436 C 0.26723 0.42985 0.35246 0.0
C437 C 0.29133 0.48039 0.33925 0.0
C438 C 0.27783 0.50396 0.35239 0.0
C439 C 0.2379 0.47584 0.3773 0.0
C440 C 0.21368 0.42566 0.39018 0.0
H441 H 0.14469 0.29447 0.33203 0.0
H442 H 0.16834 0.35518 0.33188 0.0
H443 H 0.21136 0.34099 0.32723 0.0
H444 H 0.28027 0.41284 0.34345 0.0
H445 H 0.32255 0.50128 0.32051 0.0
H446 H 0.86915 -0.0268 0.97694 0.0
H447 H 0.82904 0.01269 0.94323 0.0
H448 H 0.95683 0.15061 0.9555 0.0
H449 H -0.0029 0.1114 0.98969 0.0
H450 H 0.86796 0.12974 0.97353 0.0
H451 H 0.85415 0.10233 0.84557 0.0
H452 H 0.82902 0.04701 0.88013 0.0
H453 H 0.89523 0.09499 0.87774 0.0
C454 C 0.88911 0.01205 0.97219 0.0
C455 C 0.93633 0.03903 0.98625 0.0
C456 C 0.86626 0.03467 0.95256 0.0
C457 C 0.89026 0.08475 0.94634 0.0
C458 C 0.93781 0.11197 0.95974 0.0
H459 H 0.77191 0.25447 0.83019 0.0
H460 H 0.82388 0.22251 0.84705 0.0
C461 C 0.96071 0.08941 0.97939 0.0
C462 C 0.86346 0.10764 0.92913 0.0
H463 H 0.80137 0.12383 0.8568 0.0
C464 C 0.854 0.12896 0.94784 0.0
C465 C 0.84557 0.10701 0.89546 0.0
C466 C 0.85692 0.08705 0.87339 0.0
C467 C 0.82564 0.14802 0.93439 0.0
C468 C 0.80547 0.14503 0.90155 0.0
C469 C 0.81644 0.12549 0.88215 0.0
C470 C 0.77151 0.16067 0.88789 0.0
C471 C 0.81701 0.17083 0.95562 0.0
C472 C 0.72438 0.1356 0.90459 0.0
C473 C 0.69481 0.15362 0.89501 0.0
C474 C 0.71156 0.19668 0.86823 0.0
C475 C 0.75781 0.22071 0.85051 0.0
C476 C 0.78751 0.20262 0.86015 0.0
H477 H 0.84473 0.1809 0.97609 0.0
H478 H 0.81949 0.20385 0.93913 0.0
H479 H 0.77864 0.14444 0.96821 0.0
H480 H 0.71128 0.10296 0.92589 0.0
H481 H 0.65937 0.13455 0.90912 0.0
H482 H 0.88419 -0.0229 0.4703 0.0
H483 H 0.81065 0.94033 0.43571 0.0
H484 H 0.83623 0.83359 0.43678 0.0
H485 H 0.91043 0.87048 0.47104 0.0
H486 H 0.80217 0.86838 0.37196 0.0
H487 H 0.6834 0.80818 0.48575 0.0
H488 H 0.73104 0.87245 0.47153 0.0
H489 H 0.74929 0.83113 0.48847 0.0
C490 C 0.87475 0.94625 0.4628 0.0
C491 C 0.90287 0.92633 0.47394 0.0
C492 C 0.83264 0.92528 0.44302 0.0
C493 C 0.81753 0.88376 0.43421 0.0
C494 C 0.84721 0.86556 0.4434 0.0
H495 H 0.51417 0.66314 0.39808 0.0
H496 H 0.6016 0.70881 0.41507 0.0
C497 C 0.88956 0.88666 0.46308 0.0
C498 C 0.7683 0.8567 0.41845 0.0
H499 H 0.64151 0.79208 0.43474 0.0
C500 C 0.76698 0.85172 0.38557 0.0
C501 C 0.72246 0.83439 0.43655 0.0
C502 C 0.72131 0.83631 0.47265 0.0
C503 C 0.72081 0.8254 0.37017 0.0
C504 C 0.67515 0.80396 0.3881 0.0
C505 C 0.67664 0.8088 0.42098 0.0
C506 C 0.62489 0.77492 0.37409 0.0
C507 C 0.72098 0.81976 0.33527 0.0
C508 C 0.60917 0.79671 0.34502 0.0
C509 C 0.55903 0.77057 0.33529 0.0
C510 C 0.5241 0.72232 0.35444 0.0
C511 C 0.54042 0.70023 0.38279 0.0
C512 C 0.59033 0.72622 0.39246 0.0
H513 H 0.75852 0.83092 0.32757 0.0
H514 H 0.69229 0.7815 0.335 0.0
H515 H 0.71102 0.8428 0.31579 0.0
H516 H 0.63492 0.83455 0.3309 0.0
H517 H 0.54705 0.78875 0.31383 0.0
H518 H 0.79435 0.63492 1.00431 0.0
H519 H 0.77676 0.58469 0.96769 0.0
H520 H 0.86959 0.714 0.88514 0.0
H521 H 0.88839 0.76436 0.92208 0.0
H522 H 0.73061 0.58043 0.9076 0.0
H523 H 0.92596 0.63773 0.88832 0.0
H524 H 0.90952 0.65284 0.91998 0.0
H525 H 0.91742 0.68605 0.87524 0.0
C526 C 0.81111 0.65253 0.97839 0.0
C527 C 0.84292 0.7034 0.96605 0.0
C528 C 0.8011 0.62391 0.95751 0.0
C529 C 0.82237 0.64561 0.92381 0.0
C530 C 0.85378 0.69647 0.91129 0.0
H531 H 0.68749 0.43129 0.8068 0.0
H532 H 0.72341 0.51064 0.81501 0.0
C533 C 0.86434 0.72515 0.93236 0.0
C534 C 0.81026 0.61441 0.90191 0.0
H535 H 0.86163 0.57959 0.86154 0.0
C536 C 0.75924 0.58049 0.89722 0.0
C537 C 0.84783 0.61489 0.88826 0.0
C538 C 0.90324 0.64952 0.89336 0.0
C539 C 0.74444 0.54504 0.88114 0.0
C540 C 0.78192 0.54458 0.86832 0.0
C541 C 0.83309 0.58034 0.87118 0.0
C542 C 0.76868 0.50274 0.85743 0.0
C543 C 0.68877 0.50646 0.88022 0.0
C544 C 0.78473 0.47356 0.877 0.0
C545 C 0.76518 0.42894 0.87182 0.0
C546 C 0.72941 0.4128 0.84686 0.0
C547 C 0.71584 0.44338 0.82569 0.0
C548 C 0.73577 0.48836 0.83071 0.0
H549 H 0.66548 0.50717 0.89681 0.0
H550 H 0.67646 0.5126 0.85346 0.0
H551 H 0.681 0.46968 0.88884 0.0
H552 H 0.81009 0.48391 0.89775 0.0
H553 H 0.77625 0.40599 0.88847 0.0
loop_
_geom_bond_atom_site_label_1
_geom_bond_atom_site_label_2
_geom_bond_distance
_geom_bond_site_symmetry_2
_ccdc_geom_bond_type
Sm0 C2 2.846 . S
Sm0 O20 2.543 . S
Sm0 O21 2.450 . S
Sm0 O22 2.681 1_445 S
Sm0 O23 2.464 1_445 S
Sm0 O24 2.396 . S
Sm0 O28 2.386 1_554 S
Sm0 O31 2.408 1_545 S
Sm1 C11 2.846 . S
Sm1 O22 2.386 1_556 S
Sm1 O25 2.408 1_565 S
Sm1 O26 2.543 . S
Sm1 O27 2.450 . S
Sm1 O28 2.681 1_665 S
Sm1 O29 2.464 1_665 S
Sm1 O30 2.396 1_656 S
C2 Sm0 2.846 . S
C2 C3 1.506 . S
C2 O20 1.261 . S
C2 O21 1.242 . S
C3 C2 1.506 . S
C3 C4 1.358 . S
C3 C8 1.382 . S
C4 C3 1.358 . S
C4 C5 1.385 . S
C4 H32 0.930 . S
C5 C4 1.385 . S
C5 C6 1.395 . S
C5 H33 0.929 . S
C6 C5 1.395 . S
C6 C7 1.335 . S
C7 C6 1.335 . S
C7 C8 1.398 . S
C7 H34 0.930 . S
C8 C3 1.382 . S
C8 C7 1.398 . S
C8 H35 0.929 . S
C9 O22 1.271 . S
C9 O23 1.251 . S
C10 O24 1.252 1_656 S
C10 O25 1.272 . S
C11 Sm1 2.846 . S
C11 C12 1.506 . S
C11 O26 1.261 . S
C11 O27 1.242 . S
C12 C11 1.506 . S
C12 C13 1.358 . S
C12 C17 1.382 . S
C13 C12 1.358 . S
C13 C14 1.385 . S
C13 H36 0.930 . S
C14 C13 1.385 . S
C14 C15 1.395 . S
C14 H37 0.929 . S
C15 C14 1.395 . S
C15 C16 1.335 . S
C16 C15 1.335 . S
C16 C17 1.398 . S
C16 H38 0.930 . S
C17 C12 1.382 . S
C17 C16 1.398 . S
C17 H39 0.929 . S
C18 O28 1.271 . S
C18 O29 1.251 . S
C19 O30 1.252 . S
C19 O31 1.272 . S
O20 Sm0 2.543 . S
O20 C2 1.261 . S
O21 Sm0 2.450 . S
O21 C2 1.242 . S
O22 Sm0 2.681 1_665 S
O22 Sm1 2.386 1_554 S
O22 C9 1.271 . S
O23 Sm0 2.464 1_665 S
O23 C9 1.251 . S
O24 Sm0 2.396 . S
O24 C10 1.252 1_454 S
O25 Sm1 2.408 1_545 S
O25 C10 1.272 . S
O26 Sm1 2.543 . S
O26 C11 1.261 . S
O27 Sm1 2.450 . S
O27 C11 1.242 . S
O28 Sm0 2.386 1_556 S
O28 Sm1 2.681 1_445 S
O28 C18 1.271 . S
O29 Sm1 2.464 1_445 S
O29 C18 1.251 . S
O30 Sm1 2.396 1_454 S
O30 C19 1.252 . S
O31 Sm0 2.408 1_565 S
O31 C19 1.272 . S
H32 C4 0.930 . S
H33 C5 0.929 . S
H34 C7 0.930 . S
H35 C8 0.929 . S
H36 C13 0.930 . S
H37 C14 0.929 . S
H38 C16 0.930 . S
H39 C17 0.929 . S
Sm40 C42 2.846 1_455 S
Sm40 O60 2.543 1_455 S
Sm40 O61 2.450 1_455 S
Sm40 O62 2.681 1_545 S
Sm40 O63 2.464 1_445 S
Sm40 O64 2.396 1_445 S
Sm40 O68 2.386 . S
Sm40 O71 2.408 . S
Sm41 C51 2.846 . S
Sm41 O62 2.386 . S
Sm41 O65 2.408 1_455 S
Sm41 O66 2.543 . S
Sm41 O67 2.450 1_565 S
Sm41 O68 2.681 1_565 S
Sm41 O69 2.464 1_565 S
Sm41 O70 2.396 1_565 S
C42 Sm40 2.846 1_655 S
C42 C43 1.506 . S
C42 O60 1.261 . S
C42 O61 1.242 . S
C43 C42 1.506 . S
C43 C44 1.358 . S
C43 C48 1.382 . S
C44 C43 1.358 . S
C44 C45 1.385 . S
C44 H72 0.930 . S
C45 C44 1.385 . S
C45 C46 1.395 . S
C45 H73 0.929 . S
C46 C45 1.395 . S
C46 C47 1.335 . S
C47 C46 1.335 . S
C47 C48 1.398 . S
C47 H74 0.930 . S
C48 C43 1.382 . S
C48 C47 1.398 . S
C48 H75 0.929 . S
C49 O62 1.271 1_655 S
C49 O63 1.251 . S
C50 O64 1.252 . S
C50 O65 1.272 . S
C51 Sm41 2.846 . S
C51 C52 1.506 . S
C51 O66 1.261 . S
C51 O67 1.242 1_565 S
C52 C51 1.506 . S
C52 C53 1.358 . S
C52 C57 1.382 . S
C53 C52 1.358 . S
C53 C54 1.385 . S
C53 H76 0.930 . S
C54 C53 1.385 . S
C54 C55 1.395 . S
C54 H77 0.929 . S
C55 C54 1.395 . S
C55 C56 1.335 . S
C56 C55 1.335 . S
C56 C57 1.398 . S
C56 H78 0.930 1_565 S
C57 C52 1.382 . S
C57 C56 1.398 . S
C57 H79 0.929 1_565 S
C58 O68 1.271 . S
C58 O69 1.251 . S
C59 O70 1.252 . S
C59 O71 1.272 . S
O60 Sm40 2.543 1_655 S
O60 C42 1.261 . S
O61 Sm40 2.450 1_655 S
O61 C42 1.242 . S
O62 Sm40 2.681 1_565 S
O62 Sm41 2.386 . S
O62 C49 1.271 1_455 S
O63 Sm40 2.464 1_665 S
O63 C49 1.251 . S
O64 Sm40 2.396 1_665 S
O64 C50 1.252 . S
O65 Sm41 2.408 1_655 S
O65 C50 1.272 . S
O66 Sm41 2.543 . S
O66 C51 1.261 . S
O67 Sm41 2.450 1_545 S
O67 C51 1.242 1_545 S
O68 Sm40 2.386 . S
O68 Sm41 2.681 1_545 S
O68 C58 1.271 . S
O69 Sm41 2.464 1_545 S
O69 C58 1.251 . S
O70 Sm41 2.396 1_545 S
O70 C59 1.252 . S
O71 Sm40 2.408 . S
O71 C59 1.272 . S
H72 C44 0.930 . S
H73 C45 0.929 . S
H74 C47 0.930 . S
H75 C48 0.929 . S
H76 C53 0.930 . S
H77 C54 0.929 . S
H78 C56 0.930 1_545 S
H79 C57 0.929 1_545 S
Zn80 O86 1.920 . S
Zn80 O92 1.898 . S
Zn80 O95 1.905 . S
Zn81 O89 1.905 . S
Zn81 O90 1.898 . S
Zn81 O98 1.920 . S
Zn82 O85 2.080 . S
Zn82 O88 2.114 . S
Zn82 O91 2.120 . S
Zn82 O93 2.120 . S
Zn82 O94 2.114 . S
Zn82 O97 2.080 . S
C83 O88 1.166 . S
C83 O89 1.182 . S
C84 O90 1.167 . S
C84 O91 1.299 . S
O85 Zn82 2.080 . S
O85 C99 1.305 . S
O86 Zn80 1.920 . S
O86 C99 1.234 . S
C87 O92 1.167 . S
C87 O93 1.299 . S
O88 Zn82 2.114 . S
O88 C83 1.166 . S
O89 Zn81 1.905 . S
O89 C83 1.182 . S
O90 Zn81 1.898 . S
O90 C84 1.167 . S
O91 Zn82 2.120 . S
O91 C84 1.299 . S
O92 Zn80 1.898 . S
O92 C87 1.167 . S
O93 Zn82 2.120 . S
O93 C87 1.299 . S
O94 Zn82 2.114 . S
O94 C96 1.166 . S
O95 Zn80 1.905 . S
O95 C96 1.182 . S
C96 O94 1.166 . S
C96 O95 1.182 . S
O97 Zn82 2.080 . S
O97 C100 1.305 . S
O98 Zn81 1.920 . S
O98 C100 1.234 . S
C99 O85 1.305 . S
C99 O86 1.234 . S
C100 O97 1.305 . S
C100 O98 1.234 . S
Zn101 O107 1.920 . S
Zn101 O113 1.898 . S
Zn101 O116 1.905 . S
Zn102 O110 1.905 . S
Zn102 O111 1.898 . S
Zn102 O119 1.920 . S
Zn103 O106 2.080 . S
Zn103 O109 2.114 . S
Zn103 O112 2.120 . S
Zn103 O114 2.120 . S
Zn103 O115 2.114 . S
Zn103 O118 2.080 . S
C104 O109 1.166 . S
C104 O110 1.182 . S
C105 O111 1.167 . S
C105 O112 1.299 . S
O106 Zn103 2.080 . S
O106 C120 1.305 . S
O107 Zn101 1.920 . S
O107 C120 1.234 . S
C108 O113 1.167 . S
C108 O114 1.299 . S
O109 Zn103 2.114 . S
O109 C104 1.166 . S
O110 Zn102 1.905 . S
O110 C104 1.182 . S
O111 Zn102 1.898 . S
O111 C105 1.167 . S
O112 Zn103 2.120 . S
O112 C105 1.299 . S
O113 Zn101 1.898 . S
O113 C108 1.167 . S
O114 Zn103 2.120 . S
O114 C108 1.299 . S
O115 Zn103 2.114 . S
O115 C117 1.166 . S
O116 Zn101 1.905 . S
O116 C117 1.182 . S
C117 O115 1.166 . S
C117 O116 1.182 . S
O118 Zn103 2.080 . S
O118 C121 1.305 . S
O119 Zn102 1.920 . S
O119 C121 1.234 . S
C120 O106 1.305 . S
C120 O107 1.234 . S
C121 O118 1.305 . S
C121 O119 1.234 . S
H122 C130 0.929 . S
H123 C132 0.930 . S
H124 C134 0.930 . S
H125 C137 0.929 . S
H126 C140 0.930 . S
H127 C142 0.960 . S
H128 C142 0.960 . S
H129 C142 0.960 . S
C130 H122 0.929 . S
C130 C131 1.377 . S
C130 C132 1.384 . S
C131 C130 1.377 . S
C131 C137 1.390 . S
C132 H123 0.930 . S
C132 C130 1.384 . S
C132 C133 1.372 . S
C133 C132 1.372 . S
C133 C134 1.400 . S
C133 C138 1.490 . S
C134 H124 0.930 . S
C134 C133 1.400 . S
C134 C137 1.386 . S
H135 C151 0.930 . S
H136 C152 0.931 . S
C137 H125 0.929 . S
C137 C131 1.390 . S
C137 C134 1.386 . S
C138 C133 1.490 . S
C138 C140 1.395 . S
C138 C141 1.403 . S
H139 C145 0.930 . S
C140 H126 0.930 . S
C140 C138 1.395 . S
C140 C143 1.403 . S
C141 C138 1.403 . S
C141 C142 1.524 . S
C141 C145 1.400 . S
C142 H127 0.960 . S
C142 H128 0.960 . S
C142 H129 0.960 . S
C142 C141 1.524 . S
C143 C140 1.403 . S
C143 C144 1.392 . S
C143 C147 1.495 . S
C144 C143 1.392 . S
C144 C145 1.385 . S
C144 C146 1.478 . S
C145 H139 0.930 . S
C145 C141 1.400 . S
C145 C144 1.385 . S
C146 C144 1.478 . S
C146 C148 1.381 . S
C146 C152 1.383 . S
C147 C143 1.495 . S
C147 H153 0.959 . S
C147 H154 0.961 . S
C147 H155 0.960 . S
C148 C146 1.381 . S
C148 C149 1.394 . S
C148 H156 0.930 . S
C149 C148 1.394 . S
C149 C150 1.383 . S
C149 H157 0.929 . S
C150 C149 1.383 . S
C150 C151 1.377 . S
C151 H135 0.930 . S
C151 C150 1.377 . S
C151 C152 1.379 . S
C152 H136 0.931 . S
C152 C146 1.383 . S
C152 C151 1.379 . S
H153 C147 0.959 . S
H154 C147 0.961 . S
H155 C147 0.960 . S
H156 C148 0.930 . S
H157 C149 0.929 . S
H158 C166 0.929 . S
H159 C168 0.930 . S
H160 C170 0.930 . S
H161 C173 0.929 . S
H162 C176 0.930 . S
H163 C178 0.960 . S
H164 C178 0.960 . S
H165 C178 0.960 . S
C166 H158 0.929 . S
C166 C167 1.377 . S
C166 C168 1.384 . S
C167 C166 1.377 . S
C167 C173 1.390 . S
C168 H159 0.930 . S
C168 C166 1.384 . S
C168 C169 1.372 . S
C169 C168 1.372 . S
C169 C170 1.400 . S
C169 C174 1.490 . S
C170 H160 0.930 . S
C170 C169 1.400 . S
C170 C173 1.386 . S
H171 C187 0.930 . S
H172 C188 0.931 . S
C173 H161 0.929 . S
C173 C167 1.390 . S
C173 C170 1.386 . S
C174 C169 1.490 . S
C174 C176 1.395 . S
C174 C177 1.403 . S
H175 C181 0.930 . S
C176 H162 0.930 . S
C176 C174 1.395 . S
C176 C179 1.403 . S
C177 C174 1.403 . S
C177 C178 1.524 . S
C177 C181 1.400 . S
C178 H163 0.960 . S
C178 H164 0.960 . S
C178 H165 0.960 . S
C178 C177 1.524 . S
C179 C176 1.403 . S
C179 C180 1.392 . S
C179 C183 1.495 . S
C180 C179 1.392 . S
C180 C181 1.385 . S
C180 C182 1.478 . S
C181 H175 0.930 . S
C181 C177 1.400 . S
C181 C180 1.385 . S
C182 C180 1.478 . S
C182 C184 1.381 . S
C182 C188 1.383 . S
C183 C179 1.495 . S
C183 H189 0.959 . S
C183 H190 0.961 . S
C183 H191 0.960 . S
C184 C182 1.381 . S
C184 C185 1.394 . S
C184 H192 0.930 . S
C185 C184 1.394 . S
C185 C186 1.383 . S
C185 H193 0.929 . S
C186 C185 1.383 . S
C186 C187 1.377 . S
C187 H171 0.930 . S
C187 C186 1.377 . S
C187 C188 1.379 . S
C188 H172 0.931 . S
C188 C182 1.383 . S
C188 C187 1.379 . S
H189 C183 0.959 . S
H190 C183 0.961 . S
H191 C183 0.960 . S
H192 C184 0.930 . S
H193 C185 0.929 . S
H194 C202 0.929 . S
H195 C204 0.930 . S
H196 C206 0.930 . S
H197 C209 0.929 . S
H198 C212 0.930 . S
H199 C214 0.960 . S
H200 C214 0.960 . S
H201 C214 0.960 . S
C202 H194 0.929 . S
C202 C203 1.377 . S
C202 C204 1.384 . S
C203 C202 1.377 . S
C203 C209 1.390 . S
C204 H195 0.930 . S
C204 C202 1.384 . S
C204 C205 1.372 . S
C205 C204 1.372 . S
C205 C206 1.400 . S
C205 C210 1.490 . S
C206 H196 0.930 . S
C206 C205 1.400 . S
C206 C209 1.386 . S
H207 C223 0.930 . S
H208 C224 0.931 . S
C209 H197 0.929 . S
C209 C203 1.390 . S
C209 C206 1.386 . S
C210 C205 1.490 . S
C210 C212 1.395 . S
C210 C213 1.403 . S
H211 C217 0.930 . S
C212 H198 0.930 . S
C212 C210 1.395 . S
C212 C215 1.403 . S
C213 C210 1.403 . S
C213 C214 1.524 . S
C213 C217 1.400 . S
C214 H199 0.960 . S
C214 H200 0.960 . S
C214 H201 0.960 . S
C214 C213 1.524 . S
C215 C212 1.403 . S
C215 C216 1.392 . S
C215 C219 1.495 . S
C216 C215 1.392 . S
C216 C217 1.385 . S
C216 C218 1.478 . S
C217 H211 0.930 . S
C217 C213 1.400 . S
C217 C216 1.385 . S
C218 C216 1.478 . S
C218 C220 1.381 . S
C218 C224 1.383 . S
C219 C215 1.495 . S
C219 H225 0.959 . S
C219 H226 0.961 . S
C219 H227 0.960 . S
C220 C218 1.381 . S
C220 C221 1.394 . S
C220 H228 0.930 . S
C221 C220 1.394 . S
C221 C222 1.383 . S
C221 H229 0.929 . S
C222 C221 1.383 . S
C222 C223 1.377 . S
C223 H207 0.930 . S
C223 C222 1.377 . S
C223 C224 1.379 . S
C224 H208 0.931 . S
C224 C218 1.383 . S
C224 C223 1.379 . S
H225 C219 0.959 . S
H226 C219 0.961 . S
H227 C219 0.960 . S
H228 C220 0.930 . S
H229 C221 0.929 . S
H230 C238 0.929 . S
H231 C240 0.930 . S
H232 C242 0.930 . S
H233 C245 0.929 . S
H234 C248 0.930 . S
H235 C250 0.960 . S
H236 C250 0.960 . S
H237 C250 0.960 . S
C238 H230 0.929 . S
C238 C239 1.377 . S
C238 C240 1.384 . S
C239 C238 1.377 . S
C239 C245 1.390 . S
C240 H231 0.930 . S
C240 C238 1.384 . S
C240 C241 1.372 . S
C241 C240 1.372 . S
C241 C242 1.400 . S
C241 C246 1.490 . S
C242 H232 0.930 . S
C242 C241 1.400 . S
C242 C245 1.386 . S
H243 C259 0.930 . S
H244 C260 0.931 . S
C245 H233 0.929 . S
C245 C239 1.390 . S
C245 C242 1.386 . S
C246 C241 1.490 . S
C246 C248 1.395 . S
C246 C249 1.403 . S
H247 C253 0.930 . S
C248 H234 0.930 . S
C248 C246 1.395 . S
C248 C251 1.403 . S
C249 C246 1.403 . S
C249 C250 1.524 . S
C249 C253 1.400 . S
C250 H235 0.960 . S
C250 H236 0.960 . S
C250 H237 0.960 . S
C250 C249 1.524 . S
C251 C248 1.403 . S
C251 C252 1.392 . S
C251 C255 1.495 . S
C252 C251 1.392 . S
C252 C253 1.385 . S
C252 C254 1.478 . S
C253 H247 0.930 . S
C253 C249 1.400 . S
C253 C252 1.385 . S
C254 C252 1.478 . S
C254 C256 1.381 . S
C254 C260 1.383 . S
C255 C251 1.495 . S
C255 H261 0.959 . S
C255 H262 0.961 . S
C255 H263 0.960 . S
C256 C254 1.381 . S
C256 C257 1.394 . S
C256 H264 0.930 . S
C257 C256 1.394 . S
C257 C258 1.383 . S
C257 H265 0.929 . S
C258 C257 1.383 . S
C258 C259 1.377 . S
C259 H243 0.930 . S
C259 C258 1.377 . S
C259 C260 1.379 . S
C260 H244 0.931 . S
C260 C254 1.383 . S
C260 C259 1.379 . S
H261 C255 0.959 . S
H262 C255 0.961 . S
H263 C255 0.960 . S
H264 C256 0.930 . S
H265 C257 0.929 . S
H266 C274 0.929 . S
H267 C276 0.930 . S
H268 C278 0.930 . S
H269 C281 0.929 . S
H270 C284 0.930 . S
H271 C286 0.960 . S
H272 C286 0.960 . S
H273 C286 0.960 . S
C274 H266 0.929 . S
C274 C275 1.377 . S
C274 C276 1.384 . S
C275 C274 1.377 . S
C275 C281 1.390 . S
C276 H267 0.930 . S
C276 C274 1.384 . S
C276 C277 1.372 . S
C277 C276 1.372 . S
C277 C278 1.400 . S
C277 C282 1.490 . S
C278 H268 0.930 . S
C278 C277 1.400 . S
C278 C281 1.386 . S
H279 C295 0.930 . S
H280 C296 0.931 . S
C281 H269 0.929 . S
C281 C275 1.390 . S
C281 C278 1.386 . S
C282 C277 1.490 . S
C282 C284 1.395 . S
C282 C285 1.403 . S
H283 C289 0.930 . S
C284 H270 0.930 . S
C284 C282 1.395 . S
C284 C287 1.403 . S
C285 C282 1.403 . S
C285 C286 1.524 . S
C285 C289 1.400 . S
C286 H271 0.960 . S
C286 H272 0.960 . S
C286 H273 0.960 . S
C286 C285 1.524 . S
C287 C284 1.403 . S
C287 C288 1.392 . S
C287 C291 1.495 . S
C288 C287 1.392 . S
C288 C289 1.385 . S
C288 C290 1.478 . S
C289 H283 0.930 . S
C289 C285 1.400 . S
C289 C288 1.385 . S
C290 C288 1.478 . S
C290 C292 1.381 . S
C290 C296 1.383 . S
C291 C287 1.495 . S
C291 H297 0.959 . S
C291 H298 0.961 . S
C291 H299 0.960 . S
C292 C290 1.381 . S
C292 C293 1.394 . S
C292 H300 0.930 . S
C293 C292 1.394 . S
C293 C294 1.383 . S
C293 H301 0.929 . S
C294 C293 1.383 . S
C294 C295 1.377 . S
C295 H279 0.930 . S
C295 C294 1.377 . S
C295 C296 1.379 . S
C296 H280 0.931 . S
C296 C290 1.383 . S
C296 C295 1.379 . S
H297 C291 0.959 . S
H298 C291 0.961 . S
H299 C291 0.960 . S
H300 C292 0.930 . S
H301 C293 0.929 . S
H302 C310 0.929 . S
H303 C312 0.930 . S
H304 C314 0.930 . S
H305 C317 0.929 . S
H306 C320 0.930 . S
H307 C322 0.960 . S
H308 C322 0.960 . S
H309 C322 0.960 . S
C310 H302 0.929 . S
C310 C311 1.377 . S
C310 C312 1.384 . S
C311 C310 1.377 . S
C311 C317 1.390 . S
C312 H303 0.930 . S
C312 C310 1.384 . S
C312 C313 1.372 . S
C313 C312 1.372 . S
C313 C314 1.400 . S
C313 C318 1.490 . S
C314 H304 0.930 . S
C314 C313 1.400 . S
C314 C317 1.386 . S
H315 C331 0.930 . S
H316 C332 0.931 . S
C317 H305 0.929 . S
C317 C311 1.390 . S
C317 C314 1.386 . S
C318 C313 1.490 . S
C318 C320 1.395 . S
C318 C321 1.403 . S
H319 C325 0.930 . S
C320 H306 0.930 . S
C320 C318 1.395 . S
C320 C323 1.403 . S
C321 C318 1.403 . S
C321 C322 1.524 . S
C321 C325 1.400 . S
C322 H307 0.960 . S
C322 H308 0.960 . S
C322 H309 0.960 . S
C322 C321 1.524 . S
C323 C320 1.403 . S
C323 C324 1.392 . S
C323 C327 1.495 . S
C324 C323 1.392 . S
C324 C325 1.385 . S
C324 C326 1.478 . S
C325 H319 0.930 . S
C325 C321 1.400 . S
C325 C324 1.385 . S
C326 C324 1.478 . S
C326 C328 1.381 . S
C326 C332 1.383 . S
C327 C323 1.495 . S
C327 H333 0.959 . S
C327 H334 0.961 . S
C327 H335 0.960 . S
C328 C326 1.381 . S
C328 C329 1.394 . S
C328 H336 0.930 . S
C329 C328 1.394 . S
C329 C330 1.383 . S
C329 H337 0.929 . S
C330 C329 1.383 . S
C330 C331 1.377 . S
C331 H315 0.930 . S
C331 C330 1.377 . S
C331 C332 1.379 . S
C332 H316 0.931 . S
C332 C326 1.383 . S
C332 C331 1.379 . S
H333 C327 0.959 . S
H334 C327 0.961 . S
H335 C327 0.960 . S
H336 C328 0.930 . S
H337 C329 0.929 . S
H338 C346 0.929 . S
H339 C348 0.930 . S
H340 C350 0.930 . S
H341 C353 0.929 . S
H342 C356 0.930 . S
H343 C358 0.960 . S
H344 C358 0.960 . S
H345 C358 0.960 . S
C346 H338 0.929 . S
C346 C347 1.377 . S
C346 C348 1.384 . S
C347 C346 1.377 . S
C347 C353 1.390 . S
C348 H339 0.930 . S
C348 C346 1.384 . S
C348 C349 1.372 . S
C349 C348 1.372 . S
C349 C350 1.400 . S
C349 C354 1.490 . S
C350 H340 0.930 . S
C350 C349 1.400 . S
C350 C353 1.386 . S
H351 C367 0.930 . S
H352 C368 0.931 . S
C353 H341 0.929 . S
C353 C347 1.390 . S
C353 C350 1.386 . S
C354 C349 1.490 . S
C354 C356 1.395 . S
C354 C357 1.403 . S
H355 C361 0.930 . S
C356 H342 0.930 . S
C356 C354 1.395 . S
C356 C359 1.403 . S
C357 C354 1.403 . S
C357 C358 1.524 . S
C357 C361 1.400 . S
C358 H343 0.960 . S
C358 H344 0.960 . S
C358 H345 0.960 . S
C358 C357 1.524 . S
C359 C356 1.403 . S
C359 C360 1.392 . S
C359 C363 1.495 . S
C360 C359 1.392 . S
C360 C361 1.385 . S
C360 C362 1.478 . S
C361 H355 0.930 . S
C361 C357 1.400 . S
C361 C360 1.385 . S
C362 C360 1.478 . S
C362 C364 1.381 . S
C362 C368 1.383 . S
C363 C359 1.495 . S
C363 H369 0.959 . S
C363 H370 0.961 . S
C363 H371 0.960 . S
C364 C362 1.381 . S
C364 C365 1.394 . S
C364 H372 0.930 . S
C365 C364 1.394 . S
C365 C366 1.383 . S
C365 H373 0.929 . S
C366 C365 1.383 . S
C366 C367 1.377 . S
C367 H351 0.930 . S
C367 C366 1.377 . S
C367 C368 1.379 . S
C368 H352 0.931 . S
C368 C362 1.383 . S
C368 C367 1.379 . S
H369 C363 0.959 . S
H370 C363 0.961 . S
H371 C363 0.960 . S
H372 C364 0.930 . S
H373 C365 0.929 . S
H374 C382 0.929 . S
H375 C384 0.930 . S
H376 C386 0.930 . S
H377 C389 0.929 . S
H378 C392 0.930 . S
H379 C394 0.960 . S
H380 C394 0.960 . S
H381 C394 0.960 . S
C382 H374 0.929 . S
C382 C383 1.377 . S
C382 C384 1.384 . S
C383 C382 1.377 . S
C383 C389 1.390 . S
C384 H375 0.930 . S
C384 C382 1.384 . S
C384 C385 1.372 . S
C385 C384 1.372 . S
C385 C386 1.400 . S
C385 C390 1.490 . S
C386 H376 0.930 . S
C386 C385 1.400 . S
C386 C389 1.386 . S
H387 C403 0.930 . S
H388 C404 0.931 . S
C389 H377 0.929 . S
C389 C383 1.390 . S
C389 C386 1.386 . S
C390 C385 1.490 . S
C390 C392 1.395 . S
C390 C393 1.403 . S
H391 C397 0.930 . S
C392 H378 0.930 . S
C392 C390 1.395 . S
C392 C395 1.403 . S
C393 C390 1.403 . S
C393 C394 1.524 . S
C393 C397 1.400 . S
C394 H379 0.960 . S
C394 H380 0.960 . S
C394 H381 0.960 . S
C394 C393 1.524 . S
C395 C392 1.403 . S
C395 C396 1.392 . S
C395 C399 1.495 . S
C396 C395 1.392 . S
C396 C397 1.385 . S
C396 C398 1.478 . S
C397 H391 0.930 . S
C397 C393 1.400 . S
C397 C396 1.385 . S
C398 C396 1.478 . S
C398 C400 1.381 . S
C398 C404 1.383 . S
C399 C395 1.495 . S
C399 H405 0.959 . S
C399 H406 0.961 . S
C399 H407 0.960 . S
C400 C398 1.381 . S
C400 C401 1.394 . S
C400 H408 0.930 . S
C401 C400 1.394 . S
C401 C402 1.383 . S
C401 H409 0.929 . S
C402 C401 1.383 . S
C402 C403 1.377 . S
C403 H387 0.930 . S
C403 C402 1.377 . S
C403 C404 1.379 . S
C404 H388 0.931 . S
C404 C398 1.383 . S
C404 C403 1.379 . S
H405 C399 0.959 . S
H406 C399 0.961 . S
H407 C399 0.960 . S
H408 C400 0.930 . S
H409 C401 0.929 . S
H410 C418 0.929 . S
H411 C420 0.930 . S
H412 C422 0.930 . S
H413 C425 0.929 . S
H414 C428 0.930 . S
H415 C430 0.960 . S
H416 C430 0.960 . S
H417 C430 0.960 . S
C418 H410 0.929 . S
C418 C419 1.377 . S
C418 C420 1.384 . S
C419 C418 1.377 . S
C419 C425 1.390 . S
C420 H411 0.930 . S
C420 C418 1.384 . S
C420 C421 1.372 . S
C421 C420 1.372 . S
C421 C422 1.400 . S
C421 C426 1.490 . S
C422 H412 0.930 . S
C422 C421 1.400 . S
C422 C425 1.386 . S
H423 C439 0.930 . S
H424 C440 0.931 . S
C425 H413 0.929 . S
C425 C419 1.390 . S
C425 C422 1.386 . S
C426 C421 1.490 . S
C426 C428 1.395 . S
C426 C429 1.403 . S
H427 C433 0.930 . S
C428 H414 0.930 . S
C428 C426 1.395 . S
C428 C431 1.403 . S
C429 C426 1.403 . S
C429 C430 1.524 . S
C429 C433 1.400 . S
C430 H415 0.960 . S
C430 H416 0.960 . S
C430 H417 0.960 . S
C430 C429 1.524 . S
C431 C428 1.403 . S
C431 C432 1.392 . S
C431 C435 1.495 . S
C432 C431 1.392 . S
C432 C433 1.385 . S
C432 C434 1.478 . S
C433 H427 0.930 . S
C433 C429 1.400 . S
C433 C432 1.385 . S
C434 C432 1.478 . S
C434 C436 1.381 . S
C434 C440 1.383 . S
C435 C431 1.495 . S
C435 H441 0.959 . S
C435 H442 0.961 . S
C435 H443 0.960 . S
C436 C434 1.381 . S
C436 C437 1.394 . S
C436 H444 0.930 . S
C437 C436 1.394 . S
C437 C438 1.383 . S
C437 H445 0.929 . S
C438 C437 1.383 . S
C438 C439 1.377 . S
C439 H423 0.930 . S
C439 C438 1.377 . S
C439 C440 1.379 . S
C440 H424 0.931 . S
C440 C434 1.383 . S
C440 C439 1.379 . S
H441 C435 0.959 . S
H442 C435 0.961 . S
H443 C435 0.960 . S
H444 C436 0.930 . S
H445 C437 0.929 . S
H446 C454 0.929 . S
H447 C456 0.930 . S
H448 C458 0.930 . S
H449 C461 0.929 1_455 S
H450 C464 0.930 . S
H451 C466 0.960 . S
H452 C466 0.960 . S
H453 C466 0.960 . S
C454 H446 0.929 . S
C454 C455 1.377 . S
C454 C456 1.384 . S
C455 C454 1.377 . S
C455 C461 1.390 . S
C456 H447 0.930 . S
C456 C454 1.384 . S
C456 C457 1.372 . S
C457 C456 1.372 . S
C457 C458 1.400 . S
C457 C462 1.490 . S
C458 H448 0.930 . S
C458 C457 1.400 . S
C458 C461 1.386 . S
H459 C475 0.930 . S
H460 C476 0.931 . S
C461 H449 0.929 1_655 S
C461 C455 1.390 . S
C461 C458 1.386 . S
C462 C457 1.490 . S
C462 C464 1.395 . S
C462 C465 1.403 . S
H463 C469 0.930 . S
C464 H450 0.930 . S
C464 C462 1.395 . S
C464 C467 1.403 . S
C465 C462 1.403 . S
C465 C466 1.524 . S
C465 C469 1.400 . S
C466 H451 0.960 . S
C466 H452 0.960 . S
C466 H453 0.960 . S
C466 C465 1.524 . S
C467 C464 1.403 . S
C467 C468 1.392 . S
C467 C471 1.495 . S
C468 C467 1.392 . S
C468 C469 1.385 . S
C468 C470 1.478 . S
C469 H463 0.930 . S
C469 C465 1.400 . S
C469 C468 1.385 . S
C470 C468 1.478 . S
C470 C472 1.381 . S
C470 C476 1.383 . S
C471 C467 1.495 . S
C471 H477 0.959 . S
C471 H478 0.961 . S
C471 H479 0.960 . S
C472 C470 1.381 . S
C472 C473 1.394 . S
C472 H480 0.930 . S
C473 C472 1.394 . S
C473 C474 1.383 . S
C473 H481 0.929 . S
C474 C473 1.383 . S
C474 C475 1.377 . S
C475 H459 0.930 . S
C475 C474 1.377 . S
C475 C476 1.379 . S
C476 H460 0.931 . S
C476 C470 1.383 . S
C476 C475 1.379 . S
H477 C471 0.959 . S
H478 C471 0.961 . S
H479 C471 0.960 . S
H480 C472 0.930 . S
H481 C473 0.929 . S
H482 C490 0.910 1_545 S
H483 C492 0.930 . S
H484 C494 0.930 . S
H485 C497 0.929 . S
H486 C500 0.930 . S
H487 C502 0.960 . S
H488 C502 0.960 . S
H489 C502 0.960 . S
C490 H482 0.910 1_565 S
C490 C491 1.377 . S
C490 C492 1.384 . S
C491 C490 1.377 . S
C491 C497 1.390 . S
C492 H483 0.930 . S
C492 C490 1.384 . S
C492 C493 1.372 . S
C493 C492 1.372 . S
C493 C494 1.400 . S
C493 C498 1.490 . S
C494 H484 0.930 . S
C494 C493 1.400 . S
C494 C497 1.386 . S
H495 C511 0.930 . S
H496 C512 0.931 . S
C497 H485 0.929 . S
C497 C491 1.390 . S
C497 C494 1.386 . S
C498 C493 1.490 . S
C498 C500 1.395 . S
C498 C501 1.403 . S
H499 C505 0.930 . S
C500 H486 0.930 . S
C500 C498 1.395 . S
C500 C503 1.403 . S
C501 C498 1.403 . S
C501 C502 1.524 . S
C501 C505 1.400 . S
C502 H487 0.960 . S
C502 H488 0.960 . S
C502 H489 0.960 . S
C502 C501 1.524 . S
C503 C500 1.403 . S
C503 C504 1.392 . S
C503 C507 1.495 . S
C504 C503 1.392 . S
C504 C505 1.385 . S
C504 C506 1.478 . S
C505 H499 0.930 . S
C505 C501 1.400 . S
C505 C504 1.385 . S
C506 C504 1.478 . S
C506 C508 1.381 . S
C506 C512 1.383 . S
C507 C503 1.495 . S
C507 H513 0.959 . S
C507 H514 0.961 . S
C507 H515 0.960 . S
C508 C506 1.381 . S
C508 C509 1.394 . S
C508 H516 0.930 . S
C509 C508 1.394 . S
C509 C510 1.383 . S
C509 H517 0.929 . S
C510 C509 1.383 . S
C510 C511 1.377 . S
C511 H495 0.930 . S
C511 C510 1.377 . S
C511 C512 1.379 . S
C512 H496 0.931 . S
C512 C506 1.383 . S
C512 C511 1.379 . S
H513 C507 0.959 . S
H514 C507 0.961 . S
H515 C507 0.960 . S
H516 C508 0.930 . S
H517 C509 0.929 . S
H518 C526 0.929 . S
H519 C528 0.930 . S
H520 C530 0.930 . S
H521 C533 0.929 . S
H522 C536 0.930 . S
H523 C538 0.960 . S
H524 C538 0.960 . S
H525 C538 0.960 . S
C526 H518 0.929 . S
C526 C527 1.377 . S
C526 C528 1.384 . S
C527 C526 1.377 . S
C527 C533 1.390 . S
C528 H519 0.930 . S
C528 C526 1.384 . S
C528 C529 1.372 . S
C529 C528 1.372 . S
C529 C530 1.400 . S
C529 C534 1.490 . S
C530 H520 0.930 . S
C530 C529 1.400 . S
C530 C533 1.386 . S
H531 C547 0.930 . S
H532 C548 0.931 . S
C533 H521 0.929 . S
C533 C527 1.390 . S
C533 C530 1.386 . S
C534 C529 1.490 . S
C534 C536 1.395 . S
C534 C537 1.403 . S
H535 C541 0.930 . S
C536 H522 0.930 . S
C536 C534 1.395 . S
C536 C539 1.403 . S
C537 C534 1.403 . S
C537 C538 1.524 . S
C537 C541 1.400 . S
C538 H523 0.960 . S
C538 H524 0.960 . S
C538 H525 0.960 . S
C538 C537 1.524 . S
C539 C536 1.403 . S
C539 C540 1.392 . S
C539 C543 1.495 . S
C540 C539 1.392 . S
C540 C541 1.385 . S
C540 C542 1.478 . S
C541 H535 0.930 . S
C541 C537 1.400 . S
C541 C540 1.385 . S
C542 C540 1.478 . S
C542 C544 1.381 . S
C542 C548 1.383 . S
C543 C539 1.495 . S
C543 H549 0.959 . S
C543 H550 0.961 . S
C543 H551 0.960 . S
C544 C542 1.381 . S
C544 C545 1.394 . S
C544 H552 0.930 . S
C545 C544 1.394 . S
C545 C546 1.383 . S
C545 H553 0.929 . S
C546 C545 1.383 . S
C546 C547 1.377 . S
C547 H531 0.930 . S
C547 C546 1.377 . S
C547 C548 1.379 . S
C548 H532 0.931 . S
C548 C542 1.383 . S
C548 C547 1.379 . S
H549 C543 0.959 . S
H550 C543 0.961 . S
H551 C543 0.960 . S
H552 C544 0.930 . S
H553 C545 0.929 . S
C131 C19 1.885 . S
C150 C99 1.783 . S
C167 C59 1.115 . S
C186 C105 1.065 . S
C203 C6 0.766 . S
C222 C96 0.833 . S
C239 C46 1.270 . S
C258 C121 1.212 . S
C275 C9 2.109 . S
C294 C87 2.011 . S
C330 C104 2.280 . S
C311 C49 2.372 . S
C347 C55 1.178 . S
C366 C100 1.081 . S
C402 C117 1.809 . S
C383 C18 1.867 . S
C438 C84 2.138 . S
C419 C58 2.231 . S
C474 C120 1.969 . S
C455 C10 2.049 . S
C510 C83 1.266 . S
C491 C50 1.326 . S
C546 C108 0.703 . S
C527 C15 0.764 . S
