# Generated by pormake.
# Topology ssa, (4,4)-cn, num edge types: 1
# Building blocks:
#     Node 0, Type 0, BuildingBlock: KOZSID_clean_sbu_0, # of connection points: 4
#     Node 1, Type 0, BuildingBlock: KOZSID_clean_sbu_0, # of connection points: 4
#     Node 2, Type 0, BuildingBlock: KOZSID_clean_sbu_0, # of connection points: 4
#     Node 3, Type 0, BuildingBlock: KOZSID_clean_sbu_0, # of connection points: 4
#     Node 4, Type 0, BuildingBlock: KOZSID_clean_sbu_0, # of connection points: 4
#     Node 5, Type 0, BuildingBlock: KOZSID_clean_sbu_0, # of connection points: 4
#     Node 6, Type 1, BuildingBlock: KOZSID_clean_sbu_0, # of connection points: 4
#     Node 7, Type 1, BuildingBlock: KOZSID_clean_sbu_0, # of connection points: 4
#     Node 8, Type 1, BuildingBlock: KOZSID_clean_sbu_0, # of connection points: 4
#     Node 9, Type 1, BuildingBlock: KOZSID_clean_sbu_0, # of connection points: 4
#     Node 10, Type 1, BuildingBlock: KOZSID_clean_sbu_0, # of connection points: 4
#     Node 11, Type 1, BuildingBlock: KOZSID_clean_sbu_0, # of connection points: 4
#     Edge 12, Type (0, 1), BuildingBlock: ZUJKAS_clean_linker_0, # of connection points: 2
#     Edge 13, Type (0, 1), BuildingBlock: ZUJKAS_clean_linker_0, # of connection points: 2
#     Edge 14, Type (0, 1), BuildingBlock: ZUJKAS_clean_linker_0, # of connection points: 2
#     Edge 15, Type (0, 1), BuildingBlock: ZUJKAS_clean_linker_0, # of connection points: 2
#     Edge 16, Type (0, 1), BuildingBlock: ZUJKAS_clean_linker_0, # of connection points: 2
#     Edge 17, Type (0, 1), BuildingBlock: ZUJKAS_clean_linker_0, # of connection points: 2
#     Edge 18, Type (0, 1), BuildingBlock: ZUJKAS_clean_linker_0, # of connection points: 2
#     Edge 19, Type (0, 1), BuildingBlock: ZUJKAS_clean_linker_0, # of connection points: 2
#     Edge 20, Type (0, 1), BuildingBlock: ZUJKAS_clean_linker_0, # of connection points: 2
#     Edge 21, Type (0, 1), BuildingBlock: ZUJKAS_clean_linker_0, # of connection points: 2
#     Edge 22, Type (0, 1), BuildingBlock: ZUJKAS_clean_linker_0, # of connection points: 2
#     Edge 23, Type (0, 1), BuildingBlock: ZUJKAS_clean_linker_0, # of connection points: 2
#     Edge 24, Type (0, 1), BuildingBlock: ZUJKAS_clean_linker_0, # of connection points: 2
#     Edge 25, Type (0, 1), BuildingBlock: ZUJKAS_clean_linker_0, # of connection points: 2
#     Edge 26, Type (0, 1), BuildingBlock: ZUJKAS_clean_linker_0, # of connection points: 2
#     Edge 27, Type (0, 1), BuildingBlock: ZUJKAS_clean_linker_0, # of connection points: 2
#     Edge 28, Type (0, 1), BuildingBlock: ZUJKAS_clean_linker_0, # of connection points: 2
#     Edge 29, Type (0, 1), BuildingBlock: ZUJKAS_clean_linker_0, # of connection points: 2
#     Edge 30, Type (0, 1), BuildingBlock: ZUJKAS_clean_linker_0, # of connection points: 2
#     Edge 31, Type (0, 1), BuildingBlock: ZUJKAS_clean_linker_0, # of connection points: 2
#     Edge 32, Type (0, 1), BuildingBlock: ZUJKAS_clean_linker_0, # of connection points: 2
#     Edge 33, Type (0, 1), BuildingBlock: ZUJKAS_clean_linker_0, # of connection points: 2
#     Edge 34, Type (0, 1), BuildingBlock: ZUJKAS_clean_linker_0, # of connection points: 2
#     Edge 35, Type (0, 1), BuildingBlock: ZUJKAS_clean_linker_0, # of connection points: 2
# Relax obj value: 0.007
# Max RMSD: 0.032
# Mean RMSD: 0.016
data_MOF--net-ssa--node1-KOZSID_clean_sbu_0--node2-KOZSID_clean_sbu_0--edge1-ZUJKAS_clean_linker_0
_symmetry_space_group_name_H-M    P1
_symmetry_Int_Tables_number       1
_symmetry_cell_setting            triclinic
loop_
_symmetry_equiv_pos_as_xyz
'x, y, z'
_cell_length_a     72.56763
_cell_length_b     73.905847
_cell_length_c     52.16892
_cell_angle_alpha  90.431147
_cell_angle_beta   92.493427
_cell_angle_gamma 121.88745
loop_
_atom_site_label
_atom_site_type_symbol
_atom_site_fract_x
_atom_site_fract_y
_atom_site_fract_z
_atom_type_partial_charge
C0 C 0.96108 0.50625 0.99467 0.0
C1 C 0.94266 0.50252 0.0065 0.0
C2 C 0.94251 0.49368 0.0294 0.0
C3 C 0.96079 0.49261 0.03033 0.0
N4 N 0.97281 0.50043 0.00951 0.0
Co5 Co 1.0005 0.50161 0.00291 0.0
N6 N 0.99987 0.48798 0.03632 0.0
C7 C 0.98472 0.48165 0.05403 0.0
C8 C 0.98871 0.47309 0.07517 0.0
C9 C 0.00766 0.47416 0.07089 0.0
C10 C 0.01421 0.48344 0.04731 0.0
N11 N 0.02806 0.50255 0.99617 0.0
C12 C 0.03966 0.49649 0.01086 0.0
C13 C 0.05818 0.50042 0.99911 0.0
C14 C 0.0583 0.50921 0.9762 0.0
C15 C 0.03998 0.51023 0.97526 0.0
N16 N 1.00126 0.51546 0.96963 0.0
C17 C 0.01659 0.52206 0.95212 0.0
C18 C 0.01253 0.53044 0.93086 0.0
C19 C 0.9934 0.52906 0.93489 0.0
C20 C 0.98689 0.51996 0.95858 0.0
N21 N 0.01772 0.53006 0.02056 0.0
C22 C 0.04436 0.569 0.04816 0.0
C23 C 0.04995 0.56544 0.0242 0.0
C24 C 0.03644 0.54606 0.01078 0.0
C25 C 0.02468 0.55317 0.05747 0.0
C26 C 0.01171 0.53401 0.04346 0.0
N27 N 0.98327 0.47316 0.98528 0.0
C28 C 0.97518 0.45031 0.94773 0.0
C29 C 0.95624 0.43413 0.95808 0.0
C30 C 0.95165 0.4374 0.98277 0.0
C31 C 0.96531 0.45684 0.99595 0.0
C32 C 0.9884 0.46952 0.9616 0.0
H33 H 0.96074 0.4584 0.01453 0.0
H34 H 0.00238 0.48135 0.95249 0.0
H35 H 0.04177 0.54424 0.99282 0.0
H36 H 0.99713 0.52251 0.05183 0.0
C37 C 0.967 0.48413 0.05034 0.0
C38 C 0.96656 0.51519 0.96925 0.0
C39 C 0.03424 0.48767 0.03634 0.0
C40 C 0.03404 0.51916 0.95556 0.0
H41 H 0.93051 0.50574 0.99927 0.0
H42 H 0.93041 0.48851 0.0436 0.0
H43 H 0.97905 0.46693 0.09178 0.0
H44 H 0.01579 0.46881 0.08375 0.0
H45 H 0.07056 0.49757 0.00649 0.0
H46 H 0.0705 0.5146 0.96211 0.0
H47 H 0.0221 0.5364 0.91414 0.0
H48 H 0.98502 0.53386 0.92162 0.0
H49 H 0.06508 0.57721 0.01618 0.0
H50 H 0.01941 0.55539 0.0757 0.0
H51 H 0.9794 0.44851 0.92861 0.0
H52 H 0.93738 0.42511 0.9918 0.0
C53 C 0.53896 0.01211 0.54078 0.0
C54 C 0.54302 0.00517 0.5638 0.0
C55 C 0.524 0.98729 0.56957 0.0
C56 C 0.50945 0.98438 0.54992 0.0
N57 N 0.51807 0.99919 0.53175 0.0
Co58 Co 0.50253 0.00144 0.50031 0.0
N59 N 0.47415 0.97621 0.51002 0.0
C60 C 0.47036 0.96473 0.53138 0.0
C61 C 0.44928 0.94809 0.53246 0.0
C62 C 0.43901 0.94879 0.51031 0.0
C63 C 0.45452 0.96592 0.497 0.0
N64 N 0.48707 0.0035 0.4687 0.0
C65 C 0.46627 0.99036 0.45952 0.0
C66 C 0.4621 0.99707 0.43643 0.0
C67 C 0.4811 0.01495 0.43053 0.0
C68 C 0.49568 0.0181 0.4503 0.0
N69 N 0.53083 0.02682 0.49075 0.0
C70 C 0.53453 0.03858 0.46966 0.0
C71 C 0.5556 0.0553 0.46867 0.0
C72 C 0.56592 0.05438 0.49064 0.0
C73 C 0.55045 0.03712 0.50381 0.0
N74 N 0.50884 0.98217 0.48087 0.0
C75 C 0.5175 0.95467 0.45305 0.0
C76 C 0.5213 0.97373 0.44287 0.0
C77 C 0.51691 0.98708 0.45694 0.0
C78 C 0.50924 0.94966 0.47746 0.0
C79 C 0.50505 0.96346 0.49087 0.0
N80 N 0.49624 0.02072 0.51976 0.0
C81 C 0.49427 0.05241 0.52231 0.0
C82 C 0.48787 0.04846 0.54761 0.0
C83 C 0.48571 0.03028 0.55862 0.0
C84 C 0.48985 0.01675 0.54449 0.0
C85 C 0.49842 0.03856 0.50895 0.0
H86 H 0.48792 0.00325 0.5541 0.0
H87 H 0.50341 0.04268 0.48989 0.0
H88 H 0.52005 0.00124 0.44795 0.0
H89 H 0.49872 0.95864 0.5093 0.0
C90 C 0.48726 0.96896 0.54907 0.0
C91 C 0.55497 0.0318 0.52916 0.0
C92 C 0.45023 0.97088 0.47134 0.0
C93 C 0.51774 0.03399 0.45156 0.0
H94 H 0.55798 0.01254 0.57565 0.0
H95 H 0.52095 0.97796 0.58653 0.0
H96 H 0.44237 0.93641 0.54717 0.0
H97 H 0.42217 0.93759 0.50431 0.0
H98 H 0.44698 0.98954 0.42483 0.0
H99 H 0.48407 0.02425 0.41356 0.0
H100 H 0.56251 0.06701 0.45399 0.0
H101 H 0.58283 0.06539 0.49659 0.0
H102 H 0.52733 0.97825 0.42388 0.0
H103 H 0.50622 0.93522 0.48641 0.0
H104 H 0.4959 0.06606 0.51263 0.0
H105 H 0.48117 0.02657 0.57827 0.0
C106 C 0.53843 0.52763 0.96548 0.0
C107 C 0.54387 0.53974 0.94372 0.0
C108 C 0.52578 0.53971 0.93535 0.0
C109 C 0.51044 0.52765 0.95243 0.0
N110 N 0.51774 0.52032 0.97152 0.0
Co111 Co 0.50065 0.50128 0.99968 0.0
N112 N 0.47359 0.49998 0.9864 0.0
C113 C 0.4714 0.50981 0.96576 0.0
C114 C 0.45119 0.50696 0.96231 0.0
C115 C 0.43988 0.49492 0.98221 0.0
C116 C 0.4539 0.49104 0.99662 0.0
N117 N 0.48345 0.48182 0.02745 0.0
C118 C 0.46268 0.47426 0.03334 0.0
C119 C 0.45694 0.46127 0.05431 0.0
C120 C 0.47493 0.46099 0.06235 0.0
C121 C 0.4905 0.47369 0.04581 0.0
N122 N 0.52783 0.503 0.01334 0.0
C123 C 0.53024 0.49394 0.03464 0.0
C124 C 0.55072 0.49758 0.03877 0.0
C125 C 0.56202 0.50944 0.01874 0.0
C126 C 0.54769 0.51237 0.00352 0.0
N127 N 0.50807 0.52654 0.02193 0.0
C128 C 0.51696 0.56171 0.05389 0.0
C129 C 0.51699 0.54423 0.06395 0.0
C130 C 0.51266 0.52706 0.0478 0.0
C131 C 0.51266 0.5613 0.02742 0.0
C132 C 0.50822 0.54373 0.012 0.0
N133 N 0.49323 0.47602 0.97743 0.0
C134 C 0.49221 0.44302 0.97062 0.0
C135 C 0.48425 0.44099 0.94519 0.0
C136 C 0.48063 0.45672 0.93633 0.0
C137 C 0.48518 0.47391 0.95259 0.0
C138 C 0.49653 0.46046 0.98624 0.0
H139 H 0.48216 0.48535 0.94453 0.0
H140 H 0.50277 0.46111 0.00529 0.0
H141 H 0.51288 0.51428 0.05677 0.0
H142 H 0.50484 0.54441 0.9921 0.0
C143 C 0.48889 0.52239 0.95065 0.0
C144 C 0.55312 0.52265 0.97893 0.0
C145 C 0.44834 0.48008 0.02078 0.0
C146 C 0.5124 0.48017 0.04869 0.0
H147 H 0.55921 0.54741 0.93457 0.0
H148 H 0.52389 0.54716 0.91851 0.0
H149 H 0.44556 0.51341 0.94754 0.0
H150 H 0.42338 0.49007 0.98603 0.0
H151 H 0.44154 0.4534 0.06333 0.0
H152 H 0.47671 0.45319 0.07891 0.0
H153 H 0.55648 0.49154 0.0539 0.0
H154 H 0.57869 0.51468 0.0153 0.0
H155 H 0.51993 0.5435 0.08434 0.0
H156 H 0.5128 0.57453 0.01845 0.0
H157 H 0.49558 0.43145 0.9784 0.0
H158 H 0.47416 0.45578 0.91692 0.0
C159 C 0.96244 0.45858 0.51072 0.0
C160 C 0.94209 0.44399 0.4993 0.0
C161 C 0.94048 0.45212 0.47653 0.0
C162 C 0.95975 0.47121 0.47537 0.0
N163 N 0.97373 0.47575 0.49593 0.0
Co164 Co 0.00299 0.5026 0.50267 0.0
N165 N 0.99998 0.51505 0.46978 0.0
C166 C 0.98283 0.50595 0.4524 0.0
C167 C 0.98552 0.51808 0.43152 0.0
C168 C 0.00571 0.53593 0.43559 0.0
C169 C 0.01424 0.5336 0.45879 0.0
N170 N 0.03223 0.52948 0.50944 0.0
C171 C 0.04341 0.54673 0.49476 0.0
C172 C 0.06356 0.56159 0.50639 0.0
C173 C 0.06522 0.55346 0.52914 0.0
C174 C 0.04613 0.53415 0.53011 0.0
N175 N 0.00604 0.49013 0.53551 0.0
C176 C 0.02327 0.49919 0.55278 0.0
C177 C 0.02078 0.48689 0.57342 0.0
C178 C 1.00064 0.46898 0.5693 0.0
C179 C 0.99189 0.47146 0.54637 0.0
N180 N 0.01692 0.4898 0.48413 0.0
C181 C 0.03909 0.47537 0.45566 0.0
C182 C 0.04691 0.48466 0.48024 0.0
C183 C 0.03567 0.49167 0.494 0.0
C184 C 0.01942 0.47251 0.44606 0.0
C185 C 0.00864 0.47969 0.46056 0.0
N186 N 0.98907 0.51541 0.52122 0.0
C187 C 0.98647 0.53231 0.55955 0.0
C188 C 0.96704 0.52989 0.54983 0.0
C189 C 0.95933 0.52099 0.52508 0.0
C190 C 0.97052 0.51393 0.51122 0.0
C191 C 0.9972 0.52515 0.54498 0.0
H192 H 0.96356 0.50691 0.49271 0.0
H193 H 0.01182 0.52734 0.55357 0.0
H194 H 0.04272 0.49889 0.51239 0.0
H195 H 0.99389 0.4773 0.45205 0.0
C196 C 0.96472 0.48568 0.45586 0.0
C197 C 0.96991 0.45581 0.53605 0.0
C198 C 0.03609 0.54933 0.46929 0.0
C199 C 0.04129 0.51959 0.54949 0.0
H200 H 0.92944 0.42919 0.50681 0.0
H201 H 0.92666 0.44519 0.46278 0.0
H202 H 0.97427 0.51425 0.4151 0.0
H203 H 0.0134 0.54909 0.4228 0.0
H204 H 0.07599 0.57657 0.49898 0.0
H205 H 0.07895 0.56054 0.54303 0.0
H206 H 0.03214 0.49063 0.58969 0.0
H207 H 0.99315 0.45569 0.58193 0.0
H208 H 0.06182 0.48674 0.48879 0.0
H209 H 0.01268 0.46543 0.42708 0.0
H210 H 0.99329 0.53952 0.57847 0.0
H211 H 0.94429 0.51874 0.51676 0.0
C212 C 0.47599 0.99215 0.04985 0.0
C213 C 0.47677 1.00055 0.07406 0.0
C214 C 0.49596 0.01969 0.07677 0.0
C215 C 0.50575 0.02195 0.05414 0.0
N216 N 0.49389 0.00551 0.03696 0.0
Co217 Co 0.50233 0.0022 0.00185 0.0
N218 N 0.53095 0.03011 0.00622 0.0
C219 C 0.53835 0.04377 0.0269 0.0
C220 C 0.5581 0.06203 0.02403 0.0
C221 C 0.56364 0.06006 0.99999 0.0
C222 C 0.54691 0.04056 0.98956 0.0
N223 N 0.5109 0.99877 0.96687 0.0
C224 C 0.52884 0.01207 0.95402 0.0
C225 C 0.52832 0.00343 0.93008 0.0
C226 C 0.50925 0.98417 0.9275 0.0
C227 C 0.49928 0.98208 0.94995 0.0
N228 N 0.47361 0.97442 0.99735 0.0
C229 C 0.46603 0.96097 0.97646 0.0
C230 C 0.44607 0.94292 0.97911 0.0
C231 C 0.44055 0.94482 0.00318 0.0
C232 C 0.45752 0.96408 0.01388 0.0
N233 N 0.48886 0.01734 0.98678 0.0
C234 C 0.47274 0.04075 0.96325 0.0
C235 C 0.46837 0.02156 0.95211 0.0
C236 C 0.47649 0.01018 0.96413 0.0
C237 C 0.48449 0.04756 0.98689 0.0
C238 C 0.49226 0.03567 0.99826 0.0
N239 N 0.51576 0.98703 0.01699 0.0
C240 C 0.51785 0.9555 0.01918 0.0
C241 C 0.53047 0.96307 0.04222 0.0
C242 C 0.53668 0.98338 0.05158 0.0
C243 C 0.52927 0.99501 0.03873 0.0
C244 C 0.51085 0.96771 0.00691 0.0
H245 H 0.53428 0.01019 0.04711 0.0
H246 H 0.50098 0.96088 0.98969 0.0
H247 H 0.47294 0.99589 0.95444 0.0
H248 H 0.50126 0.04185 0.01612 0.0
C249 C 0.52613 0.03922 0.04854 0.0
C250 C 0.45796 0.97137 0.04015 0.0
C251 C 0.5466 0.03308 0.96344 0.0
C252 C 0.47859 0.96515 0.9552 0.0
H253 H 0.46474 0.99351 0.08835 0.0
H254 H 0.50211 0.0306 0.09333 0.0
H255 H 0.56722 0.07535 0.03764 0.0
H256 H 0.5782 0.07184 0.99103 0.0
H257 H 0.5404 0.01044 0.91583 0.0
H258 H 0.5032 0.97315 0.91104 0.0
H259 H 0.43687 0.92969 0.96539 0.0
H260 H 0.42588 0.93312 0.01202 0.0
H261 H 0.45941 0.01568 0.93371 0.0
H262 H 0.48791 0.06216 0.99649 0.0
H263 H 0.51259 0.93985 0.01113 0.0
H264 H 0.54692 0.99016 0.06904 0.0
C265 C 0.5122 0.54658 0.50364 0.0
C266 C 0.5083 0.56015 0.5177 0.0
C267 C 0.49569 0.54865 0.53711 0.0
C268 C 0.49246 0.52877 0.53373 0.0
N269 N 0.50255 0.52692 0.51356 0.0
Co270 Co 0.50078 0.50038 0.50052 0.0
N271 N 0.48093 0.48315 0.52799 0.0
C272 C 0.47332 0.49002 0.54649 0.0
C273 C 0.4607 0.47462 0.56322 0.0
C274 C 0.4606 0.45694 0.55524 0.0
C275 C 0.47323 0.46268 0.53406 0.0
N276 N 0.4987 0.47377 0.48721 0.0
C277 C 0.48898 0.45411 0.49707 0.0
C278 C 0.49185 0.44017 0.48231 0.0
C279 C 0.5041 0.45154 0.46255 0.0
C280 C 0.50799 0.47166 0.4664 0.0
N281 N 0.52094 0.51767 0.47335 0.0
C282 C 0.52905 0.51088 0.45537 0.0
C283 C 0.54254 0.52651 0.43939 0.0
C284 C 0.54284 0.54427 0.4474 0.0
C285 C 0.52933 0.53836 0.46778 0.0
N286 N 0.52622 0.50678 0.52373 0.0
C287 C 0.56165 0.51465 0.55709 0.0
C288 C 0.55951 0.50708 0.53184 0.0
C289 C 0.54191 0.5034 0.51561 0.0
C290 C 0.54582 0.51837 0.56528 0.0
C291 C 0.52835 0.51427 0.54849 0.0
N292 N 0.47533 0.49397 0.4773 0.0
C293 C 0.45705 0.48497 0.43495 0.0
C294 C 0.43973 0.48595 0.44402 0.0
C295 C 0.44055 0.4909 0.47013 0.0
C296 C 0.45829 0.49478 0.48625 0.0
C297 C 0.4745 0.48901 0.45172 0.0
H298 H 0.4579 0.49861 0.50583 0.0
H299 H 0.48716 0.48811 0.44349 0.0
H300 H 0.54133 0.4977 0.49661 0.0
H301 H 0.51667 0.51708 0.55609 0.0
C302 C 0.47916 0.51126 0.54837 0.0
C303 C 0.52395 0.55261 0.48012 0.0
C304 C 0.47851 0.44852 0.52138 0.0
C305 C 0.52224 0.48938 0.4526 0.0
H306 H 0.51348 0.5765 0.51403 0.0
H307 H 0.48908 0.55396 0.55148 0.0
H308 H 0.45303 0.47623 0.57968 0.0
H309 H 0.45262 0.4417 0.56434 0.0
H310 H 0.48634 0.42372 0.48592 0.0
H311 H 0.51026 0.44604 0.44783 0.0
H312 H 0.55062 0.52498 0.42329 0.0
H313 H 0.5515 0.5597 0.43879 0.0
H314 H 0.57149 0.50419 0.52447 0.0
H315 H 0.54662 0.52401 0.58477 0.0
H316 H 0.45714 0.48092 0.41498 0.0
H317 H 0.42775 0.49217 0.47815 0.0
C318 C 0.20945 0.48093 0.19256 0.0
C319 C 0.21346 0.50066 0.18518 0.0
C320 C 0.23182 0.51569 0.19884 0.0
C321 C 0.23805 0.50435 0.21357 0.0
N322 N 0.22495 0.48296 0.20993 0.0
Co323 Co 0.22817 0.46057 0.22737 0.0
N324 N 0.25401 0.48268 0.24923 0.0
C325 C 0.26281 0.50403 0.24951 0.0
C326 C 0.28027 0.51515 0.26671 0.0
C327 C 0.28294 0.50005 0.27802 0.0
C328 C 0.26696 0.4805 0.26686 0.0
N329 N 0.23165 0.43821 0.24457 0.0
C330 C 0.24701 0.44027 0.26225 0.0
C331 C 0.24394 0.4206 0.26818 0.0
C332 C 0.22605 0.4056 0.25378 0.0
C333 C 0.21928 0.41688 0.23983 0.0
N334 N 0.20207 0.43847 0.20578 0.0
C335 C 0.1929 0.41708 0.20598 0.0
C336 C 0.17444 0.4059 0.19023 0.0
C337 C 0.17143 0.42099 0.17953 0.0
C338 C 0.18838 0.44063 0.18929 0.0
N339 N 0.24774 0.46242 0.20068 0.0
C340 C 0.27771 0.46478 0.16619 0.0
C341 C 0.25943 0.44519 0.1717 0.0
C342 C 0.24475 0.4444 0.18876 0.0
C343 C 0.28028 0.48323 0.17748 0.0
C344 C 0.26522 0.4817 0.19446 0.0
N345 N 0.20865 0.45866 0.25405 0.0
C346 C 0.17829 0.4375 0.28039 0.0
C347 C 0.17966 0.4558 0.29028 0.0
C348 C 0.19601 0.47558 0.28204 0.0
C349 C 0.21023 0.47663 0.26411 0.0
C350 C 0.19285 0.43928 0.26248 0.0
H351 H 0.22219 0.49215 0.25845 0.0
H352 H 0.19087 0.42474 0.25563 0.0
H353 H 0.23135 0.42897 0.19234 0.0
H354 H 0.26828 0.49634 0.20257 0.0
C355 C 0.25508 0.51326 0.23239 0.0
C356 C 0.19028 0.4608 0.18319 0.0
C357 C 0.26514 0.46044 0.27328 0.0
C358 C 0.20153 0.40794 0.22195 0.0
H359 H 0.20385 0.50386 0.1717 0.0
H360 H 0.23938 0.53282 0.1986 0.0
H361 H 0.29013 0.53224 0.27028 0.0
H362 H 0.29542 0.50312 0.2926 0.0
H363 H 0.25378 0.41742 0.28129 0.0
H364 H 0.21898 0.38852 0.2533 0.0
H365 H 0.1641 0.38877 0.18736 0.0
H366 H 0.15799 0.41782 0.16644 0.0
H367 H 0.25673 0.43042 0.16351 0.0
H368 H 0.29393 0.49884 0.17336 0.0
H369 H 0.1661 0.42183 0.28649 0.0
H370 H 0.19759 0.49022 0.28894 0.0
C371 C 0.72848 0.20951 0.69913 0.0
C372 C 0.71165 0.2118 0.68968 0.0
C373 C 0.71325 0.22846 0.70324 0.0
C374 C 0.73074 0.23524 0.72027 0.0
N375 N 0.74064 0.22412 0.71821 0.0
Co376 Co 0.76541 0.22737 0.7408 0.0
N377 N 0.76714 0.2513 0.76141 0.0
C378 C 0.7551 0.26018 0.75741 0.0
C379 C 0.76079 0.27709 0.77386 0.0
C380 C 0.77772 0.27939 0.78907 0.0
C381 C 0.78129 0.26359 0.78101 0.0
N382 N 0.78952 0.22996 0.76399 0.0
C383 C 0.80094 0.24377 0.78397 0.0
C384 C 0.81615 0.23993 0.79534 0.0
C385 C 0.81451 0.22325 0.78177 0.0
C386 C 0.7984 0.21785 0.7631 0.0
N387 N 0.76427 0.20404 0.71963 0.0
C388 C 0.77767 0.19654 0.72217 0.0
C389 C 0.77327 0.18087 0.70434 0.0
C390 C 0.75589 0.17804 0.68962 0.0
C391 C 0.75059 0.19211 0.69956 0.0
N392 N 0.78694 0.24881 0.71768 0.0
C393 C 0.81797 0.28044 0.68643 0.0
C394 C 0.82197 0.26598 0.69865 0.0
C395 C 0.80628 0.25029 0.71385 0.0
C396 C 0.79811 0.27865 0.68995 0.0
C397 C 0.78307 0.263 0.70559 0.0
N398 N 0.74388 0.20603 0.76393 0.0
C399 C 0.72884 0.17298 0.78652 0.0
C400 C 0.71246 0.17546 0.79583 0.0
C401 C 0.71233 0.19365 0.78907 0.0
C402 C 0.72799 0.20855 0.77334 0.0
C403 C 0.74422 0.1883 0.77069 0.0
H404 H 0.72684 0.22197 0.76902 0.0
H405 H 0.75616 0.18541 0.764 0.0
H406 H 0.81024 0.23962 0.7224 0.0
H407 H 0.76852 0.2629 0.70776 0.0
C408 C 0.73829 0.252 0.73838 0.0
C409 C 0.73181 0.19278 0.69006 0.0
C410 C 0.79877 0.2614 0.79196 0.0
C411 C 0.7928 0.20303 0.74296 0.0
H412 H 0.69926 0.20226 0.67481 0.0
H413 H 0.70272 0.23468 0.70118 0.0
H414 H 0.7536 0.2867 0.77458 0.0
H415 H 0.78659 0.29146 0.80419 0.0
H416 H 0.82762 0.24866 0.81137 0.0
H417 H 0.82439 0.21637 0.78464 0.0
H418 H 0.78129 0.17208 0.70273 0.0
H419 H 0.74769 0.16656 0.67376 0.0
H420 H 0.83705 0.26661 0.69629 0.0
H421 H 0.79435 0.28963 0.68114 0.0
H422 H 0.72959 0.1591 0.79103 0.0
H423 H 0.70029 0.19659 0.79613 0.0
C424 C 0.52693 0.73001 0.22923 0.0
C425 C 0.50666 0.71245 0.22158 0.0
C426 C 0.49163 0.71474 0.2335 0.0
C427 C 0.50348 0.73335 0.24789 0.0
N428 N 0.52521 0.74321 0.24584 0.0
Co429 Co 0.54834 0.76978 0.26518 0.0
N430 N 0.52606 0.77341 0.28204 0.0
C431 C 0.50419 0.76071 0.27858 0.0
C432 C 0.49306 0.76766 0.29185 0.0
C433 C 0.50874 0.7861 0.3043 0.0
C434 C 0.5286 0.78932 0.29786 0.0
N435 N 0.57143 0.79598 0.28519 0.0
C436 C 0.56966 0.80938 0.30141 0.0
C437 C 0.58985 0.8257 0.31128 0.0
C438 C 0.60494 0.82262 0.3008 0.0
C439 C 0.59316 0.80465 0.28521 0.0
N440 N 0.57061 0.7666 0.24755 0.0
C441 C 0.59247 0.7798 0.25034 0.0
C442 C 0.6036 0.77397 0.23523 0.0
C443 C 0.58795 0.75595 0.22198 0.0
C444 C 0.56807 0.7517 0.22997 0.0
N445 N 0.54842 0.78759 0.237 0.0
C446 C 0.54845 0.8146 0.1993 0.0
C447 C 0.56787 0.81857 0.21129 0.0
C448 C 0.56749 0.80496 0.22988 0.0
C449 C 0.52904 0.79649 0.20591 0.0
C450 C 0.52939 0.78327 0.22465 0.0
N451 N 0.54832 0.75193 0.29347 0.0
C452 C 0.56721 0.73938 0.31997 0.0
C453 C 0.54798 0.72468 0.33106 0.0
C454 C 0.52904 0.72424 0.32372 0.0
C455 C 0.52954 0.73783 0.30494 0.0
C456 C 0.56706 0.7529 0.30159 0.0
H457 H 0.51446 0.73635 0.29981 0.0
H458 H 0.58231 0.76381 0.29408 0.0
H459 H 0.58282 0.80899 0.23845 0.0
H460 H 0.51407 0.76986 0.22914 0.0
C461 C 0.49461 0.74224 0.26294 0.0
C462 C 0.54728 0.73319 0.22047 0.0
C463 C 0.54938 0.80784 0.30711 0.0
C464 C 0.60206 0.79684 0.2684 0.0
H465 H 0.50302 0.69922 0.20883 0.0
H466 H 0.47415 0.70408 0.2319 0.0
H467 H 0.47563 0.76026 0.29229 0.0
H468 H 0.50588 0.79612 0.31662 0.0
H469 H 0.59332 0.83876 0.32426 0.0
H470 H 0.62244 0.8327 0.30354 0.0
H471 H 0.62104 0.78174 0.23422 0.0
H472 H 0.59086 0.74688 0.20814 0.0
H473 H 0.58336 0.8322 0.20645 0.0
H474 H 0.51355 0.79283 0.19724 0.0
H475 H 0.58234 0.74044 0.32544 0.0
H476 H 0.51374 0.713 0.33185 0.0
C477 C 0.75433 0.56058 0.73854 0.0
C478 C 0.75792 0.58026 0.73174 0.0
C479 C 0.77599 0.5953 0.74584 0.0
C480 C 0.78242 0.58401 0.76036 0.0
N481 N 0.76964 0.56263 0.75627 0.0
Co482 Co 0.77288 0.54026 0.77382 0.0
N483 N 0.79925 0.5624 0.79497 0.0
C484 C 0.80852 0.5838 0.79461 0.0
C485 C 0.82668 0.59496 0.81083 0.0
C486 C 0.82936 0.57983 0.82205 0.0
C487 C 0.81265 0.56022 0.8119 0.0
N488 N 0.77598 0.51786 0.79153 0.0
C489 C 0.79151 0.51988 0.80889 0.0
C490 C 0.78789 0.50012 0.81552 0.0
C491 C 0.76946 0.48512 0.80197 0.0
C492 C 0.76293 0.49646 0.78778 0.0
N493 N 0.74666 0.5181 0.75248 0.0
C494 C 0.73735 0.4967 0.75289 0.0
C495 C 0.71938 0.48552 0.73642 0.0
C496 C 0.71693 0.50063 0.72481 0.0
C497 C 0.73368 0.52027 0.73488 0.0
N498 N 0.79198 0.54154 0.74694 0.0
C499 C 0.82061 0.54346 0.71084 0.0
C500 C 0.80383 0.52389 0.71895 0.0
C501 C 0.78974 0.52329 0.73675 0.0
C502 C 0.82253 0.56204 0.72059 0.0
C503 C 0.80818 0.56073 0.73851 0.0
N504 N 0.75374 0.53902 0.8007 0.0
C505 C 0.72184 0.51872 0.82509 0.0
C506 C 0.72421 0.5374 0.83531 0.0
C507 C 0.74212 0.55688 0.82876 0.0
C508 C 0.7566 0.55731 0.81166 0.0
C509 C 0.73669 0.51989 0.80803 0.0
H510 H 0.76971 0.57266 0.80724 0.0
H511 H 0.73383 0.50509 0.80077 0.0
H512 H 0.77728 0.5079 0.74212 0.0
H513 H 0.81072 0.57547 0.74552 0.0
C514 C 0.80016 0.59298 0.77826 0.0
C515 C 0.73607 0.54043 0.72772 0.0
C516 C 0.81041 0.54005 0.81876 0.0
C517 C 0.74541 0.48752 0.76963 0.0
H518 H 0.74836 0.58341 0.71808 0.0
H519 H 0.78346 0.61243 0.74569 0.0
H520 H 0.83693 0.61208 0.81388 0.0
H521 H 0.84228 0.58288 0.83597 0.0
H522 H 0.79778 0.49681 0.82837 0.0
H523 H 0.76204 0.468 0.80194 0.0
H524 H 0.70908 0.46839 0.73351 0.0
H525 H 0.70407 0.49752 0.71077 0.0
H526 H 0.80152 0.50905 0.71156 0.0
H527 H 0.83539 0.57759 0.71496 0.0
H528 H 0.70849 0.5032 0.83006 0.0
H529 H 0.74464 0.57182 0.83609 0.0
C530 C 0.25461 0.81018 0.30401 0.0
C531 C 0.25051 0.82513 0.31392 0.0
C532 C 0.23354 0.82327 0.29926 0.0
C533 C 0.22831 0.8074 0.28134 0.0
N534 N 0.24074 0.7988 0.2838 0.0
Co535 Co 0.23917 0.77577 0.26144 0.0
N536 N 0.21516 0.77405 0.23886 0.0
C537 C 0.20599 0.78582 0.24124 0.0
C538 C 0.18946 0.78063 0.22327 0.0
C539 C 0.18779 0.76442 0.20863 0.0
C540 C 0.20353 0.76071 0.21856 0.0
N541 N 0.23763 0.75275 0.2391 0.0
C542 C 0.22387 0.74152 0.21875 0.0
C543 C 0.22819 0.72679 0.20859 0.0
C544 C 0.24506 0.72853 0.22335 0.0
C545 C 0.2501 0.74418 0.24152 0.0
N546 N 0.2632 0.77749 0.28402 0.0
C547 C 0.27226 0.76561 0.28185 0.0
C548 C 0.28873 0.77081 0.29994 0.0
C549 C 0.29048 0.78716 0.31439 0.0
C550 C 0.27493 0.79099 0.30416 0.0
N551 N 0.21721 0.75362 0.28355 0.0
C552 C 0.18571 0.72145 0.31396 0.0
C553 C 0.20344 0.72069 0.30602 0.0
C554 C 0.21879 0.73673 0.29104 0.0
C555 C 0.18416 0.73879 0.30657 0.0
C556 C 0.19991 0.75452 0.29146 0.0
N557 N 0.26115 0.79784 0.2393 0.0
C558 C 0.29409 0.81187 0.21638 0.0
C559 C 0.29265 0.82901 0.20797 0.0
C560 C 0.27504 0.83022 0.21554 0.0
C561 C 0.25965 0.81463 0.23111 0.0
C562 C 0.2784 0.79669 0.23185 0.0
H563 H 0.24674 0.81655 0.23637 0.0
H564 H 0.28061 0.78415 0.2375 0.0
H565 H 0.23178 0.73503 0.28572 0.0
H566 H 0.19767 0.76717 0.28627 0.0
C567 C 0.21256 0.80094 0.26126 0.0
C568 C 0.27254 0.80817 0.31359 0.0
C569 C 0.20603 0.74363 0.20896 0.0
C570 C 0.26579 0.75052 0.26174 0.0
H571 H 0.25919 0.83649 0.32977 0.0
H572 H 0.22623 0.83271 0.30107 0.0
H573 H 0.17948 0.78747 0.22141 0.0
H574 H 0.17598 0.75599 0.19281 0.0
H575 H 0.21974 0.71571 0.19242 0.0
H576 H 0.25248 0.7192 0.22138 0.0
H577 H 0.29863 0.76388 0.30199 0.0
H578 H 0.30214 0.7956 0.33035 0.0
H579 H 0.20567 0.70784 0.31155 0.0
H580 H 0.17065 0.74007 0.31201 0.0
H581 H 0.30716 0.80992 0.21078 0.0
H582 H 0.27326 0.84329 0.20981 0.0
C583 C 0.43622 0.25093 0.77061 0.0
C584 C 0.41594 0.24717 0.77597 0.0
C585 C 0.40096 0.22935 0.76185 0.0
C586 C 0.41287 0.22327 0.74869 0.0
N587 N 0.43459 0.23607 0.75361 0.0
Co588 Co 0.45785 0.2331 0.73828 0.0
N589 N 0.43583 0.20761 0.71635 0.0
C590 C 0.41405 0.19888 0.71474 0.0
C591 C 0.40312 0.18164 0.69792 0.0
C592 C 0.41882 0.17908 0.6883 0.0
C593 C 0.4385 0.19489 0.69999 0.0
N594 N 0.4811 0.22991 0.72337 0.0
C595 C 0.47948 0.21477 0.70686 0.0
C596 C 0.49972 0.21781 0.70284 0.0
C597 C 0.51464 0.23551 0.71709 0.0
C598 C 0.50276 0.24217 0.72916 0.0
N599 N 0.47992 0.25886 0.7598 0.0
C600 C 0.50177 0.26809 0.76072 0.0
C601 C 0.51278 0.28575 0.77688 0.0
C602 C 0.49707 0.28815 0.78671 0.0
C603 C 0.4773 0.27176 0.77585 0.0
N604 N 0.45559 0.21409 0.7662 0.0
C605 C 0.45274 0.1852 0.80304 0.0
C606 C 0.47272 0.20337 0.79816 0.0
C607 C 0.47377 0.21747 0.77985 0.0
C608 C 0.43411 0.18217 0.78987 0.0
C609 C 0.43588 0.19674 0.77177 0.0
N610 N 0.46006 0.25209 0.71035 0.0
C611 C 0.48188 0.28225 0.6842 0.0
C612 C 0.46329 0.28099 0.67329 0.0
C613 C 0.44305 0.26459 0.68063 0.0
C614 C 0.44182 0.25042 0.69897 0.0
C615 C 0.4799 0.26773 0.70248 0.0
H616 H 0.42593 0.23849 0.70393 0.0
H617 H 0.49467 0.26965 0.7102 0.0
H618 H 0.4895 0.23083 0.77688 0.0
H619 H 0.42111 0.19338 0.76223 0.0
C620 C 0.40425 0.20651 0.73034 0.0
C621 C 0.45655 0.26931 0.78132 0.0
C622 C 0.45919 0.19692 0.69515 0.0
C623 C 0.51147 0.25968 0.74634 0.0
H624 H 0.41235 0.25657 0.78841 0.0
H625 H 0.38349 0.22201 0.76082 0.0
H626 H 0.38577 0.17187 0.69351 0.0
H627 H 0.41605 0.1668 0.67444 0.0
H628 H 0.5034 0.20809 0.69114 0.0
H629 H 0.53206 0.2425 0.71879 0.0
H630 H 0.53016 0.29572 0.78096 0.0
H631 H 0.49988 0.30061 0.80028 0.0
H632 H 0.48758 0.20668 0.80833 0.0
H633 H 0.41824 0.16829 0.7929 0.0
H634 H 0.49793 0.29445 0.67876 0.0
H635 H 0.42817 0.26304 0.67287 0.0
H636 H 0.06007 0.50995 0.0786 0.0
H637 H 0.08566 0.50354 0.1033 0.0
H638 H 0.06812 0.4498 0.05265 0.0
H639 H 0.04247 0.45617 0.02797 0.0
H640 H 0.07054 0.45125 0.11982 0.0
H641 H 0.1419 0.50377 0.06258 0.0
H642 H 0.12211 0.51084 0.06862 0.0
H643 H 0.11477 0.4885 0.0476 0.0
C644 C 0.0617 0.49676 0.07288 0.0
C645 C 0.04946 0.48355 0.05146 0.0
C646 C 0.07625 0.49312 0.08692 0.0
C647 C 0.07874 0.47623 0.07972 0.0
C648 C 0.06638 0.46291 0.05845 0.0
H649 H 0.17818 0.45028 0.1323 0.0
H650 H 0.15 0.45245 0.10712 0.0
C651 C 0.05182 0.46654 0.04441 0.0
C652 C 0.09447 0.47267 0.0943 0.0
H653 H 0.14773 0.48738 0.09783 0.0
C654 C 0.08742 0.45909 0.11506 0.0
C655 C 0.11635 0.48278 0.0878 0.0
C656 C 0.12443 0.49732 0.06543 0.0
C657 C 0.10182 0.45544 0.1297 0.0
C658 C 0.12394 0.466 0.12365 0.0
C659 C 0.13083 0.47934 0.10255 0.0
C660 C 0.14029 0.46374 0.13915 0.0
C661 C 0.09311 0.44005 0.15122 0.0
C662 C 0.1443 0.46945 0.16548 0.0
C663 C 0.16019 0.46803 0.17983 0.0
C664 C 0.17251 0.46105 0.16809 0.0
C665 C 0.16865 0.45544 0.14177 0.0
C666 C 0.15266 0.45677 0.12742 0.0
H667 H 0.07527 0.42873 0.14846 0.0
H668 H 0.10112 0.43076 0.15282 0.0
H669 H 0.09631 0.44912 0.16962 0.0
H670 H 0.13541 0.47541 0.17484 0.0
H671 H 0.16314 0.47268 0.20005 0.0
H672 H 0.59079 0.03047 0.54362 0.0
H673 H 0.62225 0.05662 0.57137 0.0
H674 H 0.59459 0.0958 0.57581 0.0
H675 H 0.5629 0.06933 0.54889 0.0
H676 H 0.65241 0.09867 0.56576 0.0
H677 H 0.60519 0.08861 0.65081 0.0
H678 H 0.59391 0.07046 0.62318 0.0
H679 H 0.59502 0.09538 0.62294 0.0
C680 C 0.59154 0.04467 0.5507 0.0
C681 C 0.57451 0.04793 0.54466 0.0
C682 C 0.60942 0.05956 0.5664 0.0
C683 C 0.61047 0.07788 0.57607 0.0
C684 C 0.59379 0.08148 0.56912 0.0
H685 H 0.72136 0.19495 0.63987 0.0
H686 H 0.69262 0.16603 0.61192 0.0
C687 C 0.57585 0.06652 0.55365 0.0
C688 C 0.62898 0.0933 0.59341 0.0
H689 H 0.64138 0.11904 0.65195 0.0
C690 C 0.65007 0.10303 0.5847 0.0
C691 C 0.62587 0.09859 0.6183 0.0
C692 C 0.6038 0.08755 0.62949 0.0
C693 C 0.66812 0.11848 0.59993 0.0
C694 C 0.66485 0.12468 0.6242 0.0
C695 C 0.64383 0.11445 0.63321 0.0
C696 C 0.68287 0.14194 0.64052 0.0
C697 C 0.6905 0.12782 0.58998 0.0
C698 C 0.68654 0.1381 0.66598 0.0
C699 C 0.70255 0.15466 0.68201 0.0
C700 C 0.7151 0.17527 0.67277 0.0
C701 C 0.71172 0.17911 0.64725 0.0
C702 C 0.69553 0.16259 0.63129 0.0
H703 H 0.69085 0.11686 0.57559 0.0
H704 H 0.69519 0.14291 0.58043 0.0
H705 H 0.70279 0.13134 0.60581 0.0
H706 H 0.67688 0.1223 0.67351 0.0
H707 H 0.70504 0.15147 0.70168 0.0
H708 H 0.54516 0.57956 0.09655 0.0
H709 H 0.55085 0.60873 0.12493 0.0
H710 H 0.50496 0.61558 0.07733 0.0
H711 H 0.4982 0.58567 0.04974 0.0
H712 H 0.5661 0.65 0.1165 0.0
H713 H 0.48158 0.61179 0.14664 0.0
H714 H 0.49104 0.59724 0.12942 0.0
H715 H 0.48308 0.6134 0.11245 0.0
C716 C 0.53597 0.58699 0.0923 0.0
C717 C 0.52106 0.58002 0.07086 0.0
C718 C 0.53941 0.60384 0.10846 0.0
C719 C 0.52804 0.61414 0.1036 0.0
C720 C 0.51355 0.60758 0.0819 0.0
H721 H 0.53162 0.724 0.17055 0.0
H722 H 0.52804 0.69557 0.14195 0.0
C723 C 0.50996 0.59063 0.06586 0.0
C724 C 0.53155 0.6319 0.121 0.0
H725 H 0.50508 0.64884 0.15746 0.0
C726 C 0.55277 0.64966 0.12558 0.0
C727 C 0.51418 0.63146 0.13302 0.0
C728 C 0.49124 0.61236 0.13037 0.0
C729 C 0.55696 0.6671 0.14135 0.0
C730 C 0.53953 0.6668 0.15281 0.0
C731 C 0.51838 0.64907 0.14842 0.0
C732 C 0.54288 0.6847 0.16959 0.0
C733 C 0.57993 0.68594 0.14538 0.0
C734 C 0.55245 0.68799 0.19452 0.0
C735 C 0.5543 0.70405 0.21089 0.0
C736 C 0.54671 0.7171 0.2025 0.0
C737 C 0.53758 0.7141 0.17736 0.0
C738 C 0.53553 0.69791 0.1611 0.0
H739 H 0.59118 0.68503 0.1324 0.0
H740 H 0.58041 0.70102 0.14217 0.0
H741 H 0.58586 0.68654 0.16552 0.0
H742 H 0.55803 0.67783 0.20149 0.0
H743 H 0.56128 0.70603 0.23026 0.0
H744 H 0.94648 0.5508 0.53577 0.0
H745 H 0.92367 0.55797 0.56204 0.0
H746 H 0.93549 0.52803 0.62593 0.0
H747 H 0.95836 0.52102 0.59998 0.0
H748 H 0.88648 0.52899 0.58368 0.0
H749 H 0.94695 0.58252 0.65985 0.0
H750 H 0.95471 0.57638 0.63015 0.0
H751 H 0.94656 0.55819 0.65608 0.0
C752 C 0.94433 0.54592 0.55549 0.0
C753 C 0.95432 0.53549 0.5659 0.0
C754 C 0.93138 0.55008 0.57047 0.0
C755 C 0.92824 0.5439 0.59607 0.0
C756 C 0.93823 0.53352 0.60648 0.0
H757 H 0.84078 0.52111 0.7124 0.0
H758 H 0.86713 0.52299 0.68307 0.0
C759 C 0.95126 0.52948 0.5916 0.0
C760 C 0.9133 0.54686 0.61147 0.0
H761 H 0.90932 0.56554 0.66971 0.0
C762 C 0.89155 0.53731 0.60228 0.0
C763 C 0.91998 0.55777 0.63571 0.0
C764 C 0.94338 0.56949 0.64591 0.0
C765 C 0.87607 0.53753 0.61726 0.0
C766 C 0.8826 0.54757 0.64192 0.0
C767 C 0.90444 0.55773 0.65079 0.0
C768 C 0.86671 0.54665 0.65935 0.0
C769 C 0.85268 0.52635 0.60717 0.0
C770 C 0.85792 0.55941 0.65561 0.0
C771 C 0.84288 0.55839 0.67232 0.0
C772 C 0.83637 0.54449 0.69289 0.0
C773 C 0.84527 0.53174 0.69651 0.0
C774 C 0.86039 0.53289 0.67992 0.0
H775 H 0.84995 0.51784 0.58841 0.0
H776 H 0.84195 0.5147 0.62119 0.0
H777 H 0.84784 0.53821 0.60473 0.0
H778 H 0.86272 0.57016 0.63982 0.0
H779 H 0.83618 0.5683 0.66902 0.0
H780 H 0.46088 0.95076 0.08171 0.0
H781 H 0.43197 0.92758 0.11012 0.0
H782 H 0.38678 0.93767 0.0658 0.0
H783 H 0.41572 0.96082 0.03737 0.0
H784 H 0.4064 0.93746 0.14011 0.0
H785 H 0.35534 0.87217 0.06775 0.0
H786 H 0.38332 0.89241 0.06307 0.0
H787 H 0.36242 0.89835 0.05846 0.0
C788 C 0.44473 0.94794 0.0781 0.0
C789 C 0.44038 0.95736 0.05735 0.0
C790 C 0.42827 0.93475 0.09429 0.0
C791 C 0.40713 0.93064 0.08988 0.0
C792 C 0.40285 0.94028 0.06928 0.0
H793 H 0.2866 0.8487 0.16675 0.0
H794 H 0.31411 0.87453 0.13892 0.0
C795 C 0.41934 0.95354 0.05315 0.0
C796 C 0.38969 0.9165 0.10709 0.0
H797 H 0.34101 0.86918 0.1084 0.0
C798 C 0.3921 0.92252 0.1332 0.0
C799 C 0.37098 0.89707 0.09802 0.0
C800 C 0.36784 0.88945 0.07035 0.0
C801 C 0.37628 0.90972 0.15044 0.0
C802 C 0.35773 0.8901 0.14148 0.0
C803 C 0.35519 0.88421 0.11529 0.0
C804 C 0.34113 0.87512 0.15907 0.0
C805 C 0.37943 0.91753 0.17804 0.0
C806 C 0.3471 0.86676 0.17962 0.0
C807 C 0.33146 0.85215 0.19568 0.0
C808 C 0.30939 0.84533 0.19143 0.0
C809 C 0.30345 0.85378 0.17084 0.0
C810 C 0.31915 0.86844 0.15478 0.0
H811 H 0.3905 0.93513 0.18003 0.0
H812 H 0.36369 0.91301 0.18608 0.0
H813 H 0.38684 0.91023 0.18966 0.0
H814 H 0.36386 0.87131 0.18306 0.0
H815 H 0.33671 0.84619 0.21146 0.0
H816 H 0.44832 0.40629 0.51213 0.0
H817 H 0.44437 0.37615 0.53657 0.0
H818 H 0.49993 0.42001 0.5862 0.0
H819 H 0.50378 0.45001 0.56188 0.0
H820 H 0.476 0.3643 0.54641 0.0
H821 H 0.45107 0.38496 0.63564 0.0
H822 H 0.45022 0.39581 0.60502 0.0
H823 H 0.47556 0.40655 0.62346 0.0
C824 C 0.45964 0.40931 0.52823 0.0
C825 C 0.47633 0.43022 0.53531 0.0
C826 C 0.4574 0.39222 0.54211 0.0
C827 C 0.4717 0.39595 0.56332 0.0
C828 C 0.48855 0.41688 0.57013 0.0
H829 H 0.49217 0.32399 0.6767 0.0
H830 H 0.49393 0.35094 0.64832 0.0
C831 C 0.4908 0.43392 0.55626 0.0
C832 C 0.46919 0.37803 0.57839 0.0
H833 H 0.46031 0.35858 0.63864 0.0
C834 C 0.47238 0.36288 0.56652 0.0
C835 C 0.46443 0.37631 0.60456 0.0
C836 C 0.45992 0.39165 0.61792 0.0
C837 C 0.4717 0.34638 0.58046 0.0
C838 C 0.46738 0.34493 0.60678 0.0
C839 C 0.46375 0.35985 0.61848 0.0
C840 C 0.46696 0.32833 0.6228 0.0
C841 C 0.47629 0.33108 0.56717 0.0
C842 C 0.45123 0.3067 0.61775 0.0
C843 C 0.45029 0.29123 0.63382 0.0
C844 C 0.465 0.29717 0.65528 0.0
C845 C 0.48085 0.31886 0.6601 0.0
C846 C 0.48177 0.33429 0.64403 0.0
H847 H 0.48414 0.33725 0.54877 0.0
H848 H 0.48695 0.32787 0.57968 0.0
H849 H 0.46075 0.31572 0.5629 0.0
H850 H 0.43943 0.30183 0.60167 0.0
H851 H 0.43799 0.27464 0.62951 0.0
H852 H 0.55155 0.96544 0.42259 0.0
H853 H 0.55819 0.94159 0.3974 0.0
H854 H 0.5009 0.88716 0.42561 0.0
H855 H 0.49364 0.91086 0.45005 0.0
H856 H 0.56547 0.91022 0.41247 0.0
H857 H 0.49078 0.87566 0.34842 0.0
H858 H 0.50018 0.89912 0.36874 0.0
H859 H 0.48551 0.87304 0.38191 0.0
C860 C 0.54018 0.9484 0.4232 0.0
C861 C 0.52194 0.94013 0.43825 0.0
C862 C 0.54411 0.93477 0.40893 0.0
C863 C 0.52987 0.91257 0.40927 0.0
C864 C 0.51189 0.90423 0.42463 0.0
H865 H 0.5534 0.81409 0.35909 0.0
H866 H 0.54998 0.84044 0.38396 0.0
C867 C 0.50792 0.91784 0.43887 0.0
C868 C 0.5339 0.89817 0.39369 0.0
H869 H 0.51107 0.85889 0.34656 0.0
C870 C 0.55362 0.89905 0.39799 0.0
C871 C 0.51858 0.88381 0.37451 0.0
C872 C 0.49767 0.88294 0.36789 0.0
C873 C 0.55823 0.88569 0.384 0.0
C874 C 0.54255 0.87077 0.3655 0.0
C875 C 0.52302 0.87018 0.36089 0.0
C876 C 0.54598 0.85561 0.35062 0.0
C877 C 0.58001 0.88794 0.38887 0.0
C878 C 0.5446 0.85513 0.32364 0.0
C879 C 0.5464 0.84002 0.30952 0.0
C880 C 0.54962 0.82513 0.32214 0.0
C881 C 0.55126 0.82568 0.34906 0.0
C882 C 0.54938 0.84076 0.36321 0.0
H883 H 0.59225 0.90379 0.3978 0.0
H884 H 0.57823 0.87558 0.40226 0.0
H885 H 0.58624 0.88574 0.37079 0.0
H886 H 0.54185 0.86631 0.31349 0.0
H887 H 0.54486 0.83965 0.28874 0.0
H888 H 0.55229 0.499 0.93865 0.0
H889 H 0.5833 0.5035 0.91592 0.0
H890 H 0.62714 0.55713 0.96665 0.0
H891 H 0.59601 0.55255 0.98944 0.0
H892 H 0.61498 0.54127 0.8912 0.0
H893 H 0.65174 0.51744 0.96942 0.0
H894 H 0.624 0.51097 0.96924 0.0
H895 H 0.64601 0.53758 0.9777 0.0
C896 C 0.5686 0.51164 0.94492 0.0
C897 C 0.57201 0.52534 0.96577 0.0
C898 C 0.58622 0.51422 0.932 0.0
C899 C 0.60746 0.53047 0.93985 0.0
C900 C 0.61087 0.54428 0.96063 0.0
H901 H 0.7308 0.562 0.87848 0.0
H902 H 0.70313 0.56175 0.90403 0.0
C903 C 0.5932 0.54173 0.97353 0.0
C904 C 0.62592 0.53316 0.92575 0.0
H905 H 0.67024 0.52846 0.9311 0.0
C906 C 0.62711 0.53853 0.8999 0.0
C907 C 0.64174 0.52971 0.9373 0.0
C908 C 0.64085 0.52346 0.96489 0.0
C909 C 0.64369 0.54041 0.88515 0.0
C910 C 0.65916 0.53635 0.89647 0.0
C911 C 0.65828 0.53148 0.9225 0.0
C912 C 0.6759 0.53635 0.8813 0.0
C913 C 0.64456 0.54686 0.85763 0.0
C914 C 0.6697 0.52187 0.86041 0.0
C915 C 0.6854 0.52205 0.84571 0.0
C916 C 0.70764 0.53662 0.85177 0.0
C917 C 0.71381 0.55079 0.87311 0.0
C918 C 0.69805 0.5506 0.8878 0.0
H919 H 0.63572 0.55521 0.85422 0.0
H920 H 0.66161 0.55743 0.85223 0.0
H921 H 0.63674 0.53236 0.8448 0.0
H922 H 0.65268 0.51047 0.85539 0.0
H923 H 0.68009 0.51108 0.82927 0.0
H924 H 0.04966 0.59133 0.47633 0.0
H925 H 0.07398 0.62127 0.44981 0.0
H926 H 0.08053 0.57806 0.40057 0.0
H927 H 0.05609 0.54818 0.42695 0.0
H928 H 0.11685 0.63657 0.43863 0.0
H929 H 0.06362 0.60899 0.34938 0.0
H930 H 0.05386 0.59782 0.38014 0.0
H931 H 0.06881 0.58949 0.36204 0.0
C932 C 0.05634 0.58834 0.4598 0.0
C933 C 0.05109 0.56758 0.45355 0.0
C934 C 0.07018 0.60538 0.44469 0.0
C935 C 0.07883 0.60189 0.42294 0.0
C936 C 0.07371 0.5811 0.4169 0.0
H937 H 0.1685 0.67838 0.30894 0.0
H938 H 0.14262 0.65032 0.33594 0.0
C939 C 0.05989 0.56409 0.43201 0.0
C940 C 0.09358 0.62001 0.40691 0.0
H941 H 0.10009 0.63778 0.34568 0.0
C942 C 0.11311 0.63694 0.41836 0.0
C943 C 0.08869 0.62049 0.38044 0.0
C944 C 0.06752 0.60334 0.36728 0.0
C945 C 0.12818 0.65398 0.40392 0.0
C946 C 0.12343 0.65432 0.37737 0.0
C947 C 0.10376 0.63752 0.36601 0.0
C948 C 0.13893 0.67159 0.36087 0.0
C949 C 0.14938 0.67113 0.41704 0.0
C950 C 0.14524 0.69291 0.36559 0.0
C951 C 0.16019 0.70907 0.35023 0.0
C952 C 0.1691 0.70424 0.32978 0.0
C953 C 0.16232 0.68278 0.3248 0.0
C954 C 0.14738 0.66667 0.34012 0.0
H955 H 0.15275 0.66596 0.43567 0.0
H956 H 0.16315 0.67573 0.40466 0.0
H957 H 0.14858 0.68548 0.42089 0.0
H958 H 0.13863 0.69707 0.38119 0.0
H959 H 0.16508 0.7254 0.35471 0.0
H960 H 0.43402 0.0282 0.937 0.0
H961 H 0.42488 0.0505 0.91165 0.0
H962 H 0.4879 0.10582 0.93302 0.0
H963 H 0.49711 0.08376 0.95831 0.0
H964 H 0.45406 0.11335 0.93494 0.0
H965 H 0.45128 0.07357 0.84253 0.0
H966 H 0.43342 0.05641 0.86613 0.0
H967 H 0.46234 0.06978 0.8722 0.0
C968 C 0.44588 0.04513 0.93631 0.0
C969 C 0.46631 0.05423 0.94955 0.0
C970 C 0.44064 0.05782 0.92186 0.0
C971 C 0.45584 0.07972 0.92024 0.0
C972 C 0.47594 0.08893 0.93409 0.0
H973 H 0.4805 0.17095 0.80828 0.0
H974 H 0.47865 0.14457 0.8376 0.0
C975 C 0.48115 0.07632 0.94859 0.0
C976 C 0.45145 0.09311 0.9033 0.0
H977 H 0.44561 0.10202 0.84025 0.0
C978 C 0.45196 0.11079 0.91424 0.0
C979 C 0.44893 0.08975 0.87632 0.0
C980 C 0.44911 0.07147 0.86348 0.0
C981 C 0.45065 0.12559 0.89885 0.0
C982 C 0.44842 0.12236 0.87187 0.0
C983 C 0.44723 0.10434 0.86098 0.0
C984 C 0.44922 0.13841 0.85445 0.0
C985 C 0.4527 0.14505 0.91149 0.0
C986 C 0.43322 0.14361 0.85419 0.0
C987 C 0.43438 0.15894 0.83764 0.0
C988 C 0.45151 0.16918 0.821 0.0
C989 C 0.46735 0.1637 0.8212 0.0
C990 C 0.4662 0.14847 0.83776 0.0
H991 H 0.45861 0.14724 0.93195 0.0
H992 H 0.464 0.15964 0.90125 0.0
H993 H 0.43654 0.14334 0.9107 0.0
H994 H 0.4198 0.13577 0.86668 0.0
H995 H 0.42198 0.16287 0.83802 0.0
H996 H 0.44075 0.49819 0.39424 0.0
H997 H 0.41022 0.49209 0.36564 0.0
H998 H 0.36604 0.45909 0.42513 0.0
H999 H 0.39638 0.46477 0.45376 0.0
H1000 H 0.37171 0.45265 0.34901 0.0
H1001 H 0.35303 0.50521 0.404 0.0
H1002 H 0.37841 0.50634 0.40883 0.0
H1003 H 0.35425 0.48533 0.42232 0.0
C1004 C 0.42453 0.48944 0.40122 0.0
C1005 C 0.4211 0.48205 0.42642 0.0
C1006 C 0.4071 0.48608 0.38486 0.0
C1007 C 0.3859 0.4754 0.39336 0.0
C1008 C 0.38233 0.46775 0.41833 0.0
H1009 H 0.26172 0.4472 0.3225 0.0
H1010 H 0.29054 0.44938 0.35149 0.0
C1011 C 0.39973 0.47106 0.4347 0.0
C1012 C 0.36752 0.47218 0.37602 0.0
H1013 H 0.3289 0.48516 0.36873 0.0
C1014 C 0.36235 0.45978 0.35328 0.0
C1015 C 0.35529 0.48142 0.38168 0.0
C1016 C 0.36056 0.49547 0.40541 0.0
C1017 C 0.34513 0.45617 0.33616 0.0
C1018 C 0.33304 0.46562 0.34167 0.0
C1019 C 0.33813 0.4779 0.36453 0.0
C1020 C 0.31537 0.46338 0.32375 0.0
C1021 C 0.33978 0.44193 0.3126 0.0
C1022 C 0.31974 0.47061 0.2986 0.0
C1023 C 0.3033 0.46924 0.28209 0.0
C1024 C 0.28225 0.46079 0.29049 0.0
C1025 C 0.27783 0.45359 0.31561 0.0
C1026 C 0.29426 0.4549 0.33212 0.0
H1027 H 0.34601 0.43114 0.31501 0.0
H1028 H 0.32197 0.43211 0.30809 0.0
H1029 H 0.34755 0.45196 0.29596 0.0
H1030 H 0.33598 0.47769 0.29188 0.0
H1031 H 0.30706 0.47508 0.26284 0.0
H1032 H 0.91217 0.41438 0.95403 0.0
H1033 H 0.88647 0.38343 0.92667 0.0
H1034 H 0.9393 0.3793 0.89893 0.0
H1035 H 0.96521 0.41008 0.92679 0.0
H1036 H 0.88812 0.38193 0.87201 0.0
H1037 H 0.89337 0.31741 0.91932 0.0
H1038 H 0.90215 0.34261 0.93552 0.0
H1039 H 0.91874 0.34096 0.91224 0.0
C1040 C 0.91831 0.40663 0.94253 0.0
C1041 C 0.9407 0.41457 0.94264 0.0
C1042 C 0.90362 0.38906 0.9268 0.0
C1043 C 0.91103 0.37906 0.91102 0.0
C1044 C 0.93331 0.3867 0.91128 0.0
H1045 H 0.83803 0.29417 0.77945 0.0
H1046 H 0.86633 0.32281 0.80826 0.0
C1047 C 0.94806 0.40435 0.927 0.0
C1048 C 0.89543 0.3614 0.89326 0.0
H1049 H 0.87158 0.30803 0.88061 0.0
C1050 C 0.88451 0.36577 0.87382 0.0
C1051 C 0.89077 0.3404 0.89589 0.0
C1052 C 0.90171 0.3349 0.91696 0.0
C1053 C 0.86893 0.3496 0.85685 0.0
C1054 C 0.86438 0.32862 0.85933 0.0
C1055 C 0.87528 0.32422 0.87878 0.0
C1056 C 0.84791 0.31097 0.84222 0.0
C1057 C 0.85712 0.35494 0.83672 0.0
C1058 C 0.8285 0.29477 0.85202 0.0
C1059 C 0.81243 0.27854 0.83565 0.0
C1060 C 0.81575 0.27836 0.80943 0.0
C1061 C 0.83529 0.29428 0.79969 0.0
C1062 C 0.85132 0.31053 0.81603 0.0
H1063 H 0.85942 0.37083 0.84061 0.0
H1064 H 0.86343 0.3551 0.81767 0.0
H1065 H 0.83944 0.34272 0.83567 0.0
H1066 H 0.82567 0.29491 0.87223 0.0
H1067 H 0.79741 0.26622 0.84335 0.0
H1068 H 0.92676 0.48531 0.94783 0.0
H1069 H 0.90115 0.49117 0.92254 0.0
H1070 H 0.94619 0.55918 0.93072 0.0
H1071 H 0.97151 0.55325 0.95667 0.0
H1072 H 0.90501 0.54853 0.93833 0.0
H1073 H 0.90579 0.5084 0.84867 0.0
H1074 H 0.89836 0.49147 0.87565 0.0
H1075 H 0.92519 0.51499 0.87537 0.0
C1076 C 0.9311 0.50147 0.94415 0.0
C1077 C 0.95108 0.51885 0.95391 0.0
C1078 C 0.91659 0.50482 0.92957 0.0
C1079 C 0.92192 0.52562 0.92424 0.0
C1080 C 0.94178 0.543 0.9344 0.0
H1081 H 0.85147 0.55283 0.80616 0.0
H1082 H 0.87951 0.55116 0.83227 0.0
C1083 C 0.95624 0.53964 0.94912 0.0
C1084 C 0.90663 0.52924 0.90844 0.0
H1085 H 0.87828 0.51671 0.85036 0.0
C1086 C 0.89926 0.54167 0.91903 0.0
C1087 C 0.89939 0.52061 0.88309 0.0
C1088 C 0.90775 0.50831 0.8699 0.0
C1089 C 0.88447 0.54528 0.90523 0.0
C1090 C 0.87644 0.53581 0.88033 0.0
C1091 C 0.88422 0.5238 0.86953 0.0
C1092 C 0.85989 0.538 0.86516 0.0
C1093 C 0.87789 0.5595 0.91733 0.0
C1094 C 0.83955 0.53121 0.87491 0.0
C1095 C 0.82367 0.53237 0.86011 0.0
C1096 C 0.82773 0.54001 0.83514 0.0
C1097 C 0.84806 0.54693 0.82541 0.0
C1098 C 0.864 0.54591 0.84027 0.0
H1099 H 0.8902 0.57051 0.93234 0.0
H1100 H 0.87558 0.5691 0.90275 0.0
H1101 H 0.86231 0.54947 0.92665 0.0
H1102 H 0.83576 0.52458 0.89377 0.0
H1103 H 0.80804 0.5269 0.86791 0.0
H1104 H 0.40876 0.96183 0.47284 0.0
H1105 H 0.37647 0.9338 0.44769 0.0
H1106 H 0.41657 0.91595 0.40982 0.0
H1107 H 0.44869 0.94378 0.43511 0.0
H1108 H 0.36909 0.92802 0.39332 0.0
H1109 H 0.3678 0.85969 0.43867 0.0
H1110 H 0.38312 0.88644 0.45268 0.0
H1111 H 0.39357 0.87906 0.42665 0.0
C1112 C 0.4105 0.95184 0.4591 0.0
C1113 C 0.43089 0.95461 0.45581 0.0
C1114 C 0.3922 0.93594 0.44483 0.0
C1115 C 0.39418 0.92266 0.42727 0.0
C1116 C 0.4147 0.92579 0.42365 0.0
H1117 H 0.3107 0.84222 0.3005 0.0
H1118 H 0.33938 0.8705 0.32925 0.0
C1119 C 0.43297 0.94167 0.43789 0.0
C1120 C 0.37485 0.90561 0.41246 0.0
H1121 H 0.34511 0.85181 0.40058 0.0
C1122 C 0.3637 0.91134 0.39501 0.0
C1123 C 0.36776 0.88388 0.41506 0.0
C1124 C 0.37853 0.87682 0.43445 0.0
C1125 C 0.34601 0.89587 0.37936 0.0
C1126 C 0.33958 0.87425 0.3811 0.0
C1127 C 0.35026 0.86846 0.39918 0.0
C1128 C 0.3222 0.85742 0.36382 0.0
C1129 C 0.33435 0.90278 0.36111 0.0
C1130 C 0.30338 0.84054 0.3739 0.0
C1131 C 0.28715 0.82441 0.35755 0.0
C1132 C 0.2897 0.82499 0.33105 0.0
C1133 C 0.30856 0.8417 0.32097 0.0
C1134 C 0.32477 0.85782 0.33728 0.0
H1135 H 0.33738 0.91867 0.3669 0.0
H1136 H 0.34031 0.9039 0.34161 0.0
H1137 H 0.31655 0.89104 0.36007 0.0
H1138 H 0.30124 0.83993 0.39437 0.0
H1139 H 0.27262 0.81153 0.36551 0.0
H1140 H 0.46687 0.39904 0.95715 0.0
H1141 H 0.46118 0.3696 0.92913 0.0
H1142 H 0.48557 0.41198 0.86604 0.0
H1143 H 0.49207 0.44165 0.89408 0.0
H1144 H 0.4356 0.3521 0.88375 0.0
H1145 H 0.52257 0.38549 0.86669 0.0
H1146 H 0.51391 0.39588 0.89173 0.0
H1147 H 0.51336 0.40318 0.85902 0.0
C1148 C 0.47128 0.40218 0.9374 0.0
C1149 C 0.48008 0.42281 0.92798 0.0
C1150 C 0.46784 0.38528 0.92134 0.0
C1151 C 0.47325 0.38863 0.89558 0.0
C1152 C 0.48164 0.40908 0.88597 0.0
H1153 H 0.46877 0.30955 0.7683 0.0
H1154 H 0.47141 0.33802 0.79589 0.0
C1155 C 0.48511 0.42599 0.90199 0.0
C1156 C 0.47003 0.37074 0.87871 0.0
H1157 H 0.49688 0.35488 0.84133 0.0
C1158 C 0.449 0.35265 0.87455 0.0
C1159 C 0.48753 0.37145 0.86675 0.0
C1160 C 0.51065 0.38994 0.87142 0.0
C1161 C 0.44494 0.33548 0.85833 0.0
C1162 C 0.46244 0.33628 0.84625 0.0
C1163 C 0.48346 0.35433 0.85049 0.0
C1164 C 0.45941 0.31858 0.82919 0.0
C1165 C 0.4219 0.31686 0.85381 0.0
C1166 C 0.45177 0.29819 0.8387 0.0
C1167 C 0.45024 0.28197 0.82294 0.0
C1168 C 0.45639 0.28591 0.79747 0.0
C1169 C 0.4638 0.30619 0.78786 0.0
C1170 C 0.46535 0.3224 0.8036 0.0
H1171 H 0.40988 0.32107 0.85893 0.0
H1172 H 0.41855 0.31107 0.83343 0.0
H1173 H 0.41948 0.30358 0.86593 0.0
H1174 H 0.44753 0.29498 0.85851 0.0
H1175 H 0.44474 0.26649 0.83077 0.0
H1176 H 0.08303 0.49803 0.45146 0.0
H1177 H 0.10421 0.48965 0.42421 0.0
H1178 H 0.04565 0.43206 0.39603 0.0
H1179 H 0.02421 0.44013 0.42365 0.0
H1180 H 0.10642 0.45151 0.42242 0.0
H1181 H 0.0745 0.46579 0.33075 0.0
H1182 H 0.07181 0.47531 0.36149 0.0
H1183 H 0.0548 0.44758 0.35219 0.0
C1184 C 0.07463 0.4834 0.4398 0.0
C1185 C 0.05191 0.46973 0.43975 0.0
C1186 C 0.08677 0.4787 0.42415 0.0
C1187 C 0.07644 0.46036 0.40801 0.0
C1188 C 0.05384 0.44645 0.40814 0.0
H1189 H 0.13578 0.42706 0.28905 0.0
H1190 H 0.10972 0.42533 0.3187 0.0
C1191 C 0.04164 0.45111 0.42386 0.0
C1192 C 0.0895 0.4562 0.39078 0.0
H1193 H 0.10084 0.45664 0.32794 0.0
C1194 C 0.10512 0.45245 0.40174 0.0
C1195 C 0.08763 0.45737 0.36385 0.0
C1196 C 0.0714 0.46186 0.35124 0.0
C1197 C 0.11922 0.45015 0.38644 0.0
C1198 C 0.1179 0.45212 0.35958 0.0
C1199 C 0.10181 0.45518 0.34856 0.0
C1200 C 0.13382 0.45226 0.34268 0.0
C1201 C 0.13541 0.44568 0.39917 0.0
C1202 C 0.15596 0.46804 0.34632 0.0
C1203 C 0.1709 0.46899 0.32956 0.0
C1204 C 0.16392 0.45427 0.30869 0.0
C1205 C 0.14171 0.43843 0.30516 0.0
C1206 C 0.12679 0.43748 0.32197 0.0
H1207 H 0.12999 0.4382 0.41797 0.0
H1208 H 0.13805 0.43504 0.3868 0.0
H1209 H 0.1512 0.46093 0.40272 0.0
H1210 H 0.16166 0.47988 0.36188 0.0
H1211 H 0.1879 0.48127 0.33292 0.0
H1212 H 0.589 0.0441 0.96576 0.0
H1213 H 0.61776 0.06788 0.93746 0.0
H1214 H 0.57167 0.07689 0.89344 0.0
H1215 H 0.54308 0.05341 0.92198 0.0
H1216 H 0.62028 0.06477 0.88441 0.0
H1217 H 0.6212 0.13804 0.9111 0.0
H1218 H 0.60795 0.11429 0.92958 0.0
H1219 H 0.59482 0.11602 0.90048 0.0
C1220 C 0.58515 0.05128 0.95006 0.0
C1221 C 0.56399 0.04718 0.94607 0.0
C1222 C 0.6015 0.06478 0.9339 0.0
C1223 C 0.59698 0.07448 0.91356 0.0
C1224 C 0.57568 0.06999 0.90932 0.0
H1225 H 0.66895 0.1608 0.79425 0.0
H1226 H 0.64162 0.13586 0.8227 0.0
C1227 C 0.55935 0.05651 0.92548 0.0
C1228 C 0.61446 0.08912 0.89666 0.0
H1229 H 0.64128 0.14 0.87534 0.0
C1230 C 0.62498 0.08126 0.88253 0.0
C1231 C 0.62063 0.11065 0.89425 0.0
C1232 C 0.61073 0.12036 0.90982 0.0
C1233 C 0.64105 0.09417 0.86554 0.0
C1234 C 0.64703 0.11564 0.86292 0.0
C1235 C 0.63665 0.12353 0.87726 0.0
C1236 C 0.66373 0.13016 0.84513 0.0
C1237 C 0.65102 0.08453 0.84999 0.0
C1238 C 0.68535 0.13535 0.84823 0.0
C1239 C 0.7011 0.14971 0.83198 0.0
C1240 C 0.6956 0.15936 0.81243 0.0
C1241 C 0.67388 0.15396 0.8093 0.0
C1242 C 0.65818 0.1396 0.82549 0.0
H1243 H 0.64093 0.06683 0.84932 0.0
H1244 H 0.65321 0.09015 0.83003 0.0
H1245 H 0.66725 0.08947 0.85891 0.0
H1246 H 0.69016 0.12864 0.86356 0.0
H1247 H 0.7177 0.15371 0.8352 0.0
H1248 H 0.5519 0.59434 0.49516 0.0
H1249 H 0.55695 0.62596 0.47353 0.0
H1250 H 0.51087 0.58532 0.41254 0.0
H1251 H 0.50507 0.55381 0.43483 0.0
H1252 H 0.57148 0.64152 0.42831 0.0
H1253 H 0.48647 0.62099 0.43062 0.0
H1254 H 0.49644 0.60686 0.44867 0.0
H1255 H 0.48794 0.60007 0.41519 0.0
C1256 C 0.54275 0.59231 0.47726 0.0
C1257 C 0.52782 0.57183 0.46677 0.0
C1258 C 0.54566 0.61027 0.46491 0.0
C1259 C 0.53385 0.60796 0.44176 0.0
C1260 C 0.51959 0.58746 0.43081 0.0
H1261 H 0.56422 0.69928 0.32507 0.0
H1262 H 0.56194 0.67248 0.35413 0.0
C1263 C 0.51644 0.56952 0.44334 0.0
C1264 C 0.53677 0.62696 0.42869 0.0
H1265 H 0.50868 0.64762 0.40105 0.0
C1266 C 0.55778 0.643 0.42261 0.0
C1267 C 0.51897 0.62913 0.42179 0.0
C1268 C 0.49624 0.61345 0.42967 0.0
C1269 C 0.56138 0.66073 0.40888 0.0
C1270 C 0.54337 0.66206 0.4003 0.0
C1271 C 0.52247 0.64646 0.4073 0.0
C1272 C 0.54563 0.67901 0.38329 0.0
C1273 C 0.58445 0.67787 0.40391 0.0
C1274 C 0.53661 0.69114 0.38959 0.0
C1275 C 0.53747 0.70612 0.37271 0.0
C1276 C 0.54755 0.70934 0.34938 0.0
C1277 C 0.55671 0.69734 0.34318 0.0
C1278 C 0.55554 0.68214 0.35984 0.0
H1279 H 0.5961 0.67839 0.4189 0.0
H1280 H 0.58876 0.67431 0.38518 0.0
H1281 H 0.5865 0.69384 0.40332 0.0
H1282 H 0.52876 0.68889 0.4075 0.0
H1283 H 0.53034 0.71524 0.37791 0.0
H1284 H 0.45695 0.03835 0.58288 0.0
H1285 H 0.45064 0.0627 0.60754 0.0
H1286 H 0.50214 0.1162 0.57014 0.0
H1287 H 0.50923 0.09219 0.54607 0.0
H1288 H 0.48769 0.10304 0.63984 0.0
H1289 H 0.44288 0.11778 0.56176 0.0
H1290 H 0.44325 0.09353 0.56259 0.0
H1291 H 0.46694 0.11795 0.55408 0.0
C1292 C 0.46715 0.0553 0.58004 0.0
C1293 C 0.48364 0.06321 0.56238 0.0
C1294 C 0.46338 0.06917 0.59404 0.0
C1295 C 0.47582 0.09119 0.59049 0.0
C1296 C 0.49221 0.0992 0.57292 0.0
H1297 H 0.47618 0.20171 0.64824 0.0
H1298 H 0.4796 0.17547 0.62318 0.0
C1299 C 0.49614 0.08539 0.55906 0.0
C1300 C 0.47201 0.1059 0.60556 0.0
H1301 H 0.45067 0.1374 0.60081 0.0
C1302 C 0.47951 0.1105 0.63142 0.0
C1303 C 0.46151 0.11569 0.59438 0.0
C1304 C 0.45303 0.11102 0.5667 0.0
C1305 C 0.47715 0.12501 0.64634 0.0
C1306 C 0.4664 0.13469 0.63527 0.0
C1307 C 0.45882 0.12995 0.60936 0.0
C1308 C 0.4634 0.15022 0.65002 0.0
C1309 C 0.48691 0.13036 0.67353 0.0
C1310 C 0.45267 0.14465 0.67312 0.0
C1311 C 0.45098 0.15971 0.68755 0.0
C1312 C 0.45966 0.18049 0.67892 0.0
C1313 C 0.46952 0.1858 0.65531 0.0
C1314 C 0.47143 0.17082 0.64102 0.0
H1315 H 0.49974 0.12655 0.67651 0.0
H1316 H 0.49408 0.1475 0.6786 0.0
H1317 H 0.474 0.12078 0.68693 0.0
H1318 H 0.44577 0.1287 0.68013 0.0
H1319 H 0.44316 0.15525 0.70563 0.0
H1320 H 0.40513 0.45148 0.01012 0.0
H1321 H 0.37453 0.44821 0.03285 0.0
H1322 H 0.41983 0.49959 0.08547 0.0
H1323 H 0.45027 0.50307 0.06247 0.0
H1324 H 0.36518 0.43987 0.08452 0.0
H1325 H 0.37897 0.51882 0.05984 0.0
H1326 H 0.39153 0.50681 0.04346 0.0
H1327 H 0.40258 0.52017 0.07431 0.0
C1328 C 0.40838 0.46207 0.02647 0.0
C1329 C 0.42981 0.47767 0.03453 0.0
C1330 C 0.39102 0.4602 0.03942 0.0
C1331 C 0.39495 0.47394 0.06051 0.0
C1332 C 0.41645 0.48919 0.06887 0.0
H1333 H 0.32187 0.49039 0.17308 0.0
H1334 H 0.34932 0.49184 0.14618 0.0
C1335 C 0.43377 0.49108 0.05591 0.0
C1336 C 0.37664 0.47213 0.07413 0.0
H1337 H 0.35426 0.50049 0.09248 0.0
C1338 C 0.36262 0.45302 0.08607 0.0
C1339 C 0.37337 0.48934 0.07602 0.0
C1340 C 0.38727 0.50988 0.06252 0.0
C1341 C 0.34582 0.4509 0.10065 0.0
C1342 C 0.34288 0.46827 0.10299 0.0
C1343 C 0.35665 0.48724 0.09067 0.0
C1344 C 0.32606 0.46737 0.11886 0.0
C1345 C 0.3318 0.43037 0.11411 0.0
C1346 C 0.30391 0.45332 0.11214 0.0
C1347 C 0.28816 0.45257 0.12735 0.0
C1348 C 0.29432 0.46592 0.1495 0.0
C1349 C 0.31656 0.48013 0.15596 0.0
C1350 C 0.33227 0.48088 0.14072 0.0
H1351 H 0.33891 0.42025 0.11459 0.0
H1352 H 0.32946 0.43369 0.13411 0.0
H1353 H 0.31557 0.4212 0.10382 0.0
H1354 H 0.29883 0.44304 0.09505 0.0
H1355 H 0.27116 0.44167 0.12165 0.0
H1356 H 0.9534 0.45721 0.58142 0.0
H1357 H 0.92911 0.42727 0.60773 0.0
H1358 H 0.92773 0.38323 0.55173 0.0
H1359 H 0.95287 0.41329 0.52612 0.0
H1360 H 0.88911 0.39554 0.59845 0.0
H1361 H 0.94024 0.36135 0.61557 0.0
H1362 H 0.95054 0.38703 0.6017 0.0
H1363 H 0.9351 0.36295 0.58199 0.0
C1364 C 0.94803 0.44111 0.57495 0.0
C1365 C 0.95496 0.43748 0.55182 0.0
C1366 C 0.93412 0.42401 0.58991 0.0
C1367 C 0.9268 0.40292 0.58202 0.0
C1368 C 0.93357 0.39931 0.55868 0.0
H1369 H 0.8113 0.29233 0.63911 0.0
H1370 H 0.83778 0.32158 0.61382 0.0
C1371 C 0.94772 0.41644 0.54389 0.0
C1372 C 0.91146 0.38476 0.59773 0.0
H1373 H 0.90316 0.33968 0.62623 0.0
C1374 C 0.89228 0.38341 0.60462 0.0
C1375 C 0.91566 0.36903 0.60623 0.0
C1376 C 0.93661 0.37026 0.60123 0.0
C1377 C 0.8771 0.36672 0.61934 0.0
C1378 C 0.88077 0.35042 0.62676 0.0
C1379 C 0.90013 0.35195 0.62027 0.0
C1380 C 0.86487 0.33184 0.64151 0.0
C1381 C 0.85754 0.36708 0.6273 0.0
C1382 C 0.8714 0.3271 0.66497 0.0
C1383 C 0.85632 0.31009 0.67927 0.0
C1384 C 0.83437 0.29754 0.67046 0.0
C1385 C 0.828 0.30194 0.64664 0.0
C1386 C 0.84312 0.31875 0.63222 0.0
H1387 H 0.86056 0.38347 0.62719 0.0
H1388 H 0.84357 0.35699 0.61351 0.0
H1389 H 0.85295 0.36083 0.6468 0.0
H1390 H 0.8881 0.33684 0.67251 0.0
H1391 H 0.86172 0.30716 0.69759 0.0
H1392 H 0.52952 0.95842 0.09402 0.0
H1393 H 0.5354 0.93381 0.11867 0.0
H1394 H 0.54793 0.91099 0.04925 0.0
H1395 H 0.54278 0.93615 0.02443 0.0
H1396 H 0.51055 0.88961 0.11106 0.0
H1397 H 0.59829 0.92172 0.09975 0.0
H1398 H 0.58599 0.93713 0.09323 0.0
H1399 H 0.58225 0.917 0.07039 0.0
C1400 C 0.53407 0.94857 0.08403 0.0
C1401 C 0.53577 0.9493 0.05726 0.0
C1402 C 0.53725 0.9344 0.09813 0.0
C1403 C 0.54225 0.92074 0.08579 0.0
C1404 C 0.54438 0.92164 0.05916 0.0
H1405 H 0.52436 0.80532 0.15382 0.0
H1406 H 0.52312 0.83054 0.12465 0.0
C1407 C 0.54122 0.93586 0.045 0.0
C1408 C 0.54378 0.90462 0.1007 0.0
H1409 H 0.57848 0.8889 0.12053 0.0
C1410 C 0.52537 0.8894 0.11311 0.0
C1411 C 0.56321 0.90456 0.1034 0.0
C1412 C 0.58365 0.92106 0.09119 0.0
C1413 C 0.52588 0.87412 0.12832 0.0
C1414 C 0.54521 0.87386 0.13077 0.0
C1415 C 0.56364 0.88906 0.11833 0.0
C1416 C 0.54689 0.85861 0.14731 0.0
C1417 C 0.50592 0.85876 0.14222 0.0
C1418 C 0.56107 0.86614 0.16927 0.0
C1419 C 0.5618 0.85183 0.18593 0.0
C1420 C 0.5484 0.82972 0.18084 0.0
C1421 C 0.5346 0.82225 0.15844 0.0
C1422 C 0.53391 0.8366 0.14176 0.0
H1423 H 0.49416 0.86404 0.14276 0.0
H1424 H 0.49764 0.84288 0.13218 0.0
H1425 H 0.51041 0.85693 0.16223 0.0
H1426 H 0.57116 0.88309 0.17386 0.0
H1427 H 0.57241 0.85808 0.20317 0.0
H1428 H 0.57832 0.48918 0.56346 0.0
H1429 H 0.60851 0.49521 0.59275 0.0
H1430 H 0.61686 0.55439 0.62018 0.0
H1431 H 0.58676 0.54858 0.59076 0.0
H1432 H 0.65678 0.55573 0.6069 0.0
H1433 H 0.60599 0.4915 0.67309 0.0
H1434 H 0.60124 0.48392 0.63947 0.0
H1435 H 0.59489 0.50275 0.65138 0.0
C1436 C 0.58666 0.50355 0.5756 0.0
C1437 C 0.5801 0.51838 0.5748 0.0
C1438 C 0.6038 0.50689 0.59246 0.0
C1439 C 0.61478 0.52515 0.60879 0.0
C1440 C 0.60851 0.54014 0.60782 0.0
H1441 H 0.70336 0.54605 0.74012 0.0
H1442 H 0.67447 0.5438 0.7112 0.0
C1443 C 0.59124 0.53674 0.59111 0.0
C1444 C 0.63283 0.52858 0.62683 0.0
H1445 H 0.64417 0.50836 0.67967 0.0
C1446 C 0.65405 0.54543 0.62287 0.0
C1447 C 0.62917 0.51526 0.64779 0.0
C1448 C 0.60659 0.49742 0.65344 0.0
C1449 C 0.6718 0.54904 0.63903 0.0
C1450 C 0.66821 0.53534 0.65957 0.0
C1451 C 0.64691 0.51877 0.66383 0.0
C1452 C 0.68631 0.53778 0.67679 0.0
C1453 C 0.6942 0.56761 0.63415 0.0
C1454 C 0.70252 0.53512 0.66706 0.0
C1455 C 0.71895 0.53639 0.68354 0.0
C1456 C 0.71937 0.54029 0.70999 0.0
C1457 C 0.70333 0.54314 0.71973 0.0
C1458 C 0.68686 0.54181 0.70327 0.0
H1459 H 0.69351 0.57955 0.62202 0.0
H1460 H 0.70349 0.57562 0.65249 0.0
H1461 H 0.70322 0.56168 0.62396 0.0
H1462 H 0.70221 0.53161 0.6468 0.0
H1463 H 0.73114 0.534 0.67575 0.0
H1464 H 0.0694 0.61011 0.03255 0.0
H1465 H 0.09698 0.64137 0.05851 0.0
H1466 H 0.08089 0.6031 0.12552 0.0
H1467 H 0.05392 0.57173 0.09971 0.0
H1468 H 0.09353 0.66101 0.10408 0.0
H1469 H 0.14652 0.62842 0.12005 0.0
H1470 H 0.12454 0.61755 0.09568 0.0
H1471 H 0.11901 0.61081 0.12867 0.0
C1472 C 0.07179 0.60837 0.0528 0.0
C1473 C 0.05959 0.58843 0.06404 0.0
C1474 C 0.08742 0.62623 0.06759 0.0
C1475 C 0.09114 0.62437 0.09376 0.0
C1476 C 0.07844 0.60472 0.10523 0.0
H1477 H 0.17547 0.70341 0.22054 0.0
H1478 H 0.14731 0.67516 0.19132 0.0
C1479 C 0.06288 0.58688 0.0905 0.0
C1480 C 0.10867 0.64278 0.10908 0.0
H1481 H 0.15552 0.65927 0.14523 0.0
C1482 C 0.10721 0.66078 0.11292 0.0
C1483 C 0.12649 0.64235 0.1204 0.0
C1484 C 0.12941 0.62384 0.11583 0.0
C1485 C 0.12279 0.67813 0.12865 0.0
C1486 C 0.14029 0.67743 0.14046 0.0
C1487 C 0.14197 0.65962 0.13619 0.0
C1488 C 0.15679 0.69473 0.15796 0.0
C1489 C 0.12013 0.6968 0.13319 0.0
C1490 C 0.17143 0.71491 0.14867 0.0
C1491 C 0.1875 0.73093 0.16528 0.0
C1492 C 0.189 0.72688 0.19126 0.0
C1493 C 0.17441 0.70672 0.20051 0.0
C1494 C 0.15842 0.6907 0.18392 0.0
H1495 H 0.1037 0.69312 0.12661 0.0
H1496 H 0.12299 0.70163 0.15389 0.0
H1497 H 0.13232 0.71058 0.12249 0.0
H1498 H 0.1706 0.71813 0.12858 0.0
H1499 H 0.19881 0.74642 0.15791 0.0
loop_
_geom_bond_atom_site_label_1
_geom_bond_atom_site_label_2
_geom_bond_distance
_geom_bond_site_symmetry_2
_ccdc_geom_bond_type
C0 C1 1.443 . S
C0 N4 1.376 1_556 S
C0 C38 1.389 . S
C1 C0 1.443 . S
C1 C2 1.340 1_556 S
C1 H41 0.951 . S
C2 C1 1.340 1_554 S
C2 C3 1.439 . S
C2 H42 0.950 . S
C3 C2 1.439 . S
C3 N4 1.374 . S
C3 C37 1.395 . S
N4 C0 1.376 1_554 S
N4 C3 1.374 . S
N4 Co5 1.989 1_655 S
Co5 N4 1.989 1_455 S
Co5 N6 2.010 1_455 S
Co5 N11 2.028 1_554 S
Co5 N16 1.980 1_554 S
Co5 N21 2.292 . S
Co5 N27 2.273 1_454 S
N6 Co5 2.010 1_655 S
N6 C7 1.376 . S
N6 C10 1.383 1_655 S
C7 N6 1.376 . S
C7 C8 1.446 . S
C7 C37 1.391 . S
C8 C7 1.446 . S
C8 C9 1.339 1_655 S
C8 H43 0.949 . S
C9 C8 1.339 1_455 S
C9 C10 1.439 . S
C9 H44 0.950 . S
C10 N6 1.383 1_455 S
C10 C9 1.439 . S
C10 C39 1.392 . S
N11 Co5 2.028 1_556 S
N11 C12 1.376 1_556 S
N11 C15 1.374 . S
C12 N11 1.376 1_554 S
C12 C13 1.443 . S
C12 C39 1.389 . S
C13 C12 1.443 . S
C13 C14 1.340 1_554 S
C13 H45 0.951 . S
C14 C13 1.340 1_556 S
C14 C15 1.439 . S
C14 H46 0.950 . S
C15 N11 1.374 . S
C15 C14 1.439 . S
C15 C40 1.395 . S
N16 Co5 1.980 1_556 S
N16 C17 1.376 . S
N16 C20 1.383 1_455 S
C17 N16 1.376 . S
C17 C18 1.446 . S
C17 C40 1.391 . S
C18 C17 1.446 . S
C18 C19 1.339 1_455 S
C18 H47 0.949 . S
C19 C18 1.339 1_655 S
C19 C20 1.439 . S
C19 H48 0.950 . S
C20 N16 1.383 1_655 S
C20 C19 1.439 . S
C20 C38 1.392 . S
N21 Co5 2.292 . S
N21 C24 1.332 . S
N21 C26 1.332 . S
C22 C23 1.386 . S
C22 C25 1.388 . S
C23 C22 1.386 . S
C23 C24 1.382 . S
C23 H49 0.950 . S
C24 N21 1.332 . S
C24 C23 1.382 . S
C24 H35 0.918 1_554 S
C25 C22 1.388 . S
C25 C26 1.382 . S
C25 H50 0.950 . S
C26 N21 1.332 . S
C26 C25 1.382 . S
C26 H36 0.948 . S
N27 Co5 2.273 1_656 S
N27 C31 1.332 . S
N27 C32 1.332 . S
C28 C29 1.388 . S
C28 C32 1.382 . S
C28 H51 0.950 . S
C29 C28 1.388 . S
C29 C30 1.386 . S
C30 C29 1.386 . S
C30 C31 1.382 . S
C30 H52 0.950 . S
C31 N27 1.332 . S
C31 C30 1.382 . S
C31 H33 0.952 1_556 S
C32 N27 1.332 . S
C32 C28 1.382 . S
C32 H34 0.948 . S
H33 C31 0.952 1_554 S
H34 C32 0.948 . S
H35 C24 0.918 1_556 S
H36 C26 0.948 . S
C37 C3 1.395 . S
C37 C7 1.391 . S
C38 C0 1.389 . S
C38 C20 1.392 . S
C39 C10 1.392 . S
C39 C12 1.389 . S
C40 C15 1.395 . S
C40 C17 1.391 . S
H41 C1 0.951 . S
H42 C2 0.950 . S
H43 C8 0.949 . S
H44 C9 0.950 . S
H45 C13 0.951 . S
H46 C14 0.950 . S
H47 C18 0.949 . S
H48 C19 0.950 . S
H49 C23 0.950 . S
H50 C25 0.950 . S
H51 C28 0.950 . S
H52 C30 0.950 . S
C53 C54 1.443 . S
C53 N57 1.356 1_545 S
C53 C91 1.389 . S
C54 C53 1.443 . S
C54 C55 1.340 1_545 S
C54 H94 0.951 . S
C55 C54 1.340 1_565 S
C55 C56 1.439 . S
C55 H95 0.950 . S
C56 C55 1.439 . S
C56 N57 1.407 . S
C56 C90 1.395 . S
N57 C53 1.356 1_565 S
N57 C56 1.407 . S
N57 Co58 1.983 1_565 S
Co58 N57 1.983 1_545 S
Co58 N59 1.976 1_545 S
Co58 N64 2.019 . S
Co58 N69 2.014 . S
Co58 N74 2.249 1_545 S
Co58 N80 2.316 . S
N59 Co58 1.976 1_565 S
N59 C60 1.376 . S
N59 C63 1.383 . S
C60 N59 1.376 . S
C60 C61 1.446 . S
C60 C90 1.391 . S
C61 C60 1.446 . S
C61 C62 1.339 . S
C61 H96 0.949 . S
C62 C61 1.339 . S
C62 C63 1.439 . S
C62 H97 0.950 . S
C63 N59 1.383 . S
C63 C62 1.439 . S
C63 C92 1.392 . S
N64 Co58 2.019 . S
N64 C65 1.376 1_545 S
N64 C68 1.374 . S
C65 N64 1.376 1_565 S
C65 C66 1.443 . S
C65 C92 1.389 . S
C66 C65 1.443 . S
C66 C67 1.340 1_565 S
C66 H98 0.951 . S
C67 C66 1.340 1_545 S
C67 C68 1.439 . S
C67 H99 0.950 . S
C68 N64 1.374 . S
C68 C67 1.439 . S
C68 C93 1.395 . S
N69 Co58 2.014 . S
N69 C70 1.376 . S
N69 C73 1.383 . S
C70 N69 1.376 . S
C70 C71 1.446 . S
C70 C93 1.391 . S
C71 C70 1.446 . S
C71 C72 1.339 . S
C71 H100 0.949 . S
C72 C71 1.339 . S
C72 C73 1.439 . S
C72 H101 0.950 . S
C73 N69 1.383 . S
C73 C72 1.439 . S
C73 C91 1.392 . S
N74 Co58 2.249 1_565 S
N74 C77 1.332 . S
N74 C79 1.332 . S
C75 C76 1.386 . S
C75 C78 1.388 . S
C76 C75 1.386 . S
C76 C77 1.382 . S
C76 H102 0.950 . S
C77 N74 1.332 . S
C77 C76 1.382 . S
C77 H88 0.952 1_565 S
C78 C75 1.388 . S
C78 C79 1.382 . S
C78 H103 0.950 . S
C79 N74 1.332 . S
C79 C78 1.382 . S
C79 H89 0.948 . S
N80 Co58 2.316 . S
N80 C84 1.332 . S
N80 C85 1.332 . S
C81 C82 1.388 . S
C81 C85 1.382 . S
C81 H104 0.950 . S
C82 C81 1.388 . S
C82 C83 1.386 . S
C83 C82 1.386 . S
C83 C84 1.382 . S
C83 H105 0.950 . S
C84 N80 1.332 . S
C84 C83 1.382 . S
C84 H86 0.952 1_545 S
C85 N80 1.332 . S
C85 C81 1.382 . S
C85 H87 0.948 . S
H86 C84 0.952 1_565 S
H87 C85 0.948 . S
H88 C77 0.952 1_545 S
H89 C79 0.948 . S
C90 C56 1.395 . S
C90 C60 1.391 . S
C91 C53 1.389 . S
C91 C73 1.392 . S
C92 C63 1.392 . S
C92 C65 1.389 . S
C93 C68 1.395 . S
C93 C70 1.391 . S
H94 C54 0.951 . S
H95 C55 0.950 . S
H96 C61 0.949 . S
H97 C62 0.950 . S
H98 C66 0.951 . S
H99 C67 0.950 . S
H100 C71 0.949 . S
H101 C72 0.950 . S
H102 C76 0.950 . S
H103 C78 0.950 . S
H104 C81 0.950 . S
H105 C83 0.950 . S
C106 C107 1.443 . S
C106 N110 1.376 . S
C106 C144 1.389 . S
C107 C106 1.443 . S
C107 C108 1.340 . S
C107 H147 0.951 . S
C108 C107 1.340 . S
C108 C109 1.439 . S
C108 H148 0.950 . S
C109 C108 1.439 . S
C109 N110 1.374 . S
C109 C143 1.395 . S
N110 C106 1.376 . S
N110 C109 1.374 . S
N110 Co111 1.995 1_556 S
Co111 N110 1.995 1_554 S
Co111 N112 1.992 1_554 S
Co111 N117 2.021 . S
Co111 N122 1.997 . S
Co111 N127 2.290 . S
Co111 N133 2.275 1_554 S
N112 Co111 1.992 1_556 S
N112 C113 1.376 . S
N112 C116 1.383 1_556 S
C113 N112 1.376 . S
C113 C114 1.446 . S
C113 C143 1.391 . S
C114 C113 1.446 . S
C114 C115 1.339 . S
C114 H149 0.949 . S
C115 C114 1.339 . S
C115 C116 1.439 1_556 S
C115 H150 0.950 1_556 S
C116 N112 1.383 1_554 S
C116 C115 1.439 1_554 S
C116 C145 1.392 . S
N117 Co111 2.021 . S
N117 C118 1.376 . S
N117 C121 1.374 . S
C118 N117 1.376 . S
C118 C119 1.443 . S
C118 C145 1.389 . S
C119 C118 1.443 . S
C119 C120 1.340 . S
C119 H151 0.951 . S
C120 C119 1.340 . S
C120 C121 1.439 . S
C120 H152 0.950 . S
C121 N117 1.374 . S
C121 C120 1.439 . S
C121 C146 1.395 . S
N122 Co111 1.997 . S
N122 C123 1.376 . S
N122 C126 1.383 1_554 S
C123 N122 1.376 . S
C123 C124 1.446 . S
C123 C146 1.391 . S
C124 C123 1.446 . S
C124 C125 1.339 . S
C124 H153 0.949 . S
C125 C124 1.339 . S
C125 C126 1.439 1_554 S
C125 H154 0.950 1_554 S
C126 N122 1.383 1_556 S
C126 C125 1.439 1_556 S
C126 C144 1.392 . S
N127 Co111 2.290 . S
N127 C130 1.332 . S
N127 C132 1.332 . S
C128 C129 1.386 . S
C128 C131 1.388 . S
C129 C128 1.386 . S
C129 C130 1.382 . S
C129 H155 0.950 . S
C130 N127 1.332 . S
C130 C129 1.382 . S
C130 H141 0.952 . S
C131 C128 1.388 . S
C131 C132 1.382 . S
C131 H156 0.950 . S
C132 N127 1.332 . S
C132 C131 1.382 . S
C132 H142 0.948 . S
N133 Co111 2.275 1_556 S
N133 C137 1.332 . S
N133 C138 1.332 . S
C134 C135 1.388 . S
C134 C138 1.382 . S
C134 H157 0.950 . S
C135 C134 1.388 . S
C135 C136 1.386 . S
C136 C135 1.386 . S
C136 C137 1.382 . S
C136 H158 0.950 . S
C137 N133 1.332 . S
C137 C136 1.382 . S
C137 H139 0.952 . S
C138 N133 1.332 . S
C138 C134 1.382 . S
C138 H140 0.948 . S
H139 C137 0.952 . S
H140 C138 0.948 . S
H141 C130 0.952 . S
H142 C132 0.948 . S
C143 C109 1.395 . S
C143 C113 1.391 . S
C144 C106 1.389 . S
C144 C126 1.392 . S
C145 C116 1.392 . S
C145 C118 1.389 . S
C146 C121 1.395 . S
C146 C123 1.391 . S
H147 C107 0.951 . S
H148 C108 0.950 . S
H149 C114 0.949 . S
H150 C115 0.950 1_554 S
H151 C119 0.951 . S
H152 C120 0.950 . S
H153 C124 0.949 . S
H154 C125 0.950 1_556 S
H155 C129 0.950 . S
H156 C131 0.950 . S
H157 C134 0.950 . S
H158 C136 0.950 . S
C159 C160 1.443 . S
C159 N163 1.376 . S
C159 C197 1.389 . S
C160 C159 1.443 . S
C160 C161 1.340 . S
C160 H200 0.951 . S
C161 C160 1.340 . S
C161 C162 1.439 . S
C161 H201 0.950 . S
C162 C161 1.439 . S
C162 N163 1.374 . S
C162 C196 1.395 . S
N163 C159 1.376 . S
N163 C162 1.374 . S
N163 Co164 1.995 1_655 S
Co164 N163 1.995 1_455 S
Co164 N165 1.986 1_455 S
Co164 N170 2.021 . S
Co164 N175 2.003 . S
Co164 N180 2.299 . S
Co164 N186 2.266 1_455 S
N165 Co164 1.986 1_655 S
N165 C166 1.376 . S
N165 C169 1.383 1_655 S
C166 N165 1.376 . S
C166 C167 1.446 . S
C166 C196 1.391 . S
C167 C166 1.446 . S
C167 C168 1.339 1_655 S
C167 H202 0.949 . S
C168 C167 1.339 1_455 S
C168 C169 1.439 . S
C168 H203 0.950 . S
C169 N165 1.383 1_455 S
C169 C168 1.439 . S
C169 C198 1.392 . S
N170 Co164 2.021 . S
N170 C171 1.376 . S
N170 C174 1.374 . S
C171 N170 1.376 . S
C171 C172 1.443 . S
C171 C198 1.389 . S
C172 C171 1.443 . S
C172 C173 1.340 . S
C172 H204 0.951 . S
C173 C172 1.340 . S
C173 C174 1.439 . S
C173 H205 0.950 . S
C174 N170 1.374 . S
C174 C173 1.439 . S
C174 C199 1.395 . S
N175 Co164 2.003 . S
N175 C176 1.376 . S
N175 C179 1.383 1_455 S
C176 N175 1.376 . S
C176 C177 1.446 . S
C176 C199 1.391 . S
C177 C176 1.446 . S
C177 C178 1.312 1_455 S
C177 H206 0.949 . S
C178 C177 1.312 1_655 S
C178 C179 1.460 . S
C178 H207 0.956 . S
C179 N175 1.383 1_655 S
C179 C178 1.460 . S
C179 C197 1.392 . S
N180 Co164 2.299 . S
N180 C183 1.332 . S
N180 C185 1.332 . S
C181 C182 1.386 . S
C181 C184 1.388 . S
C182 C181 1.386 . S
C182 C183 1.382 . S
C182 H208 0.950 . S
C183 N180 1.332 . S
C183 C182 1.382 . S
C183 H194 0.952 . S
C184 C181 1.388 . S
C184 C185 1.382 . S
C184 H209 0.950 . S
C185 N180 1.332 . S
C185 C184 1.382 . S
C185 H195 0.966 . S
N186 Co164 2.266 1_655 S
N186 C190 1.332 . S
N186 C191 1.332 . S
C187 C188 1.388 . S
C187 C191 1.382 . S
C187 H210 0.950 . S
C188 C187 1.388 . S
C188 C189 1.386 . S
C189 C188 1.386 . S
C189 C190 1.382 . S
C189 H211 0.950 . S
C190 N186 1.332 . S
C190 C189 1.382 . S
C190 H192 0.952 . S
C191 N186 1.332 . S
C191 C187 1.382 . S
C191 H193 0.926 1_655 S
H192 C190 0.952 . S
H193 C191 0.926 1_455 S
H194 C183 0.952 . S
H195 C185 0.966 . S
C196 C162 1.395 . S
C196 C166 1.391 . S
C197 C159 1.389 . S
C197 C179 1.392 . S
C198 C169 1.392 . S
C198 C171 1.389 . S
C199 C174 1.395 . S
C199 C176 1.391 . S
H200 C160 0.951 . S
H201 C161 0.950 . S
H202 C167 0.949 . S
H203 C168 0.950 . S
H204 C172 0.951 . S
H205 C173 0.950 . S
H206 C177 0.949 . S
H207 C178 0.956 . S
H208 C182 0.950 . S
H209 C184 0.950 . S
H210 C187 0.950 . S
H211 C189 0.950 . S
C212 C213 1.443 . S
C212 N216 1.376 1_565 S
C212 C250 1.389 . S
C213 C212 1.443 . S
C213 C214 1.340 1_565 S
C213 H253 0.951 . S
C214 C213 1.340 1_545 S
C214 C215 1.439 . S
C214 H254 0.950 . S
C215 C214 1.439 . S
C215 N216 1.374 . S
C215 C249 1.395 . S
N216 C212 1.376 1_545 S
N216 C215 1.374 . S
N216 Co217 2.033 . S
Co217 N216 2.033 . S
Co217 N218 2.015 . S
Co217 N223 1.984 1_544 S
Co217 N228 1.975 1_544 S
Co217 N233 2.309 1_554 S
Co217 N239 2.257 1_545 S
N218 Co217 2.015 . S
N218 C219 1.376 . S
N218 C222 1.383 1_554 S
C219 N218 1.376 . S
C219 C220 1.446 . S
C219 C249 1.391 . S
C220 C219 1.446 . S
C220 C221 1.339 1_554 S
C220 H255 0.949 . S
C221 C220 1.339 1_556 S
C221 C222 1.439 . S
C221 H256 0.950 . S
C222 N218 1.383 1_556 S
C222 C221 1.439 . S
C222 C251 1.392 . S
N223 Co217 1.984 1_566 S
N223 C224 1.376 1_565 S
N223 C227 1.374 . S
C224 N223 1.376 1_545 S
C224 C225 1.443 . S
C224 C251 1.389 . S
C225 C224 1.443 . S
C225 C226 1.340 1_545 S
C225 H257 0.951 . S
C226 C225 1.340 1_565 S
C226 C227 1.439 . S
C226 H258 0.950 . S
C227 N223 1.374 . S
C227 C226 1.439 . S
C227 C252 1.395 . S
N228 Co217 1.975 1_566 S
N228 C229 1.376 . S
N228 C232 1.383 1_556 S
C229 N228 1.376 . S
C229 C230 1.446 . S
C229 C252 1.391 . S
C230 C229 1.446 . S
C230 C231 1.339 1_556 S
C230 H259 0.949 . S
C231 C230 1.339 1_554 S
C231 C232 1.439 . S
C231 H260 0.950 . S
C232 N228 1.383 1_554 S
C232 C231 1.439 . S
C232 C250 1.392 . S
N233 Co217 2.309 1_556 S
N233 C236 1.332 . S
N233 C238 1.332 . S
C234 C235 1.386 . S
C234 C237 1.388 . S
C235 C234 1.386 . S
C235 C236 1.382 . S
C235 H261 0.950 . S
C236 N233 1.332 . S
C236 C235 1.382 . S
C236 H247 0.952 1_545 S
C237 C234 1.388 . S
C237 C238 1.382 . S
C237 H262 0.950 . S
C238 N233 1.332 . S
C238 C237 1.382 . S
C238 H248 0.948 . S
N239 Co217 2.257 1_565 S
N239 C243 1.332 . S
N239 C244 1.332 . S
C240 C241 1.388 . S
C240 C244 1.382 . S
C240 H263 0.950 . S
C241 C240 1.388 . S
C241 C242 1.386 . S
C242 C241 1.386 . S
C242 C243 1.382 . S
C242 H264 0.950 . S
C243 N239 1.332 . S
C243 C242 1.382 . S
C243 H245 0.952 1_565 S
C244 N239 1.332 . S
C244 C240 1.382 . S
C244 H246 0.948 . S
H245 C243 0.952 1_545 S
H246 C244 0.948 . S
H247 C236 0.952 1_565 S
H248 C238 0.948 . S
C249 C215 1.395 . S
C249 C219 1.391 . S
C250 C212 1.389 . S
C250 C232 1.392 . S
C251 C222 1.392 . S
C251 C224 1.389 . S
C252 C227 1.395 . S
C252 C229 1.391 . S
H253 C213 0.951 . S
H254 C214 0.950 . S
H255 C220 0.949 . S
H256 C221 0.950 . S
H257 C225 0.951 . S
H258 C226 0.950 . S
H259 C230 0.949 . S
H260 C231 0.950 . S
H261 C235 0.950 . S
H262 C237 0.950 . S
H263 C240 0.950 . S
H264 C242 0.950 . S
C265 C266 1.443 . S
C265 N269 1.376 . S
C265 C303 1.389 . S
C266 C265 1.443 . S
C266 C267 1.340 . S
C266 H306 0.951 . S
C267 C266 1.340 . S
C267 C268 1.439 . S
C267 H307 0.950 . S
C268 C267 1.439 . S
C268 N269 1.374 . S
C268 C302 1.395 . S
N269 C265 1.376 . S
N269 C268 1.374 . S
N269 Co270 2.008 . S
Co270 N269 2.008 . S
Co270 N271 1.995 . S
Co270 N276 2.008 . S
Co270 N281 1.995 . S
Co270 N286 2.282 . S
Co270 N292 2.282 . S
N271 Co270 1.995 . S
N271 C272 1.376 . S
N271 C275 1.383 . S
C272 N271 1.376 . S
C272 C273 1.446 . S
C272 C302 1.391 . S
C273 C272 1.446 . S
C273 C274 1.339 . S
C273 H308 0.949 . S
C274 C273 1.339 . S
C274 C275 1.439 . S
C274 H309 0.950 . S
C275 N271 1.383 . S
C275 C274 1.439 . S
C275 C304 1.392 . S
N276 Co270 2.008 . S
N276 C277 1.376 . S
N276 C280 1.374 . S
C277 N276 1.376 . S
C277 C278 1.443 . S
C277 C304 1.389 . S
C278 C277 1.443 . S
C278 C279 1.340 . S
C278 H310 0.951 . S
C279 C278 1.340 . S
C279 C280 1.439 . S
C279 H311 0.950 . S
C280 N276 1.374 . S
C280 C279 1.439 . S
C280 C305 1.395 . S
N281 Co270 1.995 . S
N281 C282 1.376 . S
N281 C285 1.383 . S
C282 N281 1.376 . S
C282 C283 1.446 . S
C282 C305 1.391 . S
C283 C282 1.446 . S
C283 C284 1.339 . S
C283 H312 0.949 . S
C284 C283 1.339 . S
C284 C285 1.439 . S
C284 H313 0.950 . S
C285 N281 1.383 . S
C285 C284 1.439 . S
C285 C303 1.392 . S
N286 Co270 2.282 . S
N286 C289 1.332 . S
N286 C291 1.332 . S
C287 C288 1.386 . S
C287 C290 1.388 . S
C288 C287 1.386 . S
C288 C289 1.382 . S
C288 H314 0.950 . S
C289 N286 1.332 . S
C289 C288 1.382 . S
C289 H300 0.952 . S
C290 C287 1.388 . S
C290 C291 1.382 . S
C290 H315 0.950 . S
C291 N286 1.332 . S
C291 C290 1.382 . S
C291 H301 0.948 . S
N292 Co270 2.282 . S
N292 C296 1.332 . S
N292 C297 1.332 . S
C293 C294 1.388 . S
C293 C297 1.382 . S
C293 H316 0.950 . S
C294 C293 1.388 . S
C294 C295 1.386 . S
C295 C294 1.386 . S
C295 C296 1.382 . S
C295 H317 0.950 . S
C296 N292 1.332 . S
C296 C295 1.382 . S
C296 H298 0.952 . S
C297 N292 1.332 . S
C297 C293 1.382 . S
C297 H299 0.948 . S
H298 C296 0.952 . S
H299 C297 0.948 . S
H300 C289 0.952 . S
H301 C291 0.948 . S
C302 C268 1.395 . S
C302 C272 1.391 . S
C303 C265 1.389 . S
C303 C285 1.392 . S
C304 C275 1.392 . S
C304 C277 1.389 . S
C305 C280 1.395 . S
C305 C282 1.391 . S
H306 C266 0.951 . S
H307 C267 0.950 . S
H308 C273 0.949 . S
H309 C274 0.950 . S
H310 C278 0.951 . S
H311 C279 0.950 . S
H312 C283 0.949 . S
H313 C284 0.950 . S
H314 C288 0.950 . S
H315 C290 0.950 . S
H316 C293 0.950 . S
H317 C295 0.950 . S
C318 C319 1.443 . S
C318 N322 1.376 . S
C318 C356 1.389 . S
C319 C318 1.443 . S
C319 C320 1.340 . S
C319 H359 0.951 . S
C320 C319 1.340 . S
C320 C321 1.439 . S
C320 H360 0.950 . S
C321 C320 1.439 . S
C321 N322 1.374 . S
C321 C355 1.395 . S
N322 C318 1.376 . S
N322 C321 1.374 . S
N322 Co323 2.008 . S
Co323 N322 2.008 . S
Co323 N324 1.995 . S
Co323 N329 2.008 . S
Co323 N334 1.995 . S
Co323 N339 2.282 . S
Co323 N345 2.282 . S
N324 Co323 1.995 . S
N324 C325 1.376 . S
N324 C328 1.383 . S
C325 N324 1.376 . S
C325 C326 1.446 . S
C325 C355 1.391 . S
C326 C325 1.446 . S
C326 C327 1.339 . S
C326 H361 0.949 . S
C327 C326 1.339 . S
C327 C328 1.439 . S
C327 H362 0.950 . S
C328 N324 1.383 . S
C328 C327 1.439 . S
C328 C357 1.392 . S
N329 Co323 2.008 . S
N329 C330 1.376 . S
N329 C333 1.374 . S
C330 N329 1.376 . S
C330 C331 1.443 . S
C330 C357 1.389 . S
C331 C330 1.443 . S
C331 C332 1.340 . S
C331 H363 0.951 . S
C332 C331 1.340 . S
C332 C333 1.439 . S
C332 H364 0.950 . S
C333 N329 1.374 . S
C333 C332 1.439 . S
C333 C358 1.395 . S
N334 Co323 1.995 . S
N334 C335 1.376 . S
N334 C338 1.383 . S
C335 N334 1.376 . S
C335 C336 1.446 . S
C335 C358 1.391 . S
C336 C335 1.446 . S
C336 C337 1.339 . S
C336 H365 0.949 . S
C337 C336 1.339 . S
C337 C338 1.439 . S
C337 H366 0.950 . S
C338 N334 1.383 . S
C338 C337 1.439 . S
C338 C356 1.392 . S
N339 Co323 2.282 . S
N339 C342 1.332 . S
N339 C344 1.332 . S
C340 C341 1.386 . S
C340 C343 1.388 . S
C341 C340 1.386 . S
C341 C342 1.382 . S
C341 H367 0.950 . S
C342 N339 1.332 . S
C342 C341 1.382 . S
C342 H353 0.952 . S
C343 C340 1.388 . S
C343 C344 1.382 . S
C343 H368 0.950 . S
C344 N339 1.332 . S
C344 C343 1.382 . S
C344 H354 0.948 . S
N345 Co323 2.282 . S
N345 C349 1.332 . S
N345 C350 1.332 . S
C346 C347 1.388 . S
C346 C350 1.382 . S
C346 H369 0.950 . S
C347 C346 1.388 . S
C347 C348 1.386 . S
C348 C347 1.386 . S
C348 C349 1.382 . S
C348 H370 0.950 . S
C349 N345 1.332 . S
C349 C348 1.382 . S
C349 H351 0.952 . S
C350 N345 1.332 . S
C350 C346 1.382 . S
C350 H352 0.948 . S
H351 C349 0.952 . S
H352 C350 0.948 . S
H353 C342 0.952 . S
H354 C344 0.948 . S
C355 C321 1.395 . S
C355 C325 1.391 . S
C356 C318 1.389 . S
C356 C338 1.392 . S
C357 C328 1.392 . S
C357 C330 1.389 . S
C358 C333 1.395 . S
C358 C335 1.391 . S
H359 C319 0.951 . S
H360 C320 0.950 . S
H361 C326 0.949 . S
H362 C327 0.950 . S
H363 C331 0.951 . S
H364 C332 0.950 . S
H365 C336 0.949 . S
H366 C337 0.950 . S
H367 C341 0.950 . S
H368 C343 0.950 . S
H369 C346 0.950 . S
H370 C348 0.950 . S
C371 C372 1.443 . S
C371 N375 1.376 . S
C371 C409 1.389 . S
C372 C371 1.443 . S
C372 C373 1.340 . S
C372 H412 0.951 . S
C373 C372 1.340 . S
C373 C374 1.439 . S
C373 H413 0.950 . S
C374 C373 1.439 . S
C374 N375 1.374 . S
C374 C408 1.395 . S
N375 C371 1.376 . S
N375 C374 1.374 . S
N375 Co376 2.008 . S
Co376 N375 2.008 . S
Co376 N377 1.995 . S
Co376 N382 2.008 . S
Co376 N387 1.995 . S
Co376 N392 2.282 . S
Co376 N398 2.282 . S
N377 Co376 1.995 . S
N377 C378 1.376 . S
N377 C381 1.383 . S
C378 N377 1.376 . S
C378 C379 1.446 . S
C378 C408 1.391 . S
C379 C378 1.446 . S
C379 C380 1.339 . S
C379 H414 0.949 . S
C380 C379 1.339 . S
C380 C381 1.439 . S
C380 H415 0.950 . S
C381 N377 1.383 . S
C381 C380 1.439 . S
C381 C410 1.392 . S
N382 Co376 2.008 . S
N382 C383 1.376 . S
N382 C386 1.374 . S
C383 N382 1.376 . S
C383 C384 1.443 . S
C383 C410 1.389 . S
C384 C383 1.443 . S
C384 C385 1.340 . S
C384 H416 0.951 . S
C385 C384 1.340 . S
C385 C386 1.439 . S
C385 H417 0.950 . S
C386 N382 1.374 . S
C386 C385 1.439 . S
C386 C411 1.395 . S
N387 Co376 1.995 . S
N387 C388 1.376 . S
N387 C391 1.383 . S
C388 N387 1.376 . S
C388 C389 1.446 . S
C388 C411 1.391 . S
C389 C388 1.446 . S
C389 C390 1.339 . S
C389 H418 0.949 . S
C390 C389 1.339 . S
C390 C391 1.439 . S
C390 H419 0.950 . S
C391 N387 1.383 . S
C391 C390 1.439 . S
C391 C409 1.392 . S
N392 Co376 2.282 . S
N392 C395 1.332 . S
N392 C397 1.332 . S
C393 C394 1.386 . S
C393 C396 1.388 . S
C394 C393 1.386 . S
C394 C395 1.382 . S
C394 H420 0.950 . S
C395 N392 1.332 . S
C395 C394 1.382 . S
C395 H406 0.952 . S
C396 C393 1.388 . S
C396 C397 1.382 . S
C396 H421 0.950 . S
C397 N392 1.332 . S
C397 C396 1.382 . S
C397 H407 0.948 . S
N398 Co376 2.282 . S
N398 C402 1.332 . S
N398 C403 1.332 . S
C399 C400 1.388 . S
C399 C403 1.382 . S
C399 H422 0.950 . S
C400 C399 1.388 . S
C400 C401 1.386 . S
C401 C400 1.386 . S
C401 C402 1.382 . S
C401 H423 0.950 . S
C402 N398 1.332 . S
C402 C401 1.382 . S
C402 H404 0.952 . S
C403 N398 1.332 . S
C403 C399 1.382 . S
C403 H405 0.948 . S
H404 C402 0.952 . S
H405 C403 0.948 . S
H406 C395 0.952 . S
H407 C397 0.948 . S
C408 C374 1.395 . S
C408 C378 1.391 . S
C409 C371 1.389 . S
C409 C391 1.392 . S
C410 C381 1.392 . S
C410 C383 1.389 . S
C411 C386 1.395 . S
C411 C388 1.391 . S
H412 C372 0.951 . S
H413 C373 0.950 . S
H414 C379 0.949 . S
H415 C380 0.950 . S
H416 C384 0.951 . S
H417 C385 0.950 . S
H418 C389 0.949 . S
H419 C390 0.950 . S
H420 C394 0.950 . S
H421 C396 0.950 . S
H422 C399 0.950 . S
H423 C401 0.950 . S
C424 C425 1.443 . S
C424 N428 1.376 . S
C424 C462 1.389 . S
C425 C424 1.443 . S
C425 C426 1.340 . S
C425 H465 0.951 . S
C426 C425 1.340 . S
C426 C427 1.439 . S
C426 H466 0.950 . S
C427 C426 1.439 . S
C427 N428 1.374 . S
C427 C461 1.395 . S
N428 C424 1.376 . S
N428 C427 1.374 . S
N428 Co429 2.008 . S
Co429 N428 2.008 . S
Co429 N430 1.995 . S
Co429 N435 2.008 . S
Co429 N440 1.995 . S
Co429 N445 2.282 . S
Co429 N451 2.282 . S
N430 Co429 1.995 . S
N430 C431 1.376 . S
N430 C434 1.383 . S
C431 N430 1.376 . S
C431 C432 1.446 . S
C431 C461 1.391 . S
C432 C431 1.446 . S
C432 C433 1.339 . S
C432 H467 0.949 . S
C433 C432 1.339 . S
C433 C434 1.439 . S
C433 H468 0.950 . S
C434 N430 1.383 . S
C434 C433 1.439 . S
C434 C463 1.392 . S
N435 Co429 2.008 . S
N435 C436 1.376 . S
N435 C439 1.374 . S
C436 N435 1.376 . S
C436 C437 1.443 . S
C436 C463 1.389 . S
C437 C436 1.443 . S
C437 C438 1.340 . S
C437 H469 0.951 . S
C438 C437 1.340 . S
C438 C439 1.439 . S
C438 H470 0.950 . S
C439 N435 1.374 . S
C439 C438 1.439 . S
C439 C464 1.395 . S
N440 Co429 1.995 . S
N440 C441 1.376 . S
N440 C444 1.383 . S
C441 N440 1.376 . S
C441 C442 1.446 . S
C441 C464 1.391 . S
C442 C441 1.446 . S
C442 C443 1.339 . S
C442 H471 0.949 . S
C443 C442 1.339 . S
C443 C444 1.439 . S
C443 H472 0.950 . S
C444 N440 1.383 . S
C444 C443 1.439 . S
C444 C462 1.392 . S
N445 Co429 2.282 . S
N445 C448 1.332 . S
N445 C450 1.332 . S
C446 C447 1.386 . S
C446 C449 1.388 . S
C447 C446 1.386 . S
C447 C448 1.382 . S
C447 H473 0.950 . S
C448 N445 1.332 . S
C448 C447 1.382 . S
C448 H459 0.952 . S
C449 C446 1.388 . S
C449 C450 1.382 . S
C449 H474 0.950 . S
C450 N445 1.332 . S
C450 C449 1.382 . S
C450 H460 0.948 . S
N451 Co429 2.282 . S
N451 C455 1.332 . S
N451 C456 1.332 . S
C452 C453 1.388 . S
C452 C456 1.382 . S
C452 H475 0.950 . S
C453 C452 1.388 . S
C453 C454 1.386 . S
C454 C453 1.386 . S
C454 C455 1.382 . S
C454 H476 0.950 . S
C455 N451 1.332 . S
C455 C454 1.382 . S
C455 H457 0.952 . S
C456 N451 1.332 . S
C456 C452 1.382 . S
C456 H458 0.948 . S
H457 C455 0.952 . S
H458 C456 0.948 . S
H459 C448 0.952 . S
H460 C450 0.948 . S
C461 C427 1.395 . S
C461 C431 1.391 . S
C462 C424 1.389 . S
C462 C444 1.392 . S
C463 C434 1.392 . S
C463 C436 1.389 . S
C464 C439 1.395 . S
C464 C441 1.391 . S
H465 C425 0.951 . S
H466 C426 0.950 . S
H467 C432 0.949 . S
H468 C433 0.950 . S
H469 C437 0.951 . S
H470 C438 0.950 . S
H471 C442 0.949 . S
H472 C443 0.950 . S
H473 C447 0.950 . S
H474 C449 0.950 . S
H475 C452 0.950 . S
H476 C454 0.950 . S
C477 C478 1.443 . S
C477 N481 1.376 . S
C477 C515 1.389 . S
C478 C477 1.443 . S
C478 C479 1.340 . S
C478 H518 0.951 . S
C479 C478 1.340 . S
C479 C480 1.439 . S
C479 H519 0.950 . S
C480 C479 1.439 . S
C480 N481 1.374 . S
C480 C514 1.395 . S
N481 C477 1.376 . S
N481 C480 1.374 . S
N481 Co482 2.008 . S
Co482 N481 2.008 . S
Co482 N483 1.995 . S
Co482 N488 2.008 . S
Co482 N493 1.995 . S
Co482 N498 2.282 . S
Co482 N504 2.282 . S
N483 Co482 1.995 . S
N483 C484 1.376 . S
N483 C487 1.383 . S
C484 N483 1.376 . S
C484 C485 1.446 . S
C484 C514 1.391 . S
C485 C484 1.446 . S
C485 C486 1.339 . S
C485 H520 0.949 . S
C486 C485 1.339 . S
C486 C487 1.439 . S
C486 H521 0.950 . S
C487 N483 1.383 . S
C487 C486 1.439 . S
C487 C516 1.392 . S
N488 Co482 2.008 . S
N488 C489 1.376 . S
N488 C492 1.374 . S
C489 N488 1.376 . S
C489 C490 1.443 . S
C489 C516 1.389 . S
C490 C489 1.443 . S
C490 C491 1.340 . S
C490 H522 0.951 . S
C491 C490 1.340 . S
C491 C492 1.439 . S
C491 H523 0.950 . S
C492 N488 1.374 . S
C492 C491 1.439 . S
C492 C517 1.395 . S
N493 Co482 1.995 . S
N493 C494 1.376 . S
N493 C497 1.383 . S
C494 N493 1.376 . S
C494 C495 1.446 . S
C494 C517 1.391 . S
C495 C494 1.446 . S
C495 C496 1.339 . S
C495 H524 0.949 . S
C496 C495 1.339 . S
C496 C497 1.439 . S
C496 H525 0.950 . S
C497 N493 1.383 . S
C497 C496 1.439 . S
C497 C515 1.392 . S
N498 Co482 2.282 . S
N498 C501 1.332 . S
N498 C503 1.332 . S
C499 C500 1.386 . S
C499 C502 1.388 . S
C500 C499 1.386 . S
C500 C501 1.382 . S
C500 H526 0.950 . S
C501 N498 1.332 . S
C501 C500 1.382 . S
C501 H512 0.952 . S
C502 C499 1.388 . S
C502 C503 1.382 . S
C502 H527 0.950 . S
C503 N498 1.332 . S
C503 C502 1.382 . S
C503 H513 0.948 . S
N504 Co482 2.282 . S
N504 C508 1.332 . S
N504 C509 1.332 . S
C505 C506 1.388 . S
C505 C509 1.382 . S
C505 H528 0.950 . S
C506 C505 1.388 . S
C506 C507 1.386 . S
C507 C506 1.386 . S
C507 C508 1.382 . S
C507 H529 0.950 . S
C508 N504 1.332 . S
C508 C507 1.382 . S
C508 H510 0.952 . S
C509 N504 1.332 . S
C509 C505 1.382 . S
C509 H511 0.948 . S
H510 C508 0.952 . S
H511 C509 0.948 . S
H512 C501 0.952 . S
H513 C503 0.948 . S
C514 C480 1.395 . S
C514 C484 1.391 . S
C515 C477 1.389 . S
C515 C497 1.392 . S
C516 C487 1.392 . S
C516 C489 1.389 . S
C517 C492 1.395 . S
C517 C494 1.391 . S
H518 C478 0.951 . S
H519 C479 0.950 . S
H520 C485 0.949 . S
H521 C486 0.950 . S
H522 C490 0.951 . S
H523 C491 0.950 . S
H524 C495 0.949 . S
H525 C496 0.950 . S
H526 C500 0.950 . S
H527 C502 0.950 . S
H528 C505 0.950 . S
H529 C507 0.950 . S
C530 C531 1.443 . S
C530 N534 1.376 . S
C530 C568 1.389 . S
C531 C530 1.443 . S
C531 C532 1.340 . S
C531 H571 0.951 . S
C532 C531 1.340 . S
C532 C533 1.439 . S
C532 H572 0.950 . S
C533 C532 1.439 . S
C533 N534 1.374 . S
C533 C567 1.395 . S
N534 C530 1.376 . S
N534 C533 1.374 . S
N534 Co535 2.008 . S
Co535 N534 2.008 . S
Co535 N536 1.995 . S
Co535 N541 2.008 . S
Co535 N546 1.995 . S
Co535 N551 2.282 . S
Co535 N557 2.282 . S
N536 Co535 1.995 . S
N536 C537 1.376 . S
N536 C540 1.383 . S
C537 N536 1.376 . S
C537 C538 1.446 . S
C537 C567 1.391 . S
C538 C537 1.446 . S
C538 C539 1.339 . S
C538 H573 0.949 . S
C539 C538 1.339 . S
C539 C540 1.439 . S
C539 H574 0.950 . S
C540 N536 1.383 . S
C540 C539 1.439 . S
C540 C569 1.392 . S
N541 Co535 2.008 . S
N541 C542 1.376 . S
N541 C545 1.374 . S
C542 N541 1.376 . S
C542 C543 1.443 . S
C542 C569 1.389 . S
C543 C542 1.443 . S
C543 C544 1.340 . S
C543 H575 0.951 . S
C544 C543 1.340 . S
C544 C545 1.439 . S
C544 H576 0.950 . S
C545 N541 1.374 . S
C545 C544 1.439 . S
C545 C570 1.395 . S
N546 Co535 1.995 . S
N546 C547 1.376 . S
N546 C550 1.383 . S
C547 N546 1.376 . S
C547 C548 1.446 . S
C547 C570 1.391 . S
C548 C547 1.446 . S
C548 C549 1.339 . S
C548 H577 0.949 . S
C549 C548 1.339 . S
C549 C550 1.439 . S
C549 H578 0.950 . S
C550 N546 1.383 . S
C550 C549 1.439 . S
C550 C568 1.392 . S
N551 Co535 2.282 . S
N551 C554 1.332 . S
N551 C556 1.332 . S
C552 C553 1.386 . S
C552 C555 1.388 . S
C553 C552 1.386 . S
C553 C554 1.382 . S
C553 H579 0.950 . S
C554 N551 1.332 . S
C554 C553 1.382 . S
C554 H565 0.952 . S
C555 C552 1.388 . S
C555 C556 1.382 . S
C555 H580 0.950 . S
C556 N551 1.332 . S
C556 C555 1.382 . S
C556 H566 0.948 . S
N557 Co535 2.282 . S
N557 C561 1.332 . S
N557 C562 1.332 . S
C558 C559 1.388 . S
C558 C562 1.382 . S
C558 H581 0.950 . S
C559 C558 1.388 . S
C559 C560 1.386 . S
C560 C559 1.386 . S
C560 C561 1.382 . S
C560 H582 0.950 . S
C561 N557 1.332 . S
C561 C560 1.382 . S
C561 H563 0.952 . S
C562 N557 1.332 . S
C562 C558 1.382 . S
C562 H564 0.948 . S
H563 C561 0.952 . S
H564 C562 0.948 . S
H565 C554 0.952 . S
H566 C556 0.948 . S
C567 C533 1.395 . S
C567 C537 1.391 . S
C568 C530 1.389 . S
C568 C550 1.392 . S
C569 C540 1.392 . S
C569 C542 1.389 . S
C570 C545 1.395 . S
C570 C547 1.391 . S
H571 C531 0.951 . S
H572 C532 0.950 . S
H573 C538 0.949 . S
H574 C539 0.950 . S
H575 C543 0.951 . S
H576 C544 0.950 . S
H577 C548 0.949 . S
H578 C549 0.950 . S
H579 C553 0.950 . S
H580 C555 0.950 . S
H581 C558 0.950 . S
H582 C560 0.950 . S
C583 C584 1.443 . S
C583 N587 1.376 . S
C583 C621 1.389 . S
C584 C583 1.443 . S
C584 C585 1.340 . S
C584 H624 0.951 . S
C585 C584 1.340 . S
C585 C586 1.439 . S
C585 H625 0.950 . S
C586 C585 1.439 . S
C586 N587 1.374 . S
C586 C620 1.395 . S
N587 C583 1.376 . S
N587 C586 1.374 . S
N587 Co588 2.008 . S
Co588 N587 2.008 . S
Co588 N589 1.995 . S
Co588 N594 2.008 . S
Co588 N599 1.995 . S
Co588 N604 2.282 . S
Co588 N610 2.282 . S
N589 Co588 1.995 . S
N589 C590 1.376 . S
N589 C593 1.383 . S
C590 N589 1.376 . S
C590 C591 1.446 . S
C590 C620 1.391 . S
C591 C590 1.446 . S
C591 C592 1.339 . S
C591 H626 0.949 . S
C592 C591 1.339 . S
C592 C593 1.439 . S
C592 H627 0.950 . S
C593 N589 1.383 . S
C593 C592 1.439 . S
C593 C622 1.392 . S
N594 Co588 2.008 . S
N594 C595 1.376 . S
N594 C598 1.374 . S
C595 N594 1.376 . S
C595 C596 1.443 . S
C595 C622 1.389 . S
C596 C595 1.443 . S
C596 C597 1.340 . S
C596 H628 0.951 . S
C597 C596 1.340 . S
C597 C598 1.439 . S
C597 H629 0.950 . S
C598 N594 1.374 . S
C598 C597 1.439 . S
C598 C623 1.395 . S
N599 Co588 1.995 . S
N599 C600 1.376 . S
N599 C603 1.383 . S
C600 N599 1.376 . S
C600 C601 1.446 . S
C600 C623 1.391 . S
C601 C600 1.446 . S
C601 C602 1.339 . S
C601 H630 0.949 . S
C602 C601 1.339 . S
C602 C603 1.439 . S
C602 H631 0.950 . S
C603 N599 1.383 . S
C603 C602 1.439 . S
C603 C621 1.392 . S
N604 Co588 2.282 . S
N604 C607 1.332 . S
N604 C609 1.332 . S
C605 C606 1.386 . S
C605 C608 1.388 . S
C606 C605 1.386 . S
C606 C607 1.382 . S
C606 H632 0.950 . S
C607 N604 1.332 . S
C607 C606 1.382 . S
C607 H618 0.952 . S
C608 C605 1.388 . S
C608 C609 1.382 . S
C608 H633 0.950 . S
C609 N604 1.332 . S
C609 C608 1.382 . S
C609 H619 0.948 . S
N610 Co588 2.282 . S
N610 C614 1.332 . S
N610 C615 1.332 . S
C611 C612 1.388 . S
C611 C615 1.382 . S
C611 H634 0.950 . S
C612 C611 1.388 . S
C612 C613 1.386 . S
C613 C612 1.386 . S
C613 C614 1.382 . S
C613 H635 0.950 . S
C614 N610 1.332 . S
C614 C613 1.382 . S
C614 H616 0.952 . S
C615 N610 1.332 . S
C615 C611 1.382 . S
C615 H617 0.948 . S
H616 C614 0.952 . S
H617 C615 0.948 . S
H618 C607 0.952 . S
H619 C609 0.948 . S
C620 C586 1.395 . S
C620 C590 1.391 . S
C621 C583 1.389 . S
C621 C603 1.392 . S
C622 C593 1.392 . S
C622 C595 1.389 . S
C623 C598 1.395 . S
C623 C600 1.391 . S
H624 C584 0.951 . S
H625 C585 0.950 . S
H626 C591 0.949 . S
H627 C592 0.950 . S
H628 C596 0.951 . S
H629 C597 0.950 . S
H630 C601 0.949 . S
H631 C602 0.950 . S
H632 C606 0.950 . S
H633 C608 0.950 . S
H634 C611 0.950 . S
H635 C613 0.950 . S
H636 C644 0.929 . S
H637 C646 0.930 . S
H638 C648 0.930 . S
H639 C651 0.929 . S
H640 C654 0.930 . S
H641 C656 0.960 . S
H642 C656 0.960 . S
H643 C656 0.960 . S
C644 H636 0.929 . S
C644 C645 1.377 . S
C644 C646 1.384 . S
C645 C644 1.377 . S
C645 C651 1.390 . S
C646 H637 0.930 . S
C646 C644 1.384 . S
C646 C647 1.372 . S
C647 C646 1.372 . S
C647 C648 1.400 . S
C647 C652 1.490 . S
C648 H638 0.930 . S
C648 C647 1.400 . S
C648 C651 1.386 . S
H649 C665 0.930 . S
H650 C666 0.931 . S
C651 H639 0.929 . S
C651 C645 1.390 . S
C651 C648 1.386 . S
C652 C647 1.490 . S
C652 C654 1.395 . S
C652 C655 1.403 . S
H653 C659 0.930 . S
C654 H640 0.930 . S
C654 C652 1.395 . S
C654 C657 1.403 . S
C655 C652 1.403 . S
C655 C656 1.524 . S
C655 C659 1.400 . S
C656 H641 0.960 . S
C656 H642 0.960 . S
C656 H643 0.960 . S
C656 C655 1.524 . S
C657 C654 1.403 . S
C657 C658 1.392 . S
C657 C661 1.495 . S
C658 C657 1.392 . S
C658 C659 1.385 . S
C658 C660 1.478 . S
C659 H653 0.930 . S
C659 C655 1.400 . S
C659 C658 1.385 . S
C660 C658 1.478 . S
C660 C662 1.381 . S
C660 C666 1.383 . S
C661 C657 1.495 . S
C661 H667 0.959 . S
C661 H668 0.961 . S
C661 H669 0.960 . S
C662 C660 1.381 . S
C662 C663 1.394 . S
C662 H670 0.930 . S
C663 C662 1.394 . S
C663 C664 1.383 . S
C663 H671 0.929 . S
C664 C663 1.383 . S
C664 C665 1.377 . S
C665 H649 0.930 . S
C665 C664 1.377 . S
C665 C666 1.379 . S
C666 H650 0.931 . S
C666 C660 1.383 . S
C666 C665 1.379 . S
H667 C661 0.959 . S
H668 C661 0.961 . S
H669 C661 0.960 . S
H670 C662 0.930 . S
H671 C663 0.929 . S
H672 C680 0.929 . S
H673 C682 0.930 . S
H674 C684 0.930 . S
H675 C687 0.929 . S
H676 C690 0.930 . S
H677 C692 0.960 . S
H678 C692 0.960 . S
H679 C692 0.960 . S
C680 H672 0.929 . S
C680 C681 1.377 . S
C680 C682 1.384 . S
C681 C680 1.377 . S
C681 C687 1.390 . S
C682 H673 0.930 . S
C682 C680 1.384 . S
C682 C683 1.372 . S
C683 C682 1.372 . S
C683 C684 1.400 . S
C683 C688 1.490 . S
C684 H674 0.930 . S
C684 C683 1.400 . S
C684 C687 1.386 . S
H685 C701 0.930 . S
H686 C702 0.931 . S
C687 H675 0.929 . S
C687 C681 1.390 . S
C687 C684 1.386 . S
C688 C683 1.490 . S
C688 C690 1.395 . S
C688 C691 1.403 . S
H689 C695 0.930 . S
C690 H676 0.930 . S
C690 C688 1.395 . S
C690 C693 1.403 . S
C691 C688 1.403 . S
C691 C692 1.524 . S
C691 C695 1.400 . S
C692 H677 0.960 . S
C692 H678 0.960 . S
C692 H679 0.960 . S
C692 C691 1.524 . S
C693 C690 1.403 . S
C693 C694 1.392 . S
C693 C697 1.495 . S
C694 C693 1.392 . S
C694 C695 1.385 . S
C694 C696 1.478 . S
C695 H689 0.930 . S
C695 C691 1.400 . S
C695 C694 1.385 . S
C696 C694 1.478 . S
C696 C698 1.381 . S
C696 C702 1.383 . S
C697 C693 1.495 . S
C697 H703 0.959 . S
C697 H704 0.961 . S
C697 H705 0.960 . S
C698 C696 1.381 . S
C698 C699 1.394 . S
C698 H706 0.930 . S
C699 C698 1.394 . S
C699 C700 1.383 . S
C699 H707 0.929 . S
C700 C699 1.383 . S
C700 C701 1.377 . S
C701 H685 0.930 . S
C701 C700 1.377 . S
C701 C702 1.379 . S
C702 H686 0.931 . S
C702 C696 1.383 . S
C702 C701 1.379 . S
H703 C697 0.959 . S
H704 C697 0.961 . S
H705 C697 0.960 . S
H706 C698 0.930 . S
H707 C699 0.929 . S
H708 C716 0.929 . S
H709 C718 0.930 . S
H710 C720 0.930 . S
H711 C723 0.929 . S
H712 C726 0.930 . S
H713 C728 0.960 . S
H714 C728 0.960 . S
H715 C728 0.960 . S
C716 H708 0.929 . S
C716 C717 1.377 . S
C716 C718 1.384 . S
C717 C716 1.377 . S
C717 C723 1.390 . S
C718 H709 0.930 . S
C718 C716 1.384 . S
C718 C719 1.372 . S
C719 C718 1.372 . S
C719 C720 1.400 . S
C719 C724 1.490 . S
C720 H710 0.930 . S
C720 C719 1.400 . S
C720 C723 1.386 . S
H721 C737 0.930 . S
H722 C738 0.931 . S
C723 H711 0.929 . S
C723 C717 1.390 . S
C723 C720 1.386 . S
C724 C719 1.490 . S
C724 C726 1.395 . S
C724 C727 1.403 . S
H725 C731 0.930 . S
C726 H712 0.930 . S
C726 C724 1.395 . S
C726 C729 1.403 . S
C727 C724 1.403 . S
C727 C728 1.524 . S
C727 C731 1.400 . S
C728 H713 0.960 . S
C728 H714 0.960 . S
C728 H715 0.960 . S
C728 C727 1.524 . S
C729 C726 1.403 . S
C729 C730 1.392 . S
C729 C733 1.495 . S
C730 C729 1.392 . S
C730 C731 1.385 . S
C730 C732 1.478 . S
C731 H725 0.930 . S
C731 C727 1.400 . S
C731 C730 1.385 . S
C732 C730 1.478 . S
C732 C734 1.381 . S
C732 C738 1.383 . S
C733 C729 1.495 . S
C733 H739 0.959 . S
C733 H740 0.961 . S
C733 H741 0.960 . S
C734 C732 1.381 . S
C734 C735 1.394 . S
C734 H742 0.930 . S
C735 C734 1.394 . S
C735 C736 1.383 . S
C735 H743 0.929 . S
C736 C735 1.383 . S
C736 C737 1.377 . S
C737 H721 0.930 . S
C737 C736 1.377 . S
C737 C738 1.379 . S
C738 H722 0.931 . S
C738 C732 1.383 . S
C738 C737 1.379 . S
H739 C733 0.959 . S
H740 C733 0.961 . S
H741 C733 0.960 . S
H742 C734 0.930 . S
H743 C735 0.929 . S
H744 C752 0.929 . S
H745 C754 0.930 . S
H746 C756 0.930 . S
H747 C759 0.929 . S
H748 C762 0.930 . S
H749 C764 0.960 . S
H750 C764 0.960 . S
H751 C764 0.960 . S
C752 H744 0.929 . S
C752 C753 1.377 . S
C752 C754 1.384 . S
C753 C752 1.377 . S
C753 C759 1.390 . S
C754 H745 0.930 . S
C754 C752 1.384 . S
C754 C755 1.372 . S
C755 C754 1.372 . S
C755 C756 1.400 . S
C755 C760 1.490 . S
C756 H746 0.930 . S
C756 C755 1.400 . S
C756 C759 1.386 . S
H757 C773 0.930 . S
H758 C774 0.931 . S
C759 H747 0.929 . S
C759 C753 1.390 . S
C759 C756 1.386 . S
C760 C755 1.490 . S
C760 C762 1.395 . S
C760 C763 1.403 . S
H761 C767 0.930 . S
C762 H748 0.930 . S
C762 C760 1.395 . S
C762 C765 1.403 . S
C763 C760 1.403 . S
C763 C764 1.524 . S
C763 C767 1.400 . S
C764 H749 0.960 . S
C764 H750 0.960 . S
C764 H751 0.960 . S
C764 C763 1.524 . S
C765 C762 1.403 . S
C765 C766 1.392 . S
C765 C769 1.495 . S
C766 C765 1.392 . S
C766 C767 1.385 . S
C766 C768 1.478 . S
C767 H761 0.930 . S
C767 C763 1.400 . S
C767 C766 1.385 . S
C768 C766 1.478 . S
C768 C770 1.381 . S
C768 C774 1.383 . S
C769 C765 1.495 . S
C769 H775 0.959 . S
C769 H776 0.961 . S
C769 H777 0.960 . S
C770 C768 1.381 . S
C770 C771 1.394 . S
C770 H778 0.930 . S
C771 C770 1.394 . S
C771 C772 1.383 . S
C771 H779 0.929 . S
C772 C771 1.383 . S
C772 C773 1.377 . S
C773 H757 0.930 . S
C773 C772 1.377 . S
C773 C774 1.379 . S
C774 H758 0.931 . S
C774 C768 1.383 . S
C774 C773 1.379 . S
H775 C769 0.959 . S
H776 C769 0.961 . S
H777 C769 0.960 . S
H778 C770 0.930 . S
H779 C771 0.929 . S
H780 C788 0.929 . S
H781 C790 0.930 . S
H782 C792 0.930 . S
H783 C795 0.929 . S
H784 C798 0.930 . S
H785 C800 0.960 . S
H786 C800 0.960 . S
H787 C800 0.960 . S
C788 H780 0.929 . S
C788 C789 1.377 . S
C788 C790 1.384 . S
C789 C788 1.377 . S
C789 C795 1.390 . S
C790 H781 0.930 . S
C790 C788 1.384 . S
C790 C791 1.372 . S
C791 C790 1.372 . S
C791 C792 1.400 . S
C791 C796 1.490 . S
C792 H782 0.930 . S
C792 C791 1.400 . S
C792 C795 1.386 . S
H793 C809 0.930 . S
H794 C810 0.931 . S
C795 H783 0.929 . S
C795 C789 1.390 . S
C795 C792 1.386 . S
C796 C791 1.490 . S
C796 C798 1.395 . S
C796 C799 1.403 . S
H797 C803 0.930 . S
C798 H784 0.930 . S
C798 C796 1.395 . S
C798 C801 1.403 . S
C799 C796 1.403 . S
C799 C800 1.524 . S
C799 C803 1.400 . S
C800 H785 0.960 . S
C800 H786 0.960 . S
C800 H787 0.960 . S
C800 C799 1.524 . S
C801 C798 1.403 . S
C801 C802 1.392 . S
C801 C805 1.495 . S
C802 C801 1.392 . S
C802 C803 1.385 . S
C802 C804 1.478 . S
C803 H797 0.930 . S
C803 C799 1.400 . S
C803 C802 1.385 . S
C804 C802 1.478 . S
C804 C806 1.381 . S
C804 C810 1.383 . S
C805 C801 1.495 . S
C805 H811 0.959 . S
C805 H812 0.961 . S
C805 H813 0.960 . S
C806 C804 1.381 . S
C806 C807 1.394 . S
C806 H814 0.930 . S
C807 C806 1.394 . S
C807 C808 1.383 . S
C807 H815 0.929 . S
C808 C807 1.383 . S
C808 C809 1.377 . S
C809 H793 0.930 . S
C809 C808 1.377 . S
C809 C810 1.379 . S
C810 H794 0.931 . S
C810 C804 1.383 . S
C810 C809 1.379 . S
H811 C805 0.959 . S
H812 C805 0.961 . S
H813 C805 0.960 . S
H814 C806 0.930 . S
H815 C807 0.929 . S
H816 C824 0.929 . S
H817 C826 0.930 . S
H818 C828 0.930 . S
H819 C831 0.929 . S
H820 C834 0.930 . S
H821 C836 0.960 . S
H822 C836 0.960 . S
H823 C836 0.960 . S
C824 H816 0.929 . S
C824 C825 1.377 . S
C824 C826 1.384 . S
C825 C824 1.377 . S
C825 C831 1.390 . S
C826 H817 0.930 . S
C826 C824 1.384 . S
C826 C827 1.372 . S
C827 C826 1.372 . S
C827 C828 1.400 . S
C827 C832 1.490 . S
C828 H818 0.930 . S
C828 C827 1.400 . S
C828 C831 1.386 . S
H829 C845 0.930 . S
H830 C846 0.931 . S
C831 H819 0.929 . S
C831 C825 1.390 . S
C831 C828 1.386 . S
C832 C827 1.490 . S
C832 C834 1.395 . S
C832 C835 1.403 . S
H833 C839 0.930 . S
C834 H820 0.930 . S
C834 C832 1.395 . S
C834 C837 1.403 . S
C835 C832 1.403 . S
C835 C836 1.524 . S
C835 C839 1.400 . S
C836 H821 0.960 . S
C836 H822 0.960 . S
C836 H823 0.960 . S
C836 C835 1.524 . S
C837 C834 1.403 . S
C837 C838 1.392 . S
C837 C841 1.495 . S
C838 C837 1.392 . S
C838 C839 1.385 . S
C838 C840 1.478 . S
C839 H833 0.930 . S
C839 C835 1.400 . S
C839 C838 1.385 . S
C840 C838 1.478 . S
C840 C842 1.381 . S
C840 C846 1.383 . S
C841 C837 1.495 . S
C841 H847 0.959 . S
C841 H848 0.961 . S
C841 H849 0.960 . S
C842 C840 1.381 . S
C842 C843 1.394 . S
C842 H850 0.930 . S
C843 C842 1.394 . S
C843 C844 1.383 . S
C843 H851 0.929 . S
C844 C843 1.383 . S
C844 C845 1.377 . S
C845 H829 0.930 . S
C845 C844 1.377 . S
C845 C846 1.379 . S
C846 H830 0.931 . S
C846 C840 1.383 . S
C846 C845 1.379 . S
H847 C841 0.959 . S
H848 C841 0.961 . S
H849 C841 0.960 . S
H850 C842 0.930 . S
H851 C843 0.929 . S
H852 C860 0.929 . S
H853 C862 0.930 . S
H854 C864 0.930 . S
H855 C867 0.929 . S
H856 C870 0.930 . S
H857 C872 0.960 . S
H858 C872 0.960 . S
H859 C872 0.960 . S
C860 H852 0.929 . S
C860 C861 1.377 . S
C860 C862 1.384 . S
C861 C860 1.377 . S
C861 C867 1.390 . S
C862 H853 0.930 . S
C862 C860 1.384 . S
C862 C863 1.372 . S
C863 C862 1.372 . S
C863 C864 1.400 . S
C863 C868 1.490 . S
C864 H854 0.930 . S
C864 C863 1.400 . S
C864 C867 1.386 . S
H865 C881 0.930 . S
H866 C882 0.931 . S
C867 H855 0.929 . S
C867 C861 1.390 . S
C867 C864 1.386 . S
C868 C863 1.490 . S
C868 C870 1.395 . S
C868 C871 1.403 . S
H869 C875 0.930 . S
C870 H856 0.930 . S
C870 C868 1.395 . S
C870 C873 1.403 . S
C871 C868 1.403 . S
C871 C872 1.524 . S
C871 C875 1.400 . S
C872 H857 0.960 . S
C872 H858 0.960 . S
C872 H859 0.960 . S
C872 C871 1.524 . S
C873 C870 1.403 . S
C873 C874 1.392 . S
C873 C877 1.495 . S
C874 C873 1.392 . S
C874 C875 1.385 . S
C874 C876 1.478 . S
C875 H869 0.930 . S
C875 C871 1.400 . S
C875 C874 1.385 . S
C876 C874 1.478 . S
C876 C878 1.381 . S
C876 C882 1.383 . S
C877 C873 1.495 . S
C877 H883 0.959 . S
C877 H884 0.961 . S
C877 H885 0.960 . S
C878 C876 1.381 . S
C878 C879 1.394 . S
C878 H886 0.930 . S
C879 C878 1.394 . S
C879 C880 1.383 . S
C879 H887 0.929 . S
C880 C879 1.383 . S
C880 C881 1.377 . S
C881 H865 0.930 . S
C881 C880 1.377 . S
C881 C882 1.379 . S
C882 H866 0.931 . S
C882 C876 1.383 . S
C882 C881 1.379 . S
H883 C877 0.959 . S
H884 C877 0.961 . S
H885 C877 0.960 . S
H886 C878 0.930 . S
H887 C879 0.929 . S
H888 C896 0.929 . S
H889 C898 0.930 . S
H890 C900 0.930 . S
H891 C903 0.929 . S
H892 C906 0.930 . S
H893 C908 0.960 . S
H894 C908 0.960 . S
H895 C908 0.960 . S
C896 H888 0.929 . S
C896 C897 1.377 . S
C896 C898 1.384 . S
C897 C896 1.377 . S
C897 C903 1.390 . S
C898 H889 0.930 . S
C898 C896 1.384 . S
C898 C899 1.372 . S
C899 C898 1.372 . S
C899 C900 1.400 . S
C899 C904 1.490 . S
C900 H890 0.930 . S
C900 C899 1.400 . S
C900 C903 1.386 . S
H901 C917 0.930 . S
H902 C918 0.931 . S
C903 H891 0.929 . S
C903 C897 1.390 . S
C903 C900 1.386 . S
C904 C899 1.490 . S
C904 C906 1.395 . S
C904 C907 1.403 . S
H905 C911 0.930 . S
C906 H892 0.930 . S
C906 C904 1.395 . S
C906 C909 1.403 . S
C907 C904 1.403 . S
C907 C908 1.524 . S
C907 C911 1.400 . S
C908 H893 0.960 . S
C908 H894 0.960 . S
C908 H895 0.960 . S
C908 C907 1.524 . S
C909 C906 1.403 . S
C909 C910 1.392 . S
C909 C913 1.495 . S
C910 C909 1.392 . S
C910 C911 1.385 . S
C910 C912 1.478 . S
C911 H905 0.930 . S
C911 C907 1.400 . S
C911 C910 1.385 . S
C912 C910 1.478 . S
C912 C914 1.381 . S
C912 C918 1.383 . S
C913 C909 1.495 . S
C913 H919 0.959 . S
C913 H920 0.961 . S
C913 H921 0.960 . S
C914 C912 1.381 . S
C914 C915 1.394 . S
C914 H922 0.930 . S
C915 C914 1.394 . S
C915 C916 1.383 . S
C915 H923 0.929 . S
C916 C915 1.383 . S
C916 C917 1.377 . S
C917 H901 0.930 . S
C917 C916 1.377 . S
C917 C918 1.379 . S
C918 H902 0.931 . S
C918 C912 1.383 . S
C918 C917 1.379 . S
H919 C913 0.959 . S
H920 C913 0.961 . S
H921 C913 0.960 . S
H922 C914 0.930 . S
H923 C915 0.929 . S
H924 C932 0.929 . S
H925 C934 0.930 . S
H926 C936 0.930 . S
H927 C939 0.929 . S
H928 C942 0.930 . S
H929 C944 0.960 . S
H930 C944 0.960 . S
H931 C944 0.960 . S
C932 H924 0.929 . S
C932 C933 1.377 . S
C932 C934 1.384 . S
C933 C932 1.377 . S
C933 C939 1.390 . S
C934 H925 0.930 . S
C934 C932 1.384 . S
C934 C935 1.372 . S
C935 C934 1.372 . S
C935 C936 1.400 . S
C935 C940 1.490 . S
C936 H926 0.930 . S
C936 C935 1.400 . S
C936 C939 1.386 . S
H937 C953 0.930 . S
H938 C954 0.931 . S
C939 H927 0.929 . S
C939 C933 1.390 . S
C939 C936 1.386 . S
C940 C935 1.490 . S
C940 C942 1.395 . S
C940 C943 1.403 . S
H941 C947 0.930 . S
C942 H928 0.930 . S
C942 C940 1.395 . S
C942 C945 1.403 . S
C943 C940 1.403 . S
C943 C944 1.524 . S
C943 C947 1.400 . S
C944 H929 0.960 . S
C944 H930 0.960 . S
C944 H931 0.960 . S
C944 C943 1.524 . S
C945 C942 1.403 . S
C945 C946 1.392 . S
C945 C949 1.495 . S
C946 C945 1.392 . S
C946 C947 1.385 . S
C946 C948 1.478 . S
C947 H941 0.930 . S
C947 C943 1.400 . S
C947 C946 1.385 . S
C948 C946 1.478 . S
C948 C950 1.381 . S
C948 C954 1.383 . S
C949 C945 1.495 . S
C949 H955 0.959 . S
C949 H956 0.961 . S
C949 H957 0.960 . S
C950 C948 1.381 . S
C950 C951 1.394 . S
C950 H958 0.930 . S
C951 C950 1.394 . S
C951 C952 1.383 . S
C951 H959 0.929 . S
C952 C951 1.383 . S
C952 C953 1.377 . S
C953 H937 0.930 . S
C953 C952 1.377 . S
C953 C954 1.379 . S
C954 H938 0.931 . S
C954 C948 1.383 . S
C954 C953 1.379 . S
H955 C949 0.959 . S
H956 C949 0.961 . S
H957 C949 0.960 . S
H958 C950 0.930 . S
H959 C951 0.929 . S
H960 C968 0.929 . S
H961 C970 0.930 . S
H962 C972 0.930 . S
H963 C975 0.929 . S
H964 C978 0.930 . S
H965 C980 0.960 . S
H966 C980 0.960 . S
H967 C980 0.960 . S
C968 H960 0.929 . S
C968 C969 1.377 . S
C968 C970 1.384 . S
C969 C968 1.377 . S
C969 C975 1.390 . S
C970 H961 0.930 . S
C970 C968 1.384 . S
C970 C971 1.372 . S
C971 C970 1.372 . S
C971 C972 1.400 . S
C971 C976 1.490 . S
C972 H962 0.930 . S
C972 C971 1.400 . S
C972 C975 1.386 . S
H973 C989 0.930 . S
H974 C990 0.931 . S
C975 H963 0.929 . S
C975 C969 1.390 . S
C975 C972 1.386 . S
C976 C971 1.490 . S
C976 C978 1.395 . S
C976 C979 1.403 . S
H977 C983 0.930 . S
C978 H964 0.930 . S
C978 C976 1.395 . S
C978 C981 1.403 . S
C979 C976 1.403 . S
C979 C980 1.524 . S
C979 C983 1.400 . S
C980 H965 0.960 . S
C980 H966 0.960 . S
C980 H967 0.960 . S
C980 C979 1.524 . S
C981 C978 1.403 . S
C981 C982 1.392 . S
C981 C985 1.495 . S
C982 C981 1.392 . S
C982 C983 1.385 . S
C982 C984 1.478 . S
C983 H977 0.930 . S
C983 C979 1.400 . S
C983 C982 1.385 . S
C984 C982 1.478 . S
C984 C986 1.381 . S
C984 C990 1.383 . S
C985 C981 1.495 . S
C985 H991 0.959 . S
C985 H992 0.961 . S
C985 H993 0.960 . S
C986 C984 1.381 . S
C986 C987 1.394 . S
C986 H994 0.930 . S
C987 C986 1.394 . S
C987 C988 1.383 . S
C987 H995 0.929 . S
C988 C987 1.383 . S
C988 C989 1.377 . S
C989 H973 0.930 . S
C989 C988 1.377 . S
C989 C990 1.379 . S
C990 H974 0.931 . S
C990 C984 1.383 . S
C990 C989 1.379 . S
H991 C985 0.959 . S
H992 C985 0.961 . S
H993 C985 0.960 . S
H994 C986 0.930 . S
H995 C987 0.929 . S
H996 C1004 0.929 . S
H997 C1006 0.930 . S
H998 C1008 0.930 . S
H999 C1011 0.929 . S
H1000 C1014 0.930 . S
H1001 C1016 0.960 . S
H1002 C1016 0.960 . S
H1003 C1016 0.960 . S
C1004 H996 0.929 . S
C1004 C1005 1.377 . S
C1004 C1006 1.384 . S
C1005 C1004 1.377 . S
C1005 C1011 1.390 . S
C1006 H997 0.930 . S
C1006 C1004 1.384 . S
C1006 C1007 1.372 . S
C1007 C1006 1.372 . S
C1007 C1008 1.400 . S
C1007 C1012 1.490 . S
C1008 H998 0.930 . S
C1008 C1007 1.400 . S
C1008 C1011 1.386 . S
H1009 C1025 0.930 . S
H1010 C1026 0.931 . S
C1011 H999 0.929 . S
C1011 C1005 1.390 . S
C1011 C1008 1.386 . S
C1012 C1007 1.490 . S
C1012 C1014 1.395 . S
C1012 C1015 1.403 . S
H1013 C1019 0.930 . S
C1014 H1000 0.930 . S
C1014 C1012 1.395 . S
C1014 C1017 1.403 . S
C1015 C1012 1.403 . S
C1015 C1016 1.524 . S
C1015 C1019 1.400 . S
C1016 H1001 0.960 . S
C1016 H1002 0.960 . S
C1016 H1003 0.960 . S
C1016 C1015 1.524 . S
C1017 C1014 1.403 . S
C1017 C1018 1.392 . S
C1017 C1021 1.495 . S
C1018 C1017 1.392 . S
C1018 C1019 1.385 . S
C1018 C1020 1.478 . S
C1019 H1013 0.930 . S
C1019 C1015 1.400 . S
C1019 C1018 1.385 . S
C1020 C1018 1.478 . S
C1020 C1022 1.381 . S
C1020 C1026 1.383 . S
C1021 C1017 1.495 . S
C1021 H1027 0.959 . S
C1021 H1028 0.961 . S
C1021 H1029 0.960 . S
C1022 C1020 1.381 . S
C1022 C1023 1.394 . S
C1022 H1030 0.930 . S
C1023 C1022 1.394 . S
C1023 C1024 1.383 . S
C1023 H1031 0.929 . S
C1024 C1023 1.383 . S
C1024 C1025 1.377 . S
C1025 H1009 0.930 . S
C1025 C1024 1.377 . S
C1025 C1026 1.379 . S
C1026 H1010 0.931 . S
C1026 C1020 1.383 . S
C1026 C1025 1.379 . S
H1027 C1021 0.959 . S
H1028 C1021 0.961 . S
H1029 C1021 0.960 . S
H1030 C1022 0.930 . S
H1031 C1023 0.929 . S
H1032 C1040 0.929 . S
H1033 C1042 0.930 . S
H1034 C1044 0.930 . S
H1035 C1047 0.929 . S
H1036 C1050 0.930 . S
H1037 C1052 0.960 . S
H1038 C1052 0.960 . S
H1039 C1052 0.960 . S
C1040 H1032 0.929 . S
C1040 C1041 1.377 . S
C1040 C1042 1.384 . S
C1041 C1040 1.377 . S
C1041 C1047 1.390 . S
C1042 H1033 0.930 . S
C1042 C1040 1.384 . S
C1042 C1043 1.372 . S
C1043 C1042 1.372 . S
C1043 C1044 1.400 . S
C1043 C1048 1.490 . S
C1044 H1034 0.930 . S
C1044 C1043 1.400 . S
C1044 C1047 1.386 . S
H1045 C1061 0.930 . S
H1046 C1062 0.931 . S
C1047 H1035 0.929 . S
C1047 C1041 1.390 . S
C1047 C1044 1.386 . S
C1048 C1043 1.490 . S
C1048 C1050 1.395 . S
C1048 C1051 1.403 . S
H1049 C1055 0.930 . S
C1050 H1036 0.930 . S
C1050 C1048 1.395 . S
C1050 C1053 1.403 . S
C1051 C1048 1.403 . S
C1051 C1052 1.524 . S
C1051 C1055 1.400 . S
C1052 H1037 0.960 . S
C1052 H1038 0.960 . S
C1052 H1039 0.960 . S
C1052 C1051 1.524 . S
C1053 C1050 1.403 . S
C1053 C1054 1.392 . S
C1053 C1057 1.495 . S
C1054 C1053 1.392 . S
C1054 C1055 1.385 . S
C1054 C1056 1.478 . S
C1055 H1049 0.930 . S
C1055 C1051 1.400 . S
C1055 C1054 1.385 . S
C1056 C1054 1.478 . S
C1056 C1058 1.381 . S
C1056 C1062 1.383 . S
C1057 C1053 1.495 . S
C1057 H1063 0.959 . S
C1057 H1064 0.961 . S
C1057 H1065 0.960 . S
C1058 C1056 1.381 . S
C1058 C1059 1.394 . S
C1058 H1066 0.930 . S
C1059 C1058 1.394 . S
C1059 C1060 1.383 . S
C1059 H1067 0.929 . S
C1060 C1059 1.383 . S
C1060 C1061 1.377 . S
C1061 H1045 0.930 . S
C1061 C1060 1.377 . S
C1061 C1062 1.379 . S
C1062 H1046 0.931 . S
C1062 C1056 1.383 . S
C1062 C1061 1.379 . S
H1063 C1057 0.959 . S
H1064 C1057 0.961 . S
H1065 C1057 0.960 . S
H1066 C1058 0.930 . S
H1067 C1059 0.929 . S
H1068 C1076 0.929 . S
H1069 C1078 0.930 . S
H1070 C1080 0.930 . S
H1071 C1083 0.929 . S
H1072 C1086 0.930 . S
H1073 C1088 0.960 . S
H1074 C1088 0.960 . S
H1075 C1088 0.960 . S
C1076 H1068 0.929 . S
C1076 C1077 1.377 . S
C1076 C1078 1.384 . S
C1077 C1076 1.377 . S
C1077 C1083 1.390 . S
C1078 H1069 0.930 . S
C1078 C1076 1.384 . S
C1078 C1079 1.372 . S
C1079 C1078 1.372 . S
C1079 C1080 1.400 . S
C1079 C1084 1.490 . S
C1080 H1070 0.930 . S
C1080 C1079 1.400 . S
C1080 C1083 1.386 . S
H1081 C1097 0.930 . S
H1082 C1098 0.931 . S
C1083 H1071 0.929 . S
C1083 C1077 1.390 . S
C1083 C1080 1.386 . S
C1084 C1079 1.490 . S
C1084 C1086 1.395 . S
C1084 C1087 1.403 . S
H1085 C1091 0.930 . S
C1086 H1072 0.930 . S
C1086 C1084 1.395 . S
C1086 C1089 1.403 . S
C1087 C1084 1.403 . S
C1087 C1088 1.524 . S
C1087 C1091 1.400 . S
C1088 H1073 0.960 . S
C1088 H1074 0.960 . S
C1088 H1075 0.960 . S
C1088 C1087 1.524 . S
C1089 C1086 1.403 . S
C1089 C1090 1.392 . S
C1089 C1093 1.495 . S
C1090 C1089 1.392 . S
C1090 C1091 1.385 . S
C1090 C1092 1.478 . S
C1091 H1085 0.930 . S
C1091 C1087 1.400 . S
C1091 C1090 1.385 . S
C1092 C1090 1.478 . S
C1092 C1094 1.381 . S
C1092 C1098 1.383 . S
C1093 C1089 1.495 . S
C1093 H1099 0.959 . S
C1093 H1100 0.961 . S
C1093 H1101 0.960 . S
C1094 C1092 1.381 . S
C1094 C1095 1.394 . S
C1094 H1102 0.930 . S
C1095 C1094 1.394 . S
C1095 C1096 1.383 . S
C1095 H1103 0.929 . S
C1096 C1095 1.383 . S
C1096 C1097 1.377 . S
C1097 H1081 0.930 . S
C1097 C1096 1.377 . S
C1097 C1098 1.379 . S
C1098 H1082 0.931 . S
C1098 C1092 1.383 . S
C1098 C1097 1.379 . S
H1099 C1093 0.959 . S
H1100 C1093 0.961 . S
H1101 C1093 0.960 . S
H1102 C1094 0.930 . S
H1103 C1095 0.929 . S
H1104 C1112 0.929 . S
H1105 C1114 0.930 . S
H1106 C1116 0.930 . S
H1107 C1119 0.929 . S
H1108 C1122 0.930 . S
H1109 C1124 0.960 . S
H1110 C1124 0.960 . S
H1111 C1124 0.960 . S
C1112 H1104 0.929 . S
C1112 C1113 1.377 . S
C1112 C1114 1.384 . S
C1113 C1112 1.377 . S
C1113 C1119 1.390 . S
C1114 H1105 0.930 . S
C1114 C1112 1.384 . S
C1114 C1115 1.372 . S
C1115 C1114 1.372 . S
C1115 C1116 1.400 . S
C1115 C1120 1.490 . S
C1116 H1106 0.930 . S
C1116 C1115 1.400 . S
C1116 C1119 1.386 . S
H1117 C1133 0.930 . S
H1118 C1134 0.931 . S
C1119 H1107 0.929 . S
C1119 C1113 1.390 . S
C1119 C1116 1.386 . S
C1120 C1115 1.490 . S
C1120 C1122 1.395 . S
C1120 C1123 1.403 . S
H1121 C1127 0.930 . S
C1122 H1108 0.930 . S
C1122 C1120 1.395 . S
C1122 C1125 1.403 . S
C1123 C1120 1.403 . S
C1123 C1124 1.524 . S
C1123 C1127 1.400 . S
C1124 H1109 0.960 . S
C1124 H1110 0.960 . S
C1124 H1111 0.960 . S
C1124 C1123 1.524 . S
C1125 C1122 1.403 . S
C1125 C1126 1.392 . S
C1125 C1129 1.495 . S
C1126 C1125 1.392 . S
C1126 C1127 1.385 . S
C1126 C1128 1.478 . S
C1127 H1121 0.930 . S
C1127 C1123 1.400 . S
C1127 C1126 1.385 . S
C1128 C1126 1.478 . S
C1128 C1130 1.381 . S
C1128 C1134 1.383 . S
C1129 C1125 1.495 . S
C1129 H1135 0.959 . S
C1129 H1136 0.961 . S
C1129 H1137 0.960 . S
C1130 C1128 1.381 . S
C1130 C1131 1.394 . S
C1130 H1138 0.930 . S
C1131 C1130 1.394 . S
C1131 C1132 1.383 . S
C1131 H1139 0.929 . S
C1132 C1131 1.383 . S
C1132 C1133 1.377 . S
C1133 H1117 0.930 . S
C1133 C1132 1.377 . S
C1133 C1134 1.379 . S
C1134 H1118 0.931 . S
C1134 C1128 1.383 . S
C1134 C1133 1.379 . S
H1135 C1129 0.959 . S
H1136 C1129 0.961 . S
H1137 C1129 0.960 . S
H1138 C1130 0.930 . S
H1139 C1131 0.929 . S
H1140 C1148 0.929 . S
H1141 C1150 0.930 . S
H1142 C1152 0.930 . S
H1143 C1155 0.929 . S
H1144 C1158 0.930 . S
H1145 C1160 0.960 . S
H1146 C1160 0.960 . S
H1147 C1160 0.960 . S
C1148 H1140 0.929 . S
C1148 C1149 1.377 . S
C1148 C1150 1.384 . S
C1149 C1148 1.377 . S
C1149 C1155 1.390 . S
C1150 H1141 0.930 . S
C1150 C1148 1.384 . S
C1150 C1151 1.372 . S
C1151 C1150 1.372 . S
C1151 C1152 1.400 . S
C1151 C1156 1.490 . S
C1152 H1142 0.930 . S
C1152 C1151 1.400 . S
C1152 C1155 1.386 . S
H1153 C1169 0.930 . S
H1154 C1170 0.931 . S
C1155 H1143 0.929 . S
C1155 C1149 1.390 . S
C1155 C1152 1.386 . S
C1156 C1151 1.490 . S
C1156 C1158 1.395 . S
C1156 C1159 1.403 . S
H1157 C1163 0.930 . S
C1158 H1144 0.930 . S
C1158 C1156 1.395 . S
C1158 C1161 1.403 . S
C1159 C1156 1.403 . S
C1159 C1160 1.524 . S
C1159 C1163 1.400 . S
C1160 H1145 0.960 . S
C1160 H1146 0.960 . S
C1160 H1147 0.960 . S
C1160 C1159 1.524 . S
C1161 C1158 1.403 . S
C1161 C1162 1.392 . S
C1161 C1165 1.495 . S
C1162 C1161 1.392 . S
C1162 C1163 1.385 . S
C1162 C1164 1.478 . S
C1163 H1157 0.930 . S
C1163 C1159 1.400 . S
C1163 C1162 1.385 . S
C1164 C1162 1.478 . S
C1164 C1166 1.381 . S
C1164 C1170 1.383 . S
C1165 C1161 1.495 . S
C1165 H1171 0.959 . S
C1165 H1172 0.961 . S
C1165 H1173 0.960 . S
C1166 C1164 1.381 . S
C1166 C1167 1.394 . S
C1166 H1174 0.930 . S
C1167 C1166 1.394 . S
C1167 C1168 1.383 . S
C1167 H1175 0.929 . S
C1168 C1167 1.383 . S
C1168 C1169 1.377 . S
C1169 H1153 0.930 . S
C1169 C1168 1.377 . S
C1169 C1170 1.379 . S
C1170 H1154 0.931 . S
C1170 C1164 1.383 . S
C1170 C1169 1.379 . S
H1171 C1165 0.959 . S
H1172 C1165 0.961 . S
H1173 C1165 0.960 . S
H1174 C1166 0.930 . S
H1175 C1167 0.929 . S
H1176 C1184 0.929 . S
H1177 C1186 0.930 . S
H1178 C1188 0.930 . S
H1179 C1191 0.929 . S
H1180 C1194 0.930 . S
H1181 C1196 0.960 . S
H1182 C1196 0.960 . S
H1183 C1196 0.960 . S
C1184 H1176 0.929 . S
C1184 C1185 1.377 . S
C1184 C1186 1.384 . S
C1185 C1184 1.377 . S
C1185 C1191 1.390 . S
C1186 H1177 0.930 . S
C1186 C1184 1.384 . S
C1186 C1187 1.372 . S
C1187 C1186 1.372 . S
C1187 C1188 1.400 . S
C1187 C1192 1.490 . S
C1188 H1178 0.930 . S
C1188 C1187 1.400 . S
C1188 C1191 1.386 . S
H1189 C1205 0.930 . S
H1190 C1206 0.931 . S
C1191 H1179 0.929 . S
C1191 C1185 1.390 . S
C1191 C1188 1.386 . S
C1192 C1187 1.490 . S
C1192 C1194 1.395 . S
C1192 C1195 1.403 . S
H1193 C1199 0.930 . S
C1194 H1180 0.930 . S
C1194 C1192 1.395 . S
C1194 C1197 1.403 . S
C1195 C1192 1.403 . S
C1195 C1196 1.524 . S
C1195 C1199 1.400 . S
C1196 H1181 0.960 . S
C1196 H1182 0.960 . S
C1196 H1183 0.960 . S
C1196 C1195 1.524 . S
C1197 C1194 1.403 . S
C1197 C1198 1.392 . S
C1197 C1201 1.495 . S
C1198 C1197 1.392 . S
C1198 C1199 1.385 . S
C1198 C1200 1.478 . S
C1199 H1193 0.930 . S
C1199 C1195 1.400 . S
C1199 C1198 1.385 . S
C1200 C1198 1.478 . S
C1200 C1202 1.381 . S
C1200 C1206 1.383 . S
C1201 C1197 1.495 . S
C1201 H1207 0.959 . S
C1201 H1208 0.961 . S
C1201 H1209 0.960 . S
C1202 C1200 1.381 . S
C1202 C1203 1.394 . S
C1202 H1210 0.930 . S
C1203 C1202 1.394 . S
C1203 C1204 1.383 . S
C1203 H1211 0.929 . S
C1204 C1203 1.383 . S
C1204 C1205 1.377 . S
C1205 H1189 0.930 . S
C1205 C1204 1.377 . S
C1205 C1206 1.379 . S
C1206 H1190 0.931 . S
C1206 C1200 1.383 . S
C1206 C1205 1.379 . S
H1207 C1201 0.959 . S
H1208 C1201 0.961 . S
H1209 C1201 0.960 . S
H1210 C1202 0.930 . S
H1211 C1203 0.929 . S
H1212 C1220 0.929 . S
H1213 C1222 0.930 . S
H1214 C1224 0.930 . S
H1215 C1227 0.929 . S
H1216 C1230 0.930 . S
H1217 C1232 0.960 . S
H1218 C1232 0.960 . S
H1219 C1232 0.960 . S
C1220 H1212 0.929 . S
C1220 C1221 1.377 . S
C1220 C1222 1.384 . S
C1221 C1220 1.377 . S
C1221 C1227 1.390 . S
C1222 H1213 0.930 . S
C1222 C1220 1.384 . S
C1222 C1223 1.372 . S
C1223 C1222 1.372 . S
C1223 C1224 1.400 . S
C1223 C1228 1.490 . S
C1224 H1214 0.930 . S
C1224 C1223 1.400 . S
C1224 C1227 1.386 . S
H1225 C1241 0.930 . S
H1226 C1242 0.931 . S
C1227 H1215 0.929 . S
C1227 C1221 1.390 . S
C1227 C1224 1.386 . S
C1228 C1223 1.490 . S
C1228 C1230 1.395 . S
C1228 C1231 1.403 . S
H1229 C1235 0.930 . S
C1230 H1216 0.930 . S
C1230 C1228 1.395 . S
C1230 C1233 1.403 . S
C1231 C1228 1.403 . S
C1231 C1232 1.524 . S
C1231 C1235 1.400 . S
C1232 H1217 0.960 . S
C1232 H1218 0.960 . S
C1232 H1219 0.960 . S
C1232 C1231 1.524 . S
C1233 C1230 1.403 . S
C1233 C1234 1.392 . S
C1233 C1237 1.495 . S
C1234 C1233 1.392 . S
C1234 C1235 1.385 . S
C1234 C1236 1.478 . S
C1235 H1229 0.930 . S
C1235 C1231 1.400 . S
C1235 C1234 1.385 . S
C1236 C1234 1.478 . S
C1236 C1238 1.381 . S
C1236 C1242 1.383 . S
C1237 C1233 1.495 . S
C1237 H1243 0.959 . S
C1237 H1244 0.961 . S
C1237 H1245 0.960 . S
C1238 C1236 1.381 . S
C1238 C1239 1.394 . S
C1238 H1246 0.930 . S
C1239 C1238 1.394 . S
C1239 C1240 1.383 . S
C1239 H1247 0.929 . S
C1240 C1239 1.383 . S
C1240 C1241 1.377 . S
C1241 H1225 0.930 . S
C1241 C1240 1.377 . S
C1241 C1242 1.379 . S
C1242 H1226 0.931 . S
C1242 C1236 1.383 . S
C1242 C1241 1.379 . S
H1243 C1237 0.959 . S
H1244 C1237 0.961 . S
H1245 C1237 0.960 . S
H1246 C1238 0.930 . S
H1247 C1239 0.929 . S
H1248 C1256 0.929 . S
H1249 C1258 0.930 . S
H1250 C1260 0.930 . S
H1251 C1263 0.929 . S
H1252 C1266 0.930 . S
H1253 C1268 0.960 . S
H1254 C1268 0.960 . S
H1255 C1268 0.960 . S
C1256 H1248 0.929 . S
C1256 C1257 1.377 . S
C1256 C1258 1.384 . S
C1257 C1256 1.377 . S
C1257 C1263 1.390 . S
C1258 H1249 0.930 . S
C1258 C1256 1.384 . S
C1258 C1259 1.372 . S
C1259 C1258 1.372 . S
C1259 C1260 1.400 . S
C1259 C1264 1.490 . S
C1260 H1250 0.930 . S
C1260 C1259 1.400 . S
C1260 C1263 1.386 . S
H1261 C1277 0.930 . S
H1262 C1278 0.931 . S
C1263 H1251 0.929 . S
C1263 C1257 1.390 . S
C1263 C1260 1.386 . S
C1264 C1259 1.490 . S
C1264 C1266 1.395 . S
C1264 C1267 1.403 . S
H1265 C1271 0.930 . S
C1266 H1252 0.930 . S
C1266 C1264 1.395 . S
C1266 C1269 1.403 . S
C1267 C1264 1.403 . S
C1267 C1268 1.524 . S
C1267 C1271 1.400 . S
C1268 H1253 0.960 . S
C1268 H1254 0.960 . S
C1268 H1255 0.960 . S
C1268 C1267 1.524 . S
C1269 C1266 1.403 . S
C1269 C1270 1.392 . S
C1269 C1273 1.495 . S
C1270 C1269 1.392 . S
C1270 C1271 1.385 . S
C1270 C1272 1.478 . S
C1271 H1265 0.930 . S
C1271 C1267 1.400 . S
C1271 C1270 1.385 . S
C1272 C1270 1.478 . S
C1272 C1274 1.381 . S
C1272 C1278 1.383 . S
C1273 C1269 1.495 . S
C1273 H1279 0.959 . S
C1273 H1280 0.961 . S
C1273 H1281 0.960 . S
C1274 C1272 1.381 . S
C1274 C1275 1.394 . S
C1274 H1282 0.930 . S
C1275 C1274 1.394 . S
C1275 C1276 1.383 . S
C1275 H1283 0.929 . S
C1276 C1275 1.383 . S
C1276 C1277 1.377 . S
C1277 H1261 0.930 . S
C1277 C1276 1.377 . S
C1277 C1278 1.379 . S
C1278 H1262 0.931 . S
C1278 C1272 1.383 . S
C1278 C1277 1.379 . S
H1279 C1273 0.959 . S
H1280 C1273 0.961 . S
H1281 C1273 0.960 . S
H1282 C1274 0.930 . S
H1283 C1275 0.929 . S
H1284 C1292 0.929 . S
H1285 C1294 0.930 . S
H1286 C1296 0.930 . S
H1287 C1299 0.929 . S
H1288 C1302 0.930 . S
H1289 C1304 0.960 . S
H1290 C1304 0.960 . S
H1291 C1304 0.960 . S
C1292 H1284 0.929 . S
C1292 C1293 1.377 . S
C1292 C1294 1.384 . S
C1293 C1292 1.377 . S
C1293 C1299 1.390 . S
C1294 H1285 0.930 . S
C1294 C1292 1.384 . S
C1294 C1295 1.372 . S
C1295 C1294 1.372 . S
C1295 C1296 1.400 . S
C1295 C1300 1.490 . S
C1296 H1286 0.930 . S
C1296 C1295 1.400 . S
C1296 C1299 1.386 . S
H1297 C1313 0.930 . S
H1298 C1314 0.931 . S
C1299 H1287 0.929 . S
C1299 C1293 1.390 . S
C1299 C1296 1.386 . S
C1300 C1295 1.490 . S
C1300 C1302 1.395 . S
C1300 C1303 1.403 . S
H1301 C1307 0.930 . S
C1302 H1288 0.930 . S
C1302 C1300 1.395 . S
C1302 C1305 1.403 . S
C1303 C1300 1.403 . S
C1303 C1304 1.524 . S
C1303 C1307 1.400 . S
C1304 H1289 0.960 . S
C1304 H1290 0.960 . S
C1304 H1291 0.960 . S
C1304 C1303 1.524 . S
C1305 C1302 1.403 . S
C1305 C1306 1.392 . S
C1305 C1309 1.495 . S
C1306 C1305 1.392 . S
C1306 C1307 1.385 . S
C1306 C1308 1.478 . S
C1307 H1301 0.930 . S
C1307 C1303 1.400 . S
C1307 C1306 1.385 . S
C1308 C1306 1.478 . S
C1308 C1310 1.381 . S
C1308 C1314 1.383 . S
C1309 C1305 1.495 . S
C1309 H1315 0.959 . S
C1309 H1316 0.961 . S
C1309 H1317 0.960 . S
C1310 C1308 1.381 . S
C1310 C1311 1.394 . S
C1310 H1318 0.930 . S
C1311 C1310 1.394 . S
C1311 C1312 1.383 . S
C1311 H1319 0.929 . S
C1312 C1311 1.383 . S
C1312 C1313 1.377 . S
C1313 H1297 0.930 . S
C1313 C1312 1.377 . S
C1313 C1314 1.379 . S
C1314 H1298 0.931 . S
C1314 C1308 1.383 . S
C1314 C1313 1.379 . S
H1315 C1309 0.959 . S
H1316 C1309 0.961 . S
H1317 C1309 0.960 . S
H1318 C1310 0.930 . S
H1319 C1311 0.929 . S
H1320 C1328 0.929 . S
H1321 C1330 0.930 . S
H1322 C1332 0.930 . S
H1323 C1335 0.929 . S
H1324 C1338 0.930 . S
H1325 C1340 0.960 . S
H1326 C1340 0.960 . S
H1327 C1340 0.960 . S
C1328 H1320 0.929 . S
C1328 C1329 1.377 . S
C1328 C1330 1.384 . S
C1329 C1328 1.377 . S
C1329 C1335 1.390 . S
C1330 H1321 0.930 . S
C1330 C1328 1.384 . S
C1330 C1331 1.372 . S
C1331 C1330 1.372 . S
C1331 C1332 1.400 . S
C1331 C1336 1.490 . S
C1332 H1322 0.930 . S
C1332 C1331 1.400 . S
C1332 C1335 1.386 . S
H1333 C1349 0.930 . S
H1334 C1350 0.931 . S
C1335 H1323 0.929 . S
C1335 C1329 1.390 . S
C1335 C1332 1.386 . S
C1336 C1331 1.490 . S
C1336 C1338 1.395 . S
C1336 C1339 1.403 . S
H1337 C1343 0.930 . S
C1338 H1324 0.930 . S
C1338 C1336 1.395 . S
C1338 C1341 1.403 . S
C1339 C1336 1.403 . S
C1339 C1340 1.524 . S
C1339 C1343 1.400 . S
C1340 H1325 0.960 . S
C1340 H1326 0.960 . S
C1340 H1327 0.960 . S
C1340 C1339 1.524 . S
C1341 C1338 1.403 . S
C1341 C1342 1.392 . S
C1341 C1345 1.495 . S
C1342 C1341 1.392 . S
C1342 C1343 1.385 . S
C1342 C1344 1.478 . S
C1343 H1337 0.930 . S
C1343 C1339 1.400 . S
C1343 C1342 1.385 . S
C1344 C1342 1.478 . S
C1344 C1346 1.381 . S
C1344 C1350 1.383 . S
C1345 C1341 1.495 . S
C1345 H1351 0.959 . S
C1345 H1352 0.961 . S
C1345 H1353 0.960 . S
C1346 C1344 1.381 . S
C1346 C1347 1.394 . S
C1346 H1354 0.930 . S
C1347 C1346 1.394 . S
C1347 C1348 1.383 . S
C1347 H1355 0.929 . S
C1348 C1347 1.383 . S
C1348 C1349 1.377 . S
C1349 H1333 0.930 . S
C1349 C1348 1.377 . S
C1349 C1350 1.379 . S
C1350 H1334 0.931 . S
C1350 C1344 1.383 . S
C1350 C1349 1.379 . S
H1351 C1345 0.959 . S
H1352 C1345 0.961 . S
H1353 C1345 0.960 . S
H1354 C1346 0.930 . S
H1355 C1347 0.929 . S
H1356 C1364 0.929 . S
H1357 C1366 0.930 . S
H1358 C1368 0.930 . S
H1359 C1371 0.929 . S
H1360 C1374 0.930 . S
H1361 C1376 0.960 . S
H1362 C1376 0.960 . S
H1363 C1376 0.960 . S
C1364 H1356 0.929 . S
C1364 C1365 1.377 . S
C1364 C1366 1.384 . S
C1365 C1364 1.377 . S
C1365 C1371 1.390 . S
C1366 H1357 0.930 . S
C1366 C1364 1.384 . S
C1366 C1367 1.372 . S
C1367 C1366 1.372 . S
C1367 C1368 1.400 . S
C1367 C1372 1.490 . S
C1368 H1358 0.930 . S
C1368 C1367 1.400 . S
C1368 C1371 1.386 . S
H1369 C1385 0.930 . S
H1370 C1386 0.931 . S
C1371 H1359 0.929 . S
C1371 C1365 1.390 . S
C1371 C1368 1.386 . S
C1372 C1367 1.490 . S
C1372 C1374 1.395 . S
C1372 C1375 1.403 . S
H1373 C1379 0.930 . S
C1374 H1360 0.930 . S
C1374 C1372 1.395 . S
C1374 C1377 1.403 . S
C1375 C1372 1.403 . S
C1375 C1376 1.524 . S
C1375 C1379 1.400 . S
C1376 H1361 0.960 . S
C1376 H1362 0.960 . S
C1376 H1363 0.960 . S
C1376 C1375 1.524 . S
C1377 C1374 1.403 . S
C1377 C1378 1.392 . S
C1377 C1381 1.495 . S
C1378 C1377 1.392 . S
C1378 C1379 1.385 . S
C1378 C1380 1.478 . S
C1379 H1373 0.930 . S
C1379 C1375 1.400 . S
C1379 C1378 1.385 . S
C1380 C1378 1.478 . S
C1380 C1382 1.381 . S
C1380 C1386 1.383 . S
C1381 C1377 1.495 . S
C1381 H1387 0.959 . S
C1381 H1388 0.961 . S
C1381 H1389 0.960 . S
C1382 C1380 1.381 . S
C1382 C1383 1.394 . S
C1382 H1390 0.930 . S
C1383 C1382 1.394 . S
C1383 C1384 1.383 . S
C1383 H1391 0.929 . S
C1384 C1383 1.383 . S
C1384 C1385 1.377 . S
C1385 H1369 0.930 . S
C1385 C1384 1.377 . S
C1385 C1386 1.379 . S
C1386 H1370 0.931 . S
C1386 C1380 1.383 . S
C1386 C1385 1.379 . S
H1387 C1381 0.959 . S
H1388 C1381 0.961 . S
H1389 C1381 0.960 . S
H1390 C1382 0.930 . S
H1391 C1383 0.929 . S
H1392 C1400 0.929 . S
H1393 C1402 0.930 . S
H1394 C1404 0.930 . S
H1395 C1407 0.929 . S
H1396 C1410 0.930 . S
H1397 C1412 0.960 . S
H1398 C1412 0.960 . S
H1399 C1412 0.960 . S
C1400 H1392 0.929 . S
C1400 C1401 1.377 . S
C1400 C1402 1.384 . S
C1401 C1400 1.377 . S
C1401 C1407 1.390 . S
C1402 H1393 0.930 . S
C1402 C1400 1.384 . S
C1402 C1403 1.372 . S
C1403 C1402 1.372 . S
C1403 C1404 1.400 . S
C1403 C1408 1.490 . S
C1404 H1394 0.930 . S
C1404 C1403 1.400 . S
C1404 C1407 1.386 . S
H1405 C1421 0.930 . S
H1406 C1422 0.931 . S
C1407 H1395 0.929 . S
C1407 C1401 1.390 . S
C1407 C1404 1.386 . S
C1408 C1403 1.490 . S
C1408 C1410 1.395 . S
C1408 C1411 1.403 . S
H1409 C1415 0.930 . S
C1410 H1396 0.930 . S
C1410 C1408 1.395 . S
C1410 C1413 1.403 . S
C1411 C1408 1.403 . S
C1411 C1412 1.524 . S
C1411 C1415 1.400 . S
C1412 H1397 0.960 . S
C1412 H1398 0.960 . S
C1412 H1399 0.960 . S
C1412 C1411 1.524 . S
C1413 C1410 1.403 . S
C1413 C1414 1.392 . S
C1413 C1417 1.495 . S
C1414 C1413 1.392 . S
C1414 C1415 1.385 . S
C1414 C1416 1.478 . S
C1415 H1409 0.930 . S
C1415 C1411 1.400 . S
C1415 C1414 1.385 . S
C1416 C1414 1.478 . S
C1416 C1418 1.381 . S
C1416 C1422 1.383 . S
C1417 C1413 1.495 . S
C1417 H1423 0.959 . S
C1417 H1424 0.961 . S
C1417 H1425 0.960 . S
C1418 C1416 1.381 . S
C1418 C1419 1.394 . S
C1418 H1426 0.930 . S
C1419 C1418 1.394 . S
C1419 C1420 1.383 . S
C1419 H1427 0.929 . S
C1420 C1419 1.383 . S
C1420 C1421 1.377 . S
C1421 H1405 0.930 . S
C1421 C1420 1.377 . S
C1421 C1422 1.379 . S
C1422 H1406 0.931 . S
C1422 C1416 1.383 . S
C1422 C1421 1.379 . S
H1423 C1417 0.959 . S
H1424 C1417 0.961 . S
H1425 C1417 0.960 . S
H1426 C1418 0.930 . S
H1427 C1419 0.929 . S
H1428 C1436 0.929 . S
H1429 C1438 0.930 . S
H1430 C1440 0.930 . S
H1431 C1443 0.929 . S
H1432 C1446 0.930 . S
H1433 C1448 0.960 . S
H1434 C1448 0.960 . S
H1435 C1448 0.960 . S
C1436 H1428 0.929 . S
C1436 C1437 1.377 . S
C1436 C1438 1.384 . S
C1437 C1436 1.377 . S
C1437 C1443 1.390 . S
C1438 H1429 0.930 . S
C1438 C1436 1.384 . S
C1438 C1439 1.372 . S
C1439 C1438 1.372 . S
C1439 C1440 1.400 . S
C1439 C1444 1.490 . S
C1440 H1430 0.930 . S
C1440 C1439 1.400 . S
C1440 C1443 1.386 . S
H1441 C1457 0.930 . S
H1442 C1458 0.931 . S
C1443 H1431 0.929 . S
C1443 C1437 1.390 . S
C1443 C1440 1.386 . S
C1444 C1439 1.490 . S
C1444 C1446 1.395 . S
C1444 C1447 1.403 . S
H1445 C1451 0.930 . S
C1446 H1432 0.930 . S
C1446 C1444 1.395 . S
C1446 C1449 1.403 . S
C1447 C1444 1.403 . S
C1447 C1448 1.524 . S
C1447 C1451 1.400 . S
C1448 H1433 0.960 . S
C1448 H1434 0.960 . S
C1448 H1435 0.960 . S
C1448 C1447 1.524 . S
C1449 C1446 1.403 . S
C1449 C1450 1.392 . S
C1449 C1453 1.495 . S
C1450 C1449 1.392 . S
C1450 C1451 1.385 . S
C1450 C1452 1.478 . S
C1451 H1445 0.930 . S
C1451 C1447 1.400 . S
C1451 C1450 1.385 . S
C1452 C1450 1.478 . S
C1452 C1454 1.381 . S
C1452 C1458 1.383 . S
C1453 C1449 1.495 . S
C1453 H1459 0.959 . S
C1453 H1460 0.961 . S
C1453 H1461 0.960 . S
C1454 C1452 1.381 . S
C1454 C1455 1.394 . S
C1454 H1462 0.930 . S
C1455 C1454 1.394 . S
C1455 C1456 1.383 . S
C1455 H1463 0.929 . S
C1456 C1455 1.383 . S
C1456 C1457 1.377 . S
C1457 H1441 0.930 . S
C1457 C1456 1.377 . S
C1457 C1458 1.379 . S
C1458 H1442 0.931 . S
C1458 C1452 1.383 . S
C1458 C1457 1.379 . S
H1459 C1453 0.959 . S
H1460 C1453 0.961 . S
H1461 C1453 0.960 . S
H1462 C1454 0.930 . S
H1463 C1455 0.929 . S
H1464 C1472 0.929 . S
H1465 C1474 0.930 . S
H1466 C1476 0.930 . S
H1467 C1479 0.929 . S
H1468 C1482 0.930 . S
H1469 C1484 0.960 . S
H1470 C1484 0.960 . S
H1471 C1484 0.960 . S
C1472 H1464 0.929 . S
C1472 C1473 1.377 . S
C1472 C1474 1.384 . S
C1473 C1472 1.377 . S
C1473 C1479 1.390 . S
C1474 H1465 0.930 . S
C1474 C1472 1.384 . S
C1474 C1475 1.372 . S
C1475 C1474 1.372 . S
C1475 C1476 1.400 . S
C1475 C1480 1.490 . S
C1476 H1466 0.930 . S
C1476 C1475 1.400 . S
C1476 C1479 1.386 . S
H1477 C1493 0.930 . S
H1478 C1494 0.931 . S
C1479 H1467 0.929 . S
C1479 C1473 1.390 . S
C1479 C1476 1.386 . S
C1480 C1475 1.490 . S
C1480 C1482 1.395 . S
C1480 C1483 1.403 . S
H1481 C1487 0.930 . S
C1482 H1468 0.930 . S
C1482 C1480 1.395 . S
C1482 C1485 1.403 . S
C1483 C1480 1.403 . S
C1483 C1484 1.524 . S
C1483 C1487 1.400 . S
C1484 H1469 0.960 . S
C1484 H1470 0.960 . S
C1484 H1471 0.960 . S
C1484 C1483 1.524 . S
C1485 C1482 1.403 . S
C1485 C1486 1.392 . S
C1485 C1489 1.495 . S
C1486 C1485 1.392 . S
C1486 C1487 1.385 . S
C1486 C1488 1.478 . S
C1487 H1481 0.930 . S
C1487 C1483 1.400 . S
C1487 C1486 1.385 . S
C1488 C1486 1.478 . S
C1488 C1490 1.381 . S
C1488 C1494 1.383 . S
C1489 C1485 1.495 . S
C1489 H1495 0.959 . S
C1489 H1496 0.961 . S
C1489 H1497 0.960 . S
C1490 C1488 1.381 . S
C1490 C1491 1.394 . S
C1490 H1498 0.930 . S
C1491 C1490 1.394 . S
C1491 C1492 1.383 . S
C1491 H1499 0.929 . S
C1492 C1491 1.383 . S
C1492 C1493 1.377 . S
C1493 H1477 0.930 . S
C1493 C1492 1.377 . S
C1493 C1494 1.379 . S
C1494 H1478 0.931 . S
C1494 C1488 1.383 . S
C1494 C1493 1.379 . S
H1495 C1489 0.959 . S
H1496 C1489 0.961 . S
H1497 C1489 0.960 . S
H1498 C1490 0.930 . S
H1499 C1491 0.929 . S
C645 C39 1.960 . S
C664 C356 1.938 . S
C681 C91 1.643 . S
C700 C409 1.637 . S
C736 C462 1.689 . S
C717 C128 1.702 . S
C772 C499 1.315 . S
C753 C188 1.335 . S
C808 C559 1.705 . S
C789 C250 1.716 . S
C844 C612 1.544 . S
C825 C304 1.575 . S
C861 C75 1.827 . S
C880 C463 1.819 . S
C897 C144 1.602 . S
C916 C506 1.585 . S
C952 C552 1.737 . S
C933 C198 1.757 . S
C988 C605 1.335 . S
C969 C234 1.345 . S
C1005 C294 1.653 . S
C1024 C357 1.641 . S
C1060 C410 1.462 . S
C1041 C29 1.486 . S
C1096 C516 1.938 . S
C1077 C38 1.960 . S
C1113 C92 1.644 . S
C1132 C568 1.640 . S
C1168 C621 1.696 . S
C1149 C135 1.702 . S
C1185 C181 1.337 . S
C1204 C347 1.318 . S
C1221 C251 1.715 . S
C1240 C400 1.710 . S
C1257 C303 1.577 . S
C1276 C453 1.567 . S
C1293 C82 1.825 . S
C1312 C622 1.798 . S
C1348 C340 1.595 . S
C1329 C145 1.602 . S
C1365 C197 1.757 . S
C1384 C393 1.730 . S
C1401 C241 1.344 . S
C1420 C446 1.314 . S
C1437 C287 1.653 . S
C1456 C515 1.630 . S
C1473 C22 1.487 . S
C1492 C569 1.485 . S
