# Generated by pormake.
# Topology gar, (4,6)-cn, num edge types: 1
# Building blocks:
#     Node 0, Type 0, BuildingBlock: NAHDIM_clean_sbu_0, # of connection points: 4
#     Node 1, Type 0, BuildingBlock: NAHDIM_clean_sbu_0, # of connection points: 4
#     Node 2, Type 0, BuildingBlock: NAHDIM_clean_sbu_0, # of connection points: 4
#     Node 3, Type 0, BuildingBlock: NAHDIM_clean_sbu_0, # of connection points: 4
#     Node 4, Type 0, BuildingBlock: NAHDIM_clean_sbu_0, # of connection points: 4
#     Node 5, Type 0, BuildingBlock: NAHDIM_clean_sbu_0, # of connection points: 4
#     Node 6, Type 0, BuildingBlock: NAHDIM_clean_sbu_0, # of connection points: 4
#     Node 7, Type 0, BuildingBlock: NAHDIM_clean_sbu_0, # of connection points: 4
#     Node 8, Type 0, BuildingBlock: NAHDIM_clean_sbu_0, # of connection points: 4
#     Node 9, Type 0, BuildingBlock: NAHDIM_clean_sbu_0, # of connection points: 4
#     Node 10, Type 0, BuildingBlock: NAHDIM_clean_sbu_0, # of connection points: 4
#     Node 11, Type 0, BuildingBlock: NAHDIM_clean_sbu_0, # of connection points: 4
#     Node 12, Type 0, BuildingBlock: NAHDIM_clean_sbu_0, # of connection points: 4
#     Node 13, Type 0, BuildingBlock: NAHDIM_clean_sbu_0, # of connection points: 4
#     Node 14, Type 0, BuildingBlock: NAHDIM_clean_sbu_0, # of connection points: 4
#     Node 15, Type 0, BuildingBlock: NAHDIM_clean_sbu_0, # of connection points: 4
#     Node 16, Type 0, BuildingBlock: NAHDIM_clean_sbu_0, # of connection points: 4
#     Node 17, Type 0, BuildingBlock: NAHDIM_clean_sbu_0, # of connection points: 4
#     Node 18, Type 0, BuildingBlock: NAHDIM_clean_sbu_0, # of connection points: 4
#     Node 19, Type 0, BuildingBlock: NAHDIM_clean_sbu_0, # of connection points: 4
#     Node 20, Type 0, BuildingBlock: NAHDIM_clean_sbu_0, # of connection points: 4
#     Node 21, Type 0, BuildingBlock: NAHDIM_clean_sbu_0, # of connection points: 4
#     Node 22, Type 0, BuildingBlock: NAHDIM_clean_sbu_0, # of connection points: 4
#     Node 23, Type 0, BuildingBlock: NAHDIM_clean_sbu_0, # of connection points: 4
#     Node 24, Type 1, BuildingBlock: BETFEN_clean_sbu_0, # of connection points: 6
#     Node 25, Type 1, BuildingBlock: BETFEN_clean_sbu_0, # of connection points: 6
#     Node 26, Type 1, BuildingBlock: BETFEN_clean_sbu_0, # of connection points: 6
#     Node 27, Type 1, BuildingBlock: BETFEN_clean_sbu_0, # of connection points: 6
#     Node 28, Type 1, BuildingBlock: BETFEN_clean_sbu_0, # of connection points: 6
#     Node 29, Type 1, BuildingBlock: BETFEN_clean_sbu_0, # of connection points: 6
#     Node 30, Type 1, BuildingBlock: BETFEN_clean_sbu_0, # of connection points: 6
#     Node 31, Type 1, BuildingBlock: BETFEN_clean_sbu_0, # of connection points: 6
#     Node 32, Type 1, BuildingBlock: BETFEN_clean_sbu_0, # of connection points: 6
#     Node 33, Type 1, BuildingBlock: BETFEN_clean_sbu_0, # of connection points: 6
#     Node 34, Type 1, BuildingBlock: BETFEN_clean_sbu_0, # of connection points: 6
#     Node 35, Type 1, BuildingBlock: BETFEN_clean_sbu_0, # of connection points: 6
#     Node 36, Type 1, BuildingBlock: BETFEN_clean_sbu_0, # of connection points: 6
#     Node 37, Type 1, BuildingBlock: BETFEN_clean_sbu_0, # of connection points: 6
#     Node 38, Type 1, BuildingBlock: BETFEN_clean_sbu_0, # of connection points: 6
#     Node 39, Type 1, BuildingBlock: BETFEN_clean_sbu_0, # of connection points: 6
#     Edge 40, Type (0, 1), None
#     Edge 41, Type (0, 1), None
#     Edge 42, Type (0, 1), None
#     Edge 43, Type (0, 1), None
#     Edge 44, Type (0, 1), None
#     Edge 45, Type (0, 1), None
#     Edge 46, Type (0, 1), None
#     Edge 47, Type (0, 1), None
#     Edge 48, Type (0, 1), None
#     Edge 49, Type (0, 1), None
#     Edge 50, Type (0, 1), None
#     Edge 51, Type (0, 1), None
#     Edge 52, Type (0, 1), None
#     Edge 53, Type (0, 1), None
#     Edge 54, Type (0, 1), None
#     Edge 55, Type (0, 1), None
#     Edge 56, Type (0, 1), None
#     Edge 57, Type (0, 1), None
#     Edge 58, Type (0, 1), None
#     Edge 59, Type (0, 1), None
#     Edge 60, Type (0, 1), None
#     Edge 61, Type (0, 1), None
#     Edge 62, Type (0, 1), None
#     Edge 63, Type (0, 1), None
#     Edge 64, Type (0, 1), None
#     Edge 65, Type (0, 1), None
#     Edge 66, Type (0, 1), None
#     Edge 67, Type (0, 1), None
#     Edge 68, Type (0, 1), None
#     Edge 69, Type (0, 1), None
#     Edge 70, Type (0, 1), None
#     Edge 71, Type (0, 1), None
#     Edge 72, Type (0, 1), None
#     Edge 73, Type (0, 1), None
#     Edge 74, Type (0, 1), None
#     Edge 75, Type (0, 1), None
#     Edge 76, Type (0, 1), None
#     Edge 77, Type (0, 1), None
#     Edge 78, Type (0, 1), None
#     Edge 79, Type (0, 1), None
#     Edge 80, Type (0, 1), None
#     Edge 81, Type (0, 1), None
#     Edge 82, Type (0, 1), None
#     Edge 83, Type (0, 1), None
#     Edge 84, Type (0, 1), None
#     Edge 85, Type (0, 1), None
#     Edge 86, Type (0, 1), None
#     Edge 87, Type (0, 1), None
#     Edge 88, Type (0, 1), None
#     Edge 89, Type (0, 1), None
#     Edge 90, Type (0, 1), None
#     Edge 91, Type (0, 1), None
#     Edge 92, Type (0, 1), None
#     Edge 93, Type (0, 1), None
#     Edge 94, Type (0, 1), None
#     Edge 95, Type (0, 1), None
#     Edge 96, Type (0, 1), None
#     Edge 97, Type (0, 1), None
#     Edge 98, Type (0, 1), None
#     Edge 99, Type (0, 1), None
#     Edge 100, Type (0, 1), None
#     Edge 101, Type (0, 1), None
#     Edge 102, Type (0, 1), None
#     Edge 103, Type (0, 1), None
#     Edge 104, Type (0, 1), None
#     Edge 105, Type (0, 1), None
#     Edge 106, Type (0, 1), None
#     Edge 107, Type (0, 1), None
#     Edge 108, Type (0, 1), None
#     Edge 109, Type (0, 1), None
#     Edge 110, Type (0, 1), None
#     Edge 111, Type (0, 1), None
#     Edge 112, Type (0, 1), None
#     Edge 113, Type (0, 1), None
#     Edge 114, Type (0, 1), None
#     Edge 115, Type (0, 1), None
#     Edge 116, Type (0, 1), None
#     Edge 117, Type (0, 1), None
#     Edge 118, Type (0, 1), None
#     Edge 119, Type (0, 1), None
#     Edge 120, Type (0, 1), None
#     Edge 121, Type (0, 1), None
#     Edge 122, Type (0, 1), None
#     Edge 123, Type (0, 1), None
#     Edge 124, Type (0, 1), None
#     Edge 125, Type (0, 1), None
#     Edge 126, Type (0, 1), None
#     Edge 127, Type (0, 1), None
#     Edge 128, Type (0, 1), None
#     Edge 129, Type (0, 1), None
#     Edge 130, Type (0, 1), None
#     Edge 131, Type (0, 1), None
#     Edge 132, Type (0, 1), None
#     Edge 133, Type (0, 1), None
#     Edge 134, Type (0, 1), None
#     Edge 135, Type (0, 1), None
# Relax obj value: 0.440
# Max RMSD: 0.425
# Mean RMSD: 0.229
data_MOF--net-gar--node1-NAHDIM_clean_sbu_0--node2-BETFEN_clean_sbu_0--edge1-none
_symmetry_space_group_name_H-M    P1
_symmetry_Int_Tables_number       1
_symmetry_cell_setting            triclinic
loop_
_symmetry_equiv_pos_as_xyz
'x, y, z'
_cell_length_a     34.090691
_cell_length_b     27.176065
_cell_length_c     26.450111
_cell_angle_alpha  92.547818
_cell_angle_beta   102.86463
_cell_angle_gamma 105.14077
loop_
_atom_site_label
_atom_site_type_symbol
_atom_site_fract_x
_atom_site_fract_y
_atom_site_fract_z
_atom_type_partial_charge
C0 C 0.13027 0.38583 0.391 0.0
O1 O 0.1411 0.38245 0.44128 0.0
O2 O 0.05707 0.32339 0.45338 0.0
Zn3 Zn 0.05807 0.39841 0.42477 0.0
O4 O 0.08193 0.46741 0.48182 0.0
C5 C 0.98403 0.43003 0.35433 0.0
O6 O 1.01218 0.46982 0.3457 0.0
O7 O 0.09621 0.39757 0.37299 0.0
C8 C 0.0858 0.51497 0.47362 0.0
O9 O 0.07608 0.52585 0.42547 0.0
C10 C 0.08005 0.31368 0.49522 0.0
O11 O 0.10422 0.35268 0.52879 0.0
O12 O 0.99612 0.39728 0.38323 0.0
C13 C 0.10106 0.96757 0.73328 0.0
O14 O 0.13574 1.00491 0.73943 0.0
O15 O 0.11855 0.85523 0.60269 0.0
Zn16 Zn 0.13957 0.92556 0.65859 0.0
O17 O 0.14447 0.99971 0.62768 0.0
C18 C 0.21168 0.89608 0.73559 0.0
O19 O 0.18375 0.85412 0.74028 0.0
O20 O 0.09608 0.9271 0.703 0.0
C21 C 0.1183 1.01043 0.58969 0.0
O22 O 0.08751 0.97244 0.56219 0.0
C23 C 0.11248 0.80742 0.61127 0.0
O24 O 0.11786 0.79629 0.65959 0.0
O25 O 0.19991 0.92866 0.70627 0.0
C26 C 0.63027 0.88581 0.89101 0.0
O27 O 0.6411 0.88243 0.94129 0.0
O28 O 0.55708 0.82339 0.95338 0.0
Zn29 Zn 0.55807 0.89841 0.92477 0.0
O30 O 0.58193 0.9674 0.98182 0.0
C31 C 0.48403 0.93003 0.85433 0.0
O32 O 0.51218 0.96981 0.8457 0.0
O33 O 0.59622 0.89757 0.873 0.0
C34 C 0.5858 1.01497 0.97362 0.0
O35 O 0.57607 0.02584 0.92547 0.0
C36 C 0.58005 0.81368 0.99522 0.0
O37 O 0.60422 0.85268 0.0288 0.0
O38 O 0.49612 0.89728 0.88324 0.0
C39 C 0.60106 0.46756 0.23328 0.0
O40 O 0.63574 0.50489 0.23943 0.0
O41 O 0.61855 0.35522 0.10268 0.0
Zn42 Zn 0.63957 0.42556 0.15859 0.0
O43 O 0.64446 0.49971 0.12768 0.0
C44 C 0.71168 0.39608 0.23557 0.0
O45 O 0.68375 0.35412 0.24027 0.0
O46 O 0.59608 0.42709 0.203 0.0
C47 C 0.61832 0.51042 0.08966 0.0
O48 O 0.58755 0.47242 0.06212 0.0
C49 C 0.61248 0.30741 0.11127 0.0
O50 O 0.61786 0.29629 0.15958 0.0
O51 O 0.69991 0.42865 0.20626 0.0
C52 C 0.07069 0.90645 0.17323 0.0
O53 O 0.05791 0.8924 0.12278 0.0
O54 O 0.12533 0.85998 0.10426 0.0
Zn55 Zn 0.14739 0.93456 0.14455 0.0
O56 O 0.13889 1.00115 0.10531 0.0
C57 C 0.22348 0.91182 0.21561 0.0
O58 O 0.20086 0.8638 0.20673 0.0
O59 O 0.10934 0.92782 0.19312 0.0
C60 C 0.10876 1.00724 0.06908 0.0
O61 O 0.07779 0.96688 0.0469 0.0
C62 C 0.14891 0.83368 0.09326 0.0
O63 O 0.18879 0.85681 0.09855 0.0
O64 O 0.20828 0.94643 0.19392 0.0
C65 C 0.62087 0.92707 0.42009 0.0
O66 O 0.63557 0.94081 0.47044 0.0
O67 O 0.54983 0.8279 0.48509 0.0
Zn68 Zn 0.54198 0.89547 0.44791 0.0
O69 O 0.55727 0.96627 0.49237 0.0
C70 C 0.46138 0.91772 0.39625 0.0
O71 O 0.46936 0.94975 0.43823 0.0
O72 O 0.58203 0.90586 0.40207 0.0
C73 C 0.56239 1.00561 0.46692 0.0
O74 O 0.55883 0.99897 0.41649 0.0
C75 C 0.58085 0.82251 0.52044 0.0
O76 O 0.61164 0.86333 0.5418 0.0
O77 O 0.48491 0.88824 0.394 0.0
C78 C 0.57065 0.40644 0.6732 0.0
O79 O 0.55787 0.39237 0.62276 0.0
O80 O 0.62531 0.35996 0.6043 0.0
Zn81 Zn 0.64737 0.43455 0.64456 0.0
O82 O 0.63888 0.50115 0.60531 0.0
C83 C 0.72356 0.41179 0.71542 0.0
O84 O 0.70114 0.3637 0.70612 0.0
O85 O 0.6093 0.42783 0.6931 0.0
C86 C 0.60875 0.50723 0.56908 0.0
O87 O 0.57778 0.46688 0.54691 0.0
C88 C 0.64885 0.33373 0.59304 0.0
O89 O 0.68868 0.35693 0.59803 0.0
O90 O 0.70822 0.44643 0.69402 0.0
C91 C 0.12089 0.42709 0.92011 0.0
O92 O 0.13559 0.44083 0.97046 0.0
O93 O 0.04985 0.32791 0.98512 0.0
Zn94 Zn 0.042 0.39549 0.94795 0.0
O95 O 0.0573 0.46628 0.99241 0.0
C96 C 0.96139 0.41774 0.89628 0.0
O97 O 0.96935 0.44975 0.93827 0.0
O98 O 0.08205 0.40588 0.9021 0.0
C99 C 0.0624 0.50562 0.96696 0.0
O100 O 0.05882 0.49898 0.91652 0.0
C101 C 0.08086 0.32252 0.02047 0.0
O102 O 0.11165 0.36334 0.04183 0.0
O103 O 0.98493 0.38827 0.89404 0.0
C104 C 0.42705 0.30971 0.29358 0.0
O105 O 0.41126 0.26034 0.28 0.0
O106 O 0.49215 0.22524 0.31448 0.0
Zn107 Zn 0.49179 0.28106 0.36754 0.0
O108 O 0.54879 0.2803 0.41457 0.0
C109 C 0.42376 0.26772 0.4291 0.0
O110 O 0.40928 0.2914 0.4617 0.0
O111 O 0.46492 0.32802 0.32136 0.0
C112 C 0.54397 0.23539 0.43001 0.0
O113 O 0.50617 0.20352 0.41954 0.0
C114 C 0.523 0.24666 0.29608 0.0
O115 O 0.53954 0.29651 0.30691 0.0
O116 O 0.45951 0.28936 0.42187 0.0
C117 C 0.37984 0.2858 0.55389 0.0
O118 O 0.39444 0.33506 0.5698 0.0
O119 O 0.32657 0.35754 0.5923 0.0
Zn120 Zn 0.30592 0.31638 0.51701 0.0
O121 O 0.32061 0.35483 0.44837 0.0
C122 C 0.22601 0.24763 0.54263 0.0
O123 O 0.24685 0.25995 0.59155 0.0
O124 O 0.34208 0.26804 0.5277 0.0
C125 C 0.3426 0.40057 0.44477 0.0
O126 O 0.35792 0.43286 0.48738 0.0
C127 C 0.3025 0.36992 0.61809 0.0
O128 O 0.26355 0.36562 0.59365 0.0
O129 O 0.24329 0.2667 0.50646 0.0
C130 C 0.24987 0.16133 0.85481 0.0
O131 O 0.25778 0.16163 0.90577 0.0
O132 O 0.19738 0.2927 0.9001 0.0
Zn133 Zn 0.2271 0.23804 0.89425 0.0
O134 O 0.19499 0.18545 0.937 0.0
C135 C 0.28019 0.30706 0.85323 0.0
O136 O 0.24287 0.29544 0.82108 0.0
O137 O 0.22936 0.19124 0.8334 0.0
C138 C 0.17619 0.20318 0.96683 0.0
O139 O 0.19081 0.2516 0.98595 0.0
C140 C 0.1596 0.29288 0.88381 0.0
O141 O 0.14757 0.33072 0.90178 0.0
O142 O 0.28476 0.28706 0.89662 0.0
C143 C 0.31788 0.0734 0.08221 0.0
O144 O 0.30996 0.02749 0.09797 0.0
O145 O 0.38754 1.01216 0.13618 0.0
Zn146 Zn 0.38614 0.03778 0.05959 0.0
O147 O 0.36252 0.97908 0.99209 0.0
C148 C 0.46223 0.10744 0.02647 0.0
O149 O 0.43585 0.11415 0.98478 0.0
O150 O 0.34811 0.08702 0.05982 0.0
C151 C 0.35945 0.98492 0.94315 0.0
O152 O 0.3704 0.03147 0.92971 0.0
C153 C 0.37238 0.96684 0.14734 0.0
O154 O 0.35688 0.9296 0.10895 0.0
O155 O 0.44822 0.07947 0.05996 0.0
C156 C 0.32018 0.54057 0.02942 0.0
O157 O 0.3047 0.49075 0.01747 0.0
O158 O 0.38491 0.47856 0.13567 0.0
Zn159 Zn 0.39811 0.51497 0.06635 0.0
O160 O 0.38397 0.4689 0.99506 0.0
C161 C 0.48257 0.56908 0.04509 0.0
O162 O 0.47391 0.52986 1.00974 0.0
O163 O 0.35875 0.55904 0.05189 0.0
C164 C 0.37815 0.49104 0.95323 0.0
O165 O 0.38149 0.54034 0.95713 0.0
C166 C 0.35942 0.43472 0.13792 0.0
O167 O 0.34041 0.40488 0.09419 0.0
O168 O 0.45766 0.56912 0.07509 0.0
C169 C 0.87836 0.26096 1.00906 0.0
O170 O 0.88493 0.30602 0.9913 0.0
O171 O 0.83428 0.35352 0.10614 0.0
Zn172 Zn 0.81172 0.29682 0.03756 0.0
O173 O 0.80893 0.32601 0.96376 0.0
C174 C 0.73692 0.22194 0.06534 0.0
O175 O 0.76335 0.21416 0.10642 0.0
O176 O 0.84997 0.24843 0.03445 0.0
C177 C 0.81851 0.37252 0.95364 0.0
O178 O 0.82998 0.40915 0.99242 0.0
C179 C 0.83646 0.34685 0.15471 0.0
O180 O 0.82464 0.30005 0.16725 0.0
O181 O 0.75051 0.25313 0.03421 0.0
C182 C 0.27483 0.52388 0.27635 0.0
O183 O 0.29059 0.57349 0.27722 0.0
O184 O 0.15506 0.55546 0.15985 0.0
Zn185 Zn 0.21213 0.55154 0.2061 0.0
O186 O 0.21474 0.60662 0.26243 0.0
C187 C 0.28387 0.57864 0.15537 0.0
O188 O 0.30854 0.56342 0.13059 0.0
O189 O 0.23646 0.5027 0.25182 0.0
C190 C 0.19128 0.58694 0.29181 0.0
O191 O 0.17671 0.53679 0.28803 0.0
C192 C 0.15658 0.58721 0.1252 0.0
O193 O 0.18982 0.60058 0.1063 0.0
O194 O 0.24886 0.5481 0.1556 0.0
C195 C 0.82018 0.04057 0.5294 0.0
O196 O 0.80471 0.99075 0.51744 0.0
O197 O 0.88491 0.97856 0.63568 0.0
Zn198 Zn 0.89811 1.01497 0.56636 0.0
O199 O 0.88398 0.9689 0.49506 0.0
C200 C 0.98257 0.06909 0.54511 0.0
O201 O 0.97391 0.02987 0.50975 0.0
O202 O 0.85875 0.05904 0.55189 0.0
C203 C 0.87816 0.99103 0.45324 0.0
O204 O 0.8815 0.04034 0.45713 0.0
C205 C 0.85942 0.93471 0.63793 0.0
O206 O 0.84043 0.90486 0.5942 0.0
O207 O 0.95766 0.06912 0.5751 0.0
C208 C 0.94442 0.17514 0.23587 0.0
O209 O 0.93717 0.17865 0.18544 0.0
O210 O 0.99697 0.15115 0.1497 0.0
Zn211 Zn 0.96181 0.09841 0.18959 0.0
O212 O 0.98639 0.03938 0.18083 0.0
C213 C 0.90409 0.03372 0.22645 0.0
O214 O 0.9412 0.0398 0.25778 0.0
O215 O 0.96321 0.14255 0.25431 0.0
C216 C 1.02334 0.03533 0.19454 0.0
O217 O 1.03194 0.9963 0.17318 0.0
C218 C 1.01487 0.13242 0.11936 0.0
O219 O 0.9982 0.08464 0.09873 0.0
O220 O 0.90139 0.0557 0.18421 0.0
C221 C 0.37834 0.76097 0.50903 0.0
O222 O 0.38489 0.806 0.49123 0.0
O223 O 0.33428 0.85353 0.60616 0.0
Zn224 Zn 0.31172 0.79683 0.53758 0.0
O225 O 0.30889 0.82604 0.4638 0.0
C226 C 0.23692 0.72194 0.56537 0.0
O227 O 0.26335 0.71416 0.60645 0.0
O228 O 0.34997 0.74845 0.53445 0.0
C229 C 0.3186 0.87256 0.45373 0.0
O230 O 0.33022 0.90917 0.49255 0.0
C231 C 0.33646 0.84686 0.65473 0.0
O232 O 0.32464 0.80006 0.66727 0.0
O233 O 0.25051 0.75313 0.53424 0.0
C234 C 0.44442 0.67514 0.73587 0.0
O235 O 0.43716 0.67866 0.68544 0.0
O236 O 0.49696 0.65115 0.64969 0.0
Zn237 Zn 0.46181 0.59841 0.68959 0.0
O238 O 0.48638 0.53938 0.68083 0.0
C239 C 0.40409 0.53372 0.72644 0.0
O240 O 0.4412 0.53981 0.75778 0.0
O241 O 0.4632 0.64256 0.75431 0.0
C242 C 0.52333 0.53533 0.69454 0.0
O243 O 0.53193 0.4963 0.67318 0.0
C244 C 0.51486 0.63242 0.61936 0.0
O245 O 0.4982 0.58464 0.59873 0.0
O246 O 0.40138 0.55571 0.68421 0.0
C247 C 0.77482 0.02387 0.77635 0.0
O248 O 0.79057 0.07348 0.77724 0.0
O249 O 0.65506 0.05548 0.65982 0.0
Zn250 Zn 0.71212 0.05153 0.70609 0.0
O251 O 0.71472 0.1066 0.76242 0.0
C252 C 0.78386 0.07858 0.65535 0.0
O253 O 0.80851 0.06334 0.63056 0.0
O254 O 0.73645 1.00269 0.75182 0.0
C255 C 0.69125 0.08692 0.79179 0.0
O256 O 0.67668 0.03677 0.78802 0.0
C257 C 0.6566 0.08726 0.6252 0.0
O258 O 0.68986 0.10066 0.60635 0.0
O259 O 0.74884 0.04807 0.65559 0.0
C260 C 0.87985 0.7858 0.0539 0.0
O261 O 0.89444 0.83506 0.06982 0.0
O262 O 0.82658 0.85754 0.0923 0.0
Zn263 Zn 0.80593 0.81638 0.01701 0.0
O264 O 0.82061 0.85484 0.94838 0.0
C265 C 0.72601 0.74763 0.04263 0.0
O266 O 0.74686 0.75994 0.09155 0.0
O267 O 0.84208 0.76805 0.02771 0.0
C268 C 0.8426 0.90059 0.94478 0.0
O269 O 0.85791 0.93288 0.98738 0.0
C270 C 0.8025 0.86992 0.1181 0.0
O271 O 0.76356 0.86561 0.09366 0.0
O272 O 0.74329 0.76671 1.00646 0.0
C273 C 0.92707 0.80974 0.79364 0.0
O274 O 0.91129 0.76036 0.78008 0.0
O275 O 0.9922 0.72529 0.81452 0.0
Zn276 Zn 0.99182 0.7811 0.86758 0.0
O277 O 0.04882 0.78034 0.91464 0.0
C278 C 0.92377 0.76772 0.92912 0.0
O279 O 0.90927 0.79139 0.96172 0.0
O280 O 0.96495 0.82806 0.82141 0.0
C281 C 0.04399 0.73543 0.93007 0.0
O282 O 1.0062 0.70355 0.91958 0.0
C283 C 1.02305 0.7467 0.79613 0.0
O284 O 1.03961 0.79655 0.80699 0.0
O285 O 0.95952 0.78937 0.9219 0.0
C286 C 0.81789 0.57341 0.58221 0.0
O287 O 0.80999 0.52751 0.598 0.0
O288 O 0.88754 0.51218 0.63615 0.0
Zn289 Zn 0.88614 0.53779 0.55956 0.0
O290 O 0.86252 0.47908 0.49207 0.0
C291 C 0.96223 0.60744 0.52646 0.0
O292 O 0.93585 0.61415 0.48476 0.0
O293 O 0.84811 0.58702 0.55979 0.0
C294 C 0.85945 0.48492 0.44313 0.0
O295 O 0.8704 0.53147 0.42969 0.0
C296 C 0.87247 0.46683 0.64733 0.0
O297 O 0.85708 0.42957 0.60896 0.0
O298 O 0.94821 0.57947 0.55994 0.0
C299 C 0.74986 0.66131 0.35479 0.0
O300 O 0.75778 0.66161 0.40576 0.0
O301 O 0.69737 0.79269 0.40007 0.0
Zn302 Zn 0.7271 0.73803 0.39423 0.0
O303 O 0.69499 0.68545 0.43699 0.0
C304 C 0.7802 0.80706 0.35322 0.0
O305 O 0.74288 0.79543 0.32107 0.0
O306 O 0.72936 0.69123 0.33338 0.0
C307 C 0.67618 0.70318 0.46681 0.0
O308 O 0.69079 0.7516 0.48593 0.0
C309 C 0.65959 0.79286 0.38379 0.0
O310 O 0.64756 0.8307 0.40174 0.0
O311 O 0.78476 0.78706 0.39661 0.0
Pr312 Pr 0.05619 0.13935 0.99431 0.0
Pr313 Pr 0.136 0.19144 0.09349 0.0
C314 C 0.97379 0.12444 0.95607 0.0
C315 C 0.94729 0.1579 0.96672 0.0
C316 C 0.95401 0.20776 0.95162 0.0
C317 C 0.93188 0.24073 0.9659 0.0
C318 C 0.90234 0.22516 0.99599 0.0
C319 C 0.89561 0.17533 1.01137 0.0
C320 C 0.91787 0.14219 0.99702 0.0
C321 C 0.13495 0.17449 0.97468 0.0
C322 C 0.08558 0.27049 0.0335 0.0
C323 C 0.21882 0.20738 0.13024 0.0
C324 C 0.24608 0.17448 0.12092 0.0
C325 C 0.23903 0.12434 0.13525 0.0
C326 C 0.26218 0.09209 0.12222 0.0
C327 C 0.29306 0.10865 0.09414 0.0
C328 C 0.30012 0.15879 0.07955 0.0
C329 C 0.27682 0.1912 0.09265 0.0
C330 C 0.05713 0.15863 0.11284 0.0
C331 C 0.10517 0.05967 0.05568 0.0
O332 O 0.98892 0.10266 0.99605 0.0
O333 O 1.00103 0.14083 0.92795 0.0
O334 O 0.1197 0.19347 1.00706 0.0
O335 O 0.10606 0.13662 0.94352 0.0
O336 O 0.11898 0.26782 0.06971 0.0
O337 O 0.05846 0.22869 1.00509 0.0
O338 O 0.20277 0.22701 0.08909 0.0
O339 O 0.19214 0.19181 0.15932 0.0
O340 O 0.07217 0.13841 0.08098 0.0
O341 O 0.08638 0.19626 0.14393 0.0
O342 O 0.07254 0.0628 0.01851 0.0
O343 O 0.13232 0.10134 0.08448 0.0
H344 H 0.97691 0.22183 0.92933 0.0
H345 H 0.93814 0.27875 0.95322 0.0
H346 H 0.87323 0.16193 0.03455 0.0
H347 H 0.91251 0.1044 1.01027 0.0
H348 H 0.21514 0.10955 0.15597 0.0
H349 H 0.25564 0.05382 0.13428 0.0
H350 H 0.32348 0.17293 0.0579 0.0
H351 H 0.28245 0.22925 0.08001 0.0
Pr352 Pr 0.34693 0.96581 0.31639 0.0
Pr353 Pr 0.34397 0.87723 0.28715 0.0
C354 C 0.36315 0.06013 0.36099 0.0
C355 C 0.36755 0.11422 0.36547 0.0
C356 C 0.3507 0.13505 0.40229 0.0
C357 C 0.36601 0.18713 0.41995 0.0
C358 C 0.39918 0.21734 0.40216 0.0
C359 C 0.41241 0.19637 0.36242 0.0
C360 C 0.39625 0.14576 0.34278 0.0
C361 C 0.26528 0.92477 0.25307 0.0
C362 C 0.36758 0.95451 0.20113 0.0
C363 C 0.32775 0.78032 0.25332 0.0
C364 C 0.31891 0.72736 0.23483 0.0
C365 C 0.35019 0.70753 0.2226 0.0
C366 C 0.33934 0.65806 0.19756 0.0
C367 C 0.29725 0.62922 0.18435 0.0
C368 C 0.26694 0.65009 0.19696 0.0
C369 C 0.27748 0.6981 0.22294 0.0
C370 C 0.42406 0.91515 0.35357 0.0
C371 C 0.3229 0.88679 0.40077 0.0
O372 O 0.39084 0.04337 0.34321 0.0
O373 O 0.32596 0.02808 0.35243 0.0
O374 O 0.29808 0.91911 0.24188 0.0
O375 O 0.27347 0.94844 0.29922 0.0
O376 O 0.35047 0.90668 0.20667 0.0
O377 O 0.3752 0.98883 0.24173 0.0
O378 O 0.3013 0.79757 0.27318 0.0
O379 O 0.36266 0.81344 0.25152 0.0
O380 O 0.39101 0.92234 0.36236 0.0
O381 O 0.4173 0.89242 0.30726 0.0
O382 O 0.34118 0.93441 0.39634 0.0
O383 O 0.31419 0.85348 0.35948 0.0
H384 H 0.32836 0.11057 0.4203 0.0
H385 H 0.3544 0.20247 0.4502 0.0
H386 H 0.43723 0.2183 0.34891 0.0
H387 H 0.40956 0.13059 0.31405 0.0
H388 H 0.38252 0.73054 0.23109 0.0
H389 H 0.36344 0.64296 0.18773 0.0
H390 H 0.23462 0.63028 0.18586 0.0
H391 H 0.25271 0.71309 0.23105 0.0
Pr392 Pr 0.642 0.17722 0.51305 0.0
Pr393 Pr 0.56394 0.15839 0.55692 0.0
C394 C 0.7149 0.17578 0.49178 0.0
C395 C 0.74114 0.14057 0.49897 0.0
C396 C 0.7847 0.16055 0.5102 0.0
C397 C 0.81045 0.12799 0.51992 0.0
C398 C 0.79289 0.07491 0.51865 0.0
C399 C 0.7492 0.05524 0.50889 0.0
C400 C 0.72344 0.08779 0.49896 0.0
C401 C 0.57894 0.21648 0.45743 0.0
C402 C 0.5752 0.05872 0.49258 0.0
C403 C 0.49071 0.15715 0.57889 0.0
C404 C 0.4629 0.19035 0.57465 0.0
C405 C 0.4195 0.16814 0.56267 0.0
C406 C 0.39231 0.19911 0.55664 0.0
C407 C 0.40828 0.25271 0.56215 0.0
C408 C 0.45185 0.2747 0.57323 0.0
C409 C 0.47901 0.24379 0.57939 0.0
C410 C 0.62455 0.11494 0.6105 0.0
C411 C 0.63331 0.27744 0.57595 0.0
O412 O 0.71246 0.19859 0.53509 0.0
O413 O 0.67904 0.16022 0.4568 0.0
O414 O 0.5735 0.17368 0.47559 0.0
O415 O 0.61844 0.23859 0.46243 0.0
O416 O 0.54764 0.07778 0.50865 0.0
O417 O 0.61304 0.08762 0.49306 0.0
O418 O 0.49347 0.13711 0.53436 0.0
O419 O 0.52666 0.17294 0.61374 0.0
O420 O 0.63141 0.15823 0.59313 0.0
O421 O 0.58502 0.09579 0.60759 0.0
O422 O 0.66033 0.25565 0.56288 0.0
O423 O 0.59416 0.25026 0.57357 0.0
H424 H 0.79881 0.20143 0.51185 0.0
H425 H 0.84408 0.14439 0.52841 0.0
H426 H 0.73505 1.01501 0.51046 0.0
H427 H 0.68985 0.07187 0.49218 0.0
H428 H 0.40667 0.12682 0.55763 0.0
H429 H 0.35886 0.18113 0.54726 0.0
H430 H 0.46491 0.31568 0.57517 0.0
H431 H 0.51244 0.26158 0.58706 0.0
Pr432 Pr 0.30274 0.4402 0.77927 0.0
Pr433 Pr 0.3791 0.40298 0.7981 0.0
C434 C 0.22938 0.45826 0.78012 0.0
C435 C 0.20234 0.45236 0.8164 0.0
C436 C 0.15894 0.43926 0.79651 0.0
C437 C 0.13238 0.43131 0.8303 0.0
C438 C 0.149 0.4362 0.8845 0.0
C439 C 0.19255 0.44809 0.90417 0.0
C440 C 0.21912 0.45617 0.87037 0.0
C441 C 0.36783 0.50254 0.74314 0.0
C442 C 0.36592 0.46305 0.90018 0.0
C443 C 0.45209 0.38228 0.80013 0.0
C444 C 0.48177 0.38651 0.7673 0.0
C445 C 0.52471 0.4007 0.79095 0.0
C446 C 0.55378 0.40648 0.76046 0.0
C447 C 0.54016 0.39849 0.70583 0.0
C448 C 0.497 0.38484 0.68232 0.0
C449 C 0.46796 0.37901 0.71279 0.0
C450 C 0.31498 0.34159 0.83641 0.0
C451 C 0.3158 0.38564 0.67561 0.0
O452 O 0.23226 0.41523 0.75925 0.0
O453 O 0.26516 0.49399 0.79422 0.0
O454 O 0.3716 0.48305 0.7858 0.0
O455 O 0.32882 0.49391 0.71885 0.0
O456 O 0.39439 0.45019 0.8801 0.0
O457 O 0.32807 0.45895 0.87105 0.0
O458 O 0.44964 0.42588 0.82018 0.0
O459 O 0.41575 0.3479 0.78358 0.0
O460 O 0.31032 0.35987 0.79298 0.0
O461 O 0.35414 0.35136 0.86011 0.0
O462 O 0.28741 0.39577 0.69749 0.0
O463 O 0.35419 0.38949 0.70404 0.0
H464 H 0.14561 0.43485 0.7548 0.0
H465 H 0.09887 0.42124 0.81393 0.0
H466 H 0.20596 0.44959 0.94545 0.0
H467 H 0.25259 0.46469 0.88634 0.0
H468 H 0.53575 0.40764 0.83305 0.0
H469 H 0.58684 0.41768 0.77965 0.0
H470 H 0.4857 0.38061 0.6404 0.0
H471 H 0.43488 0.36938 0.69379 0.0
Pr472 Pr 0.09976 0.14816 0.49434 0.0
Pr473 Pr 0.10475 0.17672 0.58656 0.0
C474 C 0.08288 0.10706 0.39667 0.0
C475 C 0.08476 0.10582 0.34272 0.0
C476 C 0.09804 0.06612 0.3227 0.0
C477 C 0.08288 0.04768 0.27032 0.0
C478 C 0.05384 0.06839 0.23875 0.0
C479 C 0.04797 0.11452 0.25689 0.0
C480 C 0.06315 0.13323 0.30908 0.0
C481 C 0.18326 0.21046 0.53115 0.0
C482 C 0.08288 0.26046 0.50756 0.0
C483 C 0.12001 0.21825 0.68381 0.0
C484 C 0.11225 0.2192 0.73529 0.0
C485 C 0.09543 0.25785 0.75027 0.0
C486 C 0.10549 0.2772 0.80225 0.0
C487 C 0.13262 0.25805 0.83871 0.0
C488 C 0.14148 0.21246 0.82483 0.0
C489 C 0.13173 0.19317 0.77286 0.0
C490 C 1.02212 0.11112 0.55023 0.0
C491 C 0.11995 0.06412 0.57498 0.0
O492 O 0.0587 0.13131 0.41309 0.0
O493 O 0.11602 0.10526 0.43148 0.0
O494 O 0.15148 0.22077 0.54097 0.0
O495 O 0.17305 0.16591 0.505 0.0
O496 O 0.10379 0.25597 0.55419 0.0
O497 O 0.07056 0.21916 0.47353 0.0
O498 O 0.14212 0.18924 0.67032 0.0
O499 O 0.09079 0.22511 0.64609 0.0
O500 O 0.05462 0.10303 0.54067 0.0
O501 O 1.03097 0.15564 0.57603 0.0
O502 O 0.09895 0.06872 0.52826 0.0
O503 O 0.13363 0.10596 0.60839 0.0
H504 H 0.1155 0.04508 0.34841 0.0
H505 H 0.08946 1.01326 0.25671 0.0
H506 H 1.02856 0.13359 0.2327 0.0
H507 H 0.05377 0.16512 0.32381 0.0
H508 H 0.07956 0.27789 0.72152 0.0
H509 H 0.09714 0.31159 0.8122 0.0
H510 H 0.15964 0.19475 0.85264 0.0
H511 H 0.14377 0.16212 0.76199 0.0
Pr512 Pr 0.33658 0.85983 0.82231 0.0
Pr513 Pr 0.35896 0.97098 0.77589 0.0
C514 C 0.33551 0.76164 0.82506 0.0
C515 C 0.36457 0.7393 0.80475 0.0
C516 C 0.37347 0.6944 0.82175 0.0
C517 C 0.40224 0.67496 0.80245 0.0
C518 C 0.4222 0.70036 0.76592 0.0
C519 C 0.41422 0.74626 0.75058 0.0
C520 C 0.38602 0.76574 0.77013 0.0
C521 C 0.34671 0.94024 0.90105 0.0
C522 C 0.43853 0.92583 0.83308 0.0
C523 C 0.35987 0.06932 0.77369 0.0
C524 C 0.33016 0.09242 0.79173 0.0
C525 C 0.32128 0.13639 0.77197 0.0
C526 C 0.29232 0.15713 0.78931 0.0
C527 C 0.27219 0.13413 0.82678 0.0
C528 C 0.2801 0.08904 0.8449 0.0
C529 C 0.30836 0.06806 0.82708 0.0
C530 C 0.34904 0.89108 0.69715 0.0
C531 C 0.257 0.90248 0.76054 0.0
O532 O 0.30849 0.77643 0.78982 0.0
O533 O 0.35341 0.79557 0.86584 0.0
O534 O 0.3488 0.94284 0.85377 0.0
O535 O 0.33536 0.89187 0.90827 0.0
O536 O 0.42759 0.9658 0.81301 0.0
O537 O 0.41055 0.88258 0.83613 0.0
O538 O 0.38556 0.05399 0.8102 0.0
O539 O 0.34322 0.03583 0.73237 0.0
O540 O 0.34668 0.88802 0.74432 0.0
O541 O 0.36049 0.93952 0.69013 0.0
O542 O 0.26819 0.86324 0.78186 0.0
O543 O 0.28467 0.94646 0.75868 0.0
H544 H 0.35778 0.6741 0.84923 0.0
H545 H 0.40723 0.6389 0.814 0.0
H546 H 0.42892 0.76638 0.72217 0.0
H547 H 0.38057 0.8013 0.75766 0.0
H548 H 0.33718 0.15503 0.74387 0.0
H549 H 0.28737 0.1925 0.77556 0.0
H550 H 0.26523 0.07074 0.87406 0.0
H551 H 0.31361 0.03307 0.84152 0.0
Pr552 Pr 0.60721 0.13734 0.09705 0.0
Pr553 Pr 0.59231 0.18412 0.9891 0.0
C554 C 0.60984 0.13124 0.19778 0.0
C555 C 0.59056 0.15926 0.22966 0.0
C556 C 0.60713 0.21245 0.24294 0.0
C557 C 0.58463 0.24062 0.26367 0.0
C558 C 0.54528 0.21622 0.27218 0.0
C559 C 0.52927 0.16284 0.26085 0.0
C560 C 0.55173 0.13459 0.23965 0.0
C561 C 0.59798 0.05821 0.01735 0.0
C562 C 0.50822 0.12884 0.03192 0.0
C563 C 0.59476 0.1879 0.88925 0.0
C564 C 0.6208 0.16407 0.86445 0.0
C565 C 0.63327 0.18173 0.81996 0.0
C566 C 0.65908 0.15906 0.79809 0.0
C567 C 0.67215 0.11814 0.82025 0.0
C568 C 0.66074 0.10183 0.86578 0.0
C569 C 0.63602 0.12532 0.88823 0.0
C570 C 0.60163 0.26379 0.06808 0.0
C571 C 0.69124 0.19784 0.05785 0.0
O572 O 0.64171 0.1587 0.18189 0.0
O573 O 0.5832 0.09699 0.16129 0.0
O574 O 0.59719 0.10447 1.01254 0.0
O575 O 0.60698 0.05267 0.06678 0.0
O576 O 0.52185 0.14784 0.99161 0.0
O577 O 0.53418 0.12646 0.07645 0.0
O578 O 0.56408 0.15597 0.90356 0.0
O579 O 0.61603 0.22589 0.92508 0.0
O580 O 0.6027 0.21762 0.074 0.0
O581 O 0.59217 0.26864 0.01839 0.0
O582 O 0.67727 0.17689 0.0969 0.0
O583 O 0.66577 0.19984 1.0129 0.0
H584 H 0.63689 0.2328 0.23576 0.0
H585 H 0.5982 0.28167 0.27287 0.0
H586 H 0.49927 0.14301 0.26774 0.0
H587 H 0.53806 0.09367 0.2294 0.0
H588 H 0.62273 0.21253 0.80195 0.0
H589 H 0.66705 0.17178 0.76249 0.0
H590 H 0.67038 0.07033 0.88353 0.0
H591 H 0.62849 0.11299 0.92407 0.0
Pr592 Pr 0.31363 0.37708 0.27067 0.0
Pr593 Pr 0.38905 0.45826 0.31188 0.0
C594 C 0.23338 0.32569 0.26309 0.0
C595 C 0.20542 0.33881 0.29484 0.0
C596 C 0.16884 0.35234 0.27139 0.0
C597 C 0.14446 0.36842 0.30201 0.0
C598 C 0.15626 0.37163 0.35689 0.0
C599 C 0.19308 0.35854 0.38001 0.0
C600 C 0.21723 0.34261 0.34965 0.0
C601 C 0.35043 0.41518 0.18825 0.0
C602 C 0.30393 0.49253 0.29142 0.0
C603 C 0.46921 0.51266 0.31977 0.0
C604 C 0.50285 0.49915 0.29901 0.0
C605 C 0.54487 0.52703 0.3188 0.0
C606 C 0.57658 0.51584 0.29822 0.0
C607 C 0.56729 0.47569 0.25787 0.0
C608 C 0.52522 0.44693 0.23888 0.0
C609 C 0.49338 0.45904 0.2586 0.0
C610 C 0.35182 0.41969 0.39409 0.0
C611 C 0.39846 0.34221 0.28687 0.0
O612 O 0.26472 0.30951 0.28761 0.0
O613 O 0.24424 0.35796 0.23015 0.0
O614 O 0.3479 0.44244 0.22719 0.0
O615 O 0.33115 0.36727 0.19001 0.0
O616 O 0.34431 0.51103 0.2944 0.0
O617 O 0.28792 0.44385 0.29396 0.0
O618 O 0.4375 0.51892 0.28516 0.0
O619 O 0.45743 0.48734 0.3572 0.0
O620 O 0.3549 0.3924 0.35543 0.0
O621 O 0.36969 0.46799 0.39141 0.0
O622 O 0.35763 0.32298 0.28022 0.0
O623 O 0.41571 0.39144 0.29383 0.0
H624 H 0.15928 0.35087 0.22933 0.0
H625 H 0.11635 0.37806 0.28273 0.0
H626 H 0.20348 0.36044 0.42203 0.0
H627 H 0.24554 0.33374 0.36947 0.0
H628 H 0.55314 0.55823 0.34961 0.0
H629 H 0.60852 0.53916 0.3137 0.0
H630 H 0.51668 0.41635 0.20738 0.0
H631 H 0.46125 0.43781 0.24108 0.0
Pr632 Pr 0.59977 0.64816 0.99433 0.0
Pr633 Pr 0.60475 0.67671 0.08655 0.0
C634 C 0.58288 0.60707 0.89666 0.0
C635 C 0.58477 0.60583 0.84271 0.0
C636 C 0.59805 0.56613 0.82268 0.0
C637 C 0.58288 0.54769 0.77031 0.0
C638 C 0.55384 0.56839 0.73874 0.0
C639 C 0.54796 0.61453 0.75688 0.0
C640 C 0.56315 0.63324 0.80907 0.0
C641 C 0.68327 0.71046 0.03115 0.0
C642 C 0.58288 0.76046 1.00756 0.0
C643 C 0.62001 0.71822 0.1838 0.0
C644 C 0.61223 0.71915 0.23527 0.0
C645 C 0.59539 0.75779 0.25026 0.0
C646 C 0.60546 0.77714 0.30224 0.0
C647 C 0.6326 0.75801 0.33869 0.0
C648 C 0.64147 0.71243 0.32482 0.0
C649 C 0.63172 0.69314 0.27285 0.0
C650 C 0.52212 0.61111 0.05022 0.0
C651 C 0.61995 0.56411 0.07496 0.0
O652 O 0.55871 0.63132 0.91309 0.0
O653 O 0.61602 0.60527 0.93147 0.0
O654 O 0.65148 0.72077 0.04097 0.0
O655 O 0.67306 0.66591 1.00499 0.0
O656 O 0.60379 0.75596 0.05419 0.0
O657 O 0.57057 0.71916 0.97353 0.0
O658 O 0.64211 0.68921 0.17032 0.0
O659 O 0.59079 0.7251 0.14608 0.0
O660 O 0.55462 0.60302 0.04065 0.0
O661 O 0.53097 0.65563 0.07602 0.0
O662 O 0.59895 0.56872 0.02824 0.0
O663 O 0.63363 0.60595 0.10838 0.0
H664 H 0.61551 0.54509 0.84839 0.0
H665 H 0.58946 0.51327 0.7567 0.0
H666 H 0.52855 0.63359 0.73269 0.0
H667 H 0.55377 0.66514 0.8238 0.0
H668 H 0.57952 0.77782 0.22151 0.0
H669 H 0.5971 0.81152 0.31219 0.0
H670 H 0.65964 0.69472 0.35263 0.0
H671 H 0.64377 0.66209 0.26199 0.0
Pr672 Pr 0.83658 0.35983 0.3223 0.0
Pr673 Pr 0.85896 0.47097 0.27587 0.0
C674 C 0.83551 0.26164 0.32505 0.0
C675 C 0.86457 0.23929 0.30474 0.0
C676 C 0.87347 0.19439 0.32175 0.0
C677 C 0.90224 0.17496 0.30245 0.0
C678 C 0.9222 0.20036 0.26592 0.0
C679 C 0.91422 0.24626 0.25057 0.0
C680 C 0.88602 0.26574 0.27012 0.0
C681 C 0.84671 0.44024 0.40103 0.0
C682 C 0.93852 0.42582 0.33306 0.0
C683 C 0.85986 0.56931 0.27366 0.0
C684 C 0.83016 0.59241 0.29171 0.0
C685 C 0.82127 0.63638 0.27195 0.0
C686 C 0.79231 0.65713 0.28929 0.0
C687 C 0.77219 0.63412 0.32676 0.0
C688 C 0.7801 0.58903 0.34489 0.0
C689 C 0.80835 0.56805 0.32707 0.0
C690 C 0.84904 0.39107 0.19713 0.0
C691 C 0.757 0.40247 0.26052 0.0
O692 O 0.8085 0.27642 0.2898 0.0
O693 O 0.8534 0.29557 0.36583 0.0
O694 O 0.8488 0.44283 0.35375 0.0
O695 O 0.83536 0.39187 0.40825 0.0
O696 O 0.92759 0.4658 0.313 0.0
O697 O 0.91055 0.38258 0.33611 0.0
O698 O 0.88556 0.55398 0.31018 0.0
O699 O 0.84322 0.53582 0.23235 0.0
O700 O 0.84668 0.38801 0.2443 0.0
O701 O 0.86049 0.43951 0.19011 0.0
O702 O 0.76819 0.36323 0.28185 0.0
O703 O 0.78467 0.44645 0.25867 0.0
H704 H 0.85778 0.1741 0.34922 0.0
H705 H 0.90723 0.1389 0.314 0.0
H706 H 0.92892 0.26637 0.22217 0.0
H707 H 0.88057 0.30129 0.25764 0.0
H708 H 0.83718 0.65503 0.24385 0.0
H709 H 0.78736 0.69249 0.27554 0.0
H710 H 0.76523 0.57073 0.37405 0.0
H711 H 0.81361 0.53306 0.3415 0.0
Pr712 Pr 0.10721 0.63734 0.59705 0.0
Pr713 Pr 0.09232 0.68413 0.48911 0.0
C714 C 0.10984 0.63124 0.69779 0.0
C715 C 0.09057 0.65927 0.72968 0.0
C716 C 0.10716 0.71247 0.74295 0.0
C717 C 0.08467 0.74064 0.7637 0.0
C718 C 0.04532 0.71626 0.77222 0.0
C719 C 1.0293 0.66288 0.76089 0.0
C720 C 0.05174 0.63462 0.73967 0.0
C721 C 0.09799 0.55821 0.51735 0.0
C722 C 1.00822 0.62884 0.53191 0.0
C723 C 0.09478 0.68791 0.38925 0.0
C724 C 0.12083 0.66409 0.36446 0.0
C725 C 0.1333 0.68175 0.31998 0.0
C726 C 0.15911 0.65909 0.2981 0.0
C727 C 0.17218 0.61816 0.32027 0.0
C728 C 0.16076 0.60185 0.36579 0.0
C729 C 0.13605 0.62534 0.38824 0.0
C730 C 0.10163 0.7638 0.56808 0.0
C731 C 0.19124 0.69784 0.55787 0.0
O732 O 0.14171 0.65869 0.68189 0.0
O733 O 0.08318 0.597 0.66129 0.0
O734 O 0.0972 0.60448 0.51254 0.0
O735 O 0.10697 0.55267 0.56678 0.0
O736 O 1.02186 0.64785 0.49161 0.0
O737 O 1.03417 0.62647 0.57644 0.0
O738 O 0.0641 0.65598 0.40356 0.0
O739 O 0.11604 0.7259 0.4251 0.0
O740 O 0.1027 0.71762 0.57401 0.0
O741 O 0.09218 0.76865 0.51839 0.0
O742 O 0.17727 0.67689 0.59691 0.0
O743 O 0.16577 0.69984 0.51291 0.0
H744 H 0.13692 0.7328 0.73577 0.0
H745 H 0.09826 0.78169 0.77291 0.0
H746 H 0.99929 0.64306 0.76778 0.0
H747 H 1.03806 0.5937 0.72942 0.0
H748 H 0.12276 0.71256 0.30197 0.0
H749 H 0.16709 0.67181 0.26251 0.0
H750 H 0.1704 0.57034 0.38354 0.0
H751 H 0.12851 0.61299 0.42408 0.0
Pr752 Pr 0.80274 0.9402 0.27928 0.0
Pr753 Pr 0.87911 0.90298 0.2981 0.0
C754 C 0.72939 0.95825 0.28013 0.0
C755 C 0.70233 0.95235 0.3164 0.0
C756 C 0.65894 0.93925 0.2965 0.0
C757 C 0.63237 0.9313 0.33028 0.0
C758 C 0.64898 0.93618 0.38448 0.0
C759 C 0.69253 0.94807 0.40416 0.0
C760 C 0.71911 0.95615 0.37037 0.0
C761 C 0.86784 1.00253 0.24314 0.0
C762 C 0.86593 0.96305 0.40018 0.0
C763 C 0.95211 0.88228 0.30014 0.0
C764 C 0.98179 0.88651 0.26731 0.0
C765 C 1.02473 0.9007 0.29097 0.0
C766 C 0.0538 0.90648 0.26048 0.0
C767 C 1.0402 0.89849 0.20585 0.0
C768 C 0.99703 0.88485 0.18234 0.0
C769 C 0.96798 0.87902 0.2128 0.0
C770 C 0.81499 0.84158 0.33641 0.0
C771 C 0.8158 0.88564 0.17562 0.0
O772 O 0.73226 0.91523 0.25925 0.0
O773 O 0.76517 0.99398 0.29423 0.0
O774 O 0.87161 0.98304 0.2858 0.0
O775 O 0.82883 0.99391 0.21886 0.0
O776 O 0.8944 0.95019 0.38011 0.0
O777 O 0.82808 0.95894 0.37105 0.0
O778 O 0.94965 0.92588 0.32019 0.0
O779 O 0.91576 0.8479 0.28358 0.0
O780 O 0.81033 0.85987 0.29298 0.0
O781 O 0.85414 0.85135 0.36011 0.0
O782 O 0.78741 0.89576 0.1975 0.0
O783 O 0.8542 0.88949 0.20405 0.0
H784 H 0.64561 0.93484 0.25479 0.0
H785 H 0.59887 0.92122 0.3139 0.0
H786 H 0.70594 0.94956 0.44544 0.0
H787 H 0.75258 0.96468 0.38634 0.0
H788 H 1.03577 0.90764 0.33306 0.0
H789 H 0.08687 0.91768 0.27968 0.0
H790 H 0.98574 0.88062 0.14042 0.0
H791 H 0.93491 0.86939 0.1938 0.0
Pr792 Pr 0.84695 0.46581 0.81635 0.0
Pr793 Pr 0.84403 0.37719 0.78712 0.0
C794 C 0.8632 0.56011 0.86098 0.0
C795 C 0.86761 0.61421 0.86549 0.0
C796 C 0.85074 0.63502 0.9023 0.0
C797 C 0.86604 0.68711 0.91996 0.0
C798 C 0.89922 0.71732 0.90219 0.0
C799 C 0.91247 0.69636 0.86247 0.0
C800 C 0.89632 0.64575 0.84282 0.0
C801 C 0.76533 0.42476 0.75295 0.0
C802 C 0.86765 0.4545 0.70111 0.0
C803 C 0.82781 0.28027 0.7533 0.0
C804 C 0.81898 0.22731 0.73482 0.0
C805 C 0.85024 0.20748 0.72254 0.0
C806 C 0.83937 0.158 0.6975 0.0
C807 C 0.79728 0.12917 0.68434 0.0
C808 C 0.76699 0.15005 0.69699 0.0
C809 C 0.77754 0.19805 0.72297 0.0
C810 C 0.92409 0.41516 0.85358 0.0
C811 C 0.82286 0.38674 0.90069 0.0
O812 O 0.89088 0.54335 0.8432 0.0
O813 O 0.826 0.52808 0.85241 0.0
O814 O 0.79814 0.41906 0.74183 0.0
O815 O 0.77349 0.44854 0.79905 0.0
O816 O 0.85058 0.40666 0.70666 0.0
O817 O 0.87522 0.48883 0.74169 0.0
O818 O 0.80135 0.29754 0.77312 0.0
O819 O 0.86274 0.31339 0.75156 0.0
O820 O 0.89101 0.42233 0.86234 0.0
O821 O 0.91736 0.39244 0.80728 0.0
O822 O 0.84106 0.43439 0.89626 0.0
O823 O 0.81425 0.35342 0.85944 0.0
H824 H 0.82839 0.61054 0.92029 0.0
H825 H 0.85442 0.70244 0.9502 0.0
H826 H 0.93729 0.7183 0.84896 0.0
H827 H 0.90965 0.63059 0.8141 0.0
H828 H 0.88257 0.23049 0.731 0.0
H829 H 0.86346 0.1429 0.68764 0.0
H830 H 0.73467 0.13025 0.68591 0.0
H831 H 0.75279 0.21304 0.7311 0.0
Pr832 Pr 0.81364 0.87708 0.77068 0.0
Pr833 Pr 0.88905 0.95828 0.81188 0.0
C834 C 0.73339 0.82569 0.7631 0.0
C835 C 0.70542 0.83879 0.79485 0.0
C836 C 0.66887 0.85237 0.7714 0.0
C837 C 0.64448 0.86844 0.80202 0.0
C838 C 0.65627 0.87162 0.8569 0.0
C839 C 0.69306 0.85848 0.88002 0.0
C840 C 0.71721 0.84255 0.84966 0.0
C841 C 0.85043 0.91518 0.68826 0.0
C842 C 0.80392 0.99253 0.79142 0.0
C843 C 0.96921 1.01268 0.81976 0.0
C844 C 1.00285 0.99917 0.79901 0.0
C845 C 0.04487 0.02705 0.81879 0.0
C846 C 0.07658 1.01586 0.79821 0.0
C847 C 0.06729 0.97571 0.75787 0.0
C848 C 1.02522 0.94694 0.73888 0.0
C849 C 0.99338 0.95906 0.7586 0.0
C850 C 0.85182 0.91971 0.8941 0.0
C851 C 0.89848 0.84223 0.78691 0.0
O852 O 0.76474 0.80951 0.78763 0.0
O853 O 0.74425 0.85795 0.73016 0.0
O854 O 0.8479 0.94244 0.72719 0.0
O855 O 0.83116 0.86727 0.69002 0.0
O856 O 0.8443 1.01103 0.79441 0.0
O857 O 0.78791 0.94385 0.79395 0.0
O858 O 0.93749 1.01893 0.78515 0.0
O859 O 0.95744 0.98737 0.8572 0.0
O860 O 0.85491 0.89241 0.85544 0.0
O861 O 0.86969 0.96801 0.89142 0.0
O862 O 0.85765 0.823 0.78025 0.0
O863 O 0.91573 0.89146 0.79386 0.0
H864 H 0.65932 0.85093 0.72934 0.0
H865 H 0.61639 0.87812 0.78274 0.0
H866 H 0.70345 0.86034 0.92204 0.0
H867 H 0.7455 0.83365 0.86948 0.0
H868 H 0.05314 0.05825 0.84959 0.0
H869 H 0.10852 0.03919 0.81369 0.0
H870 H 1.01668 0.91636 0.70739 0.0
H871 H 0.96125 0.93782 0.74109 0.0
Pr872 Pr 0.55618 0.63934 0.4943 0.0
Pr873 Pr 0.636 0.69143 0.59347 0.0
C874 C 0.47378 0.62444 0.45607 0.0
C875 C 0.44728 0.6579 0.46672 0.0
C876 C 0.45398 0.70774 0.45158 0.0
C877 C 0.43184 0.74071 0.46585 0.0
C878 C 0.40232 0.72516 0.49597 0.0
C879 C 0.39561 0.67534 0.51139 0.0
C880 C 0.41789 0.64221 0.49704 0.0
C881 C 0.63494 0.67448 0.47467 0.0
C882 C 0.58557 0.77048 0.53348 0.0
C883 C 0.71882 0.70739 0.63021 0.0
C884 C 0.74608 0.67449 0.62089 0.0
C885 C 0.73908 0.62438 0.6353 0.0
C886 C 0.76222 0.59212 0.62227 0.0
C887 C 0.79307 0.60866 0.59414 0.0
C888 C 0.80008 0.65877 0.57948 0.0
C889 C 0.77678 0.69118 0.59257 0.0
C890 C 0.55713 0.65863 0.61283 0.0
C891 C 0.60516 0.55967 0.55568 0.0
O892 O 0.48891 0.60266 0.49605 0.0
O893 O 0.50102 0.64082 0.42794 0.0
O894 O 0.61969 0.69346 0.50704 0.0
O895 O 0.60605 0.63661 0.44351 0.0
O896 O 0.61897 0.76781 0.56969 0.0
O897 O 0.55844 0.72868 0.50507 0.0
O898 O 0.70276 0.72701 0.58906 0.0
O899 O 0.69214 0.69182 0.6593 0.0
O900 O 0.57217 0.63841 0.58097 0.0
O901 O 0.58637 0.69627 0.64392 0.0
O902 O 0.57254 0.5628 0.51851 0.0
O903 O 0.63231 0.60134 0.58447 0.0
H904 H 0.47687 0.7218 0.42925 0.0
H905 H 0.43809 0.77872 0.45314 0.0
H906 H 0.37326 0.66197 0.53459 0.0
H907 H 0.41254 0.60443 0.51033 0.0
H908 H 0.71521 0.6096 0.65606 0.0
H909 H 0.75572 0.55387 0.63439 0.0
H910 H 0.82341 0.67289 0.55778 0.0
H911 H 0.78238 0.72921 0.57987 0.0
Pr912 Pr 0.14201 0.67723 1.01311 0.0
Pr913 Pr 0.06394 0.65839 0.05696 0.0
C914 C 0.21491 0.67579 0.99181 0.0
C915 C 0.24114 0.64058 0.999 0.0
C916 C 0.28471 0.66056 1.01023 0.0
C917 C 0.31045 0.62799 0.01994 0.0
C918 C 0.29289 0.57491 0.01867 0.0
C919 C 0.2492 0.55525 1.00892 0.0
C920 C 0.22344 0.5878 0.999 0.0
C921 C 0.07896 0.71652 0.9575 0.0
C922 C 0.07521 0.55873 0.99262 0.0
C923 C 0.9907 0.65715 0.07892 0.0
C924 C 0.9629 0.69035 0.07468 0.0
C925 C 0.9195 0.66815 0.06269 0.0
C926 C 0.89231 0.69912 0.05666 0.0
C927 C 0.90828 0.75272 0.06217 0.0
C928 C 0.95185 0.77471 0.07326 0.0
C929 C 0.97901 0.7438 0.07942 0.0
C930 C 0.12454 0.61491 0.11054 0.0
C931 C 0.13334 0.77741 0.07609 0.0
O932 O 0.21247 0.6986 0.03512 0.0
O933 O 0.17904 0.66023 0.95685 0.0
O934 O 0.07352 0.67371 0.97564 0.0
O935 O 0.11847 0.73863 0.96252 0.0
O936 O 0.04764 0.5778 1.00867 0.0
O937 O 0.11306 0.58763 0.99312 0.0
O938 O 0.99347 0.63711 0.03439 0.0
O939 O 1.02666 0.67294 0.11378 0.0
O940 O 0.13141 0.65821 0.09317 0.0
O941 O 0.08501 0.59578 0.10762 0.0
O942 O 0.16036 0.75561 0.06304 0.0
O943 O 0.09418 0.75026 0.07364 0.0
H944 H 0.29881 0.70143 1.01187 0.0
H945 H 0.34408 0.64439 0.02842 0.0
H946 H 0.23505 0.51502 1.01049 0.0
H947 H 0.18985 0.57187 0.99222 0.0
H948 H 0.90667 0.62682 0.05765 0.0
H949 H 0.85886 0.68114 0.04727 0.0
H950 H 0.96491 0.81568 0.07519 0.0
H951 H 1.01244 0.76158 0.08709 0.0
loop_
_geom_bond_atom_site_label_1
_geom_bond_atom_site_label_2
_geom_bond_distance
_geom_bond_site_symmetry_2
_ccdc_geom_bond_type
C0 O1 1.160 . S
C0 O7 1.185 . S
O1 C0 1.160 . S
O2 Zn3 1.899 1_655 S
O2 C10 1.284 . S
Zn3 O2 1.899 1_455 S
Zn3 O4 2.032 . S
Zn3 O7 2.086 . S
Zn3 O12 1.977 1_455 S
O4 Zn3 2.032 . S
O4 C8 1.278 . S
C5 O6 1.203 . S
C5 O12 1.267 . S
O6 C5 1.203 . S
O7 C0 1.185 . S
O7 Zn3 2.086 . S
C8 O4 1.278 . S
C8 O9 1.211 1_455 S
O9 C8 1.211 1_655 S
C10 O2 1.284 . S
C10 O11 1.273 . S
O11 C10 1.273 . S
O12 Zn3 1.977 1_655 S
O12 C5 1.267 . S
C13 O14 1.160 . S
C13 O20 1.185 . S
O14 C13 1.160 . S
O15 Zn16 1.899 . S
O15 C23 1.284 . S
Zn16 O15 1.899 . S
Zn16 O17 2.032 . S
Zn16 O20 2.086 . S
Zn16 O25 1.977 . S
O17 Zn16 2.032 . S
O17 C21 1.278 . S
C18 O19 1.203 . S
C18 O25 1.267 . S
O19 C18 1.203 . S
O20 C13 1.185 . S
O20 Zn16 2.086 . S
C21 O17 1.278 . S
C21 O22 1.211 . S
O22 C21 1.211 . S
C23 O15 1.284 . S
C23 O24 1.273 . S
O24 C23 1.273 . S
O25 Zn16 1.977 . S
O25 C18 1.267 . S
C26 O27 1.160 . S
C26 O33 1.185 . S
O27 C26 1.160 . S
O28 Zn29 1.899 . S
O28 C36 1.284 . S
Zn29 O28 1.899 . S
Zn29 O30 2.032 . S
Zn29 O33 2.086 . S
Zn29 O38 1.977 . S
O30 Zn29 2.032 . S
O30 C34 1.278 . S
C31 O32 1.203 . S
C31 O38 1.267 . S
O32 C31 1.203 . S
O33 C26 1.185 . S
O33 Zn29 2.086 . S
C34 O30 1.278 . S
C34 O35 1.211 . S
O35 C34 1.211 . S
C36 O28 1.284 . S
C36 O37 1.273 1_556 S
O37 C36 1.273 1_554 S
O38 Zn29 1.977 . S
O38 C31 1.267 . S
C39 O40 1.160 . S
C39 O46 1.185 . S
O40 C39 1.160 . S
O41 Zn42 1.899 . S
O41 C49 1.284 . S
Zn42 O41 1.899 . S
Zn42 O43 2.032 . S
Zn42 O46 2.086 . S
Zn42 O51 1.977 . S
O43 Zn42 2.032 . S
O43 C47 1.278 . S
C44 O45 1.203 . S
C44 O51 1.267 . S
O45 C44 1.203 . S
O46 C39 1.185 . S
O46 Zn42 2.086 . S
C47 O43 1.278 . S
C47 O48 1.211 . S
O48 C47 1.211 . S
C49 O41 1.284 . S
C49 O50 1.273 . S
O50 C49 1.273 . S
O51 Zn42 1.977 . S
O51 C44 1.267 . S
C52 O53 1.160 . S
C52 O59 1.185 . S
O53 C52 1.160 . S
O54 Zn55 1.899 . S
O54 C62 1.284 . S
Zn55 O54 1.899 . S
Zn55 O56 2.032 . S
Zn55 O59 2.086 . S
Zn55 O64 1.977 . S
O56 Zn55 2.032 . S
O56 C60 1.278 . S
C57 O58 1.203 . S
C57 O64 1.267 . S
O58 C57 1.203 . S
O59 C52 1.185 . S
O59 Zn55 2.086 . S
C60 O56 1.278 . S
C60 O61 1.211 . S
O61 C60 1.211 . S
C62 O54 1.284 . S
C62 O63 1.273 . S
O63 C62 1.273 . S
O64 Zn55 1.977 . S
O64 C57 1.267 . S
C65 O66 1.160 . S
C65 O72 1.185 . S
O66 C65 1.160 . S
O67 Zn68 1.899 . S
O67 C75 1.284 . S
Zn68 O67 1.899 . S
Zn68 O69 2.032 . S
Zn68 O72 2.086 . S
Zn68 O77 1.977 . S
O69 Zn68 2.032 . S
O69 C73 1.278 . S
C70 O71 1.203 . S
C70 O77 1.267 . S
O71 C70 1.203 . S
O72 C65 1.185 . S
O72 Zn68 2.086 . S
C73 O69 1.278 . S
C73 O74 1.211 . S
O74 C73 1.211 . S
C75 O67 1.284 . S
C75 O76 1.273 . S
O76 C75 1.273 . S
O77 Zn68 1.977 . S
O77 C70 1.267 . S
C78 O79 1.160 . S
C78 O85 1.185 . S
O79 C78 1.160 . S
O80 Zn81 1.899 . S
O80 C88 1.284 . S
Zn81 O80 1.899 . S
Zn81 O82 2.032 . S
Zn81 O85 2.086 . S
Zn81 O90 1.977 . S
O82 Zn81 2.032 . S
O82 C86 1.278 . S
C83 O84 1.203 . S
C83 O90 1.267 . S
O84 C83 1.203 . S
O85 C78 1.185 . S
O85 Zn81 2.086 . S
C86 O82 1.278 . S
C86 O87 1.211 . S
O87 C86 1.211 . S
C88 O80 1.284 . S
C88 O89 1.273 . S
O89 C88 1.273 . S
O90 Zn81 1.977 . S
O90 C83 1.267 . S
C91 O92 1.160 . S
C91 O98 1.185 . S
O92 C91 1.160 . S
O93 Zn94 1.899 . S
O93 C101 1.288 . S
Zn94 O93 1.899 . S
Zn94 O95 2.032 . S
Zn94 O98 2.086 . S
Zn94 O103 1.977 1_455 S
O95 Zn94 2.032 . S
O95 C99 1.278 . S
C96 O97 1.203 . S
C96 O103 1.267 . S
O97 C96 1.203 . S
O98 C91 1.185 . S
O98 Zn94 2.086 . S
C99 O95 1.278 . S
C99 O100 1.211 1_455 S
O100 C99 1.211 1_655 S
C101 O93 1.288 . S
C101 O102 1.267 1_456 S
O102 C101 1.267 1_654 S
O103 Zn94 1.977 1_655 S
O103 C96 1.267 . S
C104 O105 1.160 . S
C104 O111 1.185 . S
O105 C104 1.160 . S
O106 Zn107 1.899 . S
O106 C114 1.284 . S
Zn107 O106 1.899 . S
Zn107 O108 2.032 . S
Zn107 O111 2.086 . S
Zn107 O116 1.977 . S
O108 Zn107 2.032 . S
O108 C112 1.278 . S
C109 O110 1.203 . S
C109 O116 1.267 . S
O110 C109 1.203 . S
O111 C104 1.185 . S
O111 Zn107 2.086 . S
C112 O108 1.278 . S
C112 O113 1.211 . S
O113 C112 1.211 . S
C114 O106 1.284 . S
C114 O115 1.273 . S
O115 C114 1.273 . S
O116 Zn107 1.977 . S
O116 C109 1.267 . S
C117 O118 1.160 . S
C117 O124 1.185 . S
O118 C117 1.160 . S
O119 Zn120 1.899 . S
O119 C127 1.284 . S
Zn120 O119 1.899 . S
Zn120 O121 2.032 . S
Zn120 O124 2.086 . S
Zn120 O129 1.977 . S
O121 Zn120 2.032 . S
O121 C125 1.278 . S
C122 O123 1.203 . S
C122 O129 1.267 . S
O123 C122 1.203 . S
O124 C117 1.185 . S
O124 Zn120 2.086 . S
C125 O121 1.278 . S
C125 O126 1.211 . S
O126 C125 1.211 . S
C127 O119 1.284 . S
C127 O128 1.273 . S
O128 C127 1.273 . S
O129 Zn120 1.977 . S
O129 C122 1.267 . S
C130 O131 1.160 . S
C130 O137 1.185 . S
O131 C130 1.160 . S
O132 Zn133 1.899 . S
O132 C140 1.284 . S
Zn133 O132 1.899 . S
Zn133 O134 2.032 . S
Zn133 O137 2.086 . S
Zn133 O142 1.977 . S
O134 Zn133 2.032 . S
O134 C138 1.278 . S
C135 O136 1.203 . S
C135 O142 1.267 . S
O136 C135 1.203 . S
O137 C130 1.185 . S
O137 Zn133 2.086 . S
C138 O134 1.278 . S
C138 O139 1.211 . S
O139 C138 1.211 . S
C140 O132 1.284 . S
C140 O141 1.273 . S
O141 C140 1.273 . S
O142 Zn133 1.977 . S
O142 C135 1.267 . S
C143 O144 1.160 1_545 S
C143 O150 1.185 . S
O144 C143 1.160 1_565 S
O145 Zn146 1.899 1_565 S
O145 C153 1.284 . S
Zn146 O145 1.899 1_545 S
Zn146 O147 2.032 1_544 S
Zn146 O150 2.086 . S
Zn146 O155 1.977 . S
O147 Zn146 2.032 1_566 S
O147 C151 1.278 . S
C148 O149 1.203 . S
C148 O155 1.267 . S
O149 C148 1.203 . S
O150 C143 1.185 . S
O150 Zn146 2.086 . S
C151 O147 1.278 . S
C151 O152 1.211 . S
O152 C151 1.211 . S
C153 O145 1.284 . S
C153 O154 1.273 . S
O154 C153 1.273 . S
O155 Zn146 1.977 . S
O155 C148 1.267 . S
C156 O157 1.160 . S
C156 O163 1.185 . S
O157 C156 1.160 . S
O158 Zn159 1.899 . S
O158 C166 1.284 . S
Zn159 O158 1.899 . S
Zn159 O160 2.032 1_554 S
Zn159 O163 2.086 . S
Zn159 O168 1.977 . S
O160 Zn159 2.032 1_556 S
O160 C164 1.278 . S
C161 O162 1.203 . S
C161 O168 1.267 . S
O162 C161 1.203 . S
O163 C156 1.185 . S
O163 Zn159 2.086 . S
C164 O160 1.278 . S
C164 O165 1.211 . S
O165 C164 1.211 . S
C166 O158 1.284 . S
C166 O167 1.273 . S
O167 C166 1.273 . S
O168 Zn159 1.977 . S
O168 C161 1.267 . S
C169 O170 1.160 . S
C169 O176 1.185 1_554 S
O170 C169 1.160 . S
O171 Zn172 1.899 . S
O171 C179 1.284 . S
Zn172 O171 1.899 . S
Zn172 O173 2.032 1_554 S
Zn172 O176 2.086 1_554 S
Zn172 O181 1.977 1_554 S
O173 Zn172 2.032 1_556 S
O173 C177 1.278 . S
C174 O175 1.203 1_556 S
C174 O181 1.267 . S
O175 C174 1.203 1_554 S
O176 C169 1.185 1_556 S
O176 Zn172 2.086 1_556 S
C177 O173 1.278 . S
C177 O178 1.211 . S
O178 C177 1.211 . S
C179 O171 1.284 . S
C179 O180 1.273 . S
O180 C179 1.273 . S
O181 Zn172 1.977 1_556 S
O181 C174 1.267 . S
C182 O183 1.160 . S
C182 O189 1.185 . S
O183 C182 1.160 . S
O184 Zn185 1.899 . S
O184 C192 1.284 . S
Zn185 O184 1.899 . S
Zn185 O186 2.032 . S
Zn185 O189 2.086 . S
Zn185 O194 1.977 . S
O186 Zn185 2.032 . S
O186 C190 1.278 . S
C187 O188 1.203 . S
C187 O194 1.267 . S
O188 C187 1.203 . S
O189 C182 1.185 . S
O189 Zn185 2.086 . S
C190 O186 1.278 . S
C190 O191 1.211 . S
O191 C190 1.211 . S
C192 O184 1.284 . S
C192 O193 1.273 . S
O193 C192 1.273 . S
O194 Zn185 1.977 . S
O194 C187 1.267 . S
C195 O196 1.160 . S
C195 O202 1.185 . S
O196 C195 1.160 . S
O197 Zn198 1.899 1_565 S
O197 C205 1.284 . S
Zn198 O197 1.899 1_545 S
Zn198 O199 2.032 1_545 S
Zn198 O202 2.086 . S
Zn198 O207 1.977 . S
O199 Zn198 2.032 1_565 S
O199 C203 1.278 . S
C200 O201 1.203 . S
C200 O207 1.267 . S
O201 C200 1.203 . S
O202 C195 1.185 . S
O202 Zn198 2.086 . S
C203 O199 1.278 . S
C203 O204 1.211 . S
O204 C203 1.211 . S
C205 O197 1.284 . S
C205 O206 1.273 . S
O206 C205 1.273 . S
O207 Zn198 1.977 . S
O207 C200 1.267 . S
C208 O209 1.160 . S
C208 O215 1.185 . S
O209 C208 1.160 . S
O210 Zn211 1.899 . S
O210 C218 1.284 . S
Zn211 O210 1.899 . S
Zn211 O212 2.032 . S
Zn211 O215 2.086 . S
Zn211 O220 1.977 1_545 S
O212 Zn211 2.032 . S
O212 C216 1.278 . S
C213 O214 1.203 . S
C213 O220 1.267 . S
O214 C213 1.203 . S
O215 C208 1.185 . S
O215 Zn211 2.086 . S
C216 O212 1.278 . S
C216 O217 1.211 1_545 S
O217 C216 1.211 1_565 S
C218 O210 1.284 . S
C218 O219 1.273 . S
O219 C218 1.273 . S
O220 Zn211 1.977 1_565 S
O220 C213 1.267 . S
C221 O222 1.160 . S
C221 O228 1.185 . S
O222 C221 1.160 . S
O223 Zn224 1.899 . S
O223 C231 1.284 . S
Zn224 O223 1.899 . S
Zn224 O225 2.032 . S
Zn224 O228 2.086 . S
Zn224 O233 1.977 . S
O225 Zn224 2.032 . S
O225 C229 1.278 . S
C226 O227 1.203 . S
C226 O233 1.267 . S
O227 C226 1.203 . S
O228 C221 1.185 . S
O228 Zn224 2.086 . S
C229 O225 1.278 . S
C229 O230 1.211 . S
O230 C229 1.211 . S
C231 O223 1.284 . S
C231 O232 1.273 . S
O232 C231 1.273 . S
O233 Zn224 1.977 . S
O233 C226 1.267 . S
C234 O235 1.160 . S
C234 O241 1.185 . S
O235 C234 1.160 . S
O236 Zn237 1.899 . S
O236 C244 1.284 . S
Zn237 O236 1.899 . S
Zn237 O238 2.032 . S
Zn237 O241 2.086 . S
Zn237 O246 1.977 . S
O238 Zn237 2.032 . S
O238 C242 1.278 . S
C239 O240 1.203 . S
C239 O246 1.267 . S
O240 C239 1.203 . S
O241 C234 1.185 . S
O241 Zn237 2.086 . S
C242 O238 1.278 . S
C242 O243 1.211 . S
O243 C242 1.211 . S
C244 O236 1.284 . S
C244 O245 1.273 . S
O245 C244 1.273 . S
O246 Zn237 1.977 . S
O246 C239 1.267 . S
C247 O248 1.160 . S
C247 O254 1.185 . S
O248 C247 1.160 . S
O249 Zn250 1.899 . S
O249 C257 1.284 . S
Zn250 O249 1.899 . S
Zn250 O251 2.032 . S
Zn250 O254 2.086 . S
Zn250 O259 1.977 1_565 S
O251 Zn250 2.032 . S
O251 C255 1.278 1_565 S
C252 O253 1.203 . S
C252 O259 1.267 . S
O253 C252 1.203 . S
O254 C247 1.185 . S
O254 Zn250 2.086 . S
C255 O251 1.278 1_545 S
C255 O256 1.211 . S
O256 C255 1.211 . S
C257 O249 1.284 . S
C257 O258 1.273 1_565 S
O258 C257 1.273 1_545 S
O259 Zn250 1.977 1_545 S
O259 C252 1.267 . S
C260 O261 1.160 . S
C260 O267 1.185 . S
O261 C260 1.160 . S
O262 Zn263 1.899 . S
O262 C270 1.284 . S
Zn263 O262 1.899 . S
Zn263 O264 2.032 1_554 S
Zn263 O267 2.086 . S
Zn263 O272 1.977 1_554 S
O264 Zn263 2.032 1_556 S
O264 C268 1.278 . S
C265 O266 1.203 1_556 S
C265 O272 1.267 . S
O266 C265 1.203 1_554 S
O267 C260 1.185 . S
O267 Zn263 2.086 . S
C268 O264 1.278 . S
C268 O269 1.211 . S
O269 C268 1.211 . S
C270 O262 1.284 . S
C270 O271 1.273 . S
O271 C270 1.273 . S
O272 Zn263 1.977 1_556 S
O272 C265 1.267 . S
C273 O274 1.160 . S
C273 O280 1.185 . S
O274 C273 1.160 . S
O275 Zn276 1.899 . S
O275 C283 1.284 1_655 S
Zn276 O275 1.899 . S
Zn276 O277 2.032 1_655 S
Zn276 O280 2.086 . S
Zn276 O285 1.977 . S
O277 Zn276 2.032 1_455 S
O277 C281 1.278 . S
C278 O279 1.203 . S
C278 O285 1.267 . S
O279 C278 1.203 . S
O280 C273 1.185 . S
O280 Zn276 2.086 . S
C281 O277 1.278 . S
C281 O282 1.211 . S
O282 C281 1.211 . S
C283 O275 1.284 1_455 S
C283 O284 1.273 . S
O284 C283 1.273 . S
O285 Zn276 1.977 . S
O285 C278 1.267 . S
C286 O287 1.160 . S
C286 O293 1.185 . S
O287 C286 1.160 . S
O288 Zn289 1.899 . S
O288 C296 1.284 . S
Zn289 O288 1.899 . S
Zn289 O290 2.032 . S
Zn289 O293 2.086 . S
Zn289 O298 1.977 . S
O290 Zn289 2.032 . S
O290 C294 1.278 . S
C291 O292 1.203 . S
C291 O298 1.267 . S
O292 C291 1.203 . S
O293 C286 1.185 . S
O293 Zn289 2.086 . S
C294 O290 1.278 . S
C294 O295 1.211 . S
O295 C294 1.211 . S
C296 O288 1.284 . S
C296 O297 1.273 . S
O297 C296 1.273 . S
O298 Zn289 1.977 . S
O298 C291 1.267 . S
C299 O300 1.160 . S
C299 O306 1.185 . S
O300 C299 1.160 . S
O301 Zn302 1.899 . S
O301 C309 1.284 . S
Zn302 O301 1.899 . S
Zn302 O303 2.032 . S
Zn302 O306 2.086 . S
Zn302 O311 1.977 . S
O303 Zn302 2.032 . S
O303 C307 1.278 . S
C304 O305 1.203 . S
C304 O311 1.267 . S
O305 C304 1.203 . S
O306 C299 1.185 . S
O306 Zn302 2.086 . S
C307 O303 1.278 . S
C307 O308 1.211 . S
O308 C307 1.211 . S
C309 O301 1.284 . S
C309 O310 1.273 . S
O310 C309 1.273 . S
O311 Zn302 1.977 . S
O311 C304 1.267 . S
Pr312 C314 2.880 1_455 S
Pr312 O332 2.562 1_455 S
Pr312 O333 2.490 1_455 S
Pr312 O334 2.695 . S
Pr312 O335 2.512 . S
Pr312 O337 2.437 . S
Pr312 O340 2.436 1_556 S
Pr312 O342 2.438 . S
Pr313 C323 2.880 . S
Pr313 O334 2.436 1_554 S
Pr313 O336 2.438 . S
Pr313 O338 2.562 . S
Pr313 O339 2.490 . S
Pr313 O340 2.695 . S
Pr313 O341 2.512 . S
Pr313 O343 2.437 . S
C314 Pr312 2.880 1_655 S
C314 C315 1.491 . S
C314 O332 1.254 . S
C314 O333 1.225 . S
C315 C314 1.491 . S
C315 C316 1.392 . S
C315 C320 1.356 . S
C316 C315 1.392 . S
C316 C317 1.368 . S
C316 H344 0.929 . S
C317 C316 1.368 . S
C317 C318 1.386 . S
C317 H345 0.929 . S
C318 C317 1.386 . S
C318 C319 1.373 . S
C319 C318 1.373 . S
C319 C320 1.409 . S
C319 H346 0.931 . S
C320 C315 1.356 . S
C320 C319 1.409 . S
C320 H347 0.930 . S
C321 O334 1.270 . S
C321 O335 1.248 . S
C322 O336 1.267 . S
C322 O337 1.278 1_554 S
C323 Pr313 2.880 . S
C323 C324 1.491 . S
C323 O338 1.254 . S
C323 O339 1.225 . S
C324 C323 1.491 . S
C324 C325 1.392 . S
C324 C329 1.356 . S
C325 C324 1.392 . S
C325 C326 1.368 . S
C325 H348 0.929 . S
C326 C325 1.368 . S
C326 C327 1.386 . S
C326 H349 0.929 . S
C327 C326 1.386 . S
C327 C328 1.373 . S
C328 C327 1.373 . S
C328 C329 1.409 . S
C328 H350 0.931 . S
C329 C324 1.356 . S
C329 C328 1.409 . S
C329 H351 0.930 . S
C330 O340 1.270 . S
C330 O341 1.248 . S
C331 O342 1.267 1_554 S
C331 O343 1.278 . S
O332 Pr312 2.562 1_655 S
O332 C314 1.254 . S
O333 Pr312 2.490 1_655 S
O333 C314 1.225 . S
O334 Pr312 2.695 . S
O334 Pr313 2.436 1_556 S
O334 C321 1.270 . S
O335 Pr312 2.512 . S
O335 C321 1.248 . S
O336 Pr313 2.438 . S
O336 C322 1.267 . S
O337 Pr312 2.437 . S
O337 C322 1.278 1_556 S
O338 Pr313 2.562 . S
O338 C323 1.254 . S
O339 Pr313 2.490 . S
O339 C323 1.225 . S
O340 Pr312 2.436 1_554 S
O340 Pr313 2.695 . S
O340 C330 1.270 . S
O341 Pr313 2.512 . S
O341 C330 1.248 . S
O342 Pr312 2.438 . S
O342 C331 1.267 1_556 S
O343 Pr313 2.437 . S
O343 C331 1.278 . S
H344 C316 0.929 . S
H345 C317 0.929 . S
H346 C319 0.931 . S
H347 C320 0.930 . S
H348 C325 0.929 . S
H349 C326 0.929 . S
H350 C328 0.931 . S
H351 C329 0.930 . S
Pr352 C354 2.880 1_565 S
Pr352 O372 2.562 1_565 S
Pr352 O373 2.490 1_565 S
Pr352 O374 2.695 . S
Pr352 O375 2.512 . S
Pr352 O377 2.437 . S
Pr352 O380 2.436 . S
Pr352 O382 2.438 . S
Pr353 C363 2.880 . S
Pr353 O374 2.436 . S
Pr353 O376 2.438 . S
Pr353 O378 2.562 . S
Pr353 O379 2.490 . S
Pr353 O380 2.695 . S
Pr353 O381 2.512 . S
Pr353 O383 2.437 . S
C354 Pr352 2.880 1_545 S
C354 C355 1.491 . S
C354 O372 1.254 . S
C354 O373 1.225 . S
C355 C354 1.491 . S
C355 C356 1.392 . S
C355 C360 1.356 . S
C356 C355 1.392 . S
C356 C357 1.368 . S
C356 H384 0.929 . S
C357 C356 1.368 . S
C357 C358 1.386 . S
C357 H385 0.929 . S
C358 C357 1.386 . S
C358 C359 1.373 . S
C359 C358 1.373 . S
C359 C360 1.409 . S
C359 H386 0.931 . S
C360 C355 1.356 . S
C360 C359 1.409 . S
C360 H387 0.930 . S
C361 O374 1.270 . S
C361 O375 1.248 . S
C362 O376 1.267 . S
C362 O377 1.278 . S
C363 Pr353 2.880 . S
C363 C364 1.491 . S
C363 O378 1.254 . S
C363 O379 1.225 . S
C364 C363 1.491 . S
C364 C365 1.392 . S
C364 C369 1.356 . S
C365 C364 1.392 . S
C365 C366 1.368 . S
C365 H388 0.929 . S
C366 C365 1.368 . S
C366 C367 1.386 . S
C366 H389 0.929 . S
C367 C366 1.386 . S
C367 C368 1.373 . S
C368 C367 1.373 . S
C368 C369 1.409 . S
C368 H390 0.931 . S
C369 C364 1.356 . S
C369 C368 1.409 . S
C369 H391 0.930 . S
C370 O380 1.270 . S
C370 O381 1.248 . S
C371 O382 1.267 . S
C371 O383 1.278 . S
O372 Pr352 2.562 1_545 S
O372 C354 1.254 . S
O373 Pr352 2.490 1_545 S
O373 C354 1.225 . S
O374 Pr352 2.695 . S
O374 Pr353 2.436 . S
O374 C361 1.270 . S
O375 Pr352 2.512 . S
O375 C361 1.248 . S
O376 Pr353 2.438 . S
O376 C362 1.267 . S
O377 Pr352 2.437 . S
O377 C362 1.278 . S
O378 Pr353 2.562 . S
O378 C363 1.254 . S
O379 Pr353 2.490 . S
O379 C363 1.225 . S
O380 Pr352 2.436 . S
O380 Pr353 2.695 . S
O380 C370 1.270 . S
O381 Pr353 2.512 . S
O381 C370 1.248 . S
O382 Pr352 2.438 . S
O382 C371 1.267 . S
O383 Pr353 2.437 . S
O383 C371 1.278 . S
H384 C356 0.929 . S
H385 C357 0.929 . S
H386 C359 0.931 . S
H387 C360 0.930 . S
H388 C365 0.929 . S
H389 C366 0.929 . S
H390 C368 0.931 . S
H391 C369 0.930 . S
Pr392 C394 2.880 . S
Pr392 O412 2.562 . S
Pr392 O413 2.490 . S
Pr392 O414 2.695 . S
Pr392 O415 2.512 . S
Pr392 O417 2.437 . S
Pr392 O420 2.436 . S
Pr392 O422 2.438 . S
Pr393 C403 2.880 . S
Pr393 O414 2.436 . S
Pr393 O416 2.438 . S
Pr393 O418 2.562 . S
Pr393 O419 2.490 . S
Pr393 O420 2.695 . S
Pr393 O421 2.512 . S
Pr393 O423 2.437 . S
C394 Pr392 2.880 . S
C394 C395 1.491 . S
C394 O412 1.254 . S
C394 O413 1.225 . S
C395 C394 1.491 . S
C395 C396 1.392 . S
C395 C400 1.356 . S
C396 C395 1.392 . S
C396 C397 1.368 . S
C396 H424 0.929 . S
C397 C396 1.368 . S
C397 C398 1.386 . S
C397 H425 0.929 . S
C398 C397 1.386 . S
C398 C399 1.373 . S
C399 C398 1.373 . S
C399 C400 1.409 . S
C399 H426 0.931 1_545 S
C400 C395 1.356 . S
C400 C399 1.409 . S
C400 H427 0.930 . S
C401 O414 1.270 . S
C401 O415 1.248 . S
C402 O416 1.267 . S
C402 O417 1.278 . S
C403 Pr393 2.880 . S
C403 C404 1.491 . S
C403 O418 1.254 . S
C403 O419 1.225 . S
C404 C403 1.491 . S
C404 C405 1.392 . S
C404 C409 1.356 . S
C405 C404 1.392 . S
C405 C406 1.368 . S
C405 H428 0.929 . S
C406 C405 1.368 . S
C406 C407 1.386 . S
C406 H429 0.929 . S
C407 C406 1.386 . S
C407 C408 1.373 . S
C408 C407 1.373 . S
C408 C409 1.409 . S
C408 H430 0.931 . S
C409 C404 1.356 . S
C409 C408 1.409 . S
C409 H431 0.930 . S
C410 O420 1.270 . S
C410 O421 1.248 . S
C411 O422 1.267 . S
C411 O423 1.278 . S
O412 Pr392 2.562 . S
O412 C394 1.254 . S
O413 Pr392 2.490 . S
O413 C394 1.225 . S
O414 Pr392 2.695 . S
O414 Pr393 2.436 . S
O414 C401 1.270 . S
O415 Pr392 2.512 . S
O415 C401 1.248 . S
O416 Pr393 2.438 . S
O416 C402 1.267 . S
O417 Pr392 2.437 . S
O417 C402 1.278 . S
O418 Pr393 2.562 . S
O418 C403 1.254 . S
O419 Pr393 2.490 . S
O419 C403 1.225 . S
O420 Pr392 2.436 . S
O420 Pr393 2.695 . S
O420 C410 1.270 . S
O421 Pr393 2.512 . S
O421 C410 1.248 . S
O422 Pr392 2.438 . S
O422 C411 1.267 . S
O423 Pr393 2.437 . S
O423 C411 1.278 . S
H424 C396 0.929 . S
H425 C397 0.929 . S
H426 C399 0.931 1_565 S
H427 C400 0.930 . S
H428 C405 0.929 . S
H429 C406 0.929 . S
H430 C408 0.931 . S
H431 C409 0.930 . S
Pr432 C434 2.880 . S
Pr432 O452 2.562 . S
Pr432 O453 2.490 . S
Pr432 O454 2.695 . S
Pr432 O455 2.512 . S
Pr432 O457 2.437 . S
Pr432 O460 2.436 . S
Pr432 O462 2.438 . S
Pr433 C443 2.880 . S
Pr433 O454 2.436 . S
Pr433 O456 2.438 . S
Pr433 O458 2.562 . S
Pr433 O459 2.490 . S
Pr433 O460 2.695 . S
Pr433 O461 2.512 . S
Pr433 O463 2.437 . S
C434 Pr432 2.880 . S
C434 C435 1.491 . S
C434 O452 1.254 . S
C434 O453 1.225 . S
C435 C434 1.491 . S
C435 C436 1.392 . S
C435 C440 1.356 . S
C436 C435 1.392 . S
C436 C437 1.368 . S
C436 H464 0.929 . S
C437 C436 1.368 . S
C437 C438 1.386 . S
C437 H465 0.929 . S
C438 C437 1.386 . S
C438 C439 1.373 . S
C439 C438 1.373 . S
C439 C440 1.409 . S
C439 H466 0.931 . S
C440 C435 1.356 . S
C440 C439 1.409 . S
C440 H467 0.930 . S
C441 O454 1.270 . S
C441 O455 1.248 . S
C442 O456 1.267 . S
C442 O457 1.278 . S
C443 Pr433 2.880 . S
C443 C444 1.491 . S
C443 O458 1.254 . S
C443 O459 1.225 . S
C444 C443 1.491 . S
C444 C445 1.392 . S
C444 C449 1.356 . S
C445 C444 1.392 . S
C445 C446 1.368 . S
C445 H468 0.929 . S
C446 C445 1.368 . S
C446 C447 1.386 . S
C446 H469 0.929 . S
C447 C446 1.386 . S
C447 C448 1.373 . S
C448 C447 1.373 . S
C448 C449 1.409 . S
C448 H470 0.931 . S
C449 C444 1.356 . S
C449 C448 1.409 . S
C449 H471 0.930 . S
C450 O460 1.270 . S
C450 O461 1.248 . S
C451 O462 1.267 . S
C451 O463 1.278 . S
O452 Pr432 2.562 . S
O452 C434 1.254 . S
O453 Pr432 2.490 . S
O453 C434 1.225 . S
O454 Pr432 2.695 . S
O454 Pr433 2.436 . S
O454 C441 1.270 . S
O455 Pr432 2.512 . S
O455 C441 1.248 . S
O456 Pr433 2.438 . S
O456 C442 1.267 . S
O457 Pr432 2.437 . S
O457 C442 1.278 . S
O458 Pr433 2.562 . S
O458 C443 1.254 . S
O459 Pr433 2.490 . S
O459 C443 1.225 . S
O460 Pr432 2.436 . S
O460 Pr433 2.695 . S
O460 C450 1.270 . S
O461 Pr433 2.512 . S
O461 C450 1.248 . S
O462 Pr432 2.438 . S
O462 C451 1.267 . S
O463 Pr433 2.437 . S
O463 C451 1.278 . S
H464 C436 0.929 . S
H465 C437 0.929 . S
H466 C439 0.931 . S
H467 C440 0.930 . S
H468 C445 0.929 . S
H469 C446 0.929 . S
H470 C448 0.931 . S
H471 C449 0.930 . S
Pr472 C474 2.880 1_455 S
Pr472 O492 2.562 1_455 S
Pr472 O493 2.490 . S
Pr472 O494 2.695 . S
Pr472 O495 2.512 . S
Pr472 O497 2.437 . S
Pr472 O500 2.436 . S
Pr472 O502 2.438 . S
Pr473 C483 2.880 . S
Pr473 O494 2.436 . S
Pr473 O496 2.438 . S
Pr473 O498 2.562 . S
Pr473 O499 2.490 . S
Pr473 O500 2.695 . S
Pr473 O501 2.512 1_455 S
Pr473 O503 2.437 . S
C474 Pr472 2.880 1_655 S
C474 C475 1.491 . S
C474 O492 1.254 . S
C474 O493 1.225 1_655 S
C475 C474 1.491 . S
C475 C476 1.392 . S
C475 C480 1.356 . S
C476 C475 1.392 . S
C476 C477 1.368 . S
C476 H504 0.929 1_655 S
C477 C476 1.368 . S
C477 C478 1.386 . S
C477 H505 0.929 . S
C478 C477 1.386 . S
C478 C479 1.373 . S
C479 C478 1.373 . S
C479 C480 1.409 . S
C479 H506 0.931 . S
C480 C475 1.356 . S
C480 C479 1.409 . S
C480 H507 0.930 . S
C481 O494 1.270 . S
C481 O495 1.248 . S
C482 O496 1.267 . S
C482 O497 1.278 . S
C483 Pr473 2.880 . S
C483 C484 1.491 . S
C483 O498 1.254 . S
C483 O499 1.225 . S
C484 C483 1.491 . S
C484 C485 1.392 . S
C484 C489 1.356 . S
C485 C484 1.392 . S
C485 C486 1.368 . S
C485 H508 0.929 . S
C486 C485 1.368 . S
C486 C487 1.386 . S
C486 H509 0.929 . S
C487 C486 1.386 . S
C487 C488 1.373 . S
C488 C487 1.373 . S
C488 C489 1.409 . S
C488 H510 0.931 . S
C489 C484 1.356 . S
C489 C488 1.409 . S
C489 H511 0.930 . S
C490 O500 1.270 1_655 S
C490 O501 1.248 . S
C491 O502 1.267 . S
C491 O503 1.278 . S
O492 Pr472 2.562 1_655 S
O492 C474 1.254 . S
O493 Pr472 2.490 . S
O493 C474 1.225 1_455 S
O494 Pr472 2.695 . S
O494 Pr473 2.436 . S
O494 C481 1.270 . S
O495 Pr472 2.512 . S
O495 C481 1.248 . S
O496 Pr473 2.438 . S
O496 C482 1.267 . S
O497 Pr472 2.437 . S
O497 C482 1.278 . S
O498 Pr473 2.562 . S
O498 C483 1.254 . S
O499 Pr473 2.490 . S
O499 C483 1.225 . S
O500 Pr472 2.436 . S
O500 Pr473 2.695 . S
O500 C490 1.270 1_455 S
O501 Pr473 2.512 1_655 S
O501 C490 1.248 . S
O502 Pr472 2.438 . S
O502 C491 1.267 . S
O503 Pr473 2.437 . S
O503 C491 1.278 . S
H504 C476 0.929 1_455 S
H505 C477 0.929 . S
H506 C479 0.931 . S
H507 C480 0.930 . S
H508 C485 0.929 . S
H509 C486 0.929 . S
H510 C488 0.931 . S
H511 C489 0.930 . S
Pr512 C514 2.880 . S
Pr512 O532 2.562 . S
Pr512 O533 2.490 . S
Pr512 O534 2.695 . S
Pr512 O535 2.512 . S
Pr512 O537 2.437 . S
Pr512 O540 2.436 . S
Pr512 O542 2.438 . S
Pr513 C523 2.880 1_565 S
Pr513 O534 2.436 . S
Pr513 O536 2.438 . S
Pr513 O538 2.562 1_565 S
Pr513 O539 2.490 1_565 S
Pr513 O540 2.695 . S
Pr513 O541 2.512 . S
Pr513 O543 2.437 . S
C514 Pr512 2.880 . S
C514 C515 1.491 . S
C514 O532 1.254 . S
C514 O533 1.225 . S
C515 C514 1.491 . S
C515 C516 1.392 . S
C515 C520 1.356 . S
C516 C515 1.392 . S
C516 C517 1.368 . S
C516 H544 0.929 . S
C517 C516 1.368 . S
C517 C518 1.386 . S
C517 H545 0.929 . S
C518 C517 1.386 . S
C518 C519 1.373 . S
C519 C518 1.373 . S
C519 C520 1.409 . S
C519 H546 0.931 . S
C520 C515 1.356 . S
C520 C519 1.409 . S
C520 H547 0.930 . S
C521 O534 1.270 . S
C521 O535 1.248 . S
C522 O536 1.267 . S
C522 O537 1.278 . S
C523 Pr513 2.880 1_545 S
C523 C524 1.491 . S
C523 O538 1.254 . S
C523 O539 1.225 . S
C524 C523 1.491 . S
C524 C525 1.392 . S
C524 C529 1.356 . S
C525 C524 1.392 . S
C525 C526 1.368 . S
C525 H548 0.929 . S
C526 C525 1.368 . S
C526 C527 1.386 . S
C526 H549 0.929 . S
C527 C526 1.386 . S
C527 C528 1.373 . S
C528 C527 1.373 . S
C528 C529 1.409 . S
C528 H550 0.931 . S
C529 C524 1.356 . S
C529 C528 1.409 . S
C529 H551 0.930 . S
C530 O540 1.270 . S
C530 O541 1.248 . S
C531 O542 1.267 . S
C531 O543 1.278 . S
O532 Pr512 2.562 . S
O532 C514 1.254 . S
O533 Pr512 2.490 . S
O533 C514 1.225 . S
O534 Pr512 2.695 . S
O534 Pr513 2.436 . S
O534 C521 1.270 . S
O535 Pr512 2.512 . S
O535 C521 1.248 . S
O536 Pr513 2.438 . S
O536 C522 1.267 . S
O537 Pr512 2.437 . S
O537 C522 1.278 . S
O538 Pr513 2.562 1_545 S
O538 C523 1.254 . S
O539 Pr513 2.490 1_545 S
O539 C523 1.225 . S
O540 Pr512 2.436 . S
O540 Pr513 2.695 . S
O540 C530 1.270 . S
O541 Pr513 2.512 . S
O541 C530 1.248 . S
O542 Pr512 2.438 . S
O542 C531 1.267 . S
O543 Pr513 2.437 . S
O543 C531 1.278 . S
H544 C516 0.929 . S
H545 C517 0.929 . S
H546 C519 0.931 . S
H547 C520 0.930 . S
H548 C525 0.929 . S
H549 C526 0.929 . S
H550 C528 0.931 . S
H551 C529 0.930 . S
Pr552 C554 2.880 . S
Pr552 O572 2.562 . S
Pr552 O573 2.490 . S
Pr552 O574 2.695 . S
Pr552 O575 2.512 . S
Pr552 O577 2.437 . S
Pr552 O580 2.436 . S
Pr552 O582 2.438 . S
Pr553 C563 2.880 . S
Pr553 O574 2.436 1_556 S
Pr553 O576 2.438 . S
Pr553 O578 2.562 . S
Pr553 O579 2.490 . S
Pr553 O580 2.695 1_556 S
Pr553 O581 2.512 . S
Pr553 O583 2.437 . S
C554 Pr552 2.880 . S
C554 C555 1.491 . S
C554 O572 1.254 . S
C554 O573 1.225 . S
C555 C554 1.491 . S
C555 C556 1.392 . S
C555 C560 1.356 . S
C556 C555 1.392 . S
C556 C557 1.368 . S
C556 H584 0.929 . S
C557 C556 1.368 . S
C557 C558 1.386 . S
C557 H585 0.929 . S
C558 C557 1.386 . S
C558 C559 1.373 . S
C559 C558 1.373 . S
C559 C560 1.409 . S
C559 H586 0.931 . S
C560 C555 1.356 . S
C560 C559 1.409 . S
C560 H587 0.930 . S
C561 O574 1.270 . S
C561 O575 1.248 . S
C562 O576 1.267 1_554 S
C562 O577 1.278 . S
C563 Pr553 2.880 . S
C563 C564 1.491 . S
C563 O578 1.254 . S
C563 O579 1.225 . S
C564 C563 1.491 . S
C564 C565 1.392 . S
C564 C569 1.356 . S
C565 C564 1.392 . S
C565 C566 1.368 . S
C565 H588 0.929 . S
C566 C565 1.368 . S
C566 C567 1.386 . S
C566 H589 0.929 . S
C567 C566 1.386 . S
C567 C568 1.373 . S
C568 C567 1.373 . S
C568 C569 1.409 . S
C568 H590 0.931 . S
C569 C564 1.356 . S
C569 C568 1.409 . S
C569 H591 0.930 . S
C570 O580 1.270 . S
C570 O581 1.248 1_554 S
C571 O582 1.267 . S
C571 O583 1.278 1_554 S
O572 Pr552 2.562 . S
O572 C554 1.254 . S
O573 Pr552 2.490 . S
O573 C554 1.225 . S
O574 Pr552 2.695 . S
O574 Pr553 2.436 1_554 S
O574 C561 1.270 . S
O575 Pr552 2.512 . S
O575 C561 1.248 . S
O576 Pr553 2.438 . S
O576 C562 1.267 1_556 S
O577 Pr552 2.437 . S
O577 C562 1.278 . S
O578 Pr553 2.562 . S
O578 C563 1.254 . S
O579 Pr553 2.490 . S
O579 C563 1.225 . S
O580 Pr552 2.436 . S
O580 Pr553 2.695 1_554 S
O580 C570 1.270 . S
O581 Pr553 2.512 . S
O581 C570 1.248 1_556 S
O582 Pr552 2.438 . S
O582 C571 1.267 . S
O583 Pr553 2.437 . S
O583 C571 1.278 1_556 S
H584 C556 0.929 . S
H585 C557 0.929 . S
H586 C559 0.931 . S
H587 C560 0.930 . S
H588 C565 0.929 . S
H589 C566 0.929 . S
H590 C568 0.931 . S
H591 C569 0.930 . S
Pr592 C594 2.880 . S
Pr592 O612 2.562 . S
Pr592 O613 2.490 . S
Pr592 O614 2.695 . S
Pr592 O615 2.512 . S
Pr592 O617 2.437 . S
Pr592 O620 2.436 . S
Pr592 O622 2.438 . S
Pr593 C603 2.880 . S
Pr593 O614 2.436 . S
Pr593 O616 2.438 . S
Pr593 O618 2.562 . S
Pr593 O619 2.490 . S
Pr593 O620 2.695 . S
Pr593 O621 2.512 . S
Pr593 O623 2.437 . S
C594 Pr592 2.880 . S
C594 C595 1.491 . S
C594 O612 1.254 . S
C594 O613 1.225 . S
C595 C594 1.491 . S
C595 C596 1.392 . S
C595 C600 1.356 . S
C596 C595 1.392 . S
C596 C597 1.368 . S
C596 H624 0.929 . S
C597 C596 1.368 . S
C597 C598 1.386 . S
C597 H625 0.929 . S
C598 C597 1.386 . S
C598 C599 1.373 . S
C599 C598 1.373 . S
C599 C600 1.409 . S
C599 H626 0.931 . S
C600 C595 1.356 . S
C600 C599 1.409 . S
C600 H627 0.930 . S
C601 O614 1.270 . S
C601 O615 1.248 . S
C602 O616 1.267 . S
C602 O617 1.278 . S
C603 Pr593 2.880 . S
C603 C604 1.491 . S
C603 O618 1.254 . S
C603 O619 1.225 . S
C604 C603 1.491 . S
C604 C605 1.392 . S
C604 C609 1.356 . S
C605 C604 1.392 . S
C605 C606 1.368 . S
C605 H628 0.929 . S
C606 C605 1.368 . S
C606 C607 1.386 . S
C606 H629 0.929 . S
C607 C606 1.386 . S
C607 C608 1.373 . S
C608 C607 1.373 . S
C608 C609 1.409 . S
C608 H630 0.931 . S
C609 C604 1.356 . S
C609 C608 1.409 . S
C609 H631 0.930 . S
C610 O620 1.270 . S
C610 O621 1.248 . S
C611 O622 1.267 . S
C611 O623 1.278 . S
O612 Pr592 2.562 . S
O612 C594 1.254 . S
O613 Pr592 2.490 . S
O613 C594 1.225 . S
O614 Pr592 2.695 . S
O614 Pr593 2.436 . S
O614 C601 1.270 . S
O615 Pr592 2.512 . S
O615 C601 1.248 . S
O616 Pr593 2.438 . S
O616 C602 1.267 . S
O617 Pr592 2.437 . S
O617 C602 1.278 . S
O618 Pr593 2.562 . S
O618 C603 1.254 . S
O619 Pr593 2.490 . S
O619 C603 1.225 . S
O620 Pr592 2.436 . S
O620 Pr593 2.695 . S
O620 C610 1.270 . S
O621 Pr593 2.512 . S
O621 C610 1.248 . S
O622 Pr592 2.438 . S
O622 C611 1.267 . S
O623 Pr593 2.437 . S
O623 C611 1.278 . S
H624 C596 0.929 . S
H625 C597 0.929 . S
H626 C599 0.931 . S
H627 C600 0.930 . S
H628 C605 0.929 . S
H629 C606 0.929 . S
H630 C608 0.931 . S
H631 C609 0.930 . S
Pr632 C634 2.880 . S
Pr632 O652 2.562 . S
Pr632 O653 2.490 . S
Pr632 O654 2.695 1_556 S
Pr632 O655 2.512 . S
Pr632 O657 2.437 . S
Pr632 O660 2.436 1_556 S
Pr632 O662 2.438 1_556 S
Pr633 C643 2.880 . S
Pr633 O654 2.436 . S
Pr633 O656 2.438 . S
Pr633 O658 2.562 . S
Pr633 O659 2.490 . S
Pr633 O660 2.695 . S
Pr633 O661 2.512 . S
Pr633 O663 2.437 . S
C634 Pr632 2.880 . S
C634 C635 1.491 . S
C634 O652 1.254 . S
C634 O653 1.225 . S
C635 C634 1.491 . S
C635 C636 1.392 . S
C635 C640 1.356 . S
C636 C635 1.392 . S
C636 C637 1.368 . S
C636 H664 0.929 . S
C637 C636 1.368 . S
C637 C638 1.386 . S
C637 H665 0.929 . S
C638 C637 1.386 . S
C638 C639 1.373 . S
C639 C638 1.373 . S
C639 C640 1.409 . S
C639 H666 0.931 . S
C640 C635 1.356 . S
C640 C639 1.409 . S
C640 H667 0.930 . S
C641 O654 1.270 . S
C641 O655 1.248 1_554 S
C642 O656 1.267 1_556 S
C642 O657 1.278 . S
C643 Pr633 2.880 . S
C643 C644 1.491 . S
C643 O658 1.254 . S
C643 O659 1.225 . S
C644 C643 1.491 . S
C644 C645 1.392 . S
C644 C649 1.356 . S
C645 C644 1.392 . S
C645 C646 1.368 . S
C645 H668 0.929 . S
C646 C645 1.368 . S
C646 C647 1.386 . S
C646 H669 0.929 . S
C647 C646 1.386 . S
C647 C648 1.373 . S
C648 C647 1.373 . S
C648 C649 1.409 . S
C648 H670 0.931 . S
C649 C644 1.356 . S
C649 C648 1.409 . S
C649 H671 0.930 . S
C650 O660 1.270 . S
C650 O661 1.248 . S
C651 O662 1.267 . S
C651 O663 1.278 . S
O652 Pr632 2.562 . S
O652 C634 1.254 . S
O653 Pr632 2.490 . S
O653 C634 1.225 . S
O654 Pr632 2.695 1_554 S
O654 Pr633 2.436 . S
O654 C641 1.270 . S
O655 Pr632 2.512 . S
O655 C641 1.248 1_556 S
O656 Pr633 2.438 . S
O656 C642 1.267 1_554 S
O657 Pr632 2.437 . S
O657 C642 1.278 . S
O658 Pr633 2.562 . S
O658 C643 1.254 . S
O659 Pr633 2.490 . S
O659 C643 1.225 . S
O660 Pr632 2.436 1_554 S
O660 Pr633 2.695 . S
O660 C650 1.270 . S
O661 Pr633 2.512 . S
O661 C650 1.248 . S
O662 Pr632 2.438 1_554 S
O662 C651 1.267 . S
O663 Pr633 2.437 . S
O663 C651 1.278 . S
H664 C636 0.929 . S
H665 C637 0.929 . S
H666 C639 0.931 . S
H667 C640 0.930 . S
H668 C645 0.929 . S
H669 C646 0.929 . S
H670 C648 0.931 . S
H671 C649 0.930 . S
Pr672 C674 2.880 . S
Pr672 O692 2.562 . S
Pr672 O693 2.490 . S
Pr672 O694 2.695 . S
Pr672 O695 2.512 . S
Pr672 O697 2.437 . S
Pr672 O700 2.436 . S
Pr672 O702 2.438 . S
Pr673 C683 2.880 . S
Pr673 O694 2.436 . S
Pr673 O696 2.438 . S
Pr673 O698 2.562 . S
Pr673 O699 2.490 . S
Pr673 O700 2.695 . S
Pr673 O701 2.512 . S
Pr673 O703 2.437 . S
C674 Pr672 2.880 . S
C674 C675 1.491 . S
C674 O692 1.254 . S
C674 O693 1.225 . S
C675 C674 1.491 . S
C675 C676 1.392 . S
C675 C680 1.356 . S
C676 C675 1.392 . S
C676 C677 1.368 . S
C676 H704 0.929 . S
C677 C676 1.368 . S
C677 C678 1.386 . S
C677 H705 0.929 . S
C678 C677 1.386 . S
C678 C679 1.373 . S
C679 C678 1.373 . S
C679 C680 1.409 . S
C679 H706 0.931 . S
C680 C675 1.356 . S
C680 C679 1.409 . S
C680 H707 0.930 . S
C681 O694 1.270 . S
C681 O695 1.248 . S
C682 O696 1.267 . S
C682 O697 1.278 . S
C683 Pr673 2.880 . S
C683 C684 1.491 . S
C683 O698 1.254 . S
C683 O699 1.225 . S
C684 C683 1.491 . S
C684 C685 1.392 . S
C684 C689 1.356 . S
C685 C684 1.392 . S
C685 C686 1.368 . S
C685 H708 0.929 . S
C686 C685 1.368 . S
C686 C687 1.386 . S
C686 H709 0.929 . S
C687 C686 1.386 . S
C687 C688 1.373 . S
C688 C687 1.373 . S
C688 C689 1.409 . S
C688 H710 0.931 . S
C689 C684 1.356 . S
C689 C688 1.409 . S
C689 H711 0.930 . S
C690 O700 1.270 . S
C690 O701 1.248 . S
C691 O702 1.267 . S
C691 O703 1.278 . S
O692 Pr672 2.562 . S
O692 C674 1.254 . S
O693 Pr672 2.490 . S
O693 C674 1.225 . S
O694 Pr672 2.695 . S
O694 Pr673 2.436 . S
O694 C681 1.270 . S
O695 Pr672 2.512 . S
O695 C681 1.248 . S
O696 Pr673 2.438 . S
O696 C682 1.267 . S
O697 Pr672 2.437 . S
O697 C682 1.278 . S
O698 Pr673 2.562 . S
O698 C683 1.254 . S
O699 Pr673 2.490 . S
O699 C683 1.225 . S
O700 Pr672 2.436 . S
O700 Pr673 2.695 . S
O700 C690 1.270 . S
O701 Pr673 2.512 . S
O701 C690 1.248 . S
O702 Pr672 2.438 . S
O702 C691 1.267 . S
O703 Pr673 2.437 . S
O703 C691 1.278 . S
H704 C676 0.929 . S
H705 C677 0.929 . S
H706 C679 0.931 . S
H707 C680 0.930 . S
H708 C685 0.929 . S
H709 C686 0.929 . S
H710 C688 0.931 . S
H711 C689 0.930 . S
Pr712 C714 2.880 . S
Pr712 O732 2.562 . S
Pr712 O733 2.490 . S
Pr712 O734 2.695 . S
Pr712 O735 2.512 . S
Pr712 O737 2.437 . S
Pr712 O740 2.436 . S
Pr712 O742 2.438 . S
Pr713 C723 2.880 . S
Pr713 O734 2.436 . S
Pr713 O736 2.438 1_455 S
Pr713 O738 2.562 . S
Pr713 O739 2.490 . S
Pr713 O740 2.695 . S
Pr713 O741 2.512 . S
Pr713 O743 2.437 . S
C714 Pr712 2.880 . S
C714 C715 1.491 . S
C714 O732 1.254 . S
C714 O733 1.225 . S
C715 C714 1.491 . S
C715 C716 1.392 . S
C715 C720 1.356 . S
C716 C715 1.392 . S
C716 C717 1.368 . S
C716 H744 0.929 . S
C717 C716 1.368 . S
C717 C718 1.386 . S
C717 H745 0.929 . S
C718 C717 1.386 . S
C718 C719 1.373 . S
C719 C718 1.373 . S
C719 C720 1.409 . S
C719 H746 0.931 1_455 S
C720 C715 1.356 . S
C720 C719 1.409 . S
C720 H747 0.930 . S
C721 O734 1.270 . S
C721 O735 1.248 . S
C722 O736 1.267 . S
C722 O737 1.278 1_655 S
C723 Pr713 2.880 . S
C723 C724 1.491 . S
C723 O738 1.254 . S
C723 O739 1.225 . S
C724 C723 1.491 . S
C724 C725 1.392 . S
C724 C729 1.356 . S
C725 C724 1.392 . S
C725 C726 1.368 . S
C725 H748 0.929 . S
C726 C725 1.368 . S
C726 C727 1.386 . S
C726 H749 0.929 . S
C727 C726 1.386 . S
C727 C728 1.373 . S
C728 C727 1.373 . S
C728 C729 1.409 . S
C728 H750 0.931 . S
C729 C724 1.356 . S
C729 C728 1.409 . S
C729 H751 0.930 . S
C730 O740 1.270 . S
C730 O741 1.248 . S
C731 O742 1.267 . S
C731 O743 1.278 . S
O732 Pr712 2.562 . S
O732 C714 1.254 . S
O733 Pr712 2.490 . S
O733 C714 1.225 . S
O734 Pr712 2.695 . S
O734 Pr713 2.436 . S
O734 C721 1.270 . S
O735 Pr712 2.512 . S
O735 C721 1.248 . S
O736 Pr713 2.438 1_655 S
O736 C722 1.267 . S
O737 Pr712 2.437 . S
O737 C722 1.278 1_455 S
O738 Pr713 2.562 . S
O738 C723 1.254 . S
O739 Pr713 2.490 . S
O739 C723 1.225 . S
O740 Pr712 2.436 . S
O740 Pr713 2.695 . S
O740 C730 1.270 . S
O741 Pr713 2.512 . S
O741 C730 1.248 . S
O742 Pr712 2.438 . S
O742 C731 1.267 . S
O743 Pr713 2.437 . S
O743 C731 1.278 . S
H744 C716 0.929 . S
H745 C717 0.929 . S
H746 C719 0.931 1_655 S
H747 C720 0.930 . S
H748 C725 0.929 . S
H749 C726 0.929 . S
H750 C728 0.931 . S
H751 C729 0.930 . S
Pr752 C754 2.880 . S
Pr752 O772 2.562 . S
Pr752 O773 2.490 . S
Pr752 O774 2.695 . S
Pr752 O775 2.512 . S
Pr752 O777 2.437 . S
Pr752 O780 2.436 . S
Pr752 O782 2.438 . S
Pr753 C763 2.880 . S
Pr753 O774 2.436 . S
Pr753 O776 2.438 . S
Pr753 O778 2.562 . S
Pr753 O779 2.490 . S
Pr753 O780 2.695 . S
Pr753 O781 2.512 . S
Pr753 O783 2.437 . S
C754 Pr752 2.880 . S
C754 C755 1.491 . S
C754 O772 1.254 . S
C754 O773 1.225 . S
C755 C754 1.491 . S
C755 C756 1.392 . S
C755 C760 1.356 . S
C756 C755 1.392 . S
C756 C757 1.368 . S
C756 H784 0.918 1_565 S
C757 C756 1.368 . S
C757 C758 1.386 . S
C757 H785 0.929 1_565 S
C758 C757 1.386 . S
C758 C759 1.373 . S
C759 C758 1.373 . S
C759 C760 1.409 . S
C759 H786 0.931 . S
C760 C755 1.356 . S
C760 C759 1.409 . S
C760 H787 0.930 . S
C761 O774 1.270 . S
C761 O775 1.248 . S
C762 O776 1.267 . S
C762 O777 1.278 . S
C763 Pr753 2.880 . S
C763 C764 1.491 . S
C763 O778 1.254 . S
C763 O779 1.225 . S
C764 C763 1.491 . S
C764 C765 1.392 . S
C764 C769 1.356 . S
C765 C764 1.392 . S
C765 C766 1.368 . S
C765 H788 0.929 . S
C766 C765 1.368 . S
C766 C767 1.386 . S
C766 H789 0.929 . S
C767 C766 1.386 . S
C767 C768 1.373 . S
C768 C767 1.373 . S
C768 C769 1.409 . S
C768 H790 0.931 . S
C769 C764 1.356 . S
C769 C768 1.409 . S
C769 H791 0.930 . S
C770 O780 1.270 . S
C770 O781 1.248 . S
C771 O782 1.267 . S
C771 O783 1.278 . S
O772 Pr752 2.562 . S
O772 C754 1.254 . S
O773 Pr752 2.490 . S
O773 C754 1.225 . S
O774 Pr752 2.695 . S
O774 Pr753 2.436 . S
O774 C761 1.270 . S
O775 Pr752 2.512 . S
O775 C761 1.248 . S
O776 Pr753 2.438 . S
O776 C762 1.267 . S
O777 Pr752 2.437 . S
O777 C762 1.278 . S
O778 Pr753 2.562 . S
O778 C763 1.254 . S
O779 Pr753 2.490 . S
O779 C763 1.225 . S
O780 Pr752 2.436 . S
O780 Pr753 2.695 . S
O780 C770 1.270 . S
O781 Pr753 2.512 . S
O781 C770 1.248 . S
O782 Pr752 2.438 . S
O782 C771 1.267 . S
O783 Pr753 2.437 . S
O783 C771 1.278 . S
H784 C756 0.918 1_545 S
H785 C757 0.929 1_545 S
H786 C759 0.931 . S
H787 C760 0.930 . S
H788 C765 0.929 . S
H789 C766 0.929 . S
H790 C768 0.931 . S
H791 C769 0.930 . S
Pr792 C794 2.880 . S
Pr792 O812 2.562 . S
Pr792 O813 2.490 . S
Pr792 O814 2.695 . S
Pr792 O815 2.512 . S
Pr792 O817 2.437 . S
Pr792 O820 2.436 . S
Pr792 O822 2.438 . S
Pr793 C803 2.880 . S
Pr793 O814 2.436 . S
Pr793 O816 2.438 . S
Pr793 O818 2.562 . S
Pr793 O819 2.490 . S
Pr793 O820 2.695 . S
Pr793 O821 2.512 . S
Pr793 O823 2.437 . S
C794 Pr792 2.880 . S
C794 C795 1.491 . S
C794 O812 1.254 . S
C794 O813 1.225 . S
C795 C794 1.491 . S
C795 C796 1.392 . S
C795 C800 1.356 . S
C796 C795 1.392 . S
C796 C797 1.368 . S
C796 H824 0.929 . S
C797 C796 1.368 . S
C797 C798 1.386 . S
C797 H825 0.929 . S
C798 C797 1.386 . S
C798 C799 1.373 . S
C799 C798 1.373 . S
C799 C800 1.409 . S
C799 H826 0.931 . S
C800 C795 1.356 . S
C800 C799 1.409 . S
C800 H827 0.930 . S
C801 O814 1.270 . S
C801 O815 1.248 . S
C802 O816 1.267 . S
C802 O817 1.278 . S
C803 Pr793 2.880 . S
C803 C804 1.491 . S
C803 O818 1.254 . S
C803 O819 1.225 . S
C804 C803 1.491 . S
C804 C805 1.392 . S
C804 C809 1.356 . S
C805 C804 1.392 . S
C805 C806 1.368 . S
C805 H828 0.929 . S
C806 C805 1.368 . S
C806 C807 1.386 . S
C806 H829 0.929 . S
C807 C806 1.386 . S
C807 C808 1.373 . S
C808 C807 1.373 . S
C808 C809 1.409 . S
C808 H830 0.931 . S
C809 C804 1.356 . S
C809 C808 1.409 . S
C809 H831 0.930 . S
C810 O820 1.270 . S
C810 O821 1.248 . S
C811 O822 1.267 . S
C811 O823 1.278 . S
O812 Pr792 2.562 . S
O812 C794 1.254 . S
O813 Pr792 2.490 . S
O813 C794 1.225 . S
O814 Pr792 2.695 . S
O814 Pr793 2.436 . S
O814 C801 1.270 . S
O815 Pr792 2.512 . S
O815 C801 1.248 . S
O816 Pr793 2.438 . S
O816 C802 1.267 . S
O817 Pr792 2.437 . S
O817 C802 1.278 . S
O818 Pr793 2.562 . S
O818 C803 1.254 . S
O819 Pr793 2.490 . S
O819 C803 1.225 . S
O820 Pr792 2.436 . S
O820 Pr793 2.695 . S
O820 C810 1.270 . S
O821 Pr793 2.512 . S
O821 C810 1.248 . S
O822 Pr792 2.438 . S
O822 C811 1.267 . S
O823 Pr793 2.437 . S
O823 C811 1.278 . S
H824 C796 0.929 . S
H825 C797 0.929 . S
H826 C799 0.931 . S
H827 C800 0.930 . S
H828 C805 0.929 . S
H829 C806 0.929 . S
H830 C808 0.931 . S
H831 C809 0.930 . S
Pr832 C834 2.880 . S
Pr832 O852 2.562 . S
Pr832 O853 2.490 . S
Pr832 O854 2.695 . S
Pr832 O855 2.512 . S
Pr832 O857 2.437 . S
Pr832 O860 2.436 . S
Pr832 O862 2.438 . S
Pr833 C843 2.880 . S
Pr833 O854 2.436 . S
Pr833 O856 2.438 . S
Pr833 O858 2.562 . S
Pr833 O859 2.490 . S
Pr833 O860 2.695 . S
Pr833 O861 2.512 . S
Pr833 O863 2.437 . S
C834 Pr832 2.880 . S
C834 C835 1.491 . S
C834 O852 1.254 . S
C834 O853 1.225 . S
C835 C834 1.491 . S
C835 C836 1.392 . S
C835 C840 1.356 . S
C836 C835 1.392 . S
C836 C837 1.368 . S
C836 H864 0.929 . S
C837 C836 1.368 . S
C837 C838 1.386 . S
C837 H865 0.929 . S
C838 C837 1.386 . S
C838 C839 1.373 . S
C839 C838 1.373 . S
C839 C840 1.409 . S
C839 H866 0.931 . S
C840 C835 1.356 . S
C840 C839 1.409 . S
C840 H867 0.930 . S
C841 O854 1.270 . S
C841 O855 1.248 . S
C842 O856 1.267 . S
C842 O857 1.278 . S
C843 Pr833 2.880 . S
C843 C844 1.491 . S
C843 O858 1.254 . S
C843 O859 1.225 . S
C844 C843 1.491 . S
C844 C845 1.392 1_665 S
C844 C849 1.356 1_655 S
C845 C844 1.392 1_445 S
C845 C846 1.368 . S
C845 H868 0.929 . S
C846 C845 1.368 . S
C846 C847 1.386 . S
C846 H869 0.929 . S
C847 C846 1.386 . S
C847 C848 1.373 1_545 S
C848 C847 1.373 1_565 S
C848 C849 1.409 . S
C848 H870 0.931 . S
C849 C844 1.356 1_455 S
C849 C848 1.409 . S
C849 H871 0.930 1_455 S
C850 O860 1.270 . S
C850 O861 1.248 . S
C851 O862 1.267 . S
C851 O863 1.278 . S
O852 Pr832 2.562 . S
O852 C834 1.254 . S
O853 Pr832 2.490 . S
O853 C834 1.225 . S
O854 Pr832 2.695 . S
O854 Pr833 2.436 . S
O854 C841 1.270 . S
O855 Pr832 2.512 . S
O855 C841 1.248 . S
O856 Pr833 2.438 . S
O856 C842 1.267 . S
O857 Pr832 2.437 . S
O857 C842 1.278 . S
O858 Pr833 2.562 . S
O858 C843 1.254 . S
O859 Pr833 2.490 . S
O859 C843 1.225 . S
O860 Pr832 2.436 . S
O860 Pr833 2.695 . S
O860 C850 1.270 . S
O861 Pr833 2.512 . S
O861 C850 1.248 . S
O862 Pr832 2.438 . S
O862 C851 1.267 . S
O863 Pr833 2.437 . S
O863 C851 1.278 . S
H864 C836 0.929 . S
H865 C837 0.929 . S
H866 C839 0.931 . S
H867 C840 0.930 . S
H868 C845 0.929 . S
H869 C846 0.929 . S
H870 C848 0.931 . S
H871 C849 0.930 1_655 S
Pr872 C874 2.880 . S
Pr872 O892 2.562 . S
Pr872 O893 2.490 . S
Pr872 O894 2.695 . S
Pr872 O895 2.512 . S
Pr872 O897 2.437 . S
Pr872 O900 2.436 . S
Pr872 O902 2.438 . S
Pr873 C883 2.880 . S
Pr873 O894 2.436 . S
Pr873 O896 2.438 . S
Pr873 O898 2.562 . S
Pr873 O899 2.490 . S
Pr873 O900 2.695 . S
Pr873 O901 2.512 . S
Pr873 O903 2.437 . S
C874 Pr872 2.880 . S
C874 C875 1.491 . S
C874 O892 1.254 . S
C874 O893 1.225 . S
C875 C874 1.491 . S
C875 C876 1.392 . S
C875 C880 1.356 . S
C876 C875 1.392 . S
C876 C877 1.368 . S
C876 H904 0.929 . S
C877 C876 1.368 . S
C877 C878 1.386 . S
C877 H905 0.929 . S
C878 C877 1.386 . S
C878 C879 1.373 . S
C879 C878 1.373 . S
C879 C880 1.409 . S
C879 H906 0.931 . S
C880 C875 1.356 . S
C880 C879 1.409 . S
C880 H907 0.930 . S
C881 O894 1.270 . S
C881 O895 1.248 . S
C882 O896 1.267 . S
C882 O897 1.278 . S
C883 Pr873 2.880 . S
C883 C884 1.491 . S
C883 O898 1.254 . S
C883 O899 1.225 . S
C884 C883 1.491 . S
C884 C885 1.392 . S
C884 C889 1.356 . S
C885 C884 1.392 . S
C885 C886 1.368 . S
C885 H908 0.929 . S
C886 C885 1.368 . S
C886 C887 1.386 . S
C886 H909 0.929 . S
C887 C886 1.386 . S
C887 C888 1.373 . S
C888 C887 1.373 . S
C888 C889 1.409 . S
C888 H910 0.931 . S
C889 C884 1.356 . S
C889 C888 1.409 . S
C889 H911 0.930 . S
C890 O900 1.270 . S
C890 O901 1.248 . S
C891 O902 1.267 . S
C891 O903 1.278 . S
O892 Pr872 2.562 . S
O892 C874 1.254 . S
O893 Pr872 2.490 . S
O893 C874 1.225 . S
O894 Pr872 2.695 . S
O894 Pr873 2.436 . S
O894 C881 1.270 . S
O895 Pr872 2.512 . S
O895 C881 1.248 . S
O896 Pr873 2.438 . S
O896 C882 1.267 . S
O897 Pr872 2.437 . S
O897 C882 1.278 . S
O898 Pr873 2.562 . S
O898 C883 1.254 . S
O899 Pr873 2.490 . S
O899 C883 1.225 . S
O900 Pr872 2.436 . S
O900 Pr873 2.695 . S
O900 C890 1.270 . S
O901 Pr873 2.512 . S
O901 C890 1.248 . S
O902 Pr872 2.438 . S
O902 C891 1.267 . S
O903 Pr873 2.437 . S
O903 C891 1.278 . S
H904 C876 0.929 . S
H905 C877 0.929 . S
H906 C879 0.931 . S
H907 C880 0.930 . S
H908 C885 0.929 . S
H909 C886 0.929 . S
H910 C888 0.931 . S
H911 C889 0.930 . S
Pr912 C914 2.880 1_554 S
Pr912 O932 2.562 . S
Pr912 O933 2.490 1_554 S
Pr912 O934 2.695 1_554 S
Pr912 O935 2.512 1_554 S
Pr912 O937 2.437 1_554 S
Pr912 O940 2.436 . S
Pr912 O942 2.438 . S
Pr913 C923 2.871 1_455 S
Pr913 O934 2.441 1_554 S
Pr913 O936 2.443 1_554 S
Pr913 O938 2.555 1_455 S
Pr913 O939 2.482 1_455 S
Pr913 O940 2.704 . S
Pr913 O941 2.515 . S
Pr913 O943 2.439 . S
C914 Pr912 2.880 1_556 S
C914 C915 1.491 . S
C914 O932 1.254 1_556 S
C914 O933 1.225 . S
C915 C914 1.491 . S
C915 C916 1.392 . S
C915 C920 1.356 . S
C916 C915 1.392 . S
C916 C917 1.368 . S
C916 H944 0.929 . S
C917 C916 1.368 . S
C917 C918 1.386 . S
C917 H945 0.929 . S
C918 C917 1.386 . S
C918 C919 1.373 . S
C919 C918 1.373 . S
C919 C920 1.409 . S
C919 H946 0.931 . S
C920 C915 1.356 . S
C920 C919 1.409 . S
C920 H947 0.930 1_556 S
C921 O934 1.270 . S
C921 O935 1.248 . S
C922 O936 1.267 . S
C922 O937 1.278 . S
C923 Pr913 2.871 1_655 S
C923 C924 1.491 . S
C923 O938 1.254 . S
C923 O939 1.225 . S
C924 C923 1.491 . S
C924 C925 1.392 . S
C924 C929 1.356 . S
C925 C924 1.392 . S
C925 C926 1.368 . S
C925 H948 0.929 . S
C926 C925 1.368 . S
C926 C927 1.386 . S
C926 H949 0.929 . S
C927 C926 1.386 . S
C927 C928 1.373 . S
C928 C927 1.373 . S
C928 C929 1.409 . S
C928 H950 0.931 . S
C929 C924 1.356 . S
C929 C928 1.409 . S
C929 H951 0.930 . S
C930 O940 1.270 . S
C930 O941 1.248 . S
C931 O942 1.267 . S
C931 O943 1.278 . S
O932 Pr912 2.562 . S
O932 C914 1.254 1_554 S
O933 Pr912 2.490 1_556 S
O933 C914 1.225 . S
O934 Pr912 2.695 1_556 S
O934 Pr913 2.441 1_556 S
O934 C921 1.270 . S
O935 Pr912 2.512 1_556 S
O935 C921 1.248 . S
O936 Pr913 2.443 1_556 S
O936 C922 1.267 . S
O937 Pr912 2.437 1_556 S
O937 C922 1.278 . S
O938 Pr913 2.555 1_655 S
O938 C923 1.254 . S
O939 Pr913 2.482 1_655 S
O939 C923 1.225 . S
O940 Pr912 2.436 . S
O940 Pr913 2.704 . S
O940 C930 1.270 . S
O941 Pr913 2.515 . S
O941 C930 1.248 . S
O942 Pr912 2.438 . S
O942 C931 1.267 . S
O943 Pr913 2.439 . S
O943 C931 1.278 . S
H944 C916 0.929 . S
H945 C917 0.929 . S
H946 C919 0.931 . S
H947 C920 0.930 1_554 S
H948 C925 0.929 . S
H949 C926 0.929 . S
H950 C928 0.931 . S
H951 C929 0.930 . S
C101 C322 3.226 1_556 S
C57 C361 2.448 . S
C73 C402 2.752 1_565 S
C447 C78 2.383 . S
C21 C491 3.330 1_565 S
C522 C31 2.367 . S
C570 C49 2.851 . S
C0 C598 4.178 . S
C330 C218 3.444 1_455 S
C229 C371 2.455 . S
C410 C257 3.392 1_545 S
C442 C164 2.655 . S
C216 C478 1.900 . S
C530 C231 2.906 . S
C567 C255 3.639 . S
C601 C166 2.963 . S
C327 C143 4.299 . S
C265 C641 2.520 1_556 S
C687 C299 3.476 . S
C722 C291 2.571 . S
C104 C611 3.929 . S
C117 C407 2.383 . S
C304 C770 3.438 . S
C798 C278 1.525 . S
C331 C60 3.316 1_545 S
C810 C96 2.506 . S
C88 C411 2.719 . S
C65 C758 2.866 . S
C482 C10 3.139 1_455 S
C44 C691 2.313 . S
C561 C34 2.793 1_544 S
C847 C13 4.688 1_545 S
C321 C138 3.921 . S
C802 C296 2.293 . S
C112 C401 3.325 . S
C270 C771 2.655 . S
C140 C487 1.636 . S
C681 C294 2.793 . S
C114 C558 3.966 . S
C268 C850 3.125 . S
C169 C318 4.903 1_554 S
C161 C650 2.565 . S
C234 C518 4.023 . S
C226 C731 2.449 . S
C842 C247 4.318 . S
C195 C398 2.911 . S
C441 C239 3.788 . S
C367 C187 1.785 . S
C75 C882 3.219 . S
C801 C83 2.449 . S
C99 C922 2.752 . S
C52 C767 2.383 1_455 S
C47 C651 3.330 . S
C682 C5 2.366 . S
C730 C23 2.851 . S
C838 C26 4.177 . S
C890 C244 3.443 . S
C177 C811 2.458 . S
C930 C192 3.392 . S
C762 C203 2.655 . S
C638 C242 1.900 . S
C179 C690 2.903 . S
C727 C190 3.639 . S
C205 C841 2.963 . S
C887 C286 4.298 . S
C122 C481 2.520 . S
C527 C130 3.476 . S
C562 C148 2.571 . S
C851 C273 3.929 . S
C260 C927 2.383 . S
C450 C135 3.438 . S
C358 C109 1.525 . S
C86 C891 3.316 . S
C370 C70 2.507 . S
C62 C931 2.719 . S
C91 C438 2.866 . S
C36 C642 3.139 . S
C531 C18 2.313 . S
C8 C721 2.793 . S
C39 C607 4.687 . S
C881 C307 3.922 . S
C153 C362 2.293 . S
C921 C281 3.325 . S
C127 C451 2.655 . S
C309 C647 1.636 . S
C521 C151 2.793 . S
C283 C718 3.966 . S
C610 C125 3.125 . S
C878 C221 4.900 . S
C490 C200 2.564 . S
C208 C678 4.024 . S
C571 C174 2.447 1_554 S
C182 C602 4.318 . S
C156 C918 2.910 1_554 S
C761 C213 3.788 . S
C807 C252 1.785 . S
