# Generated by pormake.
# Topology gar, (4,6)-cn, num edge types: 1
# Building blocks:
#     Node 0, Type 0, BuildingBlock: CEKHIL_clean_sbu_0, # of connection points: 4
#     Node 1, Type 0, BuildingBlock: CEKHIL_clean_sbu_0, # of connection points: 4
#     Node 2, Type 0, BuildingBlock: CEKHIL_clean_sbu_0, # of connection points: 4
#     Node 3, Type 0, BuildingBlock: CEKHIL_clean_sbu_0, # of connection points: 4
#     Node 4, Type 0, BuildingBlock: CEKHIL_clean_sbu_0, # of connection points: 4
#     Node 5, Type 0, BuildingBlock: CEKHIL_clean_sbu_0, # of connection points: 4
#     Node 6, Type 0, BuildingBlock: CEKHIL_clean_sbu_0, # of connection points: 4
#     Node 7, Type 0, BuildingBlock: CEKHIL_clean_sbu_0, # of connection points: 4
#     Node 8, Type 0, BuildingBlock: CEKHIL_clean_sbu_0, # of connection points: 4
#     Node 9, Type 0, BuildingBlock: CEKHIL_clean_sbu_0, # of connection points: 4
#     Node 10, Type 0, BuildingBlock: CEKHIL_clean_sbu_0, # of connection points: 4
#     Node 11, Type 0, BuildingBlock: CEKHIL_clean_sbu_0, # of connection points: 4
#     Node 12, Type 0, BuildingBlock: CEKHIL_clean_sbu_0, # of connection points: 4
#     Node 13, Type 0, BuildingBlock: CEKHIL_clean_sbu_0, # of connection points: 4
#     Node 14, Type 0, BuildingBlock: CEKHIL_clean_sbu_0, # of connection points: 4
#     Node 15, Type 0, BuildingBlock: CEKHIL_clean_sbu_0, # of connection points: 4
#     Node 16, Type 0, BuildingBlock: CEKHIL_clean_sbu_0, # of connection points: 4
#     Node 17, Type 0, BuildingBlock: CEKHIL_clean_sbu_0, # of connection points: 4
#     Node 18, Type 0, BuildingBlock: CEKHIL_clean_sbu_0, # of connection points: 4
#     Node 19, Type 0, BuildingBlock: CEKHIL_clean_sbu_0, # of connection points: 4
#     Node 20, Type 0, BuildingBlock: CEKHIL_clean_sbu_0, # of connection points: 4
#     Node 21, Type 0, BuildingBlock: CEKHIL_clean_sbu_0, # of connection points: 4
#     Node 22, Type 0, BuildingBlock: CEKHIL_clean_sbu_0, # of connection points: 4
#     Node 23, Type 0, BuildingBlock: CEKHIL_clean_sbu_0, # of connection points: 4
#     Node 24, Type 1, BuildingBlock: KUMBOL_clean_sbu_0, # of connection points: 6
#     Node 25, Type 1, BuildingBlock: KUMBOL_clean_sbu_0, # of connection points: 6
#     Node 26, Type 1, BuildingBlock: KUMBOL_clean_sbu_0, # of connection points: 6
#     Node 27, Type 1, BuildingBlock: KUMBOL_clean_sbu_0, # of connection points: 6
#     Node 28, Type 1, BuildingBlock: KUMBOL_clean_sbu_0, # of connection points: 6
#     Node 29, Type 1, BuildingBlock: KUMBOL_clean_sbu_0, # of connection points: 6
#     Node 30, Type 1, BuildingBlock: KUMBOL_clean_sbu_0, # of connection points: 6
#     Node 31, Type 1, BuildingBlock: KUMBOL_clean_sbu_0, # of connection points: 6
#     Node 32, Type 1, BuildingBlock: KUMBOL_clean_sbu_0, # of connection points: 6
#     Node 33, Type 1, BuildingBlock: KUMBOL_clean_sbu_0, # of connection points: 6
#     Node 34, Type 1, BuildingBlock: KUMBOL_clean_sbu_0, # of connection points: 6
#     Node 35, Type 1, BuildingBlock: KUMBOL_clean_sbu_0, # of connection points: 6
#     Node 36, Type 1, BuildingBlock: KUMBOL_clean_sbu_0, # of connection points: 6
#     Node 37, Type 1, BuildingBlock: KUMBOL_clean_sbu_0, # of connection points: 6
#     Node 38, Type 1, BuildingBlock: KUMBOL_clean_sbu_0, # of connection points: 6
#     Node 39, Type 1, BuildingBlock: KUMBOL_clean_sbu_0, # of connection points: 6
#     Edge 40, Type (0, 1), BuildingBlock: MIFKUJ_clean_linker_0, # of connection points: 2
#     Edge 41, Type (0, 1), BuildingBlock: MIFKUJ_clean_linker_0, # of connection points: 2
#     Edge 42, Type (0, 1), BuildingBlock: MIFKUJ_clean_linker_0, # of connection points: 2
#     Edge 43, Type (0, 1), BuildingBlock: MIFKUJ_clean_linker_0, # of connection points: 2
#     Edge 44, Type (0, 1), BuildingBlock: MIFKUJ_clean_linker_0, # of connection points: 2
#     Edge 45, Type (0, 1), BuildingBlock: MIFKUJ_clean_linker_0, # of connection points: 2
#     Edge 46, Type (0, 1), BuildingBlock: MIFKUJ_clean_linker_0, # of connection points: 2
#     Edge 47, Type (0, 1), BuildingBlock: MIFKUJ_clean_linker_0, # of connection points: 2
#     Edge 48, Type (0, 1), BuildingBlock: MIFKUJ_clean_linker_0, # of connection points: 2
#     Edge 49, Type (0, 1), BuildingBlock: MIFKUJ_clean_linker_0, # of connection points: 2
#     Edge 50, Type (0, 1), BuildingBlock: MIFKUJ_clean_linker_0, # of connection points: 2
#     Edge 51, Type (0, 1), BuildingBlock: MIFKUJ_clean_linker_0, # of connection points: 2
#     Edge 52, Type (0, 1), BuildingBlock: MIFKUJ_clean_linker_0, # of connection points: 2
#     Edge 53, Type (0, 1), BuildingBlock: MIFKUJ_clean_linker_0, # of connection points: 2
#     Edge 54, Type (0, 1), BuildingBlock: MIFKUJ_clean_linker_0, # of connection points: 2
#     Edge 55, Type (0, 1), BuildingBlock: MIFKUJ_clean_linker_0, # of connection points: 2
#     Edge 56, Type (0, 1), BuildingBlock: MIFKUJ_clean_linker_0, # of connection points: 2
#     Edge 57, Type (0, 1), BuildingBlock: MIFKUJ_clean_linker_0, # of connection points: 2
#     Edge 58, Type (0, 1), BuildingBlock: MIFKUJ_clean_linker_0, # of connection points: 2
#     Edge 59, Type (0, 1), BuildingBlock: MIFKUJ_clean_linker_0, # of connection points: 2
#     Edge 60, Type (0, 1), BuildingBlock: MIFKUJ_clean_linker_0, # of connection points: 2
#     Edge 61, Type (0, 1), BuildingBlock: MIFKUJ_clean_linker_0, # of connection points: 2
#     Edge 62, Type (0, 1), BuildingBlock: MIFKUJ_clean_linker_0, # of connection points: 2
#     Edge 63, Type (0, 1), BuildingBlock: MIFKUJ_clean_linker_0, # of connection points: 2
#     Edge 64, Type (0, 1), BuildingBlock: MIFKUJ_clean_linker_0, # of connection points: 2
#     Edge 65, Type (0, 1), BuildingBlock: MIFKUJ_clean_linker_0, # of connection points: 2
#     Edge 66, Type (0, 1), BuildingBlock: MIFKUJ_clean_linker_0, # of connection points: 2
#     Edge 67, Type (0, 1), BuildingBlock: MIFKUJ_clean_linker_0, # of connection points: 2
#     Edge 68, Type (0, 1), BuildingBlock: MIFKUJ_clean_linker_0, # of connection points: 2
#     Edge 69, Type (0, 1), BuildingBlock: MIFKUJ_clean_linker_0, # of connection points: 2
#     Edge 70, Type (0, 1), BuildingBlock: MIFKUJ_clean_linker_0, # of connection points: 2
#     Edge 71, Type (0, 1), BuildingBlock: MIFKUJ_clean_linker_0, # of connection points: 2
#     Edge 72, Type (0, 1), BuildingBlock: MIFKUJ_clean_linker_0, # of connection points: 2
#     Edge 73, Type (0, 1), BuildingBlock: MIFKUJ_clean_linker_0, # of connection points: 2
#     Edge 74, Type (0, 1), BuildingBlock: MIFKUJ_clean_linker_0, # of connection points: 2
#     Edge 75, Type (0, 1), BuildingBlock: MIFKUJ_clean_linker_0, # of connection points: 2
#     Edge 76, Type (0, 1), BuildingBlock: MIFKUJ_clean_linker_0, # of connection points: 2
#     Edge 77, Type (0, 1), BuildingBlock: MIFKUJ_clean_linker_0, # of connection points: 2
#     Edge 78, Type (0, 1), BuildingBlock: MIFKUJ_clean_linker_0, # of connection points: 2
#     Edge 79, Type (0, 1), BuildingBlock: MIFKUJ_clean_linker_0, # of connection points: 2
#     Edge 80, Type (0, 1), BuildingBlock: MIFKUJ_clean_linker_0, # of connection points: 2
#     Edge 81, Type (0, 1), BuildingBlock: MIFKUJ_clean_linker_0, # of connection points: 2
#     Edge 82, Type (0, 1), BuildingBlock: MIFKUJ_clean_linker_0, # of connection points: 2
#     Edge 83, Type (0, 1), BuildingBlock: MIFKUJ_clean_linker_0, # of connection points: 2
#     Edge 84, Type (0, 1), BuildingBlock: MIFKUJ_clean_linker_0, # of connection points: 2
#     Edge 85, Type (0, 1), BuildingBlock: MIFKUJ_clean_linker_0, # of connection points: 2
#     Edge 86, Type (0, 1), BuildingBlock: MIFKUJ_clean_linker_0, # of connection points: 2
#     Edge 87, Type (0, 1), BuildingBlock: MIFKUJ_clean_linker_0, # of connection points: 2
#     Edge 88, Type (0, 1), BuildingBlock: MIFKUJ_clean_linker_0, # of connection points: 2
#     Edge 89, Type (0, 1), BuildingBlock: MIFKUJ_clean_linker_0, # of connection points: 2
#     Edge 90, Type (0, 1), BuildingBlock: MIFKUJ_clean_linker_0, # of connection points: 2
#     Edge 91, Type (0, 1), BuildingBlock: MIFKUJ_clean_linker_0, # of connection points: 2
#     Edge 92, Type (0, 1), BuildingBlock: MIFKUJ_clean_linker_0, # of connection points: 2
#     Edge 93, Type (0, 1), BuildingBlock: MIFKUJ_clean_linker_0, # of connection points: 2
#     Edge 94, Type (0, 1), BuildingBlock: MIFKUJ_clean_linker_0, # of connection points: 2
#     Edge 95, Type (0, 1), BuildingBlock: MIFKUJ_clean_linker_0, # of connection points: 2
#     Edge 96, Type (0, 1), BuildingBlock: MIFKUJ_clean_linker_0, # of connection points: 2
#     Edge 97, Type (0, 1), BuildingBlock: MIFKUJ_clean_linker_0, # of connection points: 2
#     Edge 98, Type (0, 1), BuildingBlock: MIFKUJ_clean_linker_0, # of connection points: 2
#     Edge 99, Type (0, 1), BuildingBlock: MIFKUJ_clean_linker_0, # of connection points: 2
#     Edge 100, Type (0, 1), BuildingBlock: MIFKUJ_clean_linker_0, # of connection points: 2
#     Edge 101, Type (0, 1), BuildingBlock: MIFKUJ_clean_linker_0, # of connection points: 2
#     Edge 102, Type (0, 1), BuildingBlock: MIFKUJ_clean_linker_0, # of connection points: 2
#     Edge 103, Type (0, 1), BuildingBlock: MIFKUJ_clean_linker_0, # of connection points: 2
#     Edge 104, Type (0, 1), BuildingBlock: MIFKUJ_clean_linker_0, # of connection points: 2
#     Edge 105, Type (0, 1), BuildingBlock: MIFKUJ_clean_linker_0, # of connection points: 2
#     Edge 106, Type (0, 1), BuildingBlock: MIFKUJ_clean_linker_0, # of connection points: 2
#     Edge 107, Type (0, 1), BuildingBlock: MIFKUJ_clean_linker_0, # of connection points: 2
#     Edge 108, Type (0, 1), BuildingBlock: MIFKUJ_clean_linker_0, # of connection points: 2
#     Edge 109, Type (0, 1), BuildingBlock: MIFKUJ_clean_linker_0, # of connection points: 2
#     Edge 110, Type (0, 1), BuildingBlock: MIFKUJ_clean_linker_0, # of connection points: 2
#     Edge 111, Type (0, 1), BuildingBlock: MIFKUJ_clean_linker_0, # of connection points: 2
#     Edge 112, Type (0, 1), BuildingBlock: MIFKUJ_clean_linker_0, # of connection points: 2
#     Edge 113, Type (0, 1), BuildingBlock: MIFKUJ_clean_linker_0, # of connection points: 2
#     Edge 114, Type (0, 1), BuildingBlock: MIFKUJ_clean_linker_0, # of connection points: 2
#     Edge 115, Type (0, 1), BuildingBlock: MIFKUJ_clean_linker_0, # of connection points: 2
#     Edge 116, Type (0, 1), BuildingBlock: MIFKUJ_clean_linker_0, # of connection points: 2
#     Edge 117, Type (0, 1), BuildingBlock: MIFKUJ_clean_linker_0, # of connection points: 2
#     Edge 118, Type (0, 1), BuildingBlock: MIFKUJ_clean_linker_0, # of connection points: 2
#     Edge 119, Type (0, 1), BuildingBlock: MIFKUJ_clean_linker_0, # of connection points: 2
#     Edge 120, Type (0, 1), BuildingBlock: MIFKUJ_clean_linker_0, # of connection points: 2
#     Edge 121, Type (0, 1), BuildingBlock: MIFKUJ_clean_linker_0, # of connection points: 2
#     Edge 122, Type (0, 1), BuildingBlock: MIFKUJ_clean_linker_0, # of connection points: 2
#     Edge 123, Type (0, 1), BuildingBlock: MIFKUJ_clean_linker_0, # of connection points: 2
#     Edge 124, Type (0, 1), BuildingBlock: MIFKUJ_clean_linker_0, # of connection points: 2
#     Edge 125, Type (0, 1), BuildingBlock: MIFKUJ_clean_linker_0, # of connection points: 2
#     Edge 126, Type (0, 1), BuildingBlock: MIFKUJ_clean_linker_0, # of connection points: 2
#     Edge 127, Type (0, 1), BuildingBlock: MIFKUJ_clean_linker_0, # of connection points: 2
#     Edge 128, Type (0, 1), BuildingBlock: MIFKUJ_clean_linker_0, # of connection points: 2
#     Edge 129, Type (0, 1), BuildingBlock: MIFKUJ_clean_linker_0, # of connection points: 2
#     Edge 130, Type (0, 1), BuildingBlock: MIFKUJ_clean_linker_0, # of connection points: 2
#     Edge 131, Type (0, 1), BuildingBlock: MIFKUJ_clean_linker_0, # of connection points: 2
#     Edge 132, Type (0, 1), BuildingBlock: MIFKUJ_clean_linker_0, # of connection points: 2
#     Edge 133, Type (0, 1), BuildingBlock: MIFKUJ_clean_linker_0, # of connection points: 2
#     Edge 134, Type (0, 1), BuildingBlock: MIFKUJ_clean_linker_0, # of connection points: 2
#     Edge 135, Type (0, 1), BuildingBlock: MIFKUJ_clean_linker_0, # of connection points: 2
# Relax obj value: 0.113
# Max RMSD: 0.306
# Mean RMSD: 0.147
data_MOF--net-gar--node1-CEKHIL_clean_sbu_0--node2-KUMBOL_clean_sbu_0--edge1-MIFKUJ_clean_linker_0
_symmetry_space_group_name_H-M    P1
_symmetry_Int_Tables_number       1
_symmetry_cell_setting            triclinic
loop_
_symmetry_equiv_pos_as_xyz
'x, y, z'
_cell_length_a     77.695786
_cell_length_b     72.137479
_cell_length_c     71.475628
_cell_angle_alpha  99.767197
_cell_angle_beta   93.172929
_cell_angle_gamma 101.81682
loop_
_atom_site_label
_atom_site_type_symbol
_atom_site_fract_x
_atom_site_fract_y
_atom_site_fract_z
_atom_type_partial_charge
Co0 Co 0.10335 0.32148 0.38579 0.0
O1 O 0.12763 0.32095 0.38633 0.0
O2 O 0.10754 0.3076 0.36173 0.0
C3 C 0.10848 0.35264 0.39706 0.0
O4 O 0.0773 0.32038 0.38044 0.0
Co5 Co 0.08754 0.33457 0.4238 0.0
O6 O 0.06739 0.33589 0.40629 0.0
C7 C 0.09615 0.29618 0.41462 0.0
C8 C 0.12406 0.31253 0.36865 0.0
C9 C 0.06536 0.3277 0.38881 0.0
O10 O 0.09826 0.29781 0.39725 0.0
O11 O 0.09367 0.30976 0.42752 0.0
O12 O 0.10848 0.34671 0.37891 0.0
O13 O 0.10641 0.33983 0.40778 0.0
Co14 Co 1.00353 0.77084 0.65964 0.0
O15 O 0.97899 0.77033 0.65944 0.0
O16 O 0.99643 0.76783 0.6844 0.0
C17 C 0.01013 0.79589 0.64504 0.0
O18 O 0.02928 0.77075 0.6647 0.0
Co19 Co 0.01964 0.76371 0.62066 0.0
O20 O 0.0415 0.76502 0.637 0.0
C21 C 0.99527 0.73291 0.63372 0.0
C22 C 0.98081 0.76807 0.67701 0.0
C23 C 0.04229 0.76784 0.65516 0.0
O24 O 0.99804 0.74241 0.65083 0.0
O25 O 1.00043 0.74013 0.61929 0.0
O26 O 0.00915 0.79889 0.66338 0.0
O27 O 0.00578 0.77826 0.63632 0.0
Co28 Co 0.6035 0.82218 0.8862 0.0
O29 O 0.62724 0.81937 0.88602 0.0
O30 O 0.60604 0.8071 0.86216 0.0
C31 C 0.61074 0.85361 0.89729 0.0
O32 O 0.5779 0.82312 0.88124 0.0
Co33 Co 0.58886 0.83809 0.92423 0.0
O34 O 0.56834 0.83902 0.90712 0.0
C35 C 0.59296 0.79759 0.91519 0.0
C36 C 0.62257 0.81037 0.86864 0.0
C37 C 0.56617 0.83068 0.88971 0.0
O38 O 0.59682 0.79892 0.89815 0.0
O39 O 0.59101 0.81183 0.92763 0.0
O40 O 0.61038 0.84733 0.87913 0.0
O41 O 0.60783 0.84086 0.908 0.0
Co42 Co 0.50321 0.27101 0.16011 0.0
O43 O 0.47822 0.26816 0.15806 0.0
O44 O 0.49505 0.26746 0.18423 0.0
C45 C 0.50889 0.29617 0.14581 0.0
O46 O 0.52912 0.27332 0.16726 0.0
Co47 Co 0.52301 0.26645 0.12322 0.0
O48 O 0.54452 0.27426 0.1415 0.0
C49 C 0.5003 0.23318 0.1351 0.0
C50 C 0.47953 0.26648 0.17584 0.0
C51 C 0.54363 0.27495 0.15934 0.0
O52 O 0.50024 0.24285 0.15179 0.0
O53 O 0.50681 0.24044 0.1212 0.0
O54 O 0.50645 0.29882 0.16381 0.0
O55 O 0.50639 0.27866 0.13686 0.0
Co56 Co 0.07958 0.81583 0.11997 0.0
O57 O 0.05408 0.81379 0.1155 0.0
O58 O 0.06747 0.81077 0.14234 0.0
C59 C 0.08606 0.84339 0.1066 0.0
O60 O 0.10507 0.81737 0.13214 0.0
Co61 Co 0.10545 0.81431 0.091 0.0
O62 O 0.12537 0.82029 0.11134 0.0
C63 C 0.08199 0.77781 0.09498 0.0
C64 C 0.05279 0.81103 0.1329 0.0
C65 C 0.12135 0.81939 0.12819 0.0
O66 O 0.07651 0.78695 0.10982 0.0
O67 O 0.09276 0.78635 0.08466 0.0
O68 O 0.08319 0.84414 0.12442 0.0
O69 O 0.08545 0.82618 0.09723 0.0
Co70 Co 0.52556 0.77465 0.42495 0.0
O71 O 0.5512 0.77902 0.4306 0.0
O72 O 0.53706 0.76575 0.40253 0.0
C73 C 0.52381 0.80496 0.43978 0.0
O74 O 0.49984 0.76957 0.41156 0.0
Co75 Co 0.49865 0.77474 0.45358 0.0
O76 O 0.48064 0.77518 0.43297 0.0
C77 C 0.51605 0.74186 0.44803 0.0
C78 C 0.55212 0.77202 0.41279 0.0
C79 C 0.4842 0.77167 0.41577 0.0
O80 O 0.52259 0.74812 0.43335 0.0
O81 O 0.50673 0.75113 0.45868 0.0
O82 O 0.52842 0.80167 0.42255 0.0
O83 O 0.52104 0.79009 0.44808 0.0
Co84 Co 0.57978 0.31697 0.61921 0.0
O85 O 0.55414 0.31391 0.61445 0.0
O86 O 0.56746 0.31015 0.64097 0.0
C87 C 0.5854 0.34577 0.60759 0.0
O88 O 0.60546 0.31921 0.6317 0.0
Co89 Co 0.60595 0.31842 0.59025 0.0
O90 O 0.62524 0.32029 0.6102 0.0
C91 C 0.58413 0.28041 0.59254 0.0
C92 C 0.55275 0.3104 0.63159 0.0
C93 C 0.6215 0.31972 0.6272 0.0
O94 O 0.57789 0.28846 0.6075 0.0
O95 O 0.59466 0.29026 0.58292 0.0
O96 O 0.58206 0.34511 0.62511 0.0
O97 O 0.58564 0.32915 0.59743 0.0
Co98 Co 0.02498 0.27499 0.9258 0.0
O99 O 0.0507 0.27913 0.93066 0.0
O100 O 0.03587 0.267 0.90271 0.0
C101 C 0.0233 0.30486 0.94164 0.0
O102 O 0.99892 0.27009 0.9133 0.0
Co103 Co 0.99915 0.27411 0.95561 0.0
O104 O 0.98075 0.27543 0.93584 0.0
C105 C 0.01644 0.2414 0.94804 0.0
C106 C 0.05114 0.27279 0.9126 0.0
C107 C 0.98351 0.27222 0.91834 0.0
O108 O 0.02251 0.24817 0.93342 0.0
O109 O 0.0073 0.25017 0.95938 0.0
O110 O 0.02751 0.30219 0.92423 0.0
O111 O 0.02112 0.28975 0.94957 0.0
Co112 Co 0.41664 0.04693 0.30877 0.0
O113 O 0.42068 0.07415 0.31186 0.0
O114 O 0.3965 0.0528 0.29717 0.0
C115 C 0.42558 0.04591 0.33805 0.0
O116 O 0.40784 0.01854 0.3035 0.0
Co117 Co 0.44774 0.02632 0.31392 0.0
O118 O 0.42888 1.00251 0.30927 0.0
C119 C 0.44139 0.04059 0.27856 0.0
C120 C 0.40505 0.07052 0.30283 0.0
C121 C 0.41304 1.00298 0.30417 0.0
O122 O 0.42722 0.0452 0.28411 0.0
O123 O 0.45218 0.03453 0.28895 0.0
O124 O 0.40968 0.04823 0.33446 0.0
O125 O 0.43595 0.04636 0.32457 0.0
Co126 Co 0.29935 0.18543 0.50333 0.0
O127 O 0.32504 0.1917 0.50593 0.0
O128 O 0.30843 0.16406 0.50969 0.0
C129 C 0.29711 0.19642 0.4755 0.0
O130 O 0.27278 0.17233 0.50113 0.0
Co131 Co 0.27624 0.21482 0.50245 0.0
O132 O 0.25538 0.19307 0.49784 0.0
C133 C 0.2951 0.21307 0.53903 0.0
C134 C 0.32414 0.17435 0.5091 0.0
C135 C 0.25736 0.17618 0.49877 0.0
O136 O 0.29906 0.19713 0.53133 0.0
O137 O 0.28749 0.22302 0.52935 0.0
O138 O 0.29968 0.17923 0.47565 0.0
O139 O 0.2966 0.20676 0.49199 0.0
Co140 Co 0.17216 0.00744 0.77373 0.0
O141 O 0.16921 0.97829 0.77137 0.0
O142 O 0.19349 0.99641 0.76679 0.0
C143 C 0.1589 0.01163 0.80384 0.0
O144 O 0.1842 0.03728 0.77559 0.0
Co145 Co 0.14597 0.03318 0.77814 0.0
O146 O 0.16561 0.05644 0.78401 0.0
C147 C 0.14915 0.01423 0.73832 0.0
C148 C 0.18565 0.97904 0.76811 0.0
C149 C 0.18099 0.05452 0.78009 0.0
O150 O 0.16168 0.00625 0.74479 0.0
O151 O 0.1411 0.02431 0.74985 0.0
O152 O 0.17519 0.00995 0.80264 0.0
O153 O 0.15108 0.0108 0.78721 0.0
Co154 Co 0.31082 0.93164 0.00945 0.0
O155 O 0.28593 0.92693 0.00997 0.0
O156 O 0.30512 0.95377 0.02417 0.0
C157 C 0.31078 0.92154 0.97848 0.0
O158 O 0.33698 0.94153 0.0115 0.0
Co159 Co 0.32898 0.89715 0.99678 0.0
O160 O 0.3508 0.91762 1.00149 0.0
C161 C 0.3183 0.90513 0.03578 0.0
C162 C 0.28885 0.94429 0.01989 0.0
C163 C 0.35093 0.93518 0.00819 0.0
O164 O 0.31337 0.92033 0.03272 0.0
O165 O 0.32337 0.89334 0.02292 0.0
O166 O 0.30887 0.93892 0.98455 0.0
O167 O 0.31079 0.91044 0.99083 0.0
Co168 Co 0.3037 0.39665 0.03142 0.0
O169 O 0.27818 0.39077 0.02853 0.0
O170 O 0.29484 0.41927 0.04133 0.0
C171 C 0.30637 0.3823 1.0012 0.0
O172 O 0.33043 0.40903 0.03578 0.0
Co173 Co 0.3251 0.36517 0.02826 0.0
O174 O 0.34623 0.38622 0.02974 0.0
C175 C 0.30672 0.37313 0.06262 0.0
C176 C 0.2791 0.40869 0.03593 0.0
C177 C 0.34532 0.40384 0.03397 0.0
O178 O 0.30326 0.38824 0.05719 0.0
O179 O 0.31428 0.36133 0.05253 0.0
O180 O 0.30404 0.39982 0.0049 0.0
O181 O 0.30606 0.37356 0.01561 0.0
Co182 Co 0.79298 0.14746 0.02036 0.0
O183 O 0.81787 0.15164 0.0259 0.0
O184 O 0.79811 0.12462 0.02705 0.0
C185 C 0.7937 0.15915 0.99361 0.0
O186 O 0.76671 0.13788 0.01546 0.0
Co187 Co 0.77404 0.18126 0.01641 0.0
O188 O 0.75322 0.16024 0.00676 0.0
C189 C 0.78439 0.17308 0.05427 0.0
C190 C 0.81445 0.13397 0.02864 0.0
C191 C 0.75295 0.14325 0.00967 0.0
O192 O 0.79008 0.1581 0.04736 0.0
O193 O 0.77921 0.18448 0.0444 0.0
O194 O 0.79534 0.14151 0.99312 0.0
O195 O 0.79343 0.16932 0.01014 0.0
Co196 Co 0.18791 0.53597 0.25123 0.0
O197 O 0.18238 0.50859 0.24466 0.0
O198 O 0.2063 0.52817 0.23758 0.0
C199 C 0.18191 0.53756 0.28121 0.0
O200 O 0.19827 0.56421 0.25585 0.0
Co201 Co 0.1599 0.55959 0.26509 0.0
O202 O 0.17976 0.58223 0.26806 0.0
C203 C 0.16047 0.54334 0.22426 0.0
C204 C 0.19754 0.51075 0.23751 0.0
C205 C 0.19464 0.58046 0.26228 0.0
O206 O 0.17492 0.538 0.22732 0.0
O207 O 0.1519 0.55047 0.23743 0.0
O208 O 0.19715 0.53451 0.27663 0.0
O209 O 0.17049 0.53802 0.26762 0.0
Co210 Co 0.80356 0.89504 0.5324 0.0
O211 O 0.77788 0.88897 0.53008 0.0
O212 O 0.79463 0.9176 0.54216 0.0
C213 C 0.80546 0.88023 0.50214 0.0
O214 O 0.83017 0.90814 0.53633 0.0
Co215 Co 0.82662 0.86519 0.52782 0.0
O216 O 0.84695 0.8868 0.52774 0.0
C217 C 0.80782 0.8712 0.56267 0.0
C218 C 0.77887 0.90702 0.53707 0.0
C219 C 0.84528 0.90401 0.5331 0.0
O220 O 0.8039 0.88657 0.55821 0.0
O221 O 0.81548 0.86023 0.5516 0.0
O222 O 0.80331 0.89783 0.50564 0.0
O223 O 0.80593 0.87188 0.5167 0.0
Co224 Co 0.93123 0.07521 0.27908 0.0
O225 O 0.9343 0.10461 0.28297 0.0
O226 O 0.90974 0.08541 0.27183 0.0
C227 C 0.94597 0.07308 0.30928 0.0
O228 O 0.91901 0.04505 0.27464 0.0
Co229 Co 0.95853 0.0498 0.27809 0.0
O230 O 0.93902 0.027 0.27754 0.0
C231 C 0.95372 0.06668 0.2435 0.0
C232 C 0.91782 0.10332 0.27708 0.0
C233 C 0.92298 0.0283 0.2752 0.0
O234 O 0.94037 0.07335 0.25084 0.0
O235 O 0.963 0.05821 0.25316 0.0
O236 O 0.93015 0.07652 0.30778 0.0
O237 O 0.95268 0.07237 0.29314 0.0
Co238 Co 0.29203 0.64732 0.52079 0.0
O239 O 0.31695 0.65261 0.52632 0.0
O240 O 0.29826 0.62513 0.5281 0.0
C241 C 0.29187 0.65817 0.49353 0.0
O242 O 0.2658 0.63688 0.51574 0.0
Co243 Co 0.27299 0.68109 0.51777 0.0
O244 O 0.25233 0.65983 0.50833 0.0
C245 C 0.28437 0.67368 0.55499 0.0
C246 C 0.31441 0.63511 0.52949 0.0
C247 C 0.25206 0.64255 0.51029 0.0
O248 O 0.28883 0.65801 0.5478 0.0
O249 O 0.28026 0.68576 0.54535 0.0
O250 O 0.29447 0.64096 0.49357 0.0
O251 O 0.29169 0.66871 0.50992 0.0
Co252 Co 0.43204 0.57562 0.77914 0.0
O253 O 0.43531 0.60503 0.78274 0.0
O254 O 0.41057 0.58582 0.77219 0.0
C255 C 0.44673 0.57371 0.80943 0.0
O256 O 0.41948 0.54562 0.77474 0.0
Co257 Co 0.45848 0.54942 0.77886 0.0
O258 O 0.43873 0.52785 0.78148 0.0
C259 C 0.45494 0.56698 0.74421 0.0
C260 C 0.41872 0.60371 0.77722 0.0
C261 C 0.42292 0.52917 0.77749 0.0
O262 O 0.44137 0.57362 0.75099 0.0
O263 O 0.46366 0.55825 0.75421 0.0
O264 O 0.4309 0.57707 0.80784 0.0
O265 O 0.45342 0.57272 0.79328 0.0
Co266 Co 0.68643 0.0377 0.75085 0.0
O267 O 0.67934 0.01051 0.74497 0.0
O268 O 0.70496 0.02806 0.73903 0.0
C269 C 0.67806 0.04046 0.78003 0.0
O270 O 0.69812 0.06553 0.75534 0.0
Co271 Co 0.65936 0.06362 0.7618 0.0
O272 O 0.68084 0.08428 0.76918 0.0
C273 C 0.66081 0.04444 0.72205 0.0
C274 C 0.69486 0.01124 0.73887 0.0
C275 C 0.6955 0.08187 0.7632 0.0
O276 O 0.67541 0.03975 0.72596 0.0
O277 O 0.65183 0.05213 0.73444 0.0
O278 O 0.69339 0.03649 0.77715 0.0
O279 O 0.6682 0.04124 0.76527 0.0
Co280 Co 0.79908 0.68565 0.00372 0.0
O281 O 0.82473 0.69135 0.00636 0.0
O282 O 0.80769 0.66384 0.00984 0.0
C283 C 0.79726 0.697 0.97609 0.0
O284 O 0.77237 0.67341 1.00153 0.0
Co285 Co 0.77716 0.71633 0.00309 0.0
O286 O 0.75622 0.6947 0.9961 0.0
C287 C 0.79564 0.7135 0.03944 0.0
C288 C 0.82352 0.67389 0.00933 0.0
C289 C 0.75733 0.67772 0.99793 0.0
O290 O 0.79877 0.69715 0.03171 0.0
O291 O 0.7888 0.72415 0.02991 0.0
O292 O 0.79935 0.6796 0.976 0.0
O293 O 0.79705 0.70729 0.99268 0.0
Co294 Co 0.91855 0.54727 0.80616 0.0
O295 O 0.92266 0.57417 0.80609 0.0
O296 O 0.89745 0.55225 0.79598 0.0
C297 C 0.92993 0.54909 0.83533 0.0
O298 O 0.90927 0.5193 0.80465 0.0
Co299 Co 0.94923 0.52612 0.81069 0.0
O300 O 0.93011 0.50331 0.81104 0.0
C301 C 0.94128 0.53847 0.77477 0.0
C302 C 0.90615 0.57004 0.79938 0.0
C303 C 0.91408 0.50401 0.80729 0.0
O304 O 0.92684 0.54241 0.78032 0.0
O305 O 0.95283 0.53382 0.78545 0.0
O306 O 0.91403 0.55177 0.83265 0.0
O307 O 0.93904 0.54773 0.82076 0.0
Co308 Co 0.81075 0.43132 0.5094 0.0
O309 O 0.78604 0.42683 0.51054 0.0
O310 O 0.80545 0.45373 0.52414 0.0
C311 C 0.80933 0.42068 0.4784 0.0
O312 O 0.83689 0.44085 0.51066 0.0
Co313 Co 0.82858 0.39682 0.49566 0.0
O314 O 0.84985 0.41755 0.49672 0.0
C315 C 0.81979 0.40561 0.5356 0.0
C316 C 0.78911 0.44434 0.52005 0.0
C317 C 0.8504 0.43481 0.50491 0.0
O318 O 0.81389 0.42029 0.53266 0.0
O319 O 0.82494 0.39405 0.52255 0.0
O320 O 0.80819 0.43833 0.48446 0.0
O321 O 0.80991 0.40983 0.4909 0.0
Co322 Co 0.67148 0.50736 0.27361 0.0
O323 O 0.66847 0.47808 0.27083 0.0
O324 O 0.69301 0.49643 0.26739 0.0
C325 C 0.65795 0.51173 0.30359 0.0
O326 O 0.68338 0.53753 0.27602 0.0
Co327 Co 0.64394 0.53183 0.2762 0.0
O328 O 0.66306 0.55544 0.27987 0.0
C329 C 0.64725 0.51139 0.23739 0.0
C330 C 0.68506 0.47896 0.26819 0.0
C331 C 0.67908 0.5544 0.27825 0.0
O332 O 0.66121 0.50591 0.24442 0.0
O333 O 0.638 0.52035 0.24842 0.0
O334 O 0.67403 0.50932 0.30246 0.0
O335 O 0.65029 0.5108 0.28683 0.0
Gd336 Gd 0.07392 0.05309 0.03431 0.0
Gd337 Gd 0.03222 0.03011 0.0111 0.0
C338 C 1.00413 0.96816 0.01286 0.0
C339 C 0.99699 0.95445 0.97923 0.0
C340 C 0.01353 0.98756 0.98921 0.0
C341 C 0.01274 0.98576 0.00811 0.0
C342 C 0.00545 0.97198 0.97455 0.0
C343 C 0.99636 0.95254 0.99834 0.0
C344 C 1.00344 0.96677 0.03208 0.0
C345 C 0.01106 0.98268 0.04605 0.0
N346 N 0.02035 1.00116 0.02187 0.0
C347 C 0.01932 0.99982 0.04072 0.0
H348 H 0.0252 0.01159 0.05204 0.0
C349 C 0.02126 0.00757 0.96664 0.0
N350 N 0.02165 1.00471 0.98511 0.0
C351 C 0.01361 0.99251 0.95165 0.0
C352 C 0.00575 0.97459 0.95561 0.0
H353 H 0.02671 0.02163 0.96352 0.0
H354 H 0.98969 0.93896 1.00175 0.0
H355 H 0.08022 0.07215 0.99339 0.0
H356 H 0.99699 0.9535 0.03628 0.0
H357 H 0.01061 0.9818 0.06099 0.0
H358 H 0.99072 0.94234 0.96817 0.0
H359 H 0.07939 0.06166 0.08186 0.0
H360 H 0.11105 0.12909 0.00908 0.0
H361 H 0.09579 0.10148 0.98444 0.0
H362 H 0.11874 0.13965 0.07712 0.0
H363 H 0.01352 0.99484 0.93708 0.0
H364 H 0.99964 0.96298 0.94398 0.0
H365 H 0.11955 0.14313 0.04355 0.0
H366 H 0.09376 0.08794 0.10823 0.0
N367 N 0.08613 0.08209 0.02358 0.0
C368 C 0.10414 0.11603 0.0133 0.0
C369 C 0.09559 0.10049 0.99937 0.0
C370 C 0.1037 0.11453 0.0325 0.0
C371 C 0.09447 0.0972 0.03727 0.0
C372 C 0.08678 0.08359 0.00472 0.0
N373 N 0.08516 0.07844 0.06023 0.0
C374 C 0.09384 0.09536 0.05615 0.0
C375 C 0.09373 0.09031 0.09368 0.0
C376 C 0.10236 0.10796 0.08971 0.0
C377 C 0.08543 0.07555 0.0787 0.0
C378 C 0.10266 0.11061 0.07079 0.0
H379 H 0.10901 0.11931 0.10132 0.0
O380 O 0.09213 0.0426 0.05159 0.0
O381 O 0.05665 0.02355 0.02386 0.0
O382 O 0.02863 0.04096 0.04304 0.0
O383 O 0.05493 0.06148 0.05669 0.0
O384 O 0.06525 0.03118 0.05245 0.0
O385 O 0.09875 0.04852 0.02381 0.0
O386 O 0.0151 0.04306 0.99525 0.0
O387 O 0.04942 0.05952 0.02193 0.0
O388 O 0.07743 0.0428 1.00227 0.0
O389 O 0.05134 0.02201 0.98856 0.0
O390 O 0.04085 0.05235 0.99328 0.0
O391 O 0.00557 0.03076 0.01932 0.0
C392 C 0.05785 0.01687 0.03921 0.0
C393 C 0.11185 0.12782 0.06609 0.0
C394 C 0.11235 0.12979 0.04699 0.0
C395 C 0.10379 0.04304 0.03927 0.0
C396 C 0.12218 0.05008 0.04691 0.0
C397 C 0.12747 0.06531 0.06251 0.0
C398 C 0.13444 0.03999 0.03929 0.0
C399 C 0.1519 0.04467 0.04743 0.0
C400 C 0.14492 0.07016 0.0706 0.0
C401 C 0.1571 0.05981 0.0632 0.0
C402 C 0.03811 0.05324 0.0579 0.0
C403 C 0.04833 0.06645 0.00674 0.0
C404 C 1.00212 0.03972 0.00569 0.0
C405 C 0.98448 0.03474 0.99556 0.0
C406 C 0.98112 0.02355 0.97717 0.0
C407 C 0.9718 0.04431 0.00313 0.0
C408 C 0.95619 0.04385 0.99199 0.0
C409 C 0.96563 0.02278 0.96607 0.0
C410 C 0.95342 0.03319 0.9732 0.0
C411 C 0.06808 0.0306 0.98727 0.0
H412 H 0.11818 0.07319 0.06869 0.0
H413 H 0.13026 0.02825 0.0272 0.0
H414 H 0.14892 0.08172 0.08281 0.0
H415 H 0.17046 0.06339 0.07002 0.0
H416 H 0.9907 0.0161 0.97106 0.0
H417 H 0.97449 0.05252 0.01754 0.0
H418 H 0.96333 0.01457 0.95167 0.0
H419 H 0.94199 0.03303 0.96378 0.0
Gd420 Gd 0.29144 0.80094 0.29623 0.0
Gd421 Gd 0.30971 0.78367 0.25214 0.0
C422 C 0.28692 0.72329 0.21757 0.0
C423 C 0.31339 0.71077 0.21299 0.0
C424 C 0.31507 0.74202 0.23314 0.0
C425 C 0.29721 0.74035 0.22889 0.0
C426 C 0.32335 0.72716 0.22531 0.0
C427 C 0.29518 0.70878 0.20921 0.0
C428 C 0.26856 0.72081 0.21589 0.0
C429 C 0.26088 0.73459 0.22631 0.0
N430 N 0.28965 0.7545 0.23753 0.0
C431 C 0.27165 0.75116 0.2374 0.0
H432 H 0.26545 0.76073 0.2465 0.0
C433 C 0.34191 0.75971 0.25026 0.0
N434 N 0.32415 0.75771 0.2457 0.0
C435 C 0.35067 0.74544 0.24278 0.0
C436 C 0.34137 0.72909 0.23023 0.0
H437 H 0.34977 0.77268 0.259 0.0
H438 H 0.28752 0.69571 0.20029 0.0
H439 H 0.33561 0.82086 0.31553 0.0
H440 H 0.26019 0.70784 0.20752 0.0
H441 H 0.24666 0.73226 0.22616 0.0
H442 H 0.31956 0.69931 0.20674 0.0
H443 H 0.25202 0.81202 0.28573 0.0
H444 H 0.33625 0.8742 0.3508 0.0
H445 H 0.35113 0.84821 0.33848 0.0
H446 H 0.27854 0.88488 0.33879 0.0
H447 H 0.3647 0.74727 0.24642 0.0
H448 H 0.34822 0.71808 0.22441 0.0
H449 H 0.30919 0.88737 0.35117 0.0
H450 H 0.23705 0.83807 0.29458 0.0
N451 N 0.31069 0.82931 0.31451 0.0
C452 C 0.32905 0.86184 0.34054 0.0
C453 C 0.33742 0.84716 0.33376 0.0
C454 C 0.31161 0.86058 0.33374 0.0
C455 C 0.30279 0.84425 0.32017 0.0
C456 C 0.32809 0.83105 0.32084 0.0
N457 N 0.27742 0.82746 0.29964 0.0
C458 C 0.28575 0.84329 0.31255 0.0
C459 C 0.25086 0.83997 0.29942 0.0
C460 C 0.25946 0.85649 0.31206 0.0
C461 C 0.25982 0.82537 0.29385 0.0
C462 C 0.27692 0.85814 0.31911 0.0
H463 H 0.2523 0.86756 0.31683 0.0
O464 O 0.26467 0.78723 0.30007 0.0
O465 O 0.29155 0.77623 0.2735 0.0
O466 O 0.28426 0.79 0.24018 0.0
O467 O 0.27383 0.80201 0.26892 0.0
O468 O 0.29232 0.77135 0.30144 0.0
O469 O 0.28326 0.80244 0.32467 0.0
O470 O 0.33598 0.79722 0.24665 0.0
O471 O 0.3103 0.808 0.27576 0.0
O472 O 0.31646 0.79227 0.30698 0.0
O473 O 0.3283 0.78257 0.27823 0.0
O474 O 0.30821 0.8137 0.24819 0.0
O475 O 0.31595 0.78314 0.22298 0.0
C476 C 0.29248 0.76384 0.28376 0.0
C477 C 0.28539 0.87377 0.33322 0.0
C478 C 0.30275 0.87509 0.34038 0.0
C479 C 0.26718 0.79285 0.31854 0.0
C480 C 0.25811 0.77996 0.3302 0.0
C481 C 0.23969 0.77722 0.33 0.0
C482 C 0.26752 0.77197 0.34277 0.0
C483 C 0.25854 0.76197 0.35564 0.0
C484 C 0.23072 0.76685 0.34262 0.0
C485 C 0.24013 0.75938 0.35557 0.0
C486 C 0.27233 0.79738 0.24986 0.0
C487 C 0.30918 0.8207 0.26613 0.0
C488 C 0.33232 0.79234 0.2282 0.0
C489 C 0.34081 0.80578 0.21669 0.0
C490 C 0.35909 0.80809 0.21558 0.0
C491 C 0.33107 0.81518 0.20584 0.0
C492 C 0.33966 0.82648 0.19367 0.0
C493 C 0.3676 0.81957 0.20355 0.0
C494 C 0.3579 0.82868 0.1925 0.0
C495 C 0.32902 0.78604 0.29723 0.0
H496 H 0.23231 0.78348 0.32038 0.0
H497 H 0.28177 0.77407 0.34304 0.0
H498 H 0.21653 0.76486 0.34255 0.0
H499 H 0.23309 0.7515 0.36546 0.0
H500 H 0.36671 0.80072 0.2238 0.0
H501 H 0.31691 0.81332 0.20644 0.0
H502 H 0.38167 0.82116 0.20259 0.0
H503 H 0.36455 0.83731 0.18292 0.0
Gd504 Gd 0.52884 0.03748 0.5299 0.0
Gd505 Gd 0.57374 0.04301 0.51611 0.0
C506 C 0.61194 0.10078 0.52002 0.0
C507 C 0.61663 0.10133 0.48677 0.0
C508 C 0.59714 0.07379 0.49548 0.0
C509 C 0.60047 0.08249 0.51456 0.0
C510 C 0.6054 0.08302 0.48141 0.0
C511 C 0.61986 0.11019 0.50602 0.0
C512 C 0.61516 0.10904 0.53941 0.0
C513 C 0.60727 0.09899 0.55286 0.0
N514 N 0.59252 0.07314 0.52781 0.0
C515 C 0.59607 0.08088 0.54681 0.0
H516 H 0.59019 0.07331 0.55744 0.0
C517 C 0.58358 0.04644 0.47218 0.0
N518 N 0.58608 0.05617 0.49067 0.0
C519 C 0.59147 0.05505 0.45778 0.0
C520 C 0.6023 0.07348 0.46238 0.0
H521 H 0.57537 0.03211 0.46849 0.0
H522 H 0.62863 0.12428 0.50994 0.0
H523 H 0.51218 0.00888 0.48763 0.0
H524 H 0.62382 0.12309 0.54415 0.0
H525 H 0.6098 0.10517 0.5679 0.0
H526 H 0.623 0.10869 0.47615 0.0
H527 H 0.52686 0.04662 0.57706 0.0
H528 H 0.47675 0.95924 0.49872 0.0
H529 H 0.49153 0.97804 0.47593 0.0
H530 H 0.47736 0.97085 0.56675 0.0
H531 H 0.58924 0.04742 0.44316 0.0
H532 H 0.60841 0.0801 0.45118 0.0
H533 H 0.47171 0.95659 0.53259 0.0
H534 H 0.51218 0.03077 0.60173 0.0
N535 N 0.50967 0.00781 0.51703 0.0
C536 C 0.48597 0.97281 0.504 0.0
C537 C 0.49426 0.98336 0.4911 0.0
C538 C 0.48939 0.98011 0.52357 0.0
C539 C 0.5014 0.99793 0.52974 0.0
C540 C 0.50602 1.00097 0.49788 0.0
N541 N 0.51601 0.02322 0.55436 0.0
C542 C 0.50469 1.00585 0.54897 0.0
C543 C 0.51005 0.02354 0.58697 0.0
C544 C 0.49888 1.00532 0.58177 0.0
C545 C 0.51839 0.03245 0.57297 0.0
C546 C 0.49591 0.99634 0.56256 0.0
H547 H 0.49235 0.99849 0.59263 0.0
O548 O 0.51701 0.06103 0.54183 0.0
O549 O 0.55331 0.05921 0.52701 0.0
O550 O 0.57086 0.04252 0.54704 0.0
O551 O 0.5434 0.02346 0.54926 0.0
O552 O 0.54254 0.06239 0.5526 0.0
O553 O 0.50482 0.04217 0.5157 0.0
O554 O 0.58469 0.01762 0.50859 0.0
O555 O 0.54902 0.02156 0.51841 0.0
O556 O 0.53085 0.03954 0.49904 0.0
O557 O 0.55946 0.05569 0.49558 0.0
O558 O 0.56072 0.01755 0.49346 0.0
O559 O 0.59951 0.04155 0.52917 0.0
C560 C 0.55404 0.07086 0.54269 0.0
C561 C 0.48418 0.97842 0.55652 0.0
C562 C 0.48095 0.97031 0.53707 0.0
C563 C 0.5039 0.05692 0.52868 0.0
C564 C 0.48656 0.05811 0.53557 0.0
C565 C 0.48015 0.04787 0.54968 0.0
C566 C 0.47692 0.07075 0.52911 0.0
C567 C 0.46088 0.0728 0.53659 0.0
C568 C 0.46443 0.05016 0.55731 0.0
C569 C 0.4548 0.06249 0.55078 0.0
C570 C 0.56031 0.02988 0.55484 0.0
C571 C 0.54821 0.00986 0.50277 0.0
C572 C 0.59938 0.0246 0.51929 0.0
C573 C 0.61544 0.0217 0.51017 0.0
C574 C 0.61938 0.02912 0.49365 0.0
C575 C 0.62619 0.01024 0.517 0.0
C576 C 0.64077 0.00635 0.50726 0.0
C577 C 0.6334 0.02489 0.4837 0.0
C578 C 0.64394 0.01351 0.49034 0.0
C579 C 0.54264 0.04936 0.48977 0.0
H580 H 0.48738 0.03829 0.555 0.0
H581 H 0.48181 0.07885 0.51831 0.0
H582 H 0.45967 0.04235 0.56832 0.0
H583 H 0.44257 0.06402 0.55683 0.0
H584 H 0.6115 0.03797 0.48822 0.0
H585 H 0.6233 1.00456 0.52986 0.0
H586 H 0.63608 0.03041 0.47075 0.0
H587 H 0.65465 0.01031 0.48216 0.0
Gd588 Gd 0.32398 0.28675 0.77033 0.0
Gd589 Gd 0.28014 0.29482 0.77457 0.0
C590 C 0.25323 0.28245 0.71364 0.0
C591 C 0.25287 0.3146 0.70804 0.0
C592 C 0.26501 0.3101 0.73872 0.0
C593 C 0.26127 0.29035 0.73233 0.0
C594 C 0.26024 0.32235 0.72681 0.0
C595 C 0.24944 0.2947 0.70145 0.0
C596 C 0.24911 0.26245 0.70775 0.0
C597 C 0.25232 0.25078 0.72058 0.0
N598 N 0.26505 0.2788 0.74447 0.0
C599 C 0.26002 0.25917 0.73898 0.0
H600 H 0.26171 0.24956 0.74847 0.0
C601 C 0.27262 0.33609 0.76475 0.0
N602 N 0.27216 0.31726 0.75693 0.0
C603 C 0.26821 0.34878 0.7535 0.0
C604 C 0.26235 0.34197 0.73431 0.0
H605 H 0.2765 0.34148 0.77978 0.0
H606 H 0.24347 0.28888 0.68703 0.0
H607 H 0.34272 0.33138 0.79744 0.0
H608 H 0.24307 0.25588 0.6935 0.0
H609 H 0.24875 0.23525 0.71639 0.0
H610 H 0.24935 0.32383 0.69866 0.0
H611 H 0.32756 0.23999 0.76359 0.0
H612 H 0.36111 0.32333 0.85187 0.0
H613 H 0.3557 0.3448 0.82978 0.0
H614 H 0.35467 0.25518 0.84463 0.0
H615 H 0.26914 0.36376 0.75971 0.0
H616 H 0.2588 0.3518 0.72564 0.0
H617 H 0.36055 0.28994 0.85729 0.0
H618 H 0.33505 0.217 0.78274 0.0
N619 N 0.33918 0.30189 0.80061 0.0
C620 C 0.35512 0.31717 0.83752 0.0
C621 C 0.35207 0.32932 0.82511 0.0
C622 C 0.35088 0.29725 0.83108 0.0
C623 C 0.34285 0.2899 0.8123 0.0
C624 C 0.34436 0.32145 0.80659 0.0
N625 N 0.33196 0.26361 0.78705 0.0
C626 C 0.33908 0.27024 0.80535 0.0
C627 C 0.33596 0.23184 0.7894 0.0
C628 C 0.34178 0.23809 0.80865 0.0
C629 C 0.33152 0.24493 0.77866 0.0
C630 C 0.34384 0.25755 0.81676 0.0
H631 H 0.34536 0.22795 0.81693 0.0
O632 O 0.33647 0.27134 0.74779 0.0
O633 O 0.29722 0.28149 0.75431 0.0
O634 O 0.27726 0.26365 0.77781 0.0
O635 O 0.30377 0.25675 0.76826 0.0
O636 O 0.31833 0.29695 0.74332 0.0
O637 O 0.35136 0.29771 0.76514 0.0
O638 O 0.26777 0.31069 0.79685 0.0
O639 O 0.30688 0.29992 0.79054 0.0
O640 O 0.32697 0.31832 0.76802 0.0
O641 O 0.30025 0.32484 0.7773 0.0
O642 O 0.28564 0.28468 0.80163 0.0
O643 O 0.25273 0.28415 0.77988 0.0
C644 C 0.30199 0.28853 0.7398 0.0
C645 C 0.35117 0.26475 0.83563 0.0
C646 C 0.3546 0.28455 0.8428 0.0
C647 C 0.35141 0.28406 0.75068 0.0
C648 C 0.36807 0.27712 0.74802 0.0
C649 C 0.37112 0.26189 0.75658 0.0
C650 C 0.38096 0.28548 0.73664 0.0
C651 C 0.3967 0.27852 0.73412 0.0
C652 C 0.38626 0.25469 0.75375 0.0
C653 C 0.39886 0.26282 0.74264 0.0
C654 C 0.28748 0.25122 0.77371 0.0
C655 C 0.30208 0.29273 0.80497 0.0
C656 C 0.25281 0.29801 0.79418 0.0
C657 C 0.2362 0.30497 0.79701 0.0
C658 C 0.23343 0.3208 0.78927 0.0
C659 C 0.22317 0.29615 0.80794 0.0
C660 C 0.20753 0.30319 0.81082 0.0
C661 C 0.21828 0.32796 0.79233 0.0
C662 C 0.2055 0.31931 0.80296 0.0
C663 C 0.31664 0.33062 0.77228 0.0
H664 H 0.36179 0.25542 0.76545 0.0
H665 H 0.37886 0.29742 0.73009 0.0
H666 H 0.38829 0.24272 0.76026 0.0
H667 H 0.41041 0.25672 0.7407 0.0
H668 H 0.243 0.32778 0.78093 0.0
H669 H 0.22511 0.28384 0.81397 0.0
H670 H 0.21641 0.34033 0.78641 0.0
H671 H 0.19395 0.32537 0.80514 0.0
Gd672 Gd 0.05561 0.01872 0.51038 0.0
Gd673 Gd 0.04731 0.06275 0.5304 0.0
C674 C 0.06335 0.09526 0.59177 0.0
C675 C 0.03527 0.10074 0.60207 0.0
C676 C 0.03667 0.0827 0.57036 0.0
C677 C 0.05471 0.08501 0.57397 0.0
C678 C 0.02678 0.09076 0.58429 0.0
C679 C 0.05351 0.10296 0.60581 0.0
C680 C 0.08164 0.09759 0.59495 0.0
C681 C 0.0909 0.08983 0.58061 0.0
N682 N 0.06385 0.07741 0.56007 0.0
C683 C 0.08182 0.07981 0.56324 0.0
H684 H 0.08947 0.07353 0.55287 0.0
C685 C 0.01134 0.07215 0.54822 0.0
N686 N 0.02887 0.07328 0.55296 0.0
C687 C 1.00096 0.07972 0.5616 0.0
C688 C 0.00869 0.08898 0.57976 0.0
H689 H 0.00536 0.06529 0.53407 0.0
H690 H 0.05993 0.11083 0.61954 0.0
H691 H 0.01422 1.00603 0.48662 0.0
H692 H 0.08872 0.10532 0.60843 0.0
H693 H 0.10505 0.09139 0.58295 0.0
H694 H 0.02788 0.107 0.61294 0.0
H695 H 0.09756 0.0149 0.50919 0.0
H696 H 0.01795 0.97941 0.42973 0.0
H697 H 1.00011 0.99037 0.45518 0.0
H698 H 0.0793 0.97896 0.42801 0.0
H699 H 0.98705 0.07857 0.55784 0.0
H700 H 1.00066 0.09501 0.59006 0.0
H701 H 0.0475 0.97538 0.41971 0.0
H702 H 0.11711 1.00309 0.48607 0.0
N703 N 0.04048 1.00475 0.47988 0.0
C704 C 0.02439 0.98643 0.44371 0.0
C705 C 0.01428 0.99255 0.45802 0.0
C706 C 0.04263 0.9891 0.44771 0.0
C707 C 0.05039 0.99835 0.46617 0.0
C708 C 0.02252 1.00151 0.47607 0.0
N709 N 0.07513 0.00863 0.48885 0.0
C710 C 0.06827 1.00044 0.47078 0.0
C711 C 0.10343 1.00236 0.48154 0.0
C712 C 0.09672 0.99455 0.4627 0.0
C713 C 0.09233 0.00907 0.49458 0.0
C714 C 0.0789 0.99324 0.45717 0.0
H715 H 0.10531 0.98919 0.45266 0.0
O716 O 0.06662 0.99914 0.52454 0.0
O717 O 0.0556 0.03717 0.53953 0.0
O718 O 0.0756 0.06672 0.52262 0.0
O719 O 0.07739 0.04014 0.50043 0.0
O720 O 0.07827 0.02817 0.53371 0.0
O721 O 0.03965 0.99039 0.51156 0.0
O722 O 0.03469 0.08224 0.51772 0.0
O723 O 0.04697 0.04413 0.50125 0.0
O724 O 0.02697 0.01556 0.51736 0.0
O725 O 0.02658 0.04115 0.54136 0.0
O726 O 0.0243 0.05308 0.50753 0.0
O727 O 0.06274 0.09054 0.52705 0.0
C728 C 0.07068 0.03628 0.54743 0.0
C729 C 0.07133 0.9845 0.43867 0.0
C730 C 0.05323 0.98245 0.43395 0.0
C731 C 0.0523 0.98576 0.52125 0.0
C732 C 0.05483 0.96615 0.51681 0.0
C733 C 0.06486 0.9603 0.50211 0.0
C734 C 0.0486 0.95373 0.5291 0.0
C735 C 0.05238 0.9354 0.52688 0.0
C736 C 0.06862 0.94198 0.49979 0.0
C737 C 0.06243 0.92954 0.51212 0.0
C738 C 0.08413 0.05789 0.50968 0.0
C739 C 0.0317 0.04487 0.4937 0.0
C740 C 0.04915 0.09538 0.51925 0.0
C741 C 0.0474 0.11524 0.52449 0.0
C742 C 0.03899 0.1215 0.54049 0.0
C743 C 0.05321 0.1278 0.51219 0.0
C744 C 0.05078 0.14666 0.51586 0.0
C745 C 0.03657 0.1404 0.54416 0.0
C746 C 0.0425 0.15302 0.53191 0.0
C747 C 0.01919 0.02394 0.53135 0.0
H748 H 0.07002 0.96994 0.49272 0.0
H749 H 0.041 0.95844 0.54058 0.0
H750 H 0.07653 0.9375 0.48859 0.0
H751 H 0.06572 0.9155 0.51035 0.0
H752 H 0.03411 0.11183 0.54991 0.0
H753 H 0.05947 0.12286 0.49963 0.0
H754 H 0.02996 0.14521 0.55641 0.0
H755 H 0.04042 0.1676 0.53476 0.0
Gd756 Gd 0.28327 0.77744 0.77461 0.0
Gd757 Gd 0.32317 0.80619 0.76832 0.0
C758 C 0.33086 0.8687 0.76083 0.0
C759 C 0.3413 0.8672 0.72931 0.0
C760 C 0.33368 0.83804 0.74263 0.0
C761 C 0.32916 0.84859 0.75901 0.0
C762 C 0.34007 0.8473 0.72775 0.0
C763 C 0.33674 0.87787 0.74582 0.0
C764 C 0.32671 0.87905 0.77775 0.0
C765 C 0.32111 0.86939 0.79238 0.0
N766 N 0.32362 0.83938 0.77339 0.0
C767 C 0.31981 0.84951 0.79006 0.0
H768 H 0.31553 0.84249 0.80166 0.0
C769 C 0.33945 0.80854 0.72704 0.0
N770 N 0.33295 0.81895 0.74176 0.0
C771 C 0.34548 0.81699 0.71175 0.0
C772 C 0.34565 0.83642 0.71202 0.0
H773 H 0.33967 0.79362 0.72696 0.0
H774 H 0.33803 0.89327 0.74694 0.0
H775 H 0.29145 0.74072 0.74181 0.0
H776 H 0.3278 0.89448 0.77965 0.0
H777 H 0.3178 0.87725 0.80549 0.0
H778 H 0.34612 0.87455 0.71799 0.0
H779 H 0.26323 0.78888 0.81356 0.0
H780 H 0.28057 0.6894 0.76489 0.0
H781 H 0.28991 0.70627 0.73861 0.0
H782 H 0.26023 0.70936 0.82544 0.0
H783 H 0.35017 0.80858 0.69988 0.0
H784 H 0.35057 0.84302 0.70027 0.0
H785 H 0.26987 0.69078 0.79738 0.0
H786 H 0.2522 0.77418 0.8406 0.0
N787 N 0.28344 0.74427 0.77016 0.0
C788 C 0.28132 0.70476 0.76653 0.0
C789 C 0.28656 0.71421 0.75166 0.0
C790 C 0.27677 0.71516 0.78317 0.0
C791 C 0.27792 0.73515 0.78459 0.0
C792 C 0.28744 0.73398 0.75365 0.0
N793 N 0.2725 0.76444 0.80067 0.0
C794 C 0.27255 0.74561 0.80043 0.0
C795 C 0.25807 0.76605 0.82952 0.0
C796 C 0.25894 0.74702 0.83011 0.0
C797 C 0.2645 0.7744 0.81433 0.0
C798 C 0.26579 0.73638 0.8152 0.0
H799 H 0.25367 0.74045 0.84173 0.0
O800 O 0.25729 0.78382 0.77363 0.0
O801 O 0.29384 0.80698 0.76714 0.0
O802 O 0.31833 0.81049 0.79909 0.0
O803 O 0.29781 0.78384 0.80355 0.0
O804 O 0.27798 0.80625 0.78874 0.0
O805 O 0.26225 0.76 0.75354 0.0
O806 O 0.34902 0.79971 0.76705 0.0
O807 O 0.3126 0.77673 0.776 0.0
O808 O 0.29028 0.77279 0.74453 0.0
O809 O 0.3073 0.80145 0.74036 0.0
O810 O 0.32856 0.77744 0.75437 0.0
O811 O 0.34504 0.82327 0.78846 0.0
C812 C 0.28537 0.81763 0.77797 0.0
C813 C 0.2653 0.71668 0.81419 0.0
C814 C 0.27075 0.70608 0.79819 0.0
C815 C 0.25064 0.76964 0.75976 0.0
C816 C 0.23301 0.75886 0.7619 0.0
C817 C 0.22993 0.7476 0.77608 0.0
C818 C 0.21874 0.76158 0.75071 0.0
C819 C 0.2015 0.75342 0.75391 0.0
C820 C 0.21268 0.73944 0.77924 0.0
C821 C 0.19844 0.74241 0.76825 0.0
C822 C 0.31033 0.7992 0.81 0.0
C823 C 0.32115 0.76613 0.76518 0.0
C824 C 0.35623 0.81355 0.7811 0.0
C825 C 0.3738 0.82408 0.77856 0.0
C826 C 0.37661 0.83643 0.76534 0.0
C827 C 0.3882 0.81988 0.78825 0.0
C828 C 0.40544 0.82774 0.78465 0.0
C829 C 0.39376 0.84436 0.76171 0.0
C830 C 0.40815 0.84001 0.77126 0.0
C831 C 0.29661 0.78488 0.73358 0.0
H832 H 0.2407 0.74535 0.78486 0.0
H833 H 0.221 0.77046 0.73988 0.0
H834 H 0.21035 0.73097 0.79035 0.0
H835 H 0.18508 0.73618 0.7709 0.0
H836 H 0.36569 0.83973 0.75765 0.0
H837 H 0.38595 0.80996 0.79816 0.0
H838 H 0.3959 0.85379 0.7514 0.0
H839 H 0.42138 0.8464 0.76836 0.0
Gd840 Gd 0.54346 0.04526 0.99713 0.0
Gd841 Gd 0.55713 0.03716 0.04544 0.0
C842 C 0.61227 0.05231 0.07677 0.0
C843 C 0.61673 0.02088 0.08094 0.0
C844 C 0.58992 0.02363 0.06336 0.0
C845 C 0.5958 0.04346 0.06642 0.0
C846 C 0.60023 0.01215 0.07085 0.0
C847 C 0.62273 0.04091 0.0839 0.0
C848 C 0.61765 0.07239 0.07991 0.0
C849 C 0.60675 0.08313 0.07272 0.0
N850 N 0.58537 0.05411 0.0594 0.0
C851 C 0.59071 0.07377 0.06232 0.0
H852 H 0.58287 0.08259 0.05672 0.0
C853 C 0.56654 0.99648 0.05274 0.0
N854 N 0.57374 0.01565 0.05394 0.0
C855 C 0.5764 0.98447 0.05959 0.0
C856 C 0.59339 0.99231 0.06855 0.0
H857 H 0.55324 0.99045 0.04624 0.0
H858 H 0.63539 0.04747 0.0919 0.0
H859 H 0.52969 0.99793 0.97169 0.0
H860 H 0.63012 0.07975 0.08793 0.0
H861 H 0.61058 0.09865 0.07532 0.0
H862 H 0.62483 0.01229 0.0868 0.0
H863 H 0.53659 0.09024 0.99795 0.0
H864 H 0.47568 0.9897 0.95226 0.0
H865 H 0.50249 0.97696 0.95637 0.0
H866 H 0.4644 0.05292 0.9639 0.0
H867 H 0.57082 0.96922 0.05819 0.0
H868 H 0.60091 0.98301 0.07409 0.0
H869 H 0.46165 0.01798 0.95518 0.0
H870 H 0.51249 0.10558 0.98984 0.0
N871 N 0.51875 0.02303 0.97894 0.0
C872 C 0.48767 0.99918 0.95961 0.0
C873 C 0.50274 0.99194 0.96195 0.0
C874 C 0.48848 0.01876 0.96591 0.0
C875 C 0.5044 0.03056 0.97552 0.0
C876 C 0.51828 1.00413 0.97123 0.0
N877 N 0.52126 0.06148 0.98956 0.0
C878 C 0.50576 0.05028 0.98083 0.0
C879 C 0.51033 0.09002 0.98739 0.0
C880 C 0.49389 0.07868 0.97983 0.0
C881 C 0.52399 0.08119 0.99186 0.0
C882 C 0.49151 0.05861 0.97615 0.0
H883 H 0.4833 0.08557 0.97635 0.0
O884 O 0.55797 0.07046 0.98773 0.0
O885 O 0.56412 0.05276 0.02191 0.0
O886 O 0.55435 0.06752 0.04576 0.0
O887 O 0.53461 0.06582 0.01973 0.0
O888 O 0.57205 0.04522 0.99488 0.0
O889 O 0.55103 0.04193 0.96866 0.0
O890 O 0.53561 0.02868 0.06236 0.0
O891 O 0.53611 0.03582 0.02336 0.0
O892 O 0.54778 0.01546 0.9969 0.0
O893 O 0.5669 0.01622 0.0238 0.0
O894 O 0.53324 0.01224 0.03675 0.0
O895 O 0.55797 0.0512 0.07499 0.0
C896 C 0.57713 0.05069 0.01268 0.0
C897 C 0.47552 0.04677 0.96735 0.0
C898 C 0.47398 0.02689 0.96235 0.0
C899 C 0.55885 0.0602 0.97098 0.0
C900 C 0.55924 0.069 0.95421 0.0
C901 C 0.55413 0.08641 0.95343 0.0
C902 C 0.56735 0.06041 0.93931 0.0
C903 C 0.5716 0.06954 0.92404 0.0
C904 C 0.55736 0.09511 0.93754 0.0
C905 C 0.56627 0.08685 0.92293 0.0
C906 C 0.54229 0.07408 0.0368 0.0
C907 C 0.52625 0.02007 0.02415 0.0
C908 C 0.5433 0.04013 0.07777 0.0
C909 C 0.54317 0.03127 0.09456 0.0
C910 C 0.55511 0.01989 0.09838 0.0
C911 C 0.52967 0.0331 0.10617 0.0
C912 C 0.52787 0.02363 0.12162 0.0
C913 C 0.55337 0.01036 0.11386 0.0
C914 C 0.53978 0.01225 0.12555 0.0
C915 C 0.56001 0.0091 0.00601 0.0
H916 H 0.54808 0.09342 0.9651 0.0
H917 H 0.57135 0.04698 0.94016 0.0
H918 H 0.55357 0.10862 0.93688 0.0
H919 H 0.56958 0.09433 0.91127 0.0
H920 H 0.56565 0.01832 0.08951 0.0
H921 H 0.52054 0.04203 0.10319 0.0
H922 H 0.56253 1.00151 0.11676 0.0
H923 H 0.53851 1.00483 0.13754 0.0
Gd924 Gd 0.28653 0.2642 0.25995 0.0
Gd925 Gd 0.31179 0.31197 0.28129 0.0
C926 C 0.36723 0.33445 0.26539 0.0
C927 C 0.3833 0.34687 0.29657 0.0
C928 C 0.35279 0.32899 0.29376 0.0
C929 C 0.35198 0.32745 0.27415 0.0
C930 C 0.36853 0.33867 0.30517 0.0
C931 C 0.38269 0.34465 0.27671 0.0
C932 C 0.36674 0.33021 0.24553 0.0
C933 C 0.35168 0.31839 0.235 0.0
N934 N 0.33683 0.3174 0.26362 0.0
C935 C 0.3369 0.31184 0.24432 0.0
H936 H 0.32581 0.30204 0.23588 0.0
C937 C 0.33886 0.32175 0.32098 0.0
N938 N 0.33842 0.32035 0.30155 0.0
C939 C 0.35412 0.33124 0.33282 0.0
C940 C 0.36901 0.33978 0.32491 0.0
H941 H 0.32721 0.31655 0.32776 0.0
H942 H 0.39441 0.35042 0.27022 0.0
H943 H 0.26963 0.26629 0.30405 0.0
H944 H 0.3782 0.33521 0.23828 0.0
H945 H 0.35145 0.31417 0.2197 0.0
H946 H 0.39542 0.35453 0.30514 0.0
H947 H 0.27554 0.26078 0.21266 0.0
H948 H 0.21886 0.22923 0.29393 0.0
H949 H 0.24386 0.24868 0.3163 0.0
H950 H 0.20461 0.22256 0.22692 0.0
H951 H 0.35421 0.33239 0.34813 0.0
H952 H 0.38079 0.34725 0.33415 0.0
H953 H 0.20399 0.22032 0.26066 0.0
H954 H 0.24977 0.24754 0.18972 0.0
N955 N 0.26007 0.25678 0.2748 0.0
C956 C 0.22993 0.2377 0.28852 0.0
C957 C 0.24419 0.24826 0.30112 0.0
C958 C 0.23008 0.23835 0.26912 0.0
C959 C 0.24546 0.2484 0.2626 0.0
C960 C 0.25911 0.2579 0.29399 0.0
N961 N 0.26149 0.25776 0.23736 0.0
C962 C 0.24607 0.24923 0.24342 0.0
C963 C 0.24839 0.24827 0.2048 0.0
C964 C 0.23239 0.24016 0.21094 0.0
C965 C 0.26294 0.25637 0.21811 0.0
C966 C 0.2312 0.24007 0.23035 0.0
H967 H 0.22129 0.23324 0.20053 0.0
O968 O 0.2939 0.2473 0.23474 0.0
O969 O 0.31286 0.28429 0.26276 0.0
O970 O 0.30343 0.31638 0.25247 0.0
O971 O 0.28674 0.28557 0.23919 0.0
O972 O 0.31211 0.25677 0.26798 0.0
O973 O 0.27884 0.23319 0.25556 0.0
O974 O 0.30574 0.32872 0.3073 0.0
O975 O 0.2862 0.29095 0.27914 0.0
O976 O 0.29465 0.26123 0.29 0.0
O977 O 0.3116 0.29216 0.30293 0.0
O978 O 0.2849 0.31828 0.27533 0.0
O979 O 0.31836 0.34303 0.28535 0.0
C980 C 0.32235 0.273 0.267 0.0
C981 C 0.21596 0.23001 0.23681 0.0
C982 C 0.21555 0.22884 0.25607 0.0
C983 C 0.28509 0.23127 0.23889 0.0
C984 C 0.28968 0.21318 0.23126 0.0
C985 C 0.28167 0.20315 0.21335 0.0
C986 C 0.301 0.20532 0.24182 0.0
C987 C 0.30426 0.18724 0.23444 0.0
C988 C 0.28486 0.18514 0.20602 0.0
C989 C 0.29608 0.17714 0.21653 0.0
C990 C 0.29355 0.3039 0.23834 0.0
C991 C 0.27578 0.30134 0.27575 0.0
C992 C 0.31256 0.34503 0.30225 0.0
C993 C 0.30451 0.36137 0.30825 0.0
C994 C 0.3073 0.37026 0.32753 0.0
C995 C 0.29564 0.36929 0.29509 0.0
C996 C 0.29018 0.38645 0.30121 0.0
C997 C 0.30157 0.3872 0.33362 0.0
C998 C 0.29317 0.3954 0.32047 0.0
C999 C 0.30439 0.27415 0.30411 0.0
H1000 H 0.27273 0.20915 0.20518 0.0
H1001 H 0.30725 0.21326 0.25561 0.0
H1002 H 0.27854 0.17732 0.19227 0.0
H1003 H 0.29823 0.163 0.21075 0.0
H1004 H 0.31427 0.36432 0.3378 0.0
H1005 H 0.29354 0.36258 0.28013 0.0
H1006 H 0.30389 0.39411 0.34847 0.0
H1007 H 0.28895 0.40869 0.32531 0.0
Gd1008 Gd 0.55629 0.51723 0.01155 0.0
Gd1009 Gd 0.54752 0.56202 0.02915 0.0
C1010 C 0.56546 0.58839 0.09185 0.0
C1011 C 0.5379 0.59299 0.10432 0.0
C1012 C 0.53831 0.57906 0.0709 0.0
C1013 C 0.5563 0.58036 0.07372 0.0
C1014 C 0.52898 0.58579 0.08609 0.0
C1015 C 0.5561 0.59426 0.1072 0.0
C1016 C 0.58384 0.59101 0.09388 0.0
C1017 C 0.59272 0.58639 0.07794 0.0
N1018 N 0.56503 0.57502 0.05848 0.0
C1019 C 0.58312 0.57867 0.06025 0.0
H1020 H 0.59044 0.57512 0.04832 0.0
C1021 C 0.51296 0.57349 0.04913 0.0
N1022 N 0.53015 0.57245 0.05306 0.0
C1023 C 0.50311 0.5798 0.06373 0.0
C1024 C 0.51111 0.58577 0.08235 0.0
H1025 H 0.5068 0.56915 0.03466 0.0
H1026 H 0.5629 0.60035 0.12122 0.0
H1027 H 0.5134 0.50435 0.99257 0.0
H1028 H 0.59134 0.59711 0.10755 0.0
H1029 H 0.60698 0.58871 0.07924 0.0
H1030 H 0.53093 0.59811 0.11617 0.0
H1031 H 0.59707 0.51026 0.00598 0.0
H1032 H 0.51203 0.47952 0.93416 0.0
H1033 H 0.49664 0.48946 0.96208 0.0
H1034 H 0.57251 0.47973 0.92481 0.0
H1035 H 0.48943 0.58021 0.06059 0.0
H1036 H 0.50351 0.59086 0.09363 0.0
H1037 H 0.54042 0.4768 0.92005 0.0
H1038 H 0.61436 0.49897 0.9801 0.0
N1039 N 0.53874 0.50397 0.98234 0.0
C1040 C 0.51967 0.48658 0.94745 0.0
C1041 C 0.51092 0.49195 0.96326 0.0
C1042 C 0.53807 0.48956 0.94924 0.0
C1043 C 0.54736 0.49823 0.96716 0.0
C1044 C 0.52064 0.50039 0.9807 0.0
N1045 N 0.5736 0.50663 0.98764 0.0
C1046 C 0.56537 0.49971 0.96987 0.0
C1047 C 0.60063 0.49923 0.97699 0.0
C1048 C 0.59256 0.49296 0.95842 0.0
C1049 C 0.59081 0.50564 0.99157 0.0
C1050 C 0.57463 0.49274 0.95474 0.0
H1051 H 0.60013 0.48776 0.94717 0.0
O1052 O 0.56897 0.49808 0.02468 0.0
O1053 O 0.55606 0.53701 0.03963 0.0
O1054 O 0.57472 0.56701 0.01832 0.0
O1055 O 0.58001 0.53766 0.0041 0.0
O1056 O 0.57902 0.52757 0.03455 0.0
O1057 O 0.54134 0.48887 0.0139 0.0
O1058 O 0.53508 0.58061 0.01499 0.0
O1059 O 0.54748 0.54211 1.00084 0.0
O1060 O 0.52908 0.5124 0.02243 0.0
O1061 O 0.52412 0.5417 0.03725 0.0
O1062 O 0.52458 0.55138 0.00665 0.0
O1063 O 0.56189 0.59114 0.02823 0.0
C1064 C 0.57124 0.53642 0.04758 0.0
C1065 C 0.5656 0.48504 0.93663 0.0
C1066 C 0.54733 0.4834 0.93391 0.0
C1067 C 0.55477 0.48456 0.02251 0.0
C1068 C 0.55717 0.46495 0.01792 0.0
C1069 C 0.56606 0.45867 1.00235 0.0
C1070 C 0.55186 0.4529 0.0308 0.0
C1071 C 0.5557 0.43462 0.02853 0.0
C1072 C 0.56986 0.44036 0.99997 0.0
C1073 C 0.56483 0.42839 0.01308 0.0
C1074 C 0.58478 0.55654 0.0092 0.0
C1075 C 0.53207 0.54262 0.99325 0.0
C1076 C 0.54878 0.59479 0.01843 0.0
C1077 C 0.54526 0.61404 0.0223 0.0
C1078 C 0.5327 0.61869 0.03454 0.0
C1079 C 0.55298 0.62709 0.01125 0.0
C1080 C 0.54757 0.64449 0.01149 0.0
C1081 C 0.52741 0.6361 0.03513 0.0
C1082 C 0.53458 0.64883 0.02349 0.0
C1083 C 0.51918 0.52285 0.0319 0.0
H1084 H 0.57028 0.46795 0.99233 0.0
H1085 H 0.54529 0.45805 0.04304 0.0
H1086 H 0.57687 0.43552 0.98807 0.0
H1087 H 0.56791 0.41425 0.01107 0.0
H1088 H 0.52665 0.60875 0.04319 0.0
H1089 H 0.56292 0.62335 1.00212 0.0
H1090 H 0.51744 0.63953 0.0443 0.0
H1091 H 0.52972 0.66188 0.0237 0.0
Gd1092 Gd 0.78252 0.27862 0.27653 0.0
Gd1093 Gd 0.82257 0.30642 0.2676 0.0
C1094 C 0.8261 0.36661 0.25419 0.0
C1095 C 0.83665 0.3632 0.2227 0.0
C1096 C 0.8314 0.33586 0.239 0.0
C1097 C 0.82601 0.34705 0.25434 0.0
C1098 C 0.83718 0.34395 0.22321 0.0
C1099 C 0.83109 0.37449 0.23815 0.0
C1100 C 0.82169 0.37785 0.27039 0.0
C1101 C 0.81803 0.36977 0.28647 0.0
N1102 N 0.82178 0.33919 0.26988 0.0
C1103 C 0.81852 0.35047 0.28614 0.0
H1104 H 0.81582 0.34467 0.29886 0.0
C1105 C 0.83976 0.30677 0.22656 0.0
N1106 N 0.83218 0.31745 0.24009 0.0
C1107 C 0.84541 0.31407 0.21051 0.0
C1108 C 0.84393 0.33267 0.20871 0.0
H1109 H 0.8412 0.29251 0.22804 0.0
H1110 H 0.83116 0.38946 0.23777 0.0
H1111 H 0.78868 0.2418 0.24237 0.0
H1112 H 0.82146 0.39287 0.27078 0.0
H1113 H 0.81467 0.37836 0.29908 0.0
H1114 H 0.84094 0.36964 0.21065 0.0
H1115 H 0.7645 0.28963 0.31692 0.0
H1116 H 0.78391 0.19149 0.26694 0.0
H1117 H 0.78979 0.20801 0.23969 0.0
H1118 H 0.76622 0.21099 0.32898 0.0
H1119 H 0.85104 0.30542 0.19962 0.0
H1120 H 0.8485 0.33838 0.19636 0.0
H1121 H 0.77536 0.19282 0.30033 0.0
H1122 H 0.75563 0.2748 0.34469 0.0
N1123 N 0.78325 0.24557 0.27167 0.0
C1124 C 0.78357 0.2066 0.2684 0.0
C1125 C 0.78667 0.21579 0.25291 0.0
C1126 C 0.7796 0.21688 0.28542 0.0
C1127 C 0.77951 0.2366 0.28663 0.0
C1128 C 0.78616 0.23523 0.25466 0.0
N1129 N 0.77359 0.26546 0.30311 0.0
C1130 C 0.77448 0.24684 0.30282 0.0
C1131 C 0.76109 0.26685 0.33311 0.0
C1132 C 0.76284 0.24804 0.33356 0.0
C1133 C 0.76623 0.27525 0.3175 0.0
C1134 C 0.76927 0.23765 0.31814 0.0
H1135 H 0.75869 0.24148 0.34559 0.0
O1136 O 0.75661 0.285 0.27821 0.0
O1137 O 0.79329 0.30736 0.26789 0.0
O1138 O 0.81822 0.31253 0.29844 0.0
O1139 O 0.79848 0.28618 0.30478 0.0
O1140 O 0.77775 0.30792 0.29013 0.0
O1141 O 0.76045 0.26166 0.25654 0.0
O1142 O 0.84848 0.29979 0.26845 0.0
O1143 O 0.81176 0.27769 0.27636 0.0
O1144 O 0.78657 0.27362 0.24553 0.0
O1145 O 0.80723 0.29923 0.23926 0.0
O1146 O 0.82765 0.27703 0.25456 0.0
O1147 O 0.84423 0.32521 0.28686 0.0
C1148 C 0.78542 0.31856 0.27889 0.0
C1149 C 0.77004 0.21826 0.3173 0.0
C1150 C 0.77523 0.2079 0.30098 0.0
C1151 C 0.74929 0.27126 0.26412 0.0
C1152 C 0.73167 0.26053 0.26644 0.0
C1153 C 0.72789 0.25313 0.28302 0.0
C1154 C 0.718 0.25958 0.25251 0.0
C1155 C 0.70043 0.2519 0.25531 0.0
C1156 C 0.71048 0.24538 0.28588 0.0
C1157 C 0.69678 0.24491 0.27222 0.0
C1158 C 0.81104 0.30174 0.3102 0.0
C1159 C 0.81966 0.26633 0.26557 0.0
C1160 C 0.85554 0.31494 0.28116 0.0
C1161 C 0.87304 0.32508 0.27784 0.0
C1162 C 0.87564 0.33571 0.26315 0.0
C1163 C 0.88758 0.32243 0.28864 0.0
C1164 C 0.90473 0.32992 0.28453 0.0
C1165 C 0.89274 0.34332 0.25908 0.0
C1166 C 0.90727 0.34035 0.26963 0.0
C1167 C 0.79456 0.2839 0.23381 0.0
H1168 H 0.73824 0.25368 0.2939 0.0
H1169 H 0.72107 0.26525 0.23968 0.0
H1170 H 0.70755 0.24006 0.29889 0.0
H1171 H 0.68333 0.23947 0.27512 0.0
H1172 H 0.86458 0.33793 0.2547 0.0
H1173 H 0.88553 0.31393 0.29981 0.0
H1174 H 0.89473 0.35139 0.24762 0.0
H1175 H 0.92046 0.34628 0.26627 0.0
Gd1176 Gd 0.04355 0.5448 0.49915 0.0
Gd1177 Gd 0.05808 0.53594 0.54686 0.0
C1178 C 0.11165 0.56182 0.58046 0.0
C1179 C 0.12279 0.53323 0.58311 0.0
C1180 C 0.09464 0.53038 0.5649 0.0
C1181 C 0.0964 0.55025 0.56939 0.0
C1182 C 0.10777 0.5217 0.57193 0.0
C1183 C 0.12474 0.55322 0.58733 0.0
C1184 C 0.11349 0.58179 0.58416 0.0
C1185 C 0.1008 0.58991 0.57611 0.0
N1186 N 0.08361 0.55832 0.56243 0.0
C1187 C 0.08606 0.578 0.56503 0.0
H1188 H 0.07718 0.58499 0.55823 0.0
C1189 C 0.07721 0.49976 0.55081 0.0
N1190 N 0.08012 0.51949 0.55382 0.0
C1191 C 0.08986 0.4906 0.55738 0.0
C1192 C 0.1053 0.50162 0.56785 0.0
H1193 H 0.0651 0.49099 0.54308 0.0
H1194 H 0.13649 0.56194 0.59588 0.0
H1195 H 0.02438 0.49922 0.47499 0.0
H1196 H 0.12486 0.59103 0.5929 0.0
H1197 H 0.10237 0.6054 0.57831 0.0
H1198 H 0.13298 0.52679 0.5886 0.0
H1199 H 0.04361 0.59149 0.50092 0.0
H1200 H 0.97343 0.49976 0.45093 0.0
H1201 H 0.99689 0.48236 0.45652 0.0
H1202 H 0.9714 0.56616 0.46294 0.0
H1203 H 0.0876 0.47503 0.55453 0.0
H1204 H 0.11506 0.49447 0.57305 0.0
H1205 H 0.96399 0.53096 0.45363 0.0
H1206 H 0.02328 0.61159 0.49253 0.0
N1207 N 0.01707 0.52648 0.48137 0.0
C1208 C 0.98558 0.50738 0.45945 0.0
C1209 C 0.99879 0.49754 0.46249 0.0
C1210 C 0.98851 0.52712 0.46669 0.0
C1211 C 1.00456 0.53644 0.47781 0.0
C1212 C 0.0146 0.50739 0.47315 0.0
N1213 N 0.02442 0.56508 0.49319 0.0
C1214 C 0.00836 0.55628 0.48384 0.0
C1215 C 0.01881 0.59608 0.49025 0.0
C1216 C 1.00174 0.58735 0.48214 0.0
C1217 C 0.03022 0.58465 0.49508 0.0
C1218 C 0.99653 0.56725 0.47822 0.0
H1219 H 0.99301 0.59622 0.47805 0.0
O1220 O 0.05934 0.56477 0.48446 0.0
O1221 O 0.06371 0.55269 0.5243 0.0
O1222 O 0.05049 0.56422 0.55178 0.0
O1223 O 0.03646 0.56674 0.52249 0.0
O1224 O 0.07295 0.55093 0.49773 0.0
O1225 O 0.04883 0.53466 0.47025 0.0
O1226 O 0.04426 0.51069 0.55663 0.0
O1227 O 0.03749 0.52837 0.52213 0.0
O1228 O 0.04562 0.51438 0.49941 0.0
O1229 O 0.06778 0.51714 0.52314 0.0
O1230 O 0.0293 0.53427 0.54941 0.0
O1231 O 0.05446 0.53855 0.57687 0.0
C1232 C 0.07732 0.55383 0.51563 0.0
C1233 C 0.98043 0.55793 0.46766 0.0
C1234 C 0.97631 0.53789 0.46217 0.0
C1235 C 0.05796 0.55175 0.46901 0.0
C1236 C 0.05598 0.55837 0.45117 0.0
C1237 C 0.04188 0.56645 0.44602 0.0
C1238 C 0.06963 0.55761 0.43961 0.0
C1239 C 0.06942 0.56454 0.42257 0.0
C1240 C 0.04172 0.5738 0.42912 0.0
C1241 C 0.05549 0.57291 0.41738 0.0
C1242 C 0.04129 0.57266 0.54103 0.0
C1243 C 0.02442 0.52934 0.53152 0.0
C1244 C 0.04627 0.52034 0.57414 0.0
C1245 C 0.03955 0.51143 0.58969 0.0
C1246 C 0.04364 0.49406 0.59268 0.0
C1247 C 0.02859 0.52015 0.60137 0.0
C1248 C 0.02176 0.51162 0.61622 0.0
C1249 C 0.03699 0.48566 0.60775 0.0
C1250 C 0.02609 0.49445 0.6196 0.0
C1251 C 0.05993 0.50956 0.50596 0.0
H1252 H 0.03123 0.56723 0.45502 0.0
H1253 H 0.08067 0.55174 0.44408 0.0
H1254 H 0.03092 0.58014 0.4251 0.0
H1255 H 0.05511 0.57839 0.4042 0.0
H1256 H 0.05204 0.48717 0.5835 0.0
H1257 H 0.02521 0.53344 0.5988 0.0
H1258 H 0.04022 0.47231 0.6102 0.0
H1259 H 0.02084 0.48776 0.63115 0.0
Gd1260 Gd 0.82475 0.78399 0.27309 0.0
Gd1261 Gd 0.78123 0.79667 0.27234 0.0
C1262 C 0.75326 0.7852 0.21199 0.0
C1263 C 0.75205 0.81753 0.20748 0.0
C1264 C 0.76465 0.81232 0.23755 0.0
C1265 C 0.76169 0.79286 0.23051 0.0
C1266 C 0.75929 0.82483 0.22638 0.0
C1267 C 0.74905 0.79772 0.20028 0.0
C1268 C 0.74847 0.76519 0.20617 0.0
C1269 C 0.75133 0.75339 0.21903 0.0
N1270 N 0.7656 0.78125 0.2424 0.0
C1271 C 0.75978 0.76166 0.2372 0.0
H1272 H 0.76198 0.75206 0.24657 0.0
C1273 C 0.77117 0.83713 0.26473 0.0
N1274 N 0.77125 0.81875 0.25597 0.0
C1275 C 0.76624 0.85018 0.25422 0.0
C1276 C 0.76059 0.8441 0.23485 0.0
H1277 H 0.77558 0.84186 0.27972 0.0
H1278 H 0.7428 0.79214 0.18593 0.0
H1279 H 0.84662 0.82849 0.29665 0.0
H1280 H 0.74197 0.75875 0.19208 0.0
H1281 H 0.74724 0.73788 0.2149 0.0
H1282 H 0.74807 0.82695 0.19857 0.0
H1283 H 0.82882 0.73805 0.2668 0.0
H1284 H 0.86779 0.82291 0.35111 0.0
H1285 H 0.86325 0.84309 0.32737 0.0
H1286 H 0.85794 0.75476 0.34748 0.0
H1287 H 0.76678 0.86489 0.26107 0.0
H1288 H 0.75661 0.85418 0.22676 0.0
H1289 H 0.86502 0.78985 0.35881 0.0
H1290 H 0.83732 0.71537 0.2861 0.0
N1291 N 0.84131 0.79977 0.30234 0.0
C1292 C 0.86046 0.81627 0.33746 0.0
C1293 C 0.85801 0.82768 0.32407 0.0
C1294 C 0.8543 0.7963 0.33263 0.0
C1295 C 0.84499 0.78836 0.31457 0.0
C1296 C 0.84838 0.81919 0.30653 0.0
N1297 N 0.83409 0.76185 0.28994 0.0
C1298 C 0.84116 0.7687 0.30817 0.0
C1299 C 0.83832 0.73029 0.29256 0.0
C1300 C 0.84434 0.73684 0.31178 0.0
C1301 C 0.83354 0.74314 0.28169 0.0
C1302 C 0.84631 0.75636 0.31968 0.0
H1303 H 0.84816 0.72689 0.32015 0.0
O1304 O 0.83818 0.77205 0.24942 0.0
O1305 O 0.80224 0.78802 0.2544 0.0
O1306 O 0.77778 0.76499 0.27582 0.0
O1307 O 0.80522 0.75705 0.27942 0.0
O1308 O 0.8111 0.76238 0.24802 0.0
O1309 O 0.85105 0.79871 0.26719 0.0
O1310 O 0.76692 0.8091 0.29496 0.0
O1311 O 0.80389 0.79275 0.29072 0.0
O1312 O 0.82787 0.81574 0.26913 0.0
O1313 O 0.80051 0.82434 0.26807 0.0
O1314 O 0.79483 0.81791 0.29796 0.0
O1315 O 0.75606 0.78061 0.27958 0.0
C1316 C 0.80058 0.77242 0.2423 0.0
C1317 C 0.85415 0.76405 0.33831 0.0
C1318 C 0.85816 0.78402 0.34477 0.0
C1319 C 0.85237 0.7857 0.25269 0.0
C1320 C 0.86954 0.77956 0.25114 0.0
C1321 C 0.87197 0.7638 0.2592 0.0
C1322 C 0.88311 0.78834 0.24073 0.0
C1323 C 0.89878 0.78106 0.23839 0.0
C1324 C 0.88687 0.75622 0.25646 0.0
C1325 C 0.89994 0.7645 0.24602 0.0
C1326 C 0.78756 0.75237 0.27851 0.0
C1327 C 0.80576 0.80808 0.30309 0.0
C1328 C 0.75385 0.79426 0.29303 0.0
C1329 C 0.73582 0.79827 0.29415 0.0
C1330 C 0.7299 0.80927 0.28179 0.0
C1331 C 0.72472 0.79201 0.30812 0.0
C1332 C 0.708 0.797 0.3096 0.0
C1333 C 0.71355 0.81427 0.28332 0.0
C1334 C 0.70273 0.80826 0.29709 0.0
C1335 C 0.81803 0.8287 0.2679 0.0
H1336 H 0.8621 0.75696 0.26727 0.0
H1337 H 0.88142 0.80065 0.23458 0.0
H1338 H 0.88821 0.74365 0.26233 0.0
H1339 H 0.91095 0.75757 0.24378 0.0
H1340 H 0.73801 0.81416 0.27101 0.0
H1341 H 0.72911 0.78353 0.31782 0.0
H1342 H 0.70924 0.82293 0.2738 0.0
H1343 H 0.69012 0.8124 0.29796 0.0
Gd1344 Gd 0.79232 0.30254 0.79598 0.0
Gd1345 Gd 0.80934 0.28342 0.75174 0.0
C1346 C 0.78567 0.22282 0.71839 0.0
C1347 C 0.81195 0.21001 0.71339 0.0
C1348 C 0.81411 0.24152 0.73321 0.0
C1349 C 0.79617 0.23994 0.72939 0.0
C1350 C 0.82218 0.22651 0.72532 0.0
C1351 C 0.79371 0.20812 0.71002 0.0
C1352 C 0.76733 0.22054 0.71694 0.0
C1353 C 0.75986 0.23469 0.72704 0.0
N1354 N 0.78881 0.25433 0.73794 0.0
C1355 C 0.77079 0.2514 0.73771 0.0
H1356 H 0.76457 0.26154 0.74608 0.0
C1357 C 0.84135 0.25941 0.74927 0.0
N1358 N 0.82352 0.25736 0.74534 0.0
C1359 C 0.8499 0.24498 0.74176 0.0
C1360 C 0.84029 0.22843 0.72972 0.0
H1361 H 0.84937 0.2726 0.75739 0.0
H1362 H 0.78588 0.19499 0.70136 0.0
H1363 H 0.8372 0.32185 0.81308 0.0
H1364 H 0.75881 0.20752 0.70882 0.0
H1365 H 0.74565 0.23264 0.72681 0.0
H1366 H 0.81796 0.19843 0.70709 0.0
H1367 H 0.75258 0.31295 0.78993 0.0
H1368 H 0.84154 0.37916 0.84116 0.0
H1369 H 0.85455 0.35094 0.83197 0.0
H1370 H 0.78449 0.39168 0.82965 0.0
H1371 H 0.86401 0.24685 0.7449 0.0
H1372 H 0.84698 0.21729 0.72382 0.0
H1373 H 0.81565 0.39422 0.83991 0.0
H1374 H 0.73838 0.34013 0.79722 0.0
N1375 N 0.81272 0.33141 0.81192 0.0
C1376 C 0.83339 0.36595 0.83298 0.0
C1377 C 0.84072 0.35004 0.82794 0.0
C1378 C 0.81576 0.3648 0.82705 0.0
C1379 C 0.80565 0.34725 0.81626 0.0
C1380 C 0.83031 0.33299 0.81735 0.0
N1381 N 0.77873 0.32924 0.79954 0.0
C1382 C 0.78824 0.34611 0.80989 0.0
C1383 C 0.75249 0.34221 0.8005 0.0
C1384 C 0.76235 0.36001 0.8098 0.0
C1385 C 0.76082 0.32688 0.79595 0.0
C1386 C 0.78033 0.36206 0.81497 0.0
H1387 H 0.75582 0.37184 0.81359 0.0
O1388 O 0.76602 0.28902 0.80136 0.0
O1389 O 0.79143 0.27709 0.77364 0.0
O1390 O 0.784 0.29033 0.74054 0.0
O1391 O 0.77393 0.30364 0.76909 0.0
O1392 O 0.79293 0.27317 0.80195 0.0
O1393 O 0.78525 0.30551 0.82497 0.0
O1394 O 0.83518 0.2966 0.74444 0.0
O1395 O 0.81075 0.30831 0.77477 0.0
O1396 O 0.81714 0.29362 0.8066 0.0
O1397 O 0.82847 0.28284 0.7778 0.0
O1398 O 0.80848 0.31329 0.74694 0.0
O1399 O 0.81408 0.28146 0.72209 0.0
C1400 C 0.79246 0.26509 0.78435 0.0
C1401 C 0.79036 0.37935 0.82568 0.0
C1402 C 0.80805 0.38074 0.83162 0.0
C1403 C 0.76907 0.2957 0.81966 0.0
C1404 C 0.76041 0.28364 0.8322 0.0
C1405 C 0.7423 0.28243 0.83374 0.0
C1406 C 0.76988 0.27432 0.84336 0.0
C1407 C 0.76126 0.26438 0.85648 0.0
C1408 C 0.73371 0.27223 0.84668 0.0
C1409 C 0.7432 0.26333 0.85817 0.0
C1410 C 0.77229 0.29838 0.75 0.0
C1411 C 0.80967 0.32071 0.76476 0.0
C1412 C 0.83059 0.29058 0.72621 0.0
C1413 C 0.83886 0.30213 0.71295 0.0
C1414 C 0.85673 0.30262 0.71058 0.0
C1415 C 0.82909 0.3109 0.70139 0.0
C1416 C 0.83721 0.31968 0.68716 0.0
C1417 C 0.86482 0.31154 0.69654 0.0
C1418 C 0.8551 0.31998 0.68481 0.0
C1419 C 0.82946 0.28683 0.79689 0.0
H1420 H 0.73489 0.28965 0.82512 0.0
H1421 H 0.78388 0.27516 0.84221 0.0
H1422 H 0.71977 0.27139 0.84794 0.0
H1423 H 0.73648 0.25555 0.86832 0.0
H1424 H 0.86433 0.29571 0.71933 0.0
H1425 H 0.81522 0.31042 0.70305 0.0
H1426 H 0.87859 0.3118 0.69468 0.0
H1427 H 0.86158 0.32689 0.67396 0.0
Gd1428 Gd 0.78608 0.76043 0.75766 0.0
Gd1429 Gd 0.81104 0.80821 0.78089 0.0
C1430 C 0.86727 0.83231 0.76854 0.0
C1431 C 0.88234 0.84321 0.80039 0.0
C1432 C 0.85162 0.82577 0.7959 0.0
C1433 C 0.85175 0.82451 0.77641 0.0
C1434 C 0.8669 0.83527 0.80814 0.0
C1435 C 0.88253 0.84171 0.78063 0.0
C1436 C 0.86696 0.83061 0.74876 0.0
C1437 C 0.85154 0.82102 0.73738 0.0
N1438 N 0.83676 0.81539 0.76513 0.0
C1439 C 0.83663 0.8132 0.74578 0.0
H1440 H 0.82519 0.80549 0.73659 0.0
C1441 C 0.83543 0.82051 0.82221 0.0
N1442 N 0.83644 0.8181 0.80289 0.0
C1443 C 0.85027 0.82957 0.83489 0.0
C1444 C 0.86611 0.83693 0.82783 0.0
H1445 H 0.82298 0.81578 0.82788 0.0
H1446 H 0.89451 0.84791 0.77483 0.0
H1447 H 0.77563 0.73154 0.79056 0.0
H1448 H 0.87852 0.83659 0.74215 0.0
H1449 H 0.85102 0.81986 0.72212 0.0
H1450 H 0.89416 0.85064 0.80957 0.0
H1451 H 0.76847 0.76494 0.7145 0.0
H1452 H 0.7205 0.72373 0.79626 0.0
H1453 H 0.74993 0.71922 0.80665 0.0
H1454 H 0.69886 0.7466 0.74286 0.0
H1455 H 0.84936 0.83126 0.85012 0.0
H1456 H 0.87753 0.8442 0.83769 0.0
H1457 H 0.70159 0.73403 0.77244 0.0
H1458 H 0.74001 0.76472 0.69871 0.0
N1459 N 0.76184 0.74654 0.7734 0.0
C1460 C 0.73195 0.73004 0.78965 0.0
C1461 C 0.74852 0.7275 0.79559 0.0
C1462 C 0.73017 0.73946 0.77435 0.0
C1463 C 0.74554 0.74764 0.76632 0.0
C1464 C 0.76322 0.73513 0.78674 0.0
N1465 N 0.75886 0.76147 0.74158 0.0
C1466 C 0.74401 0.75534 0.74997 0.0
C1467 C 0.74093 0.76278 0.71339 0.0
C1468 C 0.72574 0.75864 0.72265 0.0
C1469 C 0.75733 0.7636 0.72286 0.0
C1470 C 0.72706 0.75423 0.74089 0.0
H1471 H 0.71299 0.75759 0.7151 0.0
O1472 O 0.79033 0.74591 0.72955 0.0
O1473 O 0.81207 0.78094 0.76165 0.0
O1474 O 0.79742 0.81141 0.75326 0.0
O1475 O 0.79189 0.78011 0.73617 0.0
O1476 O 0.81191 0.75301 0.76526 0.0
O1477 O 0.77888 0.72946 0.75025 0.0
O1478 O 0.80566 0.83028 0.80267 0.0
O1479 O 0.78426 0.78951 0.77135 0.0
O1480 O 0.79305 0.76139 0.7894 0.0
O1481 O 0.81623 0.78806 0.80029 0.0
O1482 O 0.78897 0.80349 0.79962 0.0
O1483 O 0.81229 0.837 0.77454 0.0
C1484 C 0.82184 0.76967 0.76493 0.0
C1485 C 0.7119 0.74729 0.74954 0.0
C1486 C 0.71345 0.74006 0.76632 0.0
C1487 C 0.78387 0.7289 0.73314 0.0
C1488 C 0.79227 0.7132 0.7258 0.0
C1489 C 0.78863 0.70465 0.70648 0.0
C1490 C 0.80239 0.70548 0.73799 0.0
C1491 C 0.80876 0.68918 0.7308 0.0
C1492 C 0.79499 0.68838 0.69935 0.0
C1493 C 0.80504 0.68063 0.71146 0.0
C1494 C 0.79266 0.79874 0.73725 0.0
C1495 C 0.77741 0.79246 0.78673 0.0
C1496 C 0.80866 0.8431 0.79183 0.0
C1497 C 0.808 0.86291 0.79906 0.0
C1498 C 0.81628 0.87245 0.81707 0.0
C1499 C 0.79749 0.87166 0.78861 0.0
C1500 C 0.79466 0.88969 0.79638 0.0
C1501 C 0.81386 0.89082 0.82458 0.0
C1502 C 0.80288 0.89939 0.81434 0.0
C1503 C 0.80552 0.77205 0.80259 0.0
H1504 H 0.78054 0.71033 0.697 0.0
H1505 H 0.80517 0.71195 0.75299 0.0
H1506 H 0.79198 0.68166 0.68448 0.0
H1507 H 0.80974 0.66784 0.70582 0.0
H1508 H 0.82439 0.86562 0.82533 0.0
H1509 H 0.79074 0.86403 0.7749 0.0
H1510 H 0.82021 0.89826 0.83845 0.0
H1511 H 0.80074 0.91348 0.82037 0.0
Gd1512 Gd 0.57483 0.55013 0.5346 0.0
Gd1513 Gd 0.53254 0.53343 0.50982 0.0
C1514 C 0.50415 0.47149 0.51246 0.0
C1515 C 0.49924 0.45638 0.47907 0.0
C1516 C 0.51491 0.48991 0.48856 0.0
C1517 C 0.51323 0.48878 0.50746 0.0
C1518 C 0.50764 0.47378 0.47411 0.0
C1519 C 0.49737 0.4553 0.4982 0.0
C1520 C 0.50134 0.4712 0.53155 0.0
C1521 C 0.50701 0.48798 0.54504 0.0
N1522 N 0.51922 0.50495 0.52082 0.0
C1523 C 0.51573 0.50478 0.53941 0.0
H1524 H 0.51999 0.51725 0.55039 0.0
C1525 C 0.52171 0.5095 0.46552 0.0
N1526 N 0.52232 0.50717 0.48418 0.0
C1527 C 0.51504 0.49388 0.45075 0.0
C1528 C 0.50816 0.47586 0.45505 0.0
H1529 H 0.52628 0.52356 0.46194 0.0
H1530 H 0.49007 0.44208 0.50175 0.0
H1531 H 0.59404 0.56327 0.49513 0.0
H1532 H 0.49435 0.45829 0.53593 0.0
H1533 H 0.50469 0.48803 0.55984 0.0
H1534 H 0.49354 0.4439 0.46817 0.0
H1535 H 0.58036 0.56237 0.58248 0.0
H1536 H 0.61661 0.62307 0.50711 0.0
H1537 H 0.61048 0.59158 0.48536 0.0
H1538 H 0.60973 0.64183 0.57295 0.0
H1539 H 0.51489 0.49585 0.43607 0.0
H1540 H 0.50267 0.46384 0.44358 0.0
H1541 H 0.61553 0.64183 0.53953 0.0
H1542 H 0.58964 0.5914 0.60733 0.0
N1543 N 0.58987 0.57757 0.52286 0.0
C1544 C 0.60918 0.61046 0.51168 0.0
C1545 C 0.60584 0.59273 0.49942 0.0
C1546 C 0.60373 0.6115 0.53004 0.0
C1547 C 0.59429 0.59455 0.53542 0.0
C1548 C 0.59612 0.57646 0.50519 0.0
N1549 N 0.58417 0.57752 0.5593 0.0
C1550 C 0.5912 0.59453 0.55422 0.0
C1551 C 0.58988 0.59259 0.59245 0.0
C1552 C 0.59598 0.6104 0.58735 0.0
C1553 C 0.58444 0.57619 0.57824 0.0
C1554 C 0.5972 0.61147 0.56811 0.0
H1555 H 0.60051 0.62306 0.5984 0.0
O1556 O 0.59142 0.54054 0.55446 0.0
O1557 O 0.55508 0.52277 0.52238 0.0
O1558 O 0.52826 0.54657 0.54095 0.0
O1559 O 0.55582 0.55533 0.55786 0.0
O1560 O 0.56395 0.5276 0.55118 0.0
O1561 O 0.5996 0.54317 0.52638 0.0
O1562 O 0.51516 0.54389 0.4915 0.0
O1563 O 0.55235 0.56053 0.52228 0.0
O1564 O 0.57844 0.53629 0.50327 0.0
O1565 O 0.55109 0.52919 0.48604 0.0
O1566 O 0.54353 0.55681 0.49392 0.0
O1567 O 0.50774 0.53925 0.51935 0.0
C1568 C 0.55499 0.51506 0.53727 0.0
C1569 C 0.60522 0.62868 0.56252 0.0
C1570 C 0.60851 0.62868 0.5435 0.0
C1571 C 0.60373 0.53955 0.54305 0.0
C1572 C 0.62187 0.54716 0.55136 0.0
C1573 C 0.62621 0.56088 0.56828 0.0
C1574 C 0.63488 0.53883 0.54298 0.0
C1575 C 0.65207 0.54317 0.5519 0.0
C1576 C 0.64343 0.56571 0.57701 0.0
C1577 C 0.65628 0.55672 0.56905 0.0
C1578 C 0.53839 0.55309 0.5574 0.0
C1579 C 0.55279 0.56897 0.50793 0.0
C1580 C 0.50318 0.54412 0.50341 0.0
C1581 C 0.48484 0.53706 0.49545 0.0
C1582 C 0.47992 0.52247 0.47925 0.0
C1583 C 0.47227 0.54647 0.50344 0.0
C1584 C 0.45489 0.54205 0.49492 0.0
C1585 C 0.46261 0.51781 0.4708 0.0
C1586 C 0.45017 0.52767 0.47842 0.0
C1587 C 0.56843 0.53078 0.48662 0.0
H1588 H 0.61632 0.56749 0.57502 0.0
H1589 H 0.63139 0.52848 0.52972 0.0
H1590 H 0.6467 0.57604 0.59025 0.0
H1591 H 0.66933 0.56002 0.57658 0.0
H1592 H 0.48943 0.51498 0.47289 0.0
H1593 H 0.47617 0.55747 0.51619 0.0
H1594 H 0.45891 0.50679 0.4581 0.0
H1595 H 0.43698 0.52425 0.4712 0.0
Gd1596 Gd 0.02944 0.54019 0.03256 0.0
Gd1597 Gd 0.07299 0.54138 0.01471 0.0
C1598 C 0.11321 0.59763 0.01688 0.0
C1599 C 0.11629 0.59779 0.98325 0.0
C1600 C 0.09603 0.5715 0.993 0.0
C1601 C 0.1005 0.58014 0.01195 0.0
C1602 C 0.10404 0.5801 0.97845 0.0
C1603 C 0.12097 0.60643 1.00242 0.0
C1604 C 0.11822 0.60537 0.03618 0.0
C1605 C 0.11104 0.59541 0.05001 0.0
N1606 N 0.09327 0.57087 0.02559 0.0
C1607 C 0.09874 0.57795 0.04443 0.0
H1608 H 0.0936 0.57041 0.05539 0.0
C1609 C 0.08146 0.54393 0.97058 0.0
N1610 N 0.08458 0.55412 0.98884 0.0
C1611 C 0.08882 0.55203 0.95563 0.0
C1612 C 0.10002 0.5703 0.95956 0.0
H1613 H 0.07308 0.52964 0.96759 0.0
H1614 H 0.13097 0.61966 0.00589 0.0
H1615 H 1.00265 0.51978 0.99172 0.0
H1616 H 0.12797 0.61871 0.04056 0.0
H1617 H 0.11505 0.60109 0.06497 0.0
H1618 H 0.12261 0.60463 0.97228 0.0
H1619 H 0.02926 0.54686 0.07976 0.0
H1620 H 0.96918 0.46815 1.00117 0.0
H1621 H 0.97915 0.49124 0.98004 0.0
H1622 H 0.98064 0.47039 0.06804 0.0
H1623 H 0.08601 0.5441 0.94114 0.0
H1624 H 0.10589 0.57646 0.94798 0.0
H1625 H 0.97035 0.46008 0.03395 0.0
H1626 H 0.01717 0.52869 0.10432 0.0
N1627 N 0.0066 0.51318 0.01953 0.0
C1628 C 0.97957 0.48078 0.00649 0.0
C1629 C 0.9851 0.49382 0.99456 0.0
C1630 C 0.98685 0.48475 0.02546 0.0
C1631 C 1.00025 0.5015 0.03172 0.0
C1632 C 0.99868 0.51002 1.00132 0.0
N1633 N 0.01737 0.52453 0.05657 0.0
C1634 C 0.00586 0.50735 0.05089 0.0
C1635 C 0.014 0.52244 0.08934 0.0
C1636 C 1.00306 0.50412 0.08374 0.0
C1637 C 0.02079 0.53268 0.07547 0.0
C1638 C 0.9985 0.49655 0.06431 0.0
H1639 H 0.99769 0.49627 0.09451 0.0
O1640 O 0.01915 0.5633 0.04833 0.0
O1641 O 0.05455 0.55914 0.02743 0.0
O1642 O 0.07269 0.54103 0.04589 0.0
O1643 O 0.04449 0.52539 0.05083 0.0
O1644 O 0.04563 0.56547 0.05373 0.0
O1645 O 0.00829 0.55085 0.01938 0.0
O1646 O 0.0838 0.51719 1.00237 0.0
O1647 O 0.04778 0.52244 0.01978 0.0
O1648 O 0.03004 0.5407 1.00124 0.0
O1649 O 0.05852 0.55475 0.99517 0.0
O1650 O 0.05732 0.51491 0.99442 0.0
O1651 O 0.09682 0.53588 0.02831 0.0
C1652 C 0.05732 0.57151 0.04275 0.0
C1653 C 0.98625 0.47905 0.05797 0.0
C1654 C 0.98041 0.47316 0.03856 0.0
C1655 C 0.00712 0.56295 0.03476 0.0
C1656 C 0.98927 0.56328 0.0406 0.0
C1657 C 0.98241 0.55228 0.054 0.0
C1658 C 0.97919 0.5751 0.03331 0.0
C1659 C 0.9623 0.57567 0.03931 0.0
C1660 C 0.96587 0.55314 0.0602 0.0
C1661 C 0.95586 0.5647 0.05292 0.0
C1662 C 0.06172 0.53026 0.05511 0.0
C1663 C 0.0451 0.5093 0.00504 0.0
C1664 C 0.09722 0.52108 0.01517 0.0
C1665 C 0.11434 0.51979 0.00785 0.0
C1666 C 0.12039 0.52983 0.99346 0.0
C1667 C 0.12439 0.5077 0.0146 0.0
C1668 C 0.14048 0.50596 0.00713 0.0
C1669 C 0.13617 0.52784 0.98584 0.0
C1670 C 0.14621 0.51604 0.99265 0.0
C1671 C 0.0414 0.5496 0.9909 0.0
H1672 H 0.9899 0.54317 0.05982 0.0
H1673 H 0.98435 0.58359 0.02291 0.0
H1674 H 0.96076 0.54478 0.0707 0.0
H1675 H 0.94302 0.56513 0.05797 0.0
H1676 H 0.11289 0.53908 0.98799 0.0
H1677 H 0.11982 0.49988 0.02571 0.0
H1678 H 0.14066 0.53551 0.97463 0.0
H1679 H 0.15848 0.51473 0.98659 0.0
H1680 H 0.04898 0.23356 0.9556 0.0
H1681 H 0.05573 0.20684 0.96948 0.0
H1682 H 1.00004 0.18126 0.96587 0.0
H1683 H 0.99341 0.20908 0.95381 0.0
H1684 H 0.01136 0.17358 0.99518 0.0
H1685 H 0.0361 0.16545 0.93401 0.0
H1686 H 0.05521 0.17553 0.90943 0.0
H1687 H 0.10099 0.18682 0.94959 0.0
H1688 H 0.08214 0.17698 0.97442 0.0
H1689 H 0.0272 0.07526 0.97951 0.0
H1690 H 0.02305 0.10625 0.97387 0.0
H1691 H 0.05867 0.13469 0.02338 0.0
H1692 H 0.06158 0.10304 0.03042 0.0
H1693 H 0.05974 0.14191 0.97418 0.0
H1694 H 0.03433 0.15175 0.03569 0.0
H1695 H 0.01537 0.13893 0.05919 0.0
H1696 H 0.97127 0.12088 0.01653 0.0
H1697 H 0.98987 0.13414 0.99286 0.0
C1698 C 0.0382 0.22202 0.95739 0.0
C1699 C 0.02065 0.22328 0.95301 0.0
C1700 C 0.04205 0.20652 0.96534 0.0
C1701 C 0.02851 0.19122 0.9684 0.0
C1702 C 0.01094 0.19252 0.96378 0.0
C1703 C 0.00709 0.20838 0.95654 0.0
C1704 C 0.03247 0.17417 0.97661 0.0
C1705 C 0.02196 0.1668 0.99037 0.0
C1706 C 0.04644 0.16496 0.97103 0.0
C1707 C 0.05772 0.17067 0.95607 0.0
C1708 C 0.05024 0.17015 0.93758 0.0
C1709 C 0.06102 0.17582 0.92362 0.0
C1710 C 0.07929 0.18186 0.92797 0.0
C1711 C 0.08684 0.18217 0.94625 0.0
C1712 C 0.07612 0.17653 0.96026 0.0
C1713 C 0.03418 0.08793 0.9895 0.0
C1714 C 0.04542 0.0863 0.00513 0.0
C1715 C 0.03172 0.10581 0.98613 0.0
C1716 C 0.04068 0.12296 0.99793 0.0
C1717 C 0.0516 0.12167 0.01392 0.0
C1718 C 0.05352 0.1035 0.0178 0.0
C1719 C 0.03886 0.14185 0.9926 0.0
C1720 C 0.04944 0.14916 0.97911 0.0
C1721 C 0.025 0.15091 0.99832 0.0
C1722 C 0.01349 0.14384 0.01255 0.0
C1723 C 0.02056 0.14514 0.03137 0.0
C1724 C 0.00985 0.13792 0.04472 0.0
C1725 C 0.99206 0.12929 0.03938 0.0
C1726 C 0.98495 0.12791 0.02068 0.0
C1727 C 0.99555 0.13535 0.00732 0.0
H1728 H 0.98381 0.12358 0.0497 0.0
H1729 H 0.08761 0.18626 0.91715 0.0
H1730 H 0.15132 0.84706 0.14246 0.0
H1731 H 0.17585 0.84485 0.16438 0.0
H1732 H 0.14974 0.78664 0.16723 0.0
H1733 H 0.12448 0.78976 0.1468 0.0
H1734 H 0.16508 0.79808 0.1984 0.0
H1735 H 0.19024 0.80492 0.13893 0.0
H1736 H 0.19848 0.82041 0.1115 0.0
H1737 H 0.22763 0.87109 0.14956 0.0
H1738 H 0.21941 0.85596 0.17719 0.0
H1739 H 0.24323 0.77008 0.23162 0.0
H1740 H 0.2178 0.77464 0.21274 0.0
H1741 H 0.23904 0.83588 0.22351 0.0
H1742 H 0.26455 0.83129 0.24265 0.0
H1743 H 0.22684 0.82357 0.18629 0.0
H1744 H 0.20274 0.8153 0.24535 0.0
H1745 H 0.19489 0.79918 0.27245 0.0
H1746 H 0.16429 0.74966 0.23397 0.0
H1747 H 0.17216 0.76539 0.20661 0.0
C1748 C 0.1507 0.83391 0.14804 0.0
C1749 C 0.13575 0.81869 0.14295 0.0
C1750 C 0.16502 0.83244 0.16038 0.0
C1751 C 0.16543 0.81526 0.16732 0.0
C1752 C 0.15023 0.80014 0.16236 0.0
C1753 C 0.13562 0.8019 0.15059 0.0
C1754 C 0.18133 0.81302 0.17975 0.0
C1755 C 0.17851 0.80341 0.19533 0.0
C1756 C 0.19926 0.82029 0.17667 0.0
C1757 C 0.20405 0.8294 0.16009 0.0
C1758 C 0.1983 0.81941 0.14142 0.0
C1759 C 0.20299 0.82812 0.12585 0.0
C1760 C 0.21352 0.84674 0.12879 0.0
C1761 C 0.21944 0.85668 0.1473 0.0
C1762 C 0.21478 0.84805 0.16291 0.0
C1763 C 0.24263 0.78456 0.23008 0.0
C1764 C 0.25625 0.8003 0.23877 0.0
C1765 C 0.22785 0.78719 0.21926 0.0
C1766 C 0.22614 0.80567 0.21658 0.0
C1767 C 0.23979 0.82142 0.22521 0.0
C1768 C 0.25447 0.8188 0.23628 0.0
C1769 C 0.21043 0.80847 0.20452 0.0
C1770 C 0.21333 0.81817 0.18911 0.0
C1771 C 0.19262 0.80106 0.20757 0.0
C1772 C 0.18819 0.79144 0.22394 0.0
C1773 C 0.19449 0.80089 0.24266 0.0
C1774 C 0.19 0.79185 0.25807 0.0
C1775 C 0.17913 0.77339 0.25493 0.0
C1776 C 0.17273 0.76394 0.23637 0.0
C1777 C 0.1772 0.77291 0.22092 0.0
H1778 H 0.17564 0.76643 0.26688 0.0
H1779 H 0.21714 0.85346 0.11671 0.0
H1780 H 0.55028 0.83598 0.43901 0.0
H1781 H 0.55367 0.86936 0.45568 0.0
H1782 H 0.505 0.85327 0.4809 0.0
H1783 H 0.50199 0.81951 0.46485 0.0
H1784 H 0.50728 0.88601 0.46184 0.0
H1785 H 0.53858 0.8655 0.50991 0.0
H1786 H 0.56022 0.85092 0.52536 0.0
H1787 H 0.60276 0.89127 0.50888 0.0
H1788 H 0.58135 0.9059 0.49301 0.0
H1789 H 0.5324 0.98535 0.52674 0.0
H1790 H 0.52629 0.94975 0.5207 0.0
H1791 H 0.55149 0.95012 0.4686 0.0
H1792 H 0.55547 0.98489 0.47315 0.0
H1793 H 0.55822 0.92444 0.50645 0.0
H1794 H 0.52338 0.93687 0.45006 0.0
H1795 H 0.50065 0.95188 0.43726 0.0
H1796 H 0.46337 0.9252 0.47213 0.0
H1797 H 0.48624 0.91081 0.48583 0.0
C1798 C 0.54035 0.83951 0.44822 0.0
C1799 C 0.52578 0.8251 0.45047 0.0
C1800 C 0.54237 0.85862 0.45787 0.0
C1801 C 0.52964 0.86398 0.46966 0.0
C1802 C 0.51507 0.84956 0.472 0.0
C1803 C 0.51334 0.83026 0.46279 0.0
C1804 C 0.53098 0.88482 0.47822 0.0
C1805 C 0.51832 0.89425 0.47181 0.0
C1806 C 0.54535 0.89585 0.49127 0.0
C1807 C 0.55833 0.88662 0.50001 0.0
C1808 C 0.55254 0.87107 0.50929 0.0
C1809 C 0.56477 0.86285 0.5182 0.0
C1810 C 0.58286 0.87012 0.51804 0.0
C1811 C 0.58874 0.88562 0.50894 0.0
C1812 C 0.57656 0.89388 0.49998 0.0
C1813 C 0.53584 0.97781 0.51358 0.0
C1814 C 0.54359 0.98819 0.5 0.0
C1815 C 0.53272 0.95743 0.51033 0.0
C1816 C 0.53812 0.94712 0.49393 0.0
C1817 C 0.54673 0.95756 0.48105 0.0
C1818 C 0.549 0.97761 0.48376 0.0
C1819 C 0.53476 0.92551 0.48964 0.0
C1820 C 0.5471 0.91602 0.4967 0.0
C1821 C 0.52013 0.91432 0.47721 0.0
C1822 C 0.5066 0.92326 0.46932 0.0
C1823 C 0.51048 0.93463 0.45535 0.0
C1824 C 0.49755 0.94294 0.44787 0.0
C1825 C 0.48058 0.93954 0.45391 0.0
C1826 C 0.47654 0.92788 0.46751 0.0
C1827 C 0.48951 0.91978 0.47525 0.0
H1828 H 0.47056 0.94593 0.44805 0.0
H1829 H 0.59231 0.86378 0.52502 0.0
H1830 H 0.54669 0.30349 0.66742 0.0
H1831 H 0.51905 0.30005 0.68247 0.0
H1832 H 0.49181 0.30796 0.63119 0.0
H1833 H 0.5197 0.31177 0.6161 0.0
H1834 H 0.47966 0.32682 0.66139 0.0
H1835 H 0.48656 0.26267 0.64334 0.0
H1836 H 0.50173 0.23558 0.6402 0.0
H1837 H 0.50918 0.24233 0.70116 0.0
H1838 H 0.49423 0.26962 0.70466 0.0
H1839 H 0.39492 0.288 0.69791 0.0
H1840 H 0.41976 0.2957 0.67839 0.0
H1841 H 0.45643 0.29516 0.72569 0.0
H1842 H 0.432 0.28792 0.74509 0.0
H1843 H 0.46146 0.2712 0.69361 0.0
H1844 H 0.45392 0.33675 0.7103 0.0
H1845 H 0.43795 0.3631 0.71148 0.0
H1846 H 0.42981 0.35198 0.65033 0.0
H1847 H 0.44553 0.32539 0.6488 0.0
C1848 C 0.53485 0.30442 0.65925 0.0
C1849 C 0.53552 0.30773 0.64042 0.0
C1850 C 0.51893 0.30239 0.6679 0.0
C1851 C 0.50307 0.30343 0.65799 0.0
C1852 C 0.50373 0.30702 0.63924 0.0
C1853 C 0.51972 0.30908 0.63055 0.0
C1854 C 0.48597 0.30056 0.66729 0.0
C1855 C 0.47556 0.31448 0.66816 0.0
C1856 C 0.48037 0.28455 0.67625 0.0
C1857 C 0.48941 0.26824 0.67426 0.0
C1858 C 0.49155 0.25845 0.65607 0.0
C1859 C 0.50008 0.24305 0.65423 0.0
C1860 C 0.50644 0.23726 0.67047 0.0
C1861 C 0.50426 0.24684 0.6886 0.0
C1862 C 0.49574 0.26225 0.69052 0.0
C1863 C 0.40831 0.29004 0.70428 0.0
C1864 C 0.41136 0.28705 0.72307 0.0
C1865 C 0.42255 0.29436 0.69306 0.0
C1866 C 0.44012 0.29579 0.70041 0.0
C1867 C 0.44311 0.29392 0.71949 0.0
C1868 C 0.42903 0.28977 0.73062 0.0
C1869 C 0.45541 0.29772 0.68824 0.0
C1870 C 0.46548 0.2835 0.68675 0.0
C1871 C 0.46043 0.31327 0.67848 0.0
C1872 C 0.45067 0.32894 0.67945 0.0
C1873 C 0.44853 0.33978 0.69712 0.0
C1874 C 0.43957 0.35479 0.69785 0.0
C1875 C 0.43282 0.35917 0.681 0.0
C1876 C 0.43501 0.34855 0.66337 0.0
C1877 C 0.44394 0.33351 0.66257 0.0
H1878 H 0.42592 0.37083 0.68159 0.0
H1879 H 0.51304 0.22532 0.66901 0.0
H1880 H 0.02343 0.83411 0.65912 0.0
H1881 H 0.03066 0.85974 0.64042 0.0
H1882 H 0.01419 0.81788 0.58841 0.0
H1883 H 0.00765 0.79235 0.60678 0.0
H1884 H 0.04387 0.84118 0.58536 0.0
H1885 H 0.98704 0.84762 0.60599 0.0
H1886 H 0.96656 0.85025 0.631 0.0
H1887 H 1.0005 0.90333 0.6598 0.0
H1888 H 0.02125 0.90092 0.63499 0.0
H1889 H 0.03527 0.89794 0.51788 0.0
H1890 H 0.02657 0.87591 0.53982 0.0
H1891 H 0.04677 0.92195 0.58774 0.0
H1892 H 0.05509 0.94423 0.56578 0.0
H1893 H 0.01648 0.89813 0.59475 0.0
H1894 H 0.07271 0.89071 0.57112 0.0
H1895 H 0.09268 0.88525 0.54606 0.0
H1896 H 0.05792 0.83104 0.52182 0.0
H1897 H 0.0377 0.83627 0.54666 0.0
C1898 C 0.02148 0.83047 0.6437 0.0
C1899 C 0.01502 0.81137 0.63434 0.0
C1900 C 0.02549 0.84505 0.63308 0.0
C1901 C 0.02273 0.84062 0.61311 0.0
C1902 C 0.01642 0.82151 0.60382 0.0
C1903 C 0.01268 0.80698 0.61435 0.0
C1904 C 0.02643 0.85577 0.60164 0.0
C1905 C 0.03777 0.85355 0.5873 0.0
C1906 C 0.01862 0.87194 0.60444 0.0
C1907 C 0.00568 0.87409 0.61869 0.0
C1908 C 0.99009 0.85989 0.61763 0.0
C1909 C 0.97846 0.86131 0.63178 0.0
C1910 C 0.98224 0.87694 0.64699 0.0
C1911 C 0.99759 0.89125 0.64799 0.0
C1912 C 0.00926 0.8899 0.63386 0.0
C1913 C 0.03776 0.90333 0.53309 0.0
C1914 C 0.04612 0.92258 0.54019 0.0
C1915 C 0.03275 0.89082 0.54558 0.0
C1916 C 0.03644 0.89728 0.56532 0.0
C1917 C 0.04394 0.91674 0.57252 0.0
C1918 C 0.04873 0.92937 0.56 0.0
C1919 C 0.0337 0.88332 0.57823 0.0
C1920 C 0.02262 0.8858 0.59288 0.0
C1921 C 0.0415 0.8671 0.57553 0.0
C1922 C 0.05368 0.86394 0.56066 0.0
C1923 C 0.06931 0.87768 0.56039 0.0
C1924 C 0.08067 0.87462 0.54624 0.0
C1925 C 0.07656 0.85782 0.53235 0.0
C1926 C 0.06109 0.84404 0.53259 0.0
C1927 C 0.0497 0.84702 0.54672 0.0
H1928 H 0.08538 0.85548 0.5214 0.0
H1929 H 0.97327 0.87797 0.65798 0.0
H1930 H 0.5603 0.8292 0.85158 0.0
H1931 H 0.53197 0.82689 0.83353 0.0
H1932 H 0.50593 0.82666 0.88533 0.0
H1933 H 0.53407 0.82848 0.90333 0.0
H1934 H 0.48882 0.79856 0.85622 0.0
H1935 H 0.51429 0.86592 0.86707 0.0
H1936 H 0.53659 0.89548 0.86661 0.0
H1937 H 0.53218 0.88271 0.80541 0.0
H1938 H 0.51018 0.85278 0.8055 0.0
H1939 H 0.41023 0.82711 0.82261 0.0
H1940 H 0.43673 0.82292 0.84008 0.0
H1941 H 0.46113 0.81422 0.78747 0.0
H1942 H 0.43453 0.81792 0.7698 0.0
H1943 H 0.47869 0.84664 0.81716 0.0
H1944 H 0.45733 0.77726 0.8069 0.0
H1945 H 0.43711 0.7462 0.80755 0.0
H1946 H 0.43356 0.76385 0.86743 0.0
H1947 H 0.45405 0.79487 0.86718 0.0
C1948 C 0.5485 0.82864 0.85906 0.0
C1949 C 0.5493 0.82932 0.87884 0.0
C1950 C 0.53243 0.82745 0.8488 0.0
C1951 C 0.51703 0.82686 0.85823 0.0
C1952 C 0.51777 0.82725 0.87792 0.0
C1953 C 0.53382 0.82849 0.88817 0.0
C1954 C 0.5 0.8253 0.84749 0.0
C1955 C 0.48651 0.80921 0.84787 0.0
C1956 C 0.49727 0.83905 0.83637 0.0
C1957 C 0.51073 0.85693 0.83631 0.0
C1958 C 0.51824 0.86925 0.85351 0.0
C1959 C 0.53081 0.88611 0.85332 0.0
C1960 C 0.53584 0.89095 0.836 0.0
C1961 C 0.52831 0.87892 0.81883 0.0
C1962 C 0.51581 0.86199 0.81894 0.0
C1963 C 0.42107 0.8238 0.81472 0.0
C1964 C 0.42054 0.82317 0.79492 0.0
C1965 C 0.43612 0.82136 0.82469 0.0
C1966 C 0.45073 0.8183 0.81495 0.0
C1967 C 0.44988 0.81661 0.79511 0.0
C1968 C 0.43483 0.81893 0.78512 0.0
C1969 C 0.4677 0.81978 0.82571 0.0
C1970 C 0.4811 0.83601 0.82548 0.0
C1971 C 0.47036 0.80625 0.83702 0.0
C1972 C 0.45703 0.78839 0.83697 0.0
C1973 C 0.45207 0.77457 0.82015 0.0
C1974 C 0.44073 0.75691 0.8205 0.0
C1975 C 0.43406 0.75306 0.83753 0.0
C1976 C 0.43874 0.76685 0.85426 0.0
C1977 C 0.45028 0.78443 0.85404 0.0
H1978 H 0.42522 0.7394 0.83774 0.0
H1979 H 0.54553 0.90404 0.83587 0.0
H1980 H 0.47683 0.20854 0.10829 0.0
H1981 H 0.47849 0.17511 0.0967 0.0
H1982 H 0.51731 0.17865 0.14346 0.0
H1983 H 0.51503 0.21174 0.1556 0.0
H1984 H 0.52663 0.18131 0.10143 0.0
H1985 H 0.49382 0.14391 0.14202 0.0
H1986 H 0.46816 0.13112 0.15842 0.0
H1987 H 0.43793 0.10748 0.10442 0.0
H1988 H 0.46337 0.12038 0.0877 0.0
H1989 H 0.55986 0.09998 0.06719 0.0
H1990 H 0.54863 0.12523 0.08645 0.0
H1991 H 0.50057 0.11052 0.04867 0.0
H1992 H 0.51148 0.08476 0.02952 0.0
H1993 H 0.49544 0.11253 0.08726 0.0
H1994 H 0.52776 0.15011 0.04645 0.0
H1995 H 0.5538 0.16082 0.02964 0.0
H1996 H 0.58486 0.18372 0.08326 0.0
H1997 H 0.55903 0.17291 0.10041 0.0
C1998 C 0.48482 0.20169 0.11668 0.0
C1999 C 0.49592 0.21239 0.1326 0.0
C2000 C 0.48569 0.18268 0.11018 0.0
C2001 C 0.49805 0.17473 0.1193 0.0
C2002 C 0.50753 0.18464 0.13654 0.0
C2003 C 0.50626 0.20347 0.14337 0.0
C2004 C 0.50507 0.15987 0.1078 0.0
C2005 C 0.52005 0.16617 0.09856 0.0
C2006 C 0.49591 0.14052 0.10369 0.0
C2007 C 0.48041 0.13333 0.11363 0.0
C2008 C 0.48161 0.13625 0.13365 0.0
C2009 C 0.46714 0.1289 0.14301 0.0
C2010 C 0.4514 0.11855 0.13247 0.0
C2011 C 0.45011 0.11554 0.11256 0.0
C2012 C 0.46456 0.12285 0.10314 0.0
C2013 C 0.547 0.10226 0.06285 0.0
C2014 C 0.53655 0.09062 0.04685 0.0
C2015 C 0.54066 0.11665 0.07381 0.0
C2016 C 0.5239 0.11956 0.06876 0.0
C2017 C 0.51357 0.10831 0.05257 0.0
C2018 C 0.5199 0.09385 0.04159 0.0
C2019 C 0.51697 0.13396 0.081 0.0
C2020 C 0.50201 0.12766 0.09019 0.0
C2021 C 0.52605 0.1534 0.08495 0.0
C2022 C 0.54147 0.16061 0.07472 0.0
C2023 C 0.54015 0.15738 0.05467 0.0
C2024 C 0.55488 0.16346 0.04508 0.0
C2025 C 0.57098 0.17292 0.05538 0.0
C2026 C 0.57237 0.1764 0.0753 0.0
C2027 C 0.55768 0.17033 0.08497 0.0
H2028 H 0.58238 0.17756 0.04793 0.0
H2029 H 0.44022 0.11282 0.13974 0.0
H2030 H 0.15893 0.31948 0.38012 0.0
H2031 H 0.18335 0.3226 0.3602 0.0
H2032 H 0.14642 0.31051 0.30999 0.0
H2033 H 0.12177 0.30702 0.3299 0.0
H2034 H 0.16724 0.28613 0.3093 0.0
H2035 H 0.17655 0.35491 0.32246 0.0
H2036 H 0.1816 0.38793 0.34106 0.0
H2037 H 0.22866 0.37996 0.37011 0.0
H2038 H 0.2238 0.34684 0.35189 0.0
H2039 H 0.24408 0.29355 0.25469 0.0
H2040 H 0.21535 0.29441 0.26739 0.0
H2041 H 0.24059 0.30544 0.32476 0.0
H2042 H 0.26906 0.30463 0.31212 0.0
H2043 H 0.22403 0.33389 0.31657 0.0
H2044 H 0.20148 0.26446 0.32111 0.0
H2045 H 0.19078 0.2293 0.31132 0.0
H2046 H 0.17026 0.23709 0.25683 0.0
H2047 H 0.18016 0.27241 0.26675 0.0
C2048 C 0.156 0.31744 0.36482 0.0
C2049 C 0.1385 0.31249 0.35643 0.0
C2050 C 0.16997 0.31973 0.35353 0.0
C2051 C 0.16663 0.31725 0.33372 0.0
C2052 C 0.14917 0.31277 0.32534 0.0
C2053 C 0.13516 0.31034 0.33663 0.0
C2054 C 0.18106 0.31504 0.32176 0.0
C2055 C 0.17947 0.29689 0.31036 0.0
C2056 C 0.19726 0.32871 0.32411 0.0
C2057 C 0.19973 0.34831 0.33583 0.0
C2058 C 0.18785 0.3601 0.33298 0.0
C2059 C 0.19072 0.37888 0.34342 0.0
C2060 C 0.20543 0.38604 0.35677 0.0
C2061 C 0.21727 0.37441 0.35977 0.0
C2062 C 0.21447 0.35564 0.34936 0.0
C2063 C 0.24324 0.29574 0.26996 0.0
C2064 C 0.25843 0.29906 0.28258 0.0
C2065 C 0.22695 0.29604 0.27716 0.0
C2066 C 0.22602 0.29996 0.29694 0.0
C2067 C 0.24115 0.30233 0.30945 0.0
C2068 C 0.25731 0.30197 0.30229 0.0
C2069 C 0.21015 0.30485 0.30466 0.0
C2070 C 0.21155 0.32349 0.31512 0.0
C2071 C 0.19394 0.29148 0.30221 0.0
C2072 C 0.192 0.27089 0.2944 0.0
C2073 C 0.19507 0.25859 0.30687 0.0
C2074 C 0.18875 0.23871 0.3015 0.0
C2075 C 0.17981 0.23097 0.28349 0.0
C2076 C 0.17722 0.24312 0.27077 0.0
C2077 C 0.18313 0.26306 0.27627 0.0
H2078 H 0.175 0.21555 0.27932 0.0
H2079 H 0.20766 0.4006 0.36476 0.0
H2080 H 0.95341 0.09378 0.21786 0.0
H2081 H 0.96725 0.09404 0.18746 0.0
H2082 H 0.98198 0.04051 0.19195 0.0
H2083 H 0.96849 0.04024 0.22167 0.0
H2084 H 0.00865 0.05941 0.17989 0.0
H2085 H 0.94691 0.04917 0.15692 0.0
H2086 H 0.91777 0.05769 0.15494 0.0
H2087 H 0.94118 0.11099 0.13824 0.0
H2088 H 0.97048 0.10287 0.14037 0.0
H2089 H 0.03498 0.03082 0.08606 0.0
H2090 H 0.02082 0.03463 0.1159 0.0
H2091 H 0.00767 0.08687 0.104 0.0
H2092 H 0.02164 0.08273 0.07383 0.0
H2093 H 0.9813 0.07181 0.12034 0.0
H2094 H 0.04196 0.08323 0.14177 0.0
H2095 H 0.07204 0.07722 0.14441 0.0
H2096 H 0.05238 0.02521 0.1653 0.0
H2097 H 0.02212 0.03079 0.16253 0.0
C2098 C 0.95923 0.08183 0.21225 0.0
C2099 C 0.95939 0.06692 0.22289 0.0
C2100 C 0.96738 0.08197 0.19458 0.0
C2101 C 0.97607 0.06721 0.18656 0.0
C2102 C 0.97583 0.05234 0.19714 0.0
C2103 C 0.9678 0.05218 0.2145 0.0
C2104 C 0.98559 0.06683 0.16772 0.0
C2105 C 1.00235 0.0619 0.16691 0.0
C2106 C 0.97841 0.07069 0.15029 0.0
C2107 C 0.96086 0.07551 0.14898 0.0
C2108 C 0.94583 0.06275 0.15294 0.0
C2109 C 0.9293 0.06751 0.15178 0.0
C2110 C 0.92763 0.08489 0.14652 0.0
C2111 C 0.94249 0.09755 0.14236 0.0
C2112 C 0.95906 0.09288 0.14353 0.0
C2113 C 0.02918 0.04323 0.08974 0.0
C2114 C 0.0298 0.05647 0.0771 0.0
C2115 C 0.02104 0.04556 0.1072 0.0
C2116 C 0.01303 0.06135 0.11323 0.0
C2117 C 0.01353 0.0745 0.10042 0.0
C2118 C 0.02174 0.07218 0.08293 0.0
C2119 C 1.00414 0.06391 0.13243 0.0
C2120 C 0.98757 0.06927 0.13331 0.0
C2121 C 0.01163 0.06075 0.15006 0.0
C2122 C 0.02976 0.05732 0.15175 0.0
C2123 C 0.04403 0.07044 0.1468 0.0
C2124 C 0.06112 0.06713 0.14833 0.0
C2125 C 0.06411 0.05082 0.15497 0.0
C2126 C 0.05003 0.03782 0.16013 0.0
C2127 C 0.03291 0.04106 0.15859 0.0
H2128 H 0.07734 0.04827 0.15616 0.0
H2129 H 0.91481 0.08855 0.14562 0.0
H2130 H 0.29739 0.64434 0.45689 0.0
H2131 H 0.29098 0.65825 0.42882 0.0
H2132 H 0.26638 0.69856 0.46353 0.0
H2133 H 0.27344 0.68598 0.49103 0.0
H2134 H 0.25022 0.68647 0.42643 0.0
H2135 H 0.30563 0.71526 0.46356 0.0
H2136 H 0.33278 0.71188 0.481 0.0
H2137 H 0.34907 0.68445 0.42885 0.0
H2138 H 0.3218 0.68742 0.41118 0.0
H2139 H 0.26098 0.77159 0.39395 0.0
H2140 H 0.27054 0.75275 0.41639 0.0
H2141 H 0.28661 0.71543 0.36995 0.0
H2142 H 0.27735 0.73449 0.34748 0.0
H2143 H 0.30714 0.72344 0.41038 0.0
H2144 H 0.24667 0.7017 0.37481 0.0
H2145 H 0.2186 0.70973 0.36475 0.0
H2146 H 0.21181 0.73104 0.42313 0.0
H2147 H 0.23991 0.72323 0.43347 0.0
C2148 C 0.29031 0.6559 0.45833 0.0
C2149 C 0.28614 0.6642 0.47621 0.0
C2150 C 0.28651 0.66361 0.44237 0.0
C2151 C 0.2782 0.67926 0.44436 0.0
C2152 C 0.2726 0.68629 0.46181 0.0
C2153 C 0.27686 0.67908 0.47766 0.0
C2154 C 0.27859 0.69116 0.42985 0.0
C2155 C 0.26261 0.69424 0.42254 0.0
C2156 C 0.29482 0.70203 0.42591 0.0
C2157 C 0.31173 0.70143 0.43611 0.0
C2158 C 0.31504 0.70852 0.45584 0.0
C2159 C 0.3304 0.70664 0.46577 0.0
C2160 C 0.34263 0.69791 0.45604 0.0
C2161 C 0.33957 0.69119 0.43636 0.0
C2162 C 0.32418 0.69298 0.42637 0.0
C2163 C 0.26717 0.75979 0.38874 0.0
C2164 C 0.26822 0.75405 0.3692 0.0
C2165 C 0.2727 0.74922 0.40147 0.0
C2166 C 0.27898 0.73274 0.39456 0.0
C2167 C 0.28183 0.72823 0.37533 0.0
C2168 C 0.27647 0.73897 0.36259 0.0
C2169 C 0.27875 0.71817 0.40635 0.0
C2170 C 0.29476 0.715 0.41353 0.0
C2171 C 0.2625 0.70792 0.41102 0.0
C2172 C 0.24535 0.71195 0.40485 0.0
C2173 C 0.23917 0.70811 0.38546 0.0
C2174 C 0.22327 0.71261 0.37972 0.0
C2175 C 0.21343 0.72091 0.39329 0.0
C2176 C 0.21943 0.72461 0.41264 0.0
C2177 C 0.23531 0.7201 0.41844 0.0
H2178 H 0.20116 0.72445 0.3888 0.0
H2179 H 0.35449 0.69638 0.46375 0.0
H2180 H 0.67875 0.04409 0.69034 0.0
H2181 H 0.66547 0.03723 0.65715 0.0
H2182 H 0.61347 0.02806 0.67718 0.0
H2183 H 0.62644 0.03474 0.70989 0.0
H2184 H 0.61743 0.99977 0.64792 0.0
H2185 H 0.63156 0.06934 0.66898 0.0
H2186 H 0.65191 0.10085 0.67998 0.0
H2187 H 0.67684 0.09431 0.62785 0.0
H2188 H 0.65695 0.06243 0.61676 0.0
H2189 H 0.5534 0.03385 0.59186 0.0
H2190 H 0.57497 0.03266 0.61793 0.0
H2191 H 0.60863 0.01217 0.57676 0.0
H2192 H 0.58664 0.01192 0.55099 0.0
H2193 H 0.61966 0.05278 0.61134 0.0
H2194 H 0.60009 0.98142 0.59129 0.0
H2195 H 0.57501 0.95343 0.58281 0.0
H2196 H 0.55569 0.96808 0.63732 0.0
H2197 H 0.58042 0.99648 0.64587 0.0
C2198 C 0.6645 0.04043 0.68747 0.0
C2199 C 0.65348 0.04002 0.70239 0.0
C2200 C 0.65704 0.03656 0.66871 0.0
C2201 C 0.63865 0.03208 0.66506 0.0
C2202 C 0.62774 0.03136 0.67996 0.0
C2203 C 0.63511 0.03535 0.69854 0.0
C2204 C 0.63016 0.02883 0.64589 0.0
C2205 C 0.61821 0.01118 0.63964 0.0
C2206 C 0.63116 0.044 0.63555 0.0
C2207 C 0.64303 0.06326 0.64221 0.0
C2208 C 0.64156 0.07445 0.65997 0.0
C2209 C 0.65299 0.09241 0.66622 0.0
C2210 C 0.66574 0.09953 0.65467 0.0
C2211 C 0.66703 0.08872 0.63683 0.0
C2212 C 0.65571 0.07068 0.63058 0.0
C2213 C 0.56495 0.02813 0.58858 0.0
C2214 C 0.5686 0.02286 0.56975 0.0
C2215 C 0.57735 0.02792 0.60327 0.0
C2216 C 0.59329 0.02274 0.59886 0.0
C2217 C 0.59637 0.01637 0.58011 0.0
C2218 C 0.58383 0.01604 0.56558 0.0
C2219 C 0.60685 0.02395 0.6139 0.0
C2220 C 0.61959 0.04114 0.6192 0.0
C2221 C 0.60623 0.00871 0.62386 0.0
C2222 C 0.59202 0.99106 0.61916 0.0
C2223 C 0.59044 0.97871 0.6014 0.0
C2224 C 0.57628 0.9628 0.59658 0.0
C2225 C 0.56375 0.95899 0.60951 0.0
C2226 C 0.5654 0.97105 0.62732 0.0
C2227 C 0.57947 0.98705 0.63215 0.0
H2228 H 0.55279 0.94667 0.60575 0.0
H2229 H 0.67456 0.11345 0.65952 0.0
H2230 H 0.31054 0.34541 0.98904 0.0
H2231 H 0.31016 0.32871 0.95608 0.0
H2232 H 0.30259 0.37965 0.9356 0.0
H2233 H 0.30281 0.3963 0.96839 0.0
H2234 H 0.2811 0.34732 0.91469 0.0
H2235 H 0.34321 0.36761 0.93834 0.0
H2236 H 0.36878 0.36874 0.96087 0.0
H2237 H 0.36062 0.30706 0.94752 0.0
H2238 H 0.33482 0.30556 0.92513 0.0
H2239 H 0.30598 0.3308 0.82011 0.0
H2240 H 0.30688 0.34477 0.85408 0.0
H2241 H 0.3099 0.28989 0.86878 0.0
H2242 H 0.30835 0.27578 0.8348 0.0
H2243 H 0.33259 0.32154 0.89301 0.0
H2244 H 0.27288 0.30033 0.86779 0.0
H2245 H 0.24586 0.29703 0.84667 0.0
H2246 H 0.24723 0.35731 0.86401 0.0
H2247 H 0.27459 0.36114 0.88482 0.0
C2248 C 0.30888 0.35307 0.97751 0.0
C2249 C 0.30689 0.37226 0.98136 0.0
C2250 C 0.30865 0.3435 0.95866 0.0
C2251 C 0.30649 0.35295 0.94329 0.0
C2252 C 0.30428 0.37203 0.94716 0.0
C2253 C 0.30455 0.38159 0.96596 0.0
C2254 C 0.30687 0.34326 0.92317 0.0
C2255 C 0.29246 0.34193 0.90988 0.0
C2256 C 0.32137 0.33549 0.91701 0.0
C2257 C 0.33703 0.33646 0.93021 0.0
C2258 C 0.34682 0.35429 0.9403 0.0
C2259 C 0.36135 0.355 0.95304 0.0
C2260 C 0.3663 0.33798 0.95566 0.0
C2261 C 0.35676 0.32022 0.9455 0.0
C2262 C 0.34219 0.31944 0.93278 0.0
C2263 C 0.30743 0.32193 0.83065 0.0
C2264 C 0.30765 0.30236 0.82493 0.0
C2265 C 0.3077 0.32983 0.85002 0.0
C2266 C 0.30831 0.31833 0.86397 0.0
C2267 C 0.30944 0.29903 0.85829 0.0
C2268 C 0.30871 0.29103 0.83892 0.0
C2269 C 0.30708 0.32619 0.88439 0.0
C2270 C 0.32126 0.32702 0.89776 0.0
C2271 C 0.29223 0.33325 0.89064 0.0
C2272 C 0.27603 0.3311 0.87764 0.0
C2273 C 0.26764 0.31298 0.86685 0.0
C2274 C 0.25221 0.31099 0.85496 0.0
C2275 C 0.24488 0.32697 0.85393 0.0
C2276 C 0.25297 0.34496 0.86476 0.0
C2277 C 0.26847 0.34706 0.87657 0.0
H2278 H 0.2329 0.32543 0.84481 0.0
H2279 H 0.37755 0.33855 0.96553 0.0
H2280 H 0.97402 0.05473 0.31312 0.0
H2281 H 0.98987 0.04951 0.34187 0.0
H2282 H 0.95706 0.07915 0.37694 0.0
H2283 H 0.94076 0.08387 0.34808 0.0
H2284 H 0.99544 0.09032 0.39164 0.0
H2285 H 0.95134 0.02965 0.36906 0.0
H2286 H 0.93889 1.00183 0.34357 0.0
H2287 H 0.98939 0.98633 0.34184 0.0
H2288 H 1.00225 0.01445 0.36702 0.0
H2289 H 0.0067 0.06381 0.48284 0.0
H2290 H 0.99555 0.06804 0.45176 0.0
H2291 H 0.03052 0.03496 0.42483 0.0
H2292 H 0.04312 0.0321 0.45657 0.0
H2293 H 0.99412 0.02451 0.40408 0.0
H2294 H 0.03949 0.07553 0.41964 0.0
H2295 H 0.06182 0.10372 0.43596 0.0
H2296 H 0.02216 0.13739 0.4421 0.0
H2297 H 0.99937 0.10913 0.42623 0.0
C2298 C 0.96998 0.06014 0.32688 0.0
C2299 C 0.95569 0.0697 0.32769 0.0
C2300 C 0.97922 0.05709 0.34361 0.0
C2301 C 0.97503 0.06379 0.36228 0.0
C2302 C 0.96096 0.07366 0.36313 0.0
C2303 C 0.95142 0.07631 0.34636 0.0
C2304 C 0.98493 0.06026 0.3806 0.0
C2305 C 0.99463 0.07588 0.39445 0.0
C2306 C 0.98574 0.04152 0.38422 0.0
C2307 C 0.97775 0.02417 0.36984 0.0
C2308 C 0.95978 0.02031 0.36322 0.0
C2309 C 0.95266 1.00449 0.3488 0.0
C2310 C 0.96333 0.99226 0.34108 0.0
C2311 C 0.98114 0.9958 0.34783 0.0
C2312 C 0.98835 0.01169 0.36217 0.0
C2313 C 0.01234 0.05735 0.47052 0.0
C2314 C 0.02586 0.0471 0.47304 0.0
C2315 C 0.00572 0.05983 0.45236 0.0
C2316 C 0.01164 0.05167 0.43521 0.0
C2317 C 0.0252 0.04134 0.43742 0.0
C2318 C 0.03246 0.03956 0.45588 0.0
C2319 C 1.00375 0.05464 0.41563 0.0
C2320 C 0.99456 0.03898 0.40154 0.0
C2321 C 1.00451 0.07331 0.41109 0.0
C2322 C 0.01761 0.09007 0.42203 0.0
C2323 C 0.03539 0.08879 0.42487 0.0
C2324 C 0.04817 0.1048 0.43394 0.0
C2325 C 0.04342 0.1223 0.44005 0.0
C2326 C 0.02582 0.12378 0.43737 0.0
C2327 C 0.01292 0.10773 0.42837 0.0
H2328 H 0.0535 0.13468 0.44668 0.0
H2329 H 0.95785 0.98005 0.32985 0.0
H2330 H 0.30555 0.67129 0.5861 0.0
H2331 H 0.30279 0.68642 0.6191 0.0
H2332 H 0.25351 0.69954 0.60078 0.0
H2333 H 0.25591 0.68422 0.56833 0.0
H2334 H 0.28685 0.73161 0.61394 0.0
H2335 H 0.24651 0.67765 0.62874 0.0
H2336 H 0.23634 0.64364 0.63146 0.0
H2337 H 0.28037 0.64869 0.67246 0.0
H2338 H 0.29104 0.68266 0.66965 0.0
H2339 H 0.27366 0.78736 0.70478 0.0
H2340 H 0.26783 0.76526 0.6737 0.0
H2341 H 0.31148 0.74022 0.68848 0.0
H2342 H 0.31738 0.76221 0.71907 0.0
H2343 H 0.27706 0.71362 0.67713 0.0
H2344 H 0.31918 0.76572 0.65911 0.0
H2345 H 0.32973 0.79985 0.65693 0.0
H2346 H 0.28237 0.79806 0.62207 0.0
H2347 H 0.27138 0.76396 0.62439 0.0
C2348 C 0.29384 0.67669 0.58942 0.0
C2349 C 0.28119 0.67725 0.57493 0.0
C2350 C 0.29225 0.68524 0.60809 0.0
C2351 C 0.27803 0.6941 0.61198 0.0
C2352 C 0.26449 0.69268 0.59784 0.0
C2353 C 0.26599 0.68411 0.5794 0.0
C2354 C 0.27915 0.70833 0.62926 0.0
C2355 C 0.28445 0.72775 0.62775 0.0
C2356 C 0.27608 0.703 0.64701 0.0
C2357 C 0.2697 0.68263 0.6488 0.0
C2358 C 0.25416 0.67145 0.63815 0.0
C2359 C 0.24827 0.65219 0.63974 0.0
C2360 C 0.25773 0.64399 0.65208 0.0
C2361 C 0.27308 0.65505 0.66288 0.0
C2362 C 0.27905 0.67431 0.66129 0.0
C2363 C 0.28236 0.77764 0.70089 0.0
C2364 C 0.29621 0.77663 0.71374 0.0
C2365 C 0.27889 0.76493 0.68347 0.0
C2366 C 0.28915 0.75115 0.67924 0.0
C2367 C 0.30343 0.75076 0.69178 0.0
C2368 C 0.30699 0.76352 0.70898 0.0
C2369 C 0.28502 0.7368 0.66179 0.0
C2370 C 0.27918 0.71743 0.66326 0.0
C2371 C 0.28761 0.74212 0.64395 0.0
C2372 C 0.29439 0.7624 0.64208 0.0
C2373 C 0.31096 0.77265 0.65109 0.0
C2374 C 0.31703 0.79198 0.64983 0.0
C2375 C 0.30671 0.80113 0.6394 0.0
C2376 C 0.29033 0.79095 0.63016 0.0
C2377 C 0.28418 0.77163 0.63145 0.0
H2378 H 0.31142 0.8161 0.63844 0.0
H2379 H 0.25315 0.62907 0.65332 0.0
H2380 H 0.6483 0.0525 0.78754 0.0
H2381 H 0.63672 0.05863 0.81785 0.0
H2382 H 0.68246 0.04584 0.8458 0.0
H2383 H 0.69448 0.03944 0.81472 0.0
H2384 H 0.64915 0.02469 0.85236 0.0
H2385 H 0.67697 0.09104 0.85569 0.0
H2386 H 0.68567 0.12064 0.84243 0.0
H2387 H 0.63112 0.12157 0.83046 0.0
H2388 H 0.62207 0.09182 0.84327 0.0
H2389 H 0.6008 0.05624 0.93298 0.0
H2390 H 0.62218 0.0471 0.91159 0.0
H2391 H 0.5907 0.05684 0.86407 0.0
H2392 H 0.56886 0.06565 0.88535 0.0
H2393 H 0.62462 0.08188 0.87498 0.0
H2394 H 0.59582 0.01529 0.86281 0.0
H2395 H 0.58424 0.98207 0.86725 0.0
H2396 H 0.63605 0.97818 0.88802 0.0
H2397 H 0.64788 0.01162 0.88429 0.0
C2398 C 0.65621 0.05135 0.80006 0.0
C2399 C 0.67233 0.04554 0.79886 0.0
C2400 C 0.64959 0.05502 0.81743 0.0
C2401 C 0.65901 0.05314 0.83396 0.0
C2402 C 0.67529 0.04766 0.83305 0.0
C2403 C 0.68205 0.04398 0.81544 0.0
C2404 C 0.65022 0.05456 0.85146 0.0
C2405 C 0.64424 0.03736 0.85801 0.0
C2406 C 0.64343 0.07097 0.85788 0.0
C2407 C 0.64887 0.08924 0.85062 0.0
C2408 C 0.66683 0.09755 0.85023 0.0
C2409 C 0.67182 0.11434 0.84275 0.0
C2410 C 0.65896 0.12301 0.83566 0.0
C2411 C 0.64108 0.1149 0.83603 0.0
C2412 C 0.63601 0.09809 0.84345 0.0
C2413 C 0.59807 0.0558 0.91786 0.0
C2414 C 0.58328 0.06189 0.91073 0.0
C2415 C 0.61025 0.05043 0.90572 0.0
C2416 C 0.60784 0.05128 0.88644 0.0
C2417 C 0.59255 0.05605 0.87903 0.0
C2418 C 0.58029 0.06135 0.89115 0.0
C2419 C 0.62284 0.0517 0.87506 0.0
C2420 C 0.63003 0.06938 0.87 0.0
C2421 C 0.63023 0.03553 0.8695 0.0
C2422 C 0.6227 0.01617 0.87362 0.0
C2423 C 0.60469 0.00758 0.86882 0.0
C2424 C 0.59809 0.98862 0.87104 0.0
C2425 C 0.60941 0.97799 0.87783 0.0
C2426 C 0.6273 0.9864 0.8827 0.0
C2427 C 0.63394 1.00539 0.88063 0.0
H2428 H 0.60431 0.96326 0.8794 0.0
H2429 H 0.66286 0.136 0.82986 0.0
H2430 H 0.32936 0.37902 0.09418 0.0
H2431 H 0.3237 0.36692 0.12374 0.0
H2432 H 0.26903 0.34413 0.10247 0.0
H2433 H 0.27463 0.35707 0.07313 0.0
H2434 H 0.27088 0.35631 0.1396 0.0
H2435 H 0.30008 0.31519 0.0996 0.0
H2436 H 0.32288 0.30635 0.07931 0.0
H2437 H 0.36257 0.32832 0.12652 0.0
H2438 H 0.34005 0.33756 0.14702 0.0
H2439 H 0.26668 0.29129 0.20896 0.0
H2440 H 0.26555 0.30178 0.17803 0.0
H2441 H 0.31475 0.34293 0.19581 0.0
H2442 H 0.31597 0.3327 0.22641 0.0
H2443 H 0.31213 0.31699 0.15829 0.0
H2444 H 0.28221 0.35968 0.19742 0.0
H2445 H 0.25879 0.3663 0.21775 0.0
H2446 H 0.21934 0.33871 0.17149 0.0
H2447 H 0.24257 0.33136 0.15104 0.0
C2448 C 0.31605 0.37188 0.09608 0.0
C2449 C 0.30239 0.3691 0.08156 0.0
C2450 C 0.31284 0.36475 0.11285 0.0
C2451 C 0.29602 0.35411 0.11518 0.0
C2452 C 0.28213 0.35217 0.10101 0.0
C2453 C 0.2853 0.3596 0.0843 0.0
C2454 C 0.29334 0.34433 0.13193 0.0
C2455 C 0.27973 0.34746 0.14347 0.0
C2456 C 0.3048 0.33266 0.1371 0.0
C2457 C 0.3184 0.32721 0.12479 0.0
C2458 C 0.31369 0.31827 0.10561 0.0
C2459 C 0.32656 0.31317 0.09408 0.0
C2460 C 0.34416 0.31681 0.10161 0.0
C2461 C 0.34893 0.32553 0.1207 0.0
C2462 C 0.33612 0.33069 0.13228 0.0
C2463 C 0.27739 0.30228 0.20614 0.0
C2464 C 0.29169 0.31066 0.21999 0.0
C2465 C 0.27662 0.30844 0.18857 0.0
C2466 C 0.29019 0.32299 0.18463 0.0
C2467 C 0.30425 0.33155 0.19852 0.0
C2468 C 0.30488 0.32565 0.21606 0.0
C2469 C 0.29011 0.32948 0.16607 0.0
C2470 C 0.30316 0.32564 0.15418 0.0
C2471 C 0.27805 0.34025 0.16055 0.0
C2472 C 0.26412 0.34483 0.17275 0.0
C2473 C 0.26854 0.35487 0.19163 0.0
C2474 C 0.25531 0.3588 0.20317 0.0
C2475 C 0.23759 0.35302 0.1959 0.0
C2476 C 0.23307 0.34321 0.17709 0.0
C2477 C 0.24627 0.33912 0.16553 0.0
H2478 H 0.22736 0.35613 0.20484 0.0
H2479 H 0.35411 0.31283 0.09266 0.0
H2480 H 0.25411 0.92705 0.01664 0.0
H2481 H 0.22937 0.94314 0.01889 0.0
H2482 H 0.26588 0.99842 0.03316 0.0
H2483 H 0.29067 0.98244 0.03147 0.0
H2484 H 0.23964 0.99588 0.05533 0.0
H2485 H 0.24561 0.98253 0.98789 0.0
H2486 H 0.24826 0.96123 0.9578 0.0
H2487 H 0.19733 0.92592 0.96156 0.0
H2488 H 0.19445 0.94696 0.99177 0.0
H2489 H 0.18591 0.05803 0.04105 0.0
H2490 H 0.20788 0.03895 0.03274 0.0
H2491 H 0.16819 0.98655 0.02836 0.0
H2492 H 0.14612 1.00551 0.03699 0.0
H2493 H 0.19463 0.986 1.00035 0.0
H2494 H 0.18944 0.99959 0.06831 0.0
H2495 H 0.18797 0.02033 0.09913 0.0
H2496 H 0.23886 0.05516 0.09425 0.0
H2497 H 0.24052 0.03472 0.06329 0.0
C2498 C 0.25682 0.94261 0.02053 0.0
C2499 C 0.27419 0.95358 0.0239 0.0
C2500 C 0.24274 0.95174 0.02159 0.0
C2501 C 0.24596 0.97188 0.02575 0.0
C2502 C 0.26328 0.98282 0.0298 0.0
C2503 C 0.27736 0.9737 0.02896 0.0
C2504 C 0.23124 0.98162 0.0263 0.0
C2505 C 0.22994 0.99392 0.04323 0.0
C2506 C 0.21844 0.97854 0.01059 0.0
C2507 C 0.21986 0.96624 0.99213 0.0
C2508 C 0.235 0.9702 0.98231 0.0
C2509 C 0.23654 0.95818 0.96524 0.0
C2510 C 0.22298 0.94221 0.95779 0.0
C2511 C 0.20781 0.9383 0.96735 0.0
C2512 C 0.2062 0.95029 0.98442 0.0
C2513 C 0.18184 0.04246 0.03814 0.0
C2514 C 0.16448 0.03323 0.04 0.0
C2515 C 0.1943 0.03164 0.03321 0.0
C2516 C 0.18951 0.0115 0.03017 0.0
C2517 C 0.17195 1.00214 0.03063 0.0
C2518 C 0.15944 0.01298 0.0356 0.0
C2519 C 0.20335 1.00051 0.02926 0.0
C2520 C 0.20439 0.98792 0.01236 0.0
C2521 C 0.21606 1.00335 0.04495 0.0
C2522 C 0.21501 0.01578 0.06343 0.0
C2523 C 0.20023 0.01179 0.07374 0.0
C2524 C 0.19938 0.02345 0.09125 0.0
C2525 C 0.21329 0.03909 0.09862 0.0
C2526 C 0.22808 0.04307 0.08851 0.0
C2527 C 0.22899 0.03144 0.071 0.0
H2528 H 0.21262 0.04809 0.1122 0.0
H2529 H 0.22422 0.93289 0.94461 0.0
H2530 H 0.7252 0.67687 0.97976 0.0
H2531 H 0.69696 0.65498 0.98072 0.0
H2532 H 0.72242 0.62391 0.01632 0.0
H2533 H 0.75101 0.64538 0.01459 0.0
H2534 H 0.69832 0.59914 0.99357 0.0
H2535 H 0.69681 0.65947 0.03362 0.0
H2536 H 0.69912 0.69461 0.04117 0.0
H2537 H 0.65756 0.68985 0.99727 0.0
H2538 H 0.6552 0.65474 0.98928 0.0
H2539 H 0.61647 0.5492 0.02054 0.0
H2540 H 0.64606 0.56852 0.01924 0.0
H2541 H 0.62338 0.60597 0.9888 0.0
H2542 H 0.59377 0.58766 0.99189 0.0
H2543 H 0.647 0.62747 0.01043 0.0
H2544 H 0.64921 0.56704 0.96941 0.0
H2545 H 0.64701 0.5319 0.96207 0.0
H2546 H 0.68717 0.53677 0.00751 0.0
H2547 H 0.68941 0.57188 0.01528 0.0
C2548 C 0.72486 0.66529 0.98768 0.0
C2549 C 0.74046 0.66303 0.99718 0.0
C2550 C 0.70858 0.65281 0.98839 0.0
C2551 C 0.70721 0.63798 0.9991 0.0
C2552 C 0.72291 0.63525 0.00805 0.0
C2553 C 0.73932 0.64755 0.00704 0.0
C2554 C 0.68946 0.62556 1.00105 0.0
C2555 C 0.68716 0.60539 0.99745 0.0
C2556 C 0.6746 0.63343 0.00582 0.0
C2557 C 0.67592 0.65451 0.01077 0.0
C2558 C 0.68824 0.66595 0.02552 0.0
C2559 C 0.68956 0.68585 0.02987 0.0
C2560 C 0.67852 0.69446 0.01967 0.0
C2561 C 0.66612 0.68318 0.00514 0.0
C2562 C 0.66477 0.66327 1.0007 0.0
C2563 C 0.61788 0.5614 0.01332 0.0
C2564 C 0.6028 0.56669 0.00598 0.0
C2565 C 0.6349 0.57247 0.01245 0.0
C2566 C 0.6374 0.58867 0.00341 0.0
C2567 C 0.62217 0.59367 0.99585 0.0
C2568 C 0.60515 0.58306 0.99741 0.0
C2569 C 0.6556 0.60089 1.00243 0.0
C2570 C 0.65806 0.62111 0.00638 0.0
C2571 C 0.67057 0.59304 0.99791 0.0
C2572 C 0.66937 0.57202 0.993 0.0
C2573 C 0.65752 0.56058 0.97786 0.0
C2574 C 0.65626 0.54068 0.97364 0.0
C2575 C 0.66692 0.53211 0.98434 0.0
C2576 C 0.6789 0.54342 0.99925 0.0
C2577 C 0.68018 0.56331 0.00356 0.0
H2578 H 0.66592 0.51669 0.98105 0.0
H2579 H 0.67956 0.70988 0.02306 0.0
H2580 H 0.71798 0.47896 0.286 0.0
H2581 H 0.73337 0.45309 0.2878 0.0
H2582 H 0.69149 0.4132 0.25063 0.0
H2583 H 0.67503 0.43902 0.25092 0.0
H2584 H 0.7028 0.38997 0.26393 0.0
H2585 H 0.74444 0.43784 0.24265 0.0
H2586 H 0.76245 0.47025 0.2426 0.0
H2587 H 0.78786 0.47102 0.29773 0.0
H2588 H 0.76987 0.43867 0.29816 0.0
H2589 H 0.76616 0.32422 0.24567 0.0
H2590 H 0.74894 0.34912 0.24253 0.0
H2591 H 0.76696 0.37701 0.30031 0.0
H2592 H 0.78311 0.35169 0.30376 0.0
H2593 H 0.76806 0.40494 0.27416 0.0
H2594 H 0.72583 0.35186 0.28979 0.0
H2595 H 0.70746 0.31892 0.28481 0.0
H2596 H 0.68389 0.32675 0.23178 0.0
H2597 H 0.70236 0.35965 0.23625 0.0
C2598 C 0.7119 0.46474 0.27806 0.0
C2599 C 0.69495 0.46188 0.26812 0.0
C2600 C 0.72114 0.44949 0.27874 0.0
C2601 C 0.71479 0.43022 0.26852 0.0
C2602 C 0.69762 0.42733 0.25869 0.0
C2603 C 0.68796 0.4425 0.25873 0.0
C2604 C 0.72562 0.41355 0.26843 0.0
C2605 C 0.71708 0.39366 0.26588 0.0
C2606 C 0.74461 0.41681 0.27083 0.0
C2607 C 0.7557 0.43598 0.27052 0.0
C2608 C 0.75386 0.44496 0.25476 0.0
C2609 C 0.76404 0.46331 0.25468 0.0
C2610 C 0.77625 0.47271 0.27018 0.0
C2611 C 0.77838 0.46373 0.28575 0.0
C2612 C 0.76821 0.44538 0.28592 0.0
C2613 C 0.76686 0.33583 0.25766 0.0
C2614 C 0.77707 0.33579 0.27484 0.0
C2615 C 0.75664 0.35023 0.25593 0.0
C2616 C 0.75621 0.36575 0.27112 0.0
C2617 C 0.76665 0.36578 0.28806 0.0
C2618 C 0.77625 0.35109 0.28999 0.0
C2619 C 0.7452 0.38176 0.26975 0.0
C2620 C 0.75375 0.40146 0.2721 0.0
C2621 C 0.72634 0.37815 0.26623 0.0
C2622 C 0.71564 0.35818 0.26327 0.0
C2623 C 0.71693 0.34648 0.27693 0.0
C2624 C 0.70645 0.32784 0.27423 0.0
C2625 C 0.69451 0.32077 0.258 0.0
C2626 C 0.69314 0.33226 0.24435 0.0
C2627 C 0.70361 0.35091 0.24696 0.0
H2628 H 0.68625 0.30644 0.25609 0.0
H2629 H 0.78409 0.48694 0.27012 0.0
H2630 H 0.87911 0.43366 0.48531 0.0
H2631 H 0.90785 0.45589 0.49229 0.0
H2632 H 0.88875 0.48855 0.53998 0.0
H2633 H 0.85975 0.46657 0.53287 0.0
H2634 H 0.90875 0.51151 0.51771 0.0
H2635 H 0.91475 0.45997 0.5508 0.0
H2636 H 0.91264 0.42634 0.55505 0.0
H2637 H 0.94452 0.41683 0.50863 0.0
H2638 H 0.94672 0.45032 0.50405 0.0
H2639 H 1.00269 0.55286 0.54284 0.0
H2640 H 0.97058 0.54335 0.5389 0.0
H2641 H 0.97391 0.49251 0.49858 0.0
H2642 H 0.00563 0.49989 0.50623 0.0
H2643 H 0.96061 0.48287 0.5272 0.0
H2644 H 0.94897 0.5329 0.48955 0.0
H2645 H 0.95191 0.56711 0.48659 0.0
H2646 H 0.93303 0.57962 0.54153 0.0
H2647 H 0.9294 0.54548 0.54459 0.0
C2648 C 0.88105 0.44558 0.49725 0.0
C2649 C 0.86738 0.44843 0.50861 0.0
C2650 C 0.89738 0.4582 0.50122 0.0
C2651 C 0.90027 0.47353 0.51679 0.0
C2652 C 0.88659 0.4767 0.52795 0.0
C2653 C 0.87014 0.46419 0.52385 0.0
C2654 C 0.91784 0.48591 0.52135 0.0
C2655 C 0.92017 0.50537 0.51985 0.0
C2656 C 0.93253 0.47787 0.52459 0.0
C2657 C 0.93084 0.4576 0.52708 0.0
C2658 C 0.92119 0.45064 0.54143 0.0
C2659 C 0.92002 0.43163 0.54392 0.0
C2660 C 0.92844 0.41946 0.53211 0.0
C2661 C 0.93803 0.42627 0.51778 0.0
C2662 C 0.93927 0.44526 0.51526 0.0
C2663 C 0.99641 0.54 0.53268 0.0
C2664 C 0.00642 0.52741 0.524 0.0
C2665 C 0.97808 0.53474 0.53019 0.0
C2666 C 0.96984 0.51724 0.51839 0.0
C2667 C 0.98006 0.50608 0.5078 0.0
C2668 C 0.9982 0.51047 0.51166 0.0
C2669 C 0.95171 0.5078 0.52076 0.0
C2670 C 0.94928 0.48908 0.52464 0.0
C2671 C 0.93711 0.51649 0.51945 0.0
C2672 C 0.93903 0.53678 0.51732 0.0
C2673 C 0.94549 0.543 0.50097 0.0
C2674 C 0.94728 0.56232 0.49928 0.0
C2675 C 0.94291 0.57552 0.51392 0.0
C2676 C 0.93646 0.56939 0.53021 0.0
C2677 C 0.93438 0.55005 0.53187 0.0
H2678 H 0.94442 0.59047 0.51259 0.0
H2679 H 0.92753 0.40476 0.53408 0.0
H2680 H 0.39696 0.07854 0.26876 0.0
H2681 H 0.38141 0.10357 0.26266 0.0
H2682 H 0.37888 0.12073 0.3232 0.0
H2683 H 0.39488 0.09595 0.32932 0.0
H2684 H 0.34564 0.11164 0.29664 0.0
H2685 H 0.4054 0.14955 0.30744 0.0
H2686 H 0.43697 0.15385 0.30231 0.0
H2687 H 0.42443 0.15075 0.24244 0.0
H2688 H 0.39272 0.14606 0.24715 0.0
H2689 H 0.30541 0.18558 0.27237 0.0
H2690 H 0.32473 0.17005 0.28975 0.0
H2691 H 0.34879 0.15428 0.23803 0.0
H2692 H 0.33017 0.17038 0.22088 0.0
H2693 H 0.37282 0.16672 0.26702 0.0
H2694 H 0.31592 0.12354 0.25246 0.0
H2695 H 0.2839 0.1113 0.25264 0.0
H2696 H 0.28997 0.11727 0.31359 0.0
H2697 H 0.322 0.12994 0.31381 0.0
C2698 C 0.39321 0.0879 0.28064 0.0
C2699 C 0.39703 0.0859 0.2994 0.0
C2700 C 0.38443 0.102 0.27722 0.0
C2701 C 0.37931 0.11381 0.29259 0.0
C2702 C 0.38301 0.11168 0.31136 0.0
C2703 C 0.39211 0.09779 0.3148 0.0
C2704 C 0.3696 0.12805 0.28876 0.0
C2705 C 0.35151 0.12411 0.29071 0.0
C2706 C 0.37755 0.14358 0.28041 0.0
C2707 C 0.39668 0.14747 0.27767 0.0
C2708 C 0.40937 0.14977 0.29317 0.0
C2709 C 0.42729 0.15224 0.29033 0.0
C2710 C 0.43271 0.15258 0.27206 0.0
C2711 C 0.42021 0.15052 0.25659 0.0
C2712 C 0.40226 0.148 0.25935 0.0
C2713 C 0.31505 0.17905 0.26486 0.0
C2714 C 0.31627 0.1789 0.24529 0.0
C2715 C 0.32592 0.17014 0.27472 0.0
C2716 C 0.33795 0.16098 0.26502 0.0
C2717 C 0.33953 0.16135 0.24567 0.0
C2718 C 0.3288 0.17032 0.23587 0.0
C2719 C 0.34857 0.15029 0.27463 0.0
C2720 C 0.3669 0.15479 0.27366 0.0
C2721 C 0.3407 0.1348 0.28328 0.0
C2722 C 0.32131 0.12814 0.2832 0.0
C2723 C 0.31039 0.12261 0.26594 0.0
C2724 C 0.29224 0.1155 0.26596 0.0
C2725 C 0.28489 0.11362 0.28312 0.0
C2726 C 0.29567 0.11885 0.30031 0.0
C2727 C 0.3138 0.12604 0.30038 0.0
H2728 H 0.27085 0.10802 0.2831 0.0
H2729 H 0.44659 0.15443 0.26988 0.0
H2730 H 0.35894 0.19343 0.51772 0.0
H2731 H 0.38478 0.17908 0.52087 0.0
H2732 H 0.35094 0.12229 0.50528 0.0
H2733 H 0.32526 0.13651 0.50334 0.0
H2734 H 0.37052 0.12214 0.53368 0.0
H2735 H 0.3832 0.14701 0.47561 0.0
H2736 H 0.39025 0.17156 0.45537 0.0
H2737 H 0.4357 0.20086 0.49401 0.0
H2738 H 0.42879 0.17662 0.51457 0.0
H2739 H 0.42847 0.06113 0.51752 0.0
H2740 H 0.4077 0.08109 0.51121 0.0
H2741 H 0.44721 0.13234 0.53502 0.0
H2742 H 0.46831 0.11219 0.54078 0.0
H2743 H 0.4273 0.13846 0.50546 0.0
H2744 H 0.41514 0.11335 0.56254 0.0
H2745 H 0.40885 0.08847 0.58252 0.0
H2746 H 0.36245 0.05959 0.54513 0.0
H2747 H 0.36857 0.0842 0.52484 0.0
C2748 C 0.35709 0.17788 0.51503 0.0
C2749 C 0.34004 0.16608 0.51061 0.0
C2750 C 0.37191 0.16968 0.51659 0.0
C2751 C 0.36996 0.14952 0.5132 0.0
C2752 C 0.35292 0.13786 0.50817 0.0
C2753 C 0.33817 0.14601 0.50709 0.0
C2754 C 0.38515 0.14021 0.51624 0.0
C2755 C 0.38278 0.1256 0.52716 0.0
C2756 C 0.40165 0.14522 0.50869 0.0
C2757 C 0.40531 0.16018 0.49675 0.0
C2758 C 0.39455 0.15884 0.4799 0.0
C2759 C 0.39857 0.17266 0.46835 0.0
C2760 C 0.41338 0.1878 0.47344 0.0
C2761 C 0.4242 0.18917 0.4901 0.0
C2762 C 0.42024 0.17541 0.50171 0.0
C2763 C 0.43282 0.07667 0.52098 0.0
C2764 C 0.44989 0.08517 0.52964 0.0
C2765 C 0.42092 0.08807 0.51755 0.0
C2766 C 0.42571 0.1082 0.52315 0.0
C2767 C 0.44317 0.11683 0.53074 0.0
C2768 C 0.45521 0.10536 0.53396 0.0
C2769 C 0.41212 0.11992 0.52199 0.0
C2770 C 0.41493 0.13508 0.51179 0.0
C2771 C 0.39593 0.11546 0.53012 0.0
C2772 C 0.39239 0.10051 0.54213 0.0
C2773 C 0.40368 0.1016 0.55851 0.0
C2774 C 0.40012 0.08758 0.56991 0.0
C2775 C 0.38528 0.07244 0.56508 0.0
C2776 C 0.37395 0.07131 0.54885 0.0
C2777 C 0.37744 0.0853 0.53742 0.0
H2778 H 0.38254 0.06161 0.57393 0.0
H2779 H 0.41649 0.19845 0.46444 0.0
H2780 H 0.67126 0.5893 0.27512 0.0
H2781 H 0.69005 0.6206 0.27551 0.0
H2782 H 0.73616 0.5969 0.28131 0.0
H2783 H 0.71698 0.56484 0.28115 0.0
H2784 H 0.74358 0.63244 0.30299 0.0
H2785 H 0.72141 0.61377 0.23597 0.0
H2786 H 0.70047 0.60424 0.20712 0.0
H2787 H 0.67335 0.64865 0.22835 0.0
H2788 H 0.69451 0.65873 0.25713 0.0
H2789 H 0.80054 0.71982 0.28454 0.0
H2790 H 0.78423 0.68696 0.28492 0.0
H2791 H 0.73517 0.70441 0.27549 0.0
H2792 H 0.7514 0.73704 0.27493 0.0
H2793 H 0.73042 0.67141 0.25543 0.0
H2794 H 0.7521 0.69247 0.32021 0.0
H2795 H 0.77394 0.70592 0.34803 0.0
H2796 H 0.80025 0.65932 0.33326 0.0
H2797 H 0.77869 0.64573 0.30515 0.0
C2798 C 0.68539 0.59037 0.27646 0.0
C2799 C 0.69218 0.5738 0.27813 0.0
C2800 C 0.69635 0.60869 0.27647 0.0
C2801 C 0.71496 0.61186 0.27807 0.0
C2802 C 0.72197 0.59543 0.27993 0.0
C2803 C 0.71087 0.5768 0.27978 0.0
C2804 C 0.72659 0.6322 0.2781 0.0
C2805 C 0.74079 0.64068 0.29228 0.0
C2806 C 0.72308 0.64409 0.26489 0.0
C2807 C 0.70939 0.63684 0.2487 0.0
C2808 C 0.71082 0.62129 0.23458 0.0
C2809 C 0.69898 0.6159 0.21819 0.0
C2810 C 0.68551 0.6258 0.21593 0.0
C2811 C 0.68378 0.64101 0.23012 0.0
C2812 C 0.69574 0.64662 0.24641 0.0
C2813 C 0.78631 0.71684 0.28263 0.0
C2814 C 0.77766 0.73174 0.27972 0.0
C2815 C 0.77678 0.69774 0.28297 0.0
C2816 C 0.75805 0.69248 0.28042 0.0
C2817 C 0.74945 0.7074 0.27749 0.0
C2818 C 0.75894 0.72643 0.27724 0.0
C2819 C 0.74742 0.67169 0.28025 0.0
C2820 C 0.73332 0.66317 0.26611 0.0
C2821 C 0.75083 0.66004 0.29374 0.0
C2822 C 0.7639 0.66819 0.31047 0.0
C2823 C 0.76264 0.68518 0.32279 0.0
C2824 C 0.77495 0.69281 0.33863 0.0
C2825 C 0.78851 0.6835 0.34238 0.0
C2826 C 0.78976 0.66653 0.33031 0.0
C2827 C 0.7775 0.65885 0.31442 0.0
H2828 H 0.79801 0.68942 0.35468 0.0
H2829 H 0.67648 0.62185 0.20311 0.0
H2830 H 0.87874 0.50176 0.80294 0.0
H2831 H 0.85556 0.47273 0.79518 0.0
H2832 H 0.89442 0.43801 0.79821 0.0
H2833 H 0.91796 0.46706 0.80554 0.0
H2834 H 0.87211 0.42693 0.76581 0.0
H2835 H 0.86989 0.44526 0.83343 0.0
H2836 H 0.86684 0.46736 0.86277 0.0
H2837 H 0.81442 0.46854 0.84128 0.0
H2838 H 0.81733 0.44674 0.81159 0.0
H2839 H 0.84148 0.33816 0.78108 0.0
H2840 H 0.85285 0.37272 0.79089 0.0
H2841 H 0.80254 0.38315 0.7718 0.0
H2842 H 0.79069 0.34805 0.76303 0.0
H2843 H 0.82385 0.40974 0.80669 0.0
H2844 H 0.82894 0.37787 0.74236 0.0
H2845 H 0.83688 0.35017 0.72247 0.0
H2846 H 0.89133 0.37151 0.74305 0.0
H2847 H 0.8836 0.39783 0.76524 0.0
C2848 C 0.88242 0.48797 0.80206 0.0
C2849 C 0.90019 0.48658 0.80473 0.0
C2850 C 0.86913 0.47149 0.79767 0.0
C2851 C 0.87345 0.45351 0.79614 0.0
C2852 C 0.89105 0.45199 0.79928 0.0
C2853 C 0.9044 0.46849 0.80359 0.0
C2854 C 0.85969 0.43608 0.79086 0.0
C2855 C 0.86148 0.42309 0.77462 0.0
C2856 C 0.84573 0.43168 0.8023 0.0
C2857 C 0.84394 0.44467 0.82016 0.0
C2858 C 0.85779 0.45042 0.83486 0.0
C2859 C 0.85608 0.46286 0.85157 0.0
C2860 C 0.84048 0.46943 0.85385 0.0
C2861 C 0.82653 0.4635 0.83946 0.0
C2862 C 0.82821 0.45113 0.82268 0.0
C2863 C 0.83273 0.34789 0.77966 0.0
C2864 C 0.81532 0.34098 0.77172 0.0
C2865 C 0.83915 0.36744 0.78526 0.0
C2866 C 0.82849 0.38013 0.78173 0.0
C2867 C 0.81076 0.37329 0.77455 0.0
C2868 C 0.80418 0.35352 0.76932 0.0
C2869 C 0.83708 0.40008 0.78242 0.0
C2870 C 0.8341 0.41376 0.7975 0.0
C2871 C 0.85072 0.40472 0.77052 0.0
C2872 C 0.85558 0.38995 0.75565 0.0
C2873 C 0.8426 0.37666 0.74284 0.0
C2874 C 0.84706 0.3611 0.73115 0.0
C2875 C 0.8646 0.35935 0.73108 0.0
C2876 C 0.87773 0.37295 0.74302 0.0
C2877 C 0.87328 0.38804 0.75542 0.0
H2878 H 0.868 0.34738 0.72191 0.0
H2879 H 0.83917 0.47905 0.86681 0.0
H2880 H 0.10427 0.88117 0.11561 0.0
H2881 H 0.10052 0.90824 0.10049 0.0
H2882 H 0.05879 0.87056 0.06108 0.0
H2883 H 0.06397 0.84311 0.07503 0.0
H2884 H 0.07199 0.89528 0.04275 0.0
H2885 H 0.0539 0.90622 0.1071 0.0
H2886 H 0.05834 0.91008 0.14214 0.0
H2887 H 0.10293 0.95687 0.14368 0.0
H2888 H 0.0988 0.95319 0.10867 0.0
H2889 H 0.04404 0.97933 0.01715 0.0
H2890 H 0.04638 0.94854 0.02604 0.0
H2891 H 0.08563 0.97918 0.07203 0.0
H2892 H 0.08058 0.00924 0.06559 0.0
H2893 H 0.06978 0.95565 0.08635 0.0
H2894 H 0.08867 0.94483 0.02148 0.0
H2895 H 0.08401 0.94093 0.98645 0.0
H2896 H 0.03876 0.89503 0.98535 0.0
H2897 H 0.04305 0.89881 0.02036 0.0
C2898 C 0.09444 0.87861 0.10358 0.0
C2899 C 0.08444 0.85988 0.09665 0.0
C2900 C 0.09203 0.89427 0.09502 0.0
C2901 C 0.07873 0.89206 0.07995 0.0
C2902 C 0.06905 0.87312 0.0727 0.0
C2903 C 0.07199 0.8573 0.08076 0.0
C2904 C 0.07466 0.90935 0.07221 0.0
C2905 C 0.07151 0.90847 0.05237 0.0
C2906 C 0.07391 0.92691 0.08431 0.0
C2907 C 0.0761 0.92934 0.10533 0.0
C2908 C 0.06464 0.91731 0.11495 0.0
C2909 C 0.06712 0.91946 0.13478 0.0
C2910 C 0.08093 0.93368 0.14512 0.0
C2911 C 0.09225 0.94586 0.13566 0.0
C2912 C 0.08983 0.94377 0.11584 0.0
C2913 C 0.05256 0.97951 0.02961 0.0
C2914 C 0.06113 0.99719 0.04122 0.0
C2915 C 0.05444 0.96164 0.03442 0.0
C2916 C 0.06621 0.96088 0.05005 0.0
C2917 C 0.07592 0.97868 0.06038 0.0
C2918 C 0.07312 0.99623 0.05642 0.0
C2919 C 0.06832 0.94232 0.05674 0.0
C2920 C 0.07069 0.94274 0.07654 0.0
C2921 C 0.06851 0.92455 0.04453 0.0
C2922 C 0.06609 0.92222 0.02352 0.0
C2923 C 0.0777 0.93396 0.01375 0.0
C2924 C 0.07512 0.93177 0.99391 0.0
C2925 C 0.06107 0.91778 0.98369 0.0
C2926 C 0.04961 0.90589 0.99328 0.0
C2927 C 0.05212 0.90804 0.01311 0.0
H2928 H 0.05909 0.91612 0.96834 0.0
H2929 H 0.08285 0.93529 0.16047 0.0
H2930 H 0.98365 0.27771 0.88052 0.0
H2931 H 0.95838 0.27908 0.85878 0.0
H2932 H 0.92319 0.26641 0.90165 0.0
H2933 H 0.94815 0.26501 0.92321 0.0
H2934 H 0.90734 0.24737 0.86837 0.0
H2935 H 0.93634 0.3129 0.8921 0.0
H2936 H 0.96168 0.34069 0.89902 0.0
H2937 H 0.96782 0.33625 0.83919 0.0
H2938 H 0.94261 0.30825 0.83193 0.0
H2939 H 0.83207 0.27889 0.8332 0.0
H2940 H 0.85814 0.27533 0.85206 0.0
H2941 H 0.88977 0.28561 0.8057 0.0
H2942 H 0.86372 0.28929 0.78685 0.0
H2943 H 0.90788 0.30524 0.83942 0.0
H2944 H 0.87707 0.24028 0.81609 0.0
H2945 H 0.85193 0.21241 0.81013 0.0
H2946 H 0.84895 0.21585 0.8704 0.0
H2947 H 0.87392 0.2441 0.87673 0.0
C2948 C 0.97052 0.27499 0.88526 0.0
C2949 C 0.96818 0.27128 0.90382 0.0
C2950 C 0.95598 0.27594 0.8728 0.0
C2951 C 0.93859 0.27308 0.87843 0.0
C2952 C 0.93625 0.26872 0.89671 0.0
C2953 C 0.95071 0.26798 0.90915 0.0
C2954 C 0.92288 0.27498 0.86571 0.0
C2955 C 0.90749 0.26015 0.86225 0.0
C2956 C 0.92276 0.29143 0.85726 0.0
C2957 C 0.93772 0.30839 0.86149 0.0
C2958 C 0.94316 0.31779 0.88043 0.0
C2959 C 0.95749 0.33358 0.88441 0.0
C2960 C 0.96639 0.3402 0.86955 0.0
C2961 C 0.96093 0.33109 0.85068 0.0
C2962 C 0.94661 0.31527 0.84662 0.0
C2963 C 0.84454 0.2803 0.82692 0.0
C2964 C 0.84551 0.28404 0.80821 0.0
C2965 C 0.85954 0.2782 0.83777 0.0
C2966 C 0.87619 0.27997 0.83044 0.0
C2967 C 0.87724 0.28403 0.81186 0.0
C2968 C 0.86217 0.28589 0.8009 0.0
C2969 C 0.89234 0.27763 0.84212 0.0
C2970 C 0.90777 0.29241 0.84545 0.0
C2971 C 0.89244 0.26118 0.8506 0.0
C2972 C 0.87728 0.2444 0.84688 0.0
C2973 C 0.87095 0.23522 0.82808 0.0
C2974 C 0.85675 0.21932 0.82464 0.0
C2975 C 0.84885 0.21231 0.83988 0.0
C2976 C 0.85509 0.22128 0.85861 0.0
C2977 C 0.86927 0.23725 0.86213 0.0
H2978 H 0.83794 0.1999 0.83722 0.0
H2979 H 0.97749 0.35242 0.87266 0.0
H2980 H 0.60012 0.25889 0.56645 0.0
H2981 H 0.594 0.22419 0.55592 0.0
H2982 H 0.55169 0.21772 0.59251 0.0
H2983 H 0.55827 0.25277 0.60377 0.0
H2984 H 0.56914 0.19218 0.59597 0.0
H2985 H 0.54644 0.21088 0.53943 0.0
H2986 H 0.54745 0.22823 0.51245 0.0
H2987 H 0.59044 0.20363 0.49245 0.0
H2988 H 0.58981 0.18631 0.51942 0.0
H2989 H 0.53902 0.09406 0.56758 0.0
H2990 H 0.54109 0.12816 0.57178 0.0
H2991 H 0.57787 0.13228 0.52888 0.0
H2992 H 0.57222 0.09692 0.52136 0.0
H2993 H 0.56406 0.15954 0.52838 0.0
H2994 H 0.58839 0.14248 0.58537 0.0
H2995 H 0.58699 0.1238 0.61137 0.0
H2996 H 0.54221 0.14553 0.63042 0.0
H2997 H 0.54327 0.16421 0.60446 0.0
C2998 C 0.58939 0.25021 0.57226 0.0
C2999 C 0.57968 0.25889 0.58603 0.0
C3000 C 0.58577 0.23019 0.56599 0.0
C3001 C 0.57207 0.21803 0.57295 0.0
C3002 C 0.56229 0.22662 0.58671 0.0
C3003 C 0.56606 0.24675 0.5932 0.0
C3004 C 0.56879 0.19642 0.56691 0.0
C3005 C 0.56778 0.18512 0.58113 0.0
C3006 C 0.56768 0.18688 0.5476 0.0
C3007 C 0.56818 0.19748 0.53155 0.0
C3008 C 0.5562 0.20931 0.52937 0.0
C3009 C 0.55669 0.21911 0.51406 0.0
C3010 C 0.56904 0.21708 0.50078 0.0
C3011 C 0.5809 0.20522 0.50276 0.0
C3012 C 0.58047 0.1954 0.51804 0.0
C3013 C 0.54762 0.10198 0.55886 0.0
C3014 C 0.55657 0.09243 0.54494 0.0
C3015 C 0.54908 0.12188 0.56165 0.0
C3016 C 0.56091 0.1335 0.55202 0.0
C3017 C 0.5692 0.12402 0.53728 0.0
C3018 C 0.56648 0.10369 0.53333 0.0
C3019 C 0.56435 0.15527 0.55748 0.0
C3020 C 0.56548 0.1666 0.5432 0.0
C3021 C 0.56586 0.16498 0.57679 0.0
C3022 C 0.5659 0.15466 0.593 0.0
C3023 C 0.57831 0.14332 0.59518 0.0
C3024 C 0.57754 0.1327 0.60987 0.0
C3025 C 0.56451 0.13346 0.62253 0.0
C3026 C 0.5523 0.14497 0.62063 0.0
C3027 C 0.55302 0.15562 0.60598 0.0
H3028 H 0.56387 0.12515 0.63382 0.0
H3029 H 0.56938 0.22467 0.48893 0.0
H3030 H 0.58472 0.79485 0.42662 0.0
H3031 H 0.6124 0.79766 0.41126 0.0
H3032 H 0.58651 0.75333 0.36417 0.0
H3033 H 0.5587 0.75078 0.37927 0.0
H3034 H 0.62078 0.74906 0.37622 0.0
H3035 H 0.59313 0.79821 0.35889 0.0
H3036 H 0.5796 0.82646 0.36494 0.0
H3037 H 0.62763 0.86012 0.39666 0.0
H3038 H 0.64133 0.83192 0.39111 0.0
H3039 H 0.68182 0.76448 0.30563 0.0
H3040 H 0.657 0.75863 0.32519 0.0
H3041 H 0.68024 0.81119 0.36469 0.0
H3042 H 0.70481 0.81717 0.34477 0.0
H3043 H 0.64775 0.81116 0.35803 0.0
H3044 H 0.67618 0.76344 0.37534 0.0
H3045 H 0.69006 0.73538 0.37134 0.0
H3046 H 0.64187 0.6994 0.34206 0.0
H3047 H 0.62779 0.72734 0.34559 0.0
C3048 C 0.58493 0.78555 0.41308 0.0
C3049 C 0.56939 0.77256 0.40423 0.0
C3050 C 0.6008 0.78724 0.40424 0.0
C3051 C 0.60168 0.77579 0.38642 0.0
C3052 C 0.58631 0.76236 0.37787 0.0
C3053 C 0.57035 0.76093 0.38653 0.0
C3054 C 0.61837 0.77823 0.37641 0.0
C3055 C 0.62657 0.76258 0.37205 0.0
C3056 C 0.62637 0.79598 0.3714 0.0
C3057 C 0.61817 0.8129 0.37479 0.0
C3058 C 0.60074 0.81158 0.36733 0.0
C3059 C 0.59305 0.82759 0.37064 0.0
C3060 C 0.60273 0.84506 0.38123 0.0
C3061 C 0.62013 0.84656 0.3885 0.0
C3062 C 0.62786 0.83057 0.38529 0.0
C3063 C 0.68192 0.77442 0.31884 0.0
C3064 C 0.69556 0.79103 0.32388 0.0
C3065 C 0.66763 0.77113 0.33006 0.0
C3066 C 0.66654 0.78435 0.3467 0.0
C3067 C 0.68054 0.80067 0.35202 0.0
C3068 C 0.69478 0.80398 0.34075 0.0
C3069 C 0.65037 0.78195 0.35774 0.0
C3070 C 0.64215 0.79761 0.36226 0.0
C3071 C 0.64248 0.76425 0.36309 0.0
C3072 C 0.65101 0.74753 0.36053 0.0
C3073 C 0.66861 0.74959 0.36785 0.0
C3074 C 0.6765 0.7337 0.36571 0.0
C3075 C 0.66687 0.71563 0.3564 0.0
C3076 C 0.64933 0.71342 0.34922 0.0
C3077 C 0.64139 0.72927 0.35128 0.0
H3078 H 0.67299 0.70333 0.35481 0.0
H3079 H 0.59676 0.85745 0.38375 0.0
H3080 H 0.10905 0.28984 0.44807 0.0
H3081 H 0.10289 0.25965 0.45992 0.0
H3082 H 0.07464 0.23048 0.40575 0.0
H3083 H 0.08083 0.2609 0.39372 0.0
H3084 H 0.0556 0.22711 0.43858 0.0
H3085 H 0.11089 0.21785 0.41663 0.0
H3086 H 0.14224 0.23006 0.41263 0.0
H3087 H 0.15441 0.24234 0.4734 0.0
H3088 H 0.12306 0.23043 0.47777 0.0
H3089 H 0.0369 0.14374 0.47974 0.0
H3090 H 0.04629 0.16558 0.45759 0.0
H3091 H 0.08705 0.1999 0.50031 0.0
H3092 H 0.07773 0.17794 0.52233 0.0
H3093 H 0.09971 0.19684 0.46764 0.0
H3094 H 0.0461 0.2115 0.49072 0.0
H3095 H 0.01473 0.20503 0.49694 0.0
H3096 H 0.99933 0.18768 0.43685 0.0
H3097 H 0.03063 0.19371 0.43029 0.0
C3098 C 0.10188 0.27688 0.43857 0.0
C3099 C 0.09536 0.27751 0.42008 0.0
C3100 C 0.09842 0.25971 0.4453 0.0
C3101 C 0.0884 0.24299 0.43361 0.0
C3102 C 0.08248 0.24334 0.41483 0.0
C3103 C 0.08612 0.26057 0.40798 0.0
C3104 C 0.08297 0.22572 0.44188 0.0
C3105 C 0.06509 0.21999 0.44446 0.0
C3106 C 0.0956 0.21722 0.45006 0.0
C3107 C 0.11464 0.22317 0.44752 0.0
C3108 C 0.12027 0.22309 0.42914 0.0
C3109 C 0.13803 0.23001 0.42681 0.0
C3110 C 0.15032 0.23695 0.44275 0.0
C3111 C 0.14488 0.2369 0.46106 0.0
C3112 C 0.12712 0.23 0.46348 0.0
C3113 C 0.0479 0.15594 0.48423 0.0
C3114 C 0.05656 0.15951 0.5026 0.0
C3115 C 0.05322 0.16834 0.47168 0.0
C3116 C 0.06724 0.18437 0.47738 0.0
C3117 C 0.0762 0.18758 0.49563 0.0
C3118 C 0.07083 0.17523 0.50822 0.0
C3119 C 0.07221 0.19822 0.46461 0.0
C3120 C 0.09005 0.20343 0.46129 0.0
C3121 C 0.05954 0.20658 0.45606 0.0
C3122 C 0.04071 0.20281 0.46003 0.0
C3123 C 0.03603 0.20612 0.47884 0.0
C3124 C 0.01826 0.20256 0.48243 0.0
C3125 C 1.00505 0.19589 0.46731 0.0
C3126 C 0.00958 0.19279 0.44856 0.0
C3127 C 0.02733 0.19626 0.4449 0.0
H3128 H 0.9913 0.19318 0.47011 0.0
H3129 H 0.16405 0.24238 0.44092 0.0
H3130 H 0.5763 0.29777 0.16049 0.0
H3131 H 0.60357 0.29402 0.17688 0.0
H3132 H 0.574 0.24618 0.19892 0.0
H3133 H 0.54665 0.25085 0.18368 0.0
H3134 H 0.59913 0.26558 0.22437 0.0
H3135 H 0.59669 0.23803 0.1579 0.0
H3136 H 0.59189 0.23881 0.12365 0.0
H3137 H 0.63528 0.28771 0.12966 0.0
H3138 H 0.64031 0.28719 0.16397 0.0
H3139 H 0.67025 0.2243 0.24373 0.0
H3140 H 0.6442 0.2273 0.22475 0.0
H3141 H 0.67153 0.28302 0.21583 0.0
H3142 H 0.69757 0.28036 0.23504 0.0
H3143 H 0.6477 0.25844 0.18313 0.0
H3144 H 0.64895 0.28471 0.25106 0.0
H3145 H 0.65318 0.28145 0.28471 0.0
H3146 H 0.61064 0.23139 0.27484 0.0
H3147 H 0.60632 0.23426 0.24105 0.0
C3148 C 0.57569 0.28677 0.16919 0.0
C3149 C 0.55958 0.2746 0.17093 0.0
C3150 C 0.5912 0.28449 0.17837 0.0
C3151 C 0.59083 0.26946 0.18863 0.0
C3152 C 0.57458 0.25783 0.19103 0.0
C3153 C 0.55901 0.26051 0.18236 0.0
C3154 C 0.60745 0.26526 0.19604 0.0
C3155 C 0.60964 0.26382 0.21528 0.0
C3156 C 0.62116 0.26292 0.1842 0.0
C3157 C 0.61885 0.26259 0.16343 0.0
C3158 C 0.60524 0.24889 0.15187 0.0
C3159 C 0.60246 0.2493 0.13247 0.0
C3160 C 0.61326 0.26331 0.12449 0.0
C3161 C 0.62695 0.27684 0.13586 0.0
C3162 C 0.62983 0.27645 0.15525 0.0
C3163 C 0.67079 0.23712 0.23759 0.0
C3164 C 0.68582 0.25228 0.24128 0.0
C3165 C 0.65599 0.23869 0.2266 0.0
C3166 C 0.65601 0.25545 0.21916 0.0
C3167 C 0.67139 0.26996 0.22147 0.0
C3168 C 0.68622 0.26841 0.2325 0.0
C3169 C 0.63931 0.25894 0.21138 0.0
C3170 C 0.63712 0.26019 0.19211 0.0
C3171 C 0.62546 0.26073 0.22309 0.0
C3172 C 0.62736 0.25966 0.24358 0.0
C3173 C 0.6405 0.27303 0.2561 0.0
C3174 C 0.64293 0.27123 0.27517 0.0
C3175 C 0.63219 0.2562 0.28191 0.0
C3176 C 0.61893 0.24302 0.2696 0.0
C3177 C 0.61646 0.24475 0.2505 0.0
H3178 H 0.63414 0.25479 0.29666 0.0
H3179 H 0.61103 0.26369 0.10949 0.0
H3180 H 0.62104 0.87137 0.93328 0.0
H3181 H 0.61375 0.90102 0.94903 0.0
H3182 H 0.59164 0.90958 0.89521 0.0
H3183 H 0.59896 0.8796 0.87917 0.0
H3184 H 0.61257 0.94423 0.92209 0.0
H3185 H 0.56211 0.89234 0.91811 0.0
H3186 H 0.54393 0.86078 0.9205 0.0
H3187 H 0.56245 0.86925 0.97969 0.0
H3188 H 0.58048 0.90115 0.97775 0.0
H3189 H 0.56039 1.00383 0.96785 0.0
H3190 H 0.57162 0.97959 0.94759 0.0
H3191 H 0.58985 0.95954 0.99712 0.0
H3192 H 0.57774 0.98345 0.01777 0.0
H3193 H 0.56919 0.9313 0.96937 0.0
H3194 H 0.62048 0.98383 0.97243 0.0
H3195 H 0.63348 0.01764 0.9707 0.0
H3196 H 0.60984 0.00881 0.91329 0.0
H3197 H 0.59679 0.97487 0.91467 0.0
C3198 C 0.61508 0.87986 0.92472 0.0
C3199 C 0.61043 0.87338 0.90515 0.0
C3200 C 0.61089 0.89664 0.9337 0.0
C3201 C 0.60194 0.90698 0.92318 0.0
C3202 C 0.59852 0.90149 0.90336 0.0
C3203 C 0.60278 0.88458 0.89428 0.0
C3204 C 0.59505 0.92255 0.93352 0.0
C3205 C 0.60291 0.94149 0.93224 0.0
C3206 C 0.5826 0.91871 0.94679 0.0
C3207 C 0.57286 0.89897 0.94769 0.0
C3208 C 0.56254 0.88734 0.93155 0.0
C3209 C 0.55216 0.86943 0.93286 0.0
C3210 C 0.55221 0.86284 0.95015 0.0
C3211 C 0.56252 0.87428 0.96625 0.0
C3212 C 0.57274 0.89232 0.96509 0.0
C3213 C 0.5665 0.99408 0.97452 0.0
C3214 C 0.56766 0.99495 0.99436 0.0
C3215 C 0.57325 0.98057 0.96291 0.0
C3216 C 0.58167 0.96815 0.97103 0.0
C3217 C 0.58339 0.96927 0.99083 0.0
C3218 C 0.57646 0.98278 1.00254 0.0
C3219 C 0.58726 0.9529 0.95855 0.0
C3220 C 0.57895 0.93403 0.9593 0.0
C3221 C 0.59914 0.95686 0.94479 0.0
C3222 C 0.60785 0.97683 0.94356 0.0
C3223 C 0.61821 0.98907 0.95938 0.0
C3224 C 0.62558 0.00824 0.95846 0.0
C3225 C 0.62263 0.01531 0.94181 0.0
C3226 C 0.61232 1.00322 0.92604 0.0
C3227 C 0.60503 0.984 0.92685 0.0
H3228 H 0.62824 0.03018 0.94115 0.0
H3229 H 0.54416 0.84895 0.9511 0.0
H3230 H 0.97841 0.78536 0.71314 0.0
H3231 H 0.95126 0.78481 0.72902 0.0
H3232 H 0.92202 0.74379 0.68082 0.0
H3233 H 0.94891 0.74558 0.66446 0.0
H3234 H 0.90572 0.77002 0.68874 0.0
H3235 H 0.9298 0.73141 0.7269 0.0
H3236 H 0.95268 0.72285 0.74706 0.0
H3237 H 0.95534 0.77454 0.78809 0.0
H3238 H 0.93251 0.78342 0.7681 0.0
H3239 H 0.82584 0.75113 0.73053 0.0
H3240 H 0.85314 0.75005 0.716 0.0
H3241 H 0.88228 0.78975 0.76514 0.0
H3242 H 0.85491 0.78802 0.78097 0.0
H3243 H 0.89865 0.76431 0.75617 0.0
H3244 H 0.87453 0.80264 0.71256 0.0
H3245 H 0.85117 0.80772 0.69004 0.0
H3246 H 0.8474 0.75109 0.65755 0.0
H3247 H 0.87085 0.74588 0.67952 0.0
C3248 C 0.96618 0.77604 0.7062 0.0
C3249 C 0.96548 0.76555 0.68774 0.0
C3250 C 0.95074 0.77561 0.71526 0.0
C3251 C 0.93466 0.7641 0.70616 0.0
C3252 C 0.93427 0.75284 0.68804 0.0
C3253 C 0.94956 0.75379 0.67876 0.0
C3254 C 0.918 0.76507 0.71471 0.0
C3255 C 0.90411 0.76856 0.70344 0.0
C3256 C 0.91597 0.76344 0.73389 0.0
C3257 C 0.92958 0.75812 0.74598 0.0
C3258 C 0.93534 0.74097 0.74019 0.0
C3259 C 0.94827 0.73606 0.75159 0.0
C3260 C 0.95549 0.74816 0.76883 0.0
C3261 C 0.94974 0.76518 0.77473 0.0
C3262 C 0.93677 0.77013 0.76341 0.0
C3263 C 0.83813 0.75962 0.73816 0.0
C3264 C 0.83845 0.77022 0.75652 0.0
C3265 C 0.85369 0.75939 0.72966 0.0
C3266 C 0.86974 0.7706 0.73899 0.0
C3267 C 0.87001 0.78125 0.75748 0.0
C3268 C 0.85446 0.78057 0.76643 0.0
C3269 C 0.88638 0.7696 0.7303 0.0
C3270 C 0.9003 0.76601 0.74153 0.0
C3271 C 0.88826 0.77063 0.71089 0.0
C3272 C 0.87413 0.7738 0.69784 0.0
C3273 C 0.86852 0.79126 0.70072 0.0
C3274 C 0.85536 0.79417 0.68805 0.0
C3275 C 0.84766 0.77966 0.6726 0.0
C3276 C 0.85329 0.76229 0.66958 0.0
C3277 C 0.86658 0.7594 0.68205 0.0
H3278 H 0.83742 0.78193 0.66289 0.0
H3279 H 0.96552 0.74435 0.77762 0.0
H3280 H 0.17051 0.03474 0.8399 0.0
H3281 H 0.15506 0.03866 0.86869 0.0
H3282 H 0.11032 0.99533 0.84038 0.0
H3283 H 0.12516 0.99326 0.81091 0.0
H3284 H 0.09533 0.01236 0.86291 0.0
H3285 H 0.14887 0.99463 0.8831 0.0
H3286 H 0.18111 0.99757 0.88742 0.0
H3287 H 0.18742 0.05475 0.91994 0.0
H3288 H 0.15524 0.0522 0.91563 0.0
H3289 H 0.05636 1.00384 0.95278 0.0
H3290 H 0.0704 0.99952 0.92292 0.0
H3291 H 0.11362 0.04677 0.94704 0.0
H3292 H 0.10012 0.05023 0.97715 0.0
H3293 H 0.12867 0.02644 0.92653 0.0
H3294 H 0.07332 0.04225 0.90621 0.0
H3295 H 0.0408 0.03687 0.90236 0.0
H3296 H 0.03752 0.9799 0.87065 0.0
H3297 H 0.07 0.98488 0.87449 0.0
C3298 C 0.15739 0.02594 0.83971 0.0
C3299 C 0.14948 0.01348 0.82256 0.0
C3300 C 0.14839 0.02792 0.85669 0.0
C3301 C 0.13124 0.01673 0.85811 0.0
C3302 C 0.12336 1.00434 0.84075 0.0
C3303 C 0.13206 1.003 0.82353 0.0
C3304 C 0.1216 0.01799 0.8771 0.0
C3305 C 0.1029 0.01523 0.87667 0.0
C3306 C 0.1305 0.02191 0.89595 0.0
C3307 C 0.14972 0.02329 0.8989 0.0
C3308 C 0.15716 0.00782 0.89115 0.0
C3309 C 0.17541 0.00943 0.89358 0.0
C3310 C 0.18631 0.02635 0.90391 0.0
C3311 C 0.17897 0.04167 0.91192 0.0
C3312 C 0.16073 0.04015 0.90951 0.0
C3313 C 0.06887 0.01339 0.95188 0.0
C3314 C 0.07676 0.02749 0.96808 0.0
C3315 C 0.077 0.01107 0.9343 0.0
C3316 C 0.09334 0.02307 0.93153 0.0
C3317 C 0.10119 0.03704 0.94786 0.0
C3318 C 0.09325 0.03912 0.96548 0.0
C3319 C 0.10253 0.02109 0.91234 0.0
C3320 C 0.12115 0.02366 0.91274 0.0
C3321 C 0.09349 0.01666 0.89353 0.0
C3322 C 0.07405 0.01389 0.89077 0.0
C3323 C 0.06565 0.02858 0.89844 0.0
C3324 C 0.04723 0.02559 0.89628 0.0
C3325 C 0.0371 0.00804 0.88631 0.0
C3326 C 0.04538 0.99347 0.87839 0.0
C3327 C 0.06379 0.99638 0.88054 0.0
H3328 H 0.02285 1.00574 0.8847 0.0
H3329 H 0.20045 0.02758 0.90574 0.0
H3330 H 0.8122 0.42753 0.56808 0.0
H3331 H 0.81316 0.41997 0.60025 0.0
H3332 H 0.83229 0.369 0.57924 0.0
H3333 H 0.83139 0.37614 0.54734 0.0
H3334 H 0.79578 0.36747 0.59507 0.0
H3335 H 0.85897 0.39374 0.60305 0.0
H3336 H 0.886 0.41923 0.60632 0.0
H3337 H 0.86861 0.45014 0.65589 0.0
H3338 H 0.84118 0.42502 0.65259 0.0
H3339 H 0.833 0.31114 0.64878 0.0
H3340 H 0.82352 0.33111 0.62761 0.0
H3341 H 0.81059 0.36874 0.67592 0.0
H3342 H 0.81911 0.34816 0.69704 0.0
H3343 H 0.83849 0.38517 0.65271 0.0
H3344 H 0.77765 0.34918 0.64544 0.0
H3345 H 0.75396 0.31972 0.63933 0.0
H3346 H 0.77227 0.30213 0.5849 0.0
H3347 H 0.79614 0.33136 0.59075 0.0
C3348 C 0.81681 0.41483 0.57039 0.0
C3349 C 0.82132 0.40214 0.55514 0.0
C3350 C 0.81759 0.41077 0.58874 0.0
C3351 C 0.82297 0.39414 0.59184 0.0
C3352 C 0.82835 0.38207 0.57692 0.0
C3353 C 0.82759 0.38605 0.55869 0.0
C3354 C 0.81954 0.38676 0.60925 0.0
C3355 C 0.8049 0.3715 0.60789 0.0
C3356 C 0.83156 0.39232 0.62571 0.0
C3357 C 0.84776 0.40774 0.62727 0.0
C3358 C 0.86067 0.40618 0.61437 0.0
C3359 C 0.87613 0.42051 0.6163 0.0
C3360 C 0.87896 0.43637 0.63123 0.0
C3361 C 0.86634 0.43791 0.64426 0.0
C3362 C 0.85081 0.42365 0.64234 0.0
C3363 C 0.82759 0.32332 0.65476 0.0
C3364 C 0.82732 0.32858 0.67451 0.0
C3365 C 0.82217 0.33464 0.64274 0.0
C3366 C 0.81657 0.35137 0.65041 0.0
C3367 C 0.81495 0.35583 0.66994 0.0
C3368 C 0.81996 0.34419 0.68195 0.0
C3369 C 0.81506 0.36531 0.63817 0.0
C3370 C 0.8288 0.38179 0.6404 0.0
C3371 C 0.80278 0.36027 0.62194 0.0
C3372 C 0.78863 0.34249 0.61854 0.0
C3373 C 0.77667 0.33897 0.63223 0.0
C3374 C 0.7632 0.32232 0.62879 0.0
C3375 C 0.76159 0.30908 0.61172 0.0
C3376 C 0.77349 0.31242 0.59808 0.0
C3377 C 0.78696 0.32905 0.60144 0.0
H3378 H 0.75113 0.29623 0.60908 0.0
H3379 H 0.89098 0.4474 0.63276 0.0
H3380 H 0.44102 0.01714 0.34337 0.0
H3381 H 0.45972 0.01673 0.37147 0.0
H3382 H 0.4436 0.06677 0.40126 0.0
H3383 H 0.42473 0.06724 0.37267 0.0
H3384 H 0.47986 0.07146 0.39652 0.0
H3385 H 0.43367 0.02604 0.41719 0.0
H3386 H 0.41007 0.99657 0.41099 0.0
H3387 H 0.4482 0.96226 0.39661 0.0
H3388 H 0.47201 0.99158 0.40238 0.0
H3389 H 0.52729 0.0777 0.48395 0.0
H3390 H 0.50625 0.07566 0.45667 0.0
H3391 H 0.52095 0.02393 0.42871 0.0
H3392 H 0.54179 0.02582 0.45641 0.0
H3393 H 0.48536 0.01938 0.43235 0.0
H3394 H 0.53092 0.06206 0.40997 0.0
H3395 H 0.55574 0.09026 0.41413 0.0
H3396 H 0.52035 0.12797 0.42848 0.0
H3397 H 0.49534 0.09993 0.42481 0.0
C3398 C 0.44093 0.02755 0.35613 0.0
C3399 C 0.43168 0.04224 0.35613 0.0
C3400 C 0.45154 0.02728 0.37215 0.0
C3401 C 0.45288 0.04172 0.38823 0.0
C3402 C 0.44248 0.0555 0.38883 0.0
C3403 C 0.43169 0.05568 0.37272 0.0
C3404 C 0.46721 0.04398 0.40292 0.0
C3405 C 0.48094 0.06033 0.40474 0.0
C3406 C 0.46879 0.02881 0.41254 0.0
C3407 C 0.45465 0.01104 0.41023 0.0
C3408 C 0.43704 0.01222 0.41272 0.0
C3409 C 0.42361 0.99554 0.40923 0.0
C3410 C 0.42763 0.97755 0.40341 0.0
C3411 C 0.44511 0.9762 0.40115 0.0
C3412 C 0.45859 0.99285 0.40457 0.0
C3413 C 0.52662 0.06656 0.4715 0.0
C3414 C 0.53624 0.05225 0.47163 0.0
C3415 C 0.51455 0.06523 0.45613 0.0
C3416 C 0.51226 0.04967 0.44087 0.0
C3417 C 0.52275 0.03602 0.44048 0.0
C3418 C 0.53478 0.0373 0.45596 0.0
C3419 C 0.49782 0.04705 0.42621 0.0
C3420 C 0.48419 0.03057 0.42425 0.0
C3421 C 0.49647 0.06189 0.4161 0.0
C3422 C 0.51124 0.07888 0.41715 0.0
C3423 C 0.52842 0.07637 0.41402 0.0
C3424 C 0.54253 0.09232 0.41634 0.0
C3425 C 0.53962 0.1109 0.42157 0.0
C3426 C 0.52257 0.11356 0.42441 0.0
C3427 C 0.50841 0.09764 0.42218 0.0
H3428 H 0.55057 0.12323 0.42342 0.0
H3429 H 0.41721 0.96466 0.40065 0.0
H3430 H 0.79058 0.6922 0.06787 0.0
H3431 H 0.79138 0.70467 0.10224 0.0
H3432 H 0.80881 0.76265 0.09249 0.0
H3433 H 0.80765 0.75034 0.05824 0.0
H3434 H 0.82651 0.75527 0.12508 0.0
H3435 H 0.76798 0.74952 0.09767 0.0
H3436 H 0.74033 0.73259 0.07812 0.0
H3437 H 0.73161 0.69096 0.11493 0.0
H3438 H 0.75941 0.70748 0.13453 0.0
H3439 H 0.80706 0.79939 0.21871 0.0
H3440 H 0.80725 0.79215 0.18366 0.0
H3441 H 0.78693 0.73193 0.18395 0.0
H3442 H 0.78729 0.739 0.21856 0.0
H3443 H 0.7702 0.74348 0.15506 0.0
H3444 H 0.82984 0.7481 0.18102 0.0
H3445 H 0.86065 0.76013 0.19514 0.0
H3446 H 0.86841 0.80257 0.15917 0.0
H3447 H 0.83757 0.79109 0.14512 0.0
C3448 C 0.7949 0.70755 0.07313 0.0
C3449 C 0.79899 0.7203 0.06038 0.0
C3450 C 0.79523 0.71469 0.09273 0.0
C3451 C 0.79994 0.73464 0.09992 0.0
C3452 C 0.80505 0.74724 0.0873 0.0
C3453 C 0.80438 0.74018 0.06773 0.0
C3454 C 0.7988 0.7425 0.1204 0.0
C3455 C 0.81415 0.75303 0.13162 0.0
C3456 C 0.78272 0.73939 0.12892 0.0
C3457 C 0.76584 0.72962 0.11745 0.0
C3458 C 0.76023 0.73667 0.10151 0.0
C3459 C 0.74453 0.72716 0.09043 0.0
C3460 C 0.73424 0.71067 0.09525 0.0
C3461 C 0.73961 0.70371 0.1112 0.0
C3462 C 0.75533 0.71315 0.12231 0.0
C3463 C 0.80214 0.78474 0.21115 0.0
C3464 C 0.79667 0.76981 0.22132 0.0
C3465 C 0.80251 0.78055 0.19117 0.0
C3466 C 0.79718 0.76142 0.18109 0.0
C3467 C 0.79106 0.74677 0.19127 0.0
C3468 C 0.79111 0.75086 0.21108 0.0
C3469 C 0.79807 0.75617 0.16005 0.0
C3470 C 0.78257 0.74608 0.14859 0.0
C3471 C 0.81407 0.75978 0.1513 0.0
C3472 C 0.83133 0.7689 0.16221 0.0
C3473 C 0.83793 0.76039 0.17656 0.0
C3474 C 0.85544 0.767 0.18443 0.0
C3475 C 0.86643 0.78199 0.17791 0.0
C3476 C 0.85984 0.79094 0.16414 0.0
C3477 C 0.84234 0.78445 0.15629 0.0
H3478 H 0.88016 0.7864 0.18317 0.0
H3479 H 0.72209 0.70332 0.08664 0.0
H3480 H 0.14225 0.98464 0.70426 0.0
H3481 H 0.12797 0.98625 0.67285 0.0
H3482 H 0.12727 0.04577 0.69293 0.0
H3483 H 0.14136 0.04426 0.72362 0.0
H3484 H 0.09693 0.03127 0.67406 0.0
H3485 H 0.15609 0.02539 0.65692 0.0
H3486 H 0.18055 0.00838 0.65311 0.0
H3487 H 0.14543 0.95941 0.61824 0.0
H3488 H 0.12074 0.97605 0.62206 0.0
H3489 H 0.06511 0.05463 0.58518 0.0
H3490 H 0.07884 0.05185 0.61567 0.0
H3491 H 0.09736 1.0027 0.58779 0.0
H3492 H 0.08706 0.00839 0.55733 0.0
H3493 H 0.11841 0.01073 0.61178 0.0
H3494 H 0.05912 0.01127 0.62766 0.0
H3495 H 0.03182 0.02338 0.63187 0.0
H3496 H 0.06128 0.07458 0.66893 0.0
H3497 H 0.08878 0.0629 0.66471 0.0
C3498 C 0.13955 0.99824 0.7019 0.0
C3499 C 0.14352 0.01437 0.71709 0.0
C3500 C 0.13111 0.99919 0.68369 0.0
C3501 C 0.12617 0.01627 0.67974 0.0
C3502 C 0.13047 0.03225 0.69486 0.0
C3503 C 0.13887 0.03135 0.71274 0.0
C3504 C 0.11652 0.01803 0.66049 0.0
C3505 C 0.10176 0.02679 0.66045 0.0
C3506 C 0.12176 0.01174 0.64211 0.0
C3507 C 0.13659 1.00186 0.63994 0.0
C3508 C 0.15359 0.01094 0.64856 0.0
C3509 C 0.16749 1.00137 0.64638 0.0
C3510 C 0.16454 0.9828 0.63549 0.0
C3511 C 0.14769 0.97377 0.62671 0.0
C3512 C 0.13376 0.98325 0.62887 0.0
C3513 C 0.07261 0.04367 0.58529 0.0
C3514 C 0.07531 0.0325 0.56783 0.0
C3515 C 0.08017 0.04146 0.60337 0.0
C3516 C 0.08954 0.02668 0.60538 0.0
C3517 C 0.09101 0.01471 0.58788 0.0
C3518 C 0.08459 0.01782 0.56988 0.0
C3519 C 0.09822 0.02371 0.62487 0.0
C3520 C 0.11304 0.01494 0.6251 0.0
C3521 C 0.09243 0.02915 0.64335 0.0
C3522 C 0.07601 0.03633 0.64566 0.0
C3523 C 0.05977 0.02517 0.6366 0.0
C3524 C 0.04427 0.03195 0.63899 0.0
C3525 C 0.04483 0.04977 0.6506 0.0
C3526 C 0.06088 0.06082 0.65988 0.0
C3527 C 0.07642 0.05414 0.65748 0.0
H3528 H 0.03281 0.05498 0.65246 0.0
H3529 H 0.17532 0.97542 0.63381 0.0
H3530 H 0.78619 0.3979 0.45083 0.0
H3531 H 0.79416 0.37674 0.42381 0.0
H3532 H 0.84914 0.40489 0.43803 0.0
H3533 H 0.84088 0.42717 0.46409 0.0
H3534 H 0.84145 0.3943 0.40073 0.0
H3535 H 0.83293 0.36104 0.45394 0.0
H3536 H 0.81707 0.35006 0.48042 0.0
H3537 H 0.77176 0.32145 0.44131 0.0
H3538 H 0.78736 0.33223 0.41463 0.0
H3539 H 0.84412 0.31535 0.32717 0.0
H3540 H 0.85235 0.33471 0.3593 0.0
H3541 H 0.79717 0.32615 0.36929 0.0
H3542 H 0.78915 0.30668 0.33769 0.0
H3543 H 0.81641 0.32515 0.40031 0.0
H3544 H 0.81897 0.37269 0.3546 0.0
H3545 H 0.83126 0.3876 0.32822 0.0
H3546 H 0.88386 0.3895 0.35148 0.0
H3547 H 0.87184 0.37518 0.37838 0.0
C3548 C 0.79982 0.4001 0.4475 0.0
C3549 C 0.81299 0.4139 0.45923 0.0
C3550 C 0.80443 0.38779 0.43248 0.0
C3551 C 0.82231 0.38874 0.42971 0.0
C3552 C 0.83533 0.40375 0.44034 0.0
C3553 C 0.83062 0.41647 0.45504 0.0
C3554 C 0.8272 0.37367 0.41597 0.0
C3555 C 0.83645 0.37912 0.40088 0.0
C3556 C 0.8207 0.35395 0.41632 0.0
C3557 C 0.81134 0.34737 0.43233 0.0
C3558 C 0.81959 0.35241 0.45102 0.0
C3559 C 0.81065 0.3462 0.46605 0.0
C3560 C 0.79343 0.33503 0.46254 0.0
C3561 C 0.78512 0.33002 0.444 0.0
C3562 C 0.79403 0.3361 0.42892 0.0
C3563 C 0.83389 0.31715 0.3366 0.0
C3564 C 0.81604 0.30927 0.33033 0.0
C3565 C 0.83857 0.32831 0.35475 0.0
C3566 C 0.82536 0.33192 0.3665 0.0
C3567 C 0.80759 0.32326 0.36048 0.0
C3568 C 0.80297 0.31194 0.34251 0.0
C3569 C 0.82942 0.3459 0.38443 0.0
C3570 C 0.82214 0.34024 0.40057 0.0
C3571 C 0.83739 0.36544 0.38489 0.0
C3572 C 0.84455 0.37257 0.36816 0.0
C3573 C 0.83314 0.37608 0.3539 0.0
C3574 C 0.84005 0.38449 0.33892 0.0
C3575 C 0.85831 0.38922 0.33798 0.0
C3576 C 0.86972 0.3857 0.35214 0.0
C3577 C 0.86288 0.37752 0.36729 0.0
H3578 H 0.86361 0.39576 0.32638 0.0
H3579 H 0.78653 0.33026 0.4742 0.0
H3580 H 0.47279 0.04224 0.26354 0.0
H3581 H 0.47815 0.04175 0.23024 0.0
H3582 H 0.42297 0.03903 0.21547 0.0
H3583 H 0.41735 0.03948 0.24894 0.0
H3584 H 0.44265 0.01115 0.19155 0.0
H3585 H 0.44316 0.07784 0.21319 0.0
H3586 H 0.44991 0.10692 0.23838 0.0
H3587 H 0.50532 0.10773 0.23812 0.0
H3588 H 0.49888 0.07845 0.2132 0.0
H3589 H 0.49303 0.01915 0.11063 0.0
H3590 H 0.46993 0.02624 0.13089 0.0
H3591 H 0.50839 0.04238 0.18004 0.0
H3592 H 0.53148 0.03538 0.1598 0.0
H3593 H 0.48544 0.06778 0.17858 0.0
H3594 H 0.48565 0.99908 0.16949 0.0
H3595 H 0.48253 0.96699 0.14947 0.0
H3596 H 0.42924 0.96741 0.13041 0.0
H3597 H 0.43223 0.99979 0.14998 0.0
C3598 C 0.4618 0.04156 0.25325 0.0
C3599 C 0.44474 0.0411 0.25876 0.0
C3600 C 0.46485 0.04124 0.23431 0.0
C3601 C 0.4509 0.04048 0.22072 0.0
C3602 C 0.43378 0.03969 0.22598 0.0
C3603 C 0.4307 0.04015 0.24503 0.0
C3604 C 0.4549 0.04114 0.20115 0.0
C3605 C 0.45136 0.0237 0.18815 0.0
C3606 C 0.46642 0.05755 0.19724 0.0
C3607 C 0.47052 0.07602 0.21118 0.0
C3608 C 0.45679 0.08427 0.21844 0.0
C3609 C 0.46056 0.10075 0.23273 0.0
C3610 C 0.47804 0.10919 0.23981 0.0
C3611 C 0.49179 0.10122 0.23256 0.0
C3612 C 0.48809 0.08471 0.2183 0.0
C3613 C 0.49645 0.02418 0.12575 0.0
C3614 C 0.51383 0.02647 0.13385 0.0
C3615 C 0.48336 0.02837 0.13719 0.0
C3616 C 0.48764 0.03495 0.15677 0.0
C3617 C 0.50502 0.03749 0.16483 0.0
C3618 C 0.51807 0.03318 0.15342 0.0
C3619 C 0.47391 0.03752 0.16947 0.0
C3620 C 0.47571 0.05559 0.18116 0.0
C3621 C 0.46113 0.02154 0.17243 0.0
C3622 C 0.45927 1.002 0.16088 0.0
C3623 C 0.47334 0.99244 0.16085 0.0
C3624 C 0.47159 0.97419 0.1496 0.0
C3625 C 0.45572 0.9652 0.13859 0.0
C3626 C 0.44155 0.97443 0.13887 0.0
C3627 C 0.44328 0.99275 0.15 0.0
H3628 H 0.45438 0.95106 0.12991 0.0
H3629 H 0.48092 0.12189 0.25093 0.0
H3630 H 0.82764 0.71123 0.96157 0.0
H3631 H 0.83095 0.7265 0.93335 0.0
H3632 H 0.77431 0.71829 0.92434 0.0
H3633 H 0.77106 0.70306 0.9526 0.0
H3634 H 0.78814 0.70662 0.89194 0.0
H3635 H 0.80135 0.76294 0.94206 0.0
H3636 H 0.81719 0.7849 0.97087 0.0
H3637 H 0.86569 0.79 0.94419 0.0
H3638 H 0.85019 0.76784 0.91531 0.0
H3639 H 0.77788 0.75967 0.82189 0.0
H3640 H 0.77845 0.75003 0.85291 0.0
H3641 H 0.83545 0.76323 0.85752 0.0
H3642 H 0.83483 0.77387 0.82655 0.0
H3643 H 0.82382 0.77206 0.89174 0.0
H3644 H 0.81183 0.71653 0.84211 0.0
H3645 H 0.79638 0.69734 0.81174 0.0
H3646 H 0.74701 0.69127 0.83676 0.0
H3647 H 0.76214 0.71069 0.86722 0.0
C3648 C 0.81594 0.71273 0.95349 0.0
C3649 C 0.79908 0.70589 0.95901 0.0
C3650 C 0.81784 0.72158 0.9375 0.0
C3651 C 0.80289 0.7237 0.92678 0.0
C3652 C 0.78603 0.71685 0.93239 0.0
C3653 C 0.78415 0.70813 0.94846 0.0
C3654 C 0.80466 0.73216 0.90918 0.0
C3655 C 0.79581 0.72101 0.892 0.0
C3656 C 0.81522 0.75067 0.90901 0.0
C3657 C 0.82464 0.7635 0.92661 0.0
C3658 C 0.81544 0.76852 0.94243 0.0
C3659 C 0.82434 0.78107 0.95875 0.0
C3660 C 0.84244 0.78878 0.95939 0.0
C3661 C 0.85168 0.78397 0.9437 0.0
C3662 C 0.84284 0.77142 0.92735 0.0
C3663 C 0.79052 0.76033 0.82942 0.0
C3664 C 0.8063 0.76669 0.82153 0.0
C3665 C 0.79086 0.75496 0.84722 0.0
C3666 C 0.80699 0.75523 0.85726 0.0
C3667 C 0.82285 0.76263 0.8499 0.0
C3668 C 0.8225 0.76851 0.83219 0.0
C3669 C 0.80703 0.74664 0.87476 0.0
C3670 C 0.81628 0.75763 0.89177 0.0
C3671 C 0.79708 0.72786 0.8748 0.0
C3672 C 0.78811 0.71507 0.85694 0.0
C3673 C 0.79768 0.71104 0.84115 0.0
C3674 C 0.78898 0.70018 0.82391 0.0
C3675 C 0.77073 0.69308 0.82234 0.0
C3676 C 0.76116 0.69674 0.83803 0.0
C3677 C 0.76979 0.70764 0.8553 0.0
H3678 H 0.76399 0.68476 0.80894 0.0
H3679 H 0.8493 0.79854 0.97202 0.0
H3680 H 0.81768 0.1014 0.00648 0.0
H3681 H 0.8435 0.08713 0.00602 0.0
H3682 H 0.8687 0.12999 0.05491 0.0
H3683 H 0.84335 0.14543 0.05406 0.0
H3684 H 0.89033 0.1264 0.02958 0.0
H3685 H 0.84958 0.07943 0.05647 0.0
H3686 H 0.82041 0.05778 0.05582 0.0
H3687 H 0.82771 0.02599 1.00145 0.0
H3688 H 0.85678 0.04756 1.00165 0.0
H3689 H 0.96148 0.07748 0.01914 0.0
H3690 H 0.93907 0.09332 0.03267 0.0
H3691 H 0.89888 0.05219 0.99392 0.0
H3692 H 0.92048 0.03449 0.98282 0.0
H3693 H 0.88652 0.05625 0.02381 0.0
H3694 H 0.92014 0.10402 0.99069 0.0
H3695 H 0.9449 0.12874 0.98401 0.0
H3696 H 0.94826 0.1597 0.04144 0.0
H3697 H 0.92365 0.13508 0.04849 0.0
C3698 C 0.82863 0.10746 0.01733 0.0
C3699 C 0.82867 0.12411 0.03058 0.0
C3700 C 0.84329 0.09928 0.01716 0.0
C3701 C 0.85772 0.10709 0.0309 0.0
C3702 C 0.85755 0.12362 0.04439 0.0
C3703 C 0.84315 0.13231 0.04402 0.0
C3704 C 0.8735 0.09884 0.03015 0.0
C3705 C 0.88966 0.1111 0.02869 0.0
C3706 C 0.87236 0.07885 0.02855 0.0
C3707 C 0.85542 0.06507 0.02915 0.0
C3708 C 0.845 0.06775 0.04444 0.0
C3709 C 0.82845 0.05554 0.0441 0.0
C3710 C 0.82223 0.04051 0.02862 0.0
C3711 C 0.83257 0.03759 0.01347 0.0
C3712 C 0.84911 0.04976 0.01372 0.0
C3713 C 0.94782 0.07141 0.01386 0.0
C3714 C 0.94292 0.05452 0.99977 0.0
C3715 C 0.93503 0.08084 0.02135 0.0
C3716 C 0.91725 0.07413 0.01421 0.0
C3717 C 0.91248 0.05763 0.99986 0.0
C3718 C 0.92502 0.04769 0.99314 0.0
C3719 C 0.90322 0.0836 0.02166 0.0
C3720 C 0.88741 0.07162 0.02494 0.0
C3721 C 0.90449 0.10375 0.02404 0.0
C3722 C 0.92026 0.11754 0.02019 0.0
C3723 C 0.92635 0.11594 1.00196 0.0
C3724 C 0.94026 0.13002 0.99807 0.0
C3725 C 0.94809 0.14582 0.01226 0.0
C3726 C 0.94217 0.14747 0.03044 0.0
C3727 C 0.92827 0.13345 0.0344 0.0
H3728 H 0.95883 0.15672 0.0092 0.0
H3729 H 0.80938 0.03113 0.02835 0.0
H3730 H 0.352 0.44018 0.02486 0.0
H3731 H 0.38097 0.46229 0.02622 0.0
H3732 H 0.40591 0.42274 0.05082 0.0
H3733 H 0.37724 0.40055 0.04909 0.0
H3734 H 0.41982 0.46082 0.06837 0.0
H3735 H 0.40819 0.4227 0.00609 0.0
H3736 H 0.39088 0.40808 0.97528 0.0
H3737 H 0.39242 0.46433 0.96226 0.0
H3738 H 0.40948 0.47931 0.9932 0.0
H3739 H 0.50929 0.48801 0.04295 0.0
H3740 H 0.47922 0.47012 0.04546 0.0
H3741 H 0.45798 0.51626 0.02892 0.0
H3742 H 0.48808 0.53451 0.02712 0.0
H3743 H 0.44181 0.47614 0.0077 0.0
H3744 H 0.45593 0.51348 0.07123 0.0
H3745 H 0.47393 0.52581 0.10202 0.0
H3746 H 0.46885 0.46806 0.11226 0.0
H3747 H 0.45108 0.45535 0.08134 0.0
C3748 C 0.36364 0.43636 0.0308 0.0
C3749 C 0.36229 0.41855 0.03679 0.0
C3750 C 0.38022 0.44895 0.03149 0.0
C3751 C 0.39574 0.44418 0.03854 0.0
C3752 C 0.39423 0.42682 0.04533 0.0
C3753 C 0.37779 0.41409 0.04426 0.0
C3754 C 0.41364 0.45671 0.03802 0.0
C3755 C 0.42463 0.46408 0.05508 0.0
C3756 C 0.42006 0.46105 0.02073 0.0
C3757 C 0.40991 0.45214 1.00207 0.0
C3758 C 0.40469 0.43197 0.99674 0.0
C3759 C 0.39495 0.42361 0.97925 0.0
C3760 C 0.3905 0.43528 0.96685 0.0
C3761 C 0.39584 0.45532 0.97191 0.0
C3762 C 0.40554 0.46376 0.98943 0.0
C3763 C 0.49821 0.49447 0.04016 0.0
C3764 C 0.5011 0.51282 0.03514 0.0
C3765 C 0.48102 0.4842 0.04152 0.0
C3766 C 0.46625 0.49178 0.03735 0.0
C3767 C 0.46911 0.51009 0.03225 0.0
C3768 C 0.48634 0.52061 0.03141 0.0
C3769 C 0.44789 0.48045 0.03808 0.0
C3770 C 0.4369 0.47312 0.02102 0.0
C3771 C 0.44159 0.47586 0.05533 0.0
C3772 C 0.45235 0.48345 0.07387 0.0
C3773 C 0.45882 0.50339 0.07994 0.0
C3774 C 0.46895 0.51046 0.09744 0.0
C3775 C 0.47258 0.49773 0.10907 0.0
C3776 C 0.46606 0.4779 0.10323 0.0
C3777 C 0.45596 0.47076 0.08572 0.0
H3778 H 0.4804 0.50323 0.12263 0.0
H3779 H 0.38296 0.42878 0.9533 0.0
H3780 H 0.38265 0.60336 0.77226 0.0
H3781 H 0.36693 0.62939 0.77273 0.0
H3782 H 0.4164 0.67088 0.78188 0.0
H3783 H 0.43219 0.64454 0.78265 0.0
H3784 H 0.39665 0.69118 0.79731 0.0
H3785 H 0.38179 0.65247 0.73468 0.0
H3786 H 0.37108 0.62256 0.71096 0.0
H3787 H 0.32093 0.61407 0.73436 0.0
H3788 H 0.33141 0.64385 0.75831 0.0
H3789 H 0.35223 0.75807 0.75229 0.0
H3790 H 0.36785 0.73266 0.7561 0.0
H3791 H 0.32853 0.70953 0.7908 0.0
H3792 H 0.3134 0.73617 0.78825 0.0
H3793 H 0.34279 0.68086 0.75298 0.0
H3794 H 0.36577 0.71441 0.82249 0.0
H3795 H 0.37541 0.74613 0.84381 0.0
H3796 H 0.4086 0.76672 0.80228 0.0
H3797 H 0.39947 0.73491 0.78096 0.0
C3798 C 0.39043 0.61795 0.7743 0.0
C3799 C 0.40914 0.62105 0.77716 0.0
C3800 C 0.38119 0.6333 0.77431 0.0
C3801 C 0.38986 0.65309 0.77655 0.0
C3802 C 0.40865 0.65628 0.77982 0.0
C3803 C 0.41793 0.64085 0.78017 0.0
C3804 C 0.3795 0.66991 0.77553 0.0
C3805 C 0.38497 0.68851 0.7874 0.0
C3806 C 0.36386 0.6679 0.7629 0.0
C3807 C 0.35743 0.65025 0.74835 0.0
C3808 C 0.3685 0.64418 0.73477 0.0
C3809 C 0.36247 0.62726 0.7213 0.0
C3810 C 0.34535 0.61639 0.72119 0.0
C3811 C 0.33419 0.62248 0.73448 0.0
C3812 C 0.34015 0.63939 0.74798 0.0
C3813 C 0.34662 0.74778 0.7609 0.0
C3814 C 0.33071 0.74969 0.76942 0.0
C3815 C 0.35583 0.73287 0.76305 0.0
C3816 C 0.34972 0.71825 0.77353 0.0
C3817 C 0.33395 0.72007 0.78237 0.0
C3818 C 0.32497 0.73553 0.78073 0.0
C3819 C 0.35979 0.70153 0.77492 0.0
C3820 C 0.35438 0.68319 0.76298 0.0
C3821 C 0.37555 0.70384 0.78715 0.0
C3822 C 0.38212 0.72234 0.80032 0.0
C3823 C 0.37532 0.72565 0.81808 0.0
C3824 C 0.38067 0.74362 0.83013 0.0
C3825 C 0.39266 0.75841 0.82442 0.0
C3826 C 0.39937 0.75522 0.8067 0.0
C3827 C 0.39424 0.73719 0.79471 0.0
H3828 H 0.39675 0.77234 0.83373 0.0
H3829 H 0.34072 0.60327 0.71077 0.0
H3830 H 0.24457 0.60844 0.523 0.0
H3831 H 0.21528 0.59057 0.52736 0.0
H3832 H 0.19146 0.62894 0.49949 0.0
H3833 H 0.22061 0.64701 0.49511 0.0
H3834 H 0.18228 0.62722 0.53646 0.0
H3835 H 0.18767 0.5844 0.4781 0.0
H3836 H 0.20153 0.56186 0.45736 0.0
H3837 H 0.19623 0.52401 0.49804 0.0
H3838 H 0.18264 0.54652 0.5192 0.0
H3839 H 0.0924 0.59062 0.51813 0.0
H3840 H 0.12377 0.60431 0.52248 0.0
H3841 H 0.13355 0.55091 0.53604 0.0
H3842 H 0.1022 0.53625 0.52788 0.0
H3843 H 0.15253 0.55903 0.51219 0.0
H3844 H 0.14776 0.60246 0.57152 0.0
H3845 H 0.13397 0.62542 0.59212 0.0
H3846 H 0.13733 0.66141 0.54985 0.0
H3847 H 0.15165 0.63908 0.52938 0.0
C3848 C 0.2331 0.61277 0.51731 0.0
C3849 C 0.23484 0.62929 0.50894 0.0
C3850 C 0.21643 0.60256 0.51985 0.0
C3851 C 0.20142 0.60868 0.5139 0.0
C3852 C 0.20305 0.62423 0.50429 0.0
C3853 C 0.21967 0.63446 0.50177 0.0
C3854 C 0.18411 0.60021 0.51931 0.0
C3855 C 0.17568 0.61228 0.53124 0.0
C3856 C 0.17603 0.58064 0.51302 0.0
C3857 C 0.1844 0.56728 0.50036 0.0
C3858 C 0.18968 0.5714 0.48274 0.0
C3859 C 0.19744 0.5586 0.47088 0.0
C3860 C 0.19983 0.54155 0.47641 0.0
C3861 C 0.19443 0.53725 0.4938 0.0
C3862 C 0.18671 0.55002 0.50573 0.0
C3863 C 0.10131 0.5821 0.52261 0.0
C3864 C 0.09511 0.56276 0.52357 0.0
C3865 C 0.11926 0.59004 0.52554 0.0
C3866 C 0.13117 0.57899 0.53042 0.0
C3867 C 0.12466 0.55984 0.53251 0.0
C3868 C 0.10678 0.55152 0.5282 0.0
C3869 C 0.15023 0.58605 0.52935 0.0
C3870 C 0.15916 0.57378 0.51815 0.0
C3871 C 0.15886 0.60544 0.53646 0.0
C3872 C 0.1506 0.61905 0.54893 0.0
C3873 C 0.14551 0.61527 0.56667 0.0
C3874 C 0.1377 0.6282 0.57833 0.0
C3875 C 0.1346 0.64472 0.5722 0.0
C3876 C 0.13968 0.64859 0.55457 0.0
C3877 C 0.14783 0.63594 0.54305 0.0
H3878 H 0.12835 0.65457 0.58116 0.0
H3879 H 0.20581 0.53164 0.46719 0.0
H3880 H 0.72408 1.00595 0.72125 0.0
H3881 H 0.74062 0.98123 0.72575 0.0
H3882 H 0.69942 0.95483 0.75701 0.0
H3883 H 0.68257 0.97875 0.75207 0.0
H3884 H 0.74025 0.97337 0.77459 0.0
H3885 H 0.69747 0.92713 0.72688 0.0
H3886 H 0.68141 0.92 0.69487 0.0
H3887 H 0.73062 0.92621 0.66948 0.0
H3888 H 0.74697 0.93385 0.70146 0.0
H3889 H 0.76414 0.89772 0.80772 0.0
H3890 H 0.74495 0.91436 0.79167 0.0
H3891 H 0.77882 0.91642 0.74577 0.0
H3892 H 0.79762 0.89901 0.76148 0.0
H3893 H 0.74395 0.91175 0.73335 0.0
H3894 H 0.7866 0.95286 0.78253 0.0
H3895 H 0.80211 0.96291 0.81486 0.0
H3896 H 0.75334 0.96876 0.8382 0.0
H3897 H 0.73748 0.95841 0.80605 0.0
C3898 C 0.71829 0.99438 0.72838 0.0
C3899 C 0.70215 0.99412 0.73631 0.0
C3900 C 0.72773 0.98049 0.73102 0.0
C3901 C 0.72106 0.96659 0.74174 0.0
C3902 C 0.7045 0.96557 0.74861 0.0
C3903 C 0.6949 0.97911 0.74561 0.0
C3904 C 0.73204 0.95427 0.74757 0.0
C3905 C 0.74111 0.95984 0.76572 0.0
C3906 C 0.73313 0.93706 0.73562 0.0
C3907 C 0.7234 0.93115 0.71647 0.0
C3908 C 0.70485 0.92703 0.71445 0.0
C3909 C 0.6957 0.92293 0.69634 0.0
C3910 C 0.70499 0.92268 0.68014 0.0
C3911 C 0.72344 0.92642 0.68204 0.0
C3912 C 0.73266 0.93063 0.70015 0.0
C3913 C 0.76726 0.90159 0.79411 0.0
C3914 C 0.78246 0.8979 0.78597 0.0
C3915 C 0.75635 0.91089 0.78495 0.0
C3916 C 0.76093 0.91697 0.76794 0.0
C3917 C 0.77533 0.91191 0.75903 0.0
C3918 C 0.78606 0.90224 0.76802 0.0
C3919 C 0.7519 0.93049 0.76075 0.0
C3920 C 0.7433 0.9253 0.74226 0.0
C3921 C 0.75122 0.94816 0.77251 0.0
C3922 C 0.76083 0.95471 0.79186 0.0
C3923 C 0.77916 0.95617 0.79456 0.0
C3924 C 0.78802 0.96193 0.81286 0.0
C3925 C 0.77871 0.96644 0.82857 0.0
C3926 C 0.76053 0.96525 0.82601 0.0
C3927 C 0.7516 0.95945 0.80775 0.0
H3928 H 0.78559 0.97088 0.84273 0.0
H3929 H 0.69789 0.91957 0.66612 0.0
H3930 H 0.74426 0.88957 0.53931 0.0
H3931 H 0.71834 0.90399 0.53801 0.0
H3932 H 0.75199 0.95762 0.53125 0.0
H3933 H 0.77779 0.94376 0.53427 0.0
H3934 H 0.73074 0.9666 0.55266 0.0
H3935 H 0.72112 0.91862 0.49337 0.0
H3936 H 0.7156 0.88575 0.47422 0.0
H3937 H 0.66931 0.86912 0.50285 0.0
H3938 H 0.67469 0.90179 0.52231 0.0
H3939 H 0.67654 0.01481 0.50851 0.0
H3940 H 0.69702 0.99539 0.51622 0.0
H3941 H 0.6541 0.95364 0.53081 0.0
H3942 H 0.6331 0.97276 0.52194 0.0
H3943 H 0.67623 0.93603 0.50998 0.0
H3944 H 0.68397 0.98484 0.56594 0.0
H3945 H 0.68841 0.01812 0.58378 0.0
H3946 H 0.7379 0.03333 0.56021 0.0
H3947 H 0.73365 1.0002 0.54205 0.0
C3948 C 0.74605 0.90451 0.53778 0.0
C3949 C 0.76307 0.9156 0.53708 0.0
C3950 C 0.73118 0.9127 0.53674 0.0
C3951 C 0.73296 0.9319 0.53413 0.0
C3952 C 0.75006 0.94285 0.53338 0.0
C3953 C 0.76489 0.93491 0.53511 0.0
C3954 C 0.71741 0.94112 0.5327 0.0
C3955 C 0.71897 0.95987 0.54309 0.0
C3956 C 0.70145 0.93221 0.52103 0.0
C3957 C 0.69846 0.91255 0.50947 0.0
C3958 C 0.70987 0.90789 0.49568 0.0
C3959 C 0.70674 0.88931 0.48476 0.0
C3960 C 0.69216 0.87534 0.48737 0.0
C3961 C 0.68064 0.87993 0.50088 0.0
C3962 C 0.68372 0.89846 0.51186 0.0
C3963 C 0.67136 1.00147 0.51329 0.0
C3964 C 0.65313 0.99527 0.51442 0.0
C3965 C 0.68316 0.99045 0.51791 0.0
C3966 C 0.6772 0.97315 0.52438 0.0
C3967 C 0.65902 0.96698 0.52592 0.0
C3968 C 0.64707 0.97801 0.52105 0.0
C3969 C 0.69019 0.96166 0.52912 0.0
C3970 C 0.68804 0.94256 0.51956 0.0
C3971 C 0.7057 0.97021 0.54144 0.0
C3972 C 0.70847 0.99005 0.55264 0.0
C3973 C 0.69577 0.9953 0.56454 0.0
C3974 C 0.69826 0.01414 0.57469 0.0
C3975 C 0.71343 0.02783 0.57313 0.0
C3976 C 0.72617 0.02271 0.56143 0.0
C3977 C 0.72375 1.00389 0.55124 0.0
H3978 H 0.71532 0.04242 0.58099 0.0
H3979 H 0.68975 0.86098 0.47889 0.0
H3980 H 0.41225 0.51023 0.80651 0.0
H3981 H 0.39345 0.4783 0.80508 0.0
H3982 H 0.38406 0.47212 0.74413 0.0
H3983 H 0.40221 0.5048 0.74588 0.0
H3984 H 0.35658 0.4521 0.75223 0.0
H3985 H 0.41415 0.44834 0.77063 0.0
H3986 H 0.44361 0.45681 0.78846 0.0
H3987 H 0.4201 0.44604 0.83963 0.0
H3988 H 0.39044 0.43776 0.82214 0.0
H3989 H 0.32869 0.34743 0.7422 0.0
H3990 H 0.34508 0.38043 0.74218 0.0
H3991 H 0.34175 0.39512 0.8026 0.0
H3992 H 0.32489 0.3621 0.80247 0.0
H3993 H 0.37602 0.40981 0.79313 0.0
H3994 H 0.31673 0.41098 0.76818 0.0
H3995 H 0.29033 0.39927 0.7451 0.0
H3996 H 0.32193 0.41094 0.69928 0.0
H3997 H 0.34857 0.42236 0.72204 0.0
C3998 C 0.40585 0.50233 0.7928 0.0
C3999 C 0.40863 0.51073 0.77643 0.0
C4000 C 0.39522 0.48359 0.79188 0.0
C4001 C 0.3873 0.47172 0.77438 0.0
C4002 C 0.38973 0.48034 0.75798 0.0
C4003 C 0.40015 0.49935 0.75898 0.0
C4004 C 0.37689 0.45061 0.77335 0.0
C4005 C 0.36111 0.443 0.76115 0.0
C4006 C 0.38231 0.43774 0.78449 0.0
C4007 C 0.40006 0.44263 0.79513 0.0
C4008 C 0.41525 0.4479 0.78572 0.0
C4009 C 0.43198 0.45266 0.79576 0.0
C4010 C 0.43372 0.45202 0.81518 0.0
C4011 C 0.41872 0.44656 0.82459 0.0
C4012 C 0.40194 0.44182 0.81462 0.0
C4013 C 0.33107 0.35777 0.75547 0.0
C4014 C 0.3248 0.35188 0.77222 0.0
C4015 C 0.34063 0.37685 0.75547 0.0
C4016 C 0.34486 0.39098 0.77237 0.0
C4017 C 0.33881 0.38499 0.78921 0.0
C4018 C 0.32887 0.36598 0.78911 0.0
C4019 C 0.35557 0.41167 0.7725 0.0
C4020 C 0.37148 0.4191 0.78442 0.0
C4021 C 0.35072 0.42397 0.7604 0.0
C4022 C 0.33465 0.41742 0.74681 0.0
C4023 C 0.31806 0.41095 0.75317 0.0
C4024 C 0.30306 0.40436 0.74014 0.0
C4025 C 0.30446 0.40435 0.72073 0.0
C4026 C 0.32087 0.41095 0.71431 0.0
C4027 C 0.33592 0.41748 0.72727 0.0
H4028 H 0.29283 0.39926 0.71067 0.0
H4029 H 0.44669 0.4557 0.82293 0.0
H4030 H 0.19523 0.61753 0.27881 0.0
H4031 H 0.21606 0.64633 0.27415 0.0
H4032 H 0.24424 0.61104 0.23801 0.0
H4033 H 0.22379 0.58216 0.24277 0.0
H4034 H 0.26546 0.64072 0.26626 0.0
H4035 H 0.21744 0.63287 0.21619 0.0
H4036 H 0.18567 0.62731 0.20578 0.0
H4037 H 0.18164 0.67791 0.24521 0.0
H4038 H 0.2133 0.6837 0.25592 0.0
H4039 H 0.31144 0.73736 0.27109 0.0
H4040 H 0.29894 0.70385 0.25555 0.0
H4041 H 0.24726 0.71124 0.27089 0.0
H4042 H 0.25939 0.74518 0.28314 0.0
H4043 H 0.24262 0.69078 0.23901 0.0
H4044 H 0.27991 0.69157 0.29812 0.0
H4045 H 0.30919 0.70001 0.31649 0.0
H4046 H 0.32997 0.66642 0.27126 0.0
H4047 H 0.30086 0.65803 0.25255 0.0
C4048 C 0.20592 0.61591 0.26999 0.0
C4049 C 0.20786 0.59769 0.2611 0.0
C4050 C 0.21768 0.63228 0.26725 0.0
C4051 C 0.23127 0.63054 0.25539 0.0
C4052 C 0.23364 0.61244 0.24703 0.0
C4053 C 0.22199 0.59605 0.24987 0.0
C4054 C 0.24316 0.64782 0.25207 0.0
C4055 C 0.26067 0.6516 0.25996 0.0
C4056 C 0.23662 0.66179 0.24393 0.0
C4057 C 0.21777 0.65878 0.23672 0.0
C4058 C 0.20978 0.64284 0.22256 0.0
C4059 C 0.19178 0.63964 0.21665 0.0
C4060 C 0.18165 0.65227 0.2248 0.0
C4061 C 0.1895 0.66818 0.23884 0.0
C4062 C 0.20749 0.67148 0.24477 0.0
C4063 C 0.29736 0.73172 0.27036 0.0
C4064 C 0.28608 0.74354 0.27718 0.0
C4065 C 0.29027 0.71264 0.26188 0.0
C4066 C 0.27213 0.70505 0.26192 0.0
C4067 C 0.26119 0.71687 0.27009 0.0
C4068 C 0.2681 0.73608 0.27743 0.0
C4069 C 0.26432 0.68452 0.25522 0.0
C4070 C 0.2477 0.67976 0.24477 0.0
C4071 C 0.27119 0.67009 0.26228 0.0
C4072 C 0.28833 0.67429 0.27394 0.0
C4073 C 0.29074 0.68594 0.29217 0.0
C4074 C 0.3073 0.69077 0.30259 0.0
C4075 C 0.32144 0.68378 0.29503 0.0
C4076 C 0.31902 0.67185 0.27708 0.0
C4077 C 0.30251 0.66705 0.26656 0.0
H4078 H 0.33426 0.68758 0.30309 0.0
H4079 H 0.16771 0.64972 0.22025 0.0
H4080 H 0.49538 0.71752 0.46748 0.0
H4081 H 0.50143 0.68945 0.4791 0.0
H4082 H 0.55138 0.69715 0.45471 0.0
H4083 H 0.54472 0.7247 0.44192 0.0
H4084 H 0.54035 0.66191 0.4503 0.0
H4085 H 0.54286 0.70938 0.50808 0.0
H4086 H 0.53141 0.73222 0.53129 0.0
H4087 H 0.48783 0.68701 0.53756 0.0
H4088 H 0.49895 0.66396 0.51429 0.0
H4089 H 0.57365 0.59528 0.49133 0.0
H4090 H 0.5696 0.62637 0.48615 0.0
H4091 H 0.52076 0.61728 0.51262 0.0
H4092 H 0.5273 0.58781 0.52157 0.0
H4093 H 0.53029 0.65299 0.51641 0.0
H4094 H 0.52667 0.60579 0.45891 0.0
H4095 H 0.53838 0.58178 0.43737 0.0
H4096 H 0.58298 0.62563 0.43071 0.0
H4097 H 0.57158 0.64985 0.45231 0.0
C4098 C 0.50764 0.7132 0.46441 0.0
C4099 C 0.51952 0.72357 0.45364 0.0
C4100 C 0.51126 0.69716 0.47141 0.0
C4101 C 0.52724 0.69116 0.46857 0.0
C4102 C 0.53898 0.70126 0.45741 0.0
C4103 C 0.53514 0.7171 0.44997 0.0
C4104 C 0.53147 0.67418 0.47664 0.0
C4105 C 0.53836 0.66028 0.46488 0.0
C4106 C 0.52838 0.67112 0.49549 0.0
C4107 C 0.52165 0.68502 0.50933 0.0
C4108 C 0.53078 0.70436 0.51433 0.0
C4109 C 0.52436 0.71733 0.52751 0.0
C4110 C 0.50888 0.71108 0.53586 0.0
C4111 C 0.4998 0.69184 0.53107 0.0
C4112 C 0.50617 0.67882 0.51791 0.0
C4113 C 0.5631 0.60071 0.49779 0.0
C4114 C 0.55186 0.58963 0.50839 0.0
C4115 C 0.56004 0.61819 0.49375 0.0
C4116 C 0.54433 0.62419 0.498 0.0
C4117 C 0.53302 0.6133 0.50894 0.0
C4118 C 0.53683 0.5964 0.51423 0.0
C4119 C 0.53944 0.641 0.49014 0.0
C4120 C 0.53231 0.65472 0.50185 0.0
C4121 C 0.54209 0.64383 0.47117 0.0
C4122 C 0.5483 0.62958 0.45723 0.0
C4123 C 0.53892 0.6103 0.45275 0.0
C4124 C 0.54553 0.59665 0.44059 0.0
C4125 C 0.56142 0.60217 0.4327 0.0
C4126 C 0.57066 0.62138 0.43681 0.0
C4127 C 0.56411 0.63508 0.44896 0.0
H4128 H 0.56658 0.59156 0.42339 0.0
H4129 H 0.50394 0.72114 0.54606 0.0
H4130 H 0.65148 0.30664 0.61961 0.0
H4131 H 0.6754 0.30332 0.64144 0.0
H4132 H 0.64953 0.32563 0.68927 0.0
H4133 H 0.62504 0.32871 0.66722 0.0
H4134 H 0.68686 0.34177 0.69291 0.0
H4135 H 0.64906 0.27871 0.67972 0.0
H4136 H 0.63145 0.24908 0.6594 0.0
H4137 H 0.67788 0.23838 0.63348 0.0
H4138 H 0.69573 0.26813 0.65343 0.0
H4139 H 0.74714 0.31992 0.76058 0.0
H4140 H 0.72114 0.32304 0.74197 0.0
H4141 H 0.73549 0.28773 0.69294 0.0
H4142 H 0.76089 0.28341 0.71212 0.0
H4143 H 0.70264 0.27832 0.69106 0.0
H4144 H 0.74051 0.34091 0.70179 0.0
H4145 H 0.75901 0.37108 0.72026 0.0
H4146 H 0.7142 0.38364 0.7484 0.0
H4147 H 0.69549 0.35335 0.73035 0.0
C4148 C 0.65075 0.31096 0.63476 0.0
C4149 C 0.63613 0.31809 0.64145 0.0
C4150 C 0.66455 0.30893 0.64733 0.0
C4151 C 0.66451 0.31412 0.66721 0.0
C4152 C 0.65006 0.32148 0.67406 0.0
C4153 C 0.63596 0.32319 0.6614 0.0
C4154 C 0.67953 0.31165 0.68048 0.0
C4155 C 0.69009 0.32782 0.69274 0.0
C4156 C 0.68439 0.29363 0.67999 0.0
C4157 C 0.6737 0.27574 0.66797 0.0
C4158 C 0.65549 0.27013 0.66957 0.0
C4159 C 0.64547 0.2533 0.65814 0.0
C4160 C 0.65353 0.24188 0.64513 0.0
C4161 C 0.67165 0.24725 0.64355 0.0
C4162 C 0.68172 0.26409 0.65493 0.0
C4163 C 0.74473 0.31244 0.74606 0.0
C4164 C 0.75636 0.30115 0.7383 0.0
C4165 C 0.72982 0.31458 0.73509 0.0
C4166 C 0.72611 0.30596 0.71564 0.0
C4167 C 0.73772 0.29466 0.70781 0.0
C4168 C 0.75249 0.2923 0.71888 0.0
C4169 C 0.71022 0.3085 0.70354 0.0
C4170 C 0.69947 0.29232 0.6914 0.0
C4171 C 0.7054 0.32659 0.70391 0.0
C4172 C 0.71663 0.34476 0.71485 0.0
C4173 C 0.73463 0.35003 0.71203 0.0
C4174 C 0.74515 0.36715 0.72242 0.0
C4175 C 0.73779 0.37925 0.73553 0.0
C4176 C 0.71989 0.37424 0.73827 0.0
C4177 C 0.70932 0.35709 0.72797 0.0
H4178 H 0.74595 0.39252 0.74353 0.0
H4179 H 0.64576 0.22884 0.6363 0.0
H4180 H 0.05371 0.33102 0.95558 0.0
H4181 H 0.0571 0.36477 0.97147 0.0
H4182 H 1.00045 0.35737 0.96807 0.0
H4183 H 0.99712 0.32353 0.95242 0.0
H4184 H 0.01644 0.38864 0.95375 0.0
H4185 H 0.02521 0.36358 0.01117 0.0
H4186 H 0.03943 0.34702 0.03307 0.0
H4187 H 0.08905 0.38629 0.0328 0.0
H4188 H 0.07518 0.40292 0.01069 0.0
H4189 H 0.0147 0.48236 0.9918 0.0
H4190 H 0.00932 0.4477 0.98874 0.0
H4191 H 0.06361 0.45289 0.00967 0.0
H4192 H 0.06727 0.48791 0.01718 0.0
H4193 H 0.04925 0.42184 0.01584 0.0
H4194 H 0.04376 0.44465 0.95686 0.0
H4195 H 0.03163 0.46265 0.93479 0.0
H4196 H 0.97967 0.42817 0.93559 0.0
H4197 H 0.99148 0.41012 0.95781 0.0
C4198 C 0.042 0.33656 0.95855 0.0
C4199 C 0.02514 0.32466 0.95284 0.0
C4200 C 0.04395 0.35584 0.96772 0.0
C4201 C 0.02905 0.36376 0.97119 0.0
C4202 C 0.01218 0.35169 0.96571 0.0
C4203 C 0.01025 0.33233 0.95678 0.0
C4204 C 0.03097 0.38493 0.97878 0.0
C4205 C 0.02341 0.3958 0.96747 0.0
C4206 C 0.04076 0.39468 0.99628 0.0
C4207 C 0.0492 0.38433 0.00909 0.0
C4208 C 0.0392 0.36852 0.01559 0.0
C4209 C 0.04719 0.35917 0.02809 0.0
C4210 C 0.06515 0.36556 0.03428 0.0
C4211 C 0.07516 0.38132 0.02797 0.0
C4212 C 0.06724 0.39071 0.01546 0.0
C4213 C 0.02489 0.4763 0.99738 0.0
C4214 C 0.04096 0.48823 0.00571 0.0
C4215 C 0.02223 0.45616 0.99459 0.0
C4216 C 0.03631 0.44714 0.9978 0.0
C4217 C 0.05239 0.45905 0.00672 0.0
C4218 C 0.05454 0.47925 0.01094 0.0
C4219 C 0.03457 0.4257 0.99083 0.0
C4220 C 0.04227 0.41476 1.00212 0.0
C4221 C 0.02542 0.41588 0.97294 0.0
C4222 C 0.01846 0.42618 0.95905 0.0
C4223 C 0.02976 0.44093 0.95229 0.0
C4224 C 0.02293 0.45115 0.9398 0.0
C4225 C 1.00488 0.44659 0.93383 0.0
C4226 C 0.99364 0.4317 0.94024 0.0
C4227 C 1.00038 0.42145 0.95274 0.0
H4228 H 0.99962 0.45457 0.92422 0.0
H4229 H 0.07129 0.35833 0.044 0.0
H4230 H 0.04592 0.80058 0.16724 0.0
H4231 H 0.01821 0.79723 0.18223 0.0
H4232 H 0.99288 0.81322 0.13408 0.0
H4233 H 0.02072 0.81654 0.11889 0.0
H4234 H 0.98307 0.83108 0.16774 0.0
H4235 H 0.98299 0.76732 0.13894 0.0
H4236 H 0.99447 0.73795 0.12983 0.0
H4237 H 1.00143 0.73321 0.18873 0.0
H4238 H 0.99022 0.76273 0.19821 0.0
H4239 H 0.89875 0.80052 0.2077 0.0
H4240 H 0.92248 0.80676 0.18659 0.0
H4241 H 0.95777 0.78926 0.22541 0.0
H4242 H 0.93428 0.78256 0.24578 0.0
H4243 H 0.95931 0.77072 0.19082 0.0
H4244 H 0.95974 0.83779 0.2182 0.0
H4245 H 0.94686 0.86655 0.22432 0.0
H4246 H 0.93665 0.86347 0.16407 0.0
H4247 H 0.94926 0.83455 0.15762 0.0
C4248 C 0.03448 0.80335 0.15976 0.0
C4249 C 0.03562 0.80873 0.14177 0.0
C4250 C 0.01855 0.80138 0.16837 0.0
C4251 C 1.00326 0.80482 0.15932 0.0
C4252 C 1.0044 0.81047 0.14143 0.0
C4253 C 0.02034 0.81225 0.1327 0.0
C4254 C 0.98624 0.80229 0.16864 0.0
C4255 C 0.97774 0.81777 0.17256 0.0
C4256 C 0.97901 0.78495 0.17485 0.0
C4257 C 0.98591 0.76731 0.16929 0.0
C4258 C 0.98712 0.76011 0.14996 0.0
C4259 C 0.99354 0.74342 0.14473 0.0
C4260 C 0.99871 0.73374 0.1587 0.0
C4261 C 0.99744 0.74073 0.17793 0.0
C4262 C 0.99103 0.75743 0.18324 0.0
C4263 C 0.91144 0.79768 0.21149 0.0
C4264 C 0.91395 0.78949 0.22772 0.0
C4265 C 0.92518 0.80156 0.19956 0.0
C4266 C 0.942 0.79798 0.204 0.0
C4267 C 0.94489 0.7916 0.22116 0.0
C4268 C 0.93125 0.78763 0.23284 0.0
C4269 C 0.95655 0.79983 0.19084 0.0
C4270 C 0.96456 0.78405 0.18601 0.0
C4271 C 0.96303 0.81675 0.18348 0.0
C4272 C 0.95523 0.83391 0.18745 0.0
C4273 C 0.95458 0.84314 0.20628 0.0
C4274 C 0.94737 0.85949 0.2098 0.0
C4275 C 0.94089 0.8668 0.1946 0.0
C4276 C 0.94163 0.85778 0.17584 0.0
C4277 C 0.94881 0.84142 0.17224 0.0
H4278 H 0.93534 0.87947 0.19735 0.0
H4279 H 1.00366 0.72081 0.15462 0.0
H4280 H 0.53784 0.30475 0.1272 0.0
H4281 H 0.54453 0.33054 0.10859 0.0
H4282 H 0.49584 0.34751 0.12208 0.0
H4283 H 0.48947 0.32214 0.14132 0.0
H4284 H 0.5047 0.34148 0.08081 0.0
H4285 H 0.52677 0.3742 0.14497 0.0
H4286 H 0.54388 0.37614 0.17558 0.0
H4287 H 0.59136 0.37799 0.14726 0.0
H4288 H 0.57443 0.37557 0.11636 0.0
H4289 H 0.52356 0.42663 0.04228 0.0
H4290 H 0.5145 0.40512 0.0647 0.0
H4291 H 0.5669 0.39379 0.0688 0.0
H4292 H 0.57611 0.4156 0.04673 0.0
H4293 H 0.55437 0.39792 0.10274 0.0
H4294 H 0.53418 0.36383 0.03936 0.0
H4295 H 0.51817 0.35627 0.00732 0.0
H4296 H 0.46878 0.35272 0.03212 0.0
H4297 H 0.48453 0.36073 0.06435 0.0
C4298 C 0.52875 0.31419 0.12631 0.0
C4299 C 0.51339 0.31202 0.13579 0.0
C4300 C 0.5325 0.32872 0.11569 0.0
C4301 C 0.52065 0.34076 0.11419 0.0
C4302 C 0.50508 0.33828 0.1233 0.0
C4303 C 0.50157 0.32406 0.13434 0.0
C4304 C 0.52478 0.35622 0.10332 0.0
C4305 C 0.51527 0.35409 0.08566 0.0
C4306 C 0.53896 0.3721 0.10968 0.0
C4307 C 0.54931 0.37456 0.12834 0.0
C4308 C 0.54084 0.37491 0.14525 0.0
C4309 C 0.5505 0.37608 0.16265 0.0
C4310 C 0.56869 0.37714 0.16336 0.0
C4311 C 0.57726 0.37714 0.14668 0.0
C4312 C 0.56764 0.37588 0.12922 0.0
C4313 C 0.53314 0.41964 0.04812 0.0
C4314 C 0.55041 0.42233 0.04255 0.0
C4315 C 0.52795 0.40737 0.06082 0.0
C4316 C 0.53997 0.39768 0.06803 0.0
C4317 C 0.55744 0.40107 0.06319 0.0
C4318 C 0.56262 0.4133 0.05048 0.0
C4319 C 0.53424 0.38335 0.08 0.0
C4320 C 0.54353 0.38559 0.09792 0.0
C4321 C 0.52 0.36733 0.07368 0.0
C4322 C 0.51057 0.36325 0.05429 0.0
C4323 C 0.51993 0.36178 0.03801 0.0
C4324 C 0.5109 0.35734 0.0198 0.0
C4325 C 0.49248 0.35411 0.01769 0.0
C4326 C 0.48306 0.35532 0.03378 0.0
C4327 C 0.49203 0.35985 0.05201 0.0
H4328 H 0.48551 0.35058 0.00358 0.0
H4329 H 0.57615 0.37801 0.17684 0.0
H4330 H 0.03524 0.33622 0.40234 0.0
H4331 H 0.00738 0.3345 0.38402 0.0
H4332 H 0.02939 0.31516 0.33202 0.0
H4333 H 0.05747 0.31685 0.3502 0.0
H4334 H 0.01063 0.34484 0.33018 0.0
H4335 H 1.00247 0.28247 0.34768 0.0
H4336 H 1.00407 0.26071 0.37055 0.0
H4337 H 0.96791 0.2865 0.40401 0.0
H4338 H 0.96626 0.30856 0.38139 0.0
H4339 H 0.93217 0.3158 0.27064 0.0
H4340 H 0.95851 0.31221 0.28887 0.0
H4341 H 0.93769 0.33252 0.34137 0.0
H4342 H 0.91117 0.33596 0.32317 0.0
H4343 H 0.95571 0.30147 0.34276 0.0
H4344 H 0.96527 0.36494 0.32657 0.0
H4345 H 0.96332 0.3867 0.30375 0.0
H4346 H 0.99673 0.35876 0.26802 0.0
H4347 H 0.99876 0.33675 0.29062 0.0
C4348 C 0.03421 0.3316 0.38701 0.0
C4349 C 0.04852 0.32657 0.37772 0.0
C4350 C 0.01828 0.3306 0.37661 0.0
C4351 C 0.01642 0.32456 0.35679 0.0
C4352 C 0.03069 0.3198 0.34737 0.0
C4353 C 0.04664 0.32069 0.35778 0.0
C4354 C 0.99943 0.32311 0.34598 0.0
C4355 C 0.99868 0.33516 0.3327 0.0
C4356 C 0.98386 0.31079 0.34967 0.0
C4357 C 0.98432 0.29719 0.36294 0.0
C4358 C 0.99491 0.28352 0.35996 0.0
C4359 C 0.99582 0.27114 0.37286 0.0
C4360 C 0.98612 0.27224 0.38875 0.0
C4361 C 0.97541 0.28567 0.3917 0.0
C4362 C 0.97445 0.29808 0.37882 0.0
C4363 C 0.93322 0.31939 0.28607 0.0
C4364 C 0.91993 0.32649 0.29556 0.0
C4365 C 0.94812 0.31721 0.29642 0.0
C4366 C 0.95 0.32232 0.31636 0.0
C4367 C 0.93635 0.32847 0.32596 0.0
C4368 C 0.92134 0.33053 0.31559 0.0
C4369 C 0.96698 0.32312 0.3269 0.0
C4370 C 0.9677 0.31106 0.34019 0.0
C4371 C 0.98255 0.33546 0.32328 0.0
C4372 C 0.98212 0.34922 0.31019 0.0
C4373 C 0.97221 0.36348 0.31384 0.0
C4374 C 0.97107 0.37583 0.30095 0.0
C4375 C 0.97988 0.3741 0.28443 0.0
C4376 C 0.98994 0.36009 0.28083 0.0
C4377 C 0.99113 0.34772 0.29369 0.0
H4378 H 0.97892 0.38362 0.27442 0.0
H4379 H 0.98688 0.26268 0.39876 0.0
H4380 H 0.97451 0.70952 0.6038 0.0
H4381 H 0.97692 0.67653 0.59205 0.0
H4382 H 0.00747 0.67665 0.6444 0.0
H4383 H 1.00494 0.70964 0.6563 0.0
H4384 H 0.02628 0.67709 0.61227 0.0
H4385 H 0.97267 0.64032 0.62994 0.0
H4386 H 0.94062 0.63161 0.6326 0.0
H4387 H 0.9306 0.6223 0.57165 0.0
H4388 H 0.96257 0.63116 0.56865 0.0
H4389 H 0.05339 0.59298 0.5764 0.0
H4390 H 0.04158 0.61814 0.59445 0.0
H4391 H 1.00397 0.61514 0.54661 0.0
H4392 H 0.0148 0.58862 0.52882 0.0
H4393 H 0.98867 0.61522 0.57806 0.0
H4394 H 0.04024 0.65302 0.55894 0.0
H4395 H 0.07186 0.66113 0.554 0.0
H4396 H 0.08554 0.66999 0.61436 0.0
H4397 H 0.05399 0.66168 0.61966 0.0
C4398 C 0.98082 0.70207 0.6132 0.0
C4399 C 0.9898 0.71201 0.63071 0.0
C4400 C 0.98215 0.68324 0.60653 0.0
C4401 C 0.99254 0.67443 0.61735 0.0
C4402 C 0.99936 0.68337 0.63598 0.0
C4403 C 0.99784 0.70214 0.64276 0.0
C4404 C 1.00002 0.65894 0.60739 0.0
C4405 C 0.01817 0.66333 0.60516 0.0
C4406 C 0.98919 0.64163 0.59734 0.0
C4407 C 0.96998 0.63652 0.59911 0.0
C4408 C 0.96361 0.63658 0.61713 0.0
C4409 C 0.94547 0.63157 0.61869 0.0
C4410 C 0.93358 0.62644 0.60231 0.0
C4411 C 0.93981 0.62628 0.58433 0.0
C4412 C 0.95794 0.63126 0.58269 0.0
C4413 C 0.04274 0.59775 0.56953 0.0
C4414 C 0.03529 0.58917 0.55095 0.0
C4415 C 0.03611 0.61223 0.57987 0.0
C4416 C 0.02226 0.6187 0.57162 0.0
C4417 C 0.01488 0.61039 0.55301 0.0
C4418 C 0.02127 0.59553 0.54276 0.0
C4419 C 0.01485 0.63336 0.58301 0.0
C4420 C 0.9968 0.6289 0.58535 0.0
C4421 C 0.02572 0.65086 0.59276 0.0
C4422 C 0.04472 0.65664 0.5897 0.0
C4423 C 0.04998 0.65666 0.57117 0.0
C4424 C 0.0679 0.66128 0.56829 0.0
C4425 C 0.0807 0.66604 0.58385 0.0
C4426 C 0.0756 0.6663 0.60232 0.0
C4427 C 0.0577 0.66168 0.60528 0.0
H4428 H 0.09456 0.66955 0.58159 0.0
H4429 H 0.91954 0.62256 0.60355 0.0
H4430 H 0.63786 0.7802 0.85777 0.0
H4431 H 0.66436 0.78127 0.84033 0.0
H4432 H 0.66478 0.8401 0.835 0.0
H4433 H 0.63827 0.83895 0.85224 0.0
H4434 H 0.67158 0.81676 0.80133 0.0
H4435 H 0.69389 0.83656 0.86734 0.0
H4436 H 0.69686 0.83533 0.90165 0.0
H4437 H 0.70786 0.77882 0.88859 0.0
H4438 H 0.70494 0.77972 0.85423 0.0
H4439 H 0.76038 0.81672 0.77274 0.0
H4440 H 0.73269 0.8242 0.78309 0.0
H4441 H 0.72537 0.77564 0.81228 0.0
H4442 H 0.75456 0.77109 0.80529 0.0
H4443 H 0.72415 0.80436 0.8354 0.0
H4444 H 0.69807 0.78373 0.76728 0.0
H4445 H 0.69709 0.78778 0.73363 0.0
H4446 H 0.6945 0.8471 0.75081 0.0
H4447 H 0.69558 0.8434 0.78451 0.0
C4448 C 0.64344 0.79308 0.85239 0.0
C4449 C 0.63615 0.80933 0.85579 0.0
C4450 C 0.65853 0.79379 0.84268 0.0
C4451 C 0.66638 0.81083 0.83662 0.0
C4452 C 0.65874 0.82688 0.83955 0.0
C4453 C 0.64368 0.82615 0.84923 0.0
C4454 C 0.68295 0.81191 0.82777 0.0
C4455 C 0.68316 0.81405 0.80867 0.0
C4456 C 0.69806 0.80906 0.83768 0.0
C4457 C 0.69906 0.80817 0.85826 0.0
C4458 C 0.69676 0.82381 0.8718 0.0
C4459 C 0.69851 0.8232 0.89125 0.0
C4460 C 0.70252 0.807 0.89729 0.0
C4461 C 0.70476 0.79136 0.8839 0.0
C4462 C 0.7031 0.79193 0.86445 0.0
C4463 C 0.75247 0.80746 0.78098 0.0
C4464 C 0.75901 0.79288 0.78778 0.0
C4465 C 0.73661 0.8116 0.78672 0.0
C4466 C 0.72682 0.8004 0.79837 0.0
C4467 C 0.73278 0.78465 0.80348 0.0
C4468 C 0.74926 0.78172 0.79921 0.0
C4469 C 0.7121 0.80644 0.80805 0.0
C4470 C 0.71253 0.80664 0.82774 0.0
C4471 C 0.69765 0.8113 0.79858 0.0
C4472 C 0.697 0.81331 0.77834 0.0
C4473 C 0.69736 0.79763 0.76384 0.0
C4474 C 0.69677 0.79987 0.74477 0.0
C4475 C 0.69574 0.81768 0.74008 0.0
C4476 C 0.69529 0.83331 0.75444 0.0
C4477 C 0.69586 0.83114 0.77351 0.0
H4478 H 0.69528 0.81938 0.72532 0.0
H4479 H 0.70391 0.80658 0.91235 0.0
H4480 H 0.48376 0.55456 0.73029 0.0
H4481 H 0.49607 0.55421 0.70021 0.0
H4482 H 0.45634 0.5818 0.6804 0.0
H4483 H 0.44314 0.58174 0.7113 0.0
H4484 H 0.46236 0.55706 0.65025 0.0
H4485 H 0.50473 0.60475 0.69391 0.0
H4486 H 0.52528 0.61831 0.72281 0.0
H4487 H 0.55442 0.57417 0.70824 0.0
H4488 H 0.53392 0.5602 0.67938 0.0
H4489 H 0.50669 0.5648 0.56447 0.0
H4490 H 0.49296 0.57035 0.5943 0.0
H4491 H 0.53544 0.55356 0.62389 0.0
H4492 H 0.54994 0.54986 0.5943 0.0
H4493 H 0.52729 0.57523 0.64929 0.0
H4494 H 0.48386 0.52559 0.60751 0.0
H4495 H 0.46422 0.5122 0.57787 0.0
H4496 H 0.43762 0.55905 0.58878 0.0
H4497 H 0.45724 0.57282 0.61836 0.0
C4498 C 0.47729 0.56078 0.71988 0.0
C4499 C 0.46204 0.56828 0.72423 0.0
C4500 C 0.48476 0.5607 0.70222 0.0
C4501 C 0.47786 0.56839 0.68732 0.0
C4502 C 0.46245 0.5758 0.69124 0.0
C4503 C 0.45478 0.57585 0.70924 0.0
C4504 C 0.48672 0.5681 0.66809 0.0
C4505 C 0.47657 0.56136 0.65025 0.0
C4506 C 0.50546 0.57307 0.66709 0.0
C4507 C 0.51769 0.58134 0.68455 0.0
C4508 C 0.51544 0.59785 0.69694 0.0
C4509 C 0.5271 0.60562 0.71331 0.0
C4510 C 0.54113 0.59709 0.71738 0.0
C4511 C 0.54354 0.58076 0.70508 0.0
C4512 C 0.53192 0.57292 0.68871 0.0
C4513 C 0.51324 0.56233 0.5773 0.0
C4514 C 0.52969 0.5568 0.57638 0.0
C4515 C 0.50506 0.56521 0.59472 0.0
C4516 C 0.51231 0.56175 0.61224 0.0
C4517 C 0.52893 0.55642 0.61124 0.0
C4518 C 0.53741 0.5542 0.59395 0.0
C4519 C 0.50299 0.56379 0.6313 0.0
C4520 C 0.51308 0.57085 0.64919 0.0
C4521 C 0.48424 0.55891 0.63235 0.0
C4522 C 0.47207 0.55028 0.61503 0.0
C4523 C 0.47381 0.533 0.60357 0.0
C4524 C 0.46271 0.52538 0.58677 0.0
C4525 C 0.44971 0.53479 0.58143 0.0
C4526 C 0.4477 0.55178 0.59292 0.0
C4527 C 0.45879 0.5595 0.60971 0.0
H4528 H 0.44116 0.5289 0.56839 0.0
H4529 H 0.55015 0.60314 0.73005 0.0
H4530 H 0.78895 0.14052 0.95627 0.0
H4531 H 0.7805 0.154 0.9286 0.0
H4532 H 0.77614 0.20604 0.96619 0.0
H4533 H 0.78551 0.19362 0.99322 0.0
H4534 H 0.7508 0.19506 0.93416 0.0
H4535 H 0.81338 0.20876 0.95439 0.0
H4536 H 0.83912 0.19655 0.96459 0.0
H4537 H 0.83465 0.15953 0.90991 0.0
H4538 H 0.80861 0.1713 0.89958 0.0
H4539 H 0.77047 0.27547 0.89416 0.0
H4540 H 0.77831 0.25474 0.91558 0.0
H4541 H 0.78007 0.21073 0.86701 0.0
H4542 H 0.77265 0.23168 0.84555 0.0
H4543 H 0.80465 0.21331 0.90104 0.0
H4544 H 0.74138 0.20959 0.88204 0.0
H4545 H 0.71624 0.22528 0.87886 0.0
H4546 H 0.72435 0.24961 0.93865 0.0
H4547 H 0.74954 0.23406 0.94215 0.0
C4548 C 0.78602 0.15474 0.95851 0.0
C4549 C 0.78798 0.16606 0.97681 0.0
C4550 C 0.78091 0.1622 0.94286 0.0
C4551 C 0.77755 0.1808 0.94563 0.0
C4552 C 0.77835 0.19149 0.96395 0.0
C4553 C 0.78389 0.18436 0.97938 0.0
C4554 C 0.77712 0.19113 0.92989 0.0
C4555 C 0.76237 0.19876 0.92656 0.0
C4556 C 0.79258 0.19651 0.92086 0.0
C4557 C 0.8091 0.19079 0.92626 0.0
C4558 C 0.81797 0.19807 0.94454 0.0
C4559 C 0.83253 0.19118 0.95038 0.0
C4560 C 0.8385 0.17724 0.93791 0.0
C4561 C 0.83 0.17031 0.91954 0.0
C4562 C 0.81534 0.17708 0.91369 0.0
C4563 C 0.7733 0.26169 0.88817 0.0
C4564 C 0.77084 0.25482 0.86848 0.0
C4565 C 0.77774 0.24995 0.90029 0.0
C4566 C 0.77931 0.23123 0.89267 0.0
C4567 C 0.77881 0.22519 0.87294 0.0
C4568 C 0.77457 0.23705 0.86079 0.0
C4569 C 0.77817 0.21698 0.90499 0.0
C4570 C 0.79277 0.20895 0.90793 0.0
C4571 C 0.76278 0.2119 0.91434 0.0
C4572 C 0.74734 0.22075 0.91231 0.0
C4573 C 0.73779 0.2183 0.89448 0.0
C4574 C 0.72353 0.22715 0.89263 0.0
C4575 C 0.71873 0.23847 0.90853 0.0
C4576 C 0.72808 0.24084 0.92635 0.0
C4577 C 0.7423 0.23196 0.92829 0.0
H4578 H 0.70774 0.24539 0.90704 0.0
H4579 H 0.84972 0.17183 0.94248 0.0
H4580 H 0.17731 0.53686 0.19193 0.0
H4581 H 0.1641 0.53167 0.15896 0.0
H4582 H 0.11457 0.53997 0.17966 0.0
H4583 H 0.12734 0.545 0.21229 0.0
H4584 H 0.11314 0.50497 0.15463 0.0
H4585 H 0.1376 0.57343 0.16457 0.0
H4586 H 0.16133 0.60275 0.17087 0.0
H4587 H 0.18367 0.58282 0.11964 0.0
H4588 H 0.16035 0.55303 0.11331 0.0
H4589 H 0.056 0.53718 0.09234 0.0
H4590 H 0.07707 0.53535 0.11843 0.0
H4591 H 0.10821 0.50925 0.07775 0.0
H4592 H 0.08671 0.51009 0.0518 0.0
H4593 H 0.12418 0.5486 0.1078 0.0
H4594 H 0.09376 0.48075 0.09778 0.0
H4595 H 0.06588 0.45623 0.09272 0.0
H4596 H 0.05095 0.48087 0.14678 0.0
H4597 H 0.07857 0.50582 0.15193 0.0
C4598 C 0.16361 0.53759 0.18938 0.0
C4599 C 0.15322 0.54108 0.20457 0.0
C4600 C 0.15622 0.53477 0.17066 0.0
C4601 C 0.13848 0.53535 0.16724 0.0
C4602 C 0.12831 0.5394 0.18231 0.0
C4603 C 0.13563 0.54228 0.20088 0.0
C4604 C 0.12972 0.53051 0.14807 0.0
C4605 C 0.11574 0.51429 0.1442 0.0
C4606 C 0.13331 0.54286 0.13476 0.0
C4607 C 0.14745 0.56072 0.13871 0.0
C4608 C 0.14776 0.57507 0.15483 0.0
C4609 C 0.1611 0.59184 0.15837 0.0
C4610 C 0.17407 0.59459 0.14573 0.0
C4611 C 0.17368 0.58061 0.12948 0.0
C4612 C 0.16043 0.56376 0.12594 0.0
C4613 C 0.06681 0.53015 0.08916 0.0
C4614 C 0.06986 0.52356 0.07039 0.0
C4615 C 0.07897 0.52952 0.10388 0.0
C4616 C 0.09412 0.52252 0.09962 0.0
C4617 C 0.09659 0.51488 0.08098 0.0
C4618 C 0.08429 0.51514 0.06636 0.0
C4619 C 0.10748 0.52343 0.11483 0.0
C4620 C 0.12221 0.53884 0.11788 0.0
C4621 C 0.1043 0.5108 0.12779 0.0
C4622 C 0.08822 0.49512 0.12523 0.0
C4623 C 0.08451 0.48095 0.10856 0.0
C4624 C 0.06874 0.467 0.10566 0.0
C4625 C 0.05665 0.46699 0.11943 0.0
C4626 C 0.06034 0.48088 0.13614 0.0
C4627 C 0.07606 0.49491 0.13907 0.0
H4628 H 0.04443 0.4562 0.11714 0.0
H4629 H 0.18436 0.60761 0.14846 0.0
H4630 H 0.78584 0.84489 0.48549 0.0
H4631 H 0.78455 0.82866 0.45226 0.0
H4632 H 0.82547 0.87529 0.44199 0.0
H4633 H 0.82542 0.8922 0.47468 0.0
H4634 H 0.80229 0.8678 0.41486 0.0
H4635 H 0.8277 0.82224 0.44776 0.0
H4636 H 0.82515 0.79878 0.46948 0.0
H4637 H 0.77701 0.76593 0.43737 0.0
H4638 H 0.7792 0.78928 0.41561 0.0
H4639 H 0.82575 0.83874 0.3267 0.0
H4640 H 0.82756 0.84585 0.36123 0.0
H4641 H 0.79096 0.79191 0.36084 0.0
H4642 H 0.79234 0.7831 0.32627 0.0
H4643 H 0.80652 0.80004 0.39295 0.0
H4644 H 0.77888 0.83995 0.36054 0.0
H4645 H 0.77596 0.86164 0.33787 0.0
H4646 H 0.8203 0.90363 0.36837 0.0
H4647 H 0.8236 0.8821 0.39106 0.0
C4648 C 0.7946 0.85154 0.47607 0.0
C4649 C 0.80575 0.86977 0.48255 0.0
C4650 C 0.79401 0.84215 0.45708 0.0
C4651 C 0.80518 0.85041 0.44444 0.0
C4652 C 0.81664 0.86848 0.45127 0.0
C4653 C 0.8167 0.87818 0.46998 0.0
C4654 C 0.80442 0.84129 0.42381 0.0
C4655 C 0.80357 0.85307 0.41021 0.0
C4656 C 0.80456 0.82159 0.41723 0.0
C4657 C 0.80357 0.80754 0.43018 0.0
C4658 C 0.81657 0.81003 0.44539 0.0
C4659 C 0.81517 0.79677 0.4577 0.0
C4660 C 0.80091 0.7809 0.45483 0.0
C4661 C 0.78804 0.77822 0.4396 0.0
C4662 C 0.78936 0.79145 0.42727 0.0
C4663 C 0.81923 0.82775 0.33411 0.0
C4664 C 0.80984 0.80991 0.32386 0.0
C4665 C 0.81959 0.83216 0.3539 0.0
C4666 C 0.8086 0.81999 0.36383 0.0
C4667 C 0.79951 0.80176 0.35371 0.0
C4668 C 0.80036 0.79664 0.33392 0.0
C4669 C 0.80581 0.82708 0.38425 0.0
C4670 C 0.80551 0.81485 0.39765 0.0
C4671 C 0.80384 0.84621 0.39069 0.0
C4672 C 0.80152 0.8594 0.37741 0.0
C4673 C 0.78799 0.85381 0.36238 0.0
C4674 C 0.78629 0.86606 0.34953 0.0
C4675 C 0.79795 0.88399 0.35167 0.0
C4676 C 0.81128 0.88975 0.36673 0.0
C4677 C 0.81305 0.87755 0.37961 0.0
H4678 H 0.79664 0.89343 0.34167 0.0
H4679 H 0.79985 0.77067 0.46439 0.0
H4680 H 0.438 0.57875 0.84758 0.0
H4681 H 0.45385 0.57372 0.87643 0.0
H4682 H 0.49393 0.55602 0.8428 0.0
H4683 H 0.47809 0.56104 0.81405 0.0
H4684 H 0.49261 0.53509 0.86732 0.0
H4685 H 0.50031 0.60121 0.87795 0.0
H4686 H 0.49543 0.63427 0.88176 0.0
H4687 H 0.46377 0.62424 0.92792 0.0
H4688 H 0.46826 0.59097 0.92421 0.0
H4689 H 0.54817 0.5384 0.95738 0.0
H4690 H 0.53621 0.54274 0.92585 0.0
H4691 H 0.48901 0.55374 0.95007 0.0
H4692 H 0.50045 0.54902 0.98074 0.0
H4693 H 0.49743 0.57953 0.92916 0.0
H4694 H 0.49091 0.50782 0.91045 0.0
H4695 H 0.5019 0.47782 0.9031 0.0
H4696 H 0.54169 0.50551 0.87153 0.0
H4697 H 0.53024 0.53527 0.8777 0.0
C4698 C 0.45019 0.57379 0.84618 0.0
C4699 C 0.45642 0.5704 0.82789 0.0
C4700 C 0.45952 0.571 0.86301 0.0
C4701 C 0.47565 0.56453 0.86264 0.0
C4702 C 0.48173 0.56094 0.84428 0.0
C4703 C 0.47251 0.56392 0.82751 0.0
C4704 C 0.48584 0.56127 0.88099 0.0
C4705 C 0.49362 0.54507 0.8807 0.0
C4706 C 0.48816 0.57404 0.89903 0.0
C4707 C 0.48434 0.59348 0.90056 0.0
C4708 C 0.49203 0.60593 0.88869 0.0
C4709 C 0.48942 0.62474 0.89089 0.0
C4710 C 0.47922 0.63132 0.90501 0.0
C4711 C 0.4716 0.61909 0.91693 0.0
C4712 C 0.47416 0.60024 0.91477 0.0
C4713 C 0.53513 0.54144 0.956 0.0
C4714 C 0.52554 0.54327 0.97234 0.0
C4715 C 0.52813 0.54396 0.93766 0.0
C4716 C 0.51131 0.54873 0.93478 0.0
C4717 C 0.50191 0.55028 0.95111 0.0
C4718 C 0.50865 0.54747 0.96905 0.0
C4719 C 0.50339 0.55293 0.91567 0.0
C4720 C 0.49613 0.56945 0.9158 0.0
C4721 C 0.5024 0.54103 0.89733 0.0
C4722 C 0.50995 0.52375 0.8948 0.0
C4723 C 0.50212 0.50752 0.90213 0.0
C4724 C 0.50837 0.49056 0.89809 0.0
C4725 C 0.52273 0.4899 0.88725 0.0
C4726 C 0.53068 0.50609 0.88008 0.0
C4727 C 0.52421 0.52293 0.88367 0.0
H4728 H 0.52757 0.47677 0.88423 0.0
H4729 H 0.47729 0.64593 0.90676 0.0
H4730 H 0.75628 0.18333 0.06903 0.0
H4731 H 0.75488 0.19862 0.10175 0.0
H4732 H 0.80553 0.18718 0.11772 0.0
H4733 H 0.80719 0.17193 0.08447 0.0
H4734 H 0.7749 0.18535 0.14573 0.0
H4735 H 0.8113 0.22443 0.10726 0.0
H4736 H 0.81781 0.23865 0.07874 0.0
H4737 H 0.77311 0.265 0.0846 0.0
H4738 H 0.76605 0.25046 0.11286 0.0
H4739 H 0.81669 0.26457 0.21665 0.0
H4740 H 0.80983 0.24121 0.18683 0.0
H4741 H 0.75987 0.25725 0.17789 0.0
H4742 H 0.76651 0.28034 0.20838 0.0
H4743 H 0.78643 0.25583 0.14649 0.0
H4744 H 0.7521 0.22081 0.18686 0.0
H4745 H 0.74398 0.20604 0.21465 0.0
H4746 H 0.78336 0.17232 0.20551 0.0
H4747 H 0.79212 0.18735 0.178 0.0
C4748 C 0.76692 0.18363 0.07963 0.0
C4749 C 0.78208 0.17708 0.07443 0.0
C4750 C 0.76601 0.1922 0.09823 0.0
C4751 C 0.78023 0.19419 0.11173 0.0
C4752 C 0.79452 0.18567 0.10717 0.0
C4753 C 0.79548 0.17706 0.08836 0.0
C4754 C 0.78123 0.20785 0.12941 0.0
C4755 C 0.7777 0.20078 0.14611 0.0
C4756 C 0.78403 0.22781 0.12929 0.0
C4757 C 0.78794 0.23602 0.11193 0.0
C4758 C 0.80265 0.23292 0.10224 0.0
C4759 C 0.80648 0.24111 0.08617 0.0
C4760 C 0.79583 0.25264 0.0798 0.0
C4761 C 0.7813 0.25598 0.08949 0.0
C4762 C 0.77736 0.24773 0.1055 0.0
C4763 C 0.80454 0.26355 0.20798 0.0
C4764 C 0.79233 0.27452 0.21414 0.0
C4765 C 0.80049 0.24998 0.1913 0.0
C4766 C 0.78428 0.24748 0.18065 0.0
C4767 C 0.77235 0.25904 0.18628 0.0
C4768 C 0.77624 0.27234 0.20331 0.0
C4769 C 0.78057 0.23341 0.16303 0.0
C4770 C 0.78355 0.24039 0.1462 0.0
C4771 C 0.77725 0.21343 0.1631 0.0
C4772 C 0.77291 0.2054 0.18046 0.0
C4773 C 0.7593 0.21057 0.19099 0.0
C4774 C 0.75449 0.20204 0.20663 0.0
C4775 C 0.76304 0.18814 0.21174 0.0
C4776 C 0.77666 0.183 0.20145 0.0
C4777 C 0.7816 0.19157 0.18588 0.0
H4778 H 0.75922 0.18146 0.22378 0.0
H4779 H 0.79887 0.25905 0.06741 0.0
H4780 H 0.17786 0.51326 0.30614 0.0
H4781 H 0.16281 0.51785 0.33541 0.0
H4782 H 0.16102 0.57566 0.32806 0.0
H4783 H 0.1759 0.57106 0.29911 0.0
H4784 H 0.16735 0.57279 0.3657 0.0
H4785 H 0.12683 0.54295 0.31011 0.0
H4786 H 0.11399 0.51874 0.28145 0.0
H4787 H 0.10737 0.47411 0.31497 0.0
H4788 H 0.12028 0.49808 0.34382 0.0
H4789 H 0.08866 0.59156 0.40493 0.0
H4790 H 0.11334 0.58762 0.38571 0.0
H4791 H 0.10773 0.52922 0.39521 0.0
H4792 H 0.08269 0.53269 0.41338 0.0
H4793 H 0.10727 0.53096 0.3588 0.0
H4794 H 0.14622 0.56465 0.41594 0.0
H4795 H 0.15841 0.59126 0.44293 0.0
H4796 H 0.16605 0.63137 0.40449 0.0
H4797 H 0.15401 0.60498 0.37731 0.0
C4798 C 0.17484 0.52714 0.31134 0.0
C4799 C 0.17795 0.5419 0.30073 0.0
C4800 C 0.16618 0.52968 0.32781 0.0
C4801 C 0.1608 0.54701 0.33359 0.0
C4802 C 0.16521 0.56225 0.32374 0.0
C4803 C 0.17365 0.55962 0.30726 0.0
C4804 C 0.1489 0.54875 0.34853 0.0
C4805 C 0.15422 0.56363 0.36434 0.0
C4806 C 0.13184 0.53679 0.34645 0.0
C4807 C 0.1248 0.52223 0.32902 0.0
C4808 C 0.12287 0.52793 0.3113 0.0
C4809 C 0.1155 0.51428 0.29505 0.0
C4810 C 0.10994 0.49489 0.29637 0.0
C4811 C 0.11173 0.48912 0.31395 0.0
C4812 C 0.11907 0.50273 0.33026 0.0
C4813 C 0.09267 0.57789 0.40272 0.0
C4814 C 0.0838 0.56241 0.41047 0.0
C4815 C 0.10693 0.57578 0.39215 0.0
C4816 C 0.11246 0.55825 0.38944 0.0
C4817 C 0.10372 0.54291 0.39738 0.0
C4818 C 0.08943 0.54491 0.40767 0.0
C4819 C 0.12575 0.55489 0.3763 0.0
C4820 C 0.12057 0.5398 0.36058 0.0
C4821 C 0.14277 0.56694 0.37828 0.0
C4822 C 0.14908 0.58291 0.39468 0.0
C4823 C 0.15033 0.57918 0.41331 0.0
C4824 C 0.1573 0.59421 0.42861 0.0
C4825 C 0.16296 0.613 0.42543 0.0
C4826 C 0.16166 0.61682 0.40694 0.0
C4827 C 0.15482 0.60184 0.39159 0.0
H4828 H 0.16839 0.6246 0.43729 0.0
H4829 H 0.10419 0.48435 0.28378 0.0
H4830 H 0.79232 0.88952 0.59271 0.0
H4831 H 0.7859 0.87853 0.62292 0.0
H4832 H 0.8075 0.82865 0.60455 0.0
H4833 H 0.81358 0.83907 0.57481 0.0
H4834 H 0.77822 0.81794 0.61946 0.0
H4835 H 0.83046 0.86949 0.63693 0.0
H4836 H 0.84807 0.9028 0.64175 0.0
H4837 H 0.81093 0.92222 0.67853 0.0
H4838 H 0.79298 0.88907 0.6737 0.0
H4839 H 0.79964 0.78279 0.70194 0.0
H4840 H 0.79879 0.79602 0.67281 0.0
H4841 H 0.78019 0.84426 0.70276 0.0
H4842 H 0.78209 0.83156 0.7323 0.0
H4843 H 0.80345 0.85719 0.68245 0.0
H4844 H 0.75294 0.80438 0.66771 0.0
H4845 H 0.73674 0.7706 0.6641 0.0
H4846 H 0.7712 0.75296 0.62294 0.0
H4847 H 0.7877 0.78661 0.62641 0.0
C4848 C 0.79567 0.87622 0.59515 0.0
C4849 C 0.80357 0.8653 0.58123 0.0
C4850 C 0.79205 0.86998 0.61244 0.0
C4851 C 0.79629 0.85276 0.61609 0.0
C4852 C 0.804 0.8419 0.60214 0.0
C4853 C 0.80757 0.84803 0.58505 0.0
C4854 C 0.79296 0.84567 0.63427 0.0
C4855 C 0.78376 0.82654 0.63325 0.0
C4856 C 0.79976 0.85692 0.65235 0.0
C4857 C 0.81023 0.8769 0.65467 0.0
C4858 C 0.82593 0.88092 0.64582 0.0
C4859 C 0.836 0.89976 0.64861 0.0
C4860 C 0.83058 0.91464 0.66037 0.0
C4861 C 0.81508 0.91071 0.66937 0.0
C4862 C 0.80494 0.89191 0.66659 0.0
C4863 C 0.79517 0.79611 0.70225 0.0
C4864 C 0.79081 0.8061 0.71934 0.0
C4865 C 0.79455 0.80362 0.68552 0.0
C4866 C 0.78899 0.82096 0.68534 0.0
C4867 C 0.78444 0.83083 0.70243 0.0
C4868 C 0.78549 0.82355 0.7193 0.0
C4869 C 0.78894 0.82936 0.66765 0.0
C4870 C 0.79755 0.84869 0.66875 0.0
C4871 C 0.78161 0.81825 0.64963 0.0
C4872 C 0.7716 0.79802 0.64739 0.0
C4873 C 0.75711 0.79329 0.65795 0.0
C4874 C 0.74788 0.77416 0.65593 0.0
C4875 C 0.75297 0.75964 0.64335 0.0
C4876 C 0.76727 0.76422 0.63269 0.0
C4877 C 0.77654 0.78332 0.63465 0.0
H4878 H 0.74581 0.74484 0.64182 0.0
H4879 H 0.83843 0.9292 0.66256 0.0
H4880 H 0.75481 0.42972 0.5073 0.0
H4881 H 0.73091 0.44688 0.50907 0.0
H4882 H 0.76646 0.49761 0.54133 0.0
H4883 H 0.79069 0.48056 0.53958 0.0
H4884 H 0.73408 0.4855 0.55668 0.0
H4885 H 0.75595 0.49874 0.49727 0.0
H4886 H 0.76534 0.48935 0.46527 0.0
H4887 H 0.71374 0.45382 0.44683 0.0
H4888 H 0.70409 0.46289 0.4788 0.0
H4889 H 0.68735 0.55727 0.55132 0.0
H4890 H 0.70952 0.53883 0.54195 0.0
H4891 H 0.66871 0.48741 0.52393 0.0
H4892 H 0.64646 0.50524 0.53444 0.0
H4893 H 0.70241 0.49838 0.49956 0.0
H4894 H 0.68118 0.48196 0.55848 0.0
H4895 H 0.67173 0.48857 0.59086 0.0
H4896 H 0.72186 0.52702 0.61015 0.0
H4897 H 0.73147 0.52085 0.57774 0.0
C4898 C 0.75754 0.44446 0.51497 0.0
C4899 C 0.77452 0.45388 0.52341 0.0
C4900 C 0.74395 0.45424 0.51573 0.0
C4901 C 0.74722 0.47344 0.525 0.0
C4902 C 0.76397 0.48276 0.53396 0.0
C4903 C 0.77766 0.47302 0.53308 0.0
C4904 C 0.73278 0.48344 0.52621 0.0
C4905 C 0.7273 0.48858 0.54425 0.0
C4906 C 0.72369 0.48659 0.50977 0.0
C4907 C 0.72934 0.48141 0.49044 0.0
C4908 C 0.74664 0.48886 0.48641 0.0
C4909 C 0.752 0.48361 0.46828 0.0
C4910 C 0.74016 0.47097 0.45404 0.0
C4911 C 0.7229 0.46361 0.45788 0.0
C4912 C 0.71746 0.46884 0.47598 0.0
C4913 C 0.68305 0.54206 0.54537 0.0
C4914 C 0.66519 0.5327 0.5439 0.0
C4915 C 0.69567 0.53168 0.53976 0.0
C4916 C 0.69052 0.51197 0.5323 0.0
C4917 C 0.6727 0.50274 0.52953 0.0
C4918 C 0.66007 0.513 0.53553 0.0
C4919 C 0.704 0.50069 0.53009 0.0
C4920 C 0.70924 0.49527 0.51192 0.0
C4921 C 0.7128 0.49696 0.54637 0.0
C4922 C 0.70689 0.50124 0.56566 0.0
C4923 C 0.69005 0.49209 0.56955 0.0
C4924 C 0.68471 0.49567 0.58792 0.0
C4925 C 0.69615 0.50829 0.60253 0.0
C4926 C 0.71298 0.51732 0.5988 0.0
C4927 C 0.71838 0.5138 0.58044 0.0
H4928 H 0.69202 0.511 0.61677 0.0
H4929 H 0.74434 0.4669 0.44002 0.0
H4930 H 0.23743 0.17235 0.52834 0.0
H4931 H 0.20892 0.15032 0.52863 0.0
H4932 H 0.21146 0.12474 0.47003 0.0
H4933 H 0.24014 0.14698 0.46982 0.0
H4934 H 0.17864 0.13154 0.47557 0.0
H4935 H 0.2179 0.10053 0.50658 0.0
H4936 H 0.24178 0.09925 0.5302 0.0
H4937 H 0.21119 0.11617 0.57576 0.0
H4938 H 0.18722 0.11784 0.5524 0.0
H4939 H 0.10599 0.0491 0.48131 0.0
H4940 H 0.13585 0.06719 0.47762 0.0
H4941 H 0.13374 0.10808 0.5284 0.0
H4942 H 0.10398 0.09107 0.53158 0.0
H4943 H 0.1668 0.0912 0.52511 0.0
H4944 H 0.12933 0.12511 0.49568 0.0
H4945 H 0.1057 0.12912 0.47328 0.0
H4946 H 0.13301 0.10904 0.42594 0.0
H4947 H 0.15663 0.10445 0.44812 0.0
C4948 C 0.23203 0.1618 0.51562 0.0
C4949 C 0.24114 0.16117 0.49916 0.0
C4950 C 0.21568 0.14919 0.51577 0.0
C4951 C 0.20792 0.1356 0.4994 0.0
C4952 C 0.21707 0.13497 0.48289 0.0
C4953 C 0.23355 0.14756 0.4828 0.0
C4954 C 0.19018 0.12241 0.49956 0.0
C4955 C 0.17621 0.12241 0.48616 0.0
C4956 C 0.18663 0.1108 0.51366 0.0
C4957 C 0.20082 0.10941 0.52775 0.0
C4958 C 0.2163 0.10406 0.52164 0.0
C4959 C 0.22985 0.10327 0.53498 0.0
C4960 C 0.22802 0.10765 0.55447 0.0
C4961 C 0.21259 0.11278 0.56066 0.0
C4962 C 0.19901 0.11363 0.54738 0.0
C4963 C 0.11185 0.06197 0.49165 0.0
C4964 C 0.10239 0.06838 0.50683 0.0
C4965 C 0.12896 0.07232 0.48953 0.0
C4966 C 0.13717 0.08902 0.50281 0.0
C4967 C 0.12784 0.09523 0.51803 0.0
C4968 C 0.11068 0.08532 0.51982 0.0
C4969 C 0.15538 0.10025 0.50103 0.0
C4970 C 0.16936 0.10002 0.51427 0.0
C4971 C 0.1589 0.11178 0.48691 0.0
C4972 C 0.14454 0.11403 0.47354 0.0
C4973 C 0.13013 0.12118 0.4805 0.0
C4974 C 0.11678 0.12365 0.46784 0.0
C4975 C 0.1178 0.11923 0.44819 0.0
C4976 C 0.13219 0.11236 0.44116 0.0
C4977 C 0.14555 0.10979 0.45377 0.0
H4978 H 0.10747 0.12121 0.43841 0.0
H4979 H 0.23853 0.10704 0.56478 0.0
H4980 H 0.22104 0.97778 0.76265 0.0
H4981 H 0.23688 0.95174 0.76293 0.0
H4982 H 0.18894 0.91383 0.77216 0.0
H4983 H 0.17319 0.94022 0.77241 0.0
H4984 H 0.2114 0.9018 0.78992 0.0
H4985 H 0.21474 0.91182 0.72634 0.0
H4986 H 0.2208 0.93007 0.70034 0.0
H4987 H 0.27552 0.948 0.72177 0.0
H4988 H 0.26972 0.92995 0.74801 0.0
H4989 H 0.25037 0.81915 0.78227 0.0
H4990 H 0.23349 0.84267 0.77735 0.0
H4991 H 0.27909 0.87786 0.75967 0.0
H4992 H 0.29494 0.85188 0.76082 0.0
H4993 H 0.25728 0.89167 0.74628 0.0
H4994 H 0.25069 0.88088 0.81244 0.0
H4995 H 0.242 0.85943 0.83542 0.0
H4996 H 0.19008 0.84011 0.80579 0.0
H4997 H 0.19851 0.86137 0.78264 0.0
C4998 C 0.21364 0.96391 0.76459 0.0
C4999 C 0.19537 0.96177 0.7673 0.0
C5000 C 0.2229 0.94856 0.7646 0.0
C5001 C 0.21461 0.92972 0.76715 0.0
C5002 C 0.19633 0.92764 0.77004 0.0
C5003 C 0.18705 0.94305 0.77006 0.0
C5004 C 0.22481 0.91273 0.76727 0.0
C5005 C 0.22132 0.89977 0.78015 0.0
C5006 C 0.23816 0.90898 0.75492 0.0
C5007 C 0.24176 0.91975 0.73922 0.0
C5008 C 0.22804 0.91975 0.72555 0.0
C5009 C 0.23143 0.93004 0.71078 0.0
C5010 C 0.24852 0.94025 0.70945 0.0
C5011 C 0.26228 0.94011 0.72285 0.0
C5012 C 0.25896 0.92985 0.73766 0.0
C5013 C 0.25712 0.83175 0.77718 0.0
C5014 C 0.27498 0.83315 0.77291 0.0
C5015 C 0.24725 0.84608 0.77495 0.0
C5016 C 0.25469 0.864 0.76971 0.0
C5017 C 0.27236 0.8651 0.76449 0.0
C5018 C 0.28193 0.85001 0.76556 0.0
C5019 C 0.24422 0.88086 0.76929 0.0
C5020 C 0.24758 0.89382 0.75628 0.0
C5021 C 0.23051 0.88445 0.78135 0.0
C5022 C 0.22525 0.87259 0.79583 0.0
C5023 C 0.23741 0.87213 0.81095 0.0
C5024 C 0.23254 0.85996 0.82394 0.0
C5025 C 0.21551 0.84839 0.82204 0.0
C5026 C 0.20325 0.84907 0.80725 0.0
C5027 C 0.20805 0.8612 0.79422 0.0
H5028 H 0.21181 0.8389 0.83205 0.0
H5029 H 0.25112 0.94822 0.698 0.0
H5030 H 0.35674 0.97431 0.01263 0.0
H5031 H 0.3854 0.99703 0.01788 0.0
H5032 H 0.41158 0.94982 0.01883 0.0
H5033 H 0.38318 0.92708 0.01359 0.0
H5034 H 0.42643 0.98268 0.04635 0.0
H5035 H 0.40495 0.96272 0.97865 0.0
H5036 H 0.38373 0.96012 0.95088 0.0
H5037 H 0.3908 0.02174 0.9606 0.0
H5038 H 0.41186 0.02463 0.98869 0.0
H5039 H 0.50551 0.9845 0.01239 0.0
H5040 H 0.47312 0.97712 0.00752 0.0
H5041 H 0.47345 0.03789 0.01702 0.0
H5042 H 0.5054 0.04526 0.02254 0.0
H5043 H 0.44412 0.00876 0.98851 0.0
H5044 H 0.47236 0.02668 0.05336 0.0
H5045 H 0.497 0.02505 0.07578 0.0
H5046 H 0.47843 0.96377 0.06903 0.0
H5047 H 0.45407 0.96496 0.04589 0.0
C5048 C 0.36862 0.96884 0.01421 0.0
C5049 C 0.36787 0.94895 0.01241 0.0
C5050 C 0.38487 0.98181 0.01729 0.0
C5051 C 0.40036 0.97495 0.01875 0.0
C5052 C 0.3996 0.95525 0.01788 0.0
C5053 C 0.38344 0.9423 0.01463 0.0
C5054 C 0.41758 0.98761 0.01884 0.0
C5055 C 0.43025 0.98879 0.03394 0.0
C5056 C 0.42238 0.99559 1.00262 0.0
C5057 C 0.40965 0.99386 0.98593 0.0
C5058 C 0.40179 0.97568 0.97499 0.0
C5059 C 0.38984 0.97416 0.95918 0.0
C5060 C 0.38584 0.99075 0.95404 0.0
C5061 C 0.39384 0.0089 0.96467 0.0
C5062 C 0.40575 0.01049 0.98055 0.0
C5063 C 0.49858 0.99615 0.01286 0.0
C5064 C 0.50769 0.01534 0.01764 0.0
C5065 C 0.48029 0.992 0.00985 0.0
C5066 C 0.47125 0.00708 0.01197 0.0
C5067 C 0.48041 0.02622 0.01514 0.0
C5068 C 0.49861 0.03035 0.01835 0.0
C5069 C 0.45281 1.00296 0.01558 0.0
C5070 C 0.44008 1.00357 1.00133 0.0
C5071 C 0.44796 0.99643 0.03248 0.0
C5072 C 0.46146 0.99591 0.04782 0.0
C5073 C 0.47355 0.01286 0.05663 0.0
C5074 C 0.48752 0.012 0.06939 0.0
C5075 C 0.48932 0.9943 0.0738 0.0
C5076 C 0.47704 0.97746 0.06557 0.0
C5077 C 0.46316 0.97822 0.0526 0.0
H5078 H 0.5002 0.99366 0.08364 0.0
H5079 H 0.37661 0.98955 0.94177 0.0
H5080 H 0.91598 0.59904 0.78035 0.0
H5081 H 0.89865 0.62261 0.77461 0.0
H5082 H 0.85921 0.59841 0.80934 0.0
H5083 H 0.87584 0.57391 0.81366 0.0
H5084 H 0.84446 0.60253 0.77813 0.0
H5085 H 0.88866 0.64367 0.82504 0.0
H5086 H 0.91958 0.65637 0.83853 0.0
H5087 H 0.93172 0.67994 0.78834 0.0
H5088 H 0.90091 0.66718 0.77444 0.0
H5089 H 0.79912 0.67616 0.76306 0.0
H5090 H 0.8156 0.65879 0.78186 0.0
H5091 H 0.85797 0.66644 0.74534 0.0
H5092 H 0.84158 0.68358 0.72658 0.0
H5093 H 0.86948 0.67251 0.78391 0.0
H5094 H 0.82756 0.62741 0.73564 0.0
H5095 H 0.79852 0.61003 0.71932 0.0
H5096 H 0.78319 0.59106 0.77095 0.0
H5097 H 0.81203 0.60866 0.78768 0.0
C5098 C 0.90367 0.59902 0.78679 0.0
C5099 C 0.89698 0.585 0.7973 0.0
C5100 C 0.89391 0.61247 0.78372 0.0
C5101 C 0.87791 0.61242 0.79197 0.0
C5102 C 0.87158 0.59864 0.80299 0.0
C5103 C 0.881 0.58478 0.80543 0.0
C5104 C 0.86708 0.6258 0.78787 0.0
C5105 C 0.84971 0.61795 0.77996 0.0
C5106 C 0.87424 0.64572 0.78991 0.0
C5107 C 0.89246 0.65455 0.79875 0.0
C5108 C 0.89791 0.65165 0.81692 0.0
C5109 C 0.91542 0.6588 0.82461 0.0
C5110 C 0.9276 0.66897 0.81431 0.0
C5111 C 0.92226 0.67211 0.79633 0.0
C5112 C 0.90475 0.66498 0.78856 0.0
C5113 C 0.81209 0.67434 0.75935 0.0
C5114 C 0.81918 0.68087 0.7434 0.0
C5115 C 0.82138 0.66448 0.76999 0.0
C5116 C 0.83782 0.66139 0.76478 0.0
C5117 C 0.84527 0.66882 0.74948 0.0
C5118 C 0.83594 0.67844 0.73876 0.0
C5119 C 0.8469 0.6492 0.77415 0.0
C5120 C 0.864 0.65724 0.78291 0.0
C5121 C 0.83949 0.62939 0.77288 0.0
C5122 C 0.82179 0.61978 0.76304 0.0
C5123 C 0.81787 0.61989 0.74363 0.0
C5124 C 0.80147 0.6099 0.73427 0.0
C5125 C 0.78897 0.59956 0.74412 0.0
C5126 C 0.79284 0.59918 0.76336 0.0
C5127 C 0.80918 0.6092 0.77279 0.0
H5128 H 0.77633 0.59175 0.73682 0.0
H5129 H 0.94117 0.67442 0.82025 0.0
H5130 H 0.82445 0.63589 0.00326 0.0
H5131 H 0.85016 0.62157 0.00516 0.0
H5132 H 0.8841 0.67823 0.02082 0.0
H5133 H 0.85831 0.69271 0.01777 0.0
H5134 H 0.9008 0.65547 0.99922 0.0
H5135 H 0.87049 0.65014 0.05532 0.0
H5136 H 0.84406 0.64226 0.0725 0.0
H5137 H 0.83533 0.58296 0.04494 0.0
H5138 H 0.86163 0.59054 0.02746 0.0
H5139 H 0.96942 0.61469 0.03982 0.0
H5140 H 0.94796 0.63395 0.03278 0.0
H5141 H 0.90801 0.5817 0.0145 0.0
H5142 H 0.92918 0.56268 0.02202 0.0
H5143 H 0.89618 0.60539 0.03957 0.0
H5144 H 0.92738 0.6116 0.98324 0.0
H5145 H 0.95416 0.62038 0.96686 0.0
H5146 H 0.96227 0.67898 0.99632 0.0
H5147 H 0.93565 0.67048 0.01306 0.0
C5148 C 0.83737 0.64532 0.00713 0.0
C5149 C 0.8393 0.66542 0.01079 0.0
C5150 C 0.85211 0.63712 0.00822 0.0
C5151 C 0.8691 0.64877 0.01369 0.0
C5152 C 0.87115 0.6689 0.01672 0.0
C5153 C 0.85639 0.67716 0.01515 0.0
C5154 C 0.88437 0.63978 0.01722 0.0
C5155 C 0.89988 0.64468 0.00822 0.0
C5156 C 0.8833 0.6257 0.02896 0.0
C5157 C 0.86797 0.62092 0.04007 0.0
C5158 C 0.86293 0.63542 0.05296 0.0
C5159 C 0.84797 0.63101 0.06271 0.0
C5160 C 0.83802 0.61213 0.0598 0.0
C5161 C 0.84306 0.59758 0.0472 0.0
C5162 C 0.85802 0.60191 0.0374 0.0
C5163 C 0.95616 0.6074 0.03387 0.0
C5164 C 0.95088 0.58724 0.03155 0.0
C5165 C 0.9439 0.61838 0.02986 0.0
C5166 C 0.92629 0.60929 0.02317 0.0
C5167 C 0.92143 0.58908 0.01981 0.0
C5168 C 0.93355 0.57821 0.024 0.0
C5169 C 0.9124 0.62051 0.02103 0.0
C5170 C 0.89716 0.61616 0.03053 0.0
C5171 C 0.91389 0.63517 0.00993 0.0
C5172 C 0.9296 0.64037 0.99949 0.0
C5173 C 0.93492 0.62634 0.98628 0.0
C5174 C 0.95007 0.63126 0.97693 0.0
C5175 C 0.95993 0.65022 0.98057 0.0
C5176 C 0.95462 0.6643 0.99352 0.0
C5177 C 0.93949 0.65944 0.00292 0.0
H5178 H 0.97167 0.654 0.97334 0.0
H5179 H 0.8264 0.60875 0.06732 0.0
H5180 H 0.20559 0.06366 0.75378 0.0
H5181 H 0.22355 0.09531 0.75156 0.0
H5182 H 0.20576 0.12012 0.80423 0.0
H5183 H 0.18686 0.08892 0.80546 0.0
H5184 H 0.20766 0.14585 0.78705 0.0
H5185 H 0.25353 0.11006 0.79241 0.0
H5186 H 0.26835 0.08326 0.78271 0.0
H5187 H 0.27274 0.09809 0.72718 0.0
H5188 H 0.25778 0.12484 0.73652 0.0
H5189 H 0.26712 0.23789 0.80079 0.0
H5190 H 0.25139 0.20543 0.80237 0.0
H5191 H 0.27088 0.18373 0.74957 0.0
H5192 H 0.28801 0.21639 0.749 0.0
H5193 H 0.26774 0.15626 0.76546 0.0
H5194 H 0.22232 0.19285 0.76088 0.0
H5195 H 0.20647 0.21878 0.77056 0.0
H5196 H 0.20058 0.20203 0.82511 0.0
H5197 H 0.21657 0.17617 0.81584 0.0
C5198 C 0.20576 0.07575 0.76512 0.0
C5199 C 0.19477 0.07319 0.78003 0.0
C5200 C 0.21627 0.0942 0.76392 0.0
C5201 C 0.21683 0.11096 0.77793 0.0
C5202 C 0.20601 0.1081 0.79297 0.0
C5203 C 0.19518 0.08989 0.79384 0.0
C5204 C 0.22789 0.13137 0.77693 0.0
C5205 C 0.22093 0.14789 0.7826 0.0
C5206 C 0.24518 0.13506 0.77057 0.0
C5207 C 0.25442 0.11927 0.7651 0.0
C5208 C 0.25762 0.10754 0.77812 0.0
C5209 C 0.26603 0.09237 0.77269 0.0
C5210 C 0.27144 0.08894 0.75432 0.0
C5211 C 0.26852 0.10074 0.74139 0.0
C5212 C 0.2601 0.11591 0.74674 0.0
C5213 C 0.2683 0.22622 0.78954 0.0
C5214 C 0.27918 0.23021 0.77483 0.0
C5215 C 0.2588 0.20733 0.79022 0.0
C5216 C 0.25884 0.19132 0.77569 0.0
C5217 C 0.27008 0.19527 0.76111 0.0
C5218 C 0.28009 0.2142 0.76076 0.0
C5219 C 0.2476 0.17078 0.77586 0.0
C5220 C 0.2545 0.15424 0.76999 0.0
C5221 C 0.23023 0.16707 0.78213 0.0
C5222 C 0.2208 0.18274 0.78773 0.0
C5223 C 0.21774 0.1948 0.77498 0.0
C5224 C 0.20872 0.20947 0.78039 0.0
C5225 C 0.20257 0.21209 0.79846 0.0
C5226 C 0.20539 0.20002 0.81114 0.0
C5227 C 0.21442 0.18536 0.80582 0.0
H5228 H 0.19558 0.22345 0.80261 0.0
H5229 H 0.27792 0.07716 0.75012 0.0
H5230 H 0.41416 0.96758 0.31197 0.0
H5231 H 0.39141 0.93805 0.30196 0.0
H5232 H 0.35997 0.96871 0.27211 0.0
H5233 H 0.38241 0.99826 0.28215 0.0
H5234 H 0.3414 0.9472 0.29592 0.0
H5235 H 0.37871 0.93764 0.24493 0.0
H5236 H 0.40712 0.937 0.2313 0.0
H5237 H 0.41626 0.89485 0.26431 0.0
H5238 H 0.38793 0.89528 0.27816 0.0
H5239 H 0.29081 0.84727 0.25914 0.0
H5240 H 0.30264 0.88221 0.26519 0.0
H5241 H 0.34896 0.87406 0.29627 0.0
H5242 H 0.33829 0.83944 0.28785 0.0
H5243 H 0.35497 0.88641 0.26287 0.0
H5244 H 0.32704 0.91252 0.32418 0.0
H5245 H 0.30061 0.91619 0.34095 0.0
H5246 H 0.2744 0.92449 0.28953 0.0
H5247 H 0.30111 0.92208 0.27283 0.0
C5248 C 0.40248 0.96794 0.30316 0.0
C5249 C 0.39996 0.98508 0.2979 0.0
C5250 C 0.38958 0.95117 0.29742 0.0
C5251 C 0.37429 0.95143 0.28617 0.0
C5252 C 0.3718 0.96844 0.28076 0.0
C5253 C 0.38459 0.98521 0.28657 0.0
C5254 C 0.36051 0.93401 0.28094 0.0
C5255 C 0.34417 0.93392 0.28836 0.0
C5256 C 0.36426 0.91693 0.271 0.0
C5257 C 0.38122 0.91651 0.26256 0.0
C5258 C 0.38681 0.92828 0.24931 0.0
C5259 C 0.40289 0.92793 0.24153 0.0
C5260 C 0.41349 0.9159 0.24694 0.0
C5261 C 0.40802 0.90414 0.2601 0.0
C5262 C 0.39193 0.90437 0.26786 0.0
C5263 C 0.30322 0.85318 0.26772 0.0
C5264 C 0.31349 0.84107 0.27367 0.0
C5265 C 0.3098 0.87302 0.27142 0.0
C5266 C 0.32655 0.8805 0.28123 0.0
C5267 C 0.33589 0.86841 0.28884 0.0
C5268 C 0.32974 0.84871 0.28431 0.0
C5269 C 0.33653 0.89936 0.27928 0.0
C5270 C 0.35201 0.89976 0.27004 0.0
C5271 C 0.3321 0.91659 0.2877 0.0
C5272 C 0.31584 0.91686 0.29727 0.0
C5273 C 0.31558 0.91505 0.31648 0.0
C5274 C 0.30063 0.91704 0.32598 0.0
C5275 C 0.28572 0.92018 0.31622 0.0
C5276 C 0.28588 0.92183 0.29703 0.0
C5277 C 0.30097 0.92037 0.2876 0.0
H5278 H 0.2741 0.92149 0.32358 0.0
H5279 H 0.42595 0.91568 0.24093 0.0
H5280 H 0.59756 0.35559 0.574 0.0
H5281 H 0.59279 0.38261 0.55883 0.0
H5282 H 0.56292 0.40096 0.60476 0.0
H5283 H 0.56813 0.37451 0.62021 0.0
H5284 H 0.54578 0.39952 0.56829 0.0
H5285 H 0.60368 0.42525 0.60211 0.0
H5286 H 0.63524 0.42667 0.61017 0.0
H5287 H 0.64549 0.42936 0.55216 0.0
H5288 H 0.61391 0.42756 0.54366 0.0
H5289 H 0.5427 0.49672 0.56522 0.0
H5290 H 0.54744 0.46626 0.57261 0.0
H5291 H 0.57435 0.45715 0.52189 0.0
H5292 H 0.56864 0.48753 0.51382 0.0
H5293 H 0.59362 0.45224 0.55663 0.0
H5294 H 0.53935 0.42512 0.52086 0.0
H5295 H 0.50836 0.42072 0.50847 0.0
H5296 H 0.492 0.41872 0.56466 0.0
H5297 H 0.52303 0.42265 0.57733 0.0
C5298 C 0.59017 0.36552 0.58101 0.0
C5299 C 0.58347 0.36286 0.59857 0.0
C5300 C 0.58742 0.38103 0.57228 0.0
C5301 C 0.57751 0.39411 0.58058 0.0
C5302 C 0.57067 0.39129 0.59797 0.0
C5303 C 0.57377 0.37613 0.60691 0.0
C5304 C 0.5739 0.41047 0.57117 0.0
C5305 C 0.55631 0.4111 0.56598 0.0
C5306 C 0.5875 0.42535 0.56715 0.0
C5307 C 0.60638 0.42597 0.57219 0.0
C5308 C 0.61261 0.42586 0.59101 0.0
C5309 C 0.63052 0.42679 0.59567 0.0
C5310 C 0.64235 0.42803 0.58168 0.0
C5311 C 0.6363 0.42834 0.56298 0.0
C5312 C 0.6184 0.42734 0.55823 0.0
C5313 C 0.54884 0.48781 0.55505 0.0
C5314 C 0.55444 0.49428 0.53839 0.0
C5315 C 0.55183 0.47044 0.5595 0.0
C5316 C 0.56127 0.45913 0.5479 0.0
C5317 C 0.56694 0.46542 0.53112 0.0
C5318 C 0.5634 0.48268 0.52631 0.0
C5319 C 0.56552 0.44133 0.55406 0.0
C5320 C 0.58315 0.44053 0.55879 0.0
C5321 C 0.55205 0.42598 0.55721 0.0
C5322 C 0.53348 0.42439 0.55006 0.0
C5323 C 0.52916 0.42394 0.53062 0.0
C5324 C 0.51158 0.42144 0.52353 0.0
C5325 C 0.49819 0.4196 0.53579 0.0
C5326 C 0.50239 0.42017 0.55518 0.0
C5327 C 0.51996 0.42241 0.56231 0.0
H5328 H 0.48457 0.41773 0.53026 0.0
H5329 H 0.65622 0.42882 0.58533 0.0
H5330 H 0.45358 0.74402 0.40495 0.0
H5331 H 0.42789 0.74524 0.38382 0.0
H5332 H 0.45532 0.79992 0.37263 0.0
H5333 H 0.48117 0.79843 0.39341 0.0
H5334 H 0.42116 0.80096 0.3812 0.0
H5335 H 0.44834 0.75877 0.33876 0.0
H5336 H 0.46057 0.7301 0.32865 0.0
H5337 H 0.41055 0.6933 0.33306 0.0
H5338 H 0.39812 0.72177 0.34355 0.0
H5339 H 0.36145 0.81088 0.30567 0.0
H5340 H 0.38743 0.80747 0.32483 0.0
H5341 H 0.3598 0.75123 0.33194 0.0
H5342 H 0.33351 0.75498 0.3132 0.0
H5343 H 0.39362 0.75031 0.32573 0.0
H5344 H 0.36591 0.78979 0.36803 0.0
H5345 H 0.35218 0.81692 0.37978 0.0
H5346 H 0.40109 0.85693 0.37826 0.0
H5347 H 0.41502 0.83003 0.36606 0.0
C5348 C 0.45432 0.75605 0.39757 0.0
C5349 C 0.46973 0.77085 0.40051 0.0
C5350 C 0.43952 0.75681 0.38551 0.0
C5351 C 0.43943 0.77264 0.37632 0.0
C5352 C 0.45486 0.78746 0.37931 0.0
C5353 C 0.46979 0.7865 0.39107 0.0
C5354 C 0.4232 0.77404 0.36416 0.0
C5355 C 0.41538 0.79 0.36888 0.0
C5356 C 0.41491 0.75949 0.34843 0.0
C5357 C 0.42237 0.74239 0.34216 0.0
C5358 C 0.44001 0.74457 0.33776 0.0
C5359 C 0.44696 0.72835 0.33193 0.0
C5360 C 0.43636 0.70989 0.33027 0.0
C5361 C 0.41876 0.70761 0.33439 0.0
C5362 C 0.41175 0.72378 0.34029 0.0
C5363 C 0.36081 0.79785 0.31148 0.0
C5364 C 0.34517 0.78339 0.30823 0.0
C5365 C 0.37577 0.79588 0.32247 0.0
C5366 C 0.37577 0.77918 0.33028 0.0
C5367 C 0.36033 0.76436 0.32635 0.0
C5368 C 0.34521 0.76652 0.31565 0.0
C5369 C 0.39175 0.77737 0.34261 0.0
C5370 C 0.39946 0.76132 0.33798 0.0
C5371 C 0.39975 0.79166 0.35866 0.0
C5372 C 0.39144 0.80791 0.36586 0.0
C5373 C 0.37369 0.80438 0.36998 0.0
C5374 C 0.36587 0.81972 0.37675 0.0
C5375 C 0.37573 0.83864 0.37969 0.0
C5376 C 0.39345 0.84226 0.37591 0.0
C5377 C 0.40131 0.82698 0.36904 0.0
H5378 H 0.36967 0.8505 0.38496 0.0
H5379 H 0.44177 0.69735 0.32574 0.0
H5380 H 0.05632 0.75562 0.06788 0.0
H5381 H 0.05088 0.72056 0.0565 0.0
H5382 H 0.09156 0.7169 0.09843 0.0
H5383 H 0.09688 0.75186 0.10977 0.0
H5384 H 0.09595 0.69832 0.06352 0.0
H5385 H 0.04603 0.70049 0.10148 0.0
H5386 H 0.01847 0.71032 0.11004 0.0
H5387 H 0.99367 0.68416 0.05393 0.0
H5388 H 0.02118 0.67448 0.04493 0.0
H5389 H 0.07629 0.59805 0.072 0.0
H5390 H 0.07999 0.63319 0.07711 0.0
H5391 H 0.0513 0.62823 0.02253 0.0
H5392 H 0.0485 0.593 0.01687 0.0
H5393 H 0.03916 0.65094 0.05949 0.0
H5394 H 0.0849 0.65076 0.01933 0.0
H5395 H 0.11168 0.64462 0.00487 0.0
H5396 H 0.14257 0.66812 0.05852 0.0
H5397 H 0.11589 0.67458 0.07328 0.0
C5398 C 0.06377 0.7472 0.07493 0.0
C5399 C 0.07676 0.7564 0.08999 0.0
C5400 C 0.06069 0.72714 0.0684 0.0
C5401 C 0.07069 0.71585 0.07665 0.0
C5402 C 0.08356 0.72512 0.09183 0.0
C5403 C 0.08652 0.74511 0.09844 0.0
C5404 C 0.0686 0.69467 0.06893 0.0
C5405 C 0.08355 0.68799 0.06296 0.0
C5406 C 0.05223 0.68111 0.06699 0.0
C5407 C 0.03573 0.68696 0.07247 0.0
C5408 C 0.03476 0.697 0.09091 0.0
C5409 C 0.01913 0.70252 0.09585 0.0
C5410 C 1.00435 0.69792 0.08252 0.0
C5411 C 0.00514 0.68776 0.06423 0.0
C5412 C 0.02074 0.68225 0.05921 0.0
C5413 C 0.07138 0.60451 0.06076 0.0
C5414 C 0.06266 0.59277 0.04377 0.0
C5415 C 0.07333 0.6246 0.06378 0.0
C5416 C 0.06591 0.63346 0.05025 0.0
C5417 C 0.05724 0.6218 0.03315 0.0
C5418 C 0.05584 0.60168 0.02983 0.0
C5419 C 0.06665 0.65471 0.05472 0.0
C5420 C 0.05152 0.66134 0.0601 0.0
C5421 C 0.08267 0.66839 0.05557 0.0
C5422 C 0.09839 0.66288 0.04746 0.0
C5423 C 0.09734 0.65428 0.02813 0.0
C5424 C 0.11253 0.65092 0.01984 0.0
C5425 C 0.12883 0.65597 0.03078 0.0
C5426 C 0.12994 0.66424 0.05007 0.0
C5427 C 0.1148 0.6678 0.0584 0.0
H5428 H 0.14061 0.65346 0.02432 0.0
H5429 H 0.99226 0.70219 0.08638 0.0
H5430 H 0.05597 0.2703 0.87474 0.0
H5431 H 0.08347 0.27309 0.85958 0.0
H5432 H 0.11259 0.27904 0.91422 0.0
H5433 H 0.08497 0.27745 0.92963 0.0
H5434 H 0.13173 0.30122 0.89626 0.0
H5435 H 0.10332 0.2353 0.87713 0.0
H5436 H 0.07869 0.20771 0.86445 0.0
H5437 H 0.07686 0.22629 0.81052 0.0
H5438 H 0.10135 0.25414 0.82297 0.0
H5439 H 0.20939 0.29397 0.84702 0.0
H5440 H 0.18459 0.28528 0.8662 0.0
H5441 H 0.14781 0.28484 0.81858 0.0
H5442 H 0.17232 0.29296 0.79948 0.0
H5443 H 0.13448 0.25694 0.83587 0.0
H5444 H 0.16306 0.32471 0.85797 0.0
H5445 H 0.18856 0.35082 0.87199 0.0
H5446 H 0.19131 0.32604 0.92233 0.0
H5447 H 0.16601 0.2996 0.90846 0.0
C5448 C 0.06819 0.27206 0.88357 0.0
C5449 C 0.06812 0.2734 0.90343 0.0
C5450 C 0.08404 0.27355 0.87482 0.0
C5451 C 0.10038 0.27574 0.8855 0.0
C5452 C 0.10034 0.27723 0.90544 0.0
C5453 C 0.08446 0.27619 0.91429 0.0
C5454 C 0.11732 0.2767 0.87582 0.0
C5455 C 0.13233 0.29127 0.88323 0.0
C5456 C 0.11851 0.26385 0.85875 0.0
C5457 C 0.1041 0.24686 0.85102 0.0
C5458 C 0.09763 0.23352 0.86258 0.0
C5459 C 0.08369 0.21785 0.85544 0.0
C5460 C 0.0762 0.21526 0.8367 0.0
C5461 C 0.08268 0.22831 0.82504 0.0
C5462 C 0.09661 0.24403 0.83211 0.0
C5463 C 0.196 0.29159 0.84054 0.0
C5464 C 0.19292 0.29438 0.82171 0.0
C5465 C 0.18177 0.28685 0.85161 0.0
C5466 C 0.16412 0.28481 0.84411 0.0
C5467 C 0.16114 0.28643 0.82494 0.0
C5468 C 0.17525 0.29114 0.81397 0.0
C5469 C 0.14865 0.28174 0.85601 0.0
C5470 C 0.13389 0.26673 0.84901 0.0
C5471 C 0.14786 0.29395 0.87363 0.0
C5472 C 0.16278 0.31009 0.8821 0.0
C5473 C 0.16916 0.32479 0.87199 0.0
C5474 C 0.18358 0.33964 0.8799 0.0
C5475 C 0.19158 0.34006 0.89802 0.0
C5476 C 0.18513 0.32567 0.90828 0.0
C5477 C 0.17076 0.31076 0.9004 0.0
H5478 H 0.20275 0.35155 0.90411 0.0
H5479 H 0.06538 0.20314 0.83121 0.0
H5480 H 0.5992 0.76354 0.89583 0.0
H5481 H 0.59528 0.73275 0.90726 0.0
H5482 H 0.57618 0.75876 0.95866 0.0
H5483 H 0.58002 0.78905 0.94775 0.0
H5484 H 0.60371 0.74088 0.9649 0.0
H5485 H 0.54777 0.73059 0.92561 0.0
H5486 H 0.53042 0.72733 0.89481 0.0
H5487 H 0.55297 0.67993 0.87116 0.0
H5488 H 0.57063 0.6831 0.9018 0.0
H5489 H 0.55453 0.68379 0.01915 0.0
H5490 H 0.56569 0.7057 0.99828 0.0
H5491 H 0.57098 0.6578 0.9554 0.0
H5492 H 0.55785 0.63547 0.97535 0.0
H5493 H 0.55769 0.68194 0.93943 0.0
H5494 H 0.60959 0.69054 0.9841 0.0
H5495 H 0.62612 0.69658 0.01583 0.0
H5496 H 0.60921 0.74983 0.03083 0.0
H5497 H 0.59265 0.74411 0.99921 0.0
C5498 C 0.59413 0.76259 0.90953 0.0
C5499 C 0.59019 0.77876 0.92103 0.0
C5500 C 0.59188 0.74508 0.91595 0.0
C5501 C 0.58565 0.74377 0.9338 0.0
C5502 C 0.58123 0.7597 0.94493 0.0
C5503 C 0.58348 0.77701 0.93864 0.0
C5504 C 0.58412 0.72624 0.94181 0.0
C5505 C 0.59381 0.72783 0.95928 0.0
C5506 C 0.57146 0.70929 0.93413 0.0
C5507 C 0.56067 0.70723 0.91587 0.0
C5508 C 0.54912 0.71958 0.91379 0.0
C5509 C 0.53922 0.71773 0.89638 0.0
C5510 C 0.54065 0.70348 0.88101 0.0
C5511 C 0.55192 0.69099 0.88306 0.0
C5512 C 0.56187 0.6928 0.90044 0.0
C5513 C 0.55778 0.67781 0.0052 0.0
C5514 C 0.55524 0.65783 0.99902 0.0
C5515 C 0.56458 0.69041 0.99342 0.0
C5516 C 0.56974 0.68339 0.97556 0.0
C5517 C 0.56733 0.66349 0.96928 0.0
C5518 C 0.56 0.65078 0.98084 0.0
C5519 C 0.57668 0.69696 0.96316 0.0
C5520 C 0.5681 0.69458 0.9448 0.0
C5521 C 0.5901 0.71354 0.97023 0.0
C5522 C 0.59991 0.71687 0.98931 0.0
C5523 C 0.60936 0.70349 0.99421 0.0
C5524 C 0.61876 0.70688 0.01215 0.0
C5525 C 0.61871 0.72357 0.02534 0.0
C5526 C 0.60928 0.73693 0.0206 0.0
C5527 C 0.59996 0.73366 1.00264 0.0
H5528 H 0.62598 0.72616 0.03922 0.0
H5529 H 0.53298 0.70207 0.86754 0.0
H5530 H 0.05573 0.78657 0.69096 0.0
H5531 H 0.08285 0.78375 0.70845 0.0
H5532 H 0.09166 0.74206 0.6611 0.0
H5533 H 0.06478 0.74501 0.64342 0.0
H5534 H 0.0977 0.73305 0.69883 0.0
H5535 H 0.11198 0.78416 0.66266 0.0
H5536 H 0.1072 0.81401 0.65288 0.0
H5537 H 0.1201 0.84435 0.7107 0.0
H5538 H 0.12451 0.8145 0.72089 0.0
H5539 H 0.18709 0.73356 0.71924 0.0
H5540 H 0.16028 0.73714 0.70163 0.0
H5541 H 0.15596 0.78434 0.74592 0.0
H5542 H 0.18289 0.78083 0.76338 0.0
H5543 H 0.14719 0.79069 0.71037 0.0
H5544 H 0.1337 0.74076 0.74695 0.0
H5545 H 0.13754 0.71109 0.75781 0.0
H5546 H 0.12231 0.6788 0.701 0.0
H5547 H 0.1188 0.7084 0.6897 0.0
C5548 C 0.06349 0.77683 0.68432 0.0
C5549 C 0.0585 0.76635 0.66572 0.0
C5550 C 0.07883 0.77516 0.69432 0.0
C5551 C 0.08915 0.76278 0.68591 0.0
C5552 C 0.08379 0.75169 0.6677 0.0
C5553 C 0.06864 0.7536 0.65757 0.0
C5554 C 0.10628 0.76251 0.69545 0.0
C5555 C 0.1086 0.74554 0.70122 0.0
C5556 C 0.12024 0.77899 0.6988 0.0
C5557 C 0.11837 0.79709 0.69256 0.0
C5558 C 0.11368 0.79717 0.6733 0.0
C5559 C 0.11102 0.81408 0.66768 0.0
C5560 C 0.11328 0.83105 0.68117 0.0
C5561 C 0.11831 0.83117 0.70028 0.0
C5562 C 0.12088 0.81427 0.70599 0.0
C5563 C 0.18045 0.74481 0.72496 0.0
C5564 C 0.18662 0.75678 0.7426 0.0
C5565 C 0.16525 0.74685 0.715 0.0
C5566 C 0.15608 0.76078 0.72271 0.0
C5567 C 0.16287 0.77346 0.73985 0.0
C5568 C 0.17807 0.7714 0.74982 0.0
C5569 C 0.13873 0.76116 0.71368 0.0
C5570 C 0.13632 0.77816 0.70801 0.0
C5571 C 0.12464 0.74474 0.71058 0.0
C5572 C 0.12619 0.72682 0.71744 0.0
C5573 C 0.13129 0.72735 0.73674 0.0
C5574 C 0.13342 0.71055 0.74298 0.0
C5575 C 0.13022 0.69308 0.73009 0.0
C5576 C 0.12482 0.69236 0.71096 0.0
C5577 C 0.12277 0.70914 0.70462 0.0
H5578 H 0.1319 0.68008 0.73495 0.0
H5579 H 0.11119 0.84413 0.6768 0.0
H5580 H 0.08931 0.37502 0.3828 0.0
H5581 H 0.08427 0.40553 0.3999 0.0
H5582 H 0.12249 0.40443 0.44582 0.0
H5583 H 0.12664 0.37338 0.42925 0.0
H5584 H 0.09164 0.40706 0.45795 0.0
H5585 H 0.12967 0.43817 0.41482 0.0
H5586 H 0.13815 0.44272 0.38288 0.0
H5587 H 0.08775 0.45524 0.36908 0.0
H5588 H 0.07891 0.45053 0.40085 0.0
H5589 H 0.08781 0.49422 0.51511 0.0
H5590 H 0.09961 0.4703 0.49459 0.0
H5591 H 0.06161 0.47062 0.44828 0.0
H5592 H 0.05046 0.49518 0.46826 0.0
H5593 H 0.09274 0.46902 0.43616 0.0
H5594 H 0.05293 0.43646 0.47493 0.0
H5595 H 0.04113 0.43133 0.50542 0.0
H5596 H 0.09029 0.41965 0.52531 0.0
H5597 H 0.10247 0.42498 0.495 0.0
C5598 C 0.09696 0.38172 0.39627 0.0
C5599 C 0.10835 0.3723 0.4049 0.0
C5600 C 0.09414 0.39904 0.40596 0.0
C5601 C 0.10318 0.40714 0.42396 0.0
C5602 C 0.11548 0.39827 0.4319 0.0
C5603 C 0.11787 0.38072 0.4225 0.0
C5604 C 0.0982 0.42343 0.43565 0.0
C5605 C 0.09223 0.42077 0.45337 0.0
C5606 C 0.09813 0.44078 0.42911 0.0
C5607 C 0.10363 0.44394 0.41017 0.0
C5608 C 0.12039 0.44182 0.40494 0.0
C5609 C 0.12525 0.44443 0.38687 0.0
C5610 C 0.11349 0.44926 0.37395 0.0
C5611 C 0.09685 0.45152 0.3791 0.0
C5612 C 0.09192 0.44892 0.39714 0.0
C5613 C 0.08182 0.48905 0.50067 0.0
C5614 C 0.06741 0.49564 0.49366 0.0
C5615 C 0.08867 0.47557 0.48896 0.0
C5616 C 0.08107 0.46852 0.47024 0.0
C5617 C 0.06738 0.47581 0.46286 0.0
C5618 C 0.06072 0.48948 0.47447 0.0
C5619 C 0.08674 0.45278 0.45856 0.0
C5620 C 0.09251 0.45542 0.44081 0.0
C5621 C 0.08616 0.43518 0.46481 0.0
C5622 C 0.07866 0.43126 0.48277 0.0
C5623 C 0.06124 0.43286 0.48584 0.0
C5624 C 0.05449 0.42993 0.50308 0.0
C5625 C 0.06497 0.42521 0.51731 0.0
C5626 C 0.08219 0.42332 0.51428 0.0
C5627 C 0.08902 0.42627 0.49706 0.0
H5628 H 0.05974 0.423 0.53067 0.0
H5629 H 0.11728 0.45126 0.35997 0.0
H5630 H 0.44974 0.23856 0.16838 0.0
H5631 H 0.42292 0.23759 0.1851 0.0
H5632 H 0.44775 0.29172 0.22175 0.0
H5633 H 0.47492 0.29161 0.20619 0.0
H5634 H 0.43084 0.27003 0.24156 0.0
H5635 H 0.41678 0.28419 0.17798 0.0
H5636 H 0.41217 0.27614 0.14284 0.0
H5637 H 0.37321 0.22537 0.146 0.0
H5638 H 0.37779 0.23295 0.18111 0.0
H5639 H 0.35536 0.29321 0.28163 0.0
H5640 H 0.38225 0.29459 0.26529 0.0
H5641 H 0.35455 0.24603 0.22258 0.0
H5642 H 0.32717 0.24875 0.23605 0.0
H5643 H 0.37334 0.26479 0.20525 0.0
H5644 H 0.38691 0.24792 0.2673 0.0
H5645 H 0.39053 0.25433 0.3025 0.0
H5646 H 0.4294 0.30609 0.30246 0.0
H5647 H 0.4258 0.30014 0.26731 0.0
C5648 C 0.44938 0.24997 0.18026 0.0
C5649 C 0.46411 0.26506 0.18633 0.0
C5650 C 0.4341 0.24957 0.1896 0.0
C5651 C 0.43323 0.26482 0.20436 0.0
C5652 C 0.44815 0.2798 0.21042 0.0
C5653 C 0.46361 0.27977 0.20161 0.0
C5654 C 0.41692 0.26548 0.21368 0.0
C5655 C 0.41822 0.26891 0.23365 0.0
C5656 C 0.40042 0.26346 0.20331 0.0
C5657 C 0.39776 0.25906 0.18217 0.0
C5658 C 0.40732 0.27126 0.17117 0.0
C5659 C 0.4047 0.26677 0.15126 0.0
C5660 C 0.39244 0.25023 0.1422 0.0
C5661 C 0.38274 0.23815 0.15302 0.0
C5662 C 0.38534 0.24254 0.17292 0.0
C5663 C 0.35499 0.284 0.26801 0.0
C5664 C 0.33913 0.27222 0.25918 0.0
C5665 C 0.3705 0.28397 0.25913 0.0
C5666 C 0.37068 0.27017 0.2427 0.0
C5667 C 0.35487 0.25721 0.23489 0.0
C5668 C 0.3392 0.25859 0.24274 0.0
C5669 C 0.38702 0.26894 0.23333 0.0
C5670 C 0.38581 0.26558 0.2133 0.0
C5671 C 0.40351 0.27049 0.24364 0.0
C5672 C 0.40601 0.27363 0.26472 0.0
C5673 C 0.39622 0.26065 0.27482 0.0
C5674 C 0.39824 0.26424 0.29476 0.0
C5675 C 0.41017 0.28062 0.30471 0.0
C5676 C 0.42016 0.29342 0.29475 0.0
C5677 C 0.41814 0.28995 0.27484 0.0
H5678 H 0.41169 0.28338 0.32013 0.0
H5679 H 0.39043 0.2468 0.12678 0.0
H5680 H 0.6582 0.49124 0.33365 0.0
H5681 H 0.6424 0.49325 0.3627 0.0
H5682 H 0.6205 0.53887 0.34634 0.0
H5683 H 0.63545 0.53607 0.31671 0.0
H5684 H 0.63376 0.5472 0.3873 0.0
H5685 H 0.59364 0.49886 0.34401 0.0
H5686 H 0.58155 0.46881 0.32103 0.0
H5687 H 0.59298 0.4356 0.36277 0.0
H5688 H 0.60547 0.46549 0.38594 0.0
H5689 H 0.56836 0.55094 0.45671 0.0
H5690 H 0.58266 0.54747 0.42677 0.0
H5691 H 0.60231 0.49995 0.44199 0.0
H5692 H 0.58863 0.50402 0.47243 0.0
H5693 H 0.58968 0.49241 0.40141 0.0
H5694 H 0.63021 0.5419 0.44462 0.0
H5695 H 0.63876 0.57228 0.46801 0.0
H5696 H 0.62411 0.60356 0.42586 0.0
H5697 H 0.61514 0.57327 0.40229 0.0
C5698 C 0.65004 0.50176 0.3361 0.0
C5699 C 0.64849 0.51353 0.32232 0.0
C5700 C 0.64081 0.50289 0.35297 0.0
C5701 C 0.62994 0.51633 0.35749 0.0
C5702 C 0.62861 0.52831 0.34385 0.0
C5703 C 0.6373 0.52667 0.32662 0.0
C5704 C 0.62022 0.51792 0.37618 0.0
C5705 C 0.62403 0.53513 0.39008 0.0
C5706 C 0.60739 0.50247 0.38079 0.0
C5707 C 0.60081 0.48446 0.36662 0.0
C5708 C 0.59391 0.48517 0.3482 0.0
C5709 C 0.58689 0.46815 0.33516 0.0
C5710 C 0.58657 0.4503 0.34041 0.0
C5711 C 0.5933 0.44944 0.3587 0.0
C5712 C 0.60037 0.46642 0.37179 0.0
C5713 C 0.57572 0.53969 0.45381 0.0
C5714 C 0.57714 0.52787 0.46755 0.0
C5715 C 0.58404 0.53768 0.43641 0.0
C5716 C 0.59391 0.52334 0.43136 0.0
C5717 C 0.59496 0.51119 0.4449 0.0
C5718 C 0.58707 0.51359 0.46261 0.0
C5719 C 0.60342 0.52156 0.41254 0.0
C5720 C 0.59954 0.50437 0.39864 0.0
C5721 C 0.61608 0.53704 0.40783 0.0
C5722 C 0.62186 0.55531 0.42175 0.0
C5723 C 0.62871 0.55525 0.44037 0.0
C5724 C 0.63364 0.57244 0.45366 0.0
C5725 C 0.63196 0.58983 0.44843 0.0
C5726 C 0.62539 0.59007 0.42989 0.0
C5727 C 0.62039 0.57289 0.41655 0.0
H5728 H 0.63576 0.60313 0.45875 0.0
H5729 H 0.58105 0.43714 0.33032 0.0
H5730 H 0.3299 0.87592 0.04821 0.0
H5731 H 0.33058 0.86921 0.08032 0.0
H5732 H 0.30985 0.91941 0.09999 0.0
H5733 H 0.30921 0.92658 0.06768 0.0
H5734 H 0.34098 0.90649 0.12453 0.0
H5735 H 0.27998 0.88718 0.09348 0.0
H5736 H 0.26127 0.87363 0.06327 0.0
H5737 H 0.28051 0.82149 0.05912 0.0
H5738 H 0.29957 0.8349 0.08914 0.0
H5739 H 0.32923 0.86014 0.20273 0.0
H5740 H 0.31924 0.87844 0.17982 0.0
H5741 H 0.31896 0.83089 0.13392 0.0
H5742 H 0.32862 0.81266 0.15679 0.0
H5743 H 0.29382 0.8489 0.12632 0.0
H5744 H 0.35561 0.86437 0.14824 0.0
H5745 H 0.38152 0.8749 0.17203 0.0
H5746 H 0.36799 0.92988 0.18804 0.0
H5747 H 0.34177 0.9195 0.16455 0.0
C5748 C 0.32559 0.88569 0.0593 0.0
C5749 C 0.31909 0.90152 0.05533 0.0
C5750 C 0.32623 0.88195 0.07764 0.0
C5751 C 0.32022 0.89385 0.09221 0.0
C5752 C 0.31459 0.91023 0.08872 0.0
C5753 C 0.314 0.91408 0.07027 0.0
C5754 C 0.31742 0.88714 0.11011 0.0
C5755 C 0.33032 0.89442 0.12543 0.0
C5756 C 0.30391 0.87086 0.11049 0.0
C5757 C 0.29109 0.862 0.0936 0.0
C5758 C 0.28011 0.87277 0.08618 0.0
C5759 C 0.26951 0.86516 0.06905 0.0
C5760 C 0.26968 0.8467 0.05929 0.0
C5761 C 0.28035 0.83576 0.06673 0.0
C5762 C 0.29101 0.84334 0.08383 0.0
C5763 C 0.32634 0.85348 0.18781 0.0
C5764 C 0.32967 0.83526 0.18122 0.0
C5765 C 0.32072 0.86386 0.17482 0.0
C5766 C 0.31865 0.85605 0.15527 0.0
C5767 C 0.32045 0.83709 0.14898 0.0
C5768 C 0.32602 0.82675 0.16195 0.0
C5769 C 0.31737 0.86828 0.14109 0.0
C5770 C 0.30386 0.86177 0.12619 0.0
C5771 C 0.3308 0.8848 0.14077 0.0
C5772 C 0.34653 0.89103 0.15493 0.0
C5773 C 0.35804 0.87862 0.15699 0.0
C5774 C 0.3728 0.88457 0.17039 0.0
C5775 C 0.37634 0.90301 0.18162 0.0
C5776 C 0.36517 0.91556 0.1794 0.0
C5777 C 0.35034 0.90965 0.16607 0.0
H5778 H 0.38778 0.9076 0.19199 0.0
H5779 H 0.26156 0.84088 0.04596 0.0
H5780 H 0.94991 0.52352 0.84003 0.0
H5781 H 0.96505 0.52074 0.86941 0.0
H5782 H 0.94026 0.56325 0.90056 0.0
H5783 H 0.92444 0.5658 0.87067 0.0
H5784 H 0.97764 0.57324 0.89963 0.0
H5785 H 0.93327 0.52108 0.91236 0.0
H5786 H 0.91208 0.48986 0.90323 0.0
H5787 H 0.95461 0.46153 0.8901 0.0
H5788 H 0.97606 0.49264 0.89882 0.0
H5789 H 0.02224 0.57528 0.98718 0.0
H5790 H 1.00154 0.57339 0.95968 0.0
H5791 H 0.02224 0.52732 0.92841 0.0
H5792 H 0.04274 0.52896 0.95632 0.0
H5793 H 0.98597 0.51842 0.93018 0.0
H5794 H 0.02968 0.5674 0.91371 0.0
H5795 H 0.05269 0.59737 0.9205 0.0
H5796 H 0.01365 0.62997 0.93654 0.0
H5797 H 0.99042 0.60011 0.93022 0.0
C5798 C 0.94722 0.53187 0.8531 0.0
C5799 C 0.93637 0.54515 0.85323 0.0
C5800 C 0.9557 0.53006 0.86991 0.0
C5801 C 0.95358 0.54175 0.88692 0.0
C5802 C 0.94173 0.55403 0.88738 0.0
C5803 C 0.93289 0.55555 0.87046 0.0
C5804 C 0.96667 0.54404 0.90283 0.0
C5805 C 0.97924 0.56148 0.90677 0.0
C5806 C 0.9691 0.52812 0.91088 0.0
C5807 C 0.95629 0.50924 0.90625 0.0
C5808 C 0.93812 0.50822 0.90747 0.0
C5809 C 0.92605 0.49053 0.90235 0.0
C5810 C 0.932 0.47372 0.89609 0.0
C5811 C 0.95003 0.47456 0.89498 0.0
C5812 C 0.96215 0.49222 0.90005 0.0
C5813 C 0.02283 0.56543 0.97408 0.0
C5814 C 0.03415 0.55268 0.97324 0.0
C5815 C 0.01101 0.5642 0.95858 0.0
C5816 C 0.01062 0.55027 0.94225 0.0
C5817 C 0.02262 0.53817 0.94103 0.0
C5818 C 0.03445 0.53937 0.95665 0.0
C5819 C 0.9967 0.5477 0.92712 0.0
C5820 C 0.98418 0.53023 0.92321 0.0
C5821 C 0.99453 0.56336 0.91857 0.0
C5822 C 0.0083 0.5815 0.92154 0.0
C5823 C 0.02599 0.58095 0.91873 0.0
C5824 C 0.03908 0.59791 0.92252 0.0
C5825 C 0.03463 0.61556 0.92896 0.0
C5826 C 0.01707 0.61628 0.93154 0.0
C5827 C 1.00392 0.59934 0.92783 0.0
H5828 H 0.04479 0.62868 0.93192 0.0
H5829 H 0.92263 0.46005 0.89211 0.0
H5830 H 0.29061 0.2473 0.55883 0.0
H5831 H 0.29357 0.25857 0.59299 0.0
H5832 H 0.31083 0.2073 0.6018 0.0
H5833 H 0.30743 0.1955 0.56715 0.0
H5834 H 0.28667 0.21392 0.62495 0.0
H5835 H 0.33958 0.25359 0.6105 0.0
H5836 H 0.35824 0.27642 0.59398 0.0
H5837 H 0.32813 0.31897 0.61162 0.0
H5838 H 0.30914 0.29632 0.62804 0.0
H5839 H 0.30156 0.25099 0.72556 0.0
H5840 H 0.30239 0.23689 0.69214 0.0
H5841 H 0.29272 0.28899 0.67555 0.0
H5842 H 0.29384 0.30367 0.70917 0.0
H5843 H 0.31619 0.28025 0.65673 0.0
H5844 H 0.26072 0.23898 0.66711 0.0
H5845 H 0.24169 0.21586 0.68309 0.0
H5846 H 0.27656 0.17681 0.67302 0.0
H5847 H 0.29568 0.19963 0.65686 0.0
C5848 C 0.29518 0.23835 0.56789 0.0
C5849 C 0.29865 0.22033 0.56006 0.0
C5850 C 0.29704 0.24499 0.58757 0.0
C5851 C 0.30266 0.23399 0.60014 0.0
C5852 C 0.30652 0.21614 0.59244 0.0
C5853 C 0.30461 0.20941 0.5726 0.0
C5854 C 0.30315 0.24064 0.62123 0.0
C5855 C 0.29339 0.22834 0.63195 0.0
C5856 C 0.31155 0.2596 0.63044 0.0
C5857 C 0.32286 0.27318 0.62039 0.0
C5858 C 0.33684 0.26775 0.61072 0.0
C5859 C 0.3475 0.28068 0.6014 0.0
C5860 C 0.34436 0.29912 0.60172 0.0
C5861 C 0.33055 0.30468 0.61137 0.0
C5862 C 0.31985 0.29181 0.62071 0.0
C5863 C 0.29903 0.25914 0.71469 0.0
C5864 C 0.29699 0.2782 0.71991 0.0
C5865 C 0.29949 0.25106 0.69547 0.0
C5866 C 0.29728 0.2616 0.68093 0.0
C5867 C 0.2945 0.2804 0.68626 0.0
C5868 C 0.2948 0.28873 0.7055 0.0
C5869 C 0.2991 0.25378 0.66039 0.0
C5870 C 0.30943 0.26584 0.64978 0.0
C5871 C 0.29113 0.23465 0.65123 0.0
C5872 C 0.27967 0.22104 0.66097 0.0
C5873 C 0.26434 0.22549 0.66841 0.0
C5874 C 0.25354 0.21244 0.67746 0.0
C5875 C 0.25798 0.19495 0.6792 0.0
C5876 C 0.27315 0.19039 0.67173 0.0
C5877 C 0.28393 0.20333 0.66255 0.0
H5878 H 0.24962 0.18489 0.68626 0.0
H5879 H 0.35263 0.30911 0.59451 0.0
H5880 H 0.66489 0.5196 0.20476 0.0
H5881 H 0.65154 0.52216 0.17343 0.0
H5882 H 0.59976 0.50166 0.19019 0.0
H5883 H 0.61305 0.49869 0.22105 0.0
H5884 H 0.5962 0.48963 0.15354 0.0
H5885 H 0.61904 0.55256 0.18929 0.0
H5886 H 0.64277 0.57687 0.2095 0.0
H5887 H 0.67557 0.57611 0.16308 0.0
H5888 H 0.65209 0.55157 0.14263 0.0
H5889 H 0.55133 0.52545 0.07802 0.0
H5890 H 0.56263 0.51965 0.1091 0.0
H5891 H 0.61594 0.53867 0.09562 0.0
H5892 H 0.60473 0.54433 0.06498 0.0
H5893 H 0.61718 0.55099 0.13121 0.0
H5894 H 0.59134 0.48776 0.0946 0.0
H5895 H 0.56741 0.46178 0.07681 0.0
H5896 H 0.53821 0.46326 0.12612 0.0
H5897 H 0.56186 0.48944 0.14413 0.0
C5898 C 0.65071 0.51493 0.20165 0.0
C5899 C 0.64038 0.5084 0.21596 0.0
C5900 C 0.64284 0.51682 0.18355 0.0
C5901 C 0.62417 0.51256 0.17873 0.0
C5902 C 0.61402 0.5052 0.19273 0.0
C5903 C 0.62183 0.50338 0.2107 0.0
C5904 C 0.61524 0.51665 0.16 0.0
C5905 C 0.60083 0.50318 0.1489 0.0
C5906 C 0.62056 0.53421 0.15311 0.0
C5907 C 0.63396 0.55015 0.16456 0.0
C5908 C 0.63129 0.55768 0.18338 0.0
C5909 C 0.64468 0.57141 0.19487 0.0
C5910 C 0.66066 0.57783 0.18757 0.0
C5911 C 0.66317 0.57098 0.16867 0.0
C5912 C 0.64983 0.55719 0.15712 0.0
C5913 C 0.56546 0.52881 0.08179 0.0
C5914 C 0.57694 0.53578 0.06858 0.0
C5915 C 0.57208 0.52514 0.09972 0.0
C5916 C 0.59051 0.52828 0.10538 0.0
C5917 C 0.60177 0.53588 0.09234 0.0
C5918 C 0.59522 0.53925 0.07451 0.0
C5919 C 0.59838 0.52383 0.12438 0.0
C5920 C 0.61255 0.53735 0.13569 0.0
C5921 C 0.59256 0.50639 0.1315 0.0
C5922 C 0.57831 0.49071 0.12067 0.0
C5923 C 0.57976 0.48265 0.10161 0.0
C5924 C 0.56625 0.46787 0.09149 0.0
C5925 C 0.55128 0.4609 0.10031 0.0
C5926 C 0.5498 0.46869 0.11929 0.0
C5927 C 0.56325 0.4835 0.12946 0.0
H5928 H 0.54087 0.44944 0.09246 0.0
H5929 H 0.67114 0.58797 0.19663 0.0
H5930 H 0.28773 0.90686 0.94765 0.0
H5931 H 0.29374 0.88565 0.91937 0.0
H5932 H 0.34908 0.89899 0.93962 0.0
H5933 H 0.34318 0.92109 0.96723 0.0
H5934 H 0.34386 0.89184 0.90081 0.0
H5935 H 0.32322 0.85984 0.95218 0.0
H5936 H 0.30325 0.85198 0.97676 0.0
H5937 H 0.25934 0.83239 0.93382 0.0
H5938 H 0.27905 0.84018 0.90903 0.0
H5939 H 0.34208 0.80836 0.83053 0.0
H5940 H 0.34894 0.82832 0.86257 0.0
H5941 H 0.2935 0.82845 0.86524 0.0
H5942 H 0.28681 0.8082 0.83396 0.0
H5943 H 0.30714 0.8263 0.89815 0.0
H5944 H 0.32625 0.86559 0.84845 0.0
H5945 H 0.34569 0.87523 0.82394 0.0
H5946 H 0.39141 0.88168 0.86294 0.0
H5947 H 0.3723 0.87211 0.88769 0.0
C5948 C 0.30125 0.90595 0.94546 0.0
C5949 C 0.31503 0.91523 0.95939 0.0
C5950 C 0.30465 0.8937 0.92958 0.0
C5951 C 0.32173 0.89035 0.92798 0.0
C5952 C 0.3358 0.90126 0.94088 0.0
C5953 C 0.33243 0.91377 0.95659 0.0
C5954 C 0.32438 0.874 0.91415 0.0
C5955 C 0.33605 0.87741 0.90031 0.0
C5956 C 0.31445 0.85522 0.91391 0.0
C5957 C 0.30259 0.8506 0.9288 0.0
C5958 C 0.30929 0.85391 0.94802 0.0
C5959 C 0.29803 0.84944 0.96197 0.0
C5960 C 0.28004 0.84168 0.95685 0.0
C5961 C 0.27328 0.83836 0.93777 0.0
C5962 C 0.28449 0.84274 0.92376 0.0
C5963 C 0.3314 0.81206 0.83849 0.0
C5964 C 0.31386 0.80633 0.83031 0.0
C5965 C 0.33532 0.82362 0.85654 0.0
C5966 C 0.32175 0.82997 0.86612 0.0
C5967 C 0.30415 0.82347 0.85818 0.0
C5968 C 0.30024 0.81165 0.84041 0.0
C5969 C 0.32542 0.84442 0.88376 0.0
C5970 C 0.31525 0.8406 0.89878 0.0
C5971 C 0.33656 0.86283 0.88489 0.0
C5972 C 0.3479 0.86787 0.86976 0.0
C5973 C 0.34045 0.86889 0.85171 0.0
C5974 C 0.35139 0.87439 0.83781 0.0
C5975 C 0.36973 0.87895 0.84183 0.0
C5976 C 0.3772 0.87808 0.8598 0.0
C5977 C 0.36634 0.87263 0.87377 0.0
H5978 H 0.37814 0.88323 0.83104 0.0
H5979 H 0.27134 0.83823 0.96767 0.0
H5980 H 0.917 0.53128 0.74397 0.0
H5981 H 0.92321 0.53102 0.71059 0.0
H5982 H 0.97914 0.54636 0.72825 0.0
H5983 H 0.97311 0.5465 0.76129 0.0
H5984 H 0.96768 0.56896 0.70409 0.0
H5985 H 0.96203 0.50279 0.71215 0.0
H5986 H 0.94723 0.47083 0.71768 0.0
H5987 H 0.90946 0.46488 0.66966 0.0
H5988 H 0.92387 0.49706 0.66409 0.0
H5989 H 0.02862 0.53008 0.65278 0.0
H5990 H 0.00772 0.5426 0.67315 0.0
H5991 H 0.96724 0.52559 0.62587 0.0
H5992 H 0.98835 0.5133 0.60537 0.0
H5993 H 0.95992 0.5081 0.6572 0.0
H5994 H 0.97673 0.57304 0.64621 0.0
H5995 H 0.9968 0.60342 0.64307 0.0
H5996 H 0.02065 0.6089 0.69996 0.0
H5997 H 1.00083 0.57855 0.7034 0.0
C5998 C 0.93059 0.53474 0.74063 0.0
C5999 C 0.94464 0.53895 0.75502 0.0
C6000 C 0.93406 0.53449 0.72168 0.0
C6001 C 0.95156 0.53877 0.71722 0.0
C6002 C 0.96553 0.54316 0.73162 0.0
C6003 C 0.9621 0.54315 0.75039 0.0
C6004 C 0.95586 0.53865 0.6976 0.0
C6005 C 0.96582 0.55575 0.69361 0.0
C6006 C 0.95296 0.52141 0.68403 0.0
C6007 C 0.94372 0.50257 0.68803 0.0
C6008 C 0.95033 0.49488 0.70303 0.0
C6009 C 0.94208 0.47666 0.70611 0.0
C6010 C 0.92733 0.46589 0.69412 0.0
C6011 C 0.92081 0.4733 0.67902 0.0
C6012 C 0.92898 0.49155 0.67594 0.0
C6013 C 0.01534 0.52941 0.64677 0.0
C6014 C 0.00978 0.52055 0.62785 0.0
C6015 C 1.00354 0.5368 0.65821 0.0
C6016 C 0.98607 0.53523 0.65083 0.0
C6017 C 0.98076 0.52716 0.63162 0.0
C6018 C 0.99268 0.52 0.62008 0.0
C6019 C 0.97287 0.53818 0.66424 0.0
C6020 C 0.96104 0.5216 0.66707 0.0
C6021 C 0.97486 0.55565 0.6773 0.0
C6022 C 0.98726 0.57354 0.67504 0.0
C6023 C 0.98635 0.58066 0.65798 0.0
C6024 C 0.99765 0.5979 0.65618 0.0
C6025 C 0.00998 0.60809 0.67131 0.0
C6026 C 0.01107 0.60103 0.68827 0.0
C6027 C 0.99977 0.58384 0.69017 0.0
H6028 H 0.01868 0.62146 0.66989 0.0
H6029 H 0.92102 0.45174 0.69645 0.0
H6030 H 0.32703 0.2057 0.45816 0.0
H6031 H 0.33079 0.2213 0.43017 0.0
H6032 H 0.27545 0.22257 0.42641 0.0
H6033 H 0.27183 0.20744 0.45474 0.0
H6034 H 0.28662 0.20785 0.39175 0.0
H6035 H 0.30446 0.26278 0.44199 0.0
H6036 H 0.32136 0.28407 0.4706 0.0
H6037 H 0.36927 0.28604 0.44309 0.0
H6038 H 0.35271 0.26448 0.41442 0.0
H6039 H 0.28342 0.27787 0.33302 0.0
H6040 H 0.28498 0.26535 0.36262 0.0
H6041 H 0.3331 0.24769 0.34823 0.0
H6042 H 0.33081 0.25898 0.31764 0.0
H6043 H 0.32738 0.27048 0.39129 0.0
H6044 H 0.30925 0.21385 0.34141 0.0
H6045 H 0.29151 0.19614 0.3117 0.0
H6046 H 0.24383 0.19923 0.33856 0.0
H6047 H 0.26133 0.21741 0.36832 0.0
C6048 C 0.3157 0.20932 0.45128 0.0
C6049 C 0.29909 0.20524 0.45835 0.0
C6050 C 0.31788 0.21834 0.43542 0.0
C6051 C 0.30341 0.22317 0.42622 0.0
C6052 C 0.28679 0.21899 0.43329 0.0
C6053 C 0.2847 0.21034 0.4494 0.0
C6054 C 0.30542 0.23179 0.40876 0.0
C6055 C 0.29551 0.22157 0.39175 0.0
C6056 C 0.31726 0.24956 0.40857 0.0
C6057 C 0.32737 0.26172 0.42616 0.0
C6058 C 0.31864 0.26746 0.44216 0.0
C6059 C 0.32815 0.27966 0.45836 0.0
C6060 C 0.34639 0.28634 0.4587 0.0
C6061 C 0.35516 0.2808 0.44284 0.0
C6062 C 0.34572 0.26857 0.42662 0.0
C6063 C 0.29412 0.27094 0.33593 0.0
C6064 C 0.30656 0.2685 0.32275 0.0
C6065 C 0.29516 0.26413 0.353 0.0
C6066 C 0.30904 0.25544 0.35745 0.0
C6067 C 0.32223 0.25425 0.34491 0.0
C6068 C 0.32089 0.26057 0.3275 0.0
C6069 C 0.30879 0.24639 0.37454 0.0
C6070 C 0.31882 0.25658 0.3914 0.0
C6071 C 0.29717 0.2286 0.37464 0.0
C6072 C 0.28659 0.2172 0.357 0.0
C6073 C 0.29498 0.21094 0.34091 0.0
C6074 C 0.28498 0.2008 0.32407 0.0
C6075 C 0.26655 0.19662 0.32322 0.0
C6076 C 0.2581 0.20252 0.33923 0.0
C6077 C 0.26806 0.21275 0.35609 0.0
H6078 H 0.25882 0.18876 0.31017 0.0
H6079 H 0.35371 0.29585 0.47122 0.0
H6080 H 0.31457 0.59711 0.52193 0.0
H6081 H 0.34054 0.58305 0.52104 0.0
H6082 H 0.37395 0.63931 0.54215 0.0
H6083 H 0.34803 0.6536 0.54215 0.0
H6084 H 0.38561 0.62159 0.51187 0.0
H6085 H 0.36553 0.60392 0.57036 0.0
H6086 H 0.34222 0.5901 0.58924 0.0
H6087 H 0.33494 0.53507 0.55218 0.0
H6088 H 0.35801 0.54863 0.5329 0.0
H6089 H 0.4605 0.58043 0.51102 0.0
H6090 H 0.43866 0.59802 0.52335 0.0
H6091 H 0.39794 0.54601 0.50788 0.0
H6092 H 0.41988 0.52796 0.49717 0.0
H6093 H 0.39221 0.56468 0.53974 0.0
H6094 H 0.40809 0.58135 0.47936 0.0
H6095 H 0.4275 0.59447 0.45641 0.0
H6096 H 0.43953 0.65008 0.49301 0.0
H6097 H 0.42049 0.63718 0.51639 0.0
C6098 C 0.32742 0.60638 0.52681 0.0
C6099 C 0.32942 0.62635 0.53225 0.0
C6100 C 0.34221 0.59836 0.52631 0.0
C6101 C 0.35907 0.61016 0.53183 0.0
C6102 C 0.361 0.63003 0.53793 0.0
C6103 C 0.34624 0.63812 0.53803 0.0
C6104 C 0.37479 0.60192 0.52992 0.0
C6105 C 0.38735 0.60943 0.51832 0.0
C6106 C 0.37658 0.58575 0.53792 0.0
C6107 C 0.36351 0.57729 0.55021 0.0
C6108 C 0.35899 0.58886 0.56627 0.0
C6109 C 0.34578 0.58109 0.577 0.0
C6110 C 0.33711 0.56172 0.57192 0.0
C6111 C 0.34169 0.55006 0.55613 0.0
C6112 C 0.35486 0.55777 0.54532 0.0
C6113 C 0.44698 0.5726 0.51068 0.0
C6114 C 0.44188 0.55277 0.50293 0.0
C6115 C 0.43449 0.58275 0.51752 0.0
C6116 C 0.41668 0.57337 0.51617 0.0
C6117 C 0.41165 0.55353 0.50897 0.0
C6118 C 0.42416 0.54329 0.50257 0.0
C6119 C 0.403 0.58417 0.52142 0.0
C6120 C 0.39078 0.57714 0.53366 0.0
C6121 C 0.40133 0.6006 0.51368 0.0
C6122 C 0.4131 0.6082 0.49978 0.0
C6123 C 0.41506 0.59631 0.48264 0.0
C6124 C 0.42597 0.60372 0.46953 0.0
C6125 C 0.4348 0.62308 0.47328 0.0
C6126 C 0.43274 0.63507 0.49015 0.0
C6127 C 0.42193 0.6277 0.50335 0.0
H6128 H 0.4432 0.6288 0.46309 0.0
H6129 H 0.32684 0.55575 0.58021 0.0
H6130 H 0.86902 0.91793 0.56454 0.0
H6131 H 0.89808 0.93988 0.56656 0.0
H6132 H 0.88763 0.94617 0.50832 0.0
H6133 H 0.8587 0.92409 0.50635 0.0
H6134 H 0.91932 0.93882 0.51334 0.0
H6135 H 0.88837 0.98296 0.54853 0.0
H6136 H 0.87099 0.99418 0.57428 0.0
H6137 H 0.91178 0.99158 0.61621 0.0
H6138 H 0.92927 0.98005 0.59071 0.0
H6139 H 0.9913 0.01226 0.50438 0.0
H6140 H 0.96184 0.99355 0.50677 0.0
H6141 H 0.97564 0.99464 0.56631 0.0
H6142 H 0.00524 0.01406 0.56393 0.0
H6143 H 0.94296 0.99722 0.56255 0.0
H6144 H 0.97413 0.95382 0.5295 0.0
H6145 H 0.99212 0.94104 0.50519 0.0
H6146 H 0.95185 0.93971 0.46104 0.0
H6147 H 0.93374 0.95282 0.48506 0.0
C6148 C 0.87281 0.92439 0.55235 0.0
C6149 C 0.8615 0.91958 0.53539 0.0
C6150 C 0.88946 0.93695 0.55348 0.0
C6151 C 0.8952 0.94495 0.53763 0.0
C6152 C 0.88365 0.94033 0.52079 0.0
C6153 C 0.86703 0.92782 0.51969 0.0
C6154 C 0.91351 0.95716 0.53808 0.0
C6155 C 0.92434 0.95176 0.52394 0.0
C6156 C 0.92059 0.97361 0.55241 0.0
C6157 C 0.91004 0.98045 0.56771 0.0
C6158 C 0.89355 0.98461 0.56324 0.0
C6159 C 0.8837 0.99105 0.57779 0.0
C6160 C 0.89025 0.99354 0.59687 0.0
C6161 C 0.9067 0.98961 0.60143 0.0
C6162 C 0.91659 0.98313 0.58694 0.0
C6163 C 0.9881 0.00849 0.51798 0.0
C6164 C 1.00073 0.01441 0.53388 0.0
C6165 C 0.97118 0.99768 0.51935 0.0
C6166 C 0.96643 0.992 0.53659 0.0
C6167 C 0.97885 0.99859 0.55276 0.0
C6168 C 0.99579 0.00974 0.55143 0.0
C6169 C 0.94862 0.97914 0.53748 0.0
C6170 C 0.93795 0.98431 0.55191 0.0
C6171 C 0.94175 0.96222 0.52361 0.0
C6172 C 0.95266 0.95451 0.50908 0.0
C6173 C 0.96918 0.95098 0.5146 0.0
C6174 C 0.97939 0.94365 0.50087 0.0
C6175 C 0.97316 0.93962 0.48158 0.0
C6176 C 0.95668 0.94288 0.47598 0.0
C6177 C 0.94644 0.95026 0.48965 0.0
H6178 H 0.98107 0.93392 0.47097 0.0
H6179 H 0.88261 0.99855 0.60811 0.0
H6180 H 0.88623 0.10488 0.25669 0.0
H6181 H 0.87094 0.13144 0.256 0.0
H6182 H 0.91145 0.16897 0.2965 0.0
H6183 H 0.92709 0.14241 0.29676 0.0
H6184 H 0.88002 0.17837 0.30587 0.0
H6185 H 0.90627 0.17383 0.24748 0.0
H6186 H 0.91374 0.15847 0.21638 0.0
H6187 H 0.85872 0.14156 0.19611 0.0
H6188 H 0.85091 0.15667 0.2272 0.0
H6189 H 0.8397 0.26125 0.29837 0.0
H6190 H 0.85724 0.23728 0.30138 0.0
H6191 H 0.83636 0.20684 0.24484 0.0
H6192 H 0.82138 0.23261 0.24108 0.0
H6193 H 0.86008 0.19398 0.2447 0.0
H6194 H 0.83398 0.19619 0.30677 0.0
H6195 H 0.82857 0.21242 0.33853 0.0
H6196 H 0.88435 0.23431 0.35244 0.0
H6197 H 0.89004 0.21835 0.32073 0.0
C6198 C 0.89215 0.11875 0.26544 0.0
C6199 C 0.90841 0.12078 0.27664 0.0
C6200 C 0.8832 0.13433 0.26501 0.0
C6201 C 0.88956 0.15314 0.27609 0.0
C6202 C 0.90567 0.15513 0.2876 0.0
C6203 C 0.91488 0.13962 0.28768 0.0
C6204 C 0.87959 0.17027 0.27551 0.0
C6205 C 0.87571 0.18164 0.29235 0.0
C6206 C 0.87344 0.1755 0.2583 0.0
C6207 C 0.878 0.16619 0.23971 0.0
C6208 C 0.89575 0.16668 0.23644 0.0
C6209 C 0.90006 0.15806 0.21881 0.0
C6210 C 0.88671 0.14899 0.20429 0.0
C6211 C 0.86904 0.14856 0.20738 0.0
C6212 C 0.86466 0.15716 0.225 0.0
C6213 C 0.8384 0.24919 0.28668 0.0
C6214 C 0.82778 0.24895 0.26976 0.0
C6215 C 0.84859 0.23477 0.28847 0.0
C6216 C 0.84837 0.21836 0.2738 0.0
C6217 C 0.83761 0.2184 0.25695 0.0
C6218 C 0.8283 0.23334 0.25485 0.0
C6219 C 0.85932 0.20186 0.27516 0.0
C6220 C 0.86371 0.19062 0.25835 0.0
C6221 C 0.86586 0.19671 0.29246 0.0
C6222 C 0.8624 0.20627 0.31138 0.0
C6223 C 0.84506 0.2045 0.31662 0.0
C6224 C 0.84195 0.21367 0.33459 0.0
C6225 C 0.8561 0.22443 0.34747 0.0
C6226 C 0.8734 0.22602 0.34244 0.0
C6227 C 0.87657 0.21693 0.32448 0.0
H6228 H 0.85367 0.2315 0.36137 0.0
H6229 H 0.89007 0.14235 0.19064 0.0
H6230 H 0.74571 0.11312 0.02833 0.0
H6231 H 0.71659 0.09586 0.03373 0.0
H6232 H 0.69244 0.12665 0.99663 0.0
H6233 H 0.72156 0.14449 0.99159 0.0
H6234 H 0.67972 0.12949 0.03076 0.0
H6235 H 0.69349 0.0784 0.98379 0.0
H6236 H 0.71027 0.05427 0.97101 0.0
H6237 H 0.70303 0.02834 0.02066 0.0
H6238 H 0.68643 0.0525 0.03383 0.0
H6239 H 0.59202 0.08542 0.00694 0.0
H6240 H 0.62317 0.10002 0.01091 0.0
H6241 H 0.63362 0.05328 0.03746 0.0
H6242 H 0.60278 0.0365 0.02878 0.0
H6243 H 0.6558 0.05895 0.01722 0.0
H6244 H 0.63902 0.10931 0.063 0.0
H6245 H 0.61978 0.13199 0.07294 0.0
H6246 H 0.63146 0.15884 0.02461 0.0
H6247 H 0.65078 0.13654 0.01453 0.0
C6248 C 0.73422 0.11589 0.02092 0.0
C6249 C 0.73582 0.13021 0.00958 0.0
C6250 C 0.71762 0.10603 0.02408 0.0
C6251 C 0.70251 0.11012 0.01563 0.0
C6252 C 0.70408 0.12352 0.00338 0.0
C6253 C 0.72065 0.13359 1.00043 0.0
C6254 C 0.68496 0.10154 0.02051 0.0
C6255 C 0.67439 0.11405 0.0279 0.0
C6256 C 0.67847 0.08145 0.01758 0.0
C6257 C 0.68899 0.06742 0.00991 0.0
C6258 C 0.6957 0.06772 0.99209 0.0
C6259 C 0.70512 0.05399 0.98475 0.0
C6260 C 0.70778 0.03983 0.99505 0.0
C6261 C 0.70102 0.03936 0.01272 0.0
C6262 C 0.69163 0.05306 0.02013 0.0
C6263 C 0.60104 0.07853 0.01391 0.0
C6264 C 0.59515 0.06052 0.01874 0.0
C6265 C 0.61883 0.08714 0.0167 0.0
C6266 C 0.63083 0.07855 0.02574 0.0
C6267 C 0.62469 0.0605 0.03083 0.0
C6268 C 0.60708 0.05108 0.02634 0.0
C6269 C 0.64996 0.08688 0.02696 0.0
C6270 C 0.66106 0.07437 0.0209 0.0
C6271 C 0.65695 0.10703 0.0312 0.0
C6272 C 0.64623 0.1212 0.03801 0.0
C6273 C 0.63744 0.12006 0.05455 0.0
C6274 C 0.62654 0.13283 0.06018 0.0
C6275 C 0.6243 0.14671 0.04934 0.0
C6276 C 0.63319 0.14809 0.033 0.0
C6277 C 0.64422 0.1355 0.02742 0.0
H6278 H 0.61573 0.15644 0.05363 0.0
H6279 H 0.71502 0.02918 0.98931 0.0
H6280 H 0.18232 0.47269 0.23325 0.0
H6281 H 0.19794 0.44744 0.23785 0.0
H6282 H 0.24785 0.48779 0.24043 0.0
H6283 H 0.23244 0.51274 0.23504 0.0
H6284 H 0.25079 0.45429 0.22427 0.0
H6285 H 0.22837 0.4807 0.28097 0.0
H6286 H 0.20632 0.49058 0.30181 0.0
H6287 H 0.17801 0.43171 0.2944 0.0
H6288 H 0.19977 0.42151 0.27328 0.0
H6289 H 0.30253 0.42111 0.29191 0.0
H6290 H 0.2862 0.4385 0.27324 0.0
H6291 H 0.24214 0.38948 0.26194 0.0
H6292 H 0.25858 0.37197 0.28055 0.0
H6293 H 0.23503 0.42499 0.28072 0.0
H6294 H 0.26259 0.4012 0.2242 0.0
H6295 H 0.28767 0.3958 0.20576 0.0
H6296 H 0.31069 0.45644 0.21848 0.0
H6297 H 0.2858 0.46213 0.23703 0.0
C6298 C 0.19662 0.47591 0.23405 0.0
C6299 C 0.20622 0.49461 0.23398 0.0
C6300 C 0.20548 0.4616 0.2369 0.0
C6301 C 0.22394 0.46604 0.24001 0.0
C6302 C 0.23355 0.4842 0.23815 0.0
C6303 C 0.22473 0.4984 0.23496 0.0
C6304 C 0.23327 0.45232 0.24653 0.0
C6305 C 0.24737 0.4479 0.23663 0.0
C6306 C 0.22881 0.44425 0.26279 0.0
C6307 C 0.21556 0.45037 0.27531 0.0
C6308 C 0.21734 0.46988 0.28361 0.0
C6309 C 0.20492 0.47554 0.29552 0.0
C6310 C 0.19074 0.46179 0.29937 0.0
C6311 C 0.18898 0.44235 0.29136 0.0
C6312 C 0.20135 0.43662 0.27942 0.0
C6313 C 0.28952 0.41397 0.28502 0.0
C6314 C 0.28161 0.39541 0.28758 0.0
C6315 C 0.2803 0.42379 0.27434 0.0
C6316 C 0.2631 0.41512 0.26625 0.0
C6317 C 0.2555 0.39621 0.26804 0.0
C6318 C 0.26482 0.38629 0.27857 0.0
C6319 C 0.25233 0.42676 0.25821 0.0
C6320 C 0.23812 0.43105 0.26808 0.0
C6321 C 0.2572 0.43548 0.24253 0.0
C6322 C 0.27246 0.43201 0.23206 0.0
C6323 C 0.27312 0.41329 0.2232 0.0
C6324 C 0.28724 0.41021 0.21268 0.0
C6325 C 0.30077 0.42574 0.21098 0.0
C6326 C 0.30021 0.44441 0.21981 0.0
C6327 C 0.2861 0.44758 0.23029 0.0
H6328 H 0.31166 0.42332 0.20278 0.0
H6329 H 0.18115 0.46619 0.3086 0.0
H6330 H 0.27716 0.4463 0.04755 0.0
H6331 H 0.25112 0.46019 0.04554 0.0
H6332 H 0.2187 0.40358 0.02389 0.0
H6333 H 0.24481 0.3897 0.02534 0.0
H6334 H 0.21037 0.42695 0.0034 0.0
H6335 H 0.21638 0.42904 0.07032 0.0
H6336 H 0.23092 0.43597 0.10306 0.0
H6337 H 0.24306 0.49649 0.10158 0.0
H6338 H 0.22874 0.48989 0.06875 0.0
H6339 H 0.13291 0.46699 0.00627 0.0
H6340 H 0.15388 0.44734 0.01392 0.0
H6341 H 0.19463 0.49904 0.03129 0.0
H6342 H 0.1738 0.51849 0.02377 0.0
H6343 H 0.19572 0.47457 0.05528 0.0
H6344 H 0.19073 0.47078 0.98651 0.0
H6345 H 0.17508 0.46261 0.95422 0.0
H6346 H 0.15951 0.40338 0.96007 0.0
H6347 H 0.17488 0.41125 0.9925 0.0
C6348 C 0.26446 0.43678 0.04258 0.0
C6349 C 0.26308 0.41689 0.03666 0.0
C6350 C 0.24952 0.44472 0.04153 0.0
C6351 C 0.23283 0.43293 0.03477 0.0
C6352 C 0.23139 0.41301 0.02917 0.0
C6353 C 0.24634 0.40507 0.0301 0.0
C6354 C 0.2171 0.44152 0.03263 0.0
C6355 C 0.20697 0.43707 0.0149 0.0
C6356 C 0.21268 0.4549 0.04748 0.0
C6357 C 0.22164 0.45894 0.06704 0.0
C6358 C 0.2223 0.4438 0.07692 0.0
C6359 C 0.23046 0.44768 0.09551 0.0
C6360 C 0.23794 0.46666 0.10438 0.0
C6361 C 0.23727 0.4818 0.09468 0.0
C6362 C 0.22912 0.478 0.0761 0.0
C6363 C 0.14627 0.47407 0.01209 0.0
C6364 C 0.15185 0.49418 0.01443 0.0
C6365 C 0.15825 0.46288 0.01627 0.0
C6366 C 0.1759 0.47172 0.02291 0.0
C6367 C 0.18113 0.49189 0.02613 0.0
C6368 C 0.16925 0.503 0.02185 0.0
C6369 C 0.18929 0.46026 0.02603 0.0
C6370 C 0.199 0.46421 0.04391 0.0
C6371 C 0.19317 0.44629 0.01139 0.0
C6372 C 0.18374 0.44165 0.99201 0.0
C6373 C 0.18381 0.45605 0.98098 0.0
C6374 C 0.17503 0.45147 0.96264 0.0
C6375 C 0.16626 0.4325 0.95512 0.0
C6376 C 0.16627 0.41807 0.96592 0.0
C6377 C 0.17501 0.42259 0.98428 0.0
H6378 H 0.15949 0.42898 0.94091 0.0
H6379 H 0.24423 0.46963 0.11878 0.0
H6380 H 0.89297 0.01742 0.29463 0.0
H6381 H 0.87465 0.9848 0.29315 0.0
H6382 H 0.90403 0.96226 0.24869 0.0
H6383 H 0.92241 0.99457 0.25044 0.0
H6384 H 0.87124 0.94307 0.23995 0.0
H6385 H 0.90993 0.95375 0.29542 0.0
H6386 H 0.92588 0.96973 0.32646 0.0
H6387 H 0.87679 0.96739 0.35169 0.0
H6388 H 0.86046 0.95106 0.32066 0.0
H6389 H 0.84845 0.84203 0.25091 0.0
H6390 H 0.86424 0.87538 0.25112 0.0
H6391 H 0.82609 0.89665 0.28532 0.0
H6392 H 0.80983 0.86332 0.28439 0.0
H6393 H 0.86267 0.91638 0.29909 0.0
H6394 H 0.82503 0.90091 0.24055 0.0
H6395 H 0.8125 0.88235 0.20883 0.0
H6396 H 0.864 0.89209 0.18854 0.0
H6397 H 0.8769 0.9104 0.22028 0.0
C6398 C 0.89531 1.00564 0.28422 0.0
C6399 C 0.90919 0.00915 0.27239 0.0
C6400 C 0.88488 0.98668 0.28353 0.0
C6401 C 0.88768 0.97035 0.27084 0.0
C6402 C 0.90117 0.97409 0.25864 0.0
C6403 C 0.91178 0.99286 0.25961 0.0
C6404 C 0.87703 0.94954 0.27044 0.0
C6405 C 0.86957 0.93736 0.25298 0.0
C6406 C 0.87446 0.94129 0.28714 0.0
C6407 C 0.88398 0.95149 0.30569 0.0
C6408 C 0.90251 0.95683 0.30754 0.0
C6409 C 0.91163 0.96591 0.32515 0.0
C6410 C 0.90238 0.96982 0.34104 0.0
C6411 C 0.88394 0.96446 0.33935 0.0
C6412 C 0.87474 0.95521 0.32176 0.0
C6413 C 0.84323 0.85375 0.25833 0.0
C6414 C 0.82751 0.84954 0.2674 0.0
C6415 C 0.85239 0.87304 0.25849 0.0
C6416 C 0.84664 0.88913 0.26825 0.0
C6417 C 0.83109 0.88492 0.2776 0.0
C6418 C 0.82162 0.86563 0.27693 0.0
C6419 C 0.85669 0.91009 0.26865 0.0
C6420 C 0.86416 0.92221 0.2861 0.0
C6421 C 0.85963 0.91809 0.25187 0.0
C6422 C 0.85197 0.90684 0.23287 0.0
C6423 C 0.83373 0.8989 0.2294 0.0
C6424 C 0.82655 0.88846 0.2114 0.0
C6425 C 0.83745 0.886 0.19669 0.0
C6426 C 0.85557 0.89397 0.19996 0.0
C6427 C 0.86282 0.90438 0.21796 0.0
H6428 H 0.83186 0.87797 0.18274 0.0
H6429 H 0.9095 0.97689 0.35467 0.0
H6430 H 0.69886 0.11824 0.78321 0.0
H6431 H 0.71956 0.14702 0.77829 0.0
H6432 H 0.74337 0.11224 0.73643 0.0
H6433 H 0.72319 0.08337 0.74156 0.0
H6434 H 0.76728 0.1406 0.76174 0.0
H6435 H 0.71413 0.13551 0.72003 0.0
H6436 H 0.68172 0.13035 0.71443 0.0
H6437 H 0.68217 0.17973 0.75766 0.0
H6438 H 0.71451 0.18512 0.76358 0.0
H6439 H 0.8115 0.23889 0.77128 0.0
H6440 H 0.79898 0.20572 0.75516 0.0
H6441 H 0.74812 0.21171 0.77452 0.0
H6442 H 0.75998 0.24574 0.78622 0.0
H6443 H 0.74125 0.19285 0.74315 0.0
H6444 H 0.78634 0.18853 0.79556 0.0
H6445 H 0.81743 0.19413 0.80855 0.0
H6446 H 0.83028 0.16454 0.75554 0.0
H6447 H 0.79928 0.15906 0.74218 0.0
C6448 C 0.70865 0.11673 0.77317 0.0
C6449 C 0.70933 0.09872 0.76264 0.0
C6450 C 0.72032 0.13308 0.77027 0.0
C6451 C 0.73243 0.13152 0.75657 0.0
C6452 C 0.73384 0.11352 0.74683 0.0
C6453 C 0.72237 0.09713 0.74989 0.0
C6454 C 0.74358 0.14887 0.75248 0.0
C6455 C 0.76171 0.15204 0.75745 0.0
C6456 C 0.73613 0.1634 0.74655 0.0
C6457 C 0.71678 0.16081 0.74209 0.0
C6458 C 0.70732 0.14533 0.72824 0.0
C6459 C 0.68895 0.14234 0.72506 0.0
C6460 C 0.6799 0.15473 0.73565 0.0
C6461 C 0.6892 0.1702 0.74939 0.0
C6462 C 0.70755 0.17328 0.7526 0.0
C6463 C 0.79752 0.23304 0.77112 0.0
C6464 C 0.78629 0.24466 0.77847 0.0
C6465 C 0.79044 0.214 0.76254 0.0
C6466 C 0.77249 0.20605 0.76338 0.0
C6467 C 0.76182 0.21755 0.77281 0.0
C6468 C 0.7686 0.23685 0.77988 0.0
C6469 C 0.76447 0.18568 0.7556 0.0
C6470 C 0.747 0.18144 0.74721 0.0
C6471 C 0.77224 0.17051 0.75966 0.0
C6472 C 0.79064 0.17352 0.76788 0.0
C6473 C 0.79584 0.18322 0.78673 0.0
C6474 C 0.81344 0.18642 0.79412 0.0
C6475 C 0.82584 0.17967 0.78289 0.0
C6476 C 0.82067 0.16977 0.76421 0.0
C6477 C 0.80311 0.16663 0.75672 0.0
H6478 H 0.83945 0.18204 0.78864 0.0
H6479 H 0.66568 0.15233 0.73322 0.0
loop_
_geom_bond_atom_site_label_1
_geom_bond_atom_site_label_2
_geom_bond_distance
_geom_bond_site_symmetry_2
_ccdc_geom_bond_type
Co0 O1 2.216 . S
Co0 O2 2.091 . S
Co0 O4 2.004 . S
Co0 O10 2.021 . S
Co0 O12 2.137 . S
Co0 O13 2.244 . S
O1 Co0 2.216 . S
O1 C8 1.247 . S
O2 Co0 2.091 . S
O2 C8 1.261 . S
C3 O12 1.247 . S
C3 O13 1.272 . S
O4 Co0 2.004 . S
O4 C9 1.259 . S
Co5 O6 2.061 . S
Co5 O11 2.052 . S
Co5 O13 2.135 . S
O6 Co5 2.061 . S
O6 C9 1.235 . S
C7 O10 1.238 . S
C7 O11 1.241 . S
C8 O1 1.247 . S
C8 O2 1.261 . S
C9 O4 1.259 . S
C9 O6 1.235 . S
O10 Co0 2.021 . S
O10 C7 1.238 . S
O11 Co5 2.052 . S
O11 C7 1.241 . S
O12 Co0 2.137 . S
O12 C3 1.247 . S
O13 Co0 2.244 . S
O13 C3 1.272 . S
O13 Co5 2.135 . S
Co14 O15 2.216 . S
Co14 O16 2.091 . S
Co14 O18 2.004 1_655 S
Co14 O24 2.021 . S
Co14 O26 2.137 . S
Co14 O27 2.244 1_655 S
O15 Co14 2.216 . S
O15 C22 1.247 . S
O16 Co14 2.091 . S
O16 C22 1.261 . S
C17 O26 1.247 1_455 S
C17 O27 1.272 . S
O18 Co14 2.004 1_455 S
O18 C23 1.259 . S
Co19 O20 2.061 . S
Co19 O25 2.052 . S
Co19 O27 2.135 . S
O20 Co19 2.061 . S
O20 C23 1.235 . S
C21 O24 1.238 . S
C21 O25 1.241 1_655 S
C22 O15 1.247 . S
C22 O16 1.261 . S
C23 O18 1.259 . S
C23 O20 1.235 . S
O24 Co14 2.021 . S
O24 C21 1.238 . S
O25 Co19 2.052 . S
O25 C21 1.241 1_455 S
O26 Co14 2.137 . S
O26 C17 1.247 1_655 S
O27 Co14 2.244 1_455 S
O27 C17 1.272 . S
O27 Co19 2.135 . S
Co28 O29 2.216 . S
Co28 O30 2.091 . S
Co28 O32 2.004 . S
Co28 O38 2.021 . S
Co28 O40 2.137 . S
Co28 O41 2.244 . S
O29 Co28 2.216 . S
O29 C36 1.247 . S
O30 Co28 2.091 . S
O30 C36 1.261 . S
C31 O40 1.247 . S
C31 O41 1.272 . S
O32 Co28 2.004 . S
O32 C37 1.259 . S
Co33 O34 2.061 . S
Co33 O39 2.052 . S
Co33 O41 2.135 . S
O34 Co33 2.061 . S
O34 C37 1.235 . S
C35 O38 1.238 . S
C35 O39 1.241 . S
C36 O29 1.247 . S
C36 O30 1.261 . S
C37 O32 1.259 . S
C37 O34 1.235 . S
O38 Co28 2.021 . S
O38 C35 1.238 . S
O39 Co33 2.052 . S
O39 C35 1.241 . S
O40 Co28 2.137 . S
O40 C31 1.247 . S
O41 Co28 2.244 . S
O41 C31 1.272 . S
O41 Co33 2.135 . S
Co42 O43 2.216 . S
Co42 O44 2.091 . S
Co42 O46 2.004 . S
Co42 O52 2.021 . S
Co42 O54 2.137 . S
Co42 O55 2.244 . S
O43 Co42 2.216 . S
O43 C50 1.247 . S
O44 Co42 2.091 . S
O44 C50 1.261 . S
C45 O54 1.247 . S
C45 O55 1.272 . S
O46 Co42 2.004 . S
O46 C51 1.259 . S
Co47 O48 2.061 . S
Co47 O53 2.052 . S
Co47 O55 2.135 . S
O48 Co47 2.061 . S
O48 C51 1.235 . S
C49 O52 1.238 . S
C49 O53 1.241 . S
C50 O43 1.247 . S
C50 O44 1.261 . S
C51 O46 1.259 . S
C51 O48 1.235 . S
O52 Co42 2.021 . S
O52 C49 1.238 . S
O53 Co47 2.052 . S
O53 C49 1.241 . S
O54 Co42 2.137 . S
O54 C45 1.247 . S
O55 Co42 2.244 . S
O55 C45 1.272 . S
O55 Co47 2.135 . S
Co56 O57 2.216 . S
Co56 O58 2.091 . S
Co56 O60 2.004 . S
Co56 O66 2.021 . S
Co56 O68 2.137 . S
Co56 O69 2.244 . S
O57 Co56 2.216 . S
O57 C64 1.247 . S
O58 Co56 2.091 . S
O58 C64 1.261 . S
C59 O68 1.247 . S
C59 O69 1.272 . S
O60 Co56 2.004 . S
O60 C65 1.259 . S
Co61 O62 2.061 . S
Co61 O67 2.052 . S
Co61 O69 2.135 . S
O62 Co61 2.061 . S
O62 C65 1.235 . S
C63 O66 1.238 . S
C63 O67 1.241 . S
C64 O57 1.247 . S
C64 O58 1.261 . S
C65 O60 1.259 . S
C65 O62 1.235 . S
O66 Co56 2.021 . S
O66 C63 1.238 . S
O67 Co61 2.052 . S
O67 C63 1.241 . S
O68 Co56 2.137 . S
O68 C59 1.247 . S
O69 Co56 2.244 . S
O69 C59 1.272 . S
O69 Co61 2.135 . S
Co70 O71 2.216 . S
Co70 O72 2.091 . S
Co70 O74 2.004 . S
Co70 O80 2.021 . S
Co70 O82 2.137 . S
Co70 O83 2.244 . S
O71 Co70 2.216 . S
O71 C78 1.247 . S
O72 Co70 2.091 . S
O72 C78 1.261 . S
C73 O82 1.247 . S
C73 O83 1.272 . S
O74 Co70 2.004 . S
O74 C79 1.259 . S
Co75 O76 2.061 . S
Co75 O81 2.052 . S
Co75 O83 2.135 . S
O76 Co75 2.061 . S
O76 C79 1.235 . S
C77 O80 1.238 . S
C77 O81 1.241 . S
C78 O71 1.247 . S
C78 O72 1.261 . S
C79 O74 1.259 . S
C79 O76 1.235 . S
O80 Co70 2.021 . S
O80 C77 1.238 . S
O81 Co75 2.052 . S
O81 C77 1.241 . S
O82 Co70 2.137 . S
O82 C73 1.247 . S
O83 Co70 2.244 . S
O83 C73 1.272 . S
O83 Co75 2.135 . S
Co84 O85 2.216 . S
Co84 O86 2.091 . S
Co84 O88 2.004 . S
Co84 O94 2.021 . S
Co84 O96 2.137 . S
Co84 O97 2.244 . S
O85 Co84 2.216 . S
O85 C92 1.247 . S
O86 Co84 2.091 . S
O86 C92 1.261 . S
C87 O96 1.247 . S
C87 O97 1.272 . S
O88 Co84 2.004 . S
O88 C93 1.259 . S
Co89 O90 2.061 . S
Co89 O95 2.052 . S
Co89 O97 2.135 . S
O90 Co89 2.061 . S
O90 C93 1.235 . S
C91 O94 1.238 . S
C91 O95 1.241 . S
C92 O85 1.247 . S
C92 O86 1.261 . S
C93 O88 1.259 . S
C93 O90 1.235 . S
O94 Co84 2.021 . S
O94 C91 1.238 . S
O95 Co89 2.052 . S
O95 C91 1.241 . S
O96 Co84 2.137 . S
O96 C87 1.247 . S
O97 Co84 2.244 . S
O97 C87 1.272 . S
O97 Co89 2.135 . S
Co98 O99 2.216 . S
Co98 O100 2.091 . S
Co98 O102 2.004 1_455 S
Co98 O108 2.021 . S
Co98 O110 2.137 . S
Co98 O111 2.244 . S
O99 Co98 2.216 . S
O99 C106 1.247 . S
O100 Co98 2.091 . S
O100 C106 1.261 . S
C101 O110 1.247 . S
C101 O111 1.272 . S
O102 Co98 2.004 1_655 S
O102 C107 1.259 . S
Co103 O104 2.061 . S
Co103 O109 2.052 1_655 S
Co103 O111 2.135 1_655 S
O104 Co103 2.061 . S
O104 C107 1.235 . S
C105 O108 1.238 . S
C105 O109 1.241 . S
C106 O99 1.247 . S
C106 O100 1.261 . S
C107 O102 1.259 . S
C107 O104 1.235 . S
O108 Co98 2.021 . S
O108 C105 1.238 . S
O109 Co103 2.052 1_455 S
O109 C105 1.241 . S
O110 Co98 2.137 . S
O110 C101 1.247 . S
O111 Co98 2.244 . S
O111 C101 1.272 . S
O111 Co103 2.135 1_455 S
Co112 O113 2.216 . S
Co112 O114 2.091 . S
Co112 O116 2.004 . S
Co112 O122 2.021 . S
Co112 O124 2.137 . S
Co112 O125 2.244 . S
O113 Co112 2.216 . S
O113 C120 1.247 . S
O114 Co112 2.091 . S
O114 C120 1.261 . S
C115 O124 1.247 . S
C115 O125 1.272 . S
O116 Co112 2.004 . S
O116 C121 1.259 1_545 S
Co117 O118 2.061 1_545 S
Co117 O123 2.052 . S
Co117 O125 2.135 . S
O118 Co117 2.061 1_565 S
O118 C121 1.235 . S
C119 O122 1.238 . S
C119 O123 1.241 . S
C120 O113 1.247 . S
C120 O114 1.261 . S
C121 O116 1.259 1_565 S
C121 O118 1.235 . S
O122 Co112 2.021 . S
O122 C119 1.238 . S
O123 Co117 2.052 . S
O123 C119 1.241 . S
O124 Co112 2.137 . S
O124 C115 1.247 . S
O125 Co112 2.244 . S
O125 C115 1.272 . S
O125 Co117 2.135 . S
Co126 O127 2.216 . S
Co126 O128 2.091 . S
Co126 O130 2.004 . S
Co126 O136 2.021 . S
Co126 O138 2.137 . S
Co126 O139 2.244 . S
O127 Co126 2.216 . S
O127 C134 1.247 . S
O128 Co126 2.091 . S
O128 C134 1.261 . S
C129 O138 1.247 . S
C129 O139 1.272 . S
O130 Co126 2.004 . S
O130 C135 1.259 . S
Co131 O132 2.061 . S
Co131 O137 2.052 . S
Co131 O139 2.135 . S
O132 Co131 2.061 . S
O132 C135 1.235 . S
C133 O136 1.238 . S
C133 O137 1.241 . S
C134 O127 1.247 . S
C134 O128 1.261 . S
C135 O130 1.259 . S
C135 O132 1.235 . S
O136 Co126 2.021 . S
O136 C133 1.238 . S
O137 Co131 2.052 . S
O137 C133 1.241 . S
O138 Co126 2.137 . S
O138 C129 1.247 . S
O139 Co126 2.244 . S
O139 C129 1.272 . S
O139 Co131 2.135 . S
Co140 O141 2.216 . S
Co140 O142 2.091 . S
Co140 O144 2.004 1_565 S
Co140 O150 2.021 . S
Co140 O152 2.137 . S
Co140 O153 2.244 1_565 S
O141 Co140 2.216 . S
O141 C148 1.247 . S
O142 Co140 2.091 . S
O142 C148 1.261 . S
C143 O152 1.247 1_545 S
C143 O153 1.272 . S
O144 Co140 2.004 1_545 S
O144 C149 1.259 . S
Co145 O146 2.061 . S
Co145 O151 2.052 . S
Co145 O153 2.135 . S
O146 Co145 2.061 . S
O146 C149 1.235 . S
C147 O150 1.238 . S
C147 O151 1.241 1_565 S
C148 O141 1.247 . S
C148 O142 1.261 . S
C149 O144 1.259 . S
C149 O146 1.235 . S
O150 Co140 2.021 . S
O150 C147 1.238 . S
O151 Co145 2.052 . S
O151 C147 1.241 1_545 S
O152 Co140 2.137 . S
O152 C143 1.247 1_565 S
O153 Co140 2.244 1_545 S
O153 C143 1.272 . S
O153 Co145 2.135 . S
Co154 O155 2.216 . S
Co154 O156 2.091 . S
Co154 O158 2.004 . S
Co154 O164 2.021 . S
Co154 O166 2.137 1_554 S
Co154 O167 2.244 1_554 S
O155 Co154 2.216 . S
O155 C162 1.247 . S
O156 Co154 2.091 . S
O156 C162 1.261 . S
C157 O166 1.247 . S
C157 O167 1.272 . S
O158 Co154 2.004 . S
O158 C163 1.259 . S
Co159 O160 2.061 . S
Co159 O165 2.052 . S
Co159 O167 2.135 1_554 S
O160 Co159 2.061 . S
O160 C163 1.235 . S
C161 O164 1.238 . S
C161 O165 1.241 . S
C162 O155 1.247 . S
C162 O156 1.261 . S
C163 O158 1.259 . S
C163 O160 1.235 . S
O164 Co154 2.021 . S
O164 C161 1.238 . S
O165 Co159 2.052 . S
O165 C161 1.241 . S
O166 Co154 2.137 1_556 S
O166 C157 1.247 . S
O167 Co154 2.244 1_556 S
O167 C157 1.272 . S
O167 Co159 2.135 1_556 S
Co168 O169 2.216 . S
Co168 O170 2.091 . S
Co168 O172 2.004 . S
Co168 O178 2.021 . S
Co168 O180 2.137 . S
Co168 O181 2.244 . S
O169 Co168 2.216 . S
O169 C176 1.247 . S
O170 Co168 2.091 . S
O170 C176 1.261 . S
C171 O180 1.247 . S
C171 O181 1.272 . S
O172 Co168 2.004 . S
O172 C177 1.259 . S
Co173 O174 2.061 . S
Co173 O179 2.052 . S
Co173 O181 2.135 . S
O174 Co173 2.061 . S
O174 C177 1.235 . S
C175 O178 1.238 . S
C175 O179 1.241 . S
C176 O169 1.247 . S
C176 O170 1.261 . S
C177 O172 1.259 . S
C177 O174 1.235 . S
O178 Co168 2.021 . S
O178 C175 1.238 . S
O179 Co173 2.052 . S
O179 C175 1.241 . S
O180 Co168 2.137 . S
O180 C171 1.247 . S
O181 Co168 2.244 . S
O181 C171 1.272 . S
O181 Co173 2.135 . S
Co182 O183 2.216 . S
Co182 O184 2.091 . S
Co182 O186 2.004 . S
Co182 O192 2.021 . S
Co182 O194 2.137 1_554 S
Co182 O195 2.244 . S
O183 Co182 2.216 . S
O183 C190 1.247 . S
O184 Co182 2.091 . S
O184 C190 1.261 . S
C185 O194 1.247 . S
C185 O195 1.272 1_556 S
O186 Co182 2.004 . S
O186 C191 1.259 . S
Co187 O188 2.061 . S
Co187 O193 2.052 . S
Co187 O195 2.135 . S
O188 Co187 2.061 . S
O188 C191 1.235 . S
C189 O192 1.238 . S
C189 O193 1.241 . S
C190 O183 1.247 . S
C190 O184 1.261 . S
C191 O186 1.259 . S
C191 O188 1.235 . S
O192 Co182 2.021 . S
O192 C189 1.238 . S
O193 Co187 2.052 . S
O193 C189 1.241 . S
O194 Co182 2.137 1_556 S
O194 C185 1.247 . S
O195 Co182 2.244 . S
O195 C185 1.272 1_554 S
O195 Co187 2.135 . S
Co196 O197 2.216 . S
Co196 O198 2.091 . S
Co196 O200 2.004 . S
Co196 O206 2.021 . S
Co196 O208 2.137 . S
Co196 O209 2.244 . S
O197 Co196 2.216 . S
O197 C204 1.247 . S
O198 Co196 2.091 . S
O198 C204 1.261 . S
C199 O208 1.247 . S
C199 O209 1.272 . S
O200 Co196 2.004 . S
O200 C205 1.259 . S
Co201 O202 2.061 . S
Co201 O207 2.052 . S
Co201 O209 2.135 . S
O202 Co201 2.061 . S
O202 C205 1.235 . S
C203 O206 1.238 . S
C203 O207 1.241 . S
C204 O197 1.247 . S
C204 O198 1.261 . S
C205 O200 1.259 . S
C205 O202 1.235 . S
O206 Co196 2.021 . S
O206 C203 1.238 . S
O207 Co201 2.052 . S
O207 C203 1.241 . S
O208 Co196 2.137 . S
O208 C199 1.247 . S
O209 Co196 2.244 . S
O209 C199 1.272 . S
O209 Co201 2.135 . S
Co210 O211 2.216 . S
Co210 O212 2.091 . S
Co210 O214 2.004 . S
Co210 O220 2.021 . S
Co210 O222 2.137 . S
Co210 O223 2.244 . S
O211 Co210 2.216 . S
O211 C218 1.247 . S
O212 Co210 2.091 . S
O212 C218 1.261 . S
C213 O222 1.247 . S
C213 O223 1.272 . S
O214 Co210 2.004 . S
O214 C219 1.259 . S
Co215 O216 2.061 . S
Co215 O221 2.052 . S
Co215 O223 2.135 . S
O216 Co215 2.061 . S
O216 C219 1.235 . S
C217 O220 1.238 . S
C217 O221 1.241 . S
C218 O211 1.247 . S
C218 O212 1.261 . S
C219 O214 1.259 . S
C219 O216 1.235 . S
O220 Co210 2.021 . S
O220 C217 1.238 . S
O221 Co215 2.052 . S
O221 C217 1.241 . S
O222 Co210 2.137 . S
O222 C213 1.247 . S
O223 Co210 2.244 . S
O223 C213 1.272 . S
O223 Co215 2.135 . S
Co224 O225 2.216 . S
Co224 O226 2.091 . S
Co224 O228 2.004 . S
Co224 O234 2.021 . S
Co224 O236 2.137 . S
Co224 O237 2.244 . S
O225 Co224 2.216 . S
O225 C232 1.247 . S
O226 Co224 2.091 . S
O226 C232 1.261 . S
C227 O236 1.247 . S
C227 O237 1.272 . S
O228 Co224 2.004 . S
O228 C233 1.259 . S
Co229 O230 2.061 . S
Co229 O235 2.052 . S
Co229 O237 2.135 . S
O230 Co229 2.061 . S
O230 C233 1.235 . S
C231 O234 1.238 . S
C231 O235 1.241 . S
C232 O225 1.247 . S
C232 O226 1.261 . S
C233 O228 1.259 . S
C233 O230 1.235 . S
O234 Co224 2.021 . S
O234 C231 1.238 . S
O235 Co229 2.052 . S
O235 C231 1.241 . S
O236 Co224 2.137 . S
O236 C227 1.247 . S
O237 Co224 2.244 . S
O237 C227 1.272 . S
O237 Co229 2.135 . S
Co238 O239 2.216 . S
Co238 O240 2.091 . S
Co238 O242 2.004 . S
Co238 O248 2.021 . S
Co238 O250 2.137 . S
Co238 O251 2.244 . S
O239 Co238 2.216 . S
O239 C246 1.247 . S
O240 Co238 2.091 . S
O240 C246 1.261 . S
C241 O250 1.247 . S
C241 O251 1.272 . S
O242 Co238 2.004 . S
O242 C247 1.259 . S
Co243 O244 2.061 . S
Co243 O249 2.052 . S
Co243 O251 2.135 . S
O244 Co243 2.061 . S
O244 C247 1.235 . S
C245 O248 1.238 . S
C245 O249 1.241 . S
C246 O239 1.247 . S
C246 O240 1.261 . S
C247 O242 1.259 . S
C247 O244 1.235 . S
O248 Co238 2.021 . S
O248 C245 1.238 . S
O249 Co243 2.052 . S
O249 C245 1.241 . S
O250 Co238 2.137 . S
O250 C241 1.247 . S
O251 Co238 2.244 . S
O251 C241 1.272 . S
O251 Co243 2.135 . S
Co252 O253 2.216 . S
Co252 O254 2.091 . S
Co252 O256 2.004 . S
Co252 O262 2.021 . S
Co252 O264 2.137 . S
Co252 O265 2.244 . S
O253 Co252 2.216 . S
O253 C260 1.247 . S
O254 Co252 2.091 . S
O254 C260 1.261 . S
C255 O264 1.247 . S
C255 O265 1.272 . S
O256 Co252 2.004 . S
O256 C261 1.259 . S
Co257 O258 2.061 . S
Co257 O263 2.052 . S
Co257 O265 2.135 . S
O258 Co257 2.061 . S
O258 C261 1.235 . S
C259 O262 1.238 . S
C259 O263 1.241 . S
C260 O253 1.247 . S
C260 O254 1.261 . S
C261 O256 1.259 . S
C261 O258 1.235 . S
O262 Co252 2.021 . S
O262 C259 1.238 . S
O263 Co257 2.052 . S
O263 C259 1.241 . S
O264 Co252 2.137 . S
O264 C255 1.247 . S
O265 Co252 2.244 . S
O265 C255 1.272 . S
O265 Co257 2.135 . S
Co266 O267 2.216 . S
Co266 O268 2.091 . S
Co266 O270 2.004 . S
Co266 O276 2.021 . S
Co266 O278 2.137 . S
Co266 O279 2.244 . S
O267 Co266 2.216 . S
O267 C274 1.247 . S
O268 Co266 2.091 . S
O268 C274 1.261 . S
C269 O278 1.247 . S
C269 O279 1.272 . S
O270 Co266 2.004 . S
O270 C275 1.259 . S
Co271 O272 2.061 . S
Co271 O277 2.052 . S
Co271 O279 2.135 . S
O272 Co271 2.061 . S
O272 C275 1.235 . S
C273 O276 1.238 . S
C273 O277 1.241 . S
C274 O267 1.247 . S
C274 O268 1.261 . S
C275 O270 1.259 . S
C275 O272 1.235 . S
O276 Co266 2.021 . S
O276 C273 1.238 . S
O277 Co271 2.052 . S
O277 C273 1.241 . S
O278 Co266 2.137 . S
O278 C269 1.247 . S
O279 Co266 2.244 . S
O279 C269 1.272 . S
O279 Co271 2.135 . S
Co280 O281 2.216 . S
Co280 O282 2.091 . S
Co280 O284 2.004 . S
Co280 O290 2.021 1_556 S
Co280 O292 2.137 . S
Co280 O293 2.244 . S
O281 Co280 2.216 . S
O281 C288 1.253 . S
O282 Co280 2.091 . S
O282 C288 1.258 . S
C283 O292 1.247 . S
C283 O293 1.272 . S
O284 Co280 2.004 . S
O284 C289 1.259 . S
Co285 O286 2.060 . S
Co285 O291 2.052 . S
Co285 O293 2.135 1_554 S
O286 Co285 2.060 . S
O286 C289 1.234 1_554 S
C287 O290 1.238 . S
C287 O291 1.241 . S
C288 O281 1.253 . S
C288 O282 1.258 . S
C289 O284 1.259 . S
C289 O286 1.234 1_556 S
O290 Co280 2.021 1_554 S
O290 C287 1.238 . S
O291 Co285 2.052 . S
O291 C287 1.241 . S
O292 Co280 2.137 . S
O292 C283 1.247 . S
O293 Co280 2.244 . S
O293 C283 1.272 . S
O293 Co285 2.135 1_556 S
Co294 O295 2.216 . S
Co294 O296 2.091 . S
Co294 O298 2.004 . S
Co294 O304 2.021 . S
Co294 O306 2.137 . S
Co294 O307 2.244 . S
O295 Co294 2.216 . S
O295 C302 1.247 . S
O296 Co294 2.091 . S
O296 C302 1.261 . S
C297 O306 1.247 . S
C297 O307 1.272 . S
O298 Co294 2.004 . S
O298 C303 1.259 . S
Co299 O300 2.061 . S
Co299 O305 2.052 . S
Co299 O307 2.135 . S
O300 Co299 2.061 . S
O300 C303 1.235 . S
C301 O304 1.238 . S
C301 O305 1.241 . S
C302 O295 1.247 . S
C302 O296 1.261 . S
C303 O298 1.259 . S
C303 O300 1.235 . S
O304 Co294 2.021 . S
O304 C301 1.238 . S
O305 Co299 2.052 . S
O305 C301 1.241 . S
O306 Co294 2.137 . S
O306 C297 1.247 . S
O307 Co294 2.244 . S
O307 C297 1.272 . S
O307 Co299 2.135 . S
Co308 O309 2.216 . S
Co308 O310 2.091 . S
Co308 O312 2.004 . S
Co308 O318 2.021 . S
Co308 O320 2.137 . S
Co308 O321 2.244 . S
O309 Co308 2.216 . S
O309 C316 1.247 . S
O310 Co308 2.091 . S
O310 C316 1.261 . S
C311 O320 1.247 . S
C311 O321 1.272 . S
O312 Co308 2.004 . S
O312 C317 1.259 . S
Co313 O314 2.061 . S
Co313 O319 2.052 . S
Co313 O321 2.135 . S
O314 Co313 2.061 . S
O314 C317 1.235 . S
C315 O318 1.238 . S
C315 O319 1.241 . S
C316 O309 1.247 . S
C316 O310 1.261 . S
C317 O312 1.259 . S
C317 O314 1.235 . S
O318 Co308 2.021 . S
O318 C315 1.238 . S
O319 Co313 2.052 . S
O319 C315 1.241 . S
O320 Co308 2.137 . S
O320 C311 1.247 . S
O321 Co308 2.244 . S
O321 C311 1.272 . S
O321 Co313 2.135 . S
Co322 O323 2.216 . S
Co322 O324 2.091 . S
Co322 O326 2.004 . S
Co322 O332 2.021 . S
Co322 O334 2.137 . S
Co322 O335 2.244 . S
O323 Co322 2.216 . S
O323 C330 1.247 . S
O324 Co322 2.091 . S
O324 C330 1.261 . S
C325 O334 1.247 . S
C325 O335 1.272 . S
O326 Co322 2.004 . S
O326 C331 1.259 . S
Co327 O328 2.061 . S
Co327 O333 2.052 . S
Co327 O335 2.135 . S
O328 Co327 2.061 . S
O328 C331 1.235 . S
C329 O332 1.238 . S
C329 O333 1.241 . S
C330 O323 1.247 . S
C330 O324 1.261 . S
C331 O326 1.259 . S
C331 O328 1.235 . S
O332 Co322 2.021 . S
O332 C329 1.238 . S
O333 Co327 2.052 . S
O333 C329 1.241 . S
O334 Co322 2.137 . S
O334 C325 1.247 . S
O335 Co322 2.244 . S
O335 C325 1.272 . S
O335 Co327 2.135 . S
Gd336 N367 2.661 . S
Gd336 N373 2.601 . S
Gd336 O380 2.545 . S
Gd336 O381 2.606 . S
Gd336 O383 2.429 . S
Gd336 O384 2.545 . S
Gd336 O385 2.412 . S
Gd336 O387 2.362 . S
Gd336 O388 2.324 . S
Gd336 C395 2.828 . S
Gd337 N346 2.661 1_545 S
Gd337 N350 2.601 1_544 S
Gd337 O381 2.362 . S
Gd337 O382 2.324 . S
Gd337 O386 2.545 1_454 S
Gd337 O387 2.606 . S
Gd337 O389 2.429 1_554 S
Gd337 O390 2.545 . S
Gd337 O391 2.412 1_455 S
Gd337 C404 2.828 1_454 S
C338 C341 1.417 1_655 S
C338 C343 1.431 . S
C338 C344 1.412 . S
C339 C342 1.437 . S
C339 C343 1.317 1_556 S
C339 H358 0.929 . S
C340 C341 1.426 1_556 S
C340 C342 1.413 1_455 S
C340 N350 1.359 . S
C341 C338 1.417 1_455 S
C341 C340 1.426 1_554 S
C341 N346 1.350 . S
C342 C339 1.437 . S
C342 C340 1.413 1_655 S
C342 C352 1.391 . S
C343 C338 1.431 . S
C343 C339 1.317 1_554 S
C343 H354 0.930 . S
C344 C338 1.412 . S
C344 C345 1.355 1_655 S
C344 H356 0.930 . S
C345 C344 1.355 1_455 S
C345 C347 1.402 . S
C345 H357 0.930 . S
N346 Gd337 2.661 1_565 S
N346 C341 1.350 . S
N346 C347 1.307 . S
C347 C345 1.402 . S
C347 N346 1.307 . S
C347 H348 0.930 1_565 S
H348 C347 0.930 1_545 S
C349 N350 1.334 . S
C349 C351 1.394 . S
C349 H353 0.930 1_565 S
N350 Gd337 2.601 1_566 S
N350 C340 1.359 . S
N350 C349 1.334 . S
C351 C349 1.394 . S
C351 C352 1.359 1_455 S
C351 H363 0.932 . S
C352 C342 1.391 . S
C352 C351 1.359 1_655 S
C352 H364 0.929 . S
H353 C349 0.930 1_545 S
H354 C343 0.930 . S
H355 C372 0.929 1_556 S
H356 C344 0.930 . S
H357 C345 0.930 . S
H358 C339 0.929 . S
H359 C377 0.930 . S
H360 C368 0.930 1_556 S
H361 C369 0.930 . S
H362 C393 0.929 . S
H363 C351 0.932 . S
H364 C352 0.929 . S
H365 C394 0.930 . S
H366 C375 0.930 . S
N367 Gd336 2.661 . S
N367 C371 1.350 . S
N367 C372 1.309 . S
C368 H360 0.930 1_554 S
C368 C369 1.355 1_554 S
C368 C370 1.412 . S
C369 H361 0.930 . S
C369 C368 1.355 1_556 S
C369 C372 1.401 1_556 S
C370 C368 1.412 . S
C370 C371 1.417 . S
C370 C394 1.431 . S
C371 N367 1.350 . S
C371 C370 1.417 . S
C371 C374 1.426 . S
C372 H355 0.929 1_554 S
C372 N367 1.309 . S
C372 C369 1.401 1_554 S
N373 Gd336 2.601 . S
N373 C374 1.359 . S
N373 C377 1.334 . S
C374 C371 1.426 . S
C374 N373 1.359 . S
C374 C378 1.413 . S
C375 H366 0.930 . S
C375 C376 1.359 . S
C375 C377 1.394 . S
C376 C375 1.359 . S
C376 C378 1.391 . S
C376 H379 0.929 . S
C377 H359 0.930 . S
C377 N373 1.334 . S
C377 C375 1.394 . S
C378 C374 1.413 . S
C378 C376 1.391 . S
C378 C393 1.437 . S
H379 C376 0.929 . S
O380 Gd336 2.545 . S
O380 C395 1.258 . S
O381 Gd336 2.606 . S
O381 Gd337 2.362 . S
O381 C392 1.284 . S
O382 Gd337 2.324 . S
O382 C402 1.254 . S
O383 Gd336 2.429 . S
O383 C402 1.268 . S
O384 Gd336 2.545 . S
O384 C392 1.250 . S
O385 Gd336 2.412 . S
O385 C395 1.252 . S
O386 Gd337 2.545 1_656 S
O386 C404 1.258 . S
O387 Gd336 2.362 . S
O387 Gd337 2.606 . S
O387 C403 1.284 . S
O388 Gd336 2.324 . S
O388 C411 1.253 1_554 S
O389 Gd337 2.429 1_556 S
O389 C411 1.268 . S
O390 Gd337 2.545 . S
O390 C403 1.250 . S
O391 Gd337 2.412 1_655 S
O391 C404 1.252 1_554 S
C392 O381 1.284 . S
C392 O384 1.250 . S
C393 H362 0.929 . S
C393 C378 1.437 . S
C393 C394 1.317 . S
C394 H365 0.930 . S
C394 C370 1.431 . S
C394 C393 1.317 . S
C395 Gd336 2.828 . S
C395 O380 1.258 . S
C395 O385 1.252 . S
C395 C396 1.497 . S
C396 C395 1.497 . S
C396 C397 1.395 . S
C396 C398 1.380 . S
C397 C396 1.395 . S
C397 C400 1.398 . S
C397 H412 0.930 . S
C398 C396 1.380 . S
C398 C399 1.391 . S
C398 H413 0.930 . S
C399 C398 1.391 . S
C399 C401 1.387 . S
C400 C397 1.398 . S
C400 C401 1.380 . S
C400 H414 0.930 . S
C401 C399 1.387 . S
C401 C400 1.380 . S
C401 H415 0.930 . S
C402 O382 1.254 . S
C402 O383 1.268 . S
C403 O387 1.284 . S
C403 O390 1.250 . S
C404 Gd337 2.828 1_656 S
C404 O386 1.258 . S
C404 O391 1.252 1_556 S
C404 C405 1.497 . S
C405 C404 1.497 . S
C405 C406 1.395 . S
C405 C407 1.380 1_556 S
C406 C405 1.395 . S
C406 C409 1.398 . S
C406 H416 0.930 . S
C407 C405 1.380 1_554 S
C407 C408 1.391 . S
C407 H417 0.930 . S
C408 C407 1.391 . S
C408 C410 1.387 1_554 S
C409 C406 1.398 . S
C409 C410 1.380 . S
C409 H418 0.930 . S
C410 C408 1.387 1_556 S
C410 C409 1.380 . S
C410 H419 0.930 . S
C411 O388 1.253 1_556 S
C411 O389 1.268 . S
H412 C397 0.930 . S
H413 C398 0.930 . S
H414 C400 0.930 . S
H415 C401 0.930 . S
H416 C406 0.930 . S
H417 C407 0.930 . S
H418 C409 0.930 . S
H419 C410 0.930 . S
Gd420 N451 2.661 . S
Gd420 N457 2.601 . S
Gd420 O464 2.545 . S
Gd420 O465 2.606 . S
Gd420 O467 2.429 . S
Gd420 O468 2.545 . S
Gd420 O469 2.412 . S
Gd420 O471 2.362 . S
Gd420 O472 2.324 . S
Gd420 C479 2.828 . S
Gd421 N430 2.661 . S
Gd421 N434 2.601 . S
Gd421 O465 2.362 . S
Gd421 O466 2.324 . S
Gd421 O470 2.545 . S
Gd421 O471 2.606 . S
Gd421 O473 2.429 . S
Gd421 O474 2.545 . S
Gd421 O475 2.412 . S
Gd421 C488 2.828 . S
C422 C425 1.417 . S
C422 C427 1.431 . S
C422 C428 1.412 . S
C423 C426 1.437 . S
C423 C427 1.317 . S
C423 H442 0.929 . S
C424 C425 1.426 . S
C424 C426 1.413 . S
C424 N434 1.359 . S
C425 C422 1.417 . S
C425 C424 1.426 . S
C425 N430 1.350 . S
C426 C423 1.437 . S
C426 C424 1.413 . S
C426 C436 1.391 . S
C427 C422 1.431 . S
C427 C423 1.317 . S
C427 H438 0.930 . S
C428 C422 1.412 . S
C428 C429 1.355 . S
C428 H440 0.930 . S
C429 C428 1.355 . S
C429 C431 1.402 . S
C429 H441 0.930 . S
N430 Gd421 2.661 . S
N430 C425 1.350 . S
N430 C431 1.307 . S
C431 C429 1.402 . S
C431 N430 1.307 . S
C431 H432 0.930 . S
H432 C431 0.930 . S
C433 N434 1.334 . S
C433 C435 1.394 . S
C433 H437 0.930 . S
N434 Gd421 2.601 . S
N434 C424 1.359 . S
N434 C433 1.334 . S
C435 C433 1.394 . S
C435 C436 1.359 . S
C435 H447 0.930 . S
C436 C426 1.391 . S
C436 C435 1.359 . S
C436 H448 0.929 . S
H437 C433 0.930 . S
H438 C427 0.930 . S
H439 C456 0.930 . S
H440 C428 0.930 . S
H441 C429 0.930 . S
H442 C423 0.929 . S
H443 C461 0.930 . S
H444 C452 0.930 . S
H445 C453 0.930 . S
H446 C477 0.929 . S
H447 C435 0.930 . S
H448 C436 0.929 . S
H449 C478 0.930 . S
H450 C459 0.930 . S
N451 Gd420 2.661 . S
N451 C455 1.350 . S
N451 C456 1.307 . S
C452 H444 0.930 . S
C452 C453 1.355 . S
C452 C454 1.412 . S
C453 H445 0.930 . S
C453 C452 1.355 . S
C453 C456 1.402 . S
C454 C452 1.412 . S
C454 C455 1.417 . S
C454 C478 1.431 . S
C455 N451 1.350 . S
C455 C454 1.417 . S
C455 C458 1.426 . S
C456 H439 0.930 . S
C456 N451 1.307 . S
C456 C453 1.402 . S
N457 Gd420 2.601 . S
N457 C458 1.359 . S
N457 C461 1.334 . S
C458 C455 1.426 . S
C458 N457 1.359 . S
C458 C462 1.413 . S
C459 H450 0.930 . S
C459 C460 1.359 . S
C459 C461 1.394 . S
C460 C459 1.359 . S
C460 C462 1.391 . S
C460 H463 0.929 . S
C461 H443 0.930 . S
C461 N457 1.334 . S
C461 C459 1.394 . S
C462 C458 1.413 . S
C462 C460 1.391 . S
C462 C477 1.437 . S
H463 C460 0.929 . S
O464 Gd420 2.545 . S
O464 C479 1.258 . S
O465 Gd420 2.606 . S
O465 Gd421 2.362 . S
O465 C476 1.284 . S
O466 Gd421 2.324 . S
O466 C486 1.254 . S
O467 Gd420 2.429 . S
O467 C486 1.268 . S
O468 Gd420 2.545 . S
O468 C476 1.250 . S
O469 Gd420 2.412 . S
O469 C479 1.252 . S
O470 Gd421 2.545 . S
O470 C488 1.258 . S
O471 Gd420 2.362 . S
O471 Gd421 2.606 . S
O471 C487 1.284 . S
O472 Gd420 2.324 . S
O472 C495 1.254 . S
O473 Gd421 2.429 . S
O473 C495 1.268 . S
O474 Gd421 2.545 . S
O474 C487 1.250 . S
O475 Gd421 2.412 . S
O475 C488 1.252 . S
C476 O465 1.284 . S
C476 O468 1.250 . S
C477 H446 0.929 . S
C477 C462 1.437 . S
C477 C478 1.317 . S
C478 H449 0.930 . S
C478 C454 1.431 . S
C478 C477 1.317 . S
C479 Gd420 2.828 . S
C479 O464 1.258 . S
C479 O469 1.252 . S
C479 C480 1.497 . S
C480 C479 1.497 . S
C480 C481 1.395 . S
C480 C482 1.380 . S
C481 C480 1.395 . S
C481 C484 1.398 . S
C481 H496 0.930 . S
C482 C480 1.380 . S
C482 C483 1.391 . S
C482 H497 0.930 . S
C483 C482 1.391 . S
C483 C485 1.387 . S
C484 C481 1.398 . S
C484 C485 1.380 . S
C484 H498 0.930 . S
C485 C483 1.387 . S
C485 C484 1.380 . S
C485 H499 0.930 . S
C486 O466 1.254 . S
C486 O467 1.268 . S
C487 O471 1.284 . S
C487 O474 1.250 . S
C488 Gd421 2.828 . S
C488 O470 1.258 . S
C488 O475 1.252 . S
C488 C489 1.497 . S
C489 C488 1.497 . S
C489 C490 1.395 . S
C489 C491 1.380 . S
C490 C489 1.395 . S
C490 C493 1.398 . S
C490 H500 0.930 . S
C491 C489 1.380 . S
C491 C492 1.391 . S
C491 H501 0.930 . S
C492 C491 1.391 . S
C492 C494 1.387 . S
C493 C490 1.398 . S
C493 C494 1.380 . S
C493 H502 0.930 . S
C494 C492 1.387 . S
C494 C493 1.380 . S
C494 H503 0.930 . S
C495 O472 1.254 . S
C495 O473 1.268 . S
H496 C481 0.930 . S
H497 C482 0.930 . S
H498 C484 0.930 . S
H499 C485 0.930 . S
H500 C490 0.930 . S
H501 C491 0.930 . S
H502 C493 0.930 . S
H503 C494 0.930 . S
Gd504 N535 2.616 1_545 S
Gd504 N541 2.601 . S
Gd504 O548 2.545 . S
Gd504 O549 2.606 . S
Gd504 O551 2.429 . S
Gd504 O552 2.545 . S
Gd504 O553 2.412 . S
Gd504 O555 2.362 . S
Gd504 O556 2.324 . S
Gd504 C563 2.828 . S
Gd505 N514 2.661 . S
Gd505 N518 2.601 . S
Gd505 O549 2.362 . S
Gd505 O550 2.324 . S
Gd505 O554 2.545 . S
Gd505 O555 2.606 . S
Gd505 O557 2.429 . S
Gd505 O558 2.545 1_545 S
Gd505 O559 2.412 . S
Gd505 C572 2.828 . S
C506 C509 1.417 . S
C506 C511 1.431 . S
C506 C512 1.412 . S
C507 C510 1.437 . S
C507 C511 1.317 . S
C507 H526 0.929 . S
C508 C509 1.426 . S
C508 C510 1.413 . S
C508 N518 1.359 . S
C509 C506 1.417 . S
C509 C508 1.426 . S
C509 N514 1.350 . S
C510 C507 1.437 . S
C510 C508 1.413 . S
C510 C520 1.391 . S
C511 C506 1.431 . S
C511 C507 1.317 . S
C511 H522 0.930 . S
C512 C506 1.412 . S
C512 C513 1.355 . S
C512 H524 0.930 . S
C513 C512 1.355 . S
C513 C515 1.402 . S
C513 H525 0.930 . S
N514 Gd505 2.661 . S
N514 C509 1.350 . S
N514 C515 1.307 . S
C515 C513 1.402 . S
C515 N514 1.307 . S
C515 H516 0.930 . S
H516 C515 0.930 . S
C517 N518 1.334 . S
C517 C519 1.394 . S
C517 H521 0.930 . S
N518 Gd505 2.601 . S
N518 C508 1.359 . S
N518 C517 1.334 . S
C519 C517 1.394 . S
C519 C520 1.359 . S
C519 H531 0.930 . S
C520 C510 1.391 . S
C520 C519 1.359 . S
C520 H532 0.929 . S
H521 C517 0.930 . S
H522 C511 0.930 . S
H523 C540 0.892 1_545 S
H524 C512 0.930 . S
H525 C513 0.930 . S
H526 C507 0.929 . S
H527 C545 0.930 . S
H528 C536 0.930 . S
H529 C537 0.930 . S
H530 C561 0.929 . S
H531 C519 0.930 . S
H532 C520 0.929 . S
H533 C562 0.930 . S
H534 C543 0.930 . S
N535 Gd504 2.616 1_565 S
N535 C539 1.393 . S
N535 C540 1.316 . S
C536 H528 0.930 . S
C536 C537 1.355 . S
C536 C538 1.412 . S
C537 H529 0.930 . S
C537 C536 1.355 . S
C537 C540 1.402 . S
C538 C536 1.412 . S
C538 C539 1.417 . S
C538 C562 1.431 . S
C539 N535 1.393 . S
C539 C538 1.417 . S
C539 C542 1.426 . S
C540 H523 0.892 1_565 S
C540 N535 1.316 . S
C540 C537 1.402 . S
N541 Gd504 2.601 . S
N541 C542 1.359 1_545 S
N541 C545 1.334 . S
C542 C539 1.426 . S
C542 N541 1.359 1_565 S
C542 C546 1.413 . S
C543 H534 0.930 . S
C543 C544 1.359 1_545 S
C543 C545 1.394 . S
C544 C543 1.359 1_565 S
C544 C546 1.391 . S
C544 H547 0.929 . S
C545 H527 0.930 . S
C545 N541 1.334 . S
C545 C543 1.394 . S
C546 C542 1.413 . S
C546 C544 1.391 . S
C546 C561 1.437 . S
H547 C544 0.929 . S
O548 Gd504 2.545 . S
O548 C563 1.258 . S
O549 Gd504 2.606 . S
O549 Gd505 2.362 . S
O549 C560 1.284 . S
O550 Gd505 2.324 . S
O550 C570 1.254 . S
O551 Gd504 2.429 . S
O551 C570 1.268 . S
O552 Gd504 2.545 . S
O552 C560 1.250 . S
O553 Gd504 2.412 . S
O553 C563 1.252 . S
O554 Gd505 2.545 . S
O554 C572 1.258 . S
O555 Gd504 2.362 . S
O555 Gd505 2.606 . S
O555 C571 1.284 1_545 S
O556 Gd504 2.324 . S
O556 C579 1.254 . S
O557 Gd505 2.429 . S
O557 C579 1.268 . S
O558 Gd505 2.545 1_565 S
O558 C571 1.250 . S
O559 Gd505 2.412 . S
O559 C572 1.252 . S
C560 O549 1.284 . S
C560 O552 1.250 . S
C561 H530 0.929 . S
C561 C546 1.437 . S
C561 C562 1.317 . S
C562 H533 0.930 . S
C562 C538 1.431 . S
C562 C561 1.317 . S
C563 Gd504 2.828 . S
C563 O548 1.258 . S
C563 O553 1.252 . S
C563 C564 1.497 . S
C564 C563 1.497 . S
C564 C565 1.395 . S
C564 C566 1.380 . S
C565 C564 1.395 . S
C565 C568 1.398 . S
C565 H580 0.930 . S
C566 C564 1.380 . S
C566 C567 1.391 . S
C566 H581 0.930 . S
C567 C566 1.391 . S
C567 C569 1.387 . S
C568 C565 1.398 . S
C568 C569 1.380 . S
C568 H582 0.930 . S
C569 C567 1.387 . S
C569 C568 1.380 . S
C569 H583 0.930 . S
C570 O550 1.254 . S
C570 O551 1.268 . S
C571 O555 1.284 1_565 S
C571 O558 1.250 . S
C572 Gd505 2.828 . S
C572 O554 1.258 . S
C572 O559 1.252 . S
C572 C573 1.497 . S
C573 C572 1.497 . S
C573 C574 1.395 . S
C573 C575 1.380 . S
C574 C573 1.395 . S
C574 C577 1.398 . S
C574 H584 0.930 . S
C575 C573 1.380 . S
C575 C576 1.391 1_545 S
C575 H585 0.930 . S
C576 C575 1.391 1_565 S
C576 C578 1.387 . S
C577 C574 1.398 . S
C577 C578 1.380 1_545 S
C577 H586 0.930 . S
C578 C576 1.387 . S
C578 C577 1.380 1_565 S
C578 H587 0.930 . S
C579 O556 1.254 . S
C579 O557 1.268 . S
H580 C565 0.930 . S
H581 C566 0.930 . S
H582 C568 0.930 . S
H583 C569 0.930 . S
H584 C574 0.930 . S
H585 C575 0.930 . S
H586 C577 0.930 . S
H587 C578 0.930 . S
Gd588 N619 2.661 . S
Gd588 N625 2.601 . S
Gd588 O632 2.545 . S
Gd588 O633 2.606 . S
Gd588 O635 2.429 . S
Gd588 O636 2.545 . S
Gd588 O637 2.412 . S
Gd588 O639 2.362 . S
Gd588 O640 2.324 . S
Gd588 C647 2.828 . S
Gd589 N598 2.661 . S
Gd589 N602 2.601 . S
Gd589 O633 2.362 . S
Gd589 O634 2.324 . S
Gd589 O638 2.545 . S
Gd589 O639 2.606 . S
Gd589 O641 2.429 . S
Gd589 O642 2.545 . S
Gd589 O643 2.412 . S
Gd589 C656 2.828 . S
C590 C593 1.417 . S
C590 C595 1.431 . S
C590 C596 1.412 . S
C591 C594 1.437 . S
C591 C595 1.317 . S
C591 H610 0.929 . S
C592 C593 1.426 . S
C592 C594 1.413 . S
C592 N602 1.359 . S
C593 C590 1.417 . S
C593 C592 1.426 . S
C593 N598 1.350 . S
C594 C591 1.437 . S
C594 C592 1.413 . S
C594 C604 1.391 . S
C595 C590 1.431 . S
C595 C591 1.317 . S
C595 H606 0.930 . S
C596 C590 1.412 . S
C596 C597 1.355 . S
C596 H608 0.930 . S
C597 C596 1.355 . S
C597 C599 1.402 . S
C597 H609 0.930 . S
N598 Gd589 2.661 . S
N598 C593 1.350 . S
N598 C599 1.307 . S
C599 C597 1.402 . S
C599 N598 1.307 . S
C599 H600 0.930 . S
H600 C599 0.930 . S
C601 N602 1.334 . S
C601 C603 1.394 . S
C601 H605 0.930 . S
N602 Gd589 2.601 . S
N602 C592 1.359 . S
N602 C601 1.334 . S
C603 C601 1.394 . S
C603 C604 1.359 . S
C603 H615 0.930 . S
C604 C594 1.391 . S
C604 C603 1.359 . S
C604 H616 0.929 . S
H605 C601 0.930 . S
H606 C595 0.930 . S
H607 C624 0.930 . S
H608 C596 0.930 . S
H609 C597 0.930 . S
H610 C591 0.929 . S
H611 C629 0.930 . S
H612 C620 0.930 . S
H613 C621 0.930 . S
H614 C645 0.929 . S
H615 C603 0.930 . S
H616 C604 0.929 . S
H617 C646 0.930 . S
H618 C627 0.930 . S
N619 Gd588 2.661 . S
N619 C623 1.350 . S
N619 C624 1.307 . S
C620 H612 0.930 . S
C620 C621 1.355 . S
C620 C622 1.412 . S
C621 H613 0.930 . S
C621 C620 1.355 . S
C621 C624 1.402 . S
C622 C620 1.412 . S
C622 C623 1.417 . S
C622 C646 1.431 . S
C623 N619 1.350 . S
C623 C622 1.417 . S
C623 C626 1.426 . S
C624 H607 0.930 . S
C624 N619 1.307 . S
C624 C621 1.402 . S
N625 Gd588 2.601 . S
N625 C626 1.359 . S
N625 C629 1.334 . S
C626 C623 1.426 . S
C626 N625 1.359 . S
C626 C630 1.413 . S
C627 H618 0.930 . S
C627 C628 1.359 . S
C627 C629 1.394 . S
C628 C627 1.359 . S
C628 C630 1.391 . S
C628 H631 0.929 . S
C629 H611 0.930 . S
C629 N625 1.334 . S
C629 C627 1.394 . S
C630 C626 1.413 . S
C630 C628 1.391 . S
C630 C645 1.437 . S
H631 C628 0.929 . S
O632 Gd588 2.545 . S
O632 C647 1.258 . S
O633 Gd588 2.606 . S
O633 Gd589 2.362 . S
O633 C644 1.284 . S
O634 Gd589 2.324 . S
O634 C654 1.254 . S
O635 Gd588 2.429 . S
O635 C654 1.268 . S
O636 Gd588 2.545 . S
O636 C644 1.250 . S
O637 Gd588 2.412 . S
O637 C647 1.252 . S
O638 Gd589 2.545 . S
O638 C656 1.258 . S
O639 Gd588 2.362 . S
O639 Gd589 2.606 . S
O639 C655 1.284 . S
O640 Gd588 2.324 . S
O640 C663 1.254 . S
O641 Gd589 2.429 . S
O641 C663 1.268 . S
O642 Gd589 2.545 . S
O642 C655 1.250 . S
O643 Gd589 2.412 . S
O643 C656 1.252 . S
C644 O633 1.284 . S
C644 O636 1.250 . S
C645 H614 0.929 . S
C645 C630 1.437 . S
C645 C646 1.317 . S
C646 H617 0.930 . S
C646 C622 1.431 . S
C646 C645 1.317 . S
C647 Gd588 2.828 . S
C647 O632 1.258 . S
C647 O637 1.252 . S
C647 C648 1.497 . S
C648 C647 1.497 . S
C648 C649 1.395 . S
C648 C650 1.380 . S
C649 C648 1.395 . S
C649 C652 1.398 . S
C649 H664 0.930 . S
C650 C648 1.380 . S
C650 C651 1.391 . S
C650 H665 0.930 . S
C651 C650 1.391 . S
C651 C653 1.387 . S
C652 C649 1.398 . S
C652 C653 1.380 . S
C652 H666 0.930 . S
C653 C651 1.387 . S
C653 C652 1.380 . S
C653 H667 0.930 . S
C654 O634 1.254 . S
C654 O635 1.268 . S
C655 O639 1.284 . S
C655 O642 1.250 . S
C656 Gd589 2.828 . S
C656 O638 1.258 . S
C656 O643 1.252 . S
C656 C657 1.497 . S
C657 C656 1.497 . S
C657 C658 1.395 . S
C657 C659 1.380 . S
C658 C657 1.395 . S
C658 C661 1.398 . S
C658 H668 0.930 . S
C659 C657 1.380 . S
C659 C660 1.391 . S
C659 H669 0.930 . S
C660 C659 1.391 . S
C660 C662 1.387 . S
C661 C658 1.398 . S
C661 C662 1.380 . S
C661 H670 0.930 . S
C662 C660 1.387 . S
C662 C661 1.380 . S
C662 H671 0.930 . S
C663 O640 1.254 . S
C663 O641 1.268 . S
H664 C649 0.930 . S
H665 C650 0.930 . S
H666 C652 0.930 . S
H667 C653 0.930 . S
H668 C658 0.930 . S
H669 C659 0.930 . S
H670 C661 0.930 . S
H671 C662 0.930 . S
Gd672 N703 2.661 1_545 S
Gd672 N709 2.601 1_545 S
Gd672 O716 2.545 1_545 S
Gd672 O717 2.606 . S
Gd672 O719 2.429 . S
Gd672 O720 2.545 . S
Gd672 O721 2.412 1_545 S
Gd672 O723 2.362 . S
Gd672 O724 2.324 . S
Gd672 C731 2.828 1_545 S
Gd673 N682 2.661 . S
Gd673 N686 2.601 . S
Gd673 O717 2.362 . S
Gd673 O718 2.324 . S
Gd673 O722 2.545 . S
Gd673 O723 2.606 . S
Gd673 O725 2.429 . S
Gd673 O726 2.545 . S
Gd673 O727 2.412 . S
Gd673 C740 2.828 . S
C674 C677 1.417 . S
C674 C679 1.431 . S
C674 C680 1.412 . S
C675 C678 1.437 . S
C675 C679 1.317 . S
C675 H694 0.929 . S
C676 C677 1.426 . S
C676 C678 1.413 . S
C676 N686 1.359 . S
C677 C674 1.417 . S
C677 C676 1.426 . S
C677 N682 1.350 . S
C678 C675 1.437 . S
C678 C676 1.413 . S
C678 C688 1.391 . S
C679 C674 1.431 . S
C679 C675 1.317 . S
C679 H690 0.930 . S
C680 C674 1.412 . S
C680 C681 1.355 . S
C680 H692 0.930 . S
C681 C680 1.355 . S
C681 C683 1.402 . S
C681 H693 0.930 . S
N682 Gd673 2.661 . S
N682 C677 1.350 . S
N682 C683 1.307 . S
C683 C681 1.402 . S
C683 N682 1.307 . S
C683 H684 0.930 . S
H684 C683 0.930 . S
C685 N686 1.334 . S
C685 C687 1.394 . S
C685 H689 0.930 . S
N686 Gd673 2.601 . S
N686 C676 1.359 . S
N686 C685 1.334 . S
C687 C685 1.394 . S
C687 C688 1.359 . S
C687 H699 0.930 1_455 S
C688 C678 1.391 . S
C688 C687 1.359 . S
C688 H700 0.929 . S
H689 C685 0.930 . S
H690 C679 0.930 . S
H691 C708 0.930 . S
H692 C680 0.930 . S
H693 C681 0.930 . S
H694 C675 0.929 . S
H695 C713 0.930 1_545 S
H696 C704 0.930 . S
H697 C705 0.930 1_655 S
H698 C729 0.929 . S
H699 C687 0.930 1_655 S
H700 C688 0.929 . S
H701 C730 0.930 . S
H702 C711 0.930 . S
N703 Gd672 2.661 1_565 S
N703 C707 1.350 . S
N703 C708 1.307 . S
C704 H696 0.930 . S
C704 C705 1.355 . S
C704 C706 1.412 . S
C705 H697 0.930 1_455 S
C705 C704 1.355 . S
C705 C708 1.402 . S
C706 C704 1.412 . S
C706 C707 1.417 . S
C706 C730 1.431 . S
C707 N703 1.350 . S
C707 C706 1.417 . S
C707 C710 1.426 . S
C708 H691 0.930 . S
C708 N703 1.307 . S
C708 C705 1.402 . S
N709 Gd672 2.601 1_565 S
N709 C710 1.359 . S
N709 C713 1.334 . S
C710 C707 1.426 . S
C710 N709 1.359 . S
C710 C714 1.413 . S
C711 H702 0.930 . S
C711 C712 1.359 . S
C711 C713 1.394 . S
C712 C711 1.359 . S
C712 C714 1.391 . S
C712 H715 0.929 . S
C713 H695 0.930 1_565 S
C713 N709 1.334 . S
C713 C711 1.394 . S
C714 C710 1.413 . S
C714 C712 1.391 . S
C714 C729 1.437 . S
H715 C712 0.929 . S
O716 Gd672 2.545 1_565 S
O716 C731 1.258 . S
O717 Gd672 2.606 . S
O717 Gd673 2.362 . S
O717 C728 1.284 . S
O718 Gd673 2.324 . S
O718 C738 1.254 . S
O719 Gd672 2.429 . S
O719 C738 1.268 . S
O720 Gd672 2.545 . S
O720 C728 1.250 . S
O721 Gd672 2.412 1_565 S
O721 C731 1.252 . S
O722 Gd673 2.545 . S
O722 C740 1.258 . S
O723 Gd672 2.362 . S
O723 Gd673 2.606 . S
O723 C739 1.284 . S
O724 Gd672 2.324 . S
O724 C747 1.254 . S
O725 Gd673 2.429 . S
O725 C747 1.268 . S
O726 Gd673 2.545 . S
O726 C739 1.250 . S
O727 Gd673 2.412 . S
O727 C740 1.252 . S
C728 O717 1.284 . S
C728 O720 1.250 . S
C729 H698 0.929 . S
C729 C714 1.437 . S
C729 C730 1.317 . S
C730 H701 0.930 . S
C730 C706 1.431 . S
C730 C729 1.317 . S
C731 Gd672 2.828 1_565 S
C731 O716 1.258 . S
C731 O721 1.252 . S
C731 C732 1.497 . S
C732 C731 1.497 . S
C732 C733 1.395 . S
C732 C734 1.380 . S
C733 C732 1.395 . S
C733 C736 1.398 . S
C733 H748 0.930 . S
C734 C732 1.380 . S
C734 C735 1.391 . S
C734 H749 0.930 . S
C735 C734 1.391 . S
C735 C737 1.387 . S
C736 C733 1.398 . S
C736 C737 1.380 . S
C736 H750 0.930 . S
C737 C735 1.387 . S
C737 C736 1.380 . S
C737 H751 0.930 . S
C738 O718 1.254 . S
C738 O719 1.268 . S
C739 O723 1.284 . S
C739 O726 1.250 . S
C740 Gd673 2.828 . S
C740 O722 1.258 . S
C740 O727 1.252 . S
C740 C741 1.497 . S
C741 C740 1.497 . S
C741 C742 1.395 . S
C741 C743 1.380 . S
C742 C741 1.395 . S
C742 C745 1.398 . S
C742 H752 0.930 . S
C743 C741 1.380 . S
C743 C744 1.391 . S
C743 H753 0.930 . S
C744 C743 1.391 . S
C744 C746 1.387 . S
C745 C742 1.398 . S
C745 C746 1.380 . S
C745 H754 0.930 . S
C746 C744 1.387 . S
C746 C745 1.380 . S
C746 H755 0.930 . S
C747 O724 1.254 . S
C747 O725 1.268 . S
H748 C733 0.930 . S
H749 C734 0.930 . S
H750 C736 0.930 . S
H751 C737 0.930 . S
H752 C742 0.930 . S
H753 C743 0.930 . S
H754 C745 0.930 . S
H755 C746 0.930 . S
Gd756 N787 2.661 . S
Gd756 N793 2.601 . S
Gd756 O800 2.545 . S
Gd756 O801 2.606 . S
Gd756 O803 2.429 . S
Gd756 O804 2.545 . S
Gd756 O805 2.412 . S
Gd756 O807 2.362 . S
Gd756 O808 2.324 . S
Gd756 C815 2.828 . S
Gd757 N766 2.661 . S
Gd757 N770 2.601 . S
Gd757 O801 2.362 . S
Gd757 O802 2.324 . S
Gd757 O806 2.545 . S
Gd757 O807 2.606 . S
Gd757 O809 2.429 . S
Gd757 O810 2.545 . S
Gd757 O811 2.412 . S
Gd757 C824 2.828 . S
C758 C761 1.417 . S
C758 C763 1.431 . S
C758 C764 1.412 . S
C759 C762 1.437 . S
C759 C763 1.317 . S
C759 H778 0.929 . S
C760 C761 1.426 . S
C760 C762 1.413 . S
C760 N770 1.359 . S
C761 C758 1.417 . S
C761 C760 1.426 . S
C761 N766 1.350 . S
C762 C759 1.437 . S
C762 C760 1.413 . S
C762 C772 1.391 . S
C763 C758 1.431 . S
C763 C759 1.317 . S
C763 H774 0.930 . S
C764 C758 1.412 . S
C764 C765 1.355 . S
C764 H776 0.930 . S
C765 C764 1.355 . S
C765 C767 1.402 . S
C765 H777 0.930 . S
N766 Gd757 2.661 . S
N766 C761 1.350 . S
N766 C767 1.307 . S
C767 C765 1.402 . S
C767 N766 1.307 . S
C767 H768 0.930 . S
H768 C767 0.930 . S
C769 N770 1.334 . S
C769 C771 1.394 . S
C769 H773 0.930 . S
N770 Gd757 2.601 . S
N770 C760 1.359 . S
N770 C769 1.334 . S
C771 C769 1.394 . S
C771 C772 1.359 . S
C771 H783 0.930 . S
C772 C762 1.391 . S
C772 C771 1.359 . S
C772 H784 0.929 . S
H773 C769 0.930 . S
H774 C763 0.930 . S
H775 C792 0.930 . S
H776 C764 0.930 . S
H777 C765 0.930 . S
H778 C759 0.929 . S
H779 C797 0.930 . S
H780 C788 0.930 . S
H781 C789 0.930 . S
H782 C813 0.929 . S
H783 C771 0.930 . S
H784 C772 0.929 . S
H785 C814 0.930 . S
H786 C795 0.930 . S
N787 Gd756 2.661 . S
N787 C791 1.350 . S
N787 C792 1.307 . S
C788 H780 0.930 . S
C788 C789 1.355 . S
C788 C790 1.412 . S
C789 H781 0.930 . S
C789 C788 1.355 . S
C789 C792 1.402 . S
C790 C788 1.412 . S
C790 C791 1.417 . S
C790 C814 1.431 . S
C791 N787 1.350 . S
C791 C790 1.417 . S
C791 C794 1.426 . S
C792 H775 0.930 . S
C792 N787 1.307 . S
C792 C789 1.402 . S
N793 Gd756 2.601 . S
N793 C794 1.359 . S
N793 C797 1.334 . S
C794 C791 1.426 . S
C794 N793 1.359 . S
C794 C798 1.413 . S
C795 H786 0.930 . S
C795 C796 1.359 . S
C795 C797 1.394 . S
C796 C795 1.359 . S
C796 C798 1.391 . S
C796 H799 0.929 . S
C797 H779 0.930 . S
C797 N793 1.334 . S
C797 C795 1.394 . S
C798 C794 1.413 . S
C798 C796 1.391 . S
C798 C813 1.437 . S
H799 C796 0.929 . S
O800 Gd756 2.545 . S
O800 C815 1.258 . S
O801 Gd756 2.606 . S
O801 Gd757 2.362 . S
O801 C812 1.284 . S
O802 Gd757 2.324 . S
O802 C822 1.254 . S
O803 Gd756 2.429 . S
O803 C822 1.268 . S
O804 Gd756 2.545 . S
O804 C812 1.250 . S
O805 Gd756 2.412 . S
O805 C815 1.252 . S
O806 Gd757 2.545 . S
O806 C824 1.258 . S
O807 Gd756 2.362 . S
O807 Gd757 2.606 . S
O807 C823 1.284 . S
O808 Gd756 2.324 . S
O808 C831 1.254 . S
O809 Gd757 2.429 . S
O809 C831 1.268 . S
O810 Gd757 2.545 . S
O810 C823 1.250 . S
O811 Gd757 2.412 . S
O811 C824 1.252 . S
C812 O801 1.284 . S
C812 O804 1.250 . S
C813 H782 0.929 . S
C813 C798 1.437 . S
C813 C814 1.317 . S
C814 H785 0.930 . S
C814 C790 1.431 . S
C814 C813 1.317 . S
C815 Gd756 2.828 . S
C815 O800 1.258 . S
C815 O805 1.252 . S
C815 C816 1.497 . S
C816 C815 1.497 . S
C816 C817 1.395 . S
C816 C818 1.380 . S
C817 C816 1.395 . S
C817 C820 1.398 . S
C817 H832 0.930 . S
C818 C816 1.380 . S
C818 C819 1.391 . S
C818 H833 0.930 . S
C819 C818 1.391 . S
C819 C821 1.387 . S
C820 C817 1.398 . S
C820 C821 1.380 . S
C820 H834 0.930 . S
C821 C819 1.387 . S
C821 C820 1.380 . S
C821 H835 0.930 . S
C822 O802 1.254 . S
C822 O803 1.268 . S
C823 O807 1.284 . S
C823 O810 1.250 . S
C824 Gd757 2.828 . S
C824 O806 1.258 . S
C824 O811 1.252 . S
C824 C825 1.497 . S
C825 C824 1.497 . S
C825 C826 1.395 . S
C825 C827 1.380 . S
C826 C825 1.395 . S
C826 C829 1.398 . S
C826 H836 0.930 . S
C827 C825 1.380 . S
C827 C828 1.391 . S
C827 H837 0.930 . S
C828 C827 1.391 . S
C828 C830 1.387 . S
C829 C826 1.398 . S
C829 C830 1.380 . S
C829 H838 0.930 . S
C830 C828 1.387 . S
C830 C829 1.380 . S
C830 H839 0.930 . S
C831 O808 1.254 . S
C831 O809 1.268 . S
H832 C817 0.930 . S
H833 C818 0.930 . S
H834 C820 0.930 . S
H835 C821 0.930 . S
H836 C826 0.930 . S
H837 C827 0.930 . S
H838 C829 0.930 . S
H839 C830 0.930 . S
Gd840 N871 2.661 . S
Gd840 N877 2.601 . S
Gd840 O884 2.545 . S
Gd840 O885 2.606 1_556 S
Gd840 O887 2.429 1_556 S
Gd840 O888 2.545 . S
Gd840 O889 2.412 . S
Gd840 O891 2.362 1_556 S
Gd840 O892 2.324 . S
Gd840 C899 2.828 . S
Gd841 N850 2.661 . S
Gd841 N854 2.601 . S
Gd841 O885 2.362 . S
Gd841 O886 2.324 . S
Gd841 O890 2.545 . S
Gd841 O891 2.606 . S
Gd841 O893 2.429 . S
Gd841 O894 2.545 . S
Gd841 O895 2.412 . S
Gd841 C908 2.828 . S
C842 C845 1.417 . S
C842 C847 1.431 . S
C842 C848 1.412 . S
C843 C846 1.437 . S
C843 C847 1.317 . S
C843 H862 0.929 . S
C844 C845 1.426 . S
C844 C846 1.413 . S
C844 N854 1.359 . S
C845 C842 1.417 . S
C845 C844 1.426 . S
C845 N850 1.350 . S
C846 C843 1.437 . S
C846 C844 1.413 . S
C846 C856 1.391 1_545 S
C847 C842 1.431 . S
C847 C843 1.317 . S
C847 H858 0.930 . S
C848 C842 1.412 . S
C848 C849 1.355 . S
C848 H860 0.930 . S
C849 C848 1.355 . S
C849 C851 1.402 . S
C849 H861 0.930 . S
N850 Gd841 2.661 . S
N850 C845 1.350 . S
N850 C851 1.307 . S
C851 C849 1.402 . S
C851 N850 1.307 . S
C851 H852 0.930 . S
H852 C851 0.930 . S
C853 N854 1.334 1_565 S
C853 C855 1.394 . S
C853 H857 0.930 . S
N854 Gd841 2.601 . S
N854 C844 1.359 . S
N854 C853 1.334 1_545 S
C855 C853 1.394 . S
C855 C856 1.359 . S
C855 H867 0.930 . S
C856 C846 1.391 1_565 S
C856 C855 1.359 . S
C856 H868 0.929 . S
H857 C853 0.930 . S
H858 C847 0.930 . S
H859 C876 0.930 1_565 S
H860 C848 0.930 . S
H861 C849 0.930 . S
H862 C843 0.929 . S
H863 C881 0.930 . S
H864 C872 0.930 . S
H865 C873 0.930 . S
H866 C897 0.929 . S
H867 C855 0.930 . S
H868 C856 0.929 . S
H869 C898 0.930 . S
H870 C879 0.930 . S
N871 Gd840 2.661 . S
N871 C875 1.350 . S
N871 C876 1.307 . S
C872 H864 0.930 . S
C872 C873 1.355 . S
C872 C874 1.412 1_565 S
C873 H865 0.930 . S
C873 C872 1.355 . S
C873 C876 1.402 1_565 S
C874 C872 1.412 1_545 S
C874 C875 1.417 . S
C874 C898 1.431 . S
C875 N871 1.350 . S
C875 C874 1.417 . S
C875 C878 1.426 . S
C876 H859 0.930 1_545 S
C876 N871 1.307 . S
C876 C873 1.402 1_545 S
N877 Gd840 2.601 . S
N877 C878 1.359 . S
N877 C881 1.334 . S
C878 C875 1.426 . S
C878 N877 1.359 . S
C878 C882 1.413 . S
C879 H870 0.930 . S
C879 C880 1.359 . S
C879 C881 1.394 . S
C880 C879 1.359 . S
C880 C882 1.391 . S
C880 H883 0.929 . S
C881 H863 0.930 . S
C881 N877 1.334 . S
C881 C879 1.394 . S
C882 C878 1.413 . S
C882 C880 1.391 . S
C882 C897 1.437 . S
H883 C880 0.929 . S
O884 Gd840 2.545 . S
O884 C899 1.258 . S
O885 Gd840 2.606 1_554 S
O885 Gd841 2.362 . S
O885 C896 1.284 . S
O886 Gd841 2.324 . S
O886 C906 1.254 . S
O887 Gd840 2.429 1_554 S
O887 C906 1.268 . S
O888 Gd840 2.545 . S
O888 C896 1.250 1_556 S
O889 Gd840 2.412 . S
O889 C899 1.252 . S
O890 Gd841 2.545 . S
O890 C908 1.258 . S
O891 Gd840 2.362 1_554 S
O891 Gd841 2.606 . S
O891 C907 1.284 . S
O892 Gd840 2.324 . S
O892 C915 1.237 1_556 S
O893 Gd841 2.429 . S
O893 C915 1.294 . S
O894 Gd841 2.545 . S
O894 C907 1.250 . S
O895 Gd841 2.412 . S
O895 C908 1.252 . S
C896 O885 1.284 . S
C896 O888 1.250 1_554 S
C897 H866 0.929 . S
C897 C882 1.437 . S
C897 C898 1.317 . S
C898 H869 0.930 . S
C898 C874 1.431 . S
C898 C897 1.317 . S
C899 Gd840 2.828 . S
C899 O884 1.258 . S
C899 O889 1.252 . S
C899 C900 1.497 . S
C900 C899 1.497 . S
C900 C901 1.395 . S
C900 C902 1.380 . S
C901 C900 1.395 . S
C901 C904 1.398 . S
C901 H916 0.930 . S
C902 C900 1.380 . S
C902 C903 1.391 . S
C902 H917 0.930 . S
C903 C902 1.391 . S
C903 C905 1.387 . S
C904 C901 1.398 . S
C904 C905 1.380 . S
C904 H918 0.930 . S
C905 C903 1.387 . S
C905 C904 1.380 . S
C905 H919 0.930 . S
C906 O886 1.254 . S
C906 O887 1.268 . S
C907 O891 1.284 . S
C907 O894 1.250 . S
C908 Gd841 2.828 . S
C908 O890 1.258 . S
C908 O895 1.252 . S
C908 C909 1.497 . S
C909 C908 1.497 . S
C909 C910 1.395 1_545 S
C909 C911 1.380 . S
C910 C909 1.395 1_565 S
C910 C913 1.398 . S
C910 H920 0.930 . S
C911 C909 1.380 . S
C911 C912 1.391 . S
C911 H921 0.930 . S
C912 C911 1.391 . S
C912 C914 1.387 . S
C913 C910 1.398 . S
C913 C914 1.380 1_565 S
C913 H922 0.930 . S
C914 C912 1.387 . S
C914 C913 1.380 1_545 S
C914 H923 0.930 . S
C915 O892 1.237 1_554 S
C915 O893 1.294 . S
H916 C901 0.930 . S
H917 C902 0.930 . S
H918 C904 0.930 . S
H919 C905 0.930 . S
H920 C910 0.930 . S
H921 C911 0.930 . S
H922 C913 0.930 . S
H923 C914 0.930 . S
Gd924 N955 2.661 . S
Gd924 N961 2.601 . S
Gd924 O968 2.545 . S
Gd924 O969 2.606 . S
Gd924 O971 2.429 . S
Gd924 O972 2.545 . S
Gd924 O973 2.412 . S
Gd924 O975 2.362 . S
Gd924 O976 2.324 . S
Gd924 C983 2.828 . S
Gd925 N934 2.661 . S
Gd925 N938 2.601 . S
Gd925 O969 2.362 . S
Gd925 O970 2.324 . S
Gd925 O974 2.545 . S
Gd925 O975 2.606 . S
Gd925 O977 2.429 . S
Gd925 O978 2.545 . S
Gd925 O979 2.412 . S
Gd925 C992 2.828 . S
C926 C929 1.417 . S
C926 C931 1.431 . S
C926 C932 1.412 . S
C927 C930 1.437 . S
C927 C931 1.317 . S
C927 H946 0.929 . S
C928 C929 1.426 . S
C928 C930 1.413 . S
C928 N938 1.359 . S
C929 C926 1.417 . S
C929 C928 1.426 . S
C929 N934 1.350 . S
C930 C927 1.437 . S
C930 C928 1.413 . S
C930 C940 1.391 . S
C931 C926 1.431 . S
C931 C927 1.317 . S
C931 H942 0.930 . S
C932 C926 1.412 . S
C932 C933 1.355 . S
C932 H944 0.930 . S
C933 C932 1.355 . S
C933 C935 1.402 . S
C933 H945 0.930 . S
N934 Gd925 2.661 . S
N934 C929 1.350 . S
N934 C935 1.307 . S
C935 C933 1.402 . S
C935 N934 1.307 . S
C935 H936 0.930 . S
H936 C935 0.930 . S
C937 N938 1.334 . S
C937 C939 1.394 . S
C937 H941 0.930 . S
N938 Gd925 2.601 . S
N938 C928 1.359 . S
N938 C937 1.334 . S
C939 C937 1.394 . S
C939 C940 1.359 . S
C939 H951 0.930 . S
C940 C930 1.391 . S
C940 C939 1.359 . S
C940 H952 0.929 . S
H941 C937 0.930 . S
H942 C931 0.930 . S
H943 C960 0.930 . S
H944 C932 0.930 . S
H945 C933 0.930 . S
H946 C927 0.929 . S
H947 C965 0.930 . S
H948 C956 0.930 . S
H949 C957 0.930 . S
H950 C981 0.929 . S
H951 C939 0.930 . S
H952 C940 0.929 . S
H953 C982 0.930 . S
H954 C963 0.930 . S
N955 Gd924 2.661 . S
N955 C959 1.350 . S
N955 C960 1.307 . S
C956 H948 0.930 . S
C956 C957 1.355 . S
C956 C958 1.412 . S
C957 H949 0.930 . S
C957 C956 1.355 . S
C957 C960 1.402 . S
C958 C956 1.412 . S
C958 C959 1.417 . S
C958 C982 1.431 . S
C959 N955 1.350 . S
C959 C958 1.417 . S
C959 C962 1.426 . S
C960 H943 0.930 . S
C960 N955 1.307 . S
C960 C957 1.402 . S
N961 Gd924 2.601 . S
N961 C962 1.359 . S
N961 C965 1.334 . S
C962 C959 1.426 . S
C962 N961 1.359 . S
C962 C966 1.413 . S
C963 H954 0.930 . S
C963 C964 1.359 . S
C963 C965 1.394 . S
C964 C963 1.359 . S
C964 C966 1.391 . S
C964 H967 0.929 . S
C965 H947 0.930 . S
C965 N961 1.334 . S
C965 C963 1.394 . S
C966 C962 1.413 . S
C966 C964 1.391 . S
C966 C981 1.437 . S
H967 C964 0.929 . S
O968 Gd924 2.545 . S
O968 C983 1.258 . S
O969 Gd924 2.606 . S
O969 Gd925 2.362 . S
O969 C980 1.284 . S
O970 Gd925 2.324 . S
O970 C990 1.254 . S
O971 Gd924 2.429 . S
O971 C990 1.268 . S
O972 Gd924 2.545 . S
O972 C980 1.250 . S
O973 Gd924 2.412 . S
O973 C983 1.252 . S
O974 Gd925 2.545 . S
O974 C992 1.258 . S
O975 Gd924 2.362 . S
O975 Gd925 2.606 . S
O975 C991 1.284 . S
O976 Gd924 2.324 . S
O976 C999 1.254 . S
O977 Gd925 2.429 . S
O977 C999 1.268 . S
O978 Gd925 2.545 . S
O978 C991 1.250 . S
O979 Gd925 2.412 . S
O979 C992 1.252 . S
C980 O969 1.284 . S
C980 O972 1.250 . S
C981 H950 0.929 . S
C981 C966 1.437 . S
C981 C982 1.317 . S
C982 H953 0.930 . S
C982 C958 1.431 . S
C982 C981 1.317 . S
C983 Gd924 2.828 . S
C983 O968 1.258 . S
C983 O973 1.252 . S
C983 C984 1.497 . S
C984 C983 1.497 . S
C984 C985 1.395 . S
C984 C986 1.380 . S
C985 C984 1.395 . S
C985 C988 1.398 . S
C985 H1000 0.930 . S
C986 C984 1.380 . S
C986 C987 1.391 . S
C986 H1001 0.930 . S
C987 C986 1.391 . S
C987 C989 1.387 . S
C988 C985 1.398 . S
C988 C989 1.380 . S
C988 H1002 0.930 . S
C989 C987 1.387 . S
C989 C988 1.380 . S
C989 H1003 0.930 . S
C990 O970 1.254 . S
C990 O971 1.268 . S
C991 O975 1.284 . S
C991 O978 1.250 . S
C992 Gd925 2.828 . S
C992 O974 1.258 . S
C992 O979 1.252 . S
C992 C993 1.497 . S
C993 C992 1.497 . S
C993 C994 1.395 . S
C993 C995 1.380 . S
C994 C993 1.395 . S
C994 C997 1.398 . S
C994 H1004 0.930 . S
C995 C993 1.380 . S
C995 C996 1.391 . S
C995 H1005 0.930 . S
C996 C995 1.391 . S
C996 C998 1.387 . S
C997 C994 1.398 . S
C997 C998 1.380 . S
C997 H1006 0.930 . S
C998 C996 1.387 . S
C998 C997 1.380 . S
C998 H1007 0.930 . S
C999 O976 1.254 . S
C999 O977 1.268 . S
H1000 C985 0.930 . S
H1001 C986 0.930 . S
H1002 C988 0.930 . S
H1003 C989 0.930 . S
H1004 C994 0.930 . S
H1005 C995 0.930 . S
H1006 C997 0.930 . S
H1007 C998 0.930 . S
Gd1008 N1039 2.661 1_554 S
Gd1008 N1045 2.601 1_554 S
Gd1008 O1052 2.545 . S
Gd1008 O1053 2.606 . S
Gd1008 O1055 2.429 . S
Gd1008 O1056 2.545 . S
Gd1008 O1057 2.412 . S
Gd1008 O1059 2.362 1_554 S
Gd1008 O1060 2.324 . S
Gd1008 C1067 2.828 . S
Gd1009 N1018 2.661 . S
Gd1009 N1022 2.601 . S
Gd1009 O1053 2.362 . S
Gd1009 O1054 2.324 . S
Gd1009 O1058 2.545 . S
Gd1009 O1059 2.606 1_554 S
Gd1009 O1061 2.429 . S
Gd1009 O1062 2.545 1_554 S
Gd1009 O1063 2.412 . S
Gd1009 C1076 2.828 . S
C1010 C1013 1.417 . S
C1010 C1015 1.431 . S
C1010 C1016 1.412 . S
C1011 C1014 1.437 . S
C1011 C1015 1.317 . S
C1011 H1030 0.929 . S
C1012 C1013 1.426 . S
C1012 C1014 1.413 . S
C1012 N1022 1.359 . S
C1013 C1010 1.417 . S
C1013 C1012 1.426 . S
C1013 N1018 1.350 . S
C1014 C1011 1.437 . S
C1014 C1012 1.413 . S
C1014 C1024 1.391 . S
C1015 C1010 1.431 . S
C1015 C1011 1.317 . S
C1015 H1026 0.930 . S
C1016 C1010 1.412 . S
C1016 C1017 1.355 . S
C1016 H1028 0.930 . S
C1017 C1016 1.355 . S
C1017 C1019 1.402 . S
C1017 H1029 0.930 . S
N1018 Gd1009 2.661 . S
N1018 C1013 1.350 . S
N1018 C1019 1.307 . S
C1019 C1017 1.402 . S
C1019 N1018 1.307 . S
C1019 H1020 0.930 . S
H1020 C1019 0.930 . S
C1021 N1022 1.334 . S
C1021 C1023 1.394 . S
C1021 H1025 0.930 . S
N1022 Gd1009 2.601 . S
N1022 C1012 1.359 . S
N1022 C1021 1.334 . S
C1023 C1021 1.394 . S
C1023 C1024 1.359 . S
C1023 H1035 0.930 . S
C1024 C1014 1.391 . S
C1024 C1023 1.359 . S
C1024 H1036 0.929 . S
H1025 C1021 0.930 . S
H1026 C1015 0.930 . S
H1027 C1044 0.930 . S
H1028 C1016 0.930 . S
H1029 C1017 0.930 . S
H1030 C1011 0.929 . S
H1031 C1049 0.930 . S
H1032 C1040 0.930 . S
H1033 C1041 0.930 . S
H1034 C1065 0.929 . S
H1035 C1023 0.930 . S
H1036 C1024 0.929 . S
H1037 C1066 0.930 . S
H1038 C1047 0.930 . S
N1039 Gd1008 2.661 1_556 S
N1039 C1043 1.350 . S
N1039 C1044 1.307 . S
C1040 H1032 0.930 . S
C1040 C1041 1.355 . S
C1040 C1042 1.412 . S
C1041 H1033 0.930 . S
C1041 C1040 1.355 . S
C1041 C1044 1.402 . S
C1042 C1040 1.412 . S
C1042 C1043 1.417 . S
C1042 C1066 1.431 . S
C1043 N1039 1.350 . S
C1043 C1042 1.417 . S
C1043 C1046 1.426 . S
C1044 H1027 0.930 . S
C1044 N1039 1.307 . S
C1044 C1041 1.402 . S
N1045 Gd1008 2.601 1_556 S
N1045 C1046 1.359 . S
N1045 C1049 1.334 . S
C1046 C1043 1.426 . S
C1046 N1045 1.359 . S
C1046 C1050 1.413 . S
C1047 H1038 0.930 . S
C1047 C1048 1.359 . S
C1047 C1049 1.394 . S
C1048 C1047 1.359 . S
C1048 C1050 1.391 . S
C1048 H1051 0.929 . S
C1049 H1031 0.930 . S
C1049 N1045 1.334 . S
C1049 C1047 1.394 . S
C1050 C1046 1.413 . S
C1050 C1048 1.391 . S
C1050 C1065 1.437 . S
H1051 C1048 0.929 . S
O1052 Gd1008 2.545 . S
O1052 C1067 1.258 . S
O1053 Gd1008 2.606 . S
O1053 Gd1009 2.362 . S
O1053 C1064 1.284 . S
O1054 Gd1009 2.324 . S
O1054 C1074 1.254 . S
O1055 Gd1008 2.429 . S
O1055 C1074 1.268 . S
O1056 Gd1008 2.545 . S
O1056 C1064 1.250 . S
O1057 Gd1008 2.412 . S
O1057 C1067 1.252 . S
O1058 Gd1009 2.545 . S
O1058 C1076 1.258 . S
O1059 Gd1008 2.362 1_556 S
O1059 Gd1009 2.606 1_556 S
O1059 C1075 1.284 . S
O1060 Gd1008 2.324 . S
O1060 C1083 1.254 . S
O1061 Gd1009 2.429 . S
O1061 C1083 1.268 . S
O1062 Gd1009 2.545 1_556 S
O1062 C1075 1.250 . S
O1063 Gd1009 2.412 . S
O1063 C1076 1.252 . S
C1064 O1053 1.284 . S
C1064 O1056 1.250 . S
C1065 H1034 0.929 . S
C1065 C1050 1.437 . S
C1065 C1066 1.317 . S
C1066 H1037 0.930 . S
C1066 C1042 1.431 . S
C1066 C1065 1.317 . S
C1067 Gd1008 2.828 . S
C1067 O1052 1.258 . S
C1067 O1057 1.252 . S
C1067 C1068 1.497 . S
C1068 C1067 1.497 . S
C1068 C1069 1.395 . S
C1068 C1070 1.380 . S
C1069 C1068 1.395 . S
C1069 C1072 1.398 . S
C1069 H1084 0.930 . S
C1070 C1068 1.380 . S
C1070 C1071 1.391 . S
C1070 H1085 0.930 . S
C1071 C1070 1.391 . S
C1071 C1073 1.387 . S
C1072 C1069 1.398 . S
C1072 C1073 1.380 . S
C1072 H1086 0.930 . S
C1073 C1071 1.387 . S
C1073 C1072 1.380 . S
C1073 H1087 0.930 . S
C1074 O1054 1.254 . S
C1074 O1055 1.268 . S
C1075 O1059 1.284 . S
C1075 O1062 1.250 . S
C1076 Gd1009 2.828 . S
C1076 O1058 1.258 . S
C1076 O1063 1.252 . S
C1076 C1077 1.497 . S
C1077 C1076 1.497 . S
C1077 C1078 1.395 . S
C1077 C1079 1.380 . S
C1078 C1077 1.395 . S
C1078 C1081 1.398 . S
C1078 H1088 0.930 . S
C1079 C1077 1.380 . S
C1079 C1080 1.391 1_554 S
C1079 H1089 0.934 . S
C1080 C1079 1.391 1_556 S
C1080 C1082 1.387 1_556 S
C1081 C1078 1.398 . S
C1081 C1082 1.380 . S
C1081 H1090 0.930 . S
C1082 C1080 1.387 1_554 S
C1082 C1081 1.380 . S
C1082 H1091 0.930 . S
C1083 O1060 1.254 . S
C1083 O1061 1.268 . S
H1084 C1069 0.930 . S
H1085 C1070 0.930 . S
H1086 C1072 0.930 . S
H1087 C1073 0.930 . S
H1088 C1078 0.930 . S
H1089 C1079 0.934 . S
H1090 C1081 0.930 . S
H1091 C1082 0.930 . S
Gd1092 N1123 2.661 . S
Gd1092 N1129 2.601 . S
Gd1092 O1136 2.545 . S
Gd1092 O1137 2.606 . S
Gd1092 O1139 2.429 . S
Gd1092 O1140 2.545 . S
Gd1092 O1141 2.412 . S
Gd1092 O1143 2.362 . S
Gd1092 O1144 2.324 . S
Gd1092 C1151 2.828 . S
Gd1093 N1102 2.661 . S
Gd1093 N1106 2.601 . S
Gd1093 O1137 2.362 . S
Gd1093 O1138 2.324 . S
Gd1093 O1142 2.545 . S
Gd1093 O1143 2.606 . S
Gd1093 O1145 2.429 . S
Gd1093 O1146 2.545 . S
Gd1093 O1147 2.412 . S
Gd1093 C1160 2.828 . S
C1094 C1097 1.417 . S
C1094 C1099 1.431 . S
C1094 C1100 1.412 . S
C1095 C1098 1.437 . S
C1095 C1099 1.317 . S
C1095 H1114 0.929 . S
C1096 C1097 1.426 . S
C1096 C1098 1.413 . S
C1096 N1106 1.359 . S
C1097 C1094 1.417 . S
C1097 C1096 1.426 . S
C1097 N1102 1.350 . S
C1098 C1095 1.437 . S
C1098 C1096 1.413 . S
C1098 C1108 1.391 . S
C1099 C1094 1.431 . S
C1099 C1095 1.317 . S
C1099 H1110 0.930 . S
C1100 C1094 1.412 . S
C1100 C1101 1.355 . S
C1100 H1112 0.930 . S
C1101 C1100 1.355 . S
C1101 C1103 1.402 . S
C1101 H1113 0.930 . S
N1102 Gd1093 2.661 . S
N1102 C1097 1.350 . S
N1102 C1103 1.307 . S
C1103 C1101 1.402 . S
C1103 N1102 1.307 . S
C1103 H1104 0.930 . S
H1104 C1103 0.930 . S
C1105 N1106 1.334 . S
C1105 C1107 1.394 . S
C1105 H1109 0.930 . S
N1106 Gd1093 2.601 . S
N1106 C1096 1.359 . S
N1106 C1105 1.334 . S
C1107 C1105 1.394 . S
C1107 C1108 1.359 . S
C1107 H1119 0.930 . S
C1108 C1098 1.391 . S
C1108 C1107 1.359 . S
C1108 H1120 0.929 . S
H1109 C1105 0.930 . S
H1110 C1099 0.930 . S
H1111 C1128 0.930 . S
H1112 C1100 0.930 . S
H1113 C1101 0.930 . S
H1114 C1095 0.929 . S
H1115 C1133 0.930 . S
H1116 C1124 0.930 . S
H1117 C1125 0.930 . S
H1118 C1149 0.929 . S
H1119 C1107 0.930 . S
H1120 C1108 0.929 . S
H1121 C1150 0.930 . S
H1122 C1131 0.930 . S
N1123 Gd1092 2.661 . S
N1123 C1127 1.350 . S
N1123 C1128 1.307 . S
C1124 H1116 0.930 . S
C1124 C1125 1.355 . S
C1124 C1126 1.412 . S
C1125 H1117 0.930 . S
C1125 C1124 1.355 . S
C1125 C1128 1.402 . S
C1126 C1124 1.412 . S
C1126 C1127 1.417 . S
C1126 C1150 1.431 . S
C1127 N1123 1.350 . S
C1127 C1126 1.417 . S
C1127 C1130 1.426 . S
C1128 H1111 0.930 . S
C1128 N1123 1.307 . S
C1128 C1125 1.402 . S
N1129 Gd1092 2.601 . S
N1129 C1130 1.359 . S
N1129 C1133 1.334 . S
C1130 C1127 1.426 . S
C1130 N1129 1.359 . S
C1130 C1134 1.413 . S
C1131 H1122 0.930 . S
C1131 C1132 1.359 . S
C1131 C1133 1.394 . S
C1132 C1131 1.359 . S
C1132 C1134 1.391 . S
C1132 H1135 0.929 . S
C1133 H1115 0.930 . S
C1133 N1129 1.334 . S
C1133 C1131 1.394 . S
C1134 C1130 1.413 . S
C1134 C1132 1.391 . S
C1134 C1149 1.437 . S
H1135 C1132 0.929 . S
O1136 Gd1092 2.545 . S
O1136 C1151 1.258 . S
O1137 Gd1092 2.606 . S
O1137 Gd1093 2.362 . S
O1137 C1148 1.284 . S
O1138 Gd1093 2.324 . S
O1138 C1158 1.254 . S
O1139 Gd1092 2.429 . S
O1139 C1158 1.268 . S
O1140 Gd1092 2.545 . S
O1140 C1148 1.250 . S
O1141 Gd1092 2.412 . S
O1141 C1151 1.252 . S
O1142 Gd1093 2.545 . S
O1142 C1160 1.258 . S
O1143 Gd1092 2.362 . S
O1143 Gd1093 2.606 . S
O1143 C1159 1.284 . S
O1144 Gd1092 2.324 . S
O1144 C1167 1.254 . S
O1145 Gd1093 2.429 . S
O1145 C1167 1.268 . S
O1146 Gd1093 2.545 . S
O1146 C1159 1.250 . S
O1147 Gd1093 2.412 . S
O1147 C1160 1.252 . S
C1148 O1137 1.284 . S
C1148 O1140 1.250 . S
C1149 H1118 0.929 . S
C1149 C1134 1.437 . S
C1149 C1150 1.317 . S
C1150 H1121 0.930 . S
C1150 C1126 1.431 . S
C1150 C1149 1.317 . S
C1151 Gd1092 2.828 . S
C1151 O1136 1.258 . S
C1151 O1141 1.252 . S
C1151 C1152 1.497 . S
C1152 C1151 1.497 . S
C1152 C1153 1.395 . S
C1152 C1154 1.380 . S
C1153 C1152 1.395 . S
C1153 C1156 1.398 . S
C1153 H1168 0.930 . S
C1154 C1152 1.380 . S
C1154 C1155 1.391 . S
C1154 H1169 0.930 . S
C1155 C1154 1.391 . S
C1155 C1157 1.387 . S
C1156 C1153 1.398 . S
C1156 C1157 1.380 . S
C1156 H1170 0.930 . S
C1157 C1155 1.387 . S
C1157 C1156 1.380 . S
C1157 H1171 0.930 . S
C1158 O1138 1.254 . S
C1158 O1139 1.268 . S
C1159 O1143 1.284 . S
C1159 O1146 1.250 . S
C1160 Gd1093 2.828 . S
C1160 O1142 1.258 . S
C1160 O1147 1.252 . S
C1160 C1161 1.497 . S
C1161 C1160 1.497 . S
C1161 C1162 1.395 . S
C1161 C1163 1.380 . S
C1162 C1161 1.395 . S
C1162 C1165 1.398 . S
C1162 H1172 0.930 . S
C1163 C1161 1.380 . S
C1163 C1164 1.391 . S
C1163 H1173 0.930 . S
C1164 C1163 1.391 . S
C1164 C1166 1.387 . S
C1165 C1162 1.398 . S
C1165 C1166 1.380 . S
C1165 H1174 0.930 . S
C1166 C1164 1.387 . S
C1166 C1165 1.380 . S
C1166 H1175 0.930 . S
C1167 O1144 1.254 . S
C1167 O1145 1.268 . S
H1168 C1153 0.930 . S
H1169 C1154 0.930 . S
H1170 C1156 0.930 . S
H1171 C1157 0.930 . S
H1172 C1162 0.930 . S
H1173 C1163 0.930 . S
H1174 C1165 0.930 . S
H1175 C1166 0.930 . S
Gd1176 N1207 2.661 . S
Gd1176 N1213 2.601 . S
Gd1176 O1220 2.545 . S
Gd1176 O1221 2.606 . S
Gd1176 O1223 2.429 . S
Gd1176 O1224 2.545 . S
Gd1176 O1225 2.412 . S
Gd1176 O1227 2.362 . S
Gd1176 O1228 2.324 . S
Gd1176 C1235 2.828 . S
Gd1177 N1186 2.661 . S
Gd1177 N1190 2.601 . S
Gd1177 O1221 2.362 . S
Gd1177 O1222 2.324 . S
Gd1177 O1226 2.545 . S
Gd1177 O1227 2.606 . S
Gd1177 O1229 2.429 . S
Gd1177 O1230 2.545 . S
Gd1177 O1231 2.412 . S
Gd1177 C1244 2.828 . S
C1178 C1181 1.417 . S
C1178 C1183 1.431 . S
C1178 C1184 1.412 . S
C1179 C1182 1.437 . S
C1179 C1183 1.317 . S
C1179 H1198 0.929 . S
C1180 C1181 1.426 . S
C1180 C1182 1.413 . S
C1180 N1190 1.359 . S
C1181 C1178 1.417 . S
C1181 C1180 1.426 . S
C1181 N1186 1.350 . S
C1182 C1179 1.437 . S
C1182 C1180 1.413 . S
C1182 C1192 1.391 . S
C1183 C1178 1.431 . S
C1183 C1179 1.317 . S
C1183 H1194 0.930 . S
C1184 C1178 1.412 . S
C1184 C1185 1.355 . S
C1184 H1196 0.930 . S
C1185 C1184 1.355 . S
C1185 C1187 1.402 . S
C1185 H1197 0.930 . S
N1186 Gd1177 2.661 . S
N1186 C1181 1.350 . S
N1186 C1187 1.307 . S
C1187 C1185 1.402 . S
C1187 N1186 1.307 . S
C1187 H1188 0.930 . S
H1188 C1187 0.930 . S
C1189 N1190 1.334 . S
C1189 C1191 1.394 . S
C1189 H1193 0.930 . S
N1190 Gd1177 2.601 . S
N1190 C1180 1.359 . S
N1190 C1189 1.334 . S
C1191 C1189 1.394 . S
C1191 C1192 1.359 . S
C1191 H1203 0.930 . S
C1192 C1182 1.391 . S
C1192 C1191 1.359 . S
C1192 H1204 0.929 . S
H1193 C1189 0.930 . S
H1194 C1183 0.930 . S
H1195 C1212 0.930 . S
H1196 C1184 0.930 . S
H1197 C1185 0.930 . S
H1198 C1179 0.929 . S
H1199 C1217 0.930 . S
H1200 C1208 0.930 . S
H1201 C1209 0.930 . S
H1202 C1233 0.929 . S
H1203 C1191 0.930 . S
H1204 C1192 0.929 . S
H1205 C1234 0.930 . S
H1206 C1215 0.930 . S
N1207 Gd1176 2.661 . S
N1207 C1211 1.350 . S
N1207 C1212 1.307 . S
C1208 H1200 0.930 . S
C1208 C1209 1.355 . S
C1208 C1210 1.412 . S
C1209 H1201 0.930 . S
C1209 C1208 1.355 . S
C1209 C1212 1.402 1_655 S
C1210 C1208 1.412 . S
C1210 C1211 1.417 1_655 S
C1210 C1234 1.431 . S
C1211 N1207 1.350 . S
C1211 C1210 1.417 1_455 S
C1211 C1214 1.426 . S
C1212 H1195 0.930 . S
C1212 N1207 1.307 . S
C1212 C1209 1.402 1_455 S
N1213 Gd1176 2.601 . S
N1213 C1214 1.359 . S
N1213 C1217 1.334 . S
C1214 C1211 1.426 . S
C1214 N1213 1.359 . S
C1214 C1218 1.413 1_455 S
C1215 H1206 0.930 . S
C1215 C1216 1.359 1_455 S
C1215 C1217 1.394 . S
C1216 C1215 1.359 1_655 S
C1216 C1218 1.391 . S
C1216 H1219 0.929 . S
C1217 H1199 0.930 . S
C1217 N1213 1.334 . S
C1217 C1215 1.394 . S
C1218 C1214 1.413 1_655 S
C1218 C1216 1.391 . S
C1218 C1233 1.437 . S
H1219 C1216 0.929 . S
O1220 Gd1176 2.545 . S
O1220 C1235 1.258 . S
O1221 Gd1176 2.606 . S
O1221 Gd1177 2.362 . S
O1221 C1232 1.284 . S
O1222 Gd1177 2.324 . S
O1222 C1242 1.254 . S
O1223 Gd1176 2.429 . S
O1223 C1242 1.268 . S
O1224 Gd1176 2.545 . S
O1224 C1232 1.250 . S
O1225 Gd1176 2.412 . S
O1225 C1235 1.252 . S
O1226 Gd1177 2.545 . S
O1226 C1244 1.258 . S
O1227 Gd1176 2.362 . S
O1227 Gd1177 2.606 . S
O1227 C1243 1.284 . S
O1228 Gd1176 2.324 . S
O1228 C1251 1.254 . S
O1229 Gd1177 2.429 . S
O1229 C1251 1.268 . S
O1230 Gd1177 2.545 . S
O1230 C1243 1.250 . S
O1231 Gd1177 2.412 . S
O1231 C1244 1.252 . S
C1232 O1221 1.284 . S
C1232 O1224 1.250 . S
C1233 H1202 0.929 . S
C1233 C1218 1.437 . S
C1233 C1234 1.317 . S
C1234 H1205 0.930 . S
C1234 C1210 1.431 . S
C1234 C1233 1.317 . S
C1235 Gd1176 2.828 . S
C1235 O1220 1.258 . S
C1235 O1225 1.252 . S
C1235 C1236 1.497 . S
C1236 C1235 1.497 . S
C1236 C1237 1.395 . S
C1236 C1238 1.380 . S
C1237 C1236 1.395 . S
C1237 C1240 1.398 . S
C1237 H1252 0.930 . S
C1238 C1236 1.380 . S
C1238 C1239 1.391 . S
C1238 H1253 0.930 . S
C1239 C1238 1.391 . S
C1239 C1241 1.387 . S
C1240 C1237 1.398 . S
C1240 C1241 1.380 . S
C1240 H1254 0.930 . S
C1241 C1239 1.387 . S
C1241 C1240 1.380 . S
C1241 H1255 0.930 . S
C1242 O1222 1.254 . S
C1242 O1223 1.268 . S
C1243 O1227 1.284 . S
C1243 O1230 1.250 . S
C1244 Gd1177 2.828 . S
C1244 O1226 1.258 . S
C1244 O1231 1.252 . S
C1244 C1245 1.497 . S
C1245 C1244 1.497 . S
C1245 C1246 1.395 . S
C1245 C1247 1.380 . S
C1246 C1245 1.395 . S
C1246 C1249 1.398 . S
C1246 H1256 0.930 . S
C1247 C1245 1.380 . S
C1247 C1248 1.391 . S
C1247 H1257 0.930 . S
C1248 C1247 1.391 . S
C1248 C1250 1.387 . S
C1249 C1246 1.398 . S
C1249 C1250 1.380 . S
C1249 H1258 0.930 . S
C1250 C1248 1.387 . S
C1250 C1249 1.380 . S
C1250 H1259 0.930 . S
C1251 O1228 1.254 . S
C1251 O1229 1.268 . S
H1252 C1237 0.930 . S
H1253 C1238 0.930 . S
H1254 C1240 0.930 . S
H1255 C1241 0.930 . S
H1256 C1246 0.930 . S
H1257 C1247 0.930 . S
H1258 C1249 0.930 . S
H1259 C1250 0.930 . S
Gd1260 N1291 2.661 . S
Gd1260 N1297 2.601 . S
Gd1260 O1304 2.545 . S
Gd1260 O1305 2.606 . S
Gd1260 O1307 2.429 . S
Gd1260 O1308 2.545 . S
Gd1260 O1309 2.412 . S
Gd1260 O1311 2.362 . S
Gd1260 O1312 2.324 . S
Gd1260 C1319 2.828 . S
Gd1261 N1270 2.661 . S
Gd1261 N1274 2.601 . S
Gd1261 O1305 2.362 . S
Gd1261 O1306 2.324 . S
Gd1261 O1310 2.545 . S
Gd1261 O1311 2.606 . S
Gd1261 O1313 2.429 . S
Gd1261 O1314 2.545 . S
Gd1261 O1315 2.412 . S
Gd1261 C1328 2.828 . S
C1262 C1265 1.417 . S
C1262 C1267 1.431 . S
C1262 C1268 1.412 . S
C1263 C1266 1.437 . S
C1263 C1267 1.317 . S
C1263 H1282 0.929 . S
C1264 C1265 1.426 . S
C1264 C1266 1.413 . S
C1264 N1274 1.359 . S
C1265 C1262 1.417 . S
C1265 C1264 1.426 . S
C1265 N1270 1.350 . S
C1266 C1263 1.437 . S
C1266 C1264 1.413 . S
C1266 C1276 1.391 . S
C1267 C1262 1.431 . S
C1267 C1263 1.317 . S
C1267 H1278 0.930 . S
C1268 C1262 1.412 . S
C1268 C1269 1.355 . S
C1268 H1280 0.930 . S
C1269 C1268 1.355 . S
C1269 C1271 1.402 . S
C1269 H1281 0.930 . S
N1270 Gd1261 2.661 . S
N1270 C1265 1.350 . S
N1270 C1271 1.307 . S
C1271 C1269 1.402 . S
C1271 N1270 1.307 . S
C1271 H1272 0.930 . S
H1272 C1271 0.930 . S
C1273 N1274 1.334 . S
C1273 C1275 1.394 . S
C1273 H1277 0.930 . S
N1274 Gd1261 2.601 . S
N1274 C1264 1.359 . S
N1274 C1273 1.334 . S
C1275 C1273 1.394 . S
C1275 C1276 1.359 . S
C1275 H1287 0.930 . S
C1276 C1266 1.391 . S
C1276 C1275 1.359 . S
C1276 H1288 0.929 . S
H1277 C1273 0.930 . S
H1278 C1267 0.930 . S
H1279 C1296 0.930 . S
H1280 C1268 0.930 . S
H1281 C1269 0.930 . S
H1282 C1263 0.929 . S
H1283 C1301 0.930 . S
H1284 C1292 0.930 . S
H1285 C1293 0.930 . S
H1286 C1317 0.929 . S
H1287 C1275 0.930 . S
H1288 C1276 0.929 . S
H1289 C1318 0.930 . S
H1290 C1299 0.930 . S
N1291 Gd1260 2.661 . S
N1291 C1295 1.350 . S
N1291 C1296 1.307 . S
C1292 H1284 0.930 . S
C1292 C1293 1.355 . S
C1292 C1294 1.412 . S
C1293 H1285 0.930 . S
C1293 C1292 1.355 . S
C1293 C1296 1.402 . S
C1294 C1292 1.412 . S
C1294 C1295 1.417 . S
C1294 C1318 1.431 . S
C1295 N1291 1.350 . S
C1295 C1294 1.417 . S
C1295 C1298 1.426 . S
C1296 H1279 0.930 . S
C1296 N1291 1.307 . S
C1296 C1293 1.402 . S
N1297 Gd1260 2.601 . S
N1297 C1298 1.359 . S
N1297 C1301 1.334 . S
C1298 C1295 1.426 . S
C1298 N1297 1.359 . S
C1298 C1302 1.413 . S
C1299 H1290 0.930 . S
C1299 C1300 1.359 . S
C1299 C1301 1.394 . S
C1300 C1299 1.359 . S
C1300 C1302 1.391 . S
C1300 H1303 0.929 . S
C1301 H1283 0.930 . S
C1301 N1297 1.334 . S
C1301 C1299 1.394 . S
C1302 C1298 1.413 . S
C1302 C1300 1.391 . S
C1302 C1317 1.437 . S
H1303 C1300 0.929 . S
O1304 Gd1260 2.545 . S
O1304 C1319 1.258 . S
O1305 Gd1260 2.606 . S
O1305 Gd1261 2.362 . S
O1305 C1316 1.284 . S
O1306 Gd1261 2.324 . S
O1306 C1326 1.254 . S
O1307 Gd1260 2.429 . S
O1307 C1326 1.268 . S
O1308 Gd1260 2.545 . S
O1308 C1316 1.250 . S
O1309 Gd1260 2.412 . S
O1309 C1319 1.252 . S
O1310 Gd1261 2.545 . S
O1310 C1328 1.258 . S
O1311 Gd1260 2.362 . S
O1311 Gd1261 2.606 . S
O1311 C1327 1.284 . S
O1312 Gd1260 2.324 . S
O1312 C1335 1.254 . S
O1313 Gd1261 2.429 . S
O1313 C1335 1.268 . S
O1314 Gd1261 2.545 . S
O1314 C1327 1.250 . S
O1315 Gd1261 2.412 . S
O1315 C1328 1.252 . S
C1316 O1305 1.284 . S
C1316 O1308 1.250 . S
C1317 H1286 0.929 . S
C1317 C1302 1.437 . S
C1317 C1318 1.317 . S
C1318 H1289 0.930 . S
C1318 C1294 1.431 . S
C1318 C1317 1.317 . S
C1319 Gd1260 2.828 . S
C1319 O1304 1.258 . S
C1319 O1309 1.252 . S
C1319 C1320 1.497 . S
C1320 C1319 1.497 . S
C1320 C1321 1.395 . S
C1320 C1322 1.380 . S
C1321 C1320 1.395 . S
C1321 C1324 1.398 . S
C1321 H1336 0.930 . S
C1322 C1320 1.380 . S
C1322 C1323 1.391 . S
C1322 H1337 0.930 . S
C1323 C1322 1.391 . S
C1323 C1325 1.387 . S
C1324 C1321 1.398 . S
C1324 C1325 1.380 . S
C1324 H1338 0.930 . S
C1325 C1323 1.387 . S
C1325 C1324 1.380 . S
C1325 H1339 0.930 . S
C1326 O1306 1.254 . S
C1326 O1307 1.268 . S
C1327 O1311 1.284 . S
C1327 O1314 1.250 . S
C1328 Gd1261 2.828 . S
C1328 O1310 1.258 . S
C1328 O1315 1.252 . S
C1328 C1329 1.497 . S
C1329 C1328 1.497 . S
C1329 C1330 1.395 . S
C1329 C1331 1.380 . S
C1330 C1329 1.395 . S
C1330 C1333 1.398 . S
C1330 H1340 0.930 . S
C1331 C1329 1.380 . S
C1331 C1332 1.391 . S
C1331 H1341 0.930 . S
C1332 C1331 1.391 . S
C1332 C1334 1.387 . S
C1333 C1330 1.398 . S
C1333 C1334 1.380 . S
C1333 H1342 0.930 . S
C1334 C1332 1.387 . S
C1334 C1333 1.380 . S
C1334 H1343 0.930 . S
C1335 O1312 1.254 . S
C1335 O1313 1.268 . S
H1336 C1321 0.930 . S
H1337 C1322 0.930 . S
H1338 C1324 0.930 . S
H1339 C1325 0.930 . S
H1340 C1330 0.930 . S
H1341 C1331 0.930 . S
H1342 C1333 0.930 . S
H1343 C1334 0.930 . S
Gd1344 N1375 2.661 . S
Gd1344 N1381 2.601 . S
Gd1344 O1388 2.545 . S
Gd1344 O1389 2.606 . S
Gd1344 O1391 2.429 . S
Gd1344 O1392 2.545 . S
Gd1344 O1393 2.412 . S
Gd1344 O1395 2.362 . S
Gd1344 O1396 2.324 . S
Gd1344 C1403 2.828 . S
Gd1345 N1354 2.661 . S
Gd1345 N1358 2.601 . S
Gd1345 O1389 2.362 . S
Gd1345 O1390 2.324 . S
Gd1345 O1394 2.545 . S
Gd1345 O1395 2.606 . S
Gd1345 O1397 2.429 . S
Gd1345 O1398 2.545 . S
Gd1345 O1399 2.412 . S
Gd1345 C1412 2.828 . S
C1346 C1349 1.417 . S
C1346 C1351 1.431 . S
C1346 C1352 1.412 . S
C1347 C1350 1.437 . S
C1347 C1351 1.317 . S
C1347 H1366 0.929 . S
C1348 C1349 1.426 . S
C1348 C1350 1.413 . S
C1348 N1358 1.359 . S
C1349 C1346 1.417 . S
C1349 C1348 1.426 . S
C1349 N1354 1.350 . S
C1350 C1347 1.437 . S
C1350 C1348 1.413 . S
C1350 C1360 1.391 . S
C1351 C1346 1.431 . S
C1351 C1347 1.317 . S
C1351 H1362 0.930 . S
C1352 C1346 1.412 . S
C1352 C1353 1.355 . S
C1352 H1364 0.930 . S
C1353 C1352 1.355 . S
C1353 C1355 1.402 . S
C1353 H1365 0.930 . S
N1354 Gd1345 2.661 . S
N1354 C1349 1.350 . S
N1354 C1355 1.307 . S
C1355 C1353 1.402 . S
C1355 N1354 1.307 . S
C1355 H1356 0.930 . S
H1356 C1355 0.930 . S
C1357 N1358 1.334 . S
C1357 C1359 1.394 . S
C1357 H1361 0.930 . S
N1358 Gd1345 2.601 . S
N1358 C1348 1.359 . S
N1358 C1357 1.334 . S
C1359 C1357 1.394 . S
C1359 C1360 1.359 . S
C1359 H1371 0.930 . S
C1360 C1350 1.391 . S
C1360 C1359 1.359 . S
C1360 H1372 0.929 . S
H1361 C1357 0.930 . S
H1362 C1351 0.930 . S
H1363 C1380 0.930 . S
H1364 C1352 0.930 . S
H1365 C1353 0.930 . S
H1366 C1347 0.929 . S
H1367 C1385 0.930 . S
H1368 C1376 0.930 . S
H1369 C1377 0.930 . S
H1370 C1401 0.929 . S
H1371 C1359 0.930 . S
H1372 C1360 0.929 . S
H1373 C1402 0.930 . S
H1374 C1383 0.930 . S
N1375 Gd1344 2.661 . S
N1375 C1379 1.350 . S
N1375 C1380 1.307 . S
C1376 H1368 0.930 . S
C1376 C1377 1.355 . S
C1376 C1378 1.412 . S
C1377 H1369 0.930 . S
C1377 C1376 1.355 . S
C1377 C1380 1.402 . S
C1378 C1376 1.412 . S
C1378 C1379 1.417 . S
C1378 C1402 1.431 . S
C1379 N1375 1.350 . S
C1379 C1378 1.417 . S
C1379 C1382 1.426 . S
C1380 H1363 0.930 . S
C1380 N1375 1.307 . S
C1380 C1377 1.402 . S
N1381 Gd1344 2.601 . S
N1381 C1382 1.359 . S
N1381 C1385 1.334 . S
C1382 C1379 1.426 . S
C1382 N1381 1.359 . S
C1382 C1386 1.413 . S
C1383 H1374 0.930 . S
C1383 C1384 1.359 . S
C1383 C1385 1.394 . S
C1384 C1383 1.359 . S
C1384 C1386 1.391 . S
C1384 H1387 0.929 . S
C1385 H1367 0.930 . S
C1385 N1381 1.334 . S
C1385 C1383 1.394 . S
C1386 C1382 1.413 . S
C1386 C1384 1.391 . S
C1386 C1401 1.437 . S
H1387 C1384 0.929 . S
O1388 Gd1344 2.545 . S
O1388 C1403 1.258 . S
O1389 Gd1344 2.606 . S
O1389 Gd1345 2.362 . S
O1389 C1400 1.284 . S
O1390 Gd1345 2.324 . S
O1390 C1410 1.254 . S
O1391 Gd1344 2.429 . S
O1391 C1410 1.268 . S
O1392 Gd1344 2.545 . S
O1392 C1400 1.250 . S
O1393 Gd1344 2.412 . S
O1393 C1403 1.252 . S
O1394 Gd1345 2.545 . S
O1394 C1412 1.258 . S
O1395 Gd1344 2.362 . S
O1395 Gd1345 2.606 . S
O1395 C1411 1.284 . S
O1396 Gd1344 2.324 . S
O1396 C1419 1.254 . S
O1397 Gd1345 2.429 . S
O1397 C1419 1.268 . S
O1398 Gd1345 2.545 . S
O1398 C1411 1.250 . S
O1399 Gd1345 2.412 . S
O1399 C1412 1.252 . S
C1400 O1389 1.284 . S
C1400 O1392 1.250 . S
C1401 H1370 0.929 . S
C1401 C1386 1.437 . S
C1401 C1402 1.317 . S
C1402 H1373 0.930 . S
C1402 C1378 1.431 . S
C1402 C1401 1.317 . S
C1403 Gd1344 2.828 . S
C1403 O1388 1.258 . S
C1403 O1393 1.252 . S
C1403 C1404 1.497 . S
C1404 C1403 1.497 . S
C1404 C1405 1.395 . S
C1404 C1406 1.380 . S
C1405 C1404 1.395 . S
C1405 C1408 1.398 . S
C1405 H1420 0.930 . S
C1406 C1404 1.380 . S
C1406 C1407 1.391 . S
C1406 H1421 0.930 . S
C1407 C1406 1.391 . S
C1407 C1409 1.387 . S
C1408 C1405 1.398 . S
C1408 C1409 1.380 . S
C1408 H1422 0.930 . S
C1409 C1407 1.387 . S
C1409 C1408 1.380 . S
C1409 H1423 0.930 . S
C1410 O1390 1.254 . S
C1410 O1391 1.268 . S
C1411 O1395 1.284 . S
C1411 O1398 1.250 . S
C1412 Gd1345 2.828 . S
C1412 O1394 1.258 . S
C1412 O1399 1.252 . S
C1412 C1413 1.497 . S
C1413 C1412 1.497 . S
C1413 C1414 1.395 . S
C1413 C1415 1.380 . S
C1414 C1413 1.395 . S
C1414 C1417 1.398 . S
C1414 H1424 0.930 . S
C1415 C1413 1.380 . S
C1415 C1416 1.391 . S
C1415 H1425 0.930 . S
C1416 C1415 1.391 . S
C1416 C1418 1.387 . S
C1417 C1414 1.398 . S
C1417 C1418 1.380 . S
C1417 H1426 0.930 . S
C1418 C1416 1.387 . S
C1418 C1417 1.380 . S
C1418 H1427 0.930 . S
C1419 O1396 1.254 . S
C1419 O1397 1.268 . S
H1420 C1405 0.930 . S
H1421 C1406 0.930 . S
H1422 C1408 0.930 . S
H1423 C1409 0.930 . S
H1424 C1414 0.930 . S
H1425 C1415 0.930 . S
H1426 C1417 0.930 . S
H1427 C1418 0.930 . S
Gd1428 N1459 2.661 . S
Gd1428 N1465 2.601 . S
Gd1428 O1472 2.545 . S
Gd1428 O1473 2.606 . S
Gd1428 O1475 2.429 . S
Gd1428 O1476 2.545 . S
Gd1428 O1477 2.412 . S
Gd1428 O1479 2.362 . S
Gd1428 O1480 2.324 . S
Gd1428 C1487 2.828 . S
Gd1429 N1438 2.661 . S
Gd1429 N1442 2.601 . S
Gd1429 O1473 2.362 . S
Gd1429 O1474 2.324 . S
Gd1429 O1478 2.545 . S
Gd1429 O1479 2.606 . S
Gd1429 O1481 2.429 . S
Gd1429 O1482 2.545 . S
Gd1429 O1483 2.412 . S
Gd1429 C1496 2.828 . S
C1430 C1433 1.417 . S
C1430 C1435 1.431 . S
C1430 C1436 1.412 . S
C1431 C1434 1.437 . S
C1431 C1435 1.317 . S
C1431 H1450 0.929 . S
C1432 C1433 1.426 . S
C1432 C1434 1.413 . S
C1432 N1442 1.359 . S
C1433 C1430 1.417 . S
C1433 C1432 1.426 . S
C1433 N1438 1.350 . S
C1434 C1431 1.437 . S
C1434 C1432 1.413 . S
C1434 C1444 1.391 . S
C1435 C1430 1.431 . S
C1435 C1431 1.317 . S
C1435 H1446 0.930 . S
C1436 C1430 1.412 . S
C1436 C1437 1.355 . S
C1436 H1448 0.930 . S
C1437 C1436 1.355 . S
C1437 C1439 1.402 . S
C1437 H1449 0.930 . S
N1438 Gd1429 2.661 . S
N1438 C1433 1.350 . S
N1438 C1439 1.307 . S
C1439 C1437 1.402 . S
C1439 N1438 1.307 . S
C1439 H1440 0.930 . S
H1440 C1439 0.930 . S
C1441 N1442 1.334 . S
C1441 C1443 1.394 . S
C1441 H1445 0.930 . S
N1442 Gd1429 2.601 . S
N1442 C1432 1.359 . S
N1442 C1441 1.334 . S
C1443 C1441 1.394 . S
C1443 C1444 1.359 . S
C1443 H1455 0.930 . S
C1444 C1434 1.391 . S
C1444 C1443 1.359 . S
C1444 H1456 0.929 . S
H1445 C1441 0.930 . S
H1446 C1435 0.930 . S
H1447 C1464 0.930 . S
H1448 C1436 0.930 . S
H1449 C1437 0.930 . S
H1450 C1431 0.929 . S
H1451 C1469 0.930 . S
H1452 C1460 0.930 . S
H1453 C1461 0.930 . S
H1454 C1485 0.929 . S
H1455 C1443 0.930 . S
H1456 C1444 0.929 . S
H1457 C1486 0.930 . S
H1458 C1467 0.930 . S
N1459 Gd1428 2.661 . S
N1459 C1463 1.350 . S
N1459 C1464 1.307 . S
C1460 H1452 0.930 . S
C1460 C1461 1.355 . S
C1460 C1462 1.412 . S
C1461 H1453 0.930 . S
C1461 C1460 1.355 . S
C1461 C1464 1.402 . S
C1462 C1460 1.412 . S
C1462 C1463 1.417 . S
C1462 C1486 1.431 . S
C1463 N1459 1.350 . S
C1463 C1462 1.417 . S
C1463 C1466 1.426 . S
C1464 H1447 0.930 . S
C1464 N1459 1.307 . S
C1464 C1461 1.402 . S
N1465 Gd1428 2.601 . S
N1465 C1466 1.359 . S
N1465 C1469 1.334 . S
C1466 C1463 1.426 . S
C1466 N1465 1.359 . S
C1466 C1470 1.413 . S
C1467 H1458 0.930 . S
C1467 C1468 1.359 . S
C1467 C1469 1.394 . S
C1468 C1467 1.359 . S
C1468 C1470 1.391 . S
C1468 H1471 0.929 . S
C1469 H1451 0.930 . S
C1469 N1465 1.334 . S
C1469 C1467 1.394 . S
C1470 C1466 1.413 . S
C1470 C1468 1.391 . S
C1470 C1485 1.437 . S
H1471 C1468 0.929 . S
O1472 Gd1428 2.545 . S
O1472 C1487 1.258 . S
O1473 Gd1428 2.606 . S
O1473 Gd1429 2.362 . S
O1473 C1484 1.284 . S
O1474 Gd1429 2.324 . S
O1474 C1494 1.254 . S
O1475 Gd1428 2.429 . S
O1475 C1494 1.268 . S
O1476 Gd1428 2.545 . S
O1476 C1484 1.250 . S
O1477 Gd1428 2.412 . S
O1477 C1487 1.252 . S
O1478 Gd1429 2.545 . S
O1478 C1496 1.258 . S
O1479 Gd1428 2.362 . S
O1479 Gd1429 2.606 . S
O1479 C1495 1.284 . S
O1480 Gd1428 2.324 . S
O1480 C1503 1.254 . S
O1481 Gd1429 2.429 . S
O1481 C1503 1.268 . S
O1482 Gd1429 2.545 . S
O1482 C1495 1.250 . S
O1483 Gd1429 2.412 . S
O1483 C1496 1.252 . S
C1484 O1473 1.284 . S
C1484 O1476 1.250 . S
C1485 H1454 0.929 . S
C1485 C1470 1.437 . S
C1485 C1486 1.317 . S
C1486 H1457 0.930 . S
C1486 C1462 1.431 . S
C1486 C1485 1.317 . S
C1487 Gd1428 2.828 . S
C1487 O1472 1.258 . S
C1487 O1477 1.252 . S
C1487 C1488 1.497 . S
C1488 C1487 1.497 . S
C1488 C1489 1.395 . S
C1488 C1490 1.380 . S
C1489 C1488 1.395 . S
C1489 C1492 1.398 . S
C1489 H1504 0.930 . S
C1490 C1488 1.380 . S
C1490 C1491 1.391 . S
C1490 H1505 0.930 . S
C1491 C1490 1.391 . S
C1491 C1493 1.387 . S
C1492 C1489 1.398 . S
C1492 C1493 1.380 . S
C1492 H1506 0.930 . S
C1493 C1491 1.387 . S
C1493 C1492 1.380 . S
C1493 H1507 0.930 . S
C1494 O1474 1.254 . S
C1494 O1475 1.268 . S
C1495 O1479 1.284 . S
C1495 O1482 1.250 . S
C1496 Gd1429 2.828 . S
C1496 O1478 1.258 . S
C1496 O1483 1.252 . S
C1496 C1497 1.497 . S
C1497 C1496 1.497 . S
C1497 C1498 1.395 . S
C1497 C1499 1.380 . S
C1498 C1497 1.395 . S
C1498 C1501 1.398 . S
C1498 H1508 0.930 . S
C1499 C1497 1.380 . S
C1499 C1500 1.391 . S
C1499 H1509 0.930 . S
C1500 C1499 1.391 . S
C1500 C1502 1.387 . S
C1501 C1498 1.398 . S
C1501 C1502 1.380 . S
C1501 H1510 0.930 . S
C1502 C1500 1.387 . S
C1502 C1501 1.380 . S
C1502 H1511 0.930 . S
C1503 O1480 1.254 . S
C1503 O1481 1.268 . S
H1504 C1489 0.930 . S
H1505 C1490 0.930 . S
H1506 C1492 0.930 . S
H1507 C1493 0.930 . S
H1508 C1498 0.930 . S
H1509 C1499 0.930 . S
H1510 C1501 0.930 . S
H1511 C1502 0.930 . S
Gd1512 N1543 2.661 . S
Gd1512 N1549 2.601 . S
Gd1512 O1556 2.545 . S
Gd1512 O1557 2.606 . S
Gd1512 O1559 2.429 . S
Gd1512 O1560 2.545 . S
Gd1512 O1561 2.412 . S
Gd1512 O1563 2.362 . S
Gd1512 O1564 2.324 . S
Gd1512 C1571 2.828 . S
Gd1513 N1522 2.661 . S
Gd1513 N1526 2.601 . S
Gd1513 O1557 2.362 . S
Gd1513 O1558 2.324 . S
Gd1513 O1562 2.545 . S
Gd1513 O1563 2.606 . S
Gd1513 O1565 2.429 . S
Gd1513 O1566 2.545 . S
Gd1513 O1567 2.412 . S
Gd1513 C1580 2.828 . S
C1514 C1517 1.417 . S
C1514 C1519 1.431 . S
C1514 C1520 1.412 . S
C1515 C1518 1.437 . S
C1515 C1519 1.317 . S
C1515 H1534 0.929 . S
C1516 C1517 1.426 . S
C1516 C1518 1.413 . S
C1516 N1526 1.359 . S
C1517 C1514 1.417 . S
C1517 C1516 1.426 . S
C1517 N1522 1.350 . S
C1518 C1515 1.437 . S
C1518 C1516 1.413 . S
C1518 C1528 1.391 . S
C1519 C1514 1.431 . S
C1519 C1515 1.317 . S
C1519 H1530 0.930 . S
C1520 C1514 1.412 . S
C1520 C1521 1.355 . S
C1520 H1532 0.930 . S
C1521 C1520 1.355 . S
C1521 C1523 1.402 . S
C1521 H1533 0.930 . S
N1522 Gd1513 2.661 . S
N1522 C1517 1.350 . S
N1522 C1523 1.307 . S
C1523 C1521 1.402 . S
C1523 N1522 1.307 . S
C1523 H1524 0.930 . S
H1524 C1523 0.930 . S
C1525 N1526 1.334 . S
C1525 C1527 1.394 . S
C1525 H1529 0.930 . S
N1526 Gd1513 2.601 . S
N1526 C1516 1.359 . S
N1526 C1525 1.334 . S
C1527 C1525 1.394 . S
C1527 C1528 1.359 . S
C1527 H1539 0.930 . S
C1528 C1518 1.391 . S
C1528 C1527 1.359 . S
C1528 H1540 0.929 . S
H1529 C1525 0.930 . S
H1530 C1519 0.930 . S
H1531 C1548 0.930 . S
H1532 C1520 0.930 . S
H1533 C1521 0.930 . S
H1534 C1515 0.929 . S
H1535 C1553 0.930 . S
H1536 C1544 0.930 . S
H1537 C1545 0.930 . S
H1538 C1569 0.929 . S
H1539 C1527 0.930 . S
H1540 C1528 0.929 . S
H1541 C1570 0.930 . S
H1542 C1551 0.930 . S
N1543 Gd1512 2.661 . S
N1543 C1547 1.350 . S
N1543 C1548 1.307 . S
C1544 H1536 0.930 . S
C1544 C1545 1.355 . S
C1544 C1546 1.412 . S
C1545 H1537 0.930 . S
C1545 C1544 1.355 . S
C1545 C1548 1.402 . S
C1546 C1544 1.412 . S
C1546 C1547 1.417 . S
C1546 C1570 1.431 . S
C1547 N1543 1.350 . S
C1547 C1546 1.417 . S
C1547 C1550 1.426 . S
C1548 H1531 0.930 . S
C1548 N1543 1.307 . S
C1548 C1545 1.402 . S
N1549 Gd1512 2.601 . S
N1549 C1550 1.359 . S
N1549 C1553 1.334 . S
C1550 C1547 1.426 . S
C1550 N1549 1.359 . S
C1550 C1554 1.413 . S
C1551 H1542 0.930 . S
C1551 C1552 1.359 . S
C1551 C1553 1.394 . S
C1552 C1551 1.359 . S
C1552 C1554 1.391 . S
C1552 H1555 0.929 . S
C1553 H1535 0.930 . S
C1553 N1549 1.334 . S
C1553 C1551 1.394 . S
C1554 C1550 1.413 . S
C1554 C1552 1.391 . S
C1554 C1569 1.437 . S
H1555 C1552 0.929 . S
O1556 Gd1512 2.545 . S
O1556 C1571 1.258 . S
O1557 Gd1512 2.606 . S
O1557 Gd1513 2.362 . S
O1557 C1568 1.284 . S
O1558 Gd1513 2.324 . S
O1558 C1578 1.254 . S
O1559 Gd1512 2.429 . S
O1559 C1578 1.268 . S
O1560 Gd1512 2.545 . S
O1560 C1568 1.250 . S
O1561 Gd1512 2.412 . S
O1561 C1571 1.252 . S
O1562 Gd1513 2.545 . S
O1562 C1580 1.258 . S
O1563 Gd1512 2.362 . S
O1563 Gd1513 2.606 . S
O1563 C1579 1.284 . S
O1564 Gd1512 2.324 . S
O1564 C1587 1.254 . S
O1565 Gd1513 2.429 . S
O1565 C1587 1.268 . S
O1566 Gd1513 2.545 . S
O1566 C1579 1.250 . S
O1567 Gd1513 2.412 . S
O1567 C1580 1.252 . S
C1568 O1557 1.284 . S
C1568 O1560 1.250 . S
C1569 H1538 0.929 . S
C1569 C1554 1.437 . S
C1569 C1570 1.317 . S
C1570 H1541 0.930 . S
C1570 C1546 1.431 . S
C1570 C1569 1.317 . S
C1571 Gd1512 2.828 . S
C1571 O1556 1.258 . S
C1571 O1561 1.252 . S
C1571 C1572 1.497 . S
C1572 C1571 1.497 . S
C1572 C1573 1.395 . S
C1572 C1574 1.380 . S
C1573 C1572 1.395 . S
C1573 C1576 1.398 . S
C1573 H1588 0.930 . S
C1574 C1572 1.380 . S
C1574 C1575 1.391 . S
C1574 H1589 0.930 . S
C1575 C1574 1.391 . S
C1575 C1577 1.387 . S
C1576 C1573 1.398 . S
C1576 C1577 1.380 . S
C1576 H1590 0.930 . S
C1577 C1575 1.387 . S
C1577 C1576 1.380 . S
C1577 H1591 0.930 . S
C1578 O1558 1.254 . S
C1578 O1559 1.268 . S
C1579 O1563 1.284 . S
C1579 O1566 1.250 . S
C1580 Gd1513 2.828 . S
C1580 O1562 1.258 . S
C1580 O1567 1.252 . S
C1580 C1581 1.497 . S
C1581 C1580 1.497 . S
C1581 C1582 1.395 . S
C1581 C1583 1.380 . S
C1582 C1581 1.395 . S
C1582 C1585 1.398 . S
C1582 H1592 0.930 . S
C1583 C1581 1.380 . S
C1583 C1584 1.391 . S
C1583 H1593 0.930 . S
C1584 C1583 1.391 . S
C1584 C1586 1.387 . S
C1585 C1582 1.398 . S
C1585 C1586 1.380 . S
C1585 H1594 0.930 . S
C1586 C1584 1.387 . S
C1586 C1585 1.380 . S
C1586 H1595 0.930 . S
C1587 O1564 1.254 . S
C1587 O1565 1.268 . S
H1588 C1573 0.930 . S
H1589 C1574 0.930 . S
H1590 C1576 0.930 . S
H1591 C1577 0.930 . S
H1592 C1582 0.930 . S
H1593 C1583 0.930 . S
H1594 C1585 0.930 . S
H1595 C1586 0.930 . S
Gd1596 N1627 2.661 . S
Gd1596 N1633 2.601 . S
Gd1596 O1640 2.545 . S
Gd1596 O1641 2.606 . S
Gd1596 O1643 2.429 . S
Gd1596 O1644 2.545 . S
Gd1596 O1645 2.412 1_455 S
Gd1596 O1647 2.362 . S
Gd1596 O1648 2.316 1_554 S
Gd1596 C1655 2.828 1_455 S
Gd1597 N1606 2.661 . S
Gd1597 N1610 2.601 1_554 S
Gd1597 O1641 2.362 . S
Gd1597 O1642 2.324 . S
Gd1597 O1646 2.545 1_554 S
Gd1597 O1647 2.606 . S
Gd1597 O1649 2.429 1_554 S
Gd1597 O1650 2.545 . S
Gd1597 O1651 2.412 . S
Gd1597 C1664 2.815 1_554 S
C1598 C1601 1.417 . S
C1598 C1603 1.431 . S
C1598 C1604 1.412 . S
C1599 C1602 1.437 . S
C1599 C1603 1.317 1_556 S
C1599 H1618 0.929 . S
C1600 C1601 1.426 1_556 S
C1600 C1602 1.413 . S
C1600 N1610 1.359 . S
C1601 C1598 1.417 . S
C1601 C1600 1.426 1_554 S
C1601 N1606 1.350 . S
C1602 C1599 1.437 . S
C1602 C1600 1.413 . S
C1602 C1612 1.391 . S
C1603 C1598 1.431 . S
C1603 C1599 1.317 1_554 S
C1603 H1614 0.930 . S
C1604 C1598 1.412 . S
C1604 C1605 1.355 . S
C1604 H1616 0.930 . S
C1605 C1604 1.355 . S
C1605 C1607 1.402 . S
C1605 H1617 0.930 . S
N1606 Gd1597 2.661 . S
N1606 C1601 1.350 . S
N1606 C1607 1.307 . S
C1607 C1605 1.402 . S
C1607 N1606 1.307 . S
C1607 H1608 0.930 . S
H1608 C1607 0.930 . S
C1609 N1610 1.334 . S
C1609 C1611 1.394 . S
C1609 H1613 0.930 . S
N1610 Gd1597 2.601 1_556 S
N1610 C1600 1.359 . S
N1610 C1609 1.334 . S
C1611 C1609 1.394 . S
C1611 C1612 1.359 . S
C1611 H1623 0.930 . S
C1612 C1602 1.391 . S
C1612 C1611 1.359 . S
C1612 H1624 0.929 . S
H1613 C1609 0.930 . S
H1614 C1603 0.930 . S
H1615 C1632 0.930 1_455 S
H1616 C1604 0.930 . S
H1617 C1605 0.930 . S
H1618 C1599 0.929 . S
H1619 C1637 0.930 . S
H1620 C1628 0.937 . S
H1621 C1629 0.930 . S
H1622 C1653 0.929 . S
H1623 C1611 0.930 . S
H1624 C1612 0.929 . S
H1625 C1654 0.930 . S
H1626 C1635 0.930 . S
N1627 Gd1596 2.661 . S
N1627 C1631 1.350 1_455 S
N1627 C1632 1.307 1_454 S
C1628 H1620 0.937 . S
C1628 C1629 1.376 . S
C1628 C1630 1.384 1_556 S
C1629 H1621 0.930 . S
C1629 C1628 1.376 . S
C1629 C1632 1.402 . S
C1630 C1628 1.384 1_554 S
C1630 C1631 1.417 . S
C1630 C1654 1.431 . S
C1631 N1627 1.350 1_655 S
C1631 C1630 1.417 . S
C1631 C1634 1.426 . S
C1632 H1615 0.930 1_655 S
C1632 N1627 1.307 1_656 S
C1632 C1629 1.402 . S
N1633 Gd1596 2.601 . S
N1633 C1634 1.359 1_455 S
N1633 C1637 1.334 . S
C1634 C1631 1.426 . S
C1634 N1633 1.359 1_655 S
C1634 C1638 1.413 . S
C1635 H1626 0.930 . S
C1635 C1636 1.359 1_455 S
C1635 C1637 1.394 . S
C1636 C1635 1.359 1_655 S
C1636 C1638 1.391 . S
C1636 H1639 0.929 . S
C1637 H1619 0.930 . S
C1637 N1633 1.334 . S
C1637 C1635 1.394 . S
C1638 C1634 1.413 . S
C1638 C1636 1.391 . S
C1638 C1653 1.437 . S
H1639 C1636 0.929 . S
O1640 Gd1596 2.545 . S
O1640 C1655 1.258 1_455 S
O1641 Gd1596 2.606 . S
O1641 Gd1597 2.362 . S
O1641 C1652 1.284 . S
O1642 Gd1597 2.324 . S
O1642 C1662 1.254 . S
O1643 Gd1596 2.429 . S
O1643 C1662 1.268 . S
O1644 Gd1596 2.545 . S
O1644 C1652 1.250 . S
O1645 Gd1596 2.412 1_655 S
O1645 C1655 1.252 . S
O1646 Gd1597 2.545 1_556 S
O1646 C1664 1.300 . S
O1647 Gd1596 2.362 . S
O1647 Gd1597 2.606 . S
O1647 C1663 1.284 . S
O1648 Gd1596 2.316 1_556 S
O1648 C1671 1.260 . S
O1649 Gd1597 2.429 1_556 S
O1649 C1671 1.268 . S
O1650 Gd1597 2.545 . S
O1650 C1663 1.250 . S
O1651 Gd1597 2.412 . S
O1651 C1664 1.201 1_554 S
C1652 O1641 1.284 . S
C1652 O1644 1.250 . S
C1653 H1622 0.929 . S
C1653 C1638 1.437 . S
C1653 C1654 1.317 . S
C1654 H1625 0.930 . S
C1654 C1630 1.431 . S
C1654 C1653 1.317 . S
C1655 Gd1596 2.828 1_655 S
C1655 O1640 1.258 1_655 S
C1655 O1645 1.252 . S
C1655 C1656 1.497 . S
C1656 C1655 1.497 . S
C1656 C1657 1.395 . S
C1656 C1658 1.380 . S
C1657 C1656 1.395 . S
C1657 C1660 1.398 . S
C1657 H1672 0.930 . S
C1658 C1656 1.380 . S
C1658 C1659 1.391 . S
C1658 H1673 0.930 . S
C1659 C1658 1.391 . S
C1659 C1661 1.387 . S
C1660 C1657 1.398 . S
C1660 C1661 1.380 . S
C1660 H1674 0.930 . S
C1661 C1659 1.387 . S
C1661 C1660 1.380 . S
C1661 H1675 0.930 . S
C1662 O1642 1.254 . S
C1662 O1643 1.268 . S
C1663 O1647 1.284 . S
C1663 O1650 1.250 . S
C1664 Gd1597 2.815 1_556 S
C1664 O1646 1.300 . S
C1664 O1651 1.201 1_556 S
C1664 C1665 1.507 . S
C1665 C1664 1.507 . S
C1665 C1666 1.395 . S
C1665 C1667 1.380 1_556 S
C1666 C1665 1.395 . S
C1666 C1669 1.398 . S
C1666 H1676 0.930 . S
C1667 C1665 1.380 1_554 S
C1667 C1668 1.391 . S
C1667 H1677 0.930 . S
C1668 C1667 1.391 . S
C1668 C1670 1.387 1_554 S
C1669 C1666 1.398 . S
C1669 C1670 1.380 . S
C1669 H1678 0.930 . S
C1670 C1668 1.387 1_556 S
C1670 C1669 1.380 . S
C1670 H1679 0.930 . S
C1671 O1648 1.260 . S
C1671 O1649 1.268 . S
H1672 C1657 0.930 . S
H1673 C1658 0.930 . S
H1674 C1660 0.930 . S
H1675 C1661 0.930 . S
H1676 C1666 0.930 . S
H1677 C1667 0.930 . S
H1678 C1669 0.930 . S
H1679 C1670 0.930 . S
H1680 C1698 0.951 . S
H1681 C1700 0.951 . S
H1682 C1702 0.950 1_655 S
H1683 C1703 0.950 1_655 S
H1684 C1705 0.950 . S
H1685 C1708 0.950 . S
H1686 C1709 0.950 . S
H1687 C1711 0.950 . S
H1688 C1712 0.950 . S
H1689 C1713 0.951 . S
H1690 C1715 0.957 . S
H1691 C1717 0.950 . S
H1692 C1718 0.950 . S
H1693 C1720 0.950 . S
H1694 C1723 0.950 . S
H1695 C1724 0.950 . S
H1696 C1726 0.950 . S
H1697 C1727 0.950 1_556 S
C1698 H1680 0.951 . S
C1698 C1699 1.366 . S
C1698 C1700 1.388 . S
C1699 C1698 1.366 . S
C1699 C1703 1.385 . S
C1700 H1681 0.951 . S
C1700 C1698 1.388 . S
C1700 C1701 1.366 . S
C1701 C1700 1.366 . S
C1701 C1702 1.414 . S
C1701 C1704 1.499 . S
C1702 H1682 0.950 1_455 S
C1702 C1701 1.414 . S
C1702 C1703 1.374 . S
C1703 H1683 0.950 1_455 S
C1703 C1699 1.385 . S
C1703 C1702 1.374 . S
C1704 C1701 1.499 . S
C1704 C1705 1.373 . S
C1704 C1706 1.389 . S
C1705 H1684 0.950 . S
C1705 C1704 1.373 . S
C1705 C1721 1.377 . S
C1706 C1704 1.389 . S
C1706 C1707 1.524 . S
C1706 C1720 1.377 . S
C1707 C1706 1.524 . S
C1707 C1708 1.397 . S
C1707 C1712 1.363 . S
C1708 H1685 0.950 . S
C1708 C1707 1.397 . S
C1708 C1709 1.334 . S
C1709 H1686 0.950 . S
C1709 C1708 1.334 . S
C1709 C1710 1.287 . S
C1710 C1709 1.287 . S
C1710 C1711 1.524 . S
C1710 H1729 0.913 . S
C1711 H1687 0.950 . S
C1711 C1710 1.524 . S
C1711 C1712 1.415 . S
C1712 H1688 0.950 . S
C1712 C1707 1.363 . S
C1712 C1711 1.415 . S
C1713 H1689 0.951 . S
C1713 C1714 1.366 . S
C1713 C1715 1.379 1_554 S
C1714 C1713 1.366 . S
C1714 C1718 1.385 . S
C1715 H1690 0.957 . S
C1715 C1713 1.379 1_556 S
C1715 C1716 1.378 1_556 S
C1716 C1715 1.378 1_554 S
C1716 C1717 1.437 . S
C1716 C1719 1.469 1_554 S
C1717 H1691 0.950 . S
C1717 C1716 1.437 . S
C1717 C1718 1.374 . S
C1718 H1692 0.950 . S
C1718 C1714 1.385 . S
C1718 C1717 1.374 . S
C1719 C1716 1.469 1_556 S
C1719 C1720 1.373 . S
C1719 C1721 1.389 . S
C1720 H1693 0.950 . S
C1720 C1706 1.377 . S
C1720 C1719 1.373 . S
C1721 C1705 1.377 . S
C1721 C1719 1.389 . S
C1721 C1722 1.524 1_556 S
C1722 C1721 1.524 1_554 S
C1722 C1723 1.397 . S
C1722 C1727 1.363 1_455 S
C1723 H1694 0.950 . S
C1723 C1722 1.397 . S
C1723 C1724 1.334 . S
C1724 H1695 0.950 . S
C1724 C1723 1.334 . S
C1724 C1725 1.287 1_455 S
C1725 C1724 1.287 1_655 S
C1725 C1726 1.524 . S
C1725 H1728 0.999 . S
C1726 H1696 0.950 . S
C1726 C1725 1.524 . S
C1726 C1727 1.415 . S
C1727 H1697 0.950 1_554 S
C1727 C1722 1.363 1_655 S
C1727 C1726 1.415 . S
H1728 C1725 0.999 . S
H1729 C1710 0.913 . S
H1730 C1748 0.951 . S
H1731 C1750 0.951 . S
H1732 C1752 0.950 . S
H1733 C1753 0.950 . S
H1734 C1755 0.950 . S
H1735 C1758 0.950 . S
H1736 C1759 0.950 . S
H1737 C1761 0.950 . S
H1738 C1762 0.950 . S
H1739 C1763 0.951 . S
H1740 C1765 0.951 . S
H1741 C1767 0.950 . S
H1742 C1768 0.950 . S
H1743 C1770 0.950 . S
H1744 C1773 0.950 . S
H1745 C1774 0.950 . S
H1746 C1776 0.950 . S
H1747 C1777 0.950 . S
C1748 H1730 0.951 . S
C1748 C1749 1.366 . S
C1748 C1750 1.388 . S
C1749 C1748 1.366 . S
C1749 C1753 1.385 . S
C1750 H1731 0.951 . S
C1750 C1748 1.388 . S
C1750 C1751 1.366 . S
C1751 C1750 1.366 . S
C1751 C1752 1.414 . S
C1751 C1754 1.499 . S
C1752 H1732 0.950 . S
C1752 C1751 1.414 . S
C1752 C1753 1.374 . S
C1753 H1733 0.950 . S
C1753 C1749 1.385 . S
C1753 C1752 1.374 . S
C1754 C1751 1.499 . S
C1754 C1755 1.373 . S
C1754 C1756 1.389 . S
C1755 H1734 0.950 . S
C1755 C1754 1.373 . S
C1755 C1771 1.377 . S
C1756 C1754 1.389 . S
C1756 C1757 1.524 . S
C1756 C1770 1.377 . S
C1757 C1756 1.524 . S
C1757 C1758 1.397 . S
C1757 C1762 1.363 . S
C1758 H1735 0.950 . S
C1758 C1757 1.397 . S
C1758 C1759 1.334 . S
C1759 H1736 0.950 . S
C1759 C1758 1.334 . S
C1759 C1760 1.287 . S
C1760 C1759 1.287 . S
C1760 C1761 1.524 . S
C1760 H1779 0.913 . S
C1761 H1737 0.950 . S
C1761 C1760 1.524 . S
C1761 C1762 1.415 . S
C1762 H1738 0.950 . S
C1762 C1757 1.363 . S
C1762 C1761 1.415 . S
C1763 H1739 0.951 . S
C1763 C1764 1.366 . S
C1763 C1765 1.388 . S
C1764 C1763 1.366 . S
C1764 C1768 1.385 . S
C1765 H1740 0.951 . S
C1765 C1763 1.388 . S
C1765 C1766 1.366 . S
C1766 C1765 1.366 . S
C1766 C1767 1.414 . S
C1766 C1769 1.499 . S
C1767 H1741 0.950 . S
C1767 C1766 1.414 . S
C1767 C1768 1.374 . S
C1768 H1742 0.950 . S
C1768 C1764 1.385 . S
C1768 C1767 1.374 . S
C1769 C1766 1.499 . S
C1769 C1770 1.373 . S
C1769 C1771 1.389 . S
C1770 H1743 0.950 . S
C1770 C1756 1.377 . S
C1770 C1769 1.373 . S
C1771 C1755 1.377 . S
C1771 C1769 1.389 . S
C1771 C1772 1.524 . S
C1772 C1771 1.524 . S
C1772 C1773 1.397 . S
C1772 C1777 1.363 . S
C1773 H1744 0.950 . S
C1773 C1772 1.397 . S
C1773 C1774 1.334 . S
C1774 H1745 0.950 . S
C1774 C1773 1.334 . S
C1774 C1775 1.287 . S
C1775 C1774 1.287 . S
C1775 C1776 1.524 . S
C1775 H1778 0.999 . S
C1776 H1746 0.950 . S
C1776 C1775 1.524 . S
C1776 C1777 1.415 . S
C1777 H1747 0.950 . S
C1777 C1772 1.363 . S
C1777 C1776 1.415 . S
H1778 C1775 0.999 . S
H1779 C1760 0.913 . S
H1780 C1798 0.951 . S
H1781 C1800 0.951 . S
H1782 C1802 0.950 . S
H1783 C1803 0.950 . S
H1784 C1805 0.950 . S
H1785 C1808 0.950 . S
H1786 C1809 0.950 . S
H1787 C1811 0.950 . S
H1788 C1812 0.950 . S
H1789 C1813 0.951 . S
H1790 C1815 0.951 . S
H1791 C1817 0.950 . S
H1792 C1818 0.950 . S
H1793 C1820 0.950 . S
H1794 C1823 0.950 . S
H1795 C1824 0.950 . S
H1796 C1826 0.950 . S
H1797 C1827 0.950 . S
C1798 H1780 0.951 . S
C1798 C1799 1.366 . S
C1798 C1800 1.388 . S
C1799 C1798 1.366 . S
C1799 C1803 1.385 . S
C1800 H1781 0.951 . S
C1800 C1798 1.388 . S
C1800 C1801 1.366 . S
C1801 C1800 1.366 . S
C1801 C1802 1.414 . S
C1801 C1804 1.499 . S
C1802 H1782 0.950 . S
C1802 C1801 1.414 . S
C1802 C1803 1.374 . S
C1803 H1783 0.950 . S
C1803 C1799 1.385 . S
C1803 C1802 1.374 . S
C1804 C1801 1.499 . S
C1804 C1805 1.373 . S
C1804 C1806 1.389 . S
C1805 H1784 0.950 . S
C1805 C1804 1.373 . S
C1805 C1821 1.377 . S
C1806 C1804 1.389 . S
C1806 C1807 1.524 . S
C1806 C1820 1.377 . S
C1807 C1806 1.524 . S
C1807 C1808 1.397 . S
C1807 C1812 1.363 . S
C1808 H1785 0.950 . S
C1808 C1807 1.397 . S
C1808 C1809 1.334 . S
C1809 H1786 0.950 . S
C1809 C1808 1.334 . S
C1809 C1810 1.287 . S
C1810 C1809 1.287 . S
C1810 C1811 1.524 . S
C1810 H1829 0.913 . S
C1811 H1787 0.950 . S
C1811 C1810 1.524 . S
C1811 C1812 1.415 . S
C1812 H1788 0.950 . S
C1812 C1807 1.363 . S
C1812 C1811 1.415 . S
C1813 H1789 0.951 . S
C1813 C1814 1.366 . S
C1813 C1815 1.388 . S
C1814 C1813 1.366 . S
C1814 C1818 1.385 . S
C1815 H1790 0.951 . S
C1815 C1813 1.388 . S
C1815 C1816 1.366 . S
C1816 C1815 1.366 . S
C1816 C1817 1.414 . S
C1816 C1819 1.499 . S
C1817 H1791 0.950 . S
C1817 C1816 1.414 . S
C1817 C1818 1.374 . S
C1818 H1792 0.950 . S
C1818 C1814 1.385 . S
C1818 C1817 1.374 . S
C1819 C1816 1.499 . S
C1819 C1820 1.373 . S
C1819 C1821 1.389 . S
C1820 H1793 0.950 . S
C1820 C1806 1.377 . S
C1820 C1819 1.373 . S
C1821 C1805 1.377 . S
C1821 C1819 1.389 . S
C1821 C1822 1.524 . S
C1822 C1821 1.524 . S
C1822 C1823 1.397 . S
C1822 C1827 1.363 . S
C1823 H1794 0.950 . S
C1823 C1822 1.397 . S
C1823 C1824 1.334 . S
C1824 H1795 0.950 . S
C1824 C1823 1.334 . S
C1824 C1825 1.287 . S
C1825 C1824 1.287 . S
C1825 C1826 1.524 . S
C1825 H1828 0.999 . S
C1826 H1796 0.950 . S
C1826 C1825 1.524 . S
C1826 C1827 1.415 . S
C1827 H1797 0.950 . S
C1827 C1822 1.363 . S
C1827 C1826 1.415 . S
H1828 C1825 0.999 . S
H1829 C1810 0.913 . S
H1830 C1848 0.951 . S
H1831 C1850 0.951 . S
H1832 C1852 0.950 . S
H1833 C1853 0.950 . S
H1834 C1855 0.950 . S
H1835 C1858 0.950 . S
H1836 C1859 0.950 . S
H1837 C1861 0.950 . S
H1838 C1862 0.950 . S
H1839 C1863 0.951 . S
H1840 C1865 0.951 . S
H1841 C1867 0.950 . S
H1842 C1868 0.950 . S
H1843 C1870 0.950 . S
H1844 C1873 0.950 . S
H1845 C1874 0.950 . S
H1846 C1876 0.950 . S
H1847 C1877 0.950 . S
C1848 H1830 0.951 . S
C1848 C1849 1.366 . S
C1848 C1850 1.388 . S
C1849 C1848 1.366 . S
C1849 C1853 1.385 . S
C1850 H1831 0.951 . S
C1850 C1848 1.388 . S
C1850 C1851 1.366 . S
C1851 C1850 1.366 . S
C1851 C1852 1.414 . S
C1851 C1854 1.499 . S
C1852 H1832 0.950 . S
C1852 C1851 1.414 . S
C1852 C1853 1.374 . S
C1853 H1833 0.950 . S
C1853 C1849 1.385 . S
C1853 C1852 1.374 . S
C1854 C1851 1.499 . S
C1854 C1855 1.373 . S
C1854 C1856 1.389 . S
C1855 H1834 0.950 . S
C1855 C1854 1.373 . S
C1855 C1871 1.377 . S
C1856 C1854 1.389 . S
C1856 C1857 1.524 . S
C1856 C1870 1.377 . S
C1857 C1856 1.524 . S
C1857 C1858 1.397 . S
C1857 C1862 1.363 . S
C1858 H1835 0.950 . S
C1858 C1857 1.397 . S
C1858 C1859 1.334 . S
C1859 H1836 0.950 . S
C1859 C1858 1.334 . S
C1859 C1860 1.287 . S
C1860 C1859 1.287 . S
C1860 C1861 1.524 . S
C1860 H1879 0.913 . S
C1861 H1837 0.950 . S
C1861 C1860 1.524 . S
C1861 C1862 1.415 . S
C1862 H1838 0.950 . S
C1862 C1857 1.363 . S
C1862 C1861 1.415 . S
C1863 H1839 0.951 . S
C1863 C1864 1.366 . S
C1863 C1865 1.388 . S
C1864 C1863 1.366 . S
C1864 C1868 1.385 . S
C1865 H1840 0.951 . S
C1865 C1863 1.388 . S
C1865 C1866 1.366 . S
C1866 C1865 1.366 . S
C1866 C1867 1.414 . S
C1866 C1869 1.499 . S
C1867 H1841 0.950 . S
C1867 C1866 1.414 . S
C1867 C1868 1.374 . S
C1868 H1842 0.950 . S
C1868 C1864 1.385 . S
C1868 C1867 1.374 . S
C1869 C1866 1.499 . S
C1869 C1870 1.373 . S
C1869 C1871 1.389 . S
C1870 H1843 0.950 . S
C1870 C1856 1.377 . S
C1870 C1869 1.373 . S
C1871 C1855 1.377 . S
C1871 C1869 1.389 . S
C1871 C1872 1.524 . S
C1872 C1871 1.524 . S
C1872 C1873 1.397 . S
C1872 C1877 1.363 . S
C1873 H1844 0.950 . S
C1873 C1872 1.397 . S
C1873 C1874 1.334 . S
C1874 H1845 0.950 . S
C1874 C1873 1.334 . S
C1874 C1875 1.287 . S
C1875 C1874 1.287 . S
C1875 C1876 1.524 . S
C1875 H1878 0.999 . S
C1876 H1846 0.950 . S
C1876 C1875 1.524 . S
C1876 C1877 1.415 . S
C1877 H1847 0.950 . S
C1877 C1872 1.363 . S
C1877 C1876 1.415 . S
H1878 C1875 0.999 . S
H1879 C1860 0.913 . S
H1880 C1898 0.951 . S
H1881 C1900 0.951 . S
H1882 C1902 0.950 . S
H1883 C1903 0.950 1_655 S
H1884 C1905 0.950 . S
H1885 C1908 0.950 . S
H1886 C1909 0.950 . S
H1887 C1911 0.950 . S
H1888 C1912 0.950 . S
H1889 C1913 0.951 . S
H1890 C1915 0.951 . S
H1891 C1917 0.950 . S
H1892 C1918 0.950 . S
H1893 C1920 0.950 . S
H1894 C1923 0.950 . S
H1895 C1924 0.950 . S
H1896 C1926 0.950 . S
H1897 C1927 0.950 . S
C1898 H1880 0.951 . S
C1898 C1899 1.366 . S
C1898 C1900 1.388 . S
C1899 C1898 1.366 . S
C1899 C1903 1.385 . S
C1900 H1881 0.951 . S
C1900 C1898 1.388 . S
C1900 C1901 1.366 . S
C1901 C1900 1.366 . S
C1901 C1902 1.414 . S
C1901 C1904 1.499 . S
C1902 H1882 0.950 . S
C1902 C1901 1.414 . S
C1902 C1903 1.374 . S
C1903 H1883 0.950 1_455 S
C1903 C1899 1.385 . S
C1903 C1902 1.374 . S
C1904 C1901 1.499 . S
C1904 C1905 1.373 . S
C1904 C1906 1.389 . S
C1905 H1884 0.950 . S
C1905 C1904 1.373 . S
C1905 C1921 1.377 . S
C1906 C1904 1.389 . S
C1906 C1907 1.552 . S
C1906 C1920 1.377 . S
C1907 C1906 1.552 . S
C1907 C1908 1.368 1_455 S
C1907 C1912 1.364 . S
C1908 H1885 0.950 . S
C1908 C1907 1.368 1_655 S
C1908 C1909 1.334 . S
C1909 H1886 0.950 . S
C1909 C1908 1.334 . S
C1909 C1910 1.287 . S
C1910 C1909 1.287 . S
C1910 C1911 1.524 . S
C1910 H1929 0.913 . S
C1911 H1887 0.950 . S
C1911 C1910 1.524 . S
C1911 C1912 1.415 1_655 S
C1912 H1888 0.950 . S
C1912 C1907 1.364 . S
C1912 C1911 1.415 1_455 S
C1913 H1889 0.951 . S
C1913 C1914 1.366 . S
C1913 C1915 1.388 . S
C1914 C1913 1.366 . S
C1914 C1918 1.385 . S
C1915 H1890 0.951 . S
C1915 C1913 1.388 . S
C1915 C1916 1.366 . S
C1916 C1915 1.366 . S
C1916 C1917 1.414 . S
C1916 C1919 1.499 . S
C1917 H1891 0.950 . S
C1917 C1916 1.414 . S
C1917 C1918 1.374 . S
C1918 H1892 0.950 . S
C1918 C1914 1.385 . S
C1918 C1917 1.374 . S
C1919 C1916 1.499 . S
C1919 C1920 1.373 . S
C1919 C1921 1.389 . S
C1920 H1893 0.950 . S
C1920 C1906 1.377 . S
C1920 C1919 1.373 . S
C1921 C1905 1.377 . S
C1921 C1919 1.389 . S
C1921 C1922 1.524 . S
C1922 C1921 1.524 . S
C1922 C1923 1.397 . S
C1922 C1927 1.363 . S
C1923 H1894 0.950 . S
C1923 C1922 1.397 . S
C1923 C1924 1.334 . S
C1924 H1895 0.950 . S
C1924 C1923 1.334 . S
C1924 C1925 1.287 . S
C1925 C1924 1.287 . S
C1925 C1926 1.524 . S
C1925 H1928 0.999 . S
C1926 H1896 0.950 . S
C1926 C1925 1.524 . S
C1926 C1927 1.415 . S
C1927 H1897 0.950 . S
C1927 C1922 1.363 . S
C1927 C1926 1.415 . S
H1928 C1925 0.999 . S
H1929 C1910 0.913 . S
H1930 C1948 0.951 . S
H1931 C1950 0.951 . S
H1932 C1952 0.950 . S
H1933 C1953 0.950 . S
H1934 C1955 0.950 . S
H1935 C1958 0.950 . S
H1936 C1959 0.950 . S
H1937 C1961 0.950 . S
H1938 C1962 0.950 . S
H1939 C1963 0.951 . S
H1940 C1965 0.951 . S
H1941 C1967 0.950 . S
H1942 C1968 0.950 . S
H1943 C1970 0.950 . S
H1944 C1973 0.950 . S
H1945 C1974 0.950 . S
H1946 C1976 0.950 . S
H1947 C1977 0.950 . S
C1948 H1930 0.951 . S
C1948 C1949 1.366 . S
C1948 C1950 1.388 . S
C1949 C1948 1.366 . S
C1949 C1953 1.385 . S
C1950 H1931 0.951 . S
C1950 C1948 1.388 . S
C1950 C1951 1.366 . S
C1951 C1950 1.366 . S
C1951 C1952 1.414 . S
C1951 C1954 1.499 . S
C1952 H1932 0.950 . S
C1952 C1951 1.414 . S
C1952 C1953 1.374 . S
C1953 H1933 0.950 . S
C1953 C1949 1.385 . S
C1953 C1952 1.374 . S
C1954 C1951 1.499 . S
C1954 C1955 1.373 . S
C1954 C1956 1.389 . S
C1955 H1934 0.950 . S
C1955 C1954 1.373 . S
C1955 C1971 1.377 . S
C1956 C1954 1.389 . S
C1956 C1957 1.524 . S
C1956 C1970 1.377 . S
C1957 C1956 1.524 . S
C1957 C1958 1.397 . S
C1957 C1962 1.363 . S
C1958 H1935 0.950 . S
C1958 C1957 1.397 . S
C1958 C1959 1.334 . S
C1959 H1936 0.950 . S
C1959 C1958 1.334 . S
C1959 C1960 1.287 . S
C1960 C1959 1.287 . S
C1960 C1961 1.524 . S
C1960 H1979 0.913 . S
C1961 H1937 0.950 . S
C1961 C1960 1.524 . S
C1961 C1962 1.415 . S
C1962 H1938 0.950 . S
C1962 C1957 1.363 . S
C1962 C1961 1.415 . S
C1963 H1939 0.951 . S
C1963 C1964 1.366 . S
C1963 C1965 1.388 . S
C1964 C1963 1.366 . S
C1964 C1968 1.385 . S
C1965 H1940 0.951 . S
C1965 C1963 1.388 . S
C1965 C1966 1.366 . S
C1966 C1965 1.366 . S
C1966 C1967 1.414 . S
C1966 C1969 1.499 . S
C1967 H1941 0.950 . S
C1967 C1966 1.414 . S
C1967 C1968 1.374 . S
C1968 H1942 0.950 . S
C1968 C1964 1.385 . S
C1968 C1967 1.374 . S
C1969 C1966 1.499 . S
C1969 C1970 1.373 . S
C1969 C1971 1.389 . S
C1970 H1943 0.950 . S
C1970 C1956 1.377 . S
C1970 C1969 1.373 . S
C1971 C1955 1.377 . S
C1971 C1969 1.389 . S
C1971 C1972 1.524 . S
C1972 C1971 1.524 . S
C1972 C1973 1.397 . S
C1972 C1977 1.363 . S
C1973 H1944 0.950 . S
C1973 C1972 1.397 . S
C1973 C1974 1.334 . S
C1974 H1945 0.950 . S
C1974 C1973 1.334 . S
C1974 C1975 1.287 . S
C1975 C1974 1.287 . S
C1975 C1976 1.524 . S
C1975 H1978 0.999 . S
C1976 H1946 0.950 . S
C1976 C1975 1.524 . S
C1976 C1977 1.415 . S
C1977 H1947 0.950 . S
C1977 C1972 1.363 . S
C1977 C1976 1.415 . S
H1978 C1975 0.999 . S
H1979 C1960 0.913 . S
H1980 C1998 0.951 . S
H1981 C2000 0.951 . S
H1982 C2002 0.950 . S
H1983 C2003 0.950 . S
H1984 C2005 0.950 . S
H1985 C2008 0.950 . S
H1986 C2009 0.950 . S
H1987 C2011 0.950 . S
H1988 C2012 0.950 . S
H1989 C2013 0.951 . S
H1990 C2015 0.951 . S
H1991 C2017 0.950 . S
H1992 C2018 0.950 . S
H1993 C2020 0.950 . S
H1994 C2023 0.950 . S
H1995 C2024 0.950 . S
H1996 C2026 0.950 . S
H1997 C2027 0.950 . S
C1998 H1980 0.951 . S
C1998 C1999 1.366 . S
C1998 C2000 1.388 . S
C1999 C1998 1.366 . S
C1999 C2003 1.385 . S
C2000 H1981 0.951 . S
C2000 C1998 1.388 . S
C2000 C2001 1.366 . S
C2001 C2000 1.366 . S
C2001 C2002 1.414 . S
C2001 C2004 1.499 . S
C2002 H1982 0.950 . S
C2002 C2001 1.414 . S
C2002 C2003 1.374 . S
C2003 H1983 0.950 . S
C2003 C1999 1.385 . S
C2003 C2002 1.374 . S
C2004 C2001 1.499 . S
C2004 C2005 1.373 . S
C2004 C2006 1.389 . S
C2005 H1984 0.950 . S
C2005 C2004 1.373 . S
C2005 C2021 1.377 . S
C2006 C2004 1.389 . S
C2006 C2007 1.524 . S
C2006 C2020 1.377 . S
C2007 C2006 1.524 . S
C2007 C2008 1.397 . S
C2007 C2012 1.363 . S
C2008 H1985 0.950 . S
C2008 C2007 1.397 . S
C2008 C2009 1.334 . S
C2009 H1986 0.950 . S
C2009 C2008 1.334 . S
C2009 C2010 1.287 . S
C2010 C2009 1.287 . S
C2010 C2011 1.524 . S
C2010 H2029 0.913 . S
C2011 H1987 0.950 . S
C2011 C2010 1.524 . S
C2011 C2012 1.415 . S
C2012 H1988 0.950 . S
C2012 C2007 1.363 . S
C2012 C2011 1.415 . S
C2013 H1989 0.951 . S
C2013 C2014 1.366 . S
C2013 C2015 1.388 . S
C2014 C2013 1.366 . S
C2014 C2018 1.385 . S
C2015 H1990 0.951 . S
C2015 C2013 1.388 . S
C2015 C2016 1.366 . S
C2016 C2015 1.366 . S
C2016 C2017 1.414 . S
C2016 C2019 1.499 . S
C2017 H1991 0.950 . S
C2017 C2016 1.414 . S
C2017 C2018 1.374 . S
C2018 H1992 0.950 . S
C2018 C2014 1.385 . S
C2018 C2017 1.374 . S
C2019 C2016 1.499 . S
C2019 C2020 1.373 . S
C2019 C2021 1.389 . S
C2020 H1993 0.950 . S
C2020 C2006 1.377 . S
C2020 C2019 1.373 . S
C2021 C2005 1.377 . S
C2021 C2019 1.389 . S
C2021 C2022 1.524 . S
C2022 C2021 1.524 . S
C2022 C2023 1.397 . S
C2022 C2027 1.363 . S
C2023 H1994 0.950 . S
C2023 C2022 1.397 . S
C2023 C2024 1.334 . S
C2024 H1995 0.950 . S
C2024 C2023 1.334 . S
C2024 C2025 1.287 . S
C2025 C2024 1.287 . S
C2025 C2026 1.524 . S
C2025 H2028 0.999 . S
C2026 H1996 0.950 . S
C2026 C2025 1.524 . S
C2026 C2027 1.415 . S
C2027 H1997 0.950 . S
C2027 C2022 1.363 . S
C2027 C2026 1.415 . S
H2028 C2025 0.999 . S
H2029 C2010 0.913 . S
H2030 C2048 0.951 . S
H2031 C2050 0.951 . S
H2032 C2052 0.950 . S
H2033 C2053 0.950 . S
H2034 C2055 0.950 . S
H2035 C2058 0.950 . S
H2036 C2059 0.950 . S
H2037 C2061 0.950 . S
H2038 C2062 0.950 . S
H2039 C2063 0.951 . S
H2040 C2065 0.951 . S
H2041 C2067 0.950 . S
H2042 C2068 0.950 . S
H2043 C2070 0.950 . S
H2044 C2073 0.950 . S
H2045 C2074 0.950 . S
H2046 C2076 0.950 . S
H2047 C2077 0.950 . S
C2048 H2030 0.951 . S
C2048 C2049 1.366 . S
C2048 C2050 1.388 . S
C2049 C2048 1.366 . S
C2049 C2053 1.385 . S
C2050 H2031 0.951 . S
C2050 C2048 1.388 . S
C2050 C2051 1.366 . S
C2051 C2050 1.366 . S
C2051 C2052 1.414 . S
C2051 C2054 1.499 . S
C2052 H2032 0.950 . S
C2052 C2051 1.414 . S
C2052 C2053 1.374 . S
C2053 H2033 0.950 . S
C2053 C2049 1.385 . S
C2053 C2052 1.374 . S
C2054 C2051 1.499 . S
C2054 C2055 1.373 . S
C2054 C2056 1.389 . S
C2055 H2034 0.950 . S
C2055 C2054 1.373 . S
C2055 C2071 1.377 . S
C2056 C2054 1.389 . S
C2056 C2057 1.524 . S
C2056 C2070 1.377 . S
C2057 C2056 1.524 . S
C2057 C2058 1.397 . S
C2057 C2062 1.363 . S
C2058 H2035 0.950 . S
C2058 C2057 1.397 . S
C2058 C2059 1.334 . S
C2059 H2036 0.950 . S
C2059 C2058 1.334 . S
C2059 C2060 1.287 . S
C2060 C2059 1.287 . S
C2060 C2061 1.524 . S
C2060 H2079 0.913 . S
C2061 H2037 0.950 . S
C2061 C2060 1.524 . S
C2061 C2062 1.415 . S
C2062 H2038 0.950 . S
C2062 C2057 1.363 . S
C2062 C2061 1.415 . S
C2063 H2039 0.951 . S
C2063 C2064 1.366 . S
C2063 C2065 1.388 . S
C2064 C2063 1.366 . S
C2064 C2068 1.385 . S
C2065 H2040 0.951 . S
C2065 C2063 1.388 . S
C2065 C2066 1.366 . S
C2066 C2065 1.366 . S
C2066 C2067 1.414 . S
C2066 C2069 1.499 . S
C2067 H2041 0.950 . S
C2067 C2066 1.414 . S
C2067 C2068 1.374 . S
C2068 H2042 0.950 . S
C2068 C2064 1.385 . S
C2068 C2067 1.374 . S
C2069 C2066 1.499 . S
C2069 C2070 1.373 . S
C2069 C2071 1.389 . S
C2070 H2043 0.950 . S
C2070 C2056 1.377 . S
C2070 C2069 1.373 . S
C2071 C2055 1.377 . S
C2071 C2069 1.389 . S
C2071 C2072 1.524 . S
C2072 C2071 1.524 . S
C2072 C2073 1.397 . S
C2072 C2077 1.363 . S
C2073 H2044 0.950 . S
C2073 C2072 1.397 . S
C2073 C2074 1.334 . S
C2074 H2045 0.950 . S
C2074 C2073 1.334 . S
C2074 C2075 1.287 . S
C2075 C2074 1.287 . S
C2075 C2076 1.524 . S
C2075 H2078 0.999 . S
C2076 H2046 0.950 . S
C2076 C2075 1.524 . S
C2076 C2077 1.415 . S
C2077 H2047 0.950 . S
C2077 C2072 1.363 . S
C2077 C2076 1.415 . S
H2078 C2075 0.999 . S
H2079 C2060 0.913 . S
H2080 C2098 0.951 . S
H2081 C2100 0.951 . S
H2082 C2102 0.950 . S
H2083 C2103 0.950 . S
H2084 C2105 0.966 . S
H2085 C2108 0.950 . S
H2086 C2109 0.950 . S
H2087 C2111 0.950 . S
H2088 C2112 0.950 . S
H2089 C2113 0.951 . S
H2090 C2115 0.951 . S
H2091 C2117 0.950 . S
H2092 C2118 0.950 . S
H2093 C2120 0.950 . S
H2094 C2123 0.950 . S
H2095 C2124 0.950 . S
H2096 C2126 0.950 . S
H2097 C2127 0.950 . S
C2098 H2080 0.951 . S
C2098 C2099 1.366 . S
C2098 C2100 1.388 . S
C2099 C2098 1.366 . S
C2099 C2103 1.385 . S
C2100 H2081 0.951 . S
C2100 C2098 1.388 . S
C2100 C2101 1.366 . S
C2101 C2100 1.366 . S
C2101 C2102 1.414 . S
C2101 C2104 1.499 . S
C2102 H2082 0.950 . S
C2102 C2101 1.414 . S
C2102 C2103 1.374 . S
C2103 H2083 0.950 . S
C2103 C2099 1.385 . S
C2103 C2102 1.374 . S
C2104 C2101 1.499 . S
C2104 C2105 1.340 1_655 S
C2104 C2106 1.389 . S
C2105 H2084 0.966 . S
C2105 C2104 1.340 1_455 S
C2105 C2121 1.396 . S
C2106 C2104 1.389 . S
C2106 C2107 1.524 . S
C2106 C2120 1.377 . S
C2107 C2106 1.524 . S
C2107 C2108 1.397 . S
C2107 C2112 1.363 . S
C2108 H2085 0.950 . S
C2108 C2107 1.397 . S
C2108 C2109 1.334 . S
C2109 H2086 0.950 . S
C2109 C2108 1.334 . S
C2109 C2110 1.287 . S
C2110 C2109 1.287 . S
C2110 C2111 1.524 . S
C2110 H2129 0.913 . S
C2111 H2087 0.950 . S
C2111 C2110 1.524 . S
C2111 C2112 1.415 . S
C2112 H2088 0.950 . S
C2112 C2107 1.363 . S
C2112 C2111 1.415 . S
C2113 H2089 0.951 . S
C2113 C2114 1.366 . S
C2113 C2115 1.388 . S
C2114 C2113 1.366 . S
C2114 C2118 1.385 . S
C2115 H2090 0.951 . S
C2115 C2113 1.388 . S
C2115 C2116 1.366 . S
C2116 C2115 1.366 . S
C2116 C2117 1.414 . S
C2116 C2119 1.499 . S
C2117 H2091 0.950 . S
C2117 C2116 1.414 . S
C2117 C2118 1.374 . S
C2118 H2092 0.950 . S
C2118 C2114 1.385 . S
C2118 C2117 1.374 . S
C2119 C2116 1.499 . S
C2119 C2120 1.373 1_455 S
C2119 C2121 1.389 . S
C2120 H2093 0.950 . S
C2120 C2106 1.377 . S
C2120 C2119 1.373 1_655 S
C2121 C2105 1.396 . S
C2121 C2119 1.389 . S
C2121 C2122 1.524 . S
C2122 C2121 1.524 . S
C2122 C2123 1.397 . S
C2122 C2127 1.363 . S
C2123 H2094 0.950 . S
C2123 C2122 1.397 . S
C2123 C2124 1.334 . S
C2124 H2095 0.950 . S
C2124 C2123 1.334 . S
C2124 C2125 1.287 . S
C2125 C2124 1.287 . S
C2125 C2126 1.524 . S
C2125 H2128 0.999 . S
C2126 H2096 0.950 . S
C2126 C2125 1.524 . S
C2126 C2127 1.415 . S
C2127 H2097 0.950 . S
C2127 C2122 1.363 . S
C2127 C2126 1.415 . S
H2128 C2125 0.999 . S
H2129 C2110 0.913 . S
H2130 C2148 0.951 . S
H2131 C2150 0.951 . S
H2132 C2152 0.950 . S
H2133 C2153 0.950 . S
H2134 C2155 0.950 . S
H2135 C2158 0.950 . S
H2136 C2159 0.950 . S
H2137 C2161 0.950 . S
H2138 C2162 0.950 . S
H2139 C2163 0.951 . S
H2140 C2165 0.951 . S
H2141 C2167 0.950 . S
H2142 C2168 0.950 . S
H2143 C2170 0.950 . S
H2144 C2173 0.950 . S
H2145 C2174 0.950 . S
H2146 C2176 0.950 . S
H2147 C2177 0.950 . S
C2148 H2130 0.951 . S
C2148 C2149 1.366 . S
C2148 C2150 1.388 . S
C2149 C2148 1.366 . S
C2149 C2153 1.385 . S
C2150 H2131 0.951 . S
C2150 C2148 1.388 . S
C2150 C2151 1.366 . S
C2151 C2150 1.366 . S
C2151 C2152 1.414 . S
C2151 C2154 1.499 . S
C2152 H2132 0.950 . S
C2152 C2151 1.414 . S
C2152 C2153 1.374 . S
C2153 H2133 0.950 . S
C2153 C2149 1.385 . S
C2153 C2152 1.374 . S
C2154 C2151 1.499 . S
C2154 C2155 1.373 . S
C2154 C2156 1.389 . S
C2155 H2134 0.950 . S
C2155 C2154 1.373 . S
C2155 C2171 1.377 . S
C2156 C2154 1.389 . S
C2156 C2157 1.524 . S
C2156 C2170 1.377 . S
C2157 C2156 1.524 . S
C2157 C2158 1.397 . S
C2157 C2162 1.363 . S
C2158 H2135 0.950 . S
C2158 C2157 1.397 . S
C2158 C2159 1.334 . S
C2159 H2136 0.950 . S
C2159 C2158 1.334 . S
C2159 C2160 1.287 . S
C2160 C2159 1.287 . S
C2160 C2161 1.524 . S
C2160 H2179 0.913 . S
C2161 H2137 0.950 . S
C2161 C2160 1.524 . S
C2161 C2162 1.415 . S
C2162 H2138 0.950 . S
C2162 C2157 1.363 . S
C2162 C2161 1.415 . S
C2163 H2139 0.951 . S
C2163 C2164 1.366 . S
C2163 C2165 1.388 . S
C2164 C2163 1.366 . S
C2164 C2168 1.385 . S
C2165 H2140 0.951 . S
C2165 C2163 1.388 . S
C2165 C2166 1.366 . S
C2166 C2165 1.366 . S
C2166 C2167 1.414 . S
C2166 C2169 1.499 . S
C2167 H2141 0.950 . S
C2167 C2166 1.414 . S
C2167 C2168 1.374 . S
C2168 H2142 0.950 . S
C2168 C2164 1.385 . S
C2168 C2167 1.374 . S
C2169 C2166 1.499 . S
C2169 C2170 1.373 . S
C2169 C2171 1.389 . S
C2170 H2143 0.950 . S
C2170 C2156 1.377 . S
C2170 C2169 1.373 . S
C2171 C2155 1.377 . S
C2171 C2169 1.389 . S
C2171 C2172 1.524 . S
C2172 C2171 1.524 . S
C2172 C2173 1.397 . S
C2172 C2177 1.363 . S
C2173 H2144 0.950 . S
C2173 C2172 1.397 . S
C2173 C2174 1.334 . S
C2174 H2145 0.950 . S
C2174 C2173 1.334 . S
C2174 C2175 1.287 . S
C2175 C2174 1.287 . S
C2175 C2176 1.524 . S
C2175 H2178 0.999 . S
C2176 H2146 0.950 . S
C2176 C2175 1.524 . S
C2176 C2177 1.415 . S
C2177 H2147 0.950 . S
C2177 C2172 1.363 . S
C2177 C2176 1.415 . S
H2178 C2175 0.999 . S
H2179 C2160 0.913 . S
H2180 C2198 0.951 . S
H2181 C2200 0.951 . S
H2182 C2202 0.950 . S
H2183 C2203 0.950 . S
H2184 C2205 0.950 . S
H2185 C2208 0.950 . S
H2186 C2209 0.950 . S
H2187 C2211 0.950 . S
H2188 C2212 0.950 . S
H2189 C2213 0.951 . S
H2190 C2215 0.951 . S
H2191 C2217 0.950 . S
H2192 C2218 0.950 . S
H2193 C2220 0.950 . S
H2194 C2223 0.950 . S
H2195 C2224 0.950 . S
H2196 C2226 0.950 . S
H2197 C2227 0.950 . S
C2198 H2180 0.951 . S
C2198 C2199 1.366 . S
C2198 C2200 1.388 . S
C2199 C2198 1.366 . S
C2199 C2203 1.385 . S
C2200 H2181 0.951 . S
C2200 C2198 1.388 . S
C2200 C2201 1.366 . S
C2201 C2200 1.366 . S
C2201 C2202 1.414 . S
C2201 C2204 1.499 . S
C2202 H2182 0.950 . S
C2202 C2201 1.414 . S
C2202 C2203 1.374 . S
C2203 H2183 0.950 . S
C2203 C2199 1.385 . S
C2203 C2202 1.374 . S
C2204 C2201 1.499 . S
C2204 C2205 1.373 . S
C2204 C2206 1.389 . S
C2205 H2184 0.950 . S
C2205 C2204 1.373 . S
C2205 C2221 1.377 . S
C2206 C2204 1.389 . S
C2206 C2207 1.524 . S
C2206 C2220 1.377 . S
C2207 C2206 1.524 . S
C2207 C2208 1.397 . S
C2207 C2212 1.363 . S
C2208 H2185 0.950 . S
C2208 C2207 1.397 . S
C2208 C2209 1.334 . S
C2209 H2186 0.950 . S
C2209 C2208 1.334 . S
C2209 C2210 1.287 . S
C2210 C2209 1.287 . S
C2210 C2211 1.524 . S
C2210 H2229 0.913 . S
C2211 H2187 0.950 . S
C2211 C2210 1.524 . S
C2211 C2212 1.415 . S
C2212 H2188 0.950 . S
C2212 C2207 1.363 . S
C2212 C2211 1.415 . S
C2213 H2189 0.951 . S
C2213 C2214 1.366 . S
C2213 C2215 1.388 . S
C2214 C2213 1.366 . S
C2214 C2218 1.385 . S
C2215 H2190 0.951 . S
C2215 C2213 1.388 . S
C2215 C2216 1.366 . S
C2216 C2215 1.366 . S
C2216 C2217 1.414 . S
C2216 C2219 1.499 . S
C2217 H2191 0.950 . S
C2217 C2216 1.414 . S
C2217 C2218 1.374 . S
C2218 H2192 0.950 . S
C2218 C2214 1.385 . S
C2218 C2217 1.374 . S
C2219 C2216 1.499 . S
C2219 C2220 1.373 . S
C2219 C2221 1.389 . S
C2220 H2193 0.950 . S
C2220 C2206 1.377 . S
C2220 C2219 1.373 . S
C2221 C2205 1.377 . S
C2221 C2219 1.389 . S
C2221 C2222 1.524 1_545 S
C2222 C2221 1.524 1_565 S
C2222 C2223 1.397 . S
C2222 C2227 1.363 . S
C2223 H2194 0.950 . S
C2223 C2222 1.397 . S
C2223 C2224 1.334 . S
C2224 H2195 0.950 . S
C2224 C2223 1.334 . S
C2224 C2225 1.287 . S
C2225 C2224 1.287 . S
C2225 C2226 1.524 . S
C2225 H2228 0.999 . S
C2226 H2196 0.950 . S
C2226 C2225 1.524 . S
C2226 C2227 1.415 . S
C2227 H2197 0.950 . S
C2227 C2222 1.363 . S
C2227 C2226 1.415 . S
H2228 C2225 0.999 . S
H2229 C2210 0.913 . S
H2230 C2248 0.951 . S
H2231 C2250 0.951 . S
H2232 C2252 0.950 . S
H2233 C2253 0.950 . S
H2234 C2255 0.950 . S
H2235 C2258 0.950 . S
H2236 C2259 0.950 . S
H2237 C2261 0.950 . S
H2238 C2262 0.950 . S
H2239 C2263 0.951 . S
H2240 C2265 0.951 . S
H2241 C2267 0.950 . S
H2242 C2268 0.950 . S
H2243 C2270 0.950 . S
H2244 C2273 0.950 . S
H2245 C2274 0.950 . S
H2246 C2276 0.950 . S
H2247 C2277 0.950 . S
C2248 H2230 0.951 . S
C2248 C2249 1.366 . S
C2248 C2250 1.388 . S
C2249 C2248 1.366 . S
C2249 C2253 1.385 . S
C2250 H2231 0.951 . S
C2250 C2248 1.388 . S
C2250 C2251 1.366 . S
C2251 C2250 1.366 . S
C2251 C2252 1.414 . S
C2251 C2254 1.499 . S
C2252 H2232 0.950 . S
C2252 C2251 1.414 . S
C2252 C2253 1.374 . S
C2253 H2233 0.950 . S
C2253 C2249 1.385 . S
C2253 C2252 1.374 . S
C2254 C2251 1.499 . S
C2254 C2255 1.373 . S
C2254 C2256 1.389 . S
C2255 H2234 0.950 . S
C2255 C2254 1.373 . S
C2255 C2271 1.377 . S
C2256 C2254 1.389 . S
C2256 C2257 1.524 . S
C2256 C2270 1.377 . S
C2257 C2256 1.524 . S
C2257 C2258 1.397 . S
C2257 C2262 1.363 . S
C2258 H2235 0.950 . S
C2258 C2257 1.397 . S
C2258 C2259 1.334 . S
C2259 H2236 0.950 . S
C2259 C2258 1.334 . S
C2259 C2260 1.287 . S
C2260 C2259 1.287 . S
C2260 C2261 1.524 . S
C2260 H2279 0.913 . S
C2261 H2237 0.950 . S
C2261 C2260 1.524 . S
C2261 C2262 1.415 . S
C2262 H2238 0.950 . S
C2262 C2257 1.363 . S
C2262 C2261 1.415 . S
C2263 H2239 0.951 . S
C2263 C2264 1.366 . S
C2263 C2265 1.388 . S
C2264 C2263 1.366 . S
C2264 C2268 1.385 . S
C2265 H2240 0.951 . S
C2265 C2263 1.388 . S
C2265 C2266 1.366 . S
C2266 C2265 1.366 . S
C2266 C2267 1.414 . S
C2266 C2269 1.499 . S
C2267 H2241 0.950 . S
C2267 C2266 1.414 . S
C2267 C2268 1.374 . S
C2268 H2242 0.950 . S
C2268 C2264 1.385 . S
C2268 C2267 1.374 . S
C2269 C2266 1.499 . S
C2269 C2270 1.373 . S
C2269 C2271 1.389 . S
C2270 H2243 0.950 . S
C2270 C2256 1.377 . S
C2270 C2269 1.373 . S
C2271 C2255 1.377 . S
C2271 C2269 1.389 . S
C2271 C2272 1.524 . S
C2272 C2271 1.524 . S
C2272 C2273 1.397 . S
C2272 C2277 1.363 . S
C2273 H2244 0.950 . S
C2273 C2272 1.397 . S
C2273 C2274 1.334 . S
C2274 H2245 0.950 . S
C2274 C2273 1.334 . S
C2274 C2275 1.287 . S
C2275 C2274 1.287 . S
C2275 C2276 1.524 . S
C2275 H2278 0.999 . S
C2276 H2246 0.950 . S
C2276 C2275 1.524 . S
C2276 C2277 1.415 . S
C2277 H2247 0.950 . S
C2277 C2272 1.363 . S
C2277 C2276 1.415 . S
H2278 C2275 0.999 . S
H2279 C2260 0.913 . S
H2280 C2298 0.951 . S
H2281 C2300 0.951 . S
H2282 C2302 0.950 . S
H2283 C2303 0.950 . S
H2284 C2305 0.950 . S
H2285 C2308 0.950 . S
H2286 C2309 0.950 . S
H2287 C2311 0.950 . S
H2288 C2312 0.950 1_455 S
H2289 C2313 0.951 . S
H2290 C2315 0.951 . S
H2291 C2317 0.950 . S
H2292 C2318 0.950 . S
H2293 C2320 0.938 1_455 S
H2294 C2323 0.950 . S
H2295 C2324 0.950 . S
H2296 C2326 0.950 . S
H2297 C2327 0.950 1_655 S
C2298 H2280 0.951 . S
C2298 C2299 1.366 . S
C2298 C2300 1.388 . S
C2299 C2298 1.366 . S
C2299 C2303 1.385 . S
C2300 H2281 0.951 . S
C2300 C2298 1.388 . S
C2300 C2301 1.366 . S
C2301 C2300 1.366 . S
C2301 C2302 1.414 . S
C2301 C2304 1.499 . S
C2302 H2282 0.950 . S
C2302 C2301 1.414 . S
C2302 C2303 1.374 . S
C2303 H2283 0.950 . S
C2303 C2299 1.385 . S
C2303 C2302 1.374 . S
C2304 C2301 1.499 . S
C2304 C2305 1.373 . S
C2304 C2306 1.389 . S
C2305 H2284 0.950 . S
C2305 C2304 1.373 . S
C2305 C2321 1.377 1_655 S
C2306 C2304 1.389 . S
C2306 C2307 1.524 . S
C2306 C2320 1.392 . S
C2307 C2306 1.524 . S
C2307 C2308 1.397 . S
C2307 C2312 1.363 . S
C2308 H2285 0.950 . S
C2308 C2307 1.397 . S
C2308 C2309 1.334 . S
C2309 H2286 0.950 . S
C2309 C2308 1.334 . S
C2309 C2310 1.287 1_545 S
C2310 C2309 1.287 1_565 S
C2310 C2311 1.524 . S
C2310 H2329 0.913 . S
C2311 H2287 0.950 . S
C2311 C2310 1.524 . S
C2311 C2312 1.415 1_565 S
C2312 H2288 0.950 1_655 S
C2312 C2307 1.363 . S
C2312 C2311 1.415 1_545 S
C2313 H2289 0.951 . S
C2313 C2314 1.366 . S
C2313 C2315 1.388 . S
C2314 C2313 1.366 . S
C2314 C2318 1.385 . S
C2315 H2290 0.951 . S
C2315 C2313 1.388 . S
C2315 C2316 1.366 . S
C2316 C2315 1.366 . S
C2316 C2317 1.414 . S
C2316 C2319 1.499 . S
C2317 H2291 0.950 . S
C2317 C2316 1.414 . S
C2317 C2318 1.374 . S
C2318 H2292 0.950 . S
C2318 C2314 1.385 . S
C2318 C2317 1.374 . S
C2319 C2316 1.499 . S
C2319 C2320 1.366 1_455 S
C2319 C2321 1.389 . S
C2320 H2293 0.938 1_655 S
C2320 C2306 1.392 . S
C2320 C2319 1.366 1_655 S
C2321 C2305 1.377 1_455 S
C2321 C2319 1.389 . S
C2321 C2322 1.524 . S
C2322 C2321 1.524 . S
C2322 C2323 1.397 . S
C2322 C2327 1.363 . S
C2323 H2294 0.950 . S
C2323 C2322 1.397 . S
C2323 C2324 1.334 . S
C2324 H2295 0.950 . S
C2324 C2323 1.334 . S
C2324 C2325 1.287 . S
C2325 C2324 1.287 . S
C2325 C2326 1.524 . S
C2325 H2328 0.999 . S
C2326 H2296 0.950 . S
C2326 C2325 1.524 . S
C2326 C2327 1.415 . S
C2327 H2297 0.950 1_455 S
C2327 C2322 1.363 . S
C2327 C2326 1.415 . S
H2328 C2325 0.999 . S
H2329 C2310 0.913 . S
H2330 C2348 0.951 . S
H2331 C2350 0.951 . S
H2332 C2352 0.950 . S
H2333 C2353 0.950 . S
H2334 C2355 0.950 . S
H2335 C2358 0.950 . S
H2336 C2359 0.950 . S
H2337 C2361 0.950 . S
H2338 C2362 0.950 . S
H2339 C2363 0.951 . S
H2340 C2365 0.951 . S
H2341 C2367 0.950 . S
H2342 C2368 0.950 . S
H2343 C2370 0.950 . S
H2344 C2373 0.950 . S
H2345 C2374 0.950 . S
H2346 C2376 0.950 . S
H2347 C2377 0.950 . S
C2348 H2330 0.951 . S
C2348 C2349 1.366 . S
C2348 C2350 1.388 . S
C2349 C2348 1.366 . S
C2349 C2353 1.385 . S
C2350 H2331 0.951 . S
C2350 C2348 1.388 . S
C2350 C2351 1.366 . S
C2351 C2350 1.366 . S
C2351 C2352 1.414 . S
C2351 C2354 1.499 . S
C2352 H2332 0.950 . S
C2352 C2351 1.414 . S
C2352 C2353 1.374 . S
C2353 H2333 0.950 . S
C2353 C2349 1.385 . S
C2353 C2352 1.374 . S
C2354 C2351 1.499 . S
C2354 C2355 1.373 . S
C2354 C2356 1.389 . S
C2355 H2334 0.950 . S
C2355 C2354 1.373 . S
C2355 C2371 1.377 . S
C2356 C2354 1.389 . S
C2356 C2357 1.524 . S
C2356 C2370 1.377 . S
C2357 C2356 1.524 . S
C2357 C2358 1.397 . S
C2357 C2362 1.363 . S
C2358 H2335 0.950 . S
C2358 C2357 1.397 . S
C2358 C2359 1.334 . S
C2359 H2336 0.950 . S
C2359 C2358 1.334 . S
C2359 C2360 1.287 . S
C2360 C2359 1.287 . S
C2360 C2361 1.524 . S
C2360 H2379 0.913 . S
C2361 H2337 0.950 . S
C2361 C2360 1.524 . S
C2361 C2362 1.415 . S
C2362 H2338 0.950 . S
C2362 C2357 1.363 . S
C2362 C2361 1.415 . S
C2363 H2339 0.951 . S
C2363 C2364 1.366 . S
C2363 C2365 1.388 . S
C2364 C2363 1.366 . S
C2364 C2368 1.385 . S
C2365 H2340 0.951 . S
C2365 C2363 1.388 . S
C2365 C2366 1.366 . S
C2366 C2365 1.366 . S
C2366 C2367 1.414 . S
C2366 C2369 1.499 . S
C2367 H2341 0.950 . S
C2367 C2366 1.414 . S
C2367 C2368 1.374 . S
C2368 H2342 0.950 . S
C2368 C2364 1.385 . S
C2368 C2367 1.374 . S
C2369 C2366 1.499 . S
C2369 C2370 1.373 . S
C2369 C2371 1.389 . S
C2370 H2343 0.950 . S
C2370 C2356 1.377 . S
C2370 C2369 1.373 . S
C2371 C2355 1.377 . S
C2371 C2369 1.389 . S
C2371 C2372 1.524 . S
C2372 C2371 1.524 . S
C2372 C2373 1.397 . S
C2372 C2377 1.363 . S
C2373 H2344 0.950 . S
C2373 C2372 1.397 . S
C2373 C2374 1.334 . S
C2374 H2345 0.950 . S
C2374 C2373 1.334 . S
C2374 C2375 1.287 . S
C2375 C2374 1.287 . S
C2375 C2376 1.524 . S
C2375 H2378 0.999 . S
C2376 H2346 0.950 . S
C2376 C2375 1.524 . S
C2376 C2377 1.415 . S
C2377 H2347 0.950 . S
C2377 C2372 1.363 . S
C2377 C2376 1.415 . S
H2378 C2375 0.999 . S
H2379 C2360 0.913 . S
H2380 C2398 0.951 . S
H2381 C2400 0.951 . S
H2382 C2402 0.950 . S
H2383 C2403 0.950 . S
H2384 C2405 0.950 . S
H2385 C2408 0.950 . S
H2386 C2409 0.950 . S
H2387 C2411 0.950 . S
H2388 C2412 0.950 . S
H2389 C2413 0.951 . S
H2390 C2415 0.951 . S
H2391 C2417 0.950 . S
H2392 C2418 0.950 . S
H2393 C2420 0.950 . S
H2394 C2423 0.950 . S
H2395 C2424 0.950 . S
H2396 C2426 0.950 . S
H2397 C2427 0.955 . S
C2398 H2380 0.951 . S
C2398 C2399 1.366 . S
C2398 C2400 1.388 . S
C2399 C2398 1.366 . S
C2399 C2403 1.385 . S
C2400 H2381 0.951 . S
C2400 C2398 1.388 . S
C2400 C2401 1.366 . S
C2401 C2400 1.366 . S
C2401 C2402 1.414 . S
C2401 C2404 1.499 . S
C2402 H2382 0.950 . S
C2402 C2401 1.414 . S
C2402 C2403 1.374 . S
C2403 H2383 0.950 . S
C2403 C2399 1.385 . S
C2403 C2402 1.374 . S
C2404 C2401 1.499 . S
C2404 C2405 1.373 . S
C2404 C2406 1.389 . S
C2405 H2384 0.950 . S
C2405 C2404 1.373 . S
C2405 C2421 1.377 . S
C2406 C2404 1.389 . S
C2406 C2407 1.524 . S
C2406 C2420 1.377 . S
C2407 C2406 1.524 . S
C2407 C2408 1.397 . S
C2407 C2412 1.363 . S
C2408 H2385 0.950 . S
C2408 C2407 1.397 . S
C2408 C2409 1.334 . S
C2409 H2386 0.950 . S
C2409 C2408 1.334 . S
C2409 C2410 1.287 . S
C2410 C2409 1.287 . S
C2410 C2411 1.524 . S
C2410 H2429 0.913 . S
C2411 H2387 0.950 . S
C2411 C2410 1.524 . S
C2411 C2412 1.415 . S
C2412 H2388 0.950 . S
C2412 C2407 1.363 . S
C2412 C2411 1.415 . S
C2413 H2389 0.951 . S
C2413 C2414 1.366 . S
C2413 C2415 1.388 . S
C2414 C2413 1.366 . S
C2414 C2418 1.385 . S
C2415 H2390 0.951 . S
C2415 C2413 1.388 . S
C2415 C2416 1.366 . S
C2416 C2415 1.366 . S
C2416 C2417 1.414 . S
C2416 C2419 1.499 . S
C2417 H2391 0.950 . S
C2417 C2416 1.414 . S
C2417 C2418 1.374 . S
C2418 H2392 0.950 . S
C2418 C2414 1.385 . S
C2418 C2417 1.374 . S
C2419 C2416 1.499 . S
C2419 C2420 1.373 . S
C2419 C2421 1.389 . S
C2420 H2393 0.950 . S
C2420 C2406 1.377 . S
C2420 C2419 1.373 . S
C2421 C2405 1.377 . S
C2421 C2419 1.389 . S
C2421 C2422 1.524 . S
C2422 C2421 1.524 . S
C2422 C2423 1.397 . S
C2422 C2427 1.377 . S
C2423 H2394 0.950 . S
C2423 C2422 1.397 . S
C2423 C2424 1.334 1_545 S
C2424 H2395 0.950 . S
C2424 C2423 1.334 1_565 S
C2424 C2425 1.287 . S
C2425 C2424 1.287 . S
C2425 C2426 1.524 . S
C2425 H2428 0.999 . S
C2426 H2396 0.950 . S
C2426 C2425 1.524 . S
C2426 C2427 1.397 1_565 S
C2427 H2397 0.955 . S
C2427 C2422 1.377 . S
C2427 C2426 1.397 1_545 S
H2428 C2425 0.999 . S
H2429 C2410 0.913 . S
H2430 C2448 0.951 . S
H2431 C2450 0.951 . S
H2432 C2452 0.950 . S
H2433 C2453 0.950 . S
H2434 C2455 0.950 . S
H2435 C2458 0.950 . S
H2436 C2459 0.950 . S
H2437 C2461 0.950 . S
H2438 C2462 0.950 . S
H2439 C2463 0.951 . S
H2440 C2465 0.951 . S
H2441 C2467 0.950 . S
H2442 C2468 0.950 . S
H2443 C2470 0.950 . S
H2444 C2473 0.950 . S
H2445 C2474 0.950 . S
H2446 C2476 0.950 . S
H2447 C2477 0.950 . S
C2448 H2430 0.951 . S
C2448 C2449 1.366 . S
C2448 C2450 1.388 . S
C2449 C2448 1.366 . S
C2449 C2453 1.385 . S
C2450 H2431 0.951 . S
C2450 C2448 1.388 . S
C2450 C2451 1.366 . S
C2451 C2450 1.366 . S
C2451 C2452 1.414 . S
C2451 C2454 1.499 . S
C2452 H2432 0.950 . S
C2452 C2451 1.414 . S
C2452 C2453 1.374 . S
C2453 H2433 0.950 . S
C2453 C2449 1.385 . S
C2453 C2452 1.374 . S
C2454 C2451 1.499 . S
C2454 C2455 1.373 . S
C2454 C2456 1.389 . S
C2455 H2434 0.950 . S
C2455 C2454 1.373 . S
C2455 C2471 1.377 . S
C2456 C2454 1.389 . S
C2456 C2457 1.524 . S
C2456 C2470 1.377 . S
C2457 C2456 1.524 . S
C2457 C2458 1.397 . S
C2457 C2462 1.363 . S
C2458 H2435 0.950 . S
C2458 C2457 1.397 . S
C2458 C2459 1.334 . S
C2459 H2436 0.950 . S
C2459 C2458 1.334 . S
C2459 C2460 1.287 . S
C2460 C2459 1.287 . S
C2460 C2461 1.524 . S
C2460 H2479 0.913 . S
C2461 H2437 0.950 . S
C2461 C2460 1.524 . S
C2461 C2462 1.415 . S
C2462 H2438 0.950 . S
C2462 C2457 1.363 . S
C2462 C2461 1.415 . S
C2463 H2439 0.951 . S
C2463 C2464 1.366 . S
C2463 C2465 1.388 . S
C2464 C2463 1.366 . S
C2464 C2468 1.385 . S
C2465 H2440 0.951 . S
C2465 C2463 1.388 . S
C2465 C2466 1.366 . S
C2466 C2465 1.366 . S
C2466 C2467 1.414 . S
C2466 C2469 1.499 . S
C2467 H2441 0.950 . S
C2467 C2466 1.414 . S
C2467 C2468 1.374 . S
C2468 H2442 0.950 . S
C2468 C2464 1.385 . S
C2468 C2467 1.374 . S
C2469 C2466 1.499 . S
C2469 C2470 1.373 . S
C2469 C2471 1.389 . S
C2470 H2443 0.950 . S
C2470 C2456 1.377 . S
C2470 C2469 1.373 . S
C2471 C2455 1.377 . S
C2471 C2469 1.389 . S
C2471 C2472 1.524 . S
C2472 C2471 1.524 . S
C2472 C2473 1.397 . S
C2472 C2477 1.363 . S
C2473 H2444 0.950 . S
C2473 C2472 1.397 . S
C2473 C2474 1.334 . S
C2474 H2445 0.950 . S
C2474 C2473 1.334 . S
C2474 C2475 1.287 . S
C2475 C2474 1.287 . S
C2475 C2476 1.524 . S
C2475 H2478 0.999 . S
C2476 H2446 0.950 . S
C2476 C2475 1.524 . S
C2476 C2477 1.415 . S
C2477 H2447 0.950 . S
C2477 C2472 1.363 . S
C2477 C2476 1.415 . S
H2478 C2475 0.999 . S
H2479 C2460 0.913 . S
H2480 C2498 0.951 . S
H2481 C2500 0.951 . S
H2482 C2502 0.950 . S
H2483 C2503 0.950 . S
H2484 C2505 0.950 . S
H2485 C2508 0.950 . S
H2486 C2509 0.950 . S
H2487 C2511 0.950 . S
H2488 C2512 0.950 . S
H2489 C2513 0.951 . S
H2490 C2515 0.951 . S
H2491 C2517 0.950 . S
H2492 C2518 0.950 . S
H2493 C2520 0.960 . S
H2494 C2523 0.945 . S
H2495 C2524 0.950 . S
H2496 C2526 0.950 . S
H2497 C2527 0.950 . S
C2498 H2480 0.951 . S
C2498 C2499 1.366 . S
C2498 C2500 1.388 . S
C2499 C2498 1.366 . S
C2499 C2503 1.385 . S
C2500 H2481 0.951 . S
C2500 C2498 1.388 . S
C2500 C2501 1.366 . S
C2501 C2500 1.366 . S
C2501 C2502 1.414 . S
C2501 C2504 1.499 . S
C2502 H2482 0.950 . S
C2502 C2501 1.414 . S
C2502 C2503 1.374 . S
C2503 H2483 0.950 . S
C2503 C2499 1.385 . S
C2503 C2502 1.374 . S
C2504 C2501 1.499 . S
C2504 C2505 1.373 . S
C2504 C2506 1.389 . S
C2505 H2484 0.950 . S
C2505 C2504 1.373 . S
C2505 C2521 1.377 . S
C2506 C2504 1.389 . S
C2506 C2507 1.524 1_554 S
C2506 C2520 1.377 . S
C2507 C2506 1.524 1_556 S
C2507 C2508 1.397 . S
C2507 C2512 1.363 . S
C2508 H2485 0.950 . S
C2508 C2507 1.397 . S
C2508 C2509 1.334 . S
C2509 H2486 0.950 . S
C2509 C2508 1.334 . S
C2509 C2510 1.287 . S
C2510 C2509 1.287 . S
C2510 C2511 1.524 . S
C2510 H2529 0.913 . S
C2511 H2487 0.950 . S
C2511 C2510 1.524 . S
C2511 C2512 1.415 . S
C2512 H2488 0.950 . S
C2512 C2507 1.363 . S
C2512 C2511 1.415 . S
C2513 H2489 0.951 . S
C2513 C2514 1.366 . S
C2513 C2515 1.388 . S
C2514 C2513 1.366 . S
C2514 C2518 1.385 1_545 S
C2515 H2490 0.951 . S
C2515 C2513 1.388 . S
C2515 C2516 1.366 1_545 S
C2516 C2515 1.366 1_565 S
C2516 C2517 1.414 . S
C2516 C2519 1.499 . S
C2517 H2491 0.950 . S
C2517 C2516 1.414 . S
C2517 C2518 1.374 . S
C2518 H2492 0.950 . S
C2518 C2514 1.385 1_565 S
C2518 C2517 1.374 . S
C2519 C2516 1.499 . S
C2519 C2520 1.373 . S
C2519 C2521 1.389 . S
C2520 H2493 0.960 . S
C2520 C2506 1.377 . S
C2520 C2519 1.373 . S
C2521 C2505 1.377 . S
C2521 C2519 1.389 . S
C2521 C2522 1.524 1_565 S
C2522 C2521 1.524 1_545 S
C2522 C2523 1.398 1_545 S
C2522 C2527 1.363 . S
C2523 H2494 0.945 . S
C2523 C2522 1.398 1_565 S
C2523 C2524 1.337 1_565 S
C2524 H2495 0.950 . S
C2524 C2523 1.337 1_545 S
C2524 C2525 1.287 . S
C2525 C2524 1.287 . S
C2525 C2526 1.524 . S
C2525 H2528 0.999 . S
C2526 H2496 0.950 . S
C2526 C2525 1.524 . S
C2526 C2527 1.415 . S
C2527 H2497 0.950 . S
C2527 C2522 1.363 . S
C2527 C2526 1.415 . S
H2528 C2525 0.999 . S
H2529 C2510 0.913 . S
H2530 C2548 0.951 . S
H2531 C2550 0.951 . S
H2532 C2552 0.950 . S
H2533 C2553 0.950 . S
H2534 C2555 0.950 . S
H2535 C2558 0.950 . S
H2536 C2559 0.950 . S
H2537 C2561 0.986 . S
H2538 C2562 0.950 . S
H2539 C2563 0.951 . S
H2540 C2565 0.951 . S
H2541 C2567 0.950 . S
H2542 C2568 0.950 . S
H2543 C2570 0.950 . S
H2544 C2573 0.950 . S
H2545 C2574 0.950 . S
H2546 C2576 0.948 . S
H2547 C2577 0.950 . S
C2548 H2530 0.951 . S
C2548 C2549 1.366 . S
C2548 C2550 1.388 . S
C2549 C2548 1.366 . S
C2549 C2553 1.385 1_556 S
C2550 H2531 0.951 . S
C2550 C2548 1.388 . S
C2550 C2551 1.366 . S
C2551 C2550 1.366 . S
C2551 C2552 1.414 1_556 S
C2551 C2554 1.497 . S
C2552 H2532 0.950 . S
C2552 C2551 1.414 1_554 S
C2552 C2553 1.374 . S
C2553 H2533 0.950 . S
C2553 C2549 1.385 1_554 S
C2553 C2552 1.374 . S
C2554 C2551 1.497 . S
C2554 C2555 1.374 . S
C2554 C2556 1.390 1_556 S
C2555 H2534 0.950 . S
C2555 C2554 1.374 . S
C2555 C2571 1.377 . S
C2556 C2554 1.390 1_554 S
C2556 C2557 1.524 . S
C2556 C2570 1.377 . S
C2557 C2556 1.524 . S
C2557 C2558 1.397 . S
C2557 C2562 1.363 1_554 S
C2558 H2535 0.950 . S
C2558 C2557 1.397 . S
C2558 C2559 1.334 . S
C2559 H2536 0.950 . S
C2559 C2558 1.334 . S
C2559 C2560 1.287 . S
C2560 C2559 1.287 . S
C2560 C2561 1.483 1_554 S
C2560 H2579 0.913 . S
C2561 H2537 0.986 . S
C2561 C2560 1.483 1_556 S
C2561 C2562 1.417 . S
C2562 H2538 0.950 . S
C2562 C2557 1.363 1_556 S
C2562 C2561 1.417 . S
C2563 H2539 0.951 . S
C2563 C2564 1.366 . S
C2563 C2565 1.388 . S
C2564 C2563 1.366 . S
C2564 C2568 1.385 1_554 S
C2565 H2540 0.951 . S
C2565 C2563 1.388 . S
C2565 C2566 1.387 . S
C2566 C2565 1.387 . S
C2566 C2567 1.399 1_554 S
C2566 C2569 1.483 1_554 S
C2567 H2541 0.950 . S
C2567 C2566 1.399 1_556 S
C2567 C2568 1.374 . S
C2568 H2542 0.950 . S
C2568 C2564 1.385 1_556 S
C2568 C2567 1.374 . S
C2569 C2566 1.483 1_556 S
C2569 C2570 1.379 1_556 S
C2569 C2571 1.393 . S
C2570 H2543 0.950 . S
C2570 C2556 1.377 . S
C2570 C2569 1.379 1_554 S
C2571 C2555 1.377 . S
C2571 C2569 1.393 . S
C2571 C2572 1.524 . S
C2572 C2571 1.524 . S
C2572 C2573 1.397 . S
C2572 C2577 1.363 1_556 S
C2573 H2544 0.950 . S
C2573 C2572 1.397 . S
C2573 C2574 1.334 . S
C2574 H2545 0.950 . S
C2574 C2573 1.334 . S
C2574 C2575 1.287 . S
C2575 C2574 1.287 . S
C2575 C2576 1.526 1_556 S
C2575 H2578 0.999 . S
C2576 H2546 0.948 . S
C2576 C2575 1.526 1_554 S
C2576 C2577 1.415 . S
C2577 H2547 0.950 . S
C2577 C2572 1.363 1_554 S
C2577 C2576 1.415 . S
H2578 C2575 0.999 . S
H2579 C2560 0.913 . S
H2580 C2598 0.951 . S
H2581 C2600 0.951 . S
H2582 C2602 0.950 . S
H2583 C2603 0.950 . S
H2584 C2605 0.950 . S
H2585 C2608 0.950 . S
H2586 C2609 0.950 . S
H2587 C2611 0.950 . S
H2588 C2612 0.950 . S
H2589 C2613 0.951 . S
H2590 C2615 0.951 . S
H2591 C2617 0.950 . S
H2592 C2618 0.950 . S
H2593 C2620 0.950 . S
H2594 C2623 0.950 . S
H2595 C2624 0.950 . S
H2596 C2626 0.950 . S
H2597 C2627 0.950 . S
C2598 H2580 0.951 . S
C2598 C2599 1.366 . S
C2598 C2600 1.388 . S
C2599 C2598 1.366 . S
C2599 C2603 1.385 . S
C2600 H2581 0.951 . S
C2600 C2598 1.388 . S
C2600 C2601 1.366 . S
C2601 C2600 1.366 . S
C2601 C2602 1.414 . S
C2601 C2604 1.499 . S
C2602 H2582 0.950 . S
C2602 C2601 1.414 . S
C2602 C2603 1.374 . S
C2603 H2583 0.950 . S
C2603 C2599 1.385 . S
C2603 C2602 1.374 . S
C2604 C2601 1.499 . S
C2604 C2605 1.373 . S
C2604 C2606 1.389 . S
C2605 H2584 0.950 . S
C2605 C2604 1.373 . S
C2605 C2621 1.377 . S
C2606 C2604 1.389 . S
C2606 C2607 1.524 . S
C2606 C2620 1.377 . S
C2607 C2606 1.524 . S
C2607 C2608 1.397 . S
C2607 C2612 1.363 . S
C2608 H2585 0.950 . S
C2608 C2607 1.397 . S
C2608 C2609 1.334 . S
C2609 H2586 0.950 . S
C2609 C2608 1.334 . S
C2609 C2610 1.287 . S
C2610 C2609 1.287 . S
C2610 C2611 1.524 . S
C2610 H2629 0.913 . S
C2611 H2587 0.950 . S
C2611 C2610 1.524 . S
C2611 C2612 1.415 . S
C2612 H2588 0.950 . S
C2612 C2607 1.363 . S
C2612 C2611 1.415 . S
C2613 H2589 0.951 . S
C2613 C2614 1.366 . S
C2613 C2615 1.388 . S
C2614 C2613 1.366 . S
C2614 C2618 1.385 . S
C2615 H2590 0.951 . S
C2615 C2613 1.388 . S
C2615 C2616 1.366 . S
C2616 C2615 1.366 . S
C2616 C2617 1.414 . S
C2616 C2619 1.499 . S
C2617 H2591 0.950 . S
C2617 C2616 1.414 . S
C2617 C2618 1.374 . S
C2618 H2592 0.950 . S
C2618 C2614 1.385 . S
C2618 C2617 1.374 . S
C2619 C2616 1.499 . S
C2619 C2620 1.373 . S
C2619 C2621 1.389 . S
C2620 H2593 0.950 . S
C2620 C2606 1.377 . S
C2620 C2619 1.373 . S
C2621 C2605 1.377 . S
C2621 C2619 1.389 . S
C2621 C2622 1.524 . S
C2622 C2621 1.524 . S
C2622 C2623 1.397 . S
C2622 C2627 1.363 . S
C2623 H2594 0.950 . S
C2623 C2622 1.397 . S
C2623 C2624 1.334 . S
C2624 H2595 0.950 . S
C2624 C2623 1.334 . S
C2624 C2625 1.287 . S
C2625 C2624 1.287 . S
C2625 C2626 1.524 . S
C2625 H2628 0.999 . S
C2626 H2596 0.950 . S
C2626 C2625 1.524 . S
C2626 C2627 1.415 . S
C2627 H2597 0.950 . S
C2627 C2622 1.363 . S
C2627 C2626 1.415 . S
H2628 C2625 0.999 . S
H2629 C2610 0.913 . S
H2630 C2648 0.951 . S
H2631 C2650 0.951 . S
H2632 C2652 0.950 . S
H2633 C2653 0.950 . S
H2634 C2655 0.950 . S
H2635 C2658 0.950 . S
H2636 C2659 0.950 . S
H2637 C2661 0.950 . S
H2638 C2662 0.950 . S
H2639 C2663 0.951 1_455 S
H2640 C2665 0.951 . S
H2641 C2667 0.950 . S
H2642 C2668 0.950 . S
H2643 C2670 0.950 . S
H2644 C2673 0.950 . S
H2645 C2674 0.950 . S
H2646 C2676 0.950 . S
H2647 C2677 0.950 . S
C2648 H2630 0.951 . S
C2648 C2649 1.366 . S
C2648 C2650 1.388 . S
C2649 C2648 1.366 . S
C2649 C2653 1.385 . S
C2650 H2631 0.951 . S
C2650 C2648 1.388 . S
C2650 C2651 1.366 . S
C2651 C2650 1.366 . S
C2651 C2652 1.414 . S
C2651 C2654 1.499 . S
C2652 H2632 0.950 . S
C2652 C2651 1.414 . S
C2652 C2653 1.374 . S
C2653 H2633 0.950 . S
C2653 C2649 1.385 . S
C2653 C2652 1.374 . S
C2654 C2651 1.499 . S
C2654 C2655 1.373 . S
C2654 C2656 1.389 . S
C2655 H2634 0.950 . S
C2655 C2654 1.373 . S
C2655 C2671 1.377 . S
C2656 C2654 1.389 . S
C2656 C2657 1.524 . S
C2656 C2670 1.377 . S
C2657 C2656 1.524 . S
C2657 C2658 1.397 . S
C2657 C2662 1.363 . S
C2658 H2635 0.950 . S
C2658 C2657 1.397 . S
C2658 C2659 1.334 . S
C2659 H2636 0.950 . S
C2659 C2658 1.334 . S
C2659 C2660 1.287 . S
C2660 C2659 1.287 . S
C2660 C2661 1.524 . S
C2660 H2679 0.913 . S
C2661 H2637 0.950 . S
C2661 C2660 1.524 . S
C2661 C2662 1.415 . S
C2662 H2638 0.950 . S
C2662 C2657 1.363 . S
C2662 C2661 1.415 . S
C2663 H2639 0.951 1_655 S
C2663 C2664 1.366 1_655 S
C2663 C2665 1.388 . S
C2664 C2663 1.366 1_455 S
C2664 C2668 1.385 . S
C2665 H2640 0.951 . S
C2665 C2663 1.388 . S
C2665 C2666 1.366 . S
C2666 C2665 1.366 . S
C2666 C2667 1.414 . S
C2666 C2669 1.499 . S
C2667 H2641 0.950 . S
C2667 C2666 1.414 . S
C2667 C2668 1.374 1_655 S
C2668 H2642 0.950 . S
C2668 C2664 1.385 . S
C2668 C2667 1.374 1_455 S
C2669 C2666 1.499 . S
C2669 C2670 1.373 . S
C2669 C2671 1.389 . S
C2670 H2643 0.950 . S
C2670 C2656 1.377 . S
C2670 C2669 1.373 . S
C2671 C2655 1.377 . S
C2671 C2669 1.389 . S
C2671 C2672 1.524 . S
C2672 C2671 1.524 . S
C2672 C2673 1.397 . S
C2672 C2677 1.363 . S
C2673 H2644 0.950 . S
C2673 C2672 1.397 . S
C2673 C2674 1.334 . S
C2674 H2645 0.950 . S
C2674 C2673 1.334 . S
C2674 C2675 1.287 . S
C2675 C2674 1.287 . S
C2675 C2676 1.524 . S
C2675 H2678 0.999 . S
C2676 H2646 0.950 . S
C2676 C2675 1.524 . S
C2676 C2677 1.415 . S
C2677 H2647 0.950 . S
C2677 C2672 1.363 . S
C2677 C2676 1.415 . S
H2678 C2675 0.999 . S
H2679 C2660 0.913 . S
H2680 C2698 0.951 . S
H2681 C2700 0.951 . S
H2682 C2702 0.950 . S
H2683 C2703 0.950 . S
H2684 C2705 0.950 . S
H2685 C2708 0.950 . S
H2686 C2709 0.950 . S
H2687 C2711 0.950 . S
H2688 C2712 0.950 . S
H2689 C2713 0.951 . S
H2690 C2715 0.951 . S
H2691 C2717 0.950 . S
H2692 C2718 0.950 . S
H2693 C2720 0.950 . S
H2694 C2723 0.950 . S
H2695 C2724 0.950 . S
H2696 C2726 0.950 . S
H2697 C2727 0.950 . S
C2698 H2680 0.951 . S
C2698 C2699 1.366 . S
C2698 C2700 1.388 . S
C2699 C2698 1.366 . S
C2699 C2703 1.385 . S
C2700 H2681 0.951 . S
C2700 C2698 1.388 . S
C2700 C2701 1.366 . S
C2701 C2700 1.366 . S
C2701 C2702 1.414 . S
C2701 C2704 1.499 . S
C2702 H2682 0.950 . S
C2702 C2701 1.414 . S
C2702 C2703 1.374 . S
C2703 H2683 0.950 . S
C2703 C2699 1.385 . S
C2703 C2702 1.374 . S
C2704 C2701 1.499 . S
C2704 C2705 1.373 . S
C2704 C2706 1.389 . S
C2705 H2684 0.950 . S
C2705 C2704 1.373 . S
C2705 C2721 1.377 . S
C2706 C2704 1.389 . S
C2706 C2707 1.524 . S
C2706 C2720 1.377 . S
C2707 C2706 1.524 . S
C2707 C2708 1.397 . S
C2707 C2712 1.363 . S
C2708 H2685 0.950 . S
C2708 C2707 1.397 . S
C2708 C2709 1.334 . S
C2709 H2686 0.950 . S
C2709 C2708 1.334 . S
C2709 C2710 1.287 . S
C2710 C2709 1.287 . S
C2710 C2711 1.524 . S
C2710 H2729 0.913 . S
C2711 H2687 0.950 . S
C2711 C2710 1.524 . S
C2711 C2712 1.415 . S
C2712 H2688 0.950 . S
C2712 C2707 1.363 . S
C2712 C2711 1.415 . S
C2713 H2689 0.951 . S
C2713 C2714 1.366 . S
C2713 C2715 1.388 . S
C2714 C2713 1.366 . S
C2714 C2718 1.385 . S
C2715 H2690 0.951 . S
C2715 C2713 1.388 . S
C2715 C2716 1.366 . S
C2716 C2715 1.366 . S
C2716 C2717 1.414 . S
C2716 C2719 1.499 . S
C2717 H2691 0.950 . S
C2717 C2716 1.414 . S
C2717 C2718 1.374 . S
C2718 H2692 0.950 . S
C2718 C2714 1.385 . S
C2718 C2717 1.374 . S
C2719 C2716 1.499 . S
C2719 C2720 1.373 . S
C2719 C2721 1.389 . S
C2720 H2693 0.950 . S
C2720 C2706 1.377 . S
C2720 C2719 1.373 . S
C2721 C2705 1.377 . S
C2721 C2719 1.389 . S
C2721 C2722 1.524 . S
C2722 C2721 1.524 . S
C2722 C2723 1.397 . S
C2722 C2727 1.363 . S
C2723 H2694 0.950 . S
C2723 C2722 1.397 . S
C2723 C2724 1.334 . S
C2724 H2695 0.950 . S
C2724 C2723 1.334 . S
C2724 C2725 1.287 . S
C2725 C2724 1.287 . S
C2725 C2726 1.524 . S
C2725 H2728 0.999 . S
C2726 H2696 0.950 . S
C2726 C2725 1.524 . S
C2726 C2727 1.415 . S
C2727 H2697 0.950 . S
C2727 C2722 1.363 . S
C2727 C2726 1.415 . S
H2728 C2725 0.999 . S
H2729 C2710 0.913 . S
H2730 C2748 0.951 . S
H2731 C2750 0.951 . S
H2732 C2752 0.950 . S
H2733 C2753 0.950 . S
H2734 C2755 0.950 . S
H2735 C2758 0.950 . S
H2736 C2759 0.950 . S
H2737 C2761 0.950 . S
H2738 C2762 0.950 . S
H2739 C2763 0.951 . S
H2740 C2765 0.951 . S
H2741 C2767 0.950 . S
H2742 C2768 0.950 . S
H2743 C2770 0.950 . S
H2744 C2773 0.950 . S
H2745 C2774 0.950 . S
H2746 C2776 0.950 . S
H2747 C2777 0.950 . S
C2748 H2730 0.951 . S
C2748 C2749 1.366 . S
C2748 C2750 1.388 . S
C2749 C2748 1.366 . S
C2749 C2753 1.385 . S
C2750 H2731 0.951 . S
C2750 C2748 1.388 . S
C2750 C2751 1.366 . S
C2751 C2750 1.366 . S
C2751 C2752 1.414 . S
C2751 C2754 1.499 . S
C2752 H2732 0.950 . S
C2752 C2751 1.414 . S
C2752 C2753 1.374 . S
C2753 H2733 0.950 . S
C2753 C2749 1.385 . S
C2753 C2752 1.374 . S
C2754 C2751 1.499 . S
C2754 C2755 1.373 . S
C2754 C2756 1.389 . S
C2755 H2734 0.950 . S
C2755 C2754 1.373 . S
C2755 C2771 1.377 . S
C2756 C2754 1.389 . S
C2756 C2757 1.524 . S
C2756 C2770 1.377 . S
C2757 C2756 1.524 . S
C2757 C2758 1.397 . S
C2757 C2762 1.363 . S
C2758 H2735 0.950 . S
C2758 C2757 1.397 . S
C2758 C2759 1.334 . S
C2759 H2736 0.950 . S
C2759 C2758 1.334 . S
C2759 C2760 1.287 . S
C2760 C2759 1.287 . S
C2760 C2761 1.524 . S
C2760 H2779 0.913 . S
C2761 H2737 0.950 . S
C2761 C2760 1.524 . S
C2761 C2762 1.415 . S
C2762 H2738 0.950 . S
C2762 C2757 1.363 . S
C2762 C2761 1.415 . S
C2763 H2739 0.951 . S
C2763 C2764 1.366 . S
C2763 C2765 1.388 . S
C2764 C2763 1.366 . S
C2764 C2768 1.385 . S
C2765 H2740 0.951 . S
C2765 C2763 1.388 . S
C2765 C2766 1.366 . S
C2766 C2765 1.366 . S
C2766 C2767 1.414 . S
C2766 C2769 1.499 . S
C2767 H2741 0.950 . S
C2767 C2766 1.414 . S
C2767 C2768 1.374 . S
C2768 H2742 0.950 . S
C2768 C2764 1.385 . S
C2768 C2767 1.374 . S
C2769 C2766 1.499 . S
C2769 C2770 1.373 . S
C2769 C2771 1.389 . S
C2770 H2743 0.950 . S
C2770 C2756 1.377 . S
C2770 C2769 1.373 . S
C2771 C2755 1.377 . S
C2771 C2769 1.389 . S
C2771 C2772 1.524 . S
C2772 C2771 1.524 . S
C2772 C2773 1.397 . S
C2772 C2777 1.363 . S
C2773 H2744 0.950 . S
C2773 C2772 1.397 . S
C2773 C2774 1.334 . S
C2774 H2745 0.950 . S
C2774 C2773 1.334 . S
C2774 C2775 1.287 . S
C2775 C2774 1.287 . S
C2775 C2776 1.524 . S
C2775 H2778 0.999 . S
C2776 H2746 0.950 . S
C2776 C2775 1.524 . S
C2776 C2777 1.415 . S
C2777 H2747 0.950 . S
C2777 C2772 1.363 . S
C2777 C2776 1.415 . S
H2778 C2775 0.999 . S
H2779 C2760 0.913 . S
H2780 C2798 0.951 . S
H2781 C2800 0.951 . S
H2782 C2802 0.950 . S
H2783 C2803 0.950 . S
H2784 C2805 0.950 . S
H2785 C2808 0.950 . S
H2786 C2809 0.950 . S
H2787 C2811 0.950 . S
H2788 C2812 0.950 . S
H2789 C2813 0.951 . S
H2790 C2815 0.951 . S
H2791 C2817 0.950 . S
H2792 C2818 0.950 . S
H2793 C2820 0.950 . S
H2794 C2823 0.950 . S
H2795 C2824 0.950 . S
H2796 C2826 0.950 . S
H2797 C2827 0.950 . S
C2798 H2780 0.951 . S
C2798 C2799 1.366 . S
C2798 C2800 1.388 . S
C2799 C2798 1.366 . S
C2799 C2803 1.385 . S
C2800 H2781 0.951 . S
C2800 C2798 1.388 . S
C2800 C2801 1.366 . S
C2801 C2800 1.366 . S
C2801 C2802 1.414 . S
C2801 C2804 1.499 . S
C2802 H2782 0.950 . S
C2802 C2801 1.414 . S
C2802 C2803 1.374 . S
C2803 H2783 0.950 . S
C2803 C2799 1.385 . S
C2803 C2802 1.374 . S
C2804 C2801 1.499 . S
C2804 C2805 1.373 . S
C2804 C2806 1.389 . S
C2805 H2784 0.950 . S
C2805 C2804 1.373 . S
C2805 C2821 1.377 . S
C2806 C2804 1.389 . S
C2806 C2807 1.524 . S
C2806 C2820 1.377 . S
C2807 C2806 1.524 . S
C2807 C2808 1.397 . S
C2807 C2812 1.363 . S
C2808 H2785 0.950 . S
C2808 C2807 1.397 . S
C2808 C2809 1.334 . S
C2809 H2786 0.950 . S
C2809 C2808 1.334 . S
C2809 C2810 1.287 . S
C2810 C2809 1.287 . S
C2810 C2811 1.524 . S
C2810 H2829 0.913 . S
C2811 H2787 0.950 . S
C2811 C2810 1.524 . S
C2811 C2812 1.415 . S
C2812 H2788 0.950 . S
C2812 C2807 1.363 . S
C2812 C2811 1.415 . S
C2813 H2789 0.951 . S
C2813 C2814 1.366 . S
C2813 C2815 1.388 . S
C2814 C2813 1.366 . S
C2814 C2818 1.385 . S
C2815 H2790 0.951 . S
C2815 C2813 1.388 . S
C2815 C2816 1.366 . S
C2816 C2815 1.366 . S
C2816 C2817 1.414 . S
C2816 C2819 1.499 . S
C2817 H2791 0.950 . S
C2817 C2816 1.414 . S
C2817 C2818 1.374 . S
C2818 H2792 0.950 . S
C2818 C2814 1.385 . S
C2818 C2817 1.374 . S
C2819 C2816 1.499 . S
C2819 C2820 1.373 . S
C2819 C2821 1.389 . S
C2820 H2793 0.950 . S
C2820 C2806 1.377 . S
C2820 C2819 1.373 . S
C2821 C2805 1.377 . S
C2821 C2819 1.389 . S
C2821 C2822 1.524 . S
C2822 C2821 1.524 . S
C2822 C2823 1.397 . S
C2822 C2827 1.363 . S
C2823 H2794 0.950 . S
C2823 C2822 1.397 . S
C2823 C2824 1.334 . S
C2824 H2795 0.950 . S
C2824 C2823 1.334 . S
C2824 C2825 1.287 . S
C2825 C2824 1.287 . S
C2825 C2826 1.524 . S
C2825 H2828 0.999 . S
C2826 H2796 0.950 . S
C2826 C2825 1.524 . S
C2826 C2827 1.415 . S
C2827 H2797 0.950 . S
C2827 C2822 1.363 . S
C2827 C2826 1.415 . S
H2828 C2825 0.999 . S
H2829 C2810 0.913 . S
H2830 C2848 0.951 . S
H2831 C2850 0.951 . S
H2832 C2852 0.950 . S
H2833 C2853 0.950 . S
H2834 C2855 0.950 . S
H2835 C2858 0.950 . S
H2836 C2859 0.950 . S
H2837 C2861 0.950 . S
H2838 C2862 0.950 . S
H2839 C2863 0.951 . S
H2840 C2865 0.951 . S
H2841 C2867 0.950 . S
H2842 C2868 0.950 . S
H2843 C2870 0.950 . S
H2844 C2873 0.950 . S
H2845 C2874 0.950 . S
H2846 C2876 0.950 . S
H2847 C2877 0.950 . S
C2848 H2830 0.951 . S
C2848 C2849 1.366 . S
C2848 C2850 1.388 . S
C2849 C2848 1.366 . S
C2849 C2853 1.385 . S
C2850 H2831 0.951 . S
C2850 C2848 1.388 . S
C2850 C2851 1.366 . S
C2851 C2850 1.366 . S
C2851 C2852 1.414 . S
C2851 C2854 1.499 . S
C2852 H2832 0.950 . S
C2852 C2851 1.414 . S
C2852 C2853 1.374 . S
C2853 H2833 0.950 . S
C2853 C2849 1.385 . S
C2853 C2852 1.374 . S
C2854 C2851 1.499 . S
C2854 C2855 1.373 . S
C2854 C2856 1.389 . S
C2855 H2834 0.950 . S
C2855 C2854 1.373 . S
C2855 C2871 1.377 . S
C2856 C2854 1.389 . S
C2856 C2857 1.524 . S
C2856 C2870 1.377 . S
C2857 C2856 1.524 . S
C2857 C2858 1.397 . S
C2857 C2862 1.363 . S
C2858 H2835 0.950 . S
C2858 C2857 1.397 . S
C2858 C2859 1.334 . S
C2859 H2836 0.950 . S
C2859 C2858 1.334 . S
C2859 C2860 1.287 . S
C2860 C2859 1.287 . S
C2860 C2861 1.524 . S
C2860 H2879 0.913 . S
C2861 H2837 0.950 . S
C2861 C2860 1.524 . S
C2861 C2862 1.415 . S
C2862 H2838 0.950 . S
C2862 C2857 1.363 . S
C2862 C2861 1.415 . S
C2863 H2839 0.951 . S
C2863 C2864 1.366 . S
C2863 C2865 1.388 . S
C2864 C2863 1.366 . S
C2864 C2868 1.385 . S
C2865 H2840 0.951 . S
C2865 C2863 1.388 . S
C2865 C2866 1.366 . S
C2866 C2865 1.366 . S
C2866 C2867 1.414 . S
C2866 C2869 1.499 . S
C2867 H2841 0.950 . S
C2867 C2866 1.414 . S
C2867 C2868 1.374 . S
C2868 H2842 0.950 . S
C2868 C2864 1.385 . S
C2868 C2867 1.374 . S
C2869 C2866 1.499 . S
C2869 C2870 1.373 . S
C2869 C2871 1.389 . S
C2870 H2843 0.950 . S
C2870 C2856 1.377 . S
C2870 C2869 1.373 . S
C2871 C2855 1.377 . S
C2871 C2869 1.389 . S
C2871 C2872 1.524 . S
C2872 C2871 1.524 . S
C2872 C2873 1.397 . S
C2872 C2877 1.363 . S
C2873 H2844 0.950 . S
C2873 C2872 1.397 . S
C2873 C2874 1.334 . S
C2874 H2845 0.950 . S
C2874 C2873 1.334 . S
C2874 C2875 1.287 . S
C2875 C2874 1.287 . S
C2875 C2876 1.524 . S
C2875 H2878 0.999 . S
C2876 H2846 0.950 . S
C2876 C2875 1.524 . S
C2876 C2877 1.415 . S
C2877 H2847 0.950 . S
C2877 C2872 1.363 . S
C2877 C2876 1.415 . S
H2878 C2875 0.999 . S
H2879 C2860 0.913 . S
H2880 C2898 0.951 . S
H2881 C2900 0.951 . S
H2882 C2902 0.950 . S
H2883 C2903 0.950 . S
H2884 C2905 0.950 . S
H2885 C2908 0.950 . S
H2886 C2909 0.950 . S
H2887 C2911 0.950 . S
H2888 C2912 0.950 . S
H2889 C2913 0.951 . S
H2890 C2915 0.951 . S
H2891 C2917 0.950 . S
H2892 C2918 0.950 . S
H2893 C2920 0.950 . S
H2894 C2923 0.950 . S
H2895 C2924 0.950 . S
H2896 C2926 0.950 . S
H2897 C2927 0.950 . S
C2898 H2880 0.951 . S
C2898 C2899 1.366 . S
C2898 C2900 1.388 . S
C2899 C2898 1.366 . S
C2899 C2903 1.385 . S
C2900 H2881 0.951 . S
C2900 C2898 1.388 . S
C2900 C2901 1.366 . S
C2901 C2900 1.366 . S
C2901 C2902 1.414 . S
C2901 C2904 1.499 . S
C2902 H2882 0.950 . S
C2902 C2901 1.414 . S
C2902 C2903 1.374 . S
C2903 H2883 0.950 . S
C2903 C2899 1.385 . S
C2903 C2902 1.374 . S
C2904 C2901 1.499 . S
C2904 C2905 1.373 . S
C2904 C2906 1.389 . S
C2905 H2884 0.950 . S
C2905 C2904 1.373 . S
C2905 C2921 1.377 . S
C2906 C2904 1.389 . S
C2906 C2907 1.524 . S
C2906 C2920 1.377 . S
C2907 C2906 1.524 . S
C2907 C2908 1.397 . S
C2907 C2912 1.363 . S
C2908 H2885 0.950 . S
C2908 C2907 1.397 . S
C2908 C2909 1.334 . S
C2909 H2886 0.950 . S
C2909 C2908 1.334 . S
C2909 C2910 1.287 . S
C2910 C2909 1.287 . S
C2910 C2911 1.524 . S
C2910 H2929 0.913 . S
C2911 H2887 0.950 . S
C2911 C2910 1.524 . S
C2911 C2912 1.415 . S
C2912 H2888 0.950 . S
C2912 C2907 1.363 . S
C2912 C2911 1.415 . S
C2913 H2889 0.951 . S
C2913 C2914 1.366 . S
C2913 C2915 1.388 . S
C2914 C2913 1.366 . S
C2914 C2918 1.385 . S
C2915 H2890 0.951 . S
C2915 C2913 1.388 . S
C2915 C2916 1.366 . S
C2916 C2915 1.366 . S
C2916 C2917 1.414 . S
C2916 C2919 1.499 . S
C2917 H2891 0.950 . S
C2917 C2916 1.414 . S
C2917 C2918 1.374 . S
C2918 H2892 0.950 . S
C2918 C2914 1.385 . S
C2918 C2917 1.374 . S
C2919 C2916 1.499 . S
C2919 C2920 1.373 . S
C2919 C2921 1.389 . S
C2920 H2893 0.950 . S
C2920 C2906 1.377 . S
C2920 C2919 1.373 . S
C2921 C2905 1.377 . S
C2921 C2919 1.389 . S
C2921 C2922 1.524 . S
C2922 C2921 1.524 . S
C2922 C2923 1.397 . S
C2922 C2927 1.363 . S
C2923 H2894 0.950 . S
C2923 C2922 1.397 . S
C2923 C2924 1.334 1_554 S
C2924 H2895 0.950 . S
C2924 C2923 1.334 1_556 S
C2924 C2925 1.287 . S
C2925 C2924 1.287 . S
C2925 C2926 1.524 . S
C2925 H2928 0.999 . S
C2926 H2896 0.950 . S
C2926 C2925 1.524 . S
C2926 C2927 1.415 1_556 S
C2927 H2897 0.950 . S
C2927 C2922 1.363 . S
C2927 C2926 1.415 1_554 S
H2928 C2925 0.999 . S
H2929 C2910 0.913 . S
H2930 C2948 0.951 . S
H2931 C2950 0.951 . S
H2932 C2952 0.950 . S
H2933 C2953 0.950 . S
H2934 C2955 0.950 . S
H2935 C2958 0.950 . S
H2936 C2959 0.950 . S
H2937 C2961 0.950 . S
H2938 C2962 0.950 . S
H2939 C2963 0.951 . S
H2940 C2965 0.951 . S
H2941 C2967 0.950 . S
H2942 C2968 0.950 . S
H2943 C2970 0.950 . S
H2944 C2973 0.950 . S
H2945 C2974 0.950 . S
H2946 C2976 0.950 . S
H2947 C2977 0.950 . S
C2948 H2930 0.951 . S
C2948 C2949 1.366 . S
C2948 C2950 1.388 . S
C2949 C2948 1.366 . S
C2949 C2953 1.385 . S
C2950 H2931 0.951 . S
C2950 C2948 1.388 . S
C2950 C2951 1.366 . S
C2951 C2950 1.366 . S
C2951 C2952 1.414 . S
C2951 C2954 1.499 . S
C2952 H2932 0.950 . S
C2952 C2951 1.414 . S
C2952 C2953 1.374 . S
C2953 H2933 0.950 . S
C2953 C2949 1.385 . S
C2953 C2952 1.374 . S
C2954 C2951 1.499 . S
C2954 C2955 1.373 . S
C2954 C2956 1.389 . S
C2955 H2934 0.950 . S
C2955 C2954 1.373 . S
C2955 C2971 1.377 . S
C2956 C2954 1.389 . S
C2956 C2957 1.524 . S
C2956 C2970 1.377 . S
C2957 C2956 1.524 . S
C2957 C2958 1.397 . S
C2957 C2962 1.363 . S
C2958 H2935 0.950 . S
C2958 C2957 1.397 . S
C2958 C2959 1.334 . S
C2959 H2936 0.950 . S
C2959 C2958 1.334 . S
C2959 C2960 1.287 . S
C2960 C2959 1.287 . S
C2960 C2961 1.524 . S
C2960 H2979 0.913 . S
C2961 H2937 0.950 . S
C2961 C2960 1.524 . S
C2961 C2962 1.415 . S
C2962 H2938 0.950 . S
C2962 C2957 1.363 . S
C2962 C2961 1.415 . S
C2963 H2939 0.951 . S
C2963 C2964 1.366 . S
C2963 C2965 1.388 . S
C2964 C2963 1.366 . S
C2964 C2968 1.385 . S
C2965 H2940 0.951 . S
C2965 C2963 1.388 . S
C2965 C2966 1.366 . S
C2966 C2965 1.366 . S
C2966 C2967 1.414 . S
C2966 C2969 1.499 . S
C2967 H2941 0.950 . S
C2967 C2966 1.414 . S
C2967 C2968 1.374 . S
C2968 H2942 0.950 . S
C2968 C2964 1.385 . S
C2968 C2967 1.374 . S
C2969 C2966 1.499 . S
C2969 C2970 1.373 . S
C2969 C2971 1.389 . S
C2970 H2943 0.950 . S
C2970 C2956 1.377 . S
C2970 C2969 1.373 . S
C2971 C2955 1.377 . S
C2971 C2969 1.389 . S
C2971 C2972 1.524 . S
C2972 C2971 1.524 . S
C2972 C2973 1.397 . S
C2972 C2977 1.363 . S
C2973 H2944 0.950 . S
C2973 C2972 1.397 . S
C2973 C2974 1.334 . S
C2974 H2945 0.950 . S
C2974 C2973 1.334 . S
C2974 C2975 1.287 . S
C2975 C2974 1.287 . S
C2975 C2976 1.524 . S
C2975 H2978 0.999 . S
C2976 H2946 0.950 . S
C2976 C2975 1.524 . S
C2976 C2977 1.415 . S
C2977 H2947 0.950 . S
C2977 C2972 1.363 . S
C2977 C2976 1.415 . S
H2978 C2975 0.999 . S
H2979 C2960 0.913 . S
H2980 C2998 0.951 . S
H2981 C3000 0.951 . S
H2982 C3002 0.950 . S
H2983 C3003 0.950 . S
H2984 C3005 0.950 . S
H2985 C3008 0.950 . S
H2986 C3009 0.950 . S
H2987 C3011 0.950 . S
H2988 C3012 0.950 . S
H2989 C3013 0.951 . S
H2990 C3015 0.951 . S
H2991 C3017 0.950 . S
H2992 C3018 0.950 . S
H2993 C3020 0.950 . S
H2994 C3023 0.950 . S
H2995 C3024 0.950 . S
H2996 C3026 0.950 . S
H2997 C3027 0.950 . S
C2998 H2980 0.951 . S
C2998 C2999 1.366 . S
C2998 C3000 1.388 . S
C2999 C2998 1.366 . S
C2999 C3003 1.385 . S
C3000 H2981 0.951 . S
C3000 C2998 1.388 . S
C3000 C3001 1.366 . S
C3001 C3000 1.366 . S
C3001 C3002 1.414 . S
C3001 C3004 1.499 . S
C3002 H2982 0.950 . S
C3002 C3001 1.414 . S
C3002 C3003 1.374 . S
C3003 H2983 0.950 . S
C3003 C2999 1.385 . S
C3003 C3002 1.374 . S
C3004 C3001 1.499 . S
C3004 C3005 1.373 . S
C3004 C3006 1.389 . S
C3005 H2984 0.950 . S
C3005 C3004 1.373 . S
C3005 C3021 1.377 . S
C3006 C3004 1.389 . S
C3006 C3007 1.524 . S
C3006 C3020 1.377 . S
C3007 C3006 1.524 . S
C3007 C3008 1.397 . S
C3007 C3012 1.363 . S
C3008 H2985 0.950 . S
C3008 C3007 1.397 . S
C3008 C3009 1.334 . S
C3009 H2986 0.950 . S
C3009 C3008 1.334 . S
C3009 C3010 1.287 . S
C3010 C3009 1.287 . S
C3010 C3011 1.524 . S
C3010 H3029 0.913 . S
C3011 H2987 0.950 . S
C3011 C3010 1.524 . S
C3011 C3012 1.415 . S
C3012 H2988 0.950 . S
C3012 C3007 1.363 . S
C3012 C3011 1.415 . S
C3013 H2989 0.951 . S
C3013 C3014 1.366 . S
C3013 C3015 1.388 . S
C3014 C3013 1.366 . S
C3014 C3018 1.385 . S
C3015 H2990 0.951 . S
C3015 C3013 1.388 . S
C3015 C3016 1.366 . S
C3016 C3015 1.366 . S
C3016 C3017 1.414 . S
C3016 C3019 1.499 . S
C3017 H2991 0.950 . S
C3017 C3016 1.414 . S
C3017 C3018 1.374 . S
C3018 H2992 0.950 . S
C3018 C3014 1.385 . S
C3018 C3017 1.374 . S
C3019 C3016 1.499 . S
C3019 C3020 1.373 . S
C3019 C3021 1.389 . S
C3020 H2993 0.950 . S
C3020 C3006 1.377 . S
C3020 C3019 1.373 . S
C3021 C3005 1.377 . S
C3021 C3019 1.389 . S
C3021 C3022 1.524 . S
C3022 C3021 1.524 . S
C3022 C3023 1.397 . S
C3022 C3027 1.363 . S
C3023 H2994 0.950 . S
C3023 C3022 1.397 . S
C3023 C3024 1.334 . S
C3024 H2995 0.950 . S
C3024 C3023 1.334 . S
C3024 C3025 1.287 . S
C3025 C3024 1.287 . S
C3025 C3026 1.524 . S
C3025 H3028 0.999 . S
C3026 H2996 0.950 . S
C3026 C3025 1.524 . S
C3026 C3027 1.415 . S
C3027 H2997 0.950 . S
C3027 C3022 1.363 . S
C3027 C3026 1.415 . S
H3028 C3025 0.999 . S
H3029 C3010 0.913 . S
H3030 C3048 0.951 . S
H3031 C3050 0.951 . S
H3032 C3052 0.950 . S
H3033 C3053 0.950 . S
H3034 C3055 0.950 . S
H3035 C3058 0.950 . S
H3036 C3059 0.950 . S
H3037 C3061 0.950 . S
H3038 C3062 0.950 . S
H3039 C3063 0.951 . S
H3040 C3065 0.951 . S
H3041 C3067 0.950 . S
H3042 C3068 0.950 . S
H3043 C3070 0.950 . S
H3044 C3073 0.950 . S
H3045 C3074 0.950 . S
H3046 C3076 0.950 . S
H3047 C3077 0.950 . S
C3048 H3030 0.951 . S
C3048 C3049 1.366 . S
C3048 C3050 1.388 . S
C3049 C3048 1.366 . S
C3049 C3053 1.385 . S
C3050 H3031 0.951 . S
C3050 C3048 1.388 . S
C3050 C3051 1.366 . S
C3051 C3050 1.366 . S
C3051 C3052 1.414 . S
C3051 C3054 1.499 . S
C3052 H3032 0.950 . S
C3052 C3051 1.414 . S
C3052 C3053 1.374 . S
C3053 H3033 0.950 . S
C3053 C3049 1.385 . S
C3053 C3052 1.374 . S
C3054 C3051 1.499 . S
C3054 C3055 1.373 . S
C3054 C3056 1.389 . S
C3055 H3034 0.950 . S
C3055 C3054 1.373 . S
C3055 C3071 1.377 . S
C3056 C3054 1.389 . S
C3056 C3057 1.524 . S
C3056 C3070 1.377 . S
C3057 C3056 1.524 . S
C3057 C3058 1.397 . S
C3057 C3062 1.363 . S
C3058 H3035 0.950 . S
C3058 C3057 1.397 . S
C3058 C3059 1.334 . S
C3059 H3036 0.950 . S
C3059 C3058 1.334 . S
C3059 C3060 1.287 . S
C3060 C3059 1.287 . S
C3060 C3061 1.524 . S
C3060 H3079 0.913 . S
C3061 H3037 0.950 . S
C3061 C3060 1.524 . S
C3061 C3062 1.415 . S
C3062 H3038 0.950 . S
C3062 C3057 1.363 . S
C3062 C3061 1.415 . S
C3063 H3039 0.951 . S
C3063 C3064 1.366 . S
C3063 C3065 1.388 . S
C3064 C3063 1.366 . S
C3064 C3068 1.385 . S
C3065 H3040 0.951 . S
C3065 C3063 1.388 . S
C3065 C3066 1.366 . S
C3066 C3065 1.366 . S
C3066 C3067 1.414 . S
C3066 C3069 1.499 . S
C3067 H3041 0.950 . S
C3067 C3066 1.414 . S
C3067 C3068 1.374 . S
C3068 H3042 0.950 . S
C3068 C3064 1.385 . S
C3068 C3067 1.374 . S
C3069 C3066 1.499 . S
C3069 C3070 1.373 . S
C3069 C3071 1.389 . S
C3070 H3043 0.950 . S
C3070 C3056 1.377 . S
C3070 C3069 1.373 . S
C3071 C3055 1.377 . S
C3071 C3069 1.389 . S
C3071 C3072 1.524 . S
C3072 C3071 1.524 . S
C3072 C3073 1.397 . S
C3072 C3077 1.363 . S
C3073 H3044 0.950 . S
C3073 C3072 1.397 . S
C3073 C3074 1.334 . S
C3074 H3045 0.950 . S
C3074 C3073 1.334 . S
C3074 C3075 1.287 . S
C3075 C3074 1.287 . S
C3075 C3076 1.524 . S
C3075 H3078 0.999 . S
C3076 H3046 0.950 . S
C3076 C3075 1.524 . S
C3076 C3077 1.415 . S
C3077 H3047 0.950 . S
C3077 C3072 1.363 . S
C3077 C3076 1.415 . S
H3078 C3075 0.999 . S
H3079 C3060 0.913 . S
H3080 C3098 0.951 . S
H3081 C3100 0.951 . S
H3082 C3102 0.950 . S
H3083 C3103 0.950 . S
H3084 C3105 0.950 . S
H3085 C3108 0.950 . S
H3086 C3109 0.950 . S
H3087 C3111 0.950 . S
H3088 C3112 0.950 . S
H3089 C3113 0.951 . S
H3090 C3115 0.951 . S
H3091 C3117 0.950 . S
H3092 C3118 0.950 . S
H3093 C3120 0.950 . S
H3094 C3123 0.950 . S
H3095 C3124 0.950 . S
H3096 C3126 0.950 1_655 S
H3097 C3127 0.950 . S
C3098 H3080 0.951 . S
C3098 C3099 1.366 . S
C3098 C3100 1.388 . S
C3099 C3098 1.366 . S
C3099 C3103 1.385 . S
C3100 H3081 0.951 . S
C3100 C3098 1.388 . S
C3100 C3101 1.366 . S
C3101 C3100 1.366 . S
C3101 C3102 1.414 . S
C3101 C3104 1.499 . S
C3102 H3082 0.950 . S
C3102 C3101 1.414 . S
C3102 C3103 1.374 . S
C3103 H3083 0.950 . S
C3103 C3099 1.385 . S
C3103 C3102 1.374 . S
C3104 C3101 1.499 . S
C3104 C3105 1.373 . S
C3104 C3106 1.389 . S
C3105 H3084 0.950 . S
C3105 C3104 1.373 . S
C3105 C3121 1.377 . S
C3106 C3104 1.389 . S
C3106 C3107 1.524 . S
C3106 C3120 1.377 . S
C3107 C3106 1.524 . S
C3107 C3108 1.397 . S
C3107 C3112 1.363 . S
C3108 H3085 0.950 . S
C3108 C3107 1.397 . S
C3108 C3109 1.334 . S
C3109 H3086 0.950 . S
C3109 C3108 1.334 . S
C3109 C3110 1.287 . S
C3110 C3109 1.287 . S
C3110 C3111 1.524 . S
C3110 H3129 0.913 . S
C3111 H3087 0.950 . S
C3111 C3110 1.524 . S
C3111 C3112 1.415 . S
C3112 H3088 0.950 . S
C3112 C3107 1.363 . S
C3112 C3111 1.415 . S
C3113 H3089 0.951 . S
C3113 C3114 1.366 . S
C3113 C3115 1.388 . S
C3114 C3113 1.366 . S
C3114 C3118 1.385 . S
C3115 H3090 0.951 . S
C3115 C3113 1.388 . S
C3115 C3116 1.366 . S
C3116 C3115 1.366 . S
C3116 C3117 1.414 . S
C3116 C3119 1.499 . S
C3117 H3091 0.950 . S
C3117 C3116 1.414 . S
C3117 C3118 1.374 . S
C3118 H3092 0.950 . S
C3118 C3114 1.385 . S
C3118 C3117 1.374 . S
C3119 C3116 1.499 . S
C3119 C3120 1.373 . S
C3119 C3121 1.389 . S
C3120 H3093 0.950 . S
C3120 C3106 1.377 . S
C3120 C3119 1.373 . S
C3121 C3105 1.377 . S
C3121 C3119 1.389 . S
C3121 C3122 1.524 . S
C3122 C3121 1.524 . S
C3122 C3123 1.397 . S
C3122 C3127 1.363 . S
C3123 H3094 0.950 . S
C3123 C3122 1.397 . S
C3123 C3124 1.334 . S
C3124 H3095 0.950 . S
C3124 C3123 1.334 . S
C3124 C3125 1.287 . S
C3125 C3124 1.287 . S
C3125 C3126 1.524 . S
C3125 H3128 0.999 1_455 S
C3126 H3096 0.950 1_455 S
C3126 C3125 1.524 . S
C3126 C3127 1.415 . S
C3127 H3097 0.950 . S
C3127 C3122 1.363 . S
C3127 C3126 1.415 . S
H3128 C3125 0.999 1_655 S
H3129 C3110 0.913 . S
H3130 C3148 0.951 . S
H3131 C3150 0.951 . S
H3132 C3152 0.950 . S
H3133 C3153 0.950 . S
H3134 C3155 0.950 . S
H3135 C3158 0.950 . S
H3136 C3159 0.950 . S
H3137 C3161 0.950 . S
H3138 C3162 0.950 . S
H3139 C3163 0.951 . S
H3140 C3165 0.951 . S
H3141 C3167 0.950 . S
H3142 C3168 0.950 . S
H3143 C3170 0.950 . S
H3144 C3173 0.950 . S
H3145 C3174 0.950 . S
H3146 C3176 0.950 . S
H3147 C3177 0.950 . S
C3148 H3130 0.951 . S
C3148 C3149 1.366 . S
C3148 C3150 1.388 . S
C3149 C3148 1.366 . S
C3149 C3153 1.385 . S
C3150 H3131 0.951 . S
C3150 C3148 1.388 . S
C3150 C3151 1.366 . S
C3151 C3150 1.366 . S
C3151 C3152 1.414 . S
C3151 C3154 1.499 . S
C3152 H3132 0.950 . S
C3152 C3151 1.414 . S
C3152 C3153 1.374 . S
C3153 H3133 0.950 . S
C3153 C3149 1.385 . S
C3153 C3152 1.374 . S
C3154 C3151 1.499 . S
C3154 C3155 1.373 . S
C3154 C3156 1.389 . S
C3155 H3134 0.950 . S
C3155 C3154 1.373 . S
C3155 C3171 1.377 . S
C3156 C3154 1.389 . S
C3156 C3157 1.524 . S
C3156 C3170 1.377 . S
C3157 C3156 1.524 . S
C3157 C3158 1.397 . S
C3157 C3162 1.363 . S
C3158 H3135 0.950 . S
C3158 C3157 1.397 . S
C3158 C3159 1.334 . S
C3159 H3136 0.950 . S
C3159 C3158 1.334 . S
C3159 C3160 1.287 . S
C3160 C3159 1.287 . S
C3160 C3161 1.524 . S
C3160 H3179 0.913 . S
C3161 H3137 0.950 . S
C3161 C3160 1.524 . S
C3161 C3162 1.415 . S
C3162 H3138 0.950 . S
C3162 C3157 1.363 . S
C3162 C3161 1.415 . S
C3163 H3139 0.951 . S
C3163 C3164 1.366 . S
C3163 C3165 1.388 . S
C3164 C3163 1.366 . S
C3164 C3168 1.385 . S
C3165 H3140 0.951 . S
C3165 C3163 1.388 . S
C3165 C3166 1.366 . S
C3166 C3165 1.366 . S
C3166 C3167 1.414 . S
C3166 C3169 1.499 . S
C3167 H3141 0.950 . S
C3167 C3166 1.414 . S
C3167 C3168 1.374 . S
C3168 H3142 0.950 . S
C3168 C3164 1.385 . S
C3168 C3167 1.374 . S
C3169 C3166 1.499 . S
C3169 C3170 1.373 . S
C3169 C3171 1.389 . S
C3170 H3143 0.950 . S
C3170 C3156 1.377 . S
C3170 C3169 1.373 . S
C3171 C3155 1.377 . S
C3171 C3169 1.389 . S
C3171 C3172 1.524 . S
C3172 C3171 1.524 . S
C3172 C3173 1.397 . S
C3172 C3177 1.363 . S
C3173 H3144 0.950 . S
C3173 C3172 1.397 . S
C3173 C3174 1.334 . S
C3174 H3145 0.950 . S
C3174 C3173 1.334 . S
C3174 C3175 1.287 . S
C3175 C3174 1.287 . S
C3175 C3176 1.524 . S
C3175 H3178 0.999 . S
C3176 H3146 0.950 . S
C3176 C3175 1.524 . S
C3176 C3177 1.415 . S
C3177 H3147 0.950 . S
C3177 C3172 1.363 . S
C3177 C3176 1.415 . S
H3178 C3175 0.999 . S
H3179 C3160 0.913 . S
H3180 C3198 0.951 . S
H3181 C3200 0.951 . S
H3182 C3202 0.950 . S
H3183 C3203 0.950 . S
H3184 C3205 0.950 . S
H3185 C3208 0.950 . S
H3186 C3209 0.950 . S
H3187 C3211 0.950 . S
H3188 C3212 0.950 . S
H3189 C3213 0.951 1_545 S
H3190 C3215 0.951 . S
H3191 C3217 0.941 1_554 S
H3192 C3218 0.950 . S
H3193 C3220 0.950 . S
H3194 C3223 0.950 . S
H3195 C3224 0.969 . S
H3196 C3226 0.950 . S
H3197 C3227 0.950 . S
C3198 H3180 0.951 . S
C3198 C3199 1.366 . S
C3198 C3200 1.388 . S
C3199 C3198 1.366 . S
C3199 C3203 1.385 . S
C3200 H3181 0.951 . S
C3200 C3198 1.388 . S
C3200 C3201 1.366 . S
C3201 C3200 1.366 . S
C3201 C3202 1.414 . S
C3201 C3204 1.499 . S
C3202 H3182 0.950 . S
C3202 C3201 1.414 . S
C3202 C3203 1.374 . S
C3203 H3183 0.950 . S
C3203 C3199 1.385 . S
C3203 C3202 1.374 . S
C3204 C3201 1.499 . S
C3204 C3205 1.373 . S
C3204 C3206 1.389 . S
C3205 H3184 0.950 . S
C3205 C3204 1.373 . S
C3205 C3221 1.377 . S
C3206 C3204 1.389 . S
C3206 C3207 1.524 . S
C3206 C3220 1.377 . S
C3207 C3206 1.524 . S
C3207 C3208 1.397 . S
C3207 C3212 1.363 . S
C3208 H3185 0.950 . S
C3208 C3207 1.397 . S
C3208 C3209 1.334 . S
C3209 H3186 0.950 . S
C3209 C3208 1.334 . S
C3209 C3210 1.287 . S
C3210 C3209 1.287 . S
C3210 C3211 1.524 . S
C3210 H3229 0.913 . S
C3211 H3187 0.950 . S
C3211 C3210 1.524 . S
C3211 C3212 1.415 . S
C3212 H3188 0.950 . S
C3212 C3207 1.363 . S
C3212 C3211 1.415 . S
C3213 H3189 0.951 1_565 S
C3213 C3214 1.366 . S
C3213 C3215 1.388 . S
C3214 C3213 1.366 . S
C3214 C3218 1.385 1_556 S
C3215 H3190 0.951 . S
C3215 C3213 1.388 . S
C3215 C3216 1.366 . S
C3216 C3215 1.366 . S
C3216 C3217 1.414 . S
C3216 C3219 1.499 . S
C3217 H3191 0.941 1_556 S
C3217 C3216 1.414 . S
C3217 C3218 1.374 1_556 S
C3218 H3192 0.950 . S
C3218 C3214 1.385 1_554 S
C3218 C3217 1.374 1_554 S
C3219 C3216 1.499 . S
C3219 C3220 1.373 . S
C3219 C3221 1.389 . S
C3220 H3193 0.950 . S
C3220 C3206 1.377 . S
C3220 C3219 1.373 . S
C3221 C3205 1.377 . S
C3221 C3219 1.389 . S
C3221 C3222 1.524 . S
C3222 C3221 1.524 . S
C3222 C3223 1.397 . S
C3222 C3227 1.363 . S
C3223 H3194 0.950 . S
C3223 C3222 1.397 . S
C3223 C3224 1.300 1_565 S
C3224 H3195 0.969 . S
C3224 C3223 1.300 1_545 S
C3224 C3225 1.304 . S
C3225 C3224 1.304 . S
C3225 C3226 1.524 1_545 S
C3225 H3228 0.999 . S
C3226 H3196 0.950 . S
C3226 C3225 1.524 1_565 S
C3226 C3227 1.415 . S
C3227 H3197 0.950 . S
C3227 C3222 1.363 . S
C3227 C3226 1.415 . S
H3228 C3225 0.999 . S
H3229 C3210 0.913 . S
H3230 C3248 0.951 . S
H3231 C3250 0.951 . S
H3232 C3252 0.950 . S
H3233 C3253 0.950 . S
H3234 C3255 0.950 . S
H3235 C3258 0.950 . S
H3236 C3259 0.950 . S
H3237 C3261 0.950 . S
H3238 C3262 0.950 . S
H3239 C3263 0.951 . S
H3240 C3265 0.951 . S
H3241 C3267 0.950 . S
H3242 C3268 0.950 . S
H3243 C3270 0.950 . S
H3244 C3273 0.950 . S
H3245 C3274 0.950 . S
H3246 C3276 0.950 . S
H3247 C3277 0.950 . S
C3248 H3230 0.951 . S
C3248 C3249 1.366 . S
C3248 C3250 1.388 . S
C3249 C3248 1.366 . S
C3249 C3253 1.385 . S
C3250 H3231 0.951 . S
C3250 C3248 1.388 . S
C3250 C3251 1.366 . S
C3251 C3250 1.366 . S
C3251 C3252 1.414 . S
C3251 C3254 1.499 . S
C3252 H3232 0.950 . S
C3252 C3251 1.414 . S
C3252 C3253 1.374 . S
C3253 H3233 0.950 . S
C3253 C3249 1.385 . S
C3253 C3252 1.374 . S
C3254 C3251 1.499 . S
C3254 C3255 1.373 . S
C3254 C3256 1.389 . S
C3255 H3234 0.950 . S
C3255 C3254 1.373 . S
C3255 C3271 1.377 . S
C3256 C3254 1.389 . S
C3256 C3257 1.524 . S
C3256 C3270 1.377 . S
C3257 C3256 1.524 . S
C3257 C3258 1.397 . S
C3257 C3262 1.363 . S
C3258 H3235 0.950 . S
C3258 C3257 1.397 . S
C3258 C3259 1.334 . S
C3259 H3236 0.950 . S
C3259 C3258 1.334 . S
C3259 C3260 1.287 . S
C3260 C3259 1.287 . S
C3260 C3261 1.524 . S
C3260 H3279 0.913 . S
C3261 H3237 0.950 . S
C3261 C3260 1.524 . S
C3261 C3262 1.415 . S
C3262 H3238 0.950 . S
C3262 C3257 1.363 . S
C3262 C3261 1.415 . S
C3263 H3239 0.951 . S
C3263 C3264 1.366 . S
C3263 C3265 1.388 . S
C3264 C3263 1.366 . S
C3264 C3268 1.385 . S
C3265 H3240 0.951 . S
C3265 C3263 1.388 . S
C3265 C3266 1.366 . S
C3266 C3265 1.366 . S
C3266 C3267 1.414 . S
C3266 C3269 1.499 . S
C3267 H3241 0.950 . S
C3267 C3266 1.414 . S
C3267 C3268 1.374 . S
C3268 H3242 0.950 . S
C3268 C3264 1.385 . S
C3268 C3267 1.374 . S
C3269 C3266 1.499 . S
C3269 C3270 1.373 . S
C3269 C3271 1.389 . S
C3270 H3243 0.950 . S
C3270 C3256 1.377 . S
C3270 C3269 1.373 . S
C3271 C3255 1.377 . S
C3271 C3269 1.389 . S
C3271 C3272 1.524 . S
C3272 C3271 1.524 . S
C3272 C3273 1.397 . S
C3272 C3277 1.363 . S
C3273 H3244 0.950 . S
C3273 C3272 1.397 . S
C3273 C3274 1.334 . S
C3274 H3245 0.950 . S
C3274 C3273 1.334 . S
C3274 C3275 1.287 . S
C3275 C3274 1.287 . S
C3275 C3276 1.524 . S
C3275 H3278 0.999 . S
C3276 H3246 0.950 . S
C3276 C3275 1.524 . S
C3276 C3277 1.415 . S
C3277 H3247 0.950 . S
C3277 C3272 1.363 . S
C3277 C3276 1.415 . S
H3278 C3275 0.999 . S
H3279 C3260 0.913 . S
H3280 C3298 0.951 . S
H3281 C3300 0.951 . S
H3282 C3302 0.950 . S
H3283 C3303 0.950 . S
H3284 C3305 0.947 1_565 S
H3285 C3308 0.950 1_565 S
H3286 C3309 0.950 1_565 S
H3287 C3311 0.950 . S
H3288 C3312 0.950 . S
H3289 C3313 0.951 1_565 S
H3290 C3315 0.956 . S
H3291 C3317 0.950 . S
H3292 C3318 0.950 . S
H3293 C3320 0.950 . S
H3294 C3323 0.950 . S
H3295 C3324 0.950 . S
H3296 C3326 0.950 . S
H3297 C3327 0.950 . S
C3298 H3280 0.951 . S
C3298 C3299 1.366 . S
C3298 C3300 1.388 . S
C3299 C3298 1.366 . S
C3299 C3303 1.385 1_545 S
C3300 H3281 0.951 . S
C3300 C3298 1.388 . S
C3300 C3301 1.366 . S
C3301 C3300 1.366 . S
C3301 C3302 1.414 1_545 S
C3301 C3304 1.499 . S
C3302 H3282 0.950 . S
C3302 C3301 1.414 1_565 S
C3302 C3303 1.374 . S
C3303 H3283 0.950 . S
C3303 C3299 1.385 1_565 S
C3303 C3302 1.374 . S
C3304 C3301 1.499 . S
C3304 C3305 1.373 . S
C3304 C3306 1.389 . S
C3305 H3284 0.947 1_545 S
C3305 C3304 1.373 . S
C3305 C3321 1.377 . S
C3306 C3304 1.389 . S
C3306 C3307 1.524 . S
C3306 C3320 1.377 . S
C3307 C3306 1.524 . S
C3307 C3308 1.397 . S
C3307 C3312 1.363 . S
C3308 H3285 0.950 1_545 S
C3308 C3307 1.397 . S
C3308 C3309 1.334 . S
C3309 H3286 0.950 1_545 S
C3309 C3308 1.334 . S
C3309 C3310 1.287 . S
C3310 C3309 1.287 . S
C3310 C3311 1.524 . S
C3310 H3329 0.913 . S
C3311 H3287 0.950 . S
C3311 C3310 1.524 . S
C3311 C3312 1.415 . S
C3312 H3288 0.950 . S
C3312 C3307 1.363 . S
C3312 C3311 1.415 . S
C3313 H3289 0.951 1_545 S
C3313 C3314 1.366 . S
C3313 C3315 1.388 1_545 S
C3314 C3313 1.366 . S
C3314 C3318 1.385 . S
C3315 H3290 0.956 . S
C3315 C3313 1.388 1_565 S
C3315 C3316 1.360 1_565 S
C3316 C3315 1.360 1_545 S
C3316 C3317 1.414 . S
C3316 C3319 1.499 . S
C3317 H3291 0.950 . S
C3317 C3316 1.414 . S
C3317 C3318 1.374 . S
C3318 H3292 0.950 . S
C3318 C3314 1.385 . S
C3318 C3317 1.374 . S
C3319 C3316 1.499 . S
C3319 C3320 1.373 . S
C3319 C3321 1.389 . S
C3320 H3293 0.950 . S
C3320 C3306 1.377 . S
C3320 C3319 1.373 . S
C3321 C3305 1.377 . S
C3321 C3319 1.389 . S
C3321 C3322 1.524 . S
C3322 C3321 1.524 . S
C3322 C3323 1.397 . S
C3322 C3327 1.363 1_545 S
C3323 H3294 0.950 . S
C3323 C3322 1.397 . S
C3323 C3324 1.334 . S
C3324 H3295 0.950 . S
C3324 C3323 1.334 . S
C3324 C3325 1.287 . S
C3325 C3324 1.287 . S
C3325 C3326 1.524 1_545 S
C3325 H3328 1.000 1_545 S
C3326 H3296 0.950 . S
C3326 C3325 1.524 1_565 S
C3326 C3327 1.415 . S
C3327 H3297 0.950 . S
C3327 C3322 1.363 1_565 S
C3327 C3326 1.415 . S
H3328 C3325 1.000 1_565 S
H3329 C3310 0.913 . S
H3330 C3348 0.951 . S
H3331 C3350 0.951 . S
H3332 C3352 0.950 . S
H3333 C3353 0.950 . S
H3334 C3355 0.950 . S
H3335 C3358 0.950 . S
H3336 C3359 0.950 . S
H3337 C3361 0.950 . S
H3338 C3362 0.950 . S
H3339 C3363 0.951 . S
H3340 C3365 0.951 . S
H3341 C3367 0.950 . S
H3342 C3368 0.950 . S
H3343 C3370 0.950 . S
H3344 C3373 0.950 . S
H3345 C3374 0.950 . S
H3346 C3376 0.950 . S
H3347 C3377 0.950 . S
C3348 H3330 0.951 . S
C3348 C3349 1.366 . S
C3348 C3350 1.388 . S
C3349 C3348 1.366 . S
C3349 C3353 1.385 . S
C3350 H3331 0.951 . S
C3350 C3348 1.388 . S
C3350 C3351 1.366 . S
C3351 C3350 1.366 . S
C3351 C3352 1.414 . S
C3351 C3354 1.499 . S
C3352 H3332 0.950 . S
C3352 C3351 1.414 . S
C3352 C3353 1.374 . S
C3353 H3333 0.950 . S
C3353 C3349 1.385 . S
C3353 C3352 1.374 . S
C3354 C3351 1.499 . S
C3354 C3355 1.373 . S
C3354 C3356 1.389 . S
C3355 H3334 0.950 . S
C3355 C3354 1.373 . S
C3355 C3371 1.377 . S
C3356 C3354 1.389 . S
C3356 C3357 1.524 . S
C3356 C3370 1.377 . S
C3357 C3356 1.524 . S
C3357 C3358 1.397 . S
C3357 C3362 1.363 . S
C3358 H3335 0.950 . S
C3358 C3357 1.397 . S
C3358 C3359 1.334 . S
C3359 H3336 0.950 . S
C3359 C3358 1.334 . S
C3359 C3360 1.287 . S
C3360 C3359 1.287 . S
C3360 C3361 1.524 . S
C3360 H3379 0.913 . S
C3361 H3337 0.950 . S
C3361 C3360 1.524 . S
C3361 C3362 1.415 . S
C3362 H3338 0.950 . S
C3362 C3357 1.363 . S
C3362 C3361 1.415 . S
C3363 H3339 0.951 . S
C3363 C3364 1.366 . S
C3363 C3365 1.388 . S
C3364 C3363 1.366 . S
C3364 C3368 1.385 . S
C3365 H3340 0.951 . S
C3365 C3363 1.388 . S
C3365 C3366 1.366 . S
C3366 C3365 1.366 . S
C3366 C3367 1.414 . S
C3366 C3369 1.499 . S
C3367 H3341 0.950 . S
C3367 C3366 1.414 . S
C3367 C3368 1.374 . S
C3368 H3342 0.950 . S
C3368 C3364 1.385 . S
C3368 C3367 1.374 . S
C3369 C3366 1.499 . S
C3369 C3370 1.373 . S
C3369 C3371 1.389 . S
C3370 H3343 0.950 . S
C3370 C3356 1.377 . S
C3370 C3369 1.373 . S
C3371 C3355 1.377 . S
C3371 C3369 1.389 . S
C3371 C3372 1.524 . S
C3372 C3371 1.524 . S
C3372 C3373 1.397 . S
C3372 C3377 1.363 . S
C3373 H3344 0.950 . S
C3373 C3372 1.397 . S
C3373 C3374 1.334 . S
C3374 H3345 0.950 . S
C3374 C3373 1.334 . S
C3374 C3375 1.287 . S
C3375 C3374 1.287 . S
C3375 C3376 1.524 . S
C3375 H3378 0.999 . S
C3376 H3346 0.950 . S
C3376 C3375 1.524 . S
C3376 C3377 1.415 . S
C3377 H3347 0.950 . S
C3377 C3372 1.363 . S
C3377 C3376 1.415 . S
H3378 C3375 0.999 . S
H3379 C3360 0.913 . S
H3380 C3398 0.951 . S
H3381 C3400 0.951 . S
H3382 C3402 0.950 . S
H3383 C3403 0.950 . S
H3384 C3405 0.950 . S
H3385 C3408 0.950 . S
H3386 C3409 0.950 . S
H3387 C3411 0.950 . S
H3388 C3412 0.950 . S
H3389 C3413 0.951 . S
H3390 C3415 0.951 . S
H3391 C3417 0.950 . S
H3392 C3418 0.950 . S
H3393 C3420 0.950 . S
H3394 C3423 0.950 . S
H3395 C3424 0.950 . S
H3396 C3426 0.950 . S
H3397 C3427 0.950 . S
C3398 H3380 0.951 . S
C3398 C3399 1.366 . S
C3398 C3400 1.388 . S
C3399 C3398 1.366 . S
C3399 C3403 1.385 . S
C3400 H3381 0.951 . S
C3400 C3398 1.388 . S
C3400 C3401 1.366 . S
C3401 C3400 1.366 . S
C3401 C3402 1.414 . S
C3401 C3404 1.499 . S
C3402 H3382 0.950 . S
C3402 C3401 1.414 . S
C3402 C3403 1.374 . S
C3403 H3383 0.950 . S
C3403 C3399 1.385 . S
C3403 C3402 1.374 . S
C3404 C3401 1.499 . S
C3404 C3405 1.373 . S
C3404 C3406 1.389 . S
C3405 H3384 0.950 . S
C3405 C3404 1.373 . S
C3405 C3421 1.377 . S
C3406 C3404 1.389 . S
C3406 C3407 1.524 . S
C3406 C3420 1.377 . S
C3407 C3406 1.524 . S
C3407 C3408 1.397 . S
C3407 C3412 1.363 1_545 S
C3408 H3385 0.950 . S
C3408 C3407 1.397 . S
C3408 C3409 1.334 1_545 S
C3409 H3386 0.950 . S
C3409 C3408 1.334 1_565 S
C3409 C3410 1.287 . S
C3410 C3409 1.287 . S
C3410 C3411 1.524 . S
C3410 H3429 0.913 . S
C3411 H3387 0.950 . S
C3411 C3410 1.524 . S
C3411 C3412 1.415 . S
C3412 H3388 0.950 . S
C3412 C3407 1.363 1_565 S
C3412 C3411 1.415 . S
C3413 H3389 0.951 . S
C3413 C3414 1.366 . S
C3413 C3415 1.388 . S
C3414 C3413 1.366 . S
C3414 C3418 1.385 . S
C3415 H3390 0.951 . S
C3415 C3413 1.388 . S
C3415 C3416 1.366 . S
C3416 C3415 1.366 . S
C3416 C3417 1.414 . S
C3416 C3419 1.499 . S
C3417 H3391 0.950 . S
C3417 C3416 1.414 . S
C3417 C3418 1.374 . S
C3418 H3392 0.950 . S
C3418 C3414 1.385 . S
C3418 C3417 1.374 . S
C3419 C3416 1.499 . S
C3419 C3420 1.373 . S
C3419 C3421 1.389 . S
C3420 H3393 0.950 . S
C3420 C3406 1.377 . S
C3420 C3419 1.373 . S
C3421 C3405 1.377 . S
C3421 C3419 1.389 . S
C3421 C3422 1.524 . S
C3422 C3421 1.524 . S
C3422 C3423 1.397 . S
C3422 C3427 1.363 . S
C3423 H3394 0.950 . S
C3423 C3422 1.397 . S
C3423 C3424 1.334 . S
C3424 H3395 0.950 . S
C3424 C3423 1.334 . S
C3424 C3425 1.287 . S
C3425 C3424 1.287 . S
C3425 C3426 1.524 . S
C3425 H3428 0.999 . S
C3426 H3396 0.950 . S
C3426 C3425 1.524 . S
C3426 C3427 1.415 . S
C3427 H3397 0.950 . S
C3427 C3422 1.363 . S
C3427 C3426 1.415 . S
H3428 C3425 0.999 . S
H3429 C3410 0.913 . S
H3430 C3448 0.951 . S
H3431 C3450 0.951 . S
H3432 C3452 0.950 . S
H3433 C3453 0.950 . S
H3434 C3455 0.950 . S
H3435 C3458 0.950 . S
H3436 C3459 0.950 . S
H3437 C3461 0.950 . S
H3438 C3462 0.950 . S
H3439 C3463 0.951 . S
H3440 C3465 0.951 . S
H3441 C3467 0.950 . S
H3442 C3468 0.950 . S
H3443 C3470 0.950 . S
H3444 C3473 0.950 . S
H3445 C3474 0.950 . S
H3446 C3476 0.950 . S
H3447 C3477 0.950 . S
C3448 H3430 0.951 . S
C3448 C3449 1.366 . S
C3448 C3450 1.388 . S
C3449 C3448 1.366 . S
C3449 C3453 1.385 . S
C3450 H3431 0.951 . S
C3450 C3448 1.388 . S
C3450 C3451 1.366 . S
C3451 C3450 1.366 . S
C3451 C3452 1.414 . S
C3451 C3454 1.499 . S
C3452 H3432 0.950 . S
C3452 C3451 1.414 . S
C3452 C3453 1.374 . S
C3453 H3433 0.950 . S
C3453 C3449 1.385 . S
C3453 C3452 1.374 . S
C3454 C3451 1.499 . S
C3454 C3455 1.373 . S
C3454 C3456 1.389 . S
C3455 H3434 0.950 . S
C3455 C3454 1.373 . S
C3455 C3471 1.377 . S
C3456 C3454 1.389 . S
C3456 C3457 1.524 . S
C3456 C3470 1.377 . S
C3457 C3456 1.524 . S
C3457 C3458 1.397 . S
C3457 C3462 1.363 . S
C3458 H3435 0.950 . S
C3458 C3457 1.397 . S
C3458 C3459 1.334 . S
C3459 H3436 0.950 . S
C3459 C3458 1.334 . S
C3459 C3460 1.287 . S
C3460 C3459 1.287 . S
C3460 C3461 1.524 . S
C3460 H3479 0.913 . S
C3461 H3437 0.950 . S
C3461 C3460 1.524 . S
C3461 C3462 1.415 . S
C3462 H3438 0.950 . S
C3462 C3457 1.363 . S
C3462 C3461 1.415 . S
C3463 H3439 0.951 . S
C3463 C3464 1.366 . S
C3463 C3465 1.388 . S
C3464 C3463 1.366 . S
C3464 C3468 1.385 . S
C3465 H3440 0.951 . S
C3465 C3463 1.388 . S
C3465 C3466 1.366 . S
C3466 C3465 1.366 . S
C3466 C3467 1.414 . S
C3466 C3469 1.499 . S
C3467 H3441 0.950 . S
C3467 C3466 1.414 . S
C3467 C3468 1.374 . S
C3468 H3442 0.950 . S
C3468 C3464 1.385 . S
C3468 C3467 1.374 . S
C3469 C3466 1.499 . S
C3469 C3470 1.373 . S
C3469 C3471 1.389 . S
C3470 H3443 0.950 . S
C3470 C3456 1.377 . S
C3470 C3469 1.373 . S
C3471 C3455 1.377 . S
C3471 C3469 1.389 . S
C3471 C3472 1.524 . S
C3472 C3471 1.524 . S
C3472 C3473 1.397 . S
C3472 C3477 1.363 . S
C3473 H3444 0.950 . S
C3473 C3472 1.397 . S
C3473 C3474 1.334 . S
C3474 H3445 0.950 . S
C3474 C3473 1.334 . S
C3474 C3475 1.287 . S
C3475 C3474 1.287 . S
C3475 C3476 1.524 . S
C3475 H3478 0.999 . S
C3476 H3446 0.950 . S
C3476 C3475 1.524 . S
C3476 C3477 1.415 . S
C3477 H3447 0.950 . S
C3477 C3472 1.363 . S
C3477 C3476 1.415 . S
H3478 C3475 0.999 . S
H3479 C3460 0.913 . S
H3480 C3498 0.951 . S
H3481 C3500 0.951 . S
H3482 C3502 0.950 . S
H3483 C3503 0.950 . S
H3484 C3505 0.950 . S
H3485 C3508 0.950 . S
H3486 C3509 0.950 1_545 S
H3487 C3511 0.950 . S
H3488 C3512 0.950 . S
H3489 C3513 0.951 . S
H3490 C3515 0.951 . S
H3491 C3517 0.950 1_565 S
H3492 C3518 0.950 1_565 S
H3493 C3520 0.950 . S
H3494 C3523 0.950 . S
H3495 C3524 0.950 . S
H3496 C3526 0.950 . S
H3497 C3527 0.950 . S
C3498 H3480 0.951 . S
C3498 C3499 1.366 . S
C3498 C3500 1.388 . S
C3499 C3498 1.366 . S
C3499 C3503 1.385 1_565 S
C3500 H3481 0.951 . S
C3500 C3498 1.388 . S
C3500 C3501 1.366 1_565 S
C3501 C3500 1.366 1_545 S
C3501 C3502 1.414 . S
C3501 C3504 1.499 . S
C3502 H3482 0.950 . S
C3502 C3501 1.414 . S
C3502 C3503 1.374 . S
C3503 H3483 0.950 . S
C3503 C3499 1.385 1_545 S
C3503 C3502 1.374 . S
C3504 C3501 1.499 . S
C3504 C3505 1.373 . S
C3504 C3506 1.389 . S
C3505 H3484 0.950 . S
C3505 C3504 1.373 . S
C3505 C3521 1.377 . S
C3506 C3504 1.389 . S
C3506 C3507 1.524 1_545 S
C3506 C3520 1.377 . S
C3507 C3506 1.524 1_565 S
C3507 C3508 1.397 1_565 S
C3507 C3512 1.363 . S
C3508 H3485 0.950 . S
C3508 C3507 1.397 1_545 S
C3508 C3509 1.334 1_545 S
C3509 H3486 0.950 1_565 S
C3509 C3508 1.334 1_565 S
C3509 C3510 1.287 . S
C3510 C3509 1.287 . S
C3510 C3511 1.524 . S
C3510 H3529 0.913 . S
C3511 H3487 0.950 . S
C3511 C3510 1.524 . S
C3511 C3512 1.415 . S
C3512 H3488 0.950 . S
C3512 C3507 1.363 . S
C3512 C3511 1.415 . S
C3513 H3489 0.951 . S
C3513 C3514 1.366 . S
C3513 C3515 1.388 . S
C3514 C3513 1.366 . S
C3514 C3518 1.385 . S
C3515 H3490 0.951 . S
C3515 C3513 1.388 . S
C3515 C3516 1.366 . S
C3516 C3515 1.366 . S
C3516 C3517 1.414 . S
C3516 C3519 1.499 . S
C3517 H3491 0.950 1_545 S
C3517 C3516 1.414 . S
C3517 C3518 1.374 . S
C3518 H3492 0.950 1_545 S
C3518 C3514 1.385 . S
C3518 C3517 1.374 . S
C3519 C3516 1.499 . S
C3519 C3520 1.373 . S
C3519 C3521 1.389 . S
C3520 H3493 0.950 . S
C3520 C3506 1.377 . S
C3520 C3519 1.373 . S
C3521 C3505 1.377 . S
C3521 C3519 1.389 . S
C3521 C3522 1.524 . S
C3522 C3521 1.524 . S
C3522 C3523 1.397 . S
C3522 C3527 1.363 . S
C3523 H3494 0.950 . S
C3523 C3522 1.397 . S
C3523 C3524 1.334 . S
C3524 H3495 0.950 . S
C3524 C3523 1.334 . S
C3524 C3525 1.287 . S
C3525 C3524 1.287 . S
C3525 C3526 1.524 . S
C3525 H3528 0.999 . S
C3526 H3496 0.950 . S
C3526 C3525 1.524 . S
C3526 C3527 1.415 . S
C3527 H3497 0.950 . S
C3527 C3522 1.363 . S
C3527 C3526 1.415 . S
H3528 C3525 0.999 . S
H3529 C3510 0.913 . S
H3530 C3548 0.951 . S
H3531 C3550 0.951 . S
H3532 C3552 0.950 . S
H3533 C3553 0.950 . S
H3534 C3555 0.950 . S
H3535 C3558 0.950 . S
H3536 C3559 0.950 . S
H3537 C3561 0.950 . S
H3538 C3562 0.950 . S
H3539 C3563 0.951 . S
H3540 C3565 0.951 . S
H3541 C3567 0.950 . S
H3542 C3568 0.950 . S
H3543 C3570 0.950 . S
H3544 C3573 0.950 . S
H3545 C3574 0.950 . S
H3546 C3576 0.950 . S
H3547 C3577 0.950 . S
C3548 H3530 0.951 . S
C3548 C3549 1.366 . S
C3548 C3550 1.388 . S
C3549 C3548 1.366 . S
C3549 C3553 1.385 . S
C3550 H3531 0.951 . S
C3550 C3548 1.388 . S
C3550 C3551 1.366 . S
C3551 C3550 1.366 . S
C3551 C3552 1.414 . S
C3551 C3554 1.499 . S
C3552 H3532 0.950 . S
C3552 C3551 1.414 . S
C3552 C3553 1.374 . S
C3553 H3533 0.950 . S
C3553 C3549 1.385 . S
C3553 C3552 1.374 . S
C3554 C3551 1.499 . S
C3554 C3555 1.373 . S
C3554 C3556 1.389 . S
C3555 H3534 0.950 . S
C3555 C3554 1.373 . S
C3555 C3571 1.377 . S
C3556 C3554 1.389 . S
C3556 C3557 1.524 . S
C3556 C3570 1.377 . S
C3557 C3556 1.524 . S
C3557 C3558 1.397 . S
C3557 C3562 1.363 . S
C3558 H3535 0.950 . S
C3558 C3557 1.397 . S
C3558 C3559 1.334 . S
C3559 H3536 0.950 . S
C3559 C3558 1.334 . S
C3559 C3560 1.287 . S
C3560 C3559 1.287 . S
C3560 C3561 1.524 . S
C3560 H3579 0.913 . S
C3561 H3537 0.950 . S
C3561 C3560 1.524 . S
C3561 C3562 1.415 . S
C3562 H3538 0.950 . S
C3562 C3557 1.363 . S
C3562 C3561 1.415 . S
C3563 H3539 0.951 . S
C3563 C3564 1.366 . S
C3563 C3565 1.388 . S
C3564 C3563 1.366 . S
C3564 C3568 1.385 . S
C3565 H3540 0.951 . S
C3565 C3563 1.388 . S
C3565 C3566 1.366 . S
C3566 C3565 1.366 . S
C3566 C3567 1.414 . S
C3566 C3569 1.499 . S
C3567 H3541 0.950 . S
C3567 C3566 1.414 . S
C3567 C3568 1.374 . S
C3568 H3542 0.950 . S
C3568 C3564 1.385 . S
C3568 C3567 1.374 . S
C3569 C3566 1.499 . S
C3569 C3570 1.373 . S
C3569 C3571 1.389 . S
C3570 H3543 0.950 . S
C3570 C3556 1.377 . S
C3570 C3569 1.373 . S
C3571 C3555 1.377 . S
C3571 C3569 1.389 . S
C3571 C3572 1.524 . S
C3572 C3571 1.524 . S
C3572 C3573 1.397 . S
C3572 C3577 1.363 . S
C3573 H3544 0.950 . S
C3573 C3572 1.397 . S
C3573 C3574 1.334 . S
C3574 H3545 0.950 . S
C3574 C3573 1.334 . S
C3574 C3575 1.287 . S
C3575 C3574 1.287 . S
C3575 C3576 1.524 . S
C3575 H3578 0.999 . S
C3576 H3546 0.950 . S
C3576 C3575 1.524 . S
C3576 C3577 1.415 . S
C3577 H3547 0.950 . S
C3577 C3572 1.363 . S
C3577 C3576 1.415 . S
H3578 C3575 0.999 . S
H3579 C3560 0.913 . S
H3580 C3598 0.951 . S
H3581 C3600 0.951 . S
H3582 C3602 0.950 . S
H3583 C3603 0.950 . S
H3584 C3605 0.941 1_565 S
H3585 C3608 0.950 . S
H3586 C3609 0.950 . S
H3587 C3611 0.950 . S
H3588 C3612 0.950 . S
H3589 C3613 0.951 . S
H3590 C3615 0.951 . S
H3591 C3617 0.950 . S
H3592 C3618 0.950 . S
H3593 C3620 0.950 . S
H3594 C3623 0.950 . S
H3595 C3624 0.950 . S
H3596 C3626 0.950 . S
H3597 C3627 0.950 . S
C3598 H3580 0.951 . S
C3598 C3599 1.366 . S
C3598 C3600 1.388 . S
C3599 C3598 1.366 . S
C3599 C3603 1.385 . S
C3600 H3581 0.951 . S
C3600 C3598 1.388 . S
C3600 C3601 1.366 . S
C3601 C3600 1.366 . S
C3601 C3602 1.414 . S
C3601 C3604 1.499 . S
C3602 H3582 0.950 . S
C3602 C3601 1.414 . S
C3602 C3603 1.374 . S
C3603 H3583 0.950 . S
C3603 C3599 1.385 . S
C3603 C3602 1.374 . S
C3604 C3601 1.499 . S
C3604 C3605 1.373 . S
C3604 C3606 1.389 . S
C3605 H3584 0.941 1_545 S
C3605 C3604 1.373 . S
C3605 C3621 1.377 . S
C3606 C3604 1.389 . S
C3606 C3607 1.524 . S
C3606 C3620 1.377 . S
C3607 C3606 1.524 . S
C3607 C3608 1.397 . S
C3607 C3612 1.363 . S
C3608 H3585 0.950 . S
C3608 C3607 1.397 . S
C3608 C3609 1.334 . S
C3609 H3586 0.950 . S
C3609 C3608 1.334 . S
C3609 C3610 1.287 . S
C3610 C3609 1.287 . S
C3610 C3611 1.524 . S
C3610 H3629 0.913 . S
C3611 H3587 0.950 . S
C3611 C3610 1.524 . S
C3611 C3612 1.415 . S
C3612 H3588 0.950 . S
C3612 C3607 1.363 . S
C3612 C3611 1.415 . S
C3613 H3589 0.951 . S
C3613 C3614 1.366 . S
C3613 C3615 1.388 . S
C3614 C3613 1.366 . S
C3614 C3618 1.385 . S
C3615 H3590 0.951 . S
C3615 C3613 1.388 . S
C3615 C3616 1.366 . S
C3616 C3615 1.366 . S
C3616 C3617 1.414 . S
C3616 C3619 1.499 . S
C3617 H3591 0.950 . S
C3617 C3616 1.414 . S
C3617 C3618 1.374 . S
C3618 H3592 0.950 . S
C3618 C3614 1.385 . S
C3618 C3617 1.374 . S
C3619 C3616 1.499 . S
C3619 C3620 1.373 . S
C3619 C3621 1.389 . S
C3620 H3593 0.950 . S
C3620 C3606 1.377 . S
C3620 C3619 1.373 . S
C3621 C3605 1.377 . S
C3621 C3619 1.389 . S
C3621 C3622 1.524 1_545 S
C3622 C3621 1.524 1_565 S
C3622 C3623 1.397 . S
C3622 C3627 1.363 . S
C3623 H3594 0.950 . S
C3623 C3622 1.397 . S
C3623 C3624 1.334 . S
C3624 H3595 0.950 . S
C3624 C3623 1.334 . S
C3624 C3625 1.287 . S
C3625 C3624 1.287 . S
C3625 C3626 1.524 . S
C3625 H3628 0.999 . S
C3626 H3596 0.950 . S
C3626 C3625 1.524 . S
C3626 C3627 1.415 . S
C3627 H3597 0.950 . S
C3627 C3622 1.363 . S
C3627 C3626 1.415 . S
H3628 C3625 0.999 . S
H3629 C3610 0.913 . S
H3630 C3648 0.951 . S
H3631 C3650 0.951 . S
H3632 C3652 0.950 . S
H3633 C3653 0.950 . S
H3634 C3655 0.950 . S
H3635 C3658 0.950 . S
H3636 C3659 0.950 . S
H3637 C3661 0.950 . S
H3638 C3662 0.950 . S
H3639 C3663 0.951 . S
H3640 C3665 0.951 . S
H3641 C3667 0.950 . S
H3642 C3668 0.950 . S
H3643 C3670 0.950 . S
H3644 C3673 0.950 . S
H3645 C3674 0.950 . S
H3646 C3676 0.950 . S
H3647 C3677 0.950 . S
C3648 H3630 0.951 . S
C3648 C3649 1.366 . S
C3648 C3650 1.388 . S
C3649 C3648 1.366 . S
C3649 C3653 1.385 . S
C3650 H3631 0.951 . S
C3650 C3648 1.388 . S
C3650 C3651 1.366 . S
C3651 C3650 1.366 . S
C3651 C3652 1.414 . S
C3651 C3654 1.499 . S
C3652 H3632 0.950 . S
C3652 C3651 1.414 . S
C3652 C3653 1.374 . S
C3653 H3633 0.950 . S
C3653 C3649 1.385 . S
C3653 C3652 1.374 . S
C3654 C3651 1.499 . S
C3654 C3655 1.373 . S
C3654 C3656 1.389 . S
C3655 H3634 0.950 . S
C3655 C3654 1.373 . S
C3655 C3671 1.377 . S
C3656 C3654 1.389 . S
C3656 C3657 1.524 . S
C3656 C3670 1.377 . S
C3657 C3656 1.524 . S
C3657 C3658 1.397 . S
C3657 C3662 1.363 . S
C3658 H3635 0.950 . S
C3658 C3657 1.397 . S
C3658 C3659 1.334 . S
C3659 H3636 0.950 . S
C3659 C3658 1.334 . S
C3659 C3660 1.287 . S
C3660 C3659 1.287 . S
C3660 C3661 1.524 . S
C3660 H3679 0.913 . S
C3661 H3637 0.950 . S
C3661 C3660 1.524 . S
C3661 C3662 1.415 . S
C3662 H3638 0.950 . S
C3662 C3657 1.363 . S
C3662 C3661 1.415 . S
C3663 H3639 0.951 . S
C3663 C3664 1.366 . S
C3663 C3665 1.388 . S
C3664 C3663 1.366 . S
C3664 C3668 1.385 . S
C3665 H3640 0.951 . S
C3665 C3663 1.388 . S
C3665 C3666 1.366 . S
C3666 C3665 1.366 . S
C3666 C3667 1.414 . S
C3666 C3669 1.499 . S
C3667 H3641 0.950 . S
C3667 C3666 1.414 . S
C3667 C3668 1.374 . S
C3668 H3642 0.950 . S
C3668 C3664 1.385 . S
C3668 C3667 1.374 . S
C3669 C3666 1.499 . S
C3669 C3670 1.373 . S
C3669 C3671 1.389 . S
C3670 H3643 0.950 . S
C3670 C3656 1.377 . S
C3670 C3669 1.373 . S
C3671 C3655 1.377 . S
C3671 C3669 1.389 . S
C3671 C3672 1.524 . S
C3672 C3671 1.524 . S
C3672 C3673 1.397 . S
C3672 C3677 1.363 . S
C3673 H3644 0.950 . S
C3673 C3672 1.397 . S
C3673 C3674 1.334 . S
C3674 H3645 0.950 . S
C3674 C3673 1.334 . S
C3674 C3675 1.287 . S
C3675 C3674 1.287 . S
C3675 C3676 1.524 . S
C3675 H3678 0.999 . S
C3676 H3646 0.950 . S
C3676 C3675 1.524 . S
C3676 C3677 1.415 . S
C3677 H3647 0.950 . S
C3677 C3672 1.363 . S
C3677 C3676 1.415 . S
H3678 C3675 0.999 . S
H3679 C3660 0.913 . S
H3680 C3698 0.951 1_556 S
H3681 C3700 0.951 1_556 S
H3682 C3702 0.950 . S
H3683 C3703 0.950 . S
H3684 C3705 0.950 . S
H3685 C3708 0.950 . S
H3686 C3709 0.950 . S
H3687 C3711 0.950 1_556 S
H3688 C3712 0.950 1_556 S
H3689 C3713 0.951 . S
H3690 C3715 0.951 . S
H3691 C3717 0.985 . S
H3692 C3718 0.950 . S
H3693 C3720 0.950 . S
H3694 C3723 0.950 1_556 S
H3695 C3724 0.950 1_556 S
H3696 C3726 0.950 . S
H3697 C3727 0.950 . S
C3698 H3680 0.951 1_554 S
C3698 C3699 1.366 . S
C3698 C3700 1.388 . S
C3699 C3698 1.366 . S
C3699 C3703 1.385 . S
C3700 H3681 0.951 1_554 S
C3700 C3698 1.388 . S
C3700 C3701 1.366 . S
C3701 C3700 1.366 . S
C3701 C3702 1.414 . S
C3701 C3704 1.499 . S
C3702 H3682 0.950 . S
C3702 C3701 1.414 . S
C3702 C3703 1.374 . S
C3703 H3683 0.950 . S
C3703 C3699 1.385 . S
C3703 C3702 1.374 . S
C3704 C3701 1.499 . S
C3704 C3705 1.373 . S
C3704 C3706 1.389 . S
C3705 H3684 0.950 . S
C3705 C3704 1.373 . S
C3705 C3721 1.377 . S
C3706 C3704 1.389 . S
C3706 C3707 1.524 . S
C3706 C3720 1.377 . S
C3707 C3706 1.524 . S
C3707 C3708 1.397 . S
C3707 C3712 1.363 . S
C3708 H3685 0.950 . S
C3708 C3707 1.397 . S
C3708 C3709 1.334 . S
C3709 H3686 0.950 . S
C3709 C3708 1.334 . S
C3709 C3710 1.287 . S
C3710 C3709 1.287 . S
C3710 C3711 1.524 . S
C3710 H3729 0.913 . S
C3711 H3687 0.950 1_554 S
C3711 C3710 1.524 . S
C3711 C3712 1.415 . S
C3712 H3688 0.950 1_554 S
C3712 C3707 1.363 . S
C3712 C3711 1.415 . S
C3713 H3689 0.951 . S
C3713 C3714 1.366 . S
C3713 C3715 1.388 . S
C3714 C3713 1.366 . S
C3714 C3718 1.385 1_554 S
C3715 H3690 0.951 . S
C3715 C3713 1.388 . S
C3715 C3716 1.366 . S
C3716 C3715 1.366 . S
C3716 C3717 1.380 1_554 S
C3716 C3719 1.499 . S
C3717 H3691 0.985 . S
C3717 C3716 1.380 1_556 S
C3717 C3718 1.376 . S
C3718 H3692 0.950 . S
C3718 C3714 1.385 1_556 S
C3718 C3717 1.376 . S
C3719 C3716 1.499 . S
C3719 C3720 1.373 . S
C3719 C3721 1.389 . S
C3720 H3693 0.950 . S
C3720 C3706 1.377 . S
C3720 C3719 1.373 . S
C3721 C3705 1.377 . S
C3721 C3719 1.389 . S
C3721 C3722 1.524 . S
C3722 C3721 1.524 . S
C3722 C3723 1.397 . S
C3722 C3727 1.363 . S
C3723 H3694 0.950 1_554 S
C3723 C3722 1.397 . S
C3723 C3724 1.334 . S
C3724 H3695 0.950 1_554 S
C3724 C3723 1.334 . S
C3724 C3725 1.287 . S
C3725 C3724 1.287 . S
C3725 C3726 1.524 . S
C3725 H3728 0.999 . S
C3726 H3696 0.950 . S
C3726 C3725 1.524 . S
C3726 C3727 1.415 . S
C3727 H3697 0.950 . S
C3727 C3722 1.363 . S
C3727 C3726 1.415 . S
H3728 C3725 0.999 . S
H3729 C3710 0.913 . S
H3730 C3748 0.951 . S
H3731 C3750 0.951 . S
H3732 C3752 0.950 . S
H3733 C3753 0.950 . S
H3734 C3755 0.950 . S
H3735 C3758 0.950 1_554 S
H3736 C3759 0.950 . S
H3737 C3761 0.950 . S
H3738 C3762 0.950 . S
H3739 C3763 0.951 . S
H3740 C3765 0.951 . S
H3741 C3767 0.950 . S
H3742 C3768 0.950 . S
H3743 C3770 0.950 . S
H3744 C3773 0.950 . S
H3745 C3774 0.950 . S
H3746 C3776 0.950 . S
H3747 C3777 0.950 . S
C3748 H3730 0.951 . S
C3748 C3749 1.366 . S
C3748 C3750 1.388 . S
C3749 C3748 1.366 . S
C3749 C3753 1.385 . S
C3750 H3731 0.951 . S
C3750 C3748 1.388 . S
C3750 C3751 1.366 . S
C3751 C3750 1.366 . S
C3751 C3752 1.414 . S
C3751 C3754 1.499 . S
C3752 H3732 0.950 . S
C3752 C3751 1.414 . S
C3752 C3753 1.374 . S
C3753 H3733 0.950 . S
C3753 C3749 1.385 . S
C3753 C3752 1.374 . S
C3754 C3751 1.499 . S
C3754 C3755 1.373 . S
C3754 C3756 1.389 . S
C3755 H3734 0.950 . S
C3755 C3754 1.373 . S
C3755 C3771 1.377 . S
C3756 C3754 1.389 . S
C3756 C3757 1.524 . S
C3756 C3770 1.377 . S
C3757 C3756 1.524 . S
C3757 C3758 1.397 1_554 S
C3757 C3762 1.363 1_554 S
C3758 H3735 0.950 1_556 S
C3758 C3757 1.397 1_556 S
C3758 C3759 1.334 . S
C3759 H3736 0.950 . S
C3759 C3758 1.334 . S
C3759 C3760 1.287 . S
C3760 C3759 1.287 . S
C3760 C3761 1.524 . S
C3760 H3779 0.913 . S
C3761 H3737 0.950 . S
C3761 C3760 1.524 . S
C3761 C3762 1.415 . S
C3762 H3738 0.950 . S
C3762 C3757 1.363 1_556 S
C3762 C3761 1.415 . S
C3763 H3739 0.951 . S
C3763 C3764 1.366 . S
C3763 C3765 1.388 . S
C3764 C3763 1.366 . S
C3764 C3768 1.385 . S
C3765 H3740 0.951 . S
C3765 C3763 1.388 . S
C3765 C3766 1.366 . S
C3766 C3765 1.366 . S
C3766 C3767 1.414 . S
C3766 C3769 1.499 . S
C3767 H3741 0.950 . S
C3767 C3766 1.414 . S
C3767 C3768 1.374 . S
C3768 H3742 0.950 . S
C3768 C3764 1.385 . S
C3768 C3767 1.374 . S
C3769 C3766 1.499 . S
C3769 C3770 1.373 . S
C3769 C3771 1.389 . S
C3770 H3743 0.950 . S
C3770 C3756 1.377 . S
C3770 C3769 1.373 . S
C3771 C3755 1.377 . S
C3771 C3769 1.389 . S
C3771 C3772 1.524 . S
C3772 C3771 1.524 . S
C3772 C3773 1.397 . S
C3772 C3777 1.363 . S
C3773 H3744 0.950 . S
C3773 C3772 1.397 . S
C3773 C3774 1.334 . S
C3774 H3745 0.950 . S
C3774 C3773 1.334 . S
C3774 C3775 1.287 . S
C3775 C3774 1.287 . S
C3775 C3776 1.524 . S
C3775 H3778 0.999 . S
C3776 H3746 0.950 . S
C3776 C3775 1.524 . S
C3776 C3777 1.415 . S
C3777 H3747 0.950 . S
C3777 C3772 1.363 . S
C3777 C3776 1.415 . S
H3778 C3775 0.999 . S
H3779 C3760 0.913 . S
H3780 C3798 0.951 . S
H3781 C3800 0.951 . S
H3782 C3802 0.950 . S
H3783 C3803 0.950 . S
H3784 C3805 0.950 . S
H3785 C3808 0.950 . S
H3786 C3809 0.950 . S
H3787 C3811 0.950 . S
H3788 C3812 0.950 . S
H3789 C3813 0.951 . S
H3790 C3815 0.951 . S
H3791 C3817 0.950 . S
H3792 C3818 0.950 . S
H3793 C3820 0.950 . S
H3794 C3823 0.950 . S
H3795 C3824 0.950 . S
H3796 C3826 0.950 . S
H3797 C3827 0.950 . S
C3798 H3780 0.951 . S
C3798 C3799 1.366 . S
C3798 C3800 1.388 . S
C3799 C3798 1.366 . S
C3799 C3803 1.385 . S
C3800 H3781 0.951 . S
C3800 C3798 1.388 . S
C3800 C3801 1.366 . S
C3801 C3800 1.366 . S
C3801 C3802 1.414 . S
C3801 C3804 1.499 . S
C3802 H3782 0.950 . S
C3802 C3801 1.414 . S
C3802 C3803 1.374 . S
C3803 H3783 0.950 . S
C3803 C3799 1.385 . S
C3803 C3802 1.374 . S
C3804 C3801 1.499 . S
C3804 C3805 1.373 . S
C3804 C3806 1.389 . S
C3805 H3784 0.950 . S
C3805 C3804 1.373 . S
C3805 C3821 1.377 . S
C3806 C3804 1.389 . S
C3806 C3807 1.524 . S
C3806 C3820 1.377 . S
C3807 C3806 1.524 . S
C3807 C3808 1.397 . S
C3807 C3812 1.363 . S
C3808 H3785 0.950 . S
C3808 C3807 1.397 . S
C3808 C3809 1.334 . S
C3809 H3786 0.950 . S
C3809 C3808 1.334 . S
C3809 C3810 1.287 . S
C3810 C3809 1.287 . S
C3810 C3811 1.524 . S
C3810 H3829 0.913 . S
C3811 H3787 0.950 . S
C3811 C3810 1.524 . S
C3811 C3812 1.415 . S
C3812 H3788 0.950 . S
C3812 C3807 1.363 . S
C3812 C3811 1.415 . S
C3813 H3789 0.951 . S
C3813 C3814 1.366 . S
C3813 C3815 1.388 . S
C3814 C3813 1.366 . S
C3814 C3818 1.385 . S
C3815 H3790 0.951 . S
C3815 C3813 1.388 . S
C3815 C3816 1.366 . S
C3816 C3815 1.366 . S
C3816 C3817 1.414 . S
C3816 C3819 1.499 . S
C3817 H3791 0.950 . S
C3817 C3816 1.414 . S
C3817 C3818 1.374 . S
C3818 H3792 0.950 . S
C3818 C3814 1.385 . S
C3818 C3817 1.374 . S
C3819 C3816 1.499 . S
C3819 C3820 1.373 . S
C3819 C3821 1.389 . S
C3820 H3793 0.950 . S
C3820 C3806 1.377 . S
C3820 C3819 1.373 . S
C3821 C3805 1.377 . S
C3821 C3819 1.389 . S
C3821 C3822 1.524 . S
C3822 C3821 1.524 . S
C3822 C3823 1.397 . S
C3822 C3827 1.363 . S
C3823 H3794 0.950 . S
C3823 C3822 1.397 . S
C3823 C3824 1.334 . S
C3824 H3795 0.950 . S
C3824 C3823 1.334 . S
C3824 C3825 1.287 . S
C3825 C3824 1.287 . S
C3825 C3826 1.524 . S
C3825 H3828 0.999 . S
C3826 H3796 0.950 . S
C3826 C3825 1.524 . S
C3826 C3827 1.415 . S
C3827 H3797 0.950 . S
C3827 C3822 1.363 . S
C3827 C3826 1.415 . S
H3828 C3825 0.999 . S
H3829 C3810 0.913 . S
H3830 C3848 0.951 . S
H3831 C3850 0.951 . S
H3832 C3852 0.950 . S
H3833 C3853 0.950 . S
H3834 C3855 0.950 . S
H3835 C3858 0.950 . S
H3836 C3859 0.950 . S
H3837 C3861 0.950 . S
H3838 C3862 0.950 . S
H3839 C3863 0.951 . S
H3840 C3865 0.951 . S
H3841 C3867 0.950 . S
H3842 C3868 0.950 . S
H3843 C3870 0.950 . S
H3844 C3873 0.950 . S
H3845 C3874 0.950 . S
H3846 C3876 0.950 . S
H3847 C3877 0.950 . S
C3848 H3830 0.951 . S
C3848 C3849 1.366 . S
C3848 C3850 1.388 . S
C3849 C3848 1.366 . S
C3849 C3853 1.385 . S
C3850 H3831 0.951 . S
C3850 C3848 1.388 . S
C3850 C3851 1.366 . S
C3851 C3850 1.366 . S
C3851 C3852 1.414 . S
C3851 C3854 1.499 . S
C3852 H3832 0.950 . S
C3852 C3851 1.414 . S
C3852 C3853 1.374 . S
C3853 H3833 0.950 . S
C3853 C3849 1.385 . S
C3853 C3852 1.374 . S
C3854 C3851 1.499 . S
C3854 C3855 1.373 . S
C3854 C3856 1.389 . S
C3855 H3834 0.950 . S
C3855 C3854 1.373 . S
C3855 C3871 1.377 . S
C3856 C3854 1.389 . S
C3856 C3857 1.524 . S
C3856 C3870 1.377 . S
C3857 C3856 1.524 . S
C3857 C3858 1.397 . S
C3857 C3862 1.363 . S
C3858 H3835 0.950 . S
C3858 C3857 1.397 . S
C3858 C3859 1.334 . S
C3859 H3836 0.950 . S
C3859 C3858 1.334 . S
C3859 C3860 1.287 . S
C3860 C3859 1.287 . S
C3860 C3861 1.524 . S
C3860 H3879 0.913 . S
C3861 H3837 0.950 . S
C3861 C3860 1.524 . S
C3861 C3862 1.415 . S
C3862 H3838 0.950 . S
C3862 C3857 1.363 . S
C3862 C3861 1.415 . S
C3863 H3839 0.951 . S
C3863 C3864 1.366 . S
C3863 C3865 1.388 . S
C3864 C3863 1.366 . S
C3864 C3868 1.385 . S
C3865 H3840 0.951 . S
C3865 C3863 1.388 . S
C3865 C3866 1.366 . S
C3866 C3865 1.366 . S
C3866 C3867 1.414 . S
C3866 C3869 1.499 . S
C3867 H3841 0.950 . S
C3867 C3866 1.414 . S
C3867 C3868 1.374 . S
C3868 H3842 0.950 . S
C3868 C3864 1.385 . S
C3868 C3867 1.374 . S
C3869 C3866 1.499 . S
C3869 C3870 1.373 . S
C3869 C3871 1.389 . S
C3870 H3843 0.950 . S
C3870 C3856 1.377 . S
C3870 C3869 1.373 . S
C3871 C3855 1.377 . S
C3871 C3869 1.389 . S
C3871 C3872 1.524 . S
C3872 C3871 1.524 . S
C3872 C3873 1.397 . S
C3872 C3877 1.363 . S
C3873 H3844 0.950 . S
C3873 C3872 1.397 . S
C3873 C3874 1.334 . S
C3874 H3845 0.950 . S
C3874 C3873 1.334 . S
C3874 C3875 1.287 . S
C3875 C3874 1.287 . S
C3875 C3876 1.524 . S
C3875 H3878 0.999 . S
C3876 H3846 0.950 . S
C3876 C3875 1.524 . S
C3876 C3877 1.415 . S
C3877 H3847 0.950 . S
C3877 C3872 1.363 . S
C3877 C3876 1.415 . S
H3878 C3875 0.999 . S
H3879 C3860 0.913 . S
H3880 C3898 0.951 1_545 S
H3881 C3900 0.951 . S
H3882 C3902 0.950 . S
H3883 C3903 0.950 . S
H3884 C3905 0.950 . S
H3885 C3908 0.950 . S
H3886 C3909 0.950 . S
H3887 C3911 0.950 . S
H3888 C3912 0.950 . S
H3889 C3913 0.951 . S
H3890 C3915 0.951 . S
H3891 C3917 0.950 . S
H3892 C3918 0.950 . S
H3893 C3920 0.950 . S
H3894 C3923 0.950 . S
H3895 C3924 0.950 . S
H3896 C3926 0.950 . S
H3897 C3927 0.950 . S
C3898 H3880 0.951 1_565 S
C3898 C3899 1.351 1_565 S
C3898 C3900 1.388 . S
C3899 C3898 1.351 1_545 S
C3899 C3903 1.363 1_545 S
C3900 H3881 0.951 . S
C3900 C3898 1.388 . S
C3900 C3901 1.366 . S
C3901 C3900 1.366 . S
C3901 C3902 1.414 . S
C3901 C3904 1.499 . S
C3902 H3882 0.950 . S
C3902 C3901 1.414 . S
C3902 C3903 1.374 . S
C3903 H3883 0.950 . S
C3903 C3899 1.363 1_565 S
C3903 C3902 1.374 . S
C3904 C3901 1.499 . S
C3904 C3905 1.373 . S
C3904 C3906 1.389 . S
C3905 H3884 0.950 . S
C3905 C3904 1.373 . S
C3905 C3921 1.377 . S
C3906 C3904 1.389 . S
C3906 C3907 1.524 . S
C3906 C3920 1.377 . S
C3907 C3906 1.524 . S
C3907 C3908 1.397 . S
C3907 C3912 1.363 . S
C3908 H3885 0.950 . S
C3908 C3907 1.397 . S
C3908 C3909 1.334 . S
C3909 H3886 0.950 . S
C3909 C3908 1.334 . S
C3909 C3910 1.287 . S
C3910 C3909 1.287 . S
C3910 C3911 1.524 . S
C3910 H3929 0.913 . S
C3911 H3887 0.950 . S
C3911 C3910 1.524 . S
C3911 C3912 1.415 . S
C3912 H3888 0.950 . S
C3912 C3907 1.363 . S
C3912 C3911 1.415 . S
C3913 H3889 0.951 . S
C3913 C3914 1.366 . S
C3913 C3915 1.388 . S
C3914 C3913 1.366 . S
C3914 C3918 1.385 . S
C3915 H3890 0.951 . S
C3915 C3913 1.388 . S
C3915 C3916 1.366 . S
C3916 C3915 1.366 . S
C3916 C3917 1.414 . S
C3916 C3919 1.499 . S
C3917 H3891 0.950 . S
C3917 C3916 1.414 . S
C3917 C3918 1.374 . S
C3918 H3892 0.950 . S
C3918 C3914 1.385 . S
C3918 C3917 1.374 . S
C3919 C3916 1.499 . S
C3919 C3920 1.373 . S
C3919 C3921 1.389 . S
C3920 H3893 0.950 . S
C3920 C3906 1.377 . S
C3920 C3919 1.373 . S
C3921 C3905 1.377 . S
C3921 C3919 1.389 . S
C3921 C3922 1.524 . S
C3922 C3921 1.524 . S
C3922 C3923 1.397 . S
C3922 C3927 1.363 . S
C3923 H3894 0.950 . S
C3923 C3922 1.397 . S
C3923 C3924 1.334 . S
C3924 H3895 0.950 . S
C3924 C3923 1.334 . S
C3924 C3925 1.287 . S
C3925 C3924 1.287 . S
C3925 C3926 1.524 . S
C3925 H3928 0.999 . S
C3926 H3896 0.950 . S
C3926 C3925 1.524 . S
C3926 C3927 1.415 . S
C3927 H3897 0.950 . S
C3927 C3922 1.363 . S
C3927 C3926 1.415 . S
H3928 C3925 0.999 . S
H3929 C3910 0.913 . S
H3930 C3948 0.951 . S
H3931 C3950 0.951 . S
H3932 C3952 0.950 . S
H3933 C3953 0.950 . S
H3934 C3955 0.950 . S
H3935 C3958 0.950 . S
H3936 C3959 0.950 . S
H3937 C3961 0.950 . S
H3938 C3962 0.950 . S
H3939 C3963 0.951 1_545 S
H3940 C3965 0.951 . S
H3941 C3967 0.950 . S
H3942 C3968 0.950 . S
H3943 C3970 0.950 . S
H3944 C3973 0.950 . S
H3945 C3974 0.950 . S
H3946 C3976 0.950 . S
H3947 C3977 0.950 . S
C3948 H3930 0.951 . S
C3948 C3949 1.366 . S
C3948 C3950 1.388 . S
C3949 C3948 1.366 . S
C3949 C3953 1.385 . S
C3950 H3931 0.951 . S
C3950 C3948 1.388 . S
C3950 C3951 1.366 . S
C3951 C3950 1.366 . S
C3951 C3952 1.414 . S
C3951 C3954 1.499 . S
C3952 H3932 0.950 . S
C3952 C3951 1.414 . S
C3952 C3953 1.374 . S
C3953 H3933 0.950 . S
C3953 C3949 1.385 . S
C3953 C3952 1.374 . S
C3954 C3951 1.499 . S
C3954 C3955 1.373 . S
C3954 C3956 1.389 . S
C3955 H3934 0.950 . S
C3955 C3954 1.373 . S
C3955 C3971 1.377 . S
C3956 C3954 1.389 . S
C3956 C3957 1.524 . S
C3956 C3970 1.377 . S
C3957 C3956 1.524 . S
C3957 C3958 1.397 . S
C3957 C3962 1.363 . S
C3958 H3935 0.950 . S
C3958 C3957 1.397 . S
C3958 C3959 1.334 . S
C3959 H3936 0.950 . S
C3959 C3958 1.334 . S
C3959 C3960 1.287 . S
C3960 C3959 1.287 . S
C3960 C3961 1.524 . S
C3960 H3979 0.913 . S
C3961 H3937 0.950 . S
C3961 C3960 1.524 . S
C3961 C3962 1.415 . S
C3962 H3938 0.950 . S
C3962 C3957 1.363 . S
C3962 C3961 1.415 . S
C3963 H3939 0.951 1_565 S
C3963 C3964 1.366 . S
C3963 C3965 1.388 . S
C3964 C3963 1.366 . S
C3964 C3968 1.385 . S
C3965 H3940 0.951 . S
C3965 C3963 1.388 . S
C3965 C3966 1.366 . S
C3966 C3965 1.366 . S
C3966 C3967 1.414 . S
C3966 C3969 1.499 . S
C3967 H3941 0.950 . S
C3967 C3966 1.414 . S
C3967 C3968 1.374 . S
C3968 H3942 0.950 . S
C3968 C3964 1.385 . S
C3968 C3967 1.374 . S
C3969 C3966 1.499 . S
C3969 C3970 1.373 . S
C3969 C3971 1.389 . S
C3970 H3943 0.950 . S
C3970 C3956 1.377 . S
C3970 C3969 1.373 . S
C3971 C3955 1.377 . S
C3971 C3969 1.389 . S
C3971 C3972 1.524 . S
C3972 C3971 1.524 . S
C3972 C3973 1.397 . S
C3972 C3977 1.363 . S
C3973 H3944 0.950 . S
C3973 C3972 1.397 . S
C3973 C3974 1.334 1_565 S
C3974 H3945 0.950 . S
C3974 C3973 1.334 1_545 S
C3974 C3975 1.287 . S
C3975 C3974 1.287 . S
C3975 C3976 1.524 . S
C3975 H3978 0.999 . S
C3976 H3946 0.950 . S
C3976 C3975 1.524 . S
C3976 C3977 1.415 1_545 S
C3977 H3947 0.950 . S
C3977 C3972 1.363 . S
C3977 C3976 1.415 1_565 S
H3978 C3975 0.999 . S
H3979 C3960 0.913 . S
H3980 C3998 0.951 . S
H3981 C4000 0.951 . S
H3982 C4002 0.950 . S
H3983 C4003 0.950 . S
H3984 C4005 0.950 . S
H3985 C4008 0.950 . S
H3986 C4009 0.950 . S
H3987 C4011 0.950 . S
H3988 C4012 0.950 . S
H3989 C4013 0.951 . S
H3990 C4015 0.951 . S
H3991 C4017 0.950 . S
H3992 C4018 0.950 . S
H3993 C4020 0.950 . S
H3994 C4023 0.950 . S
H3995 C4024 0.950 . S
H3996 C4026 0.950 . S
H3997 C4027 0.950 . S
C3998 H3980 0.951 . S
C3998 C3999 1.366 . S
C3998 C4000 1.388 . S
C3999 C3998 1.366 . S
C3999 C4003 1.385 . S
C4000 H3981 0.951 . S
C4000 C3998 1.388 . S
C4000 C4001 1.366 . S
C4001 C4000 1.366 . S
C4001 C4002 1.414 . S
C4001 C4004 1.499 . S
C4002 H3982 0.950 . S
C4002 C4001 1.414 . S
C4002 C4003 1.374 . S
C4003 H3983 0.950 . S
C4003 C3999 1.385 . S
C4003 C4002 1.374 . S
C4004 C4001 1.499 . S
C4004 C4005 1.373 . S
C4004 C4006 1.389 . S
C4005 H3984 0.950 . S
C4005 C4004 1.373 . S
C4005 C4021 1.377 . S
C4006 C4004 1.389 . S
C4006 C4007 1.524 . S
C4006 C4020 1.377 . S
C4007 C4006 1.524 . S
C4007 C4008 1.397 . S
C4007 C4012 1.363 . S
C4008 H3985 0.950 . S
C4008 C4007 1.397 . S
C4008 C4009 1.334 . S
C4009 H3986 0.950 . S
C4009 C4008 1.334 . S
C4009 C4010 1.287 . S
C4010 C4009 1.287 . S
C4010 C4011 1.524 . S
C4010 H4029 0.913 . S
C4011 H3987 0.950 . S
C4011 C4010 1.524 . S
C4011 C4012 1.415 . S
C4012 H3988 0.950 . S
C4012 C4007 1.363 . S
C4012 C4011 1.415 . S
C4013 H3989 0.951 . S
C4013 C4014 1.366 . S
C4013 C4015 1.388 . S
C4014 C4013 1.366 . S
C4014 C4018 1.385 . S
C4015 H3990 0.951 . S
C4015 C4013 1.388 . S
C4015 C4016 1.366 . S
C4016 C4015 1.366 . S
C4016 C4017 1.414 . S
C4016 C4019 1.499 . S
C4017 H3991 0.950 . S
C4017 C4016 1.414 . S
C4017 C4018 1.374 . S
C4018 H3992 0.950 . S
C4018 C4014 1.385 . S
C4018 C4017 1.374 . S
C4019 C4016 1.499 . S
C4019 C4020 1.373 . S
C4019 C4021 1.389 . S
C4020 H3993 0.950 . S
C4020 C4006 1.377 . S
C4020 C4019 1.373 . S
C4021 C4005 1.377 . S
C4021 C4019 1.389 . S
C4021 C4022 1.524 . S
C4022 C4021 1.524 . S
C4022 C4023 1.397 . S
C4022 C4027 1.363 . S
C4023 H3994 0.950 . S
C4023 C4022 1.397 . S
C4023 C4024 1.334 . S
C4024 H3995 0.950 . S
C4024 C4023 1.334 . S
C4024 C4025 1.287 . S
C4025 C4024 1.287 . S
C4025 C4026 1.524 . S
C4025 H4028 0.999 . S
C4026 H3996 0.950 . S
C4026 C4025 1.524 . S
C4026 C4027 1.415 . S
C4027 H3997 0.950 . S
C4027 C4022 1.363 . S
C4027 C4026 1.415 . S
H4028 C4025 0.999 . S
H4029 C4010 0.913 . S
H4030 C4048 0.951 . S
H4031 C4050 0.951 . S
H4032 C4052 0.950 . S
H4033 C4053 0.950 . S
H4034 C4055 0.950 . S
H4035 C4058 0.950 . S
H4036 C4059 0.950 . S
H4037 C4061 0.950 . S
H4038 C4062 0.950 . S
H4039 C4063 0.951 . S
H4040 C4065 0.951 . S
H4041 C4067 0.950 . S
H4042 C4068 0.950 . S
H4043 C4070 0.950 . S
H4044 C4073 0.950 . S
H4045 C4074 0.950 . S
H4046 C4076 0.950 . S
H4047 C4077 0.950 . S
C4048 H4030 0.951 . S
C4048 C4049 1.366 . S
C4048 C4050 1.388 . S
C4049 C4048 1.366 . S
C4049 C4053 1.385 . S
C4050 H4031 0.951 . S
C4050 C4048 1.388 . S
C4050 C4051 1.366 . S
C4051 C4050 1.366 . S
C4051 C4052 1.414 . S
C4051 C4054 1.499 . S
C4052 H4032 0.950 . S
C4052 C4051 1.414 . S
C4052 C4053 1.374 . S
C4053 H4033 0.950 . S
C4053 C4049 1.385 . S
C4053 C4052 1.374 . S
C4054 C4051 1.499 . S
C4054 C4055 1.373 . S
C4054 C4056 1.389 . S
C4055 H4034 0.950 . S
C4055 C4054 1.373 . S
C4055 C4071 1.377 . S
C4056 C4054 1.389 . S
C4056 C4057 1.524 . S
C4056 C4070 1.377 . S
C4057 C4056 1.524 . S
C4057 C4058 1.397 . S
C4057 C4062 1.363 . S
C4058 H4035 0.950 . S
C4058 C4057 1.397 . S
C4058 C4059 1.334 . S
C4059 H4036 0.950 . S
C4059 C4058 1.334 . S
C4059 C4060 1.287 . S
C4060 C4059 1.287 . S
C4060 C4061 1.524 . S
C4060 H4079 0.913 . S
C4061 H4037 0.950 . S
C4061 C4060 1.524 . S
C4061 C4062 1.415 . S
C4062 H4038 0.950 . S
C4062 C4057 1.363 . S
C4062 C4061 1.415 . S
C4063 H4039 0.951 . S
C4063 C4064 1.366 . S
C4063 C4065 1.388 . S
C4064 C4063 1.366 . S
C4064 C4068 1.385 . S
C4065 H4040 0.951 . S
C4065 C4063 1.388 . S
C4065 C4066 1.366 . S
C4066 C4065 1.366 . S
C4066 C4067 1.414 . S
C4066 C4069 1.499 . S
C4067 H4041 0.950 . S
C4067 C4066 1.414 . S
C4067 C4068 1.374 . S
C4068 H4042 0.950 . S
C4068 C4064 1.385 . S
C4068 C4067 1.374 . S
C4069 C4066 1.499 . S
C4069 C4070 1.373 . S
C4069 C4071 1.389 . S
C4070 H4043 0.950 . S
C4070 C4056 1.377 . S
C4070 C4069 1.373 . S
C4071 C4055 1.377 . S
C4071 C4069 1.389 . S
C4071 C4072 1.524 . S
C4072 C4071 1.524 . S
C4072 C4073 1.397 . S
C4072 C4077 1.363 . S
C4073 H4044 0.950 . S
C4073 C4072 1.397 . S
C4073 C4074 1.334 . S
C4074 H4045 0.950 . S
C4074 C4073 1.334 . S
C4074 C4075 1.287 . S
C4075 C4074 1.287 . S
C4075 C4076 1.524 . S
C4075 H4078 0.999 . S
C4076 H4046 0.950 . S
C4076 C4075 1.524 . S
C4076 C4077 1.415 . S
C4077 H4047 0.950 . S
C4077 C4072 1.363 . S
C4077 C4076 1.415 . S
H4078 C4075 0.999 . S
H4079 C4060 0.913 . S
H4080 C4098 0.951 . S
H4081 C4100 0.951 . S
H4082 C4102 0.950 . S
H4083 C4103 0.950 . S
H4084 C4105 0.950 . S
H4085 C4108 0.950 . S
H4086 C4109 0.950 . S
H4087 C4111 0.950 . S
H4088 C4112 0.950 . S
H4089 C4113 0.951 . S
H4090 C4115 0.951 . S
H4091 C4117 0.950 . S
H4092 C4118 0.950 . S
H4093 C4120 0.950 . S
H4094 C4123 0.950 . S
H4095 C4124 0.950 . S
H4096 C4126 0.950 . S
H4097 C4127 0.950 . S
C4098 H4080 0.951 . S
C4098 C4099 1.366 . S
C4098 C4100 1.388 . S
C4099 C4098 1.366 . S
C4099 C4103 1.385 . S
C4100 H4081 0.951 . S
C4100 C4098 1.388 . S
C4100 C4101 1.366 . S
C4101 C4100 1.366 . S
C4101 C4102 1.414 . S
C4101 C4104 1.499 . S
C4102 H4082 0.950 . S
C4102 C4101 1.414 . S
C4102 C4103 1.374 . S
C4103 H4083 0.950 . S
C4103 C4099 1.385 . S
C4103 C4102 1.374 . S
C4104 C4101 1.499 . S
C4104 C4105 1.373 . S
C4104 C4106 1.389 . S
C4105 H4084 0.950 . S
C4105 C4104 1.373 . S
C4105 C4121 1.377 . S
C4106 C4104 1.389 . S
C4106 C4107 1.524 . S
C4106 C4120 1.377 . S
C4107 C4106 1.524 . S
C4107 C4108 1.397 . S
C4107 C4112 1.363 . S
C4108 H4085 0.950 . S
C4108 C4107 1.397 . S
C4108 C4109 1.334 . S
C4109 H4086 0.950 . S
C4109 C4108 1.334 . S
C4109 C4110 1.287 . S
C4110 C4109 1.287 . S
C4110 C4111 1.524 . S
C4110 H4129 0.913 . S
C4111 H4087 0.950 . S
C4111 C4110 1.524 . S
C4111 C4112 1.415 . S
C4112 H4088 0.950 . S
C4112 C4107 1.363 . S
C4112 C4111 1.415 . S
C4113 H4089 0.951 . S
C4113 C4114 1.366 . S
C4113 C4115 1.388 . S
C4114 C4113 1.366 . S
C4114 C4118 1.385 . S
C4115 H4090 0.951 . S
C4115 C4113 1.388 . S
C4115 C4116 1.366 . S
C4116 C4115 1.366 . S
C4116 C4117 1.414 . S
C4116 C4119 1.499 . S
C4117 H4091 0.950 . S
C4117 C4116 1.414 . S
C4117 C4118 1.374 . S
C4118 H4092 0.950 . S
C4118 C4114 1.385 . S
C4118 C4117 1.374 . S
C4119 C4116 1.499 . S
C4119 C4120 1.373 . S
C4119 C4121 1.389 . S
C4120 H4093 0.950 . S
C4120 C4106 1.377 . S
C4120 C4119 1.373 . S
C4121 C4105 1.377 . S
C4121 C4119 1.389 . S
C4121 C4122 1.524 . S
C4122 C4121 1.524 . S
C4122 C4123 1.397 . S
C4122 C4127 1.363 . S
C4123 H4094 0.950 . S
C4123 C4122 1.397 . S
C4123 C4124 1.334 . S
C4124 H4095 0.950 . S
C4124 C4123 1.334 . S
C4124 C4125 1.287 . S
C4125 C4124 1.287 . S
C4125 C4126 1.524 . S
C4125 H4128 0.999 . S
C4126 H4096 0.950 . S
C4126 C4125 1.524 . S
C4126 C4127 1.415 . S
C4127 H4097 0.950 . S
C4127 C4122 1.363 . S
C4127 C4126 1.415 . S
H4128 C4125 0.999 . S
H4129 C4110 0.913 . S
H4130 C4148 0.951 . S
H4131 C4150 0.951 . S
H4132 C4152 0.950 . S
H4133 C4153 0.950 . S
H4134 C4155 0.950 . S
H4135 C4158 0.950 . S
H4136 C4159 0.950 . S
H4137 C4161 0.950 . S
H4138 C4162 0.950 . S
H4139 C4163 0.951 . S
H4140 C4165 0.951 . S
H4141 C4167 0.950 . S
H4142 C4168 0.950 . S
H4143 C4170 0.950 . S
H4144 C4173 0.950 . S
H4145 C4174 0.950 . S
H4146 C4176 0.950 . S
H4147 C4177 0.950 . S
C4148 H4130 0.951 . S
C4148 C4149 1.366 . S
C4148 C4150 1.388 . S
C4149 C4148 1.366 . S
C4149 C4153 1.385 . S
C4150 H4131 0.951 . S
C4150 C4148 1.388 . S
C4150 C4151 1.366 . S
C4151 C4150 1.366 . S
C4151 C4152 1.414 . S
C4151 C4154 1.499 . S
C4152 H4132 0.950 . S
C4152 C4151 1.414 . S
C4152 C4153 1.374 . S
C4153 H4133 0.950 . S
C4153 C4149 1.385 . S
C4153 C4152 1.374 . S
C4154 C4151 1.499 . S
C4154 C4155 1.373 . S
C4154 C4156 1.389 . S
C4155 H4134 0.950 . S
C4155 C4154 1.373 . S
C4155 C4171 1.377 . S
C4156 C4154 1.389 . S
C4156 C4157 1.524 . S
C4156 C4170 1.377 . S
C4157 C4156 1.524 . S
C4157 C4158 1.397 . S
C4157 C4162 1.363 . S
C4158 H4135 0.950 . S
C4158 C4157 1.397 . S
C4158 C4159 1.334 . S
C4159 H4136 0.950 . S
C4159 C4158 1.334 . S
C4159 C4160 1.287 . S
C4160 C4159 1.287 . S
C4160 C4161 1.524 . S
C4160 H4179 0.913 . S
C4161 H4137 0.950 . S
C4161 C4160 1.524 . S
C4161 C4162 1.415 . S
C4162 H4138 0.950 . S
C4162 C4157 1.363 . S
C4162 C4161 1.415 . S
C4163 H4139 0.951 . S
C4163 C4164 1.366 . S
C4163 C4165 1.388 . S
C4164 C4163 1.366 . S
C4164 C4168 1.385 . S
C4165 H4140 0.951 . S
C4165 C4163 1.388 . S
C4165 C4166 1.366 . S
C4166 C4165 1.366 . S
C4166 C4167 1.414 . S
C4166 C4169 1.499 . S
C4167 H4141 0.950 . S
C4167 C4166 1.414 . S
C4167 C4168 1.374 . S
C4168 H4142 0.950 . S
C4168 C4164 1.385 . S
C4168 C4167 1.374 . S
C4169 C4166 1.499 . S
C4169 C4170 1.373 . S
C4169 C4171 1.389 . S
C4170 H4143 0.950 . S
C4170 C4156 1.377 . S
C4170 C4169 1.373 . S
C4171 C4155 1.377 . S
C4171 C4169 1.389 . S
C4171 C4172 1.524 . S
C4172 C4171 1.524 . S
C4172 C4173 1.397 . S
C4172 C4177 1.363 . S
C4173 H4144 0.950 . S
C4173 C4172 1.397 . S
C4173 C4174 1.334 . S
C4174 H4145 0.950 . S
C4174 C4173 1.334 . S
C4174 C4175 1.287 . S
C4175 C4174 1.287 . S
C4175 C4176 1.524 . S
C4175 H4178 0.999 . S
C4176 H4146 0.950 . S
C4176 C4175 1.524 . S
C4176 C4177 1.415 . S
C4177 H4147 0.950 . S
C4177 C4172 1.363 . S
C4177 C4176 1.415 . S
H4178 C4175 0.999 . S
H4179 C4160 0.913 . S
H4180 C4198 0.951 . S
H4181 C4200 0.951 . S
H4182 C4202 0.958 . S
H4183 C4203 0.950 1_655 S
H4184 C4205 0.950 . S
H4185 C4208 0.950 . S
H4186 C4209 0.950 . S
H4187 C4211 0.950 . S
H4188 C4212 0.950 . S
H4189 C4213 0.951 . S
H4190 C4215 0.951 1_556 S
H4191 C4217 0.950 . S
H4192 C4218 0.950 . S
H4193 C4220 0.950 . S
H4194 C4223 0.950 . S
H4195 C4224 0.950 . S
H4196 C4226 0.950 . S
H4197 C4227 0.950 . S
C4198 H4180 0.951 . S
C4198 C4199 1.366 . S
C4198 C4200 1.388 . S
C4199 C4198 1.366 . S
C4199 C4203 1.385 . S
C4200 H4181 0.951 . S
C4200 C4198 1.388 . S
C4200 C4201 1.366 . S
C4201 C4200 1.366 . S
C4201 C4202 1.414 . S
C4201 C4204 1.499 . S
C4202 H4182 0.958 . S
C4202 C4201 1.414 . S
C4202 C4203 1.374 . S
C4203 H4183 0.950 1_455 S
C4203 C4199 1.385 . S
C4203 C4202 1.374 . S
C4204 C4201 1.499 . S
C4204 C4205 1.373 . S
C4204 C4206 1.389 . S
C4205 H4184 0.950 . S
C4205 C4204 1.373 . S
C4205 C4221 1.377 . S
C4206 C4204 1.389 . S
C4206 C4207 1.524 1_556 S
C4206 C4220 1.377 1_556 S
C4207 C4206 1.524 1_554 S
C4207 C4208 1.397 . S
C4207 C4212 1.363 . S
C4208 H4185 0.950 . S
C4208 C4207 1.397 . S
C4208 C4209 1.334 . S
C4209 H4186 0.950 . S
C4209 C4208 1.334 . S
C4209 C4210 1.287 . S
C4210 C4209 1.287 . S
C4210 C4211 1.524 . S
C4210 H4229 0.913 . S
C4211 H4187 0.950 . S
C4211 C4210 1.524 . S
C4211 C4212 1.415 . S
C4212 H4188 0.950 . S
C4212 C4207 1.363 . S
C4212 C4211 1.415 . S
C4213 H4189 0.951 . S
C4213 C4214 1.366 . S
C4213 C4215 1.388 . S
C4214 C4213 1.366 . S
C4214 C4218 1.385 . S
C4215 H4190 0.951 1_554 S
C4215 C4213 1.388 . S
C4215 C4216 1.364 1_554 S
C4216 C4215 1.364 1_556 S
C4216 C4217 1.410 1_556 S
C4216 C4219 1.504 . S
C4217 H4191 0.950 . S
C4217 C4216 1.410 1_554 S
C4217 C4218 1.374 . S
C4218 H4192 0.950 . S
C4218 C4214 1.385 . S
C4218 C4217 1.374 . S
C4219 C4216 1.504 . S
C4219 C4220 1.373 1_556 S
C4219 C4221 1.389 . S
C4220 H4193 0.950 . S
C4220 C4206 1.377 1_554 S
C4220 C4219 1.373 1_554 S
C4221 C4205 1.377 . S
C4221 C4219 1.389 . S
C4221 C4222 1.524 . S
C4222 C4221 1.524 . S
C4222 C4223 1.397 . S
C4222 C4227 1.363 1_455 S
C4223 H4194 0.950 . S
C4223 C4222 1.397 . S
C4223 C4224 1.334 . S
C4224 H4195 0.950 . S
C4224 C4223 1.334 . S
C4224 C4225 1.287 . S
C4225 C4224 1.287 . S
C4225 C4226 1.524 1_455 S
C4225 H4228 0.999 1_455 S
C4226 H4196 0.950 . S
C4226 C4225 1.524 1_655 S
C4226 C4227 1.415 . S
C4227 H4197 0.950 . S
C4227 C4222 1.363 1_655 S
C4227 C4226 1.415 . S
H4228 C4225 0.999 1_655 S
H4229 C4210 0.913 . S
H4230 C4248 0.951 . S
H4231 C4250 0.951 . S
H4232 C4252 0.950 . S
H4233 C4253 0.950 . S
H4234 C4255 0.950 . S
H4235 C4258 0.950 . S
H4236 C4259 0.950 . S
H4237 C4261 0.950 . S
H4238 C4262 0.950 . S
H4239 C4263 0.951 . S
H4240 C4265 0.951 . S
H4241 C4267 0.950 . S
H4242 C4268 0.950 . S
H4243 C4270 0.950 . S
H4244 C4273 0.950 . S
H4245 C4274 0.950 . S
H4246 C4276 0.950 . S
H4247 C4277 0.950 . S
C4248 H4230 0.951 . S
C4248 C4249 1.366 . S
C4248 C4250 1.388 . S
C4249 C4248 1.366 . S
C4249 C4253 1.385 . S
C4250 H4231 0.951 . S
C4250 C4248 1.388 . S
C4250 C4251 1.366 1_455 S
C4251 C4250 1.366 1_655 S
C4251 C4252 1.414 . S
C4251 C4254 1.499 . S
C4252 H4232 0.950 . S
C4252 C4251 1.414 . S
C4252 C4253 1.374 1_655 S
C4253 H4233 0.950 . S
C4253 C4249 1.385 . S
C4253 C4252 1.374 1_455 S
C4254 C4251 1.499 . S
C4254 C4255 1.373 . S
C4254 C4256 1.389 . S
C4255 H4234 0.950 . S
C4255 C4254 1.373 . S
C4255 C4271 1.377 . S
C4256 C4254 1.389 . S
C4256 C4257 1.524 . S
C4256 C4270 1.377 . S
C4257 C4256 1.524 . S
C4257 C4258 1.397 . S
C4257 C4262 1.363 . S
C4258 H4235 0.950 . S
C4258 C4257 1.397 . S
C4258 C4259 1.334 . S
C4259 H4236 0.950 . S
C4259 C4258 1.334 . S
C4259 C4260 1.287 . S
C4260 C4259 1.287 . S
C4260 C4261 1.524 . S
C4260 H4279 0.913 . S
C4261 H4237 0.950 . S
C4261 C4260 1.524 . S
C4261 C4262 1.415 . S
C4262 H4238 0.950 . S
C4262 C4257 1.363 . S
C4262 C4261 1.415 . S
C4263 H4239 0.951 . S
C4263 C4264 1.366 . S
C4263 C4265 1.388 . S
C4264 C4263 1.366 . S
C4264 C4268 1.385 . S
C4265 H4240 0.951 . S
C4265 C4263 1.388 . S
C4265 C4266 1.366 . S
C4266 C4265 1.366 . S
C4266 C4267 1.414 . S
C4266 C4269 1.499 . S
C4267 H4241 0.950 . S
C4267 C4266 1.414 . S
C4267 C4268 1.374 . S
C4268 H4242 0.950 . S
C4268 C4264 1.385 . S
C4268 C4267 1.374 . S
C4269 C4266 1.499 . S
C4269 C4270 1.373 . S
C4269 C4271 1.389 . S
C4270 H4243 0.950 . S
C4270 C4256 1.377 . S
C4270 C4269 1.373 . S
C4271 C4255 1.377 . S
C4271 C4269 1.389 . S
C4271 C4272 1.524 . S
C4272 C4271 1.524 . S
C4272 C4273 1.397 . S
C4272 C4277 1.363 . S
C4273 H4244 0.950 . S
C4273 C4272 1.397 . S
C4273 C4274 1.334 . S
C4274 H4245 0.950 . S
C4274 C4273 1.334 . S
C4274 C4275 1.287 . S
C4275 C4274 1.287 . S
C4275 C4276 1.524 . S
C4275 H4278 0.999 . S
C4276 H4246 0.950 . S
C4276 C4275 1.524 . S
C4276 C4277 1.415 . S
C4277 H4247 0.950 . S
C4277 C4272 1.363 . S
C4277 C4276 1.415 . S
H4278 C4275 0.999 . S
H4279 C4260 0.913 . S
H4280 C4298 0.951 . S
H4281 C4300 0.951 . S
H4282 C4302 0.950 . S
H4283 C4303 0.950 . S
H4284 C4305 0.950 . S
H4285 C4308 0.950 . S
H4286 C4309 0.950 . S
H4287 C4311 0.950 . S
H4288 C4312 0.950 . S
H4289 C4313 0.951 . S
H4290 C4315 0.951 . S
H4291 C4317 0.950 . S
H4292 C4318 0.950 . S
H4293 C4320 0.950 . S
H4294 C4323 0.950 . S
H4295 C4324 0.950 . S
H4296 C4326 0.950 . S
H4297 C4327 0.950 . S
C4298 H4280 0.951 . S
C4298 C4299 1.366 . S
C4298 C4300 1.388 . S
C4299 C4298 1.366 . S
C4299 C4303 1.385 . S
C4300 H4281 0.951 . S
C4300 C4298 1.388 . S
C4300 C4301 1.366 . S
C4301 C4300 1.366 . S
C4301 C4302 1.414 . S
C4301 C4304 1.499 . S
C4302 H4282 0.950 . S
C4302 C4301 1.414 . S
C4302 C4303 1.374 . S
C4303 H4283 0.950 . S
C4303 C4299 1.385 . S
C4303 C4302 1.374 . S
C4304 C4301 1.499 . S
C4304 C4305 1.373 . S
C4304 C4306 1.389 . S
C4305 H4284 0.950 . S
C4305 C4304 1.373 . S
C4305 C4321 1.377 . S
C4306 C4304 1.389 . S
C4306 C4307 1.524 . S
C4306 C4320 1.377 . S
C4307 C4306 1.524 . S
C4307 C4308 1.397 . S
C4307 C4312 1.363 . S
C4308 H4285 0.950 . S
C4308 C4307 1.397 . S
C4308 C4309 1.334 . S
C4309 H4286 0.950 . S
C4309 C4308 1.334 . S
C4309 C4310 1.287 . S
C4310 C4309 1.287 . S
C4310 C4311 1.524 . S
C4310 H4329 0.913 . S
C4311 H4287 0.950 . S
C4311 C4310 1.524 . S
C4311 C4312 1.415 . S
C4312 H4288 0.950 . S
C4312 C4307 1.363 . S
C4312 C4311 1.415 . S
C4313 H4289 0.951 . S
C4313 C4314 1.366 . S
C4313 C4315 1.388 . S
C4314 C4313 1.366 . S
C4314 C4318 1.385 . S
C4315 H4290 0.951 . S
C4315 C4313 1.388 . S
C4315 C4316 1.366 . S
C4316 C4315 1.366 . S
C4316 C4317 1.414 . S
C4316 C4319 1.499 . S
C4317 H4291 0.950 . S
C4317 C4316 1.414 . S
C4317 C4318 1.374 . S
C4318 H4292 0.950 . S
C4318 C4314 1.385 . S
C4318 C4317 1.374 . S
C4319 C4316 1.499 . S
C4319 C4320 1.373 . S
C4319 C4321 1.389 . S
C4320 H4293 0.950 . S
C4320 C4306 1.377 . S
C4320 C4319 1.373 . S
C4321 C4305 1.377 . S
C4321 C4319 1.389 . S
C4321 C4322 1.524 . S
C4322 C4321 1.524 . S
C4322 C4323 1.397 . S
C4322 C4327 1.363 . S
C4323 H4294 0.950 . S
C4323 C4322 1.397 . S
C4323 C4324 1.334 . S
C4324 H4295 0.950 . S
C4324 C4323 1.334 . S
C4324 C4325 1.287 . S
C4325 C4324 1.287 . S
C4325 C4326 1.524 . S
C4325 H4328 0.999 . S
C4326 H4296 0.950 . S
C4326 C4325 1.524 . S
C4326 C4327 1.415 . S
C4327 H4297 0.950 . S
C4327 C4322 1.363 . S
C4327 C4326 1.415 . S
H4328 C4325 0.999 . S
H4329 C4310 0.913 . S
H4330 C4348 0.951 . S
H4331 C4350 0.951 . S
H4332 C4352 0.950 . S
H4333 C4353 0.950 . S
H4334 C4355 0.950 1_455 S
H4335 C4358 0.950 . S
H4336 C4359 0.950 . S
H4337 C4361 0.950 . S
H4338 C4362 0.950 . S
H4339 C4363 0.951 . S
H4340 C4365 0.951 . S
H4341 C4367 0.950 . S
H4342 C4368 0.950 . S
H4343 C4370 0.950 . S
H4344 C4373 0.950 . S
H4345 C4374 0.950 . S
H4346 C4376 0.950 . S
H4347 C4377 0.950 . S
C4348 H4330 0.951 . S
C4348 C4349 1.366 . S
C4348 C4350 1.388 . S
C4349 C4348 1.366 . S
C4349 C4353 1.385 . S
C4350 H4331 0.951 . S
C4350 C4348 1.388 . S
C4350 C4351 1.366 . S
C4351 C4350 1.366 . S
C4351 C4352 1.414 . S
C4351 C4354 1.499 1_455 S
C4352 H4332 0.950 . S
C4352 C4351 1.414 . S
C4352 C4353 1.374 . S
C4353 H4333 0.950 . S
C4353 C4349 1.385 . S
C4353 C4352 1.374 . S
C4354 C4351 1.499 1_655 S
C4354 C4355 1.373 . S
C4354 C4356 1.389 . S
C4355 H4334 0.950 1_655 S
C4355 C4354 1.373 . S
C4355 C4371 1.377 . S
C4356 C4354 1.389 . S
C4356 C4357 1.524 . S
C4356 C4370 1.377 . S
C4357 C4356 1.524 . S
C4357 C4358 1.397 . S
C4357 C4362 1.363 . S
C4358 H4335 0.950 . S
C4358 C4357 1.397 . S
C4358 C4359 1.334 . S
C4359 H4336 0.950 . S
C4359 C4358 1.334 . S
C4359 C4360 1.287 . S
C4360 C4359 1.287 . S
C4360 C4361 1.524 . S
C4360 H4379 0.913 . S
C4361 H4337 0.950 . S
C4361 C4360 1.524 . S
C4361 C4362 1.415 . S
C4362 H4338 0.950 . S
C4362 C4357 1.363 . S
C4362 C4361 1.415 . S
C4363 H4339 0.951 . S
C4363 C4364 1.366 . S
C4363 C4365 1.388 . S
C4364 C4363 1.366 . S
C4364 C4368 1.385 . S
C4365 H4340 0.951 . S
C4365 C4363 1.388 . S
C4365 C4366 1.366 . S
C4366 C4365 1.366 . S
C4366 C4367 1.414 . S
C4366 C4369 1.499 . S
C4367 H4341 0.950 . S
C4367 C4366 1.414 . S
C4367 C4368 1.374 . S
C4368 H4342 0.950 . S
C4368 C4364 1.385 . S
C4368 C4367 1.374 . S
C4369 C4366 1.499 . S
C4369 C4370 1.373 . S
C4369 C4371 1.389 . S
C4370 H4343 0.950 . S
C4370 C4356 1.377 . S
C4370 C4369 1.373 . S
C4371 C4355 1.377 . S
C4371 C4369 1.389 . S
C4371 C4372 1.524 . S
C4372 C4371 1.524 . S
C4372 C4373 1.397 . S
C4372 C4377 1.363 . S
C4373 H4344 0.950 . S
C4373 C4372 1.397 . S
C4373 C4374 1.334 . S
C4374 H4345 0.950 . S
C4374 C4373 1.334 . S
C4374 C4375 1.287 . S
C4375 C4374 1.287 . S
C4375 C4376 1.524 . S
C4375 H4378 0.999 . S
C4376 H4346 0.950 . S
C4376 C4375 1.524 . S
C4376 C4377 1.415 . S
C4377 H4347 0.950 . S
C4377 C4372 1.363 . S
C4377 C4376 1.415 . S
H4378 C4375 0.999 . S
H4379 C4360 0.913 . S
H4380 C4398 0.951 . S
H4381 C4400 0.951 . S
H4382 C4402 0.950 . S
H4383 C4403 0.950 . S
H4384 C4405 0.950 . S
H4385 C4408 0.950 . S
H4386 C4409 0.950 . S
H4387 C4411 0.950 . S
H4388 C4412 0.950 . S
H4389 C4413 0.951 . S
H4390 C4415 0.951 . S
H4391 C4417 0.950 . S
H4392 C4418 0.950 . S
H4393 C4420 0.951 1_655 S
H4394 C4423 0.950 . S
H4395 C4424 0.950 . S
H4396 C4426 0.950 . S
H4397 C4427 0.950 . S
C4398 H4380 0.951 . S
C4398 C4399 1.366 . S
C4398 C4400 1.388 . S
C4399 C4398 1.366 . S
C4399 C4403 1.385 1_655 S
C4400 H4381 0.951 . S
C4400 C4398 1.388 . S
C4400 C4401 1.366 1_655 S
C4401 C4400 1.366 1_455 S
C4401 C4402 1.414 . S
C4401 C4404 1.499 . S
C4402 H4382 0.950 . S
C4402 C4401 1.414 . S
C4402 C4403 1.374 . S
C4403 H4383 0.950 . S
C4403 C4399 1.385 1_455 S
C4403 C4402 1.374 . S
C4404 C4401 1.499 . S
C4404 C4405 1.373 . S
C4404 C4406 1.389 1_455 S
C4405 H4384 0.950 . S
C4405 C4404 1.373 . S
C4405 C4421 1.377 . S
C4406 C4404 1.389 1_655 S
C4406 C4407 1.524 . S
C4406 C4420 1.377 1_655 S
C4407 C4406 1.524 . S
C4407 C4408 1.397 . S
C4407 C4412 1.363 . S
C4408 H4385 0.950 . S
C4408 C4407 1.397 . S
C4408 C4409 1.334 . S
C4409 H4386 0.950 . S
C4409 C4408 1.334 . S
C4409 C4410 1.287 . S
C4410 C4409 1.287 . S
C4410 C4411 1.524 . S
C4410 H4429 0.913 . S
C4411 H4387 0.950 . S
C4411 C4410 1.524 . S
C4411 C4412 1.415 . S
C4412 H4388 0.950 . S
C4412 C4407 1.363 . S
C4412 C4411 1.415 . S
C4413 H4389 0.951 . S
C4413 C4414 1.366 . S
C4413 C4415 1.388 . S
C4414 C4413 1.366 . S
C4414 C4418 1.385 . S
C4415 H4390 0.951 . S
C4415 C4413 1.388 . S
C4415 C4416 1.366 . S
C4416 C4415 1.366 . S
C4416 C4417 1.414 . S
C4416 C4419 1.499 . S
C4417 H4391 0.950 . S
C4417 C4416 1.414 . S
C4417 C4418 1.374 . S
C4418 H4392 0.950 . S
C4418 C4414 1.385 . S
C4418 C4417 1.374 . S
C4419 C4416 1.499 . S
C4419 C4420 1.372 . S
C4419 C4421 1.389 . S
C4420 H4393 0.951 1_455 S
C4420 C4406 1.377 1_455 S
C4420 C4419 1.372 . S
C4421 C4405 1.377 . S
C4421 C4419 1.389 . S
C4421 C4422 1.524 . S
C4422 C4421 1.524 . S
C4422 C4423 1.397 . S
C4422 C4427 1.363 . S
C4423 H4394 0.950 . S
C4423 C4422 1.397 . S
C4423 C4424 1.334 . S
C4424 H4395 0.950 . S
C4424 C4423 1.334 . S
C4424 C4425 1.287 . S
C4425 C4424 1.287 . S
C4425 C4426 1.524 . S
C4425 H4428 0.999 . S
C4426 H4396 0.950 . S
C4426 C4425 1.524 . S
C4426 C4427 1.415 . S
C4427 H4397 0.950 . S
C4427 C4422 1.363 . S
C4427 C4426 1.415 . S
H4428 C4425 0.999 . S
H4429 C4410 0.913 . S
H4430 C4448 0.951 . S
H4431 C4450 0.951 . S
H4432 C4452 0.950 . S
H4433 C4453 0.950 . S
H4434 C4455 0.950 . S
H4435 C4458 0.950 . S
H4436 C4459 0.950 . S
H4437 C4461 0.950 . S
H4438 C4462 0.950 . S
H4439 C4463 0.951 . S
H4440 C4465 0.951 . S
H4441 C4467 0.950 . S
H4442 C4468 0.950 . S
H4443 C4470 0.950 . S
H4444 C4473 0.950 . S
H4445 C4474 0.950 . S
H4446 C4476 0.950 . S
H4447 C4477 0.950 . S
C4448 H4430 0.951 . S
C4448 C4449 1.366 . S
C4448 C4450 1.388 . S
C4449 C4448 1.366 . S
C4449 C4453 1.385 . S
C4450 H4431 0.951 . S
C4450 C4448 1.388 . S
C4450 C4451 1.366 . S
C4451 C4450 1.366 . S
C4451 C4452 1.414 . S
C4451 C4454 1.499 . S
C4452 H4432 0.950 . S
C4452 C4451 1.414 . S
C4452 C4453 1.374 . S
C4453 H4433 0.950 . S
C4453 C4449 1.385 . S
C4453 C4452 1.374 . S
C4454 C4451 1.499 . S
C4454 C4455 1.373 . S
C4454 C4456 1.389 . S
C4455 H4434 0.950 . S
C4455 C4454 1.373 . S
C4455 C4471 1.377 . S
C4456 C4454 1.389 . S
C4456 C4457 1.524 . S
C4456 C4470 1.377 . S
C4457 C4456 1.524 . S
C4457 C4458 1.397 . S
C4457 C4462 1.363 . S
C4458 H4435 0.950 . S
C4458 C4457 1.397 . S
C4458 C4459 1.334 . S
C4459 H4436 0.950 . S
C4459 C4458 1.334 . S
C4459 C4460 1.287 . S
C4460 C4459 1.287 . S
C4460 C4461 1.524 . S
C4460 H4479 0.913 . S
C4461 H4437 0.950 . S
C4461 C4460 1.524 . S
C4461 C4462 1.415 . S
C4462 H4438 0.950 . S
C4462 C4457 1.363 . S
C4462 C4461 1.415 . S
C4463 H4439 0.951 . S
C4463 C4464 1.366 . S
C4463 C4465 1.388 . S
C4464 C4463 1.366 . S
C4464 C4468 1.385 . S
C4465 H4440 0.951 . S
C4465 C4463 1.388 . S
C4465 C4466 1.366 . S
C4466 C4465 1.366 . S
C4466 C4467 1.414 . S
C4466 C4469 1.499 . S
C4467 H4441 0.950 . S
C4467 C4466 1.414 . S
C4467 C4468 1.374 . S
C4468 H4442 0.950 . S
C4468 C4464 1.385 . S
C4468 C4467 1.374 . S
C4469 C4466 1.499 . S
C4469 C4470 1.373 . S
C4469 C4471 1.389 . S
C4470 H4443 0.950 . S
C4470 C4456 1.377 . S
C4470 C4469 1.373 . S
C4471 C4455 1.377 . S
C4471 C4469 1.389 . S
C4471 C4472 1.524 . S
C4472 C4471 1.524 . S
C4472 C4473 1.397 . S
C4472 C4477 1.363 . S
C4473 H4444 0.950 . S
C4473 C4472 1.397 . S
C4473 C4474 1.334 . S
C4474 H4445 0.950 . S
C4474 C4473 1.334 . S
C4474 C4475 1.287 . S
C4475 C4474 1.287 . S
C4475 C4476 1.524 . S
C4475 H4478 0.999 . S
C4476 H4446 0.950 . S
C4476 C4475 1.524 . S
C4476 C4477 1.415 . S
C4477 H4447 0.950 . S
C4477 C4472 1.363 . S
C4477 C4476 1.415 . S
H4478 C4475 0.999 . S
H4479 C4460 0.913 . S
H4480 C4498 0.951 . S
H4481 C4500 0.951 . S
H4482 C4502 0.950 . S
H4483 C4503 0.950 . S
H4484 C4505 0.950 . S
H4485 C4508 0.950 . S
H4486 C4509 0.950 . S
H4487 C4511 0.950 . S
H4488 C4512 0.950 . S
H4489 C4513 0.951 . S
H4490 C4515 0.951 . S
H4491 C4517 0.950 . S
H4492 C4518 0.950 . S
H4493 C4520 0.950 . S
H4494 C4523 0.950 . S
H4495 C4524 0.950 . S
H4496 C4526 0.950 . S
H4497 C4527 0.950 . S
C4498 H4480 0.951 . S
C4498 C4499 1.366 . S
C4498 C4500 1.388 . S
C4499 C4498 1.366 . S
C4499 C4503 1.385 . S
C4500 H4481 0.951 . S
C4500 C4498 1.388 . S
C4500 C4501 1.366 . S
C4501 C4500 1.366 . S
C4501 C4502 1.414 . S
C4501 C4504 1.499 . S
C4502 H4482 0.950 . S
C4502 C4501 1.414 . S
C4502 C4503 1.374 . S
C4503 H4483 0.950 . S
C4503 C4499 1.385 . S
C4503 C4502 1.374 . S
C4504 C4501 1.499 . S
C4504 C4505 1.373 . S
C4504 C4506 1.389 . S
C4505 H4484 0.950 . S
C4505 C4504 1.373 . S
C4505 C4521 1.377 . S
C4506 C4504 1.389 . S
C4506 C4507 1.524 . S
C4506 C4520 1.377 . S
C4507 C4506 1.524 . S
C4507 C4508 1.397 . S
C4507 C4512 1.363 . S
C4508 H4485 0.950 . S
C4508 C4507 1.397 . S
C4508 C4509 1.334 . S
C4509 H4486 0.950 . S
C4509 C4508 1.334 . S
C4509 C4510 1.287 . S
C4510 C4509 1.287 . S
C4510 C4511 1.524 . S
C4510 H4529 0.913 . S
C4511 H4487 0.950 . S
C4511 C4510 1.524 . S
C4511 C4512 1.415 . S
C4512 H4488 0.950 . S
C4512 C4507 1.363 . S
C4512 C4511 1.415 . S
C4513 H4489 0.951 . S
C4513 C4514 1.366 . S
C4513 C4515 1.388 . S
C4514 C4513 1.366 . S
C4514 C4518 1.385 . S
C4515 H4490 0.951 . S
C4515 C4513 1.388 . S
C4515 C4516 1.366 . S
C4516 C4515 1.366 . S
C4516 C4517 1.414 . S
C4516 C4519 1.499 . S
C4517 H4491 0.950 . S
C4517 C4516 1.414 . S
C4517 C4518 1.374 . S
C4518 H4492 0.950 . S
C4518 C4514 1.385 . S
C4518 C4517 1.374 . S
C4519 C4516 1.499 . S
C4519 C4520 1.373 . S
C4519 C4521 1.389 . S
C4520 H4493 0.950 . S
C4520 C4506 1.377 . S
C4520 C4519 1.373 . S
C4521 C4505 1.377 . S
C4521 C4519 1.389 . S
C4521 C4522 1.524 . S
C4522 C4521 1.524 . S
C4522 C4523 1.397 . S
C4522 C4527 1.363 . S
C4523 H4494 0.950 . S
C4523 C4522 1.397 . S
C4523 C4524 1.334 . S
C4524 H4495 0.950 . S
C4524 C4523 1.334 . S
C4524 C4525 1.287 . S
C4525 C4524 1.287 . S
C4525 C4526 1.524 . S
C4525 H4528 0.999 . S
C4526 H4496 0.950 . S
C4526 C4525 1.524 . S
C4526 C4527 1.415 . S
C4527 H4497 0.950 . S
C4527 C4522 1.363 . S
C4527 C4526 1.415 . S
H4528 C4525 0.999 . S
H4529 C4510 0.913 . S
H4530 C4548 0.951 . S
H4531 C4550 0.951 . S
H4532 C4552 0.950 . S
H4533 C4553 0.950 1_554 S
H4534 C4555 0.950 . S
H4535 C4558 0.950 . S
H4536 C4559 0.950 . S
H4537 C4561 0.950 . S
H4538 C4562 0.950 . S
H4539 C4563 0.951 . S
H4540 C4565 0.951 . S
H4541 C4567 0.950 . S
H4542 C4568 0.950 . S
H4543 C4570 0.950 . S
H4544 C4573 0.950 . S
H4545 C4574 0.950 . S
H4546 C4576 0.950 . S
H4547 C4577 0.950 . S
C4548 H4530 0.951 . S
C4548 C4549 1.366 . S
C4548 C4550 1.388 . S
C4549 C4548 1.366 . S
C4549 C4553 1.385 . S
C4550 H4531 0.951 . S
C4550 C4548 1.388 . S
C4550 C4551 1.366 . S
C4551 C4550 1.366 . S
C4551 C4552 1.414 . S
C4551 C4554 1.499 . S
C4552 H4532 0.950 . S
C4552 C4551 1.414 . S
C4552 C4553 1.374 . S
C4553 H4533 0.950 1_556 S
C4553 C4549 1.385 . S
C4553 C4552 1.374 . S
C4554 C4551 1.499 . S
C4554 C4555 1.373 . S
C4554 C4556 1.389 . S
C4555 H4534 0.950 . S
C4555 C4554 1.373 . S
C4555 C4571 1.377 . S
C4556 C4554 1.389 . S
C4556 C4557 1.524 . S
C4556 C4570 1.377 . S
C4557 C4556 1.524 . S
C4557 C4558 1.397 . S
C4557 C4562 1.363 . S
C4558 H4535 0.950 . S
C4558 C4557 1.397 . S
C4558 C4559 1.334 . S
C4559 H4536 0.950 . S
C4559 C4558 1.334 . S
C4559 C4560 1.287 . S
C4560 C4559 1.287 . S
C4560 C4561 1.524 . S
C4560 H4579 0.913 . S
C4561 H4537 0.950 . S
C4561 C4560 1.524 . S
C4561 C4562 1.415 . S
C4562 H4538 0.950 . S
C4562 C4557 1.363 . S
C4562 C4561 1.415 . S
C4563 H4539 0.951 . S
C4563 C4564 1.366 . S
C4563 C4565 1.388 . S
C4564 C4563 1.366 . S
C4564 C4568 1.385 . S
C4565 H4540 0.951 . S
C4565 C4563 1.388 . S
C4565 C4566 1.366 . S
C4566 C4565 1.366 . S
C4566 C4567 1.414 . S
C4566 C4569 1.499 . S
C4567 H4541 0.950 . S
C4567 C4566 1.414 . S
C4567 C4568 1.374 . S
C4568 H4542 0.950 . S
C4568 C4564 1.385 . S
C4568 C4567 1.374 . S
C4569 C4566 1.499 . S
C4569 C4570 1.373 . S
C4569 C4571 1.389 . S
C4570 H4543 0.950 . S
C4570 C4556 1.377 . S
C4570 C4569 1.373 . S
C4571 C4555 1.377 . S
C4571 C4569 1.389 . S
C4571 C4572 1.524 . S
C4572 C4571 1.524 . S
C4572 C4573 1.397 . S
C4572 C4577 1.363 . S
C4573 H4544 0.950 . S
C4573 C4572 1.397 . S
C4573 C4574 1.334 . S
C4574 H4545 0.950 . S
C4574 C4573 1.334 . S
C4574 C4575 1.287 . S
C4575 C4574 1.287 . S
C4575 C4576 1.524 . S
C4575 H4578 0.999 . S
C4576 H4546 0.950 . S
C4576 C4575 1.524 . S
C4576 C4577 1.415 . S
C4577 H4547 0.950 . S
C4577 C4572 1.363 . S
C4577 C4576 1.415 . S
H4578 C4575 0.999 . S
H4579 C4560 0.913 . S
H4580 C4598 0.951 . S
H4581 C4600 0.951 . S
H4582 C4602 0.950 . S
H4583 C4603 0.950 . S
H4584 C4605 0.950 . S
H4585 C4608 0.950 . S
H4586 C4609 0.950 . S
H4587 C4611 0.950 . S
H4588 C4612 0.950 . S
H4589 C4613 0.951 . S
H4590 C4615 0.951 . S
H4591 C4617 0.950 . S
H4592 C4618 0.950 . S
H4593 C4620 0.950 . S
H4594 C4623 0.950 . S
H4595 C4624 0.950 . S
H4596 C4626 0.950 . S
H4597 C4627 0.950 . S
C4598 H4580 0.951 . S
C4598 C4599 1.366 . S
C4598 C4600 1.388 . S
C4599 C4598 1.366 . S
C4599 C4603 1.385 . S
C4600 H4581 0.951 . S
C4600 C4598 1.388 . S
C4600 C4601 1.366 . S
C4601 C4600 1.366 . S
C4601 C4602 1.414 . S
C4601 C4604 1.499 . S
C4602 H4582 0.950 . S
C4602 C4601 1.414 . S
C4602 C4603 1.374 . S
C4603 H4583 0.950 . S
C4603 C4599 1.385 . S
C4603 C4602 1.374 . S
C4604 C4601 1.499 . S
C4604 C4605 1.373 . S
C4604 C4606 1.389 . S
C4605 H4584 0.950 . S
C4605 C4604 1.373 . S
C4605 C4621 1.377 . S
C4606 C4604 1.389 . S
C4606 C4607 1.524 . S
C4606 C4620 1.377 . S
C4607 C4606 1.524 . S
C4607 C4608 1.397 . S
C4607 C4612 1.363 . S
C4608 H4585 0.950 . S
C4608 C4607 1.397 . S
C4608 C4609 1.334 . S
C4609 H4586 0.950 . S
C4609 C4608 1.334 . S
C4609 C4610 1.287 . S
C4610 C4609 1.287 . S
C4610 C4611 1.524 . S
C4610 H4629 0.913 . S
C4611 H4587 0.950 . S
C4611 C4610 1.524 . S
C4611 C4612 1.415 . S
C4612 H4588 0.950 . S
C4612 C4607 1.363 . S
C4612 C4611 1.415 . S
C4613 H4589 0.951 . S
C4613 C4614 1.366 . S
C4613 C4615 1.388 . S
C4614 C4613 1.366 . S
C4614 C4618 1.385 . S
C4615 H4590 0.951 . S
C4615 C4613 1.388 . S
C4615 C4616 1.366 . S
C4616 C4615 1.366 . S
C4616 C4617 1.414 . S
C4616 C4619 1.499 . S
C4617 H4591 0.950 . S
C4617 C4616 1.414 . S
C4617 C4618 1.374 . S
C4618 H4592 0.950 . S
C4618 C4614 1.385 . S
C4618 C4617 1.374 . S
C4619 C4616 1.499 . S
C4619 C4620 1.373 . S
C4619 C4621 1.389 . S
C4620 H4593 0.950 . S
C4620 C4606 1.377 . S
C4620 C4619 1.373 . S
C4621 C4605 1.377 . S
C4621 C4619 1.389 . S
C4621 C4622 1.524 . S
C4622 C4621 1.524 . S
C4622 C4623 1.397 . S
C4622 C4627 1.363 . S
C4623 H4594 0.950 . S
C4623 C4622 1.397 . S
C4623 C4624 1.334 . S
C4624 H4595 0.950 . S
C4624 C4623 1.334 . S
C4624 C4625 1.287 . S
C4625 C4624 1.287 . S
C4625 C4626 1.524 . S
C4625 H4628 0.999 . S
C4626 H4596 0.950 . S
C4626 C4625 1.524 . S
C4626 C4627 1.415 . S
C4627 H4597 0.950 . S
C4627 C4622 1.363 . S
C4627 C4626 1.415 . S
H4628 C4625 0.999 . S
H4629 C4610 0.913 . S
H4630 C4648 0.951 . S
H4631 C4650 0.951 . S
H4632 C4652 0.950 . S
H4633 C4653 0.950 . S
H4634 C4655 0.950 . S
H4635 C4658 0.950 . S
H4636 C4659 0.950 . S
H4637 C4661 0.950 . S
H4638 C4662 0.950 . S
H4639 C4663 0.951 . S
H4640 C4665 0.951 . S
H4641 C4667 0.950 . S
H4642 C4668 0.950 . S
H4643 C4670 0.950 . S
H4644 C4673 0.950 . S
H4645 C4674 0.950 . S
H4646 C4676 0.950 . S
H4647 C4677 0.950 . S
C4648 H4630 0.951 . S
C4648 C4649 1.366 . S
C4648 C4650 1.388 . S
C4649 C4648 1.366 . S
C4649 C4653 1.385 . S
C4650 H4631 0.951 . S
C4650 C4648 1.388 . S
C4650 C4651 1.366 . S
C4651 C4650 1.366 . S
C4651 C4652 1.414 . S
C4651 C4654 1.499 . S
C4652 H4632 0.950 . S
C4652 C4651 1.414 . S
C4652 C4653 1.374 . S
C4653 H4633 0.950 . S
C4653 C4649 1.385 . S
C4653 C4652 1.374 . S
C4654 C4651 1.499 . S
C4654 C4655 1.373 . S
C4654 C4656 1.389 . S
C4655 H4634 0.950 . S
C4655 C4654 1.373 . S
C4655 C4671 1.377 . S
C4656 C4654 1.389 . S
C4656 C4657 1.524 . S
C4656 C4670 1.377 . S
C4657 C4656 1.524 . S
C4657 C4658 1.397 . S
C4657 C4662 1.363 . S
C4658 H4635 0.950 . S
C4658 C4657 1.397 . S
C4658 C4659 1.334 . S
C4659 H4636 0.950 . S
C4659 C4658 1.334 . S
C4659 C4660 1.287 . S
C4660 C4659 1.287 . S
C4660 C4661 1.524 . S
C4660 H4679 0.913 . S
C4661 H4637 0.950 . S
C4661 C4660 1.524 . S
C4661 C4662 1.415 . S
C4662 H4638 0.950 . S
C4662 C4657 1.363 . S
C4662 C4661 1.415 . S
C4663 H4639 0.951 . S
C4663 C4664 1.366 . S
C4663 C4665 1.388 . S
C4664 C4663 1.366 . S
C4664 C4668 1.385 . S
C4665 H4640 0.951 . S
C4665 C4663 1.388 . S
C4665 C4666 1.366 . S
C4666 C4665 1.366 . S
C4666 C4667 1.414 . S
C4666 C4669 1.499 . S
C4667 H4641 0.950 . S
C4667 C4666 1.414 . S
C4667 C4668 1.374 . S
C4668 H4642 0.950 . S
C4668 C4664 1.385 . S
C4668 C4667 1.374 . S
C4669 C4666 1.499 . S
C4669 C4670 1.373 . S
C4669 C4671 1.389 . S
C4670 H4643 0.950 . S
C4670 C4656 1.377 . S
C4670 C4669 1.373 . S
C4671 C4655 1.377 . S
C4671 C4669 1.389 . S
C4671 C4672 1.524 . S
C4672 C4671 1.524 . S
C4672 C4673 1.397 . S
C4672 C4677 1.363 . S
C4673 H4644 0.950 . S
C4673 C4672 1.397 . S
C4673 C4674 1.334 . S
C4674 H4645 0.950 . S
C4674 C4673 1.334 . S
C4674 C4675 1.287 . S
C4675 C4674 1.287 . S
C4675 C4676 1.524 . S
C4675 H4678 0.999 . S
C4676 H4646 0.950 . S
C4676 C4675 1.524 . S
C4676 C4677 1.415 . S
C4677 H4647 0.950 . S
C4677 C4672 1.363 . S
C4677 C4676 1.415 . S
H4678 C4675 0.999 . S
H4679 C4660 0.913 . S
H4680 C4698 0.951 . S
H4681 C4700 0.951 . S
H4682 C4702 0.950 . S
H4683 C4703 0.950 . S
H4684 C4705 0.950 . S
H4685 C4708 0.950 . S
H4686 C4709 0.950 . S
H4687 C4711 0.950 . S
H4688 C4712 0.950 . S
H4689 C4713 0.951 . S
H4690 C4715 0.951 . S
H4691 C4717 0.950 . S
H4692 C4718 0.950 . S
H4693 C4720 0.950 . S
H4694 C4723 0.950 . S
H4695 C4724 0.950 . S
H4696 C4726 0.950 . S
H4697 C4727 0.950 . S
C4698 H4680 0.951 . S
C4698 C4699 1.366 . S
C4698 C4700 1.388 . S
C4699 C4698 1.366 . S
C4699 C4703 1.385 . S
C4700 H4681 0.951 . S
C4700 C4698 1.388 . S
C4700 C4701 1.366 . S
C4701 C4700 1.366 . S
C4701 C4702 1.414 . S
C4701 C4704 1.499 . S
C4702 H4682 0.950 . S
C4702 C4701 1.414 . S
C4702 C4703 1.374 . S
C4703 H4683 0.950 . S
C4703 C4699 1.385 . S
C4703 C4702 1.374 . S
C4704 C4701 1.499 . S
C4704 C4705 1.373 . S
C4704 C4706 1.389 . S
C4705 H4684 0.950 . S
C4705 C4704 1.373 . S
C4705 C4721 1.377 . S
C4706 C4704 1.389 . S
C4706 C4707 1.524 . S
C4706 C4720 1.377 . S
C4707 C4706 1.524 . S
C4707 C4708 1.397 . S
C4707 C4712 1.363 . S
C4708 H4685 0.950 . S
C4708 C4707 1.397 . S
C4708 C4709 1.334 . S
C4709 H4686 0.950 . S
C4709 C4708 1.334 . S
C4709 C4710 1.287 . S
C4710 C4709 1.287 . S
C4710 C4711 1.524 . S
C4710 H4729 0.913 . S
C4711 H4687 0.950 . S
C4711 C4710 1.524 . S
C4711 C4712 1.415 . S
C4712 H4688 0.950 . S
C4712 C4707 1.363 . S
C4712 C4711 1.415 . S
C4713 H4689 0.951 . S
C4713 C4714 1.366 . S
C4713 C4715 1.388 . S
C4714 C4713 1.366 . S
C4714 C4718 1.385 . S
C4715 H4690 0.951 . S
C4715 C4713 1.388 . S
C4715 C4716 1.366 . S
C4716 C4715 1.366 . S
C4716 C4717 1.414 . S
C4716 C4719 1.499 . S
C4717 H4691 0.950 . S
C4717 C4716 1.414 . S
C4717 C4718 1.374 . S
C4718 H4692 0.950 . S
C4718 C4714 1.385 . S
C4718 C4717 1.374 . S
C4719 C4716 1.499 . S
C4719 C4720 1.373 . S
C4719 C4721 1.389 . S
C4720 H4693 0.950 . S
C4720 C4706 1.377 . S
C4720 C4719 1.373 . S
C4721 C4705 1.377 . S
C4721 C4719 1.389 . S
C4721 C4722 1.524 . S
C4722 C4721 1.524 . S
C4722 C4723 1.397 . S
C4722 C4727 1.363 . S
C4723 H4694 0.950 . S
C4723 C4722 1.397 . S
C4723 C4724 1.334 . S
C4724 H4695 0.950 . S
C4724 C4723 1.334 . S
C4724 C4725 1.287 . S
C4725 C4724 1.287 . S
C4725 C4726 1.524 . S
C4725 H4728 0.999 . S
C4726 H4696 0.950 . S
C4726 C4725 1.524 . S
C4726 C4727 1.415 . S
C4727 H4697 0.950 . S
C4727 C4722 1.363 . S
C4727 C4726 1.415 . S
H4728 C4725 0.999 . S
H4729 C4710 0.913 . S
H4730 C4748 0.951 . S
H4731 C4750 0.951 . S
H4732 C4752 0.950 . S
H4733 C4753 0.950 . S
H4734 C4755 0.950 . S
H4735 C4758 0.950 . S
H4736 C4759 0.950 . S
H4737 C4761 0.950 . S
H4738 C4762 0.950 . S
H4739 C4763 0.951 . S
H4740 C4765 0.951 . S
H4741 C4767 0.950 . S
H4742 C4768 0.950 . S
H4743 C4770 0.950 . S
H4744 C4773 0.950 . S
H4745 C4774 0.950 . S
H4746 C4776 0.950 . S
H4747 C4777 0.950 . S
C4748 H4730 0.951 . S
C4748 C4749 1.366 . S
C4748 C4750 1.388 . S
C4749 C4748 1.366 . S
C4749 C4753 1.385 . S
C4750 H4731 0.951 . S
C4750 C4748 1.388 . S
C4750 C4751 1.366 . S
C4751 C4750 1.366 . S
C4751 C4752 1.414 . S
C4751 C4754 1.499 . S
C4752 H4732 0.950 . S
C4752 C4751 1.414 . S
C4752 C4753 1.374 . S
C4753 H4733 0.950 . S
C4753 C4749 1.385 . S
C4753 C4752 1.374 . S
C4754 C4751 1.499 . S
C4754 C4755 1.373 . S
C4754 C4756 1.389 . S
C4755 H4734 0.950 . S
C4755 C4754 1.373 . S
C4755 C4771 1.377 . S
C4756 C4754 1.389 . S
C4756 C4757 1.524 . S
C4756 C4770 1.377 . S
C4757 C4756 1.524 . S
C4757 C4758 1.397 . S
C4757 C4762 1.363 . S
C4758 H4735 0.950 . S
C4758 C4757 1.397 . S
C4758 C4759 1.334 . S
C4759 H4736 0.950 . S
C4759 C4758 1.334 . S
C4759 C4760 1.287 . S
C4760 C4759 1.287 . S
C4760 C4761 1.524 . S
C4760 H4779 0.913 . S
C4761 H4737 0.950 . S
C4761 C4760 1.524 . S
C4761 C4762 1.415 . S
C4762 H4738 0.950 . S
C4762 C4757 1.363 . S
C4762 C4761 1.415 . S
C4763 H4739 0.951 . S
C4763 C4764 1.366 . S
C4763 C4765 1.388 . S
C4764 C4763 1.366 . S
C4764 C4768 1.385 . S
C4765 H4740 0.951 . S
C4765 C4763 1.388 . S
C4765 C4766 1.366 . S
C4766 C4765 1.366 . S
C4766 C4767 1.414 . S
C4766 C4769 1.499 . S
C4767 H4741 0.950 . S
C4767 C4766 1.414 . S
C4767 C4768 1.374 . S
C4768 H4742 0.950 . S
C4768 C4764 1.385 . S
C4768 C4767 1.374 . S
C4769 C4766 1.499 . S
C4769 C4770 1.373 . S
C4769 C4771 1.389 . S
C4770 H4743 0.950 . S
C4770 C4756 1.377 . S
C4770 C4769 1.373 . S
C4771 C4755 1.377 . S
C4771 C4769 1.389 . S
C4771 C4772 1.524 . S
C4772 C4771 1.524 . S
C4772 C4773 1.397 . S
C4772 C4777 1.363 . S
C4773 H4744 0.950 . S
C4773 C4772 1.397 . S
C4773 C4774 1.334 . S
C4774 H4745 0.950 . S
C4774 C4773 1.334 . S
C4774 C4775 1.287 . S
C4775 C4774 1.287 . S
C4775 C4776 1.524 . S
C4775 H4778 0.999 . S
C4776 H4746 0.950 . S
C4776 C4775 1.524 . S
C4776 C4777 1.415 . S
C4777 H4747 0.950 . S
C4777 C4772 1.363 . S
C4777 C4776 1.415 . S
H4778 C4775 0.999 . S
H4779 C4760 0.913 . S
H4780 C4798 0.951 . S
H4781 C4800 0.951 . S
H4782 C4802 0.950 . S
H4783 C4803 0.950 . S
H4784 C4805 0.950 . S
H4785 C4808 0.950 . S
H4786 C4809 0.950 . S
H4787 C4811 0.950 . S
H4788 C4812 0.950 . S
H4789 C4813 0.951 . S
H4790 C4815 0.951 . S
H4791 C4817 0.950 . S
H4792 C4818 0.950 . S
H4793 C4820 0.950 . S
H4794 C4823 0.950 . S
H4795 C4824 0.950 . S
H4796 C4826 0.950 . S
H4797 C4827 0.950 . S
C4798 H4780 0.951 . S
C4798 C4799 1.366 . S
C4798 C4800 1.388 . S
C4799 C4798 1.366 . S
C4799 C4803 1.385 . S
C4800 H4781 0.951 . S
C4800 C4798 1.388 . S
C4800 C4801 1.366 . S
C4801 C4800 1.366 . S
C4801 C4802 1.414 . S
C4801 C4804 1.499 . S
C4802 H4782 0.950 . S
C4802 C4801 1.414 . S
C4802 C4803 1.374 . S
C4803 H4783 0.950 . S
C4803 C4799 1.385 . S
C4803 C4802 1.374 . S
C4804 C4801 1.499 . S
C4804 C4805 1.373 . S
C4804 C4806 1.389 . S
C4805 H4784 0.950 . S
C4805 C4804 1.373 . S
C4805 C4821 1.377 . S
C4806 C4804 1.389 . S
C4806 C4807 1.524 . S
C4806 C4820 1.377 . S
C4807 C4806 1.524 . S
C4807 C4808 1.397 . S
C4807 C4812 1.363 . S
C4808 H4785 0.950 . S
C4808 C4807 1.397 . S
C4808 C4809 1.334 . S
C4809 H4786 0.950 . S
C4809 C4808 1.334 . S
C4809 C4810 1.287 . S
C4810 C4809 1.287 . S
C4810 C4811 1.524 . S
C4810 H4829 0.913 . S
C4811 H4787 0.950 . S
C4811 C4810 1.524 . S
C4811 C4812 1.415 . S
C4812 H4788 0.950 . S
C4812 C4807 1.363 . S
C4812 C4811 1.415 . S
C4813 H4789 0.951 . S
C4813 C4814 1.366 . S
C4813 C4815 1.388 . S
C4814 C4813 1.366 . S
C4814 C4818 1.385 . S
C4815 H4790 0.951 . S
C4815 C4813 1.388 . S
C4815 C4816 1.366 . S
C4816 C4815 1.366 . S
C4816 C4817 1.414 . S
C4816 C4819 1.499 . S
C4817 H4791 0.950 . S
C4817 C4816 1.414 . S
C4817 C4818 1.374 . S
C4818 H4792 0.950 . S
C4818 C4814 1.385 . S
C4818 C4817 1.374 . S
C4819 C4816 1.499 . S
C4819 C4820 1.373 . S
C4819 C4821 1.389 . S
C4820 H4793 0.950 . S
C4820 C4806 1.377 . S
C4820 C4819 1.373 . S
C4821 C4805 1.377 . S
C4821 C4819 1.389 . S
C4821 C4822 1.524 . S
C4822 C4821 1.524 . S
C4822 C4823 1.397 . S
C4822 C4827 1.363 . S
C4823 H4794 0.950 . S
C4823 C4822 1.397 . S
C4823 C4824 1.334 . S
C4824 H4795 0.950 . S
C4824 C4823 1.334 . S
C4824 C4825 1.287 . S
C4825 C4824 1.287 . S
C4825 C4826 1.524 . S
C4825 H4828 0.999 . S
C4826 H4796 0.950 . S
C4826 C4825 1.524 . S
C4826 C4827 1.415 . S
C4827 H4797 0.950 . S
C4827 C4822 1.363 . S
C4827 C4826 1.415 . S
H4828 C4825 0.999 . S
H4829 C4810 0.913 . S
H4830 C4848 0.951 . S
H4831 C4850 0.951 . S
H4832 C4852 0.950 . S
H4833 C4853 0.950 . S
H4834 C4855 0.950 . S
H4835 C4858 0.950 . S
H4836 C4859 0.950 . S
H4837 C4861 0.950 . S
H4838 C4862 0.950 . S
H4839 C4863 0.951 . S
H4840 C4865 0.951 . S
H4841 C4867 0.950 . S
H4842 C4868 0.950 . S
H4843 C4870 0.950 . S
H4844 C4873 0.950 . S
H4845 C4874 0.950 . S
H4846 C4876 0.950 . S
H4847 C4877 0.950 . S
C4848 H4830 0.951 . S
C4848 C4849 1.366 . S
C4848 C4850 1.388 . S
C4849 C4848 1.366 . S
C4849 C4853 1.385 . S
C4850 H4831 0.951 . S
C4850 C4848 1.388 . S
C4850 C4851 1.366 . S
C4851 C4850 1.366 . S
C4851 C4852 1.414 . S
C4851 C4854 1.499 . S
C4852 H4832 0.950 . S
C4852 C4851 1.414 . S
C4852 C4853 1.374 . S
C4853 H4833 0.950 . S
C4853 C4849 1.385 . S
C4853 C4852 1.374 . S
C4854 C4851 1.499 . S
C4854 C4855 1.373 . S
C4854 C4856 1.389 . S
C4855 H4834 0.950 . S
C4855 C4854 1.373 . S
C4855 C4871 1.377 . S
C4856 C4854 1.389 . S
C4856 C4857 1.524 . S
C4856 C4870 1.377 . S
C4857 C4856 1.524 . S
C4857 C4858 1.397 . S
C4857 C4862 1.363 . S
C4858 H4835 0.950 . S
C4858 C4857 1.397 . S
C4858 C4859 1.334 . S
C4859 H4836 0.950 . S
C4859 C4858 1.334 . S
C4859 C4860 1.287 . S
C4860 C4859 1.287 . S
C4860 C4861 1.524 . S
C4860 H4879 0.913 . S
C4861 H4837 0.950 . S
C4861 C4860 1.524 . S
C4861 C4862 1.415 . S
C4862 H4838 0.950 . S
C4862 C4857 1.363 . S
C4862 C4861 1.415 . S
C4863 H4839 0.951 . S
C4863 C4864 1.366 . S
C4863 C4865 1.388 . S
C4864 C4863 1.366 . S
C4864 C4868 1.385 . S
C4865 H4840 0.951 . S
C4865 C4863 1.388 . S
C4865 C4866 1.366 . S
C4866 C4865 1.366 . S
C4866 C4867 1.414 . S
C4866 C4869 1.499 . S
C4867 H4841 0.950 . S
C4867 C4866 1.414 . S
C4867 C4868 1.374 . S
C4868 H4842 0.950 . S
C4868 C4864 1.385 . S
C4868 C4867 1.374 . S
C4869 C4866 1.499 . S
C4869 C4870 1.373 . S
C4869 C4871 1.389 . S
C4870 H4843 0.950 . S
C4870 C4856 1.377 . S
C4870 C4869 1.373 . S
C4871 C4855 1.377 . S
C4871 C4869 1.389 . S
C4871 C4872 1.524 . S
C4872 C4871 1.524 . S
C4872 C4873 1.397 . S
C4872 C4877 1.363 . S
C4873 H4844 0.950 . S
C4873 C4872 1.397 . S
C4873 C4874 1.334 . S
C4874 H4845 0.950 . S
C4874 C4873 1.334 . S
C4874 C4875 1.287 . S
C4875 C4874 1.287 . S
C4875 C4876 1.524 . S
C4875 H4878 0.999 . S
C4876 H4846 0.950 . S
C4876 C4875 1.524 . S
C4876 C4877 1.415 . S
C4877 H4847 0.950 . S
C4877 C4872 1.363 . S
C4877 C4876 1.415 . S
H4878 C4875 0.999 . S
H4879 C4860 0.913 . S
H4880 C4898 0.951 . S
H4881 C4900 0.951 . S
H4882 C4902 0.950 . S
H4883 C4903 0.950 . S
H4884 C4905 0.950 . S
H4885 C4908 0.950 . S
H4886 C4909 0.950 . S
H4887 C4911 0.950 . S
H4888 C4912 0.950 . S
H4889 C4913 0.951 . S
H4890 C4915 0.951 . S
H4891 C4917 0.950 . S
H4892 C4918 0.950 . S
H4893 C4920 0.950 . S
H4894 C4923 0.950 . S
H4895 C4924 0.950 . S
H4896 C4926 0.950 . S
H4897 C4927 0.950 . S
C4898 H4880 0.951 . S
C4898 C4899 1.366 . S
C4898 C4900 1.388 . S
C4899 C4898 1.366 . S
C4899 C4903 1.385 . S
C4900 H4881 0.951 . S
C4900 C4898 1.388 . S
C4900 C4901 1.366 . S
C4901 C4900 1.366 . S
C4901 C4902 1.414 . S
C4901 C4904 1.499 . S
C4902 H4882 0.950 . S
C4902 C4901 1.414 . S
C4902 C4903 1.374 . S
C4903 H4883 0.950 . S
C4903 C4899 1.385 . S
C4903 C4902 1.374 . S
C4904 C4901 1.499 . S
C4904 C4905 1.373 . S
C4904 C4906 1.389 . S
C4905 H4884 0.950 . S
C4905 C4904 1.373 . S
C4905 C4921 1.377 . S
C4906 C4904 1.389 . S
C4906 C4907 1.524 . S
C4906 C4920 1.377 . S
C4907 C4906 1.524 . S
C4907 C4908 1.397 . S
C4907 C4912 1.363 . S
C4908 H4885 0.950 . S
C4908 C4907 1.397 . S
C4908 C4909 1.334 . S
C4909 H4886 0.950 . S
C4909 C4908 1.334 . S
C4909 C4910 1.287 . S
C4910 C4909 1.287 . S
C4910 C4911 1.524 . S
C4910 H4929 0.913 . S
C4911 H4887 0.950 . S
C4911 C4910 1.524 . S
C4911 C4912 1.415 . S
C4912 H4888 0.950 . S
C4912 C4907 1.363 . S
C4912 C4911 1.415 . S
C4913 H4889 0.951 . S
C4913 C4914 1.366 . S
C4913 C4915 1.388 . S
C4914 C4913 1.366 . S
C4914 C4918 1.385 . S
C4915 H4890 0.951 . S
C4915 C4913 1.388 . S
C4915 C4916 1.366 . S
C4916 C4915 1.366 . S
C4916 C4917 1.414 . S
C4916 C4919 1.499 . S
C4917 H4891 0.950 . S
C4917 C4916 1.414 . S
C4917 C4918 1.374 . S
C4918 H4892 0.950 . S
C4918 C4914 1.385 . S
C4918 C4917 1.374 . S
C4919 C4916 1.499 . S
C4919 C4920 1.373 . S
C4919 C4921 1.389 . S
C4920 H4893 0.950 . S
C4920 C4906 1.377 . S
C4920 C4919 1.373 . S
C4921 C4905 1.377 . S
C4921 C4919 1.389 . S
C4921 C4922 1.524 . S
C4922 C4921 1.524 . S
C4922 C4923 1.397 . S
C4922 C4927 1.363 . S
C4923 H4894 0.950 . S
C4923 C4922 1.397 . S
C4923 C4924 1.334 . S
C4924 H4895 0.950 . S
C4924 C4923 1.334 . S
C4924 C4925 1.287 . S
C4925 C4924 1.287 . S
C4925 C4926 1.524 . S
C4925 H4928 0.999 . S
C4926 H4896 0.950 . S
C4926 C4925 1.524 . S
C4926 C4927 1.415 . S
C4927 H4897 0.950 . S
C4927 C4922 1.363 . S
C4927 C4926 1.415 . S
H4928 C4925 0.999 . S
H4929 C4910 0.913 . S
H4930 C4948 0.951 . S
H4931 C4950 0.951 . S
H4932 C4952 0.950 . S
H4933 C4953 0.950 . S
H4934 C4955 0.950 . S
H4935 C4958 0.950 . S
H4936 C4959 0.950 . S
H4937 C4961 0.950 . S
H4938 C4962 0.950 . S
H4939 C4963 0.951 . S
H4940 C4965 0.951 . S
H4941 C4967 0.950 . S
H4942 C4968 0.950 . S
H4943 C4970 0.950 . S
H4944 C4973 0.950 . S
H4945 C4974 0.950 . S
H4946 C4976 0.950 . S
H4947 C4977 0.950 . S
C4948 H4930 0.951 . S
C4948 C4949 1.366 . S
C4948 C4950 1.388 . S
C4949 C4948 1.366 . S
C4949 C4953 1.385 . S
C4950 H4931 0.951 . S
C4950 C4948 1.388 . S
C4950 C4951 1.366 . S
C4951 C4950 1.366 . S
C4951 C4952 1.414 . S
C4951 C4954 1.499 . S
C4952 H4932 0.950 . S
C4952 C4951 1.414 . S
C4952 C4953 1.374 . S
C4953 H4933 0.950 . S
C4953 C4949 1.385 . S
C4953 C4952 1.374 . S
C4954 C4951 1.499 . S
C4954 C4955 1.373 . S
C4954 C4956 1.389 . S
C4955 H4934 0.950 . S
C4955 C4954 1.373 . S
C4955 C4971 1.377 . S
C4956 C4954 1.389 . S
C4956 C4957 1.524 . S
C4956 C4970 1.377 . S
C4957 C4956 1.524 . S
C4957 C4958 1.397 . S
C4957 C4962 1.363 . S
C4958 H4935 0.950 . S
C4958 C4957 1.397 . S
C4958 C4959 1.334 . S
C4959 H4936 0.950 . S
C4959 C4958 1.334 . S
C4959 C4960 1.287 . S
C4960 C4959 1.287 . S
C4960 C4961 1.524 . S
C4960 H4979 0.913 . S
C4961 H4937 0.950 . S
C4961 C4960 1.524 . S
C4961 C4962 1.415 . S
C4962 H4938 0.950 . S
C4962 C4957 1.363 . S
C4962 C4961 1.415 . S
C4963 H4939 0.951 . S
C4963 C4964 1.366 . S
C4963 C4965 1.388 . S
C4964 C4963 1.366 . S
C4964 C4968 1.385 . S
C4965 H4940 0.951 . S
C4965 C4963 1.388 . S
C4965 C4966 1.366 . S
C4966 C4965 1.366 . S
C4966 C4967 1.414 . S
C4966 C4969 1.499 . S
C4967 H4941 0.950 . S
C4967 C4966 1.414 . S
C4967 C4968 1.374 . S
C4968 H4942 0.950 . S
C4968 C4964 1.385 . S
C4968 C4967 1.374 . S
C4969 C4966 1.499 . S
C4969 C4970 1.373 . S
C4969 C4971 1.389 . S
C4970 H4943 0.950 . S
C4970 C4956 1.377 . S
C4970 C4969 1.373 . S
C4971 C4955 1.377 . S
C4971 C4969 1.389 . S
C4971 C4972 1.524 . S
C4972 C4971 1.524 . S
C4972 C4973 1.397 . S
C4972 C4977 1.363 . S
C4973 H4944 0.950 . S
C4973 C4972 1.397 . S
C4973 C4974 1.334 . S
C4974 H4945 0.950 . S
C4974 C4973 1.334 . S
C4974 C4975 1.287 . S
C4975 C4974 1.287 . S
C4975 C4976 1.524 . S
C4975 H4978 0.999 . S
C4976 H4946 0.950 . S
C4976 C4975 1.524 . S
C4976 C4977 1.415 . S
C4977 H4947 0.950 . S
C4977 C4972 1.363 . S
C4977 C4976 1.415 . S
H4978 C4975 0.999 . S
H4979 C4960 0.913 . S
H4980 C4998 0.951 . S
H4981 C5000 0.951 . S
H4982 C5002 0.950 . S
H4983 C5003 0.950 . S
H4984 C5005 0.950 . S
H4985 C5008 0.950 . S
H4986 C5009 0.950 . S
H4987 C5011 0.950 . S
H4988 C5012 0.950 . S
H4989 C5013 0.951 . S
H4990 C5015 0.951 . S
H4991 C5017 0.950 . S
H4992 C5018 0.950 . S
H4993 C5020 0.950 . S
H4994 C5023 0.950 . S
H4995 C5024 0.950 . S
H4996 C5026 0.950 . S
H4997 C5027 0.950 . S
C4998 H4980 0.951 . S
C4998 C4999 1.366 . S
C4998 C5000 1.388 . S
C4999 C4998 1.366 . S
C4999 C5003 1.385 . S
C5000 H4981 0.951 . S
C5000 C4998 1.388 . S
C5000 C5001 1.366 . S
C5001 C5000 1.366 . S
C5001 C5002 1.414 . S
C5001 C5004 1.499 . S
C5002 H4982 0.950 . S
C5002 C5001 1.414 . S
C5002 C5003 1.374 . S
C5003 H4983 0.950 . S
C5003 C4999 1.385 . S
C5003 C5002 1.374 . S
C5004 C5001 1.499 . S
C5004 C5005 1.373 . S
C5004 C5006 1.389 . S
C5005 H4984 0.950 . S
C5005 C5004 1.373 . S
C5005 C5021 1.377 . S
C5006 C5004 1.389 . S
C5006 C5007 1.524 . S
C5006 C5020 1.377 . S
C5007 C5006 1.524 . S
C5007 C5008 1.397 . S
C5007 C5012 1.363 . S
C5008 H4985 0.950 . S
C5008 C5007 1.397 . S
C5008 C5009 1.334 . S
C5009 H4986 0.950 . S
C5009 C5008 1.334 . S
C5009 C5010 1.287 . S
C5010 C5009 1.287 . S
C5010 C5011 1.524 . S
C5010 H5029 0.913 . S
C5011 H4987 0.950 . S
C5011 C5010 1.524 . S
C5011 C5012 1.415 . S
C5012 H4988 0.950 . S
C5012 C5007 1.363 . S
C5012 C5011 1.415 . S
C5013 H4989 0.951 . S
C5013 C5014 1.366 . S
C5013 C5015 1.388 . S
C5014 C5013 1.366 . S
C5014 C5018 1.385 . S
C5015 H4990 0.951 . S
C5015 C5013 1.388 . S
C5015 C5016 1.366 . S
C5016 C5015 1.366 . S
C5016 C5017 1.414 . S
C5016 C5019 1.499 . S
C5017 H4991 0.950 . S
C5017 C5016 1.414 . S
C5017 C5018 1.374 . S
C5018 H4992 0.950 . S
C5018 C5014 1.385 . S
C5018 C5017 1.374 . S
C5019 C5016 1.499 . S
C5019 C5020 1.373 . S
C5019 C5021 1.389 . S
C5020 H4993 0.950 . S
C5020 C5006 1.377 . S
C5020 C5019 1.373 . S
C5021 C5005 1.377 . S
C5021 C5019 1.389 . S
C5021 C5022 1.524 . S
C5022 C5021 1.524 . S
C5022 C5023 1.397 . S
C5022 C5027 1.363 . S
C5023 H4994 0.950 . S
C5023 C5022 1.397 . S
C5023 C5024 1.334 . S
C5024 H4995 0.950 . S
C5024 C5023 1.334 . S
C5024 C5025 1.287 . S
C5025 C5024 1.287 . S
C5025 C5026 1.524 . S
C5025 H5028 0.999 . S
C5026 H4996 0.950 . S
C5026 C5025 1.524 . S
C5026 C5027 1.415 . S
C5027 H4997 0.950 . S
C5027 C5022 1.363 . S
C5027 C5026 1.415 . S
H5028 C5025 0.999 . S
H5029 C5010 0.913 . S
H5030 C5048 0.951 . S
H5031 C5050 0.951 . S
H5032 C5052 0.950 . S
H5033 C5053 0.950 . S
H5034 C5055 0.950 . S
H5035 C5058 0.950 . S
H5036 C5059 0.950 . S
H5037 C5061 0.950 . S
H5038 C5062 0.950 . S
H5039 C5063 0.952 . S
H5040 C5065 0.951 . S
H5041 C5067 0.950 . S
H5042 C5068 0.950 . S
H5043 C5070 0.950 1_546 S
H5044 C5073 0.950 . S
H5045 C5074 0.950 . S
H5046 C5076 0.950 . S
H5047 C5077 0.950 . S
C5048 H5030 0.951 . S
C5048 C5049 1.366 . S
C5048 C5050 1.388 . S
C5049 C5048 1.366 . S
C5049 C5053 1.385 . S
C5050 H5031 0.951 . S
C5050 C5048 1.388 . S
C5050 C5051 1.366 . S
C5051 C5050 1.366 . S
C5051 C5052 1.414 . S
C5051 C5054 1.499 . S
C5052 H5032 0.950 . S
C5052 C5051 1.414 . S
C5052 C5053 1.374 . S
C5053 H5033 0.950 . S
C5053 C5049 1.385 . S
C5053 C5052 1.374 . S
C5054 C5051 1.499 . S
C5054 C5055 1.373 . S
C5054 C5056 1.389 . S
C5055 H5034 0.950 . S
C5055 C5054 1.373 . S
C5055 C5071 1.377 . S
C5056 C5054 1.389 . S
C5056 C5057 1.524 1_554 S
C5056 C5070 1.377 . S
C5057 C5056 1.524 1_556 S
C5057 C5058 1.397 . S
C5057 C5062 1.363 1_565 S
C5058 H5035 0.950 . S
C5058 C5057 1.397 . S
C5058 C5059 1.334 . S
C5059 H5036 0.950 . S
C5059 C5058 1.334 . S
C5059 C5060 1.287 . S
C5060 C5059 1.287 . S
C5060 C5061 1.524 1_565 S
C5060 H5079 0.913 . S
C5061 H5037 0.950 . S
C5061 C5060 1.524 1_545 S
C5061 C5062 1.415 . S
C5062 H5038 0.950 . S
C5062 C5057 1.363 1_545 S
C5062 C5061 1.415 . S
C5063 H5039 0.952 . S
C5063 C5064 1.366 . S
C5063 C5065 1.388 1_545 S
C5064 C5063 1.366 . S
C5064 C5068 1.385 . S
C5065 H5040 0.951 . S
C5065 C5063 1.388 1_565 S
C5065 C5066 1.366 1_565 S
C5066 C5065 1.366 1_545 S
C5066 C5067 1.414 . S
C5066 C5069 1.499 1_545 S
C5067 H5041 0.950 . S
C5067 C5066 1.414 . S
C5067 C5068 1.374 . S
C5068 H5042 0.950 . S
C5068 C5064 1.385 . S
C5068 C5067 1.374 . S
C5069 C5066 1.499 1_565 S
C5069 C5070 1.373 . S
C5069 C5071 1.389 . S
C5070 H5043 0.950 1_564 S
C5070 C5056 1.377 . S
C5070 C5069 1.373 . S
C5071 C5055 1.377 . S
C5071 C5069 1.389 . S
C5071 C5072 1.524 . S
C5072 C5071 1.524 . S
C5072 C5073 1.397 1_565 S
C5072 C5077 1.363 . S
C5073 H5044 0.950 . S
C5073 C5072 1.397 1_545 S
C5073 C5074 1.334 . S
C5074 H5045 0.950 . S
C5074 C5073 1.334 . S
C5074 C5075 1.287 1_545 S
C5075 C5074 1.287 1_565 S
C5075 C5076 1.524 . S
C5075 H5078 0.999 . S
C5076 H5046 0.950 . S
C5076 C5075 1.524 . S
C5076 C5077 1.415 . S
C5077 H5047 0.950 . S
C5077 C5072 1.363 . S
C5077 C5076 1.415 . S
H5078 C5075 0.999 . S
H5079 C5060 0.913 . S
H5080 C5098 0.951 . S
H5081 C5100 0.951 . S
H5082 C5102 0.950 . S
H5083 C5103 0.950 . S
H5084 C5105 0.950 . S
H5085 C5108 0.950 . S
H5086 C5109 0.950 . S
H5087 C5111 0.950 . S
H5088 C5112 0.950 . S
H5089 C5113 0.951 . S
H5090 C5115 0.951 . S
H5091 C5117 0.950 . S
H5092 C5118 0.950 . S
H5093 C5120 0.950 . S
H5094 C5123 0.950 . S
H5095 C5124 0.950 . S
H5096 C5126 0.950 . S
H5097 C5127 0.950 . S
C5098 H5080 0.951 . S
C5098 C5099 1.366 . S
C5098 C5100 1.388 . S
C5099 C5098 1.366 . S
C5099 C5103 1.385 . S
C5100 H5081 0.951 . S
C5100 C5098 1.388 . S
C5100 C5101 1.366 . S
C5101 C5100 1.366 . S
C5101 C5102 1.414 . S
C5101 C5104 1.499 . S
C5102 H5082 0.950 . S
C5102 C5101 1.414 . S
C5102 C5103 1.374 . S
C5103 H5083 0.950 . S
C5103 C5099 1.385 . S
C5103 C5102 1.374 . S
C5104 C5101 1.499 . S
C5104 C5105 1.373 . S
C5104 C5106 1.389 . S
C5105 H5084 0.950 . S
C5105 C5104 1.373 . S
C5105 C5121 1.377 . S
C5106 C5104 1.389 . S
C5106 C5107 1.524 . S
C5106 C5120 1.377 . S
C5107 C5106 1.524 . S
C5107 C5108 1.397 . S
C5107 C5112 1.363 . S
C5108 H5085 0.950 . S
C5108 C5107 1.397 . S
C5108 C5109 1.334 . S
C5109 H5086 0.950 . S
C5109 C5108 1.334 . S
C5109 C5110 1.287 . S
C5110 C5109 1.287 . S
C5110 C5111 1.524 . S
C5110 H5129 0.913 . S
C5111 H5087 0.950 . S
C5111 C5110 1.524 . S
C5111 C5112 1.415 . S
C5112 H5088 0.950 . S
C5112 C5107 1.363 . S
C5112 C5111 1.415 . S
C5113 H5089 0.951 . S
C5113 C5114 1.366 . S
C5113 C5115 1.388 . S
C5114 C5113 1.366 . S
C5114 C5118 1.385 . S
C5115 H5090 0.951 . S
C5115 C5113 1.388 . S
C5115 C5116 1.366 . S
C5116 C5115 1.366 . S
C5116 C5117 1.414 . S
C5116 C5119 1.499 . S
C5117 H5091 0.950 . S
C5117 C5116 1.414 . S
C5117 C5118 1.374 . S
C5118 H5092 0.950 . S
C5118 C5114 1.385 . S
C5118 C5117 1.374 . S
C5119 C5116 1.499 . S
C5119 C5120 1.373 . S
C5119 C5121 1.389 . S
C5120 H5093 0.950 . S
C5120 C5106 1.377 . S
C5120 C5119 1.373 . S
C5121 C5105 1.377 . S
C5121 C5119 1.389 . S
C5121 C5122 1.524 . S
C5122 C5121 1.524 . S
C5122 C5123 1.397 . S
C5122 C5127 1.363 . S
C5123 H5094 0.950 . S
C5123 C5122 1.397 . S
C5123 C5124 1.334 . S
C5124 H5095 0.950 . S
C5124 C5123 1.334 . S
C5124 C5125 1.287 . S
C5125 C5124 1.287 . S
C5125 C5126 1.524 . S
C5125 H5128 0.999 . S
C5126 H5096 0.950 . S
C5126 C5125 1.524 . S
C5126 C5127 1.415 . S
C5127 H5097 0.950 . S
C5127 C5122 1.363 . S
C5127 C5126 1.415 . S
H5128 C5125 0.999 . S
H5129 C5110 0.913 . S
H5130 C5148 0.951 . S
H5131 C5150 0.952 1_556 S
H5132 C5152 0.950 . S
H5133 C5153 0.950 . S
H5134 C5155 0.945 1_556 S
H5135 C5158 0.950 . S
H5136 C5159 0.950 . S
H5137 C5161 0.950 . S
H5138 C5162 0.950 . S
H5139 C5163 0.951 . S
H5140 C5165 0.951 . S
H5141 C5167 0.950 . S
H5142 C5168 0.950 . S
H5143 C5170 0.950 . S
H5144 C5173 0.950 . S
H5145 C5174 0.950 . S
H5146 C5176 0.950 . S
H5147 C5177 0.980 . S
C5148 H5130 0.951 . S
C5148 C5149 1.366 1_556 S
C5148 C5150 1.388 1_556 S
C5149 C5148 1.366 1_554 S
C5149 C5153 1.385 . S
C5150 H5131 0.952 1_554 S
C5150 C5148 1.388 1_554 S
C5150 C5151 1.366 . S
C5151 C5150 1.366 . S
C5151 C5152 1.414 . S
C5151 C5154 1.499 . S
C5152 H5132 0.950 . S
C5152 C5151 1.414 . S
C5152 C5153 1.374 . S
C5153 H5133 0.950 . S
C5153 C5149 1.385 . S
C5153 C5152 1.374 . S
C5154 C5151 1.499 . S
C5154 C5155 1.373 . S
C5154 C5156 1.389 . S
C5155 H5134 0.945 1_554 S
C5155 C5154 1.373 . S
C5155 C5171 1.377 . S
C5156 C5154 1.389 . S
C5156 C5157 1.524 . S
C5156 C5170 1.377 . S
C5157 C5156 1.524 . S
C5157 C5158 1.397 . S
C5157 C5162 1.363 . S
C5158 H5135 0.950 . S
C5158 C5157 1.397 . S
C5158 C5159 1.334 . S
C5159 H5136 0.950 . S
C5159 C5158 1.334 . S
C5159 C5160 1.287 . S
C5160 C5159 1.287 . S
C5160 C5161 1.524 . S
C5160 H5179 0.913 . S
C5161 H5137 0.950 . S
C5161 C5160 1.524 . S
C5161 C5162 1.415 . S
C5162 H5138 0.950 . S
C5162 C5157 1.363 . S
C5162 C5161 1.415 . S
C5163 H5139 0.951 . S
C5163 C5164 1.366 . S
C5163 C5165 1.388 . S
C5164 C5163 1.366 . S
C5164 C5168 1.385 . S
C5165 H5140 0.951 . S
C5165 C5163 1.388 . S
C5165 C5166 1.366 . S
C5166 C5165 1.366 . S
C5166 C5167 1.414 . S
C5166 C5169 1.499 . S
C5167 H5141 0.950 . S
C5167 C5166 1.414 . S
C5167 C5168 1.374 . S
C5168 H5142 0.950 . S
C5168 C5164 1.385 . S
C5168 C5167 1.374 . S
C5169 C5166 1.499 . S
C5169 C5170 1.373 . S
C5169 C5171 1.389 . S
C5170 H5143 0.950 . S
C5170 C5156 1.377 . S
C5170 C5169 1.373 . S
C5171 C5155 1.377 . S
C5171 C5169 1.389 . S
C5171 C5172 1.524 1_554 S
C5172 C5171 1.524 1_556 S
C5172 C5173 1.397 . S
C5172 C5177 1.368 1_556 S
C5173 H5144 0.950 . S
C5173 C5172 1.397 . S
C5173 C5174 1.334 . S
C5174 H5145 0.950 . S
C5174 C5173 1.334 . S
C5174 C5175 1.287 . S
C5175 C5174 1.287 . S
C5175 C5176 1.524 . S
C5175 H5178 0.999 . S
C5176 H5146 0.950 . S
C5176 C5175 1.524 . S
C5176 C5177 1.384 1_556 S
C5177 H5147 0.980 . S
C5177 C5172 1.368 1_554 S
C5177 C5176 1.384 1_554 S
H5178 C5175 0.999 . S
H5179 C5160 0.913 . S
H5180 C5198 0.951 . S
H5181 C5200 0.951 . S
H5182 C5202 0.950 . S
H5183 C5203 0.950 . S
H5184 C5205 0.950 . S
H5185 C5208 0.950 . S
H5186 C5209 0.950 . S
H5187 C5211 0.950 . S
H5188 C5212 0.950 . S
H5189 C5213 0.951 . S
H5190 C5215 0.951 . S
H5191 C5217 0.950 . S
H5192 C5218 0.950 . S
H5193 C5220 0.950 . S
H5194 C5223 0.950 . S
H5195 C5224 0.950 . S
H5196 C5226 0.950 . S
H5197 C5227 0.950 . S
C5198 H5180 0.951 . S
C5198 C5199 1.366 . S
C5198 C5200 1.388 . S
C5199 C5198 1.366 . S
C5199 C5203 1.385 . S
C5200 H5181 0.951 . S
C5200 C5198 1.388 . S
C5200 C5201 1.366 . S
C5201 C5200 1.366 . S
C5201 C5202 1.414 . S
C5201 C5204 1.499 . S
C5202 H5182 0.950 . S
C5202 C5201 1.414 . S
C5202 C5203 1.374 . S
C5203 H5183 0.950 . S
C5203 C5199 1.385 . S
C5203 C5202 1.374 . S
C5204 C5201 1.499 . S
C5204 C5205 1.373 . S
C5204 C5206 1.389 . S
C5205 H5184 0.950 . S
C5205 C5204 1.373 . S
C5205 C5221 1.377 . S
C5206 C5204 1.389 . S
C5206 C5207 1.524 . S
C5206 C5220 1.377 . S
C5207 C5206 1.524 . S
C5207 C5208 1.397 . S
C5207 C5212 1.363 . S
C5208 H5185 0.950 . S
C5208 C5207 1.397 . S
C5208 C5209 1.334 . S
C5209 H5186 0.950 . S
C5209 C5208 1.334 . S
C5209 C5210 1.287 . S
C5210 C5209 1.287 . S
C5210 C5211 1.524 . S
C5210 H5229 0.913 . S
C5211 H5187 0.950 . S
C5211 C5210 1.524 . S
C5211 C5212 1.415 . S
C5212 H5188 0.950 . S
C5212 C5207 1.363 . S
C5212 C5211 1.415 . S
C5213 H5189 0.951 . S
C5213 C5214 1.366 . S
C5213 C5215 1.388 . S
C5214 C5213 1.366 . S
C5214 C5218 1.385 . S
C5215 H5190 0.951 . S
C5215 C5213 1.388 . S
C5215 C5216 1.366 . S
C5216 C5215 1.366 . S
C5216 C5217 1.414 . S
C5216 C5219 1.499 . S
C5217 H5191 0.950 . S
C5217 C5216 1.414 . S
C5217 C5218 1.374 . S
C5218 H5192 0.950 . S
C5218 C5214 1.385 . S
C5218 C5217 1.374 . S
C5219 C5216 1.499 . S
C5219 C5220 1.373 . S
C5219 C5221 1.389 . S
C5220 H5193 0.950 . S
C5220 C5206 1.377 . S
C5220 C5219 1.373 . S
C5221 C5205 1.377 . S
C5221 C5219 1.389 . S
C5221 C5222 1.524 . S
C5222 C5221 1.524 . S
C5222 C5223 1.397 . S
C5222 C5227 1.363 . S
C5223 H5194 0.950 . S
C5223 C5222 1.397 . S
C5223 C5224 1.334 . S
C5224 H5195 0.950 . S
C5224 C5223 1.334 . S
C5224 C5225 1.287 . S
C5225 C5224 1.287 . S
C5225 C5226 1.524 . S
C5225 H5228 0.999 . S
C5226 H5196 0.950 . S
C5226 C5225 1.524 . S
C5226 C5227 1.415 . S
C5227 H5197 0.950 . S
C5227 C5222 1.363 . S
C5227 C5226 1.415 . S
H5228 C5225 0.999 . S
H5229 C5210 0.913 . S
H5230 C5248 0.951 . S
H5231 C5250 0.951 . S
H5232 C5252 0.950 . S
H5233 C5253 0.950 . S
H5234 C5255 0.950 . S
H5235 C5258 0.950 . S
H5236 C5259 0.950 . S
H5237 C5261 0.950 . S
H5238 C5262 0.950 . S
H5239 C5263 0.951 . S
H5240 C5265 0.951 . S
H5241 C5267 0.950 . S
H5242 C5268 0.950 . S
H5243 C5270 0.950 . S
H5244 C5273 0.950 . S
H5245 C5274 0.950 . S
H5246 C5276 0.950 . S
H5247 C5277 0.950 . S
C5248 H5230 0.951 . S
C5248 C5249 1.366 . S
C5248 C5250 1.388 . S
C5249 C5248 1.366 . S
C5249 C5253 1.385 . S
C5250 H5231 0.951 . S
C5250 C5248 1.388 . S
C5250 C5251 1.366 . S
C5251 C5250 1.366 . S
C5251 C5252 1.414 . S
C5251 C5254 1.499 . S
C5252 H5232 0.950 . S
C5252 C5251 1.414 . S
C5252 C5253 1.374 . S
C5253 H5233 0.950 . S
C5253 C5249 1.385 . S
C5253 C5252 1.374 . S
C5254 C5251 1.499 . S
C5254 C5255 1.373 . S
C5254 C5256 1.389 . S
C5255 H5234 0.950 . S
C5255 C5254 1.373 . S
C5255 C5271 1.377 . S
C5256 C5254 1.389 . S
C5256 C5257 1.524 . S
C5256 C5270 1.377 . S
C5257 C5256 1.524 . S
C5257 C5258 1.397 . S
C5257 C5262 1.363 . S
C5258 H5235 0.950 . S
C5258 C5257 1.397 . S
C5258 C5259 1.334 . S
C5259 H5236 0.950 . S
C5259 C5258 1.334 . S
C5259 C5260 1.287 . S
C5260 C5259 1.287 . S
C5260 C5261 1.524 . S
C5260 H5279 0.913 . S
C5261 H5237 0.950 . S
C5261 C5260 1.524 . S
C5261 C5262 1.415 . S
C5262 H5238 0.950 . S
C5262 C5257 1.363 . S
C5262 C5261 1.415 . S
C5263 H5239 0.951 . S
C5263 C5264 1.366 . S
C5263 C5265 1.388 . S
C5264 C5263 1.366 . S
C5264 C5268 1.385 . S
C5265 H5240 0.951 . S
C5265 C5263 1.388 . S
C5265 C5266 1.366 . S
C5266 C5265 1.366 . S
C5266 C5267 1.414 . S
C5266 C5269 1.499 . S
C5267 H5241 0.950 . S
C5267 C5266 1.414 . S
C5267 C5268 1.374 . S
C5268 H5242 0.950 . S
C5268 C5264 1.385 . S
C5268 C5267 1.374 . S
C5269 C5266 1.499 . S
C5269 C5270 1.373 . S
C5269 C5271 1.389 . S
C5270 H5243 0.950 . S
C5270 C5256 1.377 . S
C5270 C5269 1.373 . S
C5271 C5255 1.377 . S
C5271 C5269 1.389 . S
C5271 C5272 1.524 . S
C5272 C5271 1.524 . S
C5272 C5273 1.397 . S
C5272 C5277 1.363 . S
C5273 H5244 0.950 . S
C5273 C5272 1.397 . S
C5273 C5274 1.334 . S
C5274 H5245 0.950 . S
C5274 C5273 1.334 . S
C5274 C5275 1.287 . S
C5275 C5274 1.287 . S
C5275 C5276 1.524 . S
C5275 H5278 0.999 . S
C5276 H5246 0.950 . S
C5276 C5275 1.524 . S
C5276 C5277 1.415 . S
C5277 H5247 0.950 . S
C5277 C5272 1.363 . S
C5277 C5276 1.415 . S
H5278 C5275 0.999 . S
H5279 C5260 0.913 . S
H5280 C5298 0.951 . S
H5281 C5300 0.951 . S
H5282 C5302 0.950 . S
H5283 C5303 0.950 . S
H5284 C5305 0.950 . S
H5285 C5308 0.950 . S
H5286 C5309 0.950 . S
H5287 C5311 0.950 . S
H5288 C5312 0.950 . S
H5289 C5313 0.951 . S
H5290 C5315 0.951 . S
H5291 C5317 0.950 . S
H5292 C5318 0.950 . S
H5293 C5320 0.950 . S
H5294 C5323 0.950 . S
H5295 C5324 0.950 . S
H5296 C5326 0.950 . S
H5297 C5327 0.950 . S
C5298 H5280 0.951 . S
C5298 C5299 1.366 . S
C5298 C5300 1.388 . S
C5299 C5298 1.366 . S
C5299 C5303 1.385 . S
C5300 H5281 0.951 . S
C5300 C5298 1.388 . S
C5300 C5301 1.366 . S
C5301 C5300 1.366 . S
C5301 C5302 1.414 . S
C5301 C5304 1.499 . S
C5302 H5282 0.950 . S
C5302 C5301 1.414 . S
C5302 C5303 1.374 . S
C5303 H5283 0.950 . S
C5303 C5299 1.385 . S
C5303 C5302 1.374 . S
C5304 C5301 1.499 . S
C5304 C5305 1.373 . S
C5304 C5306 1.389 . S
C5305 H5284 0.950 . S
C5305 C5304 1.373 . S
C5305 C5321 1.377 . S
C5306 C5304 1.389 . S
C5306 C5307 1.524 . S
C5306 C5320 1.377 . S
C5307 C5306 1.524 . S
C5307 C5308 1.397 . S
C5307 C5312 1.363 . S
C5308 H5285 0.950 . S
C5308 C5307 1.397 . S
C5308 C5309 1.334 . S
C5309 H5286 0.950 . S
C5309 C5308 1.334 . S
C5309 C5310 1.287 . S
C5310 C5309 1.287 . S
C5310 C5311 1.524 . S
C5310 H5329 0.913 . S
C5311 H5287 0.950 . S
C5311 C5310 1.524 . S
C5311 C5312 1.415 . S
C5312 H5288 0.950 . S
C5312 C5307 1.363 . S
C5312 C5311 1.415 . S
C5313 H5289 0.951 . S
C5313 C5314 1.366 . S
C5313 C5315 1.388 . S
C5314 C5313 1.366 . S
C5314 C5318 1.385 . S
C5315 H5290 0.951 . S
C5315 C5313 1.388 . S
C5315 C5316 1.366 . S
C5316 C5315 1.366 . S
C5316 C5317 1.414 . S
C5316 C5319 1.499 . S
C5317 H5291 0.950 . S
C5317 C5316 1.414 . S
C5317 C5318 1.374 . S
C5318 H5292 0.950 . S
C5318 C5314 1.385 . S
C5318 C5317 1.374 . S
C5319 C5316 1.499 . S
C5319 C5320 1.373 . S
C5319 C5321 1.389 . S
C5320 H5293 0.950 . S
C5320 C5306 1.377 . S
C5320 C5319 1.373 . S
C5321 C5305 1.377 . S
C5321 C5319 1.389 . S
C5321 C5322 1.524 . S
C5322 C5321 1.524 . S
C5322 C5323 1.397 . S
C5322 C5327 1.363 . S
C5323 H5294 0.950 . S
C5323 C5322 1.397 . S
C5323 C5324 1.334 . S
C5324 H5295 0.950 . S
C5324 C5323 1.334 . S
C5324 C5325 1.287 . S
C5325 C5324 1.287 . S
C5325 C5326 1.524 . S
C5325 H5328 0.999 . S
C5326 H5296 0.950 . S
C5326 C5325 1.524 . S
C5326 C5327 1.415 . S
C5327 H5297 0.950 . S
C5327 C5322 1.363 . S
C5327 C5326 1.415 . S
H5328 C5325 0.999 . S
H5329 C5310 0.913 . S
H5330 C5348 0.951 . S
H5331 C5350 0.951 . S
H5332 C5352 0.950 . S
H5333 C5353 0.950 . S
H5334 C5355 0.950 . S
H5335 C5358 0.950 . S
H5336 C5359 0.950 . S
H5337 C5361 0.950 . S
H5338 C5362 0.950 . S
H5339 C5363 0.951 . S
H5340 C5365 0.951 . S
H5341 C5367 0.950 . S
H5342 C5368 0.950 . S
H5343 C5370 0.950 . S
H5344 C5373 0.950 . S
H5345 C5374 0.950 . S
H5346 C5376 0.950 . S
H5347 C5377 0.950 . S
C5348 H5330 0.951 . S
C5348 C5349 1.366 . S
C5348 C5350 1.388 . S
C5349 C5348 1.366 . S
C5349 C5353 1.385 . S
C5350 H5331 0.951 . S
C5350 C5348 1.388 . S
C5350 C5351 1.366 . S
C5351 C5350 1.366 . S
C5351 C5352 1.414 . S
C5351 C5354 1.499 . S
C5352 H5332 0.950 . S
C5352 C5351 1.414 . S
C5352 C5353 1.374 . S
C5353 H5333 0.950 . S
C5353 C5349 1.385 . S
C5353 C5352 1.374 . S
C5354 C5351 1.499 . S
C5354 C5355 1.373 . S
C5354 C5356 1.389 . S
C5355 H5334 0.950 . S
C5355 C5354 1.373 . S
C5355 C5371 1.377 . S
C5356 C5354 1.389 . S
C5356 C5357 1.524 . S
C5356 C5370 1.377 . S
C5357 C5356 1.524 . S
C5357 C5358 1.397 . S
C5357 C5362 1.363 . S
C5358 H5335 0.950 . S
C5358 C5357 1.397 . S
C5358 C5359 1.334 . S
C5359 H5336 0.950 . S
C5359 C5358 1.334 . S
C5359 C5360 1.287 . S
C5360 C5359 1.287 . S
C5360 C5361 1.524 . S
C5360 H5379 0.913 . S
C5361 H5337 0.950 . S
C5361 C5360 1.524 . S
C5361 C5362 1.415 . S
C5362 H5338 0.950 . S
C5362 C5357 1.363 . S
C5362 C5361 1.415 . S
C5363 H5339 0.951 . S
C5363 C5364 1.366 . S
C5363 C5365 1.388 . S
C5364 C5363 1.366 . S
C5364 C5368 1.385 . S
C5365 H5340 0.951 . S
C5365 C5363 1.388 . S
C5365 C5366 1.366 . S
C5366 C5365 1.366 . S
C5366 C5367 1.414 . S
C5366 C5369 1.499 . S
C5367 H5341 0.950 . S
C5367 C5366 1.414 . S
C5367 C5368 1.374 . S
C5368 H5342 0.950 . S
C5368 C5364 1.385 . S
C5368 C5367 1.374 . S
C5369 C5366 1.499 . S
C5369 C5370 1.373 . S
C5369 C5371 1.389 . S
C5370 H5343 0.950 . S
C5370 C5356 1.377 . S
C5370 C5369 1.373 . S
C5371 C5355 1.377 . S
C5371 C5369 1.389 . S
C5371 C5372 1.524 . S
C5372 C5371 1.524 . S
C5372 C5373 1.397 . S
C5372 C5377 1.363 . S
C5373 H5344 0.950 . S
C5373 C5372 1.397 . S
C5373 C5374 1.334 . S
C5374 H5345 0.950 . S
C5374 C5373 1.334 . S
C5374 C5375 1.287 . S
C5375 C5374 1.287 . S
C5375 C5376 1.524 . S
C5375 H5378 0.999 . S
C5376 H5346 0.950 . S
C5376 C5375 1.524 . S
C5376 C5377 1.415 . S
C5377 H5347 0.950 . S
C5377 C5372 1.363 . S
C5377 C5376 1.415 . S
H5378 C5375 0.999 . S
H5379 C5360 0.913 . S
H5380 C5398 0.951 . S
H5381 C5400 0.951 . S
H5382 C5402 0.950 . S
H5383 C5403 0.950 . S
H5384 C5405 0.950 . S
H5385 C5408 0.950 . S
H5386 C5409 0.950 . S
H5387 C5411 0.950 . S
H5388 C5412 0.950 . S
H5389 C5413 0.951 . S
H5390 C5415 0.951 . S
H5391 C5417 0.950 . S
H5392 C5418 0.950 . S
H5393 C5420 0.950 . S
H5394 C5423 0.950 . S
H5395 C5424 0.950 . S
H5396 C5426 0.950 . S
H5397 C5427 0.950 . S
C5398 H5380 0.951 . S
C5398 C5399 1.366 . S
C5398 C5400 1.388 . S
C5399 C5398 1.366 . S
C5399 C5403 1.385 . S
C5400 H5381 0.951 . S
C5400 C5398 1.388 . S
C5400 C5401 1.366 . S
C5401 C5400 1.366 . S
C5401 C5402 1.414 . S
C5401 C5404 1.499 . S
C5402 H5382 0.950 . S
C5402 C5401 1.414 . S
C5402 C5403 1.374 . S
C5403 H5383 0.950 . S
C5403 C5399 1.385 . S
C5403 C5402 1.374 . S
C5404 C5401 1.499 . S
C5404 C5405 1.373 . S
C5404 C5406 1.389 . S
C5405 H5384 0.950 . S
C5405 C5404 1.373 . S
C5405 C5421 1.377 . S
C5406 C5404 1.389 . S
C5406 C5407 1.524 . S
C5406 C5420 1.377 . S
C5407 C5406 1.524 . S
C5407 C5408 1.397 . S
C5407 C5412 1.363 . S
C5408 H5385 0.950 . S
C5408 C5407 1.397 . S
C5408 C5409 1.334 . S
C5409 H5386 0.950 . S
C5409 C5408 1.334 . S
C5409 C5410 1.287 . S
C5410 C5409 1.287 . S
C5410 C5411 1.524 1_455 S
C5410 H5429 0.913 1_455 S
C5411 H5387 0.950 . S
C5411 C5410 1.524 1_655 S
C5411 C5412 1.415 1_655 S
C5412 H5388 0.950 . S
C5412 C5407 1.363 . S
C5412 C5411 1.415 1_455 S
C5413 H5389 0.951 . S
C5413 C5414 1.366 . S
C5413 C5415 1.388 . S
C5414 C5413 1.366 . S
C5414 C5418 1.385 . S
C5415 H5390 0.951 . S
C5415 C5413 1.388 . S
C5415 C5416 1.366 . S
C5416 C5415 1.366 . S
C5416 C5417 1.414 . S
C5416 C5419 1.499 . S
C5417 H5391 0.950 . S
C5417 C5416 1.414 . S
C5417 C5418 1.374 . S
C5418 H5392 0.950 . S
C5418 C5414 1.385 . S
C5418 C5417 1.374 . S
C5419 C5416 1.499 . S
C5419 C5420 1.373 . S
C5419 C5421 1.389 . S
C5420 H5393 0.950 . S
C5420 C5406 1.377 . S
C5420 C5419 1.373 . S
C5421 C5405 1.377 . S
C5421 C5419 1.389 . S
C5421 C5422 1.524 . S
C5422 C5421 1.524 . S
C5422 C5423 1.397 . S
C5422 C5427 1.363 . S
C5423 H5394 0.950 . S
C5423 C5422 1.397 . S
C5423 C5424 1.334 . S
C5424 H5395 0.950 . S
C5424 C5423 1.334 . S
C5424 C5425 1.287 . S
C5425 C5424 1.287 . S
C5425 C5426 1.524 . S
C5425 H5428 0.999 . S
C5426 H5396 0.950 . S
C5426 C5425 1.524 . S
C5426 C5427 1.415 . S
C5427 H5397 0.950 . S
C5427 C5422 1.363 . S
C5427 C5426 1.415 . S
H5428 C5425 0.999 . S
H5429 C5410 0.913 1_655 S
H5430 C5448 0.951 . S
H5431 C5450 0.951 . S
H5432 C5452 0.950 . S
H5433 C5453 0.950 . S
H5434 C5455 0.950 . S
H5435 C5458 0.950 . S
H5436 C5459 0.950 . S
H5437 C5461 0.950 . S
H5438 C5462 0.950 . S
H5439 C5463 0.951 . S
H5440 C5465 0.951 . S
H5441 C5467 0.950 . S
H5442 C5468 0.950 . S
H5443 C5470 0.950 . S
H5444 C5473 0.950 . S
H5445 C5474 0.950 . S
H5446 C5476 0.950 . S
H5447 C5477 0.950 . S
C5448 H5430 0.951 . S
C5448 C5449 1.366 . S
C5448 C5450 1.388 . S
C5449 C5448 1.366 . S
C5449 C5453 1.385 . S
C5450 H5431 0.951 . S
C5450 C5448 1.388 . S
C5450 C5451 1.366 . S
C5451 C5450 1.366 . S
C5451 C5452 1.414 . S
C5451 C5454 1.499 . S
C5452 H5432 0.950 . S
C5452 C5451 1.414 . S
C5452 C5453 1.374 . S
C5453 H5433 0.950 . S
C5453 C5449 1.385 . S
C5453 C5452 1.374 . S
C5454 C5451 1.499 . S
C5454 C5455 1.373 . S
C5454 C5456 1.389 . S
C5455 H5434 0.950 . S
C5455 C5454 1.373 . S
C5455 C5471 1.377 . S
C5456 C5454 1.389 . S
C5456 C5457 1.524 . S
C5456 C5470 1.377 . S
C5457 C5456 1.524 . S
C5457 C5458 1.397 . S
C5457 C5462 1.363 . S
C5458 H5435 0.950 . S
C5458 C5457 1.397 . S
C5458 C5459 1.334 . S
C5459 H5436 0.950 . S
C5459 C5458 1.334 . S
C5459 C5460 1.287 . S
C5460 C5459 1.287 . S
C5460 C5461 1.524 . S
C5460 H5479 0.913 . S
C5461 H5437 0.950 . S
C5461 C5460 1.524 . S
C5461 C5462 1.415 . S
C5462 H5438 0.950 . S
C5462 C5457 1.363 . S
C5462 C5461 1.415 . S
C5463 H5439 0.951 . S
C5463 C5464 1.366 . S
C5463 C5465 1.388 . S
C5464 C5463 1.366 . S
C5464 C5468 1.385 . S
C5465 H5440 0.951 . S
C5465 C5463 1.388 . S
C5465 C5466 1.366 . S
C5466 C5465 1.366 . S
C5466 C5467 1.414 . S
C5466 C5469 1.499 . S
C5467 H5441 0.950 . S
C5467 C5466 1.414 . S
C5467 C5468 1.374 . S
C5468 H5442 0.950 . S
C5468 C5464 1.385 . S
C5468 C5467 1.374 . S
C5469 C5466 1.499 . S
C5469 C5470 1.373 . S
C5469 C5471 1.389 . S
C5470 H5443 0.950 . S
C5470 C5456 1.377 . S
C5470 C5469 1.373 . S
C5471 C5455 1.377 . S
C5471 C5469 1.389 . S
C5471 C5472 1.524 . S
C5472 C5471 1.524 . S
C5472 C5473 1.397 . S
C5472 C5477 1.363 . S
C5473 H5444 0.950 . S
C5473 C5472 1.397 . S
C5473 C5474 1.334 . S
C5474 H5445 0.950 . S
C5474 C5473 1.334 . S
C5474 C5475 1.287 . S
C5475 C5474 1.287 . S
C5475 C5476 1.524 . S
C5475 H5478 0.999 . S
C5476 H5446 0.950 . S
C5476 C5475 1.524 . S
C5476 C5477 1.415 . S
C5477 H5447 0.950 . S
C5477 C5472 1.363 . S
C5477 C5476 1.415 . S
H5478 C5475 0.999 . S
H5479 C5460 0.913 . S
H5480 C5498 0.951 . S
H5481 C5500 0.951 . S
H5482 C5502 0.950 . S
H5483 C5503 0.950 . S
H5484 C5505 0.950 . S
H5485 C5508 0.950 . S
H5486 C5509 0.950 . S
H5487 C5511 0.950 . S
H5488 C5512 0.950 . S
H5489 C5513 0.951 1_554 S
H5490 C5515 0.951 . S
H5491 C5517 0.950 . S
H5492 C5518 0.950 . S
H5493 C5520 0.950 . S
H5494 C5523 0.950 . S
H5495 C5524 0.950 . S
H5496 C5526 0.950 . S
H5497 C5527 0.950 . S
C5498 H5480 0.951 . S
C5498 C5499 1.366 . S
C5498 C5500 1.388 . S
C5499 C5498 1.366 . S
C5499 C5503 1.385 . S
C5500 H5481 0.951 . S
C5500 C5498 1.388 . S
C5500 C5501 1.366 . S
C5501 C5500 1.366 . S
C5501 C5502 1.414 . S
C5501 C5504 1.499 . S
C5502 H5482 0.950 . S
C5502 C5501 1.414 . S
C5502 C5503 1.374 . S
C5503 H5483 0.950 . S
C5503 C5499 1.385 . S
C5503 C5502 1.374 . S
C5504 C5501 1.499 . S
C5504 C5505 1.373 . S
C5504 C5506 1.389 . S
C5505 H5484 0.950 . S
C5505 C5504 1.373 . S
C5505 C5521 1.377 . S
C5506 C5504 1.389 . S
C5506 C5507 1.524 . S
C5506 C5520 1.377 . S
C5507 C5506 1.524 . S
C5507 C5508 1.397 . S
C5507 C5512 1.363 . S
C5508 H5485 0.950 . S
C5508 C5507 1.397 . S
C5508 C5509 1.334 . S
C5509 H5486 0.950 . S
C5509 C5508 1.334 . S
C5509 C5510 1.287 . S
C5510 C5509 1.287 . S
C5510 C5511 1.524 . S
C5510 H5529 0.913 . S
C5511 H5487 0.950 . S
C5511 C5510 1.524 . S
C5511 C5512 1.415 . S
C5512 H5488 0.950 . S
C5512 C5507 1.363 . S
C5512 C5511 1.415 . S
C5513 H5489 0.951 1_556 S
C5513 C5514 1.366 . S
C5513 C5515 1.388 . S
C5514 C5513 1.366 . S
C5514 C5518 1.385 . S
C5515 H5490 0.951 . S
C5515 C5513 1.388 . S
C5515 C5516 1.366 . S
C5516 C5515 1.366 . S
C5516 C5517 1.414 . S
C5516 C5519 1.499 . S
C5517 H5491 0.950 . S
C5517 C5516 1.414 . S
C5517 C5518 1.374 . S
C5518 H5492 0.950 . S
C5518 C5514 1.385 . S
C5518 C5517 1.374 . S
C5519 C5516 1.499 . S
C5519 C5520 1.373 . S
C5519 C5521 1.389 . S
C5520 H5493 0.950 . S
C5520 C5506 1.377 . S
C5520 C5519 1.373 . S
C5521 C5505 1.377 . S
C5521 C5519 1.389 . S
C5521 C5522 1.524 . S
C5522 C5521 1.524 . S
C5522 C5523 1.397 . S
C5522 C5527 1.363 . S
C5523 H5494 0.950 . S
C5523 C5522 1.397 . S
C5523 C5524 1.334 1_556 S
C5524 H5495 0.950 . S
C5524 C5523 1.334 1_554 S
C5524 C5525 1.287 . S
C5525 C5524 1.287 . S
C5525 C5526 1.524 . S
C5525 H5528 0.999 . S
C5526 H5496 0.950 . S
C5526 C5525 1.524 . S
C5526 C5527 1.415 1_554 S
C5527 H5497 0.950 . S
C5527 C5522 1.363 . S
C5527 C5526 1.415 1_556 S
H5528 C5525 0.999 . S
H5529 C5510 0.913 . S
H5530 C5548 0.951 . S
H5531 C5550 0.951 . S
H5532 C5552 0.950 . S
H5533 C5553 0.950 . S
H5534 C5555 0.950 . S
H5535 C5558 0.950 . S
H5536 C5559 0.950 . S
H5537 C5561 0.950 . S
H5538 C5562 0.950 . S
H5539 C5563 0.951 . S
H5540 C5565 0.951 . S
H5541 C5567 0.950 . S
H5542 C5568 0.950 . S
H5543 C5570 0.950 . S
H5544 C5573 0.950 . S
H5545 C5574 0.950 . S
H5546 C5576 0.950 . S
H5547 C5577 0.950 . S
C5548 H5530 0.951 . S
C5548 C5549 1.366 . S
C5548 C5550 1.388 . S
C5549 C5548 1.366 . S
C5549 C5553 1.385 . S
C5550 H5531 0.951 . S
C5550 C5548 1.388 . S
C5550 C5551 1.366 . S
C5551 C5550 1.366 . S
C5551 C5552 1.414 . S
C5551 C5554 1.499 . S
C5552 H5532 0.950 . S
C5552 C5551 1.414 . S
C5552 C5553 1.374 . S
C5553 H5533 0.950 . S
C5553 C5549 1.385 . S
C5553 C5552 1.374 . S
C5554 C5551 1.499 . S
C5554 C5555 1.373 . S
C5554 C5556 1.389 . S
C5555 H5534 0.950 . S
C5555 C5554 1.373 . S
C5555 C5571 1.377 . S
C5556 C5554 1.389 . S
C5556 C5557 1.524 . S
C5556 C5570 1.377 . S
C5557 C5556 1.524 . S
C5557 C5558 1.397 . S
C5557 C5562 1.363 . S
C5558 H5535 0.950 . S
C5558 C5557 1.397 . S
C5558 C5559 1.334 . S
C5559 H5536 0.950 . S
C5559 C5558 1.334 . S
C5559 C5560 1.287 . S
C5560 C5559 1.287 . S
C5560 C5561 1.524 . S
C5560 H5579 0.913 . S
C5561 H5537 0.950 . S
C5561 C5560 1.524 . S
C5561 C5562 1.415 . S
C5562 H5538 0.950 . S
C5562 C5557 1.363 . S
C5562 C5561 1.415 . S
C5563 H5539 0.951 . S
C5563 C5564 1.366 . S
C5563 C5565 1.388 . S
C5564 C5563 1.366 . S
C5564 C5568 1.385 . S
C5565 H5540 0.951 . S
C5565 C5563 1.388 . S
C5565 C5566 1.366 . S
C5566 C5565 1.366 . S
C5566 C5567 1.414 . S
C5566 C5569 1.499 . S
C5567 H5541 0.950 . S
C5567 C5566 1.414 . S
C5567 C5568 1.374 . S
C5568 H5542 0.950 . S
C5568 C5564 1.385 . S
C5568 C5567 1.374 . S
C5569 C5566 1.499 . S
C5569 C5570 1.373 . S
C5569 C5571 1.389 . S
C5570 H5543 0.950 . S
C5570 C5556 1.377 . S
C5570 C5569 1.373 . S
C5571 C5555 1.377 . S
C5571 C5569 1.389 . S
C5571 C5572 1.524 . S
C5572 C5571 1.524 . S
C5572 C5573 1.397 . S
C5572 C5577 1.363 . S
C5573 H5544 0.950 . S
C5573 C5572 1.397 . S
C5573 C5574 1.334 . S
C5574 H5545 0.950 . S
C5574 C5573 1.334 . S
C5574 C5575 1.287 . S
C5575 C5574 1.287 . S
C5575 C5576 1.524 . S
C5575 H5578 0.999 . S
C5576 H5546 0.950 . S
C5576 C5575 1.524 . S
C5576 C5577 1.415 . S
C5577 H5547 0.950 . S
C5577 C5572 1.363 . S
C5577 C5576 1.415 . S
H5578 C5575 0.999 . S
H5579 C5560 0.913 . S
H5580 C5598 0.951 . S
H5581 C5600 0.951 . S
H5582 C5602 0.950 . S
H5583 C5603 0.950 . S
H5584 C5605 0.950 . S
H5585 C5608 0.950 . S
H5586 C5609 0.950 . S
H5587 C5611 0.950 . S
H5588 C5612 0.950 . S
H5589 C5613 0.951 . S
H5590 C5615 0.951 . S
H5591 C5617 0.950 . S
H5592 C5618 0.950 . S
H5593 C5620 0.950 . S
H5594 C5623 0.950 . S
H5595 C5624 0.950 . S
H5596 C5626 0.950 . S
H5597 C5627 0.950 . S
C5598 H5580 0.951 . S
C5598 C5599 1.366 . S
C5598 C5600 1.388 . S
C5599 C5598 1.366 . S
C5599 C5603 1.385 . S
C5600 H5581 0.951 . S
C5600 C5598 1.388 . S
C5600 C5601 1.366 . S
C5601 C5600 1.366 . S
C5601 C5602 1.414 . S
C5601 C5604 1.499 . S
C5602 H5582 0.950 . S
C5602 C5601 1.414 . S
C5602 C5603 1.374 . S
C5603 H5583 0.950 . S
C5603 C5599 1.385 . S
C5603 C5602 1.374 . S
C5604 C5601 1.499 . S
C5604 C5605 1.373 . S
C5604 C5606 1.389 . S
C5605 H5584 0.950 . S
C5605 C5604 1.373 . S
C5605 C5621 1.377 . S
C5606 C5604 1.389 . S
C5606 C5607 1.524 . S
C5606 C5620 1.377 . S
C5607 C5606 1.524 . S
C5607 C5608 1.397 . S
C5607 C5612 1.363 . S
C5608 H5585 0.950 . S
C5608 C5607 1.397 . S
C5608 C5609 1.334 . S
C5609 H5586 0.950 . S
C5609 C5608 1.334 . S
C5609 C5610 1.287 . S
C5610 C5609 1.287 . S
C5610 C5611 1.524 . S
C5610 H5629 0.913 . S
C5611 H5587 0.950 . S
C5611 C5610 1.524 . S
C5611 C5612 1.415 . S
C5612 H5588 0.950 . S
C5612 C5607 1.363 . S
C5612 C5611 1.415 . S
C5613 H5589 0.951 . S
C5613 C5614 1.366 . S
C5613 C5615 1.388 . S
C5614 C5613 1.366 . S
C5614 C5618 1.385 . S
C5615 H5590 0.951 . S
C5615 C5613 1.388 . S
C5615 C5616 1.366 . S
C5616 C5615 1.366 . S
C5616 C5617 1.414 . S
C5616 C5619 1.499 . S
C5617 H5591 0.950 . S
C5617 C5616 1.414 . S
C5617 C5618 1.374 . S
C5618 H5592 0.950 . S
C5618 C5614 1.385 . S
C5618 C5617 1.374 . S
C5619 C5616 1.499 . S
C5619 C5620 1.373 . S
C5619 C5621 1.389 . S
C5620 H5593 0.950 . S
C5620 C5606 1.377 . S
C5620 C5619 1.373 . S
C5621 C5605 1.377 . S
C5621 C5619 1.389 . S
C5621 C5622 1.524 . S
C5622 C5621 1.524 . S
C5622 C5623 1.397 . S
C5622 C5627 1.363 . S
C5623 H5594 0.950 . S
C5623 C5622 1.397 . S
C5623 C5624 1.334 . S
C5624 H5595 0.950 . S
C5624 C5623 1.334 . S
C5624 C5625 1.287 . S
C5625 C5624 1.287 . S
C5625 C5626 1.524 . S
C5625 H5628 0.999 . S
C5626 H5596 0.950 . S
C5626 C5625 1.524 . S
C5626 C5627 1.415 . S
C5627 H5597 0.950 . S
C5627 C5622 1.363 . S
C5627 C5626 1.415 . S
H5628 C5625 0.999 . S
H5629 C5610 0.913 . S
H5630 C5648 0.951 . S
H5631 C5650 0.951 . S
H5632 C5652 0.950 . S
H5633 C5653 0.950 . S
H5634 C5655 0.950 . S
H5635 C5658 0.950 . S
H5636 C5659 0.950 . S
H5637 C5661 0.950 . S
H5638 C5662 0.950 . S
H5639 C5663 0.951 . S
H5640 C5665 0.951 . S
H5641 C5667 0.950 . S
H5642 C5668 0.950 . S
H5643 C5670 0.950 . S
H5644 C5673 0.950 . S
H5645 C5674 0.950 . S
H5646 C5676 0.950 . S
H5647 C5677 0.950 . S
C5648 H5630 0.951 . S
C5648 C5649 1.366 . S
C5648 C5650 1.388 . S
C5649 C5648 1.366 . S
C5649 C5653 1.385 . S
C5650 H5631 0.951 . S
C5650 C5648 1.388 . S
C5650 C5651 1.366 . S
C5651 C5650 1.366 . S
C5651 C5652 1.414 . S
C5651 C5654 1.499 . S
C5652 H5632 0.950 . S
C5652 C5651 1.414 . S
C5652 C5653 1.374 . S
C5653 H5633 0.950 . S
C5653 C5649 1.385 . S
C5653 C5652 1.374 . S
C5654 C5651 1.499 . S
C5654 C5655 1.373 . S
C5654 C5656 1.389 . S
C5655 H5634 0.950 . S
C5655 C5654 1.373 . S
C5655 C5671 1.377 . S
C5656 C5654 1.389 . S
C5656 C5657 1.524 . S
C5656 C5670 1.377 . S
C5657 C5656 1.524 . S
C5657 C5658 1.397 . S
C5657 C5662 1.363 . S
C5658 H5635 0.950 . S
C5658 C5657 1.397 . S
C5658 C5659 1.334 . S
C5659 H5636 0.950 . S
C5659 C5658 1.334 . S
C5659 C5660 1.287 . S
C5660 C5659 1.287 . S
C5660 C5661 1.524 . S
C5660 H5679 0.913 . S
C5661 H5637 0.950 . S
C5661 C5660 1.524 . S
C5661 C5662 1.415 . S
C5662 H5638 0.950 . S
C5662 C5657 1.363 . S
C5662 C5661 1.415 . S
C5663 H5639 0.951 . S
C5663 C5664 1.366 . S
C5663 C5665 1.388 . S
C5664 C5663 1.366 . S
C5664 C5668 1.385 . S
C5665 H5640 0.951 . S
C5665 C5663 1.388 . S
C5665 C5666 1.366 . S
C5666 C5665 1.366 . S
C5666 C5667 1.414 . S
C5666 C5669 1.499 . S
C5667 H5641 0.950 . S
C5667 C5666 1.414 . S
C5667 C5668 1.374 . S
C5668 H5642 0.950 . S
C5668 C5664 1.385 . S
C5668 C5667 1.374 . S
C5669 C5666 1.499 . S
C5669 C5670 1.373 . S
C5669 C5671 1.389 . S
C5670 H5643 0.950 . S
C5670 C5656 1.377 . S
C5670 C5669 1.373 . S
C5671 C5655 1.377 . S
C5671 C5669 1.389 . S
C5671 C5672 1.524 . S
C5672 C5671 1.524 . S
C5672 C5673 1.397 . S
C5672 C5677 1.363 . S
C5673 H5644 0.950 . S
C5673 C5672 1.397 . S
C5673 C5674 1.334 . S
C5674 H5645 0.950 . S
C5674 C5673 1.334 . S
C5674 C5675 1.287 . S
C5675 C5674 1.287 . S
C5675 C5676 1.524 . S
C5675 H5678 0.999 . S
C5676 H5646 0.950 . S
C5676 C5675 1.524 . S
C5676 C5677 1.415 . S
C5677 H5647 0.950 . S
C5677 C5672 1.363 . S
C5677 C5676 1.415 . S
H5678 C5675 0.999 . S
H5679 C5660 0.913 . S
H5680 C5698 0.951 . S
H5681 C5700 0.951 . S
H5682 C5702 0.950 . S
H5683 C5703 0.950 . S
H5684 C5705 0.950 . S
H5685 C5708 0.950 . S
H5686 C5709 0.950 . S
H5687 C5711 0.950 . S
H5688 C5712 0.950 . S
H5689 C5713 0.951 . S
H5690 C5715 0.951 . S
H5691 C5717 0.950 . S
H5692 C5718 0.950 . S
H5693 C5720 0.950 . S
H5694 C5723 0.950 . S
H5695 C5724 0.950 . S
H5696 C5726 0.950 . S
H5697 C5727 0.950 . S
C5698 H5680 0.951 . S
C5698 C5699 1.366 . S
C5698 C5700 1.388 . S
C5699 C5698 1.366 . S
C5699 C5703 1.385 . S
C5700 H5681 0.951 . S
C5700 C5698 1.388 . S
C5700 C5701 1.366 . S
C5701 C5700 1.366 . S
C5701 C5702 1.414 . S
C5701 C5704 1.499 . S
C5702 H5682 0.950 . S
C5702 C5701 1.414 . S
C5702 C5703 1.374 . S
C5703 H5683 0.950 . S
C5703 C5699 1.385 . S
C5703 C5702 1.374 . S
C5704 C5701 1.499 . S
C5704 C5705 1.373 . S
C5704 C5706 1.389 . S
C5705 H5684 0.950 . S
C5705 C5704 1.373 . S
C5705 C5721 1.377 . S
C5706 C5704 1.389 . S
C5706 C5707 1.524 . S
C5706 C5720 1.377 . S
C5707 C5706 1.524 . S
C5707 C5708 1.397 . S
C5707 C5712 1.363 . S
C5708 H5685 0.950 . S
C5708 C5707 1.397 . S
C5708 C5709 1.334 . S
C5709 H5686 0.950 . S
C5709 C5708 1.334 . S
C5709 C5710 1.287 . S
C5710 C5709 1.287 . S
C5710 C5711 1.524 . S
C5710 H5729 0.913 . S
C5711 H5687 0.950 . S
C5711 C5710 1.524 . S
C5711 C5712 1.415 . S
C5712 H5688 0.950 . S
C5712 C5707 1.363 . S
C5712 C5711 1.415 . S
C5713 H5689 0.951 . S
C5713 C5714 1.366 . S
C5713 C5715 1.388 . S
C5714 C5713 1.366 . S
C5714 C5718 1.385 . S
C5715 H5690 0.951 . S
C5715 C5713 1.388 . S
C5715 C5716 1.366 . S
C5716 C5715 1.366 . S
C5716 C5717 1.414 . S
C5716 C5719 1.499 . S
C5717 H5691 0.950 . S
C5717 C5716 1.414 . S
C5717 C5718 1.374 . S
C5718 H5692 0.950 . S
C5718 C5714 1.385 . S
C5718 C5717 1.374 . S
C5719 C5716 1.499 . S
C5719 C5720 1.373 . S
C5719 C5721 1.389 . S
C5720 H5693 0.950 . S
C5720 C5706 1.377 . S
C5720 C5719 1.373 . S
C5721 C5705 1.377 . S
C5721 C5719 1.389 . S
C5721 C5722 1.524 . S
C5722 C5721 1.524 . S
C5722 C5723 1.397 . S
C5722 C5727 1.363 . S
C5723 H5694 0.950 . S
C5723 C5722 1.397 . S
C5723 C5724 1.334 . S
C5724 H5695 0.950 . S
C5724 C5723 1.334 . S
C5724 C5725 1.287 . S
C5725 C5724 1.287 . S
C5725 C5726 1.524 . S
C5725 H5728 0.999 . S
C5726 H5696 0.950 . S
C5726 C5725 1.524 . S
C5726 C5727 1.415 . S
C5727 H5697 0.950 . S
C5727 C5722 1.363 . S
C5727 C5726 1.415 . S
H5728 C5725 0.999 . S
H5729 C5710 0.913 . S
H5730 C5748 0.951 . S
H5731 C5750 0.951 . S
H5732 C5752 0.950 . S
H5733 C5753 0.950 . S
H5734 C5755 0.950 . S
H5735 C5758 0.950 . S
H5736 C5759 0.950 . S
H5737 C5761 0.950 . S
H5738 C5762 0.950 . S
H5739 C5763 0.951 . S
H5740 C5765 0.951 . S
H5741 C5767 0.950 . S
H5742 C5768 0.950 . S
H5743 C5770 0.950 . S
H5744 C5773 0.950 . S
H5745 C5774 0.950 . S
H5746 C5776 0.950 . S
H5747 C5777 0.950 . S
C5748 H5730 0.951 . S
C5748 C5749 1.366 . S
C5748 C5750 1.388 . S
C5749 C5748 1.366 . S
C5749 C5753 1.385 . S
C5750 H5731 0.951 . S
C5750 C5748 1.388 . S
C5750 C5751 1.366 . S
C5751 C5750 1.366 . S
C5751 C5752 1.414 . S
C5751 C5754 1.499 . S
C5752 H5732 0.950 . S
C5752 C5751 1.414 . S
C5752 C5753 1.374 . S
C5753 H5733 0.950 . S
C5753 C5749 1.385 . S
C5753 C5752 1.374 . S
C5754 C5751 1.499 . S
C5754 C5755 1.373 . S
C5754 C5756 1.389 . S
C5755 H5734 0.950 . S
C5755 C5754 1.373 . S
C5755 C5771 1.377 . S
C5756 C5754 1.389 . S
C5756 C5757 1.524 . S
C5756 C5770 1.377 . S
C5757 C5756 1.524 . S
C5757 C5758 1.397 . S
C5757 C5762 1.363 . S
C5758 H5735 0.950 . S
C5758 C5757 1.397 . S
C5758 C5759 1.334 . S
C5759 H5736 0.950 . S
C5759 C5758 1.334 . S
C5759 C5760 1.287 . S
C5760 C5759 1.287 . S
C5760 C5761 1.524 . S
C5760 H5779 0.913 . S
C5761 H5737 0.950 . S
C5761 C5760 1.524 . S
C5761 C5762 1.415 . S
C5762 H5738 0.950 . S
C5762 C5757 1.363 . S
C5762 C5761 1.415 . S
C5763 H5739 0.951 . S
C5763 C5764 1.366 . S
C5763 C5765 1.388 . S
C5764 C5763 1.366 . S
C5764 C5768 1.385 . S
C5765 H5740 0.951 . S
C5765 C5763 1.388 . S
C5765 C5766 1.366 . S
C5766 C5765 1.366 . S
C5766 C5767 1.414 . S
C5766 C5769 1.499 . S
C5767 H5741 0.950 . S
C5767 C5766 1.414 . S
C5767 C5768 1.374 . S
C5768 H5742 0.950 . S
C5768 C5764 1.385 . S
C5768 C5767 1.374 . S
C5769 C5766 1.499 . S
C5769 C5770 1.373 . S
C5769 C5771 1.389 . S
C5770 H5743 0.950 . S
C5770 C5756 1.377 . S
C5770 C5769 1.373 . S
C5771 C5755 1.377 . S
C5771 C5769 1.389 . S
C5771 C5772 1.524 . S
C5772 C5771 1.524 . S
C5772 C5773 1.397 . S
C5772 C5777 1.363 . S
C5773 H5744 0.950 . S
C5773 C5772 1.397 . S
C5773 C5774 1.334 . S
C5774 H5745 0.950 . S
C5774 C5773 1.334 . S
C5774 C5775 1.287 . S
C5775 C5774 1.287 . S
C5775 C5776 1.524 . S
C5775 H5778 0.999 . S
C5776 H5746 0.950 . S
C5776 C5775 1.524 . S
C5776 C5777 1.415 . S
C5777 H5747 0.950 . S
C5777 C5772 1.363 . S
C5777 C5776 1.415 . S
H5778 C5775 0.999 . S
H5779 C5760 0.913 . S
H5780 C5798 0.951 . S
H5781 C5800 0.951 . S
H5782 C5802 0.950 . S
H5783 C5803 0.950 . S
H5784 C5805 0.950 . S
H5785 C5808 0.950 . S
H5786 C5809 0.950 . S
H5787 C5811 0.950 . S
H5788 C5812 0.950 . S
H5789 C5813 0.951 . S
H5790 C5815 0.951 1_655 S
H5791 C5817 0.950 . S
H5792 C5818 0.950 . S
H5793 C5820 0.950 . S
H5794 C5823 0.950 . S
H5795 C5824 0.950 . S
H5796 C5826 0.950 . S
H5797 C5827 0.950 . S
C5798 H5780 0.951 . S
C5798 C5799 1.366 . S
C5798 C5800 1.388 . S
C5799 C5798 1.366 . S
C5799 C5803 1.385 . S
C5800 H5781 0.951 . S
C5800 C5798 1.388 . S
C5800 C5801 1.366 . S
C5801 C5800 1.366 . S
C5801 C5802 1.414 . S
C5801 C5804 1.499 . S
C5802 H5782 0.950 . S
C5802 C5801 1.414 . S
C5802 C5803 1.374 . S
C5803 H5783 0.950 . S
C5803 C5799 1.385 . S
C5803 C5802 1.374 . S
C5804 C5801 1.499 . S
C5804 C5805 1.373 . S
C5804 C5806 1.389 . S
C5805 H5784 0.950 . S
C5805 C5804 1.373 . S
C5805 C5821 1.377 . S
C5806 C5804 1.389 . S
C5806 C5807 1.524 . S
C5806 C5820 1.377 . S
C5807 C5806 1.524 . S
C5807 C5808 1.397 . S
C5807 C5812 1.363 . S
C5808 H5785 0.950 . S
C5808 C5807 1.397 . S
C5808 C5809 1.334 . S
C5809 H5786 0.950 . S
C5809 C5808 1.334 . S
C5809 C5810 1.287 . S
C5810 C5809 1.287 . S
C5810 C5811 1.524 . S
C5810 H5829 0.913 . S
C5811 H5787 0.950 . S
C5811 C5810 1.524 . S
C5811 C5812 1.415 . S
C5812 H5788 0.950 . S
C5812 C5807 1.363 . S
C5812 C5811 1.415 . S
C5813 H5789 0.951 . S
C5813 C5814 1.366 . S
C5813 C5815 1.388 . S
C5814 C5813 1.366 . S
C5814 C5818 1.385 . S
C5815 H5790 0.951 1_455 S
C5815 C5813 1.388 . S
C5815 C5816 1.359 . S
C5816 C5815 1.359 . S
C5816 C5817 1.460 . S
C5816 C5819 1.462 1_455 S
C5817 H5791 0.950 . S
C5817 C5816 1.460 . S
C5817 C5818 1.374 . S
C5818 H5792 0.950 . S
C5818 C5814 1.385 . S
C5818 C5817 1.374 . S
C5819 C5816 1.462 1_655 S
C5819 C5820 1.373 . S
C5819 C5821 1.389 . S
C5820 H5793 0.950 . S
C5820 C5806 1.377 . S
C5820 C5819 1.373 . S
C5821 C5805 1.377 . S
C5821 C5819 1.389 . S
C5821 C5822 1.524 1_655 S
C5822 C5821 1.524 1_455 S
C5822 C5823 1.397 . S
C5822 C5827 1.363 1_455 S
C5823 H5794 0.950 . S
C5823 C5822 1.397 . S
C5823 C5824 1.334 . S
C5824 H5795 0.950 . S
C5824 C5823 1.334 . S
C5824 C5825 1.287 . S
C5825 C5824 1.287 . S
C5825 C5826 1.524 . S
C5825 H5828 0.999 . S
C5826 H5796 0.950 . S
C5826 C5825 1.524 . S
C5826 C5827 1.415 1_455 S
C5827 H5797 0.950 . S
C5827 C5822 1.363 1_655 S
C5827 C5826 1.415 1_655 S
H5828 C5825 0.999 . S
H5829 C5810 0.913 . S
H5830 C5848 0.951 . S
H5831 C5850 0.951 . S
H5832 C5852 0.950 . S
H5833 C5853 0.950 . S
H5834 C5855 0.950 . S
H5835 C5858 0.950 . S
H5836 C5859 0.950 . S
H5837 C5861 0.950 . S
H5838 C5862 0.950 . S
H5839 C5863 0.951 . S
H5840 C5865 0.951 . S
H5841 C5867 0.950 . S
H5842 C5868 0.950 . S
H5843 C5870 0.950 . S
H5844 C5873 0.950 . S
H5845 C5874 0.950 . S
H5846 C5876 0.950 . S
H5847 C5877 0.950 . S
C5848 H5830 0.951 . S
C5848 C5849 1.366 . S
C5848 C5850 1.388 . S
C5849 C5848 1.366 . S
C5849 C5853 1.385 . S
C5850 H5831 0.951 . S
C5850 C5848 1.388 . S
C5850 C5851 1.366 . S
C5851 C5850 1.366 . S
C5851 C5852 1.414 . S
C5851 C5854 1.499 . S
C5852 H5832 0.950 . S
C5852 C5851 1.414 . S
C5852 C5853 1.374 . S
C5853 H5833 0.950 . S
C5853 C5849 1.385 . S
C5853 C5852 1.374 . S
C5854 C5851 1.499 . S
C5854 C5855 1.373 . S
C5854 C5856 1.389 . S
C5855 H5834 0.950 . S
C5855 C5854 1.373 . S
C5855 C5871 1.377 . S
C5856 C5854 1.389 . S
C5856 C5857 1.524 . S
C5856 C5870 1.377 . S
C5857 C5856 1.524 . S
C5857 C5858 1.397 . S
C5857 C5862 1.363 . S
C5858 H5835 0.950 . S
C5858 C5857 1.397 . S
C5858 C5859 1.334 . S
C5859 H5836 0.950 . S
C5859 C5858 1.334 . S
C5859 C5860 1.287 . S
C5860 C5859 1.287 . S
C5860 C5861 1.524 . S
C5860 H5879 0.913 . S
C5861 H5837 0.950 . S
C5861 C5860 1.524 . S
C5861 C5862 1.415 . S
C5862 H5838 0.950 . S
C5862 C5857 1.363 . S
C5862 C5861 1.415 . S
C5863 H5839 0.951 . S
C5863 C5864 1.366 . S
C5863 C5865 1.388 . S
C5864 C5863 1.366 . S
C5864 C5868 1.385 . S
C5865 H5840 0.951 . S
C5865 C5863 1.388 . S
C5865 C5866 1.366 . S
C5866 C5865 1.366 . S
C5866 C5867 1.414 . S
C5866 C5869 1.499 . S
C5867 H5841 0.950 . S
C5867 C5866 1.414 . S
C5867 C5868 1.374 . S
C5868 H5842 0.950 . S
C5868 C5864 1.385 . S
C5868 C5867 1.374 . S
C5869 C5866 1.499 . S
C5869 C5870 1.373 . S
C5869 C5871 1.389 . S
C5870 H5843 0.950 . S
C5870 C5856 1.377 . S
C5870 C5869 1.373 . S
C5871 C5855 1.377 . S
C5871 C5869 1.389 . S
C5871 C5872 1.524 . S
C5872 C5871 1.524 . S
C5872 C5873 1.397 . S
C5872 C5877 1.363 . S
C5873 H5844 0.950 . S
C5873 C5872 1.397 . S
C5873 C5874 1.334 . S
C5874 H5845 0.950 . S
C5874 C5873 1.334 . S
C5874 C5875 1.287 . S
C5875 C5874 1.287 . S
C5875 C5876 1.524 . S
C5875 H5878 0.999 . S
C5876 H5846 0.950 . S
C5876 C5875 1.524 . S
C5876 C5877 1.415 . S
C5877 H5847 0.950 . S
C5877 C5872 1.363 . S
C5877 C5876 1.415 . S
H5878 C5875 0.999 . S
H5879 C5860 0.913 . S
H5880 C5898 0.951 . S
H5881 C5900 0.951 . S
H5882 C5902 0.950 . S
H5883 C5903 0.950 . S
H5884 C5905 0.950 . S
H5885 C5908 0.950 . S
H5886 C5909 0.950 . S
H5887 C5911 0.950 . S
H5888 C5912 0.950 . S
H5889 C5913 0.951 . S
H5890 C5915 0.951 . S
H5891 C5917 0.950 . S
H5892 C5918 0.950 . S
H5893 C5920 0.950 . S
H5894 C5923 0.950 . S
H5895 C5924 0.950 . S
H5896 C5926 0.950 . S
H5897 C5927 0.950 . S
C5898 H5880 0.951 . S
C5898 C5899 1.366 . S
C5898 C5900 1.388 . S
C5899 C5898 1.366 . S
C5899 C5903 1.385 . S
C5900 H5881 0.951 . S
C5900 C5898 1.388 . S
C5900 C5901 1.366 . S
C5901 C5900 1.366 . S
C5901 C5902 1.414 . S
C5901 C5904 1.499 . S
C5902 H5882 0.950 . S
C5902 C5901 1.414 . S
C5902 C5903 1.374 . S
C5903 H5883 0.950 . S
C5903 C5899 1.385 . S
C5903 C5902 1.374 . S
C5904 C5901 1.499 . S
C5904 C5905 1.373 . S
C5904 C5906 1.389 . S
C5905 H5884 0.950 . S
C5905 C5904 1.373 . S
C5905 C5921 1.377 . S
C5906 C5904 1.389 . S
C5906 C5907 1.524 . S
C5906 C5920 1.377 . S
C5907 C5906 1.524 . S
C5907 C5908 1.397 . S
C5907 C5912 1.363 . S
C5908 H5885 0.950 . S
C5908 C5907 1.397 . S
C5908 C5909 1.334 . S
C5909 H5886 0.950 . S
C5909 C5908 1.334 . S
C5909 C5910 1.287 . S
C5910 C5909 1.287 . S
C5910 C5911 1.524 . S
C5910 H5929 0.913 . S
C5911 H5887 0.950 . S
C5911 C5910 1.524 . S
C5911 C5912 1.415 . S
C5912 H5888 0.950 . S
C5912 C5907 1.363 . S
C5912 C5911 1.415 . S
C5913 H5889 0.951 . S
C5913 C5914 1.366 . S
C5913 C5915 1.388 . S
C5914 C5913 1.366 . S
C5914 C5918 1.385 . S
C5915 H5890 0.951 . S
C5915 C5913 1.388 . S
C5915 C5916 1.366 . S
C5916 C5915 1.366 . S
C5916 C5917 1.414 . S
C5916 C5919 1.499 . S
C5917 H5891 0.950 . S
C5917 C5916 1.414 . S
C5917 C5918 1.374 . S
C5918 H5892 0.950 . S
C5918 C5914 1.385 . S
C5918 C5917 1.374 . S
C5919 C5916 1.499 . S
C5919 C5920 1.373 . S
C5919 C5921 1.389 . S
C5920 H5893 0.950 . S
C5920 C5906 1.377 . S
C5920 C5919 1.373 . S
C5921 C5905 1.377 . S
C5921 C5919 1.389 . S
C5921 C5922 1.524 . S
C5922 C5921 1.524 . S
C5922 C5923 1.397 . S
C5922 C5927 1.363 . S
C5923 H5894 0.950 . S
C5923 C5922 1.397 . S
C5923 C5924 1.334 . S
C5924 H5895 0.950 . S
C5924 C5923 1.334 . S
C5924 C5925 1.287 . S
C5925 C5924 1.287 . S
C5925 C5926 1.524 . S
C5925 H5928 0.999 . S
C5926 H5896 0.950 . S
C5926 C5925 1.524 . S
C5926 C5927 1.415 . S
C5927 H5897 0.950 . S
C5927 C5922 1.363 . S
C5927 C5926 1.415 . S
H5928 C5925 0.999 . S
H5929 C5910 0.913 . S
H5930 C5948 0.951 . S
H5931 C5950 0.951 . S
H5932 C5952 0.950 . S
H5933 C5953 0.950 . S
H5934 C5955 0.950 . S
H5935 C5958 0.950 . S
H5936 C5959 0.950 . S
H5937 C5961 0.950 . S
H5938 C5962 0.950 . S
H5939 C5963 0.951 . S
H5940 C5965 0.951 . S
H5941 C5967 0.950 . S
H5942 C5968 0.950 . S
H5943 C5970 0.950 . S
H5944 C5973 0.950 . S
H5945 C5974 0.950 . S
H5946 C5976 0.950 . S
H5947 C5977 0.950 . S
C5948 H5930 0.951 . S
C5948 C5949 1.366 . S
C5948 C5950 1.388 . S
C5949 C5948 1.366 . S
C5949 C5953 1.385 . S
C5950 H5931 0.951 . S
C5950 C5948 1.388 . S
C5950 C5951 1.366 . S
C5951 C5950 1.366 . S
C5951 C5952 1.414 . S
C5951 C5954 1.499 . S
C5952 H5932 0.950 . S
C5952 C5951 1.414 . S
C5952 C5953 1.374 . S
C5953 H5933 0.950 . S
C5953 C5949 1.385 . S
C5953 C5952 1.374 . S
C5954 C5951 1.499 . S
C5954 C5955 1.373 . S
C5954 C5956 1.389 . S
C5955 H5934 0.950 . S
C5955 C5954 1.373 . S
C5955 C5971 1.377 . S
C5956 C5954 1.389 . S
C5956 C5957 1.524 . S
C5956 C5970 1.377 . S
C5957 C5956 1.524 . S
C5957 C5958 1.397 . S
C5957 C5962 1.363 . S
C5958 H5935 0.950 . S
C5958 C5957 1.397 . S
C5958 C5959 1.334 . S
C5959 H5936 0.950 . S
C5959 C5958 1.334 . S
C5959 C5960 1.287 . S
C5960 C5959 1.287 . S
C5960 C5961 1.524 . S
C5960 H5979 0.913 . S
C5961 H5937 0.950 . S
C5961 C5960 1.524 . S
C5961 C5962 1.415 . S
C5962 H5938 0.950 . S
C5962 C5957 1.363 . S
C5962 C5961 1.415 . S
C5963 H5939 0.951 . S
C5963 C5964 1.366 . S
C5963 C5965 1.388 . S
C5964 C5963 1.366 . S
C5964 C5968 1.385 . S
C5965 H5940 0.951 . S
C5965 C5963 1.388 . S
C5965 C5966 1.366 . S
C5966 C5965 1.366 . S
C5966 C5967 1.414 . S
C5966 C5969 1.499 . S
C5967 H5941 0.950 . S
C5967 C5966 1.414 . S
C5967 C5968 1.374 . S
C5968 H5942 0.950 . S
C5968 C5964 1.385 . S
C5968 C5967 1.374 . S
C5969 C5966 1.499 . S
C5969 C5970 1.373 . S
C5969 C5971 1.389 . S
C5970 H5943 0.950 . S
C5970 C5956 1.377 . S
C5970 C5969 1.373 . S
C5971 C5955 1.377 . S
C5971 C5969 1.389 . S
C5971 C5972 1.524 . S
C5972 C5971 1.524 . S
C5972 C5973 1.397 . S
C5972 C5977 1.363 . S
C5973 H5944 0.950 . S
C5973 C5972 1.397 . S
C5973 C5974 1.334 . S
C5974 H5945 0.950 . S
C5974 C5973 1.334 . S
C5974 C5975 1.287 . S
C5975 C5974 1.287 . S
C5975 C5976 1.524 . S
C5975 H5978 0.999 . S
C5976 H5946 0.950 . S
C5976 C5975 1.524 . S
C5976 C5977 1.415 . S
C5977 H5947 0.950 . S
C5977 C5972 1.363 . S
C5977 C5976 1.415 . S
H5978 C5975 0.999 . S
H5979 C5960 0.913 . S
H5980 C5998 0.951 . S
H5981 C6000 0.951 . S
H5982 C6002 0.950 . S
H5983 C6003 0.950 . S
H5984 C6005 0.950 . S
H5985 C6008 0.950 . S
H5986 C6009 0.950 . S
H5987 C6011 0.950 . S
H5988 C6012 0.950 . S
H5989 C6013 0.951 . S
H5990 C6015 0.947 1_455 S
H5991 C6017 0.950 . S
H5992 C6018 0.950 . S
H5993 C6020 0.950 . S
H5994 C6023 0.950 . S
H5995 C6024 0.950 . S
H5996 C6026 0.950 . S
H5997 C6027 0.955 . S
C5998 H5980 0.951 . S
C5998 C5999 1.366 . S
C5998 C6000 1.388 . S
C5999 C5998 1.366 . S
C5999 C6003 1.385 . S
C6000 H5981 0.951 . S
C6000 C5998 1.388 . S
C6000 C6001 1.366 . S
C6001 C6000 1.366 . S
C6001 C6002 1.414 . S
C6001 C6004 1.499 . S
C6002 H5982 0.950 . S
C6002 C6001 1.414 . S
C6002 C6003 1.374 . S
C6003 H5983 0.950 . S
C6003 C5999 1.385 . S
C6003 C6002 1.374 . S
C6004 C6001 1.499 . S
C6004 C6005 1.373 . S
C6004 C6006 1.389 . S
C6005 H5984 0.950 . S
C6005 C6004 1.373 . S
C6005 C6021 1.377 . S
C6006 C6004 1.389 . S
C6006 C6007 1.524 . S
C6006 C6020 1.377 . S
C6007 C6006 1.524 . S
C6007 C6008 1.397 . S
C6007 C6012 1.363 . S
C6008 H5985 0.950 . S
C6008 C6007 1.397 . S
C6008 C6009 1.334 . S
C6009 H5986 0.950 . S
C6009 C6008 1.334 . S
C6009 C6010 1.287 . S
C6010 C6009 1.287 . S
C6010 C6011 1.524 . S
C6010 H6029 0.913 . S
C6011 H5987 0.950 . S
C6011 C6010 1.524 . S
C6011 C6012 1.415 . S
C6012 H5988 0.950 . S
C6012 C6007 1.363 . S
C6012 C6011 1.415 . S
C6013 H5989 0.951 . S
C6013 C6014 1.374 . S
C6013 C6015 1.382 1_455 S
C6014 C6013 1.374 . S
C6014 C6018 1.363 1_455 S
C6015 H5990 0.947 1_655 S
C6015 C6013 1.382 1_655 S
C6015 C6016 1.375 . S
C6016 C6015 1.375 . S
C6016 C6017 1.414 . S
C6016 C6019 1.499 . S
C6017 H5991 0.950 . S
C6017 C6016 1.414 . S
C6017 C6018 1.374 . S
C6018 H5992 0.950 . S
C6018 C6014 1.363 1_655 S
C6018 C6017 1.374 . S
C6019 C6016 1.499 . S
C6019 C6020 1.373 . S
C6019 C6021 1.389 . S
C6020 H5993 0.950 . S
C6020 C6006 1.377 . S
C6020 C6019 1.373 . S
C6021 C6005 1.377 . S
C6021 C6019 1.389 . S
C6021 C6022 1.524 . S
C6022 C6021 1.524 . S
C6022 C6023 1.397 . S
C6022 C6027 1.363 . S
C6023 H5994 0.950 . S
C6023 C6022 1.397 . S
C6023 C6024 1.334 . S
C6024 H5995 0.950 . S
C6024 C6023 1.334 . S
C6024 C6025 1.287 1_655 S
C6025 C6024 1.287 1_455 S
C6025 C6026 1.524 . S
C6025 H6028 0.999 . S
C6026 H5996 0.950 . S
C6026 C6025 1.524 . S
C6026 C6027 1.415 1_455 S
C6027 H5997 0.955 . S
C6027 C6022 1.363 . S
C6027 C6026 1.415 1_655 S
H6028 C6025 0.999 . S
H6029 C6010 0.913 . S
H6030 C6048 0.951 . S
H6031 C6050 0.951 . S
H6032 C6052 0.950 . S
H6033 C6053 0.950 . S
H6034 C6055 0.950 . S
H6035 C6058 0.950 . S
H6036 C6059 0.950 . S
H6037 C6061 0.950 . S
H6038 C6062 0.950 . S
H6039 C6063 0.951 . S
H6040 C6065 0.951 . S
H6041 C6067 0.950 . S
H6042 C6068 0.950 . S
H6043 C6070 0.950 . S
H6044 C6073 0.950 . S
H6045 C6074 0.950 . S
H6046 C6076 0.950 . S
H6047 C6077 0.950 . S
C6048 H6030 0.951 . S
C6048 C6049 1.366 . S
C6048 C6050 1.388 . S
C6049 C6048 1.366 . S
C6049 C6053 1.385 . S
C6050 H6031 0.951 . S
C6050 C6048 1.388 . S
C6050 C6051 1.366 . S
C6051 C6050 1.366 . S
C6051 C6052 1.414 . S
C6051 C6054 1.499 . S
C6052 H6032 0.950 . S
C6052 C6051 1.414 . S
C6052 C6053 1.374 . S
C6053 H6033 0.950 . S
C6053 C6049 1.385 . S
C6053 C6052 1.374 . S
C6054 C6051 1.499 . S
C6054 C6055 1.373 . S
C6054 C6056 1.389 . S
C6055 H6034 0.950 . S
C6055 C6054 1.373 . S
C6055 C6071 1.377 . S
C6056 C6054 1.389 . S
C6056 C6057 1.524 . S
C6056 C6070 1.377 . S
C6057 C6056 1.524 . S
C6057 C6058 1.397 . S
C6057 C6062 1.363 . S
C6058 H6035 0.950 . S
C6058 C6057 1.397 . S
C6058 C6059 1.334 . S
C6059 H6036 0.950 . S
C6059 C6058 1.334 . S
C6059 C6060 1.287 . S
C6060 C6059 1.287 . S
C6060 C6061 1.524 . S
C6060 H6079 0.913 . S
C6061 H6037 0.950 . S
C6061 C6060 1.524 . S
C6061 C6062 1.415 . S
C6062 H6038 0.950 . S
C6062 C6057 1.363 . S
C6062 C6061 1.415 . S
C6063 H6039 0.951 . S
C6063 C6064 1.366 . S
C6063 C6065 1.388 . S
C6064 C6063 1.366 . S
C6064 C6068 1.385 . S
C6065 H6040 0.951 . S
C6065 C6063 1.388 . S
C6065 C6066 1.366 . S
C6066 C6065 1.366 . S
C6066 C6067 1.414 . S
C6066 C6069 1.499 . S
C6067 H6041 0.950 . S
C6067 C6066 1.414 . S
C6067 C6068 1.374 . S
C6068 H6042 0.950 . S
C6068 C6064 1.385 . S
C6068 C6067 1.374 . S
C6069 C6066 1.499 . S
C6069 C6070 1.373 . S
C6069 C6071 1.389 . S
C6070 H6043 0.950 . S
C6070 C6056 1.377 . S
C6070 C6069 1.373 . S
C6071 C6055 1.377 . S
C6071 C6069 1.389 . S
C6071 C6072 1.524 . S
C6072 C6071 1.524 . S
C6072 C6073 1.397 . S
C6072 C6077 1.363 . S
C6073 H6044 0.950 . S
C6073 C6072 1.397 . S
C6073 C6074 1.334 . S
C6074 H6045 0.950 . S
C6074 C6073 1.334 . S
C6074 C6075 1.287 . S
C6075 C6074 1.287 . S
C6075 C6076 1.524 . S
C6075 H6078 0.999 . S
C6076 H6046 0.950 . S
C6076 C6075 1.524 . S
C6076 C6077 1.415 . S
C6077 H6047 0.950 . S
C6077 C6072 1.363 . S
C6077 C6076 1.415 . S
H6078 C6075 0.999 . S
H6079 C6060 0.913 . S
H6080 C6098 0.951 . S
H6081 C6100 0.951 . S
H6082 C6102 0.950 . S
H6083 C6103 0.950 . S
H6084 C6105 0.950 . S
H6085 C6108 0.950 . S
H6086 C6109 0.950 . S
H6087 C6111 0.950 . S
H6088 C6112 0.950 . S
H6089 C6113 0.951 . S
H6090 C6115 0.951 . S
H6091 C6117 0.950 . S
H6092 C6118 0.950 . S
H6093 C6120 0.950 . S
H6094 C6123 0.950 . S
H6095 C6124 0.950 . S
H6096 C6126 0.950 . S
H6097 C6127 0.950 . S
C6098 H6080 0.951 . S
C6098 C6099 1.366 . S
C6098 C6100 1.388 . S
C6099 C6098 1.366 . S
C6099 C6103 1.385 . S
C6100 H6081 0.951 . S
C6100 C6098 1.388 . S
C6100 C6101 1.366 . S
C6101 C6100 1.366 . S
C6101 C6102 1.414 . S
C6101 C6104 1.499 . S
C6102 H6082 0.950 . S
C6102 C6101 1.414 . S
C6102 C6103 1.374 . S
C6103 H6083 0.950 . S
C6103 C6099 1.385 . S
C6103 C6102 1.374 . S
C6104 C6101 1.499 . S
C6104 C6105 1.373 . S
C6104 C6106 1.389 . S
C6105 H6084 0.950 . S
C6105 C6104 1.373 . S
C6105 C6121 1.377 . S
C6106 C6104 1.389 . S
C6106 C6107 1.524 . S
C6106 C6120 1.377 . S
C6107 C6106 1.524 . S
C6107 C6108 1.397 . S
C6107 C6112 1.363 . S
C6108 H6085 0.950 . S
C6108 C6107 1.397 . S
C6108 C6109 1.334 . S
C6109 H6086 0.950 . S
C6109 C6108 1.334 . S
C6109 C6110 1.287 . S
C6110 C6109 1.287 . S
C6110 C6111 1.524 . S
C6110 H6129 0.913 . S
C6111 H6087 0.950 . S
C6111 C6110 1.524 . S
C6111 C6112 1.415 . S
C6112 H6088 0.950 . S
C6112 C6107 1.363 . S
C6112 C6111 1.415 . S
C6113 H6089 0.951 . S
C6113 C6114 1.366 . S
C6113 C6115 1.388 . S
C6114 C6113 1.366 . S
C6114 C6118 1.385 . S
C6115 H6090 0.951 . S
C6115 C6113 1.388 . S
C6115 C6116 1.366 . S
C6116 C6115 1.366 . S
C6116 C6117 1.414 . S
C6116 C6119 1.499 . S
C6117 H6091 0.950 . S
C6117 C6116 1.414 . S
C6117 C6118 1.374 . S
C6118 H6092 0.950 . S
C6118 C6114 1.385 . S
C6118 C6117 1.374 . S
C6119 C6116 1.499 . S
C6119 C6120 1.373 . S
C6119 C6121 1.389 . S
C6120 H6093 0.950 . S
C6120 C6106 1.377 . S
C6120 C6119 1.373 . S
C6121 C6105 1.377 . S
C6121 C6119 1.389 . S
C6121 C6122 1.524 . S
C6122 C6121 1.524 . S
C6122 C6123 1.397 . S
C6122 C6127 1.363 . S
C6123 H6094 0.950 . S
C6123 C6122 1.397 . S
C6123 C6124 1.334 . S
C6124 H6095 0.950 . S
C6124 C6123 1.334 . S
C6124 C6125 1.287 . S
C6125 C6124 1.287 . S
C6125 C6126 1.524 . S
C6125 H6128 0.999 . S
C6126 H6096 0.950 . S
C6126 C6125 1.524 . S
C6126 C6127 1.415 . S
C6127 H6097 0.950 . S
C6127 C6122 1.363 . S
C6127 C6126 1.415 . S
H6128 C6125 0.999 . S
H6129 C6110 0.913 . S
H6130 C6148 0.951 . S
H6131 C6150 0.951 . S
H6132 C6152 0.950 . S
H6133 C6153 0.950 . S
H6134 C6155 0.950 . S
H6135 C6158 0.950 . S
H6136 C6159 0.950 . S
H6137 C6161 0.950 . S
H6138 C6162 0.950 . S
H6139 C6163 0.951 1_545 S
H6140 C6165 0.951 . S
H6141 C6167 0.950 . S
H6142 C6168 0.950 1_545 S
H6143 C6170 0.950 . S
H6144 C6173 0.950 . S
H6145 C6174 0.950 . S
H6146 C6176 0.950 . S
H6147 C6177 0.950 . S
C6148 H6130 0.951 . S
C6148 C6149 1.366 . S
C6148 C6150 1.388 . S
C6149 C6148 1.366 . S
C6149 C6153 1.385 . S
C6150 H6131 0.951 . S
C6150 C6148 1.388 . S
C6150 C6151 1.366 . S
C6151 C6150 1.366 . S
C6151 C6152 1.414 . S
C6151 C6154 1.499 . S
C6152 H6132 0.950 . S
C6152 C6151 1.414 . S
C6152 C6153 1.374 . S
C6153 H6133 0.950 . S
C6153 C6149 1.385 . S
C6153 C6152 1.374 . S
C6154 C6151 1.499 . S
C6154 C6155 1.373 . S
C6154 C6156 1.389 . S
C6155 H6134 0.950 . S
C6155 C6154 1.373 . S
C6155 C6171 1.377 . S
C6156 C6154 1.389 . S
C6156 C6157 1.524 . S
C6156 C6170 1.377 . S
C6157 C6156 1.524 . S
C6157 C6158 1.397 . S
C6157 C6162 1.363 . S
C6158 H6135 0.950 . S
C6158 C6157 1.397 . S
C6158 C6159 1.334 . S
C6159 H6136 0.950 . S
C6159 C6158 1.334 . S
C6159 C6160 1.287 . S
C6160 C6159 1.287 . S
C6160 C6161 1.524 . S
C6160 H6179 0.913 . S
C6161 H6137 0.950 . S
C6161 C6160 1.524 . S
C6161 C6162 1.415 . S
C6162 H6138 0.950 . S
C6162 C6157 1.363 . S
C6162 C6161 1.415 . S
C6163 H6139 0.951 1_565 S
C6163 C6164 1.366 1_565 S
C6163 C6165 1.388 . S
C6164 C6163 1.366 1_545 S
C6164 C6168 1.385 1_545 S
C6165 H6140 0.951 . S
C6165 C6163 1.388 . S
C6165 C6166 1.366 . S
C6166 C6165 1.366 . S
C6166 C6167 1.414 . S
C6166 C6169 1.499 . S
C6167 H6141 0.950 . S
C6167 C6166 1.414 . S
C6167 C6168 1.374 . S
C6168 H6142 0.950 1_565 S
C6168 C6164 1.385 1_565 S
C6168 C6167 1.374 . S
C6169 C6166 1.499 . S
C6169 C6170 1.373 . S
C6169 C6171 1.389 . S
C6170 H6143 0.950 . S
C6170 C6156 1.377 . S
C6170 C6169 1.373 . S
C6171 C6155 1.377 . S
C6171 C6169 1.389 . S
C6171 C6172 1.524 . S
C6172 C6171 1.524 . S
C6172 C6173 1.397 . S
C6172 C6177 1.363 . S
C6173 H6144 0.950 . S
C6173 C6172 1.397 . S
C6173 C6174 1.334 . S
C6174 H6145 0.950 . S
C6174 C6173 1.334 . S
C6174 C6175 1.287 . S
C6175 C6174 1.287 . S
C6175 C6176 1.524 . S
C6175 H6178 0.999 . S
C6176 H6146 0.950 . S
C6176 C6175 1.524 . S
C6176 C6177 1.415 . S
C6177 H6147 0.950 . S
C6177 C6172 1.363 . S
C6177 C6176 1.415 . S
H6178 C6175 0.999 . S
H6179 C6160 0.913 . S
H6180 C6198 0.951 . S
H6181 C6200 0.951 . S
H6182 C6202 0.950 . S
H6183 C6203 0.950 . S
H6184 C6205 0.950 . S
H6185 C6208 0.950 . S
H6186 C6209 0.950 . S
H6187 C6211 0.950 . S
H6188 C6212 0.950 . S
H6189 C6213 0.951 . S
H6190 C6215 0.951 . S
H6191 C6217 0.950 . S
H6192 C6218 0.950 . S
H6193 C6220 0.950 . S
H6194 C6223 0.950 . S
H6195 C6224 0.950 . S
H6196 C6226 0.950 . S
H6197 C6227 0.950 . S
C6198 H6180 0.951 . S
C6198 C6199 1.366 . S
C6198 C6200 1.388 . S
C6199 C6198 1.366 . S
C6199 C6203 1.385 . S
C6200 H6181 0.951 . S
C6200 C6198 1.388 . S
C6200 C6201 1.366 . S
C6201 C6200 1.366 . S
C6201 C6202 1.414 . S
C6201 C6204 1.499 . S
C6202 H6182 0.950 . S
C6202 C6201 1.414 . S
C6202 C6203 1.374 . S
C6203 H6183 0.950 . S
C6203 C6199 1.385 . S
C6203 C6202 1.374 . S
C6204 C6201 1.499 . S
C6204 C6205 1.373 . S
C6204 C6206 1.389 . S
C6205 H6184 0.950 . S
C6205 C6204 1.373 . S
C6205 C6221 1.377 . S
C6206 C6204 1.389 . S
C6206 C6207 1.524 . S
C6206 C6220 1.377 . S
C6207 C6206 1.524 . S
C6207 C6208 1.397 . S
C6207 C6212 1.363 . S
C6208 H6185 0.950 . S
C6208 C6207 1.397 . S
C6208 C6209 1.334 . S
C6209 H6186 0.950 . S
C6209 C6208 1.334 . S
C6209 C6210 1.287 . S
C6210 C6209 1.287 . S
C6210 C6211 1.524 . S
C6210 H6229 0.913 . S
C6211 H6187 0.950 . S
C6211 C6210 1.524 . S
C6211 C6212 1.415 . S
C6212 H6188 0.950 . S
C6212 C6207 1.363 . S
C6212 C6211 1.415 . S
C6213 H6189 0.951 . S
C6213 C6214 1.366 . S
C6213 C6215 1.388 . S
C6214 C6213 1.366 . S
C6214 C6218 1.385 . S
C6215 H6190 0.951 . S
C6215 C6213 1.388 . S
C6215 C6216 1.366 . S
C6216 C6215 1.366 . S
C6216 C6217 1.414 . S
C6216 C6219 1.499 . S
C6217 H6191 0.950 . S
C6217 C6216 1.414 . S
C6217 C6218 1.374 . S
C6218 H6192 0.950 . S
C6218 C6214 1.385 . S
C6218 C6217 1.374 . S
C6219 C6216 1.499 . S
C6219 C6220 1.373 . S
C6219 C6221 1.389 . S
C6220 H6193 0.950 . S
C6220 C6206 1.377 . S
C6220 C6219 1.373 . S
C6221 C6205 1.377 . S
C6221 C6219 1.389 . S
C6221 C6222 1.524 . S
C6222 C6221 1.524 . S
C6222 C6223 1.397 . S
C6222 C6227 1.363 . S
C6223 H6194 0.950 . S
C6223 C6222 1.397 . S
C6223 C6224 1.334 . S
C6224 H6195 0.950 . S
C6224 C6223 1.334 . S
C6224 C6225 1.287 . S
C6225 C6224 1.287 . S
C6225 C6226 1.524 . S
C6225 H6228 0.999 . S
C6226 H6196 0.950 . S
C6226 C6225 1.524 . S
C6226 C6227 1.415 . S
C6227 H6197 0.950 . S
C6227 C6222 1.363 . S
C6227 C6226 1.415 . S
H6228 C6225 0.999 . S
H6229 C6210 0.913 . S
H6230 C6248 0.951 . S
H6231 C6250 0.951 . S
H6232 C6252 0.970 . S
H6233 C6253 0.950 . S
H6234 C6255 0.950 . S
H6235 C6258 0.950 . S
H6236 C6259 0.950 . S
H6237 C6261 0.950 . S
H6238 C6262 0.950 . S
H6239 C6263 0.949 . S
H6240 C6265 0.994 . S
H6241 C6267 0.950 . S
H6242 C6268 0.950 . S
H6243 C6270 0.950 . S
H6244 C6273 0.950 . S
H6245 C6274 0.950 . S
H6246 C6276 0.950 . S
H6247 C6277 0.950 . S
C6248 H6230 0.951 . S
C6248 C6249 1.366 . S
C6248 C6250 1.388 . S
C6249 C6248 1.366 . S
C6249 C6253 1.385 . S
C6250 H6231 0.951 . S
C6250 C6248 1.388 . S
C6250 C6251 1.366 . S
C6251 C6250 1.366 . S
C6251 C6252 1.414 . S
C6251 C6254 1.499 . S
C6252 H6232 0.970 . S
C6252 C6251 1.414 . S
C6252 C6253 1.374 . S
C6253 H6233 0.950 . S
C6253 C6249 1.385 . S
C6253 C6252 1.374 . S
C6254 C6251 1.499 . S
C6254 C6255 1.373 . S
C6254 C6256 1.389 . S
C6255 H6234 0.950 . S
C6255 C6254 1.373 . S
C6255 C6271 1.377 . S
C6256 C6254 1.389 . S
C6256 C6257 1.524 . S
C6256 C6270 1.377 . S
C6257 C6256 1.524 . S
C6257 C6258 1.397 1_554 S
C6257 C6262 1.363 . S
C6258 H6235 0.950 . S
C6258 C6257 1.397 1_556 S
C6258 C6259 1.334 . S
C6259 H6236 0.950 . S
C6259 C6258 1.334 . S
C6259 C6260 1.287 . S
C6260 C6259 1.287 . S
C6260 C6261 1.524 1_556 S
C6260 H6279 0.913 . S
C6261 H6237 0.950 . S
C6261 C6260 1.524 1_554 S
C6261 C6262 1.415 . S
C6262 H6238 0.950 . S
C6262 C6257 1.363 . S
C6262 C6261 1.415 . S
C6263 H6239 0.949 . S
C6263 C6264 1.366 . S
C6263 C6265 1.388 . S
C6264 C6263 1.366 . S
C6264 C6268 1.385 . S
C6265 H6240 0.994 . S
C6265 C6263 1.388 . S
C6265 C6266 1.366 . S
C6266 C6265 1.366 . S
C6266 C6267 1.414 . S
C6266 C6269 1.499 . S
C6267 H6241 0.950 . S
C6267 C6266 1.414 . S
C6267 C6268 1.374 . S
C6268 H6242 0.950 . S
C6268 C6264 1.385 . S
C6268 C6267 1.374 . S
C6269 C6266 1.499 . S
C6269 C6270 1.373 . S
C6269 C6271 1.389 . S
C6270 H6243 0.950 . S
C6270 C6256 1.377 . S
C6270 C6269 1.373 . S
C6271 C6255 1.377 . S
C6271 C6269 1.389 . S
C6271 C6272 1.524 . S
C6272 C6271 1.524 . S
C6272 C6273 1.397 . S
C6272 C6277 1.363 . S
C6273 H6244 0.950 . S
C6273 C6272 1.397 . S
C6273 C6274 1.334 . S
C6274 H6245 0.950 . S
C6274 C6273 1.334 . S
C6274 C6275 1.287 . S
C6275 C6274 1.287 . S
C6275 C6276 1.524 . S
C6275 H6278 0.999 . S
C6276 H6246 0.950 . S
C6276 C6275 1.524 . S
C6276 C6277 1.415 . S
C6277 H6247 0.950 . S
C6277 C6272 1.363 . S
C6277 C6276 1.415 . S
H6278 C6275 0.999 . S
H6279 C6260 0.913 . S
H6280 C6298 0.951 . S
H6281 C6300 0.951 . S
H6282 C6302 0.950 . S
H6283 C6303 0.950 . S
H6284 C6305 0.950 . S
H6285 C6308 0.950 . S
H6286 C6309 0.950 . S
H6287 C6311 0.950 . S
H6288 C6312 0.950 . S
H6289 C6313 0.951 . S
H6290 C6315 0.951 . S
H6291 C6317 0.950 . S
H6292 C6318 0.950 . S
H6293 C6320 0.950 . S
H6294 C6323 0.950 . S
H6295 C6324 0.950 . S
H6296 C6326 0.950 . S
H6297 C6327 0.950 . S
C6298 H6280 0.951 . S
C6298 C6299 1.366 . S
C6298 C6300 1.388 . S
C6299 C6298 1.366 . S
C6299 C6303 1.385 . S
C6300 H6281 0.951 . S
C6300 C6298 1.388 . S
C6300 C6301 1.366 . S
C6301 C6300 1.366 . S
C6301 C6302 1.414 . S
C6301 C6304 1.499 . S
C6302 H6282 0.950 . S
C6302 C6301 1.414 . S
C6302 C6303 1.374 . S
C6303 H6283 0.950 . S
C6303 C6299 1.385 . S
C6303 C6302 1.374 . S
C6304 C6301 1.499 . S
C6304 C6305 1.373 . S
C6304 C6306 1.389 . S
C6305 H6284 0.950 . S
C6305 C6304 1.373 . S
C6305 C6321 1.377 . S
C6306 C6304 1.389 . S
C6306 C6307 1.524 . S
C6306 C6320 1.377 . S
C6307 C6306 1.524 . S
C6307 C6308 1.397 . S
C6307 C6312 1.363 . S
C6308 H6285 0.950 . S
C6308 C6307 1.397 . S
C6308 C6309 1.334 . S
C6309 H6286 0.950 . S
C6309 C6308 1.334 . S
C6309 C6310 1.287 . S
C6310 C6309 1.287 . S
C6310 C6311 1.524 . S
C6310 H6329 0.913 . S
C6311 H6287 0.950 . S
C6311 C6310 1.524 . S
C6311 C6312 1.415 . S
C6312 H6288 0.950 . S
C6312 C6307 1.363 . S
C6312 C6311 1.415 . S
C6313 H6289 0.951 . S
C6313 C6314 1.366 . S
C6313 C6315 1.388 . S
C6314 C6313 1.366 . S
C6314 C6318 1.385 . S
C6315 H6290 0.951 . S
C6315 C6313 1.388 . S
C6315 C6316 1.366 . S
C6316 C6315 1.366 . S
C6316 C6317 1.414 . S
C6316 C6319 1.499 . S
C6317 H6291 0.950 . S
C6317 C6316 1.414 . S
C6317 C6318 1.374 . S
C6318 H6292 0.950 . S
C6318 C6314 1.385 . S
C6318 C6317 1.374 . S
C6319 C6316 1.499 . S
C6319 C6320 1.373 . S
C6319 C6321 1.389 . S
C6320 H6293 0.950 . S
C6320 C6306 1.377 . S
C6320 C6319 1.373 . S
C6321 C6305 1.377 . S
C6321 C6319 1.389 . S
C6321 C6322 1.524 . S
C6322 C6321 1.524 . S
C6322 C6323 1.397 . S
C6322 C6327 1.363 . S
C6323 H6294 0.950 . S
C6323 C6322 1.397 . S
C6323 C6324 1.334 . S
C6324 H6295 0.950 . S
C6324 C6323 1.334 . S
C6324 C6325 1.287 . S
C6325 C6324 1.287 . S
C6325 C6326 1.524 . S
C6325 H6328 0.999 . S
C6326 H6296 0.950 . S
C6326 C6325 1.524 . S
C6326 C6327 1.415 . S
C6327 H6297 0.950 . S
C6327 C6322 1.363 . S
C6327 C6326 1.415 . S
H6328 C6325 0.999 . S
H6329 C6310 0.913 . S
H6330 C6348 0.951 . S
H6331 C6350 0.951 . S
H6332 C6352 0.950 . S
H6333 C6353 0.950 . S
H6334 C6355 0.950 . S
H6335 C6358 0.950 . S
H6336 C6359 0.950 . S
H6337 C6361 0.950 . S
H6338 C6362 0.950 . S
H6339 C6363 0.951 . S
H6340 C6365 0.951 . S
H6341 C6367 0.950 . S
H6342 C6368 0.950 . S
H6343 C6370 0.950 . S
H6344 C6373 0.950 . S
H6345 C6374 0.950 . S
H6346 C6376 0.950 . S
H6347 C6377 0.950 . S
C6348 H6330 0.951 . S
C6348 C6349 1.366 . S
C6348 C6350 1.388 . S
C6349 C6348 1.366 . S
C6349 C6353 1.385 . S
C6350 H6331 0.951 . S
C6350 C6348 1.388 . S
C6350 C6351 1.366 . S
C6351 C6350 1.366 . S
C6351 C6352 1.414 . S
C6351 C6354 1.499 . S
C6352 H6332 0.950 . S
C6352 C6351 1.414 . S
C6352 C6353 1.374 . S
C6353 H6333 0.950 . S
C6353 C6349 1.385 . S
C6353 C6352 1.374 . S
C6354 C6351 1.499 . S
C6354 C6355 1.373 . S
C6354 C6356 1.389 . S
C6355 H6334 0.950 . S
C6355 C6354 1.373 . S
C6355 C6371 1.377 . S
C6356 C6354 1.389 . S
C6356 C6357 1.524 . S
C6356 C6370 1.377 . S
C6357 C6356 1.524 . S
C6357 C6358 1.397 . S
C6357 C6362 1.363 . S
C6358 H6335 0.950 . S
C6358 C6357 1.397 . S
C6358 C6359 1.334 . S
C6359 H6336 0.950 . S
C6359 C6358 1.334 . S
C6359 C6360 1.287 . S
C6360 C6359 1.287 . S
C6360 C6361 1.524 . S
C6360 H6379 0.913 . S
C6361 H6337 0.950 . S
C6361 C6360 1.524 . S
C6361 C6362 1.415 . S
C6362 H6338 0.950 . S
C6362 C6357 1.363 . S
C6362 C6361 1.415 . S
C6363 H6339 0.951 . S
C6363 C6364 1.366 . S
C6363 C6365 1.388 . S
C6364 C6363 1.366 . S
C6364 C6368 1.385 . S
C6365 H6340 0.951 . S
C6365 C6363 1.388 . S
C6365 C6366 1.366 . S
C6366 C6365 1.366 . S
C6366 C6367 1.414 . S
C6366 C6369 1.499 . S
C6367 H6341 0.950 . S
C6367 C6366 1.414 . S
C6367 C6368 1.374 . S
C6368 H6342 0.950 . S
C6368 C6364 1.385 . S
C6368 C6367 1.374 . S
C6369 C6366 1.499 . S
C6369 C6370 1.373 . S
C6369 C6371 1.389 . S
C6370 H6343 0.950 . S
C6370 C6356 1.377 . S
C6370 C6369 1.373 . S
C6371 C6355 1.377 . S
C6371 C6369 1.389 . S
C6371 C6372 1.524 1_554 S
C6372 C6371 1.524 1_556 S
C6372 C6373 1.397 . S
C6372 C6377 1.363 . S
C6373 H6344 0.950 . S
C6373 C6372 1.397 . S
C6373 C6374 1.334 . S
C6374 H6345 0.950 . S
C6374 C6373 1.334 . S
C6374 C6375 1.287 . S
C6375 C6374 1.287 . S
C6375 C6376 1.524 . S
C6375 H6378 0.999 . S
C6376 H6346 0.950 . S
C6376 C6375 1.524 . S
C6376 C6377 1.415 . S
C6377 H6347 0.950 . S
C6377 C6372 1.363 . S
C6377 C6376 1.415 . S
H6378 C6375 0.999 . S
H6379 C6360 0.913 . S
H6380 C6398 0.951 1_545 S
H6381 C6400 0.951 . S
H6382 C6402 0.950 . S
H6383 C6403 0.950 . S
H6384 C6405 0.950 . S
H6385 C6408 0.950 . S
H6386 C6409 0.950 . S
H6387 C6411 0.950 . S
H6388 C6412 0.950 . S
H6389 C6413 0.951 . S
H6390 C6415 0.951 . S
H6391 C6417 0.950 . S
H6392 C6418 0.950 . S
H6393 C6420 0.950 . S
H6394 C6423 0.950 . S
H6395 C6424 0.950 . S
H6396 C6426 0.950 . S
H6397 C6427 0.950 . S
C6398 H6380 0.951 1_565 S
C6398 C6399 1.366 1_565 S
C6398 C6400 1.388 . S
C6399 C6398 1.366 1_545 S
C6399 C6403 1.384 1_545 S
C6400 H6381 0.951 . S
C6400 C6398 1.388 . S
C6400 C6401 1.366 . S
C6401 C6400 1.366 . S
C6401 C6402 1.414 . S
C6401 C6404 1.499 . S
C6402 H6382 0.950 . S
C6402 C6401 1.414 . S
C6402 C6403 1.374 . S
C6403 H6383 0.950 . S
C6403 C6399 1.384 1_565 S
C6403 C6402 1.374 . S
C6404 C6401 1.499 . S
C6404 C6405 1.373 . S
C6404 C6406 1.389 . S
C6405 H6384 0.950 . S
C6405 C6404 1.373 . S
C6405 C6421 1.377 . S
C6406 C6404 1.389 . S
C6406 C6407 1.524 . S
C6406 C6420 1.377 . S
C6407 C6406 1.524 . S
C6407 C6408 1.397 . S
C6407 C6412 1.363 . S
C6408 H6385 0.950 . S
C6408 C6407 1.397 . S
C6408 C6409 1.334 . S
C6409 H6386 0.950 . S
C6409 C6408 1.334 . S
C6409 C6410 1.287 . S
C6410 C6409 1.287 . S
C6410 C6411 1.524 . S
C6410 H6429 0.913 . S
C6411 H6387 0.950 . S
C6411 C6410 1.524 . S
C6411 C6412 1.415 . S
C6412 H6388 0.950 . S
C6412 C6407 1.363 . S
C6412 C6411 1.415 . S
C6413 H6389 0.951 . S
C6413 C6414 1.366 . S
C6413 C6415 1.388 . S
C6414 C6413 1.366 . S
C6414 C6418 1.385 . S
C6415 H6390 0.951 . S
C6415 C6413 1.388 . S
C6415 C6416 1.366 . S
C6416 C6415 1.366 . S
C6416 C6417 1.414 . S
C6416 C6419 1.499 . S
C6417 H6391 0.950 . S
C6417 C6416 1.414 . S
C6417 C6418 1.374 . S
C6418 H6392 0.950 . S
C6418 C6414 1.385 . S
C6418 C6417 1.374 . S
C6419 C6416 1.499 . S
C6419 C6420 1.373 . S
C6419 C6421 1.389 . S
C6420 H6393 0.950 . S
C6420 C6406 1.377 . S
C6420 C6419 1.373 . S
C6421 C6405 1.377 . S
C6421 C6419 1.389 . S
C6421 C6422 1.524 . S
C6422 C6421 1.524 . S
C6422 C6423 1.397 . S
C6422 C6427 1.363 . S
C6423 H6394 0.950 . S
C6423 C6422 1.397 . S
C6423 C6424 1.334 . S
C6424 H6395 0.950 . S
C6424 C6423 1.334 . S
C6424 C6425 1.287 . S
C6425 C6424 1.287 . S
C6425 C6426 1.524 . S
C6425 H6428 0.999 . S
C6426 H6396 0.950 . S
C6426 C6425 1.524 . S
C6426 C6427 1.415 . S
C6427 H6397 0.950 . S
C6427 C6422 1.363 . S
C6427 C6426 1.415 . S
H6428 C6425 0.999 . S
H6429 C6410 0.913 . S
H6430 C6448 0.951 . S
H6431 C6450 0.951 . S
H6432 C6452 0.950 . S
H6433 C6453 0.950 . S
H6434 C6455 0.950 . S
H6435 C6458 0.950 . S
H6436 C6459 0.950 . S
H6437 C6461 0.950 . S
H6438 C6462 0.950 . S
H6439 C6463 0.951 . S
H6440 C6465 0.951 . S
H6441 C6467 0.950 . S
H6442 C6468 0.950 . S
H6443 C6470 0.950 . S
H6444 C6473 0.950 . S
H6445 C6474 0.950 . S
H6446 C6476 0.950 . S
H6447 C6477 0.950 . S
C6448 H6430 0.951 . S
C6448 C6449 1.366 . S
C6448 C6450 1.388 . S
C6449 C6448 1.366 . S
C6449 C6453 1.385 . S
C6450 H6431 0.951 . S
C6450 C6448 1.388 . S
C6450 C6451 1.366 . S
C6451 C6450 1.366 . S
C6451 C6452 1.414 . S
C6451 C6454 1.499 . S
C6452 H6432 0.950 . S
C6452 C6451 1.414 . S
C6452 C6453 1.374 . S
C6453 H6433 0.950 . S
C6453 C6449 1.385 . S
C6453 C6452 1.374 . S
C6454 C6451 1.499 . S
C6454 C6455 1.373 . S
C6454 C6456 1.389 . S
C6455 H6434 0.950 . S
C6455 C6454 1.373 . S
C6455 C6471 1.377 . S
C6456 C6454 1.389 . S
C6456 C6457 1.524 . S
C6456 C6470 1.377 . S
C6457 C6456 1.524 . S
C6457 C6458 1.397 . S
C6457 C6462 1.363 . S
C6458 H6435 0.950 . S
C6458 C6457 1.397 . S
C6458 C6459 1.334 . S
C6459 H6436 0.950 . S
C6459 C6458 1.334 . S
C6459 C6460 1.287 . S
C6460 C6459 1.287 . S
C6460 C6461 1.524 . S
C6460 H6479 0.913 . S
C6461 H6437 0.950 . S
C6461 C6460 1.524 . S
C6461 C6462 1.415 . S
C6462 H6438 0.950 . S
C6462 C6457 1.363 . S
C6462 C6461 1.415 . S
C6463 H6439 0.951 . S
C6463 C6464 1.366 . S
C6463 C6465 1.388 . S
C6464 C6463 1.366 . S
C6464 C6468 1.385 . S
C6465 H6440 0.951 . S
C6465 C6463 1.388 . S
C6465 C6466 1.366 . S
C6466 C6465 1.366 . S
C6466 C6467 1.414 . S
C6466 C6469 1.499 . S
C6467 H6441 0.950 . S
C6467 C6466 1.414 . S
C6467 C6468 1.374 . S
C6468 H6442 0.950 . S
C6468 C6464 1.385 . S
C6468 C6467 1.374 . S
C6469 C6466 1.499 . S
C6469 C6470 1.373 . S
C6469 C6471 1.389 . S
C6470 H6443 0.950 . S
C6470 C6456 1.377 . S
C6470 C6469 1.373 . S
C6471 C6455 1.377 . S
C6471 C6469 1.389 . S
C6471 C6472 1.524 . S
C6472 C6471 1.524 . S
C6472 C6473 1.397 . S
C6472 C6477 1.363 . S
C6473 H6444 0.950 . S
C6473 C6472 1.397 . S
C6473 C6474 1.334 . S
C6474 H6445 0.950 . S
C6474 C6473 1.334 . S
C6474 C6475 1.287 . S
C6475 C6474 1.287 . S
C6475 C6476 1.524 . S
C6475 H6478 0.999 . S
C6476 H6446 0.950 . S
C6476 C6475 1.524 . S
C6476 C6477 1.415 . S
C6477 H6447 0.950 . S
C6477 C6472 1.363 . S
C6477 C6476 1.415 . S
H6478 C6475 0.999 . S
H6479 C6460 0.913 . S
C1699 C105 1.640 . S
C1714 C403 1.511 . S
C1749 C65 2.234 . S
C1764 C486 2.163 . S
C1799 C73 1.455 . S
C1814 C571 1.375 . S
C1864 C651 1.582 . S
C1849 C92 1.714 . S
C1899 C17 1.657 . S
C1914 C735 1.572 . S
C1964 C828 0.901 . S
C1949 C37 0.947 . S
C2014 C906 0.685 . S
C1999 C49 0.698 . S
C2049 C8 1.298 . S
C2064 C991 1.165 . S
C2114 C402 1.941 . S
C2099 C231 1.993 . S
C2149 C241 0.598 . S
C2164 C483 0.646 . S
C2214 C570 1.204 . S
C2199 C273 1.201 . S
C2264 C655 1.466 . S
C2249 C171 1.565 1_556 S
C2299 C227 2.031 . S
C2314 C739 1.868 . S
C2364 C831 1.070 . S
C2349 C245 1.119 . S
C2414 C903 0.750 . S
C2399 C269 0.751 . S
C2464 C990 1.330 . S
C2449 C175 1.413 . S
C2514 C399 1.434 . S
C2499 C162 1.541 . S
C2549 C289 2.050 . S
C2564 C1074 1.966 . S
C2614 C1148 2.141 . S
C2599 C330 2.312 . S
C2664 C1243 0.512 . S
C2649 C317 0.349 . S
C2699 C120 0.670 . S
C2714 C987 0.678 . S
C2749 C134 1.464 . S
C2764 C567 1.405 . S
C2799 C331 2.317 . S
C2814 C1326 2.232 . S
C2864 C1411 0.665 . S
C2849 C303 0.621 . S
C2914 C392 1.547 1_565 S
C2899 C59 1.658 . S
C2964 C1419 2.206 . S
C2949 C107 2.264 . S
C2999 C91 1.517 . S
C3014 C560 1.439 . S
C3049 C78 1.754 . S
C3064 C1332 1.618 . S
C3114 C744 1.595 . S
C3099 C7 1.619 . S
C3149 C51 0.987 . S
C3164 C1155 0.932 . S
C3214 C915 0.740 1_566 S
C3199 C31 0.751 . S
C3264 C1484 1.201 . S
C3249 C22 1.315 . S
C3314 C411 1.985 . S
C3299 C143 2.083 . S
C3364 C1416 0.673 . S
C3349 C315 0.654 . S
C3399 C115 1.282 . S
C3414 C579 1.233 . S
C3449 C287 1.599 . S
C3464 C1316 1.516 . S
C3499 C147 1.981 . S
C3514 C728 1.916 . S
C3564 C1158 1.100 . S
C3549 C311 1.181 . S
C3599 C119 0.791 . S
C3614 C912 0.784 . S
C3649 C283 1.477 . S
C3664 C1503 1.386 . S
C3699 C190 1.559 . S
C3714 C408 1.447 . S
C3749 C177 2.086 . S
C3764 C1083 2.011 . S
C3799 C260 2.348 . S
C3814 C823 2.182 . S
C3849 C247 0.413 . S
C3864 C1232 0.527 . S
C3914 C1500 0.679 . S
C3899 C274 0.710 . S
C3949 C218 1.476 . S
C3964 C576 1.418 . S
C4014 C663 2.278 . S
C3999 C261 2.360 . S
C4064 C476 0.694 . S
C4049 C205 0.673 . S
C4099 C77 1.640 . S
C4114 C1579 1.512 . S
C4164 C1410 2.162 . S
C4149 C93 2.234 . S
C4199 C101 1.455 . S
C4214 C1663 1.375 . S
C4249 C64 1.715 . S
C4264 C1323 1.582 . S
C4299 C45 1.657 . S
C4314 C1071 1.572 . S
C4364 C1164 0.902 . S
C4349 C9 0.947 . S
C4414 C1242 0.685 . S
C4399 C21 0.698 . S
C4464 C1495 1.165 . S
C4449 C36 1.297 . S
C4514 C1578 1.941 . S
C4499 C259 1.994 . S
C4549 C185 0.598 . S
C4564 C1407 0.647 . S
C4614 C1662 1.204 . S
C4599 C203 1.201 . S
C4664 C1327 1.466 . S
C4649 C213 1.565 . S
C4714 C1075 1.868 . S
C4699 C255 2.031 . S
C4749 C189 1.119 . S
C4764 C1167 1.071 . S
C4814 C1239 0.751 . S
C4799 C199 0.751 . S
C4849 C217 1.413 . S
C4864 C1494 1.330 . S
C4914 C1575 1.434 . S
C4899 C316 1.541 . S
C4949 C135 2.049 . S
C4964 C738 1.969 . S
C5014 C812 2.142 . S
C4999 C148 2.318 . S
C5064 C907 0.516 . S
C5049 C163 0.349 . S
C5114 C1491 0.679 . S
C5099 C302 0.670 . S
C5149 C288 1.458 1_554 S
C5164 C1659 1.399 . S
C5214 C654 2.232 . S
C5199 C149 2.310 . S
C5264 C487 0.662 . S
C5249 C121 0.621 . S
C5299 C87 1.657 . S
C5314 C1568 1.546 . S
C5364 C495 2.206 . S
C5349 C79 2.264 . S
C5399 C63 1.517 . S
C5414 C1652 1.438 . S
C5449 C106 1.753 . S
C5464 C660 1.620 . S
C5499 C35 1.620 . S
C5514 C1080 1.594 . S
C5564 C819 0.931 . S
C5549 C23 0.985 . S
C5599 C3 0.750 . S
C5614 C1251 0.751 . S
C5649 C50 1.313 . S
C5664 C980 1.200 . S
C5714 C1587 1.985 . S
C5699 C325 2.083 . S
C5749 C161 0.653 . S
C5764 C492 0.675 . S
C5814 C1671 1.233 . S
C5799 C297 1.282 . S
C5849 C133 1.600 . S
C5864 C644 1.524 . S
C5899 C329 1.982 . S
C5914 C1064 1.918 . S
C5964 C822 1.100 . S
C5949 C157 1.181 . S
C5999 C301 0.793 . S
C6014 C1248 0.800 . S
C6064 C999 1.379 . S
C6049 C129 1.476 . S
C6114 C1584 1.448 . S
C6099 C246 1.559 . S
C6164 C747 2.012 1_655 S
C6149 C219 2.086 . S
C6199 C232 2.348 . S
C6214 C1159 2.181 . S
C6264 C896 0.528 . S
C6249 C191 0.413 . S
C6299 C204 0.671 . S
C6314 C996 0.676 . S
C6349 C176 1.476 . S
C6364 C1668 1.419 . S
C6414 C1335 2.278 . S
C6399 C233 2.361 . S
C6464 C1400 0.694 . S
C6449 C275 0.673 . S
