# Generated by pormake.
# Topology cor, (4,6)-cn, num edge types: 1
# Building blocks:
#     Node 0, Type 0, BuildingBlock: CEKHIL_clean_sbu_0, # of connection points: 4
#     Node 1, Type 0, BuildingBlock: CEKHIL_clean_sbu_0, # of connection points: 4
#     Node 2, Type 0, BuildingBlock: CEKHIL_clean_sbu_0, # of connection points: 4
#     Node 3, Type 0, BuildingBlock: CEKHIL_clean_sbu_0, # of connection points: 4
#     Node 4, Type 0, BuildingBlock: CEKHIL_clean_sbu_0, # of connection points: 4
#     Node 5, Type 0, BuildingBlock: CEKHIL_clean_sbu_0, # of connection points: 4
#     Node 6, Type 0, BuildingBlock: CEKHIL_clean_sbu_0, # of connection points: 4
#     Node 7, Type 0, BuildingBlock: CEKHIL_clean_sbu_0, # of connection points: 4
#     Node 8, Type 0, BuildingBlock: CEKHIL_clean_sbu_0, # of connection points: 4
#     Node 9, Type 0, BuildingBlock: CEKHIL_clean_sbu_0, # of connection points: 4
#     Node 10, Type 0, BuildingBlock: CEKHIL_clean_sbu_0, # of connection points: 4
#     Node 11, Type 0, BuildingBlock: CEKHIL_clean_sbu_0, # of connection points: 4
#     Node 12, Type 0, BuildingBlock: CEKHIL_clean_sbu_0, # of connection points: 4
#     Node 13, Type 0, BuildingBlock: CEKHIL_clean_sbu_0, # of connection points: 4
#     Node 14, Type 0, BuildingBlock: CEKHIL_clean_sbu_0, # of connection points: 4
#     Node 15, Type 0, BuildingBlock: CEKHIL_clean_sbu_0, # of connection points: 4
#     Node 16, Type 0, BuildingBlock: CEKHIL_clean_sbu_0, # of connection points: 4
#     Node 17, Type 0, BuildingBlock: CEKHIL_clean_sbu_0, # of connection points: 4
#     Node 18, Type 1, BuildingBlock: MIDCAF_clean_sbu_0, # of connection points: 6
#     Node 19, Type 1, BuildingBlock: MIDCAF_clean_sbu_0, # of connection points: 6
#     Node 20, Type 1, BuildingBlock: MIDCAF_clean_sbu_0, # of connection points: 6
#     Node 21, Type 1, BuildingBlock: MIDCAF_clean_sbu_0, # of connection points: 6
#     Node 22, Type 1, BuildingBlock: MIDCAF_clean_sbu_0, # of connection points: 6
#     Node 23, Type 1, BuildingBlock: MIDCAF_clean_sbu_0, # of connection points: 6
#     Node 24, Type 1, BuildingBlock: MIDCAF_clean_sbu_0, # of connection points: 6
#     Node 25, Type 1, BuildingBlock: MIDCAF_clean_sbu_0, # of connection points: 6
#     Node 26, Type 1, BuildingBlock: MIDCAF_clean_sbu_0, # of connection points: 6
#     Node 27, Type 1, BuildingBlock: MIDCAF_clean_sbu_0, # of connection points: 6
#     Node 28, Type 1, BuildingBlock: MIDCAF_clean_sbu_0, # of connection points: 6
#     Node 29, Type 1, BuildingBlock: MIDCAF_clean_sbu_0, # of connection points: 6
#     Edge 30, Type (0, 1), BuildingBlock: EZIPEK_clean_linker_0, # of connection points: 2
#     Edge 31, Type (0, 1), BuildingBlock: EZIPEK_clean_linker_0, # of connection points: 2
#     Edge 32, Type (0, 1), BuildingBlock: EZIPEK_clean_linker_0, # of connection points: 2
#     Edge 33, Type (0, 1), BuildingBlock: EZIPEK_clean_linker_0, # of connection points: 2
#     Edge 34, Type (0, 1), BuildingBlock: EZIPEK_clean_linker_0, # of connection points: 2
#     Edge 35, Type (0, 1), BuildingBlock: EZIPEK_clean_linker_0, # of connection points: 2
#     Edge 36, Type (0, 1), BuildingBlock: EZIPEK_clean_linker_0, # of connection points: 2
#     Edge 37, Type (0, 1), BuildingBlock: EZIPEK_clean_linker_0, # of connection points: 2
#     Edge 38, Type (0, 1), BuildingBlock: EZIPEK_clean_linker_0, # of connection points: 2
#     Edge 39, Type (0, 1), BuildingBlock: EZIPEK_clean_linker_0, # of connection points: 2
#     Edge 40, Type (0, 1), BuildingBlock: EZIPEK_clean_linker_0, # of connection points: 2
#     Edge 41, Type (0, 1), BuildingBlock: EZIPEK_clean_linker_0, # of connection points: 2
#     Edge 42, Type (0, 1), BuildingBlock: EZIPEK_clean_linker_0, # of connection points: 2
#     Edge 43, Type (0, 1), BuildingBlock: EZIPEK_clean_linker_0, # of connection points: 2
#     Edge 44, Type (0, 1), BuildingBlock: EZIPEK_clean_linker_0, # of connection points: 2
#     Edge 45, Type (0, 1), BuildingBlock: EZIPEK_clean_linker_0, # of connection points: 2
#     Edge 46, Type (0, 1), BuildingBlock: EZIPEK_clean_linker_0, # of connection points: 2
#     Edge 47, Type (0, 1), BuildingBlock: EZIPEK_clean_linker_0, # of connection points: 2
#     Edge 48, Type (0, 1), BuildingBlock: EZIPEK_clean_linker_0, # of connection points: 2
#     Edge 49, Type (0, 1), BuildingBlock: EZIPEK_clean_linker_0, # of connection points: 2
#     Edge 50, Type (0, 1), BuildingBlock: EZIPEK_clean_linker_0, # of connection points: 2
#     Edge 51, Type (0, 1), BuildingBlock: EZIPEK_clean_linker_0, # of connection points: 2
#     Edge 52, Type (0, 1), BuildingBlock: EZIPEK_clean_linker_0, # of connection points: 2
#     Edge 53, Type (0, 1), BuildingBlock: EZIPEK_clean_linker_0, # of connection points: 2
#     Edge 54, Type (0, 1), BuildingBlock: EZIPEK_clean_linker_0, # of connection points: 2
#     Edge 55, Type (0, 1), BuildingBlock: EZIPEK_clean_linker_0, # of connection points: 2
#     Edge 56, Type (0, 1), BuildingBlock: EZIPEK_clean_linker_0, # of connection points: 2
#     Edge 57, Type (0, 1), BuildingBlock: EZIPEK_clean_linker_0, # of connection points: 2
#     Edge 58, Type (0, 1), BuildingBlock: EZIPEK_clean_linker_0, # of connection points: 2
#     Edge 59, Type (0, 1), BuildingBlock: EZIPEK_clean_linker_0, # of connection points: 2
#     Edge 60, Type (0, 1), BuildingBlock: EZIPEK_clean_linker_0, # of connection points: 2
#     Edge 61, Type (0, 1), BuildingBlock: EZIPEK_clean_linker_0, # of connection points: 2
#     Edge 62, Type (0, 1), BuildingBlock: EZIPEK_clean_linker_0, # of connection points: 2
#     Edge 63, Type (0, 1), BuildingBlock: EZIPEK_clean_linker_0, # of connection points: 2
#     Edge 64, Type (0, 1), BuildingBlock: EZIPEK_clean_linker_0, # of connection points: 2
#     Edge 65, Type (0, 1), BuildingBlock: EZIPEK_clean_linker_0, # of connection points: 2
#     Edge 66, Type (0, 1), BuildingBlock: EZIPEK_clean_linker_0, # of connection points: 2
#     Edge 67, Type (0, 1), BuildingBlock: EZIPEK_clean_linker_0, # of connection points: 2
#     Edge 68, Type (0, 1), BuildingBlock: EZIPEK_clean_linker_0, # of connection points: 2
#     Edge 69, Type (0, 1), BuildingBlock: EZIPEK_clean_linker_0, # of connection points: 2
#     Edge 70, Type (0, 1), BuildingBlock: EZIPEK_clean_linker_0, # of connection points: 2
#     Edge 71, Type (0, 1), BuildingBlock: EZIPEK_clean_linker_0, # of connection points: 2
#     Edge 72, Type (0, 1), BuildingBlock: EZIPEK_clean_linker_0, # of connection points: 2
#     Edge 73, Type (0, 1), BuildingBlock: EZIPEK_clean_linker_0, # of connection points: 2
#     Edge 74, Type (0, 1), BuildingBlock: EZIPEK_clean_linker_0, # of connection points: 2
#     Edge 75, Type (0, 1), BuildingBlock: EZIPEK_clean_linker_0, # of connection points: 2
#     Edge 76, Type (0, 1), BuildingBlock: EZIPEK_clean_linker_0, # of connection points: 2
#     Edge 77, Type (0, 1), BuildingBlock: EZIPEK_clean_linker_0, # of connection points: 2
#     Edge 78, Type (0, 1), BuildingBlock: EZIPEK_clean_linker_0, # of connection points: 2
#     Edge 79, Type (0, 1), BuildingBlock: EZIPEK_clean_linker_0, # of connection points: 2
#     Edge 80, Type (0, 1), BuildingBlock: EZIPEK_clean_linker_0, # of connection points: 2
#     Edge 81, Type (0, 1), BuildingBlock: EZIPEK_clean_linker_0, # of connection points: 2
#     Edge 82, Type (0, 1), BuildingBlock: EZIPEK_clean_linker_0, # of connection points: 2
#     Edge 83, Type (0, 1), BuildingBlock: EZIPEK_clean_linker_0, # of connection points: 2
#     Edge 84, Type (0, 1), BuildingBlock: EZIPEK_clean_linker_0, # of connection points: 2
#     Edge 85, Type (0, 1), BuildingBlock: EZIPEK_clean_linker_0, # of connection points: 2
#     Edge 86, Type (0, 1), BuildingBlock: EZIPEK_clean_linker_0, # of connection points: 2
#     Edge 87, Type (0, 1), BuildingBlock: EZIPEK_clean_linker_0, # of connection points: 2
#     Edge 88, Type (0, 1), BuildingBlock: EZIPEK_clean_linker_0, # of connection points: 2
#     Edge 89, Type (0, 1), BuildingBlock: EZIPEK_clean_linker_0, # of connection points: 2
#     Edge 90, Type (0, 1), BuildingBlock: EZIPEK_clean_linker_0, # of connection points: 2
#     Edge 91, Type (0, 1), BuildingBlock: EZIPEK_clean_linker_0, # of connection points: 2
#     Edge 92, Type (0, 1), BuildingBlock: EZIPEK_clean_linker_0, # of connection points: 2
#     Edge 93, Type (0, 1), BuildingBlock: EZIPEK_clean_linker_0, # of connection points: 2
#     Edge 94, Type (0, 1), BuildingBlock: EZIPEK_clean_linker_0, # of connection points: 2
#     Edge 95, Type (0, 1), BuildingBlock: EZIPEK_clean_linker_0, # of connection points: 2
#     Edge 96, Type (0, 1), BuildingBlock: EZIPEK_clean_linker_0, # of connection points: 2
#     Edge 97, Type (0, 1), BuildingBlock: EZIPEK_clean_linker_0, # of connection points: 2
#     Edge 98, Type (0, 1), BuildingBlock: EZIPEK_clean_linker_0, # of connection points: 2
#     Edge 99, Type (0, 1), BuildingBlock: EZIPEK_clean_linker_0, # of connection points: 2
#     Edge 100, Type (0, 1), BuildingBlock: EZIPEK_clean_linker_0, # of connection points: 2
#     Edge 101, Type (0, 1), BuildingBlock: EZIPEK_clean_linker_0, # of connection points: 2
# Relax obj value: 0.112
# Max RMSD: 0.162
# Mean RMSD: 0.107
data_MOF--net-cor--node1-CEKHIL_clean_sbu_0--node2-MIDCAF_clean_sbu_0--edge1-EZIPEK_clean_linker_0
_symmetry_space_group_name_H-M    P1
_symmetry_Int_Tables_number       1
_symmetry_cell_setting            triclinic
loop_
_symmetry_equiv_pos_as_xyz
'x, y, z'
_cell_length_a     28.463424
_cell_length_b     28.343984
_cell_length_c     74.120168
_cell_angle_alpha  90.885926
_cell_angle_beta   89.504386
_cell_angle_gamma 120.8751
loop_
_atom_site_label
_atom_site_type_symbol
_atom_site_fract_x
_atom_site_fract_y
_atom_site_fract_z
_atom_type_partial_charge
Co0 Co 0.70907 0.01265 0.25336 0.0
O1 O 0.67338 0.03744 0.23705 0.0
O2 O 0.74269 0.09137 0.25496 0.0
C3 C 0.63303 0.93994 0.2655 0.0
O4 O 0.7541 0.00487 0.27307 0.0
Co5 Co 0.70717 0.90645 0.24824 0.0
O6 O 0.75264 0.92554 0.27034 0.0
C7 C 0.77649 0.99436 0.22416 0.0
C8 C 0.7087 0.08708 0.24255 0.0
C9 C 0.76714 0.97042 0.27869 0.0
O10 O 0.76377 0.02444 0.23366 0.0
O11 O 0.75502 0.94302 0.22689 0.0
O12 O 0.65126 0.99009 0.2711 0.0
O13 O 0.65753 0.9352 0.25126 0.0
Co14 Co 0.01357 0.73014 0.25685 0.0
O15 O 0.0295 0.68636 0.27232 0.0
O16 O 0.09238 0.7609 0.25838 0.0
C17 C 0.94549 0.66026 0.24085 0.0
O18 O 0.01031 0.78451 0.23955 0.0
Co19 Co 0.90133 0.72027 0.26124 0.0
O20 O 0.92291 0.76504 0.23915 0.0
C21 C 0.98479 0.77994 0.28879 0.0
C22 C 0.0809 0.72134 0.26959 0.0
C23 C 0.97175 0.79076 0.2331 0.0
O24 O 0.01887 0.77565 0.27856 0.0
O25 O 0.93379 0.75691 0.2851 0.0
O26 O 0.9964 0.67908 0.23659 0.0
O27 O 0.93763 0.67935 0.25582 0.0
Co28 Co 0.31027 0.31095 0.25701 0.0
O29 O 0.36353 0.34477 0.23814 0.0
O30 O 0.35554 0.27812 0.25549 0.0
C31 C 0.32162 0.38829 0.27012 0.0
O32 O 0.26167 0.26886 0.27832 0.0
Co33 Co 0.20808 0.32087 0.25623 0.0
O34 O 0.18718 0.27697 0.27868 0.0
C35 C 0.22377 0.25769 0.22813 0.0
C36 C 0.3807 0.31189 0.24231 0.0
C37 C 0.21635 0.25956 0.28554 0.0
O38 O 0.25768 0.25507 0.23881 0.0
O39 O 0.20547 0.28979 0.23138 0.0
O40 O 0.35488 0.37113 0.27375 0.0
O41 O 0.28754 0.36257 0.25707 0.0
Co42 Co 0.29037 0.00071 0.7505 0.0
O43 O 0.33527 0.98055 0.76381 0.0
O44 O 0.25823 0.92104 0.75009 0.0
C45 C 0.35997 0.07096 0.73483 0.0
O46 O 0.23407 0.00718 0.73509 0.0
Co47 Co 0.30378 0.11389 0.75777 0.0
O48 O 0.24934 0.0932 0.73829 0.0
C49 C 0.24544 0.02738 0.78437 0.0
C50 C 0.29935 0.92968 0.76013 0.0
C51 C 0.22399 0.04539 0.73112 0.0
O52 O 0.24808 0.99337 0.77339 0.0
O53 O 0.26925 0.07897 0.7814 0.0
O54 O 0.33841 0.02023 0.7294 0.0
O55 O 0.34301 0.07725 0.75046 0.0
Co56 Co 0.00436 0.30522 0.7625 0.0
O57 O 0.98687 0.34265 0.74411 0.0
O58 O 0.92664 0.2759 0.7613 0.0
C59 C 0.07812 0.38194 0.77458 0.0
O60 O 0.00143 0.25754 0.78351 0.0
Co61 Co 0.11258 0.30431 0.76576 0.0
O62 O 0.08323 0.26703 0.78915 0.0
C63 C 0.03565 0.24324 0.73606 0.0
C64 C 0.9357 0.31034 0.74854 0.0
C65 C 0.033 0.24769 0.79303 0.0
O66 O -0.0013 0.25025 0.74368 0.0
O67 O 0.08454 0.26472 0.74206 0.0
O68 O 0.02853 0.36896 0.77908 0.0
O69 O 0.08066 0.34995 0.76262 0.0
Co70 Co 0.7461 0.73293 0.75332 0.0
O71 O 0.68912 0.70603 0.77171 0.0
O72 O 0.70851 0.77398 0.75332 0.0
C73 C 0.7256 0.64903 0.7423 0.0
O74 O 0.79804 0.77049 0.73205 0.0
Co75 Co 0.83967 0.70631 0.75221 0.0
O76 O 0.84348 0.72643 0.72644 0.0
C77 C 0.84709 0.79186 0.77751 0.0
C78 C 0.67741 0.74205 0.7661 0.0
C79 C 0.82785 0.75928 0.72174 0.0
O80 O 0.80295 0.78729 0.77101 0.0
O81 O 0.86656 0.76186 0.77247 0.0
O82 O 0.69704 0.67068 0.7374 0.0
O83 O 0.76182 0.67646 0.75453 0.0
Co84 Co 0.37301 0.35765 0.59241 0.0
O85 O 0.33598 0.37973 0.57614 0.0
O86 O 0.41154 0.43764 0.59094 0.0
C87 C 0.29946 0.29596 0.60834 0.0
O88 O 0.41993 0.3471 0.61109 0.0
Co89 Co 0.35181 0.24196 0.58804 0.0
O90 O 0.40236 0.26051 0.60862 0.0
C91 C 0.41962 0.32084 0.56099 0.0
C92 C 0.37392 0.43013 0.57938 0.0
C93 C 0.42619 0.30737 0.61644 0.0
O94 O 0.41834 0.35719 0.57119 0.0
O95 O 0.39157 0.2696 0.56449 0.0
O96 O 0.32319 0.34807 0.61203 0.0
O97 O 0.31526 0.28318 0.59347 0.0
Co98 Co 0.67587 0.05833 0.58537 0.0
O99 O 0.68995 0.01504 0.60191 0.0
O100 O 0.75173 0.07921 0.58391 0.0
C101 C 0.59755 0.98861 0.57347 0.0
O102 O 0.67756 0.10817 0.56551 0.0
Co103 Co 0.57881 0.074 0.58966 0.0
O104 O 0.60204 0.11403 0.56651 0.0
C105 C 0.66472 0.12197 0.61662 0.0
C106 C 0.74028 0.04293 0.5963 0.0
C107 C 0.64631 0.12392 0.55891 0.0
O108 O 0.69502 0.11476 0.60534 0.0
O109 O 0.61397 0.10337 0.61376 0.0
O110 O 0.64521 -0.00089 0.56769 0.0
O111 O 0.59828 0.01718 0.58743 0.0
Co112 Co 0.96572 0.64271 0.59002 0.0
O113 O 0.02333 0.67563 0.57232 0.0
O114 O -2e-05 0.59959 0.58705 0.0
C115 C 0.98718 0.72115 0.60493 0.0
O116 O 0.9126 0.59939 0.61012 0.0
Co117 Co 0.87328 0.66626 0.59072 0.0
O118 O 0.83911 0.60855 0.60961 0.0
C119 C 0.88317 0.60774 0.56029 0.0
C120 C 0.03176 0.63555 0.57522 0.0
C121 C 0.86566 0.58807 0.61635 0.0
O122 O 0.9106 0.59532 0.57083 0.0
O123 O 0.87477 0.64664 0.56452 0.0
O124 O 0.0138 0.69621 0.60818 0.0
O125 O 0.9527 0.70114 0.59169 0.0
Co126 Co 0.98029 0.35895 0.08964 0.0
O127 O 0.01543 0.3307 0.10445 0.0
O128 O 0.93917 0.27953 0.08892 0.0
C129 C 0.05692 0.42552 0.07558 0.0
O130 O 0.93368 0.37306 0.07213 0.0
Co131 Co -0.00045 0.47351 0.09537 0.0
O132 O 0.97592 0.46439 0.06977 0.0
C133 C 0.92966 0.38945 0.12116 0.0
C134 C 0.97503 0.28199 0.10027 0.0
C135 C 0.94255 0.4164 0.06373 0.0
O136 O 0.93463 0.35513 0.11111 0.0
O137 O 0.95476 0.44093 0.11787 0.0
O138 O 0.03194 0.37452 0.07009 0.0
O139 O 0.03767 0.43356 0.09051 0.0
Co140 Co 0.68047 0.65751 0.09158 0.0
O141 O 0.65633 0.68829 0.07318 0.0
O142 O 0.60141 0.62079 0.09109 0.0
C143 C 0.74994 0.73686 0.10325 0.0
O144 O 0.6905 0.6183 0.11271 0.0
Co145 Co 0.79645 0.67284 0.08893 0.0
O146 O 0.7749 0.63006 0.11174 0.0
C147 C 0.71399 0.60703 0.06233 0.0
C148 C 0.60643 0.65282 0.07788 0.0
C149 C 0.72802 0.61081 0.11921 0.0
O150 O 0.67721 0.60075 0.07384 0.0
O151 O 0.76358 0.64609 0.06419 0.0
O152 O 0.69968 0.72069 0.10791 0.0
O153 O 0.75454 0.70874 0.09033 0.0
Co154 Co 0.38577 0.05376 0.08747 0.0
O155 O 0.32899 0.02654 0.1055 0.0
O156 O 0.33971 0.08498 0.08409 0.0
C157 C 0.37571 0.97073 0.08084 0.0
O158 O 0.43758 0.08846 0.06577 0.0
Co159 Co 0.48911 0.0476 0.09181 0.0
O160 O 0.49819 0.06082 0.06551 0.0
C161 C 0.47189 0.12184 0.11523 0.0
C162 C 0.31256 0.05675 0.09811 0.0
C163 C 0.47329 0.08087 0.05739 0.0
O164 O 0.43378 0.11575 0.10457 0.0
O165 O 0.49658 0.09501 0.11327 0.0
O166 O 0.34492 0.98642 0.0733 0.0
O167 O 0.40956 0.00477 0.0927 0.0
Co168 Co 0.04989 0.66646 0.91265 0.0
O169 O 0.00487 0.68215 0.8974 0.0
O170 O 0.07751 0.74503 0.91236 0.0
C171 C 0.97935 0.59494 0.92764 0.0
O172 O 0.10519 0.66541 0.93035 0.0
Co173 Co 0.04974 0.56137 0.90831 0.0
O174 O 0.07537 0.57664 0.93372 0.0
C175 C 0.10986 0.64563 0.8816 0.0
C176 C 0.03794 0.7337 0.90115 0.0
C177 C 0.10437 0.626 0.93918 0.0
O178 O 0.09763 0.67626 0.89097 0.0
O179 O 0.09241 0.59563 0.88566 0.0
O180 O -0.00137 0.6458 0.93255 0.0
O181 O -9e-05 0.58852 0.91272 0.0
Co182 Co 0.3735 0.39847 0.9206 0.0
O183 O 0.38938 0.36861 0.94105 0.0
O184 O 0.4519 0.43004 0.92279 0.0
C185 C 0.30565 0.31725 0.90935 0.0
O186 O 0.37094 0.43754 0.89791 0.0
Co187 Co 0.26276 0.39023 0.91952 0.0
O188 O 0.29218 0.43812 0.89797 0.0
C189 C 0.33952 0.45278 0.94775 0.0
C190 C 0.44067 0.3997 0.93706 0.0
C191 C 0.33825 0.45118 0.89094 0.0
O192 O 0.37719 0.45785 0.93694 0.0
O193 O 0.2893 0.41694 0.94482 0.0
O194 O 0.35658 0.3344 0.90562 0.0
O195 O 0.29781 0.34701 0.92099 0.0
Co196 Co 0.64944 0.98558 0.92081 0.0
O197 O 0.71629 0.02895 0.90732 0.0
O198 O 0.69197 0.95017 0.9203 0.0
C199 C 0.65206 0.05526 0.9371 0.0
O200 O 0.58683 0.93073 0.9369 0.0
Co201 Co 0.54974 -0.00205 0.91577 0.0
O202 O 0.52512 0.95741 0.93878 0.0
C203 C 0.57189 0.93687 0.88826 0.0
C204 C 0.72746 0.99083 0.91054 0.0
C205 C 0.54513 0.92918 0.94444 0.0
O206 O 0.61147 0.94287 0.89814 0.0
O207 O 0.54338 0.95872 0.89227 0.0
O208 O 0.68131 0.03429 0.9418 0.0
O209 O 0.62763 0.03847 0.92164 0.0
Co210 Co 0.62802 0.68556 0.42106 0.0
O211 O 0.66171 0.66279 0.43843 0.0
O212 O 0.59363 0.60588 0.42043 0.0
C213 C 0.70801 0.75544 0.40989 0.0
O214 O 0.58519 0.69683 0.40108 0.0
Co215 Co 0.64296 0.80087 0.42482 0.0
O216 O 0.62413 0.78829 0.39873 0.0
C217 C 0.56998 0.71393 0.44993 0.0
C218 C 0.62739 0.6127 0.43338 0.0
C219 C 0.59328 0.73979 0.39249 0.0
O220 O 0.57484 0.67894 0.44019 0.0
O221 O 0.59646 0.76565 0.44685 0.0
O222 O 0.6874 0.70525 0.40394 0.0
O223 O 0.68071 0.76026 0.42306 0.0
Co224 Co 0.33244 0.97208 0.4259 0.0
O225 O 0.30842 -0.00165 0.40627 0.0
O226 O 0.25308 0.93714 0.42612 0.0
C227 C 0.40083 0.05468 0.4357 0.0
O228 O 0.34449 0.93859 0.44851 0.0
Co229 Co 0.45007 0.99081 0.42464 0.0
O230 O 0.43435 0.96938 0.45046 0.0
C231 C 0.36745 0.91915 0.39815 0.0
C232 C 0.25895 0.96728 0.41221 0.0
C233 C 0.38686 0.94727 0.45764 0.0
O234 O 0.32975 0.91286 0.40934 0.0
O235 O 0.41716 0.95778 0.40037 0.0
O236 O 0.35066 0.0381 0.44042 0.0
O237 O 0.40601 0.02407 0.42383 0.0
Co238 Co 0.02993 0.38168 0.4227 0.0
O239 O 0.97761 0.35239 0.44225 0.0
O240 O 0.98533 0.4154 0.42326 0.0
C241 C 0.01875 0.30165 0.41185 0.0
O242 O 0.07673 0.41957 0.40043 0.0
Co243 Co 0.13253 0.36933 0.42259 0.0
O244 O 0.1489 0.40742 0.39899 0.0
C245 C 0.11573 0.43164 0.45081 0.0
C246 C 0.96065 0.38477 0.43712 0.0
C247 C 0.12008 0.42581 0.39247 0.0
O248 O 0.08534 0.43934 0.43989 0.0
O249 O 0.1276 0.39445 0.44774 0.0
O250 O 0.98378 0.31623 0.40749 0.0
O251 O 0.05389 0.33228 0.42387 0.0
Zn252 Zn 0.01658 0.03094 0.12075 0.0
Zn253 Zn 0.05144 0.04733 0.19979 0.0
Zn254 Zn 0.02444 0.03312 0.15112 0.0
C255 C 0.01846 0.94832 0.17777 0.0
C256 C 0.13106 0.09174 0.17212 0.0
O257 O 0.98272 0.07988 0.14443 0.0
O258 O 0.01961 0.10086 0.11737 0.0
C259 C 0.93799 0.92849 0.13214 0.0
O260 O 0.9927 0.95393 0.16459 0.0
O261 O 0.06102 0.99037 0.18413 0.0
O262 O 0.10393 0.04802 0.18093 0.0
O263 O 0.11278 0.09105 0.15634 0.0
O264 O 0.94358 0.96336 0.12062 0.0
O265 O 0.97218 0.9439 0.14531 0.0
O266 O 0.1074 0.06729 0.13863 0.0
O267 O 0.07924 0.02494 0.11239 0.0
C268 C 0.11756 0.05132 0.12351 0.0
O269 O 0.97439 0.06292 0.16339 0.0
O270 O 0.98478 0.05337 0.19287 0.0
C271 C 0.99334 0.10794 0.12984 0.0
C272 C 0.95937 0.06004 0.18003 0.0
Zn273 Zn 0.01191 0.01087 0.33199 0.0
Zn274 Zn -0.00117 0.00848 0.39222 0.0
Zn275 Zn 0.00715 0.01589 0.36086 0.0
C276 C 0.02372 0.11384 0.38378 0.0
C277 C 0.89797 0.9329 0.379 0.0
O278 O 0.03808 0.96017 0.35357 0.0
O279 O 0.98447 0.93149 0.32983 0.0
C280 C 0.10099 0.10631 0.33961 0.0
O281 O 0.04188 0.10207 0.36949 0.0
O282 O -0.00301 0.07693 0.39523 0.0
O283 O 0.92816 0.93855 0.3922 0.0
O284 O 0.91808 0.96497 0.36537 0.0
O285 O 0.09112 0.06374 0.33078 0.0
O286 O 0.06603 0.10133 0.35176 0.0
O287 O 0.9246 0.98703 0.34799 0.0
O288 O 0.96316 0.03519 0.32367 0.0
C289 C 0.92065 0.00767 0.33303 0.0
O290 O 0.05686 0.98014 0.37061 0.0
O291 O 0.06596 0.00825 0.39897 0.0
C292 C 0.01411 0.92469 0.34073 0.0
C293 C 0.07977 0.98795 0.38621 0.0
Zn294 Zn 0.02792 0.00863 0.8948 0.0
Zn295 Zn 0.06954 0.07089 0.83914 0.0
Zn296 Zn 0.02946 0.02189 0.86314 0.0
C297 C 0.01337 0.11166 0.8478 0.0
C298 C 0.98861 0.96408 0.82801 0.0
O299 O 0.02381 0.94083 0.86229 0.0
O300 O 0.02353 0.93638 0.89213 0.0
C301 C 0.12458 0.10429 0.88842 0.0
O302 O 0.98525 0.06035 0.85192 0.0
O303 O 0.06503 0.13507 0.84775 0.0
O304 O 0.00513 0.01302 0.82339 0.0
O305 O 0.00721 0.95659 0.84287 0.0
O306 O 0.09929 0.07433 0.90168 0.0
O307 O 0.10426 0.09093 0.87263 0.0
O308 O 0.95068 0.01532 0.86978 0.0
O309 O 0.95906 0.00962 0.89905 0.0
C310 C 0.93157 0.01041 0.88586 0.0
O311 O 0.06906 0.98164 0.84794 0.0
O312 O 0.13589 0.06381 0.84045 0.0
C313 C 0.02247 0.91555 0.87683 0.0
C314 C 0.11805 0.01287 0.84174 0.0
Zn315 Zn 0.94594 0.9941 0.67143 0.0
Zn316 Zn 0.01527 0.02058 0.61647 0.0
Zn317 Zn -0.00035 0.0161 0.64832 0.0
C318 C 0.01573 0.92812 0.62699 0.0
C319 C 0.10309 0.11614 0.6353 0.0
O320 O 0.02837 0.08798 0.66761 0.0
O321 O 0.9423 0.0631 0.67172 0.0
C322 C 0.91315 0.89917 0.66222 0.0
O323 O 0.0036 0.94279 0.64197 0.0
O324 O 0.02446 0.95623 0.61299 0.0
O325 O 0.0822 0.09372 0.62026 0.0
O326 O 0.07934 0.09214 0.65009 0.0
O327 O 0.88454 0.92159 0.6633 0.0
O328 O 0.96371 0.92928 0.65742 0.0
O329 O 0.06419 0.05763 0.66878 0.0
O330 O 0.00741 0.99193 0.68675 0.0
C331 C 0.05647 0.0268 0.68251 0.0
O332 O 0.93408 0.02392 0.63805 0.0
O333 O 0.94547 0.01643 0.60899 0.0
C334 C 0.99229 0.09769 0.6745 0.0
C335 C 0.91862 0.02128 0.62181 0.0
Zn336 Zn 0.65832 0.35127 0.51363 0.0
Zn337 Zn 0.66571 0.35632 0.45393 0.0
Zn338 Zn 0.66457 0.35673 0.48483 0.0
C339 C 0.76855 0.38057 0.46409 0.0
C340 C 0.58637 0.25345 0.46254 0.0
O341 O 0.60499 0.38091 0.49505 0.0
O342 O 0.57829 0.31731 0.51569 0.0
C343 C 0.74777 0.44772 0.50861 0.0
O344 O 0.75324 0.39562 0.4784 0.0
O345 O 0.73454 0.35552 0.45156 0.0
O346 O 0.5952 0.28798 0.45051 0.0
O347 O 0.61641 0.26902 0.47684 0.0
O348 O 0.70504 0.43008 0.51805 0.0
O349 O 0.74713 0.41887 0.49487 0.0
O350 O 0.64303 0.27146 0.4931 0.0
O351 O 0.69209 0.30778 0.5175 0.0
C352 C 0.6694 0.26778 0.50661 0.0
O353 O 0.62656 0.40546 0.47729 0.0
O354 O 0.66685 0.42485 0.45065 0.0
C355 C 0.57017 0.35078 0.50727 0.0
C356 C 0.64116 0.43415 0.46277 0.0
Zn357 Zn 0.66628 0.33852 0.7243 0.0
Zn358 Zn 0.67685 0.33065 0.66494 0.0
Zn359 Zn 0.67636 0.33955 0.69356 0.0
C360 C 0.5869 0.3304 0.66694 0.0
C361 C 0.766 0.42708 0.6708 0.0
O362 O 0.72755 0.30615 0.7036 0.0
O363 O 0.73664 0.34334 0.73055 0.0
C364 C 0.56677 0.25557 0.71285 0.0
O365 O 0.59197 0.31015 0.68185 0.0
O366 O 0.62803 0.3553 0.65682 0.0
O367 O 0.75598 0.38314 0.6629 0.0
O368 O 0.73191 0.42369 0.68304 0.0
O369 O 0.59701 0.2673 0.72654 0.0
O370 O 0.58653 0.28419 0.6984 0.0
O371 O 0.71218 0.42726 0.70168 0.0
O372 O 0.66324 0.40626 0.7266 0.0
C373 C 0.6942 0.44198 0.71538 0.0
O374 O 0.71114 0.28673 0.68537 0.0
O375 O 0.6504 0.2514 0.66361 0.0
C376 C 0.75192 0.32063 0.71904 0.0
C377 C 0.68639 0.24983 0.67291 0.0
Zn378 Zn 0.67464 0.35205 0.22469 0.0
Zn379 Zn 0.68989 0.35634 0.1641 0.0
Zn380 Zn 0.68328 0.35507 0.19308 0.0
C381 C 0.69559 0.44971 0.16921 0.0
C382 C 0.59403 0.27124 0.16795 0.0
O383 O 0.71621 0.30234 0.20172 0.0
O384 O 0.67525 0.28363 0.22823 0.0
C385 C 0.75904 0.45671 0.21667 0.0
O386 O 0.71569 0.44193 0.18367 0.0
O387 O 0.66886 0.40968 0.15855 0.0
O388 O 0.63546 0.27851 0.15926 0.0
O389 O 0.60038 0.30327 0.18142 0.0
O390 O 0.74205 0.42299 0.22948 0.0
O391 O 0.73598 0.4416 0.20108 0.0
O392 O 0.59414 0.31975 0.19902 0.0
O393 O 0.60499 0.34888 0.22733 0.0
C394 C 0.57467 0.32815 0.21371 0.0
O395 O 0.73919 0.32442 0.18444 0.0
O396 O 0.76794 0.38262 0.16203 0.0
C397 C 0.70106 0.27382 0.21629 0.0
C398 C 0.77466 0.35094 0.17193 0.0
Zn399 Zn 0.6859 0.33951 0.01955 0.0
Zn400 Zn 0.678 0.35395 0.95684 0.0
Zn401 Zn 0.68717 0.35225 0.98913 0.0
C402 C 0.65921 0.25096 0.96335 0.0
C403 C 0.78572 0.43063 0.96399 0.0
O404 O 0.65827 0.4056 1.00101 0.0
O405 O 0.69515 0.40994 0.02741 0.0
C406 C 0.60417 0.24334 0.01137 0.0
O407 O 0.65462 0.26633 0.97944 0.0
O408 O 0.67143 0.28347 0.95037 0.0
O409 O 0.74944 0.41971 0.95233 0.0
O410 O 0.77262 0.40492 0.9791 0.0
O411 O 0.61515 0.27515 0.02473 0.0
O412 O 0.63208 0.2619 0.9966 0.0
O413 O 0.77337 0.38919 0.99764 0.0
O414 O 0.75174 0.3328 0.02042 0.0
C415 C 0.78789 0.36878 0.01033 0.0
O416 O 0.63635 0.38974 0.98378 0.0
O417 O 0.61465 0.36282 0.95535 0.0
C418 C 0.67419 0.42818 0.01673 0.0
C419 C 0.60897 0.38498 0.9694 0.0
Zn420 Zn 0.3599 0.69395 0.8415 0.0
Zn421 Zn 0.36354 0.68134 0.78114 0.0
Zn422 Zn 0.36493 0.68937 0.81244 0.0
C423 C 0.47035 0.7157 0.79001 0.0
C424 C 0.28148 0.58005 0.79383 0.0
O425 O 0.30461 0.71562 0.81988 0.0
O426 O 0.28119 0.66445 0.84408 0.0
C427 C 0.45296 0.78295 0.83513 0.0
O428 O 0.45372 0.73008 0.80419 0.0
O429 O 0.43554 0.68542 0.77823 0.0
O430 O 0.29291 0.61038 0.78025 0.0
O431 O 0.31237 0.59925 0.80792 0.0
O432 O 0.41074 0.77409 0.84366 0.0
O433 O 0.44845 0.74861 0.82266 0.0
O434 O 0.34202 0.60623 0.82402 0.0
O435 O 0.38693 0.64621 0.84888 0.0
C436 C 0.36465 0.60403 0.83883 0.0
O437 O 0.32658 0.73679 0.80273 0.0
O438 O 0.35948 0.74703 0.77511 0.0
C439 C 0.27077 0.69099 0.83298 0.0
C440 C 0.3364 0.76004 0.78717 0.0
Zn441 Zn 0.33517 0.66858 0.05414 0.0
Zn442 Zn 0.38001 0.72384 0.98564 0.0
Zn443 Zn 0.3496 0.68617 0.02363 0.0
C444 C 0.26211 0.67187 0.99336 0.0
C445 C 0.44349 0.81877 0.01122 0.0
O446 O 0.39883 0.64842 0.03196 0.0
O447 O 0.40687 0.67794 0.06003 0.0
C448 C 0.24136 0.59049 0.03826 0.0
O449 O 0.27056 0.65741 0.00897 0.0
O450 O 0.30122 0.70024 0.98257 0.0
O451 O 0.40741 0.76854 0.00996 0.0
O452 O 0.40662 0.76758 0.01102 0.0
O453 O 0.27291 0.5936 0.05065 0.0
O454 O 0.25931 0.62864 0.02628 0.0
O455 O 0.37465 0.76138 0.04022 0.0
O456 O 0.31974 0.72525 0.06333 0.0
C457 C 0.3522 0.76703 0.05438 0.0
O458 O 0.38357 0.63705 0.01317 0.0
O459 O 0.39203 0.66039 0.98416 0.0
C460 C 0.42248 0.65851 0.04751 0.0
C461 C 0.39179 0.62958 0.99645 0.0
Zn462 Zn 0.32846 0.68236 0.55779 0.0
Zn463 Zn 0.33511 0.69639 0.49627 0.0
Zn464 Zn 0.33284 0.68273 0.5259 0.0
C465 C 0.34734 0.78861 0.50523 0.0
C466 C 0.24158 0.60147 0.4997 0.0
O467 O 0.36936 0.63245 0.53364 0.0
O468 O 0.33405 0.61712 0.56104 0.0
C469 C 0.40729 0.78546 0.55095 0.0
O470 O 0.36395 0.77232 0.5187 0.0
O471 O 0.31958 0.75472 0.49295 0.0
O472 O 0.27912 0.62413 0.48815 0.0
O473 O 0.24878 0.62302 0.51564 0.0
O474 O 0.39307 0.75238 0.56381 0.0
O475 O 0.38351 0.76908 0.53546 0.0
O476 O 0.24471 0.64155 0.53272 0.0
O477 O 0.25657 0.67485 0.56053 0.0
C478 C 0.22534 0.65026 0.54735 0.0
O479 O 0.38663 0.65407 0.51541 0.0
O480 O 0.41146 0.71396 0.49352 0.0
C481 C 0.35786 0.6063 0.54865 0.0
C482 C 0.41918 0.68085 0.50235 0.0
Zn483 Zn 0.32895 0.681 0.2894 0.0
Zn484 Zn 0.34662 0.66193 0.34804 0.0
Zn485 Zn 0.3361 0.67652 0.31966 0.0
C486 C 0.44264 0.69063 0.33752 0.0
C487 C 0.25243 0.57205 0.3418 0.0
O488 O 0.27935 0.70839 0.31492 0.0
O489 O 0.25613 0.67034 0.28782 0.0
C490 C 0.43025 0.76445 0.29563 0.0
O491 O 0.42498 0.71485 0.32732 0.0
O492 O 0.40812 0.64865 0.34599 0.0
O493 O 0.27581 0.60336 0.3551 0.0
O494 O 0.2753 0.58613 0.32604 0.0
O495 O 0.39185 0.75542 0.28511 0.0
O496 O 0.42007 0.73336 0.3094 0.0
O497 O 0.31239 0.59169 0.31144 0.0
O498 O 0.34137 0.62028 0.28416 0.0
C499 C 0.33177 0.58586 0.2963 0.0
O500 O 0.30619 0.72634 0.33271 0.0
O501 O 0.36064 0.7356 0.35509 0.0
C502 C 0.24792 0.69406 0.30093 0.0
C503 C 0.33205 0.7515 0.34721 0.0
C504 C 0.2381 0.20858 0.20146 0.0
C505 C 0.20283 0.22015 0.21196 0.0
C506 C 0.13031 0.16655 0.19007 0.0
C507 C 0.1605 0.14421 0.18258 0.0
N508 N 0.2445 0.1432 0.18157 0.0
N509 N 0.1092 0.197 0.21769 0.0
C510 C 0.21494 0.16497 0.18842 0.0
C511 C 0.14727 0.19597 0.2066 0.0
N512 N 0.29352 0.24097 0.2031 0.0
N513 N 0.0858 0.16061 0.18135 0.0
H514 H 0.11747 0.21203 0.23091 0.0
H515 H 0.0676 0.17602 0.21451 0.0
H516 H 0.0735 0.14121 0.16881 0.0
H517 H 0.06716 0.18238 0.18547 0.0
H518 H 0.32085 0.2367 0.19478 0.0
H519 H 0.31189 0.27628 0.21117 0.0
H520 H 0.28238 0.15284 0.18676 0.0
H521 H 0.22956 0.11343 0.17129 0.0
C522 C 0.87009 0.06952 0.21356 0.0
C523 C 0.81935 0.02048 0.20988 0.0
C524 C 0.8565 0.00977 0.18104 0.0
C525 C 0.90751 0.05751 0.18525 0.0
N526 N 0.95338 0.14418 0.2008 0.0
N527 N 0.75897 0.95637 0.18723 0.0
C528 C 0.91057 0.09143 0.19986 0.0
C529 C 0.81077 0.99465 0.19262 0.0
N530 N 0.88207 0.09283 0.23043 0.0
N531 N 0.85236 0.9771 0.16669 0.0
H532 H 0.72458 0.94597 0.19515 0.0
H533 H 0.74965 0.93953 0.17424 0.0
H534 H 0.8839 0.98804 0.15742 0.0
H535 H 0.81823 0.93826 0.16437 0.0
H536 H 0.92069 0.12544 0.23397 0.0
H537 H 0.85599 0.0764 0.24145 0.0
H538 H 0.95642 0.1725 0.21056 0.0
H539 H 0.98159 0.16072 0.1903 0.0
C540 C 0.00578 0.82471 0.20139 0.0
C541 C 0.9829 0.82942 0.218 0.0
C542 C 0.964 0.89616 0.20416 0.0
C543 C 0.99457 0.89807 0.18879 0.0
N544 N 0.04764 0.86692 0.1728 0.0
N545 N 0.9498 0.87815 0.2361 0.0
C546 C 0.0161 0.86284 0.18737 0.0
C547 C 0.96421 0.86723 0.21959 0.0
N548 N 0.0158 0.78287 0.19869 0.0
N549 N 0.9353 0.92271 0.20405 0.0
H550 H 0.95282 0.86069 0.24799 0.0
H551 H 0.94082 0.90908 0.23829 0.0
H552 H 0.93375 0.94322 0.19271 0.0
H553 H 0.90848 0.91917 0.21432 0.0
H554 H 0.027 0.77414 0.18623 0.0
H555 H 0.00852 0.75386 0.20846 0.0
H556 H 0.07025 0.84746 0.17195 0.0
H557 H 0.05306 0.89212 0.16189 0.0
C558 C 0.20467 0.18294 0.30591 0.0
C559 C 0.19736 0.2282 0.30278 0.0
C560 C 0.14344 0.20685 0.33093 0.0
C561 C 0.14767 0.15959 0.33285 0.0
N562 N 0.20598 0.12242 0.32835 0.0
N563 N 0.17682 0.29422 0.31617 0.0
C564 C 0.18751 0.1555 0.32259 0.0
C565 C 0.17193 0.24369 0.31649 0.0
N566 N 0.22261 0.16215 0.29256 0.0
N567 N 0.1127 0.21669 0.34284 0.0
H568 H 0.19957 0.32357 0.3065 0.0
H569 H 0.16299 0.30941 0.32646 0.0
H570 H 0.10108 0.19709 0.35521 0.0
H571 H 0.10039 0.24499 0.3407 0.0
H572 H 0.22398 0.12638 0.2941 0.0
H573 H 0.22929 0.17572 0.27931 0.0
H574 H 0.23768 0.12037 0.32196 0.0
H575 H 0.19318 0.10198 0.34065 0.0
C576 C 0.84362 0.03555 0.29981 0.0
C577 C 0.7988 0.98219 0.29579 0.0
C578 C 0.82372 0.94541 0.32145 0.0
C579 C 0.86864 -0.00121 0.32521 0.0
N580 N 0.90495 0.09589 0.32305 0.0
N581 N 0.73418 0.89275 0.30774 0.0
C582 C 0.87221 0.04423 0.31621 0.0
C583 C 0.78491 0.93902 0.3082 0.0
N584 N 0.8623 0.07695 0.28757 0.0
N585 N 0.81919 0.9005 0.32964 0.0
H586 H 0.70346 0.88876 0.29919 0.0
H587 H 0.72067 0.86198 0.31736 0.0
H588 H 0.84526 0.90328 0.33985 0.0
H589 H 0.7909 0.86033 0.3256 0.0
H590 H 0.89808 0.11483 0.28952 0.0
H591 H 0.84628 0.07199 0.27466 0.0
H592 H 0.90649 0.13055 0.31778 0.0
H593 H 0.92519 0.1022 0.33528 0.0
C594 C 0.97879 0.79154 0.32223 0.0
C595 C 0.00584 0.81358 0.30556 0.0
C596 C 0.06676 0.90075 0.32108 0.0
C597 C 0.02895 0.88397 0.33535 0.0
N598 N 0.95627 0.81181 0.35203 0.0
N599 N 0.07721 0.89144 0.28914 0.0
C600 C 0.98809 0.82819 0.33692 0.0
C601 C 0.05165 0.86836 0.30505 0.0
N602 N 0.94465 0.73611 0.32391 0.0
N603 N 0.1145 0.95006 0.32246 0.0
H604 H 0.06536 0.87126 0.27669 0.0
H605 H 0.10725 0.93277 0.28799 0.0
H606 H 0.12415 0.9743 0.33416 0.0
H607 H 0.14591 0.96373 0.31297 0.0
H608 H 0.92639 0.71725 0.33602 0.0
H609 H 0.93863 0.70844 0.31346 0.0
H610 H 0.92205 0.77277 0.35363 0.0
H611 H 0.96424 0.83897 0.36285 0.0
C612 C 0.92949 0.88352 0.78428 0.0
C613 C 0.88061 0.83703 0.79049 0.0
C614 C 0.90149 0.87413 0.82147 0.0
C615 C 0.95295 0.918 0.81549 0.0
N616 N 0.02001 0.95936 0.7917 0.0
N617 N 0.8224 0.78392 0.81505 0.0
C618 C 0.96802 0.92135 0.797 0.0
C619 C 0.86723 0.83113 0.80912 0.0
N620 N 0.93854 0.89198 0.76614 0.0
N621 N 0.88399 0.87493 0.83865 0.0
H622 H 0.79538 0.75262 0.80631 0.0
H623 H 0.81397 0.77416 0.82864 0.0
H624 H 0.90726 0.90583 0.84806 0.0
H625 H 0.84455 0.84744 0.84318 0.0
H626 H 0.97036 0.92799 0.76067 0.0
H627 H 0.91126 0.86499 0.75643 0.0
H628 H 0.03496 0.96096 0.77872 0.0
H629 H 0.05035 0.98608 0.8007 0.0
C630 C 0.15693 0.96639 0.80131 0.0
C631 C 0.21392 0.00653 0.80147 0.0
C632 C 0.20818 0.02507 0.83354 0.0
C633 C 0.15048 0.99194 0.83244 0.0
N634 N 0.07536 0.91046 0.81938 0.0
N635 N 0.29632 0.05758 0.81902 0.0
C636 C 0.12665 0.95524 0.81769 0.0
C637 C 0.24049 0.03028 0.81811 0.0
N638 N 0.13101 0.94171 0.7855 0.0
N639 N 0.23112 0.05387 0.84912 0.0
H640 H 0.32053 0.06064 0.80793 0.0
H641 H 0.31836 0.07296 0.83095 0.0
H642 H 0.20751 0.04773 0.86068 0.0
H643 H 0.27225 0.08392 0.85051 0.0
H644 H 0.08884 0.91557 0.78446 0.0
H645 H 0.15098 0.94971 0.77311 0.0
H646 H 0.05652 0.88016 0.80943 0.0
H647 H 0.0548 0.90038 0.83171 0.0
C648 C 0.02958 0.23468 0.82666 0.0
C649 C 0.01032 0.21183 0.80916 0.0
C650 C 0.96134 0.11914 0.82213 0.0
C651 C 0.99038 0.1415 0.8384 0.0
N652 N 0.03217 0.21803 0.85876 0.0
N653 N 0.95445 0.13252 0.79019 0.0
C654 C 0.01731 0.19882 0.8415 0.0
C655 C 0.97383 0.15413 0.80697 0.0
N656 N 0.06189 0.29036 0.82879 0.0
N657 N 0.92201 0.06473 0.82132 0.0
H658 H 0.96221 0.15683 0.77889 0.0
H659 H 0.93305 0.0906 0.78723 0.0
H660 H 0.91044 0.03995 0.83269 0.0
H661 H 0.89671 0.04582 0.81023 0.0
H662 H 0.08136 0.30998 0.84076 0.0
H663 H 0.07061 0.31737 0.81819 0.0
H664 H 0.05026 0.25912 0.86265 0.0
H665 H 0.02194 0.19098 0.8695 0.0
C666 C 0.90664 0.81629 0.70081 0.0
C667 C 0.84925 0.78882 0.70435 0.0
C668 C 0.83472 0.81319 0.67405 0.0
C669 C 0.89194 0.84596 0.67174 0.0
N670 N 0.97849 0.85459 0.67823 0.0
N671 N 0.75845 0.76494 0.69453 0.0
C672 C 0.92679 0.83971 0.68361 0.0
C673 C 0.81295 0.78745 0.6909 0.0
N674 N 0.94253 0.82451 0.71435 0.0
N675 N 0.80171 0.80708 0.65985 0.0
H676 H 0.7405 0.74715 0.70676 0.0
H677 H 0.73128 0.76777 0.68596 0.0
H678 H 0.81807 0.82547 0.64744 0.0
H679 H 0.75955 0.78009 0.65968 0.0
H680 H 0.98482 0.84934 0.71298 0.0
H681 H 0.93037 0.81202 0.72758 0.0
H682 H 0.00474 0.84738 0.68584 0.0
H683 H 0.99191 0.8666 0.66506 0.0
C684 C 0.18362 0.02742 0.69967 0.0
C685 C 0.17886 0.03411 0.71851 0.0
C686 C 0.10079 0.04593 0.71299 0.0
C687 C 0.10205 0.03439 0.69437 0.0
N688 N 0.13954 0.00539 0.67029 0.0
N689 N 0.1254 0.03711 0.7434 0.0
C690 C 0.14216 0.02278 0.68775 0.0
C691 C 0.13499 0.03936 0.72524 0.0
N692 N 0.22857 0.02739 0.69308 0.0
N693 N 0.0689 0.06614 0.71885 0.0
H694 H 0.14911 0.03131 0.75277 0.0
H695 H 0.09078 0.03526 0.74899 0.0
H696 H 0.04689 0.07531 0.70991 0.0
H697 H 0.06968 0.08002 0.73201 0.0
H698 H 0.2377 0.02934 0.67938 0.0
H699 H 0.25873 0.029 0.7014 0.0
H700 H 0.16374 0.99044 0.66524 0.0
H701 H 0.11041 0.0022 0.66113 0.0
C702 C 0.98132 0.15108 0.72082 0.0
C703 C 0.02156 0.2076 0.71968 0.0
C704 C 0.04175 0.19351 0.68822 0.0
C705 C 0.00513 0.13628 0.69005 0.0
N706 N 0.94881 0.05929 0.7096 0.0
N707 N 0.09104 0.28376 0.7026 0.0
C708 C 0.9768 0.11479 0.70668 0.0
C709 C 0.05221 0.2291 0.70345 0.0
N710 N 0.94767 0.13139 0.73554 0.0
N711 N 0.06465 0.21392 0.67176 0.0
H712 H 0.09596 0.31209 0.71266 0.0
H713 H 0.11958 0.301 0.69224 0.0
H714 H 0.05802 0.18883 0.66048 0.0
H715 H 0.08734 0.25562 0.66886 0.0
H716 H 0.91236 0.09262 0.73583 0.0
H717 H 0.95216 0.15465 0.74708 0.0
H718 H 0.933 0.04174 0.72209 0.0
H719 H 0.94744 0.03058 0.70039 0.0
C720 C 0.80573 0.56755 0.53746 0.0
C721 C 0.85527 0.57257 0.54385 0.0
C722 C 0.84342 0.50226 0.52121 0.0
C723 C 0.79583 0.50032 0.51477 0.0
N724 N 0.74631 0.54739 0.51182 0.0
N725 N 0.92853 0.55421 0.53747 0.0
C726 C 0.78371 0.54027 0.52086 0.0
C727 C 0.87667 0.54313 0.53434 0.0
N728 N 0.77527 0.58186 0.54805 0.0
N729 N 0.8555 0.46358 0.5156 0.0
H730 H 0.95487 0.58394 0.54659 0.0
H731 H 0.94735 0.53772 0.52963 0.0
H732 H 0.83415 0.43534 0.50528 0.0
H733 H 0.88528 0.45827 0.52171 0.0
H734 H 0.73728 0.5752 0.54404 0.0
H735 H 0.78251 0.59124 0.56175 0.0
H736 H 0.73827 0.57844 0.51519 0.0
H737 H 0.7276 0.52531 0.50001 0.0
C738 C 0.43523 0.31177 0.52774 0.0
C739 C 0.45588 0.33918 0.54463 0.0
C740 C 0.54523 0.39766 0.53012 0.0
C741 C 0.52823 0.36108 0.5152 0.0
N742 N 0.45641 0.28533 0.49878 0.0
N743 N 0.53407 0.40681 0.56208 0.0
C744 C 0.47261 0.31935 0.51356 0.0
C745 C 0.51157 0.38283 0.5458 0.0
N746 N 0.38006 0.2794 0.52516 0.0
N747 N 0.59503 0.44505 0.52957 0.0
H748 H 0.51288 0.3948 0.57426 0.0
H749 H 0.57568 0.4349 0.56383 0.0
H750 H 0.61992 0.45585 0.51812 0.0
H751 H 0.60854 0.47575 0.53947 0.0
H752 H 0.36253 0.2618 0.51273 0.0
H753 H 0.35163 0.27482 0.53499 0.0
H754 H 0.41815 0.24964 0.49763 0.0
H755 H 0.48285 0.29238 0.48794 0.0
C756 C 0.71099 0.19928 0.53774 0.0
C757 C 0.65959 0.15139 0.5411 0.0
C758 C 0.62218 0.16644 0.51349 0.0
C759 C 0.67092 0.21796 0.51175 0.0
N760 N 0.76824 0.26895 0.51605 0.0
N761 N 0.57651 0.07758 0.52804 0.0
C762 C 0.71784 0.22836 0.5216 0.0
C763 C 0.61828 0.13106 0.52759 0.0
N764 N 0.75144 0.21989 0.55046 0.0
N765 N 0.57953 0.15213 0.5021 0.0
H766 H 0.57553 0.0502 0.53748 0.0
H767 H 0.5468 0.05901 0.51803 0.0
H768 H 0.5845 0.17372 0.49035 0.0
H769 H 0.54018 0.11885 0.50416 0.0
H770 H 0.78731 0.25799 0.54934 0.0
H771 H 0.74775 0.20131 0.56282 0.0
H772 H 0.80465 0.27622 0.52183 0.0
H773 H 0.77305 0.29166 0.5045 0.0
C774 C 0.85206 0.50509 0.63262 0.0
C775 C 0.84337 0.55027 0.63215 0.0
C776 C 0.80516 0.52722 0.66304 0.0
C777 C 0.8083 0.47934 0.66213 0.0
N778 N 0.86279 0.44236 0.65147 0.0
N779 N 0.80852 0.60305 0.64747 0.0
C780 C 0.84147 0.47518 0.6487 0.0
C781 C 0.81947 0.56145 0.64758 0.0
N782 N 0.86535 0.48709 0.61726 0.0
N783 N 0.79426 0.54278 0.67927 0.0
H784 H 0.81902 0.63067 0.63707 0.0
H785 H 0.78497 0.60792 0.65732 0.0
H786 H 0.79105 0.52143 0.69098 0.0
H787 H 0.79654 0.5802 0.68165 0.0
H788 H 0.86741 0.45142 0.61676 0.0
H789 H 0.86708 0.50313 0.60455 0.0
H790 H 0.89085 0.44081 0.64272 0.0
H791 H 0.85717 0.42212 0.66367 0.0
C792 C 0.44856 0.26911 0.64394 0.0
C793 C 0.46143 0.31479 0.63255 0.0
C794 C 0.53931 0.3719 0.65237 0.0
C795 C 0.535 0.32457 0.66016 0.0
N796 N 0.48492 0.22586 0.66262 0.0
N797 N 0.52877 0.40912 0.62482 0.0
C798 C 0.48899 0.27249 0.65599 0.0
C799 C 0.50896 0.36648 0.63661 0.0
N800 N 0.39772 0.22284 0.6437 0.0
N801 N 0.57451 0.42235 0.65967 0.0
H802 H 0.51303 0.40586 0.61195 0.0
H803 H 0.56579 0.44578 0.62687 0.0
H804 H 0.59592 0.42632 0.67148 0.0
H805 H 0.57698 0.45835 0.65529 0.0
H806 H 0.38546 0.19142 0.65301 0.0
H807 H 0.36568 0.21815 0.63575 0.0
H808 H 0.45578 0.18657 0.65808 0.0
H809 H 0.51251 0.22641 0.67186 0.0
C810 C 0.6627 0.12497 0.65038 0.0
C811 C 0.68827 0.15155 0.634 0.0
C812 C 0.74348 0.23747 0.65096 0.0
C813 C 0.70653 0.21476 0.66552 0.0
N814 N 0.63959 0.13576 0.6813 0.0
N815 N 0.75746 0.23308 0.61882 0.0
C816 C 0.66995 0.15754 0.66608 0.0
C817 C 0.73139 0.20746 0.63438 0.0
N818 N 0.63138 0.06894 0.65073 0.0
N819 N 0.78789 0.28911 0.65284 0.0
H820 H 0.74955 0.21289 0.60638 0.0
H821 H 0.7849 0.27521 0.61801 0.0
H822 H 0.79575 0.31092 0.66499 0.0
H823 H 0.81885 0.30764 0.64324 0.0
H824 H 0.6141 0.04668 0.66243 0.0
H825 H 0.62666 0.04448 0.63942 0.0
H826 H 0.60724 0.09538 0.6823 0.0
H827 H 0.64724 0.15982 0.69296 0.0
C828 C 0.50293 0.21527 0.12952 0.0
C829 C 0.48627 0.15888 0.13125 0.0
C830 C 0.51953 0.17558 0.16243 0.0
C831 C 0.54041 0.23216 0.16004 0.0
N832 N 0.53474 0.30304 0.1449 0.0
N833 N 0.45933 0.08274 0.15127 0.0
C834 C 0.52507 0.25063 0.14485 0.0
C835 C 0.48795 0.1381 0.14843 0.0
N836 N 0.50221 0.23611 0.11309 0.0
N837 N 0.53316 0.15845 0.17757 0.0
H838 H 0.43447 0.0545 0.14137 0.0
H839 H 0.45583 0.0654 0.16386 0.0
H840 H 0.55479 0.18555 0.18818 0.0
H841 H 0.52508 0.11854 0.17925 0.0
H842 H 0.51944 0.27795 0.11079 0.0
H843 H 0.48798 0.2123 0.10136 0.0
H844 H 0.52128 0.3184 0.13479 0.0
H845 H 0.55159 0.32907 0.15613 0.0
C846 C 0.83811 0.3223 0.13532 0.0
C847 C 0.8926 0.36792 0.13715 0.0
C848 C 0.87241 0.38202 0.16836 0.0
C849 C 0.81746 0.33961 0.16586 0.0
N850 N 0.75426 0.25618 0.1506 0.0
N851 N 0.96604 0.42765 0.1574 0.0
C852 C 0.80325 0.30447 0.15068 0.0
C853 C 0.91134 0.39337 0.15438 0.0
N854 N 0.81771 0.29931 0.11875 0.0
N855 N 0.88603 0.41355 0.18368 0.0
H856 H 0.99554 0.43525 0.14759 0.0
H857 H 0.98237 0.44416 0.17005 0.0
H858 H 0.85794 0.40363 0.19417 0.0
H859 H 0.92358 0.44961 0.18563 0.0
H860 H 0.77678 0.26957 0.11658 0.0
H861 H 0.83976 0.31343 0.10679 0.0
H862 H 0.74256 0.22635 0.14046 0.0
H863 H 0.72812 0.24428 0.16174 0.0
C864 C 0.6642 0.5304 0.13929 0.0
C865 C 0.71662 0.57754 0.13596 0.0
C866 C 0.75498 0.55007 0.16053 0.0
C867 C 0.70261 0.50315 0.16353 0.0
N868 N 0.60531 0.46383 0.16141 0.0
N869 N 0.8047 0.64275 0.14898 0.0
C870 C 0.65655 0.49977 0.1551 0.0
C871 C 0.75978 0.59097 0.14844 0.0
N872 N 0.62324 0.51076 0.12676 0.0
N873 N 0.80046 0.55442 0.16819 0.0
H874 H 0.80784 0.67458 0.14118 0.0
H875 H 0.83523 0.65545 0.15871 0.0
H876 H 0.79869 0.526 0.1773 0.0
H877 H 0.84006 0.58494 0.16471 0.0
H878 H 0.58634 0.47378 0.12832 0.0
H879 H 0.62786 0.52655 0.11388 0.0
H880 H 0.57028 0.46221 0.15649 0.0
H881 H 0.59916 0.43998 0.17276 0.0
C882 C 0.53781 0.10263 0.03059 0.0
C883 C 0.493 0.10393 0.03874 0.0
C884 C 0.50671 0.17539 0.01758 0.0
C885 C 0.56006 0.18544 0.01401 0.0
N886 N 0.62383 0.1539 0.01436 0.0
N887 N 0.41839 0.11777 0.03202 0.0
C888 C 0.57423 0.14661 0.01925 0.0
C889 C 0.47195 0.13296 0.02973 0.0
N890 N 0.54349 0.05812 0.03284 0.0
N891 N 0.49106 0.20858 0.00991 0.0
H892 H 0.3909 0.08223 0.03892 0.0
H893 H 0.39962 0.1359 0.02544 0.0
H894 H 0.51513 0.23663 1.00003 0.0
H895 H 0.45551 0.20865 0.01322 0.0
H896 H 0.57333 0.05332 0.0263 0.0
H897 H 0.51349 0.02265 0.0392 0.0
H898 H 0.63959 0.13093 0.01957 0.0
H899 H 0.64987 0.18456 1.00544 0.0
C900 C 0.90448 0.37103 0.03335 0.0
C901 C 0.91195 0.41081 0.04679 0.0
C902 C 0.86562 0.44234 0.0269 0.0
C903 C 0.84504 0.39366 0.01656 0.0
N904 N 0.84744 0.31263 0.00872 0.0
N905 N 0.89073 0.47983 0.05696 0.0
C906 C 0.86606 0.35871 0.01925 0.0
C907 C 0.89107 0.44617 0.04363 0.0
N908 N 0.93485 0.34629 0.03372 0.0
N909 N 0.85862 0.48367 0.02109 0.0
H910 H 0.90292 0.47991 0.07017 0.0
H911 H 0.87168 0.50264 0.05547 0.0
H912 H 0.84174 0.48178 0.00848 0.0
H913 H 0.87594 0.52177 0.02765 0.0
H914 H 0.93374 0.32013 0.02348 0.0
H915 H 0.96559 0.35668 0.04318 0.0
H916 H 0.85595 0.28174 0.0113 0.0
H917 H 0.82148 0.30487 0.99776 0.0
C918 C 0.64756 0.53163 0.04011 0.0
C919 C 0.70125 0.56474 0.04769 0.0
C920 C 0.73425 0.52382 0.02551 0.0
C921 C 0.68038 0.48182 0.02168 0.0
N922 N 0.5839 0.44466 0.02523 0.0
N923 N 0.79125 0.57437 0.05045 0.0
C924 C 0.63624 0.48562 0.02879 0.0
C925 C 0.74396 0.55689 0.04099 0.0
N926 N 0.60795 0.54429 0.04321 0.0
N927 N 0.77649 0.5284 0.01536 0.0
H928 H 0.79647 0.58799 0.06381 0.0
H929 H 0.82141 0.56622 0.04614 0.0
H930 H 0.76964 0.50254 1.00427 0.0
H931 H 0.81663 0.56096 0.01702 0.0
H932 H 0.56997 0.52376 0.03683 0.0
H933 H 0.61488 0.57887 0.0505 0.0
H934 H 0.54989 0.44189 0.03168 0.0
H935 H 0.57524 0.41223 0.01635 0.0
C936 C 0.55076 0.91988 0.85504 0.0
C937 C 0.55646 0.90044 0.87197 0.0
C938 C 0.52381 0.80965 0.85812 0.0
C939 C 0.50565 0.82561 0.843 0.0
N940 N 0.50498 0.89617 0.82589 0.0
N941 N 0.54481 0.8243 0.88994 0.0
C942 C 0.5213 0.88128 0.84093 0.0
C943 C 0.54354 0.84499 0.87351 0.0
N944 N 0.57366 0.97503 0.85249 0.0
N945 N 0.51879 0.75913 0.85808 0.0
H946 H 0.55569 0.84716 0.9019 0.0
H947 H 0.53003 0.78276 0.89206 0.0
H948 H 0.50265 0.73233 0.84705 0.0
H949 H 0.53534 0.74637 0.86803 0.0
H950 H 0.57449 0.99208 0.84007 0.0
H951 H 0.59641 0.00411 0.86249 0.0
H952 H 0.50893 0.93449 0.82432 0.0
H953 H 0.48555 0.8686 0.81518 0.0
C954 C 0.19877 0.71853 0.86723 0.0
C955 C 0.14655 0.66942 0.86559 0.0
C956 C 0.17124 0.65369 0.83516 0.0
C957 C 0.22474 0.69875 0.83786 0.0
N958 N 0.28225 0.78599 0.85199 0.0
N959 N 0.077 0.60215 0.8457 0.0
C960 C 0.23524 0.73583 0.85226 0.0
C961 C 0.13064 0.64098 0.84869 0.0
N962 N 0.21584 0.74579 0.88342 0.0
N963 N 0.16076 0.62146 0.82013 0.0
H964 H 0.04647 0.5933 0.85524 0.0
H965 H 0.06199 0.58241 0.83332 0.0
H966 H 0.19037 0.63155 0.81012 0.0
H967 H 0.12423 0.58462 0.81786 0.0
H968 H 0.25551 0.77833 0.88571 0.0
H969 H 0.19227 0.73345 0.89512 0.0
H970 H 0.29121 0.81714 0.86141 0.0
H971 H 0.3094 0.79766 0.8411 0.0
C972 C 0.40267 0.53326 0.87192 0.0
C973 C 0.35296 0.48243 0.87376 0.0
C974 C 0.31651 0.50183 0.84671 0.0
C975 C 0.36461 0.5545 0.84578 0.0
N976 N 0.46125 0.60697 0.85178 0.0
N977 N 0.27437 0.40948 0.85844 0.0
C978 C 0.41046 0.56516 0.8564 0.0
C979 C 0.31351 0.46386 0.8597 0.0
N980 N 0.44072 0.55346 0.88542 0.0
N981 N 0.2732 0.48827 0.83574 0.0
H982 H 0.27468 0.38055 0.86685 0.0
H983 H 0.24667 0.39242 0.8478 0.0
H984 H 0.27646 0.51149 0.82465 0.0
H985 H 0.23434 0.45405 0.83772 0.0
H986 H 0.47466 0.59323 0.8854 0.0
H987 H 0.43647 0.53264 0.89732 0.0
H988 H 0.49699 0.61454 0.85817 0.0
H989 H 0.46734 0.62963 0.84016 0.0
C990 C 0.55309 0.90338 0.97653 0.0
C991 C 0.5204 0.89617 0.96105 0.0
C992 C 0.43743 0.84594 0.97948 0.0
C993 C 0.46968 0.84852 0.99436 0.0
N994 N 0.55761 0.87267 0.00649 0.0
N995 N 0.43132 0.84843 0.94702 0.0
C996 C 0.52734 0.87531 0.99272 0.0
C997 C 0.46247 0.86374 0.96232 0.0
N998 N 0.60837 0.93916 0.97627 0.0
N999 N 0.38335 0.8288 0.9819 0.0
H1000 H 0.4484 0.85866 0.93413 0.0
H1001 H 0.38926 0.82062 0.94702 0.0
H1002 H 0.36429 0.81807 0.99449 0.0
H1003 H 0.35908 0.83083 0.97186 0.0
H1004 H 0.63262 0.95148 0.98782 0.0
H1005 H 0.62993 0.96032 0.9649 0.0
H1006 H 0.59878 0.88489 1.00519 0.0
H1007 H 0.5407 0.85448 0.01885 0.0
C1008 C 0.1561 0.59846 0.96025 0.0
C1009 C 0.13951 0.63663 0.95565 0.0
C1010 C 0.19341 0.69385 0.98155 0.0
C1011 C 0.20658 0.65367 0.98625 0.0
N1012 N 0.1774 0.55826 0.98506 0.0
N1013 N 0.12851 0.71151 0.96673 0.0
C1014 C 0.17933 0.60247 0.97741 0.0
C1015 C 0.15382 0.68175 0.96775 0.0
N1016 N 0.15505 0.56167 0.9479 0.0
N1017 N 0.2196 0.74394 0.99003 0.0
H1018 H 0.09604 0.70124 0.95802 0.0
H1019 H 0.13521 0.74213 0.9761 0.0
H1020 H 0.24631 0.75235 1.00081 0.0
H1021 H 0.21649 0.77714 0.98581 0.0
H1022 H 0.16956 0.53552 0.95084 0.0
H1023 H 0.14826 0.56307 0.93418 0.0
H1024 H 0.155 0.51879 0.97945 0.0
H1025 H 0.19267 0.56078 0.99802 0.0
C1026 C 0.31555 0.51123 0.96686 0.0
C1027 C 0.3529 0.49357 0.96272 0.0
C1028 C 0.41687 0.56078 0.98504 0.0
C1029 C 0.37698 0.57425 0.98982 0.0
N1030 N 0.28189 0.54684 0.98981 0.0
N1031 N 0.43297 0.49119 0.97215 0.0
C1032 C 0.32386 0.54303 0.98254 0.0
C1033 C 0.40196 0.51515 0.9731 0.0
N1034 N 0.27549 0.50331 0.95499 0.0
N1035 N 0.46876 0.5919 0.99157 0.0
H1036 H 0.42087 0.45527 0.96475 0.0
H1037 H 0.467 0.50323 0.98032 0.0
H1038 H 0.47927 0.6238 1.00088 0.0
H1039 H 0.50117 0.58752 0.98712 0.0
H1040 H 0.25024 0.5195 0.95723 0.0
H1041 H 0.27267 0.48833 0.94188 0.0
H1042 H 0.2415 0.5192 0.98611 0.0
H1043 H 0.28719 0.57238 1.00083 0.0
C1044 C 0.11479 0.49208 0.47661 0.0
C1045 C 0.14166 0.46875 0.46685 0.0
C1046 C 0.21472 0.50981 0.48929 0.0
C1047 C 0.19683 0.54551 0.49504 0.0
N1048 N 0.12777 0.57004 0.49478 0.0
N1049 N 0.22729 0.46988 0.46238 0.0
C1050 C 0.14572 0.53608 0.48907 0.0
C1051 C 0.19403 0.48042 0.47295 0.0
N1052 N 0.06004 0.47125 0.4746 0.0
N1053 N 0.25583 0.50909 0.49835 0.0
H1054 H 0.21933 0.45805 0.44885 0.0
H1055 H 0.26698 0.48133 0.46618 0.0
H1056 H 0.27287 0.53275 0.51004 0.0
H1057 H 0.26864 0.48146 0.49514 0.0
H1058 H 0.03836 0.48483 0.48231 0.0
H1059 H 0.03541 0.43602 0.46691 0.0
H1060 H 0.0934 0.56873 0.48939 0.0
H1061 H 0.14913 0.60082 0.50445 0.0
C1062 C 0.47741 0.65048 0.46389 0.0
C1063 C 0.533 0.69341 0.46583 0.0
C1064 C 0.51561 0.70786 0.49727 0.0
C1065 C 0.45969 0.66849 0.49473 0.0
N1066 N 0.39164 0.5884 0.47901 0.0
N1067 N 0.60852 0.7485 0.48601 0.0
C1068 C 0.44259 0.63433 0.47923 0.0
C1069 C 0.55337 0.7174 0.48312 0.0
N1070 N 0.45654 0.62847 0.44726 0.0
N1071 N 0.53159 0.73807 0.51287 0.0
H1072 H 0.63717 0.75475 0.47603 0.0
H1073 H 0.62579 0.76358 0.49866 0.0
H1074 H 0.50432 0.72878 0.52357 0.0
H1075 H 0.57038 0.77237 0.51494 0.0
H1076 H 0.41509 0.60103 0.44493 0.0
H1077 H 0.47945 0.64105 0.43542 0.0
H1078 H 0.37745 0.55915 0.46863 0.0
H1079 H 0.36606 0.57731 0.49029 0.0
C1080 C 0.42554 0.92914 0.48581 0.0
C1081 C 0.38017 0.92543 0.47656 0.0
C1082 C 0.3188 0.85501 0.49781 0.0
C1083 C 0.36213 0.84632 0.50231 0.0
N1084 N 0.45903 0.88075 0.50323 0.0
N1085 N 0.28946 0.90944 0.48153 0.0
C1086 C 0.41653 0.88612 0.49759 0.0
C1087 C 0.32815 0.89599 0.485 0.0
N1088 N 0.47618 0.97506 0.48421 0.0
N1089 N 0.26833 0.82157 0.50515 0.0
H1090 H 0.29842 0.94412 0.47415 0.0
H1091 H 0.25102 0.8908 0.48756 0.0
H1092 H 0.26259 0.79399 0.51532 0.0
H1093 H 0.23284 0.82064 0.50126 0.0
H1094 H 0.51004 0.98154 0.49157 0.0
H1095 H 0.48215 0.00989 0.47753 0.0
H1096 H 0.49874 0.90445 0.49826 0.0
H1097 H 0.45397 0.85123 0.51249 0.0
C1098 C 0.1402 0.50648 0.37241 0.0
C1099 C 0.13831 0.45574 0.37491 0.0
C1100 C 0.19018 0.47093 0.34655 0.0
C1101 C 0.1973 0.52376 0.34566 0.0
N1102 N 0.15843 0.57966 0.35168 0.0
N1103 N 0.14442 0.38149 0.36085 0.0
C1104 C 0.16351 0.53608 0.35629 0.0
C1105 C 0.15771 0.43514 0.36076 0.0
N1106 N 0.12566 0.52977 0.38597 0.0
N1107 N 0.2153 0.45595 0.33396 0.0
H1108 H 0.11895 0.3539 0.3706 0.0
H1109 H 0.15461 0.36304 0.35054 0.0
H1110 H 0.23332 0.48001 0.3226 0.0
H1111 H 0.21771 0.4206 0.33461 0.0
H1112 H 0.13171 0.56918 0.38524 0.0
H1113 H 0.1129 0.51292 0.3987 0.0
H1114 H 0.13133 0.58898 0.35805 0.0
H1115 H 0.1779 0.60287 0.34026 0.0
C1116 C 0.55891 0.69502 0.36164 0.0
C1117 C 0.56382 0.73358 0.37517 0.0
C1118 C 0.51913 0.76515 0.35449 0.0
C1119 C 0.5 0.71699 0.344 0.0
N1120 N 0.50602 0.63793 0.33611 0.0
N1121 N 0.53848 0.79996 0.38494 0.0
C1122 C 0.52218 0.683 0.34695 0.0
C1123 C 0.54208 0.76805 0.37163 0.0
N1124 N 0.58997 0.6711 0.36253 0.0
N1125 N 0.51354 0.80707 0.34841 0.0
H1126 H 0.54805 0.79875 0.39839 0.0
H1127 H 0.51894 0.82213 0.38303 0.0
H1128 H 0.49903 0.80632 0.33547 0.0
H1129 H 0.53029 0.84477 0.3552 0.0
H1130 H 0.59083 0.64591 0.35232 0.0
H1131 H 0.61925 0.68112 0.37254 0.0
H1132 H 0.51524 0.60757 0.33873 0.0
H1133 H 0.48134 0.63047 0.3248 0.0
C1134 C 0.39861 0.87337 0.37537 0.0
C1135 C 0.35539 0.87933 0.38268 0.0
C1136 C 0.29195 0.80482 0.362 0.0
C1137 C 0.33675 0.80304 0.35433 0.0
N1138 N 0.43323 0.8538 0.34827 0.0
N1139 N 0.2638 0.86234 0.37741 0.0
C1140 C 0.39018 0.84481 0.3589 0.0
C1141 C 0.30261 0.84861 0.37435 0.0
N1142 N 0.44545 0.88887 0.38483 0.0
N1143 N 0.23975 0.76454 0.35795 0.0
H1144 H 0.27189 0.89749 0.38464 0.0
H1145 H 0.22624 0.84307 0.37074 0.0
H1146 H 0.23116 0.73351 0.34849 0.0
H1147 H 0.20569 0.76088 0.36464 0.0
H1148 H 0.47613 0.88236 0.37988 0.0
H1149 H 0.44981 0.89922 0.39851 0.0
H1150 H 0.4729 0.88647 0.35066 0.0
H1151 H 0.42746 0.83204 0.33619 0.0
C1152 C 0.26745 0.10706 0.11099 0.0
C1153 C 0.26382 0.05712 0.10528 0.0
C1154 C 0.17001 0.00531 0.11677 0.0
C1155 C 0.17065 0.05509 0.11985 0.0
N1156 N 0.21848 0.15394 0.11886 0.0
N1157 N 0.20785 0.95935 0.09972 0.0
C1158 C 0.21911 0.1063 0.11681 0.0
C1159 C 0.21414 0.00634 0.10745 0.0
N1160 N 0.3172 0.15472 0.11147 0.0
N1161 N 0.12738 0.95694 0.12305 0.0
H1162 H 0.2381 0.95883 0.09187 0.0
H1163 H 0.17062 0.92224 0.09939 0.0
H1164 H 0.09489 0.95487 0.13038 0.0
H1165 H 0.12726 0.92012 0.12271 0.0
H1166 H 0.32323 0.1912 0.11721 0.0
H1167 H 0.35346 0.15672 0.10757 0.0
H1168 H 0.25063 0.19213 0.11489 0.0
H1169 H 0.18422 0.15475 0.12353 0.0
C1170 C 0.95281 0.1832 0.09926 0.0
C1171 C 0.96839 0.23219 0.10925 0.0
C1172 C 0.98629 0.19259 0.13577 0.0
C1173 C 0.97136 0.14419 0.12562 0.0
N1174 N 0.91988 0.08575 0.10063 0.0
N1175 N 0.97917 0.27387 0.13883 0.0
C1176 C 0.94719 0.13695 0.10839 0.0
C1177 C 0.97862 0.23394 0.12811 0.0
N1178 N 0.9475 0.18163 0.08092 0.0
N1179 N 0.00999 0.20043 0.15228 0.0
H1180 H 0.97035 0.30278 0.13395 0.0
H1181 H 0.98187 0.27425 0.15285 0.0
H1182 H 0.01379 0.17001 0.15853 0.0
H1183 H 0.02801 0.23782 0.15929 0.0
H1184 H 0.9415 0.14831 0.07298 0.0
H1185 H 0.95478 0.21538 0.07335 0.0
H1186 H 0.89764 0.07705 0.0887 0.0
H1187 H 0.91466 0.05113 0.10728 0.0
C1188 C 0.80298 0.79157 0.13124 0.0
C1189 C 0.79963 0.7829 0.11216 0.0
C1190 C 0.8967 0.85298 0.10991 0.0
C1191 C 0.89636 0.87036 0.12785 0.0
N1192 N 0.84824 0.85671 0.15594 0.0
N1193 N 0.84271 0.81607 0.08301 0.0
C1194 C 0.84939 0.8395 0.13874 0.0
C1195 C 0.84653 0.81611 0.10139 0.0
N1196 N 0.76352 0.7534 0.14227 0.0
N1197 N 0.94513 0.87355 0.10082 0.0
H1198 H 0.80568 0.79472 0.07608 0.0
H1199 H 0.87526 0.84308 0.07485 0.0
H1200 H 0.98266 0.90048 0.10696 0.0
H1201 H 0.9481 0.85916 0.08808 0.0
H1202 H 0.76671 0.75564 0.15629 0.0
H1203 H 0.7307 0.71648 0.13748 0.0
H1204 H 0.81287 0.83945 0.1638 0.0
H1205 H 0.88219 0.89023 0.16194 0.0
C1206 C 0.01443 0.24368 0.38453 0.0
C1207 C 0.02149 0.25501 0.40343 0.0
C1208 C 0.05192 0.18889 0.40617 0.0
C1209 C 0.03455 0.16982 0.38835 0.0
N1210 N 0.99414 0.17632 0.36075 0.0
N1211 N 0.03404 0.22668 0.43281 0.0
C1212 C 0.01467 0.19666 0.37749 0.0
C1213 C 0.03705 0.22463 0.41442 0.0
N1214 N 0.0098 0.27855 0.37316 0.0
N1215 N 0.08193 0.1719 0.41534 0.0
H1216 H 0.01782 0.24768 0.43956 0.0
H1217 H 0.04085 0.20164 0.44122 0.0
H1218 H 0.09435 0.14639 0.40941 0.0
H1219 H 0.09932 0.18802 0.42793 0.0
H1220 H 0.00994 0.27471 0.35916 0.0
H1221 H 0.01222 0.31485 0.37749 0.0
H1222 H 0.97315 0.19025 0.35315 0.0
H1223 H 0.99584 0.1436 0.35492 0.0
C1224 C 0.76879 0.85864 0.40344 0.0
C1225 C 0.75701 0.80331 0.40113 0.0
C1226 C 0.82798 0.83501 0.37755 0.0
C1227 C 0.83997 0.8892 0.38035 0.0
N1228 N 0.81256 0.95101 0.3912 0.0
N1229 N 0.79199 0.74571 0.39059 0.0
C1230 C 0.80652 0.90004 0.39158 0.0
C1231 C 0.79035 0.79289 0.38914 0.0
N1232 N 0.75032 0.87375 0.41822 0.0
N1233 N 0.85394 0.8244 0.36394 0.0
H1234 H 0.77399 0.71861 0.40125 0.0
H1235 H 0.81831 0.73774 0.38309 0.0
H1236 H 0.88268 0.85557 0.35567 0.0
H1237 H 0.84268 0.78475 0.35971 0.0
H1238 H 0.75954 0.9138 0.4208 0.0
H1239 H 0.73486 0.84971 0.42963 0.0
H1240 H 0.7861 0.96092 0.3977 0.0
H1241 H 0.84082 0.9815 0.38263 0.0
C1242 C 0.16285 0.92233 0.39917 0.0
C1243 C 0.21267 0.9706 0.40429 0.0
C1244 C 0.17878 0.02728 0.39175 0.0
C1245 C 0.1266 0.97985 0.38919 0.0
N1246 N 0.06674 0.882 0.39138 0.0
N1247 N 0.26265 0.06939 0.40885 0.0
C1248 C 0.11805 0.92714 0.39301 0.0
C1249 C 0.21945 0.02326 0.40134 0.0
N1250 N 0.15874 0.87219 0.39968 0.0
N1251 N 0.18936 0.07646 0.38504 0.0
H1252 H 0.29138 0.06849 0.41723 0.0
H1253 H 0.26641 0.10792 0.40857 0.0
H1254 H 0.1603 0.08058 0.37784 0.0
H1255 H 0.22833 0.11147 0.38494 0.0
H1256 H 0.12572 0.83642 0.39434 0.0
H1257 H 0.19036 0.86692 0.40412 0.0
H1258 H 0.0562 0.84317 0.3959 0.0
H1259 H 0.03379 0.88424 0.3864 0.0
C1260 C 0.80191 0.96687 0.91216 0.0
C1261 C 0.77776 0.99313 0.90312 0.0
C1262 C 0.85616 0.03343 0.88236 0.0
C1263 C 0.87588 0.00119 0.88991 0.0
N1264 N 0.85345 0.92163 0.90784 0.0
N1265 N 0.77465 0.03518 0.87516 0.0
C1266 C 0.84405 0.96266 0.90341 0.0
C1267 C 0.80247 0.02145 0.88682 0.0
N1268 N 0.78803 0.94918 0.92949 0.0
N1269 N 0.8892 0.07762 0.87199 0.0
H1270 H 0.73332 0.02204 0.87671 0.0
H1271 H 0.79071 0.05284 0.86268 0.0
H1272 H 0.93051 0.09149 0.87034 0.0
H1273 H 0.87727 0.10439 0.86727 0.0
H1274 H 0.80796 0.93322 0.9367 0.0
H1275 H 0.76294 0.95758 0.93752 0.0
H1276 H 0.82845 0.8906 0.9168 0.0
H1277 H 0.88156 0.91482 0.90091 0.0
C1278 C 0.98112 0.77455 0.89149 0.0
C1279 C 0.03254 0.77741 0.89205 0.0
C1280 C 0.07599 0.86781 0.87772 0.0
C1281 C 0.02449 0.8643 0.87687 0.0
N1282 N 0.92666 0.809 0.87833 0.0
N1283 N 0.12461 0.81882 0.88028 0.0
C1284 C 0.97654 0.81542 0.88205 0.0
C1285 C 0.07868 0.82155 0.88345 0.0
N1286 N 0.93766 0.73538 0.90106 0.0
N1287 N 0.1228 0.91637 0.87412 0.0
H1288 H 0.1276 0.78491 0.88368 0.0
H1289 H 0.15736 0.84751 0.87255 0.0
H1290 H 0.12242 0.95104 0.8699 0.0
H1291 H 0.16186 0.92332 0.87657 0.0
H1292 H 0.90089 0.73466 0.90257 0.0
H1293 H 0.94004 0.70682 0.90904 0.0
H1294 H 0.88976 0.77242 0.88035 0.0
H1295 H 0.92286 0.83883 0.8715 0.0
C1296 C 0.21165 0.25771 0.8958 0.0
C1297 C 0.26018 0.26266 0.90298 0.0
C1298 C 0.22253 0.16405 0.89725 0.0
C1299 C 0.17251 0.15892 0.89196 0.0
N1300 N 0.11537 0.19844 0.88933 0.0
N1301 N 0.30639 0.21715 0.91412 0.0
C1302 C 0.16592 0.20505 0.89205 0.0
C1303 C 0.2645 0.21498 0.90454 0.0
N1304 N 0.20972 0.3034 0.89186 0.0
N1305 N 0.22986 0.12021 0.89533 0.0
H1306 H 0.33606 0.25247 0.92074 0.0
H1307 H 0.30842 0.18252 0.9172 0.0
H1308 H 0.1992 0.08195 0.89048 0.0
H1309 H 0.26753 0.12309 0.89706 0.0
H1310 H 0.17806 0.30266 0.88467 0.0
H1311 H 0.24276 0.34239 0.8941 0.0
H1312 H 0.10691 0.22972 0.89157 0.0
H1313 H 0.08054 0.16059 0.88635 0.0
C1314 C 0.05137 0.82113 0.61351 0.0
C1315 C -0.00111 0.7726 0.61441 0.0
C1316 C 0.95875 0.82607 0.62496 0.0
C1317 C 0.01116 0.87421 0.62495 0.0
N1318 N 0.10909 0.91626 0.62331 0.0
N1319 N 0.90974 0.72791 0.628 0.0
C1320 C 0.0582 0.87124 0.62064 0.0
C1321 C 0.95476 0.77481 0.62233 0.0
N1322 N 0.09368 0.82033 0.60497 0.0
N1323 N 0.91245 0.82909 0.62626 0.0
H1324 H 0.90925 0.69099 0.62799 0.0
H1325 H 0.87791 0.72781 0.6351 0.0
H1326 H 0.9132 0.86622 0.62702 0.0
H1327 H 0.87329 0.79486 0.62463 0.0
H1328 H 0.13098 0.85574 0.60223 0.0
H1329 H 0.09038 0.78474 0.59944 0.0
H1330 H 0.14501 0.91521 0.62199 0.0
H1331 H 0.11494 0.95337 0.62849 0.0
C1332 C 0.19744 0.24616 0.61219 0.0
C1333 C 0.24896 0.25629 0.61817 0.0
C1334 C 0.2038 0.18462 0.64101 0.0
C1335 C 0.15225 0.17228 0.63426 0.0
N1336 N 0.10069 0.20511 0.61891 0.0
N1337 N 0.30052 0.2528 0.64317 0.0
C1338 C 0.14956 0.20817 0.62172 0.0
C1339 C 0.25207 0.23118 0.63419 0.0
N1340 N 0.19402 0.27175 0.59721 0.0
N1341 N 0.20712 0.15073 0.65313 0.0
H1342 H 0.33599 0.28781 0.63875 0.0
H1343 H 0.30396 0.23926 0.65582 0.0
H1344 H 0.17262 0.11747 0.6588 0.0
H1345 H 0.24409 0.15438 0.65686 0.0
H1346 H 0.15708 0.26141 0.59109 0.0
H1347 H 0.22836 0.30116 0.5902 0.0
H1348 H 0.0965 0.23286 0.61104 0.0
H1349 H 0.06539 0.17794 0.62604 0.0
C1350 C 0.82589 0.07917 0.61455 0.0
C1351 C 0.78351 0.0356 0.60428 0.0
C1352 C 0.82395 0.97877 0.60952 0.0
C1353 C 0.86991 0.02477 0.6176 0.0
N1354 N 0.91785 0.12049 0.62655 0.0
N1355 N 0.74441 0.94585 0.59029 0.0
C1356 C 0.87161 0.07537 0.61995 0.0
C1357 C 0.78279 0.98564 0.60143 0.0
N1358 N 0.82169 0.12351 0.61955 0.0
N1359 N 0.81927 0.9283 0.60991 0.0
H1360 H 0.714 0.9497 0.58397 0.0
H1361 H 0.74532 0.91109 0.58612 0.0
H1362 H 0.84858 0.92191 0.6159 0.0
H1363 H 0.78424 0.89206 0.60586 0.0
H1364 H 0.84817 0.15367 0.62866 0.0
H1365 H 0.78883 0.12776 0.61586 0.0
H1366 H 0.92409 0.16004 0.62652 0.0
H1367 H 0.95192 0.11927 0.63094 0.0
C1368 C 0.86489 0.33452 0.44978 0.0
C1369 C 0.91395 0.38516 0.4464 0.0
C1370 C 0.8707 0.43532 0.45867 0.0
C1371 C 0.82253 0.38452 0.4623 0.0
N1372 N 0.77918 0.28683 0.46618 0.0
N1373 N 0.96757 0.48352 0.45132 0.0
C1374 C 0.82188 0.33459 0.4596 0.0
C1375 C 0.91814 0.43559 0.45199 0.0
N1376 N 0.8572 0.28655 0.44236 0.0
N1377 N 0.87029 0.48305 0.4608 0.0
H1378 H 0.00312 0.48554 0.44658 0.0
H1379 H 0.97446 0.52046 0.45691 0.0
H1380 H 0.83703 0.48412 0.46635 0.0
H1381 H 0.90159 0.52099 0.4563 0.0
H1382 H 0.81999 0.24949 0.44284 0.0
H1383 H 0.88566 0.28449 0.43398 0.0
H1384 H 0.77888 0.24992 0.46629 0.0
H1385 H 0.74658 0.28553 0.47319 0.0
C1386 C 0.68002 0.57026 0.44418 0.0
C1387 C 0.6287 0.5665 0.44211 0.0
C1388 C 0.58357 0.47716 0.45739 0.0
C1389 C 0.63545 0.4827 0.46004 0.0
N1390 N 0.73355 0.54163 0.46086 0.0
N1391 N 0.53342 0.52291 0.45069 0.0
C1392 C 0.68376 0.532 0.45519 0.0
C1393 C 0.58083 0.52184 0.44989 0.0
N1394 N 0.72468 0.60808 0.43466 0.0
N1395 N 0.53706 0.42867 0.46129 0.0
H1396 H 0.53011 0.55528 0.4457 0.0
H1397 H 0.49889 0.49419 0.45774 0.0
H1398 H 0.53783 0.3961 0.46734 0.0
H1399 H 0.49805 0.41982 0.45767 0.0
H1400 H 0.76168 0.60886 0.43435 0.0
H1401 H 0.72318 0.63466 0.42543 0.0
H1402 H 0.76977 0.57918 0.45922 0.0
H1403 H 0.73771 0.51389 0.46881 0.0
C1404 C 0.49666 0.13485 0.433 0.0
C1405 C 0.44968 0.10311 0.44391 0.0
C1406 C 0.49628 0.16696 0.46927 0.0
C1407 C 0.54409 0.1956 0.45856 0.0
N1408 N 0.59498 0.19449 0.43263 0.0
N1409 N 0.41268 0.08037 0.47426 0.0
C1410 C 0.54598 0.17484 0.44129 0.0
C1411 C 0.45165 0.11642 0.46264 0.0
N1412 N 0.4936 0.13025 0.4146 0.0
N1413 N 0.49233 0.18874 0.48537 0.0
H1414 H 0.38099 0.04167 0.4703 0.0
H1415 H 0.41556 0.08644 0.48821 0.0
H1416 H 0.52448 0.22496 0.49085 0.0
H1417 H 0.45593 0.1725 0.49267 0.0
H1418 H 0.52613 0.156 0.40622 0.0
H1419 H 0.45703 0.10622 0.40763 0.0
H1420 H 0.59899 0.17759 0.42053 0.0
H1421 H 0.63204 0.22341 0.43862 0.0
C1422 C 0.72562 0.56099 0.74575 0.0
C1423 C 0.71941 0.59722 0.73432 0.0
C1424 C 0.70149 0.53322 0.70883 0.0
C1425 C 0.71259 0.50017 0.72009 0.0
N1426 N 0.75278 0.49327 0.74765 0.0
N1427 N 0.7158 0.62355 0.70366 0.0
C1428 C 0.73074 0.5179 0.73799 0.0
C1429 C 0.71135 0.58504 0.71545 0.0
N1430 N 0.72285 0.56496 0.76409 0.0
N1431 N 0.68027 0.5148 0.69202 0.0
H1432 H 0.72553 0.66261 0.70779 0.0
H1433 H 0.71587 0.61872 0.6897 0.0
H1434 H 0.67575 0.47883 0.6864 0.0
H1435 H 0.66506 0.53401 0.68408 0.0
H1436 H 0.72259 0.53632 0.77281 0.0
H1437 H 0.71358 0.59218 0.7705 0.0
H1438 H 0.7708 0.50774 0.76027 0.0
H1439 H 0.75856 0.46249 0.74213 0.0
C1440 C 0.4118 0.16019 0.71755 0.0
C1441 C 0.41122 0.1158 0.72646 0.0
C1442 C 0.50854 0.15605 0.71926 0.0
C1443 C 0.51142 0.20511 0.71372 0.0
N1444 N 0.46583 0.25521 0.70799 0.0
N1445 N 0.46161 0.07485 0.73755 0.0
C1446 C 0.46292 0.20743 0.71273 0.0
C1447 C 0.46018 0.11428 0.7276 0.0
N1448 N 0.36355 0.15647 0.71321 0.0
N1449 N 0.55241 0.14951 0.7165 0.0
H1450 H 0.42774 0.0446 0.74446 0.0
H1451 H 0.49762 0.07532 0.74041 0.0
H1452 H 0.58815 0.17932 0.7102 0.0
H1453 H 0.55115 0.11264 0.71866 0.0
H1454 H 0.36094 0.18517 0.70534 0.0
H1455 H 0.32596 0.12142 0.71586 0.0
H1456 H 0.43283 0.26136 0.70898 0.0
H1457 H 0.50226 0.28995 0.70403 0.0
C1458 C 0.88767 0.32153 0.72119 0.0
C1459 C 0.88891 0.31219 0.74 0.0
C1460 C 0.79389 0.2907 0.74225 0.0
C1461 C 0.79622 0.31008 0.72455 0.0
N1462 N 0.85141 0.35435 0.69827 0.0
N1463 N 0.84609 0.30367 0.76915 0.0
C1464 C 0.8447 0.32817 0.71422 0.0
C1465 C 0.84272 0.30095 0.75074 0.0
N1466 N 0.92579 0.32197 0.70978 0.0
N1467 N 0.74487 0.26228 0.75102 0.0
H1468 H 0.8826 0.31727 0.7761 0.0
H1469 H 0.8144 0.29982 0.77736 0.0
H1470 H 0.7078 0.25189 0.74491 0.0
H1471 H 0.7407 0.24372 0.76344 0.0
H1472 H 0.92349 0.32393 0.69581 0.0
H1473 H 0.95583 0.31399 0.71399 0.0
H1474 H 0.88821 0.37294 0.69114 0.0
H1475 H 0.82217 0.36209 0.69309 0.0
C1476 C 0.42508 0.26575 0.22572 0.0
C1477 C 0.42783 0.31443 0.23252 0.0
C1478 C 0.51809 0.36959 0.21856 0.0
C1479 C 0.51966 0.32133 0.21496 0.0
N1480 N 0.47571 0.22292 0.21506 0.0
N1481 N 0.48203 0.41281 0.23784 0.0
C1482 C 0.47311 0.26908 0.21828 0.0
C1483 C 0.47534 0.36656 0.22934 0.0
N1484 N 0.37657 0.21678 0.22593 0.0
N1485 N 0.55892 0.41874 0.21214 0.0
H1486 H 0.45421 0.41239 0.24716 0.0
H1487 H 0.51825 0.4508 0.2373 0.0
H1488 H 0.59141 0.42191 0.20451 0.0
H1489 H 0.5576 0.45479 0.21285 0.0
H1490 H 0.37097 0.18123 0.21958 0.0
H1491 H 0.34042 0.21274 0.23098 0.0
H1492 H 0.44571 0.18387 0.21921 0.0
H1493 H 0.50952 0.2244 0.20889 0.0
C1494 C 0.7253 0.18335 0.24599 0.0
C1495 C 0.71163 0.13696 0.23475 0.0
C1496 C 0.69693 0.18356 0.20953 0.0
C1497 C 0.71486 0.23116 0.22053 0.0
N1498 N 0.76383 0.28175 0.24715 0.0
N1499 N 0.70237 0.10212 0.2041 0.0
C1500 C 0.73535 0.23281 0.23802 0.0
C1501 C 0.70283 0.13969 0.21596 0.0
N1502 N 0.72476 0.17956 0.26436 0.0
N1503 N 0.67178 0.17863 0.19343 0.0
H1504 H 0.71068 0.07192 0.20792 0.0
H1505 H 0.70049 0.10533 0.19016 0.0
H1506 H 0.66599 0.20935 0.18835 0.0
H1507 H 0.65281 0.14219 0.18588 0.0
H1508 H 0.73011 0.21137 0.27297 0.0
H1509 H 0.71192 0.14282 0.27103 0.0
H1510 H 0.78334 0.2858 0.25941 0.0
H1511 H 0.77298 0.31899 0.24143 0.0
C1512 C 0.86187 0.61062 0.22099 0.0
C1513 C 0.90108 0.60923 0.23232 0.0
C1514 C 0.85492 0.50981 0.22775 0.0
C1515 C 0.81001 0.5102 0.21969 0.0
N1516 N 0.76823 0.56148 0.2103 0.0
N1517 N 0.93174 0.55592 0.24809 0.0
C1518 C 0.81279 0.56077 0.21661 0.0
C1519 C 0.89699 0.5584 0.23605 0.0
N1520 N 0.87253 0.65906 0.21378 0.0
N1521 N 0.85785 0.46314 0.22722 0.0
H1522 H 0.96299 0.59047 0.25463 0.0
H1523 H 0.92649 0.51903 0.25278 0.0
H1524 H 0.82834 0.42685 0.22091 0.0
H1525 H 0.8923 0.4622 0.2313 0.0
H1526 H 0.84729 0.66187 0.20429 0.0
H1527 H 0.91027 0.69489 0.21547 0.0
H1528 H 0.7667 0.59735 0.20953 0.0
H1529 H 0.73131 0.52583 0.20718 0.0
C1530 C 0.70294 0.15719 0.94261 0.0
C1531 C 0.6575 0.10461 0.94648 0.0
C1532 C 0.6142 0.14731 0.96348 0.0
C1533 C 0.66005 0.19975 0.95988 0.0
N1534 N 0.75544 0.25317 0.95147 0.0
N1535 N 0.58208 0.05074 0.96652 0.0
C1536 C 0.70682 0.20422 0.95114 0.0
C1537 C 0.61662 0.09985 0.95871 0.0
N1538 N 0.74177 0.16253 0.93048 0.0
N1539 N 0.56771 0.1425 0.97072 0.0
H1540 H 0.58777 0.01759 0.96484 0.0
H1541 H 0.55397 0.04562 0.97654 0.0
H1542 H 0.56418 0.17644 0.97403 0.0
H1543 H 0.53138 0.10487 0.97204 0.0
H1544 H 0.77227 0.20037 0.92561 0.0
H1545 H 0.74138 0.12899 0.92434 0.0
H1546 H 0.79207 0.25763 0.94674 0.0
H1547 H 0.76038 0.28788 0.95832 0.0
C1548 C 0.92447 0.49848 0.94161 0.0
C1549 C 0.92944 0.54961 0.93689 0.0
C1550 C 0.84941 0.52693 0.95583 0.0
C1551 C 0.84205 0.47474 0.9594 0.0
N1552 N 0.87082 0.40912 0.95589 0.0
N1553 N 0.88454 0.60211 0.93503 0.0
C1554 C 0.87982 0.46048 0.95264 0.0
C1555 C 0.88886 0.56125 0.94295 0.0
N1556 N 0.96129 0.48527 0.93523 0.0
N1557 N 0.81723 0.543 0.96448 0.0
H1558 H 0.90803 0.62351 0.9239 0.0
H1559 H 0.8529 0.6095 0.93774 0.0
H1560 H 0.78686 0.51777 0.97361 0.0
H1561 H 0.82412 0.58277 0.96388 0.0
H1562 H 0.9666 0.45457 0.94057 0.0
H1563 H 0.98531 0.50392 0.92403 0.0
H1564 H 0.89193 0.39243 0.94959 0.0
H1565 H 0.8406 0.38218 0.96477 0.0
C1566 C 0.53451 0.45098 0.95175 0.0
C1567 C 0.48373 0.40108 0.94877 0.0
C1568 C 0.51261 0.35623 0.97025 0.0
C1569 C 0.56673 0.40011 0.96892 0.0
N1570 N 0.63083 0.49139 0.95907 0.0
N1571 N 0.42954 0.30227 0.95353 0.0
C1572 C 0.57812 0.44859 0.96005 0.0
C1573 C 0.47346 0.35264 0.95786 0.0
N1574 N 0.54067 0.50045 0.94733 0.0
N1575 N 0.49987 0.31651 0.98268 0.0
H1576 H 0.40364 0.29557 0.94275 0.0
H1577 H 0.42336 0.26588 0.95903 0.0
H1578 H 0.52908 0.32019 0.99192 0.0
H1579 H 0.45992 0.28464 0.98506 0.0
H1580 H 0.57566 0.5379 0.95052 0.0
H1581 H 0.50866 0.50451 0.94252 0.0
H1582 H 0.64283 0.52554 0.951 0.0
H1583 H 0.66265 0.49105 0.96587 0.0
C1584 C 0.59348 0.75038 0.7612 0.0
C1585 C 0.62866 0.74403 0.77318 0.0
C1586 C 0.56292 0.72625 0.79785 0.0
C1587 C 0.5295 0.73539 0.78599 0.0
N1588 N 0.52454 0.77562 0.75822 0.0
N1589 N 0.65369 0.74264 0.80414 0.0
C1590 C 0.54893 0.75418 0.76831 0.0
C1591 C 0.61554 0.73723 0.79192 0.0
N1592 N 0.59925 0.74833 0.74293 0.0
N1593 N 0.54354 0.70425 0.81439 0.0
H1594 H 0.69334 0.75325 0.80043 0.0
H1595 H 0.64799 0.7428 0.81804 0.0
H1596 H 0.50528 0.69524 0.81899 0.0
H1597 H 0.56352 0.69105 0.82282 0.0
H1598 H 0.57119 0.74761 0.73381 0.0
H1599 H 0.62764 0.74049 0.73681 0.0
H1600 H 0.53998 0.79424 0.74582 0.0
H1601 H 0.49287 0.78046 0.76326 0.0
C1602 C 0.35805 0.88888 0.76532 0.0
C1603 C 0.30638 0.88459 0.76724 0.0
C1604 C 0.27273 0.79792 0.78365 0.0
C1605 C 0.32604 0.80536 0.78301 0.0
N1606 N 0.42255 0.86692 0.77781 0.0
N1607 N 0.21789 0.84088 0.78183 0.0
C1608 C 0.36964 0.85382 0.77532 0.0
C1609 C 0.26453 0.84074 0.77745 0.0
N1610 N 0.39525 0.92448 0.75315 0.0
N1611 N 0.22952 0.74931 0.78941 0.0
H1612 H 0.21071 0.87177 0.77788 0.0
H1613 H 0.18867 0.8131 0.79077 0.0
H1614 H 0.23394 0.7172 0.79393 0.0
H1615 H 0.18896 0.73935 0.78837 0.0
H1616 H 0.43167 0.92573 0.75009 0.0
H1617 H 0.38668 0.94781 0.74453 0.0
H1618 H 0.45613 0.90431 0.77389 0.0
H1619 H 0.43284 0.84316 0.7856 0.0
C1620 C 0.13732 0.45293 0.79913 0.0
C1621 C 0.1298 0.43231 0.78103 0.0
C1622 C 0.2276 0.49534 0.7755 0.0
C1623 C 0.23321 0.52287 0.7921 0.0
N1624 N 0.19078 0.53015 0.81952 0.0
N1625 N 0.16675 0.44963 0.75063 0.0
C1626 C 0.18744 0.50211 0.80398 0.0
C1627 C 0.17474 0.45766 0.76884 0.0
N1628 N 0.0977 0.42552 0.8118 0.0
N1629 N 0.27303 0.50622 0.76581 0.0
H1630 H 0.128 0.42869 0.74475 0.0
H1631 H 0.19817 0.47063 0.7413 0.0
H1632 H 0.31261 0.53287 0.7706 0.0
H1633 H 0.27108 0.48412 0.75417 0.0
H1634 H 0.10374 0.43521 0.82552 0.0
H1635 H 0.06043 0.39017 0.80894 0.0
H1636 H 0.1572 0.52016 0.82777 0.0
H1637 H 0.22654 0.56548 0.82367 0.0
C1638 C 0.41489 0.90743 0.07683 0.0
C1639 C 0.36972 0.91608 0.07635 0.0
C1640 C 0.31478 0.82781 0.06042 0.0
C1641 C 0.36065 0.82101 0.05997 0.0
N1642 N 0.45676 0.85728 0.06494 0.0
N1643 N 0.27146 0.87246 0.07491 0.0
C1644 C 0.41157 0.86195 0.0672 0.0
C1645 C 0.31815 0.87301 0.07003 0.0
N1646 N 0.45819 0.93824 0.08805 0.0
N1647 N 0.26844 0.79193 0.05107 0.0
H1648 H 0.27172 0.90077 0.08411 0.0
H1649 H 0.2322 0.83986 0.0721 0.0
H1650 H 0.2649 0.75881 0.04355 0.0
H1651 H 0.23581 0.79819 0.04922 0.0
H1652 H 0.49092 0.93204 0.0896 0.0
H1653 H 0.45718 0.96289 0.09835 0.0
H1654 H 0.49642 0.88906 0.06775 0.0
H1655 H 0.4554 0.82332 0.05876 0.0
C1656 C 0.13722 0.45526 0.05448 0.0
C1657 C 0.10416 0.46991 0.06493 0.0
C1658 C 0.1487 0.55971 0.04972 0.0
C1659 C 0.18337 0.546 0.04033 0.0
N1660 N 0.20127 0.47687 0.02969 0.0
N1661 N 0.09522 0.54545 0.0766 0.0
C1662 C 0.17373 0.49203 0.04128 0.0
C1663 C 0.11362 0.52444 0.06354 0.0
N1664 N 0.13901 0.40943 0.05878 0.0
N1665 N 0.15106 0.60776 0.04578 0.0
H1666 H 0.0815 0.52708 0.08903 0.0
H1667 H 0.10302 0.58558 0.07665 0.0
H1668 H 0.17685 0.63375 0.03572 0.0
H1669 H 0.12353 0.61846 0.0509 0.0
H1670 H 0.16524 0.39856 0.05268 0.0
H1671 H 0.11988 0.38605 0.07016 0.0
H1672 H 0.1929 0.43673 0.02811 0.0
H1673 H 0.2291 0.50432 0.02039 0.0
C1674 C 0.50745 0.62958 0.07823 0.0
C1675 C 0.55757 0.6491 0.06865 0.0
C1676 C 0.51665 0.67034 0.04306 0.0
C1677 C 0.46564 0.64573 0.05215 0.0
N1678 N 0.40908 0.58515 0.07571 0.0
N1679 N 0.60183 0.67215 0.03919 0.0
C1680 C 0.45997 0.61919 0.06874 0.0
C1681 C 0.55988 0.66461 0.05021 0.0
N1682 N 0.50543 0.62557 0.0966 0.0
N1683 N 0.52528 0.70165 0.0282 0.0
H1684 H 0.63287 0.66547 0.04314 0.0
H1685 H 0.60205 0.67861 0.02537 0.0
H1686 H 0.49497 0.70699 0.02253 0.0
H1687 H 0.5638 0.72555 0.02235 0.0
H1688 H 0.47021 0.61525 0.10402 0.0
H1689 H 0.54006 0.64034 0.10467 0.0
H1690 H 0.40267 0.56162 0.08716 0.0
H1691 H 0.37342 0.57602 0.06885 0.0
C1692 C 0.09403 0.65263 0.54804 0.0
C1693 C 0.07666 0.63195 0.5659 0.0
C1694 C 0.1418 0.5999 0.56538 0.0
C1695 C 0.16684 0.63118 0.54987 0.0
N1696 N 0.16906 0.69058 0.52662 0.0
N1697 N 0.09698 0.59855 0.59307 0.0
C1698 C 0.14313 0.65775 0.54104 0.0
C1699 C 0.10328 0.60802 0.57493 0.0
N1700 N 0.06403 0.66677 0.53755 0.0
N1701 N 0.15743 0.56484 0.57152 0.0
H1702 H 0.07658 0.61185 0.60152 0.0
H1703 H 0.1191 0.58496 0.60022 0.0
H1704 H 0.18626 0.55891 0.56466 0.0
H1705 H 0.1376 0.53791 0.58212 0.0
H1706 H 0.07222 0.6758 0.5239 0.0
H1707 H 0.02811 0.66474 0.54167 0.0
H1708 H 0.15772 0.71698 0.52117 0.0
H1709 H 0.20386 0.69362 0.52071 0.0
C1710 C 0.41921 0.51932 0.56163 0.0
C1711 C 0.37223 0.47586 0.57027 0.0
C1712 C 0.31618 0.50933 0.55721 0.0
C1713 C 0.36391 0.55798 0.55164 0.0
N1714 N 0.46209 0.61148 0.54936 0.0
N1715 N 0.27766 0.4375 0.57927 0.0
C1716 C 0.41592 0.56352 0.55391 0.0
C1717 C 0.321 0.47274 0.56875 0.0
N1718 N 0.46612 0.51753 0.56015 0.0
N1719 N 0.26591 0.49878 0.55174 0.0
H1720 H 0.28039 0.41325 0.58916 0.0
H1721 H 0.24098 0.43736 0.57976 0.0
H1722 H 0.26118 0.52502 0.54321 0.0
H1723 H 0.2299 0.46159 0.55412 0.0
H1724 H 0.49972 0.54542 0.55255 0.0
H1725 H 0.46963 0.48518 0.56503 0.0
H1726 H 0.50139 0.62043 0.5526 0.0
H1727 H 0.46068 0.64354 0.54318 0.0
C1728 C 0.5479 0.88772 0.56716 0.0
C1729 C 0.54699 0.93728 0.56757 0.0
C1730 C 0.45319 0.88757 0.55527 0.0
C1731 C 0.45683 0.83983 0.55358 0.0
N1732 N 0.51108 0.79684 0.5542 0.0
N1733 N 0.49925 0.98527 0.56136 0.0
C1734 C 0.50555 0.84098 0.55823 0.0
C1735 C 0.49971 0.9375 0.56142 0.0
N1736 N 0.58685 0.88384 0.57659 0.0
N1737 N 0.40457 0.88447 0.55178 0.0
H1738 H 0.53021 0.02108 0.56718 0.0
H1739 H 0.46974 0.99013 0.55488 0.0
H1740 H 0.37054 0.84898 0.54667 0.0
H1741 H 0.39677 0.91581 0.55476 0.0
H1742 H 0.58638 0.84713 0.57815 0.0
H1743 H 0.61559 0.91547 0.58484 0.0
H1744 H 0.54793 0.79766 0.55544 0.0
H1745 H 0.48009 0.76113 0.54805 0.0
C1746 C 0.32219 0.44561 0.29671 0.0
C1747 C 0.33012 0.44057 0.27793 0.0
C1748 C 0.36271 0.53798 0.27442 0.0
C1749 C 0.34104 0.53917 0.2917 0.0
N1750 N 0.33512 0.50711 0.32193 0.0
N1751 N 0.36068 0.48351 0.24883 0.0
C1752 C 0.33042 0.49656 0.3038 0.0
C1753 C 0.35092 0.48712 0.26674 0.0
N1754 N 0.30554 0.40144 0.30765 0.0
N1755 N 0.40077 0.58588 0.26646 0.0
H1756 H 0.3576 0.4486 0.24277 0.0
H1757 H 0.36913 0.5147 0.23977 0.0
H1758 H 0.41906 0.62363 0.27328 0.0
H1759 H 0.42105 0.5872 0.25453 0.0
H1760 H 0.29305 0.40028 0.32096 0.0
H1761 H 0.30105 0.36438 0.30307 0.0
H1762 H 0.33262 0.47952 0.33153 0.0
H1763 H 0.34842 0.54616 0.32727 0.0
C1764 C 0.53721 0.90136 0.27748 0.0
C1765 C 0.58136 0.89304 0.27332 0.0
C1766 C 0.5269 0.79894 0.28535 0.0
C1767 C 0.48593 0.8101 0.29104 0.0
N1768 N 0.45761 0.87595 0.2961 0.0
N1769 N 0.62008 0.8348 0.27571 0.0
C1770 C 0.49318 0.86279 0.28833 0.0
C1771 C 0.5767 0.84203 0.27793 0.0
N1772 N 0.53498 0.94388 0.26992 0.0
N1773 N 0.51736 0.74655 0.28615 0.0
H1774 H 0.65626 0.86416 0.26991 0.0
H1775 H 0.62171 0.80177 0.28095 0.0
H1776 H 0.48237 0.71419 0.29196 0.0
H1777 H 0.54235 0.73421 0.27994 0.0
H1778 H 0.50124 0.94879 0.2712 0.0
H1779 H 0.56337 0.9701 0.26046 0.0
H1780 H 0.46397 0.91559 0.29611 0.0
H1781 H 0.42474 0.84851 0.3041 0.0
C1782 C 0.11685 0.66321 0.28124 0.0
C1783 C 0.12337 0.71609 0.27954 0.0
C1784 C 0.20897 0.75585 0.29703 0.0
C1785 C 0.20083 0.70248 0.29905 0.0
N1786 N 0.13822 0.60488 0.29854 0.0
N1787 N 0.16741 0.81007 0.29057 0.0
C1788 C 0.15124 0.65609 0.29318 0.0
C1789 C 0.16698 0.7618 0.28887 0.0
N1790 N 0.08075 0.62049 0.27046 0.0
N1791 N 0.25747 0.80088 0.30212 0.0
H1792 H 0.13655 0.8155 0.28545 0.0
H1793 H 0.19541 0.84279 0.29864 0.0
H1794 H 0.28792 0.79788 0.30878 0.0
H1795 H 0.26834 0.84091 0.29894 0.0
H1796 H 0.07796 0.58236 0.27014 0.0
H1797 H 0.05856 0.62503 0.26023 0.0
H1798 H 0.10043 0.56971 0.29588 0.0
H1799 H 0.1633 0.59886 0.30724 0.0
loop_
_geom_bond_atom_site_label_1
_geom_bond_atom_site_label_2
_geom_bond_distance
_geom_bond_site_symmetry_2
_ccdc_geom_bond_type
Co0 O1 2.216 . S
Co0 O2 2.091 . S
Co0 O4 2.004 . S
Co0 O10 2.021 . S
Co0 O12 2.137 1_545 S
Co0 O13 2.244 1_545 S
O1 Co0 2.216 . S
O1 C8 1.247 . S
O2 Co0 2.091 . S
O2 C8 1.261 . S
C3 O12 1.247 . S
C3 O13 1.272 . S
O4 Co0 2.004 . S
O4 C9 1.259 . S
Co5 O6 2.061 . S
Co5 O11 2.052 . S
Co5 O13 2.135 . S
O6 Co5 2.061 . S
O6 C9 1.235 1_565 S
C7 O10 1.238 . S
C7 O11 1.241 1_545 S
C8 O1 1.247 . S
C8 O2 1.261 . S
C9 O4 1.259 . S
C9 O6 1.235 1_545 S
O10 Co0 2.021 . S
O10 C7 1.238 . S
O11 Co5 2.052 . S
O11 C7 1.241 1_565 S
O12 Co0 2.137 1_565 S
O12 C3 1.247 . S
O13 Co0 2.244 1_565 S
O13 C3 1.272 . S
O13 Co5 2.135 . S
Co14 O15 2.216 . S
Co14 O16 2.091 . S
Co14 O18 2.004 . S
Co14 O24 2.021 . S
Co14 O26 2.137 1_455 S
Co14 O27 2.244 1_455 S
O15 Co14 2.216 . S
O15 C22 1.247 . S
O16 Co14 2.091 . S
O16 C22 1.261 . S
C17 O26 1.247 . S
C17 O27 1.272 . S
O18 Co14 2.004 . S
O18 C23 1.259 . S
Co19 O20 2.061 . S
Co19 O25 2.052 . S
Co19 O27 2.135 . S
O20 Co19 2.061 . S
O20 C23 1.235 1_655 S
C21 O24 1.238 1_655 S
C21 O25 1.241 . S
C22 O15 1.247 . S
C22 O16 1.261 . S
C23 O18 1.259 . S
C23 O20 1.235 1_455 S
O24 Co14 2.021 . S
O24 C21 1.238 1_455 S
O25 Co19 2.052 . S
O25 C21 1.241 . S
O26 Co14 2.137 1_655 S
O26 C17 1.247 . S
O27 Co14 2.244 1_655 S
O27 C17 1.272 . S
O27 Co19 2.135 . S
Co28 O29 2.216 . S
Co28 O30 2.091 . S
Co28 O32 2.004 . S
Co28 O38 2.021 . S
Co28 O40 2.137 . S
Co28 O41 2.244 . S
O29 Co28 2.216 . S
O29 C36 1.247 . S
O30 Co28 2.091 . S
O30 C36 1.261 . S
C31 O40 1.247 . S
C31 O41 1.272 . S
O32 Co28 2.004 . S
O32 C37 1.259 . S
Co33 O34 2.061 . S
Co33 O39 2.052 . S
Co33 O41 2.135 . S
O34 Co33 2.061 . S
O34 C37 1.235 . S
C35 O38 1.238 . S
C35 O39 1.241 . S
C36 O29 1.247 . S
C36 O30 1.261 . S
C37 O32 1.259 . S
C37 O34 1.235 . S
O38 Co28 2.021 . S
O38 C35 1.238 . S
O39 Co33 2.052 . S
O39 C35 1.241 . S
O40 Co28 2.137 . S
O40 C31 1.247 . S
O41 Co28 2.244 . S
O41 C31 1.272 . S
O41 Co33 2.135 . S
Co42 O43 2.216 1_545 S
Co42 O44 2.091 1_545 S
Co42 O46 2.004 1_545 S
Co42 O52 2.021 . S
Co42 O54 2.137 . S
Co42 O55 2.244 . S
O43 Co42 2.216 1_565 S
O43 C50 1.247 . S
O44 Co42 2.091 1_565 S
O44 C50 1.261 . S
C45 O54 1.247 . S
C45 O55 1.272 . S
O46 Co42 2.004 1_565 S
O46 C51 1.259 1_565 S
Co47 O48 2.061 . S
Co47 O53 2.052 . S
Co47 O55 2.135 . S
O48 Co47 2.061 . S
O48 C51 1.235 . S
C49 O52 1.238 . S
C49 O53 1.241 . S
C50 O43 1.247 . S
C50 O44 1.261 . S
C51 O46 1.259 1_545 S
C51 O48 1.235 . S
O52 Co42 2.021 . S
O52 C49 1.238 . S
O53 Co47 2.052 . S
O53 C49 1.241 . S
O54 Co42 2.137 . S
O54 C45 1.247 . S
O55 Co42 2.244 . S
O55 C45 1.272 . S
O55 Co47 2.135 . S
Co56 O57 2.216 1_455 S
Co56 O58 2.091 1_455 S
Co56 O60 2.004 1_455 S
Co56 O66 2.021 1_455 S
Co56 O68 2.137 . S
Co56 O69 2.244 . S
O57 Co56 2.216 1_655 S
O57 C64 1.247 . S
O58 Co56 2.091 1_655 S
O58 C64 1.261 . S
C59 O68 1.247 . S
C59 O69 1.272 . S
O60 Co56 2.004 1_655 S
O60 C65 1.259 1_655 S
Co61 O62 2.061 . S
Co61 O67 2.052 . S
Co61 O69 2.135 . S
O62 Co61 2.061 . S
O62 C65 1.235 . S
C63 O66 1.238 1_455 S
C63 O67 1.241 . S
C64 O57 1.247 . S
C64 O58 1.261 . S
C65 O60 1.259 1_455 S
C65 O62 1.235 . S
O66 Co56 2.021 1_655 S
O66 C63 1.238 1_655 S
O67 Co61 2.052 . S
O67 C63 1.241 . S
O68 Co56 2.137 . S
O68 C59 1.247 . S
O69 Co56 2.244 . S
O69 C59 1.272 . S
O69 Co61 2.135 . S
Co70 O71 2.216 . S
Co70 O72 2.091 . S
Co70 O74 2.004 . S
Co70 O80 2.021 . S
Co70 O82 2.137 . S
Co70 O83 2.244 . S
O71 Co70 2.216 . S
O71 C78 1.247 . S
O72 Co70 2.091 . S
O72 C78 1.261 . S
C73 O82 1.247 . S
C73 O83 1.272 . S
O74 Co70 2.004 . S
O74 C79 1.259 . S
Co75 O76 2.061 . S
Co75 O81 2.052 . S
Co75 O83 2.135 . S
O76 Co75 2.061 . S
O76 C79 1.235 . S
C77 O80 1.238 . S
C77 O81 1.241 . S
C78 O71 1.247 . S
C78 O72 1.261 . S
C79 O74 1.259 . S
C79 O76 1.235 . S
O80 Co70 2.021 . S
O80 C77 1.238 . S
O81 Co75 2.052 . S
O81 C77 1.241 . S
O82 Co70 2.137 . S
O82 C73 1.247 . S
O83 Co70 2.244 . S
O83 C73 1.272 . S
O83 Co75 2.135 . S
Co84 O85 2.216 . S
Co84 O86 2.091 . S
Co84 O88 2.004 . S
Co84 O94 2.021 . S
Co84 O96 2.137 . S
Co84 O97 2.244 . S
O85 Co84 2.216 . S
O85 C92 1.247 . S
O86 Co84 2.091 . S
O86 C92 1.261 . S
C87 O96 1.247 . S
C87 O97 1.272 . S
O88 Co84 2.004 . S
O88 C93 1.259 . S
Co89 O90 2.061 . S
Co89 O95 2.052 . S
Co89 O97 2.135 . S
O90 Co89 2.061 . S
O90 C93 1.235 . S
C91 O94 1.238 . S
C91 O95 1.241 . S
C92 O85 1.247 . S
C92 O86 1.261 . S
C93 O88 1.259 . S
C93 O90 1.235 . S
O94 Co84 2.021 . S
O94 C91 1.238 . S
O95 Co89 2.052 . S
O95 C91 1.241 . S
O96 Co84 2.137 . S
O96 C87 1.247 . S
O97 Co84 2.244 . S
O97 C87 1.272 . S
O97 Co89 2.135 . S
Co98 O99 2.216 . S
Co98 O100 2.091 . S
Co98 O102 2.004 . S
Co98 O108 2.021 . S
Co98 O110 2.137 1_545 S
Co98 O111 2.244 . S
O99 Co98 2.216 . S
O99 C106 1.247 . S
O100 Co98 2.091 . S
O100 C106 1.261 . S
C101 O110 1.247 . S
C101 O111 1.272 1_565 S
O102 Co98 2.004 . S
O102 C107 1.259 . S
Co103 O104 2.061 . S
Co103 O109 2.052 . S
Co103 O111 2.135 . S
O104 Co103 2.061 . S
O104 C107 1.235 . S
C105 O108 1.238 . S
C105 O109 1.241 . S
C106 O99 1.247 . S
C106 O100 1.261 . S
C107 O102 1.259 . S
C107 O104 1.235 . S
O108 Co98 2.021 . S
O108 C105 1.238 . S
O109 Co103 2.052 . S
O109 C105 1.241 . S
O110 Co98 2.137 1_565 S
O110 C101 1.247 . S
O111 Co98 2.244 . S
O111 C101 1.272 1_545 S
O111 Co103 2.135 . S
Co112 O113 2.216 1_655 S
Co112 O114 2.091 1_655 S
Co112 O116 2.004 . S
Co112 O122 2.021 . S
Co112 O124 2.137 1_655 S
Co112 O125 2.244 . S
O113 Co112 2.216 1_455 S
O113 C120 1.247 . S
O114 Co112 2.091 1_455 S
O114 C120 1.261 . S
C115 O124 1.247 1_655 S
C115 O125 1.272 . S
O116 Co112 2.004 . S
O116 C121 1.259 . S
Co117 O118 2.061 . S
Co117 O123 2.052 . S
Co117 O125 2.135 . S
O118 Co117 2.061 . S
O118 C121 1.235 . S
C119 O122 1.238 . S
C119 O123 1.241 . S
C120 O113 1.247 . S
C120 O114 1.261 . S
C121 O116 1.259 . S
C121 O118 1.235 . S
O122 Co112 2.021 . S
O122 C119 1.238 . S
O123 Co117 2.052 . S
O123 C119 1.241 . S
O124 Co112 2.137 1_455 S
O124 C115 1.247 1_455 S
O125 Co112 2.244 . S
O125 C115 1.272 . S
O125 Co117 2.135 . S
Co126 O127 2.216 1_655 S
Co126 O128 2.091 . S
Co126 O130 2.004 . S
Co126 O136 2.021 . S
Co126 O138 2.137 1_655 S
Co126 O139 2.244 1_655 S
O127 Co126 2.216 1_455 S
O127 C134 1.247 1_455 S
O128 Co126 2.091 . S
O128 C134 1.261 . S
C129 O138 1.247 . S
C129 O139 1.272 . S
O130 Co126 2.004 . S
O130 C135 1.259 . S
Co131 O132 2.061 . S
Co131 O137 2.052 . S
Co131 O139 2.135 1_655 S
O132 Co131 2.061 . S
O132 C135 1.235 . S
C133 O136 1.238 . S
C133 O137 1.241 . S
C134 O127 1.247 1_655 S
C134 O128 1.261 . S
C135 O130 1.259 . S
C135 O132 1.235 . S
O136 Co126 2.021 . S
O136 C133 1.238 . S
O137 Co131 2.052 . S
O137 C133 1.241 . S
O138 Co126 2.137 1_455 S
O138 C129 1.247 . S
O139 Co126 2.244 1_455 S
O139 C129 1.272 . S
O139 Co131 2.135 1_455 S
Co140 O141 2.216 . S
Co140 O142 2.091 . S
Co140 O144 2.004 . S
Co140 O150 2.021 . S
Co140 O152 2.137 . S
Co140 O153 2.244 . S
O141 Co140 2.216 . S
O141 C148 1.247 . S
O142 Co140 2.091 . S
O142 C148 1.261 . S
C143 O152 1.247 . S
C143 O153 1.272 . S
O144 Co140 2.004 . S
O144 C149 1.259 . S
Co145 O146 2.061 . S
Co145 O151 2.052 . S
Co145 O153 2.135 . S
O146 Co145 2.061 . S
O146 C149 1.235 . S
C147 O150 1.238 . S
C147 O151 1.241 . S
C148 O141 1.247 . S
C148 O142 1.261 . S
C149 O144 1.259 . S
C149 O146 1.235 . S
O150 Co140 2.021 . S
O150 C147 1.238 . S
O151 Co145 2.052 . S
O151 C147 1.241 . S
O152 Co140 2.137 . S
O152 C143 1.247 . S
O153 Co140 2.244 . S
O153 C143 1.272 . S
O153 Co145 2.135 . S
Co154 O155 2.216 . S
Co154 O156 2.091 . S
Co154 O158 2.004 . S
Co154 O164 2.021 . S
Co154 O166 2.137 1_545 S
Co154 O167 2.244 . S
O155 Co154 2.216 . S
O155 C162 1.247 . S
O156 Co154 2.091 . S
O156 C162 1.261 . S
C157 O166 1.247 . S
C157 O167 1.272 1_565 S
O158 Co154 2.004 . S
O158 C163 1.259 . S
Co159 O160 2.061 . S
Co159 O165 2.052 . S
Co159 O167 2.135 . S
O160 Co159 2.061 . S
O160 C163 1.235 . S
C161 O164 1.238 . S
C161 O165 1.241 . S
C162 O155 1.247 . S
C162 O156 1.261 . S
C163 O158 1.259 . S
C163 O160 1.235 . S
O164 Co154 2.021 . S
O164 C161 1.238 . S
O165 Co159 2.052 . S
O165 C161 1.241 . S
O166 Co154 2.137 1_565 S
O166 C157 1.247 . S
O167 Co154 2.244 . S
O167 C157 1.272 1_545 S
O167 Co159 2.135 . S
Co168 O169 2.216 . S
Co168 O170 2.091 . S
Co168 O172 2.004 . S
Co168 O178 2.021 . S
Co168 O180 2.137 1_455 S
Co168 O181 2.244 . S
O169 Co168 2.216 . S
O169 C176 1.247 . S
O170 Co168 2.091 . S
O170 C176 1.261 . S
C171 O180 1.247 . S
C171 O181 1.272 1_655 S
O172 Co168 2.004 . S
O172 C177 1.259 . S
Co173 O174 2.061 . S
Co173 O179 2.052 . S
Co173 O181 2.135 . S
O174 Co173 2.061 . S
O174 C177 1.235 . S
C175 O178 1.238 . S
C175 O179 1.241 . S
C176 O169 1.247 . S
C176 O170 1.261 . S
C177 O172 1.259 . S
C177 O174 1.235 . S
O178 Co168 2.021 . S
O178 C175 1.238 . S
O179 Co173 2.052 . S
O179 C175 1.241 . S
O180 Co168 2.137 1_655 S
O180 C171 1.247 . S
O181 Co168 2.244 . S
O181 C171 1.272 1_455 S
O181 Co173 2.135 . S
Co182 O183 2.216 . S
Co182 O184 2.091 . S
Co182 O186 2.004 . S
Co182 O192 2.021 . S
Co182 O194 2.137 . S
Co182 O195 2.244 . S
O183 Co182 2.216 . S
O183 C190 1.247 . S
O184 Co182 2.091 . S
O184 C190 1.261 . S
C185 O194 1.247 . S
C185 O195 1.272 . S
O186 Co182 2.004 . S
O186 C191 1.259 . S
Co187 O188 2.061 . S
Co187 O193 2.052 . S
Co187 O195 2.135 . S
O188 Co187 2.061 . S
O188 C191 1.235 . S
C189 O192 1.238 . S
C189 O193 1.241 . S
C190 O183 1.247 . S
C190 O184 1.261 . S
C191 O186 1.259 . S
C191 O188 1.235 . S
O192 Co182 2.021 . S
O192 C189 1.238 . S
O193 Co187 2.052 . S
O193 C189 1.241 . S
O194 Co182 2.137 . S
O194 C185 1.247 . S
O195 Co182 2.244 . S
O195 C185 1.272 . S
O195 Co187 2.135 . S
Co196 O197 2.216 1_565 S
Co196 O198 2.091 . S
Co196 O200 2.004 . S
Co196 O206 2.021 . S
Co196 O208 2.137 1_565 S
Co196 O209 2.244 1_565 S
O197 Co196 2.216 1_545 S
O197 C204 1.247 1_545 S
O198 Co196 2.091 . S
O198 C204 1.261 . S
C199 O208 1.247 . S
C199 O209 1.272 . S
O200 Co196 2.004 . S
O200 C205 1.259 . S
Co201 O202 2.061 . S
Co201 O207 2.052 . S
Co201 O209 2.135 1_565 S
O202 Co201 2.061 . S
O202 C205 1.235 . S
C203 O206 1.238 . S
C203 O207 1.241 . S
C204 O197 1.247 1_565 S
C204 O198 1.261 . S
C205 O200 1.259 . S
C205 O202 1.235 . S
O206 Co196 2.021 . S
O206 C203 1.238 . S
O207 Co201 2.052 . S
O207 C203 1.241 . S
O208 Co196 2.137 1_545 S
O208 C199 1.247 . S
O209 Co196 2.244 1_545 S
O209 C199 1.272 . S
O209 Co201 2.135 1_545 S
Co210 O211 2.216 . S
Co210 O212 2.091 . S
Co210 O214 2.004 . S
Co210 O220 2.021 . S
Co210 O222 2.137 . S
Co210 O223 2.244 . S
O211 Co210 2.216 . S
O211 C218 1.247 . S
O212 Co210 2.091 . S
O212 C218 1.261 . S
C213 O222 1.247 . S
C213 O223 1.272 . S
O214 Co210 2.004 . S
O214 C219 1.259 . S
Co215 O216 2.061 . S
Co215 O221 2.052 . S
Co215 O223 2.135 . S
O216 Co215 2.061 . S
O216 C219 1.235 . S
C217 O220 1.238 . S
C217 O221 1.241 . S
C218 O211 1.247 . S
C218 O212 1.261 . S
C219 O214 1.259 . S
C219 O216 1.235 . S
O220 Co210 2.021 . S
O220 C217 1.238 . S
O221 Co215 2.052 . S
O221 C217 1.241 . S
O222 Co210 2.137 . S
O222 C213 1.247 . S
O223 Co210 2.244 . S
O223 C213 1.272 . S
O223 Co215 2.135 . S
Co224 O225 2.216 1_565 S
Co224 O226 2.091 . S
Co224 O228 2.004 . S
Co224 O234 2.021 . S
Co224 O236 2.137 1_565 S
Co224 O237 2.244 1_565 S
O225 Co224 2.216 1_545 S
O225 C232 1.247 1_545 S
O226 Co224 2.091 . S
O226 C232 1.261 . S
C227 O236 1.247 . S
C227 O237 1.272 . S
O228 Co224 2.004 . S
O228 C233 1.259 . S
Co229 O230 2.061 . S
Co229 O235 2.052 . S
Co229 O237 2.135 1_565 S
O230 Co229 2.061 . S
O230 C233 1.235 . S
C231 O234 1.238 . S
C231 O235 1.241 . S
C232 O225 1.247 1_565 S
C232 O226 1.261 . S
C233 O228 1.259 . S
C233 O230 1.235 . S
O234 Co224 2.021 . S
O234 C231 1.238 . S
O235 Co229 2.052 . S
O235 C231 1.241 . S
O236 Co224 2.137 1_545 S
O236 C227 1.247 . S
O237 Co224 2.244 1_545 S
O237 C227 1.272 . S
O237 Co229 2.135 1_545 S
Co238 O239 2.216 1_455 S
Co238 O240 2.091 1_455 S
Co238 O242 2.004 . S
Co238 O248 2.021 . S
Co238 O250 2.137 . S
Co238 O251 2.244 . S
O239 Co238 2.216 1_655 S
O239 C246 1.247 . S
O240 Co238 2.091 1_655 S
O240 C246 1.261 . S
C241 O250 1.247 . S
C241 O251 1.272 . S
O242 Co238 2.004 . S
O242 C247 1.259 . S
Co243 O244 2.061 . S
Co243 O249 2.052 . S
Co243 O251 2.135 . S
O244 Co243 2.061 . S
O244 C247 1.235 . S
C245 O248 1.238 . S
C245 O249 1.241 . S
C246 O239 1.247 . S
C246 O240 1.261 . S
C247 O242 1.259 . S
C247 O244 1.235 . S
O248 Co238 2.021 . S
O248 C245 1.238 . S
O249 Co243 2.052 . S
O249 C245 1.241 . S
O250 Co238 2.137 . S
O250 C241 1.247 . S
O251 Co238 2.244 . S
O251 C241 1.272 . S
O251 Co243 2.135 . S
Zn252 O258 1.920 1_455 S
Zn252 O264 1.898 1_445 S
Zn252 O267 1.905 . S
Zn253 O261 1.905 1_445 S
Zn253 O262 1.898 . S
Zn253 O270 1.920 1_455 S
Zn254 O257 2.080 . S
Zn254 O260 2.114 1_545 S
Zn254 O263 2.120 . S
Zn254 O265 2.120 1_445 S
Zn254 O266 2.114 . S
Zn254 O269 2.080 1_455 S
C255 O260 1.166 1_655 S
C255 O261 1.182 . S
C256 O262 1.167 . S
C256 O263 1.299 . S
O257 Zn254 2.080 . S
O257 C271 1.305 1_455 S
O258 Zn252 1.920 1_655 S
O258 C271 1.234 . S
C259 O264 1.167 . S
C259 O265 1.299 . S
O260 Zn254 2.114 1_565 S
O260 C255 1.166 1_455 S
O261 Zn253 1.905 1_665 S
O261 C255 1.182 . S
O262 Zn253 1.898 . S
O262 C256 1.167 . S
O263 Zn254 2.120 . S
O263 C256 1.299 . S
O264 Zn252 1.898 1_665 S
O264 C259 1.167 . S
O265 Zn254 2.120 1_665 S
O265 C259 1.299 . S
O266 Zn254 2.114 . S
O266 C268 1.166 . S
O267 Zn252 1.905 . S
O267 C268 1.182 . S
C268 O266 1.166 . S
C268 O267 1.182 . S
O269 Zn254 2.080 1_655 S
O269 C272 1.305 . S
O270 Zn253 1.920 1_655 S
O270 C272 1.234 . S
C271 O257 1.305 1_655 S
C271 O258 1.234 . S
C272 O269 1.305 . S
C272 O270 1.234 . S
Zn273 O279 1.920 1_545 S
Zn273 O285 1.898 . S
Zn273 O288 1.905 1_445 S
Zn274 O282 1.905 . S
Zn274 O283 1.898 1_445 S
Zn274 O291 1.920 1_545 S
Zn275 O278 2.080 1_545 S
Zn275 O281 2.114 . S
Zn275 O284 2.120 1_445 S
Zn275 O286 2.120 . S
Zn275 O287 2.114 1_455 S
Zn275 O290 2.080 . S
C276 O281 1.166 . S
C276 O282 1.182 . S
C277 O283 1.167 . S
C277 O284 1.299 . S
O278 Zn275 2.080 1_565 S
O278 C292 1.305 . S
O279 Zn273 1.920 1_565 S
O279 C292 1.234 . S
C280 O285 1.167 . S
C280 O286 1.299 . S
O281 Zn275 2.114 . S
O281 C276 1.166 . S
O282 Zn274 1.905 . S
O282 C276 1.182 . S
O283 Zn274 1.898 1_665 S
O283 C277 1.167 . S
O284 Zn275 2.120 1_665 S
O284 C277 1.299 . S
O285 Zn273 1.898 . S
O285 C280 1.167 . S
O286 Zn275 2.120 . S
O286 C280 1.299 . S
O287 Zn275 2.114 1_655 S
O287 C289 1.166 . S
O288 Zn273 1.905 1_665 S
O288 C289 1.182 1_565 S
C289 O287 1.166 . S
C289 O288 1.182 1_545 S
O290 Zn275 2.080 . S
O290 C293 1.305 1_545 S
O291 Zn274 1.920 1_565 S
O291 C293 1.234 . S
C292 O278 1.305 . S
C292 O279 1.234 . S
C293 O290 1.305 1_565 S
C293 O291 1.234 . S
Zn294 O300 1.920 1_545 S
Zn294 O306 1.898 . S
Zn294 O309 1.905 1_445 S
Zn295 O303 1.905 . S
Zn295 O304 1.898 1_445 S
Zn295 O312 1.920 1_545 S
Zn296 O299 2.080 1_545 S
Zn296 O302 2.114 . S
Zn296 O305 2.120 1_445 S
Zn296 O307 2.120 . S
Zn296 O308 2.114 1_455 S
Zn296 O311 2.080 . S
C297 O302 1.166 . S
C297 O303 1.182 . S
C298 O304 1.167 . S
C298 O305 1.299 . S
O299 Zn296 2.080 1_565 S
O299 C313 1.305 . S
O300 Zn294 1.920 1_565 S
O300 C313 1.234 . S
C301 O306 1.167 . S
C301 O307 1.299 . S
O302 Zn296 2.114 . S
O302 C297 1.166 . S
O303 Zn295 1.905 . S
O303 C297 1.182 . S
O304 Zn295 1.898 1_665 S
O304 C298 1.167 . S
O305 Zn296 2.120 1_665 S
O305 C298 1.299 . S
O306 Zn294 1.898 . S
O306 C301 1.167 . S
O307 Zn296 2.120 . S
O307 C301 1.299 . S
O308 Zn296 2.114 1_655 S
O308 C310 1.161 1_545 S
O309 Zn294 1.905 1_665 S
O309 C310 1.189 . S
C310 O308 1.161 1_565 S
C310 O309 1.189 . S
O311 Zn296 2.080 . S
O311 C314 1.305 . S
O312 Zn295 1.920 1_565 S
O312 C314 1.234 1_565 S
C313 O299 1.305 . S
C313 O300 1.234 . S
C314 O311 1.305 . S
C314 O312 1.234 1_545 S
Zn315 O321 1.920 1_455 S
Zn315 O327 1.898 1_445 S
Zn315 O330 1.905 . S
Zn316 O324 1.905 1_445 S
Zn316 O325 1.898 . S
Zn316 O333 1.920 1_455 S
Zn317 O320 2.080 . S
Zn317 O323 2.114 1_545 S
Zn317 O326 2.120 . S
Zn317 O328 2.120 1_445 S
Zn317 O329 2.114 . S
Zn317 O332 2.080 1_455 S
C318 O323 1.166 1_655 S
C318 O324 1.182 . S
C319 O325 1.167 . S
C319 O326 1.299 . S
O320 Zn317 2.080 . S
O320 C334 1.305 . S
O321 Zn315 1.920 1_655 S
O321 C334 1.234 1_655 S
C322 O327 1.167 . S
C322 O328 1.299 . S
O323 Zn317 2.114 1_565 S
O323 C318 1.166 1_455 S
O324 Zn316 1.905 1_665 S
O324 C318 1.182 . S
O325 Zn316 1.898 . S
O325 C319 1.167 . S
O326 Zn317 2.120 . S
O326 C319 1.299 . S
O327 Zn315 1.898 1_665 S
O327 C322 1.167 . S
O328 Zn317 2.120 1_665 S
O328 C322 1.299 . S
O329 Zn317 2.114 . S
O329 C331 1.166 . S
O330 Zn315 1.905 . S
O330 C331 1.182 . S
C331 O329 1.166 . S
C331 O330 1.182 . S
O332 Zn317 2.080 1_655 S
O332 C335 1.305 . S
O333 Zn316 1.920 1_655 S
O333 C335 1.234 . S
C334 O320 1.305 . S
C334 O321 1.234 1_455 S
C335 O332 1.305 . S
C335 O333 1.234 . S
Zn336 O342 1.920 . S
Zn336 O348 1.898 . S
Zn336 O351 1.905 . S
Zn337 O345 1.905 . S
Zn337 O346 1.898 . S
Zn337 O354 1.920 . S
Zn338 O341 2.080 . S
Zn338 O344 2.114 . S
Zn338 O347 2.120 . S
Zn338 O349 2.120 . S
Zn338 O350 2.114 . S
Zn338 O353 2.080 . S
C339 O344 1.166 . S
C339 O345 1.182 . S
C340 O346 1.167 . S
C340 O347 1.299 . S
O341 Zn338 2.080 . S
O341 C355 1.305 . S
O342 Zn336 1.920 . S
O342 C355 1.234 . S
C343 O348 1.167 . S
C343 O349 1.299 . S
O344 Zn338 2.114 . S
O344 C339 1.166 . S
O345 Zn337 1.905 . S
O345 C339 1.182 . S
O346 Zn337 1.898 . S
O346 C340 1.167 . S
O347 Zn338 2.120 . S
O347 C340 1.299 . S
O348 Zn336 1.898 . S
O348 C343 1.167 . S
O349 Zn338 2.120 . S
O349 C343 1.299 . S
O350 Zn338 2.114 . S
O350 C352 1.166 . S
O351 Zn336 1.905 . S
O351 C352 1.182 . S
C352 O350 1.166 . S
C352 O351 1.182 . S
O353 Zn338 2.080 . S
O353 C356 1.305 . S
O354 Zn337 1.920 . S
O354 C356 1.234 . S
C355 O341 1.305 . S
C355 O342 1.234 . S
C356 O353 1.305 . S
C356 O354 1.234 . S
Zn357 O363 1.920 . S
Zn357 O369 1.898 . S
Zn357 O372 1.905 . S
Zn358 O366 1.905 . S
Zn358 O367 1.898 . S
Zn358 O375 1.920 . S
Zn359 O362 2.080 . S
Zn359 O365 2.114 . S
Zn359 O368 2.120 . S
Zn359 O370 2.120 . S
Zn359 O371 2.114 . S
Zn359 O374 2.080 . S
C360 O365 1.166 . S
C360 O366 1.182 . S
C361 O367 1.167 . S
C361 O368 1.299 . S
O362 Zn359 2.080 . S
O362 C376 1.305 . S
O363 Zn357 1.920 . S
O363 C376 1.234 . S
C364 O369 1.167 . S
C364 O370 1.299 . S
O365 Zn359 2.114 . S
O365 C360 1.166 . S
O366 Zn358 1.905 . S
O366 C360 1.182 . S
O367 Zn358 1.898 . S
O367 C361 1.167 . S
O368 Zn359 2.120 . S
O368 C361 1.299 . S
O369 Zn357 1.898 . S
O369 C364 1.167 . S
O370 Zn359 2.120 . S
O370 C364 1.299 . S
O371 Zn359 2.114 . S
O371 C373 1.166 . S
O372 Zn357 1.905 . S
O372 C373 1.182 . S
C373 O371 1.166 . S
C373 O372 1.182 . S
O374 Zn359 2.080 . S
O374 C377 1.305 . S
O375 Zn358 1.920 . S
O375 C377 1.234 . S
C376 O362 1.305 . S
C376 O363 1.234 . S
C377 O374 1.305 . S
C377 O375 1.234 . S
Zn378 O384 1.920 . S
Zn378 O390 1.898 . S
Zn378 O393 1.905 . S
Zn379 O387 1.905 . S
Zn379 O388 1.898 . S
Zn379 O396 1.920 . S
Zn380 O383 2.080 . S
Zn380 O386 2.114 . S
Zn380 O389 2.120 . S
Zn380 O391 2.120 . S
Zn380 O392 2.114 . S
Zn380 O395 2.080 . S
C381 O386 1.166 . S
C381 O387 1.182 . S
C382 O388 1.167 . S
C382 O389 1.299 . S
O383 Zn380 2.080 . S
O383 C397 1.305 . S
O384 Zn378 1.920 . S
O384 C397 1.234 . S
C385 O390 1.167 . S
C385 O391 1.299 . S
O386 Zn380 2.114 . S
O386 C381 1.166 . S
O387 Zn379 1.905 . S
O387 C381 1.182 . S
O388 Zn379 1.898 . S
O388 C382 1.167 . S
O389 Zn380 2.120 . S
O389 C382 1.299 . S
O390 Zn378 1.898 . S
O390 C385 1.167 . S
O391 Zn380 2.120 . S
O391 C385 1.299 . S
O392 Zn380 2.114 . S
O392 C394 1.166 . S
O393 Zn378 1.905 . S
O393 C394 1.182 . S
C394 O392 1.166 . S
C394 O393 1.182 . S
O395 Zn380 2.080 . S
O395 C398 1.305 . S
O396 Zn379 1.920 . S
O396 C398 1.234 . S
C397 O383 1.305 . S
C397 O384 1.234 . S
C398 O395 1.305 . S
C398 O396 1.234 . S
Zn399 O405 1.920 . S
Zn399 O411 1.898 . S
Zn399 O414 1.905 . S
Zn400 O408 1.905 . S
Zn400 O409 1.898 . S
Zn400 O417 1.920 . S
Zn401 O404 2.115 . S
Zn401 O407 2.114 . S
Zn401 O410 2.120 . S
Zn401 O412 2.120 . S
Zn401 O413 2.114 . S
Zn401 O416 2.080 . S
C402 O407 1.166 . S
C402 O408 1.182 . S
C403 O409 1.167 . S
C403 O410 1.299 . S
O404 Zn401 2.115 . S
O404 C418 1.260 1_556 S
O405 Zn399 1.920 . S
O405 C418 1.234 . S
C406 O411 1.167 . S
C406 O412 1.299 1_554 S
O407 Zn401 2.114 . S
O407 C402 1.166 . S
O408 Zn400 1.905 . S
O408 C402 1.182 . S
O409 Zn400 1.898 . S
O409 C403 1.167 . S
O410 Zn401 2.120 . S
O410 C403 1.299 . S
O411 Zn399 1.898 . S
O411 C406 1.167 . S
O412 Zn401 2.120 . S
O412 C406 1.299 1_556 S
O413 Zn401 2.114 . S
O413 C415 1.166 1_556 S
O414 Zn399 1.905 . S
O414 C415 1.182 . S
C415 O413 1.166 1_554 S
C415 O414 1.182 . S
O416 Zn401 2.080 . S
O416 C419 1.305 . S
O417 Zn400 1.920 . S
O417 C419 1.234 . S
C418 O404 1.260 1_554 S
C418 O405 1.234 . S
C419 O416 1.305 . S
C419 O417 1.234 . S
Zn420 O426 1.920 . S
Zn420 O432 1.898 . S
Zn420 O435 1.905 . S
Zn421 O429 1.905 . S
Zn421 O430 1.898 . S
Zn421 O438 1.920 . S
Zn422 O425 2.080 . S
Zn422 O428 2.114 . S
Zn422 O431 2.120 . S
Zn422 O433 2.120 . S
Zn422 O434 2.114 . S
Zn422 O437 2.080 . S
C423 O428 1.166 . S
C423 O429 1.182 . S
C424 O430 1.167 . S
C424 O431 1.299 . S
O425 Zn422 2.080 . S
O425 C439 1.305 . S
O426 Zn420 1.920 . S
O426 C439 1.234 . S
C427 O432 1.167 . S
C427 O433 1.299 . S
O428 Zn422 2.114 . S
O428 C423 1.166 . S
O429 Zn421 1.905 . S
O429 C423 1.182 . S
O430 Zn421 1.898 . S
O430 C424 1.167 . S
O431 Zn422 2.120 . S
O431 C424 1.299 . S
O432 Zn420 1.898 . S
O432 C427 1.167 . S
O433 Zn422 2.120 . S
O433 C427 1.299 . S
O434 Zn422 2.114 . S
O434 C436 1.166 . S
O435 Zn420 1.905 . S
O435 C436 1.182 . S
C436 O434 1.166 . S
C436 O435 1.182 . S
O437 Zn422 2.080 . S
O437 C440 1.305 . S
O438 Zn421 1.920 . S
O438 C440 1.234 . S
C439 O425 1.305 . S
C439 O426 1.234 . S
C440 O437 1.305 . S
C440 O438 1.234 . S
Zn441 O447 1.920 . S
Zn441 O453 1.898 . S
Zn441 O456 1.905 . S
Zn442 O450 1.905 . S
Zn442 O451 1.898 . S
Zn442 O459 1.920 . S
Zn443 O446 2.080 . S
Zn443 O449 2.114 . S
Zn443 O452 2.120 . S
Zn443 O454 2.120 . S
Zn443 O455 2.114 . S
Zn443 O458 2.115 . S
C444 O449 1.166 1_556 S
C444 O450 1.182 . S
C445 O451 1.167 . S
C445 O452 1.299 1_556 S
O446 Zn443 2.080 . S
O446 C460 1.305 . S
O447 Zn441 1.920 . S
O447 C460 1.234 . S
C448 O453 1.167 . S
C448 O454 1.299 . S
O449 Zn443 2.114 . S
O449 C444 1.166 1_554 S
O450 Zn442 1.905 . S
O450 C444 1.182 . S
O451 Zn442 1.898 . S
O451 C445 1.167 . S
O452 Zn443 2.120 . S
O452 C445 1.299 1_554 S
O453 Zn441 1.898 . S
O453 C448 1.167 . S
O454 Zn443 2.120 . S
O454 C448 1.299 . S
O455 Zn443 2.114 . S
O455 C457 1.166 . S
O456 Zn441 1.905 . S
O456 C457 1.182 . S
C457 O455 1.166 . S
C457 O456 1.182 . S
O458 Zn443 2.115 . S
O458 C461 1.260 1_554 S
O459 Zn442 1.920 . S
O459 C461 1.234 . S
C460 O446 1.305 . S
C460 O447 1.234 . S
C461 O458 1.260 1_556 S
C461 O459 1.234 . S
Zn462 O468 1.920 . S
Zn462 O474 1.898 . S
Zn462 O477 1.905 . S
Zn463 O471 1.905 . S
Zn463 O472 1.898 . S
Zn463 O480 1.920 . S
Zn464 O467 2.080 . S
Zn464 O470 2.114 . S
Zn464 O473 2.120 . S
Zn464 O475 2.120 . S
Zn464 O476 2.114 . S
Zn464 O479 2.080 . S
C465 O470 1.166 . S
C465 O471 1.182 . S
C466 O472 1.167 . S
C466 O473 1.299 . S
O467 Zn464 2.080 . S
O467 C481 1.305 . S
O468 Zn462 1.920 . S
O468 C481 1.234 . S
C469 O474 1.167 . S
C469 O475 1.299 . S
O470 Zn464 2.114 . S
O470 C465 1.166 . S
O471 Zn463 1.905 . S
O471 C465 1.182 . S
O472 Zn463 1.898 . S
O472 C466 1.167 . S
O473 Zn464 2.120 . S
O473 C466 1.299 . S
O474 Zn462 1.898 . S
O474 C469 1.167 . S
O475 Zn464 2.120 . S
O475 C469 1.299 . S
O476 Zn464 2.114 . S
O476 C478 1.166 . S
O477 Zn462 1.905 . S
O477 C478 1.182 . S
C478 O476 1.166 . S
C478 O477 1.182 . S
O479 Zn464 2.080 . S
O479 C482 1.305 . S
O480 Zn463 1.920 . S
O480 C482 1.234 . S
C481 O467 1.305 . S
C481 O468 1.234 . S
C482 O479 1.305 . S
C482 O480 1.234 . S
Zn483 O489 1.920 . S
Zn483 O495 1.898 . S
Zn483 O498 1.905 . S
Zn484 O492 1.905 . S
Zn484 O493 1.898 . S
Zn484 O501 1.920 . S
Zn485 O488 2.080 . S
Zn485 O491 2.114 . S
Zn485 O494 2.120 . S
Zn485 O496 2.120 . S
Zn485 O497 2.114 . S
Zn485 O500 2.080 . S
C486 O491 1.166 . S
C486 O492 1.182 . S
C487 O493 1.167 . S
C487 O494 1.299 . S
O488 Zn485 2.080 . S
O488 C502 1.305 . S
O489 Zn483 1.920 . S
O489 C502 1.234 . S
C490 O495 1.167 . S
C490 O496 1.299 . S
O491 Zn485 2.114 . S
O491 C486 1.166 . S
O492 Zn484 1.905 . S
O492 C486 1.182 . S
O493 Zn484 1.898 . S
O493 C487 1.167 . S
O494 Zn485 2.120 . S
O494 C487 1.299 . S
O495 Zn483 1.898 . S
O495 C490 1.167 . S
O496 Zn485 2.120 . S
O496 C490 1.299 . S
O497 Zn485 2.114 . S
O497 C499 1.166 . S
O498 Zn483 1.905 . S
O498 C499 1.182 . S
C499 O497 1.166 . S
C499 O498 1.182 . S
O500 Zn485 2.080 . S
O500 C503 1.305 . S
O501 Zn484 1.920 . S
O501 C503 1.234 . S
C502 O488 1.305 . S
C502 O489 1.234 . S
C503 O500 1.305 . S
C503 O501 1.234 . S
C504 C505 1.363 . S
C504 C510 1.379 . S
C504 N512 1.356 . S
C505 C504 1.363 . S
C505 C511 1.363 . S
C506 C507 1.363 . S
C506 C511 1.379 . S
C506 N513 1.356 . S
C507 C506 1.363 . S
C507 C510 1.363 . S
N508 C510 1.356 . S
N508 H520 0.984 . S
N508 H521 0.985 . S
N509 C511 1.356 . S
N509 H514 0.984 . S
N509 H515 0.985 . S
C510 C504 1.379 . S
C510 C507 1.363 . S
C510 N508 1.356 . S
C511 C505 1.363 . S
C511 C506 1.379 . S
C511 N509 1.356 . S
N512 C504 1.356 . S
N512 H518 0.984 . S
N512 H519 0.984 . S
N513 C506 1.356 . S
N513 H516 0.984 . S
N513 H517 0.985 . S
H514 N509 0.984 . S
H515 N509 0.985 . S
H516 N513 0.984 . S
H517 N513 0.985 . S
H518 N512 0.984 . S
H519 N512 0.984 . S
H520 N508 0.984 . S
H521 N508 0.985 . S
C522 C523 1.363 . S
C522 C528 1.379 . S
C522 N530 1.356 . S
C523 C522 1.363 . S
C523 C529 1.363 1_545 S
C524 C525 1.363 . S
C524 C529 1.379 1_545 S
C524 N531 1.356 1_545 S
C525 C524 1.363 . S
C525 C528 1.363 . S
N526 C528 1.356 . S
N526 H538 0.984 . S
N526 H539 0.985 . S
N527 C529 1.356 . S
N527 H532 0.984 . S
N527 H533 0.985 . S
C528 C522 1.379 . S
C528 C525 1.363 . S
C528 N526 1.356 . S
C529 C523 1.363 1_565 S
C529 C524 1.379 1_565 S
C529 N527 1.356 . S
N530 C522 1.356 . S
N530 H536 0.984 . S
N530 H537 0.984 . S
N531 C524 1.356 1_565 S
N531 H534 0.984 1_565 S
N531 H535 0.985 . S
H532 N527 0.984 . S
H533 N527 0.985 . S
H534 N531 0.984 1_545 S
H535 N531 0.985 . S
H536 N530 0.984 . S
H537 N530 0.984 . S
H538 N526 0.984 . S
H539 N526 0.985 . S
C540 C541 1.363 . S
C540 C546 1.379 . S
C540 N548 1.356 . S
C541 C540 1.363 . S
C541 C547 1.363 1_455 S
C542 C543 1.363 . S
C542 C547 1.379 . S
C542 N549 1.356 . S
C543 C542 1.363 . S
C543 C546 1.363 1_655 S
N544 C546 1.356 . S
N544 H556 0.984 . S
N544 H557 0.985 . S
N545 C547 1.356 . S
N545 H550 0.984 . S
N545 H551 0.985 . S
C546 C540 1.379 . S
C546 C543 1.363 1_455 S
C546 N544 1.356 . S
C547 C541 1.363 1_655 S
C547 C542 1.379 . S
C547 N545 1.356 . S
N548 C540 1.356 . S
N548 H554 0.984 . S
N548 H555 0.984 . S
N549 C542 1.356 . S
N549 H552 0.984 . S
N549 H553 0.985 . S
H550 N545 0.984 . S
H551 N545 0.985 . S
H552 N549 0.984 . S
H553 N549 0.985 . S
H554 N548 0.984 . S
H555 N548 0.984 . S
H556 N544 0.984 . S
H557 N544 0.985 . S
C558 C559 1.363 . S
C558 C564 1.379 . S
C558 N566 1.356 . S
C559 C558 1.363 . S
C559 C565 1.363 . S
C560 C561 1.363 . S
C560 C565 1.379 . S
C560 N567 1.356 . S
C561 C560 1.363 . S
C561 C564 1.363 . S
N562 C564 1.356 . S
N562 H574 0.984 . S
N562 H575 0.985 . S
N563 C565 1.356 . S
N563 H568 0.984 . S
N563 H569 0.985 . S
C564 C558 1.379 . S
C564 C561 1.363 . S
C564 N562 1.356 . S
C565 C559 1.363 . S
C565 C560 1.379 . S
C565 N563 1.356 . S
N566 C558 1.356 . S
N566 H572 0.984 . S
N566 H573 0.984 . S
N567 C560 1.356 . S
N567 H570 0.984 . S
N567 H571 0.985 . S
H568 N563 0.984 . S
H569 N563 0.985 . S
H570 N567 0.984 . S
H571 N567 0.985 . S
H572 N566 0.984 . S
H573 N566 0.984 . S
H574 N562 0.984 . S
H575 N562 0.985 . S
C576 C577 1.363 . S
C576 C582 1.379 . S
C576 N584 1.356 . S
C577 C576 1.363 . S
C577 C583 1.363 1_545 S
C578 C579 1.363 1_565 S
C578 C583 1.379 . S
C578 N585 1.356 . S
C579 C578 1.363 1_545 S
C579 C582 1.363 . S
N580 C582 1.356 . S
N580 H592 0.984 . S
N580 H593 0.985 . S
N581 C583 1.356 . S
N581 H586 0.984 . S
N581 H587 0.985 . S
C582 C576 1.379 . S
C582 C579 1.363 . S
C582 N580 1.356 . S
C583 C577 1.363 1_565 S
C583 C578 1.379 . S
C583 N581 1.356 . S
N584 C576 1.356 . S
N584 H590 0.984 . S
N584 H591 0.984 . S
N585 C578 1.356 . S
N585 H588 0.984 . S
N585 H589 0.985 . S
H586 N581 0.984 . S
H587 N581 0.985 . S
H588 N585 0.984 . S
H589 N585 0.985 . S
H590 N584 0.984 . S
H591 N584 0.984 . S
H592 N580 0.984 . S
H593 N580 0.985 . S
C594 C595 1.363 1_655 S
C594 C600 1.379 . S
C594 N602 1.356 . S
C595 C594 1.363 1_455 S
C595 C601 1.363 . S
C596 C597 1.363 . S
C596 C601 1.379 . S
C596 N603 1.356 . S
C597 C596 1.363 . S
C597 C600 1.363 1_455 S
N598 C600 1.356 . S
N598 H610 0.984 . S
N598 H611 0.985 . S
N599 C601 1.356 . S
N599 H604 0.984 . S
N599 H605 0.985 . S
C600 C594 1.379 . S
C600 C597 1.363 1_655 S
C600 N598 1.356 . S
C601 C595 1.363 . S
C601 C596 1.379 . S
C601 N599 1.356 . S
N602 C594 1.356 . S
N602 H608 0.984 . S
N602 H609 0.984 . S
N603 C596 1.356 . S
N603 H606 0.984 . S
N603 H607 0.986 . S
H604 N599 0.984 . S
H605 N599 0.985 . S
H606 N603 0.984 . S
H607 N603 0.986 . S
H608 N602 0.984 . S
H609 N602 0.984 . S
H610 N598 0.984 . S
H611 N598 0.985 . S
C612 C613 1.363 . S
C612 C618 1.379 . S
C612 N620 1.356 . S
C613 C612 1.363 . S
C613 C619 1.363 . S
C614 C615 1.363 . S
C614 C619 1.379 . S
C614 N621 1.356 . S
C615 C614 1.363 . S
C615 C618 1.363 . S
N616 C618 1.356 . S
N616 H628 0.984 . S
N616 H629 0.985 . S
N617 C619 1.356 . S
N617 H622 0.984 . S
N617 H623 0.985 . S
C618 C612 1.379 . S
C618 C615 1.363 . S
C618 N616 1.356 . S
C619 C613 1.363 . S
C619 C614 1.379 . S
C619 N617 1.356 . S
N620 C612 1.356 . S
N620 H626 0.984 . S
N620 H627 0.984 . S
N621 C614 1.356 . S
N621 H624 0.984 . S
N621 H625 0.985 . S
H622 N617 0.984 . S
H623 N617 0.985 . S
H624 N621 0.984 . S
H625 N621 0.985 . S
H626 N620 0.984 . S
H627 N620 0.984 . S
H628 N616 0.984 . S
H629 N616 0.985 . S
C630 C631 1.363 1_565 S
C630 C636 1.379 . S
C630 N638 1.356 . S
C631 C630 1.363 1_545 S
C631 C637 1.363 . S
C632 C633 1.363 . S
C632 C637 1.379 . S
C632 N639 1.356 . S
C633 C632 1.363 . S
C633 C636 1.363 1_545 S
N634 C636 1.356 . S
N634 H646 0.984 . S
N634 H647 0.985 . S
N635 C637 1.356 . S
N635 H640 0.984 . S
N635 H641 0.985 . S
C636 C630 1.379 . S
C636 C633 1.363 1_565 S
C636 N634 1.356 . S
C637 C631 1.363 . S
C637 C632 1.379 . S
C637 N635 1.356 . S
N638 C630 1.356 . S
N638 H644 0.984 . S
N638 H645 0.984 . S
N639 C632 1.356 . S
N639 H642 0.984 . S
N639 H643 0.985 . S
H640 N635 0.984 . S
H641 N635 0.985 . S
H642 N639 0.984 . S
H643 N639 0.985 . S
H644 N638 0.984 . S
H645 N638 0.984 . S
H646 N634 0.984 . S
H647 N634 0.985 . S
C648 C649 1.363 . S
C648 C654 1.379 . S
C648 N656 1.356 . S
C649 C648 1.363 . S
C649 C655 1.363 . S
C650 C651 1.363 . S
C650 C655 1.379 . S
C650 N657 1.356 . S
C651 C650 1.363 . S
C651 C654 1.363 . S
N652 C654 1.356 . S
N652 H664 0.984 . S
N652 H665 0.985 . S
N653 C655 1.356 1_655 S
N653 H658 0.984 . S
N653 H659 0.985 . S
C654 C648 1.379 . S
C654 C651 1.363 . S
C654 N652 1.356 . S
C655 C649 1.363 . S
C655 C650 1.379 . S
C655 N653 1.356 1_455 S
N656 C648 1.356 . S
N656 H662 0.984 . S
N656 H663 0.984 . S
N657 C650 1.356 . S
N657 H660 0.984 . S
N657 H661 0.985 1_455 S
H658 N653 0.984 . S
H659 N653 0.985 . S
H660 N657 0.984 . S
H661 N657 0.985 1_655 S
H662 N656 0.984 . S
H663 N656 0.984 . S
H664 N652 0.984 . S
H665 N652 0.985 . S
C666 C667 1.363 . S
C666 C672 1.379 . S
C666 N674 1.356 . S
C667 C666 1.363 . S
C667 C673 1.363 . S
C668 C669 1.363 . S
C668 C673 1.379 . S
C668 N675 1.356 . S
C669 C668 1.363 . S
C669 C672 1.363 . S
N670 C672 1.356 . S
N670 H682 0.984 1_655 S
N670 H683 0.985 . S
N671 C673 1.356 . S
N671 H676 0.984 . S
N671 H677 0.985 . S
C672 C666 1.379 . S
C672 C669 1.363 . S
C672 N670 1.356 . S
C673 C667 1.363 . S
C673 C668 1.379 . S
C673 N671 1.356 . S
N674 C666 1.356 . S
N674 H680 0.984 . S
N674 H681 0.984 . S
N675 C668 1.356 . S
N675 H678 0.984 . S
N675 H679 0.985 . S
H676 N671 0.984 . S
H677 N671 0.985 . S
H678 N675 0.984 . S
H679 N675 0.985 . S
H680 N674 0.984 . S
H681 N674 0.984 . S
H682 N670 0.984 1_455 S
H683 N670 0.985 . S
C684 C685 1.363 . S
C684 C690 1.379 . S
C684 N692 1.356 1_545 S
C685 C684 1.363 . S
C685 C691 1.363 . S
C686 C687 1.363 . S
C686 C691 1.379 . S
C686 N693 1.356 . S
C687 C686 1.363 . S
C687 C690 1.363 . S
N688 C690 1.356 . S
N688 H700 0.984 . S
N688 H701 0.985 . S
N689 C691 1.356 . S
N689 H694 0.984 . S
N689 H695 0.985 . S
C690 C684 1.379 . S
C690 C687 1.363 . S
C690 N688 1.356 . S
C691 C685 1.363 . S
C691 C686 1.379 . S
C691 N689 1.356 . S
N692 C684 1.356 1_565 S
N692 H698 0.984 . S
N692 H699 0.984 . S
N693 C686 1.356 . S
N693 H696 0.984 . S
N693 H697 0.985 . S
H694 N689 0.984 . S
H695 N689 0.985 . S
H696 N693 0.984 . S
H697 N693 0.985 . S
H698 N692 0.984 . S
H699 N692 0.984 . S
H700 N688 0.984 . S
H701 N688 0.985 . S
C702 C703 1.363 . S
C702 C708 1.379 . S
C702 N710 1.356 . S
C703 C702 1.363 . S
C703 C709 1.363 . S
C704 C705 1.372 . S
C704 C709 1.376 . S
C704 N711 1.353 1_455 S
C705 C704 1.372 . S
C705 C708 1.363 . S
N706 C708 1.356 . S
N706 H718 0.984 . S
N706 H719 0.985 . S
N707 C709 1.356 . S
N707 H712 0.984 . S
N707 H713 0.985 . S
C708 C702 1.379 . S
C708 C705 1.363 . S
C708 N706 1.356 . S
C709 C703 1.363 . S
C709 C704 1.376 . S
C709 N707 1.356 . S
N710 C702 1.356 . S
N710 H716 0.984 . S
N710 H717 0.984 . S
N711 C704 1.353 1_655 S
N711 H714 0.984 . S
N711 H715 0.985 . S
H712 N707 0.984 . S
H713 N707 0.985 . S
H714 N711 0.984 . S
H715 N711 0.985 . S
H716 N710 0.984 . S
H717 N710 0.984 . S
H718 N706 0.984 . S
H719 N706 0.985 . S
C720 C721 1.363 . S
C720 C726 1.379 . S
C720 N728 1.356 . S
C721 C720 1.363 . S
C721 C727 1.363 . S
C722 C723 1.363 . S
C722 C727 1.379 . S
C722 N729 1.356 . S
C723 C722 1.363 . S
C723 C726 1.363 . S
N724 C726 1.356 . S
N724 H736 0.984 . S
N724 H737 0.985 . S
N725 C727 1.356 . S
N725 H730 0.984 . S
N725 H731 0.985 . S
C726 C720 1.379 . S
C726 C723 1.363 . S
C726 N724 1.356 . S
C727 C721 1.363 . S
C727 C722 1.379 . S
C727 N725 1.356 . S
N728 C720 1.356 . S
N728 H734 0.984 . S
N728 H735 0.984 . S
N729 C722 1.356 . S
N729 H732 0.984 . S
N729 H733 0.985 . S
H730 N725 0.984 . S
H731 N725 0.985 . S
H732 N729 0.984 . S
H733 N729 0.985 . S
H734 N728 0.984 . S
H735 N728 0.984 . S
H736 N724 0.984 . S
H737 N724 0.985 . S
C738 C739 1.363 . S
C738 C744 1.379 . S
C738 N746 1.356 . S
C739 C738 1.363 . S
C739 C745 1.363 . S
C740 C741 1.363 . S
C740 C745 1.379 . S
C740 N747 1.356 . S
C741 C740 1.363 . S
C741 C744 1.363 . S
N742 C744 1.356 . S
N742 H754 0.984 . S
N742 H755 0.985 . S
N743 C745 1.356 . S
N743 H748 0.984 . S
N743 H749 0.985 . S
C744 C738 1.379 . S
C744 C741 1.363 . S
C744 N742 1.356 . S
C745 C739 1.363 . S
C745 C740 1.379 . S
C745 N743 1.356 . S
N746 C738 1.356 . S
N746 H752 0.984 . S
N746 H753 0.984 . S
N747 C740 1.356 . S
N747 H750 0.984 . S
N747 H751 0.985 . S
H748 N743 0.984 . S
H749 N743 0.985 . S
H750 N747 0.984 . S
H751 N747 0.985 . S
H752 N746 0.984 . S
H753 N746 0.984 . S
H754 N742 0.984 . S
H755 N742 0.985 . S
C756 C757 1.363 . S
C756 C762 1.379 . S
C756 N764 1.356 . S
C757 C756 1.363 . S
C757 C763 1.363 . S
C758 C759 1.363 . S
C758 C763 1.379 . S
C758 N765 1.356 . S
C759 C758 1.363 . S
C759 C762 1.363 . S
N760 C762 1.356 . S
N760 H772 0.984 . S
N760 H773 0.985 . S
N761 C763 1.356 . S
N761 H766 0.984 . S
N761 H767 0.985 . S
C762 C756 1.379 . S
C762 C759 1.363 . S
C762 N760 1.356 . S
C763 C757 1.363 . S
C763 C758 1.379 . S
C763 N761 1.356 . S
N764 C756 1.356 . S
N764 H770 0.984 . S
N764 H771 0.984 . S
N765 C758 1.356 . S
N765 H768 0.984 . S
N765 H769 0.985 . S
H766 N761 0.984 . S
H767 N761 0.985 . S
H768 N765 0.984 . S
H769 N765 0.985 . S
H770 N764 0.984 . S
H771 N764 0.984 . S
H772 N760 0.984 . S
H773 N760 0.985 . S
C774 C775 1.363 . S
C774 C780 1.379 . S
C774 N782 1.356 . S
C775 C774 1.363 . S
C775 C781 1.363 . S
C776 C777 1.363 . S
C776 C781 1.379 . S
C776 N783 1.356 . S
C777 C776 1.363 . S
C777 C780 1.363 . S
N778 C780 1.356 . S
N778 H790 0.984 . S
N778 H791 0.985 . S
N779 C781 1.356 . S
N779 H784 0.984 . S
N779 H785 0.985 . S
C780 C774 1.379 . S
C780 C777 1.363 . S
C780 N778 1.356 . S
C781 C775 1.363 . S
C781 C776 1.379 . S
C781 N779 1.356 . S
N782 C774 1.356 . S
N782 H788 0.984 . S
N782 H789 0.984 . S
N783 C776 1.356 . S
N783 H786 0.984 . S
N783 H787 0.985 . S
H784 N779 0.984 . S
H785 N779 0.985 . S
H786 N783 0.984 . S
H787 N783 0.985 . S
H788 N782 0.984 . S
H789 N782 0.984 . S
H790 N778 0.984 . S
H791 N778 0.985 . S
C792 C793 1.363 . S
C792 C798 1.379 . S
C792 N800 1.356 . S
C793 C792 1.363 . S
C793 C799 1.363 . S
C794 C795 1.363 . S
C794 C799 1.379 . S
C794 N801 1.356 . S
C795 C794 1.363 . S
C795 C798 1.363 . S
N796 C798 1.356 . S
N796 H808 0.984 . S
N796 H809 0.985 . S
N797 C799 1.356 . S
N797 H802 0.984 . S
N797 H803 0.985 . S
C798 C792 1.379 . S
C798 C795 1.363 . S
C798 N796 1.356 . S
C799 C793 1.363 . S
C799 C794 1.379 . S
C799 N797 1.356 . S
N800 C792 1.356 . S
N800 H806 0.984 . S
N800 H807 0.984 . S
N801 C794 1.356 . S
N801 H804 0.984 . S
N801 H805 0.985 . S
H802 N797 0.984 . S
H803 N797 0.985 . S
H804 N801 0.984 . S
H805 N801 0.985 . S
H806 N800 0.984 . S
H807 N800 0.984 . S
H808 N796 0.984 . S
H809 N796 0.985 . S
C810 C811 1.363 . S
C810 C816 1.379 . S
C810 N818 1.356 . S
C811 C810 1.363 . S
C811 C817 1.363 . S
C812 C813 1.363 . S
C812 C817 1.379 . S
C812 N819 1.356 . S
C813 C812 1.363 . S
C813 C816 1.363 . S
N814 C816 1.356 . S
N814 H826 0.984 . S
N814 H827 0.985 . S
N815 C817 1.356 . S
N815 H820 0.984 . S
N815 H821 0.985 . S
C816 C810 1.379 . S
C816 C813 1.363 . S
C816 N814 1.356 . S
C817 C811 1.363 . S
C817 C812 1.379 . S
C817 N815 1.356 . S
N818 C810 1.356 . S
N818 H824 0.984 . S
N818 H825 0.984 . S
N819 C812 1.356 . S
N819 H822 0.984 . S
N819 H823 0.985 . S
H820 N815 0.984 . S
H821 N815 0.985 . S
H822 N819 0.984 . S
H823 N819 0.985 . S
H824 N818 0.984 . S
H825 N818 0.984 . S
H826 N814 0.984 . S
H827 N814 0.985 . S
C828 C829 1.363 . S
C828 C834 1.379 . S
C828 N836 1.356 . S
C829 C828 1.363 . S
C829 C835 1.363 . S
C830 C831 1.363 . S
C830 C835 1.379 . S
C830 N837 1.356 . S
C831 C830 1.363 . S
C831 C834 1.363 . S
N832 C834 1.356 . S
N832 H844 0.984 . S
N832 H845 0.985 . S
N833 C835 1.356 . S
N833 H838 0.984 . S
N833 H839 0.985 . S
C834 C828 1.379 . S
C834 C831 1.363 . S
C834 N832 1.356 . S
C835 C829 1.363 . S
C835 C830 1.379 . S
C835 N833 1.356 . S
N836 C828 1.356 . S
N836 H842 0.984 . S
N836 H843 0.984 . S
N837 C830 1.356 . S
N837 H840 0.984 . S
N837 H841 0.985 . S
H838 N833 0.984 . S
H839 N833 0.985 . S
H840 N837 0.984 . S
H841 N837 0.985 . S
H842 N836 0.984 . S
H843 N836 0.984 . S
H844 N832 0.984 . S
H845 N832 0.985 . S
C846 C847 1.363 . S
C846 C852 1.379 . S
C846 N854 1.356 . S
C847 C846 1.363 . S
C847 C853 1.363 . S
C848 C849 1.363 . S
C848 C853 1.379 . S
C848 N855 1.356 . S
C849 C848 1.363 . S
C849 C852 1.363 . S
N850 C852 1.356 . S
N850 H862 0.984 . S
N850 H863 0.985 . S
N851 C853 1.356 . S
N851 H856 0.984 . S
N851 H857 0.985 . S
C852 C846 1.379 . S
C852 C849 1.363 . S
C852 N850 1.356 . S
C853 C847 1.363 . S
C853 C848 1.379 . S
C853 N851 1.356 . S
N854 C846 1.356 . S
N854 H860 0.984 . S
N854 H861 0.984 . S
N855 C848 1.356 . S
N855 H858 0.984 . S
N855 H859 0.985 . S
H856 N851 0.984 . S
H857 N851 0.985 . S
H858 N855 0.984 . S
H859 N855 0.985 . S
H860 N854 0.984 . S
H861 N854 0.984 . S
H862 N850 0.984 . S
H863 N850 0.985 . S
C864 C865 1.363 . S
C864 C870 1.379 . S
C864 N872 1.356 . S
C865 C864 1.363 . S
C865 C871 1.363 . S
C866 C867 1.363 . S
C866 C871 1.379 . S
C866 N873 1.356 . S
C867 C866 1.363 . S
C867 C870 1.363 . S
N868 C870 1.356 . S
N868 H880 0.984 . S
N868 H881 0.985 . S
N869 C871 1.356 . S
N869 H874 0.984 . S
N869 H875 0.985 . S
C870 C864 1.379 . S
C870 C867 1.363 . S
C870 N868 1.356 . S
C871 C865 1.363 . S
C871 C866 1.379 . S
C871 N869 1.356 . S
N872 C864 1.356 . S
N872 H878 0.984 . S
N872 H879 0.984 . S
N873 C866 1.356 . S
N873 H876 0.984 . S
N873 H877 0.985 . S
H874 N869 0.984 . S
H875 N869 0.985 . S
H876 N873 0.984 . S
H877 N873 0.985 . S
H878 N872 0.984 . S
H879 N872 0.984 . S
H880 N868 0.984 . S
H881 N868 0.985 . S
C882 C883 1.363 . S
C882 C888 1.379 . S
C882 N890 1.356 . S
C883 C882 1.363 . S
C883 C889 1.363 . S
C884 C885 1.363 . S
C884 C889 1.379 . S
C884 N891 1.356 . S
C885 C884 1.363 . S
C885 C888 1.363 . S
N886 C888 1.356 . S
N886 H898 0.984 . S
N886 H899 0.985 . S
N887 C889 1.356 . S
N887 H892 0.984 . S
N887 H893 0.985 . S
C888 C882 1.379 . S
C888 C885 1.363 . S
C888 N886 1.356 . S
C889 C883 1.363 . S
C889 C884 1.379 . S
C889 N887 1.356 . S
N890 C882 1.356 . S
N890 H896 0.984 . S
N890 H897 0.984 . S
N891 C884 1.356 . S
N891 H894 0.984 . S
N891 H895 0.985 . S
H892 N887 0.984 . S
H893 N887 0.985 . S
H894 N891 0.984 . S
H895 N891 0.985 . S
H896 N890 0.984 . S
H897 N890 0.984 . S
H898 N886 0.984 . S
H899 N886 0.985 . S
C900 C901 1.363 . S
C900 C906 1.379 . S
C900 N908 1.356 . S
C901 C900 1.363 . S
C901 C907 1.363 . S
C902 C903 1.363 . S
C902 C907 1.379 . S
C902 N909 1.356 . S
C903 C902 1.363 . S
C903 C906 1.363 . S
N904 C906 1.356 1_556 S
N904 H916 0.984 . S
N904 H917 0.985 . S
N905 C907 1.356 . S
N905 H910 0.984 . S
N905 H911 0.985 . S
C906 C900 1.379 . S
C906 C903 1.363 . S
C906 N904 1.356 1_554 S
C907 C901 1.363 . S
C907 C902 1.379 . S
C907 N905 1.356 . S
N908 C900 1.356 . S
N908 H914 0.984 . S
N908 H915 0.984 . S
N909 C902 1.356 . S
N909 H912 0.984 . S
N909 H913 0.985 . S
H910 N905 0.984 . S
H911 N905 0.985 . S
H912 N909 0.984 . S
H913 N909 0.985 . S
H914 N908 0.984 . S
H915 N908 0.984 . S
H916 N904 0.984 . S
H917 N904 0.985 . S
C918 C919 1.363 . S
C918 C924 1.379 . S
C918 N926 1.356 . S
C919 C918 1.363 . S
C919 C925 1.363 . S
C920 C921 1.363 . S
C920 C925 1.379 . S
C920 N927 1.356 . S
C921 C920 1.363 . S
C921 C924 1.363 . S
N922 C924 1.356 1_556 S
N922 H934 0.984 . S
N922 H935 0.985 . S
N923 C925 1.356 . S
N923 H928 0.984 . S
N923 H929 0.985 . S
C924 C918 1.379 . S
C924 C921 1.363 . S
C924 N922 1.356 1_554 S
C925 C919 1.363 . S
C925 C920 1.379 . S
C925 N923 1.356 . S
N926 C918 1.356 . S
N926 H932 0.984 . S
N926 H933 0.984 . S
N927 C920 1.356 . S
N927 H930 0.984 . S
N927 H931 0.985 . S
H928 N923 0.984 . S
H929 N923 0.985 . S
H930 N927 0.984 . S
H931 N927 0.985 . S
H932 N926 0.984 . S
H933 N926 0.984 . S
H934 N922 0.984 . S
H935 N922 0.985 . S
C936 C937 1.363 . S
C936 C942 1.379 . S
C936 N944 1.356 . S
C937 C936 1.363 . S
C937 C943 1.363 . S
C938 C939 1.363 . S
C938 C943 1.379 . S
C938 N945 1.356 . S
C939 C938 1.363 . S
C939 C942 1.363 . S
N940 C942 1.356 . S
N940 H952 0.984 . S
N940 H953 0.985 . S
N941 C943 1.356 . S
N941 H946 0.984 . S
N941 H947 0.985 . S
C942 C936 1.379 . S
C942 C939 1.363 . S
C942 N940 1.356 . S
C943 C937 1.363 . S
C943 C938 1.379 . S
C943 N941 1.356 . S
N944 C936 1.356 . S
N944 H950 0.984 . S
N944 H951 0.984 . S
N945 C938 1.356 . S
N945 H948 0.984 . S
N945 H949 0.985 . S
H946 N941 0.984 . S
H947 N941 0.985 . S
H948 N945 0.984 . S
H949 N945 0.985 . S
H950 N944 0.984 . S
H951 N944 0.984 . S
H952 N940 0.984 . S
H953 N940 0.985 . S
C954 C955 1.363 . S
C954 C960 1.379 . S
C954 N962 1.356 . S
C955 C954 1.363 . S
C955 C961 1.363 . S
C956 C957 1.363 . S
C956 C961 1.379 . S
C956 N963 1.356 . S
C957 C956 1.363 . S
C957 C960 1.363 . S
N958 C960 1.356 . S
N958 H970 0.984 . S
N958 H971 0.985 . S
N959 C961 1.356 . S
N959 H964 0.984 . S
N959 H965 0.985 . S
C960 C954 1.379 . S
C960 C957 1.363 . S
C960 N958 1.356 . S
C961 C955 1.363 . S
C961 C956 1.379 . S
C961 N959 1.356 . S
N962 C954 1.356 . S
N962 H968 0.984 . S
N962 H969 0.984 . S
N963 C956 1.356 . S
N963 H966 0.984 . S
N963 H967 0.985 . S
H964 N959 0.984 . S
H965 N959 0.985 . S
H966 N963 0.984 . S
H967 N963 0.985 . S
H968 N962 0.984 . S
H969 N962 0.984 . S
H970 N958 0.984 . S
H971 N958 0.985 . S
C972 C973 1.363 . S
C972 C978 1.379 . S
C972 N980 1.356 . S
C973 C972 1.363 . S
C973 C979 1.363 . S
C974 C975 1.363 . S
C974 C979 1.379 . S
C974 N981 1.356 . S
C975 C974 1.363 . S
C975 C978 1.363 . S
N976 C978 1.356 . S
N976 H988 0.984 . S
N976 H989 0.985 . S
N977 C979 1.356 . S
N977 H982 0.984 . S
N977 H983 0.985 . S
C978 C972 1.379 . S
C978 C975 1.363 . S
C978 N976 1.356 . S
C979 C973 1.363 . S
C979 C974 1.379 . S
C979 N977 1.356 . S
N980 C972 1.356 . S
N980 H986 0.984 . S
N980 H987 0.984 . S
N981 C974 1.356 . S
N981 H984 0.984 . S
N981 H985 0.985 . S
H982 N977 0.984 . S
H983 N977 0.985 . S
H984 N981 0.984 . S
H985 N981 0.985 . S
H986 N980 0.984 . S
H987 N980 0.984 . S
H988 N976 0.984 . S
H989 N976 0.985 . S
C990 C991 1.363 . S
C990 C996 1.379 . S
C990 N998 1.356 . S
C991 C990 1.363 . S
C991 C997 1.363 . S
C992 C993 1.363 . S
C992 C997 1.379 . S
C992 N999 1.356 . S
C993 C992 1.363 . S
C993 C996 1.363 . S
N994 C996 1.356 1_554 S
N994 H1006 0.984 . S
N994 H1007 0.985 . S
N995 C997 1.356 . S
N995 H1000 0.984 . S
N995 H1001 0.985 . S
C996 C990 1.379 . S
C996 C993 1.363 . S
C996 N994 1.356 1_556 S
C997 C991 1.363 . S
C997 C992 1.379 . S
C997 N995 1.356 . S
N998 C990 1.356 . S
N998 H1004 0.984 . S
N998 H1005 0.984 . S
N999 C992 1.356 . S
N999 H1002 0.984 . S
N999 H1003 0.985 . S
H1000 N995 0.984 . S
H1001 N995 0.985 . S
H1002 N999 0.984 . S
H1003 N999 0.985 . S
H1004 N998 0.984 . S
H1005 N998 0.984 . S
H1006 N994 0.984 . S
H1007 N994 0.985 . S
C1008 C1009 1.363 . S
C1008 C1014 1.379 . S
C1008 N1016 1.356 . S
C1009 C1008 1.363 . S
C1009 C1015 1.363 . S
C1010 C1011 1.363 . S
C1010 C1015 1.379 . S
C1010 N1017 1.356 1_556 S
C1011 C1010 1.363 . S
C1011 C1014 1.363 . S
N1012 C1014 1.356 . S
N1012 H1024 0.984 . S
N1012 H1025 0.985 . S
N1013 C1015 1.356 . S
N1013 H1018 0.984 . S
N1013 H1019 0.985 . S
C1014 C1008 1.379 . S
C1014 C1011 1.363 . S
C1014 N1012 1.356 . S
C1015 C1009 1.363 . S
C1015 C1010 1.379 . S
C1015 N1013 1.356 . S
N1016 C1008 1.356 . S
N1016 H1022 0.984 . S
N1016 H1023 0.984 . S
N1017 C1010 1.356 1_554 S
N1017 H1020 0.984 . S
N1017 H1021 0.985 . S
H1018 N1013 0.984 . S
H1019 N1013 0.985 . S
H1020 N1017 0.984 . S
H1021 N1017 0.985 . S
H1022 N1016 0.984 . S
H1023 N1016 0.984 . S
H1024 N1012 0.984 . S
H1025 N1012 0.985 . S
C1026 C1027 1.363 . S
C1026 C1032 1.379 . S
C1026 N1034 1.356 . S
C1027 C1026 1.363 . S
C1027 C1033 1.363 . S
C1028 C1029 1.363 . S
C1028 C1033 1.379 . S
C1028 N1035 1.356 1_556 S
C1029 C1028 1.363 . S
C1029 C1032 1.363 . S
N1030 C1032 1.356 . S
N1030 H1042 0.984 . S
N1030 H1043 0.985 . S
N1031 C1033 1.356 . S
N1031 H1036 0.984 . S
N1031 H1037 0.985 . S
C1032 C1026 1.379 . S
C1032 C1029 1.363 . S
C1032 N1030 1.356 . S
C1033 C1027 1.363 . S
C1033 C1028 1.379 . S
C1033 N1031 1.356 . S
N1034 C1026 1.356 . S
N1034 H1040 0.984 . S
N1034 H1041 0.984 . S
N1035 C1028 1.356 1_554 S
N1035 H1038 0.984 . S
N1035 H1039 0.985 . S
H1036 N1031 0.984 . S
H1037 N1031 0.985 . S
H1038 N1035 0.984 . S
H1039 N1035 0.985 . S
H1040 N1034 0.984 . S
H1041 N1034 0.984 . S
H1042 N1030 0.984 . S
H1043 N1030 0.985 . S
C1044 C1045 1.363 . S
C1044 C1050 1.379 . S
C1044 N1052 1.356 . S
C1045 C1044 1.363 . S
C1045 C1051 1.363 . S
C1046 C1047 1.363 . S
C1046 C1051 1.379 . S
C1046 N1053 1.356 . S
C1047 C1046 1.363 . S
C1047 C1050 1.363 . S
N1048 C1050 1.356 . S
N1048 H1060 0.984 . S
N1048 H1061 0.985 . S
N1049 C1051 1.356 . S
N1049 H1054 0.984 . S
N1049 H1055 0.985 . S
C1050 C1044 1.379 . S
C1050 C1047 1.363 . S
C1050 N1048 1.356 . S
C1051 C1045 1.363 . S
C1051 C1046 1.379 . S
C1051 N1049 1.356 . S
N1052 C1044 1.356 . S
N1052 H1058 0.984 . S
N1052 H1059 0.984 . S
N1053 C1046 1.356 . S
N1053 H1056 0.984 . S
N1053 H1057 0.985 . S
H1054 N1049 0.984 . S
H1055 N1049 0.985 . S
H1056 N1053 0.984 . S
H1057 N1053 0.985 . S
H1058 N1052 0.984 . S
H1059 N1052 0.984 . S
H1060 N1048 0.984 . S
H1061 N1048 0.985 . S
C1062 C1063 1.363 . S
C1062 C1068 1.379 . S
C1062 N1070 1.356 . S
C1063 C1062 1.363 . S
C1063 C1069 1.363 . S
C1064 C1065 1.363 . S
C1064 C1069 1.379 . S
C1064 N1071 1.356 . S
C1065 C1064 1.363 . S
C1065 C1068 1.363 . S
N1066 C1068 1.356 . S
N1066 H1078 0.984 . S
N1066 H1079 0.985 . S
N1067 C1069 1.356 . S
N1067 H1072 0.984 . S
N1067 H1073 0.985 . S
C1068 C1062 1.379 . S
C1068 C1065 1.363 . S
C1068 N1066 1.356 . S
C1069 C1063 1.363 . S
C1069 C1064 1.379 . S
C1069 N1067 1.356 . S
N1070 C1062 1.356 . S
N1070 H1076 0.984 . S
N1070 H1077 0.984 . S
N1071 C1064 1.356 . S
N1071 H1074 0.984 . S
N1071 H1075 0.985 . S
H1072 N1067 0.984 . S
H1073 N1067 0.985 . S
H1074 N1071 0.984 . S
H1075 N1071 0.985 . S
H1076 N1070 0.984 . S
H1077 N1070 0.984 . S
H1078 N1066 0.984 . S
H1079 N1066 0.985 . S
C1080 C1081 1.363 . S
C1080 C1086 1.379 . S
C1080 N1088 1.356 . S
C1081 C1080 1.363 . S
C1081 C1087 1.363 . S
C1082 C1083 1.363 . S
C1082 C1087 1.379 . S
C1082 N1089 1.356 . S
C1083 C1082 1.363 . S
C1083 C1086 1.363 . S
N1084 C1086 1.356 . S
N1084 H1096 0.984 . S
N1084 H1097 0.985 . S
N1085 C1087 1.356 . S
N1085 H1090 0.984 . S
N1085 H1091 0.985 . S
C1086 C1080 1.379 . S
C1086 C1083 1.363 . S
C1086 N1084 1.356 . S
C1087 C1081 1.363 . S
C1087 C1082 1.379 . S
C1087 N1085 1.356 . S
N1088 C1080 1.356 . S
N1088 H1094 0.984 . S
N1088 H1095 0.984 . S
N1089 C1082 1.356 . S
N1089 H1092 0.984 . S
N1089 H1093 0.985 . S
H1090 N1085 0.984 . S
H1091 N1085 0.985 . S
H1092 N1089 0.984 . S
H1093 N1089 0.985 . S
H1094 N1088 0.984 . S
H1095 N1088 0.984 . S
H1096 N1084 0.984 . S
H1097 N1084 0.985 . S
C1098 C1099 1.363 . S
C1098 C1104 1.379 . S
C1098 N1106 1.356 . S
C1099 C1098 1.363 . S
C1099 C1105 1.363 . S
C1100 C1101 1.363 . S
C1100 C1105 1.379 . S
C1100 N1107 1.356 . S
C1101 C1100 1.363 . S
C1101 C1104 1.363 . S
N1102 C1104 1.356 . S
N1102 H1114 0.984 . S
N1102 H1115 0.985 . S
N1103 C1105 1.356 . S
N1103 H1108 0.984 . S
N1103 H1109 0.985 . S
C1104 C1098 1.379 . S
C1104 C1101 1.363 . S
C1104 N1102 1.356 . S
C1105 C1099 1.363 . S
C1105 C1100 1.379 . S
C1105 N1103 1.356 . S
N1106 C1098 1.356 . S
N1106 H1112 0.984 . S
N1106 H1113 0.984 . S
N1107 C1100 1.356 . S
N1107 H1110 0.984 . S
N1107 H1111 0.985 . S
H1108 N1103 0.984 . S
H1109 N1103 0.985 . S
H1110 N1107 0.984 . S
H1111 N1107 0.985 . S
H1112 N1106 0.984 . S
H1113 N1106 0.984 . S
H1114 N1102 0.984 . S
H1115 N1102 0.985 . S
C1116 C1117 1.363 . S
C1116 C1122 1.379 . S
C1116 N1124 1.356 . S
C1117 C1116 1.363 . S
C1117 C1123 1.363 . S
C1118 C1119 1.363 . S
C1118 C1123 1.379 . S
C1118 N1125 1.356 . S
C1119 C1118 1.363 . S
C1119 C1122 1.363 . S
N1120 C1122 1.356 . S
N1120 H1132 0.984 . S
N1120 H1133 0.985 . S
N1121 C1123 1.356 . S
N1121 H1126 0.984 . S
N1121 H1127 0.985 . S
C1122 C1116 1.379 . S
C1122 C1119 1.363 . S
C1122 N1120 1.356 . S
C1123 C1117 1.363 . S
C1123 C1118 1.379 . S
C1123 N1121 1.356 . S
N1124 C1116 1.356 . S
N1124 H1130 0.984 . S
N1124 H1131 0.984 . S
N1125 C1118 1.356 . S
N1125 H1128 0.984 . S
N1125 H1129 0.985 . S
H1126 N1121 0.984 . S
H1127 N1121 0.985 . S
H1128 N1125 0.984 . S
H1129 N1125 0.985 . S
H1130 N1124 0.984 . S
H1131 N1124 0.984 . S
H1132 N1120 0.984 . S
H1133 N1120 0.985 . S
C1134 C1135 1.363 . S
C1134 C1140 1.379 . S
C1134 N1142 1.356 . S
C1135 C1134 1.363 . S
C1135 C1141 1.363 . S
C1136 C1137 1.363 . S
C1136 C1141 1.379 . S
C1136 N1143 1.356 . S
C1137 C1136 1.363 . S
C1137 C1140 1.363 . S
N1138 C1140 1.356 . S
N1138 H1150 0.984 . S
N1138 H1151 0.985 . S
N1139 C1141 1.356 . S
N1139 H1144 0.984 . S
N1139 H1145 0.985 . S
C1140 C1134 1.379 . S
C1140 C1137 1.363 . S
C1140 N1138 1.356 . S
C1141 C1135 1.363 . S
C1141 C1136 1.379 . S
C1141 N1139 1.356 . S
N1142 C1134 1.356 . S
N1142 H1148 0.984 . S
N1142 H1149 0.984 . S
N1143 C1136 1.356 . S
N1143 H1146 0.984 . S
N1143 H1147 0.985 . S
H1144 N1139 0.984 . S
H1145 N1139 0.985 . S
H1146 N1143 0.984 . S
H1147 N1143 0.985 . S
H1148 N1142 0.984 . S
H1149 N1142 0.984 . S
H1150 N1138 0.984 . S
H1151 N1138 0.985 . S
C1152 C1153 1.363 . S
C1152 C1158 1.379 . S
C1152 N1160 1.356 . S
C1153 C1152 1.363 . S
C1153 C1159 1.363 . S
C1154 C1155 1.363 . S
C1154 C1159 1.379 . S
C1154 N1161 1.356 1_545 S
C1155 C1154 1.363 . S
C1155 C1158 1.363 . S
N1156 C1158 1.356 . S
N1156 H1168 0.984 . S
N1156 H1169 0.985 . S
N1157 C1159 1.356 1_565 S
N1157 H1162 0.984 . S
N1157 H1163 0.985 . S
C1158 C1152 1.379 . S
C1158 C1155 1.363 . S
C1158 N1156 1.356 . S
C1159 C1153 1.363 . S
C1159 C1154 1.379 . S
C1159 N1157 1.356 1_545 S
N1160 C1152 1.356 . S
N1160 H1166 0.984 . S
N1160 H1167 0.984 . S
N1161 C1154 1.356 1_565 S
N1161 H1164 0.984 . S
N1161 H1165 0.985 . S
H1162 N1157 0.984 . S
H1163 N1157 0.985 . S
H1164 N1161 0.984 . S
H1165 N1161 0.985 . S
H1166 N1160 0.984 . S
H1167 N1160 0.984 . S
H1168 N1156 0.984 . S
H1169 N1156 0.985 . S
C1170 C1171 1.363 . S
C1170 C1176 1.379 . S
C1170 N1178 1.356 . S
C1171 C1170 1.363 . S
C1171 C1177 1.363 . S
C1172 C1173 1.363 . S
C1172 C1177 1.379 . S
C1172 N1179 1.356 . S
C1173 C1172 1.363 . S
C1173 C1176 1.363 . S
N1174 C1176 1.356 . S
N1174 H1186 0.984 . S
N1174 H1187 0.985 . S
N1175 C1177 1.358 1_455 S
N1175 H1180 0.983 . S
N1175 H1181 0.984 . S
C1176 C1170 1.379 . S
C1176 C1173 1.363 . S
C1176 N1174 1.356 . S
C1177 C1171 1.363 . S
C1177 C1172 1.379 . S
C1177 N1175 1.358 1_655 S
N1178 C1170 1.356 . S
N1178 H1184 0.984 . S
N1178 H1185 0.984 . S
N1179 C1172 1.356 . S
N1179 H1182 0.984 . S
N1179 H1183 0.985 . S
H1180 N1175 0.983 . S
H1181 N1175 0.984 . S
H1182 N1179 0.984 . S
H1183 N1179 0.985 . S
H1184 N1178 0.984 . S
H1185 N1178 0.984 . S
H1186 N1174 0.984 . S
H1187 N1174 0.985 . S
C1188 C1189 1.363 . S
C1188 C1194 1.379 . S
C1188 N1196 1.356 . S
C1189 C1188 1.363 . S
C1189 C1195 1.363 . S
C1190 C1191 1.363 . S
C1190 C1195 1.379 . S
C1190 N1197 1.356 . S
C1191 C1190 1.363 . S
C1191 C1194 1.363 . S
N1192 C1194 1.356 . S
N1192 H1204 0.984 . S
N1192 H1205 0.985 . S
N1193 C1195 1.356 . S
N1193 H1198 0.984 . S
N1193 H1199 0.985 . S
C1194 C1188 1.379 . S
C1194 C1191 1.363 . S
C1194 N1192 1.356 . S
C1195 C1189 1.363 . S
C1195 C1190 1.379 . S
C1195 N1193 1.356 . S
N1196 C1188 1.356 . S
N1196 H1202 0.984 . S
N1196 H1203 0.984 . S
N1197 C1190 1.356 . S
N1197 H1200 0.984 . S
N1197 H1201 0.985 . S
H1198 N1193 0.984 . S
H1199 N1193 0.985 . S
H1200 N1197 0.984 . S
H1201 N1197 0.985 . S
H1202 N1196 0.984 . S
H1203 N1196 0.984 . S
H1204 N1192 0.984 . S
H1205 N1192 0.985 . S
C1206 C1207 1.363 . S
C1206 C1212 1.379 . S
C1206 N1214 1.356 1_455 S
C1207 C1206 1.363 . S
C1207 C1213 1.363 . S
C1208 C1209 1.363 . S
C1208 C1213 1.379 . S
C1208 N1215 1.356 . S
C1209 C1208 1.363 . S
C1209 C1212 1.363 . S
N1210 C1212 1.356 1_655 S
N1210 H1222 0.984 . S
N1210 H1223 0.985 . S
N1211 C1213 1.356 . S
N1211 H1216 0.984 . S
N1211 H1217 0.985 . S
C1212 C1206 1.379 . S
C1212 C1209 1.363 . S
C1212 N1210 1.356 1_455 S
C1213 C1207 1.363 . S
C1213 C1208 1.379 . S
C1213 N1211 1.356 . S
N1214 C1206 1.356 1_655 S
N1214 H1220 0.984 . S
N1214 H1221 0.984 . S
N1215 C1208 1.356 . S
N1215 H1218 0.984 . S
N1215 H1219 0.985 . S
H1216 N1211 0.984 . S
H1217 N1211 0.985 . S
H1218 N1215 0.984 . S
H1219 N1215 0.985 . S
H1220 N1214 0.984 . S
H1221 N1214 0.984 . S
H1222 N1210 0.984 . S
H1223 N1210 0.985 . S
C1224 C1225 1.363 . S
C1224 C1230 1.379 . S
C1224 N1232 1.356 . S
C1225 C1224 1.363 . S
C1225 C1231 1.363 . S
C1226 C1227 1.363 . S
C1226 C1231 1.379 . S
C1226 N1233 1.356 . S
C1227 C1226 1.363 . S
C1227 C1230 1.363 . S
N1228 C1230 1.356 . S
N1228 H1240 0.984 . S
N1228 H1241 0.985 . S
N1229 C1231 1.356 . S
N1229 H1234 0.984 . S
N1229 H1235 0.985 . S
C1230 C1224 1.379 . S
C1230 C1227 1.363 . S
C1230 N1228 1.356 . S
C1231 C1225 1.363 . S
C1231 C1226 1.379 . S
C1231 N1229 1.356 . S
N1232 C1224 1.356 . S
N1232 H1238 0.984 . S
N1232 H1239 0.984 . S
N1233 C1226 1.356 . S
N1233 H1236 0.984 . S
N1233 H1237 0.985 . S
H1234 N1229 0.984 . S
H1235 N1229 0.985 . S
H1236 N1233 0.984 . S
H1237 N1233 0.985 . S
H1238 N1232 0.984 . S
H1239 N1232 0.984 . S
H1240 N1228 0.984 . S
H1241 N1228 0.985 . S
C1242 C1243 1.363 . S
C1242 C1248 1.379 . S
C1242 N1250 1.356 . S
C1243 C1242 1.363 . S
C1243 C1249 1.363 1_565 S
C1244 C1245 1.363 1_545 S
C1244 C1249 1.379 . S
C1244 N1251 1.356 . S
C1245 C1244 1.363 1_565 S
C1245 C1248 1.363 . S
N1246 C1248 1.356 . S
N1246 H1258 0.984 . S
N1246 H1259 0.985 . S
N1247 C1249 1.356 . S
N1247 H1252 0.984 . S
N1247 H1253 0.985 . S
C1248 C1242 1.379 . S
C1248 C1245 1.363 . S
C1248 N1246 1.356 . S
C1249 C1243 1.363 1_545 S
C1249 C1244 1.379 . S
C1249 N1247 1.356 . S
N1250 C1242 1.356 . S
N1250 H1256 0.984 . S
N1250 H1257 0.984 . S
N1251 C1244 1.356 . S
N1251 H1254 0.984 . S
N1251 H1255 0.985 . S
H1252 N1247 0.984 . S
H1253 N1247 0.985 . S
H1254 N1251 0.984 . S
H1255 N1251 0.985 . S
H1256 N1250 0.984 . S
H1257 N1250 0.984 . S
H1258 N1246 0.984 . S
H1259 N1246 0.985 . S
C1260 C1261 1.364 1_565 S
C1260 C1266 1.379 . S
C1260 N1268 1.356 . S
C1261 C1260 1.364 1_545 S
C1261 C1267 1.363 . S
C1262 C1263 1.363 1_545 S
C1262 C1267 1.379 . S
C1262 N1269 1.356 . S
C1263 C1262 1.363 1_565 S
C1263 C1266 1.363 . S
N1264 C1266 1.356 . S
N1264 H1276 0.984 . S
N1264 H1277 0.985 . S
N1265 C1267 1.356 . S
N1265 H1270 0.984 . S
N1265 H1271 0.985 . S
C1266 C1260 1.379 . S
C1266 C1263 1.363 . S
C1266 N1264 1.356 . S
C1267 C1261 1.363 . S
C1267 C1262 1.379 . S
C1267 N1265 1.356 . S
N1268 C1260 1.356 . S
N1268 H1274 0.984 . S
N1268 H1275 0.984 . S
N1269 C1262 1.356 . S
N1269 H1272 0.984 . S
N1269 H1273 0.985 . S
H1270 N1265 0.984 . S
H1271 N1265 0.985 . S
H1272 N1269 0.984 . S
H1273 N1269 0.985 . S
H1274 N1268 0.984 . S
H1275 N1268 0.984 . S
H1276 N1264 0.984 . S
H1277 N1264 0.985 . S
C1278 C1279 1.363 . S
C1278 C1284 1.379 . S
C1278 N1286 1.356 . S
C1279 C1278 1.363 . S
C1279 C1285 1.363 . S
C1280 C1281 1.363 . S
C1280 C1285 1.379 . S
C1280 N1287 1.356 . S
C1281 C1280 1.363 . S
C1281 C1284 1.363 . S
N1282 C1284 1.356 . S
N1282 H1294 0.984 . S
N1282 H1295 0.985 . S
N1283 C1285 1.356 . S
N1283 H1288 0.984 . S
N1283 H1289 0.985 . S
C1284 C1278 1.379 . S
C1284 C1281 1.363 . S
C1284 N1282 1.356 . S
C1285 C1279 1.363 . S
C1285 C1280 1.379 . S
C1285 N1283 1.356 . S
N1286 C1278 1.356 . S
N1286 H1292 0.984 . S
N1286 H1293 0.984 . S
N1287 C1280 1.356 . S
N1287 H1290 0.984 . S
N1287 H1291 0.985 . S
H1288 N1283 0.984 . S
H1289 N1283 0.985 . S
H1290 N1287 0.984 . S
H1291 N1287 0.985 . S
H1292 N1286 0.984 . S
H1293 N1286 0.984 . S
H1294 N1282 0.984 . S
H1295 N1282 0.985 . S
C1296 C1297 1.363 . S
C1296 C1302 1.379 . S
C1296 N1304 1.356 . S
C1297 C1296 1.363 . S
C1297 C1303 1.363 . S
C1298 C1299 1.363 . S
C1298 C1303 1.379 . S
C1298 N1305 1.356 . S
C1299 C1298 1.363 . S
C1299 C1302 1.363 . S
N1300 C1302 1.356 . S
N1300 H1312 0.984 . S
N1300 H1313 0.985 . S
N1301 C1303 1.356 . S
N1301 H1306 0.984 . S
N1301 H1307 0.985 . S
C1302 C1296 1.379 . S
C1302 C1299 1.363 . S
C1302 N1300 1.356 . S
C1303 C1297 1.363 . S
C1303 C1298 1.379 . S
C1303 N1301 1.356 . S
N1304 C1296 1.356 . S
N1304 H1310 0.984 . S
N1304 H1311 0.984 . S
N1305 C1298 1.356 . S
N1305 H1308 0.984 . S
N1305 H1309 0.985 . S
H1306 N1301 0.984 . S
H1307 N1301 0.985 . S
H1308 N1305 0.984 . S
H1309 N1305 0.985 . S
H1310 N1304 0.984 . S
H1311 N1304 0.984 . S
H1312 N1300 0.984 . S
H1313 N1300 0.985 . S
C1314 C1315 1.363 1_455 S
C1314 C1320 1.379 . S
C1314 N1322 1.356 . S
C1315 C1314 1.363 1_655 S
C1315 C1321 1.363 . S
C1316 C1317 1.363 . S
C1316 C1321 1.379 . S
C1316 N1323 1.356 . S
C1317 C1316 1.363 . S
C1317 C1320 1.363 1_655 S
N1318 C1320 1.356 . S
N1318 H1330 0.984 . S
N1318 H1331 0.985 . S
N1319 C1321 1.356 . S
N1319 H1324 0.984 . S
N1319 H1325 0.985 . S
C1320 C1314 1.379 . S
C1320 C1317 1.363 1_455 S
C1320 N1318 1.356 . S
C1321 C1315 1.363 . S
C1321 C1316 1.379 . S
C1321 N1319 1.356 . S
N1322 C1314 1.356 . S
N1322 H1328 0.984 . S
N1322 H1329 0.984 . S
N1323 C1316 1.356 . S
N1323 H1326 0.984 . S
N1323 H1327 0.985 . S
H1324 N1319 0.984 . S
H1325 N1319 0.985 . S
H1326 N1323 0.984 . S
H1327 N1323 0.985 . S
H1328 N1322 0.984 . S
H1329 N1322 0.984 . S
H1330 N1318 0.984 . S
H1331 N1318 0.985 . S
C1332 C1333 1.363 . S
C1332 C1338 1.379 . S
C1332 N1340 1.356 . S
C1333 C1332 1.363 . S
C1333 C1339 1.363 . S
C1334 C1335 1.363 . S
C1334 C1339 1.379 . S
C1334 N1341 1.356 . S
C1335 C1334 1.363 . S
C1335 C1338 1.363 . S
N1336 C1338 1.356 . S
N1336 H1348 0.984 . S
N1336 H1349 0.985 . S
N1337 C1339 1.356 . S
N1337 H1342 0.984 . S
N1337 H1343 0.985 . S
C1338 C1332 1.379 . S
C1338 C1335 1.363 . S
C1338 N1336 1.356 . S
C1339 C1333 1.363 . S
C1339 C1334 1.379 . S
C1339 N1337 1.356 . S
N1340 C1332 1.356 . S
N1340 H1346 0.984 . S
N1340 H1347 0.984 . S
N1341 C1334 1.356 . S
N1341 H1344 0.984 . S
N1341 H1345 0.985 . S
H1342 N1337 0.984 . S
H1343 N1337 0.985 . S
H1344 N1341 0.984 . S
H1345 N1341 0.985 . S
H1346 N1340 0.984 . S
H1347 N1340 0.984 . S
H1348 N1336 0.984 . S
H1349 N1336 0.985 . S
C1350 C1351 1.363 . S
C1350 C1356 1.379 . S
C1350 N1358 1.356 . S
C1351 C1350 1.363 . S
C1351 C1357 1.363 . S
C1352 C1353 1.363 . S
C1352 C1357 1.379 . S
C1352 N1359 1.356 1_545 S
C1353 C1352 1.363 . S
C1353 C1356 1.363 . S
N1354 C1356 1.356 . S
N1354 H1366 0.984 . S
N1354 H1367 0.985 . S
N1355 C1357 1.356 1_565 S
N1355 H1360 0.984 . S
N1355 H1361 0.985 . S
C1356 C1350 1.379 . S
C1356 C1353 1.363 . S
C1356 N1354 1.356 . S
C1357 C1351 1.363 . S
C1357 C1352 1.379 . S
C1357 N1355 1.356 1_545 S
N1358 C1350 1.356 . S
N1358 H1364 0.984 . S
N1358 H1365 0.984 . S
N1359 C1352 1.356 1_565 S
N1359 H1362 0.984 1_565 S
N1359 H1363 0.985 . S
H1360 N1355 0.984 . S
H1361 N1355 0.985 . S
H1362 N1359 0.984 1_545 S
H1363 N1359 0.985 . S
H1364 N1358 0.984 . S
H1365 N1358 0.984 . S
H1366 N1354 0.984 . S
H1367 N1354 0.985 . S
C1368 C1369 1.363 . S
C1368 C1374 1.379 . S
C1368 N1376 1.356 . S
C1369 C1368 1.363 . S
C1369 C1375 1.363 . S
C1370 C1371 1.363 . S
C1370 C1375 1.379 . S
C1370 N1377 1.356 . S
C1371 C1370 1.363 . S
C1371 C1374 1.363 . S
N1372 C1374 1.356 . S
N1372 H1384 0.984 . S
N1372 H1385 0.985 . S
N1373 C1375 1.356 . S
N1373 H1378 0.984 . S
N1373 H1379 0.985 . S
C1374 C1368 1.379 . S
C1374 C1371 1.363 . S
C1374 N1372 1.356 . S
C1375 C1369 1.363 . S
C1375 C1370 1.379 . S
C1375 N1373 1.356 . S
N1376 C1368 1.356 . S
N1376 H1382 0.984 . S
N1376 H1383 0.984 . S
N1377 C1370 1.356 . S
N1377 H1380 0.984 . S
N1377 H1381 0.985 . S
H1378 N1373 0.984 . S
H1379 N1373 0.985 . S
H1380 N1377 0.984 . S
H1381 N1377 0.985 . S
H1382 N1376 0.984 . S
H1383 N1376 0.984 . S
H1384 N1372 0.984 . S
H1385 N1372 0.985 . S
C1386 C1387 1.363 . S
C1386 C1392 1.379 . S
C1386 N1394 1.356 . S
C1387 C1386 1.363 . S
C1387 C1393 1.363 . S
C1388 C1389 1.363 . S
C1388 C1393 1.379 . S
C1388 N1395 1.356 . S
C1389 C1388 1.363 . S
C1389 C1392 1.363 . S
N1390 C1392 1.356 . S
N1390 H1402 0.984 . S
N1390 H1403 0.985 . S
N1391 C1393 1.356 . S
N1391 H1396 0.984 . S
N1391 H1397 0.985 . S
C1392 C1386 1.379 . S
C1392 C1389 1.363 . S
C1392 N1390 1.356 . S
C1393 C1387 1.363 . S
C1393 C1388 1.379 . S
C1393 N1391 1.356 . S
N1394 C1386 1.356 . S
N1394 H1400 0.984 . S
N1394 H1401 0.984 . S
N1395 C1388 1.356 . S
N1395 H1398 0.984 . S
N1395 H1399 0.985 . S
H1396 N1391 0.984 . S
H1397 N1391 0.985 . S
H1398 N1395 0.984 . S
H1399 N1395 0.985 . S
H1400 N1394 0.984 . S
H1401 N1394 0.984 . S
H1402 N1390 0.984 . S
H1403 N1390 0.985 . S
C1404 C1405 1.363 . S
C1404 C1410 1.379 . S
C1404 N1412 1.356 . S
C1405 C1404 1.363 . S
C1405 C1411 1.363 . S
C1406 C1407 1.363 . S
C1406 C1411 1.379 . S
C1406 N1413 1.356 . S
C1407 C1406 1.363 . S
C1407 C1410 1.363 . S
N1408 C1410 1.356 . S
N1408 H1420 0.984 . S
N1408 H1421 0.985 . S
N1409 C1411 1.356 . S
N1409 H1414 0.984 . S
N1409 H1415 0.985 . S
C1410 C1404 1.379 . S
C1410 C1407 1.363 . S
C1410 N1408 1.356 . S
C1411 C1405 1.363 . S
C1411 C1406 1.379 . S
C1411 N1409 1.356 . S
N1412 C1404 1.356 . S
N1412 H1418 0.984 . S
N1412 H1419 0.984 . S
N1413 C1406 1.356 . S
N1413 H1416 0.984 . S
N1413 H1417 0.985 . S
H1414 N1409 0.984 . S
H1415 N1409 0.985 . S
H1416 N1413 0.984 . S
H1417 N1413 0.985 . S
H1418 N1412 0.984 . S
H1419 N1412 0.984 . S
H1420 N1408 0.984 . S
H1421 N1408 0.985 . S
C1422 C1423 1.363 . S
C1422 C1428 1.379 . S
C1422 N1430 1.356 . S
C1423 C1422 1.363 . S
C1423 C1429 1.363 . S
C1424 C1425 1.363 . S
C1424 C1429 1.379 . S
C1424 N1431 1.356 . S
C1425 C1424 1.363 . S
C1425 C1428 1.363 . S
N1426 C1428 1.356 . S
N1426 H1438 0.984 . S
N1426 H1439 0.985 . S
N1427 C1429 1.356 . S
N1427 H1432 0.984 . S
N1427 H1433 0.985 . S
C1428 C1422 1.379 . S
C1428 C1425 1.363 . S
C1428 N1426 1.356 . S
C1429 C1423 1.363 . S
C1429 C1424 1.379 . S
C1429 N1427 1.356 . S
N1430 C1422 1.356 . S
N1430 H1436 0.984 . S
N1430 H1437 0.984 . S
N1431 C1424 1.356 . S
N1431 H1434 0.984 . S
N1431 H1435 0.985 . S
H1432 N1427 0.984 . S
H1433 N1427 0.985 . S
H1434 N1431 0.984 . S
H1435 N1431 0.985 . S
H1436 N1430 0.984 . S
H1437 N1430 0.984 . S
H1438 N1426 0.984 . S
H1439 N1426 0.985 . S
C1440 C1441 1.363 . S
C1440 C1446 1.379 . S
C1440 N1448 1.356 . S
C1441 C1440 1.363 . S
C1441 C1447 1.363 . S
C1442 C1443 1.363 . S
C1442 C1447 1.379 . S
C1442 N1449 1.356 . S
C1443 C1442 1.363 . S
C1443 C1446 1.363 . S
N1444 C1446 1.356 . S
N1444 H1456 0.984 . S
N1444 H1457 0.985 . S
N1445 C1447 1.356 . S
N1445 H1450 0.984 . S
N1445 H1451 0.985 . S
C1446 C1440 1.379 . S
C1446 C1443 1.363 . S
C1446 N1444 1.356 . S
C1447 C1441 1.363 . S
C1447 C1442 1.379 . S
C1447 N1445 1.356 . S
N1448 C1440 1.356 . S
N1448 H1454 0.984 . S
N1448 H1455 0.984 . S
N1449 C1442 1.356 . S
N1449 H1452 0.984 . S
N1449 H1453 0.985 . S
H1450 N1445 0.984 . S
H1451 N1445 0.985 . S
H1452 N1449 0.984 . S
H1453 N1449 0.985 . S
H1454 N1448 0.984 . S
H1455 N1448 0.984 . S
H1456 N1444 0.984 . S
H1457 N1444 0.985 . S
C1458 C1459 1.363 . S
C1458 C1464 1.379 . S
C1458 N1466 1.356 . S
C1459 C1458 1.363 . S
C1459 C1465 1.363 . S
C1460 C1461 1.363 . S
C1460 C1465 1.379 . S
C1460 N1467 1.356 . S
C1461 C1460 1.363 . S
C1461 C1464 1.363 . S
N1462 C1464 1.356 . S
N1462 H1474 0.984 . S
N1462 H1475 0.985 . S
N1463 C1465 1.356 . S
N1463 H1468 0.984 . S
N1463 H1469 0.985 . S
C1464 C1458 1.379 . S
C1464 C1461 1.363 . S
C1464 N1462 1.356 . S
C1465 C1459 1.363 . S
C1465 C1460 1.379 . S
C1465 N1463 1.356 . S
N1466 C1458 1.356 . S
N1466 H1472 0.984 . S
N1466 H1473 0.984 . S
N1467 C1460 1.356 . S
N1467 H1470 0.984 . S
N1467 H1471 0.985 . S
H1468 N1463 0.984 . S
H1469 N1463 0.985 . S
H1470 N1467 0.984 . S
H1471 N1467 0.985 . S
H1472 N1466 0.984 . S
H1473 N1466 0.984 . S
H1474 N1462 0.984 . S
H1475 N1462 0.985 . S
C1476 C1477 1.363 . S
C1476 C1482 1.379 . S
C1476 N1484 1.356 . S
C1477 C1476 1.363 . S
C1477 C1483 1.363 . S
C1478 C1479 1.363 . S
C1478 C1483 1.379 . S
C1478 N1485 1.356 . S
C1479 C1478 1.363 . S
C1479 C1482 1.363 . S
N1480 C1482 1.356 . S
N1480 H1492 0.984 . S
N1480 H1493 0.985 . S
N1481 C1483 1.356 . S
N1481 H1486 0.984 . S
N1481 H1487 0.985 . S
C1482 C1476 1.379 . S
C1482 C1479 1.363 . S
C1482 N1480 1.356 . S
C1483 C1477 1.363 . S
C1483 C1478 1.379 . S
C1483 N1481 1.356 . S
N1484 C1476 1.356 . S
N1484 H1490 0.984 . S
N1484 H1491 0.984 . S
N1485 C1478 1.356 . S
N1485 H1488 0.984 . S
N1485 H1489 0.985 . S
H1486 N1481 0.984 . S
H1487 N1481 0.985 . S
H1488 N1485 0.984 . S
H1489 N1485 0.985 . S
H1490 N1484 0.984 . S
H1491 N1484 0.984 . S
H1492 N1480 0.984 . S
H1493 N1480 0.985 . S
C1494 C1495 1.363 . S
C1494 C1500 1.379 . S
C1494 N1502 1.356 . S
C1495 C1494 1.363 . S
C1495 C1501 1.363 . S
C1496 C1497 1.363 . S
C1496 C1501 1.379 . S
C1496 N1503 1.356 . S
C1497 C1496 1.363 . S
C1497 C1500 1.363 . S
N1498 C1500 1.356 . S
N1498 H1510 0.984 . S
N1498 H1511 0.985 . S
N1499 C1501 1.356 . S
N1499 H1504 0.984 . S
N1499 H1505 0.985 . S
C1500 C1494 1.379 . S
C1500 C1497 1.363 . S
C1500 N1498 1.356 . S
C1501 C1495 1.363 . S
C1501 C1496 1.379 . S
C1501 N1499 1.356 . S
N1502 C1494 1.356 . S
N1502 H1508 0.984 . S
N1502 H1509 0.984 . S
N1503 C1496 1.356 . S
N1503 H1506 0.984 . S
N1503 H1507 0.985 . S
H1504 N1499 0.984 . S
H1505 N1499 0.985 . S
H1506 N1503 0.984 . S
H1507 N1503 0.985 . S
H1508 N1502 0.984 . S
H1509 N1502 0.984 . S
H1510 N1498 0.984 . S
H1511 N1498 0.985 . S
C1512 C1513 1.363 . S
C1512 C1518 1.379 . S
C1512 N1520 1.356 . S
C1513 C1512 1.363 . S
C1513 C1519 1.363 . S
C1514 C1515 1.363 . S
C1514 C1519 1.379 . S
C1514 N1521 1.356 . S
C1515 C1514 1.363 . S
C1515 C1518 1.363 . S
N1516 C1518 1.356 . S
N1516 H1528 0.984 . S
N1516 H1529 0.985 . S
N1517 C1519 1.356 . S
N1517 H1522 0.984 . S
N1517 H1523 0.985 . S
C1518 C1512 1.379 . S
C1518 C1515 1.363 . S
C1518 N1516 1.356 . S
C1519 C1513 1.363 . S
C1519 C1514 1.379 . S
C1519 N1517 1.356 . S
N1520 C1512 1.356 . S
N1520 H1526 0.984 . S
N1520 H1527 0.984 . S
N1521 C1514 1.356 . S
N1521 H1524 0.984 . S
N1521 H1525 0.985 . S
H1522 N1517 0.984 . S
H1523 N1517 0.985 . S
H1524 N1521 0.984 . S
H1525 N1521 0.985 . S
H1526 N1520 0.984 . S
H1527 N1520 0.984 . S
H1528 N1516 0.984 . S
H1529 N1516 0.985 . S
C1530 C1531 1.363 . S
C1530 C1536 1.379 . S
C1530 N1538 1.356 . S
C1531 C1530 1.363 . S
C1531 C1537 1.363 . S
C1532 C1533 1.363 . S
C1532 C1537 1.379 . S
C1532 N1539 1.356 . S
C1533 C1532 1.363 . S
C1533 C1536 1.363 . S
N1534 C1536 1.356 . S
N1534 H1546 0.984 . S
N1534 H1547 0.985 . S
N1535 C1537 1.356 . S
N1535 H1540 0.984 . S
N1535 H1541 0.985 . S
C1536 C1530 1.379 . S
C1536 C1533 1.363 . S
C1536 N1534 1.356 . S
C1537 C1531 1.363 . S
C1537 C1532 1.379 . S
C1537 N1535 1.356 . S
N1538 C1530 1.356 . S
N1538 H1544 0.984 . S
N1538 H1545 0.984 . S
N1539 C1532 1.356 . S
N1539 H1542 0.984 . S
N1539 H1543 0.985 . S
H1540 N1535 0.984 . S
H1541 N1535 0.985 . S
H1542 N1539 0.984 . S
H1543 N1539 0.985 . S
H1544 N1538 0.984 . S
H1545 N1538 0.984 . S
H1546 N1534 0.984 . S
H1547 N1534 0.985 . S
C1548 C1549 1.363 . S
C1548 C1554 1.379 . S
C1548 N1556 1.356 . S
C1549 C1548 1.363 . S
C1549 C1555 1.363 . S
C1550 C1551 1.363 . S
C1550 C1555 1.379 . S
C1550 N1557 1.356 . S
C1551 C1550 1.363 . S
C1551 C1554 1.363 . S
N1552 C1554 1.356 . S
N1552 H1564 0.984 . S
N1552 H1565 0.985 . S
N1553 C1555 1.356 . S
N1553 H1558 0.984 . S
N1553 H1559 0.985 . S
C1554 C1548 1.379 . S
C1554 C1551 1.363 . S
C1554 N1552 1.356 . S
C1555 C1549 1.363 . S
C1555 C1550 1.379 . S
C1555 N1553 1.356 . S
N1556 C1548 1.356 . S
N1556 H1562 0.984 . S
N1556 H1563 0.984 . S
N1557 C1550 1.356 . S
N1557 H1560 0.984 . S
N1557 H1561 0.985 . S
H1558 N1553 0.984 . S
H1559 N1553 0.985 . S
H1560 N1557 0.984 . S
H1561 N1557 0.985 . S
H1562 N1556 0.984 . S
H1563 N1556 0.984 . S
H1564 N1552 0.984 . S
H1565 N1552 0.985 . S
C1566 C1567 1.363 . S
C1566 C1572 1.379 . S
C1566 N1574 1.356 . S
C1567 C1566 1.363 . S
C1567 C1573 1.363 . S
C1568 C1569 1.363 . S
C1568 C1573 1.379 . S
C1568 N1575 1.356 . S
C1569 C1568 1.363 . S
C1569 C1572 1.363 . S
N1570 C1572 1.356 . S
N1570 H1582 0.984 . S
N1570 H1583 0.985 . S
N1571 C1573 1.356 . S
N1571 H1576 0.984 . S
N1571 H1577 0.985 . S
C1572 C1566 1.379 . S
C1572 C1569 1.363 . S
C1572 N1570 1.356 . S
C1573 C1567 1.363 . S
C1573 C1568 1.379 . S
C1573 N1571 1.356 . S
N1574 C1566 1.356 . S
N1574 H1580 0.984 . S
N1574 H1581 0.984 . S
N1575 C1568 1.356 . S
N1575 H1578 0.984 . S
N1575 H1579 0.985 . S
H1576 N1571 0.984 . S
H1577 N1571 0.985 . S
H1578 N1575 0.984 . S
H1579 N1575 0.985 . S
H1580 N1574 0.984 . S
H1581 N1574 0.984 . S
H1582 N1570 0.984 . S
H1583 N1570 0.985 . S
C1584 C1585 1.363 . S
C1584 C1590 1.379 . S
C1584 N1592 1.356 . S
C1585 C1584 1.363 . S
C1585 C1591 1.363 . S
C1586 C1587 1.363 . S
C1586 C1591 1.379 . S
C1586 N1593 1.356 . S
C1587 C1586 1.363 . S
C1587 C1590 1.363 . S
N1588 C1590 1.356 . S
N1588 H1600 0.984 . S
N1588 H1601 0.985 . S
N1589 C1591 1.356 . S
N1589 H1594 0.984 . S
N1589 H1595 0.985 . S
C1590 C1584 1.379 . S
C1590 C1587 1.363 . S
C1590 N1588 1.356 . S
C1591 C1585 1.363 . S
C1591 C1586 1.379 . S
C1591 N1589 1.356 . S
N1592 C1584 1.356 . S
N1592 H1598 0.984 . S
N1592 H1599 0.984 . S
N1593 C1586 1.356 . S
N1593 H1596 0.984 . S
N1593 H1597 0.985 . S
H1594 N1589 0.984 . S
H1595 N1589 0.985 . S
H1596 N1593 0.984 . S
H1597 N1593 0.985 . S
H1598 N1592 0.984 . S
H1599 N1592 0.984 . S
H1600 N1588 0.984 . S
H1601 N1588 0.985 . S
C1602 C1603 1.363 . S
C1602 C1608 1.379 . S
C1602 N1610 1.356 . S
C1603 C1602 1.363 . S
C1603 C1609 1.363 . S
C1604 C1605 1.363 . S
C1604 C1609 1.379 . S
C1604 N1611 1.356 . S
C1605 C1604 1.363 . S
C1605 C1608 1.363 . S
N1606 C1608 1.356 . S
N1606 H1618 0.984 . S
N1606 H1619 0.985 . S
N1607 C1609 1.356 . S
N1607 H1612 0.984 . S
N1607 H1613 0.985 . S
C1608 C1602 1.379 . S
C1608 C1605 1.363 . S
C1608 N1606 1.356 . S
C1609 C1603 1.363 . S
C1609 C1604 1.379 . S
C1609 N1607 1.356 . S
N1610 C1602 1.356 . S
N1610 H1616 0.984 . S
N1610 H1617 0.984 . S
N1611 C1604 1.356 . S
N1611 H1614 0.984 . S
N1611 H1615 0.985 . S
H1612 N1607 0.984 . S
H1613 N1607 0.985 . S
H1614 N1611 0.984 . S
H1615 N1611 0.985 . S
H1616 N1610 0.984 . S
H1617 N1610 0.984 . S
H1618 N1606 0.984 . S
H1619 N1606 0.985 . S
C1620 C1621 1.363 . S
C1620 C1626 1.379 . S
C1620 N1628 1.356 . S
C1621 C1620 1.363 . S
C1621 C1627 1.363 . S
C1622 C1623 1.363 . S
C1622 C1627 1.379 . S
C1622 N1629 1.356 . S
C1623 C1622 1.363 . S
C1623 C1626 1.363 . S
N1624 C1626 1.356 . S
N1624 H1636 0.984 . S
N1624 H1637 0.985 . S
N1625 C1627 1.356 . S
N1625 H1630 0.984 . S
N1625 H1631 0.985 . S
C1626 C1620 1.379 . S
C1626 C1623 1.363 . S
C1626 N1624 1.356 . S
C1627 C1621 1.363 . S
C1627 C1622 1.379 . S
C1627 N1625 1.356 . S
N1628 C1620 1.356 . S
N1628 H1634 0.984 . S
N1628 H1635 0.984 . S
N1629 C1622 1.356 . S
N1629 H1632 0.984 . S
N1629 H1633 0.985 . S
H1630 N1625 0.984 . S
H1631 N1625 0.985 . S
H1632 N1629 0.984 . S
H1633 N1629 0.985 . S
H1634 N1628 0.984 . S
H1635 N1628 0.984 . S
H1636 N1624 0.984 . S
H1637 N1624 0.985 . S
C1638 C1639 1.363 . S
C1638 C1644 1.379 . S
C1638 N1646 1.356 . S
C1639 C1638 1.363 . S
C1639 C1645 1.363 . S
C1640 C1641 1.363 . S
C1640 C1645 1.379 . S
C1640 N1647 1.356 . S
C1641 C1640 1.363 . S
C1641 C1644 1.363 . S
N1642 C1644 1.356 . S
N1642 H1654 0.984 . S
N1642 H1655 0.985 . S
N1643 C1645 1.356 . S
N1643 H1648 0.984 . S
N1643 H1649 0.985 . S
C1644 C1638 1.379 . S
C1644 C1641 1.363 . S
C1644 N1642 1.356 . S
C1645 C1639 1.363 . S
C1645 C1640 1.379 . S
C1645 N1643 1.356 . S
N1646 C1638 1.356 . S
N1646 H1652 0.984 . S
N1646 H1653 0.984 . S
N1647 C1640 1.356 . S
N1647 H1650 0.984 . S
N1647 H1651 0.985 . S
H1648 N1643 0.984 . S
H1649 N1643 0.985 . S
H1650 N1647 0.984 . S
H1651 N1647 0.985 . S
H1652 N1646 0.984 . S
H1653 N1646 0.984 . S
H1654 N1642 0.984 . S
H1655 N1642 0.985 . S
C1656 C1657 1.363 . S
C1656 C1662 1.379 . S
C1656 N1664 1.356 . S
C1657 C1656 1.363 . S
C1657 C1663 1.363 . S
C1658 C1659 1.363 . S
C1658 C1663 1.379 . S
C1658 N1665 1.356 . S
C1659 C1658 1.363 . S
C1659 C1662 1.363 . S
N1660 C1662 1.356 . S
N1660 H1672 0.984 . S
N1660 H1673 0.985 . S
N1661 C1663 1.356 . S
N1661 H1666 0.984 . S
N1661 H1667 0.985 . S
C1662 C1656 1.379 . S
C1662 C1659 1.363 . S
C1662 N1660 1.356 . S
C1663 C1657 1.363 . S
C1663 C1658 1.379 . S
C1663 N1661 1.356 . S
N1664 C1656 1.356 . S
N1664 H1670 0.984 . S
N1664 H1671 0.984 . S
N1665 C1658 1.356 . S
N1665 H1668 0.984 . S
N1665 H1669 0.985 . S
H1666 N1661 0.984 . S
H1667 N1661 0.985 . S
H1668 N1665 0.984 . S
H1669 N1665 0.985 . S
H1670 N1664 0.984 . S
H1671 N1664 0.984 . S
H1672 N1660 0.984 . S
H1673 N1660 0.985 . S
C1674 C1675 1.363 . S
C1674 C1680 1.379 . S
C1674 N1682 1.356 . S
C1675 C1674 1.363 . S
C1675 C1681 1.363 . S
C1676 C1677 1.363 . S
C1676 C1681 1.379 . S
C1676 N1683 1.356 . S
C1677 C1676 1.363 . S
C1677 C1680 1.363 . S
N1678 C1680 1.356 . S
N1678 H1690 0.984 . S
N1678 H1691 0.985 . S
N1679 C1681 1.356 . S
N1679 H1684 0.984 . S
N1679 H1685 0.985 . S
C1680 C1674 1.379 . S
C1680 C1677 1.363 . S
C1680 N1678 1.356 . S
C1681 C1675 1.363 . S
C1681 C1676 1.379 . S
C1681 N1679 1.356 . S
N1682 C1674 1.356 . S
N1682 H1688 0.984 . S
N1682 H1689 0.984 . S
N1683 C1676 1.356 . S
N1683 H1686 0.984 . S
N1683 H1687 0.985 . S
H1684 N1679 0.984 . S
H1685 N1679 0.985 . S
H1686 N1683 0.984 . S
H1687 N1683 0.985 . S
H1688 N1682 0.984 . S
H1689 N1682 0.984 . S
H1690 N1678 0.984 . S
H1691 N1678 0.985 . S
C1692 C1693 1.363 . S
C1692 C1698 1.379 . S
C1692 N1700 1.356 . S
C1693 C1692 1.363 . S
C1693 C1699 1.363 . S
C1694 C1695 1.363 . S
C1694 C1699 1.379 . S
C1694 N1701 1.356 . S
C1695 C1694 1.363 . S
C1695 C1698 1.363 . S
N1696 C1698 1.356 . S
N1696 H1708 0.984 . S
N1696 H1709 0.985 . S
N1697 C1699 1.356 . S
N1697 H1702 0.984 . S
N1697 H1703 0.985 . S
C1698 C1692 1.379 . S
C1698 C1695 1.363 . S
C1698 N1696 1.356 . S
C1699 C1693 1.363 . S
C1699 C1694 1.379 . S
C1699 N1697 1.356 . S
N1700 C1692 1.356 . S
N1700 H1706 0.984 . S
N1700 H1707 0.984 . S
N1701 C1694 1.356 . S
N1701 H1704 0.984 . S
N1701 H1705 0.985 . S
H1702 N1697 0.984 . S
H1703 N1697 0.985 . S
H1704 N1701 0.984 . S
H1705 N1701 0.985 . S
H1706 N1700 0.984 . S
H1707 N1700 0.984 . S
H1708 N1696 0.984 . S
H1709 N1696 0.985 . S
C1710 C1711 1.363 . S
C1710 C1716 1.379 . S
C1710 N1718 1.356 . S
C1711 C1710 1.363 . S
C1711 C1717 1.363 . S
C1712 C1713 1.363 . S
C1712 C1717 1.379 . S
C1712 N1719 1.356 . S
C1713 C1712 1.363 . S
C1713 C1716 1.363 . S
N1714 C1716 1.356 . S
N1714 H1726 0.984 . S
N1714 H1727 0.985 . S
N1715 C1717 1.356 . S
N1715 H1720 0.984 . S
N1715 H1721 0.985 . S
C1716 C1710 1.379 . S
C1716 C1713 1.363 . S
C1716 N1714 1.356 . S
C1717 C1711 1.363 . S
C1717 C1712 1.379 . S
C1717 N1715 1.356 . S
N1718 C1710 1.356 . S
N1718 H1724 0.984 . S
N1718 H1725 0.984 . S
N1719 C1712 1.356 . S
N1719 H1722 0.984 . S
N1719 H1723 0.985 . S
H1720 N1715 0.984 . S
H1721 N1715 0.985 . S
H1722 N1719 0.984 . S
H1723 N1719 0.985 . S
H1724 N1718 0.984 . S
H1725 N1718 0.984 . S
H1726 N1714 0.984 . S
H1727 N1714 0.985 . S
C1728 C1729 1.363 . S
C1728 C1734 1.379 . S
C1728 N1736 1.356 . S
C1729 C1728 1.363 . S
C1729 C1735 1.363 . S
C1730 C1731 1.363 . S
C1730 C1735 1.379 . S
C1730 N1737 1.356 . S
C1731 C1730 1.363 . S
C1731 C1734 1.363 . S
N1732 C1734 1.356 . S
N1732 H1744 0.984 . S
N1732 H1745 0.985 . S
N1733 C1735 1.356 . S
N1733 H1738 0.984 1_565 S
N1733 H1739 0.986 1_565 S
C1734 C1728 1.379 . S
C1734 C1731 1.363 . S
C1734 N1732 1.356 . S
C1735 C1729 1.363 . S
C1735 C1730 1.379 . S
C1735 N1733 1.356 . S
N1736 C1728 1.356 . S
N1736 H1742 0.984 . S
N1736 H1743 0.984 . S
N1737 C1730 1.356 . S
N1737 H1740 0.984 . S
N1737 H1741 0.985 . S
H1738 N1733 0.984 1_545 S
H1739 N1733 0.986 1_545 S
H1740 N1737 0.984 . S
H1741 N1737 0.985 . S
H1742 N1736 0.984 . S
H1743 N1736 0.984 . S
H1744 N1732 0.984 . S
H1745 N1732 0.985 . S
C1746 C1747 1.363 . S
C1746 C1752 1.379 . S
C1746 N1754 1.356 . S
C1747 C1746 1.363 . S
C1747 C1753 1.363 . S
C1748 C1749 1.363 . S
C1748 C1753 1.379 . S
C1748 N1755 1.356 . S
C1749 C1748 1.363 . S
C1749 C1752 1.363 . S
N1750 C1752 1.356 . S
N1750 H1762 0.984 . S
N1750 H1763 0.985 . S
N1751 C1753 1.356 . S
N1751 H1756 0.984 . S
N1751 H1757 0.985 . S
C1752 C1746 1.379 . S
C1752 C1749 1.363 . S
C1752 N1750 1.356 . S
C1753 C1747 1.363 . S
C1753 C1748 1.379 . S
C1753 N1751 1.356 . S
N1754 C1746 1.356 . S
N1754 H1760 0.984 . S
N1754 H1761 0.984 . S
N1755 C1748 1.356 . S
N1755 H1758 0.984 . S
N1755 H1759 0.985 . S
H1756 N1751 0.984 . S
H1757 N1751 0.985 . S
H1758 N1755 0.984 . S
H1759 N1755 0.985 . S
H1760 N1754 0.984 . S
H1761 N1754 0.984 . S
H1762 N1750 0.984 . S
H1763 N1750 0.985 . S
C1764 C1765 1.363 . S
C1764 C1770 1.379 . S
C1764 N1772 1.356 . S
C1765 C1764 1.363 . S
C1765 C1771 1.363 . S
C1766 C1767 1.363 . S
C1766 C1771 1.379 . S
C1766 N1773 1.356 . S
C1767 C1766 1.363 . S
C1767 C1770 1.363 . S
N1768 C1770 1.356 . S
N1768 H1780 0.984 . S
N1768 H1781 0.985 . S
N1769 C1771 1.356 . S
N1769 H1774 0.984 . S
N1769 H1775 0.985 . S
C1770 C1764 1.379 . S
C1770 C1767 1.363 . S
C1770 N1768 1.356 . S
C1771 C1765 1.363 . S
C1771 C1766 1.379 . S
C1771 N1769 1.356 . S
N1772 C1764 1.356 . S
N1772 H1778 0.984 . S
N1772 H1779 0.984 . S
N1773 C1766 1.356 . S
N1773 H1776 0.984 . S
N1773 H1777 0.985 . S
H1774 N1769 0.984 . S
H1775 N1769 0.985 . S
H1776 N1773 0.984 . S
H1777 N1773 0.985 . S
H1778 N1772 0.984 . S
H1779 N1772 0.984 . S
H1780 N1768 0.984 . S
H1781 N1768 0.985 . S
C1782 C1783 1.363 . S
C1782 C1788 1.379 . S
C1782 N1790 1.356 . S
C1783 C1782 1.363 . S
C1783 C1789 1.363 . S
C1784 C1785 1.363 . S
C1784 C1789 1.379 . S
C1784 N1791 1.356 . S
C1785 C1784 1.363 . S
C1785 C1788 1.363 . S
N1786 C1788 1.356 . S
N1786 H1798 0.984 . S
N1786 H1799 0.985 . S
N1787 C1789 1.356 . S
N1787 H1792 0.984 . S
N1787 H1793 0.985 . S
C1788 C1782 1.379 . S
C1788 C1785 1.363 . S
C1788 N1786 1.356 . S
C1789 C1783 1.363 . S
C1789 C1784 1.379 . S
C1789 N1787 1.356 . S
N1790 C1782 1.356 . S
N1790 H1796 0.984 . S
N1790 H1797 0.984 . S
N1791 C1784 1.356 . S
N1791 H1794 0.984 . S
N1791 H1795 0.985 . S
H1792 N1787 0.984 . S
H1793 N1787 0.985 . S
H1794 N1791 0.984 . S
H1795 N1791 0.985 . S
H1796 N1790 0.984 . S
H1797 N1790 0.984 . S
H1798 N1786 0.984 . S
H1799 N1786 0.985 . S
C505 C35 1.382 . S
C507 C256 1.178 . S
C523 C7 1.389 . S
C525 C272 1.185 . S
C543 C255 1.180 . S
C541 C23 1.344 . S
C561 C280 1.158 . S
C559 C37 1.336 . S
C577 C9 1.360 . S
C579 C289 1.192 . S
C597 C292 1.179 . S
C595 C21 1.380 1_455 S
C613 C77 1.382 . S
C615 C298 1.178 . S
C633 C314 1.185 . S
C631 C49 1.389 . S
C651 C297 1.180 . S
C649 C65 1.344 . S
C667 C79 1.337 . S
C669 C322 1.158 . S
C687 C331 1.192 . S
C685 C51 1.360 . S
C705 C334 1.179 . S
C703 C63 1.380 . S
C723 C343 1.178 . S
C721 C119 1.382 . S
C741 C355 1.185 . S
C739 C91 1.389 . S
C759 C352 1.180 . S
C757 C107 1.344 . S
C775 C121 1.337 . S
C777 C361 1.158 . S
C795 C360 1.192 . S
C793 C93 1.360 . S
C811 C105 1.380 . S
C813 C377 1.179 . S
C831 C382 1.178 . S
C829 C161 1.382 . S
C849 C398 1.185 . S
C847 C133 1.389 . S
C865 C149 1.344 . S
C867 C381 1.180 . S
C885 C406 1.158 . S
C883 C163 1.337 . S
C903 C415 1.192 . S
C901 C135 1.360 . S
C919 C147 1.379 . S
C921 C418 1.179 . S
C937 C203 1.382 . S
C939 C427 1.178 . S
C957 C439 1.185 . S
C955 C175 1.389 . S
C975 C436 1.180 . S
C973 C191 1.344 . S
C991 C205 1.337 . S
C993 C445 1.158 . S
C1011 C444 1.192 . S
C1009 C177 1.360 . S
C1027 C189 1.380 . S
C1029 C461 1.179 . S
C1047 C466 1.179 . S
C1045 C245 1.382 . S
C1065 C482 1.184 . S
C1063 C217 1.388 . S
C1081 C233 1.344 . S
C1083 C465 1.180 . S
C1101 C487 1.158 . S
C1099 C247 1.337 . S
C1119 C486 1.192 . S
C1117 C219 1.360 . S
C1137 C503 1.180 . S
C1135 C231 1.380 . S
C1155 C268 1.502 . S
C1153 C162 1.599 . S
C1171 C134 1.599 . S
C1173 C271 1.492 . S
C1191 C259 1.455 . S
C1189 C143 1.575 . S
C1207 C241 1.608 . S
C1209 C276 1.505 . S
C1225 C213 1.607 . S
C1227 C277 1.489 . S
C1245 C293 1.515 . S
C1243 C232 1.610 . S
C1263 C310 1.494 . S
C1261 C204 1.599 1_545 S
C1281 C313 1.492 . S
C1279 C176 1.599 . S
C1297 C185 1.574 . S
C1299 C301 1.455 . S
C1317 C318 1.506 . S
C1315 C115 1.608 . S
C1333 C87 1.607 . S
C1335 C319 1.489 . S
C1351 C106 1.610 . S
C1353 C335 1.515 . S
C1369 C246 1.599 . S
C1371 C339 1.502 . S
C1387 C218 1.598 . S
C1389 C356 1.492 . S
C1407 C340 1.455 . S
C1405 C227 1.575 . S
C1425 C373 1.505 . S
C1423 C73 1.608 . S
C1443 C364 1.489 . S
C1441 C45 1.607 . S
C1459 C64 1.610 . S
C1461 C376 1.515 . S
C1479 C394 1.502 . S
C1477 C36 1.599 . S
C1497 C397 1.492 . S
C1495 C8 1.599 . S
C1513 C17 1.574 . S
C1515 C385 1.455 . S
C1533 C402 1.505 . S
C1531 C199 1.608 . S
C1551 C403 1.489 . S
C1549 C171 1.607 . S
C1569 C419 1.515 . S
C1567 C190 1.610 . S
C1587 C423 1.502 . S
C1585 C78 1.599 . S
C1605 C440 1.492 . S
C1603 C50 1.599 . S
C1621 C59 1.575 . S
C1623 C424 1.455 . S
C1639 C157 1.607 . S
C1641 C457 1.505 . S
C1657 C129 1.607 . S
C1659 C448 1.489 . S
C1677 C460 1.515 . S
C1675 C148 1.609 . S
C1693 C120 1.599 . S
C1695 C478 1.502 . S
C1711 C92 1.599 . S
C1713 C481 1.492 . S
C1731 C469 1.455 . S
C1729 C101 1.575 . S
C1749 C499 1.505 . S
C1747 C31 1.608 . S
C1767 C490 1.488 . S
C1765 C3 1.607 . S
C1783 C22 1.610 . S
C1785 C502 1.515 . S
