# Generated by pormake.
# Topology gar, (4,6)-cn, num edge types: 1
# Building blocks:
#     Node 0, Type 0, BuildingBlock: QUQFOY_clean_sbu_3, # of connection points: 4
#     Node 1, Type 0, BuildingBlock: QUQFOY_clean_sbu_3, # of connection points: 4
#     Node 2, Type 0, BuildingBlock: QUQFOY_clean_sbu_3, # of connection points: 4
#     Node 3, Type 0, BuildingBlock: QUQFOY_clean_sbu_3, # of connection points: 4
#     Node 4, Type 0, BuildingBlock: QUQFOY_clean_sbu_3, # of connection points: 4
#     Node 5, Type 0, BuildingBlock: QUQFOY_clean_sbu_3, # of connection points: 4
#     Node 6, Type 0, BuildingBlock: QUQFOY_clean_sbu_3, # of connection points: 4
#     Node 7, Type 0, BuildingBlock: QUQFOY_clean_sbu_3, # of connection points: 4
#     Node 8, Type 0, BuildingBlock: QUQFOY_clean_sbu_3, # of connection points: 4
#     Node 9, Type 0, BuildingBlock: QUQFOY_clean_sbu_3, # of connection points: 4
#     Node 10, Type 0, BuildingBlock: QUQFOY_clean_sbu_3, # of connection points: 4
#     Node 11, Type 0, BuildingBlock: QUQFOY_clean_sbu_3, # of connection points: 4
#     Node 12, Type 0, BuildingBlock: QUQFOY_clean_sbu_3, # of connection points: 4
#     Node 13, Type 0, BuildingBlock: QUQFOY_clean_sbu_3, # of connection points: 4
#     Node 14, Type 0, BuildingBlock: QUQFOY_clean_sbu_3, # of connection points: 4
#     Node 15, Type 0, BuildingBlock: QUQFOY_clean_sbu_3, # of connection points: 4
#     Node 16, Type 0, BuildingBlock: QUQFOY_clean_sbu_3, # of connection points: 4
#     Node 17, Type 0, BuildingBlock: QUQFOY_clean_sbu_3, # of connection points: 4
#     Node 18, Type 0, BuildingBlock: QUQFOY_clean_sbu_3, # of connection points: 4
#     Node 19, Type 0, BuildingBlock: QUQFOY_clean_sbu_3, # of connection points: 4
#     Node 20, Type 0, BuildingBlock: QUQFOY_clean_sbu_3, # of connection points: 4
#     Node 21, Type 0, BuildingBlock: QUQFOY_clean_sbu_3, # of connection points: 4
#     Node 22, Type 0, BuildingBlock: QUQFOY_clean_sbu_3, # of connection points: 4
#     Node 23, Type 0, BuildingBlock: QUQFOY_clean_sbu_3, # of connection points: 4
#     Node 24, Type 1, BuildingBlock: PAMTUU_clean_sbu_0, # of connection points: 6
#     Node 25, Type 1, BuildingBlock: PAMTUU_clean_sbu_0, # of connection points: 6
#     Node 26, Type 1, BuildingBlock: PAMTUU_clean_sbu_0, # of connection points: 6
#     Node 27, Type 1, BuildingBlock: PAMTUU_clean_sbu_0, # of connection points: 6
#     Node 28, Type 1, BuildingBlock: PAMTUU_clean_sbu_0, # of connection points: 6
#     Node 29, Type 1, BuildingBlock: PAMTUU_clean_sbu_0, # of connection points: 6
#     Node 30, Type 1, BuildingBlock: PAMTUU_clean_sbu_0, # of connection points: 6
#     Node 31, Type 1, BuildingBlock: PAMTUU_clean_sbu_0, # of connection points: 6
#     Node 32, Type 1, BuildingBlock: PAMTUU_clean_sbu_0, # of connection points: 6
#     Node 33, Type 1, BuildingBlock: PAMTUU_clean_sbu_0, # of connection points: 6
#     Node 34, Type 1, BuildingBlock: PAMTUU_clean_sbu_0, # of connection points: 6
#     Node 35, Type 1, BuildingBlock: PAMTUU_clean_sbu_0, # of connection points: 6
#     Node 36, Type 1, BuildingBlock: PAMTUU_clean_sbu_0, # of connection points: 6
#     Node 37, Type 1, BuildingBlock: PAMTUU_clean_sbu_0, # of connection points: 6
#     Node 38, Type 1, BuildingBlock: PAMTUU_clean_sbu_0, # of connection points: 6
#     Node 39, Type 1, BuildingBlock: PAMTUU_clean_sbu_0, # of connection points: 6
#     Edge 40, Type (0, 1), BuildingBlock: CIFDUS_clean_linker_0, # of connection points: 2
#     Edge 41, Type (0, 1), BuildingBlock: CIFDUS_clean_linker_0, # of connection points: 2
#     Edge 42, Type (0, 1), BuildingBlock: CIFDUS_clean_linker_0, # of connection points: 2
#     Edge 43, Type (0, 1), BuildingBlock: CIFDUS_clean_linker_0, # of connection points: 2
#     Edge 44, Type (0, 1), BuildingBlock: CIFDUS_clean_linker_0, # of connection points: 2
#     Edge 45, Type (0, 1), BuildingBlock: CIFDUS_clean_linker_0, # of connection points: 2
#     Edge 46, Type (0, 1), BuildingBlock: CIFDUS_clean_linker_0, # of connection points: 2
#     Edge 47, Type (0, 1), BuildingBlock: CIFDUS_clean_linker_0, # of connection points: 2
#     Edge 48, Type (0, 1), BuildingBlock: CIFDUS_clean_linker_0, # of connection points: 2
#     Edge 49, Type (0, 1), BuildingBlock: CIFDUS_clean_linker_0, # of connection points: 2
#     Edge 50, Type (0, 1), BuildingBlock: CIFDUS_clean_linker_0, # of connection points: 2
#     Edge 51, Type (0, 1), BuildingBlock: CIFDUS_clean_linker_0, # of connection points: 2
#     Edge 52, Type (0, 1), BuildingBlock: CIFDUS_clean_linker_0, # of connection points: 2
#     Edge 53, Type (0, 1), BuildingBlock: CIFDUS_clean_linker_0, # of connection points: 2
#     Edge 54, Type (0, 1), BuildingBlock: CIFDUS_clean_linker_0, # of connection points: 2
#     Edge 55, Type (0, 1), BuildingBlock: CIFDUS_clean_linker_0, # of connection points: 2
#     Edge 56, Type (0, 1), BuildingBlock: CIFDUS_clean_linker_0, # of connection points: 2
#     Edge 57, Type (0, 1), BuildingBlock: CIFDUS_clean_linker_0, # of connection points: 2
#     Edge 58, Type (0, 1), BuildingBlock: CIFDUS_clean_linker_0, # of connection points: 2
#     Edge 59, Type (0, 1), BuildingBlock: CIFDUS_clean_linker_0, # of connection points: 2
#     Edge 60, Type (0, 1), BuildingBlock: CIFDUS_clean_linker_0, # of connection points: 2
#     Edge 61, Type (0, 1), BuildingBlock: CIFDUS_clean_linker_0, # of connection points: 2
#     Edge 62, Type (0, 1), BuildingBlock: CIFDUS_clean_linker_0, # of connection points: 2
#     Edge 63, Type (0, 1), BuildingBlock: CIFDUS_clean_linker_0, # of connection points: 2
#     Edge 64, Type (0, 1), BuildingBlock: CIFDUS_clean_linker_0, # of connection points: 2
#     Edge 65, Type (0, 1), BuildingBlock: CIFDUS_clean_linker_0, # of connection points: 2
#     Edge 66, Type (0, 1), BuildingBlock: CIFDUS_clean_linker_0, # of connection points: 2
#     Edge 67, Type (0, 1), BuildingBlock: CIFDUS_clean_linker_0, # of connection points: 2
#     Edge 68, Type (0, 1), BuildingBlock: CIFDUS_clean_linker_0, # of connection points: 2
#     Edge 69, Type (0, 1), BuildingBlock: CIFDUS_clean_linker_0, # of connection points: 2
#     Edge 70, Type (0, 1), BuildingBlock: CIFDUS_clean_linker_0, # of connection points: 2
#     Edge 71, Type (0, 1), BuildingBlock: CIFDUS_clean_linker_0, # of connection points: 2
#     Edge 72, Type (0, 1), BuildingBlock: CIFDUS_clean_linker_0, # of connection points: 2
#     Edge 73, Type (0, 1), BuildingBlock: CIFDUS_clean_linker_0, # of connection points: 2
#     Edge 74, Type (0, 1), BuildingBlock: CIFDUS_clean_linker_0, # of connection points: 2
#     Edge 75, Type (0, 1), BuildingBlock: CIFDUS_clean_linker_0, # of connection points: 2
#     Edge 76, Type (0, 1), BuildingBlock: CIFDUS_clean_linker_0, # of connection points: 2
#     Edge 77, Type (0, 1), BuildingBlock: CIFDUS_clean_linker_0, # of connection points: 2
#     Edge 78, Type (0, 1), BuildingBlock: CIFDUS_clean_linker_0, # of connection points: 2
#     Edge 79, Type (0, 1), BuildingBlock: CIFDUS_clean_linker_0, # of connection points: 2
#     Edge 80, Type (0, 1), BuildingBlock: CIFDUS_clean_linker_0, # of connection points: 2
#     Edge 81, Type (0, 1), BuildingBlock: CIFDUS_clean_linker_0, # of connection points: 2
#     Edge 82, Type (0, 1), BuildingBlock: CIFDUS_clean_linker_0, # of connection points: 2
#     Edge 83, Type (0, 1), BuildingBlock: CIFDUS_clean_linker_0, # of connection points: 2
#     Edge 84, Type (0, 1), BuildingBlock: CIFDUS_clean_linker_0, # of connection points: 2
#     Edge 85, Type (0, 1), BuildingBlock: CIFDUS_clean_linker_0, # of connection points: 2
#     Edge 86, Type (0, 1), BuildingBlock: CIFDUS_clean_linker_0, # of connection points: 2
#     Edge 87, Type (0, 1), BuildingBlock: CIFDUS_clean_linker_0, # of connection points: 2
#     Edge 88, Type (0, 1), BuildingBlock: CIFDUS_clean_linker_0, # of connection points: 2
#     Edge 89, Type (0, 1), BuildingBlock: CIFDUS_clean_linker_0, # of connection points: 2
#     Edge 90, Type (0, 1), BuildingBlock: CIFDUS_clean_linker_0, # of connection points: 2
#     Edge 91, Type (0, 1), BuildingBlock: CIFDUS_clean_linker_0, # of connection points: 2
#     Edge 92, Type (0, 1), BuildingBlock: CIFDUS_clean_linker_0, # of connection points: 2
#     Edge 93, Type (0, 1), BuildingBlock: CIFDUS_clean_linker_0, # of connection points: 2
#     Edge 94, Type (0, 1), BuildingBlock: CIFDUS_clean_linker_0, # of connection points: 2
#     Edge 95, Type (0, 1), BuildingBlock: CIFDUS_clean_linker_0, # of connection points: 2
#     Edge 96, Type (0, 1), BuildingBlock: CIFDUS_clean_linker_0, # of connection points: 2
#     Edge 97, Type (0, 1), BuildingBlock: CIFDUS_clean_linker_0, # of connection points: 2
#     Edge 98, Type (0, 1), BuildingBlock: CIFDUS_clean_linker_0, # of connection points: 2
#     Edge 99, Type (0, 1), BuildingBlock: CIFDUS_clean_linker_0, # of connection points: 2
#     Edge 100, Type (0, 1), BuildingBlock: CIFDUS_clean_linker_0, # of connection points: 2
#     Edge 101, Type (0, 1), BuildingBlock: CIFDUS_clean_linker_0, # of connection points: 2
#     Edge 102, Type (0, 1), BuildingBlock: CIFDUS_clean_linker_0, # of connection points: 2
#     Edge 103, Type (0, 1), BuildingBlock: CIFDUS_clean_linker_0, # of connection points: 2
#     Edge 104, Type (0, 1), BuildingBlock: CIFDUS_clean_linker_0, # of connection points: 2
#     Edge 105, Type (0, 1), BuildingBlock: CIFDUS_clean_linker_0, # of connection points: 2
#     Edge 106, Type (0, 1), BuildingBlock: CIFDUS_clean_linker_0, # of connection points: 2
#     Edge 107, Type (0, 1), BuildingBlock: CIFDUS_clean_linker_0, # of connection points: 2
#     Edge 108, Type (0, 1), BuildingBlock: CIFDUS_clean_linker_0, # of connection points: 2
#     Edge 109, Type (0, 1), BuildingBlock: CIFDUS_clean_linker_0, # of connection points: 2
#     Edge 110, Type (0, 1), BuildingBlock: CIFDUS_clean_linker_0, # of connection points: 2
#     Edge 111, Type (0, 1), BuildingBlock: CIFDUS_clean_linker_0, # of connection points: 2
#     Edge 112, Type (0, 1), BuildingBlock: CIFDUS_clean_linker_0, # of connection points: 2
#     Edge 113, Type (0, 1), BuildingBlock: CIFDUS_clean_linker_0, # of connection points: 2
#     Edge 114, Type (0, 1), BuildingBlock: CIFDUS_clean_linker_0, # of connection points: 2
#     Edge 115, Type (0, 1), BuildingBlock: CIFDUS_clean_linker_0, # of connection points: 2
#     Edge 116, Type (0, 1), BuildingBlock: CIFDUS_clean_linker_0, # of connection points: 2
#     Edge 117, Type (0, 1), BuildingBlock: CIFDUS_clean_linker_0, # of connection points: 2
#     Edge 118, Type (0, 1), BuildingBlock: CIFDUS_clean_linker_0, # of connection points: 2
#     Edge 119, Type (0, 1), BuildingBlock: CIFDUS_clean_linker_0, # of connection points: 2
#     Edge 120, Type (0, 1), BuildingBlock: CIFDUS_clean_linker_0, # of connection points: 2
#     Edge 121, Type (0, 1), BuildingBlock: CIFDUS_clean_linker_0, # of connection points: 2
#     Edge 122, Type (0, 1), BuildingBlock: CIFDUS_clean_linker_0, # of connection points: 2
#     Edge 123, Type (0, 1), BuildingBlock: CIFDUS_clean_linker_0, # of connection points: 2
#     Edge 124, Type (0, 1), BuildingBlock: CIFDUS_clean_linker_0, # of connection points: 2
#     Edge 125, Type (0, 1), BuildingBlock: CIFDUS_clean_linker_0, # of connection points: 2
#     Edge 126, Type (0, 1), BuildingBlock: CIFDUS_clean_linker_0, # of connection points: 2
#     Edge 127, Type (0, 1), BuildingBlock: CIFDUS_clean_linker_0, # of connection points: 2
#     Edge 128, Type (0, 1), BuildingBlock: CIFDUS_clean_linker_0, # of connection points: 2
#     Edge 129, Type (0, 1), BuildingBlock: CIFDUS_clean_linker_0, # of connection points: 2
#     Edge 130, Type (0, 1), BuildingBlock: CIFDUS_clean_linker_0, # of connection points: 2
#     Edge 131, Type (0, 1), BuildingBlock: CIFDUS_clean_linker_0, # of connection points: 2
#     Edge 132, Type (0, 1), BuildingBlock: CIFDUS_clean_linker_0, # of connection points: 2
#     Edge 133, Type (0, 1), BuildingBlock: CIFDUS_clean_linker_0, # of connection points: 2
#     Edge 134, Type (0, 1), BuildingBlock: CIFDUS_clean_linker_0, # of connection points: 2
#     Edge 135, Type (0, 1), BuildingBlock: CIFDUS_clean_linker_0, # of connection points: 2
# Relax obj value: 0.191
# Max RMSD: 0.347
# Mean RMSD: 0.163
data_MOF--net-gar--node1-QUQFOY_clean_sbu_3--node2-PAMTUU_clean_sbu_0--edge1-CIFDUS_clean_linker_0
_symmetry_space_group_name_H-M    P1
_symmetry_Int_Tables_number       1
_symmetry_cell_setting            triclinic
loop_
_symmetry_equiv_pos_as_xyz
'x, y, z'
_cell_length_a     53.389635
_cell_length_b     50.466193
_cell_length_c     54.076822
_cell_angle_alpha  94.152826
_cell_angle_beta   93.835432
_cell_angle_gamma 106.7761
loop_
_atom_site_label
_atom_site_type_symbol
_atom_site_fract_x
_atom_site_fract_y
_atom_site_fract_z
_atom_type_partial_charge
C0 C 1.01382 0.30025 0.359 0.0
O1 O 0.03146 0.31664 0.34821 0.0
Cd2 Cd 0.07306 0.32312 0.37342 0.0
O3 O 0.02228 0.28857 0.37728 0.0
Cd4 Cd 0.07391 0.29203 0.40002 0.0
C5 C 0.07668 0.36364 0.42319 0.0
O6 O 0.10549 0.29823 0.3611 0.0
O7 O 0.12573 0.30739 0.39709 0.0
O8 O 0.06379 0.23755 0.40778 0.0
C9 C 0.12779 0.30365 0.37383 0.0
O10 O 0.08026 0.36724 0.40054 0.0
C11 C 0.06953 0.24017 0.43131 0.0
O12 O 0.07356 0.33869 0.42944 0.0
O13 O 0.07652 0.26556 0.44034 0.0
C14 C 1.00575 0.80197 0.70628 0.0
O15 O 1.01233 0.78036 0.71046 0.0
Cd16 Cd 0.05277 0.78385 0.68804 0.0
O17 O 0.02123 0.81888 0.69287 0.0
Cd18 Cd 0.06783 0.81838 0.66893 0.0
C19 C 0.05595 0.74478 0.64181 0.0
O20 O 0.09749 0.80862 0.70865 0.0
O21 O 0.11889 0.82525 0.67857 0.0
O22 O 0.07387 0.87229 0.6617 0.0
C23 C 0.12004 0.81675 0.7001 0.0
O24 O 0.05187 0.74008 0.66414 0.0
C25 C 0.072 0.87025 0.63793 0.0
O26 O 0.06044 0.77042 0.63683 0.0
O27 O 0.06917 0.84549 0.62858 0.0
C28 C 0.51377 0.7979 0.86074 0.0
O29 O 0.53127 0.81591 0.85125 0.0
Cd30 Cd 0.57296 0.81982 0.87507 0.0
O31 O 0.52242 0.78466 0.87766 0.0
Cd32 Cd 0.57459 0.7887 0.89966 0.0
C33 C 0.57904 0.86066 0.92386 0.0
O34 O 0.60282 0.79385 0.85923 0.0
O35 O 0.62692 0.80376 0.89324 0.0
O36 O 0.5644 0.7345 0.9045 0.0
C37 C 0.62622 0.7993 0.86965 0.0
O38 O 0.58362 0.86454 0.90145 0.0
C39 C 0.56978 0.73437 0.92784 0.0
O40 O 0.57453 0.83537 0.92969 0.0
O41 O 0.57703 0.75884 0.93908 0.0
C42 C 0.50489 0.29616 0.20881 0.0
O43 O 0.51632 0.27856 0.21522 0.0
Cd44 Cd 0.55447 0.28525 0.18957 0.0
O45 O 0.51674 0.31231 0.19275 0.0
Cd46 Cd 0.56514 0.31457 0.16934 0.0
C47 C 0.5575 0.24134 0.14658 0.0
O48 O 0.59945 0.3084 0.20817 0.0
O49 O 0.61604 0.32472 0.17572 0.0
O50 O 0.57056 0.36802 0.16588 0.0
C51 C 0.62044 0.31755 0.19728 0.0
O52 O 0.55518 0.24056 0.16972 0.0
C53 C 0.56889 0.36918 0.14236 0.0
O54 O 0.5595 0.26525 0.1382 0.0
O55 O 0.56577 0.34552 0.13037 0.0
C56 C 0.07284 0.80185 0.18378 0.0
O57 O 0.08806 0.79043 0.19498 0.0
Cd58 Cd 0.13228 0.79449 0.18799 0.0
O59 O 0.08053 0.81713 0.16625 0.0
Cd60 Cd 0.12118 0.83311 0.14342 0.0
C61 C 0.11894 0.76464 0.1274 0.0
O62 O 0.14836 0.8421 0.18181 0.0
O63 O 0.17121 0.84513 0.15063 0.0
O64 O 0.11101 0.87774 0.14018 0.0
C65 C 0.17088 0.84715 0.17415 0.0
O66 O 0.12787 0.7642 0.14976 0.0
C67 C 0.11143 0.87785 0.11673 0.0
O68 O 0.11317 0.78601 0.1204 0.0
O69 O 0.11689 0.85746 0.1055 0.0
C70 C 0.48529 0.7797 0.39003 0.0
O71 O 0.50236 0.79761 0.37992 0.0
Cd72 Cd 0.54736 0.81772 0.39247 0.0
O73 O 0.49125 0.76998 0.4102 0.0
Cd74 Cd 0.53424 0.77629 0.43847 0.0
C75 C 0.54626 0.84727 0.45279 0.0
O76 O 0.55789 0.77748 0.40193 0.0
O77 O 0.5832 0.78773 0.43569 0.0
O78 O 0.52004 0.72518 0.44177 0.0
C79 C 0.58094 0.78335 0.41217 0.0
O80 O 0.55156 0.84856 0.43021 0.0
C81 C 0.52956 0.72588 0.46404 0.0
O82 O 0.53738 0.82366 0.46143 0.0
O83 O 0.53951 0.75001 0.4754 0.0
C84 C 0.56754 0.29234 0.68325 0.0
O85 O 0.5829 0.28007 0.69294 0.0
Cd86 Cd 0.62718 0.28538 0.68558 0.0
O87 O 0.57485 0.30923 0.66679 0.0
Cd88 Cd 0.61495 0.32611 0.64338 0.0
C89 C 0.61289 0.2577 0.62449 0.0
O90 O 0.64338 0.33343 0.6812 0.0
O91 O 0.66468 0.33543 0.64898 0.0
O92 O 0.60978 0.3738 0.64273 0.0
C93 C 0.6654 0.33751 0.67261 0.0
O94 O 0.62261 0.25669 0.64643 0.0
C95 C 0.60576 0.37331 0.61928 0.0
O96 O 0.60652 0.2792 0.61858 0.0
O97 O 0.60654 0.35128 0.60672 0.0
C98 C 0.97276 0.27852 0.90328 0.0
O99 O 0.98913 0.29534 0.8916 0.0
Cd100 Cd 0.03378 0.31588 0.90359 0.0
O101 O 0.98002 0.27057 0.92388 0.0
Cd102 Cd 0.02569 0.27982 0.94839 0.0
C103 C 0.0323 0.34879 0.96179 0.0
O104 O 0.04755 0.27642 0.91113 0.0
O105 O 0.07377 0.29919 0.94214 0.0
O106 O 1.01553 0.2296 0.95526 0.0
C107 C 0.07092 0.28706 0.92036 0.0
O108 O 0.03694 0.34981 0.93903 0.0
C109 C 0.02769 0.23328 0.97679 0.0
O110 O 0.02598 0.32539 0.97102 0.0
O111 O 0.03704 0.2584 0.98602 0.0
C112 C 0.51285 0.08923 0.36558 0.0
O113 O 0.52285 0.07682 0.34947 0.0
Cd114 Cd 0.5039 0.05629 0.30908 0.0
O115 O 0.49024 0.09249 0.36107 0.0
Cd116 Cd 0.45727 0.08145 0.32482 0.0
C117 C 0.44443 0.01226 0.32233 0.0
O118 O 0.48678 0.09007 0.29294 0.0
O119 O 0.44695 0.06701 0.28013 0.0
O120 O 0.4471 0.12458 0.32242 0.0
C121 C 0.47001 0.0788 0.27478 0.0
O122 O 0.46644 0.01573 0.31319 0.0
C123 C 0.42295 0.1142 0.32534 0.0
O124 O 0.43719 0.03296 0.33033 0.0
O125 O 0.41561 0.08946 0.33133 0.0
C126 C 0.34092 0.17263 0.54548 0.0
O127 O 0.32126 0.15986 0.55642 0.0
Cd128 Cd 0.28033 0.16777 0.56103 0.0
O129 O 0.34078 0.19406 0.53414 0.0
Cd130 Cd 0.30779 0.22093 0.52433 0.0
C131 C 0.30338 0.23573 0.58908 0.0
O132 O 0.27209 0.17931 0.52119 0.0
O133 O 0.25935 0.21564 0.51804 0.0
O134 O 0.31788 0.21524 0.48064 0.0
C135 C 0.2533 0.18944 0.518 0.0
O136 O 0.29063 0.2101 0.58864 0.0
C137 C 0.31974 0.23955 0.47467 0.0
O138 O 0.31365 0.24575 0.56953 0.0
O139 O 0.31804 0.25694 0.49238 0.0
C140 C 0.1498 0.0352 0.88431 0.0
O141 O 0.13434 0.04712 0.87431 0.0
Cd142 Cd 0.13608 0.06787 0.83614 0.0
O143 O 0.17011 0.03316 0.8743 0.0
Cd144 Cd 0.18753 0.04871 0.83509 0.0
C145 C 0.19608 0.11683 0.84584 0.0
O146 O 0.14675 0.03594 0.80756 0.0
O147 O 0.18075 0.06321 0.79386 0.0
O148 O 0.20388 1.01008 0.82295 0.0
C149 C 0.15693 0.04875 0.78973 0.0
O150 O 0.17159 0.11154 0.83958 0.0
C151 C 0.22769 0.02494 0.82396 0.0
O152 O 0.20619 0.09728 0.84903 0.0
O153 O 0.23278 0.05044 0.83161 0.0
C154 C 0.36066 0.9852 0.98628 0.0
O155 O 0.34798 0.99812 0.97355 0.0
Cd156 Cd 0.30143 0.98741 0.97265 0.0
O157 O 0.3488 0.96538 -0.00147 0.0
Cd158 Cd 0.30405 0.93903 0.00727 0.0
C159 C 0.28712 0.92149 0.94469 0.0
O160 O 0.29621 0.98295 0.01631 0.0
O161 O 0.26335 0.94781 0.02126 0.0
O162 O 0.32878 0.93033 0.04386 0.0
C163 C 0.27361 0.97399 0.02366 0.0
O164 O 0.28757 0.94652 0.9424 0.0
C165 C 0.31473 0.90542 0.04463 0.0
O166 O 0.29237 0.91399 0.96589 0.0
O167 O 0.29545 0.89617 0.02813 0.0
C168 C 0.37343 0.42565 0.03289 0.0
O169 O 0.35873 0.43701 0.02087 0.0
Cd170 Cd 0.31304 0.42207 0.01158 0.0
O171 O 0.36384 0.40287 0.04266 0.0
Cd172 Cd 0.31823 0.36878 0.04535 0.0
C173 C 0.3126 0.35911 0.97955 0.0
O174 O 0.29961 0.40573 0.04919 0.0
O175 O 0.27003 0.36656 0.04084 0.0
O176 O 0.3279 0.3721 0.09128 0.0
C177 C 0.27551 0.39263 0.0462 0.0
O178 O 0.30964 0.38331 0.98121 0.0
C179 C 0.32026 0.34638 0.09421 0.0
O180 O 0.31714 0.34792 -0.00058 0.0
O181 O 0.31312 0.33006 0.07419 0.0
C182 C 0.84859 0.10562 0.06656 0.0
O183 O 0.83086 0.09401 0.0801 0.0
Cd184 Cd 0.79577 0.11145 0.09069 0.0
O185 O 0.84986 0.12924 0.05884 0.0
Cd186 Cd 0.82626 0.16505 0.06351 0.0
C187 C 0.82997 0.17095 0.12686 0.0
O188 O 0.78399 0.13037 0.05393 0.0
O189 O 0.78304 0.17218 0.06402 0.0
O190 O 0.84014 0.17609 0.0223 0.0
C191 C 0.77063 0.14729 0.05627 0.0
O192 O 0.81351 0.14683 0.12494 0.0
C193 C 0.84239 0.20183 0.02581 0.0
O194 O 0.83931 0.18196 0.10765 0.0
O195 O 0.83922 0.21094 0.04752 0.0
C196 C 0.1317 0.53689 0.27366 0.0
O197 O 0.12159 0.54252 0.25351 0.0
Cd198 Cd 0.14147 0.54693 0.21532 0.0
O199 O 0.15453 0.53361 0.27515 0.0
Cd200 Cd 0.19097 0.53568 0.24918 0.0
C201 C 0.19366 0.60228 0.23779 0.0
O202 O 0.162 0.51044 0.21481 0.0
O203 O 0.20184 0.52425 0.20623 0.0
O204 O 0.206 0.50737 0.27813 0.0
C205 C 0.17812 0.51173 0.1986 0.0
O206 O 0.17356 0.59376 0.22199 0.0
C207 C 0.22993 0.52196 0.27906 0.0
O208 O 0.2018 0.58539 0.25007 0.0
O209 O 0.23543 0.54196 0.26547 0.0
C210 C 0.87066 0.92949 0.53098 0.0
O211 O 0.85579 0.93949 0.51764 0.0
Cd212 Cd 0.81019 0.92205 0.50768 0.0
O213 O 0.86142 0.90706 0.54137 0.0
Cd214 Cd 0.81697 0.87096 0.54425 0.0
C215 C 0.813 0.859 0.47845 0.0
O216 O 0.79761 0.90756 0.54617 0.0
O217 O 0.76856 0.86788 0.54053 0.0
O218 O 0.83521 0.87611 0.58829 0.0
C219 C 0.77362 0.89409 0.54398 0.0
O220 O 0.80832 0.88238 0.47873 0.0
C221 C 0.82233 0.8527 0.5947 0.0
O222 O 0.81842 0.84943 0.49901 0.0
O223 O 0.80787 0.83582 0.57715 0.0
C224 C 0.99311 0.03494 0.26175 0.0
O225 O 1.00398 0.03194 0.242 0.0
Cd226 Cd 0.98224 0.03395 0.20275 0.0
O227 O 0.97206 0.04215 0.26115 0.0
Cd228 Cd 0.94095 0.05616 0.23258 0.0
C229 C 0.922 0.9886 0.21097 0.0
O230 O 0.97385 0.07852 0.2076 0.0
O231 O 0.93467 0.07132 0.19054 0.0
O232 O 0.93878 0.09155 0.26484 0.0
C233 C 0.95916 0.08203 0.18964 0.0
O234 O 0.94405 0.99194 0.202 0.0
C235 C 0.91382 0.08452 0.26287 0.0
O236 O 0.9165 1.00876 0.22235 0.0
O237 O 0.90186 0.06479 0.24653 0.0
C238 C 0.34035 0.60448 0.56803 0.0
O239 O 0.32292 0.59189 0.5814 0.0
Cd240 Cd 0.28848 0.60848 0.59481 0.0
O241 O 0.34119 0.62853 0.56162 0.0
Cd242 Cd 0.31549 0.66183 0.56869 0.0
C243 C 0.32251 0.66789 0.63136 0.0
O244 O 0.27329 0.6276 0.55983 0.0
O245 O 0.27291 0.66694 0.57825 0.0
O246 O 0.31595 0.67191 0.52585 0.0
C247 C 0.2603 0.64384 0.56639 0.0
O248 O 0.30633 0.64359 0.62941 0.0
C249 C 0.32398 0.69816 0.52996 0.0
O250 O 0.33121 0.67919 0.61207 0.0
O251 O 0.33051 0.7081 0.55253 0.0
C252 C 0.47162 0.54076 0.76695 0.0
O253 O 0.48443 0.53625 0.74893 0.0
Cd254 Cd 0.47045 0.53432 0.70614 0.0
O255 O 0.44982 0.54622 0.76311 0.0
Cd256 Cd 0.42011 0.55292 0.72782 0.0
C257 C 0.41083 0.48509 0.70797 0.0
O258 O 0.45616 0.575 0.70664 0.0
O259 O 0.4195 0.5686 0.68499 0.0
O260 O 0.40915 0.58563 0.75721 0.0
C261 C 0.44435 0.57763 0.68641 0.0
O262 O 0.4344 0.49051 0.70218 0.0
C263 C 0.38475 0.57757 0.75004 0.0
O264 O 0.40191 0.50395 0.71731 0.0
O265 O 0.37702 0.55841 0.73227 0.0
C266 C 0.60704 0.01528 0.77023 0.0
O267 O 0.5989 0.02243 0.74989 0.0
Cd268 Cd 0.62372 0.02982 0.71465 0.0
O269 O 0.62967 1.01162 0.77311 0.0
Cd270 Cd 0.66901 0.01279 0.75136 0.0
C271 C 0.67846 0.08131 0.7414 0.0
O272 O 0.64363 0.99289 0.71376 0.0
O273 O 0.68496 1.00411 0.71014 0.0
O274 O 0.67622 0.97515 0.77384 0.0
C275 C 0.66179 0.99453 0.69962 0.0
O276 O 0.65745 0.07476 0.72673 0.0
C277 C 0.69877 0.98938 0.78386 0.0
O278 O 0.68578 0.06299 0.75243 0.0
O279 O 0.70753 0.01414 0.77817 0.0
C280 C 0.8402 0.67149 0.03747 0.0
O281 O 0.82095 0.65745 0.04816 0.0
Cd282 Cd 0.78228 0.66815 0.05727 0.0
O283 O 0.84014 0.69435 0.02857 0.0
Cd284 Cd 0.80794 0.72287 0.02195 0.0
C285 C 0.80921 0.73569 0.08732 0.0
O286 O 0.77173 0.68181 0.01866 0.0
O287 O 0.75963 0.71873 0.02001 0.0
O288 O 0.81665 0.71708 0.97797 0.0
C289 C 0.75305 0.69237 0.01851 0.0
O290 O 0.79758 0.70971 0.08645 0.0
C291 C 0.8195 0.74164 0.97226 0.0
O292 O 0.81611 0.74712 0.06727 0.0
O293 O 0.81834 0.75914 0.9901 0.0
C294 C 1.01404 0.5611 0.86389 0.0
O295 O 0.02281 0.54945 0.84623 0.0
Cd296 Cd 1.00005 0.53196 0.80625 0.0
O297 O 0.99081 0.56333 0.86182 0.0
Cd298 Cd 0.95264 0.55187 0.83067 0.0
C299 C 0.94486 0.48295 0.82175 0.0
O300 O 0.97997 0.56694 0.79866 0.0
O301 O 0.93973 0.54746 0.78514 0.0
O302 O 0.94195 0.5939 0.84329 0.0
C303 C 0.96291 0.55958 0.78027 0.0
O304 O 0.96518 0.48874 0.80972 0.0
C305 C 0.91782 0.58185 0.84506 0.0
O306 O 0.93763 0.50199 0.83327 0.0
O307 O 0.91036 0.55547 0.84198 0.0
C308 C 0.85318 0.48355 0.48373 0.0
O309 O 0.83959 0.49645 0.47213 0.0
Cd310 Cd 0.79278 0.4811 0.47036 0.0
O311 O 0.84211 0.46209 0.49444 0.0
Cd312 Cd 0.79939 0.43173 0.50382 0.0
C313 C 0.78099 0.415 0.44192 0.0
O314 O 0.78836 0.47329 0.5134 0.0
O315 O 0.75787 0.43632 0.51929 0.0
O316 O 0.82744 0.42736 0.53947 0.0
C317 C 0.76624 0.46267 0.52114 0.0
O318 O 0.78111 0.44005 0.44017 0.0
C319 C 0.81616 0.40182 0.54113 0.0
O320 O 0.78683 0.40703 0.46272 0.0
O321 O 0.7967 0.38993 0.52535 0.0
C322 C 0.65321 0.55082 0.38522 0.0
O323 O 0.63568 0.55703 0.3718 0.0
Cd324 Cd 0.63773 0.56825 0.32956 0.0
O325 O 0.67371 0.54763 0.37639 0.0
Cd326 Cd 0.69005 0.54866 0.33517 0.0
C327 C 0.69805 0.6172 0.3375 0.0
O328 O 0.64964 0.53245 0.30674 0.0
O329 O 0.68551 0.55219 0.29086 0.0
O330 O 0.70453 0.50751 0.33869 0.0
C331 C 0.66107 0.54001 0.28748 0.0
O332 O 0.67359 0.61147 0.33077 0.0
C333 C 0.72814 0.5198 0.33486 0.0
O334 O 0.7084 0.59822 0.34234 0.0
O335 O 0.73393 0.54561 0.33232 0.0
Tb336 Tb 0.08814 0.07313 0.06045 0.0
Tb337 Tb 0.0404 0.02779 0.0247 0.0
C338 C 0.02998 0.06152 0.07247 0.0
C339 C 0.15208 0.09294 0.09203 0.0
C340 C 0.1874 0.06128 0.08623 0.0
C341 C 0.16866 0.055 0.10366 0.0
C342 C 0.15113 0.07064 0.10652 0.0
C343 C 0.17304 0.10144 0.07721 0.0
C344 C 0.19035 0.08562 0.0741 0.0
C345 C 0.12832 0.10192 0.08699 0.0
O346 O 0.07884 0.03356 0.07696 0.0
O347 O 0.06334 1.00342 0.04203 0.0
O348 O 0.07367 0.03808 0.00314 0.0
O349 O 0.10685 0.05167 0.03463 0.0
O350 O 1.00734 0.99244 0.02137 0.0
O351 O 0.02148 0.01252 0.98906 0.0
O352 O 0.03478 0.06803 0.01841 0.0
O353 O 0.07515 0.09813 0.03375 0.0
O354 O 0.05295 0.08027 0.07312 0.0
O355 O 0.02415 0.03763 0.05873 0.0
C356 C 0.07423 1.00874 0.06505 0.0
O357 O 0.12338 0.1057 0.06374 0.0
O358 O 0.10708 0.08784 0.0963 0.0
C359 C 0.09822 0.04252 0.01149 0.0
C360 C 0.9759 1.00061 0.99282 0.0
C361 C 0.93296 0.02171 0.99754 0.0
C362 C 0.93287 0.99644 0.00699 0.0
C363 C 0.9542 0.98596 0.00464 0.0
C364 C 0.97439 0.02393 0.98068 0.0
C365 C 0.95317 0.03443 0.98311 0.0
C366 C 1.0016 0.9957 0.99816 0.0
C367 C 0.05197 0.09297 0.02113 0.0
H368 H 0.16641 0.03694 0.11393 0.0
H369 H 0.13547 0.06369 0.11844 0.0
H370 H 0.17443 0.11864 0.06595 0.0
H371 H 0.20451 0.09122 0.06052 0.0
H372 H 0.91719 0.98582 0.01768 0.0
H373 H 0.95474 0.96779 0.01393 0.0
H374 H 0.99063 0.03561 0.97116 0.0
H375 H 0.95385 0.05391 0.97556 0.0
Tb376 Tb 0.308 0.81107 0.309 0.0
Tb377 Tb 0.33833 0.79609 0.26129 0.0
C378 C 0.2923 0.82298 0.25444 0.0
C379 C 0.28537 0.80038 0.36957 0.0
C380 C 0.28997 0.7699 0.41051 0.0
C381 C 0.28843 0.79727 0.4143 0.0
C382 C 0.28618 0.81243 0.39393 0.0
C383 C 0.28672 0.77304 0.36586 0.0
C384 C 0.289 0.75801 0.38602 0.0
C385 C 0.28639 0.81692 0.34811 0.0
O386 O 0.29816 0.76614 0.30201 0.0
O387 O 0.30106 0.76421 0.26024 0.0
O388 O 0.35235 0.77628 0.29196 0.0
O389 O 0.34442 0.8048 0.32358 0.0
O390 O 0.33561 0.77526 0.22565 0.0
O391 O 0.37295 0.80045 0.24349 0.0
O392 O 0.36189 0.83584 0.27959 0.0
O393 O 0.33095 0.85118 0.29894 0.0
O394 O 0.28421 0.81542 0.27606 0.0
O395 O 0.31555 0.82264 0.24803 0.0
C396 C 0.29124 0.75293 0.27977 0.0
O397 O 0.30988 0.83202 0.34445 0.0
O398 O 0.27351 0.8035 0.32739 0.0
C399 C 0.35604 0.78667 0.31549 0.0
C400 C 0.36343 0.80439 0.20089 0.0
C401 C 0.36148 0.83468 0.15935 0.0
C402 C 0.35813 0.80591 0.15609 0.0
C403 C 0.35914 0.79089 0.17672 0.0
C404 C 0.3675 0.83325 0.20414 0.0
C405 C 0.36669 0.84825 0.18358 0.0
C406 C 0.35993 0.78804 0.22256 0.0
C407 C 0.35417 0.85583 0.29047 0.0
H408 H 0.28901 0.80695 0.43295 0.0
H409 H 0.28561 0.83367 0.3972 0.0
H410 H 0.28669 0.7634 0.34734 0.0
H411 H 0.29071 0.73724 0.38238 0.0
H412 H 0.35424 0.79494 0.13761 0.0
H413 H 0.35559 0.76859 0.17385 0.0
H414 H 0.37026 0.84409 0.22262 0.0
H415 H 0.36893 0.87029 0.18673 0.0
Tb416 Tb 0.54511 0.04624 0.55374 0.0
Tb417 Tb 0.60108 0.0536 0.52926 0.0
C418 C 0.5935 0.03468 0.58144 0.0
C419 C 0.48259 0.05828 0.56896 0.0
C420 C 0.44391 0.08597 0.56282 0.0
C421 C 0.44341 0.06826 0.5819 0.0
C422 C 0.46251 0.0545 0.58486 0.0
C423 C 0.48382 0.07662 0.55042 0.0
C424 C 0.4646 0.09034 0.54734 0.0
C425 C 0.50197 0.04283 0.57175 0.0
O426 O 0.56311 0.09108 0.5541 0.0
O427 O 0.60598 0.09063 0.55493 0.0
O428 O 0.58085 0.07642 0.50712 0.0
O429 O 0.53875 0.05354 0.51521 0.0
O430 O 0.64222 0.06671 0.53419 0.0
O431 O 0.62181 0.04759 0.49866 0.0
O432 O 0.57432 0.01399 0.51315 0.0
O433 O 0.54683 1.0037 0.54413 0.0
O434 O 0.57491 0.04673 0.58331 0.0
O435 O 0.60094 0.02836 0.55986 0.0
C436 C 0.58838 0.10373 0.559 0.0
O437 O 0.50432 0.02779 0.5519 0.0
O438 O 0.52476 0.05684 0.58304 0.0
C439 C 0.55531 0.06988 0.50199 0.0
C440 C 0.65948 0.03558 0.51225 0.0
C441 C 0.69126 1.00018 0.51818 0.0
C442 C 0.70023 0.02487 0.50655 0.0
C443 C 0.68449 0.04248 0.50373 0.0
C444 C 0.64987 1.01033 0.52271 0.0
C445 C 0.66563 0.99276 0.52566 0.0
C446 C 0.64429 0.05559 0.5122 0.0
C447 C 0.55752 0.99575 0.52471 0.0
H448 H 0.4281 0.06487 0.59451 0.0
H449 H 0.46144 0.04068 0.59944 0.0
H450 H 0.4994 0.07997 0.53811 0.0
H451 H 0.46553 0.10369 0.53241 0.0
H452 H 0.71969 0.03092 0.50014 0.0
H453 H 0.69215 0.06185 0.49555 0.0
H454 H 0.63052 1.00469 0.5294 0.0
H455 H 0.65817 0.97405 0.53483 0.0
Tb456 Tb 0.33087 0.29196 0.78667 0.0
Tb457 Tb 0.28114 0.31721 0.77797 0.0
C458 C 0.27397 0.25891 0.79783 0.0
C459 C 0.39414 0.28104 0.77646 0.0
C460 C 0.43766 0.29039 0.74805 0.0
C461 C 0.43647 0.27505 0.76894 0.0
C462 C 0.41483 0.27037 0.78298 0.0
C463 C 0.39533 0.29669 0.7559 0.0
C464 C 0.41691 0.30132 0.74179 0.0
C465 C 0.37121 0.27575 0.79089 0.0
O466 O 0.32293 0.28991 0.74602 0.0
O467 O 0.27996 0.2905 0.7438 0.0
O468 O 0.31131 0.34201 0.75758 0.0
O469 O 0.34626 0.33563 0.78069 0.0
O470 O 0.24205 0.31242 0.76489 0.0
O471 O 0.26601 0.35102 0.7847 0.0
O472 O 0.30257 0.33486 0.81415 0.0
O473 O 0.32023 0.30058 0.82438 0.0
O474 O 0.29625 0.25735 0.78987 0.0
O475 O 0.26719 0.28183 0.79873 0.0
C476 C 0.30011 0.28606 0.73317 0.0
O477 O 0.36866 0.29745 0.80391 0.0
O478 O 0.34908 0.26106 0.77867 0.0
C479 C 0.33658 0.34867 0.76412 0.0
C480 C 0.22269 0.33361 0.79538 0.0
C481 C 0.18738 0.32946 0.83249 0.0
C482 C 0.19516 0.35377 0.82017 0.0
C483 C 0.21268 0.35579 0.80168 0.0
C484 C 0.21519 0.3096 0.80802 0.0
C485 C 0.19774 0.30752 0.82628 0.0
C486 C 0.24218 0.33583 0.77694 0.0
C487 C 0.31147 0.32159 0.83114 0.0
H488 H 0.45235 0.26679 0.77456 0.0
H489 H 0.41425 0.2584 0.79889 0.0
H490 H 0.37946 0.30515 0.75067 0.0
H491 H 0.4171 0.31301 0.72575 0.0
H492 H 0.1874 0.37097 0.82456 0.0
H493 H 0.21849 0.37465 0.7924 0.0
H494 H 0.22292 0.29238 0.80392 0.0
H495 H 0.19251 0.28873 0.83571 0.0
Tb496 Tb 0.06486 0.07283 0.55932 0.0
Tb497 Tb 0.06873 0.03533 0.51009 0.0
C498 C 1.01573 0.03141 0.52961 0.0
C499 C 0.06494 0.09817 0.62419 0.0
C500 C 0.08643 0.09175 0.6714 0.0
C501 C 0.07288 0.06829 0.65505 0.0
C502 C 0.06224 0.07149 0.63162 0.0
C503 C 0.07672 0.12154 0.64109 0.0
C504 C 0.08733 0.11837 0.6646 0.0
C505 C 0.06032 0.10181 0.59784 0.0
O506 O 0.07161 0.03626 0.57634 0.0
O507 O 0.07206 1.00834 0.54094 0.0
O508 O 0.10769 0.06413 0.51788 0.0
O509 O 0.10659 0.07835 0.55889 0.0
O510 O 0.05173 0.99724 0.48864 0.0
O511 O 0.08719 0.02608 0.47885 0.0
O512 O 0.06468 0.07318 0.49339 0.0
O513 O 0.06256 0.10044 0.52868 0.0
O514 O 0.02807 0.03957 0.55172 0.0
O515 O 0.02852 0.03632 0.50996 0.0
C516 C 0.07259 0.01207 0.56562 0.0
O517 O 0.08135 0.10672 0.58603 0.0
O518 O 0.04061 0.0833 0.58512 0.0
C519 C 0.11914 0.07803 0.53896 0.0
C520 C 0.05524 1.00341 0.44666 0.0
C521 C 0.03149 1.00464 0.39908 0.0
C522 C 0.04902 0.98878 0.40247 0.0
C523 C 0.06083 0.98815 0.42621 0.0
C524 C 0.03772 0.01914 0.44332 0.0
C525 C 0.02593 0.01973 0.41975 0.0
C526 C 0.06788 1.00381 0.47153 0.0
C527 C 0.06343 0.09725 0.50411 0.0
H528 H 0.07206 0.04753 0.65962 0.0
H529 H 0.05337 0.05316 0.61876 0.0
H530 H 0.07912 0.14228 0.63556 0.0
H531 H 0.09731 0.13678 0.677 0.0
H532 H 0.05356 0.97691 0.3868 0.0
H533 H 0.07439 0.97597 0.42858 0.0
H534 H 0.03333 0.03121 0.45893 0.0
H535 H 1.01292 0.03256 0.41764 0.0
Tb536 Tb 0.33323 0.83881 0.76841 0.0
Tb537 Tb 0.30356 0.78452 0.79453 0.0
C538 C 0.32968 0.77957 0.74385 0.0
C539 C 0.34725 0.90915 0.75022 0.0
C540 C 0.31831 0.947 0.75754 0.0
C541 C 0.31382 0.92951 0.73524 0.0
C542 C 0.32813 0.9106 0.73163 0.0
C543 C 0.35442 0.92957 0.7706 0.0
C544 C 0.33988 0.94813 0.77439 0.0
C545 C 0.35561 0.8838 0.75124 0.0
O546 O 0.29202 0.82771 0.75057 0.0
O547 O 0.26993 0.79821 0.77752 0.0
O548 O 0.31015 0.81959 0.8222 0.0
O549 O 0.31176 0.85343 0.79633 0.0
O550 O 0.277 0.74427 0.79213 0.0
O551 O 0.2952 0.76563 0.82756 0.0
O552 O 0.34605 0.78619 0.80269 0.0
O553 O 0.36486 0.83063 0.79312 0.0
O554 O 0.34193 0.80618 0.74605 0.0
O555 O 0.31234 0.76803 0.75897 0.0
C556 C 0.26939 0.81367 0.75862 0.0
O557 O 0.36126 0.87791 0.77364 0.0
O558 O 0.34116 0.86169 0.73737 0.0
C559 C 0.30802 0.84405 0.81808 0.0
C560 C 0.29159 0.71808 0.82069 0.0
C561 C 0.31268 0.67303 0.81977 0.0
C562 C 0.28553 0.66847 0.8143 0.0
C563 C 0.27508 0.6909 0.8147 0.0
C564 C 0.31831 0.7224 0.82805 0.0
C565 C 0.32873 0.70011 0.82763 0.0
C566 C 0.282 0.74184 0.81561 0.0
C567 C 0.36732 0.80785 0.80261 0.0
H568 H 0.29791 0.92889 0.72148 0.0
H569 H 0.32265 0.89564 0.71534 0.0
H570 H 0.36954 0.92942 0.78495 0.0
H571 H 0.34405 0.9614 0.79173 0.0
H572 H 0.27263 0.64777 0.80846 0.0
H573 H 0.25443 0.68717 0.80894 0.0
H574 H 0.33156 0.74318 0.83267 0.0
H575 H 0.34976 0.70448 0.83163 0.0
Tb576 Tb 0.56733 0.03956 0.05152 0.0
Tb577 Tb 0.56551 0.07018 0.00202 0.0
C578 C 0.61743 0.07276 0.0309 0.0
C579 C 0.55742 0.02248 0.11448 0.0
C580 C 0.5388 0.03731 0.15894 0.0
C581 C 0.55749 0.02256 0.15918 0.0
C582 C 0.56677 0.01516 0.13698 0.0
C583 C 0.53849 0.0368 0.11416 0.0
C584 C 0.52918 0.04409 0.13623 0.0
C585 C 0.56882 0.01755 0.09151 0.0
O586 O 0.56974 0.08338 0.06618 0.0
O587 O 0.55727 0.09962 0.03029 0.0
O588 O 0.52805 0.03877 0.00174 0.0
O589 O 0.52709 0.0393 0.04368 0.0
O590 O 0.58392 0.08733 0.97144 0.0
O591 O 0.54479 0.08885 0.97794 0.0
O592 O 0.57375 0.03101 0.9885 0.0
O593 O 0.56426 1.00523 0.02185 0.0
O594 O 0.60539 0.04837 0.03751 0.0
O595 O 0.60394 0.08837 0.02206 0.0
C596 C 0.56285 0.10305 0.05471 0.0
O597 O 0.5518 1.00628 0.07244 0.0
O598 O 0.58744 0.03884 0.08597 0.0
C599 C 0.51497 0.03386 0.0213 0.0
C600 C 0.55384 0.0814 0.93679 0.0
C601 C 0.54454 0.05826 0.8872 0.0
C602 C 0.55354 0.08728 0.89283 0.0
C603 C 0.55825 0.09878 0.91755 0.0
C604 C 0.543 0.05259 0.93126 0.0
C605 C 0.53835 0.04107 0.90658 0.0
C606 C 0.5629 0.0929 0.96244 0.0
C607 C 0.56989 1.00693 -0.00162 0.0
H608 H 0.56503 0.01699 0.17652 0.0
H609 H 0.58157 1.00432 0.13741 0.0
H610 H 0.53142 0.04298 0.0969 0.0
H611 H 0.5151 0.05583 0.13561 0.0
H612 H 0.55882 0.10097 0.87826 0.0
H613 H 0.56663 0.12107 0.92164 0.0
H614 H 0.53944 0.03894 0.94605 0.0
H615 H 0.53132 0.01866 0.90269 0.0
Tb616 Tb 0.30419 0.27391 0.27825 0.0
Tb617 Tb 0.32683 0.33794 0.29689 0.0
C618 C 0.31088 0.31906 0.23986 0.0
C619 C 0.29386 0.20474 0.24624 0.0
C620 C 0.32589 0.17016 0.24197 0.0
C621 C 0.29911 0.15878 0.24523 0.0
C622 C 0.28319 0.1762 0.24774 0.0
C623 C 0.31876 0.2149 0.23771 0.0
C624 C 0.33485 0.19764 0.23566 0.0
C625 C 0.28383 0.2238 0.26135 0.0
O626 O 0.34694 0.28111 0.27146 0.0
O627 O 0.36036 0.32867 0.27837 0.0
O628 O 0.33016 0.31889 0.33128 0.0
O629 O 0.31273 0.27249 0.31852 0.0
O630 O 0.32755 0.37902 0.29306 0.0
O631 O 0.35506 0.36984 0.3197 0.0
O632 O 0.28699 0.32761 0.31178 0.0
O633 O 0.26847 0.28608 0.28853 0.0
O634 O 0.31252 0.29437 0.24408 0.0
O635 O 0.30982 0.33669 0.2586 0.0
C636 C 0.36533 0.30526 0.27032 0.0
O637 O 0.29702 0.23182 0.28308 0.0
O638 O 0.2794 0.24457 0.25074 0.0
C639 C 0.32265 0.29288 0.33627 0.0
C640 C 0.33835 0.40716 0.33052 0.0
C641 C 0.31664 0.44731 0.35061 0.0
C642 C 0.34349 0.45462 0.34648 0.0
C643 C 0.35411 0.43468 0.33589 0.0
C644 C 0.31341 0.39892 0.33926 0.0
C645 C 0.30253 0.41887 0.34916 0.0
C646 C 0.34541 0.3889 0.3117 0.0
C647 C 0.26592 0.30616 0.30464 0.0
H648 H 0.29152 0.13737 0.24931 0.0
H649 H 0.26386 0.16803 0.25407 0.0
H650 H 0.32714 0.23693 0.23618 0.0
H651 H 0.35527 0.207 0.23274 0.0
H652 H 0.35535 0.47618 0.34856 0.0
H653 H 0.3737 0.44124 0.32979 0.0
H654 H 0.30118 0.37757 0.33579 0.0
H655 H 0.28199 0.41208 0.35248 0.0
Tb656 Tb 0.56617 0.56746 0.06224 0.0
Tb657 Tb 0.57183 0.53693 0.0098 0.0
C658 C 0.5182 0.52731 0.03022 0.0
C659 C 0.55895 0.57923 0.12878 0.0
C660 C 0.56732 0.55971 0.1749 0.0
C661 C 0.5709 0.58816 0.17325 0.0
C662 C 0.5667 0.59788 0.15027 0.0
C663 C 0.55323 0.55052 0.13077 0.0
C664 C 0.55747 0.5408 0.15377 0.0
C665 C 0.56271 0.58999 0.10443 0.0
O666 O 0.57628 0.52948 0.07374 0.0
O667 O 0.56848 0.50377 0.03578 0.0
O668 O 0.61083 0.55243 0.02931 0.0
O669 O 0.60334 0.58974 0.04954 0.0
O670 O 0.55736 0.50282 0.98283 0.0
O671 O 0.59307 0.53514 0.9788 0.0
O672 O 0.57216 0.57918 -0.0008 0.0
O673 O 0.5583 0.59627 0.0347 0.0
O674 O 0.53034 0.53366 0.05257 0.0
O675 O 0.53084 0.53525 0.01087 0.0
C676 C 0.57257 0.50519 0.06044 0.0
O677 O 0.5848 0.58909 0.09598 0.0
O678 O 0.54297 0.58132 0.08725 0.0
C679 C 0.61947 0.57811 0.03934 0.0
C680 C 0.56509 0.51592 0.94282 0.0
C681 C 0.54534 0.52112 0.89451 0.0
C682 C 0.55733 0.50022 0.89882 0.0
C683 C 0.56716 0.49767 0.92285 0.0
C684 C 0.55308 0.53671 0.93866 0.0
C685 C 0.54337 0.53937 0.9147 0.0
C686 C 0.57519 0.51321 0.96802 0.0
C687 C 0.56474 0.59909 0.01134 0.0
H688 H 0.57893 0.60303 0.18934 0.0
H689 H 0.57157 0.62009 0.14898 0.0
H690 H 0.54757 0.53586 0.11427 0.0
H691 H 0.5551 0.51884 0.15467 0.0
H692 H 0.55883 0.48564 0.88369 0.0
H693 H 0.57626 0.48142 0.92586 0.0
H694 H 0.55127 0.55092 0.95396 0.0
H695 H 0.5346 0.55592 0.91195 0.0
Tb696 Tb 0.82932 0.33543 0.26552 0.0
Tb697 Tb 0.80406 0.2797 0.29207 0.0
C698 C 0.82646 0.27785 0.23963 0.0
C699 C 0.84181 0.40609 0.25042 0.0
C700 C 0.82279 0.44854 0.27037 0.0
C701 C 0.84979 0.4515 0.27319 0.0
C702 C 0.85927 0.4303 0.26325 0.0
C703 C 0.81526 0.40467 0.24546 0.0
C704 C 0.80586 0.42573 0.25536 0.0
C705 C 0.84977 0.38054 0.24771 0.0
O706 O 0.78622 0.33026 0.25772 0.0
O707 O 0.7694 0.28664 0.27051 0.0
O708 O 0.79444 0.31124 0.31554 0.0
O709 O 0.81899 0.35104 0.3004 0.0
O710 O 0.78053 0.23814 0.28717 0.0
O711 O 0.79779 0.25767 0.32365 0.0
O712 O 0.84605 0.29208 0.30831 0.0
O713 O 0.86378 0.32201 0.27996 0.0
O714 O 0.82381 0.30231 0.23664 0.0
O715 O 0.82374 0.26732 0.26109 0.0
C716 C 0.76569 0.30837 0.25981 0.0
O717 O 0.8588 0.37372 0.26852 0.0
O718 O 0.83314 0.35909 0.23479 0.0
C719 C 0.80348 0.33836 0.31637 0.0
C720 C 0.79792 0.21192 0.31327 0.0
C721 C 0.82067 0.16817 0.3115 0.0
C722 C 0.79385 0.163 0.31505 0.0
C723 C 0.78252 0.18482 0.31588 0.0
C724 C 0.82482 0.21725 0.31077 0.0
C725 C 0.83608 0.19566 0.30992 0.0
C726 C 0.78592 0.23427 0.31027 0.0
C727 C 0.86709 0.3071 0.29859 0.0
H728 H 0.86315 0.46906 0.28463 0.0
H729 H 0.87979 0.43175 0.26738 0.0
H730 H 0.80125 0.38634 0.23563 0.0
H731 H 0.78501 0.42337 0.25261 0.0
H732 H 0.78151 0.14205 0.3164 0.0
H733 H 0.76165 0.18039 0.31764 0.0
H734 H 0.83694 0.23798 0.30831 0.0
H735 H 0.8566 0.2004 0.30652 0.0
Tb736 Tb 0.0601 0.53647 0.55289 0.0
Tb737 Tb 0.05471 0.56896 0.50518 0.0
C738 C 0.10894 0.57246 0.52961 0.0
C739 C 0.05171 0.51936 0.61594 0.0
C740 C 0.03389 0.53455 0.6608 0.0
C741 C 0.05388 0.52149 0.66088 0.0
C742 C 0.06277 0.51393 0.63849 0.0
C743 C 0.0317 0.53228 0.61585 0.0
C744 C 0.02283 0.53978 0.6381 0.0
C745 C 0.06202 0.51352 0.5925 0.0
O746 O 0.04841 0.57342 0.5673 0.0
O747 O 0.06185 0.60199 0.53672 0.0
O748 O 1.01713 0.55783 0.52029 0.0
O749 O 0.02081 0.51824 0.53482 0.0
O750 O 0.06672 0.60301 0.48422 0.0
O751 O 0.03109 0.56955 0.47283 0.0
O752 O 0.05402 0.52612 0.48988 0.0
O753 O 0.07117 0.5099 0.52372 0.0
O754 O 0.09784 0.56623 0.55008 0.0
O755 O 0.09518 0.56895 0.50814 0.0
C756 C 0.05477 0.59876 0.55957 0.0
O757 O 0.04432 0.50327 0.57388 0.0
O758 O 0.08123 0.53366 0.58635 0.0
C759 C 1.00625 0.53276 0.52606 0.0
C760 C 0.05566 0.58944 0.44127 0.0
C761 C 0.06815 0.57748 0.39297 0.0
C762 C 0.04283 0.57891 0.39697 0.0
C763 C 0.03666 0.5849 0.42099 0.0
C764 C 0.0812 0.58893 0.43722 0.0
C765 C 0.08743 0.58323 0.41324 0.0
C766 C 0.04789 0.59187 0.46657 0.0
C767 C 0.06368 0.50714 0.49961 0.0
H768 H 0.06255 0.51709 0.6782 0.0
H769 H 0.07839 0.50419 0.63879 0.0
H770 H 0.02313 0.53692 0.59857 0.0
H771 H 1.00768 0.55017 0.63757 0.0
H772 H 0.02756 0.57443 0.3817 0.0
H773 H 1.01679 0.58502 0.42387 0.0
H774 H 0.09618 0.5922 0.45259 0.0
H775 H 0.10728 0.58291 0.41063 0.0
Tb776 Tb 0.84113 0.79284 0.28999 0.0
Tb777 Tb 0.79179 0.81667 0.27383 0.0
C778 C 0.78328 0.759 0.29445 0.0
C779 C 0.90123 0.77262 0.28384 0.0
C780 C 0.9438 0.77155 0.25609 0.0
C781 C 0.94439 0.76653 0.28139 0.0
C782 C 0.92327 0.76706 0.29512 0.0
C783 C 0.90038 0.77752 0.25862 0.0
C784 C 0.92148 0.77693 0.24483 0.0
C785 C 0.87975 0.77467 0.29869 0.0
O786 O 0.8254 0.77484 0.25185 0.0
O787 O 0.8056 0.80658 0.23804 0.0
O788 O 0.82649 0.85117 0.27168 0.0
O789 O 0.85732 0.82764 0.26876 0.0
O790 O 0.75484 0.81053 0.25436 0.0
O791 O 0.77299 0.84765 0.27903 0.0
O792 O 0.7947 0.81825 0.31455 0.0
O793 O 0.83662 0.81628 0.3244 0.0
O794 O 0.8073 0.76643 0.30519 0.0
O795 O 0.77628 0.77256 0.27681 0.0
C796 C 0.816 0.78621 0.2335 0.0
O797 O 0.87978 0.79998 0.30564 0.0
O798 O 0.85636 0.75889 0.29012 0.0
C799 C 0.84955 0.84968 0.2659 0.0
C800 C 0.7283 0.82602 0.28133 0.0
C801 C 0.68594 0.81569 0.31133 0.0
C802 C 0.68746 0.83371 0.29238 0.0
C803 C 0.70858 0.83892 0.27754 0.0
C804 C 0.72669 0.80785 0.30004 0.0
C805 C 0.70577 0.80277 0.31491 0.0
C806 C 0.75125 0.83205 0.26679 0.0
C807 C 0.81483 0.82093 0.331 0.0
H808 H 0.96146 0.7628 0.29076 0.0
H809 H 0.9243 0.76353 0.31464 0.0
H810 H 0.8835 0.78202 0.24966 0.0
H811 H 0.92027 0.7806 0.22536 0.0
H812 H 0.67255 0.8441 0.2893 0.0
H813 H 0.70961 0.85313 0.2633 0.0
H814 H 0.74173 0.79764 0.30322 0.0
H815 H 0.70497 0.78845 0.32903 0.0
Tb816 Tb 0.80138 0.28565 0.80109 0.0
Tb817 Tb 0.83102 0.27422 0.75181 0.0
C818 C 0.78167 0.29737 0.74767 0.0
C819 C 0.79079 0.29229 0.86685 0.0
C820 C 0.8092 0.28355 0.91475 0.0
C821 C 0.78256 0.28159 0.90915 0.0
C822 C 0.7734 0.28577 0.88531 0.0
C823 C 0.81762 0.2957 0.87276 0.0
C824 C 0.82674 0.29129 0.89648 0.0
C825 C 0.78059 0.29165 0.84081 0.0
O826 O 0.77743 0.24826 0.77863 0.0
O827 O 0.8114 0.23456 0.76473 0.0
O828 O 0.8578 0.2714 0.78273 0.0
O829 O 0.83075 0.2662 0.81472 0.0
O830 O 0.82826 0.25156 0.71708 0.0
O831 O 0.86394 0.2835 0.73123 0.0
O832 O 0.84094 0.31873 0.76082 0.0
O833 O 0.8382 0.31863 0.80273 0.0
O834 O 0.78401 0.30461 0.77186 0.0
O835 O 0.79477 0.28152 0.73778 0.0
C836 C 0.78701 0.22859 0.77014 0.0
O837 O 0.79254 0.31237 0.82864 0.0
O838 O 0.7767 0.26782 0.82781 0.0
C839 C 0.85293 0.26577 0.80562 0.0
C840 C 0.84926 0.28161 0.68899 0.0
C841 C 0.84061 0.3063 0.64549 0.0
C842 C 0.84517 0.28018 0.64388 0.0
C843 C 0.84958 0.26795 0.66555 0.0
C844 C 0.8448 0.30775 0.69055 0.0
C845 C 0.84071 0.32006 0.66901 0.0
C846 C 0.85072 0.26764 0.71171 0.0
C847 C 0.84787 0.33092 0.78347 0.0
H848 H 0.76855 0.27539 0.92279 0.0
H849 H 0.7526 0.28274 0.881 0.0
H850 H 0.83134 0.30068 0.85871 0.0
H851 H 0.84738 0.29324 0.90037 0.0
H852 H 0.84516 0.26921 0.6259 0.0
H853 H 0.8526 0.24759 0.66402 0.0
H854 H 0.84385 0.31839 0.70844 0.0
H855 H 0.83682 0.34001 0.67071 0.0
Tb856 Tb 0.80267 0.773 0.77877 0.0
Tb857 Tb 0.83006 0.838 0.79304 0.0
C858 C 0.80704 0.8139 0.73729 0.0
C859 C 0.79674 0.69962 0.77645 0.0
C860 C 0.82921 0.6707 0.79768 0.0
C861 C 0.83355 0.68072 0.7743 0.0
C862 C 0.81741 0.69497 0.76372 0.0
C863 C 0.79091 0.68724 0.7987 0.0
C864 C 0.80709 0.67294 0.80928 0.0
C865 C 0.78461 0.72108 0.76919 0.0
O866 O 0.84393 0.77923 0.7678 0.0
O867 O 0.86439 0.82537 0.78006 0.0
O868 O 0.82863 0.82077 0.82889 0.0
O869 O 0.82175 0.77484 0.81644 0.0
O870 O 0.83101 0.87845 0.78626 0.0
O871 O 0.8588 0.87093 0.81397 0.0
O872 O 0.78873 0.83179 0.80429 0.0
O873 O 0.76924 0.78501 0.79454 0.0
O874 O 0.79171 0.79193 0.74607 0.0
O875 O 0.82501 0.83246 0.75226 0.0
C876 C 0.86527 0.80123 0.76923 0.0
O877 O 0.778 0.73497 0.78757 0.0
O878 O 0.7965 0.73763 0.75342 0.0
C879 C 0.82666 0.79536 0.83421 0.0
C880 C 0.84266 0.90928 0.82189 0.0
C881 C 0.81486 0.94386 0.84172 0.0
C882 C 0.81083 0.91696 0.84928 0.0
C883 C 0.8245 0.89962 0.8392 0.0
C884 C 0.84953 0.93725 0.81729 0.0
C885 C 0.83579 0.95454 0.82724 0.0
C886 C 0.84933 0.88946 0.80441 0.0
C887 C 0.76802 0.80932 0.80456 0.0
H888 H 0.85012 0.67854 0.76469 0.0
H889 H 0.82221 0.70382 0.74636 0.0
H890 H 0.77493 0.69023 0.8088 0.0
H891 H 0.80324 0.66517 0.82723 0.0
H892 H 0.79516 0.90834 0.86078 0.0
H893 H 0.81903 0.878 0.84298 0.0
H894 H 0.86351 0.94495 0.80394 0.0
H895 H 0.83945 0.97511 0.82098 0.0
Tb896 Tb 0.60032 0.57864 0.56761 0.0
Tb897 Tb 0.54636 0.53739 0.53749 0.0
C898 C 0.54512 0.5707 0.58829 0.0
C899 C 0.66973 0.60333 0.5894 0.0
C900 C 0.71043 0.57987 0.58095 0.0
C901 C 0.69603 0.57363 0.60164 0.0
C902 C 0.67591 0.58538 0.60593 0.0
C903 C 0.68634 0.61223 0.57062 0.0
C904 C 0.70652 0.6005 0.56637 0.0
C905 C 0.64382 0.60843 0.58879 0.0
O906 O 0.60203 0.53679 0.57339 0.0
O907 O 0.55847 0.51146 0.56407 0.0
O908 O 0.57863 0.52579 0.52332 0.0
O909 O 0.60831 0.56863 0.52952 0.0
O910 O 0.5087 0.50894 0.53573 0.0
O911 O 0.52708 0.52113 0.50218 0.0
O912 O 0.55416 0.57809 0.52207 0.0
O913 O 0.57828 0.60625 0.55567 0.0
O914 O 0.57035 0.5744 0.59339 0.0
O915 O 0.53295 0.5606 0.56626 0.0
C916 C 0.58245 0.51394 0.57394 0.0
O917 O 0.63415 0.61246 0.56707 0.0
O918 O 0.62606 0.59138 0.60014 0.0
C919 C 0.59928 0.54404 0.51701 0.0
C920 C 0.48227 0.51739 0.50303 0.0
C921 C 0.43892 0.53818 0.50102 0.0
C922 C 0.43541 0.50975 0.50324 0.0
C923 C 0.45703 0.49943 0.50433 0.0
C924 C 0.48539 0.54507 0.49817 0.0
C925 C 0.46385 0.55538 0.49707 0.0
C926 C 0.50524 0.50906 0.5116 0.0
C927 C 0.5637 0.60292 0.53448 0.0
H928 H 0.69912 0.55819 0.61345 0.0
H929 H 0.66388 0.57861 0.62096 0.0
H930 H 0.68239 0.62644 0.55788 0.0
H931 H 0.71745 0.60576 0.55034 0.0
H932 H 0.41628 0.49602 0.50602 0.0
H933 H 0.45429 0.47804 0.50813 0.0
H934 H 0.50472 0.55935 0.49721 0.0
H935 H 0.4672 0.57739 0.49552 0.0
Tb936 Tb 0.05082 0.55478 0.05323 0.0
Tb937 Tb 0.10887 0.56124 0.03303 0.0
C938 C 0.09555 0.53907 0.08273 0.0
C939 C 0.9898 0.57129 0.06409 0.0
C940 C 0.95753 0.60585 0.05559 0.0
C941 C 0.94702 0.57915 0.06336 0.0
C942 C 0.96304 0.56204 0.06759 0.0
C943 C 1.00041 0.59792 0.05634 0.0
C944 C 0.98444 0.61512 0.05227 0.0
C945 C 1.0064 0.55284 0.06763 0.0
O946 O 0.07035 0.59933 0.05544 0.0
O947 O 0.11277 0.59735 0.05944 0.0
O948 O 0.09244 0.58606 0.00956 0.0
O949 O 0.04887 0.56576 0.01536 0.0
O950 O 0.14958 0.57231 0.04204 0.0
O951 O 0.1326 0.55532 0.0049 0.0
O952 O 0.08089 0.52533 0.01208 0.0
O953 O 0.0512 0.5124 0.04089 0.0
O954 O 0.07813 0.55272 0.08413 0.0
O955 O 0.10296 0.53243 0.06125 0.0
C956 C 0.09543 0.61103 0.06228 0.0
O957 O 1.00967 0.53897 0.04744 0.0
O958 O 0.02848 0.56371 0.08146 0.0
C959 C 0.06727 0.58113 0.00312 0.0
C960 C 0.16823 0.54153 0.02134 0.0
C961 C 0.19813 0.50443 0.02783 0.0
C962 C 0.20874 0.5297 0.01755 0.0
C963 C 0.19391 0.54813 0.01441 0.0
C964 C 0.15715 0.51591 0.0307 0.0
C965 C 0.17198 0.49746 0.03391 0.0
C966 C 0.15369 0.56209 0.0204 0.0
C967 C 0.06204 0.50642 0.02086 0.0
H968 H 0.92641 0.57154 0.06636 0.0
H969 H 0.95451 0.54154 0.07347 0.0
H970 H 0.021 0.60533 0.05325 0.0
H971 H 0.99305 0.63544 0.04608 0.0
H972 H 0.22869 0.53544 0.01232 0.0
H973 H 0.20271 0.56781 0.00711 0.0
H974 H 0.13729 0.51052 0.03617 0.0
H975 H 0.16333 0.47829 0.04204 0.0
H976 H 1.00695 0.17725 0.96351 0.0
H977 H 0.06124 0.23639 0.0181 0.0
H978 H 0.07402 0.1987 0.03617 0.0
H979 H 0.07093 0.14884 0.03581 0.0
H980 H 1.01512 0.0895 0.9825 0.0
H981 H 1.00197 0.12714 0.96471 0.0
C982 C 0.02139 0.1819 0.97951 0.0
C983 C 0.03309 0.20978 0.98934 0.0
C984 C 0.02863 0.16 0.98996 0.0
C985 C 0.05176 0.21524 0.01014 0.0
C986 C 0.05923 0.19365 0.02044 0.0
C987 C 0.05598 0.14414 0.02022 0.0
C988 C 0.04431 0.11627 0.01036 0.0
C989 C 0.04805 0.16595 0.01035 0.0
C990 C 0.02457 0.11066 0.99045 0.0
C991 C 1.01699 0.13223 0.98024 0.0
H992 H 0.21938 0.84193 0.16399 0.0
H993 H 0.17359 0.8538 0.2244 0.0
H994 H 0.20746 0.84881 0.25445 0.0
H995 H 0.2484 0.83758 0.26377 0.0
H996 H 0.29524 0.82614 0.20419 0.0
H997 H 0.26296 0.83465 0.1739 0.0
C998 C 0.21704 0.84385 0.18373 0.0
C999 C 0.19376 0.84796 0.19181 0.0
C1000 C 0.23673 0.84078 0.20118 0.0
C1001 C 0.19112 0.8504 0.21754 0.0
C1002 C 0.2105 0.8475 0.23483 0.0
C1003 C 0.2517 0.83713 0.24418 0.0
C1004 C 0.27413 0.83095 0.23633 0.0
C1005 C 0.23309 0.84207 0.22687 0.0
C1006 C 0.27815 0.83081 0.21085 0.0
C1007 C 0.25962 0.83559 0.19345 0.0
H1008 H 0.51749 0.86591 0.48784 0.0
H1009 H 0.58988 0.88989 0.45271 0.0
H1010 H 0.59993 0.93705 0.47238 0.0
H1011 H 0.58728 0.97253 0.49685 0.0
H1012 H 0.51535 0.95094 0.53266 0.0
H1013 H 0.50607 0.90219 0.5156 0.0
C1014 C 0.53565 0.88138 0.48493 0.0
C1015 C 0.55288 0.87425 0.46869 0.0
C1016 C 0.54124 0.9091 0.49611 0.0
C1017 C 0.5762 0.89472 0.46495 0.0
C1018 C 0.58197 0.92181 0.47614 0.0
C1019 C 0.5695 0.95726 0.501 0.0
C1020 C 0.55186 0.96565 0.51575 0.0
C1021 C 0.56441 0.92942 0.49125 0.0
C1022 C 0.52924 0.94523 0.52125 0.0
C1023 C 0.52392 0.91729 0.51145 0.0
H1024 H 0.53818 0.32826 0.68851 0.0
H1025 H 0.53802 0.24406 0.69803 0.0
H1026 H 0.49686 0.23554 0.71739 0.0
H1027 H 0.4626 0.2527 0.73411 0.0
H1028 H 0.46371 0.33772 0.72756 0.0
H1029 H 0.50246 0.3451 0.70424 0.0
C1030 C 0.52884 0.30797 0.69449 0.0
C1031 C 0.54109 0.28685 0.69195 0.0
C1032 C 0.50547 0.30341 0.70631 0.0
C1033 C 0.52901 0.2607 0.69997 0.0
C1034 C 0.50551 0.2558 0.71107 0.0
C1035 C 0.47139 0.27292 0.72774 0.0
C1036 C 0.46042 0.29468 0.73284 0.0
C1037 C 0.49391 0.27717 0.71485 0.0
C1038 C 0.47168 0.32054 0.72381 0.0
C1039 C 0.49393 0.32483 0.71058 0.0
H1040 H 0.0758 0.92744 0.65116 0.0
H1041 H 0.06931 0.86958 0.58673 0.0
H1042 H 0.0693 0.90619 0.55951 0.0
H1043 H 0.07062 0.95549 0.55275 0.0
H1044 H 0.07688 0.01339 0.61712 0.0
H1045 H 0.07747 0.97698 0.64438 0.0
C1046 C 0.07445 0.92263 0.63118 0.0
C1047 C 0.0726 0.89478 0.62161 0.0
C1048 C 0.07437 0.94439 0.61504 0.0
C1049 C 0.0708 0.8901 0.59532 0.0
C1050 C 0.07078 0.91137 0.57945 0.0
C1051 C 0.07225 0.96042 0.57273 0.0
C1052 C 0.07377 0.98821 0.58222 0.0
C1053 C 0.0725 0.93876 0.58889 0.0
C1054 C 0.07568 0.99296 0.60853 0.0
C1055 C 0.07601 0.97178 0.62444 0.0
H1056 H 0.49234 0.8304 0.83122 0.0
H1057 H 0.46691 0.75768 0.87074 0.0
H1058 H 0.42082 0.75335 0.85673 0.0
H1059 H 0.38626 0.77061 0.83265 0.0
H1060 H 0.41424 0.84484 0.79515 0.0
H1061 H 0.45923 0.84769 0.80872 0.0
C1062 C 0.47693 0.81338 0.83692 0.0
C1063 C 0.48423 0.79432 0.85228 0.0
C1064 C 0.45003 0.8112 0.82894 0.0
C1065 C 0.46293 0.77283 0.85911 0.0
C1066 C 0.43617 0.77036 0.85095 0.0
C1067 C 0.40209 0.78748 0.82735 0.0
C1068 C 0.39558 0.80755 0.81242 0.0
C1069 C 0.42917 0.78944 0.83576 0.0
C1070 C 0.41738 0.82898 0.80639 0.0
C1071 C 0.44366 0.83069 0.81424 0.0
H1072 H 0.55616 0.22606 0.09374 0.0
H1073 H 0.56219 0.19393 0.165 0.0
H1074 H 0.56467 0.15046 0.14471 0.0
H1075 H 0.56518 0.11953 0.10655 0.0
H1076 H 0.55782 0.15032 0.03497 0.0
H1077 H 0.55592 0.19444 0.05514 0.0
C1078 C 0.55803 0.20969 0.10496 0.0
C1079 C 0.55892 0.21442 0.13145 0.0
C1080 C 0.55926 0.18353 0.09289 0.0
C1081 C 0.56129 0.19196 0.14486 0.0
C1082 C 0.56278 0.16657 0.13315 0.0
C1083 C 0.5632 0.13578 0.0952 0.0
C1084 C 0.56174 0.1306 0.06878 0.0
C1085 C 0.5618 0.16182 0.10712 0.0
C1086 C 0.559 0.15273 0.05511 0.0
C1087 C 0.55792 0.17844 0.06678 0.0
H1088 H 0.14206 0.28222 0.32727 0.0
H1089 H 0.17734 0.33224 0.39563 0.0
H1090 H 0.22097 0.33871 0.38125 0.0
H1091 H 0.25111 0.33025 0.34926 0.0
H1092 H 0.21626 0.27708 0.2824 0.0
H1093 H 0.17243 0.27222 0.29591 0.0
C1094 C 0.15914 0.29467 0.33917 0.0
C1095 C 0.15515 0.30683 0.36298 0.0
C1096 C 0.18524 0.29791 0.33085 0.0
C1097 C 0.17861 0.32244 0.37746 0.0
C1098 C 0.20408 0.32625 0.3691 0.0
C1099 C 0.23406 0.31764 0.3374 0.0
C1100 C 0.23821 0.30435 0.3142 0.0
C1101 C 0.20799 0.31414 0.3458 0.0
C1102 C 0.21485 0.28787 0.30006 0.0
C1103 C 0.18927 0.285 0.30792 0.0
H1104 H 0.94135 0.0558 0.14381 0.0
H1105 H 1.00326 0.12278 0.18387 0.0
H1106 H 0.02963 0.12523 0.14843 0.0
H1107 H 0.03818 0.10252 0.10994 0.0
H1108 H 0.97801 0.03238 0.07147 0.0
H1109 H 0.94774 0.03705 0.10225 0.0
C1110 C 0.96019 0.07158 0.14432 0.0
C1111 C 0.97053 0.08908 0.16623 0.0
C1112 C 0.97581 0.07175 0.12446 0.0
C1113 C 0.99508 0.10917 0.16703 0.0
C1114 C 1.01021 0.11037 0.14692 0.0
C1115 C 1.01833 0.08849 0.10805 0.0
C1116 C 1.01059 0.06669 0.08888 0.0
C1117 C 1.00133 0.09079 0.12613 0.0
C1118 C 0.98467 0.04893 0.08647 0.0
C1119 C 0.96731 0.05163 0.104 0.0
H1120 H 0.29481 0.682 0.48611 0.0
H1121 H 0.3483 0.75406 0.5287 0.0
H1122 H 0.34216 0.78308 0.4956 0.0
H1123 H 0.32119 0.78759 0.45441 0.0
H1124 H 0.26539 0.71521 0.41414 0.0
H1125 H 0.27278 0.68669 0.44662 0.0
C1126 C 0.3054 0.70401 0.4881 0.0
C1127 C 0.32229 0.71582 0.50964 0.0
C1128 C 0.30116 0.72052 0.46949 0.0
C1129 C 0.33538 0.74447 0.51215 0.0
C1130 C 0.33176 0.76104 0.4933 0.0
C1131 C 0.31041 0.76566 0.45294 0.0
C1132 C 0.29298 0.75353 0.43169 0.0
C1133 C 0.31453 0.7493 0.47192 0.0
C1134 C 0.2793 0.72501 0.43001 0.0
C1135 C 0.28344 0.70866 0.44861 0.0
H1136 H 0.65737 0.04156 0.68424 0.0
H1137 H 0.65242 0.95748 0.65811 0.0
H1138 H 0.63243 0.96343 0.61731 0.0
H1139 H 0.61159 0.99121 0.59126 0.0
H1140 H 0.61013 0.07219 0.62146 0.0
H1141 H 0.63673 0.06878 0.65895 0.0
C1142 C 0.65221 0.02473 0.66941 0.0
C1143 C 0.65634 0.99927 0.67377 0.0
C1144 C 0.63894 0.02762 0.64714 0.0
C1145 C 0.64966 0.9774 0.65476 0.0
C1146 C 0.63794 0.98071 0.63169 0.0
C1147 C 0.61719 1.008 0.60614 0.0
C1148 C 0.60882 0.03175 0.60398 0.0
C1149 C 0.63165 1.00543 0.62801 0.0
C1150 C 0.61604 0.05352 0.62312 0.0
C1151 C 0.6314 0.0517 0.64438 0.0
H1152 H 0.29931 0.37768 0.9363 0.0
H1153 H 0.32561 0.31107 0.96351 0.0
H1154 H 0.32796 0.29341 0.92027 0.0
H1155 H 0.32342 0.29797 0.87409 0.0
H1156 H 0.29777 0.36635 0.84952 0.0
H1157 H 0.2947 0.38213 0.89221 0.0
C1158 C 0.30556 0.3592 0.93307 0.0
C1159 C 0.31231 0.34587 0.95354 0.0
C1160 C 0.30724 0.34953 0.90835 0.0
C1161 C 0.32016 0.32184 0.94839 0.0
C1162 C 0.32165 0.31182 0.92356 0.0
C1163 C 0.31731 0.3164 0.8781 0.0
C1164 C 0.311 0.33091 0.85816 0.0
C1165 C 0.31546 0.32568 0.90327 0.0
C1166 C 0.30289 0.35463 0.86404 0.0
C1167 C 0.30103 0.36375 0.88863 0.0
H1168 H 0.96805 0.02292 0.30307 0.0
H1169 H 0.04301 0.03275 0.27357 0.0
H1170 H 0.06117 0.02249 0.31322 0.0
H1171 H 0.05607 0.01257 0.35675 0.0
H1172 H 0.98065 1.00165 0.38556 0.0
H1173 H 0.96225 1.01042 0.34552 0.0
C1174 C 0.9884 0.02294 0.30534 0.0
C1175 C 1.00427 0.0289 0.28558 0.0
C1176 C 0.99856 0.01673 0.32797 0.0
C1177 C 0.03045 0.02834 0.2886 0.0
C1178 C 0.04083 0.02245 0.31122 0.0
C1179 C 0.0355 1.01162 0.35409 0.0
C1180 C 0.01976 1.00668 0.37405 0.0
C1181 C 0.02508 0.01675 0.33106 0.0
C1182 C 0.99321 1.0058 0.3705 0.0
C1183 C 0.98269 1.01079 0.34765 0.0
H1184 H 0.34707 0.72329 0.64158 0.0
H1185 H 0.31016 0.64928 0.67645 0.0
H1186 H 0.31105 0.67737 0.71527 0.0
H1187 H 0.31734 0.72318 0.73765 0.0
H1188 H 0.35368 0.79718 0.70253 0.0
H1189 H 0.35802 0.7688 0.66561 0.0
C1190 C 0.33969 0.71323 0.65779 0.0
C1191 C 0.32816 0.68428 0.65594 0.0
C1192 C 0.33975 0.72952 0.67995 0.0
C1193 C 0.31885 0.67159 0.67723 0.0
C1194 C 0.31923 0.68763 0.69945 0.0
C1195 C 0.32638 0.73309 0.72199 0.0
C1196 C 0.33472 0.76222 0.72269 0.0
C1197 C 0.32875 0.71667 0.70072 0.0
C1198 C 0.34688 0.77476 0.70244 0.0
C1199 C 0.34936 0.75856 0.68126 0.0
H1200 H 0.56819 0.03902 0.77701 0.0
H1201 H 0.61127 0.98908 0.81187 0.0
H1202 H 0.59127 0.99408 0.85052 0.0
H1203 H 0.56749 0.01867 0.87587 0.0
H1204 H 0.52729 0.07184 0.84236 0.0
H1205 H 0.54 0.0593 0.80146 0.0
C1206 C 0.57273 0.02871 0.7929 0.0
C1207 C 0.59141 0.01403 0.79176 0.0
C1208 C 0.56189 0.03249 0.81529 0.0
C1209 C 0.59718 1.00081 0.81245 0.0
C1210 C 0.58579 1.00367 0.83453 0.0
C1211 C 0.56074 0.02678 0.85948 0.0
C1212 C 0.54655 0.04616 0.86201 0.0
C1213 C 0.56895 0.02033 0.8364 0.0
C1214 C 0.53837 0.05697 0.84075 0.0
C1215 C 0.54571 0.0499 0.81746 0.0
H1216 H 0.32225 0.37703 0.13858 0.0
H1217 H 0.31364 0.2933 0.10788 0.0
H1218 H 0.30982 0.2774 0.14967 0.0
H1219 H 0.30895 0.28729 0.19538 0.0
H1220 H 0.3157 0.37099 0.22521 0.0
H1221 H 0.31999 0.3866 0.18362 0.0
C1222 C 0.31967 0.35528 0.14096 0.0
C1223 C 0.31851 0.3365 0.11986 0.0
C1224 C 0.31696 0.34616 0.16508 0.0
C1225 C 0.31476 0.30834 0.12357 0.0
C1226 C 0.31252 0.29921 0.14756 0.0
C1227 C 0.31122 0.30894 0.19282 0.0
C1228 C 0.31193 0.32784 0.21378 0.0
C1229 C 0.31354 0.3179 0.16853 0.0
C1230 C 0.31491 0.3558 0.20974 0.0
C1231 C 0.31749 0.36484 0.18583 0.0
H1232 H 0.2257 0.96168 0.04234 0.0
H1233 H 0.29367 0.03005 0.03252 0.0
H1234 H 0.27415 0.06265 0.05314 0.0
H1235 H 0.23758 0.07212 0.07311 0.0
H1236 H 0.16818 1.00443 0.08059 0.0
H1237 H 0.18888 0.9713 0.0627 0.0
C1238 C 0.23619 0.98371 0.0447 0.0
C1239 C 0.26103 0.99337 0.03579 0.0
C1240 C 0.22479 1.00251 0.05652 0.0
C1241 C 0.27444 0.022 0.03909 0.0
C1242 C 0.26336 0.04071 0.05097 0.0
C1243 C 0.22691 0.05014 0.07081 0.0
C1244 C 0.20135 0.04094 0.07826 0.0
C1245 C 0.2385 0.03123 0.05964 0.0
C1246 C 0.18808 0.01223 0.07552 0.0
C1247 C 0.19976 0.9932 0.06494 0.0
H1248 H 0.73564 0.63626 0.01595 0.0
H1249 H 0.71033 0.70951 0.02918 0.0
H1250 H 0.66705 0.68042 0.03777 0.0
H1251 H 0.63679 0.63434 0.04195 0.0
H1252 H 0.66175 0.56103 0.02753 0.0
H1253 H 0.70511 0.59016 0.01923 0.0
C1254 C 0.72064 0.6459 0.02063 0.0
C1255 C 0.72622 0.67504 0.022 0.0
C1256 C 0.69592 0.62909 0.02556 0.0
C1257 C 0.70653 0.68716 0.02796 0.0
C1258 C 0.68184 0.67054 0.03298 0.0
C1259 C 0.65179 0.6247 0.03723 0.0
C1260 C 0.64617 0.59554 0.03563 0.0
C1261 C 0.67642 0.64152 0.03202 0.0
C1262 C 0.66564 0.5834 0.02902 0.0
C1263 C 0.69038 0.60004 0.0242 0.0
H1264 H 0.7753 0.5388 0.31647 0.0
H1265 H 0.7231 0.46568 0.34225 0.0
H1266 H 0.75016 0.43766 0.32669 0.0
H1267 H 0.7849 0.43298 0.30099 0.0
H1268 H 0.83585 0.50528 0.27323 0.0
H1269 H 0.81304 0.53487 0.29452 0.0
C1270 C 0.77011 0.51683 0.31912 0.0
C1271 C 0.74705 0.5042 0.33015 0.0
C1272 C 0.78524 0.50074 0.30943 0.0
C1273 C 0.74062 0.47578 0.33357 0.0
C1274 C 0.75599 0.45975 0.32459 0.0
C1275 C 0.79104 0.45527 0.29976 0.0
C1276 C 0.81148 0.46705 0.28521 0.0
C1277 C 0.77768 0.47184 0.31166 0.0
C1278 C 0.81991 0.49591 0.28418 0.0
C1279 C 0.80687 0.51272 0.29627 0.0
H1280 H 0.88712 0.46317 0.51022 0.0
H1281 H 0.88409 0.5299 0.46544 0.0
H1282 H 0.9313 0.55123 0.47505 0.0
H1283 H 0.97295 0.5517 0.49727 0.0
H1284 H 0.97584 0.48496 0.542 0.0
H1285 H 0.92884 0.46296 0.53145 0.0
C1286 C 0.89676 0.48227 0.50235 0.0
C1287 C 0.88206 0.49497 0.4872 0.0
C1288 C 0.92375 0.49457 0.50819 0.0
C1289 C 0.89493 0.51968 0.47717 0.0
C1290 C 0.92189 0.53197 0.48275 0.0
C1291 C 0.96327 0.53243 0.50485 0.0
C1292 C 0.97775 0.52007 0.52055 0.0
C1293 C 0.93639 0.51979 0.49851 0.0
C1294 C 0.96505 0.49491 0.52994 0.0
C1295 C 0.93823 0.48229 0.52386 0.0
H1296 H 0.42546 0.13961 0.28365 0.0
H1297 H 0.37619 0.11404 0.34283 0.0
H1298 H 0.34066 0.12731 0.32077 0.0
H1299 H 0.32403 0.14554 0.28469 0.0
H1300 H 0.3721 0.1677 0.22386 0.0
H1301 H 0.4079 0.15561 0.24646 0.0
C1302 C 0.40713 0.13759 0.29196 0.0
C1303 C 0.40349 0.12669 0.31508 0.0
C1304 C 0.38655 0.1438 0.27861 0.0
C1305 C 0.37943 0.12303 0.3253 0.0
C1306 C 0.35912 0.13024 0.31256 0.0
C1307 C 0.34199 0.14693 0.27592 0.0
C1308 C 0.34529 0.15722 0.25245 0.0
C1309 C 0.36239 0.14022 0.28905 0.0
C1310 C 0.36906 0.1597 0.24183 0.0
C1311 C 0.38956 0.15306 0.25483 0.0
H1312 H 0.33961 0.12024 0.55294 0.0
H1313 H 0.39282 0.19854 0.53816 0.0
H1314 H 0.42968 0.17851 0.54158 0.0
H1315 H 0.44673 0.1389 0.55089 0.0
H1316 H 0.39178 0.06096 0.56454 0.0
H1317 H 0.35568 0.08095 0.55974 0.0
C1318 C 0.35926 0.13309 0.55047 0.0
C1319 C 0.36349 0.161 0.54562 0.0
C1320 C 0.38008 0.12152 0.55247 0.0
C1321 C 0.38903 0.17704 0.54197 0.0
C1322 C 0.41008 0.16559 0.54402 0.0
C1323 C 0.42682 0.12625 0.55258 0.0
C1324 C 0.42212 0.09855 0.55856 0.0
C1325 C 0.40586 0.13788 0.54956 0.0
C1326 C 0.39616 0.0825 0.56066 0.0
C1327 C 0.37541 0.09384 0.55772 0.0
H1328 H 0.6876 0.65784 0.31245 0.0
H1329 H 0.74779 0.63977 0.35979 0.0
H1330 H 0.77932 0.68336 0.3518 0.0
H1331 H 0.7908 0.72395 0.32802 0.0
H1332 H 0.73093 0.7408 0.27923 0.0
H1333 H 0.69827 0.70021 0.29113 0.0
C1334 C 0.70747 0.6637 0.32142 0.0
C1335 C 0.71544 0.64556 0.33649 0.0
C1336 C 0.72567 0.68828 0.31613 0.0
C1337 C 0.74127 0.65335 0.34792 0.0
C1338 C 0.75933 0.67818 0.34329 0.0
C1339 C 0.7706 0.71882 0.32005 0.0
C1340 C 0.76343 0.73505 0.30243 0.0
C1341 C 0.75194 0.69533 0.3268 0.0
C1342 C 0.73709 0.72834 0.29252 0.0
C1343 C 0.71834 0.70521 0.29939 0.0
H1344 H 0.93763 0.44378 0.78314 0.0
H1345 H 0.91268 0.45801 0.85586 0.0
H1346 H 0.88083 0.41159 0.85079 0.0
H1347 H 0.85883 0.36785 0.82479 0.0
H1348 H 0.88187 0.35555 0.7508 0.0
H1349 H 0.91559 0.40045 0.75718 0.0
C1350 C 0.9255 0.43653 0.79803 0.0
C1351 C 0.92762 0.45408 0.81993 0.0
C1352 C 0.90666 0.41035 0.7946 0.0
C1353 C 0.91141 0.44474 0.83887 0.0
C1354 C 0.89317 0.41829 0.83594 0.0
C1355 C 0.87127 0.375 0.8101 0.0
C1356 C 0.86782 0.35842 0.78736 0.0
C1357 C 0.89038 0.40107 0.81373 0.0
C1358 C 0.88397 0.36801 0.76842 0.0
C1359 C 0.90336 0.39362 0.77208 0.0
H1360 H 0.10702 0.92754 0.13644 0.0
H1361 H 0.10133 0.87846 0.06646 0.0
H1362 H 0.08888 0.91403 0.04433 0.0
H1363 H 0.07896 0.95905 0.04482 0.0
H1364 H 0.0866 1.00876 0.11486 0.0
H1365 H 0.09887 0.97316 0.13679 0.0
C1366 C 0.10312 0.92461 0.11633 0.0
C1367 C 0.10503 0.90019 0.1032 0.0
C1368 C 0.09619 0.94532 0.10366 0.0
C1369 C 0.10006 0.89698 0.0771 0.0
C1370 C 0.09285 0.91733 0.06441 0.0
C1371 C 0.08318 0.96205 0.0649 0.0
C1372 C 0.08152 0.98656 0.07812 0.0
C1373 C 0.09069 0.94155 0.07749 0.0
C1374 C 0.08754 0.99016 0.10411 0.0
C1375 C 0.0946 0.96975 0.11673 0.0
H1376 H 0.95941 0.25794 0.856 0.0
H1377 H 0.92582 0.27662 0.92286 0.0
H1378 H 0.88364 0.27094 0.8985 0.0
H1379 H 0.85888 0.26767 0.85694 0.0
H1380 H 0.89495 0.2511 0.79067 0.0
H1381 H 0.93343 0.24885 0.81598 0.0
C1382 C 0.94261 0.26008 0.86534 0.0
C1383 C 0.94565 0.26775 0.89111 0.0
C1384 C 0.919 0.25772 0.85116 0.0
C1385 C 0.92385 0.27046 0.90306 0.0
C1386 C 0.89987 0.26758 0.88904 0.0
C1387 C 0.87498 0.26315 0.84809 0.0
C1388 C 0.87412 0.26015 0.82181 0.0
C1389 C 0.89756 0.26232 0.86289 0.0
C1390 C 0.89514 0.25403 0.81073 0.0
C1391 C 0.91723 0.25267 0.82521 0.0
H1392 H 0.6394 0.21934 0.62258 0.0
H1393 H 0.57247 0.23801 0.58739 0.0
H1394 H 0.55878 0.19201 0.56372 0.0
H1395 H 0.56436 0.14494 0.55527 0.0
H1396 H 0.63286 0.12811 0.58943 0.0
H1397 H 0.64729 0.17471 0.61121 0.0
C1398 C 0.62199 0.21352 0.60947 0.0
C1399 C 0.60693 0.2321 0.60688 0.0
C1400 C 0.61434 0.18714 0.59591 0.0
C1401 C 0.58455 0.22425 0.58964 0.0
C1402 C 0.57659 0.19781 0.57627 0.0
C1403 C 0.5825 0.15157 0.56739 0.0
C1404 C 0.59739 0.13288 0.57084 0.0
C1405 C 0.59105 0.17882 0.57962 0.0
C1406 C 0.62102 0.14197 0.58637 0.0
C1407 C 0.62929 0.16866 0.59891 0.0
H1408 H 0.57978 0.78631 0.36241 0.0
H1409 H 0.63322 0.79514 0.42806 0.0
H1410 H 0.67054 0.80621 0.40263 0.0
H1411 H 0.6878 0.81343 0.36164 0.0
H1412 H 0.63389 0.80492 0.29639 0.0
H1413 H 0.59687 0.79404 0.32191 0.0
C1414 C 0.59958 0.79058 0.37122 0.0
C1415 C 0.60372 0.78979 0.3971 0.0
C1416 C 0.62083 0.79716 0.35657 0.0
C1417 C 0.62951 0.79559 0.40818 0.0
C1418 C 0.65083 0.80193 0.39365 0.0
C1419 C 0.66793 0.80906 0.35301 0.0
C1420 C 0.66361 0.80996 0.32712 0.0
C1421 C 0.6467 0.80276 0.36781 0.0
C1422 C 0.63778 0.80466 0.31627 0.0
C1423 C 0.61659 0.79827 0.33083 0.0
H1424 H 0.06097 0.18186 0.41833 0.0
H1425 H 0.07561 0.2418 0.48253 0.0
H1426 H 0.07451 0.20509 0.50993 0.0
H1427 H 0.06983 0.15503 0.51691 0.0
H1428 H 0.05655 0.09526 0.45271 0.0
H1429 H 0.05671 0.13176 0.42532 0.0
C1430 C 0.06388 0.18711 0.43831 0.0
C1431 C 0.06832 0.21559 0.44774 0.0
C1432 C 0.06349 0.16532 0.45455 0.0
C1433 C 0.07212 0.22081 0.47403 0.0
C1434 C 0.07149 0.19948 0.49 0.0
C1435 C 0.06682 0.14972 0.49694 0.0
C1436 C 0.06303 0.12136 0.48754 0.0
C1437 C 0.06723 0.17148 0.48069 0.0
C1438 C 0.0595 0.11615 0.46123 0.0
C1439 C 0.05959 0.13737 0.44525 0.0
H1440 H 0.63953 0.28758 0.23362 0.0
H1441 H 0.66743 0.35238 0.18574 0.0
H1442 H 0.71286 0.35632 0.20026 0.0
H1443 H 0.74643 0.34116 0.22633 0.0
H1444 H 0.71852 0.27408 0.272 0.0
H1445 H 0.67313 0.27159 0.25888 0.0
C1446 C 0.65541 0.30282 0.22642 0.0
C1447 C 0.64894 0.31993 0.20842 0.0
C1448 C 0.68239 0.30459 0.23455 0.0
C1449 C 0.67078 0.33891 0.19949 0.0
C1450 C 0.69722 0.34118 0.20787 0.0
C1451 C 0.73056 0.32593 0.23357 0.0
C1452 C 0.73707 0.30785 0.2506 0.0
C1453 C 0.70359 0.3241 0.22537 0.0
C1454 C 0.71522 0.28839 0.25906 0.0
C1455 C 0.68877 0.28694 0.25148 0.0
H1456 H 0.58424 0.91552 0.91462 0.0
H1457 H 0.56968 0.86242 0.97422 0.0
H1458 H 0.56557 0.90141 0.00206 0.0
H1459 H 0.56561 0.9516 0.00995 0.0
H1460 H 0.57982 1.00344 0.94924 0.0
H1461 H 0.58434 0.96467 0.92224 0.0
C1462 C 0.5803 0.91224 0.93374 0.0
C1463 C 0.5775 0.88531 0.94188 0.0
C1464 C 0.57772 0.93503 0.94984 0.0
C1465 C 0.57216 0.88236 0.96695 0.0
C1466 C 0.56972 0.90492 0.98304 0.0
C1467 C 0.5697 0.95457 0.99082 0.0
C1468 C 0.57233 0.98134 0.98218 0.0
C1469 C 0.57236 0.93153 0.9748 0.0
C1470 C 0.57765 0.98382 0.95704 0.0
C1471 C 0.58028 0.96134 0.94132 0.0
H1472 H 0.96308 0.76429 0.7258 0.0
H1473 H 0.99 0.8505 0.71209 0.0
H1474 H 0.95149 0.85837 0.7304 0.0
H1475 H 0.90884 0.84105 0.75099 0.0
H1476 H 0.88106 0.7539 0.76157 0.0
H1477 H 0.92007 0.74671 0.74439 0.0
C1478 C 0.96077 0.78496 0.72666 0.0
C1479 C 0.98059 0.80673 0.71716 0.0
C1480 C 0.93775 0.78936 0.73706 0.0
C1481 C 0.97596 0.83304 0.71882 0.0
C1482 C 0.95357 0.83761 0.72952 0.0
C1483 C 0.91119 0.8204 0.74974 0.0
C1484 C 0.89103 0.79814 0.75836 0.0
C1485 C 0.93412 0.81602 0.73888 0.0
C1486 C 0.89536 0.77172 0.75564 0.0
C1487 C 0.91806 0.76751 0.74561 0.0
H1488 H 0.17511 0.05699 0.92912 0.0
H1489 H 0.10997 0.9911 0.89233 0.0
H1490 H 0.0903 0.98351 0.93169 0.0
H1491 H 0.08692 1.00294 0.97341 0.0
H1492 H 0.14994 0.07141 0.00995 0.0
H1493 H 0.17564 0.0705 0.97412 0.0
C1494 C 0.15723 0.04022 0.93013 0.0
C1495 C 0.14383 0.02453 0.90823 0.0
C1496 C 0.14546 0.037 0.95258 0.0
C1497 C 0.12048 1.00317 0.90923 0.0
C1498 C 0.10917 0.99907 0.93161 0.0
C1499 C 0.10654 0.01724 0.9737 0.0
C1500 C 0.11634 0.03774 0.99369 0.0
C1501 C 0.12069 0.01701 0.95295 0.0
C1502 C 0.14198 0.05571 0.99443 0.0
C1503 C 0.15656 0.05527 0.97394 0.0
H1504 H 0.79589 0.34749 0.54952 0.0
H1505 H 0.85679 0.42289 0.57699 0.0
H1506 H 0.87061 0.39947 0.61089 0.0
H1507 H 0.86412 0.35831 0.63398 0.0
H1508 H 0.80369 0.28274 0.60674 0.0
H1509 H 0.79106 0.30538 0.57138 0.0
C1510 C 0.81225 0.35874 0.56287 0.0
C1511 C 0.82511 0.38696 0.56087 0.0
C1512 C 0.82016 0.34514 0.58236 0.0
C1513 C 0.84641 0.40121 0.5782 0.0
C1514 C 0.85436 0.38785 0.5976 0.0
C1515 C 0.84831 0.34682 0.62016 0.0
C1516 C 0.83478 0.31902 0.62287 0.0
C1517 C 0.84118 0.35995 0.60004 0.0
C1518 C 0.81448 0.30414 0.60484 0.0
C1519 C 0.80717 0.31712 0.58476 0.0
H1520 H 0.48995 0.08916 0.40848 0.0
H1521 H 0.56533 0.10338 0.37902 0.0
H1522 H 0.5862 0.10294 0.42052 0.0
H1523 H 0.58154 0.0906 0.4632 0.0
H1524 H 0.50526 0.07171 0.49151 0.0
H1525 H 0.48619 0.08207 0.45249 0.0
C1526 C 0.51106 0.09298 0.41132 0.0
C1527 C 0.52611 0.09602 0.39086 0.0
C1528 C 0.52263 0.09129 0.43491 0.0
C1529 C 0.55339 0.10075 0.39461 0.0
C1530 C 0.56528 0.10034 0.41825 0.0
C1531 C 0.56085 0.08923 0.46099 0.0
C1532 C 0.54473 0.07992 0.47996 0.0
C1533 C 0.54987 0.09433 0.43826 0.0
C1534 C 0.51797 0.07836 0.47694 0.0
C1535 C 0.50706 0.08433 0.45467 0.0
H1536 H 0.81719 0.71632 0.13153 0.0
H1537 H 0.81105 0.79066 0.10044 0.0
H1538 H 0.81226 0.81306 0.14273 0.0
H1539 H 0.81282 0.81033 0.18905 0.0
H1540 H 0.82037 0.73539 0.21843 0.0
H1541 H 0.82062 0.71458 0.17654 0.0
C1542 C 0.81633 0.73756 0.13388 0.0
C1543 C 0.81392 0.75166 0.11262 0.0
C1544 C 0.81698 0.75016 0.15815 0.0
C1545 C 0.81312 0.77928 0.1163 0.0
C1546 C 0.81356 0.792 0.14056 0.0
C1547 C 0.81448 0.78944 0.18626 0.0
C1548 C 0.81631 0.77445 0.20719 0.0
C1549 C 0.81506 0.77747 0.16171 0.0
C1550 C 0.81887 0.74754 0.20299 0.0
C1551 C 0.81902 0.73553 0.17891 0.0
H1552 H 0.1702 0.08776 0.75738 0.0
H1553 H 0.10654 0.0183 0.77394 0.0
H1554 H 0.07848 0.02623 0.73933 0.0
H1555 H 0.07216 0.05315 0.70455 0.0
H1556 H 0.13618 0.12255 0.68841 0.0
H1557 H 0.16377 0.11486 0.72322 0.0
C1558 C 0.15025 0.07422 0.75332 0.0
C1559 C 0.14047 0.05238 0.76804 0.0
C1560 C 0.13418 0.07918 0.73378 0.0
C1561 C 0.1145 0.0352 0.76277 0.0
C1562 C 0.09844 0.03978 0.74307 0.0
C1563 C 0.09214 0.06658 0.7087 0.0
C1564 C 0.10204 0.08846 0.69401 0.0
C1565 C 0.10807 0.06178 0.72852 0.0
C1566 C 0.12789 0.10589 0.69972 0.0
C1567 C 0.14381 0.10131 0.71944 0.0
H1568 H 0.78772 0.42897 0.39485 0.0
H1569 H 0.76805 0.35837 0.43807 0.0
H1570 H 0.77096 0.32777 0.40196 0.0
H1571 H 0.78393 0.32205 0.35973 0.0
H1572 H 0.80654 0.39333 0.31755 0.0
H1573 H 0.79756 0.42267 0.35162 0.0
C1574 C 0.78352 0.4068 0.39623 0.0
C1575 C 0.77783 0.39596 0.41912 0.0
C1576 C 0.78618 0.38953 0.3757 0.0
C1577 C 0.77263 0.36722 0.42067 0.0
C1578 C 0.7744 0.34974 0.40007 0.0
C1579 C 0.78664 0.34394 0.3579 0.0
C1580 C 0.79623 0.35555 0.33631 0.0
C1581 C 0.78199 0.36082 0.37776 0.0
C1582 C 0.79959 0.38395 0.33417 0.0
C1583 C 0.79437 0.40075 0.3536 0.0
H1584 H 0.51981 0.08615 0.2636 0.0
H1585 H 0.43922 0.05612 0.23173 0.0
H1586 H 0.45358 0.04048 0.19271 0.0
H1587 H 0.48892 0.0335 0.16864 0.0
H1588 H 0.56922 0.06256 0.20126 0.0
H1589 H 0.55495 0.07994 0.23951 0.0
C1590 C 0.50537 0.07647 0.24804 0.0
C1591 C 0.47853 0.07225 0.25044 0.0
C1592 C 0.51367 0.06696 0.22608 0.0
C1593 C 0.46003 0.05954 0.23022 0.0
C1594 C 0.46819 0.0505 0.20802 0.0
C1595 C 0.50325 0.04377 0.18412 0.0
C1596 C 0.53001 0.04671 0.18231 0.0
C1597 C 0.49493 0.05376 0.20591 0.0
C1598 C 0.54846 0.05974 0.20247 0.0
C1599 C 0.54035 0.06988 0.22419 0.0
H1600 H 0.82746 0.79238 0.95225 0.0
H1601 H 0.81807 0.70561 0.93175 0.0
H1602 H 0.82023 0.71414 0.88809 0.0
H1603 H 0.82321 0.74581 0.85481 0.0
H1604 H 0.83343 0.83281 0.8752 0.0
H1605 H 0.83269 0.82458 0.91902 0.0
C1606 C 0.82606 0.77536 0.93828 0.0
C1607 C 0.82253 0.74832 0.94567 0.0
C1608 C 0.82744 0.78041 0.91279 0.0
C1609 C 0.8208 0.72667 0.92698 0.0
C1610 C 0.82199 0.7315 0.9018 0.0
C1611 C 0.82554 0.76307 0.8688 0.0
C1612 C 0.82839 0.78995 0.86128 0.0
C1613 C 0.82511 0.75824 0.89435 0.0
C1614 C 0.83127 0.81186 0.88004 0.0
C1615 C 0.83076 0.80718 0.90531 0.0
H1616 H 0.86379 0.10142 0.02027 0.0
H1617 H 0.87168 0.07422 0.09337 0.0
H1618 H 0.89792 0.04499 0.07811 0.0
H1619 H 0.91823 0.02721 0.04403 0.0
H1620 H 0.90784 0.05171 0.97009 0.0
H1621 H 0.88264 0.08189 0.98558 0.0
C1622 C 0.87157 0.08931 0.03284 0.0
C1623 C 0.86626 0.09013 0.05791 0.0
C1624 C 0.88573 0.07182 0.02373 0.0
C1625 C 0.87579 0.07394 0.07402 0.0
C1626 C 0.89061 0.05717 0.06529 0.0
C1627 C 0.90993 0.03859 0.03114 0.0
C1628 C 0.91473 0.03704 0.0059 0.0
C1629 C 0.89544 0.05574 0.04012 0.0
C1630 C 0.90446 0.0526 0.98962 0.0
C1631 C 0.89012 0.06989 -0.00153 0.0
H1632 H 0.40007 0.45859 0.00058 0.0
H1633 H 0.41076 0.42515 0.07038 0.0
H1634 H 0.45681 0.45415 0.07582 0.0
H1635 H 0.49315 0.49075 0.06149 0.0
H1636 H 0.48208 0.52257 0.9909 0.0
H1637 H 0.43672 0.49251 0.98509 0.0
C1638 C 0.41249 0.45751 0.01697 0.0
C1639 C 0.40199 0.43999 0.03521 0.0
C1640 C 0.43868 0.47415 0.01992 0.0
C1641 C 0.41842 0.43844 0.05608 0.0
C1642 C 0.44465 0.45516 0.05926 0.0
C1643 C 0.48074 0.49119 0.0449 0.0
C1644 C 0.49077 0.50918 0.0268 0.0
C1645 C 0.45483 0.47345 0.04148 0.0
C1646 C 0.47472 0.50907 0.00514 0.0
C1647 C 0.44883 0.49186 0.00181 0.0
H1648 H 0.39083 0.60489 0.79602 0.0
H1649 H 0.33707 0.57835 0.72966 0.0
H1650 H 0.30794 0.60282 0.74706 0.0
H1651 H 0.30043 0.63573 0.779 0.0
H1652 H 0.35343 0.66148 0.84598 0.0
H1653 H 0.38011 0.63295 0.83054 0.0
C1654 C 0.37264 0.60435 0.78548 0.0
C1655 C 0.36626 0.59033 0.76147 0.0
C1656 C 0.35591 0.61823 0.79568 0.0
C1657 C 0.34244 0.58922 0.74814 0.0
C1658 C 0.32579 0.60319 0.75806 0.0
C1659 C 0.3173 0.63443 0.79064 0.0
C1660 C 0.32509 0.65096 0.81348 0.0
C1661 C 0.33263 0.61823 0.78158 0.0
C1662 C 0.34726 0.64928 0.82813 0.0
C1663 C 0.36255 0.63304 0.8193 0.0
H1664 H 0.23128 0.6109 0.52739 0.0
H1665 H 0.22569 0.65735 0.5959 0.0
H1666 H 0.17769 0.63946 0.59009 0.0
H1667 H 0.13782 0.60888 0.56649 0.0
H1668 H 0.14307 0.56481 0.49659 0.0
H1669 H 0.19109 0.58374 0.50177 0.0
C1670 C 0.21945 0.61711 0.54095 0.0
C1671 C 0.23167 0.63497 0.56218 0.0
C1672 C 0.19208 0.60721 0.53722 0.0
C1673 C 0.21645 0.64349 0.57947 0.0
C1674 C 0.18914 0.63324 0.57619 0.0
C1675 C 0.14956 0.60353 0.5524 0.0
C1676 C 0.13733 0.58528 0.53142 0.0
C1677 C 0.17683 0.61482 0.55531 0.0
C1678 C 0.15236 0.57883 0.51292 0.0
C1679 C 0.17968 0.58953 0.51592 0.0
H1680 H 0.74425 0.0166 0.8119 0.0
H1681 H 0.68896 0.93512 0.79307 0.0
H1682 H 0.71859 0.91418 0.81523 0.0
H1683 H 0.76278 0.9184 0.83289 0.0
H1684 H 0.81913 0.99945 0.85049 0.0
H1685 H 0.78608 0.02133 0.83637 0.0
C1686 C 0.73854 0.9943 0.81295 0.0
C1687 C 0.71479 0.97733 0.80035 0.0
C1688 C 0.7558 0.98237 0.82545 0.0
C1689 C 0.70734 0.94856 0.8023 0.0
C1690 C 0.72426 0.93658 0.81498 0.0
C1691 C 0.76765 0.9409 0.8347 0.0
C1692 C 0.79356 0.95727 0.84235 0.0
C1693 C 0.74893 0.95319 0.82573 0.0
C1694 C 0.79943 0.9864 0.84431 0.0
C1695 C 0.78061 0.99888 0.83605 0.0
H1696 H 0.78197 0.94935 0.54931 0.0
H1697 H 0.72069 0.87222 0.52897 0.0
H1698 H 0.68946 0.89826 0.51916 0.0
H1699 H 0.68037 0.94334 0.51495 0.0
H1700 H 0.74273 0.01971 0.53575 0.0
H1701 H 0.77292 0.99342 0.54628 0.0
C1702 C 0.76176 0.9381 0.54281 0.0
C1703 C 0.75369 0.90888 0.53977 0.0
C1704 C 0.74422 0.9531 0.53696 0.0
C1705 C 0.72738 0.89472 0.53149 0.0
C1706 C 0.70959 0.90961 0.52578 0.0
C1707 C 0.70053 0.95419 0.52192 0.0
C1708 C 0.70932 0.98351 0.52421 0.0
C1709 C 0.71789 0.93886 0.52821 0.0
C1710 C 0.73555 0.99722 0.53318 0.0
C1711 C 0.7528 0.98221 0.53946 0.0
H1712 H 0.42643 0.44435 0.72731 0.0
H1713 H 0.35927 0.46267 0.69224 0.0
H1714 H 0.33009 0.41988 0.70497 0.0
H1715 H 0.3234 0.38146 0.73116 0.0
H1716 H 0.39031 0.36525 0.76943 0.0
H1717 H 0.41993 0.40321 0.7506 0.0
C1718 C 0.4055 0.43835 0.72173 0.0
C1719 C 0.39487 0.45625 0.70872 0.0
C1720 C 0.3888 0.41466 0.73039 0.0
C1721 C 0.36773 0.44887 0.70207 0.0
C1722 C 0.35108 0.42466 0.70961 0.0
C1723 C 0.34446 0.3861 0.73532 0.0
C1724 C 0.35459 0.37094 0.7521 0.0
C1725 C 0.36132 0.4081 0.7247 0.0
C1726 C 0.38196 0.37698 0.75698 0.0
C1727 C 0.39893 0.39856 0.74609 0.0
H1728 H 0.22157 0.62905 0.28025 0.0
H1729 H 0.19865 0.64213 0.20516 0.0
H1730 H 0.22678 0.69042 0.21176 0.0
H1731 H 0.25957 0.72793 0.23832 0.0
H1732 H 0.28076 0.71507 0.31399 0.0
H1733 H 0.25147 0.66744 0.30773 0.0
C1734 C 0.22265 0.64252 0.26535 0.0
C1735 C 0.20837 0.63206 0.24215 0.0
C1736 C 0.2386 0.67012 0.26937 0.0
C1737 C 0.20951 0.64979 0.22316 0.0
C1738 C 0.22567 0.67729 0.2269 0.0
C1739 C 0.25773 0.71467 0.25343 0.0
C1740 C 0.27253 0.72477 0.27647 0.0
C1741 C 0.24059 0.68752 0.24981 0.0
C1742 C 0.26962 0.70767 0.29607 0.0
C1743 C 0.25294 0.68046 0.29249 0.0
H1744 H 0.55513 0.72123 0.50855 0.0
H1745 H 0.50794 0.6718 0.44428 0.0
H1746 H 0.51375 0.62958 0.46013 0.0
H1747 H 0.53393 0.60654 0.49153 0.0
H1748 H 0.58132 0.65658 0.55556 0.0
H1749 H 0.57384 0.69815 0.54049 0.0
C1750 C 0.54585 0.70121 0.49811 0.0
C1751 C 0.53105 0.69993 0.47519 0.0
C1752 C 0.54955 0.67688 0.5072 0.0
C1753 C 0.5194 0.67363 0.46196 0.0
C1754 C 0.5228 0.64937 0.47099 0.0
C1755 C 0.54255 0.62648 0.50226 0.0
C1756 C 0.5583 0.62807 0.52472 0.0
C1757 C 0.53814 0.65071 0.49346 0.0
C1758 C 0.5692 0.65436 0.53822 0.0
C1759 C 0.56491 0.67835 0.52962 0.0
H1760 H 0.70801 0.32092 0.66024 0.0
H1761 H 0.67385 0.35051 0.7226 0.0
H1762 H 0.70733 0.3422 0.75142 0.0
H1763 H 0.74446 0.32314 0.75934 0.0
H1764 H 0.77785 0.29239 0.69686 0.0
H1765 H 0.74683 0.30447 0.66806 0.0
C1766 C 0.70821 0.32603 0.68009 0.0
C1767 C 0.6884 0.33633 0.68918 0.0
C1768 C 0.72726 0.32059 0.69674 0.0
C1769 C 0.68883 0.34252 0.71505 0.0
C1770 C 0.70793 0.33766 0.73161 0.0
C1771 C 0.74509 0.31926 0.73944 0.0
C1772 C 0.76338 0.30651 0.73049 0.0
C1773 C 0.72694 0.32611 0.72275 0.0
C1774 C 0.76384 0.30179 0.70451 0.0
C1775 C 0.74609 0.30879 0.68788 0.0
H1776 H 0.04198 0.39999 0.9456 0.0
H1777 H 0.02774 0.35803 0.01228 0.0
H1778 H 0.03349 0.40283 0.03654 0.0
H1779 H 0.04498 0.45484 0.03893 0.0
H1780 H 0.06019 0.49493 0.97134 0.0
H1781 H 0.05141 0.45004 0.94745 0.0
C1782 C 0.04002 0.40041 0.96544 0.0
C1783 C 0.03457 0.37548 0.97702 0.0
C1784 C 0.04351 0.42611 0.97919 0.0
C1785 C 0.03199 0.37679 0.00279 0.0
C1786 C 0.03529 0.40246 0.01669 0.0
C1787 C 0.04593 0.4536 0.01893 0.0
C1788 C 0.05328 0.47831 0.00696 0.0
C1789 C 0.04132 0.42739 0.00513 0.0
C1790 C 0.05475 0.47635 0.98107 0.0
C1791 C 0.04976 0.45064 0.96734 0.0
H1792 H 0.04699 0.76186 0.21131 0.0
H1793 H 0.03918 0.83309 0.17544 0.0
H1794 H 0.9976 0.8291 0.19367 0.0
H1795 H 0.96541 0.80746 0.22247 0.0
H1796 H 0.97358 0.73583 0.25756 0.0
H1797 H 1.01335 0.73815 0.23711 0.0
C1798 C 0.03616 0.77647 0.20732 0.0
C1799 C 0.04633 0.79795 0.19228 0.0
C1800 C 1.01249 0.77415 0.21793 0.0
C1801 C 0.03181 0.81639 0.187 0.0
C1802 C 1.0081 0.81419 0.19751 0.0
C1803 C 0.97564 0.79207 0.22532 0.0
C1804 C 0.96668 0.77171 0.24182 0.0
C1805 C 0.99851 0.79344 0.21338 0.0
C1806 C 0.98033 0.75208 0.24542 0.0
C1807 C 1.003 0.75329 0.23361 0.0
H1808 H 0.56631 0.38071 0.09134 0.0
H1809 H 0.57476 0.42158 0.16549 0.0
H1810 H 0.5769 0.46563 0.1483 0.0
H1811 H 0.57624 0.49421 0.1118 0.0
H1812 H 0.56779 0.45298 0.03772 0.0
H1813 H 0.56594 0.40922 0.055 0.0
C1814 C 0.56866 0.39914 0.10392 0.0
C1815 C 0.57034 0.39675 0.13021 0.0
C1816 C 0.56996 0.42525 0.09369 0.0
C1817 C 0.57337 0.42175 0.14543 0.0
C1818 C 0.57462 0.4474 0.13547 0.0
C1819 C 0.57412 0.4758 0.09926 0.0
C1820 C 0.57231 0.47807 0.07292 0.0
C1821 C 0.57295 0.44971 0.10955 0.0
C1822 C 0.56936 0.45302 0.05778 0.0
C1823 C 0.56825 0.42748 0.0678 0.0
H1824 H 0.99247 0.3258 0.32222 0.0
H1825 H 0.96696 0.26753 0.37636 0.0
H1826 H 0.9209 0.26412 0.36337 0.0
H1827 H 0.88645 0.27814 0.33629 0.0
H1828 H 0.91397 0.33695 0.2828 0.0
H1829 H 0.95916 0.33936 0.29577 0.0
C1830 C 0.97703 0.31212 0.33133 0.0
C1831 C 0.98431 0.29684 0.35056 0.0
C1832 C 0.95011 0.31036 0.32374 0.0
C1833 C 0.963 0.27959 0.36163 0.0
C1834 C 0.93625 0.27769 0.35411 0.0
C1835 C 0.90222 0.29158 0.32738 0.0
C1836 C 0.89559 0.30743 0.30815 0.0
C1837 C 0.92928 0.29303 0.33514 0.0
C1838 C 0.91728 0.3244 0.29738 0.0
C1839 C 0.94363 0.32584 0.3049 0.0
H1840 H 0.04583 0.68834 0.64795 0.0
H1841 H 0.06678 0.74526 0.59186 0.0
H1842 H 0.06834 0.70665 0.56213 0.0
H1843 H 0.0642 0.65576 0.55152 0.0
H1844 H 0.04284 0.59965 0.60833 0.0
H1845 H 0.04111 0.63819 0.63744 0.0
C1846 C 0.05068 0.69256 0.62921 0.0
C1847 C 0.05612 0.72049 0.62266 0.0
C1848 C 0.05156 0.66991 0.61193 0.0
C1849 C 0.06237 0.72457 0.59796 0.0
C1850 C 0.06332 0.70222 0.58078 0.0
C1851 C 0.05911 0.65179 0.57024 0.0
C1852 C 0.05367 0.62394 0.57718 0.0
C1853 C 0.05803 0.67463 0.58743 0.0
C1854 C 0.04715 0.62016 0.60185 0.0
C1855 C 0.04615 0.6425 0.61876 0.0
H1856 H 0.68059 0.83243 0.87674 0.0
H1857 H 0.62852 0.76443 0.82847 0.0
H1858 H 0.66545 0.76059 0.8053 0.0
H1859 H 0.7138 0.77586 0.79794 0.0
H1860 H 0.76483 0.84733 0.84309 0.0
H1861 H 0.72824 0.85023 0.8671 0.0
C1862 C 0.67707 0.81666 0.86117 0.0
C1863 C 0.65071 0.79848 0.85511 0.0
C1864 C 0.69889 0.81512 0.84682 0.0
C1865 C 0.64776 0.77881 0.83424 0.0
C1866 C 0.66927 0.77655 0.82075 0.0
C1867 C 0.71715 0.79228 0.81292 0.0
C1868 C 0.74324 0.81132 0.81814 0.0
C1869 C 0.69515 0.79449 0.82669 0.0
C1870 C 0.74582 0.83226 0.83791 0.0
C1871 C 0.72451 0.8339 0.85198 0.0
H1872 H 0.49653 0.59791 0.68575 0.0
H1873 H 0.42478 0.56664 0.63721 0.0
H1874 H 0.45024 0.56404 0.60155 0.0
H1875 H 0.49258 0.56482 0.58563 0.0
H1876 H 0.56379 0.59386 0.63545 0.0
H1877 H 0.53869 0.60293 0.66926 0.0
C1878 C 0.48644 0.59095 0.66729 0.0
C1879 C 0.45888 0.58204 0.66413 0.0
C1880 C 0.50107 0.58858 0.64724 0.0
C1881 C 0.44603 0.57348 0.6401 0.0
C1882 C 0.46057 0.57175 0.61978 0.0
C1883 C 0.50265 0.57334 0.60383 0.0
C1884 C 0.52998 0.57816 0.6081 0.0
C1885 C 0.48805 0.57824 0.62335 0.0
C1886 C 0.54274 0.58954 0.6317 0.0
C1887 C 0.52843 0.59484 0.65106 0.0
H1888 H 0.82576 0.24739 0.02228 0.0
H1889 H 0.86209 0.19404 0.98151 0.0
H1890 H 0.85765 0.21715 0.94393 0.0
H1891 H 0.83866 0.24856 0.9216 0.0
H1892 H 0.79901 0.29911 0.96159 0.0
H1893 H 0.80938 0.28102 0.00054 0.0
C1894 C 0.83328 0.24129 0.00532 0.0
C1895 C 0.84433 0.21912 0.00467 0.0
C1896 C 0.82961 0.25385 0.98355 0.0
C1897 C 0.85356 0.21109 0.98246 0.0
C1898 C 0.85088 0.22418 0.96095 0.0
C1899 C 0.83278 0.25604 0.93894 0.0
C1900 C 0.81807 0.27512 0.93875 0.0
C1901 C 0.83822 0.245 0.9611 0.0
C1902 C 0.81018 0.28427 0.96127 0.0
C1903 C 0.81614 0.27397 0.98352 0.0
H1904 H 0.16968 0.55607 0.18088 0.0
H1905 H 0.16382 0.47043 0.16009 0.0
H1906 H 0.1383 0.47166 0.12074 0.0
H1907 H 0.11417 0.49643 0.09446 0.0
H1908 H 0.11408 0.57928 0.12043 0.0
H1909 H 0.14457 0.57971 0.15623 0.0
C1910 C 0.16297 0.53779 0.16755 0.0
C1911 C 0.16861 0.51332 0.17295 0.0
C1912 C 0.1466 0.53803 0.14641 0.0
C1913 C 0.15995 0.48961 0.15586 0.0
C1914 C 0.14509 0.49024 0.13366 0.0
C1915 C 0.12075 0.51438 0.10816 0.0
C1916 C 0.11177 0.53763 0.1052 0.0
C1917 C 0.13763 0.51412 0.12913 0.0
C1918 C 0.12037 0.56095 0.12277 0.0
C1919 C 0.13801 0.56134 0.14302 0.0
H1920 H 0.78552 0.86257 0.43562 0.0
H1921 H 0.8434 0.82521 0.46369 0.0
H1922 H 0.84984 0.81054 0.42071 0.0
H1923 H 0.8405 0.81079 0.37445 0.0
H1924 H 0.78155 0.84804 0.34823 0.0
H1925 H 0.77447 0.86049 0.3909 0.0
C1926 C 0.79938 0.8509 0.43248 0.0
C1927 C 0.81393 0.84507 0.45311 0.0
C1928 C 0.80315 0.84288 0.4078 0.0
C1929 C 0.83166 0.82977 0.44838 0.0
C1930 C 0.83556 0.82167 0.4237 0.0
C1931 C 0.82621 0.82175 0.3781 0.0
C1932 C 0.81182 0.82869 0.35781 0.0
C1933 C 0.82176 0.82858 0.40314 0.0
C1934 C 0.79305 0.84245 0.36316 0.0
C1935 C 0.7889 0.84958 0.38768 0.0
H1936 H 0.5174 0.53066 0.78114 0.0
H1937 H 0.44908 0.54621 0.81039 0.0
H1938 H 0.46586 0.54129 0.85244 0.0
H1939 H 0.49953 0.53174 0.88066 0.0
H1940 H 0.56806 0.51709 0.8512 0.0
H1941 H 0.55123 0.52201 0.80925 0.0
C1942 C 0.50613 0.53306 0.79667 0.0
C1943 C 0.482 0.53879 0.79258 0.0
C1944 C 0.51581 0.53014 0.8207 0.0
C1945 C 0.46774 0.54183 0.81299 0.0
C1946 C 0.47729 0.53897 0.83703 0.0
C1947 C 0.51091 0.5299 0.8651 0.0
C1948 C 0.53499 0.52402 0.86905 0.0
C1949 C 0.50126 0.53304 0.84107 0.0
C1950 C 0.54929 0.52122 0.84862 0.0
C1951 C 0.53978 0.52423 0.82466 0.0
H1952 H 0.84587 0.22704 0.13574 0.0
H1953 H 0.82476 0.15182 0.17272 0.0
H1954 H 0.82426 0.17876 0.21199 0.0
H1955 H 0.82444 0.22304 0.23443 0.0
H1956 H 0.84302 0.29762 0.19623 0.0
H1957 H 0.84987 0.2716 0.15898 0.0
C1958 C 0.84178 0.21661 0.15251 0.0
C1959 C 0.83517 0.18751 0.15129 0.0
C1960 C 0.84056 0.23207 0.17477 0.0
C1961 C 0.82972 0.17425 0.17317 0.0
C1962 C 0.8293 0.1896 0.1956 0.0
C1963 C 0.83026 0.23362 0.21804 0.0
C1964 C 0.83276 0.26211 0.21801 0.0
C1965 C 0.83376 0.21843 0.1964 0.0
C1966 C 0.84049 0.27558 0.19666 0.0
C1967 C 0.84452 0.26076 0.17532 0.0
H1968 H 0.09409 0.56167 0.28223 0.0
H1969 H 0.13953 0.51344 0.31621 0.0
H1970 H 0.12166 0.51979 0.35587 0.0
H1971 H 0.09623 0.54226 0.38144 0.0
H1972 H 0.05383 0.59386 0.34838 0.0
H1973 H 0.06699 0.58244 0.3075 0.0
C1974 C 0.09972 0.55214 0.2982 0.0
C1975 C 0.11816 0.53723 0.29641 0.0
C1976 C 0.09008 0.55663 0.32106 0.0
C1977 C 0.12546 0.52516 0.31725 0.0
C1978 C 0.11533 0.52882 0.3399 0.0
C1979 C 0.08999 0.55115 0.36531 0.0
C1980 C 0.07446 0.56921 0.36794 0.0
C1981 C 0.09822 0.54516 0.34213 0.0
C1982 C 0.0658 0.57987 0.34679 0.0
C1983 C 0.07342 0.57348 0.32347 0.0
H1984 H 0.78876 0.81109 0.61845 0.0
H1985 H 0.85808 0.88184 0.63238 0.0
H1986 H 0.85907 0.87658 0.67679 0.0
H1987 H 0.8402 0.85288 0.71228 0.0
H1988 H 0.77101 0.78199 0.69959 0.0
H1989 H 0.77002 0.78647 0.6547 0.0
C1990 C 0.80425 0.82516 0.63116 0.0
C1991 C 0.82341 0.84684 0.62168 0.0
C1992 C 0.80461 0.82222 0.6572 0.0
C1993 C 0.84307 0.86496 0.63877 0.0
C1994 C 0.84363 0.86203 0.66436 0.0
C1995 C 0.82473 0.83841 0.69982 0.0
C1996 C 0.80556 0.81721 0.70972 0.0
C1997 C 0.82441 0.84095 0.67388 0.0
C1998 C 0.78597 0.79864 0.69285 0.0
C1999 C 0.78545 0.80115 0.66702 0.0
H2000 H 0.78306 0.51856 0.52977 0.0
H2001 H 0.71861 0.44686 0.54048 0.0
H2002 H 0.69664 0.47711 0.5618 0.0
H2003 H 0.6953 0.52389 0.57601 0.0
H2004 H 0.75956 0.59544 0.56483 0.0
H2005 H 0.78238 0.56503 0.54509 0.0
C2006 C 0.76418 0.50948 0.53674 0.0
C2007 C 0.75236 0.48053 0.53346 0.0
C2008 C 0.75183 0.5269 0.54899 0.0
C2009 C 0.72799 0.46911 0.54268 0.0
C2010 C 0.71551 0.48636 0.55492 0.0
C2011 C 0.71458 0.53277 0.56976 0.0
C2012 C 0.72595 0.56179 0.57206 0.0
C2013 C 0.72726 0.51526 0.55812 0.0
C2014 C 0.75056 0.57314 0.56328 0.0
C2015 C 0.76351 0.5558 0.55196 0.0
H2016 H 0.23345 0.16154 0.55631 0.0
H2017 H 0.21307 0.17796 0.48173 0.0
H2018 H 0.16992 0.14326 0.48117 0.0
H2019 H 0.1389 0.1074 0.50155 0.0
H2020 H 0.15822 0.09298 0.57713 0.0
H2021 H 0.20138 0.12755 0.57764 0.0
C2022 C 0.21948 0.15754 0.54002 0.0
C2023 C 0.22622 0.17199 0.51903 0.0
C2024 C 0.19488 0.13773 0.53994 0.0
C2025 C 0.20799 0.16712 0.49812 0.0
C2026 C 0.18353 0.14716 0.49774 0.0
C2027 C 0.15274 0.11156 0.51801 0.0
C2028 C 0.1458 0.09726 0.53909 0.0
C2029 C 0.17696 0.13207 0.51842 0.0
C2030 C 0.16341 0.10349 0.5606 0.0
C2031 C 0.18795 0.12331 0.56092 0.0
H2032 H 0.22021 0.97688 0.79524 0.0
H2033 H 0.28076 0.04892 0.83007 0.0
H2034 H 0.31423 0.03244 0.81059 0.0
H2035 H 0.32608 0.99755 0.78362 0.0
H2036 H 0.26515 0.92497 0.74997 0.0
H2037 H 0.23194 0.94245 0.76811 0.0
C2038 C 0.24076 0.98883 0.79878 0.0
C2039 C 0.24808 0.01388 0.81421 0.0
C2040 C 0.25975 0.97954 0.78722 0.0
C2041 C 0.27471 0.02942 0.81835 0.0
C2042 C 0.29381 0.02013 0.80711 0.0
C2043 C 0.30554 0.9856 0.78021 0.0
C2044 C 0.29821 0.96007 0.76535 0.0
C2045 C 0.28651 0.99527 0.79141 0.0
C2046 C 0.27142 0.94502 0.76083 0.0
C2047 C 0.25237 0.95474 0.77155 0.0
H2048 H 0.39353 0.97931 0.02419 0.0
H2049 H 0.39235 1.01184 0.95263 0.0
H2050 H 0.44037 0.02874 0.95672 0.0
H2051 H 0.48243 0.03556 0.98131 0.0
H2052 H 0.48325 1.00582 0.05414 0.0
H2053 H 0.43546 0.9865 0.04891 0.0
C2054 C 0.40381 0.98987 0.00939 0.0
C2055 C 0.38954 0.99425 0.9881 0.0
C2056 C 0.43125 1.00014 0.01218 0.0
C2057 C 0.40301 1.00832 0.96922 0.0
C2058 C 0.4304 0.01796 0.97155 0.0
C2059 C 0.47213 0.02471 0.99596 0.0
C2060 C 0.48623 0.02203 0.01804 0.0
C2061 C 0.44469 0.0142 0.99305 0.0
C2062 C 0.47272 1.00823 0.03702 0.0
C2063 C 0.44545 0.99713 0.03402 0.0
H2064 H 0.92668 0.63582 0.83752 0.0
H2065 H 0.86561 0.56297 0.85215 0.0
H2066 H 0.83222 0.58566 0.84109 0.0
H2067 H 0.82042 0.62328 0.82096 0.0
H2068 H 0.88194 0.69424 0.80353 0.0
H2069 H 0.91518 0.67504 0.82164 0.0
C2070 C 0.90611 0.62514 0.83893 0.0
C2071 C 0.89857 0.59768 0.84535 0.0
C2072 C 0.88709 0.6377 0.83136 0.0
C2073 C 0.87186 0.58411 0.84709 0.0
C2074 C 0.85277 0.59697 0.84056 0.0
C2075 C 0.8411 0.63464 0.8215 0.0
C2076 C 0.84883 0.65977 0.81052 0.0
C2077 C 0.86013 0.62326 0.83159 0.0
C2078 C 0.87563 0.67446 0.81134 0.0
C2079 C 0.89461 0.66363 0.82184 0.0
H2080 H 0.89256 0.6929 0.05294 0.0
H2081 H 0.8347 0.62106 0.01463 0.0
H2082 H 0.8666 0.59485 0.01518 0.0
H2083 H 0.90932 0.59073 0.0302 0.0
H2084 H 0.96724 0.66135 0.07026 0.0
H2085 H 0.93728 0.68971 0.06521 0.0
C2086 C 0.88731 0.67178 0.04417 0.0
C2087 C 0.86148 0.65888 0.03363 0.0
C2088 C 0.90563 0.65647 0.04523 0.0
C2089 C 0.85459 0.63134 0.02273 0.0
C2090 C 0.87274 0.6163 0.02318 0.0
C2091 C 0.9154 0.61234 0.03781 0.0
C2092 C 0.94029 0.62378 0.05089 0.0
C2093 C 0.89803 0.62836 0.03506 0.0
C2094 C 0.94814 0.65202 0.06012 0.0
C2095 C 0.93097 0.66823 0.05731 0.0
H2096 H 0.18309 0.16102 0.82933 0.0
H2097 H 0.24918 0.13571 0.85808 0.0
H2098 H 0.27944 0.17793 0.84584 0.0
H2099 H 0.28712 0.21969 0.82309 0.0
H2100 H 0.22088 0.24433 0.79406 0.0
H2101 H 0.19068 0.20454 0.81005 0.0
C2102 C 0.20408 0.16497 0.83343 0.0
C2103 C 0.21382 0.14505 0.8443 0.0
C2104 C 0.22138 0.18887 0.82577 0.0
C2105 C 0.24112 0.15061 0.84956 0.0
C2106 C 0.25848 0.17464 0.84237 0.0
C2107 C 0.26607 0.21619 0.82025 0.0
C2108 C 0.25614 0.23459 0.80725 0.0
C2109 C 0.24882 0.1934 0.82967 0.0
C2110 C 0.2289 0.23036 0.80408 0.0
C2111 C 0.21164 0.20765 0.81321 0.0
H2112 H 0.44749 0.96617 0.29558 0.0
H2113 H 0.39919 0.99512 0.34559 0.0
H2114 H 0.36656 0.94925 0.33996 0.0
H2115 H 0.35132 0.90114 0.31986 0.0
H2116 H 0.39983 0.87363 0.26897 0.0
H2117 H 0.43259 0.91885 0.27579 0.0
C2118 C 0.42999 0.96243 0.30552 0.0
C2119 C 0.42586 0.98399 0.32106 0.0
C2120 C 0.41115 0.93633 0.30181 0.0
C2121 C 0.40288 0.97882 0.33353 0.0
C2122 C 0.38416 0.95265 0.33025 0.0
C2123 C 0.36899 0.90511 0.31018 0.0
C2124 C 0.37308 0.88397 0.29399 0.0
C2125 C 0.38795 0.93131 0.31419 0.0
C2126 C 0.39616 0.88943 0.28166 0.0
C2127 C 0.415 0.91531 0.28554 0.0
H2128 H 0.61964 0.42833 0.63697 0.0
H2129 H 0.57763 0.37113 0.57461 0.0
H2130 H 0.56529 0.40879 0.55576 0.0
H2131 H 0.56633 0.45847 0.5569 0.0
H2132 H 0.61226 0.51627 0.61717 0.0
H2133 H 0.623 0.47825 0.63684 0.0
C2134 C 0.60782 0.42411 0.61923 0.0
C2135 C 0.59948 0.39678 0.60734 0.0
C2136 C 0.60135 0.44612 0.60812 0.0
C2137 C 0.58442 0.39188 0.58419 0.0
C2138 C 0.57724 0.41345 0.57342 0.0
C2139 C 0.57853 0.46265 0.57443 0.0
C2140 C 0.58814 0.49018 0.58574 0.0
C2141 C 0.58551 0.44069 0.58522 0.0
C2142 C 0.60446 0.4953 0.60814 0.0
C2143 C 0.61064 0.47353 0.61941 0.0
H2144 H 0.43943 0.78711 0.40391 0.0
H2145 H 0.47313 0.75185 0.34449 0.0
H2146 H 0.43436 0.7477 0.31604 0.0
H2147 H 0.39396 0.76091 0.30641 0.0
H2148 H 0.36093 0.79744 0.36591 0.0
H2149 H 0.39583 0.79409 0.39565 0.0
C2150 C 0.43773 0.77752 0.38502 0.0
C2151 C 0.45889 0.76946 0.37637 0.0
C2152 C 0.41567 0.77608 0.36847 0.0
C2153 C 0.45684 0.75781 0.35162 0.0
C2154 C 0.4348 0.75574 0.33525 0.0
C2155 C 0.39412 0.76763 0.32594 0.0
C2156 C 0.37508 0.77997 0.33365 0.0
C2157 C 0.41454 0.76587 0.34317 0.0
C2158 C 0.37559 0.78839 0.35918 0.0
C2159 C 0.39557 0.78643 0.37635 0.0
H2160 H 0.14383 0.72491 0.12878 0.0
H2161 H 0.08118 0.746 0.088 0.0
H2162 H 0.06825 0.70028 0.06399 0.0
H2163 H 0.07326 0.65305 0.05643 0.0
H2164 H 0.13753 0.63355 0.09612 0.0
H2165 H 0.15124 0.67978 0.11872 0.0
C2166 C 0.1275 0.71963 0.11445 0.0
C2167 C 0.11339 0.7388 0.11031 0.0
C2168 C 0.12033 0.69344 0.10066 0.0
C2169 C 0.09247 0.73172 0.09148 0.0
C2170 C 0.08495 0.70548 0.07788 0.0
C2171 C 0.09033 0.65902 0.06995 0.0
C2172 C 0.10426 0.63979 0.0747 0.0
C2173 C 0.09846 0.68597 0.08261 0.0
C2174 C 0.12652 0.64794 0.09205 0.0
C2175 C 0.13435 0.67437 0.10504 0.0
H2176 H 0.11504 0.33116 0.92052 0.0
H2177 H 0.07432 0.25016 0.8832 0.0
H2178 H 0.10692 0.25618 0.85292 0.0
H2179 H 0.14556 0.28499 0.83586 0.0
H2180 H 0.18597 0.36686 0.87147 0.0
H2181 H 0.15463 0.36031 0.90329 0.0
C2182 C 0.11365 0.31478 0.90601 0.0
C2183 C 0.09253 0.29018 0.90418 0.0
C2184 C 0.13206 0.31869 0.88809 0.0
C2185 C 0.09054 0.26924 0.88497 0.0
C2186 C 0.10905 0.27266 0.86758 0.0
C2187 C 0.14765 0.30131 0.8507 0.0
C2188 C 0.16808 0.32629 0.8514 0.0
C2189 C 0.12966 0.29743 0.86879 0.0
C2190 C 0.17024 0.3475 0.87045 0.0
C2191 C 0.15246 0.3437 0.88875 0.0
H2192 H 0.56876 0.72281 0.97907 0.0
H2193 H 0.5677 0.68263 0.90578 0.0
H2194 H 0.56648 0.63918 0.92369 0.0
H2195 H 0.56596 0.611 0.96048 0.0
H2196 H 0.56408 0.65015 0.03355 0.0
H2197 H 0.56607 0.69388 0.01576 0.0
C2198 C 0.56825 0.70465 0.96684 0.0
C2199 C 0.5685 0.7071 0.94054 0.0
C2200 C 0.56696 0.6787 0.97747 0.0
C2201 C 0.56757 0.68241 0.92578 0.0
C2202 C 0.56688 0.65712 0.93618 0.0
C2203 C 0.56588 0.62896 0.9727 0.0
C2204 C 0.56484 0.62621 -0.0011 0.0
C2205 C 0.56659 0.65473 0.96205 0.0
C2206 C 0.5647 0.65056 0.01361 0.0
C2207 C 0.56594 0.67605 0.00329 0.0
H2208 H 0.17349 0.83496 0.68846 0.0
H2209 H 0.12699 0.79426 0.74455 0.0
H2210 H 0.16654 0.78905 0.76681 0.0
H2211 H 0.21567 0.79542 0.77114 0.0
H2212 H 0.26195 0.8376 0.71546 0.0
H2213 H 0.22243 0.8425 0.69337 0.0
C2214 C 0.17176 0.82504 0.70563 0.0
C2215 C 0.14615 0.81517 0.71433 0.0
C2216 C 0.19527 0.82212 0.71887 0.0
C2217 C 0.14559 0.80236 0.73685 0.0
C2218 C 0.1686 0.79925 0.7498 0.0
C2219 C 0.21735 0.80568 0.75416 0.0
C2220 C 0.24297 0.81589 0.74546 0.0
C2221 C 0.19379 0.80891 0.74112 0.0
C2222 C 0.24343 0.82925 0.72323 0.0
C2223 C 0.22041 0.83215 0.71031 0.0
H2224 H 0.07162 0.41534 0.41275 0.0
H2225 H 0.07778 0.36833 0.47509 0.0
H2226 H 0.07513 0.40738 0.50367 0.0
H2227 H 0.07074 0.45579 0.51159 0.0
H2228 H 0.06228 0.50109 0.44847 0.0
H2229 H 0.06611 0.46258 0.42041 0.0
C2230 C 0.07249 0.41344 0.4326 0.0
C2231 C 0.07516 0.38821 0.4413 0.0
C2232 C 0.07047 0.43616 0.44918 0.0
C2233 C 0.07586 0.38691 0.46734 0.0
C2234 C 0.07432 0.40952 0.48387 0.0
C2235 C 0.06977 0.45741 0.4917 0.0
C2236 C 0.06624 0.48219 0.48264 0.0
C2237 C 0.07159 0.43442 0.47514 0.0
C2238 C 0.06489 0.48293 0.45652 0.0
C2239 C 0.06713 0.46063 0.44024 0.0
H2240 H 0.47819 0.33829 0.22012 0.0
H2241 H 0.46808 0.25063 0.22212 0.0
H2242 H 0.42626 0.24479 0.23983 0.0
H2243 H 0.3909 0.26377 0.25609 0.0
H2244 H 0.4019 0.35181 0.25662 0.0
H2245 H 0.44306 0.35756 0.23748 0.0
C2246 C 0.46693 0.31776 0.22415 0.0
C2247 C 0.47749 0.29491 0.21898 0.0
C2248 C 0.44213 0.31434 0.23539 0.0
C2249 C 0.46158 0.26893 0.22533 0.0
C2250 C 0.43715 0.26543 0.23571 0.0
C2251 C 0.40214 0.28436 0.25218 0.0
C2252 C 0.39203 0.30727 0.25846 0.0
C2253 C 0.42695 0.28788 0.24109 0.0
C2254 C 0.40809 0.33345 0.25266 0.0
C2255 C 0.43213 0.33686 0.2414 0.0
H2256 H 0.61312 0.51681 0.40511 0.0
H2257 H 0.68652 0.58088 0.424 0.0
H2258 H 0.67754 0.58329 0.46792 0.0
H2259 H 0.64606 0.57048 0.49974 0.0
H2260 H 0.57378 0.50425 0.48016 0.0
H2261 H 0.58528 0.49898 0.43786 0.0
C2262 C 0.62728 0.53088 0.41902 0.0
C2263 C 0.65018 0.54883 0.4117 0.0
C2264 C 0.62213 0.53185 0.44401 0.0
C2265 C 0.66872 0.56688 0.42957 0.0
C2266 C 0.66353 0.56835 0.45454 0.0
C2267 C 0.63309 0.55465 0.48628 0.0
C2268 C 0.60894 0.5382 0.49296 0.0
C2269 C 0.63989 0.55147 0.46184 0.0
C2270 C 0.59245 0.51738 0.4755 0.0
C2271 C 0.59891 0.51436 0.45121 0.0
H2272 H 0.35595 0.91923 0.08019 0.0
H2273 H 0.28669 0.85252 0.05212 0.0
H2274 H 0.2959 0.82417 0.0843 0.0
H2275 H 0.32267 0.81903 0.1214 0.0
H2276 H 0.39181 0.88578 0.14948 0.0
H2277 H 0.3836 0.91342 0.11628 0.0
C2278 C 0.34288 0.89847 0.08107 0.0
C2279 C 0.32059 0.88807 0.06385 0.0
C2280 C 0.34827 0.88229 0.09962 0.0
C2281 C 0.30394 0.86107 0.06519 0.0
C2282 C 0.3092 0.84483 0.08358 0.0
C2283 C 0.33618 0.83943 0.11999 0.0
C2284 C 0.35782 0.85034 0.13787 0.0
C2285 C 0.33122 0.85528 0.10097 0.0
C2286 C 0.3749 0.87702 0.13606 0.0
C2287 C 0.37023 0.89281 0.11707 0.0
H2288 H 1.00062 0.58378 0.90605 0.0
H2289 H 0.06489 0.56138 0.87471 0.0
H2290 H 0.09002 0.57212 0.91538 0.0
H2291 H 0.09051 0.58021 0.96064 0.0
H2292 H 0.02445 0.5981 0.99221 0.0
H2293 H 1.00351 0.59766 0.95053 0.0
C2294 C 0.02026 0.58159 0.908 0.0
C2295 C 0.0306 0.57114 0.88755 0.0
C2296 C 0.0343 0.58709 0.93149 0.0
C2297 C 0.05626 0.56887 0.89031 0.0
C2298 C 0.07068 0.57507 0.91353 0.0
C2299 C 0.07198 0.58497 0.9583 0.0
C2300 C 0.05885 0.58901 0.97918 0.0
C2301 C 0.05948 0.58315 0.9344 0.0
C2302 C 0.03472 0.59481 0.97618 0.0
C2303 C 0.0227 0.59433 0.95243 0.0
H2304 H 0.26666 0.23275 0.6216 0.0
H2305 H 0.34752 0.27522 0.61272 0.0
H2306 H 0.35404 0.29436 0.65667 0.0
H2307 H 0.33713 0.29621 0.69877 0.0
H2308 H 0.2554 0.25494 0.70584 0.0
H2309 H 0.24895 0.23806 0.66176 0.0
C2310 C 0.28564 0.24665 0.62912 0.0
C2311 C 0.30655 0.25257 0.61371 0.0
C2312 C 0.28918 0.25742 0.65435 0.0
C2313 C 0.33097 0.2706 0.6239 0.0
C2314 C 0.33475 0.28126 0.64918 0.0
C2315 C 0.31792 0.28353 0.69062 0.0
C2316 C 0.29682 0.27659 0.70588 0.0
C2317 C 0.31412 0.27432 0.66479 0.0
C2318 C 0.27199 0.26056 0.69477 0.0
C2319 C 0.26827 0.25088 0.66947 0.0
H2320 H 0.60784 0.527 0.27707 0.0
H2321 H 0.68137 0.55498 0.2442 0.0
H2322 H 0.65831 0.56212 0.20609 0.0
H2323 H 0.61786 0.56366 0.18312 0.0
H2324 H 0.54409 0.53657 0.21509 0.0
H2325 H 0.56649 0.5256 0.25258 0.0
C2326 C 0.61873 0.53427 0.26142 0.0
C2327 C 0.6463 0.54064 0.26355 0.0
C2328 C 0.60533 0.53866 0.23953 0.0
C2329 C 0.66017 0.55007 0.24313 0.0
C2330 C 0.64702 0.55423 0.22132 0.0
C2331 C 0.60677 0.55512 0.1983 0.0
C2332 C 0.57961 0.55099 0.19674 0.0
C2333 C 0.61974 0.54914 0.21953 0.0
C2334 C 0.56512 0.53989 0.21619 0.0
C2335 C 0.57792 0.5337 0.23751 0.0
H2336 H 0.29052 0.93405 0.89669 0.0
H2337 H 0.27907 0.86537 0.94218 0.0
H2338 H 0.28321 0.83499 0.90647 0.0
H2339 H 0.2941 0.82904 0.86358 0.0
H2340 H 0.30699 0.89801 0.81831 0.0
H2341 H 0.29828 0.92715 0.85277 0.0
C2342 C 0.28841 0.91231 0.89871 0.0
C2343 C 0.28464 0.90207 0.92216 0.0
C2344 C 0.2915 0.89511 0.87826 0.0
C2345 C 0.28208 0.87385 0.9244 0.0
C2346 C 0.28459 0.85648 0.90402 0.0
C2347 C 0.29494 0.85043 0.86118 0.0
C2348 C 0.30154 0.8614 0.83849 0.0
C2349 C 0.29005 0.8671 0.88107 0.0
C2350 C 0.30216 0.88906 0.83563 0.0
C2351 C 0.29715 0.90575 0.85533 0.0
H2352 H 1.01249 0.57516 0.76745 0.0
H2353 H 0.93208 0.53824 0.73668 0.0
H2354 H 0.94722 0.52816 0.6963 0.0
H2355 H 0.98346 0.52645 0.67109 0.0
H2356 H 0.06366 0.56175 0.70287 0.0
H2357 H 0.04835 0.57537 0.74201 0.0
C2358 C 0.9982 0.56519 0.75186 0.0
C2359 C 0.97123 0.55723 0.75503 0.0
C2360 C 1.00702 0.55873 0.72914 0.0
C2361 C 0.95297 0.54447 0.73466 0.0
C2362 C 0.96161 0.53856 0.71166 0.0
C2363 C 0.99754 0.53738 0.68653 0.0
C2364 C 0.0246 0.54298 0.68429 0.0
C2365 C 0.9886 0.54503 0.70891 0.0
C2366 C 0.04272 0.55687 0.70441 0.0
C2367 C 0.034 0.56483 0.72665 0.0
H2368 H 0.32737 0.29015 0.45455 0.0
H2369 H 0.31612 0.20306 0.43389 0.0
H2370 H 0.31601 0.21121 0.39002 0.0
H2371 H 0.31786 0.2428 0.35664 0.0
H2372 H 0.33083 0.33023 0.3774 0.0
H2373 H 0.33156 0.32217 0.42125 0.0
C2374 C 0.32509 0.27298 0.44049 0.0
C2375 C 0.32173 0.24597 0.44791 0.0
C2376 C 0.32525 0.27782 0.4149 0.0
C2377 C 0.31883 0.22411 0.4291 0.0
C2378 C 0.31867 0.22872 0.4038 0.0
C2379 C 0.32097 0.26014 0.37072 0.0
C2380 C 0.32427 0.28714 0.36328 0.0
C2381 C 0.32167 0.25545 0.39634 0.0
C2382 C 0.32835 0.3092 0.38215 0.0
C2383 C 0.32871 0.30462 0.40746 0.0
H2384 H 0.36639 0.61323 0.52649 0.0
H2385 H 0.35458 0.56279 0.58833 0.0
H2386 H 0.38242 0.53641 0.5717 0.0
H2387 H 0.41062 0.52832 0.54034 0.0
H2388 H 0.42272 0.57796 0.47808 0.0
H2389 H 0.39388 0.60394 0.494 0.0
C2390 C 0.37012 0.59661 0.53638 0.0
C2391 C 0.35863 0.59004 0.55865 0.0
C2392 C 0.3858 0.58119 0.5265 0.0
C2393 C 0.36325 0.56822 0.57114 0.0
C2394 C 0.37907 0.55307 0.56162 0.0
C2395 C 0.40641 0.54432 0.52986 0.0
C2396 C 0.41844 0.551 0.50791 0.0
C2397 C 0.39029 0.5593 0.53929 0.0
C2398 C 0.41349 0.57239 0.49498 0.0
C2399 C 0.39717 0.58731 0.50414 0.0
H2400 H 0.89769 0.9632 0.49935 0.0
H2401 H 0.90717 0.93065 0.56983 0.0
H2402 H 0.95292 0.96039 0.57618 0.0
H2403 H 0.98976 0.99668 0.5619 0.0
H2404 H 0.97993 0.02691 0.49033 0.0
H2405 H 0.93448 0.99723 0.48433 0.0
C2406 C 0.90975 0.96251 0.51612 0.0
C2407 C 0.89901 0.94492 0.53421 0.0
C2408 C 0.93582 0.97948 0.51953 0.0
C2409 C 0.91502 0.94396 0.55561 0.0
C2410 C 0.94108 0.9611 0.5593 0.0
C2411 C 0.97754 0.9969 0.54511 0.0
C2412 C 0.98799 0.01424 0.52671 0.0
C2413 C 0.95159 0.97919 0.54149 0.0
C2414 C 0.97223 0.01388 0.50479 0.0
C2415 C 0.94629 0.99688 0.50133 0.0
H2416 H 0.86125 0.07604 0.25951 0.0
H2417 H 0.93367 0.1258 0.30066 0.0
H2418 H 0.90981 0.15309 0.32308 0.0
H2419 H 0.8694 0.16603 0.32735 0.0
H2420 H 0.79797 0.11891 0.28311 0.0
H2421 H 0.82017 0.08655 0.26642 0.0
C2422 C 0.87179 0.09267 0.27357 0.0
C2423 C 0.89922 0.09922 0.27815 0.0
C2424 C 0.85807 0.10859 0.28597 0.0
C2425 C 0.91258 0.12062 0.29658 0.0
C2426 C 0.89895 0.13618 0.30943 0.0
C2427 C 0.85863 0.14851 0.31423 0.0
C2428 C 0.83219 0.14517 0.3062 0.0
C2429 C 0.87184 0.13085 0.30372 0.0
C2430 C 0.81828 0.12195 0.28973 0.0
C2431 C 0.83107 0.10363 0.27989 0.0
H2432 H 0.73925 0.09443 0.04859 0.0
H2433 H 0.73778 0.17969 0.05257 0.0
H2434 H 0.68998 0.16411 0.04379 0.0
H2435 H 0.64863 0.1261 0.03565 0.0
H2436 H 0.65051 0.04103 0.03361 0.0
H2437 H 0.69828 0.05674 0.04082 0.0
C2438 C 0.72848 0.10961 0.04747 0.0
C2439 C 0.74191 0.1381 0.05116 0.0
C2440 C 0.70115 0.10055 0.04272 0.0
C2441 C 0.72776 0.15758 0.04985 0.0
C2442 C 0.70049 0.14872 0.04478 0.0
C2443 C 0.65958 0.11107 0.03659 0.0
C2444 C 0.64622 0.08253 0.03407 0.0
C2445 C 0.68699 0.12024 0.04123 0.0
C2446 C 0.66046 0.06316 0.0356 0.0
C2447 C 0.68773 0.07209 0.03971 0.0
H2448 H 0.2249 0.49408 0.32053 0.0
H2449 H 0.28179 0.53646 0.27257 0.0
H2450 H 0.31597 0.52214 0.29512 0.0
H2451 H 0.3274 0.49152 0.32316 0.0
H2452 H 0.27159 0.44938 0.37229 0.0
H2453 H 0.23937 0.47053 0.35494 0.0
C2454 C 0.24486 0.50034 0.31524 0.0
C2455 C 0.25075 0.5156 0.29455 0.0
C2456 C 0.26452 0.49221 0.32843 0.0
C2457 C 0.27675 0.52433 0.28822 0.0
C2458 C 0.29631 0.51622 0.30114 0.0
C2459 C 0.30869 0.48767 0.33103 0.0
C2460 C 0.30174 0.46797 0.34846 0.0
C2461 C 0.29018 0.49938 0.32067 0.0
C2462 C 0.27724 0.4637 0.35826 0.0
C2463 C 0.25872 0.47566 0.34825 0.0
H2464 H 0.28462 0.44741 0.05732 0.0
H2465 H 0.223 0.37319 0.02871 0.0
H2466 H 0.19307 0.40126 0.02098 0.0
H2467 H 0.18553 0.44757 0.02044 0.0
H2468 H 0.24838 0.52095 0.04894 0.0
H2469 H 0.27692 0.49244 0.05822 0.0
C2470 C 0.2646 0.43723 0.04947 0.0
C2471 C 0.25609 0.40827 0.04343 0.0
C2472 C 0.24786 0.45342 0.04476 0.0
C2473 C 0.23002 0.39546 0.03351 0.0
C2474 C 0.21298 0.41153 0.02899 0.0
C2475 C 0.20541 0.45723 0.02884 0.0
C2476 C 0.21492 0.48641 0.03365 0.0
C2477 C 0.22184 0.44062 0.03423 0.0
C2478 C 0.24075 0.49865 0.04449 0.0
C2479 C 0.25704 0.48235 0.05001 0.0
H2480 H 0.93569 0.94282 0.22122 0.0
H2481 H 0.86885 0.97286 0.20651 0.0
H2482 H 0.84001 0.93137 0.22153 0.0
H2483 H 0.83488 0.88981 0.24352 0.0
H2484 H 0.9019 0.8604 0.26007 0.0
H2485 H 0.92971 0.89858 0.23992 0.0
C2486 C 0.91467 0.93973 0.22052 0.0
C2487 C 0.90428 0.96064 0.2127 0.0
C2488 C 0.89844 0.91645 0.23025 0.0
C2489 C 0.87714 0.95684 0.21235 0.0
C2490 C 0.86075 0.93334 0.2212 0.0
C2491 C 0.85559 0.89176 0.24279 0.0
C2492 C 0.86643 0.87267 0.25374 0.0
C2493 C 0.87138 0.91361 0.23112 0.0
C2494 C 0.89315 0.87508 0.25206 0.0
C2495 C 0.90904 0.89682 0.24044 0.0
H2496 H 0.73078 0.09974 0.75422 0.0
H2497 H 0.66333 0.12833 0.73765 0.0
H2498 H 0.6909 0.17668 0.74595 0.0
H2499 H 0.73428 0.21073 0.7582 0.0
H2500 H 0.80198 0.18169 0.77179 0.0
H2501 H 0.77419 0.13351 0.76444 0.0
C2502 C 0.7221 0.11656 0.75248 0.0
C2503 C 0.69505 0.11053 0.74557 0.0
C2504 C 0.7381 0.14416 0.75679 0.0
C2505 C 0.68413 0.1325 0.74295 0.0
C2506 C 0.69986 0.1601 0.74776 0.0
C2507 C 0.74286 0.1938 0.75966 0.0
C2508 C 0.77004 0.19964 0.76574 0.0
C2509 C 0.72686 0.16617 0.75479 0.0
C2510 C 0.78107 0.17763 0.76713 0.0
C2511 C 0.76521 0.15011 0.76296 0.0
loop_
_geom_bond_atom_site_label_1
_geom_bond_atom_site_label_2
_geom_bond_distance
_geom_bond_site_symmetry_2
_ccdc_geom_bond_type
C0 O1 1.306 1_655 S
C0 O3 1.160 1_655 S
O1 C0 1.306 1_455 S
O1 Cd2 2.228 . S
Cd2 O1 2.228 . S
Cd2 O6 2.273 . S
Cd2 O10 2.277 . S
O3 C0 1.160 1_455 S
O3 Cd4 2.203 . S
Cd4 O3 2.203 . S
Cd4 O6 2.411 . S
Cd4 O7 2.333 . S
Cd4 O8 2.352 . S
Cd4 O12 2.277 . S
Cd4 O13 2.356 . S
C5 O10 1.209 . S
C5 O12 1.226 . S
O6 Cd2 2.273 . S
O6 Cd4 2.411 . S
O6 C9 1.320 . S
O7 Cd4 2.333 . S
O7 C9 1.214 . S
O8 Cd4 2.352 . S
O8 C11 1.258 . S
C9 O6 1.320 . S
C9 O7 1.214 . S
O10 Cd2 2.277 . S
O10 C5 1.209 . S
C11 O8 1.258 . S
C11 O13 1.282 . S
O12 Cd4 2.277 . S
O12 C5 1.226 . S
O13 Cd4 2.356 . S
O13 C11 1.282 . S
C14 O15 1.306 . S
C14 O17 1.160 . S
O15 C14 1.306 . S
O15 Cd16 2.228 . S
Cd16 O15 2.228 . S
Cd16 O20 2.273 . S
Cd16 O24 2.277 . S
O17 C14 1.160 . S
O17 Cd18 2.203 . S
Cd18 O17 2.203 . S
Cd18 O20 2.411 . S
Cd18 O21 2.333 . S
Cd18 O22 2.352 . S
Cd18 O26 2.277 . S
Cd18 O27 2.356 . S
C19 O24 1.209 . S
C19 O26 1.226 . S
O20 Cd16 2.273 . S
O20 Cd18 2.411 . S
O20 C23 1.320 . S
O21 Cd18 2.333 . S
O21 C23 1.214 . S
O22 Cd18 2.352 . S
O22 C25 1.258 . S
C23 O20 1.320 . S
C23 O21 1.214 . S
O24 Cd16 2.277 . S
O24 C19 1.209 . S
C25 O22 1.258 . S
C25 O27 1.282 . S
O26 Cd18 2.277 . S
O26 C19 1.226 . S
O27 Cd18 2.356 . S
O27 C25 1.282 . S
C28 O29 1.306 . S
C28 O31 1.160 . S
O29 C28 1.306 . S
O29 Cd30 2.228 . S
Cd30 O29 2.228 . S
Cd30 O34 2.273 . S
Cd30 O38 2.277 . S
O31 C28 1.160 . S
O31 Cd32 2.203 . S
Cd32 O31 2.203 . S
Cd32 O34 2.411 . S
Cd32 O35 2.333 . S
Cd32 O36 2.352 . S
Cd32 O40 2.277 . S
Cd32 O41 2.356 . S
C33 O38 1.209 . S
C33 O40 1.226 . S
O34 Cd30 2.273 . S
O34 Cd32 2.411 . S
O34 C37 1.320 . S
O35 Cd32 2.333 . S
O35 C37 1.214 . S
O36 Cd32 2.352 . S
O36 C39 1.258 . S
C37 O34 1.320 . S
C37 O35 1.214 . S
O38 Cd30 2.277 . S
O38 C33 1.209 . S
C39 O36 1.258 . S
C39 O41 1.282 . S
O40 Cd32 2.277 . S
O40 C33 1.226 . S
O41 Cd32 2.356 . S
O41 C39 1.282 . S
C42 O43 1.306 . S
C42 O45 1.160 . S
O43 C42 1.306 . S
O43 Cd44 2.228 . S
Cd44 O43 2.228 . S
Cd44 O48 2.273 . S
Cd44 O52 2.277 . S
O45 C42 1.160 . S
O45 Cd46 2.203 . S
Cd46 O45 2.203 . S
Cd46 O48 2.411 . S
Cd46 O49 2.333 . S
Cd46 O50 2.352 . S
Cd46 O54 2.277 . S
Cd46 O55 2.356 . S
C47 O52 1.209 . S
C47 O54 1.226 . S
O48 Cd44 2.273 . S
O48 Cd46 2.411 . S
O48 C51 1.320 . S
O49 Cd46 2.333 . S
O49 C51 1.214 . S
O50 Cd46 2.352 . S
O50 C53 1.258 . S
C51 O48 1.320 . S
C51 O49 1.214 . S
O52 Cd44 2.277 . S
O52 C47 1.209 . S
C53 O50 1.258 . S
C53 O55 1.282 . S
O54 Cd46 2.277 . S
O54 C47 1.226 . S
O55 Cd46 2.356 . S
O55 C53 1.282 . S
C56 O57 1.306 . S
C56 O59 1.160 . S
O57 C56 1.306 . S
O57 Cd58 2.228 . S
Cd58 O57 2.228 . S
Cd58 O62 2.273 . S
Cd58 O66 2.277 . S
O59 C56 1.160 . S
O59 Cd60 2.203 . S
Cd60 O59 2.203 . S
Cd60 O62 2.411 . S
Cd60 O63 2.333 . S
Cd60 O64 2.352 . S
Cd60 O68 2.277 . S
Cd60 O69 2.356 . S
C61 O66 1.209 . S
C61 O68 1.226 . S
O62 Cd58 2.273 . S
O62 Cd60 2.411 . S
O62 C65 1.320 . S
O63 Cd60 2.333 . S
O63 C65 1.214 . S
O64 Cd60 2.352 . S
O64 C67 1.258 . S
C65 O62 1.320 . S
C65 O63 1.214 . S
O66 Cd58 2.277 . S
O66 C61 1.209 . S
C67 O64 1.258 . S
C67 O69 1.282 . S
O68 Cd60 2.277 . S
O68 C61 1.226 . S
O69 Cd60 2.356 . S
O69 C67 1.282 . S
C70 O71 1.306 . S
C70 O73 1.160 . S
O71 C70 1.306 . S
O71 Cd72 2.228 . S
Cd72 O71 2.228 . S
Cd72 O76 2.273 . S
Cd72 O80 2.277 . S
O73 C70 1.160 . S
O73 Cd74 2.203 . S
Cd74 O73 2.203 . S
Cd74 O76 2.411 . S
Cd74 O77 2.333 . S
Cd74 O78 2.352 . S
Cd74 O82 2.277 . S
Cd74 O83 2.356 . S
C75 O80 1.209 . S
C75 O82 1.226 . S
O76 Cd72 2.273 . S
O76 Cd74 2.411 . S
O76 C79 1.320 . S
O77 Cd74 2.333 . S
O77 C79 1.214 . S
O78 Cd74 2.352 . S
O78 C81 1.258 . S
C79 O76 1.320 . S
C79 O77 1.214 . S
O80 Cd72 2.277 . S
O80 C75 1.209 . S
C81 O78 1.258 . S
C81 O83 1.282 . S
O82 Cd74 2.277 . S
O82 C75 1.226 . S
O83 Cd74 2.356 . S
O83 C81 1.282 . S
C84 O85 1.306 . S
C84 O87 1.160 . S
O85 C84 1.306 . S
O85 Cd86 2.228 . S
Cd86 O85 2.228 . S
Cd86 O90 2.273 . S
Cd86 O94 2.277 . S
O87 C84 1.160 . S
O87 Cd88 2.203 . S
Cd88 O87 2.203 . S
Cd88 O90 2.411 . S
Cd88 O91 2.333 . S
Cd88 O92 2.352 . S
Cd88 O96 2.277 . S
Cd88 O97 2.356 . S
C89 O94 1.209 . S
C89 O96 1.226 . S
O90 Cd86 2.273 . S
O90 Cd88 2.411 . S
O90 C93 1.320 . S
O91 Cd88 2.333 . S
O91 C93 1.214 . S
O92 Cd88 2.352 . S
O92 C95 1.258 . S
C93 O90 1.320 . S
C93 O91 1.214 . S
O94 Cd86 2.277 . S
O94 C89 1.209 . S
C95 O92 1.258 . S
C95 O97 1.282 . S
O96 Cd88 2.277 . S
O96 C89 1.226 . S
O97 Cd88 2.356 . S
O97 C95 1.282 . S
C98 O99 1.306 . S
C98 O101 1.160 . S
O99 C98 1.306 . S
O99 Cd100 2.228 1_655 S
Cd100 O99 2.228 1_455 S
Cd100 O104 2.273 . S
Cd100 O108 2.277 . S
O101 C98 1.160 . S
O101 Cd102 2.203 1_655 S
Cd102 O101 2.203 1_455 S
Cd102 O104 2.411 . S
Cd102 O105 2.333 . S
Cd102 O106 2.352 1_455 S
Cd102 O110 2.277 . S
Cd102 O111 2.356 . S
C103 O108 1.209 . S
C103 O110 1.226 . S
O104 Cd100 2.273 . S
O104 Cd102 2.411 . S
O104 C107 1.320 . S
O105 Cd102 2.333 . S
O105 C107 1.214 . S
O106 Cd102 2.352 1_655 S
O106 C109 1.258 . S
C107 O104 1.320 . S
C107 O105 1.214 . S
O108 Cd100 2.277 . S
O108 C103 1.209 . S
C109 O106 1.258 . S
C109 O111 1.282 1_655 S
O110 Cd102 2.277 . S
O110 C103 1.226 . S
O111 Cd102 2.356 . S
O111 C109 1.282 1_455 S
C112 O113 1.306 . S
C112 O115 1.160 . S
O113 C112 1.306 . S
O113 Cd114 2.228 1_545 S
Cd114 O113 2.228 1_565 S
Cd114 O118 2.273 1_565 S
Cd114 O122 2.277 . S
O115 C112 1.160 . S
O115 Cd116 2.203 . S
Cd116 O115 2.203 . S
Cd116 O118 2.411 . S
Cd116 O119 2.333 . S
Cd116 O120 2.352 . S
Cd116 O124 2.277 1_545 S
Cd116 O125 2.356 . S
C117 O122 1.209 . S
C117 O124 1.226 . S
O118 Cd114 2.273 1_545 S
O118 Cd116 2.411 . S
O118 C121 1.320 . S
O119 Cd116 2.333 . S
O119 C121 1.214 . S
O120 Cd116 2.352 . S
O120 C123 1.258 . S
C121 O118 1.320 . S
C121 O119 1.214 . S
O122 Cd114 2.277 . S
O122 C117 1.209 . S
C123 O120 1.258 . S
C123 O125 1.282 . S
O124 Cd116 2.277 1_565 S
O124 C117 1.226 . S
O125 Cd116 2.356 . S
O125 C123 1.282 . S
C126 O127 1.306 . S
C126 O129 1.160 . S
O127 C126 1.306 . S
O127 Cd128 2.228 . S
Cd128 O127 2.228 . S
Cd128 O132 2.273 . S
Cd128 O136 2.277 . S
O129 C126 1.160 . S
O129 Cd130 2.203 . S
Cd130 O129 2.203 . S
Cd130 O132 2.411 . S
Cd130 O133 2.333 . S
Cd130 O134 2.352 . S
Cd130 O138 2.277 . S
Cd130 O139 2.356 . S
C131 O136 1.209 . S
C131 O138 1.226 . S
O132 Cd128 2.273 . S
O132 Cd130 2.411 . S
O132 C135 1.320 . S
O133 Cd130 2.333 . S
O133 C135 1.214 . S
O134 Cd130 2.352 . S
O134 C137 1.258 . S
C135 O132 1.320 . S
C135 O133 1.214 . S
O136 Cd128 2.277 . S
O136 C131 1.209 . S
C137 O134 1.258 . S
C137 O139 1.282 . S
O138 Cd130 2.277 . S
O138 C131 1.226 . S
O139 Cd130 2.356 . S
O139 C137 1.282 . S
C140 O141 1.306 . S
C140 O143 1.160 . S
O141 C140 1.306 . S
O141 Cd142 2.228 . S
Cd142 O141 2.228 . S
Cd142 O146 2.273 . S
Cd142 O150 2.277 . S
O143 C140 1.160 . S
O143 Cd144 2.203 . S
Cd144 O143 2.203 . S
Cd144 O146 2.411 . S
Cd144 O147 2.333 . S
Cd144 O148 2.352 . S
Cd144 O152 2.277 . S
Cd144 O153 2.356 . S
C145 O150 1.209 . S
C145 O152 1.226 . S
O146 Cd142 2.273 . S
O146 Cd144 2.411 . S
O146 C149 1.320 . S
O147 Cd144 2.333 . S
O147 C149 1.214 . S
O148 Cd144 2.352 . S
O148 C151 1.258 . S
C149 O146 1.320 . S
C149 O147 1.214 . S
O150 Cd142 2.277 . S
O150 C145 1.209 . S
C151 O148 1.258 . S
C151 O153 1.282 . S
O152 Cd144 2.277 . S
O152 C145 1.226 . S
O153 Cd144 2.356 . S
O153 C151 1.282 . S
C154 O155 1.308 1_554 S
C154 O157 1.158 . S
O155 C154 1.308 1_556 S
O155 Cd156 2.228 . S
Cd156 O155 2.228 . S
Cd156 O160 2.272 . S
Cd156 O164 2.277 . S
O157 C154 1.158 . S
O157 Cd158 2.203 . S
Cd158 O157 2.203 . S
Cd158 O160 2.411 1_554 S
Cd158 O161 2.333 . S
Cd158 O162 2.352 . S
Cd158 O166 2.277 1_554 S
Cd158 O167 2.356 . S
C159 O164 1.209 . S
C159 O166 1.226 . S
O160 Cd156 2.272 . S
O160 Cd158 2.411 1_556 S
O160 C163 1.320 1_556 S
O161 Cd158 2.333 . S
O161 C163 1.214 . S
O162 Cd158 2.352 . S
O162 C165 1.258 . S
C163 O160 1.320 1_554 S
C163 O161 1.214 . S
O164 Cd156 2.277 . S
O164 C159 1.209 . S
C165 O162 1.258 . S
C165 O167 1.282 . S
O166 Cd158 2.277 1_556 S
O166 C159 1.226 . S
O167 Cd158 2.356 . S
O167 C165 1.282 . S
C168 O169 1.306 . S
C168 O171 1.160 . S
O169 C168 1.306 . S
O169 Cd170 2.228 . S
Cd170 O169 2.228 . S
Cd170 O174 2.273 . S
Cd170 O178 2.277 1_554 S
O171 C168 1.160 . S
O171 Cd172 2.203 . S
Cd172 O171 2.203 . S
Cd172 O174 2.411 . S
Cd172 O175 2.333 . S
Cd172 O176 2.352 . S
Cd172 O180 2.277 . S
Cd172 O181 2.356 . S
C173 O178 1.209 . S
C173 O180 1.226 1_556 S
O174 Cd170 2.273 . S
O174 Cd172 2.411 . S
O174 C177 1.320 . S
O175 Cd172 2.333 . S
O175 C177 1.214 . S
O176 Cd172 2.352 . S
O176 C179 1.258 . S
C177 O174 1.320 . S
C177 O175 1.214 . S
O178 Cd170 2.277 1_556 S
O178 C173 1.209 . S
C179 O176 1.258 . S
C179 O181 1.282 . S
O180 Cd172 2.277 . S
O180 C173 1.226 1_554 S
O181 Cd172 2.356 . S
O181 C179 1.282 . S
C182 O183 1.306 . S
C182 O185 1.160 . S
O183 C182 1.306 . S
O183 Cd184 2.228 . S
Cd184 O183 2.228 . S
Cd184 O188 2.273 . S
Cd184 O192 2.277 . S
O185 C182 1.160 . S
O185 Cd186 2.203 . S
Cd186 O185 2.203 . S
Cd186 O188 2.411 . S
Cd186 O189 2.333 . S
Cd186 O190 2.352 . S
Cd186 O194 2.277 . S
Cd186 O195 2.356 . S
C187 O192 1.209 . S
C187 O194 1.226 . S
O188 Cd184 2.273 . S
O188 Cd186 2.411 . S
O188 C191 1.320 . S
O189 Cd186 2.333 . S
O189 C191 1.214 . S
O190 Cd186 2.352 . S
O190 C193 1.258 . S
C191 O188 1.320 . S
C191 O189 1.214 . S
O192 Cd184 2.277 . S
O192 C187 1.209 . S
C193 O190 1.258 . S
C193 O195 1.282 . S
O194 Cd186 2.277 . S
O194 C187 1.226 . S
O195 Cd186 2.356 . S
O195 C193 1.282 . S
C196 O197 1.306 . S
C196 O199 1.160 . S
O197 C196 1.306 . S
O197 Cd198 2.228 . S
Cd198 O197 2.228 . S
Cd198 O202 2.273 . S
Cd198 O206 2.277 . S
O199 C196 1.160 . S
O199 Cd200 2.203 . S
Cd200 O199 2.203 . S
Cd200 O202 2.411 . S
Cd200 O203 2.333 . S
Cd200 O204 2.352 . S
Cd200 O208 2.277 . S
Cd200 O209 2.356 . S
C201 O206 1.209 . S
C201 O208 1.226 . S
O202 Cd198 2.273 . S
O202 Cd200 2.411 . S
O202 C205 1.320 . S
O203 Cd200 2.333 . S
O203 C205 1.214 . S
O204 Cd200 2.352 . S
O204 C207 1.258 . S
C205 O202 1.320 . S
C205 O203 1.214 . S
O206 Cd198 2.277 . S
O206 C201 1.209 . S
C207 O204 1.258 . S
C207 O209 1.282 . S
O208 Cd200 2.277 . S
O208 C201 1.226 . S
O209 Cd200 2.356 . S
O209 C207 1.282 . S
C210 O211 1.306 . S
C210 O213 1.160 . S
O211 C210 1.306 . S
O211 Cd212 2.228 . S
Cd212 O211 2.228 . S
Cd212 O216 2.273 . S
Cd212 O220 2.277 . S
O213 C210 1.160 . S
O213 Cd214 2.203 . S
Cd214 O213 2.203 . S
Cd214 O216 2.411 . S
Cd214 O217 2.333 . S
Cd214 O218 2.352 . S
Cd214 O222 2.277 . S
Cd214 O223 2.356 . S
C215 O220 1.209 . S
C215 O222 1.226 . S
O216 Cd212 2.273 . S
O216 Cd214 2.411 . S
O216 C219 1.320 . S
O217 Cd214 2.333 . S
O217 C219 1.214 . S
O218 Cd214 2.352 . S
O218 C221 1.258 . S
C219 O216 1.320 . S
C219 O217 1.214 . S
O220 Cd212 2.277 . S
O220 C215 1.209 . S
C221 O218 1.258 . S
C221 O223 1.282 . S
O222 Cd214 2.277 . S
O222 C215 1.226 . S
O223 Cd214 2.356 . S
O223 C221 1.282 . S
C224 O225 1.300 1_545 S
C224 O227 1.160 . S
O225 C224 1.300 1_565 S
O225 Cd226 2.235 . S
Cd226 O225 2.235 . S
Cd226 O230 2.273 1_565 S
Cd226 O234 2.277 . S
O227 C224 1.160 . S
O227 Cd228 2.203 . S
Cd228 O227 2.203 . S
Cd228 O230 2.411 . S
Cd228 O231 2.333 . S
Cd228 O232 2.352 . S
Cd228 O236 2.277 1_545 S
Cd228 O237 2.356 . S
C229 O234 1.209 . S
C229 O236 1.226 . S
O230 Cd226 2.273 1_545 S
O230 Cd228 2.411 . S
O230 C233 1.320 . S
O231 Cd228 2.333 . S
O231 C233 1.214 . S
O232 Cd228 2.352 . S
O232 C235 1.258 . S
C233 O230 1.320 . S
C233 O231 1.214 . S
O234 Cd226 2.277 . S
O234 C229 1.209 . S
C235 O232 1.258 . S
C235 O237 1.282 . S
O236 Cd228 2.277 1_565 S
O236 C229 1.226 . S
O237 Cd228 2.356 . S
O237 C235 1.282 . S
C238 O239 1.306 . S
C238 O241 1.160 . S
O239 C238 1.306 . S
O239 Cd240 2.228 . S
Cd240 O239 2.228 . S
Cd240 O244 2.273 . S
Cd240 O248 2.277 . S
O241 C238 1.160 . S
O241 Cd242 2.203 . S
Cd242 O241 2.203 . S
Cd242 O244 2.411 . S
Cd242 O245 2.333 . S
Cd242 O246 2.352 . S
Cd242 O250 2.277 . S
Cd242 O251 2.356 . S
C243 O248 1.209 . S
C243 O250 1.226 . S
O244 Cd240 2.273 . S
O244 Cd242 2.411 . S
O244 C247 1.320 . S
O245 Cd242 2.333 . S
O245 C247 1.214 . S
O246 Cd242 2.352 . S
O246 C249 1.258 . S
C247 O244 1.320 . S
C247 O245 1.214 . S
O248 Cd240 2.277 . S
O248 C243 1.209 . S
C249 O246 1.258 . S
C249 O251 1.282 . S
O250 Cd242 2.277 . S
O250 C243 1.226 . S
O251 Cd242 2.356 . S
O251 C249 1.282 . S
C252 O253 1.306 . S
C252 O255 1.160 . S
O253 C252 1.306 . S
O253 Cd254 2.228 . S
Cd254 O253 2.228 . S
Cd254 O258 2.273 . S
Cd254 O262 2.277 . S
O255 C252 1.160 . S
O255 Cd256 2.203 . S
Cd256 O255 2.203 . S
Cd256 O258 2.411 . S
Cd256 O259 2.333 . S
Cd256 O260 2.352 . S
Cd256 O264 2.277 . S
Cd256 O265 2.356 . S
C257 O262 1.209 . S
C257 O264 1.226 . S
O258 Cd254 2.273 . S
O258 Cd256 2.411 . S
O258 C261 1.320 . S
O259 Cd256 2.333 . S
O259 C261 1.214 . S
O260 Cd256 2.352 . S
O260 C263 1.258 . S
C261 O258 1.320 . S
C261 O259 1.214 . S
O262 Cd254 2.277 . S
O262 C257 1.209 . S
C263 O260 1.258 . S
C263 O265 1.282 . S
O264 Cd256 2.277 . S
O264 C257 1.226 . S
O265 Cd256 2.356 . S
O265 C263 1.282 . S
C266 O267 1.306 . S
C266 O269 1.160 . S
O267 C266 1.306 . S
O267 Cd268 2.228 . S
Cd268 O267 2.228 . S
Cd268 O272 2.273 . S
Cd268 O276 2.277 . S
O269 C266 1.160 . S
O269 Cd270 2.203 . S
Cd270 O269 2.203 . S
Cd270 O272 2.411 . S
Cd270 O273 2.333 . S
Cd270 O274 2.390 . S
Cd270 O278 2.277 . S
Cd270 O279 2.356 . S
C271 O276 1.209 . S
C271 O278 1.226 . S
O272 Cd268 2.273 . S
O272 Cd270 2.411 . S
O272 C275 1.320 . S
O273 Cd270 2.333 . S
O273 C275 1.214 . S
O274 Cd270 2.390 . S
O274 C277 1.250 . S
C275 O272 1.320 . S
C275 O273 1.214 . S
O276 Cd268 2.277 . S
O276 C271 1.209 . S
C277 O274 1.250 . S
C277 O279 1.282 . S
O278 Cd270 2.277 . S
O278 C271 1.226 . S
O279 Cd270 2.356 . S
O279 C277 1.282 . S
C280 O281 1.306 . S
C280 O283 1.160 . S
O281 C280 1.306 . S
O281 Cd282 2.228 . S
Cd282 O281 2.228 . S
Cd282 O286 2.273 . S
Cd282 O290 2.277 . S
O283 C280 1.160 . S
O283 Cd284 2.203 . S
Cd284 O283 2.203 . S
Cd284 O286 2.411 . S
Cd284 O287 2.333 . S
Cd284 O288 2.352 1_554 S
Cd284 O292 2.277 . S
Cd284 O293 2.356 . S
C285 O290 1.209 . S
C285 O292 1.226 . S
O286 Cd282 2.273 . S
O286 Cd284 2.411 . S
O286 C289 1.320 . S
O287 Cd284 2.333 . S
O287 C289 1.214 . S
O288 Cd284 2.352 1_556 S
O288 C291 1.258 . S
C289 O286 1.320 . S
C289 O287 1.214 . S
O290 Cd282 2.277 . S
O290 C285 1.209 . S
C291 O288 1.258 . S
C291 O293 1.282 1_556 S
O292 Cd284 2.277 . S
O292 C285 1.226 . S
O293 Cd284 2.356 . S
O293 C291 1.282 1_554 S
C294 O295 1.306 . S
C294 O297 1.160 . S
O295 C294 1.306 . S
O295 Cd296 2.228 . S
Cd296 O295 2.228 . S
Cd296 O300 2.273 . S
Cd296 O304 2.277 . S
O297 C294 1.160 . S
O297 Cd298 2.203 . S
Cd298 O297 2.203 . S
Cd298 O300 2.411 . S
Cd298 O301 2.333 . S
Cd298 O302 2.352 . S
Cd298 O306 2.277 . S
Cd298 O307 2.356 . S
C299 O304 1.209 . S
C299 O306 1.226 . S
O300 Cd296 2.273 . S
O300 Cd298 2.411 . S
O300 C303 1.320 . S
O301 Cd298 2.333 . S
O301 C303 1.214 . S
O302 Cd298 2.352 . S
O302 C305 1.258 . S
C303 O300 1.320 . S
C303 O301 1.214 . S
O304 Cd296 2.277 . S
O304 C299 1.209 . S
C305 O302 1.258 . S
C305 O307 1.282 . S
O306 Cd298 2.277 . S
O306 C299 1.226 . S
O307 Cd298 2.356 . S
O307 C305 1.282 . S
C308 O309 1.306 . S
C308 O311 1.160 . S
O309 C308 1.306 . S
O309 Cd310 2.228 . S
Cd310 O309 2.228 . S
Cd310 O314 2.273 . S
Cd310 O318 2.277 . S
O311 C308 1.160 . S
O311 Cd312 2.203 . S
Cd312 O311 2.203 . S
Cd312 O314 2.411 . S
Cd312 O315 2.333 . S
Cd312 O316 2.352 . S
Cd312 O320 2.277 . S
Cd312 O321 2.356 . S
C313 O318 1.209 . S
C313 O320 1.226 . S
O314 Cd310 2.273 . S
O314 Cd312 2.411 . S
O314 C317 1.320 . S
O315 Cd312 2.333 . S
O315 C317 1.214 . S
O316 Cd312 2.352 . S
O316 C319 1.258 . S
C317 O314 1.320 . S
C317 O315 1.214 . S
O318 Cd310 2.277 . S
O318 C313 1.209 . S
C319 O316 1.258 . S
C319 O321 1.282 . S
O320 Cd312 2.277 . S
O320 C313 1.226 . S
O321 Cd312 2.356 . S
O321 C319 1.282 . S
C322 O323 1.306 . S
C322 O325 1.160 . S
O323 C322 1.306 . S
O323 Cd324 2.228 . S
Cd324 O323 2.228 . S
Cd324 O328 2.273 . S
Cd324 O332 2.277 . S
O325 C322 1.160 . S
O325 Cd326 2.203 . S
Cd326 O325 2.203 . S
Cd326 O328 2.411 . S
Cd326 O329 2.333 . S
Cd326 O330 2.352 . S
Cd326 O334 2.277 . S
Cd326 O335 2.356 . S
C327 O332 1.209 . S
C327 O334 1.226 . S
O328 Cd324 2.273 . S
O328 Cd326 2.411 . S
O328 C331 1.320 . S
O329 Cd326 2.333 . S
O329 C331 1.214 . S
O330 Cd326 2.352 . S
O330 C333 1.258 . S
C331 O328 1.320 . S
C331 O329 1.214 . S
O332 Cd324 2.277 . S
O332 C327 1.209 . S
C333 O330 1.258 . S
C333 O335 1.282 . S
O334 Cd326 2.277 . S
O334 C327 1.226 . S
O335 Cd326 2.356 . S
O335 C333 1.282 . S
Tb336 C345 2.764 . S
Tb336 O346 2.325 . S
Tb336 O349 2.303 . S
Tb336 O353 2.322 . S
Tb336 O354 2.349 . S
Tb336 O357 2.415 . S
Tb336 O358 2.399 . S
Tb337 O347 2.322 1_545 S
Tb337 O348 2.349 1_554 S
Tb337 O350 2.415 1_455 S
Tb337 O351 2.399 1_454 S
Tb337 O352 2.325 . S
Tb337 O355 2.303 . S
Tb337 C366 2.764 1_455 S
C338 O354 1.261 . S
C338 O355 1.257 . S
C339 C342 1.358 . S
C339 C343 1.332 . S
C339 C345 1.504 . S
C340 C341 1.373 . S
C340 C344 1.308 . S
C341 C340 1.373 . S
C341 C342 1.429 . S
C341 H368 0.932 . S
C342 C339 1.358 . S
C342 C341 1.429 . S
C342 H369 0.930 . S
C343 C339 1.332 . S
C343 C344 1.394 . S
C343 H370 0.932 . S
C344 C340 1.308 . S
C344 C343 1.394 . S
C344 H371 0.929 . S
C345 Tb336 2.764 . S
C345 C339 1.504 . S
C345 O357 1.239 . S
C345 O358 1.263 . S
O346 Tb336 2.325 . S
O346 C356 1.236 1_545 S
O347 Tb337 2.322 1_565 S
O347 C356 1.257 . S
O348 Tb337 2.349 1_556 S
O348 C359 1.261 . S
O349 Tb336 2.303 . S
O349 C359 1.257 1_554 S
O350 Tb337 2.415 1_655 S
O350 C366 1.239 . S
O351 Tb337 2.399 1_656 S
O351 C366 1.263 1_556 S
O352 Tb337 2.325 . S
O352 C367 1.236 . S
O353 Tb336 2.322 . S
O353 C367 1.257 . S
O354 Tb336 2.349 . S
O354 C338 1.261 . S
O355 Tb337 2.303 . S
O355 C338 1.257 . S
C356 O346 1.236 1_565 S
C356 O347 1.257 . S
O357 Tb336 2.415 . S
O357 C345 1.239 . S
O358 Tb336 2.399 . S
O358 C345 1.263 . S
C359 O348 1.261 . S
C359 O349 1.257 1_556 S
C360 C363 1.358 1_554 S
C360 C364 1.332 . S
C360 C366 1.504 . S
C361 C362 1.373 1_554 S
C361 C365 1.308 . S
C362 C361 1.373 1_556 S
C362 C363 1.429 . S
C362 H372 0.932 . S
C363 C360 1.358 1_556 S
C363 C362 1.429 . S
C363 H373 0.930 . S
C364 C360 1.332 . S
C364 C365 1.394 . S
C364 H374 0.932 . S
C365 C361 1.308 . S
C365 C364 1.394 . S
C365 H375 0.929 . S
C366 Tb337 2.764 1_655 S
C366 O350 1.239 . S
C366 O351 1.263 1_554 S
C366 C360 1.504 . S
C367 O352 1.236 . S
C367 O353 1.257 . S
H368 C341 0.932 . S
H369 C342 0.930 . S
H370 C343 0.932 . S
H371 C344 0.929 . S
H372 C362 0.932 . S
H373 C363 0.930 . S
H374 C364 0.932 . S
H375 C365 0.929 . S
Tb376 C385 2.764 . S
Tb376 O386 2.325 . S
Tb376 O389 2.303 . S
Tb376 O393 2.322 . S
Tb376 O394 2.349 . S
Tb376 O397 2.415 . S
Tb376 O398 2.399 . S
Tb377 O387 2.322 . S
Tb377 O388 2.349 . S
Tb377 O390 2.415 . S
Tb377 O391 2.399 . S
Tb377 O392 2.325 . S
Tb377 O395 2.303 . S
Tb377 C406 2.764 . S
C378 O394 1.261 . S
C378 O395 1.257 . S
C379 C382 1.358 . S
C379 C383 1.332 . S
C379 C385 1.504 . S
C380 C381 1.373 . S
C380 C384 1.308 . S
C381 C380 1.373 . S
C381 C382 1.429 . S
C381 H408 0.932 . S
C382 C379 1.358 . S
C382 C381 1.429 . S
C382 H409 0.930 . S
C383 C379 1.332 . S
C383 C384 1.394 . S
C383 H410 0.932 . S
C384 C380 1.308 . S
C384 C383 1.394 . S
C384 H411 0.929 . S
C385 Tb376 2.764 . S
C385 C379 1.504 . S
C385 O397 1.239 . S
C385 O398 1.263 . S
O386 Tb376 2.325 . S
O386 C396 1.236 . S
O387 Tb377 2.322 . S
O387 C396 1.257 . S
O388 Tb377 2.349 . S
O388 C399 1.261 . S
O389 Tb376 2.303 . S
O389 C399 1.257 . S
O390 Tb377 2.415 . S
O390 C406 1.239 . S
O391 Tb377 2.399 . S
O391 C406 1.263 . S
O392 Tb377 2.325 . S
O392 C407 1.236 . S
O393 Tb376 2.322 . S
O393 C407 1.257 . S
O394 Tb376 2.349 . S
O394 C378 1.261 . S
O395 Tb377 2.303 . S
O395 C378 1.257 . S
C396 O386 1.236 . S
C396 O387 1.257 . S
O397 Tb376 2.415 . S
O397 C385 1.239 . S
O398 Tb376 2.399 . S
O398 C385 1.263 . S
C399 O388 1.261 . S
C399 O389 1.257 . S
C400 C403 1.358 . S
C400 C404 1.332 . S
C400 C406 1.504 . S
C401 C402 1.373 . S
C401 C405 1.308 . S
C402 C401 1.373 . S
C402 C403 1.429 . S
C402 H412 0.932 . S
C403 C400 1.358 . S
C403 C402 1.429 . S
C403 H413 0.930 . S
C404 C400 1.332 . S
C404 C405 1.394 . S
C404 H414 0.932 . S
C405 C401 1.308 . S
C405 C404 1.394 . S
C405 H415 0.929 . S
C406 Tb377 2.764 . S
C406 O390 1.239 . S
C406 O391 1.263 . S
C406 C400 1.504 . S
C407 O392 1.236 . S
C407 O393 1.257 . S
H408 C381 0.932 . S
H409 C382 0.930 . S
H410 C383 0.932 . S
H411 C384 0.929 . S
H412 C402 0.932 . S
H413 C403 0.930 . S
H414 C404 0.932 . S
H415 C405 0.929 . S
Tb416 C425 2.764 . S
Tb416 O426 2.325 . S
Tb416 O429 2.303 . S
Tb416 O433 2.322 1_545 S
Tb416 O434 2.349 . S
Tb416 O437 2.415 . S
Tb416 O438 2.399 . S
Tb417 O427 2.322 . S
Tb417 O428 2.349 . S
Tb417 O430 2.415 . S
Tb417 O431 2.399 . S
Tb417 O432 2.325 1_545 S
Tb417 O435 2.303 . S
Tb417 C446 2.764 . S
C418 O434 1.261 . S
C418 O435 1.257 . S
C419 C422 1.358 . S
C419 C423 1.332 . S
C419 C425 1.504 . S
C420 C421 1.373 . S
C420 C424 1.308 . S
C421 C420 1.373 . S
C421 C422 1.429 . S
C421 H448 0.932 . S
C422 C419 1.358 . S
C422 C421 1.429 . S
C422 H449 0.930 . S
C423 C419 1.332 . S
C423 C424 1.394 . S
C423 H450 0.932 . S
C424 C420 1.308 . S
C424 C423 1.394 . S
C424 H451 0.929 . S
C425 Tb416 2.764 . S
C425 C419 1.504 . S
C425 O437 1.239 . S
C425 O438 1.263 . S
O426 Tb416 2.325 . S
O426 C436 1.236 . S
O427 Tb417 2.322 . S
O427 C436 1.257 . S
O428 Tb417 2.349 . S
O428 C439 1.261 . S
O429 Tb416 2.303 . S
O429 C439 1.257 . S
O430 Tb417 2.415 . S
O430 C446 1.239 . S
O431 Tb417 2.399 . S
O431 C446 1.263 . S
O432 Tb417 2.325 1_565 S
O432 C447 1.236 . S
O433 Tb416 2.322 1_565 S
O433 C447 1.257 . S
O434 Tb416 2.349 . S
O434 C418 1.261 . S
O435 Tb417 2.303 . S
O435 C418 1.257 . S
C436 O426 1.236 . S
C436 O427 1.257 . S
O437 Tb416 2.415 . S
O437 C425 1.239 . S
O438 Tb416 2.399 . S
O438 C425 1.263 . S
C439 O428 1.261 . S
C439 O429 1.257 . S
C440 C443 1.358 . S
C440 C444 1.332 1_545 S
C440 C446 1.504 . S
C441 C442 1.373 . S
C441 C445 1.308 . S
C442 C441 1.373 . S
C442 C443 1.429 1_565 S
C442 H452 0.932 . S
C443 C440 1.358 . S
C443 C442 1.429 1_545 S
C443 H453 0.930 . S
C444 C440 1.332 1_565 S
C444 C445 1.394 . S
C444 H454 0.932 . S
C445 C441 1.308 . S
C445 C444 1.394 . S
C445 H455 0.929 . S
C446 Tb417 2.764 . S
C446 O430 1.239 . S
C446 O431 1.263 . S
C446 C440 1.504 . S
C447 O432 1.236 . S
C447 O433 1.257 . S
H448 C421 0.932 . S
H449 C422 0.930 . S
H450 C423 0.932 . S
H451 C424 0.929 . S
H452 C442 0.932 . S
H453 C443 0.930 . S
H454 C444 0.932 . S
H455 C445 0.929 . S
Tb456 C465 2.764 . S
Tb456 O466 2.325 . S
Tb456 O469 2.303 . S
Tb456 O473 2.322 . S
Tb456 O474 2.349 . S
Tb456 O477 2.415 . S
Tb456 O478 2.399 . S
Tb457 O467 2.322 . S
Tb457 O468 2.349 . S
Tb457 O470 2.415 . S
Tb457 O471 2.399 . S
Tb457 O472 2.325 . S
Tb457 O475 2.303 . S
Tb457 C486 2.764 . S
C458 O474 1.261 . S
C458 O475 1.257 . S
C459 C462 1.358 . S
C459 C463 1.332 . S
C459 C465 1.504 . S
C460 C461 1.373 . S
C460 C464 1.308 . S
C461 C460 1.373 . S
C461 C462 1.429 . S
C461 H488 0.932 . S
C462 C459 1.358 . S
C462 C461 1.429 . S
C462 H489 0.930 . S
C463 C459 1.332 . S
C463 C464 1.394 . S
C463 H490 0.932 . S
C464 C460 1.308 . S
C464 C463 1.394 . S
C464 H491 0.929 . S
C465 Tb456 2.764 . S
C465 C459 1.504 . S
C465 O477 1.239 . S
C465 O478 1.263 . S
O466 Tb456 2.325 . S
O466 C476 1.236 . S
O467 Tb457 2.322 . S
O467 C476 1.257 . S
O468 Tb457 2.349 . S
O468 C479 1.261 . S
O469 Tb456 2.303 . S
O469 C479 1.257 . S
O470 Tb457 2.415 . S
O470 C486 1.239 . S
O471 Tb457 2.399 . S
O471 C486 1.263 . S
O472 Tb457 2.325 . S
O472 C487 1.236 . S
O473 Tb456 2.322 . S
O473 C487 1.257 . S
O474 Tb456 2.349 . S
O474 C458 1.261 . S
O475 Tb457 2.303 . S
O475 C458 1.257 . S
C476 O466 1.236 . S
C476 O467 1.257 . S
O477 Tb456 2.415 . S
O477 C465 1.239 . S
O478 Tb456 2.399 . S
O478 C465 1.263 . S
C479 O468 1.261 . S
C479 O469 1.257 . S
C480 C483 1.358 . S
C480 C484 1.332 . S
C480 C486 1.504 . S
C481 C482 1.373 . S
C481 C485 1.308 . S
C482 C481 1.373 . S
C482 C483 1.429 . S
C482 H492 0.932 . S
C483 C480 1.358 . S
C483 C482 1.429 . S
C483 H493 0.930 . S
C484 C480 1.332 . S
C484 C485 1.394 . S
C484 H494 0.932 . S
C485 C481 1.308 . S
C485 C484 1.394 . S
C485 H495 0.929 . S
C486 Tb457 2.764 . S
C486 O470 1.239 . S
C486 O471 1.263 . S
C486 C480 1.504 . S
C487 O472 1.236 . S
C487 O473 1.257 . S
H488 C461 0.932 . S
H489 C462 0.930 . S
H490 C463 0.932 . S
H491 C464 0.929 . S
H492 C482 0.932 . S
H493 C483 0.930 . S
H494 C484 0.932 . S
H495 C485 0.929 . S
Tb496 C505 2.764 . S
Tb496 O506 2.325 . S
Tb496 O509 2.303 . S
Tb496 O513 2.322 . S
Tb496 O514 2.349 . S
Tb496 O517 2.415 . S
Tb496 O518 2.399 . S
Tb497 O507 2.322 1_545 S
Tb497 O508 2.349 . S
Tb497 O510 2.415 . S
Tb497 O511 2.399 . S
Tb497 O512 2.325 . S
Tb497 O515 2.303 . S
Tb497 C526 2.764 . S
C498 O514 1.260 . S
C498 O515 1.296 . S
C499 C502 1.358 . S
C499 C503 1.332 . S
C499 C505 1.504 . S
C500 C501 1.373 . S
C500 C504 1.308 . S
C501 C500 1.373 . S
C501 C502 1.429 . S
C501 H528 0.932 . S
C502 C499 1.358 . S
C502 C501 1.429 . S
C502 H529 0.930 . S
C503 C499 1.332 . S
C503 C504 1.394 . S
C503 H530 0.932 . S
C504 C500 1.308 . S
C504 C503 1.394 . S
C504 H531 0.929 . S
C505 Tb496 2.764 . S
C505 C499 1.504 . S
C505 O517 1.239 . S
C505 O518 1.263 . S
O506 Tb496 2.325 . S
O506 C516 1.225 1_545 S
O507 Tb497 2.322 1_565 S
O507 C516 1.256 . S
O508 Tb497 2.349 . S
O508 C519 1.261 . S
O509 Tb496 2.303 . S
O509 C519 1.257 . S
O510 Tb497 2.415 . S
O510 C526 1.239 . S
O511 Tb497 2.399 . S
O511 C526 1.263 . S
O512 Tb497 2.325 . S
O512 C527 1.236 . S
O513 Tb496 2.322 . S
O513 C527 1.257 . S
O514 Tb496 2.349 . S
O514 C498 1.260 . S
O515 Tb497 2.303 . S
O515 C498 1.296 . S
C516 O506 1.225 1_565 S
C516 O507 1.256 . S
O517 Tb496 2.415 . S
O517 C505 1.239 . S
O518 Tb496 2.399 . S
O518 C505 1.263 . S
C519 O508 1.261 . S
C519 O509 1.257 . S
C520 C523 1.358 . S
C520 C524 1.332 1_455 S
C520 C526 1.504 . S
C521 C522 1.373 . S
C521 C525 1.308 1_455 S
C522 C521 1.373 . S
C522 C523 1.429 . S
C522 H532 0.932 . S
C523 C520 1.358 . S
C523 C522 1.429 . S
C523 H533 0.930 . S
C524 C520 1.332 1_655 S
C524 C525 1.394 . S
C524 H534 0.932 . S
C525 C521 1.308 1_655 S
C525 C524 1.394 . S
C525 H535 0.929 . S
C526 Tb497 2.764 . S
C526 O510 1.239 . S
C526 O511 1.263 . S
C526 C520 1.504 . S
C527 O512 1.236 . S
C527 O513 1.257 . S
H528 C501 0.932 . S
H529 C502 0.930 . S
H530 C503 0.932 . S
H531 C504 0.929 . S
H532 C522 0.932 . S
H533 C523 0.930 . S
H534 C524 0.932 . S
H535 C525 0.929 . S
Tb536 C545 2.764 . S
Tb536 O546 2.325 . S
Tb536 O549 2.303 . S
Tb536 O553 2.322 . S
Tb536 O554 2.349 . S
Tb536 O557 2.415 . S
Tb536 O558 2.399 . S
Tb537 O547 2.322 . S
Tb537 O548 2.349 . S
Tb537 O550 2.415 . S
Tb537 O551 2.399 . S
Tb537 O552 2.325 . S
Tb537 O555 2.303 . S
Tb537 C566 2.764 . S
C538 O554 1.261 . S
C538 O555 1.257 . S
C539 C542 1.358 . S
C539 C543 1.332 . S
C539 C545 1.504 . S
C540 C541 1.373 . S
C540 C544 1.308 . S
C541 C540 1.373 . S
C541 C542 1.429 . S
C541 H568 0.932 . S
C542 C539 1.358 . S
C542 C541 1.429 . S
C542 H569 0.930 . S
C543 C539 1.332 . S
C543 C544 1.394 . S
C543 H570 0.932 . S
C544 C540 1.308 . S
C544 C543 1.394 . S
C544 H571 0.929 . S
C545 Tb536 2.764 . S
C545 C539 1.504 . S
C545 O557 1.239 . S
C545 O558 1.263 . S
O546 Tb536 2.325 . S
O546 C556 1.236 . S
O547 Tb537 2.322 . S
O547 C556 1.257 . S
O548 Tb537 2.349 . S
O548 C559 1.261 . S
O549 Tb536 2.303 . S
O549 C559 1.257 . S
O550 Tb537 2.415 . S
O550 C566 1.239 . S
O551 Tb537 2.399 . S
O551 C566 1.263 . S
O552 Tb537 2.325 . S
O552 C567 1.236 . S
O553 Tb536 2.322 . S
O553 C567 1.257 . S
O554 Tb536 2.349 . S
O554 C538 1.261 . S
O555 Tb537 2.303 . S
O555 C538 1.257 . S
C556 O546 1.236 . S
C556 O547 1.257 . S
O557 Tb536 2.415 . S
O557 C545 1.239 . S
O558 Tb536 2.399 . S
O558 C545 1.263 . S
C559 O548 1.261 . S
C559 O549 1.257 . S
C560 C563 1.358 . S
C560 C564 1.332 . S
C560 C566 1.504 . S
C561 C562 1.373 . S
C561 C565 1.308 . S
C562 C561 1.373 . S
C562 C563 1.429 . S
C562 H572 0.932 . S
C563 C560 1.358 . S
C563 C562 1.429 . S
C563 H573 0.930 . S
C564 C560 1.332 . S
C564 C565 1.394 . S
C564 H574 0.932 . S
C565 C561 1.308 . S
C565 C564 1.394 . S
C565 H575 0.929 . S
C566 Tb537 2.764 . S
C566 O550 1.239 . S
C566 O551 1.263 . S
C566 C560 1.504 . S
C567 O552 1.236 . S
C567 O553 1.257 . S
H568 C541 0.932 . S
H569 C542 0.930 . S
H570 C543 0.932 . S
H571 C544 0.929 . S
H572 C562 0.932 . S
H573 C563 0.930 . S
H574 C564 0.932 . S
H575 C565 0.929 . S
Tb576 C585 2.764 . S
Tb576 O586 2.325 . S
Tb576 O589 2.303 . S
Tb576 O593 2.322 1_545 S
Tb576 O594 2.349 . S
Tb576 O597 2.415 . S
Tb576 O598 2.399 . S
Tb577 O587 2.322 . S
Tb577 O588 2.349 . S
Tb577 O590 2.415 1_554 S
Tb577 O591 2.399 1_554 S
Tb577 O592 2.325 . S
Tb577 O595 2.303 . S
Tb577 C606 2.764 1_554 S
C578 O594 1.261 . S
C578 O595 1.257 . S
C579 C582 1.358 . S
C579 C583 1.332 . S
C579 C585 1.504 . S
C580 C581 1.373 . S
C580 C584 1.308 . S
C581 C580 1.373 . S
C581 C582 1.429 . S
C581 H608 0.932 . S
C582 C579 1.358 . S
C582 C581 1.429 . S
C582 H609 0.930 . S
C583 C579 1.332 . S
C583 C584 1.394 . S
C583 H610 0.932 . S
C584 C580 1.308 . S
C584 C583 1.394 . S
C584 H611 0.929 . S
C585 Tb576 2.764 . S
C585 C579 1.504 . S
C585 O597 1.239 . S
C585 O598 1.263 . S
O586 Tb576 2.325 . S
O586 C596 1.236 . S
O587 Tb577 2.322 . S
O587 C596 1.257 . S
O588 Tb577 2.349 . S
O588 C599 1.261 . S
O589 Tb576 2.303 . S
O589 C599 1.257 . S
O590 Tb577 2.415 1_556 S
O590 C606 1.239 . S
O591 Tb577 2.399 1_556 S
O591 C606 1.263 . S
O592 Tb577 2.325 . S
O592 C607 1.235 1_545 S
O593 Tb576 2.322 1_565 S
O593 C607 1.257 . S
O594 Tb576 2.349 . S
O594 C578 1.261 . S
O595 Tb577 2.303 . S
O595 C578 1.257 . S
C596 O586 1.236 . S
C596 O587 1.257 . S
O597 Tb576 2.415 . S
O597 C585 1.239 . S
O598 Tb576 2.399 . S
O598 C585 1.263 . S
C599 O588 1.261 . S
C599 O589 1.257 . S
C600 C603 1.358 . S
C600 C604 1.332 . S
C600 C606 1.504 . S
C601 C602 1.373 . S
C601 C605 1.308 . S
C602 C601 1.373 . S
C602 C603 1.429 . S
C602 H612 0.932 . S
C603 C600 1.358 . S
C603 C602 1.429 . S
C603 H613 0.930 . S
C604 C600 1.332 . S
C604 C605 1.394 . S
C604 H614 0.932 . S
C605 C601 1.308 . S
C605 C604 1.394 . S
C605 H615 0.929 . S
C606 Tb577 2.764 1_556 S
C606 O590 1.239 . S
C606 O591 1.263 . S
C606 C600 1.504 . S
C607 O592 1.235 1_565 S
C607 O593 1.257 . S
H608 C581 0.932 . S
H609 C582 0.930 . S
H610 C583 0.932 . S
H611 C584 0.929 . S
H612 C602 0.932 . S
H613 C603 0.930 . S
H614 C604 0.932 . S
H615 C605 0.929 . S
Tb616 C625 2.764 . S
Tb616 O626 2.325 . S
Tb616 O629 2.303 . S
Tb616 O633 2.322 . S
Tb616 O634 2.349 . S
Tb616 O637 2.415 . S
Tb616 O638 2.399 . S
Tb617 O627 2.322 . S
Tb617 O628 2.349 . S
Tb617 O630 2.415 . S
Tb617 O631 2.399 . S
Tb617 O632 2.325 . S
Tb617 O635 2.303 . S
Tb617 C646 2.764 . S
C618 O634 1.261 . S
C618 O635 1.257 . S
C619 C622 1.358 . S
C619 C623 1.332 . S
C619 C625 1.504 . S
C620 C621 1.373 . S
C620 C624 1.308 . S
C621 C620 1.373 . S
C621 C622 1.429 . S
C621 H648 0.932 . S
C622 C619 1.358 . S
C622 C621 1.429 . S
C622 H649 0.930 . S
C623 C619 1.332 . S
C623 C624 1.394 . S
C623 H650 0.932 . S
C624 C620 1.308 . S
C624 C623 1.394 . S
C624 H651 0.929 . S
C625 Tb616 2.764 . S
C625 C619 1.504 . S
C625 O637 1.239 . S
C625 O638 1.263 . S
O626 Tb616 2.325 . S
O626 C636 1.236 . S
O627 Tb617 2.322 . S
O627 C636 1.257 . S
O628 Tb617 2.349 . S
O628 C639 1.261 . S
O629 Tb616 2.303 . S
O629 C639 1.257 . S
O630 Tb617 2.415 . S
O630 C646 1.239 . S
O631 Tb617 2.399 . S
O631 C646 1.263 . S
O632 Tb617 2.325 . S
O632 C647 1.236 . S
O633 Tb616 2.322 . S
O633 C647 1.257 . S
O634 Tb616 2.349 . S
O634 C618 1.261 . S
O635 Tb617 2.303 . S
O635 C618 1.257 . S
C636 O626 1.236 . S
C636 O627 1.257 . S
O637 Tb616 2.415 . S
O637 C625 1.239 . S
O638 Tb616 2.399 . S
O638 C625 1.263 . S
C639 O628 1.261 . S
C639 O629 1.257 . S
C640 C643 1.358 . S
C640 C644 1.332 . S
C640 C646 1.504 . S
C641 C642 1.373 . S
C641 C645 1.308 . S
C642 C641 1.373 . S
C642 C643 1.429 . S
C642 H652 0.932 . S
C643 C640 1.358 . S
C643 C642 1.429 . S
C643 H653 0.930 . S
C644 C640 1.332 . S
C644 C645 1.394 . S
C644 H654 0.932 . S
C645 C641 1.308 . S
C645 C644 1.394 . S
C645 H655 0.929 . S
C646 Tb617 2.764 . S
C646 O630 1.239 . S
C646 O631 1.263 . S
C646 C640 1.504 . S
C647 O632 1.236 . S
C647 O633 1.257 . S
H648 C621 0.932 . S
H649 C622 0.930 . S
H650 C623 0.932 . S
H651 C624 0.929 . S
H652 C642 0.932 . S
H653 C643 0.930 . S
H654 C644 0.932 . S
H655 C645 0.929 . S
Tb656 C665 2.764 . S
Tb656 O666 2.325 . S
Tb656 O669 2.303 . S
Tb656 O673 2.322 . S
Tb656 O674 2.349 . S
Tb656 O677 2.415 . S
Tb656 O678 2.399 . S
Tb657 O667 2.322 . S
Tb657 O668 2.349 . S
Tb657 O670 2.415 1_554 S
Tb657 O671 2.399 1_554 S
Tb657 O672 2.325 . S
Tb657 O675 2.303 . S
Tb657 C686 2.764 1_554 S
C658 O674 1.261 . S
C658 O675 1.257 . S
C659 C662 1.358 . S
C659 C663 1.332 . S
C659 C665 1.504 . S
C660 C661 1.373 . S
C660 C664 1.308 . S
C661 C660 1.373 . S
C661 C662 1.429 . S
C661 H688 0.932 . S
C662 C659 1.358 . S
C662 C661 1.429 . S
C662 H689 0.930 . S
C663 C659 1.332 . S
C663 C664 1.394 . S
C663 H690 0.932 . S
C664 C660 1.308 . S
C664 C663 1.394 . S
C664 H691 0.929 . S
C665 Tb656 2.764 . S
C665 C659 1.504 . S
C665 O677 1.239 . S
C665 O678 1.263 . S
O666 Tb656 2.325 . S
O666 C676 1.236 . S
O667 Tb657 2.322 . S
O667 C676 1.257 . S
O668 Tb657 2.349 . S
O668 C679 1.261 . S
O669 Tb656 2.303 . S
O669 C679 1.257 . S
O670 Tb657 2.415 1_556 S
O670 C686 1.239 . S
O671 Tb657 2.399 1_556 S
O671 C686 1.263 . S
O672 Tb657 2.325 . S
O672 C687 1.236 . S
O673 Tb656 2.322 . S
O673 C687 1.257 . S
O674 Tb656 2.349 . S
O674 C658 1.261 . S
O675 Tb657 2.303 . S
O675 C658 1.257 . S
C676 O666 1.236 . S
C676 O667 1.257 . S
O677 Tb656 2.415 . S
O677 C665 1.239 . S
O678 Tb656 2.399 . S
O678 C665 1.263 . S
C679 O668 1.261 . S
C679 O669 1.257 . S
C680 C683 1.358 . S
C680 C684 1.332 . S
C680 C686 1.504 . S
C681 C682 1.373 . S
C681 C685 1.308 . S
C682 C681 1.373 . S
C682 C683 1.429 . S
C682 H692 0.932 . S
C683 C680 1.358 . S
C683 C682 1.429 . S
C683 H693 0.930 . S
C684 C680 1.332 . S
C684 C685 1.394 . S
C684 H694 0.932 . S
C685 C681 1.308 . S
C685 C684 1.394 . S
C685 H695 0.929 . S
C686 Tb657 2.764 1_556 S
C686 O670 1.239 . S
C686 O671 1.263 . S
C686 C680 1.504 . S
C687 O672 1.236 . S
C687 O673 1.257 . S
H688 C661 0.932 . S
H689 C662 0.930 . S
H690 C663 0.932 . S
H691 C664 0.929 . S
H692 C682 0.932 . S
H693 C683 0.930 . S
H694 C684 0.932 . S
H695 C685 0.929 . S
Tb696 C705 2.764 . S
Tb696 O706 2.325 . S
Tb696 O709 2.303 . S
Tb696 O713 2.322 . S
Tb696 O714 2.349 . S
Tb696 O717 2.415 . S
Tb696 O718 2.399 . S
Tb697 O707 2.322 . S
Tb697 O708 2.349 . S
Tb697 O710 2.415 . S
Tb697 O711 2.399 . S
Tb697 O712 2.325 . S
Tb697 O715 2.303 . S
Tb697 C726 2.764 . S
C698 O714 1.261 . S
C698 O715 1.257 . S
C699 C702 1.358 . S
C699 C703 1.332 . S
C699 C705 1.504 . S
C700 C701 1.373 . S
C700 C704 1.308 . S
C701 C700 1.373 . S
C701 C702 1.429 . S
C701 H728 0.932 . S
C702 C699 1.358 . S
C702 C701 1.429 . S
C702 H729 0.930 . S
C703 C699 1.332 . S
C703 C704 1.394 . S
C703 H730 0.932 . S
C704 C700 1.308 . S
C704 C703 1.394 . S
C704 H731 0.929 . S
C705 Tb696 2.764 . S
C705 C699 1.504 . S
C705 O717 1.239 . S
C705 O718 1.263 . S
O706 Tb696 2.325 . S
O706 C716 1.236 . S
O707 Tb697 2.322 . S
O707 C716 1.257 . S
O708 Tb697 2.349 . S
O708 C719 1.261 . S
O709 Tb696 2.303 . S
O709 C719 1.257 . S
O710 Tb697 2.415 . S
O710 C726 1.239 . S
O711 Tb697 2.399 . S
O711 C726 1.263 . S
O712 Tb697 2.325 . S
O712 C727 1.236 . S
O713 Tb696 2.322 . S
O713 C727 1.257 . S
O714 Tb696 2.349 . S
O714 C698 1.261 . S
O715 Tb697 2.303 . S
O715 C698 1.257 . S
C716 O706 1.236 . S
C716 O707 1.257 . S
O717 Tb696 2.415 . S
O717 C705 1.239 . S
O718 Tb696 2.399 . S
O718 C705 1.263 . S
C719 O708 1.261 . S
C719 O709 1.257 . S
C720 C723 1.358 . S
C720 C724 1.332 . S
C720 C726 1.504 . S
C721 C722 1.373 . S
C721 C725 1.308 . S
C722 C721 1.373 . S
C722 C723 1.429 . S
C722 H732 0.932 . S
C723 C720 1.358 . S
C723 C722 1.429 . S
C723 H733 0.930 . S
C724 C720 1.332 . S
C724 C725 1.394 . S
C724 H734 0.932 . S
C725 C721 1.308 . S
C725 C724 1.394 . S
C725 H735 0.929 . S
C726 Tb697 2.764 . S
C726 O710 1.239 . S
C726 O711 1.263 . S
C726 C720 1.504 . S
C727 O712 1.236 . S
C727 O713 1.257 . S
H728 C701 0.932 . S
H729 C702 0.930 . S
H730 C703 0.932 . S
H731 C704 0.929 . S
H732 C722 0.932 . S
H733 C723 0.930 . S
H734 C724 0.932 . S
H735 C725 0.929 . S
Tb736 C745 2.764 . S
Tb736 O746 2.325 . S
Tb736 O749 2.303 . S
Tb736 O753 2.322 . S
Tb736 O754 2.349 . S
Tb736 O757 2.415 . S
Tb736 O758 2.399 . S
Tb737 O747 2.322 . S
Tb737 O748 2.349 . S
Tb737 O750 2.415 . S
Tb737 O751 2.399 . S
Tb737 O752 2.325 . S
Tb737 O755 2.303 . S
Tb737 C766 2.764 . S
C738 O754 1.261 . S
C738 O755 1.257 . S
C739 C742 1.358 . S
C739 C743 1.330 1_455 S
C739 C745 1.504 . S
C740 C741 1.373 . S
C740 C744 1.308 1_455 S
C741 C740 1.373 . S
C741 C742 1.429 . S
C741 H768 0.932 . S
C742 C739 1.358 . S
C742 C741 1.429 . S
C742 H769 0.930 . S
C743 C739 1.330 1_655 S
C743 C744 1.395 . S
C743 H770 0.933 . S
C744 C740 1.308 1_655 S
C744 C743 1.395 . S
C744 H771 0.929 . S
C745 Tb736 2.764 . S
C745 C739 1.504 . S
C745 O757 1.239 . S
C745 O758 1.263 . S
O746 Tb736 2.325 . S
O746 C756 1.236 . S
O747 Tb737 2.322 . S
O747 C756 1.257 . S
O748 Tb737 2.349 . S
O748 C759 1.261 1_455 S
O749 Tb736 2.303 . S
O749 C759 1.257 1_455 S
O750 Tb737 2.415 . S
O750 C766 1.239 . S
O751 Tb737 2.399 . S
O751 C766 1.263 . S
O752 Tb737 2.325 . S
O752 C767 1.236 . S
O753 Tb736 2.322 . S
O753 C767 1.257 . S
O754 Tb736 2.349 . S
O754 C738 1.261 . S
O755 Tb737 2.303 . S
O755 C738 1.257 . S
C756 O746 1.236 . S
C756 O747 1.257 . S
O757 Tb736 2.415 . S
O757 C745 1.239 . S
O758 Tb736 2.399 . S
O758 C745 1.263 . S
C759 O748 1.261 1_655 S
C759 O749 1.257 1_655 S
C760 C763 1.358 . S
C760 C764 1.332 . S
C760 C766 1.504 . S
C761 C762 1.373 . S
C761 C765 1.308 . S
C762 C761 1.373 . S
C762 C763 1.429 . S
C762 H772 0.932 . S
C763 C760 1.358 . S
C763 C762 1.429 . S
C763 H773 0.930 . S
C764 C760 1.332 . S
C764 C765 1.394 . S
C764 H774 0.932 . S
C765 C761 1.308 . S
C765 C764 1.394 . S
C765 H775 0.929 . S
C766 Tb737 2.764 . S
C766 O750 1.239 . S
C766 O751 1.263 . S
C766 C760 1.504 . S
C767 O752 1.236 . S
C767 O753 1.257 . S
H768 C741 0.932 . S
H769 C742 0.930 . S
H770 C743 0.933 . S
H771 C744 0.929 . S
H772 C762 0.932 . S
H773 C763 0.930 . S
H774 C764 0.932 . S
H775 C765 0.929 . S
Tb776 C785 2.764 . S
Tb776 O786 2.325 . S
Tb776 O789 2.303 . S
Tb776 O793 2.322 . S
Tb776 O794 2.349 . S
Tb776 O797 2.415 . S
Tb776 O798 2.399 . S
Tb777 O787 2.322 . S
Tb777 O788 2.349 . S
Tb777 O790 2.415 . S
Tb777 O791 2.399 . S
Tb777 O792 2.325 . S
Tb777 O795 2.303 . S
Tb777 C806 2.764 . S
C778 O794 1.261 . S
C778 O795 1.257 . S
C779 C782 1.358 . S
C779 C783 1.332 . S
C779 C785 1.504 . S
C780 C781 1.373 . S
C780 C784 1.308 . S
C781 C780 1.373 . S
C781 C782 1.429 . S
C781 H808 0.932 . S
C782 C779 1.358 . S
C782 C781 1.429 . S
C782 H809 0.930 . S
C783 C779 1.332 . S
C783 C784 1.394 . S
C783 H810 0.932 . S
C784 C780 1.308 . S
C784 C783 1.394 . S
C784 H811 0.929 . S
C785 Tb776 2.764 . S
C785 C779 1.504 . S
C785 O797 1.239 . S
C785 O798 1.263 . S
O786 Tb776 2.325 . S
O786 C796 1.236 . S
O787 Tb777 2.322 . S
O787 C796 1.257 . S
O788 Tb777 2.349 . S
O788 C799 1.261 . S
O789 Tb776 2.303 . S
O789 C799 1.257 . S
O790 Tb777 2.415 . S
O790 C806 1.239 . S
O791 Tb777 2.399 . S
O791 C806 1.263 . S
O792 Tb777 2.325 . S
O792 C807 1.236 . S
O793 Tb776 2.322 . S
O793 C807 1.257 . S
O794 Tb776 2.349 . S
O794 C778 1.261 . S
O795 Tb777 2.303 . S
O795 C778 1.257 . S
C796 O786 1.236 . S
C796 O787 1.257 . S
O797 Tb776 2.415 . S
O797 C785 1.239 . S
O798 Tb776 2.399 . S
O798 C785 1.263 . S
C799 O788 1.261 . S
C799 O789 1.257 . S
C800 C803 1.358 . S
C800 C804 1.332 . S
C800 C806 1.504 . S
C801 C802 1.373 . S
C801 C805 1.308 . S
C802 C801 1.373 . S
C802 C803 1.429 . S
C802 H812 0.932 . S
C803 C800 1.358 . S
C803 C802 1.429 . S
C803 H813 0.930 . S
C804 C800 1.332 . S
C804 C805 1.394 . S
C804 H814 0.932 . S
C805 C801 1.308 . S
C805 C804 1.394 . S
C805 H815 0.929 . S
C806 Tb777 2.764 . S
C806 O790 1.239 . S
C806 O791 1.263 . S
C806 C800 1.504 . S
C807 O792 1.236 . S
C807 O793 1.257 . S
H808 C781 0.932 . S
H809 C782 0.930 . S
H810 C783 0.932 . S
H811 C784 0.929 . S
H812 C802 0.932 . S
H813 C803 0.930 . S
H814 C804 0.932 . S
H815 C805 0.929 . S
Tb816 C825 2.764 . S
Tb816 O826 2.325 . S
Tb816 O829 2.303 . S
Tb816 O833 2.322 . S
Tb816 O834 2.349 . S
Tb816 O837 2.415 . S
Tb816 O838 2.399 . S
Tb817 O827 2.322 . S
Tb817 O828 2.349 . S
Tb817 O830 2.415 . S
Tb817 O831 2.399 . S
Tb817 O832 2.325 . S
Tb817 O835 2.303 . S
Tb817 C846 2.764 . S
C818 O834 1.261 . S
C818 O835 1.257 . S
C819 C822 1.358 . S
C819 C823 1.332 . S
C819 C825 1.504 . S
C820 C821 1.373 . S
C820 C824 1.308 . S
C821 C820 1.373 . S
C821 C822 1.429 . S
C821 H848 0.932 . S
C822 C819 1.358 . S
C822 C821 1.429 . S
C822 H849 0.930 . S
C823 C819 1.332 . S
C823 C824 1.394 . S
C823 H850 0.932 . S
C824 C820 1.308 . S
C824 C823 1.394 . S
C824 H851 0.929 . S
C825 Tb816 2.764 . S
C825 C819 1.504 . S
C825 O837 1.239 . S
C825 O838 1.263 . S
O826 Tb816 2.325 . S
O826 C836 1.236 . S
O827 Tb817 2.322 . S
O827 C836 1.257 . S
O828 Tb817 2.349 . S
O828 C839 1.261 . S
O829 Tb816 2.303 . S
O829 C839 1.257 . S
O830 Tb817 2.415 . S
O830 C846 1.239 . S
O831 Tb817 2.399 . S
O831 C846 1.263 . S
O832 Tb817 2.325 . S
O832 C847 1.236 . S
O833 Tb816 2.322 . S
O833 C847 1.257 . S
O834 Tb816 2.349 . S
O834 C818 1.261 . S
O835 Tb817 2.303 . S
O835 C818 1.257 . S
C836 O826 1.236 . S
C836 O827 1.257 . S
O837 Tb816 2.415 . S
O837 C825 1.239 . S
O838 Tb816 2.399 . S
O838 C825 1.263 . S
C839 O828 1.261 . S
C839 O829 1.257 . S
C840 C843 1.358 . S
C840 C844 1.332 . S
C840 C846 1.504 . S
C841 C842 1.373 . S
C841 C845 1.308 . S
C842 C841 1.373 . S
C842 C843 1.429 . S
C842 H852 0.932 . S
C843 C840 1.358 . S
C843 C842 1.429 . S
C843 H853 0.930 . S
C844 C840 1.332 . S
C844 C845 1.394 . S
C844 H854 0.932 . S
C845 C841 1.308 . S
C845 C844 1.394 . S
C845 H855 0.929 . S
C846 Tb817 2.764 . S
C846 O830 1.239 . S
C846 O831 1.263 . S
C846 C840 1.504 . S
C847 O832 1.236 . S
C847 O833 1.257 . S
H848 C821 0.932 . S
H849 C822 0.930 . S
H850 C823 0.932 . S
H851 C824 0.929 . S
H852 C842 0.932 . S
H853 C843 0.930 . S
H854 C844 0.932 . S
H855 C845 0.929 . S
Tb856 C865 2.764 . S
Tb856 O866 2.325 . S
Tb856 O869 2.303 . S
Tb856 O873 2.322 . S
Tb856 O874 2.349 . S
Tb856 O877 2.415 . S
Tb856 O878 2.399 . S
Tb857 O867 2.322 . S
Tb857 O868 2.349 . S
Tb857 O870 2.415 . S
Tb857 O871 2.399 . S
Tb857 O872 2.325 . S
Tb857 O875 2.303 . S
Tb857 C886 2.764 . S
C858 O874 1.261 . S
C858 O875 1.257 . S
C859 C862 1.358 . S
C859 C863 1.332 . S
C859 C865 1.504 . S
C860 C861 1.373 . S
C860 C864 1.308 . S
C861 C860 1.373 . S
C861 C862 1.429 . S
C861 H888 0.932 . S
C862 C859 1.358 . S
C862 C861 1.429 . S
C862 H889 0.930 . S
C863 C859 1.332 . S
C863 C864 1.394 . S
C863 H890 0.932 . S
C864 C860 1.308 . S
C864 C863 1.394 . S
C864 H891 0.929 . S
C865 Tb856 2.764 . S
C865 C859 1.504 . S
C865 O877 1.239 . S
C865 O878 1.263 . S
O866 Tb856 2.325 . S
O866 C876 1.236 . S
O867 Tb857 2.322 . S
O867 C876 1.257 . S
O868 Tb857 2.349 . S
O868 C879 1.261 . S
O869 Tb856 2.303 . S
O869 C879 1.257 . S
O870 Tb857 2.415 . S
O870 C886 1.239 . S
O871 Tb857 2.399 . S
O871 C886 1.263 . S
O872 Tb857 2.325 . S
O872 C887 1.236 . S
O873 Tb856 2.322 . S
O873 C887 1.257 . S
O874 Tb856 2.349 . S
O874 C858 1.261 . S
O875 Tb857 2.303 . S
O875 C858 1.257 . S
C876 O866 1.236 . S
C876 O867 1.257 . S
O877 Tb856 2.415 . S
O877 C865 1.239 . S
O878 Tb856 2.399 . S
O878 C865 1.263 . S
C879 O868 1.261 . S
C879 O869 1.257 . S
C880 C883 1.358 . S
C880 C884 1.332 . S
C880 C886 1.504 . S
C881 C882 1.373 . S
C881 C885 1.308 . S
C882 C881 1.373 . S
C882 C883 1.429 . S
C882 H892 0.932 . S
C883 C880 1.358 . S
C883 C882 1.429 . S
C883 H893 0.930 . S
C884 C880 1.332 . S
C884 C885 1.394 . S
C884 H894 0.932 . S
C885 C881 1.308 . S
C885 C884 1.394 . S
C885 H895 0.929 . S
C886 Tb857 2.764 . S
C886 O870 1.239 . S
C886 O871 1.263 . S
C886 C880 1.504 . S
C887 O872 1.236 . S
C887 O873 1.257 . S
H888 C861 0.932 . S
H889 C862 0.930 . S
H890 C863 0.932 . S
H891 C864 0.929 . S
H892 C882 0.932 . S
H893 C883 0.930 . S
H894 C884 0.932 . S
H895 C885 0.929 . S
Tb896 C905 2.764 . S
Tb896 O906 2.325 . S
Tb896 O909 2.303 . S
Tb896 O913 2.322 . S
Tb896 O914 2.349 . S
Tb896 O917 2.415 . S
Tb896 O918 2.399 . S
Tb897 O907 2.322 . S
Tb897 O908 2.349 . S
Tb897 O910 2.415 . S
Tb897 O911 2.399 . S
Tb897 O912 2.325 . S
Tb897 O915 2.303 . S
Tb897 C926 2.764 . S
C898 O914 1.261 . S
C898 O915 1.257 . S
C899 C902 1.358 . S
C899 C903 1.332 . S
C899 C905 1.504 . S
C900 C901 1.373 . S
C900 C904 1.308 . S
C901 C900 1.373 . S
C901 C902 1.429 . S
C901 H928 0.932 . S
C902 C899 1.358 . S
C902 C901 1.429 . S
C902 H929 0.930 . S
C903 C899 1.332 . S
C903 C904 1.394 . S
C903 H930 0.932 . S
C904 C900 1.308 . S
C904 C903 1.394 . S
C904 H931 0.929 . S
C905 Tb896 2.764 . S
C905 C899 1.504 . S
C905 O917 1.239 . S
C905 O918 1.263 . S
O906 Tb896 2.325 . S
O906 C916 1.236 . S
O907 Tb897 2.322 . S
O907 C916 1.257 . S
O908 Tb897 2.349 . S
O908 C919 1.261 . S
O909 Tb896 2.303 . S
O909 C919 1.257 . S
O910 Tb897 2.415 . S
O910 C926 1.239 . S
O911 Tb897 2.399 . S
O911 C926 1.263 . S
O912 Tb897 2.325 . S
O912 C927 1.236 . S
O913 Tb896 2.322 . S
O913 C927 1.257 . S
O914 Tb896 2.349 . S
O914 C898 1.261 . S
O915 Tb897 2.303 . S
O915 C898 1.257 . S
C916 O906 1.236 . S
C916 O907 1.257 . S
O917 Tb896 2.415 . S
O917 C905 1.239 . S
O918 Tb896 2.399 . S
O918 C905 1.263 . S
C919 O908 1.261 . S
C919 O909 1.257 . S
C920 C923 1.358 . S
C920 C924 1.332 . S
C920 C926 1.504 . S
C921 C922 1.373 . S
C921 C925 1.308 . S
C922 C921 1.373 . S
C922 C923 1.429 . S
C922 H932 0.932 . S
C923 C920 1.358 . S
C923 C922 1.429 . S
C923 H933 0.930 . S
C924 C920 1.332 . S
C924 C925 1.394 . S
C924 H934 0.932 . S
C925 C921 1.308 . S
C925 C924 1.394 . S
C925 H935 0.929 . S
C926 Tb897 2.764 . S
C926 O910 1.239 . S
C926 O911 1.263 . S
C926 C920 1.504 . S
C927 O912 1.236 . S
C927 O913 1.257 . S
H928 C901 0.932 . S
H929 C902 0.930 . S
H930 C903 0.932 . S
H931 C904 0.929 . S
H932 C922 0.932 . S
H933 C923 0.930 . S
H934 C924 0.932 . S
H935 C925 0.929 . S
Tb936 C945 2.764 1_455 S
Tb936 O946 2.325 . S
Tb936 O949 2.303 . S
Tb936 O953 2.322 . S
Tb936 O954 2.349 . S
Tb936 O957 2.415 1_455 S
Tb936 O958 2.399 1_455 S
Tb937 O947 2.322 . S
Tb937 O948 2.349 1_554 S
Tb937 O950 2.415 . S
Tb937 O951 2.399 . S
Tb937 O952 2.325 . S
Tb937 O955 2.303 . S
Tb937 C966 2.764 . S
C938 O954 1.261 . S
C938 O955 1.257 . S
C939 C942 1.358 . S
C939 C943 1.332 . S
C939 C945 1.504 . S
C940 C941 1.373 . S
C940 C944 1.308 . S
C941 C940 1.373 . S
C941 C942 1.429 . S
C941 H968 0.932 . S
C942 C939 1.358 . S
C942 C941 1.429 . S
C942 H969 0.930 . S
C943 C939 1.332 . S
C943 C944 1.394 . S
C943 H970 0.932 . S
C944 C940 1.308 . S
C944 C943 1.394 . S
C944 H971 0.929 . S
C945 Tb936 2.764 1_655 S
C945 C939 1.504 . S
C945 O957 1.239 . S
C945 O958 1.263 . S
O946 Tb936 2.325 . S
O946 C956 1.236 . S
O947 Tb937 2.322 . S
O947 C956 1.257 . S
O948 Tb937 2.349 1_556 S
O948 C959 1.261 . S
O949 Tb936 2.303 . S
O949 C959 1.257 1_554 S
O950 Tb937 2.415 . S
O950 C966 1.239 . S
O951 Tb937 2.399 . S
O951 C966 1.263 . S
O952 Tb937 2.325 . S
O952 C967 1.236 . S
O953 Tb936 2.322 . S
O953 C967 1.257 . S
O954 Tb936 2.349 . S
O954 C938 1.261 . S
O955 Tb937 2.303 . S
O955 C938 1.257 . S
C956 O946 1.236 . S
C956 O947 1.257 . S
O957 Tb936 2.415 1_655 S
O957 C945 1.239 . S
O958 Tb936 2.399 1_655 S
O958 C945 1.263 . S
C959 O948 1.261 . S
C959 O949 1.257 1_556 S
C960 C963 1.358 1_554 S
C960 C964 1.332 . S
C960 C966 1.504 . S
C961 C962 1.373 1_554 S
C961 C965 1.308 . S
C962 C961 1.373 1_556 S
C962 C963 1.429 . S
C962 H972 0.932 . S
C963 C960 1.358 1_556 S
C963 C962 1.429 . S
C963 H973 0.930 . S
C964 C960 1.332 . S
C964 C965 1.394 . S
C964 H974 0.932 . S
C965 C961 1.308 . S
C965 C964 1.394 . S
C965 H975 0.929 . S
C966 Tb937 2.764 . S
C966 O950 1.239 . S
C966 O951 1.263 . S
C966 C960 1.504 . S
C967 O952 1.236 . S
C967 O953 1.257 . S
H968 C941 0.932 . S
H969 C942 0.930 . S
H970 C943 0.932 . S
H971 C944 0.929 . S
H972 C962 0.932 . S
H973 C963 0.930 . S
H974 C964 0.932 . S
H975 C965 0.929 . S
H976 C982 0.930 . S
H977 C985 0.930 . S
H978 C986 0.930 . S
H979 C987 0.930 . S
H980 C990 0.930 1_655 S
H981 C991 0.930 . S
C982 H976 0.930 . S
C982 C983 1.355 1_655 S
C982 C984 1.415 1_655 S
C983 C982 1.355 1_455 S
C983 C985 1.419 . S
C984 C982 1.415 1_455 S
C984 C989 1.425 1_556 S
C984 C991 1.409 1_456 S
C985 H977 0.930 . S
C985 C983 1.419 . S
C985 C986 1.362 . S
C986 H978 0.930 . S
C986 C985 1.362 . S
C986 C989 1.409 1_556 S
C987 H979 0.930 . S
C987 C988 1.355 . S
C987 C989 1.415 . S
C988 C987 1.355 . S
C988 C990 1.419 . S
C989 C984 1.425 1_554 S
C989 C986 1.409 1_554 S
C989 C987 1.415 . S
C990 H980 0.930 1_455 S
C990 C988 1.419 . S
C990 C991 1.362 1_455 S
C991 H981 0.930 . S
C991 C984 1.409 1_654 S
C991 C990 1.362 1_655 S
H992 C998 0.930 . S
H993 C1001 0.930 . S
H994 C1002 0.930 . S
H995 C1003 0.930 . S
H996 C1006 0.930 . S
H997 C1007 0.930 . S
C998 H992 0.930 . S
C998 C999 1.355 . S
C998 C1000 1.415 . S
C999 C998 1.355 . S
C999 C1001 1.419 . S
C1000 C998 1.415 . S
C1000 C1005 1.425 . S
C1000 C1007 1.409 . S
C1001 H993 0.930 . S
C1001 C999 1.419 . S
C1001 C1002 1.362 . S
C1002 H994 0.930 . S
C1002 C1001 1.362 . S
C1002 C1005 1.409 . S
C1003 H995 0.930 . S
C1003 C1004 1.355 . S
C1003 C1005 1.415 . S
C1004 C1003 1.355 . S
C1004 C1006 1.419 . S
C1005 C1000 1.425 . S
C1005 C1002 1.409 . S
C1005 C1003 1.415 . S
C1006 H996 0.930 . S
C1006 C1004 1.419 . S
C1006 C1007 1.362 . S
C1007 H997 0.930 . S
C1007 C1000 1.409 . S
C1007 C1006 1.362 . S
H1008 C1014 0.930 . S
H1009 C1017 0.930 . S
H1010 C1018 0.930 . S
H1011 C1019 0.930 . S
H1012 C1022 0.930 . S
H1013 C1023 0.930 . S
C1014 H1008 0.930 . S
C1014 C1015 1.355 . S
C1014 C1016 1.415 . S
C1015 C1014 1.355 . S
C1015 C1017 1.419 . S
C1016 C1014 1.415 . S
C1016 C1021 1.425 . S
C1016 C1023 1.409 . S
C1017 H1009 0.930 . S
C1017 C1015 1.419 . S
C1017 C1018 1.362 . S
C1018 H1010 0.930 . S
C1018 C1017 1.362 . S
C1018 C1021 1.409 . S
C1019 H1011 0.930 . S
C1019 C1020 1.355 . S
C1019 C1021 1.415 . S
C1020 C1019 1.355 . S
C1020 C1022 1.419 . S
C1021 C1016 1.425 . S
C1021 C1018 1.409 . S
C1021 C1019 1.415 . S
C1022 H1012 0.930 . S
C1022 C1020 1.419 . S
C1022 C1023 1.362 . S
C1023 H1013 0.930 . S
C1023 C1016 1.409 . S
C1023 C1022 1.362 . S
H1024 C1030 0.930 . S
H1025 C1033 0.930 . S
H1026 C1034 0.930 . S
H1027 C1035 0.930 . S
H1028 C1038 0.930 . S
H1029 C1039 0.930 . S
C1030 H1024 0.930 . S
C1030 C1031 1.355 . S
C1030 C1032 1.415 . S
C1031 C1030 1.355 . S
C1031 C1033 1.419 . S
C1032 C1030 1.415 . S
C1032 C1037 1.425 . S
C1032 C1039 1.409 . S
C1033 H1025 0.930 . S
C1033 C1031 1.419 . S
C1033 C1034 1.362 . S
C1034 H1026 0.930 . S
C1034 C1033 1.362 . S
C1034 C1037 1.409 . S
C1035 H1027 0.930 . S
C1035 C1036 1.355 . S
C1035 C1037 1.415 . S
C1036 C1035 1.355 . S
C1036 C1038 1.419 . S
C1037 C1032 1.425 . S
C1037 C1034 1.409 . S
C1037 C1035 1.415 . S
C1038 H1028 0.930 . S
C1038 C1036 1.419 . S
C1038 C1039 1.362 . S
C1039 H1029 0.930 . S
C1039 C1032 1.409 . S
C1039 C1038 1.362 . S
H1040 C1046 0.930 . S
H1041 C1049 0.930 . S
H1042 C1050 0.930 . S
H1043 C1051 0.930 . S
H1044 C1054 0.930 . S
H1045 C1055 0.930 . S
C1046 H1040 0.930 . S
C1046 C1047 1.355 . S
C1046 C1048 1.415 . S
C1047 C1046 1.355 . S
C1047 C1049 1.419 . S
C1048 C1046 1.415 . S
C1048 C1053 1.425 . S
C1048 C1055 1.409 . S
C1049 H1041 0.930 . S
C1049 C1047 1.419 . S
C1049 C1050 1.362 . S
C1050 H1042 0.930 . S
C1050 C1049 1.362 . S
C1050 C1053 1.409 . S
C1051 H1043 0.930 . S
C1051 C1052 1.355 . S
C1051 C1053 1.415 . S
C1052 C1051 1.355 . S
C1052 C1054 1.419 . S
C1053 C1048 1.425 . S
C1053 C1050 1.409 . S
C1053 C1051 1.415 . S
C1054 H1044 0.930 . S
C1054 C1052 1.419 . S
C1054 C1055 1.362 . S
C1055 H1045 0.930 . S
C1055 C1048 1.409 . S
C1055 C1054 1.362 . S
H1056 C1062 0.930 . S
H1057 C1065 0.930 . S
H1058 C1066 0.930 . S
H1059 C1067 0.930 . S
H1060 C1070 0.930 . S
H1061 C1071 0.930 . S
C1062 H1056 0.930 . S
C1062 C1063 1.355 . S
C1062 C1064 1.415 . S
C1063 C1062 1.355 . S
C1063 C1065 1.419 . S
C1064 C1062 1.415 . S
C1064 C1069 1.425 . S
C1064 C1071 1.409 . S
C1065 H1057 0.930 . S
C1065 C1063 1.419 . S
C1065 C1066 1.362 . S
C1066 H1058 0.930 . S
C1066 C1065 1.362 . S
C1066 C1069 1.409 . S
C1067 H1059 0.930 . S
C1067 C1068 1.355 . S
C1067 C1069 1.415 . S
C1068 C1067 1.355 . S
C1068 C1070 1.419 . S
C1069 C1064 1.425 . S
C1069 C1066 1.409 . S
C1069 C1067 1.415 . S
C1070 H1060 0.930 . S
C1070 C1068 1.419 . S
C1070 C1071 1.362 . S
C1071 H1061 0.930 . S
C1071 C1064 1.409 . S
C1071 C1070 1.362 . S
H1072 C1078 0.930 . S
H1073 C1081 0.930 . S
H1074 C1082 0.930 . S
H1075 C1083 0.930 . S
H1076 C1086 0.930 . S
H1077 C1087 0.930 . S
C1078 H1072 0.930 . S
C1078 C1079 1.355 . S
C1078 C1080 1.415 . S
C1079 C1078 1.355 . S
C1079 C1081 1.419 . S
C1080 C1078 1.415 . S
C1080 C1085 1.425 . S
C1080 C1087 1.409 . S
C1081 H1073 0.930 . S
C1081 C1079 1.419 . S
C1081 C1082 1.362 . S
C1082 H1074 0.930 . S
C1082 C1081 1.362 . S
C1082 C1085 1.409 . S
C1083 H1075 0.930 . S
C1083 C1084 1.355 . S
C1083 C1085 1.415 . S
C1084 C1083 1.355 . S
C1084 C1086 1.419 . S
C1085 C1080 1.425 . S
C1085 C1082 1.409 . S
C1085 C1083 1.415 . S
C1086 H1076 0.930 . S
C1086 C1084 1.419 . S
C1086 C1087 1.362 . S
C1087 H1077 0.930 . S
C1087 C1080 1.409 . S
C1087 C1086 1.362 . S
H1088 C1094 0.930 . S
H1089 C1097 0.930 . S
H1090 C1098 0.930 . S
H1091 C1099 0.930 . S
H1092 C1102 0.930 . S
H1093 C1103 0.930 . S
C1094 H1088 0.930 . S
C1094 C1095 1.355 . S
C1094 C1096 1.415 . S
C1095 C1094 1.355 . S
C1095 C1097 1.419 . S
C1096 C1094 1.415 . S
C1096 C1101 1.425 . S
C1096 C1103 1.409 . S
C1097 H1089 0.930 . S
C1097 C1095 1.419 . S
C1097 C1098 1.362 . S
C1098 H1090 0.930 . S
C1098 C1097 1.362 . S
C1098 C1101 1.409 . S
C1099 H1091 0.930 . S
C1099 C1100 1.355 . S
C1099 C1101 1.415 . S
C1100 C1099 1.355 . S
C1100 C1102 1.419 . S
C1101 C1096 1.425 . S
C1101 C1098 1.409 . S
C1101 C1099 1.415 . S
C1102 H1092 0.930 . S
C1102 C1100 1.419 . S
C1102 C1103 1.362 . S
C1103 H1093 0.930 . S
C1103 C1096 1.409 . S
C1103 C1102 1.362 . S
H1104 C1110 0.930 . S
H1105 C1113 0.930 . S
H1106 C1114 0.930 . S
H1107 C1115 0.930 . S
H1108 C1118 0.930 . S
H1109 C1119 0.930 . S
C1110 H1104 0.930 . S
C1110 C1111 1.355 . S
C1110 C1112 1.415 . S
C1111 C1110 1.355 . S
C1111 C1113 1.419 . S
C1112 C1110 1.415 . S
C1112 C1117 1.425 1_655 S
C1112 C1119 1.409 . S
C1113 H1105 0.930 . S
C1113 C1111 1.419 . S
C1113 C1114 1.362 1_655 S
C1114 H1106 0.930 . S
C1114 C1113 1.362 1_455 S
C1114 C1117 1.409 . S
C1115 H1107 0.930 . S
C1115 C1116 1.355 . S
C1115 C1117 1.415 . S
C1116 C1115 1.355 . S
C1116 C1118 1.419 1_455 S
C1117 C1112 1.425 1_455 S
C1117 C1114 1.409 . S
C1117 C1115 1.415 . S
C1118 H1108 0.930 . S
C1118 C1116 1.419 1_655 S
C1118 C1119 1.362 . S
C1119 H1109 0.930 . S
C1119 C1112 1.409 . S
C1119 C1118 1.362 . S
H1120 C1126 0.930 . S
H1121 C1129 0.930 . S
H1122 C1130 0.930 . S
H1123 C1131 0.930 . S
H1124 C1134 0.930 . S
H1125 C1135 0.930 . S
C1126 H1120 0.930 . S
C1126 C1127 1.355 . S
C1126 C1128 1.415 . S
C1127 C1126 1.355 . S
C1127 C1129 1.419 . S
C1128 C1126 1.415 . S
C1128 C1133 1.425 . S
C1128 C1135 1.409 . S
C1129 H1121 0.930 . S
C1129 C1127 1.419 . S
C1129 C1130 1.362 . S
C1130 H1122 0.930 . S
C1130 C1129 1.362 . S
C1130 C1133 1.409 . S
C1131 H1123 0.930 . S
C1131 C1132 1.355 . S
C1131 C1133 1.415 . S
C1132 C1131 1.355 . S
C1132 C1134 1.419 . S
C1133 C1128 1.425 . S
C1133 C1130 1.409 . S
C1133 C1131 1.415 . S
C1134 H1124 0.930 . S
C1134 C1132 1.419 . S
C1134 C1135 1.362 . S
C1135 H1125 0.930 . S
C1135 C1128 1.409 . S
C1135 C1134 1.362 . S
H1136 C1142 0.930 . S
H1137 C1145 0.930 . S
H1138 C1146 0.930 . S
H1139 C1147 0.930 . S
H1140 C1150 0.930 . S
H1141 C1151 0.930 . S
C1142 H1136 0.930 . S
C1142 C1143 1.355 . S
C1142 C1144 1.415 . S
C1143 C1142 1.355 . S
C1143 C1145 1.419 . S
C1144 C1142 1.415 . S
C1144 C1149 1.425 . S
C1144 C1151 1.409 . S
C1145 H1137 0.930 . S
C1145 C1143 1.419 . S
C1145 C1146 1.362 . S
C1146 H1138 0.930 . S
C1146 C1145 1.362 . S
C1146 C1149 1.409 . S
C1147 H1139 0.930 . S
C1147 C1148 1.355 . S
C1147 C1149 1.415 . S
C1148 C1147 1.355 . S
C1148 C1150 1.419 . S
C1149 C1144 1.425 . S
C1149 C1146 1.409 . S
C1149 C1147 1.415 . S
C1150 H1140 0.930 . S
C1150 C1148 1.419 . S
C1150 C1151 1.362 . S
C1151 H1141 0.930 . S
C1151 C1144 1.409 . S
C1151 C1150 1.362 . S
H1152 C1158 0.930 . S
H1153 C1161 0.930 . S
H1154 C1162 0.930 . S
H1155 C1163 0.930 . S
H1156 C1166 0.930 . S
H1157 C1167 0.930 . S
C1158 H1152 0.930 . S
C1158 C1159 1.355 . S
C1158 C1160 1.415 . S
C1159 C1158 1.355 . S
C1159 C1161 1.419 . S
C1160 C1158 1.415 . S
C1160 C1165 1.425 . S
C1160 C1167 1.409 . S
C1161 H1153 0.930 . S
C1161 C1159 1.419 . S
C1161 C1162 1.362 . S
C1162 H1154 0.930 . S
C1162 C1161 1.362 . S
C1162 C1165 1.409 . S
C1163 H1155 0.930 . S
C1163 C1164 1.355 . S
C1163 C1165 1.415 . S
C1164 C1163 1.355 . S
C1164 C1166 1.419 . S
C1165 C1160 1.425 . S
C1165 C1162 1.409 . S
C1165 C1163 1.415 . S
C1166 H1156 0.930 . S
C1166 C1164 1.419 . S
C1166 C1167 1.362 . S
C1167 H1157 0.930 . S
C1167 C1160 1.409 . S
C1167 C1166 1.362 . S
H1168 C1174 0.930 . S
H1169 C1177 0.930 . S
H1170 C1178 0.930 1_455 S
H1171 C1179 0.930 . S
H1172 C1182 0.930 . S
H1173 C1183 0.930 . S
C1174 H1168 0.930 . S
C1174 C1175 1.355 1_565 S
C1174 C1176 1.415 1_565 S
C1175 C1174 1.355 1_545 S
C1175 C1177 1.419 . S
C1176 C1174 1.415 1_545 S
C1176 C1181 1.427 . S
C1176 C1183 1.406 1_545 S
C1177 H1169 0.930 . S
C1177 C1175 1.419 . S
C1177 C1178 1.362 . S
C1178 H1170 0.930 1_655 S
C1178 C1177 1.362 . S
C1178 C1181 1.409 . S
C1179 H1171 0.930 . S
C1179 C1180 1.355 . S
C1179 C1181 1.415 1_455 S
C1180 C1179 1.355 . S
C1180 C1182 1.415 1_445 S
C1181 C1176 1.427 . S
C1181 C1178 1.409 . S
C1181 C1179 1.415 1_655 S
C1182 H1172 0.930 . S
C1182 C1180 1.415 1_665 S
C1182 C1183 1.362 . S
C1183 H1173 0.930 . S
C1183 C1176 1.406 1_565 S
C1183 C1182 1.362 . S
H1184 C1190 0.930 . S
H1185 C1193 0.930 . S
H1186 C1194 0.930 . S
H1187 C1195 0.930 . S
H1188 C1198 0.930 . S
H1189 C1199 0.930 . S
C1190 H1184 0.930 . S
C1190 C1191 1.355 . S
C1190 C1192 1.415 . S
C1191 C1190 1.355 . S
C1191 C1193 1.419 . S
C1192 C1190 1.415 . S
C1192 C1197 1.425 . S
C1192 C1199 1.409 . S
C1193 H1185 0.930 . S
C1193 C1191 1.419 . S
C1193 C1194 1.362 . S
C1194 H1186 0.930 . S
C1194 C1193 1.362 . S
C1194 C1197 1.409 . S
C1195 H1187 0.930 . S
C1195 C1196 1.355 . S
C1195 C1197 1.415 . S
C1196 C1195 1.355 . S
C1196 C1198 1.419 . S
C1197 C1192 1.425 . S
C1197 C1194 1.409 . S
C1197 C1195 1.415 . S
C1198 H1188 0.930 . S
C1198 C1196 1.419 . S
C1198 C1199 1.362 . S
C1199 H1189 0.930 . S
C1199 C1192 1.409 . S
C1199 C1198 1.362 . S
H1200 C1206 0.930 . S
H1201 C1209 0.930 . S
H1202 C1210 0.930 . S
H1203 C1211 0.930 . S
H1204 C1214 0.930 . S
H1205 C1215 0.930 1_565 S
C1206 H1200 0.930 . S
C1206 C1207 1.355 . S
C1206 C1208 1.415 . S
C1207 C1206 1.355 . S
C1207 C1209 1.419 . S
C1208 C1206 1.415 . S
C1208 C1213 1.425 . S
C1208 C1215 1.409 . S
C1209 H1201 0.930 . S
C1209 C1207 1.419 . S
C1209 C1210 1.362 . S
C1210 H1202 0.930 . S
C1210 C1209 1.362 . S
C1210 C1213 1.409 . S
C1211 H1203 0.930 . S
C1211 C1212 1.355 . S
C1211 C1213 1.415 . S
C1212 C1211 1.355 . S
C1212 C1214 1.419 . S
C1213 C1208 1.425 . S
C1213 C1210 1.409 . S
C1213 C1211 1.415 . S
C1214 H1204 0.930 . S
C1214 C1212 1.419 . S
C1214 C1215 1.362 . S
C1215 H1205 0.930 1_545 S
C1215 C1208 1.409 . S
C1215 C1214 1.362 . S
H1216 C1222 0.930 . S
H1217 C1225 0.930 . S
H1218 C1226 0.930 . S
H1219 C1227 0.930 . S
H1220 C1230 0.930 . S
H1221 C1231 0.930 . S
C1222 H1216 0.930 . S
C1222 C1223 1.355 . S
C1222 C1224 1.415 . S
C1223 C1222 1.355 . S
C1223 C1225 1.419 . S
C1224 C1222 1.415 . S
C1224 C1229 1.425 . S
C1224 C1231 1.409 . S
C1225 H1217 0.930 . S
C1225 C1223 1.419 . S
C1225 C1226 1.362 . S
C1226 H1218 0.930 . S
C1226 C1225 1.362 . S
C1226 C1229 1.409 . S
C1227 H1219 0.930 . S
C1227 C1228 1.355 . S
C1227 C1229 1.415 . S
C1228 C1227 1.355 . S
C1228 C1230 1.419 . S
C1229 C1224 1.425 . S
C1229 C1226 1.409 . S
C1229 C1227 1.415 . S
C1230 H1220 0.930 . S
C1230 C1228 1.419 . S
C1230 C1231 1.362 . S
C1231 H1221 0.930 . S
C1231 C1224 1.409 . S
C1231 C1230 1.362 . S
H1232 C1238 0.930 . S
H1233 C1241 0.930 1_556 S
H1234 C1242 0.930 . S
H1235 C1243 0.930 . S
H1236 C1246 0.930 . S
H1237 C1247 0.930 . S
C1238 H1232 0.930 . S
C1238 C1239 1.355 . S
C1238 C1240 1.415 . S
C1239 C1238 1.355 . S
C1239 C1241 1.419 1_565 S
C1240 C1238 1.415 . S
C1240 C1245 1.425 1_565 S
C1240 C1247 1.409 . S
C1241 H1233 0.930 1_554 S
C1241 C1239 1.419 1_545 S
C1241 C1242 1.362 . S
C1242 H1234 0.930 . S
C1242 C1241 1.362 . S
C1242 C1245 1.409 . S
C1243 H1235 0.930 . S
C1243 C1244 1.355 . S
C1243 C1245 1.415 . S
C1244 C1243 1.355 . S
C1244 C1246 1.419 1_545 S
C1245 C1240 1.425 1_545 S
C1245 C1242 1.409 . S
C1245 C1243 1.415 . S
C1246 H1236 0.930 . S
C1246 C1244 1.419 1_565 S
C1246 C1247 1.362 . S
C1247 H1237 0.930 . S
C1247 C1240 1.409 . S
C1247 C1246 1.362 . S
H1248 C1254 0.930 . S
H1249 C1257 0.930 . S
H1250 C1258 0.930 . S
H1251 C1259 0.930 . S
H1252 C1262 0.930 . S
H1253 C1263 0.930 . S
C1254 H1248 0.930 . S
C1254 C1255 1.355 . S
C1254 C1256 1.415 . S
C1255 C1254 1.355 . S
C1255 C1257 1.419 . S
C1256 C1254 1.415 . S
C1256 C1261 1.425 . S
C1256 C1263 1.409 . S
C1257 H1249 0.930 . S
C1257 C1255 1.419 . S
C1257 C1258 1.362 . S
C1258 H1250 0.930 . S
C1258 C1257 1.362 . S
C1258 C1261 1.409 . S
C1259 H1251 0.930 . S
C1259 C1260 1.355 . S
C1259 C1261 1.415 . S
C1260 C1259 1.355 . S
C1260 C1262 1.419 . S
C1261 C1256 1.425 . S
C1261 C1258 1.409 . S
C1261 C1259 1.415 . S
C1262 H1252 0.930 . S
C1262 C1260 1.419 . S
C1262 C1263 1.362 . S
C1263 H1253 0.930 . S
C1263 C1256 1.409 . S
C1263 C1262 1.362 . S
H1264 C1270 0.930 . S
H1265 C1273 0.930 . S
H1266 C1274 0.930 . S
H1267 C1275 0.930 . S
H1268 C1278 0.930 . S
H1269 C1279 0.930 . S
C1270 H1264 0.930 . S
C1270 C1271 1.355 . S
C1270 C1272 1.415 . S
C1271 C1270 1.355 . S
C1271 C1273 1.419 . S
C1272 C1270 1.415 . S
C1272 C1277 1.425 . S
C1272 C1279 1.409 . S
C1273 H1265 0.930 . S
C1273 C1271 1.419 . S
C1273 C1274 1.362 . S
C1274 H1266 0.930 . S
C1274 C1273 1.362 . S
C1274 C1277 1.409 . S
C1275 H1267 0.930 . S
C1275 C1276 1.355 . S
C1275 C1277 1.415 . S
C1276 C1275 1.355 . S
C1276 C1278 1.419 . S
C1277 C1272 1.425 . S
C1277 C1274 1.409 . S
C1277 C1275 1.415 . S
C1278 H1268 0.930 . S
C1278 C1276 1.419 . S
C1278 C1279 1.362 . S
C1279 H1269 0.930 . S
C1279 C1272 1.409 . S
C1279 C1278 1.362 . S
H1280 C1286 0.930 . S
H1281 C1289 0.930 . S
H1282 C1290 0.930 . S
H1283 C1291 0.930 . S
H1284 C1294 0.930 1_455 S
H1285 C1295 0.930 . S
C1286 H1280 0.930 . S
C1286 C1287 1.355 . S
C1286 C1288 1.415 . S
C1287 C1286 1.355 . S
C1287 C1289 1.419 . S
C1288 C1286 1.415 . S
C1288 C1293 1.425 . S
C1288 C1295 1.409 . S
C1289 H1281 0.930 . S
C1289 C1287 1.419 . S
C1289 C1290 1.362 . S
C1290 H1282 0.930 . S
C1290 C1289 1.362 . S
C1290 C1293 1.409 . S
C1291 H1283 0.930 . S
C1291 C1292 1.355 . S
C1291 C1293 1.415 . S
C1292 C1291 1.355 . S
C1292 C1294 1.419 . S
C1293 C1288 1.425 . S
C1293 C1290 1.409 . S
C1293 C1291 1.415 . S
C1294 H1284 0.930 1_655 S
C1294 C1292 1.419 . S
C1294 C1295 1.362 . S
C1295 H1285 0.930 . S
C1295 C1288 1.409 . S
C1295 C1294 1.362 . S
H1296 C1302 0.930 . S
H1297 C1305 0.930 . S
H1298 C1306 0.930 . S
H1299 C1307 0.930 . S
H1300 C1310 0.930 . S
H1301 C1311 0.930 . S
C1302 H1296 0.930 . S
C1302 C1303 1.355 . S
C1302 C1304 1.415 . S
C1303 C1302 1.355 . S
C1303 C1305 1.419 . S
C1304 C1302 1.415 . S
C1304 C1309 1.425 . S
C1304 C1311 1.409 . S
C1305 H1297 0.930 . S
C1305 C1303 1.419 . S
C1305 C1306 1.362 . S
C1306 H1298 0.930 . S
C1306 C1305 1.362 . S
C1306 C1309 1.409 . S
C1307 H1299 0.930 . S
C1307 C1308 1.355 . S
C1307 C1309 1.415 . S
C1308 C1307 1.355 . S
C1308 C1310 1.419 . S
C1309 C1304 1.425 . S
C1309 C1306 1.409 . S
C1309 C1307 1.415 . S
C1310 H1300 0.930 . S
C1310 C1308 1.419 . S
C1310 C1311 1.362 . S
C1311 H1301 0.930 . S
C1311 C1304 1.409 . S
C1311 C1310 1.362 . S
H1312 C1318 0.930 . S
H1313 C1321 0.930 . S
H1314 C1322 0.930 . S
H1315 C1323 0.930 . S
H1316 C1326 0.930 . S
H1317 C1327 0.930 . S
C1318 H1312 0.930 . S
C1318 C1319 1.355 . S
C1318 C1320 1.415 . S
C1319 C1318 1.355 . S
C1319 C1321 1.419 . S
C1320 C1318 1.415 . S
C1320 C1325 1.425 . S
C1320 C1327 1.409 . S
C1321 H1313 0.930 . S
C1321 C1319 1.419 . S
C1321 C1322 1.362 . S
C1322 H1314 0.930 . S
C1322 C1321 1.362 . S
C1322 C1325 1.409 . S
C1323 H1315 0.930 . S
C1323 C1324 1.355 . S
C1323 C1325 1.415 . S
C1324 C1323 1.355 . S
C1324 C1326 1.419 . S
C1325 C1320 1.425 . S
C1325 C1322 1.409 . S
C1325 C1323 1.415 . S
C1326 H1316 0.930 . S
C1326 C1324 1.419 . S
C1326 C1327 1.362 . S
C1327 H1317 0.930 . S
C1327 C1320 1.409 . S
C1327 C1326 1.362 . S
H1328 C1334 0.930 . S
H1329 C1337 0.930 . S
H1330 C1338 0.930 . S
H1331 C1339 0.930 . S
H1332 C1342 0.930 . S
H1333 C1343 0.930 . S
C1334 H1328 0.930 . S
C1334 C1335 1.355 . S
C1334 C1336 1.415 . S
C1335 C1334 1.355 . S
C1335 C1337 1.419 . S
C1336 C1334 1.415 . S
C1336 C1341 1.425 . S
C1336 C1343 1.409 . S
C1337 H1329 0.930 . S
C1337 C1335 1.419 . S
C1337 C1338 1.362 . S
C1338 H1330 0.930 . S
C1338 C1337 1.362 . S
C1338 C1341 1.409 . S
C1339 H1331 0.930 . S
C1339 C1340 1.355 . S
C1339 C1341 1.415 . S
C1340 C1339 1.355 . S
C1340 C1342 1.419 . S
C1341 C1336 1.425 . S
C1341 C1338 1.409 . S
C1341 C1339 1.415 . S
C1342 H1332 0.930 . S
C1342 C1340 1.419 . S
C1342 C1343 1.362 . S
C1343 H1333 0.930 . S
C1343 C1336 1.409 . S
C1343 C1342 1.362 . S
H1344 C1350 0.930 . S
H1345 C1353 0.930 . S
H1346 C1354 0.930 . S
H1347 C1355 0.930 . S
H1348 C1358 0.930 . S
H1349 C1359 0.930 . S
C1350 H1344 0.930 . S
C1350 C1351 1.355 . S
C1350 C1352 1.415 . S
C1351 C1350 1.355 . S
C1351 C1353 1.419 . S
C1352 C1350 1.415 . S
C1352 C1357 1.425 . S
C1352 C1359 1.409 . S
C1353 H1345 0.930 . S
C1353 C1351 1.419 . S
C1353 C1354 1.362 . S
C1354 H1346 0.930 . S
C1354 C1353 1.362 . S
C1354 C1357 1.409 . S
C1355 H1347 0.930 . S
C1355 C1356 1.355 . S
C1355 C1357 1.415 . S
C1356 C1355 1.355 . S
C1356 C1358 1.419 . S
C1357 C1352 1.425 . S
C1357 C1354 1.409 . S
C1357 C1355 1.415 . S
C1358 H1348 0.930 . S
C1358 C1356 1.419 . S
C1358 C1359 1.362 . S
C1359 H1349 0.930 . S
C1359 C1352 1.409 . S
C1359 C1358 1.362 . S
H1360 C1366 0.930 . S
H1361 C1369 0.930 . S
H1362 C1370 0.930 . S
H1363 C1371 0.930 . S
H1364 C1374 0.930 . S
H1365 C1375 0.930 . S
C1366 H1360 0.930 . S
C1366 C1367 1.355 . S
C1366 C1368 1.415 . S
C1367 C1366 1.355 . S
C1367 C1369 1.419 . S
C1368 C1366 1.415 . S
C1368 C1373 1.425 . S
C1368 C1375 1.409 . S
C1369 H1361 0.930 . S
C1369 C1367 1.419 . S
C1369 C1370 1.362 . S
C1370 H1362 0.930 . S
C1370 C1369 1.362 . S
C1370 C1373 1.409 . S
C1371 H1363 0.930 . S
C1371 C1372 1.355 . S
C1371 C1373 1.415 . S
C1372 C1371 1.355 . S
C1372 C1374 1.419 . S
C1373 C1368 1.425 . S
C1373 C1370 1.409 . S
C1373 C1371 1.415 . S
C1374 H1364 0.930 . S
C1374 C1372 1.419 . S
C1374 C1375 1.362 . S
C1375 H1365 0.930 . S
C1375 C1368 1.409 . S
C1375 C1374 1.362 . S
H1376 C1382 0.930 . S
H1377 C1385 0.930 . S
H1378 C1386 0.930 . S
H1379 C1387 0.930 . S
H1380 C1390 0.930 . S
H1381 C1391 0.930 . S
C1382 H1376 0.930 . S
C1382 C1383 1.355 . S
C1382 C1384 1.415 . S
C1383 C1382 1.355 . S
C1383 C1385 1.419 . S
C1384 C1382 1.415 . S
C1384 C1389 1.425 . S
C1384 C1391 1.409 . S
C1385 H1377 0.930 . S
C1385 C1383 1.419 . S
C1385 C1386 1.362 . S
C1386 H1378 0.930 . S
C1386 C1385 1.362 . S
C1386 C1389 1.409 . S
C1387 H1379 0.930 . S
C1387 C1388 1.355 . S
C1387 C1389 1.415 . S
C1388 C1387 1.355 . S
C1388 C1390 1.419 . S
C1389 C1384 1.425 . S
C1389 C1386 1.409 . S
C1389 C1387 1.415 . S
C1390 H1380 0.930 . S
C1390 C1388 1.419 . S
C1390 C1391 1.362 . S
C1391 H1381 0.930 . S
C1391 C1384 1.409 . S
C1391 C1390 1.362 . S
H1392 C1398 0.930 . S
H1393 C1401 0.930 . S
H1394 C1402 0.930 . S
H1395 C1403 0.930 . S
H1396 C1406 0.930 . S
H1397 C1407 0.930 . S
C1398 H1392 0.930 . S
C1398 C1399 1.355 . S
C1398 C1400 1.415 . S
C1399 C1398 1.355 . S
C1399 C1401 1.419 . S
C1400 C1398 1.415 . S
C1400 C1405 1.425 . S
C1400 C1407 1.409 . S
C1401 H1393 0.930 . S
C1401 C1399 1.419 . S
C1401 C1402 1.362 . S
C1402 H1394 0.930 . S
C1402 C1401 1.362 . S
C1402 C1405 1.409 . S
C1403 H1395 0.930 . S
C1403 C1404 1.355 . S
C1403 C1405 1.415 . S
C1404 C1403 1.355 . S
C1404 C1406 1.419 . S
C1405 C1400 1.425 . S
C1405 C1402 1.409 . S
C1405 C1403 1.415 . S
C1406 H1396 0.930 . S
C1406 C1404 1.419 . S
C1406 C1407 1.362 . S
C1407 H1397 0.930 . S
C1407 C1400 1.409 . S
C1407 C1406 1.362 . S
H1408 C1414 0.930 . S
H1409 C1417 0.930 . S
H1410 C1418 0.930 . S
H1411 C1419 0.930 . S
H1412 C1422 0.930 . S
H1413 C1423 0.930 . S
C1414 H1408 0.930 . S
C1414 C1415 1.355 . S
C1414 C1416 1.415 . S
C1415 C1414 1.355 . S
C1415 C1417 1.419 . S
C1416 C1414 1.415 . S
C1416 C1421 1.425 . S
C1416 C1423 1.409 . S
C1417 H1409 0.930 . S
C1417 C1415 1.419 . S
C1417 C1418 1.362 . S
C1418 H1410 0.930 . S
C1418 C1417 1.362 . S
C1418 C1421 1.409 . S
C1419 H1411 0.930 . S
C1419 C1420 1.355 . S
C1419 C1421 1.415 . S
C1420 C1419 1.355 . S
C1420 C1422 1.419 . S
C1421 C1416 1.425 . S
C1421 C1418 1.409 . S
C1421 C1419 1.415 . S
C1422 H1412 0.930 . S
C1422 C1420 1.419 . S
C1422 C1423 1.362 . S
C1423 H1413 0.930 . S
C1423 C1416 1.409 . S
C1423 C1422 1.362 . S
H1424 C1430 0.930 . S
H1425 C1433 0.930 . S
H1426 C1434 0.930 . S
H1427 C1435 0.930 . S
H1428 C1438 0.930 . S
H1429 C1439 0.930 . S
C1430 H1424 0.930 . S
C1430 C1431 1.355 . S
C1430 C1432 1.415 . S
C1431 C1430 1.355 . S
C1431 C1433 1.419 . S
C1432 C1430 1.415 . S
C1432 C1437 1.425 . S
C1432 C1439 1.409 . S
C1433 H1425 0.930 . S
C1433 C1431 1.419 . S
C1433 C1434 1.362 . S
C1434 H1426 0.930 . S
C1434 C1433 1.362 . S
C1434 C1437 1.409 . S
C1435 H1427 0.930 . S
C1435 C1436 1.355 . S
C1435 C1437 1.415 . S
C1436 C1435 1.355 . S
C1436 C1438 1.419 . S
C1437 C1432 1.425 . S
C1437 C1434 1.409 . S
C1437 C1435 1.415 . S
C1438 H1428 0.930 . S
C1438 C1436 1.419 . S
C1438 C1439 1.362 . S
C1439 H1429 0.930 . S
C1439 C1432 1.409 . S
C1439 C1438 1.362 . S
H1440 C1446 0.930 . S
H1441 C1449 0.930 . S
H1442 C1450 0.930 . S
H1443 C1451 0.930 . S
H1444 C1454 0.930 . S
H1445 C1455 0.930 . S
C1446 H1440 0.930 . S
C1446 C1447 1.355 . S
C1446 C1448 1.415 . S
C1447 C1446 1.355 . S
C1447 C1449 1.419 . S
C1448 C1446 1.415 . S
C1448 C1453 1.425 . S
C1448 C1455 1.409 . S
C1449 H1441 0.930 . S
C1449 C1447 1.419 . S
C1449 C1450 1.362 . S
C1450 H1442 0.930 . S
C1450 C1449 1.362 . S
C1450 C1453 1.409 . S
C1451 H1443 0.930 . S
C1451 C1452 1.355 . S
C1451 C1453 1.415 . S
C1452 C1451 1.355 . S
C1452 C1454 1.419 . S
C1453 C1448 1.425 . S
C1453 C1450 1.409 . S
C1453 C1451 1.415 . S
C1454 H1444 0.930 . S
C1454 C1452 1.419 . S
C1454 C1455 1.362 . S
C1455 H1445 0.930 . S
C1455 C1448 1.409 . S
C1455 C1454 1.362 . S
H1456 C1462 0.930 . S
H1457 C1465 0.930 . S
H1458 C1466 0.930 . S
H1459 C1467 0.930 . S
H1460 C1470 0.930 . S
H1461 C1471 0.930 . S
C1462 H1456 0.930 . S
C1462 C1463 1.355 . S
C1462 C1464 1.415 . S
C1463 C1462 1.355 . S
C1463 C1465 1.419 . S
C1464 C1462 1.415 . S
C1464 C1469 1.425 . S
C1464 C1471 1.409 . S
C1465 H1457 0.930 . S
C1465 C1463 1.419 . S
C1465 C1466 1.362 . S
C1466 H1458 0.930 . S
C1466 C1465 1.362 . S
C1466 C1469 1.409 . S
C1467 H1459 0.930 . S
C1467 C1468 1.355 . S
C1467 C1469 1.415 . S
C1468 C1467 1.355 . S
C1468 C1470 1.419 . S
C1469 C1464 1.425 . S
C1469 C1466 1.409 . S
C1469 C1467 1.415 . S
C1470 H1460 0.930 . S
C1470 C1468 1.419 . S
C1470 C1471 1.362 . S
C1471 H1461 0.930 . S
C1471 C1464 1.409 . S
C1471 C1470 1.362 . S
H1472 C1478 0.930 . S
H1473 C1481 0.930 . S
H1474 C1482 0.930 . S
H1475 C1483 0.930 . S
H1476 C1486 0.930 . S
H1477 C1487 0.930 . S
C1478 H1472 0.930 . S
C1478 C1479 1.355 . S
C1478 C1480 1.415 . S
C1479 C1478 1.355 . S
C1479 C1481 1.419 . S
C1480 C1478 1.415 . S
C1480 C1485 1.425 . S
C1480 C1487 1.409 . S
C1481 H1473 0.930 . S
C1481 C1479 1.419 . S
C1481 C1482 1.362 . S
C1482 H1474 0.930 . S
C1482 C1481 1.362 . S
C1482 C1485 1.409 . S
C1483 H1475 0.930 . S
C1483 C1484 1.355 . S
C1483 C1485 1.415 . S
C1484 C1483 1.355 . S
C1484 C1486 1.419 . S
C1485 C1480 1.425 . S
C1485 C1482 1.409 . S
C1485 C1483 1.415 . S
C1486 H1476 0.930 . S
C1486 C1484 1.419 . S
C1486 C1487 1.362 . S
C1487 H1477 0.930 . S
C1487 C1480 1.409 . S
C1487 C1486 1.362 . S
H1488 C1494 0.930 . S
H1489 C1497 0.930 . S
H1490 C1498 0.930 . S
H1491 C1499 0.930 . S
H1492 C1502 0.930 1_554 S
H1493 C1503 0.930 . S
C1494 H1488 0.930 . S
C1494 C1495 1.355 . S
C1494 C1496 1.415 . S
C1495 C1494 1.355 . S
C1495 C1497 1.419 . S
C1496 C1494 1.415 . S
C1496 C1501 1.425 . S
C1496 C1503 1.409 . S
C1497 H1489 0.930 . S
C1497 C1495 1.419 . S
C1497 C1498 1.362 . S
C1498 H1490 0.930 . S
C1498 C1497 1.362 . S
C1498 C1501 1.409 . S
C1499 H1491 0.930 . S
C1499 C1500 1.355 . S
C1499 C1501 1.415 . S
C1500 C1499 1.355 . S
C1500 C1502 1.419 . S
C1501 C1496 1.425 . S
C1501 C1498 1.409 . S
C1501 C1499 1.415 . S
C1502 H1492 0.930 1_556 S
C1502 C1500 1.419 . S
C1502 C1503 1.362 . S
C1503 H1493 0.930 . S
C1503 C1496 1.409 . S
C1503 C1502 1.362 . S
H1504 C1510 0.930 . S
H1505 C1513 0.930 . S
H1506 C1514 0.930 . S
H1507 C1515 0.930 . S
H1508 C1518 0.930 . S
H1509 C1519 0.930 . S
C1510 H1504 0.930 . S
C1510 C1511 1.355 . S
C1510 C1512 1.415 . S
C1511 C1510 1.355 . S
C1511 C1513 1.419 . S
C1512 C1510 1.415 . S
C1512 C1517 1.425 . S
C1512 C1519 1.409 . S
C1513 H1505 0.930 . S
C1513 C1511 1.419 . S
C1513 C1514 1.362 . S
C1514 H1506 0.930 . S
C1514 C1513 1.362 . S
C1514 C1517 1.409 . S
C1515 H1507 0.930 . S
C1515 C1516 1.355 . S
C1515 C1517 1.415 . S
C1516 C1515 1.355 . S
C1516 C1518 1.419 . S
C1517 C1512 1.425 . S
C1517 C1514 1.409 . S
C1517 C1515 1.415 . S
C1518 H1508 0.930 . S
C1518 C1516 1.419 . S
C1518 C1519 1.362 . S
C1519 H1509 0.930 . S
C1519 C1512 1.409 . S
C1519 C1518 1.362 . S
H1520 C1526 0.930 . S
H1521 C1529 0.930 . S
H1522 C1530 0.930 . S
H1523 C1531 0.930 . S
H1524 C1534 0.930 . S
H1525 C1535 0.930 1_565 S
C1526 H1520 0.930 . S
C1526 C1527 1.355 . S
C1526 C1528 1.415 . S
C1527 C1526 1.355 . S
C1527 C1529 1.419 . S
C1528 C1526 1.415 . S
C1528 C1533 1.425 . S
C1528 C1535 1.409 . S
C1529 H1521 0.930 . S
C1529 C1527 1.419 . S
C1529 C1530 1.362 . S
C1530 H1522 0.930 . S
C1530 C1529 1.362 . S
C1530 C1533 1.409 . S
C1531 H1523 0.930 . S
C1531 C1532 1.355 . S
C1531 C1533 1.415 . S
C1532 C1531 1.355 . S
C1532 C1534 1.419 . S
C1533 C1528 1.425 . S
C1533 C1530 1.409 . S
C1533 C1531 1.415 . S
C1534 H1524 0.930 . S
C1534 C1532 1.419 . S
C1534 C1535 1.362 . S
C1535 H1525 0.930 1_545 S
C1535 C1528 1.409 . S
C1535 C1534 1.362 . S
H1536 C1542 0.930 . S
H1537 C1545 0.930 . S
H1538 C1546 0.930 . S
H1539 C1547 0.930 . S
H1540 C1550 0.930 . S
H1541 C1551 0.930 . S
C1542 H1536 0.930 . S
C1542 C1543 1.355 . S
C1542 C1544 1.415 . S
C1543 C1542 1.355 . S
C1543 C1545 1.419 . S
C1544 C1542 1.415 . S
C1544 C1549 1.425 . S
C1544 C1551 1.409 . S
C1545 H1537 0.930 . S
C1545 C1543 1.419 . S
C1545 C1546 1.362 . S
C1546 H1538 0.930 . S
C1546 C1545 1.362 . S
C1546 C1549 1.409 . S
C1547 H1539 0.930 . S
C1547 C1548 1.355 . S
C1547 C1549 1.415 . S
C1548 C1547 1.355 . S
C1548 C1550 1.419 . S
C1549 C1544 1.425 . S
C1549 C1546 1.409 . S
C1549 C1547 1.415 . S
C1550 H1540 0.930 . S
C1550 C1548 1.419 . S
C1550 C1551 1.362 . S
C1551 H1541 0.930 . S
C1551 C1544 1.409 . S
C1551 C1550 1.362 . S
H1552 C1558 0.930 . S
H1553 C1561 0.930 . S
H1554 C1562 0.930 . S
H1555 C1563 0.930 . S
H1556 C1566 0.930 . S
H1557 C1567 0.930 . S
C1558 H1552 0.930 . S
C1558 C1559 1.355 . S
C1558 C1560 1.415 . S
C1559 C1558 1.355 . S
C1559 C1561 1.419 . S
C1560 C1558 1.415 . S
C1560 C1565 1.425 . S
C1560 C1567 1.409 . S
C1561 H1553 0.930 . S
C1561 C1559 1.419 . S
C1561 C1562 1.362 . S
C1562 H1554 0.930 . S
C1562 C1561 1.362 . S
C1562 C1565 1.409 . S
C1563 H1555 0.930 . S
C1563 C1564 1.355 . S
C1563 C1565 1.415 . S
C1564 C1563 1.355 . S
C1564 C1566 1.419 . S
C1565 C1560 1.425 . S
C1565 C1562 1.409 . S
C1565 C1563 1.415 . S
C1566 H1556 0.930 . S
C1566 C1564 1.419 . S
C1566 C1567 1.362 . S
C1567 H1557 0.930 . S
C1567 C1560 1.409 . S
C1567 C1566 1.362 . S
H1568 C1574 0.930 . S
H1569 C1577 0.930 . S
H1570 C1578 0.930 . S
H1571 C1579 0.930 . S
H1572 C1582 0.930 . S
H1573 C1583 0.930 . S
C1574 H1568 0.930 . S
C1574 C1575 1.355 . S
C1574 C1576 1.415 . S
C1575 C1574 1.355 . S
C1575 C1577 1.419 . S
C1576 C1574 1.415 . S
C1576 C1581 1.425 . S
C1576 C1583 1.409 . S
C1577 H1569 0.930 . S
C1577 C1575 1.419 . S
C1577 C1578 1.362 . S
C1578 H1570 0.930 . S
C1578 C1577 1.362 . S
C1578 C1581 1.409 . S
C1579 H1571 0.930 . S
C1579 C1580 1.355 . S
C1579 C1581 1.415 . S
C1580 C1579 1.355 . S
C1580 C1582 1.419 . S
C1581 C1576 1.425 . S
C1581 C1578 1.409 . S
C1581 C1579 1.415 . S
C1582 H1572 0.930 . S
C1582 C1580 1.419 . S
C1582 C1583 1.362 . S
C1583 H1573 0.930 . S
C1583 C1576 1.409 . S
C1583 C1582 1.362 . S
H1584 C1590 0.930 . S
H1585 C1593 0.930 . S
H1586 C1594 0.930 . S
H1587 C1595 0.930 . S
H1588 C1598 0.930 . S
H1589 C1599 0.930 . S
C1590 H1584 0.930 . S
C1590 C1591 1.355 . S
C1590 C1592 1.415 . S
C1591 C1590 1.355 . S
C1591 C1593 1.419 . S
C1592 C1590 1.415 . S
C1592 C1597 1.425 . S
C1592 C1599 1.409 . S
C1593 H1585 0.930 . S
C1593 C1591 1.419 . S
C1593 C1594 1.362 . S
C1594 H1586 0.930 . S
C1594 C1593 1.362 . S
C1594 C1597 1.409 . S
C1595 H1587 0.930 . S
C1595 C1596 1.355 . S
C1595 C1597 1.415 . S
C1596 C1595 1.355 . S
C1596 C1598 1.419 . S
C1597 C1592 1.425 . S
C1597 C1594 1.409 . S
C1597 C1595 1.415 . S
C1598 H1588 0.930 . S
C1598 C1596 1.419 . S
C1598 C1599 1.362 . S
C1599 H1589 0.930 . S
C1599 C1592 1.409 . S
C1599 C1598 1.362 . S
H1600 C1606 0.930 . S
H1601 C1609 0.930 . S
H1602 C1610 0.930 . S
H1603 C1611 0.930 . S
H1604 C1614 0.930 . S
H1605 C1615 0.930 . S
C1606 H1600 0.930 . S
C1606 C1607 1.355 . S
C1606 C1608 1.415 . S
C1607 C1606 1.355 . S
C1607 C1609 1.419 . S
C1608 C1606 1.415 . S
C1608 C1613 1.425 . S
C1608 C1615 1.409 . S
C1609 H1601 0.930 . S
C1609 C1607 1.419 . S
C1609 C1610 1.362 . S
C1610 H1602 0.930 . S
C1610 C1609 1.362 . S
C1610 C1613 1.409 . S
C1611 H1603 0.930 . S
C1611 C1612 1.355 . S
C1611 C1613 1.415 . S
C1612 C1611 1.355 . S
C1612 C1614 1.419 . S
C1613 C1608 1.425 . S
C1613 C1610 1.409 . S
C1613 C1611 1.415 . S
C1614 H1604 0.930 . S
C1614 C1612 1.419 . S
C1614 C1615 1.362 . S
C1615 H1605 0.930 . S
C1615 C1608 1.409 . S
C1615 C1614 1.362 . S
H1616 C1622 0.930 . S
H1617 C1625 0.930 . S
H1618 C1626 0.930 . S
H1619 C1627 0.930 . S
H1620 C1630 0.930 . S
H1621 C1631 0.930 1_556 S
C1622 H1616 0.930 . S
C1622 C1623 1.355 . S
C1622 C1624 1.415 . S
C1623 C1622 1.355 . S
C1623 C1625 1.419 . S
C1624 C1622 1.415 . S
C1624 C1629 1.425 . S
C1624 C1631 1.409 . S
C1625 H1617 0.930 . S
C1625 C1623 1.419 . S
C1625 C1626 1.362 . S
C1626 H1618 0.930 . S
C1626 C1625 1.362 . S
C1626 C1629 1.409 . S
C1627 H1619 0.930 . S
C1627 C1628 1.355 . S
C1627 C1629 1.415 . S
C1628 C1627 1.355 . S
C1628 C1630 1.419 1_554 S
C1629 C1624 1.425 . S
C1629 C1626 1.409 . S
C1629 C1627 1.415 . S
C1630 H1620 0.930 . S
C1630 C1628 1.419 1_556 S
C1630 C1631 1.362 1_556 S
C1631 H1621 0.930 1_554 S
C1631 C1624 1.409 . S
C1631 C1630 1.362 1_554 S
H1632 C1638 0.930 . S
H1633 C1641 0.930 . S
H1634 C1642 0.930 . S
H1635 C1643 0.930 . S
H1636 C1646 0.930 . S
H1637 C1647 0.930 1_556 S
C1638 H1632 0.930 . S
C1638 C1639 1.355 . S
C1638 C1640 1.415 . S
C1639 C1638 1.355 . S
C1639 C1641 1.419 . S
C1640 C1638 1.415 . S
C1640 C1645 1.425 . S
C1640 C1647 1.409 . S
C1641 H1633 0.930 . S
C1641 C1639 1.419 . S
C1641 C1642 1.362 . S
C1642 H1634 0.930 . S
C1642 C1641 1.362 . S
C1642 C1645 1.409 . S
C1643 H1635 0.930 . S
C1643 C1644 1.355 . S
C1643 C1645 1.415 . S
C1644 C1643 1.355 . S
C1644 C1646 1.419 . S
C1645 C1640 1.425 . S
C1645 C1642 1.409 . S
C1645 C1643 1.415 . S
C1646 H1636 0.930 . S
C1646 C1644 1.419 . S
C1646 C1647 1.362 . S
C1647 H1637 0.930 1_554 S
C1647 C1640 1.409 . S
C1647 C1646 1.362 . S
H1648 C1654 0.930 . S
H1649 C1657 0.930 . S
H1650 C1658 0.930 . S
H1651 C1659 0.930 . S
H1652 C1662 0.930 . S
H1653 C1663 0.930 . S
C1654 H1648 0.930 . S
C1654 C1655 1.355 . S
C1654 C1656 1.415 . S
C1655 C1654 1.355 . S
C1655 C1657 1.419 . S
C1656 C1654 1.415 . S
C1656 C1661 1.425 . S
C1656 C1663 1.409 . S
C1657 H1649 0.930 . S
C1657 C1655 1.419 . S
C1657 C1658 1.362 . S
C1658 H1650 0.930 . S
C1658 C1657 1.362 . S
C1658 C1661 1.409 . S
C1659 H1651 0.930 . S
C1659 C1660 1.355 . S
C1659 C1661 1.415 . S
C1660 C1659 1.355 . S
C1660 C1662 1.419 . S
C1661 C1656 1.425 . S
C1661 C1658 1.409 . S
C1661 C1659 1.415 . S
C1662 H1652 0.930 . S
C1662 C1660 1.419 . S
C1662 C1663 1.362 . S
C1663 H1653 0.930 . S
C1663 C1656 1.409 . S
C1663 C1662 1.362 . S
H1664 C1670 0.930 . S
H1665 C1673 0.930 . S
H1666 C1674 0.930 . S
H1667 C1675 0.930 . S
H1668 C1678 0.930 . S
H1669 C1679 0.930 . S
C1670 H1664 0.930 . S
C1670 C1671 1.355 . S
C1670 C1672 1.415 . S
C1671 C1670 1.355 . S
C1671 C1673 1.419 . S
C1672 C1670 1.415 . S
C1672 C1677 1.425 . S
C1672 C1679 1.409 . S
C1673 H1665 0.930 . S
C1673 C1671 1.419 . S
C1673 C1674 1.362 . S
C1674 H1666 0.930 . S
C1674 C1673 1.362 . S
C1674 C1677 1.409 . S
C1675 H1667 0.930 . S
C1675 C1676 1.355 . S
C1675 C1677 1.415 . S
C1676 C1675 1.355 . S
C1676 C1678 1.419 . S
C1677 C1672 1.425 . S
C1677 C1674 1.409 . S
C1677 C1675 1.415 . S
C1678 H1668 0.930 . S
C1678 C1676 1.419 . S
C1678 C1679 1.362 . S
C1679 H1669 0.930 . S
C1679 C1672 1.409 . S
C1679 C1678 1.362 . S
H1680 C1686 0.930 1_545 S
H1681 C1689 0.930 . S
H1682 C1690 0.930 . S
H1683 C1691 0.930 . S
H1684 C1694 0.930 . S
H1685 C1695 0.930 1_545 S
C1686 H1680 0.930 1_565 S
C1686 C1687 1.355 . S
C1686 C1688 1.415 . S
C1687 C1686 1.355 . S
C1687 C1689 1.419 . S
C1688 C1686 1.415 . S
C1688 C1693 1.425 . S
C1688 C1695 1.409 . S
C1689 H1681 0.930 . S
C1689 C1687 1.419 . S
C1689 C1690 1.362 . S
C1690 H1682 0.930 . S
C1690 C1689 1.362 . S
C1690 C1693 1.409 . S
C1691 H1683 0.930 . S
C1691 C1692 1.355 . S
C1691 C1693 1.415 . S
C1692 C1691 1.355 . S
C1692 C1694 1.419 . S
C1693 C1688 1.425 . S
C1693 C1690 1.409 . S
C1693 C1691 1.415 . S
C1694 H1684 0.930 . S
C1694 C1692 1.419 . S
C1694 C1695 1.362 . S
C1695 H1685 0.930 1_565 S
C1695 C1688 1.409 . S
C1695 C1694 1.362 . S
H1696 C1702 0.930 . S
H1697 C1705 0.930 . S
H1698 C1706 0.930 . S
H1699 C1707 0.930 . S
H1700 C1710 0.930 . S
H1701 C1711 0.930 . S
C1702 H1696 0.930 . S
C1702 C1703 1.355 . S
C1702 C1704 1.415 . S
C1703 C1702 1.355 . S
C1703 C1705 1.419 . S
C1704 C1702 1.415 . S
C1704 C1709 1.425 . S
C1704 C1711 1.409 . S
C1705 H1697 0.930 . S
C1705 C1703 1.419 . S
C1705 C1706 1.362 . S
C1706 H1698 0.930 . S
C1706 C1705 1.362 . S
C1706 C1709 1.409 . S
C1707 H1699 0.930 . S
C1707 C1708 1.355 . S
C1707 C1709 1.415 . S
C1708 C1707 1.355 . S
C1708 C1710 1.419 . S
C1709 C1704 1.425 . S
C1709 C1706 1.409 . S
C1709 C1707 1.415 . S
C1710 H1700 0.930 . S
C1710 C1708 1.419 . S
C1710 C1711 1.362 . S
C1711 H1701 0.930 . S
C1711 C1704 1.409 . S
C1711 C1710 1.362 . S
H1712 C1718 0.930 . S
H1713 C1721 0.930 . S
H1714 C1722 0.930 . S
H1715 C1723 0.930 . S
H1716 C1726 0.930 . S
H1717 C1727 0.930 . S
C1718 H1712 0.930 . S
C1718 C1719 1.355 . S
C1718 C1720 1.415 . S
C1719 C1718 1.355 . S
C1719 C1721 1.419 . S
C1720 C1718 1.415 . S
C1720 C1725 1.425 . S
C1720 C1727 1.409 . S
C1721 H1713 0.930 . S
C1721 C1719 1.419 . S
C1721 C1722 1.362 . S
C1722 H1714 0.930 . S
C1722 C1721 1.362 . S
C1722 C1725 1.409 . S
C1723 H1715 0.930 . S
C1723 C1724 1.355 . S
C1723 C1725 1.415 . S
C1724 C1723 1.355 . S
C1724 C1726 1.419 . S
C1725 C1720 1.425 . S
C1725 C1722 1.409 . S
C1725 C1723 1.415 . S
C1726 H1716 0.930 . S
C1726 C1724 1.419 . S
C1726 C1727 1.362 . S
C1727 H1717 0.930 . S
C1727 C1720 1.409 . S
C1727 C1726 1.362 . S
H1728 C1734 0.930 . S
H1729 C1737 0.930 . S
H1730 C1738 0.930 . S
H1731 C1739 0.930 . S
H1732 C1742 0.930 . S
H1733 C1743 0.930 . S
C1734 H1728 0.930 . S
C1734 C1735 1.355 . S
C1734 C1736 1.415 . S
C1735 C1734 1.355 . S
C1735 C1737 1.419 . S
C1736 C1734 1.415 . S
C1736 C1741 1.425 . S
C1736 C1743 1.409 . S
C1737 H1729 0.930 . S
C1737 C1735 1.419 . S
C1737 C1738 1.362 . S
C1738 H1730 0.930 . S
C1738 C1737 1.362 . S
C1738 C1741 1.409 . S
C1739 H1731 0.930 . S
C1739 C1740 1.355 . S
C1739 C1741 1.415 . S
C1740 C1739 1.355 . S
C1740 C1742 1.419 . S
C1741 C1736 1.425 . S
C1741 C1738 1.409 . S
C1741 C1739 1.415 . S
C1742 H1732 0.930 . S
C1742 C1740 1.419 . S
C1742 C1743 1.362 . S
C1743 H1733 0.930 . S
C1743 C1736 1.409 . S
C1743 C1742 1.362 . S
H1744 C1750 0.930 . S
H1745 C1753 0.930 . S
H1746 C1754 0.930 . S
H1747 C1755 0.930 . S
H1748 C1758 0.930 . S
H1749 C1759 0.930 . S
C1750 H1744 0.930 . S
C1750 C1751 1.355 . S
C1750 C1752 1.415 . S
C1751 C1750 1.355 . S
C1751 C1753 1.419 . S
C1752 C1750 1.415 . S
C1752 C1757 1.425 . S
C1752 C1759 1.409 . S
C1753 H1745 0.930 . S
C1753 C1751 1.419 . S
C1753 C1754 1.362 . S
C1754 H1746 0.930 . S
C1754 C1753 1.362 . S
C1754 C1757 1.409 . S
C1755 H1747 0.930 . S
C1755 C1756 1.355 . S
C1755 C1757 1.415 . S
C1756 C1755 1.355 . S
C1756 C1758 1.419 . S
C1757 C1752 1.425 . S
C1757 C1754 1.409 . S
C1757 C1755 1.415 . S
C1758 H1748 0.930 . S
C1758 C1756 1.419 . S
C1758 C1759 1.362 . S
C1759 H1749 0.930 . S
C1759 C1752 1.409 . S
C1759 C1758 1.362 . S
H1760 C1766 0.930 . S
H1761 C1769 0.930 . S
H1762 C1770 0.930 . S
H1763 C1771 0.930 . S
H1764 C1774 0.930 . S
H1765 C1775 0.930 . S
C1766 H1760 0.930 . S
C1766 C1767 1.355 . S
C1766 C1768 1.415 . S
C1767 C1766 1.355 . S
C1767 C1769 1.419 . S
C1768 C1766 1.415 . S
C1768 C1773 1.425 . S
C1768 C1775 1.409 . S
C1769 H1761 0.930 . S
C1769 C1767 1.419 . S
C1769 C1770 1.362 . S
C1770 H1762 0.930 . S
C1770 C1769 1.362 . S
C1770 C1773 1.409 . S
C1771 H1763 0.930 . S
C1771 C1772 1.355 . S
C1771 C1773 1.415 . S
C1772 C1771 1.355 . S
C1772 C1774 1.419 . S
C1773 C1768 1.425 . S
C1773 C1770 1.409 . S
C1773 C1771 1.415 . S
C1774 H1764 0.930 . S
C1774 C1772 1.419 . S
C1774 C1775 1.362 . S
C1775 H1765 0.930 . S
C1775 C1768 1.409 . S
C1775 C1774 1.362 . S
H1776 C1782 0.930 . S
H1777 C1785 0.930 . S
H1778 C1786 0.929 . S
H1779 C1787 0.930 1_655 S
H1780 C1790 0.930 . S
H1781 C1791 0.936 . S
C1782 H1776 0.930 . S
C1782 C1783 1.355 . S
C1782 C1784 1.415 . S
C1783 C1782 1.355 . S
C1783 C1785 1.419 1_455 S
C1784 C1782 1.415 . S
C1784 C1789 1.413 1_556 S
C1784 C1791 1.411 . S
C1785 H1777 0.930 . S
C1785 C1783 1.419 1_655 S
C1785 C1786 1.362 . S
C1786 H1778 0.929 . S
C1786 C1785 1.362 . S
C1786 C1789 1.406 1_656 S
C1787 H1779 0.930 1_455 S
C1787 C1788 1.355 . S
C1787 C1789 1.430 . S
C1788 C1787 1.355 . S
C1788 C1790 1.419 . S
C1789 C1784 1.413 1_554 S
C1789 C1786 1.406 1_454 S
C1789 C1787 1.430 . S
C1790 H1780 0.930 . S
C1790 C1788 1.419 . S
C1790 C1791 1.355 1_554 S
C1791 H1781 0.936 . S
C1791 C1784 1.411 . S
C1791 C1790 1.355 1_556 S
H1792 C1798 0.930 . S
H1793 C1801 0.930 . S
H1794 C1802 0.914 1_655 S
H1795 C1803 0.930 . S
H1796 C1806 0.930 . S
H1797 C1807 0.930 . S
C1798 H1792 0.930 . S
C1798 C1799 1.355 . S
C1798 C1800 1.415 1_455 S
C1799 C1798 1.355 . S
C1799 C1801 1.419 . S
C1800 C1798 1.415 1_655 S
C1800 C1805 1.425 . S
C1800 C1807 1.409 . S
C1801 H1793 0.930 . S
C1801 C1799 1.419 . S
C1801 C1802 1.386 . S
C1802 H1794 0.914 1_455 S
C1802 C1801 1.386 . S
C1802 C1805 1.402 1_455 S
C1803 H1795 0.930 . S
C1803 C1804 1.355 . S
C1803 C1805 1.415 . S
C1804 C1803 1.355 . S
C1804 C1806 1.419 . S
C1805 C1800 1.425 . S
C1805 C1802 1.402 1_655 S
C1805 C1803 1.415 . S
C1806 H1796 0.930 . S
C1806 C1804 1.419 . S
C1806 C1807 1.362 . S
C1807 H1797 0.930 . S
C1807 C1800 1.409 . S
C1807 C1806 1.362 . S
H1808 C1814 0.930 . S
H1809 C1817 0.930 . S
H1810 C1818 0.930 . S
H1811 C1819 0.930 . S
H1812 C1822 0.930 . S
H1813 C1823 0.930 . S
C1814 H1808 0.930 . S
C1814 C1815 1.355 . S
C1814 C1816 1.415 . S
C1815 C1814 1.355 . S
C1815 C1817 1.419 . S
C1816 C1814 1.415 . S
C1816 C1821 1.425 . S
C1816 C1823 1.409 . S
C1817 H1809 0.930 . S
C1817 C1815 1.419 . S
C1817 C1818 1.362 . S
C1818 H1810 0.930 . S
C1818 C1817 1.362 . S
C1818 C1821 1.409 . S
C1819 H1811 0.930 . S
C1819 C1820 1.355 . S
C1819 C1821 1.415 . S
C1820 C1819 1.355 . S
C1820 C1822 1.419 . S
C1821 C1816 1.425 . S
C1821 C1818 1.409 . S
C1821 C1819 1.415 . S
C1822 H1812 0.930 . S
C1822 C1820 1.419 . S
C1822 C1823 1.362 . S
C1823 H1813 0.930 . S
C1823 C1816 1.409 . S
C1823 C1822 1.362 . S
H1824 C1830 0.930 . S
H1825 C1833 0.930 . S
H1826 C1834 0.930 . S
H1827 C1835 0.930 . S
H1828 C1838 0.930 . S
H1829 C1839 0.930 . S
C1830 H1824 0.930 . S
C1830 C1831 1.355 . S
C1830 C1832 1.415 . S
C1831 C1830 1.355 . S
C1831 C1833 1.419 . S
C1832 C1830 1.415 . S
C1832 C1837 1.425 . S
C1832 C1839 1.409 . S
C1833 H1825 0.930 . S
C1833 C1831 1.419 . S
C1833 C1834 1.362 . S
C1834 H1826 0.930 . S
C1834 C1833 1.362 . S
C1834 C1837 1.409 . S
C1835 H1827 0.930 . S
C1835 C1836 1.355 . S
C1835 C1837 1.415 . S
C1836 C1835 1.355 . S
C1836 C1838 1.419 . S
C1837 C1832 1.425 . S
C1837 C1834 1.409 . S
C1837 C1835 1.415 . S
C1838 H1828 0.930 . S
C1838 C1836 1.419 . S
C1838 C1839 1.362 . S
C1839 H1829 0.930 . S
C1839 C1832 1.409 . S
C1839 C1838 1.362 . S
H1840 C1846 0.930 . S
H1841 C1849 0.930 . S
H1842 C1850 0.930 . S
H1843 C1851 0.930 . S
H1844 C1854 0.930 . S
H1845 C1855 0.930 . S
C1846 H1840 0.930 . S
C1846 C1847 1.355 . S
C1846 C1848 1.415 . S
C1847 C1846 1.355 . S
C1847 C1849 1.419 . S
C1848 C1846 1.415 . S
C1848 C1853 1.425 . S
C1848 C1855 1.409 . S
C1849 H1841 0.930 . S
C1849 C1847 1.419 . S
C1849 C1850 1.362 . S
C1850 H1842 0.930 . S
C1850 C1849 1.362 . S
C1850 C1853 1.409 . S
C1851 H1843 0.930 . S
C1851 C1852 1.355 . S
C1851 C1853 1.415 . S
C1852 C1851 1.355 . S
C1852 C1854 1.419 . S
C1853 C1848 1.425 . S
C1853 C1850 1.409 . S
C1853 C1851 1.415 . S
C1854 H1844 0.930 . S
C1854 C1852 1.419 . S
C1854 C1855 1.362 . S
C1855 H1845 0.930 . S
C1855 C1848 1.409 . S
C1855 C1854 1.362 . S
H1856 C1862 0.930 . S
H1857 C1865 0.930 . S
H1858 C1866 0.930 . S
H1859 C1867 0.930 . S
H1860 C1870 0.930 . S
H1861 C1871 0.930 . S
C1862 H1856 0.930 . S
C1862 C1863 1.355 . S
C1862 C1864 1.415 . S
C1863 C1862 1.355 . S
C1863 C1865 1.419 . S
C1864 C1862 1.415 . S
C1864 C1869 1.425 . S
C1864 C1871 1.409 . S
C1865 H1857 0.930 . S
C1865 C1863 1.419 . S
C1865 C1866 1.362 . S
C1866 H1858 0.930 . S
C1866 C1865 1.362 . S
C1866 C1869 1.409 . S
C1867 H1859 0.930 . S
C1867 C1868 1.355 . S
C1867 C1869 1.415 . S
C1868 C1867 1.355 . S
C1868 C1870 1.419 . S
C1869 C1864 1.425 . S
C1869 C1866 1.409 . S
C1869 C1867 1.415 . S
C1870 H1860 0.930 . S
C1870 C1868 1.419 . S
C1870 C1871 1.362 . S
C1871 H1861 0.930 . S
C1871 C1864 1.409 . S
C1871 C1870 1.362 . S
H1872 C1878 0.930 . S
H1873 C1881 0.930 . S
H1874 C1882 0.930 . S
H1875 C1883 0.930 . S
H1876 C1886 0.930 . S
H1877 C1887 0.930 . S
C1878 H1872 0.930 . S
C1878 C1879 1.355 . S
C1878 C1880 1.415 . S
C1879 C1878 1.355 . S
C1879 C1881 1.419 . S
C1880 C1878 1.415 . S
C1880 C1885 1.425 . S
C1880 C1887 1.409 . S
C1881 H1873 0.930 . S
C1881 C1879 1.419 . S
C1881 C1882 1.362 . S
C1882 H1874 0.930 . S
C1882 C1881 1.362 . S
C1882 C1885 1.409 . S
C1883 H1875 0.930 . S
C1883 C1884 1.355 . S
C1883 C1885 1.415 . S
C1884 C1883 1.355 . S
C1884 C1886 1.419 . S
C1885 C1880 1.425 . S
C1885 C1882 1.409 . S
C1885 C1883 1.415 . S
C1886 H1876 0.930 . S
C1886 C1884 1.419 . S
C1886 C1887 1.362 . S
C1887 H1877 0.930 . S
C1887 C1880 1.409 . S
C1887 C1886 1.362 . S
H1888 C1894 0.940 . S
H1889 C1897 0.930 1_554 S
H1890 C1898 0.930 . S
H1891 C1899 0.930 . S
H1892 C1902 0.930 . S
H1893 C1903 0.930 . S
C1894 H1888 0.940 . S
C1894 C1895 1.368 . S
C1894 C1896 1.392 1_554 S
C1895 C1894 1.368 . S
C1895 C1897 1.419 1_554 S
C1896 C1894 1.392 1_556 S
C1896 C1901 1.425 . S
C1896 C1903 1.409 . S
C1897 H1889 0.930 1_556 S
C1897 C1895 1.419 1_556 S
C1897 C1898 1.362 . S
C1898 H1890 0.930 . S
C1898 C1897 1.362 . S
C1898 C1901 1.409 . S
C1899 H1891 0.930 . S
C1899 C1900 1.355 . S
C1899 C1901 1.415 . S
C1900 C1899 1.355 . S
C1900 C1902 1.419 . S
C1901 C1896 1.425 . S
C1901 C1898 1.409 . S
C1901 C1899 1.415 . S
C1902 H1892 0.930 . S
C1902 C1900 1.419 . S
C1902 C1903 1.362 . S
C1903 H1893 0.930 . S
C1903 C1896 1.409 . S
C1903 C1902 1.362 . S
H1904 C1910 0.930 . S
H1905 C1913 0.930 . S
H1906 C1914 0.930 . S
H1907 C1915 0.930 . S
H1908 C1918 0.930 . S
H1909 C1919 0.930 . S
C1910 H1904 0.930 . S
C1910 C1911 1.355 . S
C1910 C1912 1.415 . S
C1911 C1910 1.355 . S
C1911 C1913 1.419 . S
C1912 C1910 1.415 . S
C1912 C1917 1.425 . S
C1912 C1919 1.409 . S
C1913 H1905 0.930 . S
C1913 C1911 1.419 . S
C1913 C1914 1.362 . S
C1914 H1906 0.930 . S
C1914 C1913 1.362 . S
C1914 C1917 1.409 . S
C1915 H1907 0.930 . S
C1915 C1916 1.355 . S
C1915 C1917 1.415 . S
C1916 C1915 1.355 . S
C1916 C1918 1.419 . S
C1917 C1912 1.425 . S
C1917 C1914 1.409 . S
C1917 C1915 1.415 . S
C1918 H1908 0.930 . S
C1918 C1916 1.419 . S
C1918 C1919 1.362 . S
C1919 H1909 0.930 . S
C1919 C1912 1.409 . S
C1919 C1918 1.362 . S
H1920 C1926 0.930 . S
H1921 C1929 0.930 . S
H1922 C1930 0.930 . S
H1923 C1931 0.930 . S
H1924 C1934 0.930 . S
H1925 C1935 0.930 . S
C1926 H1920 0.930 . S
C1926 C1927 1.355 . S
C1926 C1928 1.415 . S
C1927 C1926 1.355 . S
C1927 C1929 1.419 . S
C1928 C1926 1.415 . S
C1928 C1933 1.425 . S
C1928 C1935 1.409 . S
C1929 H1921 0.930 . S
C1929 C1927 1.419 . S
C1929 C1930 1.362 . S
C1930 H1922 0.930 . S
C1930 C1929 1.362 . S
C1930 C1933 1.409 . S
C1931 H1923 0.930 . S
C1931 C1932 1.355 . S
C1931 C1933 1.415 . S
C1932 C1931 1.355 . S
C1932 C1934 1.419 . S
C1933 C1928 1.425 . S
C1933 C1930 1.409 . S
C1933 C1931 1.415 . S
C1934 H1924 0.930 . S
C1934 C1932 1.419 . S
C1934 C1935 1.362 . S
C1935 H1925 0.930 . S
C1935 C1928 1.409 . S
C1935 C1934 1.362 . S
H1936 C1942 0.930 . S
H1937 C1945 0.930 . S
H1938 C1946 0.930 . S
H1939 C1947 0.930 . S
H1940 C1950 0.930 . S
H1941 C1951 0.930 . S
C1942 H1936 0.930 . S
C1942 C1943 1.355 . S
C1942 C1944 1.415 . S
C1943 C1942 1.355 . S
C1943 C1945 1.419 . S
C1944 C1942 1.415 . S
C1944 C1949 1.425 . S
C1944 C1951 1.409 . S
C1945 H1937 0.930 . S
C1945 C1943 1.419 . S
C1945 C1946 1.362 . S
C1946 H1938 0.930 . S
C1946 C1945 1.362 . S
C1946 C1949 1.409 . S
C1947 H1939 0.930 . S
C1947 C1948 1.355 . S
C1947 C1949 1.415 . S
C1948 C1947 1.355 . S
C1948 C1950 1.419 . S
C1949 C1944 1.425 . S
C1949 C1946 1.409 . S
C1949 C1947 1.415 . S
C1950 H1940 0.930 . S
C1950 C1948 1.419 . S
C1950 C1951 1.362 . S
C1951 H1941 0.930 . S
C1951 C1944 1.409 . S
C1951 C1950 1.362 . S
H1952 C1958 0.930 . S
H1953 C1961 0.930 . S
H1954 C1962 0.930 . S
H1955 C1963 0.930 . S
H1956 C1966 0.930 . S
H1957 C1967 0.930 . S
C1958 H1952 0.930 . S
C1958 C1959 1.355 . S
C1958 C1960 1.415 . S
C1959 C1958 1.355 . S
C1959 C1961 1.419 . S
C1960 C1958 1.415 . S
C1960 C1965 1.425 . S
C1960 C1967 1.409 . S
C1961 H1953 0.930 . S
C1961 C1959 1.419 . S
C1961 C1962 1.362 . S
C1962 H1954 0.930 . S
C1962 C1961 1.362 . S
C1962 C1965 1.409 . S
C1963 H1955 0.930 . S
C1963 C1964 1.355 . S
C1963 C1965 1.415 . S
C1964 C1963 1.355 . S
C1964 C1966 1.419 . S
C1965 C1960 1.425 . S
C1965 C1962 1.409 . S
C1965 C1963 1.415 . S
C1966 H1956 0.930 . S
C1966 C1964 1.419 . S
C1966 C1967 1.362 . S
C1967 H1957 0.930 . S
C1967 C1960 1.409 . S
C1967 C1966 1.362 . S
H1968 C1974 0.930 . S
H1969 C1977 0.930 . S
H1970 C1978 0.930 . S
H1971 C1979 0.930 . S
H1972 C1982 0.930 . S
H1973 C1983 0.930 . S
C1974 H1968 0.930 . S
C1974 C1975 1.355 . S
C1974 C1976 1.415 . S
C1975 C1974 1.355 . S
C1975 C1977 1.419 . S
C1976 C1974 1.415 . S
C1976 C1981 1.425 . S
C1976 C1983 1.409 . S
C1977 H1969 0.930 . S
C1977 C1975 1.419 . S
C1977 C1978 1.362 . S
C1978 H1970 0.930 . S
C1978 C1977 1.362 . S
C1978 C1981 1.409 . S
C1979 H1971 0.930 . S
C1979 C1980 1.355 . S
C1979 C1981 1.415 . S
C1980 C1979 1.355 . S
C1980 C1982 1.419 . S
C1981 C1976 1.425 . S
C1981 C1978 1.409 . S
C1981 C1979 1.415 . S
C1982 H1972 0.930 . S
C1982 C1980 1.419 . S
C1982 C1983 1.362 . S
C1983 H1973 0.930 . S
C1983 C1976 1.409 . S
C1983 C1982 1.362 . S
H1984 C1990 0.930 . S
H1985 C1993 0.930 . S
H1986 C1994 0.930 . S
H1987 C1995 0.930 . S
H1988 C1998 0.930 . S
H1989 C1999 0.930 . S
C1990 H1984 0.930 . S
C1990 C1991 1.355 . S
C1990 C1992 1.415 . S
C1991 C1990 1.355 . S
C1991 C1993 1.419 . S
C1992 C1990 1.415 . S
C1992 C1997 1.425 . S
C1992 C1999 1.409 . S
C1993 H1985 0.930 . S
C1993 C1991 1.419 . S
C1993 C1994 1.362 . S
C1994 H1986 0.930 . S
C1994 C1993 1.362 . S
C1994 C1997 1.409 . S
C1995 H1987 0.930 . S
C1995 C1996 1.355 . S
C1995 C1997 1.415 . S
C1996 C1995 1.355 . S
C1996 C1998 1.419 . S
C1997 C1992 1.425 . S
C1997 C1994 1.409 . S
C1997 C1995 1.415 . S
C1998 H1988 0.930 . S
C1998 C1996 1.419 . S
C1998 C1999 1.362 . S
C1999 H1989 0.930 . S
C1999 C1992 1.409 . S
C1999 C1998 1.362 . S
H2000 C2006 0.930 . S
H2001 C2009 0.930 . S
H2002 C2010 0.930 . S
H2003 C2011 0.930 . S
H2004 C2014 0.930 . S
H2005 C2015 0.930 . S
C2006 H2000 0.930 . S
C2006 C2007 1.355 . S
C2006 C2008 1.415 . S
C2007 C2006 1.355 . S
C2007 C2009 1.419 . S
C2008 C2006 1.415 . S
C2008 C2013 1.425 . S
C2008 C2015 1.409 . S
C2009 H2001 0.930 . S
C2009 C2007 1.419 . S
C2009 C2010 1.362 . S
C2010 H2002 0.930 . S
C2010 C2009 1.362 . S
C2010 C2013 1.409 . S
C2011 H2003 0.930 . S
C2011 C2012 1.355 . S
C2011 C2013 1.415 . S
C2012 C2011 1.355 . S
C2012 C2014 1.419 . S
C2013 C2008 1.425 . S
C2013 C2010 1.409 . S
C2013 C2011 1.415 . S
C2014 H2004 0.930 . S
C2014 C2012 1.419 . S
C2014 C2015 1.362 . S
C2015 H2005 0.930 . S
C2015 C2008 1.409 . S
C2015 C2014 1.362 . S
H2016 C2022 0.930 . S
H2017 C2025 0.930 . S
H2018 C2026 0.930 . S
H2019 C2027 0.930 . S
H2020 C2030 0.930 . S
H2021 C2031 0.930 . S
C2022 H2016 0.930 . S
C2022 C2023 1.355 . S
C2022 C2024 1.415 . S
C2023 C2022 1.355 . S
C2023 C2025 1.419 . S
C2024 C2022 1.415 . S
C2024 C2029 1.425 . S
C2024 C2031 1.409 . S
C2025 H2017 0.930 . S
C2025 C2023 1.419 . S
C2025 C2026 1.362 . S
C2026 H2018 0.930 . S
C2026 C2025 1.362 . S
C2026 C2029 1.409 . S
C2027 H2019 0.930 . S
C2027 C2028 1.355 . S
C2027 C2029 1.415 . S
C2028 C2027 1.355 . S
C2028 C2030 1.419 . S
C2029 C2024 1.425 . S
C2029 C2026 1.409 . S
C2029 C2027 1.415 . S
C2030 H2020 0.930 . S
C2030 C2028 1.419 . S
C2030 C2031 1.362 . S
C2031 H2021 0.930 . S
C2031 C2024 1.409 . S
C2031 C2030 1.362 . S
H2032 C2038 0.930 1_545 S
H2033 C2041 0.930 1_545 S
H2034 C2042 0.930 . S
H2035 C2043 0.930 . S
H2036 C2046 0.930 . S
H2037 C2047 0.930 . S
C2038 H2032 0.930 1_565 S
C2038 C2039 1.355 1_565 S
C2038 C2040 1.415 . S
C2039 C2038 1.355 1_545 S
C2039 C2041 1.419 1_545 S
C2040 C2038 1.415 . S
C2040 C2045 1.425 . S
C2040 C2047 1.409 . S
C2041 H2033 0.930 1_565 S
C2041 C2039 1.419 1_565 S
C2041 C2042 1.362 . S
C2042 H2034 0.930 . S
C2042 C2041 1.362 . S
C2042 C2045 1.409 . S
C2043 H2035 0.930 . S
C2043 C2044 1.355 . S
C2043 C2045 1.415 . S
C2044 C2043 1.355 . S
C2044 C2046 1.419 . S
C2045 C2040 1.425 . S
C2045 C2042 1.409 . S
C2045 C2043 1.415 . S
C2046 H2036 0.930 . S
C2046 C2044 1.419 . S
C2046 C2047 1.362 . S
C2047 H2037 0.930 . S
C2047 C2040 1.409 . S
C2047 C2046 1.362 . S
H2048 C2054 0.930 . S
H2049 C2057 0.930 . S
H2050 C2058 0.930 . S
H2051 C2059 0.930 1_556 S
H2052 C2062 0.930 . S
H2053 C2063 0.930 . S
C2054 H2048 0.930 . S
C2054 C2055 1.355 1_554 S
C2054 C2056 1.415 . S
C2055 C2054 1.355 1_556 S
C2055 C2057 1.419 . S
C2056 C2054 1.415 . S
C2056 C2061 1.425 . S
C2056 C2063 1.409 1_565 S
C2057 H2049 0.930 . S
C2057 C2055 1.419 . S
C2057 C2058 1.362 . S
C2058 H2050 0.930 . S
C2058 C2057 1.362 . S
C2058 C2061 1.416 1_556 S
C2059 H2051 0.930 1_554 S
C2059 C2060 1.355 . S
C2059 C2061 1.410 1_545 S
C2060 C2059 1.355 . S
C2060 C2062 1.419 . S
C2061 C2056 1.425 . S
C2061 C2058 1.416 1_554 S
C2061 C2059 1.410 1_565 S
C2062 H2052 0.930 . S
C2062 C2060 1.419 . S
C2062 C2063 1.362 . S
C2063 H2053 0.930 . S
C2063 C2056 1.409 1_545 S
C2063 C2062 1.362 . S
H2064 C2070 0.930 . S
H2065 C2073 0.930 . S
H2066 C2074 0.930 . S
H2067 C2075 0.930 . S
H2068 C2078 0.930 . S
H2069 C2079 0.930 . S
C2070 H2064 0.930 . S
C2070 C2071 1.355 . S
C2070 C2072 1.415 . S
C2071 C2070 1.355 . S
C2071 C2073 1.419 . S
C2072 C2070 1.415 . S
C2072 C2077 1.425 . S
C2072 C2079 1.409 . S
C2073 H2065 0.930 . S
C2073 C2071 1.419 . S
C2073 C2074 1.362 . S
C2074 H2066 0.930 . S
C2074 C2073 1.362 . S
C2074 C2077 1.409 . S
C2075 H2067 0.930 . S
C2075 C2076 1.355 . S
C2075 C2077 1.415 . S
C2076 C2075 1.355 . S
C2076 C2078 1.419 . S
C2077 C2072 1.425 . S
C2077 C2074 1.409 . S
C2077 C2075 1.415 . S
C2078 H2068 0.930 . S
C2078 C2076 1.419 . S
C2078 C2079 1.362 . S
C2079 H2069 0.930 . S
C2079 C2072 1.409 . S
C2079 C2078 1.362 . S
H2080 C2086 0.930 . S
H2081 C2089 0.930 . S
H2082 C2090 0.930 . S
H2083 C2091 0.930 . S
H2084 C2094 0.930 . S
H2085 C2095 0.930 . S
C2086 H2080 0.930 . S
C2086 C2087 1.355 . S
C2086 C2088 1.415 . S
C2087 C2086 1.355 . S
C2087 C2089 1.419 . S
C2088 C2086 1.415 . S
C2088 C2093 1.425 . S
C2088 C2095 1.409 . S
C2089 H2081 0.930 . S
C2089 C2087 1.419 . S
C2089 C2090 1.362 . S
C2090 H2082 0.930 . S
C2090 C2089 1.362 . S
C2090 C2093 1.409 . S
C2091 H2083 0.930 . S
C2091 C2092 1.355 . S
C2091 C2093 1.415 . S
C2092 C2091 1.355 . S
C2092 C2094 1.419 . S
C2093 C2088 1.425 . S
C2093 C2090 1.409 . S
C2093 C2091 1.415 . S
C2094 H2084 0.930 . S
C2094 C2092 1.419 . S
C2094 C2095 1.362 . S
C2095 H2085 0.930 . S
C2095 C2088 1.409 . S
C2095 C2094 1.362 . S
H2096 C2102 0.930 . S
H2097 C2105 0.930 . S
H2098 C2106 0.930 . S
H2099 C2107 0.930 . S
H2100 C2110 0.930 . S
H2101 C2111 0.930 . S
C2102 H2096 0.930 . S
C2102 C2103 1.355 . S
C2102 C2104 1.415 . S
C2103 C2102 1.355 . S
C2103 C2105 1.419 . S
C2104 C2102 1.415 . S
C2104 C2109 1.425 . S
C2104 C2111 1.409 . S
C2105 H2097 0.930 . S
C2105 C2103 1.419 . S
C2105 C2106 1.362 . S
C2106 H2098 0.930 . S
C2106 C2105 1.362 . S
C2106 C2109 1.409 . S
C2107 H2099 0.930 . S
C2107 C2108 1.355 . S
C2107 C2109 1.415 . S
C2108 C2107 1.355 . S
C2108 C2110 1.419 . S
C2109 C2104 1.425 . S
C2109 C2106 1.409 . S
C2109 C2107 1.415 . S
C2110 H2100 0.930 . S
C2110 C2108 1.419 . S
C2110 C2111 1.362 . S
C2111 H2101 0.930 . S
C2111 C2104 1.409 . S
C2111 C2110 1.362 . S
H2112 C2118 0.930 . S
H2113 C2121 0.930 . S
H2114 C2122 0.930 . S
H2115 C2123 0.930 . S
H2116 C2126 0.930 . S
H2117 C2127 0.930 . S
C2118 H2112 0.930 . S
C2118 C2119 1.355 . S
C2118 C2120 1.415 . S
C2119 C2118 1.355 . S
C2119 C2121 1.419 . S
C2120 C2118 1.415 . S
C2120 C2125 1.425 . S
C2120 C2127 1.409 . S
C2121 H2113 0.930 . S
C2121 C2119 1.419 . S
C2121 C2122 1.362 . S
C2122 H2114 0.930 . S
C2122 C2121 1.362 . S
C2122 C2125 1.409 . S
C2123 H2115 0.930 . S
C2123 C2124 1.355 . S
C2123 C2125 1.415 . S
C2124 C2123 1.355 . S
C2124 C2126 1.419 . S
C2125 C2120 1.425 . S
C2125 C2122 1.409 . S
C2125 C2123 1.415 . S
C2126 H2116 0.930 . S
C2126 C2124 1.419 . S
C2126 C2127 1.362 . S
C2127 H2117 0.930 . S
C2127 C2120 1.409 . S
C2127 C2126 1.362 . S
H2128 C2134 0.930 . S
H2129 C2137 0.930 . S
H2130 C2138 0.930 . S
H2131 C2139 0.930 . S
H2132 C2142 0.930 . S
H2133 C2143 0.930 . S
C2134 H2128 0.930 . S
C2134 C2135 1.355 . S
C2134 C2136 1.415 . S
C2135 C2134 1.355 . S
C2135 C2137 1.419 . S
C2136 C2134 1.415 . S
C2136 C2141 1.425 . S
C2136 C2143 1.409 . S
C2137 H2129 0.930 . S
C2137 C2135 1.419 . S
C2137 C2138 1.362 . S
C2138 H2130 0.930 . S
C2138 C2137 1.362 . S
C2138 C2141 1.409 . S
C2139 H2131 0.930 . S
C2139 C2140 1.355 . S
C2139 C2141 1.415 . S
C2140 C2139 1.355 . S
C2140 C2142 1.419 . S
C2141 C2136 1.425 . S
C2141 C2138 1.409 . S
C2141 C2139 1.415 . S
C2142 H2132 0.930 . S
C2142 C2140 1.419 . S
C2142 C2143 1.362 . S
C2143 H2133 0.930 . S
C2143 C2136 1.409 . S
C2143 C2142 1.362 . S
H2144 C2150 0.930 . S
H2145 C2153 0.930 . S
H2146 C2154 0.930 . S
H2147 C2155 0.930 . S
H2148 C2158 0.930 . S
H2149 C2159 0.930 . S
C2150 H2144 0.930 . S
C2150 C2151 1.355 . S
C2150 C2152 1.415 . S
C2151 C2150 1.355 . S
C2151 C2153 1.419 . S
C2152 C2150 1.415 . S
C2152 C2157 1.425 . S
C2152 C2159 1.409 . S
C2153 H2145 0.930 . S
C2153 C2151 1.419 . S
C2153 C2154 1.362 . S
C2154 H2146 0.930 . S
C2154 C2153 1.362 . S
C2154 C2157 1.409 . S
C2155 H2147 0.930 . S
C2155 C2156 1.355 . S
C2155 C2157 1.415 . S
C2156 C2155 1.355 . S
C2156 C2158 1.419 . S
C2157 C2152 1.425 . S
C2157 C2154 1.409 . S
C2157 C2155 1.415 . S
C2158 H2148 0.930 . S
C2158 C2156 1.419 . S
C2158 C2159 1.362 . S
C2159 H2149 0.930 . S
C2159 C2152 1.409 . S
C2159 C2158 1.362 . S
H2160 C2166 0.930 . S
H2161 C2169 0.930 . S
H2162 C2170 0.930 . S
H2163 C2171 0.930 . S
H2164 C2174 0.930 . S
H2165 C2175 0.930 . S
C2166 H2160 0.930 . S
C2166 C2167 1.355 . S
C2166 C2168 1.415 . S
C2167 C2166 1.355 . S
C2167 C2169 1.419 . S
C2168 C2166 1.415 . S
C2168 C2173 1.425 . S
C2168 C2175 1.409 . S
C2169 H2161 0.930 . S
C2169 C2167 1.419 . S
C2169 C2170 1.362 . S
C2170 H2162 0.930 . S
C2170 C2169 1.362 . S
C2170 C2173 1.409 . S
C2171 H2163 0.930 . S
C2171 C2172 1.355 . S
C2171 C2173 1.415 . S
C2172 C2171 1.355 . S
C2172 C2174 1.419 . S
C2173 C2168 1.425 . S
C2173 C2170 1.409 . S
C2173 C2171 1.415 . S
C2174 H2164 0.930 . S
C2174 C2172 1.419 . S
C2174 C2175 1.362 . S
C2175 H2165 0.930 . S
C2175 C2168 1.409 . S
C2175 C2174 1.362 . S
H2176 C2182 0.930 . S
H2177 C2185 0.930 . S
H2178 C2186 0.930 . S
H2179 C2187 0.930 . S
H2180 C2190 0.930 . S
H2181 C2191 0.930 . S
C2182 H2176 0.930 . S
C2182 C2183 1.355 . S
C2182 C2184 1.415 . S
C2183 C2182 1.355 . S
C2183 C2185 1.419 . S
C2184 C2182 1.415 . S
C2184 C2189 1.425 . S
C2184 C2191 1.409 . S
C2185 H2177 0.930 . S
C2185 C2183 1.419 . S
C2185 C2186 1.362 . S
C2186 H2178 0.930 . S
C2186 C2185 1.362 . S
C2186 C2189 1.409 . S
C2187 H2179 0.930 . S
C2187 C2188 1.355 . S
C2187 C2189 1.415 . S
C2188 C2187 1.355 . S
C2188 C2190 1.419 . S
C2189 C2184 1.425 . S
C2189 C2186 1.409 . S
C2189 C2187 1.415 . S
C2190 H2180 0.930 . S
C2190 C2188 1.419 . S
C2190 C2191 1.362 . S
C2191 H2181 0.930 . S
C2191 C2184 1.409 . S
C2191 C2190 1.362 . S
H2192 C2198 0.930 . S
H2193 C2201 0.930 . S
H2194 C2202 0.930 . S
H2195 C2203 0.930 . S
H2196 C2206 0.930 . S
H2197 C2207 0.930 . S
C2198 H2192 0.930 . S
C2198 C2199 1.355 . S
C2198 C2200 1.415 . S
C2199 C2198 1.355 . S
C2199 C2201 1.419 . S
C2200 C2198 1.415 . S
C2200 C2205 1.425 . S
C2200 C2207 1.409 . S
C2201 H2193 0.930 . S
C2201 C2199 1.419 . S
C2201 C2202 1.362 . S
C2202 H2194 0.930 . S
C2202 C2201 1.362 . S
C2202 C2205 1.409 . S
C2203 H2195 0.930 . S
C2203 C2204 1.355 . S
C2203 C2205 1.415 . S
C2204 C2203 1.355 . S
C2204 C2206 1.419 1_556 S
C2205 C2200 1.425 . S
C2205 C2202 1.409 . S
C2205 C2203 1.415 . S
C2206 H2196 0.930 . S
C2206 C2204 1.419 1_554 S
C2206 C2207 1.362 1_554 S
C2207 H2197 0.930 . S
C2207 C2200 1.409 . S
C2207 C2206 1.362 1_556 S
H2208 C2214 0.930 . S
H2209 C2217 0.930 . S
H2210 C2218 0.930 . S
H2211 C2219 0.930 . S
H2212 C2222 0.930 . S
H2213 C2223 0.930 . S
C2214 H2208 0.930 . S
C2214 C2215 1.355 . S
C2214 C2216 1.415 . S
C2215 C2214 1.355 . S
C2215 C2217 1.419 . S
C2216 C2214 1.415 . S
C2216 C2221 1.425 . S
C2216 C2223 1.409 . S
C2217 H2209 0.930 . S
C2217 C2215 1.419 . S
C2217 C2218 1.362 . S
C2218 H2210 0.930 . S
C2218 C2217 1.362 . S
C2218 C2221 1.409 . S
C2219 H2211 0.930 . S
C2219 C2220 1.355 . S
C2219 C2221 1.415 . S
C2220 C2219 1.355 . S
C2220 C2222 1.419 . S
C2221 C2216 1.425 . S
C2221 C2218 1.409 . S
C2221 C2219 1.415 . S
C2222 H2212 0.930 . S
C2222 C2220 1.419 . S
C2222 C2223 1.362 . S
C2223 H2213 0.930 . S
C2223 C2216 1.409 . S
C2223 C2222 1.362 . S
H2224 C2230 0.930 . S
H2225 C2233 0.930 . S
H2226 C2234 0.930 . S
H2227 C2235 0.930 . S
H2228 C2238 0.930 . S
H2229 C2239 0.930 . S
C2230 H2224 0.930 . S
C2230 C2231 1.355 . S
C2230 C2232 1.415 . S
C2231 C2230 1.355 . S
C2231 C2233 1.419 . S
C2232 C2230 1.415 . S
C2232 C2237 1.425 . S
C2232 C2239 1.409 . S
C2233 H2225 0.930 . S
C2233 C2231 1.419 . S
C2233 C2234 1.362 . S
C2234 H2226 0.930 . S
C2234 C2233 1.362 . S
C2234 C2237 1.409 . S
C2235 H2227 0.930 . S
C2235 C2236 1.355 . S
C2235 C2237 1.415 . S
C2236 C2235 1.355 . S
C2236 C2238 1.419 . S
C2237 C2232 1.425 . S
C2237 C2234 1.409 . S
C2237 C2235 1.415 . S
C2238 H2228 0.930 . S
C2238 C2236 1.419 . S
C2238 C2239 1.362 . S
C2239 H2229 0.930 . S
C2239 C2232 1.409 . S
C2239 C2238 1.362 . S
H2240 C2246 0.930 . S
H2241 C2249 0.930 . S
H2242 C2250 0.930 . S
H2243 C2251 0.930 . S
H2244 C2254 0.930 . S
H2245 C2255 0.930 . S
C2246 H2240 0.930 . S
C2246 C2247 1.355 . S
C2246 C2248 1.415 . S
C2247 C2246 1.355 . S
C2247 C2249 1.419 . S
C2248 C2246 1.415 . S
C2248 C2253 1.425 . S
C2248 C2255 1.409 . S
C2249 H2241 0.930 . S
C2249 C2247 1.419 . S
C2249 C2250 1.362 . S
C2250 H2242 0.930 . S
C2250 C2249 1.362 . S
C2250 C2253 1.409 . S
C2251 H2243 0.930 . S
C2251 C2252 1.355 . S
C2251 C2253 1.415 . S
C2252 C2251 1.355 . S
C2252 C2254 1.419 . S
C2253 C2248 1.425 . S
C2253 C2250 1.409 . S
C2253 C2251 1.415 . S
C2254 H2244 0.930 . S
C2254 C2252 1.419 . S
C2254 C2255 1.362 . S
C2255 H2245 0.930 . S
C2255 C2248 1.409 . S
C2255 C2254 1.362 . S
H2256 C2262 0.930 . S
H2257 C2265 0.930 . S
H2258 C2266 0.930 . S
H2259 C2267 0.930 . S
H2260 C2270 0.930 . S
H2261 C2271 0.930 . S
C2262 H2256 0.930 . S
C2262 C2263 1.355 . S
C2262 C2264 1.415 . S
C2263 C2262 1.355 . S
C2263 C2265 1.419 . S
C2264 C2262 1.415 . S
C2264 C2269 1.425 . S
C2264 C2271 1.409 . S
C2265 H2257 0.930 . S
C2265 C2263 1.419 . S
C2265 C2266 1.362 . S
C2266 H2258 0.930 . S
C2266 C2265 1.362 . S
C2266 C2269 1.409 . S
C2267 H2259 0.930 . S
C2267 C2268 1.355 . S
C2267 C2269 1.415 . S
C2268 C2267 1.355 . S
C2268 C2270 1.419 . S
C2269 C2264 1.425 . S
C2269 C2266 1.409 . S
C2269 C2267 1.415 . S
C2270 H2260 0.930 . S
C2270 C2268 1.419 . S
C2270 C2271 1.362 . S
C2271 H2261 0.930 . S
C2271 C2264 1.409 . S
C2271 C2270 1.362 . S
H2272 C2278 0.930 . S
H2273 C2281 0.930 . S
H2274 C2282 0.930 . S
H2275 C2283 0.930 . S
H2276 C2286 0.930 . S
H2277 C2287 0.930 . S
C2278 H2272 0.930 . S
C2278 C2279 1.355 . S
C2278 C2280 1.415 . S
C2279 C2278 1.355 . S
C2279 C2281 1.419 . S
C2280 C2278 1.415 . S
C2280 C2285 1.425 . S
C2280 C2287 1.409 . S
C2281 H2273 0.930 . S
C2281 C2279 1.419 . S
C2281 C2282 1.362 . S
C2282 H2274 0.930 . S
C2282 C2281 1.362 . S
C2282 C2285 1.409 . S
C2283 H2275 0.930 . S
C2283 C2284 1.355 . S
C2283 C2285 1.415 . S
C2284 C2283 1.355 . S
C2284 C2286 1.419 . S
C2285 C2280 1.425 . S
C2285 C2282 1.409 . S
C2285 C2283 1.415 . S
C2286 H2276 0.930 . S
C2286 C2284 1.419 . S
C2286 C2287 1.362 . S
C2287 H2277 0.930 . S
C2287 C2280 1.409 . S
C2287 C2286 1.362 . S
H2288 C2294 0.930 . S
H2289 C2297 0.930 . S
H2290 C2298 0.930 . S
H2291 C2299 0.930 . S
H2292 C2302 0.930 . S
H2293 C2303 0.933 . S
C2294 H2288 0.930 . S
C2294 C2295 1.355 . S
C2294 C2296 1.415 . S
C2295 C2294 1.355 . S
C2295 C2297 1.419 . S
C2296 C2294 1.415 . S
C2296 C2301 1.425 1_655 S
C2296 C2303 1.409 . S
C2297 H2289 0.930 . S
C2297 C2295 1.419 . S
C2297 C2298 1.362 1_655 S
C2298 H2290 0.930 . S
C2298 C2297 1.362 1_455 S
C2298 C2301 1.409 . S
C2299 H2291 0.930 . S
C2299 C2300 1.355 . S
C2299 C2301 1.415 . S
C2300 C2299 1.355 . S
C2300 C2302 1.419 . S
C2301 C2296 1.425 1_455 S
C2301 C2298 1.409 . S
C2301 C2299 1.415 . S
C2302 H2292 0.930 . S
C2302 C2300 1.419 . S
C2302 C2303 1.360 1_455 S
C2303 H2293 0.933 . S
C2303 C2296 1.409 . S
C2303 C2302 1.360 1_655 S
H2304 C2310 0.930 . S
H2305 C2313 0.930 . S
H2306 C2314 0.930 . S
H2307 C2315 0.930 . S
H2308 C2318 0.930 . S
H2309 C2319 0.930 . S
C2310 H2304 0.930 . S
C2310 C2311 1.355 . S
C2310 C2312 1.415 . S
C2311 C2310 1.355 . S
C2311 C2313 1.419 . S
C2312 C2310 1.415 . S
C2312 C2317 1.425 . S
C2312 C2319 1.409 . S
C2313 H2305 0.930 . S
C2313 C2311 1.419 . S
C2313 C2314 1.362 . S
C2314 H2306 0.930 . S
C2314 C2313 1.362 . S
C2314 C2317 1.409 . S
C2315 H2307 0.930 . S
C2315 C2316 1.355 . S
C2315 C2317 1.415 . S
C2316 C2315 1.355 . S
C2316 C2318 1.419 . S
C2317 C2312 1.425 . S
C2317 C2314 1.409 . S
C2317 C2315 1.415 . S
C2318 H2308 0.930 . S
C2318 C2316 1.419 . S
C2318 C2319 1.362 . S
C2319 H2309 0.930 . S
C2319 C2312 1.409 . S
C2319 C2318 1.362 . S
H2320 C2326 0.930 . S
H2321 C2329 0.930 . S
H2322 C2330 0.930 . S
H2323 C2331 0.930 . S
H2324 C2334 0.930 . S
H2325 C2335 0.930 . S
C2326 H2320 0.930 . S
C2326 C2327 1.355 . S
C2326 C2328 1.415 . S
C2327 C2326 1.355 . S
C2327 C2329 1.419 . S
C2328 C2326 1.415 . S
C2328 C2333 1.425 . S
C2328 C2335 1.409 . S
C2329 H2321 0.930 . S
C2329 C2327 1.419 . S
C2329 C2330 1.362 . S
C2330 H2322 0.930 . S
C2330 C2329 1.362 . S
C2330 C2333 1.409 . S
C2331 H2323 0.930 . S
C2331 C2332 1.355 . S
C2331 C2333 1.415 . S
C2332 C2331 1.355 . S
C2332 C2334 1.419 . S
C2333 C2328 1.425 . S
C2333 C2330 1.409 . S
C2333 C2331 1.415 . S
C2334 H2324 0.930 . S
C2334 C2332 1.419 . S
C2334 C2335 1.362 . S
C2335 H2325 0.930 . S
C2335 C2328 1.409 . S
C2335 C2334 1.362 . S
H2336 C2342 0.930 . S
H2337 C2345 0.930 . S
H2338 C2346 0.930 . S
H2339 C2347 0.930 . S
H2340 C2350 0.930 . S
H2341 C2351 0.930 . S
C2342 H2336 0.930 . S
C2342 C2343 1.355 . S
C2342 C2344 1.415 . S
C2343 C2342 1.355 . S
C2343 C2345 1.419 . S
C2344 C2342 1.415 . S
C2344 C2349 1.425 . S
C2344 C2351 1.409 . S
C2345 H2337 0.930 . S
C2345 C2343 1.419 . S
C2345 C2346 1.362 . S
C2346 H2338 0.930 . S
C2346 C2345 1.362 . S
C2346 C2349 1.409 . S
C2347 H2339 0.930 . S
C2347 C2348 1.355 . S
C2347 C2349 1.415 . S
C2348 C2347 1.355 . S
C2348 C2350 1.419 . S
C2349 C2344 1.425 . S
C2349 C2346 1.409 . S
C2349 C2347 1.415 . S
C2350 H2340 0.930 . S
C2350 C2348 1.419 . S
C2350 C2351 1.362 . S
C2351 H2341 0.930 . S
C2351 C2344 1.409 . S
C2351 C2350 1.362 . S
H2352 C2358 0.930 . S
H2353 C2361 0.930 . S
H2354 C2362 0.930 . S
H2355 C2363 0.924 1_455 S
H2356 C2366 0.930 . S
H2357 C2367 0.930 . S
C2358 H2352 0.930 . S
C2358 C2359 1.355 . S
C2358 C2360 1.415 . S
C2359 C2358 1.355 . S
C2359 C2361 1.419 . S
C2360 C2358 1.415 . S
C2360 C2365 1.425 . S
C2360 C2367 1.409 . S
C2361 H2353 0.930 . S
C2361 C2359 1.419 . S
C2361 C2362 1.362 . S
C2362 H2354 0.930 . S
C2362 C2361 1.362 . S
C2362 C2365 1.409 . S
C2363 H2355 0.924 1_655 S
C2363 C2364 1.355 1_655 S
C2363 C2365 1.415 . S
C2364 C2363 1.355 1_455 S
C2364 C2366 1.419 . S
C2365 C2360 1.425 . S
C2365 C2362 1.409 . S
C2365 C2363 1.415 . S
C2366 H2356 0.930 . S
C2366 C2364 1.419 . S
C2366 C2367 1.362 1_455 S
C2367 H2357 0.930 . S
C2367 C2360 1.409 . S
C2367 C2366 1.362 1_655 S
H2368 C2374 0.930 . S
H2369 C2377 0.930 . S
H2370 C2378 0.930 . S
H2371 C2379 0.930 . S
H2372 C2382 0.930 . S
H2373 C2383 0.930 . S
C2374 H2368 0.930 . S
C2374 C2375 1.355 . S
C2374 C2376 1.415 . S
C2375 C2374 1.355 . S
C2375 C2377 1.419 . S
C2376 C2374 1.415 . S
C2376 C2381 1.425 . S
C2376 C2383 1.409 . S
C2377 H2369 0.930 . S
C2377 C2375 1.419 . S
C2377 C2378 1.362 . S
C2378 H2370 0.930 . S
C2378 C2377 1.362 . S
C2378 C2381 1.409 . S
C2379 H2371 0.930 . S
C2379 C2380 1.355 . S
C2379 C2381 1.415 . S
C2380 C2379 1.355 . S
C2380 C2382 1.419 . S
C2381 C2376 1.425 . S
C2381 C2378 1.409 . S
C2381 C2379 1.415 . S
C2382 H2372 0.930 . S
C2382 C2380 1.419 . S
C2382 C2383 1.362 . S
C2383 H2373 0.930 . S
C2383 C2376 1.409 . S
C2383 C2382 1.362 . S
H2384 C2390 0.930 . S
H2385 C2393 0.930 . S
H2386 C2394 0.930 . S
H2387 C2395 0.930 . S
H2388 C2398 0.930 . S
H2389 C2399 0.930 . S
C2390 H2384 0.930 . S
C2390 C2391 1.355 . S
C2390 C2392 1.415 . S
C2391 C2390 1.355 . S
C2391 C2393 1.419 . S
C2392 C2390 1.415 . S
C2392 C2397 1.425 . S
C2392 C2399 1.409 . S
C2393 H2385 0.930 . S
C2393 C2391 1.419 . S
C2393 C2394 1.362 . S
C2394 H2386 0.930 . S
C2394 C2393 1.362 . S
C2394 C2397 1.409 . S
C2395 H2387 0.930 . S
C2395 C2396 1.355 . S
C2395 C2397 1.415 . S
C2396 C2395 1.355 . S
C2396 C2398 1.419 . S
C2397 C2392 1.425 . S
C2397 C2394 1.409 . S
C2397 C2395 1.415 . S
C2398 H2388 0.930 . S
C2398 C2396 1.419 . S
C2398 C2399 1.362 . S
C2399 H2389 0.930 . S
C2399 C2392 1.409 . S
C2399 C2398 1.362 . S
H2400 C2406 0.930 . S
H2401 C2409 0.930 . S
H2402 C2410 0.930 . S
H2403 C2411 0.930 . S
H2404 C2414 0.930 . S
H2405 C2415 0.930 1_545 S
C2406 H2400 0.930 . S
C2406 C2407 1.355 . S
C2406 C2408 1.415 . S
C2407 C2406 1.355 . S
C2407 C2409 1.419 . S
C2408 C2406 1.415 . S
C2408 C2413 1.425 . S
C2408 C2415 1.409 . S
C2409 H2401 0.930 . S
C2409 C2407 1.419 . S
C2409 C2410 1.362 . S
C2410 H2402 0.930 . S
C2410 C2409 1.362 . S
C2410 C2413 1.409 . S
C2411 H2403 0.930 . S
C2411 C2412 1.331 1_565 S
C2411 C2413 1.415 . S
C2412 C2411 1.331 1_545 S
C2412 C2414 1.436 . S
C2413 C2408 1.425 . S
C2413 C2410 1.409 . S
C2413 C2411 1.415 . S
C2414 H2404 0.930 . S
C2414 C2412 1.436 . S
C2414 C2415 1.362 1_545 S
C2415 H2405 0.930 1_565 S
C2415 C2408 1.409 . S
C2415 C2414 1.362 1_565 S
H2416 C2422 0.930 . S
H2417 C2425 0.930 . S
H2418 C2426 0.930 . S
H2419 C2427 0.930 . S
H2420 C2430 0.930 . S
H2421 C2431 0.930 . S
C2422 H2416 0.930 . S
C2422 C2423 1.355 . S
C2422 C2424 1.415 . S
C2423 C2422 1.355 . S
C2423 C2425 1.419 . S
C2424 C2422 1.415 . S
C2424 C2429 1.425 . S
C2424 C2431 1.409 . S
C2425 H2417 0.930 . S
C2425 C2423 1.419 . S
C2425 C2426 1.362 . S
C2426 H2418 0.930 . S
C2426 C2425 1.362 . S
C2426 C2429 1.409 . S
C2427 H2419 0.930 . S
C2427 C2428 1.355 . S
C2427 C2429 1.415 . S
C2428 C2427 1.355 . S
C2428 C2430 1.419 . S
C2429 C2424 1.425 . S
C2429 C2426 1.409 . S
C2429 C2427 1.415 . S
C2430 H2420 0.930 . S
C2430 C2428 1.419 . S
C2430 C2431 1.362 . S
C2431 H2421 0.930 . S
C2431 C2424 1.409 . S
C2431 C2430 1.362 . S
H2432 C2438 0.930 . S
H2433 C2441 0.930 . S
H2434 C2442 0.930 . S
H2435 C2443 0.930 . S
H2436 C2446 0.930 . S
H2437 C2447 0.930 . S
C2438 H2432 0.930 . S
C2438 C2439 1.355 . S
C2438 C2440 1.415 . S
C2439 C2438 1.355 . S
C2439 C2441 1.419 . S
C2440 C2438 1.415 . S
C2440 C2445 1.425 . S
C2440 C2447 1.409 . S
C2441 H2433 0.930 . S
C2441 C2439 1.419 . S
C2441 C2442 1.362 . S
C2442 H2434 0.930 . S
C2442 C2441 1.362 . S
C2442 C2445 1.409 . S
C2443 H2435 0.930 . S
C2443 C2444 1.355 . S
C2443 C2445 1.415 . S
C2444 C2443 1.355 . S
C2444 C2446 1.419 . S
C2445 C2440 1.425 . S
C2445 C2442 1.409 . S
C2445 C2443 1.415 . S
C2446 H2436 0.930 . S
C2446 C2444 1.419 . S
C2446 C2447 1.362 . S
C2447 H2437 0.930 . S
C2447 C2440 1.409 . S
C2447 C2446 1.362 . S
H2448 C2454 0.930 . S
H2449 C2457 0.930 . S
H2450 C2458 0.930 . S
H2451 C2459 0.930 . S
H2452 C2462 0.930 . S
H2453 C2463 0.930 . S
C2454 H2448 0.930 . S
C2454 C2455 1.355 . S
C2454 C2456 1.415 . S
C2455 C2454 1.355 . S
C2455 C2457 1.419 . S
C2456 C2454 1.415 . S
C2456 C2461 1.425 . S
C2456 C2463 1.409 . S
C2457 H2449 0.930 . S
C2457 C2455 1.419 . S
C2457 C2458 1.362 . S
C2458 H2450 0.930 . S
C2458 C2457 1.362 . S
C2458 C2461 1.409 . S
C2459 H2451 0.930 . S
C2459 C2460 1.355 . S
C2459 C2461 1.415 . S
C2460 C2459 1.355 . S
C2460 C2462 1.419 . S
C2461 C2456 1.425 . S
C2461 C2458 1.409 . S
C2461 C2459 1.415 . S
C2462 H2452 0.930 . S
C2462 C2460 1.419 . S
C2462 C2463 1.362 . S
C2463 H2453 0.930 . S
C2463 C2456 1.409 . S
C2463 C2462 1.362 . S
H2464 C2470 0.930 . S
H2465 C2473 0.930 . S
H2466 C2474 0.930 . S
H2467 C2475 0.930 . S
H2468 C2478 0.930 . S
H2469 C2479 0.930 . S
C2470 H2464 0.930 . S
C2470 C2471 1.355 . S
C2470 C2472 1.415 . S
C2471 C2470 1.355 . S
C2471 C2473 1.419 . S
C2472 C2470 1.415 . S
C2472 C2477 1.425 . S
C2472 C2479 1.409 . S
C2473 H2465 0.930 . S
C2473 C2471 1.419 . S
C2473 C2474 1.362 . S
C2474 H2466 0.930 . S
C2474 C2473 1.362 . S
C2474 C2477 1.409 . S
C2475 H2467 0.930 . S
C2475 C2476 1.355 . S
C2475 C2477 1.415 . S
C2476 C2475 1.355 . S
C2476 C2478 1.419 . S
C2477 C2472 1.425 . S
C2477 C2474 1.409 . S
C2477 C2475 1.415 . S
C2478 H2468 0.930 . S
C2478 C2476 1.419 . S
C2478 C2479 1.362 . S
C2479 H2469 0.930 . S
C2479 C2472 1.409 . S
C2479 C2478 1.362 . S
H2480 C2486 0.930 . S
H2481 C2489 0.930 . S
H2482 C2490 0.930 . S
H2483 C2491 0.930 . S
H2484 C2494 0.930 . S
H2485 C2495 0.930 . S
C2486 H2480 0.930 . S
C2486 C2487 1.355 . S
C2486 C2488 1.415 . S
C2487 C2486 1.355 . S
C2487 C2489 1.419 . S
C2488 C2486 1.415 . S
C2488 C2493 1.425 . S
C2488 C2495 1.409 . S
C2489 H2481 0.930 . S
C2489 C2487 1.419 . S
C2489 C2490 1.362 . S
C2490 H2482 0.930 . S
C2490 C2489 1.362 . S
C2490 C2493 1.409 . S
C2491 H2483 0.930 . S
C2491 C2492 1.355 . S
C2491 C2493 1.415 . S
C2492 C2491 1.355 . S
C2492 C2494 1.419 . S
C2493 C2488 1.425 . S
C2493 C2490 1.409 . S
C2493 C2491 1.415 . S
C2494 H2484 0.930 . S
C2494 C2492 1.419 . S
C2494 C2495 1.362 . S
C2495 H2485 0.930 . S
C2495 C2488 1.409 . S
C2495 C2494 1.362 . S
H2496 C2502 0.930 . S
H2497 C2505 0.930 . S
H2498 C2506 0.930 . S
H2499 C2507 0.930 . S
H2500 C2510 0.930 . S
H2501 C2511 0.930 . S
C2502 H2496 0.930 . S
C2502 C2503 1.355 . S
C2502 C2504 1.415 . S
C2503 C2502 1.355 . S
C2503 C2505 1.419 . S
C2504 C2502 1.415 . S
C2504 C2509 1.425 . S
C2504 C2511 1.409 . S
C2505 H2497 0.930 . S
C2505 C2503 1.419 . S
C2505 C2506 1.362 . S
C2506 H2498 0.930 . S
C2506 C2505 1.362 . S
C2506 C2509 1.409 . S
C2507 H2499 0.930 . S
C2507 C2508 1.355 . S
C2507 C2509 1.415 . S
C2508 C2507 1.355 . S
C2508 C2510 1.419 . S
C2509 C2504 1.425 . S
C2509 C2506 1.409 . S
C2509 C2507 1.415 . S
C2510 H2500 0.930 . S
C2510 C2508 1.419 . S
C2510 C2511 1.362 . S
C2511 H2501 0.930 . S
C2511 C2504 1.409 . S
C2511 C2510 1.362 . S
C983 C109 2.189 1_455 S
C988 C367 2.182 . S
C999 C65 1.854 . S
C1004 C378 1.884 . S
C1015 C75 1.763 . S
C1020 C447 1.741 . S
C1036 C460 1.163 . S
C1031 C84 1.182 . S
C1047 C25 2.512 . S
C1052 C516 2.522 . S
C1068 C567 2.172 . S
C1063 C28 2.161 . S
C1084 C596 2.396 . S
C1079 C47 2.411 . S
C1095 C9 2.532 . S
C1100 C647 2.496 . S
C1116 C338 1.471 . S
C1111 C233 1.455 . S
C1127 C249 1.031 . S
C1132 C380 1.019 . S
C1148 C418 1.104 . S
C1143 C275 1.101 . S
C1164 C487 1.731 . S
C1159 C173 1.743 . S
C1175 C224 0.745 . S
C1180 C521 0.731 . S
C1196 C538 1.503 . S
C1191 C243 1.497 . S
C1212 C601 0.469 . S
C1207 C266 0.438 . S
C1228 C618 2.062 . S
C1223 C179 2.088 . S
C1244 C340 1.851 . S
C1239 C163 1.956 . S
C1255 C289 1.652 . S
C1260 C679 1.603 . S
C1276 C700 1.641 . S
C1271 C333 1.699 . S
C1292 C759 0.401 . S
C1287 C308 0.401 . S
C1303 C123 1.151 . S
C1308 C620 1.141 . S
C1319 C126 1.450 . S
C1324 C420 1.432 . S
C1335 C327 1.058 . S
C1340 C778 1.093 . S
C1356 C847 0.998 . S
C1351 C299 1.048 . S
C1372 C356 2.212 . S
C1367 C67 2.224 . S
C1388 C839 1.907 . S
C1383 C98 1.868 . S
C1399 C89 1.782 . S
C1404 C436 1.759 . S
C1415 C79 1.255 . S
C1420 C801 1.237 . S
C1436 C527 2.513 . S
C1431 C11 2.540 . S
C1447 C51 2.217 . S
C1452 C716 2.193 . S
C1468 C607 2.454 1_556 S
C1463 C33 2.446 . S
C1484 C876 2.458 . S
C1479 C14 2.537 1_655 S
C1500 C359 1.405 . S
C1495 C140 1.395 . S
C1516 C841 0.928 . S
C1511 C319 1.004 . S
C1527 C112 1.124 . S
C1532 C439 1.096 . S
C1543 C285 1.755 . S
C1548 C796 1.768 . S
C1559 C149 0.732 . S
C1564 C500 0.686 . S
C1580 C719 1.503 . S
C1575 C313 1.489 . S
C1591 C121 0.489 . S
C1596 C580 0.564 . S
C1607 C291 2.126 . S
C1612 C879 2.065 . S
C1623 C182 1.955 . S
C1628 C361 1.829 . S
C1639 C168 1.627 . S
C1644 C658 1.620 . S
C1655 C263 1.628 . S
C1660 C561 1.530 . S
C1671 C247 0.502 . S
C1676 C738 0.584 . S
C1692 C881 1.224 . S
C1687 C277 1.240 1_565 S
C1703 C219 1.518 . S
C1708 C441 1.488 . S
C1724 C479 1.135 . S
C1719 C257 1.127 . S
C1740 C396 1.084 . S
C1735 C201 1.087 . S
C1751 C81 2.236 . S
C1756 C927 2.218 . S
C1772 C818 1.882 . S
C1767 C93 1.855 . S
C1783 C103 1.762 . S
C1788 C967 1.708 . S
C1799 C56 1.236 . S
C1804 C780 1.234 . S
C1815 C53 2.526 . S
C1820 C676 2.499 . S
C1836 C727 2.180 . S
C1831 C0 2.175 . S
C1852 C756 2.390 . S
C1847 C19 2.398 . S
C1868 C887 2.460 . S
C1863 C37 2.544 . S
C1884 C898 1.435 . S
C1879 C261 1.436 . S
C1895 C193 0.995 . S
C1900 C820 0.933 . S
C1916 C938 1.104 . S
C1911 C205 1.101 . S
C1932 C807 1.731 . S
C1927 C215 1.741 . S
C1948 C681 0.737 . S
C1943 C252 0.713 . S
C1959 C187 1.499 . S
C1964 C698 1.485 . S
C1980 C761 0.521 . S
C1975 C196 0.489 . S
C1991 C221 2.084 . S
C1996 C858 2.036 . S
C2012 C900 1.846 . S
C2007 C317 1.922 . S
C2023 C135 1.635 . S
C2028 C519 1.585 . S
C2044 C540 1.636 . S
C2039 C151 1.694 . S
C2060 C599 0.587 . S
C2055 C154 0.451 1_556 S
C2076 C860 1.125 . S
C2071 C305 1.138 . S
C2087 C280 1.442 . S
C2092 C940 1.437 . S
C2108 C458 1.091 . S
C2103 C145 1.043 . S
C2124 C407 1.016 . S
C2119 C117 1.061 . S
C2135 C95 2.219 . S
C2140 C916 2.191 . S
C2156 C399 1.911 . S
C2151 C70 1.828 . S
C2167 C61 1.782 . S
C2172 C956 1.733 . S
C2183 C107 1.257 . S
C2188 C481 1.240 . S
C2199 C39 2.550 . S
C2204 C687 2.544 1_556 S
C2220 C556 2.162 . S
C2215 C23 2.209 . S
C2231 C5 2.446 . S
C2236 C767 2.454 . S
C2247 C42 2.540 . S
C2252 C636 2.466 . S
C2268 C919 1.424 . S
C2263 C322 1.445 . S
C2279 C165 1.024 . S
C2284 C401 0.996 . S
C2300 C959 1.140 . S
C2295 C294 1.091 . S
C2311 C131 1.773 . S
C2316 C476 1.765 . S
C2327 C331 0.728 . S
C2332 C660 0.703 . S
C2348 C559 1.529 . S
C2343 C159 1.501 . S
C2359 C303 0.529 . S
C2364 C740 0.524 . S
C2380 C639 2.066 . S
C2375 C137 2.126 . S
C2396 C921 1.742 . S
C2391 C238 1.904 . S
C2412 C498 1.579 1_655 S
C2407 C210 1.638 . S
C2423 C235 1.627 . S
C2428 C721 1.526 . S
C2444 C578 0.539 . S
C2439 C191 0.459 . S
C2455 C207 1.138 . S
C2460 C641 1.106 . S
C2471 C177 1.515 . S
C2476 C961 1.480 . S
C2492 C799 1.137 . S
C2487 C229 1.103 . S
C2508 C836 1.063 . S
C2503 C271 1.073 . S
