# Generated by pormake.
# Topology nia, (6,6)-cn, num edge types: 1
# Building blocks:
#     Node 0, Type 0, BuildingBlock: FUNLAD_clean_sbu_0, # of connection points: 6
#     Node 1, Type 0, BuildingBlock: FUNLAD_clean_sbu_0, # of connection points: 6
#     Node 2, Type 1, BuildingBlock: MIDCAF_clean_sbu_0, # of connection points: 6
#     Node 3, Type 1, BuildingBlock: MIDCAF_clean_sbu_0, # of connection points: 6
#     Edge 4, Type (0, 1), BuildingBlock: XIVTED_clean_linker_0, # of connection points: 2
#     Edge 5, Type (0, 1), BuildingBlock: XIVTED_clean_linker_0, # of connection points: 2
#     Edge 6, Type (0, 1), BuildingBlock: XIVTED_clean_linker_0, # of connection points: 2
#     Edge 7, Type (0, 1), BuildingBlock: XIVTED_clean_linker_0, # of connection points: 2
#     Edge 8, Type (0, 1), BuildingBlock: XIVTED_clean_linker_0, # of connection points: 2
#     Edge 9, Type (0, 1), BuildingBlock: XIVTED_clean_linker_0, # of connection points: 2
#     Edge 10, Type (0, 1), BuildingBlock: XIVTED_clean_linker_0, # of connection points: 2
#     Edge 11, Type (0, 1), BuildingBlock: XIVTED_clean_linker_0, # of connection points: 2
#     Edge 12, Type (0, 1), BuildingBlock: XIVTED_clean_linker_0, # of connection points: 2
#     Edge 13, Type (0, 1), BuildingBlock: XIVTED_clean_linker_0, # of connection points: 2
#     Edge 14, Type (0, 1), BuildingBlock: XIVTED_clean_linker_0, # of connection points: 2
#     Edge 15, Type (0, 1), BuildingBlock: XIVTED_clean_linker_0, # of connection points: 2
# Relax obj value: 0.146
# Max RMSD: 0.244
# Mean RMSD: 0.145
data_MOF--net-nia--node1-FUNLAD_clean_sbu_0--node2-MIDCAF_clean_sbu_0--edge1-XIVTED_clean_linker_0
_symmetry_space_group_name_H-M    P1
_symmetry_Int_Tables_number       1
_symmetry_cell_setting            triclinic
loop_
_symmetry_equiv_pos_as_xyz
'x, y, z'
_cell_length_a     24.200216
_cell_length_b     24.174998
_cell_length_c     35.601353
_cell_angle_alpha  97.273596
_cell_angle_beta   96.245364
_cell_angle_gamma 117.57785
loop_
_atom_site_label
_atom_site_type_symbol
_atom_site_fract_x
_atom_site_fract_y
_atom_site_fract_z
_atom_type_partial_charge
C0 C 0.07047 0.97209 0.0781 0.0
N1 N 0.11637 0.05055 0.97912 0.0
C2 C 0.17893 0.08927 0.99462 0.0
C3 C 0.22318 0.11116 0.97057 0.0
C4 C 0.2027 0.09234 0.93035 0.0
C5 C 0.13844 0.05018 0.91523 0.0
C6 C 0.09579 0.03022 0.94025 0.0
Zn7 Zn 0.04916 0.02812 1.01277 0.0
C8 C 0.94409 0.89419 0.98379 0.0
N9 N 0.90284 0.98127 0.07846 0.0
C10 C 0.92237 -0.00222 0.11748 0.0
C11 C 0.84045 0.95463 0.06203 0.0
C12 C 0.79501 0.94455 0.08518 0.0
C13 C 0.8141 0.96148 0.12551 0.0
C14 C 0.87852 0.98782 0.14166 0.0
Zn15 Zn 0.97046 0.00165 0.04529 0.0
O16 O 0.09531 -0.00693 0.04971 0.0
C17 C 0.07568 0.13479 0.07545 0.0
O18 O 0.01911 0.97148 0.08309 0.0
H19 H 0.82603 0.94184 0.03097 0.0
H20 H 0.19422 0.10485 0.02556 0.0
H21 H 0.97228 0.01968 0.13 0.0
O22 O 0.10097 0.12067 0.04897 0.0
O23 O 0.02084 0.09413 0.07914 0.0
H24 H 0.04575 0.00037 0.9284 0.0
O25 O 0.92226 0.03187 1.00651 0.0
O26 O 0.00209 0.06176 0.97597 0.0
O27 O 0.92051 0.90824 1.0113 0.0
O28 O -0.00316 0.93587 0.97787 0.0
C29 C 0.94809 0.05603 0.9792 0.0
H30 H 0.27266 0.14335 0.98321 0.0
H31 H 0.12089 0.03523 0.88438 0.0
H32 H 0.74547 0.9234 0.07174 0.0
H33 H 0.89498 0.00189 0.17262 0.0
C34 C 0.03359 0.9442 0.47342 0.0
N35 N 0.9567 0.90048 0.5728 0.0
C36 C 0.91172 0.84019 0.55535 0.0
C37 C 0.8871 0.79313 0.57724 0.0
C38 C 0.90951 0.8084 0.61729 0.0
C39 C 0.95653 0.87068 0.63433 0.0
C40 C 0.97928 0.91621 0.61151 0.0
Zn41 Zn -0.01014 0.97223 0.54288 0.0
C42 C 0.1289 0.05986 0.57216 0.0
N43 N 0.06165 0.12954 0.48653 0.0
C44 C 0.04107 0.11407 0.44762 0.0
C45 C 0.10551 0.18993 0.50452 0.0
C46 C 0.13129 0.23732 0.48301 0.0
C47 C 0.11145 0.22228 0.44272 0.0
C48 C 0.06527 0.15989 0.4251 0.0
Zn49 Zn 0.02815 0.05765 0.5163 0.0
O50 O 0.00793 0.91705 0.49997 0.0
C51 C 0.88924 0.96988 0.48678 0.0
O52 O 0.04702 0.00175 0.47407 0.0
H53 H 0.12118 0.20113 0.53547 0.0
H54 H 0.8944 0.82879 0.52456 0.0
H55 H 0.00664 0.06564 0.4338 0.0
O56 O 0.89786 0.93769 0.51011 0.0
O57 O 0.93553 0.02232 0.48405 0.0
H58 H 0.01435 0.96459 0.62496 0.0
O59 O 0.00945 0.1124 0.55884 0.0
O60 O 0.97158 0.02851 0.58553 0.0
O61 O 0.12006 0.09266 0.54939 0.0
O62 O 0.08279 0.0071 0.57458 0.0
C63 C -0.01547 0.08585 0.58574 0.0
H64 H 0.85117 0.74534 0.56302 0.0
H65 H 0.97444 0.8845 0.66516 0.0
H66 H 0.16629 0.28516 0.49774 0.0
H67 H 0.04922 0.14616 0.39411 0.0
Zn68 Zn 0.31711 0.69472 0.21034 0.0
Zn69 Zn 0.33492 0.72927 0.35068 0.0
Zn70 Zn 0.32175 0.70961 0.27861 0.0
C71 C 0.45246 0.80344 0.34214 0.0
C72 C 0.29681 0.60152 0.32698 0.0
O73 O 0.25951 0.74586 0.25314 0.0
O74 O 0.23697 0.69435 0.19315 0.0
C75 C 0.4346 0.79167 0.23768 0.0
O76 O 0.42363 0.7699 0.30792 0.0
O77 O 0.42104 0.8027 0.36825 0.0
O78 O 0.32481 0.64498 0.35678 0.0
O79 O 0.28631 0.61521 0.29409 0.0
O80 O 0.39395 0.77257 0.20711 0.0
O81 O 0.41842 0.76827 0.26772 0.0
O82 O 0.2837 0.60647 0.25333 0.0
O83 O 0.31777 0.61325 0.19824 0.0
C84 C 0.29184 0.57999 0.22215 0.0
O85 O 0.2594 0.7502 0.29368 0.0
O86 O 0.26128 0.74219 0.35492 0.0
C87 C 0.2285 0.73001 0.21821 0.0
C88 C 0.23904 0.7543 0.3253 0.0
Zn89 Zn 0.6929 0.32275 0.84468 0.0
Zn90 Zn 0.68769 0.309 0.70991 0.0
Zn91 Zn 0.69609 0.31997 0.77869 0.0
C92 C 0.72551 0.43441 0.73761 0.0
C93 C 0.57014 0.23022 0.71233 0.0
O94 O 0.74228 0.26499 0.79869 0.0
O95 O 0.69977 0.24607 0.85046 0.0
C96 C 0.77138 0.44421 0.84605 0.0
O97 O 0.73987 0.41803 0.76869 0.0
O98 O 0.69204 0.39249 0.70779 0.0
O99 O 0.60489 0.23154 0.68816 0.0
O100 O 0.59566 0.2642 0.74671 0.0
O101 O 0.76496 0.40638 0.86864 0.0
O102 O 0.74598 0.42168 0.80999 0.0
O103 O 0.59535 0.27559 0.78574 0.0
O104 O 0.61007 0.31799 0.84691 0.0
C105 C 0.57303 0.28709 0.81519 0.0
O106 O 0.7558 0.27664 0.76264 0.0
O107 O 0.76652 0.30497 0.70627 0.0
C108 C 0.73083 0.2355 0.82701 0.0
C109 C 0.78298 0.28318 0.73311 0.0
H110 H 0.06869 0.97225 0.15467 0.0
H111 H 0.14035 0.68778 0.1525 0.0
H112 H 0.13009 0.90414 0.0584 0.0
H113 H 0.23493 0.84254 0.25138 0.0
H114 H 0.10185 0.75064 0.12101 0.0
H115 H 0.10164 0.91198 0.19408 0.0
C116 C 0.0897 0.94514 0.14203 0.0
C117 C 0.09711 0.94317 0.10337 0.0
C118 C 0.12996 0.77015 0.14996 0.0
C119 C 0.13201 0.87306 0.14746 0.0
C120 C 0.15156 0.7343 0.16812 0.0
C121 C 0.19119 0.76014 0.20467 0.0
C122 C 0.14708 0.83184 0.16866 0.0
C123 C 0.20379 0.82056 0.22354 0.0
C124 C 0.10824 0.91096 0.16444 0.0
C125 C 0.12419 0.90729 0.08818 0.0
N126 N 0.18212 0.85488 0.20515 0.0
N127 N 0.13971 0.87269 0.11011 0.0
H128 H 0.22068 0.18314 0.60002 0.0
H129 H 0.49724 0.11486 0.66398 0.0
H130 H 0.17958 0.98913 0.59902 0.0
H131 H 0.48707 0.27168 0.72925 0.0
H132 H 0.38518 0.06934 0.63355 0.0
H133 H 0.32492 0.22048 0.64051 0.0
C134 C 0.23376 0.14851 0.60824 0.0
C135 C 0.19183 0.08305 0.59616 0.0
C136 C 0.40731 0.11309 0.65507 0.0
C137 C 0.31043 0.12523 0.64183 0.0
C138 C 0.47093 0.13893 0.67239 0.0
C139 C 0.50087 0.19669 0.69925 0.0
C140 C 0.37448 0.14656 0.66376 0.0
C141 C 0.46523 0.22659 0.70899 0.0
C142 C 0.29276 0.16978 0.63155 0.0
C143 C 0.21069 0.04003 0.60784 0.0
N144 N 0.40405 0.20181 0.69065 0.0
N145 N 0.26914 0.06188 0.62962 0.0
H146 H 0.04179 0.17087 0.141 0.0
H147 H 0.18295 0.48672 0.23722 0.0
H148 H 0.18726 0.23992 0.07229 0.0
H149 H 0.33939 0.51639 0.17995 0.0
H150 H 0.13003 0.37407 0.20791 0.0
H151 H 0.09641 0.27316 0.18524 0.0
C152 C 0.08506 0.20796 0.135 0.0
C153 C 0.10945 0.19708 0.10249 0.0
C154 C 0.17677 0.40418 0.20251 0.0
C155 C 0.17208 0.3159 0.15288 0.0
C156 C 0.20728 0.46877 0.21976 0.0
C157 C 0.26585 0.51054 0.21147 0.0
C158 C 0.20523 0.38141 0.17662 0.0
C159 C 0.29415 0.48555 0.1871 0.0
C160 C 0.11628 0.26688 0.16034 0.0
C161 C 0.16638 0.24639 0.09674 0.0
N162 N 0.26331 0.4228 0.17027 0.0
N163 N 0.1955 0.30373 0.12156 0.0
H164 H 0.01854 0.21237 0.60066 0.0
H165 H 0.78014 0.17207 0.74533 0.0
H166 H 0.91529 0.038 0.64101 0.0
H167 H 0.89098 0.34575 0.70659 0.0
H168 H 0.84319 0.12732 0.71773 0.0
H169 H -0.01476 0.26658 0.64815 0.0
C170 C -0.01089 0.18554 0.61965 0.0
C171 C 0.96883 0.12035 0.61641 0.0
C172 C 0.85471 0.17579 0.71612 0.0
C173 C 0.93009 0.18207 0.6709 0.0
C174 C 0.81921 0.20146 0.73224 0.0
C175 C 0.83031 0.2623 0.72783 0.0
C176 C 0.90107 0.21145 0.6955 0.0
C177 C 0.88072 0.29832 0.71018 0.0
C178 C 0.97025 0.21657 0.64693 0.0
C179 C 0.93146 0.08822 0.64222 0.0
N180 N 0.91361 0.27207 0.6942 0.0
N181 N 0.91254 0.11919 0.66804 0.0
H182 H 0.7202 -0.00605 0.11869 0.0
H183 H 0.54119 0.78564 0.2644 0.0
H184 H 0.80151 0.90772 0.18939 0.0
H185 H 0.47608 0.89567 0.20542 0.0
H186 H 0.64503 0.84366 0.24657 0.0
H187 H 0.63759 0.97047 0.15727 0.0
C188 C 0.72062 0.9702 0.14248 0.0
C189 C 0.76691 0.95176 0.15055 0.0
C190 C 0.60867 0.85646 0.23846 0.0
C191 C 0.67267 0.92461 0.19488 0.0
C192 C 0.54982 0.82404 0.24923 0.0
C193 C 0.50062 0.83642 0.23657 0.0
C194 C 0.61743 0.90056 0.21437 0.0
C195 C 0.51304 0.8847 0.21552 0.0
C196 C 0.67382 0.95724 0.16472 0.0
C197 C 0.76633 0.92239 0.18218 0.0
N198 N 0.56994 0.91438 0.20457 0.0
N199 N 0.71926 0.90879 0.20288 0.0
H200 H 0.97488 0.78397 0.67464 0.0
H201 H 0.66181 0.49395 0.71285 0.0
H202 H 0.78506 0.72382 0.61517 0.0
H203 H 0.85027 0.52247 0.7496 0.0
H204 H 0.7074 0.59404 0.68957 0.0
H205 H 0.93075 0.70269 0.71362 0.0
C206 C 0.92388 0.7539 0.67 0.0
C207 C 0.88351 0.76007 0.6414 0.0
C208 C 0.73893 0.57926 0.70356 0.0
C209 C 0.83288 0.66753 0.68591 0.0
C210 C 0.71298 0.52265 0.71717 0.0
C211 C 0.75263 0.50113 0.73384 0.0
C212 C 0.80494 0.61386 0.70611 0.0
C213 C 0.81843 0.53869 0.73787 0.0
C214 C 0.8988 0.70758 0.69219 0.0
C215 C 0.81787 0.71983 0.63645 0.0
N216 N 0.84266 0.59316 0.72378 0.0
N217 N 0.7946 0.67515 0.65843 0.0
H218 H 0.00269 0.81817 0.45845 0.0
H219 H 0.24834 0.86945 0.31945 0.0
H220 H 0.10102 -0.00666 0.4179 0.0
H221 H 0.12508 0.68694 0.34438 0.0
H222 H 0.18393 0.91211 0.34675 0.0
H223 H 0.03729 0.76593 0.4104 0.0
C224 C 0.03121 0.84554 0.43928 0.0
C225 C 0.04979 0.91043 0.44261 0.0
C226 C 0.16966 0.86217 0.34516 0.0
C227 C 0.08978 0.85104 0.38755 0.0
C228 C 0.20581 0.83765 0.32892 0.0
C229 C 0.19102 0.77446 0.32908 0.0
C230 C 0.11955 0.82339 0.3624 0.0
C231 C 0.13739 0.73585 0.34347 0.0
C232 C 0.05072 0.81563 0.41169 0.0
C233 C 0.08615 0.94335 0.41666 0.0
N234 N 0.10413 0.76114 0.36011 0.0
N235 N 0.10566 0.91353 0.39059 0.0
H236 H 0.21929 0.03038 0.86603 0.0
H237 H 0.51433 0.35048 0.84242 0.0
H238 H 0.28587 0.21719 0.9349 0.0
H239 H 0.47862 0.16442 0.78802 0.0
H240 H 0.41051 0.30239 0.86079 0.0
H241 H 0.29664 0.0785 0.82465 0.0
C242 C 0.24992 0.08152 0.87221 0.0
C243 C 0.24733 0.11992 0.90429 0.0
C244 C 0.42457 0.27197 0.84414 0.0
C245 C 0.33443 0.17499 0.857 0.0
C246 C 0.4835 0.29951 0.83337 0.0
C247 C 0.50482 0.26103 0.81422 0.0
C248 C 0.38752 0.20536 0.83653 0.0
C249 C 0.4635 0.19538 0.80297 0.0
C250 C 0.29375 0.10886 0.8486 0.0
C251 C 0.2875 0.18582 0.911 0.0
N252 N 0.40706 0.16916 0.81516 0.0
N253 N 0.32954 0.21118 0.88768 0.0
H254 H 0.05046 0.24445 0.38165 0.0
H255 H 0.36375 0.5543 0.36398 0.0
H256 H 0.23628 0.31032 0.44951 0.0
H257 H 0.17695 0.50171 0.30359 0.0
H258 H 0.32013 0.45308 0.38573 0.0
H259 H 0.09774 0.32727 0.34416 0.0
C260 C 0.10128 0.27602 0.38844 0.0
C261 C 0.13945 0.27104 0.41905 0.0
C262 C 0.28873 0.46286 0.36702 0.0
C263 C 0.19373 0.36575 0.37634 0.0
C264 C 0.31373 0.52034 0.35442 0.0
C265 C 0.27382 0.53554 0.33165 0.0
C266 C 0.22307 0.42095 0.35741 0.0
C267 C 0.20933 0.49072 0.32033 0.0
C268 C 0.12819 0.32329 0.36707 0.0
C269 C 0.20493 0.31333 0.42671 0.0
N270 N 0.18563 0.4356 0.33381 0.0
N271 N 0.22991 0.35907 0.40563 0.0
H272 H -0.00445 0.12285 0.92304 0.0
H273 H 0.67262 0.12664 0.85329 0.0
H274 H 0.82514 0.03265 0.96993 0.0
H275 H 0.84937 0.25089 0.82178 0.0
H276 H 0.72368 0.07336 0.88417 0.0
H277 H 0.93959 0.15503 0.87641 0.0
C278 C 0.94635 0.10969 0.92349 0.0
C279 C 0.91511 0.07561 0.95073 0.0
C280 C 0.75127 0.11157 0.87002 0.0
C281 C 0.85084 0.11139 0.89714 0.0
C282 C 0.72199 0.14161 0.85211 0.0
C283 C 0.75712 0.19342 0.83533 0.0
C284 C 0.8165 0.13409 0.87169 0.0
C285 C 0.82077 0.21093 0.83439 0.0
C286 C 0.9145 0.12791 0.89679 0.0
C287 C 0.85133 0.05947 0.9498 0.0
N288 N 0.84894 0.18197 0.85304 0.0
N289 N 0.82143 0.07761 0.92352 0.0
H290 H 0.79441 0.84665 0.46461 0.0
H291 H 0.52775 0.75221 0.32606 0.0
H292 H 0.8421 0.03818 0.45242 0.0
H293 H 0.5329 0.9214 0.3861 0.0
H294 H 0.63861 0.79292 0.3569 0.0
H295 H 0.69167 0.80727 0.42222 0.0
C296 C 0.78322 0.88035 0.45298 0.0
C297 C 0.82667 0.9457 0.46196 0.0
C298 C 0.61566 0.82146 0.36288 0.0
C299 C 0.70991 0.90105 0.4133 0.0
C300 C 0.55303 0.79892 0.34476 0.0
C301 C 0.52187 0.83408 0.35326 0.0
C302 C 0.64695 0.87942 0.3897 0.0
C303 C 0.55577 0.89328 0.37871 0.0
C304 C 0.72505 0.8578 0.42843 0.0
C305 C 0.80991 0.98736 0.44603 0.0
N306 N 0.61674 0.91423 0.39615 0.0
N307 N 0.75233 0.9644 0.42284 0.0
H308 H 0.84552 0.78704 0.99718 0.0
H309 H 0.83367 0.55004 0.8143 0.0
H310 H 0.97174 0.85323 0.91667 0.0
H311 H 0.76831 0.49282 0.91786 0.0
H312 H 0.87138 0.66185 0.84477 0.0
H313 H 0.80113 0.67824 0.96094 0.0
C314 C 0.86347 0.77878 0.97168 0.0
C315 C 0.91278 0.82913 0.96014 0.0
C316 C 0.84868 0.62454 0.86065 0.0
C317 C 0.86231 0.70481 0.91858 0.0
C318 C 0.82695 0.561 0.84315 0.0
C319 C 0.79783 0.51228 0.86338 0.0
C320 C 0.84 0.63875 0.89838 0.0
C321 C 0.79112 0.52888 0.90121 0.0
C322 C 0.83836 0.71666 0.95111 0.0
C323 C 0.93414 0.81561 0.92677 0.0
N324 N 0.81169 0.59051 0.91734 0.0
N325 N 0.90887 0.7546 0.90715 0.0
loop_
_geom_bond_atom_site_label_1
_geom_bond_atom_site_label_2
_geom_bond_distance
_geom_bond_site_symmetry_2
_ccdc_geom_bond_type
C0 O16 1.251 1_565 S
C0 O18 1.254 . S
N1 C2 1.333 . S
N1 C6 1.307 . S
N1 Zn7 2.020 . S
C2 N1 1.333 . S
C2 C3 1.379 . S
C2 H20 0.952 1_556 S
C3 C2 1.379 . S
C3 C4 1.390 . S
C3 H30 0.949 . S
C4 C3 1.390 . S
C4 C5 1.357 . S
C5 C4 1.357 . S
C5 C6 1.370 . S
C5 H31 0.950 . S
C6 N1 1.307 . S
C6 C5 1.370 . S
C6 H24 0.948 . S
Zn7 N1 2.020 . S
Zn7 O16 2.039 1_556 S
Zn7 O22 2.034 1_556 S
Zn7 O26 2.025 . S
Zn7 O28 2.024 1_545 S
C8 O27 1.246 . S
C8 O28 1.249 1_655 S
N9 C10 1.307 . S
N9 C11 1.333 . S
N9 Zn15 2.020 1_565 S
C10 N9 1.307 . S
C10 C14 1.370 . S
C10 H21 0.948 . S
C11 N9 1.333 . S
C11 C12 1.379 . S
C11 H19 0.952 . S
C12 C11 1.379 . S
C12 C13 1.390 . S
C12 H32 0.949 . S
C13 C12 1.390 . S
C13 C14 1.357 . S
C14 C10 1.370 . S
C14 C13 1.357 . S
C14 H33 0.950 . S
Zn15 N9 2.020 1_545 S
Zn15 O18 2.025 1_645 S
Zn15 O23 2.024 1_655 S
Zn15 O25 2.039 1_554 S
Zn15 O27 2.034 1_544 S
O16 C0 1.251 1_545 S
O16 Zn7 2.039 1_554 S
C17 O22 1.246 . S
C17 O23 1.249 . S
O18 C0 1.254 . S
O18 Zn15 2.025 1_465 S
H19 C11 0.952 . S
H20 C2 0.952 1_554 S
H21 C10 0.948 . S
O22 Zn7 2.034 1_554 S
O22 C17 1.246 . S
O23 Zn15 2.024 1_455 S
O23 C17 1.249 . S
H24 C6 0.948 . S
O25 Zn15 2.039 1_556 S
O25 C29 1.251 . S
O26 Zn7 2.025 . S
O26 C29 1.254 1_455 S
O27 C8 1.246 . S
O27 Zn15 2.034 1_566 S
O28 Zn7 2.024 1_565 S
O28 C8 1.249 1_455 S
C29 O25 1.251 . S
C29 O26 1.254 1_655 S
H30 C3 0.949 . S
H31 C5 0.950 . S
H32 C12 0.949 . S
H33 C14 0.950 . S
C34 O50 1.251 . S
C34 O52 1.254 1_565 S
N35 C36 1.333 . S
N35 C40 1.307 . S
N35 Zn41 2.020 1_655 S
C36 N35 1.333 . S
C36 C37 1.379 . S
C36 H54 0.952 . S
C37 C36 1.379 . S
C37 C38 1.390 . S
C37 H64 0.949 . S
C38 C37 1.390 . S
C38 C39 1.357 . S
C39 C38 1.357 . S
C39 C40 1.370 . S
C39 H65 0.950 . S
C40 N35 1.307 . S
C40 C39 1.370 . S
C40 H58 0.948 . S
Zn41 N35 2.020 1_455 S
Zn41 O50 2.040 . S
Zn41 O56 2.033 1_455 S
Zn41 O60 2.024 1_465 S
Zn41 O62 2.026 1_565 S
C42 O61 1.246 . S
C42 O62 1.249 . S
N43 C44 1.307 . S
N43 C45 1.333 . S
N43 Zn49 2.020 . S
C44 N43 1.307 . S
C44 C48 1.370 . S
C44 H55 0.948 . S
C45 N43 1.333 . S
C45 C46 1.379 . S
C45 H53 0.952 . S
C46 C45 1.379 . S
C46 C47 1.390 . S
C46 H66 0.949 . S
C47 C46 1.390 . S
C47 C48 1.357 . S
C48 C44 1.370 . S
C48 C47 1.357 . S
C48 H67 0.950 . S
Zn49 N43 2.020 . S
Zn49 O52 2.025 . S
Zn49 O57 2.024 1_455 S
Zn49 O59 2.039 . S
Zn49 O61 2.034 . S
O50 C34 1.251 . S
O50 Zn41 2.040 . S
C51 O56 1.246 . S
C51 O57 1.249 1_565 S
O52 C34 1.254 1_545 S
O52 Zn49 2.025 . S
H53 C45 0.952 . S
H54 C36 0.952 . S
H55 C44 0.948 . S
O56 Zn41 2.033 1_655 S
O56 C51 1.246 . S
O57 Zn49 2.024 1_655 S
O57 C51 1.249 1_545 S
H58 C40 0.948 . S
O59 Zn49 2.039 . S
O59 C63 1.251 1_455 S
O60 Zn41 2.024 1_645 S
O60 C63 1.254 . S
O61 C42 1.246 . S
O61 Zn49 2.034 . S
O62 Zn41 2.026 1_545 S
O62 C42 1.249 . S
C63 O59 1.251 1_655 S
C63 O60 1.254 . S
H64 C37 0.949 . S
H65 C39 0.950 . S
H66 C46 0.949 . S
H67 C48 0.950 . S
Zn68 O74 1.920 . S
Zn68 O80 1.898 . S
Zn68 O83 1.905 . S
Zn69 O77 1.905 . S
Zn69 O78 1.898 . S
Zn69 O86 1.920 . S
Zn70 O73 2.080 . S
Zn70 O76 2.114 . S
Zn70 O79 2.120 . S
Zn70 O81 2.120 . S
Zn70 O82 2.114 . S
Zn70 O85 2.080 . S
C71 O76 1.166 . S
C71 O77 1.182 . S
C72 O78 1.167 . S
C72 O79 1.299 . S
O73 Zn70 2.080 . S
O73 C87 1.305 . S
O74 Zn68 1.920 . S
O74 C87 1.234 . S
C75 O80 1.167 . S
C75 O81 1.299 . S
O76 Zn70 2.114 . S
O76 C71 1.166 . S
O77 Zn69 1.905 . S
O77 C71 1.182 . S
O78 Zn69 1.898 . S
O78 C72 1.167 . S
O79 Zn70 2.120 . S
O79 C72 1.299 . S
O80 Zn68 1.898 . S
O80 C75 1.167 . S
O81 Zn70 2.120 . S
O81 C75 1.299 . S
O82 Zn70 2.114 . S
O82 C84 1.166 . S
O83 Zn68 1.905 . S
O83 C84 1.182 . S
C84 O82 1.166 . S
C84 O83 1.182 . S
O85 Zn70 2.080 . S
O85 C88 1.305 . S
O86 Zn69 1.920 . S
O86 C88 1.234 . S
C87 O73 1.305 . S
C87 O74 1.234 . S
C88 O85 1.305 . S
C88 O86 1.234 . S
Zn89 O95 1.920 . S
Zn89 O101 1.898 . S
Zn89 O104 1.905 . S
Zn90 O98 1.905 . S
Zn90 O99 1.898 . S
Zn90 O107 1.920 . S
Zn91 O94 2.080 . S
Zn91 O97 2.114 . S
Zn91 O100 2.120 . S
Zn91 O102 2.120 . S
Zn91 O103 2.114 . S
Zn91 O106 2.080 . S
C92 O97 1.166 . S
C92 O98 1.182 . S
C93 O99 1.167 . S
C93 O100 1.299 . S
O94 Zn91 2.080 . S
O94 C108 1.305 . S
O95 Zn89 1.920 . S
O95 C108 1.234 . S
C96 O101 1.167 . S
C96 O102 1.299 . S
O97 Zn91 2.114 . S
O97 C92 1.166 . S
O98 Zn90 1.905 . S
O98 C92 1.182 . S
O99 Zn90 1.898 . S
O99 C93 1.167 . S
O100 Zn91 2.120 . S
O100 C93 1.299 . S
O101 Zn89 1.898 . S
O101 C96 1.167 . S
O102 Zn91 2.120 . S
O102 C96 1.299 . S
O103 Zn91 2.114 . S
O103 C105 1.166 . S
O104 Zn89 1.905 . S
O104 C105 1.182 . S
C105 O103 1.166 . S
C105 O104 1.182 . S
O106 Zn91 2.080 . S
O106 C109 1.305 . S
O107 Zn90 1.920 . S
O107 C109 1.234 . S
C108 O94 1.305 . S
C108 O95 1.234 . S
C109 O106 1.305 . S
C109 O107 1.234 . S
H110 C116 0.930 1_545 S
H111 C120 0.930 . S
H112 C125 0.929 . S
H113 C123 0.929 . S
H114 C118 0.929 . S
H115 C124 0.929 . S
C116 H110 0.930 1_565 S
C116 C117 1.367 . S
C116 C124 1.378 . S
C117 C116 1.367 . S
C117 C125 1.433 . S
C118 H114 0.929 . S
C118 C120 1.378 . S
C118 C122 1.350 . S
C119 C122 1.463 . S
C119 C124 1.350 . S
C119 N127 1.427 . S
C120 H111 0.930 . S
C120 C118 1.378 . S
C120 C121 1.367 . S
C121 C120 1.367 . S
C121 C123 1.433 . S
C122 C118 1.350 . S
C122 C119 1.463 . S
C122 N126 1.427 . S
C123 H113 0.929 . S
C123 C121 1.433 . S
C123 N126 1.384 . S
C124 H115 0.929 . S
C124 C116 1.378 . S
C124 C119 1.350 . S
C125 H112 0.929 . S
C125 C117 1.433 . S
C125 N127 1.384 . S
N126 C122 1.427 . S
N126 C123 1.384 . S
N127 C119 1.427 . S
N127 C125 1.384 . S
H128 C134 0.930 . S
H129 C138 0.930 . S
H130 C143 0.929 . S
H131 C141 0.929 . S
H132 C136 0.929 . S
H133 C142 0.929 . S
C134 H128 0.930 . S
C134 C135 1.367 . S
C134 C142 1.378 . S
C135 C134 1.367 . S
C135 C143 1.433 . S
C136 H132 0.929 . S
C136 C138 1.378 . S
C136 C140 1.350 . S
C137 C140 1.463 . S
C137 C142 1.350 . S
C137 N145 1.427 . S
C138 H129 0.930 . S
C138 C136 1.378 . S
C138 C139 1.367 . S
C139 C138 1.367 . S
C139 C141 1.433 . S
C140 C136 1.350 . S
C140 C137 1.463 . S
C140 N144 1.427 . S
C141 H131 0.929 . S
C141 C139 1.433 . S
C141 N144 1.384 . S
C142 H133 0.929 . S
C142 C134 1.378 . S
C142 C137 1.350 . S
C143 H130 0.929 . S
C143 C135 1.433 . S
C143 N145 1.384 . S
N144 C140 1.427 . S
N144 C141 1.384 . S
N145 C137 1.427 . S
N145 C143 1.384 . S
H146 C152 0.930 . S
H147 C156 0.930 . S
H148 C161 0.929 . S
H149 C159 0.929 . S
H150 C154 0.929 . S
H151 C160 0.929 . S
C152 H146 0.930 . S
C152 C153 1.367 . S
C152 C160 1.378 . S
C153 C152 1.367 . S
C153 C161 1.433 . S
C154 H150 0.929 . S
C154 C156 1.378 . S
C154 C158 1.350 . S
C155 C158 1.463 . S
C155 C160 1.350 . S
C155 N163 1.427 . S
C156 H147 0.930 . S
C156 C154 1.378 . S
C156 C157 1.367 . S
C157 C156 1.367 . S
C157 C159 1.433 . S
C158 C154 1.350 . S
C158 C155 1.463 . S
C158 N162 1.427 . S
C159 H149 0.929 . S
C159 C157 1.433 . S
C159 N162 1.384 . S
C160 H151 0.929 . S
C160 C152 1.378 . S
C160 C155 1.350 . S
C161 H148 0.929 . S
C161 C153 1.433 . S
C161 N163 1.384 . S
N162 C158 1.427 . S
N162 C159 1.384 . S
N163 C155 1.427 . S
N163 C161 1.384 . S
H164 C170 0.940 . S
H165 C174 0.930 . S
H166 C179 0.929 . S
H167 C177 0.929 . S
H168 C172 0.929 . S
H169 C178 0.929 . S
C170 H164 0.940 . S
C170 C171 1.367 . S
C170 C178 1.378 . S
C171 C170 1.367 . S
C171 C179 1.433 . S
C172 H168 0.929 . S
C172 C174 1.378 . S
C172 C176 1.350 . S
C173 C176 1.463 . S
C173 C178 1.350 . S
C173 N181 1.427 . S
C174 H165 0.930 . S
C174 C172 1.378 . S
C174 C175 1.367 . S
C175 C174 1.367 . S
C175 C177 1.433 . S
C176 C172 1.350 . S
C176 C173 1.463 . S
C176 N180 1.427 . S
C177 H167 0.929 . S
C177 C175 1.433 . S
C177 N180 1.384 . S
C178 H169 0.929 . S
C178 C170 1.378 . S
C178 C173 1.350 . S
C179 H166 0.929 . S
C179 C171 1.433 . S
C179 N181 1.384 . S
N180 C176 1.427 . S
N180 C177 1.384 . S
N181 C173 1.427 . S
N181 C179 1.384 . S
H182 C188 0.930 . S
H183 C192 0.930 . S
H184 C197 0.929 . S
H185 C195 0.929 . S
H186 C190 0.929 . S
H187 C196 0.929 . S
C188 H182 0.930 . S
C188 C189 1.367 . S
C188 C196 1.378 . S
C189 C188 1.367 . S
C189 C197 1.433 . S
C190 H186 0.929 . S
C190 C192 1.378 . S
C190 C194 1.350 . S
C191 C194 1.463 . S
C191 C196 1.350 . S
C191 N199 1.427 . S
C192 H183 0.930 . S
C192 C190 1.378 . S
C192 C193 1.367 . S
C193 C192 1.367 . S
C193 C195 1.433 . S
C194 C190 1.350 . S
C194 C191 1.463 . S
C194 N198 1.427 . S
C195 H185 0.929 . S
C195 C193 1.433 . S
C195 N198 1.384 . S
C196 H187 0.929 . S
C196 C188 1.378 . S
C196 C191 1.350 . S
C197 H184 0.929 . S
C197 C189 1.433 . S
C197 N199 1.384 . S
N198 C194 1.427 . S
N198 C195 1.384 . S
N199 C191 1.427 . S
N199 C197 1.384 . S
H200 C206 0.930 . S
H201 C210 0.930 . S
H202 C215 0.929 . S
H203 C213 0.929 . S
H204 C208 0.929 . S
H205 C214 0.929 . S
C206 H200 0.930 . S
C206 C207 1.367 . S
C206 C214 1.378 . S
C207 C206 1.367 . S
C207 C215 1.433 . S
C208 H204 0.929 . S
C208 C210 1.378 . S
C208 C212 1.350 . S
C209 C212 1.463 . S
C209 C214 1.350 . S
C209 N217 1.427 . S
C210 H201 0.930 . S
C210 C208 1.378 . S
C210 C211 1.367 . S
C211 C210 1.367 . S
C211 C213 1.433 . S
C212 C208 1.350 . S
C212 C209 1.463 . S
C212 N216 1.427 . S
C213 H203 0.929 . S
C213 C211 1.433 . S
C213 N216 1.384 . S
C214 H205 0.929 . S
C214 C206 1.378 . S
C214 C209 1.350 . S
C215 H202 0.929 . S
C215 C207 1.433 . S
C215 N217 1.384 . S
N216 C212 1.427 . S
N216 C213 1.384 . S
N217 C209 1.427 . S
N217 C215 1.384 . S
H218 C224 0.930 . S
H219 C228 0.930 . S
H220 C233 0.929 1_545 S
H221 C231 0.929 . S
H222 C226 0.929 . S
H223 C232 0.929 . S
C224 H218 0.930 . S
C224 C225 1.367 . S
C224 C232 1.378 . S
C225 C224 1.367 . S
C225 C233 1.433 . S
C226 H222 0.929 . S
C226 C228 1.378 . S
C226 C230 1.350 . S
C227 C230 1.463 . S
C227 C232 1.350 . S
C227 N235 1.427 . S
C228 H219 0.930 . S
C228 C226 1.378 . S
C228 C229 1.367 . S
C229 C228 1.367 . S
C229 C231 1.433 . S
C230 C226 1.350 . S
C230 C227 1.463 . S
C230 N234 1.427 . S
C231 H221 0.929 . S
C231 C229 1.433 . S
C231 N234 1.384 . S
C232 H223 0.929 . S
C232 C224 1.378 . S
C232 C227 1.350 . S
C233 H220 0.929 1_565 S
C233 C225 1.433 . S
C233 N235 1.384 . S
N234 C230 1.427 . S
N234 C231 1.384 . S
N235 C227 1.427 . S
N235 C233 1.384 . S
H236 C242 0.930 . S
H237 C246 0.930 . S
H238 C251 0.929 . S
H239 C249 0.929 . S
H240 C244 0.929 . S
H241 C250 0.929 . S
C242 H236 0.930 . S
C242 C243 1.367 . S
C242 C250 1.378 . S
C243 C242 1.367 . S
C243 C251 1.433 . S
C244 H240 0.929 . S
C244 C246 1.378 . S
C244 C248 1.350 . S
C245 C248 1.463 . S
C245 C250 1.350 . S
C245 N253 1.427 . S
C246 H237 0.930 . S
C246 C244 1.378 . S
C246 C247 1.367 . S
C247 C246 1.367 . S
C247 C249 1.433 . S
C248 C244 1.350 . S
C248 C245 1.463 . S
C248 N252 1.427 . S
C249 H239 0.929 . S
C249 C247 1.433 . S
C249 N252 1.384 . S
C250 H241 0.929 . S
C250 C242 1.378 . S
C250 C245 1.350 . S
C251 H238 0.929 . S
C251 C243 1.433 . S
C251 N253 1.384 . S
N252 C248 1.427 . S
N252 C249 1.384 . S
N253 C245 1.427 . S
N253 C251 1.384 . S
H254 C260 0.930 . S
H255 C264 0.930 . S
H256 C269 0.929 . S
H257 C267 0.929 . S
H258 C262 0.929 . S
H259 C268 0.929 . S
C260 H254 0.930 . S
C260 C261 1.367 . S
C260 C268 1.378 . S
C261 C260 1.367 . S
C261 C269 1.433 . S
C262 H258 0.929 . S
C262 C264 1.378 . S
C262 C266 1.350 . S
C263 C266 1.463 . S
C263 C268 1.350 . S
C263 N271 1.427 . S
C264 H255 0.930 . S
C264 C262 1.378 . S
C264 C265 1.367 . S
C265 C264 1.367 . S
C265 C267 1.433 . S
C266 C262 1.350 . S
C266 C263 1.463 . S
C266 N270 1.427 . S
C267 H257 0.929 . S
C267 C265 1.433 . S
C267 N270 1.384 . S
C268 H259 0.929 . S
C268 C260 1.378 . S
C268 C263 1.350 . S
C269 H256 0.929 . S
C269 C261 1.433 . S
C269 N271 1.384 . S
N270 C266 1.427 . S
N270 C267 1.384 . S
N271 C263 1.427 . S
N271 C269 1.384 . S
H272 C278 0.930 1_455 S
H273 C282 0.930 . S
H274 C287 0.929 . S
H275 C285 0.929 . S
H276 C280 0.929 . S
H277 C286 0.929 . S
C278 H272 0.930 1_655 S
C278 C279 1.367 . S
C278 C286 1.378 . S
C279 C278 1.367 . S
C279 C287 1.433 . S
C280 H276 0.929 . S
C280 C282 1.378 . S
C280 C284 1.350 . S
C281 C284 1.463 . S
C281 C286 1.350 . S
C281 N289 1.427 . S
C282 H273 0.930 . S
C282 C280 1.378 . S
C282 C283 1.367 . S
C283 C282 1.367 . S
C283 C285 1.433 . S
C284 C280 1.350 . S
C284 C281 1.463 . S
C284 N288 1.427 . S
C285 H275 0.929 . S
C285 C283 1.433 . S
C285 N288 1.384 . S
C286 H277 0.929 . S
C286 C278 1.378 . S
C286 C281 1.350 . S
C287 H274 0.929 . S
C287 C279 1.433 . S
C287 N289 1.384 . S
N288 C284 1.427 . S
N288 C285 1.384 . S
N289 C281 1.427 . S
N289 C287 1.384 . S
H290 C296 0.930 . S
H291 C300 0.930 . S
H292 C305 0.929 . S
H293 C303 0.929 . S
H294 C298 0.929 . S
H295 C304 0.929 . S
C296 H290 0.930 . S
C296 C297 1.367 . S
C296 C304 1.378 . S
C297 C296 1.367 . S
C297 C305 1.433 . S
C298 H294 0.929 . S
C298 C300 1.378 . S
C298 C302 1.350 . S
C299 C302 1.463 . S
C299 C304 1.350 . S
C299 N307 1.427 . S
C300 H291 0.930 . S
C300 C298 1.378 . S
C300 C301 1.367 . S
C301 C300 1.367 . S
C301 C303 1.433 . S
C302 C298 1.350 . S
C302 C299 1.463 . S
C302 N306 1.427 . S
C303 H293 0.929 . S
C303 C301 1.433 . S
C303 N306 1.384 . S
C304 H295 0.929 . S
C304 C296 1.378 . S
C304 C299 1.350 . S
C305 H292 0.929 . S
C305 C297 1.433 . S
C305 N307 1.384 . S
N306 C302 1.427 . S
N306 C303 1.384 . S
N307 C299 1.427 . S
N307 C305 1.384 . S
H308 C314 0.930 . S
H309 C318 0.930 . S
H310 C323 0.929 . S
H311 C321 0.929 . S
H312 C316 0.929 . S
H313 C322 0.929 . S
C314 H308 0.930 . S
C314 C315 1.367 . S
C314 C322 1.378 . S
C315 C314 1.367 . S
C315 C323 1.433 . S
C316 H312 0.929 . S
C316 C318 1.378 . S
C316 C320 1.350 . S
C317 C320 1.463 . S
C317 C322 1.350 . S
C317 N325 1.427 . S
C318 H309 0.930 . S
C318 C316 1.378 . S
C318 C319 1.367 . S
C319 C318 1.367 . S
C319 C321 1.433 . S
C320 C316 1.350 . S
C320 C317 1.463 . S
C320 N324 1.427 . S
C321 H311 0.929 . S
C321 C319 1.433 . S
C321 N324 1.384 . S
C322 H313 0.929 . S
C322 C314 1.378 . S
C322 C317 1.350 . S
C323 H310 0.929 . S
C323 C315 1.433 . S
C323 N325 1.384 . S
N324 C320 1.427 . S
N324 C321 1.384 . S
N325 C317 1.427 . S
N325 C323 1.384 . S
C117 C0 1.676 . S
C121 C87 1.472 . S
C135 C42 1.797 . S
C139 C93 1.641 . S
C153 C17 1.658 . S
C157 C84 1.550 . S
C171 C63 1.501 . S
C175 C109 1.344 . S
C189 C13 1.221 . S
C193 C75 1.095 . S
C211 C92 1.126 . S
C207 C38 1.253 . S
C225 C34 1.678 . S
C229 C88 1.483 . S
C247 C105 1.137 . S
C243 C4 1.259 . S
C265 C72 1.084 . S
C261 C47 1.217 . S
C283 C108 1.337 . S
C279 C29 1.500 . S
C301 C71 1.551 . S
C297 C51 1.658 . S
C319 C96 1.645 . S
C315 C8 1.796 . S
