# Generated by pormake.
# Topology ctn, (3,4)-cn, num edge types: 1
# Building blocks:
#     Node 0, Type 0, BuildingBlock: OLANEW_clean_sbu_2, # of connection points: 3
#     Node 1, Type 0, BuildingBlock: OLANEW_clean_sbu_2, # of connection points: 3
#     Node 2, Type 0, BuildingBlock: OLANEW_clean_sbu_2, # of connection points: 3
#     Node 3, Type 0, BuildingBlock: OLANEW_clean_sbu_2, # of connection points: 3
#     Node 4, Type 0, BuildingBlock: OLANEW_clean_sbu_2, # of connection points: 3
#     Node 5, Type 0, BuildingBlock: OLANEW_clean_sbu_2, # of connection points: 3
#     Node 6, Type 0, BuildingBlock: OLANEW_clean_sbu_2, # of connection points: 3
#     Node 7, Type 0, BuildingBlock: OLANEW_clean_sbu_2, # of connection points: 3
#     Node 8, Type 0, BuildingBlock: OLANEW_clean_sbu_2, # of connection points: 3
#     Node 9, Type 0, BuildingBlock: OLANEW_clean_sbu_2, # of connection points: 3
#     Node 10, Type 0, BuildingBlock: OLANEW_clean_sbu_2, # of connection points: 3
#     Node 11, Type 0, BuildingBlock: OLANEW_clean_sbu_2, # of connection points: 3
#     Node 12, Type 0, BuildingBlock: OLANEW_clean_sbu_2, # of connection points: 3
#     Node 13, Type 0, BuildingBlock: OLANEW_clean_sbu_2, # of connection points: 3
#     Node 14, Type 0, BuildingBlock: OLANEW_clean_sbu_2, # of connection points: 3
#     Node 15, Type 0, BuildingBlock: OLANEW_clean_sbu_2, # of connection points: 3
#     Node 16, Type 1, BuildingBlock: TATPOV_clean_sbu_0, # of connection points: 4
#     Node 17, Type 1, BuildingBlock: TATPOV_clean_sbu_0, # of connection points: 4
#     Node 18, Type 1, BuildingBlock: TATPOV_clean_sbu_0, # of connection points: 4
#     Node 19, Type 1, BuildingBlock: TATPOV_clean_sbu_0, # of connection points: 4
#     Node 20, Type 1, BuildingBlock: TATPOV_clean_sbu_0, # of connection points: 4
#     Node 21, Type 1, BuildingBlock: TATPOV_clean_sbu_0, # of connection points: 4
#     Node 22, Type 1, BuildingBlock: TATPOV_clean_sbu_0, # of connection points: 4
#     Node 23, Type 1, BuildingBlock: TATPOV_clean_sbu_0, # of connection points: 4
#     Node 24, Type 1, BuildingBlock: TATPOV_clean_sbu_0, # of connection points: 4
#     Node 25, Type 1, BuildingBlock: TATPOV_clean_sbu_0, # of connection points: 4
#     Node 26, Type 1, BuildingBlock: TATPOV_clean_sbu_0, # of connection points: 4
#     Node 27, Type 1, BuildingBlock: TATPOV_clean_sbu_0, # of connection points: 4
#     Edge 28, Type (0, 1), BuildingBlock: TEMPAE_clean_linker_10, # of connection points: 2
#     Edge 29, Type (0, 1), BuildingBlock: TEMPAE_clean_linker_10, # of connection points: 2
#     Edge 30, Type (0, 1), BuildingBlock: TEMPAE_clean_linker_10, # of connection points: 2
#     Edge 31, Type (0, 1), BuildingBlock: TEMPAE_clean_linker_10, # of connection points: 2
#     Edge 32, Type (0, 1), BuildingBlock: TEMPAE_clean_linker_10, # of connection points: 2
#     Edge 33, Type (0, 1), BuildingBlock: TEMPAE_clean_linker_10, # of connection points: 2
#     Edge 34, Type (0, 1), BuildingBlock: TEMPAE_clean_linker_10, # of connection points: 2
#     Edge 35, Type (0, 1), BuildingBlock: TEMPAE_clean_linker_10, # of connection points: 2
#     Edge 36, Type (0, 1), BuildingBlock: TEMPAE_clean_linker_10, # of connection points: 2
#     Edge 37, Type (0, 1), BuildingBlock: TEMPAE_clean_linker_10, # of connection points: 2
#     Edge 38, Type (0, 1), BuildingBlock: TEMPAE_clean_linker_10, # of connection points: 2
#     Edge 39, Type (0, 1), BuildingBlock: TEMPAE_clean_linker_10, # of connection points: 2
#     Edge 40, Type (0, 1), BuildingBlock: TEMPAE_clean_linker_10, # of connection points: 2
#     Edge 41, Type (0, 1), BuildingBlock: TEMPAE_clean_linker_10, # of connection points: 2
#     Edge 42, Type (0, 1), BuildingBlock: TEMPAE_clean_linker_10, # of connection points: 2
#     Edge 43, Type (0, 1), BuildingBlock: TEMPAE_clean_linker_10, # of connection points: 2
#     Edge 44, Type (0, 1), BuildingBlock: TEMPAE_clean_linker_10, # of connection points: 2
#     Edge 45, Type (0, 1), BuildingBlock: TEMPAE_clean_linker_10, # of connection points: 2
#     Edge 46, Type (0, 1), BuildingBlock: TEMPAE_clean_linker_10, # of connection points: 2
#     Edge 47, Type (0, 1), BuildingBlock: TEMPAE_clean_linker_10, # of connection points: 2
#     Edge 48, Type (0, 1), BuildingBlock: TEMPAE_clean_linker_10, # of connection points: 2
#     Edge 49, Type (0, 1), BuildingBlock: TEMPAE_clean_linker_10, # of connection points: 2
#     Edge 50, Type (0, 1), BuildingBlock: TEMPAE_clean_linker_10, # of connection points: 2
#     Edge 51, Type (0, 1), BuildingBlock: TEMPAE_clean_linker_10, # of connection points: 2
#     Edge 52, Type (0, 1), BuildingBlock: TEMPAE_clean_linker_10, # of connection points: 2
#     Edge 53, Type (0, 1), BuildingBlock: TEMPAE_clean_linker_10, # of connection points: 2
#     Edge 54, Type (0, 1), BuildingBlock: TEMPAE_clean_linker_10, # of connection points: 2
#     Edge 55, Type (0, 1), BuildingBlock: TEMPAE_clean_linker_10, # of connection points: 2
#     Edge 56, Type (0, 1), BuildingBlock: TEMPAE_clean_linker_10, # of connection points: 2
#     Edge 57, Type (0, 1), BuildingBlock: TEMPAE_clean_linker_10, # of connection points: 2
#     Edge 58, Type (0, 1), BuildingBlock: TEMPAE_clean_linker_10, # of connection points: 2
#     Edge 59, Type (0, 1), BuildingBlock: TEMPAE_clean_linker_10, # of connection points: 2
#     Edge 60, Type (0, 1), BuildingBlock: TEMPAE_clean_linker_10, # of connection points: 2
#     Edge 61, Type (0, 1), BuildingBlock: TEMPAE_clean_linker_10, # of connection points: 2
#     Edge 62, Type (0, 1), BuildingBlock: TEMPAE_clean_linker_10, # of connection points: 2
#     Edge 63, Type (0, 1), BuildingBlock: TEMPAE_clean_linker_10, # of connection points: 2
#     Edge 64, Type (0, 1), BuildingBlock: TEMPAE_clean_linker_10, # of connection points: 2
#     Edge 65, Type (0, 1), BuildingBlock: TEMPAE_clean_linker_10, # of connection points: 2
#     Edge 66, Type (0, 1), BuildingBlock: TEMPAE_clean_linker_10, # of connection points: 2
#     Edge 67, Type (0, 1), BuildingBlock: TEMPAE_clean_linker_10, # of connection points: 2
#     Edge 68, Type (0, 1), BuildingBlock: TEMPAE_clean_linker_10, # of connection points: 2
#     Edge 69, Type (0, 1), BuildingBlock: TEMPAE_clean_linker_10, # of connection points: 2
#     Edge 70, Type (0, 1), BuildingBlock: TEMPAE_clean_linker_10, # of connection points: 2
#     Edge 71, Type (0, 1), BuildingBlock: TEMPAE_clean_linker_10, # of connection points: 2
#     Edge 72, Type (0, 1), BuildingBlock: TEMPAE_clean_linker_10, # of connection points: 2
#     Edge 73, Type (0, 1), BuildingBlock: TEMPAE_clean_linker_10, # of connection points: 2
#     Edge 74, Type (0, 1), BuildingBlock: TEMPAE_clean_linker_10, # of connection points: 2
#     Edge 75, Type (0, 1), BuildingBlock: TEMPAE_clean_linker_10, # of connection points: 2
# Relax obj value: 0.053
# Max RMSD: 0.169
# Mean RMSD: 0.095
data_MOF--net-ctn--node1-OLANEW_clean_sbu_2--node2-TATPOV_clean_sbu_0--edge1-TEMPAE_clean_linker_10
_symmetry_space_group_name_H-M    P1
_symmetry_Int_Tables_number       1
_symmetry_cell_setting            triclinic
loop_
_symmetry_equiv_pos_as_xyz
'x, y, z'
_cell_length_a     58.176159
_cell_length_b     59.543287
_cell_length_c     56.433504
_cell_angle_alpha  92.184668
_cell_angle_beta   95.762533
_cell_angle_gamma 96.794846
loop_
_atom_site_label
_atom_site_type_symbol
_atom_site_fract_x
_atom_site_fract_y
_atom_site_fract_z
_atom_type_partial_charge
O0 O 0.04974 0.04554 0.99561 0.0
Cd1 Cd 0.05381 0.01319 0.02076 0.0
O2 O 0.0226 0.05118 0.0183 0.0
Cd3 Cd 0.99544 0.06583 0.03576 0.0
O4 O 0.97212 0.06634 0.06387 0.0
C5 C 0.96081 0.04753 0.068 0.0
O6 O 0.96293 0.02951 0.05459 0.0
C7 C 0.0339 0.05724 0.00096 0.0
C8 C 0.09224 0.9898 0.01662 0.0
O9 O 0.07295 0.98393 0.00359 0.0
O10 O 0.09356 0.00717 0.03107 0.0
O11 O 0.30059 0.73437 0.29008 0.0
Cd12 Cd 0.2601 0.73445 0.27318 0.0
O13 O 0.3055 0.70322 0.27001 0.0
Cd14 Cd 0.26823 0.69464 0.26006 0.0
O15 O 0.23772 0.6725 0.26819 0.0
C16 C 0.24085 0.65186 0.27014 0.0
O17 O 0.261 0.64567 0.26569 0.0
C18 C 0.31381 0.72003 0.28411 0.0
C19 C 0.25783 0.75878 0.23175 0.0
O20 O 0.25797 0.7687 0.25233 0.0
O21 O 0.25856 0.73734 0.23075 0.0
O22 O 0.96857 0.43145 0.15434 0.0
Cd23 Cd 0.95056 0.42672 0.11325 0.0
O24 O 0.99084 0.40451 0.1498 0.0
Cd25 Cd 0.97783 0.39468 0.11287 0.0
O26 O 0.97723 0.37739 0.07803 0.0
C27 C 0.9966 0.37189 0.07269 0.0
O28 O 0.01521 0.37733 0.08795 0.0
C29 C 0.98422 0.4199 0.16281 0.0
C30 C 0.92781 0.46392 0.10065 0.0
O31 O 0.91688 0.44639 0.10879 0.0
O32 O 0.94952 0.46384 0.09845 0.0
O33 O 0.7465 0.80637 0.23414 0.0
Cd34 Cd 0.72514 0.7686 0.23578 0.0
O35 O 0.77017 0.80233 0.2662 0.0
Cd36 Cd 0.74965 0.77142 0.2758 0.0
O37 O 0.72254 0.75594 0.29637 0.0
C38 C 0.70533 0.74194 0.28752 0.0
O39 O 0.70415 0.735 0.265 0.0
C40 C 0.76401 0.81401 0.24875 0.0
C41 C 0.73875 0.73731 0.20345 0.0
O42 O 0.72213 0.749 0.19751 0.0
O43 O 0.74897 0.74044 0.22473 0.0
O44 O 0.11952 0.93896 0.4985 0.0
Cd45 Cd 0.09016 0.90604 0.4904 0.0
O46 O 0.09616 0.95418 0.47291 0.0
Cd47 Cd 0.08333 0.9781 0.44786 0.0
O48 O 0.05862 0.99139 0.42202 0.0
C49 C 0.04563 0.97675 0.40819 0.0
O50 O 0.04857 0.9553 0.40983 0.0
C51 C 0.11506 0.95594 0.48668 0.0
C52 C 0.07071 0.88905 0.53013 0.0
O53 O 0.08781 0.88057 0.52209 0.0
O54 O 0.06317 0.90591 0.51971 0.0
O55 O 0.29263 0.77978 0.82491 0.0
Cd56 Cd 0.29904 0.76776 0.7844 0.0
O57 O 0.25512 0.77052 0.81621 0.0
Cd58 Cd 0.21831 0.76977 0.82128 0.0
O59 O 0.18133 0.77142 0.81153 0.0
C60 C 0.1758 0.77516 0.7898 0.0
O61 O 0.19232 0.77767 0.7755 0.0
C62 C 0.27217 0.77849 0.83121 0.0
C63 C 0.29892 0.72103 0.7784 0.0
O64 O 0.31753 0.73399 0.78626 0.0
O65 O 0.28027 0.73018 0.77343 0.0
O66 O 0.92755 0.5736 0.42387 0.0
Cd67 Cd 0.88959 0.58331 0.43255 0.0
O68 O 0.93596 0.57435 0.46246 0.0
Cd69 Cd 0.95478 0.57143 0.49747 0.0
O70 O 0.96085 0.58696 0.53347 0.0
C71 C 0.97264 0.60642 0.53564 0.0
O72 O 0.98202 0.61447 0.51698 0.0
C73 C 0.94202 0.57109 0.4417 0.0
C74 C 0.86829 0.54829 0.45716 0.0
O75 O 0.86557 0.54815 0.43433 0.0
O76 O 0.8807 0.56534 0.46846 0.0
O77 O 0.8325 0.80871 0.912 0.0
Cd78 Cd 0.8305 0.84089 0.88667 0.0
O79 O 0.79465 0.79914 0.90529 0.0
Cd80 Cd 0.78701 0.82987 0.88773 0.0
O81 O 0.76709 0.85755 0.87773 0.0
C82 C 0.76544 0.87303 0.8934 0.0
O83 O 0.77694 0.87253 0.9146 0.0
C84 C 0.8145 0.79498 0.91439 0.0
C85 C 0.85044 0.83126 0.84515 0.0
O86 O 0.86222 0.84342 0.86247 0.0
O87 O 0.82913 0.82412 0.84726 0.0
O88 O 0.34699 0.31204 0.41146 0.0
Cd89 Cd 0.35895 0.34914 0.3967 0.0
O90 O 0.30937 0.3123 0.40235 0.0
Cd91 Cd 0.31134 0.3475 0.39239 0.0
O92 O 0.29315 0.37747 0.38921 0.0
C93 C 0.27799 0.37787 0.37143 0.0
O94 O 0.27549 0.36132 0.35495 0.0
C95 C 0.3263 0.30212 0.41033 0.0
C96 C 0.37854 0.34289 0.35419 0.0
O97 O 0.39032 0.34165 0.37443 0.0
O98 O 0.35757 0.34757 0.35395 0.0
O99 O 0.4775 0.95617 0.63774 0.0
Cd100 Cd 0.46031 0.94928 0.59644 0.0
O101 O 0.50046 0.92956 0.63483 0.0
Cd102 Cd 0.48826 0.9173 0.59835 0.0
O103 O 0.4887 0.89502 0.56687 0.0
C104 C 0.50684 0.88514 0.56605 0.0
O105 O 0.52366 0.88924 0.58358 0.0
C106 C 0.49336 0.94526 0.647 0.0
C107 C 0.43165 0.98189 0.58237 0.0
O108 O 0.42333 0.96343 0.59102 0.0
O109 O 0.45356 0.98496 0.58047 0.0
O110 O 0.22525 0.3037 0.71176 0.0
Cd111 Cd 0.20396 0.26572 0.71248 0.0
O112 O 0.24856 0.29943 0.744 0.0
Cd113 Cd 0.22831 0.26783 0.75195 0.0
O114 O 0.19899 0.25082 0.7684 0.0
C115 C 0.19985 0.25209 0.79102 0.0
O116 O 0.21899 0.26192 0.80339 0.0
C117 C 0.24245 0.31136 0.72677 0.0
C118 C 0.2181 0.23476 0.68018 0.0
O119 O 0.20151 0.24644 0.6741 0.0
O120 O 0.22809 0.23779 0.70156 0.0
O121 O 0.79219 0.23121 0.77576 0.0
Cd122 Cd 0.75215 0.23049 0.75711 0.0
O123 O 0.7981 0.19926 0.75785 0.0
Cd124 Cd 0.76116 0.19018 0.74625 0.0
O125 O 0.72882 0.16943 0.75175 0.0
C126 C 0.72087 0.172 0.77172 0.0
O127 O 0.73144 0.18802 0.78705 0.0
C128 C 0.80578 0.21669 0.77131 0.0
C129 C 0.75086 0.25664 0.71694 0.0
O130 O 0.74962 0.26552 0.73775 0.0
O131 O 0.7525 0.23538 0.71511 0.0
O132 O 0.54192 0.5376 0.49685 0.0
Cd133 Cd 0.54156 0.50247 0.51836 0.0
O134 O 0.51728 0.54551 0.52162 0.0
Cd135 Cd 0.49331 0.56179 0.54232 0.0
O136 O 0.47201 0.56184 0.57226 0.0
C137 C 0.4573 0.54451 0.57384 0.0
O138 O 0.45487 0.52831 0.55697 0.0
C139 C 0.5285 0.55118 0.50409 0.0
C140 C 0.58028 0.47883 0.51794 0.0
O141 O 0.56296 0.47467 0.50181 0.0
O142 O 0.5796 0.49467 0.5338 0.0
O143 O 0.58788 0.4944 0.99279 0.0
Cd144 Cd 0.54879 0.4742 0.9828 0.0
O145 O 0.57999 0.52293 0.97098 0.0
Cd146 Cd 0.54518 0.50812 0.95634 0.0
O147 O 0.51355 0.50266 0.93158 0.0
C148 C 0.50735 0.52004 0.92153 0.0
O149 O 0.51982 0.53976 0.92707 0.0
C150 C 0.59411 0.51375 0.9851 0.0
C151 C 0.53576 0.44454 0.01758 0.0
O152 O 0.54584 0.43785 0.99987 0.0
O153 O 0.53195 0.4653 0.01888 0.0
O154 O 0.80607 0.27839 0.3207 0.0
Cd155 Cd 0.81562 0.26534 0.28166 0.0
O156 O 0.76906 0.27064 0.30812 0.0
Cd157 Cd 0.7317 0.27139 0.30883 0.0
O158 O 0.69576 0.27406 0.29508 0.0
C159 C 0.69202 0.29104 0.28291 0.0
O160 O 0.70962 0.30639 0.28021 0.0
C161 C 0.78491 0.27808 0.32464 0.0
C162 C 0.82064 0.21933 0.27942 0.0
O163 O 0.83789 0.23424 0.28668 0.0
O164 O 0.80093 0.22619 0.27326 0.0
O165 O 0.42856 0.07792 0.94387 0.0
Cd166 Cd 0.39261 0.0881 0.95781 0.0
O167 O 0.44406 0.08248 0.98081 0.0
Cd168 Cd 0.46842 0.08392 0.01313 0.0
O169 O 0.47972 0.10405 0.04619 0.0
C170 C 0.49091 0.12341 0.04417 0.0
O171 O 0.49689 0.12883 0.02308 0.0
C172 C 0.44606 0.07724 0.95911 0.0
C173 C 0.37093 0.05111 0.97928 0.0
O174 O 0.3669 0.05363 0.95685 0.0
O175 O 0.38491 0.0664 0.99171 0.0
Zn176 Zn 0.30278 0.85476 0.04234 0.0
Zn177 Zn 0.2604 0.86951 0.0388 0.0
O178 O 0.26096 0.85241 0.07008 0.0
O179 O 0.29632 0.84234 0.07414 0.0
O180 O 0.22997 0.88292 0.03616 0.0
O181 O 0.31838 0.88684 0.04026 0.0
O182 O 0.28368 0.89818 0.03892 0.0
C183 C 0.27671 0.84297 0.08192 0.0
C184 C 0.27288 0.83708 -5e-05 0.0
O185 O 0.2588 0.84962 0.00794 0.0
O186 O 0.29236 0.83571 0.01172 0.0
C187 C 0.2267 0.89655 0.01966 0.0
O188 O 0.24254 0.90019 0.00473 0.0
C189 C 0.30563 0.90268 0.03899 0.0
Zn190 Zn 0.08872 0.45835 0.37423 0.0
Zn191 Zn 0.10791 0.49592 0.35429 0.0
O192 O 0.09011 0.509 0.3801 0.0
O193 O 0.07551 0.47888 0.39751 0.0
O194 O 0.12261 0.52315 0.33898 0.0
O195 O 0.12097 0.44875 0.38098 0.0
O196 O 0.13594 0.47937 0.36473 0.0
C197 C 0.07803 0.50017 0.39577 0.0
C198 C 0.07213 0.46149 0.32457 0.0
O199 O 0.08631 0.47962 0.32679 0.0
O200 O 0.06974 0.44919 0.34223 0.0
C201 C 0.13791 0.53743 0.3507 0.0
O202 O 0.14358 0.5346 0.37343 0.0
C203 C 0.13851 0.4609 0.37475 0.0
Zn204 Zn 0.80622 0.59751 0.99202 0.0
Zn205 Zn 0.80136 0.61777 0.03482 0.0
O206 O 0.82638 0.59698 0.04396 0.0
O207 O 0.83073 0.58085 0.00917 0.0
O208 O 0.79724 0.63514 0.06522 0.0
O209 O 0.81469 0.62799 0.97844 0.0
O210 O 0.81034 0.64376 0.01331 0.0
C211 C 0.83607 0.58319 0.03153 0.0
C212 C 0.76023 0.58758 0.00693 0.0
O213 O 0.76909 0.60024 0.02505 0.0
O214 O 0.7724 0.58389 0.99012 0.0
C215 C 0.78363 0.62776 0.08022 0.0
O216 O 0.77249 0.60719 0.07678 0.0
C217 C 0.81496 0.6456 0.99182 0.0
Zn218 Zn 0.85053 0.01301 0.30438 0.0
Zn219 Zn 0.87156 0.01627 0.26387 0.0
O220 O 0.85686 0.04592 0.2672 0.0
O221 O 0.83975 0.04377 0.3002 0.0
O222 O 0.8869 0.01995 0.2335 0.0
O223 O 0.88214 0.01065 0.32227 0.0
O224 O 0.8989 0.01365 0.28906 0.0
C225 C 0.84512 0.05461 0.28228 0.0
C226 C 0.83439 0.97615 0.26974 0.0
O227 O 0.84945 0.98644 0.25772 0.0
O228 O 0.83098 0.98446 0.28992 0.0
C229 C 0.87612 0.02666 0.21486 0.0
O230 O 0.85445 0.0307 0.21538 0.0
C231 C 0.9003 0.0114 0.3115 0.0
Zn232 Zn 0.28997 0.09657 0.46979 0.0
Zn233 Zn 0.28355 0.11584 0.51264 0.0
O234 O 0.31077 0.09791 0.52214 0.0
O235 O 0.31615 0.0821 0.4875 0.0
O236 O 0.27804 0.13297 0.5427 0.0
O237 O 0.29626 0.12731 0.456 0.0
O238 O 0.29079 0.14212 0.49096 0.0
C239 C 0.3216 0.08505 0.50983 0.0
C240 C 0.24498 0.08216 0.48511 0.0
O241 O 0.25298 0.09507 0.50333 0.0
O242 O 0.25712 0.08036 0.46786 0.0
C243 C 0.26461 0.12537 0.55776 0.0
O244 O 0.25419 0.1045 0.55468 0.0
C245 C 0.29542 0.14456 0.46956 0.0
Zn246 Zn 0.31404 0.51174 0.79089 0.0
Zn247 Zn 0.33991 0.51715 0.75395 0.0
O248 O 0.32367 0.54602 0.75621 0.0
O249 O 0.30224 0.54192 0.78608 0.0
O250 O 0.35743 0.52272 0.72512 0.0
O251 O 0.34411 0.51077 0.81215 0.0
O252 O 0.36503 0.51544 0.78186 0.0
C253 C 0.3097 0.5537 0.76962 0.0
C254 C 0.30346 0.47523 0.7552 0.0
O255 O 0.31961 0.48652 0.74536 0.0
O256 O 0.2972 0.48281 0.77451 0.0
C257 C 0.37642 0.51499 0.72197 0.0
O258 O 0.38548 0.50233 0.73811 0.0
C259 C 0.36375 0.51284 0.80403 0.0
Zn260 Zn 0.80181 0.35748 0.53296 0.0
Zn261 Zn 0.75929 0.37177 0.52722 0.0
O262 O 0.75899 0.3552 0.5589 0.0
O263 O 0.7945 0.34571 0.56475 0.0
O264 O 0.72913 0.38561 0.5229 0.0
O265 O 0.81748 0.38946 0.53045 0.0
O266 O 0.78257 0.40039 0.527 0.0
C267 C 0.77448 0.34617 0.57161 0.0
C268 C 0.77329 0.33866 0.49002 0.0
O269 O 0.75874 0.35126 0.49695 0.0
O270 O 0.79241 0.3377 0.50264 0.0
C271 C 0.71125 0.38116 0.53391 0.0
O272 O 0.71096 0.36527 0.54943 0.0
C273 C 0.80457 0.40508 0.52787 0.0
Zn274 Zn 0.58012 0.96467 0.86503 0.0
Zn275 Zn 0.60503 0.00258 0.85176 0.0
O276 O 0.58651 0.01466 0.8776 0.0
O277 O 0.5676 0.98381 0.89 0.0
O278 O 0.62383 0.0304 0.84152 0.0
O279 O 0.61008 0.951 0.87253 0.0
O280 O 0.63002 0.98216 0.86213 0.0
C281 C 0.57254 0.00516 0.89125 0.0
C282 C 0.56861 0.97467 0.81589 0.0
O283 O 0.58453 0.99118 0.82121 0.0
O284 O 0.5632 0.9608 0.8315 0.0
C285 C 0.61405 0.04577 0.8309 0.0
O286 O 0.59122 0.04362 0.82715 0.0
C287 C 0.62943 0.96221 0.86965 0.0
Zn288 Zn 0.00988 0.27782 0.86811 0.0
Zn289 Zn 0.00884 0.23891 0.89092 0.0
O290 O 0.0391 0.24022 0.87425 0.0
O291 O 0.0406 0.27274 0.85686 0.0
O292 O 0.00977 0.21083 0.90995 0.0
O293 O 0.00884 0.29558 0.89908 0.0
O294 O 0.00841 0.26359 0.91738 0.0
C295 C 0.04945 0.25481 0.86169 0.0
C296 C 0.96951 0.24563 0.8524 0.0
O297 O 0.97821 0.23355 0.86837 0.0
O298 O 0.97999 0.26484 0.84862 0.0
C299 C 0.00589 0.19068 0.90091 0.0
O300 O 0.00035 0.1874 0.87778 0.0
C301 C 0.00829 0.28501 0.91809 0.0
Zn302 Zn 0.52188 0.77499 0.37229 0.0
Zn303 Zn 0.51995 0.73721 0.39656 0.0
O304 O 0.54973 0.7367 0.37902 0.0
O305 O 0.55133 0.76816 0.35971 0.0
O306 O 0.51992 0.70937 0.41624 0.0
O307 O 0.523 0.79413 0.40261 0.0
O308 O 0.52093 0.76294 0.42241 0.0
C309 C 0.55984 0.75022 0.3652 0.0
C310 C 0.48003 0.74456 0.35874 0.0
O311 O 0.48874 0.73254 0.37476 0.0
O312 O 0.49103 0.76326 0.35413 0.0
C313 C 0.51232 0.68943 0.40792 0.0
O314 O 0.50374 0.6864 0.38543 0.0
C315 C 0.52208 0.78446 0.42214 0.0
Zn316 Zn 0.9335 0.77438 0.65302 0.0
Zn317 Zn 0.97226 0.77047 0.68284 0.0
O318 O 0.98351 0.79507 0.66083 0.0
O319 O 0.95279 0.79751 0.63531 0.0
O320 O 0.00121 0.76758 0.7045 0.0
O321 O 0.9179 0.78434 0.68163 0.0
O322 O 0.94894 0.77904 0.70551 0.0
C323 C 0.97404 0.8036 0.64251 0.0
C324 C 0.94892 0.73003 0.65025 0.0
O325 O 0.96514 0.73923 0.66563 0.0
O326 O 0.93264 0.74116 0.64265 0.0
C327 C 0.01257 0.78487 0.71591 0.0
O328 O 0.00467 0.80458 0.71397 0.0
C329 C 0.92835 0.78448 0.70246 0.0
Zn330 Zn 0.44586 0.29691 0.15107 0.0
Zn331 Zn 0.48896 0.30131 0.17561 0.0
O332 O 0.49303 0.32552 0.15116 0.0
O333 O 0.45801 0.3232 0.13167 0.0
O334 O 0.52026 0.30339 0.19483 0.0
O335 O 0.43191 0.30238 0.18208 0.0
O336 O 0.46736 0.30812 0.20082 0.0
C337 C 0.47903 0.33224 0.13488 0.0
C338 C 0.46897 0.25704 0.14679 0.0
O339 O 0.48485 0.26894 0.1606 0.0
O340 O 0.45029 0.26507 0.14008 0.0
C341 C 0.53728 0.29576 0.18613 0.0
O342 O 0.53436 0.28711 0.16411 0.0
C343 C 0.44542 0.30751 0.20103 0.0
C344 C 0.251 0.77614 0.86776 0.0
C345 C 0.26859 0.78687 0.85539 0.0
C346 C 0.24863 0.7832 0.89136 0.0
C347 C 0.26413 0.80149 0.90269 0.0
C348 C 0.28151 0.81272 0.88999 0.0
C349 C 0.28366 0.80513 0.86659 0.0
C350 C 0.23013 0.77059 0.90444 0.0
C351 C 0.29823 0.83246 0.90131 0.0
C352 C 0.25214 0.83376 0.95863 0.0
C353 C 0.26769 0.82563 0.97593 0.0
C354 C 0.24993 0.82532 0.93479 0.0
C355 C 0.26333 0.80815 0.92826 0.0
C356 C 0.27787 0.79888 0.94599 0.0
C357 C 0.28001 0.80785 0.96955 0.0
C358 C 0.23436 0.83575 0.91639 0.0
C359 C 0.29213 0.78027 0.93986 0.0
H360 H 0.23968 0.76167 0.85936 0.0
H361 H 0.29723 0.81349 0.85702 0.0
H362 H 0.23851 0.76163 0.91922 0.0
H363 H 0.21959 0.7826 0.91252 0.0
H364 H 0.21831 0.75796 0.89256 0.0
H365 H 0.30972 0.84027 0.88851 0.0
H366 H 0.28846 0.84564 0.90852 0.0
H367 H 0.30931 0.82671 0.91648 0.0
H368 H 0.24261 0.84755 0.96342 0.0
H369 H 0.29187 0.80132 0.9829 0.0
H370 H 0.22303 0.82239 0.90504 0.0
H371 H 0.24523 0.84578 0.90451 0.0
H372 H 0.22322 0.84709 0.92466 0.0
H373 H 0.28108 0.76634 0.92905 0.0
H374 H 0.30048 0.77319 0.95602 0.0
H375 H 0.306 0.78703 0.92897 0.0
C376 C 0.96672 0.55054 0.41714 0.0
C377 C 0.96473 0.56347 0.43793 0.0
C378 C 0.98767 0.54233 0.4132 0.0
C379 C 0.00726 0.54733 0.43041 0.0
C380 C 0.00558 0.56087 0.4512 0.0
C381 C 0.98429 0.56882 0.4547 0.0
C382 C 0.98867 0.52791 0.39079 0.0
C383 C 0.0262 0.5668 0.46974 0.0
C384 C 0.0492 0.50406 0.4252 0.0
C385 C 0.06391 0.5142 0.40934 0.0
C386 C 0.03178 0.51546 0.43389 0.0
C387 C 0.02906 0.53757 0.42662 0.0
C388 C 0.04527 0.5487 0.41253 0.0
C389 C 0.06253 0.53687 0.40403 0.0
C390 C 0.01499 0.50304 0.44907 0.0
C391 C 0.04318 0.57239 0.40467 0.0
H392 H 0.95167 0.54639 0.40408 0.0
H393 H 0.9831 0.57948 0.47038 0.0
H394 H 0.00269 0.53556 0.38058 0.0
H395 H 0.99287 0.51084 0.39554 0.0
H396 H 0.97199 0.52594 0.37902 0.0
H397 H 0.02219 0.57794 0.48463 0.0
H398 H 0.03186 0.55112 0.47717 0.0
H399 H 0.04109 0.57546 0.46143 0.0
H400 H 0.05032 0.48666 0.4297 0.0
H401 H 0.07395 0.54497 0.39199 0.0
H402 H 0.99802 0.4981 0.43823 0.0
H403 H 0.01182 0.51413 0.46435 0.0
H404 H 0.02144 0.48748 0.45604 0.0
H405 H 0.02857 0.57184 0.39033 0.0
H406 H 0.05932 0.5801 0.39766 0.0
H407 H 0.03928 0.58347 0.41962 0.0
C408 C 0.79656 0.75864 0.92917 0.0
C409 C 0.81651 0.77392 0.92724 0.0
C410 C 0.79805 0.73828 0.94057 0.0
C411 C 0.82002 0.73302 0.95036 0.0
C412 C 0.84021 0.74845 0.94877 0.0
C413 C 0.83823 0.76873 0.9372 0.0
C414 C 0.77609 0.72225 0.94187 0.0
C415 C 0.86391 0.74341 0.95907 0.0
C416 C 0.81742 0.6879 0.99606 0.0
C417 C 0.81898 0.66831 0.98197 0.0
C418 C 0.81874 0.70927 0.98625 0.0
C419 C 0.82169 0.71109 0.96177 0.0
C420 C 0.82431 0.69154 0.94772 0.0
C421 C 0.82294 0.67039 0.95798 0.0
C422 C 0.81596 0.72976 0.00182 0.0
C423 C 0.82754 0.69279 0.92156 0.0
H424 H 0.77969 0.76246 0.92157 0.0
H425 H 0.85373 0.78043 0.93582 0.0
H426 H 0.77748 0.7058 0.93253 0.0
H427 H 0.77379 0.71884 0.96073 0.0
H428 H 0.76032 0.72904 0.93372 0.0
H429 H 0.87781 0.75745 0.95696 0.0
H430 H 0.8638 0.74029 0.97831 0.0
H431 H 0.86828 0.72777 0.95014 0.0
H432 H 0.81447 0.68651 0.01464 0.0
H433 H 0.8243 0.65539 0.94697 0.0
H434 H 0.7993 0.73621 0.99589 0.0
H435 H 0.83018 0.74357 0.00012 0.0
H436 H 0.81596 0.72586 0.02092 0.0
H437 H 0.81152 0.6976 0.91168 0.0
H438 H 0.83124 0.67641 0.91361 0.0
H439 H 0.84202 0.70604 0.91893 0.0
C440 C 0.02245 0.00615 0.39058 0.0
C441 C 0.0263 0.98338 0.39186 0.0
C442 C 0.00311 0.01232 0.3765 0.0
C443 C 0.98724 0.9953 0.36349 0.0
C444 C 0.99143 0.97239 0.36413 0.0
C445 C 0.01093 0.96672 0.37826 0.0
C446 C 0.99927 0.03694 0.37612 0.0
C447 C 0.97488 0.95374 0.35053 0.0
C448 C 0.92412 0.00475 0.34941 0.0
C449 C 0.92296 0.00878 0.32501 0.0
C450 C 0.94508 0.00089 0.36224 0.0
C451 C 0.96543 0.00114 0.35042 0.0
C452 C 0.96458 0.00583 0.32597 0.0
C453 C 0.94333 0.00955 0.31352 0.0
C454 C 0.94526 0.9959 0.3883 0.0
C455 C 0.98599 0.00636 0.31283 0.0
H456 H 0.0343 0.01914 0.40096 0.0
H457 H 0.01379 0.94909 0.37905 0.0
H458 H 0.99655 0.04212 0.35746 0.0
H459 H 0.98331 0.03945 0.38461 0.0
H460 H 0.01414 0.04826 0.38568 0.0
H461 H 0.98129 0.93694 0.35189 0.0
H462 H 0.95767 0.95273 0.35757 0.0
H463 H 0.97217 0.9575 0.33143 0.0
H464 H 0.90852 0.00418 0.35849 0.0
H465 H 0.94264 0.01274 0.29469 0.0
H466 H 0.95875 0.00777 0.39917 0.0
H467 H 0.94977 0.97852 0.391 0.0
H468 H 0.92818 0.99728 0.39508 0.0
H469 H 0.00046 0.01812 0.3224 0.0
H470 H 0.98278 0.01172 0.29427 0.0
H471 H 0.99182 0.98929 0.31223 0.0
C472 C 0.214 0.21482 0.63984 0.0
C473 C 0.22544 0.21822 0.66302 0.0
C474 C 0.22074 0.19927 0.62335 0.0
C475 C 0.2394 0.18682 0.63018 0.0
C476 C 0.25098 0.1901 0.65356 0.0
C477 C 0.24386 0.20576 0.66971 0.0
C478 C 0.20795 0.19624 0.59858 0.0
C479 C 0.27097 0.17716 0.66148 0.0
C480 C 0.24298 0.13301 0.5929 0.0
C481 C 0.25934 0.14059 0.57741 0.0
C482 C 0.23667 0.14775 0.6105 0.0
C483 C 0.24696 0.17061 0.61266 0.0
C484 C 0.26389 0.17821 0.59747 0.0
C485 C 0.26987 0.16313 0.58005 0.0
C486 C 0.21857 0.13901 0.62639 0.0
C487 C 0.2753 0.20245 0.59925 0.0
H488 H 0.19973 0.22434 0.63451 0.0
H489 H 0.25279 0.20827 0.68758 0.0
H490 H 0.22025 0.20053 0.58516 0.0
H491 H 0.20051 0.17828 0.59483 0.0
H492 H 0.19363 0.20701 0.59618 0.0
H493 H 0.27797 0.18146 0.68036 0.0
H494 H 0.26524 0.15868 0.65938 0.0
H495 H 0.28526 0.18086 0.65005 0.0
H496 H 0.23476 0.11564 0.59103 0.0
H497 H 0.28257 0.16916 0.56821 0.0
H498 H 0.20305 0.14811 0.62331 0.0
H499 H 0.22549 0.14232 0.64541 0.0
H500 H 0.21299 0.12056 0.62315 0.0
H501 H 0.26196 0.214 0.59519 0.0
H502 H 0.28884 0.20544 0.58679 0.0
H503 H 0.28344 0.20702 0.61769 0.0
C504 C 0.44925 0.5572 0.61483 0.0
C505 C 0.44434 0.54169 0.5951 0.0
C506 C 0.43809 0.55379 0.63561 0.0
C507 C 0.42156 0.53446 0.63664 0.0
C508 C 0.41615 0.51904 0.61659 0.0
C509 C 0.42762 0.52281 0.59611 0.0
C510 C 0.44433 0.57061 0.65663 0.0
C511 C 0.39852 0.49831 0.61692 0.0
C512 C 0.40931 0.51212 0.69694 0.0
C513 C 0.38816 0.52028 0.70032 0.0
C514 C 0.42049 0.51685 0.67644 0.0
C515 C 0.41028 0.53003 0.65885 0.0
C516 C 0.38903 0.53846 0.66222 0.0
C517 C 0.37824 0.5335 0.6829 0.0
C518 C 0.44316 0.50757 0.67352 0.0
C519 C 0.37758 0.55255 0.64386 0.0
H520 H 0.46215 0.57182 0.61423 0.0
H521 H 0.42363 0.51076 0.58095 0.0
H522 H 0.42844 0.57722 0.66192 0.0
H523 H 0.45197 0.5621 0.67215 0.0
H524 H 0.45698 0.58513 0.65272 0.0
H525 H 0.39573 0.48836 0.59959 0.0
H526 H 0.40444 0.4872 0.63105 0.0
H527 H 0.3816 0.50334 0.62122 0.0
H528 H 0.41715 0.50194 0.7103 0.0
H529 H 0.36192 0.53993 0.68534 0.0
H530 H 0.45693 0.52159 0.67107 0.0
H531 H 0.44114 0.49608 0.6573 0.0
H532 H 0.4491 0.49807 0.68909 0.0
H533 H 0.38973 0.56767 0.64067 0.0
H534 H 0.36132 0.55825 0.6494 0.0
H535 H 0.37333 0.54257 0.62664 0.0
C536 C 0.75241 0.29431 0.69832 0.0
C537 C 0.75112 0.27064 0.69574 0.0
C538 C 0.75432 0.30783 0.67856 0.0
C539 C 0.75483 0.29744 0.65567 0.0
C540 C 0.75266 0.27352 0.65283 0.0
C541 C 0.75091 0.26042 0.67289 0.0
C542 C 0.7567 0.33327 0.68235 0.0
C543 C 0.75299 0.26176 0.6287 0.0
C544 C 0.7462 0.33036 0.59948 0.0
C545 C 0.7692 0.33534 0.59402 0.0
C546 C 0.7412 0.31842 0.61978 0.0
C547 C 0.75964 0.31149 0.63502 0.0
C548 C 0.78291 0.31717 0.63001 0.0
C549 C 0.78738 0.32892 0.60959 0.0
C550 C 0.71616 0.31263 0.62452 0.0
C551 C 0.80312 0.31032 0.64591 0.0
H552 H 0.75254 0.30235 0.71589 0.0
H553 H 0.74976 0.24215 0.67069 0.0
H554 H 0.77433 0.34065 0.67866 0.0
H555 H 0.74395 0.34046 0.66976 0.0
H556 H 0.75405 0.33865 0.70084 0.0
H557 H 0.74928 0.24306 0.62918 0.0
H558 H 0.73996 0.26782 0.6155 0.0
H559 H 0.77033 0.26593 0.62229 0.0
H560 H 0.73205 0.33522 0.58755 0.0
H561 H 0.80524 0.33285 0.60567 0.0
H562 H 0.7138 0.31839 0.64295 0.0
H563 H 0.71146 0.29399 0.62304 0.0
H564 H 0.70394 0.32042 0.61183 0.0
H565 H 0.80243 0.31652 0.66459 0.0
H566 H 0.82022 0.31703 0.64019 0.0
H567 H 0.80197 0.29158 0.64579 0.0
C568 C 0.52309 0.94037 0.6809 0.0
C569 C 0.50379 0.9507 0.67189 0.0
C570 C 0.53323 0.94507 0.7044 0.0
C571 C 0.52378 0.96039 0.71938 0.0
C572 C 0.50435 0.97095 0.71045 0.0
C573 C 0.49461 0.96603 0.68676 0.0
C574 C 0.55404 0.93358 0.71323 0.0
C575 C 0.49377 0.98728 0.72599 0.0
C576 C 0.53786 0.95443 0.78575 0.0
C577 C 0.55648 0.97164 0.79141 0.0
C578 C 0.5266 0.95101 0.76251 0.0
C579 C 0.53423 0.96507 0.74445 0.0
C580 C 0.5527 0.98274 0.7501 0.0
C581 C 0.56358 0.98585 0.77353 0.0
C582 C 0.50687 0.93206 0.75715 0.0
C583 C 0.56137 0.998 0.73128 0.0
H584 H 0.53038 0.92858 0.66954 0.0
H585 H 0.47969 0.97406 0.67995 0.0
H586 H 0.56896 0.94648 0.71963 0.0
H587 H 0.54992 0.92327 0.72857 0.0
H588 H 0.5595 0.92238 0.69919 0.0
H589 H 0.47879 0.9942 0.7163 0.0
H590 H 0.48774 0.97867 0.74174 0.0
H591 H 0.50707 0.00159 0.73275 0.0
H592 H 0.53215 0.94345 0.79948 0.0
H593 H 0.57789 0.99924 0.77773 0.0
H594 H 0.51184 0.91927 0.74444 0.0
H595 H 0.49123 0.93869 0.74854 0.0
H596 H 0.50217 0.92349 0.77345 0.0
H597 H 0.56854 0.98786 0.71751 0.0
H598 H 0.57512 0.01166 0.73883 0.0
H599 H 0.54676 0.00587 0.72218 0.0
C600 C 0.8376 0.23645 0.80061 0.0
C601 C 0.83021 0.21963 0.78246 0.0
C602 C 0.86046 0.23903 0.81183 0.0
C603 C 0.87643 0.22461 0.80459 0.0
C604 C 0.86912 0.20762 0.78627 0.0
C605 C 0.84607 0.20526 0.7755 0.0
C606 C 0.86757 0.25729 0.8314 0.0
C607 C 0.88572 0.19211 0.77788 0.0
C608 C 0.93988 0.24871 0.81792 0.0
C609 C 0.94654 0.23815 0.8389 0.0
C610 C 0.91739 0.24376 0.80608 0.0
C611 C 0.90101 0.22804 0.81557 0.0
C612 C 0.90783 0.2167 0.83627 0.0
C613 C 0.9306 0.22179 0.84763 0.0
C614 C 0.91093 0.25597 0.78386 0.0
C615 C 0.89079 0.19991 0.84698 0.0
H616 H 0.82545 0.24752 0.80623 0.0
H617 H 0.84052 0.19222 0.76149 0.0
H618 H 0.87456 0.24975 0.84788 0.0
H619 H 0.88166 0.26968 0.82605 0.0
H620 H 0.85284 0.26652 0.83556 0.0
H621 H 0.87719 0.17944 0.76379 0.0
H622 H 0.90051 0.20223 0.77073 0.0
H623 H 0.8931 0.18301 0.79308 0.0
H624 H 0.95217 0.26122 0.81092 0.0
H625 H 0.93562 0.21361 0.86387 0.0
H626 H 0.89766 0.26727 0.78736 0.0
H627 H 0.90312 0.24364 0.76918 0.0
H628 H 0.92617 0.26637 0.77777 0.0
H629 H 0.87671 0.20876 0.85349 0.0
H630 H 0.89922 0.1914 0.86211 0.0
H631 H 0.8825 0.18682 0.83326 0.0
C632 C 0.53024 0.86047 0.54388 0.0
C633 C 0.50915 0.86933 0.54576 0.0
C634 C 0.53294 0.84581 0.52458 0.0
C635 C 0.51405 0.83975 0.5068 0.0
C636 C 0.49259 0.8483 0.50879 0.0
C637 C 0.49042 0.86307 0.52821 0.0
C638 C 0.55615 0.83717 0.52297 0.0
C639 C 0.47201 0.84209 0.49023 0.0
C640 C 0.52639 0.82195 0.44457 0.0
C641 C 0.52134 0.7983 0.44436 0.0
C642 C 0.52444 0.83556 0.46491 0.0
C643 C 0.51707 0.82532 0.48552 0.0
C644 C 0.51228 0.80144 0.48561 0.0
C645 C 0.51459 0.78818 0.46504 0.0
C646 C 0.52997 0.86095 0.46421 0.0
C647 C 0.50427 0.78996 0.50725 0.0
H648 H 0.54481 0.86521 0.55737 0.0
H649 H 0.47403 0.86974 0.5296 0.0
H650 H 0.55383 0.81839 0.52144 0.0
H651 H 0.56362 0.84321 0.50669 0.0
H652 H 0.56884 0.84285 0.5387 0.0
H653 H 0.45623 0.84932 0.49497 0.0
H654 H 0.47634 0.84835 0.47275 0.0
H655 H 0.46792 0.82341 0.48797 0.0
H656 H 0.53174 0.82991 0.42872 0.0
H657 H 0.51057 0.76994 0.46499 0.0
H658 H 0.5435 0.86741 0.47894 0.0
H659 H 0.51421 0.86918 0.46685 0.0
H660 H 0.53624 0.86619 0.44706 0.0
H661 H 0.5171 0.79485 0.52303 0.0
H662 H 0.50183 0.7712 0.50466 0.0
H663 H 0.48753 0.79561 0.51133 0.0
C664 C 0.15747 0.23756 0.78957 0.0
C665 C 0.17855 0.24607 0.80296 0.0
C666 C 0.13647 0.2354 0.80003 0.0
C667 C 0.13654 0.24199 0.82442 0.0
C668 C 0.15796 0.24899 0.83841 0.0
C669 C 0.17871 0.2509 0.82752 0.0
C670 C 0.11402 0.22762 0.78456 0.0
C671 C 0.15882 0.25613 0.86448 0.0
C672 C 0.08405 0.26862 0.84116 0.0
C673 C 0.07183 0.25116 0.85257 0.0
C674 C 0.1051 0.26577 0.83208 0.0
C675 C 0.11423 0.24487 0.8343 0.0
C676 C 0.10209 0.22712 0.84582 0.0
C677 C 0.08102 0.23049 0.85491 0.0
C678 C 0.11755 0.28521 0.82006 0.0
C679 C 0.1113 0.20459 0.84841 0.0
H680 H 0.15719 0.23354 0.77064 0.0
H681 H 0.19493 0.25728 0.83809 0.0
H682 H 0.10284 0.21504 0.79367 0.0
H683 H 0.10425 0.2423 0.78125 0.0
H684 H 0.11714 0.21999 0.76707 0.0
H685 H 0.17684 0.25801 0.87358 0.0
H686 H 0.15189 0.27263 0.86618 0.0
H687 H 0.14775 0.24367 0.87384 0.0
H688 H 0.0772 0.28469 0.83933 0.0
H689 H 0.07168 0.2169 0.86366 0.0
H690 H 0.11946 0.28 0.80135 0.0
H691 H 0.13532 0.28995 0.8293 0.0
H692 H 0.10819 0.30043 0.81999 0.0
H693 H 0.1129 0.19685 0.83055 0.0
H694 H 0.09988 0.19257 0.85798 0.0
H695 H 0.12897 0.20704 0.85826 0.0
C696 C 0.54339 0.58142 0.478 0.0
C697 C 0.52617 0.57267 0.49204 0.0
C698 C 0.54106 0.60097 0.46525 0.0
C699 C 0.52093 0.61204 0.46639 0.0
C700 C 0.50362 0.6035 0.48079 0.0
C701 C 0.50643 0.58391 0.49341 0.0
C702 C 0.55998 0.60954 0.45021 0.0
C703 C 0.48184 0.61474 0.48239 0.0
C704 C 0.52411 0.67277 0.44688 0.0
C705 C 0.51372 0.66976 0.42323 0.0
C706 C 0.52622 0.6542 0.46127 0.0
C707 C 0.51772 0.63206 0.45184 0.0
C708 C 0.50687 0.62895 0.42813 0.0
C709 C 0.50503 0.6478 0.41413 0.0
C710 C 0.53791 0.65824 0.48644 0.0
C711 C 0.49752 0.60563 0.4174 0.0
H712 H 0.55871 0.57287 0.47683 0.0
H713 H 0.49277 0.57702 0.50368 0.0
H714 H 0.55285 0.60887 0.43117 0.0
H715 H 0.56645 0.6275 0.45545 0.0
H716 H 0.57493 0.5995 0.45191 0.0
H717 H 0.4706 0.60671 0.49529 0.0
H718 H 0.48648 0.63294 0.48784 0.0
H719 H 0.47165 0.61379 0.4646 0.0
H720 H 0.53085 0.68965 0.45412 0.0
H721 H 0.49692 0.64527 0.39593 0.0
H722 H 0.55384 0.64962 0.4884 0.0
H723 H 0.52618 0.65088 0.49923 0.0
H724 H 0.54284 0.67653 0.49141 0.0
H725 H 0.51196 0.59507 0.41683 0.0
H726 H 0.48879 0.60615 0.39904 0.0
H727 H 0.48489 0.59714 0.42868 0.0
C728 C 0.88169 0.83779 0.81793 0.0
C729 C 0.86135 0.82502 0.82367 0.0
C730 C 0.89251 0.83166 0.79792 0.0
C731 C 0.88307 0.81201 0.78367 0.0
C732 C 0.86257 0.79902 0.78944 0.0
C733 C 0.8518 0.80585 0.80922 0.0
C734 C 0.91404 0.84622 0.79201 0.0
C735 C 0.85224 0.77771 0.77496 0.0
C736 C 0.89871 0.80505 0.72029 0.0
C737 C 0.91673 0.79137 0.72322 0.0
C738 C 0.8878 0.81213 0.73986 0.0
C739 C 0.89472 0.80492 0.76282 0.0
C740 C 0.91271 0.79088 0.76585 0.0
C741 C 0.92371 0.7845 0.74604 0.0
C742 C 0.86903 0.8275 0.736 0.0
C743 C 0.92022 0.78245 0.78997 0.0
H744 H 0.88905 0.85269 0.829 0.0
H745 H 0.83618 0.79582 0.81371 0.0
H746 H 0.92901 0.83623 0.7929 0.0
H747 H 0.91134 0.85182 0.77351 0.0
H748 H 0.91866 0.86143 0.80435 0.0
H749 H 0.83639 0.76938 0.78198 0.0
H750 H 0.84765 0.78167 0.75616 0.0
H751 H 0.86528 0.76552 0.77493 0.0
H752 H 0.89339 0.81057 0.70271 0.0
H753 H 0.93754 0.77383 0.74837 0.0
H754 H 0.87382 0.8433 0.74738 0.0
H755 H 0.85241 0.81914 0.74135 0.0
H756 H 0.8661 0.83205 0.71712 0.0
H757 H 0.92677 0.797 0.80269 0.0
H758 H 0.9341 0.77121 0.7892 0.0
H759 H 0.90509 0.77299 0.7972 0.0
C760 C 0.06162 0.85646 0.55556 0.0
C761 C 0.05902 0.8788 0.5499 0.0
C762 C 0.04863 0.84556 0.57238 0.0
C763 C 0.03304 0.85747 0.58417 0.0
C764 C 0.03128 0.88042 0.57946 0.0
C765 C 0.0441 0.89074 0.56216 0.0
C766 C 0.05073 0.82096 0.57662 0.0
C767 C 0.01526 0.89382 0.59209 0.0
C768 C 0.98083 0.82195 0.60442 0.0
C769 C 0.98833 0.81915 0.6284 0.0
C770 C 0.99511 0.83468 0.58996 0.0
C771 C 0.01723 0.8453 0.59986 0.0
C772 C 0.02452 0.84334 0.62432 0.0
C773 C 0.01007 0.83005 0.63826 0.0
C774 C 0.98685 0.83604 0.56386 0.0
C775 C 0.04776 0.85486 0.6356 0.0
H776 H 0.07307 0.84712 0.54609 0.0
H777 H 0.0422 0.9081 0.55799 0.0
H778 H 0.05466 0.81857 0.59593 0.0
H779 H 0.0339 0.81054 0.57061 0.0
H780 H 0.06452 0.81448 0.56697 0.0
H781 H 0.01784 0.91209 0.58841 0.0
H782 H 0.99689 0.88709 0.58621 0.0
H783 H 0.0181 0.89207 0.61163 0.0
H784 H 0.96412 0.81345 0.59663 0.0
H785 H 0.0159 0.82804 0.65683 0.0
H786 H 0.99889 0.82838 0.55277 0.0
H787 H 0.98699 0.85399 0.55922 0.0
H788 H 0.969 0.82716 0.55906 0.0
H789 H 0.06201 0.84729 0.62782 0.0
H790 H 0.04996 0.85328 0.65523 0.0
H791 H 0.04969 0.87309 0.6318 0.0
C792 C 0.14568 0.78049 0.75642 0.0
C793 C 0.1513 0.77658 0.78055 0.0
C794 C 0.12263 0.78178 0.74717 0.0
C795 C 0.1047 0.77912 0.7624 0.0
C796 C 0.11021 0.77523 0.7868 0.0
C797 C 0.13347 0.774 0.7956 0.0
C798 C 0.11745 0.78594 0.72104 0.0
C799 C 0.09153 0.77231 0.80355 0.0
C800 C 0.04895 0.80255 0.74037 0.0
C801 C 0.03531 0.78312 0.72965 0.0
C802 C 0.0713 0.80138 0.75182 0.0
C803 C 0.0802 0.78027 0.75258 0.0
C804 C 0.06622 0.76047 0.74253 0.0
C805 C 0.04394 0.76213 0.73117 0.0
C806 C 0.08571 0.82286 0.76237 0.0
C807 C 0.07509 0.73764 0.74304 0.0
H808 H 0.15932 0.78251 0.74466 0.0
H809 H 0.13767 0.77098 0.81426 0.0
H810 H 0.1052 0.7717 0.71216 0.0
H811 H 0.10887 0.80154 0.71901 0.0
H812 H 0.1334 0.78779 0.71163 0.0
H813 H 0.0987 0.76956 0.82206 0.0
H814 H 0.08219 0.78751 0.80379 0.0
H815 H 0.07849 0.75765 0.79717 0.0
H816 H 0.04239 0.81882 0.73936 0.0
H817 H 0.03349 0.747 0.72304 0.0
H818 H 0.10108 0.82667 0.75238 0.0
H819 H 0.09232 0.82067 0.78116 0.0
H820 H 0.07568 0.83762 0.76178 0.0
H821 H 0.09002 0.73769 0.73225 0.0
H822 H 0.06148 0.72368 0.7359 0.0
H823 H 0.08147 0.73409 0.76154 0.0
C824 C 0.98266 0.64388 0.55787 0.0
C825 C 0.97237 0.62132 0.55721 0.0
C826 C 0.97938 0.65936 0.57618 0.0
C827 C 0.96565 0.65208 0.59444 0.0
C828 C 0.95656 0.62899 0.59481 0.0
C829 C 0.95995 0.61386 0.57611 0.0
C830 C 0.98946 0.68385 0.57516 0.0
C831 C 0.94221 0.6205 0.61422 0.0
C832 C 0.96951 0.69563 0.64594 0.0
C833 C 0.95073 0.70753 0.63887 0.0
C834 C 0.97375 0.67646 0.63254 0.0
C835 C 0.95899 0.66921 0.6115 0.0
C836 C 0.93911 0.68019 0.60523 0.0
C837 C 0.93516 0.69914 0.61906 0.0
C838 C 0.99485 0.66491 0.64007 0.0
C839 C 0.92288 0.67294 0.58295 0.0
H840 H 0.99245 0.64976 0.54347 0.0
H841 H 0.95209 0.59641 0.57586 0.0
H842 H 0.97513 0.69447 0.57195 0.0
H843 H 0.99948 0.68996 0.59242 0.0
H844 H 0.00109 0.68643 0.56078 0.0
H845 H 0.93958 0.60171 0.61408 0.0
H846 H 0.95062 0.6272 0.63201 0.0
H847 H 0.92489 0.62663 0.61168 0.0
H848 H 0.98152 0.70183 0.66136 0.0
H849 H 0.92049 0.70808 0.61353 0.0
H850 H 0.0085 0.6694 0.62809 0.0
H851 H 0.99045 0.64623 0.63855 0.0
H852 H 0.00221 0.67005 0.65868 0.0
H853 H 0.93216 0.67653 0.56701 0.0
H854 H 0.90713 0.6819 0.58174 0.0
H855 H 0.91729 0.65445 0.58239 0.0
C856 C 0.79588 0.84524 0.26226 0.0
C857 C 0.77594 0.83722 0.24681 0.0
C858 C 0.80566 0.86797 0.26281 0.0
C859 C 0.79522 0.88315 0.24761 0.0
C860 C 0.77581 0.87495 0.23112 0.0
C861 C 0.76643 0.85206 0.23086 0.0
C862 C 0.82652 0.87599 0.28051 0.0
C863 C 0.76419 0.89058 0.21461 0.0
C864 C 0.80365 0.94373 0.27306 0.0
C865 C 0.82233 0.95345 0.26145 0.0
C866 C 0.79399 0.92116 0.26787 0.0
C867 C 0.80331 0.90787 0.25073 0.0
C868 C 0.8214 0.91785 0.23809 0.0
C869 C 0.83066 0.94058 0.24354 0.0
C870 C 0.7745 0.91127 0.28157 0.0
C871 C 0.83176 0.90423 0.21967 0.0
H872 H 0.80348 0.83389 0.27451 0.0
H873 H 0.75105 0.84605 0.21881 0.0
H874 H 0.84038 0.88556 0.27147 0.0
H875 H 0.82143 0.88766 0.29431 0.0
H876 H 0.83384 0.86174 0.28952 0.0
H877 H 0.75108 0.88116 0.201 0.0
H878 H 0.75534 0.9024 0.22516 0.0
H879 H 0.77732 0.90097 0.20537 0.0
H880 H 0.79695 0.95359 0.28677 0.0
H881 H 0.84511 0.94793 0.23449 0.0
H882 H 0.78072 0.89812 0.29318 0.0
H883 H 0.75974 0.90292 0.2691 0.0
H884 H 0.76802 0.92429 0.29291 0.0
H885 H 0.8415 0.89144 0.22862 0.0
H886 H 0.84384 0.91504 0.20957 0.0
H887 H 0.81782 0.89493 0.20689 0.0
C888 C 0.80507 0.17885 0.26822 0.0
C889 C 0.82339 0.1949 0.27831 0.0
C890 C 0.80743 0.15563 0.26733 0.0
C891 C 0.82854 0.14831 0.27694 0.0
C892 C 0.84714 0.16444 0.28701 0.0
C893 C 0.84437 0.18753 0.28749 0.0
C894 C 0.78728 0.13893 0.25633 0.0
C895 C 0.86987 0.15727 0.29759 0.0
C896 C 0.82891 0.0886 0.29804 0.0
C897 C 0.83906 0.07797 0.2798 0.0
C898 C 0.8249 0.11133 0.29705 0.0
C899 C 0.83103 0.12374 0.27725 0.0
C900 C 0.84053 0.11293 0.25837 0.0
C901 C 0.84451 0.09019 0.2599 0.0
C902 C 0.81479 0.12227 0.31758 0.0
C903 C 0.84708 0.12557 0.23686 0.0
H904 H 0.78884 0.18441 0.26099 0.0
H905 H 0.8586 0.19981 0.29534 0.0
H906 H 0.79296 0.12839 0.24189 0.0
H907 H 0.78122 0.12731 0.26994 0.0
H908 H 0.77237 0.14743 0.24883 0.0
H909 H 0.88277 0.17195 0.30435 0.0
H910 H 0.86673 0.14613 0.31255 0.0
H911 H 0.87753 0.14735 0.28402 0.0
H912 H 0.82461 0.07934 0.3135 0.0
H913 H 0.85227 0.08211 0.24566 0.0
H914 H 0.79908 0.12999 0.31096 0.0
H915 H 0.82764 0.13609 0.32637 0.0
H916 H 0.80998 0.11001 0.33115 0.0
H917 H 0.83209 0.13361 0.22885 0.0
H918 H 0.85281 0.11434 0.223 0.0
H919 H 0.86142 0.13933 0.24238 0.0
C920 C 0.3632 0.02889 0.0151 0.0
C921 C 0.36038 0.03074 0.99029 0.0
C922 C 0.35417 0.00915 0.02555 0.0
C923 C 0.34228 0.99078 0.0108 0.0
C924 C 0.33909 0.99269 0.98579 0.0
C925 C 0.34808 0.01268 0.97585 0.0
C926 C 0.35766 0.00781 0.05231 0.0
C927 C 0.32663 0.97342 0.96943 0.0
C928 C 0.33923 0.93045 0.03057 0.0
C929 C 0.31589 0.92607 0.0351 0.0
C930 C 0.34833 0.95177 0.02357 0.0
C931 C 0.33379 0.96919 0.02125 0.0
C932 C 0.31059 0.96527 0.02707 0.0
C933 C 0.30189 0.94373 0.03383 0.0
C934 C 0.37314 0.95526 0.01745 0.0
C935 C 0.29465 0.98352 0.0251 0.0
H936 H 0.37261 0.04282 0.02638 0.0
H937 H 0.34586 0.01394 0.95667 0.0
H938 H 0.34066 0.00332 0.05934 0.0
H939 H 0.36857 0.99423 0.05703 0.0
H940 H 0.3662 0.02399 0.06135 0.0
H941 H 0.32524 0.97777 0.95042 0.0
H942 H 0.33605 0.95832 0.97127 0.0
H943 H 0.30884 0.96863 0.97451 0.0
H944 H 0.35021 0.91695 0.03153 0.0
H945 H 0.28386 0.94056 0.03743 0.0
H946 H 0.3827 0.97071 0.02707 0.0
H947 H 0.37323 0.9578 0.99807 0.0
H948 H 0.38267 0.94063 0.02193 0.0
H949 H 0.30329 0.99949 0.03444 0.0
H950 H 0.27798 0.97856 0.03266 0.0
H951 H 0.29066 0.98708 0.00607 0.0
C952 C 0.26142 0.41029 0.39043 0.0
C953 C 0.26105 0.39465 0.3711 0.0
C954 C 0.24348 0.42399 0.39184 0.0
C955 C 0.22476 0.42195 0.37352 0.0
C956 C 0.22501 0.40716 0.35332 0.0
C957 C 0.24316 0.39372 0.35235 0.0
C958 C 0.24394 0.43973 0.41354 0.0
C959 C 0.20544 0.40459 0.33332 0.0
C960 C 0.16423 0.43176 0.38741 0.0
C961 C 0.16161 0.45251 0.37712 0.0
C962 C 0.18505 0.4221 0.38715 0.0
C963 C 0.20379 0.43347 0.37639 0.0
C964 C 0.20171 0.45493 0.367 0.0
C965 C 0.18063 0.4642 0.36747 0.0
C966 C 0.1866 0.39922 0.39747 0.0
C967 C 0.22137 0.46763 0.35555 0.0
H968 H 0.27525 0.41124 0.40495 0.0
H969 H 0.24282 0.38183 0.33725 0.0
H970 H 0.24019 0.45677 0.40819 0.0
H971 H 0.23019 0.43313 0.42462 0.0
H972 H 0.26099 0.44147 0.42467 0.0
H973 H 0.20922 0.39387 0.31798 0.0
H974 H 0.18921 0.39675 0.33998 0.0
H975 H 0.20213 0.42141 0.32692 0.0
H976 H 0.14973 0.42264 0.39504 0.0
H977 H 0.17882 0.48029 0.35953 0.0
H978 H 0.2023 0.39988 0.41049 0.0
H979 H 0.1883 0.38654 0.38303 0.0
H980 H 0.17106 0.39329 0.40652 0.0
H981 H 0.23793 0.46847 0.36733 0.0
H982 H 0.21799 0.48514 0.35153 0.0
H983 H 0.22378 0.45849 0.33865 0.0
C984 C 0.15589 0.97473 0.49395 0.0
C985 C 0.13223 0.97648 0.48791 0.0
C986 C 0.17272 0.99365 0.49407 0.0
C987 C 0.16571 0.01487 0.48806 0.0
C988 C 0.14178 0.01693 0.4827 0.0
C989 C 0.12529 0.99769 0.48284 0.0
C990 C 0.19807 0.99077 0.50003 0.0
C991 C 0.13366 0.03932 0.47643 0.0
C992 C 0.21152 0.06509 0.5059 0.0
C993 C 0.22254 0.06748 0.48497 0.0
C994 C 0.19221 0.04873 0.5069 0.0
C995 C 0.18368 0.03454 0.48644 0.0
C996 C 0.19383 0.03782 0.46488 0.0
C997 C 0.21316 0.05421 0.46441 0.0
C998 C 0.18182 0.04577 0.53021 0.0
C999 C 0.18507 0.0232 0.4426 0.0
H1000 H 0.16135 0.9584 0.49805 0.0
H1001 H 0.10698 0.99936 0.47917 0.0
H1002 H 0.20769 0.99451 0.48434 0.0
H1003 H 0.20601 0.00294 0.5148 0.0
H1004 H 0.20053 0.97336 0.50532 0.0
H1005 H 0.11438 0.03825 0.47353 0.0
H1006 H 0.14015 0.05239 0.49085 0.0
H1007 H 0.14093 0.04514 0.45997 0.0
H1008 H 0.21859 0.0753 0.52186 0.0
H1009 H 0.2214 0.05608 0.44809 0.0
H1010 H 0.1861 0.02964 0.53773 0.0
H1011 H 0.16257 0.04475 0.52737 0.0
H1012 H 0.18852 0.05984 0.54354 0.0
H1013 H 0.18876 0.00556 0.44532 0.0
H1014 H 0.19338 0.0293 0.42676 0.0
H1015 H 0.16593 0.02274 0.4388 0.0
C1016 C 0.69302 0.13643 0.76393 0.0
C1017 C 0.70201 0.15548 0.77886 0.0
C1018 C 0.67718 0.11931 0.77168 0.0
C1019 C 0.67012 0.12134 0.79488 0.0
C1020 C 0.67828 0.14101 0.8096 0.0
C1021 C 0.69414 0.15784 0.80142 0.0
C1022 C 0.66881 0.0986 0.75543 0.0
C1023 C 0.67103 0.14387 0.83439 0.0
C1024 C 0.61763 0.08239 0.81027 0.0
C1025 C 0.62829 0.06541 0.82211 0.0
C1026 C 0.63099 0.10078 0.80138 0.0
C1027 C 0.65557 0.10218 0.80437 0.0
C1028 C 0.66643 0.08517 0.81642 0.0
C1029 C 0.65267 0.06703 0.82516 0.0
C1030 C 0.61882 0.11864 0.78868 0.0
C1031 C 0.69261 0.08606 0.81997 0.0
H1032 H 0.69893 0.13448 0.74644 0.0
H1033 H 0.70087 0.17256 0.81304 0.0
H1034 H 0.67569 0.08358 0.76318 0.0
H1035 H 0.64953 0.09525 0.75381 0.0
H1036 H 0.67448 0.1004 0.7373 0.0
H1037 H 0.67737 0.16094 0.8428 0.0
H1038 H 0.65179 0.14107 0.83387 0.0
H1039 H 0.67807 0.131 0.84584 0.0
H1040 H 0.5988 0.08129 0.80783 0.0
H1041 H 0.66107 0.054 0.83427 0.0
H1042 H 0.62354 0.11952 0.77015 0.0
H1043 H 0.62463 0.13552 0.79774 0.0
H1044 H 0.59958 0.11523 0.78809 0.0
H1045 H 0.69967 0.08604 0.80242 0.0
H1046 H 0.69832 0.07153 0.8298 0.0
H1047 H 0.70036 0.10199 0.83001 0.0
C1048 C 0.39205 0.9939 0.57326 0.0
C1049 C 0.41631 0.99887 0.5742 0.0
C1050 C 0.37724 0.00922 0.56417 0.0
C1051 C 0.38692 0.03009 0.556 0.0
C1052 C 0.4114 0.03555 0.55767 0.0
C1053 C 0.42581 0.01983 0.56665 0.0
C1054 C 0.35122 0.00271 0.56255 0.0
C1055 C 0.42237 0.05774 0.54935 0.0
C1056 C 0.3494 0.0562 0.50828 0.0
C1057 C 0.33963 0.07233 0.52161 0.0
C1058 C 0.3651 0.04267 0.51923 0.0
C1059 C 0.3714 0.04541 0.54414 0.0
C1060 C 0.3622 0.0621 0.55764 0.0
C1061 C 0.34634 0.07532 0.54623 0.0
C1062 C 0.37444 0.02499 0.5042 0.0
C1063 C 0.36872 0.06566 0.58421 0.0
H1064 H 0.38456 0.97777 0.57909 0.0
H1065 H 0.44454 0.02387 0.56747 0.0
H1066 H 0.34291 0.0161 0.57144 0.0
H1067 H 0.34385 0.00114 0.54356 0.0
H1068 H 0.34646 0.98641 0.57084 0.0
H1069 H 0.44158 0.0602 0.55363 0.0
H1070 H 0.4183 0.05831 0.52977 0.0
H1071 H 0.41504 0.0721 0.5577 0.0
H1072 H 0.34437 0.05373 0.48925 0.0
H1073 H 0.33894 0.08777 0.55667 0.0
H1074 H 0.36885 0.00787 0.51024 0.0
H1075 H 0.39375 0.02751 0.50638 0.0
H1076 H 0.36834 0.02546 0.48495 0.0
H1077 H 0.36243 0.05023 0.59323 0.0
H1078 H 0.36122 0.08027 0.59188 0.0
H1079 H 0.38794 0.06852 0.58824 0.0
C1080 C 0.61889 0.4699 0.53655 0.0
C1081 C 0.59999 0.46506 0.51888 0.0
C1082 C 0.63703 0.45626 0.53848 0.0
C1083 C 0.63625 0.43726 0.52241 0.0
C1084 C 0.6174 0.43246 0.50433 0.0
C1085 C 0.59952 0.44643 0.50276 0.0
C1086 C 0.65692 0.46203 0.55791 0.0
C1087 C 0.61595 0.41236 0.48687 0.0
C1088 C 0.69295 0.41314 0.51522 0.0
C1089 C 0.69156 0.39484 0.53021 0.0
C1090 C 0.675 0.42695 0.51235 0.0
C1091 C 0.6551 0.42232 0.52468 0.0
C1092 C 0.65339 0.40367 0.53954 0.0
C1093 C 0.67165 0.39018 0.54216 0.0
C1094 C 0.67751 0.4467 0.4964 0.0
C1095 C 0.63238 0.39814 0.55291 0.0
H1096 H 0.61942 0.48426 0.54907 0.0
H1097 H 0.58498 0.44253 0.48907 0.0
H1098 H 0.65771 0.44783 0.57003 0.0
H1099 H 0.67369 0.4644 0.55001 0.0
H1100 H 0.65519 0.47766 0.56864 0.0
H1101 H 0.60035 0.41117 0.4736 0.0
H1102 H 0.63171 0.41348 0.47721 0.0
H1103 H 0.61537 0.3965 0.49661 0.0
H1104 H 0.70826 0.41693 0.50591 0.0
H1105 H 0.67039 0.37609 0.55374 0.0
H1106 H 0.67736 0.46276 0.50697 0.0
H1107 H 0.66255 0.44528 0.48236 0.0
H1108 H 0.69386 0.44772 0.48766 0.0
H1109 H 0.63071 0.41254 0.56542 0.0
H1110 H 0.63343 0.3827 0.56322 0.0
H1111 H 0.61632 0.39556 0.54025 0.0
C1112 C 0.75998 0.27683 0.35842 0.0
C1113 C 0.77923 0.28688 0.34791 0.0
C1114 C 0.75566 0.28411 0.38138 0.0
C1115 C 0.77085 0.30197 0.39392 0.0
C1116 C 0.78988 0.31259 0.38301 0.0
C1117 C 0.79397 0.30475 0.36026 0.0
C1118 C 0.73545 0.27211 0.39257 0.0
C1119 C 0.8063 0.33191 0.3956 0.0
C1120 C 0.75529 0.33518 0.44763 0.0
C1121 C 0.76921 0.32678 0.46618 0.0
C1122 C 0.75467 0.3265 0.42403 0.0
C1123 C 0.76797 0.30877 0.41901 0.0
C1124 C 0.78068 0.29916 0.43795 0.0
C1125 C 0.78132 0.30842 0.46126 0.0
C1126 C 0.74107 0.33732 0.40431 0.0
C1127 C 0.7947 0.27994 0.43345 0.0
H1128 H 0.74886 0.26268 0.34912 0.0
H1129 H 0.80882 0.31259 0.35212 0.0
H1130 H 0.74212 0.26278 0.40794 0.0
H1131 H 0.7247 0.28453 0.39954 0.0
H1132 H 0.72416 0.25988 0.37977 0.0
H1133 H 0.81922 0.33938 0.38399 0.0
H1134 H 0.79636 0.34544 0.40172 0.0
H1135 H 0.81584 0.32583 0.41164 0.0
H1136 H 0.74597 0.34942 0.45132 0.0
H1137 H 0.79192 0.30171 0.47558 0.0
H1138 H 0.73036 0.32421 0.3921 0.0
H1139 H 0.75336 0.34712 0.3936 0.0
H1140 H 0.72949 0.34896 0.41133 0.0
H1141 H 0.78406 0.26632 0.42181 0.0
H1142 H 0.80121 0.27257 0.45026 0.0
H1143 H 0.80988 0.28618 0.42405 0.0
C1144 C 0.4892 0.07462 0.96503 0.0
C1145 C 0.46756 0.0695 0.95137 0.0
C1146 C 0.5092 0.06627 0.9579 0.0
C1147 C 0.50752 0.05278 0.93644 0.0
C1148 C 0.48587 0.0482 0.92222 0.0
C1149 C 0.46622 0.05658 0.92986 0.0
C1150 C 0.53203 0.0716 0.97344 0.0
C1151 C 0.48333 0.03401 0.8991 0.0
C1152 C 0.55805 0.04175 0.90204 0.0
C1153 C 0.55975 0.01896 0.90653 0.0
C1154 C 0.5422 0.05366 0.91303 0.0
C1155 C 0.52793 0.04254 0.929 0.0
C1156 C 0.53105 0.02019 0.93513 0.0
C1157 C 0.54685 0.00864 0.92374 0.0
C1158 C 0.53942 0.07749 0.90602 0.0
C1159 C 0.51644 0.00783 0.95234 0.0
H1160 H 0.49065 0.08532 0.98113 0.0
H1161 H 0.44961 0.05261 0.9191 0.0
H1162 H 0.53812 0.05568 0.97973 0.0
H1163 H 0.54554 0.07983 0.96298 0.0
H1164 H 0.53059 0.08289 0.98921 0.0
H1165 H 0.46549 0.0328 0.88966 0.0
H1166 H 0.49587 0.04131 0.88706 0.0
H1167 H 0.48738 0.01664 0.90272 0.0
H1168 H 0.568 0.04989 0.8888 0.0
H1169 H 0.5483 0.99112 0.92755 0.0
H1170 H 0.53796 0.08858 0.9219 0.0
H1171 H 0.52314 0.07728 0.89391 0.0
H1172 H 0.55421 0.08497 0.89668 0.0
H1173 H 0.51578 0.01875 0.96858 0.0
H1174 H 0.52319 0.99189 0.95775 0.0
H1175 H 0.49832 0.00356 0.94383 0.0
C1176 C 0.29912 0.26747 0.41653 0.0
C1177 C 0.32186 0.27878 0.4185 0.0
C1178 C 0.29458 0.2455 0.42448 0.0
C1179 C 0.31323 0.23458 0.43472 0.0
C1180 C 0.33623 0.24582 0.43666 0.0
C1181 C 0.34028 0.26777 0.4285 0.0
C1182 C 0.26982 0.23402 0.42205 0.0
C1183 C 0.35656 0.23471 0.44751 0.0
C1184 C 0.29949 0.18679 0.47569 0.0
C1185 C 0.2999 0.16759 0.46059 0.0
C1186 C 0.30381 0.20869 0.46749 0.0
C1187 C 0.30863 0.21147 0.44362 0.0
C1188 C 0.30903 0.1922 0.42826 0.0
C1189 C 0.30468 0.17049 0.43693 0.0
C1190 C 0.30323 0.22885 0.4844 0.0
C1191 C 0.31406 0.19452 0.40267 0.0
H1192 H 0.28476 0.27579 0.40879 0.0
H1193 H 0.35791 0.27634 0.43011 0.0
H1194 H 0.26852 0.2178 0.41138 0.0
H1195 H 0.26455 0.22993 0.4399 0.0
H1196 H 0.25733 0.24471 0.41339 0.0
H1197 H 0.37341 0.24564 0.44751 0.0
H1198 H 0.35402 0.23062 0.46616 0.0
H1199 H 0.35756 0.21851 0.4375 0.0
H1200 H 0.29582 0.18475 0.49399 0.0
H1201 H 0.30503 0.15578 0.42512 0.0
H1202 H 0.28991 0.23938 0.47718 0.0
H1203 H 0.32028 0.23964 0.48614 0.0
H1204 H 0.29925 0.22379 0.50243 0.0
H1205 H 0.30107 0.20408 0.39309 0.0
H1206 H 0.31369 0.17784 0.39303 0.0
H1207 H 0.33144 0.20428 0.40203 0.0
C1208 C 0.47498 0.49696 0.89541 0.0
C1209 C 0.48668 0.51821 0.90366 0.0
C1210 C 0.4554 0.49514 0.87842 0.0
C1211 C 0.44724 0.51504 0.86966 0.0
C1212 C 0.45904 0.53651 0.87783 0.0
C1213 C 0.47866 0.53783 0.89467 0.0
C1214 C 0.44333 0.47194 0.86999 0.0
C1215 C 0.45074 0.55812 0.86906 0.0
C1216 C 0.40695 0.51255 0.812 0.0
C1217 C 0.38516 0.51265 0.82061 0.0
C1218 C 0.4273 0.51288 0.82774 0.0
C1219 C 0.42582 0.51351 0.85264 0.0
C1220 C 0.40388 0.51341 0.86142 0.0
C1221 C 0.38383 0.51289 0.84532 0.0
C1222 C 0.45041 0.51279 0.81774 0.0
C1223 C 0.4016 0.51424 0.88787 0.0
H1224 H 0.48114 0.48172 0.90218 0.0
H1225 H 0.48758 0.55432 0.90095 0.0
H1226 H 0.42521 0.47001 0.87486 0.0
H1227 H 0.44231 0.46994 0.85027 0.0
H1228 H 0.4524 0.45813 0.87784 0.0
H1229 H 0.46215 0.57346 0.87681 0.0
H1230 H 0.45007 0.55814 0.84934 0.0
H1231 H 0.43281 0.55921 0.87374 0.0
H1232 H 0.40813 0.51227 0.79294 0.0
H1233 H 0.36709 0.51301 0.85218 0.0
H1234 H 0.45926 0.49846 0.82458 0.0
H1235 H 0.46192 0.52861 0.82374 0.0
H1236 H 0.4485 0.51138 0.79794 0.0
H1237 H 0.40916 0.49983 0.89623 0.0
H1238 H 0.3832 0.51362 0.89177 0.0
H1239 H 0.41151 0.53003 0.89643 0.0
C1240 C 0.76419 0.70807 0.19283 0.0
C1241 C 0.74591 0.72073 0.18622 0.0
C1242 C 0.77119 0.69241 0.1766 0.0
C1243 C 0.75963 0.68934 0.15319 0.0
C1244 C 0.74113 0.70201 0.14643 0.0
C1245 C 0.7345 0.71754 0.16301 0.0
C1246 C 0.791 0.67922 0.18445 0.0
C1247 C 0.72838 0.69922 0.12163 0.0
C1248 C 0.7897 0.66537 0.10288 0.0
C1249 C 0.77879 0.64297 0.10009 0.0
C1250 C 0.784 0.68049 0.12043 0.0
C1251 C 0.76699 0.67306 0.1356 0.0
C1252 C 0.75636 0.65031 0.13332 0.0
C1253 C 0.76239 0.63554 0.11559 0.0
C1254 C 0.79575 0.7046 0.12233 0.0
C1255 C 0.73819 0.64174 0.1492 0.0
H1256 H 0.77311 0.71042 0.21072 0.0
H1257 H 0.72035 0.72723 0.15774 0.0
H1258 H 0.78506 0.66078 0.18228 0.0
H1259 H 0.80532 0.6828 0.17303 0.0
H1260 H 0.79802 0.6834 0.20334 0.0
H1261 H 0.71424 0.71021 0.11926 0.0
H1262 H 0.74076 0.7034 0.10826 0.0
H1263 H 0.7207 0.68134 0.11779 0.0
H1264 H 0.80242 0.67128 0.09102 0.0
H1265 H 0.75388 0.61827 0.11361 0.0
H1266 H 0.80387 0.70904 0.1408 0.0
H1267 H 0.78261 0.71637 0.11826 0.0
H1268 H 0.80936 0.70744 0.10992 0.0
H1269 H 0.74512 0.64497 0.16822 0.0
H1270 H 0.7324 0.62332 0.14593 0.0
H1271 H 0.72279 0.65102 0.14613 0.0
C1272 C 0.94666 0.06393 0.10473 0.0
C1273 C 0.9468 0.04546 0.08855 0.0
C1274 C 0.93464 0.06163 0.12506 0.0
C1275 C 0.92242 0.04039 0.12928 0.0
C1276 C 0.92204 0.02185 0.11274 0.0
C1277 C 0.93424 0.0246 0.09261 0.0
C1278 C 0.93543 0.0818 0.14231 0.0
C1279 C 0.90912 0.99895 0.11654 0.0
C1280 C 0.91138 0.02676 0.19271 0.0
C1281 C 0.88797 0.03027 0.19299 0.0
C1282 C 0.92284 0.03022 0.17218 0.0
C1283 C 0.91061 0.0373 0.15136 0.0
C1284 C 0.88701 0.04095 0.15152 0.0
C1285 C 0.87599 0.03741 0.17233 0.0
C1286 C 0.94802 0.02617 0.17272 0.0
C1287 C 0.87338 0.04846 0.12966 0.0
H1288 H 0.95631 0.08011 0.10175 0.0
H1289 H 0.93417 0.01024 0.08019 0.0
H1290 H 0.91751 0.08516 0.14504 0.0
H1291 H 0.94409 0.07812 0.15991 0.0
H1292 H 0.94496 0.09735 0.13601 0.0
H1293 H 0.9098 0.98649 0.10154 0.0
H1294 H 0.91673 0.99219 0.13321 0.0
H1295 H 0.89062 0.00056 0.11863 0.0
H1296 H 0.92081 0.0213 0.20859 0.0
H1297 H 0.85791 0.0402 0.17237 0.0
H1298 H 0.95875 0.04174 0.16812 0.0
H1299 H 0.94979 0.01266 0.15917 0.0
H1300 H 0.95517 0.02109 0.19045 0.0
H1301 H 0.88219 0.0646 0.12395 0.0
H1302 H 0.85528 0.0509 0.13281 0.0
H1303 H 0.87273 0.03568 0.1147 0.0
C1304 C 0.26007 0.79556 0.2114 0.0
C1305 C 0.25758 0.7718 0.20984 0.0
C1306 C 0.26145 0.8081 0.19089 0.0
C1307 C 0.26016 0.79661 0.16827 0.0
C1308 C 0.2568 0.77264 0.16651 0.0
C1309 C 0.25564 0.76052 0.18732 0.0
C1310 C 0.26517 0.83364 0.19352 0.0
C1311 C 0.25518 0.75975 0.14271 0.0
C1312 C 0.24968 0.82823 0.11147 0.0
C1313 C 0.27227 0.83218 0.10458 0.0
C1314 C 0.24543 0.8169 0.13232 0.0
C1315 C 0.26424 0.80954 0.14668 0.0
C1316 C 0.28711 0.81398 0.1401 0.0
C1317 C 0.29082 0.82514 0.11914 0.0
C1318 C 0.22079 0.81238 0.13873 0.0
C1319 C 0.30768 0.80663 0.15502 0.0
H1320 H 0.26154 0.80442 0.22872 0.0
H1321 H 0.25355 0.74217 0.18593 0.0
H1322 H 0.28259 0.83995 0.18834 0.0
H1323 H 0.25208 0.84092 0.18142 0.0
H1324 H 0.26404 0.84001 0.21208 0.0
H1325 H 0.25073 0.74122 0.14417 0.0
H1326 H 0.24183 0.76589 0.12995 0.0
H1327 H 0.27208 0.76275 0.13511 0.0
H1328 H 0.23524 0.83357 0.10032 0.0
H1329 H 0.30837 0.82825 0.1141 0.0
H1330 H 0.21972 0.81932 0.15705 0.0
H1331 H 0.21548 0.79384 0.13856 0.0
H1332 H 0.20822 0.81991 0.1262 0.0
H1333 H 0.30855 0.8137 0.17361 0.0
H1334 H 0.32446 0.81212 0.1479 0.0
H1335 H 0.30559 0.78791 0.1557 0.0
C1336 C 0.01494 0.41429 0.19554 0.0
C1337 C 0.99549 0.42485 0.18747 0.0
C1338 C 0.02671 0.41968 0.21831 0.0
C1339 C 0.01876 0.4359 0.23347 0.0
C1340 C 0.99879 0.4462 0.22572 0.0
C1341 C 0.98743 0.44062 0.20275 0.0
C1342 C 0.04804 0.40844 0.22591 0.0
C1343 C 0.98971 0.46343 0.24152 0.0
C1344 C 0.0402 0.43696 0.29935 0.0
C1345 C 0.05829 0.45495 0.30135 0.0
C1346 C 0.02691 0.43077 0.27743 0.0
C1347 C 0.03198 0.44275 0.25703 0.0
C1348 C 0.05017 0.46094 0.25893 0.0
C1349 C 0.06305 0.46688 0.28108 0.0
C1350 C 0.00752 0.41137 0.27607 0.0
C1351 C 0.05622 0.47399 0.2375 0.0
H1352 H 0.02131 0.40209 0.18388 0.0
H1353 H 0.97236 0.44878 0.19669 0.0
H1354 H 0.06351 0.42141 0.22913 0.0
H1355 H 0.04596 0.40005 0.24291 0.0
H1356 H 0.05148 0.39561 0.21232 0.0
H1357 H 0.97325 0.46894 0.23335 0.0
H1358 H 0.98661 0.4563 0.25896 0.0
H1359 H 0.00289 0.47854 0.24512 0.0
H1360 H 0.03633 0.42773 0.31496 0.0
H1361 H 0.07701 0.48079 0.28244 0.0
H1362 H 0.01109 0.39767 0.26359 0.0
H1363 H 0.99084 0.41713 0.26896 0.0
H1364 H 0.00535 0.40423 0.29372 0.0
H1365 H 0.0613 0.46238 0.22364 0.0
H1366 H 0.0707 0.48786 0.24205 0.0
H1367 H 0.04078 0.48141 0.22956 0.0
C1368 C 0.34693 0.73883 0.31252 0.0
C1369 C 0.33853 0.72234 0.29431 0.0
C1370 C 0.37008 0.74077 0.32287 0.0
C1371 C 0.38529 0.726 0.3147 0.0
C1372 C 0.37697 0.70932 0.29634 0.0
C1373 C 0.35367 0.70763 0.28641 0.0
C1374 C 0.3783 0.75875 0.34249 0.0
C1375 C 0.39274 0.69342 0.28701 0.0
C1376 C 0.44932 0.74852 0.32555 0.0
C1377 C 0.4565 0.73769 0.34619 0.0
C1378 C 0.42642 0.7442 0.31464 0.0
C1379 C 0.41017 0.7288 0.32471 0.0
C1380 C 0.41746 0.71715 0.34503 0.0
C1381 C 0.44062 0.72166 0.35548 0.0
C1382 C 0.41943 0.75676 0.29281 0.0
C1383 C 0.40059 0.70065 0.35629 0.0
H1384 H 0.33535 0.75017 0.31886 0.0
H1385 H 0.34734 0.69482 0.27236 0.0
H1386 H 0.38565 0.75089 0.35861 0.0
H1387 H 0.39239 0.77088 0.33673 0.0
H1388 H 0.36407 0.76834 0.34742 0.0
H1389 H 0.38343 0.68099 0.27307 0.0
H1390 H 0.40738 0.70326 0.27934 0.0
H1391 H 0.40041 0.68402 0.30182 0.0
H1392 H 0.46154 0.76077 0.3181 0.0
H1393 H 0.44604 0.71326 0.37144 0.0
H1394 H 0.40663 0.76832 0.29707 0.0
H1395 H 0.41086 0.74466 0.27824 0.0
H1396 H 0.43453 0.76691 0.28621 0.0
H1397 H 0.3871 0.70981 0.36357 0.0
H1398 H 0.40934 0.69181 0.37096 0.0
H1399 H 0.3915 0.6878 0.3427 0.0
C1400 C 0.01993 0.35415 0.04391 0.0
C1401 C 0.99822 0.35915 0.04998 0.0
C1402 C 0.02183 0.3419 0.02262 0.0
C1403 C 0.00154 0.33439 0.00706 0.0
C1404 C 0.97957 0.33933 0.01308 0.0
C1405 C 0.97817 0.3517 0.03446 0.0
C1406 C 0.04559 0.33705 0.01674 0.0
C1407 C 0.95754 0.33155 0.99693 0.0
C1408 C 0.00825 0.32129 0.94196 0.0
C1409 C 0.00697 0.29757 0.941 0.0
C1410 C 0.00653 0.33346 0.96335 0.0
C1411 C 0.00337 0.32165 0.98429 0.0
C1412 C 0.00212 0.29774 0.98351 0.0
C1413 C 0.00399 0.28598 0.96188 0.0
C1414 C 0.00808 0.35897 0.96352 0.0
C1415 C 0.99871 0.28458 0.0055 0.0
H1416 H 0.03552 0.35985 0.05578 0.0
H1417 H 0.96133 0.35544 0.03905 0.0
H1418 H 0.04592 0.31851 0.01443 0.0
H1419 H 0.04939 0.34449 0.99961 0.0
H1420 H 0.05964 0.344 0.0308 0.0
H1421 H 0.94179 0.33653 0.00434 0.0
H1422 H 0.95865 0.33885 0.97922 0.0
H1423 H 0.95545 0.31285 0.99403 0.0
H1424 H 0.01058 0.33042 0.92595 0.0
H1425 H 0.00292 0.26767 0.96131 0.0
H1426 H 0.02275 0.36667 0.9765 0.0
H1427 H 0.99193 0.3646 0.96933 0.0
H1428 H 0.01067 0.3656 0.94572 0.0
H1429 H 0.01311 0.29014 0.01967 0.0
H1430 H 0.99804 0.26603 0.00189 0.0
H1431 H 0.98228 0.28803 0.01257 0.0
C1432 C 0.68636 0.74467 0.32525 0.0
C1433 C 0.68523 0.73654 0.30143 0.0
C1434 C 0.66639 0.74324 0.33741 0.0
C1435 C 0.64475 0.7335 0.32546 0.0
C1436 C 0.64386 0.72361 0.3021 0.0
C1437 C 0.66413 0.72523 0.29036 0.0
C1438 C 0.66816 0.75383 0.36237 0.0
C1439 C 0.62116 0.71294 0.28878 0.0
C1440 C 0.59159 0.72554 0.36018 0.0
C1441 C 0.5815 0.74537 0.35524 0.0
C1442 C 0.61216 0.72124 0.35054 0.0
C1443 C 0.62279 0.73714 0.33569 0.0
C1444 C 0.61263 0.7571 0.33064 0.0
C1445 C 0.59219 0.76093 0.34043 0.0
C1446 C 0.62253 0.69978 0.35628 0.0
C1447 C 0.62339 0.77455 0.31493 0.0
H1448 H 0.70265 0.75316 0.3341 0.0
H1449 H 0.66311 0.71869 0.27205 0.0
H1450 H 0.66043 0.77 0.36185 0.0
H1451 H 0.65826 0.74262 0.37404 0.0
H1452 H 0.6865 0.75746 0.37046 0.0
H1453 H 0.62392 0.70289 0.27253 0.0
H1454 H 0.61113 0.70177 0.30038 0.0
H1455 H 0.6104 0.72643 0.2833 0.0
H1456 H 0.58345 0.71341 0.37157 0.0
H1457 H 0.58461 0.77631 0.33645 0.0
H1458 H 0.6404 0.70401 0.36542 0.0
H1459 H 0.62398 0.68986 0.33957 0.0
H1460 H 0.61199 0.68899 0.36784 0.0
H1461 H 0.64129 0.78113 0.32275 0.0
H1462 H 0.61317 0.78909 0.31261 0.0
H1463 H 0.62473 0.76666 0.29707 0.0
C1464 C 0.00734 0.0852 0.98613 0.0
C1465 C 0.0292 0.07734 0.98735 0.0
C1466 C 0.00264 0.10379 0.97258 0.0
C1467 C 0.02021 0.11475 0.95991 0.0
C1468 C 0.04235 0.10694 0.96118 0.0
C1469 C 0.04652 0.08829 0.97478 0.0
C1470 C 0.97876 0.11147 0.97153 0.0
C1471 C 0.06161 0.11821 0.94806 0.0
C1472 C 0.00382 0.1489 0.90647 0.0
C1473 C 0.00856 0.1712 0.91622 0.0
C1474 C 0.00712 0.13036 0.92059 0.0
C1475 C 0.01544 0.13419 0.94504 0.0
C1476 C 0.01993 0.15663 0.95507 0.0
C1477 C 0.01639 0.17484 0.94058 0.0
C1478 C 0.00203 0.10668 0.90923 0.0
C1479 C 0.02887 0.16143 0.98105 0.0
H1480 H 0.99365 0.07647 0.99519 0.0
H1481 H 0.06346 0.08231 0.97562 0.0
H1482 H 0.9802 0.12963 0.97738 0.0
H1483 H 0.97044 0.10979 0.95287 0.0
H1484 H 0.9672 0.10154 0.98289 0.0
H1485 H 0.07796 0.11036 0.95124 0.0
H1486 H 0.05608 0.11716 0.92861 0.0
H1487 H 0.06528 0.13644 0.95373 0.0
H1488 H 0.9977 0.14588 0.88771 0.0
H1489 H 0.0201 0.19199 0.94831 0.0
H1490 H 0.98946 0.09626 0.91911 0.0
H1491 H 0.01823 0.09849 0.91022 0.0
H1492 H 0.99477 0.10652 0.89024 0.0
H1493 H 0.01684 0.15226 0.99248 0.0
H1494 H 0.03082 0.17978 0.9863 0.0
H1495 H 0.04603 0.15517 0.98472 0.0
C1496 C 0.40496 0.32288 0.33105 0.0
C1497 C 0.38866 0.33837 0.3318 0.0
C1498 C 0.4141 0.31763 0.30972 0.0
C1499 C 0.40738 0.32875 0.28886 0.0
C1500 C 0.3913 0.3448 0.28967 0.0
C1501 C 0.3818 0.34912 0.31107 0.0
C1502 C 0.43062 0.2999 0.30941 0.0
C1503 C 0.38426 0.35751 0.268 0.0
C1504 C 0.44794 0.32921 0.24009 0.0
C1505 C 0.4357 0.31294 0.22343 0.0
C1506 C 0.43868 0.3349 0.26124 0.0
C1507 C 0.41706 0.32344 0.26617 0.0
C1508 C 0.40482 0.30671 0.24954 0.0
C1509 C 0.41411 0.30195 0.22815 0.0
C1510 C 0.45191 0.35331 0.27818 0.0
C1511 C 0.3821 0.29362 0.2545 0.0
H1512 H 0.41009 0.31438 0.34704 0.0
H1513 H 0.36928 0.3612 0.31169 0.0
H1514 H 0.42361 0.28616 0.29585 0.0
H1515 H 0.44766 0.30744 0.30429 0.0
H1516 H 0.43355 0.29234 0.32699 0.0
H1517 H 0.37243 0.37021 0.2719 0.0
H1518 H 0.39996 0.36634 0.26117 0.0
H1519 H 0.37536 0.34548 0.25355 0.0
H1520 H 0.46455 0.33786 0.23633 0.0
H1521 H 0.40473 0.28923 0.21533 0.0
H1522 H 0.45688 0.34625 0.2956 0.0
H1523 H 0.44064 0.36664 0.28153 0.0
H1524 H 0.46794 0.36128 0.27119 0.0
H1525 H 0.38456 0.28502 0.27151 0.0
H1526 H 0.37514 0.28067 0.24005 0.0
H1527 H 0.36891 0.30535 0.25656 0.0
C1528 C 0.51853 0.43647 0.05576 0.0
C1529 C 0.52842 0.42868 0.03579 0.0
C1530 C 0.51093 0.42151 0.07281 0.0
C1531 C 0.51317 0.39819 0.06976 0.0
C1532 C 0.52337 0.39026 0.0498 0.0
C1533 C 0.53092 0.4056 0.03309 0.0
C1534 C 0.50026 0.43062 0.09394 0.0
C1535 C 0.52598 0.36549 0.04589 0.0
C1536 C 0.5105 0.36063 0.12266 0.0
C1537 C 0.48751 0.34994 0.11894 0.0
C1538 C 0.51902 0.37661 0.107 0.0
C1539 C 0.50422 0.38195 0.08707 0.0
C1540 C 0.48093 0.37145 0.08337 0.0
C1541 C 0.47284 0.35563 0.09937 0.0
C1542 C 0.54392 0.38757 0.11159 0.0
C1543 C 0.46464 0.37663 0.06227 0.0
H1544 H 0.5166 0.45428 0.05803 0.0
H1545 H 0.53854 0.39943 0.01772 0.0
H1546 H 0.48195 0.42277 0.09361 0.0
H1547 H 0.50976 0.4261 0.11078 0.0
H1548 H 0.50052 0.44931 0.09415 0.0
H1549 H 0.53475 0.36213 0.02975 0.0
H1550 H 0.53617 0.35952 0.06158 0.0
H1551 H 0.50858 0.3553 0.04397 0.0
H1552 H 0.52197 0.35638 0.13774 0.0
H1553 H 0.45507 0.34746 0.09629 0.0
H1554 H 0.54448 0.40627 0.11276 0.0
H1555 H 0.5537 0.38321 0.09651 0.0
H1556 H 0.55294 0.38213 0.12831 0.0
H1557 H 0.46322 0.39505 0.0624 0.0
H1558 H 0.44692 0.36732 0.06218 0.0
H1559 H 0.47173 0.37204 0.04545 0.0
C1560 C 0.66485 0.31137 0.25681 0.0
C1561 C 0.66865 0.29271 0.27049 0.0
C1562 C 0.64326 0.31257 0.24369 0.0
C1563 C 0.62504 0.29467 0.24424 0.0
C1564 C 0.62858 0.27602 0.25842 0.0
C1565 C 0.65034 0.27527 0.2714 0.0
C1566 C 0.64011 0.33278 0.22885 0.0
C1567 C 0.60954 0.25661 0.25945 0.0
C1568 C 0.56307 0.30531 0.22434 0.0
C1569 C 0.55984 0.29586 0.2009 0.0
C1570 C 0.58421 0.30506 0.23866 0.0
C1571 C 0.60253 0.29511 0.22933 0.0
C1572 C 0.59941 0.2856 0.20568 0.0
C1573 C 0.57812 0.28612 0.19174 0.0
C1574 C 0.58692 0.31541 0.26379 0.0
C1575 C 0.61854 0.2748 0.19512 0.0
H1576 H 0.67886 0.32495 0.25604 0.0
H1577 H 0.65311 0.2608 0.28194 0.0
H1578 H 0.63658 0.3272 0.20971 0.0
H1579 H 0.62487 0.34081 0.23374 0.0
H1580 H 0.65568 0.34571 0.23113 0.0
H1581 H 0.61479 0.24379 0.27205 0.0
H1582 H 0.59365 0.26304 0.26499 0.0
H1583 H 0.60485 0.24817 0.24146 0.0
H1584 H 0.54905 0.31287 0.23157 0.0
H1585 H 0.57577 0.27873 0.17368 0.0
H1586 H 0.60178 0.3291 0.26608 0.0
H1587 H 0.59088 0.30244 0.27669 0.0
H1588 H 0.57103 0.32256 0.26833 0.0
H1589 H 0.63428 0.28735 0.19539 0.0
H1590 H 0.61333 0.26815 0.17645 0.0
H1591 H 0.62347 0.26066 0.20602 0.0
C1592 C 0.4844 0.13606 0.08562 0.0
C1593 C 0.4931 0.141 0.06383 0.0
C1594 C 0.4826 0.15342 0.10265 0.0
C1595 C 0.48946 0.1762 0.09765 0.0
C1596 C 0.4998 0.1811 0.07647 0.0
C1597 C 0.5016 0.16343 0.05989 0.0
C1598 C 0.47194 0.14748 0.12525 0.0
C1599 C 0.50741 0.20517 0.07047 0.0
C1600 C 0.45668 0.22286 0.11938 0.0
C1601 C 0.47311 0.23468 0.13672 0.0
C1602 C 0.46148 0.20325 0.10727 0.0
C1603 C 0.48317 0.19508 0.11277 0.0
C1604 C 0.49932 0.20613 0.1312 0.0
C1605 C 0.49415 0.2259 0.1429 0.0
C1606 C 0.44376 0.19196 0.08771 0.0
C1607 C 0.52246 0.19768 0.13783 0.0
H1608 H 0.47803 0.11874 0.08895 0.0
H1609 H 0.50856 0.16741 0.04323 0.0
H1610 H 0.48195 0.15718 0.1409 0.0
H1611 H 0.45395 0.15209 0.12404 0.0
H1612 H 0.47119 0.1291 0.12834 0.0
H1613 H 0.51717 0.20598 0.05452 0.0
H1614 H 0.49186 0.21418 0.06692 0.0
H1615 H 0.51855 0.21439 0.08572 0.0
H1616 H 0.44032 0.2294 0.11455 0.0
H1617 H 0.50691 0.23482 0.15638 0.0
H1618 H 0.4398 0.17368 0.09073 0.0
H1619 H 0.45099 0.19334 0.07029 0.0
H1620 H 0.42723 0.19968 0.08655 0.0
H1621 H 0.52006 0.17914 0.13998 0.0
H1622 H 0.53161 0.20621 0.1546 0.0
H1623 H 0.53377 0.20088 0.12332 0.0
C1624 C 0.24477 0.34957 0.70922 0.0
C1625 C 0.25385 0.33491 0.72564 0.0
C1626 C 0.25324 0.37273 0.71032 0.0
C1627 C 0.27122 0.38141 0.72824 0.0
C1628 C 0.2814 0.36646 0.74391 0.0
C1629 C 0.27259 0.34341 0.74243 0.0
C1630 C 0.24204 0.3881 0.69319 0.0
C1631 C 0.30073 0.375 0.76317 0.0
C1632 C 0.30407 0.44064 0.72843 0.0
C1633 C 0.29336 0.45227 0.74554 0.0
C1634 C 0.29647 0.41775 0.72178 0.0
C1635 C 0.27771 0.4063 0.73245 0.0
C1636 C 0.26607 0.41831 0.74874 0.0
C1637 C 0.27404 0.44109 0.75509 0.0
C1638 C 0.30924 0.40555 0.70426 0.0
C1639 C 0.24583 0.40681 0.76036 0.0
H1640 H 0.23036 0.34317 0.6961 0.0
H1641 H 0.27988 0.33222 0.75507 0.0
H1642 H 0.23142 0.3989 0.70293 0.0
H1643 H 0.25549 0.39955 0.68549 0.0
H1644 H 0.23055 0.37842 0.67841 0.0
H1645 H 0.30825 0.36096 0.77238 0.0
H1646 H 0.31486 0.38561 0.75551 0.0
H1647 H 0.2939 0.3858 0.77662 0.0
H1648 H 0.31901 0.44913 0.72095 0.0
H1649 H 0.2655 0.44997 0.76814 0.0
H1650 H 0.29674 0.39585 0.69034 0.0
H1651 H 0.31923 0.39321 0.71371 0.0
H1652 H 0.32154 0.41739 0.69546 0.0
H1653 H 0.23237 0.3982 0.74661 0.0
H1654 H 0.23765 0.41891 0.77132 0.0
H1655 H 0.25191 0.39365 0.77203 0.0
C1656 C 0.27993 0.68257 0.76291 0.0
C1657 C 0.29903 0.69624 0.77526 0.0
C1658 C 0.27988 0.65903 0.75995 0.0
C1659 C 0.29926 0.64892 0.76983 0.0
C1660 C 0.3186 0.66265 0.78225 0.0
C1661 C 0.3183 0.68614 0.78468 0.0
C1662 C 0.25908 0.64496 0.74636 0.0
C1663 C 0.33949 0.65248 0.7933 0.0
C1664 C 0.29299 0.5873 0.78555 0.0
C1665 C 0.30419 0.5773 0.7677 0.0
C1666 C 0.29051 0.61045 0.78596 0.0
C1667 C 0.29919 0.62392 0.76793 0.0
C1668 C 0.30935 0.61371 0.74913 0.0
C1669 C 0.31185 0.59054 0.74931 0.0
C1670 C 0.27969 0.62071 0.80638 0.0
C1671 C 0.31848 0.62746 0.72939 0.0
H1672 H 0.26503 0.69028 0.75546 0.0
H1673 H 0.3331 0.69657 0.79429 0.0
H1674 H 0.26471 0.63497 0.73146 0.0
H1675 H 0.25084 0.63272 0.75824 0.0
H1676 H 0.24581 0.6555 0.73898 0.0
H1677 H 0.35317 0.66552 0.80224 0.0
H1678 H 0.33403 0.64025 0.80662 0.0
H1679 H 0.34717 0.64298 0.77941 0.0
H1680 H 0.28699 0.57725 0.79984 0.0
H1681 H 0.32039 0.58294 0.73537 0.0
H1682 H 0.26563 0.63057 0.79953 0.0
H1683 H 0.29304 0.63263 0.81739 0.0
H1684 H 0.27233 0.60769 0.81804 0.0
H1685 H 0.30512 0.63773 0.72171 0.0
H1686 H 0.32366 0.61664 0.71486 0.0
H1687 H 0.33388 0.6394 0.73672 0.0
C1688 C 0.86052 0.52937 0.495 0.0
C1689 C 0.85811 0.52892 0.46998 0.0
C1690 C 0.85189 0.51059 0.50723 0.0
C1691 C 0.84075 0.49088 0.49411 0.0
C1692 C 0.83798 0.49046 0.46887 0.0
C1693 C 0.84661 0.5095 0.45714 0.0
C1694 C 0.85498 0.5117 0.53415 0.0
C1695 C 0.82626 0.46973 0.45422 0.0
C1696 C 0.8383 0.4326 0.5192 0.0
C1697 C 0.81477 0.42827 0.52308 0.0
C1698 C 0.84731 0.4534 0.51089 0.0
C1699 C 0.83247 0.47034 0.50651 0.0
C1700 C 0.80911 0.46663 0.51185 0.0
C1701 C 0.80051 0.44561 0.52001 0.0
C1702 C 0.87233 0.45671 0.50543 0.0
C1703 C 0.79284 0.48438 0.5077 0.0
H1704 H 0.86935 0.54434 0.50507 0.0
H1705 H 0.84469 0.50898 0.43781 0.0
H1706 H 0.83791 0.50764 0.54115 0.0
H1707 H 0.86616 0.49885 0.54058 0.0
H1708 H 0.86304 0.52863 0.54172 0.0
H1709 H 0.82516 0.47228 0.43476 0.0
H1710 H 0.83603 0.45512 0.45797 0.0
H1711 H 0.80839 0.46518 0.45919 0.0
H1712 H 0.84948 0.41936 0.5216 0.0
H1713 H 0.78235 0.44251 0.52313 0.0
H1714 H 0.8813 0.47307 0.51359 0.0
H1715 H 0.87289 0.45731 0.48586 0.0
H1716 H 0.88214 0.44286 0.51196 0.0
H1717 H 0.80113 0.5011 0.51558 0.0
H1718 H 0.77614 0.47998 0.51539 0.0
H1719 H 0.78896 0.48617 0.48825 0.0
C1720 C 0.73487 0.88896 0.86687 0.0
C1721 C 0.74865 0.88966 0.88883 0.0
C1722 C 0.71698 0.90275 0.86332 0.0
C1723 C 0.71277 0.91759 0.88217 0.0
C1724 C 0.72738 0.91923 0.90394 0.0
C1725 C 0.74516 0.90525 0.90701 0.0
C1726 C 0.70186 0.90061 0.83978 0.0
C1727 C 0.72352 0.93492 0.92444 0.0
C1728 C 0.67245 0.96232 0.86807 0.0
C1729 C 0.65116 0.95155 0.87403 0.0
C1730 C 0.69278 0.95163 0.87087 0.0
C1731 C 0.69178 0.92972 0.8799 0.0
C1732 C 0.67045 0.91898 0.88639 0.0
C1733 C 0.65044 0.93 0.88336 0.0
C1734 C 0.71522 0.96359 0.86376 0.0
C1735 C 0.66866 0.89564 0.89618 0.0
H1736 H 0.73753 0.87708 0.85266 0.0
H1737 H 0.75581 0.90603 0.92399 0.0
H1738 H 0.68404 0.89291 0.84244 0.0
H1739 H 0.70037 0.91757 0.83271 0.0
H1740 H 0.70875 0.88995 0.82622 0.0
H1741 H 0.73777 0.9359 0.93923 0.0
H1742 H 0.72207 0.95222 0.91828 0.0
H1743 H 0.70688 0.92883 0.93148 0.0
H1744 H 0.67319 0.97895 0.86081 0.0
H1745 H 0.63412 0.92154 0.8881 0.0
H1746 H 0.72115 0.95372 0.84895 0.0
H1747 H 0.72908 0.96471 0.87892 0.0
H1748 H 0.71332 0.98095 0.85795 0.0
H1749 H 0.67325 0.88324 0.8828 0.0
H1750 H 0.65091 0.88988 0.90093 0.0
H1751 H 0.68122 0.89552 0.91231 0.0
C1752 C 0.63507 0.5142 0.00407 0.0
C1753 C 0.61803 0.52531 0.99157 0.0
C1754 C 0.65822 0.52442 0.00851 0.0
C1755 C 0.6644 0.54628 0.00033 0.0
C1756 C 0.64711 0.55792 0.98851 0.0
C1757 C 0.62417 0.54729 0.98425 0.0
C1758 C 0.67621 0.51152 0.02119 0.0
C1759 C 0.653 0.5813 0.97962 0.0
C1760 C 0.72195 0.58066 0.02397 0.0
C1761 C 0.73576 0.57689 0.00554 0.0
C1762 C 0.69875 0.57057 0.02272 0.0
C1763 C 0.68918 0.5564 0.00257 0.0
C1764 C 0.70307 0.5524 0.98401 0.0
C1765 C 0.72616 0.56269 0.98572 0.0
C1766 C 0.68442 0.57523 0.04282 0.0
C1767 C 0.69347 0.5374 0.96221 0.0
H1768 H 0.63049 0.49724 0.00984 0.0
H1769 H 0.61111 0.5561 0.97474 0.0
H1770 H 0.68894 0.50748 0.00876 0.0
H1771 H 0.68604 0.52205 0.03637 0.0
H1772 H 0.6683 0.49544 0.02799 0.0
H1773 H 0.63728 0.58866 0.97224 0.0
H1774 H 0.66229 0.59288 0.99428 0.0
H1775 H 0.66484 0.5805 0.96545 0.0
H1776 H 0.72922 0.59156 0.03938 0.0
H1777 H 0.73668 0.55961 0.97141 0.0
H1778 H 0.67744 0.55907 0.05011 0.0
H1779 H 0.66929 0.58372 0.03601 0.0
H1780 H 0.69465 0.58612 0.05756 0.0
H1781 H 0.68682 0.52032 0.9676 0.0
H1782 H 0.70674 0.53558 0.94965 0.0
H1783 H 0.6786 0.54454 0.95265 0.0
C1784 C 0.22727 0.61287 0.28176 0.0
C1785 C 0.22323 0.63549 0.27953 0.0
C1786 C 0.21191 0.59749 0.29254 0.0
C1787 C 0.19198 0.60488 0.30131 0.0
C1788 C 0.18736 0.62749 0.29845 0.0
C1789 C 0.20305 0.64255 0.28757 0.0
C1790 C 0.2174 0.57347 0.29514 0.0
C1791 C 0.16622 0.63594 0.3075 0.0
C1792 C 0.145 0.55832 0.31392 0.0
C1793 C 0.15039 0.55598 0.33844 0.0
C1794 C 0.15788 0.57471 0.30171 0.0
C1795 C 0.1766 0.58907 0.31432 0.0
C1796 C 0.18163 0.58731 0.33921 0.0
C1797 C 0.16846 0.57079 0.35097 0.0
C1798 C 0.15195 0.57613 0.27518 0.0
C1799 C 0.20145 0.60236 0.35329 0.0
H1800 H 0.24275 0.60722 0.27551 0.0
H1801 H 0.19978 0.66 0.2859 0.0
H1802 H 0.2204 0.57006 0.31433 0.0
H1803 H 0.20242 0.56132 0.28721 0.0
H1804 H 0.23306 0.57016 0.28646 0.0
H1805 H 0.16434 0.65357 0.30257 0.0
H1806 H 0.15022 0.62479 0.30026 0.0
H1807 H 0.1675 0.63537 0.32721 0.0
H1808 H 0.131 0.54702 0.3041 0.0
H1809 H 0.17269 0.56917 0.36993 0.0
H1810 H 0.16647 0.57113 0.26564 0.0
H1811 H 0.14974 0.5938 0.2708 0.0
H1812 H 0.13579 0.56496 0.26835 0.0
H1813 H 0.21822 0.5988 0.34708 0.0
H1814 H 0.20218 0.59981 0.37273 0.0
H1815 H 0.19974 0.62042 0.35029 0.0
C1816 C 0.92815 0.50359 0.0873 0.0
C1817 C 0.91559 0.48343 0.0934 0.0
C1818 C 0.91666 0.52173 0.07913 0.0
C1819 C 0.89204 0.51952 0.07674 0.0
C1820 C 0.8793 0.49946 0.08353 0.0
C1821 C 0.89124 0.4817 0.09189 0.0
C1822 C 0.93084 0.54297 0.07235 0.0
C1823 C 0.85301 0.49637 0.08105 0.0
C1824 C 0.8584 0.57017 0.06791 0.0
C1825 C 0.85226 0.56847 0.04316 0.0
C1826 C 0.87203 0.55482 0.0791 0.0
C1827 C 0.87947 0.53727 0.06521 0.0
C1828 C 0.87391 0.5359 0.04017 0.0
C1829 C 0.86051 0.55155 0.02947 0.0
C1830 C 0.87791 0.55698 0.10582 0.0
C1831 C 0.88141 0.51737 0.02472 0.0
H1832 H 0.947 0.50513 0.08862 0.0
H1833 H 0.88141 0.4662 0.09662 0.0
H1834 H 0.92795 0.54462 0.05279 0.0
H1835 H 0.92521 0.55814 0.08102 0.0
H1836 H 0.94978 0.5429 0.07745 0.0
H1837 H 0.84574 0.48033 0.08843 0.0
H1838 H 0.84647 0.51071 0.09031 0.0
H1839 H 0.84628 0.49627 0.06193 0.0
H1840 H 0.85218 0.58322 0.07863 0.0
H1841 H 0.85594 0.55006 0.01033 0.0
H1842 H 0.89691 0.55704 0.11047 0.0
H1843 H 0.86905 0.54216 0.11403 0.0
H1844 H 0.87254 0.57263 0.11378 0.0
H1845 H 0.90056 0.51747 0.02762 0.0
H1846 H 0.87637 0.51916 0.00543 0.0
H1847 H 0.87337 0.50062 0.02973 0.0
C1848 C 0.13324 0.98324 0.02978 0.0
C1849 C 0.11209 0.97639 0.01573 0.0
C1850 C 0.15179 0.97012 0.03001 0.0
C1851 C 0.14913 0.94961 0.01592 0.0
C1852 C 0.12794 0.94271 0.0015 0.0
C1853 C 0.10969 0.9562 0.00154 0.0
C1854 C 0.17418 0.97813 0.04551 0.0
C1855 C 0.12444 0.92094 0.98624 0.0
C1856 C 0.20405 0.92575 0.0011 0.0
C1857 C 0.20624 0.90932 0.0181 0.0
C1858 C 0.18545 0.93882 5e-05 0.0
C1859 C 0.16854 0.93535 0.01633 0.0
C1860 C 0.17042 0.91855 0.0333 0.0
C1861 C 0.18927 0.90576 0.03401 0.0
C1862 C 0.18409 0.9566 0.98173 0.0
C1863 C 0.15269 0.9143 0.05091 0.0
H1864 H 0.13526 0.99881 0.04079 0.0
H1865 H 0.09341 0.95073 0.99067 0.0
H1866 H 0.17778 0.96542 0.05883 0.0
H1867 H 0.18896 0.97985 0.03445 0.0
H1868 H 0.17359 0.99465 0.05511 0.0
H1869 H 0.107 0.91809 0.97584 0.0
H1870 H 0.13792 0.92118 0.97365 0.0
H1871 H 0.12644 0.90639 0.99765 0.0
H1872 H 0.21707 0.92867 0.98874 0.0
H1873 H 0.1908 0.8931 0.04719 0.0
H1874 H 0.18502 0.97359 0.99082 0.0
H1875 H 0.16717 0.95351 0.97044 0.0
H1876 H 0.19834 0.95684 0.97001 0.0
H1877 H 0.15257 0.92983 0.06237 0.0
H1878 H 0.15627 0.9002 0.06252 0.0
H1879 H 0.135 0.91021 0.04129 0.0
loop_
_geom_bond_atom_site_label_1
_geom_bond_atom_site_label_2
_geom_bond_distance
_geom_bond_site_symmetry_2
_ccdc_geom_bond_type
O0 Cd1 2.300 . S
O0 C7 1.275 . S
Cd1 O0 2.300 . S
Cd1 O9 2.381 . S
Cd1 O10 2.378 . S
O2 Cd3 2.385 . S
O2 C7 1.255 . S
Cd3 O2 2.385 . S
Cd3 O4 2.317 . S
O4 Cd3 2.317 . S
O4 C5 1.232 1_455 S
C5 O4 1.232 1_655 S
C5 O6 1.218 . S
O6 C5 1.218 . S
C7 O0 1.275 . S
C7 O2 1.255 . S
C8 O9 1.241 1_565 S
C8 O10 1.250 1_565 S
O9 Cd1 2.381 . S
O9 C8 1.241 1_545 S
O10 Cd1 2.378 . S
O10 C8 1.250 1_545 S
O11 Cd12 2.300 . S
O11 C18 1.275 . S
Cd12 O11 2.300 . S
Cd12 O20 2.381 . S
Cd12 O21 2.378 . S
O13 Cd14 2.385 . S
O13 C18 1.255 . S
Cd14 O13 2.385 . S
Cd14 O15 2.317 . S
O15 Cd14 2.317 . S
O15 C16 1.232 . S
C16 O15 1.232 . S
C16 O17 1.218 . S
O17 C16 1.218 . S
C18 O11 1.275 . S
C18 O13 1.255 . S
C19 O20 1.258 . S
C19 O21 1.256 . S
O20 Cd12 2.381 . S
O20 C19 1.258 . S
O21 Cd12 2.378 . S
O21 C19 1.256 . S
O22 Cd23 2.300 . S
O22 C29 1.275 . S
Cd23 O22 2.300 . S
Cd23 O31 2.381 . S
Cd23 O32 2.378 . S
O24 Cd25 2.385 . S
O24 C29 1.255 . S
Cd25 O24 2.385 . S
Cd25 O26 2.317 . S
O26 Cd25 2.317 . S
O26 C27 1.232 . S
C27 O26 1.232 . S
C27 O28 1.218 . S
O28 C27 1.218 . S
C29 O22 1.275 . S
C29 O24 1.255 . S
C30 O31 1.258 . S
C30 O32 1.256 . S
O31 Cd23 2.381 . S
O31 C30 1.258 . S
O32 Cd23 2.378 . S
O32 C30 1.256 . S
O33 Cd34 2.300 . S
O33 C40 1.275 . S
Cd34 O33 2.300 . S
Cd34 O42 2.381 . S
Cd34 O43 2.378 . S
O35 Cd36 2.385 . S
O35 C40 1.255 . S
Cd36 O35 2.385 . S
Cd36 O37 2.317 . S
O37 Cd36 2.317 . S
O37 C38 1.232 . S
C38 O37 1.232 . S
C38 O39 1.218 . S
O39 C38 1.218 . S
C40 O33 1.275 . S
C40 O35 1.255 . S
C41 O42 1.258 . S
C41 O43 1.256 . S
O42 Cd34 2.381 . S
O42 C41 1.258 . S
O43 Cd34 2.378 . S
O43 C41 1.256 . S
O44 Cd45 2.300 . S
O44 C51 1.275 . S
Cd45 O44 2.300 . S
Cd45 O53 2.381 . S
Cd45 O54 2.378 . S
O46 Cd47 2.382 . S
O46 C51 1.255 . S
Cd47 O46 2.382 . S
Cd47 O48 2.314 . S
O48 Cd47 2.314 . S
O48 C49 1.232 . S
C49 O48 1.232 . S
C49 O50 1.218 1_565 S
O50 C49 1.218 1_545 S
C51 O44 1.275 . S
C51 O46 1.255 . S
C52 O53 1.258 . S
C52 O54 1.256 . S
O53 Cd45 2.381 . S
O53 C52 1.258 . S
O54 Cd45 2.378 . S
O54 C52 1.256 . S
O55 Cd56 2.300 . S
O55 C62 1.275 . S
Cd56 O55 2.300 . S
Cd56 O64 2.381 . S
Cd56 O65 2.378 . S
O57 Cd58 2.385 . S
O57 C62 1.255 . S
Cd58 O57 2.385 . S
Cd58 O59 2.317 . S
O59 Cd58 2.317 . S
O59 C60 1.232 . S
C60 O59 1.232 . S
C60 O61 1.218 . S
O61 C60 1.218 . S
C62 O55 1.275 . S
C62 O57 1.255 . S
C63 O64 1.258 . S
C63 O65 1.256 . S
O64 Cd56 2.381 . S
O64 C63 1.258 . S
O65 Cd56 2.378 . S
O65 C63 1.256 . S
O66 Cd67 2.300 . S
O66 C73 1.275 . S
Cd67 O66 2.300 . S
Cd67 O75 2.381 . S
Cd67 O76 2.378 . S
O68 Cd69 2.385 1_655 S
O68 C73 1.255 . S
Cd69 O68 2.385 1_455 S
Cd69 O70 2.317 1_455 S
O70 Cd69 2.317 1_655 S
O70 C71 1.232 . S
C71 O70 1.232 . S
C71 O72 1.218 1_655 S
O72 C71 1.218 1_455 S
C73 O66 1.275 . S
C73 O68 1.255 . S
C74 O75 1.258 . S
C74 O76 1.256 . S
O75 Cd67 2.381 . S
O75 C74 1.258 . S
O76 Cd67 2.378 . S
O76 C74 1.256 . S
O77 Cd78 2.300 . S
O77 C84 1.275 . S
Cd78 O77 2.300 . S
Cd78 O86 2.381 . S
Cd78 O87 2.378 . S
O79 Cd80 2.385 . S
O79 C84 1.255 . S
Cd80 O79 2.385 . S
Cd80 O81 2.317 . S
O81 Cd80 2.317 . S
O81 C82 1.232 . S
C82 O81 1.232 . S
C82 O83 1.218 . S
O83 C82 1.218 . S
C84 O77 1.275 . S
C84 O79 1.255 . S
C85 O86 1.258 . S
C85 O87 1.256 . S
O86 Cd78 2.381 . S
O86 C85 1.258 . S
O87 Cd78 2.378 . S
O87 C85 1.256 . S
O88 Cd89 2.300 . S
O88 C95 1.275 . S
Cd89 O88 2.300 . S
Cd89 O97 2.381 . S
Cd89 O98 2.378 . S
O90 Cd91 2.385 . S
O90 C95 1.255 . S
Cd91 O90 2.385 . S
Cd91 O92 2.317 . S
O92 Cd91 2.317 . S
O92 C93 1.232 . S
C93 O92 1.232 . S
C93 O94 1.218 . S
O94 C93 1.218 . S
C95 O88 1.275 . S
C95 O90 1.255 . S
C96 O97 1.258 . S
C96 O98 1.256 . S
O97 Cd89 2.381 . S
O97 C96 1.258 . S
O98 Cd89 2.378 . S
O98 C96 1.256 . S
O99 Cd100 2.300 . S
O99 C106 1.275 . S
Cd100 O99 2.300 . S
Cd100 O108 2.381 1_565 S
Cd100 O109 2.378 1_565 S
O101 Cd102 2.385 . S
O101 C106 1.255 . S
Cd102 O101 2.385 . S
Cd102 O103 2.317 . S
O103 Cd102 2.317 . S
O103 C104 1.232 . S
C104 O103 1.232 . S
C104 O105 1.218 . S
O105 C104 1.218 . S
C106 O99 1.275 . S
C106 O101 1.255 . S
C107 O108 1.258 . S
C107 O109 1.256 . S
O108 Cd100 2.381 1_545 S
O108 C107 1.258 . S
O109 Cd100 2.378 1_545 S
O109 C107 1.256 . S
O110 Cd111 2.300 . S
O110 C117 1.275 . S
Cd111 O110 2.300 . S
Cd111 O119 2.381 . S
Cd111 O120 2.378 . S
O112 Cd113 2.385 . S
O112 C117 1.255 . S
Cd113 O112 2.385 . S
Cd113 O114 2.317 . S
O114 Cd113 2.317 . S
O114 C115 1.232 . S
C115 O114 1.232 . S
C115 O116 1.218 . S
O116 C115 1.218 . S
C117 O110 1.275 . S
C117 O112 1.255 . S
C118 O119 1.258 . S
C118 O120 1.256 . S
O119 Cd111 2.381 . S
O119 C118 1.258 . S
O120 Cd111 2.378 . S
O120 C118 1.256 . S
O121 Cd122 2.300 . S
O121 C128 1.275 . S
Cd122 O121 2.300 . S
Cd122 O130 2.381 . S
Cd122 O131 2.378 . S
O123 Cd124 2.385 . S
O123 C128 1.255 . S
Cd124 O123 2.385 . S
Cd124 O125 2.317 . S
O125 Cd124 2.317 . S
O125 C126 1.232 . S
C126 O125 1.232 . S
C126 O127 1.218 . S
O127 C126 1.218 . S
C128 O121 1.275 . S
C128 O123 1.255 . S
C129 O130 1.258 . S
C129 O131 1.256 . S
O130 Cd122 2.381 . S
O130 C129 1.258 . S
O131 Cd122 2.378 . S
O131 C129 1.256 . S
O132 Cd133 2.300 . S
O132 C139 1.275 . S
Cd133 O132 2.300 . S
Cd133 O141 2.381 . S
Cd133 O142 2.378 . S
O134 Cd135 2.385 . S
O134 C139 1.255 . S
Cd135 O134 2.385 . S
Cd135 O136 2.317 . S
O136 Cd135 2.317 . S
O136 C137 1.232 . S
C137 O136 1.232 . S
C137 O138 1.218 . S
O138 C137 1.218 . S
C139 O132 1.275 . S
C139 O134 1.255 . S
C140 O141 1.258 . S
C140 O142 1.256 . S
O141 Cd133 2.381 . S
O141 C140 1.258 . S
O142 Cd133 2.378 . S
O142 C140 1.256 . S
O143 Cd144 2.300 1_556 S
O143 C150 1.275 . S
Cd144 O143 2.300 1_554 S
Cd144 O152 2.381 . S
Cd144 O153 2.378 . S
O145 Cd146 2.385 . S
O145 C150 1.255 . S
Cd146 O145 2.385 . S
Cd146 O147 2.317 . S
O147 Cd146 2.317 . S
O147 C148 1.232 . S
C148 O147 1.232 . S
C148 O149 1.218 . S
O149 C148 1.218 . S
C150 O143 1.275 . S
C150 O145 1.255 . S
C151 O152 1.258 . S
C151 O153 1.256 . S
O152 Cd144 2.381 . S
O152 C151 1.258 . S
O153 Cd144 2.378 . S
O153 C151 1.256 . S
O154 Cd155 2.300 . S
O154 C161 1.275 . S
Cd155 O154 2.300 . S
Cd155 O163 2.381 . S
Cd155 O164 2.378 . S
O156 Cd157 2.385 . S
O156 C161 1.255 . S
Cd157 O156 2.385 . S
Cd157 O158 2.317 . S
O158 Cd157 2.317 . S
O158 C159 1.232 . S
C159 O158 1.232 . S
C159 O160 1.218 . S
O160 C159 1.218 . S
C161 O154 1.275 . S
C161 O156 1.255 . S
C162 O163 1.258 . S
C162 O164 1.256 . S
O163 Cd155 2.381 . S
O163 C162 1.258 . S
O164 Cd155 2.378 . S
O164 C162 1.256 . S
O165 Cd166 2.300 . S
O165 C172 1.275 . S
Cd166 O165 2.300 . S
Cd166 O174 2.381 . S
Cd166 O175 2.378 1_556 S
O167 Cd168 2.385 1_556 S
O167 C172 1.255 . S
Cd168 O167 2.385 1_554 S
Cd168 O169 2.317 . S
O169 Cd168 2.317 . S
O169 C170 1.232 . S
C170 O169 1.232 . S
C170 O171 1.218 . S
O171 C170 1.218 . S
C172 O165 1.275 . S
C172 O167 1.255 . S
C173 O174 1.258 . S
C173 O175 1.256 1_556 S
O174 Cd166 2.381 . S
O174 C173 1.258 . S
O175 Cd166 2.378 1_554 S
O175 C173 1.256 1_554 S
Zn176 O179 2.031 . S
Zn176 O181 2.049 . S
Zn176 O186 2.067 1_554 S
Zn177 O178 1.962 . S
Zn177 O180 1.986 . S
Zn177 O182 1.996 . S
Zn177 O185 1.943 1_554 S
O178 Zn177 1.962 . S
O178 C183 1.254 . S
O179 Zn176 2.031 . S
O179 C183 1.269 . S
O180 Zn177 1.986 . S
O180 C187 1.262 . S
O181 Zn176 2.049 . S
O181 C189 1.260 . S
O182 Zn177 1.996 . S
O182 C189 1.257 . S
C183 O178 1.254 . S
C183 O179 1.269 . S
C184 O185 1.249 . S
C184 O186 1.270 . S
O185 Zn177 1.943 1_556 S
O185 C184 1.249 . S
O186 Zn176 2.067 1_556 S
O186 C184 1.270 . S
C187 O180 1.262 . S
C187 O188 1.232 . S
O188 C187 1.232 . S
C189 O181 1.260 . S
C189 O182 1.257 . S
Zn190 O193 2.031 . S
Zn190 O195 2.049 . S
Zn190 O200 2.067 . S
Zn191 O192 1.962 . S
Zn191 O194 1.986 . S
Zn191 O196 1.996 . S
Zn191 O199 1.943 . S
O192 Zn191 1.962 . S
O192 C197 1.254 . S
O193 Zn190 2.031 . S
O193 C197 1.269 . S
O194 Zn191 1.986 . S
O194 C201 1.262 . S
O195 Zn190 2.049 . S
O195 C203 1.260 . S
O196 Zn191 1.996 . S
O196 C203 1.257 . S
C197 O192 1.254 . S
C197 O193 1.269 . S
C198 O199 1.249 . S
C198 O200 1.270 . S
O199 Zn191 1.943 . S
O199 C198 1.249 . S
O200 Zn190 2.067 . S
O200 C198 1.270 . S
C201 O194 1.262 . S
C201 O202 1.232 . S
O202 C201 1.232 . S
C203 O195 1.260 . S
C203 O196 1.257 . S
Zn204 O207 2.031 1_556 S
Zn204 O209 2.049 . S
Zn204 O214 2.067 . S
Zn205 O206 1.962 . S
Zn205 O208 1.986 . S
Zn205 O210 1.996 1_554 S
Zn205 O213 1.943 . S
O206 Zn205 1.962 . S
O206 C211 1.254 . S
O207 Zn204 2.031 1_554 S
O207 C211 1.269 . S
O208 Zn205 1.986 . S
O208 C215 1.262 . S
O209 Zn204 2.049 . S
O209 C217 1.260 . S
O210 Zn205 1.996 1_556 S
O210 C217 1.257 . S
C211 O206 1.254 . S
C211 O207 1.269 . S
C212 O213 1.249 . S
C212 O214 1.270 1_554 S
O213 Zn205 1.943 . S
O213 C212 1.249 . S
O214 Zn204 2.067 . S
O214 C212 1.270 1_556 S
C215 O208 1.262 . S
C215 O216 1.232 . S
O216 C215 1.232 . S
C217 O209 1.260 . S
C217 O210 1.257 . S
Zn218 O221 2.031 . S
Zn218 O223 2.049 . S
Zn218 O228 2.067 1_545 S
Zn219 O220 1.962 . S
Zn219 O222 1.986 . S
Zn219 O224 1.996 . S
Zn219 O227 1.943 1_545 S
O220 Zn219 1.962 . S
O220 C225 1.254 . S
O221 Zn218 2.031 . S
O221 C225 1.269 . S
O222 Zn219 1.986 . S
O222 C229 1.262 . S
O223 Zn218 2.049 . S
O223 C231 1.260 . S
O224 Zn219 1.996 . S
O224 C231 1.257 . S
C225 O220 1.254 . S
C225 O221 1.269 . S
C226 O227 1.249 . S
C226 O228 1.270 . S
O227 Zn219 1.943 1_565 S
O227 C226 1.249 . S
O228 Zn218 2.067 1_565 S
O228 C226 1.270 . S
C229 O222 1.262 . S
C229 O230 1.232 . S
O230 C229 1.232 . S
C231 O223 1.260 . S
C231 O224 1.257 . S
Zn232 O235 2.031 . S
Zn232 O237 2.049 . S
Zn232 O242 2.067 . S
Zn233 O234 1.962 . S
Zn233 O236 1.986 . S
Zn233 O238 1.996 . S
Zn233 O241 1.943 . S
O234 Zn233 1.962 . S
O234 C239 1.254 . S
O235 Zn232 2.031 . S
O235 C239 1.269 . S
O236 Zn233 1.986 . S
O236 C243 1.262 . S
O237 Zn232 2.049 . S
O237 C245 1.260 . S
O238 Zn233 1.996 . S
O238 C245 1.257 . S
C239 O234 1.254 . S
C239 O235 1.269 . S
C240 O241 1.249 . S
C240 O242 1.270 . S
O241 Zn233 1.943 . S
O241 C240 1.249 . S
O242 Zn232 2.067 . S
O242 C240 1.270 . S
C243 O236 1.262 . S
C243 O244 1.232 . S
O244 C243 1.232 . S
C245 O237 1.260 . S
C245 O238 1.257 . S
Zn246 O249 2.031 . S
Zn246 O251 2.049 . S
Zn246 O256 2.067 . S
Zn247 O248 1.962 . S
Zn247 O250 1.986 . S
Zn247 O252 1.996 . S
Zn247 O255 1.943 . S
O248 Zn247 1.962 . S
O248 C253 1.254 . S
O249 Zn246 2.031 . S
O249 C253 1.269 . S
O250 Zn247 1.986 . S
O250 C257 1.262 . S
O251 Zn246 2.049 . S
O251 C259 1.260 . S
O252 Zn247 1.996 . S
O252 C259 1.257 . S
C253 O248 1.254 . S
C253 O249 1.269 . S
C254 O255 1.249 . S
C254 O256 1.270 . S
O255 Zn247 1.943 . S
O255 C254 1.249 . S
O256 Zn246 2.067 . S
O256 C254 1.270 . S
C257 O250 1.262 . S
C257 O258 1.232 . S
O258 C257 1.232 . S
C259 O251 1.260 . S
C259 O252 1.257 . S
Zn260 O263 2.031 . S
Zn260 O265 2.049 . S
Zn260 O270 2.067 . S
Zn261 O262 1.962 . S
Zn261 O264 1.986 . S
Zn261 O266 1.996 . S
Zn261 O269 1.943 . S
O262 Zn261 1.962 . S
O262 C267 1.254 . S
O263 Zn260 2.031 . S
O263 C267 1.269 . S
O264 Zn261 1.986 . S
O264 C271 1.262 . S
O265 Zn260 2.049 . S
O265 C273 1.260 . S
O266 Zn261 1.996 . S
O266 C273 1.257 . S
C267 O262 1.254 . S
C267 O263 1.269 . S
C268 O269 1.249 . S
C268 O270 1.270 . S
O269 Zn261 1.943 . S
O269 C268 1.249 . S
O270 Zn260 2.067 . S
O270 C268 1.270 . S
C271 O264 1.262 . S
C271 O272 1.232 . S
O272 C271 1.232 . S
C273 O265 1.260 . S
C273 O266 1.257 . S
Zn274 O277 2.031 . S
Zn274 O279 2.049 . S
Zn274 O284 2.067 . S
Zn275 O276 1.962 . S
Zn275 O278 1.986 . S
Zn275 O280 1.996 1_545 S
Zn275 O283 1.943 . S
O276 Zn275 1.962 . S
O276 C281 1.254 . S
O277 Zn274 2.031 . S
O277 C281 1.269 1_565 S
O278 Zn275 1.986 . S
O278 C285 1.262 . S
O279 Zn274 2.049 . S
O279 C287 1.260 . S
O280 Zn275 1.996 1_565 S
O280 C287 1.257 . S
C281 O276 1.254 . S
C281 O277 1.269 1_545 S
C282 O283 1.249 1_565 S
C282 O284 1.270 . S
O283 Zn275 1.943 . S
O283 C282 1.249 1_545 S
O284 Zn274 2.067 . S
O284 C282 1.270 . S
C285 O278 1.262 . S
C285 O286 1.232 . S
O286 C285 1.232 . S
C287 O279 1.260 . S
C287 O280 1.257 . S
Zn288 O291 2.031 . S
Zn288 O293 2.049 1_455 S
Zn288 O298 2.067 1_455 S
Zn289 O290 1.962 . S
Zn289 O292 1.986 . S
Zn289 O294 1.996 . S
Zn289 O297 1.943 1_455 S
O290 Zn289 1.962 . S
O290 C295 1.254 . S
O291 Zn288 2.031 . S
O291 C295 1.269 . S
O292 Zn289 1.986 . S
O292 C299 1.262 . S
O293 Zn288 2.049 1_655 S
O293 C301 1.260 1_655 S
O294 Zn289 1.996 . S
O294 C301 1.257 . S
C295 O290 1.254 . S
C295 O291 1.269 . S
C296 O297 1.249 . S
C296 O298 1.270 . S
O297 Zn289 1.943 1_655 S
O297 C296 1.249 . S
O298 Zn288 2.067 1_655 S
O298 C296 1.270 . S
C299 O292 1.262 . S
C299 O300 1.232 . S
O300 C299 1.232 . S
C301 O293 1.260 1_455 S
C301 O294 1.257 . S
Zn302 O305 2.031 . S
Zn302 O307 2.049 . S
Zn302 O312 2.067 . S
Zn303 O304 1.962 . S
Zn303 O306 1.986 . S
Zn303 O308 1.996 . S
Zn303 O311 1.943 . S
O304 Zn303 1.962 . S
O304 C309 1.254 . S
O305 Zn302 2.031 . S
O305 C309 1.269 . S
O306 Zn303 1.986 . S
O306 C313 1.262 . S
O307 Zn302 2.049 . S
O307 C315 1.260 . S
O308 Zn303 1.996 . S
O308 C315 1.257 . S
C309 O304 1.254 . S
C309 O305 1.269 . S
C310 O311 1.249 . S
C310 O312 1.270 . S
O311 Zn303 1.943 . S
O311 C310 1.249 . S
O312 Zn302 2.067 . S
O312 C310 1.270 . S
C313 O306 1.262 . S
C313 O314 1.232 . S
O314 C313 1.232 . S
C315 O307 1.260 . S
C315 O308 1.257 . S
Zn316 O319 2.031 1_655 S
Zn316 O321 2.049 . S
Zn316 O326 2.067 . S
Zn317 O318 1.962 . S
Zn317 O320 1.986 . S
Zn317 O322 1.996 1_455 S
Zn317 O325 1.943 . S
O318 Zn317 1.962 . S
O318 C323 1.254 . S
O319 Zn316 2.031 1_455 S
O319 C323 1.269 . S
O320 Zn317 1.986 . S
O320 C327 1.262 . S
O321 Zn316 2.049 . S
O321 C329 1.260 . S
O322 Zn317 1.996 1_655 S
O322 C329 1.257 . S
C323 O318 1.254 . S
C323 O319 1.269 . S
C324 O325 1.249 . S
C324 O326 1.270 1_455 S
O325 Zn317 1.943 . S
O325 C324 1.249 . S
O326 Zn316 2.067 . S
O326 C324 1.270 1_655 S
C327 O320 1.262 . S
C327 O328 1.232 . S
O328 C327 1.232 . S
C329 O321 1.260 . S
C329 O322 1.257 . S
Zn330 O333 2.031 . S
Zn330 O335 2.049 . S
Zn330 O340 2.067 . S
Zn331 O332 1.962 . S
Zn331 O334 1.986 . S
Zn331 O336 1.996 . S
Zn331 O339 1.943 . S
O332 Zn331 1.962 . S
O332 C337 1.254 . S
O333 Zn330 2.031 . S
O333 C337 1.269 . S
O334 Zn331 1.986 . S
O334 C341 1.262 . S
O335 Zn330 2.049 . S
O335 C343 1.260 . S
O336 Zn331 1.996 . S
O336 C343 1.257 . S
C337 O332 1.254 . S
C337 O333 1.269 . S
C338 O339 1.249 . S
C338 O340 1.270 . S
O339 Zn331 1.943 . S
O339 C338 1.249 . S
O340 Zn330 2.067 . S
O340 C338 1.270 . S
C341 O334 1.262 . S
C341 O342 1.232 . S
O342 C341 1.232 . S
C343 O335 1.260 . S
C343 O336 1.257 . S
C344 C345 1.391 . S
C344 C346 1.394 . S
C344 H360 0.931 . S
C345 C344 1.391 . S
C345 C349 1.376 . S
C346 C344 1.394 . S
C346 C347 1.369 . S
C346 C350 1.531 . S
C347 C346 1.369 . S
C347 C348 1.410 . S
C347 C355 1.503 . S
C348 C347 1.410 . S
C348 C349 1.392 . S
C348 C351 1.511 . S
C349 C345 1.376 . S
C349 C348 1.392 . S
C349 H361 0.929 . S
C350 C346 1.531 . S
C350 H362 0.960 . S
C350 H363 0.962 . S
C350 H364 0.960 . S
C351 C348 1.511 . S
C351 H365 0.961 . S
C351 H366 0.961 . S
C351 H367 0.961 . S
C352 C353 1.370 . S
C352 C354 1.363 . S
C352 H368 0.931 . S
C353 C352 1.370 . S
C353 C357 1.408 . S
C354 C352 1.363 . S
C354 C355 1.370 . S
C354 C358 1.524 . S
C355 C347 1.503 . S
C355 C354 1.370 . S
C355 C356 1.403 . S
C356 C355 1.403 . S
C356 C357 1.404 . S
C356 C359 1.539 . S
C357 C353 1.408 . S
C357 C356 1.404 . S
C357 H369 0.930 . S
C358 C354 1.524 . S
C358 H370 0.956 . S
C358 H371 0.961 . S
C358 H372 0.961 . S
C359 C356 1.539 . S
C359 H373 0.958 . S
C359 H374 0.961 . S
C359 H375 0.960 . S
H360 C344 0.931 . S
H361 C349 0.929 . S
H362 C350 0.960 . S
H363 C350 0.962 . S
H364 C350 0.960 . S
H365 C351 0.961 . S
H366 C351 0.961 . S
H367 C351 0.961 . S
H368 C352 0.931 . S
H369 C357 0.930 . S
H370 C358 0.956 . S
H371 C358 0.961 . S
H372 C358 0.961 . S
H373 C359 0.958 . S
H374 C359 0.961 . S
H375 C359 0.960 . S
C376 C377 1.391 . S
C376 C378 1.394 . S
C376 H392 0.931 1_455 S
C377 C376 1.391 . S
C377 C381 1.376 . S
C378 C376 1.394 . S
C378 C379 1.369 . S
C378 C382 1.531 . S
C379 C378 1.369 . S
C379 C380 1.410 . S
C379 C387 1.503 . S
C380 C379 1.410 . S
C380 C381 1.392 . S
C380 C383 1.511 . S
C381 C377 1.376 . S
C381 C380 1.392 . S
C381 H393 0.929 . S
C382 C378 1.531 . S
C382 H394 0.960 . S
C382 H395 0.962 . S
C382 H396 0.960 . S
C383 C380 1.511 . S
C383 H397 0.961 . S
C383 H398 0.961 . S
C383 H399 0.961 . S
C384 C385 1.370 . S
C384 C386 1.363 . S
C384 H400 0.931 . S
C385 C384 1.370 . S
C385 C389 1.408 . S
C386 C384 1.363 . S
C386 C387 1.370 . S
C386 C390 1.524 . S
C387 C379 1.503 . S
C387 C386 1.370 . S
C387 C388 1.403 . S
C388 C387 1.403 . S
C388 C389 1.404 . S
C388 C391 1.539 . S
C389 C385 1.408 . S
C389 C388 1.404 . S
C389 H401 0.930 . S
C390 C386 1.524 . S
C390 H402 0.956 . S
C390 H403 0.961 . S
C390 H404 0.961 . S
C391 C388 1.539 . S
C391 H405 0.958 . S
C391 H406 0.961 . S
C391 H407 0.960 . S
H392 C376 0.931 1_655 S
H393 C381 0.929 . S
H394 C382 0.960 . S
H395 C382 0.962 . S
H396 C382 0.960 . S
H397 C383 0.961 . S
H398 C383 0.961 . S
H399 C383 0.961 . S
H400 C384 0.931 . S
H401 C389 0.930 . S
H402 C390 0.956 . S
H403 C390 0.961 . S
H404 C390 0.961 . S
H405 C391 0.958 . S
H406 C391 0.961 . S
H407 C391 0.960 . S
C408 C409 1.391 . S
C408 C410 1.394 . S
C408 H424 0.931 . S
C409 C408 1.391 . S
C409 C413 1.376 . S
C410 C408 1.394 . S
C410 C411 1.369 . S
C410 C414 1.531 . S
C411 C410 1.369 . S
C411 C412 1.410 . S
C411 C419 1.503 . S
C412 C411 1.410 . S
C412 C413 1.392 . S
C412 C415 1.511 . S
C413 C409 1.376 . S
C413 C412 1.392 . S
C413 H425 0.929 . S
C414 C410 1.531 . S
C414 H426 0.960 . S
C414 H427 0.962 . S
C414 H428 0.960 . S
C415 C412 1.511 . S
C415 H429 0.961 . S
C415 H430 0.961 . S
C415 H431 0.961 . S
C416 C417 1.370 . S
C416 C418 1.363 . S
C416 H432 0.931 . S
C417 C416 1.370 . S
C417 C421 1.408 . S
C418 C416 1.363 . S
C418 C419 1.370 . S
C418 C422 1.524 . S
C419 C411 1.503 . S
C419 C418 1.370 . S
C419 C420 1.403 . S
C420 C419 1.403 . S
C420 C421 1.404 . S
C420 C423 1.539 . S
C421 C417 1.408 . S
C421 C420 1.404 . S
C421 H433 0.930 . S
C422 C418 1.524 . S
C422 H434 0.956 . S
C422 H435 0.961 . S
C422 H436 0.961 . S
C423 C420 1.539 . S
C423 H437 0.958 . S
C423 H438 0.961 . S
C423 H439 0.960 . S
H424 C408 0.931 . S
H425 C413 0.929 . S
H426 C414 0.960 . S
H427 C414 0.962 . S
H428 C414 0.960 . S
H429 C415 0.961 . S
H430 C415 0.961 . S
H431 C415 0.961 . S
H432 C416 0.931 . S
H433 C421 0.930 . S
H434 C422 0.956 . S
H435 C422 0.961 . S
H436 C422 0.961 . S
H437 C423 0.958 . S
H438 C423 0.961 . S
H439 C423 0.960 . S
C440 C441 1.368 1_655 S
C440 C442 1.412 . S
C440 H456 0.936 . S
C441 C440 1.368 1_455 S
C441 C445 1.376 . S
C442 C440 1.412 . S
C442 C443 1.369 . S
C442 C446 1.531 . S
C443 C442 1.369 . S
C443 C444 1.410 1_655 S
C443 C451 1.503 . S
C444 C443 1.410 1_455 S
C444 C445 1.392 . S
C444 C447 1.511 . S
C445 C441 1.376 . S
C445 C444 1.392 . S
C445 H457 0.929 . S
C446 C442 1.531 . S
C446 H458 0.960 1_565 S
C446 H459 0.962 . S
C446 H460 0.960 . S
C447 C444 1.511 . S
C447 H461 0.961 . S
C447 H462 0.961 1_455 S
C447 H463 0.961 1_565 S
C448 C449 1.370 1_565 S
C448 C450 1.363 . S
C448 H464 0.931 . S
C449 C448 1.370 1_545 S
C449 C453 1.408 . S
C450 C448 1.363 . S
C450 C451 1.370 . S
C450 C454 1.524 . S
C451 C443 1.503 . S
C451 C450 1.370 . S
C451 C452 1.403 1_565 S
C452 C451 1.403 1_545 S
C452 C453 1.404 . S
C452 C455 1.539 . S
C453 C449 1.408 . S
C453 C452 1.404 . S
C453 H465 0.930 . S
C454 C450 1.524 . S
C454 H466 0.956 . S
C454 H467 0.961 . S
C454 H468 0.961 . S
C455 C452 1.539 . S
C455 H469 0.958 . S
C455 H470 0.961 . S
C455 H471 0.960 . S
H456 C440 0.936 . S
H457 C445 0.929 . S
H458 C446 0.960 1_545 S
H459 C446 0.962 . S
H460 C446 0.960 . S
H461 C447 0.961 . S
H462 C447 0.961 1_655 S
H463 C447 0.961 1_545 S
H464 C448 0.931 . S
H465 C453 0.930 . S
H466 C454 0.956 . S
H467 C454 0.961 . S
H468 C454 0.961 . S
H469 C455 0.958 . S
H470 C455 0.961 . S
H471 C455 0.960 . S
C472 C473 1.391 . S
C472 C474 1.394 . S
C472 H488 0.931 . S
C473 C472 1.391 . S
C473 C477 1.376 . S
C474 C472 1.394 . S
C474 C475 1.369 . S
C474 C478 1.531 . S
C475 C474 1.369 . S
C475 C476 1.410 . S
C475 C483 1.503 . S
C476 C475 1.410 . S
C476 C477 1.392 . S
C476 C479 1.511 . S
C477 C473 1.376 . S
C477 C476 1.392 . S
C477 H489 0.929 . S
C478 C474 1.531 . S
C478 H490 0.960 . S
C478 H491 0.962 . S
C478 H492 0.960 . S
C479 C476 1.511 . S
C479 H493 0.961 . S
C479 H494 0.961 . S
C479 H495 0.961 . S
C480 C481 1.370 . S
C480 C482 1.363 . S
C480 H496 0.931 . S
C481 C480 1.370 . S
C481 C485 1.408 . S
C482 C480 1.363 . S
C482 C483 1.370 . S
C482 C486 1.524 . S
C483 C475 1.503 . S
C483 C482 1.370 . S
C483 C484 1.403 . S
C484 C483 1.403 . S
C484 C485 1.404 . S
C484 C487 1.539 . S
C485 C481 1.408 . S
C485 C484 1.404 . S
C485 H497 0.930 . S
C486 C482 1.524 . S
C486 H498 0.956 . S
C486 H499 0.961 . S
C486 H500 0.961 . S
C487 C484 1.539 . S
C487 H501 0.958 . S
C487 H502 0.961 . S
C487 H503 0.960 . S
H488 C472 0.931 . S
H489 C477 0.929 . S
H490 C478 0.960 . S
H491 C478 0.962 . S
H492 C478 0.960 . S
H493 C479 0.961 . S
H494 C479 0.961 . S
H495 C479 0.961 . S
H496 C480 0.931 . S
H497 C485 0.930 . S
H498 C486 0.956 . S
H499 C486 0.961 . S
H500 C486 0.961 . S
H501 C487 0.958 . S
H502 C487 0.961 . S
H503 C487 0.960 . S
C504 C505 1.391 . S
C504 C506 1.394 . S
C504 H520 0.931 . S
C505 C504 1.391 . S
C505 C509 1.376 . S
C506 C504 1.394 . S
C506 C507 1.369 . S
C506 C510 1.531 . S
C507 C506 1.369 . S
C507 C508 1.410 . S
C507 C515 1.503 . S
C508 C507 1.410 . S
C508 C509 1.392 . S
C508 C511 1.511 . S
C509 C505 1.376 . S
C509 C508 1.392 . S
C509 H521 0.929 . S
C510 C506 1.531 . S
C510 H522 0.960 . S
C510 H523 0.962 . S
C510 H524 0.960 . S
C511 C508 1.511 . S
C511 H525 0.961 . S
C511 H526 0.961 . S
C511 H527 0.961 . S
C512 C513 1.370 . S
C512 C514 1.363 . S
C512 H528 0.931 . S
C513 C512 1.370 . S
C513 C517 1.408 . S
C514 C512 1.363 . S
C514 C515 1.370 . S
C514 C518 1.524 . S
C515 C507 1.503 . S
C515 C514 1.370 . S
C515 C516 1.403 . S
C516 C515 1.403 . S
C516 C517 1.404 . S
C516 C519 1.539 . S
C517 C513 1.408 . S
C517 C516 1.404 . S
C517 H529 0.930 . S
C518 C514 1.524 . S
C518 H530 0.956 . S
C518 H531 0.961 . S
C518 H532 0.961 . S
C519 C516 1.539 . S
C519 H533 0.958 . S
C519 H534 0.961 . S
C519 H535 0.960 . S
H520 C504 0.931 . S
H521 C509 0.929 . S
H522 C510 0.960 . S
H523 C510 0.962 . S
H524 C510 0.960 . S
H525 C511 0.961 . S
H526 C511 0.961 . S
H527 C511 0.961 . S
H528 C512 0.931 . S
H529 C517 0.930 . S
H530 C518 0.956 . S
H531 C518 0.961 . S
H532 C518 0.961 . S
H533 C519 0.958 . S
H534 C519 0.961 . S
H535 C519 0.960 . S
C536 C537 1.391 . S
C536 C538 1.394 . S
C536 H552 0.931 . S
C537 C536 1.391 . S
C537 C541 1.376 . S
C538 C536 1.394 . S
C538 C539 1.369 . S
C538 C542 1.531 . S
C539 C538 1.369 . S
C539 C540 1.410 . S
C539 C547 1.503 . S
C540 C539 1.410 . S
C540 C541 1.392 . S
C540 C543 1.511 . S
C541 C537 1.376 . S
C541 C540 1.392 . S
C541 H553 0.929 . S
C542 C538 1.531 . S
C542 H554 0.960 . S
C542 H555 0.962 . S
C542 H556 0.960 . S
C543 C540 1.511 . S
C543 H557 0.961 . S
C543 H558 0.961 . S
C543 H559 0.961 . S
C544 C545 1.370 . S
C544 C546 1.363 . S
C544 H560 0.931 . S
C545 C544 1.370 . S
C545 C549 1.408 . S
C546 C544 1.363 . S
C546 C547 1.370 . S
C546 C550 1.524 . S
C547 C539 1.503 . S
C547 C546 1.370 . S
C547 C548 1.403 . S
C548 C547 1.403 . S
C548 C549 1.404 . S
C548 C551 1.539 . S
C549 C545 1.408 . S
C549 C548 1.404 . S
C549 H561 0.930 . S
C550 C546 1.524 . S
C550 H562 0.956 . S
C550 H563 0.961 . S
C550 H564 0.961 . S
C551 C548 1.539 . S
C551 H565 0.958 . S
C551 H566 0.961 . S
C551 H567 0.960 . S
H552 C536 0.931 . S
H553 C541 0.929 . S
H554 C542 0.960 . S
H555 C542 0.962 . S
H556 C542 0.960 . S
H557 C543 0.961 . S
H558 C543 0.961 . S
H559 C543 0.961 . S
H560 C544 0.931 . S
H561 C549 0.930 . S
H562 C550 0.956 . S
H563 C550 0.961 . S
H564 C550 0.961 . S
H565 C551 0.958 . S
H566 C551 0.961 . S
H567 C551 0.960 . S
C568 C569 1.391 . S
C568 C570 1.394 . S
C568 H584 0.931 . S
C569 C568 1.391 . S
C569 C573 1.376 . S
C570 C568 1.394 . S
C570 C571 1.369 . S
C570 C574 1.531 . S
C571 C570 1.369 . S
C571 C572 1.410 . S
C571 C579 1.503 . S
C572 C571 1.410 . S
C572 C573 1.392 . S
C572 C575 1.511 . S
C573 C569 1.376 . S
C573 C572 1.392 . S
C573 H585 0.929 . S
C574 C570 1.531 . S
C574 H586 0.960 . S
C574 H587 0.962 . S
C574 H588 0.960 . S
C575 C572 1.511 . S
C575 H589 0.961 . S
C575 H590 0.961 . S
C575 H591 0.961 1_565 S
C576 C577 1.370 . S
C576 C578 1.363 . S
C576 H592 0.931 . S
C577 C576 1.370 . S
C577 C581 1.408 1_565 S
C578 C576 1.363 . S
C578 C579 1.370 . S
C578 C582 1.524 . S
C579 C571 1.503 . S
C579 C578 1.370 . S
C579 C580 1.403 1_565 S
C580 C579 1.403 1_545 S
C580 C581 1.404 . S
C580 C583 1.539 . S
C581 C577 1.408 1_545 S
C581 C580 1.404 . S
C581 H593 0.930 . S
C582 C578 1.524 . S
C582 H594 0.956 . S
C582 H595 0.961 . S
C582 H596 0.961 . S
C583 C580 1.539 . S
C583 H597 0.958 . S
C583 H598 0.961 . S
C583 H599 0.960 . S
H584 C568 0.931 . S
H585 C573 0.929 . S
H586 C574 0.960 . S
H587 C574 0.962 . S
H588 C574 0.960 . S
H589 C575 0.961 . S
H590 C575 0.961 . S
H591 C575 0.961 1_545 S
H592 C576 0.931 . S
H593 C581 0.930 . S
H594 C582 0.956 . S
H595 C582 0.961 . S
H596 C582 0.961 . S
H597 C583 0.958 . S
H598 C583 0.961 . S
H599 C583 0.960 . S
C600 C601 1.391 . S
C600 C602 1.394 . S
C600 H616 0.931 . S
C601 C600 1.391 . S
C601 C605 1.376 . S
C602 C600 1.394 . S
C602 C603 1.369 . S
C602 C606 1.531 . S
C603 C602 1.369 . S
C603 C604 1.410 . S
C603 C611 1.503 . S
C604 C603 1.410 . S
C604 C605 1.392 . S
C604 C607 1.511 . S
C605 C601 1.376 . S
C605 C604 1.392 . S
C605 H617 0.929 . S
C606 C602 1.531 . S
C606 H618 0.960 . S
C606 H619 0.962 . S
C606 H620 0.960 . S
C607 C604 1.511 . S
C607 H621 0.961 . S
C607 H622 0.961 . S
C607 H623 0.961 . S
C608 C609 1.370 . S
C608 C610 1.363 . S
C608 H624 0.931 . S
C609 C608 1.370 . S
C609 C613 1.408 . S
C610 C608 1.363 . S
C610 C611 1.370 . S
C610 C614 1.524 . S
C611 C603 1.503 . S
C611 C610 1.370 . S
C611 C612 1.403 . S
C612 C611 1.403 . S
C612 C613 1.404 . S
C612 C615 1.539 . S
C613 C609 1.408 . S
C613 C612 1.404 . S
C613 H625 0.930 . S
C614 C610 1.524 . S
C614 H626 0.956 . S
C614 H627 0.961 . S
C614 H628 0.961 . S
C615 C612 1.539 . S
C615 H629 0.958 . S
C615 H630 0.961 . S
C615 H631 0.960 . S
H616 C600 0.931 . S
H617 C605 0.929 . S
H618 C606 0.960 . S
H619 C606 0.962 . S
H620 C606 0.960 . S
H621 C607 0.961 . S
H622 C607 0.961 . S
H623 C607 0.961 . S
H624 C608 0.931 . S
H625 C613 0.930 . S
H626 C614 0.956 . S
H627 C614 0.961 . S
H628 C614 0.961 . S
H629 C615 0.958 . S
H630 C615 0.961 . S
H631 C615 0.960 . S
C632 C633 1.391 . S
C632 C634 1.394 . S
C632 H648 0.931 . S
C633 C632 1.391 . S
C633 C637 1.376 . S
C634 C632 1.394 . S
C634 C635 1.369 . S
C634 C638 1.531 . S
C635 C634 1.369 . S
C635 C636 1.410 . S
C635 C643 1.503 . S
C636 C635 1.410 . S
C636 C637 1.392 . S
C636 C639 1.511 . S
C637 C633 1.376 . S
C637 C636 1.392 . S
C637 H649 0.929 . S
C638 C634 1.531 . S
C638 H650 0.960 . S
C638 H651 0.962 . S
C638 H652 0.960 . S
C639 C636 1.511 . S
C639 H653 0.961 . S
C639 H654 0.961 . S
C639 H655 0.961 . S
C640 C641 1.370 . S
C640 C642 1.363 . S
C640 H656 0.931 . S
C641 C640 1.370 . S
C641 C645 1.408 . S
C642 C640 1.363 . S
C642 C643 1.370 . S
C642 C646 1.524 . S
C643 C635 1.503 . S
C643 C642 1.370 . S
C643 C644 1.403 . S
C644 C643 1.403 . S
C644 C645 1.404 . S
C644 C647 1.539 . S
C645 C641 1.408 . S
C645 C644 1.404 . S
C645 H657 0.930 . S
C646 C642 1.524 . S
C646 H658 0.956 . S
C646 H659 0.961 . S
C646 H660 0.961 . S
C647 C644 1.539 . S
C647 H661 0.958 . S
C647 H662 0.961 . S
C647 H663 0.960 . S
H648 C632 0.931 . S
H649 C637 0.929 . S
H650 C638 0.960 . S
H651 C638 0.962 . S
H652 C638 0.960 . S
H653 C639 0.961 . S
H654 C639 0.961 . S
H655 C639 0.961 . S
H656 C640 0.931 . S
H657 C645 0.930 . S
H658 C646 0.956 . S
H659 C646 0.961 . S
H660 C646 0.961 . S
H661 C647 0.958 . S
H662 C647 0.961 . S
H663 C647 0.960 . S
C664 C665 1.391 . S
C664 C666 1.394 . S
C664 H680 0.931 . S
C665 C664 1.391 . S
C665 C669 1.376 . S
C666 C664 1.394 . S
C666 C667 1.369 . S
C666 C670 1.531 . S
C667 C666 1.369 . S
C667 C668 1.410 . S
C667 C675 1.503 . S
C668 C667 1.410 . S
C668 C669 1.392 . S
C668 C671 1.511 . S
C669 C665 1.376 . S
C669 C668 1.392 . S
C669 H681 0.929 . S
C670 C666 1.531 . S
C670 H682 0.960 . S
C670 H683 0.962 . S
C670 H684 0.960 . S
C671 C668 1.511 . S
C671 H685 0.961 . S
C671 H686 0.961 . S
C671 H687 0.961 . S
C672 C673 1.370 . S
C672 C674 1.363 . S
C672 H688 0.931 . S
C673 C672 1.370 . S
C673 C677 1.408 . S
C674 C672 1.363 . S
C674 C675 1.370 . S
C674 C678 1.524 . S
C675 C667 1.503 . S
C675 C674 1.370 . S
C675 C676 1.403 . S
C676 C675 1.403 . S
C676 C677 1.404 . S
C676 C679 1.539 . S
C677 C673 1.408 . S
C677 C676 1.404 . S
C677 H689 0.930 . S
C678 C674 1.524 . S
C678 H690 0.956 . S
C678 H691 0.961 . S
C678 H692 0.961 . S
C679 C676 1.539 . S
C679 H693 0.958 . S
C679 H694 0.961 . S
C679 H695 0.960 . S
H680 C664 0.931 . S
H681 C669 0.929 . S
H682 C670 0.960 . S
H683 C670 0.962 . S
H684 C670 0.960 . S
H685 C671 0.961 . S
H686 C671 0.961 . S
H687 C671 0.961 . S
H688 C672 0.931 . S
H689 C677 0.930 . S
H690 C678 0.956 . S
H691 C678 0.961 . S
H692 C678 0.961 . S
H693 C679 0.958 . S
H694 C679 0.961 . S
H695 C679 0.960 . S
C696 C697 1.391 . S
C696 C698 1.394 . S
C696 H712 0.931 . S
C697 C696 1.391 . S
C697 C701 1.376 . S
C698 C696 1.394 . S
C698 C699 1.369 . S
C698 C702 1.531 . S
C699 C698 1.369 . S
C699 C700 1.410 . S
C699 C707 1.503 . S
C700 C699 1.410 . S
C700 C701 1.392 . S
C700 C703 1.511 . S
C701 C697 1.376 . S
C701 C700 1.392 . S
C701 H713 0.929 . S
C702 C698 1.531 . S
C702 H714 0.960 . S
C702 H715 0.962 . S
C702 H716 0.960 . S
C703 C700 1.511 . S
C703 H717 0.961 . S
C703 H718 0.961 . S
C703 H719 0.961 . S
C704 C705 1.370 . S
C704 C706 1.363 . S
C704 H720 0.931 . S
C705 C704 1.370 . S
C705 C709 1.408 . S
C706 C704 1.363 . S
C706 C707 1.370 . S
C706 C710 1.524 . S
C707 C699 1.503 . S
C707 C706 1.370 . S
C707 C708 1.403 . S
C708 C707 1.403 . S
C708 C709 1.404 . S
C708 C711 1.539 . S
C709 C705 1.408 . S
C709 C708 1.404 . S
C709 H721 0.930 . S
C710 C706 1.524 . S
C710 H722 0.956 . S
C710 H723 0.961 . S
C710 H724 0.961 . S
C711 C708 1.539 . S
C711 H725 0.958 . S
C711 H726 0.961 . S
C711 H727 0.960 . S
H712 C696 0.931 . S
H713 C701 0.929 . S
H714 C702 0.960 . S
H715 C702 0.962 . S
H716 C702 0.960 . S
H717 C703 0.961 . S
H718 C703 0.961 . S
H719 C703 0.961 . S
H720 C704 0.931 . S
H721 C709 0.930 . S
H722 C710 0.956 . S
H723 C710 0.961 . S
H724 C710 0.961 . S
H725 C711 0.958 . S
H726 C711 0.961 . S
H727 C711 0.960 . S
C728 C729 1.391 . S
C728 C730 1.394 . S
C728 H744 0.931 . S
C729 C728 1.391 . S
C729 C733 1.376 . S
C730 C728 1.394 . S
C730 C731 1.369 . S
C730 C734 1.531 . S
C731 C730 1.369 . S
C731 C732 1.410 . S
C731 C739 1.503 . S
C732 C731 1.410 . S
C732 C733 1.392 . S
C732 C735 1.511 . S
C733 C729 1.376 . S
C733 C732 1.392 . S
C733 H745 0.929 . S
C734 C730 1.531 . S
C734 H746 0.960 . S
C734 H747 0.962 . S
C734 H748 0.960 . S
C735 C732 1.511 . S
C735 H749 0.961 . S
C735 H750 0.961 . S
C735 H751 0.961 . S
C736 C737 1.370 . S
C736 C738 1.363 . S
C736 H752 0.931 . S
C737 C736 1.370 . S
C737 C741 1.408 . S
C738 C736 1.363 . S
C738 C739 1.370 . S
C738 C742 1.524 . S
C739 C731 1.503 . S
C739 C738 1.370 . S
C739 C740 1.403 . S
C740 C739 1.403 . S
C740 C741 1.404 . S
C740 C743 1.539 . S
C741 C737 1.408 . S
C741 C740 1.404 . S
C741 H753 0.930 . S
C742 C738 1.524 . S
C742 H754 0.956 . S
C742 H755 0.961 . S
C742 H756 0.961 . S
C743 C740 1.539 . S
C743 H757 0.958 . S
C743 H758 0.961 . S
C743 H759 0.960 . S
H744 C728 0.931 . S
H745 C733 0.929 . S
H746 C734 0.960 . S
H747 C734 0.962 . S
H748 C734 0.960 . S
H749 C735 0.961 . S
H750 C735 0.961 . S
H751 C735 0.961 . S
H752 C736 0.931 . S
H753 C741 0.930 . S
H754 C742 0.956 . S
H755 C742 0.961 . S
H756 C742 0.961 . S
H757 C743 0.958 . S
H758 C743 0.961 . S
H759 C743 0.960 . S
C760 C761 1.391 . S
C760 C762 1.394 . S
C760 H776 0.931 . S
C761 C760 1.391 . S
C761 C765 1.376 . S
C762 C760 1.394 . S
C762 C763 1.369 . S
C762 C766 1.531 . S
C763 C762 1.369 . S
C763 C764 1.410 . S
C763 C771 1.503 . S
C764 C763 1.410 . S
C764 C765 1.392 . S
C764 C767 1.511 . S
C765 C761 1.376 . S
C765 C764 1.392 . S
C765 H777 0.929 . S
C766 C762 1.531 . S
C766 H778 0.960 . S
C766 H779 0.962 . S
C766 H780 0.960 . S
C767 C764 1.511 . S
C767 H781 0.961 . S
C767 H782 0.961 . S
C767 H783 0.961 . S
C768 C769 1.370 . S
C768 C770 1.363 . S
C768 H784 0.931 . S
C769 C768 1.370 . S
C769 C773 1.408 . S
C770 C768 1.363 . S
C770 C771 1.370 . S
C770 C774 1.524 . S
C771 C763 1.503 . S
C771 C770 1.370 . S
C771 C772 1.403 . S
C772 C771 1.403 . S
C772 C773 1.404 . S
C772 C775 1.539 . S
C773 C769 1.408 . S
C773 C772 1.404 . S
C773 H785 0.930 . S
C774 C770 1.524 . S
C774 H786 0.956 . S
C774 H787 0.961 . S
C774 H788 0.961 1_455 S
C775 C772 1.539 . S
C775 H789 0.958 . S
C775 H790 0.961 . S
C775 H791 0.960 . S
H776 C760 0.931 . S
H777 C765 0.929 . S
H778 C766 0.960 . S
H779 C766 0.962 . S
H780 C766 0.960 . S
H781 C767 0.961 . S
H782 C767 0.961 . S
H783 C767 0.961 . S
H784 C768 0.931 . S
H785 C773 0.930 . S
H786 C774 0.956 . S
H787 C774 0.961 . S
H788 C774 0.961 1_655 S
H789 C775 0.958 . S
H790 C775 0.961 . S
H791 C775 0.960 . S
C792 C793 1.391 . S
C792 C794 1.394 . S
C792 H808 0.931 . S
C793 C792 1.391 . S
C793 C797 1.376 . S
C794 C792 1.394 . S
C794 C795 1.369 . S
C794 C798 1.531 . S
C795 C794 1.369 . S
C795 C796 1.410 . S
C795 C803 1.503 . S
C796 C795 1.410 . S
C796 C797 1.392 . S
C796 C799 1.511 . S
C797 C793 1.376 . S
C797 C796 1.392 . S
C797 H809 0.929 . S
C798 C794 1.531 . S
C798 H810 0.960 . S
C798 H811 0.962 . S
C798 H812 0.960 . S
C799 C796 1.511 . S
C799 H813 0.961 . S
C799 H814 0.961 . S
C799 H815 0.961 . S
C800 C801 1.370 . S
C800 C802 1.363 . S
C800 H816 0.931 . S
C801 C800 1.370 . S
C801 C805 1.408 . S
C802 C800 1.363 . S
C802 C803 1.370 . S
C802 C806 1.524 . S
C803 C795 1.503 . S
C803 C802 1.370 . S
C803 C804 1.403 . S
C804 C803 1.403 . S
C804 C805 1.404 . S
C804 C807 1.539 . S
C805 C801 1.408 . S
C805 C804 1.404 . S
C805 H817 0.930 . S
C806 C802 1.524 . S
C806 H818 0.956 . S
C806 H819 0.961 . S
C806 H820 0.961 . S
C807 C804 1.539 . S
C807 H821 0.958 . S
C807 H822 0.961 . S
C807 H823 0.960 . S
H808 C792 0.931 . S
H809 C797 0.929 . S
H810 C798 0.960 . S
H811 C798 0.962 . S
H812 C798 0.960 . S
H813 C799 0.961 . S
H814 C799 0.961 . S
H815 C799 0.961 . S
H816 C800 0.931 . S
H817 C805 0.930 . S
H818 C806 0.956 . S
H819 C806 0.961 . S
H820 C806 0.961 . S
H821 C807 0.958 . S
H822 C807 0.961 . S
H823 C807 0.960 . S
C824 C825 1.391 1_455 S
C824 C826 1.394 . S
C824 H840 0.931 . S
C825 C824 1.391 1_655 S
C825 C829 1.376 . S
C826 C824 1.394 . S
C826 C827 1.369 1_455 S
C826 C830 1.531 . S
C827 C826 1.369 1_655 S
C827 C828 1.410 . S
C827 C835 1.503 . S
C828 C827 1.410 . S
C828 C829 1.392 . S
C828 C831 1.511 . S
C829 C825 1.376 . S
C829 C828 1.392 . S
C829 H841 0.929 . S
C830 C826 1.531 . S
C830 H842 0.960 . S
C830 H843 0.962 . S
C830 H844 0.960 . S
C831 C828 1.511 . S
C831 H845 0.961 . S
C831 H846 0.961 . S
C831 H847 0.961 . S
C832 C833 1.370 . S
C832 C834 1.363 . S
C832 H848 0.931 . S
C833 C832 1.370 . S
C833 C837 1.408 1_455 S
C834 C832 1.363 . S
C834 C835 1.370 1_455 S
C834 C838 1.524 . S
C835 C827 1.503 . S
C835 C834 1.370 1_655 S
C835 C836 1.403 . S
C836 C835 1.403 . S
C836 C837 1.404 . S
C836 C839 1.539 . S
C837 C833 1.408 1_655 S
C837 C836 1.404 . S
C837 H849 0.930 . S
C838 C834 1.524 . S
C838 H850 0.956 . S
C838 H851 0.961 . S
C838 H852 0.961 . S
C839 C836 1.539 . S
C839 H853 0.958 . S
C839 H854 0.961 . S
C839 H855 0.960 . S
H840 C824 0.931 . S
H841 C829 0.929 . S
H842 C830 0.960 . S
H843 C830 0.962 . S
H844 C830 0.960 . S
H845 C831 0.961 . S
H846 C831 0.961 . S
H847 C831 0.961 . S
H848 C832 0.931 . S
H849 C837 0.930 . S
H850 C838 0.956 . S
H851 C838 0.961 . S
H852 C838 0.961 . S
H853 C839 0.958 . S
H854 C839 0.961 . S
H855 C839 0.960 . S
C856 C857 1.391 . S
C856 C858 1.394 . S
C856 H872 0.931 . S
C857 C856 1.391 . S
C857 C861 1.376 . S
C858 C856 1.394 . S
C858 C859 1.369 . S
C858 C862 1.531 . S
C859 C858 1.369 . S
C859 C860 1.410 . S
C859 C867 1.503 . S
C860 C859 1.410 . S
C860 C861 1.392 . S
C860 C863 1.511 . S
C861 C857 1.376 . S
C861 C860 1.392 . S
C861 H873 0.929 . S
C862 C858 1.531 . S
C862 H874 0.960 . S
C862 H875 0.962 . S
C862 H876 0.960 . S
C863 C860 1.511 . S
C863 H877 0.961 . S
C863 H878 0.961 . S
C863 H879 0.961 . S
C864 C865 1.370 . S
C864 C866 1.363 . S
C864 H880 0.931 . S
C865 C864 1.370 . S
C865 C869 1.408 . S
C866 C864 1.363 . S
C866 C867 1.370 . S
C866 C870 1.524 . S
C867 C859 1.503 . S
C867 C866 1.370 . S
C867 C868 1.403 . S
C868 C867 1.403 . S
C868 C869 1.404 . S
C868 C871 1.539 . S
C869 C865 1.408 . S
C869 C868 1.404 . S
C869 H881 0.930 . S
C870 C866 1.524 . S
C870 H882 0.956 . S
C870 H883 0.961 . S
C870 H884 0.961 . S
C871 C868 1.539 . S
C871 H885 0.958 . S
C871 H886 0.961 . S
C871 H887 0.960 . S
H872 C856 0.931 . S
H873 C861 0.929 . S
H874 C862 0.960 . S
H875 C862 0.962 . S
H876 C862 0.960 . S
H877 C863 0.961 . S
H878 C863 0.961 . S
H879 C863 0.961 . S
H880 C864 0.931 . S
H881 C869 0.930 . S
H882 C870 0.956 . S
H883 C870 0.961 . S
H884 C870 0.961 . S
H885 C871 0.958 . S
H886 C871 0.961 . S
H887 C871 0.960 . S
C888 C889 1.391 . S
C888 C890 1.394 . S
C888 H904 0.931 . S
C889 C888 1.391 . S
C889 C893 1.376 . S
C890 C888 1.394 . S
C890 C891 1.369 . S
C890 C894 1.531 . S
C891 C890 1.369 . S
C891 C892 1.410 . S
C891 C899 1.503 . S
C892 C891 1.410 . S
C892 C893 1.392 . S
C892 C895 1.511 . S
C893 C889 1.376 . S
C893 C892 1.392 . S
C893 H905 0.929 . S
C894 C890 1.531 . S
C894 H906 0.960 . S
C894 H907 0.962 . S
C894 H908 0.960 . S
C895 C892 1.511 . S
C895 H909 0.961 . S
C895 H910 0.961 . S
C895 H911 0.961 . S
C896 C897 1.370 . S
C896 C898 1.363 . S
C896 H912 0.931 . S
C897 C896 1.370 . S
C897 C901 1.408 . S
C898 C896 1.363 . S
C898 C899 1.370 . S
C898 C902 1.524 . S
C899 C891 1.503 . S
C899 C898 1.370 . S
C899 C900 1.403 . S
C900 C899 1.403 . S
C900 C901 1.404 . S
C900 C903 1.539 . S
C901 C897 1.408 . S
C901 C900 1.404 . S
C901 H913 0.930 . S
C902 C898 1.524 . S
C902 H914 0.956 . S
C902 H915 0.961 . S
C902 H916 0.961 . S
C903 C900 1.539 . S
C903 H917 0.958 . S
C903 H918 0.961 . S
C903 H919 0.960 . S
H904 C888 0.931 . S
H905 C893 0.929 . S
H906 C894 0.960 . S
H907 C894 0.962 . S
H908 C894 0.960 . S
H909 C895 0.961 . S
H910 C895 0.961 . S
H911 C895 0.961 . S
H912 C896 0.931 . S
H913 C901 0.930 . S
H914 C902 0.956 . S
H915 C902 0.961 . S
H916 C902 0.961 . S
H917 C903 0.958 . S
H918 C903 0.961 . S
H919 C903 0.960 . S
C920 C921 1.391 . S
C920 C922 1.394 . S
C920 H936 0.931 . S
C921 C920 1.391 . S
C921 C925 1.376 1_565 S
C922 C920 1.394 . S
C922 C923 1.369 . S
C922 C926 1.531 . S
C923 C922 1.369 . S
C923 C924 1.410 . S
C923 C931 1.501 1_556 S
C924 C923 1.410 . S
C924 C925 1.392 1_565 S
C924 C927 1.511 1_556 S
C925 C921 1.376 1_545 S
C925 C924 1.392 1_545 S
C925 H937 0.929 . S
C926 C922 1.531 . S
C926 H938 0.960 1_556 S
C926 H939 0.962 . S
C926 H940 0.960 . S
C927 C924 1.511 1_554 S
C927 H941 0.961 1_564 S
C927 H942 0.959 1_554 S
C927 H943 0.961 . S
C928 C929 1.370 1_556 S
C928 C930 1.363 . S
C928 H944 0.931 . S
C929 C928 1.370 1_554 S
C929 C933 1.408 . S
C930 C928 1.363 . S
C930 C931 1.362 1_556 S
C930 C934 1.524 . S
C931 C923 1.501 1_554 S
C931 C930 1.362 1_554 S
C931 C932 1.414 . S
C932 C931 1.414 . S
C932 C933 1.404 . S
C932 C935 1.539 . S
C933 C929 1.408 . S
C933 C932 1.404 . S
C933 H945 0.930 . S
C934 C930 1.524 . S
C934 H946 0.956 . S
C934 H947 0.961 . S
C934 H948 0.961 . S
C935 C932 1.539 . S
C935 H949 0.958 . S
C935 H950 0.961 . S
C935 H951 0.960 . S
H936 C920 0.931 . S
H937 C925 0.929 . S
H938 C926 0.960 1_554 S
H939 C926 0.962 . S
H940 C926 0.960 . S
H941 C927 0.961 1_546 S
H942 C927 0.959 1_556 S
H943 C927 0.961 . S
H944 C928 0.931 . S
H945 C933 0.930 . S
H946 C934 0.956 . S
H947 C934 0.961 . S
H948 C934 0.961 . S
H949 C935 0.958 . S
H950 C935 0.961 . S
H951 C935 0.960 . S
C952 C953 1.391 . S
C952 C954 1.394 . S
C952 H968 0.931 . S
C953 C952 1.391 . S
C953 C957 1.376 . S
C954 C952 1.394 . S
C954 C955 1.369 . S
C954 C958 1.531 . S
C955 C954 1.369 . S
C955 C956 1.410 . S
C955 C963 1.503 . S
C956 C955 1.410 . S
C956 C957 1.392 . S
C956 C959 1.511 . S
C957 C953 1.376 . S
C957 C956 1.392 . S
C957 H969 0.929 . S
C958 C954 1.531 . S
C958 H970 0.960 . S
C958 H971 0.962 . S
C958 H972 0.960 . S
C959 C956 1.511 . S
C959 H973 0.961 . S
C959 H974 0.961 . S
C959 H975 0.961 . S
C960 C961 1.370 . S
C960 C962 1.363 . S
C960 H976 0.931 . S
C961 C960 1.370 . S
C961 C965 1.408 . S
C962 C960 1.363 . S
C962 C963 1.370 . S
C962 C966 1.524 . S
C963 C955 1.503 . S
C963 C962 1.370 . S
C963 C964 1.403 . S
C964 C963 1.403 . S
C964 C965 1.404 . S
C964 C967 1.539 . S
C965 C961 1.408 . S
C965 C964 1.404 . S
C965 H977 0.930 . S
C966 C962 1.524 . S
C966 H978 0.956 . S
C966 H979 0.961 . S
C966 H980 0.961 . S
C967 C964 1.539 . S
C967 H981 0.958 . S
C967 H982 0.961 . S
C967 H983 0.960 . S
H968 C952 0.931 . S
H969 C957 0.929 . S
H970 C958 0.960 . S
H971 C958 0.962 . S
H972 C958 0.960 . S
H973 C959 0.961 . S
H974 C959 0.961 . S
H975 C959 0.961 . S
H976 C960 0.931 . S
H977 C965 0.930 . S
H978 C966 0.956 . S
H979 C966 0.961 . S
H980 C966 0.961 . S
H981 C967 0.958 . S
H982 C967 0.961 . S
H983 C967 0.960 . S
C984 C985 1.388 1_565 S
C984 C986 1.394 1_565 S
C984 H1000 0.931 . S
C985 C984 1.388 1_545 S
C985 C989 1.395 . S
C986 C984 1.394 1_545 S
C986 C987 1.369 . S
C986 C990 1.531 . S
C987 C986 1.369 . S
C987 C988 1.410 . S
C987 C995 1.503 . S
C988 C987 1.410 . S
C988 C989 1.392 . S
C988 C991 1.511 . S
C989 C985 1.395 . S
C989 C988 1.392 . S
C989 H1001 0.929 . S
C990 C986 1.531 . S
C990 H1002 0.960 . S
C990 H1003 0.962 . S
C990 H1004 0.960 . S
C991 C988 1.511 . S
C991 H1005 0.961 . S
C991 H1006 0.961 . S
C991 H1007 0.961 . S
C992 C993 1.370 . S
C992 C994 1.363 . S
C992 H1008 0.931 . S
C993 C992 1.370 . S
C993 C997 1.408 . S
C994 C992 1.363 . S
C994 C995 1.370 . S
C994 C998 1.524 . S
C995 C987 1.503 . S
C995 C994 1.370 . S
C995 C996 1.403 . S
C996 C995 1.403 . S
C996 C997 1.404 . S
C996 C999 1.539 . S
C997 C993 1.408 . S
C997 C996 1.404 . S
C997 H1009 0.930 . S
C998 C994 1.524 . S
C998 H1010 0.956 . S
C998 H1011 0.961 . S
C998 H1012 0.961 . S
C999 C996 1.539 . S
C999 H1013 0.958 . S
C999 H1014 0.961 . S
C999 H1015 0.960 . S
H1000 C984 0.931 . S
H1001 C989 0.929 . S
H1002 C990 0.960 . S
H1003 C990 0.962 . S
H1004 C990 0.960 . S
H1005 C991 0.961 . S
H1006 C991 0.961 . S
H1007 C991 0.961 . S
H1008 C992 0.931 . S
H1009 C997 0.930 . S
H1010 C998 0.956 . S
H1011 C998 0.961 . S
H1012 C998 0.961 . S
H1013 C999 0.958 . S
H1014 C999 0.961 . S
H1015 C999 0.960 . S
C1016 C1017 1.391 . S
C1016 C1018 1.394 . S
C1016 H1032 0.931 . S
C1017 C1016 1.391 . S
C1017 C1021 1.376 . S
C1018 C1016 1.394 . S
C1018 C1019 1.369 . S
C1018 C1022 1.531 . S
C1019 C1018 1.369 . S
C1019 C1020 1.410 . S
C1019 C1027 1.503 . S
C1020 C1019 1.410 . S
C1020 C1021 1.392 . S
C1020 C1023 1.511 . S
C1021 C1017 1.376 . S
C1021 C1020 1.392 . S
C1021 H1033 0.929 . S
C1022 C1018 1.531 . S
C1022 H1034 0.960 . S
C1022 H1035 0.962 . S
C1022 H1036 0.960 . S
C1023 C1020 1.511 . S
C1023 H1037 0.961 . S
C1023 H1038 0.961 . S
C1023 H1039 0.961 . S
C1024 C1025 1.370 . S
C1024 C1026 1.363 . S
C1024 H1040 0.931 . S
C1025 C1024 1.370 . S
C1025 C1029 1.408 . S
C1026 C1024 1.363 . S
C1026 C1027 1.370 . S
C1026 C1030 1.524 . S
C1027 C1019 1.503 . S
C1027 C1026 1.370 . S
C1027 C1028 1.403 . S
C1028 C1027 1.403 . S
C1028 C1029 1.404 . S
C1028 C1031 1.539 . S
C1029 C1025 1.408 . S
C1029 C1028 1.404 . S
C1029 H1041 0.930 . S
C1030 C1026 1.524 . S
C1030 H1042 0.956 . S
C1030 H1043 0.961 . S
C1030 H1044 0.961 . S
C1031 C1028 1.539 . S
C1031 H1045 0.958 . S
C1031 H1046 0.961 . S
C1031 H1047 0.960 . S
H1032 C1016 0.931 . S
H1033 C1021 0.929 . S
H1034 C1022 0.960 . S
H1035 C1022 0.962 . S
H1036 C1022 0.960 . S
H1037 C1023 0.961 . S
H1038 C1023 0.961 . S
H1039 C1023 0.961 . S
H1040 C1024 0.931 . S
H1041 C1029 0.930 . S
H1042 C1030 0.956 . S
H1043 C1030 0.961 . S
H1044 C1030 0.961 . S
H1045 C1031 0.958 . S
H1046 C1031 0.961 . S
H1047 C1031 0.960 . S
C1048 C1049 1.391 . S
C1048 C1050 1.394 . S
C1048 H1064 0.931 . S
C1049 C1048 1.391 . S
C1049 C1053 1.376 . S
C1050 C1048 1.394 . S
C1050 C1051 1.369 . S
C1050 C1054 1.531 . S
C1051 C1050 1.369 . S
C1051 C1052 1.410 . S
C1051 C1059 1.503 . S
C1052 C1051 1.410 . S
C1052 C1053 1.392 . S
C1052 C1055 1.511 . S
C1053 C1049 1.376 . S
C1053 C1052 1.392 . S
C1053 H1065 0.929 . S
C1054 C1050 1.531 . S
C1054 H1066 0.960 . S
C1054 H1067 0.962 . S
C1054 H1068 0.960 . S
C1055 C1052 1.511 . S
C1055 H1069 0.961 . S
C1055 H1070 0.961 . S
C1055 H1071 0.961 . S
C1056 C1057 1.370 . S
C1056 C1058 1.363 . S
C1056 H1072 0.931 . S
C1057 C1056 1.370 . S
C1057 C1061 1.408 . S
C1058 C1056 1.363 . S
C1058 C1059 1.370 . S
C1058 C1062 1.524 . S
C1059 C1051 1.503 . S
C1059 C1058 1.370 . S
C1059 C1060 1.403 . S
C1060 C1059 1.403 . S
C1060 C1061 1.404 . S
C1060 C1063 1.539 . S
C1061 C1057 1.408 . S
C1061 C1060 1.404 . S
C1061 H1073 0.930 . S
C1062 C1058 1.524 . S
C1062 H1074 0.956 . S
C1062 H1075 0.961 . S
C1062 H1076 0.961 . S
C1063 C1060 1.539 . S
C1063 H1077 0.958 . S
C1063 H1078 0.961 . S
C1063 H1079 0.960 . S
H1064 C1048 0.931 . S
H1065 C1053 0.929 . S
H1066 C1054 0.960 . S
H1067 C1054 0.962 . S
H1068 C1054 0.960 . S
H1069 C1055 0.961 . S
H1070 C1055 0.961 . S
H1071 C1055 0.961 . S
H1072 C1056 0.931 . S
H1073 C1061 0.930 . S
H1074 C1062 0.956 . S
H1075 C1062 0.961 . S
H1076 C1062 0.961 . S
H1077 C1063 0.958 . S
H1078 C1063 0.961 . S
H1079 C1063 0.960 . S
C1080 C1081 1.391 . S
C1080 C1082 1.394 . S
C1080 H1096 0.931 . S
C1081 C1080 1.391 . S
C1081 C1085 1.376 . S
C1082 C1080 1.394 . S
C1082 C1083 1.369 . S
C1082 C1086 1.531 . S
C1083 C1082 1.369 . S
C1083 C1084 1.410 . S
C1083 C1091 1.503 . S
C1084 C1083 1.410 . S
C1084 C1085 1.392 . S
C1084 C1087 1.511 . S
C1085 C1081 1.376 . S
C1085 C1084 1.392 . S
C1085 H1097 0.929 . S
C1086 C1082 1.531 . S
C1086 H1098 0.960 . S
C1086 H1099 0.962 . S
C1086 H1100 0.960 . S
C1087 C1084 1.511 . S
C1087 H1101 0.961 . S
C1087 H1102 0.961 . S
C1087 H1103 0.961 . S
C1088 C1089 1.370 . S
C1088 C1090 1.363 . S
C1088 H1104 0.931 . S
C1089 C1088 1.370 . S
C1089 C1093 1.408 . S
C1090 C1088 1.363 . S
C1090 C1091 1.370 . S
C1090 C1094 1.524 . S
C1091 C1083 1.503 . S
C1091 C1090 1.370 . S
C1091 C1092 1.403 . S
C1092 C1091 1.403 . S
C1092 C1093 1.404 . S
C1092 C1095 1.539 . S
C1093 C1089 1.408 . S
C1093 C1092 1.404 . S
C1093 H1105 0.930 . S
C1094 C1090 1.524 . S
C1094 H1106 0.956 . S
C1094 H1107 0.961 . S
C1094 H1108 0.961 . S
C1095 C1092 1.539 . S
C1095 H1109 0.958 . S
C1095 H1110 0.961 . S
C1095 H1111 0.960 . S
H1096 C1080 0.931 . S
H1097 C1085 0.929 . S
H1098 C1086 0.960 . S
H1099 C1086 0.962 . S
H1100 C1086 0.960 . S
H1101 C1087 0.961 . S
H1102 C1087 0.961 . S
H1103 C1087 0.961 . S
H1104 C1088 0.931 . S
H1105 C1093 0.930 . S
H1106 C1094 0.956 . S
H1107 C1094 0.961 . S
H1108 C1094 0.961 . S
H1109 C1095 0.958 . S
H1110 C1095 0.961 . S
H1111 C1095 0.960 . S
C1112 C1113 1.391 . S
C1112 C1114 1.394 . S
C1112 H1128 0.931 . S
C1113 C1112 1.391 . S
C1113 C1117 1.376 . S
C1114 C1112 1.394 . S
C1114 C1115 1.369 . S
C1114 C1118 1.531 . S
C1115 C1114 1.369 . S
C1115 C1116 1.410 . S
C1115 C1123 1.503 . S
C1116 C1115 1.410 . S
C1116 C1117 1.392 . S
C1116 C1119 1.511 . S
C1117 C1113 1.376 . S
C1117 C1116 1.392 . S
C1117 H1129 0.929 . S
C1118 C1114 1.531 . S
C1118 H1130 0.960 . S
C1118 H1131 0.962 . S
C1118 H1132 0.960 . S
C1119 C1116 1.511 . S
C1119 H1133 0.961 . S
C1119 H1134 0.961 . S
C1119 H1135 0.961 . S
C1120 C1121 1.370 . S
C1120 C1122 1.363 . S
C1120 H1136 0.931 . S
C1121 C1120 1.370 . S
C1121 C1125 1.408 . S
C1122 C1120 1.363 . S
C1122 C1123 1.370 . S
C1122 C1126 1.524 . S
C1123 C1115 1.503 . S
C1123 C1122 1.370 . S
C1123 C1124 1.403 . S
C1124 C1123 1.403 . S
C1124 C1125 1.404 . S
C1124 C1127 1.539 . S
C1125 C1121 1.408 . S
C1125 C1124 1.404 . S
C1125 H1137 0.930 . S
C1126 C1122 1.524 . S
C1126 H1138 0.956 . S
C1126 H1139 0.961 . S
C1126 H1140 0.961 . S
C1127 C1124 1.539 . S
C1127 H1141 0.958 . S
C1127 H1142 0.961 . S
C1127 H1143 0.960 . S
H1128 C1112 0.931 . S
H1129 C1117 0.929 . S
H1130 C1118 0.960 . S
H1131 C1118 0.962 . S
H1132 C1118 0.960 . S
H1133 C1119 0.961 . S
H1134 C1119 0.961 . S
H1135 C1119 0.961 . S
H1136 C1120 0.931 . S
H1137 C1125 0.930 . S
H1138 C1126 0.956 . S
H1139 C1126 0.961 . S
H1140 C1126 0.961 . S
H1141 C1127 0.958 . S
H1142 C1127 0.961 . S
H1143 C1127 0.960 . S
C1144 C1145 1.391 . S
C1144 C1146 1.394 . S
C1144 H1160 0.931 . S
C1145 C1144 1.391 . S
C1145 C1149 1.376 . S
C1146 C1144 1.394 . S
C1146 C1147 1.369 . S
C1146 C1150 1.531 . S
C1147 C1146 1.369 . S
C1147 C1148 1.410 . S
C1147 C1155 1.503 . S
C1148 C1147 1.410 . S
C1148 C1149 1.392 . S
C1148 C1151 1.511 1_545 S
C1149 C1145 1.376 . S
C1149 C1148 1.392 . S
C1149 H1161 0.929 . S
C1150 C1146 1.531 . S
C1150 H1162 0.960 . S
C1150 H1163 0.962 . S
C1150 H1164 0.960 . S
C1151 C1148 1.511 1_565 S
C1151 H1165 0.961 . S
C1151 H1166 0.961 . S
C1151 H1167 0.961 . S
C1152 C1153 1.370 . S
C1152 C1154 1.363 . S
C1152 H1168 0.931 . S
C1153 C1152 1.370 . S
C1153 C1157 1.408 . S
C1154 C1152 1.363 . S
C1154 C1155 1.370 . S
C1154 C1158 1.524 . S
C1155 C1147 1.503 . S
C1155 C1154 1.370 . S
C1155 C1156 1.403 . S
C1156 C1155 1.403 . S
C1156 C1157 1.404 . S
C1156 C1159 1.539 . S
C1157 C1153 1.408 . S
C1157 C1156 1.404 . S
C1157 H1169 0.930 . S
C1158 C1154 1.524 . S
C1158 H1170 0.956 . S
C1158 H1171 0.961 . S
C1158 H1172 0.961 . S
C1159 C1156 1.539 . S
C1159 H1173 0.958 . S
C1159 H1174 0.961 1_545 S
C1159 H1175 0.960 . S
H1160 C1144 0.931 . S
H1161 C1149 0.929 . S
H1162 C1150 0.960 . S
H1163 C1150 0.962 . S
H1164 C1150 0.960 . S
H1165 C1151 0.961 . S
H1166 C1151 0.961 . S
H1167 C1151 0.961 . S
H1168 C1152 0.931 . S
H1169 C1157 0.930 . S
H1170 C1158 0.956 . S
H1171 C1158 0.961 . S
H1172 C1158 0.961 . S
H1173 C1159 0.958 . S
H1174 C1159 0.961 1_565 S
H1175 C1159 0.960 . S
C1176 C1177 1.391 . S
C1176 C1178 1.394 . S
C1176 H1192 0.931 . S
C1177 C1176 1.391 . S
C1177 C1181 1.376 . S
C1178 C1176 1.394 . S
C1178 C1179 1.369 . S
C1178 C1182 1.531 . S
C1179 C1178 1.369 . S
C1179 C1180 1.410 . S
C1179 C1187 1.503 . S
C1180 C1179 1.410 . S
C1180 C1181 1.392 . S
C1180 C1183 1.511 . S
C1181 C1177 1.376 . S
C1181 C1180 1.392 . S
C1181 H1193 0.929 . S
C1182 C1178 1.531 . S
C1182 H1194 0.960 . S
C1182 H1195 0.962 . S
C1182 H1196 0.960 . S
C1183 C1180 1.511 . S
C1183 H1197 0.961 . S
C1183 H1198 0.961 . S
C1183 H1199 0.961 . S
C1184 C1185 1.370 . S
C1184 C1186 1.363 . S
C1184 H1200 0.931 . S
C1185 C1184 1.370 . S
C1185 C1189 1.408 . S
C1186 C1184 1.363 . S
C1186 C1187 1.370 . S
C1186 C1190 1.524 . S
C1187 C1179 1.503 . S
C1187 C1186 1.370 . S
C1187 C1188 1.403 . S
C1188 C1187 1.403 . S
C1188 C1189 1.404 . S
C1188 C1191 1.539 . S
C1189 C1185 1.408 . S
C1189 C1188 1.404 . S
C1189 H1201 0.930 . S
C1190 C1186 1.524 . S
C1190 H1202 0.956 . S
C1190 H1203 0.961 . S
C1190 H1204 0.961 . S
C1191 C1188 1.539 . S
C1191 H1205 0.958 . S
C1191 H1206 0.961 . S
C1191 H1207 0.960 . S
H1192 C1176 0.931 . S
H1193 C1181 0.929 . S
H1194 C1182 0.960 . S
H1195 C1182 0.962 . S
H1196 C1182 0.960 . S
H1197 C1183 0.961 . S
H1198 C1183 0.961 . S
H1199 C1183 0.961 . S
H1200 C1184 0.931 . S
H1201 C1189 0.930 . S
H1202 C1190 0.956 . S
H1203 C1190 0.961 . S
H1204 C1190 0.961 . S
H1205 C1191 0.958 . S
H1206 C1191 0.961 . S
H1207 C1191 0.960 . S
C1208 C1209 1.391 . S
C1208 C1210 1.394 . S
C1208 H1224 0.931 . S
C1209 C1208 1.391 . S
C1209 C1213 1.376 . S
C1210 C1208 1.394 . S
C1210 C1211 1.369 . S
C1210 C1214 1.531 . S
C1211 C1210 1.369 . S
C1211 C1212 1.410 . S
C1211 C1219 1.503 . S
C1212 C1211 1.410 . S
C1212 C1213 1.392 . S
C1212 C1215 1.511 . S
C1213 C1209 1.376 . S
C1213 C1212 1.392 . S
C1213 H1225 0.929 . S
C1214 C1210 1.531 . S
C1214 H1226 0.960 . S
C1214 H1227 0.962 . S
C1214 H1228 0.960 . S
C1215 C1212 1.511 . S
C1215 H1229 0.961 . S
C1215 H1230 0.961 . S
C1215 H1231 0.961 . S
C1216 C1217 1.370 . S
C1216 C1218 1.363 . S
C1216 H1232 0.931 . S
C1217 C1216 1.370 . S
C1217 C1221 1.408 . S
C1218 C1216 1.363 . S
C1218 C1219 1.370 . S
C1218 C1222 1.524 . S
C1219 C1211 1.503 . S
C1219 C1218 1.370 . S
C1219 C1220 1.403 . S
C1220 C1219 1.403 . S
C1220 C1221 1.404 . S
C1220 C1223 1.539 . S
C1221 C1217 1.408 . S
C1221 C1220 1.404 . S
C1221 H1233 0.930 . S
C1222 C1218 1.524 . S
C1222 H1234 0.956 . S
C1222 H1235 0.961 . S
C1222 H1236 0.961 . S
C1223 C1220 1.539 . S
C1223 H1237 0.958 . S
C1223 H1238 0.961 . S
C1223 H1239 0.960 . S
H1224 C1208 0.931 . S
H1225 C1213 0.929 . S
H1226 C1214 0.960 . S
H1227 C1214 0.962 . S
H1228 C1214 0.960 . S
H1229 C1215 0.961 . S
H1230 C1215 0.961 . S
H1231 C1215 0.961 . S
H1232 C1216 0.931 . S
H1233 C1221 0.930 . S
H1234 C1222 0.956 . S
H1235 C1222 0.961 . S
H1236 C1222 0.961 . S
H1237 C1223 0.958 . S
H1238 C1223 0.961 . S
H1239 C1223 0.960 . S
C1240 C1241 1.391 . S
C1240 C1242 1.394 . S
C1240 H1256 0.931 . S
C1241 C1240 1.391 . S
C1241 C1245 1.376 . S
C1242 C1240 1.394 . S
C1242 C1243 1.369 . S
C1242 C1246 1.531 . S
C1243 C1242 1.369 . S
C1243 C1244 1.410 . S
C1243 C1251 1.503 . S
C1244 C1243 1.410 . S
C1244 C1245 1.392 . S
C1244 C1247 1.511 . S
C1245 C1241 1.376 . S
C1245 C1244 1.392 . S
C1245 H1257 0.929 . S
C1246 C1242 1.531 . S
C1246 H1258 0.960 . S
C1246 H1259 0.962 . S
C1246 H1260 0.960 . S
C1247 C1244 1.511 . S
C1247 H1261 0.961 . S
C1247 H1262 0.961 . S
C1247 H1263 0.961 . S
C1248 C1249 1.370 . S
C1248 C1250 1.363 . S
C1248 H1264 0.931 . S
C1249 C1248 1.370 . S
C1249 C1253 1.408 . S
C1250 C1248 1.363 . S
C1250 C1251 1.370 . S
C1250 C1254 1.524 . S
C1251 C1243 1.503 . S
C1251 C1250 1.370 . S
C1251 C1252 1.403 . S
C1252 C1251 1.403 . S
C1252 C1253 1.404 . S
C1252 C1255 1.539 . S
C1253 C1249 1.408 . S
C1253 C1252 1.404 . S
C1253 H1265 0.930 . S
C1254 C1250 1.524 . S
C1254 H1266 0.956 . S
C1254 H1267 0.961 . S
C1254 H1268 0.961 . S
C1255 C1252 1.539 . S
C1255 H1269 0.958 . S
C1255 H1270 0.961 . S
C1255 H1271 0.960 . S
H1256 C1240 0.931 . S
H1257 C1245 0.929 . S
H1258 C1246 0.960 . S
H1259 C1246 0.962 . S
H1260 C1246 0.960 . S
H1261 C1247 0.961 . S
H1262 C1247 0.961 . S
H1263 C1247 0.961 . S
H1264 C1248 0.931 . S
H1265 C1253 0.930 . S
H1266 C1254 0.956 . S
H1267 C1254 0.961 . S
H1268 C1254 0.961 . S
H1269 C1255 0.958 . S
H1270 C1255 0.961 . S
H1271 C1255 0.960 . S
C1272 C1273 1.391 . S
C1272 C1274 1.394 . S
C1272 H1288 0.931 . S
C1273 C1272 1.391 . S
C1273 C1277 1.376 . S
C1274 C1272 1.394 . S
C1274 C1275 1.369 . S
C1274 C1278 1.531 . S
C1275 C1274 1.369 . S
C1275 C1276 1.410 . S
C1275 C1283 1.503 . S
C1276 C1275 1.410 . S
C1276 C1277 1.392 . S
C1276 C1279 1.511 1_545 S
C1277 C1273 1.376 . S
C1277 C1276 1.392 . S
C1277 H1289 0.929 . S
C1278 C1274 1.531 . S
C1278 H1290 0.960 . S
C1278 H1291 0.962 . S
C1278 H1292 0.960 . S
C1279 C1276 1.511 1_565 S
C1279 H1293 0.961 . S
C1279 H1294 0.961 . S
C1279 H1295 0.961 1_565 S
C1280 C1281 1.370 . S
C1280 C1282 1.363 . S
C1280 H1296 0.931 . S
C1281 C1280 1.370 . S
C1281 C1285 1.408 . S
C1282 C1280 1.363 . S
C1282 C1283 1.370 . S
C1282 C1286 1.524 . S
C1283 C1275 1.503 . S
C1283 C1282 1.370 . S
C1283 C1284 1.403 . S
C1284 C1283 1.403 . S
C1284 C1285 1.404 . S
C1284 C1287 1.539 . S
C1285 C1281 1.408 . S
C1285 C1284 1.404 . S
C1285 H1297 0.930 . S
C1286 C1282 1.524 . S
C1286 H1298 0.956 . S
C1286 H1299 0.961 1_545 S
C1286 H1300 0.961 1_545 S
C1287 C1284 1.539 . S
C1287 H1301 0.958 . S
C1287 H1302 0.961 . S
C1287 H1303 0.960 . S
H1288 C1272 0.931 . S
H1289 C1277 0.929 . S
H1290 C1278 0.960 . S
H1291 C1278 0.962 . S
H1292 C1278 0.960 . S
H1293 C1279 0.961 . S
H1294 C1279 0.961 . S
H1295 C1279 0.961 1_545 S
H1296 C1280 0.931 . S
H1297 C1285 0.930 . S
H1298 C1286 0.956 . S
H1299 C1286 0.961 1_565 S
H1300 C1286 0.961 1_565 S
H1301 C1287 0.958 . S
H1302 C1287 0.961 . S
H1303 C1287 0.960 . S
C1304 C1305 1.391 . S
C1304 C1306 1.394 . S
C1304 H1320 0.931 . S
C1305 C1304 1.391 . S
C1305 C1309 1.376 . S
C1306 C1304 1.394 . S
C1306 C1307 1.369 . S
C1306 C1310 1.531 . S
C1307 C1306 1.369 . S
C1307 C1308 1.410 . S
C1307 C1315 1.503 . S
C1308 C1307 1.410 . S
C1308 C1309 1.392 . S
C1308 C1311 1.511 . S
C1309 C1305 1.376 . S
C1309 C1308 1.392 . S
C1309 H1321 0.929 . S
C1310 C1306 1.531 . S
C1310 H1322 0.960 . S
C1310 H1323 0.962 . S
C1310 H1324 0.960 . S
C1311 C1308 1.511 . S
C1311 H1325 0.961 . S
C1311 H1326 0.961 . S
C1311 H1327 0.961 . S
C1312 C1313 1.370 . S
C1312 C1314 1.363 . S
C1312 H1328 0.931 . S
C1313 C1312 1.370 . S
C1313 C1317 1.408 . S
C1314 C1312 1.363 . S
C1314 C1315 1.370 . S
C1314 C1318 1.524 . S
C1315 C1307 1.503 . S
C1315 C1314 1.370 . S
C1315 C1316 1.403 . S
C1316 C1315 1.403 . S
C1316 C1317 1.404 . S
C1316 C1319 1.539 . S
C1317 C1313 1.408 . S
C1317 C1316 1.404 . S
C1317 H1329 0.930 . S
C1318 C1314 1.524 . S
C1318 H1330 0.956 . S
C1318 H1331 0.961 . S
C1318 H1332 0.961 . S
C1319 C1316 1.539 . S
C1319 H1333 0.958 . S
C1319 H1334 0.961 . S
C1319 H1335 0.960 . S
H1320 C1304 0.931 . S
H1321 C1309 0.929 . S
H1322 C1310 0.960 . S
H1323 C1310 0.962 . S
H1324 C1310 0.960 . S
H1325 C1311 0.961 . S
H1326 C1311 0.961 . S
H1327 C1311 0.961 . S
H1328 C1312 0.931 . S
H1329 C1317 0.930 . S
H1330 C1318 0.956 . S
H1331 C1318 0.961 . S
H1332 C1318 0.961 . S
H1333 C1319 0.958 . S
H1334 C1319 0.961 . S
H1335 C1319 0.960 . S
C1336 C1337 1.391 1_455 S
C1336 C1338 1.394 . S
C1336 H1352 0.931 . S
C1337 C1336 1.391 1_655 S
C1337 C1341 1.376 . S
C1338 C1336 1.394 . S
C1338 C1339 1.369 . S
C1338 C1342 1.531 . S
C1339 C1338 1.369 . S
C1339 C1340 1.410 . S
C1339 C1347 1.503 . S
C1340 C1339 1.410 . S
C1340 C1341 1.392 1_455 S
C1340 C1343 1.506 1_455 S
C1341 C1337 1.376 . S
C1341 C1340 1.392 1_655 S
C1341 H1353 0.929 . S
C1342 C1338 1.531 . S
C1342 H1354 0.960 . S
C1342 H1355 0.962 . S
C1342 H1356 0.960 . S
C1343 C1340 1.506 1_655 S
C1343 H1357 0.974 . S
C1343 H1358 0.931 1_655 S
C1343 H1359 0.984 . S
C1344 C1345 1.370 . S
C1344 C1346 1.363 . S
C1344 H1360 0.931 . S
C1345 C1344 1.370 . S
C1345 C1349 1.408 . S
C1346 C1344 1.363 . S
C1346 C1347 1.370 . S
C1346 C1350 1.524 . S
C1347 C1339 1.503 . S
C1347 C1346 1.370 . S
C1347 C1348 1.403 . S
C1348 C1347 1.403 . S
C1348 C1349 1.404 . S
C1348 C1351 1.539 . S
C1349 C1345 1.408 . S
C1349 C1348 1.404 . S
C1349 H1361 0.930 . S
C1350 C1346 1.524 . S
C1350 H1362 0.956 . S
C1350 H1363 0.961 . S
C1350 H1364 0.961 . S
C1351 C1348 1.539 . S
C1351 H1365 0.958 . S
C1351 H1366 0.961 . S
C1351 H1367 0.960 . S
H1352 C1336 0.931 . S
H1353 C1341 0.929 . S
H1354 C1342 0.960 . S
H1355 C1342 0.962 . S
H1356 C1342 0.960 . S
H1357 C1343 0.974 . S
H1358 C1343 0.931 1_455 S
H1359 C1343 0.984 . S
H1360 C1344 0.931 . S
H1361 C1349 0.930 . S
H1362 C1350 0.956 . S
H1363 C1350 0.961 . S
H1364 C1350 0.961 . S
H1365 C1351 0.958 . S
H1366 C1351 0.961 . S
H1367 C1351 0.960 . S
C1368 C1369 1.391 . S
C1368 C1370 1.394 . S
C1368 H1384 0.931 . S
C1369 C1368 1.391 . S
C1369 C1373 1.376 . S
C1370 C1368 1.394 . S
C1370 C1371 1.369 . S
C1370 C1374 1.531 . S
C1371 C1370 1.369 . S
C1371 C1372 1.410 . S
C1371 C1379 1.503 . S
C1372 C1371 1.410 . S
C1372 C1373 1.392 . S
C1372 C1375 1.511 . S
C1373 C1369 1.376 . S
C1373 C1372 1.392 . S
C1373 H1385 0.929 . S
C1374 C1370 1.531 . S
C1374 H1386 0.960 . S
C1374 H1387 0.962 . S
C1374 H1388 0.960 . S
C1375 C1372 1.511 . S
C1375 H1389 0.961 . S
C1375 H1390 0.961 . S
C1375 H1391 0.961 . S
C1376 C1377 1.370 . S
C1376 C1378 1.363 . S
C1376 H1392 0.931 . S
C1377 C1376 1.370 . S
C1377 C1381 1.408 . S
C1378 C1376 1.363 . S
C1378 C1379 1.370 . S
C1378 C1382 1.524 . S
C1379 C1371 1.503 . S
C1379 C1378 1.370 . S
C1379 C1380 1.403 . S
C1380 C1379 1.403 . S
C1380 C1381 1.404 . S
C1380 C1383 1.539 . S
C1381 C1377 1.408 . S
C1381 C1380 1.404 . S
C1381 H1393 0.930 . S
C1382 C1378 1.524 . S
C1382 H1394 0.956 . S
C1382 H1395 0.961 . S
C1382 H1396 0.961 . S
C1383 C1380 1.539 . S
C1383 H1397 0.958 . S
C1383 H1398 0.961 . S
C1383 H1399 0.960 . S
H1384 C1368 0.931 . S
H1385 C1373 0.929 . S
H1386 C1374 0.960 . S
H1387 C1374 0.962 . S
H1388 C1374 0.960 . S
H1389 C1375 0.961 . S
H1390 C1375 0.961 . S
H1391 C1375 0.961 . S
H1392 C1376 0.931 . S
H1393 C1381 0.930 . S
H1394 C1382 0.956 . S
H1395 C1382 0.961 . S
H1396 C1382 0.961 . S
H1397 C1383 0.958 . S
H1398 C1383 0.961 . S
H1399 C1383 0.960 . S
C1400 C1401 1.391 . S
C1400 C1402 1.394 . S
C1400 H1416 0.931 . S
C1401 C1400 1.391 . S
C1401 C1405 1.376 . S
C1402 C1400 1.394 . S
C1402 C1403 1.369 . S
C1402 C1406 1.531 1_655 S
C1403 C1402 1.369 . S
C1403 C1404 1.410 . S
C1403 C1411 1.503 . S
C1404 C1403 1.410 . S
C1404 C1405 1.392 . S
C1404 C1407 1.511 . S
C1405 C1401 1.376 . S
C1405 C1404 1.392 . S
C1405 H1417 0.929 . S
C1406 C1402 1.531 1_455 S
C1406 H1418 0.960 . S
C1406 H1419 0.962 . S
C1406 H1420 0.960 . S
C1407 C1404 1.511 . S
C1407 H1421 0.961 . S
C1407 H1422 0.961 1_554 S
C1407 H1423 0.961 . S
C1408 C1409 1.370 1_455 S
C1408 C1410 1.333 1_456 S
C1408 H1424 0.931 . S
C1409 C1408 1.370 1_655 S
C1409 C1413 1.408 1_556 S
C1410 C1408 1.333 1_654 S
C1410 C1411 1.410 . S
C1410 C1414 1.516 1_654 S
C1411 C1403 1.503 . S
C1411 C1410 1.410 . S
C1411 C1412 1.403 . S
C1412 C1411 1.403 . S
C1412 C1413 1.404 . S
C1412 C1415 1.539 . S
C1413 C1409 1.408 1_554 S
C1413 C1412 1.404 . S
C1413 H1425 0.930 . S
C1414 C1410 1.516 1_456 S
C1414 H1426 0.956 1_556 S
C1414 H1427 0.961 1_455 S
C1414 H1428 0.961 . S
C1415 C1412 1.539 . S
C1415 H1429 0.958 . S
C1415 H1430 0.961 . S
C1415 H1431 0.960 . S
H1416 C1400 0.931 . S
H1417 C1405 0.929 . S
H1418 C1406 0.960 . S
H1419 C1406 0.962 . S
H1420 C1406 0.960 . S
H1421 C1407 0.961 . S
H1422 C1407 0.961 1_556 S
H1423 C1407 0.961 . S
H1424 C1408 0.931 . S
H1425 C1413 0.930 . S
H1426 C1414 0.956 1_554 S
H1427 C1414 0.961 1_655 S
H1428 C1414 0.961 . S
H1429 C1415 0.958 . S
H1430 C1415 0.961 . S
H1431 C1415 0.960 . S
C1432 C1433 1.391 . S
C1432 C1434 1.394 . S
C1432 H1448 0.931 . S
C1433 C1432 1.391 . S
C1433 C1437 1.376 . S
C1434 C1432 1.394 . S
C1434 C1435 1.369 . S
C1434 C1438 1.531 . S
C1435 C1434 1.369 . S
C1435 C1436 1.410 . S
C1435 C1443 1.503 . S
C1436 C1435 1.410 . S
C1436 C1437 1.392 . S
C1436 C1439 1.511 . S
C1437 C1433 1.376 . S
C1437 C1436 1.392 . S
C1437 H1449 0.929 . S
C1438 C1434 1.531 . S
C1438 H1450 0.960 . S
C1438 H1451 0.962 . S
C1438 H1452 0.960 . S
C1439 C1436 1.511 . S
C1439 H1453 0.961 . S
C1439 H1454 0.961 . S
C1439 H1455 0.961 . S
C1440 C1441 1.370 . S
C1440 C1442 1.363 . S
C1440 H1456 0.931 . S
C1441 C1440 1.370 . S
C1441 C1445 1.408 . S
C1442 C1440 1.363 . S
C1442 C1443 1.370 . S
C1442 C1446 1.524 . S
C1443 C1435 1.503 . S
C1443 C1442 1.370 . S
C1443 C1444 1.403 . S
C1444 C1443 1.403 . S
C1444 C1445 1.404 . S
C1444 C1447 1.539 . S
C1445 C1441 1.408 . S
C1445 C1444 1.404 . S
C1445 H1457 0.930 . S
C1446 C1442 1.524 . S
C1446 H1458 0.956 . S
C1446 H1459 0.961 . S
C1446 H1460 0.961 . S
C1447 C1444 1.539 . S
C1447 H1461 0.958 . S
C1447 H1462 0.961 . S
C1447 H1463 0.960 . S
H1448 C1432 0.931 . S
H1449 C1437 0.929 . S
H1450 C1438 0.960 . S
H1451 C1438 0.962 . S
H1452 C1438 0.960 . S
H1453 C1439 0.961 . S
H1454 C1439 0.961 . S
H1455 C1439 0.961 . S
H1456 C1440 0.931 . S
H1457 C1445 0.930 . S
H1458 C1446 0.956 . S
H1459 C1446 0.961 . S
H1460 C1446 0.961 . S
H1461 C1447 0.958 . S
H1462 C1447 0.961 . S
H1463 C1447 0.960 . S
C1464 C1465 1.391 . S
C1464 C1466 1.394 . S
C1464 H1480 0.931 . S
C1465 C1464 1.391 . S
C1465 C1469 1.376 . S
C1466 C1464 1.394 . S
C1466 C1467 1.369 . S
C1466 C1470 1.562 . S
C1467 C1466 1.369 . S
C1467 C1468 1.410 . S
C1467 C1475 1.503 . S
C1468 C1467 1.410 . S
C1468 C1469 1.392 . S
C1468 C1471 1.511 1_554 S
C1469 C1465 1.376 . S
C1469 C1468 1.392 . S
C1469 H1481 0.929 . S
C1470 C1466 1.562 . S
C1470 H1482 0.979 . S
C1470 H1483 0.918 1_455 S
C1470 H1484 0.958 . S
C1471 C1468 1.511 1_556 S
C1471 H1485 0.961 . S
C1471 H1486 0.961 . S
C1471 H1487 0.961 . S
C1472 C1473 1.370 . S
C1472 C1474 1.363 . S
C1472 H1488 0.931 1_455 S
C1473 C1472 1.370 . S
C1473 C1477 1.430 . S
C1474 C1472 1.363 . S
C1474 C1475 1.370 1_556 S
C1474 C1478 1.524 1_455 S
C1475 C1467 1.503 . S
C1475 C1474 1.370 1_554 S
C1475 C1476 1.403 . S
C1476 C1475 1.403 . S
C1476 C1477 1.389 1_554 S
C1476 C1479 1.539 . S
C1477 C1473 1.430 . S
C1477 C1476 1.389 1_556 S
C1477 H1489 0.924 1_556 S
C1478 C1474 1.524 1_655 S
C1478 H1490 0.956 . S
C1478 H1491 0.961 . S
C1478 H1492 0.961 . S
C1479 C1476 1.539 . S
C1479 H1493 0.958 . S
C1479 H1494 0.961 . S
C1479 H1495 0.960 . S
H1480 C1464 0.931 . S
H1481 C1469 0.929 . S
H1482 C1470 0.979 . S
H1483 C1470 0.918 1_655 S
H1484 C1470 0.958 . S
H1485 C1471 0.961 . S
H1486 C1471 0.961 . S
H1487 C1471 0.961 . S
H1488 C1472 0.931 1_655 S
H1489 C1477 0.924 1_554 S
H1490 C1478 0.956 . S
H1491 C1478 0.961 . S
H1492 C1478 0.961 . S
H1493 C1479 0.958 . S
H1494 C1479 0.961 . S
H1495 C1479 0.960 . S
C1496 C1497 1.391 . S
C1496 C1498 1.394 . S
C1496 H1512 0.931 . S
C1497 C1496 1.391 . S
C1497 C1501 1.376 . S
C1498 C1496 1.394 . S
C1498 C1499 1.369 . S
C1498 C1502 1.531 . S
C1499 C1498 1.369 . S
C1499 C1500 1.410 . S
C1499 C1507 1.503 . S
C1500 C1499 1.410 . S
C1500 C1501 1.392 . S
C1500 C1503 1.511 . S
C1501 C1497 1.376 . S
C1501 C1500 1.392 . S
C1501 H1513 0.929 . S
C1502 C1498 1.531 . S
C1502 H1514 0.960 . S
C1502 H1515 0.962 . S
C1502 H1516 0.960 . S
C1503 C1500 1.511 . S
C1503 H1517 0.961 . S
C1503 H1518 0.961 . S
C1503 H1519 0.961 . S
C1504 C1505 1.370 . S
C1504 C1506 1.363 . S
C1504 H1520 0.931 . S
C1505 C1504 1.370 . S
C1505 C1509 1.408 . S
C1506 C1504 1.363 . S
C1506 C1507 1.370 . S
C1506 C1510 1.524 . S
C1507 C1499 1.503 . S
C1507 C1506 1.370 . S
C1507 C1508 1.403 . S
C1508 C1507 1.403 . S
C1508 C1509 1.404 . S
C1508 C1511 1.539 . S
C1509 C1505 1.408 . S
C1509 C1508 1.404 . S
C1509 H1521 0.930 . S
C1510 C1506 1.524 . S
C1510 H1522 0.956 . S
C1510 H1523 0.961 . S
C1510 H1524 0.961 . S
C1511 C1508 1.539 . S
C1511 H1525 0.958 . S
C1511 H1526 0.961 . S
C1511 H1527 0.960 . S
H1512 C1496 0.931 . S
H1513 C1501 0.929 . S
H1514 C1502 0.960 . S
H1515 C1502 0.962 . S
H1516 C1502 0.960 . S
H1517 C1503 0.961 . S
H1518 C1503 0.961 . S
H1519 C1503 0.961 . S
H1520 C1504 0.931 . S
H1521 C1509 0.930 . S
H1522 C1510 0.956 . S
H1523 C1510 0.961 . S
H1524 C1510 0.961 . S
H1525 C1511 0.958 . S
H1526 C1511 0.961 . S
H1527 C1511 0.960 . S
C1528 C1529 1.391 . S
C1528 C1530 1.394 . S
C1528 H1544 0.931 . S
C1529 C1528 1.391 . S
C1529 C1533 1.376 . S
C1530 C1528 1.394 . S
C1530 C1531 1.369 . S
C1530 C1534 1.531 . S
C1531 C1530 1.369 . S
C1531 C1532 1.410 . S
C1531 C1539 1.503 . S
C1532 C1531 1.410 . S
C1532 C1533 1.392 . S
C1532 C1535 1.511 . S
C1533 C1529 1.376 . S
C1533 C1532 1.392 . S
C1533 H1545 0.929 . S
C1534 C1530 1.531 . S
C1534 H1546 0.960 . S
C1534 H1547 0.962 . S
C1534 H1548 0.960 . S
C1535 C1532 1.511 . S
C1535 H1549 0.961 . S
C1535 H1550 0.961 . S
C1535 H1551 0.961 . S
C1536 C1537 1.370 . S
C1536 C1538 1.363 . S
C1536 H1552 0.931 . S
C1537 C1536 1.370 . S
C1537 C1541 1.408 . S
C1538 C1536 1.363 . S
C1538 C1539 1.370 . S
C1538 C1542 1.524 . S
C1539 C1531 1.503 . S
C1539 C1538 1.370 . S
C1539 C1540 1.403 . S
C1540 C1539 1.403 . S
C1540 C1541 1.404 . S
C1540 C1543 1.539 . S
C1541 C1537 1.408 . S
C1541 C1540 1.404 . S
C1541 H1553 0.930 . S
C1542 C1538 1.524 . S
C1542 H1554 0.956 . S
C1542 H1555 0.961 . S
C1542 H1556 0.961 . S
C1543 C1540 1.539 . S
C1543 H1557 0.958 . S
C1543 H1558 0.961 . S
C1543 H1559 0.960 . S
H1544 C1528 0.931 . S
H1545 C1533 0.929 . S
H1546 C1534 0.960 . S
H1547 C1534 0.962 . S
H1548 C1534 0.960 . S
H1549 C1535 0.961 . S
H1550 C1535 0.961 . S
H1551 C1535 0.961 . S
H1552 C1536 0.931 . S
H1553 C1541 0.930 . S
H1554 C1542 0.956 . S
H1555 C1542 0.961 . S
H1556 C1542 0.961 . S
H1557 C1543 0.958 . S
H1558 C1543 0.961 . S
H1559 C1543 0.960 . S
C1560 C1561 1.391 . S
C1560 C1562 1.394 . S
C1560 H1576 0.931 . S
C1561 C1560 1.391 . S
C1561 C1565 1.376 . S
C1562 C1560 1.394 . S
C1562 C1563 1.369 . S
C1562 C1566 1.531 . S
C1563 C1562 1.369 . S
C1563 C1564 1.410 . S
C1563 C1571 1.503 . S
C1564 C1563 1.410 . S
C1564 C1565 1.392 . S
C1564 C1567 1.511 . S
C1565 C1561 1.376 . S
C1565 C1564 1.392 . S
C1565 H1577 0.929 . S
C1566 C1562 1.531 . S
C1566 H1578 0.960 . S
C1566 H1579 0.962 . S
C1566 H1580 0.960 . S
C1567 C1564 1.511 . S
C1567 H1581 0.961 . S
C1567 H1582 0.961 . S
C1567 H1583 0.961 . S
C1568 C1569 1.370 . S
C1568 C1570 1.363 . S
C1568 H1584 0.931 . S
C1569 C1568 1.370 . S
C1569 C1573 1.408 . S
C1570 C1568 1.363 . S
C1570 C1571 1.370 . S
C1570 C1574 1.524 . S
C1571 C1563 1.503 . S
C1571 C1570 1.370 . S
C1571 C1572 1.403 . S
C1572 C1571 1.403 . S
C1572 C1573 1.404 . S
C1572 C1575 1.539 . S
C1573 C1569 1.408 . S
C1573 C1572 1.404 . S
C1573 H1585 0.930 . S
C1574 C1570 1.524 . S
C1574 H1586 0.956 . S
C1574 H1587 0.961 . S
C1574 H1588 0.961 . S
C1575 C1572 1.539 . S
C1575 H1589 0.958 . S
C1575 H1590 0.961 . S
C1575 H1591 0.960 . S
H1576 C1560 0.931 . S
H1577 C1565 0.929 . S
H1578 C1566 0.960 . S
H1579 C1566 0.962 . S
H1580 C1566 0.960 . S
H1581 C1567 0.961 . S
H1582 C1567 0.961 . S
H1583 C1567 0.961 . S
H1584 C1568 0.931 . S
H1585 C1573 0.930 . S
H1586 C1574 0.956 . S
H1587 C1574 0.961 . S
H1588 C1574 0.961 . S
H1589 C1575 0.958 . S
H1590 C1575 0.961 . S
H1591 C1575 0.960 . S
C1592 C1593 1.391 . S
C1592 C1594 1.394 . S
C1592 H1608 0.931 . S
C1593 C1592 1.391 . S
C1593 C1597 1.376 . S
C1594 C1592 1.394 . S
C1594 C1595 1.369 . S
C1594 C1598 1.531 . S
C1595 C1594 1.369 . S
C1595 C1596 1.410 . S
C1595 C1603 1.503 . S
C1596 C1595 1.410 . S
C1596 C1597 1.392 . S
C1596 C1599 1.511 . S
C1597 C1593 1.376 . S
C1597 C1596 1.392 . S
C1597 H1609 0.929 . S
C1598 C1594 1.531 . S
C1598 H1610 0.960 . S
C1598 H1611 0.962 . S
C1598 H1612 0.960 . S
C1599 C1596 1.511 . S
C1599 H1613 0.961 . S
C1599 H1614 0.961 . S
C1599 H1615 0.961 . S
C1600 C1601 1.370 . S
C1600 C1602 1.363 . S
C1600 H1616 0.931 . S
C1601 C1600 1.370 . S
C1601 C1605 1.408 . S
C1602 C1600 1.363 . S
C1602 C1603 1.370 . S
C1602 C1606 1.524 . S
C1603 C1595 1.503 . S
C1603 C1602 1.370 . S
C1603 C1604 1.403 . S
C1604 C1603 1.403 . S
C1604 C1605 1.404 . S
C1604 C1607 1.539 . S
C1605 C1601 1.408 . S
C1605 C1604 1.404 . S
C1605 H1617 0.930 . S
C1606 C1602 1.524 . S
C1606 H1618 0.956 . S
C1606 H1619 0.961 . S
C1606 H1620 0.961 . S
C1607 C1604 1.539 . S
C1607 H1621 0.958 . S
C1607 H1622 0.961 . S
C1607 H1623 0.960 . S
H1608 C1592 0.931 . S
H1609 C1597 0.929 . S
H1610 C1598 0.960 . S
H1611 C1598 0.962 . S
H1612 C1598 0.960 . S
H1613 C1599 0.961 . S
H1614 C1599 0.961 . S
H1615 C1599 0.961 . S
H1616 C1600 0.931 . S
H1617 C1605 0.930 . S
H1618 C1606 0.956 . S
H1619 C1606 0.961 . S
H1620 C1606 0.961 . S
H1621 C1607 0.958 . S
H1622 C1607 0.961 . S
H1623 C1607 0.960 . S
C1624 C1625 1.391 . S
C1624 C1626 1.394 . S
C1624 H1640 0.931 . S
C1625 C1624 1.391 . S
C1625 C1629 1.376 . S
C1626 C1624 1.394 . S
C1626 C1627 1.369 . S
C1626 C1630 1.531 . S
C1627 C1626 1.369 . S
C1627 C1628 1.410 . S
C1627 C1635 1.503 . S
C1628 C1627 1.410 . S
C1628 C1629 1.392 . S
C1628 C1631 1.511 . S
C1629 C1625 1.376 . S
C1629 C1628 1.392 . S
C1629 H1641 0.929 . S
C1630 C1626 1.531 . S
C1630 H1642 0.960 . S
C1630 H1643 0.962 . S
C1630 H1644 0.960 . S
C1631 C1628 1.511 . S
C1631 H1645 0.961 . S
C1631 H1646 0.961 . S
C1631 H1647 0.961 . S
C1632 C1633 1.370 . S
C1632 C1634 1.363 . S
C1632 H1648 0.931 . S
C1633 C1632 1.370 . S
C1633 C1637 1.408 . S
C1634 C1632 1.363 . S
C1634 C1635 1.370 . S
C1634 C1638 1.524 . S
C1635 C1627 1.503 . S
C1635 C1634 1.370 . S
C1635 C1636 1.403 . S
C1636 C1635 1.403 . S
C1636 C1637 1.404 . S
C1636 C1639 1.539 . S
C1637 C1633 1.408 . S
C1637 C1636 1.404 . S
C1637 H1649 0.930 . S
C1638 C1634 1.524 . S
C1638 H1650 0.956 . S
C1638 H1651 0.961 . S
C1638 H1652 0.961 . S
C1639 C1636 1.539 . S
C1639 H1653 0.958 . S
C1639 H1654 0.961 . S
C1639 H1655 0.960 . S
H1640 C1624 0.931 . S
H1641 C1629 0.929 . S
H1642 C1630 0.960 . S
H1643 C1630 0.962 . S
H1644 C1630 0.960 . S
H1645 C1631 0.961 . S
H1646 C1631 0.961 . S
H1647 C1631 0.961 . S
H1648 C1632 0.931 . S
H1649 C1637 0.930 . S
H1650 C1638 0.956 . S
H1651 C1638 0.961 . S
H1652 C1638 0.961 . S
H1653 C1639 0.958 . S
H1654 C1639 0.961 . S
H1655 C1639 0.960 . S
C1656 C1657 1.391 . S
C1656 C1658 1.394 . S
C1656 H1672 0.931 . S
C1657 C1656 1.391 . S
C1657 C1661 1.376 . S
C1658 C1656 1.394 . S
C1658 C1659 1.369 . S
C1658 C1662 1.531 . S
C1659 C1658 1.369 . S
C1659 C1660 1.410 . S
C1659 C1667 1.503 . S
C1660 C1659 1.410 . S
C1660 C1661 1.392 . S
C1660 C1663 1.511 . S
C1661 C1657 1.376 . S
C1661 C1660 1.392 . S
C1661 H1673 0.929 . S
C1662 C1658 1.531 . S
C1662 H1674 0.960 . S
C1662 H1675 0.962 . S
C1662 H1676 0.960 . S
C1663 C1660 1.511 . S
C1663 H1677 0.961 . S
C1663 H1678 0.961 . S
C1663 H1679 0.961 . S
C1664 C1665 1.370 . S
C1664 C1666 1.363 . S
C1664 H1680 0.931 . S
C1665 C1664 1.370 . S
C1665 C1669 1.408 . S
C1666 C1664 1.363 . S
C1666 C1667 1.370 . S
C1666 C1670 1.524 . S
C1667 C1659 1.503 . S
C1667 C1666 1.370 . S
C1667 C1668 1.403 . S
C1668 C1667 1.403 . S
C1668 C1669 1.404 . S
C1668 C1671 1.539 . S
C1669 C1665 1.408 . S
C1669 C1668 1.404 . S
C1669 H1681 0.930 . S
C1670 C1666 1.524 . S
C1670 H1682 0.956 . S
C1670 H1683 0.961 . S
C1670 H1684 0.961 . S
C1671 C1668 1.539 . S
C1671 H1685 0.958 . S
C1671 H1686 0.961 . S
C1671 H1687 0.960 . S
H1672 C1656 0.931 . S
H1673 C1661 0.929 . S
H1674 C1662 0.960 . S
H1675 C1662 0.962 . S
H1676 C1662 0.960 . S
H1677 C1663 0.961 . S
H1678 C1663 0.961 . S
H1679 C1663 0.961 . S
H1680 C1664 0.931 . S
H1681 C1669 0.930 . S
H1682 C1670 0.956 . S
H1683 C1670 0.961 . S
H1684 C1670 0.961 . S
H1685 C1671 0.958 . S
H1686 C1671 0.961 . S
H1687 C1671 0.960 . S
C1688 C1689 1.391 . S
C1688 C1690 1.394 . S
C1688 H1704 0.931 . S
C1689 C1688 1.391 . S
C1689 C1693 1.376 . S
C1690 C1688 1.394 . S
C1690 C1691 1.369 . S
C1690 C1694 1.531 . S
C1691 C1690 1.369 . S
C1691 C1692 1.410 . S
C1691 C1699 1.503 . S
C1692 C1691 1.410 . S
C1692 C1693 1.392 . S
C1692 C1695 1.511 . S
C1693 C1689 1.376 . S
C1693 C1692 1.392 . S
C1693 H1705 0.929 . S
C1694 C1690 1.531 . S
C1694 H1706 0.960 . S
C1694 H1707 0.962 . S
C1694 H1708 0.960 . S
C1695 C1692 1.511 . S
C1695 H1709 0.961 . S
C1695 H1710 0.961 . S
C1695 H1711 0.961 . S
C1696 C1697 1.370 . S
C1696 C1698 1.363 . S
C1696 H1712 0.931 . S
C1697 C1696 1.370 . S
C1697 C1701 1.408 . S
C1698 C1696 1.363 . S
C1698 C1699 1.370 . S
C1698 C1702 1.524 . S
C1699 C1691 1.503 . S
C1699 C1698 1.370 . S
C1699 C1700 1.403 . S
C1700 C1699 1.403 . S
C1700 C1701 1.404 . S
C1700 C1703 1.539 . S
C1701 C1697 1.408 . S
C1701 C1700 1.404 . S
C1701 H1713 0.930 . S
C1702 C1698 1.524 . S
C1702 H1714 0.956 . S
C1702 H1715 0.961 . S
C1702 H1716 0.961 . S
C1703 C1700 1.539 . S
C1703 H1717 0.958 . S
C1703 H1718 0.961 . S
C1703 H1719 0.960 . S
H1704 C1688 0.931 . S
H1705 C1693 0.929 . S
H1706 C1694 0.960 . S
H1707 C1694 0.962 . S
H1708 C1694 0.960 . S
H1709 C1695 0.961 . S
H1710 C1695 0.961 . S
H1711 C1695 0.961 . S
H1712 C1696 0.931 . S
H1713 C1701 0.930 . S
H1714 C1702 0.956 . S
H1715 C1702 0.961 . S
H1716 C1702 0.961 . S
H1717 C1703 0.958 . S
H1718 C1703 0.961 . S
H1719 C1703 0.960 . S
C1720 C1721 1.391 . S
C1720 C1722 1.394 . S
C1720 H1736 0.931 . S
C1721 C1720 1.391 . S
C1721 C1725 1.376 . S
C1722 C1720 1.394 . S
C1722 C1723 1.369 . S
C1722 C1726 1.531 . S
C1723 C1722 1.369 . S
C1723 C1724 1.410 . S
C1723 C1731 1.503 . S
C1724 C1723 1.410 . S
C1724 C1725 1.392 . S
C1724 C1727 1.511 . S
C1725 C1721 1.376 . S
C1725 C1724 1.392 . S
C1725 H1737 0.929 . S
C1726 C1722 1.531 . S
C1726 H1738 0.960 . S
C1726 H1739 0.962 . S
C1726 H1740 0.960 . S
C1727 C1724 1.511 . S
C1727 H1741 0.961 . S
C1727 H1742 0.961 . S
C1727 H1743 0.961 . S
C1728 C1729 1.370 . S
C1728 C1730 1.363 . S
C1728 H1744 0.931 . S
C1729 C1728 1.370 . S
C1729 C1733 1.408 . S
C1730 C1728 1.363 . S
C1730 C1731 1.370 . S
C1730 C1734 1.524 . S
C1731 C1723 1.503 . S
C1731 C1730 1.370 . S
C1731 C1732 1.403 . S
C1732 C1731 1.403 . S
C1732 C1733 1.404 . S
C1732 C1735 1.539 . S
C1733 C1729 1.408 . S
C1733 C1732 1.404 . S
C1733 H1745 0.930 . S
C1734 C1730 1.524 . S
C1734 H1746 0.956 . S
C1734 H1747 0.961 . S
C1734 H1748 0.961 . S
C1735 C1732 1.539 . S
C1735 H1749 0.958 . S
C1735 H1750 0.961 . S
C1735 H1751 0.960 . S
H1736 C1720 0.931 . S
H1737 C1725 0.929 . S
H1738 C1726 0.960 . S
H1739 C1726 0.962 . S
H1740 C1726 0.960 . S
H1741 C1727 0.961 . S
H1742 C1727 0.961 . S
H1743 C1727 0.961 . S
H1744 C1728 0.931 . S
H1745 C1733 0.930 . S
H1746 C1734 0.956 . S
H1747 C1734 0.961 . S
H1748 C1734 0.961 . S
H1749 C1735 0.958 . S
H1750 C1735 0.961 . S
H1751 C1735 0.960 . S
C1752 C1753 1.368 1_554 S
C1752 C1754 1.395 . S
C1752 H1768 0.953 . S
C1753 C1752 1.368 1_556 S
C1753 C1757 1.376 . S
C1754 C1752 1.395 . S
C1754 C1755 1.369 1_554 S
C1754 C1758 1.531 . S
C1755 C1754 1.369 1_556 S
C1755 C1756 1.410 . S
C1755 C1763 1.503 . S
C1756 C1755 1.410 . S
C1756 C1757 1.392 . S
C1756 C1759 1.511 . S
C1757 C1753 1.376 . S
C1757 C1756 1.392 . S
C1757 H1769 0.929 . S
C1758 C1754 1.531 . S
C1758 H1770 0.960 . S
C1758 H1771 0.962 . S
C1758 H1772 0.960 . S
C1759 C1756 1.511 . S
C1759 H1773 0.961 . S
C1759 H1774 0.961 . S
C1759 H1775 0.961 . S
C1760 C1761 1.370 . S
C1760 C1762 1.363 . S
C1760 H1776 0.931 . S
C1761 C1760 1.370 . S
C1761 C1765 1.408 1_554 S
C1762 C1760 1.363 . S
C1762 C1763 1.370 1_554 S
C1762 C1766 1.524 . S
C1763 C1755 1.503 . S
C1763 C1762 1.370 1_556 S
C1763 C1764 1.403 . S
C1764 C1763 1.403 . S
C1764 C1765 1.404 . S
C1764 C1767 1.539 . S
C1765 C1761 1.408 1_556 S
C1765 C1764 1.404 . S
C1765 H1777 0.930 . S
C1766 C1762 1.524 . S
C1766 H1778 0.956 . S
C1766 H1779 0.961 . S
C1766 H1780 0.961 . S
C1767 C1764 1.539 . S
C1767 H1781 0.958 . S
C1767 H1782 0.961 . S
C1767 H1783 0.960 . S
H1768 C1752 0.953 . S
H1769 C1757 0.929 . S
H1770 C1758 0.960 . S
H1771 C1758 0.962 . S
H1772 C1758 0.960 . S
H1773 C1759 0.961 . S
H1774 C1759 0.961 . S
H1775 C1759 0.961 . S
H1776 C1760 0.931 . S
H1777 C1765 0.930 . S
H1778 C1766 0.956 . S
H1779 C1766 0.961 . S
H1780 C1766 0.961 . S
H1781 C1767 0.958 . S
H1782 C1767 0.961 . S
H1783 C1767 0.960 . S
C1784 C1785 1.391 . S
C1784 C1786 1.394 . S
C1784 H1800 0.931 . S
C1785 C1784 1.391 . S
C1785 C1789 1.376 . S
C1786 C1784 1.394 . S
C1786 C1787 1.369 . S
C1786 C1790 1.531 . S
C1787 C1786 1.369 . S
C1787 C1788 1.410 . S
C1787 C1795 1.503 . S
C1788 C1787 1.410 . S
C1788 C1789 1.392 . S
C1788 C1791 1.511 . S
C1789 C1785 1.376 . S
C1789 C1788 1.392 . S
C1789 H1801 0.929 . S
C1790 C1786 1.531 . S
C1790 H1802 0.960 . S
C1790 H1803 0.962 . S
C1790 H1804 0.960 . S
C1791 C1788 1.511 . S
C1791 H1805 0.961 . S
C1791 H1806 0.961 . S
C1791 H1807 0.961 . S
C1792 C1793 1.370 . S
C1792 C1794 1.363 . S
C1792 H1808 0.931 . S
C1793 C1792 1.370 . S
C1793 C1797 1.408 . S
C1794 C1792 1.363 . S
C1794 C1795 1.370 . S
C1794 C1798 1.524 . S
C1795 C1787 1.503 . S
C1795 C1794 1.370 . S
C1795 C1796 1.403 . S
C1796 C1795 1.403 . S
C1796 C1797 1.404 . S
C1796 C1799 1.539 . S
C1797 C1793 1.408 . S
C1797 C1796 1.404 . S
C1797 H1809 0.930 . S
C1798 C1794 1.524 . S
C1798 H1810 0.956 . S
C1798 H1811 0.961 . S
C1798 H1812 0.961 . S
C1799 C1796 1.539 . S
C1799 H1813 0.958 . S
C1799 H1814 0.961 . S
C1799 H1815 0.960 . S
H1800 C1784 0.931 . S
H1801 C1789 0.929 . S
H1802 C1790 0.960 . S
H1803 C1790 0.962 . S
H1804 C1790 0.960 . S
H1805 C1791 0.961 . S
H1806 C1791 0.961 . S
H1807 C1791 0.961 . S
H1808 C1792 0.931 . S
H1809 C1797 0.930 . S
H1810 C1798 0.956 . S
H1811 C1798 0.961 . S
H1812 C1798 0.961 . S
H1813 C1799 0.958 . S
H1814 C1799 0.961 . S
H1815 C1799 0.960 . S
C1816 C1817 1.391 . S
C1816 C1818 1.394 . S
C1816 H1832 0.931 . S
C1817 C1816 1.391 . S
C1817 C1821 1.376 . S
C1818 C1816 1.394 . S
C1818 C1819 1.369 . S
C1818 C1822 1.531 . S
C1819 C1818 1.369 . S
C1819 C1820 1.410 . S
C1819 C1827 1.503 . S
C1820 C1819 1.410 . S
C1820 C1821 1.392 . S
C1820 C1823 1.511 . S
C1821 C1817 1.376 . S
C1821 C1820 1.392 . S
C1821 H1833 0.929 . S
C1822 C1818 1.531 . S
C1822 H1834 0.960 . S
C1822 H1835 0.962 . S
C1822 H1836 0.960 . S
C1823 C1820 1.511 . S
C1823 H1837 0.961 . S
C1823 H1838 0.961 . S
C1823 H1839 0.961 . S
C1824 C1825 1.370 . S
C1824 C1826 1.363 . S
C1824 H1840 0.931 . S
C1825 C1824 1.370 . S
C1825 C1829 1.408 . S
C1826 C1824 1.363 . S
C1826 C1827 1.370 . S
C1826 C1830 1.524 . S
C1827 C1819 1.503 . S
C1827 C1826 1.370 . S
C1827 C1828 1.403 . S
C1828 C1827 1.403 . S
C1828 C1829 1.404 . S
C1828 C1831 1.539 . S
C1829 C1825 1.408 . S
C1829 C1828 1.404 . S
C1829 H1841 0.930 . S
C1830 C1826 1.524 . S
C1830 H1842 0.956 . S
C1830 H1843 0.961 . S
C1830 H1844 0.961 . S
C1831 C1828 1.539 . S
C1831 H1845 0.958 . S
C1831 H1846 0.961 . S
C1831 H1847 0.960 . S
H1832 C1816 0.931 . S
H1833 C1821 0.929 . S
H1834 C1822 0.960 . S
H1835 C1822 0.962 . S
H1836 C1822 0.960 . S
H1837 C1823 0.961 . S
H1838 C1823 0.961 . S
H1839 C1823 0.961 . S
H1840 C1824 0.931 . S
H1841 C1829 0.930 . S
H1842 C1830 0.956 . S
H1843 C1830 0.961 . S
H1844 C1830 0.961 . S
H1845 C1831 0.958 . S
H1846 C1831 0.961 . S
H1847 C1831 0.960 . S
C1848 C1849 1.391 . S
C1848 C1850 1.394 . S
C1848 H1864 0.931 1_565 S
C1849 C1848 1.391 . S
C1849 C1853 1.376 . S
C1850 C1848 1.394 . S
C1850 C1851 1.369 . S
C1850 C1854 1.531 . S
C1851 C1850 1.369 . S
C1851 C1852 1.410 . S
C1851 C1859 1.503 . S
C1852 C1851 1.410 . S
C1852 C1853 1.392 . S
C1852 C1855 1.511 . S
C1853 C1849 1.376 . S
C1853 C1852 1.392 . S
C1853 H1865 0.929 . S
C1854 C1850 1.531 . S
C1854 H1866 0.960 . S
C1854 H1867 0.962 . S
C1854 H1868 0.960 1_565 S
C1855 C1852 1.511 . S
C1855 H1869 0.961 . S
C1855 H1870 0.961 . S
C1855 H1871 0.961 . S
C1856 C1857 1.370 . S
C1856 C1858 1.363 . S
C1856 H1872 0.931 1_554 S
C1857 C1856 1.370 . S
C1857 C1861 1.408 . S
C1858 C1856 1.363 . S
C1858 C1859 1.370 . S
C1858 C1862 1.524 1_554 S
C1859 C1851 1.503 . S
C1859 C1858 1.370 . S
C1859 C1860 1.403 . S
C1860 C1859 1.403 . S
C1860 C1861 1.404 . S
C1860 C1863 1.539 . S
C1861 C1857 1.408 . S
C1861 C1860 1.404 . S
C1861 H1873 0.930 . S
C1862 C1858 1.524 1_556 S
C1862 H1874 0.956 . S
C1862 H1875 0.961 . S
C1862 H1876 0.961 . S
C1863 C1860 1.539 . S
C1863 H1877 0.958 . S
C1863 H1878 0.961 . S
C1863 H1879 0.960 . S
H1864 C1848 0.931 1_545 S
H1865 C1853 0.929 . S
H1866 C1854 0.960 . S
H1867 C1854 0.962 . S
H1868 C1854 0.960 1_545 S
H1869 C1855 0.961 . S
H1870 C1855 0.961 . S
H1871 C1855 0.961 . S
H1872 C1856 0.931 1_556 S
H1873 C1861 0.930 . S
H1874 C1862 0.956 . S
H1875 C1862 0.961 . S
H1876 C1862 0.961 . S
H1877 C1863 0.958 . S
H1878 C1863 0.961 . S
H1879 C1863 0.960 . S
C353 C184 1.144 . S
C345 C62 1.137 . S
C385 C197 1.541 . S
C377 C73 1.481 1_455 S
C409 C84 1.627 . S
C417 C217 1.590 . S
C449 C231 1.220 . S
C441 C49 1.004 . S
C481 C243 1.394 . S
C473 C118 1.387 . S
C513 C257 1.562 . S
C505 C137 1.263 . S
C537 C129 1.571 . S
C545 C267 1.555 . S
C577 C282 1.898 . S
C569 C106 1.827 . S
C601 C128 1.823 . S
C609 C296 1.820 . S
C641 C315 1.505 . S
C633 C104 1.398 . S
C665 C115 1.540 . S
C673 C295 1.788 . S
C705 C313 1.707 . S
C697 C139 1.644 . S
C729 C85 1.708 . S
C737 C329 1.599 . S
C761 C52 1.212 . S
C769 C323 1.215 . S
C793 C60 0.923 . S
C801 C327 1.082 . S
C825 C71 1.447 . S
C833 C324 1.582 . S
C857 C40 1.705 . S
C865 C226 1.772 . S
C889 C162 1.093 . S
C897 C225 1.108 . S
C929 C189 1.012 . S
C921 C173 1.031 1_565 S
C961 C203 1.747 . S
C953 C93 1.683 . S
C985 C51 1.467 1_545 S
C993 C240 1.493 . S
C1025 C285 1.565 . S
C1017 C126 1.342 . S
C1057 C239 1.757 . S
C1049 C107 1.729 . S
C1089 C271 1.534 . S
C1081 C140 1.512 . S
C1121 C268 1.150 . S
C1113 C161 1.129 . S
C1145 C172 1.423 . S
C1153 C281 1.540 . S
C1177 C95 1.626 . S
C1185 C245 1.588 . S
C1217 C259 1.204 . S
C1209 C148 0.998 . S
C1241 C41 1.363 . S
C1249 C215 1.387 . S
C1281 C229 1.560 . S
C1273 C5 1.334 . S
C1313 C183 1.555 . S
C1305 C19 1.568 . S
C1345 C198 1.896 . S
C1337 C29 1.839 . S
C1369 C18 1.802 . S
C1377 C310 1.833 . S
C1401 C27 1.418 . S
C1409 C301 1.501 1_655 S
C1433 C38 1.566 . S
C1441 C309 1.777 . S
C1465 C7 1.605 . S
C1473 C299 1.714 . S
C1505 C343 1.572 . S
C1497 C96 1.705 . S
C1537 C337 1.202 . S
C1529 C151 1.182 . S
C1569 C341 1.076 . S
C1561 C159 1.041 . S
C1593 C170 1.337 . S
C1601 C338 1.593 . S
C1625 C117 1.723 . S
C1633 C254 1.770 . S
C1665 C253 1.108 . S
C1657 C63 1.093 . S
C1697 C273 1.038 . S
C1689 C74 1.069 . S
C1729 C287 1.741 . S
C1721 C82 1.697 . S
C1753 C150 1.482 . S
C1761 C212 1.491 . S
C1793 C201 1.562 . S
C1785 C16 1.397 . S
C1817 C30 1.714 . S
C1825 C211 1.753 . S
C1857 C187 1.533 . S
C1849 C8 1.526 . S
