# Generated by pormake.
# Topology rtl, (3,6)-cn, num edge types: 1
# Building blocks:
#     Node 0, Type 0, BuildingBlock: OLANEW_clean_sbu_2, # of connection points: 3
#     Node 1, Type 0, BuildingBlock: OLANEW_clean_sbu_2, # of connection points: 3
#     Node 2, Type 0, BuildingBlock: OLANEW_clean_sbu_2, # of connection points: 3
#     Node 3, Type 0, BuildingBlock: OLANEW_clean_sbu_2, # of connection points: 3
#     Node 4, Type 1, BuildingBlock: KUMBUR_clean_sbu_1, # of connection points: 6
#     Node 5, Type 1, BuildingBlock: KUMBUR_clean_sbu_1, # of connection points: 6
#     Edge 6, Type (0, 1), BuildingBlock: EZIPEK_clean_linker_0, # of connection points: 2
#     Edge 7, Type (0, 1), BuildingBlock: EZIPEK_clean_linker_0, # of connection points: 2
#     Edge 8, Type (0, 1), BuildingBlock: EZIPEK_clean_linker_0, # of connection points: 2
#     Edge 9, Type (0, 1), BuildingBlock: EZIPEK_clean_linker_0, # of connection points: 2
#     Edge 10, Type (0, 1), BuildingBlock: EZIPEK_clean_linker_0, # of connection points: 2
#     Edge 11, Type (0, 1), BuildingBlock: EZIPEK_clean_linker_0, # of connection points: 2
#     Edge 12, Type (0, 1), BuildingBlock: EZIPEK_clean_linker_0, # of connection points: 2
#     Edge 13, Type (0, 1), BuildingBlock: EZIPEK_clean_linker_0, # of connection points: 2
#     Edge 14, Type (0, 1), BuildingBlock: EZIPEK_clean_linker_0, # of connection points: 2
#     Edge 15, Type (0, 1), BuildingBlock: EZIPEK_clean_linker_0, # of connection points: 2
#     Edge 16, Type (0, 1), BuildingBlock: EZIPEK_clean_linker_0, # of connection points: 2
#     Edge 17, Type (0, 1), BuildingBlock: EZIPEK_clean_linker_0, # of connection points: 2
# Relax obj value: 0.047
# Max RMSD: 0.180
# Mean RMSD: 0.140
data_MOF--net-rtl--node1-OLANEW_clean_sbu_2--node2-KUMBUR_clean_sbu_1--edge1-EZIPEK_clean_linker_0
_symmetry_space_group_name_H-M    P1
_symmetry_Int_Tables_number       1
_symmetry_cell_setting            triclinic
loop_
_symmetry_equiv_pos_as_xyz
'x, y, z'
_cell_length_a     28.577605
_cell_length_b     28.746207
_cell_length_c     22.651715
_cell_angle_alpha  71.755465
_cell_angle_beta   103.16934
_cell_angle_gamma 91.606893
loop_
_atom_site_label
_atom_site_type_symbol
_atom_site_fract_x
_atom_site_fract_y
_atom_site_fract_z
_atom_type_partial_charge
O0 O 0.17082 0.82669 0.98474 0.0
Cd1 Cd 0.23257 0.79118 0.08321 0.0
O2 O 0.20667 0.89655 0.9677 0.0
Cd3 Cd 0.23406 0.87971 0.07051 0.0
O4 O 0.20419 0.87975 0.15131 0.0
C5 C 0.17681 0.91674 0.14183 0.0
O6 O 0.17035 0.95247 0.08739 0.0
C7 C 0.17521 0.86936 0.94786 0.0
C8 C 0.30059 0.73011 0.06875 0.0
O9 O 0.30741 0.776 0.05776 0.0
O10 O 0.26183 0.71358 0.0853 0.0
O11 O 0.63763 0.71757 0.72826 0.0
Cd12 Cd 0.68461 0.74574 0.64445 0.0
O13 O 0.67975 0.64748 0.77248 0.0
Cd14 Cd 0.71874 0.66122 0.69675 0.0
O15 O 0.72483 0.65538 0.60476 0.0
C16 C 0.69674 0.62612 0.58376 0.0
O17 O 0.66737 0.60145 0.61794 0.0
C18 C 0.64583 0.6758 0.77122 0.0
C19 C 0.76484 0.80451 0.65047 0.0
O20 O 0.72185 0.82353 0.62787 0.0
O21 O 0.77022 0.75769 0.67413 0.0
O22 O 0.77825 0.15983 0.25022 0.0
Cd23 Cd 0.72647 0.19578 0.1438 0.0
O24 O 0.81699 0.12931 0.19677 0.0
Cd25 Cd 0.87645 0.08643 0.19085 0.0
O26 O 0.92386 0.07065 0.1362 0.0
C27 C 0.91165 0.04032 0.10565 0.0
O28 O 0.8726 0.0159 0.11179 0.0
C29 C 0.81313 0.13387 0.24936 0.0
C30 C 0.67282 0.28013 0.1265 0.0
O31 O 0.65447 0.23798 0.14069 0.0
O32 O 0.71681 0.28223 0.12209 0.0
O33 O 0.29839 0.30125 0.58657 0.0
Cd34 Cd 0.27427 0.26325 0.50129 0.0
O35 O 0.33731 0.35892 0.52911 0.0
Cd36 Cd 0.32952 0.33847 0.44221 0.0
O37 O 0.35301 0.35661 0.35222 0.0
C38 C 0.38518 0.38819 0.34711 0.0
O39 O 0.40181 0.4054 0.39481 0.0
C40 C 0.32285 0.33951 0.58013 0.0
C41 C 0.20558 0.19177 0.52021 0.0
O42 O 0.25064 0.18048 0.54244 0.0
O43 O 0.19259 0.23685 0.48987 0.0
Tb44 Tb 0.02203 0.93923 0.55444 0.0
C45 C 0.92831 0.1383 0.53191 0.0
N46 N 0.9705 0.11626 0.57146 0.0
C47 C 0.00845 0.1934 0.54605 0.0
C48 C 0.92519 0.18839 0.49563 0.0
C49 C 0.00963 0.14376 0.58156 0.0
C50 C 0.96629 0.21565 0.50215 0.0
C51 C 0.8427 0.13289 0.49165 0.0
C52 C 0.8875 0.11109 0.53004 0.0
C53 C 0.83998 0.18199 0.45267 0.0
C54 C 0.88112 0.20972 0.45477 0.0
Tb55 Tb 0.96719 0.03429 0.62405 0.0
N56 N 0.89142 0.06364 0.56805 0.0
C57 C 0.80181 0.10508 0.49519 0.0
C58 C 0.85119 0.0379 0.57629 0.0
C59 C 0.80595 0.05771 0.53869 0.0
H60 H 0.04189 0.12789 0.61735 0.0
H61 H 0.77432 0.03655 0.5435 0.0
H62 H 0.95338 0.84277 0.58314 0.0
H63 H 0.21508 0.95635 0.62289 0.0
H64 H 0.85422 0.00162 0.61055 0.0
H65 H 0.7667 0.12043 0.46633 0.0
H66 H 0.13317 0.98491 0.56312 0.0
H67 H 0.03992 0.21461 0.55315 0.0
H68 H 0.806 0.19924 0.42211 0.0
H69 H 0.87825 0.24792 0.42567 0.0
H70 H 0.96444 0.75563 0.64691 0.0
H71 H 0.96544 0.25417 0.47495 0.0
H72 H 0.23184 0.87078 0.69386 0.0
N73 N 0.0268 0.85839 0.61286 0.0
C74 C 0.07192 0.83936 0.64466 0.0
C75 C 0.99489 0.77888 0.64721 0.0
C76 C 0.08002 0.78921 0.68038 0.0
C77 C 0.98864 0.8287 0.61193 0.0
C78 C 0.04071 0.75907 0.68187 0.0
N79 N 0.10117 0.91846 0.6055 0.0
C80 C 0.13861 0.94853 0.59659 0.0
C81 C 0.15729 0.85184 0.67463 0.0
C82 C 0.11013 0.87043 0.6417 0.0
C83 C 0.19514 0.8836 0.66916 0.0
C84 C 0.18579 0.93198 0.62939 0.0
H85 H 0.04543 0.72039 0.70891 0.0
H86 H 0.13378 0.73238 0.74126 0.0
H87 H 0.20137 0.78719 0.7364 0.0
O88 O 0.06318 0.92049 0.49841 0.0
O89 O 0.03324 0.92258 0.65873 0.0
O90 O 0.03788 0.99846 0.66801 0.0
O91 O 0.98727 0.91009 0.48214 0.0
O92 O 0.05194 0.0125 0.53039 0.0
O93 O 0.03972 0.04906 0.60474 0.0
O94 O 0.95991 0.00434 0.71944 0.0
O95 O 0.92986 0.02312 0.53414 0.0
O96 O 0.98898 0.00954 0.48746 0.0
O97 O 0.95235 0.08173 0.67194 0.0
O98 O 0.93899 0.96047 0.64755 0.0
O99 O 0.94721 0.92896 0.56693 0.0
C100 C 0.0463 0.95127 0.69427 0.0
C101 C 0.02221 0.93447 0.39194 0.0
C102 C 0.05312 0.9455 0.29678 0.0
C103 C 0.01923 0.98445 0.26272 0.0
C104 C 0.9891 0.9741 0.35722 0.0
C105 C 0.98735 0.99861 0.29294 0.0
C106 C 0.05443 0.92037 0.36137 0.0
C107 C 0.06048 0.04659 0.55893 0.0
C108 C 0.02591 0.90995 0.46081 0.0
C109 C 0.1269 0.77077 0.7134 0.0
C110 C 0.16538 0.80202 0.71075 0.0
C111 C 0.94741 0.02972 0.48373 0.0
C112 C 0.98545 0.05678 0.78201 0.0
C113 C 0.99554 0.05751 0.89124 0.0
C114 C 0.03783 0.08298 0.88682 0.0
C115 C 0.02704 0.08368 0.77751 0.0
C116 C 0.97009 0.04333 0.83931 0.0
C117 C 0.05362 0.09573 0.83014 0.0
C118 C 0.92769 0.9294 0.61471 0.0
C119 C 0.95502 0.04726 0.7256 0.0
H120 H 0.01808 0.00436 0.21309 0.0
H121 H 0.96513 0.98672 0.37989 0.0
H122 H 0.9617 0.02915 0.26687 0.0
H123 H 0.08097 0.89059 0.38789 0.0
H124 H 0.0575 0.09448 0.92638 0.0
H125 H 0.0386 0.096 0.73305 0.0
H126 H 0.93681 0.02462 0.8423 0.0
H127 H 0.08574 0.11625 0.82635 0.0
Tb128 Tb 0.45436 0.51186 0.97667 0.0
C129 C 0.63696 0.61476 0.05092 0.0
N130 N 0.62521 0.5677 0.0759 0.0
C131 C 0.70131 0.53841 0.07014 0.0
C132 C 0.68095 0.62543 0.03247 0.0
C133 C 0.65747 0.5297 0.08836 0.0
C134 C 0.71291 0.58647 0.04146 0.0
C135 C 0.61638 0.7015 0.02043 0.0
C136 C 0.60472 0.65215 0.0444 0.0
C137 C 0.65991 0.71241 0.00123 0.0
C138 C 0.69198 0.67447 0.00685 0.0
Tb139 Tb 0.55377 0.55745 0.10601 0.0
N140 N 0.56272 0.64017 0.06315 0.0
C141 C 0.58425 0.73847 0.01716 0.0
C142 C 0.53247 0.67642 0.06286 0.0
C143 C 0.54235 0.72582 0.03899 0.0
H144 H 0.64958 0.49267 0.11265 0.0
H145 H 0.51794 0.75415 0.03845 0.0
H146 H 0.39711 0.61428 0.87965 0.0
H147 H 0.39569 0.32762 0.06368 0.0
H148 H 0.50133 0.66811 0.08269 0.0
H149 H 0.59187 0.7768 0.99902 0.0
H150 H 0.4553 0.39172 0.04779 0.0
H151 H 0.72635 0.50812 0.07897 0.0
H152 H 0.66923 0.7501 0.98227 0.0
H153 H 0.72553 0.68345 0.99219 0.0
H154 H 0.31355 0.64241 0.81954 0.0
H155 H 0.74705 0.59315 0.02784 0.0
H156 H 0.30908 0.34929 0.01599 0.0
N157 N 0.37803 0.54229 0.92577 0.0
C158 C 0.34282 0.50971 0.93058 0.0
C159 C 0.32122 0.60506 0.85098 0.0
C160 C 0.2948 0.52386 0.89734 0.0
C161 C 0.36832 0.58919 0.88523 0.0
C162 C 0.28419 0.57234 0.85742 0.0
N163 N 0.40252 0.44963 0.99596 0.0
C164 C 0.41738 0.40175 0.02849 0.0
C165 C 0.32028 0.42629 0.97379 0.0
C166 C 0.35542 0.46176 0.96763 0.0
C167 C 0.33496 0.37767 0.00995 0.0
C168 C 0.38381 0.3653 0.037 0.0
H169 H 0.24776 0.58467 0.83084 0.0
H170 H 0.22209 0.49914 0.87933 0.0
H171 H 0.24439 0.41364 0.94674 0.0
O172 O 0.45031 0.4649 0.92028 0.0
O173 O 0.46339 0.46886 0.07884 0.0
O174 O 0.49278 0.51965 0.14027 0.0
O175 O 0.46515 0.54068 0.88364 0.0
O176 O 0.52539 0.47223 0.01588 0.0
O177 O 0.56246 0.47987 0.11549 0.0
O178 O 0.56903 0.59121 0.17812 0.0
O179 O 0.56423 0.56003 0.01228 0.0
O180 O 0.48864 0.58239 0.954 0.0
O181 O 0.60069 0.52052 0.1942 0.0
O182 O 0.47973 0.59027 0.07986 0.0
O183 O 0.42031 0.56416 0.00876 0.0
C184 C 0.46802 0.48225 0.13067 0.0
C185 C 0.41796 0.50478 0.80995 0.0
C186 C 0.37351 0.46761 0.73167 0.0
C187 C 0.35112 0.51353 0.69433 0.0
C188 C 0.39591 0.55063 0.77069 0.0
C189 C 0.36222 0.5547 0.7139 0.0
C190 C 0.40629 0.46315 0.7902 0.0
C191 C 0.55626 0.45729 0.07202 0.0
C192 C 0.45434 0.50046 0.86987 0.0
C193 C 0.2593 0.48899 0.90414 0.0
C194 C 0.272 0.44031 0.94252 0.0
C195 C 0.53506 0.5845 0.95877 0.0
C196 C 0.64442 0.57087 0.25102 0.0
C197 C 0.68948 0.59389 0.34211 0.0
C198 C 0.73074 0.59806 0.31752 0.0
C199 C 0.68606 0.57535 0.227 0.0
C200 C 0.64631 0.58048 0.30863 0.0
C201 C 0.7289 0.58897 0.26003 0.0
C202 C 0.43436 0.58979 0.04858 0.0
C203 C 0.59876 0.55609 0.21762 0.0
H204 H 0.32572 0.51762 0.64929 0.0
H205 H 0.40489 0.58361 0.78335 0.0
H206 H 0.34527 0.5901 0.68435 0.0
H207 H 0.42361 0.4277 0.81914 0.0
H208 H 0.76427 0.60824 0.34293 0.0
H209 H 0.68585 0.56813 0.18317 0.0
H210 H 0.61445 0.57706 0.32782 0.0
H211 H 0.76082 0.59223 0.24115 0.0
C212 C 0.13934 0.14427 0.47457 0.0
C213 C 0.16953 0.15335 0.52868 0.0
C214 C 0.13747 0.08317 0.59864 0.0
C215 C 0.10105 0.07971 0.54613 0.0
N216 N 0.06927 0.10546 0.43164 0.0
N217 N 0.19271 0.13512 0.64317 0.0
C218 C 0.10267 0.10961 0.48323 0.0
C219 C 0.16738 0.12376 0.59097 0.0
N220 N 0.14726 0.167 0.41513 0.0
N221 N 0.14606 0.04564 0.65486 0.0
H222 H 0.21454 0.1651 0.63985 0.0
H223 H 0.1883 0.11751 0.68925 0.0
H224 H 0.1276 0.01337 0.66039 0.0
H225 H 0.17524 0.04397 0.69281 0.0
H226 H 0.13037 0.158 0.37458 0.0
H227 H 0.17401 0.19205 0.40696 0.0
H228 H 0.06401 0.13103 0.38621 0.0
H229 H 0.04523 0.07751 0.43422 0.0
C230 C 0.3809 0.68372 0.10708 0.0
C231 C 0.33598 0.69625 0.06235 0.0
C232 C 0.349 0.62892 0.02269 0.0
C233 C 0.39698 0.6204 0.06058 0.0
N234 N 0.44364 0.62071 0.16389 0.0
N235 N 0.28093 0.68639 0.96974 0.0
C236 C 0.40934 0.64283 0.10976 0.0
C237 C 0.32131 0.67064 0.01773 0.0
N238 N 0.39645 0.71058 0.14745 0.0
N239 N 0.32652 0.59329 0.00058 0.0
H240 H 0.25975 0.71718 0.96408 0.0
H241 H 0.27155 0.67179 0.93211 0.0
H242 H 0.34106 0.55776 0.0164 0.0
H243 H 0.29019 0.59604 0.97771 0.0
H244 H 0.43143 0.70715 0.17526 0.0
H245 H 0.37576 0.7391 0.14942 0.0
H246 H 0.4519 0.63308 0.20346 0.0
H247 H 0.45804 0.58549 0.17391 0.0
C248 C 0.81003 0.86568 0.58132 0.0
C249 C 0.80705 0.83577 0.6432 0.0
C250 C 0.88424 0.866 0.68809 0.0
C251 C 0.88528 0.89842 0.62617 0.0
N252 N 0.8386 0.9407 0.52055 0.0
N253 N 0.83724 0.81298 0.75717 0.0
C254 C 0.84532 0.90135 0.57458 0.0
C255 C 0.84319 0.83723 0.69716 0.0
N256 N 0.78005 0.85929 0.52834 0.0
N257 N 0.9225 0.86224 0.73826 0.0
H258 H 0.80767 0.79194 0.76547 0.0
H259 H 0.85936 0.8168 0.79863 0.0
H260 H 0.95092 0.88556 0.73538 0.0
H261 H 0.9271 0.83467 0.78207 0.0
H262 H 0.78422 0.87703 0.48217 0.0
H263 H 0.75442 0.83262 0.53061 0.0
H264 H 0.80752 0.94729 0.48398 0.0
H265 H 0.861 0.97002 0.51665 0.0
C266 C 0.6156 0.32911 0.15633 0.0
C267 C 0.64339 0.32553 0.11326 0.0
C268 C 0.61916 0.41051 0.04856 0.0
C269 C 0.5865 0.41196 0.08672 0.0
N270 N 0.54586 0.36747 0.16846 0.0
N271 N 0.66178 0.3595 0.00946 0.0
C272 C 0.58253 0.36981 0.13838 0.0
C273 C 0.64246 0.36529 0.05679 0.0
N274 N 0.62189 0.29476 0.21532 0.0
N275 N 0.62966 0.4526 0.00621 0.0
H276 H 0.67711 0.32632 0.01176 0.0
H277 H 0.65768 0.38614 0.96488 0.0
H278 H 0.61522 0.48671 0.00144 0.0
H279 H 0.65675 0.45426 0.98173 0.0
H280 H 0.60578 0.29845 0.25063 0.0
H281 H 0.64707 0.26535 0.23142 0.0
H282 H 0.53871 0.3358 0.20246 0.0
H283 H 0.51944 0.39537 0.15418 0.0
C284 C 0.10564 0.89281 0.19026 0.0
C285 C 0.14888 0.91825 0.18879 0.0
C286 C 0.13137 0.95848 0.26265 0.0
C287 C 0.08834 0.9327 0.26458 0.0
N288 N 0.03832 0.86915 0.24055 0.0
N289 N 0.2079 0.96776 0.23146 0.0
C290 C 0.0768 0.89772 0.23176 0.0
C291 C 0.16329 0.94878 0.22755 0.0
N292 N 0.09107 0.86583 0.14972 0.0
N293 N 0.14085 0.99334 0.29276 0.0
H294 H 0.23192 0.9614 0.20604 0.0
H295 H 0.22276 0.98641 0.26343 0.0
H296 H 0.1194 0.9999 0.3212 0.0
H297 H 0.16838 0.01763 0.28704 0.0
H298 H 0.05724 0.85132 0.14256 0.0
H299 H 0.11176 0.86044 0.11975 0.0
H300 H 0.03067 0.83955 0.22332 0.0
H301 H 0.01577 0.87274 0.26933 0.0
C302 C 0.59563 0.60756 0.81846 0.0
C303 C 0.61135 0.65573 0.81283 0.0
C304 C 0.56043 0.66149 0.88464 0.0
C305 C 0.55522 0.61006 0.90208 0.0
N306 N 0.56947 0.5334 0.88483 0.0
N307 N 0.60956 0.72874 0.84373 0.0
C308 C 0.57335 0.58289 0.86882 0.0
C309 C 0.59351 0.68315 0.84617 0.0
N310 N 0.5993 0.58625 0.7734 0.0
N311 N 0.5333 0.6897 0.9039 0.0
H312 H 0.63521 0.74498 0.81854 0.0
H313 H 0.60044 0.74868 0.87109 0.0
H314 H 0.50825 0.67483 0.93092 0.0
H315 H 0.53224 0.72789 0.8878 0.0
H316 H 0.5842 0.55309 0.77198 0.0
H317 H 0.61171 0.6045 0.73267 0.0
H318 H 0.58726 0.51123 0.86743 0.0
H319 H 0.55112 0.51417 0.91877 0.0
C320 C 0.84299 0.05748 0.33868 0.0
C321 C 0.8483 0.10784 0.30869 0.0
C322 C 0.92218 0.10639 0.38978 0.0
C323 C 0.91651 0.05584 0.41988 0.0
N324 N 0.88167 0.98059 0.40997 0.0
N325 N 0.89452 0.17999 0.29917 0.0
C326 C 0.87977 0.03059 0.39068 0.0
C327 C 0.88862 0.13225 0.33219 0.0
N328 N 0.80206 0.0355 0.31859 0.0
N329 N 0.95961 0.12934 0.41656 0.0
H330 H 0.86992 0.19991 0.25773 0.0
H331 H 0.92419 0.19988 0.31068 0.0
H332 H 0.984 0.11132 0.45904 0.0
H333 H 0.96609 0.16629 0.39898 0.0
H334 H 0.79374 1.0004 0.34362 0.0
H335 H 0.77438 0.05377 0.2799 0.0
H336 H 0.85929 0.96008 0.38553 0.0
H337 H 0.90868 0.95966 0.44719 0.0
C338 C 0.30169 0.3796 0.65637 0.0
C339 C 0.33688 0.36186 0.63234 0.0
C340 C 0.39851 0.40757 0.68256 0.0
C341 C 0.36345 0.42531 0.70664 0.0
N342 N 0.28587 0.41728 0.73249 0.0
N343 N 0.4208 0.3458 0.64047 0.0
C344 C 0.3164 0.40744 0.699 0.0
C345 C 0.38602 0.37152 0.65152 0.0
N346 N 0.25401 0.37291 0.63538 0.0
N347 N 0.44279 0.4272 0.68556 0.0
H348 H 0.41278 0.31824 0.61924 0.0
H349 H 0.45745 0.34803 0.65849 0.0
H350 H 0.45358 0.45395 0.70736 0.0
H351 H 0.46753 0.41973 0.66193 0.0
H352 H 0.22655 0.39 0.64554 0.0
H353 H 0.24147 0.35319 0.60387 0.0
H354 H 0.25264 0.4016 0.7336 0.0
H355 H 0.29596 0.43733 0.76428 0.0
C356 C 0.68289 0.6582 0.46407 0.0
C357 C 0.69722 0.61887 0.52193 0.0
C358 C 0.70327 0.56266 0.46151 0.0
C359 C 0.69193 0.60257 0.40398 0.0
N360 N 0.67746 0.68935 0.34986 0.0
N361 N 0.72947 0.53605 0.57704 0.0
C362 C 0.68379 0.65072 0.40511 0.0
C363 C 0.70965 0.57168 0.52101 0.0
N364 N 0.6662 0.70198 0.4652 0.0
N365 N 0.70715 0.51598 0.45918 0.0
H366 H 0.73545 0.54155 0.6215 0.0
H367 H 0.74402 0.50257 0.57932 0.0
H368 H 0.70437 0.50804 0.41665 0.0
H369 H 0.70966 0.48478 0.49875 0.0
H370 H 0.65013 0.73021 0.42433 0.0
H371 H 0.66487 0.70892 0.50732 0.0
H372 H 0.67699 0.72588 0.34848 0.0
H373 H 0.67603 0.68507 0.30543 0.0
C374 C 0.91968 0.08483 0.995 0.0
C375 C 0.93268 0.0435 0.05081 0.0
C376 C 0.98868 0.01206 0.00326 0.0
C377 C 0.97407 0.05222 0.9465 0.0
N378 N 0.92285 0.12441 0.88455 0.0
N379 N 0.97387 0.96461 0.10627 0.0
C380 C 0.93877 0.08795 0.94135 0.0
C381 C 0.96557 0.00611 0.05445 0.0
N382 N 0.88946 0.12148 0.99368 0.0
N383 N 0.0253 0.98033 0.0085 0.0
H384 H 0.95823 0.95968 0.14505 0.0
H385 H 0.99346 0.9337 0.10916 0.0
H386 H 0.04179 0.98274 0.97109 0.0
H387 H 0.04149 0.95355 0.05085 0.0
H388 H 0.88365 0.1555 0.95839 0.0
H389 H 0.87158 0.11911 0.02976 0.0
H390 H 0.89295 0.14776 0.8747 0.0
H391 H 0.93782 0.12994 0.84513 0.0
C392 C 0.45516 0.40078 0.29583 0.0
C393 C 0.40489 0.40548 0.28906 0.0
C394 C 0.3954 0.45088 0.17516 0.0
C395 C 0.4463 0.45224 0.18396 0.0
N396 N 0.52497 0.43216 0.2561 0.0
N397 N 0.32695 0.43949 0.22399 0.0
C398 C 0.47626 0.42819 0.24527 0.0
C399 C 0.37478 0.43106 0.22895 0.0
N400 N 0.48268 0.36868 0.3501 0.0
N401 N 0.36653 0.4696 0.11556 0.0
H402 H 0.31036 0.426 0.26208 0.0
H403 H 0.30429 0.46309 0.18354 0.0
H404 H 0.38009 0.48796 0.0763 0.0
H405 H 0.32981 0.46413 0.10438 0.0
H406 H 0.51872 0.35954 0.35524 0.0
H407 H 0.46821 0.34717 0.38753 0.0
H408 H 0.54771 0.42136 0.30155 0.0
H409 H 0.54263 0.4488 0.22018 0.0
C410 C 0.1227 0.93846 0.86434 0.0
C411 C 0.14084 0.88943 0.88471 0.0
C412 C 0.08516 0.87839 0.79146 0.0
C413 C 0.07689 0.93043 0.76201 0.0
N414 N 0.10176 0.0105 0.77514 0.0
N415 N 0.14479 0.81457 0.8586 0.0
C416 C 0.09955 0.96084 0.79937 0.0
C417 C 0.124 0.85994 0.84543 0.0
N418 N 0.12533 0.96363 0.90707 0.0
N419 N 0.05452 0.84592 0.77236 0.0
H420 H 0.17535 0.8008 0.89503 0.0
H421 H 0.13461 0.79307 0.82875 0.0
H422 H 0.02205 0.85616 0.73913 0.0
H423 H 0.05816 0.80835 0.79667 0.0
H424 H 0.10868 0.99834 0.89435 0.0
H425 H 0.13809 0.94758 0.95619 0.0
H426 H 0.1235 0.03053 0.80115 0.0
H427 H 0.08702 0.03238 0.7292 0.0
loop_
_geom_bond_atom_site_label_1
_geom_bond_atom_site_label_2
_geom_bond_distance
_geom_bond_site_symmetry_2
_ccdc_geom_bond_type
O0 Cd1 2.300 1_556 S
O0 C7 1.275 . S
Cd1 O0 2.300 1_554 S
Cd1 O9 2.381 . S
Cd1 O10 2.378 . S
O2 Cd3 2.385 1_556 S
O2 C7 1.255 . S
Cd3 O2 2.385 1_554 S
Cd3 O4 2.317 . S
O4 Cd3 2.317 . S
O4 C5 1.232 . S
C5 O4 1.232 . S
C5 O6 1.218 . S
O6 C5 1.218 . S
C7 O0 1.275 . S
C7 O2 1.255 . S
C8 O9 1.258 . S
C8 O10 1.256 . S
O9 Cd1 2.381 . S
O9 C8 1.258 . S
O10 Cd1 2.378 . S
O10 C8 1.256 . S
O11 Cd12 2.300 . S
O11 C18 1.275 . S
Cd12 O11 2.300 . S
Cd12 O20 2.381 . S
Cd12 O21 2.378 . S
O13 Cd14 2.385 . S
O13 C18 1.255 . S
Cd14 O13 2.385 . S
Cd14 O15 2.317 . S
O15 Cd14 2.317 . S
O15 C16 1.232 . S
C16 O15 1.232 . S
C16 O17 1.218 . S
O17 C16 1.218 . S
C18 O11 1.275 . S
C18 O13 1.255 . S
C19 O20 1.258 . S
C19 O21 1.256 . S
O20 Cd12 2.381 . S
O20 C19 1.258 . S
O21 Cd12 2.378 . S
O21 C19 1.256 . S
O22 Cd23 2.300 . S
O22 C29 1.275 . S
Cd23 O22 2.300 . S
Cd23 O31 2.381 . S
Cd23 O32 2.378 . S
O24 Cd25 2.385 . S
O24 C29 1.255 . S
Cd25 O24 2.385 . S
Cd25 O26 2.317 . S
O26 Cd25 2.317 . S
O26 C27 1.232 . S
C27 O26 1.232 . S
C27 O28 1.218 . S
O28 C27 1.218 . S
C29 O22 1.275 . S
C29 O24 1.255 . S
C30 O31 1.258 . S
C30 O32 1.256 . S
O31 Cd23 2.381 . S
O31 C30 1.258 . S
O32 Cd23 2.378 . S
O32 C30 1.256 . S
O33 Cd34 2.300 . S
O33 C40 1.275 . S
Cd34 O33 2.300 . S
Cd34 O42 2.381 . S
Cd34 O43 2.378 . S
O35 Cd36 2.385 . S
O35 C40 1.255 . S
Cd36 O35 2.385 . S
Cd36 O37 2.317 . S
O37 Cd36 2.317 . S
O37 C38 1.232 . S
C38 O37 1.232 . S
C38 O39 1.218 . S
O39 C38 1.218 . S
C40 O33 1.275 . S
C40 O35 1.255 . S
C41 O42 1.258 . S
C41 O43 1.256 . S
O42 Cd34 2.381 . S
O42 C41 1.258 . S
O43 Cd34 2.378 . S
O43 C41 1.256 . S
Tb44 N73 2.617 . S
Tb44 N79 2.572 . S
Tb44 O88 2.465 . S
Tb44 O89 2.387 . S
Tb44 O91 2.428 . S
Tb44 O92 2.308 1_565 S
Tb44 O96 2.349 1_465 S
Tb44 O99 2.393 1_455 S
Tb44 C108 2.802 . S
C45 N46 1.379 . S
C45 C48 1.416 . S
C45 C52 1.424 . S
N46 C45 1.379 . S
N46 C49 1.334 1_655 S
N46 Tb55 2.617 . S
C47 C49 1.390 . S
C47 C50 1.339 1_455 S
C47 H67 0.930 . S
C48 C45 1.416 . S
C48 C50 1.416 . S
C48 C54 1.448 . S
C49 N46 1.334 1_455 S
C49 C47 1.390 . S
C49 H60 0.930 . S
C50 C47 1.339 1_655 S
C50 C48 1.416 . S
C50 H71 0.930 . S
C51 C52 1.413 . S
C51 C53 1.427 . S
C51 C57 1.416 . S
C52 C45 1.424 . S
C52 C51 1.413 . S
C52 N56 1.361 . S
C53 C51 1.427 . S
C53 C54 1.328 . S
C53 H68 0.929 . S
C54 C48 1.448 . S
C54 C53 1.328 . S
C54 H69 0.930 . S
Tb55 N46 2.617 . S
Tb55 N56 2.572 . S
Tb55 O90 2.349 1_655 S
Tb55 O93 2.393 1_655 S
Tb55 O94 2.465 . S
Tb55 O95 2.387 . S
Tb55 O97 2.428 . S
Tb55 O98 2.308 1_545 S
Tb55 C119 2.802 . S
N56 C52 1.361 . S
N56 Tb55 2.572 . S
N56 C58 1.340 . S
C57 C51 1.416 . S
C57 C59 1.332 . S
C57 H65 0.931 . S
C58 N56 1.340 . S
C58 C59 1.407 . S
C58 H64 0.930 . S
C59 C57 1.332 . S
C59 C58 1.407 . S
C59 H61 0.929 . S
H60 C49 0.930 . S
H61 C59 0.929 . S
H62 C77 0.930 1_655 S
H63 C84 0.929 . S
H64 C58 0.930 . S
H65 C57 0.931 . S
H66 C80 0.930 . S
H67 C47 0.930 . S
H68 C53 0.929 . S
H69 C54 0.930 . S
H70 C75 0.930 1_655 S
H71 C50 0.930 . S
H72 C83 0.931 . S
N73 Tb44 2.617 . S
N73 C74 1.379 . S
N73 C77 1.334 . S
C74 N73 1.379 . S
C74 C76 1.416 . S
C74 C82 1.424 . S
C75 H70 0.930 1_455 S
C75 C77 1.390 . S
C75 C78 1.339 . S
C76 C74 1.416 . S
C76 C78 1.416 . S
C76 C109 1.448 . S
C77 H62 0.930 1_455 S
C77 N73 1.334 . S
C77 C75 1.390 . S
C78 C75 1.339 . S
C78 C76 1.416 . S
C78 H85 0.930 . S
N79 Tb44 2.572 . S
N79 C80 1.340 . S
N79 C82 1.361 . S
C80 H66 0.930 . S
C80 N79 1.340 . S
C80 C84 1.407 . S
C81 C82 1.413 . S
C81 C83 1.416 . S
C81 C110 1.427 . S
C82 C74 1.424 . S
C82 N79 1.361 . S
C82 C81 1.413 . S
C83 H72 0.931 . S
C83 C81 1.416 . S
C83 C84 1.332 . S
C84 H63 0.929 . S
C84 C80 1.407 . S
C84 C83 1.332 . S
H85 C78 0.930 . S
H86 C109 0.930 . S
H87 C110 0.929 . S
O88 Tb44 2.465 . S
O88 C108 1.264 . S
O89 Tb44 2.387 . S
O89 C100 1.264 . S
O90 Tb55 2.349 1_455 S
O90 C100 1.243 1_545 S
O91 Tb44 2.428 . S
O91 C108 1.256 . S
O92 Tb44 2.308 1_545 S
O92 C107 1.266 . S
O93 Tb55 2.393 1_455 S
O93 C107 1.248 . S
O94 Tb55 2.465 . S
O94 C119 1.264 . S
O95 Tb55 2.387 . S
O95 C111 1.264 . S
O96 Tb44 2.349 1_645 S
O96 C111 1.243 . S
O97 Tb55 2.428 . S
O97 C119 1.256 . S
O98 Tb55 2.308 1_565 S
O98 C118 1.266 . S
O99 Tb44 2.393 1_655 S
O99 C118 1.248 . S
C100 O89 1.264 . S
C100 O90 1.243 1_565 S
C101 C104 1.399 . S
C101 C106 1.383 . S
C101 C108 1.496 . S
C102 C103 1.399 . S
C102 C106 1.389 . S
C103 C102 1.399 . S
C103 C105 1.380 . S
C103 H120 0.929 . S
C104 C101 1.399 . S
C104 C105 1.392 . S
C104 H121 0.929 . S
C105 C103 1.380 . S
C105 C104 1.392 . S
C105 H122 0.929 . S
C106 C101 1.383 . S
C106 C102 1.389 . S
C106 H123 0.931 . S
C107 O92 1.266 . S
C107 O93 1.248 . S
C108 Tb44 2.802 . S
C108 O88 1.264 . S
C108 O91 1.256 . S
C108 C101 1.496 . S
C109 C76 1.448 . S
C109 H86 0.930 . S
C109 C110 1.328 . S
C110 C81 1.427 . S
C110 H87 0.929 . S
C110 C109 1.328 . S
C111 O95 1.264 . S
C111 O96 1.243 . S
C112 C115 1.399 . S
C112 C116 1.383 . S
C112 C119 1.496 . S
C113 C114 1.399 . S
C113 C116 1.389 . S
C114 C113 1.399 . S
C114 C117 1.380 . S
C114 H124 0.929 . S
C115 C112 1.399 . S
C115 C117 1.392 . S
C115 H125 0.929 . S
C116 C112 1.383 . S
C116 C113 1.389 . S
C116 H126 0.931 . S
C117 C114 1.380 . S
C117 C115 1.392 . S
C117 H127 0.929 . S
C118 O98 1.266 . S
C118 O99 1.248 . S
C119 Tb55 2.802 . S
C119 O94 1.264 . S
C119 O97 1.256 . S
C119 C112 1.496 . S
H120 C103 0.929 . S
H121 C104 0.929 . S
H122 C105 0.929 . S
H123 C106 0.931 . S
H124 C114 0.929 . S
H125 C115 0.929 . S
H126 C116 0.931 . S
H127 C117 0.929 . S
Tb128 N157 2.617 . S
Tb128 N163 2.572 1_556 S
Tb128 O172 2.465 . S
Tb128 O173 2.387 1_556 S
Tb128 O175 2.428 . S
Tb128 O176 2.308 1_556 S
Tb128 O180 2.349 . S
Tb128 O183 2.393 . S
Tb128 C192 2.802 . S
C129 N130 1.379 . S
C129 C132 1.416 . S
C129 C136 1.424 . S
N130 C129 1.379 . S
N130 C133 1.334 . S
N130 Tb139 2.617 . S
C131 C133 1.390 . S
C131 C134 1.339 . S
C131 H151 0.930 . S
C132 C129 1.416 . S
C132 C134 1.416 . S
C132 C138 1.448 . S
C133 N130 1.334 . S
C133 C131 1.390 . S
C133 H144 0.930 . S
C134 C131 1.339 . S
C134 C132 1.416 . S
C134 H155 0.930 . S
C135 C136 1.413 . S
C135 C137 1.427 . S
C135 C141 1.416 . S
C136 C129 1.424 . S
C136 C135 1.413 . S
C136 N140 1.361 . S
C137 C135 1.427 . S
C137 C138 1.328 . S
C137 H152 0.929 . S
C138 C132 1.448 . S
C138 C137 1.328 . S
C138 H153 0.930 . S
Tb139 N130 2.617 . S
Tb139 N140 2.572 . S
Tb139 O174 2.349 . S
Tb139 O177 2.393 . S
Tb139 O178 2.465 . S
Tb139 O179 2.387 . S
Tb139 O181 2.428 . S
Tb139 O182 2.308 . S
Tb139 C203 2.802 . S
N140 C136 1.361 . S
N140 Tb139 2.572 . S
N140 C142 1.340 . S
C141 C135 1.416 . S
C141 C143 1.332 . S
C141 H149 0.931 . S
C142 N140 1.340 . S
C142 C143 1.407 . S
C142 H148 0.930 . S
C143 C141 1.332 . S
C143 C142 1.407 . S
C143 H145 0.929 . S
H144 C133 0.930 . S
H145 C143 0.929 . S
H146 C161 0.930 . S
H147 C168 0.929 . S
H148 C142 0.930 . S
H149 C141 0.931 . S
H150 C164 0.930 . S
H151 C131 0.930 . S
H152 C137 0.929 . S
H153 C138 0.930 . S
H154 C159 0.930 . S
H155 C134 0.930 . S
H156 C167 0.931 . S
N157 Tb128 2.617 . S
N157 C158 1.379 1_556 S
N157 C161 1.334 . S
C158 N157 1.379 1_554 S
C158 C160 1.416 . S
C158 C166 1.424 . S
C159 H154 0.930 . S
C159 C161 1.390 . S
C159 C162 1.339 1_556 S
C160 C158 1.416 . S
C160 C162 1.416 . S
C160 C193 1.448 . S
C161 H146 0.930 . S
C161 N157 1.334 . S
C161 C159 1.390 . S
C162 C159 1.339 1_554 S
C162 C160 1.416 . S
C162 H169 0.930 . S
N163 Tb128 2.572 1_554 S
N163 C164 1.340 . S
N163 C166 1.361 . S
C164 H150 0.930 . S
C164 N163 1.340 . S
C164 C168 1.407 . S
C165 C166 1.413 . S
C165 C167 1.416 . S
C165 C194 1.427 . S
C166 C158 1.424 . S
C166 N163 1.361 . S
C166 C165 1.413 . S
C167 H156 0.931 . S
C167 C165 1.416 . S
C167 C168 1.332 . S
C168 H147 0.929 . S
C168 C164 1.407 . S
C168 C167 1.332 . S
H169 C162 0.930 . S
H170 C193 0.930 . S
H171 C194 0.929 . S
O172 Tb128 2.465 . S
O172 C192 1.264 . S
O173 Tb128 2.387 1_554 S
O173 C184 1.264 . S
O174 Tb139 2.349 . S
O174 C184 1.243 . S
O175 Tb128 2.428 . S
O175 C192 1.256 . S
O176 Tb128 2.308 1_554 S
O176 C191 1.266 . S
O177 Tb139 2.393 . S
O177 C191 1.248 . S
O178 Tb139 2.465 . S
O178 C203 1.264 . S
O179 Tb139 2.387 . S
O179 C195 1.264 1_554 S
O180 Tb128 2.349 . S
O180 C195 1.243 . S
O181 Tb139 2.428 . S
O181 C203 1.256 . S
O182 Tb139 2.308 . S
O182 C202 1.266 . S
O183 Tb128 2.393 . S
O183 C202 1.248 1_556 S
C184 O173 1.264 . S
C184 O174 1.243 . S
C185 C188 1.399 . S
C185 C190 1.383 . S
C185 C192 1.496 . S
C186 C187 1.399 . S
C186 C190 1.389 . S
C187 C186 1.399 . S
C187 C189 1.380 . S
C187 H204 0.929 . S
C188 C185 1.399 . S
C188 C189 1.392 . S
C188 H205 0.929 . S
C189 C187 1.380 . S
C189 C188 1.392 . S
C189 H206 0.929 . S
C190 C185 1.383 . S
C190 C186 1.389 . S
C190 H207 0.931 . S
C191 O176 1.266 . S
C191 O177 1.248 . S
C192 Tb128 2.802 . S
C192 O172 1.264 . S
C192 O175 1.256 . S
C192 C185 1.496 . S
C193 C160 1.448 . S
C193 H170 0.930 . S
C193 C194 1.328 . S
C194 C165 1.427 . S
C194 H171 0.929 . S
C194 C193 1.328 . S
C195 O179 1.264 1_556 S
C195 O180 1.243 . S
C196 C199 1.399 . S
C196 C200 1.383 . S
C196 C203 1.496 . S
C197 C198 1.399 . S
C197 C200 1.389 . S
C198 C197 1.399 . S
C198 C201 1.380 . S
C198 H208 0.929 . S
C199 C196 1.399 . S
C199 C201 1.392 . S
C199 H209 0.929 . S
C200 C196 1.383 . S
C200 C197 1.389 . S
C200 H210 0.931 . S
C201 C198 1.380 . S
C201 C199 1.392 . S
C201 H211 0.929 . S
C202 O182 1.266 . S
C202 O183 1.248 1_554 S
C203 Tb139 2.802 . S
C203 O178 1.264 . S
C203 O181 1.256 . S
C203 C196 1.496 . S
H204 C187 0.929 . S
H205 C188 0.929 . S
H206 C189 0.929 . S
H207 C190 0.931 . S
H208 C198 0.929 . S
H209 C199 0.929 . S
H210 C200 0.931 . S
H211 C201 0.929 . S
C212 C213 1.363 . S
C212 C218 1.379 . S
C212 N220 1.356 . S
C213 C212 1.363 . S
C213 C219 1.363 . S
C214 C215 1.363 . S
C214 C219 1.379 . S
C214 N221 1.356 . S
C215 C214 1.363 . S
C215 C218 1.363 . S
N216 C218 1.356 . S
N216 H228 0.984 . S
N216 H229 0.985 . S
N217 C219 1.356 . S
N217 H222 0.984 . S
N217 H223 0.985 . S
C218 C212 1.379 . S
C218 C215 1.363 . S
C218 N216 1.356 . S
C219 C213 1.363 . S
C219 C214 1.379 . S
C219 N217 1.356 . S
N220 C212 1.356 . S
N220 H226 0.984 . S
N220 H227 0.984 . S
N221 C214 1.356 . S
N221 H224 0.984 . S
N221 H225 0.985 . S
H222 N217 0.984 . S
H223 N217 0.985 . S
H224 N221 0.984 . S
H225 N221 0.985 . S
H226 N220 0.984 . S
H227 N220 0.984 . S
H228 N216 0.984 . S
H229 N216 0.985 . S
C230 C231 1.363 . S
C230 C236 1.379 . S
C230 N238 1.356 . S
C231 C230 1.363 . S
C231 C237 1.363 . S
C232 C233 1.363 . S
C232 C237 1.379 . S
C232 N239 1.356 1_554 S
C233 C232 1.363 . S
C233 C236 1.363 . S
N234 C236 1.356 . S
N234 H246 0.984 . S
N234 H247 0.985 . S
N235 C237 1.356 1_556 S
N235 H240 0.984 . S
N235 H241 0.985 . S
C236 C230 1.379 . S
C236 C233 1.363 . S
C236 N234 1.356 . S
C237 C231 1.363 . S
C237 C232 1.379 . S
C237 N235 1.356 1_554 S
N238 C230 1.356 . S
N238 H244 0.984 . S
N238 H245 0.984 . S
N239 C232 1.356 1_556 S
N239 H242 0.984 . S
N239 H243 0.985 . S
H240 N235 0.984 . S
H241 N235 0.985 . S
H242 N239 0.984 . S
H243 N239 0.985 . S
H244 N238 0.984 . S
H245 N238 0.984 . S
H246 N234 0.984 . S
H247 N234 0.985 . S
C248 C249 1.363 . S
C248 C254 1.379 . S
C248 N256 1.356 . S
C249 C248 1.363 . S
C249 C255 1.363 . S
C250 C251 1.363 . S
C250 C255 1.379 . S
C250 N257 1.356 . S
C251 C250 1.363 . S
C251 C254 1.363 . S
N252 C254 1.356 . S
N252 H264 0.984 1_565 S
N252 H265 0.985 . S
N253 C255 1.356 . S
N253 H258 0.984 . S
N253 H259 0.985 . S
C254 C248 1.379 . S
C254 C251 1.363 . S
C254 N252 1.356 . S
C255 C249 1.363 . S
C255 C250 1.379 . S
C255 N253 1.356 . S
N256 C248 1.356 . S
N256 H262 0.984 . S
N256 H263 0.984 . S
N257 C250 1.356 . S
N257 H260 0.984 . S
N257 H261 0.985 . S
H258 N253 0.984 . S
H259 N253 0.985 . S
H260 N257 0.984 . S
H261 N257 0.985 . S
H262 N256 0.984 . S
H263 N256 0.984 . S
H264 N252 0.984 1_545 S
H265 N252 0.985 . S
C266 C267 1.363 . S
C266 C272 1.379 . S
C266 N274 1.356 . S
C267 C266 1.363 . S
C267 C273 1.363 . S
C268 C269 1.363 . S
C268 C273 1.379 . S
C268 N275 1.356 1_554 S
C269 C268 1.363 . S
C269 C272 1.363 . S
N270 C272 1.356 . S
N270 H282 0.984 . S
N270 H283 0.985 . S
N271 C273 1.356 . S
N271 H276 0.984 . S
N271 H277 0.985 1_554 S
C272 C266 1.379 . S
C272 C269 1.363 . S
C272 N270 1.356 . S
C273 C267 1.363 . S
C273 C268 1.379 . S
C273 N271 1.356 . S
N274 C266 1.356 . S
N274 H280 0.984 . S
N274 H281 0.984 . S
N275 C268 1.356 1_556 S
N275 H278 0.984 . S
N275 H279 0.985 . S
H276 N271 0.984 . S
H277 N271 0.985 1_556 S
H278 N275 0.984 . S
H279 N275 0.985 . S
H280 N274 0.984 . S
H281 N274 0.984 . S
H282 N270 0.984 . S
H283 N270 0.985 . S
C284 C285 1.363 . S
C284 C290 1.379 . S
C284 N292 1.356 . S
C285 C284 1.363 . S
C285 C291 1.363 . S
C286 C287 1.363 . S
C286 C291 1.379 . S
C286 N293 1.356 1_565 S
C287 C286 1.363 . S
C287 C290 1.363 . S
N288 C290 1.356 . S
N288 H300 0.984 . S
N288 H301 0.985 . S
N289 C291 1.356 . S
N289 H294 0.984 . S
N289 H295 0.985 1_565 S
C290 C284 1.379 . S
C290 C287 1.363 . S
C290 N288 1.356 . S
C291 C285 1.363 . S
C291 C286 1.379 . S
C291 N289 1.356 . S
N292 C284 1.356 . S
N292 H298 0.984 . S
N292 H299 0.984 . S
N293 C286 1.356 1_545 S
N293 H296 0.984 . S
N293 H297 0.985 . S
H294 N289 0.984 . S
H295 N289 0.985 1_545 S
H296 N293 0.984 . S
H297 N293 0.985 . S
H298 N292 0.984 . S
H299 N292 0.984 . S
H300 N288 0.984 . S
H301 N288 0.985 . S
C302 C303 1.363 . S
C302 C308 1.379 . S
C302 N310 1.356 . S
C303 C302 1.363 . S
C303 C309 1.363 . S
C304 C305 1.363 . S
C304 C309 1.379 . S
C304 N311 1.356 . S
C305 C304 1.363 . S
C305 C308 1.363 . S
N306 C308 1.356 . S
N306 H318 0.984 . S
N306 H319 0.985 . S
N307 C309 1.356 . S
N307 H312 0.984 . S
N307 H313 0.985 . S
C308 C302 1.379 . S
C308 C305 1.363 . S
C308 N306 1.356 . S
C309 C303 1.363 . S
C309 C304 1.379 . S
C309 N307 1.356 . S
N310 C302 1.356 . S
N310 H316 0.984 . S
N310 H317 0.984 . S
N311 C304 1.356 . S
N311 H314 0.984 . S
N311 H315 0.985 . S
H312 N307 0.984 . S
H313 N307 0.985 . S
H314 N311 0.984 . S
H315 N311 0.985 . S
H316 N310 0.984 . S
H317 N310 0.984 . S
H318 N306 0.984 . S
H319 N306 0.985 . S
C320 C321 1.363 . S
C320 C326 1.379 . S
C320 N328 1.356 . S
C321 C320 1.363 . S
C321 C327 1.363 . S
C322 C323 1.363 . S
C322 C327 1.379 . S
C322 N329 1.356 . S
C323 C322 1.363 . S
C323 C326 1.363 . S
N324 C326 1.356 1_565 S
N324 H336 0.984 . S
N324 H337 0.985 . S
N325 C327 1.356 . S
N325 H330 0.984 . S
N325 H331 0.985 . S
C326 C320 1.379 . S
C326 C323 1.363 . S
C326 N324 1.356 1_545 S
C327 C321 1.363 . S
C327 C322 1.379 . S
C327 N325 1.356 . S
N328 C320 1.356 . S
N328 H334 0.984 1_545 S
N328 H335 0.984 . S
N329 C322 1.356 . S
N329 H332 0.984 . S
N329 H333 0.985 . S
H330 N325 0.984 . S
H331 N325 0.985 . S
H332 N329 0.984 . S
H333 N329 0.985 . S
H334 N328 0.984 1_565 S
H335 N328 0.984 . S
H336 N324 0.984 . S
H337 N324 0.985 . S
C338 C339 1.363 . S
C338 C344 1.379 . S
C338 N346 1.356 . S
C339 C338 1.363 . S
C339 C345 1.363 . S
C340 C341 1.363 . S
C340 C345 1.379 . S
C340 N347 1.356 . S
C341 C340 1.363 . S
C341 C344 1.363 . S
N342 C344 1.356 . S
N342 H354 0.984 . S
N342 H355 0.985 . S
N343 C345 1.356 . S
N343 H348 0.984 . S
N343 H349 0.985 . S
C344 C338 1.379 . S
C344 C341 1.363 . S
C344 N342 1.356 . S
C345 C339 1.363 . S
C345 C340 1.379 . S
C345 N343 1.356 . S
N346 C338 1.356 . S
N346 H352 0.984 . S
N346 H353 0.984 . S
N347 C340 1.356 . S
N347 H350 0.984 . S
N347 H351 0.985 . S
H348 N343 0.984 . S
H349 N343 0.985 . S
H350 N347 0.984 . S
H351 N347 0.985 . S
H352 N346 0.984 . S
H353 N346 0.984 . S
H354 N342 0.984 . S
H355 N342 0.985 . S
C356 C357 1.363 . S
C356 C362 1.379 . S
C356 N364 1.356 . S
C357 C356 1.363 . S
C357 C363 1.363 . S
C358 C359 1.363 . S
C358 C363 1.379 . S
C358 N365 1.356 . S
C359 C358 1.363 . S
C359 C362 1.363 . S
N360 C362 1.356 . S
N360 H372 0.984 . S
N360 H373 0.985 . S
N361 C363 1.356 . S
N361 H366 0.984 . S
N361 H367 0.985 . S
C362 C356 1.379 . S
C362 C359 1.363 . S
C362 N360 1.356 . S
C363 C357 1.363 . S
C363 C358 1.379 . S
C363 N361 1.356 . S
N364 C356 1.356 . S
N364 H370 0.984 . S
N364 H371 0.984 . S
N365 C358 1.356 . S
N365 H368 0.984 . S
N365 H369 0.985 . S
H366 N361 0.984 . S
H367 N361 0.985 . S
H368 N365 0.984 . S
H369 N365 0.985 . S
H370 N364 0.984 . S
H371 N364 0.984 . S
H372 N360 0.984 . S
H373 N360 0.985 . S
C374 C375 1.363 . S
C374 C380 1.379 . S
C374 N382 1.356 . S
C375 C374 1.363 . S
C375 C381 1.363 1_556 S
C376 C377 1.363 . S
C376 C381 1.379 1_556 S
C376 N383 1.356 . S
C377 C376 1.363 . S
C377 C380 1.363 . S
N378 C380 1.356 . S
N378 H390 0.984 . S
N378 H391 0.985 . S
N379 C381 1.356 . S
N379 H384 0.984 . S
N379 H385 0.985 . S
C380 C374 1.379 . S
C380 C377 1.363 . S
C380 N378 1.356 . S
C381 C375 1.363 1_554 S
C381 C376 1.379 1_554 S
C381 N379 1.356 . S
N382 C374 1.356 . S
N382 H388 0.984 . S
N382 H389 0.984 . S
N383 C376 1.356 . S
N383 H386 0.984 . S
N383 H387 0.985 1_546 S
H384 N379 0.984 . S
H385 N379 0.985 . S
H386 N383 0.984 . S
H387 N383 0.985 1_564 S
H388 N382 0.984 . S
H389 N382 0.984 . S
H390 N378 0.984 . S
H391 N378 0.985 . S
C392 C393 1.363 . S
C392 C398 1.379 . S
C392 N400 1.356 . S
C393 C392 1.363 . S
C393 C399 1.363 . S
C394 C395 1.363 . S
C394 C399 1.379 . S
C394 N401 1.356 . S
C395 C394 1.363 . S
C395 C398 1.363 . S
N396 C398 1.356 . S
N396 H408 0.984 . S
N396 H409 0.985 . S
N397 C399 1.356 . S
N397 H402 0.984 . S
N397 H403 0.985 . S
C398 C392 1.379 . S
C398 C395 1.363 . S
C398 N396 1.356 . S
C399 C393 1.363 . S
C399 C394 1.379 . S
C399 N397 1.356 . S
N400 C392 1.356 . S
N400 H406 0.984 . S
N400 H407 0.984 . S
N401 C394 1.356 . S
N401 H404 0.984 . S
N401 H405 0.985 . S
H402 N397 0.984 . S
H403 N397 0.985 . S
H404 N401 0.984 . S
H405 N401 0.985 . S
H406 N400 0.984 . S
H407 N400 0.984 . S
H408 N396 0.984 . S
H409 N396 0.985 . S
C410 C411 1.363 . S
C410 C416 1.379 . S
C410 N418 1.356 . S
C411 C410 1.363 . S
C411 C417 1.363 . S
C412 C413 1.363 . S
C412 C417 1.379 . S
C412 N419 1.356 . S
C413 C412 1.363 . S
C413 C416 1.363 . S
N414 C416 1.356 1_545 S
N414 H426 0.984 . S
N414 H427 0.985 . S
N415 C417 1.356 . S
N415 H420 0.984 . S
N415 H421 0.985 . S
C416 C410 1.379 . S
C416 C413 1.363 . S
C416 N414 1.356 1_565 S
C417 C411 1.363 . S
C417 C412 1.379 . S
C417 N415 1.356 . S
N418 C410 1.356 . S
N418 H424 0.984 1_565 S
N418 H425 0.984 . S
N419 C412 1.356 . S
N419 H422 0.984 . S
N419 H423 0.985 . S
H420 N415 0.984 . S
H421 N415 0.985 . S
H422 N419 0.984 . S
H423 N419 0.985 . S
H424 N418 0.984 1_545 S
H425 N418 0.984 . S
H426 N414 0.984 . S
H427 N414 0.985 . S
C215 C107 1.610 . S
C213 C41 1.604 . S
C231 C8 1.627 . S
C233 C202 1.630 . S
C249 C19 1.730 . S
C251 C118 1.782 . S
C267 C30 1.586 . S
C269 C191 1.600 . S
C287 C102 1.435 . S
C285 C5 1.446 . S
C305 C195 1.794 . S
C303 C18 1.748 . S
C321 C29 1.596 . S
C323 C111 1.712 . S
C339 C40 1.592 . S
C341 C186 1.511 . S
C359 C197 1.397 . S
C357 C16 1.319 . S
C377 C113 1.349 . S
C375 C27 1.290 1_556 S
C395 C184 1.544 . S
C393 C38 1.280 . S
C411 C7 1.495 . S
C413 C100 1.525 . S
