# Generated by pormake.
# Topology ocu, (6,8)-cn, num edge types: 1
# Building blocks:
#     Node 0, Type 0, BuildingBlock: BETDEL_clean_sbu_0, # of connection points: 6
#     Node 1, Type 0, BuildingBlock: BETDEL_clean_sbu_0, # of connection points: 6
#     Node 2, Type 0, BuildingBlock: BETDEL_clean_sbu_0, # of connection points: 6
#     Node 3, Type 0, BuildingBlock: BETDEL_clean_sbu_0, # of connection points: 6
#     Node 4, Type 0, BuildingBlock: BETDEL_clean_sbu_0, # of connection points: 6
#     Node 5, Type 0, BuildingBlock: BETDEL_clean_sbu_0, # of connection points: 6
#     Node 6, Type 0, BuildingBlock: BETDEL_clean_sbu_0, # of connection points: 6
#     Node 7, Type 0, BuildingBlock: BETDEL_clean_sbu_0, # of connection points: 6
#     Node 8, Type 1, BuildingBlock: TAGTUT_clean_sbu_1, # of connection points: 8
#     Node 9, Type 1, BuildingBlock: TAGTUT_clean_sbu_1, # of connection points: 8
#     Node 10, Type 1, BuildingBlock: TAGTUT_clean_sbu_1, # of connection points: 8
#     Node 11, Type 1, BuildingBlock: TAGTUT_clean_sbu_1, # of connection points: 8
#     Node 12, Type 1, BuildingBlock: TAGTUT_clean_sbu_1, # of connection points: 8
#     Node 13, Type 1, BuildingBlock: TAGTUT_clean_sbu_1, # of connection points: 8
#     Edge 14, Type (0, 1), BuildingBlock: TEMPAE_clean_linker_10, # of connection points: 2
#     Edge 15, Type (0, 1), BuildingBlock: TEMPAE_clean_linker_10, # of connection points: 2
#     Edge 16, Type (0, 1), BuildingBlock: TEMPAE_clean_linker_10, # of connection points: 2
#     Edge 17, Type (0, 1), BuildingBlock: TEMPAE_clean_linker_10, # of connection points: 2
#     Edge 18, Type (0, 1), BuildingBlock: TEMPAE_clean_linker_10, # of connection points: 2
#     Edge 19, Type (0, 1), BuildingBlock: TEMPAE_clean_linker_10, # of connection points: 2
#     Edge 20, Type (0, 1), BuildingBlock: TEMPAE_clean_linker_10, # of connection points: 2
#     Edge 21, Type (0, 1), BuildingBlock: TEMPAE_clean_linker_10, # of connection points: 2
#     Edge 22, Type (0, 1), BuildingBlock: TEMPAE_clean_linker_10, # of connection points: 2
#     Edge 23, Type (0, 1), BuildingBlock: TEMPAE_clean_linker_10, # of connection points: 2
#     Edge 24, Type (0, 1), BuildingBlock: TEMPAE_clean_linker_10, # of connection points: 2
#     Edge 25, Type (0, 1), BuildingBlock: TEMPAE_clean_linker_10, # of connection points: 2
#     Edge 26, Type (0, 1), BuildingBlock: TEMPAE_clean_linker_10, # of connection points: 2
#     Edge 27, Type (0, 1), BuildingBlock: TEMPAE_clean_linker_10, # of connection points: 2
#     Edge 28, Type (0, 1), BuildingBlock: TEMPAE_clean_linker_10, # of connection points: 2
#     Edge 29, Type (0, 1), BuildingBlock: TEMPAE_clean_linker_10, # of connection points: 2
#     Edge 30, Type (0, 1), BuildingBlock: TEMPAE_clean_linker_10, # of connection points: 2
#     Edge 31, Type (0, 1), BuildingBlock: TEMPAE_clean_linker_10, # of connection points: 2
#     Edge 32, Type (0, 1), BuildingBlock: TEMPAE_clean_linker_10, # of connection points: 2
#     Edge 33, Type (0, 1), BuildingBlock: TEMPAE_clean_linker_10, # of connection points: 2
#     Edge 34, Type (0, 1), BuildingBlock: TEMPAE_clean_linker_10, # of connection points: 2
#     Edge 35, Type (0, 1), BuildingBlock: TEMPAE_clean_linker_10, # of connection points: 2
#     Edge 36, Type (0, 1), BuildingBlock: TEMPAE_clean_linker_10, # of connection points: 2
#     Edge 37, Type (0, 1), BuildingBlock: TEMPAE_clean_linker_10, # of connection points: 2
#     Edge 38, Type (0, 1), BuildingBlock: TEMPAE_clean_linker_10, # of connection points: 2
#     Edge 39, Type (0, 1), BuildingBlock: TEMPAE_clean_linker_10, # of connection points: 2
#     Edge 40, Type (0, 1), BuildingBlock: TEMPAE_clean_linker_10, # of connection points: 2
#     Edge 41, Type (0, 1), BuildingBlock: TEMPAE_clean_linker_10, # of connection points: 2
#     Edge 42, Type (0, 1), BuildingBlock: TEMPAE_clean_linker_10, # of connection points: 2
#     Edge 43, Type (0, 1), BuildingBlock: TEMPAE_clean_linker_10, # of connection points: 2
#     Edge 44, Type (0, 1), BuildingBlock: TEMPAE_clean_linker_10, # of connection points: 2
#     Edge 45, Type (0, 1), BuildingBlock: TEMPAE_clean_linker_10, # of connection points: 2
#     Edge 46, Type (0, 1), BuildingBlock: TEMPAE_clean_linker_10, # of connection points: 2
#     Edge 47, Type (0, 1), BuildingBlock: TEMPAE_clean_linker_10, # of connection points: 2
#     Edge 48, Type (0, 1), BuildingBlock: TEMPAE_clean_linker_10, # of connection points: 2
#     Edge 49, Type (0, 1), BuildingBlock: TEMPAE_clean_linker_10, # of connection points: 2
#     Edge 50, Type (0, 1), BuildingBlock: TEMPAE_clean_linker_10, # of connection points: 2
#     Edge 51, Type (0, 1), BuildingBlock: TEMPAE_clean_linker_10, # of connection points: 2
#     Edge 52, Type (0, 1), BuildingBlock: TEMPAE_clean_linker_10, # of connection points: 2
#     Edge 53, Type (0, 1), BuildingBlock: TEMPAE_clean_linker_10, # of connection points: 2
#     Edge 54, Type (0, 1), BuildingBlock: TEMPAE_clean_linker_10, # of connection points: 2
#     Edge 55, Type (0, 1), BuildingBlock: TEMPAE_clean_linker_10, # of connection points: 2
#     Edge 56, Type (0, 1), BuildingBlock: TEMPAE_clean_linker_10, # of connection points: 2
#     Edge 57, Type (0, 1), BuildingBlock: TEMPAE_clean_linker_10, # of connection points: 2
#     Edge 58, Type (0, 1), BuildingBlock: TEMPAE_clean_linker_10, # of connection points: 2
#     Edge 59, Type (0, 1), BuildingBlock: TEMPAE_clean_linker_10, # of connection points: 2
#     Edge 60, Type (0, 1), BuildingBlock: TEMPAE_clean_linker_10, # of connection points: 2
#     Edge 61, Type (0, 1), BuildingBlock: TEMPAE_clean_linker_10, # of connection points: 2
# Relax obj value: 0.090
# Max RMSD: 0.257
# Mean RMSD: 0.149
data_MOF--net-ocu--node1-BETDEL_clean_sbu_0--node2-TAGTUT_clean_sbu_1--edge1-TEMPAE_clean_linker_10
_symmetry_space_group_name_H-M    P1
_symmetry_Int_Tables_number       1
_symmetry_cell_setting            triclinic
loop_
_symmetry_equiv_pos_as_xyz
'x, y, z'
_cell_length_a     38.567649
_cell_length_b     37.500213
_cell_length_c     38.753674
_cell_angle_alpha  91.718556
_cell_angle_beta   93.834069
_cell_angle_gamma 108.14633
loop_
_atom_site_label
_atom_site_type_symbol
_atom_site_fract_x
_atom_site_fract_y
_atom_site_fract_z
_atom_type_partial_charge
Dy0 Dy 0.27505 0.23288 0.27603 0.0
C1 C 0.22193 0.31934 0.1784 0.0
C2 C 0.29145 0.18222 0.31734 0.0
Dy3 Dy 0.23813 0.26843 0.21954 0.0
O4 O 0.30746 0.21847 0.32106 0.0
O5 O 0.26535 0.17457 0.29276 0.0
O6 O 0.33018 0.25977 0.25551 0.0
O7 O 0.29011 0.28611 0.25026 0.0
C8 C 0.32133 0.28705 0.2415 0.0
C9 C 0.19183 0.21443 0.25435 0.0
O10 O 0.26655 0.23715 0.18566 0.0
O11 O 0.2794 0.19972 0.22819 0.0
O12 O 0.20556 0.28314 0.17479 0.0
O13 O 0.24825 0.32676 0.20276 0.0
O14 O 0.183 0.24164 0.24018 0.0
O15 O 0.223 0.21532 0.24545 0.0
O16 O 0.24673 0.26421 0.30993 0.0
O17 O 0.234 0.3017 0.26739 0.0
C18 C 0.27939 0.20954 0.19558 0.0
C19 C 0.23401 0.2919 0.3 0.0
Dy20 Dy 0.78974 0.23761 0.25938 0.0
C21 C 0.66947 0.28473 0.20212 0.0
C22 C 0.84462 0.21772 0.29279 0.0
Dy23 Dy 0.72435 0.26501 0.23575 0.0
O24 O 0.8185 0.22546 0.30786 0.0
O25 O 0.84043 0.22041 0.25962 0.0
O26 O 0.79396 0.21962 0.2042 0.0
O27 O 0.74338 0.2186 0.22113 0.0
C28 C 0.75985 0.21509 0.19505 0.0
C29 C 0.75434 0.28741 0.30012 0.0
O30 O 0.69484 0.2071 0.25016 0.0
O31 O 0.74271 0.19827 0.28491 0.0
O32 O 0.67372 0.28236 0.23534 0.0
O33 O 0.69556 0.27682 0.18715 0.0
O34 O 0.72022 0.28293 0.29106 0.0
O35 O 0.77066 0.28397 0.27393 0.0
O36 O 0.81923 0.29556 0.24503 0.0
O37 O 0.77138 0.30435 0.21023 0.0
C38 C 0.70734 0.18909 0.27442 0.0
C39 C 0.80675 0.31355 0.22075 0.0
Dy40 Dy 0.73618 0.75233 0.28046 0.0
C41 C 0.80535 0.72585 0.15853 0.0
C42 C 0.70802 0.77488 0.33636 0.0
Dy43 Dy 0.77833 0.74919 0.21481 0.0
O44 O 0.74259 0.77986 0.33376 0.0
O45 O 0.68886 0.75728 0.30858 0.0
O46 O 0.71101 0.68932 0.27816 0.0
O47 O 0.72663 0.71783 0.23318 0.0
C48 C 0.71725 0.68609 0.24584 0.0
C49 C 0.79755 0.81538 0.24977 0.0
O50 O 0.73427 0.771 0.19107 0.0
O51 O 0.71379 0.78719 0.24263 0.0
O52 O 0.82504 0.74363 0.18601 0.0
O53 O 0.77093 0.72115 0.16166 0.0
O54 O 0.80384 0.81226 0.21743 0.0
O55 O 0.78794 0.78352 0.26213 0.0
O56 O 0.78042 0.73084 0.30427 0.0
O57 O 0.80086 0.71452 0.25272 0.0
C58 C 0.71418 0.78766 0.20816 0.0
C59 C 0.80049 0.71413 0.28719 0.0
Dy60 Dy 0.25959 0.7142 0.24161 0.0
C61 C 0.24837 0.85533 0.29379 0.0
C62 C 0.26362 0.65482 0.20213 0.0
Dy63 Dy 0.25292 0.79391 0.25759 0.0
O64 O 0.2753 0.66156 0.23474 0.0
O65 O 0.2492 0.67997 0.19176 0.0
O66 O 0.27329 0.70907 0.29845 0.0
O67 O 0.28738 0.76188 0.27637 0.0
C68 C 0.28553 0.74545 0.30425 0.0
C69 C 0.22638 0.76125 0.19522 0.0
O70 O 0.30883 0.81166 0.23938 0.0
O71 O 0.30646 0.75307 0.2153 0.0
O72 O 0.23256 0.84372 0.26297 0.0
O73 O 0.26702 0.83372 0.30429 0.0
O74 O 0.24014 0.79765 0.20003 0.0
O75 O 0.22471 0.7459 0.22357 0.0
O76 O 0.20348 0.69696 0.25935 0.0
O77 O 0.20754 0.75505 0.28571 0.0
C78 C 0.32241 0.78998 0.22039 0.0
C79 C 0.19084 0.71835 0.27966 0.0
Dy80 Dy 0.28975 0.73708 0.76031 0.0
C81 C 0.17367 0.78844 0.69954 0.0
C82 C 0.34227 0.71587 0.79654 0.0
Dy83 Dy 0.22608 0.76643 0.73499 0.0
O84 O 0.31668 0.72594 0.81027 0.0
O85 O 0.33885 0.71698 0.76311 0.0
O86 O 0.29354 0.71702 0.7056 0.0
O87 O 0.24347 0.7185 0.72198 0.0
C88 C 0.25967 0.71348 0.69618 0.0
C89 C 0.25592 0.78962 0.79921 0.0
O90 O 0.19455 0.70963 0.75063 0.0
O91 O 0.24158 0.69978 0.78591 0.0
O92 O 0.17725 0.78687 0.7329 0.0
O93 O 0.19897 0.77823 0.68539 0.0
O94 O 0.22204 0.78595 0.78976 0.0
O95 O 0.27223 0.78494 0.77337 0.0
O96 O 0.32127 0.79382 0.74459 0.0
O97 O 0.27426 0.80385 0.70945 0.0
C98 C 0.2063 0.69158 0.77535 0.0
C99 C 0.30953 0.81201 0.72 0.0
Dy100 Dy 0.23741 0.25461 0.78189 0.0
C101 C 0.30885 0.23176 0.65993 0.0
C102 C 0.20987 0.27666 0.83844 0.0
Dy103 Dy 0.27999 0.25281 0.71607 0.0
O104 O 0.19037 0.25909 0.81078 0.0
O105 O 0.24439 0.28196 0.83528 0.0
O106 O 0.21272 0.19151 0.77897 0.0
O107 O 0.22851 0.22069 0.7344 0.0
C108 C 0.21929 0.18877 0.74667 0.0
C109 C 0.2975 0.31868 0.75115 0.0
O110 O 0.23483 0.27304 0.69246 0.0
O111 O 0.21409 0.28878 0.74408 0.0
O112 O 0.32772 0.24885 0.68805 0.0
O113 O 0.2742 0.22643 0.66237 0.0
O114 O 0.3041 0.31603 0.71887 0.0
O115 O 0.28873 0.28678 0.76343 0.0
O116 O 0.28206 0.23348 0.8053 0.0
O117 O 0.30275 0.21797 0.75358 0.0
C118 C 0.21437 0.2892 0.7096 0.0
C119 C 0.30237 0.21724 0.78803 0.0
Dy120 Dy 0.76056 0.21147 0.73975 0.0
C121 C 0.74929 0.34976 0.79651 0.0
C122 C 0.76511 0.15231 0.70014 0.0
Dy123 Dy 0.75459 0.29137 0.75643 0.0
O124 O 0.77984 0.16124 0.73173 0.0
O125 O 0.74722 0.17504 0.69097 0.0
O126 O 0.77375 0.20658 0.79696 0.0
O127 O 0.78891 0.25898 0.77434 0.0
C128 C 0.7872 0.24298 0.80239 0.0
C129 C 0.72841 0.26026 0.69372 0.0
O130 O 0.8107 0.3089 0.7387 0.0
O131 O 0.80684 0.25058 0.71292 0.0
O132 O 0.73628 0.34225 0.76428 0.0
O133 O 0.76608 0.32618 0.80601 0.0
O134 O 0.74163 0.29664 0.69933 0.0
O135 O 0.72643 0.24407 0.72169 0.0
O136 O 0.70466 0.19372 0.75783 0.0
O137 O 0.7079 0.25221 0.78278 0.0
C138 C 0.82356 0.28727 0.71887 0.0
C139 C 0.69148 0.21542 0.77721 0.0
Dy140 Dy 0.78382 0.744 0.77715 0.0
C141 C 0.71 0.80982 0.68068 0.0
C142 C 0.81064 0.69597 0.8129 0.0
Dy143 Dy 0.72942 0.75785 0.71716 0.0
O144 O 0.8249 0.7325 0.81603 0.0
O145 O 0.78131 0.68652 0.79193 0.0
O146 O 0.82599 0.80009 0.76777 0.0
O147 O 0.78811 0.7704 0.72816 0.0
C148 C 0.81328 0.80084 0.73574 0.0
C149 C 0.69313 0.70669 0.76094 0.0
O150 O 0.75455 0.72177 0.68515 0.0
O151 O 0.79033 0.70813 0.73098 0.0
O152 O 0.69567 0.77353 0.67398 0.0
O153 O 0.7358 0.81694 0.70558 0.0
O154 O 0.67709 0.71452 0.73269 0.0
O155 O 0.72655 0.72515 0.76134 0.0
O156 O 0.75316 0.77338 0.80957 0.0
O157 O 0.72634 0.7958 0.76293 0.0
C158 C 0.77776 0.70422 0.69762 0.0
C159 C 0.73338 0.7942 0.79686 0.0
C160 C 0.9121 0.07358 0.53265 0.0
C161 C 0.97089 0.0866 0.43838 0.0
C162 C 0.95383 0.94208 0.4427 0.0
Mg163 Mg 0.99309 0.0882 0.51605 0.0
O164 O 0.97613 0.03552 0.51328 0.0
Mg165 Mg 0.9315 0.00911 0.48191 0.0
Mg166 Mg 0.0082 0.00718 0.49703 0.0
O167 O 0.0408 0.97963 0.48039 0.0
Mg168 Mg 0.02538 0.92713 0.47618 0.0
Mg169 Mg 0.08627 0.00689 0.51044 0.0
C170 C 0.06325 0.07184 0.55132 0.0
C171 C 0.07249 0.06395 0.45307 0.0
O172 O 0.90273 0.04394 0.51228 0.0
O173 O 0.94544 0.09473 0.5384 0.0
O174 O 0.9474 0.05446 0.44193 0.0
O175 O 0.99346 0.10438 0.46341 0.0
O176 O 0.04505 0.09508 0.54661 0.0
O177 O 0.05217 0.03847 0.53737 0.0
C178 C 0.94294 0.9538 0.54204 0.0
O179 O 0.97731 0.96289 0.53676 0.0
O180 O 0.92109 0.96664 0.52365 0.0
O181 O 0.11546 0.97407 0.47788 0.0
O182 O 0.07294 0.92268 0.45239 0.0
O183 O 0.07302 0.95973 0.5492 0.0
C184 C 0.10609 0.9445 0.45741 0.0
O185 O 0.02715 0.90947 0.52805 0.0
O186 O 0.9727 0.9194 0.4469 0.0
C187 C 0.05063 0.92691 0.55256 0.0
O188 O 0.96456 0.97545 0.45674 0.0
O189 O 0.03806 0.05172 0.45773 0.0
O190 O 0.09561 0.05203 0.47059 0.0
C191 C 0.42431 0.0856 0.04591 0.0
C192 C 0.44371 0.07982 0.93968 0.0
C193 C 0.44167 0.9305 0.96859 0.0
Mg194 Mg 0.49482 0.08902 0.00828 0.0
O195 O 0.47986 0.03706 0.01408 0.0
Mg196 Mg 0.42819 0.00871 0.99678 0.0
Mg197 Mg 0.50761 0.00197 -0.00201 0.0
O198 O 0.53539 0.96693 0.98183 0.0
Mg199 Mg 0.52068 0.9149 0.9873 0.0
Mg200 Mg 0.58716 0.99548 -0.00143 0.0
C201 C 0.57375 0.07344 0.02701 0.0
C202 C 0.55959 0.04372 0.93939 0.0
O203 O 0.409 0.05282 0.03048 0.0
O204 O 0.45832 0.10366 0.04331 0.0
O205 O 0.42611 0.04698 0.94928 0.0
O206 O 0.47321 0.09988 0.95698 0.0
O207 O 0.55377 0.09508 0.02117 0.0
O208 O 0.56063 0.03732 0.02636 0.0
C209 C 0.45508 0.96027 0.05631 0.0
O210 O 0.48683 0.96733 0.04475 0.0
O211 O 0.43066 0.97334 0.04267 0.0
O212 O 0.60622 0.95196 0.96414 0.0
O213 O 0.55721 0.90072 0.95188 0.0
O214 O 0.58978 0.95703 0.04589 0.0
C215 C 0.59101 0.91917 0.94872 0.0
O216 O 0.54269 0.90409 0.03853 0.0
O217 O 0.46164 0.90882 0.97435 0.0
C218 C 0.57232 0.9242 0.05562 0.0
O219 O 0.45483 0.96663 0.96955 0.0
O220 O 0.52801 0.03653 0.95125 0.0
O221 O 0.58426 0.0309 0.95283 0.0
C222 C 0.91382 0.57814 0.00786 0.0
C223 C 0.94272 0.53841 0.91529 0.0
C224 C 0.94868 0.41759 0.98266 0.0
Mg225 Mg 0.98766 0.57785 0.98032 0.0
O226 O 0.97617 0.53378 0.00446 0.0
Mg227 Mg 0.92752 0.49528 0.99084 0.0
Mg228 Mg 0.00798 0.50175 -0.00158 0.0
O229 O 0.03976 0.46968 0.99242 0.0
Mg230 Mg 0.02853 0.42593 0.01718 0.0
Mg231 Mg 0.08855 0.50823 0.00509 0.0
C232 C 0.06742 0.58598 0.0145 0.0
C233 C 0.05433 0.52759 0.93215 0.0
O234 O 0.9029 0.54198 0.0067 0.0
O235 O 0.94543 0.59757 -0.00077 0.0
O236 O 0.92453 0.51389 0.93502 0.0
O237 O 0.9726 0.56323 0.92652 0.0
O238 O 0.04499 0.60121 -9e-05 0.0
O239 O 0.05793 0.5505 0.01924 0.0
C240 C 0.96101 0.47592 0.0642 0.0
O241 O 0.99238 0.48152 0.05227 0.0
O242 O 0.93342 0.47947 0.04607 0.0
O243 O 0.11277 0.46127 0.989 0.0
O244 O 0.0703 0.40597 0.99759 0.0
O245 O 0.09253 0.49006 0.06067 0.0
C246 C 0.10173 0.42512 0.98833 0.0
O247 O 0.04521 0.4408 0.07097 0.0
O248 O 0.97096 0.40249 -0.00221 0.0
C249 C 0.07539 0.46585 0.08116 0.0
O250 O 0.95831 0.45299 0.9775 0.0
O251 O 0.02322 0.52198 0.94456 0.0
O252 O 0.08212 0.52395 0.94986 0.0
C253 C 0.41119 0.56372 0.04342 0.0
C254 C 0.46454 0.57979 0.94689 0.0
C255 C 0.44792 0.43431 0.9471 0.0
Mg256 Mg 0.49098 0.57865 0.02283 0.0
O257 O 0.47395 0.52608 0.01905 0.0
Mg258 Mg 0.4278 0.50022 0.98926 0.0
Mg259 Mg 0.50514 0.49771 0.00096 0.0
O260 O 0.5359 0.46869 0.98301 0.0
Mg261 Mg 0.51809 0.41601 0.97972 0.0
Mg262 Mg 0.58158 0.49394 0.01336 0.0
C263 C 0.5622 0.56153 0.05423 0.0
C264 C 0.56954 0.55118 0.95546 0.0
O265 O 0.40061 0.5343 0.02272 0.0
O266 O 0.44474 0.58456 0.04795 0.0
O267 O 0.44156 0.54738 0.95059 0.0
O268 O 0.48866 0.59677 0.97107 0.0
O269 O 0.5441 0.58498 0.0506 0.0
O270 O 0.55016 0.52801 0.04063 0.0
C271 C 0.441 0.44145 0.04521 0.0
O272 O 0.4753 0.4528 0.03989 0.0
O273 O 0.41814 0.45458 0.02869 0.0
O274 O 0.60844 0.45865 0.98128 0.0
O275 O 0.56442 0.40876 0.95543 0.0
O276 O 0.56622 0.44816 0.05296 0.0
C277 C 0.59804 0.42928 0.96056 0.0
O278 O 0.51906 0.39899 0.03207 0.0
O279 O 0.46556 0.41046 0.95087 0.0
C280 C 0.54251 0.4162 0.05669 0.0
O281 O 0.46006 0.4676 0.96118 0.0
O282 O 0.53555 0.54258 0.96187 0.0
O283 O 0.59158 0.53716 0.97213 0.0
C284 C 0.92203 0.58168 0.54633 0.0
C285 C 0.94167 0.5772 0.43988 0.0
C286 C 0.94087 0.42822 0.46871 0.0
Mg287 Mg 0.99297 0.58684 0.50844 0.0
O288 O 0.97864 0.53481 0.51378 0.0
Mg289 Mg 0.92702 0.50581 0.49681 0.0
Mg290 Mg 1.00677 0.5001 0.49768 0.0
O291 O 0.03468 0.46524 0.48162 0.0
Mg292 Mg 0.01993 0.41335 0.48782 0.0
Mg293 Mg 0.08631 0.49396 0.49861 0.0
C294 C 0.07239 0.57204 0.52718 0.0
C295 C 0.05861 0.54172 0.43898 0.0
O296 O 0.9073 0.54885 0.5309 0.0
O297 O 0.95579 0.60053 0.54346 0.0
O298 O 0.92433 0.54424 0.44944 0.0
O299 O 0.97111 0.59744 0.45716 0.0
O300 O 0.05214 0.59348 0.52154 0.0
O301 O 0.05956 0.53587 0.52601 0.0
C302 C 0.95504 0.45826 0.55632 0.0
O303 O 0.98667 0.46567 0.54453 0.0
O304 O 0.93015 0.47066 0.54269 0.0
O305 O 0.10554 0.44978 0.46503 0.0
O306 O 0.05635 0.39865 0.45283 0.0
O307 O 0.08882 0.45613 0.54632 0.0
C308 C 0.09025 0.41683 0.4499 0.0
O309 O 0.04182 0.4031 0.53921 0.0
O310 O 0.96088 0.40665 0.47476 0.0
C311 C 0.07137 0.42341 0.55628 0.0
O312 O 0.95399 0.46433 0.46937 0.0
O313 O 0.02705 0.53458 0.45089 0.0
O314 O 0.08336 0.52898 0.45244 0.0
C315 C 0.41814 0.08351 0.51036 0.0
C316 C 0.44115 0.04045 0.41668 0.0
C317 C 0.44638 0.92009 0.48323 0.0
Mg318 Mg 0.48987 0.08023 0.47997 0.0
O319 O 0.47797 0.03663 0.50505 0.0
Mg320 Mg 0.42839 0.99913 0.49318 0.0
Mg321 Mg 0.50814 0.00302 0.4984 0.0
O322 O 0.53822 0.96938 0.49163 0.0
Mg323 Mg 0.52598 0.92523 0.51585 0.0
Mg324 Mg 0.58774 0.00671 0.50405 0.0
C325 C 0.5697 0.08588 0.513 0.0
C326 C 0.55375 0.02703 0.43146 0.0
O327 O 0.4062 0.04738 0.50963 0.0
O328 O 0.44962 0.10189 0.50062 0.0
O329 O 0.42404 0.01678 0.43759 0.0
O330 O 0.47159 0.06535 0.42637 0.0
O331 O 0.54798 0.10189 0.49823 0.0
O332 O 0.55911 0.05056 0.51841 0.0
C333 C 0.46275 0.97877 0.56556 0.0
O334 O 0.49344 0.98328 0.55259 0.0
O335 O 0.43517 0.98346 0.54835 0.0
O336 O 0.61006 0.95861 0.48753 0.0
O337 O 0.56653 0.90383 0.49545 0.0
O338 O 0.59146 0.98846 0.55969 0.0
C339 C 0.59817 0.92247 0.48628 0.0
O340 O 0.54338 0.93969 0.56946 0.0
O341 O 0.46795 0.90361 0.49744 0.0
C342 C 0.57369 0.96432 0.57993 0.0
O343 O 0.45716 0.95555 0.47854 0.0
O344 O 0.52294 0.02262 0.44418 0.0
O345 O 0.58125 0.02249 0.44894 0.0
C346 C 0.1526 0.20931 0.30424 0.0
C347 C 0.17263 0.19318 0.2832 0.0
C348 C 0.13489 0.19048 0.33228 0.0
C349 C 0.13595 0.15382 0.33889 0.0
C350 C 0.15558 0.1371 0.31719 0.0
C351 C 0.17415 0.15719 0.29005 0.0
C352 C 0.11605 0.21043 0.35546 0.0
C353 C 0.15699 0.09789 0.32265 0.0
C354 C 0.12319 0.11396 0.42858 0.0
C355 C 0.08657 0.09058 0.42543 0.0
C356 C 0.13894 0.13579 0.40129 0.0
C357 C 0.11806 0.1336 0.36932 0.0
C358 C 0.08066 0.11102 0.36632 0.0
C359 C 0.06527 0.09017 0.39449 0.0
C360 C 0.17832 0.16062 0.40648 0.0
C361 C 0.05726 0.10757 0.33284 0.0
H362 H 0.15157 0.2373 0.29935 0.0
H363 H 0.18932 0.14445 0.27376 0.0
H364 H 0.08734 0.19288 0.35778 0.0
H365 H 0.13022 0.21525 0.38187 0.0
H366 H 0.11604 0.23799 0.34574 0.0
H367 H 0.17115 0.08784 0.30223 0.0
H368 H 0.17156 0.09718 0.34815 0.0
H369 H 0.12881 0.07806 0.3229 0.0
H370 H 0.13985 0.11484 0.45245 0.0
H371 H 0.03706 0.07212 0.39165 0.0
H372 H 0.18067 0.18956 0.39897 0.0
H373 H 0.19534 0.14979 0.38962 0.0
H374 H 0.18975 0.16198 0.43375 0.0
H375 H 0.05791 0.13577 0.32445 0.0
H376 H 0.02831 0.09052 0.33512 0.0
H377 H 0.06844 0.09422 0.3122 0.0
C378 C 0.90041 0.19776 0.29146 0.0
C379 C 0.87327 0.20496 0.31028 0.0
C380 C 0.92559 0.18189 0.30711 0.0
C381 C 0.9229 0.1725 0.3421 0.0
C382 C 0.89676 0.1817 0.36164 0.0
C383 C 0.87234 0.19802 0.34547 0.0
C384 C 0.95361 0.17344 0.28563 0.0
C385 C 0.89316 0.17239 0.39918 0.0
C386 C 0.93958 0.0885 0.38058 0.0
C387 C 0.96746 0.10611 0.40637 0.0
C388 C 0.92731 0.10963 0.35631 0.0
C389 C 0.94384 0.14909 0.35767 0.0
C390 C 0.97585 0.166 0.3798 0.0
C391 C 0.98729 0.14424 0.40417 0.0
C392 C 0.89371 0.09028 0.33236 0.0
C393 C 0.99553 0.20768 0.38055 0.0
H394 H 0.90138 0.20358 0.26424 0.0
H395 H 0.85157 0.20396 0.36006 0.0
H396 H 0.97976 0.17721 0.30132 0.0
H397 H 0.94307 0.14378 0.27539 0.0
H398 H 0.95914 0.19164 0.26324 0.0
H399 H 0.8727 0.18317 0.41107 0.0
H400 H 0.8847 0.14145 0.40124 0.0
H401 H 0.91992 0.18452 0.4144 0.0
H402 H 0.92497 0.05876 0.38126 0.0
H403 H 0.00977 0.15786 0.42326 0.0
H404 H 0.89693 0.10088 0.30599 0.0
H405 H 0.86968 0.09639 0.34225 0.0
H406 H 0.88785 0.05932 0.33053 0.0
H407 H 0.9953 0.2185 0.35423 0.0
H408 H 0.02436 0.21451 0.3915 0.0
H409 H 0.98145 0.2226 0.39706 0.0
C410 C 0.84753 0.87247 0.27073 0.0
C411 C 0.8113 0.84982 0.27185 0.0
C412 C 0.86528 0.89672 0.29914 0.0
C413 C 0.84592 0.89798 0.32875 0.0
C414 C 0.80774 0.87992 0.32726 0.0
C415 C 0.79081 0.85554 0.2987 0.0
C416 C 0.90583 0.91677 0.29932 0.0
C417 C 0.78584 0.88282 0.35745 0.0
C418 C 0.90497 0.89226 0.40809 0.0
C419 C 0.92046 0.93021 0.41882 0.0
C420 C 0.87833 0.88116 0.38027 0.0
C421 C 0.86695 0.90881 0.36281 0.0
C422 C 0.87983 0.94669 0.37564 0.0
C423 C 0.90664 0.957 0.40355 0.0
C424 C 0.86452 0.84014 0.36797 0.0
C425 C 0.86773 0.97694 0.35856 0.0
H426 H 0.86306 0.86825 0.24952 0.0
H427 H 0.76223 0.83898 0.29846 0.0
H428 H 0.91265 0.94598 0.31036 0.0
H429 H 0.921 0.90199 0.31585 0.0
H430 H 0.91548 0.91755 0.27289 0.0
H431 H 0.75595 0.87317 0.34984 0.0
H432 H 0.79142 0.86517 0.37823 0.0
H433 H 0.794 0.9122 0.36839 0.0
H434 H 0.915 0.87136 0.42033 0.0
H435 H 0.91829 0.9864 0.41186 0.0
H436 H 0.87363 0.83672 0.34185 0.0
H437 H 0.83417 0.82982 0.36585 0.0
H438 H 0.87462 0.82211 0.38564 0.0
H439 H 0.88759 0.99038 0.33971 0.0
H440 H 0.86734 0.99914 0.37803 0.0
H441 H 0.8402 0.96563 0.34454 0.0
C442 C 0.2127 0.8987 0.30565 0.0
C443 C 0.23906 0.88219 0.3169 0.0
C444 C 0.19657 0.91609 0.32957 0.0
C445 C 0.20719 0.91675 0.36535 0.0
C446 C 0.23677 0.90396 0.37628 0.0
C447 C 0.25221 0.88655 0.35185 0.0
C448 C 0.16576 0.93041 0.31685 0.0
C449 C 0.24965 0.90478 0.41402 0.0
C450 C 0.16467 0.96656 0.42882 0.0
C451 C 0.13397 0.937 0.43662 0.0
C452 C 0.18919 0.9605 0.40589 0.0
C453 C 0.18311 0.92394 0.3911 0.0
C454 C 0.15304 0.89375 0.40007 0.0
C455 C 0.12864 0.90073 0.42247 0.0
C456 C 0.22124 0.99317 0.39718 0.0
C457 C 0.14619 0.85412 0.38543 0.0
H458 H 0.20278 0.89568 0.27853 0.0
H459 H 0.27263 0.87384 0.36063 0.0
H460 H 0.13926 0.91027 0.32293 0.0
H461 H 0.16843 0.95787 0.33014 0.0
H462 H 0.16495 0.93365 0.28844 0.0
H463 H 0.27906 0.90686 0.41711 0.0
H464 H 0.2457 0.92857 0.42917 0.0
H465 H 0.23375 0.87828 0.42517 0.0
H466 H 0.16883 0.99471 0.43963 0.0
H467 H 0.10513 0.8778 0.4287 0.0
H468 H 0.22142 0.9954 0.36869 0.0
H469 H 0.24717 0.98838 0.40647 0.0
H470 H 0.22074 0.0203 0.40911 0.0
H471 H 0.14108 0.85304 0.35684 0.0
H472 H 0.12235 0.83364 0.39606 0.0
H473 H 0.17071 0.84518 0.39127 0.0
C474 C 0.14903 0.80911 0.64566 0.0
C475 C 0.14681 0.80285 0.68092 0.0
C476 C 0.12644 0.82688 0.62843 0.0
C477 C 0.10083 0.83822 0.64696 0.0
C478 C 0.09691 0.82979 0.68208 0.0
C479 C 0.12025 0.81241 0.69879 0.0
C480 C 0.13137 0.83528 0.59085 0.0
C481 C 0.06936 0.84065 0.70242 0.0
C482 C 0.08574 0.92321 0.6079 0.0
C483 C 0.05643 0.90632 0.58324 0.0
C484 C 0.09864 0.90157 0.6312 0.0
C485 C 0.0813 0.86224 0.63016 0.0
C486 C 0.04883 0.84582 0.6085 0.0
C487 C 0.03686 0.86806 0.58502 0.0
C488 C 0.13314 0.92028 0.65423 0.0
C489 C 0.02866 0.80423 0.60775 0.0
H490 H 0.16941 0.80145 0.63182 0.0
H491 H 0.11832 0.80718 0.72607 0.0
H492 H 0.10477 0.82419 0.57518 0.0
H493 H 0.14138 0.86616 0.58834 0.0
H494 H 0.15117 0.82291 0.57981 0.0
H495 H 0.06473 0.82571 0.72685 0.0
H496 H 0.07948 0.87131 0.70912 0.0
H497 H 0.04278 0.83454 0.68682 0.0
H498 H 0.10051 0.95288 0.60725 0.0
H499 H 0.01361 0.85487 0.5666 0.0
H500 H 0.15619 0.91239 0.6442 0.0
H501 H 0.1301 0.91066 0.68096 0.0
H502 H 0.14046 0.9514 0.65526 0.0
H503 H 0.04279 0.78897 0.59166 0.0
H504 H 0.99998 0.79764 0.59642 0.0
H505 H 0.02836 0.7935 0.63413 0.0
C506 C 0.16977 0.13165 0.72526 0.0
C507 C 0.20592 0.15458 0.72433 0.0
C508 C 0.15179 0.10886 0.69609 0.0
C509 C 0.17082 0.10957 0.66595 0.0
C510 C 0.209 0.12742 0.66746 0.0
C511 C 0.22623 0.15018 0.69686 0.0
C512 C 0.11133 0.08839 0.69588 0.0
C513 C 0.23055 0.12633 0.63659 0.0
C514 C 0.11042 0.05526 0.58899 0.0
C515 C 0.09622 0.08276 0.57575 0.0
C516 C 0.13709 0.06394 0.61695 0.0
C517 C 0.14952 0.10091 0.63195 0.0
C518 C 0.13776 0.12951 0.61669 0.0
C519 C 0.11116 0.12003 0.58874 0.0
C520 C 0.14956 0.03274 0.63161 0.0
C521 C 0.15132 0.16973 0.63134 0.0
H522 H 0.1544 0.13478 0.74696 0.0
H523 H 0.25477 0.1669 0.69721 0.0
H524 H 0.09584 0.10414 0.68099 0.0
H525 H 0.10454 0.05995 0.68304 0.0
H526 H 0.10208 0.08563 0.72249 0.0
H527 H 0.26047 0.13537 0.64395 0.0
H528 H 0.22207 0.09761 0.62405 0.0
H529 H 0.22494 0.14539 0.61717 0.0
H530 H 0.09929 0.0264 0.57896 0.0
H531 H 0.10085 0.14154 0.57816 0.0
H532 H 0.12863 0.01622 0.64823 0.0
H533 H 0.17613 0.04332 0.64738 0.0
H534 H 0.15213 0.01334 0.61041 0.0
H535 H 0.14202 0.17121 0.65768 0.0
H536 H 0.14121 0.18887 0.61503 0.0
H537 H 0.18168 0.18019 0.63367 0.0
C538 C 0.7648 0.12808 0.63995 0.0
C539 C 0.77566 0.12805 0.67518 0.0
C540 C 0.78152 0.11338 0.61462 0.0
C541 C 0.81003 0.09878 0.62494 0.0
C542 C 0.81864 0.09543 0.66056 0.0
C543 C 0.80126 0.11018 0.68539 0.0
C544 C 0.77107 0.11703 0.57696 0.0
C545 C 0.84847 0.07935 0.67251 0.0
C546 C 0.85213 0.05176 0.55887 0.0
C547 C 0.88398 0.08107 0.55318 0.0
C548 C 0.82737 0.05711 0.58183 0.0
C549 C 0.83451 0.09269 0.59909 0.0
C550 C 0.86578 0.12277 0.59236 0.0
C551 C 0.8903 0.11651 0.56965 0.0
C552 C 0.79421 0.02451 0.58836 0.0
C553 C 0.87384 0.1614 0.6098 0.0
H554 H 0.74521 0.14214 0.63195 0.0
H555 H 0.80955 0.11002 0.71266 0.0
H556 H 0.77274 0.093 0.56052 0.0
H557 H 0.7429 0.11888 0.57314 0.0
H558 H 0.79027 0.14308 0.56786 0.0
H559 H 0.84799 0.07348 0.70043 0.0
H560 H 0.84582 0.05299 0.65727 0.0
H561 H 0.87553 0.0997 0.66831 0.0
H562 H 0.84722 0.02417 0.54642 0.0
H563 H 0.91473 0.13925 0.56519 0.0
H564 H 0.76892 0.03242 0.58376 0.0
H565 H 0.79589 0.01727 0.61584 0.0
H566 H 0.79171 0.99912 0.57163 0.0
H567 H 0.85028 0.17203 0.60457 0.0
H568 H 0.89869 0.18201 0.60087 0.0
H569 H 0.87788 0.15985 0.63827 0.0
C570 C 0.86339 0.85728 0.71771 0.0
C571 C 0.83448 0.82409 0.70882 0.0
C572 C 0.88395 0.87837 0.69205 0.0
C573 C 0.87602 0.86564 0.65662 0.0
C574 C 0.84736 0.83166 0.64774 0.0
C575 C 0.82678 0.81172 0.67372 0.0
C576 C 0.91375 0.91468 0.70278 0.0
C577 C 0.83805 0.81643 0.6106 0.0
C578 C 0.89547 0.93503 0.58485 0.0
C579 C 0.92752 0.93121 0.572 0.0
C580 C 0.87939 0.91484 0.61278 0.0
C581 C 0.89512 0.8893 0.62848 0.0
C582 C 0.92777 0.88548 0.61608 0.0
C583 C 0.94378 0.9067 0.58822 0.0
C584 C 0.84516 0.9207 0.62526 0.0
C585 C 0.94523 0.85816 0.63156 0.0
H586 H 0.86971 0.867 0.74471 0.0
H587 H 0.80478 0.78598 0.66642 0.0
H588 H 0.94002 0.91416 0.69308 0.0
H589 H 0.90684 0.93848 0.69102 0.0
H590 H 0.9177 0.92003 0.73135 0.0
H591 H 0.81748 0.78796 0.60829 0.0
H592 H 0.82698 0.83559 0.59534 0.0
H593 H 0.86308 0.81505 0.59882 0.0
H594 H 0.88282 0.95431 0.57319 0.0
H595 H 0.96849 0.90349 0.57872 0.0
H596 H 0.84898 0.92796 0.65352 0.0
H597 H 0.82189 0.8943 0.62083 0.0
H598 H 0.83766 0.94336 0.61185 0.0
H599 H 0.94753 0.86123 0.66025 0.0
H600 H 0.97286 0.86207 0.62265 0.0
H601 H 0.92769 0.82902 0.62401 0.0
C602 C 0.30467 0.20256 0.13736 0.0
C603 C 0.29735 0.1903 0.17084 0.0
C604 C 0.32442 0.18615 0.11562 0.0
C605 C 0.33763 0.15686 0.1275 0.0
C606 C 0.33018 0.1444 0.1612 0.0
C607 C 0.31016 0.16094 0.18214 0.0
C608 C 0.33167 0.20063 0.08007 0.0
C609 C 0.34426 0.11412 0.17567 0.0
C610 C 0.36356 0.08879 0.0654 0.0
C611 C 0.40195 0.10378 0.06669 0.0
C612 C 0.34239 0.10627 0.08413 0.0
C613 C 0.35973 0.13947 0.10532 0.0
C614 C 0.39847 0.15472 0.10675 0.0
C615 C 0.41889 0.13703 0.08732 0.0
C616 C 0.30129 0.08907 0.08127 0.0
C617 C 0.4186 0.18997 0.12871 0.0
H618 H 0.29559 0.22549 0.12832 0.0
H619 H 0.3052 0.15111 0.20792 0.0
H620 H 0.36149 0.2143 0.07874 0.0
H621 H 0.32281 0.17696 0.06021 0.0
H622 H 0.31736 0.22137 0.07352 0.0
H623 H 0.33634 0.10755 0.20236 0.0
H624 H 0.33357 0.088 0.15881 0.0
H625 H 0.37458 0.12316 0.17611 0.0
H626 H 0.34987 0.06344 0.04943 0.0
H627 H 0.4484 0.14927 0.08858 0.0
H628 H 0.28823 0.11034 0.07322 0.0
H629 H 0.29185 0.07989 0.10693 0.0
H630 H 0.29167 0.06447 0.06239 0.0
H631 H 0.41373 0.21449 0.11644 0.0
H632 H 0.4486 0.19486 0.13152 0.0
H633 H 0.4084 0.18864 0.1549 0.0
C634 C 0.82629 0.35221 0.17043 0.0
C635 C 0.83357 0.34397 0.20455 0.0
C636 C 0.85337 0.37748 0.15305 0.0
C637 C 0.88823 0.39551 0.17062 0.0
C638 C 0.89517 0.38862 0.20563 0.0
C639 C 0.86782 0.36251 0.22212 0.0
C640 C 0.845 0.38394 0.11552 0.0
C641 C 0.93165 0.4081 0.22536 0.0
C642 C 0.95815 0.42656 0.10551 0.0
C643 C 0.95438 0.46156 0.09856 0.0
C644 C 0.93945 0.40573 0.1318 0.0
C645 C 0.91719 0.42087 0.15154 0.0
C646 C 0.91751 0.45832 0.14751 0.0
C647 C 0.93574 0.4781 0.12056 0.0
C648 C 0.93985 0.36588 0.1353 0.0
C649 C 0.89519 0.47593 0.16886 0.0
H650 H 0.79994 0.33766 0.15677 0.0
H651 H 0.87338 0.3563 0.24868 0.0
H652 H 0.8485 0.41412 0.11234 0.0
H653 H 0.86444 0.37621 0.09924 0.0
H654 H 0.81667 0.36731 0.10563 0.0
H655 H 0.93119 0.40281 0.25341 0.0
H656 H 0.9531 0.398 0.21471 0.0
H657 H 0.93967 0.43886 0.22234 0.0
H658 H 0.97229 0.41377 0.08808 0.0
H659 H 0.93305 0.50534 0.11499 0.0
H660 H 0.91421 0.34627 0.12224 0.0
H661 H 0.94101 0.35897 0.16288 0.0
H662 H 0.96341 0.36098 0.12322 0.0
H663 H 0.86606 0.46526 0.15858 0.0
H664 H 0.90455 0.50704 0.16792 0.0
H665 H 0.89666 0.4684 0.19626 0.0
C666 C 0.69105 0.80842 0.15149 0.0
C667 C 0.69178 0.80808 0.18788 0.0
C668 C 0.6707 0.82768 0.13205 0.0
C669 C 0.65015 0.84754 0.14896 0.0
C670 C 0.65061 0.84721 0.18568 0.0
C671 C 0.67122 0.82767 0.20453 0.0
C672 C 0.67133 0.82684 0.09314 0.0
C673 C 0.62935 0.86771 0.20518 0.0
C674 C 0.62594 0.92499 0.09821 0.0
C675 C 0.59004 0.90662 0.08366 0.0
C676 C 0.6452 0.90666 0.12012 0.0
C677 C 0.62857 0.86868 0.12817 0.0
C678 C 0.59181 0.85051 0.1148 0.0
C679 C 0.57319 0.86947 0.09288 0.0
C680 C 0.68406 0.92766 0.13364 0.0
C681 C 0.57242 0.81034 0.12261 0.0
H682 H 0.70655 0.79358 0.13795 0.0
H683 H 0.67129 0.82791 0.2325 0.0
H684 H 0.64307 0.81473 0.08083 0.0
H685 H 0.68228 0.85589 0.0845 0.0
H686 H 0.68832 0.81008 0.08367 0.0
H687 H 0.63192 0.86453 0.23356 0.0
H688 H 0.63922 0.89808 0.20024 0.0
H689 H 0.59996 0.85703 0.19582 0.0
H690 H 0.63968 0.95351 0.09148 0.0
H691 H 0.54563 0.8546 0.08207 0.0
H692 H 0.70298 0.91436 0.12229 0.0
H693 H 0.68735 0.9261 0.16216 0.0
H694 H 0.69238 0.95769 0.12727 0.0
H695 H 0.58589 0.79156 0.11038 0.0
H696 H 0.54307 0.80108 0.11289 0.0
H697 H 0.57437 0.80687 0.15092 0.0
C698 C 0.22888 0.73706 0.13504 0.0
C699 C 0.20857 0.74028 0.1629 0.0
C700 C 0.21281 0.71137 0.1068 0.0
C701 C 0.17535 0.68956 0.10621 0.0
C702 C 0.15475 0.69371 0.13416 0.0
C703 C 0.17183 0.71849 0.16239 0.0
C704 C 0.2363 0.70783 0.07811 0.0
C705 C 0.11469 0.67148 0.13461 0.0
C706 C 0.1122 0.65019 0.02632 0.0
C707 C 0.1025 0.61144 0.03115 0.0
C708 C 0.13883 0.67613 0.04875 0.0
C709 C 0.15645 0.66302 0.07645 0.0
C710 C 0.15003 0.62385 0.07882 0.0
C711 C 0.12312 0.59846 0.05602 0.0
C712 C 0.14541 0.7176 0.04483 0.0
C713 C 0.1703 0.60861 0.10631 0.0
H714 H 0.25767 0.75329 0.13606 0.0
H715 H 0.15651 0.7206 0.18442 0.0
H716 H 0.225 0.68086 0.06256 0.0
H717 H 0.23849 0.73119 0.06061 0.0
H718 H 0.26447 0.71038 0.08885 0.0
H719 H 0.09922 0.67561 0.11068 0.0
H720 H 0.11149 0.64106 0.13531 0.0
H721 H 0.1022 0.67967 0.15733 0.0
H722 H 0.09714 0.66054 0.00653 0.0
H723 H 0.11658 0.56856 0.05931 0.0
H724 H 0.17518 0.73268 0.04553 0.0
H725 H 0.13455 0.72929 0.06681 0.0
H726 H 0.13198 0.72328 0.02028 0.0
H727 H 0.19883 0.61413 0.09944 0.0
H728 H 0.15793 0.57781 0.10832 0.0
H729 H 0.17127 0.62274 0.13209 0.0
C730 C 0.2565 0.8167 0.85904 0.0
C731 C 0.27509 0.80636 0.83258 0.0
C732 C 0.27587 0.8362 0.88946 0.0
C733 C 0.3145 0.84594 0.89276 0.0
C734 C 0.33303 0.83395 0.86661 0.0
C735 C 0.313 0.81406 0.83701 0.0
C736 C 0.25498 0.84748 0.9171 0.0
C737 C 0.37427 0.8434 0.86907 0.0
C738 C 0.38412 0.93038 0.93578 0.0
C739 C 0.40253 0.9126 0.95834 0.0
C740 C 0.35126 0.90965 0.91721 0.0
C741 C 0.33676 0.87066 0.92192 0.0
C742 C 0.35187 0.85443 0.94909 0.0
C743 C 0.3851 0.87555 0.96677 0.0
C744 C 0.33524 0.92824 0.88913 0.0
C745 C 0.33572 0.81349 0.95628 0.0
H746 H 0.22704 0.81039 0.85566 0.0
H747 H 0.32732 0.80567 0.8167 0.0
H748 H 0.26892 0.84889 0.94334 0.0
H749 H 0.25276 0.87569 0.91209 0.0
H750 H 0.22676 0.82754 0.91675 0.0
H751 H 0.38416 0.83202 0.84624 0.0
H752 H 0.38733 0.87434 0.87119 0.0
H753 H 0.38365 0.83178 0.89259 0.0
H754 H 0.39713 0.95936 0.92987 0.0
H755 H 0.39869 0.86219 0.98531 0.0
H756 H 0.30494 0.91874 0.88841 0.0
H757 H 0.34292 0.9202 0.86362 0.0
H758 H 0.34547 0.95938 0.89282 0.0
H759 H 0.30537 0.80451 0.95292 0.0
H760 H 0.34438 0.80782 0.98293 0.0
H761 H 0.34525 0.79615 0.93771 0.0
C762 C 0.16011 0.29579 0.86259 0.0
C763 C 0.19557 0.29335 0.86674 0.0
C764 C 0.14776 0.3165 0.88681 0.0
C765 C 0.17144 0.33485 0.91594 0.0
C766 C 0.2066 0.33068 0.92124 0.0
C767 C 0.21829 0.30988 0.89644 0.0
C768 C 0.11 0.32023 0.88029 0.0
C769 C 0.23244 0.3495 0.95215 0.0
C770 C 0.14883 0.41999 0.94916 0.0
C771 C 0.12488 0.40438 0.97428 0.0
C772 C 0.16621 0.39818 0.93134 0.0
C773 C 0.1598 0.36017 0.93934 0.0
C774 C 0.13818 0.34532 0.96675 0.0
C775 C 0.12065 0.36754 0.98373 0.0
C776 C 0.18916 0.41498 0.90223 0.0
C777 C 0.13159 0.30526 0.97666 0.0
H778 H 0.14253 0.28289 0.83962 0.0
H779 H 0.24562 0.30756 0.89974 0.0
H780 H 0.09402 0.31163 0.90308 0.0
H781 H 0.11231 0.35006 0.87639 0.0
H782 H 0.09451 0.30292 0.85715 0.0
H783 H 0.25624 0.33883 0.95523 0.0
H784 H 0.24287 0.38022 0.94895 0.0
H785 H 0.21802 0.34519 0.97626 0.0
H786 H 0.15225 0.44851 0.9419 0.0
H787 H 0.10269 0.35566 0.00368 0.0
H788 H 0.17469 0.40181 0.87708 0.0
H789 H 0.2157 0.40919 0.90456 0.0
H790 H 0.19463 0.44584 0.90174 0.0
H791 H 0.11248 0.2859 0.95659 0.0
H792 H 0.11952 0.30012 0.00199 0.0
H793 H 0.15751 0.29819 0.97801 0.0
C794 C 0.65372 0.21135 0.82747 0.0
C795 C 0.6584 0.1972 0.79486 0.0
C796 C 0.62796 0.18922 0.84838 0.0
C797 C 0.60657 0.1525 0.83605 0.0
C798 C 0.60739 0.14069 0.80121 0.0
C799 C 0.63377 0.16302 0.78108 0.0
C800 C 0.62702 0.20324 0.88509 0.0
C801 C 0.58363 0.1025 0.78659 0.0
C802 C 0.60456 0.0777 0.89928 0.0
C803 C 0.56949 0.06963 0.91103 0.0
C804 C 0.61652 0.10452 0.87491 0.0
C805 C 0.59263 0.12358 0.86132 0.0
C806 C 0.55667 0.11483 0.87206 0.0
C807 C 0.54558 0.08805 0.89711 0.0
C808 C 0.65517 0.11282 0.86421 0.0
C809 C 0.53019 0.13424 0.85814 0.0
H810 H 0.67232 0.23814 0.83793 0.0
H811 H 0.63658 0.15261 0.75534 0.0
H812 H 0.59847 0.19546 0.89259 0.0
H813 H 0.64244 0.18989 0.90292 0.0
H814 H 0.63962 0.23423 0.88858 0.0
H815 H 0.58142 0.10097 0.75781 0.0
H816 H 0.59575 0.08085 0.79562 0.0
H817 H 0.55575 0.0956 0.79574 0.0
H818 H 0.62327 0.06358 0.90968 0.0
H819 H 0.51843 0.08205 0.90609 0.0
H820 H 0.67064 0.14301 0.86974 0.0
H821 H 0.65461 0.10674 0.83596 0.0
H822 H 0.67037 0.09595 0.87789 0.0
H823 H 0.53421 0.16041 0.87422 0.0
H824 H 0.50138 0.11624 0.85938 0.0
H825 H 0.53453 0.14197 0.83098 0.0
C826 C 0.85072 0.67329 0.85419 0.0
C827 C 0.82953 0.66892 0.82279 0.0
C828 C 0.86844 0.64689 0.86299 0.0
C829 C 0.86608 0.61663 0.83902 0.0
C830 C 0.84544 0.61286 0.80686 0.0
C831 C 0.82686 0.63871 0.79943 0.0
C832 C 0.88918 0.65103 0.89813 0.0
C833 C 0.84356 0.58209 0.78003 0.0
C834 C 0.94122 0.57534 0.86319 0.0
C835 C 0.92287 0.54681 0.88423 0.0
C836 C 0.92218 0.59612 0.84493 0.0
C837 C 0.88429 0.5884 0.84844 0.0
C838 C 0.86494 0.55622 0.86546 0.0
C839 C 0.88444 0.53515 0.88243 0.0
C840 C 0.94332 0.62876 0.82503 0.0
C841 C 0.82444 0.54679 0.8697 0.0
H842 H 0.85268 0.69674 0.8721 0.0
H843 H 0.81086 0.63577 0.77482 0.0
H844 H 0.87856 0.62498 0.91221 0.0
H845 H 0.91854 0.65519 0.89504 0.0
H846 H 0.88699 0.67511 0.91428 0.0
H847 H 0.87079 0.58742 0.76978 0.0
H848 H 0.83665 0.55432 0.79164 0.0
H849 H 0.82308 0.5806 0.75802 0.0
H850 H 0.97084 0.58391 0.86373 0.0
H851 H 0.86984 0.51257 0.89797 0.0
H852 H 0.94828 0.65532 0.84079 0.0
H853 H 0.9275 0.63071 0.80056 0.0
H854 H 0.97024 0.62632 0.81887 0.0
H855 H 0.82009 0.5675 0.88863 0.0
H856 H 0.81267 0.51823 0.87929 0.0
H857 H 0.80914 0.54855 0.84491 0.0
C858 C 0.18527 0.34437 0.1356 0.0
C859 C 0.20474 0.34757 0.16784 0.0
C860 C 0.16598 0.36959 0.12741 0.0
C861 C 0.1649 0.39732 0.15276 0.0
C862 C 0.18462 0.40054 0.18536 0.0
C863 C 0.20485 0.37601 0.19226 0.0
C864 C 0.14631 0.3662 0.09182 0.0
C865 C 0.18299 0.42855 0.21356 0.0
C866 C 0.13519 0.47516 0.11419 0.0
C867 C 0.09696 0.45847 0.11161 0.0
C868 C 0.15819 0.45691 0.13 0.0
C869 C 0.14242 0.42224 0.14501 0.0
C870 C 0.10419 0.40902 0.14803 0.0
C871 C 0.08174 0.42722 0.13103 0.0
C872 C 0.19886 0.47237 0.12646 0.0
C873 C 0.0866 0.37342 0.16591 0.0
H874 H 0.18512 0.32219 0.11693 0.0
H875 H 0.21929 0.37791 0.21758 0.0
H876 H 0.11633 0.35765 0.09396 0.0
H877 H 0.15433 0.39382 0.07984 0.0
H878 H 0.15232 0.34526 0.07428 0.0
H879 H 0.20354 0.43074 0.23569 0.0
H880 H 0.18745 0.45683 0.20341 0.0
H881 H 0.15535 0.41964 0.22334 0.0
H882 H 0.14739 0.49997 0.10014 0.0
H883 H 0.05224 0.41472 0.13008 0.0
H884 H 0.20598 0.45673 0.1047 0.0
H885 H 0.21492 0.46882 0.15017 0.0
H886 H 0.20734 0.50265 0.12094 0.0
H887 H 0.08539 0.34877 0.14876 0.0
H888 H 0.05827 0.37114 0.17204 0.0
H889 H 0.10296 0.37214 0.19023 0.0
C890 C 0.18618 0.65364 0.82592 0.0
C891 C 0.17894 0.66188 0.79178 0.0
C892 C 0.15913 0.62829 0.84324 0.0
C893 C 0.12435 0.61013 0.82561 0.0
C894 C 0.11731 0.6173 0.79068 0.0
C895 C 0.14464 0.64354 0.77425 0.0
C896 C 0.16759 0.62164 0.88071 0.0
C897 C 0.08088 0.59772 0.77092 0.0
C898 C 0.07911 0.52656 0.87532 0.0
C899 C 0.06041 0.5424 0.89787 0.0
C900 C 0.09641 0.54679 0.84816 0.0
C901 C 0.09574 0.58398 0.84446 0.0
C902 C 0.0733 0.59829 0.86472 0.0
C903 C 0.05564 0.57707 0.89128 0.0
C904 C 0.11895 0.53003 0.82625 0.0
C905 C 0.07176 0.6378 0.86159 0.0
H906 H 0.21256 0.66806 0.83956 0.0
H907 H 0.13912 0.64977 0.74769 0.0
H908 H 0.14776 0.62858 0.89704 0.0
H909 H 0.16481 0.59156 0.8836 0.0
H910 H 0.1957 0.63876 0.89079 0.0
H911 H 0.0809 0.60414 0.74311 0.0
H912 H 0.07372 0.56684 0.77285 0.0
H913 H 0.05905 0.60651 0.78241 0.0
H914 H 0.08256 0.49956 0.88058 0.0
H915 H 0.04159 0.58941 0.90916 0.0
H916 H 0.14813 0.54112 0.8363 0.0
H917 H 0.11702 0.53783 0.79897 0.0
H918 H 0.11014 0.4989 0.82689 0.0
H919 H 0.09675 0.65779 0.87534 0.0
H920 H 0.0475 0.64154 0.87328 0.0
H921 H 0.07098 0.64524 0.83415 0.0
C922 C 0.32577 0.19642 0.8445 0.0
C923 C 0.32492 0.19687 0.80811 0.0
C924 C 0.34613 0.17705 0.86376 0.0
C925 C 0.36656 0.1572 0.84665 0.0
C926 C 0.36602 0.15769 0.80994 0.0
C927 C 0.3454 0.17734 0.79127 0.0
C928 C 0.34562 0.17774 0.90268 0.0
C929 C 0.38719 0.13722 0.79026 0.0
C930 C 0.44322 0.13471 0.90257 0.0
C931 C 0.42622 0.09753 0.91161 0.0
C932 C 0.42478 0.15384 0.88068 0.0
C933 C 0.38802 0.13584 0.86725 0.0
C934 C 0.37123 0.09784 0.87512 0.0
C935 C 0.39035 0.0793 0.89694 0.0
C936 C 0.44434 0.19401 0.87301 0.0
C937 C 0.33234 0.07704 0.86153 0.0
H938 H 0.31035 0.21124 0.85817 0.0
H939 H 0.34523 0.17718 0.7633 0.0
H940 H 0.33458 0.14866 0.91121 0.0
H941 H 0.37392 0.18969 0.91493 0.0
H942 H 0.32876 0.19457 0.91231 0.0
H943 H 0.38469 0.14068 0.76193 0.0
H944 H 0.41658 0.1477 0.79967 0.0
H945 H 0.37717 0.1068 0.79496 0.0
H946 H 0.47077 0.14947 0.91351 0.0
H947 H 0.3765 0.05078 0.90355 0.0
H948 H 0.43115 0.21286 0.88555 0.0
H949 H 0.44222 0.19769 0.84474 0.0
H950 H 0.47375 0.20301 0.88252 0.0
H951 H 0.3135 0.09037 0.87298 0.0
H952 H 0.32391 0.04696 0.86774 0.0
H953 H 0.32908 0.07877 0.83303 0.0
C954 C 0.84268 0.28384 0.83543 0.0
C955 C 0.80559 0.26324 0.83484 0.0
C956 C 0.86035 0.30837 0.86365 0.0
C957 C 0.84007 0.31344 0.89156 0.0
C958 C 0.80233 0.29263 0.89102 0.0
C959 C 0.7856 0.26725 0.86272 0.0
C960 C 0.90068 0.32952 0.86316 0.0
C961 C 0.77925 0.29691 0.91981 0.0
C962 C 0.90371 0.35335 0.97116 0.0
C963 C 0.91362 0.39205 0.96599 0.0
C964 C 0.87693 0.3273 0.94892 0.0
C965 C 0.85944 0.34024 0.92101 0.0
C966 C 0.8662 0.3794 0.9182 0.0
C967 C 0.89319 0.4049 0.94084 0.0
C968 C 0.86991 0.28586 0.95335 0.0
C969 C 0.84617 0.39445 0.89036 0.0
H970 H 0.85777 0.28113 0.81338 0.0
H971 H 0.75658 0.2519 0.86168 0.0
H972 H 0.90476 0.36011 0.86238 0.0
H973 H 0.91584 0.32499 0.88713 0.0
H974 H 0.9128 0.32072 0.84048 0.0
H975 H 0.75114 0.29482 0.90925 0.0
H976 H 0.77679 0.27362 0.93744 0.0
H977 H 0.7911 0.32391 0.93521 0.0
H978 H 0.91865 0.3431 0.99113 0.0
H979 H 0.89993 0.43475 0.93722 0.0
H980 H 0.88075 0.27371 0.93164 0.0
H981 H 0.84006 0.27106 0.95254 0.0
H982 H 0.88308 0.28035 0.97812 0.0
H983 H 0.84632 0.38077 0.86462 0.0
H984 H 0.858 0.42537 0.88875 0.0
H985 H 0.81729 0.38808 0.89643 0.0
C986 C 0.69677 0.83842 0.80722 0.0
C987 C 0.7159 0.81483 0.82077 0.0
C988 C 0.67754 0.85583 0.82831 0.0
C989 C 0.67718 0.84997 0.86429 0.0
C990 C 0.69689 0.82669 0.87834 0.0
C991 C 0.71589 0.80947 0.85655 0.0
C992 C 0.6571 0.88019 0.81183 0.0
C993 C 0.69737 0.81939 0.91641 0.0
C994 C 0.65037 0.92044 0.92289 0.0
C995 C 0.61327 0.90161 0.92715 0.0
C996 C 0.67148 0.90392 0.90305 0.0
C997 C 0.65544 0.86746 0.88679 0.0
C998 C 0.61809 0.84824 0.89112 0.0
C999 C 0.59763 0.8654 0.91106 0.0
C1000 C 0.71106 0.92565 0.89934 0.0
C1001 C 0.59952 0.80947 0.87439 0.0
H1002 H 0.6963 0.84301 0.77975 0.0
H1003 H 0.73013 0.79116 0.8675 0.0
H1004 H 0.62774 0.86946 0.81681 0.0
H1005 H 0.66811 0.90925 0.82354 0.0
H1006 H 0.65914 0.88117 0.7834 0.0
H1007 H 0.71498 0.80191 0.92372 0.0
H1008 H 0.70739 0.8464 0.93206 0.0
H1009 H 0.66915 0.80481 0.92326 0.0
H1010 H 0.66307 0.94827 0.9351 0.0
H1011 H 0.56916 0.85024 0.91401 0.0
H1012 H 0.71536 0.93066 0.87165 0.0
H1013 H 0.72887 0.90903 0.90841 0.0
H1014 H 0.71991 0.95319 0.91423 0.0
H1015 H 0.59995 0.81047 0.84583 0.0
H1016 H 0.57065 0.79774 0.88082 0.0
H1017 H 0.61459 0.79 0.88282 0.0
C1018 C 0.7963 0.69144 0.10103 0.0
C1019 C 0.81933 0.70856 0.13039 0.0
C1020 C 0.80795 0.67066 0.07618 0.0
C1021 C 0.84332 0.66694 0.08116 0.0
C1022 C 0.86716 0.68558 0.11009 0.0
C1023 C 0.85489 0.70638 0.13429 0.0
C1024 C 0.78197 0.65155 0.04544 0.0
C1025 C 0.90508 0.6822 0.11635 0.0
C1026 C 0.86665 0.58249 0.04721 0.0
C1027 C 0.89039 0.59847 0.02204 0.0
C1028 C 0.84913 0.60394 0.06532 0.0
C1029 C 0.85512 0.64194 0.05752 0.0
C1030 C 0.87651 0.65714 0.03005 0.0
C1031 C 0.89426 0.6353 0.01283 0.0
C1032 C 0.82658 0.58681 0.09458 0.0
C1033 C 0.88261 0.69719 0.02032 0.0
H1034 H 0.76883 0.69345 0.09795 0.0
H1035 H 0.87268 0.71967 0.15704 0.0
H1036 H 0.79606 0.6565 0.02117 0.0
H1037 H 0.77233 0.62077 0.04841 0.0
H1038 H 0.75767 0.66149 0.04284 0.0
H1039 H 0.92055 0.69941 0.13955 0.0
H1040 H 0.90309 0.6524 0.11997 0.0
H1041 H 0.92093 0.69118 0.09354 0.0
H1042 H 0.86358 0.55399 0.05433 0.0
H1043 H 0.91209 0.64746 0.99287 0.0
H1044 H 0.79994 0.59239 0.09265 0.0
H1045 H 0.84127 0.59989 0.11967 0.0
H1046 H 0.82134 0.55596 0.09486 0.0
H1047 H 0.85652 0.70392 0.01916 0.0
H1048 H 0.89454 0.70259 0.99494 0.0
H1049 H 0.90166 0.71662 0.04038 0.0
C1050 C 0.37915 0.84338 0.21545 0.0
C1051 C 0.35536 0.80839 0.20254 0.0
C1052 C 0.40527 0.86554 0.19496 0.0
C1053 C 0.4068 0.85266 0.16059 0.0
C1054 C 0.38615 0.81538 0.14917 0.0
C1055 C 0.36062 0.7935 0.17044 0.0
C1056 C 0.42789 0.90455 0.20859 0.0
C1057 C 0.38755 0.80033 0.11293 0.0
C1058 C 0.409 0.92544 0.09511 0.0
C1059 C 0.44462 0.93425 0.08454 0.0
C1060 C 0.39672 0.89886 0.11962 0.0
C1061 C 0.42081 0.88078 0.1346 0.0
C1062 C 0.45719 0.89002 0.12483 0.0
C1063 C 0.46863 0.91653 0.09959 0.0
C1064 C 0.35759 0.88992 0.12915 0.0
C1065 C 0.48375 0.87147 0.14023 0.0
H1066 H 0.37588 0.85449 0.24075 0.0
H1067 H 0.34262 0.76617 0.16059 0.0
H1068 H 0.45595 0.912 0.19979 0.0
H1069 H 0.41501 0.92519 0.19844 0.0
H1070 H 0.42976 0.90718 0.23734 0.0
H1071 H 0.37608 0.76918 0.11046 0.0
H1072 H 0.37125 0.81213 0.09452 0.0
H1073 H 0.41606 0.8089 0.10529 0.0
H1074 H 0.39014 0.93886 0.08374 0.0
H1075 H 0.49616 0.92301 0.09145 0.0
H1076 H 0.35719 0.89658 0.15717 0.0
H1077 H 0.34285 0.8595 0.12404 0.0
H1078 H 0.34227 0.90596 0.11441 0.0
H1079 H 0.48062 0.86739 0.16823 0.0
H1080 H 0.51258 0.88813 0.13685 0.0
H1081 H 0.47823 0.84338 0.12702 0.0
C1082 C 0.70275 0.19021 0.15743 0.0
C1083 C 0.74072 0.19832 0.16168 0.0
C1084 C 0.68272 0.1702 0.12789 0.0
C1085 C 0.70129 0.15841 0.10167 0.0
C1086 C 0.73993 0.16829 0.10489 0.0
C1087 C 0.75935 0.18824 0.13513 0.0
C1088 C 0.64145 0.16042 0.1256 0.0
C1089 C 0.7606 0.15751 0.07676 0.0
C1090 C 0.6317 0.07378 0.05919 0.0
C1091 C 0.61297 0.09141 0.03682 0.0
C1092 C 0.66471 0.09462 0.07743 0.0
C1093 C 0.67908 0.13361 0.07254 0.0
C1094 C 0.66359 0.14969 0.04551 0.0
C1095 C 0.63023 0.12842 0.02815 0.0
C1096 C 0.68081 0.07618 0.10561 0.0
C1097 C 0.67924 0.19068 0.0383 0.0
H1098 H 0.6884 0.19841 0.17781 0.0
H1099 H 0.78887 0.19509 0.13835 0.0
H1100 H 0.63182 0.17189 0.10211 0.0
H1101 H 0.6286 0.12945 0.12354 0.0
H1102 H 0.63154 0.17171 0.14847 0.0
H1103 H 0.79008 0.16349 0.08502 0.0
H1104 H 0.74864 0.12725 0.06877 0.0
H1105 H 0.75829 0.17356 0.0536 0.0
H1106 H 0.6188 0.04484 0.06531 0.0
H1107 H 0.61637 0.14168 0.00976 0.0
H1108 H 0.67178 0.08303 0.13089 0.0
H1109 H 0.71114 0.08672 0.1074 0.0
H1110 H 0.67165 0.0451 0.10125 0.0
H1111 H 0.66906 0.20773 0.05659 0.0
H1112 H 0.67075 0.19611 0.01152 0.0
H1113 H 0.70957 0.20026 0.04201 0.0
C1114 C 0.63834 0.65894 0.78228 0.0
C1115 C 0.67423 0.68342 0.78888 0.0
C1116 C 0.61924 0.63807 0.80872 0.0
C1117 C 0.63582 0.64268 0.84306 0.0
C1118 C 0.67181 0.66807 0.84995 0.0
C1119 C 0.69078 0.68745 0.82274 0.0
C1120 C 0.58152 0.61057 0.79973 0.0
C1121 C 0.69028 0.67496 0.8862 0.0
C1122 C 0.57535 0.60707 0.91807 0.0
C1123 C 0.58393 0.57432 0.92575 0.0
C1124 C 0.59211 0.62989 0.89146 0.0
C1125 C 0.61686 0.61887 0.87114 0.0
C1126 C 0.62423 0.58495 0.87806 0.0
C1127 C 0.60826 0.56362 0.90544 0.0
C1128 C 0.5837 0.66602 0.88552 0.0
C1129 C 0.64919 0.57107 0.85658 0.0
H1130 H 0.62526 0.65576 0.75623 0.0
H1131 H 0.71835 0.70642 0.82822 0.0
H1132 H 0.58105 0.58197 0.80684 0.0
H1133 H 0.56129 0.61836 0.81481 0.0
H1134 H 0.57275 0.60954 0.77172 0.0
H1135 H 0.71675 0.69808 0.88793 0.0
H1136 H 0.6721 0.68209 0.90439 0.0
H1137 H 0.69548 0.64905 0.89489 0.0
H1138 H 0.55664 0.61556 0.93361 0.0
H1139 H 0.61468 0.53807 0.91085 0.0
H1140 H 0.56597 0.66282 0.86116 0.0
H1141 H 0.60923 0.68941 0.88276 0.0
H1142 H 0.56931 0.67383 0.90698 0.0
H1143 H 0.63992 0.56957 0.82869 0.0
H1144 H 0.65011 0.54288 0.86371 0.0
H1145 H 0.6774 0.59105 0.86004 0.0
C1146 C 0.39619 0.69257 0.79834 0.0
C1147 C 0.36949 0.7024 0.81575 0.0
C1148 C 0.41983 0.67598 0.81574 0.0
C1149 C 0.41608 0.66864 0.85111 0.0
C1150 C 0.39047 0.68049 0.86917 0.0
C1151 C 0.36757 0.69742 0.85125 0.0
C1152 C 0.44733 0.66454 0.79582 0.0
C1153 C 0.3857 0.67326 0.90699 0.0
C1154 C 0.42951 0.58363 0.89156 0.0
C1155 C 0.45902 0.60035 0.91607 0.0
C1156 C 0.41711 0.60528 0.86791 0.0
C1157 C 0.4351 0.64446 0.86846 0.0
C1158 C 0.4677 0.66064 0.89002 0.0
C1159 C 0.47926 0.63835 0.9138 0.0
C1160 C 0.38248 0.58682 0.84495 0.0
C1161 C 0.48847 0.70205 0.89029 0.0
H1162 H 0.39794 0.69685 0.77088 0.0
H1163 H 0.34713 0.70536 0.86475 0.0
H1164 H 0.47379 0.6705 0.81159 0.0
H1165 H 0.43692 0.63385 0.78933 0.0
H1166 H 0.45227 0.67923 0.77128 0.0
H1167 H 0.36634 0.68647 0.91771 0.0
H1168 H 0.37515 0.64254 0.9102 0.0
H1169 H 0.41243 0.68424 0.92246 0.0
H1170 H 0.41426 0.55412 0.89255 0.0
H1171 H 0.50263 0.65139 0.93213 0.0
H1172 H 0.38585 0.59573 0.81804 0.0
H1173 H 0.35978 0.59567 0.85456 0.0
H1174 H 0.37441 0.55569 0.84454 0.0
H1175 H 0.48932 0.71225 0.86369 0.0
H1176 H 0.51695 0.70842 0.90206 0.0
H1177 H 0.4744 0.71796 0.9057 0.0
C1178 C 0.34615 0.37585 0.7737 0.0
C1179 C 0.30983 0.35303 0.77331 0.0
C1180 C 0.36275 0.39903 0.80306 0.0
C1181 C 0.3421 0.39891 0.83199 0.0
C1182 C 0.30385 0.38138 0.82878 0.0
C1183 C 0.28805 0.35795 0.79935 0.0
C1184 C 0.4034 0.41915 0.805 0.0
C1185 C 0.28068 0.38377 0.85806 0.0
C1186 C 0.39817 0.38688 0.91097 0.0
C1187 C 0.4145 0.42421 0.92332 0.0
C1188 C 0.37179 0.3779 0.88287 0.0
C1189 C 0.3617 0.4071 0.8668 0.0
C1190 C 0.37507 0.44417 0.88152 0.0
C1191 C 0.4015 0.45235 0.90968 0.0
C1192 C 0.357 0.33753 0.86871 0.0
C1193 C 0.36407 0.47595 0.86623 0.0
H1194 H 0.36264 0.37231 0.75305 0.0
H1195 H 0.25942 0.34127 0.79794 0.0
H1196 H 0.40976 0.44788 0.81708 0.0
H1197 H 0.4179 0.40361 0.82138 0.0
H1198 H 0.41417 0.42119 0.77899 0.0
H1199 H 0.28683 0.36744 0.87971 0.0
H1200 H 0.28738 0.41335 0.86814 0.0
H1201 H 0.25096 0.37268 0.84986 0.0
H1202 H 0.40743 0.36489 0.92202 0.0
H1203 H 0.41362 0.48125 0.91934 0.0
H1204 H 0.36645 0.33512 0.84257 0.0
H1205 H 0.32664 0.32819 0.8661 0.0
H1206 H 0.36602 0.31806 0.88552 0.0
H1207 H 0.38613 0.49236 0.85066 0.0
H1208 H 0.36086 0.49526 0.8872 0.0
H1209 H 0.33819 0.46604 0.84935 0.0
C1210 C 0.71441 0.39349 0.81023 0.0
C1211 C 0.73746 0.37306 0.82137 0.0
C1212 C 0.69577 0.40791 0.83412 0.0
C1213 C 0.70039 0.40145 0.86971 0.0
C1214 C 0.72612 0.3837 0.88127 0.0
C1215 C 0.74426 0.36956 0.85687 0.0
C1216 C 0.66894 0.42729 0.82097 0.0
C1217 C 0.73197 0.37636 0.91898 0.0
C1218 C 0.65896 0.44902 0.93587 0.0
C1219 C 0.6254 0.42115 0.93937 0.0
C1220 C 0.68377 0.44312 0.91326 0.0
C1221 C 0.67489 0.40843 0.89401 0.0
C1222 C 0.64154 0.37984 0.89807 0.0
C1223 C 0.6171 0.38663 0.92059 0.0
C1224 C 0.71919 0.47408 0.9096 0.0
C1225 C 0.63147 0.34219 0.87832 0.0
H1226 H 0.70919 0.3962 0.78275 0.0
H1227 H 0.76169 0.35328 0.86549 0.0
H1228 H 0.64061 0.40831 0.82254 0.0
H1229 H 0.67208 0.45312 0.83725 0.0
H1230 H 0.67245 0.43493 0.79365 0.0
H1231 H 0.73148 0.40038 0.93613 0.0
H1232 H 0.7096 0.35126 0.92549 0.0
H1233 H 0.75839 0.3709 0.92467 0.0
H1234 H 0.66549 0.47593 0.95008 0.0
H1235 H 0.59132 0.36496 0.92325 0.0
H1236 H 0.74282 0.46379 0.91574 0.0
H1237 H 0.72221 0.49926 0.92683 0.0
H1238 H 0.72051 0.48258 0.88242 0.0
H1239 H 0.63028 0.34614 0.85006 0.0
H1240 H 0.60463 0.32289 0.88468 0.0
H1241 H 0.65276 0.32855 0.88425 0.0
C1242 C 0.61361 0.3046 0.20314 0.0
C1243 C 0.64077 0.29727 0.18445 0.0
C1244 C 0.58841 0.32032 0.18728 0.0
C1245 C 0.5911 0.32941 0.15222 0.0
C1246 C 0.61721 0.32 0.1328 0.0
C1247 C 0.64165 0.30383 0.14918 0.0
C1248 C 0.56039 0.329 0.2086 0.0
C1249 C 0.62082 0.329 0.0952 0.0
C1250 C 0.52669 0.35817 0.09039 0.0
C1251 C 0.54651 0.39631 0.08833 0.0
C1252 C 0.53825 0.33623 0.11451 0.0
C1253 C 0.57039 0.35297 0.13653 0.0
C1254 C 0.58711 0.3924 0.13789 0.0
C1255 C 0.57472 0.4137 0.11389 0.0
C1256 C 0.51844 0.29456 0.11368 0.0
C1257 C 0.62093 0.41155 0.16165 0.0
H1258 H 0.61266 0.29904 0.23042 0.0
H1259 H 0.66243 0.29777 0.13468 0.0
H1260 H 0.57067 0.3589 0.21816 0.0
H1261 H 0.53409 0.32456 0.19294 0.0
H1262 H 0.55521 0.31141 0.23143 0.0
H1263 H 0.64111 0.3179 0.08338 0.0
H1264 H 0.59401 0.31698 0.08003 0.0
H1265 H 0.62951 0.35992 0.09295 0.0
H1266 H 0.50403 0.34469 0.07144 0.0
H1267 H 0.58937 0.44344 0.11328 0.0
H1268 H 0.51882 0.28361 0.13994 0.0
H1269 H 0.53232 0.27964 0.09695 0.0
H1270 H 0.48956 0.28788 0.10293 0.0
H1271 H 0.62703 0.44254 0.1635 0.0
H1272 H 0.64477 0.40523 0.15157 0.0
H1273 H 0.61784 0.401 0.18804 0.0
C1274 C 0.72522 0.64546 0.19786 0.0
C1275 C 0.70411 0.65141 0.22409 0.0
C1276 C 0.70885 0.62075 0.16934 0.0
C1277 C 0.67063 0.6029 0.16717 0.0
C1278 C 0.65065 0.60431 0.19631 0.0
C1279 C 0.66786 0.62871 0.22477 0.0
C1280 C 0.73139 0.61725 0.13984 0.0
C1281 C 0.61001 0.58441 0.19543 0.0
C1282 C 0.61282 0.61047 0.08777 0.0
C1283 C 0.59615 0.57262 0.0773 0.0
C1284 C 0.63978 0.62094 0.11535 0.0
C1285 C 0.65024 0.59271 0.13277 0.0
C1286 C 0.63646 0.55489 0.11989 0.0
C1287 C 0.60934 0.54522 0.09224 0.0
C1288 C 0.6547 0.66194 0.12759 0.0
C1289 C 0.64777 0.52407 0.13675 0.0
H1290 H 0.75382 0.66208 0.19846 0.0
H1291 H 0.65188 0.6331 0.24554 0.0
H1292 H 0.72403 0.58749 0.1301 0.0
H1293 H 0.72543 0.63353 0.11806 0.0
H1294 H 0.76121 0.62789 0.14768 0.0
H1295 H 0.59976 0.58394 0.22159 0.0
H1296 H 0.59525 0.59907 0.17831 0.0
H1297 H 0.60333 0.55509 0.18474 0.0
H1298 H 0.60335 0.63182 0.07568 0.0
H1299 H 0.59688 0.51589 0.08401 0.0
H1300 H 0.68505 0.67144 0.1295 0.0
H1301 H 0.64594 0.66579 0.15378 0.0
H1302 H 0.64512 0.68038 0.10998 0.0
H1303 H 0.67508 0.53478 0.15126 0.0
H1304 H 0.64822 0.50213 0.11703 0.0
H1305 H 0.62737 0.51043 0.15508 0.0
C1306 C 0.29394 0.60649 0.19038 0.0
C1307 C 0.2739 0.62948 0.17814 0.0
C1308 C 0.3114 0.58946 0.16742 0.0
C1309 C 0.30875 0.596 0.13167 0.0
C1310 C 0.28576 0.61636 0.11896 0.0
C1311 C 0.26862 0.63294 0.14245 0.0
C1312 C 0.33531 0.56741 0.18179 0.0
C1313 C 0.28222 0.6239 0.08103 0.0
C1314 C 0.39347 0.60669 0.08403 0.0
C1315 C 0.3841 0.57245 0.0646 0.0
C1316 C 0.36909 0.61451 0.10597 0.0
C1317 C 0.33453 0.58732 0.10867 0.0
C1318 C 0.32465 0.55282 0.08897 0.0
C1319 C 0.34955 0.54582 0.06702 0.0
C1320 C 0.38043 0.65189 0.12635 0.0
C1321 C 0.28799 0.52331 0.0913 0.0
H1322 H 0.29789 0.60373 0.21802 0.0
H1323 H 0.25334 0.651 0.13298 0.0
H1324 H 0.33136 0.54149 0.16538 0.0
H1325 H 0.36449 0.58469 0.18182 0.0
H1326 H 0.3296 0.55954 0.20873 0.0
H1327 H 0.25894 0.63462 0.07459 0.0
H1328 H 0.3077 0.64525 0.07431 0.0
H1329 H 0.27847 0.59806 0.06458 0.0
H1330 H 0.42002 0.62744 0.08225 0.0
H1331 H 0.34217 0.51915 0.05227 0.0
H1332 H 0.37985 0.64732 0.15449 0.0
H1333 H 0.36084 0.66737 0.11964 0.0
H1334 H 0.40834 0.66985 0.12134 0.0
H1335 H 0.28476 0.515 0.11844 0.0
H1336 H 0.28461 0.49777 0.07445 0.0
H1337 H 0.2656 0.53495 0.08373 0.0
C1338 C 0.33955 0.34504 0.20694 0.0
C1339 C 0.3407 0.30876 0.21299 0.0
C1340 C 0.35819 0.36561 0.18009 0.0
C1341 C 0.37745 0.34907 0.15782 0.0
C1342 C 0.37812 0.3121 0.16359 0.0
C1343 C 0.36042 0.2928 0.19142 0.0
C1344 C 0.35725 0.40513 0.17555 0.0
C1345 C 0.39651 0.29236 0.13973 0.0
C1346 C 0.39007 0.39121 0.06908 0.0
C1347 C 0.42682 0.41421 0.07234 0.0
C1348 C 0.37432 0.36872 0.09598 0.0
C1349 C 0.39533 0.36986 0.12766 0.0
C1350 C 0.43286 0.39206 0.13073 0.0
C1351 C 0.44824 0.41356 0.10292 0.0
C1352 C 0.33479 0.34431 0.09068 0.0
C1353 C 0.45638 0.39449 0.16396 0.0
H1354 H 0.32459 0.35761 0.22363 0.0
H1355 H 0.36115 0.2646 0.19572 0.0
H1356 H 0.38554 0.42472 0.17531 0.0
H1357 H 0.34252 0.40655 0.15031 0.0
H1358 H 0.34348 0.41498 0.19643 0.0
H1359 H 0.39575 0.26423 0.14852 0.0
H1360 H 0.38258 0.28878 0.11327 0.0
H1361 H 0.42544 0.30948 0.1379 0.0
H1362 H 0.37332 0.39116 0.04545 0.0
H1363 H 0.47657 0.43131 0.10581 0.0
H1364 H 0.31803 0.35503 0.10793 0.0
H1365 H 0.33213 0.31513 0.09762 0.0
H1366 H 0.32329 0.34362 0.06352 0.0
H1367 H 0.44557 0.4076 0.18504 0.0
H1368 H 0.48541 0.41128 0.16169 0.0
H1369 H 0.45539 0.36598 0.17171 0.0
C1370 C 0.79249 0.68655 0.63754 0.0
C1371 C 0.79454 0.68305 0.67359 0.0
C1372 C 0.81168 0.66966 0.61565 0.0
C1373 C 0.83358 0.64858 0.62991 0.0
C1374 C 0.8351 0.64439 0.66616 0.0
C1375 C 0.8157 0.66146 0.68733 0.0
C1376 C 0.80925 0.67519 0.57729 0.0
C1377 C 0.85779 0.62227 0.68285 0.0
C1378 C 0.86265 0.57859 0.5729 0.0
C1379 C 0.89916 0.59875 0.56755 0.0
C1380 C 0.84096 0.59451 0.59254 0.0
C1381 C 0.85574 0.63175 0.60735 0.0
C1382 C 0.89244 0.65235 0.60181 0.0
C1383 C 0.91356 0.63572 0.5822 0.0
C1384 C 0.80217 0.57126 0.59772 0.0
C1385 C 0.90965 0.69203 0.61697 0.0
H1386 H 0.7767 0.70339 0.62646 0.0
H1387 H 0.81769 0.6583 0.71501 0.0
H1388 H 0.83671 0.69093 0.56931 0.0
H1389 H 0.80022 0.64757 0.56262 0.0
H1390 H 0.78998 0.69087 0.56989 0.0
H1391 H 0.85778 0.62331 0.71152 0.0
H1392 H 0.84698 0.59247 0.67301 0.0
H1393 H 0.88651 0.63331 0.67596 0.0
H1394 H 0.85093 0.55012 0.56183 0.0
H1395 H 0.94154 0.65189 0.57833 0.0
H1396 H 0.7829 0.58628 0.58865 0.0
H1397 H 0.79909 0.56711 0.62571 0.0
H1398 H 0.79417 0.54327 0.58369 0.0
H1399 H 0.89286 0.70985 0.60841 0.0
H1400 H 0.93795 0.70489 0.60937 0.0
H1401 H 0.91049 0.69217 0.64565 0.0
C1402 C 0.32969 0.85098 0.66997 0.0
C1403 C 0.33692 0.84201 0.70388 0.0
C1404 C 0.35678 0.87667 0.65297 0.0
C1405 C 0.39162 0.89439 0.67068 0.0
C1406 C 0.39865 0.88649 0.70539 0.0
C1407 C 0.37127 0.85998 0.7215 0.0
C1408 C 0.34834 0.88412 0.61572 0.0
C1409 C 0.43515 0.90556 0.72524 0.0
C1410 C 0.46077 0.92833 0.60546 0.0
C1411 C 0.45655 0.96339 0.59963 0.0
C1412 C 0.44268 0.90657 0.63154 0.0
C1413 C 0.42038 0.92074 0.65211 0.0
C1414 C 0.42021 0.95819 0.64919 0.0
C1415 C 0.43795 0.97897 0.6225 0.0
C1416 C 0.44365 0.86678 0.63382 0.0
C1417 C 0.3978 0.97476 0.67143 0.0
H1418 H 0.30327 0.83687 0.65626 0.0
H1419 H 0.37679 0.85322 0.74789 0.0
H1420 H 0.35147 0.91435 0.61336 0.0
H1421 H 0.36796 0.87723 0.5991 0.0
H1422 H 0.32012 0.86743 0.60559 0.0
H1423 H 0.43512 0.89862 0.75291 0.0
H1424 H 0.45685 0.89682 0.71344 0.0
H1425 H 0.44251 0.9365 0.7238 0.0
H1426 H 0.47468 0.91615 0.58732 0.0
H1427 H 0.43488 0.00625 0.61781 0.0
H1428 H 0.41843 0.8473 0.61997 0.0
H1429 H 0.44446 0.85878 0.66109 0.0
H1430 H 0.46767 0.86289 0.62177 0.0
H1431 H 0.36863 0.96407 0.66127 0.0
H1432 H 0.40687 0.00593 0.67134 0.0
H1433 H 0.39953 0.96637 0.69854 0.0
C1434 C 0.19049 0.30905 0.6529 0.0
C1435 C 0.19151 0.30908 0.68931 0.0
C1436 C 0.16988 0.32798 0.63341 0.0
C1437 C 0.14936 0.34786 0.65032 0.0
C1438 C 0.15004 0.34784 0.68706 0.0
C1439 C 0.17092 0.32862 0.70595 0.0
C1440 C 0.17025 0.32682 0.59448 0.0
C1441 C 0.12876 0.36836 0.70652 0.0
C1442 C 0.1249 0.42478 0.59911 0.0
C1443 C 0.08906 0.40618 0.58456 0.0
C1444 C 0.14422 0.40669 0.6212 0.0
C1445 C 0.12766 0.36878 0.62948 0.0
C1446 C 0.09092 0.35042 0.61617 0.0
C1447 C 0.07229 0.36911 0.59399 0.0
C1448 C 0.18308 0.42784 0.63463 0.0
C1449 C 0.0716 0.31034 0.62428 0.0
H1450 H 0.206 0.2942 0.63938 0.0
H1451 H 0.17121 0.32914 0.73394 0.0
H1452 H 0.14194 0.31457 0.58234 0.0
H1453 H 0.18109 0.35579 0.58563 0.0
H1454 H 0.18722 0.31002 0.58503 0.0
H1455 H 0.13136 0.36524 0.7349 0.0
H1456 H 0.1386 0.39871 0.70152 0.0
H1457 H 0.09936 0.35763 0.69718 0.0
H1458 H 0.13857 0.45324 0.59221 0.0
H1459 H 0.04477 0.35407 0.58315 0.0
H1460 H 0.20202 0.41453 0.62334 0.0
H1461 H 0.18643 0.42647 0.66316 0.0
H1462 H 0.1913 0.45782 0.6281 0.0
H1463 H 0.08488 0.29145 0.61194 0.0
H1464 H 0.04216 0.30108 0.61485 0.0
H1465 H 0.07385 0.30703 0.65261 0.0
C1466 C 0.67321 0.22154 0.65886 0.0
C1467 C 0.71079 0.24029 0.66099 0.0
C1468 C 0.65603 0.19705 0.63046 0.0
C1469 C 0.67726 0.19014 0.60407 0.0
C1470 C 0.71546 0.20932 0.60609 0.0
C1471 C 0.73173 0.23468 0.63447 0.0
C1472 C 0.61523 0.17765 0.62933 0.0
C1473 C 0.73969 0.20315 0.57905 0.0
C1474 C 0.62304 0.09773 0.55701 0.0
C1475 C 0.60514 0.11047 0.52968 0.0
C1476 C 0.64943 0.12323 0.58009 0.0
C1477 C 0.65863 0.16234 0.57514 0.0
C1478 C 0.64406 0.17479 0.54505 0.0
C1479 C 0.61746 0.14869 0.52267 0.0
C1480 C 0.6648 0.10766 0.61091 0.0
C1481 C 0.65372 0.21605 0.53838 0.0
H1482 H 0.65735 0.22552 0.67989 0.0
H1483 H 0.76107 0.24866 0.63673 0.0
H1484 H 0.60186 0.18084 0.60385 0.0
H1485 H 0.60984 0.14715 0.6326 0.0
H1486 H 0.60231 0.18893 0.65002 0.0
H1487 H 0.76579 0.20132 0.59163 0.0
H1488 H 0.72665 0.17747 0.56209 0.0
H1489 H 0.74678 0.22774 0.56263 0.0
H1490 H 0.61432 0.06816 0.56229 0.0
H1491 H 0.60444 0.15869 0.50104 0.0
H1492 H 0.68071 0.12943 0.63083 0.0
H1493 H 0.68278 0.09187 0.6018 0.0
H1494 H 0.64225 0.08729 0.6233 0.0
H1495 H 0.64286 0.23044 0.55848 0.0
H1496 H 0.64229 0.22092 0.51251 0.0
H1497 H 0.68387 0.22914 0.54012 0.0
C1498 C 0.81156 0.312 0.33762 0.0
C1499 C 0.77361 0.30401 0.33349 0.0
C1500 C 0.83172 0.33183 0.36718 0.0
C1501 C 0.81329 0.34356 0.39356 0.0
C1502 C 0.77465 0.33379 0.39046 0.0
C1503 C 0.75511 0.31404 0.36019 0.0
C1504 C 0.87298 0.34149 0.36935 0.0
C1505 C 0.75415 0.34454 0.41875 0.0
C1506 C 0.88443 0.37312 0.46712 0.0
C1507 C 0.90169 0.41021 0.45868 0.0
C1508 C 0.85109 0.35194 0.44964 0.0
C1509 C 0.83563 0.36819 0.42272 0.0
C1510 C 0.85005 0.40722 0.41801 0.0
C1511 C 0.88302 0.42796 0.43637 0.0
C1512 C 0.83543 0.31089 0.45663 0.0
C1513 C 0.83404 0.42583 0.38991 0.0
H1514 H 0.82581 0.30384 0.31713 0.0
H1515 H 0.72559 0.30729 0.35706 0.0
H1516 H 0.88591 0.37245 0.37149 0.0
H1517 H 0.88263 0.3299 0.39275 0.0
H1518 H 0.88277 0.33024 0.34638 0.0
H1519 H 0.72454 0.33809 0.41082 0.0
H1520 H 0.75705 0.32893 0.44205 0.0
H1521 H 0.76584 0.37492 0.42636 0.0
H1522 H 0.89824 0.35976 0.48544 0.0
H1523 H 0.89593 0.45695 0.43041 0.0
H1524 H 0.84572 0.29396 0.43831 0.0
H1525 H 0.80512 0.30128 0.45281 0.0
H1526 H 0.84383 0.30532 0.4834 0.0
H1527 H 0.84309 0.41909 0.36461 0.0
H1528 H 0.84323 0.45689 0.39441 0.0
H1529 H 0.80371 0.41533 0.38807 0.0
C1530 C 0.65757 0.79328 0.3599 0.0
C1531 C 0.69332 0.79167 0.3643 0.0
C1532 C 0.64458 0.81365 0.38389 0.0
C1533 C 0.66785 0.83238 0.41311 0.0
C1534 C 0.70336 0.82913 0.41863 0.0
C1535 C 0.71578 0.80884 0.39395 0.0
C1536 C 0.60657 0.81663 0.37701 0.0
C1537 C 0.7287 0.84827 0.44975 0.0
C1538 C 0.64448 0.91707 0.4464 0.0
C1539 C 0.62066 0.90137 0.47159 0.0
C1540 C 0.66177 0.89536 0.42836 0.0
C1541 C 0.65552 0.85736 0.43628 0.0
C1542 C 0.63379 0.84229 0.46358 0.0
C1543 C 0.61623 0.8644 0.4807 0.0
C1544 C 0.68458 0.91232 0.3992 0.0
C1545 C 0.62741 0.80223 0.4734 0.0
H1546 H 0.64022 0.77995 0.33693 0.0
H1547 H 0.74337 0.80726 0.39741 0.0
H1548 H 0.59042 0.80768 0.39964 0.0
H1549 H 0.60838 0.84634 0.37311 0.0
H1550 H 0.59152 0.79921 0.35376 0.0
H1551 H 0.75321 0.83872 0.4527 0.0
H1552 H 0.73802 0.8791 0.447 0.0
H1553 H 0.71416 0.8429 0.47375 0.0
H1554 H 0.64796 0.94566 0.43934 0.0
H1555 H 0.5983 0.85244 0.50064 0.0
H1556 H 0.6703 0.8988 0.37409 0.0
H1557 H 0.71137 0.90709 0.40168 0.0
H1558 H 0.68952 0.94309 0.39849 0.0
H1559 H 0.60868 0.78281 0.45313 0.0
H1560 H 0.61501 0.79684 0.49856 0.0
H1561 H 0.65348 0.79547 0.47505 0.0
C1562 C 0.15473 0.71206 0.33129 0.0
C1563 C 0.15812 0.6997 0.29761 0.0
C1564 C 0.12931 0.68896 0.35193 0.0
C1565 C 0.10691 0.65314 0.33822 0.0
C1566 C 0.10662 0.64324 0.30269 0.0
C1567 C 0.13269 0.66647 0.28284 0.0
C1568 C 0.12961 0.70092 0.38949 0.0
C1569 C 0.08179 0.60613 0.28672 0.0
C1570 C 0.10297 0.57469 0.39786 0.0
C1571 C 0.06848 0.56772 0.41067 0.0
C1572 C 0.11528 0.60213 0.37408 0.0
C1573 C 0.09232 0.62298 0.36221 0.0
C1574 C 0.05675 0.61509 0.37375 0.0
C1575 C 0.04531 0.58765 0.39814 0.0
C1576 C 0.15341 0.60937 0.36236 0.0
C1577 C 0.03114 0.63625 0.36152 0.0
H1578 H 0.17405 0.73807 0.34257 0.0
H1579 H 0.13458 0.65746 0.25637 0.0
H1580 H 0.10128 0.69384 0.3975 0.0
H1581 H 0.14432 0.68553 0.40581 0.0
H1582 H 0.14352 0.73155 0.39457 0.0
H1583 H 0.07913 0.60618 0.258 0.0
H1584 H 0.09325 0.58345 0.29411 0.0
H1585 H 0.05415 0.59942 0.29641 0.0
H1586 H 0.12101 0.55929 0.40709 0.0
H1587 H 0.01858 0.58247 0.40789 0.0
H1588 H 0.17009 0.63902 0.36899 0.0
H1589 H 0.15205 0.6047 0.33384 0.0
H1590 H 0.16782 0.59088 0.37447 0.0
H1591 H 0.0358 0.6615 0.37908 0.0
H1592 H 1.0021 0.6187 0.36224 0.0
H1593 H 0.03568 0.64563 0.33485 0.0
C1594 C 0.32818 0.15776 0.36051 0.0
C1595 C 0.30895 0.15431 0.32813 0.0
C1596 C 0.34798 0.13306 0.36889 0.0
C1597 C 0.34982 0.10562 0.34359 0.0
C1598 C 0.33026 0.10207 0.31087 0.0
C1599 C 0.30953 0.12608 0.30377 0.0
C1600 C 0.36746 0.13677 0.4046 0.0
C1601 C 0.33273 0.07445 0.28269 0.0
C1602 C 0.43426 0.07841 0.36644 0.0
C1603 C 0.41951 0.04709 0.38593 0.0
C1604 C 0.41129 0.09567 0.34893 0.0
C1605 C 0.37303 0.08146 0.35154 0.0
C1606 C 0.35789 0.04667 0.36657 0.0
C1607 C 0.38142 0.02935 0.38287 0.0
C1608 C 0.42826 0.13139 0.33099 0.0
C1609 C 0.31721 0.03015 0.36957 0.0
H1610 H 0.32781 0.17978 0.37913 0.0
H1611 H 0.29527 0.12402 0.27833 0.0
H1612 H 0.36 0.10911 0.41651 0.0
H1613 H 0.3975 0.14611 0.40269 0.0
H1614 H 0.36074 0.15729 0.42209 0.0
H1615 H 0.31154 0.07112 0.26089 0.0
H1616 H 0.36005 0.08465 0.27237 0.0
H1617 H 0.32989 0.04647 0.29292 0.0
H1618 H 0.46367 0.09169 0.36771 0.0
H1619 H 0.36965 0.0044 0.3969 0.0
H1620 H 0.42868 0.15591 0.34796 0.0
H1621 H 0.41194 0.13214 0.30649 0.0
H1622 H 0.45683 0.13442 0.32517 0.0
H1623 H 0.30918 0.04583 0.39072 0.0
H1624 H 0.30943 1.00004 0.37566 0.0
H1625 H 0.30129 0.03272 0.34541 0.0
C1626 C 0.69466 0.8677 0.69389 0.0
C1627 C 0.69296 0.83816 0.67005 0.0
C1628 C 0.67596 0.89345 0.6865 0.0
C1629 C 0.65612 0.89026 0.65399 0.0
C1630 C 0.65528 0.86113 0.62931 0.0
C1631 C 0.67315 0.83483 0.63798 0.0
C1632 C 0.67636 0.92308 0.71395 0.0
C1633 C 0.63536 0.85765 0.59383 0.0
C1634 C 0.57734 0.92661 0.63108 0.0
C1635 C 0.59435 0.9564 0.61071 0.0
C1636 C 0.59792 0.90692 0.64874 0.0
C1637 C 0.63605 0.91715 0.64541 0.0
C1638 C 0.65388 0.95055 0.62931 0.0
C1639 C 0.63278 0.9704 0.61285 0.0
C1640 C 0.57827 0.87278 0.66765 0.0
C1641 C 0.69457 0.96273 0.62537 0.0
H1642 H 0.70951 0.86986 0.71903 0.0
H1643 H 0.67186 0.8119 0.61971 0.0
H1644 H 0.68295 0.95123 0.70311 0.0
H1645 H 0.64873 0.91665 0.72358 0.0
H1646 H 0.6964 0.92437 0.73631 0.0
H1647 H 0.63935 0.83499 0.57696 0.0
H1648 H 0.60562 0.85156 0.59632 0.0
H1649 H 0.64507 0.8846 0.58089 0.0
H1650 H 0.5477 0.91626 0.6304 0.0
H1651 H 0.64636 0.99406 0.59798 0.0
H1652 H 0.59427 0.87108 0.69208 0.0
H1653 H 0.5751 0.84705 0.65121 0.0
H1654 H 0.5506 0.87302 0.67376 0.0
H1655 H 0.71011 0.95987 0.64968 0.0
H1656 H 0.70499 0.99229 0.61778 0.0
H1657 H 0.70025 0.94436 0.60496 0.0
C1658 C 0.68799 0.1501 0.32461 0.0
C1659 C 0.6805 0.15868 0.29063 0.0
C1660 C 0.66093 0.12488 0.34204 0.0
C1661 C 0.62587 0.10727 0.32471 0.0
C1662 C 0.6187 0.11447 0.28983 0.0
C1663 C 0.64606 0.14051 0.27327 0.0
C1664 C 0.66955 0.11804 0.37942 0.0
C1665 C 0.58199 0.09547 0.27034 0.0
C1666 C 0.57808 0.02469 0.37464 0.0
C1667 C 0.56004 0.04147 0.39708 0.0
C1668 C 0.59616 0.04444 0.34761 0.0
C1669 C 0.59691 0.08207 0.34391 0.0
C1670 C 0.57519 0.09748 0.36408 0.0
C1671 C 0.55665 0.0767 0.39048 0.0
C1672 C 0.61791 0.02657 0.3258 0.0
C1673 C 0.57524 0.13751 0.36092 0.0
H1674 H 0.71449 0.16436 0.33811 0.0
H1675 H 0.64032 0.14696 0.24682 0.0
H1676 H 0.6505 0.12601 0.39603 0.0
H1677 H 0.66568 0.08775 0.38237 0.0
H1678 H 0.69806 0.13428 0.38912 0.0
H1679 H 0.58228 0.10083 0.2423 0.0
H1680 H 0.57359 0.06468 0.27328 0.0
H1681 H 0.56088 0.10593 0.28125 0.0
H1682 H 0.58047 0.99727 0.37994 0.0
H1683 H 0.54302 0.08969 0.40825 0.0
H1684 H 0.64713 0.03682 0.33582 0.0
H1685 H 0.61628 0.03432 0.29848 0.0
H1686 H 0.60818 0.99544 0.32656 0.0
H1687 H 0.60112 0.15681 0.37385 0.0
H1688 H 0.55197 0.14267 0.37334 0.0
H1689 H 0.57388 0.14459 0.3334 0.0
C1690 C 0.82352 0.69335 0.34388 0.0
C1691 C 0.82282 0.69367 0.30749 0.0
C1692 C 0.84374 0.67398 0.36333 0.0
C1693 C 0.86419 0.65401 0.34642 0.0
C1694 C 0.86378 0.65433 0.30971 0.0
C1695 C 0.84329 0.67397 0.29085 0.0
C1696 C 0.84308 0.67482 0.40224 0.0
C1697 C 0.88497 0.63373 0.29024 0.0
C1698 C 0.94089 0.63195 0.40269 0.0
C1699 C 0.92401 0.59478 0.41182 0.0
C1700 C 0.9224 0.65093 0.38068 0.0
C1701 C 0.88567 0.6328 0.36724 0.0
C1702 C 0.86896 0.59482 0.37525 0.0
C1703 C 0.88815 0.57642 0.39717 0.0
C1704 C 0.9419 0.69107 0.37287 0.0
C1705 C 0.8301 0.57389 0.36168 0.0
H1706 H 0.80809 0.70828 0.3574 0.0
H1707 H 0.84323 0.67371 0.26288 0.0
H1708 H 0.83209 0.64578 0.41087 0.0
H1709 H 0.87134 0.6869 0.41456 0.0
H1710 H 0.82612 0.69162 0.41169 0.0
H1711 H 0.88245 0.63693 0.26186 0.0
H1712 H 0.91436 0.64433 0.29963 0.0
H1713 H 0.87501 0.60337 0.29516 0.0
H1714 H 0.96842 0.64682 0.41363 0.0
H1715 H 0.87437 0.54791 0.40386 0.0
H1716 H 0.92859 0.70993 0.38522 0.0
H1717 H 0.93985 0.69458 0.34456 0.0
H1718 H 0.97128 0.7002 0.38247 0.0
H1719 H 0.81121 0.58727 0.37298 0.0
H1720 H 0.82171 0.54387 0.36807 0.0
H1721 H 0.82686 0.57543 0.33316 0.0
C1722 C 0.3411 0.77925 0.34129 0.0
C1723 C 0.30297 0.76521 0.33707 0.0
C1724 C 0.35884 0.80402 0.36936 0.0
C1725 C 0.33777 0.8155 0.39342 0.0
C1726 C 0.29904 0.80098 0.38938 0.0
C1727 C 0.28203 0.77559 0.36125 0.0
C1728 C 0.40015 0.8192 0.37239 0.0
C1729 C 0.2756 0.81297 0.41403 0.0
C1730 C 0.39687 0.8584 0.47486 0.0
C1731 C 0.41081 0.89608 0.46648 0.0
C1732 C 0.36994 0.83223 0.45283 0.0
C1733 C 0.35695 0.84403 0.42159 0.0
C1734 C 0.36799 0.88283 0.415 0.0
C1735 C 0.39452 0.90846 0.43781 0.0
C1736 C 0.35833 0.79136 0.46123 0.0
C1737 C 0.35494 0.89766 0.3825 0.0
H1738 H 0.35702 0.77171 0.32192 0.0
H1739 H 0.2524 0.76524 0.35725 0.0
H1740 H 0.409 0.84996 0.36919 0.0
H1741 H 0.41115 0.81453 0.39847 0.0
H1742 H 0.41245 0.80587 0.35262 0.0
H1743 H 0.24676 0.80608 0.40308 0.0
H1744 H 0.27583 0.79832 0.43843 0.0
H1745 H 0.28657 0.84361 0.42064 0.0
H1746 H 0.40882 0.84877 0.49742 0.0
H1747 H 0.40476 0.9376 0.43127 0.0
H1748 H 0.37142 0.77588 0.44419 0.0
H1749 H 0.32827 0.77853 0.45633 0.0
H1750 H 0.36639 0.78758 0.48861 0.0
H1751 H 0.37873 0.91101 0.36749 0.0
H1752 H 0.34293 0.91994 0.38965 0.0
H1753 H 0.33444 0.87583 0.36547 0.0
C1754 C 0.20908 0.2992 0.35832 0.0
C1755 C 0.21624 0.3113 0.32476 0.0
C1756 C 0.18954 0.31579 0.38012 0.0
C1757 C 0.17637 0.34509 0.3682 0.0
C1758 C 0.18364 0.35737 0.33442 0.0
C1759 C 0.20346 0.34067 0.31344 0.0
C1760 C 0.18248 0.30151 0.41576 0.0
C1761 C 0.16953 0.38763 0.31992 0.0
C1762 C 0.09544 0.36523 0.40863 0.0
C1763 C 0.1125 0.39858 0.42909 0.0
C1764 C 0.11571 0.34741 0.38918 0.0
C1765 C 0.15444 0.36263 0.39041 0.0
C1766 C 0.17191 0.39594 0.41143 0.0
C1767 C 0.15087 0.41355 0.43018 0.0
C1768 C 0.09544 0.31206 0.36742 0.0
C1769 C 0.21302 0.41309 0.41408 0.0
H1770 H 0.21815 0.27626 0.36738 0.0
H1771 H 0.2083 0.35036 0.28759 0.0
H1772 H 0.19166 0.32526 0.43552 0.0
H1773 H 0.15266 0.28808 0.41732 0.0
H1774 H 0.19663 0.28062 0.42225 0.0
H1775 H 0.17728 0.39403 0.29315 0.0
H1776 H 0.13923 0.37865 0.31965 0.0
H1777 H 0.18037 0.41382 0.33666 0.0
H1778 H 0.06593 0.353 0.40753 0.0
H1779 H 0.16465 0.43898 0.44602 0.0
H1780 H 0.10007 0.28757 0.37996 0.0
H1781 H 0.10569 0.31303 0.34126 0.0
H1782 H 0.06548 0.30738 0.36451 0.0
H1783 H 0.22609 0.39183 0.42215 0.0
H1784 H 0.22275 0.43777 0.43286 0.0
H1785 H 0.22233 0.42213 0.38834 0.0
C1786 C 0.30173 0.19898 0.60186 0.0
C1787 C 0.32387 0.21552 0.63187 0.0
C1788 C 0.31417 0.1787 0.57721 0.0
C1789 C 0.34943 0.17492 0.58305 0.0
C1790 C 0.37252 0.19324 0.61253 0.0
C1791 C 0.35947 0.21354 0.63653 0.0
C1792 C 0.28902 0.15998 0.54585 0.0
C1793 C 0.41031 0.18979 0.61969 0.0
C1794 C 0.37184 0.08957 0.55002 0.0
C1795 C 0.39594 0.105 0.52495 0.0
C1796 C 0.35478 0.11161 0.56791 0.0
C1797 C 0.36159 0.14969 0.56002 0.0
C1798 C 0.38362 0.16453 0.53287 0.0
C1799 C 0.40088 0.14207 0.51584 0.0
C1800 C 0.33154 0.09487 0.59687 0.0
C1801 C 0.39064 0.2047 0.52312 0.0
H1802 H 0.27428 0.20094 0.59816 0.0
H1803 H 0.3766 0.22643 0.65976 0.0
H1804 H 0.30391 0.16496 0.52203 0.0
H1805 H 0.27898 0.12918 0.54862 0.0
H1806 H 0.26494 0.1702 0.54253 0.0
H1807 H 0.42536 0.20718 0.64297 0.0
H1808 H 0.40811 0.16001 0.62373 0.0
H1809 H 0.42667 0.19847 0.59715 0.0
H1810 H 0.36793 0.0609 0.55707 0.0
H1811 H 0.41901 0.15384 0.49599 0.0
H1812 H 0.30493 0.10046 0.59412 0.0
H1813 H 0.34568 0.10826 0.62208 0.0
H1814 H 0.32623 0.06404 0.5976 0.0
H1815 H 0.36477 0.21184 0.52117 0.0
H1816 H 0.40339 0.21001 0.49811 0.0
H1817 H 0.40929 0.2239 0.54357 0.0
C1818 C 0.8815 0.33942 0.71513 0.0
C1819 C 0.85664 0.30544 0.70121 0.0
C1820 C 0.90796 0.3617 0.69506 0.0
C1821 C 0.9086 0.35007 0.66014 0.0
C1822 C 0.88698 0.31349 0.64764 0.0
C1823 C 0.86115 0.2914 0.66849 0.0
C1824 C 0.93205 0.39968 0.70985 0.0
C1825 C 0.88774 0.29966 0.61084 0.0
C1826 C 0.91054 0.425 0.5971 0.0
C1827 C 0.94538 0.43268 0.58493 0.0
C1828 C 0.89873 0.39837 0.62166 0.0
C1829 C 0.92255 0.37911 0.63499 0.0
C1830 C 0.95835 0.38757 0.62391 0.0
C1831 C 0.9693 0.41417 0.5987 0.0
C1832 C 0.86026 0.39041 0.63275 0.0
C1833 C 0.98479 0.368 0.63759 0.0
H1834 H 0.87885 0.34971 0.74096 0.0
H1835 H 0.84237 0.26474 0.65792 0.0
H1836 H 0.95985 0.40644 0.70055 0.0
H1837 H 0.9201 0.42157 0.70112 0.0
H1838 H 0.93439 0.40098 0.73862 0.0
H1839 H 0.87485 0.26871 0.60716 0.0
H1840 H 0.87252 0.31333 0.59315 0.0
H1841 H 0.91627 0.30721 0.60332 0.0
H1842 H 0.89189 0.43926 0.58688 0.0
H1843 H 0.99629 0.41992 0.58943 0.0
H1844 H 0.86116 0.39648 0.66105 0.0
H1845 H 0.84452 0.36028 0.62725 0.0
H1846 H 0.84512 0.40749 0.61931 0.0
H1847 H 0.98032 0.35977 0.6646 0.0
H1848 H 0.01359 0.38614 0.63664 0.0
H1849 H 0.98096 0.34214 0.6211 0.0
C1850 C 0.20229 0.6891 0.6588 0.0
C1851 C 0.24021 0.69659 0.66293 0.0
C1852 C 0.18189 0.6691 0.62941 0.0
C1853 C 0.20002 0.65687 0.60307 0.0
C1854 C 0.23865 0.66639 0.60604 0.0
C1855 C 0.2584 0.68592 0.63632 0.0
C1856 C 0.14067 0.65981 0.62738 0.0
C1857 C 0.25913 0.65489 0.57816 0.0
C1858 C 0.12996 0.57245 0.56019 0.0
C1859 C 0.11145 0.59021 0.53769 0.0
C1860 C 0.16283 0.59319 0.57874 0.0
C1861 C 0.17735 0.63218 0.57405 0.0
C1862 C 0.16204 0.64847 0.54704 0.0
C1863 C 0.12875 0.62735 0.52942 0.0
C1864 C 0.17895 0.57455 0.60672 0.0
C1865 C 0.17817 0.68941 0.53986 0.0
H1866 H 0.18825 0.69775 0.67919 0.0
H1867 H 0.28786 0.69206 0.63945 0.0
H1868 H 0.13109 0.67152 0.60402 0.0
H1869 H 0.12749 0.62888 0.62524 0.0
H1870 H 0.13108 0.67119 0.6504 0.0
H1871 H 0.28744 0.67461 0.57834 0.0
H1872 H 0.26111 0.62656 0.58303 0.0
H1873 H 0.24501 0.65366 0.55204 0.0
H1874 H 0.11703 0.54343 0.56602 0.0
H1875 H 0.11509 0.64073 0.51097 0.0
H1876 H 0.17152 0.58271 0.6323 0.0
H1877 H 0.20923 0.5839 0.60723 0.0
H1878 H 0.16857 0.5434 0.6031 0.0
H1879 H 0.16887 0.70676 0.55862 0.0
H1880 H 0.16928 0.69515 0.51332 0.0
H1881 H 0.20852 0.69833 0.54297 0.0
loop_
_geom_bond_atom_site_label_1
_geom_bond_atom_site_label_2
_geom_bond_distance
_geom_bond_site_symmetry_2
_ccdc_geom_bond_type
Dy0 O4 2.398 . S
Dy0 O5 2.491 . S
Dy0 O6 2.403 . S
Dy0 O7 2.664 . S
Dy0 O11 2.326 . S
Dy0 O15 2.310 . S
Dy0 O16 2.351 . S
C1 O12 1.185 . S
C1 O13 1.355 . S
C2 O4 1.185 . S
C2 O5 1.355 . S
Dy3 O7 2.310 . S
Dy3 O10 2.351 . S
Dy3 O12 2.398 . S
Dy3 O13 2.491 . S
Dy3 O14 2.403 . S
Dy3 O15 2.664 . S
Dy3 O17 2.326 . S
O4 Dy0 2.398 . S
O4 C2 1.185 . S
O5 Dy0 2.491 . S
O5 C2 1.355 . S
O6 Dy0 2.403 . S
O6 C8 1.254 . S
O7 Dy0 2.664 . S
O7 Dy3 2.310 . S
O7 C8 1.268 . S
C8 O6 1.254 . S
C8 O7 1.268 . S
C9 O14 1.254 . S
C9 O15 1.268 . S
O10 Dy3 2.351 . S
O10 C18 1.249 . S
O11 Dy0 2.326 . S
O11 C18 1.267 . S
O12 C1 1.185 . S
O12 Dy3 2.398 . S
O13 C1 1.355 . S
O13 Dy3 2.491 . S
O14 Dy3 2.403 . S
O14 C9 1.254 . S
O15 Dy0 2.310 . S
O15 Dy3 2.664 . S
O15 C9 1.268 . S
O16 Dy0 2.351 . S
O16 C19 1.249 . S
O17 Dy3 2.326 . S
O17 C19 1.267 . S
C18 O10 1.249 . S
C18 O11 1.267 . S
C19 O16 1.249 . S
C19 O17 1.267 . S
Dy20 O24 2.398 . S
Dy20 O25 2.491 . S
Dy20 O26 2.403 . S
Dy20 O27 2.664 . S
Dy20 O31 2.326 . S
Dy20 O35 2.310 . S
Dy20 O36 2.351 . S
C21 O32 1.185 . S
C21 O33 1.355 . S
C22 O24 1.185 . S
C22 O25 1.355 . S
Dy23 O27 2.310 . S
Dy23 O30 2.351 . S
Dy23 O32 2.398 . S
Dy23 O33 2.491 . S
Dy23 O34 2.403 . S
Dy23 O35 2.664 . S
Dy23 O37 2.326 . S
O24 Dy20 2.398 . S
O24 C22 1.185 . S
O25 Dy20 2.491 . S
O25 C22 1.355 . S
O26 Dy20 2.403 . S
O26 C28 1.254 . S
O27 Dy20 2.664 . S
O27 Dy23 2.310 . S
O27 C28 1.268 . S
C28 O26 1.254 . S
C28 O27 1.268 . S
C29 O34 1.254 . S
C29 O35 1.268 . S
O30 Dy23 2.351 . S
O30 C38 1.249 . S
O31 Dy20 2.326 . S
O31 C38 1.267 . S
O32 C21 1.185 . S
O32 Dy23 2.398 . S
O33 C21 1.355 . S
O33 Dy23 2.491 . S
O34 Dy23 2.403 . S
O34 C29 1.254 . S
O35 Dy20 2.310 . S
O35 Dy23 2.664 . S
O35 C29 1.268 . S
O36 Dy20 2.351 . S
O36 C39 1.249 . S
O37 Dy23 2.326 . S
O37 C39 1.267 . S
C38 O30 1.249 . S
C38 O31 1.267 . S
C39 O36 1.249 . S
C39 O37 1.267 . S
Dy40 O44 2.398 . S
Dy40 O45 2.491 . S
Dy40 O46 2.403 . S
Dy40 O47 2.664 . S
Dy40 O51 2.326 . S
Dy40 O55 2.310 . S
Dy40 O56 2.351 . S
C41 O52 1.185 . S
C41 O53 1.355 . S
C42 O44 1.185 . S
C42 O45 1.355 . S
Dy43 O47 2.310 . S
Dy43 O50 2.351 . S
Dy43 O52 2.398 . S
Dy43 O53 2.491 . S
Dy43 O54 2.403 . S
Dy43 O55 2.664 . S
Dy43 O57 2.326 . S
O44 Dy40 2.398 . S
O44 C42 1.185 . S
O45 Dy40 2.491 . S
O45 C42 1.355 . S
O46 Dy40 2.403 . S
O46 C48 1.254 . S
O47 Dy40 2.664 . S
O47 Dy43 2.310 . S
O47 C48 1.268 . S
C48 O46 1.254 . S
C48 O47 1.268 . S
C49 O54 1.254 . S
C49 O55 1.268 . S
O50 Dy43 2.351 . S
O50 C58 1.249 . S
O51 Dy40 2.326 . S
O51 C58 1.267 . S
O52 C41 1.185 . S
O52 Dy43 2.398 . S
O53 C41 1.355 . S
O53 Dy43 2.491 . S
O54 Dy43 2.403 . S
O54 C49 1.254 . S
O55 Dy40 2.310 . S
O55 Dy43 2.664 . S
O55 C49 1.268 . S
O56 Dy40 2.351 . S
O56 C59 1.249 . S
O57 Dy43 2.326 . S
O57 C59 1.267 . S
C58 O50 1.249 . S
C58 O51 1.267 . S
C59 O56 1.249 . S
C59 O57 1.267 . S
Dy60 O64 2.398 . S
Dy60 O65 2.491 . S
Dy60 O66 2.403 . S
Dy60 O67 2.664 . S
Dy60 O71 2.326 . S
Dy60 O75 2.310 . S
Dy60 O76 2.351 . S
C61 O72 1.185 . S
C61 O73 1.355 . S
C62 O64 1.185 . S
C62 O65 1.355 . S
Dy63 O67 2.310 . S
Dy63 O70 2.351 . S
Dy63 O72 2.398 . S
Dy63 O73 2.491 . S
Dy63 O74 2.403 . S
Dy63 O75 2.664 . S
Dy63 O77 2.326 . S
O64 Dy60 2.398 . S
O64 C62 1.185 . S
O65 Dy60 2.491 . S
O65 C62 1.355 . S
O66 Dy60 2.403 . S
O66 C68 1.254 . S
O67 Dy60 2.664 . S
O67 Dy63 2.310 . S
O67 C68 1.268 . S
C68 O66 1.254 . S
C68 O67 1.268 . S
C69 O74 1.254 . S
C69 O75 1.268 . S
O70 Dy63 2.351 . S
O70 C78 1.249 . S
O71 Dy60 2.326 . S
O71 C78 1.267 . S
O72 C61 1.185 . S
O72 Dy63 2.398 . S
O73 C61 1.355 . S
O73 Dy63 2.491 . S
O74 Dy63 2.403 . S
O74 C69 1.254 . S
O75 Dy60 2.310 . S
O75 Dy63 2.664 . S
O75 C69 1.268 . S
O76 Dy60 2.351 . S
O76 C79 1.249 . S
O77 Dy63 2.326 . S
O77 C79 1.267 . S
C78 O70 1.249 . S
C78 O71 1.267 . S
C79 O76 1.249 . S
C79 O77 1.267 . S
Dy80 O84 2.398 . S
Dy80 O85 2.491 . S
Dy80 O86 2.403 . S
Dy80 O87 2.664 . S
Dy80 O91 2.326 . S
Dy80 O95 2.310 . S
Dy80 O96 2.351 . S
C81 O92 1.185 . S
C81 O93 1.355 . S
C82 O84 1.185 . S
C82 O85 1.355 . S
Dy83 O87 2.310 . S
Dy83 O90 2.351 . S
Dy83 O92 2.398 . S
Dy83 O93 2.491 . S
Dy83 O94 2.403 . S
Dy83 O95 2.664 . S
Dy83 O97 2.326 . S
O84 Dy80 2.398 . S
O84 C82 1.185 . S
O85 Dy80 2.491 . S
O85 C82 1.355 . S
O86 Dy80 2.403 . S
O86 C88 1.254 . S
O87 Dy80 2.664 . S
O87 Dy83 2.310 . S
O87 C88 1.268 . S
C88 O86 1.254 . S
C88 O87 1.268 . S
C89 O94 1.254 . S
C89 O95 1.268 . S
O90 Dy83 2.351 . S
O90 C98 1.249 . S
O91 Dy80 2.326 . S
O91 C98 1.267 . S
O92 C81 1.185 . S
O92 Dy83 2.398 . S
O93 C81 1.355 . S
O93 Dy83 2.491 . S
O94 Dy83 2.403 . S
O94 C89 1.254 . S
O95 Dy80 2.310 . S
O95 Dy83 2.664 . S
O95 C89 1.268 . S
O96 Dy80 2.351 . S
O96 C99 1.249 . S
O97 Dy83 2.326 . S
O97 C99 1.267 . S
C98 O90 1.249 . S
C98 O91 1.267 . S
C99 O96 1.249 . S
C99 O97 1.267 . S
Dy100 O104 2.398 . S
Dy100 O105 2.491 . S
Dy100 O106 2.403 . S
Dy100 O107 2.664 . S
Dy100 O111 2.326 . S
Dy100 O115 2.310 . S
Dy100 O116 2.351 . S
C101 O112 1.185 . S
C101 O113 1.355 . S
C102 O104 1.185 . S
C102 O105 1.355 . S
Dy103 O107 2.310 . S
Dy103 O110 2.351 . S
Dy103 O112 2.398 . S
Dy103 O113 2.491 . S
Dy103 O114 2.403 . S
Dy103 O115 2.664 . S
Dy103 O117 2.326 . S
O104 Dy100 2.398 . S
O104 C102 1.185 . S
O105 Dy100 2.491 . S
O105 C102 1.355 . S
O106 Dy100 2.403 . S
O106 C108 1.254 . S
O107 Dy100 2.664 . S
O107 Dy103 2.310 . S
O107 C108 1.268 . S
C108 O106 1.254 . S
C108 O107 1.268 . S
C109 O114 1.254 . S
C109 O115 1.268 . S
O110 Dy103 2.351 . S
O110 C118 1.249 . S
O111 Dy100 2.326 . S
O111 C118 1.267 . S
O112 C101 1.185 . S
O112 Dy103 2.398 . S
O113 C101 1.355 . S
O113 Dy103 2.491 . S
O114 Dy103 2.403 . S
O114 C109 1.254 . S
O115 Dy100 2.310 . S
O115 Dy103 2.664 . S
O115 C109 1.268 . S
O116 Dy100 2.351 . S
O116 C119 1.249 . S
O117 Dy103 2.326 . S
O117 C119 1.267 . S
C118 O110 1.249 . S
C118 O111 1.267 . S
C119 O116 1.249 . S
C119 O117 1.267 . S
Dy120 O124 2.398 . S
Dy120 O125 2.491 . S
Dy120 O126 2.403 . S
Dy120 O127 2.664 . S
Dy120 O131 2.326 . S
Dy120 O135 2.310 . S
Dy120 O136 2.351 . S
C121 O132 1.185 . S
C121 O133 1.355 . S
C122 O124 1.185 . S
C122 O125 1.355 . S
Dy123 O127 2.310 . S
Dy123 O130 2.351 . S
Dy123 O132 2.398 . S
Dy123 O133 2.491 . S
Dy123 O134 2.403 . S
Dy123 O135 2.664 . S
Dy123 O137 2.326 . S
O124 Dy120 2.398 . S
O124 C122 1.185 . S
O125 Dy120 2.491 . S
O125 C122 1.355 . S
O126 Dy120 2.403 . S
O126 C128 1.254 . S
O127 Dy120 2.664 . S
O127 Dy123 2.310 . S
O127 C128 1.268 . S
C128 O126 1.254 . S
C128 O127 1.268 . S
C129 O134 1.254 . S
C129 O135 1.268 . S
O130 Dy123 2.351 . S
O130 C138 1.249 . S
O131 Dy120 2.326 . S
O131 C138 1.267 . S
O132 C121 1.185 . S
O132 Dy123 2.398 . S
O133 C121 1.355 . S
O133 Dy123 2.491 . S
O134 Dy123 2.403 . S
O134 C129 1.254 . S
O135 Dy120 2.310 . S
O135 Dy123 2.664 . S
O135 C129 1.268 . S
O136 Dy120 2.351 . S
O136 C139 1.249 . S
O137 Dy123 2.326 . S
O137 C139 1.267 . S
C138 O130 1.249 . S
C138 O131 1.267 . S
C139 O136 1.249 . S
C139 O137 1.267 . S
Dy140 O144 2.398 . S
Dy140 O145 2.491 . S
Dy140 O146 2.403 . S
Dy140 O147 2.664 . S
Dy140 O151 2.326 . S
Dy140 O155 2.310 . S
Dy140 O156 2.351 . S
C141 O152 1.185 . S
C141 O153 1.355 . S
C142 O144 1.185 . S
C142 O145 1.355 . S
Dy143 O147 2.310 . S
Dy143 O150 2.351 . S
Dy143 O152 2.398 . S
Dy143 O153 2.491 . S
Dy143 O154 2.403 . S
Dy143 O155 2.664 . S
Dy143 O157 2.326 . S
O144 Dy140 2.398 . S
O144 C142 1.185 . S
O145 Dy140 2.491 . S
O145 C142 1.355 . S
O146 Dy140 2.403 . S
O146 C148 1.254 . S
O147 Dy140 2.664 . S
O147 Dy143 2.310 . S
O147 C148 1.268 . S
C148 O146 1.254 . S
C148 O147 1.268 . S
C149 O154 1.254 . S
C149 O155 1.268 . S
O150 Dy143 2.351 . S
O150 C158 1.249 . S
O151 Dy140 2.326 . S
O151 C158 1.267 . S
O152 C141 1.185 . S
O152 Dy143 2.398 . S
O153 C141 1.355 . S
O153 Dy143 2.491 . S
O154 Dy143 2.403 . S
O154 C149 1.254 . S
O155 Dy140 2.310 . S
O155 Dy143 2.664 . S
O155 C149 1.268 . S
O156 Dy140 2.351 . S
O156 C159 1.249 . S
O157 Dy143 2.326 . S
O157 C159 1.267 . S
C158 O150 1.249 . S
C158 O151 1.267 . S
C159 O156 1.249 . S
C159 O157 1.267 . S
C160 O172 1.241 . S
C160 O173 1.280 . S
C161 O174 1.277 . S
C161 O175 1.245 . S
C162 O186 1.247 . S
C162 O188 1.289 . S
Mg163 O164 1.926 . S
Mg163 O173 1.984 . S
Mg163 O175 1.988 . S
Mg163 O176 2.061 1_655 S
O164 Mg163 1.926 . S
O164 Mg165 1.986 . S
O164 Mg166 1.917 1_655 S
Mg165 O164 1.986 . S
Mg165 O172 2.042 . S
Mg165 O174 2.041 . S
Mg165 O180 2.038 1_545 S
Mg165 O188 2.238 1_545 S
Mg166 O164 1.917 1_455 S
Mg166 O167 1.917 1_545 S
Mg166 O177 2.106 . S
Mg166 O179 2.079 1_445 S
Mg166 O188 2.106 1_445 S
Mg166 O189 2.079 . S
O167 Mg166 1.917 1_565 S
O167 Mg168 1.926 . S
O167 Mg169 1.986 . S
Mg168 O167 1.926 . S
Mg168 O182 1.984 . S
Mg168 O185 1.988 . S
Mg168 O186 2.061 1_455 S
Mg169 O167 1.986 . S
Mg169 O177 2.238 1_565 S
Mg169 O181 2.042 . S
Mg169 O183 2.041 . S
Mg169 O190 2.038 1_565 S
C170 O176 1.247 . S
C170 O177 1.289 . S
C171 O189 1.245 . S
C171 O190 1.274 . S
O172 C160 1.241 . S
O172 Mg165 2.042 . S
O173 C160 1.280 . S
O173 Mg163 1.984 . S
O174 C161 1.277 . S
O174 Mg165 2.041 . S
O175 C161 1.245 . S
O175 Mg163 1.988 . S
O176 Mg163 2.061 1_455 S
O176 C170 1.247 . S
O177 Mg166 2.106 . S
O177 Mg169 2.238 1_545 S
O177 C170 1.289 . S
C178 O179 1.245 . S
C178 O180 1.274 . S
O179 Mg166 2.079 1_665 S
O179 C178 1.245 . S
O180 Mg165 2.038 1_565 S
O180 C178 1.274 . S
O181 Mg169 2.042 . S
O181 C184 1.241 . S
O182 Mg168 1.984 . S
O182 C184 1.280 . S
O183 Mg169 2.041 . S
O183 C187 1.277 . S
C184 O181 1.241 . S
C184 O182 1.280 . S
O185 Mg168 1.988 . S
O185 C187 1.245 . S
O186 C162 1.247 . S
O186 Mg168 2.061 1_655 S
C187 O183 1.277 . S
C187 O185 1.245 . S
O188 C162 1.289 . S
O188 Mg165 2.238 1_565 S
O188 Mg166 2.106 1_665 S
O189 Mg166 2.079 . S
O189 C171 1.245 . S
O190 Mg169 2.038 1_545 S
O190 C171 1.274 . S
C191 O203 1.241 . S
C191 O204 1.280 . S
C192 O205 1.277 . S
C192 O206 1.245 . S
C193 O217 1.247 . S
C193 O219 1.289 . S
Mg194 O195 1.926 . S
Mg194 O204 1.984 . S
Mg194 O206 1.988 1_554 S
Mg194 O207 2.061 . S
O195 Mg194 1.926 . S
O195 Mg196 1.986 1_554 S
O195 Mg197 1.917 . S
Mg196 O195 1.986 1_556 S
Mg196 O203 2.042 1_556 S
Mg196 O205 2.041 . S
Mg196 O211 2.038 1_546 S
Mg196 O219 2.238 1_545 S
Mg197 O195 1.917 . S
Mg197 O198 1.917 1_544 S
Mg197 O208 2.106 . S
Mg197 O210 2.079 1_545 S
Mg197 O219 2.106 1_544 S
Mg197 O220 2.079 1_554 S
O198 Mg197 1.917 1_566 S
O198 Mg199 1.926 . S
O198 Mg200 1.986 1_556 S
Mg199 O198 1.926 . S
Mg199 O213 1.984 . S
Mg199 O216 1.988 1_556 S
Mg199 O217 2.061 . S
Mg200 O198 1.986 1_554 S
Mg200 O208 2.238 1_565 S
Mg200 O212 2.042 1_554 S
Mg200 O214 2.041 . S
Mg200 O221 2.038 1_564 S
C201 O207 1.247 . S
C201 O208 1.289 . S
C202 O220 1.245 . S
C202 O221 1.274 . S
O203 C191 1.241 . S
O203 Mg196 2.042 1_554 S
O204 C191 1.280 . S
O204 Mg194 1.984 . S
O205 C192 1.277 . S
O205 Mg196 2.041 . S
O206 C192 1.245 . S
O206 Mg194 1.988 1_556 S
O207 Mg194 2.061 . S
O207 C201 1.247 . S
O208 Mg197 2.106 . S
O208 Mg200 2.238 1_545 S
O208 C201 1.289 . S
C209 O210 1.245 . S
C209 O211 1.274 . S
O210 Mg197 2.079 1_565 S
O210 C209 1.245 . S
O211 Mg196 2.038 1_564 S
O211 C209 1.274 . S
O212 Mg200 2.042 1_556 S
O212 C215 1.241 . S
O213 Mg199 1.984 . S
O213 C215 1.280 . S
O214 Mg200 2.041 . S
O214 C218 1.277 . S
C215 O212 1.241 . S
C215 O213 1.280 . S
O216 Mg199 1.988 1_554 S
O216 C218 1.245 . S
O217 C193 1.247 . S
O217 Mg199 2.061 . S
C218 O214 1.277 . S
C218 O216 1.245 . S
O219 C193 1.289 . S
O219 Mg196 2.238 1_565 S
O219 Mg197 2.106 1_566 S
O220 Mg197 2.079 1_556 S
O220 C202 1.245 . S
O221 Mg200 2.038 1_546 S
O221 C202 1.274 . S
C222 O234 1.241 . S
C222 O235 1.280 . S
C223 O236 1.277 . S
C223 O237 1.245 . S
C224 O248 1.247 . S
C224 O250 1.289 . S
Mg225 O226 1.926 . S
Mg225 O235 1.984 . S
Mg225 O237 1.988 1_554 S
Mg225 O238 2.061 1_655 S
O226 Mg225 1.926 . S
O226 Mg227 1.986 1_554 S
O226 Mg228 1.917 1_655 S
Mg227 O226 1.986 1_556 S
Mg227 O234 2.042 1_556 S
Mg227 O236 2.041 . S
Mg227 O242 2.038 1_556 S
Mg227 O250 2.238 . S
Mg228 O226 1.917 1_455 S
Mg228 O229 1.917 1_554 S
Mg228 O239 2.106 . S
Mg228 O241 2.079 1_455 S
Mg228 O250 2.106 1_454 S
Mg228 O251 2.079 1_554 S
O229 Mg228 1.917 1_556 S
O229 Mg230 1.926 . S
O229 Mg231 1.986 1_556 S
Mg230 O229 1.926 . S
Mg230 O244 1.984 . S
Mg230 O247 1.988 1_556 S
Mg230 O248 2.061 1_455 S
Mg231 O229 1.986 1_554 S
Mg231 O239 2.238 . S
Mg231 O243 2.042 1_554 S
Mg231 O245 2.041 . S
Mg231 O252 2.038 1_554 S
C232 O238 1.247 . S
C232 O239 1.289 . S
C233 O251 1.245 . S
C233 O252 1.274 . S
O234 C222 1.241 . S
O234 Mg227 2.042 1_554 S
O235 C222 1.280 . S
O235 Mg225 1.984 . S
O236 C223 1.277 . S
O236 Mg227 2.041 . S
O237 C223 1.245 . S
O237 Mg225 1.988 1_556 S
O238 Mg225 2.061 1_455 S
O238 C232 1.247 . S
O239 Mg228 2.106 . S
O239 Mg231 2.238 . S
O239 C232 1.289 . S
C240 O241 1.245 . S
C240 O242 1.274 . S
O241 Mg228 2.079 1_655 S
O241 C240 1.245 . S
O242 Mg227 2.038 1_554 S
O242 C240 1.274 . S
O243 Mg231 2.042 1_556 S
O243 C246 1.241 . S
O244 Mg230 1.984 . S
O244 C246 1.280 . S
O245 Mg231 2.041 . S
O245 C249 1.277 . S
C246 O243 1.241 . S
C246 O244 1.280 . S
O247 Mg230 1.988 1_554 S
O247 C249 1.245 . S
O248 C224 1.247 . S
O248 Mg230 2.061 1_655 S
C249 O245 1.277 . S
C249 O247 1.245 . S
O250 C224 1.289 . S
O250 Mg227 2.238 . S
O250 Mg228 2.106 1_656 S
O251 Mg228 2.079 1_556 S
O251 C233 1.245 . S
O252 Mg231 2.038 1_556 S
O252 C233 1.274 . S
C253 O265 1.241 . S
C253 O266 1.280 . S
C254 O267 1.277 . S
C254 O268 1.245 . S
C255 O279 1.247 . S
C255 O281 1.289 . S
Mg256 O257 1.926 . S
Mg256 O266 1.984 . S
Mg256 O268 1.988 1_554 S
Mg256 O269 2.061 . S
O257 Mg256 1.926 . S
O257 Mg258 1.986 1_554 S
O257 Mg259 1.917 . S
Mg258 O257 1.986 1_556 S
Mg258 O265 2.042 1_556 S
Mg258 O267 2.041 . S
Mg258 O273 2.038 1_556 S
Mg258 O281 2.238 . S
Mg259 O257 1.917 . S
Mg259 O260 1.917 1_554 S
Mg259 O270 2.106 . S
Mg259 O272 2.079 . S
Mg259 O281 2.106 1_554 S
Mg259 O282 2.079 1_554 S
O260 Mg259 1.917 1_556 S
O260 Mg261 1.926 . S
O260 Mg262 1.986 1_556 S
Mg261 O260 1.926 . S
Mg261 O275 1.984 . S
Mg261 O278 1.988 1_556 S
Mg261 O279 2.061 . S
Mg262 O260 1.986 1_554 S
Mg262 O270 2.238 . S
Mg262 O274 2.042 1_554 S
Mg262 O276 2.041 . S
Mg262 O283 2.038 1_554 S
C263 O269 1.247 . S
C263 O270 1.289 . S
C264 O282 1.245 . S
C264 O283 1.274 . S
O265 C253 1.241 . S
O265 Mg258 2.042 1_554 S
O266 C253 1.280 . S
O266 Mg256 1.984 . S
O267 C254 1.277 . S
O267 Mg258 2.041 . S
O268 C254 1.245 . S
O268 Mg256 1.988 1_556 S
O269 Mg256 2.061 . S
O269 C263 1.247 . S
O270 Mg259 2.106 . S
O270 Mg262 2.238 . S
O270 C263 1.289 . S
C271 O272 1.245 . S
C271 O273 1.274 . S
O272 Mg259 2.079 . S
O272 C271 1.245 . S
O273 Mg258 2.038 1_554 S
O273 C271 1.274 . S
O274 Mg262 2.042 1_556 S
O274 C277 1.241 . S
O275 Mg261 1.984 . S
O275 C277 1.280 . S
O276 Mg262 2.041 . S
O276 C280 1.277 . S
C277 O274 1.241 . S
C277 O275 1.280 . S
O278 Mg261 1.988 1_554 S
O278 C280 1.245 . S
O279 C255 1.247 . S
O279 Mg261 2.061 . S
C280 O276 1.277 . S
C280 O278 1.245 . S
O281 C255 1.289 . S
O281 Mg258 2.238 . S
O281 Mg259 2.106 1_556 S
O282 Mg259 2.079 1_556 S
O282 C264 1.245 . S
O283 Mg262 2.038 1_556 S
O283 C264 1.274 . S
C284 O296 1.241 . S
C284 O297 1.280 . S
C285 O298 1.277 . S
C285 O299 1.245 . S
C286 O310 1.247 . S
C286 O312 1.289 . S
Mg287 O288 1.926 . S
Mg287 O297 1.984 . S
Mg287 O299 1.988 . S
Mg287 O300 2.061 1_655 S
O288 Mg287 1.926 . S
O288 Mg289 1.986 . S
O288 Mg290 1.917 1_655 S
Mg289 O288 1.986 . S
Mg289 O296 2.042 . S
Mg289 O298 2.041 . S
Mg289 O304 2.038 . S
Mg289 O312 2.238 . S
Mg290 O288 1.917 1_455 S
Mg290 O291 1.917 . S
Mg290 O301 2.106 . S
Mg290 O303 2.079 1_455 S
Mg290 O312 2.106 1_455 S
Mg290 O313 2.079 . S
O291 Mg290 1.917 . S
O291 Mg292 1.926 . S
O291 Mg293 1.986 . S
Mg292 O291 1.926 . S
Mg292 O306 1.984 . S
Mg292 O309 1.988 . S
Mg292 O310 2.061 1_455 S
Mg293 O291 1.986 . S
Mg293 O301 2.238 . S
Mg293 O305 2.042 . S
Mg293 O307 2.041 . S
Mg293 O314 2.038 . S
C294 O300 1.247 . S
C294 O301 1.289 . S
C295 O313 1.245 . S
C295 O314 1.274 . S
O296 C284 1.241 . S
O296 Mg289 2.042 . S
O297 C284 1.280 . S
O297 Mg287 1.984 . S
O298 C285 1.277 . S
O298 Mg289 2.041 . S
O299 C285 1.245 . S
O299 Mg287 1.988 . S
O300 Mg287 2.061 1_455 S
O300 C294 1.247 . S
O301 Mg290 2.106 . S
O301 Mg293 2.238 . S
O301 C294 1.289 . S
C302 O303 1.245 . S
C302 O304 1.274 . S
O303 Mg290 2.079 1_655 S
O303 C302 1.245 . S
O304 Mg289 2.038 . S
O304 C302 1.274 . S
O305 Mg293 2.042 . S
O305 C308 1.241 . S
O306 Mg292 1.984 . S
O306 C308 1.280 . S
O307 Mg293 2.041 . S
O307 C311 1.277 . S
C308 O305 1.241 . S
C308 O306 1.280 . S
O309 Mg292 1.988 . S
O309 C311 1.245 . S
O310 C286 1.247 . S
O310 Mg292 2.061 1_655 S
C311 O307 1.277 . S
C311 O309 1.245 . S
O312 C286 1.289 . S
O312 Mg289 2.238 . S
O312 Mg290 2.106 1_655 S
O313 Mg290 2.079 . S
O313 C295 1.245 . S
O314 Mg293 2.038 . S
O314 C295 1.274 . S
C315 O327 1.241 . S
C315 O328 1.280 . S
C316 O329 1.277 . S
C316 O330 1.245 . S
C317 O341 1.247 . S
C317 O343 1.289 . S
Mg318 O319 1.926 . S
Mg318 O328 1.984 . S
Mg318 O330 1.988 . S
Mg318 O331 2.061 . S
O319 Mg318 1.926 . S
O319 Mg320 1.986 . S
O319 Mg321 1.917 . S
Mg320 O319 1.986 . S
Mg320 O327 2.042 . S
Mg320 O329 2.041 . S
Mg320 O335 2.038 1_545 S
Mg320 O343 2.238 1_545 S
Mg321 O319 1.917 . S
Mg321 O322 1.917 1_545 S
Mg321 O332 2.106 . S
Mg321 O334 2.079 1_545 S
Mg321 O343 2.106 1_545 S
Mg321 O344 2.079 . S
O322 Mg321 1.917 1_565 S
O322 Mg323 1.926 . S
O322 Mg324 1.986 . S
Mg323 O322 1.926 . S
Mg323 O337 1.984 . S
Mg323 O340 1.988 . S
Mg323 O341 2.061 . S
Mg324 O322 1.986 . S
Mg324 O332 2.238 1_565 S
Mg324 O336 2.042 . S
Mg324 O338 2.041 . S
Mg324 O345 2.038 1_565 S
C325 O331 1.247 . S
C325 O332 1.289 . S
C326 O344 1.245 . S
C326 O345 1.274 . S
O327 C315 1.241 . S
O327 Mg320 2.042 . S
O328 C315 1.280 . S
O328 Mg318 1.984 . S
O329 C316 1.277 . S
O329 Mg320 2.041 . S
O330 C316 1.245 . S
O330 Mg318 1.988 . S
O331 Mg318 2.061 . S
O331 C325 1.247 . S
O332 Mg321 2.106 . S
O332 Mg324 2.238 1_545 S
O332 C325 1.289 . S
C333 O334 1.245 . S
C333 O335 1.274 . S
O334 Mg321 2.079 1_565 S
O334 C333 1.245 . S
O335 Mg320 2.038 1_565 S
O335 C333 1.274 . S
O336 Mg324 2.042 . S
O336 C339 1.241 . S
O337 Mg323 1.984 . S
O337 C339 1.280 . S
O338 Mg324 2.041 . S
O338 C342 1.277 . S
C339 O336 1.241 . S
C339 O337 1.280 . S
O340 Mg323 1.988 . S
O340 C342 1.245 . S
O341 C317 1.247 . S
O341 Mg323 2.061 . S
C342 O338 1.277 . S
C342 O340 1.245 . S
O343 C317 1.289 . S
O343 Mg320 2.238 1_565 S
O343 Mg321 2.106 1_565 S
O344 Mg321 2.079 . S
O344 C326 1.245 . S
O345 Mg324 2.038 1_545 S
O345 C326 1.274 . S
C346 C347 1.391 . S
C346 C348 1.394 . S
C346 H362 0.931 . S
C347 C346 1.391 . S
C347 C351 1.376 . S
C348 C346 1.394 . S
C348 C349 1.369 . S
C348 C352 1.531 . S
C349 C348 1.369 . S
C349 C350 1.410 . S
C349 C357 1.503 . S
C350 C349 1.410 . S
C350 C351 1.392 . S
C350 C353 1.511 . S
C351 C347 1.376 . S
C351 C350 1.392 . S
C351 H363 0.929 . S
C352 C348 1.531 . S
C352 H364 0.960 . S
C352 H365 0.962 . S
C352 H366 0.960 . S
C353 C350 1.511 . S
C353 H367 0.961 . S
C353 H368 0.961 . S
C353 H369 0.961 . S
C354 C355 1.370 . S
C354 C356 1.363 . S
C354 H370 0.931 . S
C355 C354 1.370 . S
C355 C359 1.408 . S
C356 C354 1.363 . S
C356 C357 1.370 . S
C356 C360 1.524 . S
C357 C349 1.503 . S
C357 C356 1.370 . S
C357 C358 1.403 . S
C358 C357 1.403 . S
C358 C359 1.404 . S
C358 C361 1.539 . S
C359 C355 1.408 . S
C359 C358 1.404 . S
C359 H371 0.930 . S
C360 C356 1.524 . S
C360 H372 0.956 . S
C360 H373 0.961 . S
C360 H374 0.961 . S
C361 C358 1.539 . S
C361 H375 0.958 . S
C361 H376 0.961 . S
C361 H377 0.960 . S
H362 C346 0.931 . S
H363 C351 0.929 . S
H364 C352 0.960 . S
H365 C352 0.962 . S
H366 C352 0.960 . S
H367 C353 0.961 . S
H368 C353 0.961 . S
H369 C353 0.961 . S
H370 C354 0.931 . S
H371 C359 0.930 . S
H372 C360 0.956 . S
H373 C360 0.961 . S
H374 C360 0.961 . S
H375 C361 0.958 . S
H376 C361 0.961 . S
H377 C361 0.960 . S
C378 C379 1.391 . S
C378 C380 1.394 . S
C378 H394 0.931 . S
C379 C378 1.391 . S
C379 C383 1.376 . S
C380 C378 1.394 . S
C380 C381 1.369 . S
C380 C384 1.531 . S
C381 C380 1.369 . S
C381 C382 1.410 . S
C381 C389 1.503 . S
C382 C381 1.410 . S
C382 C383 1.392 . S
C382 C385 1.511 . S
C383 C379 1.376 . S
C383 C382 1.392 . S
C383 H395 0.929 . S
C384 C380 1.531 . S
C384 H396 0.960 . S
C384 H397 0.962 . S
C384 H398 0.960 . S
C385 C382 1.511 . S
C385 H399 0.961 . S
C385 H400 0.961 . S
C385 H401 0.961 . S
C386 C387 1.370 . S
C386 C388 1.363 . S
C386 H402 0.931 . S
C387 C386 1.370 . S
C387 C391 1.408 . S
C388 C386 1.363 . S
C388 C389 1.370 . S
C388 C392 1.524 . S
C389 C381 1.503 . S
C389 C388 1.370 . S
C389 C390 1.403 . S
C390 C389 1.403 . S
C390 C391 1.404 . S
C390 C393 1.539 . S
C391 C387 1.408 . S
C391 C390 1.404 . S
C391 H403 0.930 . S
C392 C388 1.524 . S
C392 H404 0.956 . S
C392 H405 0.961 . S
C392 H406 0.961 . S
C393 C390 1.539 . S
C393 H407 0.958 . S
C393 H408 0.961 . S
C393 H409 0.960 . S
H394 C378 0.931 . S
H395 C383 0.929 . S
H396 C384 0.960 . S
H397 C384 0.962 . S
H398 C384 0.960 . S
H399 C385 0.961 . S
H400 C385 0.961 . S
H401 C385 0.961 . S
H402 C386 0.931 . S
H403 C391 0.930 . S
H404 C392 0.956 . S
H405 C392 0.961 . S
H406 C392 0.961 . S
H407 C393 0.958 . S
H408 C393 0.961 . S
H409 C393 0.960 . S
C410 C411 1.391 . S
C410 C412 1.394 . S
C410 H426 0.931 . S
C411 C410 1.391 . S
C411 C415 1.376 . S
C412 C410 1.394 . S
C412 C413 1.369 . S
C412 C416 1.531 . S
C413 C412 1.369 . S
C413 C414 1.410 . S
C413 C421 1.503 . S
C414 C413 1.410 . S
C414 C415 1.392 . S
C414 C417 1.511 . S
C415 C411 1.376 . S
C415 C414 1.392 . S
C415 H427 0.929 . S
C416 C412 1.531 . S
C416 H428 0.960 . S
C416 H429 0.962 . S
C416 H430 0.960 . S
C417 C414 1.511 . S
C417 H431 0.961 . S
C417 H432 0.961 . S
C417 H433 0.961 . S
C418 C419 1.370 . S
C418 C420 1.363 . S
C418 H434 0.931 . S
C419 C418 1.370 . S
C419 C423 1.408 . S
C420 C418 1.363 . S
C420 C421 1.370 . S
C420 C424 1.524 . S
C421 C413 1.503 . S
C421 C420 1.370 . S
C421 C422 1.403 . S
C422 C421 1.403 . S
C422 C423 1.404 . S
C422 C425 1.539 . S
C423 C419 1.408 . S
C423 C422 1.404 . S
C423 H435 0.930 . S
C424 C420 1.524 . S
C424 H436 0.956 . S
C424 H437 0.961 . S
C424 H438 0.961 . S
C425 C422 1.539 . S
C425 H439 0.958 . S
C425 H440 0.961 . S
C425 H441 0.960 . S
H426 C410 0.931 . S
H427 C415 0.929 . S
H428 C416 0.960 . S
H429 C416 0.962 . S
H430 C416 0.960 . S
H431 C417 0.961 . S
H432 C417 0.961 . S
H433 C417 0.961 . S
H434 C418 0.931 . S
H435 C423 0.930 . S
H436 C424 0.956 . S
H437 C424 0.961 . S
H438 C424 0.961 . S
H439 C425 0.958 . S
H440 C425 0.961 . S
H441 C425 0.960 . S
C442 C443 1.391 . S
C442 C444 1.394 . S
C442 H458 0.931 . S
C443 C442 1.391 . S
C443 C447 1.376 . S
C444 C442 1.394 . S
C444 C445 1.369 . S
C444 C448 1.531 . S
C445 C444 1.369 . S
C445 C446 1.410 . S
C445 C453 1.503 . S
C446 C445 1.410 . S
C446 C447 1.392 . S
C446 C449 1.511 . S
C447 C443 1.376 . S
C447 C446 1.392 . S
C447 H459 0.929 . S
C448 C444 1.531 . S
C448 H460 0.960 . S
C448 H461 0.962 . S
C448 H462 0.960 . S
C449 C446 1.511 . S
C449 H463 0.961 . S
C449 H464 0.961 . S
C449 H465 0.961 . S
C450 C451 1.370 . S
C450 C452 1.363 . S
C450 H466 0.931 . S
C451 C450 1.370 . S
C451 C455 1.408 . S
C452 C450 1.363 . S
C452 C453 1.370 . S
C452 C456 1.524 . S
C453 C445 1.503 . S
C453 C452 1.370 . S
C453 C454 1.403 . S
C454 C453 1.403 . S
C454 C455 1.404 . S
C454 C457 1.539 . S
C455 C451 1.408 . S
C455 C454 1.404 . S
C455 H467 0.930 . S
C456 C452 1.524 . S
C456 H468 0.956 . S
C456 H469 0.961 . S
C456 H470 0.961 . S
C457 C454 1.539 . S
C457 H471 0.958 . S
C457 H472 0.961 . S
C457 H473 0.960 . S
H458 C442 0.931 . S
H459 C447 0.929 . S
H460 C448 0.960 . S
H461 C448 0.962 . S
H462 C448 0.960 . S
H463 C449 0.961 . S
H464 C449 0.961 . S
H465 C449 0.961 . S
H466 C450 0.931 . S
H467 C455 0.930 . S
H468 C456 0.956 . S
H469 C456 0.961 . S
H470 C456 0.961 . S
H471 C457 0.958 . S
H472 C457 0.961 . S
H473 C457 0.960 . S
C474 C475 1.391 . S
C474 C476 1.394 . S
C474 H490 0.931 . S
C475 C474 1.391 . S
C475 C479 1.376 . S
C476 C474 1.394 . S
C476 C477 1.369 . S
C476 C480 1.531 . S
C477 C476 1.369 . S
C477 C478 1.410 . S
C477 C485 1.503 . S
C478 C477 1.410 . S
C478 C479 1.392 . S
C478 C481 1.511 . S
C479 C475 1.376 . S
C479 C478 1.392 . S
C479 H491 0.929 . S
C480 C476 1.531 . S
C480 H492 0.960 . S
C480 H493 0.962 . S
C480 H494 0.960 . S
C481 C478 1.511 . S
C481 H495 0.961 . S
C481 H496 0.961 . S
C481 H497 0.961 . S
C482 C483 1.370 . S
C482 C484 1.363 . S
C482 H498 0.931 . S
C483 C482 1.370 . S
C483 C487 1.408 . S
C484 C482 1.363 . S
C484 C485 1.370 . S
C484 C488 1.524 . S
C485 C477 1.503 . S
C485 C484 1.370 . S
C485 C486 1.403 . S
C486 C485 1.403 . S
C486 C487 1.404 . S
C486 C489 1.539 . S
C487 C483 1.408 . S
C487 C486 1.404 . S
C487 H499 0.930 . S
C488 C484 1.524 . S
C488 H500 0.956 . S
C488 H501 0.961 . S
C488 H502 0.961 . S
C489 C486 1.539 . S
C489 H503 0.958 . S
C489 H504 0.961 . S
C489 H505 0.960 . S
H490 C474 0.931 . S
H491 C479 0.929 . S
H492 C480 0.960 . S
H493 C480 0.962 . S
H494 C480 0.960 . S
H495 C481 0.961 . S
H496 C481 0.961 . S
H497 C481 0.961 . S
H498 C482 0.931 . S
H499 C487 0.930 . S
H500 C488 0.956 . S
H501 C488 0.961 . S
H502 C488 0.961 . S
H503 C489 0.958 . S
H504 C489 0.961 . S
H505 C489 0.960 . S
C506 C507 1.391 . S
C506 C508 1.394 . S
C506 H522 0.931 . S
C507 C506 1.391 . S
C507 C511 1.376 . S
C508 C506 1.394 . S
C508 C509 1.369 . S
C508 C512 1.531 . S
C509 C508 1.369 . S
C509 C510 1.410 . S
C509 C517 1.503 . S
C510 C509 1.410 . S
C510 C511 1.392 . S
C510 C513 1.511 . S
C511 C507 1.376 . S
C511 C510 1.392 . S
C511 H523 0.929 . S
C512 C508 1.531 . S
C512 H524 0.960 . S
C512 H525 0.962 . S
C512 H526 0.960 . S
C513 C510 1.511 . S
C513 H527 0.961 . S
C513 H528 0.961 . S
C513 H529 0.961 . S
C514 C515 1.370 . S
C514 C516 1.363 . S
C514 H530 0.931 . S
C515 C514 1.370 . S
C515 C519 1.408 . S
C516 C514 1.363 . S
C516 C517 1.370 . S
C516 C520 1.524 . S
C517 C509 1.503 . S
C517 C516 1.370 . S
C517 C518 1.403 . S
C518 C517 1.403 . S
C518 C519 1.404 . S
C518 C521 1.539 . S
C519 C515 1.408 . S
C519 C518 1.404 . S
C519 H531 0.930 . S
C520 C516 1.524 . S
C520 H532 0.956 . S
C520 H533 0.961 . S
C520 H534 0.961 . S
C521 C518 1.539 . S
C521 H535 0.958 . S
C521 H536 0.961 . S
C521 H537 0.960 . S
H522 C506 0.931 . S
H523 C511 0.929 . S
H524 C512 0.960 . S
H525 C512 0.962 . S
H526 C512 0.960 . S
H527 C513 0.961 . S
H528 C513 0.961 . S
H529 C513 0.961 . S
H530 C514 0.931 . S
H531 C519 0.930 . S
H532 C520 0.956 . S
H533 C520 0.961 . S
H534 C520 0.961 . S
H535 C521 0.958 . S
H536 C521 0.961 . S
H537 C521 0.960 . S
C538 C539 1.391 . S
C538 C540 1.394 . S
C538 H554 0.931 . S
C539 C538 1.391 . S
C539 C543 1.376 . S
C540 C538 1.394 . S
C540 C541 1.369 . S
C540 C544 1.531 . S
C541 C540 1.369 . S
C541 C542 1.410 . S
C541 C549 1.503 . S
C542 C541 1.410 . S
C542 C543 1.392 . S
C542 C545 1.511 . S
C543 C539 1.376 . S
C543 C542 1.392 . S
C543 H555 0.929 . S
C544 C540 1.531 . S
C544 H556 0.960 . S
C544 H557 0.962 . S
C544 H558 0.960 . S
C545 C542 1.511 . S
C545 H559 0.961 . S
C545 H560 0.961 . S
C545 H561 0.961 . S
C546 C547 1.370 . S
C546 C548 1.363 . S
C546 H562 0.931 . S
C547 C546 1.370 . S
C547 C551 1.408 . S
C548 C546 1.363 . S
C548 C549 1.370 . S
C548 C552 1.524 . S
C549 C541 1.503 . S
C549 C548 1.370 . S
C549 C550 1.403 . S
C550 C549 1.403 . S
C550 C551 1.404 . S
C550 C553 1.539 . S
C551 C547 1.408 . S
C551 C550 1.404 . S
C551 H563 0.930 . S
C552 C548 1.524 . S
C552 H564 0.956 . S
C552 H565 0.961 . S
C552 H566 0.961 . S
C553 C550 1.539 . S
C553 H567 0.958 . S
C553 H568 0.961 . S
C553 H569 0.960 . S
H554 C538 0.931 . S
H555 C543 0.929 . S
H556 C544 0.960 . S
H557 C544 0.962 . S
H558 C544 0.960 . S
H559 C545 0.961 . S
H560 C545 0.961 . S
H561 C545 0.961 . S
H562 C546 0.931 . S
H563 C551 0.930 . S
H564 C552 0.956 . S
H565 C552 0.961 . S
H566 C552 0.961 . S
H567 C553 0.958 . S
H568 C553 0.961 . S
H569 C553 0.960 . S
C570 C571 1.391 . S
C570 C572 1.394 . S
C570 H586 0.931 . S
C571 C570 1.391 . S
C571 C575 1.376 . S
C572 C570 1.394 . S
C572 C573 1.369 . S
C572 C576 1.531 . S
C573 C572 1.369 . S
C573 C574 1.410 . S
C573 C581 1.503 . S
C574 C573 1.410 . S
C574 C575 1.392 . S
C574 C577 1.511 . S
C575 C571 1.376 . S
C575 C574 1.392 . S
C575 H587 0.929 . S
C576 C572 1.531 . S
C576 H588 0.960 . S
C576 H589 0.962 . S
C576 H590 0.960 . S
C577 C574 1.511 . S
C577 H591 0.961 . S
C577 H592 0.961 . S
C577 H593 0.961 . S
C578 C579 1.370 . S
C578 C580 1.363 . S
C578 H594 0.931 . S
C579 C578 1.370 . S
C579 C583 1.408 . S
C580 C578 1.363 . S
C580 C581 1.370 . S
C580 C584 1.524 . S
C581 C573 1.503 . S
C581 C580 1.370 . S
C581 C582 1.403 . S
C582 C581 1.403 . S
C582 C583 1.404 . S
C582 C585 1.539 . S
C583 C579 1.408 . S
C583 C582 1.404 . S
C583 H595 0.930 . S
C584 C580 1.524 . S
C584 H596 0.956 . S
C584 H597 0.961 . S
C584 H598 0.961 . S
C585 C582 1.539 . S
C585 H599 0.958 . S
C585 H600 0.961 . S
C585 H601 0.960 . S
H586 C570 0.931 . S
H587 C575 0.929 . S
H588 C576 0.960 . S
H589 C576 0.962 . S
H590 C576 0.960 . S
H591 C577 0.961 . S
H592 C577 0.961 . S
H593 C577 0.961 . S
H594 C578 0.931 . S
H595 C583 0.930 . S
H596 C584 0.956 . S
H597 C584 0.961 . S
H598 C584 0.961 . S
H599 C585 0.958 . S
H600 C585 0.961 . S
H601 C585 0.960 . S
C602 C603 1.391 . S
C602 C604 1.394 . S
C602 H618 0.931 . S
C603 C602 1.391 . S
C603 C607 1.376 . S
C604 C602 1.394 . S
C604 C605 1.369 . S
C604 C608 1.531 . S
C605 C604 1.369 . S
C605 C606 1.410 . S
C605 C613 1.503 . S
C606 C605 1.410 . S
C606 C607 1.392 . S
C606 C609 1.511 . S
C607 C603 1.376 . S
C607 C606 1.392 . S
C607 H619 0.929 . S
C608 C604 1.531 . S
C608 H620 0.960 . S
C608 H621 0.962 . S
C608 H622 0.960 . S
C609 C606 1.511 . S
C609 H623 0.961 . S
C609 H624 0.961 . S
C609 H625 0.961 . S
C610 C611 1.370 . S
C610 C612 1.363 . S
C610 H626 0.931 . S
C611 C610 1.370 . S
C611 C615 1.408 . S
C612 C610 1.363 . S
C612 C613 1.370 . S
C612 C616 1.524 . S
C613 C605 1.503 . S
C613 C612 1.370 . S
C613 C614 1.403 . S
C614 C613 1.403 . S
C614 C615 1.404 . S
C614 C617 1.539 . S
C615 C611 1.408 . S
C615 C614 1.404 . S
C615 H627 0.930 . S
C616 C612 1.524 . S
C616 H628 0.956 . S
C616 H629 0.961 . S
C616 H630 0.961 . S
C617 C614 1.539 . S
C617 H631 0.958 . S
C617 H632 0.961 . S
C617 H633 0.960 . S
H618 C602 0.931 . S
H619 C607 0.929 . S
H620 C608 0.960 . S
H621 C608 0.962 . S
H622 C608 0.960 . S
H623 C609 0.961 . S
H624 C609 0.961 . S
H625 C609 0.961 . S
H626 C610 0.931 . S
H627 C615 0.930 . S
H628 C616 0.956 . S
H629 C616 0.961 . S
H630 C616 0.961 . S
H631 C617 0.958 . S
H632 C617 0.961 . S
H633 C617 0.960 . S
C634 C635 1.391 . S
C634 C636 1.394 . S
C634 H650 0.931 . S
C635 C634 1.391 . S
C635 C639 1.376 . S
C636 C634 1.394 . S
C636 C637 1.369 . S
C636 C640 1.531 . S
C637 C636 1.369 . S
C637 C638 1.410 . S
C637 C645 1.503 . S
C638 C637 1.410 . S
C638 C639 1.392 . S
C638 C641 1.511 . S
C639 C635 1.376 . S
C639 C638 1.392 . S
C639 H651 0.929 . S
C640 C636 1.531 . S
C640 H652 0.960 . S
C640 H653 0.962 . S
C640 H654 0.960 . S
C641 C638 1.511 . S
C641 H655 0.961 . S
C641 H656 0.961 . S
C641 H657 0.961 . S
C642 C643 1.370 . S
C642 C644 1.363 . S
C642 H658 0.931 . S
C643 C642 1.370 . S
C643 C647 1.408 . S
C644 C642 1.363 . S
C644 C645 1.370 . S
C644 C648 1.524 . S
C645 C637 1.503 . S
C645 C644 1.370 . S
C645 C646 1.403 . S
C646 C645 1.403 . S
C646 C647 1.404 . S
C646 C649 1.539 . S
C647 C643 1.408 . S
C647 C646 1.404 . S
C647 H659 0.930 . S
C648 C644 1.524 . S
C648 H660 0.956 . S
C648 H661 0.961 . S
C648 H662 0.961 . S
C649 C646 1.539 . S
C649 H663 0.958 . S
C649 H664 0.961 . S
C649 H665 0.960 . S
H650 C634 0.931 . S
H651 C639 0.929 . S
H652 C640 0.960 . S
H653 C640 0.962 . S
H654 C640 0.960 . S
H655 C641 0.961 . S
H656 C641 0.961 . S
H657 C641 0.961 . S
H658 C642 0.931 . S
H659 C647 0.930 . S
H660 C648 0.956 . S
H661 C648 0.961 . S
H662 C648 0.961 . S
H663 C649 0.958 . S
H664 C649 0.961 . S
H665 C649 0.960 . S
C666 C667 1.391 . S
C666 C668 1.394 . S
C666 H682 0.931 . S
C667 C666 1.391 . S
C667 C671 1.376 . S
C668 C666 1.394 . S
C668 C669 1.369 . S
C668 C672 1.531 . S
C669 C668 1.369 . S
C669 C670 1.410 . S
C669 C677 1.503 . S
C670 C669 1.410 . S
C670 C671 1.392 . S
C670 C673 1.511 . S
C671 C667 1.376 . S
C671 C670 1.392 . S
C671 H683 0.929 . S
C672 C668 1.531 . S
C672 H684 0.960 . S
C672 H685 0.962 . S
C672 H686 0.960 . S
C673 C670 1.511 . S
C673 H687 0.961 . S
C673 H688 0.961 . S
C673 H689 0.961 . S
C674 C675 1.370 . S
C674 C676 1.363 . S
C674 H690 0.931 . S
C675 C674 1.370 . S
C675 C679 1.408 . S
C676 C674 1.363 . S
C676 C677 1.370 . S
C676 C680 1.524 . S
C677 C669 1.503 . S
C677 C676 1.370 . S
C677 C678 1.403 . S
C678 C677 1.403 . S
C678 C679 1.404 . S
C678 C681 1.539 . S
C679 C675 1.408 . S
C679 C678 1.404 . S
C679 H691 0.930 . S
C680 C676 1.524 . S
C680 H692 0.956 . S
C680 H693 0.961 . S
C680 H694 0.961 . S
C681 C678 1.539 . S
C681 H695 0.958 . S
C681 H696 0.961 . S
C681 H697 0.960 . S
H682 C666 0.931 . S
H683 C671 0.929 . S
H684 C672 0.960 . S
H685 C672 0.962 . S
H686 C672 0.960 . S
H687 C673 0.961 . S
H688 C673 0.961 . S
H689 C673 0.961 . S
H690 C674 0.931 . S
H691 C679 0.930 . S
H692 C680 0.956 . S
H693 C680 0.961 . S
H694 C680 0.961 . S
H695 C681 0.958 . S
H696 C681 0.961 . S
H697 C681 0.960 . S
C698 C699 1.391 . S
C698 C700 1.394 . S
C698 H714 0.931 . S
C699 C698 1.391 . S
C699 C703 1.376 . S
C700 C698 1.394 . S
C700 C701 1.369 . S
C700 C704 1.531 . S
C701 C700 1.369 . S
C701 C702 1.410 . S
C701 C709 1.503 . S
C702 C701 1.410 . S
C702 C703 1.392 . S
C702 C705 1.511 . S
C703 C699 1.376 . S
C703 C702 1.392 . S
C703 H715 0.929 . S
C704 C700 1.531 . S
C704 H716 0.960 . S
C704 H717 0.962 . S
C704 H718 0.960 . S
C705 C702 1.511 . S
C705 H719 0.961 . S
C705 H720 0.961 . S
C705 H721 0.961 . S
C706 C707 1.370 . S
C706 C708 1.363 . S
C706 H722 0.931 . S
C707 C706 1.370 . S
C707 C711 1.408 . S
C708 C706 1.363 . S
C708 C709 1.370 . S
C708 C712 1.524 . S
C709 C701 1.503 . S
C709 C708 1.370 . S
C709 C710 1.403 . S
C710 C709 1.403 . S
C710 C711 1.404 . S
C710 C713 1.539 . S
C711 C707 1.408 . S
C711 C710 1.404 . S
C711 H723 0.930 . S
C712 C708 1.524 . S
C712 H724 0.956 . S
C712 H725 0.961 . S
C712 H726 0.961 . S
C713 C710 1.539 . S
C713 H727 0.958 . S
C713 H728 0.961 . S
C713 H729 0.960 . S
H714 C698 0.931 . S
H715 C703 0.929 . S
H716 C704 0.960 . S
H717 C704 0.962 . S
H718 C704 0.960 . S
H719 C705 0.961 . S
H720 C705 0.961 . S
H721 C705 0.961 . S
H722 C706 0.931 . S
H723 C711 0.930 . S
H724 C712 0.956 . S
H725 C712 0.961 . S
H726 C712 0.961 . S
H727 C713 0.958 . S
H728 C713 0.961 . S
H729 C713 0.960 . S
C730 C731 1.391 . S
C730 C732 1.394 . S
C730 H746 0.931 . S
C731 C730 1.391 . S
C731 C735 1.376 . S
C732 C730 1.394 . S
C732 C733 1.369 . S
C732 C736 1.531 . S
C733 C732 1.369 . S
C733 C734 1.410 . S
C733 C741 1.503 . S
C734 C733 1.410 . S
C734 C735 1.392 . S
C734 C737 1.511 . S
C735 C731 1.376 . S
C735 C734 1.392 . S
C735 H747 0.929 . S
C736 C732 1.531 . S
C736 H748 0.960 . S
C736 H749 0.962 . S
C736 H750 0.960 . S
C737 C734 1.511 . S
C737 H751 0.961 . S
C737 H752 0.961 . S
C737 H753 0.961 . S
C738 C739 1.370 . S
C738 C740 1.363 . S
C738 H754 0.931 . S
C739 C738 1.370 . S
C739 C743 1.408 . S
C740 C738 1.363 . S
C740 C741 1.370 . S
C740 C744 1.524 . S
C741 C733 1.503 . S
C741 C740 1.370 . S
C741 C742 1.403 . S
C742 C741 1.403 . S
C742 C743 1.404 . S
C742 C745 1.539 . S
C743 C739 1.408 . S
C743 C742 1.404 . S
C743 H755 0.930 . S
C744 C740 1.524 . S
C744 H756 0.956 . S
C744 H757 0.961 . S
C744 H758 0.961 . S
C745 C742 1.539 . S
C745 H759 0.958 . S
C745 H760 0.961 . S
C745 H761 0.960 . S
H746 C730 0.931 . S
H747 C735 0.929 . S
H748 C736 0.960 . S
H749 C736 0.962 . S
H750 C736 0.960 . S
H751 C737 0.961 . S
H752 C737 0.961 . S
H753 C737 0.961 . S
H754 C738 0.931 . S
H755 C743 0.930 . S
H756 C744 0.956 . S
H757 C744 0.961 . S
H758 C744 0.961 . S
H759 C745 0.958 . S
H760 C745 0.961 . S
H761 C745 0.960 . S
C762 C763 1.391 . S
C762 C764 1.394 . S
C762 H778 0.931 . S
C763 C762 1.391 . S
C763 C767 1.376 . S
C764 C762 1.394 . S
C764 C765 1.369 . S
C764 C768 1.531 . S
C765 C764 1.369 . S
C765 C766 1.410 . S
C765 C773 1.503 . S
C766 C765 1.410 . S
C766 C767 1.392 . S
C766 C769 1.511 . S
C767 C763 1.376 . S
C767 C766 1.392 . S
C767 H779 0.929 . S
C768 C764 1.531 . S
C768 H780 0.960 . S
C768 H781 0.962 . S
C768 H782 0.960 . S
C769 C766 1.511 . S
C769 H783 0.961 . S
C769 H784 0.961 . S
C769 H785 0.961 . S
C770 C771 1.370 . S
C770 C772 1.363 . S
C770 H786 0.931 . S
C771 C770 1.370 . S
C771 C775 1.408 . S
C772 C770 1.363 . S
C772 C773 1.370 . S
C772 C776 1.524 . S
C773 C765 1.503 . S
C773 C772 1.370 . S
C773 C774 1.403 . S
C774 C773 1.403 . S
C774 C775 1.404 . S
C774 C777 1.539 . S
C775 C771 1.408 . S
C775 C774 1.404 . S
C775 H787 0.930 . S
C776 C772 1.524 . S
C776 H788 0.956 . S
C776 H789 0.961 . S
C776 H790 0.961 . S
C777 C774 1.539 . S
C777 H791 0.958 . S
C777 H792 0.961 . S
C777 H793 0.960 . S
H778 C762 0.931 . S
H779 C767 0.929 . S
H780 C768 0.960 . S
H781 C768 0.962 . S
H782 C768 0.960 . S
H783 C769 0.961 . S
H784 C769 0.961 . S
H785 C769 0.961 . S
H786 C770 0.931 . S
H787 C775 0.930 . S
H788 C776 0.956 . S
H789 C776 0.961 . S
H790 C776 0.961 . S
H791 C777 0.958 . S
H792 C777 0.961 . S
H793 C777 0.960 . S
C794 C795 1.391 . S
C794 C796 1.394 . S
C794 H810 0.931 . S
C795 C794 1.391 . S
C795 C799 1.376 . S
C796 C794 1.394 . S
C796 C797 1.369 . S
C796 C800 1.531 . S
C797 C796 1.369 . S
C797 C798 1.410 . S
C797 C805 1.503 . S
C798 C797 1.410 . S
C798 C799 1.392 . S
C798 C801 1.511 . S
C799 C795 1.376 . S
C799 C798 1.392 . S
C799 H811 0.929 . S
C800 C796 1.531 . S
C800 H812 0.960 . S
C800 H813 0.962 . S
C800 H814 0.960 . S
C801 C798 1.511 . S
C801 H815 0.961 . S
C801 H816 0.961 . S
C801 H817 0.961 . S
C802 C803 1.370 . S
C802 C804 1.363 . S
C802 H818 0.931 . S
C803 C802 1.370 . S
C803 C807 1.408 . S
C804 C802 1.363 . S
C804 C805 1.370 . S
C804 C808 1.524 . S
C805 C797 1.503 . S
C805 C804 1.370 . S
C805 C806 1.403 . S
C806 C805 1.403 . S
C806 C807 1.404 . S
C806 C809 1.539 . S
C807 C803 1.408 . S
C807 C806 1.404 . S
C807 H819 0.930 . S
C808 C804 1.524 . S
C808 H820 0.956 . S
C808 H821 0.961 . S
C808 H822 0.961 . S
C809 C806 1.539 . S
C809 H823 0.958 . S
C809 H824 0.961 . S
C809 H825 0.960 . S
H810 C794 0.931 . S
H811 C799 0.929 . S
H812 C800 0.960 . S
H813 C800 0.962 . S
H814 C800 0.960 . S
H815 C801 0.961 . S
H816 C801 0.961 . S
H817 C801 0.961 . S
H818 C802 0.931 . S
H819 C807 0.930 . S
H820 C808 0.956 . S
H821 C808 0.961 . S
H822 C808 0.961 . S
H823 C809 0.958 . S
H824 C809 0.961 . S
H825 C809 0.960 . S
C826 C827 1.391 . S
C826 C828 1.394 . S
C826 H842 0.931 . S
C827 C826 1.391 . S
C827 C831 1.376 . S
C828 C826 1.394 . S
C828 C829 1.369 . S
C828 C832 1.531 . S
C829 C828 1.369 . S
C829 C830 1.410 . S
C829 C837 1.503 . S
C830 C829 1.410 . S
C830 C831 1.392 . S
C830 C833 1.511 . S
C831 C827 1.376 . S
C831 C830 1.392 . S
C831 H843 0.929 . S
C832 C828 1.531 . S
C832 H844 0.960 . S
C832 H845 0.962 . S
C832 H846 0.960 . S
C833 C830 1.511 . S
C833 H847 0.961 . S
C833 H848 0.961 . S
C833 H849 0.961 . S
C834 C835 1.370 . S
C834 C836 1.363 . S
C834 H850 0.931 . S
C835 C834 1.370 . S
C835 C839 1.408 . S
C836 C834 1.363 . S
C836 C837 1.370 . S
C836 C840 1.524 . S
C837 C829 1.503 . S
C837 C836 1.370 . S
C837 C838 1.403 . S
C838 C837 1.403 . S
C838 C839 1.404 . S
C838 C841 1.539 . S
C839 C835 1.408 . S
C839 C838 1.404 . S
C839 H851 0.930 . S
C840 C836 1.524 . S
C840 H852 0.956 . S
C840 H853 0.961 . S
C840 H854 0.961 . S
C841 C838 1.539 . S
C841 H855 0.958 . S
C841 H856 0.961 . S
C841 H857 0.960 . S
H842 C826 0.931 . S
H843 C831 0.929 . S
H844 C832 0.960 . S
H845 C832 0.962 . S
H846 C832 0.960 . S
H847 C833 0.961 . S
H848 C833 0.961 . S
H849 C833 0.961 . S
H850 C834 0.931 . S
H851 C839 0.930 . S
H852 C840 0.956 . S
H853 C840 0.961 . S
H854 C840 0.961 . S
H855 C841 0.958 . S
H856 C841 0.961 . S
H857 C841 0.960 . S
C858 C859 1.391 . S
C858 C860 1.394 . S
C858 H874 0.931 . S
C859 C858 1.391 . S
C859 C863 1.376 . S
C860 C858 1.394 . S
C860 C861 1.369 . S
C860 C864 1.531 . S
C861 C860 1.369 . S
C861 C862 1.410 . S
C861 C869 1.503 . S
C862 C861 1.410 . S
C862 C863 1.392 . S
C862 C865 1.511 . S
C863 C859 1.376 . S
C863 C862 1.392 . S
C863 H875 0.929 . S
C864 C860 1.531 . S
C864 H876 0.960 . S
C864 H877 0.962 . S
C864 H878 0.960 . S
C865 C862 1.511 . S
C865 H879 0.961 . S
C865 H880 0.961 . S
C865 H881 0.961 . S
C866 C867 1.370 . S
C866 C868 1.363 . S
C866 H882 0.931 . S
C867 C866 1.370 . S
C867 C871 1.408 . S
C868 C866 1.363 . S
C868 C869 1.370 . S
C868 C872 1.524 . S
C869 C861 1.503 . S
C869 C868 1.370 . S
C869 C870 1.403 . S
C870 C869 1.403 . S
C870 C871 1.404 . S
C870 C873 1.539 . S
C871 C867 1.408 . S
C871 C870 1.404 . S
C871 H883 0.930 . S
C872 C868 1.524 . S
C872 H884 0.956 . S
C872 H885 0.961 . S
C872 H886 0.961 . S
C873 C870 1.539 . S
C873 H887 0.958 . S
C873 H888 0.961 . S
C873 H889 0.960 . S
H874 C858 0.931 . S
H875 C863 0.929 . S
H876 C864 0.960 . S
H877 C864 0.962 . S
H878 C864 0.960 . S
H879 C865 0.961 . S
H880 C865 0.961 . S
H881 C865 0.961 . S
H882 C866 0.931 . S
H883 C871 0.930 . S
H884 C872 0.956 . S
H885 C872 0.961 . S
H886 C872 0.961 . S
H887 C873 0.958 . S
H888 C873 0.961 . S
H889 C873 0.960 . S
C890 C891 1.391 . S
C890 C892 1.394 . S
C890 H906 0.931 . S
C891 C890 1.391 . S
C891 C895 1.376 . S
C892 C890 1.394 . S
C892 C893 1.369 . S
C892 C896 1.531 . S
C893 C892 1.369 . S
C893 C894 1.410 . S
C893 C901 1.503 . S
C894 C893 1.410 . S
C894 C895 1.392 . S
C894 C897 1.511 . S
C895 C891 1.376 . S
C895 C894 1.392 . S
C895 H907 0.929 . S
C896 C892 1.531 . S
C896 H908 0.960 . S
C896 H909 0.962 . S
C896 H910 0.960 . S
C897 C894 1.511 . S
C897 H911 0.961 . S
C897 H912 0.961 . S
C897 H913 0.961 . S
C898 C899 1.370 . S
C898 C900 1.363 . S
C898 H914 0.931 . S
C899 C898 1.370 . S
C899 C903 1.408 . S
C900 C898 1.363 . S
C900 C901 1.370 . S
C900 C904 1.524 . S
C901 C893 1.503 . S
C901 C900 1.370 . S
C901 C902 1.403 . S
C902 C901 1.403 . S
C902 C903 1.404 . S
C902 C905 1.539 . S
C903 C899 1.408 . S
C903 C902 1.404 . S
C903 H915 0.930 . S
C904 C900 1.524 . S
C904 H916 0.956 . S
C904 H917 0.961 . S
C904 H918 0.961 . S
C905 C902 1.539 . S
C905 H919 0.958 . S
C905 H920 0.961 . S
C905 H921 0.960 . S
H906 C890 0.931 . S
H907 C895 0.929 . S
H908 C896 0.960 . S
H909 C896 0.962 . S
H910 C896 0.960 . S
H911 C897 0.961 . S
H912 C897 0.961 . S
H913 C897 0.961 . S
H914 C898 0.931 . S
H915 C903 0.930 . S
H916 C904 0.956 . S
H917 C904 0.961 . S
H918 C904 0.961 . S
H919 C905 0.958 . S
H920 C905 0.961 . S
H921 C905 0.960 . S
C922 C923 1.391 . S
C922 C924 1.394 . S
C922 H938 0.931 . S
C923 C922 1.391 . S
C923 C927 1.376 . S
C924 C922 1.394 . S
C924 C925 1.369 . S
C924 C928 1.531 . S
C925 C924 1.369 . S
C925 C926 1.410 . S
C925 C933 1.503 . S
C926 C925 1.410 . S
C926 C927 1.392 . S
C926 C929 1.511 . S
C927 C923 1.376 . S
C927 C926 1.392 . S
C927 H939 0.929 . S
C928 C924 1.531 . S
C928 H940 0.960 . S
C928 H941 0.962 . S
C928 H942 0.960 . S
C929 C926 1.511 . S
C929 H943 0.961 . S
C929 H944 0.961 . S
C929 H945 0.961 . S
C930 C931 1.370 . S
C930 C932 1.363 . S
C930 H946 0.931 . S
C931 C930 1.370 . S
C931 C935 1.408 . S
C932 C930 1.363 . S
C932 C933 1.370 . S
C932 C936 1.524 . S
C933 C925 1.503 . S
C933 C932 1.370 . S
C933 C934 1.403 . S
C934 C933 1.403 . S
C934 C935 1.404 . S
C934 C937 1.539 . S
C935 C931 1.408 . S
C935 C934 1.404 . S
C935 H947 0.930 . S
C936 C932 1.524 . S
C936 H948 0.956 . S
C936 H949 0.961 . S
C936 H950 0.961 . S
C937 C934 1.539 . S
C937 H951 0.958 . S
C937 H952 0.961 . S
C937 H953 0.960 . S
H938 C922 0.931 . S
H939 C927 0.929 . S
H940 C928 0.960 . S
H941 C928 0.962 . S
H942 C928 0.960 . S
H943 C929 0.961 . S
H944 C929 0.961 . S
H945 C929 0.961 . S
H946 C930 0.931 . S
H947 C935 0.930 . S
H948 C936 0.956 . S
H949 C936 0.961 . S
H950 C936 0.961 . S
H951 C937 0.958 . S
H952 C937 0.961 . S
H953 C937 0.960 . S
C954 C955 1.391 . S
C954 C956 1.394 . S
C954 H970 0.931 . S
C955 C954 1.391 . S
C955 C959 1.376 . S
C956 C954 1.394 . S
C956 C957 1.369 . S
C956 C960 1.531 . S
C957 C956 1.369 . S
C957 C958 1.410 . S
C957 C965 1.503 . S
C958 C957 1.410 . S
C958 C959 1.392 . S
C958 C961 1.511 . S
C959 C955 1.376 . S
C959 C958 1.392 . S
C959 H971 0.929 . S
C960 C956 1.531 . S
C960 H972 0.960 . S
C960 H973 0.962 . S
C960 H974 0.960 . S
C961 C958 1.511 . S
C961 H975 0.961 . S
C961 H976 0.961 . S
C961 H977 0.961 . S
C962 C963 1.370 . S
C962 C964 1.363 . S
C962 H978 0.931 . S
C963 C962 1.370 . S
C963 C967 1.408 . S
C964 C962 1.363 . S
C964 C965 1.370 . S
C964 C968 1.524 . S
C965 C957 1.503 . S
C965 C964 1.370 . S
C965 C966 1.403 . S
C966 C965 1.403 . S
C966 C967 1.404 . S
C966 C969 1.539 . S
C967 C963 1.408 . S
C967 C966 1.404 . S
C967 H979 0.930 . S
C968 C964 1.524 . S
C968 H980 0.956 . S
C968 H981 0.961 . S
C968 H982 0.961 . S
C969 C966 1.539 . S
C969 H983 0.958 . S
C969 H984 0.961 . S
C969 H985 0.960 . S
H970 C954 0.931 . S
H971 C959 0.929 . S
H972 C960 0.960 . S
H973 C960 0.962 . S
H974 C960 0.960 . S
H975 C961 0.961 . S
H976 C961 0.961 . S
H977 C961 0.961 . S
H978 C962 0.931 . S
H979 C967 0.930 . S
H980 C968 0.956 . S
H981 C968 0.961 . S
H982 C968 0.961 . S
H983 C969 0.958 . S
H984 C969 0.961 . S
H985 C969 0.960 . S
C986 C987 1.391 . S
C986 C988 1.394 . S
C986 H1002 0.931 . S
C987 C986 1.391 . S
C987 C991 1.376 . S
C988 C986 1.394 . S
C988 C989 1.369 . S
C988 C992 1.531 . S
C989 C988 1.369 . S
C989 C990 1.410 . S
C989 C997 1.503 . S
C990 C989 1.410 . S
C990 C991 1.392 . S
C990 C993 1.511 . S
C991 C987 1.376 . S
C991 C990 1.392 . S
C991 H1003 0.929 . S
C992 C988 1.531 . S
C992 H1004 0.960 . S
C992 H1005 0.962 . S
C992 H1006 0.960 . S
C993 C990 1.511 . S
C993 H1007 0.961 . S
C993 H1008 0.961 . S
C993 H1009 0.961 . S
C994 C995 1.370 . S
C994 C996 1.363 . S
C994 H1010 0.931 . S
C995 C994 1.370 . S
C995 C999 1.408 . S
C996 C994 1.363 . S
C996 C997 1.370 . S
C996 C1000 1.524 . S
C997 C989 1.503 . S
C997 C996 1.370 . S
C997 C998 1.403 . S
C998 C997 1.403 . S
C998 C999 1.404 . S
C998 C1001 1.539 . S
C999 C995 1.408 . S
C999 C998 1.404 . S
C999 H1011 0.930 . S
C1000 C996 1.524 . S
C1000 H1012 0.956 . S
C1000 H1013 0.961 . S
C1000 H1014 0.961 . S
C1001 C998 1.539 . S
C1001 H1015 0.958 . S
C1001 H1016 0.961 . S
C1001 H1017 0.960 . S
H1002 C986 0.931 . S
H1003 C991 0.929 . S
H1004 C992 0.960 . S
H1005 C992 0.962 . S
H1006 C992 0.960 . S
H1007 C993 0.961 . S
H1008 C993 0.961 . S
H1009 C993 0.961 . S
H1010 C994 0.931 . S
H1011 C999 0.930 . S
H1012 C1000 0.956 . S
H1013 C1000 0.961 . S
H1014 C1000 0.961 . S
H1015 C1001 0.958 . S
H1016 C1001 0.961 . S
H1017 C1001 0.960 . S
C1018 C1019 1.391 . S
C1018 C1020 1.394 . S
C1018 H1034 0.931 . S
C1019 C1018 1.391 . S
C1019 C1023 1.376 . S
C1020 C1018 1.394 . S
C1020 C1021 1.369 . S
C1020 C1024 1.531 . S
C1021 C1020 1.369 . S
C1021 C1022 1.410 . S
C1021 C1029 1.503 . S
C1022 C1021 1.410 . S
C1022 C1023 1.392 . S
C1022 C1025 1.511 . S
C1023 C1019 1.376 . S
C1023 C1022 1.392 . S
C1023 H1035 0.929 . S
C1024 C1020 1.531 . S
C1024 H1036 0.960 . S
C1024 H1037 0.962 . S
C1024 H1038 0.960 . S
C1025 C1022 1.511 . S
C1025 H1039 0.961 . S
C1025 H1040 0.961 . S
C1025 H1041 0.961 . S
C1026 C1027 1.370 . S
C1026 C1028 1.363 . S
C1026 H1042 0.931 . S
C1027 C1026 1.370 . S
C1027 C1031 1.408 . S
C1028 C1026 1.363 . S
C1028 C1029 1.370 . S
C1028 C1032 1.524 . S
C1029 C1021 1.503 . S
C1029 C1028 1.370 . S
C1029 C1030 1.403 . S
C1030 C1029 1.403 . S
C1030 C1031 1.404 . S
C1030 C1033 1.539 . S
C1031 C1027 1.408 . S
C1031 C1030 1.404 . S
C1031 H1043 0.930 . S
C1032 C1028 1.524 . S
C1032 H1044 0.956 . S
C1032 H1045 0.961 . S
C1032 H1046 0.961 . S
C1033 C1030 1.539 . S
C1033 H1047 0.958 . S
C1033 H1048 0.961 . S
C1033 H1049 0.960 . S
H1034 C1018 0.931 . S
H1035 C1023 0.929 . S
H1036 C1024 0.960 . S
H1037 C1024 0.962 . S
H1038 C1024 0.960 . S
H1039 C1025 0.961 . S
H1040 C1025 0.961 . S
H1041 C1025 0.961 . S
H1042 C1026 0.931 . S
H1043 C1031 0.930 . S
H1044 C1032 0.956 . S
H1045 C1032 0.961 . S
H1046 C1032 0.961 . S
H1047 C1033 0.958 . S
H1048 C1033 0.961 . S
H1049 C1033 0.960 . S
C1050 C1051 1.391 . S
C1050 C1052 1.394 . S
C1050 H1066 0.931 . S
C1051 C1050 1.391 . S
C1051 C1055 1.376 . S
C1052 C1050 1.394 . S
C1052 C1053 1.369 . S
C1052 C1056 1.531 . S
C1053 C1052 1.369 . S
C1053 C1054 1.410 . S
C1053 C1061 1.503 . S
C1054 C1053 1.410 . S
C1054 C1055 1.392 . S
C1054 C1057 1.511 . S
C1055 C1051 1.376 . S
C1055 C1054 1.392 . S
C1055 H1067 0.929 . S
C1056 C1052 1.531 . S
C1056 H1068 0.960 . S
C1056 H1069 0.962 . S
C1056 H1070 0.960 . S
C1057 C1054 1.511 . S
C1057 H1071 0.961 . S
C1057 H1072 0.961 . S
C1057 H1073 0.961 . S
C1058 C1059 1.370 . S
C1058 C1060 1.363 . S
C1058 H1074 0.931 . S
C1059 C1058 1.370 . S
C1059 C1063 1.408 . S
C1060 C1058 1.363 . S
C1060 C1061 1.370 . S
C1060 C1064 1.524 . S
C1061 C1053 1.503 . S
C1061 C1060 1.370 . S
C1061 C1062 1.403 . S
C1062 C1061 1.403 . S
C1062 C1063 1.404 . S
C1062 C1065 1.539 . S
C1063 C1059 1.408 . S
C1063 C1062 1.404 . S
C1063 H1075 0.930 . S
C1064 C1060 1.524 . S
C1064 H1076 0.956 . S
C1064 H1077 0.961 . S
C1064 H1078 0.961 . S
C1065 C1062 1.539 . S
C1065 H1079 0.958 . S
C1065 H1080 0.961 . S
C1065 H1081 0.960 . S
H1066 C1050 0.931 . S
H1067 C1055 0.929 . S
H1068 C1056 0.960 . S
H1069 C1056 0.962 . S
H1070 C1056 0.960 . S
H1071 C1057 0.961 . S
H1072 C1057 0.961 . S
H1073 C1057 0.961 . S
H1074 C1058 0.931 . S
H1075 C1063 0.930 . S
H1076 C1064 0.956 . S
H1077 C1064 0.961 . S
H1078 C1064 0.961 . S
H1079 C1065 0.958 . S
H1080 C1065 0.961 . S
H1081 C1065 0.960 . S
C1082 C1083 1.391 . S
C1082 C1084 1.394 . S
C1082 H1098 0.931 . S
C1083 C1082 1.391 . S
C1083 C1087 1.376 . S
C1084 C1082 1.394 . S
C1084 C1085 1.369 . S
C1084 C1088 1.531 . S
C1085 C1084 1.369 . S
C1085 C1086 1.410 . S
C1085 C1093 1.503 . S
C1086 C1085 1.410 . S
C1086 C1087 1.392 . S
C1086 C1089 1.511 . S
C1087 C1083 1.376 . S
C1087 C1086 1.392 . S
C1087 H1099 0.929 . S
C1088 C1084 1.531 . S
C1088 H1100 0.960 . S
C1088 H1101 0.962 . S
C1088 H1102 0.960 . S
C1089 C1086 1.511 . S
C1089 H1103 0.961 . S
C1089 H1104 0.961 . S
C1089 H1105 0.961 . S
C1090 C1091 1.370 . S
C1090 C1092 1.363 . S
C1090 H1106 0.931 . S
C1091 C1090 1.370 . S
C1091 C1095 1.408 . S
C1092 C1090 1.363 . S
C1092 C1093 1.370 . S
C1092 C1096 1.524 . S
C1093 C1085 1.503 . S
C1093 C1092 1.370 . S
C1093 C1094 1.403 . S
C1094 C1093 1.403 . S
C1094 C1095 1.404 . S
C1094 C1097 1.539 . S
C1095 C1091 1.408 . S
C1095 C1094 1.404 . S
C1095 H1107 0.930 . S
C1096 C1092 1.524 . S
C1096 H1108 0.956 . S
C1096 H1109 0.961 . S
C1096 H1110 0.961 . S
C1097 C1094 1.539 . S
C1097 H1111 0.958 . S
C1097 H1112 0.961 . S
C1097 H1113 0.960 . S
H1098 C1082 0.931 . S
H1099 C1087 0.929 . S
H1100 C1088 0.960 . S
H1101 C1088 0.962 . S
H1102 C1088 0.960 . S
H1103 C1089 0.961 . S
H1104 C1089 0.961 . S
H1105 C1089 0.961 . S
H1106 C1090 0.931 . S
H1107 C1095 0.930 . S
H1108 C1096 0.956 . S
H1109 C1096 0.961 . S
H1110 C1096 0.961 . S
H1111 C1097 0.958 . S
H1112 C1097 0.961 . S
H1113 C1097 0.960 . S
C1114 C1115 1.391 . S
C1114 C1116 1.394 . S
C1114 H1130 0.931 . S
C1115 C1114 1.391 . S
C1115 C1119 1.376 . S
C1116 C1114 1.394 . S
C1116 C1117 1.369 . S
C1116 C1120 1.531 . S
C1117 C1116 1.369 . S
C1117 C1118 1.410 . S
C1117 C1125 1.503 . S
C1118 C1117 1.410 . S
C1118 C1119 1.392 . S
C1118 C1121 1.511 . S
C1119 C1115 1.376 . S
C1119 C1118 1.392 . S
C1119 H1131 0.929 . S
C1120 C1116 1.531 . S
C1120 H1132 0.960 . S
C1120 H1133 0.962 . S
C1120 H1134 0.960 . S
C1121 C1118 1.511 . S
C1121 H1135 0.961 . S
C1121 H1136 0.961 . S
C1121 H1137 0.961 . S
C1122 C1123 1.370 . S
C1122 C1124 1.363 . S
C1122 H1138 0.931 . S
C1123 C1122 1.370 . S
C1123 C1127 1.408 . S
C1124 C1122 1.363 . S
C1124 C1125 1.370 . S
C1124 C1128 1.524 . S
C1125 C1117 1.503 . S
C1125 C1124 1.370 . S
C1125 C1126 1.403 . S
C1126 C1125 1.403 . S
C1126 C1127 1.404 . S
C1126 C1129 1.539 . S
C1127 C1123 1.408 . S
C1127 C1126 1.404 . S
C1127 H1139 0.930 . S
C1128 C1124 1.524 . S
C1128 H1140 0.956 . S
C1128 H1141 0.961 . S
C1128 H1142 0.961 . S
C1129 C1126 1.539 . S
C1129 H1143 0.958 . S
C1129 H1144 0.961 . S
C1129 H1145 0.960 . S
H1130 C1114 0.931 . S
H1131 C1119 0.929 . S
H1132 C1120 0.960 . S
H1133 C1120 0.962 . S
H1134 C1120 0.960 . S
H1135 C1121 0.961 . S
H1136 C1121 0.961 . S
H1137 C1121 0.961 . S
H1138 C1122 0.931 . S
H1139 C1127 0.930 . S
H1140 C1128 0.956 . S
H1141 C1128 0.961 . S
H1142 C1128 0.961 . S
H1143 C1129 0.958 . S
H1144 C1129 0.961 . S
H1145 C1129 0.960 . S
C1146 C1147 1.391 . S
C1146 C1148 1.394 . S
C1146 H1162 0.931 . S
C1147 C1146 1.391 . S
C1147 C1151 1.376 . S
C1148 C1146 1.394 . S
C1148 C1149 1.369 . S
C1148 C1152 1.531 . S
C1149 C1148 1.369 . S
C1149 C1150 1.410 . S
C1149 C1157 1.503 . S
C1150 C1149 1.410 . S
C1150 C1151 1.392 . S
C1150 C1153 1.511 . S
C1151 C1147 1.376 . S
C1151 C1150 1.392 . S
C1151 H1163 0.929 . S
C1152 C1148 1.531 . S
C1152 H1164 0.960 . S
C1152 H1165 0.962 . S
C1152 H1166 0.960 . S
C1153 C1150 1.511 . S
C1153 H1167 0.961 . S
C1153 H1168 0.961 . S
C1153 H1169 0.961 . S
C1154 C1155 1.370 . S
C1154 C1156 1.363 . S
C1154 H1170 0.931 . S
C1155 C1154 1.370 . S
C1155 C1159 1.408 . S
C1156 C1154 1.363 . S
C1156 C1157 1.370 . S
C1156 C1160 1.524 . S
C1157 C1149 1.503 . S
C1157 C1156 1.370 . S
C1157 C1158 1.403 . S
C1158 C1157 1.403 . S
C1158 C1159 1.404 . S
C1158 C1161 1.539 . S
C1159 C1155 1.408 . S
C1159 C1158 1.404 . S
C1159 H1171 0.930 . S
C1160 C1156 1.524 . S
C1160 H1172 0.956 . S
C1160 H1173 0.961 . S
C1160 H1174 0.961 . S
C1161 C1158 1.539 . S
C1161 H1175 0.958 . S
C1161 H1176 0.961 . S
C1161 H1177 0.960 . S
H1162 C1146 0.931 . S
H1163 C1151 0.929 . S
H1164 C1152 0.960 . S
H1165 C1152 0.962 . S
H1166 C1152 0.960 . S
H1167 C1153 0.961 . S
H1168 C1153 0.961 . S
H1169 C1153 0.961 . S
H1170 C1154 0.931 . S
H1171 C1159 0.930 . S
H1172 C1160 0.956 . S
H1173 C1160 0.961 . S
H1174 C1160 0.961 . S
H1175 C1161 0.958 . S
H1176 C1161 0.961 . S
H1177 C1161 0.960 . S
C1178 C1179 1.391 . S
C1178 C1180 1.394 . S
C1178 H1194 0.931 . S
C1179 C1178 1.391 . S
C1179 C1183 1.376 . S
C1180 C1178 1.394 . S
C1180 C1181 1.369 . S
C1180 C1184 1.531 . S
C1181 C1180 1.369 . S
C1181 C1182 1.410 . S
C1181 C1189 1.503 . S
C1182 C1181 1.410 . S
C1182 C1183 1.392 . S
C1182 C1185 1.511 . S
C1183 C1179 1.376 . S
C1183 C1182 1.392 . S
C1183 H1195 0.929 . S
C1184 C1180 1.531 . S
C1184 H1196 0.960 . S
C1184 H1197 0.962 . S
C1184 H1198 0.960 . S
C1185 C1182 1.511 . S
C1185 H1199 0.961 . S
C1185 H1200 0.961 . S
C1185 H1201 0.961 . S
C1186 C1187 1.370 . S
C1186 C1188 1.363 . S
C1186 H1202 0.931 . S
C1187 C1186 1.370 . S
C1187 C1191 1.408 . S
C1188 C1186 1.363 . S
C1188 C1189 1.370 . S
C1188 C1192 1.524 . S
C1189 C1181 1.503 . S
C1189 C1188 1.370 . S
C1189 C1190 1.403 . S
C1190 C1189 1.403 . S
C1190 C1191 1.404 . S
C1190 C1193 1.539 . S
C1191 C1187 1.408 . S
C1191 C1190 1.404 . S
C1191 H1203 0.930 . S
C1192 C1188 1.524 . S
C1192 H1204 0.956 . S
C1192 H1205 0.961 . S
C1192 H1206 0.961 . S
C1193 C1190 1.539 . S
C1193 H1207 0.958 . S
C1193 H1208 0.961 . S
C1193 H1209 0.960 . S
H1194 C1178 0.931 . S
H1195 C1183 0.929 . S
H1196 C1184 0.960 . S
H1197 C1184 0.962 . S
H1198 C1184 0.960 . S
H1199 C1185 0.961 . S
H1200 C1185 0.961 . S
H1201 C1185 0.961 . S
H1202 C1186 0.931 . S
H1203 C1191 0.930 . S
H1204 C1192 0.956 . S
H1205 C1192 0.961 . S
H1206 C1192 0.961 . S
H1207 C1193 0.958 . S
H1208 C1193 0.961 . S
H1209 C1193 0.960 . S
C1210 C1211 1.391 . S
C1210 C1212 1.394 . S
C1210 H1226 0.931 . S
C1211 C1210 1.391 . S
C1211 C1215 1.376 . S
C1212 C1210 1.394 . S
C1212 C1213 1.369 . S
C1212 C1216 1.531 . S
C1213 C1212 1.369 . S
C1213 C1214 1.410 . S
C1213 C1221 1.503 . S
C1214 C1213 1.410 . S
C1214 C1215 1.392 . S
C1214 C1217 1.511 . S
C1215 C1211 1.376 . S
C1215 C1214 1.392 . S
C1215 H1227 0.929 . S
C1216 C1212 1.531 . S
C1216 H1228 0.960 . S
C1216 H1229 0.962 . S
C1216 H1230 0.960 . S
C1217 C1214 1.511 . S
C1217 H1231 0.961 . S
C1217 H1232 0.961 . S
C1217 H1233 0.961 . S
C1218 C1219 1.370 . S
C1218 C1220 1.363 . S
C1218 H1234 0.931 . S
C1219 C1218 1.370 . S
C1219 C1223 1.408 . S
C1220 C1218 1.363 . S
C1220 C1221 1.370 . S
C1220 C1224 1.524 . S
C1221 C1213 1.503 . S
C1221 C1220 1.370 . S
C1221 C1222 1.403 . S
C1222 C1221 1.403 . S
C1222 C1223 1.404 . S
C1222 C1225 1.539 . S
C1223 C1219 1.408 . S
C1223 C1222 1.404 . S
C1223 H1235 0.930 . S
C1224 C1220 1.524 . S
C1224 H1236 0.956 . S
C1224 H1237 0.961 . S
C1224 H1238 0.961 . S
C1225 C1222 1.539 . S
C1225 H1239 0.958 . S
C1225 H1240 0.961 . S
C1225 H1241 0.960 . S
H1226 C1210 0.931 . S
H1227 C1215 0.929 . S
H1228 C1216 0.960 . S
H1229 C1216 0.962 . S
H1230 C1216 0.960 . S
H1231 C1217 0.961 . S
H1232 C1217 0.961 . S
H1233 C1217 0.961 . S
H1234 C1218 0.931 . S
H1235 C1223 0.930 . S
H1236 C1224 0.956 . S
H1237 C1224 0.961 . S
H1238 C1224 0.961 . S
H1239 C1225 0.958 . S
H1240 C1225 0.961 . S
H1241 C1225 0.960 . S
C1242 C1243 1.391 . S
C1242 C1244 1.394 . S
C1242 H1258 0.931 . S
C1243 C1242 1.391 . S
C1243 C1247 1.376 . S
C1244 C1242 1.394 . S
C1244 C1245 1.369 . S
C1244 C1248 1.531 . S
C1245 C1244 1.369 . S
C1245 C1246 1.410 . S
C1245 C1253 1.503 . S
C1246 C1245 1.410 . S
C1246 C1247 1.392 . S
C1246 C1249 1.511 . S
C1247 C1243 1.376 . S
C1247 C1246 1.392 . S
C1247 H1259 0.929 . S
C1248 C1244 1.531 . S
C1248 H1260 0.960 . S
C1248 H1261 0.962 . S
C1248 H1262 0.960 . S
C1249 C1246 1.511 . S
C1249 H1263 0.961 . S
C1249 H1264 0.961 . S
C1249 H1265 0.961 . S
C1250 C1251 1.370 . S
C1250 C1252 1.363 . S
C1250 H1266 0.931 . S
C1251 C1250 1.370 . S
C1251 C1255 1.408 . S
C1252 C1250 1.363 . S
C1252 C1253 1.370 . S
C1252 C1256 1.524 . S
C1253 C1245 1.503 . S
C1253 C1252 1.370 . S
C1253 C1254 1.403 . S
C1254 C1253 1.403 . S
C1254 C1255 1.404 . S
C1254 C1257 1.539 . S
C1255 C1251 1.408 . S
C1255 C1254 1.404 . S
C1255 H1267 0.930 . S
C1256 C1252 1.524 . S
C1256 H1268 0.956 . S
C1256 H1269 0.961 . S
C1256 H1270 0.961 . S
C1257 C1254 1.539 . S
C1257 H1271 0.958 . S
C1257 H1272 0.961 . S
C1257 H1273 0.960 . S
H1258 C1242 0.931 . S
H1259 C1247 0.929 . S
H1260 C1248 0.960 . S
H1261 C1248 0.962 . S
H1262 C1248 0.960 . S
H1263 C1249 0.961 . S
H1264 C1249 0.961 . S
H1265 C1249 0.961 . S
H1266 C1250 0.931 . S
H1267 C1255 0.930 . S
H1268 C1256 0.956 . S
H1269 C1256 0.961 . S
H1270 C1256 0.961 . S
H1271 C1257 0.958 . S
H1272 C1257 0.961 . S
H1273 C1257 0.960 . S
C1274 C1275 1.391 . S
C1274 C1276 1.394 . S
C1274 H1290 0.931 . S
C1275 C1274 1.391 . S
C1275 C1279 1.376 . S
C1276 C1274 1.394 . S
C1276 C1277 1.369 . S
C1276 C1280 1.531 . S
C1277 C1276 1.369 . S
C1277 C1278 1.410 . S
C1277 C1285 1.503 . S
C1278 C1277 1.410 . S
C1278 C1279 1.392 . S
C1278 C1281 1.511 . S
C1279 C1275 1.376 . S
C1279 C1278 1.392 . S
C1279 H1291 0.929 . S
C1280 C1276 1.531 . S
C1280 H1292 0.960 . S
C1280 H1293 0.962 . S
C1280 H1294 0.960 . S
C1281 C1278 1.511 . S
C1281 H1295 0.961 . S
C1281 H1296 0.961 . S
C1281 H1297 0.961 . S
C1282 C1283 1.370 . S
C1282 C1284 1.363 . S
C1282 H1298 0.931 . S
C1283 C1282 1.370 . S
C1283 C1287 1.408 . S
C1284 C1282 1.363 . S
C1284 C1285 1.370 . S
C1284 C1288 1.524 . S
C1285 C1277 1.503 . S
C1285 C1284 1.370 . S
C1285 C1286 1.403 . S
C1286 C1285 1.403 . S
C1286 C1287 1.404 . S
C1286 C1289 1.539 . S
C1287 C1283 1.408 . S
C1287 C1286 1.404 . S
C1287 H1299 0.930 . S
C1288 C1284 1.524 . S
C1288 H1300 0.956 . S
C1288 H1301 0.961 . S
C1288 H1302 0.961 . S
C1289 C1286 1.539 . S
C1289 H1303 0.958 . S
C1289 H1304 0.961 . S
C1289 H1305 0.960 . S
H1290 C1274 0.931 . S
H1291 C1279 0.929 . S
H1292 C1280 0.960 . S
H1293 C1280 0.962 . S
H1294 C1280 0.960 . S
H1295 C1281 0.961 . S
H1296 C1281 0.961 . S
H1297 C1281 0.961 . S
H1298 C1282 0.931 . S
H1299 C1287 0.930 . S
H1300 C1288 0.956 . S
H1301 C1288 0.961 . S
H1302 C1288 0.961 . S
H1303 C1289 0.958 . S
H1304 C1289 0.961 . S
H1305 C1289 0.960 . S
C1306 C1307 1.391 . S
C1306 C1308 1.394 . S
C1306 H1322 0.931 . S
C1307 C1306 1.391 . S
C1307 C1311 1.376 . S
C1308 C1306 1.394 . S
C1308 C1309 1.369 . S
C1308 C1312 1.531 . S
C1309 C1308 1.369 . S
C1309 C1310 1.410 . S
C1309 C1317 1.503 . S
C1310 C1309 1.410 . S
C1310 C1311 1.392 . S
C1310 C1313 1.511 . S
C1311 C1307 1.376 . S
C1311 C1310 1.392 . S
C1311 H1323 0.929 . S
C1312 C1308 1.531 . S
C1312 H1324 0.960 . S
C1312 H1325 0.962 . S
C1312 H1326 0.960 . S
C1313 C1310 1.511 . S
C1313 H1327 0.961 . S
C1313 H1328 0.961 . S
C1313 H1329 0.961 . S
C1314 C1315 1.370 . S
C1314 C1316 1.363 . S
C1314 H1330 0.931 . S
C1315 C1314 1.370 . S
C1315 C1319 1.408 . S
C1316 C1314 1.363 . S
C1316 C1317 1.370 . S
C1316 C1320 1.524 . S
C1317 C1309 1.503 . S
C1317 C1316 1.370 . S
C1317 C1318 1.403 . S
C1318 C1317 1.403 . S
C1318 C1319 1.404 . S
C1318 C1321 1.539 . S
C1319 C1315 1.408 . S
C1319 C1318 1.404 . S
C1319 H1331 0.930 . S
C1320 C1316 1.524 . S
C1320 H1332 0.956 . S
C1320 H1333 0.961 . S
C1320 H1334 0.961 . S
C1321 C1318 1.539 . S
C1321 H1335 0.958 . S
C1321 H1336 0.961 . S
C1321 H1337 0.960 . S
H1322 C1306 0.931 . S
H1323 C1311 0.929 . S
H1324 C1312 0.960 . S
H1325 C1312 0.962 . S
H1326 C1312 0.960 . S
H1327 C1313 0.961 . S
H1328 C1313 0.961 . S
H1329 C1313 0.961 . S
H1330 C1314 0.931 . S
H1331 C1319 0.930 . S
H1332 C1320 0.956 . S
H1333 C1320 0.961 . S
H1334 C1320 0.961 . S
H1335 C1321 0.958 . S
H1336 C1321 0.961 . S
H1337 C1321 0.960 . S
C1338 C1339 1.391 . S
C1338 C1340 1.394 . S
C1338 H1354 0.931 . S
C1339 C1338 1.391 . S
C1339 C1343 1.376 . S
C1340 C1338 1.394 . S
C1340 C1341 1.369 . S
C1340 C1344 1.531 . S
C1341 C1340 1.369 . S
C1341 C1342 1.410 . S
C1341 C1349 1.503 . S
C1342 C1341 1.410 . S
C1342 C1343 1.392 . S
C1342 C1345 1.511 . S
C1343 C1339 1.376 . S
C1343 C1342 1.392 . S
C1343 H1355 0.929 . S
C1344 C1340 1.531 . S
C1344 H1356 0.960 . S
C1344 H1357 0.962 . S
C1344 H1358 0.960 . S
C1345 C1342 1.511 . S
C1345 H1359 0.961 . S
C1345 H1360 0.961 . S
C1345 H1361 0.961 . S
C1346 C1347 1.370 . S
C1346 C1348 1.363 . S
C1346 H1362 0.931 . S
C1347 C1346 1.370 . S
C1347 C1351 1.408 . S
C1348 C1346 1.363 . S
C1348 C1349 1.370 . S
C1348 C1352 1.524 . S
C1349 C1341 1.503 . S
C1349 C1348 1.370 . S
C1349 C1350 1.403 . S
C1350 C1349 1.403 . S
C1350 C1351 1.404 . S
C1350 C1353 1.539 . S
C1351 C1347 1.408 . S
C1351 C1350 1.404 . S
C1351 H1363 0.930 . S
C1352 C1348 1.524 . S
C1352 H1364 0.956 . S
C1352 H1365 0.961 . S
C1352 H1366 0.961 . S
C1353 C1350 1.539 . S
C1353 H1367 0.958 . S
C1353 H1368 0.961 . S
C1353 H1369 0.960 . S
H1354 C1338 0.931 . S
H1355 C1343 0.929 . S
H1356 C1344 0.960 . S
H1357 C1344 0.962 . S
H1358 C1344 0.960 . S
H1359 C1345 0.961 . S
H1360 C1345 0.961 . S
H1361 C1345 0.961 . S
H1362 C1346 0.931 . S
H1363 C1351 0.930 . S
H1364 C1352 0.956 . S
H1365 C1352 0.961 . S
H1366 C1352 0.961 . S
H1367 C1353 0.958 . S
H1368 C1353 0.961 . S
H1369 C1353 0.960 . S
C1370 C1371 1.391 . S
C1370 C1372 1.394 . S
C1370 H1386 0.931 . S
C1371 C1370 1.391 . S
C1371 C1375 1.376 . S
C1372 C1370 1.394 . S
C1372 C1373 1.369 . S
C1372 C1376 1.531 . S
C1373 C1372 1.369 . S
C1373 C1374 1.410 . S
C1373 C1381 1.503 . S
C1374 C1373 1.410 . S
C1374 C1375 1.392 . S
C1374 C1377 1.511 . S
C1375 C1371 1.376 . S
C1375 C1374 1.392 . S
C1375 H1387 0.929 . S
C1376 C1372 1.531 . S
C1376 H1388 0.960 . S
C1376 H1389 0.962 . S
C1376 H1390 0.960 . S
C1377 C1374 1.511 . S
C1377 H1391 0.961 . S
C1377 H1392 0.961 . S
C1377 H1393 0.961 . S
C1378 C1379 1.370 . S
C1378 C1380 1.363 . S
C1378 H1394 0.931 . S
C1379 C1378 1.370 . S
C1379 C1383 1.408 . S
C1380 C1378 1.363 . S
C1380 C1381 1.370 . S
C1380 C1384 1.524 . S
C1381 C1373 1.503 . S
C1381 C1380 1.370 . S
C1381 C1382 1.403 . S
C1382 C1381 1.403 . S
C1382 C1383 1.404 . S
C1382 C1385 1.539 . S
C1383 C1379 1.408 . S
C1383 C1382 1.404 . S
C1383 H1395 0.930 . S
C1384 C1380 1.524 . S
C1384 H1396 0.956 . S
C1384 H1397 0.961 . S
C1384 H1398 0.961 . S
C1385 C1382 1.539 . S
C1385 H1399 0.958 . S
C1385 H1400 0.961 . S
C1385 H1401 0.960 . S
H1386 C1370 0.931 . S
H1387 C1375 0.929 . S
H1388 C1376 0.960 . S
H1389 C1376 0.962 . S
H1390 C1376 0.960 . S
H1391 C1377 0.961 . S
H1392 C1377 0.961 . S
H1393 C1377 0.961 . S
H1394 C1378 0.931 . S
H1395 C1383 0.930 . S
H1396 C1384 0.956 . S
H1397 C1384 0.961 . S
H1398 C1384 0.961 . S
H1399 C1385 0.958 . S
H1400 C1385 0.961 . S
H1401 C1385 0.960 . S
C1402 C1403 1.391 . S
C1402 C1404 1.394 . S
C1402 H1418 0.931 . S
C1403 C1402 1.391 . S
C1403 C1407 1.376 . S
C1404 C1402 1.394 . S
C1404 C1405 1.369 . S
C1404 C1408 1.531 . S
C1405 C1404 1.369 . S
C1405 C1406 1.410 . S
C1405 C1413 1.503 . S
C1406 C1405 1.410 . S
C1406 C1407 1.392 . S
C1406 C1409 1.511 . S
C1407 C1403 1.376 . S
C1407 C1406 1.392 . S
C1407 H1419 0.929 . S
C1408 C1404 1.531 . S
C1408 H1420 0.960 . S
C1408 H1421 0.962 . S
C1408 H1422 0.960 . S
C1409 C1406 1.511 . S
C1409 H1423 0.961 . S
C1409 H1424 0.961 . S
C1409 H1425 0.961 . S
C1410 C1411 1.370 . S
C1410 C1412 1.363 . S
C1410 H1426 0.931 . S
C1411 C1410 1.370 . S
C1411 C1415 1.408 . S
C1412 C1410 1.363 . S
C1412 C1413 1.370 . S
C1412 C1416 1.524 . S
C1413 C1405 1.503 . S
C1413 C1412 1.370 . S
C1413 C1414 1.403 . S
C1414 C1413 1.403 . S
C1414 C1415 1.404 . S
C1414 C1417 1.539 . S
C1415 C1411 1.408 . S
C1415 C1414 1.404 . S
C1415 H1427 0.930 . S
C1416 C1412 1.524 . S
C1416 H1428 0.956 . S
C1416 H1429 0.961 . S
C1416 H1430 0.961 . S
C1417 C1414 1.539 . S
C1417 H1431 0.958 . S
C1417 H1432 0.961 . S
C1417 H1433 0.960 . S
H1418 C1402 0.931 . S
H1419 C1407 0.929 . S
H1420 C1408 0.960 . S
H1421 C1408 0.962 . S
H1422 C1408 0.960 . S
H1423 C1409 0.961 . S
H1424 C1409 0.961 . S
H1425 C1409 0.961 . S
H1426 C1410 0.931 . S
H1427 C1415 0.930 . S
H1428 C1416 0.956 . S
H1429 C1416 0.961 . S
H1430 C1416 0.961 . S
H1431 C1417 0.958 . S
H1432 C1417 0.961 . S
H1433 C1417 0.960 . S
C1434 C1435 1.391 . S
C1434 C1436 1.394 . S
C1434 H1450 0.931 . S
C1435 C1434 1.391 . S
C1435 C1439 1.376 . S
C1436 C1434 1.394 . S
C1436 C1437 1.369 . S
C1436 C1440 1.531 . S
C1437 C1436 1.369 . S
C1437 C1438 1.410 . S
C1437 C1445 1.503 . S
C1438 C1437 1.410 . S
C1438 C1439 1.392 . S
C1438 C1441 1.511 . S
C1439 C1435 1.376 . S
C1439 C1438 1.392 . S
C1439 H1451 0.929 . S
C1440 C1436 1.531 . S
C1440 H1452 0.960 . S
C1440 H1453 0.962 . S
C1440 H1454 0.960 . S
C1441 C1438 1.511 . S
C1441 H1455 0.961 . S
C1441 H1456 0.961 . S
C1441 H1457 0.961 . S
C1442 C1443 1.370 . S
C1442 C1444 1.363 . S
C1442 H1458 0.931 . S
C1443 C1442 1.370 . S
C1443 C1447 1.408 . S
C1444 C1442 1.363 . S
C1444 C1445 1.370 . S
C1444 C1448 1.524 . S
C1445 C1437 1.503 . S
C1445 C1444 1.370 . S
C1445 C1446 1.403 . S
C1446 C1445 1.403 . S
C1446 C1447 1.404 . S
C1446 C1449 1.539 . S
C1447 C1443 1.408 . S
C1447 C1446 1.404 . S
C1447 H1459 0.930 . S
C1448 C1444 1.524 . S
C1448 H1460 0.956 . S
C1448 H1461 0.961 . S
C1448 H1462 0.961 . S
C1449 C1446 1.539 . S
C1449 H1463 0.958 . S
C1449 H1464 0.961 . S
C1449 H1465 0.960 . S
H1450 C1434 0.931 . S
H1451 C1439 0.929 . S
H1452 C1440 0.960 . S
H1453 C1440 0.962 . S
H1454 C1440 0.960 . S
H1455 C1441 0.961 . S
H1456 C1441 0.961 . S
H1457 C1441 0.961 . S
H1458 C1442 0.931 . S
H1459 C1447 0.930 . S
H1460 C1448 0.956 . S
H1461 C1448 0.961 . S
H1462 C1448 0.961 . S
H1463 C1449 0.958 . S
H1464 C1449 0.961 . S
H1465 C1449 0.960 . S
C1466 C1467 1.391 . S
C1466 C1468 1.394 . S
C1466 H1482 0.931 . S
C1467 C1466 1.391 . S
C1467 C1471 1.376 . S
C1468 C1466 1.394 . S
C1468 C1469 1.369 . S
C1468 C1472 1.531 . S
C1469 C1468 1.369 . S
C1469 C1470 1.410 . S
C1469 C1477 1.503 . S
C1470 C1469 1.410 . S
C1470 C1471 1.392 . S
C1470 C1473 1.511 . S
C1471 C1467 1.376 . S
C1471 C1470 1.392 . S
C1471 H1483 0.929 . S
C1472 C1468 1.531 . S
C1472 H1484 0.960 . S
C1472 H1485 0.962 . S
C1472 H1486 0.960 . S
C1473 C1470 1.511 . S
C1473 H1487 0.961 . S
C1473 H1488 0.961 . S
C1473 H1489 0.961 . S
C1474 C1475 1.370 . S
C1474 C1476 1.363 . S
C1474 H1490 0.931 . S
C1475 C1474 1.370 . S
C1475 C1479 1.408 . S
C1476 C1474 1.363 . S
C1476 C1477 1.370 . S
C1476 C1480 1.524 . S
C1477 C1469 1.503 . S
C1477 C1476 1.370 . S
C1477 C1478 1.403 . S
C1478 C1477 1.403 . S
C1478 C1479 1.404 . S
C1478 C1481 1.539 . S
C1479 C1475 1.408 . S
C1479 C1478 1.404 . S
C1479 H1491 0.930 . S
C1480 C1476 1.524 . S
C1480 H1492 0.956 . S
C1480 H1493 0.961 . S
C1480 H1494 0.961 . S
C1481 C1478 1.539 . S
C1481 H1495 0.958 . S
C1481 H1496 0.961 . S
C1481 H1497 0.960 . S
H1482 C1466 0.931 . S
H1483 C1471 0.929 . S
H1484 C1472 0.960 . S
H1485 C1472 0.962 . S
H1486 C1472 0.960 . S
H1487 C1473 0.961 . S
H1488 C1473 0.961 . S
H1489 C1473 0.961 . S
H1490 C1474 0.931 . S
H1491 C1479 0.930 . S
H1492 C1480 0.956 . S
H1493 C1480 0.961 . S
H1494 C1480 0.961 . S
H1495 C1481 0.958 . S
H1496 C1481 0.961 . S
H1497 C1481 0.960 . S
C1498 C1499 1.391 . S
C1498 C1500 1.394 . S
C1498 H1514 0.931 . S
C1499 C1498 1.391 . S
C1499 C1503 1.376 . S
C1500 C1498 1.394 . S
C1500 C1501 1.369 . S
C1500 C1504 1.531 . S
C1501 C1500 1.369 . S
C1501 C1502 1.410 . S
C1501 C1509 1.503 . S
C1502 C1501 1.410 . S
C1502 C1503 1.392 . S
C1502 C1505 1.511 . S
C1503 C1499 1.376 . S
C1503 C1502 1.392 . S
C1503 H1515 0.929 . S
C1504 C1500 1.531 . S
C1504 H1516 0.960 . S
C1504 H1517 0.962 . S
C1504 H1518 0.960 . S
C1505 C1502 1.511 . S
C1505 H1519 0.961 . S
C1505 H1520 0.961 . S
C1505 H1521 0.961 . S
C1506 C1507 1.370 . S
C1506 C1508 1.363 . S
C1506 H1522 0.931 . S
C1507 C1506 1.370 . S
C1507 C1511 1.408 . S
C1508 C1506 1.363 . S
C1508 C1509 1.370 . S
C1508 C1512 1.524 . S
C1509 C1501 1.503 . S
C1509 C1508 1.370 . S
C1509 C1510 1.403 . S
C1510 C1509 1.403 . S
C1510 C1511 1.404 . S
C1510 C1513 1.539 . S
C1511 C1507 1.408 . S
C1511 C1510 1.404 . S
C1511 H1523 0.930 . S
C1512 C1508 1.524 . S
C1512 H1524 0.956 . S
C1512 H1525 0.961 . S
C1512 H1526 0.961 . S
C1513 C1510 1.539 . S
C1513 H1527 0.958 . S
C1513 H1528 0.961 . S
C1513 H1529 0.960 . S
H1514 C1498 0.931 . S
H1515 C1503 0.929 . S
H1516 C1504 0.960 . S
H1517 C1504 0.962 . S
H1518 C1504 0.960 . S
H1519 C1505 0.961 . S
H1520 C1505 0.961 . S
H1521 C1505 0.961 . S
H1522 C1506 0.931 . S
H1523 C1511 0.930 . S
H1524 C1512 0.956 . S
H1525 C1512 0.961 . S
H1526 C1512 0.961 . S
H1527 C1513 0.958 . S
H1528 C1513 0.961 . S
H1529 C1513 0.960 . S
C1530 C1531 1.391 . S
C1530 C1532 1.394 . S
C1530 H1546 0.931 . S
C1531 C1530 1.391 . S
C1531 C1535 1.376 . S
C1532 C1530 1.394 . S
C1532 C1533 1.369 . S
C1532 C1536 1.531 . S
C1533 C1532 1.369 . S
C1533 C1534 1.410 . S
C1533 C1541 1.503 . S
C1534 C1533 1.410 . S
C1534 C1535 1.392 . S
C1534 C1537 1.511 . S
C1535 C1531 1.376 . S
C1535 C1534 1.392 . S
C1535 H1547 0.929 . S
C1536 C1532 1.531 . S
C1536 H1548 0.960 . S
C1536 H1549 0.962 . S
C1536 H1550 0.960 . S
C1537 C1534 1.511 . S
C1537 H1551 0.961 . S
C1537 H1552 0.961 . S
C1537 H1553 0.961 . S
C1538 C1539 1.370 . S
C1538 C1540 1.363 . S
C1538 H1554 0.931 . S
C1539 C1538 1.370 . S
C1539 C1543 1.408 . S
C1540 C1538 1.363 . S
C1540 C1541 1.370 . S
C1540 C1544 1.524 . S
C1541 C1533 1.503 . S
C1541 C1540 1.370 . S
C1541 C1542 1.403 . S
C1542 C1541 1.403 . S
C1542 C1543 1.404 . S
C1542 C1545 1.539 . S
C1543 C1539 1.408 . S
C1543 C1542 1.404 . S
C1543 H1555 0.930 . S
C1544 C1540 1.524 . S
C1544 H1556 0.956 . S
C1544 H1557 0.961 . S
C1544 H1558 0.961 . S
C1545 C1542 1.539 . S
C1545 H1559 0.958 . S
C1545 H1560 0.961 . S
C1545 H1561 0.960 . S
H1546 C1530 0.931 . S
H1547 C1535 0.929 . S
H1548 C1536 0.960 . S
H1549 C1536 0.962 . S
H1550 C1536 0.960 . S
H1551 C1537 0.961 . S
H1552 C1537 0.961 . S
H1553 C1537 0.961 . S
H1554 C1538 0.931 . S
H1555 C1543 0.930 . S
H1556 C1544 0.956 . S
H1557 C1544 0.961 . S
H1558 C1544 0.961 . S
H1559 C1545 0.958 . S
H1560 C1545 0.961 . S
H1561 C1545 0.960 . S
C1562 C1563 1.391 . S
C1562 C1564 1.394 . S
C1562 H1578 0.931 . S
C1563 C1562 1.391 . S
C1563 C1567 1.376 . S
C1564 C1562 1.394 . S
C1564 C1565 1.369 . S
C1564 C1568 1.531 . S
C1565 C1564 1.369 . S
C1565 C1566 1.410 . S
C1565 C1573 1.503 . S
C1566 C1565 1.410 . S
C1566 C1567 1.392 . S
C1566 C1569 1.511 . S
C1567 C1563 1.376 . S
C1567 C1566 1.392 . S
C1567 H1579 0.929 . S
C1568 C1564 1.531 . S
C1568 H1580 0.960 . S
C1568 H1581 0.962 . S
C1568 H1582 0.960 . S
C1569 C1566 1.511 . S
C1569 H1583 0.961 . S
C1569 H1584 0.961 . S
C1569 H1585 0.961 . S
C1570 C1571 1.370 . S
C1570 C1572 1.363 . S
C1570 H1586 0.931 . S
C1571 C1570 1.370 . S
C1571 C1575 1.408 . S
C1572 C1570 1.363 . S
C1572 C1573 1.370 . S
C1572 C1576 1.524 . S
C1573 C1565 1.503 . S
C1573 C1572 1.370 . S
C1573 C1574 1.403 . S
C1574 C1573 1.403 . S
C1574 C1575 1.404 . S
C1574 C1577 1.539 . S
C1575 C1571 1.408 . S
C1575 C1574 1.404 . S
C1575 H1587 0.930 . S
C1576 C1572 1.524 . S
C1576 H1588 0.956 . S
C1576 H1589 0.961 . S
C1576 H1590 0.961 . S
C1577 C1574 1.539 . S
C1577 H1591 0.958 . S
C1577 H1592 0.961 . S
C1577 H1593 0.960 . S
H1578 C1562 0.931 . S
H1579 C1567 0.929 . S
H1580 C1568 0.960 . S
H1581 C1568 0.962 . S
H1582 C1568 0.960 . S
H1583 C1569 0.961 . S
H1584 C1569 0.961 . S
H1585 C1569 0.961 . S
H1586 C1570 0.931 . S
H1587 C1575 0.930 . S
H1588 C1576 0.956 . S
H1589 C1576 0.961 . S
H1590 C1576 0.961 . S
H1591 C1577 0.958 . S
H1592 C1577 0.961 . S
H1593 C1577 0.960 . S
C1594 C1595 1.391 . S
C1594 C1596 1.394 . S
C1594 H1610 0.931 . S
C1595 C1594 1.391 . S
C1595 C1599 1.376 . S
C1596 C1594 1.394 . S
C1596 C1597 1.369 . S
C1596 C1600 1.531 . S
C1597 C1596 1.369 . S
C1597 C1598 1.410 . S
C1597 C1605 1.503 . S
C1598 C1597 1.410 . S
C1598 C1599 1.392 . S
C1598 C1601 1.511 . S
C1599 C1595 1.376 . S
C1599 C1598 1.392 . S
C1599 H1611 0.929 . S
C1600 C1596 1.531 . S
C1600 H1612 0.960 . S
C1600 H1613 0.962 . S
C1600 H1614 0.960 . S
C1601 C1598 1.511 . S
C1601 H1615 0.961 . S
C1601 H1616 0.961 . S
C1601 H1617 0.961 . S
C1602 C1603 1.370 . S
C1602 C1604 1.363 . S
C1602 H1618 0.931 . S
C1603 C1602 1.370 . S
C1603 C1607 1.408 . S
C1604 C1602 1.363 . S
C1604 C1605 1.370 . S
C1604 C1608 1.524 . S
C1605 C1597 1.503 . S
C1605 C1604 1.370 . S
C1605 C1606 1.403 . S
C1606 C1605 1.403 . S
C1606 C1607 1.404 . S
C1606 C1609 1.539 . S
C1607 C1603 1.408 . S
C1607 C1606 1.404 . S
C1607 H1619 0.930 . S
C1608 C1604 1.524 . S
C1608 H1620 0.956 . S
C1608 H1621 0.961 . S
C1608 H1622 0.961 . S
C1609 C1606 1.539 . S
C1609 H1623 0.958 . S
C1609 H1624 0.961 . S
C1609 H1625 0.960 . S
H1610 C1594 0.931 . S
H1611 C1599 0.929 . S
H1612 C1600 0.960 . S
H1613 C1600 0.962 . S
H1614 C1600 0.960 . S
H1615 C1601 0.961 . S
H1616 C1601 0.961 . S
H1617 C1601 0.961 . S
H1618 C1602 0.931 . S
H1619 C1607 0.930 . S
H1620 C1608 0.956 . S
H1621 C1608 0.961 . S
H1622 C1608 0.961 . S
H1623 C1609 0.958 . S
H1624 C1609 0.961 . S
H1625 C1609 0.960 . S
C1626 C1627 1.391 . S
C1626 C1628 1.394 . S
C1626 H1642 0.931 . S
C1627 C1626 1.391 . S
C1627 C1631 1.376 . S
C1628 C1626 1.394 . S
C1628 C1629 1.369 . S
C1628 C1632 1.531 . S
C1629 C1628 1.369 . S
C1629 C1630 1.410 . S
C1629 C1637 1.503 . S
C1630 C1629 1.410 . S
C1630 C1631 1.392 . S
C1630 C1633 1.511 . S
C1631 C1627 1.376 . S
C1631 C1630 1.392 . S
C1631 H1643 0.929 . S
C1632 C1628 1.531 . S
C1632 H1644 0.960 . S
C1632 H1645 0.962 . S
C1632 H1646 0.960 . S
C1633 C1630 1.511 . S
C1633 H1647 0.961 . S
C1633 H1648 0.961 . S
C1633 H1649 0.961 . S
C1634 C1635 1.370 . S
C1634 C1636 1.363 . S
C1634 H1650 0.931 . S
C1635 C1634 1.370 . S
C1635 C1639 1.408 . S
C1636 C1634 1.363 . S
C1636 C1637 1.370 . S
C1636 C1640 1.524 . S
C1637 C1629 1.503 . S
C1637 C1636 1.370 . S
C1637 C1638 1.403 . S
C1638 C1637 1.403 . S
C1638 C1639 1.404 . S
C1638 C1641 1.539 . S
C1639 C1635 1.408 . S
C1639 C1638 1.404 . S
C1639 H1651 0.930 . S
C1640 C1636 1.524 . S
C1640 H1652 0.956 . S
C1640 H1653 0.961 . S
C1640 H1654 0.961 . S
C1641 C1638 1.539 . S
C1641 H1655 0.958 . S
C1641 H1656 0.961 . S
C1641 H1657 0.960 . S
H1642 C1626 0.931 . S
H1643 C1631 0.929 . S
H1644 C1632 0.960 . S
H1645 C1632 0.962 . S
H1646 C1632 0.960 . S
H1647 C1633 0.961 . S
H1648 C1633 0.961 . S
H1649 C1633 0.961 . S
H1650 C1634 0.931 . S
H1651 C1639 0.930 . S
H1652 C1640 0.956 . S
H1653 C1640 0.961 . S
H1654 C1640 0.961 . S
H1655 C1641 0.958 . S
H1656 C1641 0.961 . S
H1657 C1641 0.960 . S
C1658 C1659 1.391 . S
C1658 C1660 1.394 . S
C1658 H1674 0.931 . S
C1659 C1658 1.391 . S
C1659 C1663 1.376 . S
C1660 C1658 1.394 . S
C1660 C1661 1.369 . S
C1660 C1664 1.531 . S
C1661 C1660 1.369 . S
C1661 C1662 1.410 . S
C1661 C1669 1.503 . S
C1662 C1661 1.410 . S
C1662 C1663 1.392 . S
C1662 C1665 1.511 . S
C1663 C1659 1.376 . S
C1663 C1662 1.392 . S
C1663 H1675 0.929 . S
C1664 C1660 1.531 . S
C1664 H1676 0.960 . S
C1664 H1677 0.962 . S
C1664 H1678 0.960 . S
C1665 C1662 1.511 . S
C1665 H1679 0.961 . S
C1665 H1680 0.961 . S
C1665 H1681 0.961 . S
C1666 C1667 1.370 . S
C1666 C1668 1.363 . S
C1666 H1682 0.931 . S
C1667 C1666 1.370 . S
C1667 C1671 1.408 . S
C1668 C1666 1.363 . S
C1668 C1669 1.370 . S
C1668 C1672 1.524 . S
C1669 C1661 1.503 . S
C1669 C1668 1.370 . S
C1669 C1670 1.403 . S
C1670 C1669 1.403 . S
C1670 C1671 1.404 . S
C1670 C1673 1.539 . S
C1671 C1667 1.408 . S
C1671 C1670 1.404 . S
C1671 H1683 0.930 . S
C1672 C1668 1.524 . S
C1672 H1684 0.956 . S
C1672 H1685 0.961 . S
C1672 H1686 0.961 . S
C1673 C1670 1.539 . S
C1673 H1687 0.958 . S
C1673 H1688 0.961 . S
C1673 H1689 0.960 . S
H1674 C1658 0.931 . S
H1675 C1663 0.929 . S
H1676 C1664 0.960 . S
H1677 C1664 0.962 . S
H1678 C1664 0.960 . S
H1679 C1665 0.961 . S
H1680 C1665 0.961 . S
H1681 C1665 0.961 . S
H1682 C1666 0.931 . S
H1683 C1671 0.930 . S
H1684 C1672 0.956 . S
H1685 C1672 0.961 . S
H1686 C1672 0.961 . S
H1687 C1673 0.958 . S
H1688 C1673 0.961 . S
H1689 C1673 0.960 . S
C1690 C1691 1.391 . S
C1690 C1692 1.394 . S
C1690 H1706 0.931 . S
C1691 C1690 1.391 . S
C1691 C1695 1.376 . S
C1692 C1690 1.394 . S
C1692 C1693 1.369 . S
C1692 C1696 1.531 . S
C1693 C1692 1.369 . S
C1693 C1694 1.410 . S
C1693 C1701 1.503 . S
C1694 C1693 1.410 . S
C1694 C1695 1.392 . S
C1694 C1697 1.511 . S
C1695 C1691 1.376 . S
C1695 C1694 1.392 . S
C1695 H1707 0.929 . S
C1696 C1692 1.531 . S
C1696 H1708 0.960 . S
C1696 H1709 0.962 . S
C1696 H1710 0.960 . S
C1697 C1694 1.511 . S
C1697 H1711 0.961 . S
C1697 H1712 0.961 . S
C1697 H1713 0.961 . S
C1698 C1699 1.370 . S
C1698 C1700 1.363 . S
C1698 H1714 0.931 . S
C1699 C1698 1.370 . S
C1699 C1703 1.408 . S
C1700 C1698 1.363 . S
C1700 C1701 1.370 . S
C1700 C1704 1.524 . S
C1701 C1693 1.503 . S
C1701 C1700 1.370 . S
C1701 C1702 1.403 . S
C1702 C1701 1.403 . S
C1702 C1703 1.404 . S
C1702 C1705 1.539 . S
C1703 C1699 1.408 . S
C1703 C1702 1.404 . S
C1703 H1715 0.930 . S
C1704 C1700 1.524 . S
C1704 H1716 0.956 . S
C1704 H1717 0.961 . S
C1704 H1718 0.961 . S
C1705 C1702 1.539 . S
C1705 H1719 0.958 . S
C1705 H1720 0.961 . S
C1705 H1721 0.960 . S
H1706 C1690 0.931 . S
H1707 C1695 0.929 . S
H1708 C1696 0.960 . S
H1709 C1696 0.962 . S
H1710 C1696 0.960 . S
H1711 C1697 0.961 . S
H1712 C1697 0.961 . S
H1713 C1697 0.961 . S
H1714 C1698 0.931 . S
H1715 C1703 0.930 . S
H1716 C1704 0.956 . S
H1717 C1704 0.961 . S
H1718 C1704 0.961 . S
H1719 C1705 0.958 . S
H1720 C1705 0.961 . S
H1721 C1705 0.960 . S
C1722 C1723 1.391 . S
C1722 C1724 1.394 . S
C1722 H1738 0.931 . S
C1723 C1722 1.391 . S
C1723 C1727 1.376 . S
C1724 C1722 1.394 . S
C1724 C1725 1.369 . S
C1724 C1728 1.531 . S
C1725 C1724 1.369 . S
C1725 C1726 1.410 . S
C1725 C1733 1.503 . S
C1726 C1725 1.410 . S
C1726 C1727 1.392 . S
C1726 C1729 1.511 . S
C1727 C1723 1.376 . S
C1727 C1726 1.392 . S
C1727 H1739 0.929 . S
C1728 C1724 1.531 . S
C1728 H1740 0.960 . S
C1728 H1741 0.962 . S
C1728 H1742 0.960 . S
C1729 C1726 1.511 . S
C1729 H1743 0.961 . S
C1729 H1744 0.961 . S
C1729 H1745 0.961 . S
C1730 C1731 1.370 . S
C1730 C1732 1.363 . S
C1730 H1746 0.931 . S
C1731 C1730 1.370 . S
C1731 C1735 1.408 . S
C1732 C1730 1.363 . S
C1732 C1733 1.370 . S
C1732 C1736 1.524 . S
C1733 C1725 1.503 . S
C1733 C1732 1.370 . S
C1733 C1734 1.403 . S
C1734 C1733 1.403 . S
C1734 C1735 1.404 . S
C1734 C1737 1.539 . S
C1735 C1731 1.408 . S
C1735 C1734 1.404 . S
C1735 H1747 0.930 . S
C1736 C1732 1.524 . S
C1736 H1748 0.956 . S
C1736 H1749 0.961 . S
C1736 H1750 0.961 . S
C1737 C1734 1.539 . S
C1737 H1751 0.958 . S
C1737 H1752 0.961 . S
C1737 H1753 0.960 . S
H1738 C1722 0.931 . S
H1739 C1727 0.929 . S
H1740 C1728 0.960 . S
H1741 C1728 0.962 . S
H1742 C1728 0.960 . S
H1743 C1729 0.961 . S
H1744 C1729 0.961 . S
H1745 C1729 0.961 . S
H1746 C1730 0.931 . S
H1747 C1735 0.930 . S
H1748 C1736 0.956 . S
H1749 C1736 0.961 . S
H1750 C1736 0.961 . S
H1751 C1737 0.958 . S
H1752 C1737 0.961 . S
H1753 C1737 0.960 . S
C1754 C1755 1.391 . S
C1754 C1756 1.394 . S
C1754 H1770 0.931 . S
C1755 C1754 1.391 . S
C1755 C1759 1.376 . S
C1756 C1754 1.394 . S
C1756 C1757 1.369 . S
C1756 C1760 1.531 . S
C1757 C1756 1.369 . S
C1757 C1758 1.410 . S
C1757 C1765 1.503 . S
C1758 C1757 1.410 . S
C1758 C1759 1.392 . S
C1758 C1761 1.511 . S
C1759 C1755 1.376 . S
C1759 C1758 1.392 . S
C1759 H1771 0.929 . S
C1760 C1756 1.531 . S
C1760 H1772 0.960 . S
C1760 H1773 0.962 . S
C1760 H1774 0.960 . S
C1761 C1758 1.511 . S
C1761 H1775 0.961 . S
C1761 H1776 0.961 . S
C1761 H1777 0.961 . S
C1762 C1763 1.370 . S
C1762 C1764 1.363 . S
C1762 H1778 0.931 . S
C1763 C1762 1.370 . S
C1763 C1767 1.408 . S
C1764 C1762 1.363 . S
C1764 C1765 1.370 . S
C1764 C1768 1.524 . S
C1765 C1757 1.503 . S
C1765 C1764 1.370 . S
C1765 C1766 1.403 . S
C1766 C1765 1.403 . S
C1766 C1767 1.404 . S
C1766 C1769 1.539 . S
C1767 C1763 1.408 . S
C1767 C1766 1.404 . S
C1767 H1779 0.930 . S
C1768 C1764 1.524 . S
C1768 H1780 0.956 . S
C1768 H1781 0.961 . S
C1768 H1782 0.961 . S
C1769 C1766 1.539 . S
C1769 H1783 0.958 . S
C1769 H1784 0.961 . S
C1769 H1785 0.960 . S
H1770 C1754 0.931 . S
H1771 C1759 0.929 . S
H1772 C1760 0.960 . S
H1773 C1760 0.962 . S
H1774 C1760 0.960 . S
H1775 C1761 0.961 . S
H1776 C1761 0.961 . S
H1777 C1761 0.961 . S
H1778 C1762 0.931 . S
H1779 C1767 0.930 . S
H1780 C1768 0.956 . S
H1781 C1768 0.961 . S
H1782 C1768 0.961 . S
H1783 C1769 0.958 . S
H1784 C1769 0.961 . S
H1785 C1769 0.960 . S
C1786 C1787 1.391 . S
C1786 C1788 1.394 . S
C1786 H1802 0.931 . S
C1787 C1786 1.391 . S
C1787 C1791 1.376 . S
C1788 C1786 1.394 . S
C1788 C1789 1.369 . S
C1788 C1792 1.531 . S
C1789 C1788 1.369 . S
C1789 C1790 1.410 . S
C1789 C1797 1.503 . S
C1790 C1789 1.410 . S
C1790 C1791 1.392 . S
C1790 C1793 1.511 . S
C1791 C1787 1.376 . S
C1791 C1790 1.392 . S
C1791 H1803 0.929 . S
C1792 C1788 1.531 . S
C1792 H1804 0.960 . S
C1792 H1805 0.962 . S
C1792 H1806 0.960 . S
C1793 C1790 1.511 . S
C1793 H1807 0.961 . S
C1793 H1808 0.961 . S
C1793 H1809 0.961 . S
C1794 C1795 1.370 . S
C1794 C1796 1.363 . S
C1794 H1810 0.931 . S
C1795 C1794 1.370 . S
C1795 C1799 1.408 . S
C1796 C1794 1.363 . S
C1796 C1797 1.370 . S
C1796 C1800 1.524 . S
C1797 C1789 1.503 . S
C1797 C1796 1.370 . S
C1797 C1798 1.403 . S
C1798 C1797 1.403 . S
C1798 C1799 1.404 . S
C1798 C1801 1.539 . S
C1799 C1795 1.408 . S
C1799 C1798 1.404 . S
C1799 H1811 0.930 . S
C1800 C1796 1.524 . S
C1800 H1812 0.956 . S
C1800 H1813 0.961 . S
C1800 H1814 0.961 . S
C1801 C1798 1.539 . S
C1801 H1815 0.958 . S
C1801 H1816 0.961 . S
C1801 H1817 0.960 . S
H1802 C1786 0.931 . S
H1803 C1791 0.929 . S
H1804 C1792 0.960 . S
H1805 C1792 0.962 . S
H1806 C1792 0.960 . S
H1807 C1793 0.961 . S
H1808 C1793 0.961 . S
H1809 C1793 0.961 . S
H1810 C1794 0.931 . S
H1811 C1799 0.930 . S
H1812 C1800 0.956 . S
H1813 C1800 0.961 . S
H1814 C1800 0.961 . S
H1815 C1801 0.958 . S
H1816 C1801 0.961 . S
H1817 C1801 0.960 . S
C1818 C1819 1.391 . S
C1818 C1820 1.394 . S
C1818 H1834 0.931 . S
C1819 C1818 1.391 . S
C1819 C1823 1.376 . S
C1820 C1818 1.394 . S
C1820 C1821 1.369 . S
C1820 C1824 1.531 . S
C1821 C1820 1.369 . S
C1821 C1822 1.410 . S
C1821 C1829 1.503 . S
C1822 C1821 1.410 . S
C1822 C1823 1.392 . S
C1822 C1825 1.511 . S
C1823 C1819 1.376 . S
C1823 C1822 1.392 . S
C1823 H1835 0.929 . S
C1824 C1820 1.531 . S
C1824 H1836 0.960 . S
C1824 H1837 0.962 . S
C1824 H1838 0.960 . S
C1825 C1822 1.511 . S
C1825 H1839 0.961 . S
C1825 H1840 0.961 . S
C1825 H1841 0.961 . S
C1826 C1827 1.370 . S
C1826 C1828 1.363 . S
C1826 H1842 0.931 . S
C1827 C1826 1.370 . S
C1827 C1831 1.408 . S
C1828 C1826 1.363 . S
C1828 C1829 1.370 . S
C1828 C1832 1.524 . S
C1829 C1821 1.503 . S
C1829 C1828 1.370 . S
C1829 C1830 1.403 . S
C1830 C1829 1.403 . S
C1830 C1831 1.404 . S
C1830 C1833 1.539 . S
C1831 C1827 1.408 . S
C1831 C1830 1.404 . S
C1831 H1843 0.930 . S
C1832 C1828 1.524 . S
C1832 H1844 0.956 . S
C1832 H1845 0.961 . S
C1832 H1846 0.961 . S
C1833 C1830 1.539 . S
C1833 H1847 0.958 . S
C1833 H1848 0.961 . S
C1833 H1849 0.960 . S
H1834 C1818 0.931 . S
H1835 C1823 0.929 . S
H1836 C1824 0.960 . S
H1837 C1824 0.962 . S
H1838 C1824 0.960 . S
H1839 C1825 0.961 . S
H1840 C1825 0.961 . S
H1841 C1825 0.961 . S
H1842 C1826 0.931 . S
H1843 C1831 0.930 . S
H1844 C1832 0.956 . S
H1845 C1832 0.961 . S
H1846 C1832 0.961 . S
H1847 C1833 0.958 . S
H1848 C1833 0.961 . S
H1849 C1833 0.960 . S
C1850 C1851 1.391 . S
C1850 C1852 1.394 . S
C1850 H1866 0.931 . S
C1851 C1850 1.391 . S
C1851 C1855 1.376 . S
C1852 C1850 1.394 . S
C1852 C1853 1.369 . S
C1852 C1856 1.531 . S
C1853 C1852 1.369 . S
C1853 C1854 1.410 . S
C1853 C1861 1.503 . S
C1854 C1853 1.410 . S
C1854 C1855 1.392 . S
C1854 C1857 1.511 . S
C1855 C1851 1.376 . S
C1855 C1854 1.392 . S
C1855 H1867 0.929 . S
C1856 C1852 1.531 . S
C1856 H1868 0.960 . S
C1856 H1869 0.962 . S
C1856 H1870 0.960 . S
C1857 C1854 1.511 . S
C1857 H1871 0.961 . S
C1857 H1872 0.961 . S
C1857 H1873 0.961 . S
C1858 C1859 1.370 . S
C1858 C1860 1.363 . S
C1858 H1874 0.931 . S
C1859 C1858 1.370 . S
C1859 C1863 1.408 . S
C1860 C1858 1.363 . S
C1860 C1861 1.370 . S
C1860 C1864 1.524 . S
C1861 C1853 1.503 . S
C1861 C1860 1.370 . S
C1861 C1862 1.403 . S
C1862 C1861 1.403 . S
C1862 C1863 1.404 . S
C1862 C1865 1.539 . S
C1863 C1859 1.408 . S
C1863 C1862 1.404 . S
C1863 H1875 0.930 . S
C1864 C1860 1.524 . S
C1864 H1876 0.956 . S
C1864 H1877 0.961 . S
C1864 H1878 0.961 . S
C1865 C1862 1.539 . S
C1865 H1879 0.958 . S
C1865 H1880 0.961 . S
C1865 H1881 0.960 . S
H1866 C1850 0.931 . S
H1867 C1855 0.929 . S
H1868 C1856 0.960 . S
H1869 C1856 0.962 . S
H1870 C1856 0.960 . S
H1871 C1857 0.961 . S
H1872 C1857 0.961 . S
H1873 C1857 0.961 . S
H1874 C1858 0.931 . S
H1875 C1863 0.930 . S
H1876 C1864 0.956 . S
H1877 C1864 0.961 . S
H1878 C1864 0.961 . S
H1879 C1865 0.958 . S
H1880 C1865 0.961 . S
H1881 C1865 0.960 . S
C355 C171 1.552 . S
C347 C9 1.569 . S
C387 C161 1.341 . S
C379 C22 1.355 . S
C419 C162 0.875 . S
C411 C49 0.886 . S
C443 C61 1.286 . S
C451 C184 1.266 . S
C475 C81 1.328 . S
C483 C187 1.364 . S
C515 C170 0.856 . S
C507 C108 0.888 . S
C539 C122 1.302 . S
C547 C160 1.278 . S
C571 C148 1.559 . S
C579 C178 1.560 . S
C611 C191 2.141 . S
C603 C18 2.117 . S
C635 C39 1.409 . S
C643 C240 1.427 . S
C675 C218 2.232 . S
C667 C58 2.205 . S
C707 C232 0.826 . S
C699 C69 0.859 . S
C731 C89 0.847 . S
C739 C193 0.814 . S
C771 C246 1.282 . S
C763 C102 1.302 . S
C795 C139 1.453 . S
C803 C202 1.414 . S
C827 C142 1.369 . S
C835 C223 1.364 . S
C859 C1 1.397 . S
C867 C249 1.371 . S
C891 C98 1.451 . S
C899 C233 1.411 . S
C931 C192 2.227 . S
C923 C119 2.224 . S
C963 C224 0.847 . S
C955 C128 0.875 . S
C987 C159 2.109 . S
C995 C215 2.144 . S
C1019 C41 1.322 . S
C1027 C222 1.282 . S
C1059 C209 1.422 . S
C1051 C78 1.409 . S
C1083 C28 0.870 . S
C1091 C201 0.820 . S
C1115 C149 1.581 . S
C1123 C264 1.545 . S
C1147 C82 1.360 . S
C1155 C254 1.340 . S
C1187 C255 0.878 . S
C1179 C109 0.868 . S
C1219 C277 1.260 . S
C1211 C121 1.303 . S
C1243 C21 1.385 . S
C1251 C280 1.341 . S
C1283 C263 0.875 . S
C1275 C48 0.863 . S
C1307 C62 1.270 . S
C1315 C253 1.271 . S
C1339 C8 1.573 . S
C1347 C271 1.554 . S
C1371 C158 2.111 . S
C1379 C284 2.149 . S
C1411 C333 1.402 . S
C1403 C99 1.451 . S
C1435 C118 2.182 . S
C1443 C311 2.223 . S
C1467 C129 0.827 . S
C1475 C325 0.808 . S
C1507 C286 0.857 . S
C1499 C29 0.821 . S
C1531 C42 1.349 . S
C1539 C339 1.297 . S
C1571 C295 1.420 . S
C1563 C79 1.442 . S
C1603 C316 1.362 . S
C1595 C2 1.366 . S
C1635 C342 1.350 . S
C1627 C141 1.356 . S
C1659 C38 1.462 . S
C1667 C326 1.403 . S
C1691 C59 2.217 . S
C1699 C285 2.233 . S
C1731 C317 0.858 . S
C1723 C68 0.869 . S
C1755 C19 2.147 . S
C1763 C308 2.156 . S
C1787 C101 1.341 . S
C1795 C315 1.291 . S
C1827 C302 1.422 . S
C1819 C138 1.432 . S
C1859 C294 0.821 . S
C1851 C88 0.869 . S
