# Generated by pormake.
# Topology ocu, (6,8)-cn, num edge types: 1
# Building blocks:
#     Node 0, Type 0, BuildingBlock: CUKXOW_clean_sbu_0, # of connection points: 6
#     Node 1, Type 0, BuildingBlock: CUKXOW_clean_sbu_0, # of connection points: 6
#     Node 2, Type 0, BuildingBlock: CUKXOW_clean_sbu_0, # of connection points: 6
#     Node 3, Type 0, BuildingBlock: CUKXOW_clean_sbu_0, # of connection points: 6
#     Node 4, Type 0, BuildingBlock: CUKXOW_clean_sbu_0, # of connection points: 6
#     Node 5, Type 0, BuildingBlock: CUKXOW_clean_sbu_0, # of connection points: 6
#     Node 6, Type 0, BuildingBlock: CUKXOW_clean_sbu_0, # of connection points: 6
#     Node 7, Type 0, BuildingBlock: CUKXOW_clean_sbu_0, # of connection points: 6
#     Node 8, Type 1, BuildingBlock: VETTIZ_charged_sbu_0, # of connection points: 8
#     Node 9, Type 1, BuildingBlock: VETTIZ_charged_sbu_0, # of connection points: 8
#     Node 10, Type 1, BuildingBlock: VETTIZ_charged_sbu_0, # of connection points: 8
#     Node 11, Type 1, BuildingBlock: VETTIZ_charged_sbu_0, # of connection points: 8
#     Node 12, Type 1, BuildingBlock: VETTIZ_charged_sbu_0, # of connection points: 8
#     Node 13, Type 1, BuildingBlock: VETTIZ_charged_sbu_0, # of connection points: 8
#     Edge 14, Type (0, 1), BuildingBlock: OJICUG_clean_linker_0, # of connection points: 2
#     Edge 15, Type (0, 1), BuildingBlock: OJICUG_clean_linker_0, # of connection points: 2
#     Edge 16, Type (0, 1), BuildingBlock: OJICUG_clean_linker_0, # of connection points: 2
#     Edge 17, Type (0, 1), BuildingBlock: OJICUG_clean_linker_0, # of connection points: 2
#     Edge 18, Type (0, 1), BuildingBlock: OJICUG_clean_linker_0, # of connection points: 2
#     Edge 19, Type (0, 1), BuildingBlock: OJICUG_clean_linker_0, # of connection points: 2
#     Edge 20, Type (0, 1), BuildingBlock: OJICUG_clean_linker_0, # of connection points: 2
#     Edge 21, Type (0, 1), BuildingBlock: OJICUG_clean_linker_0, # of connection points: 2
#     Edge 22, Type (0, 1), BuildingBlock: OJICUG_clean_linker_0, # of connection points: 2
#     Edge 23, Type (0, 1), BuildingBlock: OJICUG_clean_linker_0, # of connection points: 2
#     Edge 24, Type (0, 1), BuildingBlock: OJICUG_clean_linker_0, # of connection points: 2
#     Edge 25, Type (0, 1), BuildingBlock: OJICUG_clean_linker_0, # of connection points: 2
#     Edge 26, Type (0, 1), BuildingBlock: OJICUG_clean_linker_0, # of connection points: 2
#     Edge 27, Type (0, 1), BuildingBlock: OJICUG_clean_linker_0, # of connection points: 2
#     Edge 28, Type (0, 1), BuildingBlock: OJICUG_clean_linker_0, # of connection points: 2
#     Edge 29, Type (0, 1), BuildingBlock: OJICUG_clean_linker_0, # of connection points: 2
#     Edge 30, Type (0, 1), BuildingBlock: OJICUG_clean_linker_0, # of connection points: 2
#     Edge 31, Type (0, 1), BuildingBlock: OJICUG_clean_linker_0, # of connection points: 2
#     Edge 32, Type (0, 1), BuildingBlock: OJICUG_clean_linker_0, # of connection points: 2
#     Edge 33, Type (0, 1), BuildingBlock: OJICUG_clean_linker_0, # of connection points: 2
#     Edge 34, Type (0, 1), BuildingBlock: OJICUG_clean_linker_0, # of connection points: 2
#     Edge 35, Type (0, 1), BuildingBlock: OJICUG_clean_linker_0, # of connection points: 2
#     Edge 36, Type (0, 1), BuildingBlock: OJICUG_clean_linker_0, # of connection points: 2
#     Edge 37, Type (0, 1), BuildingBlock: OJICUG_clean_linker_0, # of connection points: 2
#     Edge 38, Type (0, 1), BuildingBlock: OJICUG_clean_linker_0, # of connection points: 2
#     Edge 39, Type (0, 1), BuildingBlock: OJICUG_clean_linker_0, # of connection points: 2
#     Edge 40, Type (0, 1), BuildingBlock: OJICUG_clean_linker_0, # of connection points: 2
#     Edge 41, Type (0, 1), BuildingBlock: OJICUG_clean_linker_0, # of connection points: 2
#     Edge 42, Type (0, 1), BuildingBlock: OJICUG_clean_linker_0, # of connection points: 2
#     Edge 43, Type (0, 1), BuildingBlock: OJICUG_clean_linker_0, # of connection points: 2
#     Edge 44, Type (0, 1), BuildingBlock: OJICUG_clean_linker_0, # of connection points: 2
#     Edge 45, Type (0, 1), BuildingBlock: OJICUG_clean_linker_0, # of connection points: 2
#     Edge 46, Type (0, 1), BuildingBlock: OJICUG_clean_linker_0, # of connection points: 2
#     Edge 47, Type (0, 1), BuildingBlock: OJICUG_clean_linker_0, # of connection points: 2
#     Edge 48, Type (0, 1), BuildingBlock: OJICUG_clean_linker_0, # of connection points: 2
#     Edge 49, Type (0, 1), BuildingBlock: OJICUG_clean_linker_0, # of connection points: 2
#     Edge 50, Type (0, 1), BuildingBlock: OJICUG_clean_linker_0, # of connection points: 2
#     Edge 51, Type (0, 1), BuildingBlock: OJICUG_clean_linker_0, # of connection points: 2
#     Edge 52, Type (0, 1), BuildingBlock: OJICUG_clean_linker_0, # of connection points: 2
#     Edge 53, Type (0, 1), BuildingBlock: OJICUG_clean_linker_0, # of connection points: 2
#     Edge 54, Type (0, 1), BuildingBlock: OJICUG_clean_linker_0, # of connection points: 2
#     Edge 55, Type (0, 1), BuildingBlock: OJICUG_clean_linker_0, # of connection points: 2
#     Edge 56, Type (0, 1), BuildingBlock: OJICUG_clean_linker_0, # of connection points: 2
#     Edge 57, Type (0, 1), BuildingBlock: OJICUG_clean_linker_0, # of connection points: 2
#     Edge 58, Type (0, 1), BuildingBlock: OJICUG_clean_linker_0, # of connection points: 2
#     Edge 59, Type (0, 1), BuildingBlock: OJICUG_clean_linker_0, # of connection points: 2
#     Edge 60, Type (0, 1), BuildingBlock: OJICUG_clean_linker_0, # of connection points: 2
#     Edge 61, Type (0, 1), BuildingBlock: OJICUG_clean_linker_0, # of connection points: 2
# Relax obj value: 0.103
# Max RMSD: 0.207
# Mean RMSD: 0.123
data_MOF--net-ocu--node1-CUKXOW_clean_sbu_0--node2-VETTIZ_charged_sbu_0--edge1-OJICUG_clean_linker_0
_symmetry_space_group_name_H-M    P1
_symmetry_Int_Tables_number       1
_symmetry_cell_setting            triclinic
loop_
_symmetry_equiv_pos_as_xyz
'x, y, z'
_cell_length_a     27.256397
_cell_length_b     28.471077
_cell_length_c     28.097326
_cell_angle_alpha  92.115972
_cell_angle_beta   91.919164
_cell_angle_gamma 87.554109
loop_
_atom_site_label
_atom_site_type_symbol
_atom_site_fract_x
_atom_site_fract_y
_atom_site_fract_z
_atom_type_partial_charge
Tb0 Tb 0.26237 0.23584 0.22447 0.0
C1 C 0.33128 0.32213 0.19952 0.0
Tb2 Tb 0.27794 0.30749 0.29531 0.0
O3 O 0.1864 0.25575 0.20923 0.0
O4 O 0.23674 0.30721 0.22871 0.0
O5 O 0.31833 0.27798 0.18751 0.0
C6 C 0.27028 0.37695 0.36113 0.0
O7 O 0.31682 0.34203 0.24036 0.0
C8 C 0.3431 0.23576 0.30014 0.0
C9 C 0.19832 0.23345 0.31676 0.0
O10 O 0.2785 0.3329 0.36938 0.0
O11 O 0.26853 0.38149 0.31548 0.0
O12 O 0.35391 0.27935 0.30817 0.0
O13 O 0.29765 0.23521 0.29179 0.0
O14 O 0.213 0.27679 0.3264 0.0
O15 O 0.21597 0.20918 0.27945 0.0
C16 C 0.27145 0.1524 0.18166 0.0
O17 O 0.24721 0.1881 0.16351 0.0
O18 O 0.29379 0.16539 0.22086 0.0
C19 C 0.19184 0.30039 0.21755 0.0
Tb20 Tb 0.73861 0.27684 0.32126 0.0
C21 C 0.72406 0.21108 0.22809 0.0
Tb22 Tb 0.8104 0.27809 0.24216 0.0
O23 O 0.67895 0.32519 0.29484 0.0
O24 O 0.74038 0.3101 0.25523 0.0
O25 O 0.71425 0.2196 0.27353 0.0
C26 C 0.86708 0.30789 0.17546 0.0
O27 O 0.75797 0.23324 0.20624 0.0
C28 C 0.83302 0.21385 0.30695 0.0
C29 C 0.81561 0.35395 0.32664 0.0
O30 O 0.82209 0.29541 0.16884 0.0
O31 O 0.88085 0.30138 0.21937 0.0
O32 O 0.84393 0.20967 0.26228 0.0
O33 O 0.81391 0.2549 0.31381 0.0
O34 O 0.82217 0.34435 0.28082 0.0
O35 O 0.78764 0.32847 0.35247 0.0
C36 C 0.70229 0.23679 0.39477 0.0
O37 O 0.69641 0.2814 0.38625 0.0
O38 O 0.72778 0.21553 0.3618 0.0
C39 C 0.69949 0.33347 0.25497 0.0
Tb40 Tb 0.78135 0.80421 0.22394 0.0
C41 C 0.698 0.72839 0.20408 0.0
Tb42 Tb 0.76364 0.74047 0.29559 0.0
O43 O 0.8532 0.77201 0.20868 0.0
O44 O 0.796 0.73033 0.22691 0.0
O45 O 0.7192 0.76634 0.18942 0.0
C46 C 0.77546 0.66971 0.35491 0.0
O47 O 0.7102 0.71053 0.2457 0.0
C48 C 0.7042 0.81629 0.30076 0.0
C49 C 0.84558 0.81742 0.31611 0.0
O50 O 0.75628 0.71095 0.3659 0.0
O51 O 0.78817 0.669 0.31096 0.0
O52 O 0.69118 0.77401 0.3091 0.0
O53 O 0.74936 0.81383 0.29164 0.0
O54 O 0.82662 0.7777 0.3293 0.0
O55 O 0.8326 0.83582 0.27495 0.0
C56 C 0.76296 0.87608 0.16798 0.0
O57 O 0.78929 0.83854 0.15663 0.0
O58 O 0.74791 0.87276 0.21073 0.0
C59 C 0.84077 0.7291 0.21508 0.0
Tb60 Tb 0.28627 0.80704 0.23207 0.0
C61 C 0.34735 0.81733 0.33093 0.0
Tb62 Tb 0.26276 0.74326 0.31725 0.0
O63 O 0.21925 0.85219 0.2487 0.0
O64 O 0.25649 0.81411 0.30028 0.0
O65 O 0.34052 0.82974 0.28587 0.0
C66 C 0.19951 0.73054 0.38441 0.0
O67 O 0.32081 0.78558 0.35127 0.0
C68 C 0.32154 0.69707 0.25681 0.0
C69 C 0.20426 0.73496 0.21523 0.0
O70 O 0.18933 0.74917 0.34377 0.0
O71 O 0.24581 0.7164 0.38689 0.0
O72 O 0.30789 0.67956 0.29652 0.0
O73 O 0.30178 0.73811 0.25505 0.0
O74 O 0.20643 0.72617 0.26163 0.0
O75 O 0.23544 0.76176 0.19487 0.0
C76 C 0.34106 0.8365 0.16288 0.0
O77 O 0.29921 0.85612 0.17569 0.0
O78 O 0.35192 0.80105 0.18937 0.0
C79 C 0.21839 0.83937 0.29288 0.0
Tb80 Tb 0.22607 0.77154 0.78724 0.0
C81 C 0.22121 0.69506 0.70336 0.0
Tb82 Tb 0.29731 0.77275 0.70725 0.0
O83 O 0.19161 0.83942 0.76677 0.0
O84 O 0.22196 0.79416 0.71531 0.0
O85 O 0.21545 0.70483 0.74926 0.0
C86 C 0.33286 0.81255 0.6332 0.0
O87 O 0.24838 0.72062 0.67683 0.0
C88 C 0.33673 0.71632 0.77344 0.0
C89 C 0.3122 0.8389 0.80031 0.0
O90 O 0.33912 0.76804 0.64204 0.0
O91 O 0.30738 0.83385 0.66616 0.0
O92 O 0.35715 0.72447 0.73347 0.0
O93 O 0.29596 0.73983 0.77331 0.0
O94 O 0.32183 0.83014 0.75483 0.0
O95 O 0.27847 0.81682 0.82252 0.0
C96 C 0.16984 0.74081 0.8539 0.0
O97 O 0.21471 0.7537 0.86052 0.0
O98 O 0.1559 0.74757 0.81007 0.0
C99 C 0.20235 0.83502 0.72206 0.0
Tb100 Tb 0.27066 0.30776 0.73353 0.0
C101 C 0.18921 0.23027 0.71232 0.0
Tb102 Tb 0.25256 0.24378 0.80515 0.0
O103 O 0.34318 0.27459 0.72001 0.0
O104 O 0.28517 0.23444 0.73774 0.0
O105 O 0.20834 0.26994 0.69915 0.0
C106 C 0.27062 0.172 0.86136 0.0
O107 O 0.20163 0.21213 0.75376 0.0
C108 C 0.19334 0.31917 0.81351 0.0
C109 C 0.33582 0.31976 0.82551 0.0
O110 O 0.2445 0.20972 0.87259 0.0
O111 O 0.28552 0.17507 0.81853 0.0
O112 O 0.18062 0.27632 0.81982 0.0
O113 O 0.2382 0.31756 0.80212 0.0
O114 O 0.3145 0.2818 0.84004 0.0
O115 O 0.32394 0.33756 0.78377 0.0
C116 C 0.25841 0.37919 0.67513 0.0
O117 O 0.27798 0.33822 0.66364 0.0
O118 O 0.2455 0.37921 0.71898 0.0
C119 C 0.33034 0.2323 0.72855 0.0
Tb120 Tb 0.77176 0.30411 0.71419 0.0
C121 C 0.83606 0.31101 0.81318 0.0
Tb122 Tb 0.75042 0.24266 0.79626 0.0
O123 O 0.71044 0.35483 0.72792 0.0
O124 O 0.74337 0.31601 0.78285 0.0
O125 O 0.82949 0.32333 0.76791 0.0
C126 C 0.69667 0.21458 0.86678 0.0
O127 O 0.80662 0.28233 0.83339 0.0
C128 C 0.81525 0.20732 0.7342 0.0
C129 C 0.68595 0.23299 0.7 0.0
O130 O 0.73794 0.19423 0.85331 0.0
O131 O 0.6859 0.25008 0.84034 0.0
O132 O 0.81591 0.19597 0.77885 0.0
O133 O 0.77702 0.2325 0.72701 0.0
O134 O 0.69163 0.22314 0.74568 0.0
O135 O 0.71542 0.26122 0.67872 0.0
C136 C 0.83204 0.322 0.64577 0.0
O137 O 0.78766 0.3407 0.64928 0.0
O138 O 0.84246 0.29605 0.6817 0.0
C139 C 0.70701 0.34352 0.77233 0.0
Tb140 Tb 0.75509 0.74186 0.73576 0.0
C141 C 0.83587 0.81489 0.71182 0.0
Tb142 Tb 0.77444 0.81356 0.80558 0.0
O143 O 0.68002 0.77162 0.72308 0.0
O144 O 0.73775 0.81462 0.7388 0.0
O145 O 0.819 0.77232 0.70198 0.0
C146 C 0.76527 0.89729 0.84765 0.0
O147 O 0.82064 0.83916 0.75011 0.0
C148 C 0.84304 0.74756 0.81156 0.0
C149 C 0.70193 0.72987 0.83202 0.0
O150 O 0.79195 0.86261 0.86491 0.0
O151 O 0.74081 0.88302 0.81011 0.0
O152 O 0.85014 0.79211 0.81875 0.0
O153 O 0.7976 0.74159 0.8017 0.0
O154 O 0.72099 0.77142 0.8454 0.0
O155 O 0.71088 0.71077 0.78931 0.0
C156 C 0.76244 0.6712 0.67137 0.0
O157 O 0.75157 0.71468 0.66231 0.0
O158 O 0.7668 0.66782 0.71713 0.0
C159 C 0.69212 0.8149 0.73074 0.0
Fe160 Fe 1.01393 0.08055 0.51509 0.0
O161 O 0.97839 0.02651 0.54097 0.0
Fe162 Fe 0.12875 0.0253 0.49191 0.0
Fe163 Fe 0.90604 1.02197 0.53611 0.0
O164 O 0.05598 0.0272 0.48681 0.0
O165 O 0.05643 1.02081 0.48718 0.0
O166 O 0.97884 1.02007 0.54134 0.0
Fe167 Fe 0.02082 0.96675 0.51287 0.0
C168 C 0.92988 0.11687 0.58451 0.0
O169 O 0.96856 0.0821 0.4539 0.0
O170 O 0.89562 0.07408 0.48505 0.0
O171 O 0.07117 0.91998 0.47359 0.0
O172 O 0.12525 0.97052 0.44237 0.0
O173 O 0.11869 0.07927 0.44473 0.0
O174 O 0.05929 0.12896 0.479 0.0
O175 O 0.90274 0.96845 0.4839 0.0
O176 O 0.97614 0.96316 0.45182 0.0
C177 C 0.09462 0.11955 0.44847 0.0
O178 O 0.06619 0.96495 0.57406 0.0
O179 O 0.13919 0.97331 0.54307 0.0
O180 O 0.96341 0.1273 0.55416 0.0
O181 O 0.90949 0.0767 0.58558 0.0
C182 C 0.92209 0.0898 0.45297 0.0
C183 C 0.9313 0.95245 0.45164 0.0
C184 C 0.93993 0.92755 0.57925 0.0
O185 O 0.91599 0.96787 0.58321 0.0
O186 O 0.97532 0.91826 0.54875 0.0
C187 C 0.10467 0.93042 0.44321 0.0
O188 O 0.13213 0.07891 0.54413 0.0
O189 O 0.05868 0.08454 0.57616 0.0
C190 C 0.11271 0.95758 0.57513 0.0
C191 C 0.10358 0.09512 0.57634 0.0
Fe192 Fe 0.54739 0.93123 0.95924 0.0
O193 O 0.53067 0.99728 0.97567 0.0
Fe194 Fe 0.46534 1.01386 1.00699 0.0
Fe195 Fe 0.57092 0.03706 0.0206 0.0
O196 O 0.52714 0.99675 0.97461 0.0
O197 O 0.50559 0.05364 0.05189 0.0
O198 O 0.50911 0.05417 0.05295 0.0
Fe199 Fe 0.48881 0.11963 0.06844 0.0
C200 C 0.60805 0.94623 0.05211 0.0
O201 O 0.60185 0.9635 0.92382 0.0
O202 O 0.63106 1.01579 0.98221 0.0
O203 O 0.43555 0.12564 0.01572 0.0
O204 O 0.45275 0.06798 0.96272 0.0
O205 O 0.42929 0.97017 0.95652 0.0
O206 O 0.49036 0.93754 0.90946 0.0
O207 O 0.55898 0.09037 0.97544 0.0
O208 O 0.54085 0.14947 0.02611 0.0
C209 C 0.44456 0.94756 0.91833 0.0
O210 O 0.43449 0.08721 0.10388 0.0
O211 O 0.40523 0.03503 0.04541 0.0
O212 O 0.60056 0.92521 1.01202 0.0
O213 O 0.58348 0.983 0.06493 0.0
C214 C 0.63392 0.99254 0.94199 0.0
C215 C 0.56135 0.13311 0.9884 0.0
C216 C 0.59168 0.10326 0.10928 0.0
O217 O 0.60696 0.08071 0.07108 0.0
O218 O 0.54588 0.11329 0.11817 0.0
C219 C 0.42796 0.10458 0.97566 0.0
O220 O 0.4773 0.96065 0.05223 0.0
O221 O 0.4953 0.90145 1.00167 0.0
C222 C 0.40249 0.05808 0.08575 0.0
C223 C 0.47496 0.91787 0.03945 0.0
Fe224 Fe 1.01614 0.57975 0.01476 0.0
O225 O 0.97768 0.52685 0.9866 0.0
Fe226 Fe 0.12997 0.52311 0.04019 0.0
Fe227 Fe 0.90601 0.52512 0.98896 0.0
O228 O 0.05734 0.52718 0.04371 0.0
O229 O 0.05831 0.52175 0.04255 0.0
O230 O 0.9786 0.52143 0.98553 0.0
Fe231 Fe 0.01982 0.46889 1.01442 0.0
C232 C 0.92702 0.59357 0.07629 0.0
O233 O 0.96795 0.62694 0.97583 0.0
O234 O 0.90969 0.57808 0.94275 0.0
O235 O 0.06222 0.46159 0.95459 0.0
O236 O 0.13727 0.47102 0.98585 0.0
O237 O 0.13244 0.57458 0.9918 0.0
O238 O 0.05888 0.57686 0.9561 0.0
O239 O 0.91493 0.47025 0.94 0.0
O240 O 0.97283 0.42121 0.97779 0.0
C241 C 0.10299 0.58932 0.95923 0.0
O242 O 0.06787 0.42154 0.05316 0.0
O243 O 0.12612 0.47019 0.08653 0.0
O244 O 0.97349 0.58719 0.07453 0.0
O245 O 0.89849 0.57713 0.04332 0.0
C246 C 0.93283 0.61681 0.94445 0.0
C247 C 0.93936 0.43038 0.94453 0.0
C248 C 0.93326 0.45916 0.06996 0.0
O249 O 0.90377 0.47361 0.0373 0.0
O250 O 0.97724 0.47189 0.0731 0.0
C251 C 0.10862 0.45489 0.95282 0.0
O252 O 0.12132 0.57803 0.08905 0.0
O253 O 0.06335 0.62729 0.05149 0.0
C254 C 0.10285 0.43152 0.0847 0.0
C255 C 0.09707 0.61799 0.08453 0.0
Fe256 Fe 0.51767 0.52684 0.95566 0.0
O257 O 0.55976 0.50114 1.01004 0.0
Fe258 Fe 0.40359 0.54265 1.01314 0.0
Fe259 Fe 0.63133 0.50762 0.01556 0.0
O260 O 0.47603 0.55078 1.01078 0.0
O261 O 0.47513 0.5482 0.01765 0.0
O262 O 0.55892 0.49864 0.01682 0.0
Fe263 Fe 0.51657 0.52143 0.07179 0.0
C264 C 0.60659 0.46331 0.9164 0.0
O265 O 0.55693 0.58951 0.9533 0.0
O266 O 0.63334 0.56097 0.96564 0.0
O267 O 0.46512 0.55548 0.12023 0.0
O268 O 0.40678 0.59076 0.06984 0.0
O269 O 0.40366 0.58959 0.95759 0.0
O270 O 0.46469 0.56079 0.90787 0.0
O271 O 0.63204 0.55925 0.06908 0.0
O272 O 0.55409 0.5837 0.07925 0.0
C273 C 0.42552 0.58801 0.917 0.0
O274 O 0.47663 0.45847 0.07216 0.0
O275 O 0.40181 0.49176 0.06527 0.0
O276 O 0.56872 0.49232 0.90728 0.0
O277 O 0.62931 0.4607 0.95774 0.0
C278 C 0.60352 0.59275 0.94917 0.0
C279 C 0.60015 0.58954 0.0844 0.0
C280 C 0.60895 0.46004 0.1103 0.0
O281 O 0.63108 0.45915 0.06984 0.0
O282 O 0.56935 0.48674 0.11941 0.0
C283 C 0.42856 0.58613 0.11141 0.0
O284 O 0.40207 0.48938 0.96107 0.0
O285 O 0.47986 0.46467 0.94973 0.0
C286 C 0.43029 0.45796 0.07954 0.0
C287 C 0.43368 0.45894 0.94533 0.0
Fe288 Fe 0.02894 0.47469 0.5013 0.0
O289 O 0.99507 0.51013 0.55398 0.0
Fe290 Fe 0.02627 0.55235 0.40992 0.0
Fe291 Fe 1.00825 0.49959 0.62197 0.0
O292 O 0.03993 0.53788 0.47683 0.0
O293 O 0.0393 0.54193 0.47794 0.0
O294 O 0.99449 0.51411 0.55508 0.0
Fe295 Fe 1.00515 0.57731 0.5305 0.0
C296 C 0.98214 0.40798 0.56859 0.0
O297 O 0.0953 0.47643 0.53736 0.0
O298 O 0.07402 0.46402 0.61185 0.0
O299 O 0.023 0.63979 0.499 0.0
O300 O 0.05908 0.6138 0.42883 0.0
O301 O 0.08896 0.51157 0.4031 0.0
O302 O 0.06827 0.44682 0.44377 0.0
O303 O 0.04617 0.55945 0.63777 0.0
O304 O 0.071 0.58072 0.56766 0.0
C305 C 0.09809 0.46971 0.41874 0.0
O306 O 0.93889 0.57514 0.49433 0.0
O307 O 0.96036 0.58771 0.41991 0.0
O308 O 1.0105 0.41235 0.53276 0.0
O309 O 0.97505 0.43865 0.60311 0.0
C310 C 0.10598 0.46709 0.58029 0.0
C311 C 0.07715 0.5784 0.61249 0.0
C312 C 0.93603 0.58197 0.61322 0.0
O313 O 0.9457 0.54028 0.629 0.0
O314 O 0.96547 0.60509 0.58795 0.0
C315 C 0.05087 0.64475 0.46293 0.0
O316 O 0.98832 0.49228 0.39389 0.0
O317 O 0.96319 0.47147 0.46405 0.0
C318 C 0.92831 0.58435 0.45134 0.0
C319 C 0.9576 0.47277 0.41909 0.0
Fe320 Fe 0.56968 0.92492 0.51284 0.0
O321 O 0.55507 0.99304 0.51882 0.0
Fe322 Fe 0.52199 0.02645 0.4594 0.0
Fe323 Fe 0.51349 1.02304 0.57023 0.0
O324 O 0.555 0.99271 0.51367 0.0
O325 O 0.48056 0.05653 0.51084 0.0
O326 O 0.48058 0.05683 0.51596 0.0
Fe327 Fe 0.46573 0.12457 0.51686 0.0
C328 C 0.47192 0.92752 0.5595 0.0
O329 O 0.61121 0.93883 0.57408 0.0
O330 O 0.55436 0.98053 0.62012 0.0
O331 O 0.52039 0.14041 0.47262 0.0
O332 O 0.5722 0.07769 0.46953 0.0
O333 O 0.57031 0.98715 0.41233 0.0
O334 O 0.61922 0.94128 0.46246 0.0
O335 O 0.56338 0.07451 0.58173 0.0
O336 O 0.5136 0.13852 0.57341 0.0
C337 C 0.60754 0.95751 0.42083 0.0
O338 O 0.42437 0.11073 0.45554 0.0
O339 O 0.48118 0.06903 0.40949 0.0
O340 O 0.5152 0.90924 0.55733 0.0
O341 O 0.4633 0.97182 0.55983 0.0
C342 C 0.59371 0.9529 0.61486 0.0
C343 C 0.55382 0.1185 0.5877 0.0
C344 C 0.42768 0.09163 0.60865 0.0
O345 O 0.46498 0.06211 0.61721 0.0
O346 O 0.41609 0.10797 0.56705 0.0
C347 C 0.56359 0.12202 0.4699 0.0
O348 O 0.47194 0.97508 0.44829 0.0
O349 O 0.5215 0.91093 0.45644 0.0
C350 C 0.44201 0.09689 0.41477 0.0
C351 C 0.48119 0.93102 0.44246 0.0
C352 C 0.14526 0.1657 0.33504 0.0
C353 C 0.16433 0.20943 0.34938 0.0
H354 H 0.10757 0.10486 0.35398 0.0
C355 C 0.1536 0.2268 0.39601 0.0
H356 H 0.15202 0.15073 0.29976 0.0
C357 C 0.12722 0.19996 0.42773 0.0
C358 C 0.11054 0.15505 0.41367 0.0
H359 H 0.1676 0.26013 0.40884 0.0
H360 H 0.12256 0.21311 0.46402 0.0
C361 C 0.11918 0.13927 0.36635 0.0
C362 C 0.89161 0.1472 0.33309 0.0
C363 C 0.85504 0.18202 0.34477 0.0
H364 H 0.94195 0.09202 0.35746 0.0
C365 C 0.84077 0.18581 0.39257 0.0
H366 H 0.90404 0.14316 0.29691 0.0
C367 C 0.86131 0.15503 0.42703 0.0
C368 C 0.89833 0.12069 0.41536 0.0
H369 H 0.81375 0.21261 0.40353 0.0
H370 H 0.84914 0.15904 0.46332 0.0
C371 C 0.91348 0.11769 0.36789 0.0
C372 C 0.90717 0.87961 0.33668 0.0
C373 C 0.87365 0.84711 0.35149 0.0
H374 H 0.95268 0.93771 0.35668 0.0
C375 C 0.86126 0.84854 0.39969 0.0
H376 H 0.91709 0.8798 0.29968 0.0
C377 C 0.88002 0.88281 0.4317 0.0
C378 C 0.91277 0.9159 0.41682 0.0
H379 H 0.83498 0.82471 0.41223 0.0
H380 H 0.86866 0.88352 0.46832 0.0
C381 C 0.92728 0.91302 0.36919 0.0
C382 C 0.19647 0.84961 0.3797 0.0
C383 C 0.1841 0.85712 0.33126 0.0
H384 H 0.1796 0.86462 0.45316 0.0
C385 C 0.14005 0.88285 0.32088 0.0
H386 H 0.23038 0.83059 0.3894 0.0
C387 C 0.11058 0.90208 0.35785 0.0
C388 C 0.12382 0.89571 0.4063 0.0
H389 H 0.12928 0.88963 0.28425 0.0
H390 H 0.0789 0.92459 0.34858 0.0
C391 C 0.16685 0.86847 0.41651 0.0
C392 C 0.1942 0.8622 0.63621 0.0
C393 C 0.18017 0.86652 0.68406 0.0
H394 H 0.1855 0.88821 0.56518 0.0
C395 C 0.14367 0.90145 0.69556 0.0
H396 H 0.22112 0.83526 0.62539 0.0
C397 C 0.12163 0.93059 0.66051 0.0
C398 C 0.13657 0.92707 0.61298 0.0
H399 H 0.13141 0.90587 0.73177 0.0
H400 H 0.09321 0.95638 0.67079 0.0
C401 C 0.17352 0.89261 0.6015 0.0
C402 C 0.17444 0.19849 0.62873 0.0
C403 C 0.16143 0.20039 0.67677 0.0
H404 H 0.16751 0.16322 0.56018 0.0
C405 C 0.12739 0.16826 0.69134 0.0
H406 H 0.20114 0.222 0.61636 0.0
C407 C 0.1073 0.13487 0.65875 0.0
C408 C 0.12231 0.13158 0.61128 0.0
H409 H 0.11697 0.1684 0.72821 0.0
H410 H 0.08142 0.11054 0.6711 0.0
C411 C 0.15569 0.16423 0.59666 0.0
C412 C 0.89394 0.16468 0.70636 0.0
C413 C 0.84939 0.18949 0.69579 0.0
H414 H 0.95588 0.12393 0.67896 0.0
C415 C 0.83684 0.19657 0.64733 0.0
H416 H 0.90492 0.15839 0.74305 0.0
C417 C 0.86679 0.17802 0.61065 0.0
C418 C 0.91036 0.15165 0.62107 0.0
H419 H 0.80268 0.21512 0.63753 0.0
H420 H 0.85398 0.18142 0.57396 0.0
C421 C 0.92377 0.14581 0.66955 0.0
C422 C 0.89116 0.8809 0.69323 0.0
C423 C 0.86985 0.83824 0.6786 0.0
H424 H 0.93064 0.94071 0.67437 0.0
C425 C 0.87848 0.82149 0.63133 0.0
H426 H 0.88607 0.89538 0.729 0.0
C427 C 0.90501 0.84799 0.5994 0.0
C428 C 0.92399 0.89189 0.61388 0.0
H429 H 0.86274 0.78902 0.61824 0.0
H430 H 0.908 0.83548 0.56271 0.0
C431 C 0.91736 0.907 0.66171 0.0
C432 C 0.27928 0.10533 0.1074 0.0
C433 C 0.28387 0.10811 0.1571 0.0
H434 H 0.31638 0.08412 0.04401 0.0
C435 C 0.31617 0.07674 0.18126 0.0
H436 H 0.25348 0.12839 0.08832 0.0
C437 C 0.35324 0.0532 0.15629 0.0
C438 C 0.3553 0.05927 0.1074 0.0
H439 H 0.31861 0.07719 0.21987 0.0
H440 H 0.38348 0.0359 0.17572 0.0
C441 C 0.31539 0.08028 0.0822 0.0
C442 C 0.86479 0.35388 0.10297 0.0
C443 C 0.89002 0.34042 0.14476 0.0
H444 H 0.85796 0.40255 0.04743 0.0
C445 C 0.93164 0.36456 0.16096 0.0
H446 H 0.83254 0.33587 0.08982 0.0
C447 C 0.94631 0.40333 0.13669 0.0
C448 C 0.91905 0.41855 0.09644 0.0
H449 H 0.95144 0.35486 0.19344 0.0
H450 H 0.978 0.42204 0.15008 0.0
C451 C 0.87893 0.39269 0.07922 0.0
C452 C 0.7035 0.94065 0.15137 0.0
C453 C 0.73517 0.90444 0.13385 0.0
H454 H 0.63695 0.98129 0.13963 0.0
C455 C 0.72866 0.8865 0.08716 0.0
H456 H 0.70821 0.95495 0.18745 0.0
C457 C 0.68726 0.90047 0.06036 0.0
C458 C 0.65254 0.93307 0.07978 0.0
H459 H 0.75277 0.8585 0.07305 0.0
H460 H 0.68172 0.88446 0.02511 0.0
C461 C 0.66224 0.95487 0.12449 0.0
C462 C 0.16035 0.72358 0.13582 0.0
C463 C 0.16778 0.71091 0.18369 0.0
H464 H 0.13034 0.70429 0.06644 0.0
C465 C 0.14343 0.6723 0.19968 0.0
H466 H 0.17811 0.75352 0.12245 0.0
C467 C 0.11615 0.64443 0.16758 0.0
C468 C 0.11199 0.65504 0.11913 0.0
H469 H 0.14799 0.66171 0.23625 0.0
H470 H 0.10081 0.61278 0.18004 0.0
C471 C 0.13248 0.69589 0.10378 0.0
C472 C 0.38755 0.88578 0.81027 0.0
C473 C 0.34279 0.87243 0.82801 0.0
H474 H 0.45484 0.92033 0.82492 0.0
C475 C 0.32938 0.88881 0.87374 0.0
H476 H 0.3989 0.87395 0.77508 0.0
C477 C 0.36125 0.91595 0.9021 0.0
C478 C 0.40742 0.92661 0.88549 0.0
H479 H 0.29491 0.87951 0.88823 0.0
H480 H 0.35076 0.92636 0.93794 0.0
C481 C 0.41968 0.91232 0.83884 0.0
C482 C 0.20025 0.39161 0.86846 0.0
C483 C 0.17084 0.35868 0.84356 0.0
H484 H 0.20427 0.44708 0.92245 0.0
C485 C 0.12029 0.36016 0.85262 0.0
H486 H 0.23942 0.39129 0.86298 0.0
C487 C 0.09991 0.39268 0.88627 0.0
C488 C 0.12964 0.42417 0.91292 0.0
H489 H 0.09658 0.33517 0.83449 0.0
H490 H 0.06103 0.39174 0.89281 0.0
C491 C 0.18007 0.42351 0.90292 0.0
C492 C 0.61922 0.22165 0.91282 0.0
C493 C 0.66451 0.19793 0.90327 0.0
H494 H 0.55046 0.22 0.94838 0.0
C495 C 0.67742 0.15652 0.92676 0.0
H496 H 0.60859 0.25396 0.89528 0.0
C497 C 0.64453 0.13757 0.95696 0.0
C498 C 0.59806 0.15958 0.9644 0.0
H499 H 0.71215 0.13776 0.92042 0.0
H500 H 0.6548 0.10458 0.9733 0.0
C501 C 0.58613 0.2026 0.94336 0.0
C502 C 0.9093 0.72811 0.87352 0.0
C503 C 0.87298 0.71317 0.83981 0.0
H504 H 0.95667 0.7099 0.9336 0.0
C505 C 0.86079 0.66601 0.83812 0.0
H506 H 0.91965 0.76445 0.87568 0.0
C507 C 0.882 0.63507 0.87095 0.0
C508 C 0.91577 0.65036 0.9071 0.0
H509 H 0.83331 0.65336 0.81255 0.0
H510 H 0.87037 0.59914 0.86858 0.0
C511 C 0.93041 0.69701 0.90698 0.0
C512 C 0.17325 0.38211 0.19184 0.0
C513 C 0.16181 0.33472 0.18929 0.0
H514 H 0.16332 0.44929 0.16201 0.0
C515 C 0.12636 0.31968 0.15476 0.0
H516 H 0.20007 0.39484 0.21805 0.0
C517 C 0.10544 0.35094 0.12135 0.0
C518 C 0.11946 0.39784 0.12208 0.0
H519 H 0.11661 0.28318 0.15193 0.0
H520 H 0.07992 0.338 0.09407 0.0
C521 C 0.15225 0.41319 0.15903 0.0
C522 C 0.17279 0.69371 0.92575 0.0
C523 C 0.14715 0.70788 0.88442 0.0
H524 H 0.17965 0.64459 0.98089 0.0
C525 C 0.10506 0.68429 0.86852 0.0
H526 H 0.20543 0.71123 0.93864 0.0
C527 C 0.09014 0.64555 0.89273 0.0
C528 C 0.11763 0.62975 0.93262 0.0
H529 H 0.08495 0.6945 0.83638 0.0
H530 H 0.058 0.62738 0.87961 0.0
C531 C 0.15841 0.65492 0.94943 0.0
C532 C 0.30623 0.16295 0.94185 0.0
C533 C 0.29888 0.14414 0.8956 0.0
H534 H 0.35446 0.16649 1.00291 0.0
C535 C 0.3304 0.10777 0.87816 0.0
H536 H 0.28225 0.19109 0.95591 0.0
C537 C 0.37235 0.09434 0.90447 0.0
C538 C 0.38286 0.11705 0.94856 0.0
H539 H 0.32505 0.09279 0.84243 0.0
H540 H 0.39747 0.06778 0.88932 0.0
C541 C 0.34831 0.14977 0.96808 0.0
C542 C 0.89425 0.37581 0.82889 0.0
C543 C 0.87253 0.33549 0.84436 0.0
H544 H 0.93335 0.43738 0.84922 0.0
C545 C 0.88149 0.32215 0.89184 0.0
H546 H 0.88851 0.38698 0.79262 0.0
C547 C 0.90794 0.35084 0.92416 0.0
C548 C 0.92541 0.39333 0.90946 0.0
H549 H 0.86573 0.29095 0.9048 0.0
H550 H 0.91122 0.34173 0.96128 0.0
C551 C 0.92009 0.40462 0.86125 0.0
C552 C 0.75741 0.94493 0.9215 0.0
C553 C 0.75327 0.9419 0.87178 0.0
H554 H 0.71968 0.96643 0.98446 0.0
C555 C 0.72116 0.97313 0.84722 0.0
H556 H 0.78298 0.92191 0.94089 0.0
C557 C 0.68382 0.99676 0.87175 0.0
C558 C 0.68132 0.99097 0.92064 0.0
H559 H 0.71905 0.97241 0.80859 0.0
H560 H 0.65376 1.01395 0.85197 0.0
C561 C 0.72102 0.97008 0.94627 0.0
C562 C 0.83462 0.65638 0.16031 0.0
C563 C 0.86365 0.68964 0.18517 0.0
H564 H 0.83126 0.60069 0.10649 0.0
C565 C 0.91423 0.68854 0.17623 0.0
H566 H 0.79544 0.65641 0.16568 0.0
C567 C 0.93499 0.65607 0.14273 0.0
C568 C 0.90566 0.62423 0.11611 0.0
H569 H 0.93766 0.71378 0.19432 0.0
H570 H 0.97387 0.65732 0.13627 0.0
C571 C 0.8552 0.62452 0.126 0.0
C572 C 0.41843 0.82975 0.1166 0.0
C573 C 0.37309 0.8533 0.12631 0.0
H574 H 0.48677 0.8314 0.08029 0.0
C575 C 0.35973 0.89445 0.10253 0.0
H576 H 0.42939 0.79764 0.13432 0.0
C577 C 0.39217 0.91326 0.07176 0.0
C578 C 0.43865 0.89138 0.06401 0.0
H579 H 0.32495 0.91307 0.10898 0.0
H580 H 0.38154 0.94605 0.0552 0.0
C581 C 0.45107 0.84866 0.08547 0.0
C582 C 0.7068 0.16188 0.15418 0.0
C583 C 0.69346 0.17781 0.20007 0.0
H584 H 0.68535 0.12488 0.08968 0.0
C585 C 0.64873 0.16427 0.21773 0.0
H586 H 0.74123 0.17137 0.13974 0.0
C587 C 0.61659 0.13794 0.18896 0.0
C588 C 0.62881 0.12407 0.14221 0.0
H589 H 0.63742 0.17576 0.25302 0.0
H590 H 0.58147 0.12975 0.20285 0.0
C591 C 0.67492 0.13496 0.12563 0.0
C592 C 0.6938 0.68555 0.90956 0.0
C593 C 0.67297 0.70104 0.86584 0.0
H594 H 0.68958 0.63978 0.96887 0.0
C595 C 0.62714 0.6824 0.85157 0.0
H596 H 0.72938 0.69766 0.92168 0.0
C597 C 0.60324 0.65001 0.87965 0.0
C598 C 0.62503 0.63303 0.92243 0.0
H599 H 0.60995 0.69229 0.8179 0.0
H600 H 0.56866 0.63639 0.86645 0.0
C601 C 0.67082 0.65183 0.93672 0.0
C602 C 0.33552 0.67576 0.85313 0.0
C603 C 0.35851 0.68315 0.81019 0.0
H604 H 0.33787 0.64079 0.91952 0.0
C605 C 0.40378 0.6583 0.80225 0.0
H606 H 0.30081 0.69393 0.86076 0.0
C607 C 0.4254 0.62731 0.83601 0.0
C608 C 0.40268 0.62009 0.8793 0.0
H609 H 0.42284 0.66289 0.76964 0.0
H610 H 0.46022 0.60938 0.8283 0.0
C611 C 0.35718 0.64498 0.88699 0.0
C612 C 0.35255 0.35802 0.90612 0.0
C613 C 0.36734 0.34798 0.85921 0.0
H614 H 0.36145 0.40155 0.96979 0.0
C615 C 0.40772 0.37136 0.84286 0.0
H616 H 0.32104 0.34135 0.9195 0.0
C617 C 0.43184 0.40488 0.87223 0.0
C618 C 0.41494 0.41711 0.91797 0.0
H619 H 0.41962 0.36483 0.80673 0.0
H620 H 0.46171 0.42339 0.858 0.0
C621 C 0.37551 0.39272 0.93482 0.0
C622 C 0.64301 0.40783 0.79453 0.0
C623 C 0.67763 0.37203 0.8082 0.0
H624 H 0.59299 0.4646 0.8172 0.0
C625 C 0.68582 0.36518 0.85703 0.0
H626 H 0.6357 0.41413 0.75714 0.0
C627 C 0.66139 0.39377 0.89117 0.0
C628 C 0.62785 0.43073 0.87803 0.0
H629 H 0.71217 0.3383 0.86913 0.0
H630 H 0.66976 0.38715 0.92834 0.0
C631 C 0.61834 0.43676 0.82899 0.0
C632 C 0.63202 0.39096 0.22581 0.0
C633 C 0.67731 0.36614 0.21785 0.0
H634 H 0.57519 0.4394 0.19962 0.0
C635 C 0.69976 0.37296 0.17447 0.0
H636 H 0.61332 0.38682 0.25871 0.0
C637 C 0.67761 0.40318 0.14029 0.0
C638 C 0.63211 0.42809 0.14806 0.0
H639 H 0.73444 0.35477 0.16675 0.0
H640 H 0.69655 0.40697 0.10748 0.0
C641 C 0.60992 0.42139 0.19174 0.0
C642 C 0.62649 0.67624 0.18736 0.0
C643 C 0.6662 0.70031 0.1706 0.0
H644 H 0.57303 0.62364 0.17251 0.0
C645 C 0.68016 0.69114 0.12332 0.0
H646 H 0.61524 0.68214 0.22379 0.0
C647 C 0.65715 0.65652 0.09461 0.0
C648 C 0.61847 0.6314 0.11186 0.0
H649 H 0.71115 0.70836 0.10959 0.0
H650 H 0.67066 0.64827 0.05932 0.0
C651 C 0.60228 0.64278 0.15801 0.0
C652 C 0.38182 0.63085 0.23308 0.0
C653 C 0.35348 0.67164 0.22094 0.0
H654 H 0.42863 0.57232 0.20891 0.0
C655 C 0.35344 0.68554 0.17359 0.0
H656 H 0.38253 0.61895 0.26928 0.0
C657 C 0.37971 0.65884 0.13911 0.0
C658 C 0.40705 0.61719 0.15067 0.0
H659 H 0.33132 0.71593 0.16258 0.0
H660 H 0.37744 0.67034 0.10275 0.0
C661 C 0.40857 0.60417 0.19853 0.0
C662 C 0.39823 0.33963 0.13798 0.0
C663 C 0.35746 0.35385 0.16602 0.0
H664 H 0.45426 0.36014 0.09022 0.0
C665 C 0.3425 0.40194 0.16474 0.0
H666 H 0.4117 0.30331 0.13791 0.0
C667 C 0.36616 0.4341 0.13697 0.0
C668 C 0.40734 0.42075 0.10952 0.0
H669 H 0.31164 0.41509 0.18539 0.0
H670 H 0.35221 0.47032 0.13769 0.0
C671 C 0.42313 0.37259 0.11079 0.0
C672 C 0.82371 0.66358 0.60961 0.0
C673 C 0.79373 0.64151 0.64096 0.0
H674 H 0.89409 0.66325 0.57845 0.0
C675 C 0.80711 0.59654 0.65642 0.0
H676 H 0.81396 0.69843 0.59715 0.0
C677 C 0.85323 0.57686 0.64659 0.0
C678 C 0.88628 0.60182 0.62074 0.0
H679 H 0.7843 0.57902 0.68058 0.0
H680 H 0.8637 0.5432 0.66149 0.0
C681 C 0.87016 0.6441 0.60007 0.0
C682 C 0.40537 0.81834 0.58364 0.0
C683 C 0.36127 0.83828 0.60061 0.0
H684 H 0.47569 0.83158 0.55715 0.0
C685 C 0.35001 0.88641 0.59557 0.0
H686 H 0.41451 0.78118 0.58699 0.0
C687 C 0.38505 0.91542 0.57917 0.0
C688 C 0.43167 0.89645 0.56772 0.0
H689 H 0.31567 0.90227 0.60797 0.0
H690 H 0.37669 0.95295 0.57859 0.0
C691 C 0.44053 0.84736 0.56727 0.0
C692 C 0.21552 0.45479 0.66071 0.0
C693 C 0.23669 0.41279 0.6417 0.0
H694 H 0.15555 0.50516 0.65525 0.0
C695 C 0.22348 0.39733 0.59519 0.0
H696 H 0.22575 0.46759 0.69633 0.0
C697 C 0.18337 0.41918 0.57146 0.0
C698 C 0.15696 0.45623 0.59445 0.0
H699 H 0.23959 0.36501 0.57988 0.0
H700 H 0.16958 0.40358 0.53822 0.0
C701 C 0.17529 0.47614 0.63739 0.0
C702 C 0.64492 0.15775 0.68297 0.0
C703 C 0.6519 0.20442 0.67076 0.0
H704 H 0.6093 0.09352 0.66528 0.0
C705 C 0.62771 0.22219 0.63002 0.0
H706 H 0.66381 0.14293 0.71384 0.0
C707 C 0.59575 0.19406 0.60276 0.0
C708 C 0.58895 0.14739 0.61506 0.0
H709 H 0.63285 0.25791 0.61978 0.0
H710 H 0.57659 0.20862 0.57192 0.0
C711 C 0.61422 0.12929 0.655 0.0
C712 C 0.87818 0.41506 0.32292 0.0
C713 C 0.84583 0.3905 0.34999 0.0
H714 H 0.9389 0.46009 0.32342 0.0
C715 C 0.84715 0.39732 0.39971 0.0
H716 H 0.87788 0.41108 0.28442 0.0
C717 C 0.88223 0.42571 0.42199 0.0
C718 C 0.91691 0.44741 0.39519 0.0
H719 H 0.82252 0.37926 0.42159 0.0
H720 H 0.88305 0.42954 0.46028 0.0
C721 C 0.9134 0.44312 0.34529 0.0
C722 C 0.62779 0.8638 0.3239 0.0
C723 C 0.67935 0.85877 0.32374 0.0
H724 H 0.56459 0.90103 0.35292 0.0
C725 C 0.70684 0.89214 0.35016 0.0
H726 H 0.60557 0.8386 0.30419 0.0
C727 C 0.68336 0.92729 0.3789 0.0
C728 C 0.63178 0.93124 0.38048 0.0
H729 H 0.74662 0.8891 0.35126 0.0
H730 H 0.7056 0.94988 0.40186 0.0
C731 C 0.6043 0.89996 0.3514 0.0
C732 C 0.17149 0.6924 0.45639 0.0
C733 C 0.16167 0.72236 0.41865 0.0
H734 H 0.14061 0.64493 0.50273 0.0
C735 C 0.11307 0.73873 0.40882 0.0
H736 H 0.20869 0.67974 0.46489 0.0
C737 C 0.07415 0.71913 0.43098 0.0
C738 C 0.0838 0.6837 0.46356 0.0
H739 H 0.10474 0.76289 0.38046 0.0
H740 H 0.03691 0.72707 0.41808 0.0
C741 C 0.13251 0.67333 0.47893 0.0
C742 C 0.34734 0.15479 0.33311 0.0
C743 C 0.3717 0.19508 0.3207 0.0
H744 H 0.35086 0.09144 0.37263 0.0
C745 C 0.4221 0.1975 0.33234 0.0
H746 H 0.30849 0.15171 0.32478 0.0
C747 C 0.44676 0.16187 0.35838 0.0
C748 C 0.42135 0.12351 0.37389 0.0
H749 H 0.4419 0.22796 0.32329 0.0
H750 H 0.48472 0.16631 0.36974 0.0
C751 C 0.37166 0.11987 0.36009 0.0
C752 C 0.68922 0.89493 0.69566 0.0
C753 C 0.66414 0.85582 0.71 0.0
H754 H 0.68622 0.95699 0.65418 0.0
C755 C 0.61334 0.85446 0.69992 0.0
H756 H 0.72837 0.89715 0.70279 0.0
C757 C 0.58887 0.88988 0.67348 0.0
C758 C 0.61487 0.92689 0.65594 0.0
H759 H 0.593 0.8249 0.71049 0.0
H760 H 0.55047 0.88617 0.66337 0.0
C761 C 0.66504 0.92959 0.66822 0.0
C762 C 0.62988 0.23105 0.44453 0.0
C763 C 0.67385 0.21105 0.42732 0.0
H764 H 0.55982 0.21797 0.47167 0.0
C765 C 0.6851 0.16291 0.43238 0.0
H766 H 0.62075 0.26822 0.44114 0.0
C767 C 0.65021 0.13399 0.44921 0.0
C768 C 0.60373 0.15303 0.46106 0.0
H769 H 0.71933 0.147 0.41978 0.0
H770 H 0.65858 0.09647 0.44989 0.0
C771 C 0.59487 0.20212 0.46131 0.0
C772 C 0.81902 0.59464 0.37039 0.0
C773 C 0.79733 0.63666 0.38882 0.0
H774 H 0.87953 0.545 0.37664 0.0
C775 C 0.81016 0.65274 0.43524 0.0
H776 H 0.8091 0.58135 0.33487 0.0
C777 C 0.85038 0.63154 0.45939 0.0
C778 C 0.87729 0.59453 0.4369 0.0
H779 H 0.79362 0.68506 0.45013 0.0
H780 H 0.86382 0.64761 0.49256 0.0
C781 C 0.85938 0.57398 0.39411 0.0
C782 C 0.38555 0.89348 0.35074 0.0
C783 C 0.38093 0.84587 0.36085 0.0
H784 H 0.42013 0.95797 0.36939 0.0
C785 C 0.40802 0.82684 0.39936 0.0
H786 H 0.36447 0.90928 0.32165 0.0
C787 C 0.44063 0.85469 0.42622 0.0
C788 C 0.44539 0.90221 0.41572 0.0
H789 H 0.40482 0.79035 0.40797 0.0
H790 H 0.46202 0.83916 0.45526 0.0
C791 C 0.41702 0.92152 0.37825 0.0
C792 C 0.22674 0.45247 0.37533 0.0
C793 C 0.23918 0.40737 0.39107 0.0
H794 H 0.1712 0.50689 0.3701 0.0
C795 C 0.20877 0.38616 0.42262 0.0
H796 H 0.24995 0.46939 0.35108 0.0
C797 C 0.16274 0.4066 0.43208 0.0
C798 C 0.1475 0.44904 0.41122 0.0
H799 H 0.2178 0.35128 0.43537 0.0
H800 H 0.1384 0.38804 0.45382 0.0
C801 C 0.18103 0.47316 0.38516 0.0
C802 C 0.40694 0.18501 0.70571 0.0
C803 C 0.35537 0.18988 0.7057 0.0
H804 H 0.47031 0.148 0.6768 0.0
C805 C 0.32804 0.15648 0.67917 0.0
H806 H 0.42902 0.21025 0.72552 0.0
C807 C 0.35168 0.12145 0.65044 0.0
C808 C 0.40327 0.11768 0.649 0.0
H809 H 0.28825 0.15942 0.67795 0.0
H810 H 0.32958 0.09884 0.62737 0.0
C811 C 0.43059 0.14896 0.67822 0.0
C812 C 0.85849 0.36821 0.57878 0.0
C813 C 0.86836 0.33251 0.61089 0.0
H814 H 0.88984 0.42028 0.53846 0.0
C815 C 0.91608 0.31176 0.61491 0.0
H816 H 0.82197 0.38447 0.57498 0.0
C817 C 0.95496 0.33164 0.59287 0.0
C818 C 0.94597 0.37181 0.5663 0.0
H819 H 0.92426 0.28336 0.63895 0.0
H820 H 0.99228 0.31949 0.60164 0.0
C821 C 0.89726 0.38777 0.55658 0.0
C822 C 0.19196 0.64762 0.63185 0.0
C823 C 0.19057 0.65841 0.68093 0.0
H824 H 0.15815 0.61157 0.5721 0.0
C825 C 0.15525 0.63779 0.70802 0.0
H826 H 0.21923 0.66225 0.61016 0.0
C827 C 0.1195 0.61033 0.68594 0.0
C828 C 0.11855 0.60247 0.63636 0.0
H829 H 0.15339 0.64477 0.74609 0.0
H830 H 0.09148 0.59691 0.70761 0.0
C831 C 0.1565 0.61936 0.6099 0.0
loop_
_geom_bond_atom_site_label_1
_geom_bond_atom_site_label_2
_geom_bond_distance
_geom_bond_site_symmetry_2
_ccdc_geom_bond_type
Tb0 O3 2.453 . S
Tb0 O4 2.596 . S
Tb0 O5 2.374 . S
Tb0 O13 2.343 . S
Tb0 O15 2.353 . S
Tb0 O17 2.427 . S
Tb0 O18 2.513 . S
C1 O5 1.251 . S
C1 O7 1.263 . S
Tb2 O4 2.343 . S
Tb2 O7 2.353 . S
Tb2 O10 2.427 . S
Tb2 O11 2.513 . S
Tb2 O12 2.453 . S
Tb2 O13 2.596 . S
Tb2 O14 2.374 . S
O3 Tb0 2.453 . S
O3 C19 1.245 . S
O4 Tb0 2.596 . S
O4 Tb2 2.343 . S
O4 C19 1.259 . S
O5 Tb0 2.374 . S
O5 C1 1.251 . S
C6 O10 1.275 . S
C6 O11 1.246 . S
O7 C1 1.263 . S
O7 Tb2 2.353 . S
C8 O12 1.245 . S
C8 O13 1.259 . S
C9 O14 1.250 . S
C9 O15 1.263 . S
O10 Tb2 2.427 . S
O10 C6 1.275 . S
O11 Tb2 2.513 . S
O11 C6 1.246 . S
O12 Tb2 2.453 . S
O12 C8 1.245 . S
O13 Tb0 2.343 . S
O13 Tb2 2.596 . S
O13 C8 1.259 . S
O14 Tb2 2.374 . S
O14 C9 1.250 . S
O15 Tb0 2.353 . S
O15 C9 1.263 . S
C16 O17 1.275 . S
C16 O18 1.246 . S
O17 Tb0 2.427 . S
O17 C16 1.275 . S
O18 Tb0 2.513 . S
O18 C16 1.246 . S
C19 O3 1.245 . S
C19 O4 1.259 . S
Tb20 O23 2.453 . S
Tb20 O24 2.596 . S
Tb20 O25 2.374 . S
Tb20 O33 2.343 . S
Tb20 O35 2.353 . S
Tb20 O37 2.427 . S
Tb20 O38 2.513 . S
C21 O25 1.251 . S
C21 O27 1.263 . S
Tb22 O24 2.343 . S
Tb22 O27 2.353 . S
Tb22 O30 2.427 . S
Tb22 O31 2.513 . S
Tb22 O32 2.453 . S
Tb22 O33 2.596 . S
Tb22 O34 2.374 . S
O23 Tb20 2.453 . S
O23 C39 1.245 . S
O24 Tb20 2.596 . S
O24 Tb22 2.343 . S
O24 C39 1.259 . S
O25 Tb20 2.374 . S
O25 C21 1.251 . S
C26 O30 1.275 . S
C26 O31 1.246 . S
O27 C21 1.263 . S
O27 Tb22 2.353 . S
C28 O32 1.245 . S
C28 O33 1.259 . S
C29 O34 1.250 . S
C29 O35 1.263 . S
O30 Tb22 2.427 . S
O30 C26 1.275 . S
O31 Tb22 2.513 . S
O31 C26 1.246 . S
O32 Tb22 2.453 . S
O32 C28 1.245 . S
O33 Tb20 2.343 . S
O33 Tb22 2.596 . S
O33 C28 1.259 . S
O34 Tb22 2.374 . S
O34 C29 1.250 . S
O35 Tb20 2.353 . S
O35 C29 1.263 . S
C36 O37 1.275 . S
C36 O38 1.246 . S
O37 Tb20 2.427 . S
O37 C36 1.275 . S
O38 Tb20 2.513 . S
O38 C36 1.246 . S
C39 O23 1.245 . S
C39 O24 1.259 . S
Tb40 O43 2.453 . S
Tb40 O44 2.596 . S
Tb40 O45 2.374 . S
Tb40 O53 2.343 . S
Tb40 O55 2.353 . S
Tb40 O57 2.427 . S
Tb40 O58 2.513 . S
C41 O45 1.251 . S
C41 O47 1.263 . S
Tb42 O44 2.343 . S
Tb42 O47 2.353 . S
Tb42 O50 2.427 . S
Tb42 O51 2.513 . S
Tb42 O52 2.453 . S
Tb42 O53 2.596 . S
Tb42 O54 2.374 . S
O43 Tb40 2.453 . S
O43 C59 1.245 . S
O44 Tb40 2.596 . S
O44 Tb42 2.343 . S
O44 C59 1.259 . S
O45 Tb40 2.374 . S
O45 C41 1.251 . S
C46 O50 1.275 . S
C46 O51 1.246 . S
O47 C41 1.263 . S
O47 Tb42 2.353 . S
C48 O52 1.245 . S
C48 O53 1.259 . S
C49 O54 1.250 . S
C49 O55 1.263 . S
O50 Tb42 2.427 . S
O50 C46 1.275 . S
O51 Tb42 2.513 . S
O51 C46 1.246 . S
O52 Tb42 2.453 . S
O52 C48 1.245 . S
O53 Tb40 2.343 . S
O53 Tb42 2.596 . S
O53 C48 1.259 . S
O54 Tb42 2.374 . S
O54 C49 1.250 . S
O55 Tb40 2.353 . S
O55 C49 1.263 . S
C56 O57 1.275 . S
C56 O58 1.246 . S
O57 Tb40 2.427 . S
O57 C56 1.275 . S
O58 Tb40 2.513 . S
O58 C56 1.246 . S
C59 O43 1.245 . S
C59 O44 1.259 . S
Tb60 O63 2.453 . S
Tb60 O64 2.596 . S
Tb60 O65 2.374 . S
Tb60 O73 2.343 . S
Tb60 O75 2.353 . S
Tb60 O77 2.427 . S
Tb60 O78 2.513 . S
C61 O65 1.251 . S
C61 O67 1.263 . S
Tb62 O64 2.343 . S
Tb62 O67 2.353 . S
Tb62 O70 2.427 . S
Tb62 O71 2.513 . S
Tb62 O72 2.453 . S
Tb62 O73 2.596 . S
Tb62 O74 2.374 . S
O63 Tb60 2.453 . S
O63 C79 1.245 . S
O64 Tb60 2.596 . S
O64 Tb62 2.343 . S
O64 C79 1.259 . S
O65 Tb60 2.374 . S
O65 C61 1.251 . S
C66 O70 1.275 . S
C66 O71 1.246 . S
O67 C61 1.263 . S
O67 Tb62 2.353 . S
C68 O72 1.245 . S
C68 O73 1.259 . S
C69 O74 1.250 . S
C69 O75 1.263 . S
O70 Tb62 2.427 . S
O70 C66 1.275 . S
O71 Tb62 2.513 . S
O71 C66 1.246 . S
O72 Tb62 2.453 . S
O72 C68 1.245 . S
O73 Tb60 2.343 . S
O73 Tb62 2.596 . S
O73 C68 1.259 . S
O74 Tb62 2.374 . S
O74 C69 1.250 . S
O75 Tb60 2.353 . S
O75 C69 1.263 . S
C76 O77 1.275 . S
C76 O78 1.246 . S
O77 Tb60 2.427 . S
O77 C76 1.275 . S
O78 Tb60 2.513 . S
O78 C76 1.246 . S
C79 O63 1.245 . S
C79 O64 1.259 . S
Tb80 O83 2.453 . S
Tb80 O84 2.596 . S
Tb80 O85 2.374 . S
Tb80 O93 2.343 . S
Tb80 O95 2.353 . S
Tb80 O97 2.427 . S
Tb80 O98 2.513 . S
C81 O85 1.251 . S
C81 O87 1.263 . S
Tb82 O84 2.343 . S
Tb82 O87 2.353 . S
Tb82 O90 2.427 . S
Tb82 O91 2.513 . S
Tb82 O92 2.453 . S
Tb82 O93 2.596 . S
Tb82 O94 2.374 . S
O83 Tb80 2.453 . S
O83 C99 1.245 . S
O84 Tb80 2.596 . S
O84 Tb82 2.343 . S
O84 C99 1.259 . S
O85 Tb80 2.374 . S
O85 C81 1.251 . S
C86 O90 1.275 . S
C86 O91 1.246 . S
O87 C81 1.263 . S
O87 Tb82 2.353 . S
C88 O92 1.245 . S
C88 O93 1.259 . S
C89 O94 1.250 . S
C89 O95 1.263 . S
O90 Tb82 2.427 . S
O90 C86 1.275 . S
O91 Tb82 2.513 . S
O91 C86 1.246 . S
O92 Tb82 2.453 . S
O92 C88 1.245 . S
O93 Tb80 2.343 . S
O93 Tb82 2.596 . S
O93 C88 1.259 . S
O94 Tb82 2.374 . S
O94 C89 1.250 . S
O95 Tb80 2.353 . S
O95 C89 1.263 . S
C96 O97 1.275 . S
C96 O98 1.246 . S
O97 Tb80 2.427 . S
O97 C96 1.275 . S
O98 Tb80 2.513 . S
O98 C96 1.246 . S
C99 O83 1.245 . S
C99 O84 1.259 . S
Tb100 O103 2.453 . S
Tb100 O104 2.596 . S
Tb100 O105 2.374 . S
Tb100 O113 2.343 . S
Tb100 O115 2.353 . S
Tb100 O117 2.427 . S
Tb100 O118 2.513 . S
C101 O105 1.251 . S
C101 O107 1.263 . S
Tb102 O104 2.343 . S
Tb102 O107 2.353 . S
Tb102 O110 2.427 . S
Tb102 O111 2.513 . S
Tb102 O112 2.453 . S
Tb102 O113 2.596 . S
Tb102 O114 2.374 . S
O103 Tb100 2.453 . S
O103 C119 1.245 . S
O104 Tb100 2.596 . S
O104 Tb102 2.343 . S
O104 C119 1.259 . S
O105 Tb100 2.374 . S
O105 C101 1.251 . S
C106 O110 1.275 . S
C106 O111 1.246 . S
O107 C101 1.263 . S
O107 Tb102 2.353 . S
C108 O112 1.245 . S
C108 O113 1.259 . S
C109 O114 1.250 . S
C109 O115 1.263 . S
O110 Tb102 2.427 . S
O110 C106 1.275 . S
O111 Tb102 2.513 . S
O111 C106 1.246 . S
O112 Tb102 2.453 . S
O112 C108 1.245 . S
O113 Tb100 2.343 . S
O113 Tb102 2.596 . S
O113 C108 1.259 . S
O114 Tb102 2.374 . S
O114 C109 1.250 . S
O115 Tb100 2.353 . S
O115 C109 1.263 . S
C116 O117 1.275 . S
C116 O118 1.246 . S
O117 Tb100 2.427 . S
O117 C116 1.275 . S
O118 Tb100 2.513 . S
O118 C116 1.246 . S
C119 O103 1.245 . S
C119 O104 1.259 . S
Tb120 O123 2.453 . S
Tb120 O124 2.596 . S
Tb120 O125 2.374 . S
Tb120 O133 2.343 . S
Tb120 O135 2.353 . S
Tb120 O137 2.427 . S
Tb120 O138 2.513 . S
C121 O125 1.251 . S
C121 O127 1.263 . S
Tb122 O124 2.343 . S
Tb122 O127 2.353 . S
Tb122 O130 2.427 . S
Tb122 O131 2.513 . S
Tb122 O132 2.453 . S
Tb122 O133 2.596 . S
Tb122 O134 2.374 . S
O123 Tb120 2.453 . S
O123 C139 1.245 . S
O124 Tb120 2.596 . S
O124 Tb122 2.343 . S
O124 C139 1.259 . S
O125 Tb120 2.374 . S
O125 C121 1.251 . S
C126 O130 1.275 . S
C126 O131 1.246 . S
O127 C121 1.263 . S
O127 Tb122 2.353 . S
C128 O132 1.245 . S
C128 O133 1.259 . S
C129 O134 1.250 . S
C129 O135 1.263 . S
O130 Tb122 2.427 . S
O130 C126 1.275 . S
O131 Tb122 2.513 . S
O131 C126 1.246 . S
O132 Tb122 2.453 . S
O132 C128 1.245 . S
O133 Tb120 2.343 . S
O133 Tb122 2.596 . S
O133 C128 1.259 . S
O134 Tb122 2.374 . S
O134 C129 1.250 . S
O135 Tb120 2.353 . S
O135 C129 1.263 . S
C136 O137 1.275 . S
C136 O138 1.246 . S
O137 Tb120 2.427 . S
O137 C136 1.275 . S
O138 Tb120 2.513 . S
O138 C136 1.246 . S
C139 O123 1.245 . S
C139 O124 1.259 . S
Tb140 O143 2.453 . S
Tb140 O144 2.596 . S
Tb140 O145 2.374 . S
Tb140 O153 2.343 . S
Tb140 O155 2.353 . S
Tb140 O157 2.427 . S
Tb140 O158 2.513 . S
C141 O145 1.251 . S
C141 O147 1.263 . S
Tb142 O144 2.343 . S
Tb142 O147 2.353 . S
Tb142 O150 2.427 . S
Tb142 O151 2.513 . S
Tb142 O152 2.453 . S
Tb142 O153 2.596 . S
Tb142 O154 2.374 . S
O143 Tb140 2.453 . S
O143 C159 1.245 . S
O144 Tb140 2.596 . S
O144 Tb142 2.343 . S
O144 C159 1.259 . S
O145 Tb140 2.374 . S
O145 C141 1.251 . S
C146 O150 1.275 . S
C146 O151 1.246 . S
O147 C141 1.263 . S
O147 Tb142 2.353 . S
C148 O152 1.245 . S
C148 O153 1.259 . S
C149 O154 1.250 . S
C149 O155 1.263 . S
O150 Tb142 2.427 . S
O150 C146 1.275 . S
O151 Tb142 2.513 . S
O151 C146 1.246 . S
O152 Tb142 2.453 . S
O152 C148 1.245 . S
O153 Tb140 2.343 . S
O153 Tb142 2.596 . S
O153 C148 1.259 . S
O154 Tb142 2.374 . S
O154 C149 1.250 . S
O155 Tb140 2.353 . S
O155 C149 1.263 . S
C156 O157 1.275 . S
C156 O158 1.246 . S
O157 Tb140 2.427 . S
O157 C156 1.275 . S
O158 Tb140 2.513 . S
O158 C156 1.246 . S
C159 O143 1.245 . S
C159 O144 1.259 . S
Fe160 O161 1.886 1_455 S
Fe160 O164 1.715 . S
Fe160 O169 2.077 1_455 S
Fe160 O174 1.935 . S
Fe160 O180 2.077 1_455 S
Fe160 O189 1.935 . S
O161 Fe160 1.886 1_655 S
O161 Fe163 1.715 1_545 S
Fe162 O164 1.886 . S
Fe162 O165 1.715 1_545 S
Fe162 O172 1.935 1_545 S
Fe162 O173 2.077 . S
Fe162 O179 1.935 1_545 S
Fe162 O188 2.077 . S
Fe163 O161 1.715 1_565 S
Fe163 O166 1.886 . S
Fe163 O170 1.935 1_565 S
Fe163 O175 2.077 . S
Fe163 O181 1.935 1_565 S
Fe163 O185 2.077 . S
O164 Fe160 1.715 . S
O164 Fe162 1.886 . S
O165 Fe162 1.715 1_565 S
O165 Fe167 1.886 1_455 S
O166 Fe163 1.886 . S
O166 Fe167 1.715 . S
Fe167 O165 1.886 1_655 S
Fe167 O166 1.715 . S
Fe167 O171 2.077 1_655 S
Fe167 O176 1.935 . S
Fe167 O178 2.077 1_655 S
Fe167 O186 1.935 . S
C168 O180 1.381 . S
C168 O181 1.421 . S
O169 Fe160 2.077 1_655 S
O169 C182 1.381 . S
O170 Fe163 1.935 1_545 S
O170 C182 1.421 . S
O171 Fe167 2.077 1_455 S
O171 C187 1.381 . S
O172 Fe162 1.935 1_565 S
O172 C187 1.421 . S
O173 Fe162 2.077 . S
O173 C177 1.381 . S
O174 Fe160 1.935 . S
O174 C177 1.421 . S
O175 Fe163 2.077 . S
O175 C183 1.381 . S
O176 Fe167 1.935 . S
O176 C183 1.421 . S
C177 O173 1.381 . S
C177 O174 1.421 . S
O178 Fe167 2.077 1_455 S
O178 C190 1.381 . S
O179 Fe162 1.935 1_565 S
O179 C190 1.421 . S
O180 Fe160 2.077 1_655 S
O180 C168 1.381 . S
O181 Fe163 1.935 1_545 S
O181 C168 1.421 . S
C182 O169 1.381 . S
C182 O170 1.421 . S
C183 O175 1.381 . S
C183 O176 1.421 . S
C184 O185 1.381 . S
C184 O186 1.421 . S
O185 Fe163 2.077 . S
O185 C184 1.381 . S
O186 Fe167 1.935 . S
O186 C184 1.421 . S
C187 O171 1.381 . S
C187 O172 1.421 . S
O188 Fe162 2.077 . S
O188 C191 1.381 . S
O189 Fe160 1.935 . S
O189 C191 1.421 . S
C190 O178 1.381 . S
C190 O179 1.421 . S
C191 O188 1.381 . S
C191 O189 1.421 . S
Fe192 O193 1.886 1_556 S
Fe192 O196 1.715 . S
Fe192 O201 2.077 . S
Fe192 O206 1.935 . S
Fe192 O212 2.077 1_556 S
Fe192 O221 1.935 1_556 S
O193 Fe192 1.886 1_554 S
O193 Fe195 1.715 1_565 S
Fe194 O196 1.886 . S
Fe194 O197 1.715 1_565 S
Fe194 O204 1.935 1_565 S
Fe194 O205 2.077 . S
Fe194 O211 1.935 1_566 S
Fe194 O220 2.077 1_556 S
Fe195 O193 1.715 1_545 S
Fe195 O198 1.886 . S
Fe195 O202 1.935 1_544 S
Fe195 O207 2.077 1_554 S
Fe195 O213 1.935 1_545 S
Fe195 O217 2.077 . S
O196 Fe192 1.715 . S
O196 Fe194 1.886 . S
O197 Fe194 1.715 1_545 S
O197 Fe199 1.886 1_556 S
O198 Fe195 1.886 . S
O198 Fe199 1.715 . S
Fe199 O197 1.886 1_554 S
Fe199 O198 1.715 . S
Fe199 O203 2.077 1_554 S
Fe199 O208 1.935 1_554 S
Fe199 O210 2.077 . S
Fe199 O218 1.935 . S
C200 O212 1.381 . S
C200 O213 1.421 . S
O201 Fe192 2.077 . S
O201 C214 1.381 . S
O202 Fe195 1.935 1_566 S
O202 C214 1.421 . S
O203 Fe199 2.077 1_556 S
O203 C219 1.381 . S
O204 Fe194 1.935 1_545 S
O204 C219 1.421 . S
O205 Fe194 2.077 . S
O205 C209 1.381 . S
O206 Fe192 1.935 . S
O206 C209 1.421 . S
O207 Fe195 2.077 1_556 S
O207 C215 1.381 . S
O208 Fe199 1.935 1_556 S
O208 C215 1.421 . S
C209 O205 1.381 . S
C209 O206 1.421 . S
O210 Fe199 2.077 . S
O210 C222 1.381 . S
O211 Fe194 1.935 1_544 S
O211 C222 1.421 . S
O212 Fe192 2.077 1_554 S
O212 C200 1.381 . S
O213 Fe195 1.935 1_565 S
O213 C200 1.421 . S
C214 O201 1.381 . S
C214 O202 1.421 . S
C215 O207 1.381 . S
C215 O208 1.421 . S
C216 O217 1.381 . S
C216 O218 1.421 . S
O217 Fe195 2.077 . S
O217 C216 1.381 . S
O218 Fe199 1.935 . S
O218 C216 1.421 . S
C219 O203 1.381 . S
C219 O204 1.421 . S
O220 Fe194 2.077 1_554 S
O220 C223 1.381 . S
O221 Fe192 1.935 1_554 S
O221 C223 1.421 . S
C222 O210 1.381 . S
C222 O211 1.421 . S
C223 O220 1.381 . S
C223 O221 1.421 . S
Fe224 O225 1.886 1_454 S
Fe224 O228 1.715 . S
Fe224 O233 2.077 1_454 S
Fe224 O238 1.935 1_554 S
Fe224 O244 2.077 1_455 S
Fe224 O253 1.935 . S
O225 Fe224 1.886 1_656 S
O225 Fe227 1.715 . S
Fe226 O228 1.886 . S
Fe226 O229 1.715 . S
Fe226 O236 1.935 1_554 S
Fe226 O237 2.077 1_554 S
Fe226 O243 1.935 . S
Fe226 O252 2.077 . S
Fe227 O225 1.715 . S
Fe227 O230 1.886 . S
Fe227 O234 1.935 . S
Fe227 O239 2.077 . S
Fe227 O245 1.935 1_556 S
Fe227 O249 2.077 1_556 S
O228 Fe224 1.715 . S
O228 Fe226 1.886 . S
O229 Fe226 1.715 . S
O229 Fe231 1.886 1_454 S
O230 Fe227 1.886 . S
O230 Fe231 1.715 . S
Fe231 O229 1.886 1_656 S
Fe231 O230 1.715 . S
Fe231 O235 2.077 1_655 S
Fe231 O240 1.935 . S
Fe231 O242 2.077 1_656 S
Fe231 O250 1.935 1_556 S
C232 O244 1.381 . S
C232 O245 1.421 . S
O233 Fe224 2.077 1_656 S
O233 C246 1.381 . S
O234 Fe227 1.935 . S
O234 C246 1.421 . S
O235 Fe231 2.077 1_455 S
O235 C251 1.381 . S
O236 Fe226 1.935 1_556 S
O236 C251 1.421 . S
O237 Fe226 2.077 1_556 S
O237 C241 1.381 . S
O238 Fe224 1.935 1_556 S
O238 C241 1.421 . S
O239 Fe227 2.077 . S
O239 C247 1.381 . S
O240 Fe231 1.935 . S
O240 C247 1.421 . S
C241 O237 1.381 . S
C241 O238 1.421 . S
O242 Fe231 2.077 1_454 S
O242 C254 1.381 . S
O243 Fe226 1.935 . S
O243 C254 1.421 . S
O244 Fe224 2.077 1_655 S
O244 C232 1.381 . S
O245 Fe227 1.935 1_554 S
O245 C232 1.421 . S
C246 O233 1.381 . S
C246 O234 1.421 . S
C247 O239 1.381 . S
C247 O240 1.421 . S
C248 O249 1.381 . S
C248 O250 1.421 . S
O249 Fe227 2.077 1_554 S
O249 C248 1.381 . S
O250 Fe231 1.935 1_554 S
O250 C248 1.421 . S
C251 O235 1.381 . S
C251 O236 1.421 . S
O252 Fe226 2.077 . S
O252 C255 1.381 . S
O253 Fe224 1.935 . S
O253 C255 1.421 . S
C254 O242 1.381 . S
C254 O243 1.421 . S
C255 O252 1.381 . S
C255 O253 1.421 . S
Fe256 O257 1.886 . S
Fe256 O260 1.715 . S
Fe256 O265 2.077 . S
Fe256 O270 1.935 . S
Fe256 O276 2.077 . S
Fe256 O285 1.935 . S
O257 Fe256 1.886 . S
O257 Fe259 1.715 1_556 S
Fe258 O260 1.886 . S
Fe258 O261 1.715 1_556 S
Fe258 O268 1.935 1_556 S
Fe258 O269 2.077 . S
Fe258 O275 1.935 1_556 S
Fe258 O284 2.077 . S
Fe259 O257 1.715 1_554 S
Fe259 O262 1.886 . S
Fe259 O266 1.935 1_554 S
Fe259 O271 2.077 . S
Fe259 O277 1.935 1_554 S
Fe259 O281 2.077 . S
O260 Fe256 1.715 . S
O260 Fe258 1.886 . S
O261 Fe258 1.715 1_554 S
O261 Fe263 1.886 . S
O262 Fe259 1.886 . S
O262 Fe263 1.715 . S
Fe263 O261 1.886 . S
Fe263 O262 1.715 . S
Fe263 O267 2.077 . S
Fe263 O272 1.935 . S
Fe263 O274 2.077 . S
Fe263 O282 1.935 . S
C264 O276 1.381 . S
C264 O277 1.421 . S
O265 Fe256 2.077 . S
O265 C278 1.381 . S
O266 Fe259 1.935 1_556 S
O266 C278 1.421 . S
O267 Fe263 2.077 . S
O267 C283 1.381 . S
O268 Fe258 1.935 1_554 S
O268 C283 1.421 . S
O269 Fe258 2.077 . S
O269 C273 1.381 . S
O270 Fe256 1.935 . S
O270 C273 1.421 . S
O271 Fe259 2.077 . S
O271 C279 1.381 . S
O272 Fe263 1.935 . S
O272 C279 1.421 . S
C273 O269 1.381 . S
C273 O270 1.421 . S
O274 Fe263 2.077 . S
O274 C286 1.381 . S
O275 Fe258 1.935 1_554 S
O275 C286 1.421 . S
O276 Fe256 2.077 . S
O276 C264 1.381 . S
O277 Fe259 1.935 1_556 S
O277 C264 1.421 . S
C278 O265 1.381 . S
C278 O266 1.421 . S
C279 O271 1.381 . S
C279 O272 1.421 . S
C280 O281 1.381 . S
C280 O282 1.421 . S
O281 Fe259 2.077 . S
O281 C280 1.381 . S
O282 Fe263 1.935 . S
O282 C280 1.421 . S
C283 O267 1.381 . S
C283 O268 1.421 . S
O284 Fe258 2.077 . S
O284 C287 1.381 . S
O285 Fe256 1.935 . S
O285 C287 1.421 . S
C286 O274 1.381 . S
C286 O275 1.421 . S
C287 O284 1.381 . S
C287 O285 1.421 . S
Fe288 O289 1.886 1_655 S
Fe288 O292 1.715 . S
Fe288 O297 2.077 1_655 S
Fe288 O302 1.935 1_655 S
Fe288 O308 2.077 . S
Fe288 O317 1.935 . S
O289 Fe288 1.886 1_455 S
O289 Fe291 1.715 . S
Fe290 O292 1.886 . S
Fe290 O293 1.715 . S
Fe290 O300 1.935 1_655 S
Fe290 O301 2.077 1_655 S
Fe290 O307 1.935 . S
Fe290 O316 2.077 . S
Fe291 O289 1.715 . S
Fe291 O294 1.886 . S
Fe291 O298 1.935 . S
Fe291 O303 2.077 . S
Fe291 O309 1.935 1_455 S
Fe291 O313 2.077 1_455 S
O292 Fe288 1.715 . S
O292 Fe290 1.886 . S
O293 Fe290 1.715 . S
O293 Fe295 1.886 1_655 S
O294 Fe291 1.886 . S
O294 Fe295 1.715 . S
Fe295 O293 1.886 1_455 S
Fe295 O294 1.715 . S
Fe295 O299 2.077 . S
Fe295 O304 1.935 . S
Fe295 O306 2.077 1_455 S
Fe295 O314 1.935 1_455 S
C296 O308 1.381 . S
C296 O309 1.421 . S
O297 Fe288 2.077 1_455 S
O297 C310 1.381 . S
O298 Fe291 1.935 . S
O298 C310 1.421 . S
O299 Fe295 2.077 . S
O299 C315 1.381 . S
O300 Fe290 1.935 1_455 S
O300 C315 1.421 . S
O301 Fe290 2.077 1_455 S
O301 C305 1.381 . S
O302 Fe288 1.935 1_455 S
O302 C305 1.421 . S
O303 Fe291 2.077 . S
O303 C311 1.381 . S
O304 Fe295 1.935 . S
O304 C311 1.421 . S
C305 O301 1.381 . S
C305 O302 1.421 . S
O306 Fe295 2.077 1_655 S
O306 C318 1.381 . S
O307 Fe290 1.935 . S
O307 C318 1.421 . S
O308 Fe288 2.077 . S
O308 C296 1.381 . S
O309 Fe291 1.935 1_655 S
O309 C296 1.421 . S
C310 O297 1.381 . S
C310 O298 1.421 . S
C311 O303 1.381 . S
C311 O304 1.421 . S
C312 O313 1.381 . S
C312 O314 1.421 . S
O313 Fe291 2.077 1_655 S
O313 C312 1.381 . S
O314 Fe295 1.935 1_655 S
O314 C312 1.421 . S
C315 O299 1.381 . S
C315 O300 1.421 . S
O316 Fe290 2.077 . S
O316 C319 1.381 . S
O317 Fe288 1.935 . S
O317 C319 1.421 . S
C318 O306 1.381 . S
C318 O307 1.421 . S
C319 O316 1.381 . S
C319 O317 1.421 . S
Fe320 O321 1.886 . S
Fe320 O324 1.715 . S
Fe320 O329 2.077 . S
Fe320 O334 1.935 . S
Fe320 O340 2.077 . S
Fe320 O349 1.935 . S
O321 Fe320 1.886 . S
O321 Fe323 1.715 1_565 S
Fe322 O324 1.886 . S
Fe322 O325 1.715 1_565 S
Fe322 O332 1.935 1_565 S
Fe322 O333 2.077 . S
Fe322 O339 1.935 1_565 S
Fe322 O348 2.077 . S
Fe323 O321 1.715 1_545 S
Fe323 O326 1.886 . S
Fe323 O330 1.935 1_545 S
Fe323 O335 2.077 . S
Fe323 O341 1.935 1_545 S
Fe323 O345 2.077 . S
O324 Fe320 1.715 . S
O324 Fe322 1.886 . S
O325 Fe322 1.715 1_545 S
O325 Fe327 1.886 . S
O326 Fe323 1.886 . S
O326 Fe327 1.715 . S
Fe327 O325 1.886 . S
Fe327 O326 1.715 . S
Fe327 O331 2.077 . S
Fe327 O336 1.935 . S
Fe327 O338 2.077 . S
Fe327 O346 1.935 . S
C328 O340 1.381 . S
C328 O341 1.421 . S
O329 Fe320 2.077 . S
O329 C342 1.381 . S
O330 Fe323 1.935 1_565 S
O330 C342 1.421 . S
O331 Fe327 2.077 . S
O331 C347 1.381 . S
O332 Fe322 1.935 1_545 S
O332 C347 1.421 . S
O333 Fe322 2.077 . S
O333 C337 1.381 . S
O334 Fe320 1.935 . S
O334 C337 1.421 . S
O335 Fe323 2.077 . S
O335 C343 1.381 . S
O336 Fe327 1.935 . S
O336 C343 1.421 . S
C337 O333 1.381 . S
C337 O334 1.421 . S
O338 Fe327 2.077 . S
O338 C350 1.381 . S
O339 Fe322 1.935 1_545 S
O339 C350 1.421 . S
O340 Fe320 2.077 . S
O340 C328 1.381 . S
O341 Fe323 1.935 1_565 S
O341 C328 1.421 . S
C342 O329 1.381 . S
C342 O330 1.421 . S
C343 O335 1.381 . S
C343 O336 1.421 . S
C344 O345 1.381 . S
C344 O346 1.421 . S
O345 Fe323 2.077 . S
O345 C344 1.381 . S
O346 Fe327 1.935 . S
O346 C344 1.421 . S
C347 O331 1.381 . S
C347 O332 1.421 . S
O348 Fe322 2.077 . S
O348 C351 1.381 . S
O349 Fe320 1.935 . S
O349 C351 1.421 . S
C350 O338 1.381 . S
C350 O339 1.421 . S
C351 O348 1.381 . S
C351 O349 1.421 . S
C352 C353 1.387 . S
C352 H356 0.950 . S
C352 C361 1.390 . S
C353 C352 1.387 . S
C353 C355 1.387 . S
H354 C361 0.950 . S
C355 C353 1.387 . S
C355 C357 1.390 . S
C355 H359 0.950 . S
H356 C352 0.950 . S
C357 C355 1.390 . S
C357 C358 1.387 . S
C357 H360 0.950 . S
C358 C357 1.387 . S
C358 C361 1.387 . S
H359 C355 0.950 . S
H360 C357 0.950 . S
C361 C352 1.390 . S
C361 H354 0.950 . S
C361 C358 1.387 . S
C362 C363 1.387 . S
C362 H366 0.950 . S
C362 C371 1.390 . S
C363 C362 1.387 . S
C363 C365 1.387 . S
H364 C371 0.950 . S
C365 C363 1.387 . S
C365 C367 1.390 . S
C365 H369 0.950 . S
H366 C362 0.950 . S
C367 C365 1.390 . S
C367 C368 1.387 . S
C367 H370 0.950 . S
C368 C367 1.387 . S
C368 C371 1.387 . S
H369 C365 0.950 . S
H370 C367 0.950 . S
C371 C362 1.390 . S
C371 H364 0.950 . S
C371 C368 1.387 . S
C372 C373 1.387 . S
C372 H376 0.950 . S
C372 C381 1.390 . S
C373 C372 1.387 . S
C373 C375 1.387 . S
H374 C381 0.950 . S
C375 C373 1.387 . S
C375 C377 1.390 . S
C375 H379 0.950 . S
H376 C372 0.950 . S
C377 C375 1.390 . S
C377 C378 1.387 . S
C377 H380 0.950 . S
C378 C377 1.387 . S
C378 C381 1.387 . S
H379 C375 0.950 . S
H380 C377 0.950 . S
C381 C372 1.390 . S
C381 H374 0.950 . S
C381 C378 1.387 . S
C382 C383 1.387 . S
C382 H386 0.950 . S
C382 C391 1.390 . S
C383 C382 1.387 . S
C383 C385 1.387 . S
H384 C391 0.950 . S
C385 C383 1.387 . S
C385 C387 1.390 . S
C385 H389 0.950 . S
H386 C382 0.950 . S
C387 C385 1.390 . S
C387 C388 1.387 . S
C387 H390 0.950 . S
C388 C387 1.387 . S
C388 C391 1.387 . S
H389 C385 0.950 . S
H390 C387 0.950 . S
C391 C382 1.390 . S
C391 H384 0.950 . S
C391 C388 1.387 . S
C392 C393 1.387 . S
C392 H396 0.950 . S
C392 C401 1.390 . S
C393 C392 1.387 . S
C393 C395 1.387 . S
H394 C401 0.950 . S
C395 C393 1.387 . S
C395 C397 1.390 . S
C395 H399 0.950 . S
H396 C392 0.950 . S
C397 C395 1.390 . S
C397 C398 1.387 . S
C397 H400 0.950 . S
C398 C397 1.387 . S
C398 C401 1.387 . S
H399 C395 0.950 . S
H400 C397 0.950 . S
C401 C392 1.390 . S
C401 H394 0.950 . S
C401 C398 1.387 . S
C402 C403 1.387 . S
C402 H406 0.950 . S
C402 C411 1.390 . S
C403 C402 1.387 . S
C403 C405 1.387 . S
H404 C411 0.950 . S
C405 C403 1.387 . S
C405 C407 1.390 . S
C405 H409 0.950 . S
H406 C402 0.950 . S
C407 C405 1.390 . S
C407 C408 1.387 . S
C407 H410 0.950 . S
C408 C407 1.387 . S
C408 C411 1.387 . S
H409 C405 0.950 . S
H410 C407 0.950 . S
C411 C402 1.390 . S
C411 H404 0.950 . S
C411 C408 1.387 . S
C412 C413 1.387 . S
C412 H416 0.950 . S
C412 C421 1.390 . S
C413 C412 1.387 . S
C413 C415 1.387 . S
H414 C421 0.950 . S
C415 C413 1.387 . S
C415 C417 1.390 . S
C415 H419 0.950 . S
H416 C412 0.950 . S
C417 C415 1.390 . S
C417 C418 1.387 . S
C417 H420 0.950 . S
C418 C417 1.387 . S
C418 C421 1.387 . S
H419 C415 0.950 . S
H420 C417 0.950 . S
C421 C412 1.390 . S
C421 H414 0.950 . S
C421 C418 1.387 . S
C422 C423 1.387 . S
C422 H426 0.950 . S
C422 C431 1.390 . S
C423 C422 1.387 . S
C423 C425 1.387 . S
H424 C431 0.950 . S
C425 C423 1.387 . S
C425 C427 1.390 . S
C425 H429 0.950 . S
H426 C422 0.950 . S
C427 C425 1.390 . S
C427 C428 1.387 . S
C427 H430 0.950 . S
C428 C427 1.387 . S
C428 C431 1.387 . S
H429 C425 0.950 . S
H430 C427 0.950 . S
C431 C422 1.390 . S
C431 H424 0.950 . S
C431 C428 1.387 . S
C432 C433 1.387 . S
C432 H436 0.950 . S
C432 C441 1.390 . S
C433 C432 1.387 . S
C433 C435 1.387 . S
H434 C441 0.950 . S
C435 C433 1.387 . S
C435 C437 1.390 . S
C435 H439 0.950 . S
H436 C432 0.950 . S
C437 C435 1.390 . S
C437 C438 1.387 . S
C437 H440 0.950 . S
C438 C437 1.387 . S
C438 C441 1.387 . S
H439 C435 0.950 . S
H440 C437 0.950 . S
C441 C432 1.390 . S
C441 H434 0.950 . S
C441 C438 1.387 . S
C442 C443 1.387 . S
C442 H446 0.950 . S
C442 C451 1.390 . S
C443 C442 1.387 . S
C443 C445 1.387 . S
H444 C451 0.950 . S
C445 C443 1.387 . S
C445 C447 1.390 . S
C445 H449 0.950 . S
H446 C442 0.950 . S
C447 C445 1.390 . S
C447 C448 1.387 . S
C447 H450 0.950 . S
C448 C447 1.387 . S
C448 C451 1.387 . S
H449 C445 0.950 . S
H450 C447 0.950 . S
C451 C442 1.390 . S
C451 H444 0.950 . S
C451 C448 1.387 . S
C452 C453 1.387 . S
C452 H456 0.950 . S
C452 C461 1.390 . S
C453 C452 1.387 . S
C453 C455 1.387 . S
H454 C461 0.950 . S
C455 C453 1.387 . S
C455 C457 1.390 . S
C455 H459 0.950 . S
H456 C452 0.950 . S
C457 C455 1.390 . S
C457 C458 1.387 . S
C457 H460 0.950 . S
C458 C457 1.387 . S
C458 C461 1.387 . S
H459 C455 0.950 . S
H460 C457 0.950 . S
C461 C452 1.390 . S
C461 H454 0.950 . S
C461 C458 1.387 . S
C462 C463 1.387 . S
C462 H466 0.950 . S
C462 C471 1.390 . S
C463 C462 1.387 . S
C463 C465 1.387 . S
H464 C471 0.950 . S
C465 C463 1.387 . S
C465 C467 1.390 . S
C465 H469 0.950 . S
H466 C462 0.950 . S
C467 C465 1.390 . S
C467 C468 1.387 . S
C467 H470 0.950 . S
C468 C467 1.387 . S
C468 C471 1.387 . S
H469 C465 0.950 . S
H470 C467 0.950 . S
C471 C462 1.390 . S
C471 H464 0.950 . S
C471 C468 1.387 . S
C472 C473 1.387 . S
C472 H476 0.950 . S
C472 C481 1.390 . S
C473 C472 1.387 . S
C473 C475 1.387 . S
H474 C481 0.950 . S
C475 C473 1.387 . S
C475 C477 1.390 . S
C475 H479 0.950 . S
H476 C472 0.950 . S
C477 C475 1.390 . S
C477 C478 1.387 . S
C477 H480 0.950 . S
C478 C477 1.387 . S
C478 C481 1.387 . S
H479 C475 0.950 . S
H480 C477 0.950 . S
C481 C472 1.390 . S
C481 H474 0.950 . S
C481 C478 1.387 . S
C482 C483 1.387 . S
C482 H486 0.950 . S
C482 C491 1.390 . S
C483 C482 1.387 . S
C483 C485 1.387 . S
H484 C491 0.950 . S
C485 C483 1.387 . S
C485 C487 1.390 . S
C485 H489 0.950 . S
H486 C482 0.950 . S
C487 C485 1.390 . S
C487 C488 1.387 . S
C487 H490 0.950 . S
C488 C487 1.387 . S
C488 C491 1.387 . S
H489 C485 0.950 . S
H490 C487 0.950 . S
C491 C482 1.390 . S
C491 H484 0.950 . S
C491 C488 1.387 . S
C492 C493 1.387 . S
C492 H496 0.950 . S
C492 C501 1.390 . S
C493 C492 1.387 . S
C493 C495 1.387 . S
H494 C501 0.950 . S
C495 C493 1.387 . S
C495 C497 1.390 . S
C495 H499 0.950 . S
H496 C492 0.950 . S
C497 C495 1.390 . S
C497 C498 1.387 . S
C497 H500 0.950 . S
C498 C497 1.387 . S
C498 C501 1.387 . S
H499 C495 0.950 . S
H500 C497 0.950 . S
C501 C492 1.390 . S
C501 H494 0.950 . S
C501 C498 1.387 . S
C502 C503 1.387 . S
C502 H506 0.950 . S
C502 C511 1.390 . S
C503 C502 1.387 . S
C503 C505 1.387 . S
H504 C511 0.950 . S
C505 C503 1.387 . S
C505 C507 1.390 . S
C505 H509 0.950 . S
H506 C502 0.950 . S
C507 C505 1.390 . S
C507 C508 1.387 . S
C507 H510 0.950 . S
C508 C507 1.387 . S
C508 C511 1.387 . S
H509 C505 0.950 . S
H510 C507 0.950 . S
C511 C502 1.390 . S
C511 H504 0.950 . S
C511 C508 1.387 . S
C512 C513 1.387 . S
C512 H516 0.950 . S
C512 C521 1.390 . S
C513 C512 1.387 . S
C513 C515 1.387 . S
H514 C521 0.950 . S
C515 C513 1.387 . S
C515 C517 1.390 . S
C515 H519 0.950 . S
H516 C512 0.950 . S
C517 C515 1.390 . S
C517 C518 1.387 . S
C517 H520 0.950 . S
C518 C517 1.387 . S
C518 C521 1.387 . S
H519 C515 0.950 . S
H520 C517 0.950 . S
C521 C512 1.390 . S
C521 H514 0.950 . S
C521 C518 1.387 . S
C522 C523 1.387 . S
C522 H526 0.950 . S
C522 C531 1.390 . S
C523 C522 1.387 . S
C523 C525 1.387 . S
H524 C531 0.950 . S
C525 C523 1.387 . S
C525 C527 1.390 . S
C525 H529 0.950 . S
H526 C522 0.950 . S
C527 C525 1.390 . S
C527 C528 1.387 . S
C527 H530 0.950 . S
C528 C527 1.387 . S
C528 C531 1.387 . S
H529 C525 0.950 . S
H530 C527 0.950 . S
C531 C522 1.390 . S
C531 H524 0.950 . S
C531 C528 1.387 . S
C532 C533 1.387 . S
C532 H536 0.950 . S
C532 C541 1.390 . S
C533 C532 1.387 . S
C533 C535 1.387 . S
H534 C541 0.950 . S
C535 C533 1.387 . S
C535 C537 1.390 . S
C535 H539 0.950 . S
H536 C532 0.950 . S
C537 C535 1.390 . S
C537 C538 1.387 . S
C537 H540 0.950 . S
C538 C537 1.387 . S
C538 C541 1.387 . S
H539 C535 0.950 . S
H540 C537 0.950 . S
C541 C532 1.390 . S
C541 H534 0.950 . S
C541 C538 1.387 . S
C542 C543 1.387 . S
C542 H546 0.950 . S
C542 C551 1.390 . S
C543 C542 1.387 . S
C543 C545 1.387 . S
H544 C551 0.950 . S
C545 C543 1.387 . S
C545 C547 1.390 . S
C545 H549 0.950 . S
H546 C542 0.950 . S
C547 C545 1.390 . S
C547 C548 1.387 . S
C547 H550 0.950 . S
C548 C547 1.387 . S
C548 C551 1.387 . S
H549 C545 0.950 . S
H550 C547 0.950 . S
C551 C542 1.390 . S
C551 H544 0.950 . S
C551 C548 1.387 . S
C552 C553 1.387 . S
C552 H556 0.950 . S
C552 C561 1.390 . S
C553 C552 1.387 . S
C553 C555 1.387 . S
H554 C561 0.950 . S
C555 C553 1.387 . S
C555 C557 1.390 . S
C555 H559 0.950 . S
H556 C552 0.950 . S
C557 C555 1.390 . S
C557 C558 1.387 . S
C557 H560 0.950 . S
C558 C557 1.387 . S
C558 C561 1.387 . S
H559 C555 0.950 . S
H560 C557 0.950 . S
C561 C552 1.390 . S
C561 H554 0.950 . S
C561 C558 1.387 . S
C562 C563 1.387 . S
C562 H566 0.950 . S
C562 C571 1.390 . S
C563 C562 1.387 . S
C563 C565 1.387 . S
H564 C571 0.950 . S
C565 C563 1.387 . S
C565 C567 1.390 . S
C565 H569 0.950 . S
H566 C562 0.950 . S
C567 C565 1.390 . S
C567 C568 1.387 . S
C567 H570 0.950 . S
C568 C567 1.387 . S
C568 C571 1.387 . S
H569 C565 0.950 . S
H570 C567 0.950 . S
C571 C562 1.390 . S
C571 H564 0.950 . S
C571 C568 1.387 . S
C572 C573 1.387 . S
C572 H576 0.950 . S
C572 C581 1.390 . S
C573 C572 1.387 . S
C573 C575 1.387 . S
H574 C581 0.950 . S
C575 C573 1.387 . S
C575 C577 1.390 . S
C575 H579 0.950 . S
H576 C572 0.950 . S
C577 C575 1.390 . S
C577 C578 1.387 . S
C577 H580 0.950 . S
C578 C577 1.387 . S
C578 C581 1.387 . S
H579 C575 0.950 . S
H580 C577 0.950 . S
C581 C572 1.390 . S
C581 H574 0.950 . S
C581 C578 1.387 . S
C582 C583 1.387 . S
C582 H586 0.950 . S
C582 C591 1.390 . S
C583 C582 1.387 . S
C583 C585 1.387 . S
H584 C591 0.950 . S
C585 C583 1.387 . S
C585 C587 1.390 . S
C585 H589 0.950 . S
H586 C582 0.950 . S
C587 C585 1.390 . S
C587 C588 1.387 . S
C587 H590 0.950 . S
C588 C587 1.387 . S
C588 C591 1.387 . S
H589 C585 0.950 . S
H590 C587 0.950 . S
C591 C582 1.390 . S
C591 H584 0.950 . S
C591 C588 1.387 . S
C592 C593 1.387 . S
C592 H596 0.950 . S
C592 C601 1.390 . S
C593 C592 1.387 . S
C593 C595 1.387 . S
H594 C601 0.950 . S
C595 C593 1.387 . S
C595 C597 1.390 . S
C595 H599 0.950 . S
H596 C592 0.950 . S
C597 C595 1.390 . S
C597 C598 1.387 . S
C597 H600 0.950 . S
C598 C597 1.387 . S
C598 C601 1.387 . S
H599 C595 0.950 . S
H600 C597 0.950 . S
C601 C592 1.390 . S
C601 H594 0.950 . S
C601 C598 1.387 . S
C602 C603 1.387 . S
C602 H606 0.950 . S
C602 C611 1.390 . S
C603 C602 1.387 . S
C603 C605 1.387 . S
H604 C611 0.950 . S
C605 C603 1.387 . S
C605 C607 1.390 . S
C605 H609 0.950 . S
H606 C602 0.950 . S
C607 C605 1.390 . S
C607 C608 1.387 . S
C607 H610 0.950 . S
C608 C607 1.387 . S
C608 C611 1.387 . S
H609 C605 0.950 . S
H610 C607 0.950 . S
C611 C602 1.390 . S
C611 H604 0.950 . S
C611 C608 1.387 . S
C612 C613 1.387 . S
C612 H616 0.950 . S
C612 C621 1.390 . S
C613 C612 1.387 . S
C613 C615 1.387 . S
H614 C621 0.950 . S
C615 C613 1.387 . S
C615 C617 1.390 . S
C615 H619 0.950 . S
H616 C612 0.950 . S
C617 C615 1.390 . S
C617 C618 1.387 . S
C617 H620 0.950 . S
C618 C617 1.387 . S
C618 C621 1.387 . S
H619 C615 0.950 . S
H620 C617 0.950 . S
C621 C612 1.390 . S
C621 H614 0.950 . S
C621 C618 1.387 . S
C622 C623 1.387 . S
C622 H626 0.950 . S
C622 C631 1.390 . S
C623 C622 1.387 . S
C623 C625 1.387 . S
H624 C631 0.950 . S
C625 C623 1.387 . S
C625 C627 1.390 . S
C625 H629 0.950 . S
H626 C622 0.950 . S
C627 C625 1.390 . S
C627 C628 1.387 . S
C627 H630 0.950 . S
C628 C627 1.387 . S
C628 C631 1.387 . S
H629 C625 0.950 . S
H630 C627 0.950 . S
C631 C622 1.390 . S
C631 H624 0.950 . S
C631 C628 1.387 . S
C632 C633 1.387 . S
C632 H636 0.950 . S
C632 C641 1.390 . S
C633 C632 1.387 . S
C633 C635 1.387 . S
H634 C641 0.950 . S
C635 C633 1.387 . S
C635 C637 1.390 . S
C635 H639 0.950 . S
H636 C632 0.950 . S
C637 C635 1.390 . S
C637 C638 1.387 . S
C637 H640 0.950 . S
C638 C637 1.387 . S
C638 C641 1.387 . S
H639 C635 0.950 . S
H640 C637 0.950 . S
C641 C632 1.390 . S
C641 H634 0.950 . S
C641 C638 1.387 . S
C642 C643 1.387 . S
C642 H646 0.950 . S
C642 C651 1.390 . S
C643 C642 1.387 . S
C643 C645 1.387 . S
H644 C651 0.950 . S
C645 C643 1.387 . S
C645 C647 1.390 . S
C645 H649 0.950 . S
H646 C642 0.950 . S
C647 C645 1.390 . S
C647 C648 1.387 . S
C647 H650 0.950 . S
C648 C647 1.387 . S
C648 C651 1.387 . S
H649 C645 0.950 . S
H650 C647 0.950 . S
C651 C642 1.390 . S
C651 H644 0.950 . S
C651 C648 1.387 . S
C652 C653 1.387 . S
C652 H656 0.950 . S
C652 C661 1.390 . S
C653 C652 1.387 . S
C653 C655 1.387 . S
H654 C661 0.950 . S
C655 C653 1.387 . S
C655 C657 1.390 . S
C655 H659 0.950 . S
H656 C652 0.950 . S
C657 C655 1.390 . S
C657 C658 1.387 . S
C657 H660 0.950 . S
C658 C657 1.387 . S
C658 C661 1.387 . S
H659 C655 0.950 . S
H660 C657 0.950 . S
C661 C652 1.390 . S
C661 H654 0.950 . S
C661 C658 1.387 . S
C662 C663 1.387 . S
C662 H666 0.950 . S
C662 C671 1.390 . S
C663 C662 1.387 . S
C663 C665 1.387 . S
H664 C671 0.950 . S
C665 C663 1.387 . S
C665 C667 1.390 . S
C665 H669 0.950 . S
H666 C662 0.950 . S
C667 C665 1.390 . S
C667 C668 1.387 . S
C667 H670 0.950 . S
C668 C667 1.387 . S
C668 C671 1.387 . S
H669 C665 0.950 . S
H670 C667 0.950 . S
C671 C662 1.390 . S
C671 H664 0.950 . S
C671 C668 1.387 . S
C672 C673 1.387 . S
C672 H676 0.950 . S
C672 C681 1.390 . S
C673 C672 1.387 . S
C673 C675 1.387 . S
H674 C681 0.950 . S
C675 C673 1.387 . S
C675 C677 1.390 . S
C675 H679 0.950 . S
H676 C672 0.950 . S
C677 C675 1.390 . S
C677 C678 1.387 . S
C677 H680 0.950 . S
C678 C677 1.387 . S
C678 C681 1.387 . S
H679 C675 0.950 . S
H680 C677 0.950 . S
C681 C672 1.390 . S
C681 H674 0.950 . S
C681 C678 1.387 . S
C682 C683 1.387 . S
C682 H686 0.950 . S
C682 C691 1.390 . S
C683 C682 1.387 . S
C683 C685 1.387 . S
H684 C691 0.950 . S
C685 C683 1.387 . S
C685 C687 1.390 . S
C685 H689 0.950 . S
H686 C682 0.950 . S
C687 C685 1.390 . S
C687 C688 1.387 . S
C687 H690 0.950 . S
C688 C687 1.387 . S
C688 C691 1.387 . S
H689 C685 0.950 . S
H690 C687 0.950 . S
C691 C682 1.390 . S
C691 H684 0.950 . S
C691 C688 1.387 . S
C692 C693 1.387 . S
C692 H696 0.950 . S
C692 C701 1.390 . S
C693 C692 1.387 . S
C693 C695 1.387 . S
H694 C701 0.950 . S
C695 C693 1.387 . S
C695 C697 1.390 . S
C695 H699 0.950 . S
H696 C692 0.950 . S
C697 C695 1.390 . S
C697 C698 1.387 . S
C697 H700 0.950 . S
C698 C697 1.387 . S
C698 C701 1.387 . S
H699 C695 0.950 . S
H700 C697 0.950 . S
C701 C692 1.390 . S
C701 H694 0.950 . S
C701 C698 1.387 . S
C702 C703 1.387 . S
C702 H706 0.950 . S
C702 C711 1.390 . S
C703 C702 1.387 . S
C703 C705 1.387 . S
H704 C711 0.950 . S
C705 C703 1.387 . S
C705 C707 1.390 . S
C705 H709 0.950 . S
H706 C702 0.950 . S
C707 C705 1.390 . S
C707 C708 1.387 . S
C707 H710 0.950 . S
C708 C707 1.387 . S
C708 C711 1.387 . S
H709 C705 0.950 . S
H710 C707 0.950 . S
C711 C702 1.390 . S
C711 H704 0.950 . S
C711 C708 1.387 . S
C712 C713 1.387 . S
C712 H716 0.950 . S
C712 C721 1.390 . S
C713 C712 1.387 . S
C713 C715 1.387 . S
H714 C721 0.950 . S
C715 C713 1.387 . S
C715 C717 1.390 . S
C715 H719 0.950 . S
H716 C712 0.950 . S
C717 C715 1.390 . S
C717 C718 1.387 . S
C717 H720 0.950 . S
C718 C717 1.387 . S
C718 C721 1.387 . S
H719 C715 0.950 . S
H720 C717 0.950 . S
C721 C712 1.390 . S
C721 H714 0.950 . S
C721 C718 1.387 . S
C722 C723 1.387 . S
C722 H726 0.950 . S
C722 C731 1.390 . S
C723 C722 1.387 . S
C723 C725 1.387 . S
H724 C731 0.950 . S
C725 C723 1.387 . S
C725 C727 1.390 . S
C725 H729 0.950 . S
H726 C722 0.950 . S
C727 C725 1.390 . S
C727 C728 1.387 . S
C727 H730 0.950 . S
C728 C727 1.387 . S
C728 C731 1.387 . S
H729 C725 0.950 . S
H730 C727 0.950 . S
C731 C722 1.390 . S
C731 H724 0.950 . S
C731 C728 1.387 . S
C732 C733 1.387 . S
C732 H736 0.950 . S
C732 C741 1.390 . S
C733 C732 1.387 . S
C733 C735 1.387 . S
H734 C741 0.950 . S
C735 C733 1.387 . S
C735 C737 1.390 . S
C735 H739 0.950 . S
H736 C732 0.950 . S
C737 C735 1.390 . S
C737 C738 1.387 . S
C737 H740 0.950 . S
C738 C737 1.387 . S
C738 C741 1.387 . S
H739 C735 0.950 . S
H740 C737 0.950 . S
C741 C732 1.390 . S
C741 H734 0.950 . S
C741 C738 1.387 . S
C742 C743 1.387 . S
C742 H746 0.950 . S
C742 C751 1.390 . S
C743 C742 1.387 . S
C743 C745 1.387 . S
H744 C751 0.950 . S
C745 C743 1.387 . S
C745 C747 1.390 . S
C745 H749 0.950 . S
H746 C742 0.950 . S
C747 C745 1.390 . S
C747 C748 1.387 . S
C747 H750 0.950 . S
C748 C747 1.387 . S
C748 C751 1.387 . S
H749 C745 0.950 . S
H750 C747 0.950 . S
C751 C742 1.390 . S
C751 H744 0.950 . S
C751 C748 1.387 . S
C752 C753 1.387 . S
C752 H756 0.950 . S
C752 C761 1.390 . S
C753 C752 1.387 . S
C753 C755 1.387 . S
H754 C761 0.950 . S
C755 C753 1.387 . S
C755 C757 1.390 . S
C755 H759 0.950 . S
H756 C752 0.950 . S
C757 C755 1.390 . S
C757 C758 1.387 . S
C757 H760 0.950 . S
C758 C757 1.387 . S
C758 C761 1.387 . S
H759 C755 0.950 . S
H760 C757 0.950 . S
C761 C752 1.390 . S
C761 H754 0.950 . S
C761 C758 1.387 . S
C762 C763 1.387 . S
C762 H766 0.950 . S
C762 C771 1.390 . S
C763 C762 1.387 . S
C763 C765 1.387 . S
H764 C771 0.950 . S
C765 C763 1.387 . S
C765 C767 1.390 . S
C765 H769 0.950 . S
H766 C762 0.950 . S
C767 C765 1.390 . S
C767 C768 1.387 . S
C767 H770 0.950 . S
C768 C767 1.387 . S
C768 C771 1.387 . S
H769 C765 0.950 . S
H770 C767 0.950 . S
C771 C762 1.390 . S
C771 H764 0.950 . S
C771 C768 1.387 . S
C772 C773 1.387 . S
C772 H776 0.950 . S
C772 C781 1.390 . S
C773 C772 1.387 . S
C773 C775 1.387 . S
H774 C781 0.950 . S
C775 C773 1.387 . S
C775 C777 1.390 . S
C775 H779 0.950 . S
H776 C772 0.950 . S
C777 C775 1.390 . S
C777 C778 1.387 . S
C777 H780 0.950 . S
C778 C777 1.387 . S
C778 C781 1.387 . S
H779 C775 0.950 . S
H780 C777 0.950 . S
C781 C772 1.390 . S
C781 H774 0.950 . S
C781 C778 1.387 . S
C782 C783 1.387 . S
C782 H786 0.950 . S
C782 C791 1.390 . S
C783 C782 1.387 . S
C783 C785 1.387 . S
H784 C791 0.950 . S
C785 C783 1.387 . S
C785 C787 1.390 . S
C785 H789 0.950 . S
H786 C782 0.950 . S
C787 C785 1.390 . S
C787 C788 1.387 . S
C787 H790 0.950 . S
C788 C787 1.387 . S
C788 C791 1.387 . S
H789 C785 0.950 . S
H790 C787 0.950 . S
C791 C782 1.390 . S
C791 H784 0.950 . S
C791 C788 1.387 . S
C792 C793 1.387 . S
C792 H796 0.950 . S
C792 C801 1.390 . S
C793 C792 1.387 . S
C793 C795 1.387 . S
H794 C801 0.950 . S
C795 C793 1.387 . S
C795 C797 1.390 . S
C795 H799 0.950 . S
H796 C792 0.950 . S
C797 C795 1.390 . S
C797 C798 1.387 . S
C797 H800 0.950 . S
C798 C797 1.387 . S
C798 C801 1.387 . S
H799 C795 0.950 . S
H800 C797 0.950 . S
C801 C792 1.390 . S
C801 H794 0.950 . S
C801 C798 1.387 . S
C802 C803 1.387 . S
C802 H806 0.950 . S
C802 C811 1.390 . S
C803 C802 1.387 . S
C803 C805 1.387 . S
H804 C811 0.950 . S
C805 C803 1.387 . S
C805 C807 1.390 . S
C805 H809 0.950 . S
H806 C802 0.950 . S
C807 C805 1.390 . S
C807 C808 1.387 . S
C807 H810 0.950 . S
C808 C807 1.387 . S
C808 C811 1.387 . S
H809 C805 0.950 . S
H810 C807 0.950 . S
C811 C802 1.390 . S
C811 H804 0.950 . S
C811 C808 1.387 . S
C812 C813 1.387 . S
C812 H816 0.950 . S
C812 C821 1.390 . S
C813 C812 1.387 . S
C813 C815 1.387 . S
H814 C821 0.950 . S
C815 C813 1.387 . S
C815 C817 1.390 . S
C815 H819 0.950 . S
H816 C812 0.950 . S
C817 C815 1.390 . S
C817 C818 1.387 . S
C817 H820 0.950 . S
C818 C817 1.387 . S
C818 C821 1.387 . S
H819 C815 0.950 . S
H820 C817 0.950 . S
C821 C812 1.390 . S
C821 H814 0.950 . S
C821 C818 1.387 . S
C822 C823 1.387 . S
C822 H826 0.950 . S
C822 C831 1.390 . S
C823 C822 1.387 . S
C823 C825 1.387 . S
H824 C831 0.950 . S
C825 C823 1.387 . S
C825 C827 1.390 . S
C825 H829 0.950 . S
H826 C822 0.950 . S
C827 C825 1.390 . S
C827 C828 1.387 . S
C827 H830 0.950 . S
C828 C827 1.387 . S
C828 C831 1.387 . S
H829 C825 0.950 . S
H830 C827 0.950 . S
C831 C822 1.390 . S
C831 H824 0.950 . S
C831 C828 1.387 . S
C358 C177 1.825 . S
C353 C9 1.800 . S
C368 C182 1.863 . S
C363 C28 1.845 . S
C378 C183 1.285 . S
C373 C49 1.281 . S
C383 C79 1.843 . S
C388 C187 1.878 . S
C393 C99 1.847 . S
C398 C190 1.864 . S
C408 C191 1.285 . S
C403 C101 1.275 . S
C413 C128 1.842 . S
C418 C168 1.877 . S
C423 C141 1.804 . S
C428 C184 1.828 . S
C438 C222 1.221 . S
C433 C16 1.151 . S
C443 C26 1.112 . S
C448 C248 1.112 . S
C458 C200 1.171 . S
C453 C56 1.116 . S
C468 C255 1.233 . S
C463 C69 1.264 . S
C473 C89 1.267 . S
C478 C209 1.245 . S
C488 C251 1.870 . S
C483 C108 1.826 . S
C493 C126 1.132 . S
C498 C215 1.144 . S
C503 C148 1.862 . S
C508 C246 1.893 . S
C513 C19 1.863 . S
C518 C254 1.887 . S
C523 C96 1.117 . S
C528 C241 1.114 . S
C538 C219 1.171 . S
C533 C106 1.113 . S
C548 C247 1.232 . S
C543 C121 1.269 . S
C553 C146 1.153 . S
C558 C214 1.224 . S
C563 C59 1.828 . S
C568 C232 1.868 . S
C578 C223 1.140 . S
C573 C76 1.129 . S
C583 C21 1.266 . S
C588 C216 1.237 . S
C593 C149 1.783 . S
C598 C278 1.750 . S
C603 C88 1.827 . S
C608 C273 1.867 . S
C618 C287 1.231 . S
C613 C109 1.262 . S
C628 C264 1.889 . S
C623 C139 1.827 . S
C633 C39 1.827 . S
C638 C280 1.865 . S
C648 C279 1.233 . S
C643 C41 1.260 . S
C653 C68 1.826 . S
C658 C283 1.887 . S
C663 C1 1.782 . S
C668 C286 1.745 . S
C673 C156 1.157 . S
C678 C312 1.234 . S
C688 C328 1.192 . S
C683 C86 1.133 . S
C693 C116 1.115 . S
C698 C310 1.146 . S
C703 C129 1.287 . S
C708 C343 1.268 . S
C718 C319 1.277 . S
C713 C29 1.273 . S
C723 C48 1.849 . S
C728 C337 1.867 . S
C738 C315 1.194 . S
C733 C66 1.133 . S
C748 C350 1.858 . S
C743 C8 1.877 . S
C758 C342 1.861 . S
C753 C159 1.882 . S
C763 C36 1.134 . S
C768 C347 1.189 . S
C773 C46 1.114 . S
C778 C318 1.147 . S
C788 C351 1.272 . S
C783 C61 1.287 . S
C793 C6 1.157 . S
C798 C305 1.230 . S
C803 C119 1.848 . S
C808 C344 1.865 . S
C818 C296 1.195 . S
C813 C136 1.138 . S
C828 C311 1.279 . S
C823 C81 1.268 . S
