# Generated by pormake.
# Topology eea, (3,6)-cn, num edge types: 1
# Building blocks:
#     Node 0, Type 0, BuildingBlock: WUSLED_clean_sbu_0, # of connection points: 3
#     Node 1, Type 0, BuildingBlock: WUSLED_clean_sbu_0, # of connection points: 3
#     Node 2, Type 0, BuildingBlock: WUSLED_clean_sbu_0, # of connection points: 3
#     Node 3, Type 0, BuildingBlock: WUSLED_clean_sbu_0, # of connection points: 3
#     Node 4, Type 0, BuildingBlock: WUSLED_clean_sbu_0, # of connection points: 3
#     Node 5, Type 0, BuildingBlock: WUSLED_clean_sbu_0, # of connection points: 3
#     Node 6, Type 0, BuildingBlock: WUSLED_clean_sbu_0, # of connection points: 3
#     Node 7, Type 0, BuildingBlock: WUSLED_clean_sbu_0, # of connection points: 3
#     Node 8, Type 0, BuildingBlock: WUSLED_clean_sbu_0, # of connection points: 3
#     Node 9, Type 0, BuildingBlock: WUSLED_clean_sbu_0, # of connection points: 3
#     Node 10, Type 0, BuildingBlock: WUSLED_clean_sbu_0, # of connection points: 3
#     Node 11, Type 0, BuildingBlock: WUSLED_clean_sbu_0, # of connection points: 3
#     Node 12, Type 0, BuildingBlock: WUSLED_clean_sbu_0, # of connection points: 3
#     Node 13, Type 0, BuildingBlock: WUSLED_clean_sbu_0, # of connection points: 3
#     Node 14, Type 0, BuildingBlock: WUSLED_clean_sbu_0, # of connection points: 3
#     Node 15, Type 0, BuildingBlock: WUSLED_clean_sbu_0, # of connection points: 3
#     Node 16, Type 0, BuildingBlock: WUSLED_clean_sbu_0, # of connection points: 3
#     Node 17, Type 0, BuildingBlock: WUSLED_clean_sbu_0, # of connection points: 3
#     Node 18, Type 1, BuildingBlock: KUMBOL_clean_sbu_0, # of connection points: 6
#     Node 19, Type 1, BuildingBlock: KUMBOL_clean_sbu_0, # of connection points: 6
#     Node 20, Type 1, BuildingBlock: KUMBOL_clean_sbu_0, # of connection points: 6
#     Node 21, Type 1, BuildingBlock: KUMBOL_clean_sbu_0, # of connection points: 6
#     Node 22, Type 1, BuildingBlock: KUMBOL_clean_sbu_0, # of connection points: 6
#     Node 23, Type 1, BuildingBlock: KUMBOL_clean_sbu_0, # of connection points: 6
#     Node 24, Type 1, BuildingBlock: KUMBOL_clean_sbu_0, # of connection points: 6
#     Node 25, Type 1, BuildingBlock: KUMBOL_clean_sbu_0, # of connection points: 6
#     Node 26, Type 1, BuildingBlock: KUMBOL_clean_sbu_0, # of connection points: 6
#     Edge 27, Type (0, 1), BuildingBlock: MIFKUJ_clean_linker_0, # of connection points: 2
#     Edge 28, Type (0, 1), BuildingBlock: MIFKUJ_clean_linker_0, # of connection points: 2
#     Edge 29, Type (0, 1), BuildingBlock: MIFKUJ_clean_linker_0, # of connection points: 2
#     Edge 30, Type (0, 1), BuildingBlock: MIFKUJ_clean_linker_0, # of connection points: 2
#     Edge 31, Type (0, 1), BuildingBlock: MIFKUJ_clean_linker_0, # of connection points: 2
#     Edge 32, Type (0, 1), BuildingBlock: MIFKUJ_clean_linker_0, # of connection points: 2
#     Edge 33, Type (0, 1), BuildingBlock: MIFKUJ_clean_linker_0, # of connection points: 2
#     Edge 34, Type (0, 1), BuildingBlock: MIFKUJ_clean_linker_0, # of connection points: 2
#     Edge 35, Type (0, 1), BuildingBlock: MIFKUJ_clean_linker_0, # of connection points: 2
#     Edge 36, Type (0, 1), BuildingBlock: MIFKUJ_clean_linker_0, # of connection points: 2
#     Edge 37, Type (0, 1), BuildingBlock: MIFKUJ_clean_linker_0, # of connection points: 2
#     Edge 38, Type (0, 1), BuildingBlock: MIFKUJ_clean_linker_0, # of connection points: 2
#     Edge 39, Type (0, 1), BuildingBlock: MIFKUJ_clean_linker_0, # of connection points: 2
#     Edge 40, Type (0, 1), BuildingBlock: MIFKUJ_clean_linker_0, # of connection points: 2
#     Edge 41, Type (0, 1), BuildingBlock: MIFKUJ_clean_linker_0, # of connection points: 2
#     Edge 42, Type (0, 1), BuildingBlock: MIFKUJ_clean_linker_0, # of connection points: 2
#     Edge 43, Type (0, 1), BuildingBlock: MIFKUJ_clean_linker_0, # of connection points: 2
#     Edge 44, Type (0, 1), BuildingBlock: MIFKUJ_clean_linker_0, # of connection points: 2
#     Edge 45, Type (0, 1), BuildingBlock: MIFKUJ_clean_linker_0, # of connection points: 2
#     Edge 46, Type (0, 1), BuildingBlock: MIFKUJ_clean_linker_0, # of connection points: 2
#     Edge 47, Type (0, 1), BuildingBlock: MIFKUJ_clean_linker_0, # of connection points: 2
#     Edge 48, Type (0, 1), BuildingBlock: MIFKUJ_clean_linker_0, # of connection points: 2
#     Edge 49, Type (0, 1), BuildingBlock: MIFKUJ_clean_linker_0, # of connection points: 2
#     Edge 50, Type (0, 1), BuildingBlock: MIFKUJ_clean_linker_0, # of connection points: 2
#     Edge 51, Type (0, 1), BuildingBlock: MIFKUJ_clean_linker_0, # of connection points: 2
#     Edge 52, Type (0, 1), BuildingBlock: MIFKUJ_clean_linker_0, # of connection points: 2
#     Edge 53, Type (0, 1), BuildingBlock: MIFKUJ_clean_linker_0, # of connection points: 2
#     Edge 54, Type (0, 1), BuildingBlock: MIFKUJ_clean_linker_0, # of connection points: 2
#     Edge 55, Type (0, 1), BuildingBlock: MIFKUJ_clean_linker_0, # of connection points: 2
#     Edge 56, Type (0, 1), BuildingBlock: MIFKUJ_clean_linker_0, # of connection points: 2
#     Edge 57, Type (0, 1), BuildingBlock: MIFKUJ_clean_linker_0, # of connection points: 2
#     Edge 58, Type (0, 1), BuildingBlock: MIFKUJ_clean_linker_0, # of connection points: 2
#     Edge 59, Type (0, 1), BuildingBlock: MIFKUJ_clean_linker_0, # of connection points: 2
#     Edge 60, Type (0, 1), BuildingBlock: MIFKUJ_clean_linker_0, # of connection points: 2
#     Edge 61, Type (0, 1), BuildingBlock: MIFKUJ_clean_linker_0, # of connection points: 2
#     Edge 62, Type (0, 1), BuildingBlock: MIFKUJ_clean_linker_0, # of connection points: 2
#     Edge 63, Type (0, 1), BuildingBlock: MIFKUJ_clean_linker_0, # of connection points: 2
#     Edge 64, Type (0, 1), BuildingBlock: MIFKUJ_clean_linker_0, # of connection points: 2
#     Edge 65, Type (0, 1), BuildingBlock: MIFKUJ_clean_linker_0, # of connection points: 2
#     Edge 66, Type (0, 1), BuildingBlock: MIFKUJ_clean_linker_0, # of connection points: 2
#     Edge 67, Type (0, 1), BuildingBlock: MIFKUJ_clean_linker_0, # of connection points: 2
#     Edge 68, Type (0, 1), BuildingBlock: MIFKUJ_clean_linker_0, # of connection points: 2
#     Edge 69, Type (0, 1), BuildingBlock: MIFKUJ_clean_linker_0, # of connection points: 2
#     Edge 70, Type (0, 1), BuildingBlock: MIFKUJ_clean_linker_0, # of connection points: 2
#     Edge 71, Type (0, 1), BuildingBlock: MIFKUJ_clean_linker_0, # of connection points: 2
#     Edge 72, Type (0, 1), BuildingBlock: MIFKUJ_clean_linker_0, # of connection points: 2
#     Edge 73, Type (0, 1), BuildingBlock: MIFKUJ_clean_linker_0, # of connection points: 2
#     Edge 74, Type (0, 1), BuildingBlock: MIFKUJ_clean_linker_0, # of connection points: 2
#     Edge 75, Type (0, 1), BuildingBlock: MIFKUJ_clean_linker_0, # of connection points: 2
#     Edge 76, Type (0, 1), BuildingBlock: MIFKUJ_clean_linker_0, # of connection points: 2
#     Edge 77, Type (0, 1), BuildingBlock: MIFKUJ_clean_linker_0, # of connection points: 2
#     Edge 78, Type (0, 1), BuildingBlock: MIFKUJ_clean_linker_0, # of connection points: 2
#     Edge 79, Type (0, 1), BuildingBlock: MIFKUJ_clean_linker_0, # of connection points: 2
#     Edge 80, Type (0, 1), BuildingBlock: MIFKUJ_clean_linker_0, # of connection points: 2
# Relax obj value: 0.010
# Max RMSD: 0.096
# Mean RMSD: 0.055
data_MOF--net-eea--node1-WUSLED_clean_sbu_0--node2-KUMBOL_clean_sbu_0--edge1-MIFKUJ_clean_linker_0
_symmetry_space_group_name_H-M    P1
_symmetry_Int_Tables_number       1
_symmetry_cell_setting            triclinic
loop_
_symmetry_equiv_pos_as_xyz
'x, y, z'
_cell_length_a     83.237964
_cell_length_b     84.711189
_cell_length_c     109.92332
_cell_angle_alpha  89.892521
_cell_angle_beta   90.183906
_cell_angle_gamma 119.97912
loop_
_atom_site_label
_atom_site_type_symbol
_atom_site_fract_x
_atom_site_fract_y
_atom_site_fract_z
_atom_type_partial_charge
C0 C 0.21635 0.14151 0.411 0.0
C1 C 0.21754 0.15487 0.41909 0.0
C2 C 0.2121 0.17073 0.40238 0.0
C3 C 0.21539 0.16934 0.41482 0.0
C4 C 0.21094 0.15726 0.39437 0.0
C5 C 0.21304 0.14283 0.39864 0.0
U6 U 0.22828 0.11591 0.43517 0.0
O7 O 0.21464 0.08651 0.43897 0.0
O8 O 0.24366 0.10115 0.43299 0.0
C9 C 0.22908 0.08527 0.43549 0.0
C10 C 0.21849 0.12612 0.41518 0.0
C11 C 0.2255 0.07001 0.42725 0.0
C12 C 0.20543 0.04517 0.41361 0.0
C13 C 0.20892 0.06044 0.42057 0.0
C14 C 0.23522 0.04913 0.41962 0.0
C15 C 0.21844 0.03916 0.41317 0.0
C16 C 0.23865 0.0643 0.42659 0.0
C17 C 0.24373 0.13637 0.46727 0.0
C18 C 0.2547 0.12385 0.48306 0.0
C19 C 0.25136 0.15008 0.48739 0.0
C20 C 0.24517 0.14964 0.47549 0.0
C21 C 0.25625 0.13723 0.49135 0.0
C22 C 0.24846 0.12341 0.47113 0.0
C23 C 0.2375 0.13654 0.45472 0.0
O24 O 0.23556 0.1299 0.41744 0.0
O25 O 0.20657 0.11541 0.42341 0.0
O26 O 0.22035 0.12406 0.45213 0.0
O27 O 0.2493 0.1387 0.44607 0.0
H28 H 0.22015 0.15411 0.42868 0.0
H29 H 0.21655 0.17954 0.42123 0.0
H30 H 0.20812 0.15769 0.38478 0.0
H31 H 0.21203 0.13262 0.39227 0.0
H32 H 0.19231 0.03779 0.40886 0.0
H33 H 0.1985 0.06451 0.4209 0.0
H34 H 0.24574 0.04518 0.41932 0.0
H35 H 0.25154 0.07146 0.43164 0.0
H36 H 0.25817 0.11363 0.48582 0.0
H37 H 0.25265 0.16075 0.49343 0.0
H38 H 0.24164 0.1598 0.47266 0.0
H39 H 0.24739 0.11302 0.4649 0.0
C40 C 0.9395 0.14578 0.4107 0.0
C41 C 0.95325 0.15787 0.41879 0.0
C42 C 0.9732 0.17517 0.40171 0.0
C43 C 0.96994 0.1724 0.41434 0.0
C44 C 0.95926 0.16302 0.3937 0.0
C45 C 0.94266 0.14854 0.39815 0.0
U46 U 0.90078 0.11875 0.4345 0.0
O47 O 0.87049 0.10277 0.43162 0.0
O48 O 0.88551 0.0892 0.43804 0.0
C49 C 0.86951 0.08726 0.43452 0.0
C50 C 0.92192 0.13 0.41498 0.0
C51 C 0.85756 0.0713 0.42677 0.0
C52 C 0.85289 0.04907 0.41105 0.0
C53 C 0.8647 0.06503 0.41758 0.0
C54 C 0.8267 0.04571 0.42264 0.0
C55 C 0.83373 0.03905 0.41362 0.0
C56 C 0.83846 0.0616 0.42911 0.0
C57 C 0.90385 0.13926 0.46658 0.0
C58 C 0.88409 0.12377 0.484 0.0
C59 C 0.90591 0.15615 0.48499 0.0
C60 C 0.91171 0.15565 0.47312 0.0
C61 C 0.89208 0.14021 0.49065 0.0
C62 C 0.88993 0.1233 0.47208 0.0
C63 C 0.91065 0.13932 0.45415 0.0
O64 O 0.92327 0.1197 0.42343 0.0
O65 O 0.90803 0.13292 0.4168 0.0
O66 O 0.9011 0.14092 0.44518 0.0
O67 O 0.91594 0.12736 0.45191 0.0
H68 H 0.9511 0.15605 0.42852 0.0
H69 H 0.98023 0.18156 0.42079 0.0
H70 H 0.96129 0.16446 0.38395 0.0
H71 H 0.93229 0.13934 0.39174 0.0
H72 H 0.85884 0.04434 0.40422 0.0
H73 H 0.87941 0.07228 0.4156 0.0
H74 H 0.81203 0.03864 0.42473 0.0
H75 H 0.83261 0.06618 0.43613 0.0
H76 H 0.87352 0.11119 0.48806 0.0
H77 H 0.91216 0.16912 0.48967 0.0
H78 H 0.92241 0.16815 0.46904 0.0
H79 H 0.88366 0.11048 0.4672 0.0
C80 C 0.8702 0.8017 0.41136 0.0
C81 C 0.85233 0.79142 0.41632 0.0
C82 C 0.84061 0.80657 0.40288 0.0
C83 C 0.8377 0.79381 0.41211 0.0
C84 C 0.85863 0.81696 0.39809 0.0
C85 C 0.87318 0.81454 0.40228 0.0
U86 U 0.89752 0.78816 0.43394 0.0
O87 O 0.91239 0.7732 0.43024 0.0
O88 O 0.92776 0.80144 0.43672 0.0
C89 C 0.92869 0.78718 0.43298 0.0
C90 C 0.88581 0.79894 0.41505 0.0
C91 C 0.94444 0.79062 0.42498 0.0
C92 C 0.96452 0.80469 0.40741 0.0
C93 C 0.949 0.8014 0.41443 0.0
C94 C 0.97099 0.78649 0.4214 0.0
C95 C 0.97576 0.79725 0.4108 0.0
C96 C 0.95556 0.78322 0.42835 0.0
C97 C 0.87712 0.77135 0.46654 0.0
C98 C 0.88765 0.75823 0.4823 0.0
C99 C 0.86209 0.76339 0.48636 0.0
C100 C 0.86369 0.77045 0.47462 0.0
C101 C 0.8739 0.757 0.49036 0.0
C102 C 0.8892 0.76529 0.47047 0.0
C103 C 0.87761 0.7782 0.45405 0.0
O104 O 0.89731 0.81019 0.42327 0.0
O105 O 0.88196 0.78202 0.4167 0.0
O106 O 0.87508 0.76698 0.44505 0.0
O107 O 0.89046 0.79509 0.45174 0.0
H108 H 0.84965 0.78144 0.42337 0.0
H109 H 0.82412 0.7857 0.41615 0.0
H110 H 0.86145 0.8267 0.39087 0.0
H111 H 0.8868 0.82257 0.39827 0.0
H112 H 0.9676 0.81292 0.39927 0.0
H113 H 0.94064 0.80729 0.41164 0.0
H114 H 0.97939 0.78081 0.42452 0.0
H115 H 0.95242 0.77499 0.4365 0.0
H116 H 0.89693 0.75336 0.48502 0.0
H117 H 0.85159 0.76303 0.49233 0.0
H118 H 0.85426 0.77511 0.47181 0.0
H119 H 0.89967 0.76583 0.46438 0.0
C120 C 0.07328 0.21016 0.61555 0.0
C121 C 0.07307 0.2239 0.62262 0.0
C122 C 0.03937 0.20577 0.62493 0.0
C123 C 0.05638 0.22177 0.62719 0.0
C124 C 0.03956 0.19216 0.61768 0.0
C125 C 0.05626 0.1943 0.6131 0.0
U126 U 0.11517 0.22219 0.59389 0.0
O127 O 0.14477 0.23439 0.59858 0.0
O128 O 0.12987 0.20687 0.59083 0.0
C129 C 0.14544 0.21969 0.59563 0.0
C130 C 0.09126 0.21151 0.61202 0.0
C131 C 0.15554 0.21374 0.604 0.0
C132 C 0.17405 0.21785 0.62228 0.0
C133 C 0.16264 0.22223 0.6153 0.0
C134 C 0.17118 0.19611 0.60699 0.0
C135 C 0.17874 0.20492 0.61814 0.0
C136 C 0.1598 0.2005 0.60003 0.0
C137 C 0.11641 0.24334 0.56192 0.0
C138 C 0.13086 0.24312 0.54266 0.0
C139 C 0.12001 0.26451 0.54567 0.0
C140 C 0.11414 0.25762 0.55741 0.0
C141 C 0.12835 0.25731 0.53806 0.0
C142 C 0.12497 0.23622 0.55447 0.0
C143 C 0.10857 0.23557 0.57403 0.0
O144 O 0.09082 0.2005 0.60343 0.0
O145 O 0.10588 0.22792 0.61126 0.0
O146 O 0.11727 0.24555 0.58358 0.0
O147 O 0.10248 0.21811 0.57571 0.0
H148 H 0.0859 0.23614 0.62493 0.0
H149 H 0.05691 0.23246 0.63287 0.0
H150 H 0.02677 0.17974 0.61559 0.0
H151 H 0.05583 0.18329 0.60784 0.0
H152 H 0.17972 0.22509 0.63073 0.0
H153 H 0.1598 0.23262 0.61862 0.0
H154 H 0.17416 0.18588 0.60356 0.0
H155 H 0.15468 0.19381 0.59133 0.0
H156 H 0.13742 0.23735 0.53716 0.0
H157 H 0.11751 0.27518 0.54246 0.0
H158 H 0.10742 0.26323 0.56292 0.0
H159 H 0.12691 0.22519 0.55769 0.0
C160 C 0.80039 0.87194 0.61682 0.0
C161 C 0.78973 0.85427 0.61208 0.0
C162 C 0.80506 0.84309 0.62577 0.0
C163 C 0.79202 0.83998 0.61653 0.0
C164 C 0.81587 0.86093 0.63032 0.0
C165 C 0.81353 0.87516 0.62591 0.0
U166 U 0.78618 0.89574 0.59277 0.0
O167 O 0.77094 0.91059 0.59493 0.0
O168 O 0.79939 0.92481 0.58792 0.0
C169 C 0.78509 0.92621 0.59146 0.0
C170 C 0.79788 0.88715 0.6126 0.0
C171 C 0.78925 0.94217 0.59902 0.0
C172 C 0.80003 0.95961 0.61782 0.0
C173 C 0.79642 0.94428 0.61086 0.0
C174 C 0.78938 0.97079 0.60114 0.0
C175 C 0.79646 0.97303 0.61305 0.0
C176 C 0.78582 0.95554 0.59423 0.0
C177 C 0.76798 0.87229 0.56168 0.0
C178 C 0.76048 0.88554 0.54443 0.0
C179 C 0.75421 0.8544 0.5434 0.0
C180 C 0.76129 0.85599 0.55517 0.0
C181 C 0.75365 0.86912 0.53787 0.0
C182 C 0.76754 0.88709 0.55625 0.0
C183 C 0.77535 0.87342 0.57405 0.0
O184 O 0.80906 0.89732 0.60388 0.0
O185 O 0.78066 0.88338 0.611 0.0
O186 O 0.76429 0.87197 0.58302 0.0
O187 O 0.79266 0.8862 0.57587 0.0
H188 H 0.77953 0.85148 0.60503 0.0
H189 H 0.78331 0.82643 0.61288 0.0
H190 H 0.8263 0.86397 0.63725 0.0
H191 H 0.82197 0.88871 0.62964 0.0
H192 H 0.80534 0.96081 0.62698 0.0
H193 H 0.79913 0.93407 0.61473 0.0
H194 H 0.78676 0.98095 0.59708 0.0
H195 H 0.78036 0.95419 0.58509 0.0
H196 H 0.76011 0.89708 0.54049 0.0
H197 H 0.74937 0.84167 0.53858 0.0
H198 H 0.76158 0.84444 0.55918 0.0
H199 H 0.77262 0.89979 0.56116 0.0
C200 C 0.07222 0.86527 0.61665 0.0
C201 C 0.06268 0.84896 0.61002 0.0
C202 C 0.03828 0.83604 0.6255 0.0
C203 C 0.04588 0.83448 0.61441 0.0
C204 C 0.048 0.85247 0.63205 0.0
C205 C 0.06472 0.86686 0.62767 0.0
U206 U 0.11186 0.89105 0.59321 0.0
O207 O 0.12694 0.92041 0.58878 0.0
O208 O 0.14194 0.90758 0.59653 0.0
C209 C 0.14288 0.92278 0.59282 0.0
C210 C 0.09002 0.88079 0.61242 0.0
C211 C 0.15444 0.9394 0.60011 0.0
C212 C 0.16535 0.95565 0.61938 0.0
C213 C 0.15329 0.93976 0.61285 0.0
C214 C 0.1796 0.97094 0.60052 0.0
C215 C 0.17885 0.9714 0.6133 0.0
C216 C 0.16757 0.95517 0.59404 0.0
C217 C 0.1095 0.86901 0.56177 0.0
C218 C 0.13087 0.88324 0.54485 0.0
C219 C 0.10596 0.85199 0.54316 0.0
C220 C 0.10013 0.85294 0.55493 0.0
C221 C 0.12135 0.86714 0.53789 0.0
C222 C 0.12498 0.88417 0.55667 0.0
C223 C 0.10258 0.8695 0.57406 0.0
O224 O 0.10392 0.87771 0.61116 0.0
O225 O 0.089 0.89067 0.60355 0.0
O226 O 0.09704 0.88139 0.57576 0.0
O227 O 0.11214 0.86857 0.5833 0.0
H228 H 0.06819 0.84744 0.60147 0.0
H229 H 0.03876 0.82215 0.60904 0.0
H230 H 0.04285 0.85415 0.6407 0.0
H231 H 0.07189 0.87928 0.63296 0.0
H232 H 0.16442 0.95544 0.62921 0.0
H233 H 0.14329 0.92774 0.61774 0.0
H234 H 0.18952 0.98284 0.59549 0.0
H235 H 0.16868 0.95523 0.58422 0.0
H236 H 0.14268 0.89523 0.54108 0.0
H237 H 0.09847 0.83927 0.53823 0.0
H238 H 0.0882 0.84105 0.55871 0.0
H239 H 0.13241 0.89674 0.56179 0.0
C240 C 0.87789 0.47286 0.74537 0.0
C241 C 0.88954 0.49066 0.74965 0.0
C242 C 0.87333 0.50203 0.73696 0.0
C243 C 0.88731 0.5051 0.74546 0.0
C244 C 0.86152 0.48408 0.73289 0.0
C245 C 0.86382 0.4697 0.73703 0.0
U246 U 0.89185 0.44805 0.76881 0.0
O247 O 0.87813 0.41881 0.77336 0.0
O248 O 0.90651 0.43274 0.76621 0.0
C249 C 0.89217 0.41716 0.76957 0.0
C250 C 0.88024 0.45744 0.7493 0.0
C251 C 0.88756 0.40128 0.76177 0.0
C252 C 0.88171 0.38655 0.74196 0.0
C253 C 0.88535 0.4017 0.74912 0.0
C254 C 0.88217 0.3704 0.76003 0.0
C255 C 0.88026 0.37076 0.74732 0.0
C256 C 0.88578 0.38549 0.76715 0.0
C257 C 0.91027 0.47043 0.80018 0.0
C258 C 0.91632 0.45602 0.8174 0.0
C259 C 0.92404 0.48757 0.81872 0.0
C260 C 0.91752 0.48665 0.80685 0.0
C261 C 0.92343 0.47225 0.8242 0.0
C262 C 0.90978 0.45511 0.80549 0.0
C263 C 0.90307 0.46985 0.78781 0.0
O264 O 0.8974 0.46093 0.75075 0.0
O265 O 0.86905 0.4471 0.75796 0.0
O266 O 0.88567 0.45741 0.7859 0.0
O267 O 0.91407 0.47129 0.7788 0.0
H268 H 0.90047 0.49343 0.75613 0.0
H269 H 0.89679 0.51873 0.74872 0.0
H270 H 0.85038 0.48108 0.72654 0.0
H271 H 0.8546 0.45606 0.73367 0.0
H272 H 0.88046 0.38737 0.7322 0.0
H273 H 0.88666 0.41379 0.74479 0.0
H274 H 0.8808 0.3584 0.76452 0.0
H275 H 0.88735 0.38487 0.7769 0.0
H276 H 0.91551 0.44392 0.82134 0.0
H277 H 0.92973 0.50039 0.82356 0.0
H278 H 0.91809 0.49864 0.80289 0.0
H279 H 0.90422 0.44245 0.80046 0.0
C280 C 0.60831 0.48089 0.74588 0.0
C281 C 0.6091 0.49693 0.7416 0.0
C282 C 0.64184 0.51001 0.73621 0.0
C283 C 0.62562 0.51129 0.73687 0.0
C284 C 0.64109 0.49405 0.74067 0.0
C285 C 0.62456 0.47969 0.74539 0.0
U286 U 0.56795 0.45287 0.76863 0.0
O287 O 0.53793 0.4363 0.76502 0.0
O288 O 0.55306 0.42331 0.77227 0.0
C289 C 0.53709 0.421 0.76836 0.0
C290 C 0.59041 0.46476 0.74973 0.0
C291 C 0.52564 0.40473 0.76078 0.0
C292 C 0.51884 0.38728 0.74196 0.0
C293 C 0.53028 0.4031 0.74875 0.0
C294 C 0.4981 0.37471 0.75914 0.0
C295 C 0.50261 0.37281 0.7471 0.0
C296 C 0.50947 0.39043 0.76586 0.0
C297 C 0.56928 0.47311 0.8006 0.0
C298 C 0.54862 0.45746 0.81762 0.0
C299 C 0.57123 0.48958 0.81919 0.0
C300 C 0.57735 0.48927 0.80739 0.0
C301 C 0.55685 0.47367 0.82453 0.0
C302 C 0.5548 0.45718 0.80577 0.0
C303 C 0.57655 0.47333 0.78829 0.0
O304 O 0.59123 0.45421 0.75821 0.0
O305 O 0.576 0.46708 0.75097 0.0
O306 O 0.56717 0.47467 0.7791 0.0
O307 O 0.58229 0.46166 0.78629 0.0
H308 H 0.59684 0.4983 0.74163 0.0
H309 H 0.62549 0.52318 0.73337 0.0
H310 H 0.65328 0.49258 0.7405 0.0
H311 H 0.62444 0.46748 0.74845 0.0
H312 H 0.52284 0.38629 0.73276 0.0
H313 H 0.54272 0.41399 0.74465 0.0
H314 H 0.48558 0.36412 0.76336 0.0
H315 H 0.50556 0.39145 0.7751 0.0
H316 H 0.53763 0.44491 0.82143 0.0
H317 H 0.57769 0.50238 0.82408 0.0
H318 H 0.58849 0.50174 0.80356 0.0
H319 H 0.54837 0.44453 0.80069 0.0
C320 C 0.53671 0.13482 0.74545 0.0
C321 C 0.51973 0.12669 0.75171 0.0
C322 C 0.50681 0.13902 0.73688 0.0
C323 C 0.50493 0.12881 0.74747 0.0
C324 C 0.52401 0.14738 0.73084 0.0
C325 C 0.53872 0.14529 0.73507 0.0
U326 U 0.56462 0.12224 0.76817 0.0
O327 O 0.57948 0.10723 0.76455 0.0
O328 O 0.59491 0.13569 0.77062 0.0
C329 C 0.59584 0.12144 0.76685 0.0
C330 C 0.55239 0.13226 0.74919 0.0
C331 C 0.6112 0.12478 0.75845 0.0
C332 C 0.63532 0.14355 0.74382 0.0
C333 C 0.61977 0.14013 0.75081 0.0
C334 C 0.63376 0.11622 0.75185 0.0
C335 C 0.64264 0.1317 0.74431 0.0
C336 C 0.61828 0.11284 0.75881 0.0
C337 C 0.54601 0.10659 0.80112 0.0
C338 C 0.5504 0.08699 0.81542 0.0
C339 C 0.53839 0.10606 0.82257 0.0
C340 C 0.53957 0.11277 0.81075 0.0
C341 C 0.5436 0.09292 0.82508 0.0
C342 C 0.55162 0.09376 0.80357 0.0
C343 C 0.54553 0.11292 0.78859 0.0
O344 O 0.564 0.14382 0.75723 0.0
O345 O 0.54857 0.11542 0.75111 0.0
O346 O 0.54254 0.10146 0.77966 0.0
O347 O 0.55804 0.12981 0.78593 0.0
H348 H 0.51785 0.11854 0.75975 0.0
H349 H 0.4919 0.12208 0.75233 0.0
H350 H 0.52617 0.15562 0.72281 0.0
H351 H 0.55171 0.15175 0.73012 0.0
H352 H 0.6416 0.15548 0.73802 0.0
H353 H 0.61464 0.14961 0.75035 0.0
H354 H 0.63907 0.10692 0.75268 0.0
H355 H 0.61207 0.10102 0.76472 0.0
H356 H 0.55478 0.07708 0.81701 0.0
H357 H 0.53285 0.1108 0.82967 0.0
H358 H 0.53504 0.12255 0.80908 0.0
H359 H 0.55669 0.08877 0.79632 0.0
C360 C 0.74043 0.54438 0.94955 0.0
C361 C 0.73998 0.55798 0.95664 0.0
C362 C 0.70629 0.53956 0.95885 0.0
C363 C 0.72319 0.55564 0.96117 0.0
C364 C 0.7067 0.52605 0.95161 0.0
C365 C 0.72351 0.5284 0.94705 0.0
U366 U 0.78147 0.55559 0.92734 0.0
O367 O 0.81153 0.56974 0.93128 0.0
O368 O 0.79731 0.54131 0.92511 0.0
C369 C 0.81292 0.55523 0.92901 0.0
C370 C 0.75858 0.54613 0.946 0.0
C371 C 0.82466 0.55146 0.93743 0.0
C372 C 0.83 0.53107 0.95043 0.0
C373 C 0.81789 0.53484 0.94371 0.0
C374 C 0.85572 0.56054 0.94493 0.0
C375 C 0.84918 0.54375 0.95095 0.0
C376 C 0.84365 0.56431 0.93827 0.0
C377 C 0.77954 0.57247 0.89448 0.0
C378 C 0.80204 0.58038 0.87811 0.0
C379 C 0.77507 0.58368 0.87506 0.0
C380 C 0.76916 0.57737 0.8869 0.0
C381 C 0.79157 0.58525 0.87044 0.0
C382 C 0.79607 0.57403 0.89002 0.0
C383 C 0.77264 0.56591 0.90693 0.0
O384 O 0.75829 0.53442 0.93803 0.0
O385 O 0.77264 0.5627 0.94439 0.0
O386 O 0.78167 0.57711 0.91591 0.0
O387 O 0.76767 0.54889 0.90941 0.0
H388 H 0.75273 0.5703 0.95897 0.0
H389 H 0.72356 0.56626 0.96685 0.0
H390 H 0.694 0.51356 0.94948 0.0
H391 H 0.72324 0.5175 0.94177 0.0
H392 H 0.82444 0.51796 0.95488 0.0
H393 H 0.80334 0.52459 0.94321 0.0
H394 H 0.87028 0.57081 0.94528 0.0
H395 H 0.84928 0.57719 0.93349 0.0
H396 H 0.81473 0.58125 0.87488 0.0
H397 H 0.76679 0.5876 0.86958 0.0
H398 H 0.75642 0.57638 0.89016 0.0
H399 H 0.80431 0.57032 0.89572 0.0
C400 C 0.46339 0.20129 0.94991 0.0
C401 C 0.4629 0.18827 0.9418 0.0
C402 C 0.46814 0.17235 0.95857 0.0
C403 C 0.46526 0.17393 0.94609 0.0
C404 C 0.46838 0.18537 0.96664 0.0
C405 C 0.46604 0.19966 0.96234 0.0
U406 U 0.4512 0.22649 0.92562 0.0
O407 O 0.43643 0.24185 0.92762 0.0
O408 O 0.46524 0.25578 0.92127 0.0
C409 C 0.45095 0.25742 0.92449 0.0
C410 C 0.46137 0.21675 0.94565 0.0
C411 C 0.45502 0.27333 0.9321 0.0
C412 C 0.46588 0.29087 0.95085 0.0
C413 C 0.4622 0.27548 0.94394 0.0
C414 C 0.45524 0.30202 0.93415 0.0
C415 C 0.46236 0.30432 0.94605 0.0
C416 C 0.45161 0.28671 0.92728 0.0
C417 C 0.43445 0.20493 0.89394 0.0
C418 C 0.42411 0.21777 0.87797 0.0
C419 C 0.42513 0.19014 0.87419 0.0
C420 C 0.43167 0.19083 0.88603 0.0
C421 C 0.42121 0.20357 0.86999 0.0
C422 C 0.43069 0.21846 0.88983 0.0
C423 C 0.44102 0.20506 0.90643 0.0
O424 O 0.47311 0.22712 0.93722 0.0
O425 O 0.44432 0.21319 0.9436 0.0
O426 O 0.42959 0.20345 0.9152 0.0
O427 O 0.45833 0.2174 0.90874 0.0
H428 H 0.46085 0.18928 0.93215 0.0
H429 H 0.46516 0.16429 0.93959 0.0
H430 H 0.47023 0.18445 0.97632 0.0
H431 H 0.46636 0.20951 0.96876 0.0
H432 H 0.47121 0.29211 0.96001 0.0
H433 H 0.4649 0.26527 0.94782 0.0
H434 H 0.45267 0.31218 0.93006 0.0
H435 H 0.44616 0.28534 0.91814 0.0
H436 H 0.42143 0.22845 0.87501 0.0
H437 H 0.42281 0.17885 0.86841 0.0
H438 H 0.43443 0.18023 0.88905 0.0
H439 H 0.43279 0.22949 0.89581 0.0
C440 C 0.7386 0.1932 0.94998 0.0
C441 C 0.72145 0.19226 0.94785 0.0
C442 C 0.70512 0.16417 0.95976 0.0
C443 C 0.70496 0.17793 0.95264 0.0
C444 C 0.72226 0.16502 0.96176 0.0
C445 C 0.73874 0.17935 0.95699 0.0
U446 U 0.7784 0.22197 0.92697 0.0
O447 O 0.79365 0.2517 0.9241 0.0
O448 O 0.80857 0.23792 0.93031 0.0
C449 C 0.80951 0.25357 0.92789 0.0
C450 C 0.75642 0.20937 0.94607 0.0
C451 C 0.82115 0.2691 0.93615 0.0
C452 C 0.82714 0.29641 0.94736 0.0
C453 C 0.81498 0.28059 0.94085 0.0
C454 C 0.85172 0.28935 0.94483 0.0
C455 C 0.8458 0.30119 0.94925 0.0
C456 C 0.83959 0.27359 0.93835 0.0
C457 C 0.77595 0.20274 0.89441 0.0
C458 C 0.79892 0.21682 0.8783 0.0
C459 C 0.77113 0.18783 0.87474 0.0
C460 C 0.76517 0.18815 0.88658 0.0
C461 C 0.78808 0.20216 0.87039 0.0
C462 C 0.7929 0.21712 0.8902 0.0
C463 C 0.76912 0.20236 0.90688 0.0
O464 O 0.77061 0.20687 0.94431 0.0
O465 O 0.75552 0.22037 0.93797 0.0
O466 O 0.76378 0.21421 0.90932 0.0
O467 O 0.7786 0.20049 0.91579 0.0
H468 H 0.72075 0.20277 0.94265 0.0
H469 H 0.69205 0.17767 0.95076 0.0
H470 H 0.72306 0.15488 0.96733 0.0
H471 H 0.75169 0.17979 0.95905 0.0
H472 H 0.82209 0.30522 0.95054 0.0
H473 H 0.8009 0.27764 0.93925 0.0
H474 H 0.86584 0.29234 0.94628 0.0
H475 H 0.8448 0.2651 0.93478 0.0
H476 H 0.81196 0.22817 0.87527 0.0
H477 H 0.76253 0.17616 0.86906 0.0
H478 H 0.75209 0.17687 0.88966 0.0
H479 H 0.80145 0.22853 0.8961 0.0
C480 C 0.54328 0.80383 0.07915 0.0
C481 C 0.54726 0.81869 0.08672 0.0
C482 C 0.53933 0.83313 0.0703 0.0
C483 C 0.54529 0.8332 0.08234 0.0
C484 C 0.53529 0.81811 0.06283 0.0
C485 C 0.53725 0.80365 0.06721 0.0
U486 U 0.55552 0.77859 0.10343 0.0
O487 O 0.5415 0.74927 0.10762 0.0
O488 O 0.57031 0.76327 0.10127 0.0
C489 C 0.55575 0.74765 0.10428 0.0
C490 C 0.54533 0.78842 0.08344 0.0
C491 C 0.55159 0.73191 0.09645 0.0
C492 C 0.53885 0.71389 0.07802 0.0
C493 C 0.543 0.72934 0.08504 0.0
C494 C 0.55201 0.70364 0.09371 0.0
C495 C 0.54316 0.70075 0.08233 0.0
C496 C 0.55614 0.71902 0.10067 0.0
C497 C 0.57195 0.79992 0.1353 0.0
C498 C 0.58688 0.79065 0.15057 0.0
C499 C 0.5766 0.81189 0.15591 0.0
C500 C 0.57008 0.81093 0.14403 0.0
C501 C 0.58519 0.80185 0.15934 0.0
C502 C 0.58028 0.78966 0.13867 0.0
C503 C 0.5655 0.79976 0.12275 0.0
O504 O 0.5624 0.79204 0.08552 0.0
O505 O 0.5336 0.77805 0.09186 0.0
O506 O 0.54821 0.78743 0.12037 0.0
O507 O 0.57701 0.8015 0.114 0.0
H508 H 0.55197 0.81908 0.09597 0.0
H509 H 0.54871 0.84461 0.08831 0.0
H510 H 0.53038 0.81739 0.0536 0.0
H511 H 0.53404 0.79226 0.06125 0.0
H512 H 0.53196 0.71208 0.06934 0.0
H513 H 0.53938 0.73916 0.08162 0.0
H514 H 0.5559 0.69407 0.09723 0.0
H515 H 0.56286 0.7208 0.10943 0.0
H516 H 0.59321 0.78257 0.15291 0.0
H517 H 0.57527 0.82084 0.16235 0.0
H518 H 0.56374 0.819 0.14161 0.0
H519 H 0.58178 0.78099 0.13208 0.0
C520 C 0.27421 0.80926 0.08042 0.0
C521 C 0.28358 0.82554 0.08708 0.0
C522 C 0.30812 0.83867 0.07171 0.0
C523 C 0.30036 0.84012 0.08277 0.0
C524 C 0.2986 0.82224 0.06515 0.0
C525 C 0.28189 0.80775 0.06946 0.0
U526 U 0.23472 0.78282 0.10382 0.0
O527 O 0.20456 0.76692 0.1006 0.0
O528 O 0.21923 0.75328 0.10755 0.0
C529 C 0.20335 0.75141 0.10381 0.0
C530 C 0.25634 0.79371 0.08451 0.0
C531 C 0.19158 0.73534 0.09614 0.0
C532 C 0.18291 0.71926 0.07672 0.0
C533 C 0.19485 0.73471 0.08367 0.0
C534 C 0.16451 0.70498 0.09466 0.0
C535 C 0.16746 0.70423 0.08213 0.0
C536 C 0.17641 0.72032 0.10155 0.0
C537 C 0.23737 0.80305 0.13587 0.0
C538 C 0.21324 0.78995 0.15133 0.0
C539 C 0.24246 0.81707 0.15588 0.0
C540 C 0.24873 0.81672 0.14413 0.0
C541 C 0.22462 0.80371 0.15968 0.0
C542 C 0.21957 0.78961 0.13955 0.0
C543 C 0.24442 0.80333 0.12349 0.0
O544 O 0.25725 0.78329 0.09303 0.0
O545 O 0.24265 0.79701 0.08615 0.0
O546 O 0.23502 0.805 0.11444 0.0
O547 O 0.24971 0.79136 0.1213 0.0
H548 H 0.27791 0.82699 0.09559 0.0
H549 H 0.30733 0.85245 0.08815 0.0
H550 H 0.30387 0.82065 0.05652 0.0
H551 H 0.27486 0.79534 0.06414 0.0
H552 H 0.18557 0.71923 0.06709 0.0
H553 H 0.20649 0.74617 0.0793 0.0
H554 H 0.15304 0.6936 0.09922 0.0
H555 H 0.17367 0.72048 0.11117 0.0
H556 H 0.19951 0.77932 0.15395 0.0
H557 H 0.25153 0.82805 0.16191 0.0
H558 H 0.26249 0.82727 0.14146 0.0
H559 H 0.21058 0.7789 0.13331 0.0
C560 C 0.20188 0.46486 0.07782 0.0
C561 C 0.18996 0.4664 0.08615 0.0
C562 C 0.17149 0.46842 0.06943 0.0
C563 C 0.17494 0.46821 0.08199 0.0
C564 C 0.18356 0.46686 0.06119 0.0
C565 C 0.1985 0.46509 0.06534 0.0
U566 U 0.23087 0.45435 0.10097 0.0
O567 O 0.24665 0.44015 0.09772 0.0
O568 O 0.2612 0.46875 0.10351 0.0
C569 C 0.26274 0.45475 0.09996 0.0
C570 C 0.21812 0.46332 0.08173 0.0
C571 C 0.27832 0.45838 0.09167 0.0
C572 C 0.30256 0.47742 0.07716 0.0
C573 C 0.28677 0.4737 0.08399 0.0
C574 C 0.30149 0.45043 0.0854 0.0
C575 C 0.31033 0.46598 0.07792 0.0
C576 C 0.28575 0.44672 0.09217 0.0
C577 C 0.21083 0.43828 0.13376 0.0
C578 C 0.22113 0.42527 0.14973 0.0
C579 C 0.19613 0.43132 0.15368 0.0
C580 C 0.19772 0.43804 0.14184 0.0
C581 C 0.20764 0.42464 0.15778 0.0
C582 C 0.22266 0.43198 0.1378 0.0
C583 C 0.21111 0.44453 0.12113 0.0
O584 O 0.22926 0.47518 0.08983 0.0
O585 O 0.21512 0.44676 0.08372 0.0
O586 O 0.20902 0.43311 0.11237 0.0
O587 O 0.22349 0.46151 0.11858 0.0
H588 H 0.19227 0.46623 0.09584 0.0
H589 H 0.1659 0.46922 0.08862 0.0
H590 H 0.18166 0.4673 0.05147 0.0
H591 H 0.20756 0.46402 0.05874 0.0
H592 H 0.309 0.48956 0.07156 0.0
H593 H 0.2814 0.48299 0.08343 0.0
H594 H 0.30676 0.44108 0.08607 0.0
H595 H 0.27955 0.43483 0.09802 0.0
H596 H 0.23017 0.42016 0.15254 0.0
H597 H 0.18583 0.4314 0.15964 0.0
H598 H 0.18848 0.44288 0.13894 0.0
H599 H 0.23288 0.43201 0.1317 0.0
C600 C 0.40812 0.87818 0.28359 0.0
C601 C 0.40767 0.89198 0.29044 0.0
C602 C 0.37404 0.87337 0.29303 0.0
C603 C 0.3909 0.88965 0.29504 0.0
C604 C 0.37447 0.85964 0.28605 0.0
C605 C 0.39125 0.86199 0.28143 0.0
U606 U 0.44905 0.89056 0.26111 0.0
O607 O 0.47915 0.90455 0.26485 0.0
O608 O 0.4649 0.87648 0.25797 0.0
C609 C 0.48061 0.89031 0.26185 0.0
C610 C 0.42624 0.87998 0.27985 0.0
C611 C 0.49271 0.8862 0.26959 0.0
C612 C 0.49779 0.86826 0.28495 0.0
C613 C 0.48571 0.87229 0.27839 0.0
C614 C 0.52392 0.89202 0.27406 0.0
C615 C 0.51711 0.87805 0.28284 0.0
C616 C 0.5119 0.89602 0.26756 0.0
C617 C 0.44718 0.90984 0.22909 0.0
C618 C 0.46642 0.91446 0.21124 0.0
C619 C 0.44567 0.92672 0.21157 0.0
C620 C 0.43985 0.9196 0.22326 0.0
C621 C 0.45906 0.9243 0.20536 0.0
C622 C 0.46056 0.90732 0.223 0.0
C623 C 0.44018 0.90227 0.24135 0.0
O624 O 0.42587 0.86875 0.27145 0.0
O625 O 0.44041 0.89658 0.27863 0.0
O626 O 0.44905 0.91281 0.25064 0.0
O627 O 0.43524 0.8851 0.24321 0.0
H628 H 0.42037 0.90449 0.29252 0.0
H629 H 0.39127 0.90044 0.30051 0.0
H630 H 0.36181 0.847 0.28416 0.0
H631 H 0.391 0.85093 0.27635 0.0
H632 H 0.492 0.85755 0.29172 0.0
H633 H 0.47095 0.86447 0.28013 0.0
H634 H 0.53857 0.89966 0.27195 0.0
H635 H 0.51763 0.90669 0.26074 0.0
H636 H 0.47686 0.91245 0.20681 0.0
H637 H 0.4394 0.93388 0.20733 0.0
H638 H 0.42944 0.92162 0.22774 0.0
H639 H 0.46643 0.89985 0.22733 0.0
C640 C 0.13462 0.5371 0.28073 0.0
C641 C 0.12011 0.51892 0.27992 0.0
C642 C 0.13951 0.50822 0.28941 0.0
C643 C 0.12252 0.50465 0.28425 0.0
C644 C 0.15408 0.5264 0.29002 0.0
C645 C 0.15163 0.54065 0.28577 0.0
U646 U 0.12095 0.5625 0.25742 0.0
O647 O 0.10593 0.57748 0.26008 0.0
O648 O 0.13449 0.59183 0.25326 0.0
C649 C 0.12019 0.59319 0.25687 0.0
C650 C 0.13221 0.55258 0.27686 0.0
C651 C 0.12429 0.60893 0.26466 0.0
C652 C 0.13453 0.6257 0.28374 0.0
C653 C 0.13101 0.61056 0.27659 0.0
C654 C 0.12471 0.63765 0.26706 0.0
C655 C 0.13131 0.6394 0.27907 0.0
C656 C 0.12124 0.62259 0.25996 0.0
C657 C 0.10318 0.54113 0.22578 0.0
C658 C 0.09487 0.55529 0.20953 0.0
C659 C 0.09136 0.52542 0.20652 0.0
C660 C 0.09803 0.52596 0.2183 0.0
C661 C 0.08971 0.54008 0.20195 0.0
C662 C 0.10156 0.55582 0.22134 0.0
C663 C 0.11023 0.54127 0.23813 0.0
O664 O 0.14358 0.56327 0.26839 0.0
O665 O 0.11509 0.54921 0.27535 0.0
O666 O 0.09907 0.53943 0.24713 0.0
O667 O 0.12756 0.55375 0.24022 0.0
H668 H 0.10684 0.51569 0.27603 0.0
H669 H 0.11108 0.4908 0.2835 0.0
H670 H 0.16728 0.52967 0.29405 0.0
H671 H 0.16299 0.55454 0.28657 0.0
H672 H 0.13947 0.62652 0.29297 0.0
H673 H 0.13342 0.60011 0.28038 0.0
H674 H 0.12239 0.64804 0.26307 0.0
H675 H 0.11614 0.62162 0.25075 0.0
H676 H 0.09396 0.5669 0.20629 0.0
H677 H 0.08724 0.51336 0.20106 0.0
H678 H 0.09912 0.51446 0.22159 0.0
H679 H 0.10551 0.56767 0.227 0.0
C680 C 0.40301 0.53115 0.28205 0.0
C681 C 0.39743 0.51301 0.27902 0.0
C682 C 0.36949 0.50199 0.29149 0.0
C683 C 0.38085 0.49859 0.28369 0.0
C684 C 0.37501 0.52024 0.29425 0.0
C685 C 0.39155 0.53459 0.2896 0.0
U686 U 0.44314 0.55762 0.25897 0.0
O687 O 0.45839 0.58712 0.25503 0.0
O688 O 0.47318 0.57388 0.26247 0.0
C689 C 0.47422 0.58927 0.2591 0.0
C690 C 0.42099 0.54671 0.27801 0.0
C691 C 0.48559 0.60551 0.26676 0.0
C692 C 0.49723 0.62038 0.28638 0.0
C693 C 0.48526 0.60483 0.27954 0.0
C694 C 0.50973 0.63744 0.26777 0.0
C695 C 0.50983 0.63684 0.28057 0.0
C696 C 0.49778 0.62198 0.26098 0.0
C697 C 0.44097 0.53688 0.22708 0.0
C698 C 0.46528 0.54906 0.21171 0.0
C699 C 0.43532 0.523 0.207 0.0
C700 C 0.42918 0.5236 0.21874 0.0
C701 C 0.45345 0.53571 0.20328 0.0
C702 C 0.45908 0.54966 0.22349 0.0
C703 C 0.43393 0.53687 0.23943 0.0
O704 O 0.4349 0.54365 0.27668 0.0
O705 O 0.42024 0.5571 0.26939 0.0
O706 O 0.42843 0.54872 0.24141 0.0
O707 O 0.44337 0.53551 0.24859 0.0
H708 H 0.40601 0.50995 0.27321 0.0
H709 H 0.37719 0.48475 0.28142 0.0
H710 H 0.36654 0.52349 0.30001 0.0
H711 H 0.39551 0.54846 0.29205 0.0
H712 H 0.49698 0.61936 0.29621 0.0
H713 H 0.47598 0.59226 0.28421 0.0
H714 H 0.51893 0.64989 0.26296 0.0
H715 H 0.49826 0.62285 0.25114 0.0
H716 H 0.47927 0.55918 0.20916 0.0
H717 H 0.42589 0.51233 0.20089 0.0
H718 H 0.41517 0.51356 0.22133 0.0
H719 H 0.4684 0.56007 0.22979 0.0
Gd720 Gd 0.51169 0.01455 0.02948 0.0
Gd721 Gd 0.49804 0.99268 0.9994 0.0
C722 C 0.44149 0.94195 0.99409 0.0
C723 C 0.44984 0.91902 0.98926 0.0
C724 C 0.47393 0.95041 0.99301 0.0
C725 C 0.46045 0.95516 0.99527 0.0
C726 C 0.46869 0.93236 0.9897 0.0
C727 C 0.43628 0.92381 0.99142 0.0
C728 C 0.42829 0.94746 0.99513 0.0
C729 C 0.43406 0.96579 0.99706 0.0
N730 N 0.46581 0.97285 0.99782 0.0
C731 C 0.45296 0.97841 0.99819 0.0
H732 H 0.45696 0.99247 0.99956 0.0
C733 C 0.50553 0.95995 0.98947 0.0
N734 N 0.49209 0.96361 0.9933 0.0
C735 C 0.50098 0.94226 0.98622 0.0
C736 C 0.48251 0.92834 0.9865 0.0
H737 H 0.51993 0.97047 0.98956 0.0
H738 H 0.42177 0.91348 0.99065 0.0
H739 H 0.5517 0.01381 0.03021 0.0
H740 H 0.41368 0.93776 0.99401 0.0
H741 H 0.42398 0.97027 0.99759 0.0
H742 H 0.44559 0.90506 0.98687 0.0
H743 H 0.49053 0.03752 0.03766 0.0
H744 H 0.59642 0.06856 0.03406 0.0
H745 H 0.5852 0.03563 0.03164 0.0
H746 H 0.56537 0.10272 0.04017 0.0
H747 H 0.51176 0.93935 0.98358 0.0
H748 H 0.47902 0.91464 0.98394 0.0
H749 H 0.58888 0.09357 0.0371 0.0
H750 H 0.49883 0.06923 0.04253 0.0
N751 N 0.5439 0.03415 0.03147 0.0
C752 C 0.58166 0.05903 0.03345 0.0
C753 C 0.57538 0.04045 0.03211 0.0
C754 C 0.56879 0.065 0.03436 0.0
C755 C 0.54974 0.05203 0.03342 0.0
C756 C 0.55633 0.0281 0.03132 0.0
N757 N 0.51843 0.04415 0.03466 0.0
C758 C 0.53658 0.0572 0.03508 0.0
C759 C 0.50958 0.06604 0.04041 0.0
C760 C 0.52818 0.07982 0.04031 0.0
C761 C 0.50493 0.04812 0.03769 0.0
C762 C 0.54198 0.07544 0.03779 0.0
H763 H 0.53175 0.09368 0.04243 0.0
O764 O 0.49709 0.00986 0.04669 0.0
O765 O 0.48953 0.99152 0.01878 0.0
O766 O 0.48832 0.01313 1.00255 0.0
O767 O 0.50942 0.03396 0.01639 0.0
O768 O 0.48103 0.00479 0.03051 0.0
O769 O 0.52015 0.00498 0.04528 0.0
O770 O 0.51266 0.01404 0.98582 0.0
O771 O 0.52033 0.01455 1.01033 0.0
O772 O 0.51863 0.9919 0.0282 0.0
O773 O 0.50465 0.97432 0.01079 0.0
O774 O 0.52835 1.00091 0.99842 0.0
O775 O 0.489 0.98888 0.98045 0.0
C776 C 0.47533 0.99119 0.02315 0.0
C777 C 0.56093 0.08858 0.03822 0.0
C778 C 0.57431 0.08337 0.03648 0.0
C779 C 0.50778 0.00516 0.05244 0.0
C780 C 0.51421 0.01306 0.06466 0.0
C781 C 0.52755 0.03152 0.06594 0.0
C782 C 0.50694 1.00212 0.07516 0.0
C783 C 0.51284 0.00967 0.0869 0.0
C784 C 0.53354 0.03904 0.07748 0.0
C785 C 0.52628 0.02827 0.08787 0.0
C786 C 0.49741 0.02971 1.00734 0.0
C787 C 0.53434 0.01421 1.00616 0.0
C788 C 0.50245 0.00447 0.97676 0.0
C789 C 0.51228 0.00417 0.96565 0.0
C790 C 0.52283 0.99548 0.96587 0.0
C791 C 0.51093 0.01222 0.9547 0.0
C792 C 0.51962 0.01097 0.94399 0.0
C793 C 0.53124 0.99402 0.95533 0.0
C794 C 0.52956 1.00158 0.94445 0.0
C795 C 0.51349 0.97729 0.02133 0.0
H796 H 0.53335 0.0401 0.05803 0.0
H797 H 0.49654 0.98786 0.07418 0.0
H798 H 0.5439 0.05331 0.07838 0.0
H799 H 0.53137 0.0345 0.09668 0.0
H800 H 0.52459 0.98982 0.97421 0.0
H801 H 0.50297 0.01916 0.95448 0.0
H802 H 0.53926 0.98716 0.95561 0.0
H803 H 0.53653 1.00052 0.93645 0.0
Gd804 Gd 0.99616 0.5002 0.02777 0.0
Gd805 Gd 0.01943 0.50996 0.99816 0.0
C806 C 0.07198 0.50837 0.98911 0.0
C807 C 0.09368 0.54007 0.98428 0.0
C808 C 0.06231 0.53089 0.99077 0.0
C809 C 0.05845 0.51309 0.99206 0.0
C810 C 0.07996 0.54459 0.98685 0.0
C811 C 0.08961 0.52197 0.98525 0.0
C812 C 0.06713 0.49002 0.98962 0.0
C813 C 0.04918 0.47689 0.99294 0.0
N814 N 0.04105 0.50017 0.99533 0.0
C815 C 0.03617 0.4822 0.9956 0.0
H816 H 0.02224 0.47184 0.99789 0.0
C817 C 0.05114 0.55165 0.99044 0.0
N818 N 0.04845 0.5346 0.99264 0.0
C819 C 0.06854 0.56579 0.9869 0.0
C820 C 0.08306 0.56228 0.98514 0.0
H821 H 0.03993 0.55444 0.99166 0.0
H822 H 0.10004 0.51858 0.98266 0.0
H823 H 0.99359 0.53861 0.02823 0.0
H824 H 0.07692 0.48576 0.98711 0.0
H825 H 0.04526 0.46264 0.99324 0.0
H826 H 0.10728 0.55037 0.98116 0.0
H827 H 0.97554 0.45689 0.03707 0.0
H828 H 0.93655 0.52385 0.0311 0.0
H829 H 0.9696 0.54747 0.0291 0.0
H830 H 0.90578 0.45935 0.03792 0.0
H831 H 0.0707 0.57935 0.9854 0.0
H832 H 0.09646 0.57319 0.98219 0.0
H833 H 0.91275 0.49083 0.03423 0.0
H834 H 0.94401 0.43194 0.04203 0.0
N835 N 0.97438 0.51015 0.02937 0.0
C836 C 0.94704 0.51986 0.03072 0.0
C837 C 0.96568 0.53323 0.02964 0.0
C838 C 0.94225 0.50157 0.03179 0.0
C839 C 0.95645 0.49712 0.03118 0.0
C840 C 0.97927 0.52813 0.02916 0.0
N841 N 0.96678 0.47606 0.03328 0.0
C842 C 0.95253 0.47948 0.03325 0.0
C843 C 0.9462 0.44523 0.03953 0.0
C844 C 0.93121 0.44831 0.03897 0.0
C845 C 0.96403 0.45939 0.03676 0.0
C846 C 0.93431 0.46568 0.03598 0.0
H847 H 0.91742 0.43733 0.04114 0.0
O848 O 1.0019 0.49226 0.04537 0.0
O849 O 0.02007 0.50225 0.01739 0.0
O850 O 0.99829 0.47965 1.00042 0.0
O851 O 0.97707 0.47765 0.015 0.0
O852 O 0.0073 0.48073 0.02921 0.0
O853 O 1.00604 0.51937 0.04281 0.0
O854 O 0.01343 0.51854 0.98088 0.0
O855 O 0.99545 0.50752 1.00849 0.0
O856 O 0.01736 0.53038 0.0252 0.0
O857 O 0.039 0.53149 0.01139 0.0
O858 O 0.0083 0.52944 0.99701 0.0
O859 O 0.00929 0.49132 0.98284 0.0
C860 C 0.02085 0.48879 0.02167 0.0
C861 C 0.91992 0.4698 0.03598 0.0
C862 C 0.92389 0.48773 0.03387 0.0
C863 C 0.00626 0.50775 0.05051 0.0
C864 C 0.99803 0.50682 0.0625 0.0
C865 C 0.97907 0.50086 0.06354 0.0
C866 C 0.00928 0.51223 0.07299 0.0
C867 C 1.00163 0.51176 0.08451 0.0
C868 C 0.97138 0.50026 0.0749 0.0
C869 C 0.98253 0.50565 0.08531 0.0
C870 C 0.98173 0.47088 1.00568 0.0
C871 C 0.99453 0.52093 1.00431 0.0
C872 C 0.00883 0.50317 0.97547 0.0
C873 C 0.01644 0.50437 0.96321 0.0
C874 C 0.03518 0.5097 0.96165 0.0
C875 C 1.00476 0.49976 0.95296 0.0
C876 C 0.01173 0.50025 0.9412 0.0
C877 C 0.04221 0.51037 0.95005 0.0
C878 C 0.0306 0.50564 0.93989 0.0
C879 C 0.03427 0.53864 0.02044 0.0
H880 H 0.97024 0.49671 0.05559 0.0
H881 H 0.02399 0.51704 0.07214 0.0
H882 H 0.95671 0.49557 0.07565 0.0
H883 H 0.97611 0.5048 0.09403 0.0
H884 H 0.04435 0.51328 0.96938 0.0
H885 H 0.99022 0.49546 0.95417 0.0
H886 H 0.05671 0.51453 0.94892 0.0
H887 H 0.03645 0.50641 0.93097 0.0
Gd888 Gd 0.4987 0.50791 0.9995 0.0
Gd889 Gd 0.51299 0.49867 0.02936 0.0
C890 C 0.56926 0.50246 0.0343 0.0
C891 C 0.56046 0.47088 0.03812 0.0
C892 C 0.53679 0.4793 0.03497 0.0
C893 C 0.55036 0.49728 0.03336 0.0
C894 C 0.54165 0.46593 0.03762 0.0
C895 C 0.57424 0.48911 0.03645 0.0
C896 C 0.58257 0.52095 0.03331 0.0
C897 C 0.57685 0.53378 0.03183 0.0
N898 N 0.54505 0.50982 0.03134 0.0
C899 C 0.55792 0.52797 0.03102 0.0
H900 H 0.55374 0.53803 0.0298 0.0
C901 C 0.50491 0.45787 0.03735 0.0
N902 N 0.51879 0.47502 0.03447 0.0
C903 C 0.50902 0.44411 0.03996 0.0
C904 C 0.52747 0.4481 0.03996 0.0
H905 H 0.49063 0.45472 0.03728 0.0
H906 H 0.5887 0.4928 0.03709 0.0
H907 H 0.45751 0.46873 0.99922 0.0
H908 H 0.59724 0.52549 0.03393 0.0
H909 H 0.58702 0.54814 0.03126 0.0
H910 H 0.56448 0.46078 0.04003 0.0
H911 H 0.52049 0.55059 0.98904 0.0
H912 H 0.41433 0.48196 0.99693 0.0
H913 H 0.42432 0.45902 0.99873 0.0
H914 H 0.44744 0.54646 0.98984 0.0
H915 H 0.49797 0.43044 0.04196 0.0
H916 H 0.53062 0.43743 0.04202 0.0
H917 H 0.42312 0.51476 0.99383 0.0
H918 H 0.51336 0.57496 0.98417 0.0
N919 N 0.46653 0.49706 0.99798 0.0
C920 C 0.42898 0.48633 0.9971 0.0
C921 C 0.43457 0.47335 0.99808 0.0
C922 C 0.44239 0.50474 0.99589 0.0
C923 C 0.46127 0.50968 0.99623 0.0
C924 C 0.4535 0.47895 0.99833 0.0
N925 N 0.49267 0.53119 0.99361 0.0
C926 C 0.47483 0.52738 0.99396 0.0
C927 C 0.50238 0.56165 0.98696 0.0
C928 C 0.4842 0.55825 0.98802 0.0
C929 C 0.50636 0.54781 0.98966 0.0
C930 C 0.47008 0.54083 0.99132 0.0
H931 H 0.48115 0.56899 0.98595 0.0
O932 O 0.51262 0.51592 0.98194 0.0
O933 O 0.52075 0.50652 1.01006 0.0
O934 O 0.52113 0.52853 0.02754 0.0
O935 O 0.50354 0.53125 0.01183 0.0
O936 O 0.5295 0.52776 0.99801 0.0
O937 O 0.49008 0.48848 0.98462 0.0
O938 O 0.49775 0.4897 0.04637 0.0
O939 O 0.4912 0.50071 0.01892 0.0
O940 O 0.48956 0.47787 1.00234 0.0
O941 O 0.51021 0.47693 0.01628 0.0
O942 O 0.48217 0.47883 0.03053 0.0
O943 O 0.52236 0.51632 0.04526 0.0
C944 C 0.53505 0.51996 1.00566 0.0
C945 C 0.45138 0.53627 0.99167 0.0
C946 C 0.43754 0.51823 0.99395 0.0
C947 C 0.50192 0.50015 0.9769 0.0
C948 C 0.49463 0.50031 0.9647 0.0
C949 C 0.48028 0.5043 0.96334 0.0
C950 C 0.50168 0.496 0.95434 0.0
C951 C 0.49419 0.4954 0.94268 0.0
C952 C 0.47294 0.50389 0.95185 0.0
C953 C 0.47976 0.49944 0.94161 0.0
C954 C 0.5141 0.53744 0.0217 0.0
C955 C 0.47682 0.48722 0.02321 0.0
C956 C 0.50916 0.50449 0.05225 0.0
C957 C 0.51457 0.50199 0.06457 0.0
C958 C 0.52536 0.49368 0.06617 0.0
C959 C 0.5087 0.50771 0.07485 0.0
C960 C 0.51355 0.5051 0.08672 0.0
C961 C 0.53012 0.49095 0.07784 0.0
C962 C 0.52425 0.49652 0.08802 0.0
C963 C 0.49814 0.46974 1.00725 0.0
H964 H 0.4747 0.50763 0.97118 0.0
H965 H 0.51268 0.49278 0.95539 0.0
H966 H 0.46188 0.50701 0.95087 0.0
H967 H 0.47388 0.49938 0.93279 0.0
H968 H 0.53001 0.48923 0.05841 0.0
H969 H 0.50055 0.51434 0.07356 0.0
H970 H 0.53833 0.48439 0.07901 0.0
H971 H 0.5279 0.49384 0.09694 0.0
Gd972 Gd 0.17941 0.34926 0.36237 0.0
Gd973 Gd 0.16551 0.32721 0.33218 0.0
C974 C 0.1092 0.27591 0.3265 0.0
C975 C 0.11806 0.25331 0.32166 0.0
C976 C 0.14167 0.28478 0.32548 0.0
C977 C 0.1281 0.28927 0.32754 0.0
C978 C 0.13685 0.26685 0.32224 0.0
C979 C 0.10425 0.25782 0.32382 0.0
C980 C 0.09588 0.28122 0.3279 0.0
C981 C 0.10158 0.29957 0.32981 0.0
N982 N 0.13342 0.30689 0.33001 0.0
C983 C 0.12051 0.31234 0.33066 0.0
H984 H 0.12465 0.32643 0.3322 0.0
C985 C 0.17353 0.29497 0.32271 0.0
N986 N 0.15964 0.29822 0.32606 0.0
C987 C 0.16947 0.27739 0.31946 0.0
C988 C 0.15106 0.26321 0.31937 0.0
H989 H 0.1878 0.30585 0.32287 0.0
H990 H 0.0898 0.24733 0.32311 0.0
H991 H 0.22028 0.35024 0.36314 0.0
H992 H 0.08121 0.27137 0.32723 0.0
H993 H 0.0914 0.3039 0.33067 0.0
H994 H 0.11406 0.2394 0.31931 0.0
H995 H 0.15669 0.37078 0.37065 0.0
H996 H 0.26348 0.40559 0.36745 0.0
H997 H 0.2535 0.37297 0.36474 0.0
H998 H 0.23021 0.43758 0.37373 0.0
H999 H 0.18054 0.27479 0.31706 0.0
H1000 H 0.14794 0.24961 0.31682 0.0
H1001 H 0.25464 0.42966 0.3707 0.0
H1002 H 0.16371 0.40208 0.37551 0.0
N1003 N 0.21139 0.36976 0.36463 0.0
C1004 C 0.24883 0.39565 0.36677 0.0
C1005 C 0.24326 0.37725 0.36527 0.0
C1006 C 0.23542 0.40092 0.36774 0.0
C1007 C 0.21656 0.38745 0.36672 0.0
C1008 C 0.22436 0.36438 0.36438 0.0
N1009 N 0.18493 0.37838 0.36791 0.0
C1010 C 0.20288 0.3919 0.36844 0.0
C1011 C 0.17486 0.39941 0.37351 0.0
C1012 C 0.19324 0.41365 0.37357 0.0
C1013 C 0.17093 0.38171 0.3708 0.0
C1014 C 0.20756 0.40995 0.3712 0.0
H1015 H 0.19625 0.42735 0.37569 0.0
O1016 O 0.1646 0.34324 0.37959 0.0
O1017 O 0.15753 0.3265 0.35154 0.0
O1018 O 0.157 0.3487 0.33502 0.0
O1019 O 0.17729 0.36897 0.3495 0.0
O1020 O 0.14867 0.33918 0.36346 0.0
O1021 O 0.18808 0.33909 0.37774 0.0
O1022 O 0.18064 0.33398 0.31507 0.0
O1023 O 0.1874 0.34965 0.34311 0.0
O1024 O 0.18787 0.32767 0.35972 0.0
O1025 O 0.16858 0.30767 0.34467 0.0
O1026 O 0.19628 0.33721 0.33105 0.0
O1027 O 0.15692 0.3377 0.31693 0.0
C1028 C 0.14321 0.32591 0.35586 0.0
C1029 C 0.22632 0.42359 0.37173 0.0
C1030 C 0.24023 0.41908 0.37 0.0
C1031 C 0.17553 0.3386 0.38507 0.0
C1032 C 0.18187 0.34603 0.3974 0.0
C1033 C 0.19484 0.36454 0.39896 0.0
C1034 C 0.17515 0.33452 0.40769 0.0
C1035 C 0.18161 0.34149 0.41948 0.0
C1036 C 0.20112 0.37154 0.41058 0.0
C1037 C 0.19462 0.36016 0.42075 0.0
C1038 C 0.16578 0.36505 0.34018 0.0
C1039 C 0.20174 0.35022 0.33886 0.0
C1040 C 0.16967 0.33859 0.30963 0.0
C1041 C 0.1636 0.3314 0.29723 0.0
C1042 C 0.15091 0.31286 0.29547 0.0
C1043 C 0.17034 0.34314 0.28706 0.0
C1044 C 0.16419 0.33636 0.27519 0.0
C1045 C 0.14495 0.30603 0.28378 0.0
C1046 C 0.15148 0.31764 0.27372 0.0
C1047 C 0.17986 0.31161 0.35414 0.0
H1048 H 0.20015 0.37356 0.3912 0.0
H1049 H 0.16524 0.32017 0.40648 0.0
H1050 H 0.2111 0.38588 0.41172 0.0
H1051 H 0.19967 0.36605 0.42966 0.0
H1052 H 0.14556 0.30366 0.30314 0.0
H1053 H 0.18002 0.35752 0.28841 0.0
H1054 H 0.13519 0.29168 0.2825 0.0
H1055 H 0.14668 0.31191 0.26475 0.0
Gd1056 Gd 0.66072 0.8314 0.3629 0.0
Gd1057 Gd 0.68362 0.84216 0.33313 0.0
C1058 C 0.73758 0.84144 0.32762 0.0
C1059 C 0.75945 0.87326 0.32323 0.0
C1060 C 0.72698 0.86334 0.32694 0.0
C1061 C 0.7233 0.8457 0.32874 0.0
C1062 C 0.74498 0.87723 0.32381 0.0
C1063 C 0.75576 0.85539 0.32517 0.0
C1064 C 0.73305 0.8232 0.3286 0.0
C1065 C 0.71454 0.8097 0.33014 0.0
N1066 N 0.70554 0.83253 0.3309 0.0
C1067 C 0.70085 0.81461 0.33107 0.0
H1068 H 0.68662 0.80404 0.3323 0.0
C1069 C 0.71504 0.88322 0.3241 0.0
N1070 N 0.71266 0.86665 0.32748 0.0
C1071 C 0.73262 0.89745 0.32092 0.0
C1072 C 0.74773 0.89453 0.32095 0.0
H1073 H 0.70343 0.88557 0.32412 0.0
H1074 H 0.76695 0.85242 0.32439 0.0
H1075 H 0.65851 0.86985 0.36332 0.0
H1076 H 0.74362 0.81936 0.32785 0.0
H1077 H 0.71082 0.79551 0.33065 0.0
H1078 H 0.77342 0.88379 0.32098 0.0
H1079 H 0.64008 0.78729 0.37021 0.0
H1080 H 0.60326 0.85632 0.37242 0.0
H1081 H 0.63543 0.8793 0.36712 0.0
H1082 H 0.57264 0.79186 0.37926 0.0
H1083 H 0.73453 0.91066 0.31849 0.0
H1084 H 0.76134 0.90556 0.31847 0.0
H1085 H 0.58013 0.8237 0.37738 0.0
H1086 H 0.60916 0.76262 0.37651 0.0
N1087 N 0.63933 0.84154 0.36552 0.0
C1088 C 0.61319 0.85198 0.37043 0.0
C1089 C 0.63137 0.86502 0.36751 0.0
C1090 C 0.60824 0.8336 0.37116 0.0
C1091 C 0.62177 0.82873 0.36855 0.0
C1092 C 0.64442 0.85957 0.36531 0.0
N1093 N 0.63158 0.80706 0.36847 0.0
C1094 C 0.61774 0.81089 0.37001 0.0
C1095 C 0.61136 0.77612 0.37468 0.0
C1096 C 0.59682 0.77972 0.376 0.0
C1097 C 0.62884 0.79011 0.3711 0.0
C1098 C 0.6 0.79735 0.37391 0.0
H1099 H 0.58336 0.76893 0.37896 0.0
O1100 O 0.66734 0.82256 0.37985 0.0
O1101 O 0.68456 0.83412 0.35224 0.0
O1102 O 0.66228 0.81183 0.33511 0.0
O1103 O 0.64118 0.80963 0.34985 0.0
O1104 O 0.67175 0.81185 0.3635 0.0
O1105 O 0.66971 0.84915 0.37871 0.0
O1106 O 0.67536 0.84998 0.31643 0.0
O1107 O 0.65969 0.83937 0.34381 0.0
O1108 O 0.68247 0.86163 0.36124 0.0
O1109 O 0.70313 0.86448 0.34593 0.0
O1110 O 0.67267 0.8618 0.33274 0.0
O1111 O 0.67608 0.82484 0.31708 0.0
C1112 C 0.68546 0.82057 0.35617 0.0
C1113 C 0.5863 0.80203 0.37615 0.0
C1114 C 0.59051 0.82015 0.37495 0.0
C1115 C 0.67088 0.83732 0.38572 0.0
C1116 C 0.66278 0.83477 0.39796 0.0
C1117 C 0.64379 0.82839 0.39938 0.0
C1118 C 0.67411 0.83863 0.40834 0.0
C1119 C 0.6664 0.83586 0.4201 0.0
C1120 C 0.6361 0.8257 0.41097 0.0
C1121 C 0.64727 0.82935 0.42126 0.0
C1122 C 0.64568 0.80306 0.34034 0.0
C1123 C 0.65888 0.85305 0.34002 0.0
C1124 C 0.67336 0.83595 0.31031 0.0
C1125 C 0.68152 0.83977 0.29804 0.0
C1126 C 0.70078 0.84993 0.29654 0.0
C1127 C 0.66993 0.83366 0.2877 0.0
C1128 C 0.67753 0.8379 0.27586 0.0
C1129 C 0.70843 0.85429 0.28492 0.0
C1130 C 0.69697 0.84848 0.27467 0.0
C1131 C 0.69888 0.87061 0.3558 0.0
H1132 H 0.63491 0.82552 0.39156 0.0
H1133 H 0.68879 0.84351 0.40725 0.0
H1134 H 0.62142 0.82079 0.41198 0.0
H1135 H 0.64096 0.82731 0.43016 0.0
H1136 H 0.70991 0.85463 0.30433 0.0
H1137 H 0.65506 0.82553 0.28893 0.0
H1138 H 0.72332 0.86235 0.28385 0.0
H1139 H 0.70341 0.85254 0.26582 0.0
Gd1140 Gd 0.16568 0.84108 0.33353 0.0
Gd1141 Gd 0.18081 0.83287 0.36331 0.0
C1142 C 0.23762 0.83765 0.36798 0.0
C1143 C 0.22934 0.80627 0.37206 0.0
C1144 C 0.20529 0.8142 0.36899 0.0
C1145 C 0.21863 0.8322 0.36717 0.0
C1146 C 0.21046 0.80107 0.37171 0.0
C1147 C 0.2429 0.82453 0.37019 0.0
C1148 C 0.25071 0.85617 0.36679 0.0
C1149 C 0.24471 0.86877 0.36527 0.0
N1150 N 0.21302 0.8445 0.3651 0.0
C1151 C 0.22571 0.86269 0.36461 0.0
H1152 H 0.22136 0.87262 0.36336 0.0
C1153 C 0.17357 0.79252 0.37172 0.0
N1154 N 0.18722 0.80968 0.36864 0.0
C1155 C 0.17798 0.77898 0.3744 0.0
C1156 C 0.1965 0.78322 0.37426 0.0
H1157 H 0.15923 0.78917 0.37174 0.0
H1158 H 0.25742 0.82843 0.37072 0.0
H1159 H 0.12423 0.80246 0.33425 0.0
H1160 H 0.26543 0.86091 0.3673 0.0
H1161 H 0.2547 0.88316 0.36455 0.0
H1162 H 0.2336 0.79636 0.37403 0.0
H1163 H 0.1886 0.88401 0.32347 0.0
H1164 H 0.08173 0.81638 0.33006 0.0
H1165 H 0.09115 0.79322 0.3333 0.0
H1166 H 0.11583 0.88036 0.32129 0.0
H1167 H 0.16711 0.7653 0.37656 0.0
H1168 H 0.19989 0.77272 0.37638 0.0
H1169 H 0.09109 0.84901 0.3257 0.0
H1170 H 0.182 0.90837 0.31757 0.0
N1171 N 0.13368 0.83074 0.33196 0.0
C1172 C 0.09632 0.82054 0.33048 0.0
C1173 C 0.10158 0.80743 0.33228 0.0
C1174 C 0.10998 0.83878 0.32884 0.0
C1175 C 0.12877 0.84347 0.32956 0.0
C1176 C 0.12042 0.81276 0.3328 0.0
N1177 N 0.16043 0.86474 0.32736 0.0
C1178 C 0.14261 0.86106 0.32715 0.0
C1179 C 0.17079 0.89515 0.3203 0.0
C1180 C 0.15258 0.89182 0.32058 0.0
C1181 C 0.17448 0.88131 0.32362 0.0
C1182 C 0.13818 0.87453 0.32387 0.0
H1183 H 0.14976 0.90255 0.318 0.0
O1184 O 0.18004 0.8481 0.31614 0.0
O1185 O 0.18803 0.83991 0.34389 0.0
O1186 O 0.18903 0.8627 0.36067 0.0
O1187 O 0.16947 0.86399 0.3459 0.0
O1188 O 0.19644 0.86097 0.33172 0.0
O1189 O 0.15557 0.82173 0.31855 0.0
O1190 O 0.16644 0.824 0.38065 0.0
O1191 O 0.15851 0.83426 0.35304 0.0
O1192 O 0.15652 0.81115 0.3367 0.0
O1193 O 0.17769 0.81074 0.35042 0.0
O1194 O 0.15012 0.8128 0.36492 0.0
O1195 O 0.18968 0.85134 0.37876 0.0
C1196 C 0.2022 0.85329 0.33932 0.0
C1197 C 0.11952 0.87016 0.32366 0.0
C1198 C 0.10544 0.85231 0.32617 0.0
C1199 C 0.16826 0.83278 0.31097 0.0
C1200 C 0.16189 0.8341 0.29868 0.0
C1201 C 0.14939 0.84048 0.29714 0.0
C1202 C 0.16836 0.82902 0.28839 0.0
C1203 C 0.16225 0.8302 0.27658 0.0
C1204 C 0.14345 0.84187 0.28553 0.0
C1205 C 0.14981 0.83683 0.27534 0.0
C1206 C 0.18101 0.87104 0.35525 0.0
C1207 C 0.14436 0.8208 0.35758 0.0
C1208 C 0.17735 0.83935 0.38613 0.0
C1209 C 0.18389 0.83807 0.39837 0.0
C1210 C 0.19727 0.83278 0.39979 0.0
C1211 C 0.17683 0.84231 0.40876 0.0
C1212 C 0.18327 0.84144 0.42051 0.0
C1213 C 0.20357 0.83172 0.41137 0.0
C1214 C 0.19668 0.83602 0.42164 0.0
C1215 C 0.16534 0.80323 0.34155 0.0
H1216 H 0.14426 0.84441 0.30492 0.0
H1217 H 0.17792 0.82398 0.28961 0.0
H1218 H 0.1339 0.84694 0.28441 0.0
H1219 H 0.14514 0.83838 0.26644 0.0
H1220 H 0.20285 0.82949 0.39195 0.0
H1221 H 0.1666 0.84656 0.40765 0.0
H1222 H 0.21385 0.82756 0.41239 0.0
H1223 H 0.20172 0.83489 0.43051 0.0
Gd1224 Gd 0.84708 0.68276 0.69578 0.0
Gd1225 Gd 0.83286 0.6613 0.66539 0.0
C1226 C 0.77548 0.61231 0.65819 0.0
C1227 C 0.78272 0.58835 0.65412 0.0
C1228 C 0.80742 0.61916 0.65855 0.0
C1229 C 0.79454 0.62478 0.65985 0.0
C1230 C 0.80171 0.60097 0.65542 0.0
C1231 C 0.76963 0.59401 0.65552 0.0
C1232 C 0.76292 0.61867 0.65912 0.0
C1233 C 0.76951 0.63712 0.66135 0.0
N1234 N 0.80068 0.64255 0.6625 0.0
C1235 C 0.78855 0.64898 0.66288 0.0
H1236 H 0.79336 0.66316 0.66465 0.0
C1237 C 0.839 0.62731 0.65726 0.0
N1238 N 0.82564 0.6317 0.65982 0.0
C1239 C 0.83403 0.60942 0.65423 0.0
C1240 C 0.8153 0.59613 0.65344 0.0
H1241 H 0.85349 0.63756 0.65792 0.0
H1242 H 0.75504 0.5842 0.65431 0.0
H1243 H 0.8882 0.6841 0.69495 0.0
H1244 H 0.74816 0.60951 0.65796 0.0
H1245 H 0.75993 0.64222 0.66193 0.0
H1246 H 0.77804 0.57427 0.65182 0.0
H1247 H 0.82479 0.70292 0.70719 0.0
H1248 H 0.93133 0.73921 0.70023 0.0
H1249 H 0.92139 0.70687 0.69622 0.0
H1250 H 0.89805 0.77001 0.71042 0.0
H1251 H 0.84465 0.60589 0.6525 0.0
H1252 H 0.81148 0.58228 0.65103 0.0
H1253 H 0.92247 0.76278 0.70538 0.0
H1254 H 0.83184 0.73341 0.71422 0.0
N1255 N 0.87918 0.70333 0.69775 0.0
C1256 C 0.91668 0.72926 0.69965 0.0
C1257 C 0.91113 0.71101 0.69743 0.0
C1258 C 0.90324 0.7343 0.70155 0.0
C1259 C 0.88437 0.72081 0.70061 0.0
C1260 C 0.89222 0.69811 0.69672 0.0
N1261 N 0.85284 0.71127 0.70294 0.0
C1262 C 0.87072 0.72491 0.70333 0.0
C1263 C 0.84291 0.73124 0.71111 0.0
C1264 C 0.86119 0.74568 0.71095 0.0
C1265 C 0.83897 0.71398 0.70715 0.0
C1266 C 0.87542 0.74256 0.7072 0.0
H1267 H 0.86421 0.75904 0.71402 0.0
O1268 O 0.83215 0.67457 0.71299 0.0
O1269 O 0.82479 0.66079 0.68466 0.0
O1270 O 0.82585 0.68392 0.66792 0.0
O1271 O 0.84365 0.70281 0.68399 0.0
O1272 O 0.81646 0.67322 0.69714 0.0
O1273 O 0.85617 0.67163 0.71039 0.0
O1274 O 0.84806 0.66654 0.64839 0.0
O1275 O 0.85491 0.68381 0.67629 0.0
O1276 O 0.85583 0.66168 0.69214 0.0
O1277 O 0.83431 0.64118 0.67834 0.0
O1278 O 0.86345 0.67077 0.6644 0.0
O1279 O 0.82553 0.67221 0.64976 0.0
C1280 C 0.81066 0.6605 0.68909 0.0
C1281 C 0.89415 0.7563 0.7076 0.0
C1282 C 0.90805 0.75218 0.70474 0.0
C1283 C 0.84346 0.67002 0.71799 0.0
C1284 C 0.84977 0.67674 0.73048 0.0
C1285 C 0.86225 0.69529 0.73241 0.0
C1286 C 0.84351 0.66466 0.74051 0.0
C1287 C 0.84992 0.67115 0.75242 0.0
C1288 C 0.86842 0.70182 0.74412 0.0
C1289 C 0.86234 0.68993 0.75403 0.0
C1290 C 0.83327 0.69951 0.67408 0.0
C1291 C 0.86911 0.6842 0.6719 0.0
C1292 C 0.83795 0.67198 0.64266 0.0
C1293 C 0.83176 0.66472 0.63026 0.0
C1294 C 0.81907 0.64616 0.62857 0.0
C1295 C 0.83836 0.67638 0.62004 0.0
C1296 C 0.83205 0.6695 0.6082 0.0
C1297 C 0.81297 0.63924 0.61692 0.0
C1298 C 0.81934 0.65077 0.60682 0.0
C1299 C 0.84642 0.64518 0.68731 0.0
H1300 H 0.86725 0.70473 0.72487 0.0
H1301 H 0.83397 0.65028 0.73902 0.0
H1302 H 0.87798 0.7162 0.74553 0.0
H1303 H 0.86725 0.69553 0.76301 0.0
H1304 H 0.81385 0.63701 0.63625 0.0
H1305 H 0.84805 0.69078 0.62132 0.0
H1306 H 0.8032 0.62487 0.6157 0.0
H1307 H 0.81441 0.64496 0.59788 0.0
Gd1308 Gd 0.32921 0.16666 0.69509 0.0
Gd1309 Gd 0.35228 0.17787 0.66536 0.0
C1310 C 0.40669 0.17978 0.65653 0.0
C1311 C 0.42695 0.21179 0.6517 0.0
C1312 C 0.39521 0.20092 0.65816 0.0
C1313 C 0.39237 0.18345 0.6594 0.0
C1314 C 0.41255 0.2153 0.65431 0.0
C1315 C 0.42392 0.19403 0.65261 0.0
C1316 C 0.403 0.16177 0.6572 0.0
C1317 C 0.38522 0.14789 0.66026 0.0
N1318 N 0.37523 0.16983 0.66253 0.0
C1319 C 0.37133 0.15215 0.66266 0.0
H1320 H 0.35752 0.14126 0.66471 0.0
C1321 C 0.3824 0.22033 0.6579 0.0
N1322 N 0.38066 0.20362 0.66 0.0
C1323 C 0.39946 0.23511 0.65445 0.0
C1324 C 0.41464 0.23261 0.65269 0.0
H1325 H 0.37073 0.22239 0.65911 0.0
H1326 H 0.43485 0.19141 0.64992 0.0
H1327 H 0.32602 0.20455 0.69668 0.0
H1328 H 0.41362 0.15838 0.6551 0.0
H1329 H 0.38213 0.13388 0.6606 0.0
H1330 H 0.4403 0.2226 0.64859 0.0
H1331 H 0.30911 0.12237 0.70208 0.0
H1332 H 0.26933 0.18896 0.70298 0.0
H1333 H 0.30201 0.21298 0.69971 0.0
H1334 H 0.23933 0.12411 0.70714 0.0
H1335 H 0.40084 0.24838 0.65303 0.0
H1336 H 0.42776 0.24402 0.6498 0.0
H1337 H 0.24594 0.15577 0.70527 0.0
H1338 H 0.27787 0.0968 0.70688 0.0
N1339 N 0.30719 0.17601 0.69779 0.0
C1340 C 0.27983 0.1852 0.70148 0.0
C1341 C 0.29824 0.19877 0.69971 0.0
C1342 C 0.27524 0.16691 0.7017 0.0
C1343 C 0.28946 0.16272 0.69994 0.0
C1344 C 0.31185 0.19392 0.69801 0.0
N1345 N 0.30007 0.1417 0.70008 0.0
C1346 C 0.28576 0.14496 0.70106 0.0
C1347 C 0.27988 0.11027 0.70522 0.0
C1348 C 0.26485 0.11326 0.70576 0.0
C1349 C 0.29755 0.12477 0.70253 0.0
C1350 C 0.26772 0.13083 0.70388 0.0
H1351 H 0.2512 0.10203 0.70793 0.0
O1352 O 0.3353 0.15774 0.71219 0.0
O1353 O 0.35322 0.16967 0.68443 0.0
O1354 O 0.33159 0.14737 0.66735 0.0
O1355 O 0.31006 0.14517 0.68171 0.0
O1356 O 0.34084 0.14753 0.69573 0.0
O1357 O 0.33832 0.18457 0.71084 0.0
O1358 O 0.34488 0.18562 0.64828 0.0
O1359 O 0.32829 0.17486 0.67605 0.0
O1360 O 0.35033 0.19711 0.69313 0.0
O1361 O 0.37169 0.1992 0.67865 0.0
O1362 O 0.34045 0.19678 0.66456 0.0
O1363 O 0.34397 0.15971 0.64976 0.0
C1364 C 0.35439 0.15624 0.68829 0.0
C1365 C 0.25332 0.1348 0.70507 0.0
C1366 C 0.25708 0.15282 0.70401 0.0
C1367 C 0.33895 0.17259 0.71799 0.0
C1368 C 0.33036 0.17018 0.73006 0.0
C1369 C 0.31113 0.16263 0.7311 0.0
C1370 C 0.34144 0.17553 0.74064 0.0
C1371 C 0.33331 0.1734 0.75223 0.0
C1372 C 0.30298 0.16036 0.7425 0.0
C1373 C 0.31393 0.16566 0.75299 0.0
C1374 C 0.31479 0.13863 0.6723 0.0
C1375 C 0.32703 0.1882 0.67209 0.0
C1376 C 0.34207 0.17096 0.64259 0.0
C1377 C 0.35019 0.17359 0.63034 0.0
C1378 C 0.36944 0.18207 0.62886 0.0
C1379 C 0.33859 0.1676 0.62001 0.0
C1380 C 0.34622 0.17007 0.60823 0.0
C1381 C 0.3771 0.18466 0.61727 0.0
C1382 C 0.36564 0.17877 0.60703 0.0
C1383 C 0.36701 0.20588 0.688 0.0
H1384 H 0.3024 0.15848 0.72312 0.0
H1385 H 0.35634 0.18155 0.73982 0.0
H1386 H 0.28809 0.15442 0.74322 0.0
H1387 H 0.30715 0.16346 0.76172 0.0
H1388 H 0.37856 0.18673 0.63664 0.0
H1389 H 0.32369 0.16085 0.62118 0.0
H1390 H 0.39201 0.19134 0.61622 0.0
H1391 H 0.37204 0.18127 0.59814 0.0
Gd1392 Gd 0.83312 0.17656 0.66523 0.0
Gd1393 Gd 0.84664 0.16811 0.69544 0.0
C1394 C 0.90242 0.17094 0.7009 0.0
C1395 C 0.89304 0.1393 0.70507 0.0
C1396 C 0.86981 0.14822 0.70163 0.0
C1397 C 0.88361 0.16606 0.69986 0.0
C1398 C 0.87433 0.13468 0.70451 0.0
C1399 C 0.90707 0.1574 0.70326 0.0
C1400 C 0.91597 0.18933 0.69982 0.0
C1401 C 0.91057 0.20236 0.69818 0.0
N1402 N 0.8786 0.17878 0.69766 0.0
C1403 C 0.89172 0.19685 0.69728 0.0
H1404 H 0.8878 0.20709 0.69593 0.0
C1405 C 0.83783 0.12732 0.70414 0.0
N1406 N 0.85191 0.14428 0.70109 0.0
C1407 C 0.84159 0.11339 0.70698 0.0
C1408 C 0.85992 0.11703 0.70703 0.0
H1409 H 0.82363 0.12443 0.70402 0.0
H1410 H 0.92145 0.16085 0.70397 0.0
H1411 H 0.79121 0.13884 0.66565 0.0
H1412 H 0.93058 0.19364 0.70051 0.0
H1413 H 0.92093 0.21666 0.69755 0.0
H1414 H 0.89681 0.12906 0.70716 0.0
H1415 H 0.85818 0.22042 0.65714 0.0
H1416 H 0.75064 0.15312 0.65528 0.0
H1417 H 0.7587 0.12996 0.66166 0.0
H1418 H 0.78692 0.217 0.6466 0.0
H1419 H 0.83037 0.09987 0.70912 0.0
H1420 H 0.86281 0.10623 0.70926 0.0
H1421 H 0.76147 0.1856 0.64924 0.0
H1422 H 0.85306 0.24514 0.64996 0.0
N1423 N 0.80154 0.16709 0.66245 0.0
C1424 C 0.76494 0.15724 0.65732 0.0
C1425 C 0.76944 0.1441 0.66086 0.0
C1426 C 0.77902 0.1754 0.65607 0.0
C1427 C 0.79742 0.17996 0.65879 0.0
C1428 C 0.78794 0.14923 0.66317 0.0
N1429 N 0.82941 0.20099 0.65865 0.0
C1430 C 0.81182 0.19749 0.65685 0.0
C1431 C 0.84133 0.23182 0.65188 0.0
C1432 C 0.82329 0.22852 0.65018 0.0
C1433 C 0.84417 0.21775 0.65594 0.0
C1434 C 0.80826 0.21112 0.65247 0.0
H1435 H 0.82112 0.23936 0.64685 0.0
O1436 O 0.84738 0.18365 0.64776 0.0
O1437 O 0.85484 0.17504 0.67613 0.0
O1438 O 0.85564 0.19809 0.69241 0.0
O1439 O 0.8358 0.1989 0.67771 0.0
O1440 O 0.86401 0.19601 0.66387 0.0
O1441 O 0.82414 0.15659 0.65068 0.0
O1442 O 0.83192 0.15989 0.71269 0.0
O1443 O 0.82493 0.16984 0.68462 0.0
O1444 O 0.8231 0.14647 0.66862 0.0
O1445 O 0.8436 0.14579 0.68279 0.0
O1446 O 0.8157 0.14854 0.69666 0.0
O1447 O 0.85584 0.1868 0.7108 0.0
C1448 C 0.8693 0.18826 0.67172 0.0
C1449 C 0.78994 0.20678 0.65008 0.0
C1450 C 0.77539 0.1889 0.65171 0.0
C1451 C 0.83634 0.1678 0.64291 0.0
C1452 C 0.82943 0.16779 0.63052 0.0
C1453 C 0.81486 0.17136 0.6288 0.0
C1454 C 0.83699 0.16363 0.62036 0.0
C1455 C 0.82969 0.16267 0.60858 0.0
C1456 C 0.80777 0.17067 0.61718 0.0
C1457 C 0.81504 0.1663 0.60716 0.0
C1458 C 0.84755 0.20629 0.68692 0.0
C1459 C 0.81044 0.15651 0.68893 0.0
C1460 C 0.84324 0.17511 0.71817 0.0
C1461 C 0.84961 0.1735 0.73042 0.0
C1462 C 0.86221 0.16722 0.73179 0.0
C1463 C 0.84307 0.17823 0.74085 0.0
C1464 C 0.84919 0.17678 0.75261 0.0
C1465 C 0.86819 0.16559 0.74334 0.0
C1466 C 0.86176 0.17028 0.75365 0.0
C1467 C 0.83148 0.13834 0.6738 0.0
H1468 H 0.80887 0.17456 0.63643 0.0
H1469 H 0.84819 0.16076 0.62166 0.0
H1470 H 0.79652 0.17347 0.61594 0.0
H1471 H 0.80929 0.16593 0.59824 0.0
H1472 H 0.8674 0.16355 0.72393 0.0
H1473 H 0.83346 0.18326 0.73978 0.0
H1474 H 0.87784 0.16061 0.74431 0.0
H1475 H 0.86648 0.16858 0.76249 0.0
H1476 H 0.33655 0.83728 0.05997 0.0
H1477 H 0.36443 0.86234 0.05096 0.0
H1478 H 0.34831 0.90052 0.0637 0.0
H1479 H 0.31996 0.8754 0.07234 0.0
H1480 H 0.35947 0.908 0.04098 0.0
H1481 H 0.38568 0.89772 0.07721 0.0
H1482 H 0.39214 0.87967 0.09204 0.0
H1483 H 0.41657 0.86353 0.06385 0.0
H1484 H 0.40986 0.88117 0.04881 0.0
H1485 H 0.44391 0.98981 0.03093 0.0
H1486 H 0.41556 0.96348 0.03816 0.0
H1487 H 0.43697 0.9283 0.02802 0.0
H1488 H 0.4661 0.95505 0.02159 0.0
H1489 H 0.42271 0.91829 0.04874 0.0
H1490 H 0.39561 0.9279 0.01239 0.0
H1491 H 0.38859 0.94558 0.99749 0.0
H1492 H 0.36544 0.96268 0.02591 0.0
H1493 H 0.37219 0.94501 0.0409 0.0
C1494 C 0.33884 0.85099 0.06084 0.0
C1495 C 0.32584 0.85421 0.06689 0.0
C1496 C 0.35499 0.86539 0.05579 0.0
C1497 C 0.35871 0.88346 0.05673 0.0
C1498 C 0.34586 0.88675 0.06286 0.0
C1499 C 0.32968 0.87235 0.0679 0.0
C1500 C 0.37557 0.8988 0.05092 0.0
C1501 C 0.37332 0.91038 0.04281 0.0
C1502 C 0.39367 0.9017 0.05295 0.0
C1503 C 0.39729 0.89075 0.06191 0.0
C1504 C 0.3923 0.89021 0.07417 0.0
C1505 C 0.396 0.88005 0.08261 0.0
C1506 C 0.40475 0.87046 0.07889 0.0
C1507 C 0.40979 0.87096 0.06672 0.0
C1508 C 0.40606 0.88105 0.05824 0.0
C1509 C 0.44245 0.97641 0.03003 0.0
C1510 C 0.45713 0.97451 0.02544 0.0
C1511 C 0.42606 0.96125 0.03408 0.0
C1512 C 0.42367 0.94361 0.03343 0.0
C1513 C 0.43825 0.94164 0.02858 0.0
C1514 C 0.45486 0.95694 0.02475 0.0
C1515 C 0.40668 0.92761 0.03873 0.0
C1516 C 0.40888 0.91589 0.0468 0.0
C1517 C 0.38849 0.92456 0.03666 0.0
C1518 C 0.38465 0.93538 0.02774 0.0
C1519 C 0.38921 0.93561 0.01543 0.0
C1520 C 0.3852 0.94554 1.00698 0.0
C1521 C 0.37673 0.95536 0.01077 0.0
C1522 C 0.37207 0.95512 0.023 0.0
C1523 C 0.3759 0.94509 0.03145 0.0
H1524 H 0.3737 0.96307 1.00422 0.0
H1525 H 0.40764 0.86264 0.08544 0.0
H1526 H 0.15798 0.49002 0.07834 0.0
H1527 H 0.13307 0.49423 0.06989 0.0
H1528 H 0.12407 0.45557 0.04152 0.0
H1529 H 0.1487 0.45117 0.04993 0.0
H1530 H 0.12571 0.48505 0.03202 0.0
H1531 H 0.09382 0.44535 0.06582 0.0
H1532 H 0.08877 0.43614 0.0874 0.0
H1533 H 0.08582 0.48395 0.09636 0.0
H1534 H 0.0911 0.49356 0.07484 0.0
H1535 H 0.02207 0.45855 0.02778 0.0
H1536 H 0.0488 0.45628 0.03464 0.0
H1537 H 0.08481 0.51329 0.02687 0.0
H1538 H 0.05792 0.51567 0.02009 0.0
H1539 H 0.07062 0.47664 0.0547 0.0
H1540 H 0.11804 0.51934 0.02062 0.0
H1541 H 0.12759 0.52633 0.99913 0.0
H1542 H 0.10011 0.46912 0.99095 0.0
H1543 H 0.09026 0.46189 0.01238 0.0
C1544 C 0.15053 0.48221 0.0704 0.0
C1545 C 0.15555 0.47034 0.0648 0.0
C1546 C 0.13627 0.48466 0.06556 0.0
C1547 C 0.12659 0.47522 0.05503 0.0
C1548 C 0.13137 0.46315 0.04957 0.0
C1549 C 0.14557 0.4607 0.05439 0.0
C1550 C 0.11194 0.47825 0.04937 0.0
C1551 C 0.11371 0.48325 0.03705 0.0
C1552 C 0.09623 0.47604 0.05583 0.0
C1553 C 0.09306 0.47027 0.06875 0.0
C1554 C 0.09225 0.45398 0.07241 0.0
C1555 C 0.08932 0.44867 0.08463 0.0
C1556 C 0.08703 0.45948 0.09325 0.0
C1557 C 0.08763 0.4756 0.08967 0.0
C1558 C 0.09058 0.48098 0.07747 0.0
C1559 C 0.03574 0.47053 0.02725 0.0
C1560 C 0.03782 0.48724 0.02328 0.0
C1561 C 0.05104 0.46922 0.0312 0.0
C1562 C 0.06892 0.48456 0.03128 0.0
C1563 C 0.07125 0.50115 0.02676 0.0
C1564 C 0.05583 0.50251 0.02284 0.0
C1565 C 0.08444 0.48339 0.03734 0.0
C1566 C 0.08278 0.47868 0.04976 0.0
C1567 C 0.10027 0.48583 0.03102 0.0
C1568 C 0.10307 0.49012 0.01795 0.0
C1569 C 0.11366 0.5083 0.01414 0.0
C1570 C 0.1193 0.5123 1.00203 0.0
C1571 C 0.11453 0.49817 0.99369 0.0
C1572 C 0.10382 0.48004 0.99742 0.0
C1573 C 0.09805 0.47599 1.00951 0.0
H1574 H 0.11904 0.50129 0.98434 0.0
H1575 H 0.08476 0.45535 0.1027 0.0
H1576 H 0.52954 0.66592 0.09074 0.0
H1577 H 0.52426 0.63901 0.07938 0.0
H1578 H 0.54052 0.67036 0.04621 0.0
H1579 H 0.54608 0.69755 0.05758 0.0
H1580 H 0.50983 0.63521 0.04297 0.0
H1581 H 0.57112 0.6625 0.0603 0.0
H1582 H 0.5942 0.67535 0.07685 0.0
H1583 H 0.56614 0.62443 0.09603 0.0
H1584 H 0.54273 0.61135 0.07967 0.0
H1585 H 0.52143 0.56904 1.01007 0.0
H1586 H 0.52634 0.59737 0.01931 0.0
H1587 H 0.51879 0.57315 0.05493 0.0
H1588 H 0.51447 0.54509 0.04569 0.0
H1589 H 0.54607 0.60606 0.05593 0.0
H1590 H 0.48428 0.57864 0.03944 0.0
H1591 H 0.46135 0.56478 0.02287 0.0
H1592 H 0.48932 0.61465 1.00253 0.0
H1593 H 0.51262 0.62872 0.01889 0.0
C1594 C 0.53208 0.66718 0.08104 0.0
C1595 C 0.53852 0.68404 0.07513 0.0
C1596 C 0.52896 0.65172 0.07454 0.0
C1597 C 0.53224 0.6527 0.06196 0.0
C1598 C 0.53791 0.66928 0.05591 0.0
C1599 C 0.54106 0.68481 0.06243 0.0
C1600 C 0.53061 0.6366 0.05535 0.0
C1601 C 0.51791 0.62896 0.04569 0.0
C1602 C 0.54091 0.62821 0.05902 0.0
C1603 C 0.55509 0.636 0.0688 0.0
C1604 C 0.5698 0.65408 0.06808 0.0
C1605 C 0.58295 0.6614 0.07743 0.0
C1606 C 0.58162 0.65073 0.0875 0.0
C1607 C 0.56715 0.63269 0.08823 0.0
C1608 C 0.55395 0.62531 0.07892 0.0
C1609 C 0.52067 0.56973 0.01983 0.0
C1610 C 0.51743 0.55481 0.02712 0.0
C1611 C 0.52349 0.58595 0.02515 0.0
C1612 C 0.52264 0.5874 0.03786 0.0
C1613 C 0.51956 0.57248 0.04513 0.0
C1614 C 0.51709 0.55642 0.03983 0.0
C1615 C 0.52504 0.60438 0.04365 0.0
C1616 C 0.53795 0.61226 0.05317 0.0
C1617 C 0.51479 0.61282 0.03992 0.0
C1618 C 0.50028 0.60469 0.03034 0.0
C1619 C 0.48556 0.58665 0.03142 0.0
C1620 C 0.47251 0.57874 0.02206 0.0
C1621 C 0.4739 0.58881 0.01164 0.0
C1622 C 0.48827 0.60685 0.0106 0.0
C1623 C 0.5014 0.61481 0.01992 0.0
H1624 H 0.46384 0.58264 1.00438 0.0
H1625 H 0.59181 0.65642 0.09472 0.0
H1626 H 0.8821 0.32476 0.94326 0.0
H1627 H 0.90431 0.35291 0.95345 0.0
H1628 H 0.86242 0.34592 0.97931 0.0
H1629 H 0.84002 0.31757 0.96915 0.0
H1630 H 0.88231 0.38108 0.97219 0.0
H1631 H 0.89661 0.33629 0.98704 0.0
H1632 H 0.90405 0.31161 0.9854 0.0
H1633 H 0.95364 0.34712 0.96562 0.0
H1634 H 0.94636 0.37195 0.96699 0.0
H1635 H 0.94547 0.44913 0.01276 0.0
H1636 H 0.92233 0.41987 1.0043 0.0
H1637 H 0.96237 0.42268 0.97828 0.0
H1638 H 0.98589 0.45153 0.98713 0.0
H1639 H 0.94263 0.38908 0.98627 0.0
H1640 H 0.92855 0.43433 0.97193 0.0
H1641 H 0.92195 0.45932 0.9749 0.0
H1642 H 0.87164 0.42307 0.99369 0.0
H1643 H 0.8784 0.398 0.9914 0.0
C1644 C 0.87759 0.32905 0.95119 0.0
C1645 C 0.85924 0.31867 0.95544 0.0
C1646 C 0.89035 0.34524 0.95701 0.0
C1647 C 0.8852 0.35149 0.9673 0.0
C1648 C 0.86679 0.34142 0.97141 0.0
C1649 C 0.85396 0.32519 0.96557 0.0
C1650 C 0.89912 0.36841 0.97376 0.0
C1651 C 0.89539 0.38273 0.97542 0.0
C1652 C 0.91638 0.37079 0.97781 0.0
C1653 C 0.92085 0.35592 0.97703 0.0
C1654 C 0.90903 0.33879 0.98226 0.0
C1655 C 0.91323 0.32479 0.98139 0.0
C1656 C 0.92929 0.32778 0.97539 0.0
C1657 C 0.9412 0.34481 0.97026 0.0
C1658 C 0.93706 0.35886 0.97109 0.0
C1659 C 0.94952 0.44343 1.00539 0.0
C1660 C 0.96768 0.45275 1.00073 0.0
C1661 C 0.93614 0.42671 1.00044 0.0
C1662 C 0.94043 0.41909 0.99048 0.0
C1663 C 0.95864 0.42821 0.98594 0.0
C1664 C 0.97209 0.44482 0.99099 0.0
C1665 C 0.92593 0.40185 0.98462 0.0
C1666 C 0.92955 0.38746 0.98306 0.0
C1667 C 0.90858 0.39944 0.98067 0.0
C1668 C 0.90408 0.4143 0.98159 0.0
C1669 C 0.91612 0.43168 0.97676 0.0
C1670 C 0.91236 0.44588 0.97833 0.0
C1671 C 0.89634 0.44279 0.98441 0.0
C1672 C 0.88405 0.42546 0.98898 0.0
C1673 C 0.88788 0.41125 0.98759 0.0
H1674 H 0.89346 0.45382 0.9856 0.0
H1675 H 0.93252 0.31692 0.97472 0.0
H1676 H 0.69464 0.56459 0.96168 0.0
H1677 H 0.66608 0.56014 0.97106 0.0
H1678 H 0.64875 0.50367 0.97765 0.0
H1679 H 0.67733 0.50803 0.96831 0.0
H1680 H 0.62014 0.50653 0.96964 0.0
H1681 H 0.66597 0.5359 1.00078 0.0
H1682 H 0.69556 0.55965 1.00954 0.0
H1683 H 0.68012 0.60015 1.00234 0.0
H1684 H 0.65053 0.57667 0.99337 0.0
H1685 H 0.54377 0.49248 1.00639 0.0
H1686 H 0.57313 0.49458 1.00042 0.0
H1687 H 0.59639 0.55206 0.99345 0.0
H1688 H 0.56736 0.55008 0.9999 0.0
H1689 H 0.62211 0.54694 1.00291 0.0
H1690 H 0.57736 0.51803 0.97048 0.0
H1691 H 0.54809 0.49445 0.9612 0.0
H1692 H 0.56163 0.45327 0.97067 0.0
H1693 H 0.59086 0.47656 0.98014 0.0
C1694 C 0.68485 0.55124 0.9652 0.0
C1695 C 0.68846 0.53671 0.96425 0.0
C1696 C 0.66846 0.5487 0.97058 0.0
C1697 C 0.65526 0.53161 0.97527 0.0
C1698 C 0.65865 0.517 0.97413 0.0
C1699 C 0.67503 0.51951 0.96873 0.0
C1700 C 0.63794 0.52899 0.98129 0.0
C1701 C 0.62061 0.5152 0.97704 0.0
C1702 C 0.63838 0.54042 0.99085 0.0
C1703 C 0.6561 0.55455 0.99631 0.0
C1704 C 0.66894 0.54989 1.00099 0.0
C1705 C 0.6857 0.5633 1.006 0.0
C1706 C 0.68973 0.5814 1.00647 0.0
C1707 C 0.67698 0.58612 1.00196 0.0
C1708 C 0.66021 0.57277 0.99692 0.0
C1709 C 0.55531 0.50564 1.00391 0.0
C1710 C 0.55333 0.52119 1.0038 0.0
C1711 C 0.57205 0.5068 1.00032 0.0
C1712 C 0.58701 0.52344 0.99623 0.0
C1713 C 0.58517 0.53905 0.99653 0.0
C1714 C 0.56853 0.53791 1.00021 0.0
C1715 C 0.60429 0.52466 0.99113 0.0
C1716 C 0.62163 0.53818 0.99556 0.0
C1717 C 0.60386 0.51301 0.98172 0.0
C1718 C 0.58621 0.49901 0.97611 0.0
C1719 C 0.57402 0.50393 0.97067 0.0
C1720 C 0.55745 0.49062 0.96536 0.0
C1721 C 0.55303 0.47239 0.96536 0.0
C1722 C 0.5651 0.4674 0.97069 0.0
C1723 C 0.58166 0.48064 0.97602 0.0
H1724 H 0.54031 0.46212 0.96116 0.0
H1725 H 0.70272 0.59176 1.01035 0.0
H1726 H 0.49237 0.17425 0.97629 0.0
H1727 H 0.49673 0.14973 0.98422 0.0
H1728 H 0.45549 0.11199 0.95916 0.0
H1729 H 0.45055 0.13638 0.95145 0.0
H1730 H 0.45069 0.09687 0.98129 0.0
H1731 H 0.50208 0.12892 0.95423 0.0
H1732 H 0.52959 0.15572 0.94572 0.0
H1733 H 0.55756 0.16523 0.98011 0.0
H1734 H 0.53011 0.13862 0.98887 0.0
H1735 H 0.47224 0.02613 0.98981 0.0
H1736 H 0.46711 0.04988 0.98127 0.0
H1737 H 0.50928 0.08957 1.005 0.0
H1738 H 0.51499 0.06604 0.01326 0.0
H1739 H 0.51325 0.10329 0.98303 0.0
H1740 H 0.46171 0.07156 1.01022 0.0
H1741 H 0.43432 0.04463 0.01872 0.0
H1742 H 0.40668 0.03445 0.98416 0.0
H1743 H 0.43402 0.06119 0.97541 0.0
C1744 C 0.48408 0.16072 0.97251 0.0
C1745 C 0.47108 0.15736 0.96321 0.0
C1746 C 0.48674 0.14671 0.97699 0.0
C1747 C 0.47661 0.129 0.97221 0.0
C1748 C 0.46354 0.12554 0.96298 0.0
C1749 C 0.46085 0.13956 0.95849 0.0
C1750 C 0.47958 0.11411 0.97694 0.0
C1751 C 0.46434 0.09817 0.9815 0.0
C1752 C 0.49743 0.1159 0.97749 0.0
C1753 C 0.51397 0.13188 0.97223 0.0
C1754 C 0.51405 0.13681 0.96 0.0
C1755 C 0.52963 0.15195 0.95513 0.0
C1756 C 0.54529 0.1622 0.96238 0.0
C1757 C 0.54541 0.1573 0.97451 0.0
C1758 C 0.52985 0.14217 0.97943 0.0
C1759 C 0.48039 0.03988 0.99328 0.0
C1760 C 0.49385 0.04405 1.00239 0.0
C1761 C 0.47736 0.05348 0.98841 0.0
C1762 C 0.48757 0.07153 0.99261 0.0
C1763 C 0.50113 0.07575 1.00163 0.0
C1764 C 0.50426 0.0622 1.00644 0.0
C1765 C 0.48439 0.08609 0.98747 0.0
C1766 C 0.4996 0.10196 0.98282 0.0
C1767 C 0.46651 0.08424 0.98685 0.0
C1768 C 0.44998 0.06828 0.99213 0.0
C1769 C 0.44984 0.06351 1.00441 0.0
C1770 C 0.43432 0.04829 1.00928 0.0
C1771 C 0.41879 0.03781 1.00197 0.0
C1772 C 0.41873 0.04257 0.9898 0.0
C1773 C 0.43423 0.05776 0.98489 0.0
H1774 H 0.40679 0.02602 1.00575 0.0
H1775 H 0.55735 0.17392 0.95859 0.0
H1776 H 0.676 0.16634 0.96982 0.0
H1777 H 0.64753 0.14185 0.97878 0.0
H1778 H 0.66621 0.10362 0.97153 0.0
H1779 H 0.6944 0.12789 0.9622 0.0
H1780 H 0.63096 0.08929 0.96536 0.0
H1781 H 0.66709 0.12065 1.00058 0.0
H1782 H 0.6853 0.14714 0.01391 0.0
H1783 H 0.63821 0.15459 0.0179 0.0
H1784 H 0.61979 0.12828 1.00445 0.0
H1785 H 0.56631 0.015 1.00031 0.0
H1786 H 0.59558 0.04122 0.99367 0.0
H1787 H 0.57308 0.07662 0.9999 0.0
H1788 H 0.5437 0.05035 1.00645 0.0
H1789 H 0.60976 0.09297 1.00685 0.0
H1790 H 0.57393 0.06252 0.97151 0.0
H1791 H 0.55583 0.03712 0.95739 0.0
H1792 H 0.60222 0.02857 0.95333 0.0
H1793 H 0.62058 0.05388 0.96751 0.0
C1794 C 0.67402 0.1527 0.97002 0.0
C1795 C 0.68762 0.14918 0.96525 0.0
C1796 C 0.65777 0.13871 0.9753 0.0
C1797 C 0.65473 0.12084 0.97602 0.0
C1798 C 0.6682 0.11727 0.97118 0.0
C1799 C 0.68444 0.13123 0.9659 0.0
C1800 C 0.63733 0.10574 0.98148 0.0
C1801 C 0.62653 0.09003 0.97451 0.0
C1802 C 0.63109 0.10682 0.99329 0.0
C1803 C 0.64213 0.12262 1.0014 0.0
C1804 C 0.66067 0.12803 1.00422 0.0
C1805 C 0.67102 0.14299 0.01181 0.0
C1806 C 0.66293 0.15258 0.01672 0.0
C1807 C 0.64446 0.14717 0.01407 0.0
C1808 C 0.63406 0.13223 1.00647 0.0
C1809 C 0.56773 0.02843 1.00046 0.0
C1810 C 0.55278 0.03062 1.00407 0.0
C1811 C 0.58443 0.0434 0.9966 0.0
C1812 C 0.58652 0.06092 0.99611 0.0
C1813 C 0.57185 0.06327 1.00018 0.0
C1814 C 0.55507 0.04824 1.004 0.0
C1815 C 0.60363 0.07648 0.99075 0.0
C1816 C 0.61429 0.09226 0.99772 0.0
C1817 C 0.60976 0.07555 0.9789 0.0
C1818 C 0.59857 0.05999 0.97066 0.0
C1819 C 0.5802 0.0551 0.96771 0.0
C1820 C 0.56991 0.04074 0.95966 0.0
C1821 C 0.57786 0.03121 0.95447 0.0
C1822 C 0.59609 0.03597 0.95736 0.0
C1823 C 0.60645 0.05033 0.96539 0.0
H1824 H 0.56998 0.0202 0.94817 0.0
H1825 H 0.67097 0.16416 0.0226 0.0
H1826 H 0.84473 0.52592 0.97283 0.0
H1827 H 0.86694 0.51949 0.98325 0.0
H1828 H 0.90604 0.54553 0.95411 0.0
H1829 H 0.88383 0.55156 0.94353 0.0
H1830 H 0.90595 0.51536 0.96074 0.0
H1831 H 0.90987 0.56729 0.98135 0.0
H1832 H 0.89782 0.58421 0.99275 0.0
H1833 H 0.87996 0.54466 0.02151 0.0
H1834 H 0.89169 0.52737 1.01019 0.0
H1835 H 0.99127 0.55079 1.00098 0.0
H1836 H 0.96411 0.55218 0.99381 0.0
H1837 H 0.93183 0.49348 0.99402 0.0
H1838 H 0.95895 0.49208 1.00159 0.0
H1839 H 0.92706 0.53804 1.00265 0.0
H1840 H 0.90701 0.48452 0.96427 0.0
H1841 H 0.92121 0.4707 0.95167 0.0
H1842 H 0.97499 0.51762 0.95727 0.0
H1843 H 0.96106 0.53204 0.96948 0.0
C1844 C 0.85799 0.53013 0.96858 0.0
C1845 C 0.86247 0.53942 0.95735 0.0
C1846 C 0.87076 0.52656 0.97461 0.0
C1847 C 0.88833 0.53216 0.96956 0.0
C1848 C 0.89265 0.54107 0.95825 0.0
C1849 C 0.87995 0.54469 0.95225 0.0
C1850 C 0.90242 0.52913 0.97607 0.0
C1851 C 0.91039 0.52015 0.96996 0.0
C1852 C 0.9085 0.53555 0.98805 0.0
C1853 C 0.90145 0.54592 0.99486 0.0
C1854 C 0.90323 0.56212 0.99006 0.0
C1855 C 0.89649 0.57179 0.99651 0.0
C1856 C 0.88807 0.56548 1.00783 0.0
C1857 C 0.88644 0.54951 0.01273 0.0
C1858 C 0.89314 0.53977 1.0063 0.0
C1859 C 0.97824 0.5382 0.99979 0.0
C1860 C 0.97718 0.52136 1.00199 0.0
C1861 C 0.96273 0.539 0.9957 0.0
C1862 C 0.94593 0.52296 0.9933 0.0
C1863 C 0.94464 0.50605 0.99579 0.0
C1864 C 0.96011 0.50526 1.00018 0.0
C1865 C 0.9304 0.52413 0.98736 0.0
C1866 C 0.92226 0.53285 0.99355 0.0
C1867 C 0.92439 0.51772 0.97537 0.0
C1868 C 0.933 0.5092 0.96803 0.0
C1869 C 0.92186 0.49192 0.96279 0.0
C1870 C 0.92986 0.48402 0.95565 0.0
C1871 C 0.94901 0.49322 0.95374 0.0
C1872 C 0.96018 0.51044 0.95884 0.0
C1873 C 0.95222 0.5185 0.96586 0.0
H1874 H 0.95517 0.48702 0.94828 0.0
H1875 H 0.88287 0.57299 0.01282 0.0
H1876 H 0.49196 0.32519 0.96116 0.0
H1877 H 0.49847 0.35281 0.97227 0.0
H1878 H 0.44783 0.34834 0.95841 0.0
H1879 H 0.4412 0.32075 0.94736 0.0
H1880 H 0.47564 0.38248 0.9563 0.0
H1881 H 0.45183 0.33737 0.98806 0.0
H1882 H 0.45045 0.31281 1.00089 0.0
H1883 H 0.50604 0.34861 0.01336 0.0
H1884 H 0.50785 0.37333 1.00047 0.0
H1885 H 0.46853 0.44633 0.99327 0.0
H1886 H 0.46281 0.41791 0.98389 0.0
H1887 H 0.5132 0.42452 0.99992 0.0
H1888 H 0.51866 0.45273 1.00973 0.0
H1889 H 0.48719 0.38994 1.00079 0.0
H1890 H 0.50994 0.43593 0.96978 0.0
H1891 H 0.51019 0.46046 0.95748 0.0
H1892 H 0.45612 0.42289 0.94349 0.0
H1893 H 0.45529 0.39824 0.95593 0.0
C1894 C 0.48208 0.32995 0.9606 0.0
C1895 C 0.46607 0.32072 0.95331 0.0
C1896 C 0.48585 0.34579 0.96694 0.0
C1897 C 0.47361 0.35268 0.96623 0.0
C1898 C 0.45756 0.34341 0.95905 0.0
C1899 C 0.45381 0.32762 0.95271 0.0
C1900 C 0.47758 0.3697 0.97277 0.0
C1901 C 0.47797 0.38403 0.96605 0.0
C1902 C 0.48111 0.37198 0.98544 0.0
C1903 C 0.48005 0.35714 0.9932 0.0
C1904 C 0.46382 0.33996 0.99346 0.0
C1905 C 0.46295 0.32602 1.00075 0.0
C1906 C 0.47816 0.32913 1.0079 0.0
C1907 C 0.49427 0.34621 1.0078 0.0
C1908 C 0.49523 0.3602 1.0005 0.0
C1909 C 0.47836 0.44171 0.99487 0.0
C1910 C 0.49413 0.4519 1.00219 0.0
C1911 C 0.47511 0.42546 0.98944 0.0
C1912 C 0.48779 0.41922 0.99093 0.0
C1913 C 0.50325 0.42906 0.99855 0.0
C1914 C 0.50637 0.44521 1.00416 0.0
C1915 C 0.48504 0.40265 0.98435 0.0
C1916 C 0.48496 0.38844 0.99103 0.0
C1917 C 0.48178 0.40048 0.97162 0.0
C1918 C 0.4825 0.41523 0.96387 0.0
C1919 C 0.49806 0.43291 0.96413 0.0
C1920 C 0.49831 0.44684 0.95714 0.0
C1921 C 0.4832 0.44322 0.94972 0.0
C1922 C 0.46782 0.42566 0.94925 0.0
C1923 C 0.46744 0.41171 0.95627 0.0
H1924 H 0.4834 0.45401 0.94433 0.0
H1925 H 0.47746 0.31832 0.01355 0.0
H1926 H 0.17545 0.68682 0.06394 0.0
H1927 H 0.1538 0.65921 0.05278 0.0
H1928 H 0.10806 0.65679 0.07268 0.0
H1929 H 0.12953 0.6843 0.08381 0.0
H1930 H 0.10457 0.62403 0.07192 0.0
H1931 H 0.11715 0.6709 0.04247 0.0
H1932 H 0.13681 0.69737 0.02948 0.0
H1933 H 0.15803 0.66667 0.01145 0.0
H1934 H 0.13866 0.64008 0.02446 0.0
H1935 H 0.02896 0.55958 0.03712 0.0
H1936 H 0.05226 0.58778 0.04669 0.0
H1937 H 0.09511 0.58628 0.02565 0.0
H1938 H 0.07176 0.55808 0.01584 0.0
H1939 H 0.10126 0.6204 0.02687 0.0
H1940 H 0.0875 0.57298 0.05576 0.0
H1941 H 0.06734 0.5464 0.06852 0.0
H1942 H 0.04822 0.57802 0.08764 0.0
H1943 H 0.06803 0.60473 0.07484 0.0
C1944 C 0.16076 0.68054 0.06584 0.0
C1945 C 0.15431 0.68783 0.07484 0.0
C1946 C 0.14837 0.6647 0.05945 0.0
C1947 C 0.1292 0.65586 0.06182 0.0
C1948 C 0.12275 0.66321 0.07071 0.0
C1949 C 0.1351 0.67898 0.07711 0.0
C1950 C 0.11582 0.63881 0.05523 0.0
C1951 C 0.10373 0.62334 0.06207 0.0
C1952 C 0.11497 0.63761 0.04235 0.0
C1953 C 0.12661 0.65357 0.03453 0.0
C1954 C 0.12613 0.66984 0.0358 0.0
C1955 C 0.1372 0.68486 0.02842 0.0
C1956 C 0.14871 0.68372 0.01967 0.0
C1957 C 0.14913 0.66754 0.01825 0.0
C1958 C 0.13811 0.65249 0.02562 0.0
C1959 C 0.04332 0.56522 0.03446 0.0
C1960 C 0.04843 0.55642 0.02572 0.0
C1961 C 0.05668 0.58137 0.04001 0.0
C1962 C 0.07556 0.58906 0.0371 0.0
C1963 C 0.08068 0.58062 0.02811 0.0
C1964 C 0.06728 0.56446 0.0225 0.0
C1965 C 0.08989 0.60574 0.04357 0.0
C1966 C 0.10217 0.62109 0.03672 0.0
C1967 C 0.09093 0.60683 0.05644 0.0
C1968 C 0.07916 0.59084 0.06426 0.0
C1969 C 0.07891 0.57425 0.06263 0.0
C1970 C 0.06755 0.55915 0.06987 0.0
C1971 C 0.05649 0.56052 0.07887 0.0
C1972 C 0.05679 0.57699 0.08065 0.0
C1973 C 0.06809 0.59211 0.07341 0.0
H1974 H 0.04774 0.54884 0.08448 0.0
H1975 H 0.15726 0.69536 0.01396 0.0
H1976 H 0.32089 0.47956 0.05464 0.0
H1977 H 0.34905 0.48563 0.0437 0.0
H1978 H 0.36729 0.46792 0.07496 0.0
H1979 H 0.33955 0.46234 0.08603 0.0
H1980 H 0.39604 0.49715 0.0654 0.0
H1981 H 0.34676 0.43999 0.05008 0.0
H1982 H 0.31644 0.41958 0.04055 0.0
H1983 H 0.33328 0.45271 1.00834 0.0
H1984 H 0.36362 0.47345 0.01775 0.0
H1985 H 0.44379 0.45718 0.02784 0.0
H1986 H 0.41517 0.45571 0.03486 0.0
H1987 H 0.44089 0.51407 0.03137 0.0
H1988 H 0.46958 0.51556 0.02427 0.0
H1989 H 0.39048 0.46625 0.02601 0.0
H1990 H 0.42857 0.52852 0.05716 0.0
H1991 H 0.45916 0.54625 0.06711 0.0
H1992 H 0.46433 0.49833 0.06895 0.0
H1993 H 0.43372 0.48032 0.05917 0.0
C1994 C 0.33098 0.47714 0.05924 0.0
C1995 C 0.32776 0.47027 0.07122 0.0
C1996 C 0.34705 0.48049 0.05293 0.0
C1997 C 0.36032 0.47707 0.05842 0.0
C1998 C 0.35734 0.47067 0.07047 0.0
C1999 C 0.3413 0.46728 0.07676 0.0
C2000 C 0.37703 0.47961 0.05161 0.0
C2001 C 0.39476 0.49051 0.05673 0.0
C2002 C 0.37557 0.47083 0.04034 0.0
C2003 C 0.35736 0.45838 0.03468 0.0
C2004 C 0.34393 0.443 0.04101 0.0
C2005 C 0.32676 0.43136 0.03562 0.0
C2006 C 0.32292 0.43488 0.02386 0.0
C2007 C 0.33626 0.45002 0.01745 0.0
C2008 C 0.35345 0.46172 0.02281 0.0
C2009 C 0.44319 0.46965 0.02832 0.0
C2010 C 0.45885 0.48644 0.0254 0.0
C2011 C 0.42681 0.46879 0.0323 0.0
C2012 C 0.42585 0.48477 0.03373 0.0
C2013 C 0.44129 0.50155 0.03039 0.0
C2014 C 0.45765 0.50239 0.02626 0.0
C2015 C 0.40934 0.48385 0.03976 0.0
C2016 C 0.39171 0.47319 0.03454 0.0
C2017 C 0.41084 0.49256 0.05104 0.0
C2018 C 0.42894 0.50314 0.05734 0.0
C2019 C 0.4362 0.52177 0.05976 0.0
C2020 C 0.45355 0.53186 0.06536 0.0
C2021 C 0.4637 0.52343 0.06864 0.0
C2022 C 0.45649 0.50486 0.06639 0.0
C2023 C 0.43914 0.49471 0.06081 0.0
H2024 H 0.47715 0.53127 0.07294 0.0
H2025 H 0.30962 0.42585 0.0197 0.0
H2026 H 0.54854 0.84876 0.04764 0.0
H2027 H 0.54452 0.8734 0.03952 0.0
H2028 H 0.52221 0.87775 0.0739 0.0
H2029 H 0.52558 0.85259 0.08198 0.0
H2030 H 0.50206 0.8797 0.05568 0.0
H2031 H 0.56653 0.90907 0.06533 0.0
H2032 H 0.59832 0.91397 0.06537 0.0
H2033 H 0.60082 0.92004 0.02652 0.0
H2034 H 0.56891 0.91492 0.02623 0.0
H2035 H 0.51199 0.96708 0.04491 0.0
H2036 H 0.51713 0.94309 0.05314 0.0
H2037 H 0.52905 0.93176 0.01711 0.0
H2038 H 0.52395 0.95582 1.00883 0.0
H2039 H 0.55451 0.93375 0.03623 0.0
H2040 H 0.48928 0.90445 0.02719 0.0
H2041 H 0.45887 0.90275 0.02806 0.0
H2042 H 0.45873 0.89836 0.06698 0.0
H2043 H 0.48941 0.90048 0.06637 0.0
C2044 C 0.54263 0.85482 0.05347 0.0
C2045 C 0.53737 0.84861 0.06549 0.0
C2046 C 0.54051 0.86907 0.04884 0.0
C2047 C 0.53324 0.87762 0.05612 0.0
C2048 C 0.52789 0.87143 0.0681 0.0
C2049 C 0.53 0.85714 0.07275 0.0
C2050 C 0.53113 0.89291 0.05117 0.0
C2051 C 0.51361 0.8916 0.05157 0.0
C2052 C 0.54609 0.9084 0.04563 0.0
C2053 C 0.56525 0.91141 0.04575 0.0
C2054 C 0.57379 0.91128 0.05678 0.0
C2055 C 0.59184 0.91413 0.05685 0.0
C2056 C 0.60156 0.91726 0.04595 0.0
C2057 C 0.59326 0.91758 0.03495 0.0
C2058 C 0.57519 0.91472 0.03483 0.0
C2059 C 0.51582 0.95956 0.03874 0.0
C2060 C 0.51731 0.96317 0.02618 0.0
C2061 C 0.51869 0.94582 0.04346 0.0
C2062 C 0.52335 0.93556 0.03573 0.0
C2063 C 0.52539 0.93947 0.02322 0.0
C2064 C 0.52225 0.95307 0.01847 0.0
C2065 C 0.52552 0.9204 0.04071 0.0
C2066 C 0.54301 0.92179 0.04032 0.0
C2067 C 0.51061 0.90509 0.04637 0.0
C2068 C 0.49174 0.90282 0.04674 0.0
C2069 C 0.48282 0.90321 0.03594 0.0
C2070 C 0.46554 0.90219 0.03639 0.0
C2071 C 0.45694 0.90055 0.04757 0.0
C2072 C 0.46547 0.8997 0.05833 0.0
C2073 C 0.4828 0.9008 0.05794 0.0
H2074 H 0.44369 0.89999 0.0479 0.0
H2075 H 0.61555 0.91948 0.04602 0.0
H2076 H 0.97822 0.19699 0.38187 0.0
H2077 H 0.0073 0.22106 0.37338 0.0
H2078 H 0.0378 0.21248 0.4019 0.0
H2079 H 0.00871 0.18825 0.41044 0.0
H2080 H 0.05188 0.24782 0.39831 0.0
H2081 H 0.03605 0.19668 0.37273 0.0
H2082 H 0.01611 0.17082 0.35935 0.0
H2083 H 0.01264 0.20744 0.33382 0.0
H2084 H 0.03234 0.2335 0.34714 0.0
H2085 H 0.13467 0.29 0.35424 0.0
H2086 H 0.10586 0.26299 0.36082 0.0
H2087 H 0.08266 0.29704 0.36968 0.0
H2088 H 0.11116 0.32392 0.36281 0.0
H2089 H 0.06701 0.24719 0.35472 0.0
H2090 H 0.064 0.2837 0.39843 0.0
H2091 H 0.08564 0.30854 0.41196 0.0
H2092 H 0.12959 0.29861 0.40184 0.0
H2093 H 0.10816 0.27354 0.38842 0.0
C2094 C 0.9911 0.20007 0.38631 0.0
C2095 C 0.99102 0.19048 0.39682 0.0
C2096 C 0.00777 0.21391 0.38143 0.0
C2097 C 0.02487 0.21848 0.38685 0.0
C2098 C 0.02484 0.20924 0.3975 0.0
C2099 C 0.00815 0.1954 0.40241 0.0
C2100 C 0.04271 0.23296 0.38145 0.0
C2101 C 0.05512 0.24761 0.38879 0.0
C2102 C 0.04731 0.23265 0.36905 0.0
C2103 C 0.03553 0.21703 0.36099 0.0
C2104 C 0.03092 0.19921 0.3643 0.0
C2105 C 0.01968 0.18451 0.35672 0.0
C2106 C 0.01308 0.18748 0.34575 0.0
C2107 C 0.01774 0.20516 0.34233 0.0
C2108 C 0.02896 0.2199 0.34988 0.0
C2109 C 0.12322 0.29165 0.35722 0.0
C2110 C 0.12509 0.30908 0.35785 0.0
C2111 C 0.10679 0.2762 0.36105 0.0
C2112 C 0.09216 0.278 0.36587 0.0
C2113 C 0.09379 0.29532 0.36608 0.0
C2114 C 0.11007 0.31066 0.36212 0.0
C2115 C 0.07573 0.26217 0.37152 0.0
C2116 C 0.06366 0.24731 0.36424 0.0
C2117 C 0.07161 0.26209 0.38402 0.0
C2118 C 0.08449 0.27686 0.39232 0.0
C2119 C 0.07825 0.28676 0.39914 0.0
C2120 C 0.09049 0.30089 0.40679 0.0
C2121 C 0.10899 0.30519 0.40773 0.0
C2122 C 0.11528 0.29531 0.40107 0.0
C2123 C 0.10309 0.28115 0.39344 0.0
H2124 H 0.11845 0.31616 0.41363 0.0
H2125 H 1.00437 0.17609 0.3399 0.0
H2126 H 0.80426 0.78009 0.39876 0.0
H2127 H 0.77922 0.78367 0.39006 0.0
H2128 H 0.81634 0.84156 0.38677 0.0
H2129 H 0.8413 0.83819 0.39589 0.0
H2130 H 0.78331 0.83535 0.39424 0.0
H2131 H 0.8046 0.81261 0.36194 0.0
H2132 H 0.81296 0.79161 0.35205 0.0
H2133 H 0.75722 0.74742 0.35657 0.0
H2134 H 0.74859 0.76811 0.36665 0.0
H2135 H 0.72165 0.84903 0.35632 0.0
H2136 H 0.74933 0.84788 0.3627 0.0
H2137 H 0.71586 0.78981 0.36804 0.0
H2138 H 0.68835 0.79089 0.36139 0.0
H2139 H 0.74856 0.79785 0.35857 0.0
H2140 H 0.72779 0.82022 0.39186 0.0
H2141 H 0.71912 0.84126 0.40136 0.0
H2142 H 0.77376 0.88624 0.39466 0.0
H2143 H 0.78269 0.86548 0.38498 0.0
C2144 C 0.8071 0.79364 0.39636 0.0
C2145 C 0.82497 0.80881 0.398 0.0
C2146 C 0.79276 0.79565 0.39123 0.0
C2147 C 0.79587 0.81287 0.38752 0.0
C2148 C 0.81353 0.82811 0.38946 0.0
C2149 C 0.82788 0.82611 0.39459 0.0
C2150 C 0.78081 0.81493 0.3815 0.0
C2151 C 0.77592 0.82732 0.38633 0.0
C2152 C 0.77087 0.80434 0.37125 0.0
C2153 C 0.77599 0.79188 0.36515 0.0
C2154 C 0.79416 0.79839 0.3609 0.0
C2155 C 0.79895 0.78655 0.35525 0.0
C2156 C 0.78565 0.76819 0.35371 0.0
C2157 C 0.76752 0.76164 0.35779 0.0
C2158 C 0.76266 0.77342 0.36346 0.0
C2159 C 0.72029 0.83598 0.35857 0.0
C2160 C 0.70283 0.82 0.35823 0.0
C2161 C 0.7361 0.83534 0.36235 0.0
C2162 C 0.73472 0.81878 0.36607 0.0
C2163 C 0.71739 0.80276 0.36526 0.0
C2164 C 0.70164 0.80339 0.36147 0.0
C2165 C 0.75094 0.81808 0.37139 0.0
C2166 C 0.75604 0.80595 0.36643 0.0
C2167 C 0.76105 0.82889 0.38152 0.0
C2168 C 0.75585 0.84132 0.3876 0.0
C2169 C 0.73793 0.83461 0.39237 0.0
C2170 C 0.73297 0.84648 0.39778 0.0
C2171 C 0.74587 0.86508 0.39858 0.0
C2172 C 0.76378 0.87183 0.39402 0.0
C2173 C 0.76881 0.86002 0.38858 0.0
H2174 H 0.74199 0.87426 0.40276 0.0
H2175 H 0.78938 0.75904 0.34934 0.0
H2176 H 0.20085 0.02711 0.39103 0.0
H2177 H 0.1943 0.99938 0.38004 0.0
H2178 H 0.22047 0.98544 0.40872 0.0
H2179 H 0.2268 0.01287 0.41982 0.0
H2180 H 0.23175 0.98112 0.38646 0.0
H2181 H 0.17331 0.96417 0.40605 0.0
H2182 H 0.14614 0.96742 0.41075 0.0
H2183 H 0.13171 0.962 0.37284 0.0
H2184 H 0.15894 0.95897 0.3679 0.0
H2185 H 0.20258 0.88923 0.37493 0.0
H2186 H 0.20848 0.91808 0.38347 0.0
H2187 H 0.17513 0.92307 0.35526 0.0
H2188 H 0.1682 0.89352 0.34706 0.0
H2189 H 0.16782 0.93337 0.37547 0.0
H2190 H 0.22462 0.94865 0.35558 0.0
H2191 H 0.25174 0.94562 0.35032 0.0
H2192 H 0.2697 0.95509 0.38759 0.0
H2193 H 0.24254 0.95793 0.39311 0.0
C2194 C 0.20507 0.01807 0.39506 0.0
C2195 C 0.21442 0.02233 0.40633 0.0
C2196 C 0.20134 1.00222 0.38874 0.0
C2197 C 0.20681 0.99024 0.39357 0.0
C2198 C 0.2162 0.9945 0.40476 0.0
C2199 C 0.21989 0.01028 0.41109 0.0
C2200 C 0.20286 0.97328 0.38702 0.0
C2201 C 0.21775 0.9706 0.38415 0.0
C2202 C 0.18467 0.9598 0.38362 0.0
C2203 C 0.16827 0.96154 0.3866 0.0
C2204 C 0.16442 0.96382 0.39871 0.0
C2205 C 0.149 0.96559 0.40142 0.0
C2206 C 0.13724 0.96497 0.3921 0.0
C2207 C 0.14085 0.96251 0.38005 0.0
C2208 C 0.15626 0.96075 0.37729 0.0
C2209 C 0.19651 0.89642 0.37046 0.0
C2210 C 0.18513 0.88907 0.36013 0.0
C2211 C 0.20003 0.91308 0.37534 0.0
C2212 C 0.19267 0.92311 0.36987 0.0
C2213 C 0.18115 0.91574 0.35962 0.0
C2214 C 0.17734 0.89887 0.35484 0.0
C2215 C 0.1967 0.94103 0.37505 0.0
C2216 C 0.18185 0.94392 0.37765 0.0
C2217 C 0.21498 0.95482 0.37809 0.0
C2218 C 0.23147 0.95337 0.37477 0.0
C2219 C 0.2343 0.94999 0.36267 0.0
C2220 C 0.24968 0.94831 0.35964 0.0
C2221 C 0.26241 0.95013 0.36862 0.0
C2222 C 0.25982 0.95368 0.38065 0.0
C2223 C 0.24445 0.95535 0.38373 0.0
H2224 H 0.2743 0.94881 0.36626 0.0
H2225 H 0.1253 0.96635 0.39421 0.0
H2226 H 0.54637 0.66055 0.27538 0.0
H2227 H 0.56837 0.68779 0.28652 0.0
H2228 H 0.52642 0.67764 0.3132 0.0
H2229 H 0.50407 0.65045 0.30188 0.0
H2230 H 0.54565 0.71362 0.30679 0.0
H2231 H 0.56106 0.66883 0.31977 0.0
H2232 H 0.56903 0.64465 0.31717 0.0
H2233 H 0.61832 0.6818 0.29772 0.0
H2234 H 0.61051 0.70615 0.30005 0.0
H2235 H 0.60947 0.78117 0.34753 0.0
H2236 H 0.58617 0.7522 0.33877 0.0
H2237 H 0.62583 0.7558 0.31215 0.0
H2238 H 0.64947 0.78437 0.32122 0.0
H2239 H 0.60665 0.72217 0.31974 0.0
H2240 H 0.59069 0.7665 0.3058 0.0
H2241 H 0.58316 0.79099 0.30847 0.0
H2242 H 0.53524 0.75502 0.32952 0.0
H2243 H 0.54264 0.73038 0.32713 0.0
C2244 C 0.54172 0.66412 0.28357 0.0
C2245 C 0.52336 0.65324 0.28768 0.0
C2246 C 0.55441 0.67967 0.29001 0.0
C2247 C 0.54918 0.68475 0.3008 0.0
C2248 C 0.53085 0.67401 0.30493 0.0
C2249 C 0.51811 0.65836 0.29849 0.0
C2250 C 0.56288 0.70134 0.30764 0.0
C2251 C 0.55887 0.71536 0.30979 0.0
C2252 C 0.58033 0.70387 0.31137 0.0
C2253 C 0.58511 0.68927 0.31 0.0
C2254 C 0.57353 0.67181 0.31486 0.0
C2255 C 0.57803 0.65808 0.31345 0.0
C2256 C 0.59415 0.66168 0.30726 0.0
C2257 C 0.60583 0.67903 0.3025 0.0
C2258 C 0.60138 0.69281 0.30387 0.0
C2259 C 0.61338 0.77572 0.33993 0.0
C2260 C 0.63149 0.78516 0.33517 0.0
C2261 C 0.59991 0.75918 0.33482 0.0
C2262 C 0.60406 0.75182 0.32464 0.0
C2263 C 0.62219 0.76111 0.31998 0.0
C2264 C 0.63573 0.77755 0.32517 0.0
C2265 C 0.58956 0.73459 0.31876 0.0
C2266 C 0.59341 0.72043 0.31679 0.0
C2267 C 0.57201 0.73198 0.31516 0.0
C2268 C 0.56731 0.74665 0.31637 0.0
C2269 C 0.57859 0.76384 0.31105 0.0
C2270 C 0.57435 0.77775 0.31251 0.0
C2271 C 0.55875 0.77457 0.31918 0.0
C2272 C 0.54733 0.75746 0.32437 0.0
C2273 C 0.55153 0.74352 0.32295 0.0
H2274 H 0.55549 0.78533 0.3203 0.0
H2275 H 0.59762 0.65103 0.30618 0.0
H2276 H 0.36214 0.89828 0.29543 0.0
H2277 H 0.33355 0.89388 0.30474 0.0
H2278 H 0.31676 0.83776 0.31221 0.0
H2279 H 0.34537 0.84207 0.30297 0.0
H2280 H 0.28799 0.84005 0.30387 0.0
H2281 H 0.33372 0.87079 0.33488 0.0
H2282 H 0.36316 0.89505 0.34347 0.0
H2283 H 0.34698 0.93478 0.3354 0.0
H2284 H 0.31754 0.91078 0.3266 0.0
H2285 H 0.21129 0.82608 0.34032 0.0
H2286 H 0.24076 0.82837 0.33438 0.0
H2287 H 0.2634 0.88561 0.32679 0.0
H2288 H 0.23427 0.88345 0.33319 0.0
H2289 H 0.28937 0.88115 0.33644 0.0
H2290 H 0.24476 0.85094 0.30415 0.0
H2291 H 0.21582 0.82695 0.29479 0.0
H2292 H 0.23007 0.7865 0.30495 0.0
H2293 H 0.25898 0.81022 0.31451 0.0
C2294 C 0.35248 0.88502 0.29914 0.0
C2295 C 0.35624 0.87057 0.29845 0.0
C2296 C 0.33606 0.88251 0.30448 0.0
C2297 C 0.32299 0.86553 0.30938 0.0
C2298 C 0.32655 0.851 0.30852 0.0
C2299 C 0.34295 0.85349 0.30317 0.0
C2300 C 0.30559 0.86291 0.31529 0.0
C2301 C 0.28834 0.84888 0.31113 0.0
C2302 C 0.30586 0.87456 0.32463 0.0
C2303 C 0.32349 0.889 0.32999 0.0
C2304 C 0.3365 0.88472 0.33486 0.0
C2305 C 0.35318 0.89842 0.33978 0.0
C2306 C 0.35696 0.91645 0.33996 0.0
C2307 C 0.34404 0.92081 0.33525 0.0
C2308 C 0.32735 0.90716 0.3303 0.0
C2309 C 0.22272 0.83923 0.33769 0.0
C2310 C 0.22054 0.85466 0.33741 0.0
C2311 C 0.23952 0.8405 0.33412 0.0
C2312 C 0.25435 0.85712 0.32989 0.0
C2313 C 0.25229 0.87261 0.32999 0.0
C2314 C 0.2356 0.87137 0.33364 0.0
C2315 C 0.27175 0.85844 0.3249 0.0
C2316 C 0.28902 0.87224 0.32924 0.0
C2317 C 0.27149 0.84661 0.31568 0.0
C2318 C 0.25395 0.83233 0.31014 0.0
C2319 C 0.24164 0.83691 0.30449 0.0
C2320 C 0.22526 0.82336 0.29913 0.0
C2321 C 0.22114 0.80522 0.29928 0.0
C2322 C 0.2333 0.80056 0.30485 0.0
C2323 C 0.24968 0.81404 0.31023 0.0
H2324 H 0.20859 0.79478 0.29502 0.0
H2325 H 0.36988 0.92705 0.34376 0.0
H2326 H 0.16953 0.50328 0.28697 0.0
H2327 H 0.17372 0.47886 0.29551 0.0
H2328 H 0.11926 0.45449 0.31153 0.0
H2329 H 0.11509 0.47903 0.30318 0.0
H2330 H 0.14485 0.45555 0.32763 0.0
H2331 H 0.12621 0.43593 0.28621 0.0
H2332 H 0.12824 0.43935 0.26389 0.0
H2333 H 0.18365 0.44802 0.26477 0.0
H2334 H 0.18199 0.44474 0.28712 0.0
H2335 H 0.14054 0.36182 0.32286 0.0
H2336 H 0.13609 0.38595 0.3142 0.0
H2337 H 0.18003 0.42556 0.33695 0.0
H2338 H 0.18455 0.40152 0.34571 0.0
H2339 H 0.1587 0.41623 0.30141 0.0
H2340 H 0.16988 0.45841 0.34476 0.0
H2341 H 0.1674 0.45389 0.36701 0.0
H2342 H 0.12451 0.39825 0.36209 0.0
H2343 H 0.12654 0.40251 0.33983 0.0
C2344 C 0.15847 0.49277 0.29236 0.0
C2345 C 0.14195 0.49311 0.29436 0.0
C2346 C 0.16084 0.47874 0.29717 0.0
C2347 C 0.14676 0.46474 0.30411 0.0
C2348 C 0.13031 0.46511 0.30619 0.0
C2349 C 0.12788 0.47907 0.30132 0.0
C2350 C 0.1492 0.44977 0.30924 0.0
C2351 C 0.14789 0.44697 0.32189 0.0
C2352 C 0.15306 0.43845 0.30178 0.0
C2353 C 0.15404 0.44028 0.28834 0.0
C2354 C 0.13887 0.43869 0.28165 0.0
C2355 C 0.13995 0.44057 0.26899 0.0
C2356 C 0.1561 0.44399 0.26292 0.0
C2357 C 0.17118 0.44544 0.26949 0.0
C2358 C 0.17015 0.44351 0.28215 0.0
C2359 C 0.14923 0.37564 0.32608 0.0
C2360 C 0.16275 0.37964 0.33512 0.0
C2361 C 0.14672 0.38945 0.32106 0.0
C2362 C 0.1576 0.40757 0.32498 0.0
C2363 C 0.17126 0.41165 0.3339 0.0
C2364 C 0.17378 0.39785 0.33894 0.0
C2365 C 0.15449 0.4221 0.3198 0.0
C2366 C 0.15571 0.42484 0.30715 0.0
C2367 C 0.15041 0.43327 0.32725 0.0
C2368 C 0.14848 0.43076 0.34063 0.0
C2369 C 0.15982 0.44525 0.34844 0.0
C2370 C 0.15851 0.44273 0.36105 0.0
C2371 C 0.14584 0.42578 0.36596 0.0
C2372 C 0.13435 0.41136 0.35827 0.0
C2373 C 0.13558 0.41382 0.34566 0.0
H2374 H 0.1449 0.42384 0.37572 0.0
H2375 H 0.1569 0.44541 0.25312 0.0
H2376 H 0.3559 0.49948 0.31461 0.0
H2377 H 0.32773 0.47469 0.32353 0.0
H2378 H 0.31578 0.44456 0.28997 0.0
H2379 H 0.34369 0.46965 0.28081 0.0
H2380 H 0.28461 0.44155 0.29898 0.0
H2381 H 0.33422 0.43412 0.31467 0.0
H2382 H 0.36405 0.44355 0.32495 0.0
H2383 H 0.34336 0.45452 0.3577 0.0
H2384 H 0.31348 0.44538 0.34755 0.0
H2385 H 0.23472 0.35224 0.33476 0.0
H2386 H 0.26376 0.37889 0.32821 0.0
H2387 H 0.23858 0.41246 0.33164 0.0
H2388 H 0.20955 0.38584 0.33825 0.0
H2389 H 0.28823 0.41329 0.33773 0.0
H2390 H 0.25187 0.43973 0.30567 0.0
H2391 H 0.22216 0.42781 0.29462 0.0
H2392 H 0.21703 0.37483 0.293 0.0
H2393 H 0.24679 0.3865 0.30387 0.0
C2394 C 0.34721 0.4877 0.30904 0.0
C2395 C 0.35219 0.48667 0.29694 0.0
C2396 C 0.33114 0.4734 0.31422 0.0
C2397 C 0.31963 0.45758 0.3075 0.0
C2398 C 0.3244 0.45657 0.29538 0.0
C2399 C 0.3405 0.47089 0.29018 0.0
C2400 C 0.3028 0.44205 0.31316 0.0
C2401 C 0.28545 0.43547 0.30748 0.0
C2402 C 0.30376 0.43379 0.32418 0.0
C2403 C 0.32169 0.43924 0.33031 0.0
C2404 C 0.33609 0.43868 0.32403 0.0
C2405 C 0.35299 0.44395 0.32984 0.0
C2406 C 0.35561 0.44968 0.34196 0.0
C2407 C 0.34132 0.4501 0.34831 0.0
C2408 C 0.32439 0.44487 0.34254 0.0
C2409 C 0.23555 0.36541 0.33439 0.0
C2410 C 0.21994 0.36698 0.33715 0.0
C2411 C 0.25214 0.38062 0.33065 0.0
C2412 C 0.25333 0.39766 0.32931 0.0
C2413 C 0.23797 0.39944 0.33253 0.0
C2414 C 0.22141 0.38423 0.33641 0.0
C2415 C 0.27012 0.41311 0.32366 0.0
C2416 C 0.28743 0.41958 0.32932 0.0
C2417 C 0.26917 0.42101 0.31251 0.0
C2418 C 0.25146 0.41397 0.3057 0.0
C2419 C 0.24443 0.42557 0.30291 0.0
C2420 C 0.22758 0.41884 0.29668 0.0
C2421 C 0.21769 0.40056 0.29314 0.0
C2422 C 0.22466 0.38897 0.29578 0.0
C2423 C 0.24151 0.39563 0.30198 0.0
H2424 H 0.20464 0.39538 0.28833 0.0
H2425 H 0.36871 0.45375 0.34644 0.0
H2426 H 0.55229 0.90188 0.29118 0.0
H2427 H 0.5742 0.89496 0.30122 0.0
H2428 H 0.53382 0.83763 0.30017 0.0
H2429 H 0.5118 0.84444 0.28991 0.0
H2430 H 0.55037 0.84578 0.32159 0.0
H2431 H 0.5713 0.85542 0.28112 0.0
H2432 H 0.58144 0.87009 0.26105 0.0
H2433 H 0.62782 0.91628 0.27766 0.0
H2434 H 0.61783 0.90199 0.29786 0.0
H2435 H 0.62262 0.82462 0.33844 0.0
H2436 H 0.59611 0.82622 0.33003 0.0
H2437 H 0.62981 0.88477 0.32787 0.0
H2438 H 0.65629 0.88308 0.3359 0.0
H2439 H 0.61487 0.87205 0.30671 0.0
H2440 H 0.58465 0.86202 0.34817 0.0
H2441 H 0.57043 0.84477 0.36701 0.0
H2442 H 0.54119 0.79526 0.34641 0.0
H2443 H 0.55449 0.81245 0.32741 0.0
C2444 C 0.54805 0.88775 0.29293 0.0
C2445 C 0.5302 0.87374 0.28958 0.0
C2446 C 0.56067 0.8838 0.29871 0.0
C2447 C 0.55588 0.86572 0.30131 0.0
C2448 C 0.53794 0.8517 0.29825 0.0
C2449 C 0.52529 0.85564 0.29243 0.0
C2450 C 0.56953 0.86166 0.30744 0.0
C2451 C 0.56441 0.85137 0.31822 0.0
C2452 C 0.58789 0.86875 0.30311 0.0
C2453 C 0.59369 0.8777 0.29103 0.0
C2454 C 0.58354 0.8688 0.28052 0.0
C2455 C 0.58929 0.87702 0.26911 0.0
C2456 C 0.60524 0.89412 0.26808 0.0
C2457 C 0.61545 0.90304 0.27847 0.0
C2458 C 0.60976 0.89488 0.2899 0.0
C2459 C 0.62418 0.83785 0.33652 0.0
C2460 C 0.64157 0.85376 0.33786 0.0
C2461 C 0.60895 0.83878 0.3317 0.0
C2462 C 0.61081 0.85565 0.32823 0.0
C2463 C 0.62791 0.87156 0.33034 0.0
C2464 C 0.64307 0.87061 0.33501 0.0
C2465 C 0.59598 0.85691 0.32119 0.0
C2466 C 0.60085 0.86654 0.31011 0.0
C2467 C 0.57731 0.84883 0.32506 0.0
C2468 C 0.57078 0.83839 0.33647 0.0
C2469 C 0.57534 0.84743 0.34771 0.0
C2470 C 0.56728 0.83771 0.35838 0.0
C2471 C 0.55502 0.81891 0.35792 0.0
C2472 C 0.55071 0.8098 0.34677 0.0
C2473 C 0.55837 0.81954 0.33604 0.0
H2474 H 0.54883 0.81141 0.3662 0.0
H2475 H 0.6097 0.90043 0.25923 0.0
H2476 H 0.16032 0.65962 0.29474 0.0
H2477 H 0.16644 0.68684 0.30623 0.0
H2478 H 0.11632 0.68292 0.29181 0.0
H2479 H 0.11008 0.65574 0.28039 0.0
H2480 H 0.14422 0.71699 0.2902 0.0
H2481 H 0.11939 0.67115 0.32145 0.0
H2482 H 0.11753 0.64626 0.33413 0.0
H2483 H 0.17273 0.68165 0.3474 0.0
H2484 H 0.17502 0.70671 0.33466 0.0
H2485 H 0.13591 0.77984 0.32745 0.0
H2486 H 0.1305 0.75162 0.31792 0.0
H2487 H 0.18067 0.75818 0.33426 0.0
H2488 H 0.18589 0.78624 0.34418 0.0
H2489 H 0.15448 0.72341 0.33483 0.0
H2490 H 0.17821 0.77005 0.3043 0.0
H2491 H 0.17917 0.7948 0.29187 0.0
H2492 H 0.12551 0.7577 0.27709 0.0
H2493 H 0.12399 0.73282 0.28963 0.0
C2494 C 0.15047 0.66441 0.29414 0.0
C2495 C 0.13474 0.65549 0.28658 0.0
C2496 C 0.15401 0.68002 0.3007 0.0
C2497 C 0.14181 0.68695 0.29994 0.0
C2498 C 0.12601 0.67794 0.29251 0.0
C2499 C 0.12249 0.6624 0.28595 0.0
C2500 C 0.14562 0.70381 0.30661 0.0
C2501 C 0.14625 0.7183 0.29998 0.0
C2502 C 0.14879 0.70578 0.31934 0.0
C2503 C 0.14745 0.69074 0.32699 0.0
C2504 C 0.13119 0.67358 0.32699 0.0
C2505 C 0.13005 0.65945 0.3342 0.0
C2506 C 0.14502 0.66235 0.34154 0.0
C2507 C 0.16116 0.67941 0.3417 0.0
C2508 C 0.16238 0.69359 0.33449 0.0
C2509 C 0.14576 0.77525 0.3291 0.0
C2510 C 0.16142 0.7854 0.33652 0.0
C2511 C 0.14268 0.75912 0.32358 0.0
C2512 C 0.15539 0.75293 0.32512 0.0
C2513 C 0.17071 0.76269 0.33287 0.0
C2514 C 0.17368 0.77875 0.33853 0.0
C2515 C 0.15283 0.7365 0.31843 0.0
C2516 C 0.15252 0.72214 0.32504 0.0
C2517 C 0.14992 0.73463 0.30567 0.0
C2518 C 0.15094 0.74957 0.29799 0.0
C2519 C 0.16656 0.76719 0.29846 0.0
C2520 C 0.16721 0.78124 0.29139 0.0
C2521 C 0.15243 0.77782 0.2837 0.0
C2522 C 0.13696 0.76033 0.28305 0.0
C2523 C 0.13619 0.74625 0.29014 0.0
H2524 H 0.15296 0.78869 0.27823 0.0
H2525 H 0.14411 0.6514 0.34712 0.0
H2526 H 0.80526 0.00765 0.42328 0.0
H2527 H 0.78381 0.97948 0.41282 0.0
H2528 H 0.81211 1.00203 0.37894 0.0
H2529 H 0.83338 0.03062 0.38934 0.0
H2530 H 0.77582 0.9849 0.37522 0.0
H2531 H 0.81711 0.96939 0.3944 0.0
H2532 H 0.83545 0.96626 0.4109 0.0
H2533 H 0.78545 0.93062 0.43025 0.0
H2534 H 0.76679 0.93376 0.41395 0.0
H2535 H 0.73347 0.89507 0.34687 0.0
H2536 H 0.7569 0.92384 0.35594 0.0
H2537 H 0.72128 0.91426 0.38673 0.0
H2538 H 0.69734 0.88595 0.37745 0.0
H2539 H 0.76255 0.9246 0.39091 0.0
H2540 H 0.72197 0.94276 0.37124 0.0
H2541 H 0.70489 0.94517 0.35364 0.0
H2542 H 0.75592 0.97527 0.33395 0.0
H2543 H 0.77328 0.97276 0.35139 0.0
C2544 C 0.80691 0.00673 0.41358 0.0
C2545 C 0.82108 0.02154 0.40717 0.0
C2546 C 0.7947 0.99047 0.40762 0.0
C2547 C 0.79638 0.98843 0.39508 0.0
C2548 C 0.81051 1.00317 0.38862 0.0
C2549 C 0.82278 0.01949 0.39461 0.0
C2550 C 0.78311 0.97106 0.38875 0.0
C2551 C 0.77317 0.97177 0.37858 0.0
C2552 C 0.77941 0.95378 0.3931 0.0
C2553 C 0.79056 0.95198 0.40301 0.0
C2554 C 0.81002 0.96103 0.40223 0.0
C2555 C 0.82048 0.95923 0.41154 0.0
C2556 C 0.81162 0.94829 0.42163 0.0
C2557 C 0.79229 0.93911 0.42243 0.0
C2558 C 0.78177 0.94089 0.41316 0.0
C2559 C 0.73038 0.89919 0.35543 0.0
C2560 C 0.71325 0.88823 0.36125 0.0
C2561 C 0.74391 0.91561 0.36067 0.0
C2562 C 0.74081 0.92122 0.37199 0.0
C2563 C 0.72393 0.9102 0.37796 0.0
C2564 C 0.71023 0.89401 0.3726 0.0
C2565 C 0.75519 0.93856 0.37763 0.0
C2566 C 0.76533 0.9378 0.3876 0.0
C2567 C 0.75927 0.95576 0.37301 0.0
C2568 C 0.74889 0.95736 0.36255 0.0
C2569 C 0.72953 0.94971 0.36311 0.0
C2570 C 0.7198 0.95114 0.35317 0.0
C2571 C 0.7293 0.96031 0.34267 0.0
C2572 C 0.74857 0.96813 0.34209 0.0
C2573 C 0.75836 0.96672 0.352 0.0
H2574 H 0.72175 0.96141 0.33499 0.0
H2575 H 0.81974 0.94689 0.42882 0.0
H2576 H 1.00123 0.82879 0.399 0.0
H2577 H 0.02945 0.83459 0.38827 0.0
H2578 H 0.01671 0.77952 0.39555 0.0
H2579 H 0.98843 0.7735 0.40603 0.0
H2580 H 0.05233 0.80356 0.40125 0.0
H2581 H 0.01153 0.79327 0.3671 0.0
H2582 H 0.9906 0.79901 0.3543 0.0
H2583 H 0.03419 0.85403 0.34824 0.0
H2584 H 0.05533 0.84869 0.36115 0.0
H2585 H 0.11254 0.7908 0.36414 0.0
H2586 H 0.08391 0.7889 0.37142 0.0
H2587 H 0.10642 0.84612 0.36403 0.0
H2588 H 0.13535 0.84812 0.35684 0.0
H2589 H 0.06759 0.82444 0.35846 0.0
H2590 H 0.1087 0.83532 0.39158 0.0
H2591 H 0.13039 0.83066 0.40433 0.0
H2592 H 0.08712 0.77638 0.4128 0.0
H2593 H 0.06523 0.78059 0.3999 0.0
C2594 C 1.00424 0.8178 0.39816 0.0
C2595 C 0.99247 0.80069 0.40352 0.0
C2596 C 0.02047 0.82117 0.39203 0.0
C2597 C 0.02532 0.80751 0.39107 0.0
C2598 C 0.01344 0.79036 0.39622 0.0
C2599 C 0.99724 0.78697 0.40229 0.0
C2600 C 0.04299 0.81105 0.38511 0.0
C2601 C 0.05552 0.80794 0.39185 0.0
C2602 C 0.04763 0.81745 0.37297 0.0
C2603 C 0.03494 0.82065 0.36521 0.0
C2604 C 0.01661 0.80665 0.36313 0.0
C2605 C 1.00471 0.80981 0.35584 0.0
C2606 C 0.01104 0.82689 0.35049 0.0
C2607 C 0.0293 0.84082 0.3524 0.0
C2608 C 0.04124 0.83773 0.3597 0.0
C2609 C 0.11128 0.80291 0.36386 0.0
C2610 C 0.12616 0.81956 0.35983 0.0
C2611 C 0.09491 0.80183 0.36805 0.0
C2612 C 0.09304 0.8174 0.36843 0.0
C2613 C 0.10751 0.83391 0.36383 0.0
C2614 C 0.12402 0.83503 0.35968 0.0
C2615 C 0.07658 0.8165 0.37455 0.0
C2616 C 0.06438 0.82016 0.36787 0.0
C2617 C 0.07229 0.8108 0.38682 0.0
C2618 C 0.08535 0.80822 0.39467 0.0
C2619 C 0.10384 0.82233 0.39607 0.0
C2620 C 0.11617 0.81978 0.40334 0.0
C2621 C 0.11015 0.80322 0.40936 0.0
C2622 C 0.09177 0.78919 0.40812 0.0
C2623 C 0.07939 0.79165 0.40084 0.0
H2624 H 0.11972 0.80128 0.41499 0.0
H2625 H 1.00181 0.82932 0.34485 0.0
H2626 H 0.19326 0.18611 0.41295 0.0
H2627 H 0.18854 0.21042 0.40485 0.0
H2628 H 0.22035 0.21396 0.37302 0.0
H2629 H 0.22564 0.19012 0.38124 0.0
H2630 H 0.2292 0.24708 0.38028 0.0
H2631 H 0.17281 0.19142 0.37228 0.0
H2632 H 0.14532 0.16189 0.37731 0.0
H2633 H 0.12605 0.18871 0.4014 0.0
H2634 H 0.15357 0.21839 0.39665 0.0
H2635 H 0.1646 0.27603 0.34665 0.0
H2636 H 0.17091 0.25269 0.3545 0.0
H2637 H 0.20897 0.29094 0.3808 0.0
H2638 H 0.20337 0.31456 0.37267 0.0
H2639 H 0.16527 0.23648 0.37547 0.0
H2640 H 0.24309 0.28177 0.38741 0.0
H2641 H 0.27029 0.31024 0.38037 0.0
H2642 H 0.24639 0.3021 0.34465 0.0
H2643 H 0.21918 0.27347 0.35143 0.0
C2644 C 0.19946 0.19222 0.4043 0.0
C2645 C 0.20974 0.18603 0.39772 0.0
C2646 C 0.1966 0.20602 0.39962 0.0
C2647 C 0.20387 0.21389 0.38823 0.0
C2648 C 0.21452 0.20808 0.3818 0.0
C2649 C 0.21739 0.1943 0.38647 0.0
C2650 C 0.20016 0.22798 0.38291 0.0
C2651 C 0.21522 0.24477 0.37927 0.0
C2652 C 0.18192 0.22491 0.38133 0.0
C2653 C 0.16534 0.2071 0.3842 0.0
C2654 C 0.16278 0.191 0.37873 0.0
C2655 C 0.14718 0.17424 0.38151 0.0
C2656 C 0.13397 0.17342 0.38969 0.0
C2657 C 0.13631 0.18937 0.39508 0.0
C2658 C 0.1519 0.20616 0.39234 0.0
C2659 C 0.17456 0.27961 0.35396 0.0
C2660 C 0.18371 0.29734 0.35885 0.0
C2661 C 0.17802 0.26615 0.35854 0.0
C2662 C 0.19061 0.27005 0.36816 0.0
C2663 C 0.19949 0.28764 0.37321 0.0
C2664 C 0.19619 0.30115 0.36856 0.0
C2665 C 0.19432 0.25568 0.37298 0.0
C2666 C 0.17926 0.23884 0.37653 0.0
C2667 C 0.21255 0.25855 0.37421 0.0
C2668 C 0.22902 0.27557 0.36997 0.0
C2669 C 0.24369 0.28601 0.37804 0.0
C2670 C 0.2591 0.30219 0.3741 0.0
C2671 C 0.26004 0.308 0.36208 0.0
C2672 C 0.24561 0.29761 0.35397 0.0
C2673 C 0.23019 0.28142 0.35786 0.0
H2674 H 0.27197 0.32054 0.35905 0.0
H2675 H 0.1219 0.16043 0.39184 0.0
H2676 H 0.65624 0.54713 0.73797 0.0
H2677 H 0.684 0.57142 0.72825 0.0
H2678 H 0.695 0.53146 0.71211 0.0
H2679 H 0.66713 0.50704 0.72168 0.0
H2680 H 0.72676 0.56004 0.72072 0.0
H2681 H 0.67628 0.55234 0.69528 0.0
H2682 H 0.6462 0.55021 0.69083 0.0
H2683 H 0.66701 0.60467 0.70411 0.0
H2684 H 0.69714 0.60703 0.7088 0.0
H2685 H 0.79967 0.62435 0.685 0.0
H2686 H 0.76948 0.59783 0.68932 0.0
H2687 H 0.75021 0.6332 0.70296 0.0
H2688 H 0.77953 0.65975 0.69697 0.0
H2689 H 0.72209 0.60524 0.69437 0.0
H2690 H 0.77105 0.61172 0.72203 0.0
H2691 H 0.80285 0.6167 0.72349 0.0
H2692 H 0.78541 0.56572 0.70547 0.0
H2693 H 0.75353 0.56053 0.70378 0.0
C2694 C 0.66444 0.54343 0.73228 0.0
C2695 C 0.65925 0.525 0.73061 0.0
C2696 C 0.68039 0.5574 0.72673 0.0
C2697 C 0.69157 0.55334 0.71929 0.0
C2698 C 0.68668 0.535 0.7178 0.0
C2699 C 0.67071 0.52102 0.72334 0.0
C2700 C 0.70818 0.56819 0.71296 0.0
C2701 C 0.72565 0.56979 0.71488 0.0
C2702 C 0.70697 0.58114 0.70539 0.0
C2703 C 0.68892 0.5798 0.70249 0.0
C2704 C 0.6744 0.56382 0.69733 0.0
C2705 C 0.65735 0.56257 0.69475 0.0
C2706 C 0.65468 0.57728 0.69721 0.0
C2707 C 0.66909 0.59328 0.70222 0.0
C2708 C 0.68616 0.59459 0.70483 0.0
C2709 C 0.78873 0.6265 0.68836 0.0
C2710 C 0.79189 0.6442 0.69033 0.0
C2711 C 0.77152 0.61126 0.69115 0.0
C2712 C 0.7576 0.61332 0.69696 0.0
C2713 C 0.76059 0.63105 0.69857 0.0
C2714 C 0.77746 0.64627 0.69521 0.0
C2715 C 0.7407 0.59732 0.7023 0.0
C2716 C 0.72318 0.5955 0.70023 0.0
C2717 C 0.74187 0.58428 0.70982 0.0
C2718 C 0.75998 0.5858 0.71271 0.0
C2719 C 0.77395 0.60144 0.71857 0.0
C2720 C 0.792 0.60438 0.71932 0.0
C2721 C 0.79615 0.59165 0.71441 0.0
C2722 C 0.78215 0.57562 0.70916 0.0
C2723 C 0.76407 0.57263 0.70835 0.0
H2724 H 0.81023 0.59421 0.71468 0.0
H2725 H 0.64147 0.57629 0.69522 0.0
H2726 H 0.48099 0.14405 0.74941 0.0
H2727 H 0.45583 0.14789 0.74101 0.0
H2728 H 0.47151 0.14176 0.70473 0.0
H2729 H 0.49656 0.13795 0.71303 0.0
H2730 H 0.46539 0.16907 0.70495 0.0
H2731 H 0.4325 0.10732 0.71972 0.0
H2732 H 0.42245 0.08294 0.73507 0.0
H2733 H 0.39865 0.10838 0.75651 0.0
H2734 H 0.40879 0.13306 0.74135 0.0
H2735 H 0.35835 0.12653 0.68987 0.0
H2736 H 0.38534 0.12494 0.697 0.0
H2737 H 0.41622 0.18357 0.70014 0.0
H2738 H 0.38958 0.18512 0.69216 0.0
H2739 H 0.39972 0.13143 0.71745 0.0
H2740 H 0.4547 0.20026 0.7032 0.0
H2741 H 0.46743 0.22203 0.68609 0.0
H2742 H 0.44893 0.1774 0.661 0.0
H2743 H 0.435 0.15551 0.67788 0.0
C2744 C 0.47897 0.14334 0.73965 0.0
C2745 C 0.49096 0.14078 0.73192 0.0
C2746 C 0.46455 0.14556 0.73484 0.0
C2747 C 0.46163 0.14507 0.72219 0.0
C2748 C 0.47348 0.14236 0.7145 0.0
C2749 C 0.48789 0.14021 0.71928 0.0
C2750 C 0.44648 0.14761 0.71684 0.0
C2751 C 0.45102 0.16082 0.70774 0.0
C2752 C 0.42766 0.13692 0.72034 0.0
C2753 C 0.42159 0.12214 0.72947 0.0
C2754 C 0.42526 0.10779 0.72776 0.0
C2755 C 0.41952 0.09391 0.73641 0.0
C2756 C 0.40997 0.09414 0.74678 0.0
C2757 C 0.40609 0.10824 0.74849 0.0
C2758 C 0.41182 0.12217 0.73987 0.0
C2759 C 0.37114 0.1391 0.69169 0.0
C2760 C 0.37191 0.15593 0.69026 0.0
C2761 C 0.38658 0.13821 0.69589 0.0
C2762 C 0.40312 0.15411 0.69914 0.0
C2763 C 0.40404 0.17105 0.69739 0.0
C2764 C 0.38869 0.17196 0.69285 0.0
C2765 C 0.41852 0.15261 0.70526 0.0
C2766 C 0.41406 0.13972 0.71466 0.0
C2767 C 0.4374 0.16335 0.7019 0.0
C2768 C 0.4435 0.17635 0.6917 0.0
C2769 C 0.45294 0.19518 0.69397 0.0
C2770 C 0.46029 0.20752 0.68433 0.0
C2771 C 0.4588 0.20112 0.67243 0.0
C2772 C 0.44974 0.18237 0.67017 0.0
C2773 C 0.44185 0.16999 0.67974 0.0
H2774 H 0.46478 0.21068 0.66498 0.0
H2775 H 0.40553 0.08337 0.75347 0.0
H2776 H 0.89633 0.34954 0.74997 0.0
H2777 H 0.89062 0.32289 0.73815 0.0
H2778 H 0.85182 0.32923 0.71549 0.0
H2779 H 0.85705 0.3557 0.72758 0.0
H2780 H 0.83821 0.29387 0.72177 0.0
H2781 H 0.89495 0.3411 0.70496 0.0
H2782 H 0.92704 0.3669 0.70536 0.0
H2783 H 0.9456 0.33285 0.72194 0.0
H2784 H 0.91356 0.3069 0.7218 0.0
H2785 H 0.83164 0.22661 0.67996 0.0
H2786 H 0.83755 0.25576 0.68834 0.0
H2787 H 0.87802 0.25589 0.713 0.0
H2788 H 0.87258 0.22706 0.70451 0.0
H2789 H 0.8903 0.28917 0.70384 0.0
H2790 H 0.83377 0.24302 0.72234 0.0
H2791 H 0.8019 0.2168 0.72205 0.0
H2792 H 0.7832 0.24854 0.70245 0.0
H2793 H 0.81505 0.27491 0.70249 0.0
C2794 C 0.88646 0.34523 0.74253 0.0
C2795 C 0.87711 0.3548 0.73977 0.0
C2796 C 0.88335 0.33006 0.73569 0.0
C2797 C 0.87094 0.32412 0.72582 0.0
C2798 C 0.86152 0.33357 0.72303 0.0
C2799 C 0.86464 0.34881 0.72989 0.0
C2800 C 0.86769 0.30789 0.71859 0.0
C2801 C 0.84957 0.29299 0.71766 0.0
C2802 C 0.88251 0.30652 0.7134 0.0
C2803 C 0.90182 0.32209 0.71345 0.0
C2804 C 0.90585 0.33914 0.70877 0.0
C2805 C 0.92404 0.35379 0.70894 0.0
C2806 C 0.93834 0.35153 0.71369 0.0
C2807 C 0.9345 0.33459 0.71827 0.0
C2808 C 0.91633 0.3199 0.71813 0.0
C2809 C 0.84196 0.23292 0.68707 0.0
C2810 C 0.85162 0.22441 0.69154 0.0
C2811 C 0.84523 0.24956 0.69191 0.0
C2812 C 0.85808 0.25796 0.70142 0.0
C2813 C 0.86804 0.24971 0.70569 0.0
C2814 C 0.86483 0.23313 0.70083 0.0
C2815 C 0.8609 0.27509 0.70718 0.0
C2816 C 0.87893 0.29014 0.70784 0.0
C2817 C 0.84602 0.27656 0.71215 0.0
C2818 C 0.82681 0.26087 0.71233 0.0
C2819 C 0.82288 0.24438 0.71791 0.0
C2820 C 0.80483 0.2295 0.7178 0.0
C2821 C 0.79055 0.23101 0.71222 0.0
C2822 C 0.79428 0.24741 0.70676 0.0
C2823 C 0.81233 0.26233 0.70684 0.0
H2824 H 0.77659 0.21949 0.71218 0.0
H2825 H 0.95242 0.36288 0.71381 0.0
H2826 H 0.21598 0.99353 0.60889 0.0
H2827 H 0.23803 0.02135 0.61949 0.0
H2828 H 0.19491 0.01518 0.64398 0.0
H2829 H 0.17254 0.98739 0.63318 0.0
H2830 H 0.21614 0.05069 0.63616 0.0
H2831 H 0.22747 0.00503 0.65338 0.0
H2832 H 0.2341 0.97973 0.65294 0.0
H2833 H 0.28544 0.01384 0.63445 0.0
H2834 H 0.279 0.03928 0.63463 0.0
H2835 H 0.27777 0.11825 0.67793 0.0
H2836 H 0.25438 0.08968 0.66872 0.0
H2837 H 0.29579 0.0906 0.64478 0.0
H2838 H 0.3194 0.11893 0.6542 0.0
H2839 H 0.27452 0.05727 0.65305 0.0
H2840 H 0.26347 0.10252 0.63506 0.0
H2841 H 0.2573 0.12813 0.63483 0.0
H2842 H 0.20615 0.0955 0.65388 0.0
H2843 H 0.21213 0.06976 0.65438 0.0
C2844 C 0.21108 0.9981 0.61647 0.0
C2845 C 0.19239 0.98816 0.62013 0.0
C2846 C 0.22379 0.01399 0.62261 0.0
C2847 C 0.21824 0.02037 0.63263 0.0
C2848 C 0.19958 0.01056 0.63629 0.0
C2849 C 0.18682 0.99457 0.63017 0.0
C2850 C 0.23197 0.03726 0.6392 0.0
C2851 C 0.22876 0.05202 0.64003 0.0
C2852 C 0.24872 0.03926 0.644 0.0
C2853 C 0.25267 0.02401 0.64393 0.0
C2854 C 0.24011 0.0071 0.64914 0.0
C2855 C 0.24385 0.99274 0.64895 0.0
C2856 C 0.26016 0.99517 0.64365 0.0
C2857 C 0.2728 0.01198 0.63855 0.0
C2858 C 0.26912 0.02637 0.6387 0.0
C2859 C 0.282 0.11232 0.6708 0.0
C2860 C 0.30059 0.12094 0.66689 0.0
C2861 C 0.26851 0.09601 0.66543 0.0
C2862 C 0.27318 0.088 0.65591 0.0
C2863 C 0.29177 0.09646 0.65209 0.0
C2864 C 0.30528 0.11273 0.65748 0.0
C2865 C 0.25879 0.07079 0.64995 0.0
C2866 C 0.26187 0.05595 0.64923 0.0
C2867 C 0.24202 0.0688 0.64518 0.0
C2868 C 0.23835 0.08426 0.64487 0.0
C2869 C 0.25098 0.10085 0.63929 0.0
C2870 C 0.2475 0.11539 0.63909 0.0
C2871 C 0.23137 0.11347 0.64436 0.0
C2872 C 0.21865 0.09698 0.64981 0.0
C2873 C 0.22207 0.08241 0.65005 0.0
H2874 H 0.2287 0.12473 0.64419 0.0
H2875 H 0.26303 0.98403 0.64351 0.0
H2876 H 0.02805 0.23104 0.62786 0.0
H2877 H 0.99968 0.22683 0.63737 0.0
H2878 H 0.98197 0.17027 0.64394 0.0
H2879 H 0.01038 0.17439 0.63449 0.0
H2880 H 0.95346 0.1735 0.63599 0.0
H2881 H 0.99958 0.20232 0.66704 0.0
H2882 H 0.02934 0.22581 0.67575 0.0
H2883 H 0.01445 0.26678 0.66884 0.0
H2884 H 0.9847 0.24356 0.65992 0.0
H2885 H 0.87749 0.16044 0.67281 0.0
H2886 H 0.90671 0.16208 0.66697 0.0
H2887 H 0.93075 0.21961 0.65984 0.0
H2888 H 0.90187 0.21809 0.66611 0.0
H2889 H 0.95614 0.21397 0.66944 0.0
H2890 H 0.91129 0.18578 0.63696 0.0
H2891 H 0.88184 0.16257 0.62768 0.0
H2892 H 0.89444 0.1207 0.63705 0.0
H2893 H 0.92386 0.14364 0.64652 0.0
C2894 C 0.01823 0.21772 0.6314 0.0
C2895 C 0.02167 0.20309 0.63041 0.0
C2896 C 1.00194 0.21532 0.63686 0.0
C2897 C 0.98869 0.19827 0.64158 0.0
C2898 C 0.99191 0.18357 0.6404 0.0
C2899 C 0.00819 0.18594 0.63493 0.0
C2900 C 0.9715 0.1958 0.64767 0.0
C2901 C 0.95408 0.18218 0.64343 0.0
C2902 C 0.97214 0.20725 0.65729 0.0
C2903 C 0.98997 0.22122 0.66272 0.0
C2904 C 1.0027 0.21636 0.6673 0.0
C2905 C 0.01957 0.22962 0.67229 0.0
C2906 C 0.0238 0.24778 0.67283 0.0
C2907 C 0.01116 0.25271 0.66841 0.0
C2908 C 0.99429 0.2395 0.6634 0.0
C2909 C 0.88918 0.17351 0.67033 0.0
C2910 C 0.88747 0.18921 0.67009 0.0
C2911 C 0.90584 0.17441 0.66682 0.0
C2912 C 0.92096 0.19093 0.66272 0.0
C2913 C 0.91939 0.20669 0.66293 0.0
C2914 C 0.90285 0.20582 0.66651 0.0
C2915 C 0.93809 0.19185 0.65763 0.0
C2916 C 0.95551 0.20519 0.66206 0.0
C2917 C 0.93744 0.18018 0.64816 0.0
C2918 C 0.91969 0.1664 0.64254 0.0
C2919 C 0.90771 0.17161 0.63713 0.0
C2920 C 0.89104 0.15851 0.63182 0.0
C2921 C 0.88629 0.14018 0.63179 0.0
C2922 C 0.89815 0.13491 0.63709 0.0
C2923 C 0.91482 0.14794 0.64242 0.0
H2924 H 0.87348 0.13008 0.62759 0.0
H2925 H 0.03687 0.25803 0.67669 0.0
H2926 H 0.81137 0.83723 0.64946 0.0
H2927 H 0.81596 0.81287 0.65749 0.0
H2928 H 0.80803 0.78967 0.6216 0.0
H2929 H 0.80379 0.81423 0.6134 0.0
H2930 H 0.78897 0.76357 0.63918 0.0
H2931 H 0.85102 0.81369 0.63327 0.0
H2932 H 0.87655 0.84534 0.63571 0.0
H2933 H 0.87452 0.83842 0.67449 0.0
H2934 H 0.8488 0.80679 0.67228 0.0
H2935 H 0.82011 0.70147 0.6516 0.0
H2936 H 0.81552 0.72559 0.64339 0.0
H2937 H 0.83365 0.75463 0.67744 0.0
H2938 H 0.83961 0.73112 0.68536 0.0
H2939 H 0.8472 0.7779 0.66068 0.0
H2940 H 0.78534 0.72843 0.66725 0.0
H2941 H 0.75934 0.69688 0.66542 0.0
H2942 H 0.75987 0.70251 0.62657 0.0
H2943 H 0.78604 0.73402 0.62815 0.0
C2944 C 0.81081 0.8271 0.64321 0.0
C2945 C 0.80735 0.82786 0.63073 0.0
C2946 C 0.81336 0.8131 0.64785 0.0
C2947 C 0.81254 0.79952 0.64014 0.0
C2948 C 0.80871 0.79999 0.62773 0.0
C2949 C 0.80622 0.81403 0.62306 0.0
C2950 C 0.81579 0.78493 0.64502 0.0
C2951 C 0.80178 0.76666 0.64376 0.0
C2952 C 0.8323 0.78897 0.65129 0.0
C2953 C 0.84787 0.80793 0.65261 0.0
C2954 C 0.85593 0.81896 0.64232 0.0
C2955 C 0.87045 0.83689 0.64366 0.0
C2956 C 0.87712 0.8439 0.65525 0.0
C2957 C 0.86932 0.83298 0.66552 0.0
C2958 C 0.85479 0.81505 0.66423 0.0
C2959 C 0.82307 0.71292 0.6574 0.0
C2960 C 0.82994 0.71409 0.66929 0.0
C2961 C 0.82028 0.72672 0.65269 0.0
C2962 C 0.82369 0.74181 0.65986 0.0
C2963 C 0.83074 0.74311 0.6717 0.0
C2964 C 0.834 0.72952 0.6763 0.0
C2965 C 0.8203 0.75638 0.65495 0.0
C2966 C 0.83431 0.7747 0.65617 0.0
C2967 C 0.80367 0.75238 0.64878 0.0
C2968 C 0.78774 0.73353 0.64782 0.0
C2969 C 0.77997 0.72291 0.65831 0.0
C2970 C 0.7652 0.70504 0.65732 0.0
C2971 C 0.75799 0.69769 0.64588 0.0
C2972 C 0.76548 0.70822 0.63542 0.0
C2973 C 0.78027 0.72609 0.63636 0.0
H2974 H 0.74657 0.68384 0.64513 0.0
H2975 H 0.88836 0.85779 0.65627 0.0
H2976 H 0.01009 0.83798 0.63715 0.0
H2977 H 0.98165 0.81315 0.64581 0.0
H2978 H 0.99715 0.77434 0.63346 0.0
H2979 H 0.02575 0.79915 0.62483 0.0
H2980 H 0.96103 0.76176 0.62927 0.0
H2981 H 1.00188 0.78795 0.66355 0.0
H2982 H 0.02282 0.81264 0.6774 0.0
H2983 H 0.97876 0.8229 0.68658 0.0
H2984 H 0.95762 0.79843 0.67265 0.0
H2985 H 0.90083 0.6858 0.66457 0.0
H2986 H 0.92941 0.71249 0.65763 0.0
H2987 H 0.907 0.74708 0.66687 0.0
H2988 H 0.8781 0.72025 0.67361 0.0
H2989 H 0.94572 0.76237 0.67281 0.0
H2990 H 0.90478 0.73616 0.6389 0.0
H2991 H 0.88346 0.71118 0.62538 0.0
H2992 H 0.92737 0.701 0.61562 0.0
H2993 H 0.94891 0.72576 0.62924 0.0
C2994 C 0.00758 0.82419 0.63634 0.0
C2995 C 0.02042 0.82069 0.63034 0.0
C2996 C 0.99123 0.80996 0.64131 0.0
C2997 C 0.98728 0.7918 0.64049 0.0
C2998 C 0.99983 0.78819 0.63426 0.0
C2999 C 0.01619 0.80243 0.62927 0.0
C3000 C 0.97012 0.77662 0.64613 0.0
C3001 C 0.95786 0.76184 0.63882 0.0
C3002 C 0.96556 0.77682 0.65854 0.0
C3003 C 0.97823 0.79149 0.66695 0.0
C3004 C 0.9967 0.79557 0.66845 0.0
C3005 C 0.0086 0.80951 0.67633 0.0
C3006 C 1.00214 0.81937 0.68284 0.0
C3007 C 0.98375 0.81527 0.68151 0.0
C3008 C 0.9718 0.80136 0.67363 0.0
C3009 C 0.9021 0.69913 0.66531 0.0
C3010 C 0.88726 0.70092 0.66974 0.0
C3011 C 0.91843 0.71437 0.66131 0.0
C3012 C 0.92031 0.73179 0.66159 0.0
C3013 C 0.90587 0.73378 0.66656 0.0
C3014 C 0.88939 0.71845 0.67046 0.0
C3015 C 0.93686 0.74756 0.65596 0.0
C3016 C 0.94894 0.76239 0.66325 0.0
C3017 C 0.94125 0.74746 0.64353 0.0
C3018 C 0.92842 0.73272 0.63518 0.0
C3019 C 0.90986 0.72851 0.63394 0.0
C3020 C 0.89774 0.7144 0.62625 0.0
C3021 C 0.90405 0.70448 0.61967 0.0
C3022 C 0.92251 0.70869 0.62074 0.0
C3023 C 0.93468 0.72277 0.62843 0.0
H3024 H 0.89464 0.69355 0.61373 0.0
H3025 H 0.01137 0.83015 0.68893 0.0
H3026 H 0.20603 0.1988 0.60925 0.0
H3027 H 0.22809 0.19344 0.62062 0.0
H3028 H 0.20399 0.19735 0.65434 0.0
H3029 H 0.18174 0.20261 0.64301 0.0
H3030 H 0.23987 0.21628 0.65618 0.0
H3031 H 0.19744 0.15609 0.64316 0.0
H3032 H 0.17826 0.13091 0.62911 0.0
H3033 H 0.22717 0.13968 0.61028 0.0
H3034 H 0.24664 0.16514 0.62407 0.0
H3035 H 0.29061 0.16008 0.67326 0.0
H3036 H 0.26281 0.16127 0.6674 0.0
H3037 H 0.29687 0.21859 0.65938 0.0
H3038 H 0.32427 0.21761 0.66605 0.0
H3039 H 0.25256 0.16622 0.64716 0.0
H3040 H 0.27627 0.24142 0.65808 0.0
H3041 H 0.29255 0.26421 0.67422 0.0
H3042 H 0.27588 0.22142 0.70058 0.0
H3043 H 0.25962 0.19836 0.68453 0.0
C3044 C 0.20516 0.19822 0.61908 0.0
C3045 C 0.19194 0.2011 0.62516 0.0
C3046 C 0.21786 0.19515 0.6256 0.0
C3047 C 0.21768 0.19476 0.63839 0.0
C3048 C 0.2045 0.19759 0.64449 0.0
C3049 C 0.19178 0.20068 0.63798 0.0
C3050 C 0.23178 0.19228 0.64537 0.0
C3051 C 0.24256 0.20527 0.65421 0.0
C3052 C 0.23518 0.17773 0.64308 0.0
C3053 C 0.22349 0.16268 0.63458 0.0
C3054 C 0.2041 0.1528 0.63593 0.0
C3055 C 0.19318 0.13844 0.62803 0.0
C3056 C 0.20149 0.13373 0.61879 0.0
C3057 C 0.22075 0.14337 0.61743 0.0
C3058 C 0.23173 0.15777 0.62529 0.0
C3059 C 0.29204 0.17306 0.67073 0.0
C3060 C 0.30963 0.18886 0.67043 0.0
C3061 C 0.27613 0.17372 0.66721 0.0
C3062 C 0.27748 0.1901 0.66305 0.0
C3063 C 0.2951 0.20588 0.6629 0.0
C3064 C 0.31088 0.20528 0.66663 0.0
C3065 C 0.26096 0.19046 0.65781 0.0
C3066 C 0.24977 0.17714 0.64922 0.0
C3067 C 0.25689 0.20447 0.66051 0.0
C3068 C 0.26694 0.2182 0.67012 0.0
C3069 C 0.27614 0.23689 0.66732 0.0
C3070 C 0.28539 0.24984 0.67643 0.0
C3071 C 0.28535 0.24424 0.6884 0.0
C3072 C 0.27605 0.2257 0.69128 0.0
C3073 C 0.26691 0.21269 0.68218 0.0
H3074 H 0.29246 0.25428 0.69546 0.0
H3075 H 0.19301 0.12259 0.61269 0.0
H3076 H 0.82597 0.99396 0.62819 0.0
H3077 H 0.8322 0.02141 0.63942 0.0
H3078 H 0.78133 0.01651 0.62565 0.0
H3079 H 0.77498 0.9891 0.61449 0.0
H3080 H 0.80895 0.05068 0.62351 0.0
H3081 H 0.78557 0.0056 0.65529 0.0
H3082 H 0.78449 0.98116 0.66811 0.0
H3083 H 0.84001 0.01737 0.68051 0.0
H3084 H 0.84152 0.04197 0.66764 0.0
H3085 H 0.80161 0.11452 0.6602 0.0
H3086 H 0.79585 0.08592 0.65108 0.0
H3087 H 0.84649 0.09299 0.66699 0.0
H3088 H 0.85199 0.12137 0.67655 0.0
H3089 H 0.82062 0.0583 0.66798 0.0
H3090 H 0.84311 0.10409 0.6368 0.0
H3091 H 0.84319 0.12851 0.62447 0.0
H3092 H 0.78892 0.09082 0.61082 0.0
H3093 H 0.78829 0.06627 0.62327 0.0
C3094 C 0.81599 0.99859 0.62768 0.0
C3095 C 0.8 0.98931 0.62038 0.0
C3096 C 0.81959 0.01432 0.63409 0.0
C3097 C 0.8072 0.02104 0.63344 0.0
C3098 C 0.79116 0.0117 0.62626 0.0
C3099 C 0.78758 0.99602 0.61984 0.0
C3100 C 0.81105 0.03801 0.63997 0.0
C3101 C 0.8113 0.05225 0.63325 0.0
C3102 C 0.81461 0.04033 0.65265 0.0
C3103 C 0.81373 0.02556 0.6604 0.0
C3104 C 0.79761 0.00831 0.66067 0.0
C3105 C 0.7969 0.99444 0.66796 0.0
C3106 C 0.81219 0.9977 0.67509 0.0
C3107 C 0.8282 0.01486 0.67497 0.0
C3108 C 0.82898 0.02877 0.66768 0.0
C3109 C 0.81148 0.10995 0.66184 0.0
C3110 C 0.82735 0.12032 0.66902 0.0
C3111 C 0.80821 0.0936 0.65656 0.0
C3112 C 0.82096 0.08746 0.65807 0.0
C3113 C 0.83649 0.09746 0.66561 0.0
C3114 C 0.83963 0.11371 0.67107 0.0
C3115 C 0.81829 0.07089 0.65153 0.0
C3116 C 0.81835 0.05677 0.65822 0.0
C3117 C 0.815 0.06868 0.63881 0.0
C3118 C 0.8156 0.08335 0.63105 0.0
C3119 C 0.83116 0.10102 0.63121 0.0
C3120 C 0.8313 0.11489 0.62421 0.0
C3121 C 0.81608 0.11121 0.61688 0.0
C3122 C 0.8007 0.09365 0.61651 0.0
C3123 C 0.80044 0.07975 0.62354 0.0
H3124 H 0.81618 0.12195 0.61149 0.0
H3125 H 0.81162 0.98694 0.68073 0.0
H3126 H 0.49253 0.3694 0.72288 0.0
H3127 H 0.47083 0.34165 0.7119 0.0
H3128 H 0.46243 0.30999 0.74445 0.0
H3129 H 0.48457 0.33746 0.75533 0.0
H3130 H 0.46373 0.2915 0.72568 0.0
H3131 H 0.43119 0.32362 0.73502 0.0
H3132 H 0.42603 0.34987 0.735 0.0
H3133 H 0.42484 0.34946 0.69594 0.0
H3134 H 0.43023 0.32334 0.69573 0.0
H3135 H 0.36219 0.22666 0.70519 0.0
H3136 H 0.38584 0.25539 0.71422 0.0
H3137 H 0.42751 0.25459 0.69145 0.0
H3138 H 0.40407 0.22581 0.68249 0.0
H3139 H 0.40943 0.28922 0.70515 0.0
H3140 H 0.46716 0.27058 0.70776 0.0
H3141 H 0.4699 0.2429 0.70908 0.0
H3142 H 0.41726 0.21453 0.72715 0.0
H3143 H 0.4143 0.24205 0.72605 0.0
C3144 C 0.4863 0.35651 0.72767 0.0
C3145 C 0.49023 0.3558 0.74007 0.0
C3146 C 0.47371 0.34062 0.72139 0.0
C3147 C 0.46468 0.32366 0.72736 0.0
C3148 C 0.46908 0.32285 0.73961 0.0
C3149 C 0.48165 0.33867 0.74587 0.0
C3150 C 0.45026 0.30682 0.72105 0.0
C3151 C 0.45195 0.2911 0.72114 0.0
C3152 C 0.43461 0.30601 0.71525 0.0
C3153 C 0.4313 0.32166 0.71536 0.0
C3154 C 0.42996 0.32921 0.72643 0.0
C3155 C 0.42697 0.34405 0.72646 0.0
C3156 C 0.42516 0.35136 0.71548 0.0
C3157 C 0.42628 0.34381 0.70444 0.0
C3158 C 0.42929 0.32898 0.70436 0.0
C3159 C 0.37637 0.2326 0.70206 0.0
C3160 C 0.38116 0.22382 0.6931 0.0
C3161 C 0.38988 0.24911 0.7072 0.0
C3162 C 0.40852 0.25714 0.7036 0.0
C3163 C 0.41328 0.24861 0.69448 0.0
C3164 C 0.39978 0.23215 0.68931 0.0
C3165 C 0.42306 0.27407 0.70969 0.0
C3166 C 0.42135 0.28975 0.70958 0.0
C3167 C 0.43849 0.27474 0.71567 0.0
C3168 C 0.44047 0.25834 0.71674 0.0
C3169 C 0.45624 0.25846 0.71208 0.0
C3170 C 0.45781 0.2428 0.71277 0.0
C3171 C 0.44375 0.22697 0.71818 0.0
C3172 C 0.42812 0.22678 0.72294 0.0
C3173 C 0.42648 0.2424 0.72227 0.0
H3174 H 0.44498 0.21487 0.71873 0.0
H3175 H 0.42284 0.36285 0.71552 0.0
H3176 H 0.65003 0.10727 0.7327 0.0
H3177 H 0.6784 0.11322 0.72233 0.0
H3178 H 0.70237 0.1707 0.72931 0.0
H3179 H 0.67405 0.16485 0.73988 0.0
H3180 H 0.71003 0.16495 0.7064 0.0
H3181 H 0.71548 0.14512 0.7461 0.0
H3182 H 0.70563 0.12488 0.76401 0.0
H3183 H 0.70204 0.08131 0.74211 0.0
H3184 H 0.71163 0.10122 0.72402 0.0
H3185 H 0.80282 0.18457 0.69099 0.0
H3186 H 0.77421 0.18223 0.69887 0.0
H3187 H 0.74826 0.12356 0.69869 0.0
H3188 H 0.77718 0.12603 0.69154 0.0
H3189 H 0.74271 0.13223 0.71922 0.0
H3190 H 0.72802 0.14973 0.67905 0.0
H3191 H 0.73361 0.16911 0.66099 0.0
H3192 H 0.7551 0.21657 0.68375 0.0
H3193 H 0.74831 0.19719 0.702 0.0
C3194 C 0.66134 0.12119 0.73214 0.0
C3195 C 0.65967 0.13553 0.73728 0.0
C3196 C 0.67761 0.12458 0.72616 0.0
C3197 C 0.69274 0.1424 0.72517 0.0
C3198 C 0.69096 0.15682 0.72996 0.0
C3199 C 0.67467 0.15344 0.73597 0.0
C3200 C 0.71036 0.14585 0.71919 0.0
C3201 C 0.7173 0.15794 0.7093 0.0
C3202 C 0.71985 0.13663 0.72282 0.0
C3203 C 0.71412 0.12462 0.73368 0.0
C3204 C 0.71246 0.13118 0.74508 0.0
C3205 C 0.70694 0.11978 0.75527 0.0
C3206 C 0.70317 0.10181 0.75419 0.0
C3207 C 0.70495 0.09522 0.74293 0.0
C3208 C 0.71044 0.10657 0.73271 0.0
C3209 C 0.79082 0.17119 0.69229 0.0
C3210 C 0.79221 0.15546 0.69059 0.0
C3211 C 0.77434 0.16982 0.69679 0.0
C3212 C 0.75878 0.15267 0.69943 0.0
C3213 C 0.75995 0.13699 0.6969 0.0
C3214 C 0.77647 0.13838 0.69271 0.0
C3215 C 0.74211 0.15084 0.70604 0.0
C3216 C 0.73544 0.13918 0.71621 0.0
C3217 C 0.73288 0.16043 0.70268 0.0
C3218 C 0.7381 0.17215 0.6918 0.0
C3219 C 0.7341 0.16432 0.68016 0.0
C3220 C 0.73729 0.17527 0.66992 0.0
C3221 C 0.74503 0.19411 0.67119 0.0
C3222 C 0.74924 0.20201 0.68275 0.0
C3223 C 0.74553 0.19103 0.69306 0.0
H3224 H 0.74762 0.20257 0.66322 0.0
H3225 H 0.69891 0.093 0.76209 0.0
H3226 H 0.86445 0.50711 0.71374 0.0
H3227 H 0.86039 0.5319 0.70605 0.0
H3228 H 0.87397 0.55723 0.74145 0.0
H3229 H 0.8772 0.53195 0.74939 0.0
H3230 H 0.8463 0.55967 0.73249 0.0
H3231 H 0.90543 0.57342 0.7177 0.0
H3232 H 0.92851 0.56798 0.70742 0.0
H3233 H 0.8989 0.5584 0.67369 0.0
H3234 H 0.87548 0.56353 0.68381 0.0
H3235 H 0.87755 0.64966 0.69873 0.0
H3236 H 0.88272 0.62622 0.70789 0.0
H3237 H 0.82789 0.58479 0.69693 0.0
H3238 H 0.82275 0.60819 0.68737 0.0
H3239 H 0.8782 0.59263 0.69482 0.0
H3240 H 0.81482 0.5586 0.72767 0.0
H3241 H 0.79606 0.56709 0.74049 0.0
H3242 H 0.84054 0.6226 0.74133 0.0
H3243 H 0.85969 0.6144 0.72871 0.0
C3244 C 0.86637 0.51781 0.71996 0.0
C3245 C 0.87115 0.51744 0.73222 0.0
C3246 C 0.86425 0.53214 0.71549 0.0
C3247 C 0.8671 0.54663 0.72311 0.0
C3248 C 0.87175 0.54626 0.73537 0.0
C3249 C 0.87378 0.53186 0.73987 0.0
C3250 C 0.86513 0.56206 0.71826 0.0
C3251 C 0.85324 0.56681 0.72423 0.0
C3252 C 0.87457 0.57181 0.70767 0.0
C3253 C 0.8886 0.56869 0.70154 0.0
C3254 C 0.90375 0.57 0.70811 0.0
C3255 C 0.91691 0.56701 0.70231 0.0
C3256 C 0.91515 0.5628 0.68992 0.0
C3257 C 0.90024 0.56163 0.68329 0.0
C3258 C 0.88702 0.5646 0.68905 0.0
C3259 C 0.8666 0.63556 0.6982 0.0
C3260 C 0.84975 0.63078 0.69229 0.0
C3261 C 0.86959 0.62219 0.70345 0.0
C3262 C 0.85562 0.60383 0.70322 0.0
C3263 C 0.83879 0.59894 0.6973 0.0
C3264 C 0.83593 0.61229 0.69177 0.0
C3265 C 0.85894 0.58975 0.70883 0.0
C3266 C 0.87113 0.58531 0.70301 0.0
C3267 C 0.85023 0.58072 0.71976 0.0
C3268 C 0.83856 0.58593 0.727 0.0
C3269 C 0.8206 0.57262 0.73058 0.0
C3270 C 0.80995 0.57736 0.73789 0.0
C3271 C 0.81711 0.59538 0.74172 0.0
C3272 C 0.83496 0.60868 0.73828 0.0
C3273 C 0.8457 0.604 0.731 0.0
H3274 H 0.80881 0.59903 0.74734 0.0
H3275 H 0.92536 0.56049 0.68545 0.0
H3276 H 0.46663 0.90897 0.18563 0.0
H3277 H 0.47492 0.92113 0.16493 0.0
H3278 H 0.47318 0.96911 0.17586 0.0
H3279 H 0.46511 0.95718 0.19652 0.0
H3280 H 0.45497 0.95627 0.1549 0.0
H3281 H 0.51452 0.96953 0.17092 0.0
H3282 H 0.53681 0.96204 0.18034 0.0
H3283 H 0.52905 0.92575 0.15081 0.0
H3284 H 0.50651 0.93286 0.14129 0.0
H3285 H 0.5023 0.01922 0.10791 0.0
H3286 H 0.49217 1.0023 0.12697 0.0
H3287 H 0.49566 0.95779 0.11079 0.0
H3288 H 0.50626 0.97494 0.09163 0.0
H3289 H 0.51127 0.96556 0.13329 0.0
H3290 H 0.45362 0.95372 0.11644 0.0
H3291 H 0.43121 0.96087 0.10683 0.0
H3292 H 0.43481 0.9936 0.13763 0.0
H3293 H 0.45746 0.98686 0.14736 0.0
C3294 C 0.46826 0.92222 0.18368 0.0
C3295 C 0.46508 0.932 0.19281 0.0
C3296 C 0.47296 0.92916 0.1718 0.0
C3297 C 0.47474 0.9461 0.16877 0.0
C3298 C 0.47178 0.95596 0.17789 0.0
C3299 C 0.4671 0.94906 0.18974 0.0
C3300 C 0.47929 0.95354 0.15609 0.0
C3301 C 0.46739 0.95846 0.15024 0.0
C3302 C 0.49514 0.95584 0.14975 0.0
C3303 C 0.50867 0.95157 0.15547 0.0
C3304 C 0.51745 0.95984 0.16649 0.0
C3305 C 0.53015 0.95568 0.17184 0.0
C3306 C 0.5343 0.94338 0.1662 0.0
C3307 C 0.52579 0.93525 0.15518 0.0
C3308 C 0.51306 0.93935 0.1498 0.0
C3309 C 0.50093 0.00583 0.10837 0.0
C3310 C 0.50519 0.99851 0.09821 0.0
C3311 C 0.49497 0.99608 0.11928 0.0
C3312 C 0.49298 0.97866 0.12037 0.0
C3313 C 0.49705 0.97118 0.11021 0.0
C3314 C 0.50295 0.98094 0.09922 0.0
C3315 C 0.48715 0.96865 0.13222 0.0
C3316 C 0.49877 0.96322 0.1379 0.0
C3317 C 0.47099 0.96579 0.1384 0.0
C3318 C 0.45737 0.9699 0.13259 0.0
C3319 C 0.44975 0.96256 0.12113 0.0
C3320 C 0.43698 0.96652 0.11566 0.0
C3321 C 0.43162 0.97771 0.1216 0.0
C3322 C 0.43899 0.98494 0.13303 0.0
C3323 C 0.45178 0.98104 0.13854 0.0
H3324 H 0.42172 0.98076 0.11736 0.0
H3325 H 0.54414 0.94019 0.17035 0.0
H3326 H 0.09701 0.52671 0.18124 0.0
H3327 H 0.08379 0.52387 0.16095 0.0
H3328 H 0.05317 0.54927 0.17368 0.0
H3329 H 0.06583 0.55156 0.19414 0.0
H3330 H 0.03138 0.51993 0.16061 0.0
H3331 H 0.09179 0.57202 0.15516 0.0
H3332 H 0.12596 0.58949 0.15586 0.0
H3333 H 0.12843 0.55115 0.13155 0.0
H3334 H 0.09425 0.5333 0.13084 0.0
H3335 H 1.00085 0.53229 0.10344 0.0
H3336 H 0.01768 0.53901 0.12272 0.0
H3337 H 0.04577 0.51087 0.11039 0.0
H3338 H 0.02886 0.50399 0.09103 0.0
H3339 H 0.06922 0.54199 0.12306 0.0
H3340 H 0.00901 0.48958 0.12895 0.0
H3341 H 0.97484 0.47209 0.12814 0.0
H3342 H 0.97216 0.51111 0.15168 0.0
H3343 H 0.00634 0.52898 0.15249 0.0
C3344 C 0.0874 0.53163 0.17976 0.0
C3345 C 0.08246 0.53932 0.18938 0.0
C3346 C 0.08001 0.53019 0.16809 0.0
C3347 C 0.0676 0.53652 0.16571 0.0
C3348 C 0.06275 0.54433 0.17526 0.0
C3349 C 0.07013 0.54577 0.18694 0.0
C3350 C 0.05911 0.53432 0.1534 0.0
C3351 C 0.03969 0.52503 0.15243 0.0
C3352 C 0.06989 0.5405 0.14265 0.0
C3353 C 0.09045 0.55122 0.14305 0.0
C3354 C 0.09961 0.56723 0.15004 0.0
C3355 C 0.11899 0.57722 0.15042 0.0
C3356 C 0.12936 0.57141 0.14378 0.0
C3357 C 0.12038 0.55562 0.13671 0.0
C3358 C 0.101 0.54557 0.1363 0.0
C3359 C 0.01059 0.5275 0.10482 0.0
C3360 C 0.01327 0.51733 0.09575 0.0
C3361 C 0.02025 0.53141 0.11584 0.0
C3362 C 0.03275 0.52516 0.11811 0.0
C3363 C 0.03615 0.51577 0.10887 0.0
C3364 C 0.02648 0.51187 0.0978 0.0
C3365 C 0.04154 0.52772 0.13032 0.0
C3366 C 0.06096 0.53698 0.13126 0.0
C3367 C 0.03079 0.52151 0.14107 0.0
C3368 C 0.01023 0.51071 0.14069 0.0
C3369 C 1.00113 0.4945 0.13389 0.0
C3370 C 0.98176 0.48451 0.13343 0.0
C3371 C 0.97133 0.49051 0.13983 0.0
C3372 C 0.98026 0.50649 0.14672 0.0
C3373 C 0.99963 0.51655 0.14718 0.0
H3374 H 0.95634 0.48276 0.13947 0.0
H3375 H 0.14436 0.57916 0.14408 0.0
H3376 H 0.48753 0.54106 0.1962 0.0
H3377 H 0.49743 0.53813 0.17581 0.0
H3378 H 0.44391 0.52508 0.16146 0.0
H3379 H 0.43396 0.52808 0.1818 0.0
H3380 H 0.4538 0.50206 0.1527 0.0
H3381 H 0.48312 0.5669 0.15624 0.0
H3382 H 0.50264 0.59697 0.16574 0.0
H3383 H 0.55005 0.58972 0.16355 0.0
H3384 H 0.53076 0.55949 0.15419 0.0
H3385 H 0.48014 0.50369 0.09094 0.0
H3386 H 0.46975 0.51133 0.10969 0.0
H3387 H 0.52241 0.52675 0.12658 0.0
H3388 H 0.53319 0.52006 0.10775 0.0
H3389 H 0.51179 0.54955 0.13343 0.0
H3390 H 0.48206 0.48394 0.13129 0.0
H3391 H 0.46262 0.45376 0.1219 0.0
H3392 H 0.41604 0.46248 0.12157 0.0
H3393 H 0.43528 0.49282 0.13083 0.0
C3394 C 0.47794 0.53784 0.1887 0.0
C3395 C 0.45991 0.53479 0.19072 0.0
C3396 C 0.48362 0.53613 0.177 0.0
C3397 C 0.47148 0.5315 0.16701 0.0
C3398 C 0.45354 0.52859 0.16899 0.0
C3399 C 0.44784 0.53027 0.18067 0.0
C3400 C 0.47727 0.52913 0.15458 0.0
C3401 C 0.46634 0.51259 0.14842 0.0
C3402 C 0.4938 0.54266 0.149 0.0
C3403 C 0.50545 0.56085 0.15462 0.0
C3404 C 0.49768 0.57166 0.15788 0.0
C3405 C 0.50871 0.58874 0.16322 0.0
C3406 C 0.52756 0.59523 0.16528 0.0
C3407 C 0.53544 0.58467 0.16197 0.0
C3408 C 0.52447 0.56756 0.15663 0.0
C3409 C 0.48964 0.509 0.09856 0.0
C3410 C 0.50745 0.51097 0.09781 0.0
C3411 C 0.48359 0.51318 0.10936 0.0
C3412 C 0.49512 0.51927 0.11972 0.0
C3413 C 0.51314 0.52194 0.11881 0.0
C3414 C 0.51922 0.5179 0.10803 0.0
C3415 C 0.48842 0.5224 0.13161 0.0
C3416 C 0.49919 0.53908 0.13768 0.0
C3417 C 0.47176 0.50898 0.13712 0.0
C3418 C 0.46016 0.49071 0.13163 0.0
C3419 C 0.46771 0.47946 0.12914 0.0
C3420 C 0.45672 0.46233 0.12385 0.0
C3421 C 0.43812 0.45623 0.12111 0.0
C3422 C 0.43046 0.46723 0.12368 0.0
C3423 C 0.44139 0.48439 0.12895 0.0
H3424 H 0.42964 0.44296 0.11701 0.0
H3425 H 0.53607 0.60847 0.16942 0.0
H3426 H 0.91848 0.48944 0.84374 0.0
H3427 H 0.93094 0.49266 0.8643 0.0
H3428 H 0.95599 0.46066 0.85427 0.0
H3429 H 0.94369 0.45748 0.8336 0.0
H3430 H 0.94029 0.45125 0.87674 0.0
H3431 H 0.98184 0.50673 0.8558 0.0
H3432 H 0.99034 0.53436 0.84372 0.0
H3433 H 0.96877 0.55399 0.87163 0.0
H3434 H 0.95991 0.52634 0.88381 0.0
H3435 H 0.00984 0.47858 0.92226 0.0
H3436 H 0.99187 0.47224 0.90347 0.0
H3437 H 0.96809 0.50406 0.9165 0.0
H3438 H 0.98632 0.51069 0.93532 0.0
H3439 H 0.98126 0.51329 0.89323 0.0
H3440 H 0.94172 0.45867 0.91489 0.0
H3441 H 0.9337 0.43122 0.92702 0.0
H3442 H 0.95173 0.41001 0.89795 0.0
H3443 H 0.96013 0.43748 0.8857 0.0
C3444 C 0.92673 0.48316 0.84586 0.0
C3445 C 0.93023 0.47335 0.83693 0.0
C3446 C 0.9338 0.48497 0.85765 0.0
C3447 C 0.94463 0.47712 0.86081 0.0
C3448 C 0.94768 0.46685 0.85206 0.0
C3449 C 0.9406 0.46501 0.84024 0.0
C3450 C 0.95315 0.48002 0.87314 0.0
C3451 C 0.9494 0.46481 0.8803 0.0
C3452 C 0.96467 0.49772 0.87794 0.0
C3453 C 0.97003 0.51438 0.87065 0.0
C3454 C 0.97877 0.51687 0.85932 0.0
C3455 C 0.98368 0.53254 0.85246 0.0
C3456 C 0.98005 0.54589 0.85689 0.0
C3457 C 0.97154 0.54362 0.8682 0.0
C3458 C 0.96659 0.52796 0.87509 0.0
C3459 C 1.00074 0.48419 0.92115 0.0
C3460 C 0.99957 0.49521 0.93026 0.0
C3461 C 0.99036 0.48043 0.91044 0.0
C3462 C 0.97854 0.48759 0.90858 0.0
C3463 C 0.97709 0.49837 0.91774 0.0
C3464 C 0.98741 0.50204 0.92852 0.0
C3465 C 0.9685 0.48452 0.89681 0.0
C3466 C 0.97202 0.49972 0.88973 0.0
C3467 C 0.9568 0.46681 0.89209 0.0
C3468 C 0.95171 0.45023 0.89941 0.0
C3469 C 0.94412 0.44823 0.91111 0.0
C3470 C 0.93948 0.43265 0.91801 0.0
C3471 C 0.94224 0.41889 0.91327 0.0
C3472 C 0.94961 0.42068 0.90161 0.0
C3473 C 0.9543 0.43625 0.89469 0.0
H3474 H 0.93863 0.40684 0.91862 0.0
H3475 H 0.98386 0.55802 0.85157 0.0
H3476 H 0.57814 0.49221 0.84435 0.0
H3477 H 0.56782 0.49431 0.86474 0.0
H3478 H 0.51106 0.45802 0.85415 0.0
H3479 H 0.52124 0.45634 0.83356 0.0
H3480 H 0.51375 0.48635 0.86632 0.0
H3481 H 0.53548 0.44412 0.87291 0.0
H3482 H 0.55801 0.4333 0.87222 0.0
H3483 H 0.59584 0.47845 0.8944 0.0
H3484 H 0.57363 0.48968 0.89509 0.0
H3485 H 0.4738 0.47214 0.92436 0.0
H3486 H 0.48483 0.46677 0.90511 0.0
H3487 H 0.54139 0.5027 0.91632 0.0
H3488 H 0.53035 0.50787 0.93579 0.0
H3489 H 0.53911 0.47452 0.90396 0.0
H3490 H 0.51826 0.51725 0.89704 0.0
H3491 H 0.49618 0.52861 0.89778 0.0
H3492 H 0.4574 0.48332 0.87608 0.0
H3493 H 0.47916 0.47154 0.87536 0.0
C3494 C 0.56343 0.48472 0.84631 0.0
C3495 C 0.55055 0.47414 0.83722 0.0
C3496 C 0.55756 0.48578 0.85806 0.0
C3497 C 0.53864 0.47618 0.8611 0.0
C3498 C 0.52574 0.46552 0.85208 0.0
C3499 C 0.53161 0.46445 0.84031 0.0
C3500 C 0.53227 0.47779 0.87352 0.0
C3501 C 0.5191 0.48347 0.87453 0.0
C3502 C 0.53961 0.4746 0.88431 0.0
C3503 C 0.55296 0.46784 0.88395 0.0
C3504 C 0.54866 0.45182 0.87756 0.0
C3505 C 0.56136 0.4456 0.87719 0.0
C3506 C 0.57836 0.45521 0.88324 0.0
C3507 C 0.58267 0.47103 0.88971 0.0
C3508 C 0.57003 0.47732 0.8901 0.0
C3509 C 0.48861 0.47888 0.92276 0.0
C3510 C 0.50118 0.49069 0.93155 0.0
C3511 C 0.49491 0.4758 0.91172 0.0
C3512 C 0.51396 0.48469 0.90906 0.0
C3513 C 0.52662 0.49577 0.91808 0.0
C3514 C 0.5203 0.49871 0.92922 0.0
C3515 C 0.5205 0.48294 0.89673 0.0
C3516 C 0.53373 0.47733 0.89574 0.0
C3517 C 0.5133 0.48628 0.88593 0.0
C3518 C 0.50027 0.49343 0.88624 0.0
C3519 C 0.50497 0.50965 0.89249 0.0
C3520 C 0.49252 0.51618 0.8929 0.0
C3521 C 0.47538 0.50667 0.88701 0.0
C3522 C 0.47068 0.49065 0.88066 0.0
C3523 C 0.48307 0.48406 0.88024 0.0
H3524 H 0.46575 0.51174 0.88734 0.0
H3525 H 0.58818 0.45037 0.88294 0.0
H3526 H 0.55026 0.11067 0.84707 0.0
H3527 H 0.54499 0.09759 0.8675 0.0
H3528 H 0.52699 0.04452 0.8521 0.0
H3529 H 0.53162 0.0574 0.83163 0.0
H3530 H 0.50411 0.04193 0.86978 0.0
H3531 H 0.57019 0.07022 0.8657 0.0
H3532 H 0.60194 0.0953 0.86173 0.0
H3533 H 0.59734 0.12599 0.89121 0.0
H3534 H 0.56545 0.10117 0.89525 0.0
H3535 H 0.5116 0.99557 0.92139 0.0
H3536 H 0.51433 0.01045 0.90184 0.0
H3537 H 0.52912 0.06078 0.92034 0.0
H3538 H 0.52658 0.04588 0.94004 0.0
H3539 H 0.55287 0.0661 0.90169 0.0
H3540 H 0.4872 0.03674 0.90646 0.0
H3541 H 0.45571 0.01126 0.91049 0.0
H3542 H 0.4597 0.98224 0.87974 0.0
H3543 H 0.49134 0.00744 0.87562 0.0
C3544 C 0.54509 0.09619 0.848 0.0
C3545 C 0.54138 0.08513 0.83762 0.0
C3546 C 0.54225 0.08874 0.85973 0.0
C3547 C 0.53573 0.07005 0.86142 0.0
C3548 C 0.53205 0.05898 0.85109 0.0
C3549 C 0.5349 0.06642 0.83935 0.0
C3550 C 0.53241 0.06195 0.87391 0.0
C3551 C 0.51486 0.0471 0.8767 0.0
C3552 C 0.54622 0.06896 0.88312 0.0
C3553 C 0.56536 0.08392 0.88069 0.0
C3554 C 0.57589 0.08238 0.87127 0.0
C3555 C 0.59392 0.09654 0.86902 0.0
C3556 C 0.60163 0.11225 0.87619 0.0
C3557 C 0.59134 0.11382 0.88565 0.0
C3558 C 0.57329 0.09971 0.88793 0.0
C3559 C 0.51524 0.00977 0.92132 0.0
C3560 C 0.51886 0.01954 0.93228 0.0
C3561 C 0.51672 0.01826 0.91012 0.0
C3562 C 0.52185 0.03676 0.90956 0.0
C3563 C 0.52511 0.04649 0.92051 0.0
C3564 C 0.52349 0.03793 0.93177 0.0
C3565 C 0.52463 0.04598 0.89751 0.0
C3566 C 0.54208 0.06102 0.8948 0.0
C3567 C 0.51076 0.03912 0.88835 0.0
C3568 C 0.49172 0.02393 0.89079 0.0
C3569 C 0.48143 0.02486 0.90061 0.0
C3570 C 0.46354 0.01048 0.9029 0.0
C3571 C 0.45572 0.99512 0.89539 0.0
C3572 C 0.46577 0.99413 0.88556 0.0
C3573 C 0.48368 0.00848 0.88323 0.0
H3574 H 0.44186 0.984 0.89718 0.0
H3575 H 0.6156 0.12319 0.87444 0.0
H3576 H 0.14391 0.29269 0.52995 0.0
H3577 H 0.15123 0.30397 0.5091 0.0
H3578 H 0.13311 0.24953 0.4963 0.0
H3579 H 0.12552 0.23805 0.51718 0.0
H3580 H 0.16426 0.27355 0.48479 0.0
H3581 H 0.10553 0.26835 0.49278 0.0
H3582 H 0.08275 0.27302 0.50416 0.0
H3583 H 0.11672 0.33093 0.49971 0.0
H3584 H 0.13984 0.32662 0.48846 0.0
H3585 H 0.14595 0.31537 0.42556 0.0
H3586 H 0.13529 0.29788 0.44458 0.0
H3587 H 0.19175 0.3236 0.45752 0.0
H3588 H 0.20243 0.34085 0.43858 0.0
H3589 H 0.13783 0.30996 0.46768 0.0
H3590 H 0.19757 0.29434 0.47576 0.0
H3591 H 0.2183 0.28751 0.46369 0.0
H3592 H 0.17846 0.26717 0.43459 0.0
H3593 H 0.15739 0.27363 0.44654 0.0
C3594 C 0.14133 0.28303 0.52273 0.0
C3595 C 0.13393 0.26437 0.52533 0.0
C3596 C 0.14557 0.28954 0.51076 0.0
C3597 C 0.14248 0.2776 0.50103 0.0
C3598 C 0.13562 0.25905 0.50361 0.0
C3599 C 0.13134 0.25251 0.5156 0.0
C3600 C 0.14628 0.2845 0.48821 0.0
C3601 C 0.15847 0.2815 0.48106 0.0
C3602 C 0.1384 0.29451 0.48315 0.0
C3603 C 0.12449 0.29716 0.48986 0.0
C3604 C 0.1082 0.28209 0.4943 0.0
C3605 C 0.09522 0.28467 0.50072 0.0
C3606 C 0.09831 0.30226 0.50268 0.0
C3607 C 0.11436 0.31731 0.4982 0.0
C3608 C 0.1274 0.31481 0.49179 0.0
C3609 C 0.1561 0.31708 0.43239 0.0
C3610 C 0.17504 0.3296 0.43054 0.0
C3611 C 0.14998 0.30717 0.4433 0.0
C3612 C 0.1627 0.30933 0.45252 0.0
C3613 C 0.18164 0.3215 0.45055 0.0
C3614 C 0.18773 0.33149 0.43972 0.0
C3615 C 0.15628 0.29951 0.4644 0.0
C3616 C 0.14359 0.30196 0.47139 0.0
C3617 C 0.16347 0.28875 0.46923 0.0
C3618 C 0.17598 0.28463 0.46202 0.0
C3619 C 0.1932 0.28834 0.46681 0.0
C3620 C 0.20502 0.28454 0.45998 0.0
C3621 C 0.19973 0.27696 0.44837 0.0
C3622 C 0.18258 0.27311 0.44357 0.0
C3623 C 0.17071 0.27686 0.45036 0.0
H3624 H 0.2089 0.27405 0.4431 0.0
H3625 H 0.08824 0.30423 0.50765 0.0
H3626 H 0.72282 0.83987 0.5282 0.0
H3627 H 0.71097 0.83591 0.50745 0.0
H3628 H 0.75484 0.88993 0.49828 0.0
H3629 H 0.76687 0.89399 0.51912 0.0
H3630 H 0.72239 0.8835 0.48852 0.0
H3631 H 0.7571 0.85278 0.48914 0.0
H3632 H 0.76716 0.83173 0.49684 0.0
H3633 H 0.71221 0.78644 0.4915 0.0
H3634 H 0.70174 0.80726 0.48393 0.0
H3635 H 0.70039 0.86579 0.42502 0.0
H3636 H 0.7181 0.87298 0.4441 0.0
H3637 H 0.67629 0.82193 0.45937 0.0
H3638 H 0.6587 0.81463 0.44036 0.0
H3639 H 0.71142 0.82908 0.46494 0.0
H3640 H 0.67659 0.86082 0.466 0.0
H3641 H 0.66698 0.88217 0.45817 0.0
H3642 H 0.72336 0.92604 0.45996 0.0
H3643 H 0.73333 0.90488 0.46764 0.0
C3644 C 0.73006 0.85089 0.52177 0.0
C3645 C 0.74594 0.86718 0.52533 0.0
C3646 C 0.72324 0.8486 0.50988 0.0
C3647 C 0.73219 0.86248 0.5012 0.0
C3648 C 0.74773 0.87899 0.50479 0.0
C3649 C 0.75456 0.88131 0.51672 0.0
C3650 C 0.72526 0.8596 0.48842 0.0
C3651 C 0.72032 0.87178 0.48328 0.0
C3652 C 0.72236 0.84422 0.48158 0.0
C3653 C 0.7286 0.83161 0.48606 0.0
C3654 C 0.74712 0.83835 0.48969 0.0
C3655 C 0.7529 0.82645 0.49402 0.0
C3656 C 0.74032 0.80776 0.49468 0.0
C3657 C 0.72194 0.80092 0.49099 0.0
C3658 C 0.71608 0.81276 0.48667 0.0
C3659 C 0.69512 0.85601 0.43239 0.0
C3660 C 0.67806 0.83971 0.43122 0.0
C3661 C 0.70518 0.86019 0.44332 0.0
C3662 C 0.69841 0.84808 0.45323 0.0
C3663 C 0.68176 0.83151 0.45188 0.0
C3664 C 0.67166 0.82741 0.44103 0.0
C3665 C 0.70822 0.85277 0.46516 0.0
C3666 C 0.71371 0.84091 0.47013 0.0
C3667 C 0.71173 0.8685 0.4718 0.0
C3668 C 0.70573 0.88124 0.46726 0.0
C3669 C 0.68695 0.87499 0.46463 0.0
C3670 C 0.68144 0.88706 0.46023 0.0
C3671 C 0.69456 0.90544 0.45853 0.0
C3672 C 0.71322 0.9118 0.46126 0.0
C3673 C 0.71881 0.89978 0.46564 0.0
H3674 H 0.69027 0.91476 0.45513 0.0
H3675 H 0.74482 0.79857 0.49803 0.0
H3676 H 0.15684 0.88131 0.52901 0.0
H3677 H 0.16636 0.87841 0.50848 0.0
H3678 H 0.109 0.84737 0.49751 0.0
H3679 H 0.09939 0.85026 0.51797 0.0
H3680 H 0.12693 0.83138 0.48929 0.0
H3681 H 0.13753 0.89217 0.48835 0.0
H3682 H 0.14993 0.92382 0.49532 0.0
H3683 H 0.20554 0.93383 0.49127 0.0
H3684 H 0.19347 0.90214 0.48443 0.0
H3685 H 0.14731 0.83196 0.42617 0.0
H3686 H 0.13583 0.83779 0.4452 0.0
H3687 H 0.19171 0.8669 0.45921 0.0
H3688 H 0.20327 0.86149 0.44019 0.0
H3689 H 0.17309 0.88417 0.46524 0.0
H3690 H 0.16185 0.82251 0.46724 0.0
H3691 H 0.14906 0.79095 0.45995 0.0
H3692 H 0.09392 0.78288 0.46167 0.0
H3693 H 0.10641 0.81449 0.46883 0.0
C3694 C 0.14623 0.87407 0.5222 0.0
C3695 C 0.12732 0.86601 0.52522 0.0
C3696 C 0.1517 0.8724 0.51043 0.0
C3697 C 0.13842 0.86278 0.50134 0.0
C3698 C 0.11955 0.8548 0.50432 0.0
C3699 C 0.11407 0.85643 0.51608 0.0
C3700 C 0.14416 0.86061 0.48883 0.0
C3701 C 0.13681 0.84298 0.48398 0.0
C3702 C 0.15727 0.87565 0.48188 0.0
C3703 C 0.16459 0.89472 0.48599 0.0
C3704 C 0.1524 0.90107 0.48904 0.0
C3705 C 0.15937 0.91903 0.49295 0.0
C3706 C 0.17851 0.93081 0.49377 0.0
C3707 C 0.19072 0.92467 0.49065 0.0
C3708 C 0.18382 0.90672 0.48675 0.0
C3709 C 0.15718 0.83982 0.43323 0.0
C3710 C 0.17621 0.84609 0.43167 0.0
C3711 C 0.15058 0.84303 0.44416 0.0
C3712 C 0.16286 0.85257 0.45376 0.0
C3713 C 0.18192 0.85943 0.45201 0.0
C3714 C 0.1885 0.85619 0.44114 0.0
C3715 C 0.15597 0.85496 0.46578 0.0
C3716 C 0.16312 0.87261 0.47055 0.0
C3717 C 0.14261 0.83996 0.47263 0.0
C3718 C 0.13507 0.82091 0.46845 0.0
C3719 C 0.147 0.81404 0.46598 0.0
C3720 C 0.13981 0.79614 0.46189 0.0
C3721 C 0.1207 0.78493 0.46031 0.0
C3722 C 0.10873 0.79158 0.46287 0.0
C3723 C 0.11585 0.80949 0.46696 0.0
H3724 H 0.11515 0.77108 0.45714 0.0
H3725 H 0.18387 0.94471 0.49679 0.0
H3726 H 0.61797 0.80411 0.1663 0.0
H3727 H 0.63074 0.80784 0.18682 0.0
H3728 H 0.5824 0.80717 0.20147 0.0
H3729 H 0.56953 0.80343 0.18095 0.0
H3730 H 0.61276 0.8338 0.21164 0.0
H3731 H 0.58919 0.77035 0.20477 0.0
H3732 H 0.5847 0.74311 0.19373 0.0
H3733 H 0.64313 0.76235 0.19591 0.0
H3734 H 0.64801 0.78984 0.20682 0.0
H3735 H 0.64263 0.83366 0.27248 0.0
H3736 H 0.6239 0.82464 0.25394 0.0
H3737 H 0.66684 0.82007 0.23517 0.0
H3738 H 0.68486 0.82754 0.25384 0.0
H3739 H 0.63574 0.7941 0.22801 0.0
H3740 H 0.65931 0.85913 0.23328 0.0
H3741 H 0.66334 0.88609 0.24449 0.0
H3742 H 0.60428 0.86341 0.24556 0.0
H3743 H 0.5999 0.83624 0.23445 0.0
C3744 C 0.60991 0.80449 0.17389 0.0
C3745 C 0.59268 0.80342 0.17193 0.0
C3746 C 0.61726 0.80666 0.18565 0.0
C3747 C 0.60747 0.8076 0.19576 0.0
C3748 C 0.59025 0.80651 0.19384 0.0
C3749 C 0.58292 0.80441 0.18208 0.0
C3750 C 0.61544 0.81017 0.20828 0.0
C3751 C 0.61754 0.82495 0.21529 0.0
C3752 C 0.62187 0.79878 0.21305 0.0
C3753 C 0.61898 0.78223 0.20652 0.0
C3754 C 0.6011 0.76884 0.20281 0.0
C3755 C 0.59848 0.75334 0.19659 0.0
C3756 C 0.61362 0.75102 0.19409 0.0
C3757 C 0.63141 0.76418 0.19784 0.0
C3758 C 0.63411 0.77971 0.20406 0.0
C3759 C 0.64798 0.83041 0.26449 0.0
C3760 C 0.66549 0.83163 0.26472 0.0
C3761 C 0.63732 0.82551 0.25379 0.0
C3762 C 0.64409 0.8221 0.24298 0.0
C3763 C 0.66129 0.82277 0.2433 0.0
C3764 C 0.67175 0.82732 0.25401 0.0
C3765 C 0.63358 0.81805 0.23126 0.0
C3766 C 0.63091 0.80292 0.2244 0.0
C3767 C 0.62662 0.82912 0.22664 0.0
C3768 C 0.62928 0.84559 0.23314 0.0
C3769 C 0.64719 0.85987 0.23595 0.0
C3770 C 0.64953 0.87519 0.24228 0.0
C3771 C 0.63407 0.87644 0.24577 0.0
C3772 C 0.61624 0.86241 0.24287 0.0
C3773 C 0.61382 0.84706 0.23654 0.0
H3774 H 0.63591 0.88829 0.25069 0.0
H3775 H 0.61157 0.73902 0.18928 0.0
H3776 H 0.24427 0.81282 0.18117 0.0
H3777 H 0.23389 0.81573 0.20137 0.0
H3778 H 0.17936 0.7987 0.18701 0.0
H3779 H 0.18984 0.7964 0.16667 0.0
H3780 H 0.19004 0.82729 0.20123 0.0
H3781 H 0.1888 0.77037 0.20506 0.0
H3782 H 0.20127 0.74942 0.20409 0.0
H3783 H 0.24317 0.78203 0.23031 0.0
H3784 H 0.2311 0.80332 0.23131 0.0
H3785 H 0.14196 0.81215 0.25641 0.0
H3786 H 0.15301 0.80632 0.23735 0.0
H3787 H 0.20809 0.82944 0.25238 0.0
H3788 H 0.19719 0.8357 0.27152 0.0
H3789 H 0.19792 0.79812 0.23821 0.0
H3790 H 0.19895 0.85497 0.23424 0.0
H3791 H 0.18597 0.87548 0.23536 0.0
H3792 H 0.14398 0.84239 0.20932 0.0
H3793 H 0.15656 0.82152 0.20818 0.0
C3794 C 0.23007 0.80975 0.18227 0.0
C3795 C 0.21793 0.80441 0.1722 0.0
C3796 C 0.22408 0.81123 0.1939 0.0
C3797 C 0.20575 0.80727 0.19582 0.0
C3798 C 0.19356 0.80179 0.18582 0.0
C3799 C 0.19954 0.80032 0.17418 0.0
C3800 C 0.19948 0.8095 0.20812 0.0
C3801 C 0.19154 0.82066 0.20926 0.0
C3802 C 0.20186 0.80131 0.21874 0.0
C3803 C 0.20916 0.78854 0.21816 0.0
C3804 C 0.20077 0.77316 0.21054 0.0
C3805 C 0.20775 0.76121 0.21 0.0
C3806 C 0.22304 0.76442 0.21711 0.0
C3807 C 0.23135 0.77957 0.2248 0.0
C3808 C 0.22443 0.79158 0.22536 0.0
C3809 C 0.15647 0.81611 0.25569 0.0
C3810 C 0.16875 0.8248 0.26547 0.0
C3811 C 0.16274 0.81266 0.24478 0.0
C3812 C 0.18146 0.81774 0.24332 0.0
C3813 C 0.1936 0.82548 0.25326 0.0
C3814 C 0.18732 0.82901 0.26422 0.0
C3815 C 0.18836 0.81573 0.23122 0.0
C3816 C 0.19645 0.80469 0.23014 0.0
C3817 C 0.1861 0.82398 0.22063 0.0
C3818 C 0.17859 0.83659 0.22121 0.0
C3819 C 0.18686 0.85199 0.22882 0.0
C3820 C 0.17959 0.86369 0.22945 0.0
C3821 C 0.16413 0.86022 0.22244 0.0
C3822 C 0.15595 0.84505 0.21476 0.0
C3823 C 0.16315 0.83329 0.21411 0.0
H3824 H 0.15852 0.86929 0.22294 0.0
H3825 H 0.22842 0.75515 0.21669 0.0
H3826 H 0.23449 0.42893 0.1744 0.0
H3827 H 0.23 0.41675 0.19515 0.0
H3828 H 0.1707 0.39028 0.19027 0.0
H3829 H 0.17509 0.40243 0.16966 0.0
H3830 H 0.17943 0.40605 0.21169 0.0
H3831 H 0.19589 0.36698 0.18948 0.0
H3832 H 0.21578 0.36011 0.17654 0.0
H3833 H 0.25984 0.38504 0.20277 0.0
H3834 H 0.24028 0.39226 0.2158 0.0
H3835 H 0.1432 0.33702 0.25627 0.0
H3836 H 0.1536 0.35484 0.23755 0.0
H3837 H 0.21013 0.38104 0.25039 0.0
H3838 H 0.19974 0.36301 0.26925 0.0
H3839 H 0.20658 0.369 0.22635 0.0
H3840 H 0.18828 0.40437 0.24979 0.0
H3841 H 0.16763 0.40972 0.26299 0.0
H3842 H 0.12678 0.39165 0.23454 0.0
H3843 H 0.14696 0.38564 0.22127 0.0
C3844 C 0.22049 0.42037 0.17771 0.0
C3845 C 0.20517 0.41676 0.17032 0.0
C3846 C 0.21793 0.41342 0.1896 0.0
C3847 C 0.19997 0.40248 0.19435 0.0
C3848 C 0.1847 0.39878 0.18694 0.0
C3849 C 0.18725 0.40578 0.17511 0.0
C3850 C 0.19688 0.39491 0.20701 0.0
C3851 C 0.18526 0.39783 0.21483 0.0
C3852 C 0.20494 0.38466 0.21137 0.0
C3853 C 0.2167 0.38035 0.20354 0.0
C3854 C 0.20988 0.37113 0.19244 0.0
C3855 C 0.22108 0.36715 0.1851 0.0
C3856 C 0.23909 0.37219 0.18881 0.0
C3857 C 0.24591 0.38118 0.19989 0.0
C3858 C 0.23477 0.38521 0.20726 0.0
C3859 C 0.15786 0.34659 0.25515 0.0
C3860 C 0.17064 0.34849 0.26426 0.0
C3861 C 0.16379 0.35686 0.24445 0.0
C3862 C 0.18266 0.36936 0.24253 0.0
C3863 C 0.1955 0.37149 0.25165 0.0
C3864 C 0.18953 0.36128 0.26246 0.0
C3865 C 0.18876 0.37977 0.23085 0.0
C3866 C 0.20093 0.37741 0.22324 0.0
C3867 C 0.18119 0.39051 0.22667 0.0
C3868 C 0.16911 0.39441 0.23455 0.0
C3869 C 0.17484 0.40139 0.24636 0.0
C3870 C 0.16321 0.40456 0.25386 0.0
C3871 C 0.1459 0.40104 0.24961 0.0
C3872 C 0.14019 0.39436 0.23783 0.0
C3873 C 0.15172 0.39106 0.23031 0.0
H3874 H 0.13691 0.40349 0.25543 0.0
H3875 H 0.24774 0.36909 0.18312 0.0
H3876 H 0.82705 0.6081 0.86209 0.0
H3877 H 0.83674 0.62035 0.84156 0.0
H3878 H 0.77984 0.59085 0.82948 0.0
H3879 H 0.77013 0.57801 0.84983 0.0
H3880 H 0.80155 0.5893 0.81246 0.0
H3881 H 0.80202 0.63709 0.83607 0.0
H3882 H 0.81058 0.65841 0.85331 0.0
H3883 H 0.86814 0.68226 0.84401 0.0
H3884 H 0.85994 0.66091 0.82679 0.0
H3885 H 0.81487 0.643 0.75815 0.0
H3886 H 0.80475 0.62598 0.77736 0.0
H3887 H 0.8611 0.65459 0.79059 0.0
H3888 H 0.87123 0.67145 0.77152 0.0
H3889 H 0.83898 0.65624 0.80694 0.0
H3890 H 0.83846 0.60843 0.78322 0.0
H3891 H 0.82993 0.58608 0.76661 0.0
H3892 H 0.77242 0.56223 0.77608 0.0
H3893 H 0.78059 0.58453 0.79269 0.0
C3894 C 0.8166 0.60399 0.85505 0.0
C3895 C 0.79775 0.59214 0.85774 0.0
C3896 C 0.82215 0.61118 0.8433 0.0
C3897 C 0.80901 0.60682 0.83394 0.0
C3898 C 0.79028 0.59456 0.8365 0.0
C3899 C 0.78472 0.58735 0.84823 0.0
C3900 C 0.81471 0.61527 0.82156 0.0
C3901 C 0.80954 0.60396 0.81125 0.0
C3902 C 0.82542 0.63439 0.8199 0.0
C3903 C 0.83038 0.64728 0.83022 0.0
C3904 C 0.81651 0.6468 0.83775 0.0
C3905 C 0.8213 0.6589 0.84751 0.0
C3906 C 0.8399 0.67165 0.84977 0.0
C3907 C 0.85375 0.67236 0.84226 0.0
C3908 C 0.84904 0.66027 0.83249 0.0
C3909 C 0.82515 0.6454 0.76506 0.0
C3910 C 0.84384 0.65884 0.76332 0.0
C3911 C 0.81934 0.63566 0.77608 0.0
C3912 C 0.83212 0.63903 0.78554 0.0
C3913 C 0.85088 0.65184 0.78355 0.0
C3914 C 0.85667 0.66153 0.77261 0.0
C3915 C 0.826 0.63027 0.7978 0.0
C3916 C 0.83101 0.64157 0.80812 0.0
C3917 C 0.81512 0.61116 0.79943 0.0
C3918 C 0.81013 0.59826 0.78913 0.0
C3919 C 0.82397 0.59856 0.78167 0.0
C3920 C 0.81921 0.58585 0.77229 0.0
C3921 C 0.80065 0.57273 0.77031 0.0
C3922 C 0.78679 0.57238 0.77764 0.0
C3923 C 0.79148 0.58504 0.78704 0.0
H3924 H 0.79699 0.56278 0.76314 0.0
H3925 H 0.84357 0.68101 0.85733 0.0
H3926 H 0.43152 0.19368 0.8489 0.0
H3927 H 0.41817 0.19018 0.82858 0.0
H3928 H 0.38113 0.20785 0.8421 0.0
H3929 H 0.39398 0.21077 0.86255 0.0
H3930 H 0.36273 0.17846 0.82831 0.0
H3931 H 0.41905 0.23563 0.82417 0.0
H3932 H 0.45278 0.25682 0.82521 0.0
H3933 H 0.46195 0.22378 0.79973 0.0
H3934 H 0.42827 0.20225 0.79866 0.0
H3935 H 0.32957 0.19067 0.77213 0.0
H3936 H 0.3461 0.19719 0.7915 0.0
H3937 H 0.37965 0.17568 0.77756 0.0
H3938 H 0.36296 0.16889 0.7581 0.0
H3939 H 0.4002 0.20692 0.7913 0.0
H3940 H 0.3439 0.14971 0.79562 0.0
H3941 H 0.31014 0.12874 0.79445 0.0
H3942 H 0.30106 0.16214 0.81966 0.0
H3943 H 0.33477 0.18348 0.82085 0.0
C3944 C 0.42049 0.19677 0.84758 0.0
C3945 C 0.41382 0.20248 0.85742 0.0
C3946 C 0.41299 0.19495 0.8359 0.0
C3947 C 0.39873 0.19891 0.83374 0.0
C3948 C 0.39215 0.20475 0.84351 0.0
C3949 C 0.39964 0.20657 0.8552 0.0
C3950 C 0.3902 0.19631 0.82142 0.0
C3951 C 0.37093 0.18492 0.82026 0.0
C3952 C 0.40089 0.2043 0.81081 0.0
C3953 C 0.42115 0.21723 0.81143 0.0
C3954 C 0.42827 0.2328 0.81886 0.0
C3955 C 0.44737 0.24489 0.81944 0.0
C3956 C 0.4595 0.24162 0.81257 0.0
C3957 C 0.45254 0.22628 0.80507 0.0
C3958 C 0.43344 0.21414 0.80446 0.0
C3959 C 0.34043 0.18726 0.77316 0.0
C3960 C 0.34473 0.17898 0.76359 0.0
C3961 C 0.34992 0.19107 0.78425 0.0
C3962 C 0.36392 0.18665 0.78607 0.0
C3963 C 0.36886 0.17916 0.77637 0.0
C3964 C 0.35934 0.17533 0.76524 0.0
C3965 C 0.37278 0.18922 0.79826 0.0
C3966 C 0.39206 0.20051 0.79937 0.0
C3967 C 0.36212 0.18116 0.80885 0.0
C3968 C 0.34185 0.16828 0.80823 0.0
C3969 C 0.33469 0.15266 0.80084 0.0
C3970 C 0.31557 0.14069 0.80019 0.0
C3971 C 0.30346 0.14413 0.80695 0.0
C3972 C 0.31045 0.15951 0.81441 0.0
C3973 C 0.32957 0.17154 0.81509 0.0
H3974 H 0.28865 0.13485 0.80643 0.0
H3975 H 0.47429 0.251 0.81302 0.0
H3976 H 0.82334 0.21262 0.86236 0.0
H3977 H 0.83309 0.21022 0.8418 0.0
H3978 H 0.77679 0.18769 0.82907 0.0
H3979 H 0.76697 0.19018 0.84955 0.0
H3980 H 0.79121 0.1682 0.82055 0.0
H3981 H 0.81062 0.23166 0.82204 0.0
H3982 H 0.82658 0.26285 0.83039 0.0
H3983 H 0.87904 0.26502 0.82708 0.0
H3984 H 0.86335 0.23374 0.81887 0.0
H3985 H 0.814 0.17027 0.75792 0.0
H3986 H 0.80306 0.17652 0.777 0.0
H3987 H 0.85825 0.20022 0.79198 0.0
H3988 H 0.86939 0.19469 0.77285 0.0
H3989 H 0.84316 0.21966 0.79882 0.0
H3990 H 0.82347 0.15557 0.79853 0.0
H3991 H 0.80751 0.12435 0.79022 0.0
H3992 H 0.75551 0.12349 0.7913 0.0
H3993 H 0.77122 0.15481 0.79949 0.0
C3994 C 0.81306 0.20741 0.85516 0.0
C3995 C 0.79433 0.20156 0.8577 0.0
C3996 C 0.81866 0.20601 0.84338 0.0
C3997 C 0.80572 0.19886 0.83379 0.0
C3998 C 0.78706 0.19317 0.83628 0.0
C3999 C 0.78145 0.19456 0.84804 0.0
C4000 C 0.81149 0.19681 0.82128 0.0
C4001 C 0.80239 0.17955 0.81574 0.0
C4002 C 0.8263 0.21147 0.81501 0.0
C4003 C 0.83578 0.23029 0.81994 0.0
C4004 C 0.82554 0.23873 0.82319 0.0
C4005 C 0.83454 0.25644 0.82788 0.0
C4006 C 0.8538 0.26589 0.82929 0.0
C4007 C 0.86411 0.25767 0.82599 0.0
C4008 C 0.85518 0.23996 0.82131 0.0
C4009 C 0.82388 0.17708 0.7652 0.0
C4010 C 0.84256 0.18176 0.76384 0.0
C4011 C 0.81755 0.18048 0.77618 0.0
C4012 C 0.82973 0.18854 0.78608 0.0
C4013 C 0.84851 0.19387 0.78456 0.0
C4014 C 0.85484 0.19053 0.77361 0.0
C4015 C 0.82298 0.19103 0.79814 0.0
C4016 C 0.83191 0.20836 0.80361 0.0
C4017 C 0.80801 0.17644 0.80436 0.0
C4018 C 0.79854 0.15759 0.7995 0.0
C4019 C 0.80865 0.14876 0.79692 0.0
C4020 C 0.79965 0.13105 0.79224 0.0
C4021 C 0.78052 0.12197 0.7902 0.0
C4022 C 0.77033 0.13056 0.79287 0.0
C4023 C 0.77927 0.14828 0.79753 0.0
H4024 H 0.77357 0.10825 0.78657 0.0
H4025 H 0.86075 0.2796 0.83293 0.0
H4026 H 0.24367 0.14447 0.51249 0.0
H4027 H 0.25639 0.14781 0.53301 0.0
H4028 H 0.29726 0.13516 0.51953 0.0
H4029 H 0.2847 0.13193 0.49895 0.0
H4030 H 0.28289 0.11822 0.54115 0.0
H4031 H 0.30842 0.17908 0.52495 0.0
H4032 H 0.30681 0.20477 0.51565 0.0
H4033 H 0.27496 0.2059 0.54595 0.0
H4034 H 0.27618 0.18004 0.55535 0.0
H4035 H 0.35047 0.15412 0.58775 0.0
H4036 H 0.33264 0.14648 0.56892 0.0
H4037 H 0.29646 0.16365 0.58467 0.0
H4038 H 0.31483 0.17213 0.60345 0.0
H4039 H 0.30608 0.17717 0.56262 0.0
H4040 H 0.28208 0.11786 0.57963 0.0
H4041 H 0.28326 0.09205 0.58909 0.0
H4042 H 0.31127 0.0875 0.55771 0.0
H4043 H 0.3105 0.11347 0.54813 0.0
C4044 C 0.25542 0.14247 0.51386 0.0
C4045 C 0.26325 0.13809 0.50401 0.0
C4046 C 0.26264 0.14433 0.52562 0.0
C4047 C 0.27795 0.14198 0.52781 0.0
C4048 C 0.28544 0.13704 0.51808 0.0
C4049 C 0.2782 0.13515 0.50631 0.0
C4050 C 0.2865 0.14518 0.54015 0.0
C4051 C 0.28813 0.13117 0.5458 0.0
C4052 C 0.29285 0.16189 0.5464 0.0
C4053 C 0.29223 0.17751 0.54079 0.0
C4054 C 0.30096 0.18472 0.52959 0.0
C4055 C 0.30014 0.19933 0.5243 0.0
C4056 C 0.29075 0.20693 0.53019 0.0
C4057 C 0.28221 0.19998 0.54139 0.0
C4058 C 0.28297 0.18536 0.54671 0.0
C4059 C 0.33875 0.15634 0.58724 0.0
C4060 C 0.3342 0.16388 0.59713 0.0
C4061 C 0.32839 0.15173 0.57647 0.0
C4062 C 0.31303 0.15428 0.57536 0.0
C4063 C 0.30821 0.1615 0.5853 0.0
C4064 C 0.31864 0.16619 0.59608 0.0
C4065 C 0.30265 0.15026 0.56362 0.0
C4066 C 0.3007 0.16414 0.55805 0.0
C4067 C 0.29593 0.1334 0.55749 0.0
C4068 C 0.29636 0.11772 0.5632 0.0
C4069 C 0.28862 0.11145 0.57478 0.0
C4070 C 0.28919 0.09677 0.58016 0.0
C4071 C 0.29737 0.08816 0.57402 0.0
C4072 C 0.30495 0.09419 0.56247 0.0
C4073 C 0.30443 0.10887 0.55705 0.0
H4074 H 0.2978 0.0768 0.5782 0.0
H4075 H 0.29012 0.21824 0.52608 0.0
H4076 H 0.91363 0.16006 0.51005 0.0
H4077 H 0.90364 0.16246 0.53048 0.0
H4078 H 0.847 0.12404 0.52083 0.0
H4079 H 0.85681 0.12207 0.5002 0.0
H4080 H 0.8487 0.15215 0.53258 0.0
H4081 H 0.87347 0.11244 0.53959 0.0
H4082 H 0.89717 0.10311 0.5389 0.0
H4083 H 0.93414 0.14985 0.56019 0.0
H4084 H 0.91075 0.1596 0.56087 0.0
H4085 H 0.80983 0.13814 0.59078 0.0
H4086 H 0.82113 0.13275 0.57166 0.0
H4087 H 0.87734 0.17116 0.58227 0.0
H4088 H 0.86602 0.17629 0.60165 0.0
H4089 H 0.87639 0.1433 0.57018 0.0
H4090 H 0.85237 0.18342 0.56293 0.0
H4091 H 0.82905 0.19323 0.5637 0.0
H4092 H 0.7913 0.14647 0.54271 0.0
H4093 H 0.81431 0.13623 0.54196 0.0
C4094 C 0.89902 0.15217 0.51222 0.0
C4095 C 0.88604 0.14091 0.50338 0.0
C4096 C 0.89334 0.1534 0.524 0.0
C4097 C 0.87456 0.14329 0.52732 0.0
C4098 C 0.86158 0.13194 0.51855 0.0
C4099 C 0.86725 0.13071 0.50675 0.0
C4100 C 0.86835 0.14504 0.53976 0.0
C4101 C 0.85458 0.14992 0.54078 0.0
C4102 C 0.87637 0.14273 0.55054 0.0
C4103 C 0.89042 0.13684 0.55018 0.0
C4104 C 0.88671 0.12081 0.54404 0.0
C4105 C 0.90008 0.11543 0.54367 0.0
C4106 C 0.91717 0.1259 0.54947 0.0
C4107 C 0.92091 0.14176 0.55569 0.0
C4108 C 0.90759 0.14721 0.55608 0.0
C4109 C 0.82462 0.14538 0.58908 0.0
C4110 C 0.837 0.15788 0.59766 0.0
C4111 C 0.83108 0.14231 0.57811 0.0
C4112 C 0.85008 0.15191 0.57531 0.0
C4113 C 0.86261 0.16368 0.58414 0.0
C4114 C 0.85614 0.16659 0.59523 0.0
C4115 C 0.85663 0.15022 0.56297 0.0
C4116 C 0.8705 0.14546 0.56197 0.0
C4117 C 0.84879 0.15274 0.55217 0.0
C4118 C 0.83501 0.15898 0.55248 0.0
C4119 C 0.83906 0.17517 0.55854 0.0
C4120 C 0.8259 0.18081 0.55896 0.0
C4121 C 0.80869 0.17046 0.55328 0.0
C4122 C 0.80463 0.15446 0.54712 0.0
C4123 C 0.81773 0.14874 0.54668 0.0
H4124 H 0.79852 0.17485 0.55362 0.0
H4125 H 0.9275 0.12172 0.54916 0.0
H4126 H 0.90087 0.76136 0.50692 0.0
H4127 H 0.89652 0.74898 0.5276 0.0
H4128 H 0.8372 0.72187 0.52272 0.0
H4129 H 0.84144 0.73417 0.50217 0.0
H4130 H 0.84583 0.73782 0.54409 0.0
H4131 H 0.86277 0.69904 0.52208 0.0
H4132 H 0.88275 0.69223 0.50919 0.0
H4133 H 0.92681 0.71751 0.53539 0.0
H4134 H 0.90715 0.72468 0.54837 0.0
H4135 H 0.81066 0.67009 0.58953 0.0
H4136 H 0.82065 0.68751 0.57064 0.0
H4137 H 0.87751 0.71358 0.58281 0.0
H4138 H 0.86752 0.69589 0.60183 0.0
H4139 H 0.87369 0.70154 0.55902 0.0
H4140 H 0.85553 0.73761 0.58195 0.0
H4141 H 0.83521 0.74376 0.59496 0.0
H4142 H 0.79334 0.72337 0.56712 0.0
H4143 H 0.8133 0.71685 0.55399 0.0
C4144 C 0.8869 0.75261 0.5102 0.0
C4145 C 0.87152 0.74889 0.50283 0.0
C4146 C 0.88442 0.74553 0.52206 0.0
C4147 C 0.8665 0.73438 0.5268 0.0
C4148 C 0.85117 0.73052 0.51939 0.0
C4149 C 0.85363 0.73763 0.5076 0.0
C4150 C 0.86349 0.72689 0.53949 0.0
C4151 C 0.85182 0.72975 0.54728 0.0
C4152 C 0.87174 0.71685 0.54392 0.0
C4153 C 0.88357 0.71259 0.53612 0.0
C4154 C 0.87677 0.70329 0.52504 0.0
C4155 C 0.88803 0.69934 0.51773 0.0
C4156 C 0.90606 0.70449 0.52145 0.0
C4157 C 0.91286 0.71356 0.53251 0.0
C4158 C 0.90166 0.71757 0.53985 0.0
C4159 C 0.82531 0.67956 0.58823 0.0
C4160 C 0.83829 0.68151 0.5972 0.0
C4161 C 0.831 0.68963 0.57743 0.0
C4162 C 0.84984 0.70198 0.57526 0.0
C4163 C 0.86289 0.70416 0.58425 0.0
C4164 C 0.85715 0.69415 0.59516 0.0
C4165 C 0.8557 0.71212 0.56346 0.0
C4166 C 0.86789 0.70978 0.55585 0.0
C4167 C 0.84791 0.72263 0.55918 0.0
C4168 C 0.83588 0.72662 0.56702 0.0
C4169 C 0.84194 0.73431 0.57863 0.0
C4170 C 0.83049 0.73789 0.58602 0.0
C4171 C 0.81298 0.73393 0.58188 0.0
C4172 C 0.8069 0.72642 0.57032 0.0
C4173 C 0.81829 0.7228 0.56289 0.0
H4174 H 0.80414 0.7367 0.58762 0.0
H4175 H 0.91475 0.70141 0.51578 0.0
loop_
_geom_bond_atom_site_label_1
_geom_bond_atom_site_label_2
_geom_bond_distance
_geom_bond_site_symmetry_2
_ccdc_geom_bond_type
C0 C1 1.264 . S
C0 C5 1.479 . S
C0 C10 1.465 . S
C1 C0 1.264 . S
C1 C3 1.339 . S
C1 H28 0.931 . S
C2 C3 1.395 . S
C2 C4 1.320 . S
C3 C1 1.339 . S
C3 C2 1.395 . S
C3 H29 0.929 . S
C4 C2 1.320 . S
C4 C5 1.405 . S
C4 H30 0.930 . S
C5 C0 1.479 . S
C5 C4 1.405 . S
C5 H31 0.931 . S
U6 O7 2.454 . S
U6 O8 2.458 . S
U6 C9 2.984 . S
U6 C10 2.847 . S
U6 C23 2.882 . S
U6 O24 2.441 . S
U6 O25 2.420 . S
U6 O26 2.455 . S
U6 O27 2.449 . S
O7 U6 2.454 . S
O7 C9 1.353 . S
O8 U6 2.458 . S
O8 C9 1.286 . S
C9 U6 2.984 . S
C9 O7 1.353 . S
C9 O8 1.286 . S
C9 C11 1.363 . S
C10 C0 1.465 . S
C10 U6 2.847 . S
C10 O24 1.249 . S
C10 O25 1.202 . S
C11 C9 1.363 . S
C11 C13 1.408 . S
C11 C16 1.342 . S
C12 C13 1.310 . S
C12 C15 1.461 . S
C12 H32 0.932 . S
C13 C11 1.408 . S
C13 C12 1.310 . S
C13 H33 0.930 . S
C14 C15 1.474 . S
C14 C16 1.285 . S
C14 H34 0.929 . S
C15 C12 1.461 . S
C15 C14 1.474 . S
C16 C11 1.342 . S
C16 C14 1.285 . S
C16 H35 0.930 . S
C17 C20 1.424 . S
C17 C22 1.245 . S
C17 C23 1.428 . S
C18 C21 1.260 . S
C18 C22 1.477 . S
C18 H36 0.932 . S
C19 C20 1.384 . S
C19 C21 1.479 . S
C19 H37 0.929 . S
C20 C17 1.424 . S
C20 C19 1.384 . S
C20 H38 0.928 . S
C21 C18 1.260 . S
C21 C19 1.479 . S
C22 C17 1.245 . S
C22 C18 1.477 . S
C22 H39 0.932 . S
C23 U6 2.882 . S
C23 C17 1.428 . S
C23 O26 1.301 . S
C23 O27 1.282 . S
O24 U6 2.441 . S
O24 C10 1.249 . S
O25 U6 2.420 . S
O25 C10 1.202 . S
O26 U6 2.455 . S
O26 C23 1.301 . S
O27 U6 2.449 . S
O27 C23 1.282 . S
H28 C1 0.931 . S
H29 C3 0.929 . S
H30 C4 0.930 . S
H31 C5 0.931 . S
H32 C12 0.932 . S
H33 C13 0.930 . S
H34 C14 0.929 . S
H35 C16 0.930 . S
H36 C18 0.932 . S
H37 C19 0.929 . S
H38 C20 0.928 . S
H39 C22 0.932 . S
C40 C41 1.264 . S
C40 C45 1.479 . S
C40 C50 1.465 . S
C41 C40 1.264 . S
C41 C43 1.339 . S
C41 H68 0.931 . S
C42 C43 1.395 . S
C42 C44 1.320 . S
C43 C41 1.339 . S
C43 C42 1.395 . S
C43 H69 0.929 . S
C44 C42 1.320 . S
C44 C45 1.405 . S
C44 H70 0.930 . S
C45 C40 1.479 . S
C45 C44 1.405 . S
C45 H71 0.931 . S
U46 O47 2.454 . S
U46 O48 2.458 . S
U46 C49 2.984 . S
U46 C50 2.847 . S
U46 C63 2.882 . S
U46 O64 2.441 . S
U46 O65 2.420 . S
U46 O66 2.455 . S
U46 O67 2.449 . S
O47 U46 2.454 . S
O47 C49 1.353 . S
O48 U46 2.458 . S
O48 C49 1.286 . S
C49 U46 2.984 . S
C49 O47 1.353 . S
C49 O48 1.286 . S
C49 C51 1.363 . S
C50 C40 1.465 . S
C50 U46 2.847 . S
C50 O64 1.249 . S
C50 O65 1.202 . S
C51 C49 1.363 . S
C51 C53 1.408 . S
C51 C56 1.342 . S
C52 C53 1.310 . S
C52 C55 1.461 . S
C52 H72 0.932 . S
C53 C51 1.408 . S
C53 C52 1.310 . S
C53 H73 0.930 . S
C54 C55 1.474 . S
C54 C56 1.285 . S
C54 H74 0.929 . S
C55 C52 1.461 . S
C55 C54 1.474 . S
C56 C51 1.342 . S
C56 C54 1.285 . S
C56 H75 0.930 . S
C57 C60 1.424 . S
C57 C62 1.245 . S
C57 C63 1.428 . S
C58 C61 1.260 . S
C58 C62 1.477 . S
C58 H76 0.932 . S
C59 C60 1.384 . S
C59 C61 1.479 . S
C59 H77 0.929 . S
C60 C57 1.424 . S
C60 C59 1.384 . S
C60 H78 0.928 . S
C61 C58 1.260 . S
C61 C59 1.479 . S
C62 C57 1.245 . S
C62 C58 1.477 . S
C62 H79 0.932 . S
C63 U46 2.882 . S
C63 C57 1.428 . S
C63 O66 1.301 . S
C63 O67 1.282 . S
O64 U46 2.441 . S
O64 C50 1.249 . S
O65 U46 2.420 . S
O65 C50 1.202 . S
O66 U46 2.455 . S
O66 C63 1.301 . S
O67 U46 2.449 . S
O67 C63 1.282 . S
H68 C41 0.931 . S
H69 C43 0.929 . S
H70 C44 0.930 . S
H71 C45 0.931 . S
H72 C52 0.932 . S
H73 C53 0.930 . S
H74 C54 0.929 . S
H75 C56 0.930 . S
H76 C58 0.932 . S
H77 C59 0.929 . S
H78 C60 0.928 . S
H79 C62 0.932 . S
C80 C81 1.264 . S
C80 C85 1.479 . S
C80 C90 1.465 . S
C81 C80 1.264 . S
C81 C83 1.339 . S
C81 H108 0.931 . S
C82 C83 1.395 . S
C82 C84 1.320 . S
C83 C81 1.339 . S
C83 C82 1.395 . S
C83 H109 0.929 . S
C84 C82 1.320 . S
C84 C85 1.405 . S
C84 H110 0.930 . S
C85 C80 1.479 . S
C85 C84 1.405 . S
C85 H111 0.931 . S
U86 O87 2.454 . S
U86 O88 2.458 . S
U86 C89 2.984 . S
U86 C90 2.847 . S
U86 C103 2.882 . S
U86 O104 2.441 . S
U86 O105 2.420 . S
U86 O106 2.455 . S
U86 O107 2.449 . S
O87 U86 2.454 . S
O87 C89 1.353 . S
O88 U86 2.458 . S
O88 C89 1.286 . S
C89 U86 2.984 . S
C89 O87 1.353 . S
C89 O88 1.286 . S
C89 C91 1.363 . S
C90 C80 1.465 . S
C90 U86 2.847 . S
C90 O104 1.249 . S
C90 O105 1.202 . S
C91 C89 1.363 . S
C91 C93 1.408 . S
C91 C96 1.342 . S
C92 C93 1.310 . S
C92 C95 1.461 . S
C92 H112 0.932 . S
C93 C91 1.408 . S
C93 C92 1.310 . S
C93 H113 0.930 . S
C94 C95 1.474 . S
C94 C96 1.285 . S
C94 H114 0.929 . S
C95 C92 1.461 . S
C95 C94 1.474 . S
C96 C91 1.342 . S
C96 C94 1.285 . S
C96 H115 0.930 . S
C97 C100 1.424 . S
C97 C102 1.245 . S
C97 C103 1.428 . S
C98 C101 1.260 . S
C98 C102 1.477 . S
C98 H116 0.932 . S
C99 C100 1.384 . S
C99 C101 1.479 . S
C99 H117 0.929 . S
C100 C97 1.424 . S
C100 C99 1.384 . S
C100 H118 0.928 . S
C101 C98 1.260 . S
C101 C99 1.479 . S
C102 C97 1.245 . S
C102 C98 1.477 . S
C102 H119 0.932 . S
C103 U86 2.882 . S
C103 C97 1.428 . S
C103 O106 1.301 . S
C103 O107 1.282 . S
O104 U86 2.441 . S
O104 C90 1.249 . S
O105 U86 2.420 . S
O105 C90 1.202 . S
O106 U86 2.455 . S
O106 C103 1.301 . S
O107 U86 2.449 . S
O107 C103 1.282 . S
H108 C81 0.931 . S
H109 C83 0.929 . S
H110 C84 0.930 . S
H111 C85 0.931 . S
H112 C92 0.932 . S
H113 C93 0.930 . S
H114 C94 0.929 . S
H115 C96 0.930 . S
H116 C98 0.932 . S
H117 C99 0.929 . S
H118 C100 0.928 . S
H119 C102 0.932 . S
C120 C121 1.264 . S
C120 C125 1.479 . S
C120 C130 1.465 . S
C121 C120 1.264 . S
C121 C123 1.339 . S
C121 H148 0.931 . S
C122 C123 1.395 . S
C122 C124 1.320 . S
C123 C121 1.339 . S
C123 C122 1.395 . S
C123 H149 0.929 . S
C124 C122 1.320 . S
C124 C125 1.405 . S
C124 H150 0.930 . S
C125 C120 1.479 . S
C125 C124 1.405 . S
C125 H151 0.931 . S
U126 O127 2.454 . S
U126 O128 2.458 . S
U126 C129 2.984 . S
U126 C130 2.847 . S
U126 C143 2.882 . S
U126 O144 2.441 . S
U126 O145 2.420 . S
U126 O146 2.455 . S
U126 O147 2.449 . S
O127 U126 2.454 . S
O127 C129 1.353 . S
O128 U126 2.458 . S
O128 C129 1.286 . S
C129 U126 2.984 . S
C129 O127 1.353 . S
C129 O128 1.286 . S
C129 C131 1.363 . S
C130 C120 1.465 . S
C130 U126 2.847 . S
C130 O144 1.249 . S
C130 O145 1.202 . S
C131 C129 1.363 . S
C131 C133 1.408 . S
C131 C136 1.342 . S
C132 C133 1.310 . S
C132 C135 1.461 . S
C132 H152 0.932 . S
C133 C131 1.408 . S
C133 C132 1.310 . S
C133 H153 0.930 . S
C134 C135 1.474 . S
C134 C136 1.285 . S
C134 H154 0.929 . S
C135 C132 1.461 . S
C135 C134 1.474 . S
C136 C131 1.342 . S
C136 C134 1.285 . S
C136 H155 0.930 . S
C137 C140 1.424 . S
C137 C142 1.245 . S
C137 C143 1.428 . S
C138 C141 1.260 . S
C138 C142 1.477 . S
C138 H156 0.932 . S
C139 C140 1.384 . S
C139 C141 1.479 . S
C139 H157 0.929 . S
C140 C137 1.424 . S
C140 C139 1.384 . S
C140 H158 0.928 . S
C141 C138 1.260 . S
C141 C139 1.479 . S
C142 C137 1.245 . S
C142 C138 1.477 . S
C142 H159 0.932 . S
C143 U126 2.882 . S
C143 C137 1.428 . S
C143 O146 1.301 . S
C143 O147 1.282 . S
O144 U126 2.441 . S
O144 C130 1.249 . S
O145 U126 2.420 . S
O145 C130 1.202 . S
O146 U126 2.455 . S
O146 C143 1.301 . S
O147 U126 2.449 . S
O147 C143 1.282 . S
H148 C121 0.931 . S
H149 C123 0.929 . S
H150 C124 0.930 . S
H151 C125 0.931 . S
H152 C132 0.932 . S
H153 C133 0.930 . S
H154 C134 0.929 . S
H155 C136 0.930 . S
H156 C138 0.932 . S
H157 C139 0.929 . S
H158 C140 0.928 . S
H159 C142 0.932 . S
C160 C161 1.264 . S
C160 C165 1.479 . S
C160 C170 1.465 . S
C161 C160 1.264 . S
C161 C163 1.339 . S
C161 H188 0.931 . S
C162 C163 1.395 . S
C162 C164 1.320 . S
C163 C161 1.339 . S
C163 C162 1.395 . S
C163 H189 0.929 . S
C164 C162 1.320 . S
C164 C165 1.405 . S
C164 H190 0.930 . S
C165 C160 1.479 . S
C165 C164 1.405 . S
C165 H191 0.931 . S
U166 O167 2.454 . S
U166 O168 2.458 . S
U166 C169 2.984 . S
U166 C170 2.847 . S
U166 C183 2.882 . S
U166 O184 2.441 . S
U166 O185 2.420 . S
U166 O186 2.455 . S
U166 O187 2.449 . S
O167 U166 2.454 . S
O167 C169 1.353 . S
O168 U166 2.458 . S
O168 C169 1.286 . S
C169 U166 2.984 . S
C169 O167 1.353 . S
C169 O168 1.286 . S
C169 C171 1.363 . S
C170 C160 1.465 . S
C170 U166 2.847 . S
C170 O184 1.249 . S
C170 O185 1.202 . S
C171 C169 1.363 . S
C171 C173 1.408 . S
C171 C176 1.342 . S
C172 C173 1.310 . S
C172 C175 1.461 . S
C172 H192 0.932 . S
C173 C171 1.408 . S
C173 C172 1.310 . S
C173 H193 0.930 . S
C174 C175 1.474 . S
C174 C176 1.285 . S
C174 H194 0.929 . S
C175 C172 1.461 . S
C175 C174 1.474 . S
C176 C171 1.342 . S
C176 C174 1.285 . S
C176 H195 0.930 . S
C177 C180 1.424 . S
C177 C182 1.245 . S
C177 C183 1.428 . S
C178 C181 1.260 . S
C178 C182 1.477 . S
C178 H196 0.932 . S
C179 C180 1.384 . S
C179 C181 1.479 . S
C179 H197 0.929 . S
C180 C177 1.424 . S
C180 C179 1.384 . S
C180 H198 0.928 . S
C181 C178 1.260 . S
C181 C179 1.479 . S
C182 C177 1.245 . S
C182 C178 1.477 . S
C182 H199 0.932 . S
C183 U166 2.882 . S
C183 C177 1.428 . S
C183 O186 1.301 . S
C183 O187 1.282 . S
O184 U166 2.441 . S
O184 C170 1.249 . S
O185 U166 2.420 . S
O185 C170 1.202 . S
O186 U166 2.455 . S
O186 C183 1.301 . S
O187 U166 2.449 . S
O187 C183 1.282 . S
H188 C161 0.931 . S
H189 C163 0.929 . S
H190 C164 0.930 . S
H191 C165 0.931 . S
H192 C172 0.932 . S
H193 C173 0.930 . S
H194 C174 0.929 . S
H195 C176 0.930 . S
H196 C178 0.932 . S
H197 C179 0.929 . S
H198 C180 0.928 . S
H199 C182 0.932 . S
C200 C201 1.264 . S
C200 C205 1.479 . S
C200 C210 1.465 . S
C201 C200 1.264 . S
C201 C203 1.339 . S
C201 H228 0.931 . S
C202 C203 1.395 . S
C202 C204 1.320 . S
C203 C201 1.339 . S
C203 C202 1.395 . S
C203 H229 0.929 . S
C204 C202 1.320 . S
C204 C205 1.405 . S
C204 H230 0.930 . S
C205 C200 1.479 . S
C205 C204 1.405 . S
C205 H231 0.931 . S
U206 O207 2.454 . S
U206 O208 2.458 . S
U206 C209 2.984 . S
U206 C210 2.847 . S
U206 C223 2.882 . S
U206 O224 2.441 . S
U206 O225 2.420 . S
U206 O226 2.455 . S
U206 O227 2.449 . S
O207 U206 2.454 . S
O207 C209 1.353 . S
O208 U206 2.458 . S
O208 C209 1.286 . S
C209 U206 2.984 . S
C209 O207 1.353 . S
C209 O208 1.286 . S
C209 C211 1.363 . S
C210 C200 1.465 . S
C210 U206 2.847 . S
C210 O224 1.249 . S
C210 O225 1.202 . S
C211 C209 1.363 . S
C211 C213 1.408 . S
C211 C216 1.342 . S
C212 C213 1.310 . S
C212 C215 1.461 . S
C212 H232 0.932 . S
C213 C211 1.408 . S
C213 C212 1.310 . S
C213 H233 0.930 . S
C214 C215 1.474 . S
C214 C216 1.285 . S
C214 H234 0.929 . S
C215 C212 1.461 . S
C215 C214 1.474 . S
C216 C211 1.342 . S
C216 C214 1.285 . S
C216 H235 0.930 . S
C217 C220 1.424 . S
C217 C222 1.245 . S
C217 C223 1.428 . S
C218 C221 1.260 . S
C218 C222 1.477 . S
C218 H236 0.932 . S
C219 C220 1.384 . S
C219 C221 1.479 . S
C219 H237 0.929 . S
C220 C217 1.424 . S
C220 C219 1.384 . S
C220 H238 0.928 . S
C221 C218 1.260 . S
C221 C219 1.479 . S
C222 C217 1.245 . S
C222 C218 1.477 . S
C222 H239 0.932 . S
C223 U206 2.882 . S
C223 C217 1.428 . S
C223 O226 1.301 . S
C223 O227 1.282 . S
O224 U206 2.441 . S
O224 C210 1.249 . S
O225 U206 2.420 . S
O225 C210 1.202 . S
O226 U206 2.455 . S
O226 C223 1.301 . S
O227 U206 2.449 . S
O227 C223 1.282 . S
H228 C201 0.931 . S
H229 C203 0.929 . S
H230 C204 0.930 . S
H231 C205 0.931 . S
H232 C212 0.932 . S
H233 C213 0.930 . S
H234 C214 0.929 . S
H235 C216 0.930 . S
H236 C218 0.932 . S
H237 C219 0.929 . S
H238 C220 0.928 . S
H239 C222 0.932 . S
C240 C241 1.264 . S
C240 C245 1.479 . S
C240 C250 1.465 . S
C241 C240 1.264 . S
C241 C243 1.339 . S
C241 H268 0.931 . S
C242 C243 1.395 . S
C242 C244 1.320 . S
C243 C241 1.339 . S
C243 C242 1.395 . S
C243 H269 0.929 . S
C244 C242 1.320 . S
C244 C245 1.405 . S
C244 H270 0.930 . S
C245 C240 1.479 . S
C245 C244 1.405 . S
C245 H271 0.931 . S
U246 O247 2.454 . S
U246 O248 2.458 . S
U246 C249 2.984 . S
U246 C250 2.847 . S
U246 C263 2.882 . S
U246 O264 2.441 . S
U246 O265 2.420 . S
U246 O266 2.455 . S
U246 O267 2.449 . S
O247 U246 2.454 . S
O247 C249 1.353 . S
O248 U246 2.458 . S
O248 C249 1.286 . S
C249 U246 2.984 . S
C249 O247 1.353 . S
C249 O248 1.286 . S
C249 C251 1.363 . S
C250 C240 1.465 . S
C250 U246 2.847 . S
C250 O264 1.249 . S
C250 O265 1.202 . S
C251 C249 1.363 . S
C251 C253 1.408 . S
C251 C256 1.342 . S
C252 C253 1.310 . S
C252 C255 1.461 . S
C252 H272 0.932 . S
C253 C251 1.408 . S
C253 C252 1.310 . S
C253 H273 0.930 . S
C254 C255 1.474 . S
C254 C256 1.285 . S
C254 H274 0.929 . S
C255 C252 1.461 . S
C255 C254 1.474 . S
C256 C251 1.342 . S
C256 C254 1.285 . S
C256 H275 0.930 . S
C257 C260 1.424 . S
C257 C262 1.245 . S
C257 C263 1.428 . S
C258 C261 1.260 . S
C258 C262 1.477 . S
C258 H276 0.932 . S
C259 C260 1.384 . S
C259 C261 1.479 . S
C259 H277 0.929 . S
C260 C257 1.424 . S
C260 C259 1.384 . S
C260 H278 0.928 . S
C261 C258 1.260 . S
C261 C259 1.479 . S
C262 C257 1.245 . S
C262 C258 1.477 . S
C262 H279 0.932 . S
C263 U246 2.882 . S
C263 C257 1.428 . S
C263 O266 1.301 . S
C263 O267 1.282 . S
O264 U246 2.441 . S
O264 C250 1.249 . S
O265 U246 2.420 . S
O265 C250 1.202 . S
O266 U246 2.455 . S
O266 C263 1.301 . S
O267 U246 2.449 . S
O267 C263 1.282 . S
H268 C241 0.931 . S
H269 C243 0.929 . S
H270 C244 0.930 . S
H271 C245 0.931 . S
H272 C252 0.932 . S
H273 C253 0.930 . S
H274 C254 0.929 . S
H275 C256 0.930 . S
H276 C258 0.932 . S
H277 C259 0.929 . S
H278 C260 0.928 . S
H279 C262 0.932 . S
C280 C281 1.264 . S
C280 C285 1.479 . S
C280 C290 1.465 . S
C281 C280 1.264 . S
C281 C283 1.339 . S
C281 H308 0.931 . S
C282 C283 1.395 . S
C282 C284 1.320 . S
C283 C281 1.339 . S
C283 C282 1.395 . S
C283 H309 0.929 . S
C284 C282 1.320 . S
C284 C285 1.405 . S
C284 H310 0.930 . S
C285 C280 1.479 . S
C285 C284 1.405 . S
C285 H311 0.931 . S
U286 O287 2.454 . S
U286 O288 2.458 . S
U286 C289 2.984 . S
U286 C290 2.847 . S
U286 C303 2.882 . S
U286 O304 2.441 . S
U286 O305 2.420 . S
U286 O306 2.455 . S
U286 O307 2.449 . S
O287 U286 2.454 . S
O287 C289 1.353 . S
O288 U286 2.458 . S
O288 C289 1.286 . S
C289 U286 2.984 . S
C289 O287 1.353 . S
C289 O288 1.286 . S
C289 C291 1.363 . S
C290 C280 1.465 . S
C290 U286 2.847 . S
C290 O304 1.249 . S
C290 O305 1.202 . S
C291 C289 1.363 . S
C291 C293 1.408 . S
C291 C296 1.342 . S
C292 C293 1.310 . S
C292 C295 1.461 . S
C292 H312 0.932 . S
C293 C291 1.408 . S
C293 C292 1.310 . S
C293 H313 0.930 . S
C294 C295 1.474 . S
C294 C296 1.285 . S
C294 H314 0.929 . S
C295 C292 1.461 . S
C295 C294 1.474 . S
C296 C291 1.342 . S
C296 C294 1.285 . S
C296 H315 0.930 . S
C297 C300 1.424 . S
C297 C302 1.245 . S
C297 C303 1.428 . S
C298 C301 1.260 . S
C298 C302 1.477 . S
C298 H316 0.932 . S
C299 C300 1.384 . S
C299 C301 1.479 . S
C299 H317 0.929 . S
C300 C297 1.424 . S
C300 C299 1.384 . S
C300 H318 0.928 . S
C301 C298 1.260 . S
C301 C299 1.479 . S
C302 C297 1.245 . S
C302 C298 1.477 . S
C302 H319 0.932 . S
C303 U286 2.882 . S
C303 C297 1.428 . S
C303 O306 1.301 . S
C303 O307 1.282 . S
O304 U286 2.441 . S
O304 C290 1.249 . S
O305 U286 2.420 . S
O305 C290 1.202 . S
O306 U286 2.455 . S
O306 C303 1.301 . S
O307 U286 2.449 . S
O307 C303 1.282 . S
H308 C281 0.931 . S
H309 C283 0.929 . S
H310 C284 0.930 . S
H311 C285 0.931 . S
H312 C292 0.932 . S
H313 C293 0.930 . S
H314 C294 0.929 . S
H315 C296 0.930 . S
H316 C298 0.932 . S
H317 C299 0.929 . S
H318 C300 0.928 . S
H319 C302 0.932 . S
C320 C321 1.264 . S
C320 C325 1.479 . S
C320 C330 1.465 . S
C321 C320 1.264 . S
C321 C323 1.339 . S
C321 H348 0.931 . S
C322 C323 1.395 . S
C322 C324 1.320 . S
C323 C321 1.339 . S
C323 C322 1.395 . S
C323 H349 0.929 . S
C324 C322 1.320 . S
C324 C325 1.405 . S
C324 H350 0.930 . S
C325 C320 1.479 . S
C325 C324 1.405 . S
C325 H351 0.931 . S
U326 O327 2.454 . S
U326 O328 2.458 . S
U326 C329 2.984 . S
U326 C330 2.847 . S
U326 C343 2.882 . S
U326 O344 2.441 . S
U326 O345 2.420 . S
U326 O346 2.455 . S
U326 O347 2.449 . S
O327 U326 2.454 . S
O327 C329 1.353 . S
O328 U326 2.458 . S
O328 C329 1.286 . S
C329 U326 2.984 . S
C329 O327 1.353 . S
C329 O328 1.286 . S
C329 C331 1.363 . S
C330 C320 1.465 . S
C330 U326 2.847 . S
C330 O344 1.249 . S
C330 O345 1.202 . S
C331 C329 1.363 . S
C331 C333 1.408 . S
C331 C336 1.342 . S
C332 C333 1.310 . S
C332 C335 1.461 . S
C332 H352 0.932 . S
C333 C331 1.408 . S
C333 C332 1.310 . S
C333 H353 0.930 . S
C334 C335 1.474 . S
C334 C336 1.285 . S
C334 H354 0.929 . S
C335 C332 1.461 . S
C335 C334 1.474 . S
C336 C331 1.342 . S
C336 C334 1.285 . S
C336 H355 0.930 . S
C337 C340 1.424 . S
C337 C342 1.245 . S
C337 C343 1.428 . S
C338 C341 1.260 . S
C338 C342 1.477 . S
C338 H356 0.932 . S
C339 C340 1.384 . S
C339 C341 1.479 . S
C339 H357 0.929 . S
C340 C337 1.424 . S
C340 C339 1.384 . S
C340 H358 0.928 . S
C341 C338 1.260 . S
C341 C339 1.479 . S
C342 C337 1.245 . S
C342 C338 1.477 . S
C342 H359 0.932 . S
C343 U326 2.882 . S
C343 C337 1.428 . S
C343 O346 1.301 . S
C343 O347 1.282 . S
O344 U326 2.441 . S
O344 C330 1.249 . S
O345 U326 2.420 . S
O345 C330 1.202 . S
O346 U326 2.455 . S
O346 C343 1.301 . S
O347 U326 2.449 . S
O347 C343 1.282 . S
H348 C321 0.931 . S
H349 C323 0.929 . S
H350 C324 0.930 . S
H351 C325 0.931 . S
H352 C332 0.932 . S
H353 C333 0.930 . S
H354 C334 0.929 . S
H355 C336 0.930 . S
H356 C338 0.932 . S
H357 C339 0.929 . S
H358 C340 0.928 . S
H359 C342 0.932 . S
C360 C361 1.264 . S
C360 C365 1.479 . S
C360 C370 1.465 . S
C361 C360 1.264 . S
C361 C363 1.339 . S
C361 H388 0.931 . S
C362 C363 1.395 . S
C362 C364 1.320 . S
C363 C361 1.339 . S
C363 C362 1.395 . S
C363 H389 0.929 . S
C364 C362 1.320 . S
C364 C365 1.405 . S
C364 H390 0.930 . S
C365 C360 1.479 . S
C365 C364 1.405 . S
C365 H391 0.931 . S
U366 O367 2.454 . S
U366 O368 2.458 . S
U366 C369 2.984 . S
U366 C370 2.847 . S
U366 C383 2.882 . S
U366 O384 2.441 . S
U366 O385 2.420 . S
U366 O386 2.455 . S
U366 O387 2.449 . S
O367 U366 2.454 . S
O367 C369 1.353 . S
O368 U366 2.458 . S
O368 C369 1.286 . S
C369 U366 2.984 . S
C369 O367 1.353 . S
C369 O368 1.286 . S
C369 C371 1.363 . S
C370 C360 1.465 . S
C370 U366 2.847 . S
C370 O384 1.249 . S
C370 O385 1.202 . S
C371 C369 1.363 . S
C371 C373 1.408 . S
C371 C376 1.342 . S
C372 C373 1.310 . S
C372 C375 1.461 . S
C372 H392 0.932 . S
C373 C371 1.408 . S
C373 C372 1.310 . S
C373 H393 0.930 . S
C374 C375 1.474 . S
C374 C376 1.285 . S
C374 H394 0.929 . S
C375 C372 1.461 . S
C375 C374 1.474 . S
C376 C371 1.342 . S
C376 C374 1.285 . S
C376 H395 0.930 . S
C377 C380 1.424 . S
C377 C382 1.245 . S
C377 C383 1.428 . S
C378 C381 1.260 . S
C378 C382 1.477 . S
C378 H396 0.932 . S
C379 C380 1.384 . S
C379 C381 1.479 . S
C379 H397 0.929 . S
C380 C377 1.424 . S
C380 C379 1.384 . S
C380 H398 0.928 . S
C381 C378 1.260 . S
C381 C379 1.479 . S
C382 C377 1.245 . S
C382 C378 1.477 . S
C382 H399 0.932 . S
C383 U366 2.882 . S
C383 C377 1.428 . S
C383 O386 1.301 . S
C383 O387 1.282 . S
O384 U366 2.441 . S
O384 C370 1.249 . S
O385 U366 2.420 . S
O385 C370 1.202 . S
O386 U366 2.455 . S
O386 C383 1.301 . S
O387 U366 2.449 . S
O387 C383 1.282 . S
H388 C361 0.931 . S
H389 C363 0.929 . S
H390 C364 0.930 . S
H391 C365 0.931 . S
H392 C372 0.932 . S
H393 C373 0.930 . S
H394 C374 0.929 . S
H395 C376 0.930 . S
H396 C378 0.932 . S
H397 C379 0.929 . S
H398 C380 0.928 . S
H399 C382 0.932 . S
C400 C401 1.264 . S
C400 C405 1.479 . S
C400 C410 1.465 . S
C401 C400 1.264 . S
C401 C403 1.339 . S
C401 H428 0.931 . S
C402 C403 1.395 . S
C402 C404 1.320 . S
C403 C401 1.339 . S
C403 C402 1.395 . S
C403 H429 0.929 . S
C404 C402 1.320 . S
C404 C405 1.405 . S
C404 H430 0.930 . S
C405 C400 1.479 . S
C405 C404 1.405 . S
C405 H431 0.931 . S
U406 O407 2.454 . S
U406 O408 2.458 . S
U406 C409 2.984 . S
U406 C410 2.847 . S
U406 C423 2.882 . S
U406 O424 2.441 . S
U406 O425 2.420 . S
U406 O426 2.455 . S
U406 O427 2.449 . S
O407 U406 2.454 . S
O407 C409 1.353 . S
O408 U406 2.458 . S
O408 C409 1.286 . S
C409 U406 2.984 . S
C409 O407 1.353 . S
C409 O408 1.286 . S
C409 C411 1.363 . S
C410 C400 1.465 . S
C410 U406 2.847 . S
C410 O424 1.249 . S
C410 O425 1.202 . S
C411 C409 1.363 . S
C411 C413 1.408 . S
C411 C416 1.342 . S
C412 C413 1.310 . S
C412 C415 1.461 . S
C412 H432 0.932 . S
C413 C411 1.408 . S
C413 C412 1.310 . S
C413 H433 0.930 . S
C414 C415 1.474 . S
C414 C416 1.285 . S
C414 H434 0.929 . S
C415 C412 1.461 . S
C415 C414 1.474 . S
C416 C411 1.342 . S
C416 C414 1.285 . S
C416 H435 0.930 . S
C417 C420 1.424 . S
C417 C422 1.245 . S
C417 C423 1.428 . S
C418 C421 1.260 . S
C418 C422 1.477 . S
C418 H436 0.932 . S
C419 C420 1.384 . S
C419 C421 1.479 . S
C419 H437 0.929 . S
C420 C417 1.424 . S
C420 C419 1.384 . S
C420 H438 0.928 . S
C421 C418 1.260 . S
C421 C419 1.479 . S
C422 C417 1.245 . S
C422 C418 1.477 . S
C422 H439 0.932 . S
C423 U406 2.882 . S
C423 C417 1.428 . S
C423 O426 1.301 . S
C423 O427 1.282 . S
O424 U406 2.441 . S
O424 C410 1.249 . S
O425 U406 2.420 . S
O425 C410 1.202 . S
O426 U406 2.455 . S
O426 C423 1.301 . S
O427 U406 2.449 . S
O427 C423 1.282 . S
H428 C401 0.931 . S
H429 C403 0.929 . S
H430 C404 0.930 . S
H431 C405 0.931 . S
H432 C412 0.932 . S
H433 C413 0.930 . S
H434 C414 0.929 . S
H435 C416 0.930 . S
H436 C418 0.932 . S
H437 C419 0.929 . S
H438 C420 0.928 . S
H439 C422 0.932 . S
C440 C441 1.264 . S
C440 C445 1.479 . S
C440 C450 1.465 . S
C441 C440 1.264 . S
C441 C443 1.339 . S
C441 H468 0.931 . S
C442 C443 1.395 . S
C442 C444 1.320 . S
C443 C441 1.339 . S
C443 C442 1.395 . S
C443 H469 0.929 . S
C444 C442 1.320 . S
C444 C445 1.405 . S
C444 H470 0.930 . S
C445 C440 1.479 . S
C445 C444 1.405 . S
C445 H471 0.931 . S
U446 O447 2.454 . S
U446 O448 2.458 . S
U446 C449 2.984 . S
U446 C450 2.847 . S
U446 C463 2.882 . S
U446 O464 2.441 . S
U446 O465 2.420 . S
U446 O466 2.455 . S
U446 O467 2.449 . S
O447 U446 2.454 . S
O447 C449 1.353 . S
O448 U446 2.458 . S
O448 C449 1.286 . S
C449 U446 2.984 . S
C449 O447 1.353 . S
C449 O448 1.286 . S
C449 C451 1.363 . S
C450 C440 1.465 . S
C450 U446 2.847 . S
C450 O464 1.249 . S
C450 O465 1.202 . S
C451 C449 1.363 . S
C451 C453 1.408 . S
C451 C456 1.342 . S
C452 C453 1.310 . S
C452 C455 1.461 . S
C452 H472 0.932 . S
C453 C451 1.408 . S
C453 C452 1.310 . S
C453 H473 0.930 . S
C454 C455 1.474 . S
C454 C456 1.285 . S
C454 H474 0.929 . S
C455 C452 1.461 . S
C455 C454 1.474 . S
C456 C451 1.342 . S
C456 C454 1.285 . S
C456 H475 0.930 . S
C457 C460 1.424 . S
C457 C462 1.245 . S
C457 C463 1.428 . S
C458 C461 1.260 . S
C458 C462 1.477 . S
C458 H476 0.932 . S
C459 C460 1.384 . S
C459 C461 1.479 . S
C459 H477 0.929 . S
C460 C457 1.424 . S
C460 C459 1.384 . S
C460 H478 0.928 . S
C461 C458 1.260 . S
C461 C459 1.479 . S
C462 C457 1.245 . S
C462 C458 1.477 . S
C462 H479 0.932 . S
C463 U446 2.882 . S
C463 C457 1.428 . S
C463 O466 1.301 . S
C463 O467 1.282 . S
O464 U446 2.441 . S
O464 C450 1.249 . S
O465 U446 2.420 . S
O465 C450 1.202 . S
O466 U446 2.455 . S
O466 C463 1.301 . S
O467 U446 2.449 . S
O467 C463 1.282 . S
H468 C441 0.931 . S
H469 C443 0.929 . S
H470 C444 0.930 . S
H471 C445 0.931 . S
H472 C452 0.932 . S
H473 C453 0.930 . S
H474 C454 0.929 . S
H475 C456 0.930 . S
H476 C458 0.932 . S
H477 C459 0.929 . S
H478 C460 0.928 . S
H479 C462 0.932 . S
C480 C481 1.264 . S
C480 C485 1.479 . S
C480 C490 1.465 . S
C481 C480 1.264 . S
C481 C483 1.339 . S
C481 H508 0.931 . S
C482 C483 1.395 . S
C482 C484 1.320 . S
C483 C481 1.339 . S
C483 C482 1.395 . S
C483 H509 0.929 . S
C484 C482 1.320 . S
C484 C485 1.405 . S
C484 H510 0.930 . S
C485 C480 1.479 . S
C485 C484 1.405 . S
C485 H511 0.931 . S
U486 O487 2.454 . S
U486 O488 2.458 . S
U486 C489 2.984 . S
U486 C490 2.847 . S
U486 C503 2.882 . S
U486 O504 2.441 . S
U486 O505 2.420 . S
U486 O506 2.455 . S
U486 O507 2.449 . S
O487 U486 2.454 . S
O487 C489 1.353 . S
O488 U486 2.458 . S
O488 C489 1.286 . S
C489 U486 2.984 . S
C489 O487 1.353 . S
C489 O488 1.286 . S
C489 C491 1.363 . S
C490 C480 1.465 . S
C490 U486 2.847 . S
C490 O504 1.249 . S
C490 O505 1.202 . S
C491 C489 1.363 . S
C491 C493 1.408 . S
C491 C496 1.342 . S
C492 C493 1.310 . S
C492 C495 1.461 . S
C492 H512 0.932 . S
C493 C491 1.408 . S
C493 C492 1.310 . S
C493 H513 0.930 . S
C494 C495 1.474 . S
C494 C496 1.285 . S
C494 H514 0.929 . S
C495 C492 1.461 . S
C495 C494 1.474 . S
C496 C491 1.342 . S
C496 C494 1.285 . S
C496 H515 0.930 . S
C497 C500 1.424 . S
C497 C502 1.245 . S
C497 C503 1.428 . S
C498 C501 1.260 . S
C498 C502 1.477 . S
C498 H516 0.932 . S
C499 C500 1.384 . S
C499 C501 1.479 . S
C499 H517 0.929 . S
C500 C497 1.424 . S
C500 C499 1.384 . S
C500 H518 0.928 . S
C501 C498 1.260 . S
C501 C499 1.479 . S
C502 C497 1.245 . S
C502 C498 1.477 . S
C502 H519 0.932 . S
C503 U486 2.882 . S
C503 C497 1.428 . S
C503 O506 1.301 . S
C503 O507 1.282 . S
O504 U486 2.441 . S
O504 C490 1.249 . S
O505 U486 2.420 . S
O505 C490 1.202 . S
O506 U486 2.455 . S
O506 C503 1.301 . S
O507 U486 2.449 . S
O507 C503 1.282 . S
H508 C481 0.931 . S
H509 C483 0.929 . S
H510 C484 0.930 . S
H511 C485 0.931 . S
H512 C492 0.932 . S
H513 C493 0.930 . S
H514 C494 0.929 . S
H515 C496 0.930 . S
H516 C498 0.932 . S
H517 C499 0.929 . S
H518 C500 0.928 . S
H519 C502 0.932 . S
C520 C521 1.264 . S
C520 C525 1.479 . S
C520 C530 1.465 . S
C521 C520 1.264 . S
C521 C523 1.339 . S
C521 H548 0.931 . S
C522 C523 1.395 . S
C522 C524 1.320 . S
C523 C521 1.339 . S
C523 C522 1.395 . S
C523 H549 0.929 . S
C524 C522 1.320 . S
C524 C525 1.405 . S
C524 H550 0.930 . S
C525 C520 1.479 . S
C525 C524 1.405 . S
C525 H551 0.931 . S
U526 O527 2.454 . S
U526 O528 2.458 . S
U526 C529 2.984 . S
U526 C530 2.847 . S
U526 C543 2.882 . S
U526 O544 2.441 . S
U526 O545 2.420 . S
U526 O546 2.455 . S
U526 O547 2.449 . S
O527 U526 2.454 . S
O527 C529 1.353 . S
O528 U526 2.458 . S
O528 C529 1.286 . S
C529 U526 2.984 . S
C529 O527 1.353 . S
C529 O528 1.286 . S
C529 C531 1.363 . S
C530 C520 1.465 . S
C530 U526 2.847 . S
C530 O544 1.249 . S
C530 O545 1.202 . S
C531 C529 1.363 . S
C531 C533 1.408 . S
C531 C536 1.342 . S
C532 C533 1.310 . S
C532 C535 1.461 . S
C532 H552 0.932 . S
C533 C531 1.408 . S
C533 C532 1.310 . S
C533 H553 0.930 . S
C534 C535 1.474 . S
C534 C536 1.285 . S
C534 H554 0.929 . S
C535 C532 1.461 . S
C535 C534 1.474 . S
C536 C531 1.342 . S
C536 C534 1.285 . S
C536 H555 0.930 . S
C537 C540 1.424 . S
C537 C542 1.245 . S
C537 C543 1.428 . S
C538 C541 1.260 . S
C538 C542 1.477 . S
C538 H556 0.932 . S
C539 C540 1.384 . S
C539 C541 1.479 . S
C539 H557 0.929 . S
C540 C537 1.424 . S
C540 C539 1.384 . S
C540 H558 0.928 . S
C541 C538 1.260 . S
C541 C539 1.479 . S
C542 C537 1.245 . S
C542 C538 1.477 . S
C542 H559 0.932 . S
C543 U526 2.882 . S
C543 C537 1.428 . S
C543 O546 1.301 . S
C543 O547 1.282 . S
O544 U526 2.441 . S
O544 C530 1.249 . S
O545 U526 2.420 . S
O545 C530 1.202 . S
O546 U526 2.455 . S
O546 C543 1.301 . S
O547 U526 2.449 . S
O547 C543 1.282 . S
H548 C521 0.931 . S
H549 C523 0.929 . S
H550 C524 0.930 . S
H551 C525 0.931 . S
H552 C532 0.932 . S
H553 C533 0.930 . S
H554 C534 0.929 . S
H555 C536 0.930 . S
H556 C538 0.932 . S
H557 C539 0.929 . S
H558 C540 0.928 . S
H559 C542 0.932 . S
C560 C561 1.264 . S
C560 C565 1.479 . S
C560 C570 1.465 . S
C561 C560 1.264 . S
C561 C563 1.339 . S
C561 H588 0.931 . S
C562 C563 1.395 . S
C562 C564 1.320 . S
C563 C561 1.339 . S
C563 C562 1.395 . S
C563 H589 0.929 . S
C564 C562 1.320 . S
C564 C565 1.405 . S
C564 H590 0.930 . S
C565 C560 1.479 . S
C565 C564 1.405 . S
C565 H591 0.931 . S
U566 O567 2.454 . S
U566 O568 2.458 . S
U566 C569 2.984 . S
U566 C570 2.847 . S
U566 C583 2.882 . S
U566 O584 2.441 . S
U566 O585 2.420 . S
U566 O586 2.455 . S
U566 O587 2.449 . S
O567 U566 2.454 . S
O567 C569 1.353 . S
O568 U566 2.458 . S
O568 C569 1.286 . S
C569 U566 2.984 . S
C569 O567 1.353 . S
C569 O568 1.286 . S
C569 C571 1.363 . S
C570 C560 1.465 . S
C570 U566 2.847 . S
C570 O584 1.249 . S
C570 O585 1.202 . S
C571 C569 1.363 . S
C571 C573 1.408 . S
C571 C576 1.342 . S
C572 C573 1.310 . S
C572 C575 1.461 . S
C572 H592 0.932 . S
C573 C571 1.408 . S
C573 C572 1.310 . S
C573 H593 0.930 . S
C574 C575 1.474 . S
C574 C576 1.285 . S
C574 H594 0.929 . S
C575 C572 1.461 . S
C575 C574 1.474 . S
C576 C571 1.342 . S
C576 C574 1.285 . S
C576 H595 0.930 . S
C577 C580 1.424 . S
C577 C582 1.245 . S
C577 C583 1.428 . S
C578 C581 1.260 . S
C578 C582 1.477 . S
C578 H596 0.932 . S
C579 C580 1.384 . S
C579 C581 1.479 . S
C579 H597 0.929 . S
C580 C577 1.424 . S
C580 C579 1.384 . S
C580 H598 0.928 . S
C581 C578 1.260 . S
C581 C579 1.479 . S
C582 C577 1.245 . S
C582 C578 1.477 . S
C582 H599 0.932 . S
C583 U566 2.882 . S
C583 C577 1.428 . S
C583 O586 1.301 . S
C583 O587 1.282 . S
O584 U566 2.441 . S
O584 C570 1.249 . S
O585 U566 2.420 . S
O585 C570 1.202 . S
O586 U566 2.455 . S
O586 C583 1.301 . S
O587 U566 2.449 . S
O587 C583 1.282 . S
H588 C561 0.931 . S
H589 C563 0.929 . S
H590 C564 0.930 . S
H591 C565 0.931 . S
H592 C572 0.932 . S
H593 C573 0.930 . S
H594 C574 0.929 . S
H595 C576 0.930 . S
H596 C578 0.932 . S
H597 C579 0.929 . S
H598 C580 0.928 . S
H599 C582 0.932 . S
C600 C601 1.264 . S
C600 C605 1.479 . S
C600 C610 1.465 . S
C601 C600 1.264 . S
C601 C603 1.339 . S
C601 H628 0.931 . S
C602 C603 1.395 . S
C602 C604 1.320 . S
C603 C601 1.339 . S
C603 C602 1.395 . S
C603 H629 0.929 . S
C604 C602 1.320 . S
C604 C605 1.405 . S
C604 H630 0.930 . S
C605 C600 1.479 . S
C605 C604 1.405 . S
C605 H631 0.931 . S
U606 O607 2.454 . S
U606 O608 2.458 . S
U606 C609 2.984 . S
U606 C610 2.847 . S
U606 C623 2.882 . S
U606 O624 2.441 . S
U606 O625 2.420 . S
U606 O626 2.455 . S
U606 O627 2.449 . S
O607 U606 2.454 . S
O607 C609 1.353 . S
O608 U606 2.458 . S
O608 C609 1.286 . S
C609 U606 2.984 . S
C609 O607 1.353 . S
C609 O608 1.286 . S
C609 C611 1.363 . S
C610 C600 1.465 . S
C610 U606 2.847 . S
C610 O624 1.249 . S
C610 O625 1.202 . S
C611 C609 1.363 . S
C611 C613 1.408 . S
C611 C616 1.342 . S
C612 C613 1.310 . S
C612 C615 1.461 . S
C612 H632 0.932 . S
C613 C611 1.408 . S
C613 C612 1.310 . S
C613 H633 0.930 . S
C614 C615 1.474 . S
C614 C616 1.285 . S
C614 H634 0.929 . S
C615 C612 1.461 . S
C615 C614 1.474 . S
C616 C611 1.342 . S
C616 C614 1.285 . S
C616 H635 0.930 . S
C617 C620 1.424 . S
C617 C622 1.245 . S
C617 C623 1.428 . S
C618 C621 1.260 . S
C618 C622 1.477 . S
C618 H636 0.932 . S
C619 C620 1.384 . S
C619 C621 1.479 . S
C619 H637 0.929 . S
C620 C617 1.424 . S
C620 C619 1.384 . S
C620 H638 0.928 . S
C621 C618 1.260 . S
C621 C619 1.479 . S
C622 C617 1.245 . S
C622 C618 1.477 . S
C622 H639 0.932 . S
C623 U606 2.882 . S
C623 C617 1.428 . S
C623 O626 1.301 . S
C623 O627 1.282 . S
O624 U606 2.441 . S
O624 C610 1.249 . S
O625 U606 2.420 . S
O625 C610 1.202 . S
O626 U606 2.455 . S
O626 C623 1.301 . S
O627 U606 2.449 . S
O627 C623 1.282 . S
H628 C601 0.931 . S
H629 C603 0.929 . S
H630 C604 0.930 . S
H631 C605 0.931 . S
H632 C612 0.932 . S
H633 C613 0.930 . S
H634 C614 0.929 . S
H635 C616 0.930 . S
H636 C618 0.932 . S
H637 C619 0.929 . S
H638 C620 0.928 . S
H639 C622 0.932 . S
C640 C641 1.264 . S
C640 C645 1.479 . S
C640 C650 1.465 . S
C641 C640 1.264 . S
C641 C643 1.339 . S
C641 H668 0.931 . S
C642 C643 1.395 . S
C642 C644 1.320 . S
C643 C641 1.339 . S
C643 C642 1.395 . S
C643 H669 0.929 . S
C644 C642 1.320 . S
C644 C645 1.405 . S
C644 H670 0.930 . S
C645 C640 1.479 . S
C645 C644 1.405 . S
C645 H671 0.931 . S
U646 O647 2.454 . S
U646 O648 2.458 . S
U646 C649 2.984 . S
U646 C650 2.847 . S
U646 C663 2.882 . S
U646 O664 2.441 . S
U646 O665 2.420 . S
U646 O666 2.455 . S
U646 O667 2.449 . S
O647 U646 2.454 . S
O647 C649 1.353 . S
O648 U646 2.458 . S
O648 C649 1.286 . S
C649 U646 2.984 . S
C649 O647 1.353 . S
C649 O648 1.286 . S
C649 C651 1.363 . S
C650 C640 1.465 . S
C650 U646 2.847 . S
C650 O664 1.249 . S
C650 O665 1.202 . S
C651 C649 1.363 . S
C651 C653 1.408 . S
C651 C656 1.342 . S
C652 C653 1.310 . S
C652 C655 1.461 . S
C652 H672 0.932 . S
C653 C651 1.408 . S
C653 C652 1.310 . S
C653 H673 0.930 . S
C654 C655 1.474 . S
C654 C656 1.285 . S
C654 H674 0.929 . S
C655 C652 1.461 . S
C655 C654 1.474 . S
C656 C651 1.342 . S
C656 C654 1.285 . S
C656 H675 0.930 . S
C657 C660 1.424 . S
C657 C662 1.245 . S
C657 C663 1.428 . S
C658 C661 1.260 . S
C658 C662 1.477 . S
C658 H676 0.932 . S
C659 C660 1.384 . S
C659 C661 1.479 . S
C659 H677 0.929 . S
C660 C657 1.424 . S
C660 C659 1.384 . S
C660 H678 0.928 . S
C661 C658 1.260 . S
C661 C659 1.479 . S
C662 C657 1.245 . S
C662 C658 1.477 . S
C662 H679 0.932 . S
C663 U646 2.882 . S
C663 C657 1.428 . S
C663 O666 1.301 . S
C663 O667 1.282 . S
O664 U646 2.441 . S
O664 C650 1.249 . S
O665 U646 2.420 . S
O665 C650 1.202 . S
O666 U646 2.455 . S
O666 C663 1.301 . S
O667 U646 2.449 . S
O667 C663 1.282 . S
H668 C641 0.931 . S
H669 C643 0.929 . S
H670 C644 0.930 . S
H671 C645 0.931 . S
H672 C652 0.932 . S
H673 C653 0.930 . S
H674 C654 0.929 . S
H675 C656 0.930 . S
H676 C658 0.932 . S
H677 C659 0.929 . S
H678 C660 0.928 . S
H679 C662 0.932 . S
C680 C681 1.264 . S
C680 C685 1.479 . S
C680 C690 1.465 . S
C681 C680 1.264 . S
C681 C683 1.339 . S
C681 H708 0.931 . S
C682 C683 1.395 . S
C682 C684 1.320 . S
C683 C681 1.339 . S
C683 C682 1.395 . S
C683 H709 0.929 . S
C684 C682 1.320 . S
C684 C685 1.405 . S
C684 H710 0.930 . S
C685 C680 1.479 . S
C685 C684 1.405 . S
C685 H711 0.931 . S
U686 O687 2.454 . S
U686 O688 2.458 . S
U686 C689 2.984 . S
U686 C690 2.847 . S
U686 C703 2.882 . S
U686 O704 2.441 . S
U686 O705 2.420 . S
U686 O706 2.455 . S
U686 O707 2.449 . S
O687 U686 2.454 . S
O687 C689 1.353 . S
O688 U686 2.458 . S
O688 C689 1.286 . S
C689 U686 2.984 . S
C689 O687 1.353 . S
C689 O688 1.286 . S
C689 C691 1.363 . S
C690 C680 1.465 . S
C690 U686 2.847 . S
C690 O704 1.249 . S
C690 O705 1.202 . S
C691 C689 1.363 . S
C691 C693 1.408 . S
C691 C696 1.342 . S
C692 C693 1.310 . S
C692 C695 1.461 . S
C692 H712 0.932 . S
C693 C691 1.408 . S
C693 C692 1.310 . S
C693 H713 0.930 . S
C694 C695 1.474 . S
C694 C696 1.285 . S
C694 H714 0.929 . S
C695 C692 1.461 . S
C695 C694 1.474 . S
C696 C691 1.342 . S
C696 C694 1.285 . S
C696 H715 0.930 . S
C697 C700 1.424 . S
C697 C702 1.245 . S
C697 C703 1.428 . S
C698 C701 1.260 . S
C698 C702 1.477 . S
C698 H716 0.932 . S
C699 C700 1.384 . S
C699 C701 1.479 . S
C699 H717 0.929 . S
C700 C697 1.424 . S
C700 C699 1.384 . S
C700 H718 0.928 . S
C701 C698 1.260 . S
C701 C699 1.479 . S
C702 C697 1.245 . S
C702 C698 1.477 . S
C702 H719 0.932 . S
C703 U686 2.882 . S
C703 C697 1.428 . S
C703 O706 1.301 . S
C703 O707 1.282 . S
O704 U686 2.441 . S
O704 C690 1.249 . S
O705 U686 2.420 . S
O705 C690 1.202 . S
O706 U686 2.455 . S
O706 C703 1.301 . S
O707 U686 2.449 . S
O707 C703 1.282 . S
H708 C681 0.931 . S
H709 C683 0.929 . S
H710 C684 0.930 . S
H711 C685 0.931 . S
H712 C692 0.932 . S
H713 C693 0.930 . S
H714 C694 0.929 . S
H715 C696 0.930 . S
H716 C698 0.932 . S
H717 C699 0.929 . S
H718 C700 0.928 . S
H719 C702 0.932 . S
Gd720 N751 2.661 . S
Gd720 N757 2.601 . S
Gd720 O764 2.545 . S
Gd720 O765 2.606 1_545 S
Gd720 O767 2.429 . S
Gd720 O768 2.545 1_545 S
Gd720 O769 2.412 . S
Gd720 O771 2.431 . S
Gd720 O772 2.324 1_545 S
Gd720 C779 2.828 . S
Gd721 N730 2.661 . S
Gd721 N734 2.601 . S
Gd721 O765 2.362 1_556 S
Gd721 O766 2.324 1_565 S
Gd721 O770 2.545 . S
Gd721 O771 2.564 1_566 S
Gd721 O773 2.460 . S
Gd721 O774 2.545 1_565 S
Gd721 O775 2.412 . S
Gd721 C788 2.828 . S
C722 C725 1.417 . S
C722 C727 1.431 . S
C722 C728 1.412 . S
C723 C726 1.437 . S
C723 C727 1.317 . S
C723 H742 0.929 . S
C724 C725 1.426 . S
C724 C726 1.413 . S
C724 N734 1.359 . S
C725 C722 1.417 . S
C725 C724 1.426 . S
C725 N730 1.350 . S
C726 C723 1.437 . S
C726 C724 1.413 . S
C726 C736 1.391 . S
C727 C722 1.431 . S
C727 C723 1.317 . S
C727 H738 0.930 . S
C728 C722 1.412 . S
C728 C729 1.355 . S
C728 H740 0.930 . S
C729 C728 1.355 . S
C729 C731 1.402 . S
C729 H741 0.930 . S
N730 Gd721 2.661 . S
N730 C725 1.350 . S
N730 C731 1.307 . S
C731 C729 1.402 . S
C731 N730 1.307 . S
C731 H732 0.930 . S
H732 C731 0.930 . S
C733 N734 1.334 . S
C733 C735 1.394 . S
C733 H737 0.930 . S
N734 Gd721 2.601 . S
N734 C724 1.359 . S
N734 C733 1.334 . S
C735 C733 1.394 . S
C735 C736 1.359 . S
C735 H747 0.930 . S
C736 C726 1.391 . S
C736 C735 1.359 . S
C736 H748 0.929 . S
H737 C733 0.930 . S
H738 C727 0.930 . S
H739 C756 0.930 . S
H740 C728 0.930 . S
H741 C729 0.930 . S
H742 C723 0.929 . S
H743 C761 0.930 . S
H744 C752 0.930 . S
H745 C753 0.930 . S
H746 C777 0.929 . S
H747 C735 0.930 . S
H748 C736 0.929 . S
H749 C778 0.930 . S
H750 C759 0.930 . S
N751 Gd720 2.661 . S
N751 C755 1.350 . S
N751 C756 1.307 . S
C752 H744 0.930 . S
C752 C753 1.355 . S
C752 C754 1.412 . S
C753 H745 0.930 . S
C753 C752 1.355 . S
C753 C756 1.402 . S
C754 C752 1.412 . S
C754 C755 1.417 . S
C754 C778 1.431 . S
C755 N751 1.350 . S
C755 C754 1.417 . S
C755 C758 1.426 . S
C756 H739 0.930 . S
C756 N751 1.307 . S
C756 C753 1.402 . S
N757 Gd720 2.601 . S
N757 C758 1.359 . S
N757 C761 1.334 . S
C758 C755 1.426 . S
C758 N757 1.359 . S
C758 C762 1.413 . S
C759 H750 0.930 . S
C759 C760 1.359 . S
C759 C761 1.394 . S
C760 C759 1.359 . S
C760 C762 1.391 . S
C760 H763 0.929 . S
C761 H743 0.930 . S
C761 N757 1.334 . S
C761 C759 1.394 . S
C762 C758 1.413 . S
C762 C760 1.391 . S
C762 C777 1.437 . S
H763 C760 0.929 . S
O764 Gd720 2.545 . S
O764 C779 1.258 . S
O765 Gd720 2.606 1_565 S
O765 Gd721 2.362 1_554 S
O765 C776 1.284 . S
O766 Gd721 2.324 1_545 S
O766 C786 1.254 . S
O767 Gd720 2.429 . S
O767 C786 1.268 1_554 S
O768 Gd720 2.545 1_565 S
O768 C776 1.250 . S
O769 Gd720 2.412 . S
O769 C779 1.252 . S
O770 Gd721 2.545 . S
O770 C788 1.258 . S
O771 Gd720 2.431 . S
O771 Gd721 2.564 1_544 S
O771 C787 1.230 1_554 S
O772 Gd720 2.324 1_565 S
O772 C795 1.254 . S
O773 Gd721 2.460 . S
O773 C795 1.213 1_556 S
O774 Gd721 2.545 1_545 S
O774 C787 1.250 . S
O775 Gd721 2.412 . S
O775 C788 1.252 . S
C776 O765 1.284 . S
C776 O768 1.250 . S
C777 H746 0.929 . S
C777 C762 1.437 . S
C777 C778 1.317 . S
C778 H749 0.930 . S
C778 C754 1.431 . S
C778 C777 1.317 . S
C779 Gd720 2.828 . S
C779 O764 1.258 . S
C779 O769 1.252 . S
C779 C780 1.497 . S
C780 C779 1.497 . S
C780 C781 1.395 . S
C780 C782 1.380 1_545 S
C781 C780 1.395 . S
C781 C784 1.398 . S
C781 H796 0.930 . S
C782 C780 1.380 1_565 S
C782 C783 1.391 . S
C782 H797 0.930 . S
C783 C782 1.391 . S
C783 C785 1.387 1_565 S
C784 C781 1.398 . S
C784 C785 1.380 . S
C784 H798 0.930 . S
C785 C783 1.387 1_545 S
C785 C784 1.380 . S
C785 H799 0.930 . S
C786 O766 1.254 . S
C786 O767 1.268 1_556 S
C787 O771 1.230 1_556 S
C787 O774 1.250 . S
C788 Gd721 2.828 . S
C788 O770 1.258 . S
C788 O775 1.252 . S
C788 C789 1.497 . S
C789 C788 1.497 . S
C789 C790 1.395 . S
C789 C791 1.380 1_565 S
C790 C789 1.395 . S
C790 C793 1.398 . S
C790 H800 0.930 . S
C791 C789 1.380 1_545 S
C791 C792 1.391 . S
C791 H801 0.930 . S
C792 C791 1.391 . S
C792 C794 1.387 1_545 S
C793 C790 1.398 . S
C793 C794 1.380 . S
C793 H802 0.930 . S
C794 C792 1.387 1_565 S
C794 C793 1.380 . S
C794 H803 0.931 . S
C795 O772 1.254 . S
C795 O773 1.213 1_554 S
H796 C781 0.930 . S
H797 C782 0.930 . S
H798 C784 0.930 . S
H799 C785 0.930 . S
H800 C790 0.930 . S
H801 C791 0.930 . S
H802 C793 0.930 . S
H803 C794 0.931 . S
Gd804 N835 2.661 . S
Gd804 N841 2.601 . S
Gd804 O848 2.545 . S
Gd804 O849 2.606 1_655 S
Gd804 O851 2.429 . S
Gd804 O852 2.545 1_655 S
Gd804 O853 2.412 . S
Gd804 O855 2.423 . S
Gd804 O856 2.324 1_655 S
Gd804 C863 2.828 . S
Gd805 N814 2.661 . S
Gd805 N818 2.601 . S
Gd805 O849 2.362 1_556 S
Gd805 O850 2.324 1_455 S
Gd805 O854 2.545 . S
Gd805 O855 2.570 1_456 S
Gd805 O857 2.424 1_556 S
Gd805 O858 2.545 1_455 S
Gd805 O859 2.412 . S
Gd805 C872 2.828 . S
C806 C809 1.417 . S
C806 C811 1.431 . S
C806 C812 1.412 . S
C807 C810 1.437 . S
C807 C811 1.317 . S
C807 H826 0.929 . S
C808 C809 1.426 . S
C808 C810 1.413 . S
C808 N818 1.359 . S
C809 C806 1.417 . S
C809 C808 1.426 . S
C809 N814 1.350 . S
C810 C807 1.437 . S
C810 C808 1.413 . S
C810 C820 1.391 . S
C811 C806 1.431 . S
C811 C807 1.317 . S
C811 H822 0.930 . S
C812 C806 1.412 . S
C812 C813 1.355 . S
C812 H824 0.930 . S
C813 C812 1.355 . S
C813 C815 1.402 . S
C813 H825 0.930 . S
N814 Gd805 2.661 . S
N814 C809 1.350 . S
N814 C815 1.307 . S
C815 C813 1.402 . S
C815 N814 1.307 . S
C815 H816 0.930 . S
H816 C815 0.930 . S
C817 N818 1.334 . S
C817 C819 1.394 . S
C817 H821 0.930 . S
N818 Gd805 2.601 . S
N818 C808 1.359 . S
N818 C817 1.334 . S
C819 C817 1.394 . S
C819 C820 1.359 . S
C819 H831 0.930 . S
C820 C810 1.391 . S
C820 C819 1.359 . S
C820 H832 0.929 . S
H821 C817 0.930 . S
H822 C811 0.930 . S
H823 C840 0.930 . S
H824 C812 0.930 . S
H825 C813 0.930 . S
H826 C807 0.929 . S
H827 C845 0.930 . S
H828 C836 0.930 . S
H829 C837 0.930 . S
H830 C861 0.929 . S
H831 C819 0.930 . S
H832 C820 0.929 . S
H833 C862 0.930 . S
H834 C843 0.930 . S
N835 Gd804 2.661 . S
N835 C839 1.350 . S
N835 C840 1.307 . S
C836 H828 0.930 . S
C836 C837 1.355 . S
C836 C838 1.412 . S
C837 H829 0.930 . S
C837 C836 1.355 . S
C837 C840 1.402 . S
C838 C836 1.412 . S
C838 C839 1.417 . S
C838 C862 1.431 . S
C839 N835 1.350 . S
C839 C838 1.417 . S
C839 C842 1.426 . S
C840 H823 0.930 . S
C840 N835 1.307 . S
C840 C837 1.402 . S
N841 Gd804 2.601 . S
N841 C842 1.359 . S
N841 C845 1.334 . S
C842 C839 1.426 . S
C842 N841 1.359 . S
C842 C846 1.413 . S
C843 H834 0.930 . S
C843 C844 1.359 . S
C843 C845 1.394 . S
C844 C843 1.359 . S
C844 C846 1.391 . S
C844 H847 0.929 . S
C845 H827 0.930 . S
C845 N841 1.334 . S
C845 C843 1.394 . S
C846 C842 1.413 . S
C846 C844 1.391 . S
C846 C861 1.437 . S
H847 C844 0.929 . S
O848 Gd804 2.545 . S
O848 C863 1.258 . S
O849 Gd804 2.606 1_455 S
O849 Gd805 2.362 1_554 S
O849 C860 1.284 . S
O850 Gd805 2.324 1_655 S
O850 C870 1.254 . S
O851 Gd804 2.429 . S
O851 C870 1.268 1_554 S
O852 Gd804 2.545 1_455 S
O852 C860 1.250 . S
O853 Gd804 2.412 . S
O853 C863 1.252 . S
O854 Gd805 2.545 . S
O854 C872 1.258 . S
O855 Gd804 2.423 . S
O855 Gd805 2.570 1_654 S
O855 C871 1.235 1_554 S
O856 Gd804 2.324 1_455 S
O856 C879 1.254 . S
O857 Gd805 2.424 1_554 S
O857 C879 1.278 . S
O858 Gd805 2.545 1_655 S
O858 C871 1.250 . S
O859 Gd805 2.412 . S
O859 C872 1.252 . S
C860 O849 1.284 . S
C860 O852 1.250 . S
C861 H830 0.929 . S
C861 C846 1.437 . S
C861 C862 1.317 . S
C862 H833 0.930 . S
C862 C838 1.431 . S
C862 C861 1.317 . S
C863 Gd804 2.828 . S
C863 O848 1.258 . S
C863 O853 1.252 . S
C863 C864 1.497 . S
C864 C863 1.497 . S
C864 C865 1.395 . S
C864 C866 1.380 1_655 S
C865 C864 1.395 . S
C865 C868 1.398 . S
C865 H880 0.930 . S
C866 C864 1.380 1_455 S
C866 C867 1.391 . S
C866 H881 0.930 . S
C867 C866 1.391 . S
C867 C869 1.387 1_455 S
C868 C865 1.398 . S
C868 C869 1.380 . S
C868 H882 0.930 . S
C869 C867 1.387 1_655 S
C869 C868 1.380 . S
C869 H883 0.930 . S
C870 O850 1.254 . S
C870 O851 1.268 1_556 S
C871 O855 1.235 1_556 S
C871 O858 1.250 . S
C872 Gd805 2.828 . S
C872 O854 1.258 . S
C872 O859 1.252 . S
C872 C873 1.497 . S
C873 C872 1.497 . S
C873 C874 1.395 . S
C873 C875 1.380 1_455 S
C874 C873 1.395 . S
C874 C877 1.398 . S
C874 H884 0.930 . S
C875 C873 1.380 1_655 S
C875 C876 1.391 . S
C875 H885 0.930 . S
C876 C875 1.391 . S
C876 C878 1.387 1_655 S
C877 C874 1.398 . S
C877 C878 1.380 . S
C877 H886 0.930 . S
C878 C876 1.387 1_455 S
C878 C877 1.380 . S
C878 H887 0.930 . S
C879 O856 1.254 . S
C879 O857 1.278 . S
H880 C865 0.930 . S
H881 C866 0.930 . S
H882 C868 0.930 . S
H883 C869 0.930 . S
H884 C874 0.930 . S
H885 C875 0.930 . S
H886 C877 0.930 . S
H887 C878 0.930 . S
Gd888 N919 2.661 . S
Gd888 N925 2.601 . S
Gd888 O932 2.545 . S
Gd888 O933 2.597 1_556 S
Gd888 O935 2.469 . S
Gd888 O936 2.545 . S
Gd888 O937 2.412 . S
Gd888 O939 2.362 1_556 S
Gd888 O940 2.324 . S
Gd888 C947 2.828 . S
Gd889 N898 2.661 . S
Gd889 N902 2.601 . S
Gd889 O933 2.376 . S
Gd889 O934 2.324 . S
Gd889 O938 2.545 . S
Gd889 O939 2.606 . S
Gd889 O941 2.429 . S
Gd889 O942 2.545 . S
Gd889 O943 2.412 . S
Gd889 C956 2.828 . S
C890 C893 1.417 . S
C890 C895 1.431 . S
C890 C896 1.412 . S
C891 C894 1.437 . S
C891 C895 1.317 . S
C891 H910 0.929 . S
C892 C893 1.426 . S
C892 C894 1.413 . S
C892 N902 1.359 . S
C893 C890 1.417 . S
C893 C892 1.426 . S
C893 N898 1.350 . S
C894 C891 1.437 . S
C894 C892 1.413 . S
C894 C904 1.391 . S
C895 C890 1.431 . S
C895 C891 1.317 . S
C895 H906 0.930 . S
C896 C890 1.412 . S
C896 C897 1.355 . S
C896 H908 0.930 . S
C897 C896 1.355 . S
C897 C899 1.402 . S
C897 H909 0.930 . S
N898 Gd889 2.661 . S
N898 C893 1.350 . S
N898 C899 1.307 . S
C899 C897 1.402 . S
C899 N898 1.307 . S
C899 H900 0.930 . S
H900 C899 0.930 . S
C901 N902 1.334 . S
C901 C903 1.394 . S
C901 H905 0.930 . S
N902 Gd889 2.601 . S
N902 C892 1.359 . S
N902 C901 1.334 . S
C903 C901 1.394 . S
C903 C904 1.359 . S
C903 H915 0.930 . S
C904 C894 1.391 . S
C904 C903 1.359 . S
C904 H916 0.929 . S
H905 C901 0.930 . S
H906 C895 0.930 . S
H907 C924 0.930 . S
H908 C896 0.930 . S
H909 C897 0.930 . S
H910 C891 0.929 . S
H911 C929 0.930 . S
H912 C920 0.930 . S
H913 C921 0.930 . S
H914 C945 0.929 . S
H915 C903 0.930 . S
H916 C904 0.929 . S
H917 C946 0.930 . S
H918 C927 0.930 . S
N919 Gd888 2.661 . S
N919 C923 1.350 . S
N919 C924 1.307 . S
C920 H912 0.930 . S
C920 C921 1.355 . S
C920 C922 1.412 . S
C921 H913 0.930 . S
C921 C920 1.355 . S
C921 C924 1.402 . S
C922 C920 1.412 . S
C922 C923 1.417 . S
C922 C946 1.431 . S
C923 N919 1.350 . S
C923 C922 1.417 . S
C923 C926 1.426 . S
C924 H907 0.930 . S
C924 N919 1.307 . S
C924 C921 1.402 . S
N925 Gd888 2.601 . S
N925 C926 1.359 . S
N925 C929 1.334 . S
C926 C923 1.426 . S
C926 N925 1.359 . S
C926 C930 1.413 . S
C927 H918 0.930 . S
C927 C928 1.359 . S
C927 C929 1.394 . S
C928 C927 1.359 . S
C928 C930 1.391 . S
C928 H931 0.929 . S
C929 H911 0.930 . S
C929 N925 1.334 . S
C929 C927 1.394 . S
C930 C926 1.413 . S
C930 C928 1.391 . S
C930 C945 1.437 . S
H931 C928 0.929 . S
O932 Gd888 2.545 . S
O932 C947 1.258 . S
O933 Gd888 2.597 1_554 S
O933 Gd889 2.376 . S
O933 C944 1.273 1_554 S
O934 Gd889 2.324 . S
O934 C954 1.254 . S
O935 Gd888 2.469 . S
O935 C954 1.197 1_556 S
O936 Gd888 2.545 . S
O936 C944 1.250 . S
O937 Gd888 2.412 . S
O937 C947 1.252 . S
O938 Gd889 2.545 . S
O938 C956 1.258 . S
O939 Gd888 2.362 1_554 S
O939 Gd889 2.606 . S
O939 C955 1.284 . S
O940 Gd888 2.324 . S
O940 C963 1.254 . S
O941 Gd889 2.429 . S
O941 C963 1.268 1_554 S
O942 Gd889 2.545 . S
O942 C955 1.250 . S
O943 Gd889 2.412 . S
O943 C956 1.252 . S
C944 O933 1.273 1_556 S
C944 O936 1.250 . S
C945 H914 0.929 . S
C945 C930 1.437 . S
C945 C946 1.317 . S
C946 H917 0.930 . S
C946 C922 1.431 . S
C946 C945 1.317 . S
C947 Gd888 2.828 . S
C947 O932 1.258 . S
C947 O937 1.252 . S
C947 C948 1.497 . S
C948 C947 1.497 . S
C948 C949 1.395 . S
C948 C950 1.380 . S
C949 C948 1.395 . S
C949 C952 1.398 . S
C949 H964 0.930 . S
C950 C948 1.380 . S
C950 C951 1.391 . S
C950 H965 0.930 . S
C951 C950 1.391 . S
C951 C953 1.387 . S
C952 C949 1.398 . S
C952 C953 1.380 . S
C952 H966 0.930 . S
C953 C951 1.387 . S
C953 C952 1.380 . S
C953 H967 0.930 . S
C954 O934 1.254 . S
C954 O935 1.197 1_554 S
C955 O939 1.284 . S
C955 O942 1.250 . S
C956 Gd889 2.828 . S
C956 O938 1.258 . S
C956 O943 1.252 . S
C956 C957 1.497 . S
C957 C956 1.497 . S
C957 C958 1.395 . S
C957 C959 1.380 . S
C958 C957 1.395 . S
C958 C961 1.398 . S
C958 H968 0.930 . S
C959 C957 1.380 . S
C959 C960 1.391 . S
C959 H969 0.930 . S
C960 C959 1.391 . S
C960 C962 1.387 . S
C961 C958 1.398 . S
C961 C962 1.380 . S
C961 H970 0.930 . S
C962 C960 1.387 . S
C962 C961 1.380 . S
C962 H971 0.930 . S
C963 O940 1.254 . S
C963 O941 1.268 1_556 S
H964 C949 0.930 . S
H965 C950 0.930 . S
H966 C952 0.930 . S
H967 C953 0.930 . S
H968 C958 0.930 . S
H969 C959 0.930 . S
H970 C961 0.930 . S
H971 C962 0.930 . S
Gd972 N1003 2.661 . S
Gd972 N1009 2.601 . S
Gd972 O1016 2.545 . S
Gd972 O1017 2.606 . S
Gd972 O1019 2.429 . S
Gd972 O1020 2.545 . S
Gd972 O1021 2.412 . S
Gd972 O1023 2.362 . S
Gd972 O1024 2.324 . S
Gd972 C1031 2.828 . S
Gd973 N982 2.661 . S
Gd973 N986 2.601 . S
Gd973 O1017 2.362 . S
Gd973 O1018 2.324 . S
Gd973 O1022 2.545 . S
Gd973 O1023 2.606 . S
Gd973 O1025 2.429 . S
Gd973 O1026 2.545 . S
Gd973 O1027 2.412 . S
Gd973 C1040 2.828 . S
C974 C977 1.417 . S
C974 C979 1.431 . S
C974 C980 1.412 . S
C975 C978 1.437 . S
C975 C979 1.317 . S
C975 H994 0.929 . S
C976 C977 1.426 . S
C976 C978 1.413 . S
C976 N986 1.359 . S
C977 C974 1.417 . S
C977 C976 1.426 . S
C977 N982 1.350 . S
C978 C975 1.437 . S
C978 C976 1.413 . S
C978 C988 1.391 . S
C979 C974 1.431 . S
C979 C975 1.317 . S
C979 H990 0.930 . S
C980 C974 1.412 . S
C980 C981 1.355 . S
C980 H992 0.930 . S
C981 C980 1.355 . S
C981 C983 1.402 . S
C981 H993 0.930 . S
N982 Gd973 2.661 . S
N982 C977 1.350 . S
N982 C983 1.307 . S
C983 C981 1.402 . S
C983 N982 1.307 . S
C983 H984 0.930 . S
H984 C983 0.930 . S
C985 N986 1.334 . S
C985 C987 1.394 . S
C985 H989 0.930 . S
N986 Gd973 2.601 . S
N986 C976 1.359 . S
N986 C985 1.334 . S
C987 C985 1.394 . S
C987 C988 1.359 . S
C987 H999 0.930 . S
C988 C978 1.391 . S
C988 C987 1.359 . S
C988 H1000 0.929 . S
H989 C985 0.930 . S
H990 C979 0.930 . S
H991 C1008 0.930 . S
H992 C980 0.930 . S
H993 C981 0.930 . S
H994 C975 0.929 . S
H995 C1013 0.930 . S
H996 C1004 0.930 . S
H997 C1005 0.930 . S
H998 C1029 0.929 . S
H999 C987 0.930 . S
H1000 C988 0.929 . S
H1001 C1030 0.930 . S
H1002 C1011 0.930 . S
N1003 Gd972 2.661 . S
N1003 C1007 1.350 . S
N1003 C1008 1.307 . S
C1004 H996 0.930 . S
C1004 C1005 1.355 . S
C1004 C1006 1.412 . S
C1005 H997 0.930 . S
C1005 C1004 1.355 . S
C1005 C1008 1.402 . S
C1006 C1004 1.412 . S
C1006 C1007 1.417 . S
C1006 C1030 1.431 . S
C1007 N1003 1.350 . S
C1007 C1006 1.417 . S
C1007 C1010 1.426 . S
C1008 H991 0.930 . S
C1008 N1003 1.307 . S
C1008 C1005 1.402 . S
N1009 Gd972 2.601 . S
N1009 C1010 1.359 . S
N1009 C1013 1.334 . S
C1010 C1007 1.426 . S
C1010 N1009 1.359 . S
C1010 C1014 1.413 . S
C1011 H1002 0.930 . S
C1011 C1012 1.359 . S
C1011 C1013 1.394 . S
C1012 C1011 1.359 . S
C1012 C1014 1.391 . S
C1012 H1015 0.929 . S
C1013 H995 0.930 . S
C1013 N1009 1.334 . S
C1013 C1011 1.394 . S
C1014 C1010 1.413 . S
C1014 C1012 1.391 . S
C1014 C1029 1.437 . S
H1015 C1012 0.929 . S
O1016 Gd972 2.545 . S
O1016 C1031 1.258 . S
O1017 Gd972 2.606 . S
O1017 Gd973 2.362 . S
O1017 C1028 1.284 . S
O1018 Gd973 2.324 . S
O1018 C1038 1.254 . S
O1019 Gd972 2.429 . S
O1019 C1038 1.268 . S
O1020 Gd972 2.545 . S
O1020 C1028 1.250 . S
O1021 Gd972 2.412 . S
O1021 C1031 1.252 . S
O1022 Gd973 2.545 . S
O1022 C1040 1.258 . S
O1023 Gd972 2.362 . S
O1023 Gd973 2.606 . S
O1023 C1039 1.284 . S
O1024 Gd972 2.324 . S
O1024 C1047 1.254 . S
O1025 Gd973 2.429 . S
O1025 C1047 1.268 . S
O1026 Gd973 2.545 . S
O1026 C1039 1.250 . S
O1027 Gd973 2.412 . S
O1027 C1040 1.252 . S
C1028 O1017 1.284 . S
C1028 O1020 1.250 . S
C1029 H998 0.929 . S
C1029 C1014 1.437 . S
C1029 C1030 1.317 . S
C1030 H1001 0.930 . S
C1030 C1006 1.431 . S
C1030 C1029 1.317 . S
C1031 Gd972 2.828 . S
C1031 O1016 1.258 . S
C1031 O1021 1.252 . S
C1031 C1032 1.497 . S
C1032 C1031 1.497 . S
C1032 C1033 1.395 . S
C1032 C1034 1.380 . S
C1033 C1032 1.395 . S
C1033 C1036 1.398 . S
C1033 H1048 0.930 . S
C1034 C1032 1.380 . S
C1034 C1035 1.391 . S
C1034 H1049 0.930 . S
C1035 C1034 1.391 . S
C1035 C1037 1.387 . S
C1036 C1033 1.398 . S
C1036 C1037 1.380 . S
C1036 H1050 0.930 . S
C1037 C1035 1.387 . S
C1037 C1036 1.380 . S
C1037 H1051 0.930 . S
C1038 O1018 1.254 . S
C1038 O1019 1.268 . S
C1039 O1023 1.284 . S
C1039 O1026 1.250 . S
C1040 Gd973 2.828 . S
C1040 O1022 1.258 . S
C1040 O1027 1.252 . S
C1040 C1041 1.497 . S
C1041 C1040 1.497 . S
C1041 C1042 1.395 . S
C1041 C1043 1.380 . S
C1042 C1041 1.395 . S
C1042 C1045 1.398 . S
C1042 H1052 0.930 . S
C1043 C1041 1.380 . S
C1043 C1044 1.391 . S
C1043 H1053 0.930 . S
C1044 C1043 1.391 . S
C1044 C1046 1.387 . S
C1045 C1042 1.398 . S
C1045 C1046 1.380 . S
C1045 H1054 0.930 . S
C1046 C1044 1.387 . S
C1046 C1045 1.380 . S
C1046 H1055 0.930 . S
C1047 O1024 1.254 . S
C1047 O1025 1.268 . S
H1048 C1033 0.930 . S
H1049 C1034 0.930 . S
H1050 C1036 0.930 . S
H1051 C1037 0.930 . S
H1052 C1042 0.930 . S
H1053 C1043 0.930 . S
H1054 C1045 0.930 . S
H1055 C1046 0.930 . S
Gd1056 N1087 2.661 . S
Gd1056 N1093 2.601 . S
Gd1056 O1100 2.545 . S
Gd1056 O1101 2.606 . S
Gd1056 O1103 2.429 . S
Gd1056 O1104 2.545 . S
Gd1056 O1105 2.412 . S
Gd1056 O1107 2.362 . S
Gd1056 O1108 2.324 . S
Gd1056 C1115 2.828 . S
Gd1057 N1066 2.661 . S
Gd1057 N1070 2.601 . S
Gd1057 O1101 2.362 . S
Gd1057 O1102 2.324 . S
Gd1057 O1106 2.545 . S
Gd1057 O1107 2.606 . S
Gd1057 O1109 2.429 . S
Gd1057 O1110 2.545 . S
Gd1057 O1111 2.412 . S
Gd1057 C1124 2.828 . S
C1058 C1061 1.417 . S
C1058 C1063 1.431 . S
C1058 C1064 1.412 . S
C1059 C1062 1.437 . S
C1059 C1063 1.317 . S
C1059 H1078 0.929 . S
C1060 C1061 1.426 . S
C1060 C1062 1.413 . S
C1060 N1070 1.359 . S
C1061 C1058 1.417 . S
C1061 C1060 1.426 . S
C1061 N1066 1.350 . S
C1062 C1059 1.437 . S
C1062 C1060 1.413 . S
C1062 C1072 1.391 . S
C1063 C1058 1.431 . S
C1063 C1059 1.317 . S
C1063 H1074 0.930 . S
C1064 C1058 1.412 . S
C1064 C1065 1.355 . S
C1064 H1076 0.930 . S
C1065 C1064 1.355 . S
C1065 C1067 1.402 . S
C1065 H1077 0.930 . S
N1066 Gd1057 2.661 . S
N1066 C1061 1.350 . S
N1066 C1067 1.307 . S
C1067 C1065 1.402 . S
C1067 N1066 1.307 . S
C1067 H1068 0.930 . S
H1068 C1067 0.930 . S
C1069 N1070 1.334 . S
C1069 C1071 1.394 . S
C1069 H1073 0.930 . S
N1070 Gd1057 2.601 . S
N1070 C1060 1.359 . S
N1070 C1069 1.334 . S
C1071 C1069 1.394 . S
C1071 C1072 1.359 . S
C1071 H1083 0.930 . S
C1072 C1062 1.391 . S
C1072 C1071 1.359 . S
C1072 H1084 0.929 . S
H1073 C1069 0.930 . S
H1074 C1063 0.930 . S
H1075 C1092 0.930 . S
H1076 C1064 0.930 . S
H1077 C1065 0.930 . S
H1078 C1059 0.929 . S
H1079 C1097 0.930 . S
H1080 C1088 0.930 . S
H1081 C1089 0.930 . S
H1082 C1113 0.929 . S
H1083 C1071 0.930 . S
H1084 C1072 0.929 . S
H1085 C1114 0.930 . S
H1086 C1095 0.930 . S
N1087 Gd1056 2.661 . S
N1087 C1091 1.350 . S
N1087 C1092 1.307 . S
C1088 H1080 0.930 . S
C1088 C1089 1.355 . S
C1088 C1090 1.412 . S
C1089 H1081 0.930 . S
C1089 C1088 1.355 . S
C1089 C1092 1.402 . S
C1090 C1088 1.412 . S
C1090 C1091 1.417 . S
C1090 C1114 1.431 . S
C1091 N1087 1.350 . S
C1091 C1090 1.417 . S
C1091 C1094 1.426 . S
C1092 H1075 0.930 . S
C1092 N1087 1.307 . S
C1092 C1089 1.402 . S
N1093 Gd1056 2.601 . S
N1093 C1094 1.359 . S
N1093 C1097 1.334 . S
C1094 C1091 1.426 . S
C1094 N1093 1.359 . S
C1094 C1098 1.413 . S
C1095 H1086 0.930 . S
C1095 C1096 1.359 . S
C1095 C1097 1.394 . S
C1096 C1095 1.359 . S
C1096 C1098 1.391 . S
C1096 H1099 0.929 . S
C1097 H1079 0.930 . S
C1097 N1093 1.334 . S
C1097 C1095 1.394 . S
C1098 C1094 1.413 . S
C1098 C1096 1.391 . S
C1098 C1113 1.437 . S
H1099 C1096 0.929 . S
O1100 Gd1056 2.545 . S
O1100 C1115 1.258 . S
O1101 Gd1056 2.606 . S
O1101 Gd1057 2.362 . S
O1101 C1112 1.284 . S
O1102 Gd1057 2.324 . S
O1102 C1122 1.254 . S
O1103 Gd1056 2.429 . S
O1103 C1122 1.268 . S
O1104 Gd1056 2.545 . S
O1104 C1112 1.250 . S
O1105 Gd1056 2.412 . S
O1105 C1115 1.252 . S
O1106 Gd1057 2.545 . S
O1106 C1124 1.258 . S
O1107 Gd1056 2.362 . S
O1107 Gd1057 2.606 . S
O1107 C1123 1.284 . S
O1108 Gd1056 2.324 . S
O1108 C1131 1.254 . S
O1109 Gd1057 2.429 . S
O1109 C1131 1.268 . S
O1110 Gd1057 2.545 . S
O1110 C1123 1.250 . S
O1111 Gd1057 2.412 . S
O1111 C1124 1.252 . S
C1112 O1101 1.284 . S
C1112 O1104 1.250 . S
C1113 H1082 0.929 . S
C1113 C1098 1.437 . S
C1113 C1114 1.317 . S
C1114 H1085 0.930 . S
C1114 C1090 1.431 . S
C1114 C1113 1.317 . S
C1115 Gd1056 2.828 . S
C1115 O1100 1.258 . S
C1115 O1105 1.252 . S
C1115 C1116 1.497 . S
C1116 C1115 1.497 . S
C1116 C1117 1.395 . S
C1116 C1118 1.380 . S
C1117 C1116 1.395 . S
C1117 C1120 1.398 . S
C1117 H1132 0.930 . S
C1118 C1116 1.380 . S
C1118 C1119 1.391 . S
C1118 H1133 0.930 . S
C1119 C1118 1.391 . S
C1119 C1121 1.387 . S
C1120 C1117 1.398 . S
C1120 C1121 1.380 . S
C1120 H1134 0.930 . S
C1121 C1119 1.387 . S
C1121 C1120 1.380 . S
C1121 H1135 0.930 . S
C1122 O1102 1.254 . S
C1122 O1103 1.268 . S
C1123 O1107 1.284 . S
C1123 O1110 1.250 . S
C1124 Gd1057 2.828 . S
C1124 O1106 1.258 . S
C1124 O1111 1.252 . S
C1124 C1125 1.497 . S
C1125 C1124 1.497 . S
C1125 C1126 1.395 . S
C1125 C1127 1.380 . S
C1126 C1125 1.395 . S
C1126 C1129 1.398 . S
C1126 H1136 0.930 . S
C1127 C1125 1.380 . S
C1127 C1128 1.391 . S
C1127 H1137 0.930 . S
C1128 C1127 1.391 . S
C1128 C1130 1.387 . S
C1129 C1126 1.398 . S
C1129 C1130 1.380 . S
C1129 H1138 0.930 . S
C1130 C1128 1.387 . S
C1130 C1129 1.380 . S
C1130 H1139 0.930 . S
C1131 O1108 1.254 . S
C1131 O1109 1.268 . S
H1132 C1117 0.930 . S
H1133 C1118 0.930 . S
H1134 C1120 0.930 . S
H1135 C1121 0.930 . S
H1136 C1126 0.930 . S
H1137 C1127 0.930 . S
H1138 C1129 0.930 . S
H1139 C1130 0.930 . S
Gd1140 N1171 2.661 . S
Gd1140 N1177 2.601 . S
Gd1140 O1184 2.545 . S
Gd1140 O1185 2.606 . S
Gd1140 O1187 2.429 . S
Gd1140 O1188 2.545 . S
Gd1140 O1189 2.412 . S
Gd1140 O1191 2.362 . S
Gd1140 O1192 2.324 . S
Gd1140 C1199 2.828 . S
Gd1141 N1150 2.661 . S
Gd1141 N1154 2.601 . S
Gd1141 O1185 2.362 . S
Gd1141 O1186 2.324 . S
Gd1141 O1190 2.545 . S
Gd1141 O1191 2.606 . S
Gd1141 O1193 2.429 . S
Gd1141 O1194 2.545 . S
Gd1141 O1195 2.412 . S
Gd1141 C1208 2.828 . S
C1142 C1145 1.417 . S
C1142 C1147 1.431 . S
C1142 C1148 1.412 . S
C1143 C1146 1.437 . S
C1143 C1147 1.317 . S
C1143 H1162 0.929 . S
C1144 C1145 1.426 . S
C1144 C1146 1.413 . S
C1144 N1154 1.359 . S
C1145 C1142 1.417 . S
C1145 C1144 1.426 . S
C1145 N1150 1.350 . S
C1146 C1143 1.437 . S
C1146 C1144 1.413 . S
C1146 C1156 1.391 . S
C1147 C1142 1.431 . S
C1147 C1143 1.317 . S
C1147 H1158 0.930 . S
C1148 C1142 1.412 . S
C1148 C1149 1.355 . S
C1148 H1160 0.930 . S
C1149 C1148 1.355 . S
C1149 C1151 1.402 . S
C1149 H1161 0.930 . S
N1150 Gd1141 2.661 . S
N1150 C1145 1.350 . S
N1150 C1151 1.307 . S
C1151 C1149 1.402 . S
C1151 N1150 1.307 . S
C1151 H1152 0.930 . S
H1152 C1151 0.930 . S
C1153 N1154 1.334 . S
C1153 C1155 1.394 . S
C1153 H1157 0.930 . S
N1154 Gd1141 2.601 . S
N1154 C1144 1.359 . S
N1154 C1153 1.334 . S
C1155 C1153 1.394 . S
C1155 C1156 1.359 . S
C1155 H1167 0.930 . S
C1156 C1146 1.391 . S
C1156 C1155 1.359 . S
C1156 H1168 0.929 . S
H1157 C1153 0.930 . S
H1158 C1147 0.930 . S
H1159 C1176 0.930 . S
H1160 C1148 0.930 . S
H1161 C1149 0.930 . S
H1162 C1143 0.929 . S
H1163 C1181 0.930 . S
H1164 C1172 0.930 . S
H1165 C1173 0.930 . S
H1166 C1197 0.929 . S
H1167 C1155 0.930 . S
H1168 C1156 0.929 . S
H1169 C1198 0.930 . S
H1170 C1179 0.930 . S
N1171 Gd1140 2.661 . S
N1171 C1175 1.350 . S
N1171 C1176 1.307 . S
C1172 H1164 0.930 . S
C1172 C1173 1.355 . S
C1172 C1174 1.412 . S
C1173 H1165 0.930 . S
C1173 C1172 1.355 . S
C1173 C1176 1.402 . S
C1174 C1172 1.412 . S
C1174 C1175 1.417 . S
C1174 C1198 1.431 . S
C1175 N1171 1.350 . S
C1175 C1174 1.417 . S
C1175 C1178 1.426 . S
C1176 H1159 0.930 . S
C1176 N1171 1.307 . S
C1176 C1173 1.402 . S
N1177 Gd1140 2.601 . S
N1177 C1178 1.359 . S
N1177 C1181 1.334 . S
C1178 C1175 1.426 . S
C1178 N1177 1.359 . S
C1178 C1182 1.413 . S
C1179 H1170 0.930 . S
C1179 C1180 1.359 . S
C1179 C1181 1.394 . S
C1180 C1179 1.359 . S
C1180 C1182 1.391 . S
C1180 H1183 0.929 . S
C1181 H1163 0.930 . S
C1181 N1177 1.334 . S
C1181 C1179 1.394 . S
C1182 C1178 1.413 . S
C1182 C1180 1.391 . S
C1182 C1197 1.437 . S
H1183 C1180 0.929 . S
O1184 Gd1140 2.545 . S
O1184 C1199 1.258 . S
O1185 Gd1140 2.606 . S
O1185 Gd1141 2.362 . S
O1185 C1196 1.284 . S
O1186 Gd1141 2.324 . S
O1186 C1206 1.254 . S
O1187 Gd1140 2.429 . S
O1187 C1206 1.268 . S
O1188 Gd1140 2.545 . S
O1188 C1196 1.250 . S
O1189 Gd1140 2.412 . S
O1189 C1199 1.252 . S
O1190 Gd1141 2.545 . S
O1190 C1208 1.258 . S
O1191 Gd1140 2.362 . S
O1191 Gd1141 2.606 . S
O1191 C1207 1.284 . S
O1192 Gd1140 2.324 . S
O1192 C1215 1.254 . S
O1193 Gd1141 2.429 . S
O1193 C1215 1.268 . S
O1194 Gd1141 2.545 . S
O1194 C1207 1.250 . S
O1195 Gd1141 2.412 . S
O1195 C1208 1.252 . S
C1196 O1185 1.284 . S
C1196 O1188 1.250 . S
C1197 H1166 0.929 . S
C1197 C1182 1.437 . S
C1197 C1198 1.317 . S
C1198 H1169 0.930 . S
C1198 C1174 1.431 . S
C1198 C1197 1.317 . S
C1199 Gd1140 2.828 . S
C1199 O1184 1.258 . S
C1199 O1189 1.252 . S
C1199 C1200 1.497 . S
C1200 C1199 1.497 . S
C1200 C1201 1.395 . S
C1200 C1202 1.380 . S
C1201 C1200 1.395 . S
C1201 C1204 1.398 . S
C1201 H1216 0.930 . S
C1202 C1200 1.380 . S
C1202 C1203 1.391 . S
C1202 H1217 0.930 . S
C1203 C1202 1.391 . S
C1203 C1205 1.387 . S
C1204 C1201 1.398 . S
C1204 C1205 1.380 . S
C1204 H1218 0.930 . S
C1205 C1203 1.387 . S
C1205 C1204 1.380 . S
C1205 H1219 0.930 . S
C1206 O1186 1.254 . S
C1206 O1187 1.268 . S
C1207 O1191 1.284 . S
C1207 O1194 1.250 . S
C1208 Gd1141 2.828 . S
C1208 O1190 1.258 . S
C1208 O1195 1.252 . S
C1208 C1209 1.497 . S
C1209 C1208 1.497 . S
C1209 C1210 1.395 . S
C1209 C1211 1.380 . S
C1210 C1209 1.395 . S
C1210 C1213 1.398 . S
C1210 H1220 0.930 . S
C1211 C1209 1.380 . S
C1211 C1212 1.391 . S
C1211 H1221 0.930 . S
C1212 C1211 1.391 . S
C1212 C1214 1.387 . S
C1213 C1210 1.398 . S
C1213 C1214 1.380 . S
C1213 H1222 0.930 . S
C1214 C1212 1.387 . S
C1214 C1213 1.380 . S
C1214 H1223 0.930 . S
C1215 O1192 1.254 . S
C1215 O1193 1.268 . S
H1216 C1201 0.930 . S
H1217 C1202 0.930 . S
H1218 C1204 0.930 . S
H1219 C1205 0.930 . S
H1220 C1210 0.930 . S
H1221 C1211 0.930 . S
H1222 C1213 0.930 . S
H1223 C1214 0.930 . S
Gd1224 N1255 2.661 . S
Gd1224 N1261 2.601 . S
Gd1224 O1268 2.545 . S
Gd1224 O1269 2.606 . S
Gd1224 O1271 2.429 . S
Gd1224 O1272 2.545 . S
Gd1224 O1273 2.412 . S
Gd1224 O1275 2.362 . S
Gd1224 O1276 2.324 . S
Gd1224 C1283 2.828 . S
Gd1225 N1234 2.661 . S
Gd1225 N1238 2.601 . S
Gd1225 O1269 2.362 . S
Gd1225 O1270 2.324 . S
Gd1225 O1274 2.545 . S
Gd1225 O1275 2.606 . S
Gd1225 O1277 2.429 . S
Gd1225 O1278 2.545 . S
Gd1225 O1279 2.412 . S
Gd1225 C1292 2.828 . S
C1226 C1229 1.417 . S
C1226 C1231 1.431 . S
C1226 C1232 1.412 . S
C1227 C1230 1.437 . S
C1227 C1231 1.317 . S
C1227 H1246 0.929 . S
C1228 C1229 1.426 . S
C1228 C1230 1.413 . S
C1228 N1238 1.359 . S
C1229 C1226 1.417 . S
C1229 C1228 1.426 . S
C1229 N1234 1.350 . S
C1230 C1227 1.437 . S
C1230 C1228 1.413 . S
C1230 C1240 1.391 . S
C1231 C1226 1.431 . S
C1231 C1227 1.317 . S
C1231 H1242 0.930 . S
C1232 C1226 1.412 . S
C1232 C1233 1.355 . S
C1232 H1244 0.930 . S
C1233 C1232 1.355 . S
C1233 C1235 1.402 . S
C1233 H1245 0.930 . S
N1234 Gd1225 2.661 . S
N1234 C1229 1.350 . S
N1234 C1235 1.307 . S
C1235 C1233 1.402 . S
C1235 N1234 1.307 . S
C1235 H1236 0.930 . S
H1236 C1235 0.930 . S
C1237 N1238 1.334 . S
C1237 C1239 1.394 . S
C1237 H1241 0.930 . S
N1238 Gd1225 2.601 . S
N1238 C1228 1.359 . S
N1238 C1237 1.334 . S
C1239 C1237 1.394 . S
C1239 C1240 1.359 . S
C1239 H1251 0.930 . S
C1240 C1230 1.391 . S
C1240 C1239 1.359 . S
C1240 H1252 0.929 . S
H1241 C1237 0.930 . S
H1242 C1231 0.930 . S
H1243 C1260 0.930 . S
H1244 C1232 0.930 . S
H1245 C1233 0.930 . S
H1246 C1227 0.929 . S
H1247 C1265 0.930 . S
H1248 C1256 0.930 . S
H1249 C1257 0.930 . S
H1250 C1281 0.929 . S
H1251 C1239 0.930 . S
H1252 C1240 0.929 . S
H1253 C1282 0.930 . S
H1254 C1263 0.930 . S
N1255 Gd1224 2.661 . S
N1255 C1259 1.350 . S
N1255 C1260 1.307 . S
C1256 H1248 0.930 . S
C1256 C1257 1.355 . S
C1256 C1258 1.412 . S
C1257 H1249 0.930 . S
C1257 C1256 1.355 . S
C1257 C1260 1.402 . S
C1258 C1256 1.412 . S
C1258 C1259 1.417 . S
C1258 C1282 1.431 . S
C1259 N1255 1.350 . S
C1259 C1258 1.417 . S
C1259 C1262 1.426 . S
C1260 H1243 0.930 . S
C1260 N1255 1.307 . S
C1260 C1257 1.402 . S
N1261 Gd1224 2.601 . S
N1261 C1262 1.359 . S
N1261 C1265 1.334 . S
C1262 C1259 1.426 . S
C1262 N1261 1.359 . S
C1262 C1266 1.413 . S
C1263 H1254 0.930 . S
C1263 C1264 1.359 . S
C1263 C1265 1.394 . S
C1264 C1263 1.359 . S
C1264 C1266 1.391 . S
C1264 H1267 0.929 . S
C1265 H1247 0.930 . S
C1265 N1261 1.334 . S
C1265 C1263 1.394 . S
C1266 C1262 1.413 . S
C1266 C1264 1.391 . S
C1266 C1281 1.437 . S
H1267 C1264 0.929 . S
O1268 Gd1224 2.545 . S
O1268 C1283 1.258 . S
O1269 Gd1224 2.606 . S
O1269 Gd1225 2.362 . S
O1269 C1280 1.284 . S
O1270 Gd1225 2.324 . S
O1270 C1290 1.254 . S
O1271 Gd1224 2.429 . S
O1271 C1290 1.268 . S
O1272 Gd1224 2.545 . S
O1272 C1280 1.250 . S
O1273 Gd1224 2.412 . S
O1273 C1283 1.252 . S
O1274 Gd1225 2.545 . S
O1274 C1292 1.258 . S
O1275 Gd1224 2.362 . S
O1275 Gd1225 2.606 . S
O1275 C1291 1.284 . S
O1276 Gd1224 2.324 . S
O1276 C1299 1.254 . S
O1277 Gd1225 2.429 . S
O1277 C1299 1.268 . S
O1278 Gd1225 2.545 . S
O1278 C1291 1.250 . S
O1279 Gd1225 2.412 . S
O1279 C1292 1.252 . S
C1280 O1269 1.284 . S
C1280 O1272 1.250 . S
C1281 H1250 0.929 . S
C1281 C1266 1.437 . S
C1281 C1282 1.317 . S
C1282 H1253 0.930 . S
C1282 C1258 1.431 . S
C1282 C1281 1.317 . S
C1283 Gd1224 2.828 . S
C1283 O1268 1.258 . S
C1283 O1273 1.252 . S
C1283 C1284 1.497 . S
C1284 C1283 1.497 . S
C1284 C1285 1.395 . S
C1284 C1286 1.380 . S
C1285 C1284 1.395 . S
C1285 C1288 1.398 . S
C1285 H1300 0.930 . S
C1286 C1284 1.380 . S
C1286 C1287 1.391 . S
C1286 H1301 0.930 . S
C1287 C1286 1.391 . S
C1287 C1289 1.387 . S
C1288 C1285 1.398 . S
C1288 C1289 1.380 . S
C1288 H1302 0.930 . S
C1289 C1287 1.387 . S
C1289 C1288 1.380 . S
C1289 H1303 0.930 . S
C1290 O1270 1.254 . S
C1290 O1271 1.268 . S
C1291 O1275 1.284 . S
C1291 O1278 1.250 . S
C1292 Gd1225 2.828 . S
C1292 O1274 1.258 . S
C1292 O1279 1.252 . S
C1292 C1293 1.497 . S
C1293 C1292 1.497 . S
C1293 C1294 1.395 . S
C1293 C1295 1.380 . S
C1294 C1293 1.395 . S
C1294 C1297 1.398 . S
C1294 H1304 0.930 . S
C1295 C1293 1.380 . S
C1295 C1296 1.391 . S
C1295 H1305 0.930 . S
C1296 C1295 1.391 . S
C1296 C1298 1.387 . S
C1297 C1294 1.398 . S
C1297 C1298 1.380 . S
C1297 H1306 0.930 . S
C1298 C1296 1.387 . S
C1298 C1297 1.380 . S
C1298 H1307 0.930 . S
C1299 O1276 1.254 . S
C1299 O1277 1.268 . S
H1300 C1285 0.930 . S
H1301 C1286 0.930 . S
H1302 C1288 0.930 . S
H1303 C1289 0.930 . S
H1304 C1294 0.930 . S
H1305 C1295 0.930 . S
H1306 C1297 0.930 . S
H1307 C1298 0.930 . S
Gd1308 N1339 2.661 . S
Gd1308 N1345 2.601 . S
Gd1308 O1352 2.545 . S
Gd1308 O1353 2.606 . S
Gd1308 O1355 2.429 . S
Gd1308 O1356 2.545 . S
Gd1308 O1357 2.412 . S
Gd1308 O1359 2.362 . S
Gd1308 O1360 2.324 . S
Gd1308 C1367 2.828 . S
Gd1309 N1318 2.661 . S
Gd1309 N1322 2.601 . S
Gd1309 O1353 2.362 . S
Gd1309 O1354 2.324 . S
Gd1309 O1358 2.545 . S
Gd1309 O1359 2.606 . S
Gd1309 O1361 2.429 . S
Gd1309 O1362 2.545 . S
Gd1309 O1363 2.412 . S
Gd1309 C1376 2.828 . S
C1310 C1313 1.417 . S
C1310 C1315 1.431 . S
C1310 C1316 1.412 . S
C1311 C1314 1.437 . S
C1311 C1315 1.317 . S
C1311 H1330 0.929 . S
C1312 C1313 1.426 . S
C1312 C1314 1.413 . S
C1312 N1322 1.359 . S
C1313 C1310 1.417 . S
C1313 C1312 1.426 . S
C1313 N1318 1.350 . S
C1314 C1311 1.437 . S
C1314 C1312 1.413 . S
C1314 C1324 1.391 . S
C1315 C1310 1.431 . S
C1315 C1311 1.317 . S
C1315 H1326 0.930 . S
C1316 C1310 1.412 . S
C1316 C1317 1.355 . S
C1316 H1328 0.930 . S
C1317 C1316 1.355 . S
C1317 C1319 1.402 . S
C1317 H1329 0.930 . S
N1318 Gd1309 2.661 . S
N1318 C1313 1.350 . S
N1318 C1319 1.307 . S
C1319 C1317 1.402 . S
C1319 N1318 1.307 . S
C1319 H1320 0.930 . S
H1320 C1319 0.930 . S
C1321 N1322 1.334 . S
C1321 C1323 1.394 . S
C1321 H1325 0.930 . S
N1322 Gd1309 2.601 . S
N1322 C1312 1.359 . S
N1322 C1321 1.334 . S
C1323 C1321 1.394 . S
C1323 C1324 1.359 . S
C1323 H1335 0.930 . S
C1324 C1314 1.391 . S
C1324 C1323 1.359 . S
C1324 H1336 0.929 . S
H1325 C1321 0.930 . S
H1326 C1315 0.930 . S
H1327 C1344 0.930 . S
H1328 C1316 0.930 . S
H1329 C1317 0.930 . S
H1330 C1311 0.929 . S
H1331 C1349 0.930 . S
H1332 C1340 0.930 . S
H1333 C1341 0.930 . S
H1334 C1365 0.929 . S
H1335 C1323 0.930 . S
H1336 C1324 0.929 . S
H1337 C1366 0.930 . S
H1338 C1347 0.930 . S
N1339 Gd1308 2.661 . S
N1339 C1343 1.350 . S
N1339 C1344 1.307 . S
C1340 H1332 0.930 . S
C1340 C1341 1.355 . S
C1340 C1342 1.412 . S
C1341 H1333 0.930 . S
C1341 C1340 1.355 . S
C1341 C1344 1.402 . S
C1342 C1340 1.412 . S
C1342 C1343 1.417 . S
C1342 C1366 1.431 . S
C1343 N1339 1.350 . S
C1343 C1342 1.417 . S
C1343 C1346 1.426 . S
C1344 H1327 0.930 . S
C1344 N1339 1.307 . S
C1344 C1341 1.402 . S
N1345 Gd1308 2.601 . S
N1345 C1346 1.359 . S
N1345 C1349 1.334 . S
C1346 C1343 1.426 . S
C1346 N1345 1.359 . S
C1346 C1350 1.413 . S
C1347 H1338 0.930 . S
C1347 C1348 1.359 . S
C1347 C1349 1.394 . S
C1348 C1347 1.359 . S
C1348 C1350 1.391 . S
C1348 H1351 0.929 . S
C1349 H1331 0.930 . S
C1349 N1345 1.334 . S
C1349 C1347 1.394 . S
C1350 C1346 1.413 . S
C1350 C1348 1.391 . S
C1350 C1365 1.437 . S
H1351 C1348 0.929 . S
O1352 Gd1308 2.545 . S
O1352 C1367 1.258 . S
O1353 Gd1308 2.606 . S
O1353 Gd1309 2.362 . S
O1353 C1364 1.284 . S
O1354 Gd1309 2.324 . S
O1354 C1374 1.254 . S
O1355 Gd1308 2.429 . S
O1355 C1374 1.268 . S
O1356 Gd1308 2.545 . S
O1356 C1364 1.250 . S
O1357 Gd1308 2.412 . S
O1357 C1367 1.252 . S
O1358 Gd1309 2.545 . S
O1358 C1376 1.258 . S
O1359 Gd1308 2.362 . S
O1359 Gd1309 2.606 . S
O1359 C1375 1.284 . S
O1360 Gd1308 2.324 . S
O1360 C1383 1.254 . S
O1361 Gd1309 2.429 . S
O1361 C1383 1.268 . S
O1362 Gd1309 2.545 . S
O1362 C1375 1.250 . S
O1363 Gd1309 2.412 . S
O1363 C1376 1.252 . S
C1364 O1353 1.284 . S
C1364 O1356 1.250 . S
C1365 H1334 0.929 . S
C1365 C1350 1.437 . S
C1365 C1366 1.317 . S
C1366 H1337 0.930 . S
C1366 C1342 1.431 . S
C1366 C1365 1.317 . S
C1367 Gd1308 2.828 . S
C1367 O1352 1.258 . S
C1367 O1357 1.252 . S
C1367 C1368 1.497 . S
C1368 C1367 1.497 . S
C1368 C1369 1.395 . S
C1368 C1370 1.380 . S
C1369 C1368 1.395 . S
C1369 C1372 1.398 . S
C1369 H1384 0.930 . S
C1370 C1368 1.380 . S
C1370 C1371 1.391 . S
C1370 H1385 0.930 . S
C1371 C1370 1.391 . S
C1371 C1373 1.387 . S
C1372 C1369 1.398 . S
C1372 C1373 1.380 . S
C1372 H1386 0.930 . S
C1373 C1371 1.387 . S
C1373 C1372 1.380 . S
C1373 H1387 0.930 . S
C1374 O1354 1.254 . S
C1374 O1355 1.268 . S
C1375 O1359 1.284 . S
C1375 O1362 1.250 . S
C1376 Gd1309 2.828 . S
C1376 O1358 1.258 . S
C1376 O1363 1.252 . S
C1376 C1377 1.497 . S
C1377 C1376 1.497 . S
C1377 C1378 1.395 . S
C1377 C1379 1.380 . S
C1378 C1377 1.395 . S
C1378 C1381 1.398 . S
C1378 H1388 0.930 . S
C1379 C1377 1.380 . S
C1379 C1380 1.391 . S
C1379 H1389 0.930 . S
C1380 C1379 1.391 . S
C1380 C1382 1.387 . S
C1381 C1378 1.398 . S
C1381 C1382 1.380 . S
C1381 H1390 0.930 . S
C1382 C1380 1.387 . S
C1382 C1381 1.380 . S
C1382 H1391 0.930 . S
C1383 O1360 1.254 . S
C1383 O1361 1.268 . S
H1384 C1369 0.930 . S
H1385 C1370 0.930 . S
H1386 C1372 0.930 . S
H1387 C1373 0.930 . S
H1388 C1378 0.930 . S
H1389 C1379 0.930 . S
H1390 C1381 0.930 . S
H1391 C1382 0.930 . S
Gd1392 N1423 2.661 . S
Gd1392 N1429 2.601 . S
Gd1392 O1436 2.545 . S
Gd1392 O1437 2.606 . S
Gd1392 O1439 2.429 . S
Gd1392 O1440 2.545 . S
Gd1392 O1441 2.412 . S
Gd1392 O1443 2.362 . S
Gd1392 O1444 2.324 . S
Gd1392 C1451 2.828 . S
Gd1393 N1402 2.661 . S
Gd1393 N1406 2.601 . S
Gd1393 O1437 2.362 . S
Gd1393 O1438 2.324 . S
Gd1393 O1442 2.545 . S
Gd1393 O1443 2.606 . S
Gd1393 O1445 2.429 . S
Gd1393 O1446 2.545 . S
Gd1393 O1447 2.412 . S
Gd1393 C1460 2.828 . S
C1394 C1397 1.417 . S
C1394 C1399 1.431 . S
C1394 C1400 1.412 . S
C1395 C1398 1.437 . S
C1395 C1399 1.317 . S
C1395 H1414 0.929 . S
C1396 C1397 1.426 . S
C1396 C1398 1.413 . S
C1396 N1406 1.359 . S
C1397 C1394 1.417 . S
C1397 C1396 1.426 . S
C1397 N1402 1.350 . S
C1398 C1395 1.437 . S
C1398 C1396 1.413 . S
C1398 C1408 1.391 . S
C1399 C1394 1.431 . S
C1399 C1395 1.317 . S
C1399 H1410 0.930 . S
C1400 C1394 1.412 . S
C1400 C1401 1.355 . S
C1400 H1412 0.930 . S
C1401 C1400 1.355 . S
C1401 C1403 1.402 . S
C1401 H1413 0.930 . S
N1402 Gd1393 2.661 . S
N1402 C1397 1.350 . S
N1402 C1403 1.307 . S
C1403 C1401 1.402 . S
C1403 N1402 1.307 . S
C1403 H1404 0.930 . S
H1404 C1403 0.930 . S
C1405 N1406 1.334 . S
C1405 C1407 1.394 . S
C1405 H1409 0.930 . S
N1406 Gd1393 2.601 . S
N1406 C1396 1.359 . S
N1406 C1405 1.334 . S
C1407 C1405 1.394 . S
C1407 C1408 1.359 . S
C1407 H1419 0.930 . S
C1408 C1398 1.391 . S
C1408 C1407 1.359 . S
C1408 H1420 0.929 . S
H1409 C1405 0.930 . S
H1410 C1399 0.930 . S
H1411 C1428 0.930 . S
H1412 C1400 0.930 . S
H1413 C1401 0.930 . S
H1414 C1395 0.929 . S
H1415 C1433 0.930 . S
H1416 C1424 0.930 . S
H1417 C1425 0.930 . S
H1418 C1449 0.929 . S
H1419 C1407 0.930 . S
H1420 C1408 0.929 . S
H1421 C1450 0.930 . S
H1422 C1431 0.930 . S
N1423 Gd1392 2.661 . S
N1423 C1427 1.350 . S
N1423 C1428 1.307 . S
C1424 H1416 0.930 . S
C1424 C1425 1.355 . S
C1424 C1426 1.412 . S
C1425 H1417 0.930 . S
C1425 C1424 1.355 . S
C1425 C1428 1.402 . S
C1426 C1424 1.412 . S
C1426 C1427 1.417 . S
C1426 C1450 1.431 . S
C1427 N1423 1.350 . S
C1427 C1426 1.417 . S
C1427 C1430 1.426 . S
C1428 H1411 0.930 . S
C1428 N1423 1.307 . S
C1428 C1425 1.402 . S
N1429 Gd1392 2.601 . S
N1429 C1430 1.359 . S
N1429 C1433 1.334 . S
C1430 C1427 1.426 . S
C1430 N1429 1.359 . S
C1430 C1434 1.413 . S
C1431 H1422 0.930 . S
C1431 C1432 1.359 . S
C1431 C1433 1.394 . S
C1432 C1431 1.359 . S
C1432 C1434 1.391 . S
C1432 H1435 0.929 . S
C1433 H1415 0.930 . S
C1433 N1429 1.334 . S
C1433 C1431 1.394 . S
C1434 C1430 1.413 . S
C1434 C1432 1.391 . S
C1434 C1449 1.437 . S
H1435 C1432 0.929 . S
O1436 Gd1392 2.545 . S
O1436 C1451 1.258 . S
O1437 Gd1392 2.606 . S
O1437 Gd1393 2.362 . S
O1437 C1448 1.284 . S
O1438 Gd1393 2.324 . S
O1438 C1458 1.254 . S
O1439 Gd1392 2.429 . S
O1439 C1458 1.268 . S
O1440 Gd1392 2.545 . S
O1440 C1448 1.250 . S
O1441 Gd1392 2.412 . S
O1441 C1451 1.252 . S
O1442 Gd1393 2.545 . S
O1442 C1460 1.258 . S
O1443 Gd1392 2.362 . S
O1443 Gd1393 2.606 . S
O1443 C1459 1.284 . S
O1444 Gd1392 2.324 . S
O1444 C1467 1.254 . S
O1445 Gd1393 2.429 . S
O1445 C1467 1.268 . S
O1446 Gd1393 2.545 . S
O1446 C1459 1.250 . S
O1447 Gd1393 2.412 . S
O1447 C1460 1.252 . S
C1448 O1437 1.284 . S
C1448 O1440 1.250 . S
C1449 H1418 0.929 . S
C1449 C1434 1.437 . S
C1449 C1450 1.317 . S
C1450 H1421 0.930 . S
C1450 C1426 1.431 . S
C1450 C1449 1.317 . S
C1451 Gd1392 2.828 . S
C1451 O1436 1.258 . S
C1451 O1441 1.252 . S
C1451 C1452 1.497 . S
C1452 C1451 1.497 . S
C1452 C1453 1.395 . S
C1452 C1454 1.380 . S
C1453 C1452 1.395 . S
C1453 C1456 1.398 . S
C1453 H1468 0.930 . S
C1454 C1452 1.380 . S
C1454 C1455 1.391 . S
C1454 H1469 0.930 . S
C1455 C1454 1.391 . S
C1455 C1457 1.387 . S
C1456 C1453 1.398 . S
C1456 C1457 1.380 . S
C1456 H1470 0.930 . S
C1457 C1455 1.387 . S
C1457 C1456 1.380 . S
C1457 H1471 0.930 . S
C1458 O1438 1.254 . S
C1458 O1439 1.268 . S
C1459 O1443 1.284 . S
C1459 O1446 1.250 . S
C1460 Gd1393 2.828 . S
C1460 O1442 1.258 . S
C1460 O1447 1.252 . S
C1460 C1461 1.497 . S
C1461 C1460 1.497 . S
C1461 C1462 1.395 . S
C1461 C1463 1.380 . S
C1462 C1461 1.395 . S
C1462 C1465 1.398 . S
C1462 H1472 0.930 . S
C1463 C1461 1.380 . S
C1463 C1464 1.391 . S
C1463 H1473 0.930 . S
C1464 C1463 1.391 . S
C1464 C1466 1.387 . S
C1465 C1462 1.398 . S
C1465 C1466 1.380 . S
C1465 H1474 0.930 . S
C1466 C1464 1.387 . S
C1466 C1465 1.380 . S
C1466 H1475 0.930 . S
C1467 O1444 1.254 . S
C1467 O1445 1.268 . S
H1468 C1453 0.930 . S
H1469 C1454 0.930 . S
H1470 C1456 0.930 . S
H1471 C1457 0.930 . S
H1472 C1462 0.930 . S
H1473 C1463 0.930 . S
H1474 C1465 0.930 . S
H1475 C1466 0.930 . S
H1476 C1494 0.951 . S
H1477 C1496 0.951 . S
H1478 C1498 0.950 . S
H1479 C1499 0.950 . S
H1480 C1501 0.950 . S
H1481 C1504 0.950 . S
H1482 C1505 0.950 . S
H1483 C1507 0.950 . S
H1484 C1508 0.950 . S
H1485 C1509 0.951 . S
H1486 C1511 0.951 . S
H1487 C1513 0.950 . S
H1488 C1514 0.950 . S
H1489 C1516 0.950 . S
H1490 C1519 0.950 . S
H1491 C1520 0.950 . S
H1492 C1522 0.954 . S
H1493 C1523 0.950 . S
C1494 H1476 0.951 . S
C1494 C1495 1.366 . S
C1494 C1496 1.388 . S
C1495 C1494 1.366 . S
C1495 C1499 1.385 . S
C1496 H1477 0.951 . S
C1496 C1494 1.388 . S
C1496 C1497 1.366 . S
C1497 C1496 1.366 . S
C1497 C1498 1.414 . S
C1497 C1500 1.499 . S
C1498 H1478 0.950 . S
C1498 C1497 1.414 . S
C1498 C1499 1.374 . S
C1499 H1479 0.950 . S
C1499 C1495 1.385 . S
C1499 C1498 1.374 . S
C1500 C1497 1.499 . S
C1500 C1501 1.373 . S
C1500 C1502 1.389 . S
C1501 H1480 0.950 . S
C1501 C1500 1.373 . S
C1501 C1517 1.377 . S
C1502 C1500 1.389 . S
C1502 C1503 1.524 . S
C1502 C1516 1.377 . S
C1503 C1502 1.524 . S
C1503 C1504 1.397 . S
C1503 C1508 1.363 . S
C1504 H1481 0.950 . S
C1504 C1503 1.397 . S
C1504 C1505 1.334 . S
C1505 H1482 0.950 . S
C1505 C1504 1.334 . S
C1505 C1506 1.287 . S
C1506 C1505 1.287 . S
C1506 C1507 1.524 . S
C1506 H1525 0.913 . S
C1507 H1483 0.950 . S
C1507 C1506 1.524 . S
C1507 C1508 1.415 . S
C1508 H1484 0.950 . S
C1508 C1503 1.363 . S
C1508 C1507 1.415 . S
C1509 H1485 0.951 . S
C1509 C1510 1.366 . S
C1509 C1511 1.388 . S
C1510 C1509 1.366 . S
C1510 C1514 1.385 . S
C1511 H1486 0.951 . S
C1511 C1509 1.388 . S
C1511 C1512 1.366 . S
C1512 C1511 1.366 . S
C1512 C1513 1.414 . S
C1512 C1515 1.499 . S
C1513 H1487 0.950 . S
C1513 C1512 1.414 . S
C1513 C1514 1.374 . S
C1514 H1488 0.950 . S
C1514 C1510 1.385 . S
C1514 C1513 1.374 . S
C1515 C1512 1.499 . S
C1515 C1516 1.373 . S
C1515 C1517 1.389 . S
C1516 H1489 0.950 . S
C1516 C1502 1.377 . S
C1516 C1515 1.373 . S
C1517 C1501 1.377 . S
C1517 C1515 1.389 . S
C1517 C1518 1.524 . S
C1518 C1517 1.524 . S
C1518 C1519 1.397 . S
C1518 C1523 1.363 . S
C1519 H1490 0.950 . S
C1519 C1518 1.397 . S
C1519 C1520 1.334 1_554 S
C1520 H1491 0.950 . S
C1520 C1519 1.334 1_556 S
C1520 C1521 1.287 . S
C1521 C1520 1.287 . S
C1521 C1522 1.540 . S
C1521 H1524 0.999 . S
C1522 H1492 0.954 . S
C1522 C1521 1.540 . S
C1522 C1523 1.394 1_556 S
C1523 H1493 0.950 . S
C1523 C1518 1.363 . S
C1523 C1522 1.394 1_554 S
H1524 C1521 0.999 . S
H1525 C1506 0.913 . S
H1526 C1544 0.951 . S
H1527 C1546 0.951 . S
H1528 C1548 0.950 . S
H1529 C1549 0.950 . S
H1530 C1551 0.950 . S
H1531 C1554 0.950 . S
H1532 C1555 0.950 . S
H1533 C1557 0.950 . S
H1534 C1558 0.950 . S
H1535 C1559 0.951 . S
H1536 C1561 0.951 . S
H1537 C1563 0.950 . S
H1538 C1564 0.950 . S
H1539 C1566 0.950 . S
H1540 C1569 0.950 . S
H1541 C1570 0.950 . S
H1542 C1572 0.950 . S
H1543 C1573 0.950 . S
C1544 H1526 0.951 . S
C1544 C1545 1.366 . S
C1544 C1546 1.388 . S
C1545 C1544 1.366 . S
C1545 C1549 1.385 . S
C1546 H1527 0.951 . S
C1546 C1544 1.388 . S
C1546 C1547 1.366 . S
C1547 C1546 1.366 . S
C1547 C1548 1.414 . S
C1547 C1550 1.499 . S
C1548 H1528 0.950 . S
C1548 C1547 1.414 . S
C1548 C1549 1.374 . S
C1549 H1529 0.950 . S
C1549 C1545 1.385 . S
C1549 C1548 1.374 . S
C1550 C1547 1.499 . S
C1550 C1551 1.373 . S
C1550 C1552 1.389 . S
C1551 H1530 0.950 . S
C1551 C1550 1.373 . S
C1551 C1567 1.377 . S
C1552 C1550 1.389 . S
C1552 C1553 1.524 . S
C1552 C1566 1.377 . S
C1553 C1552 1.524 . S
C1553 C1554 1.397 . S
C1553 C1558 1.363 . S
C1554 H1531 0.950 . S
C1554 C1553 1.397 . S
C1554 C1555 1.334 . S
C1555 H1532 0.950 . S
C1555 C1554 1.334 . S
C1555 C1556 1.287 . S
C1556 C1555 1.287 . S
C1556 C1557 1.524 . S
C1556 H1575 0.913 . S
C1557 H1533 0.950 . S
C1557 C1556 1.524 . S
C1557 C1558 1.415 . S
C1558 H1534 0.950 . S
C1558 C1553 1.363 . S
C1558 C1557 1.415 . S
C1559 H1535 0.951 . S
C1559 C1560 1.366 . S
C1559 C1561 1.388 . S
C1560 C1559 1.366 . S
C1560 C1564 1.385 . S
C1561 H1536 0.951 . S
C1561 C1559 1.388 . S
C1561 C1562 1.366 . S
C1562 C1561 1.366 . S
C1562 C1563 1.414 . S
C1562 C1565 1.499 . S
C1563 H1537 0.950 . S
C1563 C1562 1.414 . S
C1563 C1564 1.374 . S
C1564 H1538 0.950 . S
C1564 C1560 1.385 . S
C1564 C1563 1.374 . S
C1565 C1562 1.499 . S
C1565 C1566 1.373 . S
C1565 C1567 1.389 . S
C1566 H1539 0.950 . S
C1566 C1552 1.377 . S
C1566 C1565 1.373 . S
C1567 C1551 1.377 . S
C1567 C1565 1.389 . S
C1567 C1568 1.524 . S
C1568 C1567 1.524 . S
C1568 C1569 1.397 . S
C1568 C1573 1.363 . S
C1569 H1540 0.950 . S
C1569 C1568 1.397 . S
C1569 C1570 1.334 1_554 S
C1570 H1541 0.950 . S
C1570 C1569 1.334 1_556 S
C1570 C1571 1.287 . S
C1571 C1570 1.287 . S
C1571 C1572 1.524 . S
C1571 H1574 0.999 . S
C1572 H1542 0.950 . S
C1572 C1571 1.524 . S
C1572 C1573 1.415 1_556 S
C1573 H1543 0.950 . S
C1573 C1568 1.363 . S
C1573 C1572 1.415 1_554 S
H1574 C1571 0.999 . S
H1575 C1556 0.913 . S
H1576 C1594 0.951 . S
H1577 C1596 0.951 . S
H1578 C1598 0.950 . S
H1579 C1599 0.950 . S
H1580 C1601 0.950 . S
H1581 C1604 0.950 . S
H1582 C1605 0.950 . S
H1583 C1607 0.950 . S
H1584 C1608 0.950 . S
H1585 C1609 0.951 . S
H1586 C1611 0.951 . S
H1587 C1613 0.950 . S
H1588 C1614 0.950 . S
H1589 C1616 0.950 . S
H1590 C1619 0.950 . S
H1591 C1620 0.950 . S
H1592 C1622 0.950 . S
H1593 C1623 0.955 . S
C1594 H1576 0.951 . S
C1594 C1595 1.366 . S
C1594 C1596 1.388 . S
C1595 C1594 1.366 . S
C1595 C1599 1.385 . S
C1596 H1577 0.951 . S
C1596 C1594 1.388 . S
C1596 C1597 1.366 . S
C1597 C1596 1.366 . S
C1597 C1598 1.414 . S
C1597 C1600 1.499 . S
C1598 H1578 0.950 . S
C1598 C1597 1.414 . S
C1598 C1599 1.374 . S
C1599 H1579 0.950 . S
C1599 C1595 1.385 . S
C1599 C1598 1.374 . S
C1600 C1597 1.499 . S
C1600 C1601 1.373 . S
C1600 C1602 1.389 . S
C1601 H1580 0.950 . S
C1601 C1600 1.373 . S
C1601 C1617 1.377 . S
C1602 C1600 1.389 . S
C1602 C1603 1.524 . S
C1602 C1616 1.377 . S
C1603 C1602 1.524 . S
C1603 C1604 1.397 . S
C1603 C1608 1.363 . S
C1604 H1581 0.950 . S
C1604 C1603 1.397 . S
C1604 C1605 1.334 . S
C1605 H1582 0.950 . S
C1605 C1604 1.334 . S
C1605 C1606 1.287 . S
C1606 C1605 1.287 . S
C1606 C1607 1.524 . S
C1606 H1625 0.913 . S
C1607 H1583 0.950 . S
C1607 C1606 1.524 . S
C1607 C1608 1.415 . S
C1608 H1584 0.950 . S
C1608 C1603 1.363 . S
C1608 C1607 1.415 . S
C1609 H1585 0.951 . S
C1609 C1610 1.366 . S
C1609 C1611 1.388 . S
C1610 C1609 1.366 . S
C1610 C1614 1.385 . S
C1611 H1586 0.951 . S
C1611 C1609 1.388 . S
C1611 C1612 1.366 . S
C1612 C1611 1.366 . S
C1612 C1613 1.414 . S
C1612 C1615 1.499 . S
C1613 H1587 0.950 . S
C1613 C1612 1.414 . S
C1613 C1614 1.374 . S
C1614 H1588 0.950 . S
C1614 C1610 1.385 . S
C1614 C1613 1.374 . S
C1615 C1612 1.499 . S
C1615 C1616 1.373 . S
C1615 C1617 1.389 . S
C1616 H1589 0.950 . S
C1616 C1602 1.377 . S
C1616 C1615 1.373 . S
C1617 C1601 1.377 . S
C1617 C1615 1.389 . S
C1617 C1618 1.524 . S
C1618 C1617 1.524 . S
C1618 C1619 1.397 . S
C1618 C1623 1.370 . S
C1619 H1590 0.950 . S
C1619 C1618 1.397 . S
C1619 C1620 1.334 1_554 S
C1620 H1591 0.950 . S
C1620 C1619 1.334 1_556 S
C1620 C1621 1.287 . S
C1621 C1620 1.287 . S
C1621 C1622 1.524 . S
C1621 H1624 0.999 . S
C1622 H1592 0.950 . S
C1622 C1621 1.524 . S
C1622 C1623 1.403 1_556 S
C1623 H1593 0.955 . S
C1623 C1618 1.370 . S
C1623 C1622 1.403 1_554 S
H1624 C1621 0.999 . S
H1625 C1606 0.913 . S
H1626 C1644 0.951 . S
H1627 C1646 0.951 . S
H1628 C1648 0.950 . S
H1629 C1649 0.950 . S
H1630 C1651 0.950 . S
H1631 C1654 0.950 . S
H1632 C1655 0.950 . S
H1633 C1657 0.950 . S
H1634 C1658 0.950 . S
H1635 C1659 0.951 1_554 S
H1636 C1661 0.982 . S
H1637 C1663 0.950 . S
H1638 C1664 0.950 . S
H1639 C1666 0.950 . S
H1640 C1669 0.950 . S
H1641 C1670 0.950 . S
H1642 C1672 0.950 . S
H1643 C1673 0.953 1_554 S
C1644 H1626 0.951 . S
C1644 C1645 1.366 . S
C1644 C1646 1.388 . S
C1645 C1644 1.366 . S
C1645 C1649 1.385 . S
C1646 H1627 0.951 . S
C1646 C1644 1.388 . S
C1646 C1647 1.366 . S
C1647 C1646 1.366 . S
C1647 C1648 1.414 . S
C1647 C1650 1.499 . S
C1648 H1628 0.950 . S
C1648 C1647 1.414 . S
C1648 C1649 1.374 . S
C1649 H1629 0.950 . S
C1649 C1645 1.385 . S
C1649 C1648 1.374 . S
C1650 C1647 1.499 . S
C1650 C1651 1.373 . S
C1650 C1652 1.389 . S
C1651 H1630 0.950 . S
C1651 C1650 1.373 . S
C1651 C1667 1.377 . S
C1652 C1650 1.389 . S
C1652 C1653 1.524 . S
C1652 C1666 1.377 . S
C1653 C1652 1.524 . S
C1653 C1654 1.397 . S
C1653 C1658 1.363 . S
C1654 H1631 0.950 . S
C1654 C1653 1.397 . S
C1654 C1655 1.334 . S
C1655 H1632 0.950 . S
C1655 C1654 1.334 . S
C1655 C1656 1.287 . S
C1656 C1655 1.287 . S
C1656 C1657 1.524 . S
C1656 H1675 0.913 . S
C1657 H1633 0.950 . S
C1657 C1656 1.524 . S
C1657 C1658 1.415 . S
C1658 H1634 0.950 . S
C1658 C1653 1.363 . S
C1658 C1657 1.415 . S
C1659 H1635 0.951 1_556 S
C1659 C1660 1.366 . S
C1659 C1661 1.388 . S
C1660 C1659 1.366 . S
C1660 C1664 1.385 . S
C1661 H1636 0.982 . S
C1661 C1659 1.388 . S
C1661 C1662 1.366 . S
C1662 C1661 1.366 . S
C1662 C1663 1.414 . S
C1662 C1665 1.499 . S
C1663 H1637 0.950 . S
C1663 C1662 1.414 . S
C1663 C1664 1.374 . S
C1664 H1638 0.950 . S
C1664 C1660 1.385 . S
C1664 C1663 1.374 . S
C1665 C1662 1.499 . S
C1665 C1666 1.373 . S
C1665 C1667 1.389 . S
C1666 H1639 0.950 . S
C1666 C1652 1.377 . S
C1666 C1665 1.373 . S
C1667 C1651 1.377 . S
C1667 C1665 1.389 . S
C1667 C1668 1.524 . S
C1668 C1667 1.524 . S
C1668 C1669 1.397 . S
C1668 C1673 1.363 . S
C1669 H1640 0.950 . S
C1669 C1668 1.397 . S
C1669 C1670 1.334 . S
C1670 H1641 0.950 . S
C1670 C1669 1.334 . S
C1670 C1671 1.337 . S
C1671 C1670 1.337 . S
C1671 C1672 1.500 1_556 S
C1671 H1674 0.965 1_556 S
C1672 H1642 0.950 . S
C1672 C1671 1.500 1_554 S
C1672 C1673 1.415 1_554 S
C1673 H1643 0.953 1_556 S
C1673 C1668 1.363 . S
C1673 C1672 1.415 1_556 S
H1674 C1671 0.965 1_554 S
H1675 C1656 0.913 . S
H1676 C1694 0.951 . S
H1677 C1696 0.951 . S
H1678 C1698 0.950 . S
H1679 C1699 0.950 . S
H1680 C1701 0.950 . S
H1681 C1704 0.950 . S
H1682 C1705 0.950 . S
H1683 C1707 0.950 . S
H1684 C1708 0.950 . S
H1685 C1709 0.951 1_554 S
H1686 C1711 0.951 . S
H1687 C1713 0.950 . S
H1688 C1714 0.950 . S
H1689 C1716 0.950 . S
H1690 C1719 0.950 . S
H1691 C1720 0.950 . S
H1692 C1722 0.950 . S
H1693 C1723 0.950 . S
C1694 H1676 0.951 . S
C1694 C1695 1.366 . S
C1694 C1696 1.388 . S
C1695 C1694 1.366 . S
C1695 C1699 1.385 . S
C1696 H1677 0.951 . S
C1696 C1694 1.388 . S
C1696 C1697 1.366 . S
C1697 C1696 1.366 . S
C1697 C1698 1.414 . S
C1697 C1700 1.499 . S
C1698 H1678 0.950 . S
C1698 C1697 1.414 . S
C1698 C1699 1.374 . S
C1699 H1679 0.950 . S
C1699 C1695 1.385 . S
C1699 C1698 1.374 . S
C1700 C1697 1.499 . S
C1700 C1701 1.373 . S
C1700 C1702 1.389 . S
C1701 H1680 0.950 . S
C1701 C1700 1.373 . S
C1701 C1717 1.377 . S
C1702 C1700 1.389 . S
C1702 C1703 1.524 . S
C1702 C1716 1.377 . S
C1703 C1702 1.524 . S
C1703 C1704 1.397 . S
C1703 C1708 1.363 . S
C1704 H1681 0.950 . S
C1704 C1703 1.397 . S
C1704 C1705 1.334 . S
C1705 H1682 0.950 . S
C1705 C1704 1.334 . S
C1705 C1706 1.287 . S
C1706 C1705 1.287 . S
C1706 C1707 1.524 . S
C1706 H1725 0.913 . S
C1707 H1683 0.950 . S
C1707 C1706 1.524 . S
C1707 C1708 1.415 . S
C1708 H1684 0.950 . S
C1708 C1703 1.363 . S
C1708 C1707 1.415 . S
C1709 H1685 0.951 1_556 S
C1709 C1710 1.366 . S
C1709 C1711 1.388 . S
C1710 C1709 1.366 . S
C1710 C1714 1.385 . S
C1711 H1686 0.951 . S
C1711 C1709 1.388 . S
C1711 C1712 1.366 . S
C1712 C1711 1.366 . S
C1712 C1713 1.414 . S
C1712 C1715 1.499 . S
C1713 H1687 0.950 . S
C1713 C1712 1.414 . S
C1713 C1714 1.374 . S
C1714 H1688 0.950 . S
C1714 C1710 1.385 . S
C1714 C1713 1.374 . S
C1715 C1712 1.499 . S
C1715 C1716 1.373 . S
C1715 C1717 1.389 . S
C1716 H1689 0.950 . S
C1716 C1702 1.377 . S
C1716 C1715 1.373 . S
C1717 C1701 1.377 . S
C1717 C1715 1.389 . S
C1717 C1718 1.524 . S
C1718 C1717 1.524 . S
C1718 C1719 1.397 . S
C1718 C1723 1.363 . S
C1719 H1690 0.950 . S
C1719 C1718 1.397 . S
C1719 C1720 1.334 . S
C1720 H1691 0.950 . S
C1720 C1719 1.334 . S
C1720 C1721 1.287 . S
C1721 C1720 1.287 . S
C1721 C1722 1.524 . S
C1721 H1724 0.999 . S
C1722 H1692 0.950 . S
C1722 C1721 1.524 . S
C1722 C1723 1.415 . S
C1723 H1693 0.950 . S
C1723 C1718 1.363 . S
C1723 C1722 1.415 . S
H1724 C1721 0.999 . S
H1725 C1706 0.913 . S
H1726 C1744 0.951 . S
H1727 C1746 0.951 . S
H1728 C1748 0.950 . S
H1729 C1749 0.950 . S
H1730 C1751 0.950 . S
H1731 C1754 0.950 . S
H1732 C1755 0.950 . S
H1733 C1757 0.950 . S
H1734 C1758 0.950 . S
H1735 C1759 0.951 . S
H1736 C1761 0.951 . S
H1737 C1763 0.950 . S
H1738 C1764 0.950 1_554 S
H1739 C1766 0.950 . S
H1740 C1769 0.950 . S
H1741 C1770 0.950 1_554 S
H1742 C1772 0.950 . S
H1743 C1773 0.950 . S
C1744 H1726 0.951 . S
C1744 C1745 1.366 . S
C1744 C1746 1.388 . S
C1745 C1744 1.366 . S
C1745 C1749 1.385 . S
C1746 H1727 0.951 . S
C1746 C1744 1.388 . S
C1746 C1747 1.366 . S
C1747 C1746 1.366 . S
C1747 C1748 1.414 . S
C1747 C1750 1.499 . S
C1748 H1728 0.950 . S
C1748 C1747 1.414 . S
C1748 C1749 1.374 . S
C1749 H1729 0.950 . S
C1749 C1745 1.385 . S
C1749 C1748 1.374 . S
C1750 C1747 1.499 . S
C1750 C1751 1.373 . S
C1750 C1752 1.389 . S
C1751 H1730 0.950 . S
C1751 C1750 1.373 . S
C1751 C1767 1.377 . S
C1752 C1750 1.389 . S
C1752 C1753 1.524 . S
C1752 C1766 1.377 . S
C1753 C1752 1.524 . S
C1753 C1754 1.397 . S
C1753 C1758 1.363 . S
C1754 H1731 0.950 . S
C1754 C1753 1.397 . S
C1754 C1755 1.334 . S
C1755 H1732 0.950 . S
C1755 C1754 1.334 . S
C1755 C1756 1.287 . S
C1756 C1755 1.287 . S
C1756 C1757 1.524 . S
C1756 H1775 0.913 . S
C1757 H1733 0.950 . S
C1757 C1756 1.524 . S
C1757 C1758 1.415 . S
C1758 H1734 0.950 . S
C1758 C1753 1.363 . S
C1758 C1757 1.415 . S
C1759 H1735 0.951 . S
C1759 C1760 1.366 . S
C1759 C1761 1.388 . S
C1760 C1759 1.366 . S
C1760 C1764 1.385 . S
C1761 H1736 0.951 . S
C1761 C1759 1.388 . S
C1761 C1762 1.366 . S
C1762 C1761 1.366 . S
C1762 C1763 1.414 . S
C1762 C1765 1.499 . S
C1763 H1737 0.950 . S
C1763 C1762 1.414 . S
C1763 C1764 1.374 . S
C1764 H1738 0.950 1_556 S
C1764 C1760 1.385 . S
C1764 C1763 1.374 . S
C1765 C1762 1.499 . S
C1765 C1766 1.373 . S
C1765 C1767 1.389 . S
C1766 H1739 0.950 . S
C1766 C1752 1.377 . S
C1766 C1765 1.373 . S
C1767 C1751 1.377 . S
C1767 C1765 1.389 . S
C1767 C1768 1.524 . S
C1768 C1767 1.524 . S
C1768 C1769 1.397 . S
C1768 C1773 1.363 . S
C1769 H1740 0.950 . S
C1769 C1768 1.397 . S
C1769 C1770 1.334 . S
C1770 H1741 0.950 1_556 S
C1770 C1769 1.334 . S
C1770 C1771 1.287 . S
C1771 C1770 1.287 . S
C1771 C1772 1.524 . S
C1771 H1774 0.999 . S
C1772 H1742 0.950 . S
C1772 C1771 1.524 . S
C1772 C1773 1.415 . S
C1773 H1743 0.950 . S
C1773 C1768 1.363 . S
C1773 C1772 1.415 . S
H1774 C1771 0.999 . S
H1775 C1756 0.913 . S
H1776 C1794 0.951 . S
H1777 C1796 0.951 . S
H1778 C1798 0.950 . S
H1779 C1799 0.950 . S
H1780 C1801 0.950 . S
H1781 C1804 0.950 . S
H1782 C1805 0.950 . S
H1783 C1807 0.950 . S
H1784 C1808 0.950 . S
H1785 C1809 0.951 . S
H1786 C1811 0.951 . S
H1787 C1813 0.950 . S
H1788 C1814 0.950 . S
H1789 C1816 0.950 . S
H1790 C1819 0.950 . S
H1791 C1820 0.950 . S
H1792 C1822 0.950 . S
H1793 C1823 0.950 . S
C1794 H1776 0.951 . S
C1794 C1795 1.366 . S
C1794 C1796 1.388 . S
C1795 C1794 1.366 . S
C1795 C1799 1.385 . S
C1796 H1777 0.951 . S
C1796 C1794 1.388 . S
C1796 C1797 1.366 . S
C1797 C1796 1.366 . S
C1797 C1798 1.414 . S
C1797 C1800 1.499 . S
C1798 H1778 0.950 . S
C1798 C1797 1.414 . S
C1798 C1799 1.374 . S
C1799 H1779 0.950 . S
C1799 C1795 1.385 . S
C1799 C1798 1.374 . S
C1800 C1797 1.499 . S
C1800 C1801 1.373 . S
C1800 C1802 1.389 . S
C1801 H1780 0.950 . S
C1801 C1800 1.373 . S
C1801 C1817 1.377 . S
C1802 C1800 1.389 . S
C1802 C1803 1.524 . S
C1802 C1816 1.377 . S
C1803 C1802 1.524 . S
C1803 C1804 1.397 . S
C1803 C1808 1.363 . S
C1804 H1781 0.950 . S
C1804 C1803 1.397 . S
C1804 C1805 1.334 . S
C1805 H1782 0.950 . S
C1805 C1804 1.334 . S
C1805 C1806 1.287 . S
C1806 C1805 1.287 . S
C1806 C1807 1.524 . S
C1806 H1825 0.913 . S
C1807 H1783 0.950 . S
C1807 C1806 1.524 . S
C1807 C1808 1.415 . S
C1808 H1784 0.950 . S
C1808 C1803 1.363 . S
C1808 C1807 1.415 . S
C1809 H1785 0.951 . S
C1809 C1810 1.366 . S
C1809 C1811 1.388 . S
C1810 C1809 1.366 . S
C1810 C1814 1.385 . S
C1811 H1786 0.951 . S
C1811 C1809 1.388 . S
C1811 C1812 1.366 . S
C1812 C1811 1.366 . S
C1812 C1813 1.414 . S
C1812 C1815 1.499 . S
C1813 H1787 0.950 . S
C1813 C1812 1.414 . S
C1813 C1814 1.374 . S
C1814 H1788 0.950 . S
C1814 C1810 1.385 . S
C1814 C1813 1.374 . S
C1815 C1812 1.499 . S
C1815 C1816 1.373 . S
C1815 C1817 1.389 . S
C1816 H1789 0.950 . S
C1816 C1802 1.377 . S
C1816 C1815 1.373 . S
C1817 C1801 1.377 . S
C1817 C1815 1.389 . S
C1817 C1818 1.524 . S
C1818 C1817 1.524 . S
C1818 C1819 1.397 . S
C1818 C1823 1.363 . S
C1819 H1790 0.950 . S
C1819 C1818 1.397 . S
C1819 C1820 1.334 . S
C1820 H1791 0.950 . S
C1820 C1819 1.334 . S
C1820 C1821 1.287 . S
C1821 C1820 1.287 . S
C1821 C1822 1.524 . S
C1821 H1824 0.999 . S
C1822 H1792 0.950 . S
C1822 C1821 1.524 . S
C1822 C1823 1.415 . S
C1823 H1793 0.950 . S
C1823 C1818 1.363 . S
C1823 C1822 1.415 . S
H1824 C1821 0.999 . S
H1825 C1806 0.913 . S
H1826 C1844 0.951 . S
H1827 C1846 0.951 . S
H1828 C1848 0.950 . S
H1829 C1849 0.950 . S
H1830 C1851 0.950 . S
H1831 C1854 0.950 . S
H1832 C1855 0.950 . S
H1833 C1857 0.950 . S
H1834 C1858 0.953 . S
H1835 C1859 0.951 . S
H1836 C1861 0.951 . S
H1837 C1863 0.950 . S
H1838 C1864 0.950 1_554 S
H1839 C1866 0.950 . S
H1840 C1869 0.950 . S
H1841 C1870 0.950 . S
H1842 C1872 0.950 . S
H1843 C1873 0.950 . S
C1844 H1826 0.951 . S
C1844 C1845 1.366 . S
C1844 C1846 1.388 . S
C1845 C1844 1.366 . S
C1845 C1849 1.385 . S
C1846 H1827 0.951 . S
C1846 C1844 1.388 . S
C1846 C1847 1.366 . S
C1847 C1846 1.366 . S
C1847 C1848 1.414 . S
C1847 C1850 1.499 . S
C1848 H1828 0.950 . S
C1848 C1847 1.414 . S
C1848 C1849 1.374 . S
C1849 H1829 0.950 . S
C1849 C1845 1.385 . S
C1849 C1848 1.374 . S
C1850 C1847 1.499 . S
C1850 C1851 1.373 . S
C1850 C1852 1.389 . S
C1851 H1830 0.950 . S
C1851 C1850 1.373 . S
C1851 C1867 1.377 . S
C1852 C1850 1.389 . S
C1852 C1853 1.524 . S
C1852 C1866 1.377 . S
C1853 C1852 1.524 . S
C1853 C1854 1.397 . S
C1853 C1858 1.363 . S
C1854 H1831 0.950 . S
C1854 C1853 1.397 . S
C1854 C1855 1.334 . S
C1855 H1832 0.950 . S
C1855 C1854 1.334 . S
C1855 C1856 1.287 . S
C1856 C1855 1.287 . S
C1856 C1857 1.524 1_556 S
C1856 H1875 0.913 . S
C1857 H1833 0.950 . S
C1857 C1856 1.524 1_554 S
C1857 C1858 1.415 1_554 S
C1858 H1834 0.953 . S
C1858 C1853 1.363 . S
C1858 C1857 1.415 1_556 S
C1859 H1835 0.951 . S
C1859 C1860 1.366 . S
C1859 C1861 1.388 . S
C1860 C1859 1.366 . S
C1860 C1864 1.385 . S
C1861 H1836 0.951 . S
C1861 C1859 1.388 . S
C1861 C1862 1.366 . S
C1862 C1861 1.366 . S
C1862 C1863 1.414 . S
C1862 C1865 1.499 . S
C1863 H1837 0.950 . S
C1863 C1862 1.414 . S
C1863 C1864 1.374 . S
C1864 H1838 0.950 1_556 S
C1864 C1860 1.385 . S
C1864 C1863 1.374 . S
C1865 C1862 1.499 . S
C1865 C1866 1.373 . S
C1865 C1867 1.389 . S
C1866 H1839 0.950 . S
C1866 C1852 1.377 . S
C1866 C1865 1.373 . S
C1867 C1851 1.377 . S
C1867 C1865 1.389 . S
C1867 C1868 1.524 . S
C1868 C1867 1.524 . S
C1868 C1869 1.397 . S
C1868 C1873 1.363 . S
C1869 H1840 0.950 . S
C1869 C1868 1.397 . S
C1869 C1870 1.334 . S
C1870 H1841 0.950 . S
C1870 C1869 1.334 . S
C1870 C1871 1.287 . S
C1871 C1870 1.287 . S
C1871 C1872 1.524 . S
C1871 H1874 0.999 . S
C1872 H1842 0.950 . S
C1872 C1871 1.524 . S
C1872 C1873 1.415 . S
C1873 H1843 0.950 . S
C1873 C1868 1.363 . S
C1873 C1872 1.415 . S
H1874 C1871 0.999 . S
H1875 C1856 0.913 . S
H1876 C1894 0.951 . S
H1877 C1896 0.951 . S
H1878 C1898 0.950 . S
H1879 C1899 0.950 . S
H1880 C1901 0.950 . S
H1881 C1904 0.950 . S
H1882 C1905 0.965 . S
H1883 C1907 0.936 1_554 S
H1884 C1908 0.950 . S
H1885 C1909 0.951 . S
H1886 C1911 0.951 . S
H1887 C1913 0.950 . S
H1888 C1914 0.950 . S
H1889 C1916 0.950 . S
H1890 C1919 0.950 . S
H1891 C1920 0.950 . S
H1892 C1922 0.950 . S
H1893 C1923 0.950 . S
C1894 H1876 0.951 . S
C1894 C1895 1.366 . S
C1894 C1896 1.388 . S
C1895 C1894 1.366 . S
C1895 C1899 1.385 . S
C1896 H1877 0.951 . S
C1896 C1894 1.388 . S
C1896 C1897 1.366 . S
C1897 C1896 1.366 . S
C1897 C1898 1.414 . S
C1897 C1900 1.499 . S
C1898 H1878 0.950 . S
C1898 C1897 1.414 . S
C1898 C1899 1.374 . S
C1899 H1879 0.950 . S
C1899 C1895 1.385 . S
C1899 C1898 1.374 . S
C1900 C1897 1.499 . S
C1900 C1901 1.373 . S
C1900 C1902 1.389 . S
C1901 H1880 0.950 . S
C1901 C1900 1.373 . S
C1901 C1917 1.377 . S
C1902 C1900 1.389 . S
C1902 C1903 1.524 . S
C1902 C1916 1.377 . S
C1903 C1902 1.524 . S
C1903 C1904 1.397 . S
C1903 C1908 1.363 . S
C1904 H1881 0.950 . S
C1904 C1903 1.397 . S
C1904 C1905 1.309 1_556 S
C1905 H1882 0.965 . S
C1905 C1904 1.309 1_554 S
C1905 C1906 1.299 . S
C1906 C1905 1.299 . S
C1906 C1907 1.505 1_554 S
C1906 H1925 0.913 . S
C1907 H1883 0.936 1_556 S
C1907 C1906 1.505 1_556 S
C1907 C1908 1.453 . S
C1908 H1884 0.950 . S
C1908 C1903 1.363 . S
C1908 C1907 1.453 . S
C1909 H1885 0.951 . S
C1909 C1910 1.366 . S
C1909 C1911 1.388 . S
C1910 C1909 1.366 . S
C1910 C1914 1.385 . S
C1911 H1886 0.951 . S
C1911 C1909 1.388 . S
C1911 C1912 1.366 . S
C1912 C1911 1.366 . S
C1912 C1913 1.414 . S
C1912 C1915 1.499 . S
C1913 H1887 0.950 . S
C1913 C1912 1.414 . S
C1913 C1914 1.374 . S
C1914 H1888 0.950 . S
C1914 C1910 1.385 . S
C1914 C1913 1.374 . S
C1915 C1912 1.499 . S
C1915 C1916 1.373 . S
C1915 C1917 1.389 . S
C1916 H1889 0.950 . S
C1916 C1902 1.377 . S
C1916 C1915 1.373 . S
C1917 C1901 1.377 . S
C1917 C1915 1.389 . S
C1917 C1918 1.524 . S
C1918 C1917 1.524 . S
C1918 C1919 1.397 . S
C1918 C1923 1.363 . S
C1919 H1890 0.950 . S
C1919 C1918 1.397 . S
C1919 C1920 1.334 . S
C1920 H1891 0.950 . S
C1920 C1919 1.334 . S
C1920 C1921 1.287 . S
C1921 C1920 1.287 . S
C1921 C1922 1.524 . S
C1921 H1924 0.999 . S
C1922 H1892 0.950 . S
C1922 C1921 1.524 . S
C1922 C1923 1.415 . S
C1923 H1893 0.950 . S
C1923 C1918 1.363 . S
C1923 C1922 1.415 . S
H1924 C1921 0.999 . S
H1925 C1906 0.913 . S
H1926 C1944 0.951 . S
H1927 C1946 0.951 . S
H1928 C1948 0.950 . S
H1929 C1949 0.950 . S
H1930 C1951 0.950 . S
H1931 C1954 0.950 . S
H1932 C1955 0.950 . S
H1933 C1957 0.950 . S
H1934 C1958 0.950 . S
H1935 C1959 0.951 . S
H1936 C1961 0.951 . S
H1937 C1963 0.950 . S
H1938 C1964 0.950 . S
H1939 C1966 0.950 . S
H1940 C1969 0.950 . S
H1941 C1970 0.950 . S
H1942 C1972 0.950 . S
H1943 C1973 0.950 . S
C1944 H1926 0.951 . S
C1944 C1945 1.366 . S
C1944 C1946 1.388 . S
C1945 C1944 1.366 . S
C1945 C1949 1.385 . S
C1946 H1927 0.951 . S
C1946 C1944 1.388 . S
C1946 C1947 1.366 . S
C1947 C1946 1.366 . S
C1947 C1948 1.414 . S
C1947 C1950 1.499 . S
C1948 H1928 0.950 . S
C1948 C1947 1.414 . S
C1948 C1949 1.374 . S
C1949 H1929 0.950 . S
C1949 C1945 1.385 . S
C1949 C1948 1.374 . S
C1950 C1947 1.499 . S
C1950 C1951 1.373 . S
C1950 C1952 1.389 . S
C1951 H1930 0.950 . S
C1951 C1950 1.373 . S
C1951 C1967 1.377 . S
C1952 C1950 1.389 . S
C1952 C1953 1.524 . S
C1952 C1966 1.377 . S
C1953 C1952 1.524 . S
C1953 C1954 1.397 . S
C1953 C1958 1.363 . S
C1954 H1931 0.950 . S
C1954 C1953 1.397 . S
C1954 C1955 1.334 . S
C1955 H1932 0.950 . S
C1955 C1954 1.334 . S
C1955 C1956 1.287 . S
C1956 C1955 1.287 . S
C1956 C1957 1.524 . S
C1956 H1975 0.917 1_554 S
C1957 H1933 0.950 . S
C1957 C1956 1.524 . S
C1957 C1958 1.415 . S
C1958 H1934 0.950 . S
C1958 C1953 1.363 . S
C1958 C1957 1.415 . S
C1959 H1935 0.951 . S
C1959 C1960 1.366 . S
C1959 C1961 1.388 . S
C1960 C1959 1.366 . S
C1960 C1964 1.385 . S
C1961 H1936 0.951 . S
C1961 C1959 1.388 . S
C1961 C1962 1.366 . S
C1962 C1961 1.366 . S
C1962 C1963 1.414 . S
C1962 C1965 1.499 . S
C1963 H1937 0.950 . S
C1963 C1962 1.414 . S
C1963 C1964 1.374 . S
C1964 H1938 0.950 . S
C1964 C1960 1.385 . S
C1964 C1963 1.374 . S
C1965 C1962 1.499 . S
C1965 C1966 1.373 . S
C1965 C1967 1.389 . S
C1966 H1939 0.950 . S
C1966 C1952 1.377 . S
C1966 C1965 1.373 . S
C1967 C1951 1.377 . S
C1967 C1965 1.389 . S
C1967 C1968 1.524 . S
C1968 C1967 1.524 . S
C1968 C1969 1.397 . S
C1968 C1973 1.363 . S
C1969 H1940 0.950 . S
C1969 C1968 1.397 . S
C1969 C1970 1.334 . S
C1970 H1941 0.950 . S
C1970 C1969 1.334 . S
C1970 C1971 1.287 . S
C1971 C1970 1.287 . S
C1971 C1972 1.524 . S
C1971 H1974 0.999 . S
C1972 H1942 0.950 . S
C1972 C1971 1.524 . S
C1972 C1973 1.415 . S
C1973 H1943 0.950 . S
C1973 C1968 1.363 . S
C1973 C1972 1.415 . S
H1974 C1971 0.999 . S
H1975 C1956 0.917 1_556 S
H1976 C1994 0.951 . S
H1977 C1996 0.951 . S
H1978 C1998 0.950 . S
H1979 C1999 0.950 . S
H1980 C2001 0.950 . S
H1981 C2004 0.950 . S
H1982 C2005 0.950 . S
H1983 C2007 0.959 1_556 S
H1984 C2008 0.950 . S
H1985 C2009 0.951 . S
H1986 C2011 0.951 . S
H1987 C2013 0.950 . S
H1988 C2014 1.023 . S
H1989 C2016 0.950 . S
H1990 C2019 0.950 . S
H1991 C2020 0.950 . S
H1992 C2022 0.950 . S
H1993 C2023 0.950 . S
C1994 H1976 0.951 . S
C1994 C1995 1.366 . S
C1994 C1996 1.388 . S
C1995 C1994 1.366 . S
C1995 C1999 1.385 . S
C1996 H1977 0.951 . S
C1996 C1994 1.388 . S
C1996 C1997 1.366 . S
C1997 C1996 1.366 . S
C1997 C1998 1.414 . S
C1997 C2000 1.499 . S
C1998 H1978 0.950 . S
C1998 C1997 1.414 . S
C1998 C1999 1.374 . S
C1999 H1979 0.950 . S
C1999 C1995 1.385 . S
C1999 C1998 1.374 . S
C2000 C1997 1.499 . S
C2000 C2001 1.373 . S
C2000 C2002 1.389 . S
C2001 H1980 0.950 . S
C2001 C2000 1.373 . S
C2001 C2017 1.377 . S
C2002 C2000 1.389 . S
C2002 C2003 1.524 . S
C2002 C2016 1.377 . S
C2003 C2002 1.524 . S
C2003 C2004 1.397 . S
C2003 C2008 1.363 . S
C2004 H1981 0.950 . S
C2004 C2003 1.397 . S
C2004 C2005 1.334 . S
C2005 H1982 0.950 . S
C2005 C2004 1.334 . S
C2005 C2006 1.287 . S
C2006 C2005 1.287 . S
C2006 C2007 1.524 . S
C2006 H2025 0.913 . S
C2007 H1983 0.959 1_554 S
C2007 C2006 1.524 . S
C2007 C2008 1.415 . S
C2008 H1984 0.950 . S
C2008 C2003 1.363 . S
C2008 C2007 1.415 . S
C2009 H1985 0.951 . S
C2009 C2010 1.366 . S
C2009 C2011 1.388 . S
C2010 C2009 1.366 . S
C2010 C2014 1.385 . S
C2011 H1986 0.951 . S
C2011 C2009 1.388 . S
C2011 C2012 1.366 . S
C2012 C2011 1.366 . S
C2012 C2013 1.414 . S
C2012 C2015 1.499 . S
C2013 H1987 0.950 . S
C2013 C2012 1.414 . S
C2013 C2014 1.374 . S
C2014 H1988 1.023 . S
C2014 C2010 1.385 . S
C2014 C2013 1.374 . S
C2015 C2012 1.499 . S
C2015 C2016 1.373 . S
C2015 C2017 1.389 . S
C2016 H1989 0.950 . S
C2016 C2002 1.377 . S
C2016 C2015 1.373 . S
C2017 C2001 1.377 . S
C2017 C2015 1.389 . S
C2017 C2018 1.524 . S
C2018 C2017 1.524 . S
C2018 C2019 1.397 . S
C2018 C2023 1.363 . S
C2019 H1990 0.950 . S
C2019 C2018 1.397 . S
C2019 C2020 1.334 . S
C2020 H1991 0.950 . S
C2020 C2019 1.334 . S
C2020 C2021 1.287 . S
C2021 C2020 1.287 . S
C2021 C2022 1.524 . S
C2021 H2024 0.999 . S
C2022 H1992 0.950 . S
C2022 C2021 1.524 . S
C2022 C2023 1.415 . S
C2023 H1993 0.950 . S
C2023 C2018 1.363 . S
C2023 C2022 1.415 . S
H2024 C2021 0.999 . S
H2025 C2006 0.913 . S
H2026 C2044 0.951 . S
H2027 C2046 0.951 . S
H2028 C2048 0.950 . S
H2029 C2049 0.950 . S
H2030 C2051 0.950 . S
H2031 C2054 0.950 . S
H2032 C2055 0.950 . S
H2033 C2057 0.950 . S
H2034 C2058 0.950 . S
H2035 C2059 0.951 . S
H2036 C2061 0.951 . S
H2037 C2063 0.950 . S
H2038 C2064 0.950 . S
H2039 C2066 0.950 . S
H2040 C2069 0.950 . S
H2041 C2070 0.950 1_556 S
H2042 C2072 0.950 . S
H2043 C2073 0.950 . S
C2044 H2026 0.951 . S
C2044 C2045 1.366 . S
C2044 C2046 1.388 . S
C2045 C2044 1.366 . S
C2045 C2049 1.385 . S
C2046 H2027 0.951 . S
C2046 C2044 1.388 . S
C2046 C2047 1.366 . S
C2047 C2046 1.366 . S
C2047 C2048 1.414 . S
C2047 C2050 1.499 . S
C2048 H2028 0.950 . S
C2048 C2047 1.414 . S
C2048 C2049 1.374 . S
C2049 H2029 0.950 . S
C2049 C2045 1.385 . S
C2049 C2048 1.374 . S
C2050 C2047 1.499 . S
C2050 C2051 1.373 . S
C2050 C2052 1.389 . S
C2051 H2030 0.950 . S
C2051 C2050 1.373 . S
C2051 C2067 1.377 . S
C2052 C2050 1.389 . S
C2052 C2053 1.524 . S
C2052 C2066 1.377 . S
C2053 C2052 1.524 . S
C2053 C2054 1.397 . S
C2053 C2058 1.363 . S
C2054 H2031 0.950 . S
C2054 C2053 1.397 . S
C2054 C2055 1.334 . S
C2055 H2032 0.950 . S
C2055 C2054 1.334 . S
C2055 C2056 1.287 . S
C2056 C2055 1.287 . S
C2056 C2057 1.524 . S
C2056 H2075 0.913 . S
C2057 H2033 0.950 . S
C2057 C2056 1.524 . S
C2057 C2058 1.415 . S
C2058 H2034 0.950 . S
C2058 C2053 1.363 . S
C2058 C2057 1.415 . S
C2059 H2035 0.951 . S
C2059 C2060 1.366 . S
C2059 C2061 1.388 . S
C2060 C2059 1.366 . S
C2060 C2064 1.385 . S
C2061 H2036 0.951 . S
C2061 C2059 1.388 . S
C2061 C2062 1.366 . S
C2062 C2061 1.366 . S
C2062 C2063 1.414 . S
C2062 C2065 1.499 . S
C2063 H2037 0.950 . S
C2063 C2062 1.414 . S
C2063 C2064 1.374 . S
C2064 H2038 0.950 . S
C2064 C2060 1.385 . S
C2064 C2063 1.374 . S
C2065 C2062 1.499 . S
C2065 C2066 1.373 . S
C2065 C2067 1.389 . S
C2066 H2039 0.950 . S
C2066 C2052 1.377 . S
C2066 C2065 1.373 . S
C2067 C2051 1.377 . S
C2067 C2065 1.389 . S
C2067 C2068 1.524 . S
C2068 C2067 1.524 . S
C2068 C2069 1.397 . S
C2068 C2073 1.363 . S
C2069 H2040 0.950 . S
C2069 C2068 1.397 . S
C2069 C2070 1.334 . S
C2070 H2041 0.950 1_554 S
C2070 C2069 1.334 . S
C2070 C2071 1.287 . S
C2071 C2070 1.287 . S
C2071 C2072 1.524 . S
C2071 H2074 0.999 . S
C2072 H2042 0.950 . S
C2072 C2071 1.524 . S
C2072 C2073 1.415 . S
C2073 H2043 0.950 . S
C2073 C2068 1.363 . S
C2073 C2072 1.415 . S
H2074 C2071 0.999 . S
H2075 C2056 0.913 . S
H2076 C2094 0.951 . S
H2077 C2096 0.950 1_455 S
H2078 C2098 0.950 . S
H2079 C2099 0.950 . S
H2080 C2101 0.950 . S
H2081 C2104 0.950 . S
H2082 C2105 0.950 . S
H2083 C2107 0.950 . S
H2084 C2108 0.950 . S
H2085 C2109 0.951 . S
H2086 C2111 0.951 . S
H2087 C2113 0.950 . S
H2088 C2114 0.950 . S
H2089 C2116 0.950 . S
H2090 C2119 0.950 . S
H2091 C2120 0.950 . S
H2092 C2122 0.950 . S
H2093 C2123 0.950 . S
C2094 H2076 0.951 . S
C2094 C2095 1.366 . S
C2094 C2096 1.388 . S
C2095 C2094 1.366 . S
C2095 C2099 1.385 . S
C2096 H2077 0.950 1_655 S
C2096 C2094 1.388 . S
C2096 C2097 1.366 1_655 S
C2097 C2096 1.366 1_455 S
C2097 C2098 1.414 . S
C2097 C2100 1.499 . S
C2098 H2078 0.950 . S
C2098 C2097 1.414 . S
C2098 C2099 1.374 1_455 S
C2099 H2079 0.950 . S
C2099 C2095 1.385 . S
C2099 C2098 1.374 1_655 S
C2100 C2097 1.499 . S
C2100 C2101 1.373 . S
C2100 C2102 1.389 . S
C2101 H2080 0.950 . S
C2101 C2100 1.373 . S
C2101 C2117 1.377 . S
C2102 C2100 1.389 . S
C2102 C2103 1.524 . S
C2102 C2116 1.377 . S
C2103 C2102 1.524 . S
C2103 C2104 1.397 . S
C2103 C2108 1.363 . S
C2104 H2081 0.950 . S
C2104 C2103 1.397 . S
C2104 C2105 1.334 . S
C2105 H2082 0.950 . S
C2105 C2104 1.334 . S
C2105 C2106 1.287 . S
C2106 C2105 1.287 . S
C2106 C2107 1.524 . S
C2106 H2125 0.913 . S
C2107 H2083 0.950 . S
C2107 C2106 1.524 . S
C2107 C2108 1.415 . S
C2108 H2084 0.950 . S
C2108 C2103 1.363 . S
C2108 C2107 1.415 . S
C2109 H2085 0.951 . S
C2109 C2110 1.366 . S
C2109 C2111 1.388 . S
C2110 C2109 1.366 . S
C2110 C2114 1.385 . S
C2111 H2086 0.951 . S
C2111 C2109 1.388 . S
C2111 C2112 1.366 . S
C2112 C2111 1.366 . S
C2112 C2113 1.414 . S
C2112 C2115 1.499 . S
C2113 H2087 0.950 . S
C2113 C2112 1.414 . S
C2113 C2114 1.374 . S
C2114 H2088 0.950 . S
C2114 C2110 1.385 . S
C2114 C2113 1.374 . S
C2115 C2112 1.499 . S
C2115 C2116 1.373 . S
C2115 C2117 1.389 . S
C2116 H2089 0.950 . S
C2116 C2102 1.377 . S
C2116 C2115 1.373 . S
C2117 C2101 1.377 . S
C2117 C2115 1.389 . S
C2117 C2118 1.524 . S
C2118 C2117 1.524 . S
C2118 C2119 1.397 . S
C2118 C2123 1.363 . S
C2119 H2090 0.950 . S
C2119 C2118 1.397 . S
C2119 C2120 1.334 . S
C2120 H2091 0.950 . S
C2120 C2119 1.334 . S
C2120 C2121 1.287 . S
C2121 C2120 1.287 . S
C2121 C2122 1.524 . S
C2121 H2124 0.999 . S
C2122 H2092 0.950 . S
C2122 C2121 1.524 . S
C2122 C2123 1.415 . S
C2123 H2093 0.950 . S
C2123 C2118 1.363 . S
C2123 C2122 1.415 . S
H2124 C2121 0.999 . S
H2125 C2106 0.913 . S
H2126 C2144 0.951 . S
H2127 C2146 0.951 . S
H2128 C2148 0.950 . S
H2129 C2149 0.950 . S
H2130 C2151 0.950 . S
H2131 C2154 0.950 . S
H2132 C2155 0.950 . S
H2133 C2157 0.950 . S
H2134 C2158 0.950 . S
H2135 C2159 0.951 . S
H2136 C2161 0.951 . S
H2137 C2163 0.950 . S
H2138 C2164 0.950 . S
H2139 C2166 0.950 . S
H2140 C2169 0.950 . S
H2141 C2170 0.950 . S
H2142 C2172 0.950 . S
H2143 C2173 0.950 . S
C2144 H2126 0.951 . S
C2144 C2145 1.366 . S
C2144 C2146 1.388 . S
C2145 C2144 1.366 . S
C2145 C2149 1.385 . S
C2146 H2127 0.951 . S
C2146 C2144 1.388 . S
C2146 C2147 1.366 . S
C2147 C2146 1.366 . S
C2147 C2148 1.414 . S
C2147 C2150 1.499 . S
C2148 H2128 0.950 . S
C2148 C2147 1.414 . S
C2148 C2149 1.374 . S
C2149 H2129 0.950 . S
C2149 C2145 1.385 . S
C2149 C2148 1.374 . S
C2150 C2147 1.499 . S
C2150 C2151 1.373 . S
C2150 C2152 1.389 . S
C2151 H2130 0.950 . S
C2151 C2150 1.373 . S
C2151 C2167 1.377 . S
C2152 C2150 1.389 . S
C2152 C2153 1.524 . S
C2152 C2166 1.377 . S
C2153 C2152 1.524 . S
C2153 C2154 1.397 . S
C2153 C2158 1.363 . S
C2154 H2131 0.950 . S
C2154 C2153 1.397 . S
C2154 C2155 1.334 . S
C2155 H2132 0.950 . S
C2155 C2154 1.334 . S
C2155 C2156 1.287 . S
C2156 C2155 1.287 . S
C2156 C2157 1.524 . S
C2156 H2175 0.913 . S
C2157 H2133 0.950 . S
C2157 C2156 1.524 . S
C2157 C2158 1.415 . S
C2158 H2134 0.950 . S
C2158 C2153 1.363 . S
C2158 C2157 1.415 . S
C2159 H2135 0.951 . S
C2159 C2160 1.366 . S
C2159 C2161 1.388 . S
C2160 C2159 1.366 . S
C2160 C2164 1.385 . S
C2161 H2136 0.951 . S
C2161 C2159 1.388 . S
C2161 C2162 1.366 . S
C2162 C2161 1.366 . S
C2162 C2163 1.414 . S
C2162 C2165 1.499 . S
C2163 H2137 0.950 . S
C2163 C2162 1.414 . S
C2163 C2164 1.374 . S
C2164 H2138 0.950 . S
C2164 C2160 1.385 . S
C2164 C2163 1.374 . S
C2165 C2162 1.499 . S
C2165 C2166 1.373 . S
C2165 C2167 1.389 . S
C2166 H2139 0.950 . S
C2166 C2152 1.377 . S
C2166 C2165 1.373 . S
C2167 C2151 1.377 . S
C2167 C2165 1.389 . S
C2167 C2168 1.524 . S
C2168 C2167 1.524 . S
C2168 C2169 1.397 . S
C2168 C2173 1.363 . S
C2169 H2140 0.950 . S
C2169 C2168 1.397 . S
C2169 C2170 1.334 . S
C2170 H2141 0.950 . S
C2170 C2169 1.334 . S
C2170 C2171 1.287 . S
C2171 C2170 1.287 . S
C2171 C2172 1.524 . S
C2171 H2174 0.999 . S
C2172 H2142 0.950 . S
C2172 C2171 1.524 . S
C2172 C2173 1.415 . S
C2173 H2143 0.950 . S
C2173 C2168 1.363 . S
C2173 C2172 1.415 . S
H2174 C2171 0.999 . S
H2175 C2156 0.913 . S
H2176 C2194 0.951 . S
H2177 C2196 0.951 . S
H2178 C2198 0.950 . S
H2179 C2199 0.950 . S
H2180 C2201 0.950 . S
H2181 C2204 0.950 . S
H2182 C2205 0.950 . S
H2183 C2207 0.950 . S
H2184 C2208 0.950 . S
H2185 C2209 0.951 . S
H2186 C2211 0.951 . S
H2187 C2213 0.950 . S
H2188 C2214 0.950 . S
H2189 C2216 0.950 . S
H2190 C2219 0.950 . S
H2191 C2220 0.950 . S
H2192 C2222 0.950 . S
H2193 C2223 0.950 . S
C2194 H2176 0.951 . S
C2194 C2195 1.366 . S
C2194 C2196 1.388 . S
C2195 C2194 1.366 . S
C2195 C2199 1.385 . S
C2196 H2177 0.951 . S
C2196 C2194 1.388 . S
C2196 C2197 1.366 1_545 S
C2197 C2196 1.366 1_565 S
C2197 C2198 1.414 . S
C2197 C2200 1.499 . S
C2198 H2178 0.950 . S
C2198 C2197 1.414 . S
C2198 C2199 1.374 1_565 S
C2199 H2179 0.950 . S
C2199 C2195 1.385 . S
C2199 C2198 1.374 1_545 S
C2200 C2197 1.499 . S
C2200 C2201 1.373 . S
C2200 C2202 1.389 . S
C2201 H2180 0.950 . S
C2201 C2200 1.373 . S
C2201 C2217 1.377 . S
C2202 C2200 1.389 . S
C2202 C2203 1.524 . S
C2202 C2216 1.377 . S
C2203 C2202 1.524 . S
C2203 C2204 1.397 . S
C2203 C2208 1.363 . S
C2204 H2181 0.950 . S
C2204 C2203 1.397 . S
C2204 C2205 1.334 . S
C2205 H2182 0.950 . S
C2205 C2204 1.334 . S
C2205 C2206 1.287 . S
C2206 C2205 1.287 . S
C2206 C2207 1.524 . S
C2206 H2225 0.913 . S
C2207 H2183 0.950 . S
C2207 C2206 1.524 . S
C2207 C2208 1.415 . S
C2208 H2184 0.950 . S
C2208 C2203 1.363 . S
C2208 C2207 1.415 . S
C2209 H2185 0.951 . S
C2209 C2210 1.366 . S
C2209 C2211 1.388 . S
C2210 C2209 1.366 . S
C2210 C2214 1.385 . S
C2211 H2186 0.951 . S
C2211 C2209 1.388 . S
C2211 C2212 1.366 . S
C2212 C2211 1.366 . S
C2212 C2213 1.414 . S
C2212 C2215 1.499 . S
C2213 H2187 0.950 . S
C2213 C2212 1.414 . S
C2213 C2214 1.374 . S
C2214 H2188 0.950 . S
C2214 C2210 1.385 . S
C2214 C2213 1.374 . S
C2215 C2212 1.499 . S
C2215 C2216 1.373 . S
C2215 C2217 1.389 . S
C2216 H2189 0.950 . S
C2216 C2202 1.377 . S
C2216 C2215 1.373 . S
C2217 C2201 1.377 . S
C2217 C2215 1.389 . S
C2217 C2218 1.524 . S
C2218 C2217 1.524 . S
C2218 C2219 1.397 . S
C2218 C2223 1.363 . S
C2219 H2190 0.950 . S
C2219 C2218 1.397 . S
C2219 C2220 1.334 . S
C2220 H2191 0.950 . S
C2220 C2219 1.334 . S
C2220 C2221 1.287 . S
C2221 C2220 1.287 . S
C2221 C2222 1.524 . S
C2221 H2224 0.999 . S
C2222 H2192 0.950 . S
C2222 C2221 1.524 . S
C2222 C2223 1.415 . S
C2223 H2193 0.950 . S
C2223 C2218 1.363 . S
C2223 C2222 1.415 . S
H2224 C2221 0.999 . S
H2225 C2206 0.913 . S
H2226 C2244 0.951 . S
H2227 C2246 0.951 . S
H2228 C2248 0.950 . S
H2229 C2249 0.950 . S
H2230 C2251 0.950 . S
H2231 C2254 0.950 . S
H2232 C2255 0.950 . S
H2233 C2257 0.950 . S
H2234 C2258 0.950 . S
H2235 C2259 0.951 . S
H2236 C2261 0.951 . S
H2237 C2263 0.950 . S
H2238 C2264 0.950 . S
H2239 C2266 0.950 . S
H2240 C2269 0.950 . S
H2241 C2270 0.950 . S
H2242 C2272 0.950 . S
H2243 C2273 0.950 . S
C2244 H2226 0.951 . S
C2244 C2245 1.366 . S
C2244 C2246 1.388 . S
C2245 C2244 1.366 . S
C2245 C2249 1.385 . S
C2246 H2227 0.951 . S
C2246 C2244 1.388 . S
C2246 C2247 1.366 . S
C2247 C2246 1.366 . S
C2247 C2248 1.414 . S
C2247 C2250 1.499 . S
C2248 H2228 0.950 . S
C2248 C2247 1.414 . S
C2248 C2249 1.374 . S
C2249 H2229 0.950 . S
C2249 C2245 1.385 . S
C2249 C2248 1.374 . S
C2250 C2247 1.499 . S
C2250 C2251 1.373 . S
C2250 C2252 1.389 . S
C2251 H2230 0.950 . S
C2251 C2250 1.373 . S
C2251 C2267 1.377 . S
C2252 C2250 1.389 . S
C2252 C2253 1.524 . S
C2252 C2266 1.377 . S
C2253 C2252 1.524 . S
C2253 C2254 1.397 . S
C2253 C2258 1.363 . S
C2254 H2231 0.950 . S
C2254 C2253 1.397 . S
C2254 C2255 1.334 . S
C2255 H2232 0.950 . S
C2255 C2254 1.334 . S
C2255 C2256 1.287 . S
C2256 C2255 1.287 . S
C2256 C2257 1.524 . S
C2256 H2275 0.913 . S
C2257 H2233 0.950 . S
C2257 C2256 1.524 . S
C2257 C2258 1.415 . S
C2258 H2234 0.950 . S
C2258 C2253 1.363 . S
C2258 C2257 1.415 . S
C2259 H2235 0.951 . S
C2259 C2260 1.366 . S
C2259 C2261 1.388 . S
C2260 C2259 1.366 . S
C2260 C2264 1.385 . S
C2261 H2236 0.951 . S
C2261 C2259 1.388 . S
C2261 C2262 1.366 . S
C2262 C2261 1.366 . S
C2262 C2263 1.414 . S
C2262 C2265 1.499 . S
C2263 H2237 0.950 . S
C2263 C2262 1.414 . S
C2263 C2264 1.374 . S
C2264 H2238 0.950 . S
C2264 C2260 1.385 . S
C2264 C2263 1.374 . S
C2265 C2262 1.499 . S
C2265 C2266 1.373 . S
C2265 C2267 1.389 . S
C2266 H2239 0.950 . S
C2266 C2252 1.377 . S
C2266 C2265 1.373 . S
C2267 C2251 1.377 . S
C2267 C2265 1.389 . S
C2267 C2268 1.524 . S
C2268 C2267 1.524 . S
C2268 C2269 1.397 . S
C2268 C2273 1.363 . S
C2269 H2240 0.950 . S
C2269 C2268 1.397 . S
C2269 C2270 1.334 . S
C2270 H2241 0.950 . S
C2270 C2269 1.334 . S
C2270 C2271 1.287 . S
C2271 C2270 1.287 . S
C2271 C2272 1.524 . S
C2271 H2274 0.999 . S
C2272 H2242 0.950 . S
C2272 C2271 1.524 . S
C2272 C2273 1.415 . S
C2273 H2243 0.950 . S
C2273 C2268 1.363 . S
C2273 C2272 1.415 . S
H2274 C2271 0.999 . S
H2275 C2256 0.913 . S
H2276 C2294 0.951 . S
H2277 C2296 0.951 . S
H2278 C2298 0.950 . S
H2279 C2299 0.950 . S
H2280 C2301 0.950 . S
H2281 C2304 0.950 . S
H2282 C2305 0.950 . S
H2283 C2307 0.950 . S
H2284 C2308 0.950 . S
H2285 C2309 0.951 . S
H2286 C2311 0.951 . S
H2287 C2313 0.950 . S
H2288 C2314 0.950 . S
H2289 C2316 0.950 . S
H2290 C2319 0.950 . S
H2291 C2320 0.950 . S
H2292 C2322 0.950 . S
H2293 C2323 0.950 . S
C2294 H2276 0.951 . S
C2294 C2295 1.366 . S
C2294 C2296 1.388 . S
C2295 C2294 1.366 . S
C2295 C2299 1.385 . S
C2296 H2277 0.951 . S
C2296 C2294 1.388 . S
C2296 C2297 1.366 . S
C2297 C2296 1.366 . S
C2297 C2298 1.414 . S
C2297 C2300 1.499 . S
C2298 H2278 0.950 . S
C2298 C2297 1.414 . S
C2298 C2299 1.374 . S
C2299 H2279 0.950 . S
C2299 C2295 1.385 . S
C2299 C2298 1.374 . S
C2300 C2297 1.499 . S
C2300 C2301 1.373 . S
C2300 C2302 1.389 . S
C2301 H2280 0.950 . S
C2301 C2300 1.373 . S
C2301 C2317 1.377 . S
C2302 C2300 1.389 . S
C2302 C2303 1.524 . S
C2302 C2316 1.377 . S
C2303 C2302 1.524 . S
C2303 C2304 1.397 . S
C2303 C2308 1.363 . S
C2304 H2281 0.950 . S
C2304 C2303 1.397 . S
C2304 C2305 1.334 . S
C2305 H2282 0.950 . S
C2305 C2304 1.334 . S
C2305 C2306 1.287 . S
C2306 C2305 1.287 . S
C2306 C2307 1.524 . S
C2306 H2325 0.913 . S
C2307 H2283 0.950 . S
C2307 C2306 1.524 . S
C2307 C2308 1.415 . S
C2308 H2284 0.950 . S
C2308 C2303 1.363 . S
C2308 C2307 1.415 . S
C2309 H2285 0.951 . S
C2309 C2310 1.366 . S
C2309 C2311 1.388 . S
C2310 C2309 1.366 . S
C2310 C2314 1.385 . S
C2311 H2286 0.951 . S
C2311 C2309 1.388 . S
C2311 C2312 1.366 . S
C2312 C2311 1.366 . S
C2312 C2313 1.414 . S
C2312 C2315 1.499 . S
C2313 H2287 0.950 . S
C2313 C2312 1.414 . S
C2313 C2314 1.374 . S
C2314 H2288 0.950 . S
C2314 C2310 1.385 . S
C2314 C2313 1.374 . S
C2315 C2312 1.499 . S
C2315 C2316 1.373 . S
C2315 C2317 1.389 . S
C2316 H2289 0.950 . S
C2316 C2302 1.377 . S
C2316 C2315 1.373 . S
C2317 C2301 1.377 . S
C2317 C2315 1.389 . S
C2317 C2318 1.524 . S
C2318 C2317 1.524 . S
C2318 C2319 1.397 . S
C2318 C2323 1.363 . S
C2319 H2290 0.950 . S
C2319 C2318 1.397 . S
C2319 C2320 1.334 . S
C2320 H2291 0.950 . S
C2320 C2319 1.334 . S
C2320 C2321 1.287 . S
C2321 C2320 1.287 . S
C2321 C2322 1.524 . S
C2321 H2324 0.999 . S
C2322 H2292 0.950 . S
C2322 C2321 1.524 . S
C2322 C2323 1.415 . S
C2323 H2293 0.950 . S
C2323 C2318 1.363 . S
C2323 C2322 1.415 . S
H2324 C2321 0.999 . S
H2325 C2306 0.913 . S
H2326 C2344 0.951 . S
H2327 C2346 0.951 . S
H2328 C2348 0.950 . S
H2329 C2349 0.950 . S
H2330 C2351 0.950 . S
H2331 C2354 0.950 . S
H2332 C2355 0.950 . S
H2333 C2357 0.950 . S
H2334 C2358 0.950 . S
H2335 C2359 0.951 . S
H2336 C2361 0.951 . S
H2337 C2363 0.950 . S
H2338 C2364 0.950 . S
H2339 C2366 0.950 . S
H2340 C2369 0.950 . S
H2341 C2370 0.950 . S
H2342 C2372 0.950 . S
H2343 C2373 0.950 . S
C2344 H2326 0.951 . S
C2344 C2345 1.366 . S
C2344 C2346 1.388 . S
C2345 C2344 1.366 . S
C2345 C2349 1.385 . S
C2346 H2327 0.951 . S
C2346 C2344 1.388 . S
C2346 C2347 1.366 . S
C2347 C2346 1.366 . S
C2347 C2348 1.414 . S
C2347 C2350 1.499 . S
C2348 H2328 0.950 . S
C2348 C2347 1.414 . S
C2348 C2349 1.374 . S
C2349 H2329 0.950 . S
C2349 C2345 1.385 . S
C2349 C2348 1.374 . S
C2350 C2347 1.499 . S
C2350 C2351 1.373 . S
C2350 C2352 1.389 . S
C2351 H2330 0.950 . S
C2351 C2350 1.373 . S
C2351 C2367 1.377 . S
C2352 C2350 1.389 . S
C2352 C2353 1.524 . S
C2352 C2366 1.377 . S
C2353 C2352 1.524 . S
C2353 C2354 1.397 . S
C2353 C2358 1.363 . S
C2354 H2331 0.950 . S
C2354 C2353 1.397 . S
C2354 C2355 1.334 . S
C2355 H2332 0.950 . S
C2355 C2354 1.334 . S
C2355 C2356 1.287 . S
C2356 C2355 1.287 . S
C2356 C2357 1.524 . S
C2356 H2375 0.913 . S
C2357 H2333 0.950 . S
C2357 C2356 1.524 . S
C2357 C2358 1.415 . S
C2358 H2334 0.950 . S
C2358 C2353 1.363 . S
C2358 C2357 1.415 . S
C2359 H2335 0.951 . S
C2359 C2360 1.366 . S
C2359 C2361 1.388 . S
C2360 C2359 1.366 . S
C2360 C2364 1.385 . S
C2361 H2336 0.951 . S
C2361 C2359 1.388 . S
C2361 C2362 1.366 . S
C2362 C2361 1.366 . S
C2362 C2363 1.414 . S
C2362 C2365 1.499 . S
C2363 H2337 0.950 . S
C2363 C2362 1.414 . S
C2363 C2364 1.374 . S
C2364 H2338 0.950 . S
C2364 C2360 1.385 . S
C2364 C2363 1.374 . S
C2365 C2362 1.499 . S
C2365 C2366 1.373 . S
C2365 C2367 1.389 . S
C2366 H2339 0.950 . S
C2366 C2352 1.377 . S
C2366 C2365 1.373 . S
C2367 C2351 1.377 . S
C2367 C2365 1.389 . S
C2367 C2368 1.524 . S
C2368 C2367 1.524 . S
C2368 C2369 1.397 . S
C2368 C2373 1.363 . S
C2369 H2340 0.950 . S
C2369 C2368 1.397 . S
C2369 C2370 1.334 . S
C2370 H2341 0.950 . S
C2370 C2369 1.334 . S
C2370 C2371 1.287 . S
C2371 C2370 1.287 . S
C2371 C2372 1.524 . S
C2371 H2374 0.999 . S
C2372 H2342 0.950 . S
C2372 C2371 1.524 . S
C2372 C2373 1.415 . S
C2373 H2343 0.950 . S
C2373 C2368 1.363 . S
C2373 C2372 1.415 . S
H2374 C2371 0.999 . S
H2375 C2356 0.913 . S
H2376 C2394 0.951 . S
H2377 C2396 0.951 . S
H2378 C2398 0.950 . S
H2379 C2399 0.950 . S
H2380 C2401 0.950 . S
H2381 C2404 0.950 . S
H2382 C2405 0.950 . S
H2383 C2407 0.950 . S
H2384 C2408 0.950 . S
H2385 C2409 0.951 . S
H2386 C2411 0.951 . S
H2387 C2413 0.950 . S
H2388 C2414 0.950 . S
H2389 C2416 0.950 . S
H2390 C2419 0.950 . S
H2391 C2420 0.950 . S
H2392 C2422 0.950 . S
H2393 C2423 0.950 . S
C2394 H2376 0.951 . S
C2394 C2395 1.366 . S
C2394 C2396 1.388 . S
C2395 C2394 1.366 . S
C2395 C2399 1.385 . S
C2396 H2377 0.951 . S
C2396 C2394 1.388 . S
C2396 C2397 1.366 . S
C2397 C2396 1.366 . S
C2397 C2398 1.414 . S
C2397 C2400 1.499 . S
C2398 H2378 0.950 . S
C2398 C2397 1.414 . S
C2398 C2399 1.374 . S
C2399 H2379 0.950 . S
C2399 C2395 1.385 . S
C2399 C2398 1.374 . S
C2400 C2397 1.499 . S
C2400 C2401 1.373 . S
C2400 C2402 1.389 . S
C2401 H2380 0.950 . S
C2401 C2400 1.373 . S
C2401 C2417 1.377 . S
C2402 C2400 1.389 . S
C2402 C2403 1.524 . S
C2402 C2416 1.377 . S
C2403 C2402 1.524 . S
C2403 C2404 1.397 . S
C2403 C2408 1.363 . S
C2404 H2381 0.950 . S
C2404 C2403 1.397 . S
C2404 C2405 1.334 . S
C2405 H2382 0.950 . S
C2405 C2404 1.334 . S
C2405 C2406 1.287 . S
C2406 C2405 1.287 . S
C2406 C2407 1.524 . S
C2406 H2425 0.913 . S
C2407 H2383 0.950 . S
C2407 C2406 1.524 . S
C2407 C2408 1.415 . S
C2408 H2384 0.950 . S
C2408 C2403 1.363 . S
C2408 C2407 1.415 . S
C2409 H2385 0.951 . S
C2409 C2410 1.366 . S
C2409 C2411 1.388 . S
C2410 C2409 1.366 . S
C2410 C2414 1.385 . S
C2411 H2386 0.951 . S
C2411 C2409 1.388 . S
C2411 C2412 1.366 . S
C2412 C2411 1.366 . S
C2412 C2413 1.414 . S
C2412 C2415 1.499 . S
C2413 H2387 0.950 . S
C2413 C2412 1.414 . S
C2413 C2414 1.374 . S
C2414 H2388 0.950 . S
C2414 C2410 1.385 . S
C2414 C2413 1.374 . S
C2415 C2412 1.499 . S
C2415 C2416 1.373 . S
C2415 C2417 1.389 . S
C2416 H2389 0.950 . S
C2416 C2402 1.377 . S
C2416 C2415 1.373 . S
C2417 C2401 1.377 . S
C2417 C2415 1.389 . S
C2417 C2418 1.524 . S
C2418 C2417 1.524 . S
C2418 C2419 1.397 . S
C2418 C2423 1.363 . S
C2419 H2390 0.950 . S
C2419 C2418 1.397 . S
C2419 C2420 1.334 . S
C2420 H2391 0.950 . S
C2420 C2419 1.334 . S
C2420 C2421 1.287 . S
C2421 C2420 1.287 . S
C2421 C2422 1.524 . S
C2421 H2424 0.999 . S
C2422 H2392 0.950 . S
C2422 C2421 1.524 . S
C2422 C2423 1.415 . S
C2423 H2393 0.950 . S
C2423 C2418 1.363 . S
C2423 C2422 1.415 . S
H2424 C2421 0.999 . S
H2425 C2406 0.913 . S
H2426 C2444 0.951 . S
H2427 C2446 0.951 . S
H2428 C2448 0.950 . S
H2429 C2449 0.950 . S
H2430 C2451 0.950 . S
H2431 C2454 0.950 . S
H2432 C2455 0.950 . S
H2433 C2457 0.950 . S
H2434 C2458 0.950 . S
H2435 C2459 0.951 . S
H2436 C2461 0.951 . S
H2437 C2463 0.950 . S
H2438 C2464 0.950 . S
H2439 C2466 0.950 . S
H2440 C2469 0.950 . S
H2441 C2470 0.950 . S
H2442 C2472 0.950 . S
H2443 C2473 0.950 . S
C2444 H2426 0.951 . S
C2444 C2445 1.366 . S
C2444 C2446 1.388 . S
C2445 C2444 1.366 . S
C2445 C2449 1.385 . S
C2446 H2427 0.951 . S
C2446 C2444 1.388 . S
C2446 C2447 1.366 . S
C2447 C2446 1.366 . S
C2447 C2448 1.414 . S
C2447 C2450 1.499 . S
C2448 H2428 0.950 . S
C2448 C2447 1.414 . S
C2448 C2449 1.374 . S
C2449 H2429 0.950 . S
C2449 C2445 1.385 . S
C2449 C2448 1.374 . S
C2450 C2447 1.499 . S
C2450 C2451 1.373 . S
C2450 C2452 1.389 . S
C2451 H2430 0.950 . S
C2451 C2450 1.373 . S
C2451 C2467 1.377 . S
C2452 C2450 1.389 . S
C2452 C2453 1.524 . S
C2452 C2466 1.377 . S
C2453 C2452 1.524 . S
C2453 C2454 1.397 . S
C2453 C2458 1.363 . S
C2454 H2431 0.950 . S
C2454 C2453 1.397 . S
C2454 C2455 1.334 . S
C2455 H2432 0.950 . S
C2455 C2454 1.334 . S
C2455 C2456 1.287 . S
C2456 C2455 1.287 . S
C2456 C2457 1.524 . S
C2456 H2475 0.913 . S
C2457 H2433 0.950 . S
C2457 C2456 1.524 . S
C2457 C2458 1.415 . S
C2458 H2434 0.950 . S
C2458 C2453 1.363 . S
C2458 C2457 1.415 . S
C2459 H2435 0.951 . S
C2459 C2460 1.366 . S
C2459 C2461 1.388 . S
C2460 C2459 1.366 . S
C2460 C2464 1.385 . S
C2461 H2436 0.951 . S
C2461 C2459 1.388 . S
C2461 C2462 1.366 . S
C2462 C2461 1.366 . S
C2462 C2463 1.414 . S
C2462 C2465 1.499 . S
C2463 H2437 0.950 . S
C2463 C2462 1.414 . S
C2463 C2464 1.374 . S
C2464 H2438 0.950 . S
C2464 C2460 1.385 . S
C2464 C2463 1.374 . S
C2465 C2462 1.499 . S
C2465 C2466 1.373 . S
C2465 C2467 1.389 . S
C2466 H2439 0.950 . S
C2466 C2452 1.377 . S
C2466 C2465 1.373 . S
C2467 C2451 1.377 . S
C2467 C2465 1.389 . S
C2467 C2468 1.524 . S
C2468 C2467 1.524 . S
C2468 C2469 1.397 . S
C2468 C2473 1.363 . S
C2469 H2440 0.950 . S
C2469 C2468 1.397 . S
C2469 C2470 1.334 . S
C2470 H2441 0.950 . S
C2470 C2469 1.334 . S
C2470 C2471 1.287 . S
C2471 C2470 1.287 . S
C2471 C2472 1.524 . S
C2471 H2474 0.999 . S
C2472 H2442 0.950 . S
C2472 C2471 1.524 . S
C2472 C2473 1.415 . S
C2473 H2443 0.950 . S
C2473 C2468 1.363 . S
C2473 C2472 1.415 . S
H2474 C2471 0.999 . S
H2475 C2456 0.913 . S
H2476 C2494 0.951 . S
H2477 C2496 0.951 . S
H2478 C2498 0.950 . S
H2479 C2499 0.950 . S
H2480 C2501 0.950 . S
H2481 C2504 0.950 . S
H2482 C2505 0.950 . S
H2483 C2507 0.950 . S
H2484 C2508 0.950 . S
H2485 C2509 0.951 . S
H2486 C2511 0.951 . S
H2487 C2513 0.950 . S
H2488 C2514 0.950 . S
H2489 C2516 0.950 . S
H2490 C2519 0.950 . S
H2491 C2520 0.950 . S
H2492 C2522 0.950 . S
H2493 C2523 0.950 . S
C2494 H2476 0.951 . S
C2494 C2495 1.366 . S
C2494 C2496 1.388 . S
C2495 C2494 1.366 . S
C2495 C2499 1.385 . S
C2496 H2477 0.951 . S
C2496 C2494 1.388 . S
C2496 C2497 1.366 . S
C2497 C2496 1.366 . S
C2497 C2498 1.414 . S
C2497 C2500 1.499 . S
C2498 H2478 0.950 . S
C2498 C2497 1.414 . S
C2498 C2499 1.374 . S
C2499 H2479 0.950 . S
C2499 C2495 1.385 . S
C2499 C2498 1.374 . S
C2500 C2497 1.499 . S
C2500 C2501 1.373 . S
C2500 C2502 1.389 . S
C2501 H2480 0.950 . S
C2501 C2500 1.373 . S
C2501 C2517 1.377 . S
C2502 C2500 1.389 . S
C2502 C2503 1.524 . S
C2502 C2516 1.377 . S
C2503 C2502 1.524 . S
C2503 C2504 1.397 . S
C2503 C2508 1.363 . S
C2504 H2481 0.950 . S
C2504 C2503 1.397 . S
C2504 C2505 1.334 . S
C2505 H2482 0.950 . S
C2505 C2504 1.334 . S
C2505 C2506 1.287 . S
C2506 C2505 1.287 . S
C2506 C2507 1.524 . S
C2506 H2525 0.913 . S
C2507 H2483 0.950 . S
C2507 C2506 1.524 . S
C2507 C2508 1.415 . S
C2508 H2484 0.950 . S
C2508 C2503 1.363 . S
C2508 C2507 1.415 . S
C2509 H2485 0.951 . S
C2509 C2510 1.366 . S
C2509 C2511 1.388 . S
C2510 C2509 1.366 . S
C2510 C2514 1.385 . S
C2511 H2486 0.951 . S
C2511 C2509 1.388 . S
C2511 C2512 1.366 . S
C2512 C2511 1.366 . S
C2512 C2513 1.414 . S
C2512 C2515 1.499 . S
C2513 H2487 0.950 . S
C2513 C2512 1.414 . S
C2513 C2514 1.374 . S
C2514 H2488 0.950 . S
C2514 C2510 1.385 . S
C2514 C2513 1.374 . S
C2515 C2512 1.499 . S
C2515 C2516 1.373 . S
C2515 C2517 1.389 . S
C2516 H2489 0.950 . S
C2516 C2502 1.377 . S
C2516 C2515 1.373 . S
C2517 C2501 1.377 . S
C2517 C2515 1.389 . S
C2517 C2518 1.524 . S
C2518 C2517 1.524 . S
C2518 C2519 1.397 . S
C2518 C2523 1.363 . S
C2519 H2490 0.950 . S
C2519 C2518 1.397 . S
C2519 C2520 1.334 . S
C2520 H2491 0.950 . S
C2520 C2519 1.334 . S
C2520 C2521 1.287 . S
C2521 C2520 1.287 . S
C2521 C2522 1.524 . S
C2521 H2524 0.999 . S
C2522 H2492 0.950 . S
C2522 C2521 1.524 . S
C2522 C2523 1.415 . S
C2523 H2493 0.950 . S
C2523 C2518 1.363 . S
C2523 C2522 1.415 . S
H2524 C2521 0.999 . S
H2525 C2506 0.913 . S
H2526 C2544 0.951 . S
H2527 C2546 0.951 . S
H2528 C2548 0.950 . S
H2529 C2549 0.950 . S
H2530 C2551 0.950 . S
H2531 C2554 0.950 . S
H2532 C2555 0.950 . S
H2533 C2557 0.950 . S
H2534 C2558 0.950 . S
H2535 C2559 0.951 . S
H2536 C2561 0.951 . S
H2537 C2563 0.950 . S
H2538 C2564 0.950 . S
H2539 C2566 0.950 . S
H2540 C2569 0.950 . S
H2541 C2570 0.950 . S
H2542 C2572 0.950 . S
H2543 C2573 0.950 . S
C2544 H2526 0.951 . S
C2544 C2545 1.366 . S
C2544 C2546 1.388 1_545 S
C2545 C2544 1.366 . S
C2545 C2549 1.385 . S
C2546 H2527 0.951 . S
C2546 C2544 1.388 1_565 S
C2546 C2547 1.366 . S
C2547 C2546 1.366 . S
C2547 C2548 1.414 1_565 S
C2547 C2550 1.499 . S
C2548 H2528 0.950 . S
C2548 C2547 1.414 1_545 S
C2548 C2549 1.374 . S
C2549 H2529 0.950 . S
C2549 C2545 1.385 . S
C2549 C2548 1.374 . S
C2550 C2547 1.499 . S
C2550 C2551 1.373 . S
C2550 C2552 1.389 . S
C2551 H2530 0.950 . S
C2551 C2550 1.373 . S
C2551 C2567 1.377 . S
C2552 C2550 1.389 . S
C2552 C2553 1.524 . S
C2552 C2566 1.377 . S
C2553 C2552 1.524 . S
C2553 C2554 1.397 . S
C2553 C2558 1.363 . S
C2554 H2531 0.950 . S
C2554 C2553 1.397 . S
C2554 C2555 1.334 . S
C2555 H2532 0.950 . S
C2555 C2554 1.334 . S
C2555 C2556 1.287 . S
C2556 C2555 1.287 . S
C2556 C2557 1.524 . S
C2556 H2575 0.913 . S
C2557 H2533 0.950 . S
C2557 C2556 1.524 . S
C2557 C2558 1.415 . S
C2558 H2534 0.950 . S
C2558 C2553 1.363 . S
C2558 C2557 1.415 . S
C2559 H2535 0.951 . S
C2559 C2560 1.366 . S
C2559 C2561 1.388 . S
C2560 C2559 1.366 . S
C2560 C2564 1.385 . S
C2561 H2536 0.951 . S
C2561 C2559 1.388 . S
C2561 C2562 1.366 . S
C2562 C2561 1.366 . S
C2562 C2563 1.414 . S
C2562 C2565 1.499 . S
C2563 H2537 0.950 . S
C2563 C2562 1.414 . S
C2563 C2564 1.374 . S
C2564 H2538 0.950 . S
C2564 C2560 1.385 . S
C2564 C2563 1.374 . S
C2565 C2562 1.499 . S
C2565 C2566 1.373 . S
C2565 C2567 1.389 . S
C2566 H2539 0.950 . S
C2566 C2552 1.377 . S
C2566 C2565 1.373 . S
C2567 C2551 1.377 . S
C2567 C2565 1.389 . S
C2567 C2568 1.524 . S
C2568 C2567 1.524 . S
C2568 C2569 1.397 . S
C2568 C2573 1.363 . S
C2569 H2540 0.950 . S
C2569 C2568 1.397 . S
C2569 C2570 1.334 . S
C2570 H2541 0.950 . S
C2570 C2569 1.334 . S
C2570 C2571 1.287 . S
C2571 C2570 1.287 . S
C2571 C2572 1.524 . S
C2571 H2574 0.999 . S
C2572 H2542 0.950 . S
C2572 C2571 1.524 . S
C2572 C2573 1.415 . S
C2573 H2543 0.950 . S
C2573 C2568 1.363 . S
C2573 C2572 1.415 . S
H2574 C2571 0.999 . S
H2575 C2556 0.913 . S
H2576 C2594 0.951 . S
H2577 C2596 0.951 . S
H2578 C2598 0.950 . S
H2579 C2599 0.950 . S
H2580 C2601 0.950 . S
H2581 C2604 0.950 . S
H2582 C2605 0.950 1_655 S
H2583 C2607 0.950 . S
H2584 C2608 0.950 . S
H2585 C2609 0.951 . S
H2586 C2611 0.951 . S
H2587 C2613 0.950 . S
H2588 C2614 0.950 . S
H2589 C2616 0.950 . S
H2590 C2619 0.950 . S
H2591 C2620 0.950 . S
H2592 C2622 0.950 . S
H2593 C2623 0.950 . S
C2594 H2576 0.951 . S
C2594 C2595 1.366 . S
C2594 C2596 1.388 1_655 S
C2595 C2594 1.366 . S
C2595 C2599 1.385 . S
C2596 H2577 0.951 . S
C2596 C2594 1.388 1_455 S
C2596 C2597 1.366 . S
C2597 C2596 1.366 . S
C2597 C2598 1.414 . S
C2597 C2600 1.499 . S
C2598 H2578 0.950 . S
C2598 C2597 1.414 . S
C2598 C2599 1.374 1_455 S
C2599 H2579 0.950 . S
C2599 C2595 1.385 . S
C2599 C2598 1.374 1_655 S
C2600 C2597 1.499 . S
C2600 C2601 1.373 . S
C2600 C2602 1.389 . S
C2601 H2580 0.950 . S
C2601 C2600 1.373 . S
C2601 C2617 1.377 . S
C2602 C2600 1.389 . S
C2602 C2603 1.524 . S
C2602 C2616 1.377 . S
C2603 C2602 1.524 . S
C2603 C2604 1.397 . S
C2603 C2608 1.363 . S
C2604 H2581 0.950 . S
C2604 C2603 1.397 . S
C2604 C2605 1.334 . S
C2605 H2582 0.950 1_455 S
C2605 C2604 1.334 . S
C2605 C2606 1.287 . S
C2606 C2605 1.287 . S
C2606 C2607 1.524 . S
C2606 H2625 0.913 1_455 S
C2607 H2583 0.950 . S
C2607 C2606 1.524 . S
C2607 C2608 1.415 . S
C2608 H2584 0.950 . S
C2608 C2603 1.363 . S
C2608 C2607 1.415 . S
C2609 H2585 0.951 . S
C2609 C2610 1.366 . S
C2609 C2611 1.388 . S
C2610 C2609 1.366 . S
C2610 C2614 1.385 . S
C2611 H2586 0.951 . S
C2611 C2609 1.388 . S
C2611 C2612 1.366 . S
C2612 C2611 1.366 . S
C2612 C2613 1.414 . S
C2612 C2615 1.499 . S
C2613 H2587 0.950 . S
C2613 C2612 1.414 . S
C2613 C2614 1.374 . S
C2614 H2588 0.950 . S
C2614 C2610 1.385 . S
C2614 C2613 1.374 . S
C2615 C2612 1.499 . S
C2615 C2616 1.373 . S
C2615 C2617 1.389 . S
C2616 H2589 0.950 . S
C2616 C2602 1.377 . S
C2616 C2615 1.373 . S
C2617 C2601 1.377 . S
C2617 C2615 1.389 . S
C2617 C2618 1.524 . S
C2618 C2617 1.524 . S
C2618 C2619 1.397 . S
C2618 C2623 1.363 . S
C2619 H2590 0.950 . S
C2619 C2618 1.397 . S
C2619 C2620 1.334 . S
C2620 H2591 0.950 . S
C2620 C2619 1.334 . S
C2620 C2621 1.287 . S
C2621 C2620 1.287 . S
C2621 C2622 1.524 . S
C2621 H2624 0.999 . S
C2622 H2592 0.950 . S
C2622 C2621 1.524 . S
C2622 C2623 1.415 . S
C2623 H2593 0.950 . S
C2623 C2618 1.363 . S
C2623 C2622 1.415 . S
H2624 C2621 0.999 . S
H2625 C2606 0.913 1_655 S
H2626 C2644 0.951 . S
H2627 C2646 0.951 . S
H2628 C2648 0.950 . S
H2629 C2649 0.950 . S
H2630 C2651 0.950 . S
H2631 C2654 0.950 . S
H2632 C2655 0.950 . S
H2633 C2657 0.950 . S
H2634 C2658 0.950 . S
H2635 C2659 0.951 . S
H2636 C2661 0.951 . S
H2637 C2663 0.950 . S
H2638 C2664 0.950 . S
H2639 C2666 0.950 . S
H2640 C2669 0.950 . S
H2641 C2670 0.950 . S
H2642 C2672 0.950 . S
H2643 C2673 0.950 . S
C2644 H2626 0.951 . S
C2644 C2645 1.366 . S
C2644 C2646 1.388 . S
C2645 C2644 1.366 . S
C2645 C2649 1.385 . S
C2646 H2627 0.951 . S
C2646 C2644 1.388 . S
C2646 C2647 1.366 . S
C2647 C2646 1.366 . S
C2647 C2648 1.414 . S
C2647 C2650 1.499 . S
C2648 H2628 0.950 . S
C2648 C2647 1.414 . S
C2648 C2649 1.374 . S
C2649 H2629 0.950 . S
C2649 C2645 1.385 . S
C2649 C2648 1.374 . S
C2650 C2647 1.499 . S
C2650 C2651 1.373 . S
C2650 C2652 1.389 . S
C2651 H2630 0.950 . S
C2651 C2650 1.373 . S
C2651 C2667 1.377 . S
C2652 C2650 1.389 . S
C2652 C2653 1.524 . S
C2652 C2666 1.377 . S
C2653 C2652 1.524 . S
C2653 C2654 1.397 . S
C2653 C2658 1.363 . S
C2654 H2631 0.950 . S
C2654 C2653 1.397 . S
C2654 C2655 1.334 . S
C2655 H2632 0.950 . S
C2655 C2654 1.334 . S
C2655 C2656 1.287 . S
C2656 C2655 1.287 . S
C2656 C2657 1.524 . S
C2656 H2675 0.913 . S
C2657 H2633 0.950 . S
C2657 C2656 1.524 . S
C2657 C2658 1.415 . S
C2658 H2634 0.950 . S
C2658 C2653 1.363 . S
C2658 C2657 1.415 . S
C2659 H2635 0.951 . S
C2659 C2660 1.366 . S
C2659 C2661 1.388 . S
C2660 C2659 1.366 . S
C2660 C2664 1.385 . S
C2661 H2636 0.951 . S
C2661 C2659 1.388 . S
C2661 C2662 1.366 . S
C2662 C2661 1.366 . S
C2662 C2663 1.414 . S
C2662 C2665 1.499 . S
C2663 H2637 0.950 . S
C2663 C2662 1.414 . S
C2663 C2664 1.374 . S
C2664 H2638 0.950 . S
C2664 C2660 1.385 . S
C2664 C2663 1.374 . S
C2665 C2662 1.499 . S
C2665 C2666 1.373 . S
C2665 C2667 1.389 . S
C2666 H2639 0.950 . S
C2666 C2652 1.377 . S
C2666 C2665 1.373 . S
C2667 C2651 1.377 . S
C2667 C2665 1.389 . S
C2667 C2668 1.524 . S
C2668 C2667 1.524 . S
C2668 C2669 1.397 . S
C2668 C2673 1.363 . S
C2669 H2640 0.950 . S
C2669 C2668 1.397 . S
C2669 C2670 1.334 . S
C2670 H2641 0.950 . S
C2670 C2669 1.334 . S
C2670 C2671 1.287 . S
C2671 C2670 1.287 . S
C2671 C2672 1.524 . S
C2671 H2674 0.999 . S
C2672 H2642 0.950 . S
C2672 C2671 1.524 . S
C2672 C2673 1.415 . S
C2673 H2643 0.950 . S
C2673 C2668 1.363 . S
C2673 C2672 1.415 . S
H2674 C2671 0.999 . S
H2675 C2656 0.913 . S
H2676 C2694 0.951 . S
H2677 C2696 0.951 . S
H2678 C2698 0.950 . S
H2679 C2699 0.950 . S
H2680 C2701 0.950 . S
H2681 C2704 0.950 . S
H2682 C2705 0.950 . S
H2683 C2707 0.950 . S
H2684 C2708 0.950 . S
H2685 C2709 0.951 . S
H2686 C2711 0.951 . S
H2687 C2713 0.950 . S
H2688 C2714 0.950 . S
H2689 C2716 0.950 . S
H2690 C2719 0.950 . S
H2691 C2720 0.950 . S
H2692 C2722 0.950 . S
H2693 C2723 0.950 . S
C2694 H2676 0.951 . S
C2694 C2695 1.366 . S
C2694 C2696 1.388 . S
C2695 C2694 1.366 . S
C2695 C2699 1.385 . S
C2696 H2677 0.951 . S
C2696 C2694 1.388 . S
C2696 C2697 1.366 . S
C2697 C2696 1.366 . S
C2697 C2698 1.414 . S
C2697 C2700 1.499 . S
C2698 H2678 0.950 . S
C2698 C2697 1.414 . S
C2698 C2699 1.374 . S
C2699 H2679 0.950 . S
C2699 C2695 1.385 . S
C2699 C2698 1.374 . S
C2700 C2697 1.499 . S
C2700 C2701 1.373 . S
C2700 C2702 1.389 . S
C2701 H2680 0.950 . S
C2701 C2700 1.373 . S
C2701 C2717 1.377 . S
C2702 C2700 1.389 . S
C2702 C2703 1.524 . S
C2702 C2716 1.377 . S
C2703 C2702 1.524 . S
C2703 C2704 1.397 . S
C2703 C2708 1.363 . S
C2704 H2681 0.950 . S
C2704 C2703 1.397 . S
C2704 C2705 1.334 . S
C2705 H2682 0.950 . S
C2705 C2704 1.334 . S
C2705 C2706 1.287 . S
C2706 C2705 1.287 . S
C2706 C2707 1.524 . S
C2706 H2725 0.913 . S
C2707 H2683 0.950 . S
C2707 C2706 1.524 . S
C2707 C2708 1.415 . S
C2708 H2684 0.950 . S
C2708 C2703 1.363 . S
C2708 C2707 1.415 . S
C2709 H2685 0.951 . S
C2709 C2710 1.366 . S
C2709 C2711 1.388 . S
C2710 C2709 1.366 . S
C2710 C2714 1.385 . S
C2711 H2686 0.951 . S
C2711 C2709 1.388 . S
C2711 C2712 1.366 . S
C2712 C2711 1.366 . S
C2712 C2713 1.414 . S
C2712 C2715 1.499 . S
C2713 H2687 0.950 . S
C2713 C2712 1.414 . S
C2713 C2714 1.374 . S
C2714 H2688 0.950 . S
C2714 C2710 1.385 . S
C2714 C2713 1.374 . S
C2715 C2712 1.499 . S
C2715 C2716 1.373 . S
C2715 C2717 1.389 . S
C2716 H2689 0.950 . S
C2716 C2702 1.377 . S
C2716 C2715 1.373 . S
C2717 C2701 1.377 . S
C2717 C2715 1.389 . S
C2717 C2718 1.524 . S
C2718 C2717 1.524 . S
C2718 C2719 1.397 . S
C2718 C2723 1.363 . S
C2719 H2690 0.950 . S
C2719 C2718 1.397 . S
C2719 C2720 1.334 . S
C2720 H2691 0.950 . S
C2720 C2719 1.334 . S
C2720 C2721 1.287 . S
C2721 C2720 1.287 . S
C2721 C2722 1.524 . S
C2721 H2724 0.999 . S
C2722 H2692 0.950 . S
C2722 C2721 1.524 . S
C2722 C2723 1.415 . S
C2723 H2693 0.950 . S
C2723 C2718 1.363 . S
C2723 C2722 1.415 . S
H2724 C2721 0.999 . S
H2725 C2706 0.913 . S
H2726 C2744 0.951 . S
H2727 C2746 0.951 . S
H2728 C2748 0.950 . S
H2729 C2749 0.950 . S
H2730 C2751 0.950 . S
H2731 C2754 0.950 . S
H2732 C2755 0.950 . S
H2733 C2757 0.950 . S
H2734 C2758 0.950 . S
H2735 C2759 0.951 . S
H2736 C2761 0.951 . S
H2737 C2763 0.950 . S
H2738 C2764 0.950 . S
H2739 C2766 0.950 . S
H2740 C2769 0.950 . S
H2741 C2770 0.950 . S
H2742 C2772 0.950 . S
H2743 C2773 0.950 . S
C2744 H2726 0.951 . S
C2744 C2745 1.366 . S
C2744 C2746 1.388 . S
C2745 C2744 1.366 . S
C2745 C2749 1.385 . S
C2746 H2727 0.951 . S
C2746 C2744 1.388 . S
C2746 C2747 1.366 . S
C2747 C2746 1.366 . S
C2747 C2748 1.414 . S
C2747 C2750 1.499 . S
C2748 H2728 0.950 . S
C2748 C2747 1.414 . S
C2748 C2749 1.374 . S
C2749 H2729 0.950 . S
C2749 C2745 1.385 . S
C2749 C2748 1.374 . S
C2750 C2747 1.499 . S
C2750 C2751 1.373 . S
C2750 C2752 1.389 . S
C2751 H2730 0.950 . S
C2751 C2750 1.373 . S
C2751 C2767 1.377 . S
C2752 C2750 1.389 . S
C2752 C2753 1.524 . S
C2752 C2766 1.377 . S
C2753 C2752 1.524 . S
C2753 C2754 1.397 . S
C2753 C2758 1.363 . S
C2754 H2731 0.950 . S
C2754 C2753 1.397 . S
C2754 C2755 1.334 . S
C2755 H2732 0.950 . S
C2755 C2754 1.334 . S
C2755 C2756 1.287 . S
C2756 C2755 1.287 . S
C2756 C2757 1.524 . S
C2756 H2775 0.913 . S
C2757 H2733 0.950 . S
C2757 C2756 1.524 . S
C2757 C2758 1.415 . S
C2758 H2734 0.950 . S
C2758 C2753 1.363 . S
C2758 C2757 1.415 . S
C2759 H2735 0.951 . S
C2759 C2760 1.366 . S
C2759 C2761 1.388 . S
C2760 C2759 1.366 . S
C2760 C2764 1.385 . S
C2761 H2736 0.951 . S
C2761 C2759 1.388 . S
C2761 C2762 1.366 . S
C2762 C2761 1.366 . S
C2762 C2763 1.414 . S
C2762 C2765 1.499 . S
C2763 H2737 0.950 . S
C2763 C2762 1.414 . S
C2763 C2764 1.374 . S
C2764 H2738 0.950 . S
C2764 C2760 1.385 . S
C2764 C2763 1.374 . S
C2765 C2762 1.499 . S
C2765 C2766 1.373 . S
C2765 C2767 1.389 . S
C2766 H2739 0.950 . S
C2766 C2752 1.377 . S
C2766 C2765 1.373 . S
C2767 C2751 1.377 . S
C2767 C2765 1.389 . S
C2767 C2768 1.524 . S
C2768 C2767 1.524 . S
C2768 C2769 1.397 . S
C2768 C2773 1.363 . S
C2769 H2740 0.950 . S
C2769 C2768 1.397 . S
C2769 C2770 1.334 . S
C2770 H2741 0.950 . S
C2770 C2769 1.334 . S
C2770 C2771 1.287 . S
C2771 C2770 1.287 . S
C2771 C2772 1.524 . S
C2771 H2774 0.999 . S
C2772 H2742 0.950 . S
C2772 C2771 1.524 . S
C2772 C2773 1.415 . S
C2773 H2743 0.950 . S
C2773 C2768 1.363 . S
C2773 C2772 1.415 . S
H2774 C2771 0.999 . S
H2775 C2756 0.913 . S
H2776 C2794 0.951 . S
H2777 C2796 0.951 . S
H2778 C2798 0.950 . S
H2779 C2799 0.950 . S
H2780 C2801 0.950 . S
H2781 C2804 0.950 . S
H2782 C2805 0.950 . S
H2783 C2807 0.950 . S
H2784 C2808 0.950 . S
H2785 C2809 0.951 . S
H2786 C2811 0.951 . S
H2787 C2813 0.950 . S
H2788 C2814 0.950 . S
H2789 C2816 0.950 . S
H2790 C2819 0.950 . S
H2791 C2820 0.950 . S
H2792 C2822 0.950 . S
H2793 C2823 0.950 . S
C2794 H2776 0.951 . S
C2794 C2795 1.366 . S
C2794 C2796 1.388 . S
C2795 C2794 1.366 . S
C2795 C2799 1.385 . S
C2796 H2777 0.951 . S
C2796 C2794 1.388 . S
C2796 C2797 1.366 . S
C2797 C2796 1.366 . S
C2797 C2798 1.414 . S
C2797 C2800 1.499 . S
C2798 H2778 0.950 . S
C2798 C2797 1.414 . S
C2798 C2799 1.374 . S
C2799 H2779 0.950 . S
C2799 C2795 1.385 . S
C2799 C2798 1.374 . S
C2800 C2797 1.499 . S
C2800 C2801 1.373 . S
C2800 C2802 1.389 . S
C2801 H2780 0.950 . S
C2801 C2800 1.373 . S
C2801 C2817 1.377 . S
C2802 C2800 1.389 . S
C2802 C2803 1.524 . S
C2802 C2816 1.377 . S
C2803 C2802 1.524 . S
C2803 C2804 1.397 . S
C2803 C2808 1.363 . S
C2804 H2781 0.950 . S
C2804 C2803 1.397 . S
C2804 C2805 1.334 . S
C2805 H2782 0.950 . S
C2805 C2804 1.334 . S
C2805 C2806 1.287 . S
C2806 C2805 1.287 . S
C2806 C2807 1.524 . S
C2806 H2825 0.913 . S
C2807 H2783 0.950 . S
C2807 C2806 1.524 . S
C2807 C2808 1.415 . S
C2808 H2784 0.950 . S
C2808 C2803 1.363 . S
C2808 C2807 1.415 . S
C2809 H2785 0.951 . S
C2809 C2810 1.366 . S
C2809 C2811 1.388 . S
C2810 C2809 1.366 . S
C2810 C2814 1.385 . S
C2811 H2786 0.951 . S
C2811 C2809 1.388 . S
C2811 C2812 1.366 . S
C2812 C2811 1.366 . S
C2812 C2813 1.414 . S
C2812 C2815 1.499 . S
C2813 H2787 0.950 . S
C2813 C2812 1.414 . S
C2813 C2814 1.374 . S
C2814 H2788 0.950 . S
C2814 C2810 1.385 . S
C2814 C2813 1.374 . S
C2815 C2812 1.499 . S
C2815 C2816 1.373 . S
C2815 C2817 1.389 . S
C2816 H2789 0.950 . S
C2816 C2802 1.377 . S
C2816 C2815 1.373 . S
C2817 C2801 1.377 . S
C2817 C2815 1.389 . S
C2817 C2818 1.524 . S
C2818 C2817 1.524 . S
C2818 C2819 1.397 . S
C2818 C2823 1.363 . S
C2819 H2790 0.950 . S
C2819 C2818 1.397 . S
C2819 C2820 1.334 . S
C2820 H2791 0.950 . S
C2820 C2819 1.334 . S
C2820 C2821 1.287 . S
C2821 C2820 1.287 . S
C2821 C2822 1.524 . S
C2821 H2824 0.999 . S
C2822 H2792 0.950 . S
C2822 C2821 1.524 . S
C2822 C2823 1.415 . S
C2823 H2793 0.950 . S
C2823 C2818 1.363 . S
C2823 C2822 1.415 . S
H2824 C2821 0.999 . S
H2825 C2806 0.913 . S
H2826 C2844 0.951 . S
H2827 C2846 0.951 . S
H2828 C2848 0.991 . S
H2829 C2849 0.950 . S
H2830 C2851 0.950 . S
H2831 C2854 0.950 . S
H2832 C2855 0.950 . S
H2833 C2857 0.950 . S
H2834 C2858 0.950 . S
H2835 C2859 0.951 . S
H2836 C2861 0.951 . S
H2837 C2863 0.950 . S
H2838 C2864 0.950 . S
H2839 C2866 0.950 . S
H2840 C2869 0.950 . S
H2841 C2870 0.950 . S
H2842 C2872 0.950 . S
H2843 C2873 0.950 . S
C2844 H2826 0.951 . S
C2844 C2845 1.366 . S
C2844 C2846 1.388 1_565 S
C2845 C2844 1.366 . S
C2845 C2849 1.385 . S
C2846 H2827 0.951 . S
C2846 C2844 1.388 1_545 S
C2846 C2847 1.366 . S
C2847 C2846 1.366 . S
C2847 C2848 1.428 . S
C2847 C2850 1.499 . S
C2848 H2828 0.991 . S
C2848 C2847 1.428 . S
C2848 C2849 1.324 1_545 S
C2849 H2829 0.950 . S
C2849 C2845 1.385 . S
C2849 C2848 1.324 1_565 S
C2850 C2847 1.499 . S
C2850 C2851 1.373 . S
C2850 C2852 1.389 . S
C2851 H2830 0.950 . S
C2851 C2850 1.373 . S
C2851 C2867 1.377 . S
C2852 C2850 1.389 . S
C2852 C2853 1.524 . S
C2852 C2866 1.377 . S
C2853 C2852 1.524 . S
C2853 C2854 1.397 . S
C2853 C2858 1.363 . S
C2854 H2831 0.950 . S
C2854 C2853 1.397 . S
C2854 C2855 1.334 1_545 S
C2855 H2832 0.950 . S
C2855 C2854 1.334 1_565 S
C2855 C2856 1.287 1_565 S
C2856 C2855 1.287 1_545 S
C2856 C2857 1.524 . S
C2856 H2875 0.913 1_545 S
C2857 H2833 0.950 . S
C2857 C2856 1.524 . S
C2857 C2858 1.415 . S
C2858 H2834 0.950 . S
C2858 C2853 1.363 . S
C2858 C2857 1.415 . S
C2859 H2835 0.951 . S
C2859 C2860 1.366 . S
C2859 C2861 1.388 . S
C2860 C2859 1.366 . S
C2860 C2864 1.385 . S
C2861 H2836 0.951 . S
C2861 C2859 1.388 . S
C2861 C2862 1.366 . S
C2862 C2861 1.366 . S
C2862 C2863 1.414 . S
C2862 C2865 1.499 . S
C2863 H2837 0.950 . S
C2863 C2862 1.414 . S
C2863 C2864 1.374 . S
C2864 H2838 0.950 . S
C2864 C2860 1.385 . S
C2864 C2863 1.374 . S
C2865 C2862 1.499 . S
C2865 C2866 1.373 . S
C2865 C2867 1.389 . S
C2866 H2839 0.950 . S
C2866 C2852 1.377 . S
C2866 C2865 1.373 . S
C2867 C2851 1.377 . S
C2867 C2865 1.389 . S
C2867 C2868 1.524 . S
C2868 C2867 1.524 . S
C2868 C2869 1.397 . S
C2868 C2873 1.363 . S
C2869 H2840 0.950 . S
C2869 C2868 1.397 . S
C2869 C2870 1.334 . S
C2870 H2841 0.950 . S
C2870 C2869 1.334 . S
C2870 C2871 1.287 . S
C2871 C2870 1.287 . S
C2871 C2872 1.524 . S
C2871 H2874 0.999 . S
C2872 H2842 0.950 . S
C2872 C2871 1.524 . S
C2872 C2873 1.415 . S
C2873 H2843 0.950 . S
C2873 C2868 1.363 . S
C2873 C2872 1.415 . S
H2874 C2871 0.999 . S
H2875 C2856 0.913 1_565 S
H2876 C2894 0.951 . S
H2877 C2896 0.951 . S
H2878 C2898 0.950 . S
H2879 C2899 0.950 . S
H2880 C2901 0.950 . S
H2881 C2904 0.950 . S
H2882 C2905 0.950 1_455 S
H2883 C2907 0.950 . S
H2884 C2908 0.950 . S
H2885 C2909 0.951 . S
H2886 C2911 0.951 . S
H2887 C2913 0.950 . S
H2888 C2914 0.950 . S
H2889 C2916 0.950 . S
H2890 C2919 0.950 . S
H2891 C2920 0.950 . S
H2892 C2922 0.950 . S
H2893 C2923 0.950 . S
C2894 H2876 0.951 . S
C2894 C2895 1.366 . S
C2894 C2896 1.388 1_455 S
C2895 C2894 1.366 . S
C2895 C2899 1.385 . S
C2896 H2877 0.951 . S
C2896 C2894 1.388 1_655 S
C2896 C2897 1.366 . S
C2897 C2896 1.366 . S
C2897 C2898 1.414 . S
C2897 C2900 1.499 . S
C2898 H2878 0.950 . S
C2898 C2897 1.414 . S
C2898 C2899 1.374 1_655 S
C2899 H2879 0.950 . S
C2899 C2895 1.385 . S
C2899 C2898 1.374 1_455 S
C2900 C2897 1.499 . S
C2900 C2901 1.373 . S
C2900 C2902 1.389 . S
C2901 H2880 0.950 . S
C2901 C2900 1.373 . S
C2901 C2917 1.377 . S
C2902 C2900 1.389 . S
C2902 C2903 1.524 . S
C2902 C2916 1.377 . S
C2903 C2902 1.524 . S
C2903 C2904 1.397 . S
C2903 C2908 1.363 . S
C2904 H2881 0.950 . S
C2904 C2903 1.397 . S
C2904 C2905 1.334 . S
C2905 H2882 0.950 1_655 S
C2905 C2904 1.334 . S
C2905 C2906 1.287 . S
C2906 C2905 1.287 . S
C2906 C2907 1.524 . S
C2906 H2925 0.913 . S
C2907 H2883 0.950 . S
C2907 C2906 1.524 . S
C2907 C2908 1.415 . S
C2908 H2884 0.950 . S
C2908 C2903 1.363 . S
C2908 C2907 1.415 . S
C2909 H2885 0.951 . S
C2909 C2910 1.366 . S
C2909 C2911 1.388 . S
C2910 C2909 1.366 . S
C2910 C2914 1.385 . S
C2911 H2886 0.951 . S
C2911 C2909 1.388 . S
C2911 C2912 1.366 . S
C2912 C2911 1.366 . S
C2912 C2913 1.414 . S
C2912 C2915 1.499 . S
C2913 H2887 0.950 . S
C2913 C2912 1.414 . S
C2913 C2914 1.374 . S
C2914 H2888 0.950 . S
C2914 C2910 1.385 . S
C2914 C2913 1.374 . S
C2915 C2912 1.499 . S
C2915 C2916 1.373 . S
C2915 C2917 1.389 . S
C2916 H2889 0.950 . S
C2916 C2902 1.377 . S
C2916 C2915 1.373 . S
C2917 C2901 1.377 . S
C2917 C2915 1.389 . S
C2917 C2918 1.524 . S
C2918 C2917 1.524 . S
C2918 C2919 1.397 . S
C2918 C2923 1.363 . S
C2919 H2890 0.950 . S
C2919 C2918 1.397 . S
C2919 C2920 1.334 . S
C2920 H2891 0.950 . S
C2920 C2919 1.334 . S
C2920 C2921 1.287 . S
C2921 C2920 1.287 . S
C2921 C2922 1.524 . S
C2921 H2924 0.999 . S
C2922 H2892 0.950 . S
C2922 C2921 1.524 . S
C2922 C2923 1.415 . S
C2923 H2893 0.950 . S
C2923 C2918 1.363 . S
C2923 C2922 1.415 . S
H2924 C2921 0.999 . S
H2925 C2906 0.913 . S
H2926 C2944 0.951 . S
H2927 C2946 0.951 . S
H2928 C2948 0.950 . S
H2929 C2949 0.950 . S
H2930 C2951 0.950 . S
H2931 C2954 0.950 . S
H2932 C2955 0.950 . S
H2933 C2957 0.950 . S
H2934 C2958 0.950 . S
H2935 C2959 0.951 . S
H2936 C2961 0.951 . S
H2937 C2963 0.950 . S
H2938 C2964 0.950 . S
H2939 C2966 0.950 . S
H2940 C2969 0.950 . S
H2941 C2970 0.950 . S
H2942 C2972 0.950 . S
H2943 C2973 0.950 . S
C2944 H2926 0.951 . S
C2944 C2945 1.366 . S
C2944 C2946 1.388 . S
C2945 C2944 1.366 . S
C2945 C2949 1.385 . S
C2946 H2927 0.951 . S
C2946 C2944 1.388 . S
C2946 C2947 1.366 . S
C2947 C2946 1.366 . S
C2947 C2948 1.414 . S
C2947 C2950 1.499 . S
C2948 H2928 0.950 . S
C2948 C2947 1.414 . S
C2948 C2949 1.374 . S
C2949 H2929 0.950 . S
C2949 C2945 1.385 . S
C2949 C2948 1.374 . S
C2950 C2947 1.499 . S
C2950 C2951 1.373 . S
C2950 C2952 1.389 . S
C2951 H2930 0.950 . S
C2951 C2950 1.373 . S
C2951 C2967 1.377 . S
C2952 C2950 1.389 . S
C2952 C2953 1.524 . S
C2952 C2966 1.377 . S
C2953 C2952 1.524 . S
C2953 C2954 1.397 . S
C2953 C2958 1.363 . S
C2954 H2931 0.950 . S
C2954 C2953 1.397 . S
C2954 C2955 1.334 . S
C2955 H2932 0.950 . S
C2955 C2954 1.334 . S
C2955 C2956 1.287 . S
C2956 C2955 1.287 . S
C2956 C2957 1.524 . S
C2956 H2975 0.913 . S
C2957 H2933 0.950 . S
C2957 C2956 1.524 . S
C2957 C2958 1.415 . S
C2958 H2934 0.950 . S
C2958 C2953 1.363 . S
C2958 C2957 1.415 . S
C2959 H2935 0.951 . S
C2959 C2960 1.366 . S
C2959 C2961 1.388 . S
C2960 C2959 1.366 . S
C2960 C2964 1.385 . S
C2961 H2936 0.951 . S
C2961 C2959 1.388 . S
C2961 C2962 1.366 . S
C2962 C2961 1.366 . S
C2962 C2963 1.414 . S
C2962 C2965 1.499 . S
C2963 H2937 0.950 . S
C2963 C2962 1.414 . S
C2963 C2964 1.374 . S
C2964 H2938 0.950 . S
C2964 C2960 1.385 . S
C2964 C2963 1.374 . S
C2965 C2962 1.499 . S
C2965 C2966 1.373 . S
C2965 C2967 1.389 . S
C2966 H2939 0.950 . S
C2966 C2952 1.377 . S
C2966 C2965 1.373 . S
C2967 C2951 1.377 . S
C2967 C2965 1.389 . S
C2967 C2968 1.524 . S
C2968 C2967 1.524 . S
C2968 C2969 1.397 . S
C2968 C2973 1.363 . S
C2969 H2940 0.950 . S
C2969 C2968 1.397 . S
C2969 C2970 1.334 . S
C2970 H2941 0.950 . S
C2970 C2969 1.334 . S
C2970 C2971 1.287 . S
C2971 C2970 1.287 . S
C2971 C2972 1.524 . S
C2971 H2974 0.999 . S
C2972 H2942 0.950 . S
C2972 C2971 1.524 . S
C2972 C2973 1.415 . S
C2973 H2943 0.950 . S
C2973 C2968 1.363 . S
C2973 C2972 1.415 . S
H2974 C2971 0.999 . S
H2975 C2956 0.913 . S
H2976 C2994 0.951 . S
H2977 C2996 0.951 . S
H2978 C2998 0.950 . S
H2979 C2999 0.950 . S
H2980 C3001 0.950 . S
H2981 C3004 0.950 . S
H2982 C3005 0.950 . S
H2983 C3007 0.950 . S
H2984 C3008 0.950 . S
H2985 C3009 0.951 . S
H2986 C3011 0.951 . S
H2987 C3013 0.950 . S
H2988 C3014 0.950 . S
H2989 C3016 0.950 . S
H2990 C3019 0.950 . S
H2991 C3020 0.950 . S
H2992 C3022 0.950 . S
H2993 C3023 0.950 . S
C2994 H2976 0.951 . S
C2994 C2995 1.366 . S
C2994 C2996 1.388 1_455 S
C2995 C2994 1.366 . S
C2995 C2999 1.385 . S
C2996 H2977 0.951 . S
C2996 C2994 1.388 1_655 S
C2996 C2997 1.366 . S
C2997 C2996 1.366 . S
C2997 C2998 1.414 . S
C2997 C3000 1.499 . S
C2998 H2978 0.950 . S
C2998 C2997 1.414 . S
C2998 C2999 1.374 1_655 S
C2999 H2979 0.950 . S
C2999 C2995 1.385 . S
C2999 C2998 1.374 1_455 S
C3000 C2997 1.499 . S
C3000 C3001 1.373 . S
C3000 C3002 1.389 . S
C3001 H2980 0.950 . S
C3001 C3000 1.373 . S
C3001 C3017 1.377 . S
C3002 C3000 1.389 . S
C3002 C3003 1.524 . S
C3002 C3016 1.377 . S
C3003 C3002 1.524 . S
C3003 C3004 1.397 . S
C3003 C3008 1.363 . S
C3004 H2981 0.950 . S
C3004 C3003 1.397 . S
C3004 C3005 1.334 1_655 S
C3005 H2982 0.950 . S
C3005 C3004 1.334 1_455 S
C3005 C3006 1.284 1_455 S
C3006 C3005 1.284 1_655 S
C3006 C3007 1.529 . S
C3006 H3025 0.911 1_655 S
C3007 H2983 0.950 . S
C3007 C3006 1.529 . S
C3007 C3008 1.415 . S
C3008 H2984 0.950 . S
C3008 C3003 1.363 . S
C3008 C3007 1.415 . S
C3009 H2985 0.951 . S
C3009 C3010 1.366 . S
C3009 C3011 1.388 . S
C3010 C3009 1.366 . S
C3010 C3014 1.385 . S
C3011 H2986 0.951 . S
C3011 C3009 1.388 . S
C3011 C3012 1.366 . S
C3012 C3011 1.366 . S
C3012 C3013 1.414 . S
C3012 C3015 1.499 . S
C3013 H2987 0.950 . S
C3013 C3012 1.414 . S
C3013 C3014 1.374 . S
C3014 H2988 0.950 . S
C3014 C3010 1.385 . S
C3014 C3013 1.374 . S
C3015 C3012 1.499 . S
C3015 C3016 1.373 . S
C3015 C3017 1.389 . S
C3016 H2989 0.950 . S
C3016 C3002 1.377 . S
C3016 C3015 1.373 . S
C3017 C3001 1.377 . S
C3017 C3015 1.389 . S
C3017 C3018 1.524 . S
C3018 C3017 1.524 . S
C3018 C3019 1.397 . S
C3018 C3023 1.363 . S
C3019 H2990 0.950 . S
C3019 C3018 1.397 . S
C3019 C3020 1.334 . S
C3020 H2991 0.950 . S
C3020 C3019 1.334 . S
C3020 C3021 1.287 . S
C3021 C3020 1.287 . S
C3021 C3022 1.524 . S
C3021 H3024 0.999 . S
C3022 H2992 0.950 . S
C3022 C3021 1.524 . S
C3022 C3023 1.415 . S
C3023 H2993 0.950 . S
C3023 C3018 1.363 . S
C3023 C3022 1.415 . S
H3024 C3021 0.999 . S
H3025 C3006 0.911 1_455 S
H3026 C3044 0.951 . S
H3027 C3046 0.951 . S
H3028 C3048 0.950 . S
H3029 C3049 0.950 . S
H3030 C3051 0.950 . S
H3031 C3054 0.950 . S
H3032 C3055 0.950 . S
H3033 C3057 0.950 . S
H3034 C3058 0.950 . S
H3035 C3059 0.951 . S
H3036 C3061 0.951 . S
H3037 C3063 0.950 . S
H3038 C3064 0.950 . S
H3039 C3066 0.950 . S
H3040 C3069 0.950 . S
H3041 C3070 0.950 . S
H3042 C3072 0.950 . S
H3043 C3073 0.950 . S
C3044 H3026 0.951 . S
C3044 C3045 1.366 . S
C3044 C3046 1.388 . S
C3045 C3044 1.366 . S
C3045 C3049 1.385 . S
C3046 H3027 0.951 . S
C3046 C3044 1.388 . S
C3046 C3047 1.366 . S
C3047 C3046 1.366 . S
C3047 C3048 1.414 . S
C3047 C3050 1.499 . S
C3048 H3028 0.950 . S
C3048 C3047 1.414 . S
C3048 C3049 1.374 . S
C3049 H3029 0.950 . S
C3049 C3045 1.385 . S
C3049 C3048 1.374 . S
C3050 C3047 1.499 . S
C3050 C3051 1.373 . S
C3050 C3052 1.389 . S
C3051 H3030 0.950 . S
C3051 C3050 1.373 . S
C3051 C3067 1.377 . S
C3052 C3050 1.389 . S
C3052 C3053 1.524 . S
C3052 C3066 1.377 . S
C3053 C3052 1.524 . S
C3053 C3054 1.397 . S
C3053 C3058 1.363 . S
C3054 H3031 0.950 . S
C3054 C3053 1.397 . S
C3054 C3055 1.334 . S
C3055 H3032 0.950 . S
C3055 C3054 1.334 . S
C3055 C3056 1.287 . S
C3056 C3055 1.287 . S
C3056 C3057 1.524 . S
C3056 H3075 0.913 . S
C3057 H3033 0.950 . S
C3057 C3056 1.524 . S
C3057 C3058 1.415 . S
C3058 H3034 0.950 . S
C3058 C3053 1.363 . S
C3058 C3057 1.415 . S
C3059 H3035 0.951 . S
C3059 C3060 1.366 . S
C3059 C3061 1.388 . S
C3060 C3059 1.366 . S
C3060 C3064 1.385 . S
C3061 H3036 0.951 . S
C3061 C3059 1.388 . S
C3061 C3062 1.366 . S
C3062 C3061 1.366 . S
C3062 C3063 1.414 . S
C3062 C3065 1.499 . S
C3063 H3037 0.950 . S
C3063 C3062 1.414 . S
C3063 C3064 1.374 . S
C3064 H3038 0.950 . S
C3064 C3060 1.385 . S
C3064 C3063 1.374 . S
C3065 C3062 1.499 . S
C3065 C3066 1.373 . S
C3065 C3067 1.389 . S
C3066 H3039 0.950 . S
C3066 C3052 1.377 . S
C3066 C3065 1.373 . S
C3067 C3051 1.377 . S
C3067 C3065 1.389 . S
C3067 C3068 1.524 . S
C3068 C3067 1.524 . S
C3068 C3069 1.397 . S
C3068 C3073 1.363 . S
C3069 H3040 0.950 . S
C3069 C3068 1.397 . S
C3069 C3070 1.334 . S
C3070 H3041 0.950 . S
C3070 C3069 1.334 . S
C3070 C3071 1.287 . S
C3071 C3070 1.287 . S
C3071 C3072 1.524 . S
C3071 H3074 0.999 . S
C3072 H3042 0.950 . S
C3072 C3071 1.524 . S
C3072 C3073 1.415 . S
C3073 H3043 0.950 . S
C3073 C3068 1.363 . S
C3073 C3072 1.415 . S
H3074 C3071 0.999 . S
H3075 C3056 0.913 . S
H3076 C3094 0.951 . S
H3077 C3096 0.951 . S
H3078 C3098 0.905 1_545 S
H3079 C3099 0.950 . S
H3080 C3101 0.950 . S
H3081 C3104 0.950 . S
H3082 C3105 0.950 1_565 S
H3083 C3107 0.950 . S
H3084 C3108 0.950 . S
H3085 C3109 0.951 . S
H3086 C3111 0.951 . S
H3087 C3113 0.950 . S
H3088 C3114 0.950 . S
H3089 C3116 0.950 . S
H3090 C3119 0.950 . S
H3091 C3120 0.950 . S
H3092 C3122 0.950 . S
H3093 C3123 0.950 . S
C3094 H3076 0.951 . S
C3094 C3095 1.366 . S
C3094 C3096 1.388 1_565 S
C3095 C3094 1.366 . S
C3095 C3099 1.385 . S
C3096 H3077 0.951 . S
C3096 C3094 1.388 1_545 S
C3096 C3097 1.366 . S
C3097 C3096 1.366 . S
C3097 C3098 1.414 1_545 S
C3097 C3100 1.499 . S
C3098 H3078 0.905 1_565 S
C3098 C3097 1.414 1_565 S
C3098 C3099 1.374 . S
C3099 H3079 0.950 . S
C3099 C3095 1.385 . S
C3099 C3098 1.374 . S
C3100 C3097 1.499 . S
C3100 C3101 1.373 . S
C3100 C3102 1.389 . S
C3101 H3080 0.950 . S
C3101 C3100 1.373 . S
C3101 C3117 1.377 . S
C3102 C3100 1.389 . S
C3102 C3103 1.524 . S
C3102 C3116 1.377 . S
C3103 C3102 1.524 . S
C3103 C3104 1.397 . S
C3103 C3108 1.363 . S
C3104 H3081 0.950 . S
C3104 C3103 1.397 . S
C3104 C3105 1.334 . S
C3105 H3082 0.950 1_545 S
C3105 C3104 1.334 . S
C3105 C3106 1.287 . S
C3106 C3105 1.287 . S
C3106 C3107 1.524 . S
C3106 H3125 0.913 . S
C3107 H3083 0.950 . S
C3107 C3106 1.524 . S
C3107 C3108 1.415 . S
C3108 H3084 0.950 . S
C3108 C3103 1.363 . S
C3108 C3107 1.415 . S
C3109 H3085 0.951 . S
C3109 C3110 1.366 . S
C3109 C3111 1.388 . S
C3110 C3109 1.366 . S
C3110 C3114 1.385 . S
C3111 H3086 0.951 . S
C3111 C3109 1.388 . S
C3111 C3112 1.366 . S
C3112 C3111 1.366 . S
C3112 C3113 1.414 . S
C3112 C3115 1.499 . S
C3113 H3087 0.950 . S
C3113 C3112 1.414 . S
C3113 C3114 1.374 . S
C3114 H3088 0.950 . S
C3114 C3110 1.385 . S
C3114 C3113 1.374 . S
C3115 C3112 1.499 . S
C3115 C3116 1.373 . S
C3115 C3117 1.389 . S
C3116 H3089 0.950 . S
C3116 C3102 1.377 . S
C3116 C3115 1.373 . S
C3117 C3101 1.377 . S
C3117 C3115 1.389 . S
C3117 C3118 1.524 . S
C3118 C3117 1.524 . S
C3118 C3119 1.397 . S
C3118 C3123 1.363 . S
C3119 H3090 0.950 . S
C3119 C3118 1.397 . S
C3119 C3120 1.334 . S
C3120 H3091 0.950 . S
C3120 C3119 1.334 . S
C3120 C3121 1.287 . S
C3121 C3120 1.287 . S
C3121 C3122 1.524 . S
C3121 H3124 0.999 . S
C3122 H3092 0.950 . S
C3122 C3121 1.524 . S
C3122 C3123 1.415 . S
C3123 H3093 0.950 . S
C3123 C3118 1.363 . S
C3123 C3122 1.415 . S
H3124 C3121 0.999 . S
H3125 C3106 0.913 . S
H3126 C3144 0.951 . S
H3127 C3146 0.951 . S
H3128 C3148 0.950 . S
H3129 C3149 0.950 . S
H3130 C3151 0.950 . S
H3131 C3154 0.950 . S
H3132 C3155 0.950 . S
H3133 C3157 0.950 . S
H3134 C3158 0.950 . S
H3135 C3159 0.951 . S
H3136 C3161 0.951 . S
H3137 C3163 0.950 . S
H3138 C3164 0.950 . S
H3139 C3166 0.950 . S
H3140 C3169 0.950 . S
H3141 C3170 0.950 . S
H3142 C3172 0.950 . S
H3143 C3173 0.950 . S
C3144 H3126 0.951 . S
C3144 C3145 1.366 . S
C3144 C3146 1.388 . S
C3145 C3144 1.366 . S
C3145 C3149 1.385 . S
C3146 H3127 0.951 . S
C3146 C3144 1.388 . S
C3146 C3147 1.366 . S
C3147 C3146 1.366 . S
C3147 C3148 1.414 . S
C3147 C3150 1.499 . S
C3148 H3128 0.950 . S
C3148 C3147 1.414 . S
C3148 C3149 1.374 . S
C3149 H3129 0.950 . S
C3149 C3145 1.385 . S
C3149 C3148 1.374 . S
C3150 C3147 1.499 . S
C3150 C3151 1.373 . S
C3150 C3152 1.389 . S
C3151 H3130 0.950 . S
C3151 C3150 1.373 . S
C3151 C3167 1.377 . S
C3152 C3150 1.389 . S
C3152 C3153 1.524 . S
C3152 C3166 1.377 . S
C3153 C3152 1.524 . S
C3153 C3154 1.397 . S
C3153 C3158 1.363 . S
C3154 H3131 0.950 . S
C3154 C3153 1.397 . S
C3154 C3155 1.334 . S
C3155 H3132 0.950 . S
C3155 C3154 1.334 . S
C3155 C3156 1.287 . S
C3156 C3155 1.287 . S
C3156 C3157 1.524 . S
C3156 H3175 0.913 . S
C3157 H3133 0.950 . S
C3157 C3156 1.524 . S
C3157 C3158 1.415 . S
C3158 H3134 0.950 . S
C3158 C3153 1.363 . S
C3158 C3157 1.415 . S
C3159 H3135 0.951 . S
C3159 C3160 1.366 . S
C3159 C3161 1.388 . S
C3160 C3159 1.366 . S
C3160 C3164 1.385 . S
C3161 H3136 0.951 . S
C3161 C3159 1.388 . S
C3161 C3162 1.366 . S
C3162 C3161 1.366 . S
C3162 C3163 1.414 . S
C3162 C3165 1.499 . S
C3163 H3137 0.950 . S
C3163 C3162 1.414 . S
C3163 C3164 1.374 . S
C3164 H3138 0.950 . S
C3164 C3160 1.385 . S
C3164 C3163 1.374 . S
C3165 C3162 1.499 . S
C3165 C3166 1.373 . S
C3165 C3167 1.389 . S
C3166 H3139 0.950 . S
C3166 C3152 1.377 . S
C3166 C3165 1.373 . S
C3167 C3151 1.377 . S
C3167 C3165 1.389 . S
C3167 C3168 1.524 . S
C3168 C3167 1.524 . S
C3168 C3169 1.397 . S
C3168 C3173 1.363 . S
C3169 H3140 0.950 . S
C3169 C3168 1.397 . S
C3169 C3170 1.334 . S
C3170 H3141 0.950 . S
C3170 C3169 1.334 . S
C3170 C3171 1.287 . S
C3171 C3170 1.287 . S
C3171 C3172 1.524 . S
C3171 H3174 0.999 . S
C3172 H3142 0.950 . S
C3172 C3171 1.524 . S
C3172 C3173 1.415 . S
C3173 H3143 0.950 . S
C3173 C3168 1.363 . S
C3173 C3172 1.415 . S
H3174 C3171 0.999 . S
H3175 C3156 0.913 . S
H3176 C3194 0.951 . S
H3177 C3196 0.951 . S
H3178 C3198 0.950 . S
H3179 C3199 0.950 . S
H3180 C3201 0.950 . S
H3181 C3204 0.950 . S
H3182 C3205 0.950 . S
H3183 C3207 0.950 . S
H3184 C3208 0.950 . S
H3185 C3209 0.951 . S
H3186 C3211 0.951 . S
H3187 C3213 0.950 . S
H3188 C3214 0.950 . S
H3189 C3216 0.950 . S
H3190 C3219 0.950 . S
H3191 C3220 0.950 . S
H3192 C3222 0.950 . S
H3193 C3223 0.950 . S
C3194 H3176 0.951 . S
C3194 C3195 1.366 . S
C3194 C3196 1.388 . S
C3195 C3194 1.366 . S
C3195 C3199 1.385 . S
C3196 H3177 0.951 . S
C3196 C3194 1.388 . S
C3196 C3197 1.366 . S
C3197 C3196 1.366 . S
C3197 C3198 1.414 . S
C3197 C3200 1.499 . S
C3198 H3178 0.950 . S
C3198 C3197 1.414 . S
C3198 C3199 1.374 . S
C3199 H3179 0.950 . S
C3199 C3195 1.385 . S
C3199 C3198 1.374 . S
C3200 C3197 1.499 . S
C3200 C3201 1.373 . S
C3200 C3202 1.389 . S
C3201 H3180 0.950 . S
C3201 C3200 1.373 . S
C3201 C3217 1.377 . S
C3202 C3200 1.389 . S
C3202 C3203 1.524 . S
C3202 C3216 1.377 . S
C3203 C3202 1.524 . S
C3203 C3204 1.397 . S
C3203 C3208 1.363 . S
C3204 H3181 0.950 . S
C3204 C3203 1.397 . S
C3204 C3205 1.334 . S
C3205 H3182 0.950 . S
C3205 C3204 1.334 . S
C3205 C3206 1.287 . S
C3206 C3205 1.287 . S
C3206 C3207 1.524 . S
C3206 H3225 0.913 . S
C3207 H3183 0.950 . S
C3207 C3206 1.524 . S
C3207 C3208 1.415 . S
C3208 H3184 0.950 . S
C3208 C3203 1.363 . S
C3208 C3207 1.415 . S
C3209 H3185 0.951 . S
C3209 C3210 1.366 . S
C3209 C3211 1.388 . S
C3210 C3209 1.366 . S
C3210 C3214 1.385 . S
C3211 H3186 0.951 . S
C3211 C3209 1.388 . S
C3211 C3212 1.366 . S
C3212 C3211 1.366 . S
C3212 C3213 1.414 . S
C3212 C3215 1.499 . S
C3213 H3187 0.950 . S
C3213 C3212 1.414 . S
C3213 C3214 1.374 . S
C3214 H3188 0.950 . S
C3214 C3210 1.385 . S
C3214 C3213 1.374 . S
C3215 C3212 1.499 . S
C3215 C3216 1.373 . S
C3215 C3217 1.389 . S
C3216 H3189 0.950 . S
C3216 C3202 1.377 . S
C3216 C3215 1.373 . S
C3217 C3201 1.377 . S
C3217 C3215 1.389 . S
C3217 C3218 1.524 . S
C3218 C3217 1.524 . S
C3218 C3219 1.397 . S
C3218 C3223 1.363 . S
C3219 H3190 0.950 . S
C3219 C3218 1.397 . S
C3219 C3220 1.334 . S
C3220 H3191 0.950 . S
C3220 C3219 1.334 . S
C3220 C3221 1.287 . S
C3221 C3220 1.287 . S
C3221 C3222 1.524 . S
C3221 H3224 0.999 . S
C3222 H3192 0.950 . S
C3222 C3221 1.524 . S
C3222 C3223 1.415 . S
C3223 H3193 0.950 . S
C3223 C3218 1.363 . S
C3223 C3222 1.415 . S
H3224 C3221 0.999 . S
H3225 C3206 0.913 . S
H3226 C3244 0.951 . S
H3227 C3246 0.951 . S
H3228 C3248 0.950 . S
H3229 C3249 0.950 . S
H3230 C3251 0.950 . S
H3231 C3254 0.950 . S
H3232 C3255 0.950 . S
H3233 C3257 0.950 . S
H3234 C3258 0.950 . S
H3235 C3259 0.951 . S
H3236 C3261 0.951 . S
H3237 C3263 0.950 . S
H3238 C3264 0.950 . S
H3239 C3266 0.950 . S
H3240 C3269 0.950 . S
H3241 C3270 0.950 . S
H3242 C3272 0.950 . S
H3243 C3273 0.950 . S
C3244 H3226 0.951 . S
C3244 C3245 1.366 . S
C3244 C3246 1.388 . S
C3245 C3244 1.366 . S
C3245 C3249 1.385 . S
C3246 H3227 0.951 . S
C3246 C3244 1.388 . S
C3246 C3247 1.366 . S
C3247 C3246 1.366 . S
C3247 C3248 1.414 . S
C3247 C3250 1.499 . S
C3248 H3228 0.950 . S
C3248 C3247 1.414 . S
C3248 C3249 1.374 . S
C3249 H3229 0.950 . S
C3249 C3245 1.385 . S
C3249 C3248 1.374 . S
C3250 C3247 1.499 . S
C3250 C3251 1.373 . S
C3250 C3252 1.389 . S
C3251 H3230 0.950 . S
C3251 C3250 1.373 . S
C3251 C3267 1.377 . S
C3252 C3250 1.389 . S
C3252 C3253 1.524 . S
C3252 C3266 1.377 . S
C3253 C3252 1.524 . S
C3253 C3254 1.397 . S
C3253 C3258 1.363 . S
C3254 H3231 0.950 . S
C3254 C3253 1.397 . S
C3254 C3255 1.334 . S
C3255 H3232 0.950 . S
C3255 C3254 1.334 . S
C3255 C3256 1.287 . S
C3256 C3255 1.287 . S
C3256 C3257 1.524 . S
C3256 H3275 0.913 . S
C3257 H3233 0.950 . S
C3257 C3256 1.524 . S
C3257 C3258 1.415 . S
C3258 H3234 0.950 . S
C3258 C3253 1.363 . S
C3258 C3257 1.415 . S
C3259 H3235 0.951 . S
C3259 C3260 1.366 . S
C3259 C3261 1.388 . S
C3260 C3259 1.366 . S
C3260 C3264 1.385 . S
C3261 H3236 0.951 . S
C3261 C3259 1.388 . S
C3261 C3262 1.366 . S
C3262 C3261 1.366 . S
C3262 C3263 1.414 . S
C3262 C3265 1.499 . S
C3263 H3237 0.950 . S
C3263 C3262 1.414 . S
C3263 C3264 1.374 . S
C3264 H3238 0.950 . S
C3264 C3260 1.385 . S
C3264 C3263 1.374 . S
C3265 C3262 1.499 . S
C3265 C3266 1.373 . S
C3265 C3267 1.389 . S
C3266 H3239 0.950 . S
C3266 C3252 1.377 . S
C3266 C3265 1.373 . S
C3267 C3251 1.377 . S
C3267 C3265 1.389 . S
C3267 C3268 1.524 . S
C3268 C3267 1.524 . S
C3268 C3269 1.397 . S
C3268 C3273 1.363 . S
C3269 H3240 0.950 . S
C3269 C3268 1.397 . S
C3269 C3270 1.334 . S
C3270 H3241 0.950 . S
C3270 C3269 1.334 . S
C3270 C3271 1.287 . S
C3271 C3270 1.287 . S
C3271 C3272 1.524 . S
C3271 H3274 0.999 . S
C3272 H3242 0.950 . S
C3272 C3271 1.524 . S
C3272 C3273 1.415 . S
C3273 H3243 0.950 . S
C3273 C3268 1.363 . S
C3273 C3272 1.415 . S
H3274 C3271 0.999 . S
H3275 C3256 0.913 . S
H3276 C3294 0.951 . S
H3277 C3296 0.951 . S
H3278 C3298 0.950 . S
H3279 C3299 0.950 . S
H3280 C3301 0.950 . S
H3281 C3304 0.950 . S
H3282 C3305 0.950 . S
H3283 C3307 0.950 . S
H3284 C3308 0.950 . S
H3285 C3309 0.982 . S
H3286 C3311 0.951 . S
H3287 C3313 0.950 . S
H3288 C3314 0.950 . S
H3289 C3316 0.950 . S
H3290 C3319 0.950 . S
H3291 C3320 0.950 . S
H3292 C3322 0.950 . S
H3293 C3323 0.950 . S
C3294 H3276 0.951 . S
C3294 C3295 1.366 . S
C3294 C3296 1.388 . S
C3295 C3294 1.366 . S
C3295 C3299 1.385 . S
C3296 H3277 0.951 . S
C3296 C3294 1.388 . S
C3296 C3297 1.366 . S
C3297 C3296 1.366 . S
C3297 C3298 1.414 . S
C3297 C3300 1.499 . S
C3298 H3278 0.950 . S
C3298 C3297 1.414 . S
C3298 C3299 1.374 . S
C3299 H3279 0.950 . S
C3299 C3295 1.385 . S
C3299 C3298 1.374 . S
C3300 C3297 1.499 . S
C3300 C3301 1.373 . S
C3300 C3302 1.389 . S
C3301 H3280 0.950 . S
C3301 C3300 1.373 . S
C3301 C3317 1.377 . S
C3302 C3300 1.389 . S
C3302 C3303 1.524 . S
C3302 C3316 1.377 . S
C3303 C3302 1.524 . S
C3303 C3304 1.397 . S
C3303 C3308 1.363 . S
C3304 H3281 0.950 . S
C3304 C3303 1.397 . S
C3304 C3305 1.334 . S
C3305 H3282 0.950 . S
C3305 C3304 1.334 . S
C3305 C3306 1.287 . S
C3306 C3305 1.287 . S
C3306 C3307 1.524 . S
C3306 H3325 0.913 . S
C3307 H3283 0.950 . S
C3307 C3306 1.524 . S
C3307 C3308 1.415 . S
C3308 H3284 0.950 . S
C3308 C3303 1.363 . S
C3308 C3307 1.415 . S
C3309 H3285 0.982 . S
C3309 C3310 1.366 . S
C3309 C3311 1.388 . S
C3310 C3309 1.366 . S
C3310 C3314 1.385 . S
C3311 H3286 0.951 . S
C3311 C3309 1.388 . S
C3311 C3312 1.366 . S
C3312 C3311 1.366 . S
C3312 C3313 1.414 . S
C3312 C3315 1.499 . S
C3313 H3287 0.950 . S
C3313 C3312 1.414 . S
C3313 C3314 1.374 . S
C3314 H3288 0.950 . S
C3314 C3310 1.385 . S
C3314 C3313 1.374 . S
C3315 C3312 1.499 . S
C3315 C3316 1.373 . S
C3315 C3317 1.389 . S
C3316 H3289 0.950 . S
C3316 C3302 1.377 . S
C3316 C3315 1.373 . S
C3317 C3301 1.377 . S
C3317 C3315 1.389 . S
C3317 C3318 1.524 . S
C3318 C3317 1.524 . S
C3318 C3319 1.397 . S
C3318 C3323 1.363 . S
C3319 H3290 0.950 . S
C3319 C3318 1.397 . S
C3319 C3320 1.334 . S
C3320 H3291 0.950 . S
C3320 C3319 1.334 . S
C3320 C3321 1.287 . S
C3321 C3320 1.287 . S
C3321 C3322 1.524 . S
C3321 H3324 0.999 . S
C3322 H3292 0.950 . S
C3322 C3321 1.524 . S
C3322 C3323 1.415 . S
C3323 H3293 0.950 . S
C3323 C3318 1.363 . S
C3323 C3322 1.415 . S
H3324 C3321 0.999 . S
H3325 C3306 0.913 . S
H3326 C3344 0.951 . S
H3327 C3346 0.951 . S
H3328 C3348 0.950 . S
H3329 C3349 0.950 . S
H3330 C3351 0.950 . S
H3331 C3354 0.950 . S
H3332 C3355 0.950 . S
H3333 C3357 0.950 . S
H3334 C3358 0.950 . S
H3335 C3359 0.951 . S
H3336 C3361 0.951 . S
H3337 C3363 0.950 . S
H3338 C3364 0.950 . S
H3339 C3366 0.950 . S
H3340 C3369 0.950 1_455 S
H3341 C3370 0.950 . S
H3342 C3372 0.950 . S
H3343 C3373 0.950 . S
C3344 H3326 0.951 . S
C3344 C3345 1.366 . S
C3344 C3346 1.388 . S
C3345 C3344 1.366 . S
C3345 C3349 1.385 . S
C3346 H3327 0.951 . S
C3346 C3344 1.388 . S
C3346 C3347 1.366 . S
C3347 C3346 1.366 . S
C3347 C3348 1.414 . S
C3347 C3350 1.499 . S
C3348 H3328 0.950 . S
C3348 C3347 1.414 . S
C3348 C3349 1.374 . S
C3349 H3329 0.950 . S
C3349 C3345 1.385 . S
C3349 C3348 1.374 . S
C3350 C3347 1.499 . S
C3350 C3351 1.373 . S
C3350 C3352 1.389 . S
C3351 H3330 0.950 . S
C3351 C3350 1.373 . S
C3351 C3367 1.377 . S
C3352 C3350 1.389 . S
C3352 C3353 1.524 . S
C3352 C3366 1.377 . S
C3353 C3352 1.524 . S
C3353 C3354 1.397 . S
C3353 C3358 1.363 . S
C3354 H3331 0.950 . S
C3354 C3353 1.397 . S
C3354 C3355 1.334 . S
C3355 H3332 0.950 . S
C3355 C3354 1.334 . S
C3355 C3356 1.287 . S
C3356 C3355 1.287 . S
C3356 C3357 1.524 . S
C3356 H3375 0.913 . S
C3357 H3333 0.950 . S
C3357 C3356 1.524 . S
C3357 C3358 1.415 . S
C3358 H3334 0.950 . S
C3358 C3353 1.363 . S
C3358 C3357 1.415 . S
C3359 H3335 0.951 . S
C3359 C3360 1.366 . S
C3359 C3361 1.388 . S
C3360 C3359 1.366 . S
C3360 C3364 1.385 . S
C3361 H3336 0.951 . S
C3361 C3359 1.388 . S
C3361 C3362 1.366 . S
C3362 C3361 1.366 . S
C3362 C3363 1.414 . S
C3362 C3365 1.499 . S
C3363 H3337 0.950 . S
C3363 C3362 1.414 . S
C3363 C3364 1.374 . S
C3364 H3338 0.950 . S
C3364 C3360 1.385 . S
C3364 C3363 1.374 . S
C3365 C3362 1.499 . S
C3365 C3366 1.373 . S
C3365 C3367 1.389 . S
C3366 H3339 0.950 . S
C3366 C3352 1.377 . S
C3366 C3365 1.373 . S
C3367 C3351 1.377 . S
C3367 C3365 1.389 . S
C3367 C3368 1.524 1_455 S
C3368 C3367 1.524 1_655 S
C3368 C3369 1.397 . S
C3368 C3373 1.363 . S
C3369 H3340 0.950 1_655 S
C3369 C3368 1.397 . S
C3369 C3370 1.334 . S
C3370 H3341 0.950 . S
C3370 C3369 1.334 . S
C3370 C3371 1.287 . S
C3371 C3370 1.287 . S
C3371 C3372 1.524 . S
C3371 H3374 0.999 . S
C3372 H3342 0.950 . S
C3372 C3371 1.524 . S
C3372 C3373 1.415 . S
C3373 H3343 0.950 . S
C3373 C3368 1.363 . S
C3373 C3372 1.415 . S
H3374 C3371 0.999 . S
H3375 C3356 0.913 . S
H3376 C3394 0.951 . S
H3377 C3396 0.951 . S
H3378 C3398 0.950 . S
H3379 C3399 0.950 . S
H3380 C3401 0.950 . S
H3381 C3404 0.950 . S
H3382 C3405 0.950 . S
H3383 C3407 0.950 . S
H3384 C3408 0.950 . S
H3385 C3409 0.951 . S
H3386 C3411 0.951 . S
H3387 C3413 0.950 . S
H3388 C3414 0.950 . S
H3389 C3416 0.950 . S
H3390 C3419 0.950 . S
H3391 C3420 0.950 . S
H3392 C3422 0.950 . S
H3393 C3423 0.950 . S
C3394 H3376 0.951 . S
C3394 C3395 1.366 . S
C3394 C3396 1.388 . S
C3395 C3394 1.366 . S
C3395 C3399 1.385 . S
C3396 H3377 0.951 . S
C3396 C3394 1.388 . S
C3396 C3397 1.366 . S
C3397 C3396 1.366 . S
C3397 C3398 1.414 . S
C3397 C3400 1.499 . S
C3398 H3378 0.950 . S
C3398 C3397 1.414 . S
C3398 C3399 1.374 . S
C3399 H3379 0.950 . S
C3399 C3395 1.385 . S
C3399 C3398 1.374 . S
C3400 C3397 1.499 . S
C3400 C3401 1.373 . S
C3400 C3402 1.389 . S
C3401 H3380 0.950 . S
C3401 C3400 1.373 . S
C3401 C3417 1.377 . S
C3402 C3400 1.389 . S
C3402 C3403 1.524 . S
C3402 C3416 1.377 . S
C3403 C3402 1.524 . S
C3403 C3404 1.397 . S
C3403 C3408 1.363 . S
C3404 H3381 0.950 . S
C3404 C3403 1.397 . S
C3404 C3405 1.334 . S
C3405 H3382 0.950 . S
C3405 C3404 1.334 . S
C3405 C3406 1.287 . S
C3406 C3405 1.287 . S
C3406 C3407 1.524 . S
C3406 H3425 0.913 . S
C3407 H3383 0.950 . S
C3407 C3406 1.524 . S
C3407 C3408 1.415 . S
C3408 H3384 0.950 . S
C3408 C3403 1.363 . S
C3408 C3407 1.415 . S
C3409 H3385 0.951 . S
C3409 C3410 1.366 . S
C3409 C3411 1.388 . S
C3410 C3409 1.366 . S
C3410 C3414 1.385 . S
C3411 H3386 0.951 . S
C3411 C3409 1.388 . S
C3411 C3412 1.366 . S
C3412 C3411 1.366 . S
C3412 C3413 1.414 . S
C3412 C3415 1.499 . S
C3413 H3387 0.950 . S
C3413 C3412 1.414 . S
C3413 C3414 1.374 . S
C3414 H3388 0.950 . S
C3414 C3410 1.385 . S
C3414 C3413 1.374 . S
C3415 C3412 1.499 . S
C3415 C3416 1.373 . S
C3415 C3417 1.389 . S
C3416 H3389 0.950 . S
C3416 C3402 1.377 . S
C3416 C3415 1.373 . S
C3417 C3401 1.377 . S
C3417 C3415 1.389 . S
C3417 C3418 1.524 . S
C3418 C3417 1.524 . S
C3418 C3419 1.397 . S
C3418 C3423 1.363 . S
C3419 H3390 0.950 . S
C3419 C3418 1.397 . S
C3419 C3420 1.334 . S
C3420 H3391 0.950 . S
C3420 C3419 1.334 . S
C3420 C3421 1.287 . S
C3421 C3420 1.287 . S
C3421 C3422 1.524 . S
C3421 H3424 0.999 . S
C3422 H3392 0.950 . S
C3422 C3421 1.524 . S
C3422 C3423 1.415 . S
C3423 H3393 0.950 . S
C3423 C3418 1.363 . S
C3423 C3422 1.415 . S
H3424 C3421 0.999 . S
H3425 C3406 0.913 . S
H3426 C3444 0.951 . S
H3427 C3446 0.951 . S
H3428 C3448 0.950 . S
H3429 C3449 0.950 . S
H3430 C3451 0.950 . S
H3431 C3454 0.950 . S
H3432 C3455 0.950 . S
H3433 C3457 0.950 . S
H3434 C3458 0.950 . S
H3435 C3459 0.951 . S
H3436 C3461 0.951 . S
H3437 C3463 0.950 . S
H3438 C3464 0.950 . S
H3439 C3466 0.950 . S
H3440 C3469 0.950 . S
H3441 C3470 0.950 . S
H3442 C3472 0.950 . S
H3443 C3473 0.950 . S
C3444 H3426 0.951 . S
C3444 C3445 1.366 . S
C3444 C3446 1.388 . S
C3445 C3444 1.366 . S
C3445 C3449 1.385 . S
C3446 H3427 0.951 . S
C3446 C3444 1.388 . S
C3446 C3447 1.366 . S
C3447 C3446 1.366 . S
C3447 C3448 1.414 . S
C3447 C3450 1.499 . S
C3448 H3428 0.950 . S
C3448 C3447 1.414 . S
C3448 C3449 1.374 . S
C3449 H3429 0.950 . S
C3449 C3445 1.385 . S
C3449 C3448 1.374 . S
C3450 C3447 1.499 . S
C3450 C3451 1.373 . S
C3450 C3452 1.389 . S
C3451 H3430 0.950 . S
C3451 C3450 1.373 . S
C3451 C3467 1.377 . S
C3452 C3450 1.389 . S
C3452 C3453 1.524 . S
C3452 C3466 1.377 . S
C3453 C3452 1.524 . S
C3453 C3454 1.397 . S
C3453 C3458 1.363 . S
C3454 H3431 0.950 . S
C3454 C3453 1.397 . S
C3454 C3455 1.334 1_655 S
C3455 H3432 0.950 . S
C3455 C3454 1.334 1_455 S
C3455 C3456 1.273 1_455 S
C3456 C3455 1.273 1_655 S
C3456 C3457 1.541 . S
C3456 H3475 0.912 1_655 S
C3457 H3433 0.950 . S
C3457 C3456 1.541 . S
C3457 C3458 1.415 . S
C3458 H3434 0.950 . S
C3458 C3453 1.363 . S
C3458 C3457 1.415 . S
C3459 H3435 0.951 . S
C3459 C3460 1.366 . S
C3459 C3461 1.388 . S
C3460 C3459 1.366 . S
C3460 C3464 1.385 . S
C3461 H3436 0.951 . S
C3461 C3459 1.388 . S
C3461 C3462 1.366 . S
C3462 C3461 1.366 . S
C3462 C3463 1.414 . S
C3462 C3465 1.499 . S
C3463 H3437 0.950 . S
C3463 C3462 1.414 . S
C3463 C3464 1.374 . S
C3464 H3438 0.950 . S
C3464 C3460 1.385 . S
C3464 C3463 1.374 . S
C3465 C3462 1.499 . S
C3465 C3466 1.373 . S
C3465 C3467 1.389 . S
C3466 H3439 0.950 . S
C3466 C3452 1.377 . S
C3466 C3465 1.373 . S
C3467 C3451 1.377 . S
C3467 C3465 1.389 . S
C3467 C3468 1.524 . S
C3468 C3467 1.524 . S
C3468 C3469 1.397 . S
C3468 C3473 1.363 . S
C3469 H3440 0.950 . S
C3469 C3468 1.397 . S
C3469 C3470 1.334 . S
C3470 H3441 0.950 . S
C3470 C3469 1.334 . S
C3470 C3471 1.287 . S
C3471 C3470 1.287 . S
C3471 C3472 1.524 . S
C3471 H3474 0.999 . S
C3472 H3442 0.950 . S
C3472 C3471 1.524 . S
C3472 C3473 1.415 . S
C3473 H3443 0.950 . S
C3473 C3468 1.363 . S
C3473 C3472 1.415 . S
H3474 C3471 0.999 . S
H3475 C3456 0.912 1_455 S
H3476 C3494 0.951 . S
H3477 C3496 0.951 . S
H3478 C3498 0.950 . S
H3479 C3499 0.950 . S
H3480 C3501 0.950 . S
H3481 C3504 0.950 . S
H3482 C3505 0.950 . S
H3483 C3507 0.950 . S
H3484 C3508 0.950 . S
H3485 C3509 0.951 . S
H3486 C3511 0.951 . S
H3487 C3513 0.950 . S
H3488 C3514 0.950 . S
H3489 C3516 0.950 . S
H3490 C3519 0.950 . S
H3491 C3520 0.950 . S
H3492 C3522 0.950 . S
H3493 C3523 0.950 . S
C3494 H3476 0.951 . S
C3494 C3495 1.366 . S
C3494 C3496 1.388 . S
C3495 C3494 1.366 . S
C3495 C3499 1.385 . S
C3496 H3477 0.951 . S
C3496 C3494 1.388 . S
C3496 C3497 1.366 . S
C3497 C3496 1.366 . S
C3497 C3498 1.414 . S
C3497 C3500 1.499 . S
C3498 H3478 0.950 . S
C3498 C3497 1.414 . S
C3498 C3499 1.374 . S
C3499 H3479 0.950 . S
C3499 C3495 1.385 . S
C3499 C3498 1.374 . S
C3500 C3497 1.499 . S
C3500 C3501 1.373 . S
C3500 C3502 1.389 . S
C3501 H3480 0.950 . S
C3501 C3500 1.373 . S
C3501 C3517 1.377 . S
C3502 C3500 1.389 . S
C3502 C3503 1.524 . S
C3502 C3516 1.377 . S
C3503 C3502 1.524 . S
C3503 C3504 1.397 . S
C3503 C3508 1.363 . S
C3504 H3481 0.950 . S
C3504 C3503 1.397 . S
C3504 C3505 1.334 . S
C3505 H3482 0.950 . S
C3505 C3504 1.334 . S
C3505 C3506 1.287 . S
C3506 C3505 1.287 . S
C3506 C3507 1.524 . S
C3506 H3525 0.913 . S
C3507 H3483 0.950 . S
C3507 C3506 1.524 . S
C3507 C3508 1.415 . S
C3508 H3484 0.950 . S
C3508 C3503 1.363 . S
C3508 C3507 1.415 . S
C3509 H3485 0.951 . S
C3509 C3510 1.366 . S
C3509 C3511 1.388 . S
C3510 C3509 1.366 . S
C3510 C3514 1.385 . S
C3511 H3486 0.951 . S
C3511 C3509 1.388 . S
C3511 C3512 1.366 . S
C3512 C3511 1.366 . S
C3512 C3513 1.414 . S
C3512 C3515 1.499 . S
C3513 H3487 0.950 . S
C3513 C3512 1.414 . S
C3513 C3514 1.374 . S
C3514 H3488 0.950 . S
C3514 C3510 1.385 . S
C3514 C3513 1.374 . S
C3515 C3512 1.499 . S
C3515 C3516 1.373 . S
C3515 C3517 1.389 . S
C3516 H3489 0.950 . S
C3516 C3502 1.377 . S
C3516 C3515 1.373 . S
C3517 C3501 1.377 . S
C3517 C3515 1.389 . S
C3517 C3518 1.524 . S
C3518 C3517 1.524 . S
C3518 C3519 1.397 . S
C3518 C3523 1.363 . S
C3519 H3490 0.950 . S
C3519 C3518 1.397 . S
C3519 C3520 1.334 . S
C3520 H3491 0.950 . S
C3520 C3519 1.334 . S
C3520 C3521 1.287 . S
C3521 C3520 1.287 . S
C3521 C3522 1.524 . S
C3521 H3524 0.999 . S
C3522 H3492 0.950 . S
C3522 C3521 1.524 . S
C3522 C3523 1.415 . S
C3523 H3493 0.950 . S
C3523 C3518 1.363 . S
C3523 C3522 1.415 . S
H3524 C3521 0.999 . S
H3525 C3506 0.913 . S
H3526 C3544 0.951 . S
H3527 C3546 0.951 . S
H3528 C3548 0.950 . S
H3529 C3549 0.950 . S
H3530 C3551 0.950 . S
H3531 C3554 0.950 . S
H3532 C3555 0.950 . S
H3533 C3557 0.950 . S
H3534 C3558 0.950 . S
H3535 C3559 0.967 . S
H3536 C3561 0.951 . S
H3537 C3563 0.950 . S
H3538 C3564 0.950 . S
H3539 C3566 0.950 . S
H3540 C3569 0.950 . S
H3541 C3570 0.950 . S
H3542 C3572 0.950 . S
H3543 C3573 0.950 . S
C3544 H3526 0.951 . S
C3544 C3545 1.366 . S
C3544 C3546 1.388 . S
C3545 C3544 1.366 . S
C3545 C3549 1.385 . S
C3546 H3527 0.951 . S
C3546 C3544 1.388 . S
C3546 C3547 1.366 . S
C3547 C3546 1.366 . S
C3547 C3548 1.414 . S
C3547 C3550 1.499 . S
C3548 H3528 0.950 . S
C3548 C3547 1.414 . S
C3548 C3549 1.374 . S
C3549 H3529 0.950 . S
C3549 C3545 1.385 . S
C3549 C3548 1.374 . S
C3550 C3547 1.499 . S
C3550 C3551 1.373 . S
C3550 C3552 1.389 . S
C3551 H3530 0.950 . S
C3551 C3550 1.373 . S
C3551 C3567 1.377 . S
C3552 C3550 1.389 . S
C3552 C3553 1.524 . S
C3552 C3566 1.377 . S
C3553 C3552 1.524 . S
C3553 C3554 1.397 . S
C3553 C3558 1.363 . S
C3554 H3531 0.950 . S
C3554 C3553 1.397 . S
C3554 C3555 1.334 . S
C3555 H3532 0.950 . S
C3555 C3554 1.334 . S
C3555 C3556 1.287 . S
C3556 C3555 1.287 . S
C3556 C3557 1.524 . S
C3556 H3575 0.913 . S
C3557 H3533 0.950 . S
C3557 C3556 1.524 . S
C3557 C3558 1.415 . S
C3558 H3534 0.950 . S
C3558 C3553 1.363 . S
C3558 C3557 1.415 . S
C3559 H3535 0.967 . S
C3559 C3560 1.366 . S
C3559 C3561 1.388 . S
C3560 C3559 1.366 . S
C3560 C3564 1.385 . S
C3561 H3536 0.951 . S
C3561 C3559 1.388 . S
C3561 C3562 1.366 . S
C3562 C3561 1.366 . S
C3562 C3563 1.414 . S
C3562 C3565 1.499 . S
C3563 H3537 0.950 . S
C3563 C3562 1.414 . S
C3563 C3564 1.374 . S
C3564 H3538 0.950 . S
C3564 C3560 1.385 . S
C3564 C3563 1.374 . S
C3565 C3562 1.499 . S
C3565 C3566 1.373 . S
C3565 C3567 1.389 . S
C3566 H3539 0.950 . S
C3566 C3552 1.377 . S
C3566 C3565 1.373 . S
C3567 C3551 1.377 . S
C3567 C3565 1.389 . S
C3567 C3568 1.524 . S
C3568 C3567 1.524 . S
C3568 C3569 1.397 . S
C3568 C3573 1.363 1_545 S
C3569 H3540 0.950 . S
C3569 C3568 1.397 . S
C3569 C3570 1.334 1_545 S
C3570 H3541 0.950 . S
C3570 C3569 1.334 1_565 S
C3570 C3571 1.287 . S
C3571 C3570 1.287 . S
C3571 C3572 1.524 . S
C3571 H3574 0.999 . S
C3572 H3542 0.950 . S
C3572 C3571 1.524 . S
C3572 C3573 1.415 . S
C3573 H3543 0.950 . S
C3573 C3568 1.363 1_565 S
C3573 C3572 1.415 . S
H3574 C3571 0.999 . S
H3575 C3556 0.913 . S
H3576 C3594 0.951 . S
H3577 C3596 0.951 . S
H3578 C3598 0.950 . S
H3579 C3599 0.950 . S
H3580 C3601 0.950 . S
H3581 C3604 0.950 . S
H3582 C3605 0.950 . S
H3583 C3607 0.950 . S
H3584 C3608 0.950 . S
H3585 C3609 0.951 . S
H3586 C3611 0.951 . S
H3587 C3613 0.950 . S
H3588 C3614 0.950 . S
H3589 C3616 0.950 . S
H3590 C3619 0.950 . S
H3591 C3620 0.950 . S
H3592 C3622 0.950 . S
H3593 C3623 0.950 . S
C3594 H3576 0.951 . S
C3594 C3595 1.366 . S
C3594 C3596 1.388 . S
C3595 C3594 1.366 . S
C3595 C3599 1.385 . S
C3596 H3577 0.951 . S
C3596 C3594 1.388 . S
C3596 C3597 1.366 . S
C3597 C3596 1.366 . S
C3597 C3598 1.414 . S
C3597 C3600 1.499 . S
C3598 H3578 0.950 . S
C3598 C3597 1.414 . S
C3598 C3599 1.374 . S
C3599 H3579 0.950 . S
C3599 C3595 1.385 . S
C3599 C3598 1.374 . S
C3600 C3597 1.499 . S
C3600 C3601 1.373 . S
C3600 C3602 1.389 . S
C3601 H3580 0.950 . S
C3601 C3600 1.373 . S
C3601 C3617 1.377 . S
C3602 C3600 1.389 . S
C3602 C3603 1.524 . S
C3602 C3616 1.377 . S
C3603 C3602 1.524 . S
C3603 C3604 1.397 . S
C3603 C3608 1.363 . S
C3604 H3581 0.950 . S
C3604 C3603 1.397 . S
C3604 C3605 1.334 . S
C3605 H3582 0.950 . S
C3605 C3604 1.334 . S
C3605 C3606 1.287 . S
C3606 C3605 1.287 . S
C3606 C3607 1.524 . S
C3606 H3625 0.913 . S
C3607 H3583 0.950 . S
C3607 C3606 1.524 . S
C3607 C3608 1.415 . S
C3608 H3584 0.950 . S
C3608 C3603 1.363 . S
C3608 C3607 1.415 . S
C3609 H3585 0.951 . S
C3609 C3610 1.366 . S
C3609 C3611 1.388 . S
C3610 C3609 1.366 . S
C3610 C3614 1.385 . S
C3611 H3586 0.951 . S
C3611 C3609 1.388 . S
C3611 C3612 1.366 . S
C3612 C3611 1.366 . S
C3612 C3613 1.414 . S
C3612 C3615 1.499 . S
C3613 H3587 0.950 . S
C3613 C3612 1.414 . S
C3613 C3614 1.374 . S
C3614 H3588 0.950 . S
C3614 C3610 1.385 . S
C3614 C3613 1.374 . S
C3615 C3612 1.499 . S
C3615 C3616 1.373 . S
C3615 C3617 1.389 . S
C3616 H3589 0.950 . S
C3616 C3602 1.377 . S
C3616 C3615 1.373 . S
C3617 C3601 1.377 . S
C3617 C3615 1.389 . S
C3617 C3618 1.524 . S
C3618 C3617 1.524 . S
C3618 C3619 1.397 . S
C3618 C3623 1.363 . S
C3619 H3590 0.950 . S
C3619 C3618 1.397 . S
C3619 C3620 1.334 . S
C3620 H3591 0.950 . S
C3620 C3619 1.334 . S
C3620 C3621 1.287 . S
C3621 C3620 1.287 . S
C3621 C3622 1.524 . S
C3621 H3624 0.999 . S
C3622 H3592 0.950 . S
C3622 C3621 1.524 . S
C3622 C3623 1.415 . S
C3623 H3593 0.950 . S
C3623 C3618 1.363 . S
C3623 C3622 1.415 . S
H3624 C3621 0.999 . S
H3625 C3606 0.913 . S
H3626 C3644 0.951 . S
H3627 C3646 0.951 . S
H3628 C3648 0.950 . S
H3629 C3649 0.950 . S
H3630 C3651 0.950 . S
H3631 C3654 0.950 . S
H3632 C3655 0.950 . S
H3633 C3657 0.950 . S
H3634 C3658 0.950 . S
H3635 C3659 0.951 . S
H3636 C3661 0.951 . S
H3637 C3663 0.950 . S
H3638 C3664 0.950 . S
H3639 C3666 0.950 . S
H3640 C3669 0.950 . S
H3641 C3670 0.950 . S
H3642 C3672 0.950 . S
H3643 C3673 0.950 . S
C3644 H3626 0.951 . S
C3644 C3645 1.366 . S
C3644 C3646 1.388 . S
C3645 C3644 1.366 . S
C3645 C3649 1.385 . S
C3646 H3627 0.951 . S
C3646 C3644 1.388 . S
C3646 C3647 1.366 . S
C3647 C3646 1.366 . S
C3647 C3648 1.414 . S
C3647 C3650 1.499 . S
C3648 H3628 0.950 . S
C3648 C3647 1.414 . S
C3648 C3649 1.374 . S
C3649 H3629 0.950 . S
C3649 C3645 1.385 . S
C3649 C3648 1.374 . S
C3650 C3647 1.499 . S
C3650 C3651 1.373 . S
C3650 C3652 1.389 . S
C3651 H3630 0.950 . S
C3651 C3650 1.373 . S
C3651 C3667 1.377 . S
C3652 C3650 1.389 . S
C3652 C3653 1.524 . S
C3652 C3666 1.377 . S
C3653 C3652 1.524 . S
C3653 C3654 1.397 . S
C3653 C3658 1.363 . S
C3654 H3631 0.950 . S
C3654 C3653 1.397 . S
C3654 C3655 1.334 . S
C3655 H3632 0.950 . S
C3655 C3654 1.334 . S
C3655 C3656 1.287 . S
C3656 C3655 1.287 . S
C3656 C3657 1.524 . S
C3656 H3675 0.913 . S
C3657 H3633 0.950 . S
C3657 C3656 1.524 . S
C3657 C3658 1.415 . S
C3658 H3634 0.950 . S
C3658 C3653 1.363 . S
C3658 C3657 1.415 . S
C3659 H3635 0.951 . S
C3659 C3660 1.366 . S
C3659 C3661 1.388 . S
C3660 C3659 1.366 . S
C3660 C3664 1.385 . S
C3661 H3636 0.951 . S
C3661 C3659 1.388 . S
C3661 C3662 1.366 . S
C3662 C3661 1.366 . S
C3662 C3663 1.414 . S
C3662 C3665 1.499 . S
C3663 H3637 0.950 . S
C3663 C3662 1.414 . S
C3663 C3664 1.374 . S
C3664 H3638 0.950 . S
C3664 C3660 1.385 . S
C3664 C3663 1.374 . S
C3665 C3662 1.499 . S
C3665 C3666 1.373 . S
C3665 C3667 1.389 . S
C3666 H3639 0.950 . S
C3666 C3652 1.377 . S
C3666 C3665 1.373 . S
C3667 C3651 1.377 . S
C3667 C3665 1.389 . S
C3667 C3668 1.524 . S
C3668 C3667 1.524 . S
C3668 C3669 1.397 . S
C3668 C3673 1.363 . S
C3669 H3640 0.950 . S
C3669 C3668 1.397 . S
C3669 C3670 1.334 . S
C3670 H3641 0.950 . S
C3670 C3669 1.334 . S
C3670 C3671 1.287 . S
C3671 C3670 1.287 . S
C3671 C3672 1.524 . S
C3671 H3674 0.999 . S
C3672 H3642 0.950 . S
C3672 C3671 1.524 . S
C3672 C3673 1.415 . S
C3673 H3643 0.950 . S
C3673 C3668 1.363 . S
C3673 C3672 1.415 . S
H3674 C3671 0.999 . S
H3675 C3656 0.913 . S
H3676 C3694 0.951 . S
H3677 C3696 0.951 . S
H3678 C3698 0.950 . S
H3679 C3699 0.950 . S
H3680 C3701 0.950 . S
H3681 C3704 0.950 . S
H3682 C3705 0.950 . S
H3683 C3707 0.950 . S
H3684 C3708 0.950 . S
H3685 C3709 0.951 . S
H3686 C3711 0.951 . S
H3687 C3713 0.950 . S
H3688 C3714 0.950 . S
H3689 C3716 0.950 . S
H3690 C3719 0.950 . S
H3691 C3720 0.950 . S
H3692 C3722 0.950 . S
H3693 C3723 0.950 . S
C3694 H3676 0.951 . S
C3694 C3695 1.366 . S
C3694 C3696 1.388 . S
C3695 C3694 1.366 . S
C3695 C3699 1.385 . S
C3696 H3677 0.951 . S
C3696 C3694 1.388 . S
C3696 C3697 1.366 . S
C3697 C3696 1.366 . S
C3697 C3698 1.414 . S
C3697 C3700 1.499 . S
C3698 H3678 0.950 . S
C3698 C3697 1.414 . S
C3698 C3699 1.374 . S
C3699 H3679 0.950 . S
C3699 C3695 1.385 . S
C3699 C3698 1.374 . S
C3700 C3697 1.499 . S
C3700 C3701 1.373 . S
C3700 C3702 1.389 . S
C3701 H3680 0.950 . S
C3701 C3700 1.373 . S
C3701 C3717 1.377 . S
C3702 C3700 1.389 . S
C3702 C3703 1.524 . S
C3702 C3716 1.377 . S
C3703 C3702 1.524 . S
C3703 C3704 1.397 . S
C3703 C3708 1.363 . S
C3704 H3681 0.950 . S
C3704 C3703 1.397 . S
C3704 C3705 1.334 . S
C3705 H3682 0.950 . S
C3705 C3704 1.334 . S
C3705 C3706 1.287 . S
C3706 C3705 1.287 . S
C3706 C3707 1.524 . S
C3706 H3725 0.913 . S
C3707 H3683 0.950 . S
C3707 C3706 1.524 . S
C3707 C3708 1.415 . S
C3708 H3684 0.950 . S
C3708 C3703 1.363 . S
C3708 C3707 1.415 . S
C3709 H3685 0.951 . S
C3709 C3710 1.366 . S
C3709 C3711 1.388 . S
C3710 C3709 1.366 . S
C3710 C3714 1.385 . S
C3711 H3686 0.951 . S
C3711 C3709 1.388 . S
C3711 C3712 1.366 . S
C3712 C3711 1.366 . S
C3712 C3713 1.414 . S
C3712 C3715 1.499 . S
C3713 H3687 0.950 . S
C3713 C3712 1.414 . S
C3713 C3714 1.374 . S
C3714 H3688 0.950 . S
C3714 C3710 1.385 . S
C3714 C3713 1.374 . S
C3715 C3712 1.499 . S
C3715 C3716 1.373 . S
C3715 C3717 1.389 . S
C3716 H3689 0.950 . S
C3716 C3702 1.377 . S
C3716 C3715 1.373 . S
C3717 C3701 1.377 . S
C3717 C3715 1.389 . S
C3717 C3718 1.524 . S
C3718 C3717 1.524 . S
C3718 C3719 1.397 . S
C3718 C3723 1.363 . S
C3719 H3690 0.950 . S
C3719 C3718 1.397 . S
C3719 C3720 1.334 . S
C3720 H3691 0.950 . S
C3720 C3719 1.334 . S
C3720 C3721 1.287 . S
C3721 C3720 1.287 . S
C3721 C3722 1.524 . S
C3721 H3724 0.999 . S
C3722 H3692 0.950 . S
C3722 C3721 1.524 . S
C3722 C3723 1.415 . S
C3723 H3693 0.950 . S
C3723 C3718 1.363 . S
C3723 C3722 1.415 . S
H3724 C3721 0.999 . S
H3725 C3706 0.913 . S
H3726 C3744 0.951 . S
H3727 C3746 0.951 . S
H3728 C3748 0.950 . S
H3729 C3749 0.950 . S
H3730 C3751 0.950 . S
H3731 C3754 0.950 . S
H3732 C3755 0.950 . S
H3733 C3757 0.950 . S
H3734 C3758 0.950 . S
H3735 C3759 0.951 . S
H3736 C3761 0.951 . S
H3737 C3763 0.950 . S
H3738 C3764 0.950 . S
H3739 C3766 0.950 . S
H3740 C3769 0.950 . S
H3741 C3770 0.950 . S
H3742 C3772 0.950 . S
H3743 C3773 0.950 . S
C3744 H3726 0.951 . S
C3744 C3745 1.366 . S
C3744 C3746 1.388 . S
C3745 C3744 1.366 . S
C3745 C3749 1.385 . S
C3746 H3727 0.951 . S
C3746 C3744 1.388 . S
C3746 C3747 1.366 . S
C3747 C3746 1.366 . S
C3747 C3748 1.414 . S
C3747 C3750 1.499 . S
C3748 H3728 0.950 . S
C3748 C3747 1.414 . S
C3748 C3749 1.374 . S
C3749 H3729 0.950 . S
C3749 C3745 1.385 . S
C3749 C3748 1.374 . S
C3750 C3747 1.499 . S
C3750 C3751 1.373 . S
C3750 C3752 1.389 . S
C3751 H3730 0.950 . S
C3751 C3750 1.373 . S
C3751 C3767 1.377 . S
C3752 C3750 1.389 . S
C3752 C3753 1.524 . S
C3752 C3766 1.377 . S
C3753 C3752 1.524 . S
C3753 C3754 1.397 . S
C3753 C3758 1.363 . S
C3754 H3731 0.950 . S
C3754 C3753 1.397 . S
C3754 C3755 1.334 . S
C3755 H3732 0.950 . S
C3755 C3754 1.334 . S
C3755 C3756 1.287 . S
C3756 C3755 1.287 . S
C3756 C3757 1.524 . S
C3756 H3775 0.913 . S
C3757 H3733 0.950 . S
C3757 C3756 1.524 . S
C3757 C3758 1.415 . S
C3758 H3734 0.950 . S
C3758 C3753 1.363 . S
C3758 C3757 1.415 . S
C3759 H3735 0.951 . S
C3759 C3760 1.366 . S
C3759 C3761 1.388 . S
C3760 C3759 1.366 . S
C3760 C3764 1.385 . S
C3761 H3736 0.951 . S
C3761 C3759 1.388 . S
C3761 C3762 1.366 . S
C3762 C3761 1.366 . S
C3762 C3763 1.414 . S
C3762 C3765 1.499 . S
C3763 H3737 0.950 . S
C3763 C3762 1.414 . S
C3763 C3764 1.374 . S
C3764 H3738 0.950 . S
C3764 C3760 1.385 . S
C3764 C3763 1.374 . S
C3765 C3762 1.499 . S
C3765 C3766 1.373 . S
C3765 C3767 1.389 . S
C3766 H3739 0.950 . S
C3766 C3752 1.377 . S
C3766 C3765 1.373 . S
C3767 C3751 1.377 . S
C3767 C3765 1.389 . S
C3767 C3768 1.524 . S
C3768 C3767 1.524 . S
C3768 C3769 1.397 . S
C3768 C3773 1.363 . S
C3769 H3740 0.950 . S
C3769 C3768 1.397 . S
C3769 C3770 1.334 . S
C3770 H3741 0.950 . S
C3770 C3769 1.334 . S
C3770 C3771 1.287 . S
C3771 C3770 1.287 . S
C3771 C3772 1.524 . S
C3771 H3774 0.999 . S
C3772 H3742 0.950 . S
C3772 C3771 1.524 . S
C3772 C3773 1.415 . S
C3773 H3743 0.950 . S
C3773 C3768 1.363 . S
C3773 C3772 1.415 . S
H3774 C3771 0.999 . S
H3775 C3756 0.913 . S
H3776 C3794 0.951 . S
H3777 C3796 0.951 . S
H3778 C3798 0.950 . S
H3779 C3799 0.950 . S
H3780 C3801 0.950 . S
H3781 C3804 0.950 . S
H3782 C3805 0.950 . S
H3783 C3807 0.950 . S
H3784 C3808 0.950 . S
H3785 C3809 0.951 . S
H3786 C3811 0.951 . S
H3787 C3813 0.950 . S
H3788 C3814 0.950 . S
H3789 C3816 0.950 . S
H3790 C3819 0.950 . S
H3791 C3820 0.950 . S
H3792 C3822 0.950 . S
H3793 C3823 0.950 . S
C3794 H3776 0.951 . S
C3794 C3795 1.366 . S
C3794 C3796 1.388 . S
C3795 C3794 1.366 . S
C3795 C3799 1.385 . S
C3796 H3777 0.951 . S
C3796 C3794 1.388 . S
C3796 C3797 1.366 . S
C3797 C3796 1.366 . S
C3797 C3798 1.414 . S
C3797 C3800 1.499 . S
C3798 H3778 0.950 . S
C3798 C3797 1.414 . S
C3798 C3799 1.374 . S
C3799 H3779 0.950 . S
C3799 C3795 1.385 . S
C3799 C3798 1.374 . S
C3800 C3797 1.499 . S
C3800 C3801 1.373 . S
C3800 C3802 1.389 . S
C3801 H3780 0.950 . S
C3801 C3800 1.373 . S
C3801 C3817 1.377 . S
C3802 C3800 1.389 . S
C3802 C3803 1.524 . S
C3802 C3816 1.377 . S
C3803 C3802 1.524 . S
C3803 C3804 1.397 . S
C3803 C3808 1.363 . S
C3804 H3781 0.950 . S
C3804 C3803 1.397 . S
C3804 C3805 1.334 . S
C3805 H3782 0.950 . S
C3805 C3804 1.334 . S
C3805 C3806 1.287 . S
C3806 C3805 1.287 . S
C3806 C3807 1.524 . S
C3806 H3825 0.913 . S
C3807 H3783 0.950 . S
C3807 C3806 1.524 . S
C3807 C3808 1.415 . S
C3808 H3784 0.950 . S
C3808 C3803 1.363 . S
C3808 C3807 1.415 . S
C3809 H3785 0.951 . S
C3809 C3810 1.366 . S
C3809 C3811 1.388 . S
C3810 C3809 1.366 . S
C3810 C3814 1.385 . S
C3811 H3786 0.951 . S
C3811 C3809 1.388 . S
C3811 C3812 1.366 . S
C3812 C3811 1.366 . S
C3812 C3813 1.414 . S
C3812 C3815 1.499 . S
C3813 H3787 0.950 . S
C3813 C3812 1.414 . S
C3813 C3814 1.374 . S
C3814 H3788 0.950 . S
C3814 C3810 1.385 . S
C3814 C3813 1.374 . S
C3815 C3812 1.499 . S
C3815 C3816 1.373 . S
C3815 C3817 1.389 . S
C3816 H3789 0.950 . S
C3816 C3802 1.377 . S
C3816 C3815 1.373 . S
C3817 C3801 1.377 . S
C3817 C3815 1.389 . S
C3817 C3818 1.524 . S
C3818 C3817 1.524 . S
C3818 C3819 1.397 . S
C3818 C3823 1.363 . S
C3819 H3790 0.950 . S
C3819 C3818 1.397 . S
C3819 C3820 1.334 . S
C3820 H3791 0.950 . S
C3820 C3819 1.334 . S
C3820 C3821 1.287 . S
C3821 C3820 1.287 . S
C3821 C3822 1.524 . S
C3821 H3824 0.999 . S
C3822 H3792 0.950 . S
C3822 C3821 1.524 . S
C3822 C3823 1.415 . S
C3823 H3793 0.950 . S
C3823 C3818 1.363 . S
C3823 C3822 1.415 . S
H3824 C3821 0.999 . S
H3825 C3806 0.913 . S
H3826 C3844 0.951 . S
H3827 C3846 0.951 . S
H3828 C3848 0.950 . S
H3829 C3849 0.950 . S
H3830 C3851 0.950 . S
H3831 C3854 0.950 . S
H3832 C3855 0.950 . S
H3833 C3857 0.950 . S
H3834 C3858 0.950 . S
H3835 C3859 0.951 . S
H3836 C3861 0.951 . S
H3837 C3863 0.950 . S
H3838 C3864 0.950 . S
H3839 C3866 0.950 . S
H3840 C3869 0.950 . S
H3841 C3870 0.950 . S
H3842 C3872 0.950 . S
H3843 C3873 0.950 . S
C3844 H3826 0.951 . S
C3844 C3845 1.366 . S
C3844 C3846 1.388 . S
C3845 C3844 1.366 . S
C3845 C3849 1.385 . S
C3846 H3827 0.951 . S
C3846 C3844 1.388 . S
C3846 C3847 1.366 . S
C3847 C3846 1.366 . S
C3847 C3848 1.414 . S
C3847 C3850 1.499 . S
C3848 H3828 0.950 . S
C3848 C3847 1.414 . S
C3848 C3849 1.374 . S
C3849 H3829 0.950 . S
C3849 C3845 1.385 . S
C3849 C3848 1.374 . S
C3850 C3847 1.499 . S
C3850 C3851 1.373 . S
C3850 C3852 1.389 . S
C3851 H3830 0.950 . S
C3851 C3850 1.373 . S
C3851 C3867 1.377 . S
C3852 C3850 1.389 . S
C3852 C3853 1.524 . S
C3852 C3866 1.377 . S
C3853 C3852 1.524 . S
C3853 C3854 1.397 . S
C3853 C3858 1.363 . S
C3854 H3831 0.950 . S
C3854 C3853 1.397 . S
C3854 C3855 1.334 . S
C3855 H3832 0.950 . S
C3855 C3854 1.334 . S
C3855 C3856 1.287 . S
C3856 C3855 1.287 . S
C3856 C3857 1.524 . S
C3856 H3875 0.913 . S
C3857 H3833 0.950 . S
C3857 C3856 1.524 . S
C3857 C3858 1.415 . S
C3858 H3834 0.950 . S
C3858 C3853 1.363 . S
C3858 C3857 1.415 . S
C3859 H3835 0.951 . S
C3859 C3860 1.366 . S
C3859 C3861 1.388 . S
C3860 C3859 1.366 . S
C3860 C3864 1.385 . S
C3861 H3836 0.951 . S
C3861 C3859 1.388 . S
C3861 C3862 1.366 . S
C3862 C3861 1.366 . S
C3862 C3863 1.414 . S
C3862 C3865 1.499 . S
C3863 H3837 0.950 . S
C3863 C3862 1.414 . S
C3863 C3864 1.374 . S
C3864 H3838 0.950 . S
C3864 C3860 1.385 . S
C3864 C3863 1.374 . S
C3865 C3862 1.499 . S
C3865 C3866 1.373 . S
C3865 C3867 1.389 . S
C3866 H3839 0.950 . S
C3866 C3852 1.377 . S
C3866 C3865 1.373 . S
C3867 C3851 1.377 . S
C3867 C3865 1.389 . S
C3867 C3868 1.524 . S
C3868 C3867 1.524 . S
C3868 C3869 1.397 . S
C3868 C3873 1.363 . S
C3869 H3840 0.950 . S
C3869 C3868 1.397 . S
C3869 C3870 1.334 . S
C3870 H3841 0.950 . S
C3870 C3869 1.334 . S
C3870 C3871 1.287 . S
C3871 C3870 1.287 . S
C3871 C3872 1.524 . S
C3871 H3874 0.999 . S
C3872 H3842 0.950 . S
C3872 C3871 1.524 . S
C3872 C3873 1.415 . S
C3873 H3843 0.950 . S
C3873 C3868 1.363 . S
C3873 C3872 1.415 . S
H3874 C3871 0.999 . S
H3875 C3856 0.913 . S
H3876 C3894 0.951 . S
H3877 C3896 0.951 . S
H3878 C3898 0.950 . S
H3879 C3899 0.950 . S
H3880 C3901 0.950 . S
H3881 C3904 0.950 . S
H3882 C3905 0.950 . S
H3883 C3907 0.950 . S
H3884 C3908 0.950 . S
H3885 C3909 0.951 . S
H3886 C3911 0.951 . S
H3887 C3913 0.950 . S
H3888 C3914 0.950 . S
H3889 C3916 0.950 . S
H3890 C3919 0.950 . S
H3891 C3920 0.950 . S
H3892 C3922 0.950 . S
H3893 C3923 0.950 . S
C3894 H3876 0.951 . S
C3894 C3895 1.366 . S
C3894 C3896 1.388 . S
C3895 C3894 1.366 . S
C3895 C3899 1.385 . S
C3896 H3877 0.951 . S
C3896 C3894 1.388 . S
C3896 C3897 1.366 . S
C3897 C3896 1.366 . S
C3897 C3898 1.414 . S
C3897 C3900 1.499 . S
C3898 H3878 0.950 . S
C3898 C3897 1.414 . S
C3898 C3899 1.374 . S
C3899 H3879 0.950 . S
C3899 C3895 1.385 . S
C3899 C3898 1.374 . S
C3900 C3897 1.499 . S
C3900 C3901 1.373 . S
C3900 C3902 1.389 . S
C3901 H3880 0.950 . S
C3901 C3900 1.373 . S
C3901 C3917 1.377 . S
C3902 C3900 1.389 . S
C3902 C3903 1.524 . S
C3902 C3916 1.377 . S
C3903 C3902 1.524 . S
C3903 C3904 1.397 . S
C3903 C3908 1.363 . S
C3904 H3881 0.950 . S
C3904 C3903 1.397 . S
C3904 C3905 1.334 . S
C3905 H3882 0.950 . S
C3905 C3904 1.334 . S
C3905 C3906 1.287 . S
C3906 C3905 1.287 . S
C3906 C3907 1.524 . S
C3906 H3925 0.913 . S
C3907 H3883 0.950 . S
C3907 C3906 1.524 . S
C3907 C3908 1.415 . S
C3908 H3884 0.950 . S
C3908 C3903 1.363 . S
C3908 C3907 1.415 . S
C3909 H3885 0.951 . S
C3909 C3910 1.366 . S
C3909 C3911 1.388 . S
C3910 C3909 1.366 . S
C3910 C3914 1.385 . S
C3911 H3886 0.951 . S
C3911 C3909 1.388 . S
C3911 C3912 1.366 . S
C3912 C3911 1.366 . S
C3912 C3913 1.414 . S
C3912 C3915 1.499 . S
C3913 H3887 0.950 . S
C3913 C3912 1.414 . S
C3913 C3914 1.374 . S
C3914 H3888 0.950 . S
C3914 C3910 1.385 . S
C3914 C3913 1.374 . S
C3915 C3912 1.499 . S
C3915 C3916 1.373 . S
C3915 C3917 1.389 . S
C3916 H3889 0.950 . S
C3916 C3902 1.377 . S
C3916 C3915 1.373 . S
C3917 C3901 1.377 . S
C3917 C3915 1.389 . S
C3917 C3918 1.524 . S
C3918 C3917 1.524 . S
C3918 C3919 1.397 . S
C3918 C3923 1.363 . S
C3919 H3890 0.950 . S
C3919 C3918 1.397 . S
C3919 C3920 1.334 . S
C3920 H3891 0.950 . S
C3920 C3919 1.334 . S
C3920 C3921 1.287 . S
C3921 C3920 1.287 . S
C3921 C3922 1.524 . S
C3921 H3924 0.999 . S
C3922 H3892 0.950 . S
C3922 C3921 1.524 . S
C3922 C3923 1.415 . S
C3923 H3893 0.950 . S
C3923 C3918 1.363 . S
C3923 C3922 1.415 . S
H3924 C3921 0.999 . S
H3925 C3906 0.913 . S
H3926 C3944 0.951 . S
H3927 C3946 0.951 . S
H3928 C3948 0.950 . S
H3929 C3949 0.950 . S
H3930 C3951 0.950 . S
H3931 C3954 0.950 . S
H3932 C3955 0.950 . S
H3933 C3957 0.950 . S
H3934 C3958 0.950 . S
H3935 C3959 0.951 . S
H3936 C3961 0.951 . S
H3937 C3963 0.950 . S
H3938 C3964 0.950 . S
H3939 C3966 0.950 . S
H3940 C3969 0.950 . S
H3941 C3970 0.950 . S
H3942 C3972 0.950 . S
H3943 C3973 0.950 . S
C3944 H3926 0.951 . S
C3944 C3945 1.366 . S
C3944 C3946 1.388 . S
C3945 C3944 1.366 . S
C3945 C3949 1.385 . S
C3946 H3927 0.951 . S
C3946 C3944 1.388 . S
C3946 C3947 1.366 . S
C3947 C3946 1.366 . S
C3947 C3948 1.414 . S
C3947 C3950 1.499 . S
C3948 H3928 0.950 . S
C3948 C3947 1.414 . S
C3948 C3949 1.374 . S
C3949 H3929 0.950 . S
C3949 C3945 1.385 . S
C3949 C3948 1.374 . S
C3950 C3947 1.499 . S
C3950 C3951 1.373 . S
C3950 C3952 1.389 . S
C3951 H3930 0.950 . S
C3951 C3950 1.373 . S
C3951 C3967 1.377 . S
C3952 C3950 1.389 . S
C3952 C3953 1.524 . S
C3952 C3966 1.377 . S
C3953 C3952 1.524 . S
C3953 C3954 1.397 . S
C3953 C3958 1.363 . S
C3954 H3931 0.950 . S
C3954 C3953 1.397 . S
C3954 C3955 1.334 . S
C3955 H3932 0.950 . S
C3955 C3954 1.334 . S
C3955 C3956 1.287 . S
C3956 C3955 1.287 . S
C3956 C3957 1.524 . S
C3956 H3975 0.913 . S
C3957 H3933 0.950 . S
C3957 C3956 1.524 . S
C3957 C3958 1.415 . S
C3958 H3934 0.950 . S
C3958 C3953 1.363 . S
C3958 C3957 1.415 . S
C3959 H3935 0.951 . S
C3959 C3960 1.366 . S
C3959 C3961 1.388 . S
C3960 C3959 1.366 . S
C3960 C3964 1.385 . S
C3961 H3936 0.951 . S
C3961 C3959 1.388 . S
C3961 C3962 1.366 . S
C3962 C3961 1.366 . S
C3962 C3963 1.414 . S
C3962 C3965 1.499 . S
C3963 H3937 0.950 . S
C3963 C3962 1.414 . S
C3963 C3964 1.374 . S
C3964 H3938 0.950 . S
C3964 C3960 1.385 . S
C3964 C3963 1.374 . S
C3965 C3962 1.499 . S
C3965 C3966 1.373 . S
C3965 C3967 1.389 . S
C3966 H3939 0.950 . S
C3966 C3952 1.377 . S
C3966 C3965 1.373 . S
C3967 C3951 1.377 . S
C3967 C3965 1.389 . S
C3967 C3968 1.524 . S
C3968 C3967 1.524 . S
C3968 C3969 1.397 . S
C3968 C3973 1.363 . S
C3969 H3940 0.950 . S
C3969 C3968 1.397 . S
C3969 C3970 1.334 . S
C3970 H3941 0.950 . S
C3970 C3969 1.334 . S
C3970 C3971 1.287 . S
C3971 C3970 1.287 . S
C3971 C3972 1.524 . S
C3971 H3974 0.999 . S
C3972 H3942 0.950 . S
C3972 C3971 1.524 . S
C3972 C3973 1.415 . S
C3973 H3943 0.950 . S
C3973 C3968 1.363 . S
C3973 C3972 1.415 . S
H3974 C3971 0.999 . S
H3975 C3956 0.913 . S
H3976 C3994 0.951 . S
H3977 C3996 0.951 . S
H3978 C3998 0.950 . S
H3979 C3999 0.950 . S
H3980 C4001 0.950 . S
H3981 C4004 0.950 . S
H3982 C4005 0.950 . S
H3983 C4007 0.950 . S
H3984 C4008 0.950 . S
H3985 C4009 0.951 . S
H3986 C4011 0.951 . S
H3987 C4013 0.950 . S
H3988 C4014 0.950 . S
H3989 C4016 0.950 . S
H3990 C4019 0.950 . S
H3991 C4020 0.950 . S
H3992 C4022 0.950 . S
H3993 C4023 0.950 . S
C3994 H3976 0.951 . S
C3994 C3995 1.366 . S
C3994 C3996 1.388 . S
C3995 C3994 1.366 . S
C3995 C3999 1.385 . S
C3996 H3977 0.951 . S
C3996 C3994 1.388 . S
C3996 C3997 1.366 . S
C3997 C3996 1.366 . S
C3997 C3998 1.414 . S
C3997 C4000 1.499 . S
C3998 H3978 0.950 . S
C3998 C3997 1.414 . S
C3998 C3999 1.374 . S
C3999 H3979 0.950 . S
C3999 C3995 1.385 . S
C3999 C3998 1.374 . S
C4000 C3997 1.499 . S
C4000 C4001 1.373 . S
C4000 C4002 1.389 . S
C4001 H3980 0.950 . S
C4001 C4000 1.373 . S
C4001 C4017 1.377 . S
C4002 C4000 1.389 . S
C4002 C4003 1.524 . S
C4002 C4016 1.377 . S
C4003 C4002 1.524 . S
C4003 C4004 1.397 . S
C4003 C4008 1.363 . S
C4004 H3981 0.950 . S
C4004 C4003 1.397 . S
C4004 C4005 1.334 . S
C4005 H3982 0.950 . S
C4005 C4004 1.334 . S
C4005 C4006 1.287 . S
C4006 C4005 1.287 . S
C4006 C4007 1.524 . S
C4006 H4025 0.913 . S
C4007 H3983 0.950 . S
C4007 C4006 1.524 . S
C4007 C4008 1.415 . S
C4008 H3984 0.950 . S
C4008 C4003 1.363 . S
C4008 C4007 1.415 . S
C4009 H3985 0.951 . S
C4009 C4010 1.366 . S
C4009 C4011 1.388 . S
C4010 C4009 1.366 . S
C4010 C4014 1.385 . S
C4011 H3986 0.951 . S
C4011 C4009 1.388 . S
C4011 C4012 1.366 . S
C4012 C4011 1.366 . S
C4012 C4013 1.414 . S
C4012 C4015 1.499 . S
C4013 H3987 0.950 . S
C4013 C4012 1.414 . S
C4013 C4014 1.374 . S
C4014 H3988 0.950 . S
C4014 C4010 1.385 . S
C4014 C4013 1.374 . S
C4015 C4012 1.499 . S
C4015 C4016 1.373 . S
C4015 C4017 1.389 . S
C4016 H3989 0.950 . S
C4016 C4002 1.377 . S
C4016 C4015 1.373 . S
C4017 C4001 1.377 . S
C4017 C4015 1.389 . S
C4017 C4018 1.524 . S
C4018 C4017 1.524 . S
C4018 C4019 1.397 . S
C4018 C4023 1.363 . S
C4019 H3990 0.950 . S
C4019 C4018 1.397 . S
C4019 C4020 1.334 . S
C4020 H3991 0.950 . S
C4020 C4019 1.334 . S
C4020 C4021 1.287 . S
C4021 C4020 1.287 . S
C4021 C4022 1.524 . S
C4021 H4024 0.999 . S
C4022 H3992 0.950 . S
C4022 C4021 1.524 . S
C4022 C4023 1.415 . S
C4023 H3993 0.950 . S
C4023 C4018 1.363 . S
C4023 C4022 1.415 . S
H4024 C4021 0.999 . S
H4025 C4006 0.913 . S
H4026 C4044 0.951 . S
H4027 C4046 0.951 . S
H4028 C4048 0.950 . S
H4029 C4049 0.950 . S
H4030 C4051 0.950 . S
H4031 C4054 0.950 . S
H4032 C4055 0.950 . S
H4033 C4057 0.950 . S
H4034 C4058 0.950 . S
H4035 C4059 0.951 . S
H4036 C4061 0.951 . S
H4037 C4063 0.950 . S
H4038 C4064 0.950 . S
H4039 C4066 0.950 . S
H4040 C4069 0.950 . S
H4041 C4070 0.950 . S
H4042 C4072 0.950 . S
H4043 C4073 0.950 . S
C4044 H4026 0.951 . S
C4044 C4045 1.366 . S
C4044 C4046 1.388 . S
C4045 C4044 1.366 . S
C4045 C4049 1.385 . S
C4046 H4027 0.951 . S
C4046 C4044 1.388 . S
C4046 C4047 1.366 . S
C4047 C4046 1.366 . S
C4047 C4048 1.414 . S
C4047 C4050 1.499 . S
C4048 H4028 0.950 . S
C4048 C4047 1.414 . S
C4048 C4049 1.374 . S
C4049 H4029 0.950 . S
C4049 C4045 1.385 . S
C4049 C4048 1.374 . S
C4050 C4047 1.499 . S
C4050 C4051 1.373 . S
C4050 C4052 1.389 . S
C4051 H4030 0.950 . S
C4051 C4050 1.373 . S
C4051 C4067 1.377 . S
C4052 C4050 1.389 . S
C4052 C4053 1.524 . S
C4052 C4066 1.377 . S
C4053 C4052 1.524 . S
C4053 C4054 1.397 . S
C4053 C4058 1.363 . S
C4054 H4031 0.950 . S
C4054 C4053 1.397 . S
C4054 C4055 1.334 . S
C4055 H4032 0.950 . S
C4055 C4054 1.334 . S
C4055 C4056 1.287 . S
C4056 C4055 1.287 . S
C4056 C4057 1.524 . S
C4056 H4075 0.913 . S
C4057 H4033 0.950 . S
C4057 C4056 1.524 . S
C4057 C4058 1.415 . S
C4058 H4034 0.950 . S
C4058 C4053 1.363 . S
C4058 C4057 1.415 . S
C4059 H4035 0.951 . S
C4059 C4060 1.366 . S
C4059 C4061 1.388 . S
C4060 C4059 1.366 . S
C4060 C4064 1.385 . S
C4061 H4036 0.951 . S
C4061 C4059 1.388 . S
C4061 C4062 1.366 . S
C4062 C4061 1.366 . S
C4062 C4063 1.414 . S
C4062 C4065 1.499 . S
C4063 H4037 0.950 . S
C4063 C4062 1.414 . S
C4063 C4064 1.374 . S
C4064 H4038 0.950 . S
C4064 C4060 1.385 . S
C4064 C4063 1.374 . S
C4065 C4062 1.499 . S
C4065 C4066 1.373 . S
C4065 C4067 1.389 . S
C4066 H4039 0.950 . S
C4066 C4052 1.377 . S
C4066 C4065 1.373 . S
C4067 C4051 1.377 . S
C4067 C4065 1.389 . S
C4067 C4068 1.524 . S
C4068 C4067 1.524 . S
C4068 C4069 1.397 . S
C4068 C4073 1.363 . S
C4069 H4040 0.950 . S
C4069 C4068 1.397 . S
C4069 C4070 1.334 . S
C4070 H4041 0.950 . S
C4070 C4069 1.334 . S
C4070 C4071 1.287 . S
C4071 C4070 1.287 . S
C4071 C4072 1.524 . S
C4071 H4074 0.999 . S
C4072 H4042 0.950 . S
C4072 C4071 1.524 . S
C4072 C4073 1.415 . S
C4073 H4043 0.950 . S
C4073 C4068 1.363 . S
C4073 C4072 1.415 . S
H4074 C4071 0.999 . S
H4075 C4056 0.913 . S
H4076 C4094 0.951 . S
H4077 C4096 0.951 . S
H4078 C4098 0.950 . S
H4079 C4099 0.950 . S
H4080 C4101 0.950 . S
H4081 C4104 0.950 . S
H4082 C4105 0.950 . S
H4083 C4107 0.950 . S
H4084 C4108 0.950 . S
H4085 C4109 0.951 . S
H4086 C4111 0.951 . S
H4087 C4113 0.950 . S
H4088 C4114 0.950 . S
H4089 C4116 0.950 . S
H4090 C4119 0.950 . S
H4091 C4120 0.950 . S
H4092 C4122 0.950 . S
H4093 C4123 0.950 . S
C4094 H4076 0.951 . S
C4094 C4095 1.366 . S
C4094 C4096 1.388 . S
C4095 C4094 1.366 . S
C4095 C4099 1.385 . S
C4096 H4077 0.951 . S
C4096 C4094 1.388 . S
C4096 C4097 1.366 . S
C4097 C4096 1.366 . S
C4097 C4098 1.414 . S
C4097 C4100 1.499 . S
C4098 H4078 0.950 . S
C4098 C4097 1.414 . S
C4098 C4099 1.374 . S
C4099 H4079 0.950 . S
C4099 C4095 1.385 . S
C4099 C4098 1.374 . S
C4100 C4097 1.499 . S
C4100 C4101 1.373 . S
C4100 C4102 1.389 . S
C4101 H4080 0.950 . S
C4101 C4100 1.373 . S
C4101 C4117 1.377 . S
C4102 C4100 1.389 . S
C4102 C4103 1.524 . S
C4102 C4116 1.377 . S
C4103 C4102 1.524 . S
C4103 C4104 1.397 . S
C4103 C4108 1.363 . S
C4104 H4081 0.950 . S
C4104 C4103 1.397 . S
C4104 C4105 1.334 . S
C4105 H4082 0.950 . S
C4105 C4104 1.334 . S
C4105 C4106 1.287 . S
C4106 C4105 1.287 . S
C4106 C4107 1.524 . S
C4106 H4125 0.913 . S
C4107 H4083 0.950 . S
C4107 C4106 1.524 . S
C4107 C4108 1.415 . S
C4108 H4084 0.950 . S
C4108 C4103 1.363 . S
C4108 C4107 1.415 . S
C4109 H4085 0.951 . S
C4109 C4110 1.366 . S
C4109 C4111 1.388 . S
C4110 C4109 1.366 . S
C4110 C4114 1.385 . S
C4111 H4086 0.951 . S
C4111 C4109 1.388 . S
C4111 C4112 1.366 . S
C4112 C4111 1.366 . S
C4112 C4113 1.414 . S
C4112 C4115 1.499 . S
C4113 H4087 0.950 . S
C4113 C4112 1.414 . S
C4113 C4114 1.374 . S
C4114 H4088 0.950 . S
C4114 C4110 1.385 . S
C4114 C4113 1.374 . S
C4115 C4112 1.499 . S
C4115 C4116 1.373 . S
C4115 C4117 1.389 . S
C4116 H4089 0.950 . S
C4116 C4102 1.377 . S
C4116 C4115 1.373 . S
C4117 C4101 1.377 . S
C4117 C4115 1.389 . S
C4117 C4118 1.524 . S
C4118 C4117 1.524 . S
C4118 C4119 1.397 . S
C4118 C4123 1.363 . S
C4119 H4090 0.950 . S
C4119 C4118 1.397 . S
C4119 C4120 1.334 . S
C4120 H4091 0.950 . S
C4120 C4119 1.334 . S
C4120 C4121 1.287 . S
C4121 C4120 1.287 . S
C4121 C4122 1.524 . S
C4121 H4124 0.999 . S
C4122 H4092 0.950 . S
C4122 C4121 1.524 . S
C4122 C4123 1.415 . S
C4123 H4093 0.950 . S
C4123 C4118 1.363 . S
C4123 C4122 1.415 . S
H4124 C4121 0.999 . S
H4125 C4106 0.913 . S
H4126 C4144 0.951 . S
H4127 C4146 0.951 . S
H4128 C4148 0.950 . S
H4129 C4149 0.950 . S
H4130 C4151 0.950 . S
H4131 C4154 0.950 . S
H4132 C4155 0.950 . S
H4133 C4157 0.950 . S
H4134 C4158 0.950 . S
H4135 C4159 0.951 . S
H4136 C4161 0.951 . S
H4137 C4163 0.950 . S
H4138 C4164 0.950 . S
H4139 C4166 0.950 . S
H4140 C4169 0.950 . S
H4141 C4170 0.950 . S
H4142 C4172 0.950 . S
H4143 C4173 0.950 . S
C4144 H4126 0.951 . S
C4144 C4145 1.366 . S
C4144 C4146 1.388 . S
C4145 C4144 1.366 . S
C4145 C4149 1.385 . S
C4146 H4127 0.951 . S
C4146 C4144 1.388 . S
C4146 C4147 1.366 . S
C4147 C4146 1.366 . S
C4147 C4148 1.414 . S
C4147 C4150 1.499 . S
C4148 H4128 0.950 . S
C4148 C4147 1.414 . S
C4148 C4149 1.374 . S
C4149 H4129 0.950 . S
C4149 C4145 1.385 . S
C4149 C4148 1.374 . S
C4150 C4147 1.499 . S
C4150 C4151 1.373 . S
C4150 C4152 1.389 . S
C4151 H4130 0.950 . S
C4151 C4150 1.373 . S
C4151 C4167 1.377 . S
C4152 C4150 1.389 . S
C4152 C4153 1.524 . S
C4152 C4166 1.377 . S
C4153 C4152 1.524 . S
C4153 C4154 1.397 . S
C4153 C4158 1.363 . S
C4154 H4131 0.950 . S
C4154 C4153 1.397 . S
C4154 C4155 1.334 . S
C4155 H4132 0.950 . S
C4155 C4154 1.334 . S
C4155 C4156 1.287 . S
C4156 C4155 1.287 . S
C4156 C4157 1.524 . S
C4156 H4175 0.913 . S
C4157 H4133 0.950 . S
C4157 C4156 1.524 . S
C4157 C4158 1.415 . S
C4158 H4134 0.950 . S
C4158 C4153 1.363 . S
C4158 C4157 1.415 . S
C4159 H4135 0.951 . S
C4159 C4160 1.366 . S
C4159 C4161 1.388 . S
C4160 C4159 1.366 . S
C4160 C4164 1.385 . S
C4161 H4136 0.951 . S
C4161 C4159 1.388 . S
C4161 C4162 1.366 . S
C4162 C4161 1.366 . S
C4162 C4163 1.414 . S
C4162 C4165 1.499 . S
C4163 H4137 0.950 . S
C4163 C4162 1.414 . S
C4163 C4164 1.374 . S
C4164 H4138 0.950 . S
C4164 C4160 1.385 . S
C4164 C4163 1.374 . S
C4165 C4162 1.499 . S
C4165 C4166 1.373 . S
C4165 C4167 1.389 . S
C4166 H4139 0.950 . S
C4166 C4152 1.377 . S
C4166 C4165 1.373 . S
C4167 C4151 1.377 . S
C4167 C4165 1.389 . S
C4167 C4168 1.524 . S
C4168 C4167 1.524 . S
C4168 C4169 1.397 . S
C4168 C4173 1.363 . S
C4169 H4140 0.950 . S
C4169 C4168 1.397 . S
C4169 C4170 1.334 . S
C4170 H4141 0.950 . S
C4170 C4169 1.334 . S
C4170 C4171 1.287 . S
C4171 C4170 1.287 . S
C4171 C4172 1.524 . S
C4171 H4174 0.999 . S
C4172 H4142 0.950 . S
C4172 C4171 1.524 . S
C4172 C4173 1.415 . S
C4173 H4143 0.950 . S
C4173 C4168 1.363 . S
C4173 C4172 1.415 . S
H4174 C4171 0.999 . S
H4175 C4156 0.913 . S
C1495 C522 1.421 . S
C1510 C776 1.344 . S
C1545 C562 1.428 . S
C1560 C860 1.359 . S
C1595 C495 1.452 . S
C1610 C954 1.415 . S
C1645 C455 1.405 . S
C1660 C870 1.370 . S
C1710 C944 1.286 . S
C1695 C362 1.355 . S
C1745 C402 1.388 . S
C1760 C786 1.346 . S
C1810 C787 1.375 . S
C1795 C442 1.427 . S
C1860 C871 1.335 . S
C1845 C375 1.404 . S
C1895 C415 1.454 . S
C1910 C963 1.414 . S
C1945 C535 1.406 . S
C1960 C879 1.369 . S
C1995 C575 1.331 . S
C2010 C955 1.261 . S
C2060 C795 1.375 . S
C2045 C482 1.390 . S
C2110 C1028 1.345 . S
C2095 C42 1.420 . S
C2145 C82 1.428 . S
C2160 C1112 1.360 . S
C2195 C15 1.452 . S
C2210 C1206 1.415 . S
C2245 C695 1.404 . S
C2260 C1122 1.370 . S
C2295 C602 1.355 . S
C2310 C1196 1.286 . S
C2345 C642 1.388 . S
C2360 C1038 1.346 . S
C2395 C682 1.427 . S
C2410 C1039 1.374 . S
C2445 C615 1.404 . S
C2460 C1123 1.334 . S
C2510 C1215 1.414 . S
C2495 C655 1.454 . S
C2545 C55 1.407 . S
C2560 C1131 1.370 . S
C2610 C1207 1.262 . S
C2595 C95 1.331 . S
C2645 C2 1.390 . S
C2660 C1047 1.376 . S
C2710 C1280 1.344 . S
C2695 C282 1.421 . S
C2745 C322 1.428 . S
C2760 C1364 1.359 . S
C2810 C1458 1.414 . S
C2795 C255 1.451 . S
C2860 C1374 1.369 . S
C2845 C215 1.404 . S
C2910 C1448 1.286 . S
C2895 C122 1.355 . S
C2945 C162 1.388 . S
C2960 C1290 1.346 . S
C2995 C202 1.427 . S
C3010 C1291 1.375 . S
C3045 C135 1.404 . S
C3060 C1375 1.335 . S
C3110 C1467 1.414 . S
C3095 C175 1.454 . S
C3145 C295 1.406 . S
C3160 C1383 1.369 . S
C3195 C335 1.331 . S
C3210 C1459 1.260 . S
C3245 C242 1.390 . S
C3260 C1299 1.375 . S
C3295 C621 1.384 . S
C3310 C783 1.277 . S
C3360 C867 1.348 . S
C3345 C661 1.489 . S
C3395 C701 1.458 . S
C3410 C960 1.336 . S
C3445 C261 1.496 . S
C3460 C876 1.366 . S
C3495 C301 1.442 . S
C3510 C951 1.316 . S
C3560 C792 1.278 . S
C3545 C341 1.384 . S
C3595 C141 1.384 . S
C3610 C1035 1.277 . S
C3645 C181 1.489 . S
C3660 C1119 1.347 . S
C3695 C221 1.459 . S
C3710 C1212 1.337 . S
C3745 C501 1.497 . S
C3760 C1128 1.368 . S
C3810 C1203 1.316 . S
C3795 C541 1.442 . S
C3845 C581 1.384 . S
C3860 C1044 1.277 . S
C3895 C381 1.384 . S
C3910 C1287 1.276 . S
C3945 C421 1.489 . S
C3960 C1371 1.348 . S
C4010 C1464 1.336 . S
C3995 C461 1.458 . S
C4045 C21 1.497 . S
C4060 C1380 1.367 . S
C4095 C61 1.443 . S
C4110 C1455 1.316 . S
C4145 C101 1.384 . S
C4160 C1296 1.276 . S
