# Generated by pormake.
# Topology iac, (4,6)-cn, num edge types: 1
# Building blocks:
#     Node 0, Type 0, BuildingBlock: QUQFOY_clean_sbu_3, # of connection points: 4
#     Node 1, Type 0, BuildingBlock: QUQFOY_clean_sbu_3, # of connection points: 4
#     Node 2, Type 0, BuildingBlock: QUQFOY_clean_sbu_3, # of connection points: 4
#     Node 3, Type 0, BuildingBlock: QUQFOY_clean_sbu_3, # of connection points: 4
#     Node 4, Type 0, BuildingBlock: QUQFOY_clean_sbu_3, # of connection points: 4
#     Node 5, Type 0, BuildingBlock: QUQFOY_clean_sbu_3, # of connection points: 4
#     Node 6, Type 0, BuildingBlock: QUQFOY_clean_sbu_3, # of connection points: 4
#     Node 7, Type 0, BuildingBlock: QUQFOY_clean_sbu_3, # of connection points: 4
#     Node 8, Type 0, BuildingBlock: QUQFOY_clean_sbu_3, # of connection points: 4
#     Node 9, Type 0, BuildingBlock: QUQFOY_clean_sbu_3, # of connection points: 4
#     Node 10, Type 0, BuildingBlock: QUQFOY_clean_sbu_3, # of connection points: 4
#     Node 11, Type 0, BuildingBlock: QUQFOY_clean_sbu_3, # of connection points: 4
#     Node 12, Type 0, BuildingBlock: QUQFOY_clean_sbu_3, # of connection points: 4
#     Node 13, Type 0, BuildingBlock: QUQFOY_clean_sbu_3, # of connection points: 4
#     Node 14, Type 0, BuildingBlock: QUQFOY_clean_sbu_3, # of connection points: 4
#     Node 15, Type 0, BuildingBlock: QUQFOY_clean_sbu_3, # of connection points: 4
#     Node 16, Type 0, BuildingBlock: QUQFOY_clean_sbu_3, # of connection points: 4
#     Node 17, Type 0, BuildingBlock: QUQFOY_clean_sbu_3, # of connection points: 4
#     Node 18, Type 0, BuildingBlock: QUQFOY_clean_sbu_3, # of connection points: 4
#     Node 19, Type 0, BuildingBlock: QUQFOY_clean_sbu_3, # of connection points: 4
#     Node 20, Type 0, BuildingBlock: QUQFOY_clean_sbu_3, # of connection points: 4
#     Node 21, Type 0, BuildingBlock: QUQFOY_clean_sbu_3, # of connection points: 4
#     Node 22, Type 0, BuildingBlock: QUQFOY_clean_sbu_3, # of connection points: 4
#     Node 23, Type 0, BuildingBlock: QUQFOY_clean_sbu_3, # of connection points: 4
#     Node 24, Type 1, BuildingBlock: VOLQOD_clean_sbu_1, # of connection points: 6
#     Node 25, Type 1, BuildingBlock: VOLQOD_clean_sbu_1, # of connection points: 6
#     Node 26, Type 1, BuildingBlock: VOLQOD_clean_sbu_1, # of connection points: 6
#     Node 27, Type 1, BuildingBlock: VOLQOD_clean_sbu_1, # of connection points: 6
#     Node 28, Type 1, BuildingBlock: VOLQOD_clean_sbu_1, # of connection points: 6
#     Node 29, Type 1, BuildingBlock: VOLQOD_clean_sbu_1, # of connection points: 6
#     Node 30, Type 1, BuildingBlock: VOLQOD_clean_sbu_1, # of connection points: 6
#     Node 31, Type 1, BuildingBlock: VOLQOD_clean_sbu_1, # of connection points: 6
#     Node 32, Type 1, BuildingBlock: VOLQOD_clean_sbu_1, # of connection points: 6
#     Node 33, Type 1, BuildingBlock: VOLQOD_clean_sbu_1, # of connection points: 6
#     Node 34, Type 1, BuildingBlock: VOLQOD_clean_sbu_1, # of connection points: 6
#     Node 35, Type 1, BuildingBlock: VOLQOD_clean_sbu_1, # of connection points: 6
#     Node 36, Type 1, BuildingBlock: VOLQOD_clean_sbu_1, # of connection points: 6
#     Node 37, Type 1, BuildingBlock: VOLQOD_clean_sbu_1, # of connection points: 6
#     Node 38, Type 1, BuildingBlock: VOLQOD_clean_sbu_1, # of connection points: 6
#     Node 39, Type 1, BuildingBlock: VOLQOD_clean_sbu_1, # of connection points: 6
#     Edge 40, Type (0, 1), BuildingBlock: OJICUG_clean_linker_0, # of connection points: 2
#     Edge 41, Type (0, 1), BuildingBlock: OJICUG_clean_linker_0, # of connection points: 2
#     Edge 42, Type (0, 1), BuildingBlock: OJICUG_clean_linker_0, # of connection points: 2
#     Edge 43, Type (0, 1), BuildingBlock: OJICUG_clean_linker_0, # of connection points: 2
#     Edge 44, Type (0, 1), BuildingBlock: OJICUG_clean_linker_0, # of connection points: 2
#     Edge 45, Type (0, 1), BuildingBlock: OJICUG_clean_linker_0, # of connection points: 2
#     Edge 46, Type (0, 1), BuildingBlock: OJICUG_clean_linker_0, # of connection points: 2
#     Edge 47, Type (0, 1), BuildingBlock: OJICUG_clean_linker_0, # of connection points: 2
#     Edge 48, Type (0, 1), BuildingBlock: OJICUG_clean_linker_0, # of connection points: 2
#     Edge 49, Type (0, 1), BuildingBlock: OJICUG_clean_linker_0, # of connection points: 2
#     Edge 50, Type (0, 1), BuildingBlock: OJICUG_clean_linker_0, # of connection points: 2
#     Edge 51, Type (0, 1), BuildingBlock: OJICUG_clean_linker_0, # of connection points: 2
#     Edge 52, Type (0, 1), BuildingBlock: OJICUG_clean_linker_0, # of connection points: 2
#     Edge 53, Type (0, 1), BuildingBlock: OJICUG_clean_linker_0, # of connection points: 2
#     Edge 54, Type (0, 1), BuildingBlock: OJICUG_clean_linker_0, # of connection points: 2
#     Edge 55, Type (0, 1), BuildingBlock: OJICUG_clean_linker_0, # of connection points: 2
#     Edge 56, Type (0, 1), BuildingBlock: OJICUG_clean_linker_0, # of connection points: 2
#     Edge 57, Type (0, 1), BuildingBlock: OJICUG_clean_linker_0, # of connection points: 2
#     Edge 58, Type (0, 1), BuildingBlock: OJICUG_clean_linker_0, # of connection points: 2
#     Edge 59, Type (0, 1), BuildingBlock: OJICUG_clean_linker_0, # of connection points: 2
#     Edge 60, Type (0, 1), BuildingBlock: OJICUG_clean_linker_0, # of connection points: 2
#     Edge 61, Type (0, 1), BuildingBlock: OJICUG_clean_linker_0, # of connection points: 2
#     Edge 62, Type (0, 1), BuildingBlock: OJICUG_clean_linker_0, # of connection points: 2
#     Edge 63, Type (0, 1), BuildingBlock: OJICUG_clean_linker_0, # of connection points: 2
#     Edge 64, Type (0, 1), BuildingBlock: OJICUG_clean_linker_0, # of connection points: 2
#     Edge 65, Type (0, 1), BuildingBlock: OJICUG_clean_linker_0, # of connection points: 2
#     Edge 66, Type (0, 1), BuildingBlock: OJICUG_clean_linker_0, # of connection points: 2
#     Edge 67, Type (0, 1), BuildingBlock: OJICUG_clean_linker_0, # of connection points: 2
#     Edge 68, Type (0, 1), BuildingBlock: OJICUG_clean_linker_0, # of connection points: 2
#     Edge 69, Type (0, 1), BuildingBlock: OJICUG_clean_linker_0, # of connection points: 2
#     Edge 70, Type (0, 1), BuildingBlock: OJICUG_clean_linker_0, # of connection points: 2
#     Edge 71, Type (0, 1), BuildingBlock: OJICUG_clean_linker_0, # of connection points: 2
#     Edge 72, Type (0, 1), BuildingBlock: OJICUG_clean_linker_0, # of connection points: 2
#     Edge 73, Type (0, 1), BuildingBlock: OJICUG_clean_linker_0, # of connection points: 2
#     Edge 74, Type (0, 1), BuildingBlock: OJICUG_clean_linker_0, # of connection points: 2
#     Edge 75, Type (0, 1), BuildingBlock: OJICUG_clean_linker_0, # of connection points: 2
#     Edge 76, Type (0, 1), BuildingBlock: OJICUG_clean_linker_0, # of connection points: 2
#     Edge 77, Type (0, 1), BuildingBlock: OJICUG_clean_linker_0, # of connection points: 2
#     Edge 78, Type (0, 1), BuildingBlock: OJICUG_clean_linker_0, # of connection points: 2
#     Edge 79, Type (0, 1), BuildingBlock: OJICUG_clean_linker_0, # of connection points: 2
#     Edge 80, Type (0, 1), BuildingBlock: OJICUG_clean_linker_0, # of connection points: 2
#     Edge 81, Type (0, 1), BuildingBlock: OJICUG_clean_linker_0, # of connection points: 2
#     Edge 82, Type (0, 1), BuildingBlock: OJICUG_clean_linker_0, # of connection points: 2
#     Edge 83, Type (0, 1), BuildingBlock: OJICUG_clean_linker_0, # of connection points: 2
#     Edge 84, Type (0, 1), BuildingBlock: OJICUG_clean_linker_0, # of connection points: 2
#     Edge 85, Type (0, 1), BuildingBlock: OJICUG_clean_linker_0, # of connection points: 2
#     Edge 86, Type (0, 1), BuildingBlock: OJICUG_clean_linker_0, # of connection points: 2
#     Edge 87, Type (0, 1), BuildingBlock: OJICUG_clean_linker_0, # of connection points: 2
#     Edge 88, Type (0, 1), BuildingBlock: OJICUG_clean_linker_0, # of connection points: 2
#     Edge 89, Type (0, 1), BuildingBlock: OJICUG_clean_linker_0, # of connection points: 2
#     Edge 90, Type (0, 1), BuildingBlock: OJICUG_clean_linker_0, # of connection points: 2
#     Edge 91, Type (0, 1), BuildingBlock: OJICUG_clean_linker_0, # of connection points: 2
#     Edge 92, Type (0, 1), BuildingBlock: OJICUG_clean_linker_0, # of connection points: 2
#     Edge 93, Type (0, 1), BuildingBlock: OJICUG_clean_linker_0, # of connection points: 2
#     Edge 94, Type (0, 1), BuildingBlock: OJICUG_clean_linker_0, # of connection points: 2
#     Edge 95, Type (0, 1), BuildingBlock: OJICUG_clean_linker_0, # of connection points: 2
#     Edge 96, Type (0, 1), BuildingBlock: OJICUG_clean_linker_0, # of connection points: 2
#     Edge 97, Type (0, 1), BuildingBlock: OJICUG_clean_linker_0, # of connection points: 2
#     Edge 98, Type (0, 1), BuildingBlock: OJICUG_clean_linker_0, # of connection points: 2
#     Edge 99, Type (0, 1), BuildingBlock: OJICUG_clean_linker_0, # of connection points: 2
#     Edge 100, Type (0, 1), BuildingBlock: OJICUG_clean_linker_0, # of connection points: 2
#     Edge 101, Type (0, 1), BuildingBlock: OJICUG_clean_linker_0, # of connection points: 2
#     Edge 102, Type (0, 1), BuildingBlock: OJICUG_clean_linker_0, # of connection points: 2
#     Edge 103, Type (0, 1), BuildingBlock: OJICUG_clean_linker_0, # of connection points: 2
#     Edge 104, Type (0, 1), BuildingBlock: OJICUG_clean_linker_0, # of connection points: 2
#     Edge 105, Type (0, 1), BuildingBlock: OJICUG_clean_linker_0, # of connection points: 2
#     Edge 106, Type (0, 1), BuildingBlock: OJICUG_clean_linker_0, # of connection points: 2
#     Edge 107, Type (0, 1), BuildingBlock: OJICUG_clean_linker_0, # of connection points: 2
#     Edge 108, Type (0, 1), BuildingBlock: OJICUG_clean_linker_0, # of connection points: 2
#     Edge 109, Type (0, 1), BuildingBlock: OJICUG_clean_linker_0, # of connection points: 2
#     Edge 110, Type (0, 1), BuildingBlock: OJICUG_clean_linker_0, # of connection points: 2
#     Edge 111, Type (0, 1), BuildingBlock: OJICUG_clean_linker_0, # of connection points: 2
#     Edge 112, Type (0, 1), BuildingBlock: OJICUG_clean_linker_0, # of connection points: 2
#     Edge 113, Type (0, 1), BuildingBlock: OJICUG_clean_linker_0, # of connection points: 2
#     Edge 114, Type (0, 1), BuildingBlock: OJICUG_clean_linker_0, # of connection points: 2
#     Edge 115, Type (0, 1), BuildingBlock: OJICUG_clean_linker_0, # of connection points: 2
#     Edge 116, Type (0, 1), BuildingBlock: OJICUG_clean_linker_0, # of connection points: 2
#     Edge 117, Type (0, 1), BuildingBlock: OJICUG_clean_linker_0, # of connection points: 2
#     Edge 118, Type (0, 1), BuildingBlock: OJICUG_clean_linker_0, # of connection points: 2
#     Edge 119, Type (0, 1), BuildingBlock: OJICUG_clean_linker_0, # of connection points: 2
#     Edge 120, Type (0, 1), BuildingBlock: OJICUG_clean_linker_0, # of connection points: 2
#     Edge 121, Type (0, 1), BuildingBlock: OJICUG_clean_linker_0, # of connection points: 2
#     Edge 122, Type (0, 1), BuildingBlock: OJICUG_clean_linker_0, # of connection points: 2
#     Edge 123, Type (0, 1), BuildingBlock: OJICUG_clean_linker_0, # of connection points: 2
#     Edge 124, Type (0, 1), BuildingBlock: OJICUG_clean_linker_0, # of connection points: 2
#     Edge 125, Type (0, 1), BuildingBlock: OJICUG_clean_linker_0, # of connection points: 2
#     Edge 126, Type (0, 1), BuildingBlock: OJICUG_clean_linker_0, # of connection points: 2
#     Edge 127, Type (0, 1), BuildingBlock: OJICUG_clean_linker_0, # of connection points: 2
#     Edge 128, Type (0, 1), BuildingBlock: OJICUG_clean_linker_0, # of connection points: 2
#     Edge 129, Type (0, 1), BuildingBlock: OJICUG_clean_linker_0, # of connection points: 2
#     Edge 130, Type (0, 1), BuildingBlock: OJICUG_clean_linker_0, # of connection points: 2
#     Edge 131, Type (0, 1), BuildingBlock: OJICUG_clean_linker_0, # of connection points: 2
#     Edge 132, Type (0, 1), BuildingBlock: OJICUG_clean_linker_0, # of connection points: 2
#     Edge 133, Type (0, 1), BuildingBlock: OJICUG_clean_linker_0, # of connection points: 2
#     Edge 134, Type (0, 1), BuildingBlock: OJICUG_clean_linker_0, # of connection points: 2
#     Edge 135, Type (0, 1), BuildingBlock: OJICUG_clean_linker_0, # of connection points: 2
# Relax obj value: 0.303
# Max RMSD: 0.292
# Mean RMSD: 0.139
data_MOF--net-iac--node1-QUQFOY_clean_sbu_3--node2-VOLQOD_clean_sbu_1--edge1-OJICUG_clean_linker_0
_symmetry_space_group_name_H-M    P1
_symmetry_Int_Tables_number       1
_symmetry_cell_setting            triclinic
loop_
_symmetry_equiv_pos_as_xyz
'x, y, z'
_cell_length_a     41.85184
_cell_length_b     42.512513
_cell_length_c     42.076769
_cell_angle_alpha  91.174901
_cell_angle_beta   89.982959
_cell_angle_gamma 90.692458
loop_
_atom_site_label
_atom_site_type_symbol
_atom_site_fract_x
_atom_site_fract_y
_atom_site_fract_z
_atom_type_partial_charge
C0 C 0.96635 0.23151 0.18798 0.0
O1 O -0.00911 0.21838 0.19913 0.0
Cd2 Cd 0.03838 0.21226 0.17041 0.0
O3 O 0.96627 0.24324 0.16021 0.0
Cd4 Cd 0.00414 0.24942 0.11466 0.0
C5 C 0.00056 0.1701 0.11013 0.0
O6 O 0.04367 0.26473 0.15196 0.0
O7 O 0.06265 0.2565 0.10518 0.0
O8 O -0.01772 0.30033 0.10252 0.0
C9 C 0.06675 0.26774 0.13307 0.0
O10 O 0.01812 0.17065 0.13482 0.0
C11 C -0.01513 0.29697 0.07255 0.0
O12 O -0.00773 0.19553 0.09725 0.0
O13 O -0.00626 0.27028 0.06202 0.0
C14 C 0.92401 0.78199 0.36534 0.0
O15 O 0.93865 0.80753 0.35935 0.0
Cd16 Cd -0.00738 0.81635 0.37355 0.0
O17 O 0.93677 0.76083 0.38221 0.0
Cd18 Cd -0.01253 0.75212 0.41204 0.0
C19 C -0.01683 0.82035 0.45448 0.0
O20 O 0.00936 0.76422 0.36145 0.0
O21 O 0.04434 0.75008 0.39557 0.0
O22 O 0.96884 0.69803 0.40645 0.0
C23 C 0.03737 0.75538 0.36687 0.0
O24 O -0.0119 0.83342 0.42806 0.0
C25 C -0.01312 0.68712 0.42771 0.0
O26 O -0.01884 0.79059 0.4564 0.0
O27 O 0.00324 0.70697 0.44394 0.0
C28 C 0.43585 0.72209 0.65491 0.0
O29 O 0.45865 0.70789 0.66806 0.0
Cd30 Cd 0.51257 0.71354 0.65246 0.0
O31 O 0.44091 0.74123 0.63235 0.0
Cd32 Cd 0.48839 0.76001 0.60135 0.0
C33 C 0.49797 0.68559 0.57667 0.0
O34 O 0.52045 0.76923 0.64819 0.0
O35 O 0.54633 0.77004 0.60391 0.0
O36 O 0.46734 0.81267 0.59721 0.0
C37 C 0.54553 0.77688 0.63337 0.0
O38 O 0.50897 0.68142 0.60441 0.0
C39 C 0.47532 0.81591 0.56832 0.0
O40 O 0.48827 0.71236 0.56838 0.0
O41 O 0.48642 0.79191 0.55391 0.0
C42 C 0.47143 0.26889 0.83314 0.0
O43 O 0.49495 0.28171 0.81916 0.0
Cd44 Cd 0.54585 0.28233 0.84222 0.0
O45 O 0.47486 0.25445 0.8593 0.0
Cd46 Cd 0.51647 0.23758 0.89786 0.0
C47 C 0.52295 0.31402 0.91645 0.0
O48 O 0.5462 0.22792 0.85205 0.0
O49 O 0.57486 0.22461 0.89387 0.0
O50 O 0.48364 0.19057 0.90072 0.0
C51 C 0.57236 0.2203 0.86404 0.0
O52 O 0.53533 0.31573 0.88885 0.0
C53 C 0.49524 0.18155 0.92682 0.0
O54 O 0.51346 0.28771 0.92708 0.0
O55 O 0.51476 0.20014 0.94096 0.0
C56 C 0.07908 0.03077 0.32934 0.0
O57 O 0.06291 0.04708 0.31038 0.0
Cd58 Cd 0.07451 0.05353 0.2565 0.0
O59 O 0.10388 0.01583 0.31988 0.0
Cd60 Cd 0.13201 0.00672 0.26684 0.0
C61 C 0.15162 0.08361 0.26248 0.0
O62 O 0.07986 -0.00066 0.24288 0.0
O63 O 0.11901 0.00107 0.2099 0.0
O64 O 0.14495 0.95483 0.28672 0.0
C65 C 0.0899 -0.00553 0.21501 0.0
O66 O 0.12197 0.08718 0.25722 0.0
C67 C 0.16717 0.94919 0.26689 0.0
O68 O 0.16277 0.05639 0.26734 0.0
O69 O 0.17537 0.97155 0.24906 0.0
C70 C 0.27583 0.9135 0.45682 0.0
O71 O 0.2506 0.92588 0.44618 0.0
Cd72 Cd 0.19686 0.91778 0.46352 0.0
O73 O 0.27446 0.89292 0.47851 0.0
Cd74 Cd 0.22906 0.86701 0.50588 0.0
C75 C 0.18877 0.84288 0.43962 0.0
O76 O 0.20388 0.91591 0.52002 0.0
O77 O 0.17648 0.87449 0.53097 0.0
O78 O 0.25091 0.84992 0.55609 0.0
C79 C 0.18018 0.90398 0.53411 0.0
O80 O 0.17714 0.87008 0.43617 0.0
C81 C 0.24455 0.82103 0.55017 0.0
O82 O 0.20891 0.83804 0.46133 0.0
O83 O 0.23492 0.81372 0.52244 0.0
C84 C 0.3772 0.94069 0.78733 0.0
O85 O 0.3907 0.9238 0.76619 0.0
Cd86 Cd 0.37093 0.92311 0.71346 0.0
O87 O 0.3546 0.9592 0.78008 0.0
Cd88 Cd 0.32383 0.97743 0.73351 0.0
C89 C 0.29186 0.90621 0.73197 0.0
O90 O 0.37007 0.97735 0.70008 0.0
O91 O 0.32481 0.97896 0.6755 0.0
O92 O 0.32997 0.03154 0.75154 0.0
C93 C 0.35487 0.9831 0.67496 0.0
O94 O 0.31923 0.89808 0.72184 0.0
C95 C 0.30235 0.04006 0.743 0.0
O96 O 0.2858 0.93463 0.73924 0.0
O97 O 0.28321 0.01855 0.73328 0.0
C98 C 0.24705 0.05243 0.01507 0.0
O99 O 0.22619 0.03916 0.03231 0.0
Cd100 Cd 0.175 0.06127 0.03548 0.0
O101 O 0.23974 0.07538 -0.00258 0.0
Cd102 Cd 0.19448 0.10851 0.98096 0.0
C103 C 0.20413 0.13564 0.0549 0.0
O104 O 0.16155 0.06305 0.97982 0.0
O105 O 0.13563 0.10626 0.97697 0.0
O106 O 0.22171 0.11317 0.92998 0.0
C107 C 0.13539 0.07648 0.9747 0.0
O108 O 0.19316 0.10919 0.0638 0.0
C109 C 0.20906 0.13944 0.92406 0.0
O110 O 0.20554 0.14212 0.02569 0.0
O111 O 0.19023 0.15104 0.94463 0.0
C112 C 0.75633 0.41738 -0.00625 0.0
O113 O 0.7365 0.4398 -0.00589 0.0
Cd114 Cd 0.68175 0.43453 0.00462 0.0
O115 O 0.7493 0.39068 0.00556 0.0
Cd116 Cd 0.70315 0.36429 0.03308 0.0
C117 C 0.68217 0.36733 0.95645 0.0
O118 O 0.68169 0.41114 0.05504 0.0
O119 O 0.64878 0.3723 0.05488 0.0
O120 O 0.73669 0.33903 0.07206 0.0
C121 C 0.65398 0.40114 0.06145 0.0
O122 O 0.67752 0.39671 0.96029 0.0
C123 C 0.72227 0.31256 0.06916 0.0
O124 O 0.68963 0.35007 0.97951 0.0
O125 O 0.69974 0.31033 0.04901 0.0
C126 C 0.8879 0.43115 0.25871 0.0
O127 O 0.89756 0.41174 0.23758 0.0
Cd128 Cd 0.87535 0.41255 0.18499 0.0
O129 O 0.86634 0.45099 0.25235 0.0
Cd130 Cd 0.83217 0.46723 0.20843 0.0
C131 C 0.79801 0.3959 0.20396 0.0
O132 O 0.87721 0.46758 0.17297 0.0
O133 O 0.83155 0.4749 0.1507 0.0
O134 O 0.83434 0.51967 0.23154 0.0
C135 C 0.8618 0.47591 0.14882 0.0
O136 O 0.82275 0.38699 0.18885 0.0
C137 C 0.80502 0.52539 0.22684 0.0
O138 O 0.79631 0.42347 0.21576 0.0
O139 O 0.78797 0.50339 0.2147 0.0
C140 C 0.80779 0.58133 0.53447 0.0
O141 O 0.79498 0.57313 0.56041 0.0
Cd142 Cd 0.74484 0.59256 0.57715 0.0
O143 O 0.79431 0.60121 0.51674 0.0
Cd144 Cd 0.7444 0.63146 0.51802 0.0
C145 C 0.76216 0.6704 0.5858 0.0
O146 O 0.71379 0.58464 0.52916 0.0
O147 O 0.6869 0.62755 0.52666 0.0
O148 O 0.74397 0.62817 0.46018 0.0
C149 C 0.6873 0.59778 0.52451 0.0
O150 O 0.75679 0.64451 0.59947 0.0
C151 C 0.73577 0.65656 0.45694 0.0
O152 O 0.75963 0.67232 0.55593 0.0
O153 O 0.73397 0.67355 0.48197 0.0
C154 C 0.57206 0.55141 0.78962 0.0
O155 O 0.55442 0.56459 0.76941 0.0
Cd156 Cd 0.5706 0.57318 0.7165 0.0
O157 O 0.59893 0.5398 0.78143 0.0
Cd158 Cd 0.63094 0.53192 0.73134 0.0
C159 C 0.64271 0.61056 0.7347 0.0
O160 O 0.58394 0.52134 0.699 0.0
O161 O 0.62786 0.52765 0.67296 0.0
O162 O 0.63654 0.47925 0.75037 0.0
C163 C 0.59889 0.51853 0.67301 0.0
O164 O 0.61364 0.61106 0.72591 0.0
C165 C 0.66433 0.47439 0.73942 0.0
O166 O 0.65672 0.58444 0.73861 0.0
O167 O 0.67864 0.49776 0.72719 0.0
C168 C 0.93253 0.79551 0.8371 0.0
O169 O 0.95511 0.81419 0.82964 0.0
Cd170 Cd 0.00993 0.80151 0.84117 0.0
O171 O 0.9382 0.77039 0.85178 0.0
Cd172 Cd -0.01939 0.74029 0.87428 0.0
C173 C 0.00748 0.79933 0.92218 0.0
O174 O 0.01274 0.74662 0.82747 0.0
O175 O 0.0346 0.72135 0.86574 0.0
O176 O 0.95086 0.69267 0.86067 0.0
C177 C 0.036 0.73083 0.83737 0.0
O178 O 0.01861 0.81265 0.89764 0.0
C179 C 0.94972 0.68296 0.88896 0.0
O180 O -0.00884 0.77405 0.91972 0.0
O181 O 0.96269 0.70019 0.91041 0.0
C182 C 0.95318 0.27825 0.70459 0.0
O183 O 0.97006 0.25892 0.71995 0.0
Cd184 Cd 0.02274 0.23761 0.70791 0.0
O185 O 0.96221 0.28858 0.67776 0.0
Cd186 Cd 0.00652 0.28537 0.63992 0.0
C187 C 0.01604 0.20317 0.63408 0.0
O188 O 0.04249 0.28005 0.67963 0.0
O189 O 0.05999 0.31463 0.64793 0.0
O190 O 0.97756 0.32572 0.6131 0.0
C191 C 0.06511 0.29798 0.67208 0.0
O192 O 0.02138 0.19938 0.66362 0.0
C193 C -0.01464 0.31609 0.58533 0.0
O194 O 0.00981 0.23012 0.62309 0.0
O195 O 0.00433 0.29299 0.58322 0.0
C196 C 0.47161 0.24855 0.29236 0.0
O197 O 0.49589 0.26226 0.28043 0.0
Cd198 Cd 0.54812 0.25944 0.30394 0.0
O199 O 0.47286 0.23564 0.31935 0.0
Cd200 Cd 0.50668 0.22363 0.36429 0.0
C201 C 0.53823 0.29842 0.37547 0.0
O202 O 0.53955 0.20792 0.32367 0.0
O203 O 0.55628 0.19026 0.36791 0.0
O204 O 0.46096 0.18969 0.37405 0.0
C205 C 0.56053 0.19298 0.33818 0.0
O206 O 0.5515 0.29845 0.34819 0.0
C207 C 0.46193 0.19345 0.40406 0.0
O208 O 0.52119 0.27521 0.38418 0.0
O209 O 0.48459 0.21035 0.41543 0.0
C210 C 0.41119 0.71875 0.20353 0.0
O211 O 0.4284 0.69782 0.21605 0.0
Cd212 Cd 0.4846 0.68961 0.20206 0.0
O213 O 0.42205 0.73556 0.18128 0.0
Cd214 Cd 0.46814 0.74609 0.14874 0.0
C215 C 0.4867 0.67173 0.12215 0.0
O216 O 0.50221 0.74236 0.19427 0.0
O217 O 0.52458 0.76048 0.15229 0.0
O218 O 0.44711 0.79833 0.13925 0.0
C219 C 0.52766 0.75039 0.18027 0.0
O220 O 0.49272 0.66279 0.15025 0.0
C221 C 0.4469 0.79478 0.10914 0.0
O222 O 0.47557 0.69887 0.11721 0.0
O223 O 0.45732 0.76897 0.09782 0.0
C224 C 0.89124 0.98488 0.8353 0.0
O225 O 0.9066 0.96789 0.81543 0.0
Cd226 Cd 0.91673 0.98198 0.76069 0.0
O227 O 0.87937 0.01087 0.82715 0.0
Cd228 Cd 0.87213 0.04527 0.78289 0.0
C229 C 0.83925 -0.0123 0.73368 0.0
O230 O 0.9249 0.03709 0.76341 0.0
O231 O 0.89612 0.06869 0.73645 0.0
O232 O 0.87905 0.09391 0.81437 0.0
C233 C 0.92208 0.05386 0.73907 0.0
O234 O 0.86643 0.97452 0.73269 0.0
C235 C 0.84998 0.10167 0.81198 0.0
O236 O 0.83446 0.01199 0.75136 0.0
O237 O 0.83149 0.08303 0.79649 0.0
C238 C 0.78531 0.06336 0.52785 0.0
O239 O 0.76783 0.0486 0.54736 0.0
Cd240 Cd 0.71624 0.06909 0.56253 0.0
O241 O 0.77544 0.08841 0.51538 0.0
Cd242 Cd 0.72998 0.12338 0.51067 0.0
C243 C 0.73331 0.14652 0.58654 0.0
O244 O 0.68977 0.08161 0.51441 0.0
O245 O 0.67229 0.12916 0.51277 0.0
O246 O 0.7475 0.12106 0.45661 0.0
C247 C 0.66617 0.10002 0.51528 0.0
O248 O 0.72394 0.11858 0.59248 0.0
C249 C 0.7489 0.15054 0.45269 0.0
O250 O 0.74004 0.1545 0.55835 0.0
O251 O 0.73953 0.1681 0.47557 0.0
C252 C 0.56901 0.02209 0.29191 0.0
O253 O 0.56195 0.04427 0.2734 0.0
Cd254 Cd 0.5697 0.042 0.21658 0.0
O255 O 0.58459 -0.00161 0.28189 0.0
Cd256 Cd 0.60889 0.98019 0.23277 0.0
C257 C 0.64981 0.04468 0.20855 0.0
O258 O 0.55881 -0.01269 0.20662 0.0
O259 O 0.59529 0.96646 0.17741 0.0
O260 O 0.61487 0.92923 0.25797 0.0
C261 C 0.56693 0.9763 0.17986 0.0
O262 O 0.62392 0.05789 0.20077 0.0
C263 C 0.64379 0.92684 0.24895 0.0
O264 O 0.64927 0.01898 0.22323 0.0
O265 O 0.65509 0.94853 0.23192 0.0
C266 C 0.75274 0.92185 0.04595 0.0
O267 O 0.73538 0.94377 0.03573 0.0
Cd268 Cd 0.68417 0.93071 0.01191 0.0
O269 O 0.74331 0.89335 0.04366 0.0
Cd270 Cd 0.70334 0.85309 0.02966 0.0
C271 C 0.70121 0.87441 0.95239 0.0
O272 O 0.66407 0.88981 0.04392 0.0
O273 O 0.64442 0.8446 0.03046 0.0
O274 O 0.73203 0.83576 0.07513 0.0
C275 C 0.63977 0.87376 0.03543 0.0
O276 O 0.69252 0.90184 0.96151 0.0
C277 C 0.73318 0.80687 0.0672 0.0
O278 O 0.70854 0.85327 0.97214 0.0
O279 O 0.7182 0.79822 0.04209 0.0
C280 C 0.28196 0.55382 0.00015 0.0
O281 O 0.26738 0.5361 0.01943 0.0
Cd282 Cd 0.21248 0.55035 0.03338 0.0
O283 O 0.26806 0.57757 -0.01076 0.0
Cd284 Cd 0.21959 0.60697 -0.01392 0.0
C285 C 0.21144 0.62746 0.06242 0.0
O286 O 0.18541 0.55984 -0.0157 0.0
O287 O 0.16215 0.60493 0.9805 0.0
O288 O 0.23928 0.60584 0.93311 0.0
C289 C 0.15975 0.5752 0.98164 0.0
O290 O 0.20671 0.59812 0.06643 0.0
C291 C 0.23943 0.63527 0.92911 0.0
O292 O 0.22021 0.63773 0.03558 0.0
O293 O 0.22879 0.65244 0.95177 0.0
C294 C 0.0384 0.45542 0.75195 0.0
O295 O 0.02638 0.47233 0.7305 0.0
Cd296 Cd 0.0482 0.47928 0.6781 0.0
O297 O 0.06559 0.44275 0.74806 0.0
Cd298 Cd 0.10798 0.43898 0.70769 0.0
C299 C 0.11992 0.51683 0.69063 0.0
O300 O 0.06857 0.42774 0.66936 0.0
O301 O 0.11567 0.42737 0.64953 0.0
O302 O 0.12686 0.39177 0.7338 0.0
C303 C 0.08576 0.42524 0.64492 0.0
O304 O 0.0926 0.51832 0.6774 0.0
C305 C 0.15494 0.40292 0.73786 0.0
O306 O 0.12827 0.49215 0.70481 0.0
O307 O 0.16104 0.42964 0.72631 0.0
C308 C 0.29338 0.42987 0.49132 0.0
O309 O 0.27521 0.45015 0.47927 0.0
Cd310 Cd 0.22358 0.43538 0.45898 0.0
O311 O 0.28345 0.40204 0.49643 0.0
Cd312 Cd 0.23817 0.36507 0.49716 0.0
C313 C 0.24301 0.36574 0.41719 0.0
O314 O 0.20038 0.40578 0.49971 0.0
O315 O 0.17939 0.35969 0.4929 0.0
O316 O 0.25676 0.36015 0.55047 0.0
C317 C 0.17586 0.38934 0.4928 0.0
O318 O 0.23522 0.39469 0.41851 0.0
C319 C 0.26037 0.33054 0.54979 0.0
O320 O 0.24666 0.34957 0.44213 0.0
O321 O 0.25126 0.31569 0.52471 0.0
C322 C 0.42657 0.51174 0.27099 0.0
O323 O 0.44423 0.50901 0.24654 0.0
Cd324 Cd 0.42464 0.51038 0.19272 0.0
O325 O 0.39674 0.5168 0.26853 0.0
Cd326 Cd 0.35486 0.52728 0.22951 0.0
C327 C 0.36184 0.45644 0.19172 0.0
O328 O 0.38953 0.55371 0.19419 0.0
O329 O 0.34212 0.54553 0.17625 0.0
O330 O 0.33473 0.56734 0.26518 0.0
C331 C 0.37057 0.55438 0.17086 0.0
O332 O 0.38981 0.46403 0.18223 0.0
C333 C 0.30597 0.55748 0.26438 0.0
O334 O 0.34597 0.47426 0.21044 0.0
O335 O 0.30003 0.53283 0.24774 0.0
O336 O 0.94637 0.04495 0.03774 0.0
Zn337 Zn 0.95366 0.00469 0.01311 0.0
O338 O 0.95895 0.96869 0.04018 0.0
Zn339 Zn 0.00239 0.95552 0.04095 0.0
Zn340 Zn 0.94455 0.98063 0.08217 0.0
Zn341 Zn 0.93409 0.9339 0.0241 0.0
O342 O 0.00815 0.91181 0.0241 0.0
O343 O 0.9584 0.89377 0.02053 0.0
O344 O -0.00534 0.01462 -0.00908 0.0
O345 O 0.02906 0.98319 0.01433 0.0
O346 O 0.01834 0.9585 0.08507 0.0
O347 O 0.97534 0.96538 0.11544 0.0
O348 O 0.89814 0.96671 0.08766 0.0
O349 O 0.92105 -0.00431 0.97947 0.0
O350 O 0.89523 0.92884 0.05029 0.0
O351 O 0.91908 0.94336 0.98007 0.0
C352 C 0.9486 0.0501 0.06754 0.0
C353 C -0.01164 0.8895 0.01847 0.0
C354 C 0.00534 0.96099 0.11232 0.0
C355 C 0.02291 0.00489 -0.00498 0.0
C356 C 0.88297 0.94443 0.07324 0.0
C357 C 0.91274 0.96928 0.967 0.0
O358 O 0.94862 0.0275 0.08691 0.0
O359 O 0.17679 0.69097 0.19523 0.0
Zn360 Zn 0.17705 0.69436 0.24232 0.0
O361 O 0.19857 0.73309 0.25326 0.0
Zn362 Zn 0.22767 0.72627 0.28731 0.0
Zn363 Zn 0.2167 0.75606 0.21837 0.0
Zn364 Zn 0.16396 0.7571 0.26795 0.0
O365 O 0.21265 0.75006 0.32615 0.0
O366 O 0.16109 0.75623 0.31495 0.0
O367 O 0.20117 0.65796 0.25892 0.0
O368 O 0.23036 0.68054 0.29716 0.0
O369 O 0.27242 0.73665 0.27251 0.0
O370 O 0.26376 0.75085 0.22253 0.0
O371 O 0.20781 0.80435 0.22246 0.0
O372 O 0.13366 0.69406 0.2633 0.0
O373 O 0.17095 0.80138 0.26 0.0
O374 O 0.1243 0.74147 0.24743 0.0
C375 C 0.18872 0.70649 0.17234 0.0
C376 C 0.18436 0.75776 0.33437 0.0
C377 C 0.28267 0.74383 0.24499 0.0
C378 C 0.22048 0.65605 0.28212 0.0
C379 C 0.189 0.81763 0.24248 0.0
C380 C 0.11471 0.71706 0.2614 0.0
O381 O 0.20381 0.73262 0.17705 0.0
O382 O 0.48003 0.94237 0.48433 0.0
Zn383 Zn 0.46579 0.98019 0.46004 0.0
O384 O 0.4623 0.01735 0.48799 0.0
Zn385 Zn 0.41797 0.02982 0.49289 0.0
Zn386 Zn 0.48222 0.00913 0.52856 0.0
Zn387 Zn 0.48451 0.05215 0.47065 0.0
O388 O 0.40844 0.07432 0.47996 0.0
O389 O 0.45794 0.08958 0.46884 0.0
O390 O 0.42219 0.96621 0.44453 0.0
O391 O 0.38982 0.00078 0.46786 0.0
O392 O 0.40602 0.02523 0.53824 0.0
O393 O 0.45223 0.02071 0.56383 0.0
O394 O 0.52616 0.0301 0.53392 0.0
O395 O 0.49438 -0.01029 0.42246 0.0
O396 O 0.52304 0.06407 0.49482 0.0
O397 O 0.49971 0.04173 0.42742 0.0
C398 C 0.48482 0.93913 0.51396 0.0
C399 C 0.42854 0.09547 0.47241 0.0
C400 C 0.42188 0.02312 0.56388 0.0
C401 C 0.39436 0.97672 0.45009 0.0
C402 C 0.53768 0.05304 0.51838 0.0
C403 C 0.50419 0.01614 0.41206 0.0
O404 O 0.48607 0.96278 0.53295 0.0
O405 O 0.26421 0.22994 0.81736 0.0
Zn406 Zn 0.27706 0.26433 0.78886 0.0
O407 O 0.26879 0.25273 0.74571 0.0
Zn408 Zn 0.30483 0.23746 0.72321 0.0
Zn409 Zn 0.23379 0.22363 0.74592 0.0
Zn410 Zn 0.25932 0.29229 0.7284 0.0
O411 O 0.30454 0.25298 0.67718 0.0
O412 O 0.27947 0.29794 0.68671 0.0
O413 O 0.32336 0.27131 0.79335 0.0
O414 O 0.34414 0.25186 0.74819 0.0
O415 O 0.30078 0.19058 0.72445 0.0
O416 O 0.24821 0.18172 0.72733 0.0
O417 O 0.19591 0.2442 0.72596 0.0
O418 O 0.25097 0.30288 0.799 0.0
O419 O 0.21226 0.29408 0.72074 0.0
O420 O 0.27334 0.32606 0.75887 0.0
C421 C 0.23918 0.21287 0.81549 0.0
C422 C 0.29451 0.27956 0.66805 0.0
C423 C 0.27682 0.17171 0.72491 0.0
C424 C 0.34726 0.26465 0.77585 0.0
C425 C 0.19054 0.27285 0.71918 0.0
C426 C 0.25512 0.32754 0.78286 0.0
O427 O 0.22185 0.21188 0.79065 0.0
O428 O 0.00289 0.00809 0.46043 0.0
Zn429 Zn 0.97691 -0.00386 0.49891 0.0
O430 O -0.00175 0.01281 0.53596 0.0
Zn431 Zn 0.00234 0.98125 0.56856 0.0
Zn432 Zn 0.03929 0.03207 0.52766 0.0
Zn433 Zn 0.97397 0.04771 0.55029 0.0
O434 O -0.01368 -0.00143 0.61089 0.0
O435 O 0.9721 0.04661 0.59688 0.0
O436 O 0.97458 0.94957 0.50268 0.0
O437 O -0.01754 0.93956 0.55393 0.0
O438 O 0.0483 0.97008 0.57335 0.0
O439 O 0.07381 0.005 0.54383 0.0
O440 O 0.04238 0.07489 0.55007 0.0
O441 O 0.93065 0.01013 0.49593 0.0
O442 O -0.00682 0.08895 0.53917 0.0
O443 O 0.92966 0.04616 0.53482 0.0
C444 C 0.02951 0.02262 0.45672 0.0
C445 C 0.97658 0.0262 0.61801 0.0
C446 C 0.07395 0.98118 0.56161 0.0
C447 C 0.97523 0.93056 0.52569 0.0
C448 C 0.02093 0.09586 0.54935 0.0
C449 C 0.91581 0.03026 0.51298 0.0
O450 O 0.04561 0.03379 0.48021 0.0
O451 O 0.30087 0.71779 0.72546 0.0
Zn452 Zn 0.26092 0.7234 0.75047 0.0
O453 O 0.22664 0.70403 0.72624 0.0
Zn454 Zn 0.19523 0.73543 0.71563 0.0
Zn455 Zn 0.24186 0.6828 0.68793 0.0
Zn456 Zn 0.20759 0.6731 0.75204 0.0
O457 O 0.15272 0.72688 0.73639 0.0
O458 O 0.16663 0.68884 0.76888 0.0
O459 O 0.25494 0.76957 0.75546 0.0
O460 O 0.20918 0.77836 0.73091 0.0
O461 O 0.19409 0.74169 0.66876 0.0
O462 O 0.23406 0.71158 0.65196 0.0
O463 O 0.21858 0.64055 0.67984 0.0
O464 O 0.26561 0.70533 0.79421 0.0
O465 O 0.19755 0.63422 0.72785 0.0
O466 O 0.23426 0.66305 0.78897 0.0
C467 C 0.30967 0.69927 0.70306 0.0
C468 C 0.14662 0.70891 0.75958 0.0
C469 C 0.2142 0.73345 0.64753 0.0
C470 C 0.23355 0.78827 0.74623 0.0
C471 C 0.20226 0.62455 0.69956 0.0
C472 C 0.25461 0.67948 0.80456 0.0
O473 O 0.29026 0.68031 0.68887 0.0
O474 O 0.50438 -0.00011 0.04361 0.0
Zn475 Zn 0.49514 -0.00501 -0.0019 0.0
O476 O 0.454 0.9739 -0.0063 0.0
Zn477 Zn 0.45964 0.93193 0.97463 0.0
Zn478 Zn 0.43187 0.9715 0.03467 0.0
Zn479 Zn 0.4296 -0.00097 0.96622 0.0
O480 O 0.44177 0.92876 0.92929 0.0
O481 O 0.41949 0.97586 0.92705 0.0
O482 O 0.53103 0.96701 -0.01519 0.0
O483 O 0.50625 0.92097 0.97742 0.0
O484 O 0.43914 0.89903 0.00212 0.0
O485 O 0.42343 0.92658 0.04456 0.0
O486 O 0.38951 -0.00586 0.03528 0.0
O487 O 0.49753 0.03837 0.97921 0.0
O488 O 0.38895 0.01045 -0.01442 0.0
O489 O 0.45028 0.03956 0.95574 0.0
C490 C 0.48989 -0.00473 0.0696 0.0
C491 C 0.42517 0.94902 0.91482 0.0
C492 C 0.42732 0.90039 0.03003 0.0
C493 C 0.53176 0.93716 0.98165 0.0
C494 C 0.3759 0.00813 0.01259 0.0
C495 C 0.47679 0.0526 0.9629 0.0
O496 O 0.46086 -0.01398 0.07027 0.0
O497 O 0.19139 0.28255 0.21421 0.0
Zn498 Zn 0.22693 0.26608 0.24068 0.0
O499 O 0.26622 0.26682 0.21649 0.0
Zn500 Zn 0.28374 0.22441 0.21535 0.0
Zn501 Zn 0.25989 0.2822 0.17342 0.0
Zn502 Zn 0.29531 0.29543 0.23693 0.0
O503 O 0.33067 0.22482 0.2275 0.0
O504 O 0.33641 0.27509 0.24248 0.0
O505 O 0.21462 0.22171 0.25063 0.0
O506 O 0.25825 0.19378 0.24187 0.0
O507 O 0.27669 0.20656 0.17164 0.0
O508 O 0.26407 0.24699 0.14168 0.0
O509 O 0.28713 0.32039 0.16246 0.0
O510 O 0.2309 0.29025 0.28228 0.0
O511 O 0.30561 0.33182 0.21084 0.0
O512 O 0.27961 0.31125 0.27872 0.0
C513 C 0.18976 0.29192 0.18569 0.0
C514 C 0.3478 0.24794 0.23759 0.0
C515 C 0.26848 0.21769 0.14505 0.0
C516 C 0.22941 0.19575 0.25136 0.0
C517 C 0.3029 0.33808 0.18169 0.0
C518 C 0.25361 0.30714 0.29372 0.0
O519 O 0.21434 0.29361 0.16805 0.0
O520 O 0.49493 0.52199 0.91676 0.0
Zn521 Zn 0.47102 0.49948 0.9508 0.0
O522 O 0.48758 0.51457 -0.01091 0.0
Zn523 Zn 0.48077 0.48245 0.01961 0.0
Zn524 Zn 0.53034 0.52911 -0.01223 0.0
Zn525 Zn 0.46353 0.5517 -0.0048 0.0
O526 O 0.44661 0.49767 0.05067 0.0
O527 O 0.44428 0.54843 0.03772 0.0
O528 O 0.48195 0.45473 0.94789 0.0
O529 O 0.47502 0.43912 -0.00249 0.0
O530 O 0.52205 0.47627 0.04267 0.0
O531 O 0.55759 0.49785 0.00976 0.0
O532 O 0.53223 0.56853 0.01561 0.0
O533 O 0.42295 0.50498 0.9526 0.0
O534 O 0.49008 0.59062 -0.00498 0.0
O535 O 0.42703 0.55537 0.96544 0.0
C536 C 0.52342 0.53322 0.91604 0.0
C537 C 0.43721 0.52587 0.05592 0.0
C538 C 0.55075 0.4808 0.03353 0.0
C539 C 0.48139 0.43311 0.96831 0.0
C540 C 0.51374 0.59195 0.01381 0.0
C541 C 0.41005 0.53161 0.95744 0.0
O542 O 0.5409 0.53578 0.94101 0.0
O543 O 0.8271 0.23022 0.25767 0.0
Zn544 Zn 0.7812 0.23116 0.27174 0.0
O545 O 0.75853 0.20192 0.24507 0.0
Zn546 Zn 0.72092 0.21883 0.22691 0.0
Zn547 Zn 0.78222 0.18742 0.20981 0.0
Zn548 Zn 0.74957 0.16715 0.2705 0.0
O549 O 0.68263 0.20223 0.25009 0.0
O550 O 0.70437 0.17047 0.28543 0.0
O551 O 0.76507 0.27446 0.26377 0.0
O552 O 0.72407 0.26567 0.23093 0.0
O553 O 0.71968 0.21221 0.17925 0.0
O554 O 0.77219 0.21521 0.17383 0.0
O555 O 0.76672 0.14382 0.19777 0.0
O556 O 0.77733 0.21863 0.31806 0.0
O557 O 0.75234 0.12737 0.24548 0.0
O558 O 0.77701 0.16713 0.30871 0.0
C559 C 0.84231 0.21263 0.23812 0.0
C560 C 0.68026 0.18423 0.27393 0.0
C561 C 0.74428 0.21971 0.16304 0.0
C562 C 0.74287 0.28439 0.24598 0.0
C563 C 0.7562 0.1224 0.21585 0.0
C564 C 0.77964 0.19053 0.32787 0.0
O565 O 0.82846 0.19242 0.21984 0.0
O566 O 0.03391 0.48408 0.51388 0.0
Zn567 Zn 0.02294 0.4933 0.46827 0.0
O568 O -0.01528 0.47036 0.45612 0.0
Zn569 Zn -0.0063 0.43146 0.43382 0.0
Zn570 Zn 0.96132 0.45982 0.49341 0.0
Zn571 Zn 0.95863 0.49676 0.43218 0.0
O572 O 0.97095 0.42914 0.39089 0.0
O573 O 0.94381 0.47389 0.39364 0.0
O574 O 0.06078 0.47438 0.44608 0.0
O575 O 0.04137 0.42702 0.43248 0.0
O576 O -0.02068 0.39584 0.46151 0.0
O577 O 0.94006 0.41798 0.48843 0.0
O578 O 0.92889 0.4919 0.5049 0.0
O579 O 0.01771 0.54025 0.45979 0.0
O580 O 0.92136 0.51222 0.45745 0.0
O581 O -0.01846 0.53613 0.42124 0.0
C582 C 0.02014 0.4661 0.53366 0.0
C583 C 0.95054 0.44804 0.37956 0.0
C584 C 0.95647 0.39389 0.48139 0.0
C585 C 0.06497 0.44558 0.43813 0.0
C586 C 0.91404 0.51017 0.48667 0.0
C587 C 0.00106 0.55262 0.43794 0.0
O588 O -0.00776 0.45501 0.5285 0.0
O589 O 0.72446 0.73405 0.33085 0.0
Zn590 Zn 0.73903 0.75804 0.29373 0.0
O591 O 0.73601 0.73205 0.25593 0.0
Zn592 Zn 0.77719 0.72009 0.23917 0.0
Zn593 Zn 0.70719 0.69653 0.26293 0.0
Zn594 Zn 0.71853 0.75927 0.22652 0.0
O595 O 0.78411 0.73279 0.19247 0.0
O596 O 0.73648 0.75335 0.18435 0.0
O597 O 0.78484 0.76819 0.30256 0.0
O598 O 0.81159 0.7374 0.26848 0.0
O599 O 0.77843 0.67345 0.2401 0.0
O600 O 0.72804 0.65678 0.24604 0.0
O601 O 0.66262 0.7045 0.24405 0.0
O602 O 0.71418 0.79798 0.29074 0.0
O603 O 0.67326 0.75035 0.22175 0.0
O604 O 0.72294 0.80412 0.23942 0.0
C605 C 0.71208 0.70687 0.33408 0.0
C606 C 0.76302 0.74373 0.17394 0.0
C607 C 0.75764 0.65136 0.24127 0.0
C608 C 0.81085 0.75683 0.29199 0.0
C609 C 0.65384 0.7284 0.22844 0.0
C610 C 0.71442 0.81508 0.26634 0.0
O611 O 0.70409 0.68969 0.31015 0.0
O612 O 0.74059 0.22089 0.71897 0.0
Zn613 Zn 0.74504 0.23333 0.76365 0.0
O614 O 0.74985 0.27717 0.7662 0.0
Zn615 Zn 0.77974 0.2865 0.79991 0.0
Zn616 Zn 0.76003 0.2958 0.72627 0.0
Zn617 Zn 0.70783 0.28925 0.77615 0.0
O618 O 0.7571 0.31345 0.83354 0.0
O619 O 0.70658 0.29997 0.82187 0.0
O620 O 0.78081 0.21174 0.78272 0.0
O621 O 0.79526 0.24619 0.82062 0.0
O622 O 0.8198 0.3041 0.77944 0.0
O623 O 0.80723 0.30277 0.72777 0.0
O624 O 0.73741 0.33839 0.72289 0.0
O625 O 0.70688 0.2194 0.788 0.0
O626 O 0.69675 0.32876 0.75521 0.0
O627 O 0.67534 0.25523 0.76851 0.0
C628 C 0.7424 0.23435 0.69232 0.0
C629 C 0.7273 0.31239 0.84043 0.0
C630 C 0.82763 0.30623 0.75016 0.0
C631 C 0.79589 0.21866 0.80807 0.0
C632 C 0.7114 0.34686 0.73631 0.0
C633 C 0.67909 0.22973 0.78316 0.0
O634 O 0.74924 0.2637 0.69032 0.0
O635 O 0.6555 0.81677 0.73119 0.0
Zn636 Zn 0.69016 0.80295 0.76046 0.0
O637 O 0.73129 0.81284 0.74182 0.0
Zn638 Zn 0.75723 0.77561 0.74449 0.0
Zn639 Zn 0.72819 0.8271 0.69815 0.0
Zn640 Zn 0.75078 0.84613 0.7664 0.0
O641 O 0.79408 0.78286 0.7738 0.0
O642 O 0.79508 0.835 0.77937 0.0
O643 O 0.68365 0.75604 0.76146 0.0
O644 O 0.73194 0.7363 0.75499 0.0
O645 O 0.77429 0.76462 0.70186 0.0
O646 O 0.75002 0.79621 0.66846 0.0
O647 O 0.74647 0.87164 0.69252 0.0
O648 O 0.68621 0.82106 0.8055 0.0
O649 O 0.75294 0.88576 0.74319 0.0
O650 O 0.72758 0.85428 0.80634 0.0
C651 C 0.6558 0.82208 0.70145 0.0
C652 C 0.80759 0.80829 0.78347 0.0
C653 C 0.76798 0.77288 0.67372 0.0
C654 C 0.70205 0.73248 0.75916 0.0
C655 C 0.75265 0.89247 0.71397 0.0
C656 C 0.70322 0.84223 0.81949 0.0
O657 O 0.68186 0.82561 0.68615 0.0
O658 O 0.49456 0.56775 0.47664 0.0
Zn659 Zn 0.5137 0.52968 0.45439 0.0
O660 O 0.50617 0.49087 0.47817 0.0
Zn661 Zn 0.54656 0.47039 0.48727 0.0
Zn662 Zn 0.48339 0.50052 0.51716 0.0
Zn663 Zn 0.48038 0.46189 0.45379 0.0
O664 O 0.552 0.42856 0.46387 0.0
O665 O 0.50279 0.42197 0.44479 0.0
O666 O 0.56024 0.54106 0.45628 0.0
O667 O 0.5825 0.49914 0.47715 0.0
O668 O 0.55253 0.46656 0.53446 0.0
O669 O 0.50916 0.48873 0.55494 0.0
O670 O 0.43897 0.48198 0.5185 0.0
O671 O 0.49713 0.52543 0.40907 0.0
O672 O 0.43928 0.45181 0.47481 0.0
O673 O 0.46996 0.48025 0.41224 0.0
C674 C 0.48377 0.57048 0.50485 0.0
C675 C 0.531 0.41222 0.44888 0.0
C676 C 0.53643 0.4763 0.55831 0.0
C677 C 0.58455 0.52696 0.46685 0.0
C678 C 0.42551 0.4621 0.49974 0.0
C679 C 0.47857 0.50439 0.39696 0.0
O680 O 0.47929 0.54654 0.52192 0.0
O681 O 0.96621 0.40244 0.96449 0.0
Zn682 Zn 0.94863 0.43588 0.93592 0.0
O683 O 0.95771 0.47835 0.95345 0.0
Zn684 Zn 0.91837 0.50072 0.96133 0.0
Zn685 Zn -0.01816 0.47612 -0.00718 0.0
Zn686 Zn -0.01894 0.50296 0.92361 0.0
O687 O 0.91706 0.54417 0.94392 0.0
O688 O 0.95873 0.54185 0.91158 0.0
O689 O 0.90089 0.42801 0.93745 0.0
O690 O 0.88152 0.47606 0.94488 0.0
O691 O 0.91005 0.50386 0.00756 0.0
O692 O 0.95628 0.4925 0.02997 0.0
O693 O 0.02484 0.4982 -0.00986 0.0
O694 O 0.96567 0.43117 0.89036 0.0
O695 O 0.02316 0.51682 0.94118 0.0
O696 O -0.01255 0.47877 0.88413 0.0
C697 C -0.02009 0.40465 -0.0085 0.0
C698 C 0.93444 0.55601 0.92244 0.0
C699 C 0.92714 0.50055 0.03213 0.0
C700 C 0.87741 0.4467 0.93998 0.0
C701 C 0.03741 0.51357 0.96755 0.0
C702 C -0.01955 0.4514 0.8736 0.0
O703 O -0.01245 0.43124 0.00387 0.0
C704 C 0.97229 0.13653 0.06872 0.0
C705 C -0.01348 0.13977 0.09889 0.0
H706 H 0.94867 0.10562 0.0351 0.0
C707 C -0.01454 0.11415 0.11944 0.0
H708 H 0.97238 0.156 0.05252 0.0
C709 C 0.97115 0.08574 0.1099 0.0
C710 C 0.95797 0.08197 0.07931 0.0
H711 H -0.00439 0.11601 0.1431 0.0
H712 H 0.97156 0.06635 0.12619 0.0
C713 C 0.95839 0.1078 0.0589 0.0
C714 C 0.05064 0.7558 0.30952 0.0
C715 C 0.05743 0.74506 0.34011 0.0
H716 H 0.06299 0.75434 0.26021 0.0
C717 C 0.08084 0.72214 0.34398 0.0
H718 H 0.03237 0.7732 0.30585 0.0
C719 C 0.09765 0.7106 0.31764 0.0
C720 C 0.09161 0.72226 0.28717 0.0
H721 H 0.08605 0.71304 0.36725 0.0
H722 H 0.11653 0.69388 0.32142 0.0
C723 C 0.06768 0.74463 0.28334 0.0
C724 C 0.48228 0.85031 0.52104 0.0
C725 C 0.47591 0.84712 0.55364 0.0
H726 H 0.49037 0.88202 0.48276 0.0
C727 C 0.47345 0.87426 0.57297 0.0
H728 H 0.48461 0.82974 0.50563 0.0
C729 C 0.47762 0.90397 0.56014 0.0
C730 C 0.48386 0.90733 0.52753 0.0
H731 H 0.46897 0.8726 0.59824 0.0
H732 H 0.47534 0.92436 0.57581 0.0
C733 C 0.48593 0.88019 0.50802 0.0
C734 C 0.43679 0.27124 0.7851 0.0
C735 C 0.43981 0.26987 0.81833 0.0
H736 H 0.40477 0.27029 0.7453 0.0
C737 C 0.41238 0.2686 0.83729 0.0
H738 H 0.45775 0.27216 0.77002 0.0
C739 C 0.38232 0.26824 0.82328 0.0
C740 C 0.37917 0.26844 0.79 0.0
H741 H 0.41415 0.26775 0.86295 0.0
H742 H 0.36155 0.26668 0.83858 0.0
C743 C 0.40661 0.27013 0.77098 0.0
C744 C -0.00144 0.84822 0.50497 0.0
C745 C 0.97556 0.84108 0.4816 0.0
H746 H 0.01582 0.88296 0.53878 0.0
C747 C 0.9486 0.8601 0.479 0.0
H748 H 0.01981 0.83407 0.50687 0.0
C749 C 0.94644 0.88794 0.49683 0.0
C750 C 0.97115 0.897 0.51766 0.0
H751 H 0.93077 0.85507 0.46084 0.0
H752 H 0.92704 0.90383 0.49207 0.0
C753 C -0.00377 0.8761 0.52319 0.0
C754 C 0.39362 0.68513 0.67385 0.0
C755 C 0.40316 0.71585 0.66592 0.0
H756 H 0.35572 0.65547 0.69121 0.0
C757 C 0.38161 0.74057 0.66957 0.0
H758 H 0.40996 0.6657 0.67102 0.0
C759 C 0.35126 0.73486 0.68198 0.0
C760 C 0.34171 0.70421 0.68994 0.0
H761 H 0.38854 0.7644 0.66369 0.0
H762 H 0.3351 0.7544 0.68518 0.0
C763 C 0.36279 0.67924 0.68528 0.0
C764 C 0.5092 0.13612 0.96081 0.0
C765 C 0.48917 0.14941 0.93799 0.0
H766 H 0.52152 0.09474 -0.01385 0.0
C767 C 0.46537 0.13062 0.92344 0.0
H768 H 0.52803 0.14999 0.97215 0.0
C769 C 0.46176 0.09912 0.93131 0.0
C770 C 0.48206 0.08559 0.95374 0.0
H771 H 0.44973 0.14015 0.90562 0.0
H772 H 0.44311 0.08531 0.9196 0.0
C773 C 0.50579 0.10441 0.9685 0.0
C774 C 0.10084 0.28859 0.17713 0.0
C775 C 0.09776 0.27956 0.14492 0.0
H776 H 0.13267 0.3004 0.21532 0.0
C777 C 0.12466 0.28055 0.12512 0.0
H778 H 0.08036 0.28871 0.19287 0.0
C779 C 0.15465 0.28786 0.13797 0.0
C780 C 0.15808 0.2939 0.17083 0.0
H781 H 0.1228 0.27422 0.10011 0.0
H782 H 0.17534 0.28638 0.12256 0.0
C783 C 0.13075 0.29557 0.19 0.0
C784 C 0.08056 0.97303 0.16029 0.0
C785 C 0.06826 0.98307 0.18969 0.0
H786 H 0.07029 0.95696 0.11309 0.0
C787 C 0.03505 0.98202 0.19476 0.0
H788 H 0.10608 0.97303 0.15596 0.0
C789 C 0.01437 0.97283 0.17017 0.0
C790 C 0.02661 0.96432 0.14018 0.0
H791 H 0.02496 -0.01071 0.21742 0.0
H792 H -0.01115 0.97371 0.17429 0.0
C793 C 0.05997 0.96354 0.13585 0.0
C794 C 0.15926 0.82077 0.39237 0.0
C795 C 0.18228 0.8174 0.41622 0.0
H796 H 0.14123 0.80348 0.34773 0.0
C797 C 0.2019 0.79072 0.41563 0.0
H798 H 0.14359 0.84087 0.39245 0.0
C799 C 0.2009 0.76965 0.38992 0.0
C800 C 0.17979 0.77452 0.36478 0.0
H801 H 0.21964 0.78718 0.43391 0.0
H802 H 0.21785 0.75059 0.38887 0.0
C803 C 0.1578 0.79924 0.36692 0.0
C804 C 0.40487 -0.00015 0.64796 0.0
C805 C 0.37159 -0.00472 0.64704 0.0
H806 H 0.44689 0.01313 0.62261 0.0
C807 C 0.35459 0.00336 0.61975 0.0
H808 H 0.41855 -0.00571 0.66892 0.0
C809 C 0.37082 0.01453 0.59326 0.0
C810 C 0.40434 0.01765 0.59362 0.0
H811 H 0.32885 0.00057 0.61864 0.0
H812 H 0.35718 0.01948 0.57212 0.0
C813 C 0.42109 0.01097 0.62153 0.0
C814 C 0.24749 0.15696 0.88292 0.0
C815 C 0.21631 0.15642 0.895 0.0
H816 H 0.2793 0.17633 0.84834 0.0
C817 C 0.19234 0.17367 0.88015 0.0
H818 H 0.2663 0.14392 0.89421 0.0
C819 C 0.19952 0.1914 0.8535 0.0
C820 C 0.23098 0.19292 0.84223 0.0
H821 H 0.16809 0.17343 0.88918 0.0
H822 H 0.1808 0.20466 0.84234 0.0
C823 C 0.25491 0.17556 0.85697 0.0
C824 C 0.03404 0.02864 0.36761 0.0
C825 C 0.06718 0.02805 0.36214 0.0
H826 H -0.00377 0.02707 0.40177 0.0
C827 C 0.08804 0.02589 0.38806 0.0
H828 H 0.01739 0.03013 0.34799 0.0
C829 C 0.07585 0.02496 0.41905 0.0
C830 C 0.04263 0.02529 0.42437 0.0
H831 H 0.11366 0.02553 0.38441 0.0
H832 H 0.09233 0.02339 0.43878 0.0
C833 C 0.02189 0.02687 0.39834 0.0
C834 C 0.24175 0.7658 0.56909 0.0
C835 C 0.24078 0.79832 0.57573 0.0
H836 H 0.23393 0.71932 0.5869 0.0
C837 C 0.23023 0.80903 0.60562 0.0
H838 H 0.24937 0.75706 0.54597 0.0
C839 C 0.2199 0.78769 0.62816 0.0
C840 C 0.22071 0.75517 0.62159 0.0
H841 H 0.22863 0.83397 0.61114 0.0
H842 H 0.21199 0.79667 0.6511 0.0
C843 C 0.23237 0.74432 0.59214 0.0
C844 C 0.41514 0.92215 0.82917 0.0
C845 C 0.38809 0.93953 0.8206 0.0
H846 H 0.44825 0.91116 0.86633 0.0
C847 C 0.37179 0.95677 0.84409 0.0
H848 H 0.42801 0.90835 0.81156 0.0
C849 C 0.38321 0.95816 0.87503 0.0
C850 C 0.41122 0.94237 0.88332 0.0
H851 H 0.3506 0.96995 0.8385 0.0
H852 H 0.37052 0.97249 0.89237 0.0
C853 C 0.42663 0.92351 0.86045 0.0
C854 C 0.22886 0.18773 0.06965 0.0
C855 C 0.22026 0.15693 0.07803 0.0
H856 H 0.25172 0.23101 0.08397 0.0
C857 C 0.2304 0.14549 0.10736 0.0
H858 H 0.2218 0.19704 0.04696 0.0
C859 C 0.24832 0.16459 0.12813 0.0
C860 C 0.25606 0.19576 0.12025 0.0
H861 H 0.2248 0.12162 0.11421 0.0
H862 H 0.25494 0.15523 0.15092 0.0
C863 C 0.24643 0.20702 0.09062 0.0
C864 C 0.10705 0.02497 0.97349 0.0
C865 C 0.10564 0.05794 0.97268 0.0
H866 H 0.08134 0.98204 0.98072 0.0
C867 C 0.0758 0.07264 0.97291 0.0
H868 H 0.12972 0.01294 0.97266 0.0
C869 C 0.04797 0.05478 0.97706 0.0
C870 C 0.04988 0.02216 0.98128 0.0
H871 H 0.07409 0.098 0.97185 0.0
H872 H 0.0254 0.0668 0.97958 0.0
C873 C 0.07939 0.00723 0.97793 0.0
C874 C 0.6329 0.4553 0.0566 0.0
C875 C 0.62724 0.42335 0.06294 0.0
H876 H 0.61277 0.49862 0.04167 0.0
C877 C 0.59562 0.41223 0.06524 0.0
H878 H 0.657 0.46474 0.05516 0.0
C879 C 0.57026 0.43194 0.05819 0.0
C880 C 0.57631 0.4628 0.04825 0.0
H881 H 0.59057 0.38781 0.07041 0.0
H882 H 0.54619 0.42226 0.05807 0.0
C883 C 0.60765 0.47473 0.04879 0.0
C884 C 0.76786 0.36885 0.24606 0.0
C885 C 0.77456 0.3721 0.21357 0.0
H886 H 0.75227 0.33746 0.28234 0.0
C887 C 0.7637 0.34911 0.19171 0.0
H888 H 0.77633 0.38631 0.26331 0.0
C889 C 0.74865 0.32191 0.20252 0.0
C890 C 0.74568 0.31688 0.23533 0.0
H891 H 0.76875 0.35122 0.16658 0.0
H892 H 0.74275 0.30335 0.18539 0.0
C893 C 0.75405 0.34106 0.25698 0.0
C894 C 0.84837 0.5701 0.49245 0.0
C895 C 0.83689 0.5654 0.52337 0.0
H896 H 0.88163 0.55618 0.45652 0.0
C897 C 0.85195 0.54342 0.54266 0.0
H898 H 0.83728 0.58687 0.47699 0.0
C899 C 0.87733 0.52575 0.5309 0.0
C900 C 0.88805 0.52966 0.49959 0.0
H901 H 0.84371 0.53932 0.56665 0.0
H902 H 0.8881 0.50862 0.54617 0.0
C903 C 0.87366 0.55235 0.48064 0.0
C904 C 0.20592 0.10953 0.25846 0.0
C905 C 0.17277 0.11179 0.26317 0.0
H906 H 0.25014 0.13441 0.25111 0.0
C907 C 0.15935 0.14169 0.26754 0.0
H908 H 0.21696 0.08678 0.25521 0.0
C909 C 0.17825 0.16879 0.26571 0.0
C910 C 0.2111 0.16679 0.25907 0.0
H911 H 0.13397 0.14427 0.27177 0.0
H912 H 0.16672 0.19138 0.26823 0.0
C913 C 0.22491 0.13682 0.25624 0.0
C914 C 0.33545 0.9105 0.45341 0.0
C915 C 0.30705 0.92642 0.44693 0.0
H916 H 0.38636 0.91411 0.45798 0.0
C917 C 0.3088 0.95689 0.43457 0.0
H918 H 0.33478 0.8869 0.46263 0.0
C919 C 0.33814 0.97251 0.43238 0.0
C920 C 0.3662 0.95758 0.44159 0.0
H921 H 0.28735 0.96974 0.42916 0.0
H922 H 0.33866 -0.003 0.42572 0.0
C923 C 0.36495 0.92591 0.45039 0.0
C924 C 0.81296 0.58208 0.24027 0.0
C925 C 0.79207 0.55699 0.23281 0.0
H926 H 0.81846 0.63144 0.24845 0.0
C927 C 0.75931 0.56287 0.229 0.0
H928 H 0.83832 0.57831 0.24331 0.0
C929 C 0.74778 0.59352 0.23207 0.0
C930 C 0.76894 0.61872 0.23856 0.0
H931 H 0.74268 0.54389 0.22322 0.0
H932 H 0.7225 0.59754 0.22876 0.0
C933 C 0.80157 0.6126 0.24295 0.0
C934 C 0.65833 0.4171 0.7489 0.0
C935 C 0.67743 0.44214 0.7383 0.0
H936 H 0.65347 0.36781 0.7554 0.0
C937 C 0.70742 0.43544 0.72473 0.0
H938 H 0.63491 0.42122 0.75901 0.0
C939 C 0.71827 0.40427 0.72256 0.0
C940 C 0.69919 0.37937 0.73377 0.0
H941 H 0.7225 0.45422 0.71593 0.0
H942 H 0.74181 0.39981 0.7129 0.0
C943 C 0.66895 0.38627 0.74654 0.0
C944 C 0.0313 0.84063 0.95803 0.0
C945 C 0.00883 0.81629 0.95298 0.0
H946 H 0.04305 0.88268 -0.01578 0.0
C947 C -0.01581 0.81197 0.97522 0.0
H948 H 0.05084 0.84411 0.94152 0.0
C949 C -0.02061 0.83432 -0.00059 0.0
C950 C -0.00044 0.86086 0.00197 0.0
H951 H 0.96671 0.79316 0.97211 0.0
H952 H 0.95836 0.83225 0.01428 0.0
C953 C 0.02691 0.86259 0.98265 0.0
C954 C 0.91395 0.28279 0.74949 0.0
C955 C 0.92249 0.2892 0.71795 0.0
H956 H 0.8773 0.28428 0.78493 0.0
C957 C 0.90116 0.30588 0.69897 0.0
H958 H 0.93007 0.27044 0.76489 0.0
C959 C 0.87103 0.31391 0.71048 0.0
C960 C 0.86172 0.30575 0.74132 0.0
H961 H 0.90714 0.3116 0.6747 0.0
H962 H 0.85442 0.32512 0.69467 0.0
C963 C 0.88389 0.29118 0.76115 0.0
C964 C 0.41938 0.15279 0.4119 0.0
C965 C 0.44054 0.1755 0.42494 0.0
H966 H 0.39607 0.10849 0.41915 0.0
C967 C 0.44526 0.17685 0.45797 0.0
H968 H 0.41457 0.15176 0.3866 0.0
C969 C 0.43415 0.15232 0.47661 0.0
C970 C 0.41858 0.12636 0.4622 0.0
H971 H 0.46068 0.19467 0.46883 0.0
H972 H 0.44228 0.15122 0.50101 0.0
C973 C 0.40815 0.12833 0.43067 0.0
C974 C 0.58644 0.7561 0.17784 0.0
C975 C 0.55949 0.74428 0.19347 0.0
H976 H 0.63704 0.75963 0.17632 0.0
C977 C 0.56354 0.72551 0.22037 0.0
H978 H 0.58414 0.77039 0.15695 0.0
C979 C 0.59431 0.71899 0.23153 0.0
C980 C 0.62115 0.7315 0.21606 0.0
H981 H 0.54303 0.71579 0.23262 0.0
H982 H 0.59706 0.70498 0.25254 0.0
C983 C 0.61681 0.74982 0.18897 0.0
C984 C 0.00412 0.17707 0.58163 0.0
C985 C 0.01907 0.17633 0.6115 0.0
H986 H -0.00658 0.15205 0.53816 0.0
C987 C 0.03784 0.15032 0.61901 0.0
H988 H -0.01028 0.19692 0.57507 0.0
C989 C 0.0408 0.12511 0.5974 0.0
C990 C 0.02452 0.12522 0.56821 0.0
H991 H 0.05006 0.14935 0.64165 0.0
H992 H 0.05432 0.10478 0.60432 0.0
C993 C 0.00652 0.1516 0.56035 0.0
C994 C 0.59213 0.18909 0.28866 0.0
C995 C 0.5904 0.18497 0.32169 0.0
H996 H 0.62198 0.19205 0.24771 0.0
C997 C 0.61793 0.17654 0.33833 0.0
H998 H 0.57117 0.19512 0.27506 0.0
C999 C 0.6472 0.17446 0.32239 0.0
C1000 C 0.64915 0.1811 0.2898 0.0
H1001 H 0.61717 0.17309 0.36375 0.0
H1002 H 0.6685 0.16943 0.3359 0.0
C1003 C 0.62122 0.18739 0.27293 0.0
C1004 C 0.44067 0.81702 0.05501 0.0
C1005 C 0.43643 0.81997 0.08807 0.0
H1006 H 0.44035 0.84007 0.01034 0.0
C1007 C 0.42367 0.84784 0.10086 0.0
H1008 H 0.45001 0.7956 0.04439 0.0
C1009 C 0.41769 0.8732 0.08128 0.0
C1010 C 0.42469 0.87128 0.04857 0.0
H1011 H 0.41958 0.85057 0.12618 0.0
H1012 H 0.40956 0.89496 0.09222 0.0
C1013 C 0.43489 0.84245 0.03543 0.0
C1014 C 0.87715 0.776 0.82794 0.0
C1015 C 0.89968 0.8007 0.82612 0.0
H1016 H 0.83052 0.75907 0.81563 0.0
C1017 C 0.89096 0.82893 0.81191 0.0
H1018 H 0.88302 0.75391 0.83879 0.0
C1019 C 0.86047 0.83195 0.79886 0.0
C1020 C 0.83864 0.80657 0.79943 0.0
H1021 H 0.90782 0.84837 0.8103 0.0
H1022 H 0.85441 0.85366 0.78738 0.0
C1023 C 0.84707 0.77882 0.81451 0.0
C1024 C 0.87818 -0.00119 0.89147 0.0
C1025 C 0.89023 0.97683 0.8692 0.0
H1026 H 0.87586 0.01346 0.94029 0.0
C1027 C 0.90443 0.9493 0.8801 0.0
H1028 H 0.86662 0.02007 0.88394 0.0
C1029 C 0.90913 0.9453 0.91264 0.0
C1030 C 0.90009 0.96901 0.93449 0.0
H1031 H 0.91357 0.93177 0.86353 0.0
H1032 H 0.92209 0.92494 0.92039 0.0
C1033 C 0.88336 -0.00493 0.9238 0.0
C1034 C 0.74795 0.20046 0.60837 0.0
C1035 C 0.73482 0.17016 0.61271 0.0
H1036 H 0.76054 0.24507 0.63028 0.0
C1037 C 0.72221 0.16253 0.64246 0.0
H1038 H 0.75759 0.2071 0.58555 0.0
C1039 C 0.72348 0.18416 0.66756 0.0
C1040 C 0.73765 0.21402 0.66381 0.0
H1041 H 0.71141 0.13968 0.64656 0.0
H1042 H 0.7138 0.17709 0.69025 0.0
C1043 C 0.7494 0.22228 0.63382 0.0
C1044 C 0.54119 0.04834 0.3375 0.0
C1045 C 0.5552 0.0214 0.32406 0.0
H1046 H 0.51396 0.0677 0.37589 0.0
C1047 C 0.55303 -0.00723 0.34019 0.0
H1048 H 0.54241 0.07067 0.32558 0.0
C1049 C 0.53623 -0.00912 0.36871 0.0
C1050 C 0.52176 0.0177 0.38184 0.0
H1051 H 0.5634 0.9715 0.33029 0.0
H1052 H 0.53458 0.96847 0.38042 0.0
C1053 C 0.5248 0.04655 0.36624 0.0
C1054 C 0.77464 0.79609 0.10775 0.0
C1055 C 0.74985 0.78477 0.08788 0.0
H1056 H 0.80062 0.78968 0.15089 0.0
C1057 C 0.73826 0.754 0.09167 0.0
H1058 H 0.78444 0.81958 0.10489 0.0
C1059 C 0.74778 0.73683 0.11799 0.0
C1060 C 0.76917 0.75015 0.14044 0.0
H1061 H 0.71935 0.74465 0.07651 0.0
H1062 H 0.73524 0.71504 0.12304 0.0
C1063 C 0.7845 0.77869 0.1337 0.0
C1064 C 0.95833 0.0207 0.70572 0.0
C1065 C 0.94242 0.04926 0.71105 0.0
H1066 H -0.01859 -0.00944 0.67156 0.0
C1067 C 0.94195 0.07162 0.68713 0.0
H1068 H 0.95923 0.00315 0.72396 0.0
C1069 C 0.95486 0.06463 0.65747 0.0
C1070 C 0.96807 0.03488 0.65098 0.0
H1071 H 0.93016 0.09395 0.69086 0.0
H1072 H 0.95291 0.08206 0.63917 0.0
C1073 C 0.97087 0.01342 0.67572 0.0
C1074 C 0.77811 0.14341 0.40187 0.0
C1075 C 0.76118 0.16326 0.42273 0.0
H1076 H 0.79848 0.13714 0.35579 0.0
C1077 C 0.75541 0.19442 0.41406 0.0
H1078 H 0.78362 0.11951 0.40822 0.0
C1079 C 0.7641 0.20465 0.38379 0.0
C1080 C 0.77872 0.1838 0.36204 0.0
H1081 H 0.74275 0.2103 0.42994 0.0
H1082 H 0.75737 0.22802 0.37671 0.0
C1083 C 0.78691 0.15362 0.37192 0.0
C1084 C 0.56116 0.98344 0.12191 0.0
C1085 C 0.54699 0.98141 0.15192 0.0
H1086 H 0.55433 -0.00928 0.07259 0.0
C1087 C 0.514 -0.01367 0.15528 0.0
H1088 H 0.58662 0.98022 0.11879 0.0
C1089 C 0.49523 -0.00777 0.12868 0.0
C1090 C 0.50942 -0.00603 0.09855 0.0
H1091 H 0.50265 0.98513 0.17838 0.0
H1092 H 0.46968 -0.00511 0.1316 0.0
C1093 C 0.54264 -0.01 0.09555 0.0
C1094 C 0.70448 0.88981 0.89563 0.0
C1095 C 0.70022 0.8663 0.91821 0.0
H1096 H 0.70848 0.9004 0.84627 0.0
C1097 C 0.69354 0.83525 0.90786 0.0
H1098 H 0.70938 0.91396 0.90298 0.0
C1099 C 0.69192 0.82771 0.8754 0.0
C1100 C 0.69766 0.851 0.85293 0.0
H1101 H 0.68959 0.81678 0.92484 0.0
H1102 H 0.68784 0.80345 0.86793 0.0
C1103 C 0.70364 0.88213 0.86327 0.0
C1104 C 0.80421 0.90371 0.06868 0.0
C1105 C 0.78449 0.92872 0.06008 0.0
H1106 H 0.85144 0.88943 0.08073 0.0
C1107 C 0.79624 0.95974 0.06348 0.0
H1108 H 0.79581 0.87953 0.06694 0.0
C1109 C 0.82807 0.96535 0.0724 0.0
C1110 C 0.84849 0.94002 0.07766 0.0
H1111 H 0.78149 0.97952 0.05752 0.0
H1112 H 0.83744 -0.01078 0.07209 0.0
C1113 C 0.83597 0.90931 0.07712 0.0
C1114 C 0.33039 0.56893 0.96936 0.0
C1115 C 0.31418 0.54646 -0.01228 0.0
H1116 H 0.37313 0.58128 0.94453 0.0
C1117 C 0.32843 0.51715 -0.00766 0.0
H1118 H 0.32006 0.59168 0.96498 0.0
C1119 C 0.35881 0.51096 0.97976 0.0
C1120 C 0.37541 0.53413 0.96269 0.0
H1121 H 0.31636 0.49923 0.00598 0.0
H1122 H 0.37006 0.48885 -0.01498 0.0
C1123 C 0.36065 0.56288 0.95718 0.0
C1124 C 0.17145 0.54255 0.70707 0.0
C1125 C 0.14307 0.54345 0.68919 0.0
H1126 H 0.21305 0.56769 0.72355 0.0
C1127 C 0.13744 0.56978 0.67033 0.0
H1128 H 0.1768 0.52259 0.72166 0.0
C1129 C 0.15892 0.59538 0.67083 0.0
C1130 C 0.18616 0.59497 0.69027 0.0
H1131 H 0.11601 0.57105 0.65601 0.0
H1132 H 0.1531 0.61629 0.65784 0.0
C1133 C 0.19256 0.56814 0.70781 0.0
C1134 C 0.12478 0.38474 0.46186 0.0
C1135 C 0.14836 0.40365 0.47672 0.0
H1136 H 0.08057 0.38314 0.43649 0.0
C1137 C 0.14654 0.43651 0.47439 0.0
H1138 H 0.12586 0.35933 0.46264 0.0
C1139 C 0.12085 0.45024 0.45894 0.0
C1140 C 0.09623 0.43142 0.4456 0.0
H1141 H 0.16466 0.45174 0.4851 0.0
H1142 H 0.11948 0.47567 0.45902 0.0
C1143 C 0.09909 0.39846 0.44634 0.0
C1144 C 0.78137 0.97319 0.7315 0.0
C1145 C 0.81206 0.97093 0.71827 0.0
H1146 H 0.73693 0.94922 0.73939 0.0
C1147 C 0.81783 0.94755 0.69485 0.0
H1148 H 0.77605 -0.00887 0.74931 0.0
C1149 C 0.79506 0.92389 0.68865 0.0
C1150 C 0.7666 0.92321 0.70618 0.0
H1151 H 0.84111 0.94564 0.68377 0.0
H1152 H 0.80165 0.90399 0.67364 0.0
C1153 C 0.75881 0.9493 0.72562 0.0
C1154 C 0.62704 0.05678 0.52781 0.0
C1155 C 0.63322 0.08838 0.52021 0.0
H1156 H 0.5913 0.02077 0.53428 0.0
C1157 C 0.60749 0.10888 0.51685 0.0
H1158 H 0.64648 0.04056 0.53097 0.0
C1159 C 0.57619 0.09761 0.51885 0.0
C1160 C 0.56995 0.06571 0.52465 0.0
H1161 H 0.61145 0.13341 0.51138 0.0
H1162 H 0.55679 0.1136 0.5144 0.0
C1163 C 0.59555 0.04555 0.5302 0.0
C1164 C 0.17273 0.35702 0.76938 0.0
C1165 C 0.17977 0.38574 0.75491 0.0
H1166 H 0.19151 0.31626 0.79133 0.0
C1167 C 0.21119 0.39775 0.75606 0.0
H1168 H 0.14864 0.34742 0.7692 0.0
C1169 C 0.23565 0.38004 0.76882 0.0
C1170 C 0.22907 0.3502 0.78096 0.0
H1171 H 0.21727 0.42009 0.74555 0.0
H1172 H 0.26006 0.38864 0.76707 0.0
C1173 C 0.1972 0.33947 0.78259 0.0
C1174 C 0.24929 0.5744 0.26501 0.0
C1175 C 0.28023 0.57688 0.27776 0.0
H1176 H 0.20529 0.59795 0.25686 0.0
C1177 C 0.28775 0.60189 0.29881 0.0
H1178 H 0.24273 0.5551 0.24902 0.0
C1179 C 0.2662 0.62624 0.30363 0.0
C1180 C 0.23708 0.62611 0.28697 0.0
H1181 H 0.31128 0.60398 0.30945 0.0
H1182 H 0.27384 0.64654 0.31777 0.0
C1183 C 0.22785 0.59898 0.26948 0.0
C1184 C 0.47856 0.63095 0.5707 0.0
C1185 C 0.49143 0.65773 0.55644 0.0
H1186 H 0.46437 0.58303 0.56522 0.0
C1187 C 0.49751 0.65722 0.52363 0.0
H1188 H 0.47281 0.6311 0.59583 0.0
C1189 C 0.49312 0.62922 0.50584 0.0
C1190 C 0.48189 0.60179 0.52066 0.0
H1191 H 0.50701 0.67791 0.51216 0.0
H1192 H 0.49985 0.62869 0.48099 0.0
C1193 C 0.47343 0.60347 0.55298 0.0
C1194 C 0.59545 0.2167 0.80994 0.0
C1195 C 0.59989 0.21511 0.84304 0.0
H1196 H 0.6177 0.22257 0.76466 0.0
C1197 C 0.63079 0.21184 0.85525 0.0
H1198 H 0.57182 0.21866 0.79973 0.0
C1199 C 0.65704 0.21312 0.83482 0.0
C1200 C 0.65248 0.21819 0.80222 0.0
H1201 H 0.63478 0.21023 0.88059 0.0
H1202 H 0.68086 0.21298 0.8449 0.0
C1203 C 0.62159 0.21869 0.78974 0.0
C1204 C -0.01659 0.35463 0.06438 0.0
C1205 C -0.0182 0.32402 0.05138 0.0
H1206 H -0.01492 0.4038 0.05568 0.0
C1207 C -0.01966 0.31983 0.01815 0.0
H1208 H -0.01505 0.35865 0.08984 0.0
C1209 C -0.01978 0.34594 -0.00166 0.0
C1210 C -0.01764 0.37656 0.01146 0.0
H1211 H -0.02066 0.29643 0.0075 0.0
H1212 H 0.97859 0.34217 0.97285 0.0
C1213 C -0.01601 0.38054 0.04469 0.0
C1214 C 0.87237 0.79944 0.34272 0.0
C1215 C 0.89389 0.77518 0.34865 0.0
H1216 H 0.82872 0.81244 0.32009 0.0
C1217 C 0.88829 0.74511 0.33528 0.0
H1218 H 0.87646 0.82288 0.35258 0.0
C1219 C 0.86186 0.73952 0.31571 0.0
C1220 C 0.8402 0.76369 0.30999 0.0
H1221 H 0.90491 0.72621 0.33909 0.0
H1222 H 0.85798 0.71614 0.3056 0.0
C1223 C 0.84536 0.79357 0.32397 0.0
C1224 C 0.5267 0.37224 0.9212 0.0
C1225 C 0.5156 0.3438 0.93371 0.0
H1226 H 0.52432 0.42215 0.92213 0.0
C1227 C 0.49457 0.34479 0.95992 0.0
H1228 H 0.54319 0.37255 0.90134 0.0
C1229 C 0.48369 0.37378 0.97217 0.0
C1230 C 0.49333 0.40196 0.95797 0.0
H1231 H 0.48557 0.32324 0.97012 0.0
H1232 H 0.46694 0.37408 -0.0082 0.0
C1233 C 0.51558 0.4008 0.93298 0.0
C1234 C 0.91384 0.25315 0.20467 0.0
C1235 C 0.93642 0.22914 0.20575 0.0
H1236 H 0.86598 0.26682 0.21584 0.0
C1237 C 0.92905 0.20112 0.22149 0.0
H1238 H 0.91915 0.27488 0.19261 0.0
C1239 C 0.8986 0.19622 0.2339 0.0
C1240 C 0.87574 0.21977 0.23177 0.0
H1241 H 0.94611 0.18218 0.22232 0.0
H1242 H 0.89249 0.17367 0.24398 0.0
C1243 C 0.88373 0.24864 0.2181 0.0
C1244 C 0.0109 0.64049 0.45442 0.0
C1245 C -0.00922 0.65283 0.43107 0.0
H1246 H 0.03043 0.59898 0.47481 0.0
C1247 C 0.97598 0.63212 0.40911 0.0
H1248 H 0.02296 0.65594 0.47145 0.0
C1249 C -0.01925 0.59985 0.41059 0.0
C1250 C 0.00024 0.58722 0.4343 0.0
H1251 H 0.96073 0.64083 0.39052 0.0
H1252 H 0.96851 0.58474 0.39337 0.0
C1253 C 0.01551 0.60792 0.4561 0.0
C1254 C 0.60049 0.80063 0.63359 0.0
C1255 C 0.57267 0.79213 0.65009 0.0
H1256 H 0.64854 0.81787 0.63686 0.0
C1257 C 0.57089 0.79825 0.68297 0.0
H1258 H 0.60229 0.79672 0.60814 0.0
C1259 C 0.59722 0.81062 0.69943 0.0
C1260 C 0.62588 0.8171 0.68333 0.0
H1261 H 0.5495 0.79251 0.69626 0.0
H1262 H 0.59557 0.81355 0.72502 0.0
C1263 C 0.62685 0.81311 0.65005 0.0
C1264 C 0.54993 0.49992 0.64403 0.0
C1265 C 0.58322 0.50459 0.64454 0.0
H1266 H 0.5089 0.48647 0.61639 0.0
C1267 C 0.60127 0.49545 0.61787 0.0
H1268 H 0.53541 0.50636 0.66441 0.0
C1269 C 0.58613 0.48332 0.5906 0.0
C1270 C 0.5526 0.48056 0.58934 0.0
H1271 H 0.62703 0.49828 0.61781 0.0
H1272 H 0.6006 0.47799 0.56987 0.0
C1273 C 0.53474 0.4882 0.61664 0.0
C1274 C 0.67987 0.32445 0.91549 0.0
C1275 C 0.68916 0.3551 0.92451 0.0
H1276 H 0.68481 0.28692 0.88115 0.0
C1277 C 0.71115 0.3717 0.90571 0.0
H1278 H 0.66353 0.31106 0.93011 0.0
C1279 C 0.72454 0.35741 0.8788 0.0
C1280 C 0.71539 0.32672 0.86993 0.0
H1281 H 0.71936 0.39508 0.91281 0.0
H1282 H 0.74176 0.37039 0.8648 0.0
C1283 C 0.69242 0.31057 0.88796 0.0
C1284 C 0.91219 0.48477 0.11859 0.0
C1285 C 0.87865 0.48563 0.11987 0.0
H1286 H 0.95404 0.48959 0.08997 0.0
C1287 C 0.86161 0.49561 0.09331 0.0
H1288 H 0.92601 0.47761 0.13891 0.0
C1289 C 0.87773 0.50289 0.06534 0.0
C1290 C 0.91117 0.50009 0.06339 0.0
H1291 H 0.83578 0.49698 0.09382 0.0
H1292 H 0.86376 0.50918 0.04481 0.0
C1293 C 0.9283 0.49192 0.09062 0.0
C1294 C 0.7224 0.70141 0.42245 0.0
C1295 C 0.72737 0.66906 0.42575 0.0
H1296 H 0.71284 0.73873 0.39072 0.0
C1297 C 0.72335 0.64878 0.39924 0.0
H1298 H 0.72489 0.71755 0.44259 0.0
C1299 C 0.71581 0.66086 0.3696 0.0
C1300 C 0.71256 0.69344 0.366 0.0
H1301 H 0.72651 0.62365 0.40127 0.0
H1302 H 0.71422 0.64487 0.34927 0.0
C1303 C 0.71521 0.71351 0.39283 0.0
C1304 C 0.52799 0.55346 0.82943 0.0
C1305 C 0.5605 0.54884 0.82266 0.0
H1306 H 0.49092 0.55226 0.86431 0.0
C1307 C 0.58132 0.54135 0.84753 0.0
H1308 H 0.5113 0.55933 0.81085 0.0
C1309 C 0.56962 0.53784 0.87845 0.0
C1310 C 0.53685 0.5412 0.88479 0.0
H1311 H 0.60654 0.5379 0.84306 0.0
H1312 H 0.58596 0.53126 0.89707 0.0
C1313 C 0.51627 0.54943 0.86008 0.0
C1314 C 0.75896 0.28529 0.10593 0.0
C1315 C 0.72966 0.28617 0.08988 0.0
H1316 H 0.7869 0.26276 0.14107 0.0
C1317 C 0.70645 0.26274 0.09549 0.0
H1318 H 0.77727 0.303 0.10193 0.0
C1319 C 0.71168 0.23999 0.11832 0.0
C1320 C 0.74051 0.23986 0.13528 0.0
H1321 H 0.6836 0.26292 0.08341 0.0
H1322 H 0.69282 0.22314 0.1234 0.0
C1323 C 0.7645 0.26209 0.12815 0.0
C1324 C 0.93016 0.41499 0.29751 0.0
C1325 C 0.90262 0.43226 0.29058 0.0
H1326 H 0.96724 0.40631 0.33148 0.0
C1327 C 0.88992 0.45243 0.31402 0.0
H1328 H 0.94041 0.39913 0.27991 0.0
C1329 C 0.90516 0.45653 0.3431 0.0
C1330 C 0.93351 0.44053 0.34964 0.0
H1331 H 0.8685 0.46576 0.30972 0.0
H1332 H 0.8949 0.47281 0.36031 0.0
C1333 C 0.9455 0.41905 0.32695 0.0
C1334 C 0.75993 0.72844 0.5959 0.0
C1335 C 0.77013 0.69861 0.60508 0.0
H1336 H 0.75164 0.77616 0.61061 0.0
C1337 C 0.78589 0.6955 0.63418 0.0
H1338 H 0.74806 0.73144 0.5733 0.0
C1339 C 0.78879 0.72115 0.65509 0.0
C1340 C 0.7751 0.75019 0.64768 0.0
H1341 H 0.79468 0.67287 0.64141 0.0
H1342 H 0.79941 0.71737 0.67816 0.0
C1343 C 0.76219 0.75407 0.61717 0.0
C1344 C 0.66366 0.54727 0.5043 0.0
C1345 C 0.66116 0.57998 0.50875 0.0
H1346 H 0.64205 0.50492 0.48608 0.0
C1347 C 0.63515 0.59556 0.49542 0.0
H1348 H 0.68375 0.53465 0.51377 0.0
C1349 C 0.61144 0.57853 0.47897 0.0
C1350 C 0.61323 0.54558 0.4758 0.0
H1351 H 0.63296 0.62086 0.49787 0.0
H1352 H 0.59092 0.59104 0.47027 0.0
C1353 C 0.64002 0.53028 0.48794 0.0
C1354 C 0.12721 0.91092 0.56046 0.0
C1355 C 0.15527 0.92414 0.54791 0.0
H1356 H 0.07925 0.91908 0.57561 0.0
C1357 C 0.15829 0.957 0.54617 0.0
H1358 H 0.1245 0.88568 0.56256 0.0
C1359 C 0.13249 0.97611 0.55364 0.0
C1360 C 0.10333 0.96267 0.56318 0.0
H1361 H 0.17992 0.96789 0.53718 0.0
H1362 H 0.13473 0.00119 0.54994 0.0
C1363 C 0.10142 0.9301 0.5682 0.0
C1364 C 0.27727 0.86296 0.76687 0.0
C1365 C 0.26962 0.88118 0.74064 0.0
H1366 H 0.27084 0.81898 0.78979 0.0
C1367 C 0.24515 0.87136 0.71992 0.0
H1368 H 0.29627 0.87031 0.78298 0.0
C1369 C 0.23039 0.84201 0.72387 0.0
C1370 C 0.24053 0.82223 0.74825 0.0
H1371 H 0.2393 0.88512 0.69938 0.0
H1372 H 0.2134 0.83365 0.70611 0.0
C1373 C 0.26278 0.83367 0.77071 0.0
C1374 C 0.3029 0.05505 -0.00463 0.0
C1375 C 0.28036 0.04186 0.01599 0.0
H1376 H 0.35091 0.05507 0.97875 0.0
C1377 C 0.29012 0.01903 0.03762 0.0
H1378 H 0.29628 0.07292 0.97869 0.0
C1379 C 0.32177 0.0089 0.03785 0.0
C1380 C 0.34385 0.02132 0.01627 0.0
H1381 H 0.27329 0.00872 0.05409 0.0
H1382 H 0.32862 -0.00937 0.05398 0.0
C1383 C 0.33426 0.04486 -0.00451 0.0
C1384 C 0.69222 0.64399 0.74515 0.0
C1385 C 0.65881 0.64102 0.74272 0.0
H1386 H 0.73234 0.67532 0.75239 0.0
C1387 C 0.64007 0.66777 0.74848 0.0
H1388 H 0.70729 0.62377 0.74111 0.0
C1389 C 0.65421 0.69692 0.75553 0.0
C1390 C 0.68761 0.7004 0.75665 0.0
H1391 H 0.61423 0.66633 0.7474 0.0
H1392 H 0.63879 0.71697 0.75906 0.0
C1393 C 0.70652 0.67348 0.75182 0.0
C1394 C 0.81171 0.40043 0.97833 0.0
C1395 C 0.78663 0.42197 0.97641 0.0
H1396 H 0.86065 0.39097 0.96704 0.0
C1397 C 0.7902 0.44817 0.95678 0.0
H1398 H 0.80937 0.37968 -0.0073 0.0
C1399 C 0.81904 0.45418 0.94161 0.0
C1400 C 0.84507 0.43427 0.94583 0.0
H1401 H 0.771 0.46472 0.95385 0.0
H1402 H 0.82165 0.47563 0.92832 0.0
C1403 C 0.84082 0.40656 0.96312 0.0
C1404 C 0.31956 0.09623 0.74207 0.0
C1405 C 0.29478 0.07374 0.7401 0.0
H1406 H 0.33355 0.14429 0.73782 0.0
C1407 C 0.26389 0.08349 0.73199 0.0
H1408 H 0.34372 0.08947 0.74784 0.0
C1409 C 0.25795 0.11525 0.72622 0.0
C1410 C 0.28293 0.13766 0.72789 0.0
H1411 H 0.24439 0.06659 0.72995 0.0
H1412 H 0.23385 0.12222 0.72052 0.0
C1413 C 0.31378 0.12769 0.73581 0.0
C1414 C 0.1919 0.90668 0.23244 0.0
C1415 C 0.17926 0.91685 0.26199 0.0
H1416 H 0.20494 0.86697 0.20258 0.0
C1417 C 0.17378 0.89464 0.2855 0.0
H1418 H 0.19624 0.92337 0.21378 0.0
C1419 C 0.17866 0.86284 0.27911 0.0
C1420 C 0.18892 0.85212 0.24888 0.0
H1421 H 0.16438 0.90167 0.30853 0.0
H1422 H 0.17325 0.84644 0.2978 0.0
C1423 C 0.19674 0.87445 0.22592 0.0
C1424 C 0.52077 0.3281 0.42395 0.0
C1425 C 0.54073 0.32622 0.39707 0.0
H1426 H 0.50245 0.35718 0.46163 0.0
C1427 C 0.56126 0.35172 0.39045 0.0
H1428 H 0.50477 0.3089 0.42993 0.0
C1429 C 0.56039 0.37922 0.40935 0.0
C1430 C 0.53875 0.38154 0.43474 0.0
H1431 H 0.57706 0.35087 0.37007 0.0
H1432 H 0.57497 0.39931 0.40286 0.0
C1433 C 0.51955 0.35561 0.44233 0.0
C1434 C 0.36672 0.71191 0.24327 0.0
C1435 C 0.37869 0.72544 0.21542 0.0
H1436 H 0.32689 0.70775 0.27509 0.0
C1437 C 0.35967 0.74693 0.19917 0.0
H1438 H 0.38094 0.69556 0.2565 0.0
C1439 C 0.32914 0.75406 0.20987 0.0
C1440 C 0.31677 0.74002 0.23718 0.0
H1441 H 0.36815 0.75807 0.17778 0.0
H1442 H 0.31491 0.77012 0.19626 0.0
C1443 C 0.336 0.71925 0.25415 0.0
C1444 C 0.92949 0.64362 0.92736 0.0
C1445 C 0.93769 0.65133 0.89608 0.0
H1446 H 0.92079 0.60655 0.96011 0.0
C1447 C 0.93869 0.62756 0.87249 0.0
H1448 H 0.92835 0.66167 0.94587 0.0
C1449 C 0.93503 0.59617 0.88075 0.0
C1450 C 0.9294 0.58832 0.91248 0.0
H1451 H 0.94491 0.63294 0.84819 0.0
H1452 H 0.9385 0.57795 0.86272 0.0
C1453 C 0.92495 0.61221 0.93545 0.0
C1454 C 0.12261 0.31428 0.67876 0.0
C1455 C 0.09667 0.29488 0.687 0.0
H1456 H 0.17309 0.32267 0.68297 0.0
C1457 C 0.10156 0.26992 0.70779 0.0
H1458 H 0.11942 0.33375 0.66291 0.0
C1459 C 0.13203 0.26319 0.71857 0.0
C1460 C 0.15822 0.28163 0.70933 0.0
H1461 H 0.08204 0.25463 0.7148 0.0
H1462 H 0.13511 0.24322 0.73383 0.0
C1463 C 0.15322 0.30787 0.69015 0.0
C1464 C 0.5142 0.62498 0.09761 0.0
C1465 C 0.49528 0.6518 0.09429 0.0
H1466 H 0.53608 0.5855 0.07436 0.0
C1467 C 0.48603 0.66066 0.06364 0.0
H1468 H 0.52215 0.61782 0.12083 0.0
C1469 C 0.49431 0.64243 0.03706 0.0
C1470 C 0.5122 0.615 0.04044 0.0
H1471 H 0.47178 0.68141 0.06013 0.0
H1472 H 0.48561 0.64914 0.01394 0.0
C1473 C 0.52273 0.60683 0.0709 0.0
C1474 C 0.08671 0.70287 0.82612 0.0
C1475 C 0.06355 0.7243 0.81679 0.0
H1476 H 0.13085 0.68078 0.81506 0.0
C1477 C 0.06687 0.73947 0.78758 0.0
H1478 H 0.08457 0.69065 0.84838 0.0
C1479 C 0.09349 0.73394 0.76841 0.0
C1480 C 0.11702 0.71293 0.77805 0.0
H1481 H 0.04921 0.75606 0.77977 0.0
H1482 H 0.09583 0.74645 0.74635 0.0
C1483 C 0.11312 0.69711 0.80687 0.0
C1484 C -0.01249 0.32574 0.52696 0.0
C1485 C 0.97346 0.33164 0.55677 0.0
H1486 H -0.00769 0.34039 0.47887 0.0
C1487 C 0.94879 0.35359 0.55934 0.0
H1488 H 0.00619 0.30848 0.52417 0.0
C1489 C 0.94031 0.37137 0.53326 0.0
C1490 C 0.95683 0.36798 0.50428 0.0
H1491 H 0.93698 0.35805 0.58187 0.0
H1492 H 0.92266 0.38955 0.53671 0.0
C1493 C -0.0207 0.3438 0.50091 0.0
C1494 C 0.4334 0.26901 0.25269 0.0
C1495 C 0.44162 0.24602 0.27447 0.0
H1496 H 0.39648 0.28728 0.22349 0.0
C1497 C 0.42039 0.22077 0.27998 0.0
H1498 H 0.44949 0.28849 0.24787 0.0
C1499 C 0.39049 0.2196 0.26541 0.0
C1500 C 0.38138 0.24398 0.2457 0.0
H1501 H 0.42652 0.20239 0.29629 0.0
H1502 H 0.37377 0.20096 0.27133 0.0
C1503 C 0.40328 0.26819 0.23867 0.0
C1504 C 0.47196 0.52036 0.30912 0.0
C1505 C 0.44053 0.50987 0.30294 0.0
H1506 H 0.50858 0.52778 0.34441 0.0
C1507 C 0.42177 0.49854 0.32793 0.0
H1508 H 0.48675 0.52948 0.29021 0.0
C1509 C 0.43431 0.49713 0.35846 0.0
C1510 C 0.4656 0.50774 0.3648 0.0
H1511 H 0.39747 0.49036 0.32379 0.0
H1512 H 0.41941 0.48784 0.37722 0.0
C1513 C 0.4843 0.5197 0.34003 0.0
C1514 C 0.21819 0.67978 0.09106 0.0
C1515 C 0.20378 0.64976 0.08862 0.0
H1516 H 0.22455 0.72185 0.11961 0.0
C1517 C 0.18106 0.641 0.11138 0.0
H1518 H 0.23545 0.68729 0.07351 0.0
C1519 C 0.17407 0.66097 0.13697 0.0
C1520 C 0.19017 0.69003 0.14097 0.0
H1521 H 0.16885 0.6184 0.10966 0.0
H1522 H 0.15713 0.65278 0.15452 0.0
C1523 C 0.21163 0.6997 0.11722 0.0
C1524 C 0.03225 0.42963 0.80479 0.0
C1525 C 0.02052 0.4501 0.78171 0.0
H1526 H 0.02759 0.41302 0.85246 0.0
C1527 C -0.00814 0.46602 0.78768 0.0
H1528 H 0.05407 0.4167 0.80075 0.0
C1529 C 0.97666 0.46347 0.81699 0.0
C1530 C -0.01045 0.44467 0.84068 0.0
H1531 H -0.01803 0.48168 0.77034 0.0
H1532 H 0.95598 0.47787 0.82197 0.0
C1533 C 0.01685 0.42697 0.83413 0.0
C1534 C 0.29171 0.3334 0.59987 0.0
C1535 C 0.27497 0.31492 0.57722 0.0
H1536 H 0.31246 0.33591 0.64623 0.0
C1537 C 0.27133 0.28244 0.58216 0.0
H1538 H 0.29562 0.35835 0.59647 0.0
C1539 C 0.28152 0.26943 0.61082 0.0
C1540 C 0.29557 0.28878 0.63457 0.0
H1541 H 0.25884 0.26759 0.5649 0.0
H1542 H 0.27584 0.24503 0.61549 0.0
C1543 C 0.30189 0.32048 0.62818 0.0
C1544 C 0.37652 0.52191 0.12179 0.0
C1545 C 0.38388 0.54973 0.13907 0.0
H1546 H 0.38864 0.49189 0.08207 0.0
C1547 C 0.4082 0.56978 0.1285 0.0
H1548 H 0.35833 0.5057 0.13011 0.0
C1549 C 0.42512 0.56208 0.10099 0.0
C1550 C 0.41865 0.53368 0.08439 0.0
H1551 H 0.41461 0.59094 0.14195 0.0
H1552 H 0.44403 0.57783 0.09328 0.0
C1553 C 0.39413 0.51371 0.09477 0.0
C1554 C 0.2493 0.68057 0.89301 0.0
C1555 C 0.25009 0.64814 0.89865 0.0
H1556 H 0.25148 0.71639 0.85787 0.0
C1557 C 0.25922 0.62734 0.87399 0.0
H1558 H 0.24275 0.69713 0.91174 0.0
C1559 C 0.26416 0.63829 0.84348 0.0
C1560 C 0.26062 0.67026 0.83724 0.0
H1561 H 0.26062 0.60225 0.87772 0.0
H1562 H 0.26854 0.62148 0.82431 0.0
C1563 C 0.25474 0.69163 0.86238 0.0
C1564 C 0.03865 0.42436 0.6096 0.0
C1565 C 0.07116 0.43156 0.61398 0.0
H1566 H -0.003 0.43005 0.58132 0.0
C1567 C 0.08732 0.44953 0.59126 0.0
H1568 H 0.02563 0.41064 0.62687 0.0
C1569 C 0.07073 0.46124 0.56525 0.0
C1570 C 0.03782 0.45499 0.56156 0.0
H1571 H 0.11232 0.45576 0.59435 0.0
H1572 H 0.08362 0.47534 0.54822 0.0
C1573 C 0.02217 0.43587 0.58369 0.0
C1574 C 0.26037 0.36678 0.36077 0.0
C1575 C 0.24635 0.35039 0.38588 0.0
H1576 H 0.27409 0.36543 0.31175 0.0
C1577 C 0.23423 0.31981 0.38048 0.0
H1578 H 0.26977 0.39043 0.36447 0.0
C1579 C 0.23571 0.30596 0.35014 0.0
C1580 C 0.25023 0.32217 0.32518 0.0
H1581 H 0.22301 0.30693 0.39952 0.0
H1582 H 0.22613 0.28239 0.34634 0.0
C1583 C 0.26278 0.35255 0.33074 0.0
C1584 C 0.35005 0.4142 0.4965 0.0
C1585 C 0.32696 0.43787 0.49818 0.0
H1586 H 0.39992 0.40362 0.49565 0.0
C1587 C 0.33653 0.4691 0.50478 0.0
H1588 H 0.34327 0.38993 0.49146 0.0
C1589 C 0.36893 0.4767 0.50824 0.0
C1590 C 0.392 0.45327 0.50427 0.0
H1591 H 0.31909 0.48768 0.50646 0.0
H1592 H 0.37603 0.50111 0.51184 0.0
C1593 C 0.38237 0.42193 0.49902 0.0
C1594 C 0.82839 0.02275 0.52955 0.0
C1595 C 0.81771 0.05225 0.51978 0.0
H1596 H 0.86848 -0.00794 0.5338 0.0
C1597 C 0.83881 0.07196 0.50307 0.0
H1598 H 0.81263 0.00697 0.54222 0.0
C1599 C 0.87051 0.06337 0.4983 0.0
C1600 C 0.88146 0.03467 0.50945 0.0
H1601 H 0.83135 0.09478 0.49506 0.0
H1602 H 0.88691 0.07989 0.48744 0.0
C1603 C 0.86011 0.014 0.52433 0.0
C1604 C 0.70837 0.04965 0.2185 0.0
C1605 C 0.68102 0.05987 0.20244 0.0
H1606 H 0.75558 0.06172 0.23436 0.0
C1607 C 0.68352 0.08603 0.18274 0.0
H1608 H 0.70746 0.02913 0.23333 0.0
C1609 C 0.71172 0.10391 0.18233 0.0
C1610 C 0.73726 0.09628 0.20233 0.0
H1611 H 0.66307 0.09395 0.16946 0.0
H1612 H 0.71183 0.12591 0.16977 0.0
C1613 C 0.73625 0.06789 0.21862 0.0
C1614 C 0.6102 0.92252 0.02257 0.0
C1615 C 0.61173 0.88952 0.02173 0.0
H1616 H 0.58484 0.9634 0.00936 0.0
C1617 C 0.58791 0.87229 0.00517 0.0
H1618 H 0.62812 0.93657 0.03507 0.0
C1619 C 0.56282 0.88778 -0.00972 0.0
C1620 C 0.56119 0.92084 -0.00859 0.0
H1621 H 0.58861 0.84684 0.00375 0.0
H1622 H 0.54428 0.87382 0.9786 0.0
C1623 C 0.5855 0.93797 0.00737 0.0
C1624 C 0.36552 0.39984 0.17497 0.0
C1625 C 0.34696 0.42659 0.1809 0.0
H1626 H 0.36528 0.34955 0.16978 0.0
C1627 C 0.31349 0.42409 0.17902 0.0
H1628 H 0.39136 0.40124 0.17615 0.0
C1629 C 0.29872 0.39481 0.17431 0.0
C1630 C 0.31722 0.3677 0.17177 0.0
H1631 H 0.29867 0.44452 0.18297 0.0
H1632 H 0.27291 0.39303 0.17586 0.0
C1633 C 0.35067 0.37042 0.17087 0.0
C1634 C 0.12288 0.53002 -0.00749 0.0
C1635 C 0.12856 0.55922 0.97837 0.0
H1636 H 0.08888 0.49283 0.00086 0.0
C1637 C 0.10406 0.57335 0.96124 0.0
H1638 H 0.14144 0.51882 0.00602 0.0
C1639 C 0.07452 0.55826 0.9577 0.0
C1640 C 0.06865 0.52919 0.97199 0.0
H1641 H 0.1079 0.59584 0.95011 0.0
H1642 H 0.0561 0.56951 0.94404 0.0
C1643 C 0.0929 0.5153 -0.01026 0.0
C1644 C 0.65343 0.87786 0.27928 0.0
C1645 C 0.66362 0.89991 0.25694 0.0
H1646 H 0.66257 0.83352 0.30066 0.0
C1647 C 0.693 0.89579 0.24137 0.0
H1648 H 0.63105 0.88077 0.29188 0.0
C1649 C 0.7108 0.86899 0.2463 0.0
C1650 C 0.6998 0.84611 0.26725 0.0
H1651 H 0.70166 0.9126 0.22427 0.0
H1652 H 0.7325 0.86547 0.23267 0.0
C1653 C 0.67161 0.85115 0.28462 0.0
C1654 C 0.85851 0.15942 0.82019 0.0
C1655 C 0.83869 0.13265 0.82287 0.0
H1656 H 0.85988 0.20945 0.81391 0.0
C1657 C 0.80626 0.13639 0.83006 0.0
H1658 H 0.88364 0.15702 0.81461 0.0
C1659 C 0.79301 0.16625 0.83051 0.0
C1660 C 0.81191 0.19262 0.82329 0.0
H1661 H 0.79062 0.11608 0.83255 0.0
H1662 H 0.7673 0.1683 0.83272 0.0
C1663 C 0.84505 0.18942 0.8201 0.0
loop_
_geom_bond_atom_site_label_1
_geom_bond_atom_site_label_2
_geom_bond_distance
_geom_bond_site_symmetry_2
_ccdc_geom_bond_type
C0 O1 1.306 . S
C0 O3 1.160 . S
O1 C0 1.306 . S
O1 Cd2 2.228 1_655 S
Cd2 O1 2.228 1_455 S
Cd2 O6 2.273 . S
Cd2 O10 2.277 . S
O3 C0 1.160 . S
O3 Cd4 2.203 1_655 S
Cd4 O3 2.203 1_455 S
Cd4 O6 2.411 . S
Cd4 O7 2.333 . S
Cd4 O8 2.352 . S
Cd4 O12 2.277 . S
Cd4 O13 2.356 . S
C5 O10 1.209 . S
C5 O12 1.226 . S
O6 Cd2 2.273 . S
O6 Cd4 2.411 . S
O6 C9 1.320 . S
O7 Cd4 2.333 . S
O7 C9 1.214 . S
O8 Cd4 2.352 . S
O8 C11 1.258 . S
C9 O6 1.320 . S
C9 O7 1.214 . S
O10 Cd2 2.277 . S
O10 C5 1.209 . S
C11 O8 1.258 . S
C11 O13 1.282 . S
O12 Cd4 2.277 . S
O12 C5 1.226 . S
O13 Cd4 2.356 . S
O13 C11 1.282 . S
C14 O15 1.306 . S
C14 O17 1.160 . S
O15 C14 1.306 . S
O15 Cd16 2.228 1_655 S
Cd16 O15 2.228 1_455 S
Cd16 O20 2.273 . S
Cd16 O24 2.277 . S
O17 C14 1.160 . S
O17 Cd18 2.203 1_655 S
Cd18 O17 2.203 1_455 S
Cd18 O20 2.411 . S
Cd18 O21 2.333 . S
Cd18 O22 2.352 . S
Cd18 O26 2.277 . S
Cd18 O27 2.356 . S
C19 O24 1.209 . S
C19 O26 1.226 . S
O20 Cd16 2.273 . S
O20 Cd18 2.411 . S
O20 C23 1.320 . S
O21 Cd18 2.333 . S
O21 C23 1.214 . S
O22 Cd18 2.352 . S
O22 C25 1.258 . S
C23 O20 1.320 . S
C23 O21 1.214 . S
O24 Cd16 2.277 . S
O24 C19 1.209 . S
C25 O22 1.258 . S
C25 O27 1.282 . S
O26 Cd18 2.277 . S
O26 C19 1.226 . S
O27 Cd18 2.356 . S
O27 C25 1.282 . S
C28 O29 1.306 . S
C28 O31 1.160 . S
O29 C28 1.306 . S
O29 Cd30 2.228 . S
Cd30 O29 2.228 . S
Cd30 O34 2.273 . S
Cd30 O38 2.277 . S
O31 C28 1.160 . S
O31 Cd32 2.203 . S
Cd32 O31 2.203 . S
Cd32 O34 2.411 . S
Cd32 O35 2.333 . S
Cd32 O36 2.352 . S
Cd32 O40 2.277 . S
Cd32 O41 2.356 . S
C33 O38 1.209 . S
C33 O40 1.226 . S
O34 Cd30 2.273 . S
O34 Cd32 2.411 . S
O34 C37 1.320 . S
O35 Cd32 2.333 . S
O35 C37 1.214 . S
O36 Cd32 2.352 . S
O36 C39 1.258 . S
C37 O34 1.320 . S
C37 O35 1.214 . S
O38 Cd30 2.277 . S
O38 C33 1.209 . S
C39 O36 1.258 . S
C39 O41 1.282 . S
O40 Cd32 2.277 . S
O40 C33 1.226 . S
O41 Cd32 2.356 . S
O41 C39 1.282 . S
C42 O43 1.306 . S
C42 O45 1.160 . S
O43 C42 1.306 . S
O43 Cd44 2.228 . S
Cd44 O43 2.228 . S
Cd44 O48 2.273 . S
Cd44 O52 2.277 . S
O45 C42 1.160 . S
O45 Cd46 2.203 . S
Cd46 O45 2.203 . S
Cd46 O48 2.411 . S
Cd46 O49 2.333 . S
Cd46 O50 2.352 . S
Cd46 O54 2.277 . S
Cd46 O55 2.356 . S
C47 O52 1.209 . S
C47 O54 1.226 . S
O48 Cd44 2.273 . S
O48 Cd46 2.411 . S
O48 C51 1.320 . S
O49 Cd46 2.333 . S
O49 C51 1.214 . S
O50 Cd46 2.352 . S
O50 C53 1.258 . S
C51 O48 1.320 . S
C51 O49 1.214 . S
O52 Cd44 2.277 . S
O52 C47 1.209 . S
C53 O50 1.258 . S
C53 O55 1.282 . S
O54 Cd46 2.277 . S
O54 C47 1.226 . S
O55 Cd46 2.356 . S
O55 C53 1.282 . S
C56 O57 1.306 . S
C56 O59 1.160 . S
O57 C56 1.306 . S
O57 Cd58 2.228 . S
Cd58 O57 2.228 . S
Cd58 O62 2.273 . S
Cd58 O66 2.277 . S
O59 C56 1.160 . S
O59 Cd60 2.203 . S
Cd60 O59 2.203 . S
Cd60 O62 2.411 . S
Cd60 O63 2.333 . S
Cd60 O64 2.352 1_545 S
Cd60 O68 2.277 . S
Cd60 O69 2.356 1_545 S
C61 O66 1.209 . S
C61 O68 1.226 . S
O62 Cd58 2.273 . S
O62 Cd60 2.411 . S
O62 C65 1.320 . S
O63 Cd60 2.333 . S
O63 C65 1.214 . S
O64 Cd60 2.352 1_565 S
O64 C67 1.258 . S
C65 O62 1.320 . S
C65 O63 1.214 . S
O66 Cd58 2.277 . S
O66 C61 1.209 . S
C67 O64 1.258 . S
C67 O69 1.282 . S
O68 Cd60 2.277 . S
O68 C61 1.226 . S
O69 Cd60 2.356 1_565 S
O69 C67 1.282 . S
C70 O71 1.306 . S
C70 O73 1.160 . S
O71 C70 1.306 . S
O71 Cd72 2.228 . S
Cd72 O71 2.228 . S
Cd72 O76 2.273 . S
Cd72 O80 2.277 . S
O73 C70 1.160 . S
O73 Cd74 2.203 . S
Cd74 O73 2.203 . S
Cd74 O76 2.411 . S
Cd74 O77 2.333 . S
Cd74 O78 2.352 . S
Cd74 O82 2.277 . S
Cd74 O83 2.356 . S
C75 O80 1.209 . S
C75 O82 1.226 . S
O76 Cd72 2.273 . S
O76 Cd74 2.411 . S
O76 C79 1.320 . S
O77 Cd74 2.333 . S
O77 C79 1.214 . S
O78 Cd74 2.352 . S
O78 C81 1.258 . S
C79 O76 1.320 . S
C79 O77 1.214 . S
O80 Cd72 2.277 . S
O80 C75 1.209 . S
C81 O78 1.258 . S
C81 O83 1.282 . S
O82 Cd74 2.277 . S
O82 C75 1.226 . S
O83 Cd74 2.356 . S
O83 C81 1.282 . S
C84 O85 1.306 . S
C84 O87 1.160 1_565 S
O85 C84 1.306 . S
O85 Cd86 2.228 . S
Cd86 O85 2.228 . S
Cd86 O90 2.273 . S
Cd86 O94 2.277 . S
O87 C84 1.160 1_545 S
O87 Cd88 2.203 . S
Cd88 O87 2.203 . S
Cd88 O90 2.411 1_545 S
Cd88 O91 2.333 . S
Cd88 O92 2.352 . S
Cd88 O96 2.277 1_545 S
Cd88 O97 2.356 . S
C89 O94 1.209 . S
C89 O96 1.226 . S
O90 Cd86 2.273 . S
O90 Cd88 2.411 1_565 S
O90 C93 1.317 1_565 S
O91 Cd88 2.333 . S
O91 C93 1.219 . S
O92 Cd88 2.352 . S
O92 C95 1.258 . S
C93 O90 1.317 1_545 S
C93 O91 1.219 . S
O94 Cd86 2.277 . S
O94 C89 1.209 . S
C95 O92 1.258 . S
C95 O97 1.282 . S
O96 Cd88 2.277 1_565 S
O96 C89 1.226 . S
O97 Cd88 2.356 . S
O97 C95 1.282 . S
C98 O99 1.306 . S
C98 O101 1.160 . S
O99 C98 1.306 . S
O99 Cd100 2.228 . S
Cd100 O99 2.228 . S
Cd100 O104 2.273 . S
Cd100 O108 2.277 . S
O101 C98 1.160 . S
O101 Cd102 2.203 . S
Cd102 O101 2.203 . S
Cd102 O104 2.411 . S
Cd102 O105 2.333 . S
Cd102 O106 2.352 1_554 S
Cd102 O110 2.277 . S
Cd102 O111 2.356 1_554 S
C103 O108 1.209 . S
C103 O110 1.226 . S
O104 Cd100 2.273 . S
O104 Cd102 2.411 . S
O104 C107 1.320 . S
O105 Cd102 2.333 . S
O105 C107 1.214 . S
O106 Cd102 2.352 1_556 S
O106 C109 1.258 . S
C107 O104 1.320 . S
C107 O105 1.214 . S
O108 Cd100 2.277 . S
O108 C103 1.209 . S
C109 O106 1.258 . S
C109 O111 1.282 . S
O110 Cd102 2.277 . S
O110 C103 1.226 . S
O111 Cd102 2.356 1_556 S
O111 C109 1.282 . S
C112 O113 1.306 1_554 S
C112 O115 1.160 . S
O113 C112 1.306 1_556 S
O113 Cd114 2.228 . S
Cd114 O113 2.228 . S
Cd114 O118 2.273 1_556 S
Cd114 O122 2.277 . S
O115 C112 1.160 . S
O115 Cd116 2.203 . S
Cd116 O115 2.203 . S
Cd116 O118 2.411 . S
Cd116 O119 2.333 . S
Cd116 O120 2.352 . S
Cd116 O124 2.277 1_554 S
Cd116 O125 2.356 . S
C117 O122 1.209 . S
C117 O124 1.226 . S
O118 Cd114 2.273 1_554 S
O118 Cd116 2.411 . S
O118 C121 1.320 . S
O119 Cd116 2.333 . S
O119 C121 1.214 . S
O120 Cd116 2.352 . S
O120 C123 1.258 . S
C121 O118 1.320 . S
C121 O119 1.214 . S
O122 Cd114 2.277 . S
O122 C117 1.209 . S
C123 O120 1.258 . S
C123 O125 1.282 . S
O124 Cd116 2.277 1_556 S
O124 C117 1.226 . S
O125 Cd116 2.356 . S
O125 C123 1.282 . S
C126 O127 1.306 . S
C126 O129 1.160 . S
O127 C126 1.306 . S
O127 Cd128 2.228 . S
Cd128 O127 2.228 . S
Cd128 O132 2.273 . S
Cd128 O136 2.277 . S
O129 C126 1.160 . S
O129 Cd130 2.203 . S
Cd130 O129 2.203 . S
Cd130 O132 2.411 . S
Cd130 O133 2.333 . S
Cd130 O134 2.352 . S
Cd130 O138 2.277 . S
Cd130 O139 2.356 . S
C131 O136 1.209 . S
C131 O138 1.226 . S
O132 Cd128 2.273 . S
O132 Cd130 2.411 . S
O132 C135 1.320 . S
O133 Cd130 2.333 . S
O133 C135 1.214 . S
O134 Cd130 2.352 . S
O134 C137 1.258 . S
C135 O132 1.320 . S
C135 O133 1.214 . S
O136 Cd128 2.277 . S
O136 C131 1.209 . S
C137 O134 1.258 . S
C137 O139 1.282 . S
O138 Cd130 2.277 . S
O138 C131 1.226 . S
O139 Cd130 2.356 . S
O139 C137 1.282 . S
C140 O141 1.306 . S
C140 O143 1.160 . S
O141 C140 1.306 . S
O141 Cd142 2.228 . S
Cd142 O141 2.228 . S
Cd142 O146 2.273 . S
Cd142 O150 2.277 . S
O143 C140 1.160 . S
O143 Cd144 2.203 . S
Cd144 O143 2.203 . S
Cd144 O146 2.411 . S
Cd144 O147 2.333 . S
Cd144 O148 2.352 . S
Cd144 O152 2.277 . S
Cd144 O153 2.356 . S
C145 O150 1.209 . S
C145 O152 1.226 . S
O146 Cd142 2.273 . S
O146 Cd144 2.411 . S
O146 C149 1.320 . S
O147 Cd144 2.333 . S
O147 C149 1.214 . S
O148 Cd144 2.352 . S
O148 C151 1.258 . S
C149 O146 1.320 . S
C149 O147 1.214 . S
O150 Cd142 2.277 . S
O150 C145 1.209 . S
C151 O148 1.258 . S
C151 O153 1.282 . S
O152 Cd144 2.277 . S
O152 C145 1.226 . S
O153 Cd144 2.356 . S
O153 C151 1.282 . S
C154 O155 1.306 . S
C154 O157 1.160 . S
O155 C154 1.306 . S
O155 Cd156 2.228 . S
Cd156 O155 2.228 . S
Cd156 O160 2.273 . S
Cd156 O164 2.277 . S
O157 C154 1.160 . S
O157 Cd158 2.203 . S
Cd158 O157 2.203 . S
Cd158 O160 2.411 . S
Cd158 O161 2.333 . S
Cd158 O162 2.352 . S
Cd158 O166 2.277 . S
Cd158 O167 2.356 . S
C159 O164 1.209 . S
C159 O166 1.226 . S
O160 Cd156 2.273 . S
O160 Cd158 2.411 . S
O160 C163 1.320 . S
O161 Cd158 2.333 . S
O161 C163 1.214 . S
O162 Cd158 2.352 . S
O162 C165 1.258 . S
C163 O160 1.320 . S
C163 O161 1.214 . S
O164 Cd156 2.277 . S
O164 C159 1.209 . S
C165 O162 1.258 . S
C165 O167 1.282 . S
O166 Cd158 2.277 . S
O166 C159 1.226 . S
O167 Cd158 2.356 . S
O167 C165 1.282 . S
C168 O169 1.306 . S
C168 O171 1.160 . S
O169 C168 1.306 . S
O169 Cd170 2.228 1_655 S
Cd170 O169 2.228 1_455 S
Cd170 O174 2.273 . S
Cd170 O178 2.277 . S
O171 C168 1.160 . S
O171 Cd172 2.203 1_655 S
Cd172 O171 2.203 1_455 S
Cd172 O174 2.411 . S
Cd172 O175 2.333 . S
Cd172 O176 2.352 . S
Cd172 O180 2.277 . S
Cd172 O181 2.356 . S
C173 O178 1.209 . S
C173 O180 1.226 . S
O174 Cd170 2.273 . S
O174 Cd172 2.411 . S
O174 C177 1.320 . S
O175 Cd172 2.333 . S
O175 C177 1.214 . S
O176 Cd172 2.352 . S
O176 C179 1.258 . S
C177 O174 1.320 . S
C177 O175 1.214 . S
O178 Cd170 2.277 . S
O178 C173 1.209 . S
C179 O176 1.258 . S
C179 O181 1.282 . S
O180 Cd172 2.277 . S
O180 C173 1.226 . S
O181 Cd172 2.356 . S
O181 C179 1.282 . S
C182 O183 1.306 . S
C182 O185 1.160 . S
O183 C182 1.306 . S
O183 Cd184 2.228 1_655 S
Cd184 O183 2.228 1_455 S
Cd184 O188 2.273 . S
Cd184 O192 2.277 . S
O185 C182 1.160 . S
O185 Cd186 2.203 1_655 S
Cd186 O185 2.203 1_455 S
Cd186 O188 2.411 . S
Cd186 O189 2.333 . S
Cd186 O190 2.352 . S
Cd186 O194 2.277 . S
Cd186 O195 2.356 . S
C187 O192 1.209 . S
C187 O194 1.226 . S
O188 Cd184 2.273 . S
O188 Cd186 2.411 . S
O188 C191 1.320 . S
O189 Cd186 2.333 . S
O189 C191 1.214 . S
O190 Cd186 2.352 . S
O190 C193 1.258 . S
C191 O188 1.320 . S
C191 O189 1.214 . S
O192 Cd184 2.277 . S
O192 C187 1.209 . S
C193 O190 1.258 . S
C193 O195 1.282 . S
O194 Cd186 2.277 . S
O194 C187 1.226 . S
O195 Cd186 2.356 . S
O195 C193 1.282 . S
C196 O197 1.306 . S
C196 O199 1.160 . S
O197 C196 1.306 . S
O197 Cd198 2.228 . S
Cd198 O197 2.228 . S
Cd198 O202 2.273 . S
Cd198 O206 2.277 . S
O199 C196 1.160 . S
O199 Cd200 2.203 . S
Cd200 O199 2.203 . S
Cd200 O202 2.411 . S
Cd200 O203 2.333 . S
Cd200 O204 2.352 . S
Cd200 O208 2.277 . S
Cd200 O209 2.356 . S
C201 O206 1.209 . S
C201 O208 1.226 . S
O202 Cd198 2.273 . S
O202 Cd200 2.411 . S
O202 C205 1.320 . S
O203 Cd200 2.333 . S
O203 C205 1.214 . S
O204 Cd200 2.352 . S
O204 C207 1.258 . S
C205 O202 1.320 . S
C205 O203 1.214 . S
O206 Cd198 2.277 . S
O206 C201 1.209 . S
C207 O204 1.258 . S
C207 O209 1.282 . S
O208 Cd200 2.277 . S
O208 C201 1.226 . S
O209 Cd200 2.356 . S
O209 C207 1.282 . S
C210 O211 1.306 . S
C210 O213 1.160 . S
O211 C210 1.306 . S
O211 Cd212 2.228 . S
Cd212 O211 2.228 . S
Cd212 O216 2.273 . S
Cd212 O220 2.277 . S
O213 C210 1.160 . S
O213 Cd214 2.203 . S
Cd214 O213 2.203 . S
Cd214 O216 2.411 . S
Cd214 O217 2.333 . S
Cd214 O218 2.352 . S
Cd214 O222 2.277 . S
Cd214 O223 2.356 . S
C215 O220 1.209 . S
C215 O222 1.226 . S
O216 Cd212 2.273 . S
O216 Cd214 2.411 . S
O216 C219 1.320 . S
O217 Cd214 2.333 . S
O217 C219 1.214 . S
O218 Cd214 2.352 . S
O218 C221 1.258 . S
C219 O216 1.320 . S
C219 O217 1.214 . S
O220 Cd212 2.277 . S
O220 C215 1.209 . S
C221 O218 1.258 . S
C221 O223 1.282 . S
O222 Cd214 2.277 . S
O222 C215 1.226 . S
O223 Cd214 2.356 . S
O223 C221 1.282 . S
C224 O225 1.311 . S
C224 O227 1.160 . S
O225 C224 1.311 . S
O225 Cd226 2.222 1_545 S
Cd226 O225 2.222 1_565 S
Cd226 O230 2.273 1_565 S
Cd226 O234 2.277 . S
O227 C224 1.160 . S
O227 Cd228 2.203 . S
Cd228 O227 2.203 . S
Cd228 O230 2.411 . S
Cd228 O231 2.333 . S
Cd228 O232 2.352 . S
Cd228 O236 2.277 1_545 S
Cd228 O237 2.356 . S
C229 O234 1.209 . S
C229 O236 1.226 . S
O230 Cd226 2.273 1_545 S
O230 Cd228 2.411 . S
O230 C233 1.320 . S
O231 Cd228 2.333 . S
O231 C233 1.214 . S
O232 Cd228 2.352 . S
O232 C235 1.258 . S
C233 O230 1.320 . S
C233 O231 1.214 . S
O234 Cd226 2.277 . S
O234 C229 1.209 . S
C235 O232 1.258 . S
C235 O237 1.282 . S
O236 Cd228 2.277 1_565 S
O236 C229 1.226 . S
O237 Cd228 2.356 . S
O237 C235 1.282 . S
C238 O239 1.306 . S
C238 O241 1.160 . S
O239 C238 1.306 . S
O239 Cd240 2.228 . S
Cd240 O239 2.228 . S
Cd240 O244 2.273 . S
Cd240 O248 2.277 . S
O241 C238 1.160 . S
O241 Cd242 2.203 . S
Cd242 O241 2.203 . S
Cd242 O244 2.411 . S
Cd242 O245 2.333 . S
Cd242 O246 2.352 . S
Cd242 O250 2.277 . S
Cd242 O251 2.356 . S
C243 O248 1.209 . S
C243 O250 1.226 . S
O244 Cd240 2.273 . S
O244 Cd242 2.411 . S
O244 C247 1.320 . S
O245 Cd242 2.333 . S
O245 C247 1.214 . S
O246 Cd242 2.352 . S
O246 C249 1.258 . S
C247 O244 1.320 . S
C247 O245 1.214 . S
O248 Cd240 2.277 . S
O248 C243 1.209 . S
C249 O246 1.258 . S
C249 O251 1.282 . S
O250 Cd242 2.277 . S
O250 C243 1.226 . S
O251 Cd242 2.356 . S
O251 C249 1.282 . S
C252 O253 1.306 . S
C252 O255 1.160 1_545 S
O253 C252 1.306 . S
O253 Cd254 2.228 . S
Cd254 O253 2.228 . S
Cd254 O258 2.273 . S
Cd254 O262 2.277 . S
O255 C252 1.160 1_565 S
O255 Cd256 2.203 . S
Cd256 O255 2.203 . S
Cd256 O258 2.411 1_565 S
Cd256 O259 2.333 . S
Cd256 O260 2.352 . S
Cd256 O264 2.277 1_565 S
Cd256 O265 2.356 . S
C257 O262 1.209 . S
C257 O264 1.226 . S
O258 Cd254 2.273 . S
O258 Cd256 2.411 1_545 S
O258 C261 1.317 1_545 S
O259 Cd256 2.333 . S
O259 C261 1.220 . S
O260 Cd256 2.352 . S
O260 C263 1.258 . S
C261 O258 1.317 1_565 S
C261 O259 1.220 . S
O262 Cd254 2.277 . S
O262 C257 1.209 . S
C263 O260 1.258 . S
C263 O265 1.282 . S
O264 Cd256 2.277 1_545 S
O264 C257 1.226 . S
O265 Cd256 2.356 . S
O265 C263 1.282 . S
C266 O267 1.306 . S
C266 O269 1.160 1_556 S
O267 C266 1.306 . S
O267 Cd268 2.228 . S
Cd268 O267 2.228 . S
Cd268 O272 2.273 1_556 S
Cd268 O276 2.277 . S
O269 C266 1.160 1_554 S
O269 Cd270 2.203 . S
Cd270 O269 2.203 . S
Cd270 O272 2.411 . S
Cd270 O273 2.333 . S
Cd270 O274 2.352 . S
Cd270 O278 2.277 1_554 S
Cd270 O279 2.356 . S
C271 O276 1.209 . S
C271 O278 1.226 . S
O272 Cd268 2.273 1_554 S
O272 Cd270 2.411 . S
O272 C275 1.320 . S
O273 Cd270 2.333 . S
O273 C275 1.214 . S
O274 Cd270 2.352 . S
O274 C277 1.258 . S
C275 O272 1.320 . S
C275 O273 1.214 . S
O276 Cd268 2.277 . S
O276 C271 1.209 . S
C277 O274 1.258 . S
C277 O279 1.282 . S
O278 Cd270 2.277 1_556 S
O278 C271 1.226 . S
O279 Cd270 2.356 . S
O279 C277 1.282 . S
C280 O281 1.306 . S
C280 O283 1.160 1_554 S
O281 C280 1.306 . S
O281 Cd282 2.228 . S
Cd282 O281 2.228 . S
Cd282 O286 2.273 . S
Cd282 O290 2.277 . S
O283 C280 1.160 1_556 S
O283 Cd284 2.203 . S
Cd284 O283 2.203 . S
Cd284 O286 2.411 1_556 S
Cd284 O287 2.333 . S
Cd284 O288 2.352 . S
Cd284 O292 2.277 1_556 S
Cd284 O293 2.356 . S
C285 O290 1.209 . S
C285 O292 1.226 . S
O286 Cd282 2.273 . S
O286 Cd284 2.411 1_554 S
O286 C289 1.320 . S
O287 Cd284 2.333 . S
O287 C289 1.214 1_556 S
O288 Cd284 2.352 . S
O288 C291 1.258 . S
C289 O286 1.320 . S
C289 O287 1.214 1_554 S
O290 Cd282 2.277 . S
O290 C285 1.209 . S
C291 O288 1.258 . S
C291 O293 1.282 . S
O292 Cd284 2.277 1_554 S
O292 C285 1.226 . S
O293 Cd284 2.356 . S
O293 C291 1.282 . S
C294 O295 1.306 . S
C294 O297 1.160 . S
O295 C294 1.306 . S
O295 Cd296 2.228 . S
Cd296 O295 2.228 . S
Cd296 O300 2.273 . S
Cd296 O304 2.277 . S
O297 C294 1.160 . S
O297 Cd298 2.203 . S
Cd298 O297 2.203 . S
Cd298 O300 2.411 . S
Cd298 O301 2.333 . S
Cd298 O302 2.352 . S
Cd298 O306 2.277 . S
Cd298 O307 2.356 . S
C299 O304 1.209 . S
C299 O306 1.226 . S
O300 Cd296 2.273 . S
O300 Cd298 2.411 . S
O300 C303 1.320 . S
O301 Cd298 2.333 . S
O301 C303 1.214 . S
O302 Cd298 2.352 . S
O302 C305 1.258 . S
C303 O300 1.320 . S
C303 O301 1.214 . S
O304 Cd296 2.277 . S
O304 C299 1.209 . S
C305 O302 1.258 . S
C305 O307 1.282 . S
O306 Cd298 2.277 . S
O306 C299 1.226 . S
O307 Cd298 2.356 . S
O307 C305 1.282 . S
C308 O309 1.306 . S
C308 O311 1.160 . S
O309 C308 1.306 . S
O309 Cd310 2.228 . S
Cd310 O309 2.228 . S
Cd310 O314 2.273 . S
Cd310 O318 2.277 . S
O311 C308 1.160 . S
O311 Cd312 2.203 . S
Cd312 O311 2.203 . S
Cd312 O314 2.411 . S
Cd312 O315 2.333 . S
Cd312 O316 2.352 . S
Cd312 O320 2.277 . S
Cd312 O321 2.356 . S
C313 O318 1.209 . S
C313 O320 1.226 . S
O314 Cd310 2.273 . S
O314 Cd312 2.411 . S
O314 C317 1.320 . S
O315 Cd312 2.333 . S
O315 C317 1.214 . S
O316 Cd312 2.352 . S
O316 C319 1.258 . S
C317 O314 1.320 . S
C317 O315 1.214 . S
O318 Cd310 2.277 . S
O318 C313 1.209 . S
C319 O316 1.258 . S
C319 O321 1.282 . S
O320 Cd312 2.277 . S
O320 C313 1.226 . S
O321 Cd312 2.356 . S
O321 C319 1.282 . S
C322 O323 1.306 . S
C322 O325 1.160 . S
O323 C322 1.306 . S
O323 Cd324 2.228 . S
Cd324 O323 2.228 . S
Cd324 O328 2.273 . S
Cd324 O332 2.277 . S
O325 C322 1.160 . S
O325 Cd326 2.203 . S
Cd326 O325 2.203 . S
Cd326 O328 2.411 . S
Cd326 O329 2.333 . S
Cd326 O330 2.352 . S
Cd326 O334 2.277 . S
Cd326 O335 2.356 . S
C327 O332 1.209 . S
C327 O334 1.226 . S
O328 Cd324 2.273 . S
O328 Cd326 2.411 . S
O328 C331 1.320 . S
O329 Cd326 2.333 . S
O329 C331 1.214 . S
O330 Cd326 2.352 . S
O330 C333 1.258 . S
C331 O328 1.320 . S
C331 O329 1.214 . S
O332 Cd324 2.277 . S
O332 C327 1.209 . S
C333 O330 1.258 . S
C333 O335 1.282 . S
O334 Cd326 2.277 . S
O334 C327 1.226 . S
O335 Cd326 2.356 . S
O335 C333 1.282 . S
O336 Zn337 1.953 1_554 S
O336 C352 1.225 1_455 S
Zn337 O336 1.953 1_556 S
Zn337 O338 1.958 1_556 S
Zn337 O344 1.919 . S
Zn337 O349 1.924 1_455 S
O338 Zn337 1.958 1_554 S
O338 Zn339 1.944 1_545 S
O338 Zn340 1.934 1_455 S
O338 Zn341 1.931 1_444 S
Zn339 O338 1.944 1_565 S
Zn339 O342 1.933 . S
Zn339 O345 1.941 1_565 S
Zn339 O346 1.965 . S
Zn340 O338 1.934 1_655 S
Zn340 O347 1.938 . S
Zn340 O348 1.906 1_545 S
Zn340 O358 1.953 . S
Zn341 O338 1.931 1_666 S
Zn341 O343 1.932 . S
Zn341 O350 1.977 1_556 S
Zn341 O351 1.910 1_565 S
O342 Zn339 1.933 . S
O342 C353 1.226 1_554 S
O343 Zn341 1.932 . S
O343 C353 1.307 1_655 S
O344 Zn337 1.919 . S
O344 C355 1.255 . S
O345 Zn339 1.941 1_545 S
O345 C355 1.279 1_554 S
O346 Zn339 1.965 . S
O346 C354 1.316 . S
O347 Zn340 1.938 . S
O347 C354 1.239 1_645 S
O348 Zn340 1.906 1_565 S
O348 C356 1.304 . S
O349 Zn337 1.924 1_655 S
O349 C357 1.311 . S
O350 Zn341 1.977 1_554 S
O350 C356 1.272 . S
O351 Zn341 1.910 1_545 S
O351 C357 1.231 . S
C352 O336 1.225 1_655 S
C352 O358 1.298 . S
C353 O342 1.226 1_556 S
C353 O343 1.307 1_455 S
C354 O346 1.316 . S
C354 O347 1.239 1_465 S
C355 O344 1.255 . S
C355 O345 1.279 1_556 S
C356 O348 1.304 . S
C356 O350 1.272 . S
C357 O349 1.311 . S
C357 O351 1.231 . S
O358 Zn340 1.953 . S
O358 C352 1.298 . S
O359 Zn360 1.953 . S
O359 C375 1.225 . S
Zn360 O359 1.953 . S
Zn360 O361 1.949 . S
Zn360 O367 1.919 . S
Zn360 O372 1.924 . S
O361 Zn360 1.949 . S
O361 Zn362 1.923 . S
O361 Zn363 1.950 . S
O361 Zn364 1.945 . S
Zn362 O361 1.923 . S
Zn362 O365 1.933 . S
Zn362 O368 1.941 . S
Zn362 O369 1.965 . S
Zn363 O361 1.950 . S
Zn363 O370 1.938 . S
Zn363 O371 1.906 . S
Zn363 O381 1.953 . S
Zn364 O361 1.945 . S
Zn364 O366 1.932 . S
Zn364 O373 1.977 . S
Zn364 O374 1.910 . S
O365 Zn362 1.933 . S
O365 C376 1.226 . S
O366 Zn364 1.932 . S
O366 C376 1.307 . S
O367 Zn360 1.919 . S
O367 C378 1.253 . S
O368 Zn362 1.941 . S
O368 C378 1.283 . S
O369 Zn362 1.965 . S
O369 C377 1.303 . S
O370 Zn363 1.938 . S
O370 C377 1.247 . S
O371 Zn363 1.906 . S
O371 C379 1.304 . S
O372 Zn360 1.924 . S
O372 C380 1.311 . S
O373 Zn364 1.977 . S
O373 C379 1.272 . S
O374 Zn364 1.910 . S
O374 C380 1.231 . S
C375 O359 1.225 . S
C375 O381 1.298 . S
C376 O365 1.226 . S
C376 O366 1.307 . S
C377 O369 1.303 . S
C377 O370 1.247 . S
C378 O367 1.253 . S
C378 O368 1.283 . S
C379 O371 1.304 . S
C379 O373 1.272 . S
C380 O372 1.311 . S
C380 O374 1.231 . S
O381 Zn363 1.953 . S
O381 C375 1.298 . S
O382 Zn383 1.953 . S
O382 C398 1.225 . S
Zn383 O382 1.953 . S
Zn383 O384 1.949 1_565 S
Zn383 O390 1.919 . S
Zn383 O395 1.924 . S
O384 Zn383 1.949 1_545 S
O384 Zn385 1.923 . S
O384 Zn386 1.950 . S
O384 Zn387 1.945 . S
Zn385 O384 1.923 . S
Zn385 O388 1.933 . S
Zn385 O391 1.941 . S
Zn385 O392 1.965 . S
Zn386 O384 1.950 . S
Zn386 O393 1.938 . S
Zn386 O394 1.906 . S
Zn386 O404 1.953 1_545 S
Zn387 O384 1.945 . S
Zn387 O389 1.932 . S
Zn387 O396 1.977 . S
Zn387 O397 1.910 . S
O388 Zn385 1.933 . S
O388 C399 1.226 . S
O389 Zn387 1.932 . S
O389 C399 1.307 . S
O390 Zn383 1.919 . S
O390 C401 1.253 . S
O391 Zn385 1.941 . S
O391 C401 1.283 1_545 S
O392 Zn385 1.965 . S
O392 C400 1.303 . S
O393 Zn386 1.938 . S
O393 C400 1.247 . S
O394 Zn386 1.906 . S
O394 C402 1.304 . S
O395 Zn383 1.924 . S
O395 C403 1.311 . S
O396 Zn387 1.977 . S
O396 C402 1.272 . S
O397 Zn387 1.910 . S
O397 C403 1.231 1_545 S
C398 O382 1.225 . S
C398 O404 1.298 . S
C399 O388 1.226 . S
C399 O389 1.307 . S
C400 O392 1.303 . S
C400 O393 1.247 . S
C401 O390 1.253 . S
C401 O391 1.283 1_565 S
C402 O394 1.304 . S
C402 O396 1.272 . S
C403 O395 1.311 . S
C403 O397 1.231 1_565 S
O404 Zn386 1.953 1_565 S
O404 C398 1.298 . S
O405 Zn406 1.953 . S
O405 C421 1.225 . S
Zn406 O405 1.953 . S
Zn406 O407 1.949 . S
Zn406 O413 1.919 . S
Zn406 O418 1.924 . S
O407 Zn406 1.949 . S
O407 Zn408 1.923 . S
O407 Zn409 1.950 . S
O407 Zn410 1.945 . S
Zn408 O407 1.923 . S
Zn408 O411 1.933 . S
Zn408 O414 1.941 . S
Zn408 O415 1.965 . S
Zn409 O407 1.950 . S
Zn409 O416 1.938 . S
Zn409 O417 1.906 . S
Zn409 O427 1.953 . S
Zn410 O407 1.945 . S
Zn410 O412 1.932 . S
Zn410 O419 1.977 . S
Zn410 O420 1.910 . S
O411 Zn408 1.933 . S
O411 C422 1.226 . S
O412 Zn410 1.932 . S
O412 C422 1.307 . S
O413 Zn406 1.919 . S
O413 C424 1.253 . S
O414 Zn408 1.941 . S
O414 C424 1.283 . S
O415 Zn408 1.965 . S
O415 C423 1.303 . S
O416 Zn409 1.938 . S
O416 C423 1.247 . S
O417 Zn409 1.906 . S
O417 C425 1.304 . S
O418 Zn406 1.924 . S
O418 C426 1.311 . S
O419 Zn410 1.977 . S
O419 C425 1.272 . S
O420 Zn410 1.910 . S
O420 C426 1.231 . S
C421 O405 1.225 . S
C421 O427 1.298 . S
C422 O411 1.226 . S
C422 O412 1.307 . S
C423 O415 1.303 . S
C423 O416 1.247 . S
C424 O413 1.253 . S
C424 O414 1.283 . S
C425 O417 1.304 . S
C425 O419 1.272 . S
C426 O418 1.311 . S
C426 O420 1.231 . S
O427 Zn409 1.953 . S
O427 C421 1.298 . S
O428 Zn429 1.953 1_445 S
O428 C444 1.225 . S
Zn429 O428 1.953 1_665 S
Zn429 O430 1.949 1_665 S
Zn429 O436 1.919 . S
Zn429 O441 1.924 1_565 S
O430 Zn429 1.949 1_445 S
O430 Zn431 1.923 1_545 S
O430 Zn432 1.950 . S
O430 Zn433 1.945 1_455 S
Zn431 O430 1.923 1_565 S
Zn431 O434 1.933 . S
Zn431 O437 1.941 . S
Zn431 O438 1.965 . S
Zn432 O430 1.950 . S
Zn432 O439 1.938 . S
Zn432 O440 1.906 . S
Zn432 O450 1.953 . S
Zn433 O430 1.945 1_655 S
Zn433 O435 1.932 . S
Zn433 O442 1.977 . S
Zn433 O443 1.910 . S
O434 Zn431 1.933 . S
O434 C445 1.226 1_455 S
O435 Zn433 1.932 . S
O435 C445 1.307 1_545 S
O436 Zn429 1.919 . S
O436 C447 1.253 . S
O437 Zn431 1.941 . S
O437 C447 1.283 1_455 S
O438 Zn431 1.965 . S
O438 C446 1.303 . S
O439 Zn432 1.938 . S
O439 C446 1.247 1_545 S
O440 Zn432 1.906 . S
O440 C448 1.304 . S
O441 Zn429 1.924 1_545 S
O441 C449 1.311 . S
O442 Zn433 1.977 . S
O442 C448 1.272 1_655 S
O443 Zn433 1.910 . S
O443 C449 1.231 . S
C444 O428 1.225 . S
C444 O450 1.298 . S
C445 O434 1.226 1_655 S
C445 O435 1.307 1_565 S
C446 O438 1.303 . S
C446 O439 1.247 1_565 S
C447 O436 1.253 . S
C447 O437 1.283 1_655 S
C448 O440 1.304 . S
C448 O442 1.272 1_455 S
C449 O441 1.311 . S
C449 O443 1.231 . S
O450 Zn432 1.953 . S
O450 C444 1.298 . S
O451 Zn452 1.953 . S
O451 C467 1.225 . S
Zn452 O451 1.953 . S
Zn452 O453 1.949 . S
Zn452 O459 1.919 . S
Zn452 O464 1.924 . S
O453 Zn452 1.949 . S
O453 Zn454 1.923 . S
O453 Zn455 1.950 . S
O453 Zn456 1.945 . S
Zn454 O453 1.923 . S
Zn454 O457 1.933 . S
Zn454 O460 1.941 . S
Zn454 O461 1.965 . S
Zn455 O453 1.950 . S
Zn455 O462 1.938 . S
Zn455 O463 1.906 . S
Zn455 O473 1.953 . S
Zn456 O453 1.945 . S
Zn456 O458 1.932 . S
Zn456 O465 1.977 . S
Zn456 O466 1.910 . S
O457 Zn454 1.933 . S
O457 C468 1.226 . S
O458 Zn456 1.932 . S
O458 C468 1.307 . S
O459 Zn452 1.919 . S
O459 C470 1.253 . S
O460 Zn454 1.941 . S
O460 C470 1.283 . S
O461 Zn454 1.965 . S
O461 C469 1.303 . S
O462 Zn455 1.938 . S
O462 C469 1.247 . S
O463 Zn455 1.906 . S
O463 C471 1.304 . S
O464 Zn452 1.924 . S
O464 C472 1.311 . S
O465 Zn456 1.977 . S
O465 C471 1.272 . S
O466 Zn456 1.910 . S
O466 C472 1.231 . S
C467 O451 1.225 . S
C467 O473 1.298 . S
C468 O457 1.226 . S
C468 O458 1.307 . S
C469 O461 1.303 . S
C469 O462 1.247 . S
C470 O459 1.253 . S
C470 O460 1.283 . S
C471 O463 1.304 . S
C471 O465 1.272 . S
C472 O464 1.311 . S
C472 O466 1.231 . S
O473 Zn455 1.953 . S
O473 C467 1.298 . S
O474 Zn475 1.953 . S
O474 C490 1.225 . S
Zn475 O474 1.953 . S
Zn475 O476 1.949 . S
Zn475 O482 1.919 1_545 S
Zn475 O487 1.924 . S
O476 Zn475 1.949 . S
O476 Zn477 1.923 1_544 S
O476 Zn478 1.950 . S
O476 Zn479 1.945 1_554 S
Zn477 O476 1.923 1_566 S
Zn477 O480 1.933 . S
Zn477 O483 1.941 . S
Zn477 O484 1.965 1_556 S
Zn478 O476 1.950 . S
Zn478 O485 1.938 1_545 S
Zn478 O486 1.906 . S
Zn478 O496 1.953 . S
Zn479 O476 1.945 1_556 S
Zn479 O481 1.932 . S
Zn479 O488 1.977 1_556 S
Zn479 O489 1.910 . S
O480 Zn477 1.933 . S
O480 C491 1.226 . S
O481 Zn479 1.932 . S
O481 C491 1.307 1_545 S
O482 Zn475 1.919 1_565 S
O482 C493 1.253 1_554 S
O483 Zn477 1.941 . S
O483 C493 1.283 . S
O484 Zn477 1.965 1_554 S
O484 C492 1.303 . S
O485 Zn478 1.938 1_565 S
O485 C492 1.247 . S
O486 Zn478 1.906 . S
O486 C494 1.304 . S
O487 Zn475 1.924 . S
O487 C495 1.311 1_554 S
O488 Zn479 1.977 1_554 S
O488 C494 1.272 . S
O489 Zn479 1.910 . S
O489 C495 1.231 . S
C490 O474 1.225 . S
C490 O496 1.298 . S
C491 O480 1.226 . S
C491 O481 1.307 1_565 S
C492 O484 1.303 . S
C492 O485 1.247 . S
C493 O482 1.253 1_556 S
C493 O483 1.283 . S
C494 O486 1.304 . S
C494 O488 1.272 . S
C495 O487 1.311 1_556 S
C495 O489 1.231 . S
O496 Zn478 1.953 . S
O496 C490 1.298 . S
O497 Zn498 1.953 . S
O497 C513 1.225 . S
Zn498 O497 1.953 . S
Zn498 O499 1.949 . S
Zn498 O505 1.919 . S
Zn498 O510 1.924 . S
O499 Zn498 1.949 . S
O499 Zn500 1.923 . S
O499 Zn501 1.950 . S
O499 Zn502 1.945 . S
Zn500 O499 1.923 . S
Zn500 O503 1.933 . S
Zn500 O506 1.941 . S
Zn500 O507 1.965 . S
Zn501 O499 1.950 . S
Zn501 O508 1.938 . S
Zn501 O509 1.906 . S
Zn501 O519 1.953 . S
Zn502 O499 1.945 . S
Zn502 O504 1.932 . S
Zn502 O511 1.977 . S
Zn502 O512 1.910 . S
O503 Zn500 1.933 . S
O503 C514 1.226 . S
O504 Zn502 1.932 . S
O504 C514 1.307 . S
O505 Zn498 1.919 . S
O505 C516 1.253 . S
O506 Zn500 1.941 . S
O506 C516 1.283 . S
O507 Zn500 1.965 . S
O507 C515 1.303 . S
O508 Zn501 1.938 . S
O508 C515 1.247 . S
O509 Zn501 1.906 . S
O509 C517 1.304 . S
O510 Zn498 1.924 . S
O510 C518 1.311 . S
O511 Zn502 1.977 . S
O511 C517 1.272 . S
O512 Zn502 1.910 . S
O512 C518 1.231 . S
C513 O497 1.225 . S
C513 O519 1.298 . S
C514 O503 1.226 . S
C514 O504 1.307 . S
C515 O507 1.303 . S
C515 O508 1.247 . S
C516 O505 1.253 . S
C516 O506 1.283 . S
C517 O509 1.304 . S
C517 O511 1.272 . S
C518 O510 1.311 . S
C518 O512 1.231 . S
O519 Zn501 1.953 . S
O519 C513 1.298 . S
O520 Zn521 1.953 . S
O520 C536 1.225 . S
Zn521 O520 1.953 . S
Zn521 O522 1.949 1_556 S
Zn521 O528 1.919 . S
Zn521 O533 1.924 . S
O522 Zn521 1.949 1_554 S
O522 Zn523 1.923 . S
O522 Zn524 1.950 . S
O522 Zn525 1.945 . S
Zn523 O522 1.923 . S
Zn523 O526 1.933 . S
Zn523 O529 1.941 . S
Zn523 O530 1.965 . S
Zn524 O522 1.950 . S
Zn524 O531 1.938 . S
Zn524 O532 1.906 . S
Zn524 O542 1.953 1_554 S
Zn525 O522 1.945 . S
Zn525 O527 1.932 . S
Zn525 O534 1.977 . S
Zn525 O535 1.910 . S
O526 Zn523 1.933 . S
O526 C537 1.226 . S
O527 Zn525 1.932 . S
O527 C537 1.307 . S
O528 Zn521 1.919 . S
O528 C539 1.253 . S
O529 Zn523 1.941 . S
O529 C539 1.283 1_554 S
O530 Zn523 1.965 . S
O530 C538 1.303 . S
O531 Zn524 1.938 . S
O531 C538 1.247 . S
O532 Zn524 1.906 . S
O532 C540 1.304 . S
O533 Zn521 1.924 . S
O533 C541 1.311 . S
O534 Zn525 1.977 . S
O534 C540 1.272 . S
O535 Zn525 1.910 . S
O535 C541 1.231 1_554 S
C536 O520 1.225 . S
C536 O542 1.298 . S
C537 O526 1.226 . S
C537 O527 1.307 . S
C538 O530 1.303 . S
C538 O531 1.247 . S
C539 O528 1.253 . S
C539 O529 1.283 1_556 S
C540 O532 1.304 . S
C540 O534 1.272 . S
C541 O533 1.311 . S
C541 O535 1.231 1_556 S
O542 Zn524 1.953 1_556 S
O542 C536 1.298 . S
O543 Zn544 1.953 . S
O543 C559 1.225 . S
Zn544 O543 1.953 . S
Zn544 O545 1.949 . S
Zn544 O551 1.919 . S
Zn544 O556 1.924 . S
O545 Zn544 1.949 . S
O545 Zn546 1.923 . S
O545 Zn547 1.950 . S
O545 Zn548 1.945 . S
Zn546 O545 1.923 . S
Zn546 O549 1.933 . S
Zn546 O552 1.941 . S
Zn546 O553 1.965 . S
Zn547 O545 1.950 . S
Zn547 O554 1.938 . S
Zn547 O555 1.906 . S
Zn547 O565 1.953 . S
Zn548 O545 1.945 . S
Zn548 O550 1.932 . S
Zn548 O557 1.977 . S
Zn548 O558 1.910 . S
O549 Zn546 1.933 . S
O549 C560 1.226 . S
O550 Zn548 1.932 . S
O550 C560 1.307 . S
O551 Zn544 1.919 . S
O551 C562 1.253 . S
O552 Zn546 1.941 . S
O552 C562 1.283 . S
O553 Zn546 1.965 . S
O553 C561 1.303 . S
O554 Zn547 1.938 . S
O554 C561 1.247 . S
O555 Zn547 1.906 . S
O555 C563 1.304 . S
O556 Zn544 1.924 . S
O556 C564 1.311 . S
O557 Zn548 1.977 . S
O557 C563 1.272 . S
O558 Zn548 1.910 . S
O558 C564 1.231 . S
C559 O543 1.225 . S
C559 O565 1.298 . S
C560 O549 1.226 . S
C560 O550 1.307 . S
C561 O553 1.303 . S
C561 O554 1.247 . S
C562 O551 1.253 . S
C562 O552 1.283 . S
C563 O555 1.304 . S
C563 O557 1.272 . S
C564 O556 1.311 . S
C564 O558 1.231 . S
O565 Zn547 1.953 . S
O565 C559 1.298 . S
O566 Zn567 1.953 . S
O566 C582 1.225 . S
Zn567 O566 1.953 . S
Zn567 O568 1.959 . S
Zn567 O574 1.919 . S
Zn567 O579 1.924 . S
O568 Zn567 1.959 . S
O568 Zn569 1.923 . S
O568 Zn570 1.944 1_455 S
O568 Zn571 1.940 1_455 S
Zn569 O568 1.923 . S
Zn569 O572 1.933 1_455 S
Zn569 O575 1.941 . S
Zn569 O576 1.965 1_455 S
Zn570 O568 1.944 1_655 S
Zn570 O577 1.938 . S
Zn570 O578 1.906 . S
Zn570 O588 1.945 1_655 S
Zn571 O568 1.940 1_655 S
Zn571 O573 1.932 . S
Zn571 O580 1.977 . S
Zn571 O581 1.910 1_655 S
O572 Zn569 1.933 1_655 S
O572 C583 1.226 . S
O573 Zn571 1.932 . S
O573 C583 1.307 . S
O574 Zn567 1.919 . S
O574 C585 1.253 . S
O575 Zn569 1.941 . S
O575 C585 1.283 . S
O576 Zn569 1.965 1_655 S
O576 C584 1.303 . S
O577 Zn570 1.938 . S
O577 C584 1.247 . S
O578 Zn570 1.906 . S
O578 C586 1.304 . S
O579 Zn567 1.924 . S
O579 C587 1.311 . S
O580 Zn571 1.977 . S
O580 C586 1.272 . S
O581 Zn571 1.910 1_455 S
O581 C587 1.231 . S
C582 O566 1.225 . S
C582 O588 1.315 . S
C583 O572 1.226 . S
C583 O573 1.307 . S
C584 O576 1.303 . S
C584 O577 1.247 . S
C585 O574 1.253 . S
C585 O575 1.283 . S
C586 O578 1.304 . S
C586 O580 1.272 . S
C587 O579 1.311 . S
C587 O581 1.231 . S
O588 Zn570 1.945 1_455 S
O588 C582 1.315 . S
O589 Zn590 1.953 . S
O589 C605 1.225 . S
Zn590 O589 1.953 . S
Zn590 O591 1.949 . S
Zn590 O597 1.919 . S
Zn590 O602 1.924 . S
O591 Zn590 1.949 . S
O591 Zn592 1.923 . S
O591 Zn593 1.950 . S
O591 Zn594 1.945 . S
Zn592 O591 1.923 . S
Zn592 O595 1.933 . S
Zn592 O598 1.941 . S
Zn592 O599 1.965 . S
Zn593 O591 1.950 . S
Zn593 O600 1.938 . S
Zn593 O601 1.906 . S
Zn593 O611 1.953 . S
Zn594 O591 1.945 . S
Zn594 O596 1.932 . S
Zn594 O603 1.977 . S
Zn594 O604 1.910 . S
O595 Zn592 1.933 . S
O595 C606 1.226 . S
O596 Zn594 1.932 . S
O596 C606 1.307 . S
O597 Zn590 1.919 . S
O597 C608 1.253 . S
O598 Zn592 1.941 . S
O598 C608 1.283 . S
O599 Zn592 1.965 . S
O599 C607 1.303 . S
O600 Zn593 1.938 . S
O600 C607 1.247 . S
O601 Zn593 1.906 . S
O601 C609 1.304 . S
O602 Zn590 1.924 . S
O602 C610 1.311 . S
O603 Zn594 1.977 . S
O603 C609 1.272 . S
O604 Zn594 1.910 . S
O604 C610 1.231 . S
C605 O589 1.225 . S
C605 O611 1.298 . S
C606 O595 1.226 . S
C606 O596 1.307 . S
C607 O599 1.303 . S
C607 O600 1.247 . S
C608 O597 1.253 . S
C608 O598 1.283 . S
C609 O601 1.304 . S
C609 O603 1.272 . S
C610 O602 1.311 . S
C610 O604 1.231 . S
O611 Zn593 1.953 . S
O611 C605 1.298 . S
O612 Zn613 1.953 . S
O612 C628 1.225 . S
Zn613 O612 1.953 . S
Zn613 O614 1.949 . S
Zn613 O620 1.919 . S
Zn613 O625 1.924 . S
O614 Zn613 1.949 . S
O614 Zn615 1.923 . S
O614 Zn616 1.950 . S
O614 Zn617 1.945 . S
Zn615 O614 1.923 . S
Zn615 O618 1.933 . S
Zn615 O621 1.941 . S
Zn615 O622 1.965 . S
Zn616 O614 1.950 . S
Zn616 O623 1.938 . S
Zn616 O624 1.906 . S
Zn616 O634 1.953 . S
Zn617 O614 1.945 . S
Zn617 O619 1.932 . S
Zn617 O626 1.977 . S
Zn617 O627 1.910 . S
O618 Zn615 1.933 . S
O618 C629 1.226 . S
O619 Zn617 1.932 . S
O619 C629 1.307 . S
O620 Zn613 1.919 . S
O620 C631 1.253 . S
O621 Zn615 1.941 . S
O621 C631 1.283 . S
O622 Zn615 1.965 . S
O622 C630 1.303 . S
O623 Zn616 1.938 . S
O623 C630 1.247 . S
O624 Zn616 1.906 . S
O624 C632 1.304 . S
O625 Zn613 1.924 . S
O625 C633 1.311 . S
O626 Zn617 1.977 . S
O626 C632 1.272 . S
O627 Zn617 1.910 . S
O627 C633 1.231 . S
C628 O612 1.225 . S
C628 O634 1.298 . S
C629 O618 1.226 . S
C629 O619 1.307 . S
C630 O622 1.303 . S
C630 O623 1.247 . S
C631 O620 1.253 . S
C631 O621 1.283 . S
C632 O624 1.304 . S
C632 O626 1.272 . S
C633 O625 1.311 . S
C633 O627 1.231 . S
O634 Zn616 1.953 . S
O634 C628 1.298 . S
O635 Zn636 1.953 . S
O635 C651 1.225 . S
Zn636 O635 1.953 . S
Zn636 O637 1.949 . S
Zn636 O643 1.919 . S
Zn636 O648 1.924 . S
O637 Zn636 1.949 . S
O637 Zn638 1.923 . S
O637 Zn639 1.950 . S
O637 Zn640 1.945 . S
Zn638 O637 1.923 . S
Zn638 O641 1.933 . S
Zn638 O644 1.941 . S
Zn638 O645 1.965 . S
Zn639 O637 1.950 . S
Zn639 O646 1.938 . S
Zn639 O647 1.906 . S
Zn639 O657 1.953 . S
Zn640 O637 1.945 . S
Zn640 O642 1.932 . S
Zn640 O649 1.977 . S
Zn640 O650 1.910 . S
O641 Zn638 1.933 . S
O641 C652 1.226 . S
O642 Zn640 1.932 . S
O642 C652 1.307 . S
O643 Zn636 1.919 . S
O643 C654 1.253 . S
O644 Zn638 1.941 . S
O644 C654 1.283 . S
O645 Zn638 1.965 . S
O645 C653 1.303 . S
O646 Zn639 1.938 . S
O646 C653 1.247 . S
O647 Zn639 1.906 . S
O647 C655 1.304 . S
O648 Zn636 1.924 . S
O648 C656 1.311 . S
O649 Zn640 1.977 . S
O649 C655 1.272 . S
O650 Zn640 1.910 . S
O650 C656 1.231 . S
C651 O635 1.225 . S
C651 O657 1.298 . S
C652 O641 1.226 . S
C652 O642 1.307 . S
C653 O645 1.303 . S
C653 O646 1.247 . S
C654 O643 1.253 . S
C654 O644 1.283 . S
C655 O647 1.304 . S
C655 O649 1.272 . S
C656 O648 1.311 . S
C656 O650 1.231 . S
O657 Zn639 1.953 . S
O657 C651 1.298 . S
O658 Zn659 1.953 . S
O658 C674 1.225 . S
Zn659 O658 1.953 . S
Zn659 O660 1.949 . S
Zn659 O666 1.919 . S
Zn659 O671 1.924 . S
O660 Zn659 1.949 . S
O660 Zn661 1.923 . S
O660 Zn662 1.950 . S
O660 Zn663 1.945 . S
Zn661 O660 1.923 . S
Zn661 O664 1.933 . S
Zn661 O667 1.941 . S
Zn661 O668 1.965 . S
Zn662 O660 1.950 . S
Zn662 O669 1.938 . S
Zn662 O670 1.906 . S
Zn662 O680 1.953 . S
Zn663 O660 1.945 . S
Zn663 O665 1.932 . S
Zn663 O672 1.977 . S
Zn663 O673 1.910 . S
O664 Zn661 1.933 . S
O664 C675 1.226 . S
O665 Zn663 1.932 . S
O665 C675 1.307 . S
O666 Zn659 1.919 . S
O666 C677 1.253 . S
O667 Zn661 1.941 . S
O667 C677 1.283 . S
O668 Zn661 1.965 . S
O668 C676 1.303 . S
O669 Zn662 1.938 . S
O669 C676 1.247 . S
O670 Zn662 1.906 . S
O670 C678 1.304 . S
O671 Zn659 1.924 . S
O671 C679 1.311 . S
O672 Zn663 1.977 . S
O672 C678 1.272 . S
O673 Zn663 1.910 . S
O673 C679 1.231 . S
C674 O658 1.225 . S
C674 O680 1.298 . S
C675 O664 1.226 . S
C675 O665 1.307 . S
C676 O668 1.303 . S
C676 O669 1.247 . S
C677 O666 1.253 . S
C677 O667 1.283 . S
C678 O670 1.304 . S
C678 O672 1.272 . S
C679 O671 1.311 . S
C679 O673 1.231 . S
O680 Zn662 1.953 . S
O680 C674 1.298 . S
O681 Zn682 1.934 1_454 S
O681 C697 1.225 . S
Zn682 O681 1.934 1_656 S
Zn682 O683 1.935 1_656 S
Zn682 O689 1.924 . S
Zn682 O694 1.955 1_655 S
O683 Zn682 1.935 1_454 S
O683 Zn684 1.923 1_455 S
O683 Zn685 1.950 . S
O683 Zn686 1.945 1_554 S
Zn684 O683 1.923 1_655 S
Zn684 O687 1.933 . S
Zn684 O690 1.941 . S
Zn684 O691 1.965 . S
Zn685 O683 1.950 . S
Zn685 O692 1.938 . S
Zn685 O693 1.906 . S
Zn685 O703 1.953 . S
Zn686 O683 1.945 1_556 S
Zn686 O688 1.932 . S
Zn686 O695 1.977 1_556 S
Zn686 O696 1.910 . S
O687 Zn684 1.933 . S
O687 C698 1.226 1_554 S
O688 Zn686 1.932 . S
O688 C698 1.307 1_455 S
O689 Zn682 1.924 . S
O689 C700 1.247 1_556 S
O690 Zn684 1.941 . S
O690 C700 1.300 . S
O691 Zn684 1.965 . S
O691 C699 1.303 . S
O692 Zn685 1.938 . S
O692 C699 1.247 1_455 S
O693 Zn685 1.906 . S
O693 C701 1.304 . S
O694 Zn682 1.955 1_455 S
O694 C702 1.311 . S
O695 Zn686 1.977 1_554 S
O695 C701 1.272 . S
O696 Zn686 1.910 . S
O696 C702 1.231 . S
C697 O681 1.225 . S
C697 O703 1.298 . S
C698 O687 1.226 1_556 S
C698 O688 1.307 1_655 S
C699 O691 1.303 . S
C699 O692 1.247 1_655 S
C700 O689 1.247 1_554 S
C700 O690 1.300 . S
C701 O693 1.304 . S
C701 O695 1.272 . S
C702 O694 1.311 . S
C702 O696 1.231 . S
O703 Zn685 1.953 . S
O703 C697 1.298 . S
C704 C705 1.384 1_455 S
C704 H708 0.950 . S
C704 C713 1.390 . S
C705 C704 1.384 1_655 S
C705 C707 1.393 . S
H706 C713 0.950 . S
C707 C705 1.393 . S
C707 C709 1.390 . S
C707 H711 0.950 . S
H708 C704 0.950 . S
C709 C707 1.390 . S
C709 C710 1.387 . S
C709 H712 0.950 . S
C710 C709 1.387 . S
C710 C713 1.387 1_655 S
H711 C707 0.950 . S
H712 C709 0.950 . S
C713 C704 1.390 . S
C713 H706 0.950 . S
C713 C710 1.387 1_455 S
C714 C715 1.387 . S
C714 H718 0.950 . S
C714 C723 1.390 . S
C715 C714 1.387 . S
C715 C717 1.387 . S
H716 C723 0.950 . S
C717 C715 1.387 . S
C717 C719 1.390 . S
C717 H721 0.950 . S
H718 C714 0.950 . S
C719 C717 1.390 . S
C719 C720 1.387 . S
C719 H722 0.950 . S
C720 C719 1.387 . S
C720 C723 1.387 . S
H721 C717 0.950 . S
H722 C719 0.950 . S
C723 C714 1.390 . S
C723 H716 0.950 . S
C723 C720 1.387 . S
C724 C725 1.387 . S
C724 H728 0.950 . S
C724 C733 1.390 . S
C725 C724 1.387 . S
C725 C727 1.387 . S
H726 C733 0.950 . S
C727 C725 1.387 . S
C727 C729 1.390 . S
C727 H731 0.950 . S
H728 C724 0.950 . S
C729 C727 1.390 . S
C729 C730 1.387 . S
C729 H732 0.950 . S
C730 C729 1.387 . S
C730 C733 1.387 . S
H731 C727 0.950 . S
H732 C729 0.950 . S
C733 C724 1.390 . S
C733 H726 0.950 . S
C733 C730 1.387 . S
C734 C735 1.387 . S
C734 H738 0.950 . S
C734 C743 1.390 . S
C735 C734 1.387 . S
C735 C737 1.387 . S
H736 C743 0.950 . S
C737 C735 1.387 . S
C737 C739 1.390 . S
C737 H741 0.950 . S
H738 C734 0.950 . S
C739 C737 1.390 . S
C739 C740 1.387 . S
C739 H742 0.950 . S
C740 C739 1.387 . S
C740 C743 1.387 . S
H741 C737 0.950 . S
H742 C739 0.950 . S
C743 C734 1.390 . S
C743 H736 0.950 . S
C743 C740 1.387 . S
C744 C745 1.409 . S
C744 H748 0.950 . S
C744 C753 1.390 . S
C745 C744 1.409 . S
C745 C747 1.358 1_455 S
H746 C753 0.950 . S
C747 C745 1.358 1_655 S
C747 C749 1.390 . S
C747 H751 0.950 . S
H748 C744 0.950 . S
C749 C747 1.390 . S
C749 C750 1.387 . S
C749 H752 0.950 . S
C750 C749 1.387 . S
C750 C753 1.387 1_655 S
H751 C747 0.950 . S
H752 C749 0.950 . S
C753 C744 1.390 . S
C753 H746 0.950 . S
C753 C750 1.387 1_455 S
C754 C755 1.387 . S
C754 H758 0.950 . S
C754 C763 1.390 . S
C755 C754 1.387 . S
C755 C757 1.387 . S
H756 C763 0.950 . S
C757 C755 1.387 . S
C757 C759 1.390 . S
C757 H761 0.950 . S
H758 C754 0.950 . S
C759 C757 1.390 . S
C759 C760 1.387 . S
C759 H762 0.950 . S
C760 C759 1.387 . S
C760 C763 1.387 . S
H761 C757 0.950 . S
H762 C759 0.950 . S
C763 C754 1.390 . S
C763 H756 0.950 . S
C763 C760 1.387 . S
C764 C765 1.387 . S
C764 H768 0.950 . S
C764 C773 1.390 . S
C765 C764 1.387 . S
C765 C767 1.387 . S
H766 C773 0.950 . S
C767 C765 1.387 . S
C767 C769 1.390 . S
C767 H771 0.950 . S
H768 C764 0.950 . S
C769 C767 1.390 . S
C769 C770 1.387 . S
C769 H772 0.950 . S
C770 C769 1.387 . S
C770 C773 1.387 . S
H771 C767 0.950 . S
H772 C769 0.950 . S
C773 C764 1.390 . S
C773 H766 0.950 . S
C773 C770 1.387 . S
C774 C775 1.387 . S
C774 H778 0.950 . S
C774 C783 1.390 . S
C775 C774 1.387 . S
C775 C777 1.387 . S
H776 C783 0.950 . S
C777 C775 1.387 . S
C777 C779 1.390 . S
C777 H781 0.950 . S
H778 C774 0.950 . S
C779 C777 1.390 . S
C779 C780 1.387 . S
C779 H782 0.950 . S
C780 C779 1.387 . S
C780 C783 1.387 . S
H781 C777 0.950 . S
H782 C779 0.950 . S
C783 C774 1.390 . S
C783 H776 0.950 . S
C783 C780 1.387 . S
C784 C785 1.387 1_565 S
C784 H788 0.950 . S
C784 C793 1.390 . S
C785 C784 1.387 1_545 S
C785 C787 1.387 . S
H786 C793 0.950 . S
C787 C785 1.387 . S
C787 C789 1.390 . S
C787 H791 0.950 . S
H788 C784 0.950 . S
C789 C787 1.390 . S
C789 C790 1.387 . S
C789 H792 0.950 . S
C790 C789 1.387 . S
C790 C793 1.387 1_545 S
H791 C787 0.950 . S
H792 C789 0.950 . S
C793 C784 1.390 . S
C793 H786 0.950 . S
C793 C790 1.387 1_565 S
C794 C795 1.387 . S
C794 H798 0.950 . S
C794 C803 1.390 . S
C795 C794 1.387 . S
C795 C797 1.387 . S
H796 C803 0.950 . S
C797 C795 1.387 . S
C797 C799 1.390 . S
C797 H801 0.950 . S
H798 C794 0.950 . S
C799 C797 1.390 . S
C799 C800 1.387 . S
C799 H802 0.950 . S
C800 C799 1.387 . S
C800 C803 1.387 . S
H801 C797 0.950 . S
H802 C799 0.950 . S
C803 C794 1.390 . S
C803 H796 0.950 . S
C803 C800 1.387 . S
C804 C805 1.387 1_565 S
C804 H808 0.950 . S
C804 C813 1.390 . S
C805 C804 1.387 1_545 S
C805 C807 1.387 . S
H806 C813 0.950 . S
C807 C805 1.387 . S
C807 C809 1.390 . S
C807 H811 0.950 . S
H808 C804 0.950 . S
C809 C807 1.390 . S
C809 C810 1.387 . S
C809 H812 0.950 . S
C810 C809 1.387 . S
C810 C813 1.387 1_545 S
H811 C807 0.950 . S
H812 C809 0.950 . S
C813 C804 1.390 . S
C813 H806 0.950 . S
C813 C810 1.387 1_565 S
C814 C815 1.387 . S
C814 H818 0.950 . S
C814 C823 1.390 . S
C815 C814 1.387 . S
C815 C817 1.387 . S
H816 C823 0.950 . S
C817 C815 1.387 . S
C817 C819 1.390 . S
C817 H821 0.950 . S
H818 C814 0.950 . S
C819 C817 1.390 . S
C819 C820 1.387 . S
C819 H822 0.950 . S
C820 C819 1.387 . S
C820 C823 1.387 . S
H821 C817 0.950 . S
H822 C819 0.950 . S
C823 C814 1.390 . S
C823 H816 0.950 . S
C823 C820 1.387 . S
C824 C825 1.387 . S
C824 H828 0.950 1_545 S
C824 C833 1.390 . S
C825 C824 1.387 . S
C825 C827 1.387 . S
H826 C833 0.950 1_565 S
C827 C825 1.387 . S
C827 C829 1.390 . S
C827 H831 0.950 . S
H828 C824 0.950 1_565 S
C829 C827 1.390 . S
C829 C830 1.387 . S
C829 H832 0.950 . S
C830 C829 1.387 . S
C830 C833 1.387 . S
H831 C827 0.950 . S
H832 C829 0.950 . S
C833 C824 1.390 . S
C833 H826 0.950 1_545 S
C833 C830 1.387 . S
C834 C835 1.387 . S
C834 H838 0.950 . S
C834 C843 1.390 . S
C835 C834 1.387 . S
C835 C837 1.387 . S
H836 C843 0.950 . S
C837 C835 1.387 . S
C837 C839 1.390 . S
C837 H841 0.950 . S
H838 C834 0.950 . S
C839 C837 1.390 . S
C839 C840 1.387 . S
C839 H842 0.950 . S
C840 C839 1.387 . S
C840 C843 1.387 . S
H841 C837 0.950 . S
H842 C839 0.950 . S
C843 C834 1.390 . S
C843 H836 0.950 . S
C843 C840 1.387 . S
C844 C845 1.387 . S
C844 H848 0.950 . S
C844 C853 1.390 . S
C845 C844 1.387 . S
C845 C847 1.387 1_565 S
H846 C853 0.950 . S
C847 C845 1.387 1_545 S
C847 C849 1.390 . S
C847 H851 0.950 . S
H848 C844 0.950 . S
C849 C847 1.390 . S
C849 C850 1.387 1_545 S
C849 H852 0.950 . S
C850 C849 1.387 1_565 S
C850 C853 1.387 . S
H851 C847 0.950 . S
H852 C849 0.950 . S
C853 C844 1.390 . S
C853 H846 0.950 . S
C853 C850 1.387 . S
C854 C855 1.387 . S
C854 H858 0.950 . S
C854 C863 1.390 . S
C855 C854 1.387 . S
C855 C857 1.387 . S
H856 C863 0.950 . S
C857 C855 1.387 . S
C857 C859 1.390 . S
C857 H861 0.950 . S
H858 C854 0.950 . S
C859 C857 1.390 . S
C859 C860 1.387 . S
C859 H862 0.950 . S
C860 C859 1.387 . S
C860 C863 1.387 . S
H861 C857 0.950 . S
H862 C859 0.950 . S
C863 C854 1.390 . S
C863 H856 0.950 . S
C863 C860 1.387 . S
C864 C865 1.387 . S
C864 H868 0.950 . S
C864 C873 1.390 . S
C865 C864 1.387 . S
C865 C867 1.387 1_554 S
H866 C873 0.950 . S
C867 C865 1.387 1_556 S
C867 C869 1.390 . S
C867 H871 0.950 . S
H868 C864 0.950 . S
C869 C867 1.390 . S
C869 C870 1.387 . S
C869 H872 0.950 . S
C870 C869 1.387 . S
C870 C873 1.387 1_556 S
H871 C867 0.950 . S
H872 C869 0.950 . S
C873 C864 1.390 . S
C873 H866 0.950 . S
C873 C870 1.387 1_554 S
C874 C875 1.387 1_556 S
C874 H878 0.950 . S
C874 C883 1.390 1_556 S
C875 C874 1.387 1_554 S
C875 C877 1.387 . S
H876 C883 0.950 1_556 S
C877 C875 1.387 . S
C877 C879 1.390 . S
C877 H881 0.950 . S
H878 C874 0.950 . S
C879 C877 1.390 . S
C879 C880 1.387 . S
C879 H882 0.950 . S
C880 C879 1.387 . S
C880 C883 1.387 . S
H881 C877 0.950 . S
H882 C879 0.950 . S
C883 C874 1.390 1_554 S
C883 H876 0.950 1_554 S
C883 C880 1.387 . S
C884 C885 1.387 . S
C884 H888 0.950 . S
C884 C893 1.390 . S
C885 C884 1.387 . S
C885 C887 1.387 . S
H886 C893 0.950 . S
C887 C885 1.387 . S
C887 C889 1.390 . S
C887 H891 0.950 . S
H888 C884 0.950 . S
C889 C887 1.390 . S
C889 C890 1.387 . S
C889 H892 0.950 . S
C890 C889 1.387 . S
C890 C893 1.387 . S
H891 C887 0.950 . S
H892 C889 0.950 . S
C893 C884 1.390 . S
C893 H886 0.950 . S
C893 C890 1.387 . S
C894 C895 1.387 . S
C894 H898 0.950 . S
C894 C903 1.390 . S
C895 C894 1.387 . S
C895 C897 1.387 . S
H896 C903 0.950 . S
C897 C895 1.387 . S
C897 C899 1.390 . S
C897 H901 0.950 . S
H898 C894 0.950 . S
C899 C897 1.390 . S
C899 C900 1.387 . S
C899 H902 0.950 . S
C900 C899 1.387 . S
C900 C903 1.387 . S
H901 C897 0.950 . S
H902 C899 0.950 . S
C903 C894 1.390 . S
C903 H896 0.950 . S
C903 C900 1.387 . S
C904 C905 1.387 . S
C904 H908 0.950 . S
C904 C913 1.390 . S
C905 C904 1.387 . S
C905 C907 1.387 . S
H906 C913 0.950 . S
C907 C905 1.387 . S
C907 C909 1.390 . S
C907 H911 0.950 . S
H908 C904 0.950 . S
C909 C907 1.390 . S
C909 C910 1.387 . S
C909 H912 0.950 . S
C910 C909 1.387 . S
C910 C913 1.387 . S
H911 C907 0.950 . S
H912 C909 0.950 . S
C913 C904 1.390 . S
C913 H906 0.950 . S
C913 C910 1.387 . S
C914 C915 1.387 . S
C914 H918 0.950 . S
C914 C923 1.390 . S
C915 C914 1.387 . S
C915 C917 1.387 . S
H916 C923 0.950 . S
C917 C915 1.387 . S
C917 C919 1.390 . S
C917 H921 0.950 . S
H918 C914 0.950 . S
C919 C917 1.390 . S
C919 C920 1.387 . S
C919 H922 0.950 . S
C920 C919 1.387 . S
C920 C923 1.387 . S
H921 C917 0.950 . S
H922 C919 0.950 . S
C923 C914 1.390 . S
C923 H916 0.950 . S
C923 C920 1.387 . S
C924 C925 1.387 . S
C924 H928 0.950 . S
C924 C933 1.390 . S
C925 C924 1.387 . S
C925 C927 1.387 . S
H926 C933 0.950 . S
C927 C925 1.387 . S
C927 C929 1.390 . S
C927 H931 0.950 . S
H928 C924 0.950 . S
C929 C927 1.390 . S
C929 C930 1.387 . S
C929 H932 0.950 . S
C930 C929 1.387 . S
C930 C933 1.387 . S
H931 C927 0.950 . S
H932 C929 0.950 . S
C933 C924 1.390 . S
C933 H926 0.950 . S
C933 C930 1.387 . S
C934 C935 1.387 . S
C934 H938 0.950 . S
C934 C943 1.390 . S
C935 C934 1.387 . S
C935 C937 1.387 . S
H936 C943 0.950 . S
C937 C935 1.387 . S
C937 C939 1.390 . S
C937 H941 0.950 . S
H938 C934 0.950 . S
C939 C937 1.390 . S
C939 C940 1.387 . S
C939 H942 0.950 . S
C940 C939 1.387 . S
C940 C943 1.387 . S
H941 C937 0.950 . S
H942 C939 0.950 . S
C943 C934 1.390 . S
C943 H936 0.950 . S
C943 C940 1.387 . S
C944 C945 1.387 . S
C944 H948 0.950 . S
C944 C953 1.390 . S
C945 C944 1.387 . S
C945 C947 1.387 . S
H946 C953 0.950 . S
C947 C945 1.387 . S
C947 C949 1.390 . S
C947 H951 0.950 . S
H948 C944 0.950 . S
C949 C947 1.390 . S
C949 C950 1.387 . S
C949 H952 0.950 1_556 S
C950 C949 1.387 . S
C950 C953 1.387 . S
H951 C947 0.950 . S
H952 C949 0.950 1_554 S
C953 C944 1.390 . S
C953 H946 0.950 . S
C953 C950 1.387 . S
C954 C955 1.387 . S
C954 H958 0.950 . S
C954 C963 1.390 . S
C955 C954 1.387 . S
C955 C957 1.387 . S
H956 C963 0.950 . S
C957 C955 1.387 . S
C957 C959 1.390 . S
C957 H961 0.950 . S
H958 C954 0.950 . S
C959 C957 1.390 . S
C959 C960 1.387 . S
C959 H962 0.950 . S
C960 C959 1.387 . S
C960 C963 1.387 . S
H961 C957 0.950 . S
H962 C959 0.950 . S
C963 C954 1.390 . S
C963 H956 0.950 . S
C963 C960 1.387 . S
C964 C965 1.387 . S
C964 H968 0.950 . S
C964 C973 1.390 . S
C965 C964 1.387 . S
C965 C967 1.387 . S
H966 C973 0.950 . S
C967 C965 1.387 . S
C967 C969 1.390 . S
C967 H971 0.950 . S
H968 C964 0.950 . S
C969 C967 1.390 . S
C969 C970 1.387 . S
C969 H972 0.950 . S
C970 C969 1.387 . S
C970 C973 1.387 . S
H971 C967 0.950 . S
H972 C969 0.950 . S
C973 C964 1.390 . S
C973 H966 0.950 . S
C973 C970 1.387 . S
C974 C975 1.387 . S
C974 H978 0.950 . S
C974 C983 1.390 . S
C975 C974 1.387 . S
C975 C977 1.387 . S
H976 C983 0.950 . S
C977 C975 1.387 . S
C977 C979 1.390 . S
C977 H981 0.950 . S
H978 C974 0.950 . S
C979 C977 1.390 . S
C979 C980 1.387 . S
C979 H982 0.950 . S
C980 C979 1.387 . S
C980 C983 1.387 . S
H981 C977 0.950 . S
H982 C979 0.950 . S
C983 C974 1.390 . S
C983 H976 0.950 . S
C983 C980 1.387 . S
C984 C985 1.387 . S
C984 H988 0.950 . S
C984 C993 1.390 . S
C985 C984 1.387 . S
C985 C987 1.385 1_455 S
H986 C993 0.950 . S
C987 C985 1.385 1_655 S
C987 C989 1.386 1_655 S
C987 H991 0.956 . S
H988 C984 0.950 . S
C989 C987 1.386 1_455 S
C989 C990 1.387 . S
C989 H992 0.950 . S
C990 C989 1.387 . S
C990 C993 1.387 . S
H991 C987 0.956 . S
H992 C989 0.950 . S
C993 C984 1.390 . S
C993 H986 0.950 . S
C993 C990 1.387 . S
C994 C995 1.387 . S
C994 H998 0.950 . S
C994 C1003 1.390 . S
C995 C994 1.387 . S
C995 C997 1.387 . S
H996 C1003 0.950 . S
C997 C995 1.387 . S
C997 C999 1.390 . S
C997 H1001 0.950 . S
H998 C994 0.950 . S
C999 C997 1.390 . S
C999 C1000 1.387 . S
C999 H1002 0.950 . S
C1000 C999 1.387 . S
C1000 C1003 1.387 . S
H1001 C997 0.950 . S
H1002 C999 0.950 . S
C1003 C994 1.390 . S
C1003 H996 0.950 . S
C1003 C1000 1.387 . S
C1004 C1005 1.387 . S
C1004 H1008 0.950 . S
C1004 C1013 1.390 . S
C1005 C1004 1.387 . S
C1005 C1007 1.387 . S
H1006 C1013 0.950 . S
C1007 C1005 1.387 . S
C1007 C1009 1.390 . S
C1007 H1011 0.950 . S
H1008 C1004 0.950 . S
C1009 C1007 1.390 . S
C1009 C1010 1.387 . S
C1009 H1012 0.950 . S
C1010 C1009 1.387 . S
C1010 C1013 1.387 . S
H1011 C1007 0.950 . S
H1012 C1009 0.950 . S
C1013 C1004 1.390 . S
C1013 H1006 0.950 . S
C1013 C1010 1.387 . S
C1014 C1015 1.387 . S
C1014 H1018 0.950 . S
C1014 C1023 1.390 . S
C1015 C1014 1.387 . S
C1015 C1017 1.387 . S
H1016 C1023 0.950 . S
C1017 C1015 1.387 . S
C1017 C1019 1.390 . S
C1017 H1021 0.950 . S
H1018 C1014 0.950 . S
C1019 C1017 1.390 . S
C1019 C1020 1.387 . S
C1019 H1022 0.950 . S
C1020 C1019 1.387 . S
C1020 C1023 1.387 . S
H1021 C1017 0.950 . S
H1022 C1019 0.950 . S
C1023 C1014 1.390 . S
C1023 H1016 0.950 . S
C1023 C1020 1.387 . S
C1024 C1025 1.387 . S
C1024 H1028 0.950 . S
C1024 C1033 1.390 . S
C1025 C1024 1.387 . S
C1025 C1027 1.387 . S
H1026 C1033 0.950 . S
C1027 C1025 1.387 . S
C1027 C1029 1.390 . S
C1027 H1031 0.950 1_545 S
H1028 C1024 0.950 . S
C1029 C1027 1.390 . S
C1029 C1030 1.387 . S
C1029 H1032 0.950 . S
C1030 C1029 1.387 . S
C1030 C1033 1.387 . S
H1031 C1027 0.950 1_565 S
H1032 C1029 0.950 . S
C1033 C1024 1.390 . S
C1033 H1026 0.950 . S
C1033 C1030 1.387 . S
C1034 C1035 1.387 . S
C1034 H1038 0.950 . S
C1034 C1043 1.390 . S
C1035 C1034 1.387 . S
C1035 C1037 1.387 . S
H1036 C1043 0.950 . S
C1037 C1035 1.387 . S
C1037 C1039 1.390 . S
C1037 H1041 0.950 . S
H1038 C1034 0.950 . S
C1039 C1037 1.390 . S
C1039 C1040 1.387 . S
C1039 H1042 0.950 . S
C1040 C1039 1.387 . S
C1040 C1043 1.387 . S
H1041 C1037 0.950 . S
H1042 C1039 0.950 . S
C1043 C1034 1.390 . S
C1043 H1036 0.950 . S
C1043 C1040 1.387 . S
C1044 C1045 1.388 . S
C1044 H1048 0.950 . S
C1044 C1053 1.390 . S
C1045 C1044 1.388 . S
C1045 C1047 1.387 1_545 S
H1046 C1053 0.950 . S
C1047 C1045 1.387 1_565 S
C1047 C1049 1.390 . S
C1047 H1051 0.950 . S
H1048 C1044 0.950 . S
C1049 C1047 1.390 . S
C1049 C1050 1.387 . S
C1049 H1052 0.950 . S
C1050 C1049 1.387 . S
C1050 C1053 1.387 1_565 S
H1051 C1047 0.950 . S
H1052 C1049 0.950 . S
C1053 C1044 1.390 . S
C1053 H1046 0.950 . S
C1053 C1050 1.387 1_545 S
C1054 C1055 1.387 . S
C1054 H1058 0.950 . S
C1054 C1063 1.390 . S
C1055 C1054 1.387 . S
C1055 C1057 1.387 . S
H1056 C1063 0.950 . S
C1057 C1055 1.387 . S
C1057 C1059 1.390 . S
C1057 H1061 0.950 . S
H1058 C1054 0.950 . S
C1059 C1057 1.390 . S
C1059 C1060 1.387 . S
C1059 H1062 0.950 . S
C1060 C1059 1.387 . S
C1060 C1063 1.387 . S
H1061 C1057 0.950 . S
H1062 C1059 0.950 . S
C1063 C1054 1.390 . S
C1063 H1056 0.950 . S
C1063 C1060 1.387 . S
C1064 C1065 1.387 1_565 S
C1064 H1068 0.950 . S
C1064 C1073 1.390 . S
C1065 C1064 1.387 1_545 S
C1065 C1067 1.387 . S
H1066 C1073 0.950 . S
C1067 C1065 1.387 . S
C1067 C1069 1.390 . S
C1067 H1071 0.950 . S
H1068 C1064 0.950 . S
C1069 C1067 1.390 . S
C1069 C1070 1.387 1_545 S
C1069 H1072 0.950 . S
C1070 C1069 1.387 1_565 S
C1070 C1073 1.387 . S
H1071 C1067 0.950 . S
H1072 C1069 0.950 . S
C1073 C1064 1.390 . S
C1073 H1066 0.950 . S
C1073 C1070 1.387 . S
C1074 C1075 1.387 . S
C1074 H1078 0.950 . S
C1074 C1083 1.390 . S
C1075 C1074 1.387 . S
C1075 C1077 1.387 . S
H1076 C1083 0.950 . S
C1077 C1075 1.387 . S
C1077 C1079 1.390 . S
C1077 H1081 0.950 . S
H1078 C1074 0.950 . S
C1079 C1077 1.390 . S
C1079 C1080 1.387 . S
C1079 H1082 0.950 . S
C1080 C1079 1.387 . S
C1080 C1083 1.387 . S
H1081 C1077 0.950 . S
H1082 C1079 0.950 . S
C1083 C1074 1.390 . S
C1083 H1076 0.950 . S
C1083 C1080 1.387 . S
C1084 C1085 1.387 1_565 S
C1084 H1088 0.950 . S
C1084 C1093 1.390 . S
C1085 C1084 1.387 1_545 S
C1085 C1087 1.387 . S
H1086 C1093 0.950 . S
C1087 C1085 1.387 . S
C1087 C1089 1.390 . S
C1087 H1091 0.950 . S
H1088 C1084 0.950 . S
C1089 C1087 1.390 . S
C1089 C1090 1.387 . S
C1089 H1092 0.950 . S
C1090 C1089 1.387 . S
C1090 C1093 1.387 1_545 S
H1091 C1087 0.950 . S
H1092 C1089 0.950 . S
C1093 C1084 1.390 . S
C1093 H1086 0.950 . S
C1093 C1090 1.387 1_565 S
C1094 C1095 1.387 . S
C1094 H1098 0.950 . S
C1094 C1103 1.390 . S
C1095 C1094 1.387 . S
C1095 C1097 1.387 . S
H1096 C1103 0.950 . S
C1097 C1095 1.387 . S
C1097 C1099 1.390 . S
C1097 H1101 0.950 . S
H1098 C1094 0.950 . S
C1099 C1097 1.390 . S
C1099 C1100 1.387 . S
C1099 H1102 0.950 . S
C1100 C1099 1.387 . S
C1100 C1103 1.387 . S
H1101 C1097 0.950 . S
H1102 C1099 0.950 . S
C1103 C1094 1.390 . S
C1103 H1096 0.950 . S
C1103 C1100 1.387 . S
C1104 C1105 1.387 . S
C1104 H1108 0.950 . S
C1104 C1113 1.390 . S
C1105 C1104 1.387 . S
C1105 C1107 1.387 1_554 S
H1106 C1113 0.950 . S
C1107 C1105 1.387 1_556 S
C1107 C1109 1.380 1_556 S
C1107 H1111 0.950 . S
H1108 C1104 0.950 . S
C1109 C1107 1.380 1_554 S
C1109 C1110 1.415 . S
C1109 H1112 0.933 1_554 S
C1110 C1109 1.415 . S
C1110 C1113 1.387 . S
H1111 C1107 0.950 . S
H1112 C1109 0.933 1_556 S
C1113 C1104 1.390 . S
C1113 H1106 0.950 . S
C1113 C1110 1.387 . S
C1114 C1115 1.388 1_556 S
C1114 H1118 0.950 . S
C1114 C1123 1.390 . S
C1115 C1114 1.388 1_554 S
C1115 C1117 1.387 . S
H1116 C1123 0.950 . S
C1117 C1115 1.387 . S
C1117 C1119 1.390 . S
C1117 H1121 0.950 . S
H1118 C1114 0.950 . S
C1119 C1117 1.390 . S
C1119 C1120 1.387 1_554 S
C1119 H1122 0.950 . S
C1120 C1119 1.387 1_556 S
C1120 C1123 1.387 . S
H1121 C1117 0.950 . S
H1122 C1119 0.950 . S
C1123 C1114 1.390 . S
C1123 H1116 0.950 . S
C1123 C1120 1.387 . S
C1124 C1125 1.387 . S
C1124 H1128 0.950 . S
C1124 C1133 1.390 . S
C1125 C1124 1.387 . S
C1125 C1127 1.387 . S
H1126 C1133 0.950 . S
C1127 C1125 1.387 . S
C1127 C1129 1.390 . S
C1127 H1131 0.950 . S
H1128 C1124 0.950 . S
C1129 C1127 1.390 . S
C1129 C1130 1.387 . S
C1129 H1132 0.950 . S
C1130 C1129 1.387 . S
C1130 C1133 1.387 . S
H1131 C1127 0.950 . S
H1132 C1129 0.950 . S
C1133 C1124 1.390 . S
C1133 H1126 0.950 . S
C1133 C1130 1.387 . S
C1134 C1135 1.387 . S
C1134 H1138 0.950 . S
C1134 C1143 1.390 . S
C1135 C1134 1.387 . S
C1135 C1137 1.387 . S
H1136 C1143 0.950 . S
C1137 C1135 1.387 . S
C1137 C1139 1.390 . S
C1137 H1141 0.950 . S
H1138 C1134 0.950 . S
C1139 C1137 1.390 . S
C1139 C1140 1.387 . S
C1139 H1142 0.950 . S
C1140 C1139 1.387 . S
C1140 C1143 1.387 . S
H1141 C1137 0.950 . S
H1142 C1139 0.950 . S
C1143 C1134 1.390 . S
C1143 H1136 0.950 . S
C1143 C1140 1.387 . S
C1144 C1145 1.387 . S
C1144 H1148 0.950 . S
C1144 C1153 1.390 . S
C1145 C1144 1.387 . S
C1145 C1147 1.387 . S
H1146 C1153 0.950 . S
C1147 C1145 1.387 . S
C1147 C1149 1.390 . S
C1147 H1151 0.950 . S
H1148 C1144 0.950 . S
C1149 C1147 1.390 . S
C1149 C1150 1.387 . S
C1149 H1152 0.950 . S
C1150 C1149 1.387 . S
C1150 C1153 1.387 . S
H1151 C1147 0.950 . S
H1152 C1149 0.950 . S
C1153 C1144 1.390 . S
C1153 H1146 0.950 . S
C1153 C1150 1.387 . S
C1154 C1155 1.387 . S
C1154 H1158 0.950 . S
C1154 C1163 1.390 . S
C1155 C1154 1.387 . S
C1155 C1157 1.387 . S
H1156 C1163 0.950 . S
C1157 C1155 1.387 . S
C1157 C1159 1.390 . S
C1157 H1161 0.950 . S
H1158 C1154 0.950 . S
C1159 C1157 1.390 . S
C1159 C1160 1.387 . S
C1159 H1162 0.950 . S
C1160 C1159 1.387 . S
C1160 C1163 1.387 . S
H1161 C1157 0.950 . S
H1162 C1159 0.950 . S
C1163 C1154 1.390 . S
C1163 H1156 0.950 . S
C1163 C1160 1.387 . S
C1164 C1165 1.387 . S
C1164 H1168 0.950 . S
C1164 C1173 1.390 . S
C1165 C1164 1.387 . S
C1165 C1167 1.387 . S
H1166 C1173 0.950 . S
C1167 C1165 1.387 . S
C1167 C1169 1.390 . S
C1167 H1171 0.950 . S
H1168 C1164 0.950 . S
C1169 C1167 1.390 . S
C1169 C1170 1.387 . S
C1169 H1172 0.950 . S
C1170 C1169 1.387 . S
C1170 C1173 1.387 . S
H1171 C1167 0.950 . S
H1172 C1169 0.950 . S
C1173 C1164 1.390 . S
C1173 H1166 0.950 . S
C1173 C1170 1.387 . S
C1174 C1175 1.387 . S
C1174 H1178 0.950 . S
C1174 C1183 1.390 . S
C1175 C1174 1.387 . S
C1175 C1177 1.387 . S
H1176 C1183 0.950 . S
C1177 C1175 1.387 . S
C1177 C1179 1.390 . S
C1177 H1181 0.950 . S
H1178 C1174 0.950 . S
C1179 C1177 1.390 . S
C1179 C1180 1.387 . S
C1179 H1182 0.950 . S
C1180 C1179 1.387 . S
C1180 C1183 1.387 . S
H1181 C1177 0.950 . S
H1182 C1179 0.950 . S
C1183 C1174 1.390 . S
C1183 H1176 0.950 . S
C1183 C1180 1.387 . S
C1184 C1185 1.387 . S
C1184 H1188 0.950 . S
C1184 C1193 1.390 . S
C1185 C1184 1.387 . S
C1185 C1187 1.387 . S
H1186 C1193 0.950 . S
C1187 C1185 1.387 . S
C1187 C1189 1.390 . S
C1187 H1191 0.950 . S
H1188 C1184 0.950 . S
C1189 C1187 1.390 . S
C1189 C1190 1.387 . S
C1189 H1192 0.950 . S
C1190 C1189 1.387 . S
C1190 C1193 1.387 . S
H1191 C1187 0.950 . S
H1192 C1189 0.950 . S
C1193 C1184 1.390 . S
C1193 H1186 0.950 . S
C1193 C1190 1.387 . S
C1194 C1195 1.387 . S
C1194 H1198 0.950 . S
C1194 C1203 1.390 . S
C1195 C1194 1.387 . S
C1195 C1197 1.387 . S
H1196 C1203 0.950 . S
C1197 C1195 1.387 . S
C1197 C1199 1.390 . S
C1197 H1201 0.950 . S
H1198 C1194 0.950 . S
C1199 C1197 1.390 . S
C1199 C1200 1.387 . S
C1199 H1202 0.950 . S
C1200 C1199 1.387 . S
C1200 C1203 1.387 . S
H1201 C1197 0.950 . S
H1202 C1199 0.950 . S
C1203 C1194 1.390 . S
C1203 H1196 0.950 . S
C1203 C1200 1.387 . S
C1204 C1205 1.387 . S
C1204 H1208 0.950 . S
C1204 C1213 1.390 . S
C1205 C1204 1.387 . S
C1205 C1207 1.387 . S
H1206 C1213 0.950 . S
C1207 C1205 1.387 . S
C1207 C1209 1.390 . S
C1207 H1211 0.950 1_455 S
H1208 C1204 0.950 . S
C1209 C1207 1.390 . S
C1209 C1210 1.387 . S
C1209 H1212 0.950 . S
C1210 C1209 1.387 . S
C1210 C1213 1.387 . S
H1211 C1207 0.950 1_655 S
H1212 C1209 0.950 . S
C1213 C1204 1.390 . S
C1213 H1206 0.950 . S
C1213 C1210 1.387 . S
C1214 C1215 1.387 . S
C1214 H1218 0.950 . S
C1214 C1223 1.390 . S
C1215 C1214 1.387 . S
C1215 C1217 1.387 . S
H1216 C1223 0.950 . S
C1217 C1215 1.387 . S
C1217 C1219 1.390 . S
C1217 H1221 0.950 . S
H1218 C1214 0.950 . S
C1219 C1217 1.390 . S
C1219 C1220 1.387 . S
C1219 H1222 0.950 . S
C1220 C1219 1.387 . S
C1220 C1223 1.387 . S
H1221 C1217 0.950 . S
H1222 C1219 0.950 . S
C1223 C1214 1.390 . S
C1223 H1216 0.950 . S
C1223 C1220 1.387 . S
C1224 C1225 1.387 . S
C1224 H1228 0.950 . S
C1224 C1233 1.390 . S
C1225 C1224 1.387 . S
C1225 C1227 1.387 . S
H1226 C1233 0.950 . S
C1227 C1225 1.387 . S
C1227 C1229 1.390 . S
C1227 H1231 0.950 . S
H1228 C1224 0.950 . S
C1229 C1227 1.390 . S
C1229 C1230 1.387 . S
C1229 H1232 0.950 . S
C1230 C1229 1.387 . S
C1230 C1233 1.387 . S
H1231 C1227 0.950 . S
H1232 C1229 0.950 . S
C1233 C1224 1.390 . S
C1233 H1226 0.950 . S
C1233 C1230 1.387 . S
C1234 C1235 1.387 . S
C1234 H1238 0.950 . S
C1234 C1243 1.390 . S
C1235 C1234 1.387 . S
C1235 C1237 1.387 . S
H1236 C1243 0.950 . S
C1237 C1235 1.387 . S
C1237 C1239 1.390 . S
C1237 H1241 0.950 . S
H1238 C1234 0.950 . S
C1239 C1237 1.390 . S
C1239 C1240 1.387 . S
C1239 H1242 0.950 . S
C1240 C1239 1.387 . S
C1240 C1243 1.387 . S
H1241 C1237 0.950 . S
H1242 C1239 0.950 . S
C1243 C1234 1.390 . S
C1243 H1236 0.950 . S
C1243 C1240 1.387 . S
C1244 C1245 1.387 . S
C1244 H1248 0.950 1_455 S
C1244 C1253 1.390 . S
C1245 C1244 1.387 . S
C1245 C1247 1.387 . S
H1246 C1253 0.950 . S
C1247 C1245 1.387 . S
C1247 C1249 1.390 . S
C1247 H1251 0.950 . S
H1248 C1244 0.950 1_655 S
C1249 C1247 1.390 . S
C1249 C1250 1.387 . S
C1249 H1252 0.950 . S
C1250 C1249 1.387 . S
C1250 C1253 1.387 . S
H1251 C1247 0.950 . S
H1252 C1249 0.950 . S
C1253 C1244 1.390 . S
C1253 H1246 0.950 . S
C1253 C1250 1.387 . S
C1254 C1255 1.387 . S
C1254 H1258 0.950 . S
C1254 C1263 1.390 . S
C1255 C1254 1.387 . S
C1255 C1257 1.387 . S
H1256 C1263 0.950 . S
C1257 C1255 1.387 . S
C1257 C1259 1.390 . S
C1257 H1261 0.950 . S
H1258 C1254 0.950 . S
C1259 C1257 1.390 . S
C1259 C1260 1.387 . S
C1259 H1262 0.950 . S
C1260 C1259 1.387 . S
C1260 C1263 1.387 . S
H1261 C1257 0.950 . S
H1262 C1259 0.950 . S
C1263 C1254 1.390 . S
C1263 H1256 0.950 . S
C1263 C1260 1.387 . S
C1264 C1265 1.387 . S
C1264 H1268 0.950 . S
C1264 C1273 1.390 . S
C1265 C1264 1.387 . S
C1265 C1267 1.387 . S
H1266 C1273 0.950 . S
C1267 C1265 1.387 . S
C1267 C1269 1.390 . S
C1267 H1271 0.950 . S
H1268 C1264 0.950 . S
C1269 C1267 1.390 . S
C1269 C1270 1.387 . S
C1269 H1272 0.950 . S
C1270 C1269 1.387 . S
C1270 C1273 1.387 . S
H1271 C1267 0.950 . S
H1272 C1269 0.950 . S
C1273 C1264 1.390 . S
C1273 H1266 0.950 . S
C1273 C1270 1.387 . S
C1274 C1275 1.387 . S
C1274 H1278 0.950 . S
C1274 C1283 1.390 . S
C1275 C1274 1.387 . S
C1275 C1277 1.387 . S
H1276 C1283 0.950 . S
C1277 C1275 1.387 . S
C1277 C1279 1.390 . S
C1277 H1281 0.950 . S
H1278 C1274 0.950 . S
C1279 C1277 1.390 . S
C1279 C1280 1.387 . S
C1279 H1282 0.950 . S
C1280 C1279 1.387 . S
C1280 C1283 1.387 . S
H1281 C1277 0.950 . S
H1282 C1279 0.950 . S
C1283 C1274 1.390 . S
C1283 H1276 0.950 . S
C1283 C1280 1.387 . S
C1284 C1285 1.387 . S
C1284 H1288 0.950 . S
C1284 C1293 1.390 . S
C1285 C1284 1.387 . S
C1285 C1287 1.387 . S
H1286 C1293 0.984 . S
C1287 C1285 1.387 . S
C1287 C1289 1.390 . S
C1287 H1291 0.950 . S
H1288 C1284 0.950 . S
C1289 C1287 1.390 . S
C1289 C1290 1.387 . S
C1289 H1292 0.950 . S
C1290 C1289 1.387 . S
C1290 C1293 1.387 . S
H1291 C1287 0.950 . S
H1292 C1289 0.950 . S
C1293 C1284 1.390 . S
C1293 H1286 0.984 . S
C1293 C1290 1.387 . S
C1294 C1295 1.387 . S
C1294 H1298 0.950 . S
C1294 C1303 1.390 . S
C1295 C1294 1.387 . S
C1295 C1297 1.387 . S
H1296 C1303 0.950 . S
C1297 C1295 1.387 . S
C1297 C1299 1.390 . S
C1297 H1301 0.950 . S
H1298 C1294 0.950 . S
C1299 C1297 1.390 . S
C1299 C1300 1.387 . S
C1299 H1302 0.950 . S
C1300 C1299 1.387 . S
C1300 C1303 1.387 . S
H1301 C1297 0.950 . S
H1302 C1299 0.950 . S
C1303 C1294 1.390 . S
C1303 H1296 0.950 . S
C1303 C1300 1.387 . S
C1304 C1305 1.387 . S
C1304 H1308 0.950 . S
C1304 C1313 1.390 . S
C1305 C1304 1.387 . S
C1305 C1307 1.387 . S
H1306 C1313 0.950 . S
C1307 C1305 1.387 . S
C1307 C1309 1.390 . S
C1307 H1311 0.950 . S
H1308 C1304 0.950 . S
C1309 C1307 1.390 . S
C1309 C1310 1.387 . S
C1309 H1312 0.950 . S
C1310 C1309 1.387 . S
C1310 C1313 1.387 . S
H1311 C1307 0.950 . S
H1312 C1309 0.950 . S
C1313 C1304 1.390 . S
C1313 H1306 0.950 . S
C1313 C1310 1.387 . S
C1314 C1315 1.387 . S
C1314 H1318 0.950 . S
C1314 C1323 1.390 . S
C1315 C1314 1.387 . S
C1315 C1317 1.387 . S
H1316 C1323 0.950 . S
C1317 C1315 1.387 . S
C1317 C1319 1.390 . S
C1317 H1321 0.950 . S
H1318 C1314 0.950 . S
C1319 C1317 1.390 . S
C1319 C1320 1.387 . S
C1319 H1322 0.950 . S
C1320 C1319 1.387 . S
C1320 C1323 1.387 . S
H1321 C1317 0.950 . S
H1322 C1319 0.950 . S
C1323 C1314 1.390 . S
C1323 H1316 0.950 . S
C1323 C1320 1.387 . S
C1324 C1325 1.387 . S
C1324 H1328 0.950 . S
C1324 C1333 1.390 . S
C1325 C1324 1.387 . S
C1325 C1327 1.387 . S
H1326 C1333 0.950 . S
C1327 C1325 1.387 . S
C1327 C1329 1.390 . S
C1327 H1331 0.950 . S
H1328 C1324 0.950 . S
C1329 C1327 1.390 . S
C1329 C1330 1.387 . S
C1329 H1332 0.950 . S
C1330 C1329 1.387 . S
C1330 C1333 1.387 . S
H1331 C1327 0.950 . S
H1332 C1329 0.950 . S
C1333 C1324 1.390 . S
C1333 H1326 0.950 . S
C1333 C1330 1.387 . S
C1334 C1335 1.387 . S
C1334 H1338 0.950 . S
C1334 C1343 1.390 . S
C1335 C1334 1.387 . S
C1335 C1337 1.387 . S
H1336 C1343 0.950 . S
C1337 C1335 1.387 . S
C1337 C1339 1.390 . S
C1337 H1341 0.950 . S
H1338 C1334 0.950 . S
C1339 C1337 1.390 . S
C1339 C1340 1.387 . S
C1339 H1342 0.950 . S
C1340 C1339 1.387 . S
C1340 C1343 1.387 . S
H1341 C1337 0.950 . S
H1342 C1339 0.950 . S
C1343 C1334 1.390 . S
C1343 H1336 0.950 . S
C1343 C1340 1.387 . S
C1344 C1345 1.387 . S
C1344 H1348 0.950 . S
C1344 C1353 1.390 . S
C1345 C1344 1.387 . S
C1345 C1347 1.387 . S
H1346 C1353 0.950 . S
C1347 C1345 1.387 . S
C1347 C1349 1.390 . S
C1347 H1351 0.950 . S
H1348 C1344 0.950 . S
C1349 C1347 1.390 . S
C1349 C1350 1.387 . S
C1349 H1352 0.950 . S
C1350 C1349 1.387 . S
C1350 C1353 1.387 . S
H1351 C1347 0.950 . S
H1352 C1349 0.950 . S
C1353 C1344 1.390 . S
C1353 H1346 0.950 . S
C1353 C1350 1.387 . S
C1354 C1355 1.387 . S
C1354 H1358 0.950 . S
C1354 C1363 1.390 . S
C1355 C1354 1.387 . S
C1355 C1357 1.387 . S
H1356 C1363 0.950 . S
C1357 C1355 1.387 . S
C1357 C1359 1.390 . S
C1357 H1361 0.950 . S
H1358 C1354 0.950 . S
C1359 C1357 1.390 . S
C1359 C1360 1.387 . S
C1359 H1362 0.950 . S
C1360 C1359 1.387 . S
C1360 C1363 1.387 . S
H1361 C1357 0.950 . S
H1362 C1359 0.950 . S
C1363 C1354 1.390 . S
C1363 H1356 0.950 . S
C1363 C1360 1.387 . S
C1364 C1365 1.387 . S
C1364 H1368 0.950 . S
C1364 C1373 1.390 . S
C1365 C1364 1.387 . S
C1365 C1367 1.387 . S
H1366 C1373 0.950 . S
C1367 C1365 1.387 . S
C1367 C1369 1.390 . S
C1367 H1371 0.950 . S
H1368 C1364 0.950 . S
C1369 C1367 1.390 . S
C1369 C1370 1.387 . S
C1369 H1372 0.950 . S
C1370 C1369 1.387 . S
C1370 C1373 1.387 . S
H1371 C1367 0.950 . S
H1372 C1369 0.950 . S
C1373 C1364 1.390 . S
C1373 H1366 0.950 . S
C1373 C1370 1.387 . S
C1374 C1375 1.387 1_556 S
C1374 H1378 0.950 . S
C1374 C1383 1.390 . S
C1375 C1374 1.387 1_554 S
C1375 C1377 1.387 . S
H1376 C1383 0.950 . S
C1377 C1375 1.387 . S
C1377 C1379 1.390 . S
C1377 H1381 0.950 . S
H1378 C1374 0.950 . S
C1379 C1377 1.390 . S
C1379 C1380 1.387 . S
C1379 H1382 0.950 . S
C1380 C1379 1.387 . S
C1380 C1383 1.387 1_554 S
H1381 C1377 0.950 . S
H1382 C1379 0.950 . S
C1383 C1374 1.390 . S
C1383 H1376 0.950 . S
C1383 C1380 1.387 1_556 S
C1384 C1385 1.387 . S
C1384 H1388 0.950 . S
C1384 C1393 1.390 . S
C1385 C1384 1.387 . S
C1385 C1387 1.387 . S
H1386 C1393 0.950 . S
C1387 C1385 1.387 . S
C1387 C1389 1.390 . S
C1387 H1391 0.950 . S
H1388 C1384 0.950 . S
C1389 C1387 1.390 . S
C1389 C1390 1.387 . S
C1389 H1392 0.950 . S
C1390 C1389 1.387 . S
C1390 C1393 1.387 . S
H1391 C1387 0.950 . S
H1392 C1389 0.950 . S
C1393 C1384 1.390 . S
C1393 H1386 0.950 . S
C1393 C1390 1.387 . S
C1394 C1395 1.387 . S
C1394 H1398 0.950 . S
C1394 C1403 1.390 . S
C1395 C1394 1.387 . S
C1395 C1397 1.387 1_554 S
H1396 C1403 0.950 . S
C1397 C1395 1.387 1_556 S
C1397 C1399 1.390 . S
C1397 H1401 0.950 . S
H1398 C1394 0.950 . S
C1399 C1397 1.390 . S
C1399 C1400 1.387 . S
C1399 H1402 0.950 . S
C1400 C1399 1.387 . S
C1400 C1403 1.387 1_556 S
H1401 C1397 0.950 . S
H1402 C1399 0.950 . S
C1403 C1394 1.390 . S
C1403 H1396 0.950 . S
C1403 C1400 1.387 1_554 S
C1404 C1405 1.387 . S
C1404 H1408 0.950 . S
C1404 C1413 1.390 . S
C1405 C1404 1.387 . S
C1405 C1407 1.387 . S
H1406 C1413 0.950 . S
C1407 C1405 1.387 . S
C1407 C1409 1.390 . S
C1407 H1411 0.950 . S
H1408 C1404 0.950 . S
C1409 C1407 1.390 . S
C1409 C1410 1.387 . S
C1409 H1412 0.950 . S
C1410 C1409 1.387 . S
C1410 C1413 1.387 . S
H1411 C1407 0.950 . S
H1412 C1409 0.950 . S
C1413 C1404 1.390 . S
C1413 H1406 0.950 . S
C1413 C1410 1.387 . S
C1414 C1415 1.387 . S
C1414 H1418 0.950 . S
C1414 C1423 1.390 . S
C1415 C1414 1.387 . S
C1415 C1417 1.387 . S
H1416 C1423 0.950 . S
C1417 C1415 1.387 . S
C1417 C1419 1.390 . S
C1417 H1421 0.950 . S
H1418 C1414 0.950 . S
C1419 C1417 1.390 . S
C1419 C1420 1.387 . S
C1419 H1422 0.950 . S
C1420 C1419 1.387 . S
C1420 C1423 1.387 . S
H1421 C1417 0.950 . S
H1422 C1419 0.950 . S
C1423 C1414 1.390 . S
C1423 H1416 0.950 . S
C1423 C1420 1.387 . S
C1424 C1425 1.387 . S
C1424 H1428 0.950 . S
C1424 C1433 1.390 . S
C1425 C1424 1.387 . S
C1425 C1427 1.387 . S
H1426 C1433 0.950 . S
C1427 C1425 1.387 . S
C1427 C1429 1.390 . S
C1427 H1431 0.950 . S
H1428 C1424 0.950 . S
C1429 C1427 1.390 . S
C1429 C1430 1.387 . S
C1429 H1432 0.950 . S
C1430 C1429 1.387 . S
C1430 C1433 1.387 . S
H1431 C1427 0.950 . S
H1432 C1429 0.950 . S
C1433 C1424 1.390 . S
C1433 H1426 0.950 . S
C1433 C1430 1.387 . S
C1434 C1435 1.387 . S
C1434 H1438 0.950 . S
C1434 C1443 1.390 . S
C1435 C1434 1.387 . S
C1435 C1437 1.387 . S
H1436 C1443 0.950 . S
C1437 C1435 1.387 . S
C1437 C1439 1.390 . S
C1437 H1441 0.950 . S
H1438 C1434 0.950 . S
C1439 C1437 1.390 . S
C1439 C1440 1.387 . S
C1439 H1442 0.950 . S
C1440 C1439 1.387 . S
C1440 C1443 1.387 . S
H1441 C1437 0.950 . S
H1442 C1439 0.950 . S
C1443 C1434 1.390 . S
C1443 H1436 0.950 . S
C1443 C1440 1.387 . S
C1444 C1445 1.387 1_655 S
C1444 H1448 0.950 . S
C1444 C1453 1.390 . S
C1445 C1444 1.387 1_455 S
C1445 C1447 1.387 . S
H1446 C1453 0.950 1_554 S
C1447 C1445 1.387 . S
C1447 C1449 1.390 . S
C1447 H1451 0.950 . S
H1448 C1444 0.950 . S
C1449 C1447 1.390 . S
C1449 C1450 1.387 1_455 S
C1449 H1452 0.950 . S
C1450 C1449 1.387 1_655 S
C1450 C1453 1.387 . S
H1451 C1447 0.950 . S
H1452 C1449 0.950 . S
C1453 C1444 1.390 . S
C1453 H1446 0.950 1_556 S
C1453 C1450 1.387 . S
C1454 C1455 1.387 . S
C1454 H1458 0.950 . S
C1454 C1463 1.390 . S
C1455 C1454 1.387 . S
C1455 C1457 1.387 . S
H1456 C1463 0.950 . S
C1457 C1455 1.387 . S
C1457 C1459 1.390 . S
C1457 H1461 0.950 . S
H1458 C1454 0.950 . S
C1459 C1457 1.390 . S
C1459 C1460 1.387 . S
C1459 H1462 0.950 . S
C1460 C1459 1.387 . S
C1460 C1463 1.387 . S
H1461 C1457 0.950 . S
H1462 C1459 0.950 . S
C1463 C1454 1.390 . S
C1463 H1456 0.950 . S
C1463 C1460 1.387 . S
C1464 C1465 1.387 . S
C1464 H1468 0.950 . S
C1464 C1473 1.390 . S
C1465 C1464 1.387 . S
C1465 C1467 1.387 . S
H1466 C1473 0.950 . S
C1467 C1465 1.387 . S
C1467 C1469 1.390 . S
C1467 H1471 0.950 . S
H1468 C1464 0.950 . S
C1469 C1467 1.390 . S
C1469 C1470 1.387 . S
C1469 H1472 0.950 . S
C1470 C1469 1.387 . S
C1470 C1473 1.387 . S
H1471 C1467 0.950 . S
H1472 C1469 0.950 . S
C1473 C1464 1.390 . S
C1473 H1466 0.950 . S
C1473 C1470 1.387 . S
C1474 C1475 1.387 . S
C1474 H1478 0.950 . S
C1474 C1483 1.390 . S
C1475 C1474 1.387 . S
C1475 C1477 1.387 . S
H1476 C1483 0.950 . S
C1477 C1475 1.387 . S
C1477 C1479 1.390 . S
C1477 H1481 0.950 . S
H1478 C1474 0.950 . S
C1479 C1477 1.390 . S
C1479 C1480 1.387 . S
C1479 H1482 0.950 . S
C1480 C1479 1.387 . S
C1480 C1483 1.387 . S
H1481 C1477 0.950 . S
H1482 C1479 0.950 . S
C1483 C1474 1.390 . S
C1483 H1476 0.950 . S
C1483 C1480 1.387 . S
C1484 C1485 1.387 . S
C1484 H1488 0.950 . S
C1484 C1493 1.390 . S
C1485 C1484 1.387 . S
C1485 C1487 1.387 1_455 S
H1486 C1493 0.950 . S
C1487 C1485 1.387 1_655 S
C1487 C1489 1.390 . S
C1487 H1491 0.950 . S
H1488 C1484 0.950 . S
C1489 C1487 1.390 . S
C1489 C1490 1.387 . S
C1489 H1492 0.950 . S
C1490 C1489 1.387 . S
C1490 C1493 1.387 1_655 S
H1491 C1487 0.950 . S
H1492 C1489 0.950 . S
C1493 C1484 1.390 . S
C1493 H1486 0.950 . S
C1493 C1490 1.387 1_455 S
C1494 C1495 1.387 . S
C1494 H1498 0.950 . S
C1494 C1503 1.390 . S
C1495 C1494 1.387 . S
C1495 C1497 1.387 . S
H1496 C1503 0.950 . S
C1497 C1495 1.387 . S
C1497 C1499 1.390 . S
C1497 H1501 0.950 . S
H1498 C1494 0.950 . S
C1499 C1497 1.390 . S
C1499 C1500 1.387 . S
C1499 H1502 0.950 . S
C1500 C1499 1.387 . S
C1500 C1503 1.387 . S
H1501 C1497 0.950 . S
H1502 C1499 0.950 . S
C1503 C1494 1.390 . S
C1503 H1496 0.950 . S
C1503 C1500 1.387 . S
C1504 C1505 1.387 . S
C1504 H1508 0.950 . S
C1504 C1513 1.390 . S
C1505 C1504 1.387 . S
C1505 C1507 1.387 . S
H1506 C1513 0.950 . S
C1507 C1505 1.387 . S
C1507 C1509 1.390 . S
C1507 H1511 0.950 . S
H1508 C1504 0.950 . S
C1509 C1507 1.390 . S
C1509 C1510 1.387 . S
C1509 H1512 0.950 . S
C1510 C1509 1.387 . S
C1510 C1513 1.387 . S
H1511 C1507 0.950 . S
H1512 C1509 0.950 . S
C1513 C1504 1.390 . S
C1513 H1506 0.950 . S
C1513 C1510 1.387 . S
C1514 C1515 1.387 . S
C1514 H1518 0.950 . S
C1514 C1523 1.390 . S
C1515 C1514 1.387 . S
C1515 C1517 1.387 . S
H1516 C1523 0.950 . S
C1517 C1515 1.387 . S
C1517 C1519 1.390 . S
C1517 H1521 0.950 . S
H1518 C1514 0.950 . S
C1519 C1517 1.390 . S
C1519 C1520 1.387 . S
C1519 H1522 0.950 . S
C1520 C1519 1.387 . S
C1520 C1523 1.387 . S
H1521 C1517 0.950 . S
H1522 C1519 0.950 . S
C1523 C1514 1.390 . S
C1523 H1516 0.950 . S
C1523 C1520 1.387 . S
C1524 C1525 1.387 . S
C1524 H1528 0.950 . S
C1524 C1533 1.390 . S
C1525 C1524 1.387 . S
C1525 C1527 1.387 . S
H1526 C1533 0.950 . S
C1527 C1525 1.387 . S
C1527 C1529 1.390 . S
C1527 H1531 0.950 . S
H1528 C1524 0.950 . S
C1529 C1527 1.390 . S
C1529 C1530 1.387 . S
C1529 H1532 0.950 . S
C1530 C1529 1.387 . S
C1530 C1533 1.387 . S
H1531 C1527 0.950 . S
H1532 C1529 0.950 . S
C1533 C1524 1.390 . S
C1533 H1526 0.950 . S
C1533 C1530 1.387 . S
C1534 C1535 1.387 . S
C1534 H1538 0.950 . S
C1534 C1543 1.390 . S
C1535 C1534 1.387 . S
C1535 C1537 1.387 . S
H1536 C1543 0.950 . S
C1537 C1535 1.387 . S
C1537 C1539 1.390 . S
C1537 H1541 0.950 . S
H1538 C1534 0.950 . S
C1539 C1537 1.390 . S
C1539 C1540 1.387 . S
C1539 H1542 0.950 . S
C1540 C1539 1.387 . S
C1540 C1543 1.387 . S
H1541 C1537 0.950 . S
H1542 C1539 0.950 . S
C1543 C1534 1.390 . S
C1543 H1536 0.950 . S
C1543 C1540 1.387 . S
C1544 C1545 1.387 . S
C1544 H1548 0.950 . S
C1544 C1553 1.390 . S
C1545 C1544 1.387 . S
C1545 C1547 1.387 . S
H1546 C1553 0.950 . S
C1547 C1545 1.387 . S
C1547 C1549 1.390 . S
C1547 H1551 0.950 . S
H1548 C1544 0.950 . S
C1549 C1547 1.390 . S
C1549 C1550 1.387 . S
C1549 H1552 0.950 . S
C1550 C1549 1.387 . S
C1550 C1553 1.387 . S
H1551 C1547 0.950 . S
H1552 C1549 0.950 . S
C1553 C1544 1.390 . S
C1553 H1546 0.950 . S
C1553 C1550 1.387 . S
C1554 C1555 1.387 . S
C1554 H1558 0.950 . S
C1554 C1563 1.390 . S
C1555 C1554 1.387 . S
C1555 C1557 1.387 . S
H1556 C1563 0.950 . S
C1557 C1555 1.387 . S
C1557 C1559 1.390 . S
C1557 H1561 0.950 . S
H1558 C1554 0.950 . S
C1559 C1557 1.390 . S
C1559 C1560 1.387 . S
C1559 H1562 0.950 . S
C1560 C1559 1.387 . S
C1560 C1563 1.387 . S
H1561 C1557 0.950 . S
H1562 C1559 0.950 . S
C1563 C1554 1.390 . S
C1563 H1556 0.950 . S
C1563 C1560 1.387 . S
C1564 C1565 1.387 . S
C1564 H1568 0.950 . S
C1564 C1573 1.390 . S
C1565 C1564 1.387 . S
C1565 C1567 1.387 . S
H1566 C1573 0.950 . S
C1567 C1565 1.387 . S
C1567 C1569 1.390 . S
C1567 H1571 0.950 . S
H1568 C1564 0.950 . S
C1569 C1567 1.390 . S
C1569 C1570 1.387 . S
C1569 H1572 0.950 . S
C1570 C1569 1.387 . S
C1570 C1573 1.387 . S
H1571 C1567 0.950 . S
H1572 C1569 0.950 . S
C1573 C1564 1.390 . S
C1573 H1566 0.950 . S
C1573 C1570 1.387 . S
C1574 C1575 1.387 . S
C1574 H1578 0.950 . S
C1574 C1583 1.390 . S
C1575 C1574 1.387 . S
C1575 C1577 1.387 . S
H1576 C1583 0.950 . S
C1577 C1575 1.387 . S
C1577 C1579 1.390 . S
C1577 H1581 0.950 . S
H1578 C1574 0.950 . S
C1579 C1577 1.390 . S
C1579 C1580 1.387 . S
C1579 H1582 0.950 . S
C1580 C1579 1.387 . S
C1580 C1583 1.387 . S
H1581 C1577 0.950 . S
H1582 C1579 0.950 . S
C1583 C1574 1.390 . S
C1583 H1576 0.950 . S
C1583 C1580 1.387 . S
C1584 C1585 1.387 . S
C1584 H1588 0.950 . S
C1584 C1593 1.390 . S
C1585 C1584 1.387 . S
C1585 C1587 1.387 . S
H1586 C1593 0.950 . S
C1587 C1585 1.387 . S
C1587 C1589 1.390 . S
C1587 H1591 0.950 . S
H1588 C1584 0.950 . S
C1589 C1587 1.390 . S
C1589 C1590 1.387 . S
C1589 H1592 0.950 . S
C1590 C1589 1.387 . S
C1590 C1593 1.387 . S
H1591 C1587 0.950 . S
H1592 C1589 0.950 . S
C1593 C1584 1.390 . S
C1593 H1586 0.950 . S
C1593 C1590 1.387 . S
C1594 C1595 1.387 . S
C1594 H1598 0.950 . S
C1594 C1603 1.390 . S
C1595 C1594 1.387 . S
C1595 C1597 1.387 . S
H1596 C1603 0.950 . S
C1597 C1595 1.387 . S
C1597 C1599 1.390 . S
C1597 H1601 0.950 . S
H1598 C1594 0.950 . S
C1599 C1597 1.390 . S
C1599 C1600 1.387 . S
C1599 H1602 0.950 . S
C1600 C1599 1.387 . S
C1600 C1603 1.387 . S
H1601 C1597 0.950 . S
H1602 C1599 0.950 . S
C1603 C1594 1.390 . S
C1603 H1596 0.950 . S
C1603 C1600 1.387 . S
C1604 C1605 1.387 . S
C1604 H1608 0.950 . S
C1604 C1613 1.390 . S
C1605 C1604 1.387 . S
C1605 C1607 1.387 . S
H1606 C1613 0.950 . S
C1607 C1605 1.387 . S
C1607 C1609 1.390 . S
C1607 H1611 0.950 . S
H1608 C1604 0.950 . S
C1609 C1607 1.390 . S
C1609 C1610 1.387 . S
C1609 H1612 0.950 . S
C1610 C1609 1.387 . S
C1610 C1613 1.387 . S
H1611 C1607 0.950 . S
H1612 C1609 0.950 . S
C1613 C1604 1.390 . S
C1613 H1606 0.950 . S
C1613 C1610 1.387 . S
C1614 C1615 1.387 1_554 S
C1614 H1618 0.950 . S
C1614 C1623 1.390 . S
C1615 C1614 1.387 1_556 S
C1615 C1617 1.387 . S
H1616 C1623 0.950 . S
C1617 C1615 1.387 . S
C1617 C1619 1.390 . S
C1617 H1621 0.950 . S
H1618 C1614 0.950 . S
C1619 C1617 1.390 . S
C1619 C1620 1.387 . S
C1619 H1622 0.950 . S
C1620 C1619 1.387 . S
C1620 C1623 1.387 1_556 S
H1621 C1617 0.950 . S
H1622 C1619 0.950 . S
C1623 C1614 1.390 . S
C1623 H1616 0.950 . S
C1623 C1620 1.387 1_554 S
C1624 C1625 1.387 . S
C1624 H1628 0.950 . S
C1624 C1633 1.390 . S
C1625 C1624 1.387 . S
C1625 C1627 1.387 . S
H1626 C1633 0.950 . S
C1627 C1625 1.387 . S
C1627 C1629 1.390 . S
C1627 H1631 0.950 . S
H1628 C1624 0.950 . S
C1629 C1627 1.390 . S
C1629 C1630 1.387 . S
C1629 H1632 0.950 . S
C1630 C1629 1.387 . S
C1630 C1633 1.387 . S
H1631 C1627 0.950 . S
H1632 C1629 0.950 . S
C1633 C1624 1.390 . S
C1633 H1626 0.950 . S
C1633 C1630 1.387 . S
C1634 C1635 1.387 1_556 S
C1634 H1638 0.950 . S
C1634 C1643 1.390 1_556 S
C1635 C1634 1.387 1_554 S
C1635 C1637 1.387 . S
H1636 C1643 0.950 1_556 S
C1637 C1635 1.387 . S
C1637 C1639 1.390 . S
C1637 H1641 0.950 . S
H1638 C1634 0.950 . S
C1639 C1637 1.390 . S
C1639 C1640 1.387 . S
C1639 H1642 0.950 . S
C1640 C1639 1.387 . S
C1640 C1643 1.387 . S
H1641 C1637 0.950 . S
H1642 C1639 0.950 . S
C1643 C1634 1.390 1_554 S
C1643 H1636 0.950 1_554 S
C1643 C1640 1.387 . S
C1644 C1645 1.387 . S
C1644 H1648 0.950 . S
C1644 C1653 1.390 . S
C1645 C1644 1.387 . S
C1645 C1647 1.387 . S
H1646 C1653 0.950 . S
C1647 C1645 1.387 . S
C1647 C1649 1.390 . S
C1647 H1651 0.950 . S
H1648 C1644 0.950 . S
C1649 C1647 1.390 . S
C1649 C1650 1.387 . S
C1649 H1652 0.950 . S
C1650 C1649 1.387 . S
C1650 C1653 1.387 . S
H1651 C1647 0.950 . S
H1652 C1649 0.950 . S
C1653 C1644 1.390 . S
C1653 H1646 0.950 . S
C1653 C1650 1.387 . S
C1654 C1655 1.387 . S
C1654 H1658 0.950 . S
C1654 C1663 1.390 . S
C1655 C1654 1.387 . S
C1655 C1657 1.387 . S
H1656 C1663 0.950 . S
C1657 C1655 1.387 . S
C1657 C1659 1.390 . S
C1657 H1661 0.950 . S
H1658 C1654 0.950 . S
C1659 C1657 1.390 . S
C1659 C1660 1.387 . S
C1659 H1662 0.950 . S
C1660 C1659 1.387 . S
C1660 C1663 1.387 . S
H1661 C1657 0.950 . S
H1662 C1659 0.950 . S
C1663 C1654 1.390 . S
C1663 H1656 0.950 . S
C1663 C1660 1.387 . S
C710 C352 1.258 . S
C705 C5 1.297 1_655 S
C715 C23 1.575 . S
C720 C380 1.411 . S
C725 C39 1.249 . S
C730 C398 1.219 . S
C740 C424 1.381 . S
C735 C42 1.550 . S
C745 C19 1.613 . S
C750 C447 1.402 . S
C760 C467 1.246 . S
C755 C28 1.265 . S
C770 C495 1.398 . S
C765 C53 1.537 . S
C775 C9 1.275 . S
C780 C513 1.244 . S
C785 C65 1.498 . S
C790 C354 1.500 1_545 S
C795 C75 1.286 . S
C800 C376 1.249 . S
C810 C400 1.527 . S
C805 C93 1.519 . S
C820 C421 1.230 . S
C815 C109 1.248 . S
C825 C56 1.273 . S
C830 C444 1.262 . S
C840 C469 1.433 . S
C835 C81 1.407 . S
C850 C491 1.257 . S
C845 C84 1.272 . S
C860 C515 1.482 . S
C855 C103 1.473 . S
C870 C355 1.099 . S
C865 C107 1.253 . S
C880 C538 1.324 . S
C875 C121 1.314 . S
C885 C131 1.341 . S
C890 C562 1.173 . S
C900 C586 1.259 . S
C895 C140 1.289 . S
C905 C61 1.286 . S
C910 C516 1.139 . S
C920 C401 1.118 . S
C915 C70 1.246 . S
C925 C137 1.256 . S
C930 C607 1.271 . S
C940 C632 1.195 . S
C935 C165 1.225 . S
C945 C173 1.300 . S
C950 C353 1.267 . S
C960 C630 1.197 . S
C955 C182 1.199 . S
C965 C207 1.261 . S
C970 C399 1.235 . S
C975 C219 1.172 . S
C980 C609 1.123 . S
C990 C448 1.150 . S
C985 C187 1.198 . S
C1000 C560 1.259 . S
C995 C205 1.298 . S
C1010 C492 1.192 . S
C1005 C221 1.190 . S
C1020 C652 1.243 . S
C1015 C168 1.273 . S
C1030 C357 1.138 . S
C1025 C224 1.264 . S
C1035 C243 1.437 . S
C1040 C628 1.391 . S
C1050 C403 1.147 . S
C1045 C252 1.284 . S
C1055 C277 1.390 . S
C1060 C606 1.342 . S
C1065 C233 1.467 . S
C1070 C445 1.419 . S
C1075 C249 1.189 . S
C1080 C564 1.081 . S
C1090 C490 1.439 . S
C1085 C261 1.480 1_545 S
C1095 C271 1.227 . S
C1100 C656 1.114 . S
C1105 C266 1.429 1_554 S
C1110 C356 1.354 . S
C1115 C280 1.425 . S
C1120 C541 1.303 . S
C1125 C299 1.472 . S
C1130 C471 1.401 . S
C1135 C317 1.439 . S
C1140 C585 1.264 . S
C1150 C655 1.391 . S
C1145 C229 1.453 . S
C1160 C402 1.367 . S
C1155 C247 1.441 . S
C1170 C426 1.270 . S
C1165 C305 1.392 . S
C1180 C378 1.216 . S
C1175 C333 1.375 . S
C1185 C33 1.300 . S
C1190 C674 1.262 . S
C1200 C633 1.411 . S
C1195 C51 1.574 . S
C1210 C697 1.223 . S
C1205 C11 1.252 . S
C1215 C14 1.553 . S
C1220 C608 1.386 . S
C1225 C47 1.609 . S
C1230 C539 1.403 . S
C1240 C559 1.244 . S
C1235 C0 1.263 . S
C1250 C587 1.394 . S
C1245 C25 1.535 . S
C1260 C651 1.246 . S
C1255 C37 1.276 . S
C1270 C676 1.502 . S
C1265 C163 1.497 . S
C1275 C117 1.286 . S
C1280 C629 1.249 . S
C1285 C135 1.516 . S
C1290 C699 1.528 . S
C1300 C605 1.229 . S
C1295 C151 1.248 . S
C1310 C536 1.265 . S
C1305 C154 1.276 . S
C1315 C123 1.407 . S
C1320 C561 1.433 . S
C1330 C583 1.258 . S
C1325 C126 1.272 . S
C1335 C145 1.473 . S
C1340 C653 1.483 . S
C1350 C677 1.099 . S
C1345 C149 1.254 . S
C1360 C446 1.324 . S
C1355 C79 1.315 . S
C1370 C470 1.173 . S
C1365 C89 1.344 . S
C1375 C98 1.289 . S
C1380 C494 1.259 . S
C1390 C654 1.132 . S
C1385 C159 1.284 . S
C1395 C112 1.246 . S
C1400 C700 1.112 1_556 S
C1410 C423 1.271 . S
C1405 C95 1.252 . S
C1420 C379 1.199 . S
C1415 C67 1.227 . S
C1425 C201 1.302 . S
C1430 C675 1.271 . S
C1440 C377 1.197 . S
C1435 C210 1.198 . S
C1450 C698 1.237 . S
C1445 C179 1.263 . S
C1455 C191 1.172 . S
C1460 C425 1.123 . S
C1465 C215 1.197 . S
C1470 C540 1.149 . S
C1475 C177 1.297 . S
C1480 C468 1.257 . S
C1485 C193 1.190 . S
C1490 C584 1.192 . S
C1495 C196 1.275 . S
C1500 C514 1.245 . S
C1510 C679 1.143 . S
C1505 C322 1.266 . S
C1515 C285 1.436 . S
C1520 C375 1.391 . S
C1530 C702 1.146 . S
C1525 C294 1.284 . S
C1535 C319 1.390 . S
C1540 C422 1.342 . S
C1545 C331 1.467 . S
C1550 C537 1.419 . S
C1560 C472 1.087 . S
C1555 C291 1.190 . S
C1565 C303 1.488 . S
C1570 C582 1.439 . S
C1580 C518 1.114 . S
C1575 C313 1.227 . S
C1590 C678 1.352 . S
C1585 C308 1.429 . S
C1600 C449 1.305 . S
C1595 C238 1.427 . S
C1605 C257 1.472 . S
C1610 C563 1.401 . S
C1620 C493 1.266 . S
C1615 C275 1.440 1_556 S
C1630 C517 1.389 . S
C1625 C327 1.452 . S
C1635 C289 1.441 . S
C1640 C701 1.368 . S
C1650 C610 1.269 . S
C1645 C263 1.392 . S
C1660 C631 1.215 . S
C1655 C235 1.375 . S
