# Generated by pormake.
# Topology anh, (6,3)-cn, num edge types: 1
# Building blocks:
#     Node 0, Type 0, BuildingBlock: VOLQOD_clean_sbu_1, # of connection points: 6
#     Node 1, Type 0, BuildingBlock: VOLQOD_clean_sbu_1, # of connection points: 6
#     Node 2, Type 0, BuildingBlock: VOLQOD_clean_sbu_1, # of connection points: 6
#     Node 3, Type 1, BuildingBlock: WUSLED_clean_sbu_0, # of connection points: 3
#     Node 4, Type 1, BuildingBlock: WUSLED_clean_sbu_0, # of connection points: 3
#     Node 5, Type 1, BuildingBlock: WUSLED_clean_sbu_0, # of connection points: 3
#     Node 6, Type 1, BuildingBlock: WUSLED_clean_sbu_0, # of connection points: 3
#     Node 7, Type 1, BuildingBlock: WUSLED_clean_sbu_0, # of connection points: 3
#     Node 8, Type 1, BuildingBlock: WUSLED_clean_sbu_0, # of connection points: 3
#     Edge 9, Type (0, 1), BuildingBlock: CIFDUS_clean_linker_0, # of connection points: 2
#     Edge 10, Type (0, 1), BuildingBlock: CIFDUS_clean_linker_0, # of connection points: 2
#     Edge 11, Type (0, 1), BuildingBlock: CIFDUS_clean_linker_0, # of connection points: 2
#     Edge 12, Type (0, 1), BuildingBlock: CIFDUS_clean_linker_0, # of connection points: 2
#     Edge 13, Type (0, 1), BuildingBlock: CIFDUS_clean_linker_0, # of connection points: 2
#     Edge 14, Type (0, 1), BuildingBlock: CIFDUS_clean_linker_0, # of connection points: 2
#     Edge 15, Type (0, 1), BuildingBlock: CIFDUS_clean_linker_0, # of connection points: 2
#     Edge 16, Type (0, 1), BuildingBlock: CIFDUS_clean_linker_0, # of connection points: 2
#     Edge 17, Type (0, 1), BuildingBlock: CIFDUS_clean_linker_0, # of connection points: 2
#     Edge 18, Type (0, 1), BuildingBlock: CIFDUS_clean_linker_0, # of connection points: 2
#     Edge 19, Type (0, 1), BuildingBlock: CIFDUS_clean_linker_0, # of connection points: 2
#     Edge 20, Type (0, 1), BuildingBlock: CIFDUS_clean_linker_0, # of connection points: 2
#     Edge 21, Type (0, 1), BuildingBlock: CIFDUS_clean_linker_0, # of connection points: 2
#     Edge 22, Type (0, 1), BuildingBlock: CIFDUS_clean_linker_0, # of connection points: 2
#     Edge 23, Type (0, 1), BuildingBlock: CIFDUS_clean_linker_0, # of connection points: 2
#     Edge 24, Type (0, 1), BuildingBlock: CIFDUS_clean_linker_0, # of connection points: 2
#     Edge 25, Type (0, 1), BuildingBlock: CIFDUS_clean_linker_0, # of connection points: 2
#     Edge 26, Type (0, 1), BuildingBlock: CIFDUS_clean_linker_0, # of connection points: 2
# Relax obj value: 0.164
# Max RMSD: 0.228
# Mean RMSD: 0.110
data_MOF--net-anh--node1-VOLQOD_clean_sbu_1--node2-WUSLED_clean_sbu_0--edge1-CIFDUS_clean_linker_0
_symmetry_space_group_name_H-M    P1
_symmetry_Int_Tables_number       1
_symmetry_cell_setting            triclinic
loop_
_symmetry_equiv_pos_as_xyz
'x, y, z'
_cell_length_a     33.528493
_cell_length_b     33.388326
_cell_length_c     71.509585
_cell_angle_alpha  89.666457
_cell_angle_beta   90.146259
_cell_angle_gamma 120.30299
loop_
_atom_site_label
_atom_site_type_symbol
_atom_site_fract_x
_atom_site_fract_y
_atom_site_fract_z
_atom_type_partial_charge
O0 O 0.98843 0.51597 0.21316 0.0
Zn1 Zn 0.99114 0.5373 0.18638 0.0
O2 O 0.99778 0.49491 0.16948 0.0
Zn3 Zn 0.943 0.46142 0.15432 0.0
Zn4 Zn 0.00624 0.44909 0.18359 0.0
Zn5 Zn 0.04977 0.53123 0.15282 0.0
O6 O 0.95798 0.46652 0.12696 0.0
O7 O 0.03024 0.52524 0.12557 0.0
O8 O 0.93365 0.54141 0.18008 0.0
O9 O 0.90208 0.48768 0.158 0.0
O10 O 0.90503 0.3947 0.16192 0.0
O11 O 0.94896 0.38476 0.18242 0.0
O12 O 0.06301 0.44725 0.17447 0.0
O13 O 0.04803 0.60138 0.18512 0.0
O14 O 0.09314 0.50702 0.15463 0.0
O15 O 0.08714 0.59818 0.16076 0.0
C16 C 1.00103 0.48946 0.22078 0.0
C17 C 0.99312 0.49531 0.11751 0.0
C18 C 0.91123 0.36903 0.17336 0.0
C19 C 0.90147 0.51824 0.16832 0.0
C20 C 0.09475 0.47431 0.16315 0.0
C21 C 0.08298 0.62049 0.17428 0.0
O22 O 0.01253 0.46506 0.21098 0.0
O23 O 0.49049 0.03084 0.45778 0.0
Zn24 Zn 0.46806 0.02359 0.48469 0.0
O25 O 0.50721 0.01021 0.50105 0.0
Zn26 Zn 0.53933 0.05881 0.51929 0.0
Zn27 Zn 0.55303 1.00416 0.48626 0.0
Zn28 Zn 0.46863 0.95363 0.5149 0.0
O29 O 0.52591 0.03532 0.54601 0.0
O30 O 0.46555 0.96466 0.54236 0.0
O31 O 0.46751 0.08184 0.49322 0.0
O32 O 0.51844 0.10452 0.51649 0.0
O33 O 0.60749 0.09524 0.51442 0.0
O34 O 0.61686 0.06106 0.48967 0.0
O35 O 0.55448 0.94547 0.49336 0.0
O36 O 0.40269 0.96827 0.48406 0.0
O37 O 0.49639 0.91336 0.51368 0.0
O38 O 0.40483 0.91803 0.50392 0.0
C39 C 0.51566 0.0176 0.4496 0.0
C40 C 0.49316 0.99781 0.5529 0.0
C41 C 0.63309 0.09362 0.50169 0.0
C42 C 0.49094 0.11046 0.50613 0.0
C43 C 0.52931 0.91328 0.50492 0.0
C44 C 0.38331 0.92844 0.49193 0.0
O45 O 0.53839 1.003 0.45888 0.0
O46 O 0.48476 0.49565 0.79426 0.0
Zn47 Zn 0.47194 0.47584 0.82146 0.0
O48 O 0.52413 0.52011 0.837 0.0
Zn49 Zn 0.5052 0.55156 0.85464 0.0
Zn50 Zn 0.5742 0.5666 0.82118 0.0
Zn51 Zn 0.54604 0.48625 0.85162 0.0
O52 O 0.51481 0.54032 0.88187 0.0
O53 O 0.53286 0.48531 0.87897 0.0
O54 O 0.41193 0.47308 0.82927 0.0
O55 O 0.43812 0.52819 0.85101 0.0
O56 O 0.53559 0.61975 0.84898 0.0
O57 O 0.57886 0.62956 0.82401 0.0
O58 O 0.63618 0.57169 0.82749 0.0
O59 O 0.46558 0.41176 0.82222 0.0
O60 O 0.61439 0.51734 0.84954 0.0
O61 O 0.51977 0.42104 0.8425 0.0
C62 C 0.52168 0.52323 0.78541 0.0
C63 C 0.52347 0.51058 0.88916 0.0
C64 C 0.56202 0.64537 0.8359 0.0
C65 C 0.40548 0.49781 0.84106 0.0
C66 C 0.64568 0.54957 0.83963 0.0
C67 C 0.48805 0.39598 0.83094 0.0
O68 O 0.55923 0.54982 0.79401 0.0
C69 C 0.57924 0.07556 0.20882 0.0
C70 C 0.61376 0.10591 0.22119 0.0
C71 C 0.66498 0.14642 0.19492 0.0
C72 C 0.65633 0.14101 0.2143 0.0
C73 C 0.63053 0.1151 0.18267 0.0
C74 C 0.58807 0.08004 0.18957 0.0
U75 U 0.49407 0.01495 0.24875 0.0
O76 O 0.42005 0.99206 0.25073 0.0
O77 O 0.44303 0.94122 0.25332 0.0
C78 C 0.40771 0.94801 0.25208 0.0
C79 C 0.53346 0.04015 0.21574 0.0
C80 C 0.36802 0.91536 0.24043 0.0
C81 C 0.28692 0.88277 0.23234 0.0
C82 C 0.32674 0.91638 0.2414 0.0
C83 C 0.32916 0.847 0.22063 0.0
C84 C 0.28732 0.84703 0.22218 0.0
C85 C 0.3691 0.88078 0.22967 0.0
C86 C 0.53143 0.05347 0.29928 0.0
C87 C 0.50677 0.00844 0.32816 0.0
C88 C 0.53523 0.09104 0.32883 0.0
C89 C 0.5421 0.09346 0.30947 0.0
C90 C 0.51796 0.04859 0.33841 0.0
C91 C 0.51321 0.01078 0.30878 0.0
C92 C 0.5406 0.05729 0.27894 0.0
O93 O 0.53241 0.00638 0.22566 0.0
O94 O 0.50847 0.05635 0.223 0.0
O95 O 0.51814 0.0725 0.26881 0.0
O96 O 0.54238 0.02265 0.27114 0.0
H97 H 0.60744 0.10295 0.23613 0.0
H98 H 0.68185 0.16482 0.22411 0.0
H99 H 0.63626 0.11791 0.1677 0.0
H100 H 0.56186 0.0568 0.17984 0.0
H101 H 0.25553 0.88428 0.23361 0.0
H102 H 0.32489 0.94254 0.24964 0.0
H103 H 0.33063 0.81975 0.21308 0.0
H104 H 0.40034 0.8789 0.22868 0.0
H105 H 0.49289 0.97516 0.33514 0.0
H106 H 0.54453 0.12261 0.33637 0.0
H107 H 0.55624 0.12674 0.30246 0.0
H108 H 0.50426 0.97923 0.30129 0.0
C109 C 0.50969 0.5942 0.54798 0.0
C110 C 0.47745 0.6056 0.55479 0.0
C111 C 0.51928 0.68155 0.53979 0.0
C112 C 0.482 0.64856 0.55063 0.0
C113 C 0.55108 0.66976 0.53267 0.0
C114 C 0.54625 0.62642 0.53672 0.0
U115 U 0.49566 0.50769 0.58551 0.0
O116 O 0.45668 0.4315 0.58617 0.0
O117 O 0.53196 0.46901 0.59023 0.0
C118 C 0.49419 0.42859 0.58796 0.0
C119 C 0.50694 0.55011 0.55334 0.0
C120 C 0.49844 0.39609 0.57545 0.0
C121 C 0.48239 0.35336 0.54628 0.0
C122 C 0.47816 0.38519 0.55759 0.0
C123 C 0.52756 0.34367 0.57051 0.0
C124 C 0.50741 0.33252 0.55262 0.0
C125 C 0.52306 0.37506 0.58179 0.0
C126 C 0.48334 0.53528 0.63623 0.0
C127 C 0.50684 0.51016 0.66403 0.0
C128 C 0.452 0.53688 0.66665 0.0
C129 C 0.4545 0.5445 0.64732 0.0
C130 C 0.4787 0.5203 0.67524 0.0
C131 C 0.50893 0.5173 0.64469 0.0
C132 C 0.48762 0.54619 0.61606 0.0
O133 O 0.54165 0.55448 0.56348 0.0
O134 O 0.46651 0.51695 0.55938 0.0
O135 O 0.45205 0.51831 0.60563 0.0
O136 O 0.52756 0.55731 0.60844 0.0
H137 H 0.44896 0.5816 0.56357 0.0
H138 H 0.45625 0.65598 0.556 0.0
H139 H 0.58035 0.69441 0.5244 0.0
H140 H 0.57165 0.61842 0.53139 0.0
H141 H 0.46669 0.34553 0.53254 0.0
H142 H 0.45909 0.40118 0.55239 0.0
H143 H 0.54639 0.32761 0.57591 0.0
H144 H 0.53872 0.38282 0.59555 0.0
H145 H 0.52733 0.49681 0.67025 0.0
H146 H 0.43025 0.54526 0.67496 0.0
H147 H 0.43447 0.55835 0.64107 0.0
H148 H 0.5311 0.50942 0.63641 0.0
C149 C 0.94077 0.52452 0.87948 0.0
C150 C 0.89884 0.49993 0.88924 0.0
C151 C 0.86779 0.54184 0.87241 0.0
C152 C 0.86274 0.50819 0.88564 0.0
C153 C 0.90966 0.56615 0.86249 0.0
C154 C 0.94581 0.55751 0.866 0.0
U155 U 0.01575 0.51119 0.91557 0.0
O156 O 0.04172 0.46262 0.91778 0.0
O157 O 0.09051 0.53772 0.91686 0.0
C158 C 0.08519 0.4959 0.91664 0.0
C159 C 0.97976 0.51728 0.88386 0.0
C160 C 0.11535 0.48893 0.90361 0.0
C161 C 0.12957 0.44075 0.88228 0.0
C162 C 0.09913 0.44781 0.89327 0.0
C163 C 0.19255 0.51593 0.89154 0.0
C164 C 0.17667 0.4747 0.88137 0.0
C165 C 0.16231 0.52286 0.90256 0.0
C166 C 0.9914 0.52233 0.96721 0.0
C167 C 0.99237 0.48345 0.99597 0.0
C168 C 0.01341 0.56428 0.99666 0.0
C169 C 0.00573 0.5632 0.97741 0.0
C170 C 0.00643 0.52431 0.00618 0.0
C171 C 0.98503 0.48246 0.97667 0.0
C172 C 0.98188 0.52185 0.94696 0.0
O173 O 0.01591 0.55285 0.89148 0.0
O174 O 0.96876 0.4775 0.89194 0.0
O175 O 0.96472 0.48181 0.93832 0.0
O176 O 0.01372 0.55677 0.93718 0.0
H177 H 0.89391 0.47442 0.8998 0.0
H178 H 0.83069 0.48797 0.89324 0.0
H179 H 0.91487 0.5925 0.85231 0.0
H180 H 0.97796 0.57707 0.85839 0.0
H181 H 0.11633 0.40869 0.87457 0.0
H182 H 0.06316 0.42076 0.89388 0.0
H183 H 0.22879 0.54238 0.89148 0.0
H184 H 0.17594 0.55449 0.91061 0.0
H185 H 0.98708 0.45222 0.00292 0.0
H186 H 0.02366 0.5961 0.00418 0.0
H187 H 0.01051 0.59429 0.97049 0.0
H188 H 0.97403 0.45038 0.96924 0.0
C189 C 0.93352 0.41009 0.45833 0.0
C190 C 0.90041 0.38299 0.44487 0.0
C191 C 0.86304 0.31875 0.46705 0.0
C192 C 0.86545 0.33789 0.4492 0.0
C193 C 0.89675 0.34597 0.48042 0.0
C194 C 0.93166 0.39127 0.47608 0.0
U195 U 0.99817 0.50151 0.42162 0.0
O196 O 0.022 0.57616 0.42049 0.0
O197 O 0.07196 0.55234 0.41787 0.0
C198 C 0.0657 0.58806 0.41904 0.0
C199 C 0.97007 0.45768 0.45371 0.0
C200 C 0.09821 0.62606 0.43114 0.0
C201 C 0.13152 0.65713 0.46158 0.0
C202 C 0.09876 0.62062 0.45059 0.0
C203 C 0.16282 0.70473 0.43378 0.0
C204 C 0.16419 0.69957 0.45328 0.0
C205 C 0.13014 0.66835 0.42286 0.0
C206 C 0.96297 0.4667 0.37078 0.0
C207 C 0.99172 0.52138 0.3448 0.0
C208 C 0.9507 0.43867 0.33887 0.0
C209 C 0.94516 0.42991 0.35808 0.0
C210 C 0.97414 0.48449 0.332 0.0
C211 C 0.98637 0.51255 0.36406 0.0
C212 C 0.95771 0.45645 0.39092 0.0
O213 O 0.00525 0.46078 0.44437 0.0
O214 O 0.95538 0.48464 0.44692 0.0
O215 O 0.94239 0.47885 0.4009 0.0
O216 O 0.99226 0.45484 0.39884 0.0
H217 H 0.90139 0.3969 0.43104 0.0
H218 H 0.83976 0.31838 0.43864 0.0
H219 H 0.89633 0.33221 0.49422 0.0
H220 H 0.95717 0.41159 0.48659 0.0
H221 H 0.13135 0.65209 0.47656 0.0
H222 H 0.07421 0.58811 0.4572 0.0
H223 H 0.18789 0.73646 0.42684 0.0
H224 H 0.1303 0.67304 0.40784 0.0
H225 H 0.01028 0.55701 0.33992 0.0
H226 H 0.93625 0.40953 0.32936 0.0
H227 H 0.92705 0.39433 0.36304 0.0
H228 H 1.00069 0.54141 0.37371 0.0
C229 C 0.53631 0.93913 0.79061 0.0
C230 C 0.52972 0.90553 0.77734 0.0
C231 C 0.55835 0.86982 0.79939 0.0
C232 C 0.54045 0.87115 0.7817 0.0
C233 C 0.56547 0.90406 0.81255 0.0
C234 C 0.55449 0.93835 0.80819 0.0
U235 U 0.51056 0.00647 0.75453 0.0
O236 O 0.45812 0.02774 0.75377 0.0
O237 O 0.53189 0.08029 0.75226 0.0
C238 C 0.48927 0.07218 0.75339 0.0
C239 C 0.52454 0.97509 0.78614 0.0
C240 C 0.48082 0.10295 0.76554 0.0
C241 C 0.43037 0.13285 0.77394 0.0
C242 C 0.43755 0.10002 0.76487 0.0
C243 C 0.50925 0.17153 0.78511 0.0
C244 C 0.46644 0.16968 0.78381 0.0
C245 C 0.51641 0.13858 0.77606 0.0
C246 C 0.51455 0.9794 0.703 0.0
C247 C 0.51561 0.02873 0.67765 0.0
C248 C 0.50728 0.95386 0.67083 0.0
C249 C 0.50919 0.94596 0.68994 0.0
C250 C 0.51085 0.9955 0.66444 0.0
C251 C 0.51728 0.02066 0.69679 0.0
C252 C 0.51836 0.9712 0.72298 0.0
O253 O 0.55702 0.01199 0.77749 0.0
O254 O 0.48329 0.95977 0.77887 0.0
O255 O 0.47973 0.95325 0.7326 0.0
O256 O 0.55363 0.00517 0.73172 0.0
H257 H 0.51588 0.90567 0.76364 0.0
H258 H 0.5338 0.84505 0.7713 0.0
H259 H 0.57978 0.90458 0.8262 0.0
H260 H 0.56016 0.96423 0.81856 0.0
H261 H 0.39678 0.12994 0.77287 0.0
H262 H 0.4096 0.07314 0.75676 0.0
H263 H 0.53799 0.19966 0.7924 0.0
H264 H 0.5503 0.1421 0.77676 0.0
H265 H 0.51795 0.0609 0.67319 0.0
H266 H 0.50415 0.92783 0.66102 0.0
H267 H 0.50709 0.91394 0.6945 0.0
H268 H 0.52116 0.04679 0.70672 0.0
C269 C 0.58838 0.51504 0.13082 0.0
C270 C 0.63282 0.54776 0.12441 0.0
C271 C 0.66637 0.5123 0.14389 0.0
C272 C 0.67159 0.54657 0.13101 0.0
C273 C 0.62207 0.48056 0.15066 0.0
C274 C 0.5835 0.48209 0.14425 0.0
U275 U 0.51297 0.51303 0.09004 0.0
O276 O 0.43779 0.46813 0.08638 0.0
O277 O 0.46895 0.54389 0.087 0.0
C278 C 0.4306 0.5033 0.08704 0.0
C279 C 0.54639 0.51292 0.12325 0.0
C280 C 0.3944 0.49816 0.1001 0.0
C281 C 0.37071 0.52068 0.12834 0.0
C282 C 0.40561 0.52295 0.11695 0.0
C283 C 0.3129 0.46661 0.10682 0.0
C284 C 0.32406 0.49318 0.1232 0.0
C285 C 0.34784 0.46926 0.09532 0.0
C286 C 0.55305 0.52284 0.03966 0.0
C287 C 0.50942 0.52937 0.01379 0.0
C288 C 0.57591 0.52102 0.00764 0.0
C289 C 0.58277 0.51951 0.02687 0.0
C290 C 0.53916 0.52597 1.00087 0.0
C291 C 0.51624 0.52766 0.03304 0.0
C292 C 0.56086 0.52136 0.05982 0.0
O293 O 0.55137 0.55068 0.11517 0.0
O294 O 0.51866 0.47483 0.11406 0.0
O295 O 0.53393 0.48135 0.06811 0.0
O296 O 0.56568 0.55703 0.0694 0.0
H297 H 0.63754 0.57347 0.11399 0.0
H298 H 0.70536 0.57111 0.12546 0.0
H299 H 0.61719 0.45395 0.16065 0.0
H300 H 0.5496 0.45667 0.14943 0.0
H301 H 0.38021 0.54124 0.14097 0.0
H302 H 0.44132 0.545 0.12106 0.0
H303 H 0.27726 0.44549 0.10243 0.0
H304 H 0.33853 0.4497 0.08242 0.0
H305 H 0.48055 0.53272 0.00903 0.0
H306 H 0.59977 0.51892 0.99808 0.0
H307 H 0.61142 0.51587 0.03175 0.0
H308 H 0.4928 0.53008 0.04275 0.0
H309 H 0.18224 0.54236 0.15781 0.0
H310 H 0.09662 0.39346 0.15978 0.0
H311 H 0.16151 0.38561 0.1485 0.0
H312 H 0.2408 0.422 0.13534 0.0
H313 H 0.32545 0.57127 0.13429 0.0
H314 H 0.26288 0.57816 0.14815 0.0
C315 C 0.17798 0.50817 0.15598 0.0
C316 C 0.13478 0.46854 0.15936 0.0
C317 C 0.21519 0.50409 0.14959 0.0
C318 C 0.12971 0.42443 0.15725 0.0
C319 C 0.16667 0.42 0.1507 0.0
C320 C 0.24553 0.45592 0.13835 0.0
C321 C 0.28756 0.49608 0.13372 0.0
C322 C 0.20927 0.45966 0.14638 0.0
C323 C 0.29357 0.53987 0.13785 0.0
C324 C 0.25772 0.54387 0.14567 0.0
H325 H 0.69106 0.11525 0.47176 0.0
H326 H 0.68175 0.16327 0.52663 0.0
H327 H 0.75366 0.23587 0.52119 0.0
H328 H 0.81478 0.28889 0.49976 0.0
H329 H 0.82448 0.2414 0.44486 0.0
H330 H 0.75666 0.16583 0.45138 0.0
C331 C 0.70518 0.14117 0.48267 0.0
C332 C 0.68068 0.13376 0.49952 0.0
C333 C 0.74627 0.18342 0.47934 0.0
C334 C 0.69959 0.168 0.51346 0.0
C335 C 0.74071 0.20972 0.51036 0.0
C336 C 0.80274 0.26179 0.48933 0.0
C337 C 0.82457 0.27122 0.47175 0.0
C338 C 0.76369 0.2183 0.49317 0.0
C339 C 0.80788 0.23559 0.45837 0.0
C340 C 0.76921 0.19218 0.46212 0.0
H341 H 0.59436 0.70137 0.80499 0.0
H342 H 0.54123 0.69423 0.8606 0.0
H343 H 0.53796 0.76442 0.85456 0.0
H344 H 0.54294 0.82339 0.83259 0.0
H345 H 0.59596 0.83096 0.77694 0.0
H346 H 0.60585 0.76482 0.78386 0.0
C347 C 0.58291 0.71562 0.81592 0.0
C348 C 0.56783 0.69221 0.8332 0.0
C349 C 0.58023 0.75568 0.81225 0.0
C350 C 0.55284 0.71123 0.84714 0.0
C351 C 0.55076 0.75136 0.84368 0.0
C352 C 0.55753 0.81127 0.82206 0.0
C353 C 0.56819 0.83204 0.80419 0.0
C354 C 0.56327 0.77322 0.82614 0.0
C355 C 0.58648 0.81517 0.79069 0.0
C356 C 0.59248 0.77747 0.79468 0.0
H357 H 0.81559 0.45441 0.15798 0.0
H358 H 0.89756 0.59754 0.17456 0.0
H359 H 0.83165 0.60881 0.16853 0.0
H360 H 0.75112 0.57791 0.15716 0.0
H361 H 0.67039 0.43372 0.14174 0.0
H362 H 0.73554 0.42287 0.14866 0.0
C363 C 0.8191 0.48813 0.16033 0.0
C364 C 0.86147 0.52525 0.16649 0.0
C365 C 0.78131 0.4941 0.15697 0.0
C366 C 0.86523 0.56845 0.16981 0.0
C367 C 0.82766 0.57491 0.16627 0.0
C368 C 0.748 0.54421 0.15539 0.0
C369 C 0.70611 0.50663 0.14895 0.0
C370 C 0.78564 0.53805 0.15961 0.0
C371 C 0.70216 0.46299 0.14683 0.0
C372 C 0.73942 0.4568 0.15072 0.0
H373 H 0.33761 0.83671 0.50134 0.0
H374 H 0.3246 0.93764 0.46789 0.0
H375 H 0.25331 0.87588 0.45421 0.0
H376 H 0.19822 0.79281 0.44983 0.0
H377 H 0.2139 0.69191 0.48208 0.0
H378 H 0.27993 0.75415 0.49838 0.0
C379 C 0.31894 0.84541 0.49125 0.0
C380 C 0.33682 0.89188 0.48558 0.0
C381 C 0.27842 0.80963 0.48314 0.0
C382 C 0.31192 0.90225 0.47247 0.0
C383 C 0.27115 0.8669 0.46459 0.0
C384 C 0.21604 0.7844 0.46044 0.0
C385 C 0.2012 0.73761 0.46457 0.0
C386 C 0.25472 0.82039 0.46948 0.0
C387 C 0.22417 0.72748 0.47867 0.0
C388 C 0.26224 0.76311 0.48792 0.0
H389 H 0.44071 0.3407 0.80137 0.0
H390 H 0.52006 0.3468 0.85003 0.0
H391 H 0.51775 0.27573 0.84042 0.0
H392 H 0.49826 0.21494 0.81706 0.0
H393 H 0.42175 0.2107 0.76775 0.0
H394 H 0.41725 0.27715 0.77893 0.0
C395 C 0.45687 0.32613 0.81004 0.0
C396 C 0.48077 0.3494 0.82634 0.0
C397 C 0.45616 0.28554 0.80427 0.0
C398 C 0.50165 0.32993 0.83734 0.0
C399 C 0.50047 0.28925 0.83184 0.0
C400 C 0.48057 0.22851 0.80876 0.0
C401 C 0.46056 0.20778 0.79154 0.0
C402 C 0.47876 0.26736 0.81511 0.0
C403 C 0.43705 0.22546 0.78115 0.0
C404 C 0.43474 0.26378 0.78747 0.0
H405 H 0.51567 0.86812 0.53751 0.0
H406 H 0.56118 0.87162 0.4809 0.0
H407 H 0.56439 0.80073 0.48688 0.0
H408 H 0.54758 0.73432 0.50768 0.0
H409 H 0.50493 0.73453 0.56464 0.0
H410 H 0.50684 0.8073 0.55894 0.0
C411 C 0.52663 0.85356 0.5265 0.0
C412 C 0.53757 0.87455 0.50873 0.0
C413 C 0.52833 0.8132 0.53004 0.0
C414 C 0.55256 0.85594 0.49469 0.0
C415 C 0.55411 0.81532 0.49809 0.0
C416 C 0.53941 0.75064 0.51892 0.0
C417 C 0.52503 0.72823 0.53645 0.0
C418 C 0.54113 0.79311 0.51563 0.0
C419 C 0.51465 0.75007 0.55085 0.0
C420 C 0.51609 0.79194 0.54766 0.0
H421 H 0.6853 0.55159 0.87244 0.0
H422 H 0.71253 0.56966 0.81323 0.0
H423 H 0.7863 0.57211 0.81819 0.0
H424 H 0.83828 0.56016 0.83925 0.0
H425 H 0.81084 0.54541 0.89865 0.0
H426 H 0.74168 0.55031 0.89369 0.0
C427 C 0.70778 0.55678 0.86065 0.0
C428 C 0.69353 0.55994 0.8425 0.0
C429 C 0.74966 0.558 0.86362 0.0
C430 C 0.72301 0.56727 0.82734 0.0
C431 C 0.76492 0.56828 0.83018 0.0
C432 C 0.81771 0.55893 0.85115 0.0
C433 C 0.82922 0.5511 0.86926 0.0
C434 C 0.77798 0.56239 0.84823 0.0
C435 C 0.80207 0.54977 0.88449 0.0
C436 C 0.76264 0.55294 0.8817 0.0
H437 H 0.09149 0.67392 0.2044 0.0
H438 H 0.16347 0.67226 0.15469 0.0
H439 H 0.23223 0.74358 0.16458 0.0
H440 H 0.27393 0.80341 0.18848 0.0
H441 H 0.20222 0.80278 0.23863 0.0
H442 H 0.13151 0.73595 0.22729 0.0
C443 C 0.12193 0.68942 0.19556 0.0
C444 C 0.12217 0.66738 0.17886 0.0
C445 C 0.16171 0.73006 0.20147 0.0
C446 C 0.16214 0.68823 0.16764 0.0
C447 C 0.20166 0.729 0.17332 0.0
C448 C 0.24282 0.78867 0.19692 0.0
C449 C 0.24361 0.80822 0.21442 0.0
C450 C 0.20219 0.74964 0.19042 0.0
C451 C 0.20266 0.78899 0.22502 0.0
C452 C 0.16217 0.75047 0.2186 0.0
H453 H 0.55914 0.19343 0.51723 0.0
H454 H 0.41428 0.12007 0.50336 0.0
H455 H 0.40716 0.18534 0.51501 0.0
H456 H 0.44098 0.25929 0.53267 0.0
H457 H 0.58621 0.33071 0.54632 0.0
H458 H 0.5944 0.27009 0.53118 0.0
C459 C 0.52608 0.19196 0.51653 0.0
C460 C 0.48714 0.1519 0.50973 0.0
C461 C 0.5223 0.22903 0.5234 0.0
C462 C 0.44471 0.15065 0.50857 0.0
C463 C 0.44063 0.18778 0.51535 0.0
C464 C 0.47453 0.26194 0.53198 0.0
C465 C 0.51278 0.29897 0.54092 0.0
C466 C 0.47897 0.2266 0.52332 0.0
C467 C 0.55608 0.30203 0.53991 0.0
C468 C 0.56084 0.26748 0.53121 0.0
H469 H 0.32372 0.42436 0.85272 0.0
H470 H 0.38809 0.56627 0.83378 0.0
H471 H 0.3194 0.56964 0.84234 0.0
H472 H 0.24573 0.53581 0.85883 0.0
H473 H 0.18285 0.39593 0.88021 0.0
H474 H 0.24533 0.38761 0.86676 0.0
C475 C 0.32189 0.4554 0.85002 0.0
C476 C 0.36044 0.49496 0.84257 0.0
C477 C 0.28279 0.4576 0.85563 0.0
C478 C 0.35846 0.53543 0.83943 0.0
C479 C 0.31939 0.53744 0.84442 0.0
C480 C 0.24552 0.50337 0.86042 0.0
C481 C 0.21012 0.46684 0.87074 0.0
C482 C 0.28209 0.49933 0.85314 0.0
C483 C 0.2097 0.42462 0.87231 0.0
C484 C 0.24562 0.41995 0.86474 0.0
H485 H 0.82669 0.32577 0.15685 0.0
H486 H 0.90609 0.30702 0.20005 0.0
H487 H 0.83735 0.23527 0.21005 0.0
H488 H 0.75325 0.18067 0.20789 0.0
H489 H 0.6745 0.2019 0.16515 0.0
H490 H 0.74448 0.26959 0.1536 0.0
C491 C 0.82928 0.30582 0.16832 0.0
C492 C 0.87163 0.32212 0.17772 0.0
C493 C 0.78952 0.26507 0.1742 0.0
C494 C 0.87406 0.29546 0.19252 0.0
C495 C 0.83465 0.2545 0.19833 0.0
C496 C 0.75146 0.20013 0.19605 0.0
C497 C 0.70855 0.18613 0.18744 0.0
C498 C 0.79195 0.2395 0.18953 0.0
C499 C 0.70701 0.21142 0.17193 0.0
C500 C 0.74702 0.25037 0.16536 0.0
H501 H 0.05446 0.55802 0.09235 0.0
H502 H 0.92502 0.42848 0.09601 0.0
H503 H 0.91874 0.42541 0.06207 0.0
H504 H 0.94861 0.46016 0.0313 0.0
H505 H 0.07698 0.59022 0.0273 0.0
H506 H 0.0849 0.59249 0.06137 0.0
C507 C 0.02497 0.52904 0.08573 0.0
C508 C 0.99028 0.49362 0.09679 0.0
C509 C 0.02124 0.52759 0.06611 0.0
C510 C 0.9522 0.4564 0.08792 0.0
C511 C 0.94853 0.45451 0.06847 0.0
C512 C 0.9786 0.48871 0.03788 0.0
C513 C 0.0122 0.52488 0.0268 0.0
C514 C 0.9827 0.48998 0.05743 0.0
C515 C 0.05046 0.5621 0.03554 0.0
C516 C 0.05507 0.56335 0.05501 0.0
H517 H 0.48556 0.05962 0.42495 0.0
H518 H 0.5526 0.97812 0.42754 0.0
H519 H 0.55812 0.9797 0.39357 0.0
H520 H 0.5451 0.00494 0.36306 0.0
H521 H 0.47986 0.08785 0.36014 0.0
H522 H 0.47271 0.0852 0.39425 0.0
C523 C 0.50126 0.04211 0.41809 0.0
C524 C 0.51859 0.01879 0.42887 0.0
C525 C 0.50479 0.04347 0.39846 0.0
C526 C 0.53909 0.99651 0.41968 0.0
C527 C 0.54223 0.99729 0.40021 0.0
C528 C 0.52892 0.02205 0.36989 0.0
C529 C 0.51287 0.04638 0.35909 0.0
C530 C 0.5253 0.02071 0.38947 0.0
C531 C 0.49275 0.06912 0.36816 0.0
C532 C 0.48852 0.06749 0.38765 0.0
H533 H 0.4465 0.48837 0.76244 0.0
H534 H 0.59566 0.56209 0.76174 0.0
H535 H 0.59529 0.56623 0.72769 0.0
H536 H 0.5529 0.55056 0.6981 0.0
H537 H 0.40403 0.47926 0.69862 0.0
H538 H 0.404 0.47269 0.73274 0.0
C539 C 0.47893 0.50515 0.75484 0.0
C540 C 0.52103 0.52484 0.76468 0.0
C541 C 0.47855 0.50799 0.73522 0.0
C542 C 0.56273 0.54678 0.75458 0.0
C543 C 0.5626 0.54913 0.73508 0.0
C544 C 0.52045 0.53317 0.70569 0.0
C545 C 0.47853 0.51524 0.69588 0.0
C546 C 0.52075 0.53004 0.72527 0.0
C547 C 0.43675 0.49355 0.70589 0.0
C548 C 0.43673 0.48968 0.72538 0.0
H549 H 0.54387 0.06078 0.57991 0.0
H550 H 0.43125 0.92049 0.57234 0.0
H551 H 0.42578 0.9081 0.60607 0.0
H552 H 0.4546 0.93591 0.63771 0.0
H553 H 0.56761 0.07568 0.64539 0.0
H554 H 0.57078 0.08955 0.6117 0.0
C555 C 0.51795 0.02755 0.58561 0.0
C556 C 0.48823 0.99159 0.57351 0.0
C557 C 0.51501 0.0205 0.60509 0.0
C558 C 0.45471 0.94884 0.58124 0.0
C559 C 0.45156 0.94163 0.60057 0.0
C560 C 0.48 0.96937 0.632 0.0
C561 C 0.51095 0.0046 0.64406 0.0
C562 C 0.48185 0.97701 0.61261 0.0
C563 C 0.54311 0.04806 0.63646 0.0
C564 C 0.54515 0.05593 0.61717 0.0
H565 H 0.5112 0.56163 0.91603 0.0
H566 H 0.53848 0.44923 0.90885 0.0
H567 H 0.54453 0.44355 0.94254 0.0
H568 H 0.54413 0.47135 0.97407 0.0
H569 H 0.518 0.58414 0.98169 0.0
H570 H 0.50886 0.58828 0.94791 0.0
C571 C 0.51823 0.53573 0.92183 0.0
C572 C 0.52456 0.5061 0.90981 0.0
C573 C 0.5219 0.53264 0.94134 0.0
C574 C 0.53359 0.4727 0.91766 0.0
C575 C 0.53711 0.46936 0.93697 0.0
C576 C 0.53671 0.49704 0.96834 0.0
C577 C 0.53205 0.52755 0.98039 0.0
C578 C 0.53178 0.49941 0.94893 0.0
C579 C 0.52146 0.55999 0.97275 0.0
C580 C 0.51646 0.56255 0.95341 0.0
H581 H 0.98216 0.53782 0.24655 0.0
H582 H 0.01955 0.43197 0.24165 0.0
H583 H 0.01582 0.42228 0.27549 0.0
H584 H 0.99987 0.442 0.30646 0.0
H585 H 0.96205 0.54723 0.31165 0.0
H586 H 0.96864 0.55939 0.27776 0.0
C587 C 0.98965 0.51272 0.25287 0.0
C588 C 1.00085 0.48551 0.24147 0.0
C589 C 0.98741 0.50719 0.27241 0.0
C590 C 0.01072 0.45337 0.24999 0.0
C591 C 0.00855 0.44771 0.26938 0.0
C592 C 0.99286 0.46746 0.30016 0.0
C593 C 0.98015 0.49341 0.31153 0.0
C594 C 0.99651 0.47408 0.2807 0.0
C595 C 0.97214 0.52697 0.30321 0.0
C596 C 0.97566 0.53375 0.28383 0.0
loop_
_geom_bond_atom_site_label_1
_geom_bond_atom_site_label_2
_geom_bond_distance
_geom_bond_site_symmetry_2
_ccdc_geom_bond_type
O0 Zn1 1.953 . S
O0 C16 1.225 1_655 S
Zn1 O0 1.953 . S
Zn1 O2 1.949 1_655 S
Zn1 O8 1.919 . S
Zn1 O13 1.924 1_655 S
O2 Zn1 1.949 1_455 S
O2 Zn3 1.923 1_455 S
O2 Zn4 1.950 . S
O2 Zn5 1.945 . S
Zn3 O2 1.923 1_655 S
Zn3 O6 1.933 . S
Zn3 O9 1.941 . S
Zn3 O10 1.965 . S
Zn4 O2 1.950 . S
Zn4 O11 1.938 1_455 S
Zn4 O12 1.906 . S
Zn4 O22 1.953 . S
Zn5 O2 1.945 . S
Zn5 O7 1.932 . S
Zn5 O14 1.977 . S
Zn5 O15 1.910 . S
O6 Zn3 1.933 . S
O6 C17 1.226 1_655 S
O7 Zn5 1.932 . S
O7 C17 1.307 . S
O8 Zn1 1.919 . S
O8 C19 1.253 . S
O9 Zn3 1.941 . S
O9 C19 1.283 . S
O10 Zn3 1.965 . S
O10 C18 1.303 . S
O11 Zn4 1.938 1_655 S
O11 C18 1.247 . S
O12 Zn4 1.906 . S
O12 C20 1.304 . S
O13 Zn1 1.924 1_455 S
O13 C21 1.311 . S
O14 Zn5 1.977 . S
O14 C20 1.272 . S
O15 Zn5 1.910 . S
O15 C21 1.231 . S
C16 O0 1.225 1_455 S
C16 O22 1.298 . S
C17 O6 1.226 1_455 S
C17 O7 1.307 . S
C18 O10 1.303 . S
C18 O11 1.247 . S
C19 O8 1.253 . S
C19 O9 1.283 . S
C20 O12 1.304 . S
C20 O14 1.272 . S
C21 O13 1.311 . S
C21 O15 1.231 . S
O22 Zn4 1.953 . S
O22 C16 1.298 . S
O23 Zn24 1.953 . S
O23 C39 1.225 . S
Zn24 O23 1.953 . S
Zn24 O25 1.949 . S
Zn24 O31 1.919 . S
Zn24 O36 1.924 1_545 S
O25 Zn24 1.949 . S
O25 Zn26 1.923 . S
O25 Zn27 1.950 1_545 S
O25 Zn28 1.945 1_545 S
Zn26 O25 1.923 . S
Zn26 O29 1.933 . S
Zn26 O32 1.941 . S
Zn26 O33 1.965 . S
Zn27 O25 1.950 1_565 S
Zn27 O34 1.938 1_565 S
Zn27 O35 1.906 . S
Zn27 O45 1.953 . S
Zn28 O25 1.945 1_565 S
Zn28 O30 1.932 . S
Zn28 O37 1.977 . S
Zn28 O38 1.910 . S
O29 Zn26 1.933 . S
O29 C40 1.226 . S
O30 Zn28 1.932 . S
O30 C40 1.307 1_565 S
O31 Zn24 1.919 . S
O31 C42 1.253 . S
O32 Zn26 1.941 . S
O32 C42 1.283 . S
O33 Zn26 1.965 . S
O33 C41 1.303 . S
O34 Zn27 1.938 1_545 S
O34 C41 1.247 . S
O35 Zn27 1.906 . S
O35 C43 1.304 . S
O36 Zn24 1.924 1_565 S
O36 C44 1.311 . S
O37 Zn28 1.977 . S
O37 C43 1.272 . S
O38 Zn28 1.910 . S
O38 C44 1.231 . S
C39 O23 1.225 . S
C39 O45 1.298 1_545 S
C40 O29 1.226 . S
C40 O30 1.307 1_545 S
C41 O33 1.303 . S
C41 O34 1.247 . S
C42 O31 1.253 . S
C42 O32 1.283 . S
C43 O35 1.304 . S
C43 O37 1.272 . S
C44 O36 1.311 . S
C44 O38 1.231 . S
O45 Zn27 1.953 . S
O45 C39 1.298 1_565 S
O46 Zn47 1.953 . S
O46 C62 1.225 . S
Zn47 O46 1.953 . S
Zn47 O48 1.949 . S
Zn47 O54 1.919 . S
Zn47 O59 1.924 . S
O48 Zn47 1.949 . S
O48 Zn49 1.923 . S
O48 Zn50 1.950 . S
O48 Zn51 1.945 . S
Zn49 O48 1.923 . S
Zn49 O52 1.933 . S
Zn49 O55 1.941 . S
Zn49 O56 1.965 . S
Zn50 O48 1.950 . S
Zn50 O57 1.938 . S
Zn50 O58 1.906 . S
Zn50 O68 1.953 . S
Zn51 O48 1.945 . S
Zn51 O53 1.932 . S
Zn51 O60 1.977 . S
Zn51 O61 1.910 . S
O52 Zn49 1.933 . S
O52 C63 1.226 . S
O53 Zn51 1.932 . S
O53 C63 1.307 . S
O54 Zn47 1.919 . S
O54 C65 1.253 . S
O55 Zn49 1.941 . S
O55 C65 1.283 . S
O56 Zn49 1.965 . S
O56 C64 1.303 . S
O57 Zn50 1.938 . S
O57 C64 1.247 . S
O58 Zn50 1.906 . S
O58 C66 1.304 . S
O59 Zn47 1.924 . S
O59 C67 1.311 . S
O60 Zn51 1.977 . S
O60 C66 1.272 . S
O61 Zn51 1.910 . S
O61 C67 1.231 . S
C62 O46 1.225 . S
C62 O68 1.298 . S
C63 O52 1.226 . S
C63 O53 1.307 . S
C64 O56 1.303 . S
C64 O57 1.247 . S
C65 O54 1.253 . S
C65 O55 1.283 . S
C66 O58 1.304 . S
C66 O60 1.272 . S
C67 O59 1.311 . S
C67 O61 1.231 . S
O68 Zn50 1.953 . S
O68 C62 1.298 . S
C69 C70 1.264 . S
C69 C74 1.479 . S
C69 C79 1.465 . S
C70 C69 1.264 . S
C70 C72 1.339 . S
C70 H97 0.931 . S
C71 C72 1.395 . S
C71 C73 1.320 . S
C72 C70 1.339 . S
C72 C71 1.395 . S
C72 H98 0.929 . S
C73 C71 1.320 . S
C73 C74 1.405 . S
C73 H99 0.930 . S
C74 C69 1.479 . S
C74 C73 1.405 . S
C74 H100 0.931 . S
U75 O76 2.454 1_545 S
U75 O77 2.458 1_545 S
U75 C78 2.984 1_545 S
U75 C79 2.847 . S
U75 C92 2.882 . S
U75 O93 2.441 . S
U75 O94 2.420 . S
U75 O95 2.455 1_545 S
U75 O96 2.449 . S
O76 U75 2.454 1_565 S
O76 C78 1.353 . S
O77 U75 2.458 1_565 S
O77 C78 1.286 . S
C78 U75 2.984 1_565 S
C78 O76 1.353 . S
C78 O77 1.286 . S
C78 C80 1.363 . S
C79 C69 1.465 . S
C79 U75 2.847 . S
C79 O93 1.249 . S
C79 O94 1.202 . S
C80 C78 1.363 . S
C80 C82 1.408 . S
C80 C85 1.342 . S
C81 C82 1.310 . S
C81 C84 1.461 . S
C81 H101 0.932 . S
C82 C80 1.408 . S
C82 C81 1.310 . S
C82 H102 0.930 . S
C83 C84 1.474 . S
C83 C85 1.285 . S
C83 H103 0.929 . S
C84 C81 1.461 . S
C84 C83 1.474 . S
C85 C80 1.342 . S
C85 C83 1.285 . S
C85 H104 0.930 . S
C86 C89 1.424 . S
C86 C91 1.245 1_545 S
C86 C92 1.428 . S
C87 C90 1.260 1_565 S
C87 C91 1.477 . S
C87 H105 0.932 . S
C88 C89 1.384 . S
C88 C90 1.479 . S
C88 H106 0.929 . S
C89 C86 1.424 . S
C89 C88 1.384 . S
C89 H107 0.928 . S
C90 C87 1.260 1_545 S
C90 C88 1.479 . S
C91 C86 1.245 1_565 S
C91 C87 1.477 . S
C91 H108 0.932 . S
C92 U75 2.882 . S
C92 C86 1.428 . S
C92 O95 1.301 1_545 S
C92 O96 1.282 . S
O93 U75 2.441 . S
O93 C79 1.249 . S
O94 U75 2.420 . S
O94 C79 1.202 . S
O95 U75 2.455 1_565 S
O95 C92 1.301 1_565 S
O96 U75 2.449 . S
O96 C92 1.282 . S
H97 C70 0.931 . S
H98 C72 0.929 . S
H99 C73 0.930 . S
H100 C74 0.931 . S
H101 C81 0.932 . S
H102 C82 0.930 . S
H103 C83 0.929 . S
H104 C85 0.930 . S
H105 C87 0.932 . S
H106 C88 0.929 . S
H107 C89 0.928 . S
H108 C91 0.932 . S
C109 C110 1.264 . S
C109 C114 1.479 . S
C109 C119 1.465 . S
C110 C109 1.264 . S
C110 C112 1.339 . S
C110 H137 0.931 . S
C111 C112 1.395 . S
C111 C113 1.320 . S
C112 C110 1.339 . S
C112 C111 1.395 . S
C112 H138 0.929 . S
C113 C111 1.320 . S
C113 C114 1.405 . S
C113 H139 0.930 . S
C114 C109 1.479 . S
C114 C113 1.405 . S
C114 H140 0.931 . S
U115 O116 2.454 . S
U115 O117 2.458 . S
U115 C118 2.984 . S
U115 C119 2.847 . S
U115 C132 2.882 . S
U115 O133 2.441 . S
U115 O134 2.420 . S
U115 O135 2.455 . S
U115 O136 2.449 . S
O116 U115 2.454 . S
O116 C118 1.353 . S
O117 U115 2.458 . S
O117 C118 1.286 . S
C118 U115 2.984 . S
C118 O116 1.353 . S
C118 O117 1.286 . S
C118 C120 1.363 . S
C119 C109 1.465 . S
C119 U115 2.847 . S
C119 O133 1.249 . S
C119 O134 1.202 . S
C120 C118 1.363 . S
C120 C122 1.408 . S
C120 C125 1.342 . S
C121 C122 1.310 . S
C121 C124 1.461 . S
C121 H141 0.932 . S
C122 C120 1.408 . S
C122 C121 1.310 . S
C122 H142 0.930 . S
C123 C124 1.474 . S
C123 C125 1.285 . S
C123 H143 0.929 . S
C124 C121 1.461 . S
C124 C123 1.474 . S
C125 C120 1.342 . S
C125 C123 1.285 . S
C125 H144 0.930 . S
C126 C129 1.424 . S
C126 C131 1.245 . S
C126 C132 1.428 . S
C127 C130 1.260 . S
C127 C131 1.477 . S
C127 H145 0.932 . S
C128 C129 1.384 . S
C128 C130 1.479 . S
C128 H146 0.929 . S
C129 C126 1.424 . S
C129 C128 1.384 . S
C129 H147 0.928 . S
C130 C127 1.260 . S
C130 C128 1.479 . S
C131 C126 1.245 . S
C131 C127 1.477 . S
C131 H148 0.932 . S
C132 U115 2.882 . S
C132 C126 1.428 . S
C132 O135 1.301 . S
C132 O136 1.282 . S
O133 U115 2.441 . S
O133 C119 1.249 . S
O134 U115 2.420 . S
O134 C119 1.202 . S
O135 U115 2.455 . S
O135 C132 1.301 . S
O136 U115 2.449 . S
O136 C132 1.282 . S
H137 C110 0.931 . S
H138 C112 0.929 . S
H139 C113 0.930 . S
H140 C114 0.931 . S
H141 C121 0.932 . S
H142 C122 0.930 . S
H143 C123 0.929 . S
H144 C125 0.930 . S
H145 C127 0.932 . S
H146 C128 0.929 . S
H147 C129 0.928 . S
H148 C131 0.932 . S
C149 C150 1.264 . S
C149 C154 1.479 . S
C149 C159 1.465 . S
C150 C149 1.264 . S
C150 C152 1.339 . S
C150 H177 0.931 . S
C151 C152 1.395 . S
C151 C153 1.320 . S
C152 C150 1.339 . S
C152 C151 1.395 . S
C152 H178 0.929 . S
C153 C151 1.320 . S
C153 C154 1.405 . S
C153 H179 0.930 . S
C154 C149 1.479 . S
C154 C153 1.405 . S
C154 H180 0.931 . S
U155 O156 2.454 . S
U155 O157 2.458 . S
U155 C158 2.984 . S
U155 C159 2.847 1_455 S
U155 C172 2.882 . S
U155 O173 2.441 1_455 S
U155 O174 2.420 1_455 S
U155 O175 2.455 . S
U155 O176 2.449 1_455 S
O156 U155 2.454 . S
O156 C158 1.353 . S
O157 U155 2.458 . S
O157 C158 1.286 . S
C158 U155 2.984 . S
C158 O156 1.353 . S
C158 O157 1.286 . S
C158 C160 1.363 . S
C159 C149 1.465 . S
C159 U155 2.847 1_655 S
C159 O173 1.249 . S
C159 O174 1.202 . S
C160 C158 1.363 . S
C160 C162 1.408 . S
C160 C165 1.342 . S
C161 C162 1.310 . S
C161 C164 1.461 . S
C161 H181 0.932 . S
C162 C160 1.408 . S
C162 C161 1.310 . S
C162 H182 0.930 . S
C163 C164 1.474 . S
C163 C165 1.285 . S
C163 H183 0.929 . S
C164 C161 1.461 . S
C164 C163 1.474 . S
C165 C160 1.342 . S
C165 C163 1.285 . S
C165 H184 0.930 . S
C166 C169 1.424 1_455 S
C166 C171 1.245 . S
C166 C172 1.428 . S
C167 C170 1.260 1_556 S
C167 C171 1.477 . S
C167 H185 0.932 1_556 S
C168 C169 1.384 . S
C168 C170 1.479 1_656 S
C168 H186 0.929 1_556 S
C169 C166 1.424 1_655 S
C169 C168 1.384 . S
C169 H187 0.928 . S
C170 C167 1.260 1_554 S
C170 C168 1.479 1_454 S
C171 C166 1.245 . S
C171 C167 1.477 . S
C171 H188 0.932 . S
C172 U155 2.882 . S
C172 C166 1.428 . S
C172 O175 1.301 . S
C172 O176 1.282 1_455 S
O173 U155 2.441 1_655 S
O173 C159 1.249 . S
O174 U155 2.420 1_655 S
O174 C159 1.202 . S
O175 U155 2.455 . S
O175 C172 1.301 . S
O176 U155 2.449 1_655 S
O176 C172 1.282 1_655 S
H177 C150 0.931 . S
H178 C152 0.929 . S
H179 C153 0.930 . S
H180 C154 0.931 . S
H181 C161 0.932 . S
H182 C162 0.930 . S
H183 C163 0.929 . S
H184 C165 0.930 . S
H185 C167 0.932 1_554 S
H186 C168 0.929 1_554 S
H187 C169 0.928 . S
H188 C171 0.932 . S
C189 C190 1.264 . S
C189 C194 1.479 . S
C189 C199 1.465 . S
C190 C189 1.264 . S
C190 C192 1.339 . S
C190 H217 0.931 . S
C191 C192 1.395 . S
C191 C193 1.320 . S
C192 C190 1.339 . S
C192 C191 1.395 . S
C192 H218 0.929 . S
C193 C191 1.320 . S
C193 C194 1.405 . S
C193 H219 0.930 . S
C194 C189 1.479 . S
C194 C193 1.405 . S
C194 H220 0.931 . S
U195 O196 2.454 1_655 S
U195 O197 2.458 1_655 S
U195 C198 2.984 1_655 S
U195 C199 2.847 . S
U195 C212 2.882 . S
U195 O213 2.441 . S
U195 O214 2.420 . S
U195 O215 2.455 1_655 S
U195 O216 2.449 . S
O196 U195 2.454 1_455 S
O196 C198 1.353 . S
O197 U195 2.458 1_455 S
O197 C198 1.286 . S
C198 U195 2.984 1_455 S
C198 O196 1.353 . S
C198 O197 1.286 . S
C198 C200 1.363 . S
C199 C189 1.465 . S
C199 U195 2.847 . S
C199 O213 1.249 . S
C199 O214 1.202 . S
C200 C198 1.363 . S
C200 C202 1.408 . S
C200 C205 1.342 . S
C201 C202 1.310 . S
C201 C204 1.461 . S
C201 H221 0.932 . S
C202 C200 1.408 . S
C202 C201 1.310 . S
C202 H222 0.930 . S
C203 C204 1.474 . S
C203 C205 1.285 . S
C203 H223 0.929 . S
C204 C201 1.461 . S
C204 C203 1.474 . S
C205 C200 1.342 . S
C205 C203 1.285 . S
C205 H224 0.930 . S
C206 C209 1.424 . S
C206 C211 1.245 1_655 S
C206 C212 1.428 . S
C207 C210 1.260 1_455 S
C207 C211 1.477 . S
C207 H225 0.932 . S
C208 C209 1.384 . S
C208 C210 1.479 . S
C208 H226 0.929 . S
C209 C206 1.424 . S
C209 C208 1.384 . S
C209 H227 0.928 . S
C210 C207 1.260 1_655 S
C210 C208 1.479 . S
C211 C206 1.245 1_455 S
C211 C207 1.477 . S
C211 H228 0.932 . S
C212 U195 2.882 . S
C212 C206 1.428 . S
C212 O215 1.301 1_655 S
C212 O216 1.282 . S
O213 U195 2.441 . S
O213 C199 1.249 . S
O214 U195 2.420 . S
O214 C199 1.202 . S
O215 U195 2.455 1_455 S
O215 C212 1.301 1_455 S
O216 U195 2.449 . S
O216 C212 1.282 . S
H217 C190 0.931 . S
H218 C192 0.929 . S
H219 C193 0.930 . S
H220 C194 0.931 . S
H221 C201 0.932 . S
H222 C202 0.930 . S
H223 C203 0.929 . S
H224 C205 0.930 . S
H225 C207 0.932 . S
H226 C208 0.929 . S
H227 C209 0.928 . S
H228 C211 0.932 . S
C229 C230 1.264 . S
C229 C234 1.479 . S
C229 C239 1.465 . S
C230 C229 1.264 . S
C230 C232 1.339 . S
C230 H257 0.931 . S
C231 C232 1.395 . S
C231 C233 1.320 . S
C232 C230 1.339 . S
C232 C231 1.395 . S
C232 H258 0.929 . S
C233 C231 1.320 . S
C233 C234 1.405 . S
C233 H259 0.930 . S
C234 C229 1.479 . S
C234 C233 1.405 . S
C234 H260 0.931 . S
U235 O236 2.454 1_565 S
U235 O237 2.458 1_565 S
U235 C238 2.984 1_565 S
U235 C239 2.847 . S
U235 C252 2.882 . S
U235 O253 2.441 . S
U235 O254 2.420 . S
U235 O255 2.455 1_565 S
U235 O256 2.449 . S
O236 U235 2.454 1_545 S
O236 C238 1.353 . S
O237 U235 2.458 1_545 S
O237 C238 1.286 . S
C238 U235 2.984 1_545 S
C238 O236 1.353 . S
C238 O237 1.286 . S
C238 C240 1.363 . S
C239 C229 1.465 . S
C239 U235 2.847 . S
C239 O253 1.249 . S
C239 O254 1.202 . S
C240 C238 1.363 . S
C240 C242 1.408 . S
C240 C245 1.342 . S
C241 C242 1.310 . S
C241 C244 1.461 . S
C241 H261 0.932 . S
C242 C240 1.408 . S
C242 C241 1.310 . S
C242 H262 0.930 . S
C243 C244 1.474 . S
C243 C245 1.285 . S
C243 H263 0.929 . S
C244 C241 1.461 . S
C244 C243 1.474 . S
C245 C240 1.342 . S
C245 C243 1.285 . S
C245 H264 0.930 . S
C246 C249 1.424 . S
C246 C251 1.245 1_565 S
C246 C252 1.428 . S
C247 C250 1.260 1_545 S
C247 C251 1.477 . S
C247 H265 0.932 . S
C248 C249 1.384 . S
C248 C250 1.479 . S
C248 H266 0.929 . S
C249 C246 1.424 . S
C249 C248 1.384 . S
C249 H267 0.928 . S
C250 C247 1.260 1_565 S
C250 C248 1.479 . S
C251 C246 1.245 1_545 S
C251 C247 1.477 . S
C251 H268 0.932 . S
C252 U235 2.882 . S
C252 C246 1.428 . S
C252 O255 1.301 1_565 S
C252 O256 1.282 . S
O253 U235 2.441 . S
O253 C239 1.249 . S
O254 U235 2.420 . S
O254 C239 1.202 . S
O255 U235 2.455 1_545 S
O255 C252 1.301 1_545 S
O256 U235 2.449 . S
O256 C252 1.282 . S
H257 C230 0.931 . S
H258 C232 0.929 . S
H259 C233 0.930 . S
H260 C234 0.931 . S
H261 C241 0.932 . S
H262 C242 0.930 . S
H263 C243 0.929 . S
H264 C245 0.930 . S
H265 C247 0.932 . S
H266 C248 0.929 . S
H267 C249 0.928 . S
H268 C251 0.932 . S
C269 C270 1.264 . S
C269 C274 1.479 . S
C269 C279 1.465 . S
C270 C269 1.264 . S
C270 C272 1.339 . S
C270 H297 0.931 . S
C271 C272 1.395 . S
C271 C273 1.320 . S
C272 C270 1.339 . S
C272 C271 1.395 . S
C272 H298 0.929 . S
C273 C271 1.320 . S
C273 C274 1.405 . S
C273 H299 0.930 . S
C274 C269 1.479 . S
C274 C273 1.405 . S
C274 H300 0.931 . S
U275 O276 2.454 . S
U275 O277 2.458 . S
U275 C278 2.984 . S
U275 C279 2.847 . S
U275 C292 2.882 . S
U275 O293 2.441 . S
U275 O294 2.420 . S
U275 O295 2.455 . S
U275 O296 2.449 . S
O276 U275 2.454 . S
O276 C278 1.353 . S
O277 U275 2.458 . S
O277 C278 1.286 . S
C278 U275 2.984 . S
C278 O276 1.353 . S
C278 O277 1.286 . S
C278 C280 1.363 . S
C279 C269 1.465 . S
C279 U275 2.847 . S
C279 O293 1.249 . S
C279 O294 1.202 . S
C280 C278 1.363 . S
C280 C282 1.408 . S
C280 C285 1.342 . S
C281 C282 1.310 . S
C281 C284 1.461 . S
C281 H301 0.932 . S
C282 C280 1.408 . S
C282 C281 1.310 . S
C282 H302 0.930 . S
C283 C284 1.474 . S
C283 C285 1.285 . S
C283 H303 0.929 . S
C284 C281 1.461 . S
C284 C283 1.474 . S
C285 C280 1.342 . S
C285 C283 1.285 . S
C285 H304 0.930 . S
C286 C289 1.424 . S
C286 C291 1.245 . S
C286 C292 1.428 . S
C287 C290 1.260 1_554 S
C287 C291 1.477 . S
C287 H305 0.932 1_554 S
C288 C289 1.384 . S
C288 C290 1.479 1_554 S
C288 H306 0.929 1_554 S
C289 C286 1.424 . S
C289 C288 1.384 . S
C289 H307 0.928 . S
C290 C287 1.260 1_556 S
C290 C288 1.479 1_556 S
C291 C286 1.245 . S
C291 C287 1.477 . S
C291 H308 0.932 . S
C292 U275 2.882 . S
C292 C286 1.428 . S
C292 O295 1.301 . S
C292 O296 1.282 . S
O293 U275 2.441 . S
O293 C279 1.249 . S
O294 U275 2.420 . S
O294 C279 1.202 . S
O295 U275 2.455 . S
O295 C292 1.301 . S
O296 U275 2.449 . S
O296 C292 1.282 . S
H297 C270 0.931 . S
H298 C272 0.929 . S
H299 C273 0.930 . S
H300 C274 0.931 . S
H301 C281 0.932 . S
H302 C282 0.930 . S
H303 C283 0.929 . S
H304 C285 0.930 . S
H305 C287 0.932 1_556 S
H306 C288 0.929 1_556 S
H307 C289 0.928 . S
H308 C291 0.932 . S
H309 C315 0.930 . S
H310 C318 0.930 . S
H311 C319 0.930 . S
H312 C320 0.930 . S
H313 C323 0.930 . S
H314 C324 0.930 . S
C315 H309 0.930 . S
C315 C316 1.355 . S
C315 C317 1.415 . S
C316 C315 1.355 . S
C316 C318 1.419 . S
C317 C315 1.415 . S
C317 C322 1.425 . S
C317 C324 1.409 . S
C318 H310 0.930 . S
C318 C316 1.419 . S
C318 C319 1.362 . S
C319 H311 0.930 . S
C319 C318 1.362 . S
C319 C322 1.409 . S
C320 H312 0.930 . S
C320 C321 1.355 . S
C320 C322 1.415 . S
C321 C320 1.355 . S
C321 C323 1.419 . S
C322 C317 1.425 . S
C322 C319 1.409 . S
C322 C320 1.415 . S
C323 H313 0.930 . S
C323 C321 1.419 . S
C323 C324 1.362 . S
C324 H314 0.930 . S
C324 C317 1.409 . S
C324 C323 1.362 . S
H325 C331 0.930 . S
H326 C334 0.930 . S
H327 C335 0.930 . S
H328 C336 0.930 . S
H329 C339 0.930 . S
H330 C340 0.930 . S
C331 H325 0.930 . S
C331 C332 1.355 . S
C331 C333 1.415 . S
C332 C331 1.355 . S
C332 C334 1.419 . S
C333 C331 1.415 . S
C333 C338 1.425 . S
C333 C340 1.409 . S
C334 H326 0.930 . S
C334 C332 1.419 . S
C334 C335 1.362 . S
C335 H327 0.930 . S
C335 C334 1.362 . S
C335 C338 1.409 . S
C336 H328 0.930 . S
C336 C337 1.355 . S
C336 C338 1.415 . S
C337 C336 1.355 . S
C337 C339 1.419 . S
C338 C333 1.425 . S
C338 C335 1.409 . S
C338 C336 1.415 . S
C339 H329 0.930 . S
C339 C337 1.419 . S
C339 C340 1.362 . S
C340 H330 0.930 . S
C340 C333 1.409 . S
C340 C339 1.362 . S
H341 C347 0.930 . S
H342 C350 0.930 . S
H343 C351 0.930 . S
H344 C352 0.930 . S
H345 C355 0.930 . S
H346 C356 0.930 . S
C347 H341 0.930 . S
C347 C348 1.355 . S
C347 C349 1.415 . S
C348 C347 1.355 . S
C348 C350 1.419 . S
C349 C347 1.415 . S
C349 C354 1.425 . S
C349 C356 1.409 . S
C350 H342 0.930 . S
C350 C348 1.419 . S
C350 C351 1.362 . S
C351 H343 0.930 . S
C351 C350 1.362 . S
C351 C354 1.409 . S
C352 H344 0.930 . S
C352 C353 1.355 . S
C352 C354 1.415 . S
C353 C352 1.355 . S
C353 C355 1.419 . S
C354 C349 1.425 . S
C354 C351 1.409 . S
C354 C352 1.415 . S
C355 H345 0.930 . S
C355 C353 1.419 . S
C355 C356 1.362 . S
C356 H346 0.930 . S
C356 C349 1.409 . S
C356 C355 1.362 . S
H357 C363 0.930 . S
H358 C366 0.930 . S
H359 C367 0.930 . S
H360 C368 0.930 . S
H361 C371 0.930 . S
H362 C372 0.930 . S
C363 H357 0.930 . S
C363 C364 1.355 . S
C363 C365 1.415 . S
C364 C363 1.355 . S
C364 C366 1.419 . S
C365 C363 1.415 . S
C365 C370 1.425 . S
C365 C372 1.409 . S
C366 H358 0.930 . S
C366 C364 1.419 . S
C366 C367 1.362 . S
C367 H359 0.930 . S
C367 C366 1.362 . S
C367 C370 1.409 . S
C368 H360 0.930 . S
C368 C369 1.355 . S
C368 C370 1.415 . S
C369 C368 1.355 . S
C369 C371 1.419 . S
C370 C365 1.425 . S
C370 C367 1.409 . S
C370 C368 1.415 . S
C371 H361 0.930 . S
C371 C369 1.419 . S
C371 C372 1.362 . S
C372 H362 0.930 . S
C372 C365 1.409 . S
C372 C371 1.362 . S
H373 C379 0.930 . S
H374 C382 0.930 . S
H375 C383 0.930 . S
H376 C384 0.930 . S
H377 C387 0.930 . S
H378 C388 0.930 . S
C379 H373 0.930 . S
C379 C380 1.355 . S
C379 C381 1.415 . S
C380 C379 1.355 . S
C380 C382 1.419 . S
C381 C379 1.415 . S
C381 C386 1.425 . S
C381 C388 1.409 . S
C382 H374 0.930 . S
C382 C380 1.419 . S
C382 C383 1.362 . S
C383 H375 0.930 . S
C383 C382 1.362 . S
C383 C386 1.409 . S
C384 H376 0.930 . S
C384 C385 1.355 . S
C384 C386 1.415 . S
C385 C384 1.355 . S
C385 C387 1.419 . S
C386 C381 1.425 . S
C386 C383 1.409 . S
C386 C384 1.415 . S
C387 H377 0.930 . S
C387 C385 1.419 . S
C387 C388 1.362 . S
C388 H378 0.930 . S
C388 C381 1.409 . S
C388 C387 1.362 . S
H389 C395 0.930 . S
H390 C398 0.930 . S
H391 C399 0.930 . S
H392 C400 0.930 . S
H393 C403 0.930 . S
H394 C404 0.930 . S
C395 H389 0.930 . S
C395 C396 1.355 . S
C395 C397 1.415 . S
C396 C395 1.355 . S
C396 C398 1.419 . S
C397 C395 1.415 . S
C397 C402 1.425 . S
C397 C404 1.409 . S
C398 H390 0.930 . S
C398 C396 1.419 . S
C398 C399 1.362 . S
C399 H391 0.930 . S
C399 C398 1.362 . S
C399 C402 1.409 . S
C400 H392 0.930 . S
C400 C401 1.355 . S
C400 C402 1.415 . S
C401 C400 1.355 . S
C401 C403 1.419 . S
C402 C397 1.425 . S
C402 C399 1.409 . S
C402 C400 1.415 . S
C403 H393 0.930 . S
C403 C401 1.419 . S
C403 C404 1.362 . S
C404 H394 0.930 . S
C404 C397 1.409 . S
C404 C403 1.362 . S
H405 C411 0.930 . S
H406 C414 0.930 . S
H407 C415 0.930 . S
H408 C416 0.930 . S
H409 C419 0.930 . S
H410 C420 0.930 . S
C411 H405 0.930 . S
C411 C412 1.355 . S
C411 C413 1.415 . S
C412 C411 1.355 . S
C412 C414 1.419 . S
C413 C411 1.415 . S
C413 C418 1.425 . S
C413 C420 1.409 . S
C414 H406 0.930 . S
C414 C412 1.419 . S
C414 C415 1.362 . S
C415 H407 0.930 . S
C415 C414 1.362 . S
C415 C418 1.409 . S
C416 H408 0.930 . S
C416 C417 1.355 . S
C416 C418 1.415 . S
C417 C416 1.355 . S
C417 C419 1.419 . S
C418 C413 1.425 . S
C418 C415 1.409 . S
C418 C416 1.415 . S
C419 H409 0.930 . S
C419 C417 1.419 . S
C419 C420 1.362 . S
C420 H410 0.930 . S
C420 C413 1.409 . S
C420 C419 1.362 . S
H421 C427 0.930 . S
H422 C430 0.930 . S
H423 C431 0.930 . S
H424 C432 0.930 . S
H425 C435 0.930 . S
H426 C436 0.930 . S
C427 H421 0.930 . S
C427 C428 1.355 . S
C427 C429 1.415 . S
C428 C427 1.355 . S
C428 C430 1.419 . S
C429 C427 1.415 . S
C429 C434 1.425 . S
C429 C436 1.409 . S
C430 H422 0.930 . S
C430 C428 1.419 . S
C430 C431 1.362 . S
C431 H423 0.930 . S
C431 C430 1.362 . S
C431 C434 1.409 . S
C432 H424 0.930 . S
C432 C433 1.355 . S
C432 C434 1.415 . S
C433 C432 1.355 . S
C433 C435 1.419 . S
C434 C429 1.425 . S
C434 C431 1.409 . S
C434 C432 1.415 . S
C435 H425 0.930 . S
C435 C433 1.419 . S
C435 C436 1.362 . S
C436 H426 0.930 . S
C436 C429 1.409 . S
C436 C435 1.362 . S
H437 C443 0.930 . S
H438 C446 0.930 . S
H439 C447 0.930 . S
H440 C448 0.930 . S
H441 C451 0.930 . S
H442 C452 0.930 . S
C443 H437 0.930 . S
C443 C444 1.355 . S
C443 C445 1.415 . S
C444 C443 1.355 . S
C444 C446 1.419 . S
C445 C443 1.415 . S
C445 C450 1.425 . S
C445 C452 1.409 . S
C446 H438 0.930 . S
C446 C444 1.419 . S
C446 C447 1.362 . S
C447 H439 0.930 . S
C447 C446 1.362 . S
C447 C450 1.409 . S
C448 H440 0.930 . S
C448 C449 1.355 . S
C448 C450 1.415 . S
C449 C448 1.355 . S
C449 C451 1.419 . S
C450 C445 1.425 . S
C450 C447 1.409 . S
C450 C448 1.415 . S
C451 H441 0.930 . S
C451 C449 1.419 . S
C451 C452 1.362 . S
C452 H442 0.930 . S
C452 C445 1.409 . S
C452 C451 1.362 . S
H453 C459 0.930 . S
H454 C462 0.930 . S
H455 C463 0.930 . S
H456 C464 0.930 . S
H457 C467 0.930 . S
H458 C468 0.930 . S
C459 H453 0.930 . S
C459 C460 1.355 . S
C459 C461 1.415 . S
C460 C459 1.355 . S
C460 C462 1.419 . S
C461 C459 1.415 . S
C461 C466 1.425 . S
C461 C468 1.409 . S
C462 H454 0.930 . S
C462 C460 1.419 . S
C462 C463 1.362 . S
C463 H455 0.930 . S
C463 C462 1.362 . S
C463 C466 1.409 . S
C464 H456 0.930 . S
C464 C465 1.355 . S
C464 C466 1.415 . S
C465 C464 1.355 . S
C465 C467 1.419 . S
C466 C461 1.425 . S
C466 C463 1.409 . S
C466 C464 1.415 . S
C467 H457 0.930 . S
C467 C465 1.419 . S
C467 C468 1.362 . S
C468 H458 0.930 . S
C468 C461 1.409 . S
C468 C467 1.362 . S
H469 C475 0.930 . S
H470 C478 0.930 . S
H471 C479 0.930 . S
H472 C480 0.930 . S
H473 C483 0.930 . S
H474 C484 0.930 . S
C475 H469 0.930 . S
C475 C476 1.355 . S
C475 C477 1.415 . S
C476 C475 1.355 . S
C476 C478 1.419 . S
C477 C475 1.415 . S
C477 C482 1.425 . S
C477 C484 1.409 . S
C478 H470 0.930 . S
C478 C476 1.419 . S
C478 C479 1.362 . S
C479 H471 0.930 . S
C479 C478 1.362 . S
C479 C482 1.409 . S
C480 H472 0.930 . S
C480 C481 1.355 . S
C480 C482 1.415 . S
C481 C480 1.355 . S
C481 C483 1.419 . S
C482 C477 1.425 . S
C482 C479 1.409 . S
C482 C480 1.415 . S
C483 H473 0.930 . S
C483 C481 1.419 . S
C483 C484 1.362 . S
C484 H474 0.930 . S
C484 C477 1.409 . S
C484 C483 1.362 . S
H485 C491 0.930 . S
H486 C494 0.930 . S
H487 C495 0.930 . S
H488 C496 0.930 . S
H489 C499 0.930 . S
H490 C500 0.930 . S
C491 H485 0.930 . S
C491 C492 1.355 . S
C491 C493 1.415 . S
C492 C491 1.355 . S
C492 C494 1.419 . S
C493 C491 1.415 . S
C493 C498 1.425 . S
C493 C500 1.409 . S
C494 H486 0.930 . S
C494 C492 1.419 . S
C494 C495 1.362 . S
C495 H487 0.930 . S
C495 C494 1.362 . S
C495 C498 1.409 . S
C496 H488 0.930 . S
C496 C497 1.355 . S
C496 C498 1.415 . S
C497 C496 1.355 . S
C497 C499 1.419 . S
C498 C493 1.425 . S
C498 C495 1.409 . S
C498 C496 1.415 . S
C499 H489 0.930 . S
C499 C497 1.419 . S
C499 C500 1.362 . S
C500 H490 0.930 . S
C500 C493 1.409 . S
C500 C499 1.362 . S
H501 C507 0.930 . S
H502 C510 0.930 . S
H503 C511 0.930 . S
H504 C512 0.930 . S
H505 C515 0.930 . S
H506 C516 0.930 . S
C507 H501 0.930 . S
C507 C508 1.355 . S
C507 C509 1.415 . S
C508 C507 1.355 . S
C508 C510 1.419 . S
C509 C507 1.415 . S
C509 C514 1.425 . S
C509 C516 1.409 . S
C510 H502 0.930 . S
C510 C508 1.419 . S
C510 C511 1.362 . S
C511 H503 0.930 . S
C511 C510 1.362 . S
C511 C514 1.409 . S
C512 H504 0.930 . S
C512 C513 1.355 . S
C512 C514 1.415 . S
C513 C512 1.355 . S
C513 C515 1.419 . S
C514 C509 1.425 . S
C514 C511 1.409 . S
C514 C512 1.415 . S
C515 H505 0.930 . S
C515 C513 1.419 . S
C515 C516 1.362 . S
C516 H506 0.930 . S
C516 C509 1.409 . S
C516 C515 1.362 . S
H517 C523 0.930 . S
H518 C526 0.930 . S
H519 C527 0.930 . S
H520 C528 0.930 . S
H521 C531 0.930 . S
H522 C532 0.930 . S
C523 H517 0.930 . S
C523 C524 1.355 . S
C523 C525 1.415 . S
C524 C523 1.355 . S
C524 C526 1.419 1_545 S
C525 C523 1.415 . S
C525 C530 1.425 1_545 S
C525 C532 1.409 . S
C526 H518 0.930 . S
C526 C524 1.419 1_565 S
C526 C527 1.362 . S
C527 H519 0.930 . S
C527 C526 1.362 . S
C527 C530 1.409 . S
C528 H520 0.930 . S
C528 C529 1.355 1_565 S
C528 C530 1.415 . S
C529 C528 1.355 1_545 S
C529 C531 1.419 . S
C530 C525 1.425 1_565 S
C530 C527 1.409 . S
C530 C528 1.415 . S
C531 H521 0.930 . S
C531 C529 1.419 . S
C531 C532 1.362 . S
C532 H522 0.930 . S
C532 C525 1.409 . S
C532 C531 1.362 . S
H533 C539 0.930 . S
H534 C542 0.930 . S
H535 C543 0.930 . S
H536 C544 0.930 . S
H537 C547 0.930 . S
H538 C548 0.930 . S
C539 H533 0.930 . S
C539 C540 1.355 . S
C539 C541 1.415 . S
C540 C539 1.355 . S
C540 C542 1.419 . S
C541 C539 1.415 . S
C541 C546 1.425 . S
C541 C548 1.409 . S
C542 H534 0.930 . S
C542 C540 1.419 . S
C542 C543 1.362 . S
C543 H535 0.930 . S
C543 C542 1.362 . S
C543 C546 1.409 . S
C544 H536 0.930 . S
C544 C545 1.355 . S
C544 C546 1.415 . S
C545 C544 1.355 . S
C545 C547 1.419 . S
C546 C541 1.425 . S
C546 C543 1.409 . S
C546 C544 1.415 . S
C547 H537 0.930 . S
C547 C545 1.419 . S
C547 C548 1.362 . S
C548 H538 0.930 . S
C548 C541 1.409 . S
C548 C547 1.362 . S
H549 C555 0.930 . S
H550 C558 0.930 . S
H551 C559 0.930 . S
H552 C560 0.930 . S
H553 C563 0.930 . S
H554 C564 0.930 . S
C555 H549 0.930 . S
C555 C556 1.355 . S
C555 C557 1.415 . S
C556 C555 1.355 . S
C556 C558 1.418 1_545 S
C557 C555 1.415 . S
C557 C562 1.425 1_545 S
C557 C564 1.409 . S
C558 H550 0.930 . S
C558 C556 1.418 1_565 S
C558 C559 1.362 . S
C559 H551 0.930 . S
C559 C558 1.362 . S
C559 C562 1.409 . S
C560 H552 0.930 . S
C560 C561 1.355 1_565 S
C560 C562 1.415 . S
C561 C560 1.355 1_545 S
C561 C563 1.419 . S
C562 C557 1.425 1_565 S
C562 C559 1.409 . S
C562 C560 1.415 . S
C563 H553 0.930 . S
C563 C561 1.419 . S
C563 C564 1.362 . S
C564 H554 0.930 . S
C564 C557 1.409 . S
C564 C563 1.362 . S
H565 C571 0.930 . S
H566 C574 0.930 . S
H567 C575 0.930 . S
H568 C576 0.930 . S
H569 C579 0.930 . S
H570 C580 0.930 . S
C571 H565 0.930 . S
C571 C572 1.355 . S
C571 C573 1.415 . S
C572 C571 1.355 . S
C572 C574 1.419 . S
C573 C571 1.415 . S
C573 C578 1.425 . S
C573 C580 1.409 . S
C574 H566 0.930 . S
C574 C572 1.419 . S
C574 C575 1.362 . S
C575 H567 0.930 . S
C575 C574 1.362 . S
C575 C578 1.409 . S
C576 H568 0.930 . S
C576 C577 1.355 . S
C576 C578 1.415 . S
C577 C576 1.355 . S
C577 C579 1.419 . S
C578 C573 1.425 . S
C578 C575 1.409 . S
C578 C576 1.415 . S
C579 H569 0.930 . S
C579 C577 1.419 . S
C579 C580 1.362 . S
C580 H570 0.930 . S
C580 C573 1.409 . S
C580 C579 1.362 . S
H581 C587 0.930 . S
H582 C590 0.930 . S
H583 C591 0.930 . S
H584 C592 0.930 . S
H585 C595 0.930 . S
H586 C596 0.930 . S
C587 H581 0.930 . S
C587 C588 1.355 1_655 S
C587 C589 1.415 . S
C588 C587 1.355 1_455 S
C588 C590 1.419 . S
C589 C587 1.415 . S
C589 C594 1.425 1_655 S
C589 C596 1.409 . S
C590 H582 0.930 . S
C590 C588 1.419 . S
C590 C591 1.362 . S
C591 H583 0.930 . S
C591 C590 1.362 . S
C591 C594 1.409 . S
C592 H584 0.930 . S
C592 C593 1.355 1_455 S
C592 C594 1.415 . S
C593 C592 1.355 1_655 S
C593 C595 1.419 . S
C594 C589 1.425 1_455 S
C594 C591 1.409 . S
C594 C592 1.415 . S
C595 H585 0.930 . S
C595 C593 1.419 . S
C595 C596 1.362 . S
C596 H586 0.930 . S
C596 C589 1.409 . S
C596 C595 1.362 . S
C316 C20 1.224 . S
C321 C284 1.265 . S
C332 C41 1.261 . S
C337 C191 1.266 . S
C348 C64 1.289 . S
C353 C231 1.303 . S
C364 C19 1.297 . S
C369 C271 1.330 . S
C385 C204 1.295 . S
C380 C44 1.297 . S
C401 C244 1.246 . S
C396 C67 1.243 . S
C412 C43 1.151 . S
C417 C111 1.236 . S
C428 C66 1.197 . S
C433 C151 1.221 . S
C444 C21 1.242 . S
C449 C84 1.241 . S
C465 C124 1.307 . S
C460 C42 1.292 . S
C481 C164 1.304 . S
C476 C65 1.237 . S
C492 C18 1.293 . S
C497 C71 1.293 . S
C513 C170 1.462 . S
C508 C17 1.456 . S
C524 C39 1.454 . S
C529 C90 1.440 . S
C540 C62 1.470 . S
C545 C130 1.452 . S
C561 C250 1.447 1_545 S
C556 C40 1.443 . S
C577 C290 1.468 . S
C572 C63 1.461 . S
C588 C16 1.458 . S
C593 C210 1.429 . S
