# Generated by pormake.
# Topology myd, (4,6)-cn, num edge types: 1
# Building blocks:
#     Node 0, Type 0, BuildingBlock: NAWXER_clean_sbu_0, # of connection points: 4
#     Node 1, Type 0, BuildingBlock: NAWXER_clean_sbu_0, # of connection points: 4
#     Node 2, Type 0, BuildingBlock: NAWXER_clean_sbu_0, # of connection points: 4
#     Node 3, Type 0, BuildingBlock: NAWXER_clean_sbu_0, # of connection points: 4
#     Node 4, Type 0, BuildingBlock: NAWXER_clean_sbu_0, # of connection points: 4
#     Node 5, Type 0, BuildingBlock: NAWXER_clean_sbu_0, # of connection points: 4
#     Node 6, Type 0, BuildingBlock: NAWXER_clean_sbu_0, # of connection points: 4
#     Node 7, Type 0, BuildingBlock: NAWXER_clean_sbu_0, # of connection points: 4
#     Node 8, Type 0, BuildingBlock: NAWXER_clean_sbu_0, # of connection points: 4
#     Node 9, Type 0, BuildingBlock: NAWXER_clean_sbu_0, # of connection points: 4
#     Node 10, Type 0, BuildingBlock: NAWXER_clean_sbu_0, # of connection points: 4
#     Node 11, Type 0, BuildingBlock: NAWXER_clean_sbu_0, # of connection points: 4
#     Node 12, Type 1, BuildingBlock: VOLQOD_clean_sbu_1, # of connection points: 6
#     Node 13, Type 1, BuildingBlock: VOLQOD_clean_sbu_1, # of connection points: 6
#     Node 14, Type 1, BuildingBlock: VOLQOD_clean_sbu_1, # of connection points: 6
#     Node 15, Type 1, BuildingBlock: VOLQOD_clean_sbu_1, # of connection points: 6
#     Node 16, Type 1, BuildingBlock: VOLQOD_clean_sbu_1, # of connection points: 6
#     Node 17, Type 1, BuildingBlock: VOLQOD_clean_sbu_1, # of connection points: 6
#     Node 18, Type 1, BuildingBlock: VOLQOD_clean_sbu_1, # of connection points: 6
#     Node 19, Type 1, BuildingBlock: VOLQOD_clean_sbu_1, # of connection points: 6
#     Edge 20, Type (0, 1), BuildingBlock: KIFKEQ_clean_linker_1, # of connection points: 2
#     Edge 21, Type (0, 1), BuildingBlock: KIFKEQ_clean_linker_1, # of connection points: 2
#     Edge 22, Type (0, 1), BuildingBlock: KIFKEQ_clean_linker_1, # of connection points: 2
#     Edge 23, Type (0, 1), BuildingBlock: KIFKEQ_clean_linker_1, # of connection points: 2
#     Edge 24, Type (0, 1), BuildingBlock: KIFKEQ_clean_linker_1, # of connection points: 2
#     Edge 25, Type (0, 1), BuildingBlock: KIFKEQ_clean_linker_1, # of connection points: 2
#     Edge 26, Type (0, 1), BuildingBlock: KIFKEQ_clean_linker_1, # of connection points: 2
#     Edge 27, Type (0, 1), BuildingBlock: KIFKEQ_clean_linker_1, # of connection points: 2
#     Edge 28, Type (0, 1), BuildingBlock: KIFKEQ_clean_linker_1, # of connection points: 2
#     Edge 29, Type (0, 1), BuildingBlock: KIFKEQ_clean_linker_1, # of connection points: 2
#     Edge 30, Type (0, 1), BuildingBlock: KIFKEQ_clean_linker_1, # of connection points: 2
#     Edge 31, Type (0, 1), BuildingBlock: KIFKEQ_clean_linker_1, # of connection points: 2
#     Edge 32, Type (0, 1), BuildingBlock: KIFKEQ_clean_linker_1, # of connection points: 2
#     Edge 33, Type (0, 1), BuildingBlock: KIFKEQ_clean_linker_1, # of connection points: 2
#     Edge 34, Type (0, 1), BuildingBlock: KIFKEQ_clean_linker_1, # of connection points: 2
#     Edge 35, Type (0, 1), BuildingBlock: KIFKEQ_clean_linker_1, # of connection points: 2
#     Edge 36, Type (0, 1), BuildingBlock: KIFKEQ_clean_linker_1, # of connection points: 2
#     Edge 37, Type (0, 1), BuildingBlock: KIFKEQ_clean_linker_1, # of connection points: 2
#     Edge 38, Type (0, 1), BuildingBlock: KIFKEQ_clean_linker_1, # of connection points: 2
#     Edge 39, Type (0, 1), BuildingBlock: KIFKEQ_clean_linker_1, # of connection points: 2
#     Edge 40, Type (0, 1), BuildingBlock: KIFKEQ_clean_linker_1, # of connection points: 2
#     Edge 41, Type (0, 1), BuildingBlock: KIFKEQ_clean_linker_1, # of connection points: 2
#     Edge 42, Type (0, 1), BuildingBlock: KIFKEQ_clean_linker_1, # of connection points: 2
#     Edge 43, Type (0, 1), BuildingBlock: KIFKEQ_clean_linker_1, # of connection points: 2
#     Edge 44, Type (0, 1), BuildingBlock: KIFKEQ_clean_linker_1, # of connection points: 2
#     Edge 45, Type (0, 1), BuildingBlock: KIFKEQ_clean_linker_1, # of connection points: 2
#     Edge 46, Type (0, 1), BuildingBlock: KIFKEQ_clean_linker_1, # of connection points: 2
#     Edge 47, Type (0, 1), BuildingBlock: KIFKEQ_clean_linker_1, # of connection points: 2
#     Edge 48, Type (0, 1), BuildingBlock: KIFKEQ_clean_linker_1, # of connection points: 2
#     Edge 49, Type (0, 1), BuildingBlock: KIFKEQ_clean_linker_1, # of connection points: 2
#     Edge 50, Type (0, 1), BuildingBlock: KIFKEQ_clean_linker_1, # of connection points: 2
#     Edge 51, Type (0, 1), BuildingBlock: KIFKEQ_clean_linker_1, # of connection points: 2
#     Edge 52, Type (0, 1), BuildingBlock: KIFKEQ_clean_linker_1, # of connection points: 2
#     Edge 53, Type (0, 1), BuildingBlock: KIFKEQ_clean_linker_1, # of connection points: 2
#     Edge 54, Type (0, 1), BuildingBlock: KIFKEQ_clean_linker_1, # of connection points: 2
#     Edge 55, Type (0, 1), BuildingBlock: KIFKEQ_clean_linker_1, # of connection points: 2
#     Edge 56, Type (0, 1), BuildingBlock: KIFKEQ_clean_linker_1, # of connection points: 2
#     Edge 57, Type (0, 1), BuildingBlock: KIFKEQ_clean_linker_1, # of connection points: 2
#     Edge 58, Type (0, 1), BuildingBlock: KIFKEQ_clean_linker_1, # of connection points: 2
#     Edge 59, Type (0, 1), BuildingBlock: KIFKEQ_clean_linker_1, # of connection points: 2
#     Edge 60, Type (0, 1), BuildingBlock: KIFKEQ_clean_linker_1, # of connection points: 2
#     Edge 61, Type (0, 1), BuildingBlock: KIFKEQ_clean_linker_1, # of connection points: 2
#     Edge 62, Type (0, 1), BuildingBlock: KIFKEQ_clean_linker_1, # of connection points: 2
#     Edge 63, Type (0, 1), BuildingBlock: KIFKEQ_clean_linker_1, # of connection points: 2
#     Edge 64, Type (0, 1), BuildingBlock: KIFKEQ_clean_linker_1, # of connection points: 2
#     Edge 65, Type (0, 1), BuildingBlock: KIFKEQ_clean_linker_1, # of connection points: 2
#     Edge 66, Type (0, 1), BuildingBlock: KIFKEQ_clean_linker_1, # of connection points: 2
#     Edge 67, Type (0, 1), BuildingBlock: KIFKEQ_clean_linker_1, # of connection points: 2
# Relax obj value: 0.200
# Max RMSD: 0.165
# Mean RMSD: 0.125
data_MOF--net-myd--node1-NAWXER_clean_sbu_0--node2-VOLQOD_clean_sbu_1--edge1-KIFKEQ_clean_linker_1
_symmetry_space_group_name_H-M    P1
_symmetry_Int_Tables_number       1
_symmetry_cell_setting            triclinic
loop_
_symmetry_equiv_pos_as_xyz
'x, y, z'
_cell_length_a     47.447955
_cell_length_b     47.50188
_cell_length_c     47.560338
_cell_angle_alpha  91.191656
_cell_angle_beta   89.8978
_cell_angle_gamma 91.110547
loop_
_atom_site_label
_atom_site_type_symbol
_atom_site_fract_x
_atom_site_fract_y
_atom_site_fract_z
_atom_type_partial_charge
C0 C 0.03274 0.22308 0.28197 0.0
C1 C 0.02585 0.29081 0.36095 0.0
O2 O 0.05347 0.2357 0.29409 0.0
Zn3 Zn 0.03131 0.25558 0.32276 0.0
O4 O 0.00771 0.22672 0.29127 0.0
Zn5 Zn 0.98611 0.24909 0.32366 0.0
O6 O 0.96208 0.27234 0.30082 0.0
O7 O 0.0075 0.2833 0.29773 0.0
O8 O 0.00222 0.27957 0.35332 0.0
O9 O 0.04853 0.28238 0.34949 0.0
O10 O 0.01706 0.22143 0.34746 0.0
O11 O 0.97066 0.21851 0.3462 0.0
C12 C 0.98187 0.28783 0.29106 0.0
C13 C 0.99401 0.20899 0.35456 0.0
C14 C 0.03952 0.78335 0.21887 0.0
C15 C 0.03518 0.71385 0.14179 0.0
O16 O 0.06036 0.77298 0.20567 0.0
Zn17 Zn 0.03846 0.75056 0.17845 0.0
O18 O 0.0144 0.77716 0.21073 0.0
Zn19 Zn 0.99351 0.75207 0.17909 0.0
O20 O 0.97146 0.72719 0.20275 0.0
O21 O 0.01744 0.72093 0.20521 0.0
O22 O 0.01081 0.72255 0.14931 0.0
O23 O 0.05723 0.72498 0.1528 0.0
O24 O 0.02108 0.78204 0.1524 0.0
O25 O 0.97483 0.77996 0.15701 0.0
C26 C 0.99228 0.71409 0.21262 0.0
C27 C 0.99669 0.79139 0.14639 0.0
C28 C 0.35955 0.02656 0.20924 0.0
C29 C 0.29458 0.02417 0.28938 0.0
O30 O 0.35301 0.00157 0.21683 0.0
Zn31 Zn 0.32762 0.98157 0.24767 0.0
O32 O 0.34986 0.0475 0.22297 0.0
Zn33 Zn 0.32758 0.02672 0.25023 0.0
O34 O 0.35756 0.00739 0.27701 0.0
O35 O 0.35402 0.96134 0.27031 0.0
O36 O 0.30433 0.0463 0.27786 0.0
O37 O 0.3017 0.99983 0.27998 0.0
O38 O 0.29976 0.96137 0.22422 0.0
O39 O 0.29515 0.00758 0.22493 0.0
C40 C 0.36525 0.98252 0.28309 0.0
C41 C 0.28665 0.98305 0.21661 0.0
C42 C 0.72811 0.47605 0.21631 0.0
C43 C 0.66101 0.49065 0.29416 0.0
O44 O 0.71684 0.45657 0.23086 0.0
Zn45 Zn 0.69281 0.48105 0.25384 0.0
O46 O 0.72149 0.50173 0.22102 0.0
Zn47 Zn 0.6954 0.52627 0.24833 0.0
O48 O 0.72413 0.5485 0.26885 0.0
O49 O 0.72469 0.50284 0.27681 0.0
O50 O 0.66925 0.51326 0.28215 0.0
O51 O 0.66865 0.46695 0.2841 0.0
O52 O 0.66521 0.49679 0.22313 0.0
O53 O 0.67031 0.543 0.22132 0.0
C54 C 0.73494 0.52765 0.28104 0.0
C55 C 0.65872 0.52022 0.2122 0.0
C56 C 0.23298 0.3547 0.99948 0.0
C57 C 0.3101 0.2911 0.97695 0.0
O58 O 0.24236 0.34834 0.97514 0.0
Zn59 Zn 0.27167 0.3233 0.98701 0.0
O60 O 0.24488 0.34477 0.02124 0.0
Zn61 Zn 0.2785 0.31725 0.03098 0.0
O62 O 0.30595 0.34079 0.05109 0.0
O63 O 0.30287 0.3508 0.00608 0.0
O64 O 0.30578 0.2948 0.00333 0.0
O65 O 0.29439 0.30303 0.95929 0.0
O66 O 0.24752 0.28959 0.00502 0.0
O67 O 0.25881 0.28663 0.04982 0.0
C68 C 0.31435 0.35506 0.03023 0.0
C69 C 0.24444 0.27768 0.02879 0.0
C70 C 0.24374 0.73358 0.50273 0.0
C71 C 0.31315 0.65876 0.51211 0.0
O72 O 0.249 0.7202 0.47965 0.0
Zn73 Zn 0.27356 0.68502 0.46507 0.0
O74 O 0.25516 0.72589 0.52546 0.0
Zn75 Zn 0.27694 0.6952 0.50907 0.0
O76 O 0.30499 0.71747 0.48185 0.0
O77 O 0.29778 0.70322 0.43769 0.0
O78 O 0.30326 0.67441 0.53164 0.0
O79 O 0.30351 0.66067 0.4871 0.0
O80 O 0.24523 0.65767 0.45272 0.0
O81 O 0.24441 0.66561 0.49855 0.0
C82 C 0.31102 0.71863 0.45564 0.0
C83 C 0.23423 0.65311 0.47662 0.0
C84 C 0.72922 0.858 0.49243 0.0
C85 C 0.8017 0.78646 0.48761 0.0
O86 O 0.73952 0.84629 0.47056 0.0
Zn87 Zn 0.76619 0.82273 0.48889 0.0
O88 O 0.7389 0.852 0.51673 0.0
Zn89 Zn 0.76984 0.82474 0.53376 0.0
O90 O 0.79861 0.84925 0.55087 0.0
O91 O 0.79828 0.85107 0.50453 0.0
O92 O 0.79597 0.79521 0.51256 0.0
O93 O 0.78901 0.79678 0.46674 0.0
O94 O 0.73929 0.79392 0.51112 0.0
O95 O 0.74742 0.79917 0.55665 0.0
C96 C 0.80903 0.85876 0.52822 0.0
C97 C 0.73427 0.78673 0.53651 0.0
C98 C 0.52455 0.78266 0.77424 0.0
C99 C 0.52533 0.71245 0.84846 0.0
O100 O 0.50016 0.77485 0.78304 0.0
Zn101 Zn 0.48145 0.7492 0.81452 0.0
O102 O 0.5466 0.77433 0.78658 0.0
Zn103 Zn 0.52691 0.75032 0.8137 0.0
O104 O 0.50645 0.72071 0.7853 0.0
O105 O 0.46007 0.7228 0.79055 0.0
O106 O 0.54691 0.72495 0.83829 0.0
O107 O 0.50071 0.72028 0.84146 0.0
O108 O 0.46274 0.7763 0.83904 0.0
O109 O 0.50899 0.78077 0.84138 0.0
C110 C 0.48155 0.71217 0.77857 0.0
C111 C 0.48451 0.78887 0.84905 0.0
C112 C 0.5412 0.21074 0.72271 0.0
C113 C 0.52911 0.28151 0.6504 0.0
O114 O 0.51557 0.21747 0.71846 0.0
Zn115 Zn 0.49161 0.24278 0.69085 0.0
O116 O 0.56082 0.22057 0.70722 0.0
Zn117 Zn 0.53656 0.24391 0.68454 0.0
O118 O 0.52054 0.27183 0.71661 0.0
O119 O 0.47396 0.26795 0.71821 0.0
O120 O 0.55211 0.27021 0.6573 0.0
O121 O 0.50594 0.2726 0.66117 0.0
O122 O 0.46948 0.21486 0.66947 0.0
O123 O 0.51486 0.21266 0.65997 0.0
C124 C 0.4969 0.27906 0.72738 0.0
C125 C 0.48963 0.20332 0.6562 0.0
C126 C 0.79568 0.48226 0.72169 0.0
C127 C 0.87187 0.48693 0.7914 0.0
O128 O 0.80337 0.50714 0.72953 0.0
Zn129 Zn 0.83417 0.52815 0.75488 0.0
O130 O 0.8093 0.46112 0.72996 0.0
Zn131 Zn 0.83625 0.48274 0.75376 0.0
O132 O 0.80827 0.501 0.78425 0.0
O133 O 0.80868 0.54745 0.78074 0.0
O134 O 0.86283 0.46472 0.77862 0.0
O135 O 0.86311 0.51099 0.78388 0.0
O136 O 0.85696 0.54855 0.72768 0.0
O137 O 0.86206 0.50267 0.72333 0.0
C138 C 0.79951 0.52518 0.79246 0.0
C139 C 0.86803 0.52758 0.71515 0.0
C140 C 0.22896 0.97341 0.70909 0.0
C141 C 0.16381 0.99116 0.78719 0.0
O142 O 0.21555 0.95513 0.72334 0.0
Zn143 Zn 0.19491 0.98146 0.74696 0.0
O144 O 0.22512 0.99969 0.71416 0.0
Zn145 Zn 0.20103 0.02562 0.74262 0.0
O146 O 0.23022 0.04599 0.76279 0.0
O147 O 0.22903 1.00029 0.77077 0.0
O148 O 0.17372 0.01372 0.77627 0.0
O149 O 0.17006 0.96742 0.77631 0.0
O150 O 0.16739 1.00078 0.71752 0.0
O151 O 0.17782 0.04629 0.71778 0.0
C152 C 0.2402 0.02481 0.77497 0.0
C153 C 0.1632 0.02555 0.70829 0.0
C154 C 0.72585 0.14246 0.02699 0.0
C155 C 0.79891 0.21579 0.02553 0.0
O156 O 0.73644 0.15572 0.04803 0.0
Zn157 Zn 0.76308 0.1789 0.02767 0.0
O158 O 0.73493 0.14755 0.00218 0.0
Zn159 Zn 0.76482 0.17466 0.98239 0.0
O160 O 0.79295 0.14936 0.96571 0.0
O161 O 0.79418 0.15094 0.01203 0.0
O162 O 0.79211 0.20578 0.00122 0.0
O163 O 0.78713 0.20608 0.04749 0.0
O164 O 0.73664 0.20666 0.00557 0.0
O165 O 0.74059 0.19887 0.95989 0.0
C166 C 0.80417 0.14179 0.98861 0.0
C167 C 0.72986 0.2127 0.98039 0.0
O168 O 0.09876 0.01711 0.10209 0.0
Zn169 Zn 0.0618 0.0325 0.08956 0.0
O170 O 0.06533 0.04734 0.05172 0.0
Zn171 Zn 0.05354 0.08642 0.0516 0.0
Zn172 Zn 0.10464 0.04581 0.04003 0.0
Zn173 Zn 0.04163 0.02498 0.02572 0.0
O174 O 0.01676 0.09027 0.0306 0.0
O175 O 0.00689 0.04683 0.01479 0.0
O176 O 0.05207 0.06299 0.11828 0.0
O177 O 0.04685 0.10002 0.0912 0.0
O178 O 0.08455 0.11276 0.03773 0.0
O179 O 0.12164 0.085 0.03919 0.0
O180 O 0.10705 0.02953 0.00074 0.0
O181 O 0.03454 0.99927 0.09007 0.0
O182 O 0.06341 0.01514 0.99012 0.0
O183 O 0.0285 0.9891 0.04454 0.0
C184 C 0.123 0.01414 0.09104 0.0
C185 C 1.00035 0.07266 0.01785 0.0
C186 C 0.11114 0.10932 0.03675 0.0
C187 C 0.04722 0.08907 0.11538 0.0
C188 C 0.08933 0.01841 0.98351 0.0
C189 C 0.02537 0.98292 0.07037 0.0
O190 O 0.1284 0.02326 0.06656 0.0
O191 O 0.92429 0.47243 0.10607 0.0
Zn192 Zn 0.96499 0.46617 0.09542 0.0
O193 O 0.96706 0.44807 0.05814 0.0
Zn194 Zn 0.98216 0.41069 0.06216 0.0
Zn195 Zn 0.92946 0.44557 0.04173 0.0
Zn196 Zn 0.99161 0.46919 0.03289 0.0
O197 O 0.0214 0.40821 0.0466 0.0
O198 O 0.02886 0.44959 0.02675 0.0
O199 O 0.97794 0.44077 0.12663 0.0
O200 O 0.98337 0.40081 0.10255 0.0
O201 O 0.95693 0.38082 0.04508 0.0
O202 O 0.91899 0.40516 0.03477 0.0
O203 O 0.92792 0.46363 0.00385 0.0
O204 O 0.98628 0.50359 0.0951 0.0
O205 O 0.97304 0.47325 0.99473 0.0
O206 O 1.00004 0.50762 0.05044 0.0
C207 C 0.90069 0.46881 0.09365 0.0
C208 C 0.03733 0.42529 0.03335 0.0
C209 C 0.93166 0.38191 0.03639 0.0
C210 C 0.98206 0.41433 0.12583 0.0
C211 C 0.94731 0.47152 0.98703 0.0
C212 C 0.99791 0.51765 0.07546 0.0
O213 O 0.89943 0.45991 0.06822 0.0
O214 O 0.12456 0.92216 0.47787 0.0
Zn215 Zn 0.10865 0.96011 0.46918 0.0
O216 O 0.07087 0.95578 0.45322 0.0
Zn217 Zn 0.07194 0.96872 0.41453 0.0
Zn218 Zn 0.05859 0.91602 0.4548 0.0
Zn219 Zn 0.04437 0.97902 0.47438 0.0
O220 O 0.04577 1.00101 0.40868 0.0
O221 O 0.03103 0.01179 0.45181 0.0
O222 O 0.13598 0.97942 0.44285 0.0
O223 O 0.11032 0.98407 0.40442 0.0
O224 O 0.06357 0.93663 0.38743 0.0
O225 O 0.05436 0.90033 0.41502 0.0
O226 O 0.02051 0.91185 0.47478 0.0
O227 O 0.10717 0.9828 0.50523 0.0
O228 O 0.01014 0.9563 0.48511 0.0
O229 O 0.06215 0.99418 0.51011 0.0
C230 C 0.11414 0.89732 0.47958 0.0
C231 C 0.03228 0.01694 0.42565 0.0
C232 C 0.05728 0.91069 0.39062 0.0
C233 C 0.13349 0.9874 0.4176 0.0
C234 C 0.00365 0.93017 0.48481 0.0
C235 C 0.08743 0.99452 0.51907 0.0
O236 O 0.08843 0.89197 0.47319 0.0
O237 O 0.98802 0.60469 0.40433 0.0
Zn238 Zn 0.98367 0.59521 0.44477 0.0
O239 O 0.9673 0.55752 0.44779 0.0
Zn240 Zn 0.92946 0.56071 0.46278 0.0
Zn241 Zn 0.96597 0.53965 0.41061 0.0
Zn242 Zn 0.9897 0.53493 0.47295 0.0
O243 O 0.92653 0.54447 0.50102 0.0
O244 O 0.9701 0.53173 0.51122 0.0
O245 O 0.95875 0.62578 0.46018 0.0
O246 O 0.91976 0.60091 0.46853 0.0
O247 O 0.89985 0.54564 0.4361 0.0
O248 O 0.92583 0.5337 0.39906 0.0
O249 O 0.98385 0.50159 0.41097 0.0
O250 O 0.022 0.59697 0.46235 0.0
O251 O 0.99644 0.49611 0.45555 0.0
O252 O 0.02796 0.55366 0.47817 0.0
C253 C 0.98745 0.59102 0.38108 0.0
C254 C 0.9445 0.53565 0.51846 0.0
C255 C 0.90193 0.5368 0.41076 0.0
C256 C 0.93297 0.62436 0.46748 0.0
C257 C 0.99398 0.48663 0.43034 0.0
C258 C 0.03723 0.57853 0.47365 0.0
O259 O 0.98186 0.56466 0.38012 0.0
O260 O 0.42051 0.94358 0.59701 0.0
Zn261 Zn 0.46087 0.94743 0.58376 0.0
O262 O 0.46403 0.93648 0.5444 0.0
Zn263 Zn 0.48284 0.90055 0.54138 0.0
Zn264 Zn 0.42645 0.93349 0.52858 0.0
Zn265 Zn 0.48518 0.96494 0.5236 0.0
O266 O 0.51999 0.90577 0.52174 0.0
O267 O 0.52519 0.95196 0.51597 0.0
O268 O 0.48439 0.92289 0.60861 0.0
O269 O 0.49227 0.88633 0.57994 0.0
O270 O 0.45952 0.87133 0.51958 0.0
O271 O 0.42064 0.89519 0.51145 0.0
O272 O 0.4221 0.95799 0.49529 0.0
O273 O 0.47118 0.98855 0.58843 0.0
O274 O 0.46627 0.97079 0.48573 0.0
O275 O 0.48557 0.00184 0.54607 0.0
C276 C 0.39692 0.942 0.58425 0.0
C277 C 0.5348 0.92706 0.51443 0.0
C278 C 0.43508 0.87303 0.50877 0.0
C279 C 0.49364 0.89813 0.60425 0.0
C280 C 0.4404 0.96831 0.4786 0.0
C281 C 0.47962 0.00762 0.57173 0.0
O282 O 0.39573 0.93984 0.55752 0.0
O283 O 0.60474 0.52223 0.61429 0.0
Zn284 Zn 0.56595 0.53099 0.60006 0.0
O285 O 0.5688 0.54657 0.56248 0.0
Zn286 Zn 0.55502 0.58453 0.5631 0.0
Zn287 Zn 0.60797 0.54747 0.5501 0.0
Zn288 Zn 0.54531 0.52417 0.53644 0.0
O289 O 0.5217 0.58853 0.53817 0.0
O290 O 0.50794 0.54422 0.52975 0.0
O291 O 0.54552 0.5569 0.62782 0.0
O292 O 0.53935 0.59389 0.60095 0.0
O293 O 0.58529 0.61352 0.55501 0.0
O294 O 0.62357 0.5877 0.5504 0.0
O295 O 0.61023 0.53205 0.51002 0.0
O296 O 0.54636 0.49308 0.5981 0.0
O297 O 0.56623 0.51839 0.49958 0.0
O298 O 0.53796 0.48547 0.55253 0.0
C299 C 0.62851 0.51877 0.60224 0.0
C300 C 0.50309 0.57061 0.52981 0.0
C301 C 0.61183 0.61162 0.55172 0.0
C302 C 0.53623 0.58159 0.62426 0.0
C303 C 0.59204 0.52188 0.49261 0.0
C304 C 0.53833 0.47698 0.57779 0.0
O305 O 0.63245 0.52554 0.57667 0.0
O306 O 0.62194 0.40913 0.96403 0.0
Zn307 Zn 0.6087 0.44929 0.96207 0.0
O308 O 0.5702 0.45042 0.94822 0.0
Zn309 Zn 0.56985 0.46358 0.90948 0.0
Zn310 Zn 0.55365 0.41274 0.95006 0.0
Zn311 Zn 0.54848 0.47611 0.9718 0.0
O312 O 0.55134 0.50132 0.90739 0.0
O313 O 0.54171 0.51256 0.95191 0.0
O314 O 0.63488 0.46975 0.93565 0.0
O315 O 0.60965 0.4721 0.89643 0.0
O316 O 0.55 0.43544 0.88294 0.0
O317 O 0.53801 0.40155 0.91237 0.0
O318 O 0.52056 0.4119 0.97702 0.0
O319 O 0.61151 0.46702 0.001 0.0
O320 O 0.5117 0.45741 0.9837 0.0
O321 O 0.56961 0.4863 0.00724 0.0
C322 C 0.6094 0.38516 0.96251 0.0
C323 C 0.54306 0.51893 0.92605 0.0
C324 C 0.53808 0.41172 0.88782 0.0
C325 C 0.63275 0.47595 0.90979 0.0
C326 C 0.50487 0.43148 0.98651 0.0
C327 C 0.59429 0.48117 0.01598 0.0
O328 O 0.58286 0.3832 0.95843 0.0
O329 O 0.51029 0.10332 0.91059 0.0
Zn330 Zn 0.49122 0.09599 0.9477 0.0
O331 O 0.47078 0.06015 0.94562 0.0
Zn332 Zn 0.4321 0.06588 0.95646 0.0
Zn333 Zn 0.47128 0.04528 0.90745 0.0
Zn334 Zn 0.48713 0.0334 0.9711 0.0
O335 O 0.42473 0.05365 0.99597 0.0
O336 O 0.46373 0.03125 0.00685 0.0
O337 O 0.46507 0.1292 0.95413 0.0
O338 O 0.42381 0.10653 0.9552 0.0
O339 O 0.40483 0.04842 0.9289 0.0
O340 O 0.43232 0.04529 0.89113 0.0
O341 O 0.48113 0.00454 0.90752 0.0
O342 O 0.52205 0.09408 0.9767 0.0
O343 O 0.489 0.99437 0.95223 0.0
O344 O 0.52561 0.04794 0.98343 0.0
C345 C 0.51095 0.09084 0.88663 0.0
C346 C 0.43952 0.04053 0.01356 0.0
C347 C 0.40803 0.04442 0.90255 0.0
C348 C 0.4382 0.12934 0.95481 0.0
C349 C 0.48632 0.98676 0.92643 0.0
C350 C 0.53493 0.07319 0.98677 0.0
O351 O 0.49725 0.06783 0.88212 0.0
H352 H 0.95061 0.17293 0.37041 0.0
H353 H 0.04139 0.18333 0.37187 0.0
H354 H 0.95531 0.12509 0.38867 0.0
H355 H 0.04573 0.13595 0.38925 0.0
H356 H 0.04055 0.04013 0.37422 0.0
H357 H 0.02725 0.0868 0.35935 0.0
H358 H 0.98387 0.10083 0.43797 0.0
H359 H 0.99752 0.05402 0.4534 0.0
C360 C 0.97143 0.16528 0.37499 0.0
C361 C 0.99561 0.18192 0.36944 0.0
C362 C 0.97407 0.13797 0.38536 0.0
C363 C 1.00089 0.12693 0.38992 0.0
C364 C 0.02485 0.14397 0.38557 0.0
C365 C 0.02226 0.17117 0.37568 0.0
C366 C 0.02776 0.05283 0.38825 0.0
C367 C 0.02038 0.0434 0.41515 0.0
C368 C 0.02019 0.07955 0.37969 0.0
C369 C 0.00469 0.09728 0.39761 0.0
C370 C 0.99574 0.08739 0.4238 0.0
C371 C 0.00367 0.0607 0.4326 0.0
H372 H 0.9812 0.31104 0.39043 0.0
H373 H 0.06905 0.32896 0.37258 0.0
H374 H 0.97642 0.35816 0.41069 0.0
H375 H 0.06406 0.37631 0.39363 0.0
H376 H 0.02859 0.45189 0.45978 0.0
H377 H 0.04002 0.40268 0.44805 0.0
H378 H 0.98803 0.40589 0.37398 0.0
H379 H 0.97705 0.45477 0.38506 0.0
C380 C 0.99973 0.3247 0.39152 0.0
C381 C 0.02544 0.31632 0.37947 0.0
C382 C 0.99691 0.35167 0.40316 0.0
C383 C 0.01981 0.37073 0.40345 0.0
C384 C 0.04617 0.36179 0.39367 0.0
C385 C 0.04898 0.33473 0.38169 0.0
C386 C 0.01975 0.4421 0.44092 0.0
C387 C 0.00188 0.45724 0.42337 0.0
C388 C 0.02639 0.41408 0.43422 0.0
C389 C 0.0148 0.40072 0.41021 0.0
C390 C 0.99715 0.41584 0.39264 0.0
C391 C 0.99095 0.44383 0.399 0.0
H392 H 0.03452 0.81084 0.10799 0.0
H393 H 0.95501 0.83042 0.14742 0.0
H394 H 0.03549 0.85677 0.08593 0.0
H395 H 0.95626 0.87674 0.12561 0.0
H396 H 0.00371 0.96661 0.12094 0.0
H397 H 0.99115 0.91885 0.13509 0.0
H398 H 0.00878 0.88779 0.05111 0.0
H399 H 0.02102 0.93562 0.03672 0.0
C400 C 0.01699 0.82477 0.11152 0.0
C401 C 0.99474 0.81708 0.12951 0.0
C402 C 0.01749 0.85101 0.09879 0.0
C403 C 0.996 0.87033 0.10415 0.0
C404 C 0.97313 0.86224 0.12121 0.0
C405 C 0.97235 0.83571 0.13354 0.0
C406 C 0.00437 0.9497 0.10533 0.0
C407 C 0.01356 0.9549 0.07776 0.0
C408 C 0.99701 0.92238 0.1134 0.0
C409 C 0.99912 0.89963 0.09421 0.0
C410 C 0.00709 0.90496 0.06633 0.0
C411 C 0.01398 0.93236 0.05811 0.0
H412 H 0.99814 0.69535 0.10157 0.0
H413 H 0.07469 0.67302 0.14396 0.0
H414 H 0.99399 0.64763 0.08158 0.0
H415 H 0.07013 0.62504 0.12442 0.0
H416 H 0.00563 0.56068 0.03872 0.0
H417 H 0.02002 0.60946 0.0498 0.0
H418 H 0.02902 0.58864 0.13716 0.0
H419 H 0.01411 0.5401 0.12634 0.0
C420 C 0.01449 0.68046 0.10594 0.0
C421 C 0.03671 0.68786 0.12432 0.0
C422 C 0.01212 0.65318 0.09451 0.0
C423 C 0.0316 0.63267 0.10171 0.0
C424 C 0.05478 0.6405 0.11868 0.0
C425 C 0.0575 0.66799 0.12964 0.0
C426 C 0.01096 0.56645 0.06024 0.0
C427 C 0.00856 0.54661 0.08171 0.0
C428 C 0.01917 0.59433 0.06653 0.0
C429 C 0.02577 0.60269 0.09427 0.0
C430 C 0.02437 0.58263 0.11554 0.0
C431 C 0.0156 0.55494 0.10938 0.0
H432 H 0.38871 0.98673 0.17993 0.0
H433 H 0.36698 0.07462 0.1788 0.0
H434 H 0.4097 0.99057 0.13344 0.0
H435 H 0.3884 0.07852 0.1322 0.0
H436 H 0.46438 0.01372 0.05745 0.0
H437 H 0.44837 0.0121 0.10624 0.0
H438 H 0.37537 0.06013 0.08489 0.0
H439 H 0.39135 0.06202 0.03634 0.0
C440 C 0.38881 0.00702 0.16995 0.0
C441 C 0.37596 0.03034 0.18301 0.0
C442 C 0.40098 0.00923 0.14331 0.0
C443 C 0.40047 0.03477 0.129 0.0
C444 C 0.38872 0.05843 0.14254 0.0
C445 C 0.37669 0.05627 0.16933 0.0
C446 C 0.44486 0.02384 0.06312 0.0
C447 C 0.42915 0.03793 0.04288 0.0
C448 C 0.4357 0.02291 0.09109 0.0
C449 C 0.41073 0.03621 0.09949 0.0
C450 C 0.39496 0.05013 0.07923 0.0
C451 C 0.40401 0.05093 0.05129 0.0
H452 H 0.62833 0.47566 0.19107 0.0
H453 H 0.65147 0.5621 0.17378 0.0
H454 H 0.61115 0.46928 0.1432 0.0
H455 H 0.63343 0.55557 0.12564 0.0
H456 H 0.57076 0.52288 0.04845 0.0
H457 H 0.58251 0.53616 0.09726 0.0
H458 H 0.64743 0.47386 0.09713 0.0
H459 H 0.63629 0.46089 0.04841 0.0
C460 C 0.6291 0.49356 0.17732 0.0
C461 C 0.6417 0.51929 0.18613 0.0
C462 C 0.61932 0.4898 0.14989 0.0
C463 C 0.62148 0.51179 0.13081 0.0
C464 C 0.63168 0.53832 0.14011 0.0
C465 C 0.64186 0.54205 0.16764 0.0
C466 C 0.58771 0.51221 0.05878 0.0
C467 C 0.60253 0.49073 0.04465 0.0
C468 C 0.59443 0.5199 0.08658 0.0
C469 C 0.61566 0.50584 0.10078 0.0
C470 C 0.63083 0.48484 0.08653 0.0
C471 C 0.62452 0.47752 0.05866 0.0
H472 H 0.37163 0.93512 0.31392 0.0
H473 H 0.39938 0.02207 0.30904 0.0
H474 H 0.39298 0.93244 0.36046 0.0
H475 H 0.42084 0.01921 0.35555 0.0
H476 H 0.47186 0.99099 0.43545 0.0
H477 H 0.45838 0.99337 0.38573 0.0
H478 H 0.37636 0.95827 0.40554 0.0
H479 H 0.38932 0.9562 0.45474 0.0
C480 C 0.38294 0.95341 0.32239 0.0
C481 C 0.38356 0.97888 0.3079 0.0
C482 C 0.39496 0.95194 0.34914 0.0
C483 C 0.40817 0.97577 0.36174 0.0
C484 C 0.41078 1.00056 0.34634 0.0
C485 C 0.39844 0.00216 0.31974 0.0
C486 C 0.45084 0.98415 0.42922 0.0
C487 C 0.43173 0.9734 0.44917 0.0
C488 C 0.44321 0.9854 0.40078 0.0
C489 C 0.41654 0.97547 0.39177 0.0
C490 C 0.39727 0.9655 0.4118 0.0
C491 C 0.40467 0.96463 0.44011 0.0
H492 H 0.64184 0.44833 0.32887 0.0
H493 H 0.6466 0.53892 0.32188 0.0
H494 H 0.6234 0.45404 0.37699 0.0
H495 H 0.6289 0.54431 0.36955 0.0
H496 H 0.63968 0.53986 0.4656 0.0
H497 H 0.65347 0.53039 0.41695 0.0
H498 H 0.57896 0.47816 0.40461 0.0
H499 H 0.56469 0.48796 0.45342 0.0
C500 C 0.63859 0.46936 0.33734 0.0
C501 C 0.64592 0.49313 0.3215 0.0
C502 C 0.62808 0.4726 0.36484 0.0
C503 C 0.62516 0.49962 0.37704 0.0
C504 C 0.63134 0.52325 0.3608 0.0
C505 C 0.64137 0.52007 0.33337 0.0
C506 C 0.62625 0.52622 0.45265 0.0
C507 C 0.60099 0.51481 0.4634 0.0
C508 C 0.63412 0.52089 0.42476 0.0
C509 C 0.6172 0.50365 0.40703 0.0
C510 C 0.59239 0.49146 0.41789 0.0
C511 C 0.58421 0.49721 0.44575 0.0
H512 H 0.20828 0.37081 0.04877 0.0
H513 H 0.19782 0.37456 0.95864 0.0
H514 H 0.16172 0.39023 0.05558 0.0
H515 H 0.15087 0.39428 0.9657 0.0
H516 H 0.07539 0.4509 0.99785 0.0
H517 H 0.12418 0.43726 0.98836 0.0
H518 H 0.11391 0.36738 0.04427 0.0
H519 H 0.06553 0.38066 0.05364 0.0
C520 C 0.19625 0.37615 0.03036 0.0
C521 C 0.20669 0.37078 0.00312 0.0
C522 C 0.1695 0.38718 0.03432 0.0
C523 C 0.15255 0.39333 0.01118 0.0
C524 C 0.16354 0.3897 0.98391 0.0
C525 C 0.19038 0.37839 0.97989 0.0
C526 C 0.08356 0.43259 0.00804 0.0
C527 C 0.06656 0.41692 0.02657 0.0
C528 C 0.11141 0.42477 0.00252 0.0
C529 C 0.12285 0.40145 0.01581 0.0
C530 C 0.10576 0.3857 0.03405 0.0
C531 C 0.07795 0.39323 0.03926 0.0
H532 H 0.20857 0.61883 0.43666 0.0
H533 H 0.20025 0.64938 0.52253 0.0
H534 H 0.16169 0.59643 0.43978 0.0
H535 H 0.15351 0.62755 0.52519 0.0
H536 H 0.0593 0.62968 0.48906 0.0
H537 H 0.10915 0.64312 0.49276 0.0
H538 H 0.13231 0.55758 0.47292 0.0
H539 H 0.08223 0.54379 0.46998 0.0
C540 C 0.19701 0.62037 0.45627 0.0
C541 C 0.20801 0.63608 0.47923 0.0
C542 C 0.17032 0.60748 0.45807 0.0
C543 C 0.15417 0.6105 0.48269 0.0
C544 C 0.16565 0.62506 0.50601 0.0
C545 C 0.19241 0.6375 0.5044 0.0
C546 C 0.07502 0.61365 0.486 0.0
C547 C 0.06701 0.58573 0.47931 0.0
C548 C 0.10345 0.62131 0.48816 0.0
C549 C 0.12434 0.60132 0.48304 0.0
C550 C 0.11644 0.57327 0.47691 0.0
C551 C 0.08791 0.56542 0.47543 0.0
H552 H 0.82561 0.89854 0.49119 0.0
H553 H 0.85376 0.85389 0.56377 0.0
H554 H 0.87325 0.91762 0.48439 0.0
H555 H 0.90178 0.87256 0.55655 0.0
H556 H 0.98491 0.87717 0.49908 0.0
H557 H 0.93744 0.86316 0.51452 0.0
H558 H 0.91108 0.94932 0.50949 0.0
H559 H 0.95832 0.96347 0.4945 0.0
C560 C 0.84187 0.89337 0.50608 0.0
C561 C 0.83596 0.87491 0.52811 0.0
C562 C 0.86914 0.90422 0.50216 0.0
C563 C 0.89122 0.89636 0.51981 0.0
C564 C 0.88514 0.8788 0.54255 0.0
C565 C 0.85764 0.86841 0.54687 0.0
C566 C 0.96906 0.89314 0.5015 0.0
C567 C 0.97543 0.92141 0.49543 0.0
C568 C 0.94197 0.88516 0.51054 0.0
C569 C 0.92063 0.9052 0.51322 0.0
C570 C 0.92711 0.93346 0.50755 0.0
C571 C 0.95422 0.94151 0.49899 0.0
H572 H 0.33282 0.61638 0.47811 0.0
H573 H 0.34977 0.6609 0.55659 0.0
H574 H 0.3777 0.59234 0.48186 0.0
H575 H 0.39469 0.63692 0.56017 0.0
H576 H 0.48612 0.62507 0.53185 0.0
H577 H 0.43858 0.64255 0.52935 0.0
H578 H 0.40657 0.55825 0.51261 0.0
H579 H 0.45466 0.54024 0.51551 0.0
C580 C 0.34588 0.62067 0.49642 0.0
C581 C 0.33781 0.64075 0.51696 0.0
C582 C 0.37153 0.60681 0.49856 0.0
C583 C 0.38982 0.61302 0.5211 0.0
C584 C 0.38112 0.63199 0.54237 0.0
C585 C 0.35531 0.64558 0.54043 0.0
C586 C 0.46914 0.61008 0.52741 0.0
C587 C 0.47437 0.58111 0.52402 0.0
C588 C 0.44178 0.62017 0.52626 0.0
C589 C 0.41881 0.60172 0.52136 0.0
C590 C 0.42393 0.57292 0.51661 0.0
C591 C 0.45146 0.56265 0.51814 0.0
H592 H 0.48296 0.67619 0.86274 0.0
H593 H 0.57302 0.6895 0.87124 0.0
H594 H 0.4867 0.63022 0.88379 0.0
H595 H 0.57637 0.64324 0.89325 0.0
H596 H 0.55049 0.56714 0.95771 0.0
H597 H 0.54705 0.61587 0.94199 0.0
H598 H 0.52086 0.58546 0.85989 0.0
H599 H 0.52507 0.5368 0.87515 0.0
C600 C 0.50352 0.66964 0.86962 0.0
C601 C 0.52777 0.68657 0.86516 0.0
C602 C 0.50556 0.64324 0.8816 0.0
C603 C 0.53176 0.63335 0.88997 0.0
C604 C 0.55591 0.65064 0.88697 0.0
C605 C 0.55398 0.67701 0.8744 0.0
C606 C 0.5437 0.57088 0.9364 0.0
C607 C 0.53788 0.54818 0.91767 0.0
C608 C 0.54203 0.59868 0.92741 0.0
C609 C 0.53388 0.60418 0.89977 0.0
C610 C 0.52727 0.58159 0.8813 0.0
C611 C 0.52958 0.55384 0.89005 0.0
H612 H 0.43894 0.82288 0.85579 0.0
H613 H 0.52528 0.81357 0.88217 0.0
H614 H 0.43841 0.86968 0.8782 0.0
H615 H 0.52463 0.86026 0.9046 0.0
H616 H 0.46819 0.96319 0.87692 0.0
H617 H 0.46548 0.91374 0.86327 0.0
H618 H 0.50127 0.8915 0.94297 0.0
H619 H 0.5038 0.94155 0.95707 0.0
C620 C 0.45756 0.83051 0.86692 0.0
C621 C 0.48223 0.81464 0.86694 0.0
C622 C 0.45732 0.85736 0.87959 0.0
C623 C 0.4816 0.86871 0.89286 0.0
C624 C 0.50561 0.85204 0.89461 0.0
C625 C 0.50598 0.82535 0.88163 0.0
C626 C 0.47562 0.94791 0.89164 0.0
C627 C 0.48636 0.95644 0.91811 0.0
C628 C 0.47373 0.91948 0.88387 0.0
C629 C 0.48282 0.89874 0.90217 0.0
C630 C 0.49402 0.9071 0.92849 0.0
C631 C 0.49552 0.9357 0.93652 0.0
H632 H 0.57335 0.30777 0.62305 0.0
H633 H 0.48385 0.31363 0.63888 0.0
H634 H 0.57286 0.35396 0.60082 0.0
H635 H 0.48373 0.3596 0.61735 0.0
H636 H 0.51517 0.45537 0.62518 0.0
H637 H 0.51134 0.40583 0.63783 0.0
H638 H 0.5463 0.38136 0.55737 0.0
H639 H 0.54939 0.43109 0.54425 0.0
C640 C 0.55356 0.31858 0.62136 0.0
C641 C 0.52872 0.30706 0.63298 0.0
C642 C 0.55328 0.34494 0.6086 0.0
C643 C 0.52827 0.36029 0.60763 0.0
C644 C 0.50328 0.34821 0.61801 0.0
C645 C 0.50344 0.32182 0.6303 0.0
C646 C 0.5215 0.4394 0.60997 0.0
C647 C 0.53239 0.44703 0.58369 0.0
C648 C 0.51934 0.41111 0.61721 0.0
C649 C 0.52864 0.38991 0.59857 0.0
C650 C 0.53907 0.3974 0.57206 0.0
C651 C 0.54058 0.42575 0.56452 0.0
H652 H 0.44292 0.16834 0.65421 0.0
H653 H 0.52644 0.17933 0.61928 0.0
H654 H 0.43905 0.12189 0.6312 0.0
H655 H 0.52268 0.133 0.59668 0.0
H656 H 0.49835 0.05458 0.54388 0.0
H657 H 0.49796 0.10354 0.56074 0.0
H658 H 0.46257 0.0768 0.63975 0.0
H659 H 0.4627 0.02811 0.62301 0.0
C660 C 0.46022 0.16109 0.64123 0.0
C661 C 0.48506 0.17743 0.63877 0.0
C662 C 0.45811 0.1344 0.62827 0.0
C663 C 0.48071 0.12364 0.6124 0.0
C664 C 0.50486 0.14069 0.60863 0.0
C665 C 0.50704 0.16723 0.62172 0.0
C666 C 0.49053 0.05913 0.56486 0.0
C667 C 0.48067 0.03733 0.5821 0.0
C668 C 0.4903 0.08719 0.5745 0.0
C669 C 0.48 0.09407 0.60149 0.0
C670 C 0.47016 0.07228 0.61867 0.0
C671 C 0.47055 0.04428 0.60914 0.0
H672 H 0.90198 0.48887 0.68983 0.0
H673 H 0.87247 0.57381 0.68179 0.0
H674 H 0.92351 0.49123 0.64329 0.0
H675 H 0.89411 0.5761 0.63518 0.0
H676 H 0.89401 0.54999 0.54142 0.0
H677 H 0.8801 0.55002 0.59046 0.0
H678 H 0.96053 0.5161 0.61295 0.0
H679 H 0.97487 0.51619 0.56333 0.0
C680 C 0.90054 0.50825 0.67835 0.0
C681 C 0.88525 0.53108 0.68939 0.0
C682 C 0.913 0.5096 0.65174 0.0
C683 C 0.91019 0.53369 0.63547 0.0
C684 C 0.89628 0.55711 0.64714 0.0
C685 C 0.88406 0.55588 0.6739 0.0
C686 C 0.90884 0.54237 0.55664 0.0
C687 C 0.93564 0.53305 0.54829 0.0
C688 C 0.9009 0.54271 0.58487 0.0
C689 C 0.91937 0.5335 0.6056 0.0
C690 C 0.94591 0.52344 0.59737 0.0
C691 C 0.95406 0.52341 0.56899 0.0
H692 H 0.16391 0.06802 0.67052 0.0
H693 H 0.12044 0.99031 0.69098 0.0
H694 H 0.14043 0.06759 0.62481 0.0
H695 H 0.0968 0.99015 0.64548 0.0
H696 H 0.13807 0.01518 0.53766 0.0
H697 H 0.15039 0.03023 0.58544 0.0
H698 H 0.06403 0.01694 0.6115 0.0
H699 H 0.05147 0.0022 0.5634 0.0
C700 C 0.14867 0.05136 0.66565 0.0
C701 C 0.14428 0.02896 0.6841 0.0
C702 C 0.13534 0.0511 0.63948 0.0
C703 C 0.11704 0.02874 0.63163 0.0
C704 C 0.1107 0.00772 0.65111 0.0
C705 C 0.12436 0.00773 0.67706 0.0
C706 C 0.12159 0.01598 0.55344 0.0
C707 C 0.09389 0.00726 0.54691 0.0
C708 C 0.12859 0.02484 0.58071 0.0
C709 C 0.10812 0.02473 0.60207 0.0
C710 C 0.08014 0.01721 0.59533 0.0
C711 C 0.073 0.00883 0.56786 0.0
H712 H 0.8969 0.44071 0.81434 0.0
H713 H 0.88504 0.53001 0.82789 0.0
H714 H 0.9189 0.43833 0.86099 0.0
H715 H 0.90615 0.52723 0.87427 0.0
H716 H 0.89761 0.49049 0.96697 0.0
H717 H 0.88355 0.4948 0.91781 0.0
H718 H 0.96516 0.46626 0.89077 0.0
H719 H 0.97971 0.46272 0.94013 0.0
C720 C 0.89938 0.45983 0.82695 0.0
C721 C 0.88907 0.48549 0.81736 0.0
C722 C 0.91197 0.45846 0.85357 0.0
C723 C 0.91396 0.4826 0.87111 0.0
C724 C 0.90472 0.50835 0.86112 0.0
C725 C 0.8927 0.50986 0.83447 0.0
C726 C 0.91268 0.48547 0.95057 0.0
C727 C 0.9398 0.47646 0.95738 0.0
C728 C 0.90463 0.48791 0.9225 0.0
C729 C 0.92328 0.48072 0.90067 0.0
C730 C 0.95044 0.4718 0.90733 0.0
C731 C 0.95878 0.47003 0.93549 0.0
H732 H 0.14081 0.94837 0.81881 0.0
H733 H 0.15108 0.03896 0.81659 0.0
H734 H 0.12054 0.95273 0.86626 0.0
H735 H 0.13137 0.043 0.86363 0.0
H736 H 0.13912 0.03334 0.95888 0.0
H737 H 0.15382 0.02485 0.9105 0.0
H738 H 0.07653 0.97821 0.89384 0.0
H739 H 0.06131 0.98699 0.94259 0.0
C740 C 0.13838 0.96915 0.82818 0.0
C741 C 0.14785 0.99328 0.81398 0.0
C742 C 0.12677 0.97161 0.85527 0.0
C743 C 0.12481 0.99817 0.86862 0.0
C744 C 0.13302 0.02226 0.85391 0.0
C745 C 0.14424 0.01988 0.82689 0.0
C746 C 0.12524 0.02106 0.94511 0.0
C747 C 0.09892 0.01099 0.95463 0.0
C748 C 0.13366 0.01633 0.91734 0.0
C749 C 0.11619 0.00111 0.89846 0.0
C750 C 0.09035 0.99001 0.90806 0.0
C751 C 0.08166 0.99513 0.93588 0.0
H752 H 0.70821 0.89376 0.53261 0.0
H753 H 0.69278 0.86177 0.44822 0.0
H754 H 0.66218 0.91583 0.53292 0.0
H755 H 0.64661 0.88373 0.44871 0.0
H756 H 0.58054 0.96306 0.51927 0.0
H757 H 0.63 0.95202 0.50945 0.0
H758 H 0.60428 0.86923 0.479 0.0
H759 H 0.55528 0.87999 0.4891 0.0
C760 C 0.69526 0.89196 0.5139 0.0
C761 C 0.70401 0.87576 0.4905 0.0
C762 C 0.66897 0.90475 0.51403 0.0
C763 C 0.65077 0.9013 0.49092 0.0
C764 C 0.66019 0.88655 0.46687 0.0
C765 C 0.68667 0.87409 0.46657 0.0
C766 C 0.58549 0.94273 0.51 0.0
C767 C 0.56412 0.92231 0.50513 0.0
C768 C 0.61373 0.93639 0.50449 0.0
C769 C 0.62093 0.90979 0.49343 0.0
C770 C 0.59935 0.89 0.48722 0.0
C771 C 0.57131 0.8961 0.49321 0.0
H772 H 0.70898 0.09936 0.99222 0.0
H773 H 0.6854 0.14496 0.06789 0.0
H774 H 0.66225 0.07729 0.99006 0.0
H775 H 0.63834 0.12295 0.06557 0.0
H776 H 0.55449 0.1226 0.01023 0.0
H777 H 0.6017 0.13314 0.028 0.0
H778 H 0.62457 0.04654 0.01324 0.0
H779 H 0.57709 0.03582 0.99554 0.0
C780 C 0.69404 0.10401 0.00886 0.0
C781 C 0.70067 0.12408 0.03004 0.0
C782 C 0.66733 0.09126 0.00771 0.0
C783 C 0.64661 0.09865 0.0275 0.0
C784 C 0.65392 0.11706 0.04996 0.0
C785 C 0.68087 0.1295 0.05137 0.0
C786 C 0.5694 0.10567 0.01123 0.0
C787 C 0.56219 0.07847 0.00113 0.0
C788 C 0.59636 0.11165 0.02169 0.0
C789 C 0.61678 0.09065 0.02196 0.0
C790 C 0.6092 0.06311 0.0132 0.0
C791 C 0.58204 0.05701 0.00309 0.0
H792 H 0.32883 0.39866 0.99661 0.0
H793 H 0.35851 0.35129 0.0668 0.0
H794 H 0.37535 0.42071 0.99178 0.0
H795 H 0.40531 0.37331 0.06182 0.0
H796 H 0.48746 0.37995 0.00533 0.0
H797 H 0.44081 0.36625 0.0224 0.0
H798 H 0.41323 0.45175 0.01423 0.0
H799 H 0.46001 0.46562 0.9972 0.0
C800 C 0.34511 0.39355 0.01151 0.0
C801 C 0.34006 0.37316 0.03201 0.0
C802 C 0.37176 0.40624 0.00878 0.0
C803 C 0.39406 0.39852 0.02624 0.0
C804 C 0.38855 0.37946 0.04792 0.0
C805 C 0.36171 0.36707 0.05093 0.0
C806 C 0.4716 0.39595 0.00751 0.0
C807 C 0.47744 0.42384 0.99964 0.0
C808 C 0.44492 0.38813 0.01754 0.0
C809 C 0.42335 0.40793 0.01965 0.0
C810 C 0.42942 0.43602 0.01271 0.0
C811 C 0.45624 0.44395 0.00301 0.0
H812 H 0.83868 0.12575 0.94421 0.0
H813 H 0.8308 0.12246 0.03468 0.0
H814 H 0.88668 0.10724 0.94765 0.0
H815 H 0.87835 0.10488 0.03784 0.0
H816 H 0.97439 0.12176 0.03196 0.0
H817 H 0.92627 0.13513 0.02153 0.0
H818 H 0.91372 0.05869 0.97233 0.0
H819 H 0.96206 0.04472 0.98316 0.0
C820 C 0.84685 0.1206 0.96468 0.0
C821 C 0.83088 0.12588 0.98916 0.0
C822 C 0.87431 0.1101 0.96662 0.0
C823 C 0.88623 0.10507 0.99305 0.0
C824 C 0.86974 0.10891 0.01725 0.0
C825 C 0.84241 0.11895 0.01533 0.0
C826 C 0.96165 0.10786 0.01861 0.0
C827 C 0.97214 0.08203 0.00858 0.0
C828 C 0.93405 0.11554 0.0127 0.0
C829 C 0.91634 0.09788 0.99623 0.0
C830 C 0.92704 0.07269 0.985 0.0
C831 C 0.95464 0.06471 0.99131 0.0
H832 H 0.08025 0.19482 0.26478 0.0
H833 H 0.9932 0.20837 0.24322 0.0
H834 H 0.08403 0.16144 0.22473 0.0
H835 H 0.99703 0.1755 0.20369 0.0
H836 H 0.02505 0.14154 0.11753 0.0
H837 H 0.02339 0.17422 0.1576 0.0
H838 H 0.06166 0.11249 0.20999 0.0
H839 H 0.06333 0.07947 0.16972 0.0
C840 C 0.06208 0.19086 0.25142 0.0
C841 C 0.03646 0.2042 0.25715 0.0
C842 C 0.06415 0.17163 0.22872 0.0
C843 C 0.04079 0.1659 0.21116 0.0
C844 C 0.01542 0.17963 0.21672 0.0
C845 C 0.01324 0.1984 0.23947 0.0
C846 C 0.03296 0.13478 0.1376 0.0
C847 C 0.04416 0.10781 0.14046 0.0
C848 C 0.03201 0.15353 0.16054 0.0
C849 C 0.04252 0.14592 0.18685 0.0
C850 C 0.05369 0.11897 0.18985 0.0
C851 C 0.05431 0.09999 0.1669 0.0
H852 H 0.94059 0.28972 0.25095 0.0
H853 H 0.01171 0.33652 0.28573 0.0
H854 H 0.9383 0.32314 0.21238 0.0
H855 H 0.0093 0.36985 0.24754 0.0
H856 H 0.98319 0.43425 0.1807 0.0
H857 H 0.97866 0.40646 0.22346 0.0
H858 H 0.97444 0.33006 0.17279 0.0
H859 H 0.97924 0.35734 0.13043 0.0
C860 C 0.95518 0.30754 0.25075 0.0
C861 C 0.97646 0.31043 0.27109 0.0
C862 C 0.95403 0.32651 0.22865 0.0
C863 C 0.97382 0.3489 0.2269 0.0
C864 C 0.99374 0.35288 0.24841 0.0
C865 C 0.99518 0.33372 0.27017 0.0
C866 C 0.98152 0.41152 0.17874 0.0
C867 C 0.98177 0.39807 0.15212 0.0
C868 C 0.97877 0.39567 0.20317 0.0
C869 C 0.97572 0.36617 0.20134 0.0
C870 C 0.97616 0.3528 0.1748 0.0
C871 C 0.97931 0.36849 0.15053 0.0
H872 H 0.08754 0.8118 0.23678 0.0
H873 H 1.00012 0.7963 0.25823 0.0
H874 H 0.09264 0.84255 0.2787 0.0
H875 H 0.00532 0.82661 0.29976 0.0
H876 H 0.03476 0.85724 0.38728 0.0
H877 H 0.03204 0.82594 0.34593 0.0
H878 H 0.07218 0.88999 0.2958 0.0
H879 H 0.07486 0.92144 0.33703 0.0
C880 C 0.06951 0.81487 0.25042 0.0
C881 C 0.04344 0.80171 0.24414 0.0
C882 C 0.07238 0.83252 0.27429 0.0
C883 C 0.04937 0.83685 0.29247 0.0
C884 C 0.02347 0.82343 0.28628 0.0
C885 C 0.02049 0.80622 0.26235 0.0
C886 C 0.04296 0.86469 0.36745 0.0
C887 C 0.05485 0.89191 0.36544 0.0
C888 C 0.04138 0.84678 0.34379 0.0
C889 C 0.05197 0.85555 0.31771 0.0
C890 C 0.06411 0.88261 0.31571 0.0
C891 C 0.06536 0.90068 0.33928 0.0
H892 H 0.94947 0.70825 0.25077 0.0
H893 H 0.02681 0.67046 0.22232 0.0
H894 H 0.94764 0.67591 0.29028 0.0
H895 H 0.02471 0.638 0.26148 0.0
H896 H 0.99388 0.5706 0.32685 0.0
H897 H 0.99259 0.59768 0.28346 0.0
H898 H 0.98308 0.67431 0.33258 0.0
H899 H 0.98485 0.64778 0.37562 0.0
C900 C 0.96567 0.69265 0.2526 0.0
C901 C 0.98839 0.692 0.23369 0.0
C902 C 0.96472 0.67429 0.27522 0.0
C903 C 0.98616 0.65467 0.27893 0.0
C904 C 0.0079 0.65287 0.25902 0.0
C905 C 0.00914 0.67153 0.23674 0.0
C906 C 0.99182 0.59325 0.32835 0.0
C907 C 0.98958 0.607 0.35472 0.0
C908 C 0.99096 0.60867 0.30357 0.0
C909 C 0.98725 0.63796 0.30479 0.0
C910 C 0.98543 0.65168 0.33108 0.0
C911 C 0.9868 0.63645 0.35574 0.0
H912 H 0.2407 0.015 0.22176 0.0
H913 H 0.27525 0.94705 0.17175 0.0
H914 H 0.20007 0.01622 0.19072 0.0
H915 H 0.23434 0.94869 0.13991 0.0
H916 H 0.17777 0.00352 0.07549 0.0
H917 H 0.21632 0.98953 0.10609 0.0
H918 H 0.15824 0.98333 0.17567 0.0
H919 H 0.11978 0.99703 0.14542 0.0
C920 C 0.2394 1.0001 0.20421 0.0
C921 C 0.26105 0.98093 0.19911 0.0
C922 C 0.21609 1.00072 0.18653 0.0
C923 C 0.21406 0.98252 0.16297 0.0
C924 C 0.23547 0.96293 0.15798 0.0
C925 C 0.25869 0.96187 0.1762 0.0
C926 C 0.17312 0.99866 0.09717 0.0
C927 C 0.14572 0.00184 0.10806 0.0
C928 C 0.19516 0.99047 0.11461 0.0
C929 C 0.19023 0.98556 0.14324 0.0
C930 C 0.16262 0.98719 0.1537 0.0
C931 C 0.14061 0.99508 0.13631 0.0
H932 H 0.76937 0.43639 0.21717 0.0
H933 H 0.73711 0.50402 0.16807 0.0
H934 H 0.81069 0.43394 0.18606 0.0
H935 H 0.77797 0.50138 0.13699 0.0
H936 H 0.84631 0.47039 0.07417 0.0
H937 H 0.80284 0.4688 0.10192 0.0
H938 H 0.85175 0.46938 0.17834 0.0
H939 H 0.89514 0.47125 0.15084 0.0
C940 C 0.77076 0.45017 0.19933 0.0
C941 C 0.75011 0.47039 0.19501 0.0
C942 C 0.79449 0.44901 0.18174 0.0
C943 C 0.79763 0.46766 0.15925 0.0
C944 C 0.7761 0.4867 0.15405 0.0
C945 C 0.75274 0.48821 0.17187 0.0
C946 C 0.8478 0.47049 0.09689 0.0
C947 C 0.87425 0.47112 0.11024 0.0
C948 C 0.82291 0.46947 0.11276 0.0
C949 C 0.82394 0.46857 0.14227 0.0
C950 C 0.85032 0.46956 0.15561 0.0
C951 C 0.87517 0.47103 0.13982 0.0
H952 H 0.28837 0.98644 0.33072 0.0
H953 H 0.25506 0.06435 0.30101 0.0
H954 H 0.25083 0.98343 0.36539 0.0
H955 H 0.21704 0.06131 0.33604 0.0
H956 H 0.18851 0.99002 0.4351 0.0
H957 H 0.22968 0.00531 0.40815 0.0
H958 H 0.17562 0.02744 0.33943 0.0
H959 H 0.13447 0.0124 0.36631 0.0
C960 C 0.27323 0.00322 0.33198 0.0
C961 C 0.27445 0.02551 0.31304 0.0
C962 C 0.25184 0.0016 0.35201 0.0
C963 C 0.23092 0.02208 0.3534 0.0
C964 C 0.23283 0.04515 0.33531 0.0
C965 C 0.25462 0.04699 0.31543 0.0
C966 C 0.18535 0.99854 0.41443 0.0
C967 C 0.15821 0.99958 0.40272 0.0
C968 C 0.20894 0.00728 0.39899 0.0
C969 C 0.20589 0.01744 0.37162 0.0
C970 C 0.17865 0.01996 0.36055 0.0
C971 C 0.15508 0.01105 0.37588 0.0
H972 H 0.75538 0.57507 0.30949 0.0
H973 H 0.7704 0.48649 0.29462 0.0
H974 H 0.79564 0.57736 0.34214 0.0
H975 H 0.80971 0.4888 0.32688 0.0
H976 H 0.89747 0.51132 0.35915 0.0
H977 H 0.85736 0.51138 0.32742 0.0
H978 H 0.80865 0.55603 0.39017 0.0
H979 H 0.84904 0.55625 0.42212 0.0
C980 C 0.7673 0.55626 0.31305 0.0
C981 C 0.75972 0.53064 0.29959 0.0
C982 C 0.79008 0.55749 0.33184 0.0
C983 C 0.8057 0.53322 0.33695 0.0
C984 C 0.79822 0.50785 0.32316 0.0
C985 C 0.77555 0.50657 0.30477 0.0
C986 C 0.87816 0.5209 0.36636 0.0
C987 C 0.87639 0.53362 0.39322 0.0
C988 C 0.85522 0.52101 0.34815 0.0
C989 C 0.83002 0.53389 0.35632 0.0
C990 C 0.828 0.54629 0.38328 0.0
C991 C 0.85096 0.54602 0.40166 0.0
H992 H 0.24015 0.2387 0.07061 0.0
H993 H 0.20275 0.26238 0.99199 0.0
H994 H 0.20745 0.19819 0.07268 0.0
H995 H 0.17026 0.22218 0.99416 0.0
H996 H 0.09785 0.16365 0.02429 0.0
H997 H 0.1295 0.20486 0.02354 0.0
H998 H 0.19958 0.1527 0.04459 0.0
H999 H 0.16813 0.11151 0.04528 0.0
C1000 C 0.2249 0.23537 0.05389 0.0
C1001 C 0.22414 0.2537 0.0311 0.0
C1002 C 0.2063 0.21212 0.05499 0.0
C1003 C 0.18632 0.20701 0.03355 0.0
C1004 C 0.18524 0.22567 0.0111 0.0
C1005 C 0.20401 0.24862 0.00981 0.0
C1006 C 0.12002 0.16093 0.02861 0.0
C1007 C 0.13042 0.13422 0.03473 0.0
C1008 C 0.13815 0.18453 0.02816 0.0
C1009 C 0.167 0.18202 0.03417 0.0
C1010 C 0.1774 0.15535 0.04022 0.0
C1011 C 0.15937 0.13171 0.04034 0.0
H1012 H 0.23572 0.76834 0.45911 0.0
H1013 H 0.20943 0.75437 0.54474 0.0
H1014 H 0.20446 0.80842 0.45672 0.0
H1015 H 0.1773 0.79435 0.54195 0.0
H1016 H 0.09957 0.8443 0.49779 0.0
H1017 H 0.13126 0.80515 0.50657 0.0
H1018 H 0.20285 0.8582 0.48616 0.0
H1019 H 0.17161 0.8974 0.47805 0.0
C1020 C 0.22318 0.77379 0.47741 0.0
C1021 C 0.22504 0.75821 0.50213 0.0
C1022 C 0.20537 0.79679 0.47604 0.0
C1023 C 0.18849 0.80442 0.49913 0.0
C1024 C 0.19008 0.78879 0.52385 0.0
C1025 C 0.20852 0.76609 0.52548 0.0
C1026 C 0.1221 0.84771 0.49554 0.0
C1027 C 0.13301 0.874 0.48714 0.0
C1028 C 0.14019 0.82535 0.50069 0.0
C1029 C 0.16944 0.82871 0.49697 0.0
C1030 C 0.18037 0.85508 0.48913 0.0
C1031 C 0.16242 0.87752 0.48456 0.0
H1032 H 0.82566 0.76585 0.43864 0.0
H1033 H 0.82608 0.75716 0.52901 0.0
H1034 H 0.86043 0.72828 0.4344 0.0
H1035 H 0.86036 0.72021 0.52463 0.0
H1036 H 0.88592 0.62993 0.49929 0.0
H1037 H 0.85577 0.67069 0.50333 0.0
H1038 H 0.91279 0.7178 0.45037 0.0
H1039 H 0.94334 0.67676 0.44636 0.0
C1040 C 0.83317 0.75605 0.4575 0.0
C1041 C 0.82294 0.76433 0.4841 0.0
C1042 C 0.85317 0.7348 0.4551 0.0
C1043 C 0.8629 0.72141 0.47922 0.0
C1044 C 0.85301 0.73005 0.50571 0.0
C1045 C 0.83336 0.75128 0.50814 0.0
C1046 C 0.89224 0.64907 0.48878 0.0
C1047 C 0.917 0.65025 0.47261 0.0
C1048 C 0.875 0.67237 0.49109 0.0
C1049 C 0.88196 0.69725 0.47704 0.0
C1050 C 0.90693 0.69871 0.4612 0.0
C1051 C 0.9245 0.67542 0.45921 0.0
H1052 H 0.36719 0.71094 0.4505 0.0
H1053 H 0.30255 0.77308 0.44582 0.0
H1054 H 0.4032 0.74839 0.4547 0.0
H1055 H 0.33779 0.81047 0.45113 0.0
H1056 H 0.40178 0.87614 0.46286 0.0
H1057 H 0.37687 0.83779 0.43826 0.0
H1058 H 0.41509 0.77821 0.49349 0.0
H1059 H 0.44126 0.81667 0.51692 0.0
C1060 C 0.36094 0.73269 0.44908 0.0
C1061 C 0.33237 0.73938 0.44734 0.0
C1062 C 0.38141 0.75413 0.45201 0.0
C1063 C 0.37345 0.78251 0.45378 0.0
C1064 C 0.34494 0.78899 0.44951 0.0
C1065 C 0.32462 0.76759 0.44635 0.0
C1066 C 0.40516 0.85474 0.46939 0.0
C1067 C 0.42296 0.8493 0.49211 0.0
C1068 C 0.39087 0.83276 0.45533 0.0
C1069 C 0.39347 0.80488 0.46415 0.0
C1070 C 0.41271 0.79933 0.48584 0.0
C1071 C 0.42754 0.82136 0.49951 0.0
H1072 H 0.46766 0.65619 0.78069 0.0
H1073 H 0.49243 0.72229 0.72454 0.0
H1074 H 0.47526 0.62095 0.74289 0.0
H1075 H 0.50025 0.68771 0.6871 0.0
H1076 H 0.49985 0.62445 0.61871 0.0
H1077 H 0.47882 0.65332 0.65552 0.0
H1078 H 0.51777 0.60273 0.71853 0.0
H1079 H 0.53837 0.57308 0.68135 0.0
C1080 C 0.47374 0.66315 0.75995 0.0
C1081 C 0.47889 0.69182 0.75511 0.0
C1082 C 0.47848 0.64306 0.73849 0.0
C1083 C 0.48835 0.6515 0.71196 0.0
C1084 C 0.49215 0.68043 0.70703 0.0
C1085 C 0.48763 0.70031 0.72842 0.0
C1086 C 0.50377 0.61924 0.64041 0.0
C1087 C 0.52127 0.5968 0.64713 0.0
C1088 C 0.49166 0.63582 0.66152 0.0
C1089 C 0.49696 0.63064 0.68997 0.0
C1090 C 0.51314 0.60719 0.69681 0.0
C1091 C 0.5251 0.59032 0.67554 0.0
H1092 H 0.49007 0.77657 0.72976 0.0
H1093 H 0.56157 0.8258 0.76019 0.0
H1094 H 0.48841 0.80476 0.6878 0.0
H1095 H 0.55941 0.85492 0.71783 0.0
H1096 H 0.50513 0.91718 0.65811 0.0
H1097 H 0.51871 0.88911 0.69836 0.0
H1098 H 0.52091 0.81484 0.64472 0.0
H1099 H 0.50762 0.84261 0.60452 0.0
C1100 C 0.50559 0.79339 0.72734 0.0
C1101 C 0.52594 0.79905 0.74822 0.0
C1102 C 0.50471 0.80943 0.70323 0.0
C1103 C 0.52382 0.83193 0.69955 0.0
C1104 C 0.54446 0.83761 0.72024 0.0
C1105 C 0.54579 0.82096 0.7443 0.0
C1106 C 0.50893 0.89494 0.6548 0.0
C1107 C 0.50488 0.88209 0.62812 0.0
C1108 C 0.51694 0.87897 0.67781 0.0
C1109 C 0.52075 0.84983 0.67461 0.0
C1110 C 0.518 0.83727 0.64775 0.0
C1111 C 0.51032 0.85322 0.62474 0.0
H1112 H 0.5341 0.27952 0.7698 0.0
H1113 H 0.46153 0.32305 0.73937 0.0
H1114 H 0.53855 0.31329 0.80887 0.0
H1115 H 0.46661 0.35778 0.77855 0.0
H1116 H 0.53147 0.4256 0.83222 0.0
H1117 H 0.51562 0.39422 0.79346 0.0
H1118 H 0.50094 0.32746 0.85206 0.0
H1119 H 0.51618 0.3584 0.89069 0.0
C1120 C 0.51904 0.29634 0.77158 0.0
C1121 C 0.49745 0.29874 0.7517 0.0
C1122 C 0.52158 0.31558 0.79391 0.0
C1123 C 0.50296 0.33802 0.79655 0.0
C1124 C 0.4812 0.34056 0.77679 0.0
C1125 C 0.4782 0.32072 0.75463 0.0
C1126 C 0.52436 0.40441 0.8369 0.0
C1127 C 0.52548 0.39445 0.86454 0.0
C1128 C 0.5151 0.38659 0.81477 0.0
C1129 C 0.50711 0.35856 0.81996 0.0
C1130 C 0.50696 0.34905 0.84764 0.0
C1131 C 0.51583 0.36682 0.8697 0.0
H1132 H 0.56774 0.15995 0.72475 0.0
H1133 H 0.52624 0.22279 0.7758 0.0
H1134 H 0.56831 0.12835 0.76523 0.0
H1135 H 0.52709 0.19191 0.81594 0.0
H1136 H 0.5426 0.13954 0.88883 0.0
H1137 H 0.55855 0.16768 0.84948 0.0
H1138 H 0.52773 0.10333 0.79131 0.0
H1139 H 0.51181 0.07489 0.83072 0.0
C1140 C 0.55959 0.16725 0.74484 0.0
C1141 C 0.54712 0.19372 0.7474 0.0
C1142 C 0.55969 0.14918 0.76786 0.0
C1143 C 0.54782 0.15769 0.79377 0.0
C1144 C 0.53679 0.18485 0.79646 0.0
C1145 C 0.53622 0.20253 0.77348 0.0
C1146 C 0.53969 0.13103 0.86771 0.0
C1147 C 0.5254 0.10514 0.86298 0.0
C1148 C 0.54886 0.14721 0.84515 0.0
C1149 C 0.54407 0.13788 0.81732 0.0
C1150 C 0.53185 0.11101 0.81254 0.0
C1151 C 0.52257 0.0948 0.83515 0.0
H1152 H 0.7856 0.45184 0.67257 0.0
H1153 H 0.7471 0.50744 0.73368 0.0
H1154 H 0.74366 0.45525 0.6423 0.0
H1155 H 0.70573 0.51078 0.70407 0.0
H1156 H 0.62665 0.49941 0.65591 0.0
H1157 H 0.66551 0.48351 0.68438 0.0
H1158 H 0.72266 0.49544 0.61472 0.0
H1159 H 0.68356 0.51111 0.58584 0.0
C1160 C 0.76789 0.46412 0.67979 0.0
C1161 C 0.76939 0.47931 0.70539 0.0
C1162 C 0.7441 0.46632 0.66244 0.0
C1163 C 0.72139 0.48329 0.67082 0.0
C1164 C 0.72261 0.49725 0.69711 0.0
C1165 C 0.74635 0.49542 0.71405 0.0
C1166 C 0.6474 0.49845 0.64646 0.0
C1167 C 0.652 0.50702 0.61867 0.0
C1168 C 0.66969 0.48927 0.66282 0.0
C1169 C 0.6972 0.48842 0.65188 0.0
C1170 C 0.70165 0.49564 0.62367 0.0
C1171 C 0.67928 0.50487 0.60723 0.0
H1172 H 0.2586 0.92446 0.70564 0.0
H1173 H 0.24779 0.00393 0.66489 0.0
H1174 H 0.29786 0.91385 0.67376 0.0
H1175 H 0.28661 0.99318 0.633 0.0
H1176 H 0.3438 0.9537 0.56584 0.0
H1177 H 0.30085 0.95806 0.59404 0.0
H1178 H 0.34725 0.93705 0.66844 0.0
H1179 H 0.39022 0.93295 0.64046 0.0
C1180 C 0.26425 0.93939 0.68958 0.0
C1181 C 0.25021 0.96507 0.68783 0.0
C1182 C 0.2868 0.9334 0.67148 0.0
C1183 C 0.29531 0.95274 0.65097 0.0
C1184 C 0.2804 0.9778 0.64845 0.0
C1185 C 0.25826 0.984 0.66681 0.0
C1186 C 0.3448 0.94979 0.58817 0.0
C1187 C 0.37049 0.94315 0.60092 0.0
C1188 C 0.32023 0.95235 0.6043 0.0
C1189 C 0.32072 0.94784 0.63341 0.0
C1190 C 0.34619 0.94036 0.64601 0.0
C1191 C 0.37083 0.93825 0.62999 0.0
H1192 H 0.79617 0.49162 0.8373 0.0
H1193 H 0.75349 0.55912 0.79677 0.0
H1194 H 0.75602 0.48458 0.8683 0.0
H1195 H 0.71282 0.55212 0.82813 0.0
H1196 H 0.68578 0.4859 0.93078 0.0
H1197 H 0.72693 0.50454 0.90615 0.0
H1198 H 0.67719 0.51256 0.8309 0.0
H1199 H 0.63586 0.49427 0.85555 0.0
C1200 C 0.77838 0.50544 0.83555 0.0
C1201 C 0.77783 0.52586 0.81465 0.0
C1202 C 0.7554 0.50149 0.85339 0.0
C1203 C 0.73115 0.51766 0.85055 0.0
C1204 C 0.73116 0.53919 0.83062 0.0
C1205 C 0.75448 0.54342 0.81291 0.0
C1206 C 0.68351 0.49179 0.90904 0.0
C1207 C 0.65755 0.48821 0.89506 0.0
C1208 C 0.70711 0.50252 0.89495 0.0
C1209 C 0.70533 0.51 0.86658 0.0
C1210 C 0.67917 0.50734 0.85286 0.0
C1211 C 0.65555 0.49653 0.86692 0.0
H1212 H 0.27568 0.98378 0.79042 0.0
H1213 H 0.26007 0.07266 0.80183 0.0
H1214 H 0.31619 0.98822 0.82178 0.0
H1215 H 0.30061 0.07691 0.83364 0.0
H1216 H 0.35408 0.05973 0.91418 0.0
H1217 H 0.31318 0.05543 0.88306 0.0
H1218 H 0.3646 0.01562 0.81932 0.0
H1219 H 0.40563 0.02016 0.85018 0.0
C1220 C 0.28087 0.00425 0.7997 0.0
C1221 C 0.26476 0.02791 0.79372 0.0
C1222 C 0.30409 0.00676 0.81751 0.0
C1223 C 0.31135 0.03286 0.83003 0.0
C1224 C 0.2952 0.05653 0.82428 0.0
C1225 C 0.2722 0.05413 0.80603 0.0
C1226 C 0.3566 0.04988 0.89361 0.0
C1227 C 0.383 0.04023 0.88458 0.0
C1228 C 0.33329 0.04766 0.87578 0.0
C1229 C 0.33592 0.03531 0.84888 0.0
C1230 C 0.36213 0.02515 0.84005 0.0
C1231 C 0.38554 0.0278 0.85766 0.0
H1232 H 0.6914 0.76849 0.50261 0.0
H1233 H 0.73244 0.75095 0.58113 0.0
H1234 H 0.66131 0.72672 0.50767 0.0
H1235 H 0.70233 0.7087 0.58602 0.0
H1236 H 0.66895 0.61776 0.55911 0.0
H1237 H 0.69734 0.6613 0.55794 0.0
H1238 H 0.62268 0.70824 0.54024 0.0
H1239 H 0.59422 0.66492 0.54163 0.0
C1240 C 0.69382 0.75583 0.5211 0.0
C1241 C 0.71429 0.76301 0.54149 0.0
C1242 C 0.67651 0.73195 0.52402 0.0
C1243 C 0.67956 0.7144 0.54717 0.0
C1244 C 0.69969 0.72178 0.56786 0.0
C1245 C 0.71673 0.74604 0.56519 0.0
C1246 C 0.65859 0.63736 0.55493 0.0
C1247 C 0.62931 0.63782 0.55034 0.0
C1248 C 0.67482 0.6623 0.55453 0.0
C1249 C 0.66219 0.68815 0.54909 0.0
C1250 C 0.63298 0.6886 0.54438 0.0
C1251 C 0.6167 0.66378 0.54521 0.0
H1252 H 0.7158 0.25266 0.01921 0.0
H1253 H 0.70144 0.22806 0.93233 0.0
H1254 H 0.68643 0.29336 0.01364 0.0
H1255 H 0.67136 0.26931 0.92692 0.0
H1256 H 0.59464 0.33108 0.94583 0.0
H1257 H 0.62343 0.28883 0.94806 0.0
H1258 H 0.6912 0.33844 0.98546 0.0
H1259 H 0.6628 0.38056 0.98306 0.0
C1260 C 0.70624 0.2558 0.99887 0.0
C1261 C 0.71106 0.23698 0.97618 0.0
C1262 C 0.68949 0.27932 0.9957 0.0
C1263 C 0.6767 0.28464 0.96984 0.0
C1264 C 0.68092 0.26564 0.94714 0.0
C1265 C 0.6982 0.24214 0.9502 0.0
C1266 C 0.61567 0.33295 0.9546 0.0
C1267 C 0.62632 0.35922 0.96446 0.0
C1268 C 0.63221 0.3088 0.9556 0.0
C1269 C 0.65955 0.31034 0.96693 0.0
C1270 C 0.67015 0.33657 0.97676 0.0
C1271 C 0.65385 0.36071 0.97537 0.0
H1272 H 0.3154 0.26053 0.92759 0.0
H1273 H 0.35701 0.27977 0.00657 0.0
H1274 H 0.3504 0.22439 0.91727 0.0
H1275 H 0.39161 0.24389 0.9964 0.0
H1276 H 0.45799 0.18346 0.96554 0.0
H1277 H 0.43062 0.2268 0.96531 0.0
H1278 H 0.35635 0.17841 0.9408 0.0
H1279 H 0.38328 0.13561 0.94095 0.0
C1280 C 0.33232 0.25746 0.94241 0.0
C1281 C 0.33324 0.27258 0.96805 0.0
C1282 C 0.35226 0.23675 0.93659 0.0
C1283 C 0.37361 0.23119 0.95616 0.0
C1284 C 0.37559 0.24779 0.98083 0.0
C1285 C 0.35556 0.26815 0.98676 0.0
C1286 C 0.43589 0.18221 0.95989 0.0
C1287 C 0.42274 0.15607 0.95369 0.0
C1288 C 0.42026 0.20696 0.95972 0.0
C1289 C 0.39138 0.20598 0.95289 0.0
C1290 C 0.37862 0.17995 0.94571 0.0
C1291 C 0.39405 0.15533 0.94621 0.0
H1292 H 0.8258 0.23833 0.07228 0.0
H1293 H 0.82015 0.24521 0.98189 0.0
H1294 H 0.8607 0.27719 0.07338 0.0
H1295 H 0.85464 0.28351 0.98318 0.0
H1296 H 0.88355 0.37496 0.00589 0.0
H1297 H 0.85278 0.33333 0.00343 0.0
H1298 H 0.91143 0.28812 0.05416 0.0
H1299 H 0.94246 0.32985 0.05663 0.0
C1300 C 0.83201 0.24803 0.05275 0.0
C1301 C 0.82015 0.23881 0.02707 0.0
C1302 C 0.85207 0.27003 0.05335 0.0
C1303 C 0.86019 0.28323 0.02834 0.0
C1304 C 0.84854 0.27379 0.00274 0.0
C1305 C 0.82882 0.25179 0.00209 0.0
C1306 C 0.8901 0.35602 0.01616 0.0
C1307 C 0.91538 0.35561 0.0314 0.0
C1308 C 0.87251 0.33224 0.01476 0.0
C1309 C 0.87974 0.30771 0.02881 0.0
C1310 C 0.90535 0.30695 0.04342 0.0
C1311 C 0.92319 0.33068 0.04452 0.0
loop_
_geom_bond_atom_site_label_1
_geom_bond_atom_site_label_2
_geom_bond_distance
_geom_bond_site_symmetry_2
_ccdc_geom_bond_type
C0 O2 1.247 . S
C0 O4 1.258 1_455 S
C1 O8 1.247 . S
C1 O9 1.258 1_655 S
O2 C0 1.247 . S
O2 Zn3 2.028 . S
Zn3 O2 2.028 . S
Zn3 O7 2.035 . S
Zn3 O9 2.035 . S
Zn3 O10 2.028 . S
O4 C0 1.258 1_655 S
O4 Zn5 2.035 . S
Zn5 O4 2.035 . S
Zn5 O6 2.028 . S
Zn5 O8 2.028 . S
Zn5 O11 2.035 . S
O6 Zn5 2.028 . S
O6 C12 1.247 . S
O7 Zn3 2.035 . S
O7 C12 1.258 1_455 S
O8 C1 1.247 . S
O8 Zn5 2.028 . S
O9 C1 1.258 1_455 S
O9 Zn3 2.035 . S
O10 Zn3 2.028 . S
O10 C13 1.247 . S
O11 Zn5 2.035 . S
O11 C13 1.258 1_655 S
C12 O6 1.247 . S
C12 O7 1.258 1_655 S
C13 O10 1.247 . S
C13 O11 1.258 1_455 S
C14 O16 1.247 . S
C14 O18 1.258 . S
C15 O22 1.281 . S
C15 O23 1.258 . S
O16 C14 1.247 . S
O16 Zn17 2.028 . S
Zn17 O16 2.028 . S
Zn17 O21 2.035 . S
Zn17 O23 2.035 . S
Zn17 O24 2.028 . S
O18 C14 1.258 . S
O18 Zn19 2.034 1_455 S
Zn19 O18 2.034 1_655 S
Zn19 O20 2.028 1_655 S
Zn19 O22 2.026 1_655 S
Zn19 O25 2.034 1_655 S
O20 Zn19 2.028 1_455 S
O20 C26 1.247 . S
O21 Zn17 2.035 . S
O21 C26 1.258 . S
O22 C15 1.281 . S
O22 Zn19 2.026 1_455 S
O23 C15 1.258 . S
O23 Zn17 2.035 . S
O24 Zn17 2.028 . S
O24 C27 1.247 . S
O25 Zn19 2.034 1_455 S
O25 C27 1.258 . S
C26 O20 1.247 . S
C26 O21 1.258 . S
C27 O24 1.247 . S
C27 O25 1.258 . S
C28 O30 1.247 1_545 S
C28 O32 1.258 . S
C29 O36 1.247 1_565 S
C29 O37 1.258 . S
O30 C28 1.247 1_565 S
O30 Zn31 2.028 . S
Zn31 O30 2.028 . S
Zn31 O35 2.035 . S
Zn31 O37 2.035 . S
Zn31 O38 2.028 . S
O32 C28 1.258 . S
O32 Zn33 2.035 . S
Zn33 O32 2.035 . S
Zn33 O34 2.028 . S
Zn33 O36 2.028 . S
Zn33 O39 2.035 . S
O34 Zn33 2.028 . S
O34 C40 1.247 1_545 S
O35 Zn31 2.035 . S
O35 C40 1.258 . S
O36 C29 1.247 1_545 S
O36 Zn33 2.028 . S
O37 C29 1.258 . S
O37 Zn31 2.035 . S
O38 Zn31 2.028 . S
O38 C41 1.247 1_565 S
O39 Zn33 2.035 . S
O39 C41 1.258 . S
C40 O34 1.247 1_565 S
C40 O35 1.258 . S
C41 O38 1.247 1_545 S
C41 O39 1.258 . S
C42 O44 1.247 . S
C42 O46 1.258 . S
C43 O50 1.247 . S
C43 O51 1.258 . S
O44 C42 1.247 . S
O44 Zn45 2.028 . S
Zn45 O44 2.028 . S
Zn45 O49 2.035 . S
Zn45 O51 2.035 . S
Zn45 O52 2.028 . S
O46 C42 1.258 . S
O46 Zn47 2.035 . S
Zn47 O46 2.035 . S
Zn47 O48 2.028 . S
Zn47 O50 2.028 . S
Zn47 O53 2.035 . S
O48 Zn47 2.028 . S
O48 C54 1.247 . S
O49 Zn45 2.035 . S
O49 C54 1.258 . S
O50 C43 1.247 . S
O50 Zn47 2.028 . S
O51 C43 1.258 . S
O51 Zn45 2.035 . S
O52 Zn45 2.028 . S
O52 C55 1.247 . S
O53 Zn47 2.035 . S
O53 C55 1.258 . S
C54 O48 1.247 . S
C54 O49 1.258 . S
C55 O52 1.247 . S
C55 O53 1.258 . S
C56 O58 1.273 . S
C56 O60 1.258 . S
C57 O64 1.247 . S
C57 O65 1.258 1_554 S
O58 C56 1.273 . S
O58 Zn59 2.020 1_554 S
Zn59 O58 2.020 1_556 S
Zn59 O63 2.035 . S
Zn59 O65 2.035 . S
Zn59 O66 2.016 1_556 S
O60 C56 1.258 . S
O60 Zn61 2.035 . S
Zn61 O60 2.035 . S
Zn61 O62 2.028 . S
Zn61 O64 2.028 . S
Zn61 O67 2.035 . S
O62 Zn61 2.028 . S
O62 C68 1.247 . S
O63 Zn59 2.035 . S
O63 C68 1.258 1_556 S
O64 C57 1.247 . S
O64 Zn61 2.028 . S
O65 C57 1.258 1_556 S
O65 Zn59 2.035 . S
O66 Zn59 2.016 1_554 S
O66 C69 1.282 . S
O67 Zn61 2.035 . S
O67 C69 1.258 . S
C68 O62 1.247 . S
C68 O63 1.258 1_554 S
C69 O66 1.282 . S
C69 O67 1.258 . S
C70 O72 1.247 . S
C70 O74 1.258 . S
C71 O78 1.247 . S
C71 O79 1.258 . S
O72 C70 1.247 . S
O72 Zn73 2.028 . S
Zn73 O72 2.028 . S
Zn73 O77 2.035 . S
Zn73 O79 2.035 . S
Zn73 O80 2.028 . S
O74 C70 1.258 . S
O74 Zn75 2.035 . S
Zn75 O74 2.035 . S
Zn75 O76 2.028 . S
Zn75 O78 2.028 . S
Zn75 O81 2.035 . S
O76 Zn75 2.028 . S
O76 C82 1.247 . S
O77 Zn73 2.035 . S
O77 C82 1.258 . S
O78 C71 1.247 . S
O78 Zn75 2.028 . S
O79 C71 1.258 . S
O79 Zn73 2.035 . S
O80 Zn73 2.028 . S
O80 C83 1.247 . S
O81 Zn75 2.035 . S
O81 C83 1.258 . S
C82 O76 1.247 . S
C82 O77 1.258 . S
C83 O80 1.247 . S
C83 O81 1.258 . S
C84 O86 1.247 . S
C84 O88 1.258 . S
C85 O92 1.247 . S
C85 O93 1.258 . S
O86 C84 1.247 . S
O86 Zn87 2.028 . S
Zn87 O86 2.028 . S
Zn87 O91 2.035 . S
Zn87 O93 2.035 . S
Zn87 O94 2.028 . S
O88 C84 1.258 . S
O88 Zn89 2.035 . S
Zn89 O88 2.035 . S
Zn89 O90 2.028 . S
Zn89 O92 2.028 . S
Zn89 O95 2.035 . S
O90 Zn89 2.028 . S
O90 C96 1.247 . S
O91 Zn87 2.035 . S
O91 C96 1.258 . S
O92 C85 1.247 . S
O92 Zn89 2.028 . S
O93 C85 1.258 . S
O93 Zn87 2.035 . S
O94 Zn87 2.028 . S
O94 C97 1.247 . S
O95 Zn89 2.035 . S
O95 C97 1.258 . S
C96 O90 1.247 . S
C96 O91 1.258 . S
C97 O94 1.247 . S
C97 O95 1.258 . S
C98 O100 1.247 . S
C98 O102 1.258 . S
C99 O106 1.247 . S
C99 O107 1.258 . S
O100 C98 1.247 . S
O100 Zn101 2.028 . S
Zn101 O100 2.028 . S
Zn101 O105 2.035 . S
Zn101 O107 2.035 . S
Zn101 O108 2.028 . S
O102 C98 1.258 . S
O102 Zn103 2.035 . S
Zn103 O102 2.035 . S
Zn103 O104 2.028 . S
Zn103 O106 2.028 . S
Zn103 O109 2.035 . S
O104 Zn103 2.028 . S
O104 C110 1.247 . S
O105 Zn101 2.035 . S
O105 C110 1.258 . S
O106 C99 1.247 . S
O106 Zn103 2.028 . S
O107 C99 1.258 . S
O107 Zn101 2.035 . S
O108 Zn101 2.028 . S
O108 C111 1.247 . S
O109 Zn103 2.035 . S
O109 C111 1.258 . S
C110 O104 1.247 . S
C110 O105 1.258 . S
C111 O108 1.247 . S
C111 O109 1.258 . S
C112 O114 1.247 . S
C112 O116 1.258 . S
C113 O120 1.247 . S
C113 O121 1.258 . S
O114 C112 1.247 . S
O114 Zn115 2.028 . S
Zn115 O114 2.028 . S
Zn115 O119 2.035 . S
Zn115 O121 2.035 . S
Zn115 O122 2.028 . S
O116 C112 1.258 . S
O116 Zn117 2.035 . S
Zn117 O116 2.035 . S
Zn117 O118 2.028 . S
Zn117 O120 2.028 . S
Zn117 O123 2.035 . S
O118 Zn117 2.028 . S
O118 C124 1.247 . S
O119 Zn115 2.035 . S
O119 C124 1.258 . S
O120 C113 1.247 . S
O120 Zn117 2.028 . S
O121 C113 1.258 . S
O121 Zn115 2.035 . S
O122 Zn115 2.028 . S
O122 C125 1.247 . S
O123 Zn117 2.035 . S
O123 C125 1.258 . S
C124 O118 1.247 . S
C124 O119 1.258 . S
C125 O122 1.247 . S
C125 O123 1.258 . S
C126 O128 1.247 . S
C126 O130 1.258 . S
C127 O134 1.247 . S
C127 O135 1.258 . S
O128 C126 1.247 . S
O128 Zn129 2.028 . S
Zn129 O128 2.028 . S
Zn129 O133 2.035 . S
Zn129 O135 2.035 . S
Zn129 O136 2.028 . S
O130 C126 1.258 . S
O130 Zn131 2.035 . S
Zn131 O130 2.035 . S
Zn131 O132 2.028 . S
Zn131 O134 2.028 . S
Zn131 O137 2.035 . S
O132 Zn131 2.028 . S
O132 C138 1.247 . S
O133 Zn129 2.035 . S
O133 C138 1.258 . S
O134 C127 1.247 . S
O134 Zn131 2.028 . S
O135 C127 1.258 . S
O135 Zn129 2.035 . S
O136 Zn129 2.028 . S
O136 C139 1.247 . S
O137 Zn131 2.035 . S
O137 C139 1.258 . S
C138 O132 1.247 . S
C138 O133 1.258 . S
C139 O136 1.247 . S
C139 O137 1.258 . S
C140 O142 1.247 1_545 S
C140 O144 1.258 . S
C141 O148 1.247 . S
C141 O149 1.258 1_545 S
O142 C140 1.247 1_565 S
O142 Zn143 2.028 . S
Zn143 O142 2.028 . S
Zn143 O147 2.035 . S
Zn143 O149 2.035 . S
Zn143 O150 2.028 . S
O144 C140 1.258 . S
O144 Zn145 2.035 . S
Zn145 O144 2.035 . S
Zn145 O146 2.028 . S
Zn145 O148 2.028 . S
Zn145 O151 2.035 . S
O146 Zn145 2.028 . S
O146 C152 1.247 . S
O147 Zn143 2.035 . S
O147 C152 1.258 1_565 S
O148 C141 1.247 . S
O148 Zn145 2.028 . S
O149 C141 1.258 1_565 S
O149 Zn143 2.035 . S
O150 Zn143 2.028 . S
O150 C153 1.247 1_565 S
O151 Zn145 2.035 . S
O151 C153 1.258 . S
C152 O146 1.247 . S
C152 O147 1.258 1_545 S
C153 O150 1.247 1_545 S
C153 O151 1.258 . S
C154 O156 1.247 1_556 S
C154 O158 1.258 . S
C155 O162 1.247 1_554 S
C155 O163 1.258 . S
O156 C154 1.247 1_554 S
O156 Zn157 2.028 . S
Zn157 O156 2.028 . S
Zn157 O161 2.035 . S
Zn157 O163 2.035 . S
Zn157 O164 2.028 . S
O158 C154 1.258 . S
O158 Zn159 2.035 . S
Zn159 O158 2.035 . S
Zn159 O160 2.028 . S
Zn159 O162 2.028 . S
Zn159 O165 2.035 . S
O160 Zn159 2.028 . S
O160 C166 1.247 1_556 S
O161 Zn157 2.035 . S
O161 C166 1.258 . S
O162 C155 1.247 1_556 S
O162 Zn159 2.028 . S
O163 C155 1.258 . S
O163 Zn157 2.035 . S
O164 Zn157 2.028 . S
O164 C167 1.247 1_554 S
O165 Zn159 2.035 . S
O165 C167 1.258 . S
C166 O160 1.247 1_554 S
C166 O161 1.258 . S
C167 O164 1.247 1_556 S
C167 O165 1.258 . S
O168 Zn169 1.953 . S
O168 C184 1.225 . S
Zn169 O168 1.953 . S
Zn169 O170 1.949 . S
Zn169 O176 1.919 . S
Zn169 O181 1.924 1_545 S
O170 Zn169 1.949 . S
O170 Zn171 1.923 . S
O170 Zn172 1.950 . S
O170 Zn173 1.945 . S
Zn171 O170 1.923 . S
Zn171 O174 1.933 . S
Zn171 O177 1.941 . S
Zn171 O178 1.965 . S
Zn172 O170 1.950 . S
Zn172 O179 1.938 . S
Zn172 O180 1.906 1_554 S
Zn172 O190 1.953 . S
Zn173 O170 1.945 . S
Zn173 O175 1.932 . S
Zn173 O182 1.977 1_554 S
Zn173 O183 1.910 1_545 S
O174 Zn171 1.933 . S
O174 C185 1.226 1_455 S
O175 Zn173 1.932 . S
O175 C185 1.307 1_455 S
O176 Zn169 1.919 . S
O176 C187 1.253 . S
O177 Zn171 1.941 . S
O177 C187 1.283 . S
O178 Zn171 1.965 . S
O178 C186 1.303 . S
O179 Zn172 1.938 . S
O179 C186 1.247 . S
O180 Zn172 1.906 1_556 S
O180 C188 1.304 . S
O181 Zn169 1.924 1_565 S
O181 C189 1.311 . S
O182 Zn173 1.977 1_556 S
O182 C188 1.272 . S
O183 Zn173 1.910 1_565 S
O183 C189 1.231 . S
C184 O168 1.225 . S
C184 O190 1.298 . S
C185 O174 1.226 1_655 S
C185 O175 1.307 1_655 S
C186 O178 1.303 . S
C186 O179 1.247 . S
C187 O176 1.253 . S
C187 O177 1.283 . S
C188 O180 1.304 . S
C188 O182 1.272 . S
C189 O181 1.311 . S
C189 O183 1.231 . S
O190 Zn172 1.953 . S
O190 C184 1.298 . S
O191 Zn192 1.953 . S
O191 C207 1.225 . S
Zn192 O191 1.953 . S
Zn192 O193 1.949 . S
Zn192 O199 1.919 . S
Zn192 O204 1.924 . S
O193 Zn192 1.949 . S
O193 Zn194 1.923 . S
O193 Zn195 1.950 . S
O193 Zn196 1.945 . S
Zn194 O193 1.923 . S
Zn194 O197 1.933 1_655 S
Zn194 O200 1.941 . S
Zn194 O201 1.965 . S
Zn195 O193 1.950 . S
Zn195 O202 1.938 . S
Zn195 O203 1.906 1_554 S
Zn195 O213 1.953 . S
Zn196 O193 1.945 . S
Zn196 O198 1.932 1_655 S
Zn196 O205 1.977 1_554 S
Zn196 O206 1.910 1_655 S
O197 Zn194 1.933 1_455 S
O197 C208 1.226 . S
O198 Zn196 1.932 1_455 S
O198 C208 1.307 . S
O199 Zn192 1.919 . S
O199 C210 1.253 . S
O200 Zn194 1.941 . S
O200 C210 1.283 . S
O201 Zn194 1.965 . S
O201 C209 1.303 . S
O202 Zn195 1.938 . S
O202 C209 1.247 . S
O203 Zn195 1.906 1_556 S
O203 C211 1.304 . S
O204 Zn192 1.924 . S
O204 C212 1.311 . S
O205 Zn196 1.977 1_556 S
O205 C211 1.272 . S
O206 Zn196 1.910 1_455 S
O206 C212 1.231 1_455 S
C207 O191 1.225 . S
C207 O213 1.298 . S
C208 O197 1.226 . S
C208 O198 1.307 . S
C209 O201 1.303 . S
C209 O202 1.247 . S
C210 O199 1.253 . S
C210 O200 1.283 . S
C211 O203 1.304 . S
C211 O205 1.272 . S
C212 O204 1.311 . S
C212 O206 1.231 1_655 S
O213 Zn195 1.953 . S
O213 C207 1.298 . S
O214 Zn215 1.953 . S
O214 C230 1.225 . S
Zn215 O214 1.953 . S
Zn215 O216 1.949 . S
Zn215 O222 1.919 . S
Zn215 O227 1.924 . S
O216 Zn215 1.949 . S
O216 Zn217 1.923 . S
O216 Zn218 1.950 . S
O216 Zn219 1.945 . S
Zn217 O216 1.923 . S
Zn217 O220 1.933 . S
Zn217 O223 1.941 . S
Zn217 O224 1.965 . S
Zn218 O216 1.950 . S
Zn218 O225 1.938 . S
Zn218 O226 1.906 . S
Zn218 O236 1.953 . S
Zn219 O216 1.945 . S
Zn219 O221 1.932 1_565 S
Zn219 O228 1.977 . S
Zn219 O229 1.910 . S
O220 Zn217 1.933 . S
O220 C231 1.226 1_565 S
O221 Zn219 1.932 1_545 S
O221 C231 1.307 . S
O222 Zn215 1.919 . S
O222 C233 1.253 . S
O223 Zn217 1.941 . S
O223 C233 1.283 . S
O224 Zn217 1.965 . S
O224 C232 1.303 . S
O225 Zn218 1.938 . S
O225 C232 1.247 . S
O226 Zn218 1.906 . S
O226 C234 1.310 . S
O227 Zn215 1.924 . S
O227 C235 1.311 . S
O228 Zn219 1.977 . S
O228 C234 1.278 . S
O229 Zn219 1.910 . S
O229 C235 1.231 . S
C230 O214 1.225 . S
C230 O236 1.298 . S
C231 O220 1.226 1_545 S
C231 O221 1.307 . S
C232 O224 1.303 . S
C232 O225 1.247 . S
C233 O222 1.253 . S
C233 O223 1.283 . S
C234 O226 1.310 . S
C234 O228 1.278 . S
C235 O227 1.311 . S
C235 O229 1.231 . S
O236 Zn218 1.953 . S
O236 C230 1.298 . S
O237 Zn238 1.953 . S
O237 C253 1.225 . S
Zn238 O237 1.953 . S
Zn238 O239 1.949 . S
Zn238 O245 1.919 . S
Zn238 O250 1.924 1_655 S
O239 Zn238 1.949 . S
O239 Zn240 1.923 . S
O239 Zn241 1.950 . S
O239 Zn242 1.945 . S
Zn240 O239 1.923 . S
Zn240 O243 1.933 . S
Zn240 O246 1.941 . S
Zn240 O247 1.965 . S
Zn241 O239 1.950 . S
Zn241 O248 1.938 . S
Zn241 O249 1.906 . S
Zn241 O259 1.953 . S
Zn242 O239 1.945 . S
Zn242 O244 1.932 . S
Zn242 O251 1.974 1_655 S
Zn242 O252 1.910 1_655 S
O243 Zn240 1.933 . S
O243 C254 1.226 . S
O244 Zn242 1.932 . S
O244 C254 1.307 . S
O245 Zn238 1.919 . S
O245 C256 1.253 . S
O246 Zn240 1.941 . S
O246 C256 1.283 . S
O247 Zn240 1.965 . S
O247 C255 1.303 . S
O248 Zn241 1.938 . S
O248 C255 1.247 . S
O249 Zn241 1.906 . S
O249 C257 1.304 . S
O250 Zn238 1.924 1_455 S
O250 C258 1.311 . S
O251 Zn242 1.974 1_455 S
O251 C257 1.269 1_455 S
O252 Zn242 1.910 1_455 S
O252 C258 1.231 . S
C253 O237 1.225 . S
C253 O259 1.298 . S
C254 O243 1.226 . S
C254 O244 1.307 . S
C255 O247 1.303 . S
C255 O248 1.247 . S
C256 O245 1.253 . S
C256 O246 1.283 . S
C257 O249 1.304 . S
C257 O251 1.269 1_655 S
C258 O250 1.311 . S
C258 O252 1.231 . S
O259 Zn241 1.953 . S
O259 C253 1.298 . S
O260 Zn261 1.953 . S
O260 C276 1.225 . S
Zn261 O260 1.953 . S
Zn261 O262 1.949 . S
Zn261 O268 1.919 . S
Zn261 O273 1.924 . S
O262 Zn261 1.949 . S
O262 Zn263 1.923 . S
O262 Zn264 1.950 . S
O262 Zn265 1.945 . S
Zn263 O262 1.923 . S
Zn263 O266 1.933 . S
Zn263 O269 1.941 . S
Zn263 O270 1.965 . S
Zn264 O262 1.950 . S
Zn264 O271 1.938 . S
Zn264 O272 1.906 . S
Zn264 O282 1.953 . S
Zn265 O262 1.945 . S
Zn265 O267 1.932 . S
Zn265 O274 1.977 . S
Zn265 O275 1.910 1_565 S
O266 Zn263 1.933 . S
O266 C277 1.226 . S
O267 Zn265 1.932 . S
O267 C277 1.307 . S
O268 Zn261 1.919 . S
O268 C279 1.253 . S
O269 Zn263 1.941 . S
O269 C279 1.283 . S
O270 Zn263 1.965 . S
O270 C278 1.303 . S
O271 Zn264 1.938 . S
O271 C278 1.247 . S
O272 Zn264 1.906 . S
O272 C280 1.304 . S
O273 Zn261 1.924 . S
O273 C281 1.311 1_565 S
O274 Zn265 1.977 . S
O274 C280 1.272 . S
O275 Zn265 1.910 1_545 S
O275 C281 1.231 . S
C276 O260 1.225 . S
C276 O282 1.298 . S
C277 O266 1.226 . S
C277 O267 1.307 . S
C278 O270 1.303 . S
C278 O271 1.247 . S
C279 O268 1.253 . S
C279 O269 1.283 . S
C280 O272 1.304 . S
C280 O274 1.272 . S
C281 O273 1.311 1_545 S
C281 O275 1.231 . S
O282 Zn264 1.953 . S
O282 C276 1.298 . S
O283 Zn284 1.953 . S
O283 C299 1.225 . S
Zn284 O283 1.953 . S
Zn284 O285 1.949 . S
Zn284 O291 1.919 . S
Zn284 O296 1.924 . S
O285 Zn284 1.949 . S
O285 Zn286 1.923 . S
O285 Zn287 1.950 . S
O285 Zn288 1.945 . S
Zn286 O285 1.923 . S
Zn286 O289 1.933 . S
Zn286 O292 1.941 . S
Zn286 O293 1.965 . S
Zn287 O285 1.950 . S
Zn287 O294 1.938 . S
Zn287 O295 1.906 . S
Zn287 O305 1.953 . S
Zn288 O285 1.945 . S
Zn288 O290 1.932 . S
Zn288 O297 1.977 . S
Zn288 O298 1.910 . S
O289 Zn286 1.933 . S
O289 C300 1.226 . S
O290 Zn288 1.932 . S
O290 C300 1.307 . S
O291 Zn284 1.919 . S
O291 C302 1.253 . S
O292 Zn286 1.941 . S
O292 C302 1.283 . S
O293 Zn286 1.965 . S
O293 C301 1.303 . S
O294 Zn287 1.938 . S
O294 C301 1.247 . S
O295 Zn287 1.906 . S
O295 C303 1.304 . S
O296 Zn284 1.924 . S
O296 C304 1.311 . S
O297 Zn288 1.977 . S
O297 C303 1.272 . S
O298 Zn288 1.910 . S
O298 C304 1.231 . S
C299 O283 1.225 . S
C299 O305 1.298 . S
C300 O289 1.226 . S
C300 O290 1.307 . S
C301 O293 1.303 . S
C301 O294 1.247 . S
C302 O291 1.253 . S
C302 O292 1.283 . S
C303 O295 1.304 . S
C303 O297 1.272 . S
C304 O296 1.311 . S
C304 O298 1.231 . S
O305 Zn287 1.953 . S
O305 C299 1.298 . S
O306 Zn307 1.953 . S
O306 C322 1.225 . S
Zn307 O306 1.953 . S
Zn307 O308 1.949 . S
Zn307 O314 1.919 . S
Zn307 O319 1.924 . S
O308 Zn307 1.949 . S
O308 Zn309 1.923 . S
O308 Zn310 1.950 . S
O308 Zn311 1.945 . S
Zn309 O308 1.923 . S
Zn309 O312 1.933 . S
Zn309 O315 1.941 . S
Zn309 O316 1.965 . S
Zn310 O308 1.950 . S
Zn310 O317 1.938 . S
Zn310 O318 1.906 . S
Zn310 O328 1.953 . S
Zn311 O308 1.945 . S
Zn311 O313 1.932 . S
Zn311 O320 1.977 . S
Zn311 O321 1.910 1_556 S
O312 Zn309 1.933 . S
O312 C323 1.226 . S
O313 Zn311 1.932 . S
O313 C323 1.307 . S
O314 Zn307 1.919 . S
O314 C325 1.253 . S
O315 Zn309 1.941 . S
O315 C325 1.283 . S
O316 Zn309 1.965 . S
O316 C324 1.303 . S
O317 Zn310 1.938 . S
O317 C324 1.247 . S
O318 Zn310 1.906 . S
O318 C326 1.304 . S
O319 Zn307 1.924 . S
O319 C327 1.311 1_556 S
O320 Zn311 1.977 . S
O320 C326 1.272 . S
O321 Zn311 1.910 1_554 S
O321 C327 1.231 . S
C322 O306 1.225 . S
C322 O328 1.298 . S
C323 O312 1.226 . S
C323 O313 1.307 . S
C324 O316 1.303 . S
C324 O317 1.247 . S
C325 O314 1.253 . S
C325 O315 1.283 . S
C326 O318 1.304 . S
C326 O320 1.272 . S
C327 O319 1.311 1_554 S
C327 O321 1.231 . S
O328 Zn310 1.953 . S
O328 C322 1.298 . S
O329 Zn330 1.953 . S
O329 C345 1.225 . S
Zn330 O329 1.953 . S
Zn330 O331 1.949 . S
Zn330 O337 1.919 . S
Zn330 O342 1.924 . S
O331 Zn330 1.949 . S
O331 Zn332 1.923 . S
O331 Zn333 1.950 . S
O331 Zn334 1.945 . S
Zn332 O331 1.923 . S
Zn332 O335 1.961 . S
Zn332 O338 1.941 . S
Zn332 O339 1.965 . S
Zn333 O331 1.950 . S
Zn333 O340 1.938 . S
Zn333 O341 1.906 1_545 S
Zn333 O351 1.953 . S
Zn334 O331 1.945 . S
Zn334 O336 1.932 1_556 S
Zn334 O343 1.977 1_545 S
Zn334 O344 1.910 . S
O335 Zn332 1.961 . S
O335 C346 1.207 1_556 S
O336 Zn334 1.932 1_554 S
O336 C346 1.307 . S
O337 Zn330 1.919 . S
O337 C348 1.253 . S
O338 Zn332 1.941 . S
O338 C348 1.283 . S
O339 Zn332 1.965 . S
O339 C347 1.303 . S
O340 Zn333 1.938 . S
O340 C347 1.247 . S
O341 Zn333 1.906 1_565 S
O341 C349 1.304 . S
O342 Zn330 1.924 . S
O342 C350 1.311 . S
O343 Zn334 1.977 1_565 S
O343 C349 1.272 . S
O344 Zn334 1.910 . S
O344 C350 1.231 . S
C345 O329 1.225 . S
C345 O351 1.298 . S
C346 O335 1.207 1_554 S
C346 O336 1.307 . S
C347 O339 1.303 . S
C347 O340 1.247 . S
C348 O337 1.253 . S
C348 O338 1.283 . S
C349 O341 1.304 . S
C349 O343 1.272 . S
C350 O342 1.311 . S
C350 O344 1.231 . S
O351 Zn333 1.953 . S
O351 C345 1.298 . S
H352 C360 0.950 . S
H353 C365 0.950 . S
H354 C362 0.939 1_655 S
H355 C364 0.950 . S
H356 C366 0.950 . S
H357 C368 0.950 . S
H358 C370 0.950 1_655 S
H359 C371 0.950 . S
C360 H352 0.950 . S
C360 C361 1.386 1_655 S
C360 C362 1.388 1_655 S
C361 C360 1.386 1_455 S
C361 C365 1.393 . S
C362 H354 0.939 1_455 S
C362 C360 1.388 1_455 S
C362 C363 1.414 . S
C363 C362 1.414 . S
C363 C364 1.398 . S
C363 C369 1.491 . S
C364 H355 0.950 . S
C364 C363 1.398 . S
C364 C365 1.391 . S
C365 H353 0.950 . S
C365 C361 1.393 . S
C365 C364 1.391 . S
C366 H356 0.950 . S
C366 C367 1.386 . S
C366 C368 1.391 . S
C367 C366 1.386 . S
C367 C371 1.393 . S
C368 H357 0.950 . S
C368 C366 1.391 . S
C368 C369 1.400 . S
C369 C363 1.491 . S
C369 C368 1.400 . S
C369 C370 1.398 . S
C370 H358 0.950 1_455 S
C370 C369 1.398 . S
C370 C371 1.391 . S
C371 H359 0.950 . S
C371 C367 1.393 . S
C371 C370 1.391 . S
H372 C380 0.950 . S
H373 C385 0.950 . S
H374 C382 0.950 . S
H375 C384 0.950 . S
H376 C386 0.950 . S
H377 C388 0.950 . S
H378 C390 0.950 . S
H379 C391 0.950 . S
C380 H372 0.950 . S
C380 C381 1.386 . S
C380 C382 1.391 . S
C381 C380 1.386 . S
C381 C385 1.393 1_655 S
C382 H374 0.950 . S
C382 C380 1.391 . S
C382 C383 1.400 . S
C383 C382 1.400 . S
C383 C384 1.398 1_655 S
C383 C389 1.491 . S
C384 H375 0.950 . S
C384 C383 1.398 1_455 S
C384 C385 1.391 . S
C385 H373 0.950 . S
C385 C381 1.393 1_455 S
C385 C384 1.391 . S
C386 H376 0.950 . S
C386 C387 1.386 1_455 S
C386 C388 1.391 . S
C387 C386 1.386 1_655 S
C387 C391 1.393 . S
C388 H377 0.950 . S
C388 C386 1.391 . S
C388 C389 1.400 1_455 S
C389 C383 1.491 . S
C389 C388 1.400 1_655 S
C389 C390 1.398 . S
C390 H378 0.950 . S
C390 C389 1.398 . S
C390 C391 1.391 . S
C391 H379 0.950 . S
C391 C387 1.393 . S
C391 C390 1.391 . S
H392 C400 0.950 . S
H393 C405 0.950 . S
H394 C402 0.950 . S
H395 C404 0.950 . S
H396 C406 0.950 . S
H397 C408 0.950 . S
H398 C410 0.950 . S
H399 C411 0.950 . S
C400 H392 0.950 . S
C400 C401 1.386 . S
C400 C402 1.391 . S
C401 C400 1.386 . S
C401 C405 1.393 . S
C402 H394 0.950 . S
C402 C400 1.391 . S
C402 C403 1.400 . S
C403 C402 1.400 . S
C403 C404 1.398 . S
C403 C409 1.491 . S
C404 H395 0.950 . S
C404 C403 1.398 . S
C404 C405 1.391 . S
C405 H393 0.950 . S
C405 C401 1.393 . S
C405 C404 1.391 . S
C406 H396 0.950 . S
C406 C407 1.386 . S
C406 C408 1.391 . S
C407 C406 1.386 . S
C407 C411 1.393 . S
C408 H397 0.950 . S
C408 C406 1.391 . S
C408 C409 1.400 . S
C409 C403 1.491 . S
C409 C408 1.400 . S
C409 C410 1.398 . S
C410 H398 0.950 . S
C410 C409 1.398 . S
C410 C411 1.391 . S
C411 H399 0.950 . S
C411 C407 1.393 . S
C411 C410 1.391 . S
H412 C420 0.950 . S
H413 C425 0.950 . S
H414 C422 0.950 . S
H415 C424 0.950 . S
H416 C426 0.950 . S
H417 C428 0.950 . S
H418 C430 0.950 . S
H419 C431 0.950 . S
C420 H412 0.950 . S
C420 C421 1.386 1_655 S
C420 C422 1.391 . S
C421 C420 1.386 1_455 S
C421 C425 1.393 . S
C422 H414 0.950 . S
C422 C420 1.391 . S
C422 C423 1.400 1_655 S
C423 C422 1.400 1_455 S
C423 C424 1.398 . S
C423 C429 1.491 . S
C424 H415 0.950 . S
C424 C423 1.398 . S
C424 C425 1.391 . S
C425 H413 0.950 . S
C425 C421 1.393 . S
C425 C424 1.391 . S
C426 H416 0.950 . S
C426 C427 1.386 1_455 S
C426 C428 1.391 . S
C427 C426 1.386 1_655 S
C427 C431 1.393 . S
C428 H417 0.950 . S
C428 C426 1.391 . S
C428 C429 1.400 . S
C429 C423 1.491 . S
C429 C428 1.400 . S
C429 C430 1.398 1_455 S
C430 H418 0.950 . S
C430 C429 1.398 1_655 S
C430 C431 1.391 . S
C431 H419 0.950 . S
C431 C427 1.393 . S
C431 C430 1.391 . S
H432 C440 0.950 . S
H433 C445 0.950 . S
H434 C442 0.950 . S
H435 C444 0.950 . S
H436 C446 0.950 . S
H437 C448 0.950 . S
H438 C450 0.950 . S
H439 C451 0.950 . S
C440 H432 0.950 . S
C440 C441 1.386 1_565 S
C440 C442 1.391 . S
C441 C440 1.386 1_545 S
C441 C445 1.393 . S
C442 H434 0.950 . S
C442 C440 1.391 . S
C442 C443 1.400 1_565 S
C443 C442 1.400 1_545 S
C443 C444 1.398 . S
C443 C449 1.491 . S
C444 H435 0.950 . S
C444 C443 1.398 . S
C444 C445 1.391 . S
C445 H433 0.950 . S
C445 C441 1.393 . S
C445 C444 1.391 . S
C446 H436 0.950 . S
C446 C447 1.386 . S
C446 C448 1.391 . S
C447 C446 1.386 . S
C447 C451 1.393 1_545 S
C448 H437 0.950 . S
C448 C446 1.391 . S
C448 C449 1.400 . S
C449 C443 1.491 . S
C449 C448 1.400 . S
C449 C450 1.398 1_545 S
C450 H438 0.950 . S
C450 C449 1.398 1_565 S
C450 C451 1.391 . S
C451 H439 0.950 . S
C451 C447 1.393 1_565 S
C451 C450 1.391 . S
H452 C460 0.950 . S
H453 C465 0.950 . S
H454 C462 0.950 . S
H455 C464 0.950 . S
H456 C466 0.950 . S
H457 C468 0.950 . S
H458 C470 0.950 . S
H459 C471 0.950 . S
C460 H452 0.950 . S
C460 C461 1.386 . S
C460 C462 1.391 . S
C461 C460 1.386 . S
C461 C465 1.393 . S
C462 H454 0.950 . S
C462 C460 1.391 . S
C462 C463 1.400 . S
C463 C462 1.400 . S
C463 C464 1.398 . S
C463 C469 1.491 . S
C464 H455 0.950 . S
C464 C463 1.398 . S
C464 C465 1.391 . S
C465 H453 0.950 . S
C465 C461 1.393 . S
C465 C464 1.391 . S
C466 H456 0.950 . S
C466 C467 1.386 . S
C466 C468 1.391 . S
C467 C466 1.386 . S
C467 C471 1.393 . S
C468 H457 0.950 . S
C468 C466 1.391 . S
C468 C469 1.400 . S
C469 C463 1.491 . S
C469 C468 1.400 . S
C469 C470 1.398 . S
C470 H458 0.950 . S
C470 C469 1.398 . S
C470 C471 1.391 . S
C471 H459 0.950 . S
C471 C467 1.393 . S
C471 C470 1.391 . S
H472 C480 0.950 1_545 S
H473 C485 0.950 . S
H474 C482 0.950 1_545 S
H475 C484 0.950 . S
H476 C486 0.950 . S
H477 C488 0.950 . S
H478 C490 0.950 1_545 S
H479 C491 0.956 . S
C480 H472 0.950 1_565 S
C480 C481 1.386 . S
C480 C482 1.391 . S
C481 C480 1.386 . S
C481 C485 1.393 . S
C482 H474 0.950 1_565 S
C482 C480 1.391 . S
C482 C483 1.400 . S
C483 C482 1.400 . S
C483 C484 1.398 . S
C483 C489 1.491 . S
C484 H475 0.950 . S
C484 C483 1.398 . S
C484 C485 1.391 . S
C485 H473 0.950 . S
C485 C481 1.393 . S
C485 C484 1.391 . S
C486 H476 0.950 . S
C486 C487 1.386 . S
C486 C488 1.391 . S
C487 C486 1.386 . S
C487 C491 1.393 . S
C488 H477 0.950 . S
C488 C486 1.391 . S
C488 C489 1.400 . S
C489 C483 1.491 . S
C489 C488 1.400 . S
C489 C490 1.398 . S
C490 H478 0.950 1_565 S
C490 C489 1.398 . S
C490 C491 1.391 . S
C491 H479 0.956 . S
C491 C487 1.393 . S
C491 C490 1.391 . S
H492 C500 0.950 . S
H493 C505 0.950 . S
H494 C502 0.950 . S
H495 C504 0.950 . S
H496 C506 0.950 . S
H497 C508 0.950 . S
H498 C510 0.950 . S
H499 C511 0.950 . S
C500 H492 0.950 . S
C500 C501 1.386 . S
C500 C502 1.391 . S
C501 C500 1.386 . S
C501 C505 1.393 . S
C502 H494 0.950 . S
C502 C500 1.391 . S
C502 C503 1.400 . S
C503 C502 1.400 . S
C503 C504 1.398 . S
C503 C509 1.491 . S
C504 H495 0.950 . S
C504 C503 1.398 . S
C504 C505 1.391 . S
C505 H493 0.950 . S
C505 C501 1.393 . S
C505 C504 1.391 . S
C506 H496 0.950 . S
C506 C507 1.386 . S
C506 C508 1.391 . S
C507 C506 1.386 . S
C507 C511 1.393 . S
C508 H497 0.950 . S
C508 C506 1.391 . S
C508 C509 1.400 . S
C509 C503 1.491 . S
C509 C508 1.400 . S
C509 C510 1.398 . S
C510 H498 0.950 . S
C510 C509 1.398 . S
C510 C511 1.391 . S
C511 H499 0.950 . S
C511 C507 1.393 . S
C511 C510 1.391 . S
H512 C520 0.950 . S
H513 C525 0.950 1_556 S
H514 C522 0.950 . S
H515 C524 0.950 1_556 S
H516 C526 0.947 . S
H517 C528 0.950 1_556 S
H518 C530 0.950 . S
H519 C531 0.950 . S
C520 H512 0.950 . S
C520 C521 1.386 . S
C520 C522 1.391 . S
C521 C520 1.386 . S
C521 C525 1.393 . S
C522 H514 0.950 . S
C522 C520 1.391 . S
C522 C523 1.400 . S
C523 C522 1.400 . S
C523 C524 1.398 . S
C523 C529 1.491 . S
C524 H515 0.950 1_554 S
C524 C523 1.398 . S
C524 C525 1.391 . S
C525 H513 0.950 1_554 S
C525 C521 1.393 . S
C525 C524 1.391 . S
C526 H516 0.947 . S
C526 C527 1.387 1_556 S
C526 C528 1.392 1_556 S
C527 C526 1.387 1_554 S
C527 C531 1.393 . S
C528 H517 0.950 1_554 S
C528 C526 1.392 1_554 S
C528 C529 1.400 . S
C529 C523 1.491 . S
C529 C528 1.400 . S
C529 C530 1.398 . S
C530 H518 0.950 . S
C530 C529 1.398 . S
C530 C531 1.391 . S
C531 H519 0.950 . S
C531 C527 1.393 . S
C531 C530 1.391 . S
H532 C540 0.950 . S
H533 C545 0.950 . S
H534 C542 0.950 . S
H535 C544 0.950 . S
H536 C546 0.950 . S
H537 C548 0.950 . S
H538 C550 0.950 . S
H539 C551 0.950 . S
C540 H532 0.950 . S
C540 C541 1.386 . S
C540 C542 1.391 . S
C541 C540 1.386 . S
C541 C545 1.393 . S
C542 H534 0.950 . S
C542 C540 1.391 . S
C542 C543 1.400 . S
C543 C542 1.400 . S
C543 C544 1.398 . S
C543 C549 1.491 . S
C544 H535 0.950 . S
C544 C543 1.398 . S
C544 C545 1.391 . S
C545 H533 0.950 . S
C545 C541 1.393 . S
C545 C544 1.391 . S
C546 H536 0.950 . S
C546 C547 1.386 . S
C546 C548 1.391 . S
C547 C546 1.386 . S
C547 C551 1.393 . S
C548 H537 0.950 . S
C548 C546 1.391 . S
C548 C549 1.400 . S
C549 C543 1.491 . S
C549 C548 1.400 . S
C549 C550 1.398 . S
C550 H538 0.950 . S
C550 C549 1.398 . S
C550 C551 1.391 . S
C551 H539 0.950 . S
C551 C547 1.393 . S
C551 C550 1.391 . S
H552 C560 0.950 . S
H553 C565 0.950 . S
H554 C562 0.950 . S
H555 C564 0.950 . S
H556 C566 0.950 . S
H557 C568 0.950 . S
H558 C570 0.950 . S
H559 C571 0.950 . S
C560 H552 0.950 . S
C560 C561 1.386 . S
C560 C562 1.391 . S
C561 C560 1.386 . S
C561 C565 1.393 . S
C562 H554 0.950 . S
C562 C560 1.391 . S
C562 C563 1.400 . S
C563 C562 1.400 . S
C563 C564 1.398 . S
C563 C569 1.491 . S
C564 H555 0.950 . S
C564 C563 1.398 . S
C564 C565 1.391 . S
C565 H553 0.950 . S
C565 C561 1.393 . S
C565 C564 1.391 . S
C566 H556 0.950 . S
C566 C567 1.386 . S
C566 C568 1.391 . S
C567 C566 1.386 . S
C567 C571 1.393 . S
C568 H557 0.950 . S
C568 C566 1.391 . S
C568 C569 1.400 . S
C569 C563 1.491 . S
C569 C568 1.400 . S
C569 C570 1.398 . S
C570 H558 0.950 . S
C570 C569 1.398 . S
C570 C571 1.391 . S
C571 H559 0.950 . S
C571 C567 1.393 . S
C571 C570 1.391 . S
H572 C580 0.950 . S
H573 C585 0.950 . S
H574 C582 0.950 . S
H575 C584 0.950 . S
H576 C586 0.950 . S
H577 C588 0.950 . S
H578 C590 0.950 . S
H579 C591 0.950 . S
C580 H572 0.950 . S
C580 C581 1.386 . S
C580 C582 1.391 . S
C581 C580 1.386 . S
C581 C585 1.393 . S
C582 H574 0.950 . S
C582 C580 1.391 . S
C582 C583 1.400 . S
C583 C582 1.400 . S
C583 C584 1.398 . S
C583 C589 1.491 . S
C584 H575 0.950 . S
C584 C583 1.398 . S
C584 C585 1.391 . S
C585 H573 0.950 . S
C585 C581 1.393 . S
C585 C584 1.391 . S
C586 H576 0.950 . S
C586 C587 1.386 . S
C586 C588 1.391 . S
C587 C586 1.386 . S
C587 C591 1.393 . S
C588 H577 0.950 . S
C588 C586 1.391 . S
C588 C589 1.400 . S
C589 C583 1.491 . S
C589 C588 1.400 . S
C589 C590 1.398 . S
C590 H578 0.950 . S
C590 C589 1.398 . S
C590 C591 1.391 . S
C591 H579 0.950 . S
C591 C587 1.393 . S
C591 C590 1.391 . S
H592 C600 0.950 . S
H593 C605 0.950 . S
H594 C602 0.950 . S
H595 C604 0.950 . S
H596 C606 0.950 . S
H597 C608 0.950 . S
H598 C610 0.950 . S
H599 C611 0.950 . S
C600 H592 0.950 . S
C600 C601 1.386 . S
C600 C602 1.391 . S
C601 C600 1.386 . S
C601 C605 1.393 . S
C602 H594 0.950 . S
C602 C600 1.391 . S
C602 C603 1.400 . S
C603 C602 1.400 . S
C603 C604 1.398 . S
C603 C609 1.491 . S
C604 H595 0.950 . S
C604 C603 1.398 . S
C604 C605 1.391 . S
C605 H593 0.950 . S
C605 C601 1.393 . S
C605 C604 1.391 . S
C606 H596 0.950 . S
C606 C607 1.386 . S
C606 C608 1.391 . S
C607 C606 1.386 . S
C607 C611 1.393 . S
C608 H597 0.950 . S
C608 C606 1.391 . S
C608 C609 1.400 . S
C609 C603 1.491 . S
C609 C608 1.400 . S
C609 C610 1.398 . S
C610 H598 0.950 . S
C610 C609 1.398 . S
C610 C611 1.391 . S
C611 H599 0.950 . S
C611 C607 1.393 . S
C611 C610 1.391 . S
H612 C620 0.950 . S
H613 C625 0.950 . S
H614 C622 0.950 . S
H615 C624 0.950 . S
H616 C626 0.950 . S
H617 C628 0.950 . S
H618 C630 0.950 . S
H619 C631 0.950 . S
C620 H612 0.950 . S
C620 C621 1.386 . S
C620 C622 1.391 . S
C621 C620 1.386 . S
C621 C625 1.393 . S
C622 H614 0.950 . S
C622 C620 1.391 . S
C622 C623 1.400 . S
C623 C622 1.400 . S
C623 C624 1.398 . S
C623 C629 1.491 . S
C624 H615 0.950 . S
C624 C623 1.398 . S
C624 C625 1.391 . S
C625 H613 0.950 . S
C625 C621 1.393 . S
C625 C624 1.391 . S
C626 H616 0.950 . S
C626 C627 1.386 . S
C626 C628 1.391 . S
C627 C626 1.386 . S
C627 C631 1.393 . S
C628 H617 0.950 . S
C628 C626 1.391 . S
C628 C629 1.400 . S
C629 C623 1.491 . S
C629 C628 1.400 . S
C629 C630 1.398 . S
C630 H618 0.950 . S
C630 C629 1.398 . S
C630 C631 1.391 . S
C631 H619 0.950 . S
C631 C627 1.393 . S
C631 C630 1.391 . S
H632 C640 0.950 . S
H633 C645 0.950 . S
H634 C642 0.950 . S
H635 C644 0.950 . S
H636 C646 0.950 . S
H637 C648 0.950 . S
H638 C650 0.950 . S
H639 C651 0.950 . S
C640 H632 0.950 . S
C640 C641 1.386 . S
C640 C642 1.391 . S
C641 C640 1.386 . S
C641 C645 1.393 . S
C642 H634 0.950 . S
C642 C640 1.391 . S
C642 C643 1.400 . S
C643 C642 1.400 . S
C643 C644 1.398 . S
C643 C649 1.491 . S
C644 H635 0.950 . S
C644 C643 1.398 . S
C644 C645 1.391 . S
C645 H633 0.950 . S
C645 C641 1.393 . S
C645 C644 1.391 . S
C646 H636 0.950 . S
C646 C647 1.386 . S
C646 C648 1.391 . S
C647 C646 1.386 . S
C647 C651 1.393 . S
C648 H637 0.950 . S
C648 C646 1.391 . S
C648 C649 1.400 . S
C649 C643 1.491 . S
C649 C648 1.400 . S
C649 C650 1.398 . S
C650 H638 0.950 . S
C650 C649 1.398 . S
C650 C651 1.391 . S
C651 H639 0.950 . S
C651 C647 1.393 . S
C651 C650 1.391 . S
H652 C660 0.950 . S
H653 C665 0.950 . S
H654 C662 0.950 . S
H655 C664 0.950 . S
H656 C666 0.950 . S
H657 C668 0.950 . S
H658 C670 0.950 . S
H659 C671 0.950 . S
C660 H652 0.950 . S
C660 C661 1.386 . S
C660 C662 1.391 . S
C661 C660 1.386 . S
C661 C665 1.393 . S
C662 H654 0.950 . S
C662 C660 1.391 . S
C662 C663 1.400 . S
C663 C662 1.400 . S
C663 C664 1.398 . S
C663 C669 1.491 . S
C664 H655 0.950 . S
C664 C663 1.398 . S
C664 C665 1.391 . S
C665 H653 0.950 . S
C665 C661 1.393 . S
C665 C664 1.391 . S
C666 H656 0.950 . S
C666 C667 1.386 . S
C666 C668 1.391 . S
C667 C666 1.386 . S
C667 C671 1.393 . S
C668 H657 0.950 . S
C668 C666 1.391 . S
C668 C669 1.400 . S
C669 C663 1.491 . S
C669 C668 1.400 . S
C669 C670 1.398 . S
C670 H658 0.950 . S
C670 C669 1.398 . S
C670 C671 1.391 . S
C671 H659 0.950 . S
C671 C667 1.393 . S
C671 C670 1.391 . S
H672 C680 0.950 . S
H673 C685 0.950 . S
H674 C682 0.950 . S
H675 C684 0.950 . S
H676 C686 0.950 . S
H677 C688 0.950 . S
H678 C690 0.950 . S
H679 C691 0.950 . S
C680 H672 0.950 . S
C680 C681 1.386 . S
C680 C682 1.391 . S
C681 C680 1.386 . S
C681 C685 1.393 . S
C682 H674 0.950 . S
C682 C680 1.391 . S
C682 C683 1.400 . S
C683 C682 1.400 . S
C683 C684 1.398 . S
C683 C689 1.491 . S
C684 H675 0.950 . S
C684 C683 1.398 . S
C684 C685 1.391 . S
C685 H673 0.950 . S
C685 C681 1.393 . S
C685 C684 1.391 . S
C686 H676 0.950 . S
C686 C687 1.386 . S
C686 C688 1.391 . S
C687 C686 1.386 . S
C687 C691 1.393 . S
C688 H677 0.950 . S
C688 C686 1.391 . S
C688 C689 1.400 . S
C689 C683 1.491 . S
C689 C688 1.400 . S
C689 C690 1.398 . S
C690 H678 0.950 . S
C690 C689 1.398 . S
C690 C691 1.391 . S
C691 H679 0.950 . S
C691 C687 1.393 . S
C691 C690 1.391 . S
H692 C700 0.950 . S
H693 C705 0.950 . S
H694 C702 0.950 . S
H695 C704 0.950 . S
H696 C706 0.950 . S
H697 C708 0.950 . S
H698 C710 0.954 . S
H699 C711 0.950 1_545 S
C700 H692 0.950 . S
C700 C701 1.386 . S
C700 C702 1.391 . S
C701 C700 1.386 . S
C701 C705 1.393 1_545 S
C702 H694 0.950 . S
C702 C700 1.391 . S
C702 C703 1.400 1_545 S
C703 C702 1.400 1_565 S
C703 C704 1.398 . S
C703 C709 1.491 . S
C704 H695 0.950 . S
C704 C703 1.398 . S
C704 C705 1.391 . S
C705 H693 0.950 . S
C705 C701 1.393 1_565 S
C705 C704 1.391 . S
C706 H696 0.950 . S
C706 C707 1.386 . S
C706 C708 1.391 . S
C707 C706 1.386 . S
C707 C711 1.393 . S
C708 H697 0.950 . S
C708 C706 1.391 . S
C708 C709 1.400 . S
C709 C703 1.491 . S
C709 C708 1.400 . S
C709 C710 1.395 1_565 S
C710 H698 0.954 . S
C710 C709 1.395 1_545 S
C710 C711 1.390 1_545 S
C711 H699 0.950 1_565 S
C711 C707 1.393 . S
C711 C710 1.390 1_565 S
H712 C720 0.950 . S
H713 C725 0.950 . S
H714 C722 0.950 . S
H715 C724 0.950 . S
H716 C726 0.950 . S
H717 C728 0.950 . S
H718 C730 0.950 . S
H719 C731 0.950 . S
C720 H712 0.950 . S
C720 C721 1.386 . S
C720 C722 1.391 . S
C721 C720 1.386 . S
C721 C725 1.393 . S
C722 H714 0.950 . S
C722 C720 1.391 . S
C722 C723 1.400 . S
C723 C722 1.400 . S
C723 C724 1.398 . S
C723 C729 1.491 . S
C724 H715 0.950 . S
C724 C723 1.398 . S
C724 C725 1.391 . S
C725 H713 0.950 . S
C725 C721 1.393 . S
C725 C724 1.391 . S
C726 H716 0.950 . S
C726 C727 1.386 . S
C726 C728 1.391 . S
C727 C726 1.386 . S
C727 C731 1.393 . S
C728 H717 0.950 . S
C728 C726 1.391 . S
C728 C729 1.400 . S
C729 C723 1.491 . S
C729 C728 1.400 . S
C729 C730 1.398 . S
C730 H718 0.950 . S
C730 C729 1.398 . S
C730 C731 1.391 . S
C731 H719 0.950 . S
C731 C727 1.393 . S
C731 C730 1.391 . S
H732 C740 0.950 1_565 S
H733 C745 0.950 . S
H734 C742 0.950 1_565 S
H735 C744 0.950 . S
H736 C746 0.950 . S
H737 C748 0.950 . S
H738 C750 0.950 1_565 S
H739 C751 0.925 1_565 S
C740 H732 0.950 1_545 S
C740 C741 1.386 . S
C740 C742 1.391 . S
C741 C740 1.386 . S
C741 C745 1.393 . S
C742 H734 0.950 1_545 S
C742 C740 1.391 . S
C742 C743 1.400 . S
C743 C742 1.400 . S
C743 C744 1.398 . S
C743 C749 1.491 . S
C744 H735 0.950 . S
C744 C743 1.398 . S
C744 C745 1.391 . S
C745 H733 0.950 . S
C745 C741 1.393 . S
C745 C744 1.391 . S
C746 H736 0.950 . S
C746 C747 1.386 . S
C746 C748 1.391 . S
C747 C746 1.386 . S
C747 C751 1.416 . S
C748 H737 0.950 . S
C748 C746 1.391 . S
C748 C749 1.400 . S
C749 C743 1.491 . S
C749 C748 1.400 . S
C749 C750 1.398 . S
C750 H738 0.950 1_545 S
C750 C749 1.398 . S
C750 C751 1.394 . S
C751 H739 0.925 1_545 S
C751 C747 1.416 . S
C751 C750 1.394 . S
H752 C760 0.950 . S
H753 C765 0.950 . S
H754 C762 0.950 . S
H755 C764 0.950 . S
H756 C766 0.950 . S
H757 C768 0.950 . S
H758 C770 0.950 . S
H759 C771 0.950 . S
C760 H752 0.950 . S
C760 C761 1.386 . S
C760 C762 1.391 . S
C761 C760 1.386 . S
C761 C765 1.393 . S
C762 H754 0.950 . S
C762 C760 1.391 . S
C762 C763 1.400 . S
C763 C762 1.400 . S
C763 C764 1.398 . S
C763 C769 1.491 . S
C764 H755 0.950 . S
C764 C763 1.398 . S
C764 C765 1.391 . S
C765 H753 0.950 . S
C765 C761 1.393 . S
C765 C764 1.391 . S
C766 H756 0.950 . S
C766 C767 1.386 . S
C766 C768 1.391 . S
C767 C766 1.386 . S
C767 C771 1.393 . S
C768 H757 0.950 . S
C768 C766 1.391 . S
C768 C769 1.400 . S
C769 C763 1.491 . S
C769 C768 1.400 . S
C769 C770 1.398 . S
C770 H758 0.950 . S
C770 C769 1.398 . S
C770 C771 1.391 . S
C771 H759 0.950 . S
C771 C767 1.393 . S
C771 C770 1.391 . S
H772 C780 0.950 . S
H773 C785 0.950 . S
H774 C782 0.950 . S
H775 C784 0.950 . S
H776 C786 0.950 . S
H777 C788 0.950 . S
H778 C790 0.950 . S
H779 C791 0.950 . S
C780 H772 0.950 . S
C780 C781 1.386 . S
C780 C782 1.391 . S
C781 C780 1.386 . S
C781 C785 1.393 . S
C782 H774 0.950 . S
C782 C780 1.391 . S
C782 C783 1.400 . S
C783 C782 1.400 . S
C783 C784 1.398 . S
C783 C789 1.491 . S
C784 H775 0.950 . S
C784 C783 1.398 . S
C784 C785 1.391 . S
C785 H773 0.950 . S
C785 C781 1.393 . S
C785 C784 1.391 . S
C786 H776 0.950 . S
C786 C787 1.386 . S
C786 C788 1.391 . S
C787 C786 1.386 . S
C787 C791 1.393 . S
C788 H777 0.950 . S
C788 C786 1.391 . S
C788 C789 1.400 . S
C789 C783 1.491 . S
C789 C788 1.400 . S
C789 C790 1.398 . S
C790 H778 0.950 . S
C790 C789 1.398 . S
C790 C791 1.391 . S
C791 H779 0.950 . S
C791 C787 1.393 . S
C791 C790 1.391 . S
H792 C800 0.950 . S
H793 C805 0.950 . S
H794 C802 0.950 . S
H795 C804 0.950 . S
H796 C806 0.950 . S
H797 C808 0.950 . S
H798 C810 0.950 . S
H799 C811 0.950 1_554 S
C800 H792 0.950 . S
C800 C801 1.386 . S
C800 C802 1.391 . S
C801 C800 1.386 . S
C801 C805 1.393 1_554 S
C802 H794 0.950 . S
C802 C800 1.391 . S
C802 C803 1.400 1_554 S
C803 C802 1.400 1_556 S
C803 C804 1.398 . S
C803 C809 1.491 . S
C804 H795 0.950 . S
C804 C803 1.398 . S
C804 C805 1.391 . S
C805 H793 0.950 . S
C805 C801 1.393 1_556 S
C805 C804 1.391 . S
C806 H796 0.950 . S
C806 C807 1.386 . S
C806 C808 1.391 . S
C807 C806 1.386 . S
C807 C811 1.393 . S
C808 H797 0.950 . S
C808 C806 1.391 . S
C808 C809 1.400 . S
C809 C803 1.491 . S
C809 C808 1.400 . S
C809 C810 1.398 1_556 S
C810 H798 0.950 . S
C810 C809 1.398 1_554 S
C810 C811 1.391 1_554 S
C811 H799 0.950 1_556 S
C811 C807 1.393 . S
C811 C810 1.391 1_556 S
H812 C820 0.950 . S
H813 C825 0.950 . S
H814 C822 0.950 . S
H815 C824 0.950 . S
H816 C826 0.950 . S
H817 C828 0.950 . S
H818 C830 0.950 . S
H819 C831 0.950 . S
C820 H812 0.950 . S
C820 C821 1.386 1_556 S
C820 C822 1.391 . S
C821 C820 1.386 1_554 S
C821 C825 1.393 . S
C822 H814 0.950 . S
C822 C820 1.391 . S
C822 C823 1.400 1_556 S
C823 C822 1.400 1_554 S
C823 C824 1.398 . S
C823 C829 1.491 . S
C824 H815 0.950 . S
C824 C823 1.398 . S
C824 C825 1.391 . S
C825 H813 0.950 . S
C825 C821 1.393 . S
C825 C824 1.391 . S
C826 H816 0.950 . S
C826 C827 1.386 . S
C826 C828 1.391 . S
C827 C826 1.386 . S
C827 C831 1.393 1_554 S
C828 H817 0.950 . S
C828 C826 1.391 . S
C828 C829 1.400 . S
C829 C823 1.491 . S
C829 C828 1.400 . S
C829 C830 1.398 1_554 S
C830 H818 0.950 . S
C830 C829 1.398 1_556 S
C830 C831 1.391 . S
C831 H819 0.950 . S
C831 C827 1.393 1_556 S
C831 C830 1.391 . S
H832 C840 0.950 . S
H833 C845 0.950 . S
H834 C842 0.950 . S
H835 C844 0.950 1_655 S
H836 C846 0.950 . S
H837 C848 0.950 . S
H838 C850 0.950 . S
H839 C851 0.950 . S
C840 H832 0.950 . S
C840 C841 1.386 . S
C840 C842 1.391 . S
C841 C840 1.386 . S
C841 C845 1.393 1_455 S
C842 H834 0.950 . S
C842 C840 1.391 . S
C842 C843 1.400 . S
C843 C842 1.400 . S
C843 C844 1.398 . S
C843 C849 1.491 . S
C844 H835 0.950 1_455 S
C844 C843 1.398 . S
C844 C845 1.391 1_455 S
C845 H833 0.950 . S
C845 C841 1.393 1_655 S
C845 C844 1.391 1_655 S
C846 H836 0.950 . S
C846 C847 1.386 . S
C846 C848 1.391 . S
C847 C846 1.386 . S
C847 C851 1.393 . S
C848 H837 0.950 . S
C848 C846 1.391 . S
C848 C849 1.400 . S
C849 C843 1.491 . S
C849 C848 1.400 . S
C849 C850 1.398 . S
C850 H838 0.950 . S
C850 C849 1.398 . S
C850 C851 1.391 . S
C851 H839 0.950 . S
C851 C847 1.393 . S
C851 C850 1.391 . S
H852 C860 0.950 . S
H853 C865 0.950 . S
H854 C862 0.950 . S
H855 C864 0.950 . S
H856 C866 0.950 . S
H857 C868 0.956 . S
H858 C870 0.950 . S
H859 C871 0.950 . S
C860 H852 0.950 . S
C860 C861 1.386 . S
C860 C862 1.391 . S
C861 C860 1.386 . S
C861 C865 1.393 . S
C862 H854 0.950 . S
C862 C860 1.391 . S
C862 C863 1.400 . S
C863 C862 1.400 . S
C863 C864 1.398 . S
C863 C869 1.491 . S
C864 H855 0.950 . S
C864 C863 1.398 . S
C864 C865 1.391 . S
C865 H853 0.950 . S
C865 C861 1.393 . S
C865 C864 1.391 . S
C866 H856 0.950 . S
C866 C867 1.386 1_455 S
C866 C868 1.393 . S
C867 C866 1.386 1_655 S
C867 C871 1.393 . S
C868 H857 0.956 . S
C868 C866 1.393 . S
C868 C869 1.394 1_455 S
C869 C863 1.491 . S
C869 C868 1.394 1_655 S
C869 C870 1.398 . S
C870 H858 0.950 . S
C870 C869 1.398 . S
C870 C871 1.391 . S
C871 H859 0.950 . S
C871 C867 1.393 . S
C871 C870 1.391 . S
H872 C880 0.950 . S
H873 C885 0.953 . S
H874 C882 0.950 . S
H875 C884 0.950 . S
H876 C886 0.950 . S
H877 C888 0.950 . S
H878 C890 0.950 . S
H879 C891 0.950 . S
C880 H872 0.950 . S
C880 C881 1.386 . S
C880 C882 1.391 . S
C881 C880 1.386 . S
C881 C885 1.393 . S
C882 H874 0.950 . S
C882 C880 1.391 . S
C882 C883 1.400 . S
C883 C882 1.400 . S
C883 C884 1.398 . S
C883 C889 1.491 . S
C884 H875 0.950 . S
C884 C883 1.398 . S
C884 C885 1.391 . S
C885 H873 0.953 . S
C885 C881 1.393 . S
C885 C884 1.391 . S
C886 H876 0.950 . S
C886 C887 1.386 . S
C886 C888 1.391 . S
C887 C886 1.386 . S
C887 C891 1.393 . S
C888 H877 0.950 . S
C888 C886 1.391 . S
C888 C889 1.400 . S
C889 C883 1.491 . S
C889 C888 1.400 . S
C889 C890 1.398 . S
C890 H878 0.950 . S
C890 C889 1.398 . S
C890 C891 1.391 . S
C891 H879 0.950 . S
C891 C887 1.393 . S
C891 C890 1.391 . S
H892 C900 0.936 1_655 S
H893 C905 0.950 . S
H894 C902 0.950 . S
H895 C904 0.950 . S
H896 C906 0.950 . S
H897 C908 0.950 . S
H898 C910 0.950 . S
H899 C911 0.950 . S
C900 H892 0.936 1_455 S
C900 C901 1.404 . S
C900 C902 1.387 1_455 S
C901 C900 1.404 . S
C901 C905 1.393 . S
C902 H894 0.950 . S
C902 C900 1.387 1_655 S
C902 C903 1.400 1_655 S
C903 C902 1.400 1_455 S
C903 C904 1.398 . S
C903 C909 1.491 . S
C904 H895 0.950 . S
C904 C903 1.398 . S
C904 C905 1.391 . S
C905 H893 0.950 . S
C905 C901 1.393 . S
C905 C904 1.391 . S
C906 H896 0.950 . S
C906 C907 1.386 1_455 S
C906 C908 1.391 . S
C907 C906 1.386 1_655 S
C907 C911 1.393 . S
C908 H897 0.950 . S
C908 C906 1.391 . S
C908 C909 1.400 . S
C909 C903 1.491 . S
C909 C908 1.400 . S
C909 C910 1.398 1_455 S
C910 H898 0.950 . S
C910 C909 1.398 1_655 S
C910 C911 1.391 . S
C911 H899 0.950 . S
C911 C907 1.393 . S
C911 C910 1.391 . S
H912 C920 0.950 . S
H913 C925 0.950 . S
H914 C922 0.950 . S
H915 C924 0.950 . S
H916 C926 0.950 1_565 S
H917 C928 0.923 1_565 S
H918 C930 0.950 . S
H919 C931 0.950 . S
C920 H912 0.950 . S
C920 C921 1.386 . S
C920 C922 1.391 . S
C921 C920 1.386 . S
C921 C925 1.393 1_545 S
C922 H914 0.950 . S
C922 C920 1.391 . S
C922 C923 1.400 . S
C923 C922 1.400 . S
C923 C924 1.398 1_545 S
C923 C929 1.491 . S
C924 H915 0.950 . S
C924 C923 1.398 1_565 S
C924 C925 1.391 . S
C925 H913 0.950 . S
C925 C921 1.393 1_565 S
C925 C924 1.391 . S
C926 H916 0.950 1_545 S
C926 C927 1.386 . S
C926 C928 1.395 . S
C927 C926 1.386 . S
C927 C931 1.393 . S
C928 H917 0.923 1_545 S
C928 C926 1.395 . S
C928 C929 1.424 . S
C929 C923 1.491 . S
C929 C928 1.424 . S
C929 C930 1.398 . S
C930 H918 0.950 . S
C930 C929 1.398 . S
C930 C931 1.391 . S
C931 H919 0.950 . S
C931 C927 1.393 . S
C931 C930 1.391 . S
H932 C940 0.950 . S
H933 C945 0.950 . S
H934 C942 0.950 . S
H935 C944 0.950 . S
H936 C946 0.950 . S
H937 C948 0.950 . S
H938 C950 0.950 . S
H939 C951 0.950 . S
C940 H932 0.950 . S
C940 C941 1.386 . S
C940 C942 1.391 . S
C941 C940 1.386 . S
C941 C945 1.393 . S
C942 H934 0.950 . S
C942 C940 1.391 . S
C942 C943 1.400 . S
C943 C942 1.400 . S
C943 C944 1.398 . S
C943 C949 1.491 . S
C944 H935 0.950 . S
C944 C943 1.398 . S
C944 C945 1.391 . S
C945 H933 0.950 . S
C945 C941 1.393 . S
C945 C944 1.391 . S
C946 H936 0.950 . S
C946 C947 1.386 . S
C946 C948 1.391 . S
C947 C946 1.386 . S
C947 C951 1.393 . S
C948 H937 0.950 . S
C948 C946 1.391 . S
C948 C949 1.400 . S
C949 C943 1.491 . S
C949 C948 1.400 . S
C949 C950 1.398 . S
C950 H938 0.950 . S
C950 C949 1.398 . S
C950 C951 1.391 . S
C951 H939 0.950 . S
C951 C947 1.393 . S
C951 C950 1.391 . S
H952 C960 0.950 . S
H953 C965 0.950 . S
H954 C962 0.950 . S
H955 C964 0.950 . S
H956 C966 0.950 . S
H957 C968 0.950 . S
H958 C970 0.950 . S
H959 C971 0.950 . S
C960 H952 0.950 . S
C960 C961 1.386 . S
C960 C962 1.391 . S
C961 C960 1.386 . S
C961 C965 1.393 1_565 S
C962 H954 0.950 . S
C962 C960 1.391 . S
C962 C963 1.400 . S
C963 C962 1.400 . S
C963 C964 1.398 1_565 S
C963 C969 1.491 . S
C964 H955 0.950 . S
C964 C963 1.398 1_545 S
C964 C965 1.391 . S
C965 H953 0.950 . S
C965 C961 1.393 1_545 S
C965 C964 1.391 . S
C966 H956 0.950 . S
C966 C967 1.386 1_545 S
C966 C968 1.391 . S
C967 C966 1.386 1_565 S
C967 C971 1.393 . S
C968 H957 0.950 . S
C968 C966 1.391 . S
C968 C969 1.400 1_545 S
C969 C963 1.491 . S
C969 C968 1.400 1_565 S
C969 C970 1.398 . S
C970 H958 0.950 . S
C970 C969 1.398 . S
C970 C971 1.391 . S
C971 H959 0.950 . S
C971 C967 1.393 . S
C971 C970 1.391 . S
H972 C980 0.950 . S
H973 C985 0.950 . S
H974 C982 0.950 . S
H975 C984 0.950 . S
H976 C986 0.950 . S
H977 C988 0.950 . S
H978 C990 0.950 . S
H979 C991 0.950 . S
C980 H972 0.950 . S
C980 C981 1.386 . S
C980 C982 1.391 . S
C981 C980 1.386 . S
C981 C985 1.393 . S
C982 H974 0.950 . S
C982 C980 1.391 . S
C982 C983 1.400 . S
C983 C982 1.400 . S
C983 C984 1.398 . S
C983 C989 1.491 . S
C984 H975 0.950 . S
C984 C983 1.398 . S
C984 C985 1.391 . S
C985 H973 0.950 . S
C985 C981 1.393 . S
C985 C984 1.391 . S
C986 H976 0.950 . S
C986 C987 1.386 . S
C986 C988 1.391 . S
C987 C986 1.386 . S
C987 C991 1.393 . S
C988 H977 0.950 . S
C988 C986 1.391 . S
C988 C989 1.400 . S
C989 C983 1.491 . S
C989 C988 1.400 . S
C989 C990 1.398 . S
C990 H978 0.950 . S
C990 C989 1.398 . S
C990 C991 1.391 . S
C991 H979 0.950 . S
C991 C987 1.393 . S
C991 C990 1.391 . S
H992 C1000 0.950 . S
H993 C1005 0.950 . S
H994 C1002 0.950 . S
H995 C1004 0.950 . S
H996 C1006 0.950 . S
H997 C1008 0.950 . S
H998 C1010 0.950 . S
H999 C1011 0.950 . S
C1000 H992 0.950 . S
C1000 C1001 1.386 . S
C1000 C1002 1.391 . S
C1001 C1000 1.386 . S
C1001 C1005 1.393 . S
C1002 H994 0.950 . S
C1002 C1000 1.391 . S
C1002 C1003 1.400 . S
C1003 C1002 1.400 . S
C1003 C1004 1.398 . S
C1003 C1009 1.491 . S
C1004 H995 0.950 . S
C1004 C1003 1.398 . S
C1004 C1005 1.391 . S
C1005 H993 0.950 . S
C1005 C1001 1.393 . S
C1005 C1004 1.391 . S
C1006 H996 0.950 . S
C1006 C1007 1.386 . S
C1006 C1008 1.391 . S
C1007 C1006 1.386 . S
C1007 C1011 1.393 . S
C1008 H997 0.950 . S
C1008 C1006 1.391 . S
C1008 C1009 1.400 . S
C1009 C1003 1.491 . S
C1009 C1008 1.400 . S
C1009 C1010 1.398 . S
C1010 H998 0.950 . S
C1010 C1009 1.398 . S
C1010 C1011 1.391 . S
C1011 H999 0.950 . S
C1011 C1007 1.393 . S
C1011 C1010 1.391 . S
H1012 C1020 0.950 . S
H1013 C1025 0.950 . S
H1014 C1022 0.950 . S
H1015 C1024 0.950 . S
H1016 C1026 0.950 . S
H1017 C1028 0.950 . S
H1018 C1030 0.950 . S
H1019 C1031 0.950 . S
C1020 H1012 0.950 . S
C1020 C1021 1.386 . S
C1020 C1022 1.391 . S
C1021 C1020 1.386 . S
C1021 C1025 1.393 . S
C1022 H1014 0.950 . S
C1022 C1020 1.391 . S
C1022 C1023 1.400 . S
C1023 C1022 1.400 . S
C1023 C1024 1.398 . S
C1023 C1029 1.491 . S
C1024 H1015 0.950 . S
C1024 C1023 1.398 . S
C1024 C1025 1.391 . S
C1025 H1013 0.950 . S
C1025 C1021 1.393 . S
C1025 C1024 1.391 . S
C1026 H1016 0.950 . S
C1026 C1027 1.386 . S
C1026 C1028 1.391 . S
C1027 C1026 1.386 . S
C1027 C1031 1.393 . S
C1028 H1017 0.950 . S
C1028 C1026 1.391 . S
C1028 C1029 1.400 . S
C1029 C1023 1.491 . S
C1029 C1028 1.400 . S
C1029 C1030 1.398 . S
C1030 H1018 0.950 . S
C1030 C1029 1.398 . S
C1030 C1031 1.391 . S
C1031 H1019 0.950 . S
C1031 C1027 1.393 . S
C1031 C1030 1.391 . S
H1032 C1040 0.950 . S
H1033 C1045 0.950 . S
H1034 C1042 0.950 . S
H1035 C1044 0.950 . S
H1036 C1046 0.950 . S
H1037 C1048 0.950 . S
H1038 C1050 0.950 . S
H1039 C1051 0.950 . S
C1040 H1032 0.950 . S
C1040 C1041 1.386 . S
C1040 C1042 1.391 . S
C1041 C1040 1.386 . S
C1041 C1045 1.393 . S
C1042 H1034 0.950 . S
C1042 C1040 1.391 . S
C1042 C1043 1.400 . S
C1043 C1042 1.400 . S
C1043 C1044 1.398 . S
C1043 C1049 1.491 . S
C1044 H1035 0.950 . S
C1044 C1043 1.398 . S
C1044 C1045 1.391 . S
C1045 H1033 0.950 . S
C1045 C1041 1.393 . S
C1045 C1044 1.391 . S
C1046 H1036 0.950 . S
C1046 C1047 1.386 . S
C1046 C1048 1.391 . S
C1047 C1046 1.386 . S
C1047 C1051 1.393 . S
C1048 H1037 0.950 . S
C1048 C1046 1.391 . S
C1048 C1049 1.400 . S
C1049 C1043 1.491 . S
C1049 C1048 1.400 . S
C1049 C1050 1.398 . S
C1050 H1038 0.950 . S
C1050 C1049 1.398 . S
C1050 C1051 1.391 . S
C1051 H1039 0.950 . S
C1051 C1047 1.393 . S
C1051 C1050 1.391 . S
H1052 C1060 0.950 . S
H1053 C1065 0.950 . S
H1054 C1062 0.950 . S
H1055 C1064 0.950 . S
H1056 C1066 0.950 . S
H1057 C1068 0.950 . S
H1058 C1070 0.950 . S
H1059 C1071 0.950 . S
C1060 H1052 0.950 . S
C1060 C1061 1.386 . S
C1060 C1062 1.391 . S
C1061 C1060 1.386 . S
C1061 C1065 1.393 . S
C1062 H1054 0.950 . S
C1062 C1060 1.391 . S
C1062 C1063 1.400 . S
C1063 C1062 1.400 . S
C1063 C1064 1.398 . S
C1063 C1069 1.491 . S
C1064 H1055 0.950 . S
C1064 C1063 1.398 . S
C1064 C1065 1.391 . S
C1065 H1053 0.950 . S
C1065 C1061 1.393 . S
C1065 C1064 1.391 . S
C1066 H1056 0.950 . S
C1066 C1067 1.386 . S
C1066 C1068 1.391 . S
C1067 C1066 1.386 . S
C1067 C1071 1.393 . S
C1068 H1057 0.950 . S
C1068 C1066 1.391 . S
C1068 C1069 1.400 . S
C1069 C1063 1.491 . S
C1069 C1068 1.400 . S
C1069 C1070 1.398 . S
C1070 H1058 0.950 . S
C1070 C1069 1.398 . S
C1070 C1071 1.391 . S
C1071 H1059 0.950 . S
C1071 C1067 1.393 . S
C1071 C1070 1.391 . S
H1072 C1080 0.950 . S
H1073 C1085 0.950 . S
H1074 C1082 0.950 . S
H1075 C1084 0.950 . S
H1076 C1086 0.950 . S
H1077 C1088 0.950 . S
H1078 C1090 0.950 . S
H1079 C1091 0.950 . S
C1080 H1072 0.950 . S
C1080 C1081 1.386 . S
C1080 C1082 1.391 . S
C1081 C1080 1.386 . S
C1081 C1085 1.393 . S
C1082 H1074 0.950 . S
C1082 C1080 1.391 . S
C1082 C1083 1.400 . S
C1083 C1082 1.400 . S
C1083 C1084 1.398 . S
C1083 C1089 1.491 . S
C1084 H1075 0.950 . S
C1084 C1083 1.398 . S
C1084 C1085 1.391 . S
C1085 H1073 0.950 . S
C1085 C1081 1.393 . S
C1085 C1084 1.391 . S
C1086 H1076 0.950 . S
C1086 C1087 1.386 . S
C1086 C1088 1.391 . S
C1087 C1086 1.386 . S
C1087 C1091 1.393 . S
C1088 H1077 0.950 . S
C1088 C1086 1.391 . S
C1088 C1089 1.400 . S
C1089 C1083 1.491 . S
C1089 C1088 1.400 . S
C1089 C1090 1.398 . S
C1090 H1078 0.950 . S
C1090 C1089 1.398 . S
C1090 C1091 1.391 . S
C1091 H1079 0.950 . S
C1091 C1087 1.393 . S
C1091 C1090 1.391 . S
H1092 C1100 0.950 . S
H1093 C1105 0.950 . S
H1094 C1102 0.950 . S
H1095 C1104 0.950 . S
H1096 C1106 0.950 . S
H1097 C1108 0.950 . S
H1098 C1110 0.950 . S
H1099 C1111 0.950 . S
C1100 H1092 0.950 . S
C1100 C1101 1.386 . S
C1100 C1102 1.391 . S
C1101 C1100 1.386 . S
C1101 C1105 1.393 . S
C1102 H1094 0.950 . S
C1102 C1100 1.391 . S
C1102 C1103 1.400 . S
C1103 C1102 1.400 . S
C1103 C1104 1.398 . S
C1103 C1109 1.491 . S
C1104 H1095 0.950 . S
C1104 C1103 1.398 . S
C1104 C1105 1.391 . S
C1105 H1093 0.950 . S
C1105 C1101 1.393 . S
C1105 C1104 1.391 . S
C1106 H1096 0.950 . S
C1106 C1107 1.386 . S
C1106 C1108 1.391 . S
C1107 C1106 1.386 . S
C1107 C1111 1.393 . S
C1108 H1097 0.950 . S
C1108 C1106 1.391 . S
C1108 C1109 1.400 . S
C1109 C1103 1.491 . S
C1109 C1108 1.400 . S
C1109 C1110 1.398 . S
C1110 H1098 0.950 . S
C1110 C1109 1.398 . S
C1110 C1111 1.391 . S
C1111 H1099 0.950 . S
C1111 C1107 1.393 . S
C1111 C1110 1.391 . S
H1112 C1120 0.950 . S
H1113 C1125 0.950 . S
H1114 C1122 0.950 . S
H1115 C1124 0.950 . S
H1116 C1126 0.950 . S
H1117 C1128 0.950 . S
H1118 C1130 0.950 . S
H1119 C1131 0.950 . S
C1120 H1112 0.950 . S
C1120 C1121 1.386 . S
C1120 C1122 1.391 . S
C1121 C1120 1.386 . S
C1121 C1125 1.393 . S
C1122 H1114 0.950 . S
C1122 C1120 1.391 . S
C1122 C1123 1.400 . S
C1123 C1122 1.400 . S
C1123 C1124 1.398 . S
C1123 C1129 1.491 . S
C1124 H1115 0.950 . S
C1124 C1123 1.398 . S
C1124 C1125 1.391 . S
C1125 H1113 0.950 . S
C1125 C1121 1.393 . S
C1125 C1124 1.391 . S
C1126 H1116 0.950 . S
C1126 C1127 1.386 . S
C1126 C1128 1.391 . S
C1127 C1126 1.386 . S
C1127 C1131 1.393 . S
C1128 H1117 0.950 . S
C1128 C1126 1.391 . S
C1128 C1129 1.400 . S
C1129 C1123 1.491 . S
C1129 C1128 1.400 . S
C1129 C1130 1.398 . S
C1130 H1118 0.950 . S
C1130 C1129 1.398 . S
C1130 C1131 1.391 . S
C1131 H1119 0.950 . S
C1131 C1127 1.393 . S
C1131 C1130 1.391 . S
H1132 C1140 0.950 . S
H1133 C1145 0.950 . S
H1134 C1142 0.950 . S
H1135 C1144 0.950 . S
H1136 C1146 0.950 . S
H1137 C1148 0.950 . S
H1138 C1150 0.950 . S
H1139 C1151 0.950 . S
C1140 H1132 0.950 . S
C1140 C1141 1.386 . S
C1140 C1142 1.391 . S
C1141 C1140 1.386 . S
C1141 C1145 1.393 . S
C1142 H1134 0.950 . S
C1142 C1140 1.391 . S
C1142 C1143 1.400 . S
C1143 C1142 1.400 . S
C1143 C1144 1.398 . S
C1143 C1149 1.491 . S
C1144 H1135 0.950 . S
C1144 C1143 1.398 . S
C1144 C1145 1.391 . S
C1145 H1133 0.950 . S
C1145 C1141 1.393 . S
C1145 C1144 1.391 . S
C1146 H1136 0.950 . S
C1146 C1147 1.386 . S
C1146 C1148 1.391 . S
C1147 C1146 1.386 . S
C1147 C1151 1.393 . S
C1148 H1137 0.950 . S
C1148 C1146 1.391 . S
C1148 C1149 1.400 . S
C1149 C1143 1.491 . S
C1149 C1148 1.400 . S
C1149 C1150 1.398 . S
C1150 H1138 0.950 . S
C1150 C1149 1.398 . S
C1150 C1151 1.391 . S
C1151 H1139 0.950 . S
C1151 C1147 1.393 . S
C1151 C1150 1.391 . S
H1152 C1160 0.950 . S
H1153 C1165 0.950 . S
H1154 C1162 0.950 . S
H1155 C1164 0.950 . S
H1156 C1166 0.950 . S
H1157 C1168 0.950 . S
H1158 C1170 0.950 . S
H1159 C1171 0.950 . S
C1160 H1152 0.950 . S
C1160 C1161 1.386 . S
C1160 C1162 1.391 . S
C1161 C1160 1.386 . S
C1161 C1165 1.393 . S
C1162 H1154 0.950 . S
C1162 C1160 1.391 . S
C1162 C1163 1.400 . S
C1163 C1162 1.400 . S
C1163 C1164 1.398 . S
C1163 C1169 1.491 . S
C1164 H1155 0.950 . S
C1164 C1163 1.398 . S
C1164 C1165 1.391 . S
C1165 H1153 0.950 . S
C1165 C1161 1.393 . S
C1165 C1164 1.391 . S
C1166 H1156 0.950 . S
C1166 C1167 1.386 . S
C1166 C1168 1.391 . S
C1167 C1166 1.386 . S
C1167 C1171 1.393 . S
C1168 H1157 0.950 . S
C1168 C1166 1.391 . S
C1168 C1169 1.400 . S
C1169 C1163 1.491 . S
C1169 C1168 1.400 . S
C1169 C1170 1.398 . S
C1170 H1158 0.950 . S
C1170 C1169 1.398 . S
C1170 C1171 1.391 . S
C1171 H1159 0.950 . S
C1171 C1167 1.393 . S
C1171 C1170 1.391 . S
H1172 C1180 0.950 . S
H1173 C1185 0.950 . S
H1174 C1182 0.950 . S
H1175 C1184 0.950 . S
H1176 C1186 0.950 . S
H1177 C1188 0.950 . S
H1178 C1190 0.950 . S
H1179 C1191 0.950 . S
C1180 H1172 0.950 . S
C1180 C1181 1.386 1_565 S
C1180 C1182 1.391 . S
C1181 C1180 1.386 1_545 S
C1181 C1185 1.393 . S
C1182 H1174 0.950 . S
C1182 C1180 1.391 . S
C1182 C1183 1.400 . S
C1183 C1182 1.400 . S
C1183 C1184 1.398 1_565 S
C1183 C1189 1.491 . S
C1184 H1175 0.950 . S
C1184 C1183 1.398 1_545 S
C1184 C1185 1.391 . S
C1185 H1173 0.950 . S
C1185 C1181 1.393 . S
C1185 C1184 1.391 . S
C1186 H1176 0.950 . S
C1186 C1187 1.386 1_545 S
C1186 C1188 1.391 . S
C1187 C1186 1.386 1_565 S
C1187 C1191 1.393 . S
C1188 H1177 0.950 . S
C1188 C1186 1.391 . S
C1188 C1189 1.400 1_545 S
C1189 C1183 1.491 . S
C1189 C1188 1.400 1_565 S
C1189 C1190 1.398 . S
C1190 H1178 0.950 . S
C1190 C1189 1.398 . S
C1190 C1191 1.391 . S
C1191 H1179 0.950 . S
C1191 C1187 1.393 . S
C1191 C1190 1.391 . S
H1192 C1200 0.950 . S
H1193 C1205 0.950 . S
H1194 C1202 0.950 . S
H1195 C1204 0.950 . S
H1196 C1206 0.950 . S
H1197 C1208 0.950 . S
H1198 C1210 0.950 . S
H1199 C1211 0.950 . S
C1200 H1192 0.950 . S
C1200 C1201 1.386 . S
C1200 C1202 1.391 . S
C1201 C1200 1.386 . S
C1201 C1205 1.393 . S
C1202 H1194 0.950 . S
C1202 C1200 1.391 . S
C1202 C1203 1.400 . S
C1203 C1202 1.400 . S
C1203 C1204 1.398 . S
C1203 C1209 1.491 . S
C1204 H1195 0.950 . S
C1204 C1203 1.398 . S
C1204 C1205 1.391 . S
C1205 H1193 0.950 . S
C1205 C1201 1.393 . S
C1205 C1204 1.391 . S
C1206 H1196 0.950 . S
C1206 C1207 1.386 . S
C1206 C1208 1.391 . S
C1207 C1206 1.386 . S
C1207 C1211 1.393 . S
C1208 H1197 0.950 . S
C1208 C1206 1.391 . S
C1208 C1209 1.400 . S
C1209 C1203 1.491 . S
C1209 C1208 1.400 . S
C1209 C1210 1.398 . S
C1210 H1198 0.950 . S
C1210 C1209 1.398 . S
C1210 C1211 1.391 . S
C1211 H1199 0.950 . S
C1211 C1207 1.393 . S
C1211 C1210 1.391 . S
H1212 C1220 0.950 1_565 S
H1213 C1225 0.950 . S
H1214 C1222 0.950 1_565 S
H1215 C1224 0.950 . S
H1216 C1226 0.950 . S
H1217 C1228 0.950 . S
H1218 C1230 0.950 1_565 S
H1219 C1231 0.950 1_565 S
C1220 H1212 0.950 1_545 S
C1220 C1221 1.386 . S
C1220 C1222 1.391 . S
C1221 C1220 1.386 . S
C1221 C1225 1.393 . S
C1222 H1214 0.950 1_545 S
C1222 C1220 1.391 . S
C1222 C1223 1.400 . S
C1223 C1222 1.400 . S
C1223 C1224 1.398 . S
C1223 C1229 1.491 . S
C1224 H1215 0.950 . S
C1224 C1223 1.398 . S
C1224 C1225 1.391 . S
C1225 H1213 0.950 . S
C1225 C1221 1.393 . S
C1225 C1224 1.391 . S
C1226 H1216 0.950 . S
C1226 C1227 1.386 . S
C1226 C1228 1.391 . S
C1227 C1226 1.386 . S
C1227 C1231 1.393 . S
C1228 H1217 0.950 . S
C1228 C1226 1.391 . S
C1228 C1229 1.400 . S
C1229 C1223 1.491 . S
C1229 C1228 1.400 . S
C1229 C1230 1.398 . S
C1230 H1218 0.950 1_545 S
C1230 C1229 1.398 . S
C1230 C1231 1.391 . S
C1231 H1219 0.950 1_545 S
C1231 C1227 1.393 . S
C1231 C1230 1.391 . S
H1232 C1240 0.950 . S
H1233 C1245 0.950 . S
H1234 C1242 0.950 . S
H1235 C1244 0.950 . S
H1236 C1246 0.950 . S
H1237 C1248 0.950 . S
H1238 C1250 0.950 . S
H1239 C1251 0.950 . S
C1240 H1232 0.950 . S
C1240 C1241 1.386 . S
C1240 C1242 1.391 . S
C1241 C1240 1.386 . S
C1241 C1245 1.393 . S
C1242 H1234 0.950 . S
C1242 C1240 1.391 . S
C1242 C1243 1.400 . S
C1243 C1242 1.400 . S
C1243 C1244 1.398 . S
C1243 C1249 1.491 . S
C1244 H1235 0.950 . S
C1244 C1243 1.398 . S
C1244 C1245 1.391 . S
C1245 H1233 0.950 . S
C1245 C1241 1.393 . S
C1245 C1244 1.391 . S
C1246 H1236 0.950 . S
C1246 C1247 1.386 . S
C1246 C1248 1.391 . S
C1247 C1246 1.386 . S
C1247 C1251 1.393 . S
C1248 H1237 0.950 . S
C1248 C1246 1.391 . S
C1248 C1249 1.400 . S
C1249 C1243 1.491 . S
C1249 C1248 1.400 . S
C1249 C1250 1.398 . S
C1250 H1238 0.950 . S
C1250 C1249 1.398 . S
C1250 C1251 1.391 . S
C1251 H1239 0.950 . S
C1251 C1247 1.393 . S
C1251 C1250 1.391 . S
H1252 C1260 0.950 1_554 S
H1253 C1265 0.950 . S
H1254 C1262 0.950 1_554 S
H1255 C1264 0.950 . S
H1256 C1266 0.950 . S
H1257 C1268 0.950 . S
H1258 C1270 0.950 1_554 S
H1259 C1271 0.950 . S
C1260 H1252 0.950 1_556 S
C1260 C1261 1.386 . S
C1260 C1262 1.391 . S
C1261 C1260 1.386 . S
C1261 C1265 1.393 . S
C1262 H1254 0.950 1_556 S
C1262 C1260 1.391 . S
C1262 C1263 1.400 . S
C1263 C1262 1.400 . S
C1263 C1264 1.398 . S
C1263 C1269 1.491 . S
C1264 H1255 0.950 . S
C1264 C1263 1.398 . S
C1264 C1265 1.391 . S
C1265 H1253 0.950 . S
C1265 C1261 1.393 . S
C1265 C1264 1.391 . S
C1266 H1256 0.950 . S
C1266 C1267 1.386 . S
C1266 C1268 1.391 . S
C1267 C1266 1.386 . S
C1267 C1271 1.393 . S
C1268 H1257 0.950 . S
C1268 C1266 1.391 . S
C1268 C1269 1.400 . S
C1269 C1263 1.491 . S
C1269 C1268 1.400 . S
C1269 C1270 1.398 . S
C1270 H1258 0.950 1_556 S
C1270 C1269 1.398 . S
C1270 C1271 1.391 . S
C1271 H1259 0.950 . S
C1271 C1267 1.393 . S
C1271 C1270 1.391 . S
H1272 C1280 0.950 . S
H1273 C1285 0.950 . S
H1274 C1282 0.950 . S
H1275 C1284 0.950 . S
H1276 C1286 0.950 . S
H1277 C1288 0.950 . S
H1278 C1290 0.950 . S
H1279 C1291 0.950 . S
C1280 H1272 0.950 . S
C1280 C1281 1.386 1_556 S
C1280 C1282 1.391 . S
C1281 C1280 1.386 1_554 S
C1281 C1285 1.393 . S
C1282 H1274 0.950 . S
C1282 C1280 1.391 . S
C1282 C1283 1.400 . S
C1283 C1282 1.400 . S
C1283 C1284 1.398 1_556 S
C1283 C1289 1.491 . S
C1284 H1275 0.950 . S
C1284 C1283 1.398 1_554 S
C1284 C1285 1.391 . S
C1285 H1273 0.950 . S
C1285 C1281 1.393 . S
C1285 C1284 1.391 . S
C1286 H1276 0.950 . S
C1286 C1287 1.386 1_554 S
C1286 C1288 1.391 . S
C1287 C1286 1.386 1_556 S
C1287 C1291 1.393 . S
C1288 H1277 0.950 . S
C1288 C1286 1.391 . S
C1288 C1289 1.400 1_554 S
C1289 C1283 1.491 . S
C1289 C1288 1.400 1_556 S
C1289 C1290 1.398 . S
C1290 H1278 0.950 . S
C1290 C1289 1.398 . S
C1290 C1291 1.391 . S
C1291 H1279 0.950 . S
C1291 C1287 1.393 . S
C1291 C1290 1.391 . S
H1292 C1300 0.950 . S
H1293 C1305 0.950 . S
H1294 C1302 0.950 . S
H1295 C1304 0.950 . S
H1296 C1306 0.950 1_556 S
H1297 C1308 0.950 1_556 S
H1298 C1310 0.950 . S
H1299 C1311 0.950 . S
C1300 H1292 0.950 . S
C1300 C1301 1.386 . S
C1300 C1302 1.391 . S
C1301 C1300 1.386 . S
C1301 C1305 1.393 1_554 S
C1302 H1294 0.950 . S
C1302 C1300 1.391 . S
C1302 C1303 1.400 . S
C1303 C1302 1.400 . S
C1303 C1304 1.398 1_554 S
C1303 C1309 1.491 . S
C1304 H1295 0.950 . S
C1304 C1303 1.398 1_556 S
C1304 C1305 1.391 . S
C1305 H1293 0.950 . S
C1305 C1301 1.393 1_556 S
C1305 C1304 1.391 . S
C1306 H1296 0.950 1_554 S
C1306 C1307 1.386 . S
C1306 C1308 1.391 . S
C1307 C1306 1.386 . S
C1307 C1311 1.393 . S
C1308 H1297 0.950 1_554 S
C1308 C1306 1.391 . S
C1308 C1309 1.400 . S
C1309 C1303 1.491 . S
C1309 C1308 1.400 . S
C1309 C1310 1.398 . S
C1310 H1298 0.950 . S
C1310 C1309 1.398 . S
C1310 C1311 1.391 . S
C1311 H1299 0.950 . S
C1311 C1307 1.393 . S
C1311 C1310 1.391 . S
C361 C13 1.570 . S
C367 C231 1.565 . S
C387 C257 1.597 . S
C381 C1 1.632 . S
C407 C189 1.625 . S
C401 C27 1.608 . S
C421 C15 1.386 . S
C427 C212 1.383 . S
C441 C28 1.466 . S
C447 C346 1.469 . S
C461 C55 1.370 . S
C467 C327 1.374 . S
C487 C280 1.621 . S
C481 C40 1.656 . S
C501 C43 1.679 . S
C507 C303 1.656 . S
C527 C208 1.634 . S
C521 C56 1.649 . S
C547 C258 1.396 . S
C541 C83 1.396 . S
C561 C96 1.581 . S
C567 C234 1.540 1_655 S
C581 C71 1.669 . S
C587 C300 1.658 . S
C607 C323 1.575 . S
C601 C99 1.572 . S
C627 C349 1.593 . S
C621 C111 1.626 . S
C641 C113 1.613 . S
C647 C304 1.623 . S
C667 C281 1.382 . S
C661 C125 1.384 . S
C681 C139 1.465 . S
C687 C254 1.452 . S
C701 C153 1.362 . S
C707 C235 1.381 . S
C727 C211 1.608 . S
C721 C127 1.658 . S
C741 C141 1.685 . S
C747 C188 1.667 . S
C767 C277 1.634 . S
C761 C84 1.649 . S
C787 C350 1.400 . S
C781 C154 1.387 . S
C801 C68 1.579 . S
C807 C326 1.558 . S
C821 C166 1.668 . S
C827 C185 1.658 . S
C847 C187 1.253 . S
C841 C0 1.330 . S
C861 C12 1.475 . S
C867 C210 1.404 . S
C887 C232 1.220 . S
C881 C14 1.223 . S
C907 C253 1.318 . S
C901 C26 1.327 . S
C921 C41 1.410 . S
C927 C184 1.396 . S
C941 C42 1.398 . S
C947 C207 1.392 . S
C967 C233 1.375 . S
C961 C29 1.455 . S
C981 C54 1.342 . S
C987 C255 1.347 . S
C1001 C69 1.274 . S
C1007 C186 1.264 . S
C1027 C230 1.330 . S
C1021 C70 1.344 . S
C1041 C85 1.413 . S
C1047 C256 1.333 . S
C1061 C82 1.179 . S
C1067 C278 1.193 . S
C1087 C302 1.263 . S
C1081 C110 1.322 . S
C1101 C98 1.476 . S
C1107 C279 1.402 . S
C1121 C124 1.218 . S
C1127 C324 1.212 . S
C1141 C112 1.319 . S
C1147 C345 1.318 . S
C1161 C126 1.397 . S
C1167 C299 1.397 . S
C1187 C276 1.385 . S
C1181 C140 1.402 . S
C1201 C138 1.455 . S
C1207 C325 1.369 . S
C1227 C347 1.340 . S
C1221 C152 1.328 . S
C1247 C301 1.276 . S
C1241 C97 1.258 . S
C1267 C322 1.340 . S
C1261 C167 1.337 . S
C1287 C348 1.356 . S
C1281 C57 1.416 . S
C1301 C155 1.192 . S
C1307 C209 1.190 . S
