# Generated by pormake.
# Topology ssa, (4,4)-cn, num edge types: 1
# Building blocks:
#     Node 0, Type 0, BuildingBlock: ESEHIV_clean_sbu_0, # of connection points: 4
#     Node 1, Type 0, BuildingBlock: ESEHIV_clean_sbu_0, # of connection points: 4
#     Node 2, Type 0, BuildingBlock: ESEHIV_clean_sbu_0, # of connection points: 4
#     Node 3, Type 0, BuildingBlock: ESEHIV_clean_sbu_0, # of connection points: 4
#     Node 4, Type 0, BuildingBlock: ESEHIV_clean_sbu_0, # of connection points: 4
#     Node 5, Type 0, BuildingBlock: ESEHIV_clean_sbu_0, # of connection points: 4
#     Node 6, Type 1, BuildingBlock: MUDLON_clean_sbu_0, # of connection points: 4
#     Node 7, Type 1, BuildingBlock: MUDLON_clean_sbu_0, # of connection points: 4
#     Node 8, Type 1, BuildingBlock: MUDLON_clean_sbu_0, # of connection points: 4
#     Node 9, Type 1, BuildingBlock: MUDLON_clean_sbu_0, # of connection points: 4
#     Node 10, Type 1, BuildingBlock: MUDLON_clean_sbu_0, # of connection points: 4
#     Node 11, Type 1, BuildingBlock: MUDLON_clean_sbu_0, # of connection points: 4
#     Edge 12, Type (0, 1), BuildingBlock: ZUJKAS_clean_linker_0, # of connection points: 2
#     Edge 13, Type (0, 1), BuildingBlock: ZUJKAS_clean_linker_0, # of connection points: 2
#     Edge 14, Type (0, 1), BuildingBlock: ZUJKAS_clean_linker_0, # of connection points: 2
#     Edge 15, Type (0, 1), BuildingBlock: ZUJKAS_clean_linker_0, # of connection points: 2
#     Edge 16, Type (0, 1), BuildingBlock: ZUJKAS_clean_linker_0, # of connection points: 2
#     Edge 17, Type (0, 1), BuildingBlock: ZUJKAS_clean_linker_0, # of connection points: 2
#     Edge 18, Type (0, 1), BuildingBlock: ZUJKAS_clean_linker_0, # of connection points: 2
#     Edge 19, Type (0, 1), BuildingBlock: ZUJKAS_clean_linker_0, # of connection points: 2
#     Edge 20, Type (0, 1), BuildingBlock: ZUJKAS_clean_linker_0, # of connection points: 2
#     Edge 21, Type (0, 1), BuildingBlock: ZUJKAS_clean_linker_0, # of connection points: 2
#     Edge 22, Type (0, 1), BuildingBlock: ZUJKAS_clean_linker_0, # of connection points: 2
#     Edge 23, Type (0, 1), BuildingBlock: ZUJKAS_clean_linker_0, # of connection points: 2
#     Edge 24, Type (0, 1), BuildingBlock: ZUJKAS_clean_linker_0, # of connection points: 2
#     Edge 25, Type (0, 1), BuildingBlock: ZUJKAS_clean_linker_0, # of connection points: 2
#     Edge 26, Type (0, 1), BuildingBlock: ZUJKAS_clean_linker_0, # of connection points: 2
#     Edge 27, Type (0, 1), BuildingBlock: ZUJKAS_clean_linker_0, # of connection points: 2
#     Edge 28, Type (0, 1), BuildingBlock: ZUJKAS_clean_linker_0, # of connection points: 2
#     Edge 29, Type (0, 1), BuildingBlock: ZUJKAS_clean_linker_0, # of connection points: 2
#     Edge 30, Type (0, 1), BuildingBlock: ZUJKAS_clean_linker_0, # of connection points: 2
#     Edge 31, Type (0, 1), BuildingBlock: ZUJKAS_clean_linker_0, # of connection points: 2
#     Edge 32, Type (0, 1), BuildingBlock: ZUJKAS_clean_linker_0, # of connection points: 2
#     Edge 33, Type (0, 1), BuildingBlock: ZUJKAS_clean_linker_0, # of connection points: 2
#     Edge 34, Type (0, 1), BuildingBlock: ZUJKAS_clean_linker_0, # of connection points: 2
#     Edge 35, Type (0, 1), BuildingBlock: ZUJKAS_clean_linker_0, # of connection points: 2
# Relax obj value: 0.020
# Max RMSD: 0.108
# Mean RMSD: 0.059
data_MOF--net-ssa--node1-ESEHIV_clean_sbu_0--node2-MUDLON_clean_sbu_0--edge1-ZUJKAS_clean_linker_0
_symmetry_space_group_name_H-M    P1
_symmetry_Int_Tables_number       1
_symmetry_cell_setting            triclinic
loop_
_symmetry_equiv_pos_as_xyz
'x, y, z'
_cell_length_a     55.762711
_cell_length_b     59.736075
_cell_length_c     53.639854
_cell_angle_alpha  88.690054
_cell_angle_beta   90.57112
_cell_angle_gamma 122.27655
loop_
_atom_site_label
_atom_site_type_symbol
_atom_site_fract_x
_atom_site_fract_y
_atom_site_fract_z
_atom_type_partial_charge
Cu0 Cu 0.022 0.51967 1.00377 0.0
N1 N 0.02857 0.50447 0.9766 0.0
N2 N 0.01863 0.47355 0.94846 0.0
C3 C 1.00931 0.48014 0.96844 0.0
C4 C 0.04492 0.49475 0.9438 0.0
C5 C 0.05103 0.51379 0.96124 0.0
O6 O 0.98436 0.51349 0.9978 0.0
C7 C 0.05086 0.50676 0.03579 0.0
O8 O 0.06821 0.51751 0.01668 0.0
H9 H 0.98854 0.46775 0.97683 0.0
H10 H 0.07051 0.53292 0.96266 0.0
N11 N 0.04864 0.55598 1.007 0.0
N12 N 0.07732 0.59356 0.02721 0.0
C13 C 0.05557 0.56809 0.02913 0.0
C14 C 0.06652 0.57448 0.99032 0.0
C15 C 0.0843 0.5977 1.00276 0.0
C16 C 0.98279 0.52547 0.97846 0.0
O17 O 1.00628 0.54197 0.96624 0.0
H18 H 0.04569 0.55792 0.04654 0.0
H19 H 0.0671 0.57121 0.97066 0.0
O20 O 0.02656 0.50395 0.03429 0.0
H21 H 0.05888 0.49633 0.92906 0.0
H22 H 0.10127 0.61604 0.9945 0.0
Cu23 Cu 0.525 0.02775 0.50888 0.0
N24 N 0.53996 0.02831 0.47773 0.0
N25 N 0.54544 0.01144 0.44303 0.0
C26 C 0.53377 0.00619 0.466 0.0
C27 C 0.55958 0.03806 0.44021 0.0
C28 C 0.55616 0.04844 0.46168 0.0
O29 O 0.48649 0.99682 0.50763 0.0
C30 C 0.57488 0.04292 0.53361 0.0
O31 O 0.58474 0.05795 0.51339 0.0
H32 H 0.5201 0.98652 0.47396 0.0
H33 H 0.56463 0.0691 0.46521 0.0
N34 N 0.52534 0.05866 0.51483 0.0
N35 N 0.5288 0.09171 0.53677 0.0
C36 C 0.52721 0.06833 0.53768 0.0
C37 C 0.52579 0.07651 0.49876 0.0
C38 C 0.52779 0.09687 0.51225 0.0
C39 C 0.46886 0.99844 0.49361 0.0
O40 O 0.47594 0.02176 0.48441 0.0
H41 H 0.52739 0.05827 0.55464 0.0
H42 H 0.52502 0.075 0.47868 0.0
O43 O 0.54829 0.02604 0.53525 0.0
H44 H 0.57157 0.04926 0.42385 0.0
H45 H 0.52899 0.11433 0.50451 0.0
Cu46 Cu 0.5404 0.51635 0.03778 0.0
N47 N 0.5497 0.49069 0.03588 0.0
N48 N 0.56107 0.46475 0.01663 0.0
C49 C 0.55057 0.48044 0.0141 0.0
C50 C 0.56675 0.46488 0.0412 0.0
C51 C 0.55987 0.48108 0.05302 0.0
O52 O 0.55314 0.53473 1.00559 0.0
C53 C 0.48781 0.48175 0.06025 0.0
O54 O 0.50213 0.4722 0.07044 0.0
H55 H 0.54394 0.48485 0.99663 0.0
H56 H 0.56282 0.48604 0.07254 0.0
N57 N 0.55886 0.53952 0.06401 0.0
N58 N 0.56664 0.56811 0.09395 0.0
C59 C 0.54959 0.55354 0.07507 0.0
C60 C 0.58255 0.54524 0.07635 0.0
C61 C 0.58748 0.56298 0.09476 0.0
C62 C 0.57987 0.54871 1.00202 0.0
O63 O 0.59667 0.55396 0.02127 0.0
H64 H 0.53073 0.55312 0.0692 0.0
H65 H 0.59528 0.53705 0.07232 0.0
O66 O 0.49997 0.50027 0.04385 0.0
H67 H 0.57606 0.45476 0.04989 0.0
H68 H 0.60478 0.57107 0.10799 0.0
Cu69 Cu 0.01291 0.50546 0.50645 0.0
N70 N 1.00467 0.48627 0.47704 0.0
N71 N 0.01167 0.46657 0.44534 0.0
C72 C 0.0186 0.47505 0.46898 0.0
C73 C 0.99205 0.4722 0.43845 0.0
C74 C 0.98784 0.48439 0.458 0.0
O75 O 0.05137 0.53592 0.50203 0.0
C76 C 0.98353 0.46006 0.53549 0.0
O77 O 0.96758 0.45286 0.51544 0.0
H78 H 0.03411 0.47377 0.48006 0.0
H79 H 0.97452 0.49248 0.45786 0.0
N80 N 0.98889 0.51795 0.51106 0.0
N81 N 0.96178 0.52888 0.5314 0.0
C82 C 0.976 0.51633 0.53273 0.0
C83 C 0.98273 0.53207 0.49537 0.0
C84 C 0.96587 0.53871 0.50781 0.0
C85 C 0.07284 0.53389 0.49981 0.0
O86 O 0.07038 0.51132 0.50584 0.0
H87 H 0.97736 0.50633 0.54924 0.0
H88 H 0.99059 0.53776 0.47646 0.0
O89 O 1.00664 0.48266 0.5354 0.0
H90 H 0.9826 0.46915 0.42014 0.0
H91 H 0.95811 0.55064 0.50029 0.0
Cu92 Cu 0.54269 0.02861 0.04387 0.0
N93 N 0.52765 0.05008 0.04205 0.0
N94 N 0.51194 0.07442 0.02493 0.0
C95 C 0.5206 0.05761 0.02082 0.0
C96 C 0.51342 0.07747 0.04988 0.0
C97 C 0.52327 0.06251 0.06039 0.0
O98 O 0.56559 0.03648 0.01409 0.0
C99 C 0.48874 0.98368 0.05683 0.0
O100 O 0.48097 1.00089 0.05742 0.0
H101 H 0.522 0.05102 1.00264 0.0
H102 H 0.52744 0.06117 0.07992 0.0
N103 N 0.56693 0.0374 0.07102 0.0
N104 N 0.58906 0.03059 0.10241 0.0
C105 C 0.56608 0.01968 0.08749 0.0
C106 C 0.59121 0.06045 0.0757 0.0
C107 C 0.605 0.05628 0.09508 0.0
C108 C 0.5558 0.02978 0.99216 0.0
O109 O 0.52839 0.01336 0.98907 0.0
H110 H 0.54996 0.99875 0.08729 0.0
H111 H 0.59908 0.07856 0.06486 0.0
O112 O 0.51349 0.99122 0.04902 0.0
H113 H 0.50867 0.09024 0.05976 0.0
H114 H 0.62559 0.07074 0.10253 0.0
Cu115 Cu 0.50354 0.51252 0.53446 0.0
N116 N 0.51857 0.54894 0.53335 0.0
N117 N 0.53568 0.58879 0.51522 0.0
C118 C 0.52937 0.56378 0.51244 0.0
C119 C 0.5288 0.58967 0.53913 0.0
C120 C 0.51818 0.56502 0.55025 0.0
O121 O 0.47984 0.49901 0.50484 0.0
C122 C 0.55227 0.51861 0.55381 0.0
O123 O 0.55073 0.53677 0.56575 0.0
H124 H 0.53174 0.55591 0.49534 0.0
H125 H 0.50988 0.55905 0.569 0.0
N126 N 0.48206 0.49557 0.56305 0.0
N127 N 0.46694 0.467 0.59546 0.0
C128 C 0.48203 0.47515 0.57408 0.0
C129 C 0.46611 0.50055 0.57781 0.0
C130 C 0.45662 0.4828 0.59784 0.0
C131 C 0.46063 0.50444 0.50327 0.0
O132 O 0.45712 0.51603 0.52217 0.0
H133 H 0.49317 0.46656 0.56649 0.0
H134 H 0.46214 0.51622 0.57457 0.0
O135 O 0.53429 0.50607 0.53664 0.0
H136 H 0.53012 0.60648 0.54775 0.0
H137 H 0.44389 0.48215 0.61327 0.0
Mg138 Mg 0.24136 0.46234 0.25909 0.0
C139 C 0.21279 0.47239 0.21814 0.0
O140 O 0.21227 0.45099 0.21191 0.0
C141 C 0.29275 0.47416 0.28692 0.0
O142 O 0.28706 0.45407 0.27306 0.0
C143 C 0.18026 0.42648 0.27771 0.0
O144 O 0.17434 0.4274 0.25411 0.0
O145 O 0.20599 0.43614 0.28402 0.0
O146 O 0.2256 0.48392 0.23812 0.0
O147 O 0.25645 0.44661 0.23085 0.0
C148 C 0.27377 0.46474 0.21569 0.0
O149 O 0.27916 0.48883 0.21833 0.0
O150 O 0.27728 0.48389 0.28463 0.0
Mg151 Mg 0.79326 0.23069 0.765 0.0
C152 C 0.76604 0.20232 0.71943 0.0
O153 O 0.76315 0.22275 0.71921 0.0
C154 C 0.82821 0.24377 0.81175 0.0
O155 O 0.80281 0.23291 0.82161 0.0
C156 C 0.74352 0.18978 0.7926 0.0
O157 O 0.75318 0.17726 0.78058 0.0
O158 O 0.75617 0.21483 0.78957 0.0
O159 O 0.78028 0.20017 0.73699 0.0
O160 O 0.80877 0.26724 0.74311 0.0
C161 C 0.82975 0.2712 0.73009 0.0
O162 O 0.83716 0.2537 0.73191 0.0
O163 O 0.83034 0.24238 0.78831 0.0
Mg164 Mg 0.57684 0.79933 0.28128 0.0
C165 C 0.61418 0.84124 0.24279 0.0
O166 O 0.60579 0.82023 0.2293 0.0
C167 C 0.59895 0.77069 0.31217 0.0
O168 O 0.60217 0.76368 0.29003 0.0
C169 C 0.5413 0.82305 0.28339 0.0
O170 O 0.55247 0.83125 0.26105 0.0
O171 O 0.54491 0.80629 0.29505 0.0
O172 O 0.60808 0.83812 0.26589 0.0
O173 O 0.56321 0.76971 0.25253 0.0
C174 C 0.54752 0.74499 0.25726 0.0
O175 O 0.53696 0.73696 0.27981 0.0
O176 O 0.59072 0.78678 0.31374 0.0
Mg177 Mg 0.7505 0.50599 0.7679 0.0
C178 C 0.7179 0.47453 0.72245 0.0
O179 O 0.74332 0.4806 0.71574 0.0
C180 C 0.7592 0.48591 0.81776 0.0
O181 O 0.74046 0.49147 0.82473 0.0
C182 C 0.7122 0.52272 0.7885 0.0
O183 O 0.69549 0.50606 0.77151 0.0
O184 O 0.73762 0.52825 0.7901 0.0
O185 O 0.71428 0.47983 0.74443 0.0
O186 O 0.78466 0.52924 0.74091 0.0
C187 C 0.807 0.52842 0.74182 0.0
O188 O 0.81076 0.51664 0.76107 0.0
O189 O 0.76545 0.48787 0.79471 0.0
Mg190 Mg 0.27903 0.76108 0.27951 0.0
C191 C 0.24811 0.73853 0.23312 0.0
O192 O 0.27148 0.73833 0.23137 0.0
C193 C 0.30585 0.79425 0.32197 0.0
O194 O 0.3166 0.77946 0.31968 0.0
C195 C 0.24789 0.70492 0.3015 0.0
O196 O 0.232 0.70038 0.2817 0.0
O197 O 0.27041 0.72766 0.30383 0.0
O198 O 0.24395 0.74747 0.25289 0.0
O199 O 0.31673 0.78033 0.25562 0.0
C200 C 0.31868 0.80028 0.24442 0.0
O201 O 0.30003 0.80647 0.24994 0.0
O202 O 0.28711 0.7914 0.30631 0.0
Mg203 Mg 0.50922 0.25996 0.78237 0.0
C204 C 0.51545 0.22235 0.75208 0.0
O205 O 0.49322 0.20656 0.76606 0.0
C206 C 0.52531 0.3074 0.81061 0.0
O207 O 0.49906 0.29822 0.80362 0.0
C208 C 0.5088 0.23025 0.82557 0.0
O209 O 0.53552 0.24738 0.81986 0.0
O210 O 0.48978 0.22976 0.81185 0.0
O211 O 0.52854 0.24719 0.75548 0.0
O212 O 0.48186 0.26885 0.7608 0.0
C213 C 0.49415 0.28271 0.74129 0.0
O214 O 0.51957 0.28786 0.73589 0.0
O215 O 0.53749 0.29584 0.80306 0.0
H216 H 0.09646 0.50228 0.04032 0.0
H217 H 0.11885 0.49938 0.07833 0.0
H218 H 0.05318 0.4969 0.12235 0.0
H219 H 0.0303 0.49985 0.0839 0.0
H220 H 0.138 0.53769 0.11871 0.0
H221 H 0.06016 0.43314 0.14835 0.0
H222 H 0.06178 0.44435 0.1165 0.0
H223 H 0.04764 0.45464 0.14035 0.0
C224 C 0.08649 0.50086 0.05802 0.0
C225 C 0.06159 0.50134 0.05908 0.0
C226 C 0.09943 0.4993 0.07975 0.0
C227 C 0.08781 0.4981 0.10313 0.0
C228 C 0.06242 0.49773 0.10443 0.0
H229 H 0.19818 0.50854 0.22959 0.0
H230 H 0.16611 0.5176 0.20582 0.0
C231 C 0.04932 0.49928 0.0825 0.0
C232 C 0.10314 0.49776 0.12575 0.0
H233 H 0.10413 0.45527 0.16874 0.0
C234 C 0.13038 0.51992 0.13014 0.0
C235 C 0.09311 0.47452 0.14048 0.0
C236 C 0.06412 0.45018 0.13631 0.0
C237 C 0.14854 0.51889 0.14783 0.0
C238 C 0.13912 0.49511 0.16152 0.0
C239 C 0.11124 0.47351 0.15824 0.0
C240 C 0.15906 0.49077 0.17615 0.0
C241 C 0.17836 0.54252 0.15051 0.0
C242 C 0.16587 0.47298 0.16724 0.0
C243 C 0.18408 0.4679 0.18058 0.0
C244 C 0.1959 0.48041 0.2033 0.0
C245 C 0.18957 0.49873 0.21207 0.0
C246 C 0.17121 0.50385 0.19857 0.0
H247 H 0.18307 0.5588 0.13705 0.0
H248 H 0.18137 0.55019 0.16968 0.0
H249 H 0.1939 0.5366 0.14763 0.0
H250 H 0.15693 0.46285 0.14989 0.0
H251 H 0.18852 0.45377 0.17317 0.0
H252 H 0.56069 0.02661 0.58266 0.0
H253 H 0.59229 0.04431 0.61888 0.0
H254 H 0.66346 0.09215 0.56979 0.0
H255 H 0.63241 0.07422 0.53378 0.0
H256 H 0.67816 0.07293 0.61049 0.0
H257 H 0.61905 0.11941 0.63922 0.0
H258 H 0.59861 0.08394 0.6375 0.0
H259 H 0.6133 0.10376 0.60954 0.0
C260 C 0.58318 0.04041 0.5796 0.0
C261 C 0.59396 0.04928 0.55534 0.0
C262 C 0.60118 0.05067 0.60032 0.0
C263 C 0.63015 0.07002 0.59706 0.0
C264 C 0.64119 0.07737 0.57281 0.0
H265 H 0.74597 0.20701 0.67475 0.0
H266 H 0.71339 0.17175 0.64714 0.0
C267 C 0.62332 0.06714 0.55219 0.0
C268 C 0.64873 0.08472 0.61846 0.0
H269 H 0.66008 0.13059 0.66155 0.0
C270 C 0.67405 0.08525 0.62196 0.0
C271 C 0.64346 0.10102 0.6332 0.0
C272 C 0.61728 0.10228 0.62966 0.0
C273 C 0.6947 0.10236 0.63911 0.0
C274 C 0.68969 0.11912 0.65334 0.0
C275 C 0.66385 0.1177 0.65062 0.0
C276 C 0.71188 0.14025 0.66922 0.0
C277 C 0.72231 0.10344 0.64091 0.0
C278 C 0.72255 0.13439 0.69056 0.0
C279 C 0.74158 0.15473 0.70638 0.0
C280 C 0.74988 0.18112 0.70119 0.0
C281 C 0.73991 0.18689 0.67934 0.0
C282 C 0.72119 0.16673 0.66356 0.0
H283 H 0.7248 0.09259 0.62563 0.0
H284 H 0.74057 0.12429 0.64037 0.0
H285 H 0.72303 0.09433 0.65894 0.0
H286 H 0.71538 0.11407 0.69549 0.0
H287 H 0.74868 0.14966 0.72322 0.0
H288 H 0.51735 0.56411 0.10624 0.0
H289 H 0.51153 0.59341 0.13309 0.0
H290 H 0.6019 0.64033 0.14503 0.0
H291 H 0.60789 0.61109 0.1182 0.0
H292 H 0.57162 0.62891 0.18848 0.0
H293 H 0.53035 0.66799 0.11652 0.0
H294 H 0.51058 0.63251 0.11931 0.0
H295 H 0.54679 0.64995 0.10876 0.0
C296 C 0.53604 0.58083 0.11432 0.0
C297 C 0.56313 0.58532 0.10991 0.0
C298 C 0.53267 0.5976 0.12966 0.0
C299 C 0.55632 0.61934 0.14074 0.0
C300 C 0.58334 0.62372 0.1366 0.0
H301 H 0.57136 0.75535 0.2107 0.0
H302 H 0.57173 0.72398 0.18248 0.0
C303 C 0.58673 0.60692 0.12134 0.0
C304 C 0.55292 0.63719 0.15716 0.0
H305 H 0.52931 0.67949 0.15839 0.0
C306 C 0.56237 0.63997 0.18191 0.0
C307 C 0.54112 0.65183 0.14847 0.0
C308 C 0.53186 0.65068 0.12176 0.0
C309 C 0.56024 0.65687 0.19825 0.0
C310 C 0.5478 0.67102 0.18975 0.0
C311 C 0.53851 0.66838 0.16495 0.0
C312 C 0.54544 0.68953 0.20606 0.0
C313 C 0.57201 0.65995 0.22428 0.0
C314 C 0.52977 0.68049 0.22835 0.0
C315 C 0.52956 0.69839 0.2446 0.0
C316 C 0.54486 0.72568 0.23877 0.0
C317 C 0.55941 0.7345 0.21584 0.0
C318 C 0.55966 0.71659 0.19966 0.0
H319 H 0.58692 0.65301 0.22581 0.0
H320 H 0.58326 0.68093 0.23 0.0
H321 H 0.5543 0.64795 0.23755 0.0
H322 H 0.51811 0.65962 0.23341 0.0
H323 H 0.51798 0.69089 0.262 0.0
H324 H 0.96974 0.52666 0.58129 0.0
H325 H 0.94365 0.53117 0.61495 0.0
H326 H 0.89416 0.54416 0.56111 0.0
H327 H 0.91959 0.53881 0.52716 0.0
H328 H 0.93848 0.57399 0.62616 0.0
H329 H 0.83347 0.48409 0.60545 0.0
H330 H 0.86604 0.4901 0.5921 0.0
H331 H 0.85 0.50732 0.57989 0.0
C332 C 0.95308 0.53011 0.57647 0.0
C333 C 0.94665 0.53207 0.55137 0.0
C334 C 0.93833 0.53293 0.59582 0.0
C335 C 0.9167 0.53767 0.59059 0.0
C336 C 0.91046 0.54008 0.56561 0.0
H337 H 0.79894 0.54217 0.69467 0.0
H338 H 0.82678 0.54834 0.65717 0.0
C339 C 0.92523 0.53726 0.5462 0.0
C340 C 0.90084 0.54006 0.61141 0.0
H341 H 0.83533 0.51019 0.63857 0.0
C342 C 0.9159 0.56012 0.62881 0.0
C343 C 0.87135 0.52202 0.61481 0.0
C344 C 0.85421 0.49951 0.59723 0.0
C345 C 0.90234 0.56247 0.64964 0.0
C346 C 0.873 0.54401 0.65339 0.0
C347 C 0.8578 0.52439 0.63564 0.0
C348 C 0.85802 0.54344 0.67642 0.0
C349 C 0.91955 0.58474 0.66741 0.0
C350 C 0.8665 0.53895 0.69975 0.0
C351 C 0.85068 0.53545 0.72119 0.0
C352 C 0.82592 0.53621 0.71976 0.0
C353 C 0.818 0.54164 0.69649 0.0
C354 C 0.83382 0.54506 0.67501 0.0
H355 H 0.93872 0.60148 0.65817 0.0
H356 H 0.90678 0.59223 0.67512 0.0
H357 H 0.92672 0.57736 0.68316 0.0
H358 H 0.88474 0.53709 0.70128 0.0
H359 H 0.85735 0.5312 0.73875 0.0
H360 H 0.50389 0.94854 0.0717 0.0
H361 H 0.47705 0.90956 0.09929 0.0
H362 H 0.4076 0.9219 0.10003 0.0
H363 H 0.43394 0.96042 0.07236 0.0
H364 H 0.46013 0.91064 0.14657 0.0
H365 H 0.36581 0.84289 0.09096 0.0
H366 H 0.39745 0.87062 0.07703 0.0
H367 H 0.37134 0.87532 0.09126 0.0
C368 C 0.48258 0.9425 0.07718 0.0
C369 C 0.47104 0.9576 0.06977 0.0
C370 C 0.46732 0.92029 0.09306 0.0
C371 C 0.44014 0.91257 0.10153 0.0
C372 C 0.42823 0.92703 0.09333 0.0
H373 H 0.32511 0.84222 0.21757 0.0
H374 H 0.35681 0.86575 0.18261 0.0
C375 C 0.44343 0.94921 0.07758 0.0
C376 C 0.42522 0.89125 0.12087 0.0
H377 H 0.35991 0.8376 0.13601 0.0
C378 C 0.43847 0.89423 0.14406 0.0
C379 C 0.397 0.86972 0.11761 0.0
C380 C 0.38221 0.86428 0.09276 0.0
C381 C 0.42353 0.87748 0.16455 0.0
C382 C 0.39471 0.85728 0.1617 0.0
C383 C 0.38201 0.85323 0.13815 0.0
C384 C 0.37636 0.84278 0.18351 0.0
C385 C 0.43796 0.8825 0.18954 0.0
C386 C 0.37699 0.82207 0.1958 0.0
C387 C 0.35866 0.80834 0.21599 0.0
C388 C 0.33955 0.81524 0.22414 0.0
C389 C 0.33947 0.83629 0.21189 0.0
C390 C 0.35756 0.84979 0.1918 0.0
H391 H 0.46046 0.89921 0.18874 0.0
H392 H 0.4265 0.88699 0.20338 0.0
H393 H 0.4372 0.86442 0.19625 0.0
H394 H 0.39136 0.81634 0.18958 0.0
H395 H 0.35918 0.79218 0.22497 0.0
H396 H 0.50345 0.45043 0.60136 0.0
H397 H 0.4972 0.41399 0.62774 0.0
H398 H 0.41821 0.40072 0.65537 0.0
H399 H 0.42388 0.43705 0.62829 0.0
H400 H 0.46288 0.4034 0.69259 0.0
H401 H 0.43205 0.3327 0.61542 0.0
H402 H 0.46187 0.36562 0.60909 0.0
H403 H 0.42741 0.36043 0.61386 0.0
C404 C 0.4845 0.43965 0.61273 0.0
C405 C 0.46388 0.44642 0.61232 0.0
C406 C 0.48108 0.41889 0.62793 0.0
C407 C 0.45706 0.40448 0.64316 0.0
C408 C 0.4368 0.41158 0.64356 0.0
H409 H 0.44752 0.28554 0.75167 0.0
H410 H 0.43189 0.31161 0.72869 0.0
C411 C 0.44015 0.43238 0.62818 0.0
C412 C 0.45361 0.38204 0.65851 0.0
H413 H 0.44764 0.32248 0.6531 0.0
C414 C 0.4589 0.38538 0.68419 0.0
C415 C 0.44843 0.35867 0.64736 0.0
C416 C 0.44188 0.35391 0.61994 0.0
C417 C 0.46112 0.36667 0.69874 0.0
C418 C 0.45742 0.3439 0.68728 0.0
C419 C 0.45045 0.33991 0.66187 0.0
C420 C 0.4645 0.32598 0.70033 0.0
C421 C 0.46931 0.37232 0.72582 0.0
C422 C 0.4872 0.32455 0.69145 0.0
C423 C 0.49595 0.3096 0.70431 0.0
C424 C 0.48218 0.29566 0.72639 0.0
C425 C 0.4586 0.29612 0.73475 0.0
C426 C 0.44981 0.31117 0.72177 0.0
H427 H 0.4758 0.39278 0.73074 0.0
H428 H 0.45093 0.35828 0.73771 0.0
H429 H 0.48704 0.36951 0.73031 0.0
H430 H 0.49878 0.33572 0.6749 0.0
H431 H 0.51406 0.30958 0.69724 0.0
H432 H 0.53547 0.96249 0.45312 0.0
H433 H 0.52936 0.9297 0.42317 0.0
H434 H 0.54217 0.9837 0.36256 0.0
H435 H 0.54825 0.01669 0.39249 0.0
H436 H 0.48972 0.90577 0.38481 0.0
H437 H 0.59997 0.9635 0.34786 0.0
H438 H 0.58978 0.97209 0.37616 0.0
H439 H 0.58134 0.98043 0.34633 0.0
C440 C 0.53683 0.96741 0.43344 0.0
C441 C 0.54243 0.99231 0.42525 0.0
C442 C 0.53339 0.94862 0.41633 0.0
C443 C 0.53558 0.95433 0.39065 0.0
C444 C 0.54092 0.97905 0.38233 0.0
H445 H 0.5378 0.86458 0.26593 0.0
H446 H 0.53166 0.89506 0.29058 0.0
C447 C 0.54445 0.99792 0.39946 0.0
C448 C 0.53241 0.93435 0.37273 0.0
H449 H 0.56832 0.92284 0.32889 0.0
C450 C 0.50686 0.9095 0.3725 0.0
C451 C 0.55479 0.93927 0.35669 0.0
C452 C 0.58312 0.96516 0.35682 0.0
C453 C 0.50311 0.88943 0.35669 0.0
C454 C 0.52565 0.89424 0.34095 0.0
C455 C 0.55099 0.91924 0.34086 0.0
C456 C 0.52429 0.87334 0.32541 0.0
C457 C 0.47504 0.86333 0.35687 0.0
C458 C 0.52138 0.85055 0.33667 0.0
C459 C 0.5248 0.833 0.32261 0.0
C460 C 0.53148 0.83805 0.29705 0.0
C461 C 0.53269 0.86005 0.28556 0.0
C462 C 0.52927 0.87758 0.29964 0.0
H463 H 0.45769 0.86541 0.36401 0.0
H464 H 0.46935 0.85495 0.33791 0.0
H465 H 0.47655 0.84904 0.36932 0.0
H466 H 0.51803 0.84709 0.3566 0.0
H467 H 0.52381 0.81632 0.33209 0.0
H468 H 0.63532 0.58061 0.98869 0.0
H469 H 0.65725 0.58066 0.94952 0.0
H470 H 0.57476 0.5262 0.91881 0.0
H471 H 0.55245 0.52584 0.95817 0.0
H472 H 0.64475 0.52804 0.9308 0.0
H473 H 0.62249 0.58655 0.86279 0.0
H474 H 0.62432 0.59188 0.89598 0.0
H475 H 0.59426 0.56293 0.88313 0.0
C476 C 0.62171 0.56911 0.97344 0.0
C477 C 0.59211 0.55316 0.97662 0.0
C478 C 0.63433 0.56915 0.95108 0.0
C479 C 0.61764 0.55346 0.93131 0.0
C480 C 0.58798 0.53866 0.9338 0.0
H481 H 0.65831 0.51243 0.79083 0.0
H482 H 0.63623 0.52128 0.8251 0.0
C483 C 0.57527 0.53855 0.95627 0.0
C484 C 0.63156 0.55047 0.90935 0.0
H485 H 0.6464 0.56681 0.84757 0.0
C486 C 0.64524 0.53659 0.9126 0.0
C487 C 0.63183 0.56141 0.88567 0.0
C488 C 0.61759 0.57667 0.88148 0.0
C489 C 0.65913 0.53321 0.89272 0.0
C490 C 0.65998 0.54463 0.86906 0.0
C491 C 0.64601 0.55832 0.86576 0.0
C492 C 0.67435 0.54163 0.84735 0.0
C493 C 0.67209 0.51681 0.89709 0.0
C494 C 0.70343 0.55095 0.84803 0.0
C495 C 0.71617 0.54582 0.82845 0.0
C496 C 0.70009 0.53145 0.80773 0.0
C497 C 0.67133 0.52342 0.80655 0.0
C498 C 0.65863 0.52848 0.82614 0.0
H499 H 0.66391 0.50448 0.91444 0.0
H500 H 0.66776 0.50361 0.88117 0.0
H501 H 0.69541 0.53015 0.89898 0.0
H502 H 0.71615 0.56171 0.86396 0.0
H503 H 0.73838 0.55241 0.82992 0.0
H504 H 0.088 0.58475 0.48834 0.0
H505 H 0.12326 0.615 0.45758 0.0
H506 H 0.14769 0.5587 0.44552 0.0
H507 H 0.11317 0.52874 0.47681 0.0
H508 H 0.1934 0.60927 0.44295 0.0
H509 H 0.10624 0.60015 0.38437 0.0
H510 H 0.10772 0.613 0.41463 0.0
H511 H 0.09976 0.57972 0.41185 0.0
C512 C 0.10127 0.57903 0.47951 0.0
C513 C 0.09756 0.55421 0.48489 0.0
C514 C 0.12127 0.59625 0.46176 0.0
C515 C 0.13756 0.58881 0.44867 0.0
C516 C 0.13522 0.56481 0.4552 0.0
H517 H 0.20541 0.6527 0.30116 0.0
H518 H 0.18134 0.62347 0.33715 0.0
C519 C 0.11548 0.54771 0.47318 0.0
C520 C 0.15561 0.6051 0.42715 0.0
H521 H 0.153 0.63123 0.37064 0.0
C522 C 0.18459 0.61406 0.4271 0.0
C523 C 0.14401 0.61084 0.40617 0.0
C524 C 0.11269 0.60021 0.40406 0.0
C525 C 0.20234 0.62895 0.40688 0.0
C526 C 0.19093 0.63557 0.38637 0.0
C527 C 0.16188 0.62632 0.38635 0.0
C528 C 0.2084 0.65209 0.36463 0.0
C529 C 0.23296 0.63688 0.4075 0.0
C530 C 0.23219 0.67774 0.36794 0.0
C531 C 0.24632 0.69436 0.3473 0.0
C532 C 0.23658 0.68587 0.32294 0.0
C533 C 0.21345 0.65987 0.31965 0.0
C534 C 0.1996 0.64315 0.34025 0.0
H535 H 0.23598 0.62348 0.41998 0.0
H536 H 0.24077 0.63673 0.38858 0.0
H537 H 0.24615 0.65721 0.4148 0.0
H538 H 0.23906 0.68542 0.38648 0.0
H539 H 0.26386 0.71438 0.35053 0.0
H540 H 0.4779 0.09381 0.0305 0.0
H541 H 0.46621 0.11655 0.99857 0.0
H542 H 0.51781 0.10771 0.94526 0.0
H543 H 0.52966 0.08533 0.97679 0.0
H544 H 0.5021 0.1626 0.97317 0.0
H545 H 0.44554 0.08204 0.90592 0.0
H546 H 0.45225 0.07612 0.93765 0.0
H547 H 0.47923 0.08687 0.91406 0.0
C548 C 0.48669 0.09667 0.01196 0.0
C549 C 0.50451 0.08747 1.00622 0.0
C550 C 0.47984 0.10951 0.9937 0.0
C551 C 0.49056 0.11325 0.96934 0.0
C552 C 0.5085 0.10427 0.96366 0.0
H553 H 0.54574 0.23092 0.85932 0.0
H554 H 0.53556 0.2019 0.89544 0.0
C555 C 0.51531 0.09148 0.98182 0.0
C556 C 0.48501 0.12826 0.95017 0.0
H557 H 0.46682 0.12676 0.88895 0.0
C558 C 0.4938 0.15457 0.95493 0.0
C559 C 0.47364 0.1177 0.9265 0.0
C560 C 0.46184 0.08903 0.92082 0.0
C561 C 0.49362 0.17116 0.93607 0.0
C562 C 0.48484 0.16129 0.91176 0.0
C563 C 0.47393 0.13443 0.90751 0.0
C564 C 0.49011 0.1792 0.89005 0.0
C565 C 0.5037 0.19939 0.94216 0.0
C566 C 0.46794 0.17567 0.87453 0.0
C567 C 0.47372 0.19233 0.85357 0.0
C568 C 0.5018 0.21249 0.84771 0.0
C569 C 0.52384 0.2157 0.86326 0.0
C570 C 0.51806 0.19923 0.8841 0.0
H571 H 0.50039 0.20128 0.96221 0.0
H572 H 0.52677 0.21219 0.93824 0.0
H573 H 0.49255 0.20681 0.93073 0.0
H574 H 0.44622 0.1601 0.87866 0.0
H575 H 0.4563 0.1893 0.8419 0.0
H576 H 0.46401 0.48433 0.45851 0.0
H577 H 0.43876 0.48146 0.41965 0.0
H578 H 0.39576 0.51364 0.45665 0.0
H579 H 0.42055 0.51654 0.49521 0.0
H580 H 0.3778 0.45401 0.41165 0.0
H581 H 0.43174 0.56233 0.39402 0.0
H582 H 0.44593 0.54802 0.41483 0.0
H583 H 0.41752 0.55155 0.42495 0.0
C584 C 0.44908 0.49067 0.45836 0.0
C585 C 0.44441 0.50074 0.47998 0.0
C586 C 0.43476 0.4891 0.43615 0.0
C587 C 0.41583 0.49785 0.43517 0.0
C588 C 0.41072 0.50733 0.45684 0.0
H589 H 0.29954 0.50229 0.32924 0.0
H590 H 0.33112 0.50931 0.36455 0.0
C591 C 0.42482 0.50877 0.47895 0.0
C592 C 0.40068 0.49655 0.4118 0.0
H593 H 0.3906 0.53469 0.36977 0.0
C594 C 0.3808 0.47164 0.40231 0.0
C595 C 0.40448 0.5196 0.3998 0.0
C596 C 0.42624 0.54693 0.40875 0.0
C597 C 0.364 0.46907 0.38155 0.0
C598 C 0.36765 0.49211 0.3696 0.0
C599 C 0.38777 0.51707 0.37895 0.0
C600 C 0.35073 0.49052 0.34734 0.0
C601 C 0.34182 0.44163 0.37311 0.0
C602 C 0.35215 0.47869 0.3256 0.0
C603 C 0.33416 0.4746 0.30557 0.0
C604 C 0.31456 0.48254 0.30667 0.0
C605 C 0.3144 0.49595 0.32782 0.0
C606 C 0.33235 0.49988 0.34802 0.0
H607 H 0.33657 0.42641 0.38797 0.0
H608 H 0.32203 0.44055 0.36743 0.0
H609 H 0.35003 0.43662 0.3568 0.0
H610 H 0.36668 0.47196 0.32437 0.0
H611 H 0.33511 0.46452 0.28943 0.0
H612 H 0.02545 0.46591 0.89983 0.0
H613 H 0.99694 0.42506 0.87643 0.0
H614 H 0.94832 0.38506 0.94268 0.0
H615 H 0.97675 0.42551 0.9662 0.0
H616 H 0.98503 0.37161 0.88515 0.0
H617 H 0.88879 0.37689 0.89069 0.0
H618 H 0.92388 0.40483 0.89712 0.0
H619 H 0.90525 0.37891 0.92021 0.0
C620 C 1.00893 0.44836 0.9095 0.0
C621 C 1.00317 0.44918 0.93486 0.0
C622 C 0.99262 0.42504 0.89608 0.0
C623 C 0.97024 0.40217 0.90773 0.0
C624 C 0.96514 0.40264 0.9332 0.0
H625 H 0.83147 0.24947 0.8622 0.0
H626 H 0.86862 0.28667 0.88557 0.0
C627 C 0.98137 0.42586 0.9466 0.0
C628 C 0.95144 0.37802 0.89323 0.0
H629 H 0.88263 0.33743 0.87505 0.0
C630 C 0.96266 0.36415 0.8828 0.0
C631 C 0.92229 0.3684 0.89014 0.0
C632 C 0.9093 0.38311 0.89991 0.0
C633 C 0.94527 0.34044 0.86997 0.0
C634 C 0.91602 0.33064 0.86723 0.0
C635 C 0.90498 0.34478 0.87738 0.0
C636 C 0.89622 0.30594 0.85374 0.0
C637 C 0.95816 0.32575 0.86003 0.0
C638 C 0.89976 0.30388 0.82817 0.0
C639 C 0.87856 0.28245 0.81473 0.0
C640 C 0.85328 0.26286 0.82658 0.0
C641 C 0.8506 0.26421 0.85246 0.0
C642 C 0.87181 0.28553 0.86586 0.0
H643 H 0.97867 0.33189 0.86923 0.0
H644 H 0.94353 0.30402 0.86268 0.0
H645 H 0.96223 0.33011 0.83975 0.0
H646 H 0.91815 0.31957 0.81829 0.0
H647 H 0.88124 0.28216 0.79479 0.0
H648 H 0.92889 0.48282 0.98905 0.0
H649 H 0.88489 0.47061 0.96667 0.0
H650 H 0.9311 0.54122 0.92056 0.0
H651 H 0.9746 0.55363 0.94281 0.0
H652 H 0.87947 0.53188 0.9366 0.0
H653 H 0.86782 0.44199 0.89521 0.0
H654 H 0.86975 0.44367 0.92866 0.0
H655 H 0.90006 0.46681 0.91022 0.0
C656 C 0.92951 0.49589 0.97439 0.0
C657 C 0.95529 0.51913 0.96764 0.0
C658 C 0.90443 0.48876 0.96145 0.0
C659 C 0.90479 0.50478 0.94163 0.0
C660 C 0.93028 0.52847 0.93567 0.0
H661 H 0.80705 0.48446 0.81074 0.0
H662 H 0.83925 0.48574 0.84281 0.0
C663 C 0.95519 0.53552 0.94844 0.0
C664 C 0.87911 0.49708 0.92644 0.0
H665 H 0.83475 0.4531 0.8829 0.0
C666 C 0.86941 0.51446 0.9251 0.0
C667 C 0.86631 0.47454 0.91117 0.0
C668 C 0.87654 0.45571 0.91112 0.0
C669 C 0.84783 0.51035 0.9085 0.0
C670 C 0.83511 0.4879 0.8931 0.0
C671 C 0.84436 0.47017 0.89483 0.0
C672 C 0.81366 0.48366 0.87391 0.0
C673 C 0.83985 0.53084 0.90676 0.0
C674 C 0.78799 0.48101 0.88067 0.0
C675 C 0.76959 0.48042 0.86237 0.0
C676 C 0.77634 0.48219 0.83688 0.0
C677 C 0.80119 0.48311 0.83016 0.0
C678 C 0.81965 0.48385 0.8485 0.0
H679 H 0.85597 0.54969 0.91558 0.0
H680 H 0.83727 0.53515 0.88702 0.0
H681 H 0.81937 0.52316 0.91653 0.0
H682 H 0.78258 0.4802 0.90014 0.0
H683 H 0.75052 0.47944 0.86824 0.0
H684 H 0.42425 0.9951 0.4688 0.0
H685 H 0.38876 0.95842 0.4438 0.0
H686 H 0.42279 0.91141 0.46763 0.0
H687 H 0.4581 0.94792 0.49306 0.0
H688 H 0.40252 0.93962 0.40477 0.0
H689 H 0.33831 0.8574 0.47206 0.0
H690 H 0.36101 0.8913 0.48158 0.0
H691 H 0.3757 0.87145 0.47565 0.0
C692 C 0.42371 0.9767 0.46927 0.0
C693 C 0.44402 0.97445 0.48295 0.0
C694 C 0.40344 0.95576 0.4549 0.0
C695 C 0.40294 0.93206 0.45388 0.0
C696 C 0.42231 0.92926 0.46848 0.0
H697 H 0.34158 0.80005 0.3596 0.0
H698 H 0.36157 0.83341 0.39166 0.0
C699 C 0.44255 0.95019 0.48302 0.0
C700 C 0.38442 0.91162 0.43551 0.0
H701 H 0.33546 0.84557 0.42917 0.0
C702 C 0.3875 0.91913 0.41015 0.0
C703 C 0.36486 0.88488 0.4425 0.0
C704 C 0.35953 0.87579 0.46946 0.0
C705 C 0.37255 0.90048 0.39154 0.0
C706 C 0.35363 0.87361 0.39847 0.0
C707 C 0.34992 0.8662 0.42387 0.0
C708 C 0.33964 0.85258 0.37957 0.0
C709 C 0.37817 0.90948 0.36454 0.0
C710 C 0.3202 0.85195 0.36221 0.0
C711 C 0.30863 0.83275 0.34363 0.0
C712 C 0.31636 0.81392 0.34215 0.0
C713 C 0.33525 0.81431 0.36001 0.0
C714 C 0.34667 0.83334 0.37849 0.0
H715 H 0.39711 0.92985 0.36223 0.0
H716 H 0.38135 0.89582 0.35341 0.0
H717 H 0.35957 0.90936 0.3568 0.0
H718 H 0.31417 0.86641 0.36292 0.0
H719 H 0.29406 0.83292 0.33025 0.0
H720 H 0.56354 0.42058 0.02073 0.0
H721 H 0.56817 0.39651 0.9867 0.0
H722 H 0.5726 0.45396 0.93363 0.0
H723 H 0.56943 0.47869 0.96743 0.0
H724 H 0.53129 0.37292 0.95043 0.0
H725 H 0.63429 0.44615 0.90695 0.0
H726 H 0.62411 0.4509 0.93728 0.0
H727 H 0.61203 0.45922 0.90935 0.0
C728 C 0.56617 0.42842 1.00189 0.0
C729 C 0.56579 0.45144 0.99689 0.0
C730 C 0.56873 0.41459 0.98242 0.0
C731 C 0.57112 0.42357 0.95757 0.0
C732 C 0.57146 0.4469 0.95262 0.0
H733 H 0.50729 0.33943 0.82455 0.0
H734 H 0.52267 0.36824 0.86041 0.0
C735 C 0.56907 0.46079 0.97203 0.0
C736 C 0.5701 0.40714 0.93666 0.0
H737 H 0.60085 0.40996 0.88081 0.0
C738 C 0.54686 0.38092 0.9355 0.0
C739 C 0.59044 0.41744 0.91713 0.0
C740 C 0.61676 0.44489 0.91787 0.0
C741 C 0.54262 0.36524 0.91485 0.0
C742 C 0.56194 0.3761 0.89468 0.0
C743 C 0.58596 0.4018 0.89626 0.0
C744 C 0.55585 0.36157 0.87114 0.0
C745 C 0.51696 0.33737 0.91434 0.0
C746 C 0.57019 0.34904 0.86479 0.0
C747 C 0.56143 0.33243 0.84415 0.0
C748 C 0.5382 0.32818 0.82969 0.0
C749 C 0.52508 0.34205 0.83539 0.0
C750 C 0.53383 0.35856 0.85588 0.0
H751 H 0.50758 0.33006 0.9332 0.0
H752 H 0.50058 0.33695 0.90207 0.0
H753 H 0.52256 0.32362 0.90665 0.0
H754 H 0.58728 0.35119 0.8764 0.0
H755 H 0.5719 0.32197 0.84026 0.0
H756 H 0.06444 0.47496 0.4509 0.0
H757 H 0.08823 0.46092 0.4233 0.0
H758 H 0.01439 0.42302 0.37616 0.0
H759 H 0.99008 0.43667 0.40396 0.0
H760 H 0.07215 0.40897 0.40685 0.0
H761 H 0.07997 0.47579 0.32906 0.0
H762 H 0.07178 0.47935 0.36064 0.0
H763 H 0.04502 0.45365 0.34157 0.0
C764 C 0.05293 0.46324 0.43497 0.0
C765 C 0.02522 0.457 0.42972 0.0
C766 C 0.0667 0.45533 0.4191 0.0
C767 C 0.05322 0.44118 0.39755 0.0
C768 C 0.02535 0.43429 0.39252 0.0
H769 H 0.1236 0.406 0.2709 0.0
H770 H 0.09027 0.40498 0.30084 0.0
C771 C 0.0115 0.44216 0.40841 0.0
C772 C 0.06882 0.4345 0.37998 0.0
H773 H 0.09788 0.44876 0.32163 0.0
C774 C 0.07768 0.41754 0.38816 0.0
C775 C 0.07602 0.44572 0.35562 0.0
C776 C 0.06795 0.46481 0.34615 0.0
C777 C 0.0935 0.41145 0.37258 0.0
C778 C 0.10117 0.42307 0.34837 0.0
C779 C 0.0919 0.43972 0.34012 0.0
C780 C 0.11991 0.41947 0.33157 0.0
C781 C 0.1016 0.39243 0.38215 0.0
C782 C 0.14749 0.42722 0.33901 0.0
C783 C 0.16657 0.4276 0.32196 0.0
C784 C 0.15859 0.42061 0.29699 0.0
C785 C 0.1305 0.41155 0.28995 0.0
C786 C 0.11141 0.41103 0.30704 0.0
H787 H 0.08682 0.379 0.397 0.0
H788 H 0.10178 0.38024 0.36691 0.0
H789 H 0.12317 0.40383 0.39033 0.0
H790 H 0.15481 0.43436 0.35764 0.0
H791 H 0.18806 0.43487 0.32802 0.0
H792 H 0.5409 0.02722 0.94291 0.0
H793 H 0.57128 0.05446 0.908 0.0
H794 H 0.64305 0.09284 0.95748 0.0
H795 H 0.61307 0.06559 0.99235 0.0
H796 H 0.60286 0.11032 0.90338 0.0
H797 H 0.67264 0.07042 0.89978 0.0
H798 H 0.63931 0.05365 0.91642 0.0
H799 H 0.67027 0.08135 0.93005 0.0
C800 C 0.56324 0.04115 0.94631 0.0
C801 C 0.57455 0.04407 0.97044 0.0
C802 C 0.58053 0.05683 0.92635 0.0
C803 C 0.60947 0.07555 0.9301 0.0
C804 C 0.62088 0.07825 0.95407 0.0
H805 H 0.72868 0.20828 0.83253 0.0
H806 H 0.69441 0.18138 0.86566 0.0
C807 C 0.60366 0.06264 0.97401 0.0
C808 C 0.62765 0.09273 0.90911 0.0
H809 H 0.68676 0.10924 0.87552 0.0
C810 C 0.62116 0.11005 0.89719 0.0
C811 C 0.65141 0.09223 0.90099 0.0
C812 C 0.65875 0.07326 0.91229 0.0
C813 C 0.63799 0.12708 0.87751 0.0
C814 C 0.66209 0.12695 0.86976 0.0
C815 C 0.66841 0.10948 0.8816 0.0
C816 C 0.68048 0.14379 0.8487 0.0
C817 C 0.62955 0.14466 0.86484 0.0
C818 C 0.68385 0.13167 0.82811 0.0
C819 C 0.70341 0.14689 0.80941 0.0
C820 C 0.72014 0.17465 0.8108 0.0
C821 C 0.71594 0.18696 0.83085 0.0
C822 C 0.69634 0.1716 0.84976 0.0
H823 H 0.60726 0.13814 0.86912 0.0
H824 H 0.64353 0.1652 0.87144 0.0
H825 H 0.63207 0.14495 0.84431 0.0
H826 H 0.67182 0.11029 0.82684 0.0
H827 H 0.70596 0.13677 0.79413 0.0
H828 H 0.55967 0.64182 0.52136 0.0
H829 H 0.57346 0.6757 0.48855 0.0
H830 H 0.54853 0.61655 0.43263 0.0
H831 H 0.53343 0.58254 0.46487 0.0
H832 H 0.61248 0.69281 0.45022 0.0
H833 H 0.50419 0.64957 0.41191 0.0
H834 H 0.51079 0.63897 0.44155 0.0
H835 H 0.51519 0.62631 0.41296 0.0
C836 C 0.5568 0.6359 0.50212 0.0
C837 C 0.54516 0.60921 0.49599 0.0
C838 C 0.56492 0.65538 0.48337 0.0
C839 C 0.56152 0.64857 0.45814 0.0
C840 C 0.55075 0.62218 0.45196 0.0
H841 H 0.60468 0.72799 0.31484 0.0
H842 H 0.59865 0.70054 0.35172 0.0
C843 C 0.54245 0.60272 0.4706 0.0
C844 C 0.56904 0.66886 0.43813 0.0
H845 H 0.54226 0.68272 0.38665 0.0
C846 C 0.59707 0.69075 0.43646 0.0
C847 C 0.54885 0.66625 0.42027 0.0
C848 C 0.51802 0.64416 0.42187 0.0
C849 C 0.6056 0.70961 0.41691 0.0
C850 C 0.58564 0.70637 0.39869 0.0
C851 C 0.55754 0.68488 0.40061 0.0
C852 C 0.59332 0.72501 0.37729 0.0
C853 C 0.63592 0.73264 0.41544 0.0
C854 C 0.59278 0.74805 0.37968 0.0
C855 C 0.59608 0.76374 0.35864 0.0
C856 C 0.59994 0.75658 0.33488 0.0
C857 C 0.60182 0.73412 0.33283 0.0
C858 C 0.59835 0.71839 0.35386 0.0
H859 H 0.64917 0.73195 0.43068 0.0
H860 H 0.64528 0.73273 0.39723 0.0
H861 H 0.63653 0.75147 0.41649 0.0
H862 H 0.58875 0.75333 0.39765 0.0
H863 H 0.59457 0.78092 0.36089 0.0
H864 H 0.54973 0.09211 0.5829 0.0
H865 H 0.55086 0.11698 0.61886 0.0
H866 H 0.51572 0.15348 0.57411 0.0
H867 H 0.5135 0.12792 0.53824 0.0
H868 H 0.57736 0.17094 0.62706 0.0
H869 H 0.46021 0.12086 0.63237 0.0
H870 H 0.47738 0.10892 0.61329 0.0
H871 H 0.47516 0.13655 0.60274 0.0
C872 C 0.54195 0.10519 0.58068 0.0
C873 C 0.53107 0.10762 0.55766 0.0
C874 C 0.54289 0.11962 0.60125 0.0
C875 C 0.53294 0.13676 0.59931 0.0
C876 C 0.52302 0.13999 0.57617 0.0
H877 H 0.55112 0.24891 0.71235 0.0
H878 H 0.55767 0.22939 0.67529 0.0
C879 C 0.52201 0.12552 0.55559 0.0
C880 C 0.5322 0.15062 0.62169 0.0
H881 H 0.48702 0.1561 0.65986 0.0
C882 C 0.55764 0.16776 0.63424 0.0
C883 C 0.50639 0.14617 0.63122 0.0
C884 C 0.47818 0.12695 0.61939 0.0
C885 C 0.55795 0.18064 0.65601 0.0
C886 C 0.53218 0.17652 0.66526 0.0
C887 C 0.50679 0.15938 0.65268 0.0
C888 C 0.53063 0.18882 0.68848 0.0
C889 C 0.58572 0.19795 0.66928 0.0
C890 C 0.51332 0.17258 0.70823 0.0
C891 C 0.50939 0.18364 0.72926 0.0
C892 C 0.52265 0.21124 0.73105 0.0
C893 C 0.54077 0.22759 0.71163 0.0
C894 C 0.5446 0.21646 0.69046 0.0
H895 H 0.60212 0.19399 0.66335 0.0
H896 H 0.59366 0.21904 0.66487 0.0
H897 H 0.58292 0.19493 0.6898 0.0
H898 H 0.50235 0.15123 0.70715 0.0
H899 H 0.49536 0.17044 0.74388 0.0
H900 H 0.45975 0.50795 0.05618 0.0
H901 H 0.41771 0.49843 0.07968 0.0
H902 H 0.41059 0.42827 0.11176 0.0
H903 H 0.45287 0.43795 0.08885 0.0
H904 H 0.36163 0.45583 0.08349 0.0
H905 H 0.41845 0.4703 0.17312 0.0
H906 H 0.43638 0.47922 0.14339 0.0
H907 H 0.41675 0.44522 0.15402 0.0
C908 C 0.44896 0.49026 0.06792 0.0
C909 C 0.45984 0.47387 0.07087 0.0
C910 C 0.42496 0.48487 0.08139 0.0
C911 C 0.4114 0.46298 0.09796 0.0
C912 C 0.42113 0.44565 0.09961 0.0
H913 H 0.28142 0.42301 0.21217 0.0
H914 H 0.31155 0.41864 0.18198 0.0
C915 C 0.44522 0.45114 0.08637 0.0
C916 C 0.38812 0.45909 0.11445 0.0
H917 H 0.37046 0.45713 0.17566 0.0
C918 C 0.36351 0.456 0.10364 0.0
C919 C 0.39057 0.45933 0.14078 0.0
C920 C 0.41704 0.46393 0.15357 0.0
C921 C 0.34137 0.45326 0.11844 0.0
C922 C 0.34404 0.4539 0.14472 0.0
C923 C 0.36833 0.45638 0.15553 0.0
C924 C 0.3233 0.45464 0.1613 0.0
C925 C 0.31533 0.4498 0.10584 0.0
C926 C 0.31987 0.47622 0.15963 0.0
C927 C 0.30295 0.47882 0.17684 0.0
C928 C 0.28902 0.4599 0.19616 0.0
C929 C 0.29172 0.43781 0.19741 0.0
C930 C 0.30896 0.43533 0.18022 0.0
H931 H 0.31273 0.44193 0.08676 0.0
H932 H 0.2959 0.43622 0.11686 0.0
H933 H 0.31742 0.46932 0.10417 0.0
H934 H 0.33113 0.49162 0.14553 0.0
H935 H 0.30132 0.49608 0.17531 0.0
H936 H 0.9427 0.4078 0.5389 0.0
H937 H 0.91856 0.38171 0.57632 0.0
H938 H 0.97289 0.44903 0.62183 0.0
H939 H 0.99773 0.47529 0.58419 0.0
H940 H 0.96418 0.40335 0.64267 0.0
H941 H 0.86094 0.38819 0.61519 0.0
H942 H 0.87467 0.37758 0.59124 0.0
H943 H 0.89361 0.41198 0.59948 0.0
C944 C 0.94973 0.41704 0.55687 0.0
C945 C 0.97202 0.44366 0.55857 0.0
C946 C 0.93569 0.40216 0.57825 0.0
C947 C 0.94326 0.41364 0.60183 0.0
C948 C 0.96642 0.43987 0.60378 0.0
H949 H 0.82558 0.31515 0.72413 0.0
H950 H 0.85433 0.35379 0.69627 0.0
C951 C 0.98072 0.45479 0.5823 0.0
C952 C 0.92698 0.39788 0.62424 0.0
H953 H 0.85925 0.35712 0.64592 0.0
C954 C 0.94129 0.3936 0.64358 0.0
C955 C 0.89717 0.38572 0.6259 0.0
C956 C 0.88076 0.39135 0.60697 0.0
C957 C 0.9264 0.37599 0.66354 0.0
C958 C 0.89635 0.36181 0.66385 0.0
C959 C 0.88222 0.36759 0.6455 0.0
C960 C 0.87927 0.33913 0.68142 0.0
C961 C 0.94305 0.37246 0.68389 0.0
C962 C 0.88323 0.31785 0.68189 0.0
C963 C 0.86703 0.296 0.69766 0.0
C964 C 0.84608 0.29461 0.71321 0.0
C965 C 0.8416 0.31566 0.71244 0.0
C966 C 0.85804 0.33775 0.6966 0.0
H967 H 0.96433 0.39076 0.68606 0.0
H968 H 0.93176 0.36724 0.70207 0.0
H969 H 0.94627 0.35633 0.67885 0.0
H970 H 0.89873 0.31797 0.66979 0.0
H971 H 0.87092 0.28008 0.69749 0.0
H972 H 0.64171 0.04038 0.11181 0.0
H973 H 0.65332 0.01242 0.1366 0.0
H974 H 0.56511 0.96074 0.15652 0.0
H975 H 0.55339 0.98832 0.13142 0.0
H976 H 0.64663 0.99567 0.18554 0.0
H977 H 0.58241 0.91026 0.12437 0.0
H978 H 0.59079 0.94317 0.1163 0.0
H979 H 0.56198 0.92231 0.13735 0.0
C980 C 0.62489 0.02329 0.12179 0.0
C981 C 0.59658 0.01633 0.11947 0.0
C982 C 0.63153 0.00727 0.13586 0.0
C983 C 0.60998 0.98412 0.14789 0.0
C984 C 0.58197 0.97807 0.1468 0.0
H985 H 0.61389 0.88323 0.26164 0.0
H986 H 0.61827 0.92062 0.23819 0.0
C987 C 0.5753 0.99388 0.13255 0.0
C988 C 0.61647 0.96572 0.16082 0.0
H989 H 0.59721 0.90107 0.16304 0.0
C990 C 0.63605 0.97503 0.18051 0.0
C991 C 0.60322 0.93895 0.15384 0.0
C992 C 0.58367 0.92813 0.13164 0.0
C993 C 0.6418 0.95799 0.19408 0.0
C994 C 0.62712 0.93082 0.18812 0.0
C995 C 0.60838 0.92183 0.1678 0.0
C996 C 0.62942 0.91089 0.20328 0.0
C997 C 0.66366 0.96935 0.21454 0.0
C998 C 0.63442 0.89291 0.19163 0.0
C999 C 0.63138 0.87112 0.20494 0.0
C1000 C 0.62346 0.86697 0.23021 0.0
C1001 C 0.62032 0.88595 0.24226 0.0
C1002 C 0.62296 0.90751 0.22886 0.0
H1003 H 0.67966 0.99067 0.2109 0.0
H1004 H 0.65299 0.96772 0.23245 0.0
H1005 H 0.67481 0.9586 0.21662 0.0
H1006 H 0.63941 0.89506 0.17191 0.0
H1007 H 0.63396 0.85688 0.19513 0.0
H1008 H 0.54825 0.47097 0.54795 0.0
H1009 H 0.57497 0.45518 0.57103 0.0
H1010 H 0.62411 0.53081 0.6065 0.0
H1011 H 0.59818 0.54673 0.58333 0.0
H1012 H 0.65677 0.51191 0.59299 0.0
H1013 H 0.56113 0.43455 0.64505 0.0
H1014 H 0.55945 0.43243 0.61165 0.0
H1015 H 0.56115 0.45998 0.62625 0.0
C1016 C 0.5652 0.48437 0.56025 0.0
C1017 C 0.57105 0.51007 0.56388 0.0
C1018 C 0.58019 0.47521 0.57367 0.0
C1019 C 0.60116 0.49163 0.5909 0.0
C1020 C 0.60794 0.5177 0.59345 0.0
H1021 H 0.6693 0.47514 0.72645 0.0
H1022 H 0.63947 0.47426 0.69241 0.0
C1023 C 0.59307 0.5268 0.58015 0.0
C1024 C 0.61569 0.48196 0.60718 0.0
H1025 H 0.60493 0.44066 0.65685 0.0
C1026 C 0.64544 0.49605 0.60672 0.0
C1027 C 0.60084 0.46148 0.62529 0.0
C1028 C 0.56891 0.4463 0.62735 0.0
C1029 C 0.66083 0.49109 0.62445 0.0
C1030 C 0.64605 0.47083 0.64281 0.0
C1031 C 0.61623 0.45601 0.64268 0.0
C1032 C 0.6612 0.46676 0.66372 0.0
C1033 C 0.6928 0.50879 0.62425 0.0
C1034 C 0.68248 0.46149 0.65921 0.0
C1035 C 0.69988 0.46233 0.67866 0.0
C1036 C 0.69598 0.46797 0.70308 0.0
C1037 C 0.67303 0.47087 0.70789 0.0
C1038 C 0.6559 0.47037 0.68839 0.0
H1039 H 0.70034 0.52703 0.61268 0.0
H1040 H 0.70116 0.51471 0.64344 0.0
H1041 H 0.70193 0.49792 0.61633 0.0
H1042 H 0.68645 0.45787 0.64047 0.0
H1043 H 0.71715 0.4597 0.67435 0.0
H1044 H 0.0541 0.59446 0.07103 0.0
H1045 H 0.07868 0.62265 0.10661 0.0
H1046 H 0.15739 0.66085 0.06549 0.0
H1047 H 0.13284 0.63296 0.0298 0.0
H1048 H 0.11985 0.62501 0.13417 0.0
H1049 H 0.16 0.72428 0.09225 0.0
H1050 H 0.13352 0.6943 0.0772 0.0
H1051 H 0.17059 0.7059 0.07448 0.0
C1052 C 0.07661 0.609 0.06951 0.0
C1053 C 0.09148 0.61147 0.04752 0.0
C1054 C 0.09063 0.62518 0.08984 0.0
C1055 C 0.11985 0.64424 0.08867 0.0
C1056 C 0.13471 0.64688 0.06666 0.0
H1057 H 0.25818 0.73156 0.18551 0.0
H1058 H 0.22413 0.71009 0.1519 0.0
C1059 C 0.12065 0.63084 0.04624 0.0
C1060 C 0.13514 0.66001 0.11099 0.0
H1061 H 0.18287 0.7229 0.13012 0.0
C1062 C 0.1332 0.64645 0.1334 0.0
C1063 C 0.15248 0.68803 0.11012 0.0
C1064 C 0.15405 0.70398 0.08728 0.0
C1065 C 0.14922 0.66 0.15445 0.0
C1066 C 0.16756 0.68785 0.15312 0.0
C1067 C 0.16877 0.70153 0.13108 0.0
C1068 C 0.18793 0.70268 0.17341 0.0
C1069 C 0.14754 0.64439 0.1776 0.0
C1070 C 0.17894 0.70615 0.19661 0.0
C1071 C 0.19854 0.71869 0.216 0.0
C1072 C 0.22729 0.72763 0.21246 0.0
C1073 C 0.23617 0.72471 0.18895 0.0
C1074 C 0.21675 0.71252 0.16964 0.0
H1075 H 0.1343 0.62267 0.1748 0.0
H1076 H 0.16913 0.64975 0.18338 0.0
H1077 H 0.13825 0.64938 0.19307 0.0
H1078 H 0.15676 0.6988 0.19981 0.0
H1079 H 0.19107 0.72062 0.2339 0.0
loop_
_geom_bond_atom_site_label_1
_geom_bond_atom_site_label_2
_geom_bond_distance
_geom_bond_site_symmetry_2
_ccdc_geom_bond_type
Cu0 N1 2.001 1_454 S
Cu0 O6 1.973 1_454 S
Cu0 N11 1.985 . S
Cu0 O20 1.959 . S
N1 Cu0 2.001 1_656 S
N1 C3 1.266 . S
N1 C5 1.385 1_556 S
N2 C3 1.358 . S
N2 C4 1.400 . S
C3 N1 1.266 . S
C3 N2 1.358 . S
C3 H9 0.927 . S
C4 N2 1.400 . S
C4 C5 1.351 1_556 S
C4 H21 0.930 . S
C5 N1 1.385 1_554 S
C5 C4 1.351 1_554 S
C5 H10 0.930 . S
O6 Cu0 1.973 1_656 S
O6 C16 1.282 1_655 S
C7 O8 1.261 . S
C7 O20 1.251 . S
O8 C7 1.261 . S
H9 C3 0.927 . S
H10 C5 0.930 . S
N11 Cu0 1.985 . S
N11 C13 1.335 . S
N11 C14 1.390 . S
N12 C13 1.345 . S
N12 C15 1.336 . S
C13 N11 1.335 . S
C13 N12 1.345 . S
C13 H18 0.930 . S
C14 N11 1.390 . S
C14 C15 1.346 . S
C14 H19 0.961 . S
C15 N12 1.336 . S
C15 C14 1.346 . S
C15 H22 0.929 . S
C16 O6 1.282 1_455 S
C16 O17 1.216 . S
O17 C16 1.216 . S
H18 C13 0.930 . S
H19 C14 0.961 . S
O20 Cu0 1.959 . S
O20 C7 1.251 . S
H21 C4 0.930 . S
H22 C15 0.929 . S
Cu23 N24 1.999 1_545 S
Cu23 O29 1.974 1_545 S
Cu23 N34 1.985 . S
Cu23 O43 1.959 . S
N24 Cu23 1.999 1_565 S
N24 C26 1.263 . S
N24 C28 1.389 . S
N25 C26 1.358 . S
N25 C27 1.400 . S
C26 N24 1.263 . S
C26 N25 1.358 . S
C26 H32 0.930 . S
C27 N25 1.400 . S
C27 C28 1.351 . S
C27 H44 0.930 . S
C28 N24 1.389 . S
C28 C27 1.351 . S
C28 H33 0.930 . S
O29 Cu23 1.974 1_565 S
O29 C39 1.282 . S
C30 O31 1.261 . S
C30 O43 1.251 . S
O31 C30 1.261 . S
H32 C26 0.930 . S
H33 C28 0.930 . S
N34 Cu23 1.985 . S
N34 C36 1.335 . S
N34 C37 1.390 . S
N35 C36 1.345 . S
N35 C38 1.336 . S
C36 N34 1.335 . S
C36 N35 1.345 . S
C36 H41 0.930 . S
C37 N34 1.390 . S
C37 C38 1.346 . S
C37 H42 0.930 . S
C38 N35 1.336 . S
C38 C37 1.346 . S
C38 H45 0.929 . S
C39 O29 1.282 . S
C39 O40 1.216 1_565 S
O40 C39 1.216 1_545 S
H41 C36 0.930 . S
H42 C37 0.930 . S
O43 Cu23 1.959 . S
O43 C30 1.251 . S
H44 C27 0.930 . S
H45 C38 0.929 . S
Cu46 N47 1.999 1_554 S
Cu46 O52 1.974 1_554 S
Cu46 N57 1.985 . S
Cu46 O66 1.959 . S
N47 Cu46 1.999 1_556 S
N47 C49 1.263 . S
N47 C51 1.389 . S
N48 C49 1.358 . S
N48 C50 1.400 . S
C49 N47 1.263 . S
C49 N48 1.358 . S
C49 H55 0.930 . S
C50 N48 1.400 . S
C50 C51 1.351 . S
C50 H67 0.930 . S
C51 N47 1.389 . S
C51 C50 1.351 . S
C51 H56 0.930 . S
O52 Cu46 1.974 1_556 S
O52 C62 1.282 . S
C53 O54 1.261 . S
C53 O66 1.251 . S
O54 C53 1.261 . S
H55 C49 0.930 . S
H56 C51 0.930 . S
N57 Cu46 1.985 . S
N57 C59 1.335 . S
N57 C60 1.390 . S
N58 C59 1.345 . S
N58 C61 1.336 . S
C59 N57 1.335 . S
C59 N58 1.345 . S
C59 H64 0.930 . S
C60 N57 1.390 . S
C60 C61 1.346 . S
C60 H65 0.930 . S
C61 N58 1.336 . S
C61 C60 1.346 . S
C61 H68 0.929 . S
C62 O52 1.282 . S
C62 O63 1.216 1_556 S
O63 C62 1.216 1_554 S
H64 C59 0.930 . S
H65 C60 0.930 . S
O66 Cu46 1.959 . S
O66 C53 1.251 . S
H67 C50 0.930 . S
H68 C61 0.929 . S
Cu69 N70 1.999 1_655 S
Cu69 O75 1.974 1_655 S
Cu69 N80 1.985 . S
Cu69 O89 1.959 . S
N70 Cu69 1.999 1_455 S
N70 C72 1.263 . S
N70 C74 1.389 1_455 S
N71 C72 1.358 . S
N71 C73 1.400 . S
C72 N70 1.263 . S
C72 N71 1.358 . S
C72 H78 0.930 . S
C73 N71 1.400 . S
C73 C74 1.351 1_455 S
C73 H90 0.930 1_455 S
C74 N70 1.389 1_655 S
C74 C73 1.351 1_655 S
C74 H79 0.930 . S
O75 Cu69 1.974 1_455 S
O75 C85 1.282 . S
C76 O77 1.261 1_655 S
C76 O89 1.251 . S
O77 C76 1.261 1_455 S
H78 C72 0.930 . S
H79 C74 0.930 . S
N80 Cu69 1.985 . S
N80 C82 1.335 . S
N80 C83 1.390 . S
N81 C82 1.345 . S
N81 C84 1.336 . S
C82 N80 1.335 . S
C82 N81 1.345 . S
C82 H87 0.930 . S
C83 N80 1.390 . S
C83 C84 1.346 . S
C83 H88 0.930 1_655 S
C84 N81 1.336 . S
C84 C83 1.346 . S
C84 H91 0.929 . S
C85 O75 1.282 . S
C85 O86 1.216 . S
O86 C85 1.216 . S
H87 C82 0.930 . S
H88 C83 0.930 1_455 S
O89 Cu69 1.959 . S
O89 C76 1.251 . S
H90 C73 0.930 1_655 S
H91 C84 0.929 . S
Cu92 N93 1.999 . S
Cu92 O98 1.974 1_554 S
Cu92 N103 1.985 1_545 S
Cu92 O112 1.959 1_545 S
N93 Cu92 1.999 . S
N93 C95 1.263 1_554 S
N93 C97 1.389 . S
N94 C95 1.358 . S
N94 C96 1.400 . S
C95 N93 1.263 1_556 S
C95 N94 1.358 . S
C95 H101 0.930 . S
C96 N94 1.400 . S
C96 C97 1.351 1_556 S
C96 H113 0.930 . S
C97 N93 1.389 . S
C97 C96 1.351 1_554 S
C97 H102 0.930 . S
O98 Cu92 1.974 1_556 S
O98 C108 1.282 . S
C99 O100 1.261 . S
C99 O112 1.251 . S
O100 C99 1.261 . S
H101 C95 0.930 . S
H102 C97 0.930 . S
N103 Cu92 1.985 1_565 S
N103 C105 1.335 . S
N103 C106 1.390 . S
N104 C105 1.345 . S
N104 C107 1.336 . S
C105 N103 1.335 . S
C105 N104 1.345 . S
C105 H110 0.930 . S
C106 N103 1.390 . S
C106 C107 1.346 . S
C106 H111 0.930 . S
C107 N104 1.336 . S
C107 C106 1.346 . S
C107 H114 0.929 . S
C108 O98 1.282 . S
C108 O109 1.216 1_545 S
O109 C108 1.216 1_565 S
H110 C105 0.930 . S
H111 C106 0.930 . S
O112 Cu92 1.959 1_565 S
O112 C99 1.251 . S
H113 C96 0.930 . S
H114 C107 0.929 . S
Cu115 N116 1.999 . S
Cu115 O121 1.974 . S
Cu115 N126 1.985 . S
Cu115 O135 1.959 . S
N116 Cu115 1.999 . S
N116 C118 1.263 . S
N116 C120 1.389 . S
N117 C118 1.358 . S
N117 C119 1.400 . S
C118 N116 1.263 . S
C118 N117 1.358 . S
C118 H124 0.930 . S
C119 N117 1.400 . S
C119 C120 1.351 . S
C119 H136 0.930 . S
C120 N116 1.389 . S
C120 C119 1.351 . S
C120 H125 0.930 . S
O121 Cu115 1.974 . S
O121 C131 1.282 . S
C122 O123 1.261 . S
C122 O135 1.251 . S
O123 C122 1.261 . S
H124 C118 0.930 . S
H125 C120 0.930 . S
N126 Cu115 1.985 . S
N126 C128 1.335 . S
N126 C129 1.390 . S
N127 C128 1.345 . S
N127 C130 1.336 . S
C128 N126 1.335 . S
C128 N127 1.345 . S
C128 H133 0.930 . S
C129 N126 1.390 . S
C129 C130 1.346 . S
C129 H134 0.930 . S
C130 N127 1.336 . S
C130 C129 1.346 . S
C130 H137 0.929 . S
C131 O121 1.282 . S
C131 O132 1.216 . S
O132 C131 1.216 . S
H133 C128 0.930 . S
H134 C129 0.930 . S
O135 Cu115 1.959 . S
O135 C122 1.251 . S
H136 C119 0.930 . S
H137 C130 0.929 . S
Mg138 O145 2.141 . S
Mg138 O146 2.048 . S
Mg138 O147 2.048 . S
Mg138 O150 2.141 . S
C139 O140 1.313 . S
C139 O146 1.195 . S
O140 C139 1.313 . S
C141 O142 1.245 . S
C141 O150 1.289 . S
O142 C141 1.245 . S
C143 O144 1.245 . S
C143 O145 1.289 . S
O144 C143 1.245 . S
O145 Mg138 2.141 . S
O145 C143 1.289 . S
O146 Mg138 2.048 . S
O146 C139 1.195 . S
O147 Mg138 2.048 . S
O147 C148 1.195 . S
C148 O147 1.195 . S
C148 O149 1.313 . S
O149 C148 1.313 . S
O150 Mg138 2.141 . S
O150 C141 1.289 . S
Mg151 O158 2.141 . S
Mg151 O159 2.048 . S
Mg151 O160 2.048 . S
Mg151 O163 2.141 . S
C152 O153 1.313 . S
C152 O159 1.195 . S
O153 C152 1.313 . S
C154 O155 1.245 . S
C154 O163 1.289 . S
O155 C154 1.245 . S
C156 O157 1.245 . S
C156 O158 1.289 . S
O157 C156 1.245 . S
O158 Mg151 2.141 . S
O158 C156 1.289 . S
O159 Mg151 2.048 . S
O159 C152 1.195 . S
O160 Mg151 2.048 . S
O160 C161 1.195 . S
C161 O160 1.195 . S
C161 O162 1.313 . S
O162 C161 1.313 . S
O163 Mg151 2.141 . S
O163 C154 1.289 . S
Mg164 O171 2.141 . S
Mg164 O172 2.048 . S
Mg164 O173 2.048 . S
Mg164 O176 2.141 . S
C165 O166 1.313 . S
C165 O172 1.195 . S
O166 C165 1.313 . S
C167 O168 1.245 . S
C167 O176 1.289 . S
O168 C167 1.245 . S
C169 O170 1.245 . S
C169 O171 1.289 . S
O170 C169 1.245 . S
O171 Mg164 2.141 . S
O171 C169 1.289 . S
O172 Mg164 2.048 . S
O172 C165 1.195 . S
O173 Mg164 2.048 . S
O173 C174 1.195 . S
C174 O173 1.195 . S
C174 O175 1.313 . S
O175 C174 1.313 . S
O176 Mg164 2.141 . S
O176 C167 1.289 . S
Mg177 O184 2.141 . S
Mg177 O185 2.048 . S
Mg177 O186 2.048 . S
Mg177 O189 2.141 . S
C178 O179 1.313 . S
C178 O185 1.195 . S
O179 C178 1.313 . S
C180 O181 1.245 . S
C180 O189 1.289 . S
O181 C180 1.245 . S
C182 O183 1.245 . S
C182 O184 1.289 . S
O183 C182 1.245 . S
O184 Mg177 2.141 . S
O184 C182 1.289 . S
O185 Mg177 2.048 . S
O185 C178 1.195 . S
O186 Mg177 2.048 . S
O186 C187 1.195 . S
C187 O186 1.195 . S
C187 O188 1.313 . S
O188 C187 1.313 . S
O189 Mg177 2.141 . S
O189 C180 1.289 . S
Mg190 O197 2.141 . S
Mg190 O198 2.048 . S
Mg190 O199 2.048 . S
Mg190 O202 2.141 . S
C191 O192 1.313 . S
C191 O198 1.195 . S
O192 C191 1.313 . S
C193 O194 1.245 . S
C193 O202 1.289 . S
O194 C193 1.245 . S
C195 O196 1.245 . S
C195 O197 1.289 . S
O196 C195 1.245 . S
O197 Mg190 2.141 . S
O197 C195 1.289 . S
O198 Mg190 2.048 . S
O198 C191 1.195 . S
O199 Mg190 2.048 . S
O199 C200 1.195 . S
C200 O199 1.195 . S
C200 O201 1.313 . S
O201 C200 1.313 . S
O202 Mg190 2.141 . S
O202 C193 1.289 . S
Mg203 O210 2.141 . S
Mg203 O211 2.048 . S
Mg203 O212 2.048 . S
Mg203 O215 2.141 . S
C204 O205 1.313 . S
C204 O211 1.195 . S
O205 C204 1.313 . S
C206 O207 1.245 . S
C206 O215 1.289 . S
O207 C206 1.245 . S
C208 O209 1.245 . S
C208 O210 1.289 . S
O209 C208 1.245 . S
O210 Mg203 2.141 . S
O210 C208 1.289 . S
O211 Mg203 2.048 . S
O211 C204 1.195 . S
O212 Mg203 2.048 . S
O212 C213 1.195 . S
C213 O212 1.195 . S
C213 O214 1.313 . S
O214 C213 1.313 . S
O215 Mg203 2.141 . S
O215 C206 1.289 . S
H216 C224 0.929 . S
H217 C226 0.930 . S
H218 C228 0.930 . S
H219 C231 0.929 . S
H220 C234 0.930 . S
H221 C236 0.960 . S
H222 C236 0.960 . S
H223 C236 0.960 . S
C224 H216 0.929 . S
C224 C225 1.377 . S
C224 C226 1.384 . S
C225 C224 1.377 . S
C225 C231 1.390 . S
C226 H217 0.930 . S
C226 C224 1.384 . S
C226 C227 1.372 . S
C227 C226 1.372 . S
C227 C228 1.400 . S
C227 C232 1.490 . S
C228 H218 0.930 . S
C228 C227 1.400 . S
C228 C231 1.386 . S
H229 C245 0.930 . S
H230 C246 0.931 . S
C231 H219 0.929 . S
C231 C225 1.390 . S
C231 C228 1.386 . S
C232 C227 1.490 . S
C232 C234 1.395 . S
C232 C235 1.403 . S
H233 C239 0.930 . S
C234 H220 0.930 . S
C234 C232 1.395 . S
C234 C237 1.403 . S
C235 C232 1.403 . S
C235 C236 1.524 . S
C235 C239 1.400 . S
C236 H221 0.960 . S
C236 H222 0.960 . S
C236 H223 0.960 . S
C236 C235 1.524 . S
C237 C234 1.403 . S
C237 C238 1.392 . S
C237 C241 1.495 . S
C238 C237 1.392 . S
C238 C239 1.385 . S
C238 C240 1.478 . S
C239 H233 0.930 . S
C239 C235 1.400 . S
C239 C238 1.385 . S
C240 C238 1.478 . S
C240 C242 1.381 . S
C240 C246 1.383 . S
C241 C237 1.495 . S
C241 H247 0.959 . S
C241 H248 0.961 . S
C241 H249 0.960 . S
C242 C240 1.381 . S
C242 C243 1.394 . S
C242 H250 0.930 . S
C243 C242 1.394 . S
C243 C244 1.383 . S
C243 H251 0.929 . S
C244 C243 1.383 . S
C244 C245 1.377 . S
C245 H229 0.930 . S
C245 C244 1.377 . S
C245 C246 1.379 . S
C246 H230 0.931 . S
C246 C240 1.383 . S
C246 C245 1.379 . S
H247 C241 0.959 . S
H248 C241 0.961 . S
H249 C241 0.960 . S
H250 C242 0.930 . S
H251 C243 0.929 . S
H252 C260 0.929 . S
H253 C262 0.930 . S
H254 C264 0.930 . S
H255 C267 0.929 . S
H256 C270 0.930 . S
H257 C272 0.960 . S
H258 C272 0.960 . S
H259 C272 0.960 . S
C260 H252 0.929 . S
C260 C261 1.377 . S
C260 C262 1.384 . S
C261 C260 1.377 . S
C261 C267 1.390 . S
C262 H253 0.930 . S
C262 C260 1.384 . S
C262 C263 1.372 . S
C263 C262 1.372 . S
C263 C264 1.400 . S
C263 C268 1.490 . S
C264 H254 0.930 . S
C264 C263 1.400 . S
C264 C267 1.386 . S
H265 C281 0.930 . S
H266 C282 0.931 . S
C267 H255 0.929 . S
C267 C261 1.390 . S
C267 C264 1.386 . S
C268 C263 1.490 . S
C268 C270 1.395 . S
C268 C271 1.403 . S
H269 C275 0.930 . S
C270 H256 0.930 . S
C270 C268 1.395 . S
C270 C273 1.403 . S
C271 C268 1.403 . S
C271 C272 1.524 . S
C271 C275 1.400 . S
C272 H257 0.960 . S
C272 H258 0.960 . S
C272 H259 0.960 . S
C272 C271 1.524 . S
C273 C270 1.403 . S
C273 C274 1.392 . S
C273 C277 1.495 . S
C274 C273 1.392 . S
C274 C275 1.385 . S
C274 C276 1.478 . S
C275 H269 0.930 . S
C275 C271 1.400 . S
C275 C274 1.385 . S
C276 C274 1.478 . S
C276 C278 1.381 . S
C276 C282 1.383 . S
C277 C273 1.495 . S
C277 H283 0.959 . S
C277 H284 0.961 . S
C277 H285 0.960 . S
C278 C276 1.381 . S
C278 C279 1.394 . S
C278 H286 0.930 . S
C279 C278 1.394 . S
C279 C280 1.383 . S
C279 H287 0.929 . S
C280 C279 1.383 . S
C280 C281 1.377 . S
C281 H265 0.930 . S
C281 C280 1.377 . S
C281 C282 1.379 . S
C282 H266 0.931 . S
C282 C276 1.383 . S
C282 C281 1.379 . S
H283 C277 0.959 . S
H284 C277 0.961 . S
H285 C277 0.960 . S
H286 C278 0.930 . S
H287 C279 0.929 . S
H288 C296 0.929 . S
H289 C298 0.930 . S
H290 C300 0.930 . S
H291 C303 0.929 . S
H292 C306 0.930 . S
H293 C308 0.960 . S
H294 C308 0.960 . S
H295 C308 0.960 . S
C296 H288 0.929 . S
C296 C297 1.377 . S
C296 C298 1.384 . S
C297 C296 1.377 . S
C297 C303 1.390 . S
C298 H289 0.930 . S
C298 C296 1.384 . S
C298 C299 1.372 . S
C299 C298 1.372 . S
C299 C300 1.400 . S
C299 C304 1.490 . S
C300 H290 0.930 . S
C300 C299 1.400 . S
C300 C303 1.386 . S
H301 C317 0.930 . S
H302 C318 0.931 . S
C303 H291 0.929 . S
C303 C297 1.390 . S
C303 C300 1.386 . S
C304 C299 1.490 . S
C304 C306 1.395 . S
C304 C307 1.403 . S
H305 C311 0.930 . S
C306 H292 0.930 . S
C306 C304 1.395 . S
C306 C309 1.403 . S
C307 C304 1.403 . S
C307 C308 1.524 . S
C307 C311 1.400 . S
C308 H293 0.960 . S
C308 H294 0.960 . S
C308 H295 0.960 . S
C308 C307 1.524 . S
C309 C306 1.403 . S
C309 C310 1.392 . S
C309 C313 1.495 . S
C310 C309 1.392 . S
C310 C311 1.385 . S
C310 C312 1.478 . S
C311 H305 0.930 . S
C311 C307 1.400 . S
C311 C310 1.385 . S
C312 C310 1.478 . S
C312 C314 1.381 . S
C312 C318 1.383 . S
C313 C309 1.495 . S
C313 H319 0.959 . S
C313 H320 0.961 . S
C313 H321 0.960 . S
C314 C312 1.381 . S
C314 C315 1.394 . S
C314 H322 0.930 . S
C315 C314 1.394 . S
C315 C316 1.383 . S
C315 H323 0.929 . S
C316 C315 1.383 . S
C316 C317 1.377 . S
C317 H301 0.930 . S
C317 C316 1.377 . S
C317 C318 1.379 . S
C318 H302 0.931 . S
C318 C312 1.383 . S
C318 C317 1.379 . S
H319 C313 0.959 . S
H320 C313 0.961 . S
H321 C313 0.960 . S
H322 C314 0.930 . S
H323 C315 0.929 . S
H324 C332 0.929 . S
H325 C334 0.930 . S
H326 C336 0.930 . S
H327 C339 0.929 . S
H328 C342 0.930 . S
H329 C344 0.960 . S
H330 C344 0.960 . S
H331 C344 0.960 . S
C332 H324 0.929 . S
C332 C333 1.377 . S
C332 C334 1.384 . S
C333 C332 1.377 . S
C333 C339 1.390 . S
C334 H325 0.930 . S
C334 C332 1.384 . S
C334 C335 1.372 . S
C335 C334 1.372 . S
C335 C336 1.400 . S
C335 C340 1.490 . S
C336 H326 0.930 . S
C336 C335 1.400 . S
C336 C339 1.386 . S
H337 C353 0.930 . S
H338 C354 0.931 . S
C339 H327 0.929 . S
C339 C333 1.390 . S
C339 C336 1.386 . S
C340 C335 1.490 . S
C340 C342 1.395 . S
C340 C343 1.403 . S
H341 C347 0.930 . S
C342 H328 0.930 . S
C342 C340 1.395 . S
C342 C345 1.403 . S
C343 C340 1.403 . S
C343 C344 1.524 . S
C343 C347 1.400 . S
C344 H329 0.960 . S
C344 H330 0.960 . S
C344 H331 0.960 . S
C344 C343 1.524 . S
C345 C342 1.403 . S
C345 C346 1.392 . S
C345 C349 1.495 . S
C346 C345 1.392 . S
C346 C347 1.385 . S
C346 C348 1.478 . S
C347 H341 0.930 . S
C347 C343 1.400 . S
C347 C346 1.385 . S
C348 C346 1.478 . S
C348 C350 1.381 . S
C348 C354 1.383 . S
C349 C345 1.495 . S
C349 H355 0.959 . S
C349 H356 0.961 . S
C349 H357 0.960 . S
C350 C348 1.381 . S
C350 C351 1.394 . S
C350 H358 0.930 . S
C351 C350 1.394 . S
C351 C352 1.383 . S
C351 H359 0.929 . S
C352 C351 1.383 . S
C352 C353 1.377 . S
C353 H337 0.930 . S
C353 C352 1.377 . S
C353 C354 1.379 . S
C354 H338 0.931 . S
C354 C348 1.383 . S
C354 C353 1.379 . S
H355 C349 0.959 . S
H356 C349 0.961 . S
H357 C349 0.960 . S
H358 C350 0.930 . S
H359 C351 0.929 . S
H360 C368 0.929 . S
H361 C370 0.930 . S
H362 C372 0.930 . S
H363 C375 0.929 . S
H364 C378 0.930 . S
H365 C380 0.960 . S
H366 C380 0.960 . S
H367 C380 0.960 . S
C368 H360 0.929 . S
C368 C369 1.377 . S
C368 C370 1.384 . S
C369 C368 1.377 . S
C369 C375 1.390 . S
C370 H361 0.930 . S
C370 C368 1.384 . S
C370 C371 1.372 . S
C371 C370 1.372 . S
C371 C372 1.400 . S
C371 C376 1.490 . S
C372 H362 0.930 . S
C372 C371 1.400 . S
C372 C375 1.386 . S
H373 C389 0.930 . S
H374 C390 0.931 . S
C375 H363 0.929 . S
C375 C369 1.390 . S
C375 C372 1.386 . S
C376 C371 1.490 . S
C376 C378 1.395 . S
C376 C379 1.403 . S
H377 C383 0.930 . S
C378 H364 0.930 . S
C378 C376 1.395 . S
C378 C381 1.403 . S
C379 C376 1.403 . S
C379 C380 1.524 . S
C379 C383 1.400 . S
C380 H365 0.960 . S
C380 H366 0.960 . S
C380 H367 0.960 . S
C380 C379 1.524 . S
C381 C378 1.403 . S
C381 C382 1.392 . S
C381 C385 1.495 . S
C382 C381 1.392 . S
C382 C383 1.385 . S
C382 C384 1.478 . S
C383 H377 0.930 . S
C383 C379 1.400 . S
C383 C382 1.385 . S
C384 C382 1.478 . S
C384 C386 1.381 . S
C384 C390 1.383 . S
C385 C381 1.495 . S
C385 H391 0.959 . S
C385 H392 0.961 . S
C385 H393 0.960 . S
C386 C384 1.381 . S
C386 C387 1.394 . S
C386 H394 0.930 . S
C387 C386 1.394 . S
C387 C388 1.383 . S
C387 H395 0.929 . S
C388 C387 1.383 . S
C388 C389 1.377 . S
C389 H373 0.930 . S
C389 C388 1.377 . S
C389 C390 1.379 . S
C390 H374 0.931 . S
C390 C384 1.383 . S
C390 C389 1.379 . S
H391 C385 0.959 . S
H392 C385 0.961 . S
H393 C385 0.960 . S
H394 C386 0.930 . S
H395 C387 0.929 . S
H396 C404 0.929 . S
H397 C406 0.930 . S
H398 C408 0.930 . S
H399 C411 0.929 . S
H400 C414 0.930 . S
H401 C416 0.960 . S
H402 C416 0.960 . S
H403 C416 0.960 . S
C404 H396 0.929 . S
C404 C405 1.377 . S
C404 C406 1.384 . S
C405 C404 1.377 . S
C405 C411 1.390 . S
C406 H397 0.930 . S
C406 C404 1.384 . S
C406 C407 1.372 . S
C407 C406 1.372 . S
C407 C408 1.400 . S
C407 C412 1.490 . S
C408 H398 0.930 . S
C408 C407 1.400 . S
C408 C411 1.386 . S
H409 C425 0.930 . S
H410 C426 0.931 . S
C411 H399 0.929 . S
C411 C405 1.390 . S
C411 C408 1.386 . S
C412 C407 1.490 . S
C412 C414 1.395 . S
C412 C415 1.403 . S
H413 C419 0.930 . S
C414 H400 0.930 . S
C414 C412 1.395 . S
C414 C417 1.403 . S
C415 C412 1.403 . S
C415 C416 1.524 . S
C415 C419 1.400 . S
C416 H401 0.960 . S
C416 H402 0.960 . S
C416 H403 0.960 . S
C416 C415 1.524 . S
C417 C414 1.403 . S
C417 C418 1.392 . S
C417 C421 1.495 . S
C418 C417 1.392 . S
C418 C419 1.385 . S
C418 C420 1.478 . S
C419 H413 0.930 . S
C419 C415 1.400 . S
C419 C418 1.385 . S
C420 C418 1.478 . S
C420 C422 1.381 . S
C420 C426 1.383 . S
C421 C417 1.495 . S
C421 H427 0.959 . S
C421 H428 0.961 . S
C421 H429 0.960 . S
C422 C420 1.381 . S
C422 C423 1.394 . S
C422 H430 0.930 . S
C423 C422 1.394 . S
C423 C424 1.383 . S
C423 H431 0.929 . S
C424 C423 1.383 . S
C424 C425 1.377 . S
C425 H409 0.930 . S
C425 C424 1.377 . S
C425 C426 1.379 . S
C426 H410 0.931 . S
C426 C420 1.383 . S
C426 C425 1.379 . S
H427 C421 0.959 . S
H428 C421 0.961 . S
H429 C421 0.960 . S
H430 C422 0.930 . S
H431 C423 0.929 . S
H432 C440 0.929 . S
H433 C442 0.930 . S
H434 C444 0.930 . S
H435 C447 0.929 . S
H436 C450 0.930 . S
H437 C452 0.960 . S
H438 C452 0.960 . S
H439 C452 0.960 . S
C440 H432 0.929 . S
C440 C441 1.377 . S
C440 C442 1.384 . S
C441 C440 1.377 . S
C441 C447 1.390 . S
C442 H433 0.930 . S
C442 C440 1.384 . S
C442 C443 1.372 . S
C443 C442 1.372 . S
C443 C444 1.400 . S
C443 C448 1.490 . S
C444 H434 0.930 . S
C444 C443 1.400 . S
C444 C447 1.386 . S
H445 C461 0.930 . S
H446 C462 0.931 . S
C447 H435 0.929 . S
C447 C441 1.390 . S
C447 C444 1.386 . S
C448 C443 1.490 . S
C448 C450 1.395 . S
C448 C451 1.403 . S
H449 C455 0.930 . S
C450 H436 0.930 . S
C450 C448 1.395 . S
C450 C453 1.403 . S
C451 C448 1.403 . S
C451 C452 1.524 . S
C451 C455 1.400 . S
C452 H437 0.960 . S
C452 H438 0.960 . S
C452 H439 0.960 . S
C452 C451 1.524 . S
C453 C450 1.403 . S
C453 C454 1.392 . S
C453 C457 1.495 . S
C454 C453 1.392 . S
C454 C455 1.385 . S
C454 C456 1.478 . S
C455 H449 0.930 . S
C455 C451 1.400 . S
C455 C454 1.385 . S
C456 C454 1.478 . S
C456 C458 1.381 . S
C456 C462 1.383 . S
C457 C453 1.495 . S
C457 H463 0.959 . S
C457 H464 0.961 . S
C457 H465 0.960 . S
C458 C456 1.381 . S
C458 C459 1.394 . S
C458 H466 0.930 . S
C459 C458 1.394 . S
C459 C460 1.383 . S
C459 H467 0.929 . S
C460 C459 1.383 . S
C460 C461 1.377 . S
C461 H445 0.930 . S
C461 C460 1.377 . S
C461 C462 1.379 . S
C462 H446 0.931 . S
C462 C456 1.383 . S
C462 C461 1.379 . S
H463 C457 0.959 . S
H464 C457 0.961 . S
H465 C457 0.960 . S
H466 C458 0.930 . S
H467 C459 0.929 . S
H468 C476 0.929 . S
H469 C478 0.930 . S
H470 C480 0.930 . S
H471 C483 0.929 . S
H472 C486 0.930 . S
H473 C488 0.960 . S
H474 C488 0.960 . S
H475 C488 0.960 . S
C476 H468 0.929 . S
C476 C477 1.377 . S
C476 C478 1.384 . S
C477 C476 1.377 . S
C477 C483 1.390 . S
C478 H469 0.930 . S
C478 C476 1.384 . S
C478 C479 1.372 . S
C479 C478 1.372 . S
C479 C480 1.400 . S
C479 C484 1.490 . S
C480 H470 0.930 . S
C480 C479 1.400 . S
C480 C483 1.386 . S
H481 C497 0.930 . S
H482 C498 0.931 . S
C483 H471 0.929 . S
C483 C477 1.390 . S
C483 C480 1.386 . S
C484 C479 1.490 . S
C484 C486 1.395 . S
C484 C487 1.403 . S
H485 C491 0.930 . S
C486 H472 0.930 . S
C486 C484 1.395 . S
C486 C489 1.403 . S
C487 C484 1.403 . S
C487 C488 1.524 . S
C487 C491 1.400 . S
C488 H473 0.960 . S
C488 H474 0.960 . S
C488 H475 0.960 . S
C488 C487 1.524 . S
C489 C486 1.403 . S
C489 C490 1.392 . S
C489 C493 1.495 . S
C490 C489 1.392 . S
C490 C491 1.385 . S
C490 C492 1.478 . S
C491 H485 0.930 . S
C491 C487 1.400 . S
C491 C490 1.385 . S
C492 C490 1.478 . S
C492 C494 1.381 . S
C492 C498 1.383 . S
C493 C489 1.495 . S
C493 H499 0.959 . S
C493 H500 0.961 . S
C493 H501 0.960 . S
C494 C492 1.381 . S
C494 C495 1.394 . S
C494 H502 0.930 . S
C495 C494 1.394 . S
C495 C496 1.383 . S
C495 H503 0.929 . S
C496 C495 1.383 . S
C496 C497 1.377 . S
C497 H481 0.930 . S
C497 C496 1.377 . S
C497 C498 1.379 . S
C498 H482 0.931 . S
C498 C492 1.383 . S
C498 C497 1.379 . S
H499 C493 0.959 . S
H500 C493 0.961 . S
H501 C493 0.960 . S
H502 C494 0.930 . S
H503 C495 0.929 . S
H504 C512 0.929 . S
H505 C514 0.930 . S
H506 C516 0.930 . S
H507 C519 0.929 . S
H508 C522 0.930 . S
H509 C524 0.960 . S
H510 C524 0.960 . S
H511 C524 0.960 . S
C512 H504 0.929 . S
C512 C513 1.377 . S
C512 C514 1.384 . S
C513 C512 1.377 . S
C513 C519 1.390 . S
C514 H505 0.930 . S
C514 C512 1.384 . S
C514 C515 1.372 . S
C515 C514 1.372 . S
C515 C516 1.400 . S
C515 C520 1.490 . S
C516 H506 0.930 . S
C516 C515 1.400 . S
C516 C519 1.386 . S
H517 C533 0.930 . S
H518 C534 0.931 . S
C519 H507 0.929 . S
C519 C513 1.390 . S
C519 C516 1.386 . S
C520 C515 1.490 . S
C520 C522 1.395 . S
C520 C523 1.403 . S
H521 C527 0.930 . S
C522 H508 0.930 . S
C522 C520 1.395 . S
C522 C525 1.403 . S
C523 C520 1.403 . S
C523 C524 1.524 . S
C523 C527 1.400 . S
C524 H509 0.960 . S
C524 H510 0.960 . S
C524 H511 0.960 . S
C524 C523 1.524 . S
C525 C522 1.403 . S
C525 C526 1.392 . S
C525 C529 1.495 . S
C526 C525 1.392 . S
C526 C527 1.385 . S
C526 C528 1.478 . S
C527 H521 0.930 . S
C527 C523 1.400 . S
C527 C526 1.385 . S
C528 C526 1.478 . S
C528 C530 1.381 . S
C528 C534 1.383 . S
C529 C525 1.495 . S
C529 H535 0.959 . S
C529 H536 0.961 . S
C529 H537 0.960 . S
C530 C528 1.381 . S
C530 C531 1.394 . S
C530 H538 0.930 . S
C531 C530 1.394 . S
C531 C532 1.383 . S
C531 H539 0.929 . S
C532 C531 1.383 . S
C532 C533 1.377 . S
C533 H517 0.930 . S
C533 C532 1.377 . S
C533 C534 1.379 . S
C534 H518 0.931 . S
C534 C528 1.383 . S
C534 C533 1.379 . S
H535 C529 0.959 . S
H536 C529 0.961 . S
H537 C529 0.960 . S
H538 C530 0.930 . S
H539 C531 0.929 . S
H540 C548 0.929 . S
H541 C550 0.930 . S
H542 C552 0.930 . S
H543 C555 0.929 . S
H544 C558 0.930 . S
H545 C560 0.960 . S
H546 C560 0.960 . S
H547 C560 0.960 . S
C548 H540 0.929 . S
C548 C549 1.377 . S
C548 C550 1.384 . S
C549 C548 1.377 . S
C549 C555 1.390 . S
C550 H541 0.930 . S
C550 C548 1.384 . S
C550 C551 1.372 . S
C551 C550 1.372 . S
C551 C552 1.400 . S
C551 C556 1.490 . S
C552 H542 0.930 . S
C552 C551 1.400 . S
C552 C555 1.386 . S
H553 C569 0.930 . S
H554 C570 0.931 . S
C555 H543 0.929 . S
C555 C549 1.390 . S
C555 C552 1.386 . S
C556 C551 1.490 . S
C556 C558 1.395 . S
C556 C559 1.403 . S
H557 C563 0.930 . S
C558 H544 0.930 . S
C558 C556 1.395 . S
C558 C561 1.403 . S
C559 C556 1.403 . S
C559 C560 1.524 . S
C559 C563 1.400 . S
C560 H545 0.960 . S
C560 H546 0.960 . S
C560 H547 0.960 . S
C560 C559 1.524 . S
C561 C558 1.403 . S
C561 C562 1.392 . S
C561 C565 1.495 . S
C562 C561 1.392 . S
C562 C563 1.385 . S
C562 C564 1.478 . S
C563 H557 0.930 . S
C563 C559 1.400 . S
C563 C562 1.385 . S
C564 C562 1.478 . S
C564 C566 1.381 . S
C564 C570 1.383 . S
C565 C561 1.495 . S
C565 H571 0.959 . S
C565 H572 0.961 . S
C565 H573 0.960 . S
C566 C564 1.381 . S
C566 C567 1.394 . S
C566 H574 0.930 . S
C567 C566 1.394 . S
C567 C568 1.383 . S
C567 H575 0.929 . S
C568 C567 1.383 . S
C568 C569 1.377 . S
C569 H553 0.930 . S
C569 C568 1.377 . S
C569 C570 1.379 . S
C570 H554 0.931 . S
C570 C564 1.383 . S
C570 C569 1.379 . S
H571 C565 0.959 . S
H572 C565 0.961 . S
H573 C565 0.960 . S
H574 C566 0.930 . S
H575 C567 0.929 . S
H576 C584 0.929 . S
H577 C586 0.930 . S
H578 C588 0.930 . S
H579 C591 0.929 . S
H580 C594 0.930 . S
H581 C596 0.960 . S
H582 C596 0.960 . S
H583 C596 0.960 . S
C584 H576 0.929 . S
C584 C585 1.377 . S
C584 C586 1.384 . S
C585 C584 1.377 . S
C585 C591 1.390 . S
C586 H577 0.930 . S
C586 C584 1.384 . S
C586 C587 1.372 . S
C587 C586 1.372 . S
C587 C588 1.400 . S
C587 C592 1.490 . S
C588 H578 0.930 . S
C588 C587 1.400 . S
C588 C591 1.386 . S
H589 C605 0.930 . S
H590 C606 0.931 . S
C591 H579 0.929 . S
C591 C585 1.390 . S
C591 C588 1.386 . S
C592 C587 1.490 . S
C592 C594 1.395 . S
C592 C595 1.403 . S
H593 C599 0.930 . S
C594 H580 0.930 . S
C594 C592 1.395 . S
C594 C597 1.403 . S
C595 C592 1.403 . S
C595 C596 1.524 . S
C595 C599 1.400 . S
C596 H581 0.960 . S
C596 H582 0.960 . S
C596 H583 0.960 . S
C596 C595 1.524 . S
C597 C594 1.403 . S
C597 C598 1.392 . S
C597 C601 1.495 . S
C598 C597 1.392 . S
C598 C599 1.385 . S
C598 C600 1.478 . S
C599 H593 0.930 . S
C599 C595 1.400 . S
C599 C598 1.385 . S
C600 C598 1.478 . S
C600 C602 1.381 . S
C600 C606 1.383 . S
C601 C597 1.495 . S
C601 H607 0.959 . S
C601 H608 0.961 . S
C601 H609 0.960 . S
C602 C600 1.381 . S
C602 C603 1.394 . S
C602 H610 0.930 . S
C603 C602 1.394 . S
C603 C604 1.383 . S
C603 H611 0.929 . S
C604 C603 1.383 . S
C604 C605 1.377 . S
C605 H589 0.930 . S
C605 C604 1.377 . S
C605 C606 1.379 . S
C606 H590 0.931 . S
C606 C600 1.383 . S
C606 C605 1.379 . S
H607 C601 0.959 . S
H608 C601 0.961 . S
H609 C601 0.960 . S
H610 C602 0.930 . S
H611 C603 0.929 . S
H612 C620 0.929 . S
H613 C622 0.930 . S
H614 C624 0.930 . S
H615 C627 0.929 . S
H616 C630 0.930 . S
H617 C632 0.960 . S
H618 C632 0.960 . S
H619 C632 0.960 . S
C620 H612 0.929 . S
C620 C621 1.377 . S
C620 C622 1.384 . S
C621 C620 1.377 . S
C621 C627 1.390 . S
C622 H613 0.930 . S
C622 C620 1.384 . S
C622 C623 1.372 . S
C623 C622 1.372 . S
C623 C624 1.400 . S
C623 C628 1.490 . S
C624 H614 0.930 . S
C624 C623 1.400 . S
C624 C627 1.386 . S
H625 C641 0.930 . S
H626 C642 0.931 . S
C627 H615 0.929 . S
C627 C621 1.390 . S
C627 C624 1.386 . S
C628 C623 1.490 . S
C628 C630 1.395 . S
C628 C631 1.403 . S
H629 C635 0.930 . S
C630 H616 0.930 . S
C630 C628 1.395 . S
C630 C633 1.403 . S
C631 C628 1.403 . S
C631 C632 1.524 . S
C631 C635 1.400 . S
C632 H617 0.960 . S
C632 H618 0.960 . S
C632 H619 0.960 . S
C632 C631 1.524 . S
C633 C630 1.403 . S
C633 C634 1.392 . S
C633 C637 1.495 . S
C634 C633 1.392 . S
C634 C635 1.385 . S
C634 C636 1.478 . S
C635 H629 0.930 . S
C635 C631 1.400 . S
C635 C634 1.385 . S
C636 C634 1.478 . S
C636 C638 1.381 . S
C636 C642 1.383 . S
C637 C633 1.495 . S
C637 H643 0.959 . S
C637 H644 0.961 . S
C637 H645 0.960 . S
C638 C636 1.381 . S
C638 C639 1.394 . S
C638 H646 0.930 . S
C639 C638 1.394 . S
C639 C640 1.383 . S
C639 H647 0.929 . S
C640 C639 1.383 . S
C640 C641 1.377 . S
C641 H625 0.930 . S
C641 C640 1.377 . S
C641 C642 1.379 . S
C642 H626 0.931 . S
C642 C636 1.383 . S
C642 C641 1.379 . S
H643 C637 0.959 . S
H644 C637 0.961 . S
H645 C637 0.960 . S
H646 C638 0.930 . S
H647 C639 0.929 . S
H648 C656 0.929 . S
H649 C658 0.930 . S
H650 C660 0.930 . S
H651 C663 0.929 . S
H652 C666 0.930 . S
H653 C668 0.960 . S
H654 C668 0.960 . S
H655 C668 0.960 . S
C656 H648 0.929 . S
C656 C657 1.377 . S
C656 C658 1.384 . S
C657 C656 1.377 . S
C657 C663 1.390 1_655 S
C658 H649 0.930 . S
C658 C656 1.384 . S
C658 C659 1.372 . S
C659 C658 1.372 . S
C659 C660 1.400 . S
C659 C664 1.490 . S
C660 H650 0.930 . S
C660 C659 1.400 . S
C660 C663 1.386 1_655 S
H661 C677 0.930 . S
H662 C678 0.931 . S
C663 H651 0.929 . S
C663 C657 1.390 1_455 S
C663 C660 1.386 1_455 S
C664 C659 1.490 . S
C664 C666 1.395 . S
C664 C667 1.403 . S
H665 C671 0.930 . S
C666 H652 0.930 . S
C666 C664 1.395 . S
C666 C669 1.403 . S
C667 C664 1.403 . S
C667 C668 1.524 . S
C667 C671 1.400 . S
C668 H653 0.960 . S
C668 H654 0.960 . S
C668 H655 0.960 . S
C668 C667 1.524 . S
C669 C666 1.403 . S
C669 C670 1.392 . S
C669 C673 1.495 . S
C670 C669 1.392 . S
C670 C671 1.385 . S
C670 C672 1.478 . S
C671 H665 0.930 . S
C671 C667 1.400 . S
C671 C670 1.385 . S
C672 C670 1.478 . S
C672 C674 1.381 . S
C672 C678 1.383 . S
C673 C669 1.495 . S
C673 H679 0.959 . S
C673 H680 0.961 . S
C673 H681 0.960 . S
C674 C672 1.381 . S
C674 C675 1.394 . S
C674 H682 0.930 . S
C675 C674 1.394 . S
C675 C676 1.383 . S
C675 H683 0.929 . S
C676 C675 1.383 . S
C676 C677 1.377 . S
C677 H661 0.930 . S
C677 C676 1.377 . S
C677 C678 1.379 . S
C678 H662 0.931 . S
C678 C672 1.383 . S
C678 C677 1.379 . S
H679 C673 0.959 . S
H680 C673 0.961 . S
H681 C673 0.960 . S
H682 C674 0.930 . S
H683 C675 0.929 . S
H684 C692 0.929 1_545 S
H685 C694 0.930 . S
H686 C696 0.930 . S
H687 C699 0.929 . S
H688 C702 0.930 . S
H689 C704 0.960 . S
H690 C704 0.960 . S
H691 C704 0.960 . S
C692 H684 0.929 1_565 S
C692 C693 1.377 . S
C692 C694 1.384 . S
C693 C692 1.377 . S
C693 C699 1.390 . S
C694 H685 0.930 . S
C694 C692 1.384 . S
C694 C695 1.372 . S
C695 C694 1.372 . S
C695 C696 1.400 . S
C695 C700 1.490 . S
C696 H686 0.930 . S
C696 C695 1.400 . S
C696 C699 1.386 . S
H697 C713 0.930 . S
H698 C714 0.931 . S
C699 H687 0.929 . S
C699 C693 1.390 . S
C699 C696 1.386 . S
C700 C695 1.490 . S
C700 C702 1.395 . S
C700 C703 1.403 . S
H701 C707 0.930 . S
C702 H688 0.930 . S
C702 C700 1.395 . S
C702 C705 1.403 . S
C703 C700 1.403 . S
C703 C704 1.524 . S
C703 C707 1.400 . S
C704 H689 0.960 . S
C704 H690 0.960 . S
C704 H691 0.960 . S
C704 C703 1.524 . S
C705 C702 1.403 . S
C705 C706 1.392 . S
C705 C709 1.495 . S
C706 C705 1.392 . S
C706 C707 1.385 . S
C706 C708 1.478 . S
C707 H701 0.930 . S
C707 C703 1.400 . S
C707 C706 1.385 . S
C708 C706 1.478 . S
C708 C710 1.381 . S
C708 C714 1.383 . S
C709 C705 1.495 . S
C709 H715 0.959 . S
C709 H716 0.961 . S
C709 H717 0.960 . S
C710 C708 1.381 . S
C710 C711 1.394 . S
C710 H718 0.930 . S
C711 C710 1.394 . S
C711 C712 1.383 . S
C711 H719 0.929 . S
C712 C711 1.383 . S
C712 C713 1.377 . S
C713 H697 0.930 . S
C713 C712 1.377 . S
C713 C714 1.379 . S
C714 H698 0.931 . S
C714 C708 1.383 . S
C714 C713 1.379 . S
H715 C709 0.959 . S
H716 C709 0.961 . S
H717 C709 0.960 . S
H718 C710 0.930 . S
H719 C711 0.929 . S
H720 C728 0.929 . S
H721 C730 0.930 . S
H722 C732 0.930 . S
H723 C735 0.929 . S
H724 C738 0.930 . S
H725 C740 0.960 . S
H726 C740 0.960 . S
H727 C740 0.960 . S
C728 H720 0.929 . S
C728 C729 1.377 . S
C728 C730 1.384 . S
C729 C728 1.377 . S
C729 C735 1.390 . S
C730 H721 0.930 . S
C730 C728 1.384 . S
C730 C731 1.372 . S
C731 C730 1.372 . S
C731 C732 1.400 . S
C731 C736 1.490 . S
C732 H722 0.930 . S
C732 C731 1.400 . S
C732 C735 1.386 . S
H733 C749 0.930 . S
H734 C750 0.931 . S
C735 H723 0.929 . S
C735 C729 1.390 . S
C735 C732 1.386 . S
C736 C731 1.490 . S
C736 C738 1.395 . S
C736 C739 1.403 . S
H737 C743 0.930 . S
C738 H724 0.930 . S
C738 C736 1.395 . S
C738 C741 1.403 . S
C739 C736 1.403 . S
C739 C740 1.524 . S
C739 C743 1.400 . S
C740 H725 0.960 . S
C740 H726 0.960 . S
C740 H727 0.960 . S
C740 C739 1.524 . S
C741 C738 1.403 . S
C741 C742 1.392 . S
C741 C745 1.495 . S
C742 C741 1.392 . S
C742 C743 1.385 . S
C742 C744 1.478 . S
C743 H737 0.930 . S
C743 C739 1.400 . S
C743 C742 1.385 . S
C744 C742 1.478 . S
C744 C746 1.381 . S
C744 C750 1.383 . S
C745 C741 1.495 . S
C745 H751 0.959 . S
C745 H752 0.961 . S
C745 H753 0.960 . S
C746 C744 1.381 . S
C746 C747 1.394 . S
C746 H754 0.930 . S
C747 C746 1.394 . S
C747 C748 1.383 . S
C747 H755 0.929 . S
C748 C747 1.383 . S
C748 C749 1.377 . S
C749 H733 0.930 . S
C749 C748 1.377 . S
C749 C750 1.379 . S
C750 H734 0.931 . S
C750 C744 1.383 . S
C750 C749 1.379 . S
H751 C745 0.959 . S
H752 C745 0.961 . S
H753 C745 0.960 . S
H754 C746 0.930 . S
H755 C747 0.929 . S
H756 C764 0.929 . S
H757 C766 0.930 . S
H758 C768 0.930 . S
H759 C771 0.929 . S
H760 C774 0.930 . S
H761 C776 0.960 . S
H762 C776 0.960 . S
H763 C776 0.960 . S
C764 H756 0.929 . S
C764 C765 1.377 . S
C764 C766 1.384 . S
C765 C764 1.377 . S
C765 C771 1.390 . S
C766 H757 0.930 . S
C766 C764 1.384 . S
C766 C767 1.372 . S
C767 C766 1.372 . S
C767 C768 1.400 . S
C767 C772 1.490 . S
C768 H758 0.930 . S
C768 C767 1.400 . S
C768 C771 1.386 . S
H769 C785 0.930 . S
H770 C786 0.931 . S
C771 H759 0.929 . S
C771 C765 1.390 . S
C771 C768 1.386 . S
C772 C767 1.490 . S
C772 C774 1.395 . S
C772 C775 1.403 . S
H773 C779 0.930 . S
C774 H760 0.930 . S
C774 C772 1.395 . S
C774 C777 1.403 . S
C775 C772 1.403 . S
C775 C776 1.524 . S
C775 C779 1.400 . S
C776 H761 0.960 . S
C776 H762 0.960 . S
C776 H763 0.960 . S
C776 C775 1.524 . S
C777 C774 1.403 . S
C777 C778 1.392 . S
C777 C781 1.495 . S
C778 C777 1.392 . S
C778 C779 1.385 . S
C778 C780 1.478 . S
C779 H773 0.930 . S
C779 C775 1.400 . S
C779 C778 1.385 . S
C780 C778 1.478 . S
C780 C782 1.381 . S
C780 C786 1.383 . S
C781 C777 1.495 . S
C781 H787 0.959 . S
C781 H788 0.961 . S
C781 H789 0.960 . S
C782 C780 1.381 . S
C782 C783 1.394 . S
C782 H790 0.930 . S
C783 C782 1.394 . S
C783 C784 1.383 . S
C783 H791 0.929 . S
C784 C783 1.383 . S
C784 C785 1.377 . S
C785 H769 0.930 . S
C785 C784 1.377 . S
C785 C786 1.379 . S
C786 H770 0.931 . S
C786 C780 1.383 . S
C786 C785 1.379 . S
H787 C781 0.959 . S
H788 C781 0.961 . S
H789 C781 0.960 . S
H790 C782 0.930 . S
H791 C783 0.929 . S
H792 C800 0.929 . S
H793 C802 0.930 . S
H794 C804 0.930 . S
H795 C807 0.929 . S
H796 C810 0.930 . S
H797 C812 0.960 . S
H798 C812 0.960 . S
H799 C812 0.960 . S
C800 H792 0.929 . S
C800 C801 1.377 . S
C800 C802 1.384 . S
C801 C800 1.377 . S
C801 C807 1.390 . S
C802 H793 0.930 . S
C802 C800 1.384 . S
C802 C803 1.372 . S
C803 C802 1.372 . S
C803 C804 1.400 . S
C803 C808 1.490 . S
C804 H794 0.930 . S
C804 C803 1.400 . S
C804 C807 1.386 . S
H805 C821 0.930 . S
H806 C822 0.931 . S
C807 H795 0.929 . S
C807 C801 1.390 . S
C807 C804 1.386 . S
C808 C803 1.490 . S
C808 C810 1.395 . S
C808 C811 1.403 . S
H809 C815 0.930 . S
C810 H796 0.930 . S
C810 C808 1.395 . S
C810 C813 1.403 . S
C811 C808 1.403 . S
C811 C812 1.524 . S
C811 C815 1.400 . S
C812 H797 0.960 . S
C812 H798 0.960 . S
C812 H799 0.960 . S
C812 C811 1.524 . S
C813 C810 1.403 . S
C813 C814 1.392 . S
C813 C817 1.495 . S
C814 C813 1.392 . S
C814 C815 1.385 . S
C814 C816 1.478 . S
C815 H809 0.930 . S
C815 C811 1.400 . S
C815 C814 1.385 . S
C816 C814 1.478 . S
C816 C818 1.381 . S
C816 C822 1.383 . S
C817 C813 1.495 . S
C817 H823 0.959 . S
C817 H824 0.961 . S
C817 H825 0.960 . S
C818 C816 1.381 . S
C818 C819 1.394 . S
C818 H826 0.930 . S
C819 C818 1.394 . S
C819 C820 1.383 . S
C819 H827 0.929 . S
C820 C819 1.383 . S
C820 C821 1.377 . S
C821 H805 0.930 . S
C821 C820 1.377 . S
C821 C822 1.379 . S
C822 H806 0.931 . S
C822 C816 1.383 . S
C822 C821 1.379 . S
H823 C817 0.959 . S
H824 C817 0.961 . S
H825 C817 0.960 . S
H826 C818 0.930 . S
H827 C819 0.929 . S
H828 C836 0.929 . S
H829 C838 0.930 . S
H830 C840 0.930 . S
H831 C843 0.929 . S
H832 C846 0.930 . S
H833 C848 0.960 . S
H834 C848 0.960 . S
H835 C848 0.960 . S
C836 H828 0.929 . S
C836 C837 1.377 . S
C836 C838 1.384 . S
C837 C836 1.377 . S
C837 C843 1.390 . S
C838 H829 0.930 . S
C838 C836 1.384 . S
C838 C839 1.372 . S
C839 C838 1.372 . S
C839 C840 1.400 . S
C839 C844 1.490 . S
C840 H830 0.930 . S
C840 C839 1.400 . S
C840 C843 1.386 . S
H841 C857 0.930 . S
H842 C858 0.931 . S
C843 H831 0.929 . S
C843 C837 1.390 . S
C843 C840 1.386 . S
C844 C839 1.490 . S
C844 C846 1.395 . S
C844 C847 1.403 . S
H845 C851 0.930 . S
C846 H832 0.930 . S
C846 C844 1.395 . S
C846 C849 1.403 . S
C847 C844 1.403 . S
C847 C848 1.524 . S
C847 C851 1.400 . S
C848 H833 0.960 . S
C848 H834 0.960 . S
C848 H835 0.960 . S
C848 C847 1.524 . S
C849 C846 1.403 . S
C849 C850 1.392 . S
C849 C853 1.495 . S
C850 C849 1.392 . S
C850 C851 1.385 . S
C850 C852 1.478 . S
C851 H845 0.930 . S
C851 C847 1.400 . S
C851 C850 1.385 . S
C852 C850 1.478 . S
C852 C854 1.381 . S
C852 C858 1.383 . S
C853 C849 1.495 . S
C853 H859 0.959 . S
C853 H860 0.961 . S
C853 H861 0.960 . S
C854 C852 1.381 . S
C854 C855 1.394 . S
C854 H862 0.930 . S
C855 C854 1.394 . S
C855 C856 1.383 . S
C855 H863 0.929 . S
C856 C855 1.383 . S
C856 C857 1.377 . S
C857 H841 0.930 . S
C857 C856 1.377 . S
C857 C858 1.379 . S
C858 H842 0.931 . S
C858 C852 1.383 . S
C858 C857 1.379 . S
H859 C853 0.959 . S
H860 C853 0.961 . S
H861 C853 0.960 . S
H862 C854 0.930 . S
H863 C855 0.929 . S
H864 C872 0.929 . S
H865 C874 0.930 . S
H866 C876 0.930 . S
H867 C879 0.929 . S
H868 C882 0.930 . S
H869 C884 0.960 . S
H870 C884 0.960 . S
H871 C884 0.960 . S
C872 H864 0.929 . S
C872 C873 1.377 . S
C872 C874 1.384 . S
C873 C872 1.377 . S
C873 C879 1.390 . S
C874 H865 0.930 . S
C874 C872 1.384 . S
C874 C875 1.372 . S
C875 C874 1.372 . S
C875 C876 1.400 . S
C875 C880 1.490 . S
C876 H866 0.930 . S
C876 C875 1.400 . S
C876 C879 1.386 . S
H877 C893 0.930 . S
H878 C894 0.931 . S
C879 H867 0.929 . S
C879 C873 1.390 . S
C879 C876 1.386 . S
C880 C875 1.490 . S
C880 C882 1.395 . S
C880 C883 1.403 . S
H881 C887 0.930 . S
C882 H868 0.930 . S
C882 C880 1.395 . S
C882 C885 1.403 . S
C883 C880 1.403 . S
C883 C884 1.524 . S
C883 C887 1.400 . S
C884 H869 0.960 . S
C884 H870 0.960 . S
C884 H871 0.960 . S
C884 C883 1.524 . S
C885 C882 1.403 . S
C885 C886 1.392 . S
C885 C889 1.495 . S
C886 C885 1.392 . S
C886 C887 1.385 . S
C886 C888 1.478 . S
C887 H881 0.930 . S
C887 C883 1.400 . S
C887 C886 1.385 . S
C888 C886 1.478 . S
C888 C890 1.381 . S
C888 C894 1.383 . S
C889 C885 1.495 . S
C889 H895 0.959 . S
C889 H896 0.961 . S
C889 H897 0.960 . S
C890 C888 1.381 . S
C890 C891 1.394 . S
C890 H898 0.930 . S
C891 C890 1.394 . S
C891 C892 1.383 . S
C891 H899 0.929 . S
C892 C891 1.383 . S
C892 C893 1.377 . S
C893 H877 0.930 . S
C893 C892 1.377 . S
C893 C894 1.379 . S
C894 H878 0.931 . S
C894 C888 1.383 . S
C894 C893 1.379 . S
H895 C889 0.959 . S
H896 C889 0.961 . S
H897 C889 0.960 . S
H898 C890 0.930 . S
H899 C891 0.929 . S
H900 C908 0.929 . S
H901 C910 0.930 . S
H902 C912 0.930 . S
H903 C915 0.929 . S
H904 C918 0.930 . S
H905 C920 0.960 . S
H906 C920 0.960 . S
H907 C920 0.960 . S
C908 H900 0.929 . S
C908 C909 1.377 . S
C908 C910 1.384 . S
C909 C908 1.377 . S
C909 C915 1.390 . S
C910 H901 0.930 . S
C910 C908 1.384 . S
C910 C911 1.372 . S
C911 C910 1.372 . S
C911 C912 1.400 . S
C911 C916 1.490 . S
C912 H902 0.930 . S
C912 C911 1.400 . S
C912 C915 1.386 . S
H913 C929 0.930 . S
H914 C930 0.931 . S
C915 H903 0.929 . S
C915 C909 1.390 . S
C915 C912 1.386 . S
C916 C911 1.490 . S
C916 C918 1.395 . S
C916 C919 1.403 . S
H917 C923 0.930 . S
C918 H904 0.930 . S
C918 C916 1.395 . S
C918 C921 1.403 . S
C919 C916 1.403 . S
C919 C920 1.524 . S
C919 C923 1.400 . S
C920 H905 0.960 . S
C920 H906 0.960 . S
C920 H907 0.960 . S
C920 C919 1.524 . S
C921 C918 1.403 . S
C921 C922 1.392 . S
C921 C925 1.495 . S
C922 C921 1.392 . S
C922 C923 1.385 . S
C922 C924 1.478 . S
C923 H917 0.930 . S
C923 C919 1.400 . S
C923 C922 1.385 . S
C924 C922 1.478 . S
C924 C926 1.381 . S
C924 C930 1.383 . S
C925 C921 1.495 . S
C925 H931 0.959 . S
C925 H932 0.961 . S
C925 H933 0.960 . S
C926 C924 1.381 . S
C926 C927 1.394 . S
C926 H934 0.930 . S
C927 C926 1.394 . S
C927 C928 1.383 . S
C927 H935 0.929 . S
C928 C927 1.383 . S
C928 C929 1.377 . S
C929 H913 0.930 . S
C929 C928 1.377 . S
C929 C930 1.379 . S
C930 H914 0.931 . S
C930 C924 1.383 . S
C930 C929 1.379 . S
H931 C925 0.959 . S
H932 C925 0.961 . S
H933 C925 0.960 . S
H934 C926 0.930 . S
H935 C927 0.929 . S
H936 C944 0.929 . S
H937 C946 0.930 . S
H938 C948 0.930 . S
H939 C951 0.929 . S
H940 C954 0.930 . S
H941 C956 0.960 . S
H942 C956 0.960 . S
H943 C956 0.960 . S
C944 H936 0.929 . S
C944 C945 1.377 . S
C944 C946 1.384 . S
C945 C944 1.377 . S
C945 C951 1.390 . S
C946 H937 0.930 . S
C946 C944 1.384 . S
C946 C947 1.372 . S
C947 C946 1.372 . S
C947 C948 1.400 . S
C947 C952 1.490 . S
C948 H938 0.930 . S
C948 C947 1.400 . S
C948 C951 1.386 . S
H949 C965 0.930 . S
H950 C966 0.931 . S
C951 H939 0.929 . S
C951 C945 1.390 . S
C951 C948 1.386 . S
C952 C947 1.490 . S
C952 C954 1.395 . S
C952 C955 1.403 . S
H953 C959 0.930 . S
C954 H940 0.930 . S
C954 C952 1.395 . S
C954 C957 1.403 . S
C955 C952 1.403 . S
C955 C956 1.524 . S
C955 C959 1.400 . S
C956 H941 0.960 . S
C956 H942 0.960 . S
C956 H943 0.960 . S
C956 C955 1.524 . S
C957 C954 1.403 . S
C957 C958 1.392 . S
C957 C961 1.495 . S
C958 C957 1.392 . S
C958 C959 1.385 . S
C958 C960 1.478 . S
C959 H953 0.930 . S
C959 C955 1.400 . S
C959 C958 1.385 . S
C960 C958 1.478 . S
C960 C962 1.381 . S
C960 C966 1.383 . S
C961 C957 1.495 . S
C961 H967 0.959 . S
C961 H968 0.961 . S
C961 H969 0.960 . S
C962 C960 1.381 . S
C962 C963 1.394 . S
C962 H970 0.930 . S
C963 C962 1.394 . S
C963 C964 1.383 . S
C963 H971 0.929 . S
C964 C963 1.383 . S
C964 C965 1.377 . S
C965 H949 0.930 . S
C965 C964 1.377 . S
C965 C966 1.379 . S
C966 H950 0.931 . S
C966 C960 1.383 . S
C966 C965 1.379 . S
H967 C961 0.959 . S
H968 C961 0.961 . S
H969 C961 0.960 . S
H970 C962 0.930 . S
H971 C963 0.929 . S
H972 C980 0.929 . S
H973 C982 0.930 . S
H974 C984 0.930 . S
H975 C987 0.929 . S
H976 C990 0.930 . S
H977 C992 0.960 . S
H978 C992 0.960 . S
H979 C992 0.960 . S
C980 H972 0.929 . S
C980 C981 1.377 . S
C980 C982 1.384 . S
C981 C980 1.377 . S
C981 C987 1.390 . S
C982 H973 0.930 . S
C982 C980 1.384 . S
C982 C983 1.372 . S
C983 C982 1.372 . S
C983 C984 1.400 . S
C983 C988 1.490 . S
C984 H974 0.930 . S
C984 C983 1.400 . S
C984 C987 1.386 . S
H985 C1001 0.930 . S
H986 C1002 0.931 . S
C987 H975 0.929 . S
C987 C981 1.390 . S
C987 C984 1.386 . S
C988 C983 1.490 . S
C988 C990 1.395 . S
C988 C991 1.403 . S
H989 C995 0.930 . S
C990 H976 0.930 . S
C990 C988 1.395 . S
C990 C993 1.403 . S
C991 C988 1.403 . S
C991 C992 1.524 . S
C991 C995 1.400 . S
C992 H977 0.960 . S
C992 H978 0.960 . S
C992 H979 0.960 . S
C992 C991 1.524 . S
C993 C990 1.403 . S
C993 C994 1.392 . S
C993 C997 1.495 . S
C994 C993 1.392 . S
C994 C995 1.385 . S
C994 C996 1.478 . S
C995 H989 0.930 . S
C995 C991 1.400 . S
C995 C994 1.385 . S
C996 C994 1.478 . S
C996 C998 1.381 . S
C996 C1002 1.383 . S
C997 C993 1.495 . S
C997 H1003 0.959 . S
C997 H1004 0.961 . S
C997 H1005 0.960 . S
C998 C996 1.381 . S
C998 C999 1.394 . S
C998 H1006 0.930 . S
C999 C998 1.394 . S
C999 C1000 1.383 . S
C999 H1007 0.929 . S
C1000 C999 1.383 . S
C1000 C1001 1.377 . S
C1001 H985 0.930 . S
C1001 C1000 1.377 . S
C1001 C1002 1.379 . S
C1002 H986 0.931 . S
C1002 C996 1.383 . S
C1002 C1001 1.379 . S
H1003 C997 0.959 . S
H1004 C997 0.961 . S
H1005 C997 0.960 . S
H1006 C998 0.930 . S
H1007 C999 0.929 . S
H1008 C1016 0.929 . S
H1009 C1018 0.930 . S
H1010 C1020 0.930 . S
H1011 C1023 0.929 . S
H1012 C1026 0.930 . S
H1013 C1028 0.960 . S
H1014 C1028 0.960 . S
H1015 C1028 0.960 . S
C1016 H1008 0.929 . S
C1016 C1017 1.377 . S
C1016 C1018 1.384 . S
C1017 C1016 1.377 . S
C1017 C1023 1.390 . S
C1018 H1009 0.930 . S
C1018 C1016 1.384 . S
C1018 C1019 1.372 . S
C1019 C1018 1.372 . S
C1019 C1020 1.400 . S
C1019 C1024 1.490 . S
C1020 H1010 0.930 . S
C1020 C1019 1.400 . S
C1020 C1023 1.386 . S
H1021 C1037 0.930 . S
H1022 C1038 0.931 . S
C1023 H1011 0.929 . S
C1023 C1017 1.390 . S
C1023 C1020 1.386 . S
C1024 C1019 1.490 . S
C1024 C1026 1.395 . S
C1024 C1027 1.403 . S
H1025 C1031 0.930 . S
C1026 H1012 0.930 . S
C1026 C1024 1.395 . S
C1026 C1029 1.403 . S
C1027 C1024 1.403 . S
C1027 C1028 1.524 . S
C1027 C1031 1.400 . S
C1028 H1013 0.960 . S
C1028 H1014 0.960 . S
C1028 H1015 0.960 . S
C1028 C1027 1.524 . S
C1029 C1026 1.403 . S
C1029 C1030 1.392 . S
C1029 C1033 1.495 . S
C1030 C1029 1.392 . S
C1030 C1031 1.385 . S
C1030 C1032 1.478 . S
C1031 H1025 0.930 . S
C1031 C1027 1.400 . S
C1031 C1030 1.385 . S
C1032 C1030 1.478 . S
C1032 C1034 1.381 . S
C1032 C1038 1.383 . S
C1033 C1029 1.495 . S
C1033 H1039 0.959 . S
C1033 H1040 0.961 . S
C1033 H1041 0.960 . S
C1034 C1032 1.381 . S
C1034 C1035 1.394 . S
C1034 H1042 0.930 . S
C1035 C1034 1.394 . S
C1035 C1036 1.383 . S
C1035 H1043 0.929 . S
C1036 C1035 1.383 . S
C1036 C1037 1.377 . S
C1037 H1021 0.930 . S
C1037 C1036 1.377 . S
C1037 C1038 1.379 . S
C1038 H1022 0.931 . S
C1038 C1032 1.383 . S
C1038 C1037 1.379 . S
H1039 C1033 0.959 . S
H1040 C1033 0.961 . S
H1041 C1033 0.960 . S
H1042 C1034 0.930 . S
H1043 C1035 0.929 . S
H1044 C1052 0.929 . S
H1045 C1054 0.930 . S
H1046 C1056 0.930 . S
H1047 C1059 0.929 . S
H1048 C1062 0.930 . S
H1049 C1064 0.960 . S
H1050 C1064 0.960 . S
H1051 C1064 0.960 . S
C1052 H1044 0.929 . S
C1052 C1053 1.377 . S
C1052 C1054 1.384 . S
C1053 C1052 1.377 . S
C1053 C1059 1.390 . S
C1054 H1045 0.930 . S
C1054 C1052 1.384 . S
C1054 C1055 1.372 . S
C1055 C1054 1.372 . S
C1055 C1056 1.400 . S
C1055 C1060 1.490 . S
C1056 H1046 0.930 . S
C1056 C1055 1.400 . S
C1056 C1059 1.386 . S
H1057 C1073 0.930 . S
H1058 C1074 0.931 . S
C1059 H1047 0.929 . S
C1059 C1053 1.390 . S
C1059 C1056 1.386 . S
C1060 C1055 1.490 . S
C1060 C1062 1.395 . S
C1060 C1063 1.403 . S
H1061 C1067 0.930 . S
C1062 H1048 0.930 . S
C1062 C1060 1.395 . S
C1062 C1065 1.403 . S
C1063 C1060 1.403 . S
C1063 C1064 1.524 . S
C1063 C1067 1.400 . S
C1064 H1049 0.960 . S
C1064 H1050 0.960 . S
C1064 H1051 0.960 . S
C1064 C1063 1.524 . S
C1065 C1062 1.403 . S
C1065 C1066 1.392 . S
C1065 C1069 1.495 . S
C1066 C1065 1.392 . S
C1066 C1067 1.385 . S
C1066 C1068 1.478 . S
C1067 H1061 0.930 . S
C1067 C1063 1.400 . S
C1067 C1066 1.385 . S
C1068 C1066 1.478 . S
C1068 C1070 1.381 . S
C1068 C1074 1.383 . S
C1069 C1065 1.495 . S
C1069 H1075 0.959 . S
C1069 H1076 0.961 . S
C1069 H1077 0.960 . S
C1070 C1068 1.381 . S
C1070 C1071 1.394 . S
C1070 H1078 0.930 . S
C1071 C1070 1.394 . S
C1071 C1072 1.383 . S
C1071 H1079 0.929 . S
C1072 C1071 1.383 . S
C1072 C1073 1.377 . S
C1073 H1057 0.930 . S
C1073 C1072 1.377 . S
C1073 C1074 1.379 . S
C1074 H1058 0.931 . S
C1074 C1068 1.383 . S
C1074 C1073 1.379 . S
H1075 C1069 0.959 . S
H1076 C1069 0.961 . S
H1077 C1069 0.960 . S
H1078 C1070 0.930 . S
H1079 C1071 0.929 . S
C225 C7 1.846 . S
C244 C139 1.835 . S
C261 C30 1.638 . S
C280 C152 1.638 . S
C316 C174 1.634 . S
C297 N58 1.660 . S
C352 C187 1.470 . S
C333 N81 1.455 . S
C388 C200 1.744 . S
C369 C99 1.797 . S
C424 C213 1.419 . S
C405 N127 1.443 . S
C441 N25 1.646 . S
C460 C169 1.587 . S
C477 C62 1.612 . S
C496 C182 1.523 . S
C532 C195 1.713 . S
C513 C85 1.775 . S
C568 C208 1.419 . S
C549 N94 1.440 . S
C585 C131 1.808 . S
C604 C141 1.806 . S
C640 C154 1.505 . S
C621 N2 1.469 . S
C676 C180 1.726 . S
C657 C16 1.786 1_655 S
C693 C39 1.599 . S
C712 C193 1.538 . S
C748 C206 1.632 . S
C729 N48 1.647 . S
C765 N71 1.473 . S
C784 C143 1.503 . S
C801 C108 1.791 . S
C820 C156 1.795 . S
C837 N117 1.433 . S
C856 C167 1.432 . S
C873 N35 1.649 . S
C892 C204 1.605 . S
C928 C148 1.627 . S
C909 C53 1.627 . S
C945 C76 1.823 . S
C964 C161 1.822 . S
C981 N104 1.427 . S
C1000 C165 1.437 . S
C1017 C122 1.783 . S
C1036 C178 1.730 . S
C1053 N12 1.435 . S
C1072 C191 1.422 . S
