# Generated by pormake.
# Topology iac, (4,6)-cn, num edge types: 1
# Building blocks:
#     Node 0, Type 0, BuildingBlock: GALJAG_clean_sbu_0, # of connection points: 4
#     Node 1, Type 0, BuildingBlock: GALJAG_clean_sbu_0, # of connection points: 4
#     Node 2, Type 0, BuildingBlock: GALJAG_clean_sbu_0, # of connection points: 4
#     Node 3, Type 0, BuildingBlock: GALJAG_clean_sbu_0, # of connection points: 4
#     Node 4, Type 0, BuildingBlock: GALJAG_clean_sbu_0, # of connection points: 4
#     Node 5, Type 0, BuildingBlock: GALJAG_clean_sbu_0, # of connection points: 4
#     Node 6, Type 0, BuildingBlock: GALJAG_clean_sbu_0, # of connection points: 4
#     Node 7, Type 0, BuildingBlock: GALJAG_clean_sbu_0, # of connection points: 4
#     Node 8, Type 0, BuildingBlock: GALJAG_clean_sbu_0, # of connection points: 4
#     Node 9, Type 0, BuildingBlock: GALJAG_clean_sbu_0, # of connection points: 4
#     Node 10, Type 0, BuildingBlock: GALJAG_clean_sbu_0, # of connection points: 4
#     Node 11, Type 0, BuildingBlock: GALJAG_clean_sbu_0, # of connection points: 4
#     Node 12, Type 0, BuildingBlock: GALJAG_clean_sbu_0, # of connection points: 4
#     Node 13, Type 0, BuildingBlock: GALJAG_clean_sbu_0, # of connection points: 4
#     Node 14, Type 0, BuildingBlock: GALJAG_clean_sbu_0, # of connection points: 4
#     Node 15, Type 0, BuildingBlock: GALJAG_clean_sbu_0, # of connection points: 4
#     Node 16, Type 0, BuildingBlock: GALJAG_clean_sbu_0, # of connection points: 4
#     Node 17, Type 0, BuildingBlock: GALJAG_clean_sbu_0, # of connection points: 4
#     Node 18, Type 0, BuildingBlock: GALJAG_clean_sbu_0, # of connection points: 4
#     Node 19, Type 0, BuildingBlock: GALJAG_clean_sbu_0, # of connection points: 4
#     Node 20, Type 0, BuildingBlock: GALJAG_clean_sbu_0, # of connection points: 4
#     Node 21, Type 0, BuildingBlock: GALJAG_clean_sbu_0, # of connection points: 4
#     Node 22, Type 0, BuildingBlock: GALJAG_clean_sbu_0, # of connection points: 4
#     Node 23, Type 0, BuildingBlock: GALJAG_clean_sbu_0, # of connection points: 4
#     Node 24, Type 1, BuildingBlock: CIFDUS_clean_sbu_1, # of connection points: 6
#     Node 25, Type 1, BuildingBlock: CIFDUS_clean_sbu_1, # of connection points: 6
#     Node 26, Type 1, BuildingBlock: CIFDUS_clean_sbu_1, # of connection points: 6
#     Node 27, Type 1, BuildingBlock: CIFDUS_clean_sbu_1, # of connection points: 6
#     Node 28, Type 1, BuildingBlock: CIFDUS_clean_sbu_1, # of connection points: 6
#     Node 29, Type 1, BuildingBlock: CIFDUS_clean_sbu_1, # of connection points: 6
#     Node 30, Type 1, BuildingBlock: CIFDUS_clean_sbu_1, # of connection points: 6
#     Node 31, Type 1, BuildingBlock: CIFDUS_clean_sbu_1, # of connection points: 6
#     Node 32, Type 1, BuildingBlock: CIFDUS_clean_sbu_1, # of connection points: 6
#     Node 33, Type 1, BuildingBlock: CIFDUS_clean_sbu_1, # of connection points: 6
#     Node 34, Type 1, BuildingBlock: CIFDUS_clean_sbu_1, # of connection points: 6
#     Node 35, Type 1, BuildingBlock: CIFDUS_clean_sbu_1, # of connection points: 6
#     Node 36, Type 1, BuildingBlock: CIFDUS_clean_sbu_1, # of connection points: 6
#     Node 37, Type 1, BuildingBlock: CIFDUS_clean_sbu_1, # of connection points: 6
#     Node 38, Type 1, BuildingBlock: CIFDUS_clean_sbu_1, # of connection points: 6
#     Node 39, Type 1, BuildingBlock: CIFDUS_clean_sbu_1, # of connection points: 6
#     Edge 40, Type (0, 1), BuildingBlock: ZUJKAS_clean_linker_0, # of connection points: 2
#     Edge 41, Type (0, 1), BuildingBlock: ZUJKAS_clean_linker_0, # of connection points: 2
#     Edge 42, Type (0, 1), BuildingBlock: ZUJKAS_clean_linker_0, # of connection points: 2
#     Edge 43, Type (0, 1), BuildingBlock: ZUJKAS_clean_linker_0, # of connection points: 2
#     Edge 44, Type (0, 1), BuildingBlock: ZUJKAS_clean_linker_0, # of connection points: 2
#     Edge 45, Type (0, 1), BuildingBlock: ZUJKAS_clean_linker_0, # of connection points: 2
#     Edge 46, Type (0, 1), BuildingBlock: ZUJKAS_clean_linker_0, # of connection points: 2
#     Edge 47, Type (0, 1), BuildingBlock: ZUJKAS_clean_linker_0, # of connection points: 2
#     Edge 48, Type (0, 1), BuildingBlock: ZUJKAS_clean_linker_0, # of connection points: 2
#     Edge 49, Type (0, 1), BuildingBlock: ZUJKAS_clean_linker_0, # of connection points: 2
#     Edge 50, Type (0, 1), BuildingBlock: ZUJKAS_clean_linker_0, # of connection points: 2
#     Edge 51, Type (0, 1), BuildingBlock: ZUJKAS_clean_linker_0, # of connection points: 2
#     Edge 52, Type (0, 1), BuildingBlock: ZUJKAS_clean_linker_0, # of connection points: 2
#     Edge 53, Type (0, 1), BuildingBlock: ZUJKAS_clean_linker_0, # of connection points: 2
#     Edge 54, Type (0, 1), BuildingBlock: ZUJKAS_clean_linker_0, # of connection points: 2
#     Edge 55, Type (0, 1), BuildingBlock: ZUJKAS_clean_linker_0, # of connection points: 2
#     Edge 56, Type (0, 1), BuildingBlock: ZUJKAS_clean_linker_0, # of connection points: 2
#     Edge 57, Type (0, 1), BuildingBlock: ZUJKAS_clean_linker_0, # of connection points: 2
#     Edge 58, Type (0, 1), BuildingBlock: ZUJKAS_clean_linker_0, # of connection points: 2
#     Edge 59, Type (0, 1), BuildingBlock: ZUJKAS_clean_linker_0, # of connection points: 2
#     Edge 60, Type (0, 1), BuildingBlock: ZUJKAS_clean_linker_0, # of connection points: 2
#     Edge 61, Type (0, 1), BuildingBlock: ZUJKAS_clean_linker_0, # of connection points: 2
#     Edge 62, Type (0, 1), BuildingBlock: ZUJKAS_clean_linker_0, # of connection points: 2
#     Edge 63, Type (0, 1), BuildingBlock: ZUJKAS_clean_linker_0, # of connection points: 2
#     Edge 64, Type (0, 1), BuildingBlock: ZUJKAS_clean_linker_0, # of connection points: 2
#     Edge 65, Type (0, 1), BuildingBlock: ZUJKAS_clean_linker_0, # of connection points: 2
#     Edge 66, Type (0, 1), BuildingBlock: ZUJKAS_clean_linker_0, # of connection points: 2
#     Edge 67, Type (0, 1), BuildingBlock: ZUJKAS_clean_linker_0, # of connection points: 2
#     Edge 68, Type (0, 1), BuildingBlock: ZUJKAS_clean_linker_0, # of connection points: 2
#     Edge 69, Type (0, 1), BuildingBlock: ZUJKAS_clean_linker_0, # of connection points: 2
#     Edge 70, Type (0, 1), BuildingBlock: ZUJKAS_clean_linker_0, # of connection points: 2
#     Edge 71, Type (0, 1), BuildingBlock: ZUJKAS_clean_linker_0, # of connection points: 2
#     Edge 72, Type (0, 1), BuildingBlock: ZUJKAS_clean_linker_0, # of connection points: 2
#     Edge 73, Type (0, 1), BuildingBlock: ZUJKAS_clean_linker_0, # of connection points: 2
#     Edge 74, Type (0, 1), BuildingBlock: ZUJKAS_clean_linker_0, # of connection points: 2
#     Edge 75, Type (0, 1), BuildingBlock: ZUJKAS_clean_linker_0, # of connection points: 2
#     Edge 76, Type (0, 1), BuildingBlock: ZUJKAS_clean_linker_0, # of connection points: 2
#     Edge 77, Type (0, 1), BuildingBlock: ZUJKAS_clean_linker_0, # of connection points: 2
#     Edge 78, Type (0, 1), BuildingBlock: ZUJKAS_clean_linker_0, # of connection points: 2
#     Edge 79, Type (0, 1), BuildingBlock: ZUJKAS_clean_linker_0, # of connection points: 2
#     Edge 80, Type (0, 1), BuildingBlock: ZUJKAS_clean_linker_0, # of connection points: 2
#     Edge 81, Type (0, 1), BuildingBlock: ZUJKAS_clean_linker_0, # of connection points: 2
#     Edge 82, Type (0, 1), BuildingBlock: ZUJKAS_clean_linker_0, # of connection points: 2
#     Edge 83, Type (0, 1), BuildingBlock: ZUJKAS_clean_linker_0, # of connection points: 2
#     Edge 84, Type (0, 1), BuildingBlock: ZUJKAS_clean_linker_0, # of connection points: 2
#     Edge 85, Type (0, 1), BuildingBlock: ZUJKAS_clean_linker_0, # of connection points: 2
#     Edge 86, Type (0, 1), BuildingBlock: ZUJKAS_clean_linker_0, # of connection points: 2
#     Edge 87, Type (0, 1), BuildingBlock: ZUJKAS_clean_linker_0, # of connection points: 2
#     Edge 88, Type (0, 1), BuildingBlock: ZUJKAS_clean_linker_0, # of connection points: 2
#     Edge 89, Type (0, 1), BuildingBlock: ZUJKAS_clean_linker_0, # of connection points: 2
#     Edge 90, Type (0, 1), BuildingBlock: ZUJKAS_clean_linker_0, # of connection points: 2
#     Edge 91, Type (0, 1), BuildingBlock: ZUJKAS_clean_linker_0, # of connection points: 2
#     Edge 92, Type (0, 1), BuildingBlock: ZUJKAS_clean_linker_0, # of connection points: 2
#     Edge 93, Type (0, 1), BuildingBlock: ZUJKAS_clean_linker_0, # of connection points: 2
#     Edge 94, Type (0, 1), BuildingBlock: ZUJKAS_clean_linker_0, # of connection points: 2
#     Edge 95, Type (0, 1), BuildingBlock: ZUJKAS_clean_linker_0, # of connection points: 2
#     Edge 96, Type (0, 1), BuildingBlock: ZUJKAS_clean_linker_0, # of connection points: 2
#     Edge 97, Type (0, 1), BuildingBlock: ZUJKAS_clean_linker_0, # of connection points: 2
#     Edge 98, Type (0, 1), BuildingBlock: ZUJKAS_clean_linker_0, # of connection points: 2
#     Edge 99, Type (0, 1), BuildingBlock: ZUJKAS_clean_linker_0, # of connection points: 2
#     Edge 100, Type (0, 1), BuildingBlock: ZUJKAS_clean_linker_0, # of connection points: 2
#     Edge 101, Type (0, 1), BuildingBlock: ZUJKAS_clean_linker_0, # of connection points: 2
#     Edge 102, Type (0, 1), BuildingBlock: ZUJKAS_clean_linker_0, # of connection points: 2
#     Edge 103, Type (0, 1), BuildingBlock: ZUJKAS_clean_linker_0, # of connection points: 2
#     Edge 104, Type (0, 1), BuildingBlock: ZUJKAS_clean_linker_0, # of connection points: 2
#     Edge 105, Type (0, 1), BuildingBlock: ZUJKAS_clean_linker_0, # of connection points: 2
#     Edge 106, Type (0, 1), BuildingBlock: ZUJKAS_clean_linker_0, # of connection points: 2
#     Edge 107, Type (0, 1), BuildingBlock: ZUJKAS_clean_linker_0, # of connection points: 2
#     Edge 108, Type (0, 1), BuildingBlock: ZUJKAS_clean_linker_0, # of connection points: 2
#     Edge 109, Type (0, 1), BuildingBlock: ZUJKAS_clean_linker_0, # of connection points: 2
#     Edge 110, Type (0, 1), BuildingBlock: ZUJKAS_clean_linker_0, # of connection points: 2
#     Edge 111, Type (0, 1), BuildingBlock: ZUJKAS_clean_linker_0, # of connection points: 2
#     Edge 112, Type (0, 1), BuildingBlock: ZUJKAS_clean_linker_0, # of connection points: 2
#     Edge 113, Type (0, 1), BuildingBlock: ZUJKAS_clean_linker_0, # of connection points: 2
#     Edge 114, Type (0, 1), BuildingBlock: ZUJKAS_clean_linker_0, # of connection points: 2
#     Edge 115, Type (0, 1), BuildingBlock: ZUJKAS_clean_linker_0, # of connection points: 2
#     Edge 116, Type (0, 1), BuildingBlock: ZUJKAS_clean_linker_0, # of connection points: 2
#     Edge 117, Type (0, 1), BuildingBlock: ZUJKAS_clean_linker_0, # of connection points: 2
#     Edge 118, Type (0, 1), BuildingBlock: ZUJKAS_clean_linker_0, # of connection points: 2
#     Edge 119, Type (0, 1), BuildingBlock: ZUJKAS_clean_linker_0, # of connection points: 2
#     Edge 120, Type (0, 1), BuildingBlock: ZUJKAS_clean_linker_0, # of connection points: 2
#     Edge 121, Type (0, 1), BuildingBlock: ZUJKAS_clean_linker_0, # of connection points: 2
#     Edge 122, Type (0, 1), BuildingBlock: ZUJKAS_clean_linker_0, # of connection points: 2
#     Edge 123, Type (0, 1), BuildingBlock: ZUJKAS_clean_linker_0, # of connection points: 2
#     Edge 124, Type (0, 1), BuildingBlock: ZUJKAS_clean_linker_0, # of connection points: 2
#     Edge 125, Type (0, 1), BuildingBlock: ZUJKAS_clean_linker_0, # of connection points: 2
#     Edge 126, Type (0, 1), BuildingBlock: ZUJKAS_clean_linker_0, # of connection points: 2
#     Edge 127, Type (0, 1), BuildingBlock: ZUJKAS_clean_linker_0, # of connection points: 2
#     Edge 128, Type (0, 1), BuildingBlock: ZUJKAS_clean_linker_0, # of connection points: 2
#     Edge 129, Type (0, 1), BuildingBlock: ZUJKAS_clean_linker_0, # of connection points: 2
#     Edge 130, Type (0, 1), BuildingBlock: ZUJKAS_clean_linker_0, # of connection points: 2
#     Edge 131, Type (0, 1), BuildingBlock: ZUJKAS_clean_linker_0, # of connection points: 2
#     Edge 132, Type (0, 1), BuildingBlock: ZUJKAS_clean_linker_0, # of connection points: 2
#     Edge 133, Type (0, 1), BuildingBlock: ZUJKAS_clean_linker_0, # of connection points: 2
#     Edge 134, Type (0, 1), BuildingBlock: ZUJKAS_clean_linker_0, # of connection points: 2
#     Edge 135, Type (0, 1), BuildingBlock: ZUJKAS_clean_linker_0, # of connection points: 2
# Relax obj value: 0.123
# Max RMSD: 0.165
# Mean RMSD: 0.133
data_MOF--net-iac--node1-GALJAG_clean_sbu_0--node2-CIFDUS_clean_sbu_1--edge1-ZUJKAS_clean_linker_0
_symmetry_space_group_name_H-M    P1
_symmetry_Int_Tables_number       1
_symmetry_cell_setting            triclinic
loop_
_symmetry_equiv_pos_as_xyz
'x, y, z'
_cell_length_a     70.498796
_cell_length_b     70.271177
_cell_length_c     70.449983
_cell_angle_alpha  89.955451
_cell_angle_beta   89.925441
_cell_angle_gamma 90.018732
loop_
_atom_site_label
_atom_site_type_symbol
_atom_site_fract_x
_atom_site_fract_y
_atom_site_fract_z
_atom_type_partial_charge
In0 In -9e-05 0.25168 0.12144 0.0
O1 O 0.9914 0.23172 0.09677 0.0
O2 O 0.00772 0.2203 0.11919 0.0
C3 C 0.00249 0.28523 0.10282 0.0
C4 C 0.966 0.25253 0.13991 0.0
C5 C 0.03337 0.25348 0.14002 0.0
O6 O 0.0008 0.26953 0.09416 0.0
O7 O 0.003 0.2839 0.12071 0.0
O8 O 0.01774 0.2512 0.14852 0.0
O9 O 0.03216 0.25509 0.12222 0.0
C10 C -0.0008 0.2172 0.10386 0.0
O11 O 0.97972 0.24252 0.14547 0.0
O12 O 0.96948 0.26239 0.12542 0.0
In13 In 0.00139 0.74849 0.37471 0.0
O14 O 0.01871 0.74813 0.34749 0.0
O15 O 0.03345 0.74759 0.37381 0.0
C16 C 0.96662 0.74916 0.35953 0.0
C17 C 0.00337 0.71426 0.39101 0.0
C18 C 0.00099 0.78215 0.39236 0.0
O19 O 0.98145 0.75123 0.34967 0.0
O20 O 0.96937 0.74647 0.37704 0.0
O21 O 0.00091 0.7667 0.40144 0.0
O22 O 0.00129 0.78068 0.37457 0.0
C23 C 0.03443 0.74751 0.35597 0.0
O24 O 0.00762 0.7294 0.39962 0.0
O25 O -0.00239 0.71638 0.37419 0.0
In26 In 0.50009 0.75284 0.62186 0.0
O27 O 0.50194 0.77074 0.59455 0.0
O28 O 0.50355 0.78486 0.62117 0.0
C29 C 0.49932 0.71931 0.60316 0.0
C30 C 0.53368 0.75475 0.64001 0.0
C31 C 0.46647 0.7515 0.64063 0.0
O32 O 0.48983 0.73349 0.59758 0.0
O33 O 0.50915 0.72214 0.6178 0.0
O34 O 0.48065 0.7419 0.64589 0.0
O35 O 0.4694 0.76184 0.62636 0.0
C36 C 0.50359 0.78634 0.60336 0.0
O37 O 0.51837 0.76028 0.64761 0.0
O38 O 0.532 0.748 0.62351 0.0
In39 In 0.50188 0.24885 0.87549 0.0
O40 O 0.51985 0.24494 0.84922 0.0
O41 O 0.53375 0.25096 0.87549 0.0
C42 C 0.46829 0.25203 0.85832 0.0
C43 C 0.50369 0.21553 0.8936 0.0
C44 C 0.5014 0.28266 0.89246 0.0
O45 O 0.48319 0.24843 0.84903 0.0
O46 O 0.47043 0.25372 0.87597 0.0
O47 O 0.49386 0.26812 0.89982 0.0
O48 O 0.50933 0.28015 0.87657 0.0
C49 C 0.53528 0.24728 0.85804 0.0
O50 O 0.5084 0.23098 0.90131 0.0
O51 O 0.49743 0.21697 0.87695 0.0
In52 In 0.12891 -0.00198 0.2526 0.0
O53 O 0.15537 0.97954 0.25587 0.0
O54 O 0.12937 0.96571 0.24912 0.0
C55 C 0.14577 0.03258 0.25193 0.0
C56 C 0.11248 -0.00242 0.21803 0.0
C57 C 0.11047 -0.00184 0.28644 0.0
O58 O 0.15485 0.0175 0.25528 0.0
O59 O 0.12844 0.03016 0.24842 0.0
O60 O 0.10189 -0.00367 0.27086 0.0
O61 O 0.12821 -0.00065 0.28495 0.0
C62 C 0.14691 0.96413 0.25233 0.0
O63 O 0.10358 0.00193 0.23299 0.0
O64 O 0.12977 0.99353 0.22043 0.0
In65 In 0.25151 0.87555 0.49994 0.0
O66 O 0.23204 0.90127 0.50048 0.0
O67 O 0.21938 0.87371 0.50015 0.0
C68 C 0.28494 0.8938 0.50094 0.0
C69 C 0.25074 0.85808 0.53348 0.0
C70 C 0.25386 0.85803 0.46613 0.0
O71 O 0.2704 0.9009 0.49332 0.0
O72 O 0.28255 0.87772 0.50851 0.0
O73 O 0.25077 0.84893 0.48126 0.0
O74 O 0.25561 0.87571 0.46815 0.0
C75 C 0.21708 0.89145 0.50054 0.0
O76 O 0.25376 0.84929 0.5181 0.0
O77 O 0.24858 0.87588 0.53195 0.0
In78 In 0.37742 0.0016 0.74984 0.0
O79 O 0.35297 0.02032 0.74034 0.0
O80 O 0.37422 0.03252 0.75811 0.0
C81 C 0.35967 0.96817 0.75299 0.0
C82 C 0.39569 0.00334 0.71642 0.0
C83 C 0.39416 7e-05 0.78375 0.0
O84 O 0.35064 0.9834 0.74985 0.0
O85 O 0.37741 0.96992 0.75439 0.0
O86 O 0.40321 -0.00316 0.76854 0.0
O87 O 0.37685 0.0042 0.78168 0.0
C88 C 0.35919 0.03486 0.74879 0.0
O89 O 0.40109 0.01264 0.73073 0.0
O90 O 0.38174 0.99256 0.71923 0.0
In91 In 0.2506 0.12496 0.00188 0.0
O92 O 0.26967 0.09951 0.00757 0.0
O93 O 0.28258 0.12562 -0.00106 0.0
C94 C 0.21748 0.10572 0.00176 0.0
C95 C 0.25324 0.14348 0.03498 0.0
C96 C 0.24968 0.14271 0.96804 0.0
O97 O 0.23166 0.10029 0.99232 0.0
O98 O 0.2202 0.1204 0.01157 0.0
O99 O 0.24372 0.15059 0.983 0.0
O100 O 0.25624 0.12621 0.97028 0.0
C101 C 0.2848 0.10845 0.0038 0.0
O102 O 0.24807 0.15186 0.01996 0.0
O103 O 0.257 0.12604 0.03319 0.0
In104 In 0.75184 0.37496 -0.00037 0.0
O105 O 0.75631 0.34867 0.01782 0.0
O106 O 0.74627 0.37403 0.03117 0.0
C107 C 0.75264 0.358 0.96558 0.0
C108 C 0.71783 0.39137 0.00184 0.0
C109 C 0.78489 0.39381 -0.00065 0.0
O110 O 0.75295 0.34854 0.98083 0.0
O111 O 0.75176 0.37578 0.96764 0.0
O112 O 0.77029 0.40015 0.99124 0.0
O113 O 0.78274 0.37821 0.00786 0.0
C114 C 0.75114 0.35685 0.03295 0.0
O115 O 0.73293 0.39988 0.00642 0.0
O116 O 0.71992 0.37458 -0.00416 0.0
In117 In 0.87806 0.50191 0.24982 0.0
O118 O 0.90298 0.50681 0.23011 0.0
O119 O 0.87702 0.49691 0.21802 0.0
C120 C 0.89546 0.50202 0.28344 0.0
C121 C 0.86021 0.5354 0.24981 0.0
C122 C 0.86142 0.46778 0.25132 0.0
O123 O 0.90438 0.49885 0.26823 0.0
O124 O 0.87797 0.50522 0.28171 0.0
O125 O 0.85229 0.48269 0.24726 0.0
O126 O 0.8789 0.47012 0.25431 0.0
C127 C 0.89394 0.50201 0.21544 0.0
O128 O 0.8518 0.51992 0.25322 0.0
O129 O 0.87772 0.53399 0.24647 0.0
In130 In 0.75157 0.62556 0.50099 0.0
O131 O 0.77114 0.60128 0.51084 0.0
O132 O 0.7822 0.62154 0.49149 0.0
C133 C 0.71776 0.60804 0.49932 0.0
C134 C 0.7525 0.64317 0.5349 0.0
C135 C 0.74786 0.64498 0.46821 0.0
O136 O 0.73298 0.59972 0.49463 0.0
O137 O 0.71972 0.62498 0.50489 0.0
O138 O 0.75011 0.65332 0.48395 0.0
O139 O 0.74753 0.62706 0.46913 0.0
C140 C 0.78523 0.60692 0.50135 0.0
O141 O 0.76036 0.65019 0.52037 0.0
O142 O 0.7442 0.62754 0.53222 0.0
In143 In 0.62987 0.49873 0.75268 0.0
O144 O 0.65386 0.47909 0.74216 0.0
O145 O 0.63514 0.46873 0.76341 0.0
C146 C 0.64817 0.53234 0.75504 0.0
C147 C 0.61087 0.49694 0.71922 0.0
C148 C 0.61174 0.50103 0.78637 0.0
O149 O 0.65702 0.51681 0.7529 0.0
O150 O 0.63036 0.53077 0.75577 0.0
O151 O 0.60284 0.50134 0.77076 0.0
O152 O 0.6295 0.49945 0.78482 0.0
C153 C 0.64907 0.46538 0.75275 0.0
O154 O 0.60783 0.48544 0.73263 0.0
O155 O 0.62289 0.50964 0.7229 0.0
In156 In 0.00354 0.75219 0.87631 0.0
O157 O 0.02225 0.74262 0.85122 0.0
O158 O 0.03453 0.76001 0.87252 0.0
C159 C 0.96918 0.75328 0.85999 0.0
C160 C 0.0052 0.71846 0.89464 0.0
C161 C 0.00076 0.78669 0.89285 0.0
O162 O 0.98405 0.75818 0.8512 0.0
O163 O 0.97164 0.74765 0.87682 0.0
O164 O 0.00165 0.77154 0.90256 0.0
O165 O 0.0012 0.78426 0.87514 0.0
C166 C 0.03687 0.75103 0.85726 0.0
O167 O 0.01327 0.73318 0.90107 0.0
O168 O -0.00374 0.72089 0.87937 0.0
In169 In 0.00105 0.25048 0.62631 0.0
O170 O 0.00088 0.26933 0.60034 0.0
O171 O 0.00294 0.28236 0.62766 0.0
C172 C 6e-05 0.21576 0.61138 0.0
C173 C 0.03511 0.25083 0.6422 0.0
C174 C 0.96702 0.2493 0.64246 0.0
O175 O -0.00068 0.23051 0.60109 0.0
O176 O 0.00158 0.21869 0.62898 0.0
O177 O 0.9821 0.24706 0.65183 0.0
O178 O 0.96919 0.25258 0.62502 0.0
C179 C 0.00214 0.28447 0.60993 0.0
O180 O 0.02055 0.25633 0.65106 0.0
O181 O 0.03253 0.24514 0.62543 0.0
In182 In 0.50252 0.25109 0.37696 0.0
O183 O 0.52176 0.24238 0.35207 0.0
O184 O 0.53346 0.25909 0.37435 0.0
C185 C 0.46926 0.25388 0.35847 0.0
C186 C 0.50433 0.2172 0.3952 0.0
C187 C 0.50037 0.2854 0.39378 0.0
O188 O 0.48505 0.25455 0.34994 0.0
O189 O 0.47032 0.25153 0.3762 0.0
O190 O 0.49676 0.2702 0.40274 0.0
O191 O 0.50502 0.28313 0.37666 0.0
C192 C 0.53614 0.25079 0.35875 0.0
O193 O 0.51375 0.23146 0.4006 0.0
O194 O 0.49382 0.22013 0.38109 0.0
In195 In 0.50115 0.74987 0.12589 0.0
O196 O 0.49212 0.73031 0.10168 0.0
O197 O 0.51206 0.72003 0.12184 0.0
C198 C 0.50212 0.78412 0.11036 0.0
C199 C 0.46754 0.74764 0.1429 0.0
C200 C 0.5342 0.75336 0.14376 0.0
O201 O 0.50652 0.76929 0.10118 0.0
O202 O 0.49685 0.78156 0.1273 0.0
O203 O 0.51934 0.74809 0.15241 0.0
O204 O 0.53224 0.75688 0.12632 0.0
C205 C 0.50232 0.71672 0.1073 0.0
O206 O 0.48272 0.74325 0.15135 0.0
O207 O 0.46943 0.75344 0.12609 0.0
In208 In 0.87576 -0.00198 0.74927 0.0
O209 O 0.90121 0.0026 0.72985 0.0
O210 O 0.87501 0.99447 0.71708 0.0
C211 C 0.89447 -0.00389 0.78278 0.0
C212 C 0.85951 0.03296 0.74792 0.0
C213 C 0.8586 0.96361 0.74972 0.0
O214 O 0.90289 -0.00482 0.767 0.0
O215 O 0.87674 -0.00211 0.78163 0.0
O216 O 0.85085 0.97831 0.75652 0.0
O217 O 0.87476 0.96628 0.7425 0.0
C218 C 0.89226 -0.00115 0.71478 0.0
O219 O 0.84971 0.01792 0.74843 0.0
O220 O 0.87714 0.03029 0.74817 0.0
In221 In 0.75432 0.12511 0.49903 0.0
O222 O 0.77323 0.0995 0.49484 0.0
O223 O 0.7854 0.12508 0.5058 0.0
C224 C 0.7212 0.1072 0.49626 0.0
C225 C 0.75237 0.14188 0.53286 0.0
C226 C 0.75454 0.14296 0.46585 0.0
O227 O 0.7353 0.0996 0.50435 0.0
O228 O 0.72393 0.12358 0.48953 0.0
O229 O 0.74775 0.15048 0.48067 0.0
O230 O 0.76197 0.12678 0.46798 0.0
C231 C 0.78783 0.10807 0.50077 0.0
O232 O 0.76059 0.14969 0.51896 0.0
O233 O 0.74473 0.12604 0.5295 0.0
In234 In 0.62594 -0.00016 0.25108 0.0
O235 O 0.65039 0.9803 0.24441 0.0
O236 O 0.62493 0.96817 0.25586 0.0
C237 C 0.64258 0.03376 0.25387 0.0
C238 C 0.60975 -0.00133 0.21684 0.0
C239 C 0.61083 0.00119 0.28545 0.0
O240 O 0.65215 0.01856 0.25336 0.0
O241 O 0.62487 0.03173 0.25265 0.0
O242 O 0.60152 0.00584 0.27083 0.0
O243 O 0.62755 -0.00463 0.28271 0.0
C244 C 0.64146 0.96557 0.24951 0.0
O245 O 0.60029 -0.00446 0.23178 0.0
O246 O 0.62692 0.0028 0.21942 0.0
In247 In 0.74699 0.87588 0.00564 0.0
O248 O 0.72719 0.90166 0.00542 0.0
O249 O 0.71516 0.87392 0.00839 0.0
C250 C 0.78001 0.89523 0.00536 0.0
C251 C 0.74547 0.85921 0.03974 0.0
C252 C 0.74806 0.85662 0.9727 0.0
O253 O 0.76641 0.89988 -0.00531 0.0
O254 O 0.7767 0.88145 0.01623 0.0
O255 O 0.75855 0.85211 0.98647 0.0
O256 O 0.73703 0.87033 0.97574 0.0
C257 C 0.71236 0.89162 0.00729 0.0
O258 O 0.74678 0.84956 0.0246 0.0
O259 O 0.74487 0.87703 0.03748 0.0
In260 In 0.25358 0.62621 -0.00105 0.0
O261 O 0.25388 0.65344 0.01646 0.0
O262 O 0.2586 0.6268 0.03034 0.0
C263 C 0.25178 0.64293 0.96506 0.0
C264 C 0.28647 0.60825 0.00136 0.0
C265 C 0.22007 0.60839 -0.00014 0.0
O266 O 0.24444 0.65023 0.97968 0.0
O267 O 0.26069 0.62764 0.96769 0.0
O268 O 0.23369 0.60219 0.99006 0.0
O269 O 0.22357 0.62311 0.00934 0.0
C270 C 0.25702 0.6446 0.03179 0.0
O271 O 0.27077 0.59984 0.00374 0.0
O272 O 0.28551 0.62575 -0.00269 0.0
In273 In 0.12531 0.50017 0.75161 0.0
O274 O 0.15147 0.48226 0.74843 0.0
O275 O 0.12501 0.46807 0.753 0.0
C276 C 0.14117 0.5345 0.754 0.0
C277 C 0.11024 0.49855 0.71689 0.0
C278 C 0.10848 0.50198 0.78535 0.0
O279 O 0.15095 0.51946 0.75498 0.0
O280 O 0.12364 0.53207 0.75146 0.0
O281 O 0.09999 0.5063 0.77017 0.0
O282 O 0.1252 0.49591 0.78341 0.0
C283 C 0.14261 0.4667 0.74998 0.0
O284 O 0.1007 0.49445 0.73153 0.0
O285 O 0.12705 0.5038 0.71994 0.0
In286 In 0.24583 0.37555 0.50605 0.0
O287 O 0.24745 0.3497 0.52568 0.0
O288 O 0.24114 0.3768 0.5378 0.0
C289 C 0.2465 0.3591 0.47173 0.0
C290 C 0.21108 0.39123 0.50628 0.0
C291 C 0.28027 0.39216 0.50558 0.0
O292 O 0.24943 0.34964 0.48671 0.0
O293 O 0.24317 0.37654 0.47418 0.0
O294 O 0.26564 0.40071 0.49978 0.0
O295 O 0.27737 0.3757 0.51195 0.0
C296 C 0.24388 0.35926 0.54047 0.0
O297 O 0.22579 0.40061 0.5106 0.0
O298 O 0.21397 0.37403 0.50192 0.0
In299 In 0.37652 0.49793 0.24863 0.0
O300 O 0.40198 0.49389 0.22877 0.0
O301 O 0.37667 0.50565 0.21725 0.0
C302 C 0.39392 0.49623 0.28266 0.0
C303 C 0.36062 0.53279 0.24964 0.0
C304 C 0.35903 0.46362 0.24784 0.0
O305 O 0.403 0.49727 0.26721 0.0
O306 O 0.37612 0.49624 0.28093 0.0
O307 O 0.3506 0.47859 0.25304 0.0
O308 O 0.37592 0.46612 0.24259 0.0
C309 C 0.39353 0.50041 0.21436 0.0
O310 O 0.35147 0.51812 0.24468 0.0
O311 O 0.37766 0.52978 0.25429 0.0
O312 O 0.02277 0.0156 -0.00251 0.0
Mn313 Mn -0.00089 -0.00184 0.00296 0.0
O314 O 0.04678 -0.00429 0.98988 0.0
Mn315 Mn 0.03609 0.97411 0.00019 0.0
O316 O 0.97587 0.9799 0.00842 0.0
O317 O 0.98487 0.02121 0.01392 0.0
Mn318 Mn 0.96124 0.01586 0.00624 0.0
O319 O 0.98942 0.00298 0.97555 0.0
O320 O 0.95377 -0.00273 0.0228 0.0
O321 O 0.00964 0.99271 0.03031 0.0
O322 O 0.0349 0.97336 0.02647 0.0
O323 O 0.96189 0.04146 0.0082 0.0
O324 O 0.95882 0.00827 0.98104 0.0
C325 C 0.01489 0.95913 0.98443 0.0
C326 C 0.03974 0.01234 0.99143 0.0
C327 C 0.96041 0.98117 0.0181 0.0
C328 C 0.97985 0.03889 0.01117 0.0
C329 C 0.97236 0.00463 0.96973 0.0
C330 C 0.0233 0.98252 0.03699 0.0
O331 O 0.01246 0.97521 0.99281 0.0
O332 O 0.0319 0.95243 0.98594 0.0
O333 O 0.28048 0.75022 0.24175 0.0
Mn334 Mn 0.25247 0.74646 0.25068 0.0
O335 O 0.28079 0.77477 0.22157 0.0
Mn336 Mn 0.2552 0.77378 0.2174 0.0
O337 O 0.22452 0.74244 0.25981 0.0
O338 O 0.26099 0.72127 0.2614 0.0
Mn339 Mn 0.25008 0.71715 0.28332 0.0
O340 O 0.25801 0.76014 0.27648 0.0
O341 O 0.22445 0.71667 0.27872 0.0
O342 O 0.24674 0.73223 0.22544 0.0
O343 O 0.24696 0.75413 0.20219 0.0
O344 O 0.26524 0.69634 0.27938 0.0
O345 O 0.25761 0.73693 0.29868 0.0
C346 C 0.23636 0.78826 0.23496 0.0
C347 C 0.28931 0.76193 0.23091 0.0
C348 C 0.21592 0.73017 0.27024 0.0
C349 C 0.2695 0.70515 0.26381 0.0
C350 C 0.25914 0.75436 0.29381 0.0
C351 C 0.24479 0.73714 0.20802 0.0
O352 O 0.24371 0.77187 0.23958 0.0
O353 O 0.24141 0.79535 0.21873 0.0
O354 O 0.47794 0.98688 0.49558 0.0
Mn355 Mn 0.50192 0.00351 0.49959 0.0
O356 O 0.45292 0.00551 0.50245 0.0
Mn357 Mn 0.46686 0.0269 0.5088 0.0
O358 O 0.52636 0.01983 0.50346 0.0
O359 O 0.51613 0.97908 0.50447 0.0
Mn360 Mn 0.538 0.97929 0.4926 0.0
O361 O 0.50781 0.0022 0.47071 0.0
O362 O 0.55107 -0.00058 0.5031 0.0
O363 O 0.49653 0.00474 0.52885 0.0
O364 O 0.47555 0.02822 0.53326 0.0
O365 O 0.53679 0.95605 0.50454 0.0
O366 O 0.53208 0.98163 0.46713 0.0
C367 C 0.47995 0.04393 0.48796 0.0
C368 C 0.4601 0.98972 0.49731 0.0
C369 C 0.54405 0.01595 0.50548 0.0
C370 C 0.52045 0.96217 0.51025 0.0
C371 C 0.51945 0.99272 0.46041 0.0
C372 C 0.48733 0.0162 0.53964 0.0
O373 O 0.48705 0.02786 0.49391 0.0
O374 O 0.46392 0.04881 0.49555 0.0
O375 O 0.27531 0.25614 0.76761 0.0
Mn376 Mn 0.2511 0.25075 0.75139 0.0
O377 O 0.29991 0.25607 0.74699 0.0
Mn378 Mn 0.28684 0.24776 0.72597 0.0
O379 O 0.2281 0.24516 0.73394 0.0
O380 O 0.23777 0.24196 0.77667 0.0
Mn381 Mn 0.21666 0.2552 0.77295 0.0
O382 O 0.24282 0.27947 0.75365 0.0
O383 O 0.20259 0.24969 0.75187 0.0
O384 O 0.25948 0.22245 0.74809 0.0
O385 O 0.28184 0.22204 0.72526 0.0
O386 O 0.21016 0.24246 0.79324 0.0
O387 O 0.22183 0.28009 0.77706 0.0
C388 C 0.26785 0.26534 0.71056 0.0
C389 C 0.29304 0.25784 0.76364 0.0
C390 C 0.21021 0.24569 0.7362 0.0
C391 C 0.22776 0.23714 0.79189 0.0
C392 C 0.23186 0.28862 0.76495 0.0
C393 C 0.27043 0.21361 0.73648 0.0
O394 O 0.26448 0.25851 0.72728 0.0
O395 O 0.2846 0.26159 0.704 0.0
O396 O -0.00162 0.97425 0.48619 0.0
Mn397 Mn 0.00232 -0.00101 0.5018 0.0
O398 O -0.00067 0.94967 0.50667 0.0
Mn399 Mn 0.00663 0.96368 0.52765 0.0
O400 O 0.00591 0.0241 0.51753 0.0
O401 O 0.00843 0.01181 0.47663 0.0
Mn402 Mn -0.00141 0.03476 0.47712 0.0
O403 O 0.97406 0.00566 0.49899 0.0
O404 O 0.01091 0.04729 0.49624 0.0
O405 O 0.03106 0.99227 0.50548 0.0
O406 O 0.03191 0.96998 0.52854 0.0
O407 O 0.00912 0.03281 0.45357 0.0
O408 O 0.97273 0.03208 0.4809 0.0
C409 C 0.98699 0.98156 0.54209 0.0
C410 C -0.0028 0.95649 0.49006 0.0
C411 C 0.00979 0.04145 0.51326 0.0
C412 C 0.0137 0.01596 0.45943 0.0
C413 C 0.96496 0.01911 0.49089 0.0
C414 C 0.04009 0.9816 0.5173 0.0
O415 O -0.00494 0.98573 0.52613 0.0
O416 O 0.99166 0.96514 0.54897 0.0
O417 O 0.26447 0.77653 0.75318 0.0
Mn418 Mn 0.25089 0.75036 0.75024 0.0
O419 O 0.2422 0.79813 0.74497 0.0
Mn420 Mn 0.22196 0.78169 0.74132 0.0
O421 O 0.23659 0.72413 0.74655 0.0
O422 O 0.2765 0.73779 0.74325 0.0
Mn423 Mn 0.27482 0.71633 0.75667 0.0
O424 O 0.2533 0.74609 0.77919 0.0
O425 O 0.2591 0.70214 0.74191 0.0
O426 O 0.24819 0.75607 0.7212 0.0
O427 O 0.22046 0.77093 0.71762 0.0
O428 O 0.29981 0.72087 0.75503 0.0
O429 O 0.26721 0.71788 0.78147 0.0
C430 C 0.20967 0.76725 0.76467 0.0
C431 C 0.25908 0.79372 0.74987 0.0
C432 C 0.24179 0.7072 0.74166 0.0
C433 C 0.29477 0.73616 0.7461 0.0
C434 C 0.25926 0.73209 0.7889 0.0
C435 C 0.23513 0.76314 0.71069 0.0
O436 O 0.22568 0.76256 0.75688 0.0
O437 O 0.20141 0.7819 0.75721 0.0
O438 O 0.48762 0.99212 0.97564 0.0
Mn439 Mn 0.50048 -0.00141 0.00142 0.0
O440 O 0.51029 0.99338 0.95312 0.0
Mn441 Mn 0.52834 0.00522 0.96806 0.0
O442 O 0.51349 0.00506 0.02684 0.0
O443 O 0.47324 0.00446 0.01221 0.0
Mn444 Mn 0.47512 0.98602 0.02928 0.0
O445 O 0.50162 0.96956 0.0086 0.0
O446 O 0.49489 0.98863 0.04638 0.0
O447 O 0.50094 0.02711 0.99394 0.0
O448 O 0.5244 0.03077 0.97245 0.0
O449 O 0.45369 -0.00377 0.03654 0.0
O450 O 0.4725 0.96368 0.01654 0.0
C451 C 0.54413 0.98937 0.98832 0.0
C452 C 0.49331 0.99008 0.95844 0.0
C453 C 0.50977 -0.00169 0.04324 0.0
C454 C 0.45692 0.00626 0.02138 0.0
C455 C 0.48867 0.95755 0.01261 0.0
C456 C 0.51156 0.03738 0.9833 0.0
O457 O 0.52662 0.99441 0.99048 0.0
O458 O 0.55175 0.99465 0.97245 0.0
O459 O 0.27818 0.24749 0.26247 0.0
Mn460 Mn 0.25027 0.25173 0.25313 0.0
O461 O 0.2751 0.23251 0.29047 0.0
Mn462 Mn 0.24893 0.23108 0.29041 0.0
O463 O 0.22219 0.25628 0.2435 0.0
O464 O 0.25948 0.27508 0.23977 0.0
Mn465 Mn 0.24973 0.27739 0.21708 0.0
O466 O 0.25506 0.23511 0.229 0.0
O467 O 0.22384 0.27899 0.22093 0.0
O468 O 0.24583 0.26961 0.27653 0.0
O469 O 0.23689 0.25167 0.30092 0.0
O470 O 0.26576 0.298 0.22024 0.0
O471 O 0.25718 0.25569 0.20436 0.0
C472 C 0.23519 0.21112 0.2734 0.0
C473 C 0.28529 0.24031 0.27769 0.0
C474 C 0.21432 0.26764 0.2314 0.0
C475 C 0.26879 0.29055 0.23674 0.0
C476 C 0.25754 0.23892 0.21129 0.0
C477 C 0.2396 0.26782 0.2935 0.0
O478 O 0.24136 0.22739 0.26673 0.0
O479 O 0.23767 0.20809 0.29138 0.0
O480 O 0.49493 0.47707 0.98352 0.0
Mn481 Mn 0.5014 0.49959 0.00122 0.0
O482 O 0.50488 0.45185 -9e-05 0.0
Mn483 Mn 0.50617 0.4634 0.02339 0.0
O484 O 0.50736 0.52266 0.01872 0.0
O485 O 0.50988 0.51352 0.97748 0.0
Mn486 Mn 0.50265 0.53734 0.97909 0.0
O487 O 0.4738 0.50968 -0.00183 0.0
O488 O 0.51455 0.54751 5e-05 0.0
O489 O 0.52941 0.49006 0.00418 0.0
O490 O 0.53021 0.47101 0.02966 0.0
O491 O 0.51472 0.53561 0.95614 0.0
O492 O 0.47654 0.53633 0.98049 0.0
C493 C 0.48136 0.47638 0.03561 0.0
C494 C 0.49881 0.45944 0.98483 0.0
C495 C 0.51324 0.53974 0.0163 0.0
C496 C 0.5169 0.51799 0.96104 0.0
C497 C 0.46662 0.52413 0.98955 0.0
C498 C 0.53855 0.48114 0.01724 0.0
O499 O 0.49396 0.48552 0.02563 0.0
O500 O 0.48552 0.45861 0.03806 0.0
O501 O 0.76492 0.27657 0.25437 0.0
Mn502 Mn 0.75047 0.25074 0.25052 0.0
O503 O 0.74227 0.29914 0.25329 0.0
Mn504 Mn 0.7222 0.28348 0.24774 0.0
O505 O 0.73588 0.22475 0.24606 0.0
O506 O 0.77515 0.2385 0.24053 0.0
Mn507 Mn 0.77503 0.21607 0.25239 0.0
O508 O 0.75508 0.24397 0.27869 0.0
O509 O 0.75782 0.20297 0.23817 0.0
O510 O 0.7452 0.25855 0.22224 0.0
O511 O 0.71968 0.27747 0.22259 0.0
O512 O 0.79972 0.22142 0.24866 0.0
O513 O 0.76948 0.21588 0.27779 0.0
C514 C 0.71014 0.2669 0.26925 0.0
C515 C 0.75953 0.29407 0.25483 0.0
C516 C 0.74058 0.20814 0.23966 0.0
C517 C 0.79362 0.23723 0.24148 0.0
C518 C 0.76171 0.22926 0.28682 0.0
C519 C 0.73242 0.26836 0.21366 0.0
O520 O 0.72576 0.26231 0.26043 0.0
O521 O 0.70204 0.28249 0.26371 0.0
O522 O 0.98565 0.49554 0.47633 0.0
Mn523 Mn -0.00016 0.49911 0.50185 0.0
O524 O 0.00741 0.50112 0.45333 0.0
Mn525 Mn 0.02822 0.50643 0.46862 0.0
O526 O 0.01408 0.50285 0.52778 0.0
O527 O 0.97497 0.50518 0.51515 0.0
Mn528 Mn 0.97452 0.49162 0.5364 0.0
O529 O -0.00153 0.47032 0.50668 0.0
O530 O 0.9912 0.50623 0.54997 0.0
O531 O 0.00254 0.52803 0.49571 0.0
O532 O 0.02889 0.531 0.47776 0.0
O533 O 0.94983 0.4952 0.52924 0.0
O534 O 0.98327 0.46704 0.53426 0.0
C535 C 0.04009 0.48433 0.48606 0.0
C536 C 0.9906 0.49713 0.45886 0.0
C537 C 0.0086 0.50655 0.54488 0.0
C538 C 0.95666 0.50405 0.51466 0.0
C539 C 0.99305 0.46042 0.52074 0.0
C540 C 0.01526 0.53811 0.4873 0.0
O541 O 0.02444 0.49312 0.48923 0.0
O542 O 0.04868 0.48994 0.47084 0.0
O543 O 0.77538 0.75752 0.26685 0.0
Mn544 Mn 0.7506 0.75137 0.25175 0.0
O545 O 0.79825 0.7634 0.24532 0.0
Mn546 Mn 0.78562 0.75271 0.22508 0.0
O547 O 0.72582 0.74556 0.23662 0.0
O548 O 0.73859 0.74312 0.27663 0.0
Mn549 Mn 0.71564 0.75318 0.27779 0.0
O550 O 0.74153 0.77905 0.2555 0.0
O551 O 0.70201 0.74324 0.25778 0.0
O552 O 0.76044 0.72357 0.24719 0.0
O553 O 0.78387 0.72666 0.22546 0.0
O554 O 0.71812 0.73996 0.29992 0.0
O555 O 0.71855 0.77937 0.27756 0.0
C556 C 0.76409 0.7683 0.211 0.0
C557 C 0.79227 0.76283 0.26238 0.0
C558 C 0.70841 0.74231 0.24091 0.0
C559 C 0.73481 0.73609 0.29325 0.0
C560 C 0.72971 0.78783 0.26612 0.0
C561 C 0.77341 0.71658 0.23631 0.0
O562 O 0.76215 0.76019 0.22729 0.0
O563 O 0.78066 0.76634 0.20335 0.0
O564 O 0.78195 0.24573 0.74422 0.0
Mn565 Mn 0.75334 0.24644 0.75171 0.0
O566 O 0.78843 0.27454 0.73462 0.0
Mn567 Mn 0.76545 0.27331 0.72266 0.0
O568 O 0.72497 0.24537 0.75976 0.0
O569 O 0.75844 0.22065 0.7631 0.0
Mn570 Mn 0.7481 0.21888 0.78569 0.0
O571 O 0.76 0.26 0.77711 0.0
O572 O 0.72248 0.2218 0.78142 0.0
O573 O 0.7472 0.23331 0.72618 0.0
O574 O 0.76203 0.25319 0.70599 0.0
O575 O 0.75958 0.19577 0.78143 0.0
O576 O 0.75949 0.23773 0.80008 0.0
C577 C 0.74319 0.28942 0.73237 0.0
C578 C 0.79407 0.2583 0.73955 0.0
C579 C 0.71526 0.2344 0.77063 0.0
C580 C 0.76428 0.20338 0.76537 0.0
C581 C 0.76252 0.2547 0.79437 0.0
C582 C 0.75339 0.23767 0.70963 0.0
O583 O 0.74711 0.27275 0.73988 0.0
O584 O 0.75351 0.29523 0.71824 0.0
O585 O 0.77796 0.749 0.76185 0.0
Mn586 Mn 0.74948 0.75104 0.7537 0.0
O587 O 0.77854 0.7299 0.78762 0.0
Mn588 Mn 0.75256 0.72767 0.79078 0.0
O589 O 0.7205 0.75299 0.74617 0.0
O590 O 0.75665 0.77504 0.73914 0.0
Mn591 Mn 0.74324 0.77504 0.71802 0.0
O592 O 0.75463 0.7343 0.72983 0.0
O593 O 0.71806 0.77645 0.72475 0.0
O594 O 0.7446 0.76789 0.7777 0.0
O595 O 0.74096 0.74801 0.8025 0.0
O596 O 0.75765 0.79651 0.71659 0.0
O597 O 0.75061 0.75363 0.7046 0.0
C598 C 0.73679 0.71009 0.7721 0.0
C599 C 0.78681 0.74016 0.77516 0.0
C600 C 0.71056 0.76441 0.73591 0.0
C601 C 0.76424 0.79066 0.73273 0.0
C602 C 0.75468 0.73755 0.7119 0.0
C603 C 0.74058 0.76456 0.79519 0.0
O604 O 0.74302 0.72687 0.7678 0.0
O605 O 0.74077 0.70445 0.78913 0.0
O606 O 0.52512 0.51331 0.49703 0.0
Mn607 Mn 0.49945 0.49939 0.50229 0.0
O608 O 0.54809 0.49101 0.49738 0.0
Mn609 Mn 0.53329 0.47165 0.50732 0.0
O610 O 0.47351 0.48583 0.50712 0.0
O611 O 0.48765 0.52515 0.5086 0.0
Mn612 Mn 0.46843 0.52755 0.49279 0.0
O613 O 0.49228 0.50061 0.47325 0.0
O614 O 0.45203 0.50753 0.49732 0.0
O615 O 0.5068 0.49688 0.53124 0.0
O616 O 0.52821 0.47306 0.53297 0.0
O617 O 0.46747 0.54909 0.50691 0.0
O618 O 0.47792 0.52831 0.46857 0.0
C619 C 0.51393 0.45738 0.48901 0.0
C620 C 0.54244 0.50804 0.49484 0.0
C621 C 0.45642 0.49094 0.50323 0.0
C622 C 0.48231 0.54174 0.51489 0.0
C623 C 0.48492 0.51304 0.46214 0.0
C624 C 0.51746 0.48538 0.54076 0.0
O625 O 0.5111 0.47399 0.4963 0.0
O626 O 0.52973 0.44945 0.49395 0.0
O627 O 0.97733 0.48758 -0.00341 0.0
Mn628 Mn 0.00141 0.5041 0.00076 0.0
O629 O 0.95246 0.50759 -0.00153 0.0
Mn630 Mn 0.96625 0.5288 0.00537 0.0
O631 O 0.02545 0.52076 0.00457 0.0
O632 O 0.01491 0.48002 0.00873 0.0
Mn633 Mn 0.03812 0.48023 -0.00039 0.0
O634 O 0.0093 0.49988 0.97266 0.0
O635 O 0.04994 0.50114 0.01012 0.0
O636 O -0.00564 0.50804 0.0293 0.0
O637 O 0.97252 0.53109 0.0306 0.0
O638 O 0.03597 0.45764 0.01254 0.0
O639 O 0.03522 0.48105 0.9735 0.0
C640 C 0.98158 0.54401 0.98466 0.0
C641 C 0.95955 0.49119 -0.00436 0.0
C642 C 0.04272 0.51769 0.00925 0.0
C643 C 0.01886 0.46346 0.01574 0.0
C644 C 0.02265 0.4905 0.96448 0.0
C645 C 0.98411 0.51986 0.03861 0.0
O646 O 0.98765 0.52825 0.99229 0.0
O647 O 0.96522 0.54993 0.99063 0.0
H648 H 0.01638 0.18487 0.11653 0.0
H649 H 0.01601 0.15325 0.102 0.0
H650 H 0.97919 0.17408 0.05781 0.0
H651 H 0.97965 0.20588 0.07218 0.0
H652 H 0.98504 0.12782 0.0917 0.0
H653 H 0.02657 0.15321 0.0296 0.0
H654 H 0.02464 0.16673 0.0513 0.0
H655 H 0.00538 0.16649 0.03462 0.0
C656 C 0.00819 0.18274 0.10371 0.0
C657 C -0.00167 0.19797 0.09528 0.0
C658 C 0.00791 0.16462 0.0955 0.0
C659 C -0.00217 0.16138 0.07867 0.0
C660 C 0.98736 0.17637 0.07062 0.0
H661 H 0.97673 0.0747 -0.00148 0.0
H662 H 0.98389 0.10352 0.01613 0.0
C663 C 0.98764 0.19453 0.07882 0.0
C664 C -0.00087 0.14265 0.06898 0.0
H665 H 0.01458 0.12178 0.02805 0.0
C666 C 0.99162 0.1264 0.07785 0.0
C667 C 0.00787 0.14084 0.051 0.0
C668 C 0.01674 0.15769 0.04109 0.0
C669 C 0.99179 0.10853 0.06876 0.0
C670 C 0.0002 0.10681 0.05053 0.0
C671 C 0.00826 0.12301 0.04203 0.0
C672 C -0.00138 0.08913 0.03893 0.0
C673 C 0.98211 0.09193 0.07832 0.0
C674 C 0.00546 0.07137 0.04524 0.0
C675 C 0.00132 0.05464 0.03505 0.0
C676 C 0.99038 0.05558 0.01841 0.0
C677 C 0.98522 0.07354 0.01129 0.0
C678 C 0.9892 0.09006 0.02144 0.0
H679 H 0.97335 0.09648 0.09063 0.0
H680 H 0.97287 0.08425 0.06813 0.0
H681 H 0.99299 0.08182 0.08357 0.0
H682 H 0.01329 0.07033 0.0584 0.0
H683 H 0.00538 0.04099 0.04093 0.0
H684 H 0.04085 0.7547 0.31861 0.0
H685 H 0.07128 0.75324 0.30182 0.0
H686 H 0.09919 0.7367 0.35372 0.0
H687 H 0.06887 0.73828 0.37067 0.0
H688 H 0.10734 0.7742 0.31369 0.0
H689 H 0.11188 0.69507 0.31156 0.0
H690 H 0.08969 0.70742 0.31518 0.0
H691 H 0.10658 0.70579 0.33414 0.0
C692 C 0.05348 0.75075 0.32641 0.0
C693 C 0.0526 0.74662 0.34588 0.0
C694 C 0.07078 0.74998 0.31685 0.0
C695 C 0.08728 0.74483 0.3266 0.0
C696 C 0.08648 0.74065 0.34603 0.0
H697 H 0.20251 0.72533 0.30544 0.0
H698 H 0.17078 0.73147 0.31726 0.0
C699 C 0.06922 0.74161 0.35566 0.0
C700 C 0.10539 0.74373 0.31638 0.0
H701 H 0.13845 0.71228 0.30049 0.0
C702 C 0.11412 0.7607 0.31056 0.0
C703 C 0.11403 0.72606 0.31254 0.0
C704 C 0.10507 0.70749 0.31855 0.0
C705 C 0.13178 0.76044 0.30138 0.0
C706 C 0.14047 0.74274 0.29767 0.0
C707 C 0.13149 0.72579 0.30316 0.0
C708 C 0.15991 0.74132 0.29031 0.0
C709 C 0.14146 0.77895 0.29652 0.0
C710 C 0.1643 0.74522 0.27123 0.0
C711 C 0.18265 0.74178 0.26435 0.0
C712 C 0.19643 0.73401 0.27646 0.0
C713 C 0.19196 0.73068 0.29561 0.0
C714 C 0.17392 0.73437 0.30247 0.0
H715 H 0.13336 0.7915 0.30167 0.0
H716 H 0.15587 0.77929 0.30286 0.0
H717 H 0.14311 0.78011 0.2809 0.0
H718 H 0.15349 0.7505 0.26167 0.0
H719 H 0.18594 0.74473 0.24961 0.0
H720 H 0.51271 0.82029 0.61946 0.0
H721 H 0.51259 0.85175 0.60456 0.0
H722 H 0.49674 0.82642 0.55117 0.0
H723 H 0.49696 0.79475 0.56598 0.0
H724 H 0.53368 0.86431 0.56948 0.0
H725 H 0.45499 0.86825 0.56455 0.0
H726 H 0.46698 0.85258 0.58097 0.0
H727 H 0.4661 0.84675 0.5562 0.0
C728 C 0.50929 0.82139 0.60452 0.0
C729 C 0.50473 0.80508 0.59388 0.0
C730 C 0.50925 0.83936 0.59604 0.0
C731 C 0.50442 0.84138 0.57687 0.0
C732 C 0.5003 0.82511 0.56607 0.0
H733 H 0.49883 0.93341 0.49745 0.0
H734 H 0.49249 0.90434 0.51556 0.0
C735 C 0.50051 0.80706 0.5745 0.0
C736 C 0.50342 0.86059 0.56827 0.0
H737 H 0.47237 0.89348 0.55068 0.0
C738 C 0.5203 0.87077 0.56546 0.0
C739 C 0.48592 0.8689 0.56309 0.0
C740 C 0.46739 0.85869 0.56643 0.0
C741 C 0.52015 0.88895 0.55717 0.0
C742 C 0.50261 0.89729 0.55197 0.0
C743 C 0.48574 0.88712 0.55486 0.0
C744 C 0.50181 0.91605 0.54235 0.0
C745 C 0.5388 0.89884 0.55343 0.0
C746 C 0.5078 0.93263 0.55171 0.0
C747 C 0.51111 0.94935 0.54141 0.0
C748 C 0.50841 0.94964 0.52169 0.0
C749 C 0.50052 0.93366 0.51274 0.0
C750 C 0.49716 0.91697 0.52303 0.0
H751 H 0.55111 0.88915 0.55535 0.0
H752 H 0.53917 0.90463 0.53876 0.0
H753 H 0.54042 0.91094 0.56341 0.0
H754 H 0.51126 0.93224 0.56668 0.0
H755 H 0.51764 0.96136 0.54849 0.0
H756 H 0.44011 0.27474 0.87065 0.0
H757 H 0.4082 0.27787 0.8574 0.0
H758 H 0.42243 0.23766 0.81342 0.0
H759 H 0.45471 0.23475 0.82643 0.0
H760 H 0.39942 0.28472 0.8118 0.0
H761 H 0.3722 0.22046 0.84952 0.0
H762 H 0.39198 0.23409 0.85855 0.0
H763 H 0.39502 0.21942 0.83798 0.0
C764 C 0.43644 0.26666 0.85809 0.0
C765 C 0.44968 0.25448 0.84951 0.0
C766 C 0.41831 0.26851 0.85056 0.0
C767 C 0.41314 0.25794 0.83458 0.0
C768 C 0.42637 0.24592 0.82578 0.0
H769 H 0.31914 0.23137 0.76949 0.0
H770 H 0.34666 0.23325 0.79014 0.0
C771 C 0.44469 0.24431 0.83314 0.0
C772 C 0.39363 0.25914 0.82753 0.0
H773 H 0.35111 0.23626 0.82893 0.0
C774 C 0.38872 0.27429 0.8156 0.0
C775 C 0.37996 0.24547 0.83274 0.0
C776 C 0.38489 0.22892 0.84546 0.0
C777 C 0.37043 0.27567 0.80798 0.0
C778 C 0.35674 0.26179 0.81295 0.0
C779 C 0.36158 0.24704 0.82547 0.0
C780 C 0.33866 0.26021 0.80264 0.0
C781 C 0.36622 0.29123 0.79382 0.0
C782 C 0.3247 0.2745 0.80335 0.0
C783 C 0.3088 0.27342 0.79145 0.0
C784 C 0.30698 0.25806 0.77891 0.0
C785 C 0.3204 0.24335 0.7791 0.0
C786 C 0.33607 0.2444 0.79087 0.0
H787 H 0.37914 0.29936 0.78981 0.0
H788 H 0.35987 0.28513 0.78075 0.0
H789 H 0.35582 0.30131 0.80003 0.0
H790 H 0.32642 0.28669 0.81258 0.0
H791 H 0.29857 0.28491 0.79135 0.0
H792 H 0.02775 0.79921 0.41404 0.0
H793 H 0.02595 0.83125 0.42811 0.0
H794 H 0.96949 0.83801 0.4055 0.0
H795 H 0.97147 0.80626 0.39111 0.0
H796 H 0.01703 0.86684 0.40571 0.0
H797 H 0.96692 0.85029 0.46457 0.0
H798 H 0.98113 0.8323 0.45304 0.0
H799 H 0.96045 0.84157 0.44145 0.0
C800 C 0.01496 0.80759 0.41229 0.0
C801 C -0.0003 0.80057 0.40169 0.0
C802 C 0.01397 0.82577 0.42021 0.0
C803 C -0.00246 0.83679 0.41785 0.0
C804 C 0.98219 0.82959 0.40749 0.0
H805 H 0.96725 0.94644 0.46752 0.0
H806 H 0.96649 0.91901 0.44567 0.0
C807 C 0.98333 0.81159 0.39931 0.0
C808 C -0.00344 0.85611 0.42575 0.0
H809 H 0.97477 0.88259 0.45985 0.0
C810 C 0.00777 0.87037 0.41751 0.0
C811 C 0.98438 0.8605 0.44103 0.0
C812 C 0.9726 0.84538 0.45069 0.0
C813 C 0.00716 0.8891 0.42429 0.0
C814 C -0.00484 0.89346 0.43977 0.0
C815 C 0.9837 0.87922 0.44776 0.0
C816 C -0.00387 0.91191 0.44962 0.0
C817 C 0.01943 0.90401 0.41493 0.0
C818 C 0.01306 0.91703 0.45865 0.0
C819 C 0.01344 0.93242 0.47099 0.0
C820 C -0.00309 0.94288 0.47449 0.0
C821 C 0.98014 0.93852 0.46478 0.0
C822 C 0.97972 0.92295 0.45241 0.0
H823 H 0.02295 0.90007 0.40006 0.0
H824 H 0.01236 0.91813 0.41494 0.0
H825 H 0.03296 0.90528 0.42287 0.0
H826 H 0.02572 0.90843 0.45706 0.0
H827 H 0.02645 0.93562 0.47854 0.0
H828 H 0.45198 0.72297 0.66279 0.0
H829 H 0.42063 0.7219 0.67797 0.0
H830 H 0.40791 0.77755 0.65539 0.0
H831 H 0.43876 0.77828 0.6396 0.0
H832 H 0.4068 0.74423 0.70476 0.0
H833 H 0.36006 0.75017 0.64198 0.0
H834 H 0.38505 0.74499 0.64001 0.0
H835 H 0.37703 0.76915 0.64293 0.0
C836 C 0.44242 0.73491 0.66104 0.0
C837 C 0.44778 0.75073 0.65009 0.0
C838 C 0.42451 0.73428 0.66964 0.0
C839 C 0.41175 0.74954 0.6676 0.0
C840 C 0.41721 0.76537 0.65674 0.0
H841 H 0.30999 0.77168 0.7382 0.0
H842 H 0.33834 0.77758 0.71817 0.0
C843 C 0.43494 0.76586 0.64788 0.0
C844 C 0.3933 0.74951 0.67784 0.0
H845 H 0.34546 0.75525 0.6721 0.0
C846 C 0.39343 0.74671 0.69759 0.0
C847 C 0.37576 0.75252 0.66848 0.0
C848 C 0.3744 0.75417 0.64717 0.0
C849 C 0.37658 0.74703 0.7082 0.0
C850 C 0.35919 0.75054 0.69891 0.0
C851 C 0.35895 0.75324 0.67921 0.0
C852 C 0.34096 0.74828 0.70902 0.0
C853 C 0.37731 0.74288 0.7292 0.0
C854 C 0.33288 0.73017 0.70975 0.0
C855 C 0.31677 0.72696 0.72064 0.0
C856 C 0.30848 0.74173 0.73131 0.0
C857 C 0.316 0.76017 0.72994 0.0
C858 C 0.33221 0.76345 0.71871 0.0
H859 H 0.39208 0.74258 0.73469 0.0
H860 H 0.3691 0.75371 0.73719 0.0
H861 H 0.37068 0.72881 0.73198 0.0
H862 H 0.33948 0.71831 0.70247 0.0
H863 H 0.31137 0.71254 0.72158 0.0
H864 H 0.51935 0.20913 0.92813 0.0
H865 H 0.52212 0.17869 0.94462 0.0
H866 H 0.49577 0.15025 0.89721 0.0
H867 H 0.49315 0.18067 0.88046 0.0
H868 H 0.48953 0.15661 0.95335 0.0
H869 H 0.54247 0.11668 0.91029 0.0
H870 H 0.54033 0.14229 0.90932 0.0
H871 H 0.52346 0.12753 0.8972 0.0
C872 C 0.51427 0.19638 0.92117 0.0
C873 C 0.50584 0.19719 0.90317 0.0
C874 C 0.51596 0.17905 0.93054 0.0
C875 C 0.50929 0.16238 0.92199 0.0
C876 C 0.50126 0.16303 0.90382 0.0
H877 H 0.48458 0.0503 0.96032 0.0
H878 H 0.48315 0.08241 0.94685 0.0
C879 C 0.49961 0.18038 0.8944 0.0
C880 C 0.50899 0.14467 0.93295 0.0
H881 H 0.526 0.09936 0.93422 0.0
C882 C 0.49761 0.14412 0.94929 0.0
C883 C 0.51953 0.12854 0.92742 0.0
C884 C 0.53227 0.12873 0.91018 0.0
C885 C 0.49627 0.12759 0.9602 0.0
C886 C 0.50664 0.11147 0.9546 0.0
C887 C 0.51815 0.11198 0.93836 0.0
C888 C 0.5052 0.09358 0.96503 0.0
C889 C 0.48365 0.12722 0.97749 0.0
C890 C 0.51763 0.08977 0.98005 0.0
C891 C 0.5185 0.07148 0.98767 0.0
C892 C 0.50673 0.05719 0.98042 0.0
C893 C 0.49336 0.06142 0.96636 0.0
C894 C 0.49267 0.07957 0.95858 0.0
H895 H 0.47595 0.14085 0.97955 0.0
H896 H 0.47313 0.11552 0.97617 0.0
H897 H 0.49235 0.12428 0.99029 0.0
H898 H 0.52737 0.10059 0.98504 0.0
H899 H 0.52915 0.06819 -0.00174 0.0
H900 H 0.04383 0.23187 0.17023 0.0
H901 H 0.07427 0.23242 0.18719 0.0
H902 H 0.09444 0.27652 0.14968 0.0
H903 H 0.06422 0.27557 0.13226 0.0
H904 H 0.11647 0.23115 0.16745 0.0
H905 H 0.09522 0.29407 0.21052 0.0
H906 H 0.07795 0.27824 0.20006 0.0
H907 H 0.09081 0.29457 0.18532 0.0
C908 C 0.0548 0.24165 0.16562 0.0
C909 C 0.05172 0.25377 0.15008 0.0
C910 C 0.07217 0.24187 0.17522 0.0
C911 C 0.08653 0.25453 0.16969 0.0
C912 C 0.08353 0.26659 0.15408 0.0
H913 H 0.19232 0.29383 0.21336 0.0
H914 H 0.16096 0.28916 0.19984 0.0
C915 C 0.06631 0.26606 0.14419 0.0
C916 C 0.1043 0.25578 0.18083 0.0
H917 H 0.12631 0.28254 0.21469 0.0
C918 C 0.11865 0.24227 0.17788 0.0
C919 C 0.10703 0.27035 0.19434 0.0
C920 C 0.09196 0.28515 0.19793 0.0
C921 C 0.13596 0.24328 0.18781 0.0
C922 C 0.13871 0.25791 0.2014 0.0
C923 C 0.12415 0.27122 0.20446 0.0
C924 C 0.15717 0.26083 0.21125 0.0
C925 C 0.1514 0.22918 0.18309 0.0
C926 C 0.16528 0.24676 0.22292 0.0
C927 C 0.1834 0.24942 0.23081 0.0
C928 C 0.19369 0.26618 0.22712 0.0
C929 C 0.18493 0.28066 0.21642 0.0
C930 C 0.16695 0.278 0.2086 0.0
H931 H 0.1485 0.22149 0.16963 0.0
H932 H 0.16534 0.23644 0.18184 0.0
H933 H 0.15243 0.2185 0.19465 0.0
H934 H 0.1578 0.23356 0.22559 0.0
H935 H 0.18968 0.23802 0.23897 0.0
H936 H 0.12208 0.97567 0.18747 0.0
H937 H 0.10499 0.97308 0.15716 0.0
H938 H 0.06504 0.01548 0.17608 0.0
H939 H 0.08173 0.01778 0.20651 0.0
H940 H 0.06075 0.96536 0.15581 0.0
H941 H 0.08692 0.03113 0.12022 0.0
H942 H 0.10065 0.01866 0.13795 0.0
H943 H 0.08059 0.03266 0.14497 0.0
C944 C 0.10975 0.98454 0.18506 0.0
C945 C 0.10314 -0.00313 0.19931 0.0
C946 C 0.1 0.98302 0.16781 0.0
C947 C 0.08381 0.99413 0.16445 0.0
C948 C 0.07753 0.00682 0.17845 0.0
H949 H 0.01258 0.00863 0.06407 0.0
H950 H 0.02452 0.01071 0.09675 0.0
C951 C 0.08703 0.00808 0.1958 0.0
C952 C 0.07287 0.99194 0.14668 0.0
H953 H 0.06287 0.01388 0.10465 0.0
C954 C 0.06119 0.97592 0.14458 0.0
C955 C 0.0734 0.00585 0.13223 0.0
C956 C 0.08611 0.02305 0.13376 0.0
C957 C 0.04989 0.97349 0.12834 0.0
C958 C 0.05058 0.98731 0.11372 0.0
C959 C 0.06218 0.00341 0.11595 0.0
C960 C 0.04076 0.98461 0.09528 0.0
C961 C 0.03719 0.95625 0.12711 0.0
C962 C 0.04551 0.96903 0.08382 0.0
C963 C 0.03872 0.9678 0.06529 0.0
C964 C 0.02712 0.98221 0.05768 0.0
C965 C 0.02143 -0.00272 0.06951 0.0
C966 C 0.02833 -0.00147 0.08814 0.0
H967 H 0.03365 0.95063 0.14143 0.0
H968 H 0.02381 0.95959 0.11952 0.0
H969 H 0.04467 0.94483 0.11922 0.0
H970 H 0.05532 0.95829 0.08884 0.0
H971 H 0.04329 0.95592 0.05662 0.0
H972 H 0.24327 0.82196 0.45634 0.0
H973 H 0.24484 0.80758 0.4246 0.0
H974 H 0.26924 0.85928 0.40232 0.0
H975 H 0.2676 0.87376 0.43381 0.0
H976 H 0.22743 0.8249 0.38948 0.0
H977 H 0.30564 0.81399 0.38623 0.0
H978 H 0.29289 0.81617 0.40838 0.0
H979 H 0.29743 0.83689 0.39421 0.0
C980 C 0.24905 0.83017 0.44467 0.0
C981 C 0.25529 0.84894 0.44743 0.0
C982 C 0.24989 0.822 0.42662 0.0
C983 C 0.25724 0.83242 0.41129 0.0
C984 C 0.26365 0.85105 0.41408 0.0
H985 H 0.27078 0.79195 0.29308 0.0
H986 H 0.26981 0.81457 0.31988 0.0
C987 C 0.26264 0.85928 0.43202 0.0
C988 C 0.25784 0.824 0.3922 0.0
H989 H 0.28808 0.80604 0.35895 0.0
C990 C 0.24067 0.82092 0.38269 0.0
C991 C 0.27518 0.81899 0.38349 0.0
C992 C 0.29388 0.82152 0.39357 0.0
C993 C 0.24039 0.81247 0.3647 0.0
C994 C 0.2577 0.80696 0.35621 0.0
C995 C 0.2749 0.81065 0.36544 0.0
C996 C 0.258 0.7942 0.3397 0.0
C997 C 0.22158 0.8089 0.35516 0.0
C998 C 0.25207 0.77543 0.3423 0.0
C999 C 0.25295 0.7626 0.32741 0.0
C1000 C 0.25971 0.76827 0.30945 0.0
C1001 C 0.26563 0.78719 0.30678 0.0
C1002 C 0.265 0.80008 0.32196 0.0
H1003 H 0.21031 0.81838 0.36083 0.0
H1004 H 0.2227 0.81101 0.33957 0.0
H1005 H 0.2172 0.79395 0.35778 0.0
H1006 H 0.24684 0.77064 0.35597 0.0
H1007 H 0.24795 0.74824 0.32997 0.0
H1008 H 0.41615 0.03338 0.70348 0.0
H1009 H 0.43144 0.03664 0.67246 0.0
H1010 H 0.41036 0.98131 0.65627 0.0
H1011 H 0.39437 0.97836 0.68698 0.0
H1012 H 0.45918 0.01401 0.66116 0.0
H1013 H 0.40121 0.01089 0.60822 0.0
H1014 H 0.3969 0.01532 0.6331 0.0
H1015 H 0.4004 0.99141 0.62466 0.0
C1016 C 0.41469 0.022 0.69321 0.0
C1017 C 0.40443 0.00549 0.69763 0.0
C1018 C 0.42327 0.02394 0.67549 0.0
C1019 C 0.42193 0.00928 0.66204 0.0
C1020 C 0.41122 0.99297 0.66627 0.0
H1021 H 0.48128 0.98291 0.5579 0.0
H1022 H 0.46689 0.9803 0.58953 0.0
C1023 C 0.40233 0.99119 0.68388 0.0
C1024 C 0.43371 0.01001 0.64472 0.0
H1025 H 0.43272 0.0057 0.59651 0.0
C1026 C 0.45336 0.01234 0.64702 0.0
C1027 C 0.42606 0.00781 0.62631 0.0
C1028 C 0.40497 0.00641 0.62288 0.0
C1029 C 0.46564 0.01221 0.63142 0.0
C1030 C 0.45808 0.00955 0.61313 0.0
C1031 C 0.43843 0.00736 0.61071 0.0
C1032 C 0.4702 0.01017 0.59613 0.0
C1033 C 0.48664 0.01478 0.63457 0.0
C1034 C 0.47761 0.02763 0.59002 0.0
C1035 C 0.4858 0.02912 0.57209 0.0
C1036 C 0.48671 0.01316 0.56015 0.0
C1037 C 0.48106 -0.0047 0.56705 0.0
C1038 C 0.47259 0.99386 0.58493 0.0
H1039 H 0.49058 0.01299 0.64973 0.0
H1040 H 0.49484 0.00445 0.6259 0.0
H1041 H 0.49082 0.02932 0.63004 0.0
H1042 H 0.47576 0.04035 0.5985 0.0
H1043 H 0.48987 0.04306 0.56688 0.0
H1044 H 0.22811 0.17302 0.95696 0.0
H1045 H 0.22773 0.18824 0.9256 0.0
H1046 H 0.27016 0.14862 0.9059 0.0
H1047 H 0.2701 0.13302 0.93687 0.0
H1048 H 0.25704 0.20593 0.90813 0.0
H1049 H 0.23206 0.14615 0.86331 0.0
H1050 H 0.23002 0.146 0.88884 0.0
H1051 H 0.25219 0.14006 0.87764 0.0
C1052 C 0.23726 0.16754 0.94587 0.0
C1053 C 0.24917 0.15192 0.94928 0.0
C1054 C 0.237 0.17618 0.92799 0.0
C1055 C 0.24876 0.16938 0.91336 0.0
C1056 C 0.26063 0.15377 0.91681 0.0
H1057 H 0.25978 0.21412 0.79602 0.0
H1058 H 0.26981 0.19808 0.82573 0.0
C1059 C 0.2607 0.14499 0.93456 0.0
C1060 C 0.24954 0.17936 0.89487 0.0
H1061 H 0.24379 0.17327 0.84715 0.0
C1062 C 0.25425 0.19875 0.89479 0.0
C1063 C 0.2459 0.16996 0.87749 0.0
C1064 C 0.23957 0.14945 0.87677 0.0
C1065 C 0.25519 0.20908 0.87781 0.0
C1066 C 0.25139 0.19974 0.86045 0.0
C1067 C 0.24722 0.18023 0.86045 0.0
C1068 C 0.24758 0.2106 0.84293 0.0
C1069 C 0.25961 0.23008 0.87868 0.0
C1070 C 0.23195 0.22274 0.84293 0.0
C1071 C 0.22627 0.23157 0.82636 0.0
C1072 C 0.23591 0.22839 0.80911 0.0
C1073 C 0.25206 0.21671 0.80906 0.0
C1074 C 0.25776 0.20763 0.82595 0.0
H1075 H 0.26821 0.2336 0.89141 0.0
H1076 H 0.26732 0.23489 0.86579 0.0
H1077 H 0.24612 0.23818 0.8797 0.0
H1078 H 0.22364 0.22492 0.85571 0.0
H1079 H 0.21391 0.24071 0.82713 0.0
H1080 H 0.07232 0.00042 0.29312 0.0
H1081 H 0.05625 0.00146 0.32398 0.0
H1082 H 0.11039 -0.00081 0.35234 0.0
H1083 H 0.12652 -0.00152 0.32161 0.0
H1084 H 0.05842 0.97322 0.35144 0.0
H1085 H 0.08341 0.04215 0.38061 0.0
H1086 H 0.08488 0.03638 0.35568 0.0
H1087 H 0.10207 0.02704 0.37204 0.0
C1088 C 0.08078 0.00023 0.30594 0.0
C1089 C 0.10066 -0.00081 0.30497 0.0
C1090 C 0.0716 0.0009 0.32355 0.0
C1091 C 0.08213 0.00056 0.34046 0.0
C1092 C 0.10199 -0.00017 0.33949 0.0
H1093 H 0.05004 0.00329 0.45959 0.0
H1094 H 0.0678 -0.00464 0.43066 0.0
C1095 C 0.11118 -0.00076 0.32191 0.0
C1096 C 0.07232 -0.0006 0.35906 0.0
H1097 H 0.06754 0.02145 0.40195 0.0
C1098 C 0.06038 0.98378 0.36249 0.0
C1099 C 0.07495 0.01316 0.37346 0.0
C1100 C 0.08688 0.03073 0.37027 0.0
C1101 C 0.05117 0.98138 0.38001 0.0
C1102 C 0.05381 -0.00491 0.39445 0.0
C1103 C 0.06579 0.01073 0.39101 0.0
C1104 C 0.04302 0.99458 0.41257 0.0
C1105 C 0.03883 0.96407 0.3829 0.0
C1106 C 0.02315 -0.00436 0.41221 0.0
C1107 C 0.01306 -0.00034 0.42878 0.0
C1108 C 0.02264 0.0029 0.44593 0.0
C1109 C 0.04231 0.00016 0.4467 0.0
C1110 C 0.05246 -0.00398 0.43009 0.0
H1111 H 0.04325 0.95219 0.37348 0.0
H1112 H 0.03925 0.95908 0.39785 0.0
H1113 H 0.02395 0.96774 0.3793 0.0
H1114 H 0.01554 -0.00494 0.39888 0.0
H1115 H -0.00205 0.00232 0.42775 0.0
H1116 H 0.25329 0.82005 0.53958 0.0
H1117 H 0.25109 0.80329 0.56987 0.0
H1118 H 0.24309 0.8567 0.59893 0.0
H1119 H 0.24509 0.87367 0.56855 0.0
H1120 H 0.27555 0.81008 0.60201 0.0
H1121 H 0.19899 0.82188 0.61792 0.0
H1122 H 0.20866 0.82459 0.59431 0.0
H1123 H 0.2128 0.84256 0.61191 0.0
C1124 C 0.25104 0.82824 0.5524 0.0
C1125 C 0.24945 0.84814 0.55177 0.0
C1126 C 0.24976 0.81865 0.56964 0.0
C1127 C 0.24681 0.82879 0.58648 0.0
C1128 C 0.24513 0.84867 0.58597 0.0
H1129 H 0.24367 0.799 0.70326 0.0
H1130 H 0.24824 0.81387 0.67232 0.0
C1131 C 0.24639 0.85831 0.56868 0.0
C1132 C 0.24626 0.81844 0.60461 0.0
H1133 H 0.21714 0.80586 0.64116 0.0
C1134 C 0.26277 0.80902 0.61055 0.0
C1135 C 0.22955 0.81729 0.61562 0.0
C1136 C 0.21142 0.82699 0.60964 0.0
C1137 C 0.26303 0.7985 0.62742 0.0
C1138 C 0.24631 0.79721 0.6383 0.0
C1139 C 0.22982 0.80669 0.63245 0.0
C1140 C 0.246 0.7875 0.65671 0.0
C1141 C 0.28119 0.7892 0.63386 0.0
C1142 C 0.24368 0.76766 0.658 0.0
C1143 C 0.24099 0.75907 0.67577 0.0
C1144 C 0.24062 0.77042 0.6921 0.0
C1145 C 0.24387 0.79007 0.69072 0.0
C1146 C 0.24647 0.79857 0.67315 0.0
H1147 H 0.29321 0.79221 0.62409 0.0
H1148 H 0.28494 0.79433 0.64828 0.0
H1149 H 0.27912 0.77357 0.63476 0.0
H1150 H 0.24327 0.75903 0.64528 0.0
H1151 H 0.23845 0.7439 0.67668 0.0
H1152 H 0.42863 0.98503 0.79278 0.0
H1153 H 0.44261 0.98214 0.82447 0.0
H1154 H 0.3935 0.00948 0.84883 0.0
H1155 H 0.37928 0.01206 0.81729 0.0
H1156 H 0.45099 0.01185 0.84968 0.0
H1157 H 0.39899 0.96117 0.88105 0.0
H1158 H 0.40094 0.96508 0.85578 0.0
H1159 H 0.38902 0.98219 0.8705 0.0
C1160 C 0.42083 0.9904 0.80491 0.0
C1161 C 0.40289 -0.00128 0.80264 0.0
C1162 C 0.42878 0.98871 0.82296 0.0
C1163 C 0.41892 -0.00467 0.83895 0.0
C1164 C 0.40111 0.00388 0.83669 0.0
H1165 H 0.45691 0.0029 0.95673 0.0
H1166 H 0.43687 0.00386 0.92827 0.0
C1167 C 0.39309 0.00545 0.81867 0.0
C1168 C 0.42764 0.99388 0.85791 0.0
H1169 H 0.42272 0.97319 0.90153 0.0
C1170 C 0.44482 0.0034 0.86102 0.0
C1171 C 0.41938 0.983 0.87268 0.0
C1172 C 0.40114 0.97214 0.86988 0.0
C1173 C 0.45415 0.00214 0.87849 0.0
C1174 C 0.44618 0.99084 0.89306 0.0
C1175 C 0.42874 0.98175 0.89021 0.0
C1176 C 0.45643 0.98766 0.91098 0.0
C1177 C 0.4725 0.01288 0.88124 0.0
C1178 C 0.47351 0.97747 0.91075 0.0
C1179 C 0.48494 0.97698 0.92684 0.0
C1180 C 0.47931 0.98645 0.94345 0.0
C1181 C 0.46144 -0.0047 0.94414 0.0
C1182 C 0.45007 -0.00402 0.92791 0.0
H1183 H 0.47453 0.02407 0.87026 0.0
H1184 H 0.47291 0.01964 0.89548 0.0
H1185 H 0.48457 0.0028 0.88027 0.0
H1186 H 0.47843 0.97074 0.89782 0.0
H1187 H 0.49862 0.97 0.92602 0.0
H1188 H 0.23113 0.17231 0.04848 0.0
H1189 H 0.23206 0.18614 0.08058 0.0
H1190 H 0.27916 0.1497 0.09484 0.0
H1191 H 0.27799 0.13555 0.06309 0.0
H1192 H 0.23157 0.16069 0.11782 0.0
H1193 H 0.29333 0.20893 0.10687 0.0
H1194 H 0.27833 0.20116 0.08759 0.0
H1195 H 0.29522 0.18504 0.09775 0.0
C1196 C 0.24178 0.16746 0.05846 0.0
C1197 C 0.25453 0.15297 0.05346 0.0
C1198 C 0.24223 0.17524 0.07671 0.0
C1199 C 0.25572 0.16889 0.0899 0.0
C1200 C 0.26869 0.15472 0.08476 0.0
H1201 H 0.2842 0.21163 0.20293 0.0
H1202 H 0.2838 0.19081 0.1747 0.0
C1203 C 0.268 0.1467 0.06671 0.0
C1204 C 0.25615 0.17673 0.10924 0.0
H1205 H 0.28128 0.20639 0.13802 0.0
C1206 C 0.24242 0.17067 0.12231 0.0
C1207 C 0.27044 0.18957 0.11492 0.0
C1208 C 0.28516 0.19672 0.10109 0.0
C1209 C 0.24259 0.17723 0.1411 0.0
C1210 C 0.25675 0.19031 0.14676 0.0
C1211 C 0.27064 0.19612 0.1337 0.0
C1212 C 0.25602 0.20002 0.1653 0.0
C1213 C 0.2276 0.17018 0.1547 0.0
C1214 C 0.24049 0.21173 0.16937 0.0
C1215 C 0.24071 0.22337 0.18528 0.0
C1216 C 0.25649 0.22358 0.19737 0.0
C1217 C 0.27179 0.21135 0.19389 0.0
C1218 C 0.27158 0.19962 0.1778 0.0
H1219 H 0.22187 0.15615 0.15024 0.0
H1220 H 0.23328 0.1689 0.16934 0.0
H1221 H 0.21563 0.18043 0.15493 0.0
H1222 H 0.22861 0.21268 0.15968 0.0
H1223 H 0.22892 0.23299 0.18765 0.0
H1224 H 0.205 0.08102 0.9747 0.0
H1225 H 0.173 0.06774 0.97155 0.0
H1226 H 0.15604 0.09627 0.02306 0.0
H1227 H 0.18777 0.11 0.02597 0.0
H1228 H 0.15322 0.0446 -0.00395 0.0
H1229 H 0.11509 0.113 0.98623 0.0
H1230 H 0.14055 0.11107 0.9843 0.0
H1231 H 0.1294 0.11209 0.00725 0.0
C1232 C 0.19444 0.08437 0.98538 0.0
C1233 C 0.19877 0.09654 0.00055 0.0
C1234 C 0.17619 0.07686 0.98353 0.0
C1235 C 0.16207 0.08136 -0.00314 0.0
C1236 C 0.16657 0.09307 0.01233 0.0
H1237 H 0.04735 0.04117 0.0159 0.0
H1238 H 0.07708 0.0594 0.01668 0.0
C1239 C 0.18473 0.10075 0.01406 0.0
C1240 C 0.14278 0.07336 -0.0051 0.0
H1241 H 0.09604 0.08547 0.99081 0.0
C1242 C 0.14072 0.05352 -0.00524 0.0
C1243 C 0.12652 0.08508 0.99333 0.0
C1244 C 0.12796 0.10649 0.9926 0.0
C1245 C 0.12279 0.04504 0.99338 0.0
C1246 C 0.10654 0.05676 0.99178 0.0
C1247 C 0.10856 0.07659 0.99201 0.0
C1248 C 0.08735 0.04855 0.98981 0.0
C1249 C 0.12135 0.02361 0.99404 0.0
C1250 C 0.0829 0.03742 0.97394 0.0
C1251 C 0.06602 0.02711 0.97347 0.0
C1252 C 0.05323 0.02801 0.98875 0.0
C1253 C 0.05683 0.04057 0.00379 0.0
C1254 C 0.07388 0.05077 0.00435 0.0
H1255 H 0.13455 0.01696 -0.00045 0.0
H1256 H 0.10926 0.01907 0.0031 0.0
H1257 H 0.11889 0.01811 0.97949 0.0
H1258 H 0.09297 0.03588 0.96241 0.0
H1259 H 0.06356 0.01738 0.9618 0.0
H1260 H 0.68438 0.37976 0.98629 0.0
H1261 H 0.65353 0.39574 0.98885 0.0
H1262 H 0.67846 0.43838 0.02513 0.0
H1263 H 0.7093 0.42286 0.02224 0.0
H1264 H 0.63126 0.40532 0.0209 0.0
H1265 H 0.65569 0.4692 0.98139 0.0
H1266 H 0.66875 0.44712 0.98152 0.0
H1267 H 0.67041 0.46322 0.00128 0.0
C1268 C 0.68321 0.39254 -0.0052 0.0
C1269 C 0.69918 0.40032 0.00383 0.0
C1270 C 0.66565 0.40158 -0.00372 0.0
C1271 C 0.66394 0.41837 0.00688 0.0
C1272 C 0.6797 0.42566 0.01653 0.0
H1273 H 0.56838 0.48751 0.04088 0.0
H1274 H 0.59984 0.47246 0.03815 0.0
C1275 C 0.69725 0.4168 0.01488 0.0
C1276 C 0.64584 0.4287 0.00748 0.0
H1277 H 0.6258 0.47156 -0.00314 0.0
C1278 C 0.63001 0.41976 0.01561 0.0
C1279 C 0.64434 0.44745 0.00034 0.0
C1280 C 0.66065 0.45727 0.99047 0.0
C1281 C 0.6127 0.4294 0.0172 0.0
C1282 C 0.61144 0.44829 0.01052 0.0
C1283 C 0.62712 0.45712 0.00217 0.0
C1284 C 0.5936 0.45886 0.01133 0.0
C1285 C 0.59583 0.41945 0.02591 0.0
C1286 C 0.5804 0.45672 -0.0033 0.0
C1287 C 0.56289 0.46571 -0.00207 0.0
C1288 C 0.55838 0.47665 0.01395 0.0
C1289 C 0.57185 0.47935 0.0283 0.0
C1290 C 0.58958 0.47066 0.02686 0.0
H1291 H 0.59959 0.40528 0.03183 0.0
H1292 H 0.58967 0.42833 0.0374 0.0
H1293 H 0.5847 0.4175 0.01495 0.0
H1294 H 0.5834 0.44757 0.98469 0.0
H1295 H 0.55238 0.46305 0.98702 0.0
H1296 H 0.82606 0.45757 0.23932 0.0
H1297 H 0.8116 0.42584 0.24116 0.0
H1298 H 0.86195 0.40421 0.26838 0.0
H1299 H 0.87652 0.43572 0.2665 0.0
H1300 H 0.82964 0.39085 0.22506 0.0
H1301 H 0.81529 0.38787 0.30275 0.0
H1302 H 0.81785 0.41 0.28993 0.0
H1303 H 0.83842 0.39613 0.29564 0.0
C1304 C 0.83397 0.44605 0.24576 0.0
C1305 C 0.85241 0.44899 0.2527 0.0
C1306 C 0.82573 0.42801 0.24679 0.0
C1307 C 0.83574 0.41286 0.25502 0.0
C1308 C 0.85402 0.41584 0.26215 0.0
H1309 H 0.79663 0.29372 0.26787 0.0
H1310 H 0.8189 0.32092 0.26772 0.0
C1311 C 0.86233 0.43378 0.26096 0.0
C1312 C 0.82747 0.39367 0.25541 0.0
H1313 H 0.8091 0.36004 0.2851 0.0
C1314 C 0.8253 0.384 0.23818 0.0
C1315 C 0.82192 0.38493 0.2726 0.0
C1316 C 0.82332 0.39524 0.29132 0.0
C1317 C 0.81735 0.36577 0.23764 0.0
C1318 C 0.81141 0.35715 0.25478 0.0
C1319 C 0.8141 0.36659 0.27208 0.0
C1320 C 0.79902 0.34034 0.25458 0.0
C1321 C 0.81471 0.35611 0.21871 0.0
C1322 C 0.78066 0.34256 0.24754 0.0
C1323 C 0.7681 0.32744 0.24782 0.0
C1324 C 0.77356 0.30964 0.25516 0.0
C1325 C 0.79208 0.30728 0.26215 0.0
C1326 C 0.80474 0.32271 0.26205 0.0
H1327 H 0.82458 0.36189 0.20783 0.0
H1328 H 0.81694 0.34051 0.21993 0.0
H1329 H 0.79999 0.35856 0.21369 0.0
H1330 H 0.77597 0.35614 0.24195 0.0
H1331 H 0.75404 0.32976 0.24207 0.0
H1332 H 0.81359 0.61004 0.47542 0.0
H1333 H 0.84477 0.59484 0.4761 0.0
H1334 H 0.83088 0.56854 0.5297 0.0
H1335 H 0.79931 0.58321 0.52872 0.0
H1336 H 0.87386 0.59758 0.5017 0.0
H1337 H 0.84726 0.52314 0.49861 0.0
H1338 H 0.83203 0.54332 0.49432 0.0
H1339 H 0.83845 0.53689 0.51817 0.0
C1340 C 0.81715 0.60092 0.48729 0.0
C1341 C 0.80396 0.59757 0.50188 0.0
C1342 C 0.83498 0.59231 0.4877 0.0
C1343 C 0.84006 0.5803 0.50277 0.0
C1344 C 0.82709 0.57733 0.51766 0.0
H1345 H 0.94519 0.53243 0.53684 0.0
H1346 H 0.91808 0.55319 0.53155 0.0
C1347 C 0.80909 0.58573 0.51711 0.0
C1348 C 0.85889 0.57085 0.50266 0.0
H1349 H 0.8804 0.5273 0.50229 0.0
C1350 C 0.87529 0.58221 0.50172 0.0
C1351 C 0.86073 0.55079 0.50265 0.0
C1352 C 0.84369 0.53779 0.50334 0.0
C1353 C 0.89346 0.57403 0.50104 0.0
C1354 C 0.89524 0.55402 0.50106 0.0
C1355 C 0.8789 0.54266 0.50187 0.0
C1356 C 0.9139 0.5445 0.50243 0.0
C1357 C 0.9107 0.58673 0.50038 0.0
C1358 C 0.92085 0.53302 0.4876 0.0
C1359 C 0.93642 0.52091 0.49064 0.0
C1360 C 0.9451 0.52034 0.50852 0.0
C1361 C 0.93896 0.53294 0.52278 0.0
C1362 C 0.92343 0.54477 0.51982 0.0
H1363 H 0.9069 0.60186 0.49785 0.0
H1364 H 0.91838 0.58577 0.51409 0.0
H1365 H 0.92054 0.58192 0.48904 0.0
H1366 H 0.91358 0.53265 0.47407 0.0
H1367 H 0.94076 0.51114 0.47957 0.0
H1368 H 0.13131 0.0656 0.23785 0.0
H1369 H 0.14599 0.09718 0.23819 0.0
H1370 H 0.19404 0.07441 0.26847 0.0
H1371 H 0.17963 0.04266 0.26777 0.0
H1372 H 0.15877 0.12027 0.26889 0.0
H1373 H 0.21788 0.0989 0.2212 0.0
H1374 H 0.19688 0.0845 0.22431 0.0
H1375 H 0.21507 0.08461 0.24215 0.0
C1376 C 0.14503 0.06733 0.24455 0.0
C1377 C 0.15451 0.05165 0.25248 0.0
C1378 C 0.15335 0.08538 0.24479 0.0
C1379 C 0.17124 0.08805 0.25303 0.0
C1380 C 0.18043 0.07254 0.26162 0.0
H1381 H 0.24989 0.17622 0.27302 0.0
H1382 H 0.23322 0.14705 0.26499 0.0
C1383 C 0.1722 0.05443 0.2612 0.0
C1384 C 0.18053 0.10695 0.2521 0.0
H1385 H 0.21945 0.12982 0.23445 0.0
C1386 C 0.17195 0.12247 0.26123 0.0
C1387 C 0.19771 0.1097 0.24209 0.0
C1388 C 0.20739 0.0936 0.23174 0.0
C1389 C 0.18051 0.14055 0.26125 0.0
C1390 C 0.19781 0.14329 0.25132 0.0
C1391 C 0.20609 0.12781 0.24182 0.0
C1392 C 0.20888 0.16126 0.2528 0.0
C1393 C 0.17146 0.15626 0.27274 0.0
C1394 C 0.2013 0.17907 0.24759 0.0
C1395 C 0.21094 0.19595 0.25224 0.0
C1396 C 0.22831 0.19509 0.2619 0.0
C1397 C 0.23659 0.17725 0.26537 0.0
C1398 C 0.227 0.16054 0.26091 0.0
H1399 H 0.16026 0.15079 0.28241 0.0
H1400 H 0.18228 0.16382 0.28135 0.0
H1401 H 0.16483 0.16672 0.263 0.0
H1402 H 0.18753 0.17994 0.24085 0.0
H1403 H 0.20416 0.20951 0.24973 0.0
H1404 H 0.31376 0.89137 0.52642 0.0
H1405 H 0.34543 0.90557 0.52366 0.0
H1406 H 0.33018 0.92922 0.4692 0.0
H1407 H 0.29826 0.91597 0.47245 0.0
H1408 H 0.37274 0.89957 0.49812 0.0
H1409 H 0.35087 0.97532 0.49487 0.0
H1410 H 0.33464 0.95661 0.50146 0.0
H1411 H 0.33989 0.96113 0.47684 0.0
C1412 C 0.31718 0.89983 0.51401 0.0
C1413 C 0.30363 0.90287 0.49976 0.0
C1414 C 0.33523 0.90785 0.5124 0.0
C1415 C 0.34005 0.91871 0.49637 0.0
C1416 C 0.32658 0.92141 0.48196 0.0
H1417 H 0.44106 0.98149 0.46511 0.0
H1418 H 0.41338 0.96042 0.46259 0.0
C1419 C 0.3084 0.9138 0.48379 0.0
C1420 C 0.35929 0.9269 0.49457 0.0
H1421 H 0.38306 0.96865 0.48796 0.0
C1422 C 0.37501 0.91468 0.49593 0.0
C1423 C 0.3622 0.94663 0.49173 0.0
C1424 C 0.34602 0.9607 0.49134 0.0
C1425 C 0.3936 0.92168 0.49447 0.0
C1426 C 0.39642 0.94134 0.49151 0.0
C1427 C 0.38074 0.95351 0.48994 0.0
C1428 C 0.41543 0.95007 0.49146 0.0
C1429 C 0.41005 0.90807 0.49608 0.0
C1430 C 0.426 0.95064 0.50831 0.0
C1431 C 0.44178 0.96253 0.50969 0.0
C1432 C 0.44705 0.97395 0.49425 0.0
C1433 C 0.43725 0.97253 0.47704 0.0
C1434 C 0.4215 0.96059 0.47563 0.0
H1435 H 0.40559 0.8931 0.49369 0.0
H1436 H 0.42139 0.91177 0.48576 0.0
H1437 H 0.41615 0.90907 0.51057 0.0
H1438 H 0.42127 0.94296 0.5208 0.0
H1439 H 0.44907 0.96379 0.52317 0.0
H1440 H 0.87407 0.56987 0.23851 0.0
H1441 H 0.85653 0.59997 0.23665 0.0
H1442 H 0.80642 0.57198 0.25808 0.0
H1443 H 0.82371 0.54194 0.25995 0.0
H1444 H 0.82056 0.60478 0.21509 0.0
H1445 H 0.81486 0.6205 0.29227 0.0
H1446 H 0.83305 0.60533 0.28241 0.0
H1447 H 0.80935 0.59648 0.28535 0.0
C1448 C 0.85935 0.57021 0.24295 0.0
C1449 C 0.85018 0.55365 0.24937 0.0
C1450 C 0.84941 0.58733 0.24186 0.0
C1451 C 0.83032 0.58804 0.2474 0.0
C1452 C 0.82123 0.57161 0.25398 0.0
H1453 H 0.75173 0.68586 0.24839 0.0
H1454 H 0.76238 0.65236 0.25014 0.0
C1455 C 0.83109 0.55451 0.25496 0.0
C1456 C 0.81948 0.60575 0.24562 0.0
H1457 H 0.7971 0.63999 0.27151 0.0
C1458 C 0.81531 0.61246 0.22738 0.0
C1459 C 0.81275 0.61556 0.26176 0.0
C1460 C 0.81781 0.60926 0.28159 0.0
C1461 C 0.80455 0.62897 0.22485 0.0
C1462 C 0.79794 0.63891 0.24099 0.0
C1463 C 0.8018 0.63197 0.25922 0.0
C1464 C 0.79052 0.65833 0.23929 0.0
C1465 C 0.8008 0.63599 0.20495 0.0
C1466 C 0.80297 0.67243 0.23303 0.0
C1467 C 0.79705 0.69112 0.23199 0.0
C1468 C 0.77854 0.6963 0.2374 0.0
C1469 C 0.76601 0.68222 0.24403 0.0
C1470 C 0.77203 0.6632 0.24498 0.0
H1471 H 0.80196 0.62432 0.19439 0.0
H1472 H 0.78649 0.64251 0.20387 0.0
H1473 H 0.81146 0.647 0.2012 0.0
H1474 H 0.81746 0.66899 0.2292 0.0
H1475 H 0.8073 0.70161 0.22729 0.0
H1476 H 0.64816 0.43833 0.78025 0.0
H1477 H 0.66229 0.40656 0.77948 0.0
H1478 H 0.68366 0.41753 0.7231 0.0
H1479 H 0.67015 0.44968 0.72414 0.0
H1480 H 0.6557 0.37686 0.75633 0.0
H1481 H 0.73087 0.39922 0.74919 0.0
H1482 H 0.71223 0.4158 0.75505 0.0
H1483 H 0.71591 0.40851 0.73083 0.0
C1484 C 0.65607 0.43403 0.76778 0.0
C1485 C 0.65832 0.44654 0.75236 0.0
C1486 C 0.66406 0.41586 0.76732 0.0
C1487 C 0.67433 0.40975 0.75139 0.0
C1488 C 0.6763 0.42211 0.73579 0.0
H1489 H 0.71943 0.30749 0.70888 0.0
H1490 H 0.70027 0.33535 0.71634 0.0
C1491 C 0.66855 0.44045 0.73637 0.0
C1492 C 0.6827 0.39034 0.75107 0.0
H1493 H 0.72426 0.36624 0.74459 0.0
C1494 C 0.67073 0.37457 0.75398 0.0
C1495 C 0.70234 0.38733 0.74814 0.0
C1496 C 0.71612 0.40362 0.74581 0.0
C1497 C 0.67782 0.35588 0.7534 0.0
C1498 C 0.69728 0.35294 0.74992 0.0
C1499 C 0.70932 0.36864 0.74743 0.0
C1500 C 0.70518 0.33377 0.74656 0.0
C1501 C 0.66452 0.33928 0.75595 0.0
C1502 C 0.71353 0.32316 0.76127 0.0
C1503 C 0.72441 0.30695 0.75705 0.0
C1504 C 0.72716 0.30154 0.73808 0.0
C1505 C 0.71746 0.31135 0.72365 0.0
C1506 C 0.70658 0.32731 0.72785 0.0
H1507 H 0.64986 0.3439 0.75947 0.0
H1508 H 0.66415 0.33074 0.7427 0.0
H1509 H 0.66983 0.32986 0.76744 0.0
H1510 H 0.71257 0.32805 0.77582 0.0
H1511 H 0.73192 0.29971 0.76834 0.0
H1512 H -0.00557 0.8201 0.87433 0.0
H1513 H 0.9924 0.85208 0.88792 0.0
H1514 H 0.00226 0.82891 0.94372 0.0
H1515 H 0.00421 0.79677 0.93024 0.0
H1516 H 0.9662 0.86468 0.91816 0.0
H1517 H 0.04249 0.87272 0.93627 0.0
H1518 H 0.0341 0.85588 0.91882 0.0
H1519 H 0.0318 0.85067 0.94367 0.0
C1520 C -0.00383 0.8218 0.88951 0.0
C1521 C -0.00055 0.80592 0.90125 0.0
C1522 C -0.00502 0.84007 0.89722 0.0
C1523 C -0.00273 0.84284 0.91678 0.0
C1524 C 0.0006 0.82705 0.92855 0.0
H1525 H -0.00371 0.92934 -0.00069 0.0
H1526 H 0.98712 0.90157 0.98056 0.0
C1527 C 0.00163 0.80872 0.92086 0.0
C1528 C -0.00413 0.86219 0.92498 0.0
H1529 H 0.02131 0.89562 0.94909 0.0
C1530 C 0.97825 0.87155 0.9248 0.0
C1531 C 0.01171 0.87118 0.93335 0.0
C1532 C 0.03116 0.86223 0.93295 0.0
C1533 C 0.97591 0.88937 0.9336 0.0
C1534 C 0.99154 0.8979 0.94268 0.0
C1535 C 0.00929 0.88886 0.94224 0.0
C1536 C 0.98996 0.91584 0.95352 0.0
C1537 C 0.95674 0.89882 0.93364 0.0
C1538 C 0.99323 0.93337 0.94452 0.0
C1539 C -0.00172 0.94935 0.95529 0.0
C1540 C 0.0002 0.9478 0.97505 0.0
C1541 C -0.00547 0.93094 0.98411 0.0
C1542 C 0.98949 0.91502 0.97339 0.0
H1543 H 0.94596 0.89039 0.9258 0.0
H1544 H 0.95186 0.90081 0.9485 0.0
H1545 H 0.95787 0.91315 0.92707 0.0
H1546 H 0.99374 0.93422 0.92918 0.0
H1547 H 0.00294 0.96211 0.94801 0.0
H1548 H 0.93267 0.25369 0.62526 0.0
H1549 H 0.90134 0.251 0.64024 0.0
H1550 H 0.92799 0.23785 0.69376 0.0
H1551 H 0.9592 0.24067 0.67908 0.0
H1552 H 0.88488 0.21896 0.66259 0.0
H1553 H 0.89444 0.28636 0.70239 0.0
H1554 H 0.90827 0.28034 0.68166 0.0
H1555 H 0.91429 0.27045 0.70441 0.0
C1556 C 0.93178 0.25022 0.64022 0.0
C1557 C 0.94826 0.24759 0.65114 0.0
C1558 C 0.91396 0.24858 0.64866 0.0
C1559 C 0.91258 0.24435 0.66803 0.0
C1560 C 0.92896 0.24127 0.67879 0.0
H1561 H 0.82628 0.24218 0.7545 0.0
H1562 H 0.85499 0.23348 0.73633 0.0
C1563 C 0.94671 0.24294 0.67042 0.0
C1564 C 0.89415 0.24403 0.67755 0.0
H1565 H 0.86981 0.26589 0.71302 0.0
C1566 C 0.88145 0.2292 0.67358 0.0
C1567 C 0.88978 0.25768 0.69155 0.0
C1568 C 0.90231 0.27473 0.69515 0.0
C1569 C 0.86459 0.2273 0.68398 0.0
C1570 C 0.8608 0.24039 0.69868 0.0
C1571 C 0.87328 0.25546 0.70221 0.0
C1572 C 0.84281 0.24062 0.70902 0.0
C1573 C 0.851 0.21141 0.67928 0.0
C1574 C 0.82677 0.24724 0.6995 0.0
C1575 C 0.81094 0.25271 0.70976 0.0
C1576 C 0.81085 0.25144 0.72965 0.0
C1577 C 0.82635 0.24353 0.73919 0.0
C1578 C 0.84249 0.23836 0.72885 0.0
H1579 H 0.85778 0.20027 0.67039 0.0
H1580 H 0.8454 0.20477 0.69245 0.0
H1581 H 0.83878 0.21732 0.67129 0.0
H1582 H 0.82695 0.24941 0.68426 0.0
H1583 H 0.79893 0.25852 0.70214 0.0
H1584 H 0.53643 0.19959 0.40767 0.0
H1585 H 0.53933 0.16677 0.4195 0.0
H1586 H 0.47872 0.15974 0.41468 0.0
H1587 H 0.47597 0.19209 0.40202 0.0
H1588 H 0.52383 0.14942 0.45075 0.0
H1589 H 0.49739 0.11387 0.38592 0.0
H1590 H 0.50453 0.13856 0.3861 0.0
H1591 H 0.48136 0.13171 0.39445 0.0
C1592 C 0.52377 0.19099 0.40926 0.0
C1593 C 0.50598 0.19823 0.40395 0.0
C1594 C 0.52543 0.17227 0.41591 0.0
C1595 C 0.5093 0.16062 0.41753 0.0
C1596 C 0.49145 0.1682 0.41291 0.0
H1597 H 0.46069 0.06726 0.4649 0.0
H1598 H 0.47297 0.09315 0.44584 0.0
C1599 C 0.48984 0.18672 0.40588 0.0
C1600 C 0.51088 0.14073 0.42452 0.0
H1601 H 0.49653 0.09541 0.41468 0.0
C1602 C 0.51828 0.13749 0.44273 0.0
C1603 C 0.50382 0.12515 0.41393 0.0
C1604 C 0.49651 0.12745 0.39394 0.0
C1605 C 0.51724 0.11943 0.4513 0.0
C1606 C 0.50893 0.10415 0.44119 0.0
C1607 C 0.50294 0.10711 0.42241 0.0
C1608 C 0.5025 0.08655 0.45096 0.0
C1609 C 0.52358 0.11721 0.47163 0.0
C1610 C 0.51505 0.07363 0.45971 0.0
C1611 C 0.50792 0.05858 0.47084 0.0
C1612 C 0.48828 0.05643 0.47329 0.0
C1613 C 0.47593 0.06862 0.46344 0.0
C1614 C 0.48294 0.08346 0.45246 0.0
H1615 H 0.52847 0.13086 0.47788 0.0
H1616 H 0.51175 0.11158 0.48043 0.0
H1617 H 0.53543 0.10686 0.47236 0.0
H1618 H 0.53024 0.07553 0.45844 0.0
H1619 H 0.51763 0.04936 0.47833 0.0
H1620 H 0.56385 0.77582 0.1338 0.0
H1621 H 0.59598 0.77523 0.14715 0.0
H1622 H 0.57876 0.73161 0.18668 0.0
H1623 H 0.54649 0.73241 0.17368 0.0
H1624 H 0.6053 0.77687 0.19263 0.0
H1625 H 0.62755 0.71394 0.15004 0.0
H1626 H 0.60924 0.73013 0.14221 0.0
H1627 H 0.60434 0.7134 0.16081 0.0
C1628 C 0.56692 0.76627 0.14548 0.0
C1629 C 0.55283 0.75419 0.15283 0.0
C1630 C 0.58519 0.76595 0.15303 0.0
C1631 C 0.58957 0.7533 0.16773 0.0
C1632 C 0.57547 0.74145 0.1753 0.0
H1633 H 0.67802 0.71868 0.23976 0.0
H1634 H 0.65031 0.72205 0.21907 0.0
C1635 C 0.55712 0.74199 0.16798 0.0
C1636 C 0.609 0.75214 0.17505 0.0
H1637 H 0.64832 0.72393 0.17452 0.0
C1638 C 0.61488 0.76551 0.18853 0.0
C1639 C 0.62125 0.73726 0.16951 0.0
C1640 C 0.61543 0.72286 0.15476 0.0
C1641 C 0.63263 0.76388 0.19729 0.0
C1642 C 0.64467 0.74864 0.19217 0.0
C1643 C 0.639 0.73563 0.17824 0.0
C1644 C 0.66239 0.74497 0.20249 0.0
C1645 C 0.63808 0.77788 0.21258 0.0
C1646 C 0.6785 0.75623 0.19932 0.0
C1647 C 0.69445 0.75405 0.21084 0.0
C1648 C 0.69429 0.74076 0.22574 0.0
C1649 C 0.6785 0.72885 0.22821 0.0
C1650 C 0.66269 0.73085 0.21652 0.0
H1651 H 0.62656 0.78821 0.21567 0.0
H1652 H 0.64166 0.77014 0.22585 0.0
H1653 H 0.65089 0.78589 0.20809 0.0
H1654 H 0.67839 0.76723 0.18853 0.0
H1655 H 0.70627 0.76374 0.20907 0.0
H1656 H 0.00905 0.18304 0.62965 0.0
H1657 H 0.00952 0.15088 0.61648 0.0
H1658 H 0.98973 0.17262 0.56275 0.0
H1659 H 0.98955 0.205 0.57574 0.0
H1660 H 0.97976 0.12866 0.59799 0.0
H1661 H 0.0411 0.14605 0.55122 0.0
H1662 H 0.03425 0.16097 0.57093 0.0
H1663 H 0.02096 0.16156 0.5492 0.0
C1664 C 0.0047 0.18095 0.61506 0.0
C1665 C -0.00051 0.19644 0.60359 0.0
C1666 C 0.0049 0.16261 0.60762 0.0
C1667 C -0.00016 0.15954 0.58868 0.0
C1668 C 0.99393 0.17487 0.57737 0.0
H1669 H 0.99191 0.07456 0.50853 0.0
H1670 H 0.98915 0.10079 0.53061 0.0
C1671 C 0.99388 0.19328 0.58475 0.0
C1672 C 0.00191 0.14046 0.58046 0.0
H1673 H 0.02689 0.1158 0.54723 0.0
C1674 C 0.99019 0.1257 0.58705 0.0
C1675 C 0.01565 0.13681 0.56632 0.0
C1676 C 0.02884 0.15212 0.55907 0.0
C1677 C 0.99134 0.10742 0.57915 0.0
C1678 C 0.00475 0.10398 0.56469 0.0
C1679 C 0.01687 0.11856 0.55861 0.0
C1680 C 0.00429 0.08661 0.5532 0.0
C1681 C 0.97771 0.09215 0.58548 0.0
C1682 C 0.01341 0.06977 0.55892 0.0
C1683 C 0.01502 0.05449 0.5462 0.0
C1684 C 0.0079 0.05635 0.52769 0.0
C1685 C -0.00189 0.07298 0.52252 0.0
C1686 C -0.00372 0.0879 0.53515 0.0
H1687 H 0.96844 0.09698 0.5973 0.0
H1688 H 0.96864 0.08784 0.57334 0.0
H1689 H 0.98572 0.07938 0.59013 0.0
H1690 H 0.0197 0.06871 0.5729 0.0
H1691 H 0.02233 0.04165 0.55052 0.0
H1692 H 0.5639 0.27719 0.36255 0.0
H1693 H 0.59598 0.27629 0.34928 0.0
H1694 H 0.58313 0.22295 0.32185 0.0
H1695 H 0.55074 0.22417 0.33457 0.0
H1696 H 0.62327 0.24953 0.35575 0.0
H1697 H 0.60662 0.25305 0.27889 0.0
H1698 H 0.58942 0.25874 0.297 0.0
H1699 H 0.59439 0.23433 0.29117 0.0
C1700 C 0.56788 0.26538 0.35351 0.0
C1701 C 0.5549 0.25075 0.34952 0.0
C1702 C 0.5862 0.26487 0.34598 0.0
C1703 C 0.59193 0.24962 0.33448 0.0
C1704 C 0.5789 0.23506 0.33035 0.0
H1705 H 0.69328 0.23236 0.26865 0.0
H1706 H 0.66657 0.22356 0.28892 0.0
C1707 C 0.56044 0.23572 0.33764 0.0
C1708 C 0.61175 0.24863 0.32745 0.0
H1709 H 0.63832 0.24632 0.2871 0.0
C1710 C 0.62661 0.24874 0.34073 0.0
C1711 C 0.61607 0.24772 0.30789 0.0
C1712 C 0.60081 0.24864 0.29289 0.0
C1713 C 0.64569 0.24766 0.335 0.0
C1714 C 0.65004 0.24669 0.31539 0.0
C1715 C 0.63509 0.24659 0.30216 0.0
C1716 C 0.66979 0.24761 0.30786 0.0
C1717 C 0.66084 0.24745 0.35009 0.0
C1718 C 0.68157 0.26298 0.31268 0.0
C1719 C 0.69746 0.26726 0.30161 0.0
C1720 C 0.70155 0.25662 0.28524 0.0
C1721 C 0.69105 0.24013 0.28162 0.0
C1722 C 0.67541 0.23549 0.29298 0.0
H1723 H 0.65551 0.24085 0.3634 0.0
H1724 H 0.67368 0.23962 0.34537 0.0
H1725 H 0.66491 0.26232 0.3535 0.0
H1726 H 0.67747 0.2729 0.32368 0.0
H1727 H 0.70508 0.28035 0.30444 0.0
H1728 H 0.48493 0.81662 0.12239 0.0
H1729 H 0.48685 0.84809 0.10734 0.0
H1730 H 0.52567 0.82564 0.06556 0.0
H1731 H 0.52338 0.79419 0.08009 0.0
H1732 H 0.51851 0.87234 0.09837 0.0
H1733 H 0.4802 0.84586 0.0349 0.0
H1734 H 0.48076 0.83304 0.05708 0.0
H1735 H 0.5005 0.83168 0.04093 0.0
C1736 C 0.49389 0.8185 0.11002 0.0
C1737 C 0.50375 0.80307 0.10209 0.0
C1738 C 0.49505 0.8364 0.10156 0.0
C1739 C 0.50621 0.83891 0.08529 0.0
C1740 C 0.51675 0.82372 0.07796 0.0
H1741 H 0.51405 0.92976 0.00213 0.0
H1742 H 0.5233 0.90199 0.02146 0.0
C1743 C 0.51538 0.80584 0.08619 0.0
C1744 C 0.506 0.85701 0.07505 0.0
H1745 H 0.49451 0.87614 0.03226 0.0
C1746 C 0.51335 0.87326 0.0839 0.0
C1747 C 0.49893 0.85801 0.05634 0.0
C1748 C 0.48946 0.84127 0.04681 0.0
C1749 C 0.51415 0.89063 0.0742 0.0
C1750 C 0.50755 0.89144 0.05528 0.0
C1751 C 0.50017 0.87518 0.04655 0.0
C1752 C 0.50514 0.90943 0.04515 0.0
C1753 C 0.52179 0.90795 0.08429 0.0
C1754 C 0.49189 0.92237 0.05218 0.0
C1755 C 0.48653 0.93777 0.04125 0.0
C1756 C 0.49425 0.94048 0.02301 0.0
C1757 C 0.50794 0.92784 0.0161 0.0
C1758 C 0.51328 0.9122 0.02713 0.0
H1759 H 0.53154 0.90391 0.096 0.0
H1760 H 0.5294 0.91753 0.07432 0.0
H1761 H 0.5098 0.91599 0.09061 0.0
H1762 H 0.48508 0.92014 0.0658 0.0
H1763 H 0.47627 0.9476 0.04718 0.0
H1764 H 0.94299 0.72511 0.85847 0.0
H1765 H 0.91189 0.72614 0.84289 0.0
H1766 H 0.92124 0.78509 0.82829 0.0
H1767 H 0.95286 0.7836 0.84275 0.0
H1768 H 0.88058 0.74652 0.84861 0.0
H1769 H 0.90918 0.76406 0.77718 0.0
H1770 H 0.92424 0.75697 0.79659 0.0
H1771 H 0.91537 0.78095 0.79519 0.0
C1772 C 0.93836 0.73821 0.85179 0.0
C1773 C 0.95029 0.75416 0.85135 0.0
C1774 C 0.92062 0.73884 0.84298 0.0
C1775 C 0.9144 0.75557 0.83398 0.0
C1776 C 0.926 0.77183 0.83448 0.0
H1777 H 0.80564 0.77405 0.7754 0.0
H1778 H 0.83718 0.77973 0.78926 0.0
C1779 C 0.94398 0.77102 0.84279 0.0
C1780 C 0.89596 0.75576 0.82381 0.0
H1781 H 0.87586 0.76269 0.78018 0.0
C1782 C 0.87957 0.75011 0.83367 0.0
C1783 C 0.89461 0.7605 0.80429 0.0
C1784 C 0.9118 0.7658 0.79263 0.0
C1785 C 0.86198 0.74876 0.82448 0.0
C1786 C 0.86077 0.75313 0.80492 0.0
C1787 C 0.87693 0.7594 0.79519 0.0
C1788 C 0.84307 0.74991 0.79416 0.0
C1789 C 0.84481 0.74247 0.83568 0.0
C1790 C 0.83651 0.73127 0.7915 0.0
C1791 C 0.81867 0.72803 0.78364 0.0
C1792 C 0.80722 0.74336 0.77804 0.0
C1793 C 0.81439 0.76199 0.7793 0.0
C1794 C 0.83225 0.76525 0.78738 0.0
H1795 H 0.8472 0.74352 0.85123 0.0
H1796 H 0.83223 0.75116 0.83186 0.0
H1797 H 0.84157 0.72741 0.83224 0.0
H1798 H 0.84485 0.71926 0.79633 0.0
H1799 H 0.81339 0.71357 0.78285 0.0
H1800 H 0.93234 0.00087 0.78922 0.0
H1801 H 0.9487 0.001 0.81995 0.0
H1802 H 0.89562 0.99026 0.84847 0.0
H1803 H 0.87912 0.99037 0.81786 0.0
H1804 H 0.93749 0.02614 0.85367 0.0
H1805 H 0.93544 0.9481 0.86695 0.0
H1806 H 0.93342 0.95815 0.84341 0.0
H1807 H 0.91365 0.95912 0.85944 0.0
C1808 C 0.92419 -0.00157 0.80204 0.0
C1809 C 0.90448 -0.00443 0.80117 0.0
C1810 C 0.93353 -0.00143 0.81954 0.0
C1811 C 0.92337 -0.00449 0.83639 0.0
C1812 C 0.90371 0.99251 0.83557 0.0
H1813 H 0.93901 0.99219 0.9554 0.0
H1814 H 0.92972 0.98949 0.92223 0.0
C1815 C 0.89432 0.99262 0.81811 0.0
C1816 C 0.93321 -0.00415 0.85492 0.0
H1817 H 0.94586 0.96766 0.89227 0.0
C1818 C 0.93958 0.01336 0.86205 0.0
C1819 C 0.93576 0.97914 0.86576 0.0
C1820 C 0.92935 0.95999 0.85853 0.0
C1821 C 0.94786 0.01467 0.88014 0.0
C1822 C 0.9502 -0.00203 0.89111 0.0
C1823 C 0.94423 0.9804 0.88374 0.0
C1824 C 0.95679 -0.0013 0.91107 0.0
C1825 C 0.95319 0.034 0.88778 0.0
C1826 C 0.97532 0.00437 0.91582 0.0
C1827 C 0.98078 0.00582 0.93492 0.0
C1828 C 0.96766 0.00186 0.94945 0.0
C1829 C 0.94935 -0.00433 0.94454 0.0
C1830 C 0.94402 0.99402 0.92558 0.0
H1831 H 0.94769 0.04574 0.87875 0.0
H1832 H 0.94761 0.03586 0.90241 0.0
H1833 H 0.96887 0.03521 0.8884 0.0
H1834 H 0.98546 0.00781 0.90478 0.0
H1835 H -0.00499 0.01053 0.93832 0.0
H1836 H 0.77955 0.16402 0.5488 0.0
H1837 H 0.77964 0.17698 0.58111 0.0
H1838 H 0.72493 0.15136 0.59155 0.0
H1839 H 0.72525 0.13768 0.55966 0.0
H1840 H 0.75452 0.20193 0.5951 0.0
H1841 H 0.75304 0.13627 0.63886 0.0
H1842 H 0.75907 0.1361 0.61395 0.0
H1843 H 0.73464 0.13697 0.62133 0.0
C1844 C 0.76761 0.16118 0.55808 0.0
C1845 C 0.75231 0.15007 0.5519 0.0
C1846 C 0.76772 0.16843 0.57649 0.0
C1847 C 0.75241 0.16486 0.58875 0.0
C1848 C 0.73711 0.1538 0.58249 0.0
H1849 H 0.72196 0.21908 0.69641 0.0
H1850 H 0.72024 0.20018 0.66692 0.0
C1851 C 0.73719 0.14621 0.56425 0.0
C1852 C 0.75169 0.17403 0.60752 0.0
H1853 H 0.74651 0.16538 0.65492 0.0
C1854 C 0.75284 0.19393 0.60818 0.0
C1855 C 0.74943 0.16349 0.6245 0.0
C1856 C 0.74916 0.14202 0.62469 0.0
C1857 C 0.75173 0.20365 0.62543 0.0
C1858 C 0.74938 0.19314 0.64235 0.0
C1859 C 0.74802 0.17328 0.64176 0.0
C1860 C 0.75027 0.20256 0.66087 0.0
C1861 C 0.75323 0.22508 0.62551 0.0
C1862 C 0.76776 0.20943 0.66721 0.0
C1863 C 0.76871 0.22015 0.68371 0.0
C1864 C 0.75221 0.22392 0.69419 0.0
C1865 C 0.73482 0.21613 0.6885 0.0
C1866 C 0.73383 0.20549 0.67175 0.0
H1867 H 0.75154 0.23122 0.61107 0.0
H1868 H 0.74234 0.23135 0.63504 0.0
H1869 H 0.76739 0.22928 0.63097 0.0
H1870 H 0.78056 0.20704 0.65902 0.0
H1871 H 0.78228 0.22595 0.68803 0.0
H1872 H 0.60044 0.03379 0.30255 0.0
H1873 H 0.58552 0.03713 0.3339 0.0
H1874 H 0.5881 0.97617 0.34141 0.0
H1875 H 0.60386 0.97303 0.31053 0.0
H1876 H 0.55157 0.02228 0.34265 0.0
H1877 H 0.60518 0.99432 0.39272 0.0
H1878 H 0.61112 0.00147 0.3688 0.0
H1879 H 0.6012 0.97829 0.37336 0.0
C1880 C 0.59799 0.02123 0.31114 0.0
C1881 C 0.603 0.00317 0.30442 0.0
C1882 C 0.5896 0.02312 0.32895 0.0
C1883 C 0.58592 0.00693 0.34001 0.0
C1884 C 0.59131 0.98889 0.33333 0.0
H1885 H 0.52216 0.96718 0.43191 0.0
H1886 H 0.53578 0.97366 0.40062 0.0
C1887 C 0.60008 0.98705 0.31569 0.0
C1888 C 0.57455 0.00855 0.35748 0.0
H1889 H 0.57272 0.99392 0.40351 0.0
C1890 C 0.55629 0.01641 0.35609 0.0
C1891 C 0.58086 0.00099 0.37494 0.0
C1892 C 0.60074 0.99349 0.37761 0.0
C1893 C 0.54368 0.01583 0.37146 0.0
C1894 C 0.54961 0.00718 0.38848 0.0
C1895 C 0.5682 0.00025 0.39021 0.0
C1896 C 0.53665 0.00418 0.40454 0.0
C1897 C 0.52388 0.02359 0.36921 0.0
C1898 C 0.53162 0.01936 0.41642 0.0
C1899 C 0.52349 0.01569 0.43414 0.0
C1900 C 0.52072 -0.00318 0.44011 0.0
C1901 C 0.52413 0.98182 0.42747 0.0
C1902 C 0.53198 0.9855 0.40972 0.0
H1903 H 0.52097 0.02829 0.35444 0.0
H1904 H 0.51331 0.0126 0.3733 0.0
H1905 H 0.52195 0.03593 0.37884 0.0
H1906 H 0.53537 0.03384 0.41268 0.0
H1907 H 0.52126 0.02742 0.44386 0.0
H1908 H 0.73734 0.87691 0.07302 0.0
H1909 H 0.73613 0.86281 0.10475 0.0
H1910 H 0.75106 0.80815 0.08133 0.0
H1911 H 0.75215 0.82212 0.04938 0.0
H1912 H 0.71202 0.82787 0.1151 0.0
H1913 H 0.78998 0.82147 0.12656 0.0
H1914 H 0.77994 0.83834 0.11001 0.0
H1915 H 0.78065 0.81354 0.10412 0.0
C1916 C 0.74037 0.86188 0.07461 0.0
C1917 C 0.74478 0.85056 0.05876 0.0
C1918 C 0.73965 0.85388 0.09271 0.0
C1919 C 0.74353 0.83452 0.09526 0.0
C1920 C 0.74807 0.82316 0.07953 0.0
H1921 H 0.73877 0.75516 0.18566 0.0
H1922 H 0.72888 0.77381 0.15804 0.0
C1923 C 0.74863 0.83112 0.06135 0.0
C1924 C 0.74251 0.82617 0.11441 0.0
H1925 H 0.7699 0.80864 0.15016 0.0
C1926 C 0.72463 0.82368 0.12284 0.0
C1927 C 0.75906 0.82094 0.12437 0.0
C1928 C 0.77855 0.82376 0.11594 0.0
C1929 C 0.72286 0.81563 0.141 0.0
C1930 C 0.73937 0.81019 0.15084 0.0
C1931 C 0.75727 0.81298 0.14251 0.0
C1932 C 0.73866 0.80064 0.16945 0.0
C1933 C 0.70348 0.81297 0.14964 0.0
C1934 C 0.74627 0.80981 0.18537 0.0
C1935 C 0.75177 0.79918 0.20115 0.0
C1936 C 0.74966 0.77935 0.20115 0.0
C1937 C 0.73998 0.77053 0.18617 0.0
C1938 C 0.73449 0.78115 0.17034 0.0
H1939 H 0.69218 0.8198 0.14103 0.0
H1940 H 0.70034 0.79753 0.15081 0.0
H1941 H 0.70319 0.819 0.1642 0.0
H1942 H 0.74969 0.82484 0.18483 0.0
H1943 H 0.75972 0.80615 0.21233 0.0
H1944 H 0.92145 0.02169 0.70383 0.0
H1945 H 0.93568 0.02429 0.67217 0.0
H1946 H 0.89809 0.9804 0.65175 0.0
H1947 H 0.88327 0.97838 0.6832 0.0
H1948 H 0.95423 -0.00227 0.65118 0.0
H1949 H 0.88996 0.02107 0.61224 0.0
H1950 H 0.89126 0.02116 0.63784 0.0
H1951 H 0.88692 -0.00067 0.62524 0.0
C1952 C 0.91621 0.01265 0.69254 0.0
C1953 C 0.90119 -5e-05 0.69585 0.0
C1954 C 0.92432 0.01416 0.67447 0.0
C1955 C 0.91768 0.00286 0.65944 0.0
C1956 C 0.90302 0.98974 0.66292 0.0
H1957 H 0.95065 0.97258 0.54833 0.0
H1958 H 0.93278 0.98207 0.5764 0.0
C1959 C 0.89465 0.9885 0.6809 0.0
C1960 C 0.92652 0.00441 0.64032 0.0
H1961 H 0.91666 0.01228 0.59348 0.0
C1962 C 0.94608 0.00116 0.63859 0.0
C1963 C 0.91583 0.0088 0.62389 0.0
C1964 C 0.89486 0.01296 0.62486 0.0
C1965 C 0.95514 0.00142 0.62081 0.0
C1966 C 0.94442 0.00566 0.60431 0.0
C1967 C 0.92492 0.00931 0.60612 0.0
C1968 C 0.9527 0.00388 0.58494 0.0
C1969 C 0.97588 -0.00388 0.61981 0.0
C1970 C 0.96902 0.01408 0.57947 0.0
C1971 C 0.97922 0.00869 0.56321 0.0
C1972 C 0.97304 0.99322 0.55225 0.0
C1973 C 0.95552 0.98473 0.55644 0.0
C1974 C 0.94541 0.99003 0.57262 0.0
H1975 H 0.9809 0.98937 0.63316 0.0
H1976 H 0.97857 0.98613 0.6079 0.0
H1977 H 0.98445 0.00914 0.6174 0.0
H1978 H 0.97463 0.0252 0.58849 0.0
H1979 H 0.99286 0.01524 0.56042 0.0
H1980 H 0.77661 0.13766 0.43462 0.0
H1981 H 0.77263 0.15284 0.40349 0.0
H1982 H 0.72207 0.18099 0.42367 0.0
H1983 H 0.72647 0.1666 0.45494 0.0
H1984 H 0.74323 0.15391 0.37672 0.0
H1985 H 0.75695 0.22479 0.40904 0.0
H1986 H 0.7613 0.2028 0.42146 0.0
H1987 H 0.73757 0.21198 0.41954 0.0
C1988 C 0.76472 0.14716 0.43234 0.0
C1989 C 0.75215 0.15152 0.44715 0.0
C1990 C 0.76237 0.15563 0.4146 0.0
C1991 C 0.74726 0.16825 0.41155 0.0
C1992 C 0.73406 0.17164 0.42601 0.0
H1993 H 0.7296 0.23533 0.30744 0.0
H1994 H 0.72272 0.22098 0.33859 0.0
C1995 C 0.73665 0.16354 0.44382 0.0
C1996 C 0.74623 0.17915 0.39382 0.0
H1997 H 0.74992 0.22428 0.37643 0.0
C1998 C 0.74446 0.1693 0.37662 0.0
C1999 C 0.74806 0.1992 0.39389 0.0
C2000 C 0.75125 0.21034 0.41193 0.0
C2001 C 0.74483 0.17909 0.35933 0.0
C2002 C 0.74688 0.19908 0.35949 0.0
C2003 C 0.748 0.20896 0.37662 0.0
C2004 C 0.75101 0.20956 0.34207 0.0
C2005 C 0.74382 0.16807 0.34098 0.0
C2006 C 0.76937 0.20863 0.33463 0.0
C2007 C 0.77333 0.2169 0.31721 0.0
C2008 C 0.75897 0.22624 0.30709 0.0
C2009 C 0.74092 0.22846 0.31523 0.0
C2010 C 0.73692 0.22006 0.33276 0.0
H2011 H 0.73912 0.15315 0.34326 0.0
H2012 H 0.73394 0.17512 0.33091 0.0
H2013 H 0.75807 0.16781 0.33426 0.0
H2014 H 0.7804 0.20077 0.34192 0.0
H2015 H 0.78731 0.215 0.31107 0.0
H2016 H 0.62845 0.00344 0.18353 0.0
H2017 H 0.61496 0.00408 0.15164 0.0
H2018 H 0.55955 0.9922 0.17481 0.0
H2019 H 0.57294 0.99159 0.20694 0.0
H2020 H 0.59109 0.97532 0.13134 0.0
H2021 H 0.55647 0.04495 0.1458 0.0
H2022 H 0.5757 0.03584 0.16009 0.0
H2023 H 0.55214 0.02657 0.16304 0.0
C2024 C 0.6134 0.00086 0.18185 0.0
C2025 C 0.60163 -0.00222 0.19769 0.0
C2026 C 0.60579 0.00113 0.16364 0.0
C2027 C 0.58633 -0.0016 0.16105 0.0
C2028 C 0.57462 0.99453 0.17671 0.0
H2029 H 0.50156 -0.0045 0.0806 0.0
H2030 H 0.52334 -0.00258 0.1072 0.0
C2031 C 0.58224 0.99421 0.19498 0.0
C2032 C 0.57806 0.00085 0.14208 0.0
H2033 H 0.548 0.02933 0.11716 0.0
C2034 C 0.58186 0.98722 0.12806 0.0
C2035 C 0.56633 0.01659 0.13797 0.0
C2036 C 0.5625 0.03195 0.15244 0.0
C2037 C 0.57314 0.98833 0.11021 0.0
C2038 C 0.56065 0.0036 0.10645 0.0
C2039 C 0.55771 0.01773 0.12016 0.0
C2040 C 0.548 0.00341 0.08991 0.0
C2041 C 0.57639 0.97269 0.09591 0.0
C2042 C 0.55474 0.00648 0.07141 0.0
C2043 C 0.54223 0.00545 0.05603 0.0
C2044 C 0.52296 0.00124 0.05912 0.0
C2045 C 0.51634 -0.00136 0.07775 0.0
C2046 C 0.52874 -0.00023 0.09298 0.0
H2047 H 0.58562 0.96119 0.10156 0.0
H2048 H 0.56262 0.96638 0.09157 0.0
H2049 H 0.58318 0.9787 0.083 0.0
H2050 H 0.56961 0.00945 0.0689 0.0
H2051 H 0.54769 0.00741 0.04178 0.0
H2052 H 0.77921 0.84252 0.95455 0.0
H2053 H 0.78059 0.83032 0.92185 0.0
H2054 H 0.72002 0.83763 0.91677 0.0
H2055 H 0.71877 0.85055 0.94892 0.0
H2056 H 0.76345 0.79969 0.90575 0.0
H2057 H 0.73839 0.86527 0.87023 0.0
H2058 H 0.74618 0.86503 0.89464 0.0
H2059 H 0.72244 0.85775 0.88859 0.0
C2060 C 0.76624 0.84135 0.94641 0.0
C2061 C 0.74889 0.84741 0.95407 0.0
C2062 C 0.76704 0.83453 0.92778 0.0
C2063 C 0.75047 0.83355 0.91677 0.0
C2064 C 0.73306 0.8389 0.92479 0.0
H2065 H 0.71222 0.77383 0.81957 0.0
H2066 H 0.71611 0.79271 0.84867 0.0
C2067 C 0.73232 0.84605 0.94319 0.0
C2068 C 0.75104 0.82632 0.89709 0.0
H2069 H 0.73607 0.83636 0.8521 0.0
C2070 C 0.75777 0.8078 0.89395 0.0
C2071 C 0.74374 0.83704 0.88171 0.0
C2072 C 0.73747 0.85745 0.88392 0.0
C2073 C 0.75642 0.79935 0.87599 0.0
C2074 C 0.74819 0.80974 0.86095 0.0
C2075 C 0.74219 0.82847 0.86384 0.0
C2076 C 0.74498 0.801 0.84229 0.0
C2077 C 0.76323 0.77918 0.87326 0.0
C2078 C 0.75964 0.80034 0.82889 0.0
C2079 C 0.75723 0.7901 0.81211 0.0
C2080 C 0.74024 0.78026 0.80873 0.0
C2081 C 0.72524 0.78174 0.82174 0.0
C2082 C 0.72754 0.79226 0.83838 0.0
H2083 H 0.76875 0.77285 0.88662 0.0
H2084 H 0.75144 0.77019 0.86793 0.0
H2085 H 0.77467 0.77892 0.86242 0.0
H2086 H 0.77321 0.80693 0.83184 0.0
H2087 H 0.76922 0.78848 0.8026 0.0
H2088 H 0.8043 0.89938 0.03464 0.0
H2089 H 0.8367 0.91165 0.03366 0.0
H2090 H 0.83119 0.92183 0.97348 0.0
H2091 H 0.79829 0.91034 0.97466 0.0
H2092 H 0.86664 0.89793 0.01443 0.0
H2093 H 0.85179 0.97219 0.99131 0.0
H2094 H 0.83335 0.95638 -0.00049 0.0
H2095 H 0.84274 0.95401 0.9759 0.0
C2096 C 0.80992 0.90456 0.02128 0.0
C2097 C 0.79881 0.90423 0.00478 0.0
C2098 C 0.82845 0.91144 0.0207 0.0
C2099 C 0.83633 0.91783 0.00354 0.0
C2100 C 0.82525 0.91744 0.98697 0.0
H2101 H 0.9525 0.95953 0.98741 0.0
H2102 H 0.92312 0.94167 0.98215 0.0
C2103 C 0.8065 0.9109 0.98763 0.0
C2104 C 0.85626 0.92454 0.00326 0.0
H2105 H 0.88389 0.96374 -0.00437 0.0
C2106 C 0.87042 0.91228 0.01018 0.0
C2107 C 0.86116 0.94327 -0.00231 0.0
C2108 C 0.84648 0.95731 0.99083 0.0
C2109 C 0.88923 0.91844 0.0122 0.0
C2110 C 0.89397 0.93721 0.00706 0.0
C2111 C 0.88007 0.94928 -0.00053 0.0
C2112 C 0.91294 0.94512 0.0109 0.0
C2113 C 0.90391 0.90512 0.02028 0.0
C2114 C 0.91706 0.95238 0.02896 0.0
C2115 C 0.93372 0.9627 0.03198 0.0
C2116 C 0.94657 0.96559 0.01703 0.0
C2117 C 0.94306 0.95706 -0.00069 0.0
C2118 C 0.92621 0.94708 -0.0038 0.0
H2119 H 0.89854 0.8903 0.02151 0.0
H2120 H 0.91681 0.90517 0.01122 0.0
H2121 H 0.90812 0.91015 0.0346 0.0
H2122 H 0.90688 0.95099 0.04042 0.0
H2123 H 0.936 0.96942 0.04563 0.0
H2124 H 0.29186 0.57292 0.01567 0.0
H2125 H 0.32184 0.5558 0.01868 0.0
H2126 H 0.35175 0.60398 -0.00477 0.0
H2127 H 0.32176 0.62138 0.99236 0.0
H2128 H 0.34538 0.54856 0.98607 0.0
H2129 H 0.38284 0.58817 0.04321 0.0
H2130 H 0.3574 0.58926 0.04013 0.0
H2131 H 0.37276 0.60243 0.02458 0.0
C2132 C 0.30484 0.57991 0.01127 0.0
C2133 C 0.30457 0.59836 0.00365 0.0
C2134 C 0.32189 0.57018 0.0131 0.0
C2135 C 0.33885 0.57878 0.00737 0.0
C2136 C 0.33873 0.59733 4e-05 0.0
H2137 H 0.44823 0.55547 0.97667 0.0
H2138 H 0.41608 0.56521 0.98352 0.0
C2139 C 0.32165 0.60715 -0.00172 0.0
C2140 C 0.35637 0.56758 0.00735 0.0
H2141 H 0.40117 0.56607 0.02518 0.0
C2142 C 0.35748 0.55208 -0.00511 0.0
C2143 C 0.37198 0.57243 0.01886 0.0
C2144 C 0.37124 0.5889 0.03258 0.0
C2145 C 0.37431 0.54178 0.99292 0.0
C2146 C 0.39012 0.54701 0.00394 0.0
C2147 C 0.38877 0.56198 0.01703 0.0
C2148 C 0.40904 0.53982 -0.00065 0.0
C2149 C 0.37558 0.52624 0.97822 0.0
C2150 C 0.41535 0.52197 0.00558 0.0
C2151 C 0.43393 0.51618 0.00162 0.0
C2152 C 0.44623 0.52831 0.99154 0.0
C2153 C 0.4393 0.54577 0.98462 0.0
C2154 C 0.42094 0.55147 0.98858 0.0
H2155 H 0.3619 0.52394 0.97075 0.0
H2156 H 0.3866 0.52994 0.96755 0.0
H2157 H 0.37994 0.51272 0.9851 0.0
H2158 H 0.40609 0.51279 0.01377 0.0
H2159 H 0.43876 0.50252 0.00681 0.0
H2160 H 0.12224 0.56796 0.75698 0.0
H2161 H 0.13571 0.60001 0.75621 0.0
H2162 H 0.19202 0.57625 0.7531 0.0
H2163 H 0.17868 0.54403 0.75392 0.0
H2164 H 0.16846 0.61777 0.78045 0.0
H2165 H 0.18028 0.60927 0.70274 0.0
H2166 H 0.16362 0.59472 0.71578 0.0
H2167 H 0.18861 0.59034 0.71777 0.0
C2168 C 0.13751 0.56956 0.75634 0.0
C2169 C 0.14946 0.55359 0.75525 0.0
C2170 C 0.14513 0.58783 0.75603 0.0
C2171 C 0.16475 0.59031 0.75452 0.0
C2172 C 0.1768 0.57444 0.75425 0.0
H2173 H 0.24885 0.66952 0.7371 0.0
H2174 H 0.22669 0.6435 0.74052 0.0
C2175 C 0.16919 0.55613 0.75467 0.0
C2176 C 0.17251 0.60941 0.75134 0.0
H2177 H 0.19315 0.63672 0.71719 0.0
C2178 C 0.17365 0.62213 0.76662 0.0
C2179 C 0.17902 0.61487 0.7332 0.0
C2180 C 0.17775 0.60168 0.71634 0.0
C2181 C 0.18224 0.64 0.76435 0.0
C2182 C 0.18941 0.64513 0.74631 0.0
C2183 C 0.18739 0.63272 0.73091 0.0
C2184 C 0.20206 0.66152 0.74377 0.0
C2185 C 0.1847 0.65277 0.78137 0.0
C2186 C 0.19532 0.6803 0.74384 0.0
C2187 C 0.20807 0.69545 0.74179 0.0
C2188 C 0.22761 0.69187 0.73984 0.0
C2189 C 0.23395 0.67292 0.73873 0.0
C2190 C 0.22133 0.65796 0.7408 0.0
H2191 H 0.17858 0.64645 0.79449 0.0
H2192 H 0.20001 0.65557 0.78375 0.0
H2193 H 0.1777 0.66666 0.7787 0.0
H2194 H 0.18034 0.68319 0.74571 0.0
H2195 H 0.20273 0.70986 0.7422 0.0
H2196 H 0.17927 0.37751 0.4891 0.0
H2197 H 0.1473 0.39117 0.48977 0.0
H2198 H 0.16743 0.43686 0.52532 0.0
H2199 H 0.19952 0.42361 0.52417 0.0
H2200 H 0.12337 0.39784 0.51972 0.0
H2201 H 0.14088 0.46559 0.48334 0.0
H2202 H 0.15673 0.44544 0.48342 0.0
H2203 H 0.15565 0.46113 0.50357 0.0
C2204 C 0.17687 0.39052 0.49699 0.0
C2205 C 0.19187 0.39957 0.50652 0.0
C2206 C 0.1586 0.39827 0.49739 0.0
C2207 C 0.155 0.41514 0.50743 0.0
C2208 C 0.16995 0.42407 0.51714 0.0
H2209 H 0.05848 0.48926 0.51933 0.0
H2210 H 0.08515 0.46928 0.52931 0.0
C2211 C 0.18826 0.41646 0.51653 0.0
C2212 C 0.1356 0.42335 0.5079 0.0
H2213 H 0.11062 0.4637 0.4979 0.0
C2214 C 0.12056 0.41224 0.51496 0.0
C2215 C 0.13191 0.44206 0.50146 0.0
C2216 C 0.14709 0.45419 0.49234 0.0
C2217 C 0.102 0.41952 0.51611 0.0
C2218 C 0.09847 0.43837 0.51012 0.0
C2219 C 0.11348 0.44939 0.50296 0.0
C2220 C 0.07915 0.44667 0.50936 0.0
C2221 C 0.08632 0.40708 0.52377 0.0
C2222 C 0.0662 0.43995 0.49582 0.0
C2223 C 0.05099 0.45136 0.49016 0.0
C2224 C 0.0485 0.46952 0.49805 0.0
C2225 C 0.05993 0.47514 0.51332 0.0
C2226 C 0.07528 0.46381 0.51888 0.0
H2227 H 0.09198 0.39483 0.53198 0.0
H2228 H 0.0766 0.41541 0.533 0.0
H2229 H 0.0779 0.40139 0.51175 0.0
H2230 H 0.06901 0.42691 0.48814 0.0
H2231 H 0.04251 0.44693 0.47813 0.0
H2232 H 0.85817 0.93625 0.72246 0.0
H2233 H 0.84488 0.90405 0.72485 0.0
H2234 H 0.82797 0.91541 0.78265 0.0
H2235 H 0.84023 0.94795 0.77982 0.0
H2236 H 0.8544 0.87507 0.74775 0.0
H2237 H 0.77946 0.8947 0.76211 0.0
H2238 H 0.79674 0.9118 0.75402 0.0
H2239 H 0.79604 0.90475 0.77857 0.0
C2240 C 0.85138 0.93187 0.73556 0.0
C2241 C 0.84996 0.94455 0.75088 0.0
C2242 C 0.84387 0.91349 0.73697 0.0
C2243 C 0.83515 0.90732 0.75386 0.0
C2244 C 0.83406 0.91996 0.76928 0.0
H2245 H 0.76947 0.80245 0.7697 0.0
H2246 H 0.79092 0.82838 0.77942 0.0
C2247 C 0.84112 0.93852 0.76769 0.0
C2248 C 0.82755 0.88759 0.75534 0.0
H2249 H 0.78702 0.86218 0.76335 0.0
C2250 C 0.83968 0.87225 0.75128 0.0
C2251 C 0.80839 0.88383 0.7601 0.0
C2252 C 0.79434 0.89962 0.76378 0.0
C2253 C 0.83312 0.85336 0.75144 0.0
C2254 C 0.81379 0.84964 0.7556 0.0
C2255 C 0.80188 0.86492 0.76042 0.0
C2256 C 0.80481 0.83076 0.75204 0.0
C2257 C 0.84698 0.83765 0.74688 0.0
C2258 C 0.80611 0.82283 0.73384 0.0
C2259 C 0.79419 0.80798 0.7285 0.0
C2260 C 0.78047 0.80085 0.7411 0.0
C2261 C 0.78015 0.80751 0.75986 0.0
C2262 C 0.79226 0.82245 0.7653 0.0
H2263 H 0.86146 0.84134 0.75189 0.0
H2264 H 0.84269 0.82391 0.75338 0.0
H2265 H 0.84778 0.83583 0.73125 0.0
H2266 H 0.81516 0.82916 0.72313 0.0
H2267 H 0.79461 0.80318 0.71389 0.0
H2268 H 0.69485 0.11013 0.46849 0.0
H2269 H 0.66231 0.0976 0.46917 0.0
H2270 H 0.67264 0.07336 0.52447 0.0
H2271 H 0.70531 0.08539 0.52365 0.0
H2272 H 0.6523 0.05398 0.47951 0.0
H2273 H 0.6228 0.11209 0.52441 0.0
H2274 H 0.64337 0.11535 0.50941 0.0
H2275 H 0.64543 0.10229 0.53119 0.0
C2276 C 0.69015 0.10194 0.48067 0.0
C2277 C 0.70242 0.09847 0.49595 0.0
C2278 C 0.67167 0.09489 0.48105 0.0
C2279 C 0.66526 0.08476 0.49692 0.0
C2280 C 0.67752 0.0812 0.51214 0.0
H2281 H 0.56983 0.02083 0.53347 0.0
H2282 H 0.59879 0.04012 0.531 0.0
C2283 C 0.6961 0.0879 0.5116 0.0
C2284 C 0.64573 0.07769 0.49766 0.0
H2285 H 0.60306 0.08527 0.51915 0.0
C2286 C 0.64142 0.06087 0.48796 0.0
C2287 C 0.63179 0.08688 0.50873 0.0
C2288 C 0.63593 0.10524 0.51898 0.0
C2289 C 0.62345 0.05256 0.4896 0.0
C2290 C 0.60963 0.06152 0.50107 0.0
C2291 C 0.61381 0.07858 0.51039 0.0
C2292 C 0.591 0.05278 0.50412 0.0
C2293 C 0.61947 0.03401 0.4796 0.0
C2294 C 0.57692 0.05435 0.49022 0.0
C2295 C 0.56032 0.04371 0.49181 0.0
C2296 C 0.55776 0.03137 0.50726 0.0
C2297 C 0.57141 0.03064 0.5217 0.0
C2298 C 0.58793 0.04146 0.52021 0.0
H2299 H 0.63216 0.02838 0.47211 0.0
H2300 H 0.61453 0.0232 0.49001 0.0
H2301 H 0.60795 0.03608 0.46908 0.0
H2302 H 0.57927 0.06294 0.47765 0.0
H2303 H 0.55035 0.04382 0.48014 0.0
H2304 H 0.17833 0.46065 0.73731 0.0
H2305 H 0.19478 0.43025 0.73452 0.0
H2306 H 0.14501 0.40097 0.75507 0.0
H2307 H 0.12824 0.43145 0.75766 0.0
H2308 H 0.1994 0.40607 0.76748 0.0
H2309 H 0.16281 0.37006 0.70731 0.0
H2310 H 0.16204 0.39558 0.71054 0.0
H2311 H 0.14818 0.38033 0.72557 0.0
C2312 C 0.17084 0.44774 0.74113 0.0
C2313 C 0.15213 0.44833 0.74787 0.0
C2314 C 0.1802 0.43044 0.7394 0.0
C2315 C 0.17098 0.41354 0.7444 0.0
C2316 C 0.15216 0.41395 0.75083 0.0
H2317 H 0.19728 0.30304 0.7712 0.0
H2318 H 0.18519 0.33386 0.76268 0.0
C2319 C 0.1427 0.43131 0.75245 0.0
C2320 C 0.18186 0.39581 0.74467 0.0
H2321 H 0.18562 0.35205 0.72436 0.0
C2322 C 0.19667 0.39435 0.75784 0.0
C2323 C 0.1779 0.38063 0.7322 0.0
C2324 C 0.16194 0.38165 0.718 0.0
C2325 C 0.20743 0.37774 0.75925 0.0
C2326 C 0.20353 0.36256 0.7468 0.0
C2327 C 0.1889 0.36411 0.73339 0.0
C2328 C 0.21152 0.34372 0.7504 0.0
C2329 C 0.22204 0.376 0.77479 0.0
C2330 C 0.23049 0.33919 0.74627 0.0
C2331 C 0.23767 0.32124 0.75116 0.0
C2332 C 0.22592 0.3081 0.76052 0.0
C2333 C 0.20695 0.31297 0.76448 0.0
C2334 C 0.19984 0.3305 0.75937 0.0
H2335 H 0.22263 0.38887 0.78392 0.0
H2336 H 0.21877 0.3635 0.78388 0.0
H2337 H 0.23625 0.37367 0.76842 0.0
H2338 H 0.23963 0.34948 0.73937 0.0
H2339 H 0.25224 0.31769 0.74777 0.0
H2340 H 0.37567 0.56543 0.26432 0.0
H2341 H 0.36238 0.59763 0.26275 0.0
H2342 H 0.31417 0.57606 0.23186 0.0
H2343 H 0.32712 0.54384 0.23377 0.0
H2344 H 0.35361 0.61969 0.23133 0.0
H2345 H 0.28938 0.60585 0.27461 0.0
H2346 H 0.30931 0.58977 0.27406 0.0
H2347 H 0.29199 0.5894 0.25533 0.0
C2348 C 0.36217 0.56756 0.2573 0.0
C2349 C 0.35236 0.55211 0.24926 0.0
C2350 C 0.35464 0.58595 0.25637 0.0
C2351 C 0.3372 0.58921 0.24736 0.0
C2352 C 0.32746 0.57382 0.23922 0.0
H2353 H 0.26163 0.68326 0.23351 0.0
H2354 H 0.2813 0.65611 0.22443 0.0
C2355 C 0.33489 0.55542 0.24028 0.0
C2356 C 0.32922 0.60871 0.24622 0.0
H2357 H 0.28995 0.63477 0.25724 0.0
C2358 C 0.3397 0.62304 0.23701 0.0
C2359 C 0.3112 0.61309 0.25387 0.0
C2360 C 0.29989 0.59879 0.2652 0.0
C2361 C 0.33234 0.64152 0.23476 0.0
C2362 C 0.31406 0.64566 0.24185 0.0
C2363 C 0.30377 0.63141 0.25133 0.0
C2364 C 0.30555 0.66492 0.24103 0.0
C2365 C 0.34403 0.6564 0.2247 0.0
C2366 C 0.31321 0.67958 0.25214 0.0
C2367 C 0.30206 0.69529 0.257 0.0
C2368 C 0.28318 0.69649 0.25082 0.0
C2369 C 0.27637 0.68302 0.23785 0.0
C2370 C 0.28752 0.66734 0.23292 0.0
H2371 H 0.35564 0.64993 0.21621 0.0
H2372 H 0.33501 0.66518 0.2152 0.0
H2373 H 0.35051 0.666 0.23538 0.0
H2374 H 0.32693 0.6779 0.25884 0.0
H2375 H 0.30739 0.70519 0.26751 0.0
H2376 H 0.52916 0.69589 0.5975 0.0
H2377 H 0.529 0.66408 0.58342 0.0
H2378 H 0.4685 0.66822 0.57499 0.0
H2379 H 0.4689 0.7006 0.58809 0.0
H2380 H 0.51219 0.6329 0.59554 0.0
H2381 H 0.48407 0.64963 0.52388 0.0
H2382 H 0.4918 0.66795 0.54004 0.0
H2383 H 0.46878 0.65718 0.54277 0.0
C2384 C 0.5159 0.69008 0.59234 0.0
C2385 C 0.49909 0.70068 0.59361 0.0
C2386 C 0.51579 0.67189 0.58437 0.0
C2387 C 0.4988 0.66378 0.57786 0.0
C2388 C 0.4819 0.67435 0.57932 0.0
H2389 H 0.46699 0.55034 0.54863 0.0
H2390 H 0.47398 0.57943 0.5663 0.0
C2391 C 0.4821 0.6928 0.58686 0.0
C2392 C 0.49885 0.644 0.57031 0.0
H2393 H 0.48666 0.61685 0.53199 0.0
C2394 C 0.50671 0.62945 0.58158 0.0
C2395 C 0.49177 0.63944 0.55206 0.0
C2396 C 0.48379 0.65439 0.53891 0.0
C2397 C 0.50742 0.61052 0.57521 0.0
C2398 C 0.50011 0.60601 0.55717 0.0
C2399 C 0.49238 0.62047 0.54581 0.0
C2400 C 0.49919 0.58619 0.55016 0.0
C2401 C 0.51592 0.59535 0.58771 0.0
C2402 C 0.51169 0.57985 0.53597 0.0
C2403 C 0.50789 0.56297 0.52607 0.0
C2404 C 0.49147 0.55246 0.53018 0.0
C2405 C 0.48004 0.55793 0.54559 0.0
C2406 C 0.48388 0.57467 0.55553 0.0
H2407 H 0.52227 0.60135 0.60083 0.0
H2408 H 0.50477 0.58495 0.59176 0.0
H2409 H 0.52703 0.58747 0.57975 0.0
H2410 H 0.52353 0.58866 0.5316 0.0
H2411 H 0.51652 0.55938 0.51386 0.0
H2412 H 0.56909 0.26111 0.87037 0.0
H2413 H 0.59987 0.25844 0.85438 0.0
H2414 H 0.57392 0.22537 0.80982 0.0
H2415 H 0.54305 0.22854 0.82536 0.0
H2416 H 0.62141 0.22687 0.84309 0.0
H2417 H 0.59763 0.27012 0.78153 0.0
H2418 H 0.58443 0.26886 0.80346 0.0
H2419 H 0.58278 0.24993 0.78636 0.0
C2420 C 0.57001 0.25331 0.85714 0.0
C2421 C 0.55377 0.24534 0.84882 0.0
C2422 C 0.58754 0.25173 0.84812 0.0
C2423 C 0.58897 0.24202 0.83081 0.0
C2424 C 0.57291 0.23331 0.82295 0.0
H2425 H 0.68541 0.21217 0.76114 0.0
H2426 H 0.65364 0.21416 0.7755 0.0
C2427 C 0.55535 0.23515 0.83179 0.0
C2428 C 0.60706 0.24166 0.82047 0.0
H2429 H 0.62758 0.25504 0.77869 0.0
C2430 C 0.62282 0.23304 0.82903 0.0
C2431 C 0.60876 0.24995 0.80224 0.0
C2432 C 0.59256 0.26041 0.79291 0.0
C2433 C 0.64026 0.23218 0.81956 0.0
C2434 C 0.64174 0.24013 0.80121 0.0
C2435 C 0.6261 0.24884 0.79272 0.0
C2436 C 0.6597 0.24012 0.79083 0.0
C2437 C 0.65704 0.22292 0.82911 0.0
C2438 C 0.67291 0.25462 0.79409 0.0
C2439 C 0.69067 0.25382 0.78549 0.0
C2440 C 0.69533 0.23839 0.77381 0.0
C2441 C 0.68178 0.22437 0.76981 0.0
C2442 C 0.66387 0.22535 0.77816 0.0
H2443 H 0.65317 0.21625 0.84288 0.0
H2444 H 0.66322 0.21188 0.81968 0.0
H2445 H 0.6682 0.23377 0.83168 0.0
H2446 H 0.66975 0.26607 0.80389 0.0
H2447 H 0.70124 0.2644 0.78915 0.0
H2448 H 0.99271 0.29334 0.06608 0.0
H2449 H 0.9921 0.32471 0.05067 0.0
H2450 H 0.01322 0.35051 0.10196 0.0
H2451 H 0.01366 0.31933 0.11749 0.0
H2452 H 0.97107 0.35813 0.06465 0.0
H2453 H 0.04865 0.37052 0.05838 0.0
H2454 H 0.03855 0.34708 0.06142 0.0
H2455 H 0.04074 0.36277 0.0814 0.0
C2456 C -0.00263 0.30568 0.074 0.0
C2457 C 0.0032 0.30388 0.093 0.0
C2458 C -0.00304 0.32358 0.06521 0.0
C2459 C 0.00269 0.33991 0.07514 0.0
C2460 C 0.00888 0.33807 0.09398 0.0
H2461 H 0.01482 0.45958 0.05354 0.0
H2462 H 0.00712 0.42927 0.0689 0.0
C2463 C 0.00906 0.32026 0.10285 0.0
C2464 C 0.00156 0.35901 0.06617 0.0
H2465 H 0.02858 0.39693 0.05243 0.0
C2466 C 0.98363 0.36659 0.06184 0.0
C2467 C 0.01797 0.36997 0.06249 0.0
C2468 C 0.03761 0.36218 0.06598 0.0
C2469 C 0.98168 0.38509 0.0544 0.0
C2470 C -0.00193 0.39619 0.05117 0.0
C2471 C 0.016 0.38847 0.0552 0.0
C2472 C -0.00278 0.41574 0.0432 0.0
C2473 C 0.96216 0.39285 0.05041 0.0
C2474 C 0.99304 0.41856 0.02392 0.0
C2475 C -0.00278 0.436 0.0152 0.0
C2476 C 0.00562 0.45078 0.02565 0.0
C2477 C 0.00787 0.44859 0.04531 0.0
C2478 C 0.00375 0.43117 0.05402 0.0
H2479 H 0.95082 0.38369 0.05648 0.0
H2480 H 0.96073 0.40743 0.0563 0.0
H2481 H 0.96004 0.39377 0.03483 0.0
H2482 H 0.98822 0.40679 0.01525 0.0
H2483 H -0.00408 0.43715 -8e-05 0.0
H2484 H 0.93307 0.7405 0.37671 0.0
H2485 H 0.90123 0.74288 0.36306 0.0
H2486 H 0.92522 0.7633 0.31049 0.0
H2487 H 0.9571 0.76062 0.32388 0.0
H2488 H 0.88321 0.77539 0.34854 0.0
H2489 H 0.89108 0.7194 0.29351 0.0
H2490 H 0.90732 0.72171 0.31318 0.0
H2491 H 0.90939 0.73715 0.29291 0.0
C2492 C 0.93154 0.74539 0.3622 0.0
C2493 C 0.94751 0.75025 0.35128 0.0
C2494 C 0.91338 0.74675 0.35447 0.0
C2495 C 0.91096 0.753 0.33573 0.0
C2496 C 0.92687 0.75805 0.32486 0.0
H2497 H 0.82453 0.78361 0.25948 0.0
H2498 H 0.8519 0.78208 0.28051 0.0
C2499 C 0.94503 0.75657 0.33253 0.0
C2500 C 0.89174 0.75469 0.32765 0.0
H2501 H 0.86414 0.73976 0.29087 0.0
C2502 C 0.87891 0.76744 0.33608 0.0
C2503 C 0.88624 0.74419 0.31146 0.0
C2504 C 0.89916 0.72971 0.30232 0.0
C2505 C 0.8609 0.77052 0.32821 0.0
C2506 C 0.85573 0.76053 0.31169 0.0
C2507 C 0.8683 0.74738 0.3036 0.0
C2508 C 0.83798 0.76452 0.30152 0.0
C2509 C 0.84772 0.78487 0.33708 0.0
C2510 C 0.82093 0.75575 0.3069 0.0
C2511 C 0.80515 0.75661 0.29489 0.0
C2512 C 0.80647 0.76608 0.27735 0.0
C2513 C 0.82316 0.77608 0.27284 0.0
C2514 C 0.8388 0.77524 0.28481 0.0
H2515 H 0.85408 0.79186 0.3497 0.0
H2516 H 0.84398 0.79596 0.32648 0.0
H2517 H 0.83435 0.77772 0.34142 0.0
H2518 H 0.82018 0.74734 0.31978 0.0
H2519 H 0.79251 0.74869 0.29866 0.0
H2520 H 0.52875 0.30969 0.89324 0.0
H2521 H 0.52661 0.34134 0.90767 0.0
H2522 H 0.4689 0.32956 0.92468 0.0
H2523 H 0.47148 0.29752 0.91131 0.0
H2524 H 0.50399 0.36966 0.8983 0.0
H2525 H 0.48972 0.34984 0.9732 0.0
H2526 H 0.49749 0.33274 0.95578 0.0
H2527 H 0.47294 0.33966 0.95704 0.0
C2528 C 0.51573 0.31388 0.90029 0.0
C2529 C 0.50032 0.30135 0.9014 0.0
C2530 C 0.5145 0.33188 0.90848 0.0
C2531 C 0.49769 0.33767 0.9175 0.0
C2532 C 0.48219 0.32516 0.91835 0.0
H2533 H 0.46623 0.44383 0.97214 0.0
H2534 H 0.46415 0.41505 0.95246 0.0
C2535 C 0.48362 0.30697 0.91063 0.0
C2536 C 0.49612 0.35715 0.92514 0.0
H2537 H 0.4859 0.38245 0.96513 0.0
C2538 C 0.50005 0.37246 0.91292 0.0
C2539 C 0.49099 0.36072 0.94423 0.0
C2540 C 0.48773 0.34487 0.95837 0.0
C2541 C 0.49901 0.39129 0.91928 0.0
C2542 C 0.49379 0.39482 0.93827 0.0
C2543 C 0.48959 0.37958 0.95045 0.0
C2544 C 0.49423 0.41408 0.9464 0.0
C2545 C 0.50362 0.40726 0.90573 0.0
C2546 C 0.51173 0.42323 0.94885 0.0
C2547 C 0.51288 0.43958 0.95994 0.0
C2548 C 0.49654 0.44694 0.96857 0.0
C2549 C 0.47885 0.43857 0.9651 0.0
C2550 C 0.47771 0.42211 0.95408 0.0
H2551 H 0.50265 0.4026 0.8907 0.0
H2552 H 0.49394 0.41953 0.90794 0.0
H2553 H 0.51834 0.41219 0.90836 0.0
H2554 H 0.52466 0.41698 0.94335 0.0
H2555 H 0.52669 0.44564 0.96295 0.0
H2556 H 0.9388 0.27995 0.13821 0.0
H2557 H 0.90765 0.27987 0.15364 0.0
H2558 H 0.91914 0.22419 0.17677 0.0
H2559 H 0.95064 0.22458 0.162 0.0
H2560 H 0.87729 0.25603 0.15004 0.0
H2561 H 0.90464 0.25301 0.22394 0.0
H2562 H 0.91991 0.25777 0.20391 0.0
H2563 H 0.91241 0.23384 0.20906 0.0
C2564 C 0.93471 0.26775 0.1467 0.0
C2565 C 0.94722 0.2524 0.1492 0.0
C2566 C 0.9169 0.2677 0.15545 0.0
C2567 C 0.91119 0.25221 0.16669 0.0
C2568 C 0.92345 0.23656 0.16867 0.0
H2569 H 0.8064 0.21639 0.2126 0.0
H2570 H 0.83409 0.22289 0.19305 0.0
C2571 C 0.94142 0.23677 0.16019 0.0
C2572 C 0.89246 0.2526 0.17637 0.0
H2573 H 0.8713 0.25012 0.21997 0.0
C2574 C 0.87601 0.25492 0.16535 0.0
C2575 C 0.89077 0.25115 0.19636 0.0
C2576 C 0.90787 0.24897 0.20905 0.0
C2577 C 0.85792 0.25542 0.17376 0.0
C2578 C 0.85629 0.25382 0.19366 0.0
C2579 C 0.87269 0.25176 0.20472 0.0
C2580 C 0.83766 0.25171 0.20309 0.0
C2581 C 0.84058 0.25735 0.1614 0.0
C2582 C 0.83023 0.26598 0.21499 0.0
C2583 C 0.81431 0.26223 0.22646 0.0
C2584 C 0.80576 0.24423 0.22595 0.0
C2585 C 0.81251 0.23056 0.21298 0.0
C2586 C 0.82838 0.23418 0.20184 0.0
H2587 H 0.84428 0.26088 0.14647 0.0
H2588 H 0.83258 0.24374 0.16149 0.0
H2589 H 0.83106 0.26855 0.16713 0.0
H2590 H 0.83731 0.27961 0.21609 0.0
H2591 H 0.80954 0.27285 0.23652 0.0
H2592 H 0.98628 0.68103 0.3806 0.0
H2593 H 0.98793 0.65043 0.39738 0.0
H2594 H 0.02706 0.67479 0.43766 0.0
H2595 H 0.02503 0.70541 0.4214 0.0
H2596 H 0.01862 0.62621 0.40741 0.0
H2597 H 0.98265 0.65677 0.47057 0.0
H2598 H 0.98321 0.66874 0.4479 0.0
H2599 H 0.00343 0.66969 0.46342 0.0
C2600 C -0.00473 0.67976 0.393 0.0
C2601 C 0.00524 0.69556 0.4 0.0
C2602 C -0.00376 0.66234 0.40249 0.0
C2603 C 0.0073 0.6606 0.41893 0.0
C2604 C 0.01809 0.67608 0.42525 0.0
H2605 H 0.03938 0.56788 0.49149 0.0
H2606 H 0.03666 0.5984 0.47465 0.0
C2607 C 0.01691 0.69351 0.41598 0.0
C2608 C 0.00688 0.64296 0.43017 0.0
H2609 H -0.00385 0.62601 0.47427 0.0
C2610 C 0.01362 0.62608 0.42198 0.0
C2611 C 0.00013 0.64294 0.44909 0.0
C2612 C 0.99177 0.66046 0.45823 0.0
C2613 C 0.0143 0.6092 0.43256 0.0
C2614 C 0.00808 0.60942 0.45162 0.0
C2615 C 0.00103 0.62614 0.45966 0.0
C2616 C 0.00875 0.59233 0.46348 0.0
C2617 C 0.02173 0.59124 0.42347 0.0
C2618 C 0.99347 0.57961 0.46347 0.0
C2619 C -0.00527 0.5626 0.47355 0.0
C2620 C 0.01141 0.5581 0.48344 0.0
C2621 C 0.02627 0.57135 0.48428 0.0
C2622 C 0.02485 0.58853 0.47446 0.0
H2623 H 0.02674 0.59367 0.4087 0.0
H2624 H 0.03364 0.58544 0.43199 0.0
H2625 H 0.01036 0.58032 0.42325 0.0
H2626 H 0.98098 0.58247 0.45499 0.0
H2627 H 0.9834 0.55226 0.47218 0.0
H2628 H 0.54696 0.78415 0.6612 0.0
H2629 H 0.57748 0.78618 0.67773 0.0
H2630 H 0.59194 0.72996 0.6577 0.0
H2631 H 0.56201 0.72856 0.64013 0.0
H2632 H 0.58868 0.76607 0.70591 0.0
H2633 H 0.64126 0.75508 0.64867 0.0
H2634 H 0.61662 0.7599 0.64376 0.0
H2635 H 0.62433 0.73608 0.64932 0.0
C2636 C 0.55681 0.77235 0.66022 0.0
C2637 C 0.55219 0.75614 0.64958 0.0
C2638 C 0.57424 0.77351 0.6696 0.0
C2639 C 0.58719 0.7583 0.66889 0.0
C2640 C 0.58255 0.74214 0.65807 0.0
H2641 H 0.6912 0.73135 0.7302 0.0
H2642 H 0.65956 0.72889 0.71577 0.0
C2643 C 0.56535 0.74123 0.64822 0.0
C2644 C 0.60462 0.75867 0.68084 0.0
H2645 H 0.65252 0.751 0.68046 0.0
C2646 C 0.60264 0.76289 0.70025 0.0
C2647 C 0.62293 0.75458 0.67354 0.0
C2648 C 0.62645 0.75137 0.65265 0.0
C2649 C 0.61828 0.76285 0.71257 0.0
C2650 C 0.6364 0.75828 0.70538 0.0
C2651 C 0.63849 0.75411 0.686 0.0
C2652 C 0.65366 0.75906 0.71739 0.0
C2653 C 0.61529 0.76759 0.73323 0.0
C2654 C 0.66041 0.77669 0.72379 0.0
C2655 C 0.67839 0.7781 0.73195 0.0
C2656 C 0.68989 0.7619 0.73398 0.0
C2657 C 0.68248 0.744 0.72911 0.0
C2658 C 0.66453 0.74262 0.72066 0.0
H2659 H 0.60011 0.7666 0.73737 0.0
H2660 H 0.62372 0.75795 0.74244 0.0
H2661 H 0.62014 0.78238 0.73588 0.0
H2662 H 0.65233 0.78956 0.72127 0.0
H2663 H 0.68389 0.79208 0.7354 0.0
H2664 H 0.59653 0.46511 0.70244 0.0
H2665 H 0.5806 0.46283 0.67161 0.0
H2666 H 0.58776 0.52329 0.66348 0.0
H2667 H 0.60449 0.5254 0.69379 0.0
H2668 H 0.54828 0.47836 0.66227 0.0
H2669 H 0.60232 0.5051 0.61194 0.0
H2670 H 0.60807 0.4985 0.63601 0.0
H2671 H 0.59834 0.52164 0.63087 0.0
C2672 C 0.59479 0.47786 0.69397 0.0
C2673 C 0.60152 0.49547 0.70054 0.0
C2674 C 0.58578 0.47655 0.67634 0.0
C2675 C 0.5831 0.49286 0.66508 0.0
C2676 C 0.59006 0.51041 0.67159 0.0
H2677 H 0.52006 0.5181 0.56169 0.0
H2678 H 0.53382 0.52051 0.59367 0.0
C2679 C 0.59942 0.51165 0.68903 0.0
C2680 C 0.57147 0.49183 0.64749 0.0
H2681 H 0.57033 0.5044 0.60064 0.0
C2682 C 0.55318 0.48396 0.64877 0.0
C2683 C 0.57784 0.49906 0.62982 0.0
C2684 C 0.59779 0.50635 0.627 0.0
C2685 C 0.54095 0.48353 0.63308 0.0
C2686 C 0.54711 0.49122 0.61558 0.0
C2687 C 0.56545 0.49893 0.6142 0.0
C2688 C 0.53543 0.49006 0.59811 0.0
C2689 C 0.52144 0.47501 0.63543 0.0
C2690 C 0.53105 0.47222 0.5904 0.0
C2691 C 0.52315 0.47085 0.57232 0.0
C2692 C 0.51954 0.48729 0.56152 0.0
C2693 C 0.52246 0.50522 0.56981 0.0
C2694 C 0.53053 0.50659 0.58795 0.0
H2695 H 0.51697 0.47475 0.65056 0.0
H2696 H 0.51074 0.48302 0.62709 0.0
H2697 H 0.52164 0.4601 0.63023 0.0
H2698 H 0.53492 0.45928 0.59782 0.0
H2699 H 0.52113 0.45685 0.5662 0.0
H2700 H 0.74935 0.37573 0.93145 0.0
H2701 H 0.75174 0.36142 0.89991 0.0
H2702 H 0.76105 0.30639 0.92543 0.0
H2703 H 0.75845 0.32057 0.95708 0.0
H2704 H 0.78287 0.3408 0.8845 0.0
H2705 H 0.71699 0.29764 0.88787 0.0
H2706 H 0.72159 0.31715 0.90389 0.0
H2707 H 0.73244 0.29434 0.90785 0.0
C2708 C 0.75181 0.36056 0.93034 0.0
C2709 C 0.75363 0.3492 0.94667 0.0
C2710 C 0.7532 0.35245 0.91234 0.0
C2711 C 0.75636 0.33288 0.91042 0.0
C2712 C 0.75828 0.3215 0.92669 0.0
H2713 H 0.77749 0.24853 0.82937 0.0
H2714 H 0.77782 0.27078 0.8559 0.0
C2715 C 0.75684 0.32959 0.94472 0.0
C2716 C 0.75799 0.32434 0.8914 0.0
H2717 H 0.73881 0.29015 0.86306 0.0
C2718 C 0.77313 0.32989 0.87965 0.0
C2719 C 0.74508 0.31033 0.88513 0.0
C2720 C 0.728 0.30462 0.89675 0.0
C2721 C 0.77626 0.32097 0.86211 0.0
C2722 C 0.76391 0.3063 0.85637 0.0
C2723 C 0.74831 0.30136 0.86771 0.0
C2724 C 0.7676 0.29463 0.83945 0.0
C2725 C 0.79307 0.32663 0.85014 0.0
C2726 C 0.76247 0.30105 0.82133 0.0
C2727 C 0.76232 0.28835 0.80605 0.0
C2728 C 0.76702 0.2691 0.8089 0.0
C2729 C 0.77355 0.26321 0.8268 0.0
C2730 C 0.7738 0.27588 0.84195 0.0
H2731 H 0.80172 0.33794 0.85695 0.0
H2732 H 0.80221 0.31403 0.84752 0.0
H2733 H 0.78808 0.33186 0.83614 0.0
H2734 H 0.75754 0.3155 0.81926 0.0
H2735 H 0.75727 0.29329 0.79241 0.0
H2736 H 0.89927 0.5341 0.19535 0.0
H2737 H 0.91553 0.53716 0.16463 0.0
H2738 H 0.92386 0.4763 0.16318 0.0
H2739 H 0.90715 0.47326 0.19366 0.0
H2740 H 0.95317 0.52596 0.15975 0.0
H2741 H 0.90567 0.48865 0.10915 0.0
H2742 H 0.89757 0.4976 0.13178 0.0
H2743 H 0.91044 0.47558 0.13054 0.0
C2744 C 0.90438 0.52143 0.18822 0.0
C2745 C 0.90221 0.50348 0.19658 0.0
C2746 C 0.91357 0.52315 0.17078 0.0
C2747 C 0.92073 0.50693 0.16166 0.0
C2748 C 0.91807 0.48891 0.16985 0.0
H2749 H 0.98728 0.48806 0.06047 0.0
H2750 H 0.97508 0.4847 0.09289 0.0
C2751 C 0.90871 0.48718 0.18722 0.0
C2752 C 0.93267 0.50903 0.14463 0.0
H2753 H 0.93684 0.49559 0.09839 0.0
C2754 C 0.94961 0.51938 0.14629 0.0
C2755 C 0.92788 0.50043 0.12719 0.0
C2756 C 0.90932 0.49008 0.12442 0.0
C2757 C 0.96217 0.52106 0.13097 0.0
C2758 C 0.95753 0.51223 0.1136 0.0
C2759 C 0.94051 0.50198 0.11191 0.0
C2760 C 0.96921 0.51472 0.09643 0.0
C2761 C 0.98031 0.53213 0.13354 0.0
C2762 C 0.97076 0.53281 0.08821 0.0
C2763 C 0.97769 0.53474 0.06981 0.0
C2764 C 0.98306 0.5186 0.05938 0.0
C2765 C 0.98332 0.50073 0.06829 0.0
C2766 C 0.97623 0.49878 0.0867 0.0
H2767 H 0.98432 0.53321 0.14875 0.0
H2768 H 0.99219 0.52547 0.12559 0.0
H2769 H 0.97829 0.54679 0.12803 0.0
H2770 H 0.96521 0.54524 0.09541 0.0
H2771 H 0.97745 0.54868 0.06321 0.0
H2772 H 0.7548 0.68264 0.46109 0.0
H2773 H 0.75507 0.69855 0.43004 0.0
H2774 H 0.73828 0.64609 0.40313 0.0
H2775 H 0.73801 0.63014 0.43397 0.0
H2776 H 0.77845 0.68653 0.39858 0.0
H2777 H 0.70176 0.68661 0.38068 0.0
H2778 H 0.71035 0.6839 0.40468 0.0
H2779 H 0.71078 0.66406 0.38863 0.0
C2780 C 0.75094 0.67459 0.44857 0.0
C2781 C 0.74649 0.65515 0.44991 0.0
C2782 C 0.75113 0.68367 0.43088 0.0
C2783 C 0.7466 0.6735 0.41435 0.0
C2784 C 0.74161 0.65424 0.41575 0.0
H2785 H 0.73906 0.69805 0.29489 0.0
H2786 H 0.74564 0.6813 0.32466 0.0
C2787 C 0.74157 0.64513 0.43336 0.0
C2788 C 0.74833 0.68257 0.39546 0.0
H2789 H 0.7232 0.69408 0.35574 0.0
C2790 C 0.76638 0.6883 0.38922 0.0
C2791 C 0.73254 0.6848 0.38333 0.0
C2792 C 0.71272 0.67969 0.38967 0.0
C2793 C 0.76913 0.69584 0.37095 0.0
C2794 C 0.75341 0.69779 0.35871 0.0
C2795 C 0.73531 0.69225 0.36505 0.0
C2796 C 0.75502 0.70648 0.33961 0.0
C2797 C 0.78886 0.70135 0.36473 0.0
C2798 C 0.75937 0.72589 0.3378 0.0
C2799 C 0.75593 0.73535 0.32069 0.0
C2800 C 0.748 0.72555 0.30526 0.0
C2801 C 0.74568 0.70577 0.30643 0.0
C2802 C 0.74912 0.69628 0.32353 0.0
H2803 H 0.79989 0.69479 0.37389 0.0
H2804 H 0.79143 0.69705 0.34978 0.0
H2805 H 0.79039 0.71704 0.36562 0.0
H2806 H 0.76363 0.73411 0.35008 0.0
H2807 H 0.75724 0.75072 0.32029 0.0
H2808 H 0.62851 0.49976 0.82116 0.0
H2809 H 0.6131 0.4997 0.85228 0.0
H2810 H 0.55844 0.50472 0.82538 0.0
H2811 H 0.57377 0.50471 0.79406 0.0
H2812 H 0.58664 0.52747 0.86913 0.0
H2813 H 0.55549 0.45547 0.85899 0.0
H2814 H 0.575 0.46419 0.84479 0.0
H2815 H 0.55133 0.47246 0.84034 0.0
C2816 C 0.6132 0.50092 0.82184 0.0
C2817 C 0.60231 0.502 0.80514 0.0
C2818 C 0.60444 0.50093 0.83965 0.0
C2819 C 0.58464 0.50191 0.84111 0.0
C2820 C 0.57374 0.50362 0.82451 0.0
H2821 H 0.50179 0.50318 0.92942 0.0
H2822 H 0.51997 0.49667 0.90061 0.0
C2823 C 0.5825 0.50365 0.80666 0.0
C2824 C 0.5754 0.50054 0.86 0.0
H2825 H 0.5469 0.47194 0.88696 0.0
C2826 C 0.57804 0.5153 0.87313 0.0
C2827 C 0.56423 0.48463 0.86511 0.0
C2828 C 0.56139 0.46818 0.85167 0.0
C2829 C 0.5693 0.51483 0.89108 0.0
C2830 C 0.55808 0.49886 0.89622 0.0
C2831 C 0.55566 0.48403 0.88312 0.0
C2832 C 0.54733 0.49819 0.91441 0.0
C2833 C 0.57149 0.53181 0.90401 0.0
C2834 C 0.55657 0.49966 0.93203 0.0
C2835 C 0.5461 0.50314 0.94861 0.0
C2836 C 0.5263 0.50501 0.94774 0.0
C2837 C 0.51701 0.50134 0.93052 0.0
C2838 C 0.52743 0.49791 0.91399 0.0
H2839 H 0.57713 0.54444 0.89636 0.0
H2840 H 0.55768 0.53569 0.91055 0.0
H2841 H 0.58153 0.52824 0.91559 0.0
H2842 H 0.57191 0.49945 0.93276 0.0
H2843 H 0.55359 0.50634 0.96164 0.0
H2844 H 0.76984 0.32451 0.04282 0.0
H2845 H 0.76874 0.30806 0.07352 0.0
H2846 H 0.73075 0.35094 0.09522 0.0
H2847 H 0.73196 0.36764 0.06467 0.0
H2848 H 0.77491 0.32677 0.11456 0.0
H2849 H 0.70469 0.29456 0.09759 0.0
H2850 H 0.72054 0.30306 0.07927 0.0
H2851 H 0.70782 0.3197 0.09375 0.0
C2852 C 0.76132 0.33043 0.05417 0.0
C2853 C 0.75087 0.3472 0.05142 0.0
C2854 C 0.76082 0.32113 0.07165 0.0
C2855 C 0.74968 0.32836 0.08644 0.0
C2856 C 0.73946 0.34527 0.08387 0.0
H2857 H 0.70862 0.2898 0.19221 0.0
H2858 H 0.71477 0.30307 0.16119 0.0
C2859 C 0.74014 0.35471 0.06647 0.0
C2860 C 0.74777 0.31752 0.10417 0.0
H2861 H 0.7176 0.28788 0.12759 0.0
C2862 C 0.76248 0.31816 0.1175 0.0
C2863 C 0.73145 0.3065 0.10775 0.0
C2864 C 0.71519 0.30575 0.09385 0.0
C2865 C 0.76101 0.30834 0.1348 0.0
C2866 C 0.74468 0.29713 0.13836 0.0
C2867 C 0.7302 0.29628 0.12473 0.0
C2868 C 0.74114 0.28791 0.15689 0.0
C2869 C 0.77651 0.31075 0.14937 0.0
C2870 C 0.7537 0.27446 0.16465 0.0
C2871 C 0.75037 0.26694 0.18277 0.0
C2872 C 0.73429 0.27258 0.19318 0.0
C2873 C 0.7212 0.28509 0.18471 0.0
C2874 C 0.7247 0.29279 0.16691 0.0
H2875 H 0.78588 0.32302 0.14602 0.0
H2876 H 0.7704 0.31288 0.16375 0.0
H2877 H 0.7854 0.29774 0.14969 0.0
H2878 H 0.76622 0.2701 0.15688 0.0
H2879 H 0.76073 0.25735 0.18889 0.0
H2880 H 0.91287 0.5295 0.30394 0.0
H2881 H 0.9259 0.52625 0.33619 0.0
H2882 H 0.90966 0.46702 0.33683 0.0
H2883 H 0.89681 0.47028 0.3046 0.0
H2884 H 0.90564 0.51383 0.36955 0.0
H2885 H 0.96664 0.46699 0.35131 0.0
H2886 H 0.95416 0.4809 0.33377 0.0
H2887 H 0.9439 0.45928 0.3427 0.0
C2888 C 0.91235 0.51581 0.31101 0.0
C2889 C 0.9042 0.50005 0.30203 0.0
C2890 C 0.91964 0.51397 0.32933 0.0
C2891 C 0.91885 0.49635 0.33871 0.0
C2892 C 0.91062 0.48063 0.32966 0.0
H2893 H 0.96717 0.46744 0.45002 0.0
H2894 H 0.94579 0.46567 0.42235 0.0
C2895 C 0.90333 0.48248 0.31137 0.0
C2896 C 0.92641 0.49449 0.3581 0.0
H2897 H 0.96175 0.47365 0.38373 0.0
C2898 C 0.91782 0.50495 0.37272 0.0
C2899 C 0.94224 0.48283 0.36208 0.0
C2900 C 0.95242 0.47195 0.34666 0.0
C2901 C 0.92495 0.50434 0.39126 0.0
C2902 C 0.94103 0.49303 0.39513 0.0
C2903 C 0.94922 0.48207 0.38066 0.0
C2904 C 0.95133 0.49457 0.4132 0.0
C2905 C 0.91555 0.51608 0.40652 0.0
C2906 C 0.96127 0.51138 0.41706 0.0
C2907 C 0.97359 0.51224 0.43242 0.0
C2908 C 0.97595 0.49638 0.44425 0.0
C2909 C 0.96537 0.47981 0.44102 0.0
C2910 C 0.95324 0.47882 0.42533 0.0
H2911 H 0.90081 0.52003 0.40259 0.0
H2912 H 0.9153 0.50826 0.42022 0.0
H2913 H 0.92376 0.52939 0.40862 0.0
H2914 H 0.96016 0.52354 0.40767 0.0
H2915 H 0.98165 0.52515 0.43482 0.0
H2916 H 0.72877 0.63686 0.56465 0.0
H2917 H 0.7304 0.65086 0.5964 0.0
H2918 H 0.78007 0.68271 0.57977 0.0
H2919 H 0.77805 0.66928 0.54776 0.0
H2920 H 0.75815 0.64856 0.62288 0.0
H2921 H 0.74717 0.72386 0.6021 0.0
H2922 H 0.74287 0.70437 0.58603 0.0
H2923 H 0.76662 0.71294 0.58982 0.0
C2924 C 0.73994 0.64698 0.56775 0.0
C2925 C 0.75321 0.65214 0.55377 0.0
C2926 C 0.74088 0.65491 0.58588 0.0
C2927 C 0.7552 0.66801 0.59037 0.0
C2928 C 0.76861 0.673 0.57646 0.0
H2929 H 0.78428 0.73526 0.68783 0.0
H2930 H 0.7862 0.715 0.65962 0.0
C2931 C 0.76749 0.6653 0.55822 0.0
C2932 C 0.75628 0.67619 0.60971 0.0
H2933 H 0.75711 0.71825 0.63376 0.0
C2934 C 0.75787 0.6638 0.6253 0.0
C2935 C 0.75574 0.69606 0.61282 0.0
C2936 C 0.75281 0.71008 0.59683 0.0
C2937 C 0.75943 0.67079 0.64391 0.0
C2938 C 0.75931 0.69066 0.64692 0.0
C2939 C 0.7575 0.70301 0.63135 0.0
C2940 C 0.76059 0.69925 0.66604 0.0
C2941 C 0.7615 0.65693 0.66013 0.0
C2942 C 0.74605 0.69644 0.67942 0.0
C2943 C 0.7452 0.70774 0.69574 0.0
C2944 C 0.75871 0.7221 0.69862 0.0
C2945 C 0.77388 0.72406 0.6859 0.0
C2946 C 0.7749 0.7126 0.66979 0.0
H2947 H 0.76596 0.64263 0.65513 0.0
H2948 H 0.77198 0.66217 0.67066 0.0
H2949 H 0.74763 0.65539 0.66744 0.0
H2950 H 0.73464 0.68653 0.6766 0.0
H2951 H 0.73316 0.70635 0.70523 0.0
H2952 H 0.70773 0.57705 0.47832 0.0
H2953 H 0.67616 0.56267 0.47573 0.0
H2954 H 0.65419 0.60371 0.51562 0.0
H2955 H 0.68552 0.61852 0.51773 0.0
H2956 H 0.65487 0.54634 0.50352 0.0
H2957 H 0.61595 0.60794 0.47315 0.0
H2958 H 0.64153 0.60695 0.47397 0.0
H2959 H 0.62819 0.61306 0.49487 0.0
C2960 C 0.69613 0.583 0.48648 0.0
C2961 C 0.69899 0.59892 0.49815 0.0
C2962 C 0.67812 0.57483 0.48496 0.0
C2963 C 0.66275 0.58237 0.49519 0.0
C2964 C 0.6657 0.59803 0.50716 0.0
H2965 H 0.54766 0.54169 0.51303 0.0
H2966 H 0.57645 0.56135 0.51213 0.0
C2967 C 0.68363 0.60637 0.50846 0.0
C2968 C 0.64385 0.57325 0.49395 0.0
H2969 H 0.59741 0.58132 0.48261 0.0
C2970 C 0.64234 0.55396 0.49883 0.0
C2971 C 0.62748 0.58331 0.48802 0.0
C2972 C 0.62833 0.60391 0.48204 0.0
C2973 C 0.62491 0.54443 0.49802 0.0
C2974 C 0.60861 0.5544 0.49185 0.0
C2975 C 0.60999 0.57375 0.48722 0.0
C2976 C 0.59007 0.54474 0.49014 0.0
C2977 C 0.62401 0.52384 0.50411 0.0
C2978 C 0.58792 0.52954 0.47744 0.0
C2979 C 0.57164 0.51828 0.47805 0.0
C2980 C 0.55712 0.52236 0.49106 0.0
C2981 C 0.55857 0.53851 0.50266 0.0
C2982 C 0.57502 0.54963 0.50226 0.0
H2983 H 0.63663 0.51964 0.51256 0.0
H2984 H 0.61107 0.52106 0.51268 0.0
H2985 H 0.62348 0.51464 0.49133 0.0
H2986 H 0.59925 0.52581 0.46773 0.0
H2987 H 0.57075 0.50588 0.46896 0.0
H2988 H 0.19156 0.88693 0.52878 0.0
H2989 H 0.16106 0.90364 0.53226 0.0
H2990 H 0.17026 0.93151 0.47842 0.0
H2991 H 0.201 0.91534 0.47528 0.0
H2992 H 0.1598 0.94768 0.52916 0.0
H2993 H 0.11353 0.90734 0.4795 0.0
H2994 H 0.13391 0.89687 0.49103 0.0
H2995 H 0.13716 0.9127 0.4713 0.0
C2996 C 0.18685 0.89648 0.51766 0.0
C2997 C 0.19835 0.90007 0.50181 0.0
C2998 C 0.16956 0.90594 0.51964 0.0
C2999 C 0.16353 0.91862 0.50551 0.0
C3000 C 0.17476 0.92165 0.48936 0.0
H3001 H 0.06354 0.98644 0.48672 0.0
H3002 H 0.09607 0.97434 0.4843 0.0
C3003 C 0.19222 0.91255 0.48761 0.0
C3004 C 0.14631 0.93001 0.50821 0.0
H3005 H 0.10171 0.93664 0.49105 0.0
C3006 C 0.14702 0.94531 0.52092 0.0
C3007 C 0.12985 0.92671 0.49738 0.0
C3008 C 0.12838 0.90994 0.4841 0.0
C3009 C 0.13171 0.95787 0.52273 0.0
C3010 C 0.11527 0.95478 0.51168 0.0
C3011 C 0.11451 0.93923 0.49918 0.0
C3012 C 0.09798 0.9664 0.51395 0.0
C3013 C 0.13346 0.97446 0.5362 0.0
C3014 C 0.0888 0.96682 0.53157 0.0
C3015 C 0.07048 0.97399 0.533 0.0
C3016 C 0.06089 0.98047 0.51676 0.0
C3017 C 0.07068 0.98167 0.49945 0.0
C3018 C 0.08915 0.97458 0.49804 0.0
H3019 H 0.14854 0.97842 0.53853 0.0
H3020 H 0.12569 0.98712 0.53086 0.0
H3021 H 0.12738 0.97039 0.55017 0.0
H3022 H 0.09516 0.96027 0.54394 0.0
H3023 H 0.06326 0.97298 0.54655 0.0
H3024 H 0.32655 0.95668 0.73671 0.0
H3025 H 0.31261 0.92463 0.73795 0.0
H3026 H 0.35816 0.90593 0.77425 0.0
H3027 H 0.37234 0.93773 0.77278 0.0
H3028 H 0.33634 0.88814 0.72798 0.0
H3029 H 0.30405 0.89157 0.8002 0.0
H3030 H 0.3082 0.91264 0.78608 0.0
H3031 H 0.32778 0.9006 0.79695 0.0
C3032 C 0.33343 0.94575 0.74509 0.0
C3033 C 0.35046 0.94953 0.75464 0.0
C3034 C 0.32554 0.92752 0.74572 0.0
C3035 C 0.33441 0.91309 0.75623 0.0
C3036 C 0.35117 0.91697 0.76612 0.0
H3037 H 0.29194 0.79575 0.77086 0.0
H3038 H 0.31371 0.82314 0.77296 0.0
C3039 C 0.35922 0.93506 0.76523 0.0
C3040 C 0.32647 0.89375 0.75636 0.0
H3041 H 0.30029 0.86299 0.78314 0.0
C3042 C 0.3286 0.88252 0.74007 0.0
C3043 C 0.31662 0.88656 0.77228 0.0
C3044 C 0.31387 0.8984 0.78991 0.0
C3045 C 0.32056 0.86433 0.73909 0.0
C3046 C 0.31002 0.85742 0.75471 0.0
C3047 C 0.30856 0.86834 0.77129 0.0
C3048 C 0.298 0.84038 0.75296 0.0
C3049 C 0.32291 0.8528 0.72118 0.0
C3050 C 0.2821 0.84124 0.74114 0.0
C3051 C 0.26968 0.82594 0.74011 0.0
C3052 C 0.27294 0.80939 0.75086 0.0
C3053 C 0.28913 0.80834 0.76244 0.0
C3054 C 0.30151 0.8239 0.76365 0.0
H3055 H 0.33533 0.85766 0.71274 0.0
H3056 H 0.32463 0.83745 0.72452 0.0
H3057 H 0.31004 0.85444 0.71228 0.0
H3058 H 0.2791 0.85395 0.73295 0.0
H3059 H 0.25746 0.82711 0.73088 0.0
H3060 H 0.2941 0.07436 0.01983 0.0
H3061 H 0.32532 0.05904 0.02008 0.0
H3062 H 0.34902 0.10687 0.98982 0.0
H3063 H 0.31802 0.12244 0.98992 0.0
H3064 H 0.34558 0.04878 0.98805 0.0
H3065 H 0.38734 0.09887 0.03239 0.0
H3066 H 0.36174 0.09871 0.03214 0.0
H3067 H 0.3747 0.10995 0.01322 0.0
C3068 C 0.30602 0.08165 0.01337 0.0
C3069 C 0.30367 0.09952 0.00476 0.0
C3070 C 0.32381 0.07292 0.01355 0.0
C3071 C 0.33948 0.08192 0.0051 0.0
C3072 C 0.3372 0.09988 -0.00325 0.0
H3073 H 0.457 0.03791 -0.00238 0.0
H3074 H 0.42892 0.05722 0.98899 0.0
C3075 C 0.31946 0.10868 -0.0033 0.0
C3076 C 0.35789 0.07193 0.00383 0.0
H3077 H 0.4044 0.07445 0.01694 0.0
C3078 C 0.35847 0.05445 0.99426 0.0
C3079 C 0.37467 0.07943 0.01187 0.0
C3080 C 0.37464 0.09768 0.02314 0.0
C3081 C 0.37536 0.04407 0.99277 0.0
C3082 C 0.39207 0.05136 0.00114 0.0
C3083 C 0.39165 0.06913 0.01018 0.0
C3084 C 0.40892 0.03924 0.004 0.0
C3085 C 0.37499 0.02512 0.98271 0.0
C3086 C 0.40685 0.02297 0.01519 0.0
C3087 C 0.42254 0.01224 0.02011 0.0
C3088 C 0.44086 0.01756 0.01416 0.0
C3089 C 0.44305 0.03356 0.00241 0.0
C3090 C 0.42709 0.04452 -0.00249 0.0
H3091 H 0.36376 0.02476 0.97166 0.0
H3092 H 0.38886 0.02187 0.97598 0.0
H3093 H 0.37173 0.01374 0.99316 0.0
H3094 H 0.39309 0.01887 0.02072 0.0
H3095 H 0.42022 -0.00016 0.02898 0.0
H3096 H 0.63231 0.56607 0.76539 0.0
H3097 H 0.64718 0.59754 0.76552 0.0
H3098 H 0.70006 0.57265 0.74742 0.0
H3099 H 0.6853 0.54097 0.7474 0.0
H3100 H 0.68353 0.60992 0.78544 0.0
H3101 H 0.68407 0.61501 0.70658 0.0
H3102 H 0.66827 0.59926 0.7193 0.0
H3103 H 0.69291 0.59335 0.717 0.0
C3104 C 0.64714 0.56726 0.76152 0.0
C3105 C 0.65762 0.55109 0.7562 0.0
C3106 C 0.6556 0.58524 0.76166 0.0
C3107 C 0.67462 0.5874 0.75626 0.0
C3108 C 0.68529 0.57124 0.75144 0.0
H3109 H 0.7517 0.68203 0.7508 0.0
H3110 H 0.73513 0.65207 0.74435 0.0
C3111 C 0.67688 0.55318 0.75148 0.0
C3112 C 0.68307 0.60665 0.75509 0.0
H3113 H 0.69839 0.64026 0.72349 0.0
C3114 C 0.68673 0.61661 0.77193 0.0
C3115 C 0.68715 0.61528 0.73741 0.0
C3116 C 0.68283 0.60531 0.71897 0.0
C3117 C 0.69472 0.63492 0.77153 0.0
C3118 C 0.6988 0.64356 0.75382 0.0
C3119 C 0.69512 0.63361 0.73699 0.0
C3120 C 0.70759 0.66268 0.75275 0.0
C3121 C 0.69916 0.64477 0.79003 0.0
C3122 C 0.69731 0.67887 0.75823 0.0
C3123 C 0.70672 0.69608 0.76156 0.0
C3124 C 0.72647 0.69724 0.75946 0.0
C3125 C 0.73638 0.68161 0.752 0.0
C3126 C 0.72697 0.66442 0.7486 0.0
H3127 H 0.69754 0.63512 0.80243 0.0
H3128 H 0.7139 0.65037 0.78983 0.0
H3129 H 0.68943 0.65703 0.79195 0.0
H3130 H 0.6823 0.6778 0.76138 0.0
H3131 H 0.69889 0.7078 0.76777 0.0
H3132 H 0.79748 0.41665 0.97097 0.0
H3133 H 0.82925 0.43038 0.9676 0.0
H3134 H 0.84525 0.40625 0.02162 0.0
H3135 H 0.81379 0.3918 0.02462 0.0
H3136 H 0.84724 0.45568 0.9901 0.0
H3137 H 0.88799 0.38819 0.98811 0.0
H3138 H 0.86253 0.38891 0.98553 0.0
H3139 H 0.87317 0.3904 0.0087 0.0
C3140 C 0.80781 0.41435 0.98211 0.0
C3141 C 0.80337 0.40318 -0.002 0.0
C3142 C 0.82592 0.42209 0.98014 0.0
C3143 C 0.83968 0.41893 0.99416 0.0
C3144 C 0.83501 0.4083 0.01036 0.0
H3145 H 0.94954 0.46329 0.01992 0.0
H3146 H 0.92071 0.44384 0.01767 0.0
C3147 C 0.81704 0.40024 0.01215 0.0
C3148 C 0.85872 0.42737 0.99215 0.0
H3149 H 0.90593 0.41673 0.99186 0.0
C3150 C 0.86008 0.44717 0.99027 0.0
C3151 C 0.87538 0.41615 0.99243 0.0
C3152 C 0.87473 0.39472 0.99362 0.0
C3153 C 0.87773 0.45619 0.98922 0.0
C3154 C 0.8944 0.44499 0.98972 0.0
C3155 C 0.89307 0.42518 0.99139 0.0
C3156 C 0.91334 0.45381 0.98953 0.0
C3157 C 0.87838 0.47766 0.98827 0.0
C3158 C 0.91911 0.46497 0.97405 0.0
C3159 C 0.93537 0.47614 0.97543 0.0
C3160 C 0.94622 0.47582 0.99207 0.0
C3161 C 0.94142 0.4634 0.00687 0.0
C3162 C 0.92497 0.45244 0.00562 0.0
H3163 H 0.86456 0.48418 0.99218 0.0
H3164 H 0.8895 0.48338 -0.00215 0.0
H3165 H 0.88184 0.48214 0.97356 0.0
H3166 H 0.91046 0.46586 0.96139 0.0
H3167 H 0.93889 0.48583 0.96397 0.0
H3168 H 0.34668 0.05187 0.71686 0.0
H3169 H 0.331 0.0829 0.71432 0.0
H3170 H 0.33503 0.08985 0.7751 0.0
H3171 H 0.35175 0.05936 0.77743 0.0
H3172 H 0.29771 0.09126 0.72926 0.0
H3173 H 0.35114 0.1416 0.75762 0.0
H3174 H 0.35709 0.11763 0.75062 0.0
H3175 H 0.34668 0.12217 0.77352 0.0
C3176 C 0.34429 0.06019 0.72959 0.0
C3177 C 0.35007 0.0534 0.74734 0.0
C3178 C 0.33548 0.07786 0.72814 0.0
C3179 C 0.33202 0.08872 0.7445 0.0
C3180 C 0.33802 0.08194 0.76225 0.0
H3181 H 0.26849 0.19106 0.76783 0.0
H3182 H 0.28043 0.15835 0.77002 0.0
C3183 C 0.34732 0.0645 0.76362 0.0
C3184 C 0.32052 0.10618 0.74318 0.0
H3185 H 0.3194 0.15312 0.7552 0.0
C3186 C 0.30249 0.10482 0.73484 0.0
C3187 C 0.32687 0.12382 0.75043 0.0
C3188 C 0.34658 0.12647 0.75836 0.0
C3189 C 0.29045 0.1206 0.73382 0.0
C3190 C 0.2966 0.13805 0.74149 0.0
C3191 C 0.31465 0.13949 0.74974 0.0
C3192 C 0.28527 0.15549 0.73982 0.0
C3193 C 0.27126 0.11853 0.72463 0.0
C3194 C 0.28338 0.16418 0.72204 0.0
C3195 C 0.27672 0.18277 0.72079 0.0
C3196 C 0.27186 0.19283 0.73731 0.0
C3197 C 0.27205 0.1835 0.75492 0.0
C3198 C 0.27894 0.16493 0.75618 0.0
H3199 H 0.26704 0.10337 0.72315 0.0
H3200 H 0.26025 0.12614 0.73297 0.0
H3201 H 0.27172 0.12496 0.71024 0.0
H3202 H 0.28838 0.15713 0.70931 0.0
H3203 H 0.2766 0.18972 0.70705 0.0
H3204 H 0.17528 0.95211 0.27552 0.0
H3205 H 0.19069 0.92073 0.27566 0.0
H3206 H 0.15656 0.90358 0.2279 0.0
H3207 H 0.14066 0.93471 0.22811 0.0
H3208 H 0.16655 0.883 0.27702 0.0
H3209 H 0.21666 0.89185 0.21646 0.0
H3210 H 0.20782 0.91182 0.22999 0.0
H3211 H 0.19269 0.90015 0.21321 0.0
C3212 C 0.17118 0.94165 0.26501 0.0
C3213 C 0.15675 0.94566 0.25189 0.0
C3214 C 0.17996 0.9238 0.2651 0.0
C3215 C 0.17477 0.90996 0.25175 0.0
C3216 C 0.16073 0.91414 0.23829 0.0
H3217 H 0.20047 0.79489 0.22499 0.0
H3218 H 0.18426 0.82481 0.23188 0.0
C3219 C 0.15163 0.93181 0.23848 0.0
C3220 C 0.1832 0.89073 0.25257 0.0
H3221 H 0.21377 0.86091 0.22965 0.0
C3222 C 0.177 0.87818 0.2668 0.0
C3223 C 0.19677 0.8846 0.23914 0.0
C3224 C 0.20404 0.89777 0.22385 0.0
C3225 C 0.18376 0.85941 0.26768 0.0
C3226 C 0.19711 0.85321 0.25414 0.0
C3227 C 0.20354 0.86583 0.24006 0.0
C3228 C 0.20398 0.83337 0.25372 0.0
C3229 C 0.17635 0.84607 0.28271 0.0
C3230 C 0.21968 0.82781 0.26465 0.0
C3231 C 0.22887 0.81053 0.26087 0.0
C3232 C 0.22241 0.79885 0.24609 0.0
C3233 C 0.20542 0.80348 0.23678 0.0
C3234 C 0.19635 0.82071 0.24045 0.0
H3235 H 0.1655 0.85289 0.29189 0.0
H3236 H 0.17002 0.83332 0.27589 0.0
H3237 H 0.18829 0.84112 0.29171 0.0
H3238 H 0.22572 0.83748 0.27497 0.0
H3239 H 0.24221 0.80748 0.26786 0.0
H3240 H 0.48245 0.29575 0.42661 0.0
H3241 H 0.48003 0.32783 0.44011 0.0
H3242 H 0.51374 0.35003 0.39399 0.0
H3243 H 0.51578 0.31817 0.3802 0.0
H3244 H 0.50973 0.35123 0.45164 0.0
H3245 H 0.46859 0.38623 0.39411 0.0
H3246 H 0.47044 0.36066 0.39615 0.0
H3247 H 0.48985 0.37428 0.38669 0.0
C3248 C 0.48929 0.3075 0.41936 0.0
C3249 C 0.49922 0.30452 0.40234 0.0
C3250 C 0.48786 0.3258 0.42702 0.0
C3251 C 0.49638 0.34137 0.41784 0.0
C3252 C 0.50659 0.33834 0.40102 0.0
H3253 H 0.5189 0.45651 0.45125 0.0
H3254 H 0.51124 0.42866 0.43193 0.0
C3255 C 0.50786 0.3201 0.39325 0.0
C3256 C 0.49532 0.36061 0.42642 0.0
H3257 H 0.47992 0.40613 0.41885 0.0
C3258 C 0.50303 0.36318 0.44456 0.0
C3259 C 0.48692 0.37626 0.41695 0.0
C3260 C 0.47834 0.37427 0.39745 0.0
C3261 C 0.50265 0.38099 0.45351 0.0
C3262 C 0.49376 0.39654 0.44431 0.0
C3263 C 0.48632 0.39408 0.42602 0.0
C3264 C 0.4933 0.41565 0.45322 0.0
C3265 C 0.51235 0.38312 0.4725 0.0
C3266 C 0.4844 0.41834 0.47088 0.0
C3267 C 0.48868 0.43435 0.48187 0.0
C3268 C 0.50172 0.44786 0.47519 0.0
C3269 C 0.50852 0.44642 0.45652 0.0
C3270 C 0.50433 0.43039 0.44556 0.0
H3271 H 0.52214 0.37109 0.47549 0.0
H3272 H 0.52056 0.3966 0.47312 0.0
H3273 H 0.50149 0.38347 0.4839 0.0
H3274 H 0.47558 0.40723 0.4769 0.0
H3275 H 0.48356 0.43499 0.49637 0.0
H3276 H 0.43502 0.76596 0.13321 0.0
H3277 H 0.40395 0.76284 0.14858 0.0
H3278 H 0.42698 0.7207 0.18674 0.0
H3279 H 0.45816 0.72432 0.17197 0.0
H3280 H 0.37967 0.73183 0.15464 0.0
H3281 H 0.40717 0.76198 0.2221 0.0
H3282 H 0.42005 0.76339 0.20003 0.0
H3283 H 0.42035 0.74179 0.21375 0.0
C3284 C 0.43338 0.75605 0.14489 0.0
C3285 C 0.4489 0.74558 0.15172 0.0
C3286 C 0.41568 0.7542 0.15353 0.0
C3287 C 0.41337 0.7417 0.16888 0.0
C3288 C 0.42869 0.73067 0.17513 0.0
H3289 H 0.31181 0.73175 0.2414 0.0
H3290 H 0.34147 0.72196 0.22583 0.0
C3291 C 0.44643 0.73278 0.16676 0.0
C3292 C 0.39531 0.74108 0.17924 0.0
H3293 H 0.37584 0.75064 0.22245 0.0
C3294 C 0.3788 0.73574 0.16951 0.0
C3295 C 0.39434 0.74644 0.19855 0.0
C3296 C 0.41137 0.75391 0.2092 0.0
C3297 C 0.36116 0.73595 0.17866 0.0
C3298 C 0.3603 0.74138 0.19794 0.0
C3299 C 0.37684 0.74602 0.20779 0.0
C3300 C 0.34233 0.74632 0.20704 0.0
C3301 C 0.3435 0.73116 0.16758 0.0
C3302 C 0.33396 0.76366 0.20227 0.0
C3303 C 0.3176 0.76956 0.21146 0.0
C3304 C 0.30905 0.75797 0.22534 0.0
C3305 C 0.31804 0.74094 0.23076 0.0
C3306 C 0.33472 0.73518 0.22169 0.0
H3307 H 0.34685 0.72334 0.15429 0.0
H3308 H 0.33364 0.72247 0.17632 0.0
H3309 H 0.33607 0.74454 0.16371 0.0
H3310 H 0.3401 0.77265 0.19135 0.0
H3311 H 0.31121 0.78284 0.20697 0.0
H3312 H 0.03566 0.7028 0.9127 0.0
H3313 H 0.03849 0.67009 0.92484 0.0
H3314 H 0.98027 0.65931 0.90937 0.0
H3315 H 0.97773 0.69157 0.8965 0.0
H3316 H 0.01883 0.65151 0.95278 0.0
H3317 H 0.00651 0.61507 0.88423 0.0
H3318 H 0.01167 0.6402 0.88569 0.0
H3319 H 0.98806 0.63154 0.89022 0.0
C3320 C 0.02348 0.69341 0.91203 0.0
C3321 C 0.00651 0.69958 0.90365 0.0
C3322 C 0.02513 0.67475 0.91885 0.0
C3323 C 0.00975 0.66208 0.91756 0.0
C3324 C 0.99254 0.66857 0.9099 0.0
H3325 H 0.96498 0.56057 0.95496 0.0
H3326 H 0.97687 0.58745 0.93699 0.0
C3327 C 0.99103 0.68705 0.90274 0.0
C3328 C 0.01141 0.64223 0.92468 0.0
H3329 H 0.00348 0.59597 0.91223 0.0
C3330 C 0.01583 0.63929 0.94388 0.0
C3331 C 0.00758 0.62632 0.91299 0.0
C3332 C 0.00337 0.6284 0.89209 0.0
C3333 C 0.0151 0.62103 0.95206 0.0
C3334 C 0.0104 0.60517 0.94054 0.0
C3335 C 0.00719 0.60805 0.92106 0.0
C3336 C 0.00516 0.58641 0.94889 0.0
C3337 C 0.01799 0.61916 0.97321 0.0
C3338 C 0.01741 0.57596 0.9608 0.0
C3339 C 0.01047 0.5604 0.97133 0.0
C3340 C 0.99131 0.55515 0.96983 0.0
C3341 C 0.97981 0.56437 0.95643 0.0
C3342 C 0.98661 0.57981 0.94614 0.0
H3343 H 0.01854 0.63322 0.9804 0.0
H3344 H 0.00638 0.61067 0.97968 0.0
H3345 H 0.0316 0.61174 0.97597 0.0
H3346 H 0.03197 0.58043 0.96274 0.0
H3347 H 0.01959 0.55357 0.98164 0.0
H3348 H 0.05583 0.21953 0.64895 0.0
H3349 H 0.08723 0.21804 0.66381 0.0
H3350 H 0.08767 0.27931 0.66881 0.0
H3351 H 0.05576 0.28063 0.65488 0.0
H3352 H 0.11981 0.23313 0.65111 0.0
H3353 H 0.10208 0.26325 0.7218 0.0
H3354 H 0.08415 0.2555 0.70526 0.0
H3355 H 0.09531 0.27835 0.70242 0.0
C3356 C 0.06268 0.23259 0.65343 0.0
C3357 C 0.05367 0.25016 0.65106 0.0
C3358 C 0.0805 0.23176 0.66184 0.0
C3359 C 0.08958 0.24854 0.66762 0.0
C3360 C 0.08063 0.26618 0.66493 0.0
H3361 H 0.20037 0.27328 0.7119 0.0
H3362 H 0.17152 0.27335 0.69245 0.0
C3363 C 0.06257 0.26696 0.65692 0.0
C3364 C 0.10875 0.24753 0.67579 0.0
H3365 H 0.13486 0.25929 0.71472 0.0
C3366 C 0.12311 0.23879 0.66505 0.0
C3367 C 0.11287 0.25482 0.69402 0.0
C3368 C 0.09776 0.26333 0.70664 0.0
C3369 C 0.14163 0.23737 0.672 0.0
C3370 C 0.14577 0.24502 0.68997 0.0
C3371 C 0.13148 0.25368 0.70078 0.0
C3372 C 0.16481 0.24384 0.69812 0.0
C3373 C 0.15673 0.22784 0.6602 0.0
C3374 C 0.17067 0.22702 0.70704 0.0
C3375 C 0.18704 0.22698 0.7181 0.0
C3376 C 0.19765 0.24369 0.72005 0.0
C3377 C 0.19253 0.26013 0.71003 0.0
C3378 C 0.17607 0.26024 0.69914 0.0
H3379 H 0.15161 0.2242 0.64575 0.0
H3380 H 0.16932 0.23727 0.65895 0.0
H3381 H 0.16137 0.21457 0.66738 0.0
H3382 H 0.16193 0.21435 0.70648 0.0
H3383 H 0.19062 0.21438 0.72622 0.0
H3384 H 0.53226 0.69325 0.10357 0.0
H3385 H 0.5323 0.66102 0.09054 0.0
H3386 H 0.47219 0.66535 0.07965 0.0
H3387 H 0.47237 0.69809 0.09178 0.0
H3388 H 0.51356 0.63025 0.10307 0.0
H3389 H 0.4917 0.64722 0.02912 0.0
H3390 H 0.49902 0.66532 0.04571 0.0
H3391 H 0.47554 0.65542 0.04702 0.0
C3392 C 0.51915 0.68736 0.0981 0.0
C3393 C 0.50238 0.69803 0.09832 0.0
C3394 C 0.51915 0.66899 0.09079 0.0
C3395 C 0.5023 0.66092 0.08397 0.0
C3396 C 0.48543 0.67153 0.08439 0.0
H3397 H 0.48418 0.54706 0.0397 0.0
H3398 H 0.4807 0.57561 0.05936 0.0
C3399 C 0.48553 0.69014 0.09129 0.0
C3400 C 0.50257 0.64127 0.07669 0.0
H3401 H 0.49524 0.61469 0.03692 0.0
C3402 C 0.50947 0.62682 0.08863 0.0
C3403 C 0.49728 0.63694 0.05783 0.0
C3404 C 0.49063 0.65204 0.0441 0.0
C3405 C 0.51154 0.60815 0.08205 0.0
C3406 C 0.50639 0.60393 0.06325 0.0
C3407 C 0.49904 0.61817 0.05143 0.0
C3408 C 0.50957 0.58504 0.05503 0.0
C3409 C 0.51956 0.59307 0.09497 0.0
C3410 C 0.52713 0.58085 0.04667 0.0
C3411 C 0.52907 0.56476 0.03525 0.0
C3412 C 0.51358 0.55259 0.03253 0.0
C3413 C 0.49646 0.55602 0.04214 0.0
C3414 C 0.4944 0.57234 0.05319 0.0
H3415 H 0.52143 0.59828 0.10974 0.0
H3416 H 0.51007 0.58045 0.09514 0.0
H3417 H 0.53354 0.58837 0.08943 0.0
H3418 H 0.5389 0.59069 0.04792 0.0
H3419 H 0.54223 0.56246 0.02763 0.0
H3420 H 0.05026 0.72319 0.83367 0.0
H3421 H 0.08253 0.72033 0.82076 0.0
H3422 H 0.09756 0.7739 0.84657 0.0
H3423 H 0.06566 0.77647 0.85997 0.0
H3424 H 0.1026 0.74409 0.79677 0.0
H3425 H 0.13922 0.73948 0.86622 0.0
H3426 H 0.11387 0.73655 0.86386 0.0
H3427 H 0.12423 0.75996 0.8639 0.0
C3428 C 0.06047 0.73436 0.83648 0.0
C3429 C 0.05557 0.74996 0.84793 0.0
C3430 C 0.07888 0.73269 0.82919 0.0
C3431 C 0.09261 0.74664 0.83315 0.0
C3432 C 0.08743 0.76263 0.84389 0.0
H3433 H 0.20011 0.7833 0.79784 0.0
H3434 H 0.17277 0.77383 0.81685 0.0
C3435 C 0.06915 0.76417 0.8514 0.0
C3436 C 0.11223 0.7448 0.8257 0.0
H3437 H 0.15882 0.74503 0.83907 0.0
C3438 C 0.11491 0.74395 0.80599 0.0
C3439 C 0.12825 0.74473 0.8378 0.0
C3440 C 0.12629 0.74505 0.85913 0.0
C3441 C 0.13317 0.744 0.79799 0.0
C3442 C 0.14924 0.74428 0.81008 0.0
C3443 C 0.14653 0.74454 0.82982 0.0
C3444 C 0.16872 0.74697 0.80242 0.0
C3445 C 0.13502 0.74495 0.77665 0.0
C3446 C 0.17659 0.73426 0.78914 0.0
C3447 C 0.19245 0.73965 0.77835 0.0
C3448 C 0.20055 0.7577 0.78083 0.0
C3449 C 0.19418 0.76922 0.7958 0.0
C3450 C 0.17842 0.76388 0.80655 0.0
H3451 H 0.12133 0.74843 0.76966 0.0
H3452 H 0.14565 0.75582 0.77242 0.0
H3453 H 0.13983 0.73094 0.77122 0.0
H3454 H 0.16959 0.7209 0.78605 0.0
H3455 H 0.19698 0.73068 0.76677 0.0
H3456 H 0.01461 0.31744 0.62574 0.0
H3457 H 0.01605 0.34884 0.61052 0.0
H3458 H 0.99176 0.32513 0.55957 0.0
H3459 H 0.99053 0.29373 0.57451 0.0
H3460 H 0.03592 0.35493 0.57202 0.0
H3461 H 0.95961 0.37452 0.57563 0.0
H3462 H 0.97059 0.35817 0.59211 0.0
H3463 H 0.96441 0.35036 0.56866 0.0
C3464 C 0.00951 0.31901 0.61132 0.0
C3465 C 0.00258 0.30329 0.60115 0.0
C3466 C 0.01035 0.33685 0.60272 0.0
C3467 C 0.00393 0.33907 0.58407 0.0
C3468 C -0.00333 0.3235 0.57405 0.0
H3469 H 0.98401 0.42683 0.50389 0.0
H3470 H 0.99143 0.3954 0.51726 0.0
C3471 C -0.00392 0.30565 0.58252 0.0
C3472 C 0.00556 0.3574 0.57443 0.0
H3473 H 0.97879 0.39199 0.55413 0.0
C3474 C 0.02352 0.36322 0.56816 0.0
C3475 C 0.98929 0.36798 0.5697 0.0
C3476 C 0.96987 0.36259 0.57699 0.0
C3477 C 0.02553 0.37909 0.55632 0.0
C3478 C 0.00912 0.38922 0.55089 0.0
C3479 C 0.99126 0.38376 0.55786 0.0
C3480 C 0.00993 0.40646 0.53917 0.0
C3481 C 0.04504 0.38458 0.54938 0.0
C3482 C 0.01884 0.42269 0.54643 0.0
C3483 C 0.01477 0.4404 0.53873 0.0
C3484 C 0.00164 0.44197 0.52387 0.0
C3485 C 0.99423 0.42568 0.5153 0.0
C3486 C -0.00156 0.40788 0.52294 0.0
H3487 H 0.05507 0.37241 0.55012 0.0
H3488 H 0.04456 0.38991 0.53455 0.0
H3489 H 0.05071 0.39611 0.55852 0.0
H3490 H 0.02744 0.42193 0.55915 0.0
H3491 H 0.0205 0.45302 0.54548 0.0
H3492 H 0.46327 0.26433 0.32169 0.0
H3493 H 0.43287 0.26654 0.30502 0.0
H3494 H 0.40354 0.24961 0.35607 0.0
H3495 H 0.43384 0.24763 0.3729 0.0
H3496 H 0.40744 0.23572 0.30049 0.0
H3497 H 0.3731 0.29627 0.33772 0.0
H3498 H 0.39838 0.29211 0.33862 0.0
H3499 H 0.38256 0.27819 0.35305 0.0
C3500 C 0.45033 0.26119 0.32938 0.0
C3501 C 0.45092 0.25573 0.34855 0.0
C3502 C 0.433 0.26253 0.31987 0.0
C3503 C 0.41597 0.25847 0.32937 0.0
C3504 C 0.41649 0.2532 0.34859 0.0
H3505 H 0.30331 0.23022 0.31024 0.0
H3506 H 0.33562 0.23695 0.31961 0.0
C3507 C 0.43382 0.25193 0.35813 0.0
C3508 C 0.39784 0.25827 0.31879 0.0
H3509 H 0.35317 0.27698 0.31818 0.0
C3510 C 0.39568 0.245 0.30407 0.0
C3511 C 0.38254 0.27035 0.3236 0.0
C3512 C 0.38424 0.28516 0.339 0.0
C3513 C 0.37829 0.24282 0.29465 0.0
C3514 C 0.36284 0.25445 0.29986 0.0
C3515 C 0.36519 0.26826 0.31407 0.0
C3516 C 0.34343 0.25032 0.29312 0.0
C3517 C 0.37613 0.22735 0.27999 0.0
C3518 C 0.3372 0.2554 0.27487 0.0
C3519 C 0.31841 0.25164 0.26934 0.0
C3520 C 0.30579 0.24262 0.28199 0.0
C3521 C 0.3125 0.23713 0.30001 0.0
C3522 C 0.33101 0.24105 0.30551 0.0
H3523 H 0.38935 0.21896 0.2781 0.0
H3524 H 0.36452 0.21754 0.28422 0.0
H3525 H 0.37218 0.23377 0.26615 0.0
H3526 H 0.34671 0.26253 0.2651 0.0
H3527 H 0.31372 0.2561 0.2554 0.0
H3528 H 0.43126 0.48942 0.28961 0.0
H3529 H 0.44712 0.48789 0.32043 0.0
H3530 H 0.39395 0.49915 0.34861 0.0
H3531 H 0.37789 0.50035 0.31777 0.0
H3532 H 0.4482 0.51793 0.34682 0.0
H3533 H 0.41516 0.45324 0.37825 0.0
H3534 H 0.41447 0.45819 0.35308 0.0
H3535 H 0.3991 0.47081 0.36904 0.0
C3536 C 0.42293 0.49147 0.30237 0.0
C3537 C 0.40337 0.49502 0.30131 0.0
C3538 C 0.43198 0.49052 0.31995 0.0
C3539 C 0.42167 0.49315 0.33679 0.0
C3540 C 0.40209 0.49665 0.33581 0.0
H3541 H 0.4484 0.51246 0.45255 0.0
H3542 H 0.43429 0.50466 0.42202 0.0
C3543 C 0.39298 0.49747 0.31819 0.0
C3544 C 0.43178 0.4935 0.3552 0.0
H3545 H 0.43533 0.4714 0.39824 0.0
C3546 C 0.44558 0.50761 0.35798 0.0
C3547 C 0.42809 0.48016 0.36979 0.0
C3548 C 0.4135 0.46463 0.36744 0.0
C3549 C 0.4556 0.50897 0.3751 0.0
C3550 C 0.4521 0.49554 0.38962 0.0
C3551 C 0.43829 0.48139 0.38687 0.0
C3552 C 0.46094 0.49758 0.40856 0.0
C3553 C 0.46925 0.52528 0.37787 0.0
C3554 C 0.48064 0.49562 0.41128 0.0
C3555 C 0.48883 0.50004 0.42891 0.0
C3556 C 0.47735 0.50677 0.44373 0.0
C3557 C 0.45761 0.50778 0.44113 0.0
C3558 C 0.44949 0.50316 0.42378 0.0
H3559 H 0.46812 0.53608 0.3664 0.0
H3560 H 0.4666 0.53239 0.3917 0.0
H3561 H 0.48398 0.51974 0.37802 0.0
H3562 H 0.48966 0.49112 0.39967 0.0
H3563 H 0.50404 0.49887 0.43075 0.0
H3564 H 0.2373 0.67596 0.04267 0.0
H3565 H 0.23458 0.68861 0.07506 0.0
H3566 H 0.27415 0.64627 0.09495 0.0
H3567 H 0.27664 0.63334 0.06274 0.0
H3568 H 0.22459 0.66209 0.10987 0.0
H3569 H 0.29244 0.7028 0.11247 0.0
H3570 H 0.28044 0.69763 0.09042 0.0
H3571 H 0.29292 0.67912 0.10266 0.0
C3572 C 0.24565 0.66963 0.05392 0.0
C3573 C 0.25725 0.65382 0.05037 0.0
C3574 C 0.24396 0.67671 0.07234 0.0
C3575 C 0.25416 0.66828 0.08719 0.0
C3576 C 0.2662 0.65288 0.08355 0.0
H3577 H 0.26328 0.70353 0.20511 0.0
H3578 H 0.26416 0.68276 0.17715 0.0
C3579 C 0.26764 0.64559 0.06524 0.0
C3580 C 0.25196 0.67534 0.10665 0.0
H3581 H 0.27381 0.70231 0.14026 0.0
C3582 C 0.23533 0.67082 0.11661 0.0
C3583 C 0.26614 0.68655 0.11523 0.0
C3584 C 0.284 0.69197 0.10471 0.0
C3585 C 0.23238 0.6776 0.13507 0.0
C3586 C 0.24639 0.68914 0.14351 0.0
C3587 C 0.26322 0.69325 0.13369 0.0
C3588 C 0.24311 0.69888 0.16165 0.0
C3589 C 0.21432 0.67262 0.14542 0.0
C3590 C 0.2307 0.71444 0.16215 0.0
C3591 C 0.23025 0.72626 0.17799 0.0
C3592 C 0.24204 0.72249 0.19356 0.0
C3593 C 0.25363 0.70627 0.1935 0.0
C3594 C 0.25428 0.69456 0.17752 0.0
H3595 H 0.20666 0.66067 0.1385 0.0
H3596 H 0.21741 0.66871 0.16038 0.0
H3597 H 0.20483 0.68522 0.1456 0.0
H3598 H 0.22226 0.71811 0.14984 0.0
H3599 H 0.22141 0.73887 0.17771 0.0
H3600 H 0.07987 0.52605 0.7942 0.0
H3601 H 0.06429 0.52977 0.825 0.0
H3602 H 0.10179 0.48767 0.84911 0.0
H3603 H 0.11782 0.48433 0.81842 0.0
H3604 H 0.04576 0.49975 0.84172 0.0
H3605 H 0.10067 0.52857 0.89024 0.0
H3606 H 0.10263 0.5302 0.8647 0.0
H3607 H 0.10844 0.50838 0.87671 0.0
C3608 C 0.08486 0.51772 0.80614 0.0
C3609 C 0.09977 0.50469 0.80401 0.0
C3610 C 0.07609 0.51997 0.82369 0.0
C3611 C 0.08203 0.50912 0.83928 0.0
C3612 C 0.09731 0.49648 0.83732 0.0
H3613 H 0.04023 0.46552 0.94101 0.0
H3614 H 0.05186 0.47208 0.90903 0.0
C3615 C 0.10628 0.49442 0.81979 0.0
C3616 C 0.07066 0.50915 0.85679 0.0
H3617 H 0.07343 0.5141 0.90479 0.0
C3618 C 0.05167 0.50327 0.85549 0.0
C3619 C 0.07852 0.5137 0.87464 0.0
C3620 C 0.09864 0.52074 0.87669 0.0
C3621 C 0.04055 0.50092 0.87176 0.0
C3622 C 0.04865 0.50468 0.88961 0.0
C3623 C 0.06737 0.51131 0.89092 0.0
C3624 C 0.03872 0.49979 0.90723 0.0
C3625 C 0.02054 0.49358 0.86999 0.0
C3626 C 0.02684 0.51299 0.91623 0.0
C3627 C 0.02004 0.50925 0.93449 0.0
C3628 C 0.02531 0.49239 0.94387 0.0
C3629 C 0.03608 0.47868 0.93415 0.0
C3630 C 0.04275 0.48239 0.91595 0.0
H3631 H 0.01611 0.49196 0.85494 0.0
H3632 H 0.01939 0.47955 0.87715 0.0
H3633 H 0.0106 0.50346 0.87722 0.0
H3634 H 0.02366 0.5265 0.90954 0.0
H3635 H 0.01186 0.5201 0.94173 0.0
H3636 H 0.22205 0.37078 0.56998 0.0
H3637 H 0.22053 0.35694 0.60193 0.0
H3638 H 0.26274 0.31547 0.58614 0.0
H3639 H 0.26397 0.32896 0.55392 0.0
H3640 H 0.21509 0.31095 0.60795 0.0
H3641 H 0.2776 0.34778 0.63942 0.0
H3642 H 0.26418 0.35802 0.62009 0.0
H3643 H 0.27962 0.33824 0.61574 0.0
C3644 C 0.231 0.35871 0.57336 0.0
C3645 C 0.24302 0.35079 0.55955 0.0
C3646 C 0.23012 0.35087 0.59155 0.0
C3647 C 0.24156 0.33529 0.59629 0.0
C3648 C 0.25381 0.32751 0.58264 0.0
H3649 H 0.25762 0.25181 0.67685 0.0
H3650 H 0.24546 0.27056 0.65056 0.0
C3651 C 0.25442 0.33512 0.56429 0.0
C3652 C 0.24017 0.32672 0.61535 0.0
H3653 H 0.26285 0.32392 0.65795 0.0
C3654 C 0.22535 0.31392 0.61902 0.0
C3655 C 0.25352 0.33083 0.62967 0.0
C3656 C 0.26964 0.34453 0.62621 0.0
C3657 C 0.224 0.30444 0.63651 0.0
C3658 C 0.23779 0.30797 0.65063 0.0
C3659 C 0.25211 0.32146 0.64722 0.0
C3660 C 0.23973 0.29557 0.6675 0.0
C3661 C 0.2082 0.2903 0.63957 0.0
C3662 C 0.2399 0.30317 0.68598 0.0
C3663 C 0.24682 0.2923 0.7012 0.0
C3664 C 0.25379 0.27392 0.69788 0.0
C3665 C 0.25197 0.26586 0.67977 0.0
C3666 C 0.24503 0.27658 0.66471 0.0
H3667 H 0.1961 0.29301 0.62985 0.0
H3668 H 0.21358 0.27575 0.63667 0.0
H3669 H 0.20305 0.29074 0.65446 0.0
H3670 H 0.23598 0.31788 0.68836 0.0
H3671 H 0.24845 0.29887 0.715 0.0
H3672 H 0.4205 0.47693 0.19949 0.0
H3673 H 0.43378 0.47782 0.16721 0.0
H3674 H 0.3999 0.52725 0.15448 0.0
H3675 H 0.38621 0.52613 0.18652 0.0
H3676 H 0.40736 0.47983 0.13026 0.0
H3677 H 0.46055 0.53744 0.1414 0.0
H3678 H 0.45271 0.52217 0.16051 0.0
H3679 H 0.43714 0.54014 0.15145 0.0
C3680 C 0.41603 0.48805 0.18982 0.0
C3681 C 0.40237 0.50147 0.19542 0.0
C3682 C 0.42355 0.48851 0.17143 0.0
C3683 C 0.41782 0.50264 0.15856 0.0
C3684 C 0.40447 0.51626 0.16425 0.0
H3685 H 0.45432 0.50529 0.037 0.0
H3686 H 0.43651 0.51545 0.06564 0.0
C3687 C 0.39667 0.51558 0.18249 0.0
C3688 C 0.42546 0.50286 0.139 0.0
H3689 H 0.45915 0.52365 0.11094 0.0
C3690 C 0.41842 0.48963 0.12589 0.0
C3691 C 0.43996 0.5156 0.13349 0.0
C3692 C 0.44819 0.52966 0.14738 0.0
C3693 C 0.42591 0.48851 0.10745 0.0
C3694 C 0.44073 0.50094 0.10203 0.0
C3695 C 0.44742 0.51451 0.115 0.0
C3696 C 0.45205 0.49706 0.08479 0.0
C3697 C 0.41878 0.47328 0.09418 0.0
C3698 C 0.46681 0.48393 0.08631 0.0
C3699 C 0.47668 0.47818 0.07028 0.0
C3700 C 0.47206 0.48535 0.05219 0.0
C3701 C 0.45796 0.49938 0.05068 0.0
C3702 C 0.44786 0.50516 0.06698 0.0
H3703 H 0.40544 0.46665 0.09937 0.0
H3704 H 0.4163 0.47931 0.07982 0.0
H3705 H 0.42971 0.46199 0.09282 0.0
H3706 H 0.4703 0.47761 0.09991 0.0
H3707 H 0.48772 0.4676 0.07204 0.0
H3708 H 0.22247 0.6644 0.95289 0.0
H3709 H 0.21893 0.67939 0.92177 0.0
H3710 H 0.27242 0.65529 0.90403 0.0
H3711 H 0.27558 0.63957 0.93491 0.0
H3712 H 0.24389 0.70586 0.90992 0.0
H3713 H 0.24026 0.6473 0.85719 0.0
H3714 H 0.23617 0.64346 0.88223 0.0
H3715 H 0.25996 0.6453 0.87315 0.0
C3716 C 0.23334 0.66218 0.94224 0.0
C3717 C 0.24942 0.65118 0.94621 0.0
C3718 C 0.23124 0.67057 0.9245 0.0
C3719 C 0.24533 0.66829 0.91064 0.0
C3720 C 0.26118 0.65682 0.91441 0.0
H3721 H 0.28606 0.72437 0.81452 0.0
H3722 H 0.28033 0.71117 0.84605 0.0
C3723 C 0.26309 0.64809 0.93206 0.0
C3724 C 0.24469 0.68003 0.8934 0.0
H3725 H 0.2476 0.67846 0.84519 0.0
C3726 C 0.24431 0.69987 0.89574 0.0
C3727 C 0.24541 0.67208 0.87501 0.0
C3728 C 0.2453 0.65086 0.8717 0.0
C3729 C 0.24529 0.71207 0.88011 0.0
C3730 C 0.24657 0.70415 0.86186 0.0
C3731 C 0.24645 0.68434 0.85938 0.0
C3732 C 0.25007 0.71606 0.84522 0.0
C3733 C 0.24579 0.73329 0.88311 0.0
C3734 C 0.23497 0.72406 0.83503 0.0
C3735 C 0.23824 0.73183 0.81707 0.0
C3736 C 0.25659 0.73136 0.80936 0.0
C3737 C 0.27185 0.72497 0.82039 0.0
C3738 C 0.2686 0.71732 0.83825 0.0
H3739 H 0.24457 0.73721 0.89834 0.0
H3740 H 0.25928 0.73914 0.87741 0.0
H3741 H 0.234 0.74007 0.87515 0.0
H3742 H 0.22059 0.72309 0.84039 0.0
H3743 H 0.2263 0.73642 0.80856 0.0
H3744 H 0.12811 0.50813 0.68409 0.0
H3745 H 0.1147 0.5085 0.65213 0.0
H3746 H 0.06181 0.48674 0.67404 0.0
H3747 H 0.07506 0.48645 0.70619 0.0
H3748 H 0.09519 0.47799 0.62945 0.0
H3749 H 0.05061 0.54025 0.64941 0.0
H3750 H 0.07087 0.53289 0.66326 0.0
H3751 H 0.04897 0.51991 0.66479 0.0
C3752 C 0.11367 0.50328 0.68209 0.0
C3753 C 0.10248 0.49753 0.6976 0.0
C3754 C 0.10612 0.50339 0.66384 0.0
C3755 C 0.08732 0.49779 0.66091 0.0
C3756 C 0.07635 0.49124 0.6762 0.0
H3757 H 0.00288 0.49408 0.58047 0.0
H3758 H 0.02554 0.49191 0.6061 0.0
C3759 C 0.08388 0.49115 0.69449 0.0
C3760 C 0.07866 0.50041 0.64216 0.0
H3761 H 0.04503 0.52646 0.61934 0.0
C3762 C 0.08437 0.4887 0.62707 0.0
C3763 C 0.06477 0.51456 0.63927 0.0
C3764 C 0.05849 0.52775 0.65497 0.0
C3765 C 0.07564 0.49016 0.60923 0.0
C3766 C 0.06127 0.50388 0.60661 0.0
C3767 C 0.05626 0.51612 0.62148 0.0
C3768 C 0.04883 0.50375 0.58995 0.0
C3769 C 0.08098 0.47647 0.59365 0.0
C3770 C 0.05462 0.511 0.57229 0.0
C3771 C 0.04156 0.51222 0.55735 0.0
C3772 C 0.02265 0.50658 0.56024 0.0
C3773 C 0.01719 0.49913 0.57793 0.0
C3774 C 0.03016 0.49763 0.59256 0.0
H3775 H 0.09237 0.46649 0.59808 0.0
H3776 H 0.06834 0.46809 0.58936 0.0
H3777 H 0.08589 0.48451 0.581 0.0
H3778 H 0.06903 0.51594 0.57021 0.0
H3779 H 0.04613 0.51775 0.54373 0.0
H3780 H 0.22601 0.37043 0.44138 0.0
H3781 H 0.2264 0.35704 0.40937 0.0
H3782 H 0.26885 0.31638 0.42678 0.0
H3783 H 0.26781 0.32925 0.45916 0.0
H3784 H 0.25498 0.35447 0.38369 0.0
H3785 H 0.22937 0.28224 0.40328 0.0
H3786 H 0.22841 0.30203 0.41955 0.0
H3787 H 0.25036 0.28958 0.41563 0.0
C3788 C 0.23532 0.35855 0.43837 0.0
C3789 C 0.24673 0.35068 0.45267 0.0
C3790 C 0.23559 0.35097 0.4201 0.0
C3791 C 0.24746 0.33557 0.41576 0.0
C3792 C 0.25921 0.32794 0.42996 0.0
H3793 H 0.27137 0.27561 0.31234 0.0
H3794 H 0.27422 0.29508 0.341 0.0
C3795 C 0.25865 0.33529 0.44839 0.0
C3796 C 0.24736 0.32757 0.39634 0.0
H3797 H 0.23863 0.28695 0.37131 0.0
C3798 C 0.25137 0.33972 0.38097 0.0
C3799 C 0.24254 0.30834 0.39285 0.0
C3800 C 0.23725 0.29481 0.40866 0.0
C3801 C 0.25079 0.33307 0.3622 0.0
C3802 C 0.2461 0.31389 0.35883 0.0
C3803 C 0.24218 0.30172 0.37411 0.0
C3804 C 0.24554 0.30583 0.33956 0.0
C3805 C 0.25524 0.34639 0.34603 0.0
C3806 C 0.22859 0.30595 0.3291 0.0
C3807 C 0.22688 0.29471 0.31279 0.0
C3808 C 0.2422 0.28353 0.30682 0.0
C3809 C 0.25952 0.28449 0.31658 0.0
C3810 C 0.26116 0.2955 0.33292 0.0
H3811 H 0.25892 0.36092 0.35103 0.0
H3812 H 0.26728 0.34066 0.33761 0.0
H3813 H 0.2428 0.34734 0.33641 0.0
H3814 H 0.21638 0.31379 0.33422 0.0
H3815 H 0.21335 0.29386 0.30556 0.0
H3816 H 0.29284 0.42114 0.483 0.0
H3817 H 0.32497 0.43455 0.48191 0.0
H3818 H 0.34269 0.39528 0.52554 0.0
H3819 H 0.3109 0.38147 0.52623 0.0
H3820 H 0.34264 0.452 0.51148 0.0
H3821 H 0.38571 0.39034 0.48767 0.0
H3822 H 0.36025 0.39122 0.48504 0.0
H3823 H 0.37062 0.3852 0.50756 0.0
C3824 C 0.30365 0.41536 0.49228 0.0
C3825 C 0.29943 0.4004 0.50479 0.0
C3826 C 0.32198 0.42292 0.49158 0.0
C3827 C 0.33626 0.41571 0.50347 0.0
C3828 C 0.33204 0.4007 0.51589 0.0
H3829 H 0.44875 0.46352 0.53019 0.0
H3830 H 0.41992 0.44352 0.53171 0.0
C3831 C 0.31382 0.39298 0.51641 0.0
C3832 C 0.35507 0.42499 0.50414 0.0
H3833 H 0.40268 0.41714 0.49937 0.0
C3834 C 0.35575 0.44437 0.50881 0.0
C3835 C 0.37215 0.41494 0.50075 0.0
C3836 C 0.37221 0.39432 0.4948 0.0
C3837 C 0.37305 0.45402 0.51016 0.0
C3838 C 0.39009 0.44402 0.50671 0.0
C3839 C 0.38953 0.4246 0.50229 0.0
C3840 C 0.40829 0.45422 0.50536 0.0
C3841 C 0.37302 0.47493 0.51502 0.0
C3842 C 0.41132 0.46623 0.48982 0.0
C3843 C 0.42743 0.47757 0.48903 0.0
C3844 C 0.44092 0.47699 0.50368 0.0
C3845 C 0.43849 0.46416 0.51877 0.0
C3846 C 0.42211 0.45283 0.51965 0.0
H3847 H 0.35924 0.47954 0.52117 0.0
H3848 H 0.38452 0.47829 0.52524 0.0
H3849 H 0.37559 0.48334 0.50192 0.0
H3850 H 0.40091 0.46725 0.47856 0.0
H3851 H 0.42917 0.48712 0.47706 0.0
H3852 H 0.8184 0.11982 0.52103 0.0
H3853 H 0.84962 0.1045 0.5225 0.0
H3854 H 0.83039 0.06121 0.48363 0.0
H3855 H 0.79911 0.07623 0.48225 0.0
H3856 H 0.85486 0.06185 0.53236 0.0
H3857 H 0.8822 0.08609 0.46233 0.0
H3858 H 0.86421 0.09889 0.47543 0.0
H3859 H 0.85805 0.07777 0.46251 0.0
C3860 C 0.82089 0.10705 0.51279 0.0
C3861 C 0.80646 0.09905 0.5016 0.0
C3862 C 0.83862 0.09838 0.51367 0.0
C3863 C 0.84207 0.0819 0.50311 0.0
C3864 C 0.82779 0.07402 0.49178 0.0
H3865 H 0.9324 0.00812 0.47344 0.0
H3866 H 0.90074 0.02118 0.4801 0.0
C3867 C 0.81001 0.08251 0.49109 0.0
C3868 C 0.86043 0.07236 0.50419 0.0
H3869 H 0.89854 0.06061 0.4771 0.0
C3870 C 0.86458 0.06162 0.52042 0.0
C3871 C 0.8729 0.07242 0.48857 0.0
C3872 C 0.86927 0.08453 0.47124 0.0
C3873 C 0.88069 0.05 0.52104 0.0
C3874 C 0.89273 0.04937 0.50502 0.0
C3875 C 0.88891 0.06079 0.48914 0.0
C3876 C 0.90991 0.03765 0.50441 0.0
C3877 C 0.88439 0.03812 0.53849 0.0
C3878 C 0.92509 0.04204 0.51641 0.0
C3879 C 0.94291 0.03441 0.51278 0.0
C3880 C 0.94566 0.02258 0.497 0.0
C3881 C 0.93031 0.01713 0.48574 0.0
C3882 C 0.91239 0.02456 0.48953 0.0
H3883 H 0.8715 0.03673 0.54749 0.0
H3884 H 0.88943 0.02369 0.53455 0.0
H3885 H 0.8956 0.04503 0.54712 0.0
H3886 H 0.92354 0.05245 0.52764 0.0
H3887 H 0.95484 0.03888 0.5214 0.0
H3888 H 0.62567 0.0663 0.26568 0.0
H3889 H 0.63913 0.09846 0.26521 0.0
H3890 H 0.6921 0.07593 0.2444 0.0
H3891 H 0.67884 0.04366 0.24505 0.0
H3892 H 0.67994 0.11213 0.28186 0.0
H3893 H 0.66568 0.1165 0.20423 0.0
H3894 H 0.65253 0.10088 0.21982 0.0
H3895 H 0.6763 0.0949 0.21296 0.0
C3896 C 0.64026 0.06822 0.26121 0.0
C3897 C 0.65125 0.05265 0.25525 0.0
C3898 C 0.6479 0.08651 0.26106 0.0
C3899 C 0.66649 0.08937 0.25473 0.0
C3900 C 0.67771 0.0738 0.24938 0.0
H3901 H 0.74522 0.17274 0.22455 0.0
H3902 H 0.72449 0.1454 0.22913 0.0
C3903 C 0.67016 0.05547 0.24975 0.0
C3904 C 0.67375 0.10875 0.25216 0.0
H3905 H 0.68454 0.14088 0.2176 0.0
C3906 C 0.68075 0.11864 0.26791 0.0
C3907 C 0.67455 0.117 0.23391 0.0
C3908 C 0.66677 0.10689 0.21671 0.0
C3909 C 0.68953 0.13642 0.26566 0.0
C3910 C 0.691 0.14431 0.24724 0.0
C3911 C 0.68325 0.13471 0.23167 0.0
C3912 C 0.70247 0.16134 0.24343 0.0
C3913 C 0.69807 0.14615 0.28272 0.0
C3914 C 0.69643 0.17942 0.24917 0.0
C3915 C 0.70819 0.19517 0.24635 0.0
C3916 C 0.72618 0.19297 0.23807 0.0
C3917 C 0.73153 0.17496 0.23119 0.0
C3918 C 0.71977 0.15929 0.23388 0.0
H3919 H 0.69688 0.13738 0.2958 0.0
H3920 H 0.71328 0.14929 0.28006 0.0
H3921 H 0.69075 0.1599 0.2852 0.0
H3922 H 0.68288 0.18125 0.25622 0.0
H3923 H 0.70363 0.20884 0.25147 0.0
H3924 H 0.68017 0.87407 0.01943 0.0
H3925 H 0.648 0.88721 0.02053 0.0
H3926 H 0.66864 0.94013 -0.00261 0.0
H3927 H 0.70099 0.9272 -0.00348 0.0
H3928 H 0.63811 0.92581 0.04038 0.0
H3929 H 0.62126 0.91969 0.96343 0.0
H3930 H 0.63866 0.9047 0.97491 0.0
H3931 H 0.64423 0.92903 0.9696 0.0
C3932 C 0.67786 0.88852 0.01458 0.0
C3933 C 0.69306 0.89969 0.00797 0.0
C3934 C 0.6595 0.89596 0.01522 0.0
C3935 C 0.65604 0.91456 0.00898 0.0
C3936 C 0.67112 0.9257 0.00221 0.0
H3937 H 0.57644 0.00062 0.00485 0.0
H3938 H 0.60185 0.97922 0.01477 0.0
C3939 C 0.68955 0.91836 0.0018 0.0
C3940 C 0.63672 0.92258 0.01003 0.0
H3941 H 0.59993 0.93756 0.98245 0.0
C3942 C 0.6296 0.92818 0.02779 0.0
C3943 C 0.6257 0.92543 0.99355 0.0
C3944 C 0.6327 0.91932 0.97425 0.0
C3945 C 0.61206 0.93753 0.02934 0.0
C3946 C 0.60141 0.94106 0.01279 0.0
C3947 C 0.60812 0.93463 -0.00485 0.0
C3948 C 0.58473 0.95377 0.01287 0.0
C3949 C 0.6052 0.94415 0.04849 0.0
C3950 C 0.56645 0.94658 0.00955 0.0
C3951 C 0.55178 0.95891 0.00421 0.0
C3952 C 0.55541 0.97839 0.0019 0.0
C3953 C 0.57322 0.98568 0.00699 0.0
C3954 C 0.58777 0.97346 0.01252 0.0
H3955 H 0.61388 0.93824 0.06026 0.0
H3956 H 0.6059 0.95992 0.04913 0.0
H3957 H 0.59016 0.93995 0.05061 0.0
H3958 H 0.56393 0.93137 0.00959 0.0
H3959 H 0.53834 0.953 -0.00024 0.0
H3960 H 0.37342 0.43031 0.23413 0.0
H3961 H 0.35994 0.39833 0.23731 0.0
H3962 H 0.3122 0.42156 0.26781 0.0
H3963 H 0.32542 0.45361 0.26439 0.0
H3964 H 0.35086 0.37768 0.27029 0.0
H3965 H 0.28734 0.39028 0.22569 0.0
H3966 H 0.30764 0.40592 0.22551 0.0
H3967 H 0.29029 0.40762 0.24416 0.0
C3968 C 0.35997 0.42861 0.24139 0.0
C3969 C 0.35039 0.44447 0.2489 0.0
C3970 C 0.35235 0.41032 0.24327 0.0
C3971 C 0.335 0.40758 0.25267 0.0
C3972 C 0.32545 0.4234 0.26022 0.0
H3973 H 0.25917 0.31283 0.26656 0.0
H3974 H 0.27795 0.34061 0.27594 0.0
C3975 C 0.33301 0.44169 0.25827 0.0
C3976 C 0.32683 0.3882 0.2546 0.0
H3977 H 0.28775 0.36183 0.24364 0.0
C3978 C 0.33705 0.37417 0.2645 0.0
C3979 C 0.30895 0.3836 0.2468 0.0
C3980 C 0.29798 0.39756 0.23478 0.0
C3981 C 0.32959 0.35577 0.26719 0.0
C3982 C 0.31148 0.35137 0.25982 0.0
C3983 C 0.30141 0.36537 0.24977 0.0
C3984 C 0.30313 0.33198 0.26059 0.0
C3985 C 0.34107 0.34125 0.27796 0.0
C3986 C 0.31153 0.31722 0.25013 0.0
C3987 C 0.30084 0.30131 0.24493 0.0
C3988 C 0.28166 0.29997 0.2501 0.0
C3989 C 0.27405 0.3134 0.26269 0.0
C3990 C 0.28472 0.32938 0.26787 0.0
H3991 H 0.35207 0.34808 0.28694 0.0
H3992 H 0.3318 0.3323 0.28708 0.0
H3993 H 0.34836 0.33176 0.26769 0.0
H3994 H 0.32558 0.31897 0.24413 0.0
H3995 H 0.30687 0.29127 0.23493 0.0
H3996 H 0.19281 0.61292 0.02642 0.0
H3997 H 0.16076 0.59979 0.02614 0.0
H3998 H 0.17231 0.57242 0.97253 0.0
H3999 H 0.20476 0.58507 0.97304 0.0
H4000 H 0.13229 0.6051 -0.00014 0.0
H4001 H 0.15306 0.52887 0.00549 0.0
H4002 H 0.16958 0.54801 0.00971 0.0
H4003 H 0.16333 0.54153 0.98586 0.0
C4004 C 0.18855 0.60397 0.01465 0.0
C4005 C 0.20119 0.59977 -0.00015 0.0
C4006 C 0.17026 0.59658 0.01447 0.0
C4007 C 0.16432 0.58504 -0.00058 0.0
C4008 C 0.17684 0.58101 0.98445 0.0
H4009 H 0.05656 0.53246 0.97739 0.0
H4010 H 0.08528 0.55184 0.97443 0.0
C4011 C 0.19529 0.5882 0.98476 0.0
C4012 C 0.14499 0.57718 -0.00032 0.0
H4013 H 0.12035 0.53557 0.00256 0.0
C4014 C 0.12964 0.5899 0.0004 0.0
C4015 C 0.14173 0.55736 0.0005 0.0
C4016 C 0.15777 0.54312 0.00051 0.0
C4017 C 0.11099 0.58323 0.00201 0.0
C4018 C 0.10782 0.56349 0.0029 0.0
C4019 C 0.12307 0.55075 0.00193 0.0
C4020 C 0.08871 0.55554 0.00469 0.0
C4021 C 0.09475 0.59715 0.00292 0.0
C4022 C 0.08111 0.55176 0.02272 0.0
C4023 C 0.06485 0.54052 0.02444 0.0
C4024 C 0.05609 0.53339 0.00811 0.0
C4025 C 0.06299 0.5383 0.99009 0.0
C4026 C 0.07934 0.54923 0.98839 0.0
H4027 H 0.09955 0.61212 0.00129 0.0
H4028 H 0.08431 0.59386 0.99159 0.0
H4029 H 0.08733 0.59564 0.01675 0.0
H4030 H 0.0884 0.5565 0.03539 0.0
H4031 H 0.05979 0.53653 0.03842 0.0
H4032 H 0.65995 0.95078 0.21938 0.0
H4033 H 0.67478 0.91926 0.21732 0.0
H4034 H 0.65707 0.90732 0.27484 0.0
H4035 H 0.64128 0.93827 0.2764 0.0
H4036 H 0.70351 0.90764 0.23793 0.0
H4037 H 0.64366 0.85829 0.24999 0.0
H4038 H 0.64006 0.88304 0.24412 0.0
H4039 H 0.64455 0.87592 0.26829 0.0
C4040 C 0.65909 0.94121 0.23141 0.0
C4041 C 0.64969 0.94667 0.24806 0.0
C4042 C 0.66743 0.92329 0.23022 0.0
C4043 C 0.66675 0.91089 0.24582 0.0
C4044 C 0.6572 0.91641 0.26243 0.0
H4045 H 0.7222 0.81557 0.29202 0.0
H4046 H 0.70969 0.84738 0.2849 0.0
C4047 C 0.6484 0.9341 0.26341 0.0
C4048 C 0.67765 0.89305 0.24557 0.0
H4049 H 0.6749 0.84617 0.25746 0.0
C4050 C 0.69721 0.89411 0.24185 0.0
C4051 C 0.66932 0.87544 0.25051 0.0
C4052 C 0.6482 0.87307 0.25324 0.0
C4053 C 0.70887 0.87816 0.24406 0.0
C4054 C 0.70068 0.86099 0.25029 0.0
C4055 C 0.68105 0.85964 0.25308 0.0
C4056 C 0.71214 0.84415 0.25445 0.0
C4057 C 0.72989 0.87982 0.24046 0.0
C4058 C 0.71812 0.83238 0.23962 0.0
C4059 C 0.72533 0.8144 0.24367 0.0
C4060 C 0.72647 0.80804 0.26253 0.0
C4061 C 0.72149 0.8203 0.2774 0.0
C4062 C 0.71441 0.83835 0.27336 0.0
H4063 H 0.73414 0.89452 0.23649 0.0
H4064 H 0.73785 0.87547 0.25334 0.0
H4065 H 0.73402 0.87004 0.2288 0.0
H4066 H 0.71605 0.83658 0.22496 0.0
H4067 H 0.72846 0.80489 0.23203 0.0
H4068 H 0.87665 0.06496 0.73479 0.0
H4069 H 0.8635 0.09718 0.73309 0.0
H4070 H 0.81109 0.07703 0.75743 0.0
H4071 H 0.82403 0.04454 0.75881 0.0
H4072 H 0.82378 0.10664 0.71387 0.0
H4073 H 0.83374 0.12568 0.78996 0.0
H4074 H 0.84818 0.10795 0.77825 0.0
H4075 H 0.82415 0.10252 0.7846 0.0
C4076 C 0.86232 0.06739 0.73978 0.0
C4077 C 0.85131 0.05227 0.74689 0.0
C4078 C 0.85485 0.08578 0.73878 0.0
C4079 C 0.8364 0.08942 0.74519 0.0
C4080 C 0.82539 0.07442 0.75244 0.0
H4081 H 0.75257 0.17199 0.74743 0.0
H4082 H 0.77334 0.14601 0.73765 0.0
C4083 C 0.83274 0.05592 0.75315 0.0
C4084 C 0.82853 0.10889 0.74396 0.0
H4085 H 0.81634 0.14728 0.77095 0.0
C4086 C 0.8223 0.11564 0.72628 0.0
C4087 C 0.82688 0.12059 0.76016 0.0
C4088 C 0.83366 0.11397 0.77936 0.0
C4089 C 0.81362 0.13356 0.72457 0.0
C4090 C 0.81131 0.14497 0.74088 0.0
C4091 C 0.81833 0.13855 0.75841 0.0
C4092 C 0.79923 0.16219 0.74084 0.0
C4093 C 0.80651 0.14006 0.70547 0.0
C4094 C 0.80688 0.18021 0.74486 0.0
C4095 C 0.7949 0.19526 0.75011 0.0
C4096 C 0.77528 0.19224 0.75166 0.0
C4097 C 0.76762 0.17477 0.74585 0.0
C4098 C 0.77949 0.15987 0.74041 0.0
H4099 H 0.81219 0.13117 0.69374 0.0
H4100 H 0.79079 0.13918 0.70523 0.0
H4101 H 0.81052 0.15514 0.70296 0.0
H4102 H 0.8221 0.18221 0.74538 0.0
H4103 H 0.80113 0.20848 0.75498 0.0
loop_
_geom_bond_atom_site_label_1
_geom_bond_atom_site_label_2
_geom_bond_distance
_geom_bond_site_symmetry_2
_ccdc_geom_bond_type
In0 O1 2.294 . S
In0 O2 2.326 . S
In0 O6 2.266 . S
In0 O7 2.326 . S
In0 O8 2.266 . S
In0 O9 2.326 . S
In0 O11 2.294 1_455 S
In0 O12 2.326 1_455 S
O1 In0 2.294 . S
O1 C10 1.242 . S
O2 In0 2.326 . S
O2 C10 1.257 . S
C3 O6 1.252 . S
C3 O7 1.260 . S
C4 O11 1.240 . S
C4 O12 1.252 . S
C5 O8 1.252 . S
C5 O9 1.260 . S
O6 In0 2.266 . S
O6 C3 1.252 . S
O7 In0 2.326 . S
O7 C3 1.260 . S
O8 In0 2.266 . S
O8 C5 1.252 . S
O9 In0 2.326 . S
O9 C5 1.260 . S
C10 O1 1.242 . S
C10 O2 1.257 . S
O11 In0 2.294 1_655 S
O11 C4 1.240 . S
O12 In0 2.326 1_655 S
O12 C4 1.252 . S
In13 O14 2.294 . S
In13 O15 2.326 . S
In13 O19 2.266 1_455 S
In13 O20 2.326 1_455 S
In13 O21 2.266 . S
In13 O22 2.326 . S
In13 O24 2.294 . S
In13 O25 2.326 . S
O14 In13 2.294 . S
O14 C23 1.240 . S
O15 In13 2.326 . S
O15 C23 1.252 . S
C16 O19 1.252 . S
C16 O20 1.260 . S
C17 O24 1.240 . S
C17 O25 1.252 . S
C18 O21 1.252 . S
C18 O22 1.260 . S
O19 In13 2.266 1_655 S
O19 C16 1.252 . S
O20 In13 2.326 1_655 S
O20 C16 1.260 . S
O21 In13 2.266 . S
O21 C18 1.252 . S
O22 In13 2.326 . S
O22 C18 1.260 . S
C23 O14 1.240 . S
C23 O15 1.252 . S
O24 In13 2.294 . S
O24 C17 1.240 . S
O25 In13 2.326 . S
O25 C17 1.252 . S
In26 O27 2.294 . S
In26 O28 2.326 . S
In26 O32 2.266 . S
In26 O33 2.326 . S
In26 O34 2.266 . S
In26 O35 2.326 . S
In26 O37 2.294 . S
In26 O38 2.326 . S
O27 In26 2.294 . S
O27 C36 1.240 . S
O28 In26 2.326 . S
O28 C36 1.252 . S
C29 O32 1.252 . S
C29 O33 1.260 . S
C30 O37 1.240 . S
C30 O38 1.252 . S
C31 O34 1.252 . S
C31 O35 1.260 . S
O32 In26 2.266 . S
O32 C29 1.252 . S
O33 In26 2.326 . S
O33 C29 1.260 . S
O34 In26 2.266 . S
O34 C31 1.252 . S
O35 In26 2.326 . S
O35 C31 1.260 . S
C36 O27 1.240 . S
C36 O28 1.252 . S
O37 In26 2.294 . S
O37 C30 1.240 . S
O38 In26 2.326 . S
O38 C30 1.252 . S
In39 O40 2.294 . S
In39 O41 2.326 . S
In39 O45 2.266 . S
In39 O46 2.326 . S
In39 O47 2.266 . S
In39 O48 2.326 . S
In39 O50 2.294 . S
In39 O51 2.326 . S
O40 In39 2.294 . S
O40 C49 1.240 . S
O41 In39 2.326 . S
O41 C49 1.252 . S
C42 O45 1.252 . S
C42 O46 1.260 . S
C43 O50 1.240 . S
C43 O51 1.252 . S
C44 O47 1.252 . S
C44 O48 1.260 . S
O45 In39 2.266 . S
O45 C42 1.252 . S
O46 In39 2.326 . S
O46 C42 1.260 . S
O47 In39 2.266 . S
O47 C44 1.252 . S
O48 In39 2.326 . S
O48 C44 1.260 . S
C49 O40 1.240 . S
C49 O41 1.252 . S
O50 In39 2.294 . S
O50 C43 1.240 . S
O51 In39 2.326 . S
O51 C43 1.252 . S
In52 O53 2.294 1_545 S
In52 O54 2.326 1_545 S
In52 O58 2.266 . S
In52 O59 2.326 . S
In52 O60 2.266 . S
In52 O61 2.326 . S
In52 O63 2.289 1_545 S
In52 O64 2.328 . S
O53 In52 2.294 1_565 S
O53 C62 1.240 . S
O54 In52 2.326 1_565 S
O54 C62 1.252 . S
C55 O58 1.252 . S
C55 O59 1.260 . S
C56 O63 1.240 . S
C56 O64 1.250 1_565 S
C57 O60 1.252 . S
C57 O61 1.260 . S
O58 In52 2.266 . S
O58 C55 1.252 . S
O59 In52 2.326 . S
O59 C55 1.260 . S
O60 In52 2.266 . S
O60 C57 1.252 . S
O61 In52 2.326 . S
O61 C57 1.260 . S
C62 O53 1.240 . S
C62 O54 1.252 . S
O63 In52 2.289 1_565 S
O63 C56 1.240 . S
O64 In52 2.328 . S
O64 C56 1.250 1_545 S
In65 O66 2.294 . S
In65 O67 2.326 . S
In65 O71 2.266 . S
In65 O72 2.326 . S
In65 O73 2.266 . S
In65 O74 2.326 . S
In65 O76 2.294 . S
In65 O77 2.326 . S
O66 In65 2.294 . S
O66 C75 1.240 . S
O67 In65 2.326 . S
O67 C75 1.252 . S
C68 O71 1.252 . S
C68 O72 1.260 . S
C69 O76 1.240 . S
C69 O77 1.252 . S
C70 O73 1.252 . S
C70 O74 1.260 . S
O71 In65 2.266 . S
O71 C68 1.252 . S
O72 In65 2.326 . S
O72 C68 1.260 . S
O73 In65 2.266 . S
O73 C70 1.252 . S
O74 In65 2.326 . S
O74 C70 1.260 . S
C75 O66 1.240 . S
C75 O67 1.252 . S
O76 In65 2.294 . S
O76 C69 1.240 . S
O77 In65 2.326 . S
O77 C69 1.252 . S
In78 O79 2.294 . S
In78 O80 2.326 . S
In78 O84 2.266 1_545 S
In78 O85 2.326 1_545 S
In78 O86 2.266 . S
In78 O87 2.326 . S
In78 O89 2.294 . S
In78 O90 2.326 . S
O79 In78 2.294 . S
O79 C88 1.240 . S
O80 In78 2.326 . S
O80 C88 1.252 . S
C81 O84 1.252 . S
C81 O85 1.260 . S
C82 O89 1.240 . S
C82 O90 1.252 . S
C83 O86 1.252 . S
C83 O87 1.260 . S
O84 In78 2.266 1_565 S
O84 C81 1.252 . S
O85 In78 2.326 1_565 S
O85 C81 1.260 . S
O86 In78 2.266 . S
O86 C83 1.252 . S
O87 In78 2.326 . S
O87 C83 1.260 . S
C88 O79 1.240 . S
C88 O80 1.252 . S
O89 In78 2.294 . S
O89 C82 1.240 . S
O90 In78 2.326 . S
O90 C82 1.252 . S
In91 O92 2.294 . S
In91 O93 2.326 . S
In91 O97 2.266 . S
In91 O98 2.326 . S
In91 O99 2.266 1_554 S
In91 O100 2.326 1_554 S
In91 O102 2.294 . S
In91 O103 2.326 . S
O92 In91 2.294 . S
O92 C101 1.240 . S
O93 In91 2.326 . S
O93 C101 1.252 . S
C94 O97 1.252 . S
C94 O98 1.260 . S
C95 O102 1.240 . S
C95 O103 1.252 . S
C96 O99 1.252 . S
C96 O100 1.260 . S
O97 In91 2.266 . S
O97 C94 1.252 . S
O98 In91 2.326 . S
O98 C94 1.260 . S
O99 In91 2.266 1_556 S
O99 C96 1.252 . S
O100 In91 2.326 1_556 S
O100 C96 1.260 . S
C101 O92 1.240 . S
C101 O93 1.252 . S
O102 In91 2.294 . S
O102 C95 1.240 . S
O103 In91 2.326 . S
O103 C95 1.252 . S
In104 O105 2.294 . S
In104 O106 2.326 . S
In104 O110 2.266 1_554 S
In104 O111 2.326 1_554 S
In104 O112 2.266 . S
In104 O113 2.326 . S
In104 O115 2.294 . S
In104 O116 2.326 . S
O105 In104 2.294 . S
O105 C114 1.240 . S
O106 In104 2.326 . S
O106 C114 1.252 . S
C107 O110 1.252 . S
C107 O111 1.260 . S
C108 O115 1.240 . S
C108 O116 1.252 . S
C109 O112 1.252 . S
C109 O113 1.260 . S
O110 In104 2.266 1_556 S
O110 C107 1.252 . S
O111 In104 2.326 1_556 S
O111 C107 1.260 . S
O112 In104 2.266 . S
O112 C109 1.252 . S
O113 In104 2.326 . S
O113 C109 1.260 . S
C114 O105 1.240 . S
C114 O106 1.252 . S
O115 In104 2.294 . S
O115 C108 1.240 . S
O116 In104 2.326 . S
O116 C108 1.252 . S
In117 O118 2.294 . S
In117 O119 2.326 . S
In117 O123 2.266 . S
In117 O124 2.326 . S
In117 O125 2.266 . S
In117 O126 2.326 . S
In117 O128 2.294 . S
In117 O129 2.326 . S
O118 In117 2.294 . S
O118 C127 1.240 . S
O119 In117 2.326 . S
O119 C127 1.252 . S
C120 O123 1.252 . S
C120 O124 1.260 . S
C121 O128 1.240 . S
C121 O129 1.252 . S
C122 O125 1.252 . S
C122 O126 1.260 . S
O123 In117 2.266 . S
O123 C120 1.252 . S
O124 In117 2.326 . S
O124 C120 1.260 . S
O125 In117 2.266 . S
O125 C122 1.252 . S
O126 In117 2.326 . S
O126 C122 1.260 . S
C127 O118 1.240 . S
C127 O119 1.252 . S
O128 In117 2.294 . S
O128 C121 1.240 . S
O129 In117 2.326 . S
O129 C121 1.252 . S
In130 O131 2.294 . S
In130 O132 2.326 . S
In130 O136 2.266 . S
In130 O137 2.326 . S
In130 O138 2.266 . S
In130 O139 2.326 . S
In130 O141 2.294 . S
In130 O142 2.326 . S
O131 In130 2.294 . S
O131 C140 1.240 . S
O132 In130 2.326 . S
O132 C140 1.252 . S
C133 O136 1.252 . S
C133 O137 1.260 . S
C134 O141 1.240 . S
C134 O142 1.252 . S
C135 O138 1.252 . S
C135 O139 1.260 . S
O136 In130 2.266 . S
O136 C133 1.252 . S
O137 In130 2.326 . S
O137 C133 1.260 . S
O138 In130 2.266 . S
O138 C135 1.252 . S
O139 In130 2.326 . S
O139 C135 1.260 . S
C140 O131 1.240 . S
C140 O132 1.252 . S
O141 In130 2.294 . S
O141 C134 1.240 . S
O142 In130 2.326 . S
O142 C134 1.252 . S
In143 O144 2.294 . S
In143 O145 2.326 . S
In143 O149 2.266 . S
In143 O150 2.326 . S
In143 O151 2.266 . S
In143 O152 2.326 . S
In143 O154 2.294 . S
In143 O155 2.326 . S
O144 In143 2.294 . S
O144 C153 1.240 . S
O145 In143 2.326 . S
O145 C153 1.252 . S
C146 O149 1.252 . S
C146 O150 1.260 . S
C147 O154 1.240 . S
C147 O155 1.252 . S
C148 O151 1.252 . S
C148 O152 1.260 . S
O149 In143 2.266 . S
O149 C146 1.252 . S
O150 In143 2.326 . S
O150 C146 1.260 . S
O151 In143 2.266 . S
O151 C148 1.252 . S
O152 In143 2.326 . S
O152 C148 1.260 . S
C153 O144 1.240 . S
C153 O145 1.252 . S
O154 In143 2.294 . S
O154 C147 1.240 . S
O155 In143 2.326 . S
O155 C147 1.252 . S
In156 O157 2.294 . S
In156 O158 2.326 . S
In156 O162 2.266 1_455 S
In156 O163 2.326 1_455 S
In156 O164 2.266 . S
In156 O165 2.326 . S
In156 O167 2.294 . S
In156 O168 2.326 . S
O157 In156 2.294 . S
O157 C166 1.240 . S
O158 In156 2.326 . S
O158 C166 1.252 . S
C159 O162 1.252 . S
C159 O163 1.260 . S
C160 O167 1.240 . S
C160 O168 1.252 . S
C161 O164 1.252 . S
C161 O165 1.260 . S
O162 In156 2.266 1_655 S
O162 C159 1.252 . S
O163 In156 2.326 1_655 S
O163 C159 1.260 . S
O164 In156 2.266 . S
O164 C161 1.252 . S
O165 In156 2.326 . S
O165 C161 1.260 . S
C166 O157 1.240 . S
C166 O158 1.252 . S
O167 In156 2.294 . S
O167 C160 1.240 . S
O168 In156 2.326 . S
O168 C160 1.252 . S
In169 O170 2.294 . S
In169 O171 2.326 . S
In169 O175 2.266 . S
In169 O176 2.326 . S
In169 O177 2.266 1_455 S
In169 O178 2.326 1_455 S
In169 O180 2.294 . S
In169 O181 2.326 . S
O170 In169 2.294 . S
O170 C179 1.240 . S
O171 In169 2.326 . S
O171 C179 1.252 . S
C172 O175 1.252 . S
C172 O176 1.260 . S
C173 O180 1.240 . S
C173 O181 1.252 . S
C174 O177 1.252 . S
C174 O178 1.260 . S
O175 In169 2.266 . S
O175 C172 1.252 . S
O176 In169 2.326 . S
O176 C172 1.260 . S
O177 In169 2.266 1_655 S
O177 C174 1.252 . S
O178 In169 2.326 1_655 S
O178 C174 1.260 . S
C179 O170 1.240 . S
C179 O171 1.252 . S
O180 In169 2.294 . S
O180 C173 1.240 . S
O181 In169 2.326 . S
O181 C173 1.252 . S
In182 O183 2.294 . S
In182 O184 2.326 . S
In182 O188 2.266 . S
In182 O189 2.326 . S
In182 O190 2.266 . S
In182 O191 2.326 . S
In182 O193 2.294 . S
In182 O194 2.326 . S
O183 In182 2.294 . S
O183 C192 1.240 . S
O184 In182 2.326 . S
O184 C192 1.252 . S
C185 O188 1.252 . S
C185 O189 1.260 . S
C186 O193 1.240 . S
C186 O194 1.252 . S
C187 O190 1.252 . S
C187 O191 1.260 . S
O188 In182 2.266 . S
O188 C185 1.252 . S
O189 In182 2.326 . S
O189 C185 1.260 . S
O190 In182 2.266 . S
O190 C187 1.252 . S
O191 In182 2.326 . S
O191 C187 1.260 . S
C192 O183 1.240 . S
C192 O184 1.252 . S
O193 In182 2.294 . S
O193 C186 1.240 . S
O194 In182 2.326 . S
O194 C186 1.252 . S
In195 O196 2.294 . S
In195 O197 2.326 . S
In195 O201 2.266 . S
In195 O202 2.326 . S
In195 O203 2.266 . S
In195 O204 2.326 . S
In195 O206 2.294 . S
In195 O207 2.326 . S
O196 In195 2.294 . S
O196 C205 1.240 . S
O197 In195 2.326 . S
O197 C205 1.252 . S
C198 O201 1.252 . S
C198 O202 1.260 . S
C199 O206 1.240 . S
C199 O207 1.252 . S
C200 O203 1.252 . S
C200 O204 1.260 . S
O201 In195 2.266 . S
O201 C198 1.252 . S
O202 In195 2.326 . S
O202 C198 1.260 . S
O203 In195 2.266 . S
O203 C200 1.252 . S
O204 In195 2.326 . S
O204 C200 1.260 . S
C205 O196 1.240 . S
C205 O197 1.252 . S
O206 In195 2.294 . S
O206 C199 1.240 . S
O207 In195 2.326 . S
O207 C199 1.252 . S
In208 O209 2.294 . S
In208 O210 2.326 . S
In208 O214 2.266 1_545 S
In208 O215 2.329 . S
In208 O216 2.266 1_545 S
In208 O217 2.326 1_545 S
In208 O219 2.294 . S
In208 O220 2.326 . S
O209 In208 2.294 . S
O209 C218 1.240 . S
O210 In208 2.326 . S
O210 C218 1.252 . S
C211 O214 1.252 . S
C211 O215 1.256 1_565 S
C212 O219 1.240 . S
C212 O220 1.252 . S
C213 O216 1.252 . S
C213 O217 1.260 . S
O214 In208 2.266 1_565 S
O214 C211 1.252 . S
O215 In208 2.329 . S
O215 C211 1.256 1_545 S
O216 In208 2.266 1_565 S
O216 C213 1.252 . S
O217 In208 2.326 1_565 S
O217 C213 1.260 . S
C218 O209 1.240 . S
C218 O210 1.252 . S
O219 In208 2.294 . S
O219 C212 1.240 . S
O220 In208 2.326 . S
O220 C212 1.252 . S
In221 O222 2.294 . S
In221 O223 2.326 . S
In221 O227 2.266 . S
In221 O228 2.326 . S
In221 O229 2.266 . S
In221 O230 2.326 . S
In221 O232 2.294 . S
In221 O233 2.326 . S
O222 In221 2.294 . S
O222 C231 1.240 . S
O223 In221 2.326 . S
O223 C231 1.252 . S
C224 O227 1.252 . S
C224 O228 1.260 . S
C225 O232 1.240 . S
C225 O233 1.252 . S
C226 O229 1.252 . S
C226 O230 1.260 . S
O227 In221 2.266 . S
O227 C224 1.252 . S
O228 In221 2.326 . S
O228 C224 1.260 . S
O229 In221 2.266 . S
O229 C226 1.252 . S
O230 In221 2.326 . S
O230 C226 1.260 . S
C231 O222 1.240 . S
C231 O223 1.252 . S
O232 In221 2.294 . S
O232 C225 1.240 . S
O233 In221 2.326 . S
O233 C225 1.252 . S
In234 O235 2.294 1_545 S
In234 O236 2.326 1_545 S
In234 O240 2.266 . S
In234 O241 2.326 . S
In234 O242 2.266 . S
In234 O243 2.326 . S
In234 O245 2.294 . S
In234 O246 2.326 . S
O235 In234 2.294 1_565 S
O235 C244 1.240 . S
O236 In234 2.326 1_565 S
O236 C244 1.252 . S
C237 O240 1.252 . S
C237 O241 1.260 . S
C238 O245 1.240 . S
C238 O246 1.252 . S
C239 O242 1.252 . S
C239 O243 1.260 . S
O240 In234 2.266 . S
O240 C237 1.252 . S
O241 In234 2.326 . S
O241 C237 1.260 . S
O242 In234 2.266 . S
O242 C239 1.252 . S
O243 In234 2.326 . S
O243 C239 1.260 . S
C244 O235 1.240 . S
C244 O236 1.252 . S
O245 In234 2.294 . S
O245 C238 1.240 . S
O246 In234 2.326 . S
O246 C238 1.252 . S
In247 O248 2.294 . S
In247 O249 2.326 . S
In247 O253 2.266 . S
In247 O254 2.326 . S
In247 O255 2.266 1_554 S
In247 O256 2.326 1_554 S
In247 O258 2.294 . S
In247 O259 2.326 . S
O248 In247 2.294 . S
O248 C257 1.240 . S
O249 In247 2.326 . S
O249 C257 1.252 . S
C250 O253 1.252 . S
C250 O254 1.260 . S
C251 O258 1.240 . S
C251 O259 1.252 . S
C252 O255 1.252 . S
C252 O256 1.260 . S
O253 In247 2.266 . S
O253 C250 1.252 . S
O254 In247 2.326 . S
O254 C250 1.260 . S
O255 In247 2.266 1_556 S
O255 C252 1.252 . S
O256 In247 2.326 1_556 S
O256 C252 1.260 . S
C257 O248 1.240 . S
C257 O249 1.252 . S
O258 In247 2.294 . S
O258 C251 1.240 . S
O259 In247 2.326 . S
O259 C251 1.252 . S
In260 O261 2.294 . S
In260 O262 2.326 . S
In260 O266 2.266 1_554 S
In260 O267 2.326 1_554 S
In260 O268 2.268 . S
In260 O269 2.326 . S
In260 O271 2.294 . S
In260 O272 2.326 . S
O261 In260 2.294 . S
O261 C270 1.240 . S
O262 In260 2.326 . S
O262 C270 1.252 . S
C263 O266 1.252 . S
C263 O267 1.260 . S
C264 O271 1.240 . S
C264 O272 1.252 . S
C265 O268 1.252 . S
C265 O269 1.265 . S
O266 In260 2.266 1_556 S
O266 C263 1.252 . S
O267 In260 2.326 1_556 S
O267 C263 1.260 . S
O268 In260 2.268 . S
O268 C265 1.252 . S
O269 In260 2.326 . S
O269 C265 1.265 . S
C270 O261 1.240 . S
C270 O262 1.252 . S
O271 In260 2.294 . S
O271 C264 1.240 . S
O272 In260 2.326 . S
O272 C264 1.252 . S
In273 O274 2.294 . S
In273 O275 2.326 . S
In273 O279 2.266 . S
In273 O280 2.326 . S
In273 O281 2.266 . S
In273 O282 2.326 . S
In273 O284 2.294 . S
In273 O285 2.326 . S
O274 In273 2.294 . S
O274 C283 1.240 . S
O275 In273 2.326 . S
O275 C283 1.252 . S
C276 O279 1.252 . S
C276 O280 1.260 . S
C277 O284 1.240 . S
C277 O285 1.252 . S
C278 O281 1.252 . S
C278 O282 1.260 . S
O279 In273 2.266 . S
O279 C276 1.252 . S
O280 In273 2.326 . S
O280 C276 1.260 . S
O281 In273 2.266 . S
O281 C278 1.252 . S
O282 In273 2.326 . S
O282 C278 1.260 . S
C283 O274 1.240 . S
C283 O275 1.252 . S
O284 In273 2.294 . S
O284 C277 1.240 . S
O285 In273 2.326 . S
O285 C277 1.252 . S
In286 O287 2.294 . S
In286 O288 2.326 . S
In286 O292 2.266 . S
In286 O293 2.326 . S
In286 O294 2.266 . S
In286 O295 2.326 . S
In286 O297 2.294 . S
In286 O298 2.326 . S
O287 In286 2.294 . S
O287 C296 1.240 . S
O288 In286 2.326 . S
O288 C296 1.252 . S
C289 O292 1.252 . S
C289 O293 1.260 . S
C290 O297 1.240 . S
C290 O298 1.252 . S
C291 O294 1.252 . S
C291 O295 1.260 . S
O292 In286 2.266 . S
O292 C289 1.252 . S
O293 In286 2.326 . S
O293 C289 1.260 . S
O294 In286 2.266 . S
O294 C291 1.252 . S
O295 In286 2.326 . S
O295 C291 1.260 . S
C296 O287 1.240 . S
C296 O288 1.252 . S
O297 In286 2.294 . S
O297 C290 1.240 . S
O298 In286 2.326 . S
O298 C290 1.252 . S
In299 O300 2.294 . S
In299 O301 2.326 . S
In299 O305 2.266 . S
In299 O306 2.326 . S
In299 O307 2.266 . S
In299 O308 2.326 . S
In299 O310 2.294 . S
In299 O311 2.326 . S
O300 In299 2.294 . S
O300 C309 1.240 . S
O301 In299 2.326 . S
O301 C309 1.252 . S
C302 O305 1.252 . S
C302 O306 1.260 . S
C303 O310 1.240 . S
C303 O311 1.252 . S
C304 O307 1.252 . S
C304 O308 1.260 . S
O305 In299 2.266 . S
O305 C302 1.252 . S
O306 In299 2.326 . S
O306 C302 1.260 . S
O307 In299 2.266 . S
O307 C304 1.252 . S
O308 In299 2.326 . S
O308 C304 1.260 . S
C309 O300 1.240 . S
C309 O301 1.252 . S
O310 In299 2.294 . S
O310 C303 1.240 . S
O311 In299 2.326 . S
O311 C303 1.252 . S
O312 Mn313 2.223 . S
O312 C326 1.239 1_554 S
Mn313 O312 2.223 . S
Mn313 O316 2.107 1_445 S
Mn313 O317 2.203 1_455 S
Mn313 O319 2.149 1_454 S
Mn313 O321 2.175 1_545 S
Mn313 O331 2.238 1_544 S
O314 Mn315 2.087 1_556 S
O314 C326 1.256 1_565 S
Mn315 O314 2.087 1_554 S
Mn315 O322 2.089 . S
Mn315 O331 2.288 1_554 S
Mn315 O332 2.251 1_554 S
O316 Mn313 2.107 1_665 S
O316 C327 1.239 . S
O317 Mn313 2.203 1_655 S
O317 Mn318 2.290 1_554 S
O317 C328 1.278 . S
Mn318 O317 2.290 1_556 S
Mn318 O320 2.089 1_556 S
Mn318 O323 2.251 1_556 S
Mn318 O324 2.087 . S
O319 Mn313 2.149 1_656 S
O319 C329 1.244 . S
O320 Mn318 2.089 1_554 S
O320 C327 1.256 1_545 S
O321 Mn313 2.175 1_565 S
O321 C330 1.239 . S
O322 Mn315 2.089 . S
O322 C330 1.256 . S
O323 Mn318 2.251 1_554 S
O323 C328 1.241 . S
O324 Mn318 2.087 . S
O324 C329 1.256 . S
C325 O331 1.282 . S
C325 O332 1.241 . S
C326 O312 1.239 1_556 S
C326 O314 1.256 1_545 S
C327 O316 1.239 . S
C327 O320 1.256 1_565 S
C328 O317 1.278 . S
C328 O323 1.241 . S
C329 O319 1.244 . S
C329 O324 1.256 . S
C330 O321 1.239 . S
C330 O322 1.256 . S
O331 Mn313 2.238 1_566 S
O331 Mn315 2.288 1_556 S
O331 C325 1.282 . S
O332 Mn315 2.251 1_556 S
O332 C325 1.241 . S
O333 Mn334 2.163 . S
O333 C347 1.244 . S
Mn334 O333 2.163 . S
Mn334 O337 2.160 . S
Mn334 O338 2.221 . S
Mn334 O340 2.163 . S
Mn334 O342 2.160 . S
Mn334 O352 2.221 . S
O335 Mn336 2.087 . S
O335 C347 1.256 . S
Mn336 O335 2.087 . S
Mn336 O343 2.089 . S
Mn336 O352 2.290 . S
Mn336 O353 2.251 . S
O337 Mn334 2.160 . S
O337 C348 1.239 . S
O338 Mn334 2.221 . S
O338 Mn339 2.290 . S
O338 C349 1.278 . S
Mn339 O338 2.290 . S
Mn339 O341 2.089 . S
Mn339 O344 2.251 . S
Mn339 O345 2.087 . S
O340 Mn334 2.163 . S
O340 C350 1.244 . S
O341 Mn339 2.089 . S
O341 C348 1.256 . S
O342 Mn334 2.160 . S
O342 C351 1.239 . S
O343 Mn336 2.089 . S
O343 C351 1.256 . S
O344 Mn339 2.251 . S
O344 C349 1.241 . S
O345 Mn339 2.087 . S
O345 C350 1.256 . S
C346 O352 1.278 . S
C346 O353 1.241 . S
C347 O333 1.244 . S
C347 O335 1.256 . S
C348 O337 1.239 . S
C348 O341 1.256 . S
C349 O338 1.278 . S
C349 O344 1.241 . S
C350 O340 1.244 . S
C350 O345 1.256 . S
C351 O342 1.239 . S
C351 O343 1.256 . S
O352 Mn334 2.221 . S
O352 Mn336 2.290 . S
O352 C346 1.278 . S
O353 Mn336 2.251 . S
O353 C346 1.241 . S
O354 Mn355 2.163 1_565 S
O354 C368 1.253 . S
Mn355 O354 2.163 1_545 S
Mn355 O358 2.160 . S
Mn355 O359 2.221 1_545 S
Mn355 O361 2.163 . S
Mn355 O363 2.160 . S
Mn355 O373 2.221 . S
O356 Mn357 2.087 . S
O356 C368 1.216 1_545 S
Mn357 O356 2.087 . S
Mn357 O364 2.089 . S
Mn357 O373 2.290 . S
Mn357 O374 2.251 . S
O358 Mn355 2.160 . S
O358 C369 1.239 . S
O359 Mn355 2.221 1_565 S
O359 Mn360 2.290 . S
O359 C370 1.278 . S
Mn360 O359 2.290 . S
Mn360 O362 2.089 1_565 S
Mn360 O365 2.251 . S
Mn360 O366 2.087 . S
O361 Mn355 2.163 . S
O361 C371 1.244 . S
O362 Mn360 2.089 1_545 S
O362 C369 1.256 . S
O363 Mn355 2.160 . S
O363 C372 1.239 . S
O364 Mn357 2.089 . S
O364 C372 1.256 . S
O365 Mn360 2.251 . S
O365 C370 1.241 . S
O366 Mn360 2.087 . S
O366 C371 1.256 1_565 S
C367 O373 1.278 . S
C367 O374 1.241 . S
C368 O354 1.253 . S
C368 O356 1.216 1_565 S
C369 O358 1.239 . S
C369 O362 1.256 . S
C370 O359 1.278 . S
C370 O365 1.241 . S
C371 O361 1.244 . S
C371 O366 1.256 1_545 S
C372 O363 1.239 . S
C372 O364 1.256 . S
O373 Mn355 2.221 . S
O373 Mn357 2.290 . S
O373 C367 1.278 . S
O374 Mn357 2.251 . S
O374 C367 1.241 . S
O375 Mn376 2.163 . S
O375 C389 1.244 . S
Mn376 O375 2.163 . S
Mn376 O379 2.160 . S
Mn376 O380 2.221 . S
Mn376 O382 2.163 . S
Mn376 O384 2.160 . S
Mn376 O394 2.221 . S
O377 Mn378 2.087 . S
O377 C389 1.256 . S
Mn378 O377 2.087 . S
Mn378 O385 2.089 . S
Mn378 O394 2.290 . S
Mn378 O395 2.251 . S
O379 Mn376 2.160 . S
O379 C390 1.239 . S
O380 Mn376 2.221 . S
O380 Mn381 2.290 . S
O380 C391 1.278 . S
Mn381 O380 2.290 . S
Mn381 O383 2.089 . S
Mn381 O386 2.251 . S
Mn381 O387 2.087 . S
O382 Mn376 2.163 . S
O382 C392 1.244 . S
O383 Mn381 2.089 . S
O383 C390 1.256 . S
O384 Mn376 2.160 . S
O384 C393 1.239 . S
O385 Mn378 2.089 . S
O385 C393 1.256 . S
O386 Mn381 2.251 . S
O386 C391 1.241 . S
O387 Mn381 2.087 . S
O387 C392 1.256 . S
C388 O394 1.278 . S
C388 O395 1.241 . S
C389 O375 1.244 . S
C389 O377 1.256 . S
C390 O379 1.239 . S
C390 O383 1.256 . S
C391 O380 1.278 . S
C391 O386 1.241 . S
C392 O382 1.244 . S
C392 O387 1.256 . S
C393 O384 1.239 . S
C393 O385 1.256 . S
O394 Mn376 2.221 . S
O394 Mn378 2.290 . S
O394 C388 1.278 . S
O395 Mn378 2.251 . S
O395 C388 1.241 . S
O396 Mn397 2.163 1_565 S
O396 C410 1.241 1_455 S
Mn397 O396 2.163 1_545 S
Mn397 O400 2.160 . S
Mn397 O401 2.221 . S
Mn397 O403 2.163 1_455 S
Mn397 O405 2.175 . S
Mn397 O415 2.227 1_545 S
O398 Mn399 2.087 1_655 S
O398 C410 1.257 . S
Mn399 O398 2.087 1_455 S
Mn399 O406 2.089 . S
Mn399 O415 2.300 . S
Mn399 O416 2.251 1_455 S
O400 Mn397 2.160 . S
O400 C411 1.239 . S
O401 Mn397 2.221 . S
O401 Mn402 2.260 1_455 S
O401 C412 1.278 . S
Mn402 O401 2.260 1_655 S
Mn402 O404 2.082 1_655 S
Mn402 O407 2.241 1_655 S
Mn402 O408 2.140 . S
O403 Mn397 2.163 1_655 S
O403 C413 1.244 . S
O404 Mn402 2.082 1_455 S
O404 C411 1.256 . S
O405 Mn397 2.175 . S
O405 C414 1.193 1_545 S
O406 Mn399 2.089 . S
O406 C414 1.256 . S
O407 Mn402 2.241 1_455 S
O407 C412 1.241 . S
O408 Mn402 2.140 . S
O408 C413 1.256 . S
C409 O415 1.257 1_655 S
C409 O416 1.241 . S
C410 O396 1.241 1_655 S
C410 O398 1.257 . S
C411 O400 1.239 . S
C411 O404 1.256 . S
C412 O401 1.278 . S
C412 O407 1.241 . S
C413 O403 1.244 . S
C413 O408 1.256 . S
C414 O405 1.193 1_565 S
C414 O406 1.256 . S
O415 Mn397 2.227 1_565 S
O415 Mn399 2.300 . S
O415 C409 1.257 1_455 S
O416 Mn399 2.251 1_655 S
O416 C409 1.241 . S
O417 Mn418 2.163 . S
O417 C431 1.244 . S
Mn418 O417 2.163 . S
Mn418 O421 2.160 . S
Mn418 O422 2.221 . S
Mn418 O424 2.163 . S
Mn418 O426 2.160 . S
Mn418 O436 2.221 . S
O419 Mn420 2.087 . S
O419 C431 1.256 . S
Mn420 O419 2.087 . S
Mn420 O427 2.089 . S
Mn420 O436 2.290 . S
Mn420 O437 2.251 . S
O421 Mn418 2.160 . S
O421 C432 1.239 . S
O422 Mn418 2.221 . S
O422 Mn423 2.290 . S
O422 C433 1.278 . S
Mn423 O422 2.290 . S
Mn423 O425 2.089 . S
Mn423 O428 2.251 . S
Mn423 O429 2.087 . S
O424 Mn418 2.163 . S
O424 C434 1.244 . S
O425 Mn423 2.089 . S
O425 C432 1.256 . S
O426 Mn418 2.160 . S
O426 C435 1.239 . S
O427 Mn420 2.089 . S
O427 C435 1.256 . S
O428 Mn423 2.251 . S
O428 C433 1.241 . S
O429 Mn423 2.087 . S
O429 C434 1.256 . S
C430 O436 1.278 . S
C430 O437 1.241 . S
C431 O417 1.244 . S
C431 O419 1.256 . S
C432 O421 1.239 . S
C432 O425 1.256 . S
C433 O422 1.278 . S
C433 O428 1.241 . S
C434 O424 1.244 . S
C434 O429 1.256 . S
C435 O426 1.239 . S
C435 O427 1.256 . S
O436 Mn418 2.221 . S
O436 Mn420 2.290 . S
O436 C430 1.278 . S
O437 Mn420 2.251 . S
O437 C430 1.241 . S
O438 Mn439 2.163 1_566 S
O438 C452 1.244 . S
Mn439 O438 2.163 1_544 S
Mn439 O442 2.160 . S
Mn439 O443 2.221 . S
Mn439 O445 2.163 1_545 S
Mn439 O447 2.160 . S
Mn439 O457 2.203 1_544 S
O440 Mn441 2.087 1_565 S
O440 C452 1.256 . S
Mn441 O440 2.087 1_545 S
Mn441 O448 2.089 . S
Mn441 O457 2.334 1_545 S
Mn441 O458 2.251 1_545 S
O442 Mn439 2.160 . S
O442 C453 1.239 . S
O443 Mn439 2.221 . S
O443 Mn444 2.290 1_545 S
O443 C454 1.278 . S
Mn444 O443 2.290 1_565 S
Mn444 O446 2.089 . S
Mn444 O449 2.251 1_565 S
Mn444 O450 2.087 . S
O445 Mn439 2.163 1_565 S
O445 C455 1.244 . S
O446 Mn444 2.089 . S
O446 C453 1.256 1_565 S
O447 Mn439 2.160 . S
O447 C456 1.239 1_554 S
O448 Mn441 2.089 . S
O448 C456 1.256 . S
O449 Mn444 2.251 1_545 S
O449 C454 1.241 . S
O450 Mn444 2.087 . S
O450 C455 1.256 . S
C451 O457 1.292 . S
C451 O458 1.241 . S
C452 O438 1.244 . S
C452 O440 1.256 . S
C453 O442 1.239 . S
C453 O446 1.256 1_545 S
C454 O443 1.278 . S
C454 O449 1.241 . S
C455 O445 1.244 . S
C455 O450 1.256 . S
C456 O447 1.239 1_556 S
C456 O448 1.256 . S
O457 Mn439 2.203 1_566 S
O457 Mn441 2.334 1_565 S
O457 C451 1.292 . S
O458 Mn441 2.251 1_565 S
O458 C451 1.241 . S
O459 Mn460 2.163 . S
O459 C473 1.244 . S
Mn460 O459 2.163 . S
Mn460 O463 2.160 . S
Mn460 O464 2.221 . S
Mn460 O466 2.163 . S
Mn460 O468 2.160 . S
Mn460 O478 2.221 . S
O461 Mn462 2.087 . S
O461 C473 1.256 . S
Mn462 O461 2.087 . S
Mn462 O469 2.089 . S
Mn462 O478 2.290 . S
Mn462 O479 2.251 . S
O463 Mn460 2.160 . S
O463 C474 1.239 . S
O464 Mn460 2.221 . S
O464 Mn465 2.290 . S
O464 C475 1.278 . S
Mn465 O464 2.290 . S
Mn465 O467 2.089 . S
Mn465 O470 2.251 . S
Mn465 O471 2.087 . S
O466 Mn460 2.163 . S
O466 C476 1.244 . S
O467 Mn465 2.089 . S
O467 C474 1.256 . S
O468 Mn460 2.160 . S
O468 C477 1.239 . S
O469 Mn462 2.089 . S
O469 C477 1.256 . S
O470 Mn465 2.251 . S
O470 C475 1.241 . S
O471 Mn465 2.087 . S
O471 C476 1.256 . S
C472 O478 1.278 . S
C472 O479 1.241 . S
C473 O459 1.244 . S
C473 O461 1.256 . S
C474 O463 1.239 . S
C474 O467 1.256 . S
C475 O464 1.278 . S
C475 O470 1.241 . S
C476 O466 1.244 . S
C476 O471 1.256 . S
C477 O468 1.239 . S
C477 O469 1.256 . S
O478 Mn460 2.221 . S
O478 Mn462 2.290 . S
O478 C472 1.278 . S
O479 Mn462 2.251 . S
O479 C472 1.241 . S
O480 Mn481 2.163 1_556 S
O480 C494 1.244 . S
Mn481 O480 2.163 1_554 S
Mn481 O484 2.160 . S
Mn481 O485 2.221 1_554 S
Mn481 O487 2.163 . S
Mn481 O489 2.160 . S
Mn481 O499 2.221 . S
O482 Mn483 2.087 . S
O482 C494 1.256 1_554 S
Mn483 O482 2.087 . S
Mn483 O490 2.089 . S
Mn483 O499 2.290 . S
Mn483 O500 2.251 . S
O484 Mn481 2.160 . S
O484 C495 1.239 . S
O485 Mn481 2.221 1_556 S
O485 Mn486 2.290 . S
O485 C496 1.278 . S
Mn486 O485 2.290 . S
Mn486 O488 2.089 1_556 S
Mn486 O491 2.251 . S
Mn486 O492 2.087 . S
O487 Mn481 2.163 . S
O487 C497 1.248 . S
O488 Mn486 2.089 1_554 S
O488 C495 1.256 . S
O489 Mn481 2.160 . S
O489 C498 1.239 . S
O490 Mn483 2.089 . S
O490 C498 1.256 . S
O491 Mn486 2.251 . S
O491 C496 1.241 . S
O492 Mn486 2.087 . S
O492 C497 1.250 1_556 S
C493 O499 1.278 . S
C493 O500 1.241 . S
C494 O480 1.244 . S
C494 O482 1.256 1_556 S
C495 O484 1.239 . S
C495 O488 1.256 . S
C496 O485 1.278 . S
C496 O491 1.241 . S
C497 O487 1.248 . S
C497 O492 1.250 1_554 S
C498 O489 1.239 . S
C498 O490 1.256 . S
O499 Mn481 2.221 . S
O499 Mn483 2.290 . S
O499 C493 1.278 . S
O500 Mn483 2.251 . S
O500 C493 1.241 . S
O501 Mn502 2.163 . S
O501 C515 1.244 . S
Mn502 O501 2.163 . S
Mn502 O505 2.160 . S
Mn502 O506 2.221 . S
Mn502 O508 2.163 . S
Mn502 O510 2.160 . S
Mn502 O520 2.221 . S
O503 Mn504 2.087 . S
O503 C515 1.256 . S
Mn504 O503 2.087 . S
Mn504 O511 2.089 . S
Mn504 O520 2.290 . S
Mn504 O521 2.251 . S
O505 Mn502 2.160 . S
O505 C516 1.239 . S
O506 Mn502 2.221 . S
O506 Mn507 2.290 . S
O506 C517 1.278 . S
Mn507 O506 2.290 . S
Mn507 O509 2.089 . S
Mn507 O512 2.251 . S
Mn507 O513 2.087 . S
O508 Mn502 2.163 . S
O508 C518 1.244 . S
O509 Mn507 2.089 . S
O509 C516 1.256 . S
O510 Mn502 2.160 . S
O510 C519 1.239 . S
O511 Mn504 2.089 . S
O511 C519 1.256 . S
O512 Mn507 2.251 . S
O512 C517 1.241 . S
O513 Mn507 2.087 . S
O513 C518 1.256 . S
C514 O520 1.278 . S
C514 O521 1.241 . S
C515 O501 1.244 . S
C515 O503 1.256 . S
C516 O505 1.239 . S
C516 O509 1.256 . S
C517 O506 1.278 . S
C517 O512 1.241 . S
C518 O508 1.244 . S
C518 O513 1.256 . S
C519 O510 1.239 . S
C519 O511 1.256 . S
O520 Mn502 2.221 . S
O520 Mn504 2.290 . S
O520 C514 1.278 . S
O521 Mn504 2.251 . S
O521 C514 1.241 . S
O522 Mn523 2.163 1_655 S
O522 C536 1.244 . S
Mn523 O522 2.163 1_455 S
Mn523 O526 2.160 . S
Mn523 O527 2.221 1_455 S
Mn523 O529 2.163 . S
Mn523 O531 2.160 . S
Mn523 O541 2.221 . S
O524 Mn525 2.087 . S
O524 C536 1.256 1_455 S
Mn525 O524 2.087 . S
Mn525 O532 2.089 . S
Mn525 O541 2.290 . S
Mn525 O542 2.251 . S
O526 Mn523 2.160 . S
O526 C537 1.239 . S
O527 Mn523 2.221 1_655 S
O527 Mn528 2.290 . S
O527 C538 1.278 . S
Mn528 O527 2.290 . S
Mn528 O530 2.089 1_655 S
Mn528 O533 2.251 . S
Mn528 O534 2.087 . S
O529 Mn523 2.163 . S
O529 C539 1.232 1_455 S
O530 Mn528 2.089 1_455 S
O530 C537 1.256 . S
O531 Mn523 2.160 . S
O531 C540 1.239 . S
O532 Mn525 2.089 . S
O532 C540 1.256 . S
O533 Mn528 2.251 . S
O533 C538 1.241 . S
O534 Mn528 2.087 . S
O534 C539 1.273 . S
C535 O541 1.278 . S
C535 O542 1.241 . S
C536 O522 1.244 . S
C536 O524 1.256 1_655 S
C537 O526 1.239 . S
C537 O530 1.256 . S
C538 O527 1.278 . S
C538 O533 1.241 . S
C539 O529 1.232 1_655 S
C539 O534 1.273 . S
C540 O531 1.239 . S
C540 O532 1.256 . S
O541 Mn523 2.221 . S
O541 Mn525 2.290 . S
O541 C535 1.278 . S
O542 Mn525 2.251 . S
O542 C535 1.241 . S
O543 Mn544 2.163 . S
O543 C557 1.244 . S
Mn544 O543 2.163 . S
Mn544 O547 2.160 . S
Mn544 O548 2.221 . S
Mn544 O550 2.163 . S
Mn544 O552 2.160 . S
Mn544 O562 2.221 . S
O545 Mn546 2.087 . S
O545 C557 1.256 . S
Mn546 O545 2.087 . S
Mn546 O553 2.089 . S
Mn546 O562 2.290 . S
Mn546 O563 2.251 . S
O547 Mn544 2.160 . S
O547 C558 1.239 . S
O548 Mn544 2.221 . S
O548 Mn549 2.290 . S
O548 C559 1.278 . S
Mn549 O548 2.290 . S
Mn549 O551 2.089 . S
Mn549 O554 2.251 . S
Mn549 O555 2.087 . S
O550 Mn544 2.163 . S
O550 C560 1.244 . S
O551 Mn549 2.089 . S
O551 C558 1.256 . S
O552 Mn544 2.160 . S
O552 C561 1.239 . S
O553 Mn546 2.089 . S
O553 C561 1.256 . S
O554 Mn549 2.251 . S
O554 C559 1.241 . S
O555 Mn549 2.087 . S
O555 C560 1.256 . S
C556 O562 1.278 . S
C556 O563 1.241 . S
C557 O543 1.244 . S
C557 O545 1.256 . S
C558 O547 1.239 . S
C558 O551 1.256 . S
C559 O548 1.278 . S
C559 O554 1.241 . S
C560 O550 1.244 . S
C560 O555 1.256 . S
C561 O552 1.239 . S
C561 O553 1.256 . S
O562 Mn544 2.221 . S
O562 Mn546 2.290 . S
O562 C556 1.278 . S
O563 Mn546 2.251 . S
O563 C556 1.241 . S
O564 Mn565 2.163 . S
O564 C578 1.244 . S
Mn565 O564 2.163 . S
Mn565 O568 2.160 . S
Mn565 O569 2.221 . S
Mn565 O571 2.163 . S
Mn565 O573 2.160 . S
Mn565 O583 2.221 . S
O566 Mn567 2.087 . S
O566 C578 1.256 . S
Mn567 O566 2.087 . S
Mn567 O574 2.089 . S
Mn567 O583 2.290 . S
Mn567 O584 2.251 . S
O568 Mn565 2.160 . S
O568 C579 1.239 . S
O569 Mn565 2.221 . S
O569 Mn570 2.290 . S
O569 C580 1.278 . S
Mn570 O569 2.290 . S
Mn570 O572 2.089 . S
Mn570 O575 2.251 . S
Mn570 O576 2.087 . S
O571 Mn565 2.163 . S
O571 C581 1.244 . S
O572 Mn570 2.089 . S
O572 C579 1.256 . S
O573 Mn565 2.160 . S
O573 C582 1.239 . S
O574 Mn567 2.089 . S
O574 C582 1.256 . S
O575 Mn570 2.251 . S
O575 C580 1.241 . S
O576 Mn570 2.087 . S
O576 C581 1.256 . S
C577 O583 1.278 . S
C577 O584 1.241 . S
C578 O564 1.244 . S
C578 O566 1.256 . S
C579 O568 1.239 . S
C579 O572 1.256 . S
C580 O569 1.278 . S
C580 O575 1.241 . S
C581 O571 1.244 . S
C581 O576 1.256 . S
C582 O573 1.239 . S
C582 O574 1.256 . S
O583 Mn565 2.221 . S
O583 Mn567 2.290 . S
O583 C577 1.278 . S
O584 Mn567 2.251 . S
O584 C577 1.241 . S
O585 Mn586 2.163 . S
O585 C599 1.244 . S
Mn586 O585 2.163 . S
Mn586 O589 2.160 . S
Mn586 O590 2.221 . S
Mn586 O592 2.163 . S
Mn586 O594 2.160 . S
Mn586 O604 2.221 . S
O587 Mn588 2.087 . S
O587 C599 1.256 . S
Mn588 O587 2.087 . S
Mn588 O595 2.089 . S
Mn588 O604 2.290 . S
Mn588 O605 2.251 . S
O589 Mn586 2.160 . S
O589 C600 1.239 . S
O590 Mn586 2.221 . S
O590 Mn591 2.290 . S
O590 C601 1.278 . S
Mn591 O590 2.290 . S
Mn591 O593 2.089 . S
Mn591 O596 2.251 . S
Mn591 O597 2.087 . S
O592 Mn586 2.163 . S
O592 C602 1.244 . S
O593 Mn591 2.089 . S
O593 C600 1.256 . S
O594 Mn586 2.160 . S
O594 C603 1.239 . S
O595 Mn588 2.089 . S
O595 C603 1.256 . S
O596 Mn591 2.251 . S
O596 C601 1.241 . S
O597 Mn591 2.087 . S
O597 C602 1.256 . S
C598 O604 1.278 . S
C598 O605 1.241 . S
C599 O585 1.244 . S
C599 O587 1.256 . S
C600 O589 1.239 . S
C600 O593 1.256 . S
C601 O590 1.278 . S
C601 O596 1.241 . S
C602 O592 1.244 . S
C602 O597 1.256 . S
C603 O594 1.239 . S
C603 O595 1.256 . S
O604 Mn586 2.221 . S
O604 Mn588 2.290 . S
O604 C598 1.278 . S
O605 Mn588 2.251 . S
O605 C598 1.241 . S
O606 Mn607 2.163 . S
O606 C620 1.244 . S
Mn607 O606 2.163 . S
Mn607 O610 2.160 . S
Mn607 O611 2.221 . S
Mn607 O613 2.163 . S
Mn607 O615 2.160 . S
Mn607 O625 2.221 . S
O608 Mn609 2.087 . S
O608 C620 1.256 . S
Mn609 O608 2.087 . S
Mn609 O616 2.089 . S
Mn609 O625 2.290 . S
Mn609 O626 2.251 . S
O610 Mn607 2.160 . S
O610 C621 1.239 . S
O611 Mn607 2.221 . S
O611 Mn612 2.290 . S
O611 C622 1.278 . S
Mn612 O611 2.290 . S
Mn612 O614 2.089 . S
Mn612 O617 2.251 . S
Mn612 O618 2.087 . S
O613 Mn607 2.163 . S
O613 C623 1.244 . S
O614 Mn612 2.089 . S
O614 C621 1.256 . S
O615 Mn607 2.160 . S
O615 C624 1.239 . S
O616 Mn609 2.089 . S
O616 C624 1.256 . S
O617 Mn612 2.251 . S
O617 C622 1.241 . S
O618 Mn612 2.087 . S
O618 C623 1.256 . S
C619 O625 1.278 . S
C619 O626 1.241 . S
C620 O606 1.244 . S
C620 O608 1.256 . S
C621 O610 1.239 . S
C621 O614 1.256 . S
C622 O611 1.278 . S
C622 O617 1.241 . S
C623 O613 1.244 . S
C623 O618 1.256 . S
C624 O615 1.239 . S
C624 O616 1.256 . S
O625 Mn607 2.221 . S
O625 Mn609 2.290 . S
O625 C619 1.278 . S
O626 Mn609 2.251 . S
O626 C619 1.241 . S
O627 Mn628 2.156 1_656 S
O627 C641 1.250 . S
Mn628 O627 2.156 1_454 S
Mn628 O631 2.160 . S
Mn628 O632 2.221 . S
Mn628 O634 2.163 1_554 S
Mn628 O636 2.160 . S
Mn628 O646 2.212 1_454 S
O629 Mn630 2.087 1_556 S
O629 C641 1.256 . S
Mn630 O629 2.087 1_554 S
Mn630 O637 2.089 . S
Mn630 O646 2.311 1_554 S
Mn630 O647 2.251 1_554 S
O631 Mn628 2.160 . S
O631 C642 1.239 . S
O632 Mn628 2.221 . S
O632 Mn633 2.290 1_554 S
O632 C643 1.278 . S
Mn633 O632 2.290 1_556 S
Mn633 O635 2.089 1_556 S
Mn633 O638 2.251 1_556 S
Mn633 O639 2.087 . S
O634 Mn628 2.163 1_556 S
O634 C644 1.244 . S
O635 Mn633 2.089 1_554 S
O635 C642 1.254 . S
O636 Mn628 2.160 . S
O636 C645 1.239 1_455 S
O637 Mn630 2.089 . S
O637 C645 1.256 . S
O638 Mn633 2.251 1_554 S
O638 C643 1.241 . S
O639 Mn633 2.087 . S
O639 C644 1.256 . S
C640 O646 1.285 . S
C640 O647 1.241 . S
C641 O627 1.250 . S
C641 O629 1.256 . S
C642 O631 1.239 . S
C642 O635 1.254 . S
C643 O632 1.278 . S
C643 O638 1.241 . S
C644 O634 1.244 . S
C644 O639 1.256 . S
C645 O636 1.239 1_655 S
C645 O637 1.256 . S
O646 Mn628 2.212 1_656 S
O646 Mn630 2.311 1_556 S
O646 C640 1.285 . S
O647 Mn630 2.251 1_556 S
O647 C640 1.241 . S
H648 C656 0.929 . S
H649 C658 0.930 . S
H650 C660 0.930 . S
H651 C663 0.929 . S
H652 C666 0.930 . S
H653 C668 0.960 . S
H654 C668 0.960 . S
H655 C668 0.960 . S
C656 H648 0.929 . S
C656 C657 1.395 . S
C656 C658 1.384 . S
C657 C656 1.395 . S
C657 C663 1.372 1_455 S
C658 H649 0.930 . S
C658 C656 1.384 . S
C658 C659 1.378 . S
C659 C658 1.378 . S
C659 C660 1.394 1_455 S
C659 C664 1.489 1_455 S
C660 H650 0.930 . S
C660 C659 1.394 1_655 S
C660 C663 1.386 . S
H661 C677 0.930 . S
H662 C678 0.931 . S
C663 H651 0.929 . S
C663 C657 1.372 1_655 S
C663 C660 1.386 . S
C664 C659 1.489 1_655 S
C664 C666 1.404 . S
C664 C667 1.395 1_655 S
H665 C671 0.930 . S
C666 H652 0.930 . S
C666 C664 1.404 . S
C666 C669 1.403 . S
C667 C664 1.395 1_455 S
C667 C668 1.524 . S
C667 C671 1.400 . S
C668 H653 0.960 . S
C668 H654 0.960 . S
C668 H655 0.960 . S
C668 C667 1.524 . S
C669 C666 1.403 . S
C669 C670 1.392 . S
C669 C673 1.495 . S
C670 C669 1.392 . S
C670 C671 1.385 1_655 S
C670 C672 1.478 . S
C671 H665 0.930 . S
C671 C667 1.400 . S
C671 C670 1.385 1_455 S
C672 C670 1.478 . S
C672 C674 1.381 1_655 S
C672 C678 1.383 . S
C673 C669 1.495 . S
C673 H679 0.959 . S
C673 H680 0.961 . S
C673 H681 0.960 . S
C674 C672 1.381 1_455 S
C674 C675 1.394 . S
C674 H682 0.930 . S
C675 C674 1.394 . S
C675 C676 1.383 1_455 S
C675 H683 0.929 . S
C676 C675 1.383 1_655 S
C676 C677 1.377 . S
C677 H661 0.930 . S
C677 C676 1.377 . S
C677 C678 1.379 . S
C678 H662 0.931 . S
C678 C672 1.383 . S
C678 C677 1.379 . S
H679 C673 0.959 . S
H680 C673 0.961 . S
H681 C673 0.960 . S
H682 C674 0.930 . S
H683 C675 0.929 . S
H684 C692 0.929 . S
H685 C694 0.930 . S
H686 C696 0.930 . S
H687 C699 0.929 . S
H688 C702 0.930 . S
H689 C704 0.960 . S
H690 C704 0.960 . S
H691 C704 0.960 . S
C692 H684 0.929 . S
C692 C693 1.377 . S
C692 C694 1.384 . S
C693 C692 1.377 . S
C693 C699 1.390 . S
C694 H685 0.930 . S
C694 C692 1.384 . S
C694 C695 1.372 . S
C695 C694 1.372 . S
C695 C696 1.400 . S
C695 C700 1.490 . S
C696 H686 0.930 . S
C696 C695 1.400 . S
C696 C699 1.386 . S
H697 C713 0.930 . S
H698 C714 0.931 . S
C699 H687 0.929 . S
C699 C693 1.390 . S
C699 C696 1.386 . S
C700 C695 1.490 . S
C700 C702 1.395 . S
C700 C703 1.403 . S
H701 C707 0.930 . S
C702 H688 0.930 . S
C702 C700 1.395 . S
C702 C705 1.403 . S
C703 C700 1.403 . S
C703 C704 1.524 . S
C703 C707 1.400 . S
C704 H689 0.960 . S
C704 H690 0.960 . S
C704 H691 0.960 . S
C704 C703 1.524 . S
C705 C702 1.403 . S
C705 C706 1.392 . S
C705 C709 1.495 . S
C706 C705 1.392 . S
C706 C707 1.385 . S
C706 C708 1.478 . S
C707 H701 0.930 . S
C707 C703 1.400 . S
C707 C706 1.385 . S
C708 C706 1.478 . S
C708 C710 1.381 . S
C708 C714 1.383 . S
C709 C705 1.495 . S
C709 H715 0.959 . S
C709 H716 0.961 . S
C709 H717 0.960 . S
C710 C708 1.381 . S
C710 C711 1.394 . S
C710 H718 0.930 . S
C711 C710 1.394 . S
C711 C712 1.383 . S
C711 H719 0.929 . S
C712 C711 1.383 . S
C712 C713 1.377 . S
C713 H697 0.930 . S
C713 C712 1.377 . S
C713 C714 1.379 . S
C714 H698 0.931 . S
C714 C708 1.383 . S
C714 C713 1.379 . S
H715 C709 0.959 . S
H716 C709 0.961 . S
H717 C709 0.960 . S
H718 C710 0.930 . S
H719 C711 0.929 . S
H720 C728 0.929 . S
H721 C730 0.930 . S
H722 C732 0.930 . S
H723 C735 0.929 . S
H724 C738 0.930 . S
H725 C740 0.960 . S
H726 C740 0.960 . S
H727 C740 0.960 . S
C728 H720 0.929 . S
C728 C729 1.377 . S
C728 C730 1.384 . S
C729 C728 1.377 . S
C729 C735 1.390 . S
C730 H721 0.930 . S
C730 C728 1.384 . S
C730 C731 1.372 . S
C731 C730 1.372 . S
C731 C732 1.400 . S
C731 C736 1.490 . S
C732 H722 0.930 . S
C732 C731 1.400 . S
C732 C735 1.386 . S
H733 C749 0.930 . S
H734 C750 0.931 . S
C735 H723 0.929 . S
C735 C729 1.390 . S
C735 C732 1.386 . S
C736 C731 1.490 . S
C736 C738 1.395 . S
C736 C739 1.403 . S
H737 C743 0.930 . S
C738 H724 0.930 . S
C738 C736 1.395 . S
C738 C741 1.403 . S
C739 C736 1.403 . S
C739 C740 1.524 . S
C739 C743 1.400 . S
C740 H725 0.960 . S
C740 H726 0.960 . S
C740 H727 0.960 . S
C740 C739 1.524 . S
C741 C738 1.403 . S
C741 C742 1.392 . S
C741 C745 1.495 . S
C742 C741 1.392 . S
C742 C743 1.385 . S
C742 C744 1.478 . S
C743 H737 0.930 . S
C743 C739 1.400 . S
C743 C742 1.385 . S
C744 C742 1.478 . S
C744 C746 1.381 . S
C744 C750 1.383 . S
C745 C741 1.495 . S
C745 H751 0.959 . S
C745 H752 0.961 . S
C745 H753 0.960 . S
C746 C744 1.381 . S
C746 C747 1.394 . S
C746 H754 0.930 . S
C747 C746 1.394 . S
C747 C748 1.383 . S
C747 H755 0.929 . S
C748 C747 1.383 . S
C748 C749 1.377 . S
C749 H733 0.930 . S
C749 C748 1.377 . S
C749 C750 1.379 . S
C750 H734 0.931 . S
C750 C744 1.383 . S
C750 C749 1.379 . S
H751 C745 0.959 . S
H752 C745 0.961 . S
H753 C745 0.960 . S
H754 C746 0.930 . S
H755 C747 0.929 . S
H756 C764 0.929 . S
H757 C766 0.930 . S
H758 C768 0.930 . S
H759 C771 0.929 . S
H760 C774 0.930 . S
H761 C776 0.960 . S
H762 C776 0.960 . S
H763 C776 0.960 . S
C764 H756 0.929 . S
C764 C765 1.377 . S
C764 C766 1.384 . S
C765 C764 1.377 . S
C765 C771 1.390 . S
C766 H757 0.930 . S
C766 C764 1.384 . S
C766 C767 1.372 . S
C767 C766 1.372 . S
C767 C768 1.400 . S
C767 C772 1.490 . S
C768 H758 0.930 . S
C768 C767 1.400 . S
C768 C771 1.386 . S
H769 C785 0.930 . S
H770 C786 0.931 . S
C771 H759 0.929 . S
C771 C765 1.390 . S
C771 C768 1.386 . S
C772 C767 1.490 . S
C772 C774 1.395 . S
C772 C775 1.403 . S
H773 C779 0.930 . S
C774 H760 0.930 . S
C774 C772 1.395 . S
C774 C777 1.403 . S
C775 C772 1.403 . S
C775 C776 1.524 . S
C775 C779 1.400 . S
C776 H761 0.960 . S
C776 H762 0.960 . S
C776 H763 0.960 . S
C776 C775 1.524 . S
C777 C774 1.403 . S
C777 C778 1.392 . S
C777 C781 1.495 . S
C778 C777 1.392 . S
C778 C779 1.385 . S
C778 C780 1.478 . S
C779 H773 0.930 . S
C779 C775 1.400 . S
C779 C778 1.385 . S
C780 C778 1.478 . S
C780 C782 1.381 . S
C780 C786 1.383 . S
C781 C777 1.495 . S
C781 H787 0.959 . S
C781 H788 0.961 . S
C781 H789 0.960 . S
C782 C780 1.381 . S
C782 C783 1.394 . S
C782 H790 0.930 . S
C783 C782 1.394 . S
C783 C784 1.383 . S
C783 H791 0.929 . S
C784 C783 1.383 . S
C784 C785 1.377 . S
C785 H769 0.930 . S
C785 C784 1.377 . S
C785 C786 1.379 . S
C786 H770 0.931 . S
C786 C780 1.383 . S
C786 C785 1.379 . S
H787 C781 0.959 . S
H788 C781 0.961 . S
H789 C781 0.960 . S
H790 C782 0.930 . S
H791 C783 0.929 . S
H792 C800 0.929 . S
H793 C802 0.930 . S
H794 C804 0.930 . S
H795 C807 0.929 . S
H796 C810 0.930 . S
H797 C812 0.960 . S
H798 C812 0.960 . S
H799 C812 0.960 . S
C800 H792 0.929 . S
C800 C801 1.377 . S
C800 C802 1.384 . S
C801 C800 1.377 . S
C801 C807 1.390 1_455 S
C802 H793 0.930 . S
C802 C800 1.384 . S
C802 C803 1.372 . S
C803 C802 1.372 . S
C803 C804 1.400 1_455 S
C803 C808 1.490 . S
C804 H794 0.930 . S
C804 C803 1.400 1_655 S
C804 C807 1.386 . S
H805 C821 0.930 . S
H806 C822 0.931 . S
C807 H795 0.929 . S
C807 C801 1.390 1_655 S
C807 C804 1.386 . S
C808 C803 1.490 . S
C808 C810 1.395 . S
C808 C811 1.403 1_455 S
H809 C815 0.930 . S
C810 H796 0.930 . S
C810 C808 1.395 . S
C810 C813 1.403 . S
C811 C808 1.403 1_655 S
C811 C812 1.524 . S
C811 C815 1.400 . S
C812 H797 0.960 . S
C812 H798 0.960 . S
C812 H799 0.960 . S
C812 C811 1.524 . S
C813 C810 1.403 . S
C813 C814 1.392 . S
C813 C817 1.495 . S
C814 C813 1.392 . S
C814 C815 1.385 1_455 S
C814 C816 1.478 . S
C815 H809 0.930 . S
C815 C811 1.400 . S
C815 C814 1.385 1_655 S
C816 C814 1.478 . S
C816 C818 1.381 . S
C816 C822 1.383 1_455 S
C817 C813 1.495 . S
C817 H823 0.959 . S
C817 H824 0.961 . S
C817 H825 0.960 . S
C818 C816 1.381 . S
C818 C819 1.394 . S
C818 H826 0.930 . S
C819 C818 1.394 . S
C819 C820 1.378 . S
C819 H827 0.929 . S
C820 C819 1.378 . S
C820 C821 1.382 1_455 S
C821 H805 0.930 . S
C821 C820 1.382 1_655 S
C821 C822 1.379 . S
C822 H806 0.931 . S
C822 C816 1.383 1_655 S
C822 C821 1.379 . S
H823 C817 0.959 . S
H824 C817 0.961 . S
H825 C817 0.960 . S
H826 C818 0.930 . S
H827 C819 0.929 . S
H828 C836 0.929 . S
H829 C838 0.930 . S
H830 C840 0.930 . S
H831 C843 0.929 . S
H832 C846 0.930 . S
H833 C848 0.960 . S
H834 C848 0.960 . S
H835 C848 0.960 . S
C836 H828 0.929 . S
C836 C837 1.377 . S
C836 C838 1.384 . S
C837 C836 1.377 . S
C837 C843 1.390 . S
C838 H829 0.930 . S
C838 C836 1.384 . S
C838 C839 1.372 . S
C839 C838 1.372 . S
C839 C840 1.400 . S
C839 C844 1.490 . S
C840 H830 0.930 . S
C840 C839 1.400 . S
C840 C843 1.386 . S
H841 C857 0.930 . S
H842 C858 0.931 . S
C843 H831 0.929 . S
C843 C837 1.390 . S
C843 C840 1.386 . S
C844 C839 1.490 . S
C844 C846 1.395 . S
C844 C847 1.403 . S
H845 C851 0.930 . S
C846 H832 0.930 . S
C846 C844 1.395 . S
C846 C849 1.403 . S
C847 C844 1.403 . S
C847 C848 1.524 . S
C847 C851 1.400 . S
C848 H833 0.960 . S
C848 H834 0.960 . S
C848 H835 0.960 . S
C848 C847 1.524 . S
C849 C846 1.403 . S
C849 C850 1.392 . S
C849 C853 1.495 . S
C850 C849 1.392 . S
C850 C851 1.385 . S
C850 C852 1.478 . S
C851 H845 0.930 . S
C851 C847 1.400 . S
C851 C850 1.385 . S
C852 C850 1.478 . S
C852 C854 1.381 . S
C852 C858 1.383 . S
C853 C849 1.495 . S
C853 H859 0.959 . S
C853 H860 0.961 . S
C853 H861 0.960 . S
C854 C852 1.381 . S
C854 C855 1.394 . S
C854 H862 0.930 . S
C855 C854 1.394 . S
C855 C856 1.383 . S
C855 H863 0.929 . S
C856 C855 1.383 . S
C856 C857 1.377 . S
C857 H841 0.930 . S
C857 C856 1.377 . S
C857 C858 1.379 . S
C858 H842 0.931 . S
C858 C852 1.383 . S
C858 C857 1.379 . S
H859 C853 0.959 . S
H860 C853 0.961 . S
H861 C853 0.960 . S
H862 C854 0.930 . S
H863 C855 0.929 . S
H864 C872 0.929 . S
H865 C874 0.930 . S
H866 C876 0.930 . S
H867 C879 0.929 . S
H868 C882 0.930 . S
H869 C884 0.960 . S
H870 C884 0.960 . S
H871 C884 0.960 . S
C872 H864 0.929 . S
C872 C873 1.377 . S
C872 C874 1.384 . S
C873 C872 1.377 . S
C873 C879 1.390 . S
C874 H865 0.930 . S
C874 C872 1.384 . S
C874 C875 1.372 . S
C875 C874 1.372 . S
C875 C876 1.400 . S
C875 C880 1.490 . S
C876 H866 0.930 . S
C876 C875 1.400 . S
C876 C879 1.386 . S
H877 C893 0.930 . S
H878 C894 0.931 . S
C879 H867 0.929 . S
C879 C873 1.390 . S
C879 C876 1.386 . S
C880 C875 1.490 . S
C880 C882 1.395 . S
C880 C883 1.403 . S
H881 C887 0.930 . S
C882 H868 0.930 . S
C882 C880 1.395 . S
C882 C885 1.403 . S
C883 C880 1.403 . S
C883 C884 1.524 . S
C883 C887 1.400 . S
C884 H869 0.960 . S
C884 H870 0.960 . S
C884 H871 0.960 . S
C884 C883 1.524 . S
C885 C882 1.403 . S
C885 C886 1.392 . S
C885 C889 1.495 . S
C886 C885 1.392 . S
C886 C887 1.385 . S
C886 C888 1.478 . S
C887 H881 0.930 . S
C887 C883 1.400 . S
C887 C886 1.385 . S
C888 C886 1.478 . S
C888 C890 1.381 . S
C888 C894 1.383 . S
C889 C885 1.495 . S
C889 H895 0.959 . S
C889 H896 0.961 . S
C889 H897 0.960 . S
C890 C888 1.381 . S
C890 C891 1.394 . S
C890 H898 0.930 . S
C891 C890 1.394 . S
C891 C892 1.383 . S
C891 H899 0.929 1_556 S
C892 C891 1.383 . S
C892 C893 1.377 . S
C893 H877 0.930 . S
C893 C892 1.377 . S
C893 C894 1.379 . S
C894 H878 0.931 . S
C894 C888 1.383 . S
C894 C893 1.379 . S
H895 C889 0.959 . S
H896 C889 0.961 . S
H897 C889 0.960 . S
H898 C890 0.930 . S
H899 C891 0.929 1_554 S
H900 C908 0.929 . S
H901 C910 0.930 . S
H902 C912 0.930 . S
H903 C915 0.929 . S
H904 C918 0.930 . S
H905 C920 0.960 . S
H906 C920 0.960 . S
H907 C920 0.960 . S
C908 H900 0.929 . S
C908 C909 1.377 . S
C908 C910 1.384 . S
C909 C908 1.377 . S
C909 C915 1.390 . S
C910 H901 0.930 . S
C910 C908 1.384 . S
C910 C911 1.372 . S
C911 C910 1.372 . S
C911 C912 1.400 . S
C911 C916 1.490 . S
C912 H902 0.930 . S
C912 C911 1.400 . S
C912 C915 1.386 . S
H913 C929 0.930 . S
H914 C930 0.931 . S
C915 H903 0.929 . S
C915 C909 1.390 . S
C915 C912 1.386 . S
C916 C911 1.490 . S
C916 C918 1.395 . S
C916 C919 1.403 . S
H917 C923 0.930 . S
C918 H904 0.930 . S
C918 C916 1.395 . S
C918 C921 1.403 . S
C919 C916 1.403 . S
C919 C920 1.524 . S
C919 C923 1.400 . S
C920 H905 0.960 . S
C920 H906 0.960 . S
C920 H907 0.960 . S
C920 C919 1.524 . S
C921 C918 1.403 . S
C921 C922 1.392 . S
C921 C925 1.495 . S
C922 C921 1.392 . S
C922 C923 1.385 . S
C922 C924 1.478 . S
C923 H917 0.930 . S
C923 C919 1.400 . S
C923 C922 1.385 . S
C924 C922 1.478 . S
C924 C926 1.381 . S
C924 C930 1.383 . S
C925 C921 1.495 . S
C925 H931 0.959 . S
C925 H932 0.961 . S
C925 H933 0.960 . S
C926 C924 1.381 . S
C926 C927 1.394 . S
C926 H934 0.930 . S
C927 C926 1.394 . S
C927 C928 1.383 . S
C927 H935 0.929 . S
C928 C927 1.383 . S
C928 C929 1.377 . S
C929 H913 0.930 . S
C929 C928 1.377 . S
C929 C930 1.379 . S
C930 H914 0.931 . S
C930 C924 1.383 . S
C930 C929 1.379 . S
H931 C925 0.959 . S
H932 C925 0.961 . S
H933 C925 0.960 . S
H934 C926 0.930 . S
H935 C927 0.929 . S
H936 C944 0.929 . S
H937 C946 0.930 . S
H938 C948 0.930 . S
H939 C951 0.929 . S
H940 C954 0.930 . S
H941 C956 0.960 . S
H942 C956 0.960 . S
H943 C956 0.960 . S
C944 H936 0.929 . S
C944 C945 1.377 . S
C944 C946 1.384 . S
C945 C944 1.377 . S
C945 C951 1.390 1_565 S
C946 H937 0.930 . S
C946 C944 1.384 . S
C946 C947 1.372 . S
C947 C946 1.372 . S
C947 C948 1.400 1_565 S
C947 C952 1.490 . S
C948 H938 0.930 . S
C948 C947 1.400 1_545 S
C948 C951 1.386 . S
H949 C965 0.930 . S
H950 C966 0.931 . S
C951 H939 0.929 . S
C951 C945 1.390 1_545 S
C951 C948 1.386 . S
C952 C947 1.490 . S
C952 C954 1.395 . S
C952 C955 1.403 1_565 S
H953 C959 0.930 . S
C954 H940 0.930 . S
C954 C952 1.395 . S
C954 C957 1.403 . S
C955 C952 1.403 1_545 S
C955 C956 1.524 . S
C955 C959 1.400 . S
C956 H941 0.960 . S
C956 H942 0.960 . S
C956 H943 0.960 . S
C956 C955 1.524 . S
C957 C954 1.403 . S
C957 C958 1.392 . S
C957 C961 1.495 . S
C958 C957 1.392 . S
C958 C959 1.385 1_565 S
C958 C960 1.478 . S
C959 H953 0.930 . S
C959 C955 1.400 . S
C959 C958 1.385 1_545 S
C960 C958 1.478 . S
C960 C962 1.381 . S
C960 C966 1.383 1_565 S
C961 C957 1.495 . S
C961 H967 0.959 . S
C961 H968 0.961 . S
C961 H969 0.960 . S
C962 C960 1.381 . S
C962 C963 1.394 . S
C962 H970 0.930 . S
C963 C962 1.394 . S
C963 C964 1.383 . S
C963 H971 0.929 . S
C964 C963 1.383 . S
C964 C965 1.377 1_565 S
C965 H949 0.930 . S
C965 C964 1.377 1_545 S
C965 C966 1.379 . S
C966 H950 0.931 . S
C966 C960 1.383 1_545 S
C966 C965 1.379 . S
H967 C961 0.959 . S
H968 C961 0.961 . S
H969 C961 0.960 . S
H970 C962 0.930 . S
H971 C963 0.929 . S
H972 C980 0.929 . S
H973 C982 0.930 . S
H974 C984 0.930 . S
H975 C987 0.929 . S
H976 C990 0.930 . S
H977 C992 0.960 . S
H978 C992 0.960 . S
H979 C992 0.960 . S
C980 H972 0.929 . S
C980 C981 1.377 . S
C980 C982 1.384 . S
C981 C980 1.377 . S
C981 C987 1.390 . S
C982 H973 0.930 . S
C982 C980 1.384 . S
C982 C983 1.372 . S
C983 C982 1.372 . S
C983 C984 1.400 . S
C983 C988 1.490 . S
C984 H974 0.930 . S
C984 C983 1.400 . S
C984 C987 1.386 . S
H985 C1001 0.930 . S
H986 C1002 0.931 . S
C987 H975 0.929 . S
C987 C981 1.390 . S
C987 C984 1.386 . S
C988 C983 1.490 . S
C988 C990 1.395 . S
C988 C991 1.403 . S
H989 C995 0.930 . S
C990 H976 0.930 . S
C990 C988 1.395 . S
C990 C993 1.403 . S
C991 C988 1.403 . S
C991 C992 1.524 . S
C991 C995 1.400 . S
C992 H977 0.960 . S
C992 H978 0.960 . S
C992 H979 0.960 . S
C992 C991 1.524 . S
C993 C990 1.403 . S
C993 C994 1.392 . S
C993 C997 1.495 . S
C994 C993 1.392 . S
C994 C995 1.385 . S
C994 C996 1.478 . S
C995 H989 0.930 . S
C995 C991 1.400 . S
C995 C994 1.385 . S
C996 C994 1.478 . S
C996 C998 1.381 . S
C996 C1002 1.383 . S
C997 C993 1.495 . S
C997 H1003 0.959 . S
C997 H1004 0.961 . S
C997 H1005 0.960 . S
C998 C996 1.381 . S
C998 C999 1.394 . S
C998 H1006 0.930 . S
C999 C998 1.394 . S
C999 C1000 1.383 . S
C999 H1007 0.929 . S
C1000 C999 1.383 . S
C1000 C1001 1.377 . S
C1001 H985 0.930 . S
C1001 C1000 1.377 . S
C1001 C1002 1.379 . S
C1002 H986 0.931 . S
C1002 C996 1.383 . S
C1002 C1001 1.379 . S
H1003 C997 0.959 . S
H1004 C997 0.961 . S
H1005 C997 0.960 . S
H1006 C998 0.930 . S
H1007 C999 0.929 . S
H1008 C1016 0.929 . S
H1009 C1018 0.930 . S
H1010 C1020 0.930 . S
H1011 C1023 0.929 . S
H1012 C1026 0.930 . S
H1013 C1028 0.960 . S
H1014 C1028 0.960 . S
H1015 C1028 0.994 . S
C1016 H1008 0.929 . S
C1016 C1017 1.377 . S
C1016 C1018 1.384 . S
C1017 C1016 1.377 . S
C1017 C1023 1.390 1_545 S
C1018 H1009 0.930 . S
C1018 C1016 1.384 . S
C1018 C1019 1.372 . S
C1019 C1018 1.372 . S
C1019 C1020 1.400 1_545 S
C1019 C1024 1.490 . S
C1020 H1010 0.930 . S
C1020 C1019 1.400 1_565 S
C1020 C1023 1.386 . S
H1021 C1037 0.930 1_565 S
H1022 C1038 0.931 1_565 S
C1023 H1011 0.929 . S
C1023 C1017 1.390 1_565 S
C1023 C1020 1.386 . S
C1024 C1019 1.490 . S
C1024 C1026 1.395 . S
C1024 C1027 1.403 . S
H1025 C1031 0.930 . S
C1026 H1012 0.930 . S
C1026 C1024 1.395 . S
C1026 C1029 1.403 . S
C1027 C1024 1.403 . S
C1027 C1028 1.524 . S
C1027 C1031 1.400 . S
C1028 H1013 0.960 . S
C1028 H1014 0.960 . S
C1028 H1015 0.994 . S
C1028 C1027 1.524 . S
C1029 C1026 1.403 . S
C1029 C1030 1.392 . S
C1029 C1033 1.495 . S
C1030 C1029 1.392 . S
C1030 C1031 1.385 . S
C1030 C1032 1.478 . S
C1031 H1025 0.930 . S
C1031 C1027 1.400 . S
C1031 C1030 1.385 . S
C1032 C1030 1.478 . S
C1032 C1034 1.381 . S
C1032 C1038 1.383 . S
C1033 C1029 1.495 . S
C1033 H1039 0.959 . S
C1033 H1040 0.961 . S
C1033 H1041 0.960 . S
C1034 C1032 1.381 . S
C1034 C1035 1.394 . S
C1034 H1042 0.930 . S
C1035 C1034 1.394 . S
C1035 C1036 1.383 . S
C1035 H1043 0.929 . S
C1036 C1035 1.383 . S
C1036 C1037 1.377 . S
C1037 H1021 0.930 1_545 S
C1037 C1036 1.377 . S
C1037 C1038 1.379 . S
C1038 H1022 0.931 1_545 S
C1038 C1032 1.383 . S
C1038 C1037 1.379 . S
H1039 C1033 0.959 . S
H1040 C1033 0.961 . S
H1041 C1033 0.960 . S
H1042 C1034 0.930 . S
H1043 C1035 0.929 . S
H1044 C1052 0.929 . S
H1045 C1054 0.930 . S
H1046 C1056 0.930 . S
H1047 C1059 0.929 . S
H1048 C1062 0.930 . S
H1049 C1064 0.960 . S
H1050 C1064 0.960 . S
H1051 C1064 0.960 . S
C1052 H1044 0.929 . S
C1052 C1053 1.377 . S
C1052 C1054 1.384 . S
C1053 C1052 1.377 . S
C1053 C1059 1.390 . S
C1054 H1045 0.930 . S
C1054 C1052 1.384 . S
C1054 C1055 1.372 . S
C1055 C1054 1.372 . S
C1055 C1056 1.400 . S
C1055 C1060 1.490 . S
C1056 H1046 0.930 . S
C1056 C1055 1.400 . S
C1056 C1059 1.386 . S
H1057 C1073 0.930 . S
H1058 C1074 0.931 . S
C1059 H1047 0.929 . S
C1059 C1053 1.390 . S
C1059 C1056 1.386 . S
C1060 C1055 1.490 . S
C1060 C1062 1.395 . S
C1060 C1063 1.403 . S
H1061 C1067 0.930 . S
C1062 H1048 0.930 . S
C1062 C1060 1.395 . S
C1062 C1065 1.403 . S
C1063 C1060 1.403 . S
C1063 C1064 1.524 . S
C1063 C1067 1.400 . S
C1064 H1049 0.960 . S
C1064 H1050 0.960 . S
C1064 H1051 0.960 . S
C1064 C1063 1.524 . S
C1065 C1062 1.403 . S
C1065 C1066 1.392 . S
C1065 C1069 1.495 . S
C1066 C1065 1.392 . S
C1066 C1067 1.385 . S
C1066 C1068 1.478 . S
C1067 H1061 0.930 . S
C1067 C1063 1.400 . S
C1067 C1066 1.385 . S
C1068 C1066 1.478 . S
C1068 C1070 1.381 . S
C1068 C1074 1.383 . S
C1069 C1065 1.495 . S
C1069 H1075 0.959 . S
C1069 H1076 0.961 . S
C1069 H1077 0.960 . S
C1070 C1068 1.381 . S
C1070 C1071 1.394 . S
C1070 H1078 0.930 . S
C1071 C1070 1.394 . S
C1071 C1072 1.383 . S
C1071 H1079 0.929 . S
C1072 C1071 1.383 . S
C1072 C1073 1.377 . S
C1073 H1057 0.930 . S
C1073 C1072 1.377 . S
C1073 C1074 1.379 . S
C1074 H1058 0.931 . S
C1074 C1068 1.383 . S
C1074 C1073 1.379 . S
H1075 C1069 0.959 . S
H1076 C1069 0.961 . S
H1077 C1069 0.960 . S
H1078 C1070 0.930 . S
H1079 C1071 0.929 . S
H1080 C1088 0.929 . S
H1081 C1090 0.930 . S
H1082 C1092 0.930 . S
H1083 C1095 0.929 . S
H1084 C1098 0.930 . S
H1085 C1100 0.960 . S
H1086 C1100 0.960 . S
H1087 C1100 0.960 . S
C1088 H1080 0.929 . S
C1088 C1089 1.377 . S
C1088 C1090 1.384 . S
C1089 C1088 1.377 . S
C1089 C1095 1.390 . S
C1090 H1081 0.930 . S
C1090 C1088 1.384 . S
C1090 C1091 1.372 . S
C1091 C1090 1.372 . S
C1091 C1092 1.400 . S
C1091 C1096 1.490 . S
C1092 H1082 0.930 . S
C1092 C1091 1.400 . S
C1092 C1095 1.386 . S
H1093 C1109 0.930 . S
H1094 C1110 0.931 . S
C1095 H1083 0.929 . S
C1095 C1089 1.390 . S
C1095 C1092 1.386 . S
C1096 C1091 1.490 . S
C1096 C1098 1.395 1_545 S
C1096 C1099 1.403 . S
H1097 C1103 0.930 . S
C1098 H1084 0.930 . S
C1098 C1096 1.395 1_565 S
C1098 C1101 1.403 . S
C1099 C1096 1.403 . S
C1099 C1100 1.524 . S
C1099 C1103 1.400 . S
C1100 H1085 0.960 . S
C1100 H1086 0.960 . S
C1100 H1087 0.960 . S
C1100 C1099 1.524 . S
C1101 C1098 1.403 . S
C1101 C1102 1.392 1_565 S
C1101 C1105 1.495 . S
C1102 C1101 1.392 1_545 S
C1102 C1103 1.385 . S
C1102 C1104 1.478 . S
C1103 H1097 0.930 . S
C1103 C1099 1.400 . S
C1103 C1102 1.385 . S
C1104 C1102 1.478 . S
C1104 C1106 1.381 . S
C1104 C1110 1.383 . S
C1105 C1101 1.495 . S
C1105 H1111 0.959 . S
C1105 H1112 0.961 . S
C1105 H1113 0.960 . S
C1106 C1104 1.381 . S
C1106 C1107 1.394 . S
C1106 H1114 0.930 . S
C1107 C1106 1.394 . S
C1107 C1108 1.383 . S
C1107 H1115 0.929 . S
C1108 C1107 1.383 . S
C1108 C1109 1.377 . S
C1109 H1093 0.930 . S
C1109 C1108 1.377 . S
C1109 C1110 1.379 . S
C1110 H1094 0.931 . S
C1110 C1104 1.383 . S
C1110 C1109 1.379 . S
H1111 C1105 0.959 . S
H1112 C1105 0.961 . S
H1113 C1105 0.960 . S
H1114 C1106 0.930 . S
H1115 C1107 0.929 . S
H1116 C1124 0.929 . S
H1117 C1126 0.930 . S
H1118 C1128 0.930 . S
H1119 C1131 0.929 . S
H1120 C1134 0.930 . S
H1121 C1136 0.960 . S
H1122 C1136 0.960 . S
H1123 C1136 0.960 . S
C1124 H1116 0.929 . S
C1124 C1125 1.377 . S
C1124 C1126 1.384 . S
C1125 C1124 1.377 . S
C1125 C1131 1.390 . S
C1126 H1117 0.930 . S
C1126 C1124 1.384 . S
C1126 C1127 1.372 . S
C1127 C1126 1.372 . S
C1127 C1128 1.400 . S
C1127 C1132 1.490 . S
C1128 H1118 0.930 . S
C1128 C1127 1.400 . S
C1128 C1131 1.386 . S
H1129 C1145 0.930 . S
H1130 C1146 0.931 . S
C1131 H1119 0.929 . S
C1131 C1125 1.390 . S
C1131 C1128 1.386 . S
C1132 C1127 1.490 . S
C1132 C1134 1.395 . S
C1132 C1135 1.403 . S
H1133 C1139 0.930 . S
C1134 H1120 0.930 . S
C1134 C1132 1.395 . S
C1134 C1137 1.403 . S
C1135 C1132 1.403 . S
C1135 C1136 1.524 . S
C1135 C1139 1.400 . S
C1136 H1121 0.960 . S
C1136 H1122 0.960 . S
C1136 H1123 0.960 . S
C1136 C1135 1.524 . S
C1137 C1134 1.403 . S
C1137 C1138 1.392 . S
C1137 C1141 1.495 . S
C1138 C1137 1.392 . S
C1138 C1139 1.385 . S
C1138 C1140 1.478 . S
C1139 H1133 0.930 . S
C1139 C1135 1.400 . S
C1139 C1138 1.385 . S
C1140 C1138 1.478 . S
C1140 C1142 1.381 . S
C1140 C1146 1.383 . S
C1141 C1137 1.495 . S
C1141 H1147 0.959 . S
C1141 H1148 0.961 . S
C1141 H1149 0.960 . S
C1142 C1140 1.381 . S
C1142 C1143 1.394 . S
C1142 H1150 0.930 . S
C1143 C1142 1.394 . S
C1143 C1144 1.383 . S
C1143 H1151 0.929 . S
C1144 C1143 1.383 . S
C1144 C1145 1.377 . S
C1145 H1129 0.930 . S
C1145 C1144 1.377 . S
C1145 C1146 1.379 . S
C1146 H1130 0.931 . S
C1146 C1140 1.383 . S
C1146 C1145 1.379 . S
H1147 C1141 0.959 . S
H1148 C1141 0.961 . S
H1149 C1141 0.960 . S
H1150 C1142 0.930 . S
H1151 C1143 0.929 . S
H1152 C1160 0.929 . S
H1153 C1162 0.930 . S
H1154 C1164 0.930 . S
H1155 C1167 0.929 . S
H1156 C1170 0.930 . S
H1157 C1172 0.960 . S
H1158 C1172 0.960 . S
H1159 C1172 0.960 . S
C1160 H1152 0.929 . S
C1160 C1161 1.377 1_565 S
C1160 C1162 1.384 . S
C1161 C1160 1.377 1_545 S
C1161 C1167 1.390 . S
C1162 H1153 0.930 . S
C1162 C1160 1.384 . S
C1162 C1163 1.370 . S
C1163 C1162 1.370 . S
C1163 C1164 1.401 1_565 S
C1163 C1168 1.490 . S
C1164 H1154 0.930 . S
C1164 C1163 1.401 1_545 S
C1164 C1167 1.386 . S
H1165 C1181 0.930 . S
H1166 C1182 0.931 . S
C1167 H1155 0.929 . S
C1167 C1161 1.390 . S
C1167 C1164 1.386 . S
C1168 C1163 1.490 . S
C1168 C1170 1.384 1_565 S
C1168 C1171 1.414 . S
H1169 C1175 0.930 . S
C1170 H1156 0.930 . S
C1170 C1168 1.384 1_545 S
C1170 C1173 1.403 . S
C1171 C1168 1.414 . S
C1171 C1172 1.524 . S
C1171 C1175 1.400 . S
C1172 H1157 0.960 . S
C1172 H1158 0.960 . S
C1172 H1159 0.960 . S
C1172 C1171 1.524 . S
C1173 C1170 1.403 . S
C1173 C1174 1.392 . S
C1173 C1177 1.495 . S
C1174 C1173 1.392 . S
C1174 C1175 1.385 1_545 S
C1174 C1176 1.477 1_545 S
C1175 H1169 0.930 . S
C1175 C1171 1.400 . S
C1175 C1174 1.385 1_565 S
C1176 C1174 1.477 1_565 S
C1176 C1178 1.384 . S
C1176 C1182 1.380 1_565 S
C1177 C1173 1.495 . S
C1177 H1183 0.959 . S
C1177 H1184 0.961 . S
C1177 H1185 0.960 . S
C1178 C1176 1.384 . S
C1178 C1179 1.394 . S
C1178 H1186 0.930 . S
C1179 C1178 1.394 . S
C1179 C1180 1.383 . S
C1179 H1187 0.929 . S
C1180 C1179 1.383 . S
C1180 C1181 1.377 1_565 S
C1181 H1165 0.930 . S
C1181 C1180 1.377 1_545 S
C1181 C1182 1.379 . S
C1182 H1166 0.931 . S
C1182 C1176 1.380 1_545 S
C1182 C1181 1.379 . S
H1183 C1177 0.959 . S
H1184 C1177 0.961 . S
H1185 C1177 0.960 . S
H1186 C1178 0.930 . S
H1187 C1179 0.929 . S
H1188 C1196 0.929 . S
H1189 C1198 0.930 . S
H1190 C1200 0.930 . S
H1191 C1203 0.929 . S
H1192 C1206 0.930 . S
H1193 C1208 0.960 . S
H1194 C1208 0.960 . S
H1195 C1208 0.960 . S
C1196 H1188 0.929 . S
C1196 C1197 1.377 . S
C1196 C1198 1.384 . S
C1197 C1196 1.377 . S
C1197 C1203 1.390 . S
C1198 H1189 0.930 . S
C1198 C1196 1.384 . S
C1198 C1199 1.372 . S
C1199 C1198 1.372 . S
C1199 C1200 1.400 . S
C1199 C1204 1.490 . S
C1200 H1190 0.930 . S
C1200 C1199 1.400 . S
C1200 C1203 1.386 . S
H1201 C1217 0.930 . S
H1202 C1218 0.931 . S
C1203 H1191 0.929 . S
C1203 C1197 1.390 . S
C1203 C1200 1.386 . S
C1204 C1199 1.490 . S
C1204 C1206 1.395 . S
C1204 C1207 1.403 . S
H1205 C1211 0.930 . S
C1206 H1192 0.930 . S
C1206 C1204 1.395 . S
C1206 C1209 1.403 . S
C1207 C1204 1.403 . S
C1207 C1208 1.524 . S
C1207 C1211 1.400 . S
C1208 H1193 0.960 . S
C1208 H1194 0.960 . S
C1208 H1195 0.960 . S
C1208 C1207 1.524 . S
C1209 C1206 1.403 . S
C1209 C1210 1.392 . S
C1209 C1213 1.495 . S
C1210 C1209 1.392 . S
C1210 C1211 1.385 . S
C1210 C1212 1.478 . S
C1211 H1205 0.930 . S
C1211 C1207 1.400 . S
C1211 C1210 1.385 . S
C1212 C1210 1.478 . S
C1212 C1214 1.381 . S
C1212 C1218 1.383 . S
C1213 C1209 1.495 . S
C1213 H1219 0.959 . S
C1213 H1220 0.961 . S
C1213 H1221 0.960 . S
C1214 C1212 1.381 . S
C1214 C1215 1.394 . S
C1214 H1222 0.930 . S
C1215 C1214 1.394 . S
C1215 C1216 1.383 . S
C1215 H1223 0.929 . S
C1216 C1215 1.383 . S
C1216 C1217 1.377 . S
C1217 H1201 0.930 . S
C1217 C1216 1.377 . S
C1217 C1218 1.379 . S
C1218 H1202 0.931 . S
C1218 C1212 1.383 . S
C1218 C1217 1.379 . S
H1219 C1213 0.959 . S
H1220 C1213 0.961 . S
H1221 C1213 0.960 . S
H1222 C1214 0.930 . S
H1223 C1215 0.929 . S
H1224 C1232 0.929 . S
H1225 C1234 0.930 . S
H1226 C1236 0.930 . S
H1227 C1239 0.929 . S
H1228 C1242 0.930 . S
H1229 C1244 0.960 . S
H1230 C1244 0.960 . S
H1231 C1244 0.960 1_554 S
C1232 H1224 0.929 . S
C1232 C1233 1.377 1_556 S
C1232 C1234 1.384 . S
C1233 C1232 1.377 1_554 S
C1233 C1239 1.390 . S
C1234 H1225 0.930 . S
C1234 C1232 1.384 . S
C1234 C1235 1.353 1_556 S
C1235 C1234 1.353 1_554 S
C1235 C1236 1.420 . S
C1235 C1240 1.489 1_554 S
C1236 H1226 0.930 . S
C1236 C1235 1.420 . S
C1236 C1239 1.386 . S
H1237 C1253 0.930 . S
H1238 C1254 0.931 . S
C1239 H1227 0.929 . S
C1239 C1233 1.390 . S
C1239 C1236 1.386 . S
C1240 C1235 1.489 1_556 S
C1240 C1242 1.394 . S
C1240 C1243 1.403 . S
H1241 C1247 0.930 . S
C1242 H1228 0.930 . S
C1242 C1240 1.394 . S
C1242 C1245 1.403 . S
C1243 C1240 1.403 . S
C1243 C1244 1.525 . S
C1243 C1247 1.400 . S
C1244 H1229 0.960 . S
C1244 H1230 0.960 . S
C1244 H1231 0.960 1_556 S
C1244 C1243 1.525 . S
C1245 C1242 1.403 . S
C1245 C1246 1.392 . S
C1245 C1249 1.495 . S
C1246 C1245 1.392 . S
C1246 C1247 1.385 . S
C1246 C1248 1.478 . S
C1247 H1241 0.930 . S
C1247 C1243 1.400 . S
C1247 C1246 1.385 . S
C1248 C1246 1.478 . S
C1248 C1250 1.426 . S
C1248 C1254 1.340 1_556 S
C1249 C1245 1.495 . S
C1249 H1255 0.959 . S
C1249 H1256 0.916 1_556 S
C1249 H1257 1.006 . S
C1250 C1248 1.426 . S
C1250 C1251 1.394 . S
C1250 H1258 0.930 . S
C1251 C1250 1.394 . S
C1251 C1252 1.383 . S
C1251 H1259 0.929 . S
C1252 C1251 1.383 . S
C1252 C1253 1.377 1_556 S
C1253 H1237 0.930 . S
C1253 C1252 1.377 1_554 S
C1253 C1254 1.379 . S
C1254 H1238 0.931 . S
C1254 C1248 1.340 1_554 S
C1254 C1253 1.379 . S
H1255 C1249 0.959 . S
H1256 C1249 0.916 1_554 S
H1257 C1249 1.006 . S
H1258 C1250 0.930 . S
H1259 C1251 0.929 . S
H1260 C1268 0.929 1_556 S
H1261 C1270 0.930 1_556 S
H1262 C1272 0.930 . S
H1263 C1275 0.929 . S
H1264 C1278 0.930 . S
H1265 C1280 0.960 . S
H1266 C1280 0.960 . S
H1267 C1280 0.960 1_554 S
C1268 H1260 0.929 1_554 S
C1268 C1269 1.377 . S
C1268 C1270 1.384 . S
C1269 C1268 1.377 . S
C1269 C1275 1.390 . S
C1270 H1261 0.930 1_554 S
C1270 C1268 1.384 . S
C1270 C1271 1.372 . S
C1271 C1270 1.372 . S
C1271 C1272 1.400 . S
C1271 C1276 1.490 . S
C1272 H1262 0.930 . S
C1272 C1271 1.400 . S
C1272 C1275 1.386 . S
H1273 C1289 0.930 . S
H1274 C1290 0.931 . S
C1275 H1263 0.929 . S
C1275 C1269 1.390 . S
C1275 C1272 1.386 . S
C1276 C1271 1.490 . S
C1276 C1278 1.395 . S
C1276 C1279 1.403 . S
H1277 C1283 0.930 . S
C1278 H1264 0.930 . S
C1278 C1276 1.395 . S
C1278 C1281 1.403 . S
C1279 C1276 1.403 . S
C1279 C1280 1.524 1_554 S
C1279 C1283 1.400 . S
C1280 H1265 0.960 . S
C1280 H1266 0.960 . S
C1280 H1267 0.960 1_556 S
C1280 C1279 1.524 1_556 S
C1281 C1278 1.403 . S
C1281 C1282 1.392 . S
C1281 C1285 1.495 . S
C1282 C1281 1.392 . S
C1282 C1283 1.385 . S
C1282 C1284 1.478 . S
C1283 H1277 0.930 . S
C1283 C1279 1.400 . S
C1283 C1282 1.385 . S
C1284 C1282 1.478 . S
C1284 C1286 1.381 . S
C1284 C1290 1.383 . S
C1285 C1281 1.495 . S
C1285 H1291 0.959 . S
C1285 H1292 0.961 . S
C1285 H1293 0.960 . S
C1286 C1284 1.381 . S
C1286 C1287 1.394 . S
C1286 H1294 0.908 1_554 S
C1287 C1286 1.394 . S
C1287 C1288 1.383 . S
C1287 H1295 0.920 1_554 S
C1288 C1287 1.383 . S
C1288 C1289 1.377 . S
C1289 H1273 0.930 . S
C1289 C1288 1.377 . S
C1289 C1290 1.379 . S
C1290 H1274 0.931 . S
C1290 C1284 1.383 . S
C1290 C1289 1.379 . S
H1291 C1285 0.959 . S
H1292 C1285 0.961 . S
H1293 C1285 0.960 . S
H1294 C1286 0.908 1_556 S
H1295 C1287 0.920 1_556 S
H1296 C1304 0.929 . S
H1297 C1306 0.930 . S
H1298 C1308 0.930 . S
H1299 C1311 0.929 . S
H1300 C1314 0.930 . S
H1301 C1316 0.960 . S
H1302 C1316 0.960 . S
H1303 C1316 0.960 . S
C1304 H1296 0.929 . S
C1304 C1305 1.377 . S
C1304 C1306 1.384 . S
C1305 C1304 1.377 . S
C1305 C1311 1.390 . S
C1306 H1297 0.930 . S
C1306 C1304 1.384 . S
C1306 C1307 1.372 . S
C1307 C1306 1.372 . S
C1307 C1308 1.400 . S
C1307 C1312 1.490 . S
C1308 H1298 0.930 . S
C1308 C1307 1.400 . S
C1308 C1311 1.386 . S
H1309 C1325 0.930 . S
H1310 C1326 0.931 . S
C1311 H1299 0.929 . S
C1311 C1305 1.390 . S
C1311 C1308 1.386 . S
C1312 C1307 1.490 . S
C1312 C1314 1.395 . S
C1312 C1315 1.403 . S
H1313 C1319 0.930 . S
C1314 H1300 0.930 . S
C1314 C1312 1.395 . S
C1314 C1317 1.403 . S
C1315 C1312 1.403 . S
C1315 C1316 1.524 . S
C1315 C1319 1.400 . S
C1316 H1301 0.960 . S
C1316 H1302 0.960 . S
C1316 H1303 0.960 . S
C1316 C1315 1.524 . S
C1317 C1314 1.403 . S
C1317 C1318 1.392 . S
C1317 C1321 1.495 . S
C1318 C1317 1.392 . S
C1318 C1319 1.385 . S
C1318 C1320 1.478 . S
C1319 H1313 0.930 . S
C1319 C1315 1.400 . S
C1319 C1318 1.385 . S
C1320 C1318 1.478 . S
C1320 C1322 1.381 . S
C1320 C1326 1.383 . S
C1321 C1317 1.495 . S
C1321 H1327 0.959 . S
C1321 H1328 0.961 . S
C1321 H1329 0.960 . S
C1322 C1320 1.381 . S
C1322 C1323 1.394 . S
C1322 H1330 0.930 . S
C1323 C1322 1.394 . S
C1323 C1324 1.383 . S
C1323 H1331 0.929 . S
C1324 C1323 1.383 . S
C1324 C1325 1.377 . S
C1325 H1309 0.930 . S
C1325 C1324 1.377 . S
C1325 C1326 1.379 . S
C1326 H1310 0.931 . S
C1326 C1320 1.383 . S
C1326 C1325 1.379 . S
H1327 C1321 0.959 . S
H1328 C1321 0.961 . S
H1329 C1321 0.960 . S
H1330 C1322 0.930 . S
H1331 C1323 0.929 . S
H1332 C1340 0.929 . S
H1333 C1342 0.930 . S
H1334 C1344 0.930 . S
H1335 C1347 0.929 . S
H1336 C1350 0.930 . S
H1337 C1352 0.960 . S
H1338 C1352 0.960 . S
H1339 C1352 0.960 . S
C1340 H1332 0.929 . S
C1340 C1341 1.377 . S
C1340 C1342 1.384 . S
C1341 C1340 1.377 . S
C1341 C1347 1.390 . S
C1342 H1333 0.930 . S
C1342 C1340 1.384 . S
C1342 C1343 1.372 . S
C1343 C1342 1.372 . S
C1343 C1344 1.400 . S
C1343 C1348 1.490 . S
C1344 H1334 0.930 . S
C1344 C1343 1.400 . S
C1344 C1347 1.386 . S
H1345 C1361 0.930 . S
H1346 C1362 0.931 . S
C1347 H1335 0.929 . S
C1347 C1341 1.390 . S
C1347 C1344 1.386 . S
C1348 C1343 1.490 . S
C1348 C1350 1.395 . S
C1348 C1351 1.403 . S
H1349 C1355 0.930 . S
C1350 H1336 0.930 . S
C1350 C1348 1.395 . S
C1350 C1353 1.403 . S
C1351 C1348 1.403 . S
C1351 C1352 1.524 . S
C1351 C1355 1.400 . S
C1352 H1337 0.960 . S
C1352 H1338 0.960 . S
C1352 H1339 0.960 . S
C1352 C1351 1.524 . S
C1353 C1350 1.403 . S
C1353 C1354 1.392 . S
C1353 C1357 1.495 . S
C1354 C1353 1.392 . S
C1354 C1355 1.385 . S
C1354 C1356 1.478 . S
C1355 H1349 0.930 . S
C1355 C1351 1.400 . S
C1355 C1354 1.385 . S
C1356 C1354 1.478 . S
C1356 C1358 1.381 . S
C1356 C1362 1.383 . S
C1357 C1353 1.495 . S
C1357 H1363 0.959 . S
C1357 H1364 0.961 . S
C1357 H1365 0.960 . S
C1358 C1356 1.381 . S
C1358 C1359 1.394 . S
C1358 H1366 0.930 . S
C1359 C1358 1.394 . S
C1359 C1360 1.383 . S
C1359 H1367 0.929 . S
C1360 C1359 1.383 . S
C1360 C1361 1.377 . S
C1361 H1345 0.930 . S
C1361 C1360 1.377 . S
C1361 C1362 1.379 . S
C1362 H1346 0.931 . S
C1362 C1356 1.383 . S
C1362 C1361 1.379 . S
H1363 C1357 0.959 . S
H1364 C1357 0.961 . S
H1365 C1357 0.960 . S
H1366 C1358 0.930 . S
H1367 C1359 0.929 . S
H1368 C1376 0.929 . S
H1369 C1378 0.930 . S
H1370 C1380 0.930 . S
H1371 C1383 0.929 . S
H1372 C1386 0.930 . S
H1373 C1388 0.960 . S
H1374 C1388 0.960 . S
H1375 C1388 0.960 . S
C1376 H1368 0.929 . S
C1376 C1377 1.377 . S
C1376 C1378 1.384 . S
C1377 C1376 1.377 . S
C1377 C1383 1.390 . S
C1378 H1369 0.930 . S
C1378 C1376 1.384 . S
C1378 C1379 1.372 . S
C1379 C1378 1.372 . S
C1379 C1380 1.400 . S
C1379 C1384 1.490 . S
C1380 H1370 0.930 . S
C1380 C1379 1.400 . S
C1380 C1383 1.386 . S
H1381 C1397 0.930 . S
H1382 C1398 0.931 . S
C1383 H1371 0.929 . S
C1383 C1377 1.390 . S
C1383 C1380 1.386 . S
C1384 C1379 1.490 . S
C1384 C1386 1.395 . S
C1384 C1387 1.403 . S
H1385 C1391 0.930 . S
C1386 H1372 0.930 . S
C1386 C1384 1.395 . S
C1386 C1389 1.403 . S
C1387 C1384 1.403 . S
C1387 C1388 1.524 . S
C1387 C1391 1.400 . S
C1388 H1373 0.960 . S
C1388 H1374 0.960 . S
C1388 H1375 0.960 . S
C1388 C1387 1.524 . S
C1389 C1386 1.403 . S
C1389 C1390 1.392 . S
C1389 C1393 1.495 . S
C1390 C1389 1.392 . S
C1390 C1391 1.385 . S
C1390 C1392 1.478 . S
C1391 H1385 0.930 . S
C1391 C1387 1.400 . S
C1391 C1390 1.385 . S
C1392 C1390 1.478 . S
C1392 C1394 1.381 . S
C1392 C1398 1.383 . S
C1393 C1389 1.495 . S
C1393 H1399 0.959 . S
C1393 H1400 0.961 . S
C1393 H1401 0.960 . S
C1394 C1392 1.381 . S
C1394 C1395 1.394 . S
C1394 H1402 0.930 . S
C1395 C1394 1.394 . S
C1395 C1396 1.383 . S
C1395 H1403 0.929 . S
C1396 C1395 1.383 . S
C1396 C1397 1.377 . S
C1397 H1381 0.930 . S
C1397 C1396 1.377 . S
C1397 C1398 1.379 . S
C1398 H1382 0.931 . S
C1398 C1392 1.383 . S
C1398 C1397 1.379 . S
H1399 C1393 0.959 . S
H1400 C1393 0.961 . S
H1401 C1393 0.960 . S
H1402 C1394 0.930 . S
H1403 C1395 0.929 . S
H1404 C1412 0.929 . S
H1405 C1414 0.930 . S
H1406 C1416 0.930 . S
H1407 C1419 0.929 . S
H1408 C1422 0.930 . S
H1409 C1424 0.960 . S
H1410 C1424 0.960 . S
H1411 C1424 0.960 . S
C1412 H1404 0.929 . S
C1412 C1413 1.377 . S
C1412 C1414 1.384 . S
C1413 C1412 1.377 . S
C1413 C1419 1.390 . S
C1414 H1405 0.930 . S
C1414 C1412 1.384 . S
C1414 C1415 1.372 . S
C1415 C1414 1.372 . S
C1415 C1416 1.400 . S
C1415 C1420 1.490 . S
C1416 H1406 0.930 . S
C1416 C1415 1.400 . S
C1416 C1419 1.386 . S
H1417 C1433 0.930 . S
H1418 C1434 0.931 . S
C1419 H1407 0.929 . S
C1419 C1413 1.390 . S
C1419 C1416 1.386 . S
C1420 C1415 1.490 . S
C1420 C1422 1.395 . S
C1420 C1423 1.403 . S
H1421 C1427 0.930 . S
C1422 H1408 0.930 . S
C1422 C1420 1.395 . S
C1422 C1425 1.403 . S
C1423 C1420 1.403 . S
C1423 C1424 1.524 . S
C1423 C1427 1.400 . S
C1424 H1409 0.960 . S
C1424 H1410 0.960 . S
C1424 H1411 0.960 . S
C1424 C1423 1.524 . S
C1425 C1422 1.403 . S
C1425 C1426 1.392 . S
C1425 C1429 1.495 . S
C1426 C1425 1.392 . S
C1426 C1427 1.385 . S
C1426 C1428 1.478 . S
C1427 H1421 0.930 . S
C1427 C1423 1.400 . S
C1427 C1426 1.385 . S
C1428 C1426 1.478 . S
C1428 C1430 1.381 . S
C1428 C1434 1.383 . S
C1429 C1425 1.495 . S
C1429 H1435 0.959 . S
C1429 H1436 0.961 . S
C1429 H1437 0.960 . S
C1430 C1428 1.381 . S
C1430 C1431 1.394 . S
C1430 H1438 0.930 . S
C1431 C1430 1.394 . S
C1431 C1432 1.383 . S
C1431 H1439 0.929 . S
C1432 C1431 1.383 . S
C1432 C1433 1.377 . S
C1433 H1417 0.930 . S
C1433 C1432 1.377 . S
C1433 C1434 1.379 . S
C1434 H1418 0.931 . S
C1434 C1428 1.383 . S
C1434 C1433 1.379 . S
H1435 C1429 0.959 . S
H1436 C1429 0.961 . S
H1437 C1429 0.960 . S
H1438 C1430 0.930 . S
H1439 C1431 0.929 . S
H1440 C1448 0.929 . S
H1441 C1450 0.930 . S
H1442 C1452 0.930 . S
H1443 C1455 0.929 . S
H1444 C1458 0.930 . S
H1445 C1460 0.960 . S
H1446 C1460 0.960 . S
H1447 C1460 0.960 . S
C1448 H1440 0.929 . S
C1448 C1449 1.377 . S
C1448 C1450 1.384 . S
C1449 C1448 1.377 . S
C1449 C1455 1.390 . S
C1450 H1441 0.930 . S
C1450 C1448 1.384 . S
C1450 C1451 1.372 . S
C1451 C1450 1.372 . S
C1451 C1452 1.400 . S
C1451 C1456 1.490 . S
C1452 H1442 0.930 . S
C1452 C1451 1.400 . S
C1452 C1455 1.386 . S
H1453 C1469 0.930 . S
H1454 C1470 0.931 . S
C1455 H1443 0.929 . S
C1455 C1449 1.390 . S
C1455 C1452 1.386 . S
C1456 C1451 1.490 . S
C1456 C1458 1.395 . S
C1456 C1459 1.403 . S
H1457 C1463 0.930 . S
C1458 H1444 0.930 . S
C1458 C1456 1.395 . S
C1458 C1461 1.403 . S
C1459 C1456 1.403 . S
C1459 C1460 1.524 . S
C1459 C1463 1.400 . S
C1460 H1445 0.960 . S
C1460 H1446 0.960 . S
C1460 H1447 0.960 . S
C1460 C1459 1.524 . S
C1461 C1458 1.403 . S
C1461 C1462 1.392 . S
C1461 C1465 1.495 . S
C1462 C1461 1.392 . S
C1462 C1463 1.385 . S
C1462 C1464 1.478 . S
C1463 H1457 0.930 . S
C1463 C1459 1.400 . S
C1463 C1462 1.385 . S
C1464 C1462 1.478 . S
C1464 C1466 1.381 . S
C1464 C1470 1.383 . S
C1465 C1461 1.495 . S
C1465 H1471 0.959 . S
C1465 H1472 0.961 . S
C1465 H1473 0.960 . S
C1466 C1464 1.381 . S
C1466 C1467 1.394 . S
C1466 H1474 0.930 . S
C1467 C1466 1.394 . S
C1467 C1468 1.383 . S
C1467 H1475 0.929 . S
C1468 C1467 1.383 . S
C1468 C1469 1.377 . S
C1469 H1453 0.930 . S
C1469 C1468 1.377 . S
C1469 C1470 1.379 . S
C1470 H1454 0.931 . S
C1470 C1464 1.383 . S
C1470 C1469 1.379 . S
H1471 C1465 0.959 . S
H1472 C1465 0.961 . S
H1473 C1465 0.960 . S
H1474 C1466 0.930 . S
H1475 C1467 0.929 . S
H1476 C1484 0.929 . S
H1477 C1486 0.930 . S
H1478 C1488 0.930 . S
H1479 C1491 0.929 . S
H1480 C1494 0.930 . S
H1481 C1496 0.960 . S
H1482 C1496 0.960 . S
H1483 C1496 0.960 . S
C1484 H1476 0.929 . S
C1484 C1485 1.377 . S
C1484 C1486 1.384 . S
C1485 C1484 1.377 . S
C1485 C1491 1.390 . S
C1486 H1477 0.930 . S
C1486 C1484 1.384 . S
C1486 C1487 1.372 . S
C1487 C1486 1.372 . S
C1487 C1488 1.400 . S
C1487 C1492 1.490 . S
C1488 H1478 0.930 . S
C1488 C1487 1.400 . S
C1488 C1491 1.386 . S
H1489 C1505 0.930 . S
H1490 C1506 0.931 . S
C1491 H1479 0.929 . S
C1491 C1485 1.390 . S
C1491 C1488 1.386 . S
C1492 C1487 1.490 . S
C1492 C1494 1.395 . S
C1492 C1495 1.403 . S
H1493 C1499 0.930 . S
C1494 H1480 0.930 . S
C1494 C1492 1.395 . S
C1494 C1497 1.403 . S
C1495 C1492 1.403 . S
C1495 C1496 1.524 . S
C1495 C1499 1.400 . S
C1496 H1481 0.960 . S
C1496 H1482 0.960 . S
C1496 H1483 0.960 . S
C1496 C1495 1.524 . S
C1497 C1494 1.403 . S
C1497 C1498 1.392 . S
C1497 C1501 1.495 . S
C1498 C1497 1.392 . S
C1498 C1499 1.385 . S
C1498 C1500 1.478 . S
C1499 H1493 0.930 . S
C1499 C1495 1.400 . S
C1499 C1498 1.385 . S
C1500 C1498 1.478 . S
C1500 C1502 1.381 . S
C1500 C1506 1.383 . S
C1501 C1497 1.495 . S
C1501 H1507 0.959 . S
C1501 H1508 0.961 . S
C1501 H1509 0.960 . S
C1502 C1500 1.381 . S
C1502 C1503 1.394 . S
C1502 H1510 0.930 . S
C1503 C1502 1.394 . S
C1503 C1504 1.383 . S
C1503 H1511 0.929 . S
C1504 C1503 1.383 . S
C1504 C1505 1.377 . S
C1505 H1489 0.930 . S
C1505 C1504 1.377 . S
C1505 C1506 1.379 . S
C1506 H1490 0.931 . S
C1506 C1500 1.383 . S
C1506 C1505 1.379 . S
H1507 C1501 0.959 . S
H1508 C1501 0.961 . S
H1509 C1501 0.960 . S
H1510 C1502 0.930 . S
H1511 C1503 0.929 . S
H1512 C1520 0.929 . S
H1513 C1522 0.923 1_655 S
H1514 C1524 0.930 . S
H1515 C1527 0.929 . S
H1516 C1530 0.930 . S
H1517 C1532 0.960 . S
H1518 C1532 0.960 . S
H1519 C1532 0.960 . S
C1520 H1512 0.929 . S
C1520 C1521 1.377 1_655 S
C1520 C1522 1.383 1_655 S
C1521 C1520 1.377 1_455 S
C1521 C1527 1.390 . S
C1522 H1513 0.923 1_455 S
C1522 C1520 1.383 1_455 S
C1522 C1523 1.380 . S
C1523 C1522 1.380 . S
C1523 C1524 1.400 . S
C1523 C1528 1.490 . S
C1524 H1514 0.930 . S
C1524 C1523 1.400 . S
C1524 C1527 1.386 . S
H1525 C1541 0.935 1_554 S
H1526 C1542 0.931 . S
C1527 H1515 0.929 . S
C1527 C1521 1.390 . S
C1527 C1524 1.386 . S
C1528 C1523 1.490 . S
C1528 C1530 1.395 1_455 S
C1528 C1531 1.403 . S
H1529 C1535 0.930 . S
C1530 H1516 0.930 . S
C1530 C1528 1.395 1_655 S
C1530 C1533 1.403 . S
C1531 C1528 1.403 . S
C1531 C1532 1.524 . S
C1531 C1535 1.400 . S
C1532 H1517 0.960 . S
C1532 H1518 0.960 . S
C1532 H1519 0.960 . S
C1532 C1531 1.524 . S
C1533 C1530 1.403 . S
C1533 C1534 1.392 1_655 S
C1533 C1537 1.495 . S
C1534 C1533 1.392 1_455 S
C1534 C1535 1.385 . S
C1534 C1536 1.478 . S
C1535 H1529 0.930 . S
C1535 C1531 1.400 . S
C1535 C1534 1.385 . S
C1536 C1534 1.478 . S
C1536 C1538 1.381 . S
C1536 C1542 1.383 . S
C1537 C1533 1.495 . S
C1537 H1543 0.959 . S
C1537 H1544 0.961 . S
C1537 H1545 0.960 . S
C1538 C1536 1.381 . S
C1538 C1539 1.394 . S
C1538 H1546 0.930 . S
C1539 C1538 1.394 . S
C1539 C1540 1.383 . S
C1539 H1547 0.929 . S
C1540 C1539 1.383 . S
C1540 C1541 1.377 . S
C1541 H1525 0.935 1_556 S
C1541 C1540 1.377 . S
C1541 C1542 1.379 . S
C1542 H1526 0.931 . S
C1542 C1536 1.383 . S
C1542 C1541 1.379 . S
H1543 C1537 0.959 . S
H1544 C1537 0.961 . S
H1545 C1537 0.960 . S
H1546 C1538 0.930 . S
H1547 C1539 0.929 . S
H1548 C1556 0.929 . S
H1549 C1558 0.930 . S
H1550 C1560 0.930 . S
H1551 C1563 0.929 . S
H1552 C1566 0.930 . S
H1553 C1568 0.960 . S
H1554 C1568 0.960 . S
H1555 C1568 0.960 . S
C1556 H1548 0.929 . S
C1556 C1557 1.377 . S
C1556 C1558 1.384 . S
C1557 C1556 1.377 . S
C1557 C1563 1.390 . S
C1558 H1549 0.930 . S
C1558 C1556 1.384 . S
C1558 C1559 1.372 . S
C1559 C1558 1.372 . S
C1559 C1560 1.400 . S
C1559 C1564 1.490 . S
C1560 H1550 0.930 . S
C1560 C1559 1.400 . S
C1560 C1563 1.386 . S
H1561 C1577 0.930 . S
H1562 C1578 0.931 . S
C1563 H1551 0.929 . S
C1563 C1557 1.390 . S
C1563 C1560 1.386 . S
C1564 C1559 1.490 . S
C1564 C1566 1.395 . S
C1564 C1567 1.403 . S
H1565 C1571 0.930 . S
C1566 H1552 0.930 . S
C1566 C1564 1.395 . S
C1566 C1569 1.403 . S
C1567 C1564 1.403 . S
C1567 C1568 1.524 . S
C1567 C1571 1.400 . S
C1568 H1553 0.960 . S
C1568 H1554 0.960 . S
C1568 H1555 0.960 . S
C1568 C1567 1.524 . S
C1569 C1566 1.403 . S
C1569 C1570 1.392 . S
C1569 C1573 1.495 . S
C1570 C1569 1.392 . S
C1570 C1571 1.385 . S
C1570 C1572 1.478 . S
C1571 H1565 0.930 . S
C1571 C1567 1.400 . S
C1571 C1570 1.385 . S
C1572 C1570 1.478 . S
C1572 C1574 1.381 . S
C1572 C1578 1.383 . S
C1573 C1569 1.495 . S
C1573 H1579 0.959 . S
C1573 H1580 0.961 . S
C1573 H1581 0.960 . S
C1574 C1572 1.381 . S
C1574 C1575 1.394 . S
C1574 H1582 0.930 . S
C1575 C1574 1.394 . S
C1575 C1576 1.383 . S
C1575 H1583 0.929 . S
C1576 C1575 1.383 . S
C1576 C1577 1.377 . S
C1577 H1561 0.930 . S
C1577 C1576 1.377 . S
C1577 C1578 1.379 . S
C1578 H1562 0.931 . S
C1578 C1572 1.383 . S
C1578 C1577 1.379 . S
H1579 C1573 0.959 . S
H1580 C1573 0.961 . S
H1581 C1573 0.960 . S
H1582 C1574 0.930 . S
H1583 C1575 0.929 . S
H1584 C1592 0.929 . S
H1585 C1594 0.930 . S
H1586 C1596 0.930 . S
H1587 C1599 0.929 . S
H1588 C1602 0.930 . S
H1589 C1604 0.960 . S
H1590 C1604 0.960 . S
H1591 C1604 0.960 . S
C1592 H1584 0.929 . S
C1592 C1593 1.377 . S
C1592 C1594 1.384 . S
C1593 C1592 1.377 . S
C1593 C1599 1.390 . S
C1594 H1585 0.930 . S
C1594 C1592 1.384 . S
C1594 C1595 1.372 . S
C1595 C1594 1.372 . S
C1595 C1596 1.400 . S
C1595 C1600 1.490 . S
C1596 H1586 0.930 . S
C1596 C1595 1.400 . S
C1596 C1599 1.386 . S
H1597 C1613 0.930 . S
H1598 C1614 0.931 . S
C1599 H1587 0.929 . S
C1599 C1593 1.390 . S
C1599 C1596 1.386 . S
C1600 C1595 1.490 . S
C1600 C1602 1.395 . S
C1600 C1603 1.403 . S
H1601 C1607 0.930 . S
C1602 H1588 0.930 . S
C1602 C1600 1.395 . S
C1602 C1605 1.403 . S
C1603 C1600 1.403 . S
C1603 C1604 1.524 . S
C1603 C1607 1.400 . S
C1604 H1589 0.960 . S
C1604 H1590 0.960 . S
C1604 H1591 0.960 . S
C1604 C1603 1.524 . S
C1605 C1602 1.403 . S
C1605 C1606 1.392 . S
C1605 C1609 1.495 . S
C1606 C1605 1.392 . S
C1606 C1607 1.385 . S
C1606 C1608 1.478 . S
C1607 H1601 0.930 . S
C1607 C1603 1.400 . S
C1607 C1606 1.385 . S
C1608 C1606 1.478 . S
C1608 C1610 1.381 . S
C1608 C1614 1.383 . S
C1609 C1605 1.495 . S
C1609 H1615 0.959 . S
C1609 H1616 0.961 . S
C1609 H1617 0.960 . S
C1610 C1608 1.381 . S
C1610 C1611 1.394 . S
C1610 H1618 0.930 . S
C1611 C1610 1.394 . S
C1611 C1612 1.383 . S
C1611 H1619 0.929 . S
C1612 C1611 1.383 . S
C1612 C1613 1.377 . S
C1613 H1597 0.930 . S
C1613 C1612 1.377 . S
C1613 C1614 1.379 . S
C1614 H1598 0.931 . S
C1614 C1608 1.383 . S
C1614 C1613 1.379 . S
H1615 C1609 0.959 . S
H1616 C1609 0.961 . S
H1617 C1609 0.960 . S
H1618 C1610 0.930 . S
H1619 C1611 0.929 . S
H1620 C1628 0.929 . S
H1621 C1630 0.930 . S
H1622 C1632 0.930 . S
H1623 C1635 0.929 . S
H1624 C1638 0.930 . S
H1625 C1640 0.960 . S
H1626 C1640 0.960 . S
H1627 C1640 0.960 . S
C1628 H1620 0.929 . S
C1628 C1629 1.377 . S
C1628 C1630 1.384 . S
C1629 C1628 1.377 . S
C1629 C1635 1.390 . S
C1630 H1621 0.930 . S
C1630 C1628 1.384 . S
C1630 C1631 1.372 . S
C1631 C1630 1.372 . S
C1631 C1632 1.400 . S
C1631 C1636 1.490 . S
C1632 H1622 0.930 . S
C1632 C1631 1.400 . S
C1632 C1635 1.386 . S
H1633 C1649 0.930 . S
H1634 C1650 0.931 . S
C1635 H1623 0.929 . S
C1635 C1629 1.390 . S
C1635 C1632 1.386 . S
C1636 C1631 1.490 . S
C1636 C1638 1.395 . S
C1636 C1639 1.403 . S
H1637 C1643 0.930 . S
C1638 H1624 0.930 . S
C1638 C1636 1.395 . S
C1638 C1641 1.403 . S
C1639 C1636 1.403 . S
C1639 C1640 1.524 . S
C1639 C1643 1.400 . S
C1640 H1625 0.960 . S
C1640 H1626 0.960 . S
C1640 H1627 0.960 . S
C1640 C1639 1.524 . S
C1641 C1638 1.403 . S
C1641 C1642 1.392 . S
C1641 C1645 1.495 . S
C1642 C1641 1.392 . S
C1642 C1643 1.385 . S
C1642 C1644 1.478 . S
C1643 H1637 0.930 . S
C1643 C1639 1.400 . S
C1643 C1642 1.385 . S
C1644 C1642 1.478 . S
C1644 C1646 1.381 . S
C1644 C1650 1.383 . S
C1645 C1641 1.495 . S
C1645 H1651 0.959 . S
C1645 H1652 0.961 . S
C1645 H1653 0.960 . S
C1646 C1644 1.381 . S
C1646 C1647 1.394 . S
C1646 H1654 0.930 . S
C1647 C1646 1.394 . S
C1647 C1648 1.383 . S
C1647 H1655 0.929 . S
C1648 C1647 1.383 . S
C1648 C1649 1.377 . S
C1649 H1633 0.930 . S
C1649 C1648 1.377 . S
C1649 C1650 1.379 . S
C1650 H1634 0.931 . S
C1650 C1644 1.383 . S
C1650 C1649 1.379 . S
H1651 C1645 0.959 . S
H1652 C1645 0.961 . S
H1653 C1645 0.960 . S
H1654 C1646 0.930 . S
H1655 C1647 0.929 . S
H1656 C1664 0.929 . S
H1657 C1666 0.930 . S
H1658 C1668 0.931 . S
H1659 C1671 0.929 . S
H1660 C1674 0.930 . S
H1661 C1676 0.960 . S
H1662 C1676 0.960 . S
H1663 C1676 0.960 . S
C1664 H1656 0.929 . S
C1664 C1665 1.377 . S
C1664 C1666 1.384 . S
C1665 C1664 1.377 . S
C1665 C1671 1.390 1_455 S
C1666 H1657 0.930 . S
C1666 C1664 1.384 . S
C1666 C1667 1.372 . S
C1667 C1666 1.372 . S
C1667 C1668 1.398 1_455 S
C1667 C1672 1.490 . S
C1668 H1658 0.931 . S
C1668 C1667 1.398 1_655 S
C1668 C1671 1.386 . S
H1669 C1685 0.925 1_655 S
H1670 C1686 0.931 1_655 S
C1671 H1659 0.929 . S
C1671 C1665 1.390 1_655 S
C1671 C1668 1.386 . S
C1672 C1667 1.490 . S
C1672 C1674 1.395 1_455 S
C1672 C1675 1.403 . S
H1673 C1679 0.930 . S
C1674 H1660 0.930 . S
C1674 C1672 1.395 1_655 S
C1674 C1677 1.403 . S
C1675 C1672 1.403 . S
C1675 C1676 1.524 . S
C1675 C1679 1.400 . S
C1676 H1661 0.960 . S
C1676 H1662 0.960 . S
C1676 H1663 0.960 . S
C1676 C1675 1.524 . S
C1677 C1674 1.403 . S
C1677 C1678 1.392 1_655 S
C1677 C1681 1.495 . S
C1678 C1677 1.392 1_455 S
C1678 C1679 1.385 . S
C1678 C1680 1.478 . S
C1679 H1673 0.930 . S
C1679 C1675 1.400 . S
C1679 C1678 1.385 . S
C1680 C1678 1.478 . S
C1680 C1682 1.381 . S
C1680 C1686 1.383 . S
C1681 C1677 1.495 . S
C1681 H1687 0.959 . S
C1681 H1688 0.961 . S
C1681 H1689 0.960 . S
C1682 C1680 1.381 . S
C1682 C1683 1.394 . S
C1682 H1690 0.930 . S
C1683 C1682 1.394 . S
C1683 C1684 1.383 . S
C1683 H1691 0.929 . S
C1684 C1683 1.383 . S
C1684 C1685 1.377 . S
C1685 H1669 0.925 1_455 S
C1685 C1684 1.377 . S
C1685 C1686 1.379 . S
C1686 H1670 0.931 1_455 S
C1686 C1680 1.383 . S
C1686 C1685 1.379 . S
H1687 C1681 0.959 . S
H1688 C1681 0.961 . S
H1689 C1681 0.960 . S
H1690 C1682 0.930 . S
H1691 C1683 0.929 . S
H1692 C1700 0.929 . S
H1693 C1702 0.930 . S
H1694 C1704 0.930 . S
H1695 C1707 0.929 . S
H1696 C1710 0.930 . S
H1697 C1712 0.960 . S
H1698 C1712 0.960 . S
H1699 C1712 0.960 . S
C1700 H1692 0.929 . S
C1700 C1701 1.377 . S
C1700 C1702 1.384 . S
C1701 C1700 1.377 . S
C1701 C1707 1.390 . S
C1702 H1693 0.930 . S
C1702 C1700 1.384 . S
C1702 C1703 1.372 . S
C1703 C1702 1.372 . S
C1703 C1704 1.400 . S
C1703 C1708 1.490 . S
C1704 H1694 0.930 . S
C1704 C1703 1.400 . S
C1704 C1707 1.386 . S
H1705 C1721 0.930 . S
H1706 C1722 0.931 . S
C1707 H1695 0.929 . S
C1707 C1701 1.390 . S
C1707 C1704 1.386 . S
C1708 C1703 1.490 . S
C1708 C1710 1.395 . S
C1708 C1711 1.403 . S
H1709 C1715 0.930 . S
C1710 H1696 0.930 . S
C1710 C1708 1.395 . S
C1710 C1713 1.403 . S
C1711 C1708 1.403 . S
C1711 C1712 1.524 . S
C1711 C1715 1.400 . S
C1712 H1697 0.960 . S
C1712 H1698 0.960 . S
C1712 H1699 0.960 . S
C1712 C1711 1.524 . S
C1713 C1710 1.403 . S
C1713 C1714 1.392 . S
C1713 C1717 1.495 . S
C1714 C1713 1.392 . S
C1714 C1715 1.385 . S
C1714 C1716 1.478 . S
C1715 H1709 0.930 . S
C1715 C1711 1.400 . S
C1715 C1714 1.385 . S
C1716 C1714 1.478 . S
C1716 C1718 1.381 . S
C1716 C1722 1.383 . S
C1717 C1713 1.495 . S
C1717 H1723 0.959 . S
C1717 H1724 0.961 . S
C1717 H1725 0.960 . S
C1718 C1716 1.381 . S
C1718 C1719 1.394 . S
C1718 H1726 0.930 . S
C1719 C1718 1.394 . S
C1719 C1720 1.383 . S
C1719 H1727 0.929 . S
C1720 C1719 1.383 . S
C1720 C1721 1.377 . S
C1721 H1705 0.930 . S
C1721 C1720 1.377 . S
C1721 C1722 1.379 . S
C1722 H1706 0.931 . S
C1722 C1716 1.383 . S
C1722 C1721 1.379 . S
H1723 C1717 0.959 . S
H1724 C1717 0.961 . S
H1725 C1717 0.960 . S
H1726 C1718 0.930 . S
H1727 C1719 0.929 . S
H1728 C1736 0.929 . S
H1729 C1738 0.930 . S
H1730 C1740 0.930 . S
H1731 C1743 0.929 . S
H1732 C1746 0.930 . S
H1733 C1748 0.960 . S
H1734 C1748 0.960 . S
H1735 C1748 0.960 . S
C1736 H1728 0.929 . S
C1736 C1737 1.377 . S
C1736 C1738 1.384 . S
C1737 C1736 1.377 . S
C1737 C1743 1.390 . S
C1738 H1729 0.930 . S
C1738 C1736 1.384 . S
C1738 C1739 1.372 . S
C1739 C1738 1.372 . S
C1739 C1740 1.400 . S
C1739 C1744 1.490 . S
C1740 H1730 0.930 . S
C1740 C1739 1.400 . S
C1740 C1743 1.386 . S
H1741 C1757 0.930 . S
H1742 C1758 0.931 . S
C1743 H1731 0.929 . S
C1743 C1737 1.390 . S
C1743 C1740 1.386 . S
C1744 C1739 1.490 . S
C1744 C1746 1.395 . S
C1744 C1747 1.403 . S
H1745 C1751 0.930 . S
C1746 H1732 0.930 . S
C1746 C1744 1.395 . S
C1746 C1749 1.403 . S
C1747 C1744 1.403 . S
C1747 C1748 1.524 . S
C1747 C1751 1.400 . S
C1748 H1733 0.960 . S
C1748 H1734 0.960 . S
C1748 H1735 0.960 . S
C1748 C1747 1.524 . S
C1749 C1746 1.403 . S
C1749 C1750 1.392 . S
C1749 C1753 1.495 . S
C1750 C1749 1.392 . S
C1750 C1751 1.385 . S
C1750 C1752 1.478 . S
C1751 H1745 0.930 . S
C1751 C1747 1.400 . S
C1751 C1750 1.385 . S
C1752 C1750 1.478 . S
C1752 C1754 1.381 . S
C1752 C1758 1.383 . S
C1753 C1749 1.495 . S
C1753 H1759 0.959 . S
C1753 H1760 0.961 . S
C1753 H1761 0.960 . S
C1754 C1752 1.381 . S
C1754 C1755 1.394 . S
C1754 H1762 0.930 . S
C1755 C1754 1.394 . S
C1755 C1756 1.383 . S
C1755 H1763 0.929 . S
C1756 C1755 1.383 . S
C1756 C1757 1.377 . S
C1757 H1741 0.930 . S
C1757 C1756 1.377 . S
C1757 C1758 1.379 . S
C1758 H1742 0.931 . S
C1758 C1752 1.383 . S
C1758 C1757 1.379 . S
H1759 C1753 0.959 . S
H1760 C1753 0.961 . S
H1761 C1753 0.960 . S
H1762 C1754 0.930 . S
H1763 C1755 0.929 . S
H1764 C1772 0.929 . S
H1765 C1774 0.930 . S
H1766 C1776 0.930 . S
H1767 C1779 0.929 . S
H1768 C1782 0.930 . S
H1769 C1784 0.960 . S
H1770 C1784 0.960 . S
H1771 C1784 0.960 . S
C1772 H1764 0.929 . S
C1772 C1773 1.377 . S
C1772 C1774 1.384 . S
C1773 C1772 1.377 . S
C1773 C1779 1.390 . S
C1774 H1765 0.930 . S
C1774 C1772 1.384 . S
C1774 C1775 1.372 . S
C1775 C1774 1.372 . S
C1775 C1776 1.400 . S
C1775 C1780 1.490 . S
C1776 H1766 0.930 . S
C1776 C1775 1.400 . S
C1776 C1779 1.386 . S
H1777 C1793 0.930 . S
H1778 C1794 0.931 . S
C1779 H1767 0.929 . S
C1779 C1773 1.390 . S
C1779 C1776 1.386 . S
C1780 C1775 1.490 . S
C1780 C1782 1.395 . S
C1780 C1783 1.403 . S
H1781 C1787 0.930 . S
C1782 H1768 0.930 . S
C1782 C1780 1.395 . S
C1782 C1785 1.403 . S
C1783 C1780 1.403 . S
C1783 C1784 1.524 . S
C1783 C1787 1.400 . S
C1784 H1769 0.960 . S
C1784 H1770 0.960 . S
C1784 H1771 0.960 . S
C1784 C1783 1.524 . S
C1785 C1782 1.403 . S
C1785 C1786 1.392 . S
C1785 C1789 1.495 . S
C1786 C1785 1.392 . S
C1786 C1787 1.385 . S
C1786 C1788 1.478 . S
C1787 H1781 0.930 . S
C1787 C1783 1.400 . S
C1787 C1786 1.385 . S
C1788 C1786 1.478 . S
C1788 C1790 1.381 . S
C1788 C1794 1.383 . S
C1789 C1785 1.495 . S
C1789 H1795 0.959 . S
C1789 H1796 0.961 . S
C1789 H1797 0.960 . S
C1790 C1788 1.381 . S
C1790 C1791 1.394 . S
C1790 H1798 0.930 . S
C1791 C1790 1.394 . S
C1791 C1792 1.383 . S
C1791 H1799 0.929 . S
C1792 C1791 1.383 . S
C1792 C1793 1.377 . S
C1793 H1777 0.930 . S
C1793 C1792 1.377 . S
C1793 C1794 1.379 . S
C1794 H1778 0.931 . S
C1794 C1788 1.383 . S
C1794 C1793 1.379 . S
H1795 C1789 0.959 . S
H1796 C1789 0.961 . S
H1797 C1789 0.960 . S
H1798 C1790 0.930 . S
H1799 C1791 0.929 . S
H1800 C1808 0.929 . S
H1801 C1810 0.930 . S
H1802 C1812 0.930 . S
H1803 C1815 0.929 . S
H1804 C1818 0.930 . S
H1805 C1820 0.960 . S
H1806 C1820 0.960 . S
H1807 C1820 0.960 . S
C1808 H1800 0.929 . S
C1808 C1809 1.377 1_545 S
C1808 C1810 1.384 . S
C1809 C1808 1.377 1_565 S
C1809 C1815 1.390 . S
C1810 H1801 0.930 . S
C1810 C1808 1.384 . S
C1810 C1811 1.386 . S
C1811 C1810 1.386 . S
C1811 C1812 1.384 1_545 S
C1811 C1816 1.495 . S
C1812 H1802 0.930 . S
C1812 C1811 1.384 1_565 S
C1812 C1815 1.386 . S
H1813 C1829 0.930 . S
H1814 C1830 0.931 . S
C1815 H1803 0.929 . S
C1815 C1809 1.390 . S
C1815 C1812 1.386 . S
C1816 C1811 1.495 . S
C1816 C1818 1.395 . S
C1816 C1819 1.403 1_545 S
H1817 C1823 0.930 . S
C1818 H1804 0.930 . S
C1818 C1816 1.395 . S
C1818 C1821 1.403 . S
C1819 C1816 1.403 1_565 S
C1819 C1820 1.524 . S
C1819 C1823 1.400 . S
C1820 H1805 0.960 . S
C1820 H1806 0.960 . S
C1820 H1807 0.960 . S
C1820 C1819 1.524 . S
C1821 C1818 1.403 . S
C1821 C1822 1.392 . S
C1821 C1825 1.495 . S
C1822 C1821 1.392 . S
C1822 C1823 1.385 1_545 S
C1822 C1824 1.478 . S
C1823 H1817 0.930 . S
C1823 C1819 1.400 . S
C1823 C1822 1.385 1_565 S
C1824 C1822 1.478 . S
C1824 C1826 1.381 . S
C1824 C1830 1.383 . S
C1825 C1821 1.495 . S
C1825 H1831 0.959 . S
C1825 H1832 0.961 . S
C1825 H1833 0.960 . S
C1826 C1824 1.381 . S
C1826 C1827 1.394 . S
C1826 H1834 0.930 . S
C1827 C1826 1.394 . S
C1827 C1828 1.383 . S
C1827 H1835 0.929 1_655 S
C1828 C1827 1.383 . S
C1828 C1829 1.377 . S
C1829 H1813 0.930 . S
C1829 C1828 1.377 . S
C1829 C1830 1.379 . S
C1830 H1814 0.931 . S
C1830 C1824 1.383 . S
C1830 C1829 1.379 . S
H1831 C1825 0.959 . S
H1832 C1825 0.961 . S
H1833 C1825 0.960 . S
H1834 C1826 0.930 . S
H1835 C1827 0.929 1_455 S
H1836 C1844 0.929 . S
H1837 C1846 0.930 . S
H1838 C1848 0.930 . S
H1839 C1851 0.929 . S
H1840 C1854 0.930 . S
H1841 C1856 0.960 . S
H1842 C1856 0.960 . S
H1843 C1856 0.960 . S
C1844 H1836 0.929 . S
C1844 C1845 1.377 . S
C1844 C1846 1.384 . S
C1845 C1844 1.377 . S
C1845 C1851 1.390 . S
C1846 H1837 0.930 . S
C1846 C1844 1.384 . S
C1846 C1847 1.372 . S
C1847 C1846 1.372 . S
C1847 C1848 1.400 . S
C1847 C1852 1.490 . S
C1848 H1838 0.930 . S
C1848 C1847 1.400 . S
C1848 C1851 1.386 . S
H1849 C1865 0.930 . S
H1850 C1866 0.931 . S
C1851 H1839 0.929 . S
C1851 C1845 1.390 . S
C1851 C1848 1.386 . S
C1852 C1847 1.490 . S
C1852 C1854 1.395 . S
C1852 C1855 1.403 . S
H1853 C1859 0.930 . S
C1854 H1840 0.930 . S
C1854 C1852 1.395 . S
C1854 C1857 1.403 . S
C1855 C1852 1.403 . S
C1855 C1856 1.524 . S
C1855 C1859 1.400 . S
C1856 H1841 0.960 . S
C1856 H1842 0.960 . S
C1856 H1843 0.960 . S
C1856 C1855 1.524 . S
C1857 C1854 1.403 . S
C1857 C1858 1.392 . S
C1857 C1861 1.495 . S
C1858 C1857 1.392 . S
C1858 C1859 1.385 . S
C1858 C1860 1.478 . S
C1859 H1853 0.930 . S
C1859 C1855 1.400 . S
C1859 C1858 1.385 . S
C1860 C1858 1.478 . S
C1860 C1862 1.381 . S
C1860 C1866 1.383 . S
C1861 C1857 1.495 . S
C1861 H1867 0.959 . S
C1861 H1868 0.961 . S
C1861 H1869 0.960 . S
C1862 C1860 1.381 . S
C1862 C1863 1.394 . S
C1862 H1870 0.930 . S
C1863 C1862 1.394 . S
C1863 C1864 1.383 . S
C1863 H1871 0.929 . S
C1864 C1863 1.383 . S
C1864 C1865 1.377 . S
C1865 H1849 0.930 . S
C1865 C1864 1.377 . S
C1865 C1866 1.379 . S
C1866 H1850 0.931 . S
C1866 C1860 1.383 . S
C1866 C1865 1.379 . S
H1867 C1861 0.959 . S
H1868 C1861 0.961 . S
H1869 C1861 0.960 . S
H1870 C1862 0.930 . S
H1871 C1863 0.929 . S
H1872 C1880 0.929 . S
H1873 C1882 0.930 . S
H1874 C1884 0.930 . S
H1875 C1887 0.929 . S
H1876 C1890 0.930 . S
H1877 C1892 0.960 . S
H1878 C1892 0.960 1_545 S
H1879 C1892 0.960 . S
C1880 H1872 0.929 . S
C1880 C1881 1.377 . S
C1880 C1882 1.384 . S
C1881 C1880 1.377 . S
C1881 C1887 1.390 1_545 S
C1882 H1873 0.930 . S
C1882 C1880 1.384 . S
C1882 C1883 1.372 . S
C1883 C1882 1.372 . S
C1883 C1884 1.400 1_545 S
C1883 C1888 1.490 . S
C1884 H1874 0.930 . S
C1884 C1883 1.400 1_565 S
C1884 C1887 1.386 . S
H1885 C1901 0.930 . S
H1886 C1902 0.931 . S
C1887 H1875 0.929 . S
C1887 C1881 1.390 1_565 S
C1887 C1884 1.386 . S
C1888 C1883 1.490 . S
C1888 C1890 1.395 . S
C1888 C1891 1.403 . S
H1889 C1895 0.930 1_565 S
C1890 H1876 0.930 . S
C1890 C1888 1.395 . S
C1890 C1893 1.403 . S
C1891 C1888 1.403 . S
C1891 C1892 1.524 1_545 S
C1891 C1895 1.400 . S
C1892 H1877 0.960 . S
C1892 H1878 0.960 1_565 S
C1892 H1879 0.960 . S
C1892 C1891 1.524 1_565 S
C1893 C1890 1.403 . S
C1893 C1894 1.392 . S
C1893 C1897 1.495 . S
C1894 C1893 1.392 . S
C1894 C1895 1.385 . S
C1894 C1896 1.478 . S
C1895 H1889 0.930 1_545 S
C1895 C1891 1.400 . S
C1895 C1894 1.385 . S
C1896 C1894 1.478 . S
C1896 C1898 1.381 . S
C1896 C1902 1.383 1_545 S
C1897 C1893 1.495 . S
C1897 H1903 0.959 . S
C1897 H1904 0.961 . S
C1897 H1905 0.960 . S
C1898 C1896 1.381 . S
C1898 C1899 1.394 . S
C1898 H1906 0.930 . S
C1899 C1898 1.394 . S
C1899 C1900 1.383 . S
C1899 H1907 0.929 . S
C1900 C1899 1.383 . S
C1900 C1901 1.377 1_545 S
C1901 H1885 0.930 . S
C1901 C1900 1.377 1_565 S
C1901 C1902 1.379 . S
C1902 H1886 0.931 . S
C1902 C1896 1.383 1_565 S
C1902 C1901 1.379 . S
H1903 C1897 0.959 . S
H1904 C1897 0.961 . S
H1905 C1897 0.960 . S
H1906 C1898 0.930 . S
H1907 C1899 0.929 . S
H1908 C1916 0.929 . S
H1909 C1918 0.930 . S
H1910 C1920 0.930 . S
H1911 C1923 0.929 . S
H1912 C1926 0.930 . S
H1913 C1928 0.960 . S
H1914 C1928 0.960 . S
H1915 C1928 0.960 . S
C1916 H1908 0.929 . S
C1916 C1917 1.377 . S
C1916 C1918 1.384 . S
C1917 C1916 1.377 . S
C1917 C1923 1.390 . S
C1918 H1909 0.930 . S
C1918 C1916 1.384 . S
C1918 C1919 1.372 . S
C1919 C1918 1.372 . S
C1919 C1920 1.400 . S
C1919 C1924 1.490 . S
C1920 H1910 0.930 . S
C1920 C1919 1.400 . S
C1920 C1923 1.386 . S
H1921 C1937 0.930 . S
H1922 C1938 0.931 . S
C1923 H1911 0.929 . S
C1923 C1917 1.390 . S
C1923 C1920 1.386 . S
C1924 C1919 1.490 . S
C1924 C1926 1.395 . S
C1924 C1927 1.403 . S
H1925 C1931 0.930 . S
C1926 H1912 0.930 . S
C1926 C1924 1.395 . S
C1926 C1929 1.403 . S
C1927 C1924 1.403 . S
C1927 C1928 1.524 . S
C1927 C1931 1.400 . S
C1928 H1913 0.960 . S
C1928 H1914 0.960 . S
C1928 H1915 0.960 . S
C1928 C1927 1.524 . S
C1929 C1926 1.403 . S
C1929 C1930 1.392 . S
C1929 C1933 1.495 . S
C1930 C1929 1.392 . S
C1930 C1931 1.385 . S
C1930 C1932 1.478 . S
C1931 H1925 0.930 . S
C1931 C1927 1.400 . S
C1931 C1930 1.385 . S
C1932 C1930 1.478 . S
C1932 C1934 1.381 . S
C1932 C1938 1.383 . S
C1933 C1929 1.495 . S
C1933 H1939 0.959 . S
C1933 H1940 0.961 . S
C1933 H1941 0.960 . S
C1934 C1932 1.381 . S
C1934 C1935 1.394 . S
C1934 H1942 0.930 . S
C1935 C1934 1.394 . S
C1935 C1936 1.383 . S
C1935 H1943 0.929 . S
C1936 C1935 1.383 . S
C1936 C1937 1.377 . S
C1937 H1921 0.930 . S
C1937 C1936 1.377 . S
C1937 C1938 1.379 . S
C1938 H1922 0.931 . S
C1938 C1932 1.383 . S
C1938 C1937 1.379 . S
H1939 C1933 0.959 . S
H1940 C1933 0.961 . S
H1941 C1933 0.960 . S
H1942 C1934 0.930 . S
H1943 C1935 0.929 . S
H1944 C1952 0.929 . S
H1945 C1954 0.930 . S
H1946 C1956 0.930 . S
H1947 C1959 0.929 . S
H1948 C1962 0.935 . S
H1949 C1964 0.960 . S
H1950 C1964 0.960 . S
H1951 C1964 0.978 . S
C1952 H1944 0.929 . S
C1952 C1953 1.377 . S
C1952 C1954 1.384 . S
C1953 C1952 1.377 . S
C1953 C1959 1.390 1_545 S
C1954 H1945 0.930 . S
C1954 C1952 1.384 . S
C1954 C1955 1.372 . S
C1955 C1954 1.372 . S
C1955 C1956 1.400 1_545 S
C1955 C1960 1.490 . S
C1956 H1946 0.930 . S
C1956 C1955 1.400 1_565 S
C1956 C1959 1.386 . S
H1957 C1973 0.930 . S
H1958 C1974 0.931 . S
C1959 H1947 0.929 . S
C1959 C1953 1.390 1_565 S
C1959 C1956 1.386 . S
C1960 C1955 1.490 . S
C1960 C1962 1.395 . S
C1960 C1963 1.403 . S
H1961 C1967 0.930 . S
C1962 H1948 0.935 . S
C1962 C1960 1.395 . S
C1962 C1965 1.404 . S
C1963 C1960 1.403 . S
C1963 C1964 1.524 . S
C1963 C1967 1.400 . S
C1964 H1949 0.960 . S
C1964 H1950 0.960 . S
C1964 H1951 0.978 . S
C1964 C1963 1.524 . S
C1965 C1962 1.404 . S
C1965 C1966 1.393 . S
C1965 C1969 1.494 1_545 S
C1966 C1965 1.393 . S
C1966 C1967 1.385 . S
C1966 C1968 1.477 . S
C1967 H1961 0.930 . S
C1967 C1963 1.400 . S
C1967 C1966 1.385 . S
C1968 C1966 1.477 . S
C1968 C1970 1.380 . S
C1968 C1974 1.384 1_545 S
C1969 C1965 1.494 1_565 S
C1969 H1975 0.959 . S
C1969 H1976 0.961 . S
C1969 H1977 0.960 1_565 S
C1970 C1968 1.380 . S
C1970 C1971 1.394 . S
C1970 H1978 0.930 . S
C1971 C1970 1.394 . S
C1971 C1972 1.383 1_545 S
C1971 H1979 0.929 . S
C1972 C1971 1.383 1_565 S
C1972 C1973 1.377 . S
C1973 H1957 0.930 . S
C1973 C1972 1.377 . S
C1973 C1974 1.379 . S
C1974 H1958 0.931 . S
C1974 C1968 1.384 1_565 S
C1974 C1973 1.379 . S
H1975 C1969 0.959 . S
H1976 C1969 0.961 . S
H1977 C1969 0.960 1_545 S
H1978 C1970 0.930 . S
H1979 C1971 0.929 . S
H1980 C1988 0.929 . S
H1981 C1990 0.930 . S
H1982 C1992 0.930 . S
H1983 C1995 0.929 . S
H1984 C1998 0.930 . S
H1985 C2000 0.960 . S
H1986 C2000 0.960 . S
H1987 C2000 0.960 . S
C1988 H1980 0.929 . S
C1988 C1989 1.377 . S
C1988 C1990 1.384 . S
C1989 C1988 1.377 . S
C1989 C1995 1.390 . S
C1990 H1981 0.930 . S
C1990 C1988 1.384 . S
C1990 C1991 1.372 . S
C1991 C1990 1.372 . S
C1991 C1992 1.400 . S
C1991 C1996 1.490 . S
C1992 H1982 0.930 . S
C1992 C1991 1.400 . S
C1992 C1995 1.386 . S
H1993 C2009 0.930 . S
H1994 C2010 0.931 . S
C1995 H1983 0.929 . S
C1995 C1989 1.390 . S
C1995 C1992 1.386 . S
C1996 C1991 1.490 . S
C1996 C1998 1.395 . S
C1996 C1999 1.403 . S
H1997 C2003 0.930 . S
C1998 H1984 0.930 . S
C1998 C1996 1.395 . S
C1998 C2001 1.403 . S
C1999 C1996 1.403 . S
C1999 C2000 1.524 . S
C1999 C2003 1.400 . S
C2000 H1985 0.960 . S
C2000 H1986 0.960 . S
C2000 H1987 0.960 . S
C2000 C1999 1.524 . S
C2001 C1998 1.403 . S
C2001 C2002 1.392 . S
C2001 C2005 1.495 . S
C2002 C2001 1.392 . S
C2002 C2003 1.385 . S
C2002 C2004 1.478 . S
C2003 H1997 0.930 . S
C2003 C1999 1.400 . S
C2003 C2002 1.385 . S
C2004 C2002 1.478 . S
C2004 C2006 1.381 . S
C2004 C2010 1.383 . S
C2005 C2001 1.495 . S
C2005 H2011 0.959 . S
C2005 H2012 0.961 . S
C2005 H2013 0.960 . S
C2006 C2004 1.381 . S
C2006 C2007 1.394 . S
C2006 H2014 0.930 . S
C2007 C2006 1.394 . S
C2007 C2008 1.383 . S
C2007 H2015 0.929 . S
C2008 C2007 1.383 . S
C2008 C2009 1.377 . S
C2009 H1993 0.930 . S
C2009 C2008 1.377 . S
C2009 C2010 1.379 . S
C2010 H1994 0.931 . S
C2010 C2004 1.383 . S
C2010 C2009 1.379 . S
H2011 C2005 0.959 . S
H2012 C2005 0.961 . S
H2013 C2005 0.960 . S
H2014 C2006 0.930 . S
H2015 C2007 0.929 . S
H2016 C2024 0.929 . S
H2017 C2026 0.930 . S
H2018 C2028 0.933 . S
H2019 C2031 0.929 1_565 S
H2020 C2034 0.930 . S
H2021 C2036 0.960 . S
H2022 C2036 0.960 . S
H2023 C2036 0.960 . S
C2024 H2016 0.929 . S
C2024 C2025 1.377 . S
C2024 C2026 1.384 . S
C2025 C2024 1.377 . S
C2025 C2031 1.390 . S
C2026 H2017 0.930 . S
C2026 C2024 1.384 . S
C2026 C2027 1.372 . S
C2027 C2026 1.372 . S
C2027 C2028 1.400 . S
C2027 C2032 1.490 . S
C2028 H2018 0.933 . S
C2028 C2027 1.400 . S
C2028 C2031 1.386 . S
H2029 C2045 0.930 . S
H2030 C2046 0.931 1_565 S
C2031 H2019 0.929 1_545 S
C2031 C2025 1.390 . S
C2031 C2028 1.386 . S
C2032 C2027 1.490 . S
C2032 C2034 1.395 1_545 S
C2032 C2035 1.403 . S
H2033 C2039 0.930 . S
C2034 H2020 0.930 . S
C2034 C2032 1.395 1_565 S
C2034 C2037 1.403 . S
C2035 C2032 1.403 . S
C2035 C2036 1.524 . S
C2035 C2039 1.400 . S
C2036 H2021 0.960 . S
C2036 H2022 0.960 . S
C2036 H2023 0.960 . S
C2036 C2035 1.524 . S
C2037 C2034 1.403 . S
C2037 C2038 1.392 1_565 S
C2037 C2041 1.495 . S
C2038 C2037 1.392 1_545 S
C2038 C2039 1.385 . S
C2038 C2040 1.478 . S
C2039 H2033 0.930 . S
C2039 C2035 1.400 . S
C2039 C2038 1.385 . S
C2040 C2038 1.478 . S
C2040 C2042 1.381 . S
C2040 C2046 1.383 . S
C2041 C2037 1.495 . S
C2041 H2047 0.959 . S
C2041 H2048 0.961 . S
C2041 H2049 0.960 . S
C2042 C2040 1.381 . S
C2042 C2043 1.394 . S
C2042 H2050 0.930 . S
C2043 C2042 1.394 . S
C2043 C2044 1.383 . S
C2043 H2051 0.929 . S
C2044 C2043 1.383 . S
C2044 C2045 1.377 . S
C2045 H2029 0.930 . S
C2045 C2044 1.377 . S
C2045 C2046 1.379 . S
C2046 H2030 0.931 1_545 S
C2046 C2040 1.383 . S
C2046 C2045 1.379 . S
H2047 C2041 0.959 . S
H2048 C2041 0.961 . S
H2049 C2041 0.960 . S
H2050 C2042 0.930 . S
H2051 C2043 0.929 . S
H2052 C2060 0.929 . S
H2053 C2062 0.930 . S
H2054 C2064 0.930 . S
H2055 C2067 0.929 . S
H2056 C2070 0.930 . S
H2057 C2072 0.960 . S
H2058 C2072 0.960 . S
H2059 C2072 0.960 . S
C2060 H2052 0.929 . S
C2060 C2061 1.377 . S
C2060 C2062 1.384 . S
C2061 C2060 1.377 . S
C2061 C2067 1.390 . S
C2062 H2053 0.930 . S
C2062 C2060 1.384 . S
C2062 C2063 1.372 . S
C2063 C2062 1.372 . S
C2063 C2064 1.400 . S
C2063 C2068 1.490 . S
C2064 H2054 0.930 . S
C2064 C2063 1.400 . S
C2064 C2067 1.386 . S
H2065 C2081 0.930 . S
H2066 C2082 0.931 . S
C2067 H2055 0.929 . S
C2067 C2061 1.390 . S
C2067 C2064 1.386 . S
C2068 C2063 1.490 . S
C2068 C2070 1.395 . S
C2068 C2071 1.403 . S
H2069 C2075 0.930 . S
C2070 H2056 0.930 . S
C2070 C2068 1.395 . S
C2070 C2073 1.403 . S
C2071 C2068 1.403 . S
C2071 C2072 1.524 . S
C2071 C2075 1.400 . S
C2072 H2057 0.960 . S
C2072 H2058 0.960 . S
C2072 H2059 0.960 . S
C2072 C2071 1.524 . S
C2073 C2070 1.403 . S
C2073 C2074 1.392 . S
C2073 C2077 1.495 . S
C2074 C2073 1.392 . S
C2074 C2075 1.385 . S
C2074 C2076 1.478 . S
C2075 H2069 0.930 . S
C2075 C2071 1.400 . S
C2075 C2074 1.385 . S
C2076 C2074 1.478 . S
C2076 C2078 1.381 . S
C2076 C2082 1.383 . S
C2077 C2073 1.495 . S
C2077 H2083 0.959 . S
C2077 H2084 0.961 . S
C2077 H2085 0.960 . S
C2078 C2076 1.381 . S
C2078 C2079 1.394 . S
C2078 H2086 0.930 . S
C2079 C2078 1.394 . S
C2079 C2080 1.383 . S
C2079 H2087 0.929 . S
C2080 C2079 1.383 . S
C2080 C2081 1.377 . S
C2081 H2065 0.930 . S
C2081 C2080 1.377 . S
C2081 C2082 1.379 . S
C2082 H2066 0.931 . S
C2082 C2076 1.383 . S
C2082 C2081 1.379 . S
H2083 C2077 0.959 . S
H2084 C2077 0.961 . S
H2085 C2077 0.960 . S
H2086 C2078 0.930 . S
H2087 C2079 0.929 . S
H2088 C2096 0.929 . S
H2089 C2098 0.930 . S
H2090 C2100 0.930 . S
H2091 C2103 0.929 . S
H2092 C2106 0.930 . S
H2093 C2108 0.960 . S
H2094 C2108 0.960 1_554 S
H2095 C2108 0.960 . S
C2096 H2088 0.929 . S
C2096 C2097 1.377 . S
C2096 C2098 1.384 . S
C2097 C2096 1.377 . S
C2097 C2103 1.390 1_554 S
C2098 H2089 0.930 . S
C2098 C2096 1.384 . S
C2098 C2099 1.372 . S
C2099 C2098 1.372 . S
C2099 C2100 1.400 1_554 S
C2099 C2104 1.490 . S
C2100 H2090 0.930 . S
C2100 C2099 1.400 1_556 S
C2100 C2103 1.386 . S
H2101 C2117 0.930 . S
H2102 C2118 0.931 . S
C2103 H2091 0.929 . S
C2103 C2097 1.390 1_556 S
C2103 C2100 1.386 . S
C2104 C2099 1.490 . S
C2104 C2106 1.395 . S
C2104 C2107 1.403 . S
H2105 C2111 0.928 1_556 S
C2106 H2092 0.930 . S
C2106 C2104 1.395 . S
C2106 C2109 1.403 . S
C2107 C2104 1.403 . S
C2107 C2108 1.524 1_554 S
C2107 C2111 1.400 . S
C2108 H2093 0.960 . S
C2108 H2094 0.960 1_556 S
C2108 H2095 0.960 . S
C2108 C2107 1.524 1_556 S
C2109 C2106 1.403 . S
C2109 C2110 1.392 . S
C2109 C2113 1.495 . S
C2110 C2109 1.392 . S
C2110 C2111 1.385 . S
C2110 C2112 1.478 . S
C2111 H2105 0.928 1_554 S
C2111 C2107 1.400 . S
C2111 C2110 1.385 . S
C2112 C2110 1.478 . S
C2112 C2114 1.381 . S
C2112 C2118 1.383 1_554 S
C2113 C2109 1.495 . S
C2113 H2119 0.959 . S
C2113 H2120 0.961 . S
C2113 H2121 0.960 . S
C2114 C2112 1.381 . S
C2114 C2115 1.394 . S
C2114 H2122 0.930 . S
C2115 C2114 1.394 . S
C2115 C2116 1.383 . S
C2115 H2123 0.929 . S
C2116 C2115 1.383 . S
C2116 C2117 1.377 1_554 S
C2117 H2101 0.930 . S
C2117 C2116 1.377 1_556 S
C2117 C2118 1.379 . S
C2118 H2102 0.931 . S
C2118 C2112 1.383 1_556 S
C2118 C2117 1.379 . S
H2119 C2113 0.959 . S
H2120 C2113 0.961 . S
H2121 C2113 0.960 . S
H2122 C2114 0.930 . S
H2123 C2115 0.929 . S
H2124 C2132 0.929 . S
H2125 C2134 0.930 . S
H2126 C2136 0.924 1_556 S
H2127 C2139 0.929 . S
H2128 C2142 0.930 . S
H2129 C2144 0.960 . S
H2130 C2144 0.960 . S
H2131 C2144 0.960 . S
C2132 H2124 0.929 . S
C2132 C2133 1.377 . S
C2132 C2134 1.384 . S
C2133 C2132 1.377 . S
C2133 C2139 1.390 . S
C2134 H2125 0.930 . S
C2134 C2132 1.384 . S
C2134 C2135 1.372 . S
C2135 C2134 1.372 . S
C2135 C2136 1.400 . S
C2135 C2140 1.490 . S
C2136 H2126 0.924 1_554 S
C2136 C2135 1.400 . S
C2136 C2139 1.386 . S
H2137 C2153 0.930 . S
H2138 C2154 0.931 . S
C2139 H2127 0.929 . S
C2139 C2133 1.390 . S
C2139 C2136 1.386 . S
C2140 C2135 1.490 . S
C2140 C2142 1.395 1_554 S
C2140 C2143 1.403 . S
H2141 C2147 0.930 . S
C2142 H2128 0.930 . S
C2142 C2140 1.395 1_556 S
C2142 C2145 1.403 . S
C2143 C2140 1.403 . S
C2143 C2144 1.524 . S
C2143 C2147 1.400 . S
C2144 H2129 0.960 . S
C2144 H2130 0.960 . S
C2144 H2131 0.960 . S
C2144 C2143 1.524 . S
C2145 C2142 1.403 . S
C2145 C2146 1.392 1_556 S
C2145 C2149 1.495 . S
C2146 C2145 1.392 1_554 S
C2146 C2147 1.385 . S
C2146 C2148 1.478 . S
C2147 H2141 0.930 . S
C2147 C2143 1.400 . S
C2147 C2146 1.385 . S
C2148 C2146 1.478 . S
C2148 C2150 1.381 . S
C2148 C2154 1.383 1_554 S
C2149 C2145 1.495 . S
C2149 H2155 0.959 . S
C2149 H2156 0.961 . S
C2149 H2157 0.960 . S
C2150 C2148 1.381 . S
C2150 C2151 1.394 . S
C2150 H2158 0.930 . S
C2151 C2150 1.394 . S
C2151 C2152 1.383 . S
C2151 H2159 0.929 . S
C2152 C2151 1.383 . S
C2152 C2153 1.377 1_554 S
C2153 H2137 0.930 . S
C2153 C2152 1.377 1_556 S
C2153 C2154 1.379 . S
C2154 H2138 0.931 . S
C2154 C2148 1.383 1_556 S
C2154 C2153 1.379 . S
H2155 C2149 0.959 . S
H2156 C2149 0.961 . S
H2157 C2149 0.960 . S
H2158 C2150 0.930 . S
H2159 C2151 0.929 . S
H2160 C2168 0.929 . S
H2161 C2170 0.930 . S
H2162 C2172 0.930 . S
H2163 C2175 0.929 . S
H2164 C2178 0.930 . S
H2165 C2180 0.960 . S
H2166 C2180 0.960 . S
H2167 C2180 0.960 . S
C2168 H2160 0.929 . S
C2168 C2169 1.377 . S
C2168 C2170 1.384 . S
C2169 C2168 1.377 . S
C2169 C2175 1.390 . S
C2170 H2161 0.930 . S
C2170 C2168 1.384 . S
C2170 C2171 1.372 . S
C2171 C2170 1.372 . S
C2171 C2172 1.400 . S
C2171 C2176 1.490 . S
C2172 H2162 0.930 . S
C2172 C2171 1.400 . S
C2172 C2175 1.386 . S
H2173 C2189 0.930 . S
H2174 C2190 0.931 . S
C2175 H2163 0.929 . S
C2175 C2169 1.390 . S
C2175 C2172 1.386 . S
C2176 C2171 1.490 . S
C2176 C2178 1.395 . S
C2176 C2179 1.403 . S
H2177 C2183 0.930 . S
C2178 H2164 0.930 . S
C2178 C2176 1.395 . S
C2178 C2181 1.403 . S
C2179 C2176 1.403 . S
C2179 C2180 1.524 . S
C2179 C2183 1.400 . S
C2180 H2165 0.960 . S
C2180 H2166 0.960 . S
C2180 H2167 0.960 . S
C2180 C2179 1.524 . S
C2181 C2178 1.403 . S
C2181 C2182 1.392 . S
C2181 C2185 1.495 . S
C2182 C2181 1.392 . S
C2182 C2183 1.385 . S
C2182 C2184 1.478 . S
C2183 H2177 0.930 . S
C2183 C2179 1.400 . S
C2183 C2182 1.385 . S
C2184 C2182 1.478 . S
C2184 C2186 1.381 . S
C2184 C2190 1.383 . S
C2185 C2181 1.495 . S
C2185 H2191 0.959 . S
C2185 H2192 0.961 . S
C2185 H2193 0.960 . S
C2186 C2184 1.381 . S
C2186 C2187 1.394 . S
C2186 H2194 0.930 . S
C2187 C2186 1.394 . S
C2187 C2188 1.383 . S
C2187 H2195 0.929 . S
C2188 C2187 1.383 . S
C2188 C2189 1.377 . S
C2189 H2173 0.930 . S
C2189 C2188 1.377 . S
C2189 C2190 1.379 . S
C2190 H2174 0.931 . S
C2190 C2184 1.383 . S
C2190 C2189 1.379 . S
H2191 C2185 0.959 . S
H2192 C2185 0.961 . S
H2193 C2185 0.960 . S
H2194 C2186 0.930 . S
H2195 C2187 0.929 . S
H2196 C2204 0.929 . S
H2197 C2206 0.930 . S
H2198 C2208 0.930 . S
H2199 C2211 0.929 . S
H2200 C2214 0.930 . S
H2201 C2216 0.960 . S
H2202 C2216 0.960 . S
H2203 C2216 0.960 . S
C2204 H2196 0.929 . S
C2204 C2205 1.377 . S
C2204 C2206 1.384 . S
C2205 C2204 1.377 . S
C2205 C2211 1.390 . S
C2206 H2197 0.930 . S
C2206 C2204 1.384 . S
C2206 C2207 1.372 . S
C2207 C2206 1.372 . S
C2207 C2208 1.400 . S
C2207 C2212 1.490 . S
C2208 H2198 0.930 . S
C2208 C2207 1.400 . S
C2208 C2211 1.386 . S
H2209 C2225 0.930 . S
H2210 C2226 0.931 . S
C2211 H2199 0.929 . S
C2211 C2205 1.390 . S
C2211 C2208 1.386 . S
C2212 C2207 1.490 . S
C2212 C2214 1.395 . S
C2212 C2215 1.403 . S
H2213 C2219 0.930 . S
C2214 H2200 0.930 . S
C2214 C2212 1.395 . S
C2214 C2217 1.403 . S
C2215 C2212 1.403 . S
C2215 C2216 1.524 . S
C2215 C2219 1.400 . S
C2216 H2201 0.960 . S
C2216 H2202 0.960 . S
C2216 H2203 0.960 . S
C2216 C2215 1.524 . S
C2217 C2214 1.403 . S
C2217 C2218 1.392 . S
C2217 C2221 1.495 . S
C2218 C2217 1.392 . S
C2218 C2219 1.385 . S
C2218 C2220 1.478 . S
C2219 H2213 0.930 . S
C2219 C2215 1.400 . S
C2219 C2218 1.385 . S
C2220 C2218 1.478 . S
C2220 C2222 1.381 . S
C2220 C2226 1.383 . S
C2221 C2217 1.495 . S
C2221 H2227 0.959 . S
C2221 H2228 0.961 . S
C2221 H2229 0.960 . S
C2222 C2220 1.381 . S
C2222 C2223 1.394 . S
C2222 H2230 0.930 . S
C2223 C2222 1.394 . S
C2223 C2224 1.383 . S
C2223 H2231 0.929 . S
C2224 C2223 1.383 . S
C2224 C2225 1.377 . S
C2225 H2209 0.930 . S
C2225 C2224 1.377 . S
C2225 C2226 1.379 . S
C2226 H2210 0.931 . S
C2226 C2220 1.383 . S
C2226 C2225 1.379 . S
H2227 C2221 0.959 . S
H2228 C2221 0.961 . S
H2229 C2221 0.960 . S
H2230 C2222 0.930 . S
H2231 C2223 0.929 . S
H2232 C2240 0.929 . S
H2233 C2242 0.930 . S
H2234 C2244 0.930 . S
H2235 C2247 0.929 . S
H2236 C2250 0.930 . S
H2237 C2252 0.960 . S
H2238 C2252 0.960 . S
H2239 C2252 0.960 . S
C2240 H2232 0.929 . S
C2240 C2241 1.377 . S
C2240 C2242 1.384 . S
C2241 C2240 1.377 . S
C2241 C2247 1.390 . S
C2242 H2233 0.930 . S
C2242 C2240 1.384 . S
C2242 C2243 1.372 . S
C2243 C2242 1.372 . S
C2243 C2244 1.400 . S
C2243 C2248 1.490 . S
C2244 H2234 0.930 . S
C2244 C2243 1.400 . S
C2244 C2247 1.386 . S
H2245 C2261 0.930 . S
H2246 C2262 0.931 . S
C2247 H2235 0.929 . S
C2247 C2241 1.390 . S
C2247 C2244 1.386 . S
C2248 C2243 1.490 . S
C2248 C2250 1.395 . S
C2248 C2251 1.403 . S
H2249 C2255 0.930 . S
C2250 H2236 0.930 . S
C2250 C2248 1.395 . S
C2250 C2253 1.403 . S
C2251 C2248 1.403 . S
C2251 C2252 1.524 . S
C2251 C2255 1.400 . S
C2252 H2237 0.960 . S
C2252 H2238 0.960 . S
C2252 H2239 0.960 . S
C2252 C2251 1.524 . S
C2253 C2250 1.403 . S
C2253 C2254 1.392 . S
C2253 C2257 1.495 . S
C2254 C2253 1.392 . S
C2254 C2255 1.385 . S
C2254 C2256 1.478 . S
C2255 H2249 0.930 . S
C2255 C2251 1.400 . S
C2255 C2254 1.385 . S
C2256 C2254 1.478 . S
C2256 C2258 1.381 . S
C2256 C2262 1.383 . S
C2257 C2253 1.495 . S
C2257 H2263 0.959 . S
C2257 H2264 0.961 . S
C2257 H2265 0.960 . S
C2258 C2256 1.381 . S
C2258 C2259 1.394 . S
C2258 H2266 0.930 . S
C2259 C2258 1.394 . S
C2259 C2260 1.383 . S
C2259 H2267 0.929 . S
C2260 C2259 1.383 . S
C2260 C2261 1.377 . S
C2261 H2245 0.930 . S
C2261 C2260 1.377 . S
C2261 C2262 1.379 . S
C2262 H2246 0.931 . S
C2262 C2256 1.383 . S
C2262 C2261 1.379 . S
H2263 C2257 0.959 . S
H2264 C2257 0.961 . S
H2265 C2257 0.960 . S
H2266 C2258 0.930 . S
H2267 C2259 0.929 . S
H2268 C2276 0.929 . S
H2269 C2278 0.930 . S
H2270 C2280 0.930 . S
H2271 C2283 0.929 . S
H2272 C2286 0.930 . S
H2273 C2288 0.960 . S
H2274 C2288 0.960 . S
H2275 C2288 0.960 . S
C2276 H2268 0.929 . S
C2276 C2277 1.377 . S
C2276 C2278 1.384 . S
C2277 C2276 1.377 . S
C2277 C2283 1.390 . S
C2278 H2269 0.930 . S
C2278 C2276 1.384 . S
C2278 C2279 1.372 . S
C2279 C2278 1.372 . S
C2279 C2280 1.400 . S
C2279 C2284 1.490 . S
C2280 H2270 0.930 . S
C2280 C2279 1.400 . S
C2280 C2283 1.386 . S
H2281 C2297 0.930 . S
H2282 C2298 0.931 . S
C2283 H2271 0.929 . S
C2283 C2277 1.390 . S
C2283 C2280 1.386 . S
C2284 C2279 1.490 . S
C2284 C2286 1.395 . S
C2284 C2287 1.403 . S
H2285 C2291 0.930 . S
C2286 H2272 0.930 . S
C2286 C2284 1.395 . S
C2286 C2289 1.403 . S
C2287 C2284 1.403 . S
C2287 C2288 1.524 . S
C2287 C2291 1.400 . S
C2288 H2273 0.960 . S
C2288 H2274 0.960 . S
C2288 H2275 0.960 . S
C2288 C2287 1.524 . S
C2289 C2286 1.403 . S
C2289 C2290 1.392 . S
C2289 C2293 1.495 . S
C2290 C2289 1.392 . S
C2290 C2291 1.385 . S
C2290 C2292 1.478 . S
C2291 H2285 0.930 . S
C2291 C2287 1.400 . S
C2291 C2290 1.385 . S
C2292 C2290 1.478 . S
C2292 C2294 1.381 . S
C2292 C2298 1.383 . S
C2293 C2289 1.495 . S
C2293 H2299 0.959 . S
C2293 H2300 0.961 . S
C2293 H2301 0.960 . S
C2294 C2292 1.381 . S
C2294 C2295 1.394 . S
C2294 H2302 0.930 . S
C2295 C2294 1.394 . S
C2295 C2296 1.383 . S
C2295 H2303 0.929 . S
C2296 C2295 1.383 . S
C2296 C2297 1.377 . S
C2297 H2281 0.930 . S
C2297 C2296 1.377 . S
C2297 C2298 1.379 . S
C2298 H2282 0.931 . S
C2298 C2292 1.383 . S
C2298 C2297 1.379 . S
H2299 C2293 0.959 . S
H2300 C2293 0.961 . S
H2301 C2293 0.960 . S
H2302 C2294 0.930 . S
H2303 C2295 0.929 . S
H2304 C2312 0.929 . S
H2305 C2314 0.930 . S
H2306 C2316 0.930 . S
H2307 C2319 0.929 . S
H2308 C2322 0.930 . S
H2309 C2324 0.960 . S
H2310 C2324 0.960 . S
H2311 C2324 0.960 . S
C2312 H2304 0.929 . S
C2312 C2313 1.377 . S
C2312 C2314 1.384 . S
C2313 C2312 1.377 . S
C2313 C2319 1.390 . S
C2314 H2305 0.930 . S
C2314 C2312 1.384 . S
C2314 C2315 1.372 . S
C2315 C2314 1.372 . S
C2315 C2316 1.400 . S
C2315 C2320 1.490 . S
C2316 H2306 0.930 . S
C2316 C2315 1.400 . S
C2316 C2319 1.386 . S
H2317 C2333 0.930 . S
H2318 C2334 0.931 . S
C2319 H2307 0.929 . S
C2319 C2313 1.390 . S
C2319 C2316 1.386 . S
C2320 C2315 1.490 . S
C2320 C2322 1.395 . S
C2320 C2323 1.403 . S
H2321 C2327 0.930 . S
C2322 H2308 0.930 . S
C2322 C2320 1.395 . S
C2322 C2325 1.403 . S
C2323 C2320 1.403 . S
C2323 C2324 1.524 . S
C2323 C2327 1.400 . S
C2324 H2309 0.960 . S
C2324 H2310 0.960 . S
C2324 H2311 0.960 . S
C2324 C2323 1.524 . S
C2325 C2322 1.403 . S
C2325 C2326 1.392 . S
C2325 C2329 1.495 . S
C2326 C2325 1.392 . S
C2326 C2327 1.385 . S
C2326 C2328 1.478 . S
C2327 H2321 0.930 . S
C2327 C2323 1.400 . S
C2327 C2326 1.385 . S
C2328 C2326 1.478 . S
C2328 C2330 1.381 . S
C2328 C2334 1.383 . S
C2329 C2325 1.495 . S
C2329 H2335 0.959 . S
C2329 H2336 0.961 . S
C2329 H2337 0.960 . S
C2330 C2328 1.381 . S
C2330 C2331 1.394 . S
C2330 H2338 0.930 . S
C2331 C2330 1.394 . S
C2331 C2332 1.383 . S
C2331 H2339 0.929 . S
C2332 C2331 1.383 . S
C2332 C2333 1.377 . S
C2333 H2317 0.930 . S
C2333 C2332 1.377 . S
C2333 C2334 1.379 . S
C2334 H2318 0.931 . S
C2334 C2328 1.383 . S
C2334 C2333 1.379 . S
H2335 C2329 0.959 . S
H2336 C2329 0.961 . S
H2337 C2329 0.960 . S
H2338 C2330 0.930 . S
H2339 C2331 0.929 . S
H2340 C2348 0.929 . S
H2341 C2350 0.930 . S
H2342 C2352 0.930 . S
H2343 C2355 0.929 . S
H2344 C2358 0.930 . S
H2345 C2360 0.960 . S
H2346 C2360 0.960 . S
H2347 C2360 0.960 . S
C2348 H2340 0.929 . S
C2348 C2349 1.377 . S
C2348 C2350 1.384 . S
C2349 C2348 1.377 . S
C2349 C2355 1.390 . S
C2350 H2341 0.930 . S
C2350 C2348 1.384 . S
C2350 C2351 1.372 . S
C2351 C2350 1.372 . S
C2351 C2352 1.400 . S
C2351 C2356 1.490 . S
C2352 H2342 0.930 . S
C2352 C2351 1.400 . S
C2352 C2355 1.386 . S
H2353 C2369 0.930 . S
H2354 C2370 0.931 . S
C2355 H2343 0.929 . S
C2355 C2349 1.390 . S
C2355 C2352 1.386 . S
C2356 C2351 1.490 . S
C2356 C2358 1.395 . S
C2356 C2359 1.403 . S
H2357 C2363 0.930 . S
C2358 H2344 0.930 . S
C2358 C2356 1.395 . S
C2358 C2361 1.403 . S
C2359 C2356 1.403 . S
C2359 C2360 1.524 . S
C2359 C2363 1.400 . S
C2360 H2345 0.960 . S
C2360 H2346 0.960 . S
C2360 H2347 0.960 . S
C2360 C2359 1.524 . S
C2361 C2358 1.403 . S
C2361 C2362 1.392 . S
C2361 C2365 1.495 . S
C2362 C2361 1.392 . S
C2362 C2363 1.385 . S
C2362 C2364 1.478 . S
C2363 H2357 0.930 . S
C2363 C2359 1.400 . S
C2363 C2362 1.385 . S
C2364 C2362 1.478 . S
C2364 C2366 1.381 . S
C2364 C2370 1.383 . S
C2365 C2361 1.495 . S
C2365 H2371 0.959 . S
C2365 H2372 0.961 . S
C2365 H2373 0.960 . S
C2366 C2364 1.381 . S
C2366 C2367 1.394 . S
C2366 H2374 0.930 . S
C2367 C2366 1.394 . S
C2367 C2368 1.383 . S
C2367 H2375 0.929 . S
C2368 C2367 1.383 . S
C2368 C2369 1.377 . S
C2369 H2353 0.930 . S
C2369 C2368 1.377 . S
C2369 C2370 1.379 . S
C2370 H2354 0.931 . S
C2370 C2364 1.383 . S
C2370 C2369 1.379 . S
H2371 C2365 0.959 . S
H2372 C2365 0.961 . S
H2373 C2365 0.960 . S
H2374 C2366 0.930 . S
H2375 C2367 0.929 . S
H2376 C2384 0.929 . S
H2377 C2386 0.930 . S
H2378 C2388 0.930 . S
H2379 C2391 0.929 . S
H2380 C2394 0.930 . S
H2381 C2396 0.960 . S
H2382 C2396 0.960 . S
H2383 C2396 0.960 . S
C2384 H2376 0.929 . S
C2384 C2385 1.377 . S
C2384 C2386 1.384 . S
C2385 C2384 1.377 . S
C2385 C2391 1.390 . S
C2386 H2377 0.930 . S
C2386 C2384 1.384 . S
C2386 C2387 1.372 . S
C2387 C2386 1.372 . S
C2387 C2388 1.400 . S
C2387 C2392 1.490 . S
C2388 H2378 0.930 . S
C2388 C2387 1.400 . S
C2388 C2391 1.386 . S
H2389 C2405 0.930 . S
H2390 C2406 0.931 . S
C2391 H2379 0.929 . S
C2391 C2385 1.390 . S
C2391 C2388 1.386 . S
C2392 C2387 1.490 . S
C2392 C2394 1.395 . S
C2392 C2395 1.403 . S
H2393 C2399 0.930 . S
C2394 H2380 0.930 . S
C2394 C2392 1.395 . S
C2394 C2397 1.403 . S
C2395 C2392 1.403 . S
C2395 C2396 1.524 . S
C2395 C2399 1.400 . S
C2396 H2381 0.960 . S
C2396 H2382 0.960 . S
C2396 H2383 0.960 . S
C2396 C2395 1.524 . S
C2397 C2394 1.403 . S
C2397 C2398 1.392 . S
C2397 C2401 1.495 . S
C2398 C2397 1.392 . S
C2398 C2399 1.385 . S
C2398 C2400 1.478 . S
C2399 H2393 0.930 . S
C2399 C2395 1.400 . S
C2399 C2398 1.385 . S
C2400 C2398 1.478 . S
C2400 C2402 1.381 . S
C2400 C2406 1.383 . S
C2401 C2397 1.495 . S
C2401 H2407 0.959 . S
C2401 H2408 0.961 . S
C2401 H2409 0.960 . S
C2402 C2400 1.381 . S
C2402 C2403 1.394 . S
C2402 H2410 0.930 . S
C2403 C2402 1.394 . S
C2403 C2404 1.383 . S
C2403 H2411 0.929 . S
C2404 C2403 1.383 . S
C2404 C2405 1.377 . S
C2405 H2389 0.930 . S
C2405 C2404 1.377 . S
C2405 C2406 1.379 . S
C2406 H2390 0.931 . S
C2406 C2400 1.383 . S
C2406 C2405 1.379 . S
H2407 C2401 0.959 . S
H2408 C2401 0.961 . S
H2409 C2401 0.960 . S
H2410 C2402 0.930 . S
H2411 C2403 0.929 . S
H2412 C2420 0.929 . S
H2413 C2422 0.930 . S
H2414 C2424 0.930 . S
H2415 C2427 0.929 . S
H2416 C2430 0.930 . S
H2417 C2432 0.960 . S
H2418 C2432 0.960 . S
H2419 C2432 0.960 . S
C2420 H2412 0.929 . S
C2420 C2421 1.377 . S
C2420 C2422 1.384 . S
C2421 C2420 1.377 . S
C2421 C2427 1.390 . S
C2422 H2413 0.930 . S
C2422 C2420 1.384 . S
C2422 C2423 1.372 . S
C2423 C2422 1.372 . S
C2423 C2424 1.400 . S
C2423 C2428 1.490 . S
C2424 H2414 0.930 . S
C2424 C2423 1.400 . S
C2424 C2427 1.386 . S
H2425 C2441 0.930 . S
H2426 C2442 0.931 . S
C2427 H2415 0.929 . S
C2427 C2421 1.390 . S
C2427 C2424 1.386 . S
C2428 C2423 1.490 . S
C2428 C2430 1.395 . S
C2428 C2431 1.403 . S
H2429 C2435 0.930 . S
C2430 H2416 0.930 . S
C2430 C2428 1.395 . S
C2430 C2433 1.403 . S
C2431 C2428 1.403 . S
C2431 C2432 1.524 . S
C2431 C2435 1.400 . S
C2432 H2417 0.960 . S
C2432 H2418 0.960 . S
C2432 H2419 0.960 . S
C2432 C2431 1.524 . S
C2433 C2430 1.403 . S
C2433 C2434 1.392 . S
C2433 C2437 1.495 . S
C2434 C2433 1.392 . S
C2434 C2435 1.385 . S
C2434 C2436 1.478 . S
C2435 H2429 0.930 . S
C2435 C2431 1.400 . S
C2435 C2434 1.385 . S
C2436 C2434 1.478 . S
C2436 C2438 1.381 . S
C2436 C2442 1.383 . S
C2437 C2433 1.495 . S
C2437 H2443 0.959 . S
C2437 H2444 0.961 . S
C2437 H2445 0.960 . S
C2438 C2436 1.381 . S
C2438 C2439 1.394 . S
C2438 H2446 0.930 . S
C2439 C2438 1.394 . S
C2439 C2440 1.383 . S
C2439 H2447 0.929 . S
C2440 C2439 1.383 . S
C2440 C2441 1.377 . S
C2441 H2425 0.930 . S
C2441 C2440 1.377 . S
C2441 C2442 1.379 . S
C2442 H2426 0.931 . S
C2442 C2436 1.383 . S
C2442 C2441 1.379 . S
H2443 C2437 0.959 . S
H2444 C2437 0.961 . S
H2445 C2437 0.960 . S
H2446 C2438 0.930 . S
H2447 C2439 0.929 . S
H2448 C2456 0.929 1_655 S
H2449 C2458 0.930 1_655 S
H2450 C2460 0.930 . S
H2451 C2463 0.929 . S
H2452 C2466 0.930 . S
H2453 C2468 0.960 . S
H2454 C2468 0.960 . S
H2455 C2468 0.960 . S
C2456 H2448 0.929 1_455 S
C2456 C2457 1.377 . S
C2456 C2458 1.384 . S
C2457 C2456 1.377 . S
C2457 C2463 1.390 . S
C2458 H2449 0.930 1_455 S
C2458 C2456 1.384 . S
C2458 C2459 1.372 . S
C2459 C2458 1.372 . S
C2459 C2460 1.400 . S
C2459 C2464 1.490 . S
C2460 H2450 0.930 . S
C2460 C2459 1.400 . S
C2460 C2463 1.386 . S
H2461 C2477 0.930 . S
H2462 C2478 0.931 . S
C2463 H2451 0.929 . S
C2463 C2457 1.390 . S
C2463 C2460 1.386 . S
C2464 C2459 1.490 . S
C2464 C2466 1.395 1_455 S
C2464 C2467 1.403 . S
H2465 C2471 0.930 . S
C2466 H2452 0.930 . S
C2466 C2464 1.395 1_655 S
C2466 C2469 1.403 . S
C2467 C2464 1.403 . S
C2467 C2468 1.524 . S
C2467 C2471 1.400 . S
C2468 H2453 0.960 . S
C2468 H2454 0.960 . S
C2468 H2455 0.960 . S
C2468 C2467 1.524 . S
C2469 C2466 1.403 . S
C2469 C2470 1.392 1_655 S
C2469 C2473 1.495 . S
C2470 C2469 1.392 1_455 S
C2470 C2471 1.385 . S
C2470 C2472 1.478 . S
C2471 H2465 0.930 . S
C2471 C2467 1.400 . S
C2471 C2470 1.385 . S
C2472 C2470 1.478 . S
C2472 C2474 1.381 . S
C2472 C2478 1.383 . S
C2473 C2469 1.495 . S
C2473 H2479 0.959 . S
C2473 H2480 0.961 . S
C2473 H2481 0.960 . S
C2474 C2472 1.381 . S
C2474 C2475 1.394 . S
C2474 H2482 0.913 1_455 S
C2475 C2474 1.394 . S
C2475 C2476 1.383 . S
C2475 H2483 0.984 . S
C2476 C2475 1.383 . S
C2476 C2477 1.377 . S
C2477 H2461 0.930 . S
C2477 C2476 1.377 . S
C2477 C2478 1.379 . S
C2478 H2462 0.931 . S
C2478 C2472 1.383 . S
C2478 C2477 1.379 . S
H2479 C2473 0.959 . S
H2480 C2473 0.961 . S
H2481 C2473 0.960 . S
H2482 C2474 0.913 1_655 S
H2483 C2475 0.984 . S
H2484 C2492 0.929 . S
H2485 C2494 0.930 . S
H2486 C2496 0.930 . S
H2487 C2499 0.929 . S
H2488 C2502 0.930 . S
H2489 C2504 0.960 . S
H2490 C2504 0.960 . S
H2491 C2504 0.960 . S
C2492 H2484 0.929 . S
C2492 C2493 1.377 . S
C2492 C2494 1.384 . S
C2493 C2492 1.377 . S
C2493 C2499 1.390 . S
C2494 H2485 0.930 . S
C2494 C2492 1.384 . S
C2494 C2495 1.372 . S
C2495 C2494 1.372 . S
C2495 C2496 1.400 . S
C2495 C2500 1.490 . S
C2496 H2486 0.930 . S
C2496 C2495 1.400 . S
C2496 C2499 1.386 . S
H2497 C2513 0.930 . S
H2498 C2514 0.931 . S
C2499 H2487 0.929 . S
C2499 C2493 1.390 . S
C2499 C2496 1.386 . S
C2500 C2495 1.490 . S
C2500 C2502 1.395 . S
C2500 C2503 1.403 . S
H2501 C2507 0.930 . S
C2502 H2488 0.930 . S
C2502 C2500 1.395 . S
C2502 C2505 1.403 . S
C2503 C2500 1.403 . S
C2503 C2504 1.524 . S
C2503 C2507 1.400 . S
C2504 H2489 0.960 . S
C2504 H2490 0.960 . S
C2504 H2491 0.960 . S
C2504 C2503 1.524 . S
C2505 C2502 1.403 . S
C2505 C2506 1.392 . S
C2505 C2509 1.495 . S
C2506 C2505 1.392 . S
C2506 C2507 1.385 . S
C2506 C2508 1.478 . S
C2507 H2501 0.930 . S
C2507 C2503 1.400 . S
C2507 C2506 1.385 . S
C2508 C2506 1.478 . S
C2508 C2510 1.381 . S
C2508 C2514 1.383 . S
C2509 C2505 1.495 . S
C2509 H2515 0.959 . S
C2509 H2516 0.961 . S
C2509 H2517 0.960 . S
C2510 C2508 1.381 . S
C2510 C2511 1.394 . S
C2510 H2518 0.930 . S
C2511 C2510 1.394 . S
C2511 C2512 1.383 . S
C2511 H2519 0.929 . S
C2512 C2511 1.383 . S
C2512 C2513 1.377 . S
C2513 H2497 0.930 . S
C2513 C2512 1.377 . S
C2513 C2514 1.379 . S
C2514 H2498 0.931 . S
C2514 C2508 1.383 . S
C2514 C2513 1.379 . S
H2515 C2509 0.959 . S
H2516 C2509 0.961 . S
H2517 C2509 0.960 . S
H2518 C2510 0.930 . S
H2519 C2511 0.929 . S
H2520 C2528 0.929 . S
H2521 C2530 0.930 . S
H2522 C2532 0.930 . S
H2523 C2535 0.929 . S
H2524 C2538 0.930 . S
H2525 C2540 0.960 . S
H2526 C2540 0.960 . S
H2527 C2540 0.960 . S
C2528 H2520 0.929 . S
C2528 C2529 1.377 . S
C2528 C2530 1.384 . S
C2529 C2528 1.377 . S
C2529 C2535 1.390 . S
C2530 H2521 0.930 . S
C2530 C2528 1.384 . S
C2530 C2531 1.372 . S
C2531 C2530 1.372 . S
C2531 C2532 1.400 . S
C2531 C2536 1.490 . S
C2532 H2522 0.930 . S
C2532 C2531 1.400 . S
C2532 C2535 1.386 . S
H2533 C2549 0.930 . S
H2534 C2550 0.931 . S
C2535 H2523 0.929 . S
C2535 C2529 1.390 . S
C2535 C2532 1.386 . S
C2536 C2531 1.490 . S
C2536 C2538 1.395 . S
C2536 C2539 1.403 . S
H2537 C2543 0.930 . S
C2538 H2524 0.930 . S
C2538 C2536 1.395 . S
C2538 C2541 1.403 . S
C2539 C2536 1.403 . S
C2539 C2540 1.524 . S
C2539 C2543 1.400 . S
C2540 H2525 0.960 . S
C2540 H2526 0.960 . S
C2540 H2527 0.960 . S
C2540 C2539 1.524 . S
C2541 C2538 1.403 . S
C2541 C2542 1.392 . S
C2541 C2545 1.495 . S
C2542 C2541 1.392 . S
C2542 C2543 1.385 . S
C2542 C2544 1.478 . S
C2543 H2537 0.930 . S
C2543 C2539 1.400 . S
C2543 C2542 1.385 . S
C2544 C2542 1.478 . S
C2544 C2546 1.381 . S
C2544 C2550 1.383 . S
C2545 C2541 1.495 . S
C2545 H2551 0.959 . S
C2545 H2552 0.961 . S
C2545 H2553 0.960 . S
C2546 C2544 1.381 . S
C2546 C2547 1.394 . S
C2546 H2554 0.930 . S
C2547 C2546 1.394 . S
C2547 C2548 1.383 . S
C2547 H2555 0.929 . S
C2548 C2547 1.383 . S
C2548 C2549 1.377 . S
C2549 H2533 0.930 . S
C2549 C2548 1.377 . S
C2549 C2550 1.379 . S
C2550 H2534 0.931 . S
C2550 C2544 1.383 . S
C2550 C2549 1.379 . S
H2551 C2545 0.959 . S
H2552 C2545 0.961 . S
H2553 C2545 0.960 . S
H2554 C2546 0.930 . S
H2555 C2547 0.929 . S
H2556 C2564 0.929 . S
H2557 C2566 0.930 . S
H2558 C2568 0.930 . S
H2559 C2571 0.929 . S
H2560 C2574 0.930 . S
H2561 C2576 0.960 . S
H2562 C2576 0.960 . S
H2563 C2576 0.960 . S
C2564 H2556 0.929 . S
C2564 C2565 1.377 . S
C2564 C2566 1.384 . S
C2565 C2564 1.377 . S
C2565 C2571 1.390 . S
C2566 H2557 0.930 . S
C2566 C2564 1.384 . S
C2566 C2567 1.372 . S
C2567 C2566 1.372 . S
C2567 C2568 1.400 . S
C2567 C2572 1.490 . S
C2568 H2558 0.930 . S
C2568 C2567 1.400 . S
C2568 C2571 1.386 . S
H2569 C2585 0.930 . S
H2570 C2586 0.931 . S
C2571 H2559 0.929 . S
C2571 C2565 1.390 . S
C2571 C2568 1.386 . S
C2572 C2567 1.490 . S
C2572 C2574 1.395 . S
C2572 C2575 1.403 . S
H2573 C2579 0.930 . S
C2574 H2560 0.930 . S
C2574 C2572 1.395 . S
C2574 C2577 1.403 . S
C2575 C2572 1.403 . S
C2575 C2576 1.524 . S
C2575 C2579 1.400 . S
C2576 H2561 0.960 . S
C2576 H2562 0.960 . S
C2576 H2563 0.960 . S
C2576 C2575 1.524 . S
C2577 C2574 1.403 . S
C2577 C2578 1.392 . S
C2577 C2581 1.495 . S
C2578 C2577 1.392 . S
C2578 C2579 1.385 . S
C2578 C2580 1.478 . S
C2579 H2573 0.930 . S
C2579 C2575 1.400 . S
C2579 C2578 1.385 . S
C2580 C2578 1.478 . S
C2580 C2582 1.381 . S
C2580 C2586 1.383 . S
C2581 C2577 1.495 . S
C2581 H2587 0.959 . S
C2581 H2588 0.961 . S
C2581 H2589 0.960 . S
C2582 C2580 1.381 . S
C2582 C2583 1.394 . S
C2582 H2590 0.930 . S
C2583 C2582 1.394 . S
C2583 C2584 1.383 . S
C2583 H2591 0.929 . S
C2584 C2583 1.383 . S
C2584 C2585 1.377 . S
C2585 H2569 0.930 . S
C2585 C2584 1.377 . S
C2585 C2586 1.379 . S
C2586 H2570 0.931 . S
C2586 C2580 1.383 . S
C2586 C2585 1.379 . S
H2587 C2581 0.959 . S
H2588 C2581 0.961 . S
H2589 C2581 0.960 . S
H2590 C2582 0.930 . S
H2591 C2583 0.929 . S
H2592 C2600 0.929 1_655 S
H2593 C2602 0.930 1_655 S
H2594 C2604 0.930 . S
H2595 C2607 0.929 . S
H2596 C2610 0.930 . S
H2597 C2612 0.960 . S
H2598 C2612 0.959 . S
H2599 C2612 0.961 1_455 S
C2600 H2592 0.929 1_455 S
C2600 C2601 1.377 . S
C2600 C2602 1.384 . S
C2601 C2600 1.377 . S
C2601 C2607 1.390 . S
C2602 H2593 0.930 1_455 S
C2602 C2600 1.384 . S
C2602 C2603 1.372 . S
C2603 C2602 1.372 . S
C2603 C2604 1.400 . S
C2603 C2608 1.490 . S
C2604 H2594 0.930 . S
C2604 C2603 1.400 . S
C2604 C2607 1.386 . S
H2605 C2621 0.930 . S
H2606 C2622 0.931 . S
C2607 H2595 0.929 . S
C2607 C2601 1.390 . S
C2607 C2604 1.386 . S
C2608 C2603 1.490 . S
C2608 C2610 1.395 . S
C2608 C2611 1.403 . S
H2609 C2615 0.930 . S
C2610 H2596 0.930 . S
C2610 C2608 1.395 . S
C2610 C2613 1.403 . S
C2611 C2608 1.403 . S
C2611 C2612 1.524 1_455 S
C2611 C2615 1.400 . S
C2612 H2597 0.960 . S
C2612 H2598 0.959 . S
C2612 H2599 0.961 1_655 S
C2612 C2611 1.524 1_655 S
C2613 C2610 1.403 . S
C2613 C2614 1.392 . S
C2613 C2617 1.495 . S
C2614 C2613 1.392 . S
C2614 C2615 1.385 . S
C2614 C2616 1.478 . S
C2615 H2609 0.930 . S
C2615 C2611 1.400 . S
C2615 C2614 1.385 . S
C2616 C2614 1.478 . S
C2616 C2618 1.381 . S
C2616 C2622 1.383 . S
C2617 C2613 1.495 . S
C2617 H2623 0.959 . S
C2617 H2624 0.961 . S
C2617 H2625 0.960 . S
C2618 C2616 1.381 . S
C2618 C2619 1.394 . S
C2618 H2626 0.930 1_455 S
C2619 C2618 1.394 . S
C2619 C2620 1.383 . S
C2619 H2627 0.929 1_455 S
C2620 C2619 1.383 . S
C2620 C2621 1.377 . S
C2621 H2605 0.930 . S
C2621 C2620 1.377 . S
C2621 C2622 1.379 . S
C2622 H2606 0.931 . S
C2622 C2616 1.383 . S
C2622 C2621 1.379 . S
H2623 C2617 0.959 . S
H2624 C2617 0.961 . S
H2625 C2617 0.960 . S
H2626 C2618 0.930 1_655 S
H2627 C2619 0.929 1_655 S
H2628 C2636 0.929 . S
H2629 C2638 0.930 . S
H2630 C2640 0.930 . S
H2631 C2643 0.929 . S
H2632 C2646 0.930 . S
H2633 C2648 0.960 . S
H2634 C2648 0.960 . S
H2635 C2648 0.960 . S
C2636 H2628 0.929 . S
C2636 C2637 1.377 . S
C2636 C2638 1.384 . S
C2637 C2636 1.377 . S
C2637 C2643 1.390 . S
C2638 H2629 0.930 . S
C2638 C2636 1.384 . S
C2638 C2639 1.372 . S
C2639 C2638 1.372 . S
C2639 C2640 1.400 . S
C2639 C2644 1.490 . S
C2640 H2630 0.930 . S
C2640 C2639 1.400 . S
C2640 C2643 1.386 . S
H2641 C2657 0.930 . S
H2642 C2658 0.931 . S
C2643 H2631 0.929 . S
C2643 C2637 1.390 . S
C2643 C2640 1.386 . S
C2644 C2639 1.490 . S
C2644 C2646 1.395 . S
C2644 C2647 1.403 . S
H2645 C2651 0.930 . S
C2646 H2632 0.930 . S
C2646 C2644 1.395 . S
C2646 C2649 1.403 . S
C2647 C2644 1.403 . S
C2647 C2648 1.524 . S
C2647 C2651 1.400 . S
C2648 H2633 0.960 . S
C2648 H2634 0.960 . S
C2648 H2635 0.960 . S
C2648 C2647 1.524 . S
C2649 C2646 1.403 . S
C2649 C2650 1.392 . S
C2649 C2653 1.495 . S
C2650 C2649 1.392 . S
C2650 C2651 1.385 . S
C2650 C2652 1.478 . S
C2651 H2645 0.930 . S
C2651 C2647 1.400 . S
C2651 C2650 1.385 . S
C2652 C2650 1.478 . S
C2652 C2654 1.381 . S
C2652 C2658 1.383 . S
C2653 C2649 1.495 . S
C2653 H2659 0.959 . S
C2653 H2660 0.961 . S
C2653 H2661 0.960 . S
C2654 C2652 1.381 . S
C2654 C2655 1.394 . S
C2654 H2662 0.930 . S
C2655 C2654 1.394 . S
C2655 C2656 1.383 . S
C2655 H2663 0.929 . S
C2656 C2655 1.383 . S
C2656 C2657 1.377 . S
C2657 H2641 0.930 . S
C2657 C2656 1.377 . S
C2657 C2658 1.379 . S
C2658 H2642 0.931 . S
C2658 C2652 1.383 . S
C2658 C2657 1.379 . S
H2659 C2653 0.959 . S
H2660 C2653 0.961 . S
H2661 C2653 0.960 . S
H2662 C2654 0.930 . S
H2663 C2655 0.929 . S
H2664 C2672 0.929 . S
H2665 C2674 0.930 . S
H2666 C2676 0.930 . S
H2667 C2679 0.929 . S
H2668 C2682 0.930 . S
H2669 C2684 0.960 . S
H2670 C2684 0.960 . S
H2671 C2684 0.960 . S
C2672 H2664 0.929 . S
C2672 C2673 1.377 . S
C2672 C2674 1.384 . S
C2673 C2672 1.377 . S
C2673 C2679 1.390 . S
C2674 H2665 0.930 . S
C2674 C2672 1.384 . S
C2674 C2675 1.372 . S
C2675 C2674 1.372 . S
C2675 C2676 1.400 . S
C2675 C2680 1.490 . S
C2676 H2666 0.930 . S
C2676 C2675 1.400 . S
C2676 C2679 1.386 . S
H2677 C2693 0.930 . S
H2678 C2694 0.931 . S
C2679 H2667 0.929 . S
C2679 C2673 1.390 . S
C2679 C2676 1.386 . S
C2680 C2675 1.490 . S
C2680 C2682 1.395 . S
C2680 C2683 1.403 . S
H2681 C2687 0.930 . S
C2682 H2668 0.930 . S
C2682 C2680 1.395 . S
C2682 C2685 1.403 . S
C2683 C2680 1.403 . S
C2683 C2684 1.524 . S
C2683 C2687 1.400 . S
C2684 H2669 0.960 . S
C2684 H2670 0.960 . S
C2684 H2671 0.960 . S
C2684 C2683 1.524 . S
C2685 C2682 1.403 . S
C2685 C2686 1.392 . S
C2685 C2689 1.495 . S
C2686 C2685 1.392 . S
C2686 C2687 1.385 . S
C2686 C2688 1.478 . S
C2687 H2681 0.930 . S
C2687 C2683 1.400 . S
C2687 C2686 1.385 . S
C2688 C2686 1.478 . S
C2688 C2690 1.381 . S
C2688 C2694 1.383 . S
C2689 C2685 1.495 . S
C2689 H2695 0.959 . S
C2689 H2696 0.961 . S
C2689 H2697 0.960 . S
C2690 C2688 1.381 . S
C2690 C2691 1.394 . S
C2690 H2698 0.930 . S
C2691 C2690 1.394 . S
C2691 C2692 1.383 . S
C2691 H2699 0.929 . S
C2692 C2691 1.383 . S
C2692 C2693 1.377 . S
C2693 H2677 0.930 . S
C2693 C2692 1.377 . S
C2693 C2694 1.379 . S
C2694 H2678 0.931 . S
C2694 C2688 1.383 . S
C2694 C2693 1.379 . S
H2695 C2689 0.959 . S
H2696 C2689 0.961 . S
H2697 C2689 0.960 . S
H2698 C2690 0.930 . S
H2699 C2691 0.929 . S
H2700 C2708 0.929 . S
H2701 C2710 0.930 . S
H2702 C2712 0.930 . S
H2703 C2715 0.929 . S
H2704 C2718 0.930 . S
H2705 C2720 0.960 . S
H2706 C2720 0.960 . S
H2707 C2720 0.960 . S
C2708 H2700 0.929 . S
C2708 C2709 1.377 . S
C2708 C2710 1.384 . S
C2709 C2708 1.377 . S
C2709 C2715 1.390 . S
C2710 H2701 0.930 . S
C2710 C2708 1.384 . S
C2710 C2711 1.372 . S
C2711 C2710 1.372 . S
C2711 C2712 1.400 . S
C2711 C2716 1.490 . S
C2712 H2702 0.930 . S
C2712 C2711 1.400 . S
C2712 C2715 1.386 . S
H2713 C2729 0.930 . S
H2714 C2730 0.931 . S
C2715 H2703 0.929 . S
C2715 C2709 1.390 . S
C2715 C2712 1.386 . S
C2716 C2711 1.490 . S
C2716 C2718 1.395 . S
C2716 C2719 1.403 . S
H2717 C2723 0.930 . S
C2718 H2704 0.930 . S
C2718 C2716 1.395 . S
C2718 C2721 1.403 . S
C2719 C2716 1.403 . S
C2719 C2720 1.524 . S
C2719 C2723 1.400 . S
C2720 H2705 0.960 . S
C2720 H2706 0.960 . S
C2720 H2707 0.960 . S
C2720 C2719 1.524 . S
C2721 C2718 1.403 . S
C2721 C2722 1.392 . S
C2721 C2725 1.495 . S
C2722 C2721 1.392 . S
C2722 C2723 1.385 . S
C2722 C2724 1.478 . S
C2723 H2717 0.930 . S
C2723 C2719 1.400 . S
C2723 C2722 1.385 . S
C2724 C2722 1.478 . S
C2724 C2726 1.381 . S
C2724 C2730 1.383 . S
C2725 C2721 1.495 . S
C2725 H2731 0.959 . S
C2725 H2732 0.961 . S
C2725 H2733 0.960 . S
C2726 C2724 1.381 . S
C2726 C2727 1.394 . S
C2726 H2734 0.930 . S
C2727 C2726 1.394 . S
C2727 C2728 1.383 . S
C2727 H2735 0.929 . S
C2728 C2727 1.383 . S
C2728 C2729 1.377 . S
C2729 H2713 0.930 . S
C2729 C2728 1.377 . S
C2729 C2730 1.379 . S
C2730 H2714 0.931 . S
C2730 C2724 1.383 . S
C2730 C2729 1.379 . S
H2731 C2725 0.959 . S
H2732 C2725 0.961 . S
H2733 C2725 0.960 . S
H2734 C2726 0.930 . S
H2735 C2727 0.929 . S
H2736 C2744 0.929 . S
H2737 C2746 0.930 . S
H2738 C2748 0.930 . S
H2739 C2751 0.929 . S
H2740 C2754 0.930 . S
H2741 C2756 0.960 . S
H2742 C2756 0.960 . S
H2743 C2756 0.960 . S
C2744 H2736 0.929 . S
C2744 C2745 1.377 . S
C2744 C2746 1.384 . S
C2745 C2744 1.377 . S
C2745 C2751 1.390 . S
C2746 H2737 0.930 . S
C2746 C2744 1.384 . S
C2746 C2747 1.372 . S
C2747 C2746 1.372 . S
C2747 C2748 1.400 . S
C2747 C2752 1.490 . S
C2748 H2738 0.930 . S
C2748 C2747 1.400 . S
C2748 C2751 1.386 . S
H2749 C2765 0.930 . S
H2750 C2766 0.931 . S
C2751 H2739 0.929 . S
C2751 C2745 1.390 . S
C2751 C2748 1.386 . S
C2752 C2747 1.490 . S
C2752 C2754 1.395 . S
C2752 C2755 1.403 . S
H2753 C2759 0.930 . S
C2754 H2740 0.930 . S
C2754 C2752 1.395 . S
C2754 C2757 1.403 . S
C2755 C2752 1.403 . S
C2755 C2756 1.524 . S
C2755 C2759 1.400 . S
C2756 H2741 0.960 . S
C2756 H2742 0.960 . S
C2756 H2743 0.960 . S
C2756 C2755 1.524 . S
C2757 C2754 1.403 . S
C2757 C2758 1.392 . S
C2757 C2761 1.495 . S
C2758 C2757 1.392 . S
C2758 C2759 1.385 . S
C2758 C2760 1.478 . S
C2759 H2753 0.930 . S
C2759 C2755 1.400 . S
C2759 C2758 1.385 . S
C2760 C2758 1.478 . S
C2760 C2762 1.381 . S
C2760 C2766 1.383 . S
C2761 C2757 1.495 . S
C2761 H2767 0.959 . S
C2761 H2768 0.961 . S
C2761 H2769 0.960 . S
C2762 C2760 1.381 . S
C2762 C2763 1.394 . S
C2762 H2770 0.930 . S
C2763 C2762 1.394 . S
C2763 C2764 1.383 . S
C2763 H2771 0.929 . S
C2764 C2763 1.383 . S
C2764 C2765 1.377 . S
C2765 H2749 0.930 . S
C2765 C2764 1.377 . S
C2765 C2766 1.379 . S
C2766 H2750 0.931 . S
C2766 C2760 1.383 . S
C2766 C2765 1.379 . S
H2767 C2761 0.959 . S
H2768 C2761 0.961 . S
H2769 C2761 0.960 . S
H2770 C2762 0.930 . S
H2771 C2763 0.929 . S
H2772 C2780 0.929 . S
H2773 C2782 0.930 . S
H2774 C2784 0.930 . S
H2775 C2787 0.929 . S
H2776 C2790 0.930 . S
H2777 C2792 0.960 . S
H2778 C2792 0.960 . S
H2779 C2792 0.960 . S
C2780 H2772 0.929 . S
C2780 C2781 1.377 . S
C2780 C2782 1.384 . S
C2781 C2780 1.377 . S
C2781 C2787 1.390 . S
C2782 H2773 0.930 . S
C2782 C2780 1.384 . S
C2782 C2783 1.372 . S
C2783 C2782 1.372 . S
C2783 C2784 1.400 . S
C2783 C2788 1.490 . S
C2784 H2774 0.930 . S
C2784 C2783 1.400 . S
C2784 C2787 1.386 . S
H2785 C2801 0.930 . S
H2786 C2802 0.931 . S
C2787 H2775 0.929 . S
C2787 C2781 1.390 . S
C2787 C2784 1.386 . S
C2788 C2783 1.490 . S
C2788 C2790 1.395 . S
C2788 C2791 1.403 . S
H2789 C2795 0.930 . S
C2790 H2776 0.930 . S
C2790 C2788 1.395 . S
C2790 C2793 1.403 . S
C2791 C2788 1.403 . S
C2791 C2792 1.524 . S
C2791 C2795 1.400 . S
C2792 H2777 0.960 . S
C2792 H2778 0.960 . S
C2792 H2779 0.960 . S
C2792 C2791 1.524 . S
C2793 C2790 1.403 . S
C2793 C2794 1.392 . S
C2793 C2797 1.495 . S
C2794 C2793 1.392 . S
C2794 C2795 1.385 . S
C2794 C2796 1.478 . S
C2795 H2789 0.930 . S
C2795 C2791 1.400 . S
C2795 C2794 1.385 . S
C2796 C2794 1.478 . S
C2796 C2798 1.381 . S
C2796 C2802 1.383 . S
C2797 C2793 1.495 . S
C2797 H2803 0.959 . S
C2797 H2804 0.961 . S
C2797 H2805 0.960 . S
C2798 C2796 1.381 . S
C2798 C2799 1.394 . S
C2798 H2806 0.930 . S
C2799 C2798 1.394 . S
C2799 C2800 1.383 . S
C2799 H2807 0.929 . S
C2800 C2799 1.383 . S
C2800 C2801 1.377 . S
C2801 H2785 0.930 . S
C2801 C2800 1.377 . S
C2801 C2802 1.379 . S
C2802 H2786 0.931 . S
C2802 C2796 1.383 . S
C2802 C2801 1.379 . S
H2803 C2797 0.959 . S
H2804 C2797 0.961 . S
H2805 C2797 0.960 . S
H2806 C2798 0.930 . S
H2807 C2799 0.929 . S
H2808 C2816 0.929 . S
H2809 C2818 0.930 . S
H2810 C2820 0.930 . S
H2811 C2823 0.929 . S
H2812 C2826 0.930 . S
H2813 C2828 0.960 . S
H2814 C2828 0.960 . S
H2815 C2828 0.960 . S
C2816 H2808 0.929 . S
C2816 C2817 1.377 . S
C2816 C2818 1.384 . S
C2817 C2816 1.377 . S
C2817 C2823 1.390 . S
C2818 H2809 0.930 . S
C2818 C2816 1.384 . S
C2818 C2819 1.372 . S
C2819 C2818 1.372 . S
C2819 C2820 1.400 . S
C2819 C2824 1.490 . S
C2820 H2810 0.930 . S
C2820 C2819 1.400 . S
C2820 C2823 1.386 . S
H2821 C2837 0.930 . S
H2822 C2838 0.931 . S
C2823 H2811 0.929 . S
C2823 C2817 1.390 . S
C2823 C2820 1.386 . S
C2824 C2819 1.490 . S
C2824 C2826 1.395 . S
C2824 C2827 1.403 . S
H2825 C2831 0.930 . S
C2826 H2812 0.930 . S
C2826 C2824 1.395 . S
C2826 C2829 1.403 . S
C2827 C2824 1.403 . S
C2827 C2828 1.524 . S
C2827 C2831 1.400 . S
C2828 H2813 0.960 . S
C2828 H2814 0.960 . S
C2828 H2815 0.960 . S
C2828 C2827 1.524 . S
C2829 C2826 1.403 . S
C2829 C2830 1.392 . S
C2829 C2833 1.495 . S
C2830 C2829 1.392 . S
C2830 C2831 1.385 . S
C2830 C2832 1.478 . S
C2831 H2825 0.930 . S
C2831 C2827 1.400 . S
C2831 C2830 1.385 . S
C2832 C2830 1.478 . S
C2832 C2834 1.381 . S
C2832 C2838 1.383 . S
C2833 C2829 1.495 . S
C2833 H2839 0.959 . S
C2833 H2840 0.961 . S
C2833 H2841 0.960 . S
C2834 C2832 1.381 . S
C2834 C2835 1.394 . S
C2834 H2842 0.930 . S
C2835 C2834 1.394 . S
C2835 C2836 1.383 . S
C2835 H2843 0.929 . S
C2836 C2835 1.383 . S
C2836 C2837 1.377 . S
C2837 H2821 0.930 . S
C2837 C2836 1.377 . S
C2837 C2838 1.379 . S
C2838 H2822 0.931 . S
C2838 C2832 1.383 . S
C2838 C2837 1.379 . S
H2839 C2833 0.959 . S
H2840 C2833 0.961 . S
H2841 C2833 0.960 . S
H2842 C2834 0.930 . S
H2843 C2835 0.929 . S
H2844 C2852 0.929 . S
H2845 C2854 0.930 . S
H2846 C2856 0.930 . S
H2847 C2859 0.929 . S
H2848 C2862 0.930 . S
H2849 C2864 0.960 . S
H2850 C2864 0.960 . S
H2851 C2864 0.960 . S
C2852 H2844 0.929 . S
C2852 C2853 1.377 . S
C2852 C2854 1.384 . S
C2853 C2852 1.377 . S
C2853 C2859 1.390 . S
C2854 H2845 0.930 . S
C2854 C2852 1.384 . S
C2854 C2855 1.372 . S
C2855 C2854 1.372 . S
C2855 C2856 1.400 . S
C2855 C2860 1.490 . S
C2856 H2846 0.930 . S
C2856 C2855 1.400 . S
C2856 C2859 1.386 . S
H2857 C2873 0.930 . S
H2858 C2874 0.931 . S
C2859 H2847 0.929 . S
C2859 C2853 1.390 . S
C2859 C2856 1.386 . S
C2860 C2855 1.490 . S
C2860 C2862 1.395 . S
C2860 C2863 1.403 . S
H2861 C2867 0.930 . S
C2862 H2848 0.930 . S
C2862 C2860 1.395 . S
C2862 C2865 1.403 . S
C2863 C2860 1.403 . S
C2863 C2864 1.524 . S
C2863 C2867 1.400 . S
C2864 H2849 0.960 . S
C2864 H2850 0.960 . S
C2864 H2851 0.960 . S
C2864 C2863 1.524 . S
C2865 C2862 1.403 . S
C2865 C2866 1.392 . S
C2865 C2869 1.495 . S
C2866 C2865 1.392 . S
C2866 C2867 1.385 . S
C2866 C2868 1.478 . S
C2867 H2861 0.930 . S
C2867 C2863 1.400 . S
C2867 C2866 1.385 . S
C2868 C2866 1.478 . S
C2868 C2870 1.381 . S
C2868 C2874 1.383 . S
C2869 C2865 1.495 . S
C2869 H2875 0.959 . S
C2869 H2876 0.961 . S
C2869 H2877 0.960 . S
C2870 C2868 1.381 . S
C2870 C2871 1.394 . S
C2870 H2878 0.930 . S
C2871 C2870 1.394 . S
C2871 C2872 1.383 . S
C2871 H2879 0.929 . S
C2872 C2871 1.383 . S
C2872 C2873 1.377 . S
C2873 H2857 0.930 . S
C2873 C2872 1.377 . S
C2873 C2874 1.379 . S
C2874 H2858 0.931 . S
C2874 C2868 1.383 . S
C2874 C2873 1.379 . S
H2875 C2869 0.959 . S
H2876 C2869 0.961 . S
H2877 C2869 0.960 . S
H2878 C2870 0.930 . S
H2879 C2871 0.929 . S
H2880 C2888 0.929 . S
H2881 C2890 0.930 . S
H2882 C2892 0.930 . S
H2883 C2895 0.929 . S
H2884 C2898 0.930 . S
H2885 C2900 0.960 . S
H2886 C2900 0.960 . S
H2887 C2900 0.960 . S
C2888 H2880 0.929 . S
C2888 C2889 1.377 . S
C2888 C2890 1.384 . S
C2889 C2888 1.377 . S
C2889 C2895 1.390 . S
C2890 H2881 0.930 . S
C2890 C2888 1.384 . S
C2890 C2891 1.372 . S
C2891 C2890 1.372 . S
C2891 C2892 1.400 . S
C2891 C2896 1.490 . S
C2892 H2882 0.930 . S
C2892 C2891 1.400 . S
C2892 C2895 1.386 . S
H2893 C2909 0.930 . S
H2894 C2910 0.931 . S
C2895 H2883 0.929 . S
C2895 C2889 1.390 . S
C2895 C2892 1.386 . S
C2896 C2891 1.490 . S
C2896 C2898 1.395 . S
C2896 C2899 1.403 . S
H2897 C2903 0.930 . S
C2898 H2884 0.930 . S
C2898 C2896 1.395 . S
C2898 C2901 1.403 . S
C2899 C2896 1.403 . S
C2899 C2900 1.524 . S
C2899 C2903 1.400 . S
C2900 H2885 0.960 . S
C2900 H2886 0.960 . S
C2900 H2887 0.960 . S
C2900 C2899 1.524 . S
C2901 C2898 1.403 . S
C2901 C2902 1.392 . S
C2901 C2905 1.495 . S
C2902 C2901 1.392 . S
C2902 C2903 1.385 . S
C2902 C2904 1.478 . S
C2903 H2897 0.930 . S
C2903 C2899 1.400 . S
C2903 C2902 1.385 . S
C2904 C2902 1.478 . S
C2904 C2906 1.381 . S
C2904 C2910 1.383 . S
C2905 C2901 1.495 . S
C2905 H2911 0.959 . S
C2905 H2912 0.961 . S
C2905 H2913 0.960 . S
C2906 C2904 1.381 . S
C2906 C2907 1.394 . S
C2906 H2914 0.930 . S
C2907 C2906 1.394 . S
C2907 C2908 1.383 . S
C2907 H2915 0.929 . S
C2908 C2907 1.383 . S
C2908 C2909 1.377 . S
C2909 H2893 0.930 . S
C2909 C2908 1.377 . S
C2909 C2910 1.379 . S
C2910 H2894 0.931 . S
C2910 C2904 1.383 . S
C2910 C2909 1.379 . S
H2911 C2905 0.959 . S
H2912 C2905 0.961 . S
H2913 C2905 0.960 . S
H2914 C2906 0.930 . S
H2915 C2907 0.929 . S
H2916 C2924 0.929 . S
H2917 C2926 0.930 . S
H2918 C2928 0.930 . S
H2919 C2931 0.929 . S
H2920 C2934 0.930 . S
H2921 C2936 0.960 . S
H2922 C2936 0.960 . S
H2923 C2936 0.960 . S
C2924 H2916 0.929 . S
C2924 C2925 1.377 . S
C2924 C2926 1.384 . S
C2925 C2924 1.377 . S
C2925 C2931 1.390 . S
C2926 H2917 0.930 . S
C2926 C2924 1.384 . S
C2926 C2927 1.372 . S
C2927 C2926 1.372 . S
C2927 C2928 1.400 . S
C2927 C2932 1.490 . S
C2928 H2918 0.930 . S
C2928 C2927 1.400 . S
C2928 C2931 1.386 . S
H2929 C2945 0.930 . S
H2930 C2946 0.931 . S
C2931 H2919 0.929 . S
C2931 C2925 1.390 . S
C2931 C2928 1.386 . S
C2932 C2927 1.490 . S
C2932 C2934 1.395 . S
C2932 C2935 1.403 . S
H2933 C2939 0.930 . S
C2934 H2920 0.930 . S
C2934 C2932 1.395 . S
C2934 C2937 1.403 . S
C2935 C2932 1.403 . S
C2935 C2936 1.524 . S
C2935 C2939 1.400 . S
C2936 H2921 0.960 . S
C2936 H2922 0.960 . S
C2936 H2923 0.960 . S
C2936 C2935 1.524 . S
C2937 C2934 1.403 . S
C2937 C2938 1.392 . S
C2937 C2941 1.495 . S
C2938 C2937 1.392 . S
C2938 C2939 1.385 . S
C2938 C2940 1.478 . S
C2939 H2933 0.930 . S
C2939 C2935 1.400 . S
C2939 C2938 1.385 . S
C2940 C2938 1.478 . S
C2940 C2942 1.381 . S
C2940 C2946 1.383 . S
C2941 C2937 1.495 . S
C2941 H2947 0.959 . S
C2941 H2948 0.961 . S
C2941 H2949 0.960 . S
C2942 C2940 1.381 . S
C2942 C2943 1.394 . S
C2942 H2950 0.930 . S
C2943 C2942 1.394 . S
C2943 C2944 1.383 . S
C2943 H2951 0.929 . S
C2944 C2943 1.383 . S
C2944 C2945 1.377 . S
C2945 H2929 0.930 . S
C2945 C2944 1.377 . S
C2945 C2946 1.379 . S
C2946 H2930 0.931 . S
C2946 C2940 1.383 . S
C2946 C2945 1.379 . S
H2947 C2941 0.959 . S
H2948 C2941 0.961 . S
H2949 C2941 0.960 . S
H2950 C2942 0.930 . S
H2951 C2943 0.929 . S
H2952 C2960 0.929 . S
H2953 C2962 0.930 . S
H2954 C2964 0.930 . S
H2955 C2967 0.929 . S
H2956 C2970 0.930 . S
H2957 C2972 0.960 . S
H2958 C2972 0.960 . S
H2959 C2972 0.960 . S
C2960 H2952 0.929 . S
C2960 C2961 1.377 . S
C2960 C2962 1.384 . S
C2961 C2960 1.377 . S
C2961 C2967 1.390 . S
C2962 H2953 0.930 . S
C2962 C2960 1.384 . S
C2962 C2963 1.372 . S
C2963 C2962 1.372 . S
C2963 C2964 1.400 . S
C2963 C2968 1.490 . S
C2964 H2954 0.930 . S
C2964 C2963 1.400 . S
C2964 C2967 1.386 . S
H2965 C2981 0.930 . S
H2966 C2982 0.931 . S
C2967 H2955 0.929 . S
C2967 C2961 1.390 . S
C2967 C2964 1.386 . S
C2968 C2963 1.490 . S
C2968 C2970 1.395 . S
C2968 C2971 1.403 . S
H2969 C2975 0.930 . S
C2970 H2956 0.930 . S
C2970 C2968 1.395 . S
C2970 C2973 1.403 . S
C2971 C2968 1.403 . S
C2971 C2972 1.524 . S
C2971 C2975 1.400 . S
C2972 H2957 0.960 . S
C2972 H2958 0.960 . S
C2972 H2959 0.960 . S
C2972 C2971 1.524 . S
C2973 C2970 1.403 . S
C2973 C2974 1.392 . S
C2973 C2977 1.495 . S
C2974 C2973 1.392 . S
C2974 C2975 1.385 . S
C2974 C2976 1.478 . S
C2975 H2969 0.930 . S
C2975 C2971 1.400 . S
C2975 C2974 1.385 . S
C2976 C2974 1.478 . S
C2976 C2978 1.381 . S
C2976 C2982 1.383 . S
C2977 C2973 1.495 . S
C2977 H2983 0.959 . S
C2977 H2984 0.961 . S
C2977 H2985 0.960 . S
C2978 C2976 1.381 . S
C2978 C2979 1.394 . S
C2978 H2986 0.930 . S
C2979 C2978 1.394 . S
C2979 C2980 1.383 . S
C2979 H2987 0.929 . S
C2980 C2979 1.383 . S
C2980 C2981 1.377 . S
C2981 H2965 0.930 . S
C2981 C2980 1.377 . S
C2981 C2982 1.379 . S
C2982 H2966 0.931 . S
C2982 C2976 1.383 . S
C2982 C2981 1.379 . S
H2983 C2977 0.959 . S
H2984 C2977 0.961 . S
H2985 C2977 0.960 . S
H2986 C2978 0.930 . S
H2987 C2979 0.929 . S
H2988 C2996 0.929 . S
H2989 C2998 0.930 . S
H2990 C3000 0.930 . S
H2991 C3003 0.929 . S
H2992 C3006 0.930 . S
H2993 C3008 0.960 . S
H2994 C3008 0.960 . S
H2995 C3008 0.960 . S
C2996 H2988 0.929 . S
C2996 C2997 1.377 . S
C2996 C2998 1.384 . S
C2997 C2996 1.377 . S
C2997 C3003 1.390 . S
C2998 H2989 0.930 . S
C2998 C2996 1.384 . S
C2998 C2999 1.372 . S
C2999 C2998 1.372 . S
C2999 C3000 1.400 . S
C2999 C3004 1.490 . S
C3000 H2990 0.930 . S
C3000 C2999 1.400 . S
C3000 C3003 1.386 . S
H3001 C3017 0.930 . S
H3002 C3018 0.931 . S
C3003 H2991 0.929 . S
C3003 C2997 1.390 . S
C3003 C3000 1.386 . S
C3004 C2999 1.490 . S
C3004 C3006 1.395 . S
C3004 C3007 1.403 . S
H3005 C3011 0.930 . S
C3006 H2992 0.930 . S
C3006 C3004 1.395 . S
C3006 C3009 1.403 . S
C3007 C3004 1.403 . S
C3007 C3008 1.524 . S
C3007 C3011 1.400 . S
C3008 H2993 0.960 . S
C3008 H2994 0.960 . S
C3008 H2995 0.960 . S
C3008 C3007 1.524 . S
C3009 C3006 1.403 . S
C3009 C3010 1.392 . S
C3009 C3013 1.495 . S
C3010 C3009 1.392 . S
C3010 C3011 1.385 . S
C3010 C3012 1.478 . S
C3011 H3005 0.930 . S
C3011 C3007 1.400 . S
C3011 C3010 1.385 . S
C3012 C3010 1.478 . S
C3012 C3014 1.381 . S
C3012 C3018 1.383 . S
C3013 C3009 1.495 . S
C3013 H3019 0.959 . S
C3013 H3020 0.961 . S
C3013 H3021 0.960 . S
C3014 C3012 1.381 . S
C3014 C3015 1.394 . S
C3014 H3022 0.930 . S
C3015 C3014 1.394 . S
C3015 C3016 1.383 . S
C3015 H3023 0.929 . S
C3016 C3015 1.383 . S
C3016 C3017 1.377 . S
C3017 H3001 0.930 . S
C3017 C3016 1.377 . S
C3017 C3018 1.379 . S
C3018 H3002 0.931 . S
C3018 C3012 1.383 . S
C3018 C3017 1.379 . S
H3019 C3013 0.959 . S
H3020 C3013 0.961 . S
H3021 C3013 0.960 . S
H3022 C3014 0.930 . S
H3023 C3015 0.929 . S
H3024 C3032 0.929 . S
H3025 C3034 0.930 . S
H3026 C3036 0.930 . S
H3027 C3039 0.929 . S
H3028 C3042 0.930 . S
H3029 C3044 0.960 . S
H3030 C3044 0.960 . S
H3031 C3044 0.960 . S
C3032 H3024 0.929 . S
C3032 C3033 1.377 . S
C3032 C3034 1.384 . S
C3033 C3032 1.377 . S
C3033 C3039 1.390 . S
C3034 H3025 0.930 . S
C3034 C3032 1.384 . S
C3034 C3035 1.372 . S
C3035 C3034 1.372 . S
C3035 C3036 1.400 . S
C3035 C3040 1.490 . S
C3036 H3026 0.930 . S
C3036 C3035 1.400 . S
C3036 C3039 1.386 . S
H3037 C3053 0.930 . S
H3038 C3054 0.931 . S
C3039 H3027 0.929 . S
C3039 C3033 1.390 . S
C3039 C3036 1.386 . S
C3040 C3035 1.490 . S
C3040 C3042 1.395 . S
C3040 C3043 1.403 . S
H3041 C3047 0.930 . S
C3042 H3028 0.930 . S
C3042 C3040 1.395 . S
C3042 C3045 1.403 . S
C3043 C3040 1.403 . S
C3043 C3044 1.524 . S
C3043 C3047 1.400 . S
C3044 H3029 0.960 . S
C3044 H3030 0.960 . S
C3044 H3031 0.960 . S
C3044 C3043 1.524 . S
C3045 C3042 1.403 . S
C3045 C3046 1.392 . S
C3045 C3049 1.495 . S
C3046 C3045 1.392 . S
C3046 C3047 1.385 . S
C3046 C3048 1.478 . S
C3047 H3041 0.930 . S
C3047 C3043 1.400 . S
C3047 C3046 1.385 . S
C3048 C3046 1.478 . S
C3048 C3050 1.381 . S
C3048 C3054 1.383 . S
C3049 C3045 1.495 . S
C3049 H3055 0.959 . S
C3049 H3056 0.961 . S
C3049 H3057 0.960 . S
C3050 C3048 1.381 . S
C3050 C3051 1.394 . S
C3050 H3058 0.930 . S
C3051 C3050 1.394 . S
C3051 C3052 1.383 . S
C3051 H3059 0.929 . S
C3052 C3051 1.383 . S
C3052 C3053 1.377 . S
C3053 H3037 0.930 . S
C3053 C3052 1.377 . S
C3053 C3054 1.379 . S
C3054 H3038 0.931 . S
C3054 C3048 1.383 . S
C3054 C3053 1.379 . S
H3055 C3049 0.959 . S
H3056 C3049 0.961 . S
H3057 C3049 0.960 . S
H3058 C3050 0.930 . S
H3059 C3051 0.929 . S
H3060 C3068 0.929 . S
H3061 C3070 0.930 . S
H3062 C3072 0.930 1_556 S
H3063 C3075 0.929 1_556 S
H3064 C3078 0.930 . S
H3065 C3080 0.960 . S
H3066 C3080 0.960 . S
H3067 C3080 0.960 . S
C3068 H3060 0.929 . S
C3068 C3069 1.377 . S
C3068 C3070 1.384 . S
C3069 C3068 1.377 . S
C3069 C3075 1.390 . S
C3070 H3061 0.930 . S
C3070 C3068 1.384 . S
C3070 C3071 1.372 . S
C3071 C3070 1.372 . S
C3071 C3072 1.400 . S
C3071 C3076 1.490 . S
C3072 H3062 0.930 1_554 S
C3072 C3071 1.400 . S
C3072 C3075 1.386 . S
H3073 C3089 0.930 1_556 S
H3074 C3090 0.931 1_556 S
C3075 H3063 0.929 1_554 S
C3075 C3069 1.390 . S
C3075 C3072 1.386 . S
C3076 C3071 1.490 . S
C3076 C3078 1.395 . S
C3076 C3079 1.403 . S
H3077 C3083 0.930 . S
C3078 H3064 0.930 . S
C3078 C3076 1.395 . S
C3078 C3081 1.403 . S
C3079 C3076 1.403 . S
C3079 C3080 1.524 . S
C3079 C3083 1.400 . S
C3080 H3065 0.960 . S
C3080 H3066 0.960 . S
C3080 H3067 0.960 . S
C3080 C3079 1.524 . S
C3081 C3078 1.403 . S
C3081 C3082 1.392 . S
C3081 C3085 1.495 1_554 S
C3082 C3081 1.392 . S
C3082 C3083 1.385 . S
C3082 C3084 1.478 . S
C3083 H3077 0.930 . S
C3083 C3079 1.400 . S
C3083 C3082 1.385 . S
C3084 C3082 1.478 . S
C3084 C3086 1.381 . S
C3084 C3090 1.383 . S
C3085 C3081 1.495 1_556 S
C3085 H3091 0.959 . S
C3085 H3092 0.961 . S
C3085 H3093 0.960 1_556 S
C3086 C3084 1.381 . S
C3086 C3087 1.394 . S
C3086 H3094 0.930 . S
C3087 C3086 1.394 . S
C3087 C3088 1.383 . S
C3087 H3095 0.929 . S
C3088 C3087 1.383 . S
C3088 C3089 1.377 . S
C3089 H3073 0.930 1_554 S
C3089 C3088 1.377 . S
C3089 C3090 1.379 . S
C3090 H3074 0.931 1_554 S
C3090 C3084 1.383 . S
C3090 C3089 1.379 . S
H3091 C3085 0.959 . S
H3092 C3085 0.961 . S
H3093 C3085 0.960 1_554 S
H3094 C3086 0.930 . S
H3095 C3087 0.929 . S
H3096 C3104 0.929 . S
H3097 C3106 0.930 . S
H3098 C3108 0.930 . S
H3099 C3111 0.929 . S
H3100 C3114 0.930 . S
H3101 C3116 0.960 . S
H3102 C3116 0.960 . S
H3103 C3116 0.960 . S
C3104 H3096 0.929 . S
C3104 C3105 1.377 . S
C3104 C3106 1.384 . S
C3105 C3104 1.377 . S
C3105 C3111 1.390 . S
C3106 H3097 0.930 . S
C3106 C3104 1.384 . S
C3106 C3107 1.372 . S
C3107 C3106 1.372 . S
C3107 C3108 1.400 . S
C3107 C3112 1.490 . S
C3108 H3098 0.930 . S
C3108 C3107 1.400 . S
C3108 C3111 1.386 . S
H3109 C3125 0.930 . S
H3110 C3126 0.931 . S
C3111 H3099 0.929 . S
C3111 C3105 1.390 . S
C3111 C3108 1.386 . S
C3112 C3107 1.490 . S
C3112 C3114 1.395 . S
C3112 C3115 1.403 . S
H3113 C3119 0.930 . S
C3114 H3100 0.930 . S
C3114 C3112 1.395 . S
C3114 C3117 1.403 . S
C3115 C3112 1.403 . S
C3115 C3116 1.524 . S
C3115 C3119 1.400 . S
C3116 H3101 0.960 . S
C3116 H3102 0.960 . S
C3116 H3103 0.960 . S
C3116 C3115 1.524 . S
C3117 C3114 1.403 . S
C3117 C3118 1.392 . S
C3117 C3121 1.495 . S
C3118 C3117 1.392 . S
C3118 C3119 1.385 . S
C3118 C3120 1.478 . S
C3119 H3113 0.930 . S
C3119 C3115 1.400 . S
C3119 C3118 1.385 . S
C3120 C3118 1.478 . S
C3120 C3122 1.381 . S
C3120 C3126 1.383 . S
C3121 C3117 1.495 . S
C3121 H3127 0.959 . S
C3121 H3128 0.961 . S
C3121 H3129 0.960 . S
C3122 C3120 1.381 . S
C3122 C3123 1.394 . S
C3122 H3130 0.930 . S
C3123 C3122 1.394 . S
C3123 C3124 1.383 . S
C3123 H3131 0.929 . S
C3124 C3123 1.383 . S
C3124 C3125 1.377 . S
C3125 H3109 0.930 . S
C3125 C3124 1.377 . S
C3125 C3126 1.379 . S
C3126 H3110 0.931 . S
C3126 C3120 1.383 . S
C3126 C3125 1.379 . S
H3127 C3121 0.959 . S
H3128 C3121 0.961 . S
H3129 C3121 0.960 . S
H3130 C3122 0.930 . S
H3131 C3123 0.929 . S
H3132 C3140 0.929 . S
H3133 C3142 0.930 . S
H3134 C3144 0.930 . S
H3135 C3147 0.929 . S
H3136 C3150 0.930 . S
H3137 C3152 0.960 . S
H3138 C3152 0.960 1_556 S
H3139 C3152 0.960 . S
C3140 H3132 0.929 . S
C3140 C3141 1.377 1_556 S
C3140 C3142 1.384 . S
C3141 C3140 1.377 1_554 S
C3141 C3147 1.390 . S
C3142 H3133 0.930 . S
C3142 C3140 1.384 . S
C3142 C3143 1.405 . S
C3143 C3142 1.405 . S
C3143 C3144 1.365 1_556 S
C3143 C3148 1.492 . S
C3144 H3134 0.930 . S
C3144 C3143 1.365 1_554 S
C3144 C3147 1.386 . S
H3145 C3161 0.930 . S
H3146 C3162 0.931 . S
C3147 H3135 0.929 . S
C3147 C3141 1.390 . S
C3147 C3144 1.386 . S
C3148 C3143 1.492 . S
C3148 C3150 1.395 . S
C3148 C3151 1.402 1_556 S
H3149 C3155 0.930 1_554 S
C3150 H3136 0.930 . S
C3150 C3148 1.395 . S
C3150 C3153 1.403 . S
C3151 C3148 1.402 1_554 S
C3151 C3152 1.525 . S
C3151 C3155 1.400 1_554 S
C3152 H3137 0.960 . S
C3152 H3138 0.960 1_554 S
C3152 H3139 0.960 . S
C3152 C3151 1.525 . S
C3153 C3150 1.403 . S
C3153 C3154 1.392 . S
C3153 C3157 1.495 . S
C3154 C3153 1.392 . S
C3154 C3155 1.386 . S
C3154 C3156 1.478 . S
C3155 H3149 0.930 1_556 S
C3155 C3151 1.400 1_556 S
C3155 C3154 1.386 . S
C3156 C3154 1.478 . S
C3156 C3158 1.381 . S
C3156 C3162 1.383 1_556 S
C3157 C3153 1.495 . S
C3157 H3163 0.959 . S
C3157 H3164 0.961 1_556 S
C3157 H3165 0.960 . S
C3158 C3156 1.381 . S
C3158 C3159 1.394 . S
C3158 H3166 0.930 . S
C3159 C3158 1.394 . S
C3159 C3160 1.383 . S
C3159 H3167 0.929 . S
C3160 C3159 1.383 . S
C3160 C3161 1.377 1_556 S
C3161 H3145 0.930 . S
C3161 C3160 1.377 1_554 S
C3161 C3162 1.379 . S
C3162 H3146 0.931 . S
C3162 C3156 1.383 1_554 S
C3162 C3161 1.379 . S
H3163 C3157 0.959 . S
H3164 C3157 0.961 1_554 S
H3165 C3157 0.960 . S
H3166 C3158 0.930 . S
H3167 C3159 0.929 . S
H3168 C3176 0.929 . S
H3169 C3178 0.930 . S
H3170 C3180 0.930 . S
H3171 C3183 0.929 . S
H3172 C3186 0.930 . S
H3173 C3188 0.960 . S
H3174 C3188 0.960 . S
H3175 C3188 0.960 . S
C3176 H3168 0.929 . S
C3176 C3177 1.377 . S
C3176 C3178 1.384 . S
C3177 C3176 1.377 . S
C3177 C3183 1.390 . S
C3178 H3169 0.930 . S
C3178 C3176 1.384 . S
C3178 C3179 1.372 . S
C3179 C3178 1.372 . S
C3179 C3180 1.400 . S
C3179 C3184 1.490 . S
C3180 H3170 0.930 . S
C3180 C3179 1.400 . S
C3180 C3183 1.386 . S
H3181 C3197 0.930 . S
H3182 C3198 0.931 . S
C3183 H3171 0.929 . S
C3183 C3177 1.390 . S
C3183 C3180 1.386 . S
C3184 C3179 1.490 . S
C3184 C3186 1.395 . S
C3184 C3187 1.403 . S
H3185 C3191 0.930 . S
C3186 H3172 0.930 . S
C3186 C3184 1.395 . S
C3186 C3189 1.403 . S
C3187 C3184 1.403 . S
C3187 C3188 1.524 . S
C3187 C3191 1.400 . S
C3188 H3173 0.960 . S
C3188 H3174 0.960 . S
C3188 H3175 0.960 . S
C3188 C3187 1.524 . S
C3189 C3186 1.403 . S
C3189 C3190 1.392 . S
C3189 C3193 1.495 . S
C3190 C3189 1.392 . S
C3190 C3191 1.385 . S
C3190 C3192 1.478 . S
C3191 H3185 0.930 . S
C3191 C3187 1.400 . S
C3191 C3190 1.385 . S
C3192 C3190 1.478 . S
C3192 C3194 1.381 . S
C3192 C3198 1.383 . S
C3193 C3189 1.495 . S
C3193 H3199 0.959 . S
C3193 H3200 0.961 . S
C3193 H3201 0.960 . S
C3194 C3192 1.381 . S
C3194 C3195 1.394 . S
C3194 H3202 0.930 . S
C3195 C3194 1.394 . S
C3195 C3196 1.383 . S
C3195 H3203 0.929 . S
C3196 C3195 1.383 . S
C3196 C3197 1.377 . S
C3197 H3181 0.930 . S
C3197 C3196 1.377 . S
C3197 C3198 1.379 . S
C3198 H3182 0.931 . S
C3198 C3192 1.383 . S
C3198 C3197 1.379 . S
H3199 C3193 0.959 . S
H3200 C3193 0.961 . S
H3201 C3193 0.960 . S
H3202 C3194 0.930 . S
H3203 C3195 0.929 . S
H3204 C3212 0.929 . S
H3205 C3214 0.930 . S
H3206 C3216 0.930 . S
H3207 C3219 0.929 . S
H3208 C3222 0.930 . S
H3209 C3224 0.960 . S
H3210 C3224 0.960 . S
H3211 C3224 0.960 . S
C3212 H3204 0.929 . S
C3212 C3213 1.377 . S
C3212 C3214 1.384 . S
C3213 C3212 1.377 . S
C3213 C3219 1.390 . S
C3214 H3205 0.930 . S
C3214 C3212 1.384 . S
C3214 C3215 1.372 . S
C3215 C3214 1.372 . S
C3215 C3216 1.400 . S
C3215 C3220 1.490 . S
C3216 H3206 0.930 . S
C3216 C3215 1.400 . S
C3216 C3219 1.386 . S
H3217 C3233 0.930 . S
H3218 C3234 0.931 . S
C3219 H3207 0.929 . S
C3219 C3213 1.390 . S
C3219 C3216 1.386 . S
C3220 C3215 1.490 . S
C3220 C3222 1.395 . S
C3220 C3223 1.403 . S
H3221 C3227 0.930 . S
C3222 H3208 0.930 . S
C3222 C3220 1.395 . S
C3222 C3225 1.403 . S
C3223 C3220 1.403 . S
C3223 C3224 1.524 . S
C3223 C3227 1.400 . S
C3224 H3209 0.960 . S
C3224 H3210 0.960 . S
C3224 H3211 0.960 . S
C3224 C3223 1.524 . S
C3225 C3222 1.403 . S
C3225 C3226 1.392 . S
C3225 C3229 1.495 . S
C3226 C3225 1.392 . S
C3226 C3227 1.385 . S
C3226 C3228 1.478 . S
C3227 H3221 0.930 . S
C3227 C3223 1.400 . S
C3227 C3226 1.385 . S
C3228 C3226 1.478 . S
C3228 C3230 1.381 . S
C3228 C3234 1.383 . S
C3229 C3225 1.495 . S
C3229 H3235 0.959 . S
C3229 H3236 0.961 . S
C3229 H3237 0.960 . S
C3230 C3228 1.381 . S
C3230 C3231 1.394 . S
C3230 H3238 0.930 . S
C3231 C3230 1.394 . S
C3231 C3232 1.383 . S
C3231 H3239 0.929 . S
C3232 C3231 1.383 . S
C3232 C3233 1.377 . S
C3233 H3217 0.930 . S
C3233 C3232 1.377 . S
C3233 C3234 1.379 . S
C3234 H3218 0.931 . S
C3234 C3228 1.383 . S
C3234 C3233 1.379 . S
H3235 C3229 0.959 . S
H3236 C3229 0.961 . S
H3237 C3229 0.960 . S
H3238 C3230 0.930 . S
H3239 C3231 0.929 . S
H3240 C3248 0.929 . S
H3241 C3250 0.930 . S
H3242 C3252 0.930 . S
H3243 C3255 0.929 . S
H3244 C3258 0.930 . S
H3245 C3260 0.960 . S
H3246 C3260 0.960 . S
H3247 C3260 0.960 . S
C3248 H3240 0.929 . S
C3248 C3249 1.377 . S
C3248 C3250 1.384 . S
C3249 C3248 1.377 . S
C3249 C3255 1.390 . S
C3250 H3241 0.930 . S
C3250 C3248 1.384 . S
C3250 C3251 1.372 . S
C3251 C3250 1.372 . S
C3251 C3252 1.400 . S
C3251 C3256 1.490 . S
C3252 H3242 0.930 . S
C3252 C3251 1.400 . S
C3252 C3255 1.386 . S
H3253 C3269 0.930 . S
H3254 C3270 0.931 . S
C3255 H3243 0.929 . S
C3255 C3249 1.390 . S
C3255 C3252 1.386 . S
C3256 C3251 1.490 . S
C3256 C3258 1.395 . S
C3256 C3259 1.403 . S
H3257 C3263 0.930 . S
C3258 H3244 0.930 . S
C3258 C3256 1.395 . S
C3258 C3261 1.403 . S
C3259 C3256 1.403 . S
C3259 C3260 1.524 . S
C3259 C3263 1.400 . S
C3260 H3245 0.960 . S
C3260 H3246 0.960 . S
C3260 H3247 0.960 . S
C3260 C3259 1.524 . S
C3261 C3258 1.403 . S
C3261 C3262 1.392 . S
C3261 C3265 1.495 . S
C3262 C3261 1.392 . S
C3262 C3263 1.385 . S
C3262 C3264 1.478 . S
C3263 H3257 0.930 . S
C3263 C3259 1.400 . S
C3263 C3262 1.385 . S
C3264 C3262 1.478 . S
C3264 C3266 1.381 . S
C3264 C3270 1.383 . S
C3265 C3261 1.495 . S
C3265 H3271 0.959 . S
C3265 H3272 0.961 . S
C3265 H3273 0.960 . S
C3266 C3264 1.381 . S
C3266 C3267 1.394 . S
C3266 H3274 0.930 . S
C3267 C3266 1.394 . S
C3267 C3268 1.383 . S
C3267 H3275 0.929 . S
C3268 C3267 1.383 . S
C3268 C3269 1.377 . S
C3269 H3253 0.930 . S
C3269 C3268 1.377 . S
C3269 C3270 1.379 . S
C3270 H3254 0.931 . S
C3270 C3264 1.383 . S
C3270 C3269 1.379 . S
H3271 C3265 0.959 . S
H3272 C3265 0.961 . S
H3273 C3265 0.960 . S
H3274 C3266 0.930 . S
H3275 C3267 0.929 . S
H3276 C3284 0.929 . S
H3277 C3286 0.930 . S
H3278 C3288 0.930 . S
H3279 C3291 0.929 . S
H3280 C3294 0.930 . S
H3281 C3296 0.960 . S
H3282 C3296 0.960 . S
H3283 C3296 0.960 . S
C3284 H3276 0.929 . S
C3284 C3285 1.377 . S
C3284 C3286 1.384 . S
C3285 C3284 1.377 . S
C3285 C3291 1.390 . S
C3286 H3277 0.930 . S
C3286 C3284 1.384 . S
C3286 C3287 1.372 . S
C3287 C3286 1.372 . S
C3287 C3288 1.400 . S
C3287 C3292 1.490 . S
C3288 H3278 0.930 . S
C3288 C3287 1.400 . S
C3288 C3291 1.386 . S
H3289 C3305 0.930 . S
H3290 C3306 0.931 . S
C3291 H3279 0.929 . S
C3291 C3285 1.390 . S
C3291 C3288 1.386 . S
C3292 C3287 1.490 . S
C3292 C3294 1.395 . S
C3292 C3295 1.403 . S
H3293 C3299 0.930 . S
C3294 H3280 0.930 . S
C3294 C3292 1.395 . S
C3294 C3297 1.403 . S
C3295 C3292 1.403 . S
C3295 C3296 1.524 . S
C3295 C3299 1.400 . S
C3296 H3281 0.960 . S
C3296 H3282 0.960 . S
C3296 H3283 0.960 . S
C3296 C3295 1.524 . S
C3297 C3294 1.403 . S
C3297 C3298 1.392 . S
C3297 C3301 1.495 . S
C3298 C3297 1.392 . S
C3298 C3299 1.385 . S
C3298 C3300 1.478 . S
C3299 H3293 0.930 . S
C3299 C3295 1.400 . S
C3299 C3298 1.385 . S
C3300 C3298 1.478 . S
C3300 C3302 1.381 . S
C3300 C3306 1.383 . S
C3301 C3297 1.495 . S
C3301 H3307 0.959 . S
C3301 H3308 0.961 . S
C3301 H3309 0.960 . S
C3302 C3300 1.381 . S
C3302 C3303 1.394 . S
C3302 H3310 0.930 . S
C3303 C3302 1.394 . S
C3303 C3304 1.383 . S
C3303 H3311 0.929 . S
C3304 C3303 1.383 . S
C3304 C3305 1.377 . S
C3305 H3289 0.930 . S
C3305 C3304 1.377 . S
C3305 C3306 1.379 . S
C3306 H3290 0.931 . S
C3306 C3300 1.383 . S
C3306 C3305 1.379 . S
H3307 C3301 0.959 . S
H3308 C3301 0.961 . S
H3309 C3301 0.960 . S
H3310 C3302 0.930 . S
H3311 C3303 0.929 . S
H3312 C3320 0.929 . S
H3313 C3322 0.930 . S
H3314 C3324 0.930 . S
H3315 C3327 0.929 . S
H3316 C3330 0.930 . S
H3317 C3332 0.960 . S
H3318 C3332 0.960 1_455 S
H3319 C3332 0.960 . S
C3320 H3312 0.929 . S
C3320 C3321 1.377 . S
C3320 C3322 1.384 . S
C3321 C3320 1.377 . S
C3321 C3327 1.390 1_455 S
C3322 H3313 0.930 . S
C3322 C3320 1.384 . S
C3322 C3323 1.372 . S
C3323 C3322 1.372 . S
C3323 C3324 1.400 1_455 S
C3323 C3328 1.490 . S
C3324 H3314 0.930 . S
C3324 C3323 1.400 1_655 S
C3324 C3327 1.386 . S
H3325 C3341 0.930 . S
H3326 C3342 0.931 . S
C3327 H3315 0.929 . S
C3327 C3321 1.390 1_655 S
C3327 C3324 1.386 . S
C3328 C3323 1.490 . S
C3328 C3330 1.395 . S
C3328 C3331 1.403 . S
H3329 C3335 0.930 1_655 S
C3330 H3316 0.930 . S
C3330 C3328 1.395 . S
C3330 C3333 1.403 . S
C3331 C3328 1.403 . S
C3331 C3332 1.524 1_455 S
C3331 C3335 1.400 . S
C3332 H3317 0.960 . S
C3332 H3318 0.960 1_655 S
C3332 H3319 0.960 . S
C3332 C3331 1.524 1_655 S
C3333 C3330 1.403 . S
C3333 C3334 1.392 . S
C3333 C3337 1.495 . S
C3334 C3333 1.392 . S
C3334 C3335 1.385 . S
C3334 C3336 1.478 . S
C3335 H3329 0.930 1_455 S
C3335 C3331 1.400 . S
C3335 C3334 1.385 . S
C3336 C3334 1.478 . S
C3336 C3338 1.381 . S
C3336 C3342 1.383 1_455 S
C3337 C3333 1.495 . S
C3337 H3343 0.959 . S
C3337 H3344 0.961 . S
C3337 H3345 0.960 . S
C3338 C3336 1.381 . S
C3338 C3339 1.394 . S
C3338 H3346 0.930 . S
C3339 C3338 1.394 . S
C3339 C3340 1.383 . S
C3339 H3347 0.929 . S
C3340 C3339 1.383 . S
C3340 C3341 1.377 1_455 S
C3341 H3325 0.930 . S
C3341 C3340 1.377 1_655 S
C3341 C3342 1.379 . S
C3342 H3326 0.931 . S
C3342 C3336 1.383 1_655 S
C3342 C3341 1.379 . S
H3343 C3337 0.959 . S
H3344 C3337 0.961 . S
H3345 C3337 0.960 . S
H3346 C3338 0.930 . S
H3347 C3339 0.929 . S
H3348 C3356 0.929 . S
H3349 C3358 0.930 . S
H3350 C3360 0.930 . S
H3351 C3363 0.929 . S
H3352 C3366 0.930 . S
H3353 C3368 0.960 . S
H3354 C3368 0.960 . S
H3355 C3368 0.960 . S
C3356 H3348 0.929 . S
C3356 C3357 1.377 . S
C3356 C3358 1.384 . S
C3357 C3356 1.377 . S
C3357 C3363 1.390 . S
C3358 H3349 0.930 . S
C3358 C3356 1.384 . S
C3358 C3359 1.372 . S
C3359 C3358 1.372 . S
C3359 C3360 1.400 . S
C3359 C3364 1.490 . S
C3360 H3350 0.930 . S
C3360 C3359 1.400 . S
C3360 C3363 1.386 . S
H3361 C3377 0.930 . S
H3362 C3378 0.931 . S
C3363 H3351 0.929 . S
C3363 C3357 1.390 . S
C3363 C3360 1.386 . S
C3364 C3359 1.490 . S
C3364 C3366 1.395 . S
C3364 C3367 1.403 . S
H3365 C3371 0.930 . S
C3366 H3352 0.930 . S
C3366 C3364 1.395 . S
C3366 C3369 1.403 . S
C3367 C3364 1.403 . S
C3367 C3368 1.524 . S
C3367 C3371 1.400 . S
C3368 H3353 0.960 . S
C3368 H3354 0.960 . S
C3368 H3355 0.960 . S
C3368 C3367 1.524 . S
C3369 C3366 1.403 . S
C3369 C3370 1.392 . S
C3369 C3373 1.495 . S
C3370 C3369 1.392 . S
C3370 C3371 1.385 . S
C3370 C3372 1.478 . S
C3371 H3365 0.930 . S
C3371 C3367 1.400 . S
C3371 C3370 1.385 . S
C3372 C3370 1.478 . S
C3372 C3374 1.381 . S
C3372 C3378 1.383 . S
C3373 C3369 1.495 . S
C3373 H3379 0.959 . S
C3373 H3380 0.961 . S
C3373 H3381 0.960 . S
C3374 C3372 1.381 . S
C3374 C3375 1.394 . S
C3374 H3382 0.930 . S
C3375 C3374 1.394 . S
C3375 C3376 1.383 . S
C3375 H3383 0.929 . S
C3376 C3375 1.383 . S
C3376 C3377 1.377 . S
C3377 H3361 0.930 . S
C3377 C3376 1.377 . S
C3377 C3378 1.379 . S
C3378 H3362 0.931 . S
C3378 C3372 1.383 . S
C3378 C3377 1.379 . S
H3379 C3373 0.959 . S
H3380 C3373 0.961 . S
H3381 C3373 0.960 . S
H3382 C3374 0.930 . S
H3383 C3375 0.929 . S
H3384 C3392 0.929 . S
H3385 C3394 0.930 . S
H3386 C3396 0.930 . S
H3387 C3399 0.929 . S
H3388 C3402 0.930 . S
H3389 C3404 0.960 . S
H3390 C3404 0.960 . S
H3391 C3404 0.960 . S
C3392 H3384 0.929 . S
C3392 C3393 1.377 . S
C3392 C3394 1.384 . S
C3393 C3392 1.377 . S
C3393 C3399 1.390 . S
C3394 H3385 0.930 . S
C3394 C3392 1.384 . S
C3394 C3395 1.372 . S
C3395 C3394 1.372 . S
C3395 C3396 1.400 . S
C3395 C3400 1.490 . S
C3396 H3386 0.930 . S
C3396 C3395 1.400 . S
C3396 C3399 1.386 . S
H3397 C3413 0.930 . S
H3398 C3414 0.931 . S
C3399 H3387 0.929 . S
C3399 C3393 1.390 . S
C3399 C3396 1.386 . S
C3400 C3395 1.490 . S
C3400 C3402 1.395 . S
C3400 C3403 1.403 . S
H3401 C3407 0.930 . S
C3402 H3388 0.930 . S
C3402 C3400 1.395 . S
C3402 C3405 1.403 . S
C3403 C3400 1.403 . S
C3403 C3404 1.524 . S
C3403 C3407 1.400 . S
C3404 H3389 0.960 . S
C3404 H3390 0.960 . S
C3404 H3391 0.960 . S
C3404 C3403 1.524 . S
C3405 C3402 1.403 . S
C3405 C3406 1.392 . S
C3405 C3409 1.495 . S
C3406 C3405 1.392 . S
C3406 C3407 1.385 . S
C3406 C3408 1.478 . S
C3407 H3401 0.930 . S
C3407 C3403 1.400 . S
C3407 C3406 1.385 . S
C3408 C3406 1.478 . S
C3408 C3410 1.381 . S
C3408 C3414 1.383 . S
C3409 C3405 1.495 . S
C3409 H3415 0.959 . S
C3409 H3416 0.961 . S
C3409 H3417 0.960 . S
C3410 C3408 1.381 . S
C3410 C3411 1.394 . S
C3410 H3418 0.930 . S
C3411 C3410 1.394 . S
C3411 C3412 1.383 . S
C3411 H3419 0.929 . S
C3412 C3411 1.383 . S
C3412 C3413 1.377 . S
C3413 H3397 0.930 . S
C3413 C3412 1.377 . S
C3413 C3414 1.379 . S
C3414 H3398 0.931 . S
C3414 C3408 1.383 . S
C3414 C3413 1.379 . S
H3415 C3409 0.959 . S
H3416 C3409 0.961 . S
H3417 C3409 0.960 . S
H3418 C3410 0.930 . S
H3419 C3411 0.929 . S
H3420 C3428 0.929 . S
H3421 C3430 0.930 . S
H3422 C3432 0.930 . S
H3423 C3435 0.929 . S
H3424 C3438 0.930 . S
H3425 C3440 0.960 . S
H3426 C3440 0.960 . S
H3427 C3440 0.960 . S
C3428 H3420 0.929 . S
C3428 C3429 1.377 . S
C3428 C3430 1.384 . S
C3429 C3428 1.377 . S
C3429 C3435 1.390 . S
C3430 H3421 0.930 . S
C3430 C3428 1.384 . S
C3430 C3431 1.372 . S
C3431 C3430 1.372 . S
C3431 C3432 1.400 . S
C3431 C3436 1.490 . S
C3432 H3422 0.930 . S
C3432 C3431 1.400 . S
C3432 C3435 1.386 . S
H3433 C3449 0.930 . S
H3434 C3450 0.931 . S
C3435 H3423 0.929 . S
C3435 C3429 1.390 . S
C3435 C3432 1.386 . S
C3436 C3431 1.490 . S
C3436 C3438 1.395 . S
C3436 C3439 1.403 . S
H3437 C3443 0.930 . S
C3438 H3424 0.930 . S
C3438 C3436 1.395 . S
C3438 C3441 1.403 . S
C3439 C3436 1.403 . S
C3439 C3440 1.524 . S
C3439 C3443 1.400 . S
C3440 H3425 0.960 . S
C3440 H3426 0.960 . S
C3440 H3427 0.960 . S
C3440 C3439 1.524 . S
C3441 C3438 1.403 . S
C3441 C3442 1.392 . S
C3441 C3445 1.495 . S
C3442 C3441 1.392 . S
C3442 C3443 1.385 . S
C3442 C3444 1.478 . S
C3443 H3437 0.930 . S
C3443 C3439 1.400 . S
C3443 C3442 1.385 . S
C3444 C3442 1.478 . S
C3444 C3446 1.381 . S
C3444 C3450 1.383 . S
C3445 C3441 1.495 . S
C3445 H3451 0.959 . S
C3445 H3452 0.961 . S
C3445 H3453 0.960 . S
C3446 C3444 1.381 . S
C3446 C3447 1.394 . S
C3446 H3454 0.930 . S
C3447 C3446 1.394 . S
C3447 C3448 1.383 . S
C3447 H3455 0.929 . S
C3448 C3447 1.383 . S
C3448 C3449 1.377 . S
C3449 H3433 0.930 . S
C3449 C3448 1.377 . S
C3449 C3450 1.379 . S
C3450 H3434 0.931 . S
C3450 C3444 1.383 . S
C3450 C3449 1.379 . S
H3451 C3445 0.959 . S
H3452 C3445 0.961 . S
H3453 C3445 0.960 . S
H3454 C3446 0.930 . S
H3455 C3447 0.929 . S
H3456 C3464 0.929 . S
H3457 C3466 0.930 . S
H3458 C3468 0.934 . S
H3459 C3471 0.911 1_655 S
H3460 C3474 0.930 . S
H3461 C3476 0.960 . S
H3462 C3476 0.960 . S
H3463 C3476 0.960 . S
C3464 H3456 0.929 . S
C3464 C3465 1.377 . S
C3464 C3466 1.384 . S
C3465 C3464 1.377 . S
C3465 C3471 1.411 . S
C3466 H3457 0.930 . S
C3466 C3464 1.384 . S
C3466 C3467 1.372 . S
C3467 C3466 1.372 . S
C3467 C3468 1.396 1_455 S
C3467 C3472 1.490 . S
C3468 H3458 0.934 . S
C3468 C3467 1.396 1_655 S
C3468 C3471 1.384 1_655 S
H3469 C3485 0.930 . S
H3470 C3486 0.941 . S
C3471 H3459 0.911 1_455 S
C3471 C3465 1.411 . S
C3471 C3468 1.384 1_455 S
C3472 C3467 1.490 . S
C3472 C3474 1.395 . S
C3472 C3475 1.403 1_455 S
H3473 C3479 0.930 . S
C3474 H3460 0.930 . S
C3474 C3472 1.395 . S
C3474 C3477 1.403 . S
C3475 C3472 1.403 1_655 S
C3475 C3476 1.524 . S
C3475 C3479 1.400 . S
C3476 H3461 0.960 . S
C3476 H3462 0.960 . S
C3476 H3463 0.960 . S
C3476 C3475 1.524 . S
C3477 C3474 1.403 . S
C3477 C3478 1.392 . S
C3477 C3481 1.495 . S
C3478 C3477 1.392 . S
C3478 C3479 1.385 1_455 S
C3478 C3480 1.478 . S
C3479 H3473 0.930 . S
C3479 C3475 1.400 . S
C3479 C3478 1.385 1_655 S
C3480 C3478 1.478 . S
C3480 C3482 1.381 . S
C3480 C3486 1.370 1_455 S
C3481 C3477 1.495 . S
C3481 H3487 0.959 . S
C3481 H3488 0.961 . S
C3481 H3489 0.960 . S
C3482 C3480 1.381 . S
C3482 C3483 1.394 . S
C3482 H3490 0.930 . S
C3483 C3482 1.394 . S
C3483 C3484 1.383 . S
C3483 H3491 0.929 . S
C3484 C3483 1.383 . S
C3484 C3485 1.377 1_455 S
C3485 H3469 0.930 . S
C3485 C3484 1.377 1_655 S
C3485 C3486 1.383 . S
C3486 H3470 0.941 . S
C3486 C3480 1.370 1_655 S
C3486 C3485 1.383 . S
H3487 C3481 0.959 . S
H3488 C3481 0.961 . S
H3489 C3481 0.960 . S
H3490 C3482 0.930 . S
H3491 C3483 0.929 . S
H3492 C3500 0.929 . S
H3493 C3502 0.930 . S
H3494 C3504 0.930 . S
H3495 C3507 0.929 . S
H3496 C3510 0.930 . S
H3497 C3512 0.960 . S
H3498 C3512 0.960 . S
H3499 C3512 0.960 . S
C3500 H3492 0.929 . S
C3500 C3501 1.377 . S
C3500 C3502 1.384 . S
C3501 C3500 1.377 . S
C3501 C3507 1.390 . S
C3502 H3493 0.930 . S
C3502 C3500 1.384 . S
C3502 C3503 1.372 . S
C3503 C3502 1.372 . S
C3503 C3504 1.400 . S
C3503 C3508 1.490 . S
C3504 H3494 0.930 . S
C3504 C3503 1.400 . S
C3504 C3507 1.386 . S
H3505 C3521 0.930 . S
H3506 C3522 0.931 . S
C3507 H3495 0.929 . S
C3507 C3501 1.390 . S
C3507 C3504 1.386 . S
C3508 C3503 1.490 . S
C3508 C3510 1.395 . S
C3508 C3511 1.403 . S
H3509 C3515 0.930 . S
C3510 H3496 0.930 . S
C3510 C3508 1.395 . S
C3510 C3513 1.403 . S
C3511 C3508 1.403 . S
C3511 C3512 1.524 . S
C3511 C3515 1.400 . S
C3512 H3497 0.960 . S
C3512 H3498 0.960 . S
C3512 H3499 0.960 . S
C3512 C3511 1.524 . S
C3513 C3510 1.403 . S
C3513 C3514 1.392 . S
C3513 C3517 1.495 . S
C3514 C3513 1.392 . S
C3514 C3515 1.385 . S
C3514 C3516 1.478 . S
C3515 H3509 0.930 . S
C3515 C3511 1.400 . S
C3515 C3514 1.385 . S
C3516 C3514 1.478 . S
C3516 C3518 1.381 . S
C3516 C3522 1.383 . S
C3517 C3513 1.495 . S
C3517 H3523 0.959 . S
C3517 H3524 0.961 . S
C3517 H3525 0.960 . S
C3518 C3516 1.381 . S
C3518 C3519 1.394 . S
C3518 H3526 0.930 . S
C3519 C3518 1.394 . S
C3519 C3520 1.383 . S
C3519 H3527 0.929 . S
C3520 C3519 1.383 . S
C3520 C3521 1.377 . S
C3521 H3505 0.930 . S
C3521 C3520 1.377 . S
C3521 C3522 1.379 . S
C3522 H3506 0.931 . S
C3522 C3516 1.383 . S
C3522 C3521 1.379 . S
H3523 C3517 0.959 . S
H3524 C3517 0.961 . S
H3525 C3517 0.960 . S
H3526 C3518 0.930 . S
H3527 C3519 0.929 . S
H3528 C3536 0.929 . S
H3529 C3538 0.930 . S
H3530 C3540 0.930 . S
H3531 C3543 0.929 . S
H3532 C3546 0.930 . S
H3533 C3548 0.960 . S
H3534 C3548 0.960 . S
H3535 C3548 0.960 . S
C3536 H3528 0.929 . S
C3536 C3537 1.377 . S
C3536 C3538 1.384 . S
C3537 C3536 1.377 . S
C3537 C3543 1.390 . S
C3538 H3529 0.930 . S
C3538 C3536 1.384 . S
C3538 C3539 1.372 . S
C3539 C3538 1.372 . S
C3539 C3540 1.400 . S
C3539 C3544 1.490 . S
C3540 H3530 0.930 . S
C3540 C3539 1.400 . S
C3540 C3543 1.386 . S
H3541 C3557 0.930 . S
H3542 C3558 0.931 . S
C3543 H3531 0.929 . S
C3543 C3537 1.390 . S
C3543 C3540 1.386 . S
C3544 C3539 1.490 . S
C3544 C3546 1.395 . S
C3544 C3547 1.403 . S
H3545 C3551 0.930 . S
C3546 H3532 0.930 . S
C3546 C3544 1.395 . S
C3546 C3549 1.403 . S
C3547 C3544 1.403 . S
C3547 C3548 1.524 . S
C3547 C3551 1.400 . S
C3548 H3533 0.960 . S
C3548 H3534 0.960 . S
C3548 H3535 0.960 . S
C3548 C3547 1.524 . S
C3549 C3546 1.403 . S
C3549 C3550 1.392 . S
C3549 C3553 1.495 . S
C3550 C3549 1.392 . S
C3550 C3551 1.385 . S
C3550 C3552 1.478 . S
C3551 H3545 0.930 . S
C3551 C3547 1.400 . S
C3551 C3550 1.385 . S
C3552 C3550 1.478 . S
C3552 C3554 1.381 . S
C3552 C3558 1.383 . S
C3553 C3549 1.495 . S
C3553 H3559 0.959 . S
C3553 H3560 0.961 . S
C3553 H3561 0.960 . S
C3554 C3552 1.381 . S
C3554 C3555 1.394 . S
C3554 H3562 0.930 . S
C3555 C3554 1.394 . S
C3555 C3556 1.383 . S
C3555 H3563 0.929 . S
C3556 C3555 1.383 . S
C3556 C3557 1.377 . S
C3557 H3541 0.930 . S
C3557 C3556 1.377 . S
C3557 C3558 1.379 . S
C3558 H3542 0.931 . S
C3558 C3552 1.383 . S
C3558 C3557 1.379 . S
H3559 C3553 0.959 . S
H3560 C3553 0.961 . S
H3561 C3553 0.960 . S
H3562 C3554 0.930 . S
H3563 C3555 0.929 . S
H3564 C3572 0.929 . S
H3565 C3574 0.930 . S
H3566 C3576 0.930 . S
H3567 C3579 0.929 . S
H3568 C3582 0.930 . S
H3569 C3584 0.960 . S
H3570 C3584 0.960 . S
H3571 C3584 0.960 . S
C3572 H3564 0.929 . S
C3572 C3573 1.377 . S
C3572 C3574 1.384 . S
C3573 C3572 1.377 . S
C3573 C3579 1.390 . S
C3574 H3565 0.930 . S
C3574 C3572 1.384 . S
C3574 C3575 1.372 . S
C3575 C3574 1.372 . S
C3575 C3576 1.400 . S
C3575 C3580 1.490 . S
C3576 H3566 0.930 . S
C3576 C3575 1.400 . S
C3576 C3579 1.386 . S
H3577 C3593 0.930 . S
H3578 C3594 0.931 . S
C3579 H3567 0.929 . S
C3579 C3573 1.390 . S
C3579 C3576 1.386 . S
C3580 C3575 1.490 . S
C3580 C3582 1.395 . S
C3580 C3583 1.403 . S
H3581 C3587 0.930 . S
C3582 H3568 0.930 . S
C3582 C3580 1.395 . S
C3582 C3585 1.403 . S
C3583 C3580 1.403 . S
C3583 C3584 1.524 . S
C3583 C3587 1.400 . S
C3584 H3569 0.960 . S
C3584 H3570 0.960 . S
C3584 H3571 0.960 . S
C3584 C3583 1.524 . S
C3585 C3582 1.403 . S
C3585 C3586 1.392 . S
C3585 C3589 1.495 . S
C3586 C3585 1.392 . S
C3586 C3587 1.385 . S
C3586 C3588 1.478 . S
C3587 H3581 0.930 . S
C3587 C3583 1.400 . S
C3587 C3586 1.385 . S
C3588 C3586 1.478 . S
C3588 C3590 1.381 . S
C3588 C3594 1.383 . S
C3589 C3585 1.495 . S
C3589 H3595 0.959 . S
C3589 H3596 0.961 . S
C3589 H3597 0.960 . S
C3590 C3588 1.381 . S
C3590 C3591 1.394 . S
C3590 H3598 0.930 . S
C3591 C3590 1.394 . S
C3591 C3592 1.383 . S
C3591 H3599 0.929 . S
C3592 C3591 1.383 . S
C3592 C3593 1.377 . S
C3593 H3577 0.930 . S
C3593 C3592 1.377 . S
C3593 C3594 1.379 . S
C3594 H3578 0.931 . S
C3594 C3588 1.383 . S
C3594 C3593 1.379 . S
H3595 C3589 0.959 . S
H3596 C3589 0.961 . S
H3597 C3589 0.960 . S
H3598 C3590 0.930 . S
H3599 C3591 0.929 . S
H3600 C3608 0.929 . S
H3601 C3610 0.930 . S
H3602 C3612 0.930 . S
H3603 C3615 0.929 . S
H3604 C3618 0.930 . S
H3605 C3620 0.960 . S
H3606 C3620 0.960 . S
H3607 C3620 0.960 . S
C3608 H3600 0.929 . S
C3608 C3609 1.377 . S
C3608 C3610 1.384 . S
C3609 C3608 1.377 . S
C3609 C3615 1.390 . S
C3610 H3601 0.930 . S
C3610 C3608 1.384 . S
C3610 C3611 1.372 . S
C3611 C3610 1.372 . S
C3611 C3612 1.400 . S
C3611 C3616 1.490 . S
C3612 H3602 0.930 . S
C3612 C3611 1.400 . S
C3612 C3615 1.386 . S
H3613 C3629 0.930 . S
H3614 C3630 0.931 . S
C3615 H3603 0.929 . S
C3615 C3609 1.390 . S
C3615 C3612 1.386 . S
C3616 C3611 1.490 . S
C3616 C3618 1.395 . S
C3616 C3619 1.403 . S
H3617 C3623 0.930 . S
C3618 H3604 0.930 . S
C3618 C3616 1.395 . S
C3618 C3621 1.403 . S
C3619 C3616 1.403 . S
C3619 C3620 1.524 . S
C3619 C3623 1.400 . S
C3620 H3605 0.960 . S
C3620 H3606 0.960 . S
C3620 H3607 0.960 . S
C3620 C3619 1.524 . S
C3621 C3618 1.403 . S
C3621 C3622 1.392 . S
C3621 C3625 1.495 . S
C3622 C3621 1.392 . S
C3622 C3623 1.385 . S
C3622 C3624 1.478 . S
C3623 H3617 0.930 . S
C3623 C3619 1.400 . S
C3623 C3622 1.385 . S
C3624 C3622 1.478 . S
C3624 C3626 1.381 . S
C3624 C3630 1.383 . S
C3625 C3621 1.495 . S
C3625 H3631 0.959 . S
C3625 H3632 0.961 . S
C3625 H3633 0.960 . S
C3626 C3624 1.381 . S
C3626 C3627 1.394 . S
C3626 H3634 0.930 . S
C3627 C3626 1.394 . S
C3627 C3628 1.383 . S
C3627 H3635 0.929 . S
C3628 C3627 1.383 . S
C3628 C3629 1.377 . S
C3629 H3613 0.930 . S
C3629 C3628 1.377 . S
C3629 C3630 1.379 . S
C3630 H3614 0.931 . S
C3630 C3624 1.383 . S
C3630 C3629 1.379 . S
H3631 C3625 0.959 . S
H3632 C3625 0.961 . S
H3633 C3625 0.960 . S
H3634 C3626 0.930 . S
H3635 C3627 0.929 . S
H3636 C3644 0.929 . S
H3637 C3646 0.930 . S
H3638 C3648 0.930 . S
H3639 C3651 0.929 . S
H3640 C3654 0.930 . S
H3641 C3656 0.960 . S
H3642 C3656 0.960 . S
H3643 C3656 0.960 . S
C3644 H3636 0.929 . S
C3644 C3645 1.377 . S
C3644 C3646 1.384 . S
C3645 C3644 1.377 . S
C3645 C3651 1.390 . S
C3646 H3637 0.930 . S
C3646 C3644 1.384 . S
C3646 C3647 1.372 . S
C3647 C3646 1.372 . S
C3647 C3648 1.400 . S
C3647 C3652 1.490 . S
C3648 H3638 0.930 . S
C3648 C3647 1.400 . S
C3648 C3651 1.386 . S
H3649 C3665 0.930 . S
H3650 C3666 0.931 . S
C3651 H3639 0.929 . S
C3651 C3645 1.390 . S
C3651 C3648 1.386 . S
C3652 C3647 1.490 . S
C3652 C3654 1.395 . S
C3652 C3655 1.403 . S
H3653 C3659 0.930 . S
C3654 H3640 0.930 . S
C3654 C3652 1.395 . S
C3654 C3657 1.403 . S
C3655 C3652 1.403 . S
C3655 C3656 1.524 . S
C3655 C3659 1.400 . S
C3656 H3641 0.960 . S
C3656 H3642 0.960 . S
C3656 H3643 0.960 . S
C3656 C3655 1.524 . S
C3657 C3654 1.403 . S
C3657 C3658 1.392 . S
C3657 C3661 1.495 . S
C3658 C3657 1.392 . S
C3658 C3659 1.385 . S
C3658 C3660 1.478 . S
C3659 H3653 0.930 . S
C3659 C3655 1.400 . S
C3659 C3658 1.385 . S
C3660 C3658 1.478 . S
C3660 C3662 1.381 . S
C3660 C3666 1.383 . S
C3661 C3657 1.495 . S
C3661 H3667 0.959 . S
C3661 H3668 0.961 . S
C3661 H3669 0.960 . S
C3662 C3660 1.381 . S
C3662 C3663 1.394 . S
C3662 H3670 0.930 . S
C3663 C3662 1.394 . S
C3663 C3664 1.383 . S
C3663 H3671 0.929 . S
C3664 C3663 1.383 . S
C3664 C3665 1.377 . S
C3665 H3649 0.930 . S
C3665 C3664 1.377 . S
C3665 C3666 1.379 . S
C3666 H3650 0.931 . S
C3666 C3660 1.383 . S
C3666 C3665 1.379 . S
H3667 C3661 0.959 . S
H3668 C3661 0.961 . S
H3669 C3661 0.960 . S
H3670 C3662 0.930 . S
H3671 C3663 0.929 . S
H3672 C3680 0.929 . S
H3673 C3682 0.930 . S
H3674 C3684 0.930 . S
H3675 C3687 0.929 . S
H3676 C3690 0.930 . S
H3677 C3692 0.960 . S
H3678 C3692 0.960 . S
H3679 C3692 0.960 . S
C3680 H3672 0.929 . S
C3680 C3681 1.377 . S
C3680 C3682 1.384 . S
C3681 C3680 1.377 . S
C3681 C3687 1.390 . S
C3682 H3673 0.930 . S
C3682 C3680 1.384 . S
C3682 C3683 1.372 . S
C3683 C3682 1.372 . S
C3683 C3684 1.400 . S
C3683 C3688 1.490 . S
C3684 H3674 0.930 . S
C3684 C3683 1.400 . S
C3684 C3687 1.386 . S
H3685 C3701 0.930 . S
H3686 C3702 0.931 . S
C3687 H3675 0.929 . S
C3687 C3681 1.390 . S
C3687 C3684 1.386 . S
C3688 C3683 1.490 . S
C3688 C3690 1.395 . S
C3688 C3691 1.403 . S
H3689 C3695 0.930 . S
C3690 H3676 0.930 . S
C3690 C3688 1.395 . S
C3690 C3693 1.403 . S
C3691 C3688 1.403 . S
C3691 C3692 1.524 . S
C3691 C3695 1.400 . S
C3692 H3677 0.960 . S
C3692 H3678 0.960 . S
C3692 H3679 0.960 . S
C3692 C3691 1.524 . S
C3693 C3690 1.403 . S
C3693 C3694 1.392 . S
C3693 C3697 1.495 . S
C3694 C3693 1.392 . S
C3694 C3695 1.385 . S
C3694 C3696 1.478 . S
C3695 H3689 0.930 . S
C3695 C3691 1.400 . S
C3695 C3694 1.385 . S
C3696 C3694 1.478 . S
C3696 C3698 1.381 . S
C3696 C3702 1.383 . S
C3697 C3693 1.495 . S
C3697 H3703 0.959 . S
C3697 H3704 0.961 . S
C3697 H3705 0.960 . S
C3698 C3696 1.381 . S
C3698 C3699 1.394 . S
C3698 H3706 0.930 . S
C3699 C3698 1.394 . S
C3699 C3700 1.383 . S
C3699 H3707 0.929 . S
C3700 C3699 1.383 . S
C3700 C3701 1.377 . S
C3701 H3685 0.930 . S
C3701 C3700 1.377 . S
C3701 C3702 1.379 . S
C3702 H3686 0.931 . S
C3702 C3696 1.383 . S
C3702 C3701 1.379 . S
H3703 C3697 0.959 . S
H3704 C3697 0.961 . S
H3705 C3697 0.960 . S
H3706 C3698 0.930 . S
H3707 C3699 0.929 . S
H3708 C3716 0.929 . S
H3709 C3718 0.930 . S
H3710 C3720 0.930 . S
H3711 C3723 0.929 . S
H3712 C3726 0.930 . S
H3713 C3728 0.960 . S
H3714 C3728 0.960 . S
H3715 C3728 0.960 . S
C3716 H3708 0.929 . S
C3716 C3717 1.377 . S
C3716 C3718 1.384 . S
C3717 C3716 1.377 . S
C3717 C3723 1.390 . S
C3718 H3709 0.930 . S
C3718 C3716 1.384 . S
C3718 C3719 1.372 . S
C3719 C3718 1.372 . S
C3719 C3720 1.400 . S
C3719 C3724 1.490 . S
C3720 H3710 0.930 . S
C3720 C3719 1.400 . S
C3720 C3723 1.386 . S
H3721 C3737 0.930 . S
H3722 C3738 0.931 . S
C3723 H3711 0.929 . S
C3723 C3717 1.390 . S
C3723 C3720 1.386 . S
C3724 C3719 1.490 . S
C3724 C3726 1.395 . S
C3724 C3727 1.403 . S
H3725 C3731 0.930 . S
C3726 H3712 0.930 . S
C3726 C3724 1.395 . S
C3726 C3729 1.403 . S
C3727 C3724 1.403 . S
C3727 C3728 1.524 . S
C3727 C3731 1.400 . S
C3728 H3713 0.960 . S
C3728 H3714 0.960 . S
C3728 H3715 0.960 . S
C3728 C3727 1.524 . S
C3729 C3726 1.403 . S
C3729 C3730 1.392 . S
C3729 C3733 1.495 . S
C3730 C3729 1.392 . S
C3730 C3731 1.385 . S
C3730 C3732 1.478 . S
C3731 H3725 0.930 . S
C3731 C3727 1.400 . S
C3731 C3730 1.385 . S
C3732 C3730 1.478 . S
C3732 C3734 1.381 . S
C3732 C3738 1.383 . S
C3733 C3729 1.495 . S
C3733 H3739 0.959 . S
C3733 H3740 0.961 . S
C3733 H3741 0.960 . S
C3734 C3732 1.381 . S
C3734 C3735 1.394 . S
C3734 H3742 0.930 . S
C3735 C3734 1.394 . S
C3735 C3736 1.383 . S
C3735 H3743 0.929 . S
C3736 C3735 1.383 . S
C3736 C3737 1.377 . S
C3737 H3721 0.930 . S
C3737 C3736 1.377 . S
C3737 C3738 1.379 . S
C3738 H3722 0.931 . S
C3738 C3732 1.383 . S
C3738 C3737 1.379 . S
H3739 C3733 0.959 . S
H3740 C3733 0.961 . S
H3741 C3733 0.960 . S
H3742 C3734 0.930 . S
H3743 C3735 0.929 . S
H3744 C3752 0.929 . S
H3745 C3754 0.930 . S
H3746 C3756 0.930 . S
H3747 C3759 0.929 . S
H3748 C3762 0.930 . S
H3749 C3764 0.960 . S
H3750 C3764 0.960 . S
H3751 C3764 0.960 . S
C3752 H3744 0.929 . S
C3752 C3753 1.377 . S
C3752 C3754 1.384 . S
C3753 C3752 1.377 . S
C3753 C3759 1.390 . S
C3754 H3745 0.930 . S
C3754 C3752 1.384 . S
C3754 C3755 1.372 . S
C3755 C3754 1.372 . S
C3755 C3756 1.400 . S
C3755 C3760 1.490 . S
C3756 H3746 0.930 . S
C3756 C3755 1.400 . S
C3756 C3759 1.386 . S
H3757 C3773 0.930 . S
H3758 C3774 0.931 . S
C3759 H3747 0.929 . S
C3759 C3753 1.390 . S
C3759 C3756 1.386 . S
C3760 C3755 1.490 . S
C3760 C3762 1.395 . S
C3760 C3763 1.403 . S
H3761 C3767 0.930 . S
C3762 H3748 0.930 . S
C3762 C3760 1.395 . S
C3762 C3765 1.403 . S
C3763 C3760 1.403 . S
C3763 C3764 1.524 . S
C3763 C3767 1.400 . S
C3764 H3749 0.960 . S
C3764 H3750 0.960 . S
C3764 H3751 0.960 . S
C3764 C3763 1.524 . S
C3765 C3762 1.403 . S
C3765 C3766 1.392 . S
C3765 C3769 1.495 . S
C3766 C3765 1.392 . S
C3766 C3767 1.385 . S
C3766 C3768 1.478 . S
C3767 H3761 0.930 . S
C3767 C3763 1.400 . S
C3767 C3766 1.385 . S
C3768 C3766 1.478 . S
C3768 C3770 1.381 . S
C3768 C3774 1.383 . S
C3769 C3765 1.495 . S
C3769 H3775 0.959 . S
C3769 H3776 0.961 . S
C3769 H3777 0.960 . S
C3770 C3768 1.381 . S
C3770 C3771 1.394 . S
C3770 H3778 0.930 . S
C3771 C3770 1.394 . S
C3771 C3772 1.383 . S
C3771 H3779 0.929 . S
C3772 C3771 1.383 . S
C3772 C3773 1.377 . S
C3773 H3757 0.930 . S
C3773 C3772 1.377 . S
C3773 C3774 1.379 . S
C3774 H3758 0.931 . S
C3774 C3768 1.383 . S
C3774 C3773 1.379 . S
H3775 C3769 0.959 . S
H3776 C3769 0.961 . S
H3777 C3769 0.960 . S
H3778 C3770 0.930 . S
H3779 C3771 0.929 . S
H3780 C3788 0.929 . S
H3781 C3790 0.930 . S
H3782 C3792 0.930 . S
H3783 C3795 0.929 . S
H3784 C3798 0.930 . S
H3785 C3800 0.960 . S
H3786 C3800 0.960 . S
H3787 C3800 0.960 . S
C3788 H3780 0.929 . S
C3788 C3789 1.377 . S
C3788 C3790 1.384 . S
C3789 C3788 1.377 . S
C3789 C3795 1.390 . S
C3790 H3781 0.930 . S
C3790 C3788 1.384 . S
C3790 C3791 1.372 . S
C3791 C3790 1.372 . S
C3791 C3792 1.400 . S
C3791 C3796 1.490 . S
C3792 H3782 0.930 . S
C3792 C3791 1.400 . S
C3792 C3795 1.386 . S
H3793 C3809 0.930 . S
H3794 C3810 0.931 . S
C3795 H3783 0.929 . S
C3795 C3789 1.390 . S
C3795 C3792 1.386 . S
C3796 C3791 1.490 . S
C3796 C3798 1.395 . S
C3796 C3799 1.403 . S
H3797 C3803 0.930 . S
C3798 H3784 0.930 . S
C3798 C3796 1.395 . S
C3798 C3801 1.403 . S
C3799 C3796 1.403 . S
C3799 C3800 1.524 . S
C3799 C3803 1.400 . S
C3800 H3785 0.960 . S
C3800 H3786 0.960 . S
C3800 H3787 0.960 . S
C3800 C3799 1.524 . S
C3801 C3798 1.403 . S
C3801 C3802 1.392 . S
C3801 C3805 1.495 . S
C3802 C3801 1.392 . S
C3802 C3803 1.385 . S
C3802 C3804 1.478 . S
C3803 H3797 0.930 . S
C3803 C3799 1.400 . S
C3803 C3802 1.385 . S
C3804 C3802 1.478 . S
C3804 C3806 1.381 . S
C3804 C3810 1.383 . S
C3805 C3801 1.495 . S
C3805 H3811 0.959 . S
C3805 H3812 0.961 . S
C3805 H3813 0.960 . S
C3806 C3804 1.381 . S
C3806 C3807 1.394 . S
C3806 H3814 0.930 . S
C3807 C3806 1.394 . S
C3807 C3808 1.383 . S
C3807 H3815 0.929 . S
C3808 C3807 1.383 . S
C3808 C3809 1.377 . S
C3809 H3793 0.930 . S
C3809 C3808 1.377 . S
C3809 C3810 1.379 . S
C3810 H3794 0.931 . S
C3810 C3804 1.383 . S
C3810 C3809 1.379 . S
H3811 C3805 0.959 . S
H3812 C3805 0.961 . S
H3813 C3805 0.960 . S
H3814 C3806 0.930 . S
H3815 C3807 0.929 . S
H3816 C3824 0.929 . S
H3817 C3826 0.930 . S
H3818 C3828 0.930 . S
H3819 C3831 0.929 . S
H3820 C3834 0.930 . S
H3821 C3836 0.960 . S
H3822 C3836 0.960 . S
H3823 C3836 0.960 . S
C3824 H3816 0.929 . S
C3824 C3825 1.377 . S
C3824 C3826 1.384 . S
C3825 C3824 1.377 . S
C3825 C3831 1.390 . S
C3826 H3817 0.930 . S
C3826 C3824 1.384 . S
C3826 C3827 1.372 . S
C3827 C3826 1.372 . S
C3827 C3828 1.400 . S
C3827 C3832 1.490 . S
C3828 H3818 0.930 . S
C3828 C3827 1.400 . S
C3828 C3831 1.386 . S
H3829 C3845 0.930 . S
H3830 C3846 0.931 . S
C3831 H3819 0.929 . S
C3831 C3825 1.390 . S
C3831 C3828 1.386 . S
C3832 C3827 1.490 . S
C3832 C3834 1.395 . S
C3832 C3835 1.403 . S
H3833 C3839 0.930 . S
C3834 H3820 0.930 . S
C3834 C3832 1.395 . S
C3834 C3837 1.403 . S
C3835 C3832 1.403 . S
C3835 C3836 1.524 . S
C3835 C3839 1.400 . S
C3836 H3821 0.960 . S
C3836 H3822 0.960 . S
C3836 H3823 0.960 . S
C3836 C3835 1.524 . S
C3837 C3834 1.403 . S
C3837 C3838 1.392 . S
C3837 C3841 1.495 . S
C3838 C3837 1.392 . S
C3838 C3839 1.385 . S
C3838 C3840 1.478 . S
C3839 H3833 0.930 . S
C3839 C3835 1.400 . S
C3839 C3838 1.385 . S
C3840 C3838 1.478 . S
C3840 C3842 1.381 . S
C3840 C3846 1.383 . S
C3841 C3837 1.495 . S
C3841 H3847 0.959 . S
C3841 H3848 0.961 . S
C3841 H3849 0.960 . S
C3842 C3840 1.381 . S
C3842 C3843 1.394 . S
C3842 H3850 0.930 . S
C3843 C3842 1.394 . S
C3843 C3844 1.383 . S
C3843 H3851 0.929 . S
C3844 C3843 1.383 . S
C3844 C3845 1.377 . S
C3845 H3829 0.930 . S
C3845 C3844 1.377 . S
C3845 C3846 1.379 . S
C3846 H3830 0.931 . S
C3846 C3840 1.383 . S
C3846 C3845 1.379 . S
H3847 C3841 0.959 . S
H3848 C3841 0.961 . S
H3849 C3841 0.960 . S
H3850 C3842 0.930 . S
H3851 C3843 0.929 . S
H3852 C3860 0.929 . S
H3853 C3862 0.930 . S
H3854 C3864 0.930 . S
H3855 C3867 0.929 . S
H3856 C3870 0.930 . S
H3857 C3872 0.960 . S
H3858 C3872 0.960 . S
H3859 C3872 0.960 . S
C3860 H3852 0.929 . S
C3860 C3861 1.377 . S
C3860 C3862 1.384 . S
C3861 C3860 1.377 . S
C3861 C3867 1.390 . S
C3862 H3853 0.930 . S
C3862 C3860 1.384 . S
C3862 C3863 1.372 . S
C3863 C3862 1.372 . S
C3863 C3864 1.400 . S
C3863 C3868 1.490 . S
C3864 H3854 0.930 . S
C3864 C3863 1.400 . S
C3864 C3867 1.386 . S
H3865 C3881 0.930 . S
H3866 C3882 0.931 . S
C3867 H3855 0.929 . S
C3867 C3861 1.390 . S
C3867 C3864 1.386 . S
C3868 C3863 1.490 . S
C3868 C3870 1.395 . S
C3868 C3871 1.403 . S
H3869 C3875 0.930 . S
C3870 H3856 0.930 . S
C3870 C3868 1.395 . S
C3870 C3873 1.403 . S
C3871 C3868 1.403 . S
C3871 C3872 1.524 . S
C3871 C3875 1.400 . S
C3872 H3857 0.960 . S
C3872 H3858 0.960 . S
C3872 H3859 0.960 . S
C3872 C3871 1.524 . S
C3873 C3870 1.403 . S
C3873 C3874 1.392 . S
C3873 C3877 1.495 . S
C3874 C3873 1.392 . S
C3874 C3875 1.385 . S
C3874 C3876 1.478 . S
C3875 H3869 0.930 . S
C3875 C3871 1.400 . S
C3875 C3874 1.385 . S
C3876 C3874 1.478 . S
C3876 C3878 1.381 . S
C3876 C3882 1.383 . S
C3877 C3873 1.495 . S
C3877 H3883 0.959 . S
C3877 H3884 0.961 . S
C3877 H3885 0.960 . S
C3878 C3876 1.381 . S
C3878 C3879 1.394 . S
C3878 H3886 0.930 . S
C3879 C3878 1.394 . S
C3879 C3880 1.383 . S
C3879 H3887 0.929 . S
C3880 C3879 1.383 . S
C3880 C3881 1.377 . S
C3881 H3865 0.930 . S
C3881 C3880 1.377 . S
C3881 C3882 1.379 . S
C3882 H3866 0.931 . S
C3882 C3876 1.383 . S
C3882 C3881 1.379 . S
H3883 C3877 0.959 . S
H3884 C3877 0.961 . S
H3885 C3877 0.960 . S
H3886 C3878 0.930 . S
H3887 C3879 0.929 . S
H3888 C3896 0.929 . S
H3889 C3898 0.930 . S
H3890 C3900 0.930 . S
H3891 C3903 0.929 . S
H3892 C3906 0.930 . S
H3893 C3908 0.960 . S
H3894 C3908 0.960 . S
H3895 C3908 0.960 . S
C3896 H3888 0.929 . S
C3896 C3897 1.377 . S
C3896 C3898 1.384 . S
C3897 C3896 1.377 . S
C3897 C3903 1.390 . S
C3898 H3889 0.930 . S
C3898 C3896 1.384 . S
C3898 C3899 1.372 . S
C3899 C3898 1.372 . S
C3899 C3900 1.400 . S
C3899 C3904 1.490 . S
C3900 H3890 0.930 . S
C3900 C3899 1.400 . S
C3900 C3903 1.386 . S
H3901 C3917 0.930 . S
H3902 C3918 0.931 . S
C3903 H3891 0.929 . S
C3903 C3897 1.390 . S
C3903 C3900 1.386 . S
C3904 C3899 1.490 . S
C3904 C3906 1.395 . S
C3904 C3907 1.403 . S
H3905 C3911 0.930 . S
C3906 H3892 0.930 . S
C3906 C3904 1.395 . S
C3906 C3909 1.403 . S
C3907 C3904 1.403 . S
C3907 C3908 1.524 . S
C3907 C3911 1.400 . S
C3908 H3893 0.960 . S
C3908 H3894 0.960 . S
C3908 H3895 0.960 . S
C3908 C3907 1.524 . S
C3909 C3906 1.403 . S
C3909 C3910 1.392 . S
C3909 C3913 1.495 . S
C3910 C3909 1.392 . S
C3910 C3911 1.385 . S
C3910 C3912 1.478 . S
C3911 H3905 0.930 . S
C3911 C3907 1.400 . S
C3911 C3910 1.385 . S
C3912 C3910 1.478 . S
C3912 C3914 1.381 . S
C3912 C3918 1.383 . S
C3913 C3909 1.495 . S
C3913 H3919 0.959 . S
C3913 H3920 0.961 . S
C3913 H3921 0.960 . S
C3914 C3912 1.381 . S
C3914 C3915 1.394 . S
C3914 H3922 0.930 . S
C3915 C3914 1.394 . S
C3915 C3916 1.383 . S
C3915 H3923 0.929 . S
C3916 C3915 1.383 . S
C3916 C3917 1.377 . S
C3917 H3901 0.930 . S
C3917 C3916 1.377 . S
C3917 C3918 1.379 . S
C3918 H3902 0.931 . S
C3918 C3912 1.383 . S
C3918 C3917 1.379 . S
H3919 C3913 0.959 . S
H3920 C3913 0.961 . S
H3921 C3913 0.960 . S
H3922 C3914 0.930 . S
H3923 C3915 0.929 . S
H3924 C3932 0.929 . S
H3925 C3934 0.930 . S
H3926 C3936 0.930 1_556 S
H3927 C3939 0.929 1_556 S
H3928 C3942 0.930 . S
H3929 C3944 0.960 . S
H3930 C3944 0.960 . S
H3931 C3944 0.960 . S
C3932 H3924 0.929 . S
C3932 C3933 1.377 . S
C3932 C3934 1.384 . S
C3933 C3932 1.377 . S
C3933 C3939 1.390 . S
C3934 H3925 0.930 . S
C3934 C3932 1.384 . S
C3934 C3935 1.372 . S
C3935 C3934 1.372 . S
C3935 C3936 1.400 . S
C3935 C3940 1.490 . S
C3936 H3926 0.930 1_554 S
C3936 C3935 1.400 . S
C3936 C3939 1.386 . S
H3937 C3953 0.930 . S
H3938 C3954 0.941 . S
C3939 H3927 0.929 1_554 S
C3939 C3933 1.390 . S
C3939 C3936 1.386 . S
C3940 C3935 1.490 . S
C3940 C3942 1.395 . S
C3940 C3943 1.403 1_554 S
H3941 C3947 0.930 . S
C3942 H3928 0.930 . S
C3942 C3940 1.395 . S
C3942 C3945 1.403 . S
C3943 C3940 1.403 1_556 S
C3943 C3944 1.524 . S
C3943 C3947 1.400 . S
C3944 H3929 0.960 . S
C3944 H3930 0.960 . S
C3944 H3931 0.960 . S
C3944 C3943 1.524 . S
C3945 C3942 1.403 . S
C3945 C3946 1.392 . S
C3945 C3949 1.495 . S
C3946 C3945 1.392 . S
C3946 C3947 1.385 1_554 S
C3946 C3948 1.478 . S
C3947 H3941 0.930 . S
C3947 C3943 1.400 . S
C3947 C3946 1.385 1_556 S
C3948 C3946 1.478 . S
C3948 C3950 1.381 . S
C3948 C3954 1.369 1_554 S
C3949 C3945 1.495 . S
C3949 H3955 0.959 . S
C3949 H3956 0.961 . S
C3949 H3957 0.960 . S
C3950 C3948 1.381 . S
C3950 C3951 1.394 . S
C3950 H3958 0.930 . S
C3951 C3950 1.394 . S
C3951 C3952 1.383 . S
C3951 H3959 0.929 . S
C3952 C3951 1.383 . S
C3952 C3953 1.377 1_554 S
C3953 H3937 0.930 . S
C3953 C3952 1.377 1_556 S
C3953 C3954 1.384 . S
C3954 H3938 0.941 . S
C3954 C3948 1.369 1_556 S
C3954 C3953 1.384 . S
H3955 C3949 0.959 . S
H3956 C3949 0.961 . S
H3957 C3949 0.960 . S
H3958 C3950 0.930 . S
H3959 C3951 0.929 . S
H3960 C3968 0.929 . S
H3961 C3970 0.930 . S
H3962 C3972 0.930 . S
H3963 C3975 0.929 . S
H3964 C3978 0.930 . S
H3965 C3980 0.960 . S
H3966 C3980 0.960 . S
H3967 C3980 0.960 . S
C3968 H3960 0.929 . S
C3968 C3969 1.377 . S
C3968 C3970 1.384 . S
C3969 C3968 1.377 . S
C3969 C3975 1.390 . S
C3970 H3961 0.930 . S
C3970 C3968 1.384 . S
C3970 C3971 1.372 . S
C3971 C3970 1.372 . S
C3971 C3972 1.400 . S
C3971 C3976 1.490 . S
C3972 H3962 0.930 . S
C3972 C3971 1.400 . S
C3972 C3975 1.386 . S
H3973 C3989 0.930 . S
H3974 C3990 0.931 . S
C3975 H3963 0.929 . S
C3975 C3969 1.390 . S
C3975 C3972 1.386 . S
C3976 C3971 1.490 . S
C3976 C3978 1.395 . S
C3976 C3979 1.403 . S
H3977 C3983 0.930 . S
C3978 H3964 0.930 . S
C3978 C3976 1.395 . S
C3978 C3981 1.403 . S
C3979 C3976 1.403 . S
C3979 C3980 1.524 . S
C3979 C3983 1.400 . S
C3980 H3965 0.960 . S
C3980 H3966 0.960 . S
C3980 H3967 0.960 . S
C3980 C3979 1.524 . S
C3981 C3978 1.403 . S
C3981 C3982 1.392 . S
C3981 C3985 1.495 . S
C3982 C3981 1.392 . S
C3982 C3983 1.385 . S
C3982 C3984 1.478 . S
C3983 H3977 0.930 . S
C3983 C3979 1.400 . S
C3983 C3982 1.385 . S
C3984 C3982 1.478 . S
C3984 C3986 1.381 . S
C3984 C3990 1.383 . S
C3985 C3981 1.495 . S
C3985 H3991 0.959 . S
C3985 H3992 0.961 . S
C3985 H3993 0.960 . S
C3986 C3984 1.381 . S
C3986 C3987 1.394 . S
C3986 H3994 0.930 . S
C3987 C3986 1.394 . S
C3987 C3988 1.383 . S
C3987 H3995 0.929 . S
C3988 C3987 1.383 . S
C3988 C3989 1.377 . S
C3989 H3973 0.930 . S
C3989 C3988 1.377 . S
C3989 C3990 1.379 . S
C3990 H3974 0.931 . S
C3990 C3984 1.383 . S
C3990 C3989 1.379 . S
H3991 C3985 0.959 . S
H3992 C3985 0.961 . S
H3993 C3985 0.960 . S
H3994 C3986 0.930 . S
H3995 C3987 0.929 . S
H3996 C4004 0.929 . S
H3997 C4006 0.930 . S
H3998 C4008 0.930 . S
H3999 C4011 0.929 . S
H4000 C4014 0.930 . S
H4001 C4016 0.960 . S
H4002 C4016 0.960 . S
H4003 C4016 0.960 1_556 S
C4004 H3996 0.929 . S
C4004 C4005 1.391 . S
C4004 C4006 1.384 . S
C4005 C4004 1.391 . S
C4005 C4011 1.377 1_554 S
C4006 H3997 0.930 . S
C4006 C4004 1.384 . S
C4006 C4007 1.372 . S
C4007 C4006 1.372 . S
C4007 C4008 1.400 1_554 S
C4007 C4012 1.490 . S
C4008 H3998 0.930 . S
C4008 C4007 1.400 1_556 S
C4008 C4011 1.386 . S
H4009 C4025 0.930 . S
H4010 C4026 0.931 . S
C4011 H3999 0.929 . S
C4011 C4005 1.377 1_556 S
C4011 C4008 1.386 . S
C4012 C4007 1.490 . S
C4012 C4014 1.395 . S
C4012 C4015 1.403 . S
H4013 C4019 0.930 . S
C4014 H4000 0.930 . S
C4014 C4012 1.395 . S
C4014 C4017 1.403 . S
C4015 C4012 1.403 . S
C4015 C4016 1.524 . S
C4015 C4019 1.400 . S
C4016 H4001 0.960 . S
C4016 H4002 0.960 . S
C4016 H4003 0.960 1_554 S
C4016 C4015 1.524 . S
C4017 C4014 1.403 . S
C4017 C4018 1.392 . S
C4017 C4021 1.495 . S
C4018 C4017 1.392 . S
C4018 C4019 1.385 . S
C4018 C4020 1.478 . S
C4019 H4013 0.930 . S
C4019 C4015 1.400 . S
C4019 C4018 1.385 . S
C4020 C4018 1.478 . S
C4020 C4022 1.381 . S
C4020 C4026 1.383 1_554 S
C4021 C4017 1.495 . S
C4021 H4027 0.959 . S
C4021 H4028 0.961 1_554 S
C4021 H4029 0.960 . S
C4022 C4020 1.381 . S
C4022 C4023 1.394 . S
C4022 H4030 0.930 . S
C4023 C4022 1.394 . S
C4023 C4024 1.383 . S
C4023 H4031 0.929 . S
C4024 C4023 1.383 . S
C4024 C4025 1.377 1_554 S
C4025 H4009 0.930 . S
C4025 C4024 1.377 1_556 S
C4025 C4026 1.379 . S
C4026 H4010 0.931 . S
C4026 C4020 1.383 1_556 S
C4026 C4025 1.379 . S
H4027 C4021 0.959 . S
H4028 C4021 0.961 1_556 S
H4029 C4021 0.960 . S
H4030 C4022 0.930 . S
H4031 C4023 0.929 . S
H4032 C4040 0.929 . S
H4033 C4042 0.930 . S
H4034 C4044 0.930 . S
H4035 C4047 0.929 . S
H4036 C4050 0.930 . S
H4037 C4052 0.960 . S
H4038 C4052 0.960 . S
H4039 C4052 0.960 . S
C4040 H4032 0.929 . S
C4040 C4041 1.377 . S
C4040 C4042 1.384 . S
C4041 C4040 1.377 . S
C4041 C4047 1.390 . S
C4042 H4033 0.930 . S
C4042 C4040 1.384 . S
C4042 C4043 1.372 . S
C4043 C4042 1.372 . S
C4043 C4044 1.400 . S
C4043 C4048 1.490 . S
C4044 H4034 0.930 . S
C4044 C4043 1.400 . S
C4044 C4047 1.386 . S
H4045 C4061 0.930 . S
H4046 C4062 0.931 . S
C4047 H4035 0.929 . S
C4047 C4041 1.390 . S
C4047 C4044 1.386 . S
C4048 C4043 1.490 . S
C4048 C4050 1.395 . S
C4048 C4051 1.403 . S
H4049 C4055 0.930 . S
C4050 H4036 0.930 . S
C4050 C4048 1.395 . S
C4050 C4053 1.403 . S
C4051 C4048 1.403 . S
C4051 C4052 1.524 . S
C4051 C4055 1.400 . S
C4052 H4037 0.960 . S
C4052 H4038 0.960 . S
C4052 H4039 0.960 . S
C4052 C4051 1.524 . S
C4053 C4050 1.403 . S
C4053 C4054 1.392 . S
C4053 C4057 1.495 . S
C4054 C4053 1.392 . S
C4054 C4055 1.385 . S
C4054 C4056 1.478 . S
C4055 H4049 0.930 . S
C4055 C4051 1.400 . S
C4055 C4054 1.385 . S
C4056 C4054 1.478 . S
C4056 C4058 1.381 . S
C4056 C4062 1.383 . S
C4057 C4053 1.495 . S
C4057 H4063 0.959 . S
C4057 H4064 0.961 . S
C4057 H4065 0.960 . S
C4058 C4056 1.381 . S
C4058 C4059 1.394 . S
C4058 H4066 0.930 . S
C4059 C4058 1.394 . S
C4059 C4060 1.383 . S
C4059 H4067 0.929 . S
C4060 C4059 1.383 . S
C4060 C4061 1.377 . S
C4061 H4045 0.930 . S
C4061 C4060 1.377 . S
C4061 C4062 1.379 . S
C4062 H4046 0.931 . S
C4062 C4056 1.383 . S
C4062 C4061 1.379 . S
H4063 C4057 0.959 . S
H4064 C4057 0.961 . S
H4065 C4057 0.960 . S
H4066 C4058 0.930 . S
H4067 C4059 0.929 . S
H4068 C4076 0.929 . S
H4069 C4078 0.930 . S
H4070 C4080 0.930 . S
H4071 C4083 0.929 . S
H4072 C4086 0.930 . S
H4073 C4088 0.960 . S
H4074 C4088 0.960 . S
H4075 C4088 0.960 . S
C4076 H4068 0.929 . S
C4076 C4077 1.377 . S
C4076 C4078 1.384 . S
C4077 C4076 1.377 . S
C4077 C4083 1.390 . S
C4078 H4069 0.930 . S
C4078 C4076 1.384 . S
C4078 C4079 1.372 . S
C4079 C4078 1.372 . S
C4079 C4080 1.400 . S
C4079 C4084 1.490 . S
C4080 H4070 0.930 . S
C4080 C4079 1.400 . S
C4080 C4083 1.386 . S
H4081 C4097 0.930 . S
H4082 C4098 0.931 . S
C4083 H4071 0.929 . S
C4083 C4077 1.390 . S
C4083 C4080 1.386 . S
C4084 C4079 1.490 . S
C4084 C4086 1.395 . S
C4084 C4087 1.403 . S
H4085 C4091 0.930 . S
C4086 H4072 0.930 . S
C4086 C4084 1.395 . S
C4086 C4089 1.403 . S
C4087 C4084 1.403 . S
C4087 C4088 1.524 . S
C4087 C4091 1.400 . S
C4088 H4073 0.960 . S
C4088 H4074 0.960 . S
C4088 H4075 0.960 . S
C4088 C4087 1.524 . S
C4089 C4086 1.403 . S
C4089 C4090 1.392 . S
C4089 C4093 1.495 . S
C4090 C4089 1.392 . S
C4090 C4091 1.385 . S
C4090 C4092 1.478 . S
C4091 H4085 0.930 . S
C4091 C4087 1.400 . S
C4091 C4090 1.385 . S
C4092 C4090 1.478 . S
C4092 C4094 1.381 . S
C4092 C4098 1.383 . S
C4093 C4089 1.495 . S
C4093 H4099 0.959 . S
C4093 H4100 0.961 . S
C4093 H4101 0.960 . S
C4094 C4092 1.381 . S
C4094 C4095 1.394 . S
C4094 H4102 0.930 . S
C4095 C4094 1.394 . S
C4095 C4096 1.383 . S
C4095 H4103 0.929 . S
C4096 C4095 1.383 . S
C4096 C4097 1.377 . S
C4097 H4081 0.930 . S
C4097 C4096 1.377 . S
C4097 C4098 1.379 . S
C4098 H4082 0.931 . S
C4098 C4092 1.383 . S
C4098 C4097 1.379 . S
H4099 C4093 0.959 . S
H4100 C4093 0.961 . S
H4101 C4093 0.960 . S
H4102 C4094 0.930 . S
H4103 C4095 0.929 . S
C676 C328 1.355 . S
C657 C10 1.486 . S
C693 C23 1.337 . S
C712 C348 1.297 . S
C729 C36 1.462 . S
C748 C370 1.303 . S
C784 C389 1.469 . S
C765 C42 1.510 . S
C801 C18 1.484 . S
C820 C410 1.467 1_455 S
C856 C433 1.402 . S
C837 C31 1.543 . S
C892 C456 1.293 . S
C873 C43 1.314 . S
C909 C5 1.462 . S
C928 C474 1.395 . S
C945 C56 1.459 . S
C964 C330 1.411 . S
C981 C70 1.514 . S
C1000 C350 1.483 . S
C1036 C372 1.321 . S
C1017 C82 1.340 . S
C1072 C391 1.410 . S
C1053 C96 1.542 . S
C1089 C57 1.542 . S
C1108 C412 1.446 . S
C1144 C435 1.265 . S
C1125 C69 1.296 . S
C1180 C452 1.458 . S
C1161 C83 1.511 . S
C1216 C476 1.434 . S
C1197 C95 1.453 . S
C1252 C326 1.408 . S
C1233 C94 1.459 . S
C1288 C498 1.222 . S
C1269 C108 1.295 . S
C1305 C122 1.484 . S
C1324 C515 1.453 . S
C1360 C538 1.422 . S
C1341 C140 1.534 . S
C1377 C55 1.492 . S
C1396 C472 1.357 . S
C1432 C368 1.535 . S
C1413 C68 1.514 . S
C1449 C121 1.319 . S
C1468 C561 1.265 . S
C1504 C577 1.361 . S
C1485 C153 1.461 . S
C1521 C161 1.095 . S
C1540 C325 1.070 . S
C1576 C578 1.087 . S
C1557 C174 1.107 . S
C1593 C186 1.194 . S
C1612 C367 1.103 . S
C1629 C200 1.025 . S
C1648 C558 0.967 . S
C1684 C411 1.005 . S
C1665 C172 1.025 . S
C1720 C514 1.087 . S
C1701 C192 1.150 . S
C1756 C455 1.100 . S
C1737 C198 1.135 . S
C1792 C599 1.144 . S
C1773 C159 1.191 . S
C1828 C329 1.151 . S
C1809 C211 1.188 . S
C1845 C225 1.019 . S
C1864 C582 0.962 . S
C1900 C371 1.112 . S
C1881 C239 1.108 . S
C1917 C251 1.117 . S
C1936 C556 1.087 . S
C1953 C218 1.156 . S
C1972 C409 1.036 . S
C1989 C226 1.145 . S
C2008 C518 1.100 . S
C2044 C453 0.984 . S
C2025 C238 1.010 . S
C2061 C252 1.088 . S
C2080 C603 1.025 . S
C2097 C250 1.088 . S
C2116 C327 1.094 . S
C2133 C264 1.141 . S
C2152 C497 1.121 . S
C2169 C276 1.022 . S
C2188 C432 0.984 . S
C2205 C290 1.116 . S
C2224 C535 1.083 . S
C2260 C601 1.028 . S
C2241 C213 1.093 . S
C2296 C369 0.966 . S
C2277 C224 1.029 . S
C2332 C392 1.109 . S
C2313 C283 1.128 . S
C2368 C349 1.150 . S
C2349 C303 1.195 . S
C2385 C29 1.492 . S
C2404 C622 1.395 . S
C2440 C579 1.263 . S
C2421 C49 1.338 . S
C2476 C643 1.386 . S
C2457 C3 1.467 . S
C2493 C16 1.508 . S
C2512 C557 1.492 . S
C2529 C44 1.485 . S
C2548 C494 1.474 . S
C2584 C517 1.430 . S
C2565 C4 1.533 . S
C2620 C540 1.238 . S
C2601 C17 1.315 . S
C2656 C600 1.427 . S
C2637 C30 1.457 . S
C2692 C624 1.425 . S
C2673 C147 1.458 . S
C2709 C107 1.518 . S
C2728 C581 1.502 . S
C2745 C127 1.341 . S
C2764 C645 1.315 . S
C2800 C559 1.452 . S
C2781 C135 1.544 . S
C2836 C496 1.389 . S
C2817 C148 1.539 . S
C2853 C114 1.294 . S
C2872 C519 1.243 . S
C2908 C536 1.487 . S
C2889 C120 1.506 . S
C2925 C134 1.452 . S
C2944 C602 1.443 . S
C2980 C620 1.409 . S
C2961 C133 1.461 . S
C3016 C414 1.273 . S
C2997 C75 1.299 . S
C3052 C431 1.460 . S
C3033 C81 1.485 . S
C3069 C101 1.538 . S
C3088 C454 1.419 . S
C3124 C598 1.326 . S
C3105 C146 1.492 . S
C3141 C109 1.518 . S
C3160 C641 1.469 . S
C3196 C393 1.293 . S
C3177 C88 1.316 . S
C3232 C346 1.377 . S
C3213 C62 1.458 . S
C3249 C187 1.097 . S
C3268 C619 0.975 . S
C3304 C347 1.057 . S
C3285 C199 1.096 . S
C3340 C640 1.095 1_455 S
C3321 C160 1.194 . S
C3357 C173 1.010 . S
C3376 C390 1.024 . S
C3393 C205 1.013 . S
C3412 C495 1.026 . S
C3429 C166 1.153 . S
C3448 C430 1.044 . S
C3465 C179 1.127 . S
C3484 C539 1.116 1_455 S
C3501 C185 1.194 . S
C3520 C473 1.171 . S
C3556 C623 1.167 . S
C3537 C302 1.191 . S
C3573 C270 1.019 . S
C3592 C351 1.030 . S
C3628 C644 1.102 . S
C3609 C278 1.110 . S
C3645 C296 1.122 . S
C3664 C388 1.068 . S
C3681 C309 1.158 . S
C3700 C493 1.056 . S
C3736 C434 1.147 . S
C3717 C263 1.150 . S
C3753 C277 1.014 . S
C3772 C537 0.994 . S
C3808 C477 1.080 . S
C3789 C289 1.086 . S
C3844 C621 1.041 . S
C3825 C291 1.091 . S
C3880 C413 1.139 . S
C3861 C231 1.140 . S
C3897 C237 1.024 . S
C3916 C516 0.973 . S
C3952 C451 1.082 1_554 S
C3933 C257 1.116 . S
C3988 C475 1.065 . S
C3969 C304 1.092 . S
C4005 C265 1.023 . S
C4024 C642 1.029 . S
C4060 C560 1.129 . S
C4041 C244 1.128 . S
C4096 C580 1.144 . S
C4077 C212 1.195 . S
