# Generated by pormake.
# Topology gar, (4,6)-cn, num edge types: 1
# Building blocks:
#     Node 0, Type 0, BuildingBlock: AZAVOO_clean_sbu_0, # of connection points: 4
#     Node 1, Type 0, BuildingBlock: AZAVOO_clean_sbu_0, # of connection points: 4
#     Node 2, Type 0, BuildingBlock: AZAVOO_clean_sbu_0, # of connection points: 4
#     Node 3, Type 0, BuildingBlock: AZAVOO_clean_sbu_0, # of connection points: 4
#     Node 4, Type 0, BuildingBlock: AZAVOO_clean_sbu_0, # of connection points: 4
#     Node 5, Type 0, BuildingBlock: AZAVOO_clean_sbu_0, # of connection points: 4
#     Node 6, Type 0, BuildingBlock: AZAVOO_clean_sbu_0, # of connection points: 4
#     Node 7, Type 0, BuildingBlock: AZAVOO_clean_sbu_0, # of connection points: 4
#     Node 8, Type 0, BuildingBlock: AZAVOO_clean_sbu_0, # of connection points: 4
#     Node 9, Type 0, BuildingBlock: AZAVOO_clean_sbu_0, # of connection points: 4
#     Node 10, Type 0, BuildingBlock: AZAVOO_clean_sbu_0, # of connection points: 4
#     Node 11, Type 0, BuildingBlock: AZAVOO_clean_sbu_0, # of connection points: 4
#     Node 12, Type 0, BuildingBlock: AZAVOO_clean_sbu_0, # of connection points: 4
#     Node 13, Type 0, BuildingBlock: AZAVOO_clean_sbu_0, # of connection points: 4
#     Node 14, Type 0, BuildingBlock: AZAVOO_clean_sbu_0, # of connection points: 4
#     Node 15, Type 0, BuildingBlock: AZAVOO_clean_sbu_0, # of connection points: 4
#     Node 16, Type 0, BuildingBlock: AZAVOO_clean_sbu_0, # of connection points: 4
#     Node 17, Type 0, BuildingBlock: AZAVOO_clean_sbu_0, # of connection points: 4
#     Node 18, Type 0, BuildingBlock: AZAVOO_clean_sbu_0, # of connection points: 4
#     Node 19, Type 0, BuildingBlock: AZAVOO_clean_sbu_0, # of connection points: 4
#     Node 20, Type 0, BuildingBlock: AZAVOO_clean_sbu_0, # of connection points: 4
#     Node 21, Type 0, BuildingBlock: AZAVOO_clean_sbu_0, # of connection points: 4
#     Node 22, Type 0, BuildingBlock: AZAVOO_clean_sbu_0, # of connection points: 4
#     Node 23, Type 0, BuildingBlock: AZAVOO_clean_sbu_0, # of connection points: 4
#     Node 24, Type 1, BuildingBlock: BETFEN_clean_sbu_0, # of connection points: 6
#     Node 25, Type 1, BuildingBlock: BETFEN_clean_sbu_0, # of connection points: 6
#     Node 26, Type 1, BuildingBlock: BETFEN_clean_sbu_0, # of connection points: 6
#     Node 27, Type 1, BuildingBlock: BETFEN_clean_sbu_0, # of connection points: 6
#     Node 28, Type 1, BuildingBlock: BETFEN_clean_sbu_0, # of connection points: 6
#     Node 29, Type 1, BuildingBlock: BETFEN_clean_sbu_0, # of connection points: 6
#     Node 30, Type 1, BuildingBlock: BETFEN_clean_sbu_0, # of connection points: 6
#     Node 31, Type 1, BuildingBlock: BETFEN_clean_sbu_0, # of connection points: 6
#     Node 32, Type 1, BuildingBlock: BETFEN_clean_sbu_0, # of connection points: 6
#     Node 33, Type 1, BuildingBlock: BETFEN_clean_sbu_0, # of connection points: 6
#     Node 34, Type 1, BuildingBlock: BETFEN_clean_sbu_0, # of connection points: 6
#     Node 35, Type 1, BuildingBlock: BETFEN_clean_sbu_0, # of connection points: 6
#     Node 36, Type 1, BuildingBlock: BETFEN_clean_sbu_0, # of connection points: 6
#     Node 37, Type 1, BuildingBlock: BETFEN_clean_sbu_0, # of connection points: 6
#     Node 38, Type 1, BuildingBlock: BETFEN_clean_sbu_0, # of connection points: 6
#     Node 39, Type 1, BuildingBlock: BETFEN_clean_sbu_0, # of connection points: 6
#     Edge 40, Type (0, 1), BuildingBlock: OJICUG_clean_linker_0, # of connection points: 2
#     Edge 41, Type (0, 1), BuildingBlock: OJICUG_clean_linker_0, # of connection points: 2
#     Edge 42, Type (0, 1), BuildingBlock: OJICUG_clean_linker_0, # of connection points: 2
#     Edge 43, Type (0, 1), BuildingBlock: OJICUG_clean_linker_0, # of connection points: 2
#     Edge 44, Type (0, 1), BuildingBlock: OJICUG_clean_linker_0, # of connection points: 2
#     Edge 45, Type (0, 1), BuildingBlock: OJICUG_clean_linker_0, # of connection points: 2
#     Edge 46, Type (0, 1), BuildingBlock: OJICUG_clean_linker_0, # of connection points: 2
#     Edge 47, Type (0, 1), BuildingBlock: OJICUG_clean_linker_0, # of connection points: 2
#     Edge 48, Type (0, 1), BuildingBlock: OJICUG_clean_linker_0, # of connection points: 2
#     Edge 49, Type (0, 1), BuildingBlock: OJICUG_clean_linker_0, # of connection points: 2
#     Edge 50, Type (0, 1), BuildingBlock: OJICUG_clean_linker_0, # of connection points: 2
#     Edge 51, Type (0, 1), BuildingBlock: OJICUG_clean_linker_0, # of connection points: 2
#     Edge 52, Type (0, 1), BuildingBlock: OJICUG_clean_linker_0, # of connection points: 2
#     Edge 53, Type (0, 1), BuildingBlock: OJICUG_clean_linker_0, # of connection points: 2
#     Edge 54, Type (0, 1), BuildingBlock: OJICUG_clean_linker_0, # of connection points: 2
#     Edge 55, Type (0, 1), BuildingBlock: OJICUG_clean_linker_0, # of connection points: 2
#     Edge 56, Type (0, 1), BuildingBlock: OJICUG_clean_linker_0, # of connection points: 2
#     Edge 57, Type (0, 1), BuildingBlock: OJICUG_clean_linker_0, # of connection points: 2
#     Edge 58, Type (0, 1), BuildingBlock: OJICUG_clean_linker_0, # of connection points: 2
#     Edge 59, Type (0, 1), BuildingBlock: OJICUG_clean_linker_0, # of connection points: 2
#     Edge 60, Type (0, 1), BuildingBlock: OJICUG_clean_linker_0, # of connection points: 2
#     Edge 61, Type (0, 1), BuildingBlock: OJICUG_clean_linker_0, # of connection points: 2
#     Edge 62, Type (0, 1), BuildingBlock: OJICUG_clean_linker_0, # of connection points: 2
#     Edge 63, Type (0, 1), BuildingBlock: OJICUG_clean_linker_0, # of connection points: 2
#     Edge 64, Type (0, 1), BuildingBlock: OJICUG_clean_linker_0, # of connection points: 2
#     Edge 65, Type (0, 1), BuildingBlock: OJICUG_clean_linker_0, # of connection points: 2
#     Edge 66, Type (0, 1), BuildingBlock: OJICUG_clean_linker_0, # of connection points: 2
#     Edge 67, Type (0, 1), BuildingBlock: OJICUG_clean_linker_0, # of connection points: 2
#     Edge 68, Type (0, 1), BuildingBlock: OJICUG_clean_linker_0, # of connection points: 2
#     Edge 69, Type (0, 1), BuildingBlock: OJICUG_clean_linker_0, # of connection points: 2
#     Edge 70, Type (0, 1), BuildingBlock: OJICUG_clean_linker_0, # of connection points: 2
#     Edge 71, Type (0, 1), BuildingBlock: OJICUG_clean_linker_0, # of connection points: 2
#     Edge 72, Type (0, 1), BuildingBlock: OJICUG_clean_linker_0, # of connection points: 2
#     Edge 73, Type (0, 1), BuildingBlock: OJICUG_clean_linker_0, # of connection points: 2
#     Edge 74, Type (0, 1), BuildingBlock: OJICUG_clean_linker_0, # of connection points: 2
#     Edge 75, Type (0, 1), BuildingBlock: OJICUG_clean_linker_0, # of connection points: 2
#     Edge 76, Type (0, 1), BuildingBlock: OJICUG_clean_linker_0, # of connection points: 2
#     Edge 77, Type (0, 1), BuildingBlock: OJICUG_clean_linker_0, # of connection points: 2
#     Edge 78, Type (0, 1), BuildingBlock: OJICUG_clean_linker_0, # of connection points: 2
#     Edge 79, Type (0, 1), BuildingBlock: OJICUG_clean_linker_0, # of connection points: 2
#     Edge 80, Type (0, 1), BuildingBlock: OJICUG_clean_linker_0, # of connection points: 2
#     Edge 81, Type (0, 1), BuildingBlock: OJICUG_clean_linker_0, # of connection points: 2
#     Edge 82, Type (0, 1), BuildingBlock: OJICUG_clean_linker_0, # of connection points: 2
#     Edge 83, Type (0, 1), BuildingBlock: OJICUG_clean_linker_0, # of connection points: 2
#     Edge 84, Type (0, 1), BuildingBlock: OJICUG_clean_linker_0, # of connection points: 2
#     Edge 85, Type (0, 1), BuildingBlock: OJICUG_clean_linker_0, # of connection points: 2
#     Edge 86, Type (0, 1), BuildingBlock: OJICUG_clean_linker_0, # of connection points: 2
#     Edge 87, Type (0, 1), BuildingBlock: OJICUG_clean_linker_0, # of connection points: 2
#     Edge 88, Type (0, 1), BuildingBlock: OJICUG_clean_linker_0, # of connection points: 2
#     Edge 89, Type (0, 1), BuildingBlock: OJICUG_clean_linker_0, # of connection points: 2
#     Edge 90, Type (0, 1), BuildingBlock: OJICUG_clean_linker_0, # of connection points: 2
#     Edge 91, Type (0, 1), BuildingBlock: OJICUG_clean_linker_0, # of connection points: 2
#     Edge 92, Type (0, 1), BuildingBlock: OJICUG_clean_linker_0, # of connection points: 2
#     Edge 93, Type (0, 1), BuildingBlock: OJICUG_clean_linker_0, # of connection points: 2
#     Edge 94, Type (0, 1), BuildingBlock: OJICUG_clean_linker_0, # of connection points: 2
#     Edge 95, Type (0, 1), BuildingBlock: OJICUG_clean_linker_0, # of connection points: 2
#     Edge 96, Type (0, 1), BuildingBlock: OJICUG_clean_linker_0, # of connection points: 2
#     Edge 97, Type (0, 1), BuildingBlock: OJICUG_clean_linker_0, # of connection points: 2
#     Edge 98, Type (0, 1), BuildingBlock: OJICUG_clean_linker_0, # of connection points: 2
#     Edge 99, Type (0, 1), BuildingBlock: OJICUG_clean_linker_0, # of connection points: 2
#     Edge 100, Type (0, 1), BuildingBlock: OJICUG_clean_linker_0, # of connection points: 2
#     Edge 101, Type (0, 1), BuildingBlock: OJICUG_clean_linker_0, # of connection points: 2
#     Edge 102, Type (0, 1), BuildingBlock: OJICUG_clean_linker_0, # of connection points: 2
#     Edge 103, Type (0, 1), BuildingBlock: OJICUG_clean_linker_0, # of connection points: 2
#     Edge 104, Type (0, 1), BuildingBlock: OJICUG_clean_linker_0, # of connection points: 2
#     Edge 105, Type (0, 1), BuildingBlock: OJICUG_clean_linker_0, # of connection points: 2
#     Edge 106, Type (0, 1), BuildingBlock: OJICUG_clean_linker_0, # of connection points: 2
#     Edge 107, Type (0, 1), BuildingBlock: OJICUG_clean_linker_0, # of connection points: 2
#     Edge 108, Type (0, 1), BuildingBlock: OJICUG_clean_linker_0, # of connection points: 2
#     Edge 109, Type (0, 1), BuildingBlock: OJICUG_clean_linker_0, # of connection points: 2
#     Edge 110, Type (0, 1), BuildingBlock: OJICUG_clean_linker_0, # of connection points: 2
#     Edge 111, Type (0, 1), BuildingBlock: OJICUG_clean_linker_0, # of connection points: 2
#     Edge 112, Type (0, 1), BuildingBlock: OJICUG_clean_linker_0, # of connection points: 2
#     Edge 113, Type (0, 1), BuildingBlock: OJICUG_clean_linker_0, # of connection points: 2
#     Edge 114, Type (0, 1), BuildingBlock: OJICUG_clean_linker_0, # of connection points: 2
#     Edge 115, Type (0, 1), BuildingBlock: OJICUG_clean_linker_0, # of connection points: 2
#     Edge 116, Type (0, 1), BuildingBlock: OJICUG_clean_linker_0, # of connection points: 2
#     Edge 117, Type (0, 1), BuildingBlock: OJICUG_clean_linker_0, # of connection points: 2
#     Edge 118, Type (0, 1), BuildingBlock: OJICUG_clean_linker_0, # of connection points: 2
#     Edge 119, Type (0, 1), BuildingBlock: OJICUG_clean_linker_0, # of connection points: 2
#     Edge 120, Type (0, 1), BuildingBlock: OJICUG_clean_linker_0, # of connection points: 2
#     Edge 121, Type (0, 1), BuildingBlock: OJICUG_clean_linker_0, # of connection points: 2
#     Edge 122, Type (0, 1), BuildingBlock: OJICUG_clean_linker_0, # of connection points: 2
#     Edge 123, Type (0, 1), BuildingBlock: OJICUG_clean_linker_0, # of connection points: 2
#     Edge 124, Type (0, 1), BuildingBlock: OJICUG_clean_linker_0, # of connection points: 2
#     Edge 125, Type (0, 1), BuildingBlock: OJICUG_clean_linker_0, # of connection points: 2
#     Edge 126, Type (0, 1), BuildingBlock: OJICUG_clean_linker_0, # of connection points: 2
#     Edge 127, Type (0, 1), BuildingBlock: OJICUG_clean_linker_0, # of connection points: 2
#     Edge 128, Type (0, 1), BuildingBlock: OJICUG_clean_linker_0, # of connection points: 2
#     Edge 129, Type (0, 1), BuildingBlock: OJICUG_clean_linker_0, # of connection points: 2
#     Edge 130, Type (0, 1), BuildingBlock: OJICUG_clean_linker_0, # of connection points: 2
#     Edge 131, Type (0, 1), BuildingBlock: OJICUG_clean_linker_0, # of connection points: 2
#     Edge 132, Type (0, 1), BuildingBlock: OJICUG_clean_linker_0, # of connection points: 2
#     Edge 133, Type (0, 1), BuildingBlock: OJICUG_clean_linker_0, # of connection points: 2
#     Edge 134, Type (0, 1), BuildingBlock: OJICUG_clean_linker_0, # of connection points: 2
#     Edge 135, Type (0, 1), BuildingBlock: OJICUG_clean_linker_0, # of connection points: 2
# Relax obj value: 0.278
# Max RMSD: 0.374
# Mean RMSD: 0.216
data_MOF--net-gar--node1-AZAVOO_clean_sbu_0--node2-BETFEN_clean_sbu_0--edge1-OJICUG_clean_linker_0
_symmetry_space_group_name_H-M    P1
_symmetry_Int_Tables_number       1
_symmetry_cell_setting            triclinic
loop_
_symmetry_equiv_pos_as_xyz
'x, y, z'
_cell_length_a     49.871542
_cell_length_b     41.133501
_cell_length_c     41.84501
_cell_angle_alpha  97.680983
_cell_angle_beta   99.982025
_cell_angle_gamma 103.72128
loop_
_atom_site_label
_atom_site_type_symbol
_atom_site_fract_x
_atom_site_fract_y
_atom_site_fract_z
_atom_type_partial_charge
Mg0 Mg 0.03906 0.33929 0.40559 0.0
O1 O 0.05294 0.39106 0.4445 0.0
O2 O 0.01668 0.38825 0.46971 0.0
Mg3 Mg 0.98403 0.3359 0.4524 0.0
C4 C 0.04029 0.40468 0.46468 0.0
C5 C 0.08429 0.34634 0.3624 0.0
O6 O 0.06193 0.34777 0.34137 0.0
O7 O 0.04807 0.30383 0.44241 0.0
O8 O 1.01303 0.30133 0.46957 0.0
O9 O 0.01618 0.36524 0.37061 0.0
O10 O 0.99593 0.33452 0.40375 0.0
C11 C 0.0346 0.29185 0.46352 0.0
C12 C 0.99384 0.35332 0.38163 0.0
O13 O 0.08271 0.34548 0.39241 0.0
Mg14 Mg 0.1051 0.88865 0.67309 0.0
O15 O 0.09399 0.83472 0.63936 0.0
O16 O 0.052 0.82831 0.60695 0.0
Mg17 Mg 0.03355 0.87247 0.62467 0.0
C18 C 0.07357 0.81738 0.61582 0.0
C19 C 0.16322 0.89705 0.71592 0.0
O20 O 0.15032 0.91194 0.73591 0.0
O21 O 0.11058 0.92192 0.63222 0.0
O22 O 0.06519 0.91406 0.60813 0.0
O23 O 0.08619 0.86775 0.71376 0.0
O24 O 0.06271 0.88578 0.67338 0.0
C25 C 0.09135 0.92945 0.61218 0.0
C26 C 0.06299 0.87392 0.70026 0.0
O27 O 0.15083 0.88624 0.68581 0.0
Mg28 Mg 0.53891 0.8401 0.90472 0.0
O29 O 0.55316 0.89311 0.94193 0.0
O30 O 0.51859 0.89219 0.96969 0.0
Mg31 Mg 0.48538 0.83983 0.95354 0.0
C32 C 0.5417 0.90773 0.96287 0.0
C33 C 0.58478 0.84738 0.86138 0.0
O34 O 0.56304 0.85071 0.8406 0.0
O35 O 0.54835 0.80596 0.94282 0.0
O36 O 0.51405 0.80483 0.97095 0.0
O37 O 0.51513 0.86446 0.8688 0.0
O38 O 0.49591 0.83591 0.90399 0.0
C39 C 0.5353 0.7948 0.96458 0.0
C40 C 0.49321 0.85343 0.88087 0.0
O41 O 0.58259 0.84516 0.89101 0.0
Mg42 Mg 0.60521 0.38785 0.17337 0.0
O43 O 0.59287 0.33376 0.1393 0.0
O44 O 0.55084 0.32861 0.10787 0.0
Mg45 Mg 0.53404 0.37443 0.12536 0.0
C46 C 0.57192 0.31671 0.11628 0.0
C47 C 0.66334 0.39326 0.21653 0.0
O48 O 0.6509 0.40888 0.23657 0.0
O49 O 0.61126 0.42263 0.1329 0.0
O50 O 0.56601 0.41524 0.1084 0.0
O51 O 0.58444 0.36643 0.2131 0.0
O52 O 0.56321 0.38835 0.17434 0.0
C53 C 0.59221 0.43046 0.11267 0.0
C54 C 0.56236 0.3754 0.20049 0.0
O55 O 0.65078 0.38289 0.18636 0.0
Mg56 Mg 0.11818 0.89873 0.15824 0.0
O57 O 0.11347 0.84614 0.12714 0.0
O58 O 0.06852 0.82862 0.0996 0.0
Mg59 Mg 0.0449 0.86902 0.10767 0.0
C60 C 0.0928 0.82349 0.1081 0.0
C61 C 0.17401 0.90131 0.20645 0.0
O62 O 0.15498 0.90097 0.22459 0.0
O63 O 0.11919 0.92949 0.11382 0.0
O64 O 0.07355 0.91018 0.08881 0.0
O65 O 0.09978 0.87157 0.19627 0.0
O66 O 0.07373 0.88678 0.15607 0.0
C67 C 0.098 0.93002 0.09141 0.0
C68 C 0.07502 0.87163 0.18095 0.0
O69 O 0.16677 0.90289 0.1759 0.0
Mg70 Mg 0.52918 0.83173 0.4126 0.0
O71 O 0.53513 0.88298 0.44561 0.0
O72 O 0.49829 0.87772 0.46991 0.0
Mg73 Mg 0.47022 0.8225 0.45384 0.0
C74 C 0.5211 0.8956 0.46427 0.0
C75 C 0.57813 0.85368 0.37823 0.0
O76 O 0.55567 0.84547 0.35411 0.0
O77 O 0.54341 0.80586 0.4562 0.0
O78 O 0.50388 0.79556 0.47551 0.0
O79 O 0.50355 0.84901 0.37152 0.0
O80 O 0.48412 0.82074 0.40643 0.0
C81 C 0.52868 0.79198 0.47532 0.0
C82 C 0.4811 0.83676 0.38211 0.0
O83 O 0.57486 0.85019 0.40712 0.0
Mg84 Mg 0.61684 0.40096 0.66041 0.0
O85 O 0.61195 0.34811 0.6286 0.0
O86 O 0.56716 0.33308 0.60059 0.0
Mg87 Mg 0.54305 0.3722 0.61029 0.0
C88 C 0.59095 0.32662 0.60867 0.0
C89 C 0.67158 0.39124 0.7016 0.0
O90 O 0.65079 0.37373 0.71279 0.0
O91 O 0.61854 0.4323 0.61661 0.0
O92 O 0.57236 0.41435 0.59443 0.0
O93 O 0.59849 0.37407 0.69868 0.0
O94 O 0.57231 0.38843 0.65816 0.0
C95 C 0.59667 0.4339 0.59602 0.0
C96 C 0.57371 0.37341 0.68306 0.0
O97 O 0.66556 0.40718 0.6782 0.0
Mg98 Mg 0.02901 0.33006 0.91363 0.0
O99 O 0.03412 0.38127 0.94681 0.0
O100 O 0.99646 0.37577 0.96975 0.0
Mg101 Mg 0.96914 0.32024 0.95329 0.0
C102 C 0.01951 0.39377 0.9648 0.0
C103 C 0.07816 0.35347 0.88051 0.0
O104 O 0.05574 0.34617 0.85643 0.0
O105 O 0.04205 0.30409 0.9571 0.0
O106 O 1.00307 0.29449 0.97744 0.0
O107 O 1.00493 0.34756 0.8723 0.0
O108 O 0.98413 0.31915 0.90641 0.0
C109 C 0.02784 0.29086 0.97697 0.0
C110 C 0.98204 0.33535 0.88204 0.0
O111 O 0.07485 0.34868 0.9091 0.0
Mg112 Mg 0.51559 0.26122 0.35717 0.0
O113 O 0.4841 0.2089 0.33996 0.0
O114 O 0.46594 0.19796 0.38417 0.0
Mg115 Mg 0.47869 0.24439 0.42365 0.0
C116 C 0.46862 0.18925 0.35469 0.0
C117 C 0.52312 0.24697 0.27963 0.0
O118 O 0.52478 0.25974 0.25268 0.0
O119 O 0.47851 0.28385 0.34737 0.0
O120 O 0.45332 0.26612 0.384 0.0
O121 O 0.54663 0.23464 0.37728 0.0
O122 O 0.51824 0.25376 0.40584 0.0
C123 C 0.45607 0.27973 0.35868 0.0
C124 C 0.53556 0.23517 0.40309 0.0
O125 O 0.52052 0.26579 0.3049 0.0
Mg126 Mg 0.29215 0.25116 0.50681 0.0
O127 O 0.29664 0.28426 0.55744 0.0
O128 O 0.33987 0.31964 0.57135 0.0
Mg129 Mg 0.36472 0.30678 0.53149 0.0
C130 C 0.31565 0.30784 0.57771 0.0
C131 C 0.23399 0.20099 0.50314 0.0
O132 O 0.25136 0.18191 0.49947 0.0
O133 O 0.29241 0.29392 0.47304 0.0
O134 O 0.33867 0.32027 0.48681 0.0
O135 O 0.30998 0.21408 0.53432 0.0
O136 O 0.33603 0.25515 0.51556 0.0
C137 C 0.31432 0.31519 0.46823 0.0
C138 C 0.33463 0.23008 0.53088 0.0
O139 O 0.24343 0.23305 0.50489 0.0
Mg140 Mg 0.22905 0.18691 0.9171 0.0
O141 O 0.24313 0.23427 0.89642 0.0
O142 O 0.28215 0.22176 0.91462 0.0
Mg143 Mg 0.24839 0.18555 0.93271 0.0
C144 C 0.26934 0.23941 0.89819 0.0
C145 C 0.17682 0.14717 0.86256 0.0
O146 O 0.18332 0.12038 0.8722 0.0
O147 O 0.2445 0.15573 0.87628 0.0
O148 O 0.26827 0.14372 0.91925 0.0
O149 O 0.20443 0.19986 0.95356 0.0
O150 O 0.21076 0.14825 0.94301 0.0
C151 C 0.26082 0.13905 0.88822 0.0
C152 C 0.19686 0.16775 0.95493 0.0
O153 O 0.18931 0.17656 0.87925 0.0
Mg154 Mg 0.35276 0.98871 0.06274 0.0
O155 O 0.34031 0.95459 1.00977 0.0
O156 O 0.37285 0.92539 1.00909 0.0
Mg157 Mg 0.40746 0.94431 0.0574 0.0
C158 C 0.35085 0.93291 0.9949 0.0
C159 C 0.31022 0.02383 0.08328 0.0
O160 O 0.33472 0.03869 0.10342 0.0
O161 O 0.34215 0.9453 0.09227 0.0
O162 O 0.38055 0.92582 0.09503 0.0
O163 O 0.37779 0.03124 0.04267 0.0
O164 O 0.39552 0.99264 0.06397 0.0
C165 C 0.3577 0.92734 0.10434 0.0
C166 C 0.39916 0.01893 0.0501 0.0
O167 O 0.309 0.9991 0.06067 0.0
Mg168 Mg 0.35994 0.47981 0.06839 0.0
O169 O 0.35441 0.44743 0.01698 0.0
O170 O 0.38782 0.41983 0.02056 0.0
Mg171 Mg 0.41571 0.43767 0.07406 0.0
C172 C 0.36695 0.42736 1.0036 0.0
C173 C 0.31334 0.5154 0.05463 0.0
O174 O 0.3364 0.54016 0.06709 0.0
O175 O 0.34388 0.43502 0.09533 0.0
O176 O 0.38284 0.41727 0.10592 0.0
O177 O 0.38735 0.52335 0.05186 0.0
O178 O 0.40483 0.48722 0.07754 0.0
C179 C 0.35816 0.41753 0.11056 0.0
C180 C 0.40918 0.51316 0.06293 0.0
O181 O 0.31509 0.48491 0.05231 0.0
Mg182 Mg 0.80211 0.24135 0.01882 0.0
O183 O 0.81238 0.2712 0.07342 0.0
O184 O 0.85488 0.30751 0.08194 0.0
Mg185 Mg 0.8748 0.29551 0.03679 0.0
C186 C 0.83257 0.29498 0.09199 0.0
C187 C 0.74003 0.19487 1.00844 0.0
O188 O 0.75012 0.17656 0.98774 0.0
O189 O 0.79808 0.2867 0.9906 0.0
O190 O 0.84433 0.31077 0.99737 0.0
O191 O 0.82126 0.19872 0.03236 0.0
O192 O 0.84529 0.24437 0.01838 0.0
C193 C 0.81877 0.30696 0.98261 0.0
C194 C 0.84456 0.21492 0.02558 0.0
O195 O 0.75546 0.22409 0.02347 0.0
Mg196 Mg 0.13727 0.47519 0.21515 0.0
O197 O 0.1669 0.52572 0.21626 0.0
O198 O 0.20016 0.52047 0.25658 0.0
Mg199 Mg 0.17932 0.50339 0.29785 0.0
C200 C 0.19159 0.53603 0.23436 0.0
C201 C 0.12151 0.47224 0.13138 0.0
O202 O 0.12086 0.4525 0.1037 0.0
O203 O 0.17689 0.45324 0.22195 0.0
O204 O 0.18502 0.45299 0.27626 0.0
O205 O 0.106 0.50392 0.22757 0.0
O206 O 0.13828 0.49293 0.26435 0.0
C207 C 0.19046 0.44604 0.24788 0.0
C208 C 0.11982 0.50952 0.25785 0.0
O209 O 0.12868 0.4621 0.15837 0.0
Mg210 Mg 0.86076 0.98239 0.56896 0.0
O211 O 0.85388 0.9491 0.51753 0.0
O212 O 0.88672 0.92064 0.52002 0.0
Mg213 Mg 0.91463 0.93703 0.57293 0.0
C214 C 0.8659 0.92868 0.50367 0.0
C215 C 0.81318 0.01819 0.55794 0.0
O216 O 0.83578 0.04316 0.57184 0.0
O217 O 0.8454 0.93943 0.59786 0.0
O218 O 0.88071 0.91463 0.6028 0.0
O219 O 0.88834 0.0243 0.55116 0.0
O220 O 0.90544 0.98806 0.57734 0.0
C221 C 0.85739 0.91807 0.60974 0.0
C222 C 0.90995 0.01358 0.56209 0.0
O223 O 0.81573 0.98801 0.55351 0.0
Mg224 Mg 0.91843 0.07134 0.17198 0.0
O225 O 0.90511 0.01193 0.1687 0.0
O226 O 0.86742 0.01777 0.18566 0.0
Mg227 Mg 0.87862 0.04874 0.23817 0.0
C228 C 0.88279 0.99869 0.17812 0.0
C229 C 0.94975 0.05303 0.1206 0.0
O230 O 0.95134 0.02925 0.13833 0.0
O231 O 0.87542 0.08047 0.15263 0.0
O232 O 0.85811 0.04824 0.18451 0.0
O233 O 0.9568 0.0704 0.20462 0.0
O234 O 0.91863 0.07624 0.22338 0.0
C235 C 0.86175 0.07695 0.17543 0.0
C236 C 0.9442 0.07337 0.22898 0.0
O237 O 0.93174 0.06975 0.12363 0.0
Mg238 Mg 0.30146 0.74111 0.52024 0.0
O239 O 0.31325 0.77465 0.57364 0.0
O240 O 0.35486 0.81099 0.57749 0.0
Mg241 Mg 0.37159 0.79837 0.53 0.0
C242 C 0.33386 0.7993 0.5902 0.0
C243 C 0.23983 0.69457 0.51196 0.0
O244 O 0.24908 0.67765 0.48927 0.0
O245 O 0.29388 0.78246 0.48831 0.0
O246 O 0.33848 0.81298 0.49291 0.0
O247 O 0.32423 0.7027 0.53747 0.0
O248 O 0.34389 0.74559 0.51588 0.0
C249 C 0.31216 0.8056 0.47974 0.0
C250 C 0.3457 0.71839 0.52687 0.0
O251 O 0.25577 0.72305 0.52816 0.0
Mg252 Mg 0.43768 0.56332 0.68118 0.0
O253 O 0.40812 0.50802 0.67535 0.0
O254 O 0.40776 0.50743 0.67625 0.0
Mg255 Mg 0.41496 0.5215 0.73345 0.0
C256 C 0.3926 0.47758 0.66511 0.0
C257 C 0.44521 0.54714 0.61387 0.0
O258 O 0.44497 0.51744 0.6223 0.0
O259 O 0.40168 0.58529 0.68745 0.0
O260 O 0.3903 0.56068 0.7294 0.0
O261 O 0.47646 0.5469 0.69198 0.0
O262 O 0.45286 0.56128 0.73036 0.0
C263 C 0.38797 0.58196 0.71033 0.0
C264 C 0.47442 0.55272 0.72252 0.0
O265 O 0.43133 0.56488 0.6274 0.0
Mg266 Mg 0.63817 0.96388 0.72037 0.0
O267 O 0.66512 0.01682 0.71853 0.0
O268 O 0.70175 0.02029 0.75944 0.0
Mg269 Mg 0.68255 1.00232 0.80137 0.0
C270 C 0.68976 0.03209 0.73595 0.0
C271 C 0.62463 0.99367 0.65968 0.0
O272 O 0.61028 0.96146 0.65332 0.0
O273 O 0.68147 0.951 0.72569 0.0
O274 O 0.68048 0.94894 0.77805 0.0
O275 O 0.60308 0.98832 0.73451 0.0
O276 O 0.6425 0.99347 0.76745 0.0
C277 C 0.69195 0.94465 0.75353 0.0
C278 C 0.62006 1.00277 0.76206 0.0
O279 O 0.64265 1.00469 0.68698 0.0
Mg280 Mg 0.7917 0.74862 1.00732 0.0
O281 O 0.79755 0.78291 0.0584 0.0
O282 O 0.84268 0.81292 0.07136 0.0
Mg283 Mg 0.86689 0.79887 0.03214 0.0
C284 C 0.81832 0.80468 0.07838 0.0
C285 C 0.73179 0.70047 1.00145 0.0
O286 O 0.74816 0.6803 0.99677 0.0
O287 O 0.79462 0.79231 0.97417 0.0
O288 O 0.8413 0.81445 0.98943 0.0
O289 O 0.80675 0.70882 0.03335 0.0
O290 O 0.83538 0.7496 0.0174 0.0
C291 C 0.81774 0.81213 0.97043 0.0
C292 C 0.83223 0.72382 0.0318 0.0
O293 O 0.74254 0.73256 1.00479 0.0
Mg294 Mg 1.01425 0.75743 0.8571 0.0
O295 O 0.98447 0.70438 0.84035 0.0
O296 O 0.96289 0.69738 0.88293 0.0
Mg297 Mg 0.97689 0.74301 0.9241 0.0
C298 C 0.96694 0.68677 0.85449 0.0
C299 C 0.0255 0.74747 0.77977 0.0
O300 O 0.02736 0.76259 0.75421 0.0
O301 O 0.97514 0.77584 0.84456 0.0
O302 O 0.95323 0.76857 0.88633 0.0
O303 O 0.04806 0.73561 0.88028 0.0
O304 O 0.01586 0.74915 0.90558 0.0
C305 C 0.95464 0.77754 0.85846 0.0
C306 C 0.03584 0.7342 0.90514 0.0
O307 O 0.02059 0.76343 0.80532 0.0
Mg308 Mg 0.85111 0.48735 0.56139 0.0
O309 O 0.84059 0.45175 0.50877 0.0
O310 O 0.87656 0.42801 0.51051 0.0
Mg311 Mg 0.90874 0.44732 0.56053 0.0
C312 C 0.8537 0.43247 0.49478 0.0
C313 C 0.80885 0.52484 0.57588 0.0
O314 O 0.83424 0.5431 0.5916 0.0
O315 O 0.84126 0.44467 0.5919 0.0
O316 O 0.87996 0.42592 0.59552 0.0
O317 O 0.87544 0.52988 0.54056 0.0
O318 O 0.8947 0.49428 0.56532 0.0
C319 C 0.8568 0.42686 0.60438 0.0
C320 C 0.89765 0.51978 0.55028 0.0
O321 O 0.80666 0.49636 0.55782 0.0
Mg322 Mg 0.72812 0.68807 0.41735 0.0
O323 O 0.74341 0.73508 0.39651 0.0
O324 O 0.78095 0.71817 0.41157 0.0
Mg325 Mg 0.74698 0.68443 0.43205 0.0
C326 C 0.76911 0.7375 0.39636 0.0
C327 C 0.6754 0.64848 0.36329 0.0
O328 O 0.68125 0.62164 0.37354 0.0
O329 O 0.74301 0.65675 0.37585 0.0
O330 O 0.76275 0.63893 0.41773 0.0
O331 O 0.70321 0.70148 0.45367 0.0
O332 O 0.70917 0.64977 0.44386 0.0
C333 C 0.75633 0.63665 0.38688 0.0
C334 C 0.69538 0.66952 0.45545 0.0
O335 O 0.68839 0.67796 0.37948 0.0
Pr336 Pr 0.042 0.09527 1.00896 0.0
Pr337 Pr 0.10159 0.13394 0.06051 0.0
C338 C 0.98635 0.08369 0.98396 0.0
C339 C 0.96711 0.10616 0.98647 0.0
C340 C 0.94243 0.10102 0.96224 0.0
C341 C 0.92331 0.12072 0.96631 0.0
C342 C 0.92885 0.14637 0.99435 0.0
C343 C 0.9542 0.15256 0.01766 0.0
C344 C 0.97292 0.13244 0.01398 0.0
C345 C 0.08853 0.11555 0.98266 0.0
C346 C 0.06322 0.18261 0.03421 0.0
C347 C 0.15695 0.14573 0.08655 0.0
C348 C 0.17629 0.12318 0.08872 0.0
C349 C 0.19644 0.12682 0.11777 0.0
C350 C 0.21602 0.10725 0.11915 0.0
C351 C 0.21614 0.08372 0.09135 0.0
C352 C 0.19495 0.07898 0.0628 0.0
C353 C 0.17528 0.09837 0.06153 0.0
C354 C 0.05436 0.11213 0.0862 0.0
C355 C 0.0824 0.04729 0.03546 0.0
O356 O 0.99634 0.07477 1.01155 0.0
O357 O 1.00545 0.09148 0.96628 0.0
O358 O 0.08231 0.13141 1.00672 0.0
O359 O 0.06894 0.08749 0.96865 0.0
O360 O 0.08962 0.18286 0.04667 0.0
O361 O 0.04268 0.15373 0.0248 0.0
O362 O 0.14726 0.15058 0.0569 0.0
O363 O 0.13786 0.14204 0.10474 0.0
O364 O 0.0612 0.09702 0.06229 0.0
O365 O 0.07358 0.14047 0.10034 0.0
O366 O 0.0561 0.04643 0.02119 0.0
O367 O 0.1023 0.07642 0.04627 0.0
H368 H 0.93756 0.08117 0.94067 0.0
H369 H 0.90396 0.11555 0.94785 0.0
H370 H 0.95892 0.17193 0.0396 0.0
H371 H 0.99157 0.13682 0.03328 0.0
H372 H 0.19741 0.14531 0.13925 0.0
H373 H 0.23141 0.11106 0.14194 0.0
H374 H 0.19422 0.06135 0.04081 0.0
H375 H 0.15974 0.09454 0.03885 0.0
Pr376 Pr 0.34063 0.90556 0.30979 0.0
Pr377 Pr 0.31549 0.82948 0.27347 0.0
C378 C 0.37799 0.96459 0.33433 0.0
C379 C 0.38509 0.99419 0.31842 0.0
C380 C 0.36763 0.01636 0.31561 0.0
C381 C 0.37658 0.04642 0.30405 0.0
C382 C 0.40328 0.05476 0.29617 0.0
C383 C 0.41824 0.03009 0.29349 0.0
C384 C 0.40946 1.00014 0.3052 0.0
C385 C 0.28604 0.89916 0.2734 0.0
C386 C 0.34079 0.88536 0.22875 0.0
C387 C 0.2788 0.77152 0.24365 0.0
C388 C 0.27129 0.73882 0.25387 0.0
C389 C 0.28975 0.71778 0.25528 0.0
C390 C 0.28064 0.68522 0.26167 0.0
C391 C 0.25312 0.67378 0.26647 0.0
C392 C 0.23622 0.69631 0.26937 0.0
C393 C 0.24519 0.72864 0.26274 0.0
C394 C 0.37054 0.83586 0.30861 0.0
C395 C 0.31346 0.84922 0.354 0.0
O396 O 0.38527 0.93792 0.32167 0.0
O397 O 0.35309 0.95742 0.34211 0.0
O398 O 0.29878 0.87615 0.27519 0.0
O399 O 0.30127 0.92689 0.2932 0.0
O400 O 0.32599 0.85414 0.22841 0.0
O401 O 0.3504 0.90819 0.25647 0.0
O402 O 0.27149 0.79586 0.26074 0.0
O403 O 0.30387 0.78079 0.23664 0.0
O404 O 0.35785 0.85902 0.30736 0.0
O405 O 0.35483 0.80799 0.28936 0.0
O406 O 0.32837 0.88067 0.35454 0.0
O407 O 0.30475 0.82614 0.32634 0.0
H408 H 0.34812 0.01177 0.3244 0.0
H409 H 0.36481 0.06535 0.30626 0.0
H410 H 0.43892 0.03623 0.28747 0.0
H411 H 0.4228 0.98282 0.30599 0.0
H412 H 0.31052 0.72566 0.2498 0.0
H413 H 0.29404 0.66807 0.26006 0.0
H414 H 0.21493 0.68792 0.27326 0.0
H415 H 0.23105 0.74499 0.26279 0.0
Pr416 Pr 0.59881 0.11849 0.53284 0.0
Pr417 Pr 0.53943 0.10754 0.54246 0.0
C418 C 0.65 0.11383 0.52375 0.0
C419 C 0.66724 0.08979 0.51894 0.0
C420 C 0.68772 0.09699 0.49996 0.0
C421 C 0.70798 0.07872 0.49981 0.0
C422 C 0.70798 0.05286 0.51856 0.0
C423 C 0.68579 0.04334 0.53492 0.0
C424 C 0.66548 0.06178 0.53516 0.0
C425 C 0.56743 0.15051 0.49224 0.0
C426 C 0.55155 0.04253 0.50271 0.0
C427 C 0.48786 0.11157 0.55119 0.0
C428 C 0.47053 0.1358 0.55477 0.0
C429 C 0.45034 0.13037 0.5744 0.0
C430 C 0.43109 0.15017 0.57491 0.0
C431 C 0.43162 0.17571 0.55563 0.0
C432 C 0.4533 0.18272 0.5379 0.0
C433 C 0.47256 0.16292 0.53743 0.0
C434 C 0.57216 0.07717 0.58392 0.0
C435 C 0.58504 0.18388 0.57167 0.0
O436 O 0.64433 0.12037 0.553 0.0
O437 O 0.62912 0.11222 0.49942 0.0
O438 O 0.55787 0.12062 0.49732 0.0
O439 O 0.5937 0.1635 0.50659 0.0
O440 O 0.53131 0.05768 0.50495 0.0
O441 O 0.57834 0.05928 0.51458 0.0
O442 O 0.49357 0.104 0.52214 0.0
O443 O 0.50896 0.11435 0.57566 0.0
O444 O 0.58076 0.1068 0.57801 0.0
O445 O 0.54597 0.06321 0.56951 0.0
O446 O 0.60638 0.17064 0.56869 0.0
O447 O 0.55875 0.16565 0.56013 0.0
H448 H 0.68917 0.11821 0.48694 0.0
H449 H 0.72495 0.08649 0.4871 0.0
H450 H 0.68553 0.0236 0.54969 0.0
H451 H 0.64951 0.05547 0.54954 0.0
H452 H 0.44867 0.1098 0.58826 0.0
H453 H 0.41476 0.14403 0.58883 0.0
H454 H 0.45473 0.20276 0.5234 0.0
H455 H 0.48835 0.16801 0.5226 0.0
Pr456 Pr 0.30035 0.37211 0.78512 0.0
Pr457 Pr 0.3599 0.36187 0.79022 0.0
C458 C 0.24777 0.37436 0.79002 0.0
C459 C 0.23001 0.38199 0.81313 0.0
C460 C 0.21475 0.4059 0.80714 0.0
C461 C 0.19381 0.40946 0.82441 0.0
C462 C 0.18759 0.38888 0.8478 0.0
C463 C 0.2048 0.36741 0.85618 0.0
C464 C 0.22586 0.36388 0.83885 0.0
C465 C 0.33536 0.4201 0.7598 0.0
C466 C 0.34534 0.39408 0.8595 0.0
C467 C 0.41086 0.35239 0.78743 0.0
C468 C 0.43094 0.34716 0.76702 0.0
C469 C 0.44779 0.32548 0.7754 0.0
C470 C 0.46877 0.32169 0.75831 0.0
C471 C 0.47312 0.33957 0.73256 0.0
C472 C 0.45502 0.35973 0.72291 0.0
C473 C 0.43401 0.36353 0.74008 0.0
C474 C 0.323 0.31301 0.81199 0.0
C475 C 0.31594 0.3414 0.71637 0.0
O476 O 0.2561 0.34642 0.78983 0.0
O477 O 0.2666 0.40015 0.78503 0.0
O478 O 0.34376 0.40911 0.78569 0.0
O479 O 0.30831 0.40893 0.74886 0.0
O480 O 0.36603 0.38963 0.84488 0.0
O481 O 0.31923 0.3886 0.84255 0.0
O482 O 0.40678 0.38279 0.79359 0.0
O483 O 0.38807 0.32742 0.78316 0.0
O484 O 0.31624 0.32467 0.78627 0.0
O485 O 0.3492 0.32561 0.82643 0.0
O486 O 0.2946 0.34103 0.73142 0.0
O487 O 0.34242 0.35167 0.73292 0.0
H488 H 0.21785 0.42044 0.78767 0.0
H489 H 0.18115 0.4266 0.81787 0.0
H490 H 0.20048 0.35128 0.87415 0.0
H491 H 0.23767 0.34562 0.84431 0.0
H492 H 0.44527 0.31223 0.79585 0.0
H493 H 0.48219 0.30569 0.76591 0.0
H494 H 0.45806 0.37398 0.70324 0.0
H495 H 0.42083 0.37994 0.733 0.0
Pr496 Pr 0.06625 0.09567 0.51025 0.0
Pr497 Pr 0.07901 0.13171 0.5703 0.0
C498 C 0.04252 0.06332 0.44869 0.0
C499 C 0.03125 0.07456 0.4188 0.0
C500 C 0.04835 0.08378 0.3964 0.0
C501 C 0.03678 0.09215 0.36695 0.0
C502 C 1.00795 0.09083 0.35953 0.0
C503 C 0.99153 0.08423 0.3831 0.0
C504 C 1.00306 0.07604 0.41246 0.0
C505 C 0.12347 0.13114 0.52355 0.0
C506 C 0.05695 0.17372 0.51618 0.0
C507 C 0.10219 0.16363 0.63259 0.0
C508 C 0.11103 0.15353 0.66423 0.0
C509 C 0.09247 0.14846 0.68594 0.0
C510 C 0.1016 0.14114 0.71687 0.0
C511 C 0.12938 0.13919 0.72646 0.0
C512 C 0.14761 0.14288 0.70446 0.0
C513 C 0.13849 0.14992 0.67347 0.0
C514 C 0.02188 0.09389 0.55603 0.0
C515 C 0.08856 0.05334 0.5629 0.0
O516 O 0.02836 0.06474 0.47209 0.0
O517 O 0.06987 0.07336 0.45947 0.0
O518 O 0.10391 0.14435 0.52952 0.0
O519 O 0.11391 0.09849 0.51363 0.0
O520 O 0.0712 0.17788 0.54651 0.0
O521 O 0.04971 0.14324 0.49747 0.0
O522 O 0.11702 0.15906 0.61036 0.0
O523 O 0.07509 0.15601 0.62033 0.0
O524 O 0.04236 0.08223 0.55116 0.0
O525 O 0.03039 0.12653 0.56649 0.0
O526 O 0.07344 0.04963 0.53322 0.0
O527 O 0.09628 0.08375 0.582 0.0
H528 H 0.07033 0.08345 0.40106 0.0
H529 H 0.04992 0.09779 0.34925 0.0
H530 H 0.96919 0.0828 0.37794 0.0
H531 H 0.98947 0.06954 0.42953 0.0
H532 H 0.07124 0.15123 0.67948 0.0
H533 H 0.08756 0.13903 0.73401 0.0
H534 H 0.16929 0.14187 0.71186 0.0
H535 H 0.15326 0.15367 0.65727 0.0
Pr536 Pr 0.31417 0.83029 0.79445 0.0
Pr537 Pr 0.33877 0.90378 0.78661 0.0
C538 C 0.30183 0.76265 0.78948 0.0
C539 C 0.31738 0.73805 0.78121 0.0
C540 C 0.31651 0.71069 0.79793 0.0
C541 C 0.33143 0.68713 0.79021 0.0
C542 C 0.34701 0.69052 0.7653 0.0
C543 C 0.34942 0.71945 0.75039 0.0
C544 C 0.33487 0.74319 0.75849 0.0
C545 C 0.3164 0.87037 0.85524 0.0
C546 C 0.3842 0.86496 0.81658 0.0
C547 C 0.34854 0.97126 0.78991 0.0
C548 C 0.33212 0.99514 0.79791 0.0
C549 C 0.33839 0.02724 0.78893 0.0
C550 C 0.32301 0.05027 0.79691 0.0
C551 C 0.301 0.04114 0.81349 0.0
C552 C 0.29358 0.00828 0.82067 0.0
C553 C 0.30911 0.98534 0.81293 0.0
C554 C 0.33858 0.86276 0.72656 0.0
C555 C 0.26912 0.87092 0.76886 0.0
O556 O 0.29228 0.7773 0.76562 0.0
O557 O 0.31352 0.78368 0.81725 0.0
O558 O 0.32434 0.88223 0.83082 0.0
O559 O 0.30414 0.83821 0.8468 0.0
O560 O 0.38032 0.89523 0.81437 0.0
O561 O 0.36329 0.83685 0.80606 0.0
O562 O 0.3592 0.9578 0.81414 0.0
O563 O 0.33691 0.94925 0.76269 0.0
O564 O 0.32994 0.85136 0.75082 0.0
O565 O 0.34986 0.89517 0.73462 0.0
O566 O 0.27266 0.84018 0.76783 0.0
O567 O 0.29028 0.89832 0.78004 0.0
H568 H 0.30405 0.70735 0.81663 0.0
H569 H 0.33011 0.66578 0.80302 0.0
H570 H 0.36135 0.723 0.73125 0.0
H571 H 0.33674 0.76511 0.74642 0.0
H572 H 0.35565 0.03478 0.7766 0.0
H573 H 0.32913 0.07575 0.79163 0.0
H574 H 0.27693 1.00111 0.83398 0.0
H575 H 0.30369 0.96037 0.8195 0.0
Pr576 Pr 0.58134 0.10951 0.07632 0.0
Pr577 Pr 0.56043 0.11951 1.00235 0.0
C578 C 0.59036 0.11335 0.14239 0.0
C579 C 0.57466 0.11939 0.16827 0.0
C580 C 0.58407 0.11412 0.20026 0.0
C581 C 0.57056 0.12271 0.22559 0.0
C582 C 0.54741 0.13665 0.21919 0.0
C583 C 0.53671 0.13907 0.18637 0.0
C584 C 0.55024 0.13059 0.16119 0.0
C585 C 0.57755 0.04876 0.03263 0.0
C586 C 0.51201 0.08683 0.04066 0.0
C587 C 0.55154 0.11759 0.93702 0.0
C588 C 0.56704 0.10985 0.91175 0.0
C589 C 0.56277 0.12219 0.88221 0.0
C590 C 0.57676 0.11371 0.8575 0.0
C591 C 0.59504 0.09267 0.86211 0.0
C592 C 0.60095 0.08275 0.89292 0.0
C593 C 0.58705 0.09134 0.91759 0.0
C594 C 0.56254 0.17978 0.04545 0.0
C595 C 0.62959 0.13716 0.03454 0.0
O596 O 0.5998 0.13921 0.12841 0.0
O597 O 0.57926 0.08493 0.12128 0.0
O598 O 0.57228 0.07567 0.02473 0.0
O599 O 0.58771 0.05434 0.06411 0.0
O600 O 0.51777 0.08936 1.01138 0.0
O601 O 0.53163 0.09755 0.06833 0.0
O602 O 0.53973 0.09208 0.95014 0.0
O603 O 0.56456 0.14522 0.95861 0.0
O604 O 0.56875 0.15361 0.05434 0.0
O605 O 0.55287 0.17345 0.01393 0.0
O606 O 0.62472 0.13681 0.06464 0.0
O607 O 0.60909 0.1267 1.00787 0.0
H608 H 0.60249 0.10459 0.2059 0.0
H609 H 0.57908 0.12012 0.25047 0.0
H610 H 0.51913 0.14999 0.18042 0.0
H611 H 0.54235 0.13416 0.13646 0.0
H612 H 0.54809 0.13759 0.87795 0.0
H613 H 0.57236 0.12235 0.83429 0.0
H614 H 0.61488 0.06649 0.8973 0.0
H615 H 0.59121 0.08257 0.94079 0.0
Pr616 Pr 0.30096 0.3303 0.27407 0.0
Pr617 Pr 0.35455 0.39766 0.29931 0.0
C618 C 0.24924 0.29254 0.27539 0.0
C619 C 0.22535 0.30161 0.28805 0.0
C620 C 0.19888 0.29561 0.26674 0.0
C621 C 0.17636 0.30472 0.27824 0.0
C622 C 0.17978 0.31977 0.31145 0.0
C623 C 0.20645 0.32645 0.33253 0.0
C624 C 0.22899 0.31768 0.32098 0.0
C625 C 0.31955 0.35644 0.21944 0.0
C626 C 0.29269 0.40709 0.27999 0.0
C627 C 0.40876 0.43368 0.3069 0.0
C628 C 0.43231 0.42473 0.29336 0.0
C629 C 0.46055 0.43946 0.30981 0.0
C630 C 0.48263 0.42989 0.29754 0.0
C631 C 0.47689 0.40497 0.26883 0.0
C632 C 0.44857 0.3898 0.25287 0.0
C633 C 0.42661 0.39967 0.26487 0.0
C634 C 0.32798 0.37151 0.34877 0.0
C635 C 0.3627 0.31914 0.28736 0.0
O636 O 0.27191 0.29358 0.29711 0.0
O637 O 0.25511 0.30466 0.24935 0.0
O638 O 0.32899 0.36741 0.24991 0.0
O639 O 0.29977 0.3283 0.21606 0.0
O640 O 0.31892 0.42269 0.279 0.0
O641 O 0.28726 0.37876 0.29185 0.0
O642 O 0.38796 0.43843 0.28576 0.0
O643 O 0.39987 0.41592 0.32851 0.0
O644 O 0.33264 0.35477 0.32365 0.0
O645 O 0.33867 0.40401 0.3499 0.0
O646 O 0.33628 0.30287 0.28676 0.0
O647 O 0.36886 0.34966 0.27942 0.0
H648 H 0.19559 0.28377 0.24113 0.0
H649 H 0.1561 0.29922 0.26135 0.0
H650 H 0.20994 0.33862 0.35806 0.0
H651 H 0.24925 0.32351 0.33794 0.0
H652 H 0.46555 0.45836 0.33215 0.0
H653 H 0.50423 0.44192 0.31055 0.0
H654 H 0.44338 0.37082 0.23056 0.0
H655 H 0.40511 0.38739 0.25196 0.0
Pr656 Pr 0.56288 0.59646 1.01077 0.0
Pr657 Pr 0.57818 0.6327 0.07063 0.0
C658 C 0.53388 0.56641 0.9504 0.0
C659 C 0.53066 0.57718 0.91853 0.0
C660 C 0.55409 0.58739 0.90421 0.0
C661 C 0.54991 0.59072 0.87123 0.0
C662 C 0.52239 0.58394 0.85281 0.0
C663 C 0.4994 0.57892 0.86845 0.0
C664 C 0.50352 0.57525 0.90127 0.0
C665 C 0.62001 0.63138 0.01923 0.0
C666 C 0.55673 0.67628 0.01761 0.0
C667 C 0.60333 0.66419 0.13254 0.0
C668 C 0.61166 0.6538 0.16416 0.0
C669 C 0.59262 0.64779 0.18522 0.0
C670 C 0.60144 0.64037 0.21621 0.0
C671 C 0.62939 0.63924 0.22648 0.0
C672 C 0.64803 0.64361 0.20496 0.0
C673 C 0.63924 0.65085 0.17398 0.0
C674 C 0.52104 0.59497 0.05891 0.0
C675 C 0.58689 0.55394 0.06276 0.0
O676 O 0.52248 0.58106 0.97212 0.0
O677 O 0.55858 0.56232 0.96262 0.0
O678 O 0.60143 0.64477 0.02824 0.0
O679 O 0.6094 0.59927 1.007 0.0
O680 O 0.5707 0.67975 0.04797 0.0
O681 O 0.54922 0.64598 0.99859 0.0
O682 O 0.61732 0.65761 0.10992 0.0
O683 O 0.57632 0.65885 0.12084 0.0
O684 O 0.54126 0.58334 0.05318 0.0
O685 O 0.52969 0.62763 0.06919 0.0
O686 O 0.57026 0.54993 0.0338 0.0
O687 O 0.59563 0.58466 0.08131 0.0
H688 H 0.5754 0.59036 0.91763 0.0
H689 H 0.56779 0.59507 0.8594 0.0
H690 H 0.47802 0.57435 0.85441 0.0
H691 H 0.48535 0.56852 0.91238 0.0
H692 H 0.57124 0.64994 0.17829 0.0
H693 H 0.58703 0.63767 0.2329 0.0
H694 H 0.66979 0.64309 0.21279 0.0
H695 H 0.65435 0.6553 0.15824 0.0
Pr696 Pr 0.81581 0.32642 0.29485 0.0
Pr697 Pr 0.83931 0.4034 0.2862 0.0
C698 C 0.80807 0.25919 0.29055 0.0
C699 C 0.82588 0.23691 0.28228 0.0
C700 C 0.83091 0.21318 0.3021 0.0
C701 C 0.84702 0.19114 0.29352 0.0
C702 C 0.85782 0.19214 0.26458 0.0
C703 C 0.85499 0.21827 0.2468 0.0
C704 C 0.83925 0.24045 0.25567 0.0
C705 C 0.81875 0.36983 0.35466 0.0
C706 C 0.88553 0.36456 0.31516 0.0
C707 C 0.84859 0.47087 0.29122 0.0
C708 C 0.83267 0.49452 0.30164 0.0
C709 C 0.83133 0.52182 0.28529 0.0
C710 C 0.81495 0.54348 0.29373 0.0
C711 C 0.7998 0.5382 0.31882 0.0
C712 C 0.80045 0.50998 0.3343 0.0
C713 C 0.81659 0.48817 0.32561 0.0
C714 C 0.83719 0.36051 0.22631 0.0
C715 C 0.76962 0.36699 0.26996 0.0
O716 O 0.79657 0.27253 0.26668 0.0
O717 O 0.8184 0.28069 0.31833 0.0
O718 O 0.82496 0.37877 0.32843 0.0
O719 O 0.8085 0.33713 0.34919 0.0
O720 O 0.88123 0.39472 0.31312 0.0
O721 O 0.8651 0.33602 0.30457 0.0
O722 O 0.86076 0.45694 0.31409 0.0
O723 O 0.83579 0.44943 0.26388 0.0
O724 O 0.83027 0.3507 0.25202 0.0
O725 O 0.84687 0.39328 0.23226 0.0
O726 O 0.77364 0.33628 0.26911 0.0
O727 O 0.79042 0.39506 0.28092 0.0
H728 H 0.82173 0.21104 0.32363 0.0
H729 H 0.84957 0.17205 0.30843 0.0
H730 H 0.86293 0.22008 0.22444 0.0
H731 H 0.83657 0.25948 0.24088 0.0
H732 H 0.84288 0.52632 0.26593 0.0
H733 H 0.81438 0.56454 0.28085 0.0
H734 H 0.78924 0.50528 0.35391 0.0
H735 H 0.81666 0.46651 0.33776 0.0
Pr736 Pr 0.07927 0.60593 0.57363 0.0
Pr737 Pr 0.06152 0.61815 0.50696 0.0
C738 C 0.08514 0.59932 0.63788 0.0
C739 C 0.07094 0.60802 0.66464 0.0
C740 C 0.08227 0.60629 0.69728 0.0
C741 C 0.07119 0.61926 0.72327 0.0
C742 C 0.04849 0.63396 0.71689 0.0
C743 C 0.03588 0.63314 0.68388 0.0
C744 C 0.04711 0.62051 0.65805 0.0
C745 C 0.07564 0.54943 0.52503 0.0
C746 C 1.01004 0.59141 0.5419 0.0
C747 C 0.05351 0.61564 0.44124 0.0
C748 C 0.06979 0.6102 0.416 0.0
C749 C 0.06488 0.6232 0.38693 0.0
C750 C 0.0785 0.61567 0.36151 0.0
C751 C 0.09697 0.59463 0.36472 0.0
C752 C 0.10366 0.58423 0.3952 0.0
C753 C 0.09021 0.59204 0.42066 0.0
C754 C 0.06586 0.68064 0.54703 0.0
C755 C 0.12935 0.6353 0.53741 0.0
O756 O 0.10007 0.62504 0.62779 0.0
O757 O 0.07001 0.57525 0.6135 0.0
O758 O 0.05806 0.56709 0.52545 0.0
O759 O 0.09708 0.56215 0.54968 0.0
O760 O 0.01613 0.59477 0.51303 0.0
O761 O 0.03018 0.59897 0.56891 0.0
O762 O 0.04376 0.58947 0.45456 0.0
O763 O 0.06404 0.64383 0.46267 0.0
O764 O 0.07161 0.65559 0.55896 0.0
O765 O 0.05516 0.67231 0.51579 0.0
O766 O 0.1231 0.63766 0.56677 0.0
O767 O 0.10938 0.62111 0.51105 0.0
H768 H 0.10051 0.5964 0.7028 0.0
H769 H 0.08125 0.61941 0.74842 0.0
H770 H 0.01866 0.64469 0.67806 0.0
H771 H 0.03807 0.62215 0.63306 0.0
H772 H 0.04981 0.63822 0.38345 0.0
H773 H 0.07358 0.62501 0.3388 0.0
H774 H 0.1178 0.56809 0.39874 0.0
H775 H 0.09485 0.58264 0.44341 0.0
Pr776 Pr 0.80172 0.8703 0.28523 0.0
Pr777 Pr 0.863 0.86394 0.29313 0.0
C778 C 0.74829 0.86902 0.28939 0.0
C779 C 0.73055 0.87837 0.31196 0.0
C780 C 0.71473 0.90124 0.30384 0.0
C781 C 0.69371 0.90583 0.32063 0.0
C782 C 0.68789 0.8873 0.34562 0.0
C783 C 0.70568 0.86714 0.35609 0.0
C784 C 0.72686 0.86259 0.33927 0.0
C785 C 0.83617 0.91831 0.25947 0.0
C786 C 0.8461 0.89682 0.36014 0.0
C787 C 0.91544 0.85947 0.29049 0.0
C788 C 0.93409 0.85197 0.26867 0.0
C789 C 0.95062 0.82988 0.27692 0.0
C790 C 0.97077 0.82465 0.25898 0.0
C791 C 0.97479 0.84158 0.23251 0.0
C792 C 0.95683 0.86192 0.22286 0.0
C793 C 0.93658 0.86711 0.24085 0.0
C794 C 0.82635 0.81328 0.31348 0.0
C795 C 0.82011 0.83999 0.21812 0.0
O796 O 0.75888 0.84316 0.29316 0.0
O797 O 0.76516 0.89402 0.28046 0.0
O798 O 0.84437 0.90895 0.28641 0.0
O799 O 0.80915 0.90634 0.24837 0.0
O800 O 0.86745 0.89285 0.34663 0.0
O801 O 0.82009 0.89009 0.34247 0.0
O802 O 0.9084 0.88833 0.29147 0.0
O803 O 0.89511 0.83374 0.29261 0.0
O804 O 0.82005 0.82479 0.28754 0.0
O805 O 0.85214 0.82716 0.32913 0.0
O806 O 0.79794 0.83945 0.23181 0.0
O807 O 0.84614 0.85041 0.23601 0.0
H808 H 0.71744 0.91403 0.28313 0.0
H809 H 0.68064 0.92201 0.31246 0.0
H810 H 0.70173 0.85264 0.37537 0.0
H811 H 0.7391 0.84523 0.34643 0.0
H812 H 0.9486 0.81754 0.29804 0.0
H813 H 0.98394 0.80838 0.26658 0.0
H814 H 0.95949 0.87541 0.20261 0.0
H815 H 0.92367 0.88383 0.23374 0.0
Pr816 Pr 0.83739 0.39886 0.80666 0.0
Pr817 Pr 0.82041 0.3309 0.77655 0.0
C818 C 0.8745 0.45842 0.831 0.0
C819 C 0.88226 0.48903 0.81675 0.0
C820 C 0.86495 0.51139 0.81448 0.0
C821 C 0.87467 0.54253 0.80515 0.0
C822 C 0.90181 0.55157 0.79857 0.0
C823 C 0.91715 0.5273 0.79599 0.0
C824 C 0.90759 0.49627 0.80551 0.0
C825 C 0.78393 0.39474 0.77066 0.0
C826 C 0.83981 0.38129 0.72718 0.0
C827 C 0.79707 0.26519 0.75116 0.0
C828 C 0.78278 0.23407 0.76064 0.0
C829 C 0.79427 0.20626 0.75714 0.0
C830 C 0.77789 0.17412 0.75754 0.0
C831 C 0.7499 0.16974 0.76104 0.0
C832 C 0.73964 0.19799 0.76886 0.0
C833 C 0.75614 0.23028 0.7687 0.0
C834 C 0.87723 0.35018 0.80784 0.0
C835 C 0.8108 0.34813 0.85367 0.0
O836 O 0.88161 0.43211 0.8172 0.0
O837 O 0.8495 0.45093 0.8385 0.0
O838 O 0.79439 0.36947 0.77023 0.0
O839 O 0.80005 0.42189 0.79039 0.0
O840 O 0.8251 0.35056 0.72761 0.0
O841 O 0.84976 0.40365 0.75484 0.0
O842 O 0.78335 0.2884 0.74861 0.0
O843 O 0.82399 0.2773 0.76392 0.0
O844 O 0.85725 0.35614 0.82041 0.0
O845 O 0.86847 0.33753 0.77655 0.0
O846 O 0.8233 0.37998 0.85313 0.0
O847 O 0.80606 0.32442 0.82716 0.0
H848 H 0.84491 0.506 0.82208 0.0
H849 H 0.86276 0.56129 0.80757 0.0
H850 H 0.93829 0.53414 0.7913 0.0
H851 H 0.92098 0.47901 0.80626 0.0
H852 H 0.81506 0.20898 0.75163 0.0
H853 H 0.78629 0.1524 0.7526 0.0
H854 H 0.71819 0.19487 0.77227 0.0
H855 H 0.7472 0.25172 0.77237 0.0
Pr856 Pr 0.80284 0.83408 0.77464 0.0
Pr857 Pr 0.85423 0.89225 0.79875 0.0
C858 C 0.74812 0.79878 0.76554 0.0
C859 C 0.72418 0.80476 0.78031 0.0
C860 C 0.69868 0.80468 0.75978 0.0
C861 C 0.67651 0.81229 0.77324 0.0
C862 C 0.67927 0.82027 0.80768 0.0
C863 C 0.70487 0.82033 0.82818 0.0
C864 C 0.72698 0.81264 0.81468 0.0
C865 C 0.82616 0.859 0.72271 0.0
C866 C 0.79579 0.90944 0.79264 0.0
C867 C 0.90778 0.93003 0.80537 0.0
C868 C 0.93161 0.92272 0.7912 0.0
C869 C 0.95558 0.9186 0.81178 0.0
C870 C 0.97693 0.90856 0.79838 0.0
C871 C 0.97498 0.9026 0.76396 0.0
C872 C 0.95126 0.90769 0.74355 0.0
C873 C 0.92984 0.91732 0.75691 0.0
C874 C 0.83066 0.86923 0.8512 0.0
C875 C 0.8608 0.81452 0.78613 0.0
O876 O 0.76876 0.79112 0.78429 0.0
O877 O 0.75717 0.82006 0.74682 0.0
O878 O 0.82316 0.8768 0.74825 0.0
O879 O 0.81704 0.82669 0.72334 0.0
O880 O 0.82054 0.92254 0.78605 0.0
O881 O 0.79118 0.87982 0.80182 0.0
O882 O 0.88634 0.93434 0.78504 0.0
O883 O 0.89983 0.9119 0.82707 0.0
O884 O 0.83319 0.85048 0.82587 0.0
O885 O 0.84217 0.90113 0.8509 0.0
O886 O 0.83466 0.80279 0.78929 0.0
O887 O 0.86865 0.84465 0.77808 0.0
H888 H 0.69596 0.79892 0.7332 0.0
H889 H 0.65707 0.81158 0.7566 0.0
H890 H 0.70804 0.82685 0.85475 0.0
H891 H 0.7464 0.81319 0.83117 0.0
H892 H 0.95752 0.9224 0.8383 0.0
H893 H 0.9946 0.90474 0.81508 0.0
H894 H 0.94914 0.9044 0.71706 0.0
H895 H 0.9117 0.92011 0.74018 0.0
Pr896 Pr 0.53977 0.59413 0.50553 0.0
Pr897 Pr 0.59894 0.63156 0.5577 0.0
C898 C 0.48455 0.58385 0.47948 0.0
C899 C 0.46559 0.60602 0.48524 0.0
C900 C 0.44311 0.60676 0.46018 0.0
C901 C 0.42499 0.62732 0.46633 0.0
C902 C 0.42893 0.64726 0.49775 0.0
C903 C 0.45198 0.64725 0.52237 0.0
C904 C 0.47011 0.627 0.51619 0.0
C905 C 0.58677 0.61316 0.47993 0.0
C906 C 0.56096 0.68039 0.53102 0.0
C907 C 0.65401 0.6428 0.58569 0.0
C908 C 0.67372 0.62068 0.58783 0.0
C909 C 0.69658 0.62782 0.61483 0.0
C910 C 0.71678 0.60911 0.61542 0.0
C911 C 0.71451 0.58267 0.58907 0.0
C912 C 0.69069 0.57427 0.56298 0.0
C913 C 0.67066 0.59319 0.56225 0.0
C914 C 0.55087 0.61003 0.5826 0.0
C915 C 0.57905 0.54579 0.53187 0.0
O916 O 0.49373 0.57072 0.50469 0.0
O917 O 0.50426 0.59487 0.4635 0.0
O918 O 0.58062 0.62966 0.50364 0.0
O919 O 0.56713 0.58512 0.46607 0.0
O920 O 0.58755 0.68079 0.54293 0.0
O921 O 0.54045 0.65158 0.52435 0.0
O922 O 0.64516 0.64881 0.55625 0.0
O923 O 0.63409 0.63756 0.60264 0.0
O924 O 0.55809 0.59517 0.55891 0.0
O925 O 0.57019 0.63813 0.5971 0.0
O926 O 0.55257 0.54584 0.51993 0.0
O927 O 0.59977 0.57429 0.54036 0.0
H928 H 0.43933 0.59111 0.43603 0.0
H929 H 0.40738 0.62681 0.44686 0.0
H930 H 0.45585 0.66277 0.5466 0.0
H931 H 0.48753 0.62748 0.53587 0.0
H932 H 0.69931 0.64858 0.63502 0.0
H933 H 0.73463 0.61593 0.63617 0.0
H934 H 0.68829 0.55425 0.54222 0.0
H935 H 0.65333 0.58704 0.54102 0.0
Pr936 Pr 0.09948 0.61525 0.03691 0.0
Pr937 Pr 0.04122 0.60719 0.04737 0.0
C938 C 0.14962 0.60969 0.02468 0.0
C939 C 0.16732 0.58656 0.01848 0.0
C940 C 0.18745 0.59545 0.99938 0.0
C941 C 0.20804 0.57788 0.99777 0.0
C942 C 0.20883 0.5512 0.01535 0.0
C943 C 0.18687 0.53995 0.03153 0.0
C944 C 0.16618 0.55758 0.03307 0.0
C945 C 0.07129 0.652 0.99807 0.0
C946 C 0.05137 0.54036 1.00789 0.0
C947 C 0.9896 0.61209 0.05497 0.0
C948 C 0.97072 0.6344 0.05842 0.0
C949 C 0.9505 0.62644 0.07761 0.0
C950 C 0.92973 0.64391 0.07822 0.0
C951 C 0.92886 0.66988 0.05976 0.0
C952 C 0.95027 0.67941 0.04219 0.0
C953 C 0.97103 0.66165 0.04138 0.0
C954 C 0.07231 0.57568 0.09016 0.0
C955 C 0.08849 0.68162 0.07801 0.0
O956 O 0.14531 0.61642 0.05461 0.0
O957 O 0.12775 0.60742 1.00141 0.0
O958 O 0.05945 0.6221 1.00207 0.0
O959 O 0.09751 0.66197 1.01318 0.0
O960 O 0.0317 0.55635 1.01042 0.0
O961 O 0.07826 0.55641 0.01934 0.0
O962 O 0.9958 0.60509 0.02613 0.0
O963 O 1.01047 0.61522 0.0798 0.0
O964 O 0.0821 0.60436 0.08266 0.0
O965 O 0.04576 0.56331 0.07669 0.0
O966 O 0.10901 0.66727 0.07372 0.0
O967 O 0.06181 0.66474 0.06698 0.0
H968 H 0.18829 0.6173 0.98734 0.0
H969 H 0.2246 0.58673 0.98481 0.0
H970 H 0.18701 0.51938 0.04521 0.0
H971 H 0.15033 0.54963 0.04704 0.0
H972 H 0.9501 0.60572 0.09118 0.0
H973 H 0.91379 0.63642 0.09237 0.0
H974 H 0.9501 0.69936 0.02773 0.0
H975 H 0.98662 0.66839 0.0266 0.0
C976 C 0.02063 0.24482 1.01157 0.0
C977 C 0.0388 0.2671 0.9969 0.0
H978 H 1.01417 0.20114 0.03509 0.0
C979 C 0.06651 0.26371 0.99858 0.0
H980 H 0.99917 0.24639 1.01087 0.0
C981 C 0.07523 0.23785 1.01304 0.0
C982 C 0.05637 0.21433 0.02573 0.0
H983 H 0.08118 0.28023 0.98759 0.0
H984 H 0.09619 0.235 1.0124 0.0
C985 C 0.0292 0.21869 0.02545 0.0
C986 C 0.22247 0.89138 0.20426 0.0
C987 C 0.20278 0.89922 0.22241 0.0
H988 H 0.2642 0.88406 0.20616 0.0
C989 C 0.21034 0.90415 0.25713 0.0
H990 H 0.21734 0.88707 0.17754 0.0
C991 C 0.23693 0.90264 0.27327 0.0
C992 C 0.25668 0.89527 0.25535 0.0
H993 H 0.19584 0.90995 0.27214 0.0
H994 H 0.24224 0.90776 0.30002 0.0
C995 C 0.24913 0.8892 0.2206 0.0
C996 C 0.5577 0.95209 0.48122 0.0
C997 C 0.52938 0.93299 0.47575 0.0
H998 H 0.587 1.00164 0.49414 0.0
C999 C 0.50847 0.95027 0.47826 0.0
H1000 H 0.57425 0.93947 0.47924 0.0
C1001 C 0.51561 0.98581 0.48584 0.0
C1002 C 0.54393 1.00502 0.49165 0.0
H1003 H 0.4864 0.93633 0.47351 0.0
H1004 H 0.49887 0.99817 0.48751 0.0
C1005 C 0.56494 0.98771 0.48944 0.0
C1006 C 0.5497 0.35578 0.72776 0.0
C1007 C 0.54808 0.35768 0.69429 0.0
H1008 H 0.52692 0.34872 0.76622 0.0
C1009 C 0.52148 0.34794 0.67267 0.0
H1010 H 0.56992 0.36294 0.74498 0.0
C1011 C 0.49687 0.33964 0.68473 0.0
C1012 C 0.49849 0.34083 0.71864 0.0
H1013 H 0.51944 0.34778 0.64661 0.0
H1014 H 0.47659 0.33374 0.66777 0.0
C1015 C 0.52507 0.34752 0.73988 0.0
C1016 C 0.11081 0.99288 0.61825 0.0
C1017 C 0.0978 0.96088 0.5977 0.0
H1018 H 0.11787 0.04735 0.62384 0.0
C1019 C 0.08468 0.96014 0.56503 0.0
H1020 H 0.12048 0.99431 0.64384 0.0
C1021 C 0.08332 0.99031 0.55358 0.0
C1022 C 0.09443 0.02231 0.57465 0.0
H1023 H 0.0741 0.936 0.54876 0.0
H1024 H 0.07214 0.98824 0.52847 0.0
C1025 C 0.109 0.02329 0.60691 0.0
C1026 C 0.44238 0.82806 0.85489 0.0
C1027 C 0.46533 0.85708 0.86572 0.0
H1028 H 0.39914 0.80753 0.82992 0.0
C1029 C 0.46181 0.88872 0.85975 0.0
H1030 H 0.44481 0.80326 0.85862 0.0
C1031 C 0.43549 0.89138 0.8437 0.0
C1032 C 0.41244 0.86225 0.83256 0.0
H1033 H 0.47932 0.9114 0.86778 0.0
H1034 H 0.43326 0.91625 0.84002 0.0
C1035 C 0.41631 0.83053 0.83818 0.0
C1036 C 0.55436 0.26919 0.06711 0.0
C1037 C 0.5711 0.28176 0.09902 0.0
H1038 H 0.53873 0.22813 0.02606 0.0
C1039 C 0.58524 0.25986 0.11413 0.0
H1040 H 0.54328 0.28504 0.05444 0.0
C1041 C 0.58218 0.2262 0.09776 0.0
C1042 C 0.56525 0.21394 0.06574 0.0
H1043 H 0.59824 0.26852 0.1388 0.0
H1044 H 0.59331 0.21007 0.1099 0.0
C1045 C 0.55168 0.2362 0.0508 0.0
C1046 C 0.11428 0.35009 0.31979 0.0
C1047 C 0.10953 0.34141 0.35016 0.0
H1048 H 0.14034 0.35053 0.2839 0.0
C1049 C 0.12802 0.32569 0.36752 0.0
H1050 H 0.10035 0.36215 0.30575 0.0
C1051 C 0.15066 0.31873 0.35485 0.0
C1052 C 0.15553 0.32744 0.32457 0.0
H1053 H 0.12457 0.31793 0.39054 0.0
H1054 H 0.16412 0.30588 0.36853 0.0
C1055 C 0.13706 0.34325 0.30716 0.0
C1056 C 0.98779 0.04879 0.09079 0.0
C1057 C 0.97501 0.06895 0.10932 0.0
H1058 H 0.02309 0.04702 0.06905 0.0
C1059 C 0.98862 0.10374 0.121 0.0
H1060 H 0.97784 0.02186 0.08211 0.0
C1061 C 1.01494 0.11814 0.11431 0.0
C1062 C 0.02757 0.09793 0.09548 0.0
H1063 H 0.97937 0.11949 0.13628 0.0
H1064 H 0.02524 0.14488 0.12361 0.0
C1065 C 1.01373 0.06323 0.08364 0.0
C1066 C 0.31662 0.85256 0.44653 0.0
C1067 C 0.30494 0.81836 0.44834 0.0
H1068 H 0.32782 0.88922 0.41587 0.0
C1069 C 0.29318 0.795 0.41847 0.0
H1070 H 0.32627 0.87111 0.46898 0.0
C1071 C 0.29478 0.80515 0.38779 0.0
C1072 C 0.30795 0.83906 0.38607 0.0
H1073 H 0.28479 0.76826 0.41886 0.0
H1074 H 0.28692 0.78598 0.36553 0.0
C1075 C 0.3178 0.86283 0.41593 0.0
C1076 C 0.59722 1.00277 0.60757 0.0
C1077 C 0.61595 0.01691 0.63811 0.0
H1078 H 0.56885 0.01093 0.56685 0.0
C1079 C 0.623 0.05243 0.64898 0.0
H1080 H 0.59154 0.97565 0.59819 0.0
C1081 C 0.6101 0.07293 0.63047 0.0
C1082 C 0.5898 0.05802 0.60122 0.0
H1083 H 0.63728 0.06409 0.67248 0.0
H1084 H 0.61472 0.09994 0.63996 0.0
C1085 C 0.58415 0.023 0.58956 0.0
C1086 C 0.34166 0.43122 0.94678 0.0
C1087 C 0.35964 0.41653 0.96667 0.0
H1088 H 0.3233 0.43599 0.89772 0.0
C1089 C 0.37257 0.39407 0.95064 0.0
H1090 H 0.33148 0.44892 0.95796 0.0
C1091 C 0.36831 0.38731 0.91598 0.0
C1092 C 0.35079 0.40253 0.89631 0.0
H1093 H 0.38638 0.38203 0.96488 0.0
H1094 H 0.37848 0.36976 0.90452 0.0
C1095 C 0.33712 0.42408 0.91214 0.0
C1096 C 0.95398 0.09775 0.28821 0.0
C1097 C 0.96 0.07719 0.26242 0.0
H1098 H 0.96601 0.12037 0.33931 0.0
C1099 C 0.98313 0.06339 0.26813 0.0
H1100 H 0.93656 0.10926 0.28396 0.0
C1101 C 0.99976 0.06949 0.29962 0.0
C1102 C 0.99365 0.08982 0.32565 0.0
H1103 H 0.98813 0.04758 0.24835 0.0
H1104 H 0.01667 0.05717 0.30378 0.0
C1105 C 0.97097 0.10443 0.31961 0.0
C1106 C 0.35618 0.8431 0.64229 0.0
C1107 C 0.33446 0.81418 0.62554 0.0
H1108 H 0.37444 0.88017 0.68649 0.0
C1109 C 0.31443 0.79971 0.64343 0.0
H1110 H 0.37216 0.85511 0.62992 0.0
C1111 C 0.3161 0.81404 0.67679 0.0
C1112 C 0.33765 0.84345 0.69298 0.0
H1113 H 0.29741 0.77735 0.63165 0.0
H1114 H 0.30007 0.80279 0.68949 0.0
C1115 C 0.35759 0.8575 0.6751 0.0
C1116 C 0.58968 0.03892 0.78 0.0
C1117 C 0.6151 0.02961 0.78553 0.0
H1118 H 0.56351 0.0668 0.79999 0.0
C1119 C 0.63595 0.04614 0.814 0.0
H1120 H 0.57356 0.02727 0.75789 0.0
C1121 C 0.63049 0.06927 0.83786 0.0
C1122 C 0.604 0.07616 0.83373 0.0
H1123 H 0.6562 0.0405 0.81853 0.0
H1124 H 0.64644 0.08043 0.86024 0.0
C1125 C 0.58415 0.06201 0.80392 0.0
C1126 C 0.36498 0.4101 0.1701 0.0
C1127 C 0.34791 0.40135 0.13797 0.0
H1128 H 0.36905 0.40432 0.22093 0.0
C1129 C 0.3211 0.37827 0.13313 0.0
H1130 H 0.3855 0.4283 0.17494 0.0
C1131 C 0.31217 0.36343 0.15941 0.0
C1132 C 0.3293 0.37223 0.19156 0.0
H1133 H 0.30725 0.37123 0.1089 0.0
H1134 H 0.29161 0.34533 0.15463 0.0
C1135 C 0.35559 0.39631 0.19656 0.0
C1136 C 0.2578 0.01942 0.07 0.0
C1137 C 0.28548 0.03747 0.08636 0.0
H1138 H 0.21403 0.01903 0.05964 0.0
C1139 C 0.28976 0.06962 0.10586 0.0
H1140 H 0.25371 0.99437 0.05518 0.0
C1141 C 0.26725 0.08397 0.10804 0.0
C1142 C 0.23955 0.0665 0.09114 0.0
H1143 H 0.31077 0.08435 0.11883 0.0
H1144 H 0.27191 0.10944 0.12213 0.0
C1145 C 0.23507 0.03367 0.07252 0.0
C1146 C 0.68684 0.70259 0.02233 0.0
C1147 C 0.70206 0.68494 1.00422 0.0
H1148 H 0.64907 0.69963 0.04177 0.0
C1149 C 0.6895 0.65033 0.99064 0.0
H1150 H 0.69597 0.72914 0.03351 0.0
C1151 C 0.66304 0.63356 0.99549 0.0
C1152 C 0.648 0.65069 0.01416 0.0
H1153 H 0.70036 0.63583 0.97641 0.0
H1154 H 0.65443 0.60685 0.98464 0.0
C1155 C 0.66007 0.68562 0.02727 0.0
C1156 C 0.75016 0.57757 0.3595 0.0
C1157 C 0.76453 0.6121 0.3649 0.0
H1158 H 0.74941 0.52678 0.33907 0.0
C1159 C 0.78832 0.62269 0.35168 0.0
H1160 H 0.73151 0.56924 0.36941 0.0
C1161 C 0.79893 0.59861 0.33499 0.0
C1162 C 0.78564 0.56365 0.3311 0.0
H1163 H 0.79956 0.6494 0.35582 0.0
H1164 H 0.81847 0.60735 0.32695 0.0
C1165 C 0.76049 0.55344 0.34238 0.0
C1166 C 0.93308 0.54019 0.51681 0.0
C1167 C 0.92583 0.53899 0.54758 0.0
H1168 H 0.96558 0.55764 0.49084 0.0
C1169 C 0.94571 0.55669 0.57631 0.0
H1170 H 0.91801 0.52657 0.49439 0.0
C1171 C 0.97272 0.57493 0.57441 0.0
C1172 C 0.98045 0.57554 0.5437 0.0
H1173 H 0.94031 0.55642 0.60029 0.0
H1174 H 0.98766 0.58809 0.59706 0.0
C1175 C 0.96023 0.55816 0.51487 0.0
C1176 C 0.43558 0.32208 0.33366 0.0
C1177 C 0.43197 0.28918 0.34043 0.0
H1178 H 0.41659 0.35715 0.31204 0.0
C1179 C 0.40574 0.26496 0.32796 0.0
H1180 H 0.45561 0.34109 0.34302 0.0
C1181 C 0.3832 0.27391 0.30938 0.0
C1182 C 0.38669 0.30718 0.30308 0.0
H1183 H 0.40281 0.23909 0.33231 0.0
H1184 H 0.3631 0.25501 0.30029 0.0
C1185 C 0.4132 0.33103 0.31545 0.0
C1186 C 0.37076 0.21327 0.57071 0.0
C1187 C 0.35962 0.21705 0.53867 0.0
H1188 H 0.40323 0.19843 0.60169 0.0
C1189 C 0.37278 0.20859 0.51296 0.0
H1190 H 0.36109 0.22012 0.59098 0.0
C1191 C 0.39637 0.19591 0.51881 0.0
C1192 C 0.40778 0.19188 0.55072 0.0
H1193 H 0.36435 0.21104 0.48799 0.0
H1194 H 0.40517 0.18833 0.498 0.0
C1195 C 0.39483 0.20096 0.57675 0.0
C1196 C 0.79619 0.74106 0.35226 0.0
C1197 C 0.78252 0.75677 0.37389 0.0
H1198 H 0.81982 0.74679 0.31426 0.0
C1199 C 0.7795 0.78942 0.37154 0.0
H1200 H 0.79769 0.71528 0.35289 0.0
C1201 C 0.7918 0.80711 0.34926 0.0
C1202 C 0.80652 0.79193 0.32866 0.0
H1203 H 0.76851 0.8016 0.38765 0.0
H1204 H 0.79101 0.83315 0.3494 0.0
C1205 C 0.80815 0.7586 0.32973 0.0
C1206 C 0.9429 0.64246 0.80408 0.0
C1207 C 0.95127 0.65215 0.83861 0.0
H1208 H 0.91964 0.60191 0.76353 0.0
C1209 C 0.94363 0.62863 0.85889 0.0
H1210 H 0.94864 0.66047 0.78815 0.0
C1211 C 0.92727 0.59617 0.8451 0.0
C1212 C 0.91824 0.58658 0.81083 0.0
H1213 H 0.95029 0.6353 0.88553 0.0
H1214 H 0.92168 0.5783 0.86127 0.0
C1215 C 0.92628 0.60946 0.7901 0.0
C1216 C 0.07644 0.95481 0.04464 0.0
C1217 C 0.09888 0.95812 0.07177 0.0
H1218 H 0.05341 0.9798 1.01202 0.0
C1219 C 0.11783 0.99044 0.08361 0.0
H1220 H 0.06133 0.93035 0.03467 0.0
C1221 C 0.11333 0.01885 0.07025 0.0
C1222 C 0.08958 0.0159 0.04487 0.0
H1223 H 0.13498 0.99431 0.10472 0.0
H1224 H 0.12762 0.04356 0.0814 0.0
C1225 C 0.07172 0.98325 0.0316 0.0
C1226 C 0.9486 0.33179 0.82936 0.0
C1227 C 0.95475 0.33868 0.86403 0.0
H1228 H 0.91939 0.32967 0.78463 0.0
C1229 C 0.93553 0.35028 0.88042 0.0
H1230 H 0.96306 0.3228 0.81612 0.0
C1231 C 0.91065 0.35504 0.86226 0.0
C1232 C 0.90435 0.34765 0.82745 0.0
H1233 H 0.94004 0.35634 0.90713 0.0
H1234 H 0.89627 0.36426 0.87544 0.0
C1235 C 0.92363 0.33589 0.81132 0.0
C1236 C 0.56589 0.26548 0.59524 0.0
C1237 C 0.59144 0.29063 0.59978 0.0
H1238 H 0.54432 0.21317 0.58468 0.0
C1239 C 0.61622 0.28041 0.59761 0.0
H1240 H 0.54647 0.27209 0.59769 0.0
C1241 C 0.61493 0.24552 0.58945 0.0
C1242 C 0.58895 0.22062 0.58419 0.0
H1243 H 0.6363 0.29927 0.60152 0.0
H1244 H 0.63396 0.23816 0.58661 0.0
C1245 C 0.56473 0.23128 0.58799 0.0
C1246 C 0.60919 0.86717 0.33856 0.0
C1247 C 0.60657 0.86561 0.37121 0.0
H1248 H 0.63682 0.8753 0.30518 0.0
C1249 C 0.6312 0.87456 0.39633 0.0
H1250 H 0.59073 0.86057 0.3186 0.0
C1251 C 0.65794 0.88327 0.38854 0.0
C1252 C 0.66037 0.88348 0.3556 0.0
H1253 H 0.62983 0.87401 0.42181 0.0
H1254 H 0.67665 0.8891 0.40808 0.0
C1255 C 0.6357 0.876 0.33088 0.0
C1256 C 0.04435 0.23424 0.45672 0.0
C1257 C 0.04139 0.26242 0.47762 0.0
H1258 H 0.05047 0.18391 0.45207 0.0
C1259 C 0.04276 0.26073 0.5112 0.0
H1260 H 0.04279 0.23437 0.43059 0.0
C1261 C 0.0479 0.23209 0.52371 0.0
C1262 C 0.05062 0.20376 0.50273 0.0
H1263 H 0.04018 0.28175 0.52788 0.0
H1264 H 0.04939 0.23195 0.54982 0.0
C1265 C 0.04845 0.20513 0.46897 0.0
C1266 C 0.69967 0.36007 0.21306 0.0
C1267 C 0.69046 0.38593 0.22991 0.0
H1268 H 0.73164 0.33292 0.21318 0.0
C1269 C 0.70681 0.40393 0.26083 0.0
H1270 H 0.68744 0.34556 0.18933 0.0
C1271 C 0.73208 0.39694 0.27418 0.0
C1272 C 0.74128 0.37117 0.2574 0.0
H1273 H 0.7003 0.42386 0.27457 0.0
H1274 H 0.74459 0.41188 0.29764 0.0
C1275 C 0.72471 0.3525 0.22688 0.0
C1276 C 0.57551 0.95544 1.00606 0.0
C1277 C 0.55369 0.94475 0.97775 0.0
H1278 H 0.60011 0.99644 0.04515 0.0
C1279 C 0.5411 0.96939 0.9659 0.0
H1280 H 0.58533 0.93712 0.01614 0.0
C1281 C 0.54983 1.00374 0.98228 0.0
C1282 C 0.57102 0.01417 1.01135 0.0
H1283 H 0.52389 0.96184 0.94441 0.0
H1284 H 0.53906 0.02169 0.9731 0.0
C1285 C 0.58392 0.98954 0.02268 0.0
C1286 C 0.04724 0.89439 0.7507 0.0
C1287 C 0.04037 0.87551 0.71847 0.0
H1288 H 0.03247 0.91899 0.7898 0.0
C1289 C 1.01194 0.86349 0.70222 0.0
H1290 H 0.06914 0.9047 0.76343 0.0
C1291 C 0.99073 0.87081 0.71764 0.0
C1292 C 0.9975 0.89152 0.74921 0.0
H1293 H 1.00618 0.84904 0.67729 0.0
H1294 H 0.96901 0.86074 0.70435 0.0
C1295 C 0.02612 0.90262 0.76578 0.0
C1296 C 0.15715 0.17502 0.98035 0.0
C1297 C 0.17027 0.15329 0.96425 0.0
H1298 H 0.12047 0.17991 0.99771 0.0
C1299 C 0.15595 0.11863 0.95301 0.0
H1300 H 0.16756 0.20187 0.9888 0.0
C1301 C 0.12865 0.10599 0.95779 0.0
C1302 C 0.11575 0.12792 0.97406 0.0
H1303 H 0.16548 0.10155 0.93976 0.0
H1304 H 0.11789 0.07925 0.94929 0.0
C1305 C 0.13012 0.16245 0.98515 0.0
C1306 C 0.8291 0.41909 0.64939 0.0
C1307 C 0.85037 0.41156 0.63377 0.0
H1308 H 0.80955 0.4159 0.69128 0.0
C1309 C 0.86764 0.39286 0.64904 0.0
H1310 H 0.81549 0.43358 0.63876 0.0
C1311 C 0.86411 0.38272 0.67922 0.0
C1312 C 0.84351 0.39139 0.6951 0.0
H1313 H 0.88437 0.3867 0.63808 0.0
H1314 H 0.87785 0.36868 0.69047 0.0
C1315 C 0.82583 0.40927 0.6797 0.0
C1316 C 0.54368 0.22221 0.46014 0.0
C1317 C 0.53967 0.21155 0.426 0.0
H1318 H 0.55587 0.21063 0.50816 0.0
C1319 C 0.54052 0.1783 0.41381 0.0
H1320 H 0.54298 0.24763 0.47009 0.0
C1321 C 0.54673 0.15665 0.43552 0.0
C1322 C 0.55276 0.16827 0.46968 0.0
H1323 H 0.53701 0.16934 0.38748 0.0
H1324 H 0.54872 0.13181 0.42566 0.0
C1325 C 0.55075 0.20096 0.48183 0.0
C1326 C 0.83958 0.83978 0.1346 0.0
C1327 C 0.81594 0.81702 0.11281 0.0
H1328 H 0.85947 0.86385 0.18401 0.0
C1329 C 0.79214 0.80341 0.12568 0.0
H1330 H 0.85825 0.85117 0.12593 0.0
C1331 C 0.79266 0.81137 0.15974 0.0
C1332 C 0.81718 0.83249 0.18157 0.0
H1333 H 0.77355 0.78567 0.1097 0.0
H1334 H 0.77439 0.79999 0.1691 0.0
C1335 C 0.84032 0.84696 0.16827 0.0
C1336 C 0.14348 0.11467 0.81015 0.0
C1337 C 0.16266 0.14492 0.8283 0.0
H1338 H 0.1173 0.08917 0.7628 0.0
C1339 C 0.17066 0.17272 0.81256 0.0
H1340 H 0.13728 0.0929 0.8218 0.0
C1341 C 0.16007 0.17019 0.77921 0.0
C1342 C 0.14091 0.14014 0.76116 0.0
H1343 H 0.18582 0.19619 0.82571 0.0
H1344 H 0.16671 0.19183 0.76748 0.0
C1345 C 0.13228 0.11245 0.77666 0.0
C1346 C 0.85986 0.3976 0.44325 0.0
C1347 C 0.8442 0.41717 0.45841 0.0
H1348 H 0.86445 0.36842 0.39892 0.0
C1349 C 0.82085 0.4232 0.43795 0.0
H1350 H 0.87806 0.39234 0.45768 0.0
C1351 C 0.81327 0.40959 0.4037 0.0
C1352 C 0.82901 0.38994 0.38898 0.0
H1353 H 0.8083 0.43824 0.4484 0.0
H1354 H 0.79468 0.41367 0.38892 0.0
C1355 C 0.85232 0.38416 0.40928 0.0
C1356 C 0.50378 0.18552 0.25869 0.0
C1357 C 0.52549 0.21203 0.27924 0.0
H1358 H 0.49349 0.13877 0.22416 0.0
C1359 C 0.5525 0.20716 0.28785 0.0
H1360 H 0.48277 0.18882 0.25169 0.0
C1361 C 0.55886 0.17885 0.2716 0.0
C1362 C 0.53822 0.15532 0.24646 0.0
H1363 H 0.56961 0.22742 0.3035 0.0
H1364 H 0.58074 0.17818 0.2755 0.0
C1365 C 0.51003 0.15706 0.24264 0.0
C1366 C 0.79622 0.83264 0.91871 0.0
C1367 C 0.81972 0.82886 0.94057 0.0
H1368 H 0.7814 0.84958 0.8738 0.0
C1369 C 0.84658 0.83964 0.9327 0.0
H1370 H 0.77528 0.8248 0.92369 0.0
C1371 C 0.84987 0.85296 0.90411 0.0
C1372 C 0.82655 0.85634 0.88221 0.0
H1373 H 0.86541 0.83703 0.94829 0.0
H1374 H 0.87081 0.86034 0.89897 0.0
C1375 C 0.79969 0.84656 0.88999 0.0
C1376 C 0.89351 0.21668 0.01604 0.0
C1377 C 0.86697 0.19787 0.01963 0.0
H1378 H 0.93398 0.2152 1.00536 0.0
C1379 C 0.86081 0.16212 0.01356 0.0
H1380 H 0.89877 0.2442 0.01982 0.0
C1381 C 0.88056 0.1456 1.00417 0.0
C1382 C 0.90722 0.16435 1.00127 0.0
H1383 H 0.8404 0.14677 0.01529 0.0
H1384 H 0.87518 0.11804 0.9998 0.0
C1385 C 0.91358 0.20011 1.00744 0.0
C1386 C 0.4452 0.56893 0.07031 0.0
C1387 C 0.43798 0.53323 0.06173 0.0
H1388 H 0.47693 0.61614 0.07675 0.0
C1389 C 0.45821 0.51775 0.05179 0.0
H1390 H 0.43011 0.58158 0.07826 0.0
C1391 C 0.48505 0.53772 0.0503 0.0
C1392 C 0.49237 0.57352 0.05936 0.0
H1393 H 0.45312 0.49033 0.04463 0.0
H1394 H 0.5001 0.52513 0.04218 0.0
C1395 C 0.47206 0.58876 0.06944 0.0
C1396 C 0.39168 0.6429 0.72465 0.0
C1397 C 0.37568 0.60913 0.72105 0.0
H1398 H 0.39632 0.69509 0.74375 0.0
C1399 C 0.35106 0.60197 0.73347 0.0
H1400 H 0.41149 0.64876 0.7165 0.0
C1401 C 0.34206 0.62849 0.74854 0.0
C1402 C 0.35803 0.66244 0.75221 0.0
H1403 H 0.33892 0.57592 0.73162 0.0
H1404 H 0.32235 0.62234 0.75678 0.0
C1405 C 0.38317 0.66933 0.74054 0.0
C1406 C 0.19266 0.65148 0.49735 0.0
C1407 C 0.21178 0.67955 0.51929 0.0
H1408 H 0.15201 0.61557 0.48601 0.0
C1409 C 0.20406 0.69208 0.5484 0.0
H1410 H 0.19786 0.64101 0.47477 0.0
C1411 C 0.17776 0.67692 0.55522 0.0
C1412 C 0.15849 0.64932 0.53279 0.0
H1413 H 0.21836 0.71351 0.56596 0.0
H1414 H 0.17219 0.68741 0.57752 0.0
C1415 C 0.16635 0.63677 0.50387 0.0
C1416 C 0.7204 0.91185 0.78158 0.0
C1417 C 0.71841 0.93449 0.75973 0.0
H1418 H 0.74643 0.88832 0.81061 0.0
C1419 C 0.74281 0.95105 0.74967 0.0
H1420 H 0.70198 0.89903 0.78997 0.0
C1421 C 0.76894 0.9447 0.76155 0.0
C1422 C 0.77068 0.92206 0.78375 0.0
H1423 H 0.74183 0.96943 0.73351 0.0
H1424 H 0.78745 0.95691 0.75304 0.0
C1425 C 0.7461 0.90608 0.79372 0.0
C1426 C 0.76169 1.00076 0.52833 0.0
C1427 C 0.78565 0.02576 0.54747 0.0
H1428 H 0.71785 0.98966 0.50383 0.0
C1429 C 0.78343 0.05899 0.55646 0.0
H1430 H 0.76278 0.97496 0.5208 0.0
C1431 C 0.75814 0.06723 0.54659 0.0
C1432 C 0.7343 0.04253 0.52758 0.0
H1433 H 0.80127 0.07885 0.57129 0.0
H1434 H 0.75709 0.09308 0.55415 0.0
C1435 C 0.73607 0.00908 0.51856 0.0
C1436 C 0.3545 0.47123 0.69585 0.0
C1437 C 0.37753 0.46045 0.68789 0.0
H1438 H 0.32382 0.46753 0.72596 0.0
C1439 C 0.38881 0.43885 0.70635 0.0
H1440 H 0.34622 0.48897 0.68275 0.0
C1441 C 0.37662 0.42756 0.73209 0.0
C1442 C 0.35294 0.43755 0.73921 0.0
H1443 H 0.40716 0.43114 0.70116 0.0
H1444 H 0.38482 0.40994 0.74529 0.0
C1445 C 0.34219 0.45967 0.72105 0.0
C1446 C 0.20394 0.59132 0.26936 0.0
C1447 C 0.20556 0.57158 0.24014 0.0
H1448 H 0.21935 0.63941 0.30184 0.0
C1449 C 0.22382 0.58461 0.22051 0.0
H1450 H 0.18997 0.5809 0.28482 0.0
C1451 C 0.24072 0.61776 0.23033 0.0
C1452 C 0.23936 0.63759 0.25984 0.0
H1453 H 0.22534 0.56912 0.19816 0.0
H1454 H 0.25421 0.6282 0.21444 0.0
C1455 C 0.22093 0.62423 0.27933 0.0
C1456 C 0.51802 0.73398 0.48927 0.0
C1457 C 0.53771 0.76553 0.4926 0.0
H1458 H 0.50978 0.6832 0.49806 0.0
C1459 C 0.56548 0.76984 0.51032 0.0
H1460 H 0.4967 0.72939 0.47507 0.0
C1461 C 0.57315 0.74296 0.52433 0.0
C1462 C 0.5533 0.7111 0.52039 0.0
H1463 H 0.58122 0.79384 0.51324 0.0
H1464 H 0.59468 0.74687 0.53752 0.0
C1465 C 0.52565 0.70731 0.50266 0.0
C1466 C 0.70512 0.36741 0.73696 0.0
C1467 C 0.70098 0.39163 0.71701 0.0
H1468 H 0.7345 0.34915 0.76888 0.0
C1469 C 0.72481 0.41631 0.71384 0.0
H1470 H 0.68736 0.34799 0.7401 0.0
C1471 C 0.75194 0.41734 0.73121 0.0
C1472 C 0.75573 0.39318 0.75125 0.0
H1473 H 0.72242 0.43528 0.69873 0.0
H1474 H 0.76997 0.43694 0.72894 0.0
C1475 C 0.73214 0.36792 0.75348 0.0
C1476 C 1.00711 0.44876 0.97867 0.0
C1477 C 0.02788 0.43107 0.97702 0.0
H1478 H 0.99807 0.49703 0.98864 0.0
C1479 C 0.05642 0.44969 0.98466 0.0
H1480 H 0.9849 0.43519 0.97224 0.0
C1481 C 0.06403 0.48518 0.99426 0.0
C1482 C 0.04323 0.50296 0.99579 0.0
H1483 H 0.07289 0.43677 0.98344 0.0
H1484 H 0.08626 0.49865 1.00061 0.0
C1485 C 1.01466 0.48428 0.98771 0.0
C1486 C 0.05101 0.85427 0.22593 0.0
C1487 C 0.04925 0.85674 0.19255 0.0
H1488 H 0.02869 0.84785 0.26485 0.0
C1489 C 0.02245 0.84859 0.17146 0.0
H1490 H 0.07133 0.86028 0.24279 0.0
C1491 C 0.99797 0.84113 0.18397 0.0
C1492 C 0.99983 0.8418 0.21788 0.0
H1493 H 0.02019 0.84914 0.14549 0.0
H1494 H 0.97764 0.83633 0.16736 0.0
C1495 C 0.02652 0.84701 0.23852 0.0
C1496 C 0.60901 0.49435 0.11953 0.0
C1497 C 0.59868 0.46228 0.09847 0.0
H1498 H 0.61324 0.54834 0.1252 0.0
C1499 C 0.58734 0.46143 0.06509 0.0
H1500 H 0.61703 0.49591 0.14561 0.0
C1501 C 0.58513 0.49138 0.05338 0.0
C1502 C 0.59364 0.52325 0.07479 0.0
H1503 H 0.5787 0.43723 0.04833 0.0
H1504 H 0.57542 0.48923 0.02768 0.0
C1505 C 0.60648 0.52444 0.10787 0.0
C1506 C 0.96306 0.38858 0.35874 0.0
C1507 C 0.96618 0.35717 0.36603 0.0
H1508 H 0.93492 0.41585 0.33735 0.0
C1509 C 0.94305 0.32834 0.3559 0.0
H1510 H 0.98074 0.41112 0.36622 0.0
C1511 C 0.91723 0.3307 0.33853 0.0
C1512 C 0.91373 0.36217 0.33155 0.0
H1513 H 0.94514 0.3037 0.36064 0.0
H1514 H 0.89993 0.30778 0.33091 0.0
C1515 C 0.93692 0.39118 0.34205 0.0
C1516 C 0.05993 0.77156 0.56537 0.0
C1517 C 0.07395 0.7831 0.59856 0.0
H1518 H 0.04683 0.73114 0.52357 0.0
C1519 C 0.08632 0.76067 0.61502 0.0
H1520 H 0.05035 0.78803 0.55177 0.0
C1521 C 0.08377 0.72721 0.59883 0.0
C1522 C 0.06925 0.71571 0.56567 0.0
H1523 H 0.09719 0.76861 0.64066 0.0
H1524 H 0.09306 0.7104 0.61224 0.0
C1525 C 0.05786 0.73869 0.54919 0.0
C1526 C 0.62708 0.82367 0.86428 0.0
C1527 C 0.61006 0.84243 0.84908 0.0
H1528 H 0.66152 0.80113 0.86274 0.0
C1529 C 0.61617 0.85427 0.82044 0.0
H1530 H 0.62258 0.81355 0.88596 0.0
C1531 C 0.63872 0.8475 0.80727 0.0
C1532 C 0.65558 0.82828 0.82215 0.0
H1533 H 0.60347 0.8688 0.80811 0.0
H1534 H 0.643 0.85747 0.78546 0.0
C1535 C 0.64944 0.81654 0.85091 0.0
C1536 C 0.48297 0.54657 0.58291 0.0
C1537 C 0.47068 0.56508 0.60374 0.0
H1538 H 0.51775 0.54642 0.56024 0.0
C1539 C 0.48491 0.59929 0.61804 0.0
H1540 H 0.47264 0.52018 0.57193 0.0
C1541 C 0.51138 0.61441 0.61186 0.0
C1542 C 0.52362 0.59556 0.59107 0.0
H1543 H 0.4761 0.61395 0.63488 0.0
H1544 H 0.52216 0.64057 0.62322 0.0
C1545 C 0.50901 0.56166 0.57656 0.0
C1546 C 0.83663 0.31898 0.93214 0.0
C1547 C 0.8151 0.31886 0.95005 0.0
H1548 H 0.85142 0.32726 0.8881 0.0
C1549 C 0.79093 0.32799 0.93528 0.0
H1550 H 0.85531 0.31139 0.94195 0.0
C1551 C 0.78899 0.33778 0.90384 0.0
C1552 C 0.81078 0.33752 0.88637 0.0
H1553 H 0.77382 0.32793 0.94808 0.0
H1554 H 0.77054 0.34533 0.89318 0.0
C1555 C 0.83439 0.32783 0.90093 0.0
C1556 C 0.09185 0.51264 0.14249 0.0
C1557 C 0.11404 0.50486 0.12911 0.0
H1558 H 0.06082 0.54136 0.14019 0.0
C1559 C 0.12482 0.52437 0.10673 0.0
H1560 H 0.08271 0.49762 0.15923 0.0
C1561 C 0.11282 0.54982 0.09658 0.0
C1562 C 0.08918 0.5556 0.10762 0.0
H1563 H 0.14155 0.51852 0.09552 0.0
H1564 H 0.12046 0.56307 0.07801 0.0
C1565 C 0.07921 0.53746 0.13139 0.0
C1566 C 0.84225 0.9349 0.44696 0.0
C1567 C 0.85841 0.9182 0.46682 0.0
H1568 H 0.8259 0.94155 0.39783 0.0
C1569 C 0.86989 0.89405 0.45089 0.0
H1570 H 0.8333 0.95394 0.45817 0.0
C1571 C 0.86619 0.88768 0.41638 0.0
C1572 C 0.85068 0.90498 0.39674 0.0
H1573 H 0.88222 0.88044 0.46514 0.0
H1574 H 0.87526 0.86885 0.40497 0.0
C1575 C 0.83822 0.92812 0.41235 0.0
C1576 C 0.49116 0.53007 0.76985 0.0
C1577 C 0.49712 0.55397 0.74952 0.0
H1578 H 0.49434 0.52182 0.81943 0.0
C1579 C 0.51616 0.58599 0.76264 0.0
H1580 H 0.47591 0.50561 0.76015 0.0
C1581 C 0.52605 0.59573 0.79668 0.0
C1582 C 0.51692 0.57318 0.81721 0.0
H1583 H 0.52028 0.60495 0.74716 0.0
H1584 H 0.53871 0.6215 0.80699 0.0
C1585 C 0.50096 0.53971 0.80366 0.0
C1586 C 0.82349 0.33997 0.13246 0.0
C1587 C 0.83028 0.30887 0.12612 0.0
H1588 H 0.81977 0.37981 0.16872 0.0
C1589 C 0.83721 0.29297 0.15314 0.0
H1590 H 0.81813 0.35291 0.11233 0.0
C1591 C 0.83815 0.30847 0.18581 0.0
C1592 C 0.8322 0.3402 0.19216 0.0
H1593 H 0.84296 0.26919 0.14913 0.0
H1594 H 0.84507 0.29666 0.2061 0.0
C1595 C 0.82445 0.35535 0.16489 0.0
C1596 C 0.1365 0.5489 0.31283 0.0
C1597 C 0.11591 0.53545 0.28349 0.0
H1598 H 0.14743 0.57972 0.36104 0.0
C1599 C 0.09119 0.54639 0.27923 0.0
H1600 H 0.1563 0.54223 0.31656 0.0
C1601 C 0.08597 0.56779 0.30492 0.0
C1602 C 0.10555 0.57904 0.33532 0.0
H1603 H 0.07515 0.53699 0.25669 0.0
H1604 H 0.0657 0.57357 0.30157 0.0
C1605 C 0.13148 0.57065 0.33838 0.0
C1606 C 0.84787 0.86789 0.63979 0.0
C1607 C 0.84677 0.90128 0.63668 0.0
H1608 H 0.84157 0.82805 0.66863 0.0
C1609 C 0.83821 0.92016 0.66184 0.0
H1610 H 0.85452 0.85265 0.62109 0.0
C1611 C 0.83181 0.90654 0.68963 0.0
C1612 C 0.83294 0.87319 0.69281 0.0
H1613 H 0.83754 0.94612 0.6607 0.0
H1614 H 0.82597 0.92227 0.70873 0.0
C1615 C 0.84057 0.85384 0.66716 0.0
C1616 C 0.7563 0.51744 0.572 0.0
C1617 C 0.78413 0.53844 0.57923 0.0
H1618 H 0.71237 0.51468 0.57016 0.0
C1619 C 0.7887 0.57345 0.59075 0.0
H1620 H 0.75211 0.4903 0.56359 0.0
C1621 C 0.76619 0.5873 0.59454 0.0
C1622 C 0.7383 0.56662 0.58706 0.0
H1623 H 0.80979 0.59048 0.5964 0.0
H1624 H 0.77064 0.61454 0.60252 0.0
C1625 C 0.73359 0.5314 0.57588 0.0
C1626 C 0.18781 0.2031 0.52088 0.0
C1627 C 0.20482 0.18461 0.50707 0.0
H1628 H 0.14881 0.20089 0.5374 0.0
C1629 C 0.1945 0.14897 0.49874 0.0
H1630 H 0.19515 0.23055 0.52789 0.0
C1631 C 0.16838 0.13217 0.5044 0.0
C1632 C 0.15146 0.15031 0.51857 0.0
H1633 H 0.20676 0.13374 0.48792 0.0
H1634 H 0.16146 0.10468 0.49755 0.0
C1635 C 0.16137 0.1861 0.52657 0.0
C1636 C 0.25415 0.09623 0.83708 0.0
C1637 C 0.27117 0.11559 0.86715 0.0
H1638 H 0.25019 0.05623 0.79625 0.0
C1639 C 0.29814 0.11151 0.87798 0.0
H1640 H 0.23318 0.09903 0.82842 0.0
C1641 C 0.30789 0.088 0.85947 0.0
C1642 C 0.29067 0.06778 0.83017 0.0
H1643 H 0.31165 0.12638 0.90094 0.0
H1644 H 0.32868 0.08487 0.86853 0.0
C1645 C 0.26375 0.07193 0.8188 0.0
C1646 C 0.43678 0.03037 0.01752 0.0
C1647 C 0.42746 0.03683 0.04684 0.0
H1648 H 0.47103 0.04139 0.99254 0.0
C1649 C 0.44564 0.06029 0.07382 0.0
H1650 H 0.42304 0.01212 0.99656 0.0
C1651 C 0.47303 0.07689 0.07175 0.0
C1652 C 0.48261 0.07047 0.04249 0.0
H1653 H 0.43868 0.06559 0.09664 0.0
H1654 H 0.48669 0.09475 0.09303 0.0
C1655 C 0.46414 0.0472 0.0153 0.0
C1656 C 0.91948 0.7721 0.80627 0.0
C1657 C 0.93031 0.78654 0.83991 0.0
H1658 H 0.8881 0.76889 0.76266 0.0
C1659 C 0.91719 0.80864 0.85566 0.0
H1660 H 0.92906 0.75453 0.79375 0.0
C1661 C 0.89406 0.81681 0.83788 0.0
C1662 C 0.88322 0.80239 0.80436 0.0
H1663 H 0.92522 0.82017 0.88145 0.0
H1664 H 0.8849 0.83498 0.85017 0.0
C1665 C 0.89598 0.77991 0.78859 0.0
C1666 C 0.8842 0.73271 0.05337 0.0
C1667 C 0.85669 0.71079 0.04376 0.0
H1668 H 0.92869 0.73708 0.06628 0.0
C1669 C 0.85312 0.67569 0.04205 0.0
H1670 H 0.88771 0.75991 0.05568 0.0
C1671 C 0.87662 0.66265 0.04819 0.0
C1672 C 0.90418 0.68444 0.05633 0.0
H1673 H 0.83226 0.65813 0.03432 0.0
H1674 H 0.87325 0.63531 0.0452 0.0
C1675 C 0.90773 0.71967 0.0595 0.0
C1676 C 0.29777 0.2435 0.85569 0.0
C1677 C 0.28227 0.25845 0.87536 0.0
H1678 H 0.32164 0.24892 0.81799 0.0
C1679 C 0.27632 0.28913 0.86987 0.0
H1680 H 0.30152 0.21907 0.85869 0.0
C1681 C 0.28742 0.30582 0.84627 0.0
C1682 C 0.30386 0.29144 0.82757 0.0
H1683 H 0.26386 0.30059 0.88446 0.0
H1684 H 0.28455 0.33072 0.84405 0.0
C1685 C 0.30851 0.25995 0.83189 0.0
C1686 C 0.44711 0.13 0.35746 0.0
C1687 C 0.45342 0.15471 0.33794 0.0
H1688 H 0.42595 0.07907 0.35874 0.0
C1689 C 0.44387 0.14627 0.30344 0.0
H1690 H 0.45464 0.13566 0.38402 0.0
C1691 C 0.42721 0.11342 0.28883 0.0
C1692 C 0.42038 0.08943 0.30891 0.0
H1693 H 0.44855 0.16517 0.28807 0.0
H1694 H 0.4195 0.10691 0.26233 0.0
C1695 C 0.43074 0.09773 0.34308 0.0
C1696 C 0.6122 0.47567 0.55816 0.0
C1697 C 0.59582 0.46443 0.58076 0.0
H1698 H 0.61968 0.51064 0.52429 0.0
C1699 C 0.57449 0.4802 0.58645 0.0
H1700 H 0.62856 0.46382 0.55298 0.0
C1701 C 0.56866 0.50526 0.56926 0.0
C1702 C 0.5843 0.51617 0.54618 0.0
H1703 H 0.56173 0.47258 0.60406 0.0
H1704 H 0.55222 0.51679 0.5748 0.0
C1705 C 0.60674 0.50189 0.54133 0.0
C1706 C 0.43589 0.85552 0.37865 0.0
C1707 C 0.45294 0.83779 0.36406 0.0
H1708 H 0.39669 0.87008 0.37212 0.0
C1709 C 0.44329 0.82133 0.33099 0.0
H1710 H 0.44299 0.86871 0.40405 0.0
C1711 C 0.4168 0.8214 0.31315 0.0
C1712 C 0.39962 0.83906 0.32744 0.0
H1713 H 0.45607 0.80767 0.31908 0.0
H1714 H 0.40969 0.80753 0.28799 0.0
C1715 C 0.4096 0.8566 0.36031 0.0
C1716 C 0.07208 0.76295 0.10826 0.0
C1717 C 0.09438 0.78783 0.10248 0.0
H1718 H 0.05382 0.71047 0.10705 0.0
C1719 C 0.11746 0.77801 0.09296 0.0
H1720 H 0.05446 0.76983 0.1167 0.0
C1721 C 0.11697 0.74327 0.08691 0.0
C1722 C 0.09372 0.71834 0.09118 0.0
H1723 H 0.13515 0.79691 0.08892 0.0
H1724 H 0.13394 0.73587 0.07742 0.0
C1725 C 0.0719 0.72887 0.10309 0.0
C1726 C 0.13119 0.37295 0.89851 0.0
C1727 C 0.10655 0.36597 0.8737 0.0
H1728 H 0.17661 0.38633 0.90991 0.0
C1729 C 0.1091 0.37001 0.84149 0.0
H1730 H 0.12987 0.37047 0.92367 0.0
C1731 C 0.13557 0.37928 0.83381 0.0
C1732 C 0.16023 0.38472 0.85811 0.0
H1733 H 0.0906 0.36502 0.8218 0.0
H1734 H 0.13663 0.3805 0.80834 0.0
C1735 C 0.15788 0.38209 0.89071 0.0
C1736 C 0.54239 0.73588 0.95766 0.0
C1737 C 0.54192 0.76533 0.97881 0.0
H1738 H 0.54643 0.68465 0.95298 0.0
C1739 C 0.54572 0.76498 1.01286 0.0
H1740 H 0.53893 0.73498 0.93124 0.0
C1741 C 0.55073 0.7363 0.02548 0.0
C1742 C 0.55096 0.70669 1.00428 0.0
H1743 H 0.54513 0.78703 0.02977 0.0
H1744 H 0.55406 0.73717 0.05189 0.0
C1745 C 0.54643 0.70685 0.97013 0.0
C1746 C 0.2068 0.9084 0.76 0.0
C1747 C 0.19039 0.89017 0.72924 0.0
H1748 H 0.24474 0.91648 0.79658 0.0
C1749 C 0.19948 0.86429 0.71231 0.0
H1750 H 0.20027 0.92832 0.77373 0.0
C1751 C 0.22451 0.8568 0.72597 0.0
C1752 C 0.24114 0.87565 0.75632 0.0
H1753 H 0.18714 0.8496 0.6887 0.0
H1754 H 0.23133 0.83707 0.71233 0.0
C1755 C 0.23213 0.90152 0.77318 0.0
C1756 C 0.0792 0.4588 0.4925 0.0
C1757 C 0.05052 0.44199 0.47925 0.0
H1758 H 0.10967 0.50568 0.51796 0.0
C1759 C 0.03073 0.46136 0.47988 0.0
H1760 H 0.09502 0.44476 0.49239 0.0
C1761 C 0.03912 0.49623 0.49351 0.0
C1762 C 0.06759 0.51292 0.50785 0.0
H1763 H 1.00851 0.4495 0.46952 0.0
H1764 H 0.02307 0.50995 0.49355 0.0
C1765 C 0.08757 0.49373 0.5071 0.0
C1766 C 0.54259 0.41533 0.2328 0.0
C1767 C 0.54169 0.38154 0.22039 0.0
H1768 H 0.52326 0.4491 0.25824 0.0
C1769 C 0.52045 0.35504 0.22589 0.0
H1770 H 0.55887 0.43621 0.22892 0.0
C1771 C 0.49968 0.36245 0.24236 0.0
C1772 C 0.5002 0.39646 0.25415 0.0
H1773 H 0.51941 0.32879 0.21659 0.0
H1774 H 0.48303 0.34164 0.24557 0.0
C1775 C 0.5223 0.42271 0.24975 0.0
C1776 C 0.65014 0.67553 0.46857 0.0
C1777 C 0.66836 0.65496 0.46396 0.0
H1778 H 0.60929 0.67754 0.47599 0.0
C1779 C 0.65883 0.61961 0.46268 0.0
H1780 H 0.65667 0.70268 0.46902 0.0
C1781 C 0.63135 0.60509 0.46585 0.0
C1782 C 0.6134 0.6259 0.47047 0.0
H1783 H 0.67246 0.60315 0.45886 0.0
H1784 H 0.62451 0.57804 0.46583 0.0
C1785 C 0.62291 0.66109 0.4719 0.0
C1786 C 0.33524 0.8838 0.13597 0.0
C1787 C 0.35331 0.91551 0.13557 0.0
H1788 H 0.31729 0.84923 0.1656 0.0
C1789 C 0.36784 0.93676 0.16583 0.0
H1790 H 0.32392 0.86688 0.11302 0.0
C1791 C 0.36405 0.92692 0.19595 0.0
C1792 C 0.34577 0.89532 0.19665 0.0
H1793 H 0.38205 0.9613 0.16617 0.0
H1794 H 0.37542 0.9442 0.2187 0.0
C1795 C 0.33159 0.87376 0.16618 0.0
C1796 C 0.07223 0.71597 0.94112 0.0
C1797 C 0.04364 0.71389 0.93023 0.0
H1798 H 0.10298 0.69842 0.97076 0.0
C1799 C 0.02332 0.69038 0.94129 0.0
H1800 H 0.08831 0.73367 0.93294 0.0
C1801 C 0.03171 0.66903 0.9626 0.0
C1802 C 0.06053 0.67152 0.9736 0.0
H1803 H 1.00103 0.68791 0.93285 0.0
H1804 H 0.01583 0.65112 0.97082 0.0
C1805 C 0.08055 0.6955 0.96273 0.0
C1806 C 0.32502 0.35075 0.62988 0.0
C1807 C 0.31128 0.31804 0.61161 0.0
H1808 H 0.33622 0.38378 0.67698 0.0
C1809 C 0.29624 0.29382 0.62754 0.0
H1810 H 0.33666 0.37001 0.61844 0.0
C1811 C 0.29623 0.3017 0.66135 0.0
C1812 C 0.31115 0.33398 0.67979 0.0
H1813 H 0.28586 0.26815 0.61434 0.0
H1814 H 0.2859 0.28206 0.6734 0.0
C1815 C 0.32485 0.3586 0.66346 0.0
C1816 C 0.6714 0.67253 0.31233 0.0
C1817 C 0.66172 0.64589 0.32879 0.0
H1818 H 0.669 0.69046 0.26669 0.0
C1819 C 0.64124 0.61638 0.31123 0.0
H1820 H 0.68761 0.69534 0.32504 0.0
C1821 C 0.63033 0.61384 0.27759 0.0
C1822 C 0.64059 0.64037 0.26136 0.0
H1823 H 0.63374 0.59547 0.32347 0.0
H1824 H 0.6143 0.59119 0.26418 0.0
C1825 C 0.66111 0.66963 0.27888 0.0
C1826 C 0.34145 0.93831 0.93462 0.0
C1827 C 0.33911 0.91796 0.95918 0.0
H1828 H 0.33669 0.93964 0.88246 0.0
C1829 C 0.32861 0.88263 0.94906 0.0
H1830 H 0.35012 0.96562 0.9417 0.0
C1831 C 0.32046 0.86795 0.91541 0.0
C1832 C 0.32335 0.88797 0.89065 0.0
H1833 H 0.32701 0.86623 0.96726 0.0
H1834 H 0.31265 0.8405 0.90884 0.0
C1835 C 0.33394 0.92346 0.9007 0.0
C1836 C 0.05766 0.71038 0.78161 0.0
C1837 C 0.02987 0.71325 0.77745 0.0
H1838 H 0.08535 0.68211 0.76587 0.0
C1839 C 1.00766 0.68545 0.75986 0.0
H1840 H 0.07514 0.73183 0.79449 0.0
C1841 C 1.01344 0.65692 0.74312 0.0
C1842 C 0.04155 0.65605 0.74366 0.0
H1843 H 0.98609 0.68738 0.75594 0.0
H1844 H 0.9961 0.63719 0.72718 0.0
C1845 C 0.06347 0.68186 0.76503 0.0
C1846 C 0.33304 0.31894 0.41685 0.0
C1847 C 0.31441 0.32782 0.43613 0.0
H1848 H 0.35141 0.32508 0.37455 0.0
C1849 C 0.29939 0.35094 0.42587 0.0
H1850 H 0.34527 0.30159 0.42416 0.0
C1851 C 0.30364 0.36538 0.39755 0.0
C1852 C 0.32241 0.35631 0.37847 0.0
H1853 H 0.28518 0.35873 0.44028 0.0
H1854 H 0.29223 0.38357 0.39053 0.0
C1855 C 0.33666 0.33249 0.38836 0.0
C1856 C 0.37623 0.67928 0.54064 0.0
C1857 C 0.3687 0.70236 0.52126 0.0
H1858 H 0.40149 0.64433 0.54865 0.0
C1859 C 0.38145 0.70759 0.49412 0.0
H1860 H 0.3666 0.67444 0.56143 0.0
C1861 C 0.40077 0.68958 0.48617 0.0
C1862 C 0.40839 0.66661 0.50572 0.0
H1863 H 0.37574 0.72477 0.4783 0.0
H1864 H 0.40986 0.6937 0.46485 0.0
C1865 C 0.39615 0.66201 0.53325 0.0
C1866 C 0.946 0.06885 0.56735 0.0
C1867 C 0.93883 0.03308 0.56038 0.0
H1868 H 0.97758 0.11576 0.57197 0.0
C1869 C 0.95916 0.0171 0.55152 0.0
H1870 H 0.93088 0.08193 0.57448 0.0
C1871 C 0.986 0.03668 0.54943 0.0
C1872 C 0.99321 0.07258 0.55682 0.0
H1873 H 0.95415 0.98959 0.54566 0.0
H1874 H 1.00115 0.02371 0.54222 0.0
C1875 C 0.97281 0.08829 0.56589 0.0
C1876 C 0.84929 0.10198 0.22605 0.0
C1877 C 0.86547 0.10628 0.20187 0.0
H1878 H 0.8348 0.12541 0.26547 0.0
C1879 C 0.88416 0.1382 0.20344 0.0
H1880 H 0.8351 0.07748 0.22591 0.0
C1881 C 0.88449 0.16601 0.22694 0.0
C1882 C 0.86574 0.16234 0.24867 0.0
H1883 H 0.89771 0.14197 0.18589 0.0
H1884 H 0.89802 0.19076 0.22663 0.0
C1885 C 0.84951 0.12956 0.24926 0.0
C1886 C 0.70468 0.19242 0.04523 0.0
C1887 C 0.71187 0.18033 0.01562 0.0
H1888 H 0.67333 0.18757 0.07502 0.0
C1889 C 0.69227 0.15294 0.99332 0.0
H1890 H 0.71943 0.21325 0.0631 0.0
C1891 C 0.66592 0.13856 1.0 0.0
C1892 C 0.65865 0.15061 0.02951 0.0
H1893 H 0.69712 0.14286 0.97038 0.0
H1894 H 0.65113 0.11796 0.98189 0.0
C1895 C 0.67845 0.17746 0.05227 0.0
C1896 C 0.24301 0.4619 0.25904 0.0
C1897 C 0.21709 0.43667 0.24761 0.0
H1898 H 0.28785 0.47259 0.27813 0.0
C1899 C 0.21698 0.40245 0.2437 0.0
H1900 H 0.2434 0.4886 0.26296 0.0
C1901 C 0.24211 0.39345 0.25273 0.0
C1902 C 0.26787 0.41847 0.26611 0.0
H1903 H 0.19727 0.38267 0.23563 0.0
H1904 H 0.24112 0.36664 0.25049 0.0
C1905 C 0.26837 0.45286 0.26794 0.0
C1906 C 0.26121 0.49789 0.02833 0.0
C1907 C 0.28625 0.52348 0.04326 0.0
H1908 H 0.21664 0.48653 1.00743 0.0
C1909 C 0.28546 0.55764 0.04736 0.0
H1910 H 0.2612 0.47132 0.02461 0.0
C1911 C 0.26037 0.56616 0.03719 0.0
C1912 C 0.23531 0.54081 0.02281 0.0
H1913 H 0.30422 0.57802 0.05881 0.0
H1914 H 0.26042 0.59275 0.0415 0.0
C1915 C 0.2358 0.50651 0.0184 0.0
C1916 C 0.8553 0.94294 0.18177 0.0
C1917 C 0.88024 0.96884 0.19393 0.0
H1918 H 0.82145 0.90773 0.19343 0.0
C1919 C 0.89405 0.97321 0.22722 0.0
H1920 H 0.84399 0.93957 0.15645 0.0
C1921 C 0.88107 0.95469 0.24889 0.0
C1922 C 0.8541 0.9322 0.2373 0.0
H1923 H 0.91301 0.99378 0.2373 0.0
H1924 H 0.89077 0.96031 0.27495 0.0
C1925 C 0.84212 0.92525 0.20329 0.0
C1926 C 0.6987 0.08942 0.76665 0.0
C1927 C 0.69972 0.06827 0.73791 0.0
H1928 H 0.7145 0.13891 0.79689 0.0
C1929 C 0.71413 0.08142 0.7148 0.0
H1930 H 0.68735 0.07917 0.78452 0.0
C1931 C 0.72963 0.11532 0.72191 0.0
C1932 C 0.73067 0.13578 0.7521 0.0
H1933 H 0.71484 0.06516 0.69252 0.0
H1934 H 0.74173 0.12523 0.70453 0.0
C1935 C 0.71416 0.12323 0.77377 0.0
loop_
_geom_bond_atom_site_label_1
_geom_bond_atom_site_label_2
_geom_bond_distance
_geom_bond_site_symmetry_2
_ccdc_geom_bond_type
Mg0 O1 2.028 . S
Mg0 O7 1.986 . S
Mg0 O9 2.114 1_455 S
Mg0 O10 2.251 1_455 S
Mg0 O13 2.010 . S
O1 Mg0 2.028 . S
O1 C4 1.250 . S
O2 Mg3 2.028 . S
O2 C4 1.248 1_655 S
Mg3 O2 2.028 . S
Mg3 O8 2.032 . S
Mg3 O10 2.079 . S
C4 O1 1.250 . S
C4 O2 1.248 1_455 S
C5 O6 1.264 . S
C5 O13 1.249 . S
O6 C5 1.264 . S
O7 Mg0 1.986 . S
O7 C11 1.246 . S
O8 Mg3 2.032 . S
O8 C11 1.259 1_655 S
O9 Mg0 2.114 1_655 S
O9 C12 1.252 . S
O10 Mg0 2.251 1_655 S
O10 Mg3 2.079 . S
O10 C12 1.273 . S
C11 O7 1.246 . S
C11 O8 1.259 1_455 S
C12 O9 1.252 . S
C12 O10 1.273 . S
O13 Mg0 2.010 . S
O13 C5 1.249 . S
Mg14 O15 2.028 . S
Mg14 O21 1.986 . S
Mg14 O23 2.114 . S
Mg14 O24 2.251 . S
Mg14 O27 2.010 . S
O15 Mg14 2.028 . S
O15 C18 1.250 . S
O16 Mg17 2.028 . S
O16 C18 1.248 . S
Mg17 O16 2.028 . S
Mg17 O22 2.032 . S
Mg17 O24 2.079 . S
C18 O15 1.250 . S
C18 O16 1.248 . S
C19 O20 1.264 . S
C19 O27 1.249 . S
O20 C19 1.264 . S
O21 Mg14 1.986 . S
O21 C25 1.246 . S
O22 Mg17 2.032 . S
O22 C25 1.259 . S
O23 Mg14 2.114 . S
O23 C26 1.252 . S
O24 Mg14 2.251 . S
O24 Mg17 2.079 . S
O24 C26 1.273 . S
C25 O21 1.246 . S
C25 O22 1.259 . S
C26 O23 1.252 . S
C26 O24 1.273 . S
O27 Mg14 2.010 . S
O27 C19 1.249 . S
Mg28 O29 2.028 . S
Mg28 O35 1.986 . S
Mg28 O37 2.114 . S
Mg28 O38 2.251 . S
Mg28 O41 2.010 . S
O29 Mg28 2.028 . S
O29 C32 1.250 . S
O30 Mg31 2.028 . S
O30 C32 1.248 . S
Mg31 O30 2.028 . S
Mg31 O36 2.032 . S
Mg31 O38 2.079 . S
C32 O29 1.250 . S
C32 O30 1.248 . S
C33 O34 1.264 . S
C33 O41 1.249 . S
O34 C33 1.264 . S
O35 Mg28 1.986 . S
O35 C39 1.246 . S
O36 Mg31 2.032 . S
O36 C39 1.259 . S
O37 Mg28 2.114 . S
O37 C40 1.252 . S
O38 Mg28 2.251 . S
O38 Mg31 2.079 . S
O38 C40 1.273 . S
C39 O35 1.246 . S
C39 O36 1.259 . S
C40 O37 1.252 . S
C40 O38 1.273 . S
O41 Mg28 2.010 . S
O41 C33 1.249 . S
Mg42 O43 2.028 . S
Mg42 O49 1.986 . S
Mg42 O51 2.114 . S
Mg42 O52 2.251 . S
Mg42 O55 2.010 . S
O43 Mg42 2.028 . S
O43 C46 1.250 . S
O44 Mg45 2.028 . S
O44 C46 1.248 . S
Mg45 O44 2.028 . S
Mg45 O50 2.032 . S
Mg45 O52 2.079 . S
C46 O43 1.250 . S
C46 O44 1.248 . S
C47 O48 1.264 . S
C47 O55 1.249 . S
O48 C47 1.264 . S
O49 Mg42 1.986 . S
O49 C53 1.246 . S
O50 Mg45 2.032 . S
O50 C53 1.259 . S
O51 Mg42 2.114 . S
O51 C54 1.252 . S
O52 Mg42 2.251 . S
O52 Mg45 2.079 . S
O52 C54 1.273 . S
C53 O49 1.246 . S
C53 O50 1.259 . S
C54 O51 1.252 . S
C54 O52 1.273 . S
O55 Mg42 2.010 . S
O55 C47 1.249 . S
Mg56 O57 2.028 . S
Mg56 O63 1.986 . S
Mg56 O65 2.114 . S
Mg56 O66 2.251 . S
Mg56 O69 2.010 . S
O57 Mg56 2.028 . S
O57 C60 1.250 . S
O58 Mg59 2.028 . S
O58 C60 1.248 . S
Mg59 O58 2.028 . S
Mg59 O64 2.032 . S
Mg59 O66 2.079 . S
C60 O57 1.250 . S
C60 O58 1.248 . S
C61 O62 1.264 . S
C61 O69 1.249 . S
O62 C61 1.264 . S
O63 Mg56 1.986 . S
O63 C67 1.246 . S
O64 Mg59 2.032 . S
O64 C67 1.259 . S
O65 Mg56 2.114 . S
O65 C68 1.252 . S
O66 Mg56 2.251 . S
O66 Mg59 2.079 . S
O66 C68 1.273 . S
C67 O63 1.246 . S
C67 O64 1.259 . S
C68 O65 1.252 . S
C68 O66 1.273 . S
O69 Mg56 2.010 . S
O69 C61 1.249 . S
Mg70 O71 2.028 . S
Mg70 O77 1.986 . S
Mg70 O79 2.114 . S
Mg70 O80 2.251 . S
Mg70 O83 2.010 . S
O71 Mg70 2.028 . S
O71 C74 1.250 . S
O72 Mg73 2.028 . S
O72 C74 1.248 . S
Mg73 O72 2.028 . S
Mg73 O78 2.032 . S
Mg73 O80 2.079 . S
C74 O71 1.250 . S
C74 O72 1.248 . S
C75 O76 1.264 . S
C75 O83 1.249 . S
O76 C75 1.264 . S
O77 Mg70 1.986 . S
O77 C81 1.246 . S
O78 Mg73 2.032 . S
O78 C81 1.259 . S
O79 Mg70 2.114 . S
O79 C82 1.252 . S
O80 Mg70 2.251 . S
O80 Mg73 2.079 . S
O80 C82 1.273 . S
C81 O77 1.246 . S
C81 O78 1.259 . S
C82 O79 1.252 . S
C82 O80 1.273 . S
O83 Mg70 2.010 . S
O83 C75 1.249 . S
Mg84 O85 2.028 . S
Mg84 O91 1.986 . S
Mg84 O93 2.114 . S
Mg84 O94 2.251 . S
Mg84 O97 2.010 . S
O85 Mg84 2.028 . S
O85 C88 1.250 . S
O86 Mg87 2.028 . S
O86 C88 1.248 . S
Mg87 O86 2.028 . S
Mg87 O92 2.032 . S
Mg87 O94 2.079 . S
C88 O85 1.250 . S
C88 O86 1.248 . S
C89 O90 1.264 . S
C89 O97 1.249 . S
O90 C89 1.264 . S
O91 Mg84 1.986 . S
O91 C95 1.246 . S
O92 Mg87 2.032 . S
O92 C95 1.259 . S
O93 Mg84 2.114 . S
O93 C96 1.252 . S
O94 Mg84 2.251 . S
O94 Mg87 2.079 . S
O94 C96 1.273 . S
C95 O91 1.246 . S
C95 O92 1.259 . S
C96 O93 1.252 . S
C96 O94 1.273 . S
O97 Mg84 2.010 . S
O97 C89 1.249 . S
Mg98 O99 2.028 . S
Mg98 O105 1.986 . S
Mg98 O107 2.114 1_455 S
Mg98 O108 2.251 1_455 S
Mg98 O111 2.010 . S
O99 Mg98 2.028 . S
O99 C102 1.250 . S
O100 Mg101 2.028 1_455 S
O100 C102 1.248 . S
Mg101 O100 2.028 1_655 S
Mg101 O106 2.032 . S
Mg101 O108 2.079 . S
C102 O99 1.250 . S
C102 O100 1.248 . S
C103 O104 1.264 . S
C103 O111 1.249 . S
O104 C103 1.264 . S
O105 Mg98 1.986 . S
O105 C109 1.246 . S
O106 Mg101 2.032 . S
O106 C109 1.259 1_655 S
O107 Mg98 2.114 1_655 S
O107 C110 1.252 . S
O108 Mg98 2.251 1_655 S
O108 Mg101 2.079 . S
O108 C110 1.273 . S
C109 O105 1.246 . S
C109 O106 1.259 1_455 S
C110 O107 1.252 . S
C110 O108 1.273 . S
O111 Mg98 2.010 . S
O111 C103 1.249 . S
Mg112 O113 2.028 . S
Mg112 O119 1.986 . S
Mg112 O121 2.114 . S
Mg112 O122 2.251 . S
Mg112 O125 2.010 . S
O113 Mg112 2.028 . S
O113 C116 1.250 . S
O114 Mg115 2.028 . S
O114 C116 1.248 . S
Mg115 O114 2.028 . S
Mg115 O120 2.032 . S
Mg115 O122 2.079 . S
C116 O113 1.250 . S
C116 O114 1.248 . S
C117 O118 1.264 . S
C117 O125 1.249 . S
O118 C117 1.264 . S
O119 Mg112 1.986 . S
O119 C123 1.246 . S
O120 Mg115 2.032 . S
O120 C123 1.259 . S
O121 Mg112 2.114 . S
O121 C124 1.252 . S
O122 Mg112 2.251 . S
O122 Mg115 2.079 . S
O122 C124 1.273 . S
C123 O119 1.246 . S
C123 O120 1.259 . S
C124 O121 1.252 . S
C124 O122 1.273 . S
O125 Mg112 2.010 . S
O125 C117 1.249 . S
Mg126 O127 2.028 . S
Mg126 O133 1.986 . S
Mg126 O135 2.114 . S
Mg126 O136 2.251 . S
Mg126 O139 2.010 . S
O127 Mg126 2.028 . S
O127 C130 1.250 . S
O128 Mg129 2.028 . S
O128 C130 1.248 . S
Mg129 O128 2.028 . S
Mg129 O134 2.032 . S
Mg129 O136 2.079 . S
C130 O127 1.250 . S
C130 O128 1.248 . S
C131 O132 1.264 . S
C131 O139 1.249 . S
O132 C131 1.264 . S
O133 Mg126 1.986 . S
O133 C137 1.246 . S
O134 Mg129 2.032 . S
O134 C137 1.259 . S
O135 Mg126 2.114 . S
O135 C138 1.252 . S
O136 Mg126 2.251 . S
O136 Mg129 2.079 . S
O136 C138 1.273 . S
C137 O133 1.246 . S
C137 O134 1.259 . S
C138 O135 1.252 . S
C138 O136 1.273 . S
O139 Mg126 2.010 . S
O139 C131 1.249 . S
Mg140 O141 2.028 . S
Mg140 O147 1.986 . S
Mg140 O149 2.114 . S
Mg140 O150 2.251 . S
Mg140 O153 2.010 . S
O141 Mg140 2.028 . S
O141 C144 1.250 . S
O142 Mg143 2.028 . S
O142 C144 1.248 . S
Mg143 O142 2.028 . S
Mg143 O148 2.032 . S
Mg143 O150 2.079 . S
C144 O141 1.250 . S
C144 O142 1.248 . S
C145 O146 1.264 . S
C145 O153 1.249 . S
O146 C145 1.264 . S
O147 Mg140 1.986 . S
O147 C151 1.246 . S
O148 Mg143 2.032 . S
O148 C151 1.259 . S
O149 Mg140 2.114 . S
O149 C152 1.252 . S
O150 Mg140 2.251 . S
O150 Mg143 2.079 . S
O150 C152 1.273 . S
C151 O147 1.246 . S
C151 O148 1.259 . S
C152 O149 1.252 . S
C152 O150 1.273 . S
O153 Mg140 2.010 . S
O153 C145 1.249 . S
Mg154 O155 2.028 . S
Mg154 O161 1.986 . S
Mg154 O163 2.114 1_565 S
Mg154 O164 2.251 . S
Mg154 O167 2.010 . S
O155 Mg154 2.028 . S
O155 C158 1.250 . S
O156 Mg157 2.028 . S
O156 C158 1.248 . S
Mg157 O156 2.028 . S
Mg157 O162 2.032 . S
Mg157 O164 2.079 . S
C158 O155 1.250 . S
C158 O156 1.248 . S
C159 O160 1.264 . S
C159 O167 1.249 1_545 S
O160 C159 1.264 . S
O161 Mg154 1.986 . S
O161 C165 1.246 . S
O162 Mg157 2.032 . S
O162 C165 1.259 . S
O163 Mg154 2.114 1_545 S
O163 C166 1.252 . S
O164 Mg154 2.251 . S
O164 Mg157 2.079 . S
O164 C166 1.273 1_565 S
C165 O161 1.246 . S
C165 O162 1.259 . S
C166 O163 1.252 . S
C166 O164 1.273 1_545 S
O167 Mg154 2.010 . S
O167 C159 1.249 1_565 S
Mg168 O169 2.028 . S
Mg168 O175 1.986 . S
Mg168 O177 2.114 . S
Mg168 O178 2.251 . S
Mg168 O181 2.010 . S
O169 Mg168 2.028 . S
O169 C172 1.250 1_554 S
O170 Mg171 2.010 1_556 S
O170 C172 1.254 . S
Mg171 O170 2.010 1_554 S
Mg171 O176 2.032 . S
Mg171 O178 2.079 . S
C172 O169 1.250 1_556 S
C172 O170 1.254 . S
C173 O174 1.264 . S
C173 O181 1.249 . S
O174 C173 1.264 . S
O175 Mg168 1.986 . S
O175 C179 1.246 . S
O176 Mg171 2.032 . S
O176 C179 1.259 . S
O177 Mg168 2.114 . S
O177 C180 1.252 . S
O178 Mg168 2.251 . S
O178 Mg171 2.079 . S
O178 C180 1.273 . S
C179 O175 1.246 . S
C179 O176 1.259 . S
C180 O177 1.252 . S
C180 O178 1.273 . S
O181 Mg168 2.010 . S
O181 C173 1.249 . S
Mg182 O183 2.028 1_556 S
Mg182 O189 1.986 . S
Mg182 O191 2.114 1_556 S
Mg182 O192 2.251 . S
Mg182 O195 2.010 . S
O183 Mg182 2.028 1_554 S
O183 C186 1.250 . S
O184 Mg185 2.028 . S
O184 C186 1.248 . S
Mg185 O184 2.028 . S
Mg185 O190 2.032 1_554 S
Mg185 O192 2.079 1_554 S
C186 O183 1.250 . S
C186 O184 1.248 . S
C187 O188 1.264 . S
C187 O195 1.249 . S
O188 C187 1.264 . S
O189 Mg182 1.986 . S
O189 C193 1.246 . S
O190 Mg185 2.032 1_556 S
O190 C193 1.259 . S
O191 Mg182 2.114 1_554 S
O191 C194 1.252 . S
O192 Mg182 2.251 . S
O192 Mg185 2.079 1_556 S
O192 C194 1.273 1_556 S
C193 O189 1.246 . S
C193 O190 1.259 . S
C194 O191 1.252 . S
C194 O192 1.273 1_554 S
O195 Mg182 2.010 . S
O195 C187 1.249 . S
Mg196 O197 2.028 . S
Mg196 O203 1.986 . S
Mg196 O205 2.114 . S
Mg196 O206 2.251 . S
Mg196 O209 2.010 . S
O197 Mg196 2.028 . S
O197 C200 1.250 . S
O198 Mg199 2.028 . S
O198 C200 1.248 . S
Mg199 O198 2.028 . S
Mg199 O204 2.032 . S
Mg199 O206 2.079 . S
C200 O197 1.250 . S
C200 O198 1.248 . S
C201 O202 1.264 . S
C201 O209 1.249 . S
O202 C201 1.264 . S
O203 Mg196 1.986 . S
O203 C207 1.246 . S
O204 Mg199 2.032 . S
O204 C207 1.259 . S
O205 Mg196 2.114 . S
O205 C208 1.252 . S
O206 Mg196 2.251 . S
O206 Mg199 2.079 . S
O206 C208 1.273 . S
C207 O203 1.246 . S
C207 O204 1.259 . S
C208 O205 1.252 . S
C208 O206 1.273 . S
O209 Mg196 2.010 . S
O209 C201 1.249 . S
Mg210 O211 2.028 . S
Mg210 O217 1.986 . S
Mg210 O219 2.114 1_565 S
Mg210 O220 2.251 . S
Mg210 O223 2.010 . S
O211 Mg210 2.028 . S
O211 C214 1.250 . S
O212 Mg213 2.028 . S
O212 C214 1.248 . S
Mg213 O212 2.028 . S
Mg213 O218 2.032 . S
Mg213 O220 2.079 . S
C214 O211 1.250 . S
C214 O212 1.248 . S
C215 O216 1.264 . S
C215 O223 1.249 1_545 S
O216 C215 1.264 . S
O217 Mg210 1.986 . S
O217 C221 1.246 . S
O218 Mg213 2.032 . S
O218 C221 1.259 . S
O219 Mg210 2.114 1_545 S
O219 C222 1.229 1_545 S
O220 Mg210 2.251 . S
O220 Mg213 2.079 . S
O220 C222 1.307 . S
C221 O217 1.246 . S
C221 O218 1.259 . S
C222 O219 1.229 1_565 S
C222 O220 1.307 . S
O223 Mg210 2.010 . S
O223 C215 1.249 1_565 S
Mg224 O225 2.028 . S
Mg224 O231 1.986 . S
Mg224 O233 2.114 . S
Mg224 O234 2.251 . S
Mg224 O237 2.010 . S
O225 Mg224 2.028 . S
O225 C228 1.250 1_545 S
O226 Mg227 2.028 1_565 S
O226 C228 1.248 . S
Mg227 O226 2.028 1_545 S
Mg227 O232 2.032 . S
Mg227 O234 2.079 . S
C228 O225 1.250 1_565 S
C228 O226 1.248 . S
C229 O230 1.264 . S
C229 O237 1.249 . S
O230 C229 1.264 . S
O231 Mg224 1.986 . S
O231 C235 1.246 . S
O232 Mg227 2.032 . S
O232 C235 1.259 . S
O233 Mg224 2.114 . S
O233 C236 1.252 . S
O234 Mg224 2.251 . S
O234 Mg227 2.079 . S
O234 C236 1.273 . S
C235 O231 1.246 . S
C235 O232 1.259 . S
C236 O233 1.252 . S
C236 O234 1.273 . S
O237 Mg224 2.010 . S
O237 C229 1.249 . S
Mg238 O239 2.028 . S
Mg238 O245 1.986 . S
Mg238 O247 2.114 . S
Mg238 O248 2.251 . S
Mg238 O251 2.010 . S
O239 Mg238 2.028 . S
O239 C242 1.250 . S
O240 Mg241 2.028 . S
O240 C242 1.248 . S
Mg241 O240 2.028 . S
Mg241 O246 2.032 . S
Mg241 O248 2.079 . S
C242 O239 1.250 . S
C242 O240 1.248 . S
C243 O244 1.264 . S
C243 O251 1.249 . S
O244 C243 1.264 . S
O245 Mg238 1.986 . S
O245 C249 1.246 . S
O246 Mg241 2.032 . S
O246 C249 1.259 . S
O247 Mg238 2.114 . S
O247 C250 1.252 . S
O248 Mg238 2.251 . S
O248 Mg241 2.079 . S
O248 C250 1.273 . S
C249 O245 1.246 . S
C249 O246 1.259 . S
C250 O247 1.252 . S
C250 O248 1.273 . S
O251 Mg238 2.010 . S
O251 C243 1.249 . S
Mg252 O253 2.028 . S
Mg252 O259 1.986 . S
Mg252 O261 2.114 . S
Mg252 O262 2.251 . S
Mg252 O265 2.010 . S
O253 Mg252 2.028 . S
O253 C256 1.250 . S
O254 Mg255 2.028 . S
O254 C256 1.248 . S
Mg255 O254 2.028 . S
Mg255 O260 2.032 . S
Mg255 O262 2.079 . S
C256 O253 1.250 . S
C256 O254 1.248 . S
C257 O258 1.264 . S
C257 O265 1.249 . S
O258 C257 1.264 . S
O259 Mg252 1.986 . S
O259 C263 1.246 . S
O260 Mg255 2.032 . S
O260 C263 1.259 . S
O261 Mg252 2.114 . S
O261 C264 1.252 . S
O262 Mg252 2.251 . S
O262 Mg255 2.079 . S
O262 C264 1.273 . S
C263 O259 1.246 . S
C263 O260 1.259 . S
C264 O261 1.252 . S
C264 O262 1.273 . S
O265 Mg252 2.010 . S
O265 C257 1.249 . S
Mg266 O267 2.028 1_565 S
Mg266 O273 1.986 . S
Mg266 O275 2.114 1_565 S
Mg266 O276 2.251 . S
Mg266 O279 2.010 . S
O267 Mg266 2.028 1_545 S
O267 C270 1.250 . S
O268 Mg269 2.028 . S
O268 C270 1.248 . S
Mg269 O268 2.028 . S
Mg269 O274 2.032 1_545 S
Mg269 O276 2.079 1_545 S
C270 O267 1.250 . S
C270 O268 1.248 . S
C271 O272 1.264 . S
C271 O279 1.249 . S
O272 C271 1.264 . S
O273 Mg266 1.986 . S
O273 C277 1.246 . S
O274 Mg269 2.032 1_565 S
O274 C277 1.259 . S
O275 Mg266 2.114 1_545 S
O275 C278 1.252 . S
O276 Mg266 2.251 . S
O276 Mg269 2.079 1_565 S
O276 C278 1.273 1_565 S
C277 O273 1.246 . S
C277 O274 1.259 . S
C278 O275 1.252 . S
C278 O276 1.273 1_545 S
O279 Mg266 2.010 . S
O279 C271 1.249 . S
Mg280 O281 2.047 . S
Mg280 O287 1.971 1_554 S
Mg280 O289 2.124 . S
Mg280 O290 2.251 . S
Mg280 O293 2.012 1_554 S
O281 Mg280 2.047 . S
O281 C284 1.250 . S
O282 Mg283 2.028 . S
O282 C284 1.248 . S
Mg283 O282 2.028 . S
Mg283 O288 2.032 1_554 S
Mg283 O290 2.079 . S
C284 O281 1.250 . S
C284 O282 1.248 . S
C285 O286 1.264 . S
C285 O293 1.249 . S
O286 C285 1.264 . S
O287 Mg280 1.971 1_556 S
O287 C291 1.246 . S
O288 Mg283 2.032 1_556 S
O288 C291 1.259 . S
O289 Mg280 2.124 . S
O289 C292 1.252 . S
O290 Mg280 2.251 . S
O290 Mg283 2.079 . S
O290 C292 1.273 . S
C291 O287 1.246 . S
C291 O288 1.259 . S
C292 O289 1.252 . S
C292 O290 1.273 . S
O293 Mg280 2.012 1_556 S
O293 C285 1.249 . S
Mg294 O295 2.028 . S
Mg294 O301 1.986 . S
Mg294 O303 2.114 1_655 S
Mg294 O304 2.251 . S
Mg294 O307 2.010 1_655 S
O295 Mg294 2.028 . S
O295 C298 1.250 . S
O296 Mg297 2.028 . S
O296 C298 1.248 . S
Mg297 O296 2.028 . S
Mg297 O302 2.032 . S
Mg297 O304 2.079 . S
C298 O295 1.250 . S
C298 O296 1.248 . S
C299 O300 1.264 . S
C299 O307 1.249 . S
O300 C299 1.264 . S
O301 Mg294 1.986 . S
O301 C305 1.246 . S
O302 Mg297 2.032 . S
O302 C305 1.259 . S
O303 Mg294 2.114 1_455 S
O303 C306 1.252 . S
O304 Mg294 2.251 . S
O304 Mg297 2.079 . S
O304 C306 1.273 1_655 S
C305 O301 1.246 . S
C305 O302 1.259 . S
C306 O303 1.252 . S
C306 O304 1.273 1_455 S
O307 Mg294 2.010 1_455 S
O307 C299 1.249 . S
Mg308 O309 2.028 . S
Mg308 O315 1.986 . S
Mg308 O317 2.114 . S
Mg308 O318 2.251 . S
Mg308 O321 2.010 . S
O309 Mg308 2.028 . S
O309 C312 1.250 . S
O310 Mg311 2.028 . S
O310 C312 1.248 . S
Mg311 O310 2.028 . S
Mg311 O316 2.032 . S
Mg311 O318 2.079 . S
C312 O309 1.250 . S
C312 O310 1.248 . S
C313 O314 1.264 . S
C313 O321 1.249 . S
O314 C313 1.264 . S
O315 Mg308 1.986 . S
O315 C319 1.246 . S
O316 Mg311 2.032 . S
O316 C319 1.259 . S
O317 Mg308 2.114 . S
O317 C320 1.252 . S
O318 Mg308 2.251 . S
O318 Mg311 2.079 . S
O318 C320 1.273 . S
C319 O315 1.246 . S
C319 O316 1.259 . S
C320 O317 1.252 . S
C320 O318 1.273 . S
O321 Mg308 2.010 . S
O321 C313 1.249 . S
Mg322 O323 2.028 . S
Mg322 O329 1.986 . S
Mg322 O331 2.114 . S
Mg322 O332 2.251 . S
Mg322 O335 2.010 . S
O323 Mg322 2.028 . S
O323 C326 1.250 . S
O324 Mg325 2.028 . S
O324 C326 1.248 . S
Mg325 O324 2.028 . S
Mg325 O330 2.032 . S
Mg325 O332 2.079 . S
C326 O323 1.250 . S
C326 O324 1.248 . S
C327 O328 1.264 . S
C327 O335 1.249 . S
O328 C327 1.264 . S
O329 Mg322 1.986 . S
O329 C333 1.246 . S
O330 Mg325 2.032 . S
O330 C333 1.259 . S
O331 Mg322 2.114 . S
O331 C334 1.252 . S
O332 Mg322 2.251 . S
O332 Mg325 2.079 . S
O332 C334 1.273 . S
C333 O329 1.246 . S
C333 O330 1.259 . S
C334 O331 1.252 . S
C334 O332 1.273 . S
O335 Mg322 2.010 . S
O335 C327 1.249 . S
Pr336 C338 2.880 1_455 S
Pr336 O356 2.562 1_455 S
Pr336 O357 2.490 1_455 S
Pr336 O358 2.695 . S
Pr336 O359 2.512 . S
Pr336 O361 2.437 . S
Pr336 O364 2.436 1_556 S
Pr336 O366 2.438 1_556 S
Pr337 C347 2.880 . S
Pr337 O358 2.436 1_554 S
Pr337 O360 2.438 . S
Pr337 O362 2.562 . S
Pr337 O363 2.490 . S
Pr337 O364 2.695 . S
Pr337 O365 2.512 . S
Pr337 O367 2.437 . S
C338 Pr336 2.880 1_655 S
C338 C339 1.491 . S
C338 O356 1.254 . S
C338 O357 1.225 . S
C339 C338 1.491 . S
C339 C340 1.392 . S
C339 C344 1.356 . S
C340 C339 1.392 . S
C340 C341 1.368 . S
C340 H368 0.929 . S
C341 C340 1.368 . S
C341 C342 1.386 . S
C341 H369 0.929 . S
C342 C341 1.386 . S
C342 C343 1.373 . S
C343 C342 1.373 . S
C343 C344 1.409 . S
C343 H370 0.931 . S
C344 C339 1.356 . S
C344 C343 1.409 . S
C344 H371 0.930 . S
C345 O358 1.270 . S
C345 O359 1.248 . S
C346 O360 1.267 . S
C346 O361 1.278 1_554 S
C347 Pr337 2.880 . S
C347 C348 1.491 . S
C347 O362 1.254 . S
C347 O363 1.225 . S
C348 C347 1.491 . S
C348 C349 1.392 . S
C348 C353 1.356 . S
C349 C348 1.392 . S
C349 C350 1.368 . S
C349 H372 0.929 . S
C350 C349 1.368 . S
C350 C351 1.386 . S
C350 H373 0.929 . S
C351 C350 1.386 . S
C351 C352 1.373 . S
C352 C351 1.373 . S
C352 C353 1.409 . S
C352 H374 0.931 . S
C353 C348 1.356 . S
C353 C352 1.409 . S
C353 H375 0.930 . S
C354 O364 1.270 . S
C354 O365 1.248 . S
C355 O366 1.267 . S
C355 O367 1.278 . S
O356 Pr336 2.562 1_655 S
O356 C338 1.254 . S
O357 Pr336 2.490 1_655 S
O357 C338 1.225 . S
O358 Pr336 2.695 . S
O358 Pr337 2.436 1_556 S
O358 C345 1.270 . S
O359 Pr336 2.512 . S
O359 C345 1.248 . S
O360 Pr337 2.438 . S
O360 C346 1.267 . S
O361 Pr336 2.437 . S
O361 C346 1.278 1_556 S
O362 Pr337 2.562 . S
O362 C347 1.254 . S
O363 Pr337 2.490 . S
O363 C347 1.225 . S
O364 Pr336 2.436 1_554 S
O364 Pr337 2.695 . S
O364 C354 1.270 . S
O365 Pr337 2.512 . S
O365 C354 1.248 . S
O366 Pr336 2.438 1_554 S
O366 C355 1.267 . S
O367 Pr337 2.437 . S
O367 C355 1.278 . S
H368 C340 0.929 . S
H369 C341 0.929 . S
H370 C343 0.931 . S
H371 C344 0.930 . S
H372 C349 0.929 . S
H373 C350 0.929 . S
H374 C352 0.931 . S
H375 C353 0.930 . S
Pr376 C378 2.880 . S
Pr376 O396 2.562 . S
Pr376 O397 2.490 . S
Pr376 O398 2.695 . S
Pr376 O399 2.512 . S
Pr376 O401 2.437 . S
Pr376 O404 2.436 . S
Pr376 O406 2.438 . S
Pr377 C387 2.880 . S
Pr377 O398 2.436 . S
Pr377 O400 2.438 . S
Pr377 O402 2.562 . S
Pr377 O403 2.490 . S
Pr377 O404 2.695 . S
Pr377 O405 2.512 . S
Pr377 O407 2.437 . S
C378 Pr376 2.880 . S
C378 C379 1.491 1_565 S
C378 O396 1.254 . S
C378 O397 1.225 . S
C379 C378 1.491 1_545 S
C379 C380 1.392 . S
C379 C384 1.356 . S
C380 C379 1.392 . S
C380 C381 1.368 . S
C380 H408 0.929 . S
C381 C380 1.368 . S
C381 C382 1.386 . S
C381 H409 0.929 . S
C382 C381 1.386 . S
C382 C383 1.373 . S
C383 C382 1.373 . S
C383 C384 1.409 . S
C383 H410 0.931 . S
C384 C379 1.356 . S
C384 C383 1.409 . S
C384 H411 0.930 1_545 S
C385 O398 1.270 . S
C385 O399 1.248 . S
C386 O400 1.267 . S
C386 O401 1.278 . S
C387 Pr377 2.880 . S
C387 C388 1.491 . S
C387 O402 1.254 . S
C387 O403 1.225 . S
C388 C387 1.491 . S
C388 C389 1.392 . S
C388 C393 1.356 . S
C389 C388 1.392 . S
C389 C390 1.368 . S
C389 H412 0.929 . S
C390 C389 1.368 . S
C390 C391 1.386 . S
C390 H413 0.929 . S
C391 C390 1.386 . S
C391 C392 1.373 . S
C392 C391 1.373 . S
C392 C393 1.409 . S
C392 H414 0.931 . S
C393 C388 1.356 . S
C393 C392 1.409 . S
C393 H415 0.930 . S
C394 O404 1.270 . S
C394 O405 1.248 . S
C395 O406 1.267 . S
C395 O407 1.278 . S
O396 Pr376 2.562 . S
O396 C378 1.254 . S
O397 Pr376 2.490 . S
O397 C378 1.225 . S
O398 Pr376 2.695 . S
O398 Pr377 2.436 . S
O398 C385 1.270 . S
O399 Pr376 2.512 . S
O399 C385 1.248 . S
O400 Pr377 2.438 . S
O400 C386 1.267 . S
O401 Pr376 2.437 . S
O401 C386 1.278 . S
O402 Pr377 2.562 . S
O402 C387 1.254 . S
O403 Pr377 2.490 . S
O403 C387 1.225 . S
O404 Pr376 2.436 . S
O404 Pr377 2.695 . S
O404 C394 1.270 . S
O405 Pr377 2.512 . S
O405 C394 1.248 . S
O406 Pr376 2.438 . S
O406 C395 1.267 . S
O407 Pr377 2.437 . S
O407 C395 1.278 . S
H408 C380 0.929 . S
H409 C381 0.929 . S
H410 C383 0.931 . S
H411 C384 0.930 1_565 S
H412 C389 0.929 . S
H413 C390 0.929 . S
H414 C392 0.931 . S
H415 C393 0.930 . S
Pr416 C418 2.880 . S
Pr416 O436 2.562 . S
Pr416 O437 2.490 . S
Pr416 O438 2.695 . S
Pr416 O439 2.512 . S
Pr416 O441 2.437 . S
Pr416 O444 2.436 . S
Pr416 O446 2.438 . S
Pr417 C427 2.880 . S
Pr417 O438 2.436 . S
Pr417 O440 2.438 . S
Pr417 O442 2.562 . S
Pr417 O443 2.490 . S
Pr417 O444 2.695 . S
Pr417 O445 2.512 . S
Pr417 O447 2.437 . S
C418 Pr416 2.880 . S
C418 C419 1.491 . S
C418 O436 1.254 . S
C418 O437 1.225 . S
C419 C418 1.491 . S
C419 C420 1.392 . S
C419 C424 1.356 . S
C420 C419 1.392 . S
C420 C421 1.368 . S
C420 H448 0.929 . S
C421 C420 1.368 . S
C421 C422 1.386 . S
C421 H449 0.929 . S
C422 C421 1.386 . S
C422 C423 1.373 . S
C423 C422 1.373 . S
C423 C424 1.409 . S
C423 H450 0.931 . S
C424 C419 1.356 . S
C424 C423 1.409 . S
C424 H451 0.930 . S
C425 O438 1.270 . S
C425 O439 1.248 . S
C426 O440 1.267 . S
C426 O441 1.278 . S
C427 Pr417 2.880 . S
C427 C428 1.491 . S
C427 O442 1.254 . S
C427 O443 1.225 . S
C428 C427 1.491 . S
C428 C429 1.392 . S
C428 C433 1.356 . S
C429 C428 1.392 . S
C429 C430 1.368 . S
C429 H452 0.929 . S
C430 C429 1.368 . S
C430 C431 1.386 . S
C430 H453 0.929 . S
C431 C430 1.386 . S
C431 C432 1.373 . S
C432 C431 1.373 . S
C432 C433 1.409 . S
C432 H454 0.931 . S
C433 C428 1.356 . S
C433 C432 1.409 . S
C433 H455 0.930 . S
C434 O444 1.270 . S
C434 O445 1.248 . S
C435 O446 1.267 . S
C435 O447 1.278 . S
O436 Pr416 2.562 . S
O436 C418 1.254 . S
O437 Pr416 2.490 . S
O437 C418 1.225 . S
O438 Pr416 2.695 . S
O438 Pr417 2.436 . S
O438 C425 1.270 . S
O439 Pr416 2.512 . S
O439 C425 1.248 . S
O440 Pr417 2.438 . S
O440 C426 1.267 . S
O441 Pr416 2.437 . S
O441 C426 1.278 . S
O442 Pr417 2.562 . S
O442 C427 1.254 . S
O443 Pr417 2.490 . S
O443 C427 1.225 . S
O444 Pr416 2.436 . S
O444 Pr417 2.695 . S
O444 C434 1.270 . S
O445 Pr417 2.512 . S
O445 C434 1.248 . S
O446 Pr416 2.438 . S
O446 C435 1.267 . S
O447 Pr417 2.437 . S
O447 C435 1.278 . S
H448 C420 0.929 . S
H449 C421 0.929 . S
H450 C423 0.931 . S
H451 C424 0.930 . S
H452 C429 0.929 . S
H453 C430 0.929 . S
H454 C432 0.931 . S
H455 C433 0.930 . S
Pr456 C458 2.880 . S
Pr456 O476 2.562 . S
Pr456 O477 2.490 . S
Pr456 O478 2.695 . S
Pr456 O479 2.512 . S
Pr456 O481 2.437 . S
Pr456 O484 2.436 . S
Pr456 O486 2.438 . S
Pr457 C467 2.880 . S
Pr457 O478 2.436 . S
Pr457 O480 2.438 . S
Pr457 O482 2.562 . S
Pr457 O483 2.490 . S
Pr457 O484 2.695 . S
Pr457 O485 2.512 . S
Pr457 O487 2.437 . S
C458 Pr456 2.880 . S
C458 C459 1.491 . S
C458 O476 1.254 . S
C458 O477 1.225 . S
C459 C458 1.491 . S
C459 C460 1.392 . S
C459 C464 1.356 . S
C460 C459 1.392 . S
C460 C461 1.368 . S
C460 H488 0.929 . S
C461 C460 1.368 . S
C461 C462 1.386 . S
C461 H489 0.929 . S
C462 C461 1.386 . S
C462 C463 1.373 . S
C463 C462 1.373 . S
C463 C464 1.409 . S
C463 H490 0.931 . S
C464 C459 1.356 . S
C464 C463 1.409 . S
C464 H491 0.930 . S
C465 O478 1.270 . S
C465 O479 1.248 . S
C466 O480 1.267 . S
C466 O481 1.278 . S
C467 Pr457 2.880 . S
C467 C468 1.491 . S
C467 O482 1.254 . S
C467 O483 1.225 . S
C468 C467 1.491 . S
C468 C469 1.392 . S
C468 C473 1.356 . S
C469 C468 1.392 . S
C469 C470 1.368 . S
C469 H492 0.929 . S
C470 C469 1.368 . S
C470 C471 1.386 . S
C470 H493 0.929 . S
C471 C470 1.386 . S
C471 C472 1.373 . S
C472 C471 1.373 . S
C472 C473 1.409 . S
C472 H494 0.931 . S
C473 C468 1.356 . S
C473 C472 1.409 . S
C473 H495 0.930 . S
C474 O484 1.270 . S
C474 O485 1.248 . S
C475 O486 1.267 . S
C475 O487 1.278 . S
O476 Pr456 2.562 . S
O476 C458 1.254 . S
O477 Pr456 2.490 . S
O477 C458 1.225 . S
O478 Pr456 2.695 . S
O478 Pr457 2.436 . S
O478 C465 1.270 . S
O479 Pr456 2.512 . S
O479 C465 1.248 . S
O480 Pr457 2.438 . S
O480 C466 1.267 . S
O481 Pr456 2.437 . S
O481 C466 1.278 . S
O482 Pr457 2.562 . S
O482 C467 1.254 . S
O483 Pr457 2.490 . S
O483 C467 1.225 . S
O484 Pr456 2.436 . S
O484 Pr457 2.695 . S
O484 C474 1.270 . S
O485 Pr457 2.512 . S
O485 C474 1.248 . S
O486 Pr456 2.438 . S
O486 C475 1.267 . S
O487 Pr457 2.437 . S
O487 C475 1.278 . S
H488 C460 0.929 . S
H489 C461 0.929 . S
H490 C463 0.931 . S
H491 C464 0.930 . S
H492 C469 0.929 . S
H493 C470 0.929 . S
H494 C472 0.931 . S
H495 C473 0.930 . S
Pr496 C498 2.880 . S
Pr496 O516 2.562 . S
Pr496 O517 2.490 . S
Pr496 O518 2.695 . S
Pr496 O519 2.512 . S
Pr496 O521 2.437 . S
Pr496 O524 2.436 . S
Pr496 O526 2.438 . S
Pr497 C507 2.880 . S
Pr497 O518 2.436 . S
Pr497 O520 2.438 . S
Pr497 O522 2.562 . S
Pr497 O523 2.490 . S
Pr497 O524 2.695 . S
Pr497 O525 2.512 . S
Pr497 O527 2.437 . S
C498 Pr496 2.880 . S
C498 C499 1.491 . S
C498 O516 1.254 . S
C498 O517 1.225 . S
C499 C498 1.491 . S
C499 C500 1.392 . S
C499 C504 1.356 1_455 S
C500 C499 1.392 . S
C500 C501 1.368 . S
C500 H528 0.929 . S
C501 C500 1.368 . S
C501 C502 1.386 1_455 S
C501 H529 0.929 . S
C502 C501 1.386 1_655 S
C502 C503 1.373 . S
C503 C502 1.373 . S
C503 C504 1.409 . S
C503 H530 0.931 . S
C504 C499 1.356 1_655 S
C504 C503 1.409 . S
C504 H531 0.930 . S
C505 O518 1.270 . S
C505 O519 1.248 . S
C506 O520 1.267 . S
C506 O521 1.278 . S
C507 Pr497 2.880 . S
C507 C508 1.491 . S
C507 O522 1.254 . S
C507 O523 1.225 . S
C508 C507 1.491 . S
C508 C509 1.392 . S
C508 C513 1.356 . S
C509 C508 1.392 . S
C509 C510 1.368 . S
C509 H532 0.929 . S
C510 C509 1.368 . S
C510 C511 1.386 . S
C510 H533 0.929 . S
C511 C510 1.386 . S
C511 C512 1.373 . S
C512 C511 1.373 . S
C512 C513 1.409 . S
C512 H534 0.931 . S
C513 C508 1.356 . S
C513 C512 1.409 . S
C513 H535 0.930 . S
C514 O524 1.270 . S
C514 O525 1.248 . S
C515 O526 1.267 . S
C515 O527 1.278 . S
O516 Pr496 2.562 . S
O516 C498 1.254 . S
O517 Pr496 2.490 . S
O517 C498 1.225 . S
O518 Pr496 2.695 . S
O518 Pr497 2.436 . S
O518 C505 1.270 . S
O519 Pr496 2.512 . S
O519 C505 1.248 . S
O520 Pr497 2.438 . S
O520 C506 1.267 . S
O521 Pr496 2.437 . S
O521 C506 1.278 . S
O522 Pr497 2.562 . S
O522 C507 1.254 . S
O523 Pr497 2.490 . S
O523 C507 1.225 . S
O524 Pr496 2.436 . S
O524 Pr497 2.695 . S
O524 C514 1.270 . S
O525 Pr497 2.512 . S
O525 C514 1.248 . S
O526 Pr496 2.438 . S
O526 C515 1.267 . S
O527 Pr497 2.437 . S
O527 C515 1.278 . S
H528 C500 0.929 . S
H529 C501 0.929 . S
H530 C503 0.931 . S
H531 C504 0.930 . S
H532 C509 0.929 . S
H533 C510 0.929 . S
H534 C512 0.931 . S
H535 C513 0.930 . S
Pr536 C538 2.880 . S
Pr536 O556 2.562 . S
Pr536 O557 2.490 . S
Pr536 O558 2.695 . S
Pr536 O559 2.512 . S
Pr536 O561 2.437 . S
Pr536 O564 2.436 . S
Pr536 O566 2.438 . S
Pr537 C547 2.880 . S
Pr537 O558 2.436 . S
Pr537 O560 2.438 . S
Pr537 O562 2.562 . S
Pr537 O563 2.490 . S
Pr537 O564 2.695 . S
Pr537 O565 2.512 . S
Pr537 O567 2.437 . S
C538 Pr536 2.880 . S
C538 C539 1.491 . S
C538 O556 1.254 . S
C538 O557 1.225 . S
C539 C538 1.491 . S
C539 C540 1.392 . S
C539 C544 1.356 . S
C540 C539 1.392 . S
C540 C541 1.368 . S
C540 H568 0.929 . S
C541 C540 1.368 . S
C541 C542 1.386 . S
C541 H569 0.929 . S
C542 C541 1.386 . S
C542 C543 1.373 . S
C543 C542 1.373 . S
C543 C544 1.409 . S
C543 H570 0.931 . S
C544 C539 1.356 . S
C544 C543 1.409 . S
C544 H571 0.930 . S
C545 O558 1.270 . S
C545 O559 1.248 . S
C546 O560 1.267 . S
C546 O561 1.278 . S
C547 Pr537 2.880 . S
C547 C548 1.491 . S
C547 O562 1.254 . S
C547 O563 1.225 . S
C548 C547 1.491 . S
C548 C549 1.392 1_565 S
C548 C553 1.356 . S
C549 C548 1.392 1_545 S
C549 C550 1.368 . S
C549 H572 0.929 . S
C550 C549 1.368 . S
C550 C551 1.386 . S
C550 H573 0.929 . S
C551 C550 1.386 . S
C551 C552 1.373 . S
C552 C551 1.373 . S
C552 C553 1.409 1_545 S
C552 H574 0.931 . S
C553 C548 1.356 . S
C553 C552 1.409 1_565 S
C553 H575 0.930 . S
C554 O564 1.270 . S
C554 O565 1.248 . S
C555 O566 1.267 . S
C555 O567 1.278 . S
O556 Pr536 2.562 . S
O556 C538 1.254 . S
O557 Pr536 2.490 . S
O557 C538 1.225 . S
O558 Pr536 2.695 . S
O558 Pr537 2.436 . S
O558 C545 1.270 . S
O559 Pr536 2.512 . S
O559 C545 1.248 . S
O560 Pr537 2.438 . S
O560 C546 1.267 . S
O561 Pr536 2.437 . S
O561 C546 1.278 . S
O562 Pr537 2.562 . S
O562 C547 1.254 . S
O563 Pr537 2.490 . S
O563 C547 1.225 . S
O564 Pr536 2.436 . S
O564 Pr537 2.695 . S
O564 C554 1.270 . S
O565 Pr537 2.512 . S
O565 C554 1.248 . S
O566 Pr536 2.438 . S
O566 C555 1.267 . S
O567 Pr537 2.437 . S
O567 C555 1.278 . S
H568 C540 0.929 . S
H569 C541 0.929 . S
H570 C543 0.931 . S
H571 C544 0.930 . S
H572 C549 0.929 . S
H573 C550 0.929 . S
H574 C552 0.931 . S
H575 C553 0.930 . S
Pr576 C578 2.880 . S
Pr576 O596 2.562 . S
Pr576 O597 2.490 . S
Pr576 O598 2.695 . S
Pr576 O599 2.512 . S
Pr576 O601 2.437 . S
Pr576 O604 2.436 . S
Pr576 O606 2.438 . S
Pr577 C587 2.880 . S
Pr577 O598 2.436 1_556 S
Pr577 O600 2.438 1_556 S
Pr577 O602 2.562 . S
Pr577 O603 2.490 . S
Pr577 O604 2.695 1_556 S
Pr577 O605 2.512 . S
Pr577 O607 2.437 . S
C578 Pr576 2.880 . S
C578 C579 1.491 . S
C578 O596 1.254 . S
C578 O597 1.225 . S
C579 C578 1.491 . S
C579 C580 1.392 . S
C579 C584 1.356 . S
C580 C579 1.392 . S
C580 C581 1.368 . S
C580 H608 0.929 . S
C581 C580 1.368 . S
C581 C582 1.386 . S
C581 H609 0.929 . S
C582 C581 1.386 . S
C582 C583 1.373 . S
C583 C582 1.373 . S
C583 C584 1.409 . S
C583 H610 0.931 . S
C584 C579 1.356 . S
C584 C583 1.409 . S
C584 H611 0.930 . S
C585 O598 1.270 . S
C585 O599 1.248 . S
C586 O600 1.267 . S
C586 O601 1.278 . S
C587 Pr577 2.880 . S
C587 C588 1.491 . S
C587 O602 1.254 . S
C587 O603 1.225 . S
C588 C587 1.491 . S
C588 C589 1.392 . S
C588 C593 1.356 . S
C589 C588 1.392 . S
C589 C590 1.368 . S
C589 H612 0.929 . S
C590 C589 1.368 . S
C590 C591 1.386 . S
C590 H613 0.929 . S
C591 C590 1.386 . S
C591 C592 1.373 . S
C592 C591 1.373 . S
C592 C593 1.409 . S
C592 H614 0.931 . S
C593 C588 1.356 . S
C593 C592 1.409 . S
C593 H615 0.930 . S
C594 O604 1.270 . S
C594 O605 1.248 1_554 S
C595 O606 1.267 . S
C595 O607 1.278 1_554 S
O596 Pr576 2.562 . S
O596 C578 1.254 . S
O597 Pr576 2.490 . S
O597 C578 1.225 . S
O598 Pr576 2.695 . S
O598 Pr577 2.436 1_554 S
O598 C585 1.270 . S
O599 Pr576 2.512 . S
O599 C585 1.248 . S
O600 Pr577 2.438 1_554 S
O600 C586 1.267 . S
O601 Pr576 2.437 . S
O601 C586 1.278 . S
O602 Pr577 2.562 . S
O602 C587 1.254 . S
O603 Pr577 2.490 . S
O603 C587 1.225 . S
O604 Pr576 2.436 . S
O604 Pr577 2.695 1_554 S
O604 C594 1.270 . S
O605 Pr577 2.512 . S
O605 C594 1.248 1_556 S
O606 Pr576 2.438 . S
O606 C595 1.267 . S
O607 Pr577 2.437 . S
O607 C595 1.278 1_556 S
H608 C580 0.929 . S
H609 C581 0.929 . S
H610 C583 0.931 . S
H611 C584 0.930 . S
H612 C589 0.929 . S
H613 C590 0.929 . S
H614 C592 0.931 . S
H615 C593 0.930 . S
Pr616 C618 2.880 . S
Pr616 O636 2.562 . S
Pr616 O637 2.490 . S
Pr616 O638 2.695 . S
Pr616 O639 2.512 . S
Pr616 O641 2.437 . S
Pr616 O644 2.436 . S
Pr616 O646 2.438 . S
Pr617 C627 2.880 . S
Pr617 O638 2.436 . S
Pr617 O640 2.438 . S
Pr617 O642 2.562 . S
Pr617 O643 2.490 . S
Pr617 O644 2.695 . S
Pr617 O645 2.512 . S
Pr617 O647 2.437 . S
C618 Pr616 2.880 . S
C618 C619 1.491 . S
C618 O636 1.254 . S
C618 O637 1.225 . S
C619 C618 1.491 . S
C619 C620 1.392 . S
C619 C624 1.356 . S
C620 C619 1.392 . S
C620 C621 1.368 . S
C620 H648 0.929 . S
C621 C620 1.368 . S
C621 C622 1.386 . S
C621 H649 0.929 . S
C622 C621 1.386 . S
C622 C623 1.373 . S
C623 C622 1.373 . S
C623 C624 1.409 . S
C623 H650 0.931 . S
C624 C619 1.356 . S
C624 C623 1.409 . S
C624 H651 0.930 . S
C625 O638 1.270 . S
C625 O639 1.248 . S
C626 O640 1.267 . S
C626 O641 1.278 . S
C627 Pr617 2.880 . S
C627 C628 1.491 . S
C627 O642 1.254 . S
C627 O643 1.225 . S
C628 C627 1.491 . S
C628 C629 1.392 . S
C628 C633 1.356 . S
C629 C628 1.392 . S
C629 C630 1.368 . S
C629 H652 0.929 . S
C630 C629 1.368 . S
C630 C631 1.386 . S
C630 H653 0.929 . S
C631 C630 1.386 . S
C631 C632 1.373 . S
C632 C631 1.373 . S
C632 C633 1.409 . S
C632 H654 0.931 . S
C633 C628 1.356 . S
C633 C632 1.409 . S
C633 H655 0.930 . S
C634 O644 1.270 . S
C634 O645 1.248 . S
C635 O646 1.267 . S
C635 O647 1.278 . S
O636 Pr616 2.562 . S
O636 C618 1.254 . S
O637 Pr616 2.490 . S
O637 C618 1.225 . S
O638 Pr616 2.695 . S
O638 Pr617 2.436 . S
O638 C625 1.270 . S
O639 Pr616 2.512 . S
O639 C625 1.248 . S
O640 Pr617 2.438 . S
O640 C626 1.267 . S
O641 Pr616 2.437 . S
O641 C626 1.278 . S
O642 Pr617 2.562 . S
O642 C627 1.254 . S
O643 Pr617 2.490 . S
O643 C627 1.225 . S
O644 Pr616 2.436 . S
O644 Pr617 2.695 . S
O644 C634 1.270 . S
O645 Pr617 2.512 . S
O645 C634 1.248 . S
O646 Pr616 2.438 . S
O646 C635 1.267 . S
O647 Pr617 2.437 . S
O647 C635 1.278 . S
H648 C620 0.929 . S
H649 C621 0.929 . S
H650 C623 0.931 . S
H651 C624 0.930 . S
H652 C629 0.929 . S
H653 C630 0.929 . S
H654 C632 0.931 . S
H655 C633 0.930 . S
Pr656 C658 2.880 . S
Pr656 O676 2.562 . S
Pr656 O677 2.490 . S
Pr656 O678 2.695 1_556 S
Pr656 O679 2.512 . S
Pr656 O681 2.437 . S
Pr656 O684 2.436 1_556 S
Pr656 O686 2.438 1_556 S
Pr657 C667 2.880 . S
Pr657 O678 2.436 . S
Pr657 O680 2.438 . S
Pr657 O682 2.562 . S
Pr657 O683 2.490 . S
Pr657 O684 2.695 . S
Pr657 O685 2.512 . S
Pr657 O687 2.437 . S
C658 Pr656 2.880 . S
C658 C659 1.491 . S
C658 O676 1.254 . S
C658 O677 1.225 . S
C659 C658 1.491 . S
C659 C660 1.392 . S
C659 C664 1.356 . S
C660 C659 1.392 . S
C660 C661 1.368 . S
C660 H688 0.929 . S
C661 C660 1.368 . S
C661 C662 1.386 . S
C661 H689 0.929 . S
C662 C661 1.386 . S
C662 C663 1.373 . S
C663 C662 1.373 . S
C663 C664 1.409 . S
C663 H690 0.931 . S
C664 C659 1.356 . S
C664 C663 1.409 . S
C664 H691 0.930 . S
C665 O678 1.270 . S
C665 O679 1.248 1_554 S
C666 O680 1.267 1_556 S
C666 O681 1.278 . S
C667 Pr657 2.880 . S
C667 C668 1.491 . S
C667 O682 1.254 . S
C667 O683 1.225 . S
C668 C667 1.491 . S
C668 C669 1.392 . S
C668 C673 1.356 . S
C669 C668 1.392 . S
C669 C670 1.368 . S
C669 H692 0.929 . S
C670 C669 1.368 . S
C670 C671 1.386 . S
C670 H693 0.929 . S
C671 C670 1.386 . S
C671 C672 1.373 . S
C672 C671 1.373 . S
C672 C673 1.409 . S
C672 H694 0.931 . S
C673 C668 1.356 . S
C673 C672 1.409 . S
C673 H695 0.930 . S
C674 O684 1.270 . S
C674 O685 1.248 . S
C675 O686 1.267 . S
C675 O687 1.278 . S
O676 Pr656 2.562 . S
O676 C658 1.254 . S
O677 Pr656 2.490 . S
O677 C658 1.225 . S
O678 Pr656 2.695 1_554 S
O678 Pr657 2.436 . S
O678 C665 1.270 . S
O679 Pr656 2.512 . S
O679 C665 1.248 1_556 S
O680 Pr657 2.438 . S
O680 C666 1.267 1_554 S
O681 Pr656 2.437 . S
O681 C666 1.278 . S
O682 Pr657 2.562 . S
O682 C667 1.254 . S
O683 Pr657 2.490 . S
O683 C667 1.225 . S
O684 Pr656 2.436 1_554 S
O684 Pr657 2.695 . S
O684 C674 1.270 . S
O685 Pr657 2.512 . S
O685 C674 1.248 . S
O686 Pr656 2.438 1_554 S
O686 C675 1.267 . S
O687 Pr657 2.437 . S
O687 C675 1.278 . S
H688 C660 0.929 . S
H689 C661 0.929 . S
H690 C663 0.931 . S
H691 C664 0.930 . S
H692 C669 0.929 . S
H693 C670 0.929 . S
H694 C672 0.931 . S
H695 C673 0.930 . S
Pr696 C698 2.880 . S
Pr696 O716 2.562 . S
Pr696 O717 2.490 . S
Pr696 O718 2.695 . S
Pr696 O719 2.512 . S
Pr696 O721 2.437 . S
Pr696 O724 2.436 . S
Pr696 O726 2.438 . S
Pr697 C707 2.880 . S
Pr697 O718 2.436 . S
Pr697 O720 2.438 . S
Pr697 O722 2.562 . S
Pr697 O723 2.490 . S
Pr697 O724 2.695 . S
Pr697 O725 2.512 . S
Pr697 O727 2.437 . S
C698 Pr696 2.880 . S
C698 C699 1.491 . S
C698 O716 1.254 . S
C698 O717 1.225 . S
C699 C698 1.491 . S
C699 C700 1.392 . S
C699 C704 1.356 . S
C700 C699 1.392 . S
C700 C701 1.368 . S
C700 H728 0.929 . S
C701 C700 1.368 . S
C701 C702 1.386 . S
C701 H729 0.929 . S
C702 C701 1.386 . S
C702 C703 1.373 . S
C703 C702 1.373 . S
C703 C704 1.409 . S
C703 H730 0.931 . S
C704 C699 1.356 . S
C704 C703 1.409 . S
C704 H731 0.930 . S
C705 O718 1.270 . S
C705 O719 1.248 . S
C706 O720 1.267 . S
C706 O721 1.278 . S
C707 Pr697 2.880 . S
C707 C708 1.491 . S
C707 O722 1.254 . S
C707 O723 1.225 . S
C708 C707 1.491 . S
C708 C709 1.392 . S
C708 C713 1.356 . S
C709 C708 1.392 . S
C709 C710 1.368 . S
C709 H732 0.929 . S
C710 C709 1.368 . S
C710 C711 1.386 . S
C710 H733 0.929 . S
C711 C710 1.386 . S
C711 C712 1.373 . S
C712 C711 1.373 . S
C712 C713 1.409 . S
C712 H734 0.931 . S
C713 C708 1.356 . S
C713 C712 1.409 . S
C713 H735 0.930 . S
C714 O724 1.270 . S
C714 O725 1.248 . S
C715 O726 1.267 . S
C715 O727 1.278 . S
O716 Pr696 2.562 . S
O716 C698 1.254 . S
O717 Pr696 2.490 . S
O717 C698 1.225 . S
O718 Pr696 2.695 . S
O718 Pr697 2.436 . S
O718 C705 1.270 . S
O719 Pr696 2.512 . S
O719 C705 1.248 . S
O720 Pr697 2.438 . S
O720 C706 1.267 . S
O721 Pr696 2.437 . S
O721 C706 1.278 . S
O722 Pr697 2.562 . S
O722 C707 1.254 . S
O723 Pr697 2.490 . S
O723 C707 1.225 . S
O724 Pr696 2.436 . S
O724 Pr697 2.695 . S
O724 C714 1.270 . S
O725 Pr697 2.512 . S
O725 C714 1.248 . S
O726 Pr696 2.438 . S
O726 C715 1.267 . S
O727 Pr697 2.437 . S
O727 C715 1.278 . S
H728 C700 0.929 . S
H729 C701 0.929 . S
H730 C703 0.931 . S
H731 C704 0.930 . S
H732 C709 0.929 . S
H733 C710 0.929 . S
H734 C712 0.931 . S
H735 C713 0.930 . S
Pr736 C738 2.880 . S
Pr736 O756 2.562 . S
Pr736 O757 2.490 . S
Pr736 O758 2.695 . S
Pr736 O759 2.512 . S
Pr736 O761 2.437 . S
Pr736 O764 2.436 . S
Pr736 O766 2.438 . S
Pr737 C747 2.880 . S
Pr737 O758 2.436 . S
Pr737 O760 2.438 . S
Pr737 O762 2.562 . S
Pr737 O763 2.490 . S
Pr737 O764 2.695 . S
Pr737 O765 2.512 . S
Pr737 O767 2.437 . S
C738 Pr736 2.880 . S
C738 C739 1.491 . S
C738 O756 1.254 . S
C738 O757 1.225 . S
C739 C738 1.491 . S
C739 C740 1.392 . S
C739 C744 1.356 . S
C740 C739 1.392 . S
C740 C741 1.368 . S
C740 H768 0.929 . S
C741 C740 1.368 . S
C741 C742 1.386 . S
C741 H769 0.929 . S
C742 C741 1.386 . S
C742 C743 1.373 . S
C743 C742 1.373 . S
C743 C744 1.409 . S
C743 H770 0.931 . S
C744 C739 1.356 . S
C744 C743 1.409 . S
C744 H771 0.930 . S
C745 O758 1.270 . S
C745 O759 1.248 . S
C746 O760 1.267 . S
C746 O761 1.278 . S
C747 Pr737 2.880 . S
C747 C748 1.491 . S
C747 O762 1.254 . S
C747 O763 1.225 . S
C748 C747 1.491 . S
C748 C749 1.392 . S
C748 C753 1.356 . S
C749 C748 1.392 . S
C749 C750 1.368 . S
C749 H772 0.929 . S
C750 C749 1.368 . S
C750 C751 1.386 . S
C750 H773 0.929 . S
C751 C750 1.386 . S
C751 C752 1.373 . S
C752 C751 1.373 . S
C752 C753 1.409 . S
C752 H774 0.931 . S
C753 C748 1.356 . S
C753 C752 1.409 . S
C753 H775 0.930 . S
C754 O764 1.270 . S
C754 O765 1.248 . S
C755 O766 1.267 . S
C755 O767 1.278 . S
O756 Pr736 2.562 . S
O756 C738 1.254 . S
O757 Pr736 2.490 . S
O757 C738 1.225 . S
O758 Pr736 2.695 . S
O758 Pr737 2.436 . S
O758 C745 1.270 . S
O759 Pr736 2.512 . S
O759 C745 1.248 . S
O760 Pr737 2.438 . S
O760 C746 1.267 . S
O761 Pr736 2.437 . S
O761 C746 1.278 . S
O762 Pr737 2.562 . S
O762 C747 1.254 . S
O763 Pr737 2.490 . S
O763 C747 1.225 . S
O764 Pr736 2.436 . S
O764 Pr737 2.695 . S
O764 C754 1.270 . S
O765 Pr737 2.512 . S
O765 C754 1.248 . S
O766 Pr736 2.438 . S
O766 C755 1.267 . S
O767 Pr737 2.437 . S
O767 C755 1.278 . S
H768 C740 0.929 . S
H769 C741 0.929 . S
H770 C743 0.931 . S
H771 C744 0.930 . S
H772 C749 0.929 . S
H773 C750 0.929 . S
H774 C752 0.931 . S
H775 C753 0.930 . S
Pr776 C778 2.880 . S
Pr776 O796 2.562 . S
Pr776 O797 2.490 . S
Pr776 O798 2.695 . S
Pr776 O799 2.512 . S
Pr776 O801 2.437 . S
Pr776 O804 2.436 . S
Pr776 O806 2.438 . S
Pr777 C787 2.880 . S
Pr777 O798 2.436 . S
Pr777 O800 2.438 . S
Pr777 O802 2.562 . S
Pr777 O803 2.490 . S
Pr777 O804 2.695 . S
Pr777 O805 2.512 . S
Pr777 O807 2.437 . S
C778 Pr776 2.880 . S
C778 C779 1.491 . S
C778 O796 1.254 . S
C778 O797 1.225 . S
C779 C778 1.491 . S
C779 C780 1.392 . S
C779 C784 1.356 . S
C780 C779 1.392 . S
C780 C781 1.368 . S
C780 H808 0.929 . S
C781 C780 1.368 . S
C781 C782 1.386 . S
C781 H809 0.929 . S
C782 C781 1.386 . S
C782 C783 1.373 . S
C783 C782 1.373 . S
C783 C784 1.409 . S
C783 H810 0.931 . S
C784 C779 1.356 . S
C784 C783 1.409 . S
C784 H811 0.930 . S
C785 O798 1.270 . S
C785 O799 1.248 . S
C786 O800 1.267 . S
C786 O801 1.278 . S
C787 Pr777 2.880 . S
C787 C788 1.491 . S
C787 O802 1.254 . S
C787 O803 1.225 . S
C788 C787 1.491 . S
C788 C789 1.392 . S
C788 C793 1.356 . S
C789 C788 1.392 . S
C789 C790 1.368 . S
C789 H812 0.929 . S
C790 C789 1.368 . S
C790 C791 1.386 . S
C790 H813 0.929 . S
C791 C790 1.386 . S
C791 C792 1.373 . S
C792 C791 1.373 . S
C792 C793 1.409 . S
C792 H814 0.931 . S
C793 C788 1.356 . S
C793 C792 1.409 . S
C793 H815 0.930 . S
C794 O804 1.270 . S
C794 O805 1.248 . S
C795 O806 1.267 . S
C795 O807 1.278 . S
O796 Pr776 2.562 . S
O796 C778 1.254 . S
O797 Pr776 2.490 . S
O797 C778 1.225 . S
O798 Pr776 2.695 . S
O798 Pr777 2.436 . S
O798 C785 1.270 . S
O799 Pr776 2.512 . S
O799 C785 1.248 . S
O800 Pr777 2.438 . S
O800 C786 1.267 . S
O801 Pr776 2.437 . S
O801 C786 1.278 . S
O802 Pr777 2.562 . S
O802 C787 1.254 . S
O803 Pr777 2.490 . S
O803 C787 1.225 . S
O804 Pr776 2.436 . S
O804 Pr777 2.695 . S
O804 C794 1.270 . S
O805 Pr777 2.512 . S
O805 C794 1.248 . S
O806 Pr776 2.438 . S
O806 C795 1.267 . S
O807 Pr777 2.437 . S
O807 C795 1.278 . S
H808 C780 0.929 . S
H809 C781 0.929 . S
H810 C783 0.931 . S
H811 C784 0.930 . S
H812 C789 0.929 . S
H813 C790 0.929 . S
H814 C792 0.931 . S
H815 C793 0.930 . S
Pr816 C818 2.880 . S
Pr816 O836 2.562 . S
Pr816 O837 2.490 . S
Pr816 O838 2.695 . S
Pr816 O839 2.512 . S
Pr816 O841 2.437 . S
Pr816 O844 2.436 . S
Pr816 O846 2.438 . S
Pr817 C827 2.880 . S
Pr817 O838 2.436 . S
Pr817 O840 2.438 . S
Pr817 O842 2.562 . S
Pr817 O843 2.490 . S
Pr817 O844 2.695 . S
Pr817 O845 2.512 . S
Pr817 O847 2.437 . S
C818 Pr816 2.880 . S
C818 C819 1.491 . S
C818 O836 1.254 . S
C818 O837 1.225 . S
C819 C818 1.491 . S
C819 C820 1.392 . S
C819 C824 1.356 . S
C820 C819 1.392 . S
C820 C821 1.368 . S
C820 H848 0.929 . S
C821 C820 1.368 . S
C821 C822 1.386 . S
C821 H849 0.929 . S
C822 C821 1.386 . S
C822 C823 1.373 . S
C823 C822 1.373 . S
C823 C824 1.409 . S
C823 H850 0.931 . S
C824 C819 1.356 . S
C824 C823 1.409 . S
C824 H851 0.930 . S
C825 O838 1.270 . S
C825 O839 1.248 . S
C826 O840 1.267 . S
C826 O841 1.278 . S
C827 Pr817 2.880 . S
C827 C828 1.491 . S
C827 O842 1.254 . S
C827 O843 1.225 . S
C828 C827 1.491 . S
C828 C829 1.392 . S
C828 C833 1.356 . S
C829 C828 1.392 . S
C829 C830 1.368 . S
C829 H852 0.929 . S
C830 C829 1.368 . S
C830 C831 1.386 . S
C830 H853 0.929 . S
C831 C830 1.386 . S
C831 C832 1.373 . S
C832 C831 1.373 . S
C832 C833 1.409 . S
C832 H854 0.931 . S
C833 C828 1.356 . S
C833 C832 1.409 . S
C833 H855 0.930 . S
C834 O844 1.270 . S
C834 O845 1.248 . S
C835 O846 1.267 . S
C835 O847 1.278 . S
O836 Pr816 2.562 . S
O836 C818 1.254 . S
O837 Pr816 2.490 . S
O837 C818 1.225 . S
O838 Pr816 2.695 . S
O838 Pr817 2.436 . S
O838 C825 1.270 . S
O839 Pr816 2.512 . S
O839 C825 1.248 . S
O840 Pr817 2.438 . S
O840 C826 1.267 . S
O841 Pr816 2.437 . S
O841 C826 1.278 . S
O842 Pr817 2.562 . S
O842 C827 1.254 . S
O843 Pr817 2.490 . S
O843 C827 1.225 . S
O844 Pr816 2.436 . S
O844 Pr817 2.695 . S
O844 C834 1.270 . S
O845 Pr817 2.512 . S
O845 C834 1.248 . S
O846 Pr816 2.438 . S
O846 C835 1.267 . S
O847 Pr817 2.437 . S
O847 C835 1.278 . S
H848 C820 0.929 . S
H849 C821 0.929 . S
H850 C823 0.931 . S
H851 C824 0.930 . S
H852 C829 0.929 . S
H853 C830 0.929 . S
H854 C832 0.931 . S
H855 C833 0.930 . S
Pr856 C858 2.880 . S
Pr856 O876 2.562 . S
Pr856 O877 2.490 . S
Pr856 O878 2.695 . S
Pr856 O879 2.512 . S
Pr856 O881 2.437 . S
Pr856 O884 2.436 . S
Pr856 O886 2.438 . S
Pr857 C867 2.880 . S
Pr857 O878 2.436 . S
Pr857 O880 2.438 . S
Pr857 O882 2.562 . S
Pr857 O883 2.490 . S
Pr857 O884 2.695 . S
Pr857 O885 2.512 . S
Pr857 O887 2.437 . S
C858 Pr856 2.880 . S
C858 C859 1.491 . S
C858 O876 1.254 . S
C858 O877 1.225 . S
C859 C858 1.491 . S
C859 C860 1.392 . S
C859 C864 1.356 . S
C860 C859 1.392 . S
C860 C861 1.368 . S
C860 H888 0.929 . S
C861 C860 1.368 . S
C861 C862 1.386 . S
C861 H889 0.929 . S
C862 C861 1.386 . S
C862 C863 1.373 . S
C863 C862 1.373 . S
C863 C864 1.409 . S
C863 H890 0.931 . S
C864 C859 1.356 . S
C864 C863 1.409 . S
C864 H891 0.930 . S
C865 O878 1.270 . S
C865 O879 1.248 . S
C866 O880 1.267 . S
C866 O881 1.278 . S
C867 Pr857 2.880 . S
C867 C868 1.491 . S
C867 O882 1.254 . S
C867 O883 1.225 . S
C868 C867 1.491 . S
C868 C869 1.392 . S
C868 C873 1.356 . S
C869 C868 1.392 . S
C869 C870 1.368 . S
C869 H892 0.929 . S
C870 C869 1.368 . S
C870 C871 1.386 . S
C870 H893 0.929 . S
C871 C870 1.386 . S
C871 C872 1.373 . S
C872 C871 1.373 . S
C872 C873 1.409 . S
C872 H894 0.931 . S
C873 C868 1.356 . S
C873 C872 1.409 . S
C873 H895 0.930 . S
C874 O884 1.270 . S
C874 O885 1.248 . S
C875 O886 1.267 . S
C875 O887 1.278 . S
O876 Pr856 2.562 . S
O876 C858 1.254 . S
O877 Pr856 2.490 . S
O877 C858 1.225 . S
O878 Pr856 2.695 . S
O878 Pr857 2.436 . S
O878 C865 1.270 . S
O879 Pr856 2.512 . S
O879 C865 1.248 . S
O880 Pr857 2.438 . S
O880 C866 1.267 . S
O881 Pr856 2.437 . S
O881 C866 1.278 . S
O882 Pr857 2.562 . S
O882 C867 1.254 . S
O883 Pr857 2.490 . S
O883 C867 1.225 . S
O884 Pr856 2.436 . S
O884 Pr857 2.695 . S
O884 C874 1.270 . S
O885 Pr857 2.512 . S
O885 C874 1.248 . S
O886 Pr856 2.438 . S
O886 C875 1.267 . S
O887 Pr857 2.437 . S
O887 C875 1.278 . S
H888 C860 0.929 . S
H889 C861 0.929 . S
H890 C863 0.931 . S
H891 C864 0.930 . S
H892 C869 0.929 . S
H893 C870 0.929 . S
H894 C872 0.931 . S
H895 C873 0.930 . S
Pr896 C898 2.880 . S
Pr896 O916 2.562 . S
Pr896 O917 2.490 . S
Pr896 O918 2.695 . S
Pr896 O919 2.512 . S
Pr896 O921 2.437 . S
Pr896 O924 2.436 . S
Pr896 O926 2.438 . S
Pr897 C907 2.880 . S
Pr897 O918 2.436 . S
Pr897 O920 2.438 . S
Pr897 O922 2.562 . S
Pr897 O923 2.490 . S
Pr897 O924 2.695 . S
Pr897 O925 2.512 . S
Pr897 O927 2.437 . S
C898 Pr896 2.880 . S
C898 C899 1.491 . S
C898 O916 1.254 . S
C898 O917 1.225 . S
C899 C898 1.491 . S
C899 C900 1.392 . S
C899 C904 1.356 . S
C900 C899 1.392 . S
C900 C901 1.368 . S
C900 H928 0.929 . S
C901 C900 1.368 . S
C901 C902 1.386 . S
C901 H929 0.929 . S
C902 C901 1.386 . S
C902 C903 1.373 . S
C903 C902 1.373 . S
C903 C904 1.409 . S
C903 H930 0.931 . S
C904 C899 1.356 . S
C904 C903 1.409 . S
C904 H931 0.930 . S
C905 O918 1.270 . S
C905 O919 1.248 . S
C906 O920 1.267 . S
C906 O921 1.278 . S
C907 Pr897 2.880 . S
C907 C908 1.491 . S
C907 O922 1.254 . S
C907 O923 1.225 . S
C908 C907 1.491 . S
C908 C909 1.392 . S
C908 C913 1.356 . S
C909 C908 1.392 . S
C909 C910 1.368 . S
C909 H932 0.929 . S
C910 C909 1.368 . S
C910 C911 1.386 . S
C910 H933 0.929 . S
C911 C910 1.386 . S
C911 C912 1.373 . S
C912 C911 1.373 . S
C912 C913 1.409 . S
C912 H934 0.931 . S
C913 C908 1.356 . S
C913 C912 1.409 . S
C913 H935 0.930 . S
C914 O924 1.270 . S
C914 O925 1.248 . S
C915 O926 1.267 . S
C915 O927 1.278 . S
O916 Pr896 2.562 . S
O916 C898 1.254 . S
O917 Pr896 2.490 . S
O917 C898 1.225 . S
O918 Pr896 2.695 . S
O918 Pr897 2.436 . S
O918 C905 1.270 . S
O919 Pr896 2.512 . S
O919 C905 1.248 . S
O920 Pr897 2.438 . S
O920 C906 1.267 . S
O921 Pr896 2.437 . S
O921 C906 1.278 . S
O922 Pr897 2.562 . S
O922 C907 1.254 . S
O923 Pr897 2.490 . S
O923 C907 1.225 . S
O924 Pr896 2.436 . S
O924 Pr897 2.695 . S
O924 C914 1.270 . S
O925 Pr897 2.512 . S
O925 C914 1.248 . S
O926 Pr896 2.438 . S
O926 C915 1.267 . S
O927 Pr897 2.437 . S
O927 C915 1.278 . S
H928 C900 0.929 . S
H929 C901 0.929 . S
H930 C903 0.931 . S
H931 C904 0.930 . S
H932 C909 0.929 . S
H933 C910 0.929 . S
H934 C912 0.931 . S
H935 C913 0.930 . S
Pr936 C938 2.880 . S
Pr936 O956 2.562 . S
Pr936 O957 2.490 1_554 S
Pr936 O958 2.695 1_554 S
Pr936 O959 2.512 1_554 S
Pr936 O961 2.437 1_554 S
Pr936 O964 2.436 . S
Pr936 O966 2.438 . S
Pr937 C947 2.880 1_455 S
Pr937 O958 2.436 1_554 S
Pr937 O960 2.438 1_554 S
Pr937 O962 2.562 1_455 S
Pr937 O963 2.490 1_455 S
Pr937 O964 2.695 . S
Pr937 O965 2.512 . S
Pr937 O967 2.437 . S
C938 Pr936 2.880 . S
C938 C939 1.491 1_554 S
C938 O956 1.254 . S
C938 O957 1.225 1_554 S
C939 C938 1.491 1_556 S
C939 C940 1.392 . S
C939 C944 1.356 1_556 S
C940 C939 1.392 . S
C940 C941 1.368 . S
C940 H968 0.929 . S
C941 C940 1.368 . S
C941 C942 1.386 . S
C941 H969 0.929 . S
C942 C941 1.386 . S
C942 C943 1.373 . S
C943 C942 1.373 . S
C943 C944 1.409 1_556 S
C943 H970 0.931 1_556 S
C944 C939 1.356 1_554 S
C944 C943 1.409 1_554 S
C944 H971 0.930 . S
C945 O958 1.270 . S
C945 O959 1.248 . S
C946 O960 1.267 . S
C946 O961 1.278 . S
C947 Pr937 2.880 1_655 S
C947 C948 1.491 . S
C947 O962 1.254 . S
C947 O963 1.225 . S
C948 C947 1.491 . S
C948 C949 1.392 . S
C948 C953 1.356 . S
C949 C948 1.392 . S
C949 C950 1.368 . S
C949 H972 0.929 . S
C950 C949 1.368 . S
C950 C951 1.386 . S
C950 H973 0.929 . S
C951 C950 1.386 . S
C951 C952 1.373 . S
C952 C951 1.373 . S
C952 C953 1.409 . S
C952 H974 0.931 . S
C953 C948 1.356 . S
C953 C952 1.409 . S
C953 H975 0.930 . S
C954 O964 1.270 . S
C954 O965 1.248 . S
C955 O966 1.267 . S
C955 O967 1.278 . S
O956 Pr936 2.562 . S
O956 C938 1.254 . S
O957 Pr936 2.490 1_556 S
O957 C938 1.225 1_556 S
O958 Pr936 2.695 1_556 S
O958 Pr937 2.436 1_556 S
O958 C945 1.270 . S
O959 Pr936 2.512 1_556 S
O959 C945 1.248 . S
O960 Pr937 2.438 1_556 S
O960 C946 1.267 . S
O961 Pr936 2.437 1_556 S
O961 C946 1.278 . S
O962 Pr937 2.562 1_655 S
O962 C947 1.254 . S
O963 Pr937 2.490 1_655 S
O963 C947 1.225 . S
O964 Pr936 2.436 . S
O964 Pr937 2.695 . S
O964 C954 1.270 . S
O965 Pr937 2.512 . S
O965 C954 1.248 . S
O966 Pr936 2.438 . S
O966 C955 1.267 . S
O967 Pr937 2.437 . S
O967 C955 1.278 . S
H968 C940 0.929 . S
H969 C941 0.929 . S
H970 C943 0.931 1_554 S
H971 C944 0.930 . S
H972 C949 0.929 . S
H973 C950 0.929 . S
H974 C952 0.931 . S
H975 C953 0.930 . S
C976 C977 1.387 . S
C976 H980 0.950 1_455 S
C976 C985 1.390 1_556 S
C977 C976 1.387 . S
C977 C979 1.387 . S
H978 C985 0.950 . S
C979 C977 1.387 . S
C979 C981 1.390 . S
C979 H983 0.950 . S
H980 C976 0.950 1_655 S
C981 C979 1.390 . S
C981 C982 1.387 1_556 S
C981 H984 0.950 . S
C982 C981 1.387 1_554 S
C982 C985 1.387 . S
H983 C979 0.950 . S
H984 C981 0.950 . S
C985 C976 1.390 1_554 S
C985 H978 0.950 . S
C985 C982 1.387 . S
C986 C987 1.387 . S
C986 H990 0.950 . S
C986 C995 1.390 . S
C987 C986 1.387 . S
C987 C989 1.387 . S
H988 C995 0.950 . S
C989 C987 1.387 . S
C989 C991 1.390 . S
C989 H993 0.950 . S
H990 C986 0.950 . S
C991 C989 1.390 . S
C991 C992 1.387 . S
C991 H994 0.950 . S
C992 C991 1.387 . S
C992 C995 1.387 . S
H993 C989 0.950 . S
H994 C991 0.950 . S
C995 C986 1.390 . S
C995 H988 0.950 . S
C995 C992 1.387 . S
C996 C997 1.387 . S
C996 H1000 0.950 . S
C996 C1005 1.390 . S
C997 C996 1.387 . S
C997 C999 1.387 . S
H998 C1005 0.950 . S
C999 C997 1.387 . S
C999 C1001 1.390 . S
C999 H1003 0.950 . S
H1000 C996 0.950 . S
C1001 C999 1.390 . S
C1001 C1002 1.390 . S
C1001 H1004 0.950 . S
C1002 C1001 1.390 . S
C1002 C1005 1.394 . S
H1003 C999 0.950 . S
H1004 C1001 0.950 . S
C1005 C996 1.390 . S
C1005 H998 0.950 . S
C1005 C1002 1.394 . S
C1006 C1007 1.387 . S
C1006 H1010 0.950 . S
C1006 C1015 1.390 . S
C1007 C1006 1.387 . S
C1007 C1009 1.387 . S
H1008 C1015 0.950 . S
C1009 C1007 1.387 . S
C1009 C1011 1.390 . S
C1009 H1013 0.950 . S
H1010 C1006 0.950 . S
C1011 C1009 1.390 . S
C1011 C1012 1.387 . S
C1011 H1014 0.950 . S
C1012 C1011 1.387 . S
C1012 C1015 1.387 . S
H1013 C1009 0.950 . S
H1014 C1011 0.950 . S
C1015 C1006 1.390 . S
C1015 H1008 0.950 . S
C1015 C1012 1.387 . S
C1016 C1017 1.387 . S
C1016 H1020 0.950 . S
C1016 C1025 1.390 1_565 S
C1017 C1016 1.387 . S
C1017 C1019 1.387 . S
H1018 C1025 0.950 . S
C1019 C1017 1.387 . S
C1019 C1021 1.390 . S
C1019 H1023 0.950 . S
H1020 C1016 0.950 . S
C1021 C1019 1.390 . S
C1021 C1022 1.387 1_565 S
C1021 H1024 0.950 . S
C1022 C1021 1.387 1_545 S
C1022 C1025 1.387 . S
H1023 C1019 0.950 . S
H1024 C1021 0.950 . S
C1025 C1016 1.390 1_545 S
C1025 H1018 0.950 . S
C1025 C1022 1.387 . S
C1026 C1027 1.387 . S
C1026 H1030 0.950 . S
C1026 C1035 1.390 . S
C1027 C1026 1.387 . S
C1027 C1029 1.387 . S
H1028 C1035 0.950 . S
C1029 C1027 1.387 . S
C1029 C1031 1.390 . S
C1029 H1033 0.950 . S
H1030 C1026 0.950 . S
C1031 C1029 1.390 . S
C1031 C1032 1.387 . S
C1031 H1034 0.950 . S
C1032 C1031 1.387 . S
C1032 C1035 1.387 . S
H1033 C1029 0.950 . S
H1034 C1031 0.950 . S
C1035 C1026 1.390 . S
C1035 H1028 0.950 . S
C1035 C1032 1.387 . S
C1036 C1037 1.387 . S
C1036 H1040 0.950 . S
C1036 C1045 1.390 . S
C1037 C1036 1.387 . S
C1037 C1039 1.387 . S
H1038 C1045 0.950 . S
C1039 C1037 1.387 . S
C1039 C1041 1.390 . S
C1039 H1043 0.950 . S
H1040 C1036 0.950 . S
C1041 C1039 1.390 . S
C1041 C1042 1.387 . S
C1041 H1044 0.950 . S
C1042 C1041 1.387 . S
C1042 C1045 1.387 . S
H1043 C1039 0.950 . S
H1044 C1041 0.950 . S
C1045 C1036 1.390 . S
C1045 H1038 0.950 . S
C1045 C1042 1.387 . S
C1046 C1047 1.387 . S
C1046 H1050 0.950 . S
C1046 C1055 1.390 . S
C1047 C1046 1.387 . S
C1047 C1049 1.387 . S
H1048 C1055 0.950 . S
C1049 C1047 1.387 . S
C1049 C1051 1.390 . S
C1049 H1053 0.950 . S
H1050 C1046 0.950 . S
C1051 C1049 1.390 . S
C1051 C1052 1.387 . S
C1051 H1054 0.950 . S
C1052 C1051 1.387 . S
C1052 C1055 1.387 . S
H1053 C1049 0.950 . S
H1054 C1051 0.950 . S
C1055 C1046 1.390 . S
C1055 H1048 0.950 . S
C1055 C1052 1.387 . S
C1056 C1057 1.387 . S
C1056 H1060 0.950 . S
C1056 C1065 1.390 . S
C1057 C1056 1.387 . S
C1057 C1059 1.387 . S
H1058 C1065 0.950 . S
C1059 C1057 1.387 . S
C1059 C1061 1.390 1_655 S
C1059 H1063 0.950 . S
H1060 C1056 0.950 . S
C1061 C1059 1.390 1_455 S
C1061 C1062 1.387 . S
C1061 H1064 0.950 . S
C1062 C1061 1.387 . S
C1062 C1065 1.387 1_455 S
H1063 C1059 0.950 . S
H1064 C1061 0.950 . S
C1065 C1056 1.390 . S
C1065 H1058 0.950 . S
C1065 C1062 1.387 1_655 S
C1066 C1067 1.387 . S
C1066 H1070 0.950 . S
C1066 C1075 1.390 . S
C1067 C1066 1.387 . S
C1067 C1069 1.387 . S
H1068 C1075 0.950 . S
C1069 C1067 1.387 . S
C1069 C1071 1.390 . S
C1069 H1073 0.950 . S
H1070 C1066 0.950 . S
C1071 C1069 1.390 . S
C1071 C1072 1.387 . S
C1071 H1074 0.950 . S
C1072 C1071 1.387 . S
C1072 C1075 1.387 . S
H1073 C1069 0.950 . S
H1074 C1071 0.950 . S
C1075 C1066 1.390 . S
C1075 H1068 0.950 . S
C1075 C1072 1.387 . S
C1076 C1077 1.387 . S
C1076 H1080 0.950 1_545 S
C1076 C1085 1.390 . S
C1077 C1076 1.387 . S
C1077 C1079 1.387 . S
H1078 C1085 0.950 . S
C1079 C1077 1.387 . S
C1079 C1081 1.390 . S
C1079 H1083 0.950 . S
H1080 C1076 0.950 1_565 S
C1081 C1079 1.390 . S
C1081 C1082 1.387 . S
C1081 H1084 0.950 . S
C1082 C1081 1.387 . S
C1082 C1085 1.387 . S
H1083 C1079 0.950 . S
H1084 C1081 0.950 . S
C1085 C1076 1.390 . S
C1085 H1078 0.950 . S
C1085 C1082 1.387 . S
C1086 C1087 1.387 . S
C1086 H1090 0.950 . S
C1086 C1095 1.390 . S
C1087 C1086 1.387 . S
C1087 C1089 1.387 . S
H1088 C1095 0.950 . S
C1089 C1087 1.387 . S
C1089 C1091 1.390 . S
C1089 H1093 0.950 . S
H1090 C1086 0.950 . S
C1091 C1089 1.390 . S
C1091 C1092 1.387 . S
C1091 H1094 0.950 . S
C1092 C1091 1.387 . S
C1092 C1095 1.387 . S
H1093 C1089 0.950 . S
H1094 C1091 0.950 . S
C1095 C1086 1.390 . S
C1095 H1088 0.950 . S
C1095 C1092 1.387 . S
C1096 C1097 1.387 . S
C1096 H1100 0.950 . S
C1096 C1105 1.390 . S
C1097 C1096 1.387 . S
C1097 C1099 1.387 . S
H1098 C1105 0.950 . S
C1099 C1097 1.387 . S
C1099 C1101 1.390 . S
C1099 H1103 0.950 . S
H1100 C1096 0.950 . S
C1101 C1099 1.390 . S
C1101 C1102 1.387 . S
C1101 H1104 0.950 1_655 S
C1102 C1101 1.387 . S
C1102 C1105 1.387 . S
H1103 C1099 0.950 . S
H1104 C1101 0.950 1_455 S
C1105 C1096 1.390 . S
C1105 H1098 0.950 . S
C1105 C1102 1.387 . S
C1106 C1107 1.387 . S
C1106 H1110 0.950 . S
C1106 C1115 1.390 . S
C1107 C1106 1.387 . S
C1107 C1109 1.387 . S
H1108 C1115 0.950 . S
C1109 C1107 1.387 . S
C1109 C1111 1.390 . S
C1109 H1113 0.950 . S
H1110 C1106 0.950 . S
C1111 C1109 1.390 . S
C1111 C1112 1.387 . S
C1111 H1114 0.950 . S
C1112 C1111 1.387 . S
C1112 C1115 1.387 . S
H1113 C1109 0.950 . S
H1114 C1111 0.950 . S
C1115 C1106 1.390 . S
C1115 H1108 0.950 . S
C1115 C1112 1.387 . S
C1116 C1117 1.387 . S
C1116 H1120 0.950 . S
C1116 C1125 1.390 . S
C1117 C1116 1.387 . S
C1117 C1119 1.387 . S
H1118 C1125 0.950 . S
C1119 C1117 1.387 . S
C1119 C1121 1.390 . S
C1119 H1123 0.950 . S
H1120 C1116 0.950 . S
C1121 C1119 1.390 . S
C1121 C1122 1.387 . S
C1121 H1124 0.950 . S
C1122 C1121 1.387 . S
C1122 C1125 1.387 . S
H1123 C1119 0.950 . S
H1124 C1121 0.950 . S
C1125 C1116 1.390 . S
C1125 H1118 0.950 . S
C1125 C1122 1.387 . S
C1126 C1127 1.387 . S
C1126 H1130 0.950 . S
C1126 C1135 1.390 . S
C1127 C1126 1.387 . S
C1127 C1129 1.387 . S
H1128 C1135 0.950 . S
C1129 C1127 1.387 . S
C1129 C1131 1.390 . S
C1129 H1133 0.950 . S
H1130 C1126 0.950 . S
C1131 C1129 1.390 . S
C1131 C1132 1.387 . S
C1131 H1134 0.950 . S
C1132 C1131 1.387 . S
C1132 C1135 1.387 . S
H1133 C1129 0.950 . S
H1134 C1131 0.950 . S
C1135 C1126 1.390 . S
C1135 H1128 0.950 . S
C1135 C1132 1.387 . S
C1136 C1137 1.380 1_565 S
C1136 H1140 0.968 . S
C1136 C1145 1.380 1_565 S
C1137 C1136 1.380 1_545 S
C1137 C1139 1.387 . S
H1138 C1145 0.950 1_565 S
C1139 C1137 1.387 . S
C1139 C1141 1.390 . S
C1139 H1143 0.950 . S
H1140 C1136 0.968 . S
C1141 C1139 1.390 . S
C1141 C1142 1.387 . S
C1141 H1144 0.950 . S
C1142 C1141 1.387 . S
C1142 C1145 1.387 . S
H1143 C1139 0.950 . S
H1144 C1141 0.950 . S
C1145 C1136 1.380 1_545 S
C1145 H1138 0.950 1_545 S
C1145 C1142 1.387 . S
C1146 C1147 1.387 . S
C1146 H1150 0.950 . S
C1146 C1155 1.390 . S
C1147 C1146 1.387 . S
C1147 C1149 1.387 1_554 S
H1148 C1155 0.950 . S
C1149 C1147 1.387 1_556 S
C1149 C1151 1.390 . S
C1149 H1153 0.950 . S
H1150 C1146 0.950 . S
C1151 C1149 1.390 . S
C1151 C1152 1.387 1_556 S
C1151 H1154 0.950 . S
C1152 C1151 1.387 1_554 S
C1152 C1155 1.387 . S
H1153 C1149 0.950 . S
H1154 C1151 0.950 . S
C1155 C1146 1.390 . S
C1155 H1148 0.950 . S
C1155 C1152 1.387 . S
C1156 C1157 1.387 . S
C1156 H1160 0.950 . S
C1156 C1165 1.390 . S
C1157 C1156 1.387 . S
C1157 C1159 1.387 . S
H1158 C1165 0.950 . S
C1159 C1157 1.387 . S
C1159 C1161 1.390 . S
C1159 H1163 0.950 . S
H1160 C1156 0.950 . S
C1161 C1159 1.390 . S
C1161 C1162 1.387 . S
C1161 H1164 0.950 . S
C1162 C1161 1.387 . S
C1162 C1165 1.387 . S
H1163 C1159 0.950 . S
H1164 C1161 0.950 . S
C1165 C1156 1.390 . S
C1165 H1158 0.950 . S
C1165 C1162 1.387 . S
C1166 C1167 1.387 . S
C1166 H1170 0.950 . S
C1166 C1175 1.390 . S
C1167 C1166 1.387 . S
C1167 C1169 1.387 . S
H1168 C1175 0.950 . S
C1169 C1167 1.387 . S
C1169 C1171 1.390 . S
C1169 H1173 0.950 . S
H1170 C1166 0.950 . S
C1171 C1169 1.390 . S
C1171 C1172 1.387 . S
C1171 H1174 0.950 . S
C1172 C1171 1.387 . S
C1172 C1175 1.387 . S
H1173 C1169 0.950 . S
H1174 C1171 0.950 . S
C1175 C1166 1.390 . S
C1175 H1168 0.950 . S
C1175 C1172 1.387 . S
C1176 C1177 1.387 . S
C1176 H1180 0.950 . S
C1176 C1185 1.390 . S
C1177 C1176 1.387 . S
C1177 C1179 1.387 . S
H1178 C1185 0.950 . S
C1179 C1177 1.387 . S
C1179 C1181 1.390 . S
C1179 H1183 0.950 . S
H1180 C1176 0.950 . S
C1181 C1179 1.390 . S
C1181 C1182 1.387 . S
C1181 H1184 0.950 . S
C1182 C1181 1.387 . S
C1182 C1185 1.387 . S
H1183 C1179 0.950 . S
H1184 C1181 0.950 . S
C1185 C1176 1.390 . S
C1185 H1178 0.950 . S
C1185 C1182 1.387 . S
C1186 C1187 1.387 . S
C1186 H1190 0.950 . S
C1186 C1195 1.390 . S
C1187 C1186 1.387 . S
C1187 C1189 1.387 . S
H1188 C1195 0.950 . S
C1189 C1187 1.387 . S
C1189 C1191 1.390 . S
C1189 H1193 0.950 . S
H1190 C1186 0.950 . S
C1191 C1189 1.390 . S
C1191 C1192 1.387 . S
C1191 H1194 0.950 . S
C1192 C1191 1.387 . S
C1192 C1195 1.387 . S
H1193 C1189 0.950 . S
H1194 C1191 0.950 . S
C1195 C1186 1.390 . S
C1195 H1188 0.950 . S
C1195 C1192 1.387 . S
C1196 C1197 1.387 . S
C1196 H1200 0.950 . S
C1196 C1205 1.390 . S
C1197 C1196 1.387 . S
C1197 C1199 1.387 . S
H1198 C1205 0.950 . S
C1199 C1197 1.387 . S
C1199 C1201 1.390 . S
C1199 H1203 0.950 . S
H1200 C1196 0.950 . S
C1201 C1199 1.390 . S
C1201 C1202 1.387 . S
C1201 H1204 0.950 . S
C1202 C1201 1.387 . S
C1202 C1205 1.387 . S
H1203 C1199 0.950 . S
H1204 C1201 0.950 . S
C1205 C1196 1.390 . S
C1205 H1198 0.950 . S
C1205 C1202 1.387 . S
C1206 C1207 1.387 . S
C1206 H1210 0.950 . S
C1206 C1215 1.390 . S
C1207 C1206 1.387 . S
C1207 C1209 1.387 . S
H1208 C1215 0.950 . S
C1209 C1207 1.387 . S
C1209 C1211 1.390 . S
C1209 H1213 0.950 . S
H1210 C1206 0.950 . S
C1211 C1209 1.390 . S
C1211 C1212 1.387 . S
C1211 H1214 0.950 . S
C1212 C1211 1.387 . S
C1212 C1215 1.387 . S
H1213 C1209 0.950 . S
H1214 C1211 0.950 . S
C1215 C1206 1.390 . S
C1215 H1208 0.950 . S
C1215 C1212 1.387 . S
C1216 C1217 1.387 . S
C1216 H1220 0.950 . S
C1216 C1225 1.390 . S
C1217 C1216 1.387 . S
C1217 C1219 1.387 . S
H1218 C1225 0.950 . S
C1219 C1217 1.387 . S
C1219 C1221 1.390 1_565 S
C1219 H1223 0.950 . S
H1220 C1216 0.950 . S
C1221 C1219 1.390 1_545 S
C1221 C1222 1.387 1_545 S
C1221 H1224 0.950 . S
C1222 C1221 1.387 1_565 S
C1222 C1225 1.391 . S
H1223 C1219 0.950 . S
H1224 C1221 0.950 . S
C1225 C1216 1.390 . S
C1225 H1218 0.950 . S
C1225 C1222 1.391 . S
C1226 C1227 1.387 . S
C1226 H1230 0.950 . S
C1226 C1235 1.390 . S
C1227 C1226 1.387 . S
C1227 C1229 1.387 . S
H1228 C1235 0.950 . S
C1229 C1227 1.387 . S
C1229 C1231 1.390 . S
C1229 H1233 0.950 . S
H1230 C1226 0.950 . S
C1231 C1229 1.390 . S
C1231 C1232 1.387 . S
C1231 H1234 0.950 . S
C1232 C1231 1.387 . S
C1232 C1235 1.387 . S
H1233 C1229 0.950 . S
H1234 C1231 0.950 . S
C1235 C1226 1.390 . S
C1235 H1228 0.950 . S
C1235 C1232 1.387 . S
C1236 C1237 1.387 . S
C1236 H1240 0.950 . S
C1236 C1245 1.390 . S
C1237 C1236 1.387 . S
C1237 C1239 1.387 . S
H1238 C1245 0.950 . S
C1239 C1237 1.387 . S
C1239 C1241 1.390 . S
C1239 H1243 0.950 . S
H1240 C1236 0.950 . S
C1241 C1239 1.390 . S
C1241 C1242 1.387 . S
C1241 H1244 0.950 . S
C1242 C1241 1.387 . S
C1242 C1245 1.387 . S
H1243 C1239 0.950 . S
H1244 C1241 0.950 . S
C1245 C1236 1.390 . S
C1245 H1238 0.950 . S
C1245 C1242 1.387 . S
C1246 C1247 1.387 . S
C1246 H1250 0.950 . S
C1246 C1255 1.390 . S
C1247 C1246 1.387 . S
C1247 C1249 1.387 . S
H1248 C1255 0.950 . S
C1249 C1247 1.387 . S
C1249 C1251 1.390 . S
C1249 H1253 0.950 . S
H1250 C1246 0.950 . S
C1251 C1249 1.390 . S
C1251 C1252 1.387 . S
C1251 H1254 0.950 . S
C1252 C1251 1.387 . S
C1252 C1255 1.387 . S
H1253 C1249 0.950 . S
H1254 C1251 0.950 . S
C1255 C1246 1.390 . S
C1255 H1248 0.950 . S
C1255 C1252 1.387 . S
C1256 C1257 1.387 . S
C1256 H1260 0.950 . S
C1256 C1265 1.390 . S
C1257 C1256 1.387 . S
C1257 C1259 1.387 . S
H1258 C1265 0.950 . S
C1259 C1257 1.387 . S
C1259 C1261 1.390 . S
C1259 H1263 0.950 . S
H1260 C1256 0.950 . S
C1261 C1259 1.390 . S
C1261 C1262 1.387 . S
C1261 H1264 0.950 . S
C1262 C1261 1.387 . S
C1262 C1265 1.387 . S
H1263 C1259 0.950 . S
H1264 C1261 0.950 . S
C1265 C1256 1.390 . S
C1265 H1258 0.950 . S
C1265 C1262 1.387 . S
C1266 C1267 1.387 . S
C1266 H1270 0.950 . S
C1266 C1275 1.390 . S
C1267 C1266 1.387 . S
C1267 C1269 1.387 . S
H1268 C1275 0.950 . S
C1269 C1267 1.387 . S
C1269 C1271 1.390 . S
C1269 H1273 0.950 . S
H1270 C1266 0.950 . S
C1271 C1269 1.390 . S
C1271 C1272 1.387 . S
C1271 H1274 0.950 . S
C1272 C1271 1.387 . S
C1272 C1275 1.387 . S
H1273 C1269 0.950 . S
H1274 C1271 0.950 . S
C1275 C1266 1.390 . S
C1275 H1268 0.950 . S
C1275 C1272 1.387 . S
C1276 C1277 1.387 . S
C1276 H1280 0.950 . S
C1276 C1285 1.390 1_556 S
C1277 C1276 1.387 . S
C1277 C1279 1.387 . S
H1278 C1285 0.950 . S
C1279 C1277 1.387 . S
C1279 C1281 1.390 . S
C1279 H1283 0.950 . S
H1280 C1276 0.950 . S
C1281 C1279 1.390 . S
C1281 C1282 1.387 . S
C1281 H1284 0.950 1_565 S
C1282 C1281 1.387 . S
C1282 C1285 1.387 1_556 S
H1283 C1279 0.950 . S
H1284 C1281 0.950 1_545 S
C1285 C1276 1.390 1_554 S
C1285 H1278 0.950 . S
C1285 C1282 1.387 1_554 S
C1286 C1287 1.387 . S
C1286 H1290 0.950 . S
C1286 C1295 1.390 . S
C1287 C1286 1.387 . S
C1287 C1289 1.387 . S
H1288 C1295 0.950 . S
C1289 C1287 1.387 . S
C1289 C1291 1.379 1_455 S
C1289 H1293 0.950 1_455 S
H1290 C1286 0.950 . S
C1291 C1289 1.379 1_655 S
C1291 C1292 1.380 1_655 S
C1291 H1294 0.968 . S
C1292 C1291 1.380 1_455 S
C1292 C1295 1.387 . S
H1293 C1289 0.950 1_655 S
H1294 C1291 0.968 . S
C1295 C1286 1.390 . S
C1295 H1288 0.950 . S
C1295 C1292 1.387 . S
C1296 C1297 1.387 . S
C1296 H1300 0.950 . S
C1296 C1305 1.390 . S
C1297 C1296 1.387 . S
C1297 C1299 1.387 . S
H1298 C1305 0.950 . S
C1299 C1297 1.387 . S
C1299 C1301 1.390 . S
C1299 H1303 0.950 . S
H1300 C1296 0.950 . S
C1301 C1299 1.390 . S
C1301 C1302 1.387 . S
C1301 H1304 0.950 . S
C1302 C1301 1.387 . S
C1302 C1305 1.387 . S
H1303 C1299 0.950 . S
H1304 C1301 0.950 . S
C1305 C1296 1.390 . S
C1305 H1298 0.950 . S
C1305 C1302 1.387 . S
C1306 C1307 1.387 . S
C1306 H1310 0.950 . S
C1306 C1315 1.390 . S
C1307 C1306 1.387 . S
C1307 C1309 1.387 . S
H1308 C1315 0.950 . S
C1309 C1307 1.387 . S
C1309 C1311 1.390 . S
C1309 H1313 0.950 . S
H1310 C1306 0.950 . S
C1311 C1309 1.390 . S
C1311 C1312 1.387 . S
C1311 H1314 0.950 . S
C1312 C1311 1.387 . S
C1312 C1315 1.387 . S
H1313 C1309 0.950 . S
H1314 C1311 0.950 . S
C1315 C1306 1.390 . S
C1315 H1308 0.950 . S
C1315 C1312 1.387 . S
C1316 C1317 1.387 . S
C1316 H1320 0.950 . S
C1316 C1325 1.390 . S
C1317 C1316 1.387 . S
C1317 C1319 1.387 . S
H1318 C1325 0.950 . S
C1319 C1317 1.387 . S
C1319 C1321 1.390 . S
C1319 H1323 0.950 . S
H1320 C1316 0.950 . S
C1321 C1319 1.390 . S
C1321 C1322 1.387 . S
C1321 H1324 0.950 . S
C1322 C1321 1.387 . S
C1322 C1325 1.387 . S
H1323 C1319 0.950 . S
H1324 C1321 0.950 . S
C1325 C1316 1.390 . S
C1325 H1318 0.950 . S
C1325 C1322 1.387 . S
C1326 C1327 1.387 . S
C1326 H1330 0.950 . S
C1326 C1335 1.390 . S
C1327 C1326 1.387 . S
C1327 C1329 1.387 . S
H1328 C1335 0.950 . S
C1329 C1327 1.387 . S
C1329 C1331 1.390 . S
C1329 H1333 0.950 . S
H1330 C1326 0.950 . S
C1331 C1329 1.390 . S
C1331 C1332 1.387 . S
C1331 H1334 0.950 . S
C1332 C1331 1.387 . S
C1332 C1335 1.387 . S
H1333 C1329 0.950 . S
H1334 C1331 0.950 . S
C1335 C1326 1.390 . S
C1335 H1328 0.950 . S
C1335 C1332 1.387 . S
C1336 C1337 1.387 . S
C1336 H1340 0.950 . S
C1336 C1345 1.390 . S
C1337 C1336 1.387 . S
C1337 C1339 1.387 . S
H1338 C1345 0.950 . S
C1339 C1337 1.387 . S
C1339 C1341 1.390 . S
C1339 H1343 0.950 . S
H1340 C1336 0.950 . S
C1341 C1339 1.390 . S
C1341 C1342 1.387 . S
C1341 H1344 0.950 . S
C1342 C1341 1.387 . S
C1342 C1345 1.387 . S
H1343 C1339 0.950 . S
H1344 C1341 0.950 . S
C1345 C1336 1.390 . S
C1345 H1338 0.950 . S
C1345 C1342 1.387 . S
C1346 C1347 1.387 . S
C1346 H1350 0.950 . S
C1346 C1355 1.390 . S
C1347 C1346 1.387 . S
C1347 C1349 1.387 . S
H1348 C1355 0.950 . S
C1349 C1347 1.387 . S
C1349 C1351 1.390 . S
C1349 H1353 0.950 . S
H1350 C1346 0.950 . S
C1351 C1349 1.390 . S
C1351 C1352 1.387 . S
C1351 H1354 0.950 . S
C1352 C1351 1.387 . S
C1352 C1355 1.387 . S
H1353 C1349 0.950 . S
H1354 C1351 0.950 . S
C1355 C1346 1.390 . S
C1355 H1348 0.950 . S
C1355 C1352 1.387 . S
C1356 C1357 1.387 . S
C1356 H1360 0.950 . S
C1356 C1365 1.390 . S
C1357 C1356 1.387 . S
C1357 C1359 1.387 . S
H1358 C1365 0.950 . S
C1359 C1357 1.387 . S
C1359 C1361 1.390 . S
C1359 H1363 0.950 . S
H1360 C1356 0.950 . S
C1361 C1359 1.390 . S
C1361 C1362 1.387 . S
C1361 H1364 0.950 . S
C1362 C1361 1.387 . S
C1362 C1365 1.387 . S
H1363 C1359 0.950 . S
H1364 C1361 0.950 . S
C1365 C1356 1.390 . S
C1365 H1358 0.950 . S
C1365 C1362 1.387 . S
C1366 C1367 1.387 . S
C1366 H1370 0.950 . S
C1366 C1375 1.390 . S
C1367 C1366 1.387 . S
C1367 C1369 1.387 . S
H1368 C1375 0.950 . S
C1369 C1367 1.387 . S
C1369 C1371 1.390 . S
C1369 H1373 0.950 . S
H1370 C1366 0.950 . S
C1371 C1369 1.390 . S
C1371 C1372 1.387 . S
C1371 H1374 0.950 . S
C1372 C1371 1.387 . S
C1372 C1375 1.387 . S
H1373 C1369 0.950 . S
H1374 C1371 0.950 . S
C1375 C1366 1.390 . S
C1375 H1368 0.950 . S
C1375 C1372 1.387 . S
C1376 C1377 1.387 . S
C1376 H1380 0.950 . S
C1376 C1385 1.390 . S
C1377 C1376 1.387 . S
C1377 C1379 1.387 . S
H1378 C1385 0.950 . S
C1379 C1377 1.387 . S
C1379 C1381 1.390 . S
C1379 H1383 0.950 . S
H1380 C1376 0.950 . S
C1381 C1379 1.390 . S
C1381 C1382 1.387 . S
C1381 H1384 0.950 . S
C1382 C1381 1.387 . S
C1382 C1385 1.387 . S
H1383 C1379 0.950 . S
H1384 C1381 0.950 . S
C1385 C1376 1.390 . S
C1385 H1378 0.950 . S
C1385 C1382 1.387 . S
C1386 C1387 1.387 . S
C1386 H1390 0.950 . S
C1386 C1395 1.390 . S
C1387 C1386 1.387 . S
C1387 C1389 1.387 . S
H1388 C1395 0.950 . S
C1389 C1387 1.387 . S
C1389 C1391 1.390 . S
C1389 H1393 0.959 . S
H1390 C1386 0.950 . S
C1391 C1389 1.390 . S
C1391 C1392 1.387 . S
C1391 H1394 0.950 1_554 S
C1392 C1391 1.387 . S
C1392 C1395 1.387 . S
H1393 C1389 0.959 . S
H1394 C1391 0.950 1_556 S
C1395 C1386 1.390 . S
C1395 H1388 0.950 . S
C1395 C1392 1.387 . S
C1396 C1397 1.387 . S
C1396 H1400 0.950 . S
C1396 C1405 1.390 . S
C1397 C1396 1.387 . S
C1397 C1399 1.387 . S
H1398 C1405 0.950 . S
C1399 C1397 1.387 . S
C1399 C1401 1.390 . S
C1399 H1403 0.950 . S
H1400 C1396 0.950 . S
C1401 C1399 1.390 . S
C1401 C1402 1.387 . S
C1401 H1404 0.950 . S
C1402 C1401 1.387 . S
C1402 C1405 1.387 . S
H1403 C1399 0.950 . S
H1404 C1401 0.950 . S
C1405 C1396 1.390 . S
C1405 H1398 0.950 . S
C1405 C1402 1.387 . S
C1406 C1407 1.387 . S
C1406 H1410 0.950 . S
C1406 C1415 1.390 . S
C1407 C1406 1.387 . S
C1407 C1409 1.387 . S
H1408 C1415 0.950 . S
C1409 C1407 1.387 . S
C1409 C1411 1.390 . S
C1409 H1413 0.950 . S
H1410 C1406 0.950 . S
C1411 C1409 1.390 . S
C1411 C1412 1.387 . S
C1411 H1414 0.950 . S
C1412 C1411 1.387 . S
C1412 C1415 1.387 . S
H1413 C1409 0.950 . S
H1414 C1411 0.950 . S
C1415 C1406 1.390 . S
C1415 H1408 0.950 . S
C1415 C1412 1.387 . S
C1416 C1417 1.387 . S
C1416 H1420 0.950 . S
C1416 C1425 1.390 . S
C1417 C1416 1.387 . S
C1417 C1419 1.387 . S
H1418 C1425 0.950 . S
C1419 C1417 1.387 . S
C1419 C1421 1.390 . S
C1419 H1423 0.950 . S
H1420 C1416 0.950 . S
C1421 C1419 1.390 . S
C1421 C1422 1.387 . S
C1421 H1424 0.950 . S
C1422 C1421 1.387 . S
C1422 C1425 1.387 . S
H1423 C1419 0.950 . S
H1424 C1421 0.950 . S
C1425 C1416 1.390 . S
C1425 H1418 0.950 . S
C1425 C1422 1.387 . S
C1426 C1427 1.387 1_565 S
C1426 H1430 0.950 . S
C1426 C1435 1.390 . S
C1427 C1426 1.387 1_545 S
C1427 C1429 1.387 . S
H1428 C1435 0.950 . S
C1429 C1427 1.387 . S
C1429 C1431 1.390 . S
C1429 H1433 0.950 . S
H1430 C1426 0.950 . S
C1431 C1429 1.390 . S
C1431 C1432 1.387 . S
C1431 H1434 0.950 . S
C1432 C1431 1.387 . S
C1432 C1435 1.387 1_545 S
H1433 C1429 0.950 . S
H1434 C1431 0.950 . S
C1435 C1426 1.390 . S
C1435 H1428 0.950 . S
C1435 C1432 1.387 1_565 S
C1436 C1437 1.387 . S
C1436 H1440 0.950 . S
C1436 C1445 1.390 . S
C1437 C1436 1.387 . S
C1437 C1439 1.387 . S
H1438 C1445 0.950 . S
C1439 C1437 1.387 . S
C1439 C1441 1.390 . S
C1439 H1443 0.950 . S
H1440 C1436 0.950 . S
C1441 C1439 1.390 . S
C1441 C1442 1.387 . S
C1441 H1444 0.950 . S
C1442 C1441 1.387 . S
C1442 C1445 1.387 . S
H1443 C1439 0.950 . S
H1444 C1441 0.950 . S
C1445 C1436 1.390 . S
C1445 H1438 0.950 . S
C1445 C1442 1.387 . S
C1446 C1447 1.387 . S
C1446 H1450 0.950 . S
C1446 C1455 1.390 . S
C1447 C1446 1.387 . S
C1447 C1449 1.387 . S
H1448 C1455 0.950 . S
C1449 C1447 1.387 . S
C1449 C1451 1.390 . S
C1449 H1453 0.950 . S
H1450 C1446 0.950 . S
C1451 C1449 1.390 . S
C1451 C1452 1.387 . S
C1451 H1454 0.950 . S
C1452 C1451 1.387 . S
C1452 C1455 1.387 . S
H1453 C1449 0.950 . S
H1454 C1451 0.950 . S
C1455 C1446 1.390 . S
C1455 H1448 0.950 . S
C1455 C1452 1.387 . S
C1456 C1457 1.387 . S
C1456 H1460 0.950 . S
C1456 C1465 1.390 . S
C1457 C1456 1.387 . S
C1457 C1459 1.387 . S
H1458 C1465 0.950 . S
C1459 C1457 1.387 . S
C1459 C1461 1.390 . S
C1459 H1463 0.950 . S
H1460 C1456 0.950 . S
C1461 C1459 1.390 . S
C1461 C1462 1.387 . S
C1461 H1464 0.950 . S
C1462 C1461 1.387 . S
C1462 C1465 1.387 . S
H1463 C1459 0.950 . S
H1464 C1461 0.950 . S
C1465 C1456 1.390 . S
C1465 H1458 0.950 . S
C1465 C1462 1.387 . S
C1466 C1467 1.387 . S
C1466 H1470 0.950 . S
C1466 C1475 1.390 . S
C1467 C1466 1.387 . S
C1467 C1469 1.387 . S
H1468 C1475 0.950 . S
C1469 C1467 1.387 . S
C1469 C1471 1.390 . S
C1469 H1473 0.950 . S
H1470 C1466 0.950 . S
C1471 C1469 1.390 . S
C1471 C1472 1.387 . S
C1471 H1474 0.950 . S
C1472 C1471 1.387 . S
C1472 C1475 1.387 . S
H1473 C1469 0.950 . S
H1474 C1471 0.950 . S
C1475 C1466 1.390 . S
C1475 H1468 0.950 . S
C1475 C1472 1.387 . S
C1476 C1477 1.387 . S
C1476 H1480 0.950 . S
C1476 C1485 1.390 . S
C1477 C1476 1.387 . S
C1477 C1479 1.387 . S
H1478 C1485 0.950 . S
C1479 C1477 1.387 . S
C1479 C1481 1.390 . S
C1479 H1483 0.950 . S
H1480 C1476 0.950 . S
C1481 C1479 1.390 . S
C1481 C1482 1.387 . S
C1481 H1484 0.950 1_556 S
C1482 C1481 1.387 . S
C1482 C1485 1.387 . S
H1483 C1479 0.950 . S
H1484 C1481 0.950 1_554 S
C1485 C1476 1.390 . S
C1485 H1478 0.950 . S
C1485 C1482 1.387 . S
C1486 C1487 1.387 . S
C1486 H1490 0.950 . S
C1486 C1495 1.390 1_455 S
C1487 C1486 1.387 . S
C1487 C1489 1.387 . S
H1488 C1495 0.950 . S
C1489 C1487 1.387 . S
C1489 C1491 1.390 1_455 S
C1489 H1493 0.950 . S
H1490 C1486 0.950 . S
C1491 C1489 1.390 1_655 S
C1491 C1492 1.387 . S
C1491 H1494 0.950 . S
C1492 C1491 1.387 . S
C1492 C1495 1.387 . S
H1493 C1489 0.950 . S
H1494 C1491 0.950 . S
C1495 C1486 1.390 1_655 S
C1495 H1488 0.950 . S
C1495 C1492 1.387 . S
C1496 C1497 1.387 . S
C1496 H1500 0.950 . S
C1496 C1505 1.390 . S
C1497 C1496 1.387 . S
C1497 C1499 1.387 . S
H1498 C1505 0.950 . S
C1499 C1497 1.387 . S
C1499 C1501 1.390 . S
C1499 H1503 0.950 . S
H1500 C1496 0.950 . S
C1501 C1499 1.390 . S
C1501 C1502 1.387 . S
C1501 H1504 0.950 . S
C1502 C1501 1.387 . S
C1502 C1505 1.387 . S
H1503 C1499 0.950 . S
H1504 C1501 0.950 . S
C1505 C1496 1.390 . S
C1505 H1498 0.950 . S
C1505 C1502 1.387 . S
C1506 C1507 1.387 . S
C1506 H1510 0.950 . S
C1506 C1515 1.390 . S
C1507 C1506 1.387 . S
C1507 C1509 1.387 . S
H1508 C1515 0.950 . S
C1509 C1507 1.387 . S
C1509 C1511 1.390 . S
C1509 H1513 0.950 . S
H1510 C1506 0.950 . S
C1511 C1509 1.390 . S
C1511 C1512 1.387 . S
C1511 H1514 0.950 . S
C1512 C1511 1.387 . S
C1512 C1515 1.387 . S
H1513 C1509 0.950 . S
H1514 C1511 0.950 . S
C1515 C1506 1.390 . S
C1515 H1508 0.950 . S
C1515 C1512 1.387 . S
C1516 C1517 1.387 . S
C1516 H1520 0.950 . S
C1516 C1525 1.390 . S
C1517 C1516 1.387 . S
C1517 C1519 1.387 . S
H1518 C1525 0.950 . S
C1519 C1517 1.387 . S
C1519 C1521 1.390 . S
C1519 H1523 0.950 . S
H1520 C1516 0.950 . S
C1521 C1519 1.390 . S
C1521 C1522 1.387 . S
C1521 H1524 0.950 . S
C1522 C1521 1.387 . S
C1522 C1525 1.387 . S
H1523 C1519 0.950 . S
H1524 C1521 0.950 . S
C1525 C1516 1.390 . S
C1525 H1518 0.950 . S
C1525 C1522 1.387 . S
C1526 C1527 1.387 . S
C1526 H1530 0.950 . S
C1526 C1535 1.390 . S
C1527 C1526 1.387 . S
C1527 C1529 1.387 . S
H1528 C1535 0.950 . S
C1529 C1527 1.387 . S
C1529 C1531 1.390 . S
C1529 H1533 0.950 . S
H1530 C1526 0.950 . S
C1531 C1529 1.390 . S
C1531 C1532 1.387 . S
C1531 H1534 0.950 . S
C1532 C1531 1.387 . S
C1532 C1535 1.387 . S
H1533 C1529 0.950 . S
H1534 C1531 0.950 . S
C1535 C1526 1.390 . S
C1535 H1528 0.950 . S
C1535 C1532 1.387 . S
C1536 C1537 1.387 . S
C1536 H1540 0.950 . S
C1536 C1545 1.390 . S
C1537 C1536 1.387 . S
C1537 C1539 1.387 . S
H1538 C1545 0.950 . S
C1539 C1537 1.387 . S
C1539 C1541 1.390 . S
C1539 H1543 0.950 . S
H1540 C1536 0.950 . S
C1541 C1539 1.390 . S
C1541 C1542 1.387 . S
C1541 H1544 0.950 . S
C1542 C1541 1.387 . S
C1542 C1545 1.387 . S
H1543 C1539 0.950 . S
H1544 C1541 0.950 . S
C1545 C1536 1.390 . S
C1545 H1538 0.950 . S
C1545 C1542 1.387 . S
C1546 C1547 1.387 . S
C1546 H1550 0.950 . S
C1546 C1555 1.390 . S
C1547 C1546 1.387 . S
C1547 C1549 1.387 . S
H1548 C1555 0.950 . S
C1549 C1547 1.387 . S
C1549 C1551 1.390 . S
C1549 H1553 0.950 . S
H1550 C1546 0.950 . S
C1551 C1549 1.390 . S
C1551 C1552 1.387 . S
C1551 H1554 0.950 . S
C1552 C1551 1.387 . S
C1552 C1555 1.387 . S
H1553 C1549 0.950 . S
H1554 C1551 0.950 . S
C1555 C1546 1.390 . S
C1555 H1548 0.950 . S
C1555 C1552 1.387 . S
C1556 C1557 1.387 . S
C1556 H1560 0.950 . S
C1556 C1565 1.390 . S
C1557 C1556 1.387 . S
C1557 C1559 1.387 . S
H1558 C1565 0.950 . S
C1559 C1557 1.387 . S
C1559 C1561 1.390 . S
C1559 H1563 0.950 . S
H1560 C1556 0.950 . S
C1561 C1559 1.390 . S
C1561 C1562 1.387 . S
C1561 H1564 0.950 . S
C1562 C1561 1.387 . S
C1562 C1565 1.387 . S
H1563 C1559 0.950 . S
H1564 C1561 0.950 . S
C1565 C1556 1.390 . S
C1565 H1558 0.950 . S
C1565 C1562 1.387 . S
C1566 C1567 1.387 . S
C1566 H1570 0.950 . S
C1566 C1575 1.390 . S
C1567 C1566 1.387 . S
C1567 C1569 1.387 . S
H1568 C1575 0.950 . S
C1569 C1567 1.387 . S
C1569 C1571 1.390 . S
C1569 H1573 0.950 . S
H1570 C1566 0.950 . S
C1571 C1569 1.390 . S
C1571 C1572 1.387 . S
C1571 H1574 0.950 . S
C1572 C1571 1.387 . S
C1572 C1575 1.387 . S
H1573 C1569 0.950 . S
H1574 C1571 0.950 . S
C1575 C1566 1.390 . S
C1575 H1568 0.950 . S
C1575 C1572 1.387 . S
C1576 C1577 1.387 . S
C1576 H1580 0.950 . S
C1576 C1585 1.390 . S
C1577 C1576 1.387 . S
C1577 C1579 1.387 . S
H1578 C1585 0.950 . S
C1579 C1577 1.387 . S
C1579 C1581 1.390 . S
C1579 H1583 0.950 . S
H1580 C1576 0.950 . S
C1581 C1579 1.390 . S
C1581 C1582 1.387 . S
C1581 H1584 0.950 . S
C1582 C1581 1.387 . S
C1582 C1585 1.387 . S
H1583 C1579 0.950 . S
H1584 C1581 0.950 . S
C1585 C1576 1.390 . S
C1585 H1578 0.950 . S
C1585 C1582 1.387 . S
C1586 C1587 1.387 . S
C1586 H1590 0.950 . S
C1586 C1595 1.390 . S
C1587 C1586 1.387 . S
C1587 C1589 1.387 . S
H1588 C1595 0.950 . S
C1589 C1587 1.387 . S
C1589 C1591 1.390 . S
C1589 H1593 0.950 . S
H1590 C1586 0.950 . S
C1591 C1589 1.390 . S
C1591 C1592 1.387 . S
C1591 H1594 0.950 . S
C1592 C1591 1.387 . S
C1592 C1595 1.387 . S
H1593 C1589 0.950 . S
H1594 C1591 0.950 . S
C1595 C1586 1.390 . S
C1595 H1588 0.950 . S
C1595 C1592 1.387 . S
C1596 C1597 1.387 . S
C1596 H1600 0.950 . S
C1596 C1605 1.390 . S
C1597 C1596 1.387 . S
C1597 C1599 1.387 . S
H1598 C1605 0.950 . S
C1599 C1597 1.387 . S
C1599 C1601 1.390 . S
C1599 H1603 0.950 . S
H1600 C1596 0.950 . S
C1601 C1599 1.390 . S
C1601 C1602 1.387 . S
C1601 H1604 0.950 . S
C1602 C1601 1.387 . S
C1602 C1605 1.387 . S
H1603 C1599 0.950 . S
H1604 C1601 0.950 . S
C1605 C1596 1.390 . S
C1605 H1598 0.950 . S
C1605 C1602 1.387 . S
C1606 C1607 1.387 . S
C1606 H1610 0.950 . S
C1606 C1615 1.390 . S
C1607 C1606 1.387 . S
C1607 C1609 1.387 . S
H1608 C1615 0.950 . S
C1609 C1607 1.387 . S
C1609 C1611 1.390 . S
C1609 H1613 0.950 . S
H1610 C1606 0.950 . S
C1611 C1609 1.390 . S
C1611 C1612 1.387 . S
C1611 H1614 0.950 . S
C1612 C1611 1.387 . S
C1612 C1615 1.387 . S
H1613 C1609 0.950 . S
H1614 C1611 0.950 . S
C1615 C1606 1.390 . S
C1615 H1608 0.950 . S
C1615 C1612 1.387 . S
C1616 C1617 1.387 . S
C1616 H1620 0.950 . S
C1616 C1625 1.390 . S
C1617 C1616 1.387 . S
C1617 C1619 1.387 . S
H1618 C1625 0.950 . S
C1619 C1617 1.387 . S
C1619 C1621 1.390 . S
C1619 H1623 0.950 . S
H1620 C1616 0.950 . S
C1621 C1619 1.390 . S
C1621 C1622 1.387 . S
C1621 H1624 0.950 . S
C1622 C1621 1.387 . S
C1622 C1625 1.387 . S
H1623 C1619 0.950 . S
H1624 C1621 0.950 . S
C1625 C1616 1.390 . S
C1625 H1618 0.950 . S
C1625 C1622 1.387 . S
C1626 C1627 1.387 . S
C1626 H1630 0.950 . S
C1626 C1635 1.390 . S
C1627 C1626 1.387 . S
C1627 C1629 1.387 . S
H1628 C1635 0.950 . S
C1629 C1627 1.387 . S
C1629 C1631 1.390 . S
C1629 H1633 0.950 . S
H1630 C1626 0.950 . S
C1631 C1629 1.390 . S
C1631 C1632 1.387 . S
C1631 H1634 0.950 . S
C1632 C1631 1.387 . S
C1632 C1635 1.387 . S
H1633 C1629 0.950 . S
H1634 C1631 0.950 . S
C1635 C1626 1.390 . S
C1635 H1628 0.950 . S
C1635 C1632 1.387 . S
C1636 C1637 1.387 . S
C1636 H1640 0.950 . S
C1636 C1645 1.390 . S
C1637 C1636 1.387 . S
C1637 C1639 1.387 . S
H1638 C1645 0.950 . S
C1639 C1637 1.387 . S
C1639 C1641 1.390 . S
C1639 H1643 0.950 . S
H1640 C1636 0.950 . S
C1641 C1639 1.390 . S
C1641 C1642 1.387 . S
C1641 H1644 0.950 . S
C1642 C1641 1.387 . S
C1642 C1645 1.387 . S
H1643 C1639 0.950 . S
H1644 C1641 0.950 . S
C1645 C1636 1.390 . S
C1645 H1638 0.950 . S
C1645 C1642 1.387 . S
C1646 C1647 1.387 . S
C1646 H1650 0.950 1_545 S
C1646 C1655 1.390 . S
C1647 C1646 1.387 . S
C1647 C1649 1.387 . S
H1648 C1655 0.967 . S
C1649 C1647 1.387 . S
C1649 C1651 1.390 . S
C1649 H1653 0.950 . S
H1650 C1646 0.950 1_565 S
C1651 C1649 1.390 . S
C1651 C1652 1.387 . S
C1651 H1654 0.950 . S
C1652 C1651 1.387 . S
C1652 C1655 1.387 . S
H1653 C1649 0.950 . S
H1654 C1651 0.950 . S
C1655 C1646 1.390 . S
C1655 H1648 0.967 . S
C1655 C1652 1.387 . S
C1656 C1657 1.387 . S
C1656 H1660 0.950 . S
C1656 C1665 1.390 . S
C1657 C1656 1.387 . S
C1657 C1659 1.387 . S
H1658 C1665 0.950 . S
C1659 C1657 1.387 . S
C1659 C1661 1.390 . S
C1659 H1663 0.950 . S
H1660 C1656 0.950 . S
C1661 C1659 1.390 . S
C1661 C1662 1.387 . S
C1661 H1664 0.950 . S
C1662 C1661 1.387 . S
C1662 C1665 1.387 . S
H1663 C1659 0.950 . S
H1664 C1661 0.950 . S
C1665 C1656 1.390 . S
C1665 H1658 0.950 . S
C1665 C1662 1.387 . S
C1666 C1667 1.387 . S
C1666 H1670 0.950 . S
C1666 C1675 1.390 . S
C1667 C1666 1.387 . S
C1667 C1669 1.387 . S
H1668 C1675 0.950 . S
C1669 C1667 1.387 . S
C1669 C1671 1.390 . S
C1669 H1673 0.950 1_554 S
H1670 C1666 0.950 . S
C1671 C1669 1.390 . S
C1671 C1672 1.387 . S
C1671 H1674 0.950 . S
C1672 C1671 1.387 . S
C1672 C1675 1.387 . S
H1673 C1669 0.950 1_556 S
H1674 C1671 0.950 . S
C1675 C1666 1.390 . S
C1675 H1668 0.950 . S
C1675 C1672 1.387 . S
C1676 C1677 1.387 . S
C1676 H1680 0.950 . S
C1676 C1685 1.390 . S
C1677 C1676 1.387 . S
C1677 C1679 1.387 . S
H1678 C1685 0.950 . S
C1679 C1677 1.387 . S
C1679 C1681 1.390 . S
C1679 H1683 0.950 . S
H1680 C1676 0.950 . S
C1681 C1679 1.390 . S
C1681 C1682 1.387 . S
C1681 H1684 0.950 . S
C1682 C1681 1.387 . S
C1682 C1685 1.387 . S
H1683 C1679 0.950 . S
H1684 C1681 0.950 . S
C1685 C1676 1.390 . S
C1685 H1678 0.950 . S
C1685 C1682 1.387 . S
C1686 C1687 1.387 . S
C1686 H1690 0.950 . S
C1686 C1695 1.390 . S
C1687 C1686 1.387 . S
C1687 C1689 1.387 . S
H1688 C1695 0.950 . S
C1689 C1687 1.387 . S
C1689 C1691 1.390 . S
C1689 H1693 0.950 . S
H1690 C1686 0.950 . S
C1691 C1689 1.390 . S
C1691 C1692 1.387 . S
C1691 H1694 0.950 . S
C1692 C1691 1.387 . S
C1692 C1695 1.387 . S
H1693 C1689 0.950 . S
H1694 C1691 0.950 . S
C1695 C1686 1.390 . S
C1695 H1688 0.950 . S
C1695 C1692 1.387 . S
C1696 C1697 1.387 . S
C1696 H1700 0.950 . S
C1696 C1705 1.390 . S
C1697 C1696 1.387 . S
C1697 C1699 1.387 . S
H1698 C1705 0.950 . S
C1699 C1697 1.387 . S
C1699 C1701 1.390 . S
C1699 H1703 0.950 . S
H1700 C1696 0.950 . S
C1701 C1699 1.390 . S
C1701 C1702 1.387 . S
C1701 H1704 0.950 . S
C1702 C1701 1.387 . S
C1702 C1705 1.387 . S
H1703 C1699 0.950 . S
H1704 C1701 0.950 . S
C1705 C1696 1.390 . S
C1705 H1698 0.950 . S
C1705 C1702 1.387 . S
C1706 C1707 1.387 . S
C1706 H1710 0.950 . S
C1706 C1715 1.390 . S
C1707 C1706 1.387 . S
C1707 C1709 1.387 . S
H1708 C1715 0.950 . S
C1709 C1707 1.387 . S
C1709 C1711 1.390 . S
C1709 H1713 0.950 . S
H1710 C1706 0.950 . S
C1711 C1709 1.390 . S
C1711 C1712 1.387 . S
C1711 H1714 0.950 . S
C1712 C1711 1.387 . S
C1712 C1715 1.387 . S
H1713 C1709 0.950 . S
H1714 C1711 0.950 . S
C1715 C1706 1.390 . S
C1715 H1708 0.950 . S
C1715 C1712 1.387 . S
C1716 C1717 1.387 . S
C1716 H1720 0.950 . S
C1716 C1725 1.390 . S
C1717 C1716 1.387 . S
C1717 C1719 1.387 . S
H1718 C1725 0.950 . S
C1719 C1717 1.387 . S
C1719 C1721 1.390 . S
C1719 H1723 0.950 . S
H1720 C1716 0.950 . S
C1721 C1719 1.390 . S
C1721 C1722 1.387 . S
C1721 H1724 0.950 . S
C1722 C1721 1.387 . S
C1722 C1725 1.387 . S
H1723 C1719 0.950 . S
H1724 C1721 0.950 . S
C1725 C1716 1.390 . S
C1725 H1718 0.950 . S
C1725 C1722 1.387 . S
C1726 C1727 1.387 . S
C1726 H1730 0.950 . S
C1726 C1735 1.390 . S
C1727 C1726 1.387 . S
C1727 C1729 1.387 . S
H1728 C1735 0.950 . S
C1729 C1727 1.387 . S
C1729 C1731 1.390 . S
C1729 H1733 0.950 . S
H1730 C1726 0.950 . S
C1731 C1729 1.390 . S
C1731 C1732 1.387 . S
C1731 H1734 0.950 . S
C1732 C1731 1.387 . S
C1732 C1735 1.387 . S
H1733 C1729 0.950 . S
H1734 C1731 0.950 . S
C1735 C1726 1.390 . S
C1735 H1728 0.950 . S
C1735 C1732 1.387 . S
C1736 C1737 1.387 . S
C1736 H1740 0.950 . S
C1736 C1745 1.390 . S
C1737 C1736 1.387 . S
C1737 C1739 1.387 . S
H1738 C1745 0.950 . S
C1739 C1737 1.387 . S
C1739 C1741 1.391 1_556 S
C1739 H1743 0.950 1_556 S
H1740 C1736 0.950 . S
C1741 C1739 1.391 1_554 S
C1741 C1742 1.388 1_554 S
C1741 H1744 0.948 . S
C1742 C1741 1.388 1_556 S
C1742 C1745 1.387 . S
H1743 C1739 0.950 1_554 S
H1744 C1741 0.948 . S
C1745 C1736 1.390 . S
C1745 H1738 0.950 . S
C1745 C1742 1.387 . S
C1746 C1747 1.387 . S
C1746 H1750 0.950 . S
C1746 C1755 1.390 . S
C1747 C1746 1.387 . S
C1747 C1749 1.387 . S
H1748 C1755 0.950 . S
C1749 C1747 1.387 . S
C1749 C1751 1.390 . S
C1749 H1753 0.950 . S
H1750 C1746 0.950 . S
C1751 C1749 1.390 . S
C1751 C1752 1.387 . S
C1751 H1754 0.950 . S
C1752 C1751 1.387 . S
C1752 C1755 1.387 . S
H1753 C1749 0.950 . S
H1754 C1751 0.950 . S
C1755 C1746 1.390 . S
C1755 H1748 0.950 . S
C1755 C1752 1.387 . S
C1756 C1757 1.387 . S
C1756 H1760 0.950 . S
C1756 C1765 1.390 . S
C1757 C1756 1.387 . S
C1757 C1759 1.387 . S
H1758 C1765 0.950 . S
C1759 C1757 1.387 . S
C1759 C1761 1.390 . S
C1759 H1763 0.950 1_455 S
H1760 C1756 0.950 . S
C1761 C1759 1.390 . S
C1761 C1762 1.387 . S
C1761 H1764 0.950 . S
C1762 C1761 1.387 . S
C1762 C1765 1.387 . S
H1763 C1759 0.950 1_655 S
H1764 C1761 0.950 . S
C1765 C1756 1.390 . S
C1765 H1758 0.950 . S
C1765 C1762 1.387 . S
C1766 C1767 1.387 . S
C1766 H1770 0.950 . S
C1766 C1775 1.390 . S
C1767 C1766 1.387 . S
C1767 C1769 1.387 . S
H1768 C1775 0.950 . S
C1769 C1767 1.387 . S
C1769 C1771 1.390 . S
C1769 H1773 0.950 . S
H1770 C1766 0.950 . S
C1771 C1769 1.390 . S
C1771 C1772 1.387 . S
C1771 H1774 0.950 . S
C1772 C1771 1.387 . S
C1772 C1775 1.387 . S
H1773 C1769 0.950 . S
H1774 C1771 0.950 . S
C1775 C1766 1.390 . S
C1775 H1768 0.950 . S
C1775 C1772 1.387 . S
C1776 C1777 1.387 . S
C1776 H1780 0.950 . S
C1776 C1785 1.390 . S
C1777 C1776 1.387 . S
C1777 C1779 1.387 . S
H1778 C1785 0.950 . S
C1779 C1777 1.387 . S
C1779 C1781 1.390 . S
C1779 H1783 0.950 . S
H1780 C1776 0.950 . S
C1781 C1779 1.390 . S
C1781 C1782 1.387 . S
C1781 H1784 0.950 . S
C1782 C1781 1.387 . S
C1782 C1785 1.387 . S
H1783 C1779 0.950 . S
H1784 C1781 0.950 . S
C1785 C1776 1.390 . S
C1785 H1778 0.950 . S
C1785 C1782 1.387 . S
C1786 C1787 1.387 . S
C1786 H1790 0.950 . S
C1786 C1795 1.390 . S
C1787 C1786 1.387 . S
C1787 C1789 1.387 . S
H1788 C1795 0.950 . S
C1789 C1787 1.387 . S
C1789 C1791 1.390 . S
C1789 H1793 0.950 . S
H1790 C1786 0.950 . S
C1791 C1789 1.390 . S
C1791 C1792 1.387 . S
C1791 H1794 0.950 . S
C1792 C1791 1.387 . S
C1792 C1795 1.387 . S
H1793 C1789 0.950 . S
H1794 C1791 0.950 . S
C1795 C1786 1.390 . S
C1795 H1788 0.950 . S
C1795 C1792 1.387 . S
C1796 C1797 1.387 . S
C1796 H1800 0.950 . S
C1796 C1805 1.390 . S
C1797 C1796 1.387 . S
C1797 C1799 1.387 . S
H1798 C1805 0.950 . S
C1799 C1797 1.387 . S
C1799 C1801 1.390 . S
C1799 H1803 0.950 1_455 S
H1800 C1796 0.950 . S
C1801 C1799 1.390 . S
C1801 C1802 1.387 . S
C1801 H1804 0.950 1_455 S
C1802 C1801 1.387 . S
C1802 C1805 1.387 . S
H1803 C1799 0.950 1_655 S
H1804 C1801 0.950 1_655 S
C1805 C1796 1.390 . S
C1805 H1798 0.950 . S
C1805 C1802 1.387 . S
C1806 C1807 1.387 . S
C1806 H1810 0.950 . S
C1806 C1815 1.390 . S
C1807 C1806 1.387 . S
C1807 C1809 1.387 . S
H1808 C1815 0.950 . S
C1809 C1807 1.387 . S
C1809 C1811 1.390 . S
C1809 H1813 0.950 . S
H1810 C1806 0.950 . S
C1811 C1809 1.390 . S
C1811 C1812 1.387 . S
C1811 H1814 0.950 . S
C1812 C1811 1.387 . S
C1812 C1815 1.387 . S
H1813 C1809 0.950 . S
H1814 C1811 0.950 . S
C1815 C1806 1.390 . S
C1815 H1808 0.950 . S
C1815 C1812 1.387 . S
C1816 C1817 1.387 . S
C1816 H1820 0.950 . S
C1816 C1825 1.390 . S
C1817 C1816 1.387 . S
C1817 C1819 1.387 . S
H1818 C1825 0.950 . S
C1819 C1817 1.387 . S
C1819 C1821 1.390 . S
C1819 H1823 0.950 . S
H1820 C1816 0.950 . S
C1821 C1819 1.390 . S
C1821 C1822 1.387 . S
C1821 H1824 0.950 . S
C1822 C1821 1.387 . S
C1822 C1825 1.387 . S
H1823 C1819 0.950 . S
H1824 C1821 0.950 . S
C1825 C1816 1.390 . S
C1825 H1818 0.950 . S
C1825 C1822 1.387 . S
C1826 C1827 1.387 . S
C1826 H1830 0.950 . S
C1826 C1835 1.390 . S
C1827 C1826 1.387 . S
C1827 C1829 1.387 . S
H1828 C1835 0.950 . S
C1829 C1827 1.387 . S
C1829 C1831 1.390 . S
C1829 H1833 0.950 . S
H1830 C1826 0.950 . S
C1831 C1829 1.390 . S
C1831 C1832 1.387 . S
C1831 H1834 0.950 . S
C1832 C1831 1.387 . S
C1832 C1835 1.387 . S
H1833 C1829 0.950 . S
H1834 C1831 0.950 . S
C1835 C1826 1.390 . S
C1835 H1828 0.950 . S
C1835 C1832 1.387 . S
C1836 C1837 1.387 . S
C1836 H1840 0.950 . S
C1836 C1845 1.390 . S
C1837 C1836 1.387 . S
C1837 C1839 1.387 1_455 S
H1838 C1845 0.950 . S
C1839 C1837 1.387 1_655 S
C1839 C1841 1.390 . S
C1839 H1843 0.950 . S
H1840 C1836 0.950 . S
C1841 C1839 1.390 . S
C1841 C1842 1.387 1_655 S
C1841 H1844 0.950 . S
C1842 C1841 1.387 1_455 S
C1842 C1845 1.387 . S
H1843 C1839 0.950 . S
H1844 C1841 0.950 . S
C1845 C1836 1.390 . S
C1845 H1838 0.950 . S
C1845 C1842 1.387 . S
C1846 C1847 1.387 . S
C1846 H1850 0.950 . S
C1846 C1855 1.390 . S
C1847 C1846 1.387 . S
C1847 C1849 1.387 . S
H1848 C1855 0.950 . S
C1849 C1847 1.387 . S
C1849 C1851 1.390 . S
C1849 H1853 0.950 . S
H1850 C1846 0.950 . S
C1851 C1849 1.390 . S
C1851 C1852 1.387 . S
C1851 H1854 0.950 . S
C1852 C1851 1.387 . S
C1852 C1855 1.387 . S
H1853 C1849 0.950 . S
H1854 C1851 0.950 . S
C1855 C1846 1.390 . S
C1855 H1848 0.950 . S
C1855 C1852 1.387 . S
C1856 C1857 1.387 . S
C1856 H1860 0.950 . S
C1856 C1865 1.390 . S
C1857 C1856 1.387 . S
C1857 C1859 1.387 . S
H1858 C1865 0.950 . S
C1859 C1857 1.387 . S
C1859 C1861 1.390 . S
C1859 H1863 0.950 . S
H1860 C1856 0.950 . S
C1861 C1859 1.390 . S
C1861 C1862 1.387 . S
C1861 H1864 0.950 . S
C1862 C1861 1.387 . S
C1862 C1865 1.387 . S
H1863 C1859 0.950 . S
H1864 C1861 0.950 . S
C1865 C1856 1.390 . S
C1865 H1858 0.950 . S
C1865 C1862 1.387 . S
C1866 C1867 1.387 . S
C1866 H1870 0.950 . S
C1866 C1875 1.390 . S
C1867 C1866 1.387 . S
C1867 C1869 1.387 . S
H1868 C1875 0.950 . S
C1869 C1867 1.387 . S
C1869 C1871 1.390 . S
C1869 H1873 0.950 1_545 S
H1870 C1866 0.950 . S
C1871 C1869 1.390 . S
C1871 C1872 1.387 . S
C1871 H1874 0.950 . S
C1872 C1871 1.387 . S
C1872 C1875 1.387 . S
H1873 C1869 0.950 1_565 S
H1874 C1871 0.950 . S
C1875 C1866 1.390 . S
C1875 H1868 0.950 . S
C1875 C1872 1.387 . S
C1876 C1877 1.387 . S
C1876 H1880 0.950 . S
C1876 C1885 1.390 . S
C1877 C1876 1.387 . S
C1877 C1879 1.387 . S
H1878 C1885 0.950 . S
C1879 C1877 1.387 . S
C1879 C1881 1.390 . S
C1879 H1883 0.950 . S
H1880 C1876 0.950 . S
C1881 C1879 1.390 . S
C1881 C1882 1.387 . S
C1881 H1884 0.950 . S
C1882 C1881 1.387 . S
C1882 C1885 1.387 . S
H1883 C1879 0.950 . S
H1884 C1881 0.950 . S
C1885 C1876 1.390 . S
C1885 H1878 0.950 . S
C1885 C1882 1.387 . S
C1886 C1887 1.387 1_554 S
C1886 H1890 0.950 . S
C1886 C1895 1.390 . S
C1887 C1886 1.387 1_556 S
C1887 C1889 1.387 . S
H1888 C1895 0.950 . S
C1889 C1887 1.387 . S
C1889 C1891 1.390 . S
C1889 H1893 0.950 . S
H1890 C1886 0.950 . S
C1891 C1889 1.390 . S
C1891 C1892 1.387 1_556 S
C1891 H1894 0.950 . S
C1892 C1891 1.387 1_554 S
C1892 C1895 1.387 . S
H1893 C1889 0.950 . S
H1894 C1891 0.950 . S
C1895 C1886 1.390 . S
C1895 H1888 0.950 . S
C1895 C1892 1.387 . S
C1896 C1897 1.387 . S
C1896 H1900 0.950 . S
C1896 C1905 1.390 . S
C1897 C1896 1.387 . S
C1897 C1899 1.387 . S
H1898 C1905 0.950 . S
C1899 C1897 1.387 . S
C1899 C1901 1.390 . S
C1899 H1903 0.950 . S
H1900 C1896 0.950 . S
C1901 C1899 1.390 . S
C1901 C1902 1.387 . S
C1901 H1904 0.950 . S
C1902 C1901 1.387 . S
C1902 C1905 1.387 . S
H1903 C1899 0.950 . S
H1904 C1901 0.950 . S
C1905 C1896 1.390 . S
C1905 H1898 0.950 . S
C1905 C1902 1.387 . S
C1906 C1907 1.387 1_556 S
C1906 H1910 0.950 . S
C1906 C1915 1.390 . S
C1907 C1906 1.387 1_554 S
C1907 C1909 1.387 . S
H1908 C1915 0.950 . S
C1909 C1907 1.387 . S
C1909 C1911 1.390 . S
C1909 H1913 0.950 . S
H1910 C1906 0.950 . S
C1911 C1909 1.390 . S
C1911 C1912 1.387 1_554 S
C1911 H1914 0.950 . S
C1912 C1911 1.387 1_556 S
C1912 C1915 1.387 . S
H1913 C1909 0.950 . S
H1914 C1911 0.950 . S
C1915 C1906 1.390 . S
C1915 H1908 0.950 . S
C1915 C1912 1.387 . S
C1916 C1917 1.387 . S
C1916 H1920 0.950 . S
C1916 C1925 1.390 . S
C1917 C1916 1.387 . S
C1917 C1919 1.387 . S
H1918 C1925 0.950 . S
C1919 C1917 1.387 . S
C1919 C1921 1.390 . S
C1919 H1923 0.950 . S
H1920 C1916 0.950 . S
C1921 C1919 1.390 . S
C1921 C1922 1.387 . S
C1921 H1924 0.950 . S
C1922 C1921 1.387 . S
C1922 C1925 1.387 . S
H1923 C1919 0.950 . S
H1924 C1921 0.950 . S
C1925 C1916 1.390 . S
C1925 H1918 0.950 . S
C1925 C1922 1.387 . S
C1926 C1927 1.387 . S
C1926 H1930 0.950 . S
C1926 C1935 1.390 . S
C1927 C1926 1.387 . S
C1927 C1929 1.387 . S
H1928 C1935 0.950 . S
C1929 C1927 1.387 . S
C1929 C1931 1.390 . S
C1929 H1933 0.950 . S
H1930 C1926 0.950 . S
C1931 C1929 1.390 . S
C1931 C1932 1.387 . S
C1931 H1934 0.950 . S
C1932 C1931 1.387 . S
C1932 C1935 1.387 . S
H1933 C1929 0.950 . S
H1934 C1931 0.950 . S
C1935 C1926 1.390 . S
C1935 H1928 0.950 . S
C1935 C1932 1.387 . S
C977 C109 2.132 . S
C982 C346 2.055 . S
C987 C61 1.657 . S
C992 C385 1.750 . S
C997 C74 1.619 . S
C1002 C426 1.647 1_565 S
C1012 C471 1.520 . S
C1007 C96 1.591 . S
C1017 C25 1.990 . S
C1022 C515 2.046 . S
C1032 C546 1.499 . S
C1027 C40 1.541 . S
C1042 C594 1.976 . S
C1037 C46 1.937 . S
C1047 C5 1.433 . S
C1052 C622 1.850 . S
C1062 C354 1.812 . S
C1057 C229 1.118 . S
C1067 C249 1.611 . S
C1072 C395 1.571 . S
C1082 C434 1.654 . S
C1077 C271 1.694 1_545 S
C1092 C466 1.840 . S
C1087 C172 1.774 . S
C1097 C236 0.512 . S
C1102 C502 0.512 . S
C1112 C554 2.293 . S
C1107 C242 2.280 . S
C1122 C591 1.468 . S
C1117 C278 1.518 . S
C1132 C625 2.046 . S
C1127 C179 2.052 . S
C1142 C351 2.090 . S
C1137 C159 1.660 . S
C1147 C285 1.733 1_554 S
C1152 C665 1.849 . S
C1162 C711 1.493 . S
C1157 C333 1.600 . S
C1172 C746 1.658 1_655 S
C1167 C320 1.709 . S
C1177 C123 2.136 . S
C1182 C635 2.031 . S
C1187 C138 1.542 . S
C1192 C431 1.474 . S
C1197 C326 1.654 . S
C1202 C794 1.648 . S
C1212 C822 0.663 . S
C1207 C298 0.647 . S
C1222 C355 2.033 1_565 S
C1217 C67 2.048 . S
C1232 C834 1.689 . S
C1227 C110 1.739 . S
C1237 C88 1.628 . S
C1242 C435 1.656 . S
C1247 C75 1.483 . S
C1252 C782 1.474 . S
C1262 C506 1.953 . S
C1257 C11 1.988 . S
C1267 C47 1.486 . S
C1272 C715 1.561 . S
C1282 C585 1.921 1_566 S
C1277 C32 1.913 . S
C1292 C871 1.991 1_455 S
C1287 C26 2.144 . S
C1302 C345 1.983 . S
C1297 C152 1.866 . S
C1312 C826 1.594 . S
C1307 C319 1.651 . S
C1317 C124 1.545 . S
C1322 C425 1.643 . S
C1327 C284 1.822 . S
C1332 C795 1.852 . S
C1337 C145 0.826 . S
C1342 C511 0.484 . S
C1352 C705 2.207 . S
C1347 C312 2.209 . S
C1357 C117 1.726 . S
C1362 C582 1.417 . S
C1367 C291 1.951 . S
C1372 C874 2.003 . S
C1377 C194 2.371 1_556 S
C1382 C342 2.213 . S
C1387 C180 1.847 . S
C1392 C674 1.799 . S
C1397 C263 1.359 . S
C1402 C542 1.473 . S
C1407 C243 1.458 . S
C1412 C755 1.560 . S
C1422 C866 2.075 . S
C1417 C277 2.023 . S
C1427 C215 1.481 . S
C1432 C422 1.454 . S
C1442 C465 1.542 . S
C1437 C256 1.243 . S
C1452 C391 0.711 . S
C1447 C200 0.721 . S
C1457 C81 2.132 . S
C1462 C906 2.055 . S
C1472 C825 1.752 . S
C1467 C89 1.653 . S
C1477 C102 1.620 . S
C1482 C946 1.656 . S
C1487 C68 1.591 . S
C1492 C791 1.520 . S
C1497 C53 1.990 . S
C1502 C675 2.047 . S
C1512 C706 1.502 . S
C1507 C12 1.541 . S
C1522 C754 1.976 . S
C1517 C18 1.937 . S
C1532 C862 1.853 . S
C1527 C33 1.437 . S
C1542 C914 1.812 . S
C1537 C257 1.117 . S
C1547 C193 1.612 . S
C1552 C835 1.579 . S
C1562 C954 1.657 . S
C1557 C201 1.696 . S
C1572 C786 1.840 . S
C1567 C214 1.774 . S
C1582 C662 0.516 . S
C1577 C264 0.513 . S
C1587 C186 2.279 . S
C1592 C714 2.290 . S
C1602 C751 1.474 . S
C1597 C208 1.526 . S
C1607 C221 2.052 . S
C1612 C865 2.047 . S
C1622 C911 2.089 . S
C1617 C313 1.661 . S
C1627 C131 1.734 . S
C1632 C505 1.848 . S
C1642 C551 1.493 . S
C1637 C151 1.601 . S
C1652 C586 1.659 . S
C1647 C166 1.709 . S
C1662 C875 2.029 . S
C1657 C305 2.137 . S
C1667 C292 1.543 . S
C1672 C951 1.475 . S
C1682 C474 1.649 . S
C1677 C144 1.655 . S
C1692 C382 0.663 . S
C1687 C116 0.649 . S
C1697 C95 2.048 . S
C1702 C915 2.037 . S
C1712 C394 1.691 . S
C1707 C82 1.741 . S
C1717 C60 1.629 . S
C1722 C955 1.656 . S
C1727 C103 1.485 . S
C1732 C462 1.471 . S
C1737 C39 1.988 . S
C1742 C666 1.953 . S
C1752 C555 1.563 . S
C1747 C19 1.485 . S
C1757 C4 1.913 . S
C1762 C745 1.920 . S
C1767 C54 2.143 . S
C1772 C631 1.990 . S
C1782 C905 1.984 . S
C1777 C334 1.867 . S
C1787 C165 1.652 . S
C1792 C386 1.596 . S
C1802 C945 1.641 . S
C1797 C306 1.541 . S
C1807 C130 1.822 . S
C1812 C475 1.852 . S
C1817 C327 0.827 . S
C1822 C671 0.485 . S
C1832 C545 2.208 . S
C1827 C158 2.211 1_556 S
C1837 C299 1.728 . S
C1842 C742 1.420 . S
C1852 C634 2.004 . S
C1847 C137 1.950 . S
C1862 C902 2.213 . S
C1857 C250 2.372 . S
C1872 C514 1.798 1_655 S
C1867 C222 1.836 1_545 S
C1877 C235 1.364 . S
C1882 C702 1.477 . S
C1892 C595 1.557 . S
C1887 C187 1.455 . S
C1897 C207 2.023 . S
C1902 C626 2.078 . S
C1907 C173 1.481 . S
C1912 C942 1.454 . S
C1922 C785 1.544 . S
C1917 C228 1.243 . S
C1932 C831 0.710 . S
C1927 C270 0.716 . S
