# Generated by pormake.
# Topology pts, (4,4)-cn, num edge types: 1
# Building blocks:
#     Node 0, Type 0, BuildingBlock: ESEHIV_clean_sbu_0, # of connection points: 4
#     Node 1, Type 0, BuildingBlock: ESEHIV_clean_sbu_0, # of connection points: 4
#     Node 2, Type 1, BuildingBlock: QUQFOY_clean_sbu_1, # of connection points: 4
#     Node 3, Type 1, BuildingBlock: QUQFOY_clean_sbu_1, # of connection points: 4
#     Edge 4, Type (0, 1), BuildingBlock: UVAHIK_clean_linker_0, # of connection points: 2
#     Edge 5, Type (0, 1), BuildingBlock: UVAHIK_clean_linker_0, # of connection points: 2
#     Edge 6, Type (0, 1), BuildingBlock: UVAHIK_clean_linker_0, # of connection points: 2
#     Edge 7, Type (0, 1), BuildingBlock: UVAHIK_clean_linker_0, # of connection points: 2
#     Edge 8, Type (0, 1), BuildingBlock: UVAHIK_clean_linker_0, # of connection points: 2
#     Edge 9, Type (0, 1), BuildingBlock: UVAHIK_clean_linker_0, # of connection points: 2
#     Edge 10, Type (0, 1), BuildingBlock: UVAHIK_clean_linker_0, # of connection points: 2
#     Edge 11, Type (0, 1), BuildingBlock: UVAHIK_clean_linker_0, # of connection points: 2
# Relax obj value: 0.097
# Max RMSD: 0.250
# Mean RMSD: 0.176
data_MOF--net-pts--node1-ESEHIV_clean_sbu_0--node2-QUQFOY_clean_sbu_1--edge1-UVAHIK_clean_linker_0
_symmetry_space_group_name_H-M    P1
_symmetry_Int_Tables_number       1
_symmetry_cell_setting            triclinic
loop_
_symmetry_equiv_pos_as_xyz
'x, y, z'
_cell_length_a     30.207361
_cell_length_b     33.250646
_cell_length_c     50.778208
_cell_angle_alpha  92.751927
_cell_angle_beta   93.022825
_cell_angle_gamma 89.724421
loop_
_atom_site_label
_atom_site_type_symbol
_atom_site_fract_x
_atom_site_fract_y
_atom_site_fract_z
_atom_type_partial_charge
Cu0 Cu 0.53317 0.02358 0.00493 0.0
N1 N 0.56222 0.99331 0.97912 0.0
N2 N 0.607 0.98325 0.94574 0.0
C3 C 0.59274 0.00952 0.96453 0.0
C4 C 0.58463 0.94883 0.9488 0.0
C5 C 0.55679 0.9552 0.96936 0.0
O6 O 0.57888 0.05152 0.02708 0.0
C7 C 0.45926 0.03378 0.97438 0.0
O8 O 0.462 0.99467 0.97678 0.0
H9 H 0.60392 0.04032 0.96767 0.0
H10 H 0.5334 0.93397 0.9761 0.0
N11 N 0.50141 0.99363 0.02774 0.0
N12 N 0.45275 0.9842 0.05858 0.0
C13 C 0.47245 0.01107 0.04393 0.0
C14 C 0.50065 0.95413 0.0323 0.0
C15 C 0.47056 0.9482 0.05135 0.0
C16 C 0.6063 0.02661 0.03719 0.0
O17 O 0.60037 0.98804 0.03124 0.0
H18 H 0.46655 0.04319 0.04499 0.0
H19 H 0.52048 0.93132 0.0226 0.0
O20 O 0.48949 0.05599 0.98584 0.0
H21 H 0.58706 0.92146 0.93654 0.0
H22 H 0.46219 0.91953 0.05896 0.0
Cu23 Cu 0.06982 0.57707 0.51389 0.0
N24 N 0.1009 0.55041 0.54064 0.0
N25 N 0.11532 0.5034 0.56992 0.0
C26 C 0.09146 0.51315 0.54793 0.0
C27 C 0.141 0.53581 0.57666 0.0
C28 C 0.1321 0.56477 0.55847 0.0
O29 O 0.04696 0.53622 0.48796 0.0
C30 C 0.01493 0.61179 0.55307 0.0
O31 O 0.026 0.58042 0.56675 0.0
H32 H 0.06562 0.49455 0.53817 0.0
H33 H 0.14597 0.59473 0.55883 0.0
N34 N 0.10623 0.61166 0.49695 0.0
N35 N 0.12346 0.66341 0.47301 0.0
C36 C 0.09151 0.64537 0.48571 0.0
C37 C 0.14926 0.6084 0.49145 0.0
C38 C 0.15991 0.64022 0.47642 0.0
C39 C 0.07676 0.51352 0.4783 0.0
O40 O 0.11824 0.51977 0.48647 0.0
H41 H 0.05744 0.65558 0.48594 0.0
H42 H 0.17106 0.58422 0.49743 0.0
O43 O 0.02564 0.61258 0.52919 0.0
H44 H 0.16373 0.53875 0.59384 0.0
H45 H 0.19174 0.6457 0.46844 0.0
O46 O 0.97529 0.04207 0.24367 0.0
Cd47 Cd 0.03381 0.03372 0.26597 0.0
Cd48 Cd 0.03787 0.11878 0.26248 0.0
O49 O 0.97951 0.10797 0.24051 0.0
O50 O 0.03486 0.97506 0.27251 0.0
O51 O 0.03543 0.02189 0.30482 0.0
C52 C 0.03699 0.98422 0.29745 0.0
C53 C 0.03654 0.1734 0.29331 0.0
C54 C 0.95959 0.07481 0.23505 0.0
C55 C 0.11229 0.06994 0.24021 0.0
O56 O 0.09645 0.10499 0.24455 0.0
O57 O 0.09232 0.0391 0.24739 0.0
O58 O 0.03823 0.17843 0.26838 0.0
O59 O 0.0365 0.13691 0.30099 0.0
O60 O 0.96849 0.09631 0.76953 0.0
Cd61 Cd 0.02786 0.11133 0.7537 0.0
Cd62 Cd 0.03798 0.02568 0.74889 0.0
O63 O 0.97988 0.03064 0.76815 0.0
O64 O 0.02517 0.17058 0.74947 0.0
O65 O 0.03201 0.1267 0.71586 0.0
C66 C 0.03004 0.16378 0.7246 0.0
C67 C 0.03686 0.97192 0.71708 0.0
C68 C 0.9563 0.06098 0.77442 0.0
C69 C 0.10848 0.0733 0.78094 0.0
O70 O 0.09611 0.03916 0.77083 0.0
O71 O 0.08556 0.10472 0.77676 0.0
O72 O 0.04125 0.96621 0.74197 0.0
O73 O 0.035 0.00867 0.70993 0.0
C74 C 0.39563 0.02917 0.07738 0.0
C75 C 0.4197 0.99282 0.07769 0.0
C76 C 0.36452 0.03829 0.09614 0.0
C77 C 0.32904 0.0103 0.16177 0.0
H78 H 0.22186 0.06726 0.14011 0.0
C79 C 0.17451 0.02671 0.22437 0.0
C80 C 0.15273 0.06421 0.22515 0.0
C81 C 0.20987 0.01964 0.20809 0.0
C82 C 0.25188 0.0518 0.14654 0.0
H83 H 0.42913 0.93741 0.0982 0.0
H84 H 0.37357 0.95266 0.13033 0.0
H85 H 0.27639 0.04997 0.10782 0.0
H86 H 0.15205 0.12415 0.21006 0.0
H87 H 0.2137 0.11161 0.18139 0.0
H88 H 0.30348 0.01126 0.20041 0.0
C89 C 0.37965 0.97457 0.11585 0.0
C90 C 0.28324 0.04188 0.12803 0.0
C91 C 0.41119 0.96556 0.09716 0.0
C92 C 0.1681 0.09494 0.20992 0.0
C93 C 0.20319 0.0877 0.19338 0.0
C94 C 0.29738 0.01989 0.18024 0.0
C95 C 0.35597 0.01114 0.1156 0.0
C96 C 0.32233 0.02108 0.13538 0.0
C97 C 0.22397 0.04977 0.192 0.0
C98 C 0.25852 0.04082 0.17281 0.0
H99 H 0.40043 0.05078 0.06256 0.0
H100 H 0.34749 0.06699 0.09548 0.0
H101 H 0.35901 0.99487 0.16828 0.0
H102 H 0.16363 1.00242 0.23593 0.0
H103 H 0.22505 0.99005 0.20733 0.0
C104 C 0.1143 0.4698 0.61229 0.0
C105 C 0.11001 0.46781 0.58457 0.0
C106 C 0.10549 0.43603 0.62655 0.0
C107 C 0.09786 0.3256 0.62202 0.0
H108 H 0.02086 0.34089 0.68041 0.0
C109 C 0.03785 0.19133 0.67973 0.0
C110 C 0.03549 0.19775 0.70718 0.0
C111 C 0.04527 0.22363 0.66377 0.0
C112 C 0.04289 0.33606 0.66441 0.0
H113 H 0.09485 0.42849 0.55006 0.0
H114 H 0.07992 0.36928 0.57498 0.0
H115 H 0.03962 0.39816 0.65507 0.0
H116 H 0.03915 0.24316 0.73936 0.0
H117 H 0.05314 0.29885 0.71188 0.0
H118 H 0.10209 0.26369 0.6317 0.0
C119 C 0.08981 0.39705 0.58565 0.0
C120 C 0.05355 0.36895 0.64985 0.0
C121 C 0.09807 0.43097 0.57141 0.0
C122 C 0.04037 0.23712 0.71826 0.0
C123 C 0.04816 0.26923 0.70241 0.0
C124 C 0.08761 0.29269 0.63679 0.0
C125 C 0.09275 0.3994 0.61339 0.0
C126 C 0.08133 0.36416 0.62861 0.0
C127 C 0.05083 0.26302 0.67494 0.0
C128 C 0.0602 0.29753 0.65832 0.0
H129 H 0.12306 0.49781 0.623 0.0
H130 H 0.10843 0.43862 0.64791 0.0
H131 H 0.11956 0.32105 0.60582 0.0
H132 H 0.03416 0.16135 0.67058 0.0
H133 H 0.04649 0.21772 0.64266 0.0
C134 C 0.67492 0.00982 0.0635 0.0
C135 C 0.64373 0.03904 0.05577 0.0
C136 C 0.70932 0.01943 0.08195 0.0
C137 C 0.7425 0.09016 0.13698 0.0
H138 H 0.8563 0.03774 0.12865 0.0
C139 C 0.89819 0.11021 0.21008 0.0
C140 C 0.91971 0.07414 0.21674 0.0
C141 C 0.86346 0.10999 0.19071 0.0
C142 C 0.82465 0.05246 0.13129 0.0
H143 H 0.62464 0.10168 0.06119 0.0
H144 H 0.68573 0.11881 0.09372 0.0
H145 H 0.79967 0.0327 0.09275 0.0
H146 H 0.92057 0.00945 0.20884 0.0
H147 H 0.86038 0.00921 0.17486 0.0
H148 H 0.76814 0.10995 0.1757 0.0
C149 C 0.68298 0.08825 0.08543 0.0
C150 C 0.79219 0.04963 0.11074 0.0
C151 C 0.64823 0.07855 0.06673 0.0
C152 C 0.90478 0.03774 0.20421 0.0
C153 C 0.87052 0.03762 0.18462 0.0
C154 C 0.77535 0.09337 0.15754 0.0
C155 C 0.71389 0.05866 0.09323 0.0
C156 C 0.75024 0.06736 0.1136 0.0
C157 C 0.85005 0.07379 0.17736 0.0
C158 C 0.81626 0.07357 0.1551 0.0
H159 H 0.6726 0.97905 0.05554 0.0
H160 H 0.73183 0.99565 0.08784 0.0
H161 H 0.71048 0.10399 0.13987 0.0
H162 H 0.90878 0.13876 0.21945 0.0
H163 H 0.84823 0.13827 0.18547 0.0
C164 C 0.99793 0.68585 0.55372 0.0
C165 C 1.00089 0.64964 0.56698 0.0
C166 C 0.99377 0.72276 0.56783 0.0
C167 C 0.97108 0.7694 0.63412 0.0
H168 H 0.05125 0.85233 0.61446 0.0
C169 C 0.02989 0.89789 0.70689 0.0
C170 C 0.03154 0.93711 0.69781 0.0
C171 C 0.02181 0.86491 0.68928 0.0
C172 C 0.02822 0.82975 0.61999 0.0
H173 H 0.9987 0.6238 0.60531 0.0
H174 H 0.99182 0.68788 0.62983 0.0
H175 H 0.04159 0.79098 0.58648 0.0
H176 H 0.02677 0.9723 0.66291 0.0
H177 H 0.01305 0.91431 0.63194 0.0
H178 H 0.95883 0.8077 0.66807 0.0
C179 C 0.99247 0.68792 0.60853 0.0
C180 C 0.02252 0.79457 0.60391 0.0
C181 C 0.99656 0.65104 0.59443 0.0
C182 C 0.02581 0.94247 0.67053 0.0
C183 C 0.01798 0.90928 0.65281 0.0
C184 C 0.97694 0.80445 0.65023 0.0
C185 C 0.99242 0.72435 0.59551 0.0
C186 C 0.99449 0.7636 0.61102 0.0
C187 C 0.01534 0.87018 0.66206 0.0
C188 C 0.00623 0.83469 0.64363 0.0
H189 H 1.00096 0.68593 0.53256 0.0
H190 H 0.99292 0.75016 0.55711 0.0
H191 H 0.9486 0.74657 0.63996 0.0
H192 H 0.03423 0.89258 0.72775 0.0
H193 H 0.02084 0.83514 0.69701 0.0
C194 C 0.38422 0.02518 0.95292 0.0
C195 C 0.42156 0.04979 0.95828 0.0
C196 C 0.34986 0.03674 0.93561 0.0
C197 C 0.32619 0.09802 0.87856 0.0
H198 H 0.2062 0.06368 0.88945 0.0
C199 C 0.16859 0.11349 0.80594 0.0
C200 C 0.14797 0.07615 0.79948 0.0
C201 C 0.20317 0.1167 0.82541 0.0
C202 C 0.23952 0.0736 0.88622 0.0
H203 H 0.45153 0.10669 0.95032 0.0
H204 H 0.39056 0.12738 0.91971 0.0
H205 H 0.26248 0.0616 0.92555 0.0
H206 H 0.1482 0.01282 0.80796 0.0
H207 H 0.20774 0.01876 0.84236 0.0
H208 H 0.30248 0.1099 0.83899 0.0
C209 C 0.38837 0.09883 0.92896 0.0
C210 C 0.2718 0.07236 0.90682 0.0
C211 C 0.42305 0.08719 0.94658 0.0
C212 C 0.16343 0.04197 0.81239 0.0
C213 C 0.1973 0.04536 0.83216 0.0
C214 C 0.29352 0.09987 0.85798 0.0
C215 C 0.35157 0.07342 0.92311 0.0
C216 C 0.31595 0.08297 0.90296 0.0
C217 C 0.21702 0.0828 0.83907 0.0
C218 C 0.25035 0.0863 0.86144 0.0
H219 H 0.38184 0.99623 0.96167 0.0
H220 H 0.32262 0.01599 0.93128 0.0
H221 H 0.35988 0.10622 0.87487 0.0
H222 H 0.15749 0.14035 0.79626 0.0
H223 H 0.21798 0.14586 0.83045 0.0
C224 C 0.02266 0.46703 0.45241 0.0
C225 C 0.06631 0.48029 0.45849 0.0
C226 C 0.01433 0.43459 0.43408 0.0
C227 C 0.06459 0.37952 0.37827 0.0
H228 H 0.98921 0.29052 0.39373 0.0
C229 C 0.03184 0.24772 0.30271 0.0
C230 C 0.03441 0.2087 0.31218 0.0
C231 C 0.03062 0.28138 0.32016 0.0
C232 C 0.01044 0.31513 0.38919 0.0
H233 H 0.13528 0.47001 0.44998 0.0
H234 H 0.12079 0.41423 0.41834 0.0
H235 H 0.99626 0.34921 0.42478 0.0
H236 H 0.03672 0.17441 0.34748 0.0
H237 H 0.03534 0.23348 0.37812 0.0
H238 H 0.07998 0.34543 0.34322 0.0
C239 C 0.09292 0.42879 0.42748 0.0
C240 C 0.01405 0.3489 0.40681 0.0
C241 C 0.10122 0.46072 0.44579 0.0
C242 C 0.03488 0.20408 0.33957 0.0
C243 C 0.03373 0.23791 0.3571 0.0
C244 C 0.06088 0.34601 0.36069 0.0
C245 C 0.04948 0.41532 0.42134 0.0
C246 C 0.04176 0.38116 0.4017 0.0
C247 C 0.03211 0.27699 0.34759 0.0
C248 C 0.03416 0.3132 0.36603 0.0
H249 H 0.9951 0.4814 0.46196 0.0
H250 H 0.98047 0.42489 0.42966 0.0
H251 H 0.08587 0.40406 0.37364 0.0
H252 H 0.03094 0.2524 0.28173 0.0
H253 H 0.0286 0.31096 0.31213 0.0
C254 C 0.64507 0.03093 0.91865 0.0
C255 C 0.6383 0.9913 0.92613 0.0
C256 C 0.67645 0.03921 0.90045 0.0
C257 C 0.74195 0.99271 0.84766 0.0
H258 H 0.81962 0.08418 0.86368 0.0
C259 C 0.90248 0.01526 0.79385 0.0
C260 C 0.9154 0.05457 0.78862 0.0
C261 C 0.86587 0.00872 0.80871 0.0
C262 C 0.79776 0.05893 0.85865 0.0
H263 H 0.65901 0.92923 0.91986 0.0
H264 H 0.71386 0.94368 0.88793 0.0
H265 H 0.76148 0.06995 0.89335 0.0
H266 H 0.89896 0.11783 0.79439 0.0
H267 H 0.83449 0.10635 0.82018 0.0
H268 H 0.77839 0.98156 0.81302 0.0
C269 C 0.69452 0.96831 0.89612 0.0
C270 C 0.76448 0.0507 0.87571 0.0
C271 C 0.6631 0.96001 0.91442 0.0
C272 C 0.89003 0.08719 0.79811 0.0
C273 C 0.85325 0.08061 0.81303 0.0
C274 C 0.77516 1.00102 0.83054 0.0
C275 C 0.70183 0.00808 0.88913 0.0
C276 C 0.7364 0.01731 0.87053 0.0
C277 C 0.84103 0.04128 0.81874 0.0
C278 C 0.80376 0.03402 0.83595 0.0
H279 H 0.62589 0.05571 0.92671 0.0
H280 H 0.68065 0.07006 0.89511 0.0
H281 H 0.72042 0.96715 0.84289 0.0
H282 H 0.92118 0.98935 0.78689 0.0
H283 H 0.85787 0.97809 0.81301 0.0
C284 C 0.09049 0.73016 0.46534 0.0
C285 C 0.11797 0.69814 0.45728 0.0
C286 C 0.08256 0.76268 0.44924 0.0
C287 C 0.07364 0.78691 0.38063 0.0
H288 H 0.0913 0.8983 0.40488 0.0
C289 C 0.05877 0.91415 0.30801 0.0
C290 C 0.04357 0.95227 0.31664 0.0
C291 C 0.06718 0.88406 0.32586 0.0
C292 C 0.08534 0.86746 0.39786 0.0
H293 H 0.15889 0.67505 0.42623 0.0
H294 H 0.14414 0.73155 0.39767 0.0
H295 H 0.10809 0.84453 0.43505 0.0
H296 H 0.0246 0.98861 0.35077 0.0
H297 H 0.03727 0.93541 0.38194 0.0
H298 H 0.04925 0.80915 0.3439 0.0
C299 C 0.12922 0.73161 0.41661 0.0
C300 C 0.09533 0.83669 0.41513 0.0
C301 C 0.1379 0.69951 0.43297 0.0
C302 C 0.03639 0.95952 0.34356 0.0
C303 C 0.04405 0.92905 0.36144 0.0
C304 C 0.06281 0.81758 0.36354 0.0
C305 C 0.10122 0.76333 0.42452 0.0
C306 C 0.09009 0.79615 0.40654 0.0
C307 C 0.05979 0.89089 0.35284 0.0
C308 C 0.06908 0.85835 0.37173 0.0
H309 H 0.07494 0.72984 0.48406 0.0
H310 H 0.06074 0.78671 0.45573 0.0
H311 H 0.06857 0.75587 0.37368 0.0
H312 H 0.06525 0.90772 0.28745 0.0
H313 H 0.08036 0.85565 0.31842 0.0
loop_
_geom_bond_atom_site_label_1
_geom_bond_atom_site_label_2
_geom_bond_distance
_geom_bond_site_symmetry_2
_ccdc_geom_bond_type
Cu0 N1 1.999 1_554 S
Cu0 O6 1.974 . S
Cu0 N11 1.985 . S
Cu0 O20 1.959 1_554 S
N1 Cu0 1.999 1_556 S
N1 C3 1.263 . S
N1 C5 1.389 . S
N2 C3 1.358 . S
N2 C4 1.400 . S
C3 N1 1.263 . S
C3 N2 1.358 . S
C3 H9 0.930 . S
C4 N2 1.400 . S
C4 C5 1.351 . S
C4 H21 0.930 . S
C5 N1 1.389 . S
C5 C4 1.351 . S
C5 H10 0.930 . S
O6 Cu0 1.974 . S
O6 C16 1.282 . S
C7 O8 1.261 . S
C7 O20 1.251 . S
O8 C7 1.261 . S
H9 C3 0.930 . S
H10 C5 0.930 . S
N11 Cu0 1.985 . S
N11 C13 1.335 . S
N11 C14 1.390 . S
N12 C13 1.345 . S
N12 C15 1.336 . S
C13 N11 1.335 . S
C13 N12 1.345 . S
C13 H18 0.930 . S
C14 N11 1.390 . S
C14 C15 1.346 . S
C14 H19 0.930 . S
C15 N12 1.336 . S
C15 C14 1.346 . S
C15 H22 0.929 . S
C16 O6 1.282 . S
C16 O17 1.216 . S
O17 C16 1.216 . S
H18 C13 0.930 . S
H19 C14 0.930 . S
O20 Cu0 1.959 1_556 S
O20 C7 1.251 . S
H21 C4 0.930 . S
H22 C15 0.929 . S
Cu23 N24 1.999 . S
Cu23 O29 1.974 . S
Cu23 N34 1.985 . S
Cu23 O43 1.959 . S
N24 Cu23 1.999 . S
N24 C26 1.263 . S
N24 C28 1.389 1_455 S
N25 C26 1.358 . S
N25 C27 1.400 1_455 S
C26 N24 1.263 . S
C26 N25 1.358 . S
C26 H32 0.930 . S
C27 N25 1.400 1_655 S
C27 C28 1.351 . S
C27 H44 0.930 . S
C28 N24 1.389 1_655 S
C28 C27 1.351 . S
C28 H33 0.930 . S
O29 Cu23 1.974 . S
O29 C39 1.282 . S
C30 O31 1.261 . S
C30 O43 1.251 . S
O31 C30 1.261 . S
H32 C26 0.930 . S
H33 C28 0.930 . S
N34 Cu23 1.985 . S
N34 C36 1.335 . S
N34 C37 1.390 . S
N35 C36 1.345 . S
N35 C38 1.336 . S
C36 N34 1.335 . S
C36 N35 1.345 . S
C36 H41 0.943 . S
C37 N34 1.390 . S
C37 C38 1.346 . S
C37 H42 0.930 . S
C38 N35 1.336 . S
C38 C37 1.346 . S
C38 H45 0.929 . S
C39 O29 1.282 . S
C39 O40 1.216 . S
O40 C39 1.216 . S
H41 C36 0.943 . S
H42 C37 0.930 . S
O43 Cu23 1.959 . S
O43 C30 1.251 . S
H44 C27 0.930 . S
H45 C38 0.929 . S
O46 Cd47 2.225 . S
O46 C54 1.315 1_455 S
Cd47 O46 2.225 . S
Cd47 O50 2.281 1_545 S
Cd47 O51 2.439 . S
Cd47 O57 2.260 . S
Cd48 O49 2.240 1_455 S
Cd48 O56 2.223 . S
Cd48 O58 2.297 . S
Cd48 O59 2.439 . S
O49 Cd48 2.240 1_655 S
O49 C54 1.279 . S
O50 Cd47 2.281 1_565 S
O50 C52 1.247 . S
O51 Cd47 2.439 . S
O51 C52 1.208 1_545 S
C52 O50 1.247 . S
C52 O51 1.208 1_565 S
C53 O58 1.247 . S
C53 O59 1.208 . S
C54 O46 1.315 1_655 S
C54 O49 1.279 . S
C55 O56 1.315 . S
C55 O57 1.279 . S
O56 Cd48 2.223 . S
O56 C55 1.315 . S
O57 Cd47 2.260 . S
O57 C55 1.279 . S
O58 Cd48 2.297 . S
O58 C53 1.247 . S
O59 Cd48 2.439 . S
O59 C53 1.208 . S
O60 Cd61 2.223 . S
O60 C68 1.315 . S
Cd61 O60 2.223 . S
Cd61 O64 2.297 . S
Cd61 O65 2.439 . S
Cd61 O71 2.240 . S
Cd62 O63 2.240 1_565 S
Cd62 O70 2.223 . S
Cd62 O72 2.297 . S
Cd62 O73 2.439 . S
O63 Cd62 2.240 1_545 S
O63 C68 1.279 . S
O64 Cd61 2.297 . S
O64 C66 1.247 . S
O65 Cd61 2.439 . S
O65 C66 1.208 . S
C66 O64 1.247 . S
C66 O65 1.208 . S
C67 O72 1.247 . S
C67 O73 1.208 . S
C68 O60 1.315 . S
C68 O63 1.279 . S
C69 O70 1.315 1_545 S
C69 O71 1.279 . S
O70 Cd62 2.223 . S
O70 C69 1.315 1_565 S
O71 Cd61 2.240 . S
O71 C69 1.279 . S
O72 Cd62 2.297 . S
O72 C67 1.247 . S
O73 Cd62 2.439 . S
O73 C67 1.208 . S
C74 C75 1.349 . S
C74 C76 1.327 . S
C74 H99 0.950 . S
C75 C74 1.349 . S
C75 C91 1.349 . S
C76 C74 1.327 . S
C76 C95 1.429 . S
C76 H100 0.950 . S
C77 C94 1.574 . S
C77 C96 1.368 . S
C77 H101 0.949 . S
H78 C82 0.949 . S
C79 C80 1.349 . S
C79 C81 1.327 . S
C79 H102 0.950 . S
C80 C79 1.349 . S
C80 C92 1.349 . S
C81 C79 1.327 . S
C81 C97 1.429 . S
C81 H103 0.950 . S
C82 H78 0.949 . S
C82 C90 1.574 . S
C82 C98 1.368 . S
H83 C91 0.950 . S
H84 C89 0.950 . S
H85 C90 0.949 . S
H86 C92 0.950 . S
H87 C93 0.950 . S
H88 C94 0.949 . S
C89 H84 0.950 . S
C89 C91 1.327 . S
C89 C95 1.429 . S
C90 C82 1.574 . S
C90 H85 0.949 . S
C90 C96 1.368 . S
C91 C75 1.349 . S
C91 H83 0.950 . S
C91 C89 1.327 . S
C92 C80 1.349 . S
C92 H86 0.950 . S
C92 C93 1.327 . S
C93 H87 0.950 . S
C93 C92 1.327 . S
C93 C97 1.429 . S
C94 C77 1.574 . S
C94 H88 0.949 . S
C94 C98 1.368 . S
C95 C76 1.429 . S
C95 C89 1.429 . S
C95 C96 1.523 . S
C96 C77 1.368 . S
C96 C90 1.368 . S
C96 C95 1.523 . S
C97 C81 1.429 . S
C97 C93 1.429 . S
C97 C98 1.523 . S
C98 C82 1.368 . S
C98 C94 1.368 . S
C98 C97 1.523 . S
H99 C74 0.950 . S
H100 C76 0.950 . S
H101 C77 0.949 . S
H102 C79 0.950 . S
H103 C81 0.950 . S
C104 C105 1.349 . S
C104 C106 1.327 . S
C104 H129 0.950 . S
C105 C104 1.349 . S
C105 C121 1.349 . S
C106 C104 1.327 . S
C106 C125 1.429 . S
C106 H130 0.955 . S
C107 C124 1.574 . S
C107 C126 1.368 . S
C107 H131 0.949 . S
H108 C112 0.949 1_655 S
C109 C110 1.349 . S
C109 C111 1.327 . S
C109 H132 0.950 . S
C110 C109 1.349 . S
C110 C122 1.349 . S
C111 C109 1.327 . S
C111 C127 1.429 . S
C111 H133 0.950 . S
C112 H108 0.949 1_455 S
C112 C120 1.574 . S
C112 C128 1.368 . S
H113 C121 0.950 . S
H114 C119 0.950 . S
H115 C120 0.947 1_655 S
H116 C122 0.950 1_655 S
H117 C123 0.950 1_655 S
H118 C124 0.949 . S
C119 H114 0.950 . S
C119 C121 1.327 . S
C119 C125 1.429 . S
C120 C112 1.574 . S
C120 H115 0.947 1_455 S
C120 C126 1.368 . S
C121 C105 1.349 . S
C121 H113 0.950 . S
C121 C119 1.327 . S
C122 C110 1.349 . S
C122 H116 0.950 1_455 S
C122 C123 1.327 . S
C123 H117 0.950 1_455 S
C123 C122 1.327 . S
C123 C127 1.429 . S
C124 C107 1.574 . S
C124 H118 0.949 . S
C124 C128 1.368 . S
C125 C106 1.429 . S
C125 C119 1.429 . S
C125 C126 1.523 . S
C126 C107 1.368 . S
C126 C120 1.368 . S
C126 C125 1.523 . S
C127 C111 1.429 . S
C127 C123 1.429 . S
C127 C128 1.523 . S
C128 C112 1.368 . S
C128 C124 1.368 . S
C128 C127 1.523 . S
H129 C104 0.950 . S
H130 C106 0.955 . S
H131 C107 0.949 . S
H132 C109 0.950 . S
H133 C111 0.950 . S
C134 C135 1.349 . S
C134 C136 1.327 . S
C134 H159 0.950 . S
C135 C134 1.349 . S
C135 C151 1.349 . S
C136 C134 1.327 . S
C136 C155 1.429 . S
C136 H160 0.950 . S
C137 C154 1.574 . S
C137 C156 1.368 . S
C137 H161 0.949 . S
H138 C142 0.949 1_565 S
C139 C140 1.349 . S
C139 C141 1.327 . S
C139 H162 0.950 . S
C140 C139 1.349 . S
C140 C152 1.349 . S
C141 C139 1.327 . S
C141 C157 1.429 . S
C141 H163 0.950 . S
C142 H138 0.949 1_545 S
C142 C150 1.574 . S
C142 C158 1.368 . S
H143 C151 0.950 . S
H144 C149 0.950 . S
H145 C150 0.949 . S
H146 C152 0.950 1_565 S
H147 C153 0.950 1_565 S
H148 C154 0.949 . S
C149 H144 0.950 . S
C149 C151 1.327 . S
C149 C155 1.429 . S
C150 C142 1.574 . S
C150 H145 0.949 . S
C150 C156 1.368 . S
C151 C135 1.349 . S
C151 H143 0.950 . S
C151 C149 1.327 . S
C152 C140 1.349 . S
C152 H146 0.950 1_545 S
C152 C153 1.327 . S
C153 H147 0.950 1_545 S
C153 C152 1.327 . S
C153 C157 1.429 . S
C154 C137 1.574 . S
C154 H148 0.949 . S
C154 C158 1.368 . S
C155 C136 1.429 . S
C155 C149 1.429 . S
C155 C156 1.523 . S
C156 C137 1.368 . S
C156 C150 1.368 . S
C156 C155 1.523 . S
C157 C141 1.429 . S
C157 C153 1.429 . S
C157 C158 1.523 . S
C158 C142 1.368 . S
C158 C154 1.368 . S
C158 C157 1.523 . S
H159 C134 0.950 . S
H160 C136 0.950 . S
H161 C137 0.949 . S
H162 C139 0.950 . S
H163 C141 0.950 . S
C164 C165 1.349 . S
C164 C166 1.327 . S
C164 H189 0.950 . S
C165 C164 1.349 . S
C165 C181 1.349 . S
C166 C164 1.327 . S
C166 C185 1.429 . S
C166 H190 0.950 . S
C167 C184 1.574 . S
C167 C186 1.368 . S
C167 H191 0.949 . S
H168 C172 0.949 . S
C169 C170 1.349 . S
C169 C171 1.327 . S
C169 H192 0.950 . S
C170 C169 1.349 . S
C170 C182 1.349 . S
C171 C169 1.327 . S
C171 C187 1.429 . S
C171 H193 0.950 . S
C172 H168 0.949 . S
C172 C180 1.574 . S
C172 C188 1.368 . S
H173 C181 0.950 . S
H174 C179 0.950 . S
H175 C180 0.949 . S
H176 C182 0.950 . S
H177 C183 0.950 . S
H178 C184 0.949 . S
C179 H174 0.950 . S
C179 C181 1.327 . S
C179 C185 1.429 . S
C180 C172 1.574 . S
C180 H175 0.949 . S
C180 C186 1.368 . S
C181 C165 1.349 . S
C181 H173 0.950 . S
C181 C179 1.327 . S
C182 C170 1.349 . S
C182 H176 0.950 . S
C182 C183 1.327 . S
C183 H177 0.950 . S
C183 C182 1.327 . S
C183 C187 1.429 . S
C184 C167 1.574 . S
C184 H178 0.949 . S
C184 C188 1.368 . S
C185 C166 1.429 . S
C185 C179 1.429 . S
C185 C186 1.523 . S
C186 C167 1.368 . S
C186 C180 1.368 . S
C186 C185 1.523 . S
C187 C171 1.429 . S
C187 C183 1.429 . S
C187 C188 1.523 . S
C188 C172 1.368 . S
C188 C184 1.368 . S
C188 C187 1.523 . S
H189 C164 0.950 . S
H190 C166 0.950 . S
H191 C167 0.949 . S
H192 C169 0.950 . S
H193 C171 0.950 . S
C194 C195 1.349 . S
C194 C196 1.327 . S
C194 H219 0.950 1_545 S
C195 C194 1.349 . S
C195 C211 1.349 . S
C196 C194 1.327 . S
C196 C215 1.429 . S
C196 H220 0.950 1_545 S
C197 C214 1.574 . S
C197 C216 1.368 . S
C197 H221 0.949 . S
H198 C202 0.949 1_565 S
C199 C200 1.349 . S
C199 C201 1.327 . S
C199 H222 0.950 . S
C200 C199 1.349 . S
C200 C212 1.349 1_545 S
C201 C199 1.327 . S
C201 C217 1.429 . S
C201 H223 0.950 . S
C202 H198 0.949 1_545 S
C202 C210 1.574 . S
C202 C218 1.368 . S
H203 C211 0.950 . S
H204 C209 0.950 . S
H205 C210 0.949 1_565 S
H206 C212 0.950 . S
H207 C213 0.950 . S
H208 C214 0.949 . S
C209 H204 0.950 . S
C209 C211 1.327 . S
C209 C215 1.429 . S
C210 C202 1.574 . S
C210 H205 0.949 1_545 S
C210 C216 1.368 . S
C211 C195 1.349 . S
C211 H203 0.950 . S
C211 C209 1.327 . S
C212 C200 1.349 1_565 S
C212 H206 0.950 . S
C212 C213 1.327 . S
C213 H207 0.950 . S
C213 C212 1.327 . S
C213 C217 1.429 1_565 S
C214 C197 1.574 . S
C214 H208 0.949 . S
C214 C218 1.368 . S
C215 C196 1.429 . S
C215 C209 1.429 . S
C215 C216 1.523 . S
C216 C197 1.368 . S
C216 C210 1.368 . S
C216 C215 1.523 . S
C217 C201 1.429 . S
C217 C213 1.429 1_545 S
C217 C218 1.523 . S
C218 C202 1.368 . S
C218 C214 1.368 . S
C218 C217 1.523 . S
H219 C194 0.950 1_565 S
H220 C196 0.950 1_565 S
H221 C197 0.949 . S
H222 C199 0.950 . S
H223 C201 0.950 . S
C224 C225 1.349 . S
C224 C226 1.327 . S
C224 H249 0.950 . S
C225 C224 1.349 . S
C225 C241 1.349 . S
C226 C224 1.327 . S
C226 C245 1.429 . S
C226 H250 0.950 . S
C227 C244 1.574 . S
C227 C246 1.368 . S
C227 H251 0.949 . S
H228 C232 0.949 . S
C229 C230 1.349 . S
C229 C231 1.327 . S
C229 H252 0.950 . S
C230 C229 1.349 . S
C230 C242 1.349 . S
C231 C229 1.327 . S
C231 C247 1.429 . S
C231 H253 0.950 . S
C232 H228 0.949 . S
C232 C240 1.574 . S
C232 C248 1.368 . S
H233 C241 0.950 . S
H234 C239 0.950 . S
H235 C240 0.949 . S
H236 C242 0.950 . S
H237 C243 0.950 . S
H238 C244 0.949 . S
C239 H234 0.950 . S
C239 C241 1.327 . S
C239 C245 1.429 . S
C240 C232 1.574 . S
C240 H235 0.949 . S
C240 C246 1.368 . S
C241 C225 1.349 . S
C241 H233 0.950 . S
C241 C239 1.327 . S
C242 C230 1.349 . S
C242 H236 0.950 . S
C242 C243 1.327 . S
C243 H237 0.950 . S
C243 C242 1.327 . S
C243 C247 1.429 . S
C244 C227 1.574 . S
C244 H238 0.949 . S
C244 C248 1.368 . S
C245 C226 1.429 . S
C245 C239 1.429 . S
C245 C246 1.523 . S
C246 C227 1.368 . S
C246 C240 1.368 . S
C246 C245 1.523 . S
C247 C231 1.429 . S
C247 C243 1.429 . S
C247 C248 1.523 . S
C248 C232 1.368 . S
C248 C244 1.368 . S
C248 C247 1.523 . S
H249 C224 0.950 . S
H250 C226 0.950 . S
H251 C227 0.949 . S
H252 C229 0.950 . S
H253 C231 0.950 . S
C254 C255 1.349 . S
C254 C256 1.327 . S
C254 H279 0.950 . S
C255 C254 1.349 . S
C255 C271 1.349 . S
C256 C254 1.327 . S
C256 C275 1.429 . S
C256 H280 0.950 . S
C257 C274 1.574 . S
C257 C276 1.368 . S
C257 H281 0.949 . S
H258 C262 0.949 . S
C259 C260 1.349 . S
C259 C261 1.327 . S
C259 H282 0.950 . S
C260 C259 1.349 . S
C260 C272 1.349 . S
C261 C259 1.327 . S
C261 C277 1.429 . S
C261 H283 0.950 . S
C262 H258 0.949 . S
C262 C270 1.574 . S
C262 C278 1.368 . S
H263 C271 0.950 . S
H264 C269 0.950 . S
H265 C270 0.949 . S
H266 C272 0.950 . S
H267 C273 0.950 . S
H268 C274 0.949 . S
C269 H264 0.950 . S
C269 C271 1.327 . S
C269 C275 1.429 . S
C270 C262 1.574 . S
C270 H265 0.949 . S
C270 C276 1.368 . S
C271 C255 1.349 . S
C271 H263 0.950 . S
C271 C269 1.327 . S
C272 C260 1.349 . S
C272 H266 0.950 . S
C272 C273 1.327 . S
C273 H267 0.950 . S
C273 C272 1.327 . S
C273 C277 1.429 . S
C274 C257 1.574 . S
C274 H268 0.949 . S
C274 C278 1.368 . S
C275 C256 1.429 . S
C275 C269 1.429 . S
C275 C276 1.523 . S
C276 C257 1.368 . S
C276 C270 1.368 . S
C276 C275 1.523 . S
C277 C261 1.429 . S
C277 C273 1.429 . S
C277 C278 1.523 . S
C278 C262 1.368 . S
C278 C274 1.368 . S
C278 C277 1.523 . S
H279 C254 0.950 . S
H280 C256 0.950 . S
H281 C257 0.949 . S
H282 C259 0.950 . S
H283 C261 0.950 . S
C284 C285 1.349 . S
C284 C286 1.327 . S
C284 H309 0.950 . S
C285 C284 1.349 . S
C285 C301 1.349 1_455 S
C286 C284 1.327 . S
C286 C305 1.429 . S
C286 H310 0.950 . S
C287 C304 1.574 . S
C287 C306 1.368 1_655 S
C287 H311 0.949 . S
H288 C292 0.949 . S
C289 C290 1.349 1_655 S
C289 C291 1.327 . S
C289 H312 0.950 . S
C290 C289 1.349 1_455 S
C290 C302 1.349 . S
C291 C289 1.327 . S
C291 C307 1.429 1_655 S
C291 H313 0.950 . S
C292 H288 0.949 . S
C292 C300 1.574 . S
C292 C308 1.368 . S
H293 C301 0.950 . S
H294 C299 0.950 . S
H295 C300 0.949 . S
H296 C302 0.950 . S
H297 C303 0.950 . S
H298 C304 0.949 . S
C299 H294 0.950 . S
C299 C301 1.327 . S
C299 C305 1.429 1_655 S
C300 C292 1.574 . S
C300 H295 0.949 . S
C300 C306 1.368 . S
C301 C285 1.349 1_655 S
C301 H293 0.950 . S
C301 C299 1.327 . S
C302 C290 1.349 . S
C302 H296 0.950 . S
C302 C303 1.327 . S
C303 H297 0.950 . S
C303 C302 1.327 . S
C303 C307 1.429 . S
C304 C287 1.574 . S
C304 H298 0.949 . S
C304 C308 1.368 1_655 S
C305 C286 1.429 . S
C305 C299 1.429 1_455 S
C305 C306 1.523 . S
C306 C287 1.368 1_455 S
C306 C300 1.368 . S
C306 C305 1.523 . S
C307 C291 1.429 1_455 S
C307 C303 1.429 . S
C307 C308 1.523 . S
C308 C292 1.368 . S
C308 C304 1.368 1_455 S
C308 C307 1.523 . S
H309 C284 0.950 . S
H310 C286 0.950 . S
H311 C287 0.949 . S
H312 C289 0.950 . S
H313 C291 0.950 . S
C80 C55 1.548 . S
C75 N12 1.507 . S
C110 C66 1.530 . S
C105 N25 1.545 . S
C140 C54 1.546 . S
C135 C16 1.533 . S
C170 C67 1.533 . S
C165 C30 1.591 . S
C200 C69 1.591 . S
C195 C7 1.589 . S
C230 C53 1.482 . S
C225 C39 1.529 . S
C260 C68 1.585 1_655 S
C255 N2 1.543 . S
C285 N35 1.509 . S
C290 C52 1.492 . S
