# Generated by pormake.
# Topology ocu, (6,8)-cn, num edge types: 1
# Building blocks:
#     Node 0, Type 0, BuildingBlock: KUMBUR_clean_sbu_1, # of connection points: 6
#     Node 1, Type 0, BuildingBlock: KUMBUR_clean_sbu_1, # of connection points: 6
#     Node 2, Type 0, BuildingBlock: KUMBUR_clean_sbu_1, # of connection points: 6
#     Node 3, Type 0, BuildingBlock: KUMBUR_clean_sbu_1, # of connection points: 6
#     Node 4, Type 0, BuildingBlock: KUMBUR_clean_sbu_1, # of connection points: 6
#     Node 5, Type 0, BuildingBlock: KUMBUR_clean_sbu_1, # of connection points: 6
#     Node 6, Type 0, BuildingBlock: KUMBUR_clean_sbu_1, # of connection points: 6
#     Node 7, Type 0, BuildingBlock: KUMBUR_clean_sbu_1, # of connection points: 6
#     Node 8, Type 1, BuildingBlock: TAGTUT_clean_sbu_1, # of connection points: 8
#     Node 9, Type 1, BuildingBlock: TAGTUT_clean_sbu_1, # of connection points: 8
#     Node 10, Type 1, BuildingBlock: TAGTUT_clean_sbu_1, # of connection points: 8
#     Node 11, Type 1, BuildingBlock: TAGTUT_clean_sbu_1, # of connection points: 8
#     Node 12, Type 1, BuildingBlock: TAGTUT_clean_sbu_1, # of connection points: 8
#     Node 13, Type 1, BuildingBlock: TAGTUT_clean_sbu_1, # of connection points: 8
#     Edge 14, Type (0, 1), BuildingBlock: ZUJKAS_clean_linker_0, # of connection points: 2
#     Edge 15, Type (0, 1), BuildingBlock: ZUJKAS_clean_linker_0, # of connection points: 2
#     Edge 16, Type (0, 1), BuildingBlock: ZUJKAS_clean_linker_0, # of connection points: 2
#     Edge 17, Type (0, 1), BuildingBlock: ZUJKAS_clean_linker_0, # of connection points: 2
#     Edge 18, Type (0, 1), BuildingBlock: ZUJKAS_clean_linker_0, # of connection points: 2
#     Edge 19, Type (0, 1), BuildingBlock: ZUJKAS_clean_linker_0, # of connection points: 2
#     Edge 20, Type (0, 1), BuildingBlock: ZUJKAS_clean_linker_0, # of connection points: 2
#     Edge 21, Type (0, 1), BuildingBlock: ZUJKAS_clean_linker_0, # of connection points: 2
#     Edge 22, Type (0, 1), BuildingBlock: ZUJKAS_clean_linker_0, # of connection points: 2
#     Edge 23, Type (0, 1), BuildingBlock: ZUJKAS_clean_linker_0, # of connection points: 2
#     Edge 24, Type (0, 1), BuildingBlock: ZUJKAS_clean_linker_0, # of connection points: 2
#     Edge 25, Type (0, 1), BuildingBlock: ZUJKAS_clean_linker_0, # of connection points: 2
#     Edge 26, Type (0, 1), BuildingBlock: ZUJKAS_clean_linker_0, # of connection points: 2
#     Edge 27, Type (0, 1), BuildingBlock: ZUJKAS_clean_linker_0, # of connection points: 2
#     Edge 28, Type (0, 1), BuildingBlock: ZUJKAS_clean_linker_0, # of connection points: 2
#     Edge 29, Type (0, 1), BuildingBlock: ZUJKAS_clean_linker_0, # of connection points: 2
#     Edge 30, Type (0, 1), BuildingBlock: ZUJKAS_clean_linker_0, # of connection points: 2
#     Edge 31, Type (0, 1), BuildingBlock: ZUJKAS_clean_linker_0, # of connection points: 2
#     Edge 32, Type (0, 1), BuildingBlock: ZUJKAS_clean_linker_0, # of connection points: 2
#     Edge 33, Type (0, 1), BuildingBlock: ZUJKAS_clean_linker_0, # of connection points: 2
#     Edge 34, Type (0, 1), BuildingBlock: ZUJKAS_clean_linker_0, # of connection points: 2
#     Edge 35, Type (0, 1), BuildingBlock: ZUJKAS_clean_linker_0, # of connection points: 2
#     Edge 36, Type (0, 1), BuildingBlock: ZUJKAS_clean_linker_0, # of connection points: 2
#     Edge 37, Type (0, 1), BuildingBlock: ZUJKAS_clean_linker_0, # of connection points: 2
#     Edge 38, Type (0, 1), BuildingBlock: ZUJKAS_clean_linker_0, # of connection points: 2
#     Edge 39, Type (0, 1), BuildingBlock: ZUJKAS_clean_linker_0, # of connection points: 2
#     Edge 40, Type (0, 1), BuildingBlock: ZUJKAS_clean_linker_0, # of connection points: 2
#     Edge 41, Type (0, 1), BuildingBlock: ZUJKAS_clean_linker_0, # of connection points: 2
#     Edge 42, Type (0, 1), BuildingBlock: ZUJKAS_clean_linker_0, # of connection points: 2
#     Edge 43, Type (0, 1), BuildingBlock: ZUJKAS_clean_linker_0, # of connection points: 2
#     Edge 44, Type (0, 1), BuildingBlock: ZUJKAS_clean_linker_0, # of connection points: 2
#     Edge 45, Type (0, 1), BuildingBlock: ZUJKAS_clean_linker_0, # of connection points: 2
#     Edge 46, Type (0, 1), BuildingBlock: ZUJKAS_clean_linker_0, # of connection points: 2
#     Edge 47, Type (0, 1), BuildingBlock: ZUJKAS_clean_linker_0, # of connection points: 2
#     Edge 48, Type (0, 1), BuildingBlock: ZUJKAS_clean_linker_0, # of connection points: 2
#     Edge 49, Type (0, 1), BuildingBlock: ZUJKAS_clean_linker_0, # of connection points: 2
#     Edge 50, Type (0, 1), BuildingBlock: ZUJKAS_clean_linker_0, # of connection points: 2
#     Edge 51, Type (0, 1), BuildingBlock: ZUJKAS_clean_linker_0, # of connection points: 2
#     Edge 52, Type (0, 1), BuildingBlock: ZUJKAS_clean_linker_0, # of connection points: 2
#     Edge 53, Type (0, 1), BuildingBlock: ZUJKAS_clean_linker_0, # of connection points: 2
#     Edge 54, Type (0, 1), BuildingBlock: ZUJKAS_clean_linker_0, # of connection points: 2
#     Edge 55, Type (0, 1), BuildingBlock: ZUJKAS_clean_linker_0, # of connection points: 2
#     Edge 56, Type (0, 1), BuildingBlock: ZUJKAS_clean_linker_0, # of connection points: 2
#     Edge 57, Type (0, 1), BuildingBlock: ZUJKAS_clean_linker_0, # of connection points: 2
#     Edge 58, Type (0, 1), BuildingBlock: ZUJKAS_clean_linker_0, # of connection points: 2
#     Edge 59, Type (0, 1), BuildingBlock: ZUJKAS_clean_linker_0, # of connection points: 2
#     Edge 60, Type (0, 1), BuildingBlock: ZUJKAS_clean_linker_0, # of connection points: 2
#     Edge 61, Type (0, 1), BuildingBlock: ZUJKAS_clean_linker_0, # of connection points: 2
# Relax obj value: 0.056
# Max RMSD: 0.173
# Mean RMSD: 0.096
data_MOF--net-ocu--node1-KUMBUR_clean_sbu_1--node2-TAGTUT_clean_sbu_1--edge1-ZUJKAS_clean_linker_0
_symmetry_space_group_name_H-M    P1
_symmetry_Int_Tables_number       1
_symmetry_cell_setting            triclinic
loop_
_symmetry_equiv_pos_as_xyz
'x, y, z'
_cell_length_a     50.319058
_cell_length_b     48.271733
_cell_length_c     53.50469
_cell_angle_alpha  98.734047
_cell_angle_beta   83.540817
_cell_angle_gamma 109.63499
loop_
_atom_site_label
_atom_site_type_symbol
_atom_site_fract_x
_atom_site_fract_y
_atom_site_fract_z
_atom_type_partial_charge
Tb0 Tb 0.2405 0.24863 0.23116 0.0
C1 C 0.29339 0.29776 0.33261 0.0
N2 N 0.30587 0.2992 0.30879 0.0
C3 C 0.32977 0.35121 0.319 0.0
C4 C 0.29739 0.32336 0.35027 0.0
C5 C 0.32491 0.32514 0.30207 0.0
C6 C 0.31562 0.35041 0.34308 0.0
C7 C 0.26473 0.26742 0.36411 0.0
C8 C 0.2773 0.27026 0.33933 0.0
C9 C 0.26716 0.29301 0.38145 0.0
C10 C 0.28354 0.32096 0.37455 0.0
Tb11 Tb 0.29658 0.2556 0.2826 0.0
N12 N 0.27596 0.24612 0.32215 0.0
C13 C 0.25131 0.23892 0.37102 0.0
C14 C 0.26549 0.21845 0.32964 0.0
C15 C 0.25237 0.21434 0.35389 0.0
H16 H 0.33582 0.32572 0.28346 0.0
H17 H 0.24359 0.19227 0.35948 0.0
H18 H 0.18436 0.19104 0.24813 0.0
H19 H 0.29433 0.26639 0.13942 0.0
H20 H 0.26776 0.19955 0.31708 0.0
H21 H 0.24141 0.23571 0.38989 0.0
H22 H 0.27873 0.28105 0.18357 0.0
H23 H 0.34435 0.37189 0.31346 0.0
H24 H 0.25733 0.29135 0.40049 0.0
H25 H 0.28595 0.34042 0.38832 0.0
H26 H 0.16406 0.13812 0.23322 0.0
H27 H 0.31934 0.37064 0.3561 0.0
H28 H 0.27887 0.21345 0.12152 0.0
N29 N 0.21723 0.19937 0.2185 0.0
C30 C 0.22608 0.18853 0.19527 0.0
C31 C 0.1819 0.15192 0.22258 0.0
C32 C 0.21414 0.15857 0.18535 0.0
C33 C 0.19406 0.18195 0.23133 0.0
C34 C 0.19237 0.14001 0.19973 0.0
N35 N 0.25593 0.2369 0.19057 0.0
C36 C 0.27223 0.25798 0.17586 0.0
C37 C 0.2539 0.1986 0.1556 0.0
C38 C 0.24563 0.20811 0.18055 0.0
C39 C 0.27207 0.21982 0.14083 0.0
C40 C 0.28087 0.24973 0.15087 0.0
H41 H 0.18262 0.11685 0.19281 0.0
H42 H 0.2147 0.12548 0.15315 0.0
H43 H 0.24957 0.1606 0.12708 0.0
O44 O 0.23404 0.28583 0.22014 0.0
O45 O 0.27919 0.23662 0.21913 0.0
O46 O 0.28621 0.21718 0.25327 0.0
O47 O 0.20188 0.24347 0.21617 0.0
O48 O 0.27617 0.29021 0.23621 0.0
O49 O 0.31363 0.27941 0.24944 0.0
O50 O 0.3217 0.2413 0.3042 0.0
O51 O 0.27417 0.28876 0.28511 0.0
O52 O 0.23011 0.26318 0.27084 0.0
O53 O 0.3396 0.26437 0.27128 0.0
O54 O 0.26097 0.21379 0.27671 0.0
O55 O 0.22419 0.22733 0.26593 0.0
C56 C 0.28972 0.21938 0.22885 0.0
C57 C 0.18687 0.28552 0.22313 0.0
C58 C 0.15403 0.31025 0.21472 0.0
C59 C 0.14627 0.31318 0.24088 0.0
C60 C 0.17857 0.28849 0.249 0.0
C61 C 0.15844 0.30234 0.25781 0.0
C62 C 0.17457 0.29637 0.20604 0.0
C63 C 0.30342 0.29403 0.23616 0.0
C64 C 0.20845 0.27136 0.21372 0.0
C65 C 0.22342 0.14848 0.16098 0.0
C66 C 0.24322 0.16849 0.14611 0.0
C67 C 0.24665 0.28376 0.28655 0.0
C68 C 0.37262 0.251 0.29297 0.0
C69 C 0.40422 0.23025 0.31003 0.0
C70 C 0.4274 0.25046 0.29802 0.0
C71 C 0.39627 0.27057 0.28104 0.0
C72 C 0.37669 0.23093 0.30769 0.0
C73 C 0.4234 0.27035 0.28368 0.0
C74 C 0.23382 0.21063 0.27743 0.0
C75 C 0.34411 0.25199 0.28958 0.0
H76 H 0.13103 0.3242 0.24837 0.0
H77 H 0.18766 0.28014 0.26236 0.0
H78 H 0.15229 0.30476 0.27786 0.0
H79 H 0.18079 0.29365 0.186 0.0
H80 H 0.44883 0.25115 0.2999 0.0
H81 H 0.39383 0.28629 0.26976 0.0
H82 H 0.35855 0.21553 0.31673 0.0
H83 H 0.44147 0.28572 0.27456 0.0
Tb84 Tb 0.74026 0.27008 0.25573 0.0
C85 C 0.85735 0.26285 0.21883 0.0
N86 N 0.83253 0.24018 0.21813 0.0
C87 C 0.8437 0.22486 0.17462 0.0
C88 C 0.87584 0.2684 0.19702 0.0
C89 C 0.82594 0.22045 0.19678 0.0
C90 C 0.86857 0.24919 0.17463 0.0
C91 C 0.89016 0.3034 0.24359 0.0
C92 C 0.86426 0.28007 0.24172 0.0
C93 C 0.90809 0.31018 0.22166 0.0
C94 C 0.90096 0.29266 0.19841 0.0
Tb95 Tb 0.80443 0.23541 0.25481 0.0
N96 N 0.84646 0.27253 0.26244 0.0
C97 C 0.89774 0.31834 0.26759 0.0
C98 C 0.85522 0.28492 0.28606 0.0
C99 C 0.88049 0.30856 0.28898 0.0
H100 H 0.80675 0.20165 0.19678 0.0
H101 H 0.88688 0.31884 0.30774 0.0
H102 H 0.75392 0.32409 0.30474 0.0
H103 H 0.64629 0.1764 0.23853 0.0
H104 H 0.84304 0.27636 0.30275 0.0
H105 H 0.91746 0.33641 0.2699 0.0
H106 H 0.69198 0.21361 0.22698 0.0
H107 H 0.83815 0.20958 0.15754 0.0
H108 H 0.9279 0.32831 0.22264 0.0
H109 H 0.91526 0.29767 0.18176 0.0
H110 H 0.73751 0.33046 0.34963 0.0
H111 H 0.88219 0.25266 0.15742 0.0
H112 H 0.62651 0.17757 0.28306 0.0
N113 N 0.72539 0.28016 0.29732 0.0
C114 C 0.70143 0.25984 0.30598 0.0
C115 C 0.72747 0.31019 0.33769 0.0
C116 C 0.69029 0.26319 0.33121 0.0
C117 C 0.73725 0.30611 0.31232 0.0
C118 C 0.7042 0.28834 0.34734 0.0
N119 N 0.69828 0.23463 0.26474 0.0
C120 C 0.68355 0.21402 0.24647 0.0
C121 C 0.66109 0.216 0.29645 0.0
C122 C 0.68706 0.23654 0.28898 0.0
C123 C 0.64653 0.19384 0.2781 0.0
C124 C 0.65767 0.19307 0.25294 0.0
H125 H 0.69639 0.29175 0.36689 0.0
H126 H 0.65634 0.24403 0.35857 0.0
H127 H 0.6306 0.20284 0.328 0.0
O128 O 0.72188 0.27641 0.22421 0.0
O129 O 0.73498 0.22615 0.26621 0.0
O130 O 0.77338 0.23036 0.28728 0.0
O131 O 0.72253 0.30434 0.25925 0.0
O132 O 0.74692 0.24164 0.22107 0.0
O133 O 0.76831 0.20908 0.23199 0.0
O134 O 0.83409 0.21933 0.2674 0.0
O135 O 0.80096 0.25967 0.22464 0.0
O136 O 0.7829 0.29657 0.24225 0.0
O137 O 0.79608 0.18936 0.25173 0.0
O138 O 0.79612 0.2643 0.28858 0.0
O139 O 0.77874 0.29774 0.2746 0.0
C140 C 0.74594 0.2214 0.28555 0.0
C141 C 0.68316 0.29451 0.23527 0.0
C142 C 0.64638 0.30537 0.21601 0.0
C143 C 0.62609 0.28935 0.23337 0.0
C144 C 0.66247 0.27957 0.25284 0.0
C145 C 0.63415 0.27666 0.25167 0.0
C146 C 0.67504 0.30777 0.21697 0.0
C147 C 0.75278 0.21642 0.21726 0.0
C148 C 0.7132 0.29736 0.23675 0.0
C149 C 0.6651 0.24198 0.3392 0.0
C150 C 0.65042 0.21853 0.32179 0.0
C151 C 0.80151 0.28723 0.22715 0.0
C152 C 0.81336 0.17467 0.28517 0.0
C153 C 0.83165 0.15175 0.31411 0.0
C154 C 0.80496 0.14399 0.32746 0.0
C155 C 0.78695 0.16666 0.29887 0.0
C156 C 0.83562 0.16698 0.29277 0.0
C157 C 0.78284 0.15135 0.31982 0.0
C158 C 0.79283 0.29056 0.29051 0.0
C159 C 0.81816 0.19188 0.26355 0.0
H160 H 0.60401 0.28743 0.23333 0.0
H161 H 0.66815 0.27065 0.26786 0.0
H162 H 0.61845 0.26499 0.26533 0.0
H163 H 0.69092 0.31996 0.20367 0.0
H164 H 0.8011 0.1319 0.34371 0.0
H165 H 0.76948 0.17224 0.29345 0.0
H166 H 0.85612 0.1734 0.28242 0.0
H167 H 0.76241 0.14518 0.3302 0.0
Tb168 Tb 0.77739 0.73424 0.27729 0.0
C169 C 0.82377 0.79547 0.1823 0.0
N170 N 0.81867 0.80714 0.20644 0.0
C171 C 0.86473 0.84377 0.20509 0.0
C172 C 0.85015 0.80683 0.169 0.0
C173 C 0.83839 0.83148 0.21771 0.0
C174 C 0.87073 0.83128 0.18071 0.0
C175 C 0.80809 0.75707 0.14717 0.0
C176 C 0.80286 0.77097 0.17148 0.0
C177 C 0.83437 0.76828 0.13385 0.0
C178 C 0.85529 0.79317 0.14468 0.0
Tb179 Tb 0.77453 0.78579 0.22439 0.0
N180 N 0.77785 0.76018 0.18518 0.0
C181 C 0.78685 0.73214 0.13707 0.0
C182 C 0.75659 0.73674 0.17485 0.0
C183 C 0.76097 0.72211 0.15088 0.0
H184 H 0.83389 0.84188 0.23625 0.0
H185 H 0.74437 0.70324 0.14289 0.0
H186 H 0.73527 0.66514 0.25978 0.0
H187 H 0.78619 0.79565 0.3706 0.0
H188 H 0.73604 0.7296 0.18461 0.0
H189 H 0.79009 0.72068 0.11853 0.0
H190 H 0.80333 0.78044 0.32715 0.0
H191 H 0.88038 0.86294 0.21415 0.0
H192 H 0.83875 0.75781 0.11518 0.0
H193 H 0.87548 0.8015 0.13421 0.0
H194 H 0.6882 0.63249 0.27345 0.0
H195 H 0.89124 0.84073 0.17109 0.0
H196 H 0.73687 0.77041 0.38614 0.0
N197 N 0.73541 0.7001 0.28944 0.0
C198 C 0.72273 0.70781 0.31191 0.0
C199 C 0.69748 0.65384 0.28427 0.0
C200 C 0.69627 0.68944 0.32097 0.0
C201 C 0.724 0.67264 0.27638 0.0
C202 C 0.68326 0.66254 0.30641 0.0
N203 N 0.76375 0.74872 0.31794 0.0
C204 C 0.78178 0.76983 0.33376 0.0
C205 C 0.72688 0.74036 0.35151 0.0
C206 C 0.73765 0.73283 0.32693 0.0
C207 C 0.7443 0.76392 0.36708 0.0
C208 C 0.77216 0.77821 0.35839 0.0
H209 H 0.66291 0.64776 0.31267 0.0
H210 H 0.66388 0.68427 0.35192 0.0
H211 H 0.69077 0.72895 0.37872 0.0
O212 O 0.81833 0.74 0.28728 0.0
O213 O 0.75893 0.76994 0.2901 0.0
O214 O 0.74033 0.77788 0.2551 0.0
O215 O 0.78485 0.69938 0.29174 0.0
O216 O 0.81128 0.77491 0.26861 0.0
O217 O 0.79361 0.80977 0.25916 0.0
O218 O 0.75105 0.79605 0.19891 0.0
O219 O 0.80726 0.76357 0.22181 0.0
O220 O 0.78617 0.71893 0.23746 0.0
O221 O 0.77674 0.83011 0.22502 0.0
O222 O 0.73664 0.74776 0.23043 0.0
O223 O 0.75241 0.71292 0.24416 0.0
C224 C 0.74153 0.77955 0.27987 0.0
C225 C 0.83127 0.69699 0.28412 0.0
C226 C 0.86636 0.67509 0.2924 0.0
C227 C 0.87029 0.66735 0.26612 0.0
C228 C 0.83545 0.68887 0.25808 0.0
C229 C 0.8549 0.67419 0.24915 0.0
C230 C 0.84667 0.68999 0.30122 0.0
C231 C 0.80964 0.80183 0.27244 0.0
C232 C 0.81162 0.71351 0.29374 0.0
C233 C 0.68437 0.69788 0.34475 0.0
C234 C 0.69968 0.72331 0.36003 0.0
C235 C 0.80328 0.73498 0.22069 0.0
C236 C 0.73334 0.83478 0.21661 0.0
C237 C 0.69357 0.84824 0.20571 0.0
C238 C 0.68707 0.855 0.23172 0.0
C239 C 0.72624 0.84167 0.24243 0.0
C240 C 0.71696 0.83819 0.19829 0.0
C241 C 0.7033 0.85175 0.24985 0.0
C242 C 0.73316 0.72046 0.23453 0.0
C243 C 0.75744 0.82361 0.20881 0.0
H244 H 0.88496 0.65558 0.25868 0.0
H245 H 0.82374 0.69396 0.24471 0.0
H246 H 0.85803 0.66803 0.22899 0.0
H247 H 0.84362 0.69659 0.32134 0.0
H248 H 0.66966 0.86332 0.2381 0.0
H249 H 0.73841 0.83929 0.25694 0.0
H250 H 0.72221 0.83266 0.17837 0.0
H251 H 0.69811 0.85717 0.26978 0.0
Tb252 Tb 0.24415 0.78261 0.24778 0.0
C253 C 0.27756 0.69626 0.29895 0.0
N254 N 0.29205 0.7252 0.29683 0.0
C255 C 0.29968 0.73428 0.34116 0.0
C256 C 0.27227 0.68542 0.32263 0.0
C257 C 0.30421 0.74401 0.31722 0.0
C258 C 0.28328 0.70496 0.34396 0.0
C259 C 0.25397 0.64716 0.27832 0.0
C260 C 0.26847 0.67754 0.27711 0.0
C261 C 0.24742 0.63638 0.30201 0.0
C262 C 0.25656 0.65548 0.32413 0.0
Tb263 Tb 0.29697 0.73921 0.25736 0.0
N264 N 0.27545 0.68881 0.25456 0.0
C265 C 0.24743 0.62839 0.25564 0.0
C266 C 0.27141 0.67009 0.23239 0.0
C267 C 0.25673 0.63982 0.23257 0.0
H268 H 0.31699 0.76659 0.31504 0.0
H269 H 0.25298 0.62526 0.21492 0.0
H270 H 0.20014 0.74129 0.20414 0.0
H271 H 0.30572 0.89852 0.25429 0.0
H272 H 0.27977 0.67815 0.21443 0.0
H273 H 0.23631 0.6049 0.25573 0.0
H274 H 0.28022 0.85057 0.27068 0.0
H275 H 0.30879 0.74938 0.35743 0.0
H276 H 0.23595 0.61317 0.30336 0.0
H277 H 0.25188 0.64675 0.3422 0.0
H278 H 0.19326 0.7422 0.15953 0.0
H279 H 0.2797 0.69751 0.36253 0.0
H280 H 0.30645 0.90259 0.2086 0.0
N281 N 0.23493 0.78143 0.20656 0.0
C282 C 0.24962 0.80587 0.19516 0.0
C283 C 0.20987 0.75979 0.16903 0.0
C284 C 0.24622 0.80758 0.16971 0.0
C285 C 0.21412 0.75917 0.19429 0.0
C286 C 0.22653 0.78373 0.15643 0.0
N287 N 0.2675 0.82787 0.2345 0.0
C288 C 0.28045 0.85228 0.25075 0.0
C289 C 0.28042 0.8569 0.19952 0.0
C290 C 0.26624 0.83018 0.20977 0.0
C291 C 0.29526 0.88159 0.2157 0.0
C292 C 0.29487 0.87939 0.24152 0.0
H293 H 0.22301 0.78424 0.13692 0.0
H294 H 0.25943 0.83524 0.13923 0.0
H295 H 0.2896 0.87846 0.16537 0.0
O296 O 0.22763 0.805 0.2789 0.0
O297 O 0.28941 0.79946 0.23565 0.0
O298 O 0.30025 0.75729 0.2217 0.0
O299 O 0.20395 0.78667 0.24596 0.0
O300 O 0.2656 0.79561 0.28332 0.0
O301 O 0.3079 0.78558 0.2742 0.0
O302 O 0.32681 0.71672 0.25078 0.0
O303 O 0.26257 0.74144 0.28618 0.0
O304 O 0.22716 0.73966 0.26227 0.0
O305 O 0.34022 0.76411 0.25873 0.0
O306 O 0.27517 0.72608 0.2218 0.0
O307 O 0.23278 0.73553 0.23148 0.0
C308 C 0.30412 0.78525 0.22042 0.0
C309 C 0.17951 0.7813 0.28649 0.0
C310 C 0.15865 0.7773 0.3297 0.0
C311 C 0.14129 0.74833 0.32206 0.0
C312 C 0.1618 0.7524 0.27897 0.0
C313 C 0.14264 0.73615 0.2967 0.0
C314 C 0.17745 0.79365 0.31174 0.0
C315 C 0.29213 0.80022 0.28756 0.0
C316 C 0.20305 0.7974 0.26971 0.0
C317 C 0.26148 0.8336 0.15885 0.0
C318 C 0.27859 0.85824 0.17375 0.0
C319 C 0.23562 0.7331 0.28221 0.0
C320 C 0.36455 0.74412 0.22483 0.0
C321 C 0.36766 0.72902 0.1792 0.0
C322 C 0.392 0.75374 0.17665 0.0
C323 C 0.38904 0.76857 0.22202 0.0
C324 C 0.35406 0.72448 0.20328 0.0
C325 C 0.40265 0.77334 0.19802 0.0
C326 C 0.2485 0.72105 0.21768 0.0
C327 C 0.34779 0.74123 0.24933 0.0
H328 H 0.12652 0.73532 0.33557 0.0
H329 H 0.16331 0.74202 0.25967 0.0
H330 H 0.12921 0.71381 0.29088 0.0
H331 H 0.19155 0.8157 0.31768 0.0
H332 H 0.40294 0.75769 0.15825 0.0
H333 H 0.39718 0.78436 0.23827 0.0
H334 H 0.33471 0.70598 0.20499 0.0
H335 H 0.42137 0.7924 0.19593 0.0
Tb336 Tb 0.2363 0.78347 0.75662 0.0
C337 C 0.34098 0.75352 0.71514 0.0
N338 N 0.31551 0.73425 0.7222 0.0
C339 C 0.3164 0.70336 0.68262 0.0
C340 C 0.35446 0.7493 0.69099 0.0
C341 C 0.30415 0.70834 0.70696 0.0
C342 C 0.34138 0.72424 0.67438 0.0
C343 C 0.38131 0.79652 0.72687 0.0
C344 C 0.35425 0.77675 0.73273 0.0
C345 C 0.39434 0.7932 0.70248 0.0
C346 C 0.3809 0.76968 0.68453 0.0
Tb347 Tb 0.29672 0.74626 0.76189 0.0
N348 N 0.34053 0.77989 0.75576 0.0
C349 C 0.39437 0.81892 0.74574 0.0
C350 C 0.35371 0.80064 0.7747 0.0
C351 C 0.38065 0.82074 0.76987 0.0
H352 H 0.28593 0.69109 0.71358 0.0
H353 H 0.3908 0.8376 0.78473 0.0
H354 H 0.22839 0.81461 0.81483 0.0
H355 H 0.15835 0.70807 0.69439 0.0
H356 H 0.34319 0.80195 0.79337 0.0
H357 H 0.41516 0.8346 0.742 0.0
H358 H 0.20292 0.74795 0.70436 0.0
H359 H 0.30682 0.68316 0.67041 0.0
H360 H 0.41495 0.80842 0.69743 0.0
H361 H 0.39142 0.76703 0.66595 0.0
H362 H 0.19226 0.8061 0.85089 0.0
H363 H 0.35099 0.72018 0.65563 0.0
H364 H 0.12252 0.68962 0.72892 0.0
N365 N 0.20407 0.77798 0.79056 0.0
C366 C 0.17878 0.75646 0.78713 0.0
C367 C 0.18831 0.79181 0.83311 0.0
C368 C 0.15764 0.75063 0.80705 0.0
C369 C 0.20871 0.79656 0.81275 0.0
C370 C 0.16284 0.76841 0.8304 0.0
N371 N 0.19427 0.74929 0.74432 0.0
C372 C 0.18821 0.73896 0.71968 0.0
C373 C 0.1476 0.71936 0.75844 0.0
C374 C 0.17394 0.74114 0.76324 0.0
C375 C 0.14246 0.70649 0.73345 0.0
C376 C 0.16265 0.7168 0.71392 0.0
H377 H 0.14712 0.76471 0.84621 0.0
H378 H 0.11551 0.72259 0.81795 0.0
H379 H 0.10667 0.69517 0.7753 0.0
O380 O 0.21043 0.80353 0.74214 0.0
O381 O 0.23437 0.75734 0.78738 0.0
O382 O 0.25251 0.72021 0.77071 0.0
O383 O 0.24924 0.8299 0.76009 0.0
O384 O 0.246 0.75411 0.72367 0.0
O385 O 0.26041 0.71968 0.73966 0.0
O386 O 0.30845 0.73965 0.79641 0.0
O387 O 0.30531 0.79045 0.75047 0.0
O388 O 0.26973 0.7873 0.72621 0.0
O389 O 0.31584 0.71352 0.76197 0.0
O390 O 0.28759 0.77436 0.79565 0.0
O391 O 0.26997 0.80838 0.78233 0.0
C392 C 0.23344 0.7296 0.78499 0.0
C393 C 0.22305 0.8577 0.74528 0.0
C394 C 0.19548 0.88433 0.73004 0.0
C395 C 0.21569 0.91128 0.73887 0.0
C396 C 0.24275 0.885 0.75397 0.0
C397 C 0.23905 0.91153 0.75074 0.0
C398 C 0.19941 0.85747 0.73324 0.0
C399 C 0.24846 0.72753 0.72239 0.0
C400 C 0.22741 0.82988 0.74921 0.0
C401 C 0.13192 0.72778 0.8028 0.0
C402 C 0.12692 0.71211 0.77852 0.0
C403 C 0.29676 0.79514 0.72978 0.0
C404 C 0.30791 0.69147 0.79971 0.0
C405 C 0.31955 0.65767 0.82289 0.0
C406 C 0.29048 0.64288 0.82747 0.0
C407 C 0.27903 0.67634 0.80432 0.0
C408 C 0.32808 0.68193 0.80881 0.0
C409 C 0.2704 0.65212 0.81811 0.0
C410 C 0.28318 0.8002 0.79848 0.0
C411 C 0.31741 0.71792 0.78636 0.0
H412 H 0.21372 0.93229 0.73623 0.0
H413 H 0.2611 0.88591 0.7633 0.0
H414 H 0.25444 0.93243 0.75738 0.0
H415 H 0.184 0.83652 0.72665 0.0
H416 H 0.28329 0.62404 0.83813 0.0
H417 H 0.26322 0.68341 0.79747 0.0
H418 H 0.3504 0.69388 0.80549 0.0
H419 H 0.24808 0.64057 0.82169 0.0
Tb420 Tb 0.26851 0.22351 0.78364 0.0
C421 C 0.28805 0.27196 0.67554 0.0
N422 N 0.29465 0.28297 0.69981 0.0
C423 C 0.34224 0.30862 0.6853 0.0
C424 C 0.30866 0.27791 0.65521 0.0
C425 C 0.32108 0.30192 0.7049 0.0
C426 C 0.33609 0.29636 0.66038 0.0
C427 C 0.2528 0.24182 0.64655 0.0
C428 C 0.26059 0.2541 0.67133 0.0
C429 C 0.27332 0.24727 0.62617 0.0
C430 C 0.30119 0.2653 0.63049 0.0
Tb431 Tb 0.25818 0.27122 0.73003 0.0
N432 N 0.24141 0.24929 0.69151 0.0
C433 C 0.22455 0.22484 0.64299 0.0
C434 C 0.21358 0.23404 0.68801 0.0
C435 C 0.20479 0.22124 0.66379 0.0
H436 H 0.32592 0.31177 0.72402 0.0
H437 H 0.18275 0.20882 0.66116 0.0
H438 H 0.21337 0.16055 0.76821 0.0
H439 H 0.28693 0.29396 0.87273 0.0
H440 H 0.19809 0.23223 0.70392 0.0
H441 H 0.21768 0.21499 0.62425 0.0
H442 H 0.30051 0.27299 0.82983 0.0
H443 H 0.36327 0.32329 0.68942 0.0
H444 H 0.2678 0.23791 0.60698 0.0
H445 H 0.31675 0.26948 0.61458 0.0
H446 H 0.16371 0.14009 0.78274 0.0
H447 H 0.35256 0.30153 0.64527 0.0
H448 H 0.23725 0.27722 0.88975 0.0
N449 N 0.22201 0.19912 0.79579 0.0
C450 C 0.2125 0.21075 0.81847 0.0
C451 C 0.17701 0.1604 0.79265 0.0
C452 C 0.18428 0.19877 0.82817 0.0
C453 C 0.20525 0.17278 0.78401 0.0
C454 C 0.16627 0.17386 0.81449 0.0
N455 N 0.25865 0.24458 0.82315 0.0
C456 C 0.27881 0.26524 0.83744 0.0
C457 C 0.22286 0.24544 0.85689 0.0
C458 C 0.23153 0.23365 0.83287 0.0
C459 C 0.24307 0.26765 0.87116 0.0
C460 C 0.27121 0.27724 0.86156 0.0
H461 H 0.14447 0.16399 0.82129 0.0
H462 H 0.15355 0.20256 0.8592 0.0
H463 H 0.18731 0.24356 0.88427 0.0
O464 O 0.30388 0.2239 0.80154 0.0
O465 O 0.25612 0.26392 0.79374 0.0
O466 O 0.22764 0.25882 0.76224 0.0
O467 O 0.26786 0.1847 0.79738 0.0
O468 O 0.3046 0.25912 0.77004 0.0
O469 O 0.28841 0.29496 0.75905 0.0
O470 O 0.23052 0.28929 0.71684 0.0
O471 O 0.28791 0.24607 0.71701 0.0
O472 O 0.28997 0.21516 0.74636 0.0
O473 O 0.26507 0.31706 0.73877 0.0
O474 O 0.2268 0.23025 0.74097 0.0
O475 O 0.24827 0.19819 0.74959 0.0
C476 C 0.23483 0.26905 0.78546 0.0
C477 C 0.31264 0.17848 0.79452 0.0
C478 C 0.35144 0.1612 0.80116 0.0
C479 C 0.35023 0.14725 0.77604 0.0
C480 C 0.31157 0.16407 0.76962 0.0
C481 C 0.33038 0.14867 0.76045 0.0
C482 C 0.33251 0.1769 0.81025 0.0
C483 C 0.30662 0.2869 0.76979 0.0
C484 C 0.29373 0.19589 0.80401 0.0
C485 C 0.17523 0.21127 0.85164 0.0
C486 C 0.19447 0.23454 0.86598 0.0
C487 C 0.29682 0.22574 0.72413 0.0
C488 C 0.25155 0.33772 0.70644 0.0
C489 C 0.2349 0.3633 0.67846 0.0
C490 C 0.26315 0.37681 0.66977 0.0
C491 C 0.27953 0.3516 0.69753 0.0
C492 C 0.22934 0.34366 0.69685 0.0
C493 C 0.28522 0.37099 0.67928 0.0
C494 C 0.23122 0.20462 0.73631 0.0
C495 C 0.24491 0.31628 0.72506 0.0
H496 H 0.36428 0.13475 0.76858 0.0
H497 H 0.29635 0.16489 0.75721 0.0
H498 H 0.32953 0.13774 0.74118 0.0
H499 H 0.33342 0.18817 0.82943 0.0
H500 H 0.26823 0.39158 0.65532 0.0
H501 H 0.297 0.34742 0.70453 0.0
H502 H 0.20775 0.3331 0.70387 0.0
H503 H 0.30683 0.38146 0.67237 0.0
Tb504 Tb 0.74478 0.2836 0.74123 0.0
C505 C 0.76628 0.21147 0.81658 0.0
N506 N 0.78345 0.23767 0.8091 0.0
C507 C 0.79381 0.25707 0.85218 0.0
C508 C 0.76176 0.20729 0.84243 0.0
C509 C 0.79768 0.26016 0.82633 0.0
C510 C 0.77569 0.23056 0.86029 0.0
C511 C 0.73441 0.16179 0.80544 0.0
C512 C 0.7525 0.18917 0.79824 0.0
C513 C 0.72967 0.1576 0.8312 0.0
C514 C 0.74326 0.1803 0.84964 0.0
Tb515 Tb 0.78927 0.23959 0.76656 0.0
N516 N 0.75739 0.19404 0.77341 0.0
C517 C 0.72213 0.13913 0.78653 0.0
C518 C 0.74717 0.17103 0.75491 0.0
C519 C 0.72883 0.14367 0.76116 0.0
H520 H 0.81227 0.2803 0.8201 0.0
H521 H 0.72051 0.12579 0.74636 0.0
H522 H 0.69493 0.23962 0.70452 0.0
H523 H 0.83232 0.38316 0.72623 0.0
H524 H 0.75392 0.17274 0.73526 0.0
H525 H 0.70824 0.11773 0.79126 0.0
H526 H 0.80116 0.34425 0.75095 0.0
H527 H 0.80495 0.27504 0.8658 0.0
H528 H 0.71569 0.13677 0.83705 0.0
H529 H 0.73936 0.17672 0.86942 0.0
H530 H 0.68055 0.23769 0.66153 0.0
H531 H 0.7727 0.22825 0.88033 0.0
H532 H 0.82323 0.38313 0.68174 0.0
N533 N 0.73109 0.27778 0.7011 0.0
C534 C 0.74653 0.29899 0.68638 0.0
C535 C 0.69962 0.25453 0.668 0.0
C536 C 0.73966 0.29821 0.66142 0.0
C537 C 0.70783 0.25567 0.69233 0.0
C538 C 0.71583 0.27558 0.6523 0.0
N539 N 0.77537 0.32122 0.72054 0.0
C540 C 0.79715 0.34352 0.73153 0.0
C541 C 0.78638 0.34369 0.68169 0.0
C542 C 0.76935 0.3216 0.69646 0.0
C543 C 0.80949 0.36585 0.6925 0.0
C544 C 0.81476 0.36586 0.71758 0.0
H545 H 0.70953 0.27442 0.63335 0.0
H546 H 0.75166 0.31989 0.6273 0.0
H547 H 0.79279 0.35952 0.64496 0.0
O548 O 0.73561 0.32125 0.75899 0.0
O549 O 0.78061 0.27804 0.71572 0.0
O550 O 0.81272 0.27242 0.74084 0.0
O551 O 0.70321 0.28471 0.74081 0.0
O552 O 0.76696 0.30308 0.77625 0.0
O553 O 0.80618 0.28773 0.77254 0.0
O554 O 0.80949 0.20786 0.75451 0.0
O555 O 0.75507 0.25058 0.79125 0.0
O556 O 0.72232 0.24725 0.76364 0.0
O557 O 0.82914 0.24647 0.77988 0.0
O558 O 0.77191 0.22316 0.72905 0.0
O559 O 0.73094 0.23529 0.73391 0.0
C560 C 0.80633 0.27942 0.71993 0.0
C561 C 0.68979 0.30953 0.77906 0.0
C562 C 0.68399 0.32259 0.82481 0.0
C563 C 0.65449 0.31321 0.82302 0.0
C564 C 0.6604 0.3004 0.7776 0.0
C565 C 0.64284 0.30188 0.79958 0.0
C566 C 0.70121 0.31964 0.80279 0.0
C567 C 0.79245 0.30598 0.78251 0.0
C568 C 0.70865 0.30937 0.75592 0.0
C569 C 0.75653 0.32017 0.64657 0.0
C570 C 0.77991 0.34279 0.65665 0.0
C571 C 0.72866 0.24378 0.78583 0.0
C572 C 0.8583 0.23053 0.74795 0.0
C573 C 0.88 0.23722 0.70512 0.0
C574 C 0.90604 0.23919 0.71401 0.0
C575 C 0.88427 0.23262 0.75641 0.0
C576 C 0.8566 0.23422 0.72273 0.0
C577 C 0.90816 0.23741 0.73952 0.0
C578 C 0.74677 0.22009 0.72178 0.0
C579 C 0.83268 0.22397 0.76507 0.0
H580 H 0.64043 0.31552 0.83948 0.0
H581 H 0.6511 0.29237 0.7595 0.0
H582 H 0.62017 0.29497 0.79837 0.0
H583 H 0.72375 0.32592 0.80408 0.0
H584 H 0.92462 0.24082 0.70126 0.0
H585 H 0.88598 0.23025 0.77592 0.0
H586 H 0.83658 0.23361 0.71675 0.0
H587 H 0.92821 0.23872 0.74602 0.0
Tb588 Tb 0.74247 0.74986 0.73054 0.0
C589 C 0.81998 0.81837 0.81743 0.0
N590 N 0.82677 0.80704 0.79365 0.0
C591 C 0.8649 0.85242 0.78891 0.0
C592 C 0.83467 0.84764 0.82748 0.0
C593 C 0.84999 0.8231 0.77995 0.0
C594 C 0.85692 0.86492 0.8126 0.0
C595 C 0.79246 0.81016 0.85751 0.0
C596 C 0.79925 0.79997 0.83231 0.0
C597 C 0.80624 0.83965 0.86728 0.0
C598 C 0.82728 0.85836 0.85228 0.0
Tb599 Tb 0.79974 0.7591 0.7812 0.0
N600 N 0.78595 0.7718 0.82208 0.0
C601 C 0.77233 0.79023 0.87218 0.0
C602 C 0.76794 0.75167 0.83679 0.0
C603 C 0.76035 0.76072 0.86188 0.0
H604 H 0.85756 0.81339 0.76225 0.0
H605 H 0.74548 0.7449 0.8733 0.0
H606 H 0.7043 0.68018 0.73402 0.0
H607 H 0.79814 0.80726 0.65083 0.0
H608 H 0.75941 0.72873 0.8291 0.0
H609 H 0.76648 0.79719 0.89163 0.0
H610 H 0.77447 0.80368 0.6936 0.0
H611 H 0.88285 0.86518 0.77771 0.0
H612 H 0.80115 0.84803 0.88653 0.0
H613 H 0.83818 0.88087 0.86024 0.0
H614 H 0.69433 0.6324 0.70609 0.0
H615 H 0.86874 0.88752 0.81961 0.0
H616 H 0.79697 0.7617 0.62202 0.0
N617 N 0.73279 0.70479 0.7067 0.0
C618 C 0.74417 0.70465 0.68246 0.0
C619 C 0.70857 0.65254 0.69929 0.0
C620 C 0.73931 0.67806 0.66594 0.0
C621 C 0.71427 0.67951 0.71506 0.0
C622 C 0.7214 0.65174 0.67471 0.0
N623 N 0.76326 0.75664 0.69055 0.0
C624 C 0.77518 0.78364 0.68187 0.0
C625 C 0.77269 0.73235 0.64927 0.0
C626 C 0.76057 0.73142 0.67433 0.0
C627 C 0.78728 0.76 0.64111 0.0
C628 C 0.78805 0.78576 0.65734 0.0
H629 H 0.71707 0.63081 0.66259 0.0
H630 H 0.74914 0.65843 0.62835 0.0
H631 H 0.77841 0.70601 0.61374 0.0
O632 O 0.7181 0.76404 0.70807 0.0
O633 O 0.76612 0.71785 0.72881 0.0
O634 O 0.81014 0.74585 0.74134 0.0
O635 O 0.69884 0.73893 0.73966 0.0
O636 O 0.77693 0.79268 0.73553 0.0
O637 O 0.81467 0.78078 0.74647 0.0
O638 O 0.80553 0.72025 0.78952 0.0
O639 O 0.7633 0.77493 0.79416 0.0
O640 O 0.75124 0.78923 0.75887 0.0
O641 O 0.83748 0.76244 0.79665 0.0
O642 O 0.76289 0.71835 0.77786 0.0
O643 O 0.72571 0.73022 0.76572 0.0
C644 C 0.79383 0.72411 0.72641 0.0
C645 C 0.66658 0.7519 0.71675 0.0
C646 C 0.6353 0.77252 0.69913 0.0
C647 C 0.61186 0.75099 0.70948 0.0
C648 C 0.64268 0.73094 0.727 0.0
C649 C 0.61558 0.73045 0.72326 0.0
C650 C 0.6628 0.77259 0.70257 0.0
C651 C 0.8043 0.79753 0.73584 0.0
C652 C 0.69503 0.75189 0.72143 0.0
C653 C 0.75228 0.67868 0.64127 0.0
C654 C 0.76902 0.70577 0.63298 0.0
C655 C 0.75108 0.79009 0.7836 0.0
C656 C 0.85297 0.72106 0.78641 0.0
C657 C 0.88581 0.69538 0.79258 0.0
C658 C 0.89617 0.69758 0.76714 0.0
C659 C 0.86387 0.72327 0.76126 0.0
C660 C 0.86395 0.70713 0.80201 0.0
C661 C 0.88525 0.71145 0.75167 0.0
C662 C 0.73592 0.71599 0.77928 0.0
C663 C 0.83089 0.73409 0.79688 0.0
H664 H 0.59049 0.7498 0.70672 0.0
H665 H 0.64492 0.71472 0.73784 0.0
H666 H 0.59734 0.71404 0.7311 0.0
H667 H 0.68112 0.78905 0.69484 0.0
H668 H 0.91319 0.68921 0.75931 0.0
H669 H 0.85612 0.7345 0.74921 0.0
H670 H 0.85541 0.70545 0.82145 0.0
H671 H 0.89368 0.71344 0.73227 0.0
C672 C 0.95978 0.08143 0.51945 0.0
C673 C 0.99723 0.0548 0.44968 0.0
C674 C 0.96223 0.94821 0.48333 0.0
Mg675 Mg 1.01805 0.07281 0.50328 0.0
O676 O 0.99793 0.03479 0.5121 0.0
Mg677 Mg 0.96134 0.01301 0.49625 0.0
Mg678 Mg 1.01618 1.00321 0.50525 0.0
O679 O 0.03485 0.9711 0.49942 0.0
Mg680 Mg 1.00633 0.93589 0.51362 0.0
Mg681 Mg 0.07483 0.99697 0.51492 0.0
C682 C 0.06464 0.06001 0.53176 0.0
C683 C 0.07067 0.02644 0.4645 0.0
O684 O 0.94733 0.05383 0.5122 0.0
O685 O 0.98678 0.09301 0.5188 0.0
O686 O 0.97691 0.03445 0.45929 0.0
O687 O 1.01776 0.07159 0.46266 0.0
O688 O 0.05557 0.07876 0.52359 0.0
O689 O 0.05209 0.03184 0.52774 0.0
C690 C 0.96242 0.98205 0.54625 0.0
O691 O 0.98846 0.9846 0.54012 0.0
O692 O 0.94797 0.99122 0.53306 0.0
O693 O 0.05014 0.95214 0.49364 0.0
O694 O 0.02764 0.90541 0.49653 0.0
O695 O 0.05917 0.97466 0.55178 0.0
C696 C 0.05113 0.92568 0.49306 0.0
O697 O 1.01493 0.94213 0.55364 0.0
O698 O 0.96764 0.93025 0.49578 0.0
C699 C 0.03839 0.95688 0.5637 0.0
O700 O 0.97892 0.97478 0.48247 0.0
O701 O 0.04428 0.0225 0.47044 0.0
O702 O 0.08576 0.01853 0.47804 0.0
C703 C 0.46018 0.07509 0.05401 0.0
C704 C 0.49074 0.0736 0.97434 0.0
C705 C 0.47297 0.9577 0.97475 0.0
Mg706 Mg 0.51821 0.07802 0.02431 0.0
O707 O 0.50305 0.03663 0.02334 0.0
Mg708 Mg 0.46461 0.01696 0.00996 0.0
Mg709 Mg 0.52354 0.01 1.00364 0.0
O710 O 0.54407 0.98342 0.98395 0.0
Mg711 Mg 0.52894 0.94206 0.9834 0.0
Mg712 Mg 0.58271 1.00338 0.99692 0.0
C713 C 0.57406 0.0622 0.03279 0.0
C714 C 0.57033 0.04734 0.96229 0.0
O715 O 0.4487 0.0504 0.04019 0.0
O716 O 0.4869 0.08893 0.05196 0.0
O717 O 0.47302 0.04914 0.9803 0.0
O718 O 0.5115 0.08837 0.98786 0.0
O719 O 0.56084 0.08115 0.03381 0.0
O720 O 0.56275 0.03463 0.02471 0.0
C721 C 0.47642 0.97328 0.04494 0.0
O722 O 0.50174 0.9783 0.0346 0.0
O723 O 0.45959 0.98555 0.03866 0.0
O724 O 0.59832 0.96977 0.96657 0.0
O725 O 0.56001 0.93084 0.95577 0.0
O726 O 0.57517 0.97109 0.02655 0.0
C727 C 0.58669 0.94469 0.95329 0.0
O728 O 0.53669 0.9317 0.01954 0.0
O729 O 0.48609 0.93869 0.97403 0.0
C730 C 0.55781 0.94651 0.03266 0.0
O731 O 0.48443 0.98535 0.98253 0.0
O732 O 0.54503 0.04171 0.97275 0.0
O733 O 0.58751 0.03525 0.9682 0.0
C734 C 0.96272 0.57751 0.04736 0.0
C735 C 0.99052 0.56565 0.96786 0.0
C736 C 0.96756 0.45083 0.97609 0.0
Mg737 Mg 0.01919 0.5736 0.01799 0.0
O738 O 1.00182 0.533 0.02061 0.0
Mg739 Mg 0.96277 0.51404 0.00836 0.0
Mg740 Mg 0.02005 0.50297 1.0037 0.0
O741 O 0.0383 0.47313 0.98665 0.0
Mg742 Mg 0.02098 0.43229 0.98758 0.0
Mg743 Mg 0.07725 0.49177 0.999 0.0
C744 C 0.07306 0.55529 0.02895 0.0
C745 C 0.06762 0.53266 0.95988 0.0
O746 O 0.94983 0.55169 0.03582 0.0
O747 O 0.98964 0.58968 0.04423 0.0
O748 O 0.97193 0.54263 0.97559 0.0
O749 O 1.01194 0.58059 0.98054 0.0
O750 O 0.06152 0.57515 0.02746 0.0
O751 O 0.06002 0.52734 0.02402 0.0
C752 C 0.9729 0.47401 0.0479 0.0
O753 O 0.99751 0.47605 0.03703 0.0
O754 O 0.95683 0.48638 0.04038 0.0
O755 O 0.09057 0.45478 0.97101 0.0
O756 O 0.05087 0.41745 0.96094 0.0
O757 O 0.06749 0.46198 0.03125 0.0
C758 C 0.07783 0.42958 0.95846 0.0
O759 O 0.02762 0.424 0.02483 0.0
O760 O 0.97935 0.43095 0.97663 0.0
C761 C 0.04875 0.43844 0.03807 0.0
O762 O 0.98002 0.47842 0.98349 0.0
O763 O 0.04276 0.53004 0.97045 0.0
O764 O 0.08371 0.52033 0.96743 0.0
C765 C 0.42477 0.53903 0.02283 0.0
C766 C 0.48372 0.554 0.95901 0.0
C767 C 0.48932 0.44559 0.9653 0.0
Mg768 Mg 0.49052 0.5608 0.01655 0.0
O769 O 0.4837 0.52006 0.01412 0.0
Mg770 Mg 0.4566 0.49252 0.98951 0.0
Mg771 Mg 0.51545 0.50369 0.00653 0.0
O772 O 0.5471 0.48704 0.99905 0.0
Mg773 Mg 0.53805 0.4461 0.99911 0.0
Mg774 Mg 0.57354 0.51444 0.02443 0.0
C775 C 0.54051 0.56134 0.04873 0.0
C776 C 0.56925 0.55105 0.97899 0.0
O777 O 0.42359 0.51515 0.00794 0.0
O778 O 0.44805 0.55854 0.02969 0.0
O779 O 0.46977 0.5266 0.96045 0.0
O780 O 0.49575 0.57125 0.97803 0.0
O781 O 0.52495 0.57541 0.04269 0.0
O782 O 0.53829 0.53487 0.03867 0.0
C783 C 0.46213 0.45633 0.03458 0.0
O784 O 0.489 0.46937 0.03301 0.0
O785 O 0.44585 0.46102 0.02004 0.0
O786 O 0.60588 0.49074 0.00709 0.0
O787 O 0.58043 0.44553 0.98909 0.0
O788 O 0.5597 0.48067 0.05387 0.0
C789 C 0.60412 0.46514 0.99489 0.0
O790 O 0.53044 0.437 0.03801 0.0
O791 O 0.50427 0.43131 0.97214 0.0
C792 C 0.54412 0.45398 0.05633 0.0
O793 O 0.49216 0.47245 0.9746 0.0
O794 O 0.54233 0.53806 0.97997 0.0
O795 O 0.58513 0.54618 0.99384 0.0
C796 C 0.95608 0.57203 0.5506 0.0
C797 C 0.98889 0.56888 0.47181 0.0
C798 C 0.9747 0.45428 0.47564 0.0
Mg799 Mg 1.01548 0.57583 0.52274 0.0
O800 O 1.00129 0.53454 0.52302 0.0
Mg801 Mg 0.96344 0.51315 0.50887 0.0
Mg802 Mg 0.02329 0.5084 0.50503 0.0
O803 O 0.04516 0.48215 0.48709 0.0
Mg804 Mg 0.0308 0.44083 0.48756 0.0
Mg805 Mg 0.08307 0.50352 0.50105 0.0
C806 C 0.07169 0.5625 0.53471 0.0
C807 C 0.07123 0.54546 0.46423 0.0
O808 O 0.94561 0.5464 0.53771 0.0
O809 O 0.98262 0.58675 0.54856 0.0
O810 O 0.97147 0.54442 0.47816 0.0
O811 O 1.00942 0.58435 0.48537 0.0
O812 O 0.05799 0.58074 0.5342 0.0
O813 O 0.06131 0.53463 0.52717 0.0
C814 C 0.97545 0.47147 0.54601 0.0
O815 O 1.00111 0.47727 0.53634 0.0
O816 O 0.95827 0.48268 0.53876 0.0
O817 O 0.10055 0.4699 0.47205 0.0
O818 O 0.06322 0.42972 0.46154 0.0
O819 O 0.07535 0.47246 0.5315 0.0
C820 C 0.0898 0.44418 0.45934 0.0
O821 O 0.038 0.43184 0.52449 0.0
O822 O 0.98811 0.43582 0.47633 0.0
C823 C 0.05852 0.4478 0.53788 0.0
O824 O 0.98537 0.48215 0.48298 0.0
O825 O 0.04547 0.53958 0.47363 0.0
O826 O 0.0882 0.53405 0.47152 0.0
C827 C 0.46354 0.07518 0.55172 0.0
C828 C 0.49031 0.06736 0.4723 0.0
C829 C 0.46917 0.95102 0.47935 0.0
Mg830 Mg 0.52028 0.07321 0.52144 0.0
O831 O 0.5035 0.03236 0.52321 0.0
Mg832 Mg 0.46438 0.01335 0.51104 0.0
Mg833 Mg 0.5221 1.00312 0.50511 0.0
O834 O 0.54057 0.97389 0.48692 0.0
Mg835 Mg 0.52366 0.93303 0.48854 0.0
Mg836 Mg 0.57975 0.99263 0.49879 0.0
C837 C 0.57495 0.05512 0.53096 0.0
C838 C 0.56866 0.03484 0.46187 0.0
O839 O 0.45103 0.0496 0.53965 0.0
O840 O 0.4904 0.08794 0.54863 0.0
O841 O 0.47217 0.0437 0.47949 0.0
O842 O 0.51223 0.08158 0.48459 0.0
O843 O 0.563 0.07485 0.53025 0.0
O844 O 0.56226 0.02718 0.52537 0.0
C845 C 0.4756 0.9716 0.54847 0.0
O846 O 0.50022 0.97441 0.53737 0.0
O847 O 0.45922 0.98427 0.54195 0.0
O848 O 0.59268 0.95644 0.46937 0.0
O849 O 0.553 0.91826 0.46098 0.0
O850 O 0.57193 0.96203 0.5302 0.0
C851 C 0.57979 0.93095 0.4573 0.0
O852 O 0.53159 0.9245 0.52525 0.0
O853 O 0.481 0.93119 0.47995 0.0
C854 C 0.55358 0.93854 0.53747 0.0
O855 O 0.48204 0.9789 0.48494 0.0
O856 O 0.54401 0.03194 0.47293 0.0
O857 O 0.58497 0.02204 0.46827 0.0
H858 H 0.18406 0.21376 0.3016 0.0
H859 H 0.15236 0.18051 0.33046 0.0
H860 H 0.20554 0.12519 0.31756 0.0
H861 H 0.237 0.15809 0.28809 0.0
H862 H 0.14754 0.09276 0.31904 0.0
H863 H 0.17341 0.1796 0.40181 0.0
H864 H 0.15897 0.18947 0.37659 0.0
H865 H 0.19283 0.18403 0.37144 0.0
C866 C 0.18887 0.19437 0.30471 0.0
C867 C 0.21337 0.18888 0.29301 0.0
C868 C 0.17082 0.17548 0.32136 0.0
C869 C 0.17691 0.15072 0.32665 0.0
C870 C 0.20056 0.14432 0.31396 0.0
H871 H 0.12737 0.05029 0.45299 0.0
H872 H 0.15092 0.0792 0.41841 0.0
C873 C 0.21859 0.16319 0.29724 0.0
C874 C 0.15922 0.13204 0.34602 0.0
H875 H 0.13887 0.13381 0.40925 0.0
C876 C 0.14552 0.10175 0.33874 0.0
C877 C 0.15669 0.14378 0.37178 0.0
C878 C 0.17142 0.17593 0.381 0.0
C879 C 0.12946 0.08291 0.35654 0.0
C880 C 0.12712 0.09466 0.38222 0.0
C881 C 0.14062 0.12493 0.38948 0.0
C882 C 0.11228 0.07565 0.40223 0.0
C883 C 0.11568 0.05042 0.34799 0.0
C884 C 0.08264 0.0639 0.40452 0.0
C885 C 0.06899 0.04733 0.42441 0.0
C886 C 0.08476 0.04223 0.44233 0.0
C887 C 0.11448 0.05361 0.43956 0.0
C888 C 0.12804 0.07026 0.41983 0.0
H889 H 0.12197 0.04415 0.32791 0.0
H890 H 0.12135 0.03681 0.36015 0.0
H891 H 0.09235 0.045 0.35001 0.0
H892 H 0.07008 0.06798 0.3912 0.0
H893 H 0.04613 0.03868 0.42582 0.0
H894 H 0.86889 0.12725 0.28539 0.0
H895 H 0.90387 0.10956 0.30072 0.0
H896 H 0.88212 0.14097 0.37751 0.0
H897 H 0.84723 0.15845 0.36243 0.0
H898 H 0.95155 0.13699 0.33092 0.0
H899 H 0.86642 0.05204 0.37886 0.0
H900 H 0.85947 0.07203 0.35584 0.0
H901 H 0.86471 0.08875 0.38811 0.0
C902 C 0.87188 0.13072 0.3055 0.0
C903 C 0.85498 0.14382 0.32275 0.0
C904 C 0.89182 0.12057 0.31422 0.0
C905 C 0.89518 0.1234 0.3403 0.0
C906 C 0.87942 0.13793 0.35736 0.0
H907 H 1.01523 0.10955 0.43362 0.0
H908 H 0.99425 0.12447 0.40121 0.0
C909 C 0.85947 0.14789 0.34871 0.0
C910 C 0.91396 0.11001 0.35007 0.0
H911 H 0.91319 0.06189 0.39087 0.0
C912 C 0.94322 0.12029 0.34379 0.0
C913 C 0.90303 0.08773 0.36638 0.0
C914 C 0.87166 0.07424 0.37251 0.0
C915 C 0.96193 0.10991 0.35444 0.0
C916 C 0.9511 0.08909 0.37214 0.0
C917 C 0.9217 0.07792 0.37742 0.0
C918 C 0.96944 0.07982 0.38691 0.0
C919 C 0.99304 0.12137 0.34661 0.0
C920 C 0.96341 0.04967 0.38927 0.0
C921 C 0.975 0.04113 0.40818 0.0
C922 C 0.99312 0.06257 0.42497 0.0
C923 C 1.00158 0.09247 0.42083 0.0
C924 C 0.98957 0.10106 0.40218 0.0
H925 H 0.99652 0.12768 0.32708 0.0
H926 H 1.00328 0.14153 0.35956 0.0
H927 H 1.00353 0.10467 0.34744 0.0
H928 H 0.9481 0.03281 0.37768 0.0
H929 H 0.96812 0.01791 0.41087 0.0
H930 H 0.79353 0.84645 0.29983 0.0
H931 H 0.81412 0.87745 0.33808 0.0
H932 H 0.87765 0.83453 0.33132 0.0
H933 H 0.85712 0.80336 0.29316 0.0
H934 H 0.82194 0.85406 0.38376 0.0
H935 H 0.92126 0.92609 0.33949 0.0
H936 H 0.89044 0.906 0.32195 0.0
H937 H 0.91343 0.88714 0.32914 0.0
C938 C 0.81217 0.844 0.30629 0.0
C939 C 0.82381 0.82258 0.29364 0.0
C940 C 0.82373 0.86153 0.32817 0.0
C941 C 0.84738 0.85825 0.33731 0.0
C942 C 0.8595 0.83746 0.32432 0.0
H943 H 0.92611 0.89144 0.47441 0.0
H944 H 0.89245 0.87232 0.44152 0.0
C945 C 0.8478 0.81973 0.3026 0.0
C946 C 0.85906 0.8758 0.36092 0.0
H947 H 0.91955 0.92533 0.38406 0.0
C948 C 0.84311 0.87002 0.38393 0.0
C949 C 0.88646 0.89679 0.36088 0.0
C950 C 0.90386 0.90465 0.33654 0.0
C951 C 0.85457 0.88372 0.40715 0.0
C952 C 0.88268 0.90335 0.40715 0.0
C953 C 0.898 0.91019 0.38403 0.0
C954 C 0.89773 0.91535 0.4306 0.0
C955 C 0.83667 0.87677 0.4314 0.0
C956 C 0.91141 0.94592 0.43575 0.0
C957 C 0.93096 0.95686 0.45428 0.0
C958 C 0.93723 0.93745 0.46802 0.0
C959 C 0.92181 0.90704 0.4642 0.0
C960 C 0.90236 0.89606 0.4455 0.0
H961 H 0.81377 0.86971 0.42826 0.0
H962 H 0.84077 0.85825 0.43852 0.0
H963 H 0.84179 0.8962 0.44623 0.0
H964 H 0.90818 0.96116 0.4244 0.0
H965 H 0.94229 0.98036 0.4567 0.0
H966 H 0.15896 0.75349 0.37308 0.0
H967 H 0.15715 0.7774 0.41701 0.0
H968 H 0.15417 0.85575 0.38944 0.0
H969 H 0.15604 0.83225 0.34601 0.0
H970 H 0.19048 0.86769 0.43057 0.0
H971 H 0.08268 0.7879 0.44966 0.0
H972 H 0.11183 0.77425 0.43977 0.0
H973 H 0.09844 0.79003 0.41774 0.0
C974 C 0.15785 0.77579 0.37656 0.0
C975 C 0.15742 0.79101 0.35626 0.0
C976 C 0.15708 0.78946 0.40154 0.0
C977 C 0.15561 0.81835 0.4064 0.0
C978 C 0.15572 0.83361 0.38607 0.0
H979 H 0.09867 0.94505 0.46269 0.0
H980 H 0.13462 0.92085 0.45274 0.0
C981 C 0.1566 0.8201 0.36128 0.0
C982 C 0.1507 0.83223 0.43227 0.0
H983 H 0.09454 0.83424 0.47324 0.0
C984 C 0.16986 0.86003 0.44058 0.0
C985 C 0.12414 0.82188 0.44565 0.0
C986 C 0.10295 0.79193 0.43789 0.0
C987 C 0.16172 0.87929 0.45988 0.0
C988 C 0.13362 0.8706 0.47061 0.0
C989 C 0.116 0.84121 0.46479 0.0
C990 C 0.11978 0.89246 0.48271 0.0
C991 C 0.18269 0.90937 0.46735 0.0
C992 C 0.10019 0.88574 0.50358 0.0
C993 C 0.079 0.89883 0.50858 0.0
C994 C 0.07764 0.91938 0.49322 0.0
C995 C 0.09945 0.92924 0.47474 0.0
C996 C 0.12023 0.91557 0.46927 0.0
H997 H 0.2041 0.90766 0.46778 0.0
H998 H 0.18404 0.92418 0.45294 0.0
H999 H 0.17663 0.91957 0.4862 0.0
H1000 H 0.09948 0.86815 0.51431 0.0
H1001 H 0.06248 0.89125 0.52322 0.0
H1002 H 0.16328 0.92074 0.74314 0.0
H1003 H 0.12825 0.92693 0.71844 0.0
H1004 H 0.13644 0.85497 0.66297 0.0
H1005 H 0.17255 0.84946 0.68714 0.0
H1006 H 0.14259 0.90279 0.64122 0.0
H1007 H 0.04654 0.88356 0.70625 0.0
H1008 H 0.0765 0.91056 0.72082 0.0
H1009 H 0.07631 0.87297 0.71192 0.0
C1010 C 0.15748 0.90602 0.72578 0.0
C1011 C 0.171 0.8848 0.71699 0.0
C1012 C 0.13707 0.9093 0.71186 0.0
C1013 C 0.12934 0.89118 0.68897 0.0
C1014 C 0.14189 0.86909 0.68067 0.0
H1015 H 1.01143 0.90668 0.58673 0.0
H1016 H 0.03028 0.88937 0.61947 0.0
C1017 C 0.16244 0.86585 0.69458 0.0
C1018 C 0.11092 0.89775 0.67237 0.0
H1019 H 0.04862 0.91167 0.67184 0.0
C1020 C 0.12188 0.90427 0.64785 0.0
C1021 C 0.08374 0.8995 0.68084 0.0
C1022 C 0.06996 0.89096 0.70631 0.0
C1023 C 0.10703 0.91366 0.63203 0.0
C1024 C 0.08072 0.91725 0.6411 0.0
C1025 C 0.06905 0.90946 0.66513 0.0
C1026 C 0.06568 0.92967 0.62573 0.0
C1027 C 0.1198 0.91994 0.60573 0.0
C1028 C 0.07832 0.95869 0.61964 0.0
C1029 C 0.06769 0.96862 0.601 0.0
C1030 C 0.04408 0.94974 0.58815 0.0
C1031 C 0.02968 0.92176 0.5962 0.0
C1032 C 0.04049 0.91176 0.61484 0.0
H1033 H 0.13614 0.90912 0.59944 0.0
H1034 H 0.10329 0.91221 0.59177 0.0
H1035 H 0.13004 0.9442 0.6057 0.0
H1036 H 0.09749 0.97306 0.6282 0.0
H1037 H 0.07909 0.99044 0.59551 0.0
H1038 H 0.17505 0.18665 0.72929 0.0
H1039 H 0.15117 0.15453 0.69288 0.0
H1040 H 0.2292 0.13927 0.66344 0.0
H1041 H 0.25313 0.1718 0.6997 0.0
H1042 H 0.20634 0.15748 0.62864 0.0
H1043 H 0.12411 0.06631 0.67179 0.0
H1044 H 0.12282 0.10177 0.68663 0.0
H1045 H 0.1536 0.09138 0.68883 0.0
C1046 C 0.18684 0.17594 0.71523 0.0
C1047 C 0.21588 0.18193 0.71684 0.0
C1048 C 0.17321 0.15742 0.69459 0.0
C1049 C 0.18838 0.14433 0.67554 0.0
C1050 C 0.21712 0.14913 0.67794 0.0
H1051 H 0.09012 0.02839 0.55369 0.0
H1052 H 0.12494 0.04713 0.58539 0.0
C1053 C 0.23073 0.1676 0.69862 0.0
C1054 C 0.1749 0.12826 0.65202 0.0
H1055 H 0.11576 0.07447 0.6304 0.0
C1056 C 0.18675 0.13902 0.62893 0.0
C1057 C 0.14968 0.10385 0.65235 0.0
C1058 C 0.137 0.08996 0.67621 0.0
C1059 C 0.1732 0.12705 0.60636 0.0
C1060 C 0.14686 0.10411 0.60705 0.0
C1061 C 0.13582 0.0923 0.6299 0.0
C1062 C 0.12939 0.0932 0.58485 0.0
C1063 C 0.18717 0.13931 0.58211 0.0
C1064 C 0.12074 0.11287 0.57353 0.0
C1065 C 0.10101 0.10217 0.55506 0.0
C1066 C 0.08913 0.07151 0.54785 0.0
C1067 C 0.09876 0.05202 0.55853 0.0
C1068 C 0.11867 0.06274 0.57682 0.0
H1069 H 0.21052 0.14841 0.58294 0.0
H1070 H 0.18201 0.12212 0.56546 0.0
H1071 H 0.17968 0.15773 0.57936 0.0
H1072 H 0.12816 0.13643 0.57984 0.0
H1073 H 0.09405 0.11791 0.54741 0.0
H1074 H 0.91952 0.2595 0.66664 0.0
H1075 H 0.91732 0.23934 0.62231 0.0
H1076 H 0.82886 0.19045 0.63509 0.0
H1077 H 0.8315 0.20727 0.67966 0.0
H1078 H 0.85626 0.15445 0.62228 0.0
H1079 H 0.89339 0.23507 0.55345 0.0
H1080 H 0.91639 0.24738 0.57897 0.0
H1081 H 0.87954 0.24436 0.58509 0.0
C1082 C 0.89948 0.24462 0.66013 0.0
C1083 C 0.87623 0.23397 0.67737 0.0
C1084 C 0.89803 0.23374 0.63443 0.0
C1085 C 0.87295 0.21301 0.62531 0.0
C1086 C 0.84852 0.20625 0.64171 0.0
H1087 H 0.90274 0.06895 0.51654 0.0
H1088 H 0.87423 0.10045 0.53448 0.0
C1089 C 0.85018 0.21619 0.6675 0.0
C1090 C 0.87456 0.19256 0.60197 0.0
H1091 H 0.91 0.19123 0.54388 0.0
C1092 C 0.86699 0.16233 0.60471 0.0
C1093 C 0.88835 0.20263 0.57897 0.0
C1094 C 0.89456 0.23413 0.5739 0.0
C1095 C 0.876 0.14274 0.58656 0.0
C1096 C 0.89265 0.15363 0.56485 0.0
C1097 C 0.89753 0.18305 0.56073 0.0
C1098 C 0.90963 0.13675 0.54945 0.0
C1099 C 0.87015 0.11137 0.59212 0.0
C1100 C 0.93903 0.14728 0.55106 0.0
C1101 C 0.95533 0.12951 0.54081 0.0
C1102 C 0.9425 0.10075 0.52884 0.0
C1103 C 0.91317 0.09079 0.52609 0.0
C1104 C 0.89687 0.10878 0.53618 0.0
H1105 H 0.85963 0.10761 0.61128 0.0
H1106 H 0.85612 0.09566 0.57801 0.0
H1107 H 0.89014 0.10607 0.59073 0.0
H1108 H 0.94925 0.16876 0.56135 0.0
H1109 H 0.97788 0.13802 0.54306 0.0
H1110 H 0.80831 0.85534 0.73632 0.0
H1111 H 0.83845 0.89029 0.70778 0.0
H1112 H 0.87203 0.8224 0.66977 0.0
H1113 H 0.84372 0.78856 0.69966 0.0
H1114 H 0.91185 0.87049 0.67064 0.0
H1115 H 0.82099 0.89297 0.6391 0.0
H1116 H 0.82464 0.90454 0.6723 0.0
H1117 H 0.81639 0.86581 0.66021 0.0
C1118 C 0.82248 0.8482 0.72204 0.0
C1119 C 0.82378 0.81938 0.72007 0.0
C1120 C 0.83943 0.86799 0.7055 0.0
C1121 C 0.85696 0.85884 0.68592 0.0
C1122 C 0.85873 0.83017 0.68455 0.0
H1123 H 0.90996 0.94166 0.54817 0.0
H1124 H 0.88638 0.91214 0.58234 0.0
C1125 C 0.84257 0.81079 0.70165 0.0
C1126 C 0.87311 0.87869 0.66659 0.0
H1127 H 0.86652 0.92308 0.6253 0.0
C1128 C 0.90184 0.88181 0.66059 0.0
C1129 C 0.86012 0.89319 0.65304 0.0
C1130 C 0.82879 0.8887 0.65628 0.0
C1131 C 0.91775 0.89853 0.64137 0.0
C1132 C 0.90508 0.91416 0.62867 0.0
C1133 C 0.87648 0.91141 0.63501 0.0
C1134 C 0.92027 0.93209 0.60777 0.0
C1135 C 0.9475 0.89798 0.63426 0.0
C1136 C 0.94732 0.95335 0.61035 0.0
C1137 C 0.96128 0.96949 0.5903 0.0
C1138 C 0.9479 0.96573 0.56779 0.0
C1139 C 0.9206 0.94525 0.56547 0.0
C1140 C 0.90712 0.92836 0.58506 0.0
H1141 H 0.95039 0.87781 0.63951 0.0
H1142 H 0.95295 0.89862 0.61362 0.0
H1143 H 0.96263 0.91745 0.64471 0.0
H1144 H 0.95766 0.95764 0.62786 0.0
H1145 H 0.98231 0.98528 0.59256 0.0
H1146 H 0.31157 0.22858 0.1805 0.0
H1147 H 0.33818 0.20185 0.15181 0.0
H1148 H 0.33789 0.15004 0.21086 0.0
H1149 H 0.30918 0.17545 0.23915 0.0
H1150 H 0.38786 0.19896 0.15207 0.0
H1151 H 0.31458 0.08445 0.15492 0.0
H1152 H 0.30467 0.11638 0.16855 0.0
H1153 H 0.32526 0.10243 0.18575 0.0
C1154 C 0.3163 0.21089 0.18721 0.0
C1155 C 0.30723 0.20359 0.21193 0.0
C1156 C 0.33201 0.1958 0.17081 0.0
C1157 C 0.33969 0.17322 0.17873 0.0
C1158 C 0.33153 0.16655 0.20379 0.0
H1159 H 0.47687 0.11654 0.09519 0.0
H1160 H 0.44795 0.13911 0.12568 0.0
C1161 C 0.31533 0.18139 0.22012 0.0
C1162 C 0.35703 0.15774 0.16093 0.0
H1163 H 0.36032 0.08953 0.13474 0.0
C1164 C 0.38169 0.17501 0.14828 0.0
C1165 C 0.34899 0.12644 0.15542 0.0
C1166 C 0.32179 0.10634 0.16666 0.0
C1167 C 0.39841 0.1621 0.13058 0.0
C1168 C 0.3911 0.13079 0.12592 0.0
C1169 C 0.36632 0.11348 0.1384 0.0
C1170 C 0.40862 0.11567 0.10795 0.0
C1171 C 0.42324 0.18239 0.11647 0.0
C1172 C 0.3962 0.09362 0.08835 0.0
C1173 C 0.41271 0.08004 0.07112 0.0
C1174 C 0.44214 0.08832 0.07292 0.0
C1175 C 0.45439 0.10989 0.09288 0.0
C1176 C 0.43783 0.12306 0.11031 0.0
H1177 H 0.42038 0.20411 0.11582 0.0
H1178 H 0.44269 0.18671 0.12642 0.0
H1179 H 0.4264 0.1724 0.09673 0.0
H1180 H 0.37374 0.08722 0.08607 0.0
H1181 H 0.40249 0.06349 0.05607 0.0
H1182 H 0.83117 0.34594 0.23758 0.0
H1183 H 0.86525 0.37787 0.20862 0.0
H1184 H 0.84999 0.3042 0.14927 0.0
H1185 H 0.81569 0.27262 0.17782 0.0
H1186 H 0.91614 0.36883 0.17872 0.0
H1187 H 0.83234 0.3711 0.12028 0.0
H1188 H 0.8247 0.36006 0.15176 0.0
H1189 H 0.83155 0.3349 0.12548 0.0
C1190 C 0.83498 0.3368 0.21826 0.0
C1191 C 0.82089 0.30697 0.2098 0.0
C1192 C 0.8546 0.35485 0.20189 0.0
C1193 C 0.86002 0.34332 0.17685 0.0
C1194 C 0.84597 0.31351 0.16848 0.0
H1195 H 0.98578 0.42651 0.05966 0.0
H1196 H 0.96153 0.39468 0.09264 0.0
C1197 C 0.82645 0.29553 0.18478 0.0
C1198 C 0.87923 0.36272 0.15895 0.0
H1199 H 0.8796 0.3934 0.10556 0.0
C1200 C 0.90827 0.37434 0.16273 0.0
C1201 C 0.86875 0.36973 0.13817 0.0
C1202 C 0.83761 0.35853 0.13368 0.0
C1203 C 0.92718 0.39301 0.14615 0.0
C1204 C 0.91664 0.39992 0.12532 0.0
C1205 C 0.88762 0.38801 0.12153 0.0
C1206 C 0.93462 0.4209 0.10791 0.0
C1207 C 0.95808 0.40575 0.15131 0.0
C1208 C 0.92784 0.44629 0.10581 0.0
C1209 C 0.94129 0.46409 0.08694 0.0
C1210 C 0.96197 0.45701 0.06974 0.0
C1211 C 0.97001 0.43253 0.07269 0.0
C1212 C 0.95623 0.41441 0.09157 0.0
H1213 H 0.96186 0.40289 0.17068 0.0
H1214 H 0.97025 0.3943 0.13744 0.0
H1215 H 0.96636 0.42971 0.14904 0.0
H1216 H 0.91131 0.45176 0.11827 0.0
H1217 H 0.93488 0.48304 0.0854 0.0
H1218 H 0.63595 0.83423 0.20766 0.0
H1219 H 0.60771 0.84563 0.17884 0.0
H1220 H 0.68311 0.88323 0.13199 0.0
H1221 H 0.71159 0.8721 0.16087 0.0
H1222 H 0.61266 0.90118 0.16803 0.0
H1223 H 0.62844 0.83003 0.07997 0.0
H1224 H 0.63665 0.82485 0.11059 0.0
H1225 H 0.66094 0.85323 0.09327 0.0
C1226 C 0.64656 0.84482 0.19116 0.0
C1227 C 0.67612 0.85239 0.18668 0.0
C1228 C 0.63033 0.85121 0.17465 0.0
C1229 C 0.6432 0.86507 0.15312 0.0
C1230 C 0.6726 0.87199 0.1482 0.0
H1231 H 0.59548 0.97516 0.06857 0.0
H1232 H 0.61218 0.95339 0.09927 0.0
C1233 C 0.68889 0.86561 0.16474 0.0
C1234 C 0.62616 0.87406 0.13683 0.0
H1235 H 0.60921 0.86804 0.0757 0.0
C1236 C 0.61168 0.89369 0.14789 0.0
C1237 C 0.62448 0.86396 0.11062 0.0
C1238 C 0.63821 0.84162 0.09791 0.0
C1239 C 0.59658 0.90441 0.13328 0.0
C1240 C 0.59619 0.89556 0.10685 0.0
C1241 C 0.60967 0.87498 0.09595 0.0
C1242 C 0.58368 0.90893 0.08993 0.0
C1243 C 0.5813 0.92527 0.14627 0.0
C1244 C 0.56187 0.89124 0.0745 0.0
C1245 C 0.55213 0.90368 0.05683 0.0
C1246 C 0.56439 0.93398 0.05401 0.0
C1247 C 0.58554 0.95175 0.07016 0.0
C1248 C 0.59508 0.93936 0.08785 0.0
H1249 H 0.57653 0.9229 0.16677 0.0
H1250 H 0.59492 0.94844 0.14453 0.0
H1251 H 0.56121 0.92134 0.13742 0.0
H1252 H 0.55281 0.86768 0.07575 0.0
H1253 H 0.53591 0.88933 0.04466 0.0
H1254 H 0.2762 0.70441 0.17407 0.0
H1255 H 0.25501 0.67196 0.13653 0.0
H1256 H 0.17216 0.65623 0.17494 0.0
H1257 H 0.19312 0.68844 0.21246 0.0
H1258 H 0.21525 0.60996 0.12873 0.0
H1259 H 0.17109 0.69555 0.11059 0.0
H1260 H 0.20123 0.70372 0.12912 0.0
H1261 H 0.16602 0.68754 0.14286 0.0
C1262 C 0.25349 0.69369 0.1746 0.0
C1263 C 0.23619 0.69935 0.19599 0.0
C1264 C 0.24146 0.67516 0.15318 0.0
C1265 C 0.21203 0.66209 0.15289 0.0
C1266 C 0.19492 0.66647 0.17471 0.0
H1267 H 0.09082 0.53053 0.0634 0.0
H1268 H 0.13114 0.55497 0.08934 0.0
C1269 C 0.20688 0.68495 0.19607 0.0
C1270 C 0.19867 0.6458 0.12934 0.0
H1271 H 0.15239 0.64785 0.08852 0.0
C1272 C 0.20174 0.61826 0.11964 0.0
C1273 C 0.18186 0.65713 0.11706 0.0
C1274 C 0.17995 0.68773 0.12522 0.0
C1275 C 0.18697 0.60099 0.09874 0.0
C1276 C 0.16824 0.61133 0.08779 0.0
C1277 C 0.16651 0.63961 0.09683 0.0
C1278 C 0.14844 0.59292 0.06839 0.0
C1279 C 0.19167 0.57197 0.0887 0.0
C1280 C 0.14485 0.6056 0.04754 0.0
C1281 C 0.1212 0.59216 0.03334 0.0
C1282 C 0.10114 0.56537 0.03926 0.0
C1283 C 0.10617 0.55109 0.05834 0.0
C1284 C 0.12941 0.56499 0.07308 0.0
H1285 H 0.21348 0.57291 0.09168 0.0
H1286 H 0.17679 0.55419 0.09918 0.0
H1287 H 0.18816 0.56596 0.06818 0.0
H1288 H 0.15926 0.62702 0.04339 0.0
H1289 H 0.1178 0.6035 0.01861 0.0
H1290 H 0.3035 0.78887 0.83962 0.0
H1291 H 0.32484 0.82391 0.87523 0.0
H1292 H 0.30868 0.89405 0.8448 0.0
H1293 H 0.28736 0.85898 0.80863 0.0
H1294 H 0.36402 0.90758 0.85596 0.0
H1295 H 0.29341 0.86476 0.93789 0.0
H1296 H 0.30277 0.83567 0.91786 0.0
H1297 H 0.28259 0.85468 0.90576 0.0
C1298 C 0.30409 0.81164 0.84055 0.0
C1299 C 0.29384 0.82113 0.82115 0.0
C1300 C 0.31604 0.8316 0.86114 0.0
C1301 C 0.31786 0.86147 0.86293 0.0
C1302 C 0.30714 0.87099 0.84391 0.0
H1303 H 0.44301 0.99126 0.96215 0.0
H1304 H 0.4002 0.97344 0.93861 0.0
C1305 C 0.29502 0.85093 0.82326 0.0
C1306 C 0.33402 0.88292 0.88311 0.0
H1307 H 0.34268 0.89164 0.94648 0.0
C1308 C 0.359 0.90479 0.87587 0.0
C1309 C 0.32729 0.8793 0.90905 0.0
C1310 C 0.29987 0.85751 0.91811 0.0
C1311 C 0.37876 0.92119 0.89358 0.0
C1312 C 0.37307 0.91579 0.91924 0.0
C1313 C 0.34704 0.89562 0.92678 0.0
C1314 C 0.39559 0.92704 0.93733 0.0
C1315 C 0.40654 0.94236 0.88435 0.0
C1316 C 0.40623 0.90681 0.94551 0.0
C1317 C 0.4305 0.91685 0.959 0.0
C1318 C 0.44461 0.94737 0.96464 0.0
C1319 C 0.43273 0.96761 0.95803 0.0
C1320 C 0.40837 0.95749 0.94445 0.0
H1321 H 0.40897 0.94111 0.86335 0.0
H1322 H 0.40785 0.96539 0.89219 0.0
H1323 H 0.42452 0.93762 0.89099 0.0
H1324 H 0.3966 0.8832 0.94028 0.0
H1325 H 0.43886 0.90063 0.96405 0.0
H1326 H 0.18016 0.26784 0.78363 0.0
H1327 H 0.15426 0.29571 0.81295 0.0
H1328 H 0.22838 0.33787 0.85523 0.0
H1329 H 0.25433 0.31024 0.82601 0.0
H1330 H 0.14704 0.29642 0.87004 0.0
H1331 H 0.20192 0.4072 0.83809 0.0
H1332 H 0.20099 0.37314 0.81821 0.0
H1333 H 0.22375 0.38631 0.84398 0.0
C1334 C 0.19099 0.28322 0.79906 0.0
C1335 C 0.21929 0.28671 0.80252 0.0
C1336 C 0.17613 0.29904 0.81588 0.0
C1337 C 0.18939 0.31907 0.83624 0.0
C1338 C 0.21772 0.32276 0.83958 0.0
H1339 H 0.13576 0.44213 0.95258 0.0
H1340 H 0.16264 0.41511 0.92376 0.0
C1341 C 0.23248 0.30677 0.82294 0.0
C1342 C 0.1735 0.3357 0.85425 0.0
H1343 H 0.1691 0.40506 0.87348 0.0
C1344 C 0.15177 0.32015 0.87074 0.0
C1345 C 0.17989 0.36673 0.85542 0.0
C1346 C 0.20278 0.38447 0.83792 0.0
C1347 C 0.13649 0.33477 0.88852 0.0
C1348 C 0.14242 0.36581 0.88938 0.0
C1349 C 0.16435 0.38135 0.87292 0.0
C1350 C 0.12597 0.38245 0.90696 0.0
C1351 C 0.11471 0.3168 0.9067 0.0
C1352 C 0.09634 0.37366 0.90699 0.0
C1353 C 0.08089 0.38891 0.92364 0.0
C1354 C 0.09462 0.41379 0.9405 0.0
C1355 C 0.12437 0.42308 0.93999 0.0
C1356 C 0.13982 0.4076 0.92345 0.0
H1357 H 0.11917 0.2964 0.90922 0.0
H1358 H 0.11389 0.32986 0.92557 0.0
H1359 H 0.09357 0.30987 0.89898 0.0
H1360 H 0.08504 0.35502 0.89398 0.0
H1361 H 0.05809 0.38121 0.92313 0.0
H1362 H 0.72917 0.24677 0.83721 0.0
H1363 H 0.69464 0.21487 0.86541 0.0
H1364 H 0.64047 0.17549 0.80362 0.0
H1365 H 0.67587 0.20596 0.77499 0.0
H1366 H 0.64067 0.20493 0.88201 0.0
H1367 H 0.65086 0.10353 0.82311 0.0
H1368 H 0.67146 0.14009 0.81574 0.0
H1369 H 0.6355 0.12399 0.80714 0.0
C1370 C 0.70999 0.23111 0.82961 0.0
C1371 C 0.70576 0.22807 0.8037 0.0
C1372 C 0.69007 0.21312 0.84582 0.0
C1373 C 0.66521 0.19205 0.83654 0.0
C1374 C 0.65984 0.19083 0.8111 0.0
H1375 H 0.54159 0.07762 0.94199 0.0
H1376 H 0.56039 0.11341 0.91098 0.0
C1377 C 0.68001 0.2085 0.79479 0.0
C1378 C 0.64598 0.17046 0.85323 0.0
H1379 H 0.61952 0.09653 0.85963 0.0
C1380 C 0.63581 0.18121 0.877 0.0
C1381 C 0.63954 0.1394 0.84676 0.0
C1382 C 0.65009 0.12602 0.82191 0.0
C1383 C 0.62025 0.16191 0.89466 0.0
C1384 C 0.61459 0.13105 0.88838 0.0
C1385 C 0.62381 0.12022 0.86434 0.0
C1386 C 0.60245 0.10989 0.90741 0.0
C1387 C 0.61109 0.17465 0.92037 0.0
C1388 C 0.61965 0.09583 0.91546 0.0
C1389 C 0.60906 0.07563 0.93311 0.0
C1390 C 0.58082 0.06873 0.94318 0.0
C1391 C 0.56344 0.08264 0.93491 0.0
C1392 C 0.57418 0.10312 0.9172 0.0
H1393 H 0.61966 0.19925 0.92325 0.0
H1394 H 0.58766 0.16786 0.92242 0.0
H1395 H 0.61812 0.16585 0.93553 0.0
H1396 H 0.6415 0.10066 0.90814 0.0
H1397 H 0.62321 0.06547 0.93889 0.0
H1398 H 0.90215 0.64581 0.78058 0.0
H1399 H 0.92297 0.62342 0.80792 0.0
H1400 H 0.91845 0.69076 0.86959 0.0
H1401 H 0.89797 0.71354 0.84236 0.0
H1402 H 0.9731 0.64818 0.83502 0.0
H1403 H 0.8764 0.61238 0.89918 0.0
H1404 H 0.87593 0.62373 0.86865 0.0
H1405 H 0.88829 0.65105 0.89525 0.0
C1406 C 0.90576 0.65603 0.7999 0.0
C1407 C 0.89818 0.68142 0.80928 0.0
C1408 C 0.91762 0.64314 0.81552 0.0
C1409 C 0.922 0.65522 0.84087 0.0
C1410 C 0.91481 0.68075 0.85022 0.0
H1411 H 1.01888 0.61887 0.94961 0.0
H1412 H 1.00439 0.63979 0.91661 0.0
C1413 C 0.90297 0.69367 0.83463 0.0
C1414 C 0.93371 0.64091 0.85764 0.0
H1415 H 0.91799 0.6071 0.91153 0.0
C1416 C 0.96106 0.63911 0.85172 0.0
C1417 C 0.91785 0.62877 0.87924 0.0
C1418 C 0.88789 0.62877 0.88592 0.0
C1419 C 0.97314 0.62593 0.86712 0.0
C1420 C 0.95751 0.61451 0.88909 0.0
C1421 C 0.93003 0.61597 0.89475 0.0
C1422 C 0.96887 0.60069 0.90657 0.0
C1423 C 1.0023 0.62393 0.85954 0.0
C1424 C 0.95403 0.57162 0.9117 0.0
C1425 C 0.96212 0.55968 0.93063 0.0
C1426 C 0.98521 0.57662 0.94502 0.0
C1427 C 1.00102 0.60519 0.93893 0.0
C1428 C 0.99282 0.61717 0.91996 0.0
H1429 H 1.00832 0.62652 0.83919 0.0
H1430 H 1.01796 0.6419 0.87091 0.0
H1431 H 1.00362 0.60241 0.86321 0.0
H1432 H 0.93555 0.55844 0.90157 0.0
H1433 H 0.94955 0.53752 0.9346 0.0
H1434 H 0.09871 0.30828 0.21567 0.0
H1435 H 0.07739 0.32885 0.18732 0.0
H1436 H 0.15749 0.35883 0.14461 0.0
H1437 H 0.17918 0.33877 0.17313 0.0
H1438 H 0.0925 0.38808 0.17715 0.0
H1439 H 0.10213 0.31266 0.0899 0.0
H1440 H 0.10585 0.30491 0.12106 0.0
H1441 H 0.13463 0.33096 0.10512 0.0
C1442 C 0.11191 0.31939 0.20035 0.0
C1443 C 0.14076 0.32183 0.19677 0.0
C1444 C 0.09961 0.33102 0.18407 0.0
C1445 C 0.11573 0.34511 0.16366 0.0
C1446 C 0.14448 0.34755 0.15994 0.0
H1447 H 0.08849 0.46487 0.07292 0.0
H1448 H 0.10162 0.44185 0.10507 0.0
C1449 C 0.15685 0.336 0.17626 0.0
C1450 C 0.10262 0.35786 0.14666 0.0
H1451 H 0.08873 0.3542 0.08494 0.0
C1452 C 0.09154 0.38057 0.15701 0.0
C1453 C 0.10099 0.34779 0.12044 0.0
C1454 C 0.11128 0.32255 0.10844 0.0
C1455 C 0.07968 0.39404 0.14172 0.0
C1456 C 0.07904 0.38472 0.11536 0.0
C1457 C 0.08936 0.36144 0.10513 0.0
C1458 C 0.06885 0.39956 0.09782 0.0
C1459 C 0.06781 0.41808 0.15388 0.0
C1460 C 0.0458 0.38359 0.08319 0.0
C1461 C 0.03811 0.39675 0.06477 0.0
C1462 C 0.05364 0.42603 0.06032 0.0
C1463 C 0.07605 0.44229 0.07573 0.0
C1464 C 0.08356 0.42918 0.09424 0.0
H1465 H 0.06334 0.41745 0.17464 0.0
H1466 H 0.08345 0.44001 0.15078 0.0
H1467 H 0.04804 0.41603 0.1453 0.0
H1468 H 0.03417 0.36068 0.08562 0.0
H1469 H 0.02078 0.38352 0.05328 0.0
H1470 H 0.21226 0.74375 0.83238 0.0
H1471 H 0.17862 0.71025 0.85999 0.0
H1472 H 0.17565 0.63614 0.80284 0.0
H1473 H 0.20891 0.66982 0.77478 0.0
H1474 H 0.11942 0.64042 0.8308 0.0
H1475 H 0.20568 0.64864 0.89112 0.0
H1476 H 0.20329 0.68289 0.88384 0.0
H1477 H 0.21256 0.65768 0.85898 0.0
C1478 C 0.20399 0.72042 0.8255 0.0
C1479 C 0.21293 0.70936 0.80141 0.0
C1480 C 0.18492 0.70132 0.84132 0.0
C1481 C 0.17468 0.67082 0.83337 0.0
C1482 C 0.18323 0.65969 0.80918 0.0
H1483 H 0.11038 0.52929 0.92505 0.0
H1484 H 0.13307 0.56206 0.89299 0.0
C1485 C 0.20235 0.67884 0.79331 0.0
C1486 C 0.15675 0.65036 0.85109 0.0
H1487 H 0.15946 0.62082 0.9043 0.0
C1488 C 0.12804 0.63602 0.84691 0.0
C1489 C 0.16824 0.64476 0.87193 0.0
C1490 C 0.19916 0.65908 0.87679 0.0
C1491 C 0.11043 0.616 0.86315 0.0
C1492 C 0.12195 0.61048 0.88409 0.0
C1493 C 0.15066 0.62508 0.88825 0.0
C1494 C 0.10534 0.58864 0.90141 0.0
C1495 C 0.07991 0.60046 0.85745 0.0
C1496 C 0.0817 0.59223 0.91647 0.0
C1497 C 0.06844 0.57322 0.93482 0.0
C1498 C 0.07891 0.55071 0.93865 0.0
C1499 C 0.10193 0.54663 0.92286 0.0
C1500 C 0.11493 0.56532 0.90445 0.0
H1501 H 0.07613 0.6018 0.83767 0.0
H1502 H 0.07324 0.57677 0.8605 0.0
H1503 H 0.06634 0.61111 0.8704 0.0
H1504 H 0.07419 0.61037 0.91476 0.0
H1505 H 0.05088 0.577 0.94669 0.0
H1506 H 0.34184 0.14955 0.85039 0.0
H1507 H 0.37453 0.14185 0.87699 0.0
H1508 H 0.44006 0.1591 0.81652 0.0
H1509 H 0.40728 0.16654 0.78967 0.0
H1510 H 0.43612 0.10995 0.83562 0.0
H1511 H 0.43979 0.19861 0.91492 0.0
H1512 H 0.40403 0.1761 0.90943 0.0
H1513 H 0.42533 0.19767 0.88529 0.0
C1514 C 0.36336 0.15227 0.84292 0.0
C1515 C 0.37196 0.15868 0.81793 0.0
C1516 C 0.38209 0.14797 0.85818 0.0
C1517 C 0.40995 0.15041 0.84894 0.0
C1518 C 0.41873 0.15725 0.82411 0.0
H1519 H 0.51762 0.12868 0.95873 0.0
H1520 H 0.50403 0.14979 0.92519 0.0
C1521 C 0.39994 0.16137 0.80877 0.0
C1522 C 0.42905 0.14352 0.86453 0.0
H1523 H 0.45292 0.15746 0.92392 0.0
C1524 C 0.4402 0.12072 0.85478 0.0
C1525 C 0.43501 0.15796 0.88933 0.0
C1526 C 0.42566 0.18417 0.90024 0.0
C1527 C 0.45551 0.11069 0.8697 0.0
C1528 C 0.45924 0.12335 0.89523 0.0
C1529 C 0.44976 0.14747 0.90445 0.0
C1530 C 0.47006 0.10994 0.91339 0.0
C1531 C 0.46708 0.08624 0.85808 0.0
C1532 C 0.45573 0.08049 0.91768 0.0
C1533 C 0.46342 0.06842 0.93668 0.0
C1534 C 0.48547 0.08562 0.95212 0.0
C1535 C 0.50052 0.11484 0.94724 0.0
C1536 C 0.49276 0.12695 0.92811 0.0
H1537 H 0.47163 0.08662 0.8373 0.0
H1538 H 0.48674 0.08803 0.86672 0.0
H1539 H 0.45106 0.06451 0.86115 0.0
H1540 H 0.43777 0.06711 0.90699 0.0
H1541 H 0.45136 0.04582 0.93979 0.0
H1542 H 0.84817 0.32744 0.79228 0.0
H1543 H 0.86944 0.36088 0.82886 0.0
H1544 H 0.78912 0.37258 0.8546 0.0
H1545 H 0.76737 0.33789 0.81852 0.0
H1546 H 0.87562 0.4178 0.84686 0.0
H1547 H 0.80696 0.34356 0.91532 0.0
H1548 H 0.80774 0.33226 0.88162 0.0
H1549 H 0.78911 0.35739 0.89539 0.0
C1550 C 0.835 0.33724 0.80561 0.0
C1551 C 0.80592 0.3297 0.80262 0.0
C1552 C 0.84723 0.35648 0.8265 0.0
C1553 C 0.83076 0.36881 0.84478 0.0
C1554 C 0.80209 0.3628 0.84106 0.0
H1555 H 0.93918 0.48608 0.96337 0.0
H1556 H 0.90014 0.47076 0.93538 0.0
C1557 C 0.78975 0.34326 0.82023 0.0
C1558 C 0.84376 0.38658 0.86814 0.0
H1559 H 0.84406 0.38421 0.93159 0.0
C1560 C 0.86849 0.41083 0.8655 0.0
C1561 C 0.83431 0.37741 0.89244 0.0
C1562 C 0.80821 0.35113 0.89649 0.0
C1563 C 0.88514 0.42485 0.88606 0.0
C1564 C 0.87641 0.4148 0.91014 0.0
C1565 C 0.85064 0.3919 0.91315 0.0
C1566 C 0.89586 0.42416 0.93103 0.0
C1567 C 0.91298 0.44878 0.88132 0.0
C1568 C 0.90506 0.4029 0.93931 0.0
C1569 C 0.92699 0.41149 0.95555 0.0
C1570 C 0.94039 0.44163 0.96381 0.0
C1571 C 0.92958 0.46273 0.95719 0.0
C1572 C 0.90739 0.45403 0.941 0.0
H1573 H 0.91866 0.45037 0.86079 0.0
H1574 H 0.91156 0.47052 0.89042 0.0
H1575 H 0.93032 0.44458 0.88962 0.0
H1576 H 0.89637 0.37969 0.93204 0.0
H1577 H 0.93445 0.39454 0.96046 0.0
H1578 H 0.77 0.8351 0.82173 0.0
H1579 H 0.74249 0.86161 0.85029 0.0
H1580 H 0.66808 0.8117 0.81026 0.0
H1581 H 0.69561 0.78466 0.78202 0.0
H1582 H 0.70974 0.89642 0.8372 0.0
H1583 H 0.64334 0.80033 0.88624 0.0
H1584 H 0.67619 0.80095 0.86842 0.0
H1585 H 0.64488 0.79431 0.85218 0.0
C1586 C 0.74769 0.82931 0.81941 0.0
C1587 C 0.73482 0.80724 0.80011 0.0
C1588 C 0.73202 0.84478 0.83552 0.0
C1589 C 0.70305 0.83838 0.83276 0.0
C1590 C 0.69027 0.81674 0.81308 0.0
H1591 H 0.56905 0.8969 0.91702 0.0
H1592 H 0.59774 0.87283 0.88772 0.0
C1593 C 0.70604 0.80143 0.79685 0.0
C1594 C 0.6863 0.85447 0.85032 0.0
H1595 H 0.63195 0.84455 0.89621 0.0
C1596 C 0.69277 0.88512 0.85017 0.0
C1597 C 0.66411 0.83977 0.86721 0.0
C1598 C 0.65674 0.80707 0.8688 0.0
C1599 C 0.6773 0.9013 0.86599 0.0
C1600 C 0.65516 0.88664 0.88307 0.0
C1601 C 0.64883 0.85595 0.88323 0.0
C1602 C 0.63794 0.90241 0.90062 0.0
C1603 C 0.68431 0.93377 0.8636 0.0
C1604 C 0.65074 0.92722 0.9179 0.0
C1605 C 0.63429 0.94135 0.93463 0.0
C1606 C 0.60455 0.93073 0.9348 0.0
C1607 C 0.59184 0.90581 0.91755 0.0
C1608 C 0.60828 0.89191 0.90073 0.0
H1609 H 0.69536 0.93935 0.84494 0.0
H1610 H 0.66496 0.94034 0.86596 0.0
H1611 H 0.6986 0.94711 0.87852 0.0
H1612 H 0.67349 0.93541 0.91882 0.0
H1613 H 0.64489 0.96023 0.94777 0.0
H1614 H 0.85602 0.75928 0.19735 0.0
H1615 H 0.88283 0.73373 0.16661 0.0
H1616 H 0.81384 0.65175 0.16945 0.0
H1617 H 0.787 0.6771 0.20001 0.0
H1618 H 0.8964 0.67957 0.1756 0.0
H1619 H 0.83433 0.66159 0.09152 0.0
H1620 H 0.83479 0.69055 0.11739 0.0
H1621 H 0.81447 0.65279 0.12106 0.0
C1622 C 0.84642 0.73592 0.19113 0.0
C1623 C 0.8193 0.72028 0.20105 0.0
C1624 C 0.86184 0.72129 0.17368 0.0
C1625 C 0.85032 0.69081 0.16555 0.0
C1626 C 0.82311 0.67529 0.1752 0.0
H1627 H 0.90564 0.55892 0.06197 0.0
H1628 H 0.87897 0.5863 0.09064 0.0
C1629 C 0.80782 0.68981 0.19277 0.0
C1630 C 0.86701 0.67483 0.14778 0.0
H1631 H 0.869 0.6378 0.08808 0.0
C1632 C 0.89056 0.67063 0.15639 0.0
C1633 C 0.8592 0.66283 0.12282 0.0
C1634 C 0.83445 0.66723 0.11244 0.0
C1635 C 0.9062 0.65436 0.14094 0.0
C1636 C 0.89859 0.6425 0.11581 0.0
C1637 C 0.87497 0.64678 0.10724 0.0
C1638 C 0.91494 0.62579 0.09817 0.0
C1639 C 0.93018 0.64925 0.15206 0.0
C1640 C 0.94406 0.6388 0.09237 0.0
C1641 C 0.95942 0.62313 0.07607 0.0
C1642 C 0.94608 0.59402 0.0648 0.0
C1643 C 0.91677 0.58119 0.07028 0.0
C1644 C 0.90143 0.59689 0.08669 0.0
H1645 H 0.92782 0.65166 0.1731 0.0
H1646 H 0.9315 0.62684 0.14512 0.0
H1647 H 0.95041 0.66594 0.14639 0.0
H1648 H 0.95499 0.66128 0.10031 0.0
H1649 H 0.98183 0.63401 0.07221 0.0
H1650 H 0.32699 0.76241 0.17681 0.0
H1651 H 0.36394 0.78965 0.14719 0.0
H1652 H 0.36868 0.8717 0.19428 0.0
H1653 H 0.33267 0.84463 0.22431 0.0
H1654 H 0.3613 0.83058 0.12003 0.0
H1655 H 0.45165 0.88016 0.18053 0.0
H1656 H 0.42064 0.85025 0.18926 0.0
H1657 H 0.42062 0.88799 0.19501 0.0
C1658 C 0.33627 0.78621 0.18102 0.0
C1659 C 0.32683 0.80144 0.2028 0.0
C1660 C 0.35731 0.80169 0.16409 0.0
C1661 C 0.36949 0.83259 0.16873 0.0
C1662 C 0.36017 0.84779 0.19057 0.0
H1663 H 0.42723 0.96485 0.07408 0.0
H1664 H 0.40553 0.92805 0.10285 0.0
C1665 C 0.33918 0.83234 0.20751 0.0
C1666 C 0.39011 0.84927 0.14972 0.0
H1667 H 0.45364 0.90417 0.14335 0.0
C1668 C 0.38172 0.84621 0.12503 0.0
C1669 C 0.41703 0.8693 0.15601 0.0
C1670 C 0.42816 0.8719 0.18158 0.0
C1671 C 0.39862 0.86407 0.10706 0.0
C1672 C 0.42438 0.8859 0.11404 0.0
C1673 C 0.43374 0.88762 0.13813 0.0
C1674 C 0.43952 0.90938 0.09774 0.0
C1675 C 0.38826 0.86021 0.08095 0.0
C1676 C 0.46652 0.91189 0.08599 0.0
C1677 C 0.47927 0.93323 0.06928 0.0
C1678 C 0.46514 0.9523 0.06422 0.0
C1679 C 0.43867 0.95035 0.07706 0.0
C1680 C 0.42611 0.92924 0.09358 0.0
H1681 H 0.37312 0.83763 0.07619 0.0
H1682 H 0.37716 0.87642 0.08032 0.0
H1683 H 0.40616 0.86423 0.06629 0.0
H1684 H 0.47734 0.89689 0.08919 0.0
H1685 H 0.49972 0.93429 0.05992 0.0
H1686 H 0.75154 0.15865 0.20553 0.0
H1687 H 0.73251 0.12433 0.16818 0.0
H1688 H 0.7111 0.193 0.1405 0.0
H1689 H 0.73 0.22732 0.1774 0.0
H1690 H 0.67621 0.10805 0.15508 0.0
H1691 H 0.75023 0.15882 0.07769 0.0
H1692 H 0.75907 0.16674 0.11042 0.0
H1693 H 0.73847 0.18561 0.09881 0.0
C1694 C 0.74306 0.16653 0.19133 0.0
C1695 C 0.74224 0.19572 0.19448 0.0
C1696 C 0.7323 0.14692 0.17001 0.0
C1697 C 0.72097 0.15635 0.15137 0.0
C1698 C 0.72042 0.18552 0.15436 0.0
H1699 H 0.6075 0.11919 0.04504 0.0
H1700 H 0.64863 0.13609 0.07017 0.0
C1701 C 0.73095 0.20502 0.17565 0.0
C1702 C 0.70696 0.1353 0.13 0.0
H1703 H 0.70257 0.12959 0.06619 0.0
C1704 C 0.68234 0.11206 0.13552 0.0
C1705 C 0.71522 0.14057 0.10457 0.0
C1706 C 0.74238 0.16412 0.09748 0.0
C1707 C 0.66419 0.09585 0.11651 0.0
C1708 C 0.67127 0.10284 0.09133 0.0
C1709 C 0.69715 0.12436 0.08552 0.0
C1710 C 0.64998 0.09212 0.0721 0.0
C1711 C 0.63646 0.07321 0.12393 0.0
C1712 C 0.63789 0.06183 0.06386 0.0
C1713 C 0.6141 0.05201 0.04954 0.0
C1714 C 0.6022 0.0724 0.04327 0.0
C1715 C 0.61586 0.10285 0.04983 0.0
C1716 C 0.63951 0.11259 0.0641 0.0
H1717 H 0.63273 0.07323 0.1448 0.0
H1718 H 0.61857 0.0775 0.11667 0.0
H1719 H 0.63645 0.05076 0.11545 0.0
H1720 H 0.646 0.04574 0.06949 0.0
H1721 H 0.60419 0.02843 0.04466 0.0
H1722 H 0.69302 0.72896 0.80881 0.0
H1723 H 0.66375 0.70247 0.84299 0.0
H1724 H 0.70457 0.63554 0.8256 0.0
H1725 H 0.73528 0.66329 0.79265 0.0
H1726 H 0.62597 0.65321 0.84695 0.0
H1727 H 0.71448 0.65187 0.89847 0.0
H1728 H 0.72014 0.67243 0.87186 0.0
H1729 H 0.71573 0.63334 0.86696 0.0
C1730 C 0.69565 0.70852 0.81228 0.0
C1731 C 0.71647 0.6982 0.79817 0.0
C1732 C 0.67893 0.69337 0.83187 0.0
C1733 C 0.68226 0.66723 0.83751 0.0
C1734 C 0.7022 0.65619 0.82249 0.0
H1735 H 0.55456 0.5448 0.93031 0.0
H1736 H 0.58096 0.57321 0.89614 0.0
C1737 C 0.71954 0.67184 0.8034 0.0
C1738 C 0.66484 0.65164 0.85898 0.0
H1739 H 0.66883 0.61968 0.91061 0.0
C1740 C 0.63544 0.64615 0.861 0.0
C1741 C 0.677 0.64291 0.87785 0.0
C1742 C 0.70859 0.65076 0.87885 0.0
C1743 C 0.61796 0.63199 0.88095 0.0
C1744 C 0.6299 0.62149 0.89883 0.0
C1745 C 0.65935 0.62727 0.89691 0.0
C1746 C 0.61263 0.60479 0.91984 0.0
C1747 C 0.5871 0.62947 0.88296 0.0
C1748 C 0.62178 0.61218 0.94464 0.0
C1749 C 0.60731 0.59514 0.96395 0.0
C1750 C 0.58288 0.57071 0.95916 0.0
C1751 C 0.57307 0.56382 0.93466 0.0
C1752 C 0.5881 0.58028 0.91511 0.0
H1753 H 0.58377 0.64746 0.87428 0.0
H1754 H 0.5749 0.6081 0.87248 0.0
H1755 H 0.57844 0.63046 0.90297 0.0
H1756 H 0.6405 0.63092 0.94903 0.0
H1757 H 0.61537 0.60096 0.98265 0.0
H1758 H 0.3198 0.64538 0.87093 0.0
H1759 H 0.35437 0.62929 0.88821 0.0
H1760 H 0.40151 0.63153 0.81559 0.0
H1761 H 0.36728 0.64849 0.79841 0.0
H1762 H 0.36741 0.58041 0.87541 0.0
H1763 H 0.46419 0.67617 0.86116 0.0
H1764 H 0.42928 0.67702 0.85747 0.0
H1765 H 0.4469 0.6588 0.83257 0.0
C1766 C 0.33758 0.64251 0.85867 0.0
C1767 C 0.34085 0.64821 0.83333 0.0
C1768 C 0.35739 0.63339 0.86857 0.0
C1769 C 0.38084 0.62955 0.85334 0.0
C1770 C 0.38408 0.63507 0.82794 0.0
H1771 H 0.46743 0.52548 0.91211 0.0
H1772 H 0.44704 0.54402 0.88146 0.0
C1773 C 0.36442 0.6446 0.8181 0.0
C1774 C 0.40097 0.61853 0.86401 0.0
H1775 H 0.47029 0.63506 0.8761 0.0
C1776 C 0.38992 0.59234 0.87547 0.0
C1777 C 0.43036 0.63419 0.86425 0.0
C1778 C 0.4434 0.66325 0.85343 0.0
C1779 C 0.40715 0.58171 0.88766 0.0
C1780 C 0.43663 0.59708 0.8876 0.0
C1781 C 0.44782 0.62303 0.87578 0.0
C1782 C 0.45541 0.58802 0.90195 0.0
C1783 C 0.39326 0.55491 0.90157 0.0
C1784 C 0.46941 0.6074 0.92224 0.0
C1785 C 0.48177 0.59709 0.93944 0.0
C1786 C 0.48 0.56708 0.93681 0.0
C1787 C 0.46878 0.54861 0.9149 0.0
C1788 C 0.45684 0.5591 0.89749 0.0
H1789 H 0.37006 0.55027 0.90491 0.0
H1790 H 0.3968 0.53516 0.89007 0.0
H1791 H 0.40233 0.55797 0.92017 0.0
H1792 H 0.46892 0.62993 0.92591 0.0
H1793 H 0.49033 0.612 0.956 0.0
H1794 H 0.35637 0.28336 0.78155 0.0
H1795 H 0.3878 0.31594 0.81325 0.0
H1796 H 0.33619 0.37284 0.82596 0.0
H1797 H 0.30456 0.34036 0.79401 0.0
H1798 H 0.41525 0.38781 0.81947 0.0
H1799 H 0.33837 0.33215 0.89456 0.0
H1800 H 0.34071 0.31348 0.86288 0.0
H1801 H 0.3258 0.34295 0.86851 0.0
C1802 C 0.35204 0.30316 0.79068 0.0
C1803 C 0.32803 0.30935 0.78536 0.0
C1804 C 0.37003 0.32173 0.80872 0.0
C1805 C 0.36417 0.34662 0.82187 0.0
C1806 C 0.341 0.35371 0.81583 0.0
H1807 H 0.46261 0.47189 0.93932 0.0
H1808 H 0.43166 0.44909 0.90469 0.0
C1809 C 0.32308 0.33526 0.79754 0.0
C1810 C 0.38089 0.36331 0.84348 0.0
H1811 H 0.38139 0.36676 0.90761 0.0
C1812 C 0.40782 0.38357 0.8388 0.0
C1813 C 0.3711 0.35727 0.8685 0.0
C1814 C 0.34245 0.33524 0.87416 0.0
C1815 C 0.42542 0.39786 0.85869 0.0
C1816 C 0.41569 0.39157 0.88372 0.0
C1817 C 0.38867 0.37148 0.88837 0.0
C1818 C 0.43358 0.40513 0.90528 0.0
C1819 C 0.45457 0.41892 0.85282 0.0
C1820 C 0.44428 0.38772 0.91744 0.0
C1821 C 0.46197 0.40067 0.93735 0.0
C1822 C 0.46896 0.43119 0.94556 0.0
C1823 C 0.45751 0.44832 0.93367 0.0
C1824 C 0.44 0.4354 0.91371 0.0
H1825 H 0.46058 0.41768 0.83215 0.0
H1826 H 0.45515 0.44195 0.85986 0.0
H1827 H 0.47056 0.41411 0.86261 0.0
H1828 H 0.43934 0.36422 0.91121 0.0
H1829 H 0.47038 0.38684 0.9461 0.0
H1830 H 0.73347 0.36914 0.83073 0.0
H1831 H 0.75077 0.39951 0.86966 0.0
H1832 H 0.68024 0.34386 0.91221 0.0
H1833 H 0.66424 0.31169 0.87358 0.0
H1834 H 0.72285 0.43071 0.89171 0.0
H1835 H 0.73434 0.3703 0.96563 0.0
H1836 H 0.73614 0.35565 0.93253 0.0
H1837 H 0.70269 0.34742 0.95111 0.0
C1838 C 0.72235 0.36229 0.84843 0.0
C1839 C 0.69709 0.33803 0.84888 0.0
C1840 C 0.73235 0.37989 0.87078 0.0
C1841 C 0.717 0.3741 0.89401 0.0
C1842 C 0.69302 0.34858 0.89472 0.0
H1843 H 0.60762 0.41077 0.9766 0.0
H1844 H 0.64945 0.398 0.96057 0.0
C1845 C 0.68335 0.33055 0.87243 0.0
C1846 C 0.72106 0.39791 0.91571 0.0
H1847 H 0.70311 0.40328 0.97903 0.0
C1848 C 0.71997 0.42535 0.91101 0.0
C1849 C 0.71844 0.39176 0.94103 0.0
C1850 C 0.72335 0.36475 0.94775 0.0
C1851 C 0.71062 0.44381 0.93013 0.0
C1852 C 0.70226 0.43437 0.95439 0.0
C1853 C 0.70872 0.41002 0.96017 0.0
C1854 C 0.67881 0.44218 0.96951 0.0
C1855 C 0.70569 0.47078 0.92319 0.0
C1856 C 0.68144 0.47122 0.98045 0.0
C1857 C 0.65722 0.47881 0.98942 0.0
C1858 C 0.63018 0.45738 0.98748 0.0
C1859 C 0.62799 0.428 0.97796 0.0
C1860 C 0.652 0.42052 0.96911 0.0
H1861 H 0.7142 0.47543 0.90364 0.0
H1862 H 0.68267 0.46751 0.92462 0.0
H1863 H 0.71601 0.4905 0.93654 0.0
H1864 H 0.702 0.4882 0.98107 0.0
H1865 H 0.65961 0.50156 0.99701 0.0
H1866 H 0.67002 0.3628 0.20562 0.0
H1867 H 0.65041 0.38937 0.1809 0.0
H1868 H 0.58231 0.30872 0.16134 0.0
H1869 H 0.60156 0.28225 0.18621 0.0
H1870 H 0.63868 0.38211 0.13121 0.0
H1871 H 0.53914 0.3643 0.19205 0.0
H1872 H 0.56928 0.35672 0.20103 0.0
H1873 H 0.5456 0.33042 0.17922 0.0
C1874 C 0.65111 0.35068 0.19572 0.0
C1875 C 0.63718 0.32051 0.19804 0.0
C1876 C 0.6398 0.36591 0.18176 0.0
C1877 C 0.6144 0.35125 0.16988 0.0
C1878 C 0.60138 0.32075 0.17103 0.0
H1879 H 0.5195 0.39644 0.06672 0.0
H1880 H 0.53494 0.37259 0.09694 0.0
C1881 C 0.61254 0.3056 0.18507 0.0
C1882 C 0.60148 0.36773 0.15628 0.0
H1883 H 0.54065 0.38371 0.15328 0.0
C1884 C 0.61735 0.38267 0.13618 0.0
C1885 C 0.57361 0.36853 0.16282 0.0
C1886 C 0.556 0.35439 0.18512 0.0
C1887 C 0.60589 0.39766 0.12204 0.0
C1888 C 0.57791 0.39803 0.12832 0.0
C1889 C 0.56207 0.38334 0.14851 0.0
C1890 C 0.56479 0.41313 0.11359 0.0
C1891 C 0.62356 0.41244 0.10003 0.0
C1892 C 0.57523 0.44402 0.11403 0.0
C1893 C 0.56635 0.45778 0.09692 0.0
C1894 C 0.54697 0.44084 0.07889 0.0
C1895 C 0.53462 0.41018 0.08014 0.0
C1896 C 0.54348 0.39646 0.09736 0.0
H1897 H 0.64257 0.40548 0.09476 0.0
H1898 H 0.6109 0.40726 0.0832 0.0
H1899 H 0.63071 0.43682 0.10527 0.0
H1900 H 0.59133 0.45733 0.12674 0.0
H1901 H 0.57615 0.48147 0.09674 0.0
H1902 H 0.73192 0.66539 0.21185 0.0
H1903 H 0.69638 0.6318 0.18367 0.0
H1904 H 0.64596 0.68978 0.20092 0.0
H1905 H 0.68136 0.72348 0.22901 0.0
H1906 H 0.61626 0.61989 0.1947 0.0
H1907 H 0.69148 0.67144 0.11694 0.0
H1908 H 0.70473 0.65792 0.14086 0.0
H1909 H 0.6926 0.68935 0.14917 0.0
C1910 C 0.71278 0.67042 0.21033 0.0
C1911 C 0.70937 0.69705 0.22247 0.0
C1912 C 0.69261 0.65131 0.19417 0.0
C1913 C 0.66873 0.6585 0.19023 0.0
C1914 C 0.66424 0.68389 0.20385 0.0
H1915 H 0.55966 0.61992 0.06815 0.0
H1916 H 0.59033 0.64206 0.10336 0.0
C1917 C 0.68448 0.70311 0.21979 0.0
C1918 C 0.65055 0.64214 0.16944 0.0
H1919 H 0.64803 0.63683 0.10536 0.0
C1920 C 0.6232 0.62328 0.17513 0.0
C1921 C 0.65967 0.64708 0.14405 0.0
C1922 C 0.68867 0.66765 0.13718 0.0
C1923 C 0.60464 0.60917 0.15586 0.0
C1924 C 0.61383 0.6143 0.13051 0.0
C1925 C 0.64118 0.63305 0.12487 0.0
C1926 C 0.59524 0.60081 0.10947 0.0
C1927 C 0.57517 0.58944 0.16266 0.0
C1928 C 0.58852 0.57051 0.10107 0.0
C1929 C 0.57132 0.5579 0.08086 0.0
C1930 C 0.56052 0.57538 0.06874 0.0
C1931 C 0.56764 0.60587 0.07707 0.0
C1932 C 0.58504 0.61852 0.09719 0.0
H1933 H 0.57001 0.59109 0.18346 0.0
H1934 H 0.55937 0.59527 0.15346 0.0
H1935 H 0.57325 0.56606 0.15554 0.0
H1936 H 0.59654 0.55663 0.11017 0.0
H1937 H 0.56599 0.53433 0.07516 0.0
H1938 H 0.35844 0.73966 0.13244 0.0
H1939 H 0.3426 0.70308 0.09552 0.0
H1940 H 0.33747 0.63311 0.13933 0.0
H1941 H 0.35204 0.66924 0.17611 0.0
H1942 H 0.37073 0.67257 0.07162 0.0
H1943 H 0.27185 0.58995 0.0994 0.0
H1944 H 0.284 0.62619 0.11742 0.0
H1945 H 0.2942 0.59592 0.12475 0.0
C1946 C 0.35334 0.71641 0.13421 0.0
C1947 C 0.35654 0.70728 0.15709 0.0
C1948 C 0.34403 0.69549 0.1132 0.0
C1949 C 0.3381 0.66514 0.11466 0.0
C1950 C 0.34062 0.65613 0.13781 0.0
H1951 H 0.40722 0.55132 0.07132 0.0
H1952 H 0.37229 0.5761 0.08603 0.0
C1953 C 0.34946 0.6769 0.15881 0.0
C1954 C 0.33504 0.64345 0.09143 0.0
H1955 H 0.30927 0.56857 0.0759 0.0
C1956 C 0.35632 0.6501 0.07181 0.0
C1957 C 0.31582 0.61421 0.09101 0.0
C1958 C 0.29001 0.6064 0.1092 0.0
C1959 C 0.36185 0.62753 0.05453 0.0
C1960 C 0.34588 0.59771 0.05725 0.0
C1961 C 0.32191 0.59144 0.07426 0.0
C1962 C 0.35888 0.57442 0.04862 0.0
C1963 C 0.38714 0.63541 0.03572 0.0
C1964 C 0.36171 0.56389 0.02286 0.0
C1965 C 0.38147 0.54926 0.01448 0.0
C1966 C 0.39868 0.54559 0.0318 0.0
C1967 C 0.39403 0.55387 0.05773 0.0
C1968 C 0.37402 0.56788 0.06611 0.0
H1969 H 0.39637 0.6597 0.03508 0.0
H1970 H 0.40373 0.62724 0.04086 0.0
H1971 H 0.38094 0.62454 0.01647 0.0
H1972 H 0.35035 0.56901 0.00912 0.0
H1973 H 0.38506 0.54328 0.99434 0.0
H1974 H 0.35632 0.29375 0.21807 0.0
H1975 H 0.38707 0.32186 0.18547 0.0
H1976 H 0.32606 0.36539 0.18066 0.0
H1977 H 0.29514 0.33743 0.21339 0.0
H1978 H 0.37158 0.32022 0.13528 0.0
H1979 H 0.40251 0.43411 0.18671 0.0
H1980 H 0.38843 0.40137 0.20281 0.0
H1981 H 0.36516 0.41437 0.18818 0.0
C1982 C 0.34963 0.30971 0.21046 0.0
C1983 C 0.32327 0.31341 0.21842 0.0
C1984 C 0.36719 0.32563 0.19171 0.0
C1985 C 0.35897 0.34587 0.18078 0.0
C1986 C 0.33301 0.35018 0.1891 0.0
H1987 H 0.40811 0.41791 0.03894 0.0
H1988 H 0.38531 0.38979 0.07425 0.0
C1989 C 0.31532 0.33413 0.20775 0.0
C1990 C 0.37679 0.36123 0.15969 0.0
H1991 H 0.41366 0.42971 0.14217 0.0
C1992 C 0.38096 0.34414 0.13683 0.0
C1993 C 0.38925 0.3924 0.16184 0.0
C1994 C 0.38639 0.41171 0.18626 0.0
C1995 C 0.39652 0.35748 0.11581 0.0
C1996 C 0.40807 0.38872 0.11766 0.0
C1997 C 0.40467 0.40576 0.14076 0.0
C1998 C 0.42268 0.4042 0.09552 0.0
C1999 C 0.40047 0.33809 0.09174 0.0
C2000 C 0.45131 0.42165 0.09574 0.0
C2001 C 0.46449 0.43775 0.0755 0.0
C2002 C 0.44916 0.43696 0.0548 0.0
C2003 C 0.42059 0.41903 0.05452 0.0
C2004 C 0.40752 0.40282 0.07465 0.0
H2005 H 0.39639 0.31486 0.09521 0.0
H2006 H 0.38543 0.33797 0.07803 0.0
H2007 H 0.42224 0.34677 0.08292 0.0
H2008 H 0.46337 0.42312 0.11172 0.0
H2009 H 0.4864 0.45156 0.07652 0.0
H2010 H 0.7715 0.66619 0.70435 0.0
H2011 H 0.79561 0.63739 0.6739 0.0
H2012 H 0.87209 0.7125 0.67612 0.0
H2013 H 0.84801 0.74141 0.70565 0.0
H2014 H 0.82562 0.64964 0.62444 0.0
H2015 H 0.89601 0.64427 0.69468 0.0
H2016 H 0.86532 0.65584 0.70374 0.0
H2017 H 0.89769 0.68138 0.69177 0.0
C2018 C 0.79324 0.67673 0.69791 0.0
C2019 C 0.80762 0.70628 0.70732 0.0
C2020 C 0.80712 0.66016 0.68066 0.0
C2021 C 0.83586 0.67259 0.67286 0.0
C2022 C 0.85008 0.70217 0.68203 0.0
H2023 H 0.97034 0.62608 0.58004 0.0
H2024 H 0.93971 0.64822 0.60876 0.0
C2025 C 0.83618 0.71875 0.69896 0.0
C2026 C 0.85136 0.6549 0.65542 0.0
H2027 H 0.90841 0.63051 0.65129 0.0
C2028 C 0.84352 0.64513 0.63037 0.0
C2029 C 0.87481 0.64901 0.66304 0.0
C2030 C 0.88382 0.65791 0.68985 0.0
C2031 C 0.85913 0.6308 0.61256 0.0
C2032 C 0.88295 0.62541 0.62007 0.0
C2033 C 0.8903 0.6346 0.64533 0.0
C2034 C 0.90128 0.61143 0.60197 0.0
C2035 C 0.85064 0.62273 0.58557 0.0
C2036 C 0.8902 0.58305 0.58852 0.0
C2037 C 0.9078 0.57022 0.57187 0.0
C2038 C 0.93703 0.58534 0.56836 0.0
C2039 C 0.94803 0.61363 0.58208 0.0
C2040 C 0.93046 0.6264 0.59863 0.0
H2041 H 0.83692 0.63508 0.58138 0.0
H2042 H 0.86952 0.62729 0.57197 0.0
H2043 H 0.8386 0.59871 0.58244 0.0
H2044 H 0.86795 0.57059 0.59109 0.0
H2045 H 0.89847 0.54838 0.56185 0.0
H2046 H 0.34331 0.84339 0.73809 0.0
H2047 H 0.37806 0.86907 0.70622 0.0
H2048 H 0.33248 0.80593 0.6469 0.0
H2049 H 0.29727 0.78076 0.67877 0.0
H2050 H 0.41384 0.85155 0.66874 0.0
H2051 H 0.33396 0.88426 0.62732 0.0
H2052 H 0.32691 0.86864 0.65685 0.0
H2053 H 0.32545 0.84505 0.62724 0.0
C2054 C 0.34077 0.83515 0.71821 0.0
C2055 C 0.31759 0.81048 0.7107 0.0
C2056 C 0.36066 0.84965 0.70007 0.0
C2057 C 0.35764 0.83964 0.67418 0.0
C2058 C 0.33488 0.81438 0.66674 0.0
H2059 H 0.48177 0.91817 0.55287 0.0
H2060 H 0.45594 0.88414 0.58388 0.0
C2061 C 0.31478 0.80012 0.68487 0.0
C2062 C 0.37737 0.85679 0.65504 0.0
H2063 H 0.37987 0.89768 0.60766 0.0
C2064 C 0.40649 0.8616 0.65529 0.0
C2065 C 0.36767 0.87001 0.63768 0.0
C2066 C 0.33685 0.86701 0.63731 0.0
C2067 C 0.42625 0.87975 0.63886 0.0
C2068 C 0.41647 0.893 0.62158 0.0
C2069 C 0.38731 0.8875 0.62095 0.0
C2070 C 0.43577 0.91445 0.60513 0.0
C2071 C 0.45737 0.88548 0.64075 0.0
C2072 C 0.4334 0.94284 0.60702 0.0
C2073 C 0.44767 0.9619 0.58924 0.0
C2074 C 0.46493 0.95316 0.56932 0.0
C2075 C 0.46885 0.92552 0.56825 0.0
C2076 C 0.45412 0.90611 0.58595 0.0
H2077 H 0.46161 0.87882 0.65849 0.0
H2078 H 0.46526 0.8725 0.62448 0.0
H2079 H 0.46953 0.90929 0.63997 0.0
H2080 H 0.4195 0.9498 0.62172 0.0
H2081 H 0.44444 0.98319 0.59057 0.0
H2082 H 0.23387 0.41662 0.66783 0.0
H2083 H 0.19715 0.42652 0.64796 0.0
H2084 H 0.14605 0.33452 0.64569 0.0
H2085 H 0.18297 0.32426 0.66531 0.0
H2086 H 0.17758 0.39909 0.59978 0.0
H2087 H 0.09001 0.37966 0.67525 0.0
H2088 H 0.12629 0.38641 0.68168 0.0
H2089 H 0.10584 0.35091 0.66673 0.0
C2090 C 0.21485 0.39843 0.66313 0.0
C2091 C 0.2115 0.36959 0.66806 0.0
C2092 C 0.19378 0.40419 0.65191 0.0
C2093 C 0.16875 0.38133 0.64553 0.0
C2094 C 0.16497 0.35261 0.65087 0.0
H2095 H 0.04365 0.3899 0.54738 0.0
H2096 H 0.06664 0.37085 0.57584 0.0
C2097 C 0.18612 0.34679 0.66209 0.0
C2098 C 0.14772 0.38747 0.63168 0.0
H2099 H 0.08067 0.39154 0.63651 0.0
C2100 C 0.15636 0.39727 0.60778 0.0
C2101 C 0.11998 0.38496 0.6421 0.0
C2102 C 0.10988 0.37511 0.66793 0.0
C2103 C 0.13822 0.40505 0.59418 0.0
C2104 C 0.11076 0.40327 0.60482 0.0
C2105 C 0.10175 0.39281 0.62844 0.0
C2106 C 0.09227 0.41418 0.592 0.0
C2107 C 0.14862 0.41561 0.56861 0.0
C2108 C 0.09818 0.44477 0.59258 0.0
C2109 C 0.08522 0.45568 0.5764 0.0
C2110 C 0.06604 0.43619 0.55929 0.0
C2111 C 0.05826 0.4055 0.56034 0.0
C2112 C 0.07142 0.39456 0.57654 0.0
H2113 H 0.16868 0.41145 0.56132 0.0
H2114 H 0.13244 0.40444 0.55462 0.0
H2115 H 0.15234 0.4398 0.57017 0.0
H2116 H 0.11416 0.46023 0.60444 0.0
H2117 H 0.09152 0.47944 0.57625 0.0
H2118 H 0.77636 0.20216 0.67989 0.0
H2119 H 0.7567 0.1702 0.64143 0.0
H2120 H 0.67236 0.15713 0.67585 0.0
H2121 H 0.69175 0.18881 0.71406 0.0
H2122 H 0.71568 0.10893 0.63219 0.0
H2123 H 0.67712 0.1968 0.61049 0.0
H2124 H 0.70377 0.20363 0.63266 0.0
H2125 H 0.66684 0.18735 0.64216 0.0
C2126 C 0.75365 0.19207 0.67931 0.0
C2127 C 0.73551 0.1984 0.69971 0.0
C2128 C 0.74247 0.17384 0.65738 0.0
C2129 C 0.71307 0.16167 0.65569 0.0
C2130 C 0.6951 0.16666 0.67664 0.0
H2131 H 0.59222 0.03073 0.56595 0.0
H2132 H 0.63246 0.05514 0.59194 0.0
C2133 C 0.70619 0.18486 0.69841 0.0
C2134 C 0.70065 0.14563 0.63161 0.0
H2135 H 0.65599 0.14843 0.58952 0.0
C2136 C 0.70298 0.11764 0.62249 0.0
C2137 C 0.68479 0.15735 0.61856 0.0
C2138 C 0.68317 0.1881 0.62628 0.0
C2139 C 0.68834 0.10035 0.60151 0.0
C2140 C 0.67038 0.11111 0.58988 0.0
C2141 C 0.66953 0.13984 0.59827 0.0
C2142 C 0.65034 0.0927 0.57058 0.0
C2143 C 0.69227 0.07081 0.59217 0.0
C2144 C 0.64694 0.10517 0.54951 0.0
C2145 C 0.62324 0.0918 0.53532 0.0
C2146 C 0.60299 0.06519 0.54139 0.0
C2147 C 0.60776 0.05111 0.56074 0.0
C2148 C 0.63098 0.065 0.57551 0.0
H2149 H 0.7139 0.07134 0.59531 0.0
H2150 H 0.67709 0.05362 0.60306 0.0
H2151 H 0.68869 0.06428 0.57171 0.0
H2152 H 0.66157 0.1264 0.54514 0.0
H2153 H 0.62001 0.10302 0.52042 0.0
H2154 H 0.80975 0.35101 0.29362 0.0
H2155 H 0.83227 0.38696 0.32887 0.0
H2156 H 0.82603 0.31522 0.37089 0.0
H2157 H 0.80231 0.27943 0.33642 0.0
H2158 H 0.81489 0.36067 0.40143 0.0
H2159 H 0.91392 0.40262 0.3409 0.0
H2160 H 0.88306 0.40664 0.33013 0.0
H2161 H 0.88515 0.37025 0.33047 0.0
C2162 C 0.81289 0.34301 0.31055 0.0
C2163 C 0.80478 0.31247 0.31215 0.0
C2164 C 0.82591 0.36352 0.33056 0.0
C2165 C 0.8314 0.35374 0.35226 0.0
C2166 C 0.82216 0.32327 0.35427 0.0
H2167 H 0.93856 0.39749 0.46987 0.0
H2168 H 0.8987 0.37773 0.44288 0.0
C2169 C 0.80885 0.30284 0.33447 0.0
C2170 C 0.84813 0.37474 0.37238 0.0
H2171 H 0.9145 0.42206 0.38377 0.0
C2172 C 0.83656 0.37441 0.39754 0.0
C2173 C 0.87642 0.39265 0.36726 0.0
C2174 C 0.89053 0.39299 0.34079 0.0
C2175 C 0.85288 0.39058 0.41778 0.0
C2176 C 0.88139 0.40748 0.41267 0.0
C2177 C 0.89251 0.40916 0.38751 0.0
C2178 C 0.90123 0.42039 0.43294 0.0
C2179 C 0.83986 0.38881 0.44453 0.0
C2180 C 0.91541 0.451 0.43669 0.0
C2181 C 0.93811 0.46241 0.45227 0.0
C2182 C 0.94732 0.44324 0.46383 0.0
C2183 C 0.93203 0.41278 0.46113 0.0
C2184 C 0.90913 0.40148 0.44586 0.0
H2185 H 0.81641 0.38161 0.44506 0.0
H2186 H 0.84595 0.37243 0.45306 0.0
H2187 H 0.84766 0.41058 0.45633 0.0
H2188 H 0.90974 0.46587 0.42665 0.0
H2189 H 0.94957 0.48595 0.45384 0.0
H2190 H 0.75251 0.80845 0.32746 0.0
H2191 H 0.72387 0.83264 0.35659 0.0
H2192 H 0.66252 0.81133 0.30061 0.0
H2193 H 0.69103 0.78622 0.2714 0.0
H2194 H 0.67784 0.87156 0.32468 0.0
H2195 H 0.64867 0.79183 0.39568 0.0
H2196 H 0.68592 0.80603 0.38723 0.0
H2197 H 0.66232 0.78325 0.36382 0.0
C2198 C 0.73262 0.80818 0.32149 0.0
C2199 C 0.72383 0.79466 0.29725 0.0
C2200 C 0.71629 0.82229 0.33817 0.0
C2201 C 0.69069 0.82345 0.33108 0.0
C2202 C 0.68206 0.81055 0.30667 0.0
H2203 H 0.5615 0.87423 0.43274 0.0
H2204 H 0.58801 0.8489 0.40194 0.0
C2205 C 0.69839 0.79621 0.28996 0.0
C2206 C 0.67337 0.83852 0.34911 0.0
H2207 H 0.63807 0.83664 0.40777 0.0
C2208 C 0.66905 0.86385 0.3428 0.0
C2209 C 0.66167 0.82843 0.37274 0.0
C2210 C 0.6646 0.80075 0.38027 0.0
C2211 C 0.65397 0.87963 0.35963 0.0
C2212 C 0.64293 0.87001 0.38355 0.0
C2213 C 0.64672 0.84429 0.3896 0.0
C2214 C 0.62692 0.88592 0.40235 0.0
C2215 C 0.64964 0.90633 0.35153 0.0
C2216 C 0.63992 0.91522 0.41322 0.0
C2217 C 0.6248 0.92983 0.43106 0.0
C2218 C 0.59622 0.91554 0.43845 0.0
C2219 C 0.58336 0.88613 0.42755 0.0
C2220 C 0.59855 0.87151 0.4099 0.0
H2221 H 0.65361 0.90685 0.33073 0.0
H2222 H 0.62781 0.90665 0.35712 0.0
H2223 H 0.66456 0.92675 0.36105 0.0
H2224 H 0.6619 0.92674 0.40809 0.0
H2225 H 0.63552 0.95238 0.439 0.0
H2226 H 0.23978 0.73303 0.33269 0.0
H2227 H 0.20517 0.70253 0.36196 0.0
H2228 H 0.14832 0.66459 0.30201 0.0
H2229 H 0.18307 0.69454 0.27255 0.0
H2230 H 0.14557 0.69696 0.37607 0.0
H2231 H 0.16161 0.59295 0.32707 0.0
H2232 H 0.18611 0.62914 0.32228 0.0
H2233 H 0.1531 0.61558 0.30751 0.0
C2234 C 0.21997 0.71805 0.32574 0.0
C2235 C 0.21431 0.7158 0.30026 0.0
C2236 C 0.2001 0.7009 0.34253 0.0
C2237 C 0.17426 0.68113 0.33411 0.0
C2238 C 0.16824 0.67948 0.30884 0.0
H2239 H 0.04364 0.57377 0.43974 0.0
H2240 H 0.06443 0.60738 0.40715 0.0
C2241 C 0.18808 0.69665 0.29206 0.0
C2242 C 0.1544 0.66108 0.35141 0.0
H2243 H 0.12894 0.58866 0.36244 0.0
C2244 C 0.14163 0.67323 0.37302 0.0
C2245 C 0.14943 0.63016 0.34736 0.0
C2246 C 0.16337 0.61605 0.32493 0.0
C2247 C 0.12456 0.65529 0.39105 0.0
C2248 C 0.12008 0.62445 0.38724 0.0
C2249 C 0.13217 0.61227 0.36521 0.0
C2250 C 0.10663 0.605 0.40735 0.0
C2251 C 0.11257 0.66957 0.41462 0.0
C2252 C 0.12328 0.59243 0.41812 0.0
C2253 C 0.11158 0.57339 0.43647 0.0
C2254 C 0.08272 0.56618 0.44468 0.0
C2255 C 0.0659 0.5789 0.43399 0.0
C2256 C 0.07779 0.59818 0.41542 0.0
H2257 H 0.12067 0.69416 0.41607 0.0
H2258 H 0.08919 0.6622 0.41443 0.0
H2259 H 0.11782 0.66258 0.43177 0.0
H2260 H 0.14556 0.59739 0.41227 0.0
H2261 H 0.12541 0.56429 0.44419 0.0
H2262 H 0.44129 0.19913 0.29734 0.0
H2263 H 0.45451 0.16916 0.32329 0.0
H2264 H 0.39219 0.18195 0.38204 0.0
H2265 H 0.37959 0.21326 0.35642 0.0
H2266 H 0.44234 0.19167 0.40122 0.0
H2267 H 0.41607 0.0855 0.33828 0.0
H2268 H 0.43955 0.11553 0.32242 0.0
H2269 H 0.40436 0.11559 0.33327 0.0
C2270 C 0.43028 0.19558 0.31576 0.0
C2271 C 0.40948 0.20888 0.32483 0.0
C2272 C 0.43766 0.17804 0.33049 0.0
C2273 C 0.42415 0.17286 0.35455 0.0
C2274 C 0.40286 0.18548 0.36348 0.0
H2275 H 0.44251 0.04675 0.4459 0.0
H2276 H 0.42747 0.07223 0.41703 0.0
C2277 C 0.39549 0.20319 0.34873 0.0
C2278 C 0.43352 0.15578 0.37083 0.0
H2279 H 0.44599 0.09047 0.37158 0.0
C2280 C 0.44294 0.16946 0.3948 0.0
C2281 C 0.43412 0.12664 0.36264 0.0
C2282 C 0.42271 0.10984 0.33786 0.0
C2283 C 0.45335 0.15512 0.41053 0.0
C2284 C 0.45512 0.1265 0.40186 0.0
C2285 C 0.44518 0.11259 0.3781 0.0
C2286 C 0.46578 0.11003 0.41772 0.0
C2287 C 0.46175 0.17058 0.43654 0.0
C2288 C 0.4929 0.1221 0.42702 0.0
C2289 C 0.50161 0.10759 0.44376 0.0
C2290 C 0.48348 0.0805 0.45135 0.0
C2291 C 0.45707 0.06762 0.44068 0.0
C2292 C 0.44835 0.08222 0.42412 0.0
H2293 H 0.45206 0.18826 0.44282 0.0
H2294 H 0.45541 0.15465 0.45079 0.0
H2295 H 0.48506 0.1811 0.43607 0.0
H2296 H 0.50714 0.14309 0.42176 0.0
H2297 H 0.52219 0.11806 0.45135 0.0
H2298 H 0.66207 0.79231 0.65428 0.0
H2299 H 0.65022 0.82459 0.62916 0.0
H2300 H 0.58463 0.83325 0.68598 0.0
H2301 H 0.59696 0.80211 0.71144 0.0
H2302 H 0.60025 0.81403 0.6085 0.0
H2303 H 0.6231 0.91842 0.67389 0.0
H2304 H 0.63531 0.8885 0.67841 0.0
H2305 H 0.59961 0.8873 0.68848 0.0
C2306 C 0.64558 0.80167 0.66168 0.0
C2307 C 0.6304 0.79447 0.68484 0.0
C2308 C 0.63867 0.81994 0.64722 0.0
C2309 C 0.61668 0.83165 0.65575 0.0
C2310 C 0.60201 0.82503 0.67914 0.0
H2311 H 0.52109 0.88813 0.5584 0.0
H2312 H 0.53545 0.86296 0.5883 0.0
C2313 C 0.60889 0.80687 0.69357 0.0
C2314 C 0.60775 0.84912 0.63959 0.0
H2315 H 0.59494 0.91436 0.63949 0.0
C2316 C 0.59928 0.83605 0.61523 0.0
C2317 C 0.60665 0.87798 0.64823 0.0
C2318 C 0.61692 0.89401 0.67358 0.0
C2319 C 0.58931 0.85074 0.5995 0.0
C2320 C 0.58711 0.8791 0.60854 0.0
C2321 C 0.59612 0.89243 0.6327 0.0
C2322 C 0.57685 0.89581 0.59267 0.0
C2323 C 0.58176 0.83595 0.57312 0.0
C2324 C 0.59459 0.92353 0.58633 0.0
C2325 C 0.58631 0.93818 0.56952 0.0
C2326 C 0.56004 0.92542 0.55859 0.0
C2327 C 0.54158 0.89848 0.56617 0.0
C2328 C 0.54987 0.88391 0.58312 0.0
H2329 H 0.59148 0.81829 0.56687 0.0
H2330 H 0.55847 0.82555 0.57292 0.0
H2331 H 0.58871 0.8523 0.55922 0.0
H2332 H 0.61538 0.93335 0.59363 0.0
H2333 H 0.60108 0.95895 0.56431 0.0
H2334 H 0.74762 0.23223 0.33673 0.0
H2335 H 0.71403 0.20423 0.36819 0.0
H2336 H 0.66911 0.14227 0.30788 0.0
H2337 H 0.70207 0.17081 0.27654 0.0
H2338 H 0.63304 0.15796 0.34454 0.0
H2339 H 0.71239 0.12623 0.38766 0.0
H2340 H 0.72036 0.16545 0.38828 0.0
H2341 H 0.72005 0.14252 0.35844 0.0
C2342 C 0.73073 0.2124 0.33034 0.0
C2343 C 0.72732 0.20343 0.30439 0.0
C2344 C 0.71157 0.19648 0.34824 0.0
C2345 C 0.68926 0.17095 0.34037 0.0
C2346 C 0.68613 0.1619 0.31437 0.0
H2347 H 0.60066 0.02445 0.41998 0.0
H2348 H 0.62665 0.05913 0.39011 0.0
C2349 C 0.705 0.17804 0.29652 0.0
C2350 C 0.66931 0.15324 0.35907 0.0
H2351 H 0.66592 0.1117 0.40622 0.0
C2352 C 0.64018 0.14797 0.35815 0.0
C2353 C 0.67871 0.14004 0.37665 0.0
C2354 C 0.70954 0.14357 0.37776 0.0
C2355 C 0.62015 0.12937 0.37404 0.0
C2356 C 0.62962 0.11606 0.39146 0.0
C2357 C 0.65875 0.12199 0.39282 0.0
C2358 C 0.60999 0.09402 0.40719 0.0
C2359 C 0.58909 0.12321 0.37141 0.0
C2360 C 0.59112 0.10174 0.42616 0.0
C2361 C 0.57583 0.08164 0.44313 0.0
C2362 C 0.57966 0.05389 0.44149 0.0
C2363 C 0.59745 0.04579 0.42172 0.0
C2364 C 0.61234 0.06559 0.40468 0.0
H2365 H 0.58527 0.13041 0.35377 0.0
H2366 H 0.57725 0.09921 0.37144 0.0
H2367 H 0.58046 0.13541 0.38777 0.0
H2368 H 0.5893 0.12373 0.42866 0.0
H2369 H 0.56256 0.08851 0.45845 0.0
H2370 H 0.92243 0.67932 0.28783 0.0
H2371 H 0.94833 0.66425 0.31641 0.0
H2372 H 0.87309 0.63817 0.36629 0.0
H2373 H 0.84703 0.65323 0.33784 0.0
H2374 H 0.9209 0.6694 0.39216 0.0
H2375 H 0.94035 0.57884 0.32319 0.0
H2376 H 0.9529 0.61466 0.31222 0.0
H2377 H 0.91558 0.5969 0.31829 0.0
C2378 C 0.91132 0.67022 0.30481 0.0
C2379 C 0.88254 0.66727 0.31041 0.0
C2380 C 0.92618 0.66158 0.32113 0.0
C2381 C 0.91256 0.64956 0.34329 0.0
C2382 C 0.88405 0.6473 0.34927 0.0
H2383 H 0.9489 0.54069 0.43766 0.0
H2384 H 0.93399 0.56206 0.4055 0.0
C2385 C 0.86919 0.65603 0.33301 0.0
C2386 C 0.92782 0.63912 0.36021 0.0
H2387 H 0.96089 0.58824 0.36249 0.0
C2388 C 0.92979 0.65177 0.38565 0.0
C2389 C 0.93923 0.61593 0.35175 0.0
C2390 C 0.93676 0.60056 0.32494 0.0
C2391 C 0.94256 0.6417 0.40289 0.0
C2392 C 0.95408 0.61861 0.39439 0.0
C2393 C 0.95237 0.60617 0.3689 0.0
C2394 C 0.96557 0.60527 0.41219 0.0
C2395 C 0.94261 0.65508 0.43028 0.0
C2396 C 0.98906 0.6221 0.42605 0.0
C2397 C 0.99773 0.6099 0.4446 0.0
C2398 C 0.98304 0.58062 0.4496 0.0
C2399 C 0.96058 0.56338 0.43458 0.0
C2400 C 0.952 0.57556 0.4161 0.0
H2401 H 0.92798 0.66828 0.4347 0.0
H2402 H 0.93647 0.63754 0.44307 0.0
H2403 H 0.96425 0.67 0.43441 0.0
H2404 H 1.00026 0.64489 0.42297 0.0
H2405 H 1.01524 0.62375 0.45563 0.0
H2406 H 0.34773 0.82952 0.29417 0.0
H2407 H 0.36883 0.85828 0.33276 0.0
H2408 H 0.28579 0.84572 0.37007 0.0
H2409 H 0.26435 0.81726 0.3311 0.0
H2410 H 0.32524 0.90331 0.38281 0.0
H2411 H 0.36799 0.8142 0.39276 0.0
H2412 H 0.37815 0.82739 0.36238 0.0
H2413 H 0.34138 0.80935 0.37102 0.0
C2414 C 0.33392 0.83316 0.31047 0.0
C2415 C 0.30443 0.82084 0.30976 0.0
C2416 C 0.346 0.84954 0.33251 0.0
C2417 C 0.32887 0.85351 0.3544 0.0
C2418 C 0.29935 0.84271 0.35339 0.0
H2419 H 0.42551 0.90097 0.48747 0.0
H2420 H 0.38382 0.87861 0.46282 0.0
C2421 C 0.28717 0.82651 0.33115 0.0
C2422 C 0.34216 0.86725 0.37854 0.0
H2423 H 0.38932 0.86128 0.41655 0.0
C2424 C 0.33894 0.894 0.39052 0.0
C2425 C 0.35927 0.85457 0.389 0.0
C2426 C 0.36167 0.82463 0.37829 0.0
C2427 C 0.35393 0.90937 0.41184 0.0
C2428 C 0.3731 0.89799 0.42089 0.0
C2429 C 0.37487 0.87032 0.40968 0.0
C2430 C 0.39335 0.91496 0.44037 0.0
C2431 C 0.34907 0.93761 0.4243 0.0
C2432 C 0.41179 0.94361 0.43707 0.0
C2433 C 0.43515 0.95678 0.45175 0.0
C2434 C 0.44095 0.9411 0.46934 0.0
C2435 C 0.42153 0.91341 0.47389 0.0
C2436 C 0.39775 0.90063 0.45977 0.0
H2437 H 0.32705 0.93678 0.42238 0.0
H2438 H 0.35312 0.94186 0.44473 0.0
H2439 H 0.36343 0.95649 0.41472 0.0
H2440 H 0.40946 0.95493 0.42189 0.0
H2441 H 0.44999 0.97806 0.44772 0.0
H2442 H 0.27029 0.34129 0.30853 0.0
H2443 H 0.24759 0.37067 0.33977 0.0
H2444 H 0.16957 0.2974 0.33749 0.0
H2445 H 0.19239 0.26784 0.30722 0.0
H2446 H 0.20125 0.38837 0.33589 0.0
H2447 H 0.17799 0.31777 0.41317 0.0
H2448 H 0.20239 0.3144 0.38637 0.0
H2449 H 0.16489 0.29723 0.38374 0.0
C2450 C 0.24851 0.33126 0.31516 0.0
C2451 C 0.2334 0.30196 0.30571 0.0
C2452 C 0.23542 0.34819 0.33283 0.0
C2453 C 0.2069 0.33618 0.34149 0.0
C2454 C 0.19174 0.30706 0.33174 0.0
H2455 H 0.07509 0.38853 0.43272 0.0
H2456 H 0.10516 0.36479 0.40496 0.0
C2457 C 0.2048 0.2902 0.3142 0.0
C2458 C 0.19254 0.35411 0.36004 0.0
H2459 H 0.1531 0.35275 0.41664 0.0
C2460 C 0.19104 0.38077 0.3537 0.0
C2461 C 0.1792 0.34439 0.3834 0.0
C2462 C 0.1814 0.31705 0.39224 0.0
C2463 C 0.17566 0.39715 0.36945 0.0
C2464 C 0.16158 0.3869 0.39242 0.0
C2465 C 0.16368 0.36064 0.39903 0.0
C2466 C 0.14351 0.40222 0.40929 0.0
C2467 C 0.17369 0.42473 0.36091 0.0
C2468 C 0.1549 0.43133 0.4213 0.0
C2469 C 0.13764 0.44512 0.43741 0.0
C2470 C 0.10852 0.43014 0.4419 0.0
C2471 C 0.0973 0.40098 0.42979 0.0
C2472 C 0.11454 0.38724 0.41386 0.0
H2473 H 0.1806 0.42625 0.34055 0.0
H2474 H 0.15169 0.42535 0.36404 0.0
H2475 H 0.18749 0.44451 0.37216 0.0
H2476 H 0.17724 0.4433 0.4185 0.0
H2477 H 0.14716 0.46747 0.44641 0.0
H2478 H 0.33857 0.2056 0.73433 0.0
H2479 H 0.36668 0.18095 0.70468 0.0
H2480 H 0.32466 0.19111 0.64239 0.0
H2481 H 0.29631 0.21552 0.67212 0.0
H2482 H 0.35048 0.13007 0.67326 0.0
H2483 H 0.40627 0.22191 0.6161 0.0
H2484 H 0.38673 0.22731 0.64581 0.0
H2485 H 0.36847 0.212 0.61729 0.0
C2486 C 0.33528 0.20254 0.71432 0.0
C2487 C 0.31519 0.21265 0.70566 0.0
C2488 C 0.35149 0.18854 0.69732 0.0
C2489 C 0.34822 0.18438 0.67111 0.0
C2490 C 0.32823 0.19462 0.66237 0.0
H2491 H 0.40587 0.05663 0.56289 0.0
H2492 H 0.37789 0.08258 0.59132 0.0
C2493 C 0.31202 0.20871 0.67942 0.0
C2494 C 0.36506 0.16847 0.65324 0.0
H2495 H 0.41143 0.17502 0.60072 0.0
C2496 C 0.36381 0.13996 0.65741 0.0
C2497 C 0.38283 0.18135 0.63266 0.0
C2498 C 0.38644 0.21243 0.62778 0.0
C2499 C 0.37947 0.124 0.64161 0.0
C2500 C 0.39663 0.13653 0.62062 0.0
C2501 C 0.39813 0.16517 0.61659 0.0
C2502 C 0.41366 0.12061 0.60299 0.0
C2503 C 0.37799 0.0941 0.64798 0.0
C2504 C 0.44315 0.13346 0.5994 0.0
C2505 C 0.45926 0.11871 0.58298 0.0
C2506 C 0.44633 0.0907 0.56952 0.0
C2507 C 0.41672 0.078 0.57299 0.0
C2508 C 0.40063 0.09279 0.58942 0.0
H2509 H 0.37046 0.09132 0.66807 0.0
H2510 H 0.36289 0.07649 0.63584 0.0
H2511 H 0.39896 0.09081 0.6445 0.0
H2512 H 0.45381 0.15491 0.6095 0.0
H2513 H 0.48193 0.12937 0.58084 0.0
H2514 H 0.8028 0.28339 0.67007 0.0
H2515 H 0.83941 0.31244 0.6416 0.0
H2516 H 0.89936 0.33505 0.69906 0.0
H2517 H 0.86256 0.30651 0.72794 0.0
H2518 H 0.89668 0.38395 0.68037 0.0
H2519 H 0.90935 0.30045 0.60138 0.0
H2520 H 0.87304 0.29867 0.60742 0.0
H2521 H 0.89079 0.29043 0.63128 0.0
C2522 C 0.82386 0.29425 0.67658 0.0
C2523 C 0.82963 0.293 0.70142 0.0
C2524 C 0.84488 0.31063 0.66016 0.0
C2525 C 0.87224 0.32582 0.66809 0.0
C2526 C 0.87842 0.32347 0.69249 0.0
H2527 H 1.00008 0.43472 0.56269 0.0
H2528 H 0.97944 0.39931 0.5938 0.0
C2529 C 0.85738 0.30706 0.70895 0.0
C2530 C 0.89331 0.34648 0.65188 0.0
H2531 H 0.92463 0.35132 0.59185 0.0
C2532 C 0.90322 0.37671 0.66118 0.0
C2533 C 0.90212 0.3371 0.6269 0.0
C2534 C 0.89349 0.30483 0.61625 0.0
C2535 C 0.92031 0.39792 0.64576 0.0
C2536 C 0.92749 0.38875 0.62025 0.0
C2537 C 0.91899 0.35838 0.61135 0.0
C2538 C 0.94094 0.41056 0.60194 0.0
C2539 C 0.92993 0.43012 0.6567 0.0
C2540 C 0.92615 0.42845 0.59611 0.0
C2541 C 0.93772 0.44838 0.57835 0.0
C2542 C 0.96448 0.45102 0.56582 0.0
C2543 C 0.9795 0.4333 0.57189 0.0
C2544 C 0.9677 0.41302 0.58965 0.0
H2545 H 0.93 0.43267 0.67769 0.0
H2546 H 0.95146 0.44195 0.6488 0.0
H2547 H 0.91517 0.44085 0.65182 0.0
H2548 H 0.90533 0.42666 0.60507 0.0
H2549 H 0.92542 0.46159 0.57432 0.0
H2550 H 0.22928 0.66719 0.7199 0.0
H2551 H 0.20877 0.63134 0.6839 0.0
H2552 H 0.22168 0.7031 0.63976 0.0
H2553 H 0.2433 0.73875 0.67516 0.0
H2554 H 0.16185 0.62672 0.66375 0.0
H2555 H 0.24763 0.64693 0.58811 0.0
H2556 H 0.25391 0.66083 0.62095 0.0
H2557 H 0.24185 0.68096 0.60142 0.0
C2558 C 0.22827 0.6752 0.7023 0.0
C2559 C 0.23767 0.70573 0.70033 0.0
C2560 C 0.21655 0.65473 0.68178 0.0
C2561 C 0.21412 0.66446 0.65895 0.0
C2562 C 0.22404 0.69495 0.65688 0.0
H2563 H 0.10607 0.61987 0.54263 0.0
H2564 H 0.14512 0.63973 0.57048 0.0
C2565 C 0.23596 0.71536 0.67727 0.0
C2566 C 0.19834 0.64329 0.63835 0.0
H2567 H 0.19965 0.62593 0.574 0.0
C2568 C 0.17037 0.62592 0.64421 0.0
C2569 C 0.20949 0.64217 0.61285 0.0
C2570 C 0.23999 0.65851 0.60553 0.0
C2571 C 0.15265 0.60913 0.62511 0.0
C2572 C 0.16325 0.60967 0.59951 0.0
C2573 C 0.19162 0.6257 0.59368 0.0
C2574 C 0.14401 0.59688 0.57878 0.0
C2575 C 0.12218 0.59241 0.63228 0.0
C2576 C 0.13137 0.56613 0.57343 0.0
C2577 C 0.10905 0.55465 0.5574 0.0
C2578 C 0.09896 0.57385 0.54677 0.0
C2579 C 0.11315 0.60453 0.55074 0.0
C2580 C 0.13555 0.61592 0.56655 0.0
H2581 H 0.11666 0.59648 0.6529 0.0
H2582 H 0.10787 0.59885 0.62168 0.0
H2583 H 0.11822 0.56828 0.6271 0.0
H2584 H 0.13776 0.55113 0.58268 0.0
H2585 H 0.09856 0.53092 0.55474 0.0
loop_
_geom_bond_atom_site_label_1
_geom_bond_atom_site_label_2
_geom_bond_distance
_geom_bond_site_symmetry_2
_ccdc_geom_bond_type
Tb0 N29 2.617 . S
Tb0 N35 2.572 . S
Tb0 O44 2.465 . S
Tb0 O45 2.387 . S
Tb0 O47 2.428 . S
Tb0 O48 2.308 . S
Tb0 O52 2.349 . S
Tb0 O55 2.393 . S
Tb0 C64 2.802 . S
C1 N2 1.379 . S
C1 C4 1.416 . S
C1 C8 1.424 . S
N2 C1 1.379 . S
N2 C5 1.334 . S
N2 Tb11 2.617 . S
C3 C5 1.390 . S
C3 C6 1.339 . S
C3 H23 0.930 . S
C4 C1 1.416 . S
C4 C6 1.416 . S
C4 C10 1.448 . S
C5 N2 1.334 . S
C5 C3 1.390 . S
C5 H16 0.930 . S
C6 C3 1.339 . S
C6 C4 1.416 . S
C6 H27 0.930 . S
C7 C8 1.413 . S
C7 C9 1.427 . S
C7 C13 1.416 . S
C8 C1 1.424 . S
C8 C7 1.413 . S
C8 N12 1.361 . S
C9 C7 1.427 . S
C9 C10 1.328 . S
C9 H24 0.929 . S
C10 C4 1.448 . S
C10 C9 1.328 . S
C10 H25 0.930 . S
Tb11 N2 2.617 . S
Tb11 N12 2.572 . S
Tb11 O46 2.349 . S
Tb11 O49 2.393 . S
Tb11 O50 2.465 . S
Tb11 O51 2.387 . S
Tb11 O53 2.428 . S
Tb11 O54 2.308 . S
Tb11 C75 2.802 . S
N12 C8 1.361 . S
N12 Tb11 2.572 . S
N12 C14 1.340 . S
C13 C7 1.416 . S
C13 C15 1.332 . S
C13 H21 0.931 . S
C14 N12 1.340 . S
C14 C15 1.407 . S
C14 H20 0.930 . S
C15 C13 1.332 . S
C15 C14 1.407 . S
C15 H17 0.929 . S
H16 C5 0.930 . S
H17 C15 0.929 . S
H18 C33 0.930 . S
H19 C40 0.929 . S
H20 C14 0.930 . S
H21 C13 0.931 . S
H22 C36 0.930 . S
H23 C3 0.930 . S
H24 C9 0.929 . S
H25 C10 0.930 . S
H26 C31 0.930 . S
H27 C6 0.930 . S
H28 C39 0.931 . S
N29 Tb0 2.617 . S
N29 C30 1.379 . S
N29 C33 1.334 . S
C30 N29 1.379 . S
C30 C32 1.416 . S
C30 C38 1.424 . S
C31 H26 0.930 . S
C31 C33 1.390 . S
C31 C34 1.339 . S
C32 C30 1.416 . S
C32 C34 1.416 . S
C32 C65 1.448 . S
C33 H18 0.930 . S
C33 N29 1.334 . S
C33 C31 1.390 . S
C34 C31 1.339 . S
C34 C32 1.416 . S
C34 H41 0.930 . S
N35 Tb0 2.572 . S
N35 C36 1.340 . S
N35 C38 1.361 . S
C36 H22 0.930 . S
C36 N35 1.340 . S
C36 C40 1.407 . S
C37 C38 1.413 . S
C37 C39 1.416 . S
C37 C66 1.427 . S
C38 C30 1.424 . S
C38 N35 1.361 . S
C38 C37 1.413 . S
C39 H28 0.931 . S
C39 C37 1.416 . S
C39 C40 1.332 . S
C40 H19 0.929 . S
C40 C36 1.407 . S
C40 C39 1.332 . S
H41 C34 0.930 . S
H42 C65 0.930 . S
H43 C66 0.929 . S
O44 Tb0 2.465 . S
O44 C64 1.264 . S
O45 Tb0 2.387 . S
O45 C56 1.264 . S
O46 Tb11 2.349 . S
O46 C56 1.243 . S
O47 Tb0 2.428 . S
O47 C64 1.256 . S
O48 Tb0 2.308 . S
O48 C63 1.266 . S
O49 Tb11 2.393 . S
O49 C63 1.248 . S
O50 Tb11 2.465 . S
O50 C75 1.264 . S
O51 Tb11 2.387 . S
O51 C67 1.264 . S
O52 Tb0 2.349 . S
O52 C67 1.243 . S
O53 Tb11 2.428 . S
O53 C75 1.256 . S
O54 Tb11 2.308 . S
O54 C74 1.266 . S
O55 Tb0 2.393 . S
O55 C74 1.248 . S
C56 O45 1.264 . S
C56 O46 1.243 . S
C57 C60 1.399 . S
C57 C62 1.383 . S
C57 C64 1.496 . S
C58 C59 1.399 . S
C58 C62 1.389 . S
C59 C58 1.399 . S
C59 C61 1.380 . S
C59 H76 0.929 . S
C60 C57 1.399 . S
C60 C61 1.392 . S
C60 H77 0.929 . S
C61 C59 1.380 . S
C61 C60 1.392 . S
C61 H78 0.929 . S
C62 C57 1.383 . S
C62 C58 1.389 . S
C62 H79 0.931 . S
C63 O48 1.266 . S
C63 O49 1.248 . S
C64 Tb0 2.802 . S
C64 O44 1.264 . S
C64 O47 1.256 . S
C64 C57 1.496 . S
C65 C32 1.448 . S
C65 H42 0.930 . S
C65 C66 1.328 . S
C66 C37 1.427 . S
C66 H43 0.929 . S
C66 C65 1.328 . S
C67 O51 1.264 . S
C67 O52 1.243 . S
C68 C71 1.399 . S
C68 C72 1.383 . S
C68 C75 1.496 . S
C69 C70 1.399 . S
C69 C72 1.389 . S
C70 C69 1.399 . S
C70 C73 1.380 . S
C70 H80 0.929 . S
C71 C68 1.399 . S
C71 C73 1.392 . S
C71 H81 0.929 . S
C72 C68 1.383 . S
C72 C69 1.389 . S
C72 H82 0.931 . S
C73 C70 1.380 . S
C73 C71 1.392 . S
C73 H83 0.929 . S
C74 O54 1.266 . S
C74 O55 1.248 . S
C75 Tb11 2.802 . S
C75 O50 1.264 . S
C75 O53 1.256 . S
C75 C68 1.496 . S
H76 C59 0.929 . S
H77 C60 0.929 . S
H78 C61 0.929 . S
H79 C62 0.931 . S
H80 C70 0.929 . S
H81 C71 0.929 . S
H82 C72 0.931 . S
H83 C73 0.929 . S
Tb84 N113 2.617 . S
Tb84 N119 2.572 . S
Tb84 O128 2.465 . S
Tb84 O129 2.387 . S
Tb84 O131 2.428 . S
Tb84 O132 2.308 . S
Tb84 O136 2.349 . S
Tb84 O139 2.393 . S
Tb84 C148 2.802 . S
C85 N86 1.379 . S
C85 C88 1.416 . S
C85 C92 1.424 . S
N86 C85 1.379 . S
N86 C89 1.334 . S
N86 Tb95 2.617 . S
C87 C89 1.390 . S
C87 C90 1.339 . S
C87 H107 0.930 . S
C88 C85 1.416 . S
C88 C90 1.416 . S
C88 C94 1.448 . S
C89 N86 1.334 . S
C89 C87 1.390 . S
C89 H100 0.930 . S
C90 C87 1.339 . S
C90 C88 1.416 . S
C90 H111 0.930 . S
C91 C92 1.413 . S
C91 C93 1.427 . S
C91 C97 1.416 . S
C92 C85 1.424 . S
C92 C91 1.413 . S
C92 N96 1.361 . S
C93 C91 1.427 . S
C93 C94 1.328 . S
C93 H108 0.929 . S
C94 C88 1.448 . S
C94 C93 1.328 . S
C94 H109 0.930 . S
Tb95 N86 2.617 . S
Tb95 N96 2.572 . S
Tb95 O130 2.349 . S
Tb95 O133 2.393 . S
Tb95 O134 2.465 . S
Tb95 O135 2.387 . S
Tb95 O137 2.428 . S
Tb95 O138 2.308 . S
Tb95 C159 2.802 . S
N96 C92 1.361 . S
N96 Tb95 2.572 . S
N96 C98 1.340 . S
C97 C91 1.416 . S
C97 C99 1.332 . S
C97 H105 0.931 . S
C98 N96 1.340 . S
C98 C99 1.407 . S
C98 H104 0.930 . S
C99 C97 1.332 . S
C99 C98 1.407 . S
C99 H101 0.929 . S
H100 C89 0.930 . S
H101 C99 0.929 . S
H102 C117 0.930 . S
H103 C124 0.929 . S
H104 C98 0.930 . S
H105 C97 0.931 . S
H106 C120 0.930 . S
H107 C87 0.930 . S
H108 C93 0.929 . S
H109 C94 0.930 . S
H110 C115 0.930 . S
H111 C90 0.930 . S
H112 C123 0.931 . S
N113 Tb84 2.617 . S
N113 C114 1.379 . S
N113 C117 1.334 . S
C114 N113 1.379 . S
C114 C116 1.416 . S
C114 C122 1.424 . S
C115 H110 0.930 . S
C115 C117 1.390 . S
C115 C118 1.339 . S
C116 C114 1.416 . S
C116 C118 1.416 . S
C116 C149 1.448 . S
C117 H102 0.930 . S
C117 N113 1.334 . S
C117 C115 1.390 . S
C118 C115 1.339 . S
C118 C116 1.416 . S
C118 H125 0.930 . S
N119 Tb84 2.572 . S
N119 C120 1.340 . S
N119 C122 1.361 . S
C120 H106 0.930 . S
C120 N119 1.340 . S
C120 C124 1.407 . S
C121 C122 1.413 . S
C121 C123 1.416 . S
C121 C150 1.427 . S
C122 C114 1.424 . S
C122 N119 1.361 . S
C122 C121 1.413 . S
C123 H112 0.931 . S
C123 C121 1.416 . S
C123 C124 1.332 . S
C124 H103 0.929 . S
C124 C120 1.407 . S
C124 C123 1.332 . S
H125 C118 0.930 . S
H126 C149 0.930 . S
H127 C150 0.929 . S
O128 Tb84 2.465 . S
O128 C148 1.264 . S
O129 Tb84 2.387 . S
O129 C140 1.264 . S
O130 Tb95 2.349 . S
O130 C140 1.243 . S
O131 Tb84 2.428 . S
O131 C148 1.256 . S
O132 Tb84 2.308 . S
O132 C147 1.266 . S
O133 Tb95 2.393 . S
O133 C147 1.248 . S
O134 Tb95 2.465 . S
O134 C159 1.264 . S
O135 Tb95 2.387 . S
O135 C151 1.264 . S
O136 Tb84 2.349 . S
O136 C151 1.243 . S
O137 Tb95 2.428 . S
O137 C159 1.256 . S
O138 Tb95 2.308 . S
O138 C158 1.266 . S
O139 Tb84 2.393 . S
O139 C158 1.248 . S
C140 O129 1.264 . S
C140 O130 1.243 . S
C141 C144 1.399 . S
C141 C146 1.383 . S
C141 C148 1.496 . S
C142 C143 1.399 . S
C142 C146 1.389 . S
C143 C142 1.399 . S
C143 C145 1.380 . S
C143 H160 0.929 . S
C144 C141 1.399 . S
C144 C145 1.392 . S
C144 H161 0.929 . S
C145 C143 1.380 . S
C145 C144 1.392 . S
C145 H162 0.929 . S
C146 C141 1.383 . S
C146 C142 1.389 . S
C146 H163 0.931 . S
C147 O132 1.266 . S
C147 O133 1.248 . S
C148 Tb84 2.802 . S
C148 O128 1.264 . S
C148 O131 1.256 . S
C148 C141 1.496 . S
C149 C116 1.448 . S
C149 H126 0.930 . S
C149 C150 1.328 . S
C150 C121 1.427 . S
C150 H127 0.929 . S
C150 C149 1.328 . S
C151 O135 1.264 . S
C151 O136 1.243 . S
C152 C155 1.399 . S
C152 C156 1.383 . S
C152 C159 1.496 . S
C153 C154 1.399 . S
C153 C156 1.389 . S
C154 C153 1.399 . S
C154 C157 1.380 . S
C154 H164 0.929 . S
C155 C152 1.399 . S
C155 C157 1.392 . S
C155 H165 0.929 . S
C156 C152 1.383 . S
C156 C153 1.389 . S
C156 H166 0.931 . S
C157 C154 1.380 . S
C157 C155 1.392 . S
C157 H167 0.929 . S
C158 O138 1.266 . S
C158 O139 1.248 . S
C159 Tb95 2.802 . S
C159 O134 1.264 . S
C159 O137 1.256 . S
C159 C152 1.496 . S
H160 C143 0.929 . S
H161 C144 0.929 . S
H162 C145 0.929 . S
H163 C146 0.931 . S
H164 C154 0.929 . S
H165 C155 0.929 . S
H166 C156 0.931 . S
H167 C157 0.929 . S
Tb168 N197 2.617 . S
Tb168 N203 2.572 . S
Tb168 O212 2.465 . S
Tb168 O213 2.387 . S
Tb168 O215 2.428 . S
Tb168 O216 2.308 . S
Tb168 O220 2.349 . S
Tb168 O223 2.393 . S
Tb168 C232 2.802 . S
C169 N170 1.379 . S
C169 C172 1.416 . S
C169 C176 1.424 . S
N170 C169 1.379 . S
N170 C173 1.334 . S
N170 Tb179 2.617 . S
C171 C173 1.390 . S
C171 C174 1.339 . S
C171 H191 0.930 . S
C172 C169 1.416 . S
C172 C174 1.416 . S
C172 C178 1.448 . S
C173 N170 1.334 . S
C173 C171 1.390 . S
C173 H184 0.930 . S
C174 C171 1.339 . S
C174 C172 1.416 . S
C174 H195 0.930 . S
C175 C176 1.413 . S
C175 C177 1.427 . S
C175 C181 1.416 . S
C176 C169 1.424 . S
C176 C175 1.413 . S
C176 N180 1.361 . S
C177 C175 1.427 . S
C177 C178 1.328 . S
C177 H192 0.929 . S
C178 C172 1.448 . S
C178 C177 1.328 . S
C178 H193 0.930 . S
Tb179 N170 2.617 . S
Tb179 N180 2.572 . S
Tb179 O214 2.349 . S
Tb179 O217 2.393 . S
Tb179 O218 2.465 . S
Tb179 O219 2.387 . S
Tb179 O221 2.428 . S
Tb179 O222 2.308 . S
Tb179 C243 2.802 . S
N180 C176 1.361 . S
N180 Tb179 2.572 . S
N180 C182 1.340 . S
C181 C175 1.416 . S
C181 C183 1.332 . S
C181 H189 0.931 . S
C182 N180 1.340 . S
C182 C183 1.407 . S
C182 H188 0.930 . S
C183 C181 1.332 . S
C183 C182 1.407 . S
C183 H185 0.929 . S
H184 C173 0.930 . S
H185 C183 0.929 . S
H186 C201 0.930 . S
H187 C208 0.929 . S
H188 C182 0.930 . S
H189 C181 0.931 . S
H190 C204 0.930 . S
H191 C171 0.930 . S
H192 C177 0.929 . S
H193 C178 0.930 . S
H194 C199 0.930 . S
H195 C174 0.930 . S
H196 C207 0.931 . S
N197 Tb168 2.617 . S
N197 C198 1.379 . S
N197 C201 1.334 . S
C198 N197 1.379 . S
C198 C200 1.416 . S
C198 C206 1.424 . S
C199 H194 0.930 . S
C199 C201 1.390 . S
C199 C202 1.339 . S
C200 C198 1.416 . S
C200 C202 1.416 . S
C200 C233 1.448 . S
C201 H186 0.930 . S
C201 N197 1.334 . S
C201 C199 1.390 . S
C202 C199 1.339 . S
C202 C200 1.416 . S
C202 H209 0.930 . S
N203 Tb168 2.572 . S
N203 C204 1.340 . S
N203 C206 1.361 . S
C204 H190 0.930 . S
C204 N203 1.340 . S
C204 C208 1.407 . S
C205 C206 1.413 . S
C205 C207 1.416 . S
C205 C234 1.427 . S
C206 C198 1.424 . S
C206 N203 1.361 . S
C206 C205 1.413 . S
C207 H196 0.931 . S
C207 C205 1.416 . S
C207 C208 1.332 . S
C208 H187 0.929 . S
C208 C204 1.407 . S
C208 C207 1.332 . S
H209 C202 0.930 . S
H210 C233 0.930 . S
H211 C234 0.929 . S
O212 Tb168 2.465 . S
O212 C232 1.264 . S
O213 Tb168 2.387 . S
O213 C224 1.264 . S
O214 Tb179 2.349 . S
O214 C224 1.243 . S
O215 Tb168 2.428 . S
O215 C232 1.256 . S
O216 Tb168 2.308 . S
O216 C231 1.266 . S
O217 Tb179 2.393 . S
O217 C231 1.248 . S
O218 Tb179 2.465 . S
O218 C243 1.264 . S
O219 Tb179 2.387 . S
O219 C235 1.264 . S
O220 Tb168 2.349 . S
O220 C235 1.243 . S
O221 Tb179 2.428 . S
O221 C243 1.256 . S
O222 Tb179 2.308 . S
O222 C242 1.266 . S
O223 Tb168 2.393 . S
O223 C242 1.248 . S
C224 O213 1.264 . S
C224 O214 1.243 . S
C225 C228 1.399 . S
C225 C230 1.383 . S
C225 C232 1.496 . S
C226 C227 1.399 . S
C226 C230 1.389 . S
C227 C226 1.399 . S
C227 C229 1.380 . S
C227 H244 0.929 . S
C228 C225 1.399 . S
C228 C229 1.392 . S
C228 H245 0.929 . S
C229 C227 1.380 . S
C229 C228 1.392 . S
C229 H246 0.929 . S
C230 C225 1.383 . S
C230 C226 1.389 . S
C230 H247 0.931 . S
C231 O216 1.266 . S
C231 O217 1.248 . S
C232 Tb168 2.802 . S
C232 O212 1.264 . S
C232 O215 1.256 . S
C232 C225 1.496 . S
C233 C200 1.448 . S
C233 H210 0.930 . S
C233 C234 1.328 . S
C234 C205 1.427 . S
C234 H211 0.929 . S
C234 C233 1.328 . S
C235 O219 1.264 . S
C235 O220 1.243 . S
C236 C239 1.399 . S
C236 C240 1.383 . S
C236 C243 1.496 . S
C237 C238 1.399 . S
C237 C240 1.389 . S
C238 C237 1.399 . S
C238 C241 1.380 . S
C238 H248 0.929 . S
C239 C236 1.399 . S
C239 C241 1.392 . S
C239 H249 0.929 . S
C240 C236 1.383 . S
C240 C237 1.389 . S
C240 H250 0.931 . S
C241 C238 1.380 . S
C241 C239 1.392 . S
C241 H251 0.929 . S
C242 O222 1.266 . S
C242 O223 1.248 . S
C243 Tb179 2.802 . S
C243 O218 1.264 . S
C243 O221 1.256 . S
C243 C236 1.496 . S
H244 C227 0.929 . S
H245 C228 0.929 . S
H246 C229 0.929 . S
H247 C230 0.931 . S
H248 C238 0.929 . S
H249 C239 0.929 . S
H250 C240 0.931 . S
H251 C241 0.929 . S
Tb252 N281 2.617 . S
Tb252 N287 2.572 . S
Tb252 O296 2.465 . S
Tb252 O297 2.387 . S
Tb252 O299 2.428 . S
Tb252 O300 2.308 . S
Tb252 O304 2.349 . S
Tb252 O307 2.393 . S
Tb252 C316 2.802 . S
C253 N254 1.379 . S
C253 C256 1.416 . S
C253 C260 1.424 . S
N254 C253 1.379 . S
N254 C257 1.334 . S
N254 Tb263 2.617 . S
C255 C257 1.390 . S
C255 C258 1.339 . S
C255 H275 0.930 . S
C256 C253 1.416 . S
C256 C258 1.416 . S
C256 C262 1.448 . S
C257 N254 1.334 . S
C257 C255 1.390 . S
C257 H268 0.930 . S
C258 C255 1.339 . S
C258 C256 1.416 . S
C258 H279 0.930 . S
C259 C260 1.413 . S
C259 C261 1.427 . S
C259 C265 1.416 . S
C260 C253 1.424 . S
C260 C259 1.413 . S
C260 N264 1.361 . S
C261 C259 1.427 . S
C261 C262 1.328 . S
C261 H276 0.929 . S
C262 C256 1.448 . S
C262 C261 1.328 . S
C262 H277 0.930 . S
Tb263 N254 2.617 . S
Tb263 N264 2.572 . S
Tb263 O298 2.349 . S
Tb263 O301 2.393 . S
Tb263 O302 2.465 . S
Tb263 O303 2.387 . S
Tb263 O305 2.428 . S
Tb263 O306 2.308 . S
Tb263 C327 2.802 . S
N264 C260 1.361 . S
N264 Tb263 2.572 . S
N264 C266 1.340 . S
C265 C259 1.416 . S
C265 C267 1.332 . S
C265 H273 0.931 . S
C266 N264 1.340 . S
C266 C267 1.407 . S
C266 H272 0.930 . S
C267 C265 1.332 . S
C267 C266 1.407 . S
C267 H269 0.929 . S
H268 C257 0.930 . S
H269 C267 0.929 . S
H270 C285 0.930 . S
H271 C292 0.929 . S
H272 C266 0.930 . S
H273 C265 0.931 . S
H274 C288 0.930 . S
H275 C255 0.930 . S
H276 C261 0.929 . S
H277 C262 0.930 . S
H278 C283 0.930 . S
H279 C258 0.930 . S
H280 C291 0.931 . S
N281 Tb252 2.617 . S
N281 C282 1.379 . S
N281 C285 1.334 . S
C282 N281 1.379 . S
C282 C284 1.416 . S
C282 C290 1.424 . S
C283 H278 0.930 . S
C283 C285 1.390 . S
C283 C286 1.339 . S
C284 C282 1.416 . S
C284 C286 1.416 . S
C284 C317 1.448 . S
C285 H270 0.930 . S
C285 N281 1.334 . S
C285 C283 1.390 . S
C286 C283 1.339 . S
C286 C284 1.416 . S
C286 H293 0.930 . S
N287 Tb252 2.572 . S
N287 C288 1.340 . S
N287 C290 1.361 . S
C288 H274 0.930 . S
C288 N287 1.340 . S
C288 C292 1.407 . S
C289 C290 1.413 . S
C289 C291 1.416 . S
C289 C318 1.427 . S
C290 C282 1.424 . S
C290 N287 1.361 . S
C290 C289 1.413 . S
C291 H280 0.931 . S
C291 C289 1.416 . S
C291 C292 1.332 . S
C292 H271 0.929 . S
C292 C288 1.407 . S
C292 C291 1.332 . S
H293 C286 0.930 . S
H294 C317 0.930 . S
H295 C318 0.929 . S
O296 Tb252 2.465 . S
O296 C316 1.264 . S
O297 Tb252 2.387 . S
O297 C308 1.264 . S
O298 Tb263 2.349 . S
O298 C308 1.243 . S
O299 Tb252 2.428 . S
O299 C316 1.256 . S
O300 Tb252 2.308 . S
O300 C315 1.266 . S
O301 Tb263 2.393 . S
O301 C315 1.248 . S
O302 Tb263 2.465 . S
O302 C327 1.264 . S
O303 Tb263 2.387 . S
O303 C319 1.264 . S
O304 Tb252 2.349 . S
O304 C319 1.243 . S
O305 Tb263 2.428 . S
O305 C327 1.256 . S
O306 Tb263 2.308 . S
O306 C326 1.266 . S
O307 Tb252 2.393 . S
O307 C326 1.248 . S
C308 O297 1.264 . S
C308 O298 1.243 . S
C309 C312 1.399 . S
C309 C314 1.383 . S
C309 C316 1.496 . S
C310 C311 1.399 . S
C310 C314 1.389 . S
C311 C310 1.399 . S
C311 C313 1.380 . S
C311 H328 0.929 . S
C312 C309 1.399 . S
C312 C313 1.392 . S
C312 H329 0.929 . S
C313 C311 1.380 . S
C313 C312 1.392 . S
C313 H330 0.929 . S
C314 C309 1.383 . S
C314 C310 1.389 . S
C314 H331 0.931 . S
C315 O300 1.266 . S
C315 O301 1.248 . S
C316 Tb252 2.802 . S
C316 O296 1.264 . S
C316 O299 1.256 . S
C316 C309 1.496 . S
C317 C284 1.448 . S
C317 H294 0.930 . S
C317 C318 1.328 . S
C318 C289 1.427 . S
C318 H295 0.929 . S
C318 C317 1.328 . S
C319 O303 1.264 . S
C319 O304 1.243 . S
C320 C323 1.399 . S
C320 C324 1.383 . S
C320 C327 1.496 . S
C321 C322 1.399 . S
C321 C324 1.389 . S
C322 C321 1.399 . S
C322 C325 1.380 . S
C322 H332 0.929 . S
C323 C320 1.399 . S
C323 C325 1.392 . S
C323 H333 0.929 . S
C324 C320 1.383 . S
C324 C321 1.389 . S
C324 H334 0.931 . S
C325 C322 1.380 . S
C325 C323 1.392 . S
C325 H335 0.929 . S
C326 O306 1.266 . S
C326 O307 1.248 . S
C327 Tb263 2.802 . S
C327 O302 1.264 . S
C327 O305 1.256 . S
C327 C320 1.496 . S
H328 C311 0.929 . S
H329 C312 0.929 . S
H330 C313 0.929 . S
H331 C314 0.931 . S
H332 C322 0.929 . S
H333 C323 0.929 . S
H334 C324 0.931 . S
H335 C325 0.929 . S
Tb336 N365 2.617 . S
Tb336 N371 2.572 . S
Tb336 O380 2.465 . S
Tb336 O381 2.387 . S
Tb336 O383 2.428 . S
Tb336 O384 2.308 . S
Tb336 O388 2.349 . S
Tb336 O391 2.393 . S
Tb336 C400 2.802 . S
C337 N338 1.379 . S
C337 C340 1.416 . S
C337 C344 1.424 . S
N338 C337 1.379 . S
N338 C341 1.334 . S
N338 Tb347 2.617 . S
C339 C341 1.390 . S
C339 C342 1.339 . S
C339 H359 0.930 . S
C340 C337 1.416 . S
C340 C342 1.416 . S
C340 C346 1.448 . S
C341 N338 1.334 . S
C341 C339 1.390 . S
C341 H352 0.930 . S
C342 C339 1.339 . S
C342 C340 1.416 . S
C342 H363 0.930 . S
C343 C344 1.413 . S
C343 C345 1.427 . S
C343 C349 1.416 . S
C344 C337 1.424 . S
C344 C343 1.413 . S
C344 N348 1.361 . S
C345 C343 1.427 . S
C345 C346 1.328 . S
C345 H360 0.929 . S
C346 C340 1.448 . S
C346 C345 1.328 . S
C346 H361 0.930 . S
Tb347 N338 2.617 . S
Tb347 N348 2.572 . S
Tb347 O382 2.349 . S
Tb347 O385 2.393 . S
Tb347 O386 2.465 . S
Tb347 O387 2.387 . S
Tb347 O389 2.428 . S
Tb347 O390 2.308 . S
Tb347 C411 2.802 . S
N348 C344 1.361 . S
N348 Tb347 2.572 . S
N348 C350 1.340 . S
C349 C343 1.416 . S
C349 C351 1.332 . S
C349 H357 0.931 . S
C350 N348 1.340 . S
C350 C351 1.407 . S
C350 H356 0.930 . S
C351 C349 1.332 . S
C351 C350 1.407 . S
C351 H353 0.929 . S
H352 C341 0.930 . S
H353 C351 0.929 . S
H354 C369 0.930 . S
H355 C376 0.929 . S
H356 C350 0.930 . S
H357 C349 0.931 . S
H358 C372 0.930 . S
H359 C339 0.930 . S
H360 C345 0.929 . S
H361 C346 0.930 . S
H362 C367 0.930 . S
H363 C342 0.930 . S
H364 C375 0.931 . S
N365 Tb336 2.617 . S
N365 C366 1.379 . S
N365 C369 1.334 . S
C366 N365 1.379 . S
C366 C368 1.416 . S
C366 C374 1.424 . S
C367 H362 0.930 . S
C367 C369 1.390 . S
C367 C370 1.339 . S
C368 C366 1.416 . S
C368 C370 1.416 . S
C368 C401 1.448 . S
C369 H354 0.930 . S
C369 N365 1.334 . S
C369 C367 1.390 . S
C370 C367 1.339 . S
C370 C368 1.416 . S
C370 H377 0.930 . S
N371 Tb336 2.572 . S
N371 C372 1.340 . S
N371 C374 1.361 . S
C372 H358 0.930 . S
C372 N371 1.340 . S
C372 C376 1.407 . S
C373 C374 1.413 . S
C373 C375 1.416 . S
C373 C402 1.427 . S
C374 C366 1.424 . S
C374 N371 1.361 . S
C374 C373 1.413 . S
C375 H364 0.931 . S
C375 C373 1.416 . S
C375 C376 1.332 . S
C376 H355 0.929 . S
C376 C372 1.407 . S
C376 C375 1.332 . S
H377 C370 0.930 . S
H378 C401 0.930 . S
H379 C402 0.929 . S
O380 Tb336 2.465 . S
O380 C400 1.264 . S
O381 Tb336 2.387 . S
O381 C392 1.264 . S
O382 Tb347 2.349 . S
O382 C392 1.243 . S
O383 Tb336 2.428 . S
O383 C400 1.256 . S
O384 Tb336 2.308 . S
O384 C399 1.266 . S
O385 Tb347 2.393 . S
O385 C399 1.248 . S
O386 Tb347 2.465 . S
O386 C411 1.264 . S
O387 Tb347 2.387 . S
O387 C403 1.264 . S
O388 Tb336 2.349 . S
O388 C403 1.243 . S
O389 Tb347 2.428 . S
O389 C411 1.256 . S
O390 Tb347 2.308 . S
O390 C410 1.266 . S
O391 Tb336 2.393 . S
O391 C410 1.248 . S
C392 O381 1.264 . S
C392 O382 1.243 . S
C393 C396 1.399 . S
C393 C398 1.383 . S
C393 C400 1.496 . S
C394 C395 1.399 . S
C394 C398 1.389 . S
C395 C394 1.399 . S
C395 C397 1.380 . S
C395 H412 0.929 . S
C396 C393 1.399 . S
C396 C397 1.392 . S
C396 H413 0.929 . S
C397 C395 1.380 . S
C397 C396 1.392 . S
C397 H414 0.929 . S
C398 C393 1.383 . S
C398 C394 1.389 . S
C398 H415 0.931 . S
C399 O384 1.266 . S
C399 O385 1.248 . S
C400 Tb336 2.802 . S
C400 O380 1.264 . S
C400 O383 1.256 . S
C400 C393 1.496 . S
C401 C368 1.448 . S
C401 H378 0.930 . S
C401 C402 1.328 . S
C402 C373 1.427 . S
C402 H379 0.929 . S
C402 C401 1.328 . S
C403 O387 1.264 . S
C403 O388 1.243 . S
C404 C407 1.399 . S
C404 C408 1.383 . S
C404 C411 1.496 . S
C405 C406 1.399 . S
C405 C408 1.389 . S
C406 C405 1.399 . S
C406 C409 1.380 . S
C406 H416 0.929 . S
C407 C404 1.399 . S
C407 C409 1.392 . S
C407 H417 0.929 . S
C408 C404 1.383 . S
C408 C405 1.389 . S
C408 H418 0.931 . S
C409 C406 1.380 . S
C409 C407 1.392 . S
C409 H419 0.929 . S
C410 O390 1.266 . S
C410 O391 1.248 . S
C411 Tb347 2.802 . S
C411 O386 1.264 . S
C411 O389 1.256 . S
C411 C404 1.496 . S
H412 C395 0.929 . S
H413 C396 0.929 . S
H414 C397 0.929 . S
H415 C398 0.931 . S
H416 C406 0.929 . S
H417 C407 0.929 . S
H418 C408 0.931 . S
H419 C409 0.929 . S
Tb420 N449 2.617 . S
Tb420 N455 2.572 . S
Tb420 O464 2.465 . S
Tb420 O465 2.387 . S
Tb420 O467 2.428 . S
Tb420 O468 2.308 . S
Tb420 O472 2.349 . S
Tb420 O475 2.393 . S
Tb420 C484 2.802 . S
C421 N422 1.379 . S
C421 C424 1.416 . S
C421 C428 1.424 . S
N422 C421 1.379 . S
N422 C425 1.334 . S
N422 Tb431 2.617 . S
C423 C425 1.390 . S
C423 C426 1.339 . S
C423 H443 0.930 . S
C424 C421 1.416 . S
C424 C426 1.416 . S
C424 C430 1.448 . S
C425 N422 1.334 . S
C425 C423 1.390 . S
C425 H436 0.930 . S
C426 C423 1.339 . S
C426 C424 1.416 . S
C426 H447 0.930 . S
C427 C428 1.413 . S
C427 C429 1.427 . S
C427 C433 1.416 . S
C428 C421 1.424 . S
C428 C427 1.413 . S
C428 N432 1.361 . S
C429 C427 1.427 . S
C429 C430 1.328 . S
C429 H444 0.929 . S
C430 C424 1.448 . S
C430 C429 1.328 . S
C430 H445 0.930 . S
Tb431 N422 2.617 . S
Tb431 N432 2.572 . S
Tb431 O466 2.349 . S
Tb431 O469 2.393 . S
Tb431 O470 2.465 . S
Tb431 O471 2.387 . S
Tb431 O473 2.428 . S
Tb431 O474 2.308 . S
Tb431 C495 2.802 . S
N432 C428 1.361 . S
N432 Tb431 2.572 . S
N432 C434 1.340 . S
C433 C427 1.416 . S
C433 C435 1.332 . S
C433 H441 0.931 . S
C434 N432 1.340 . S
C434 C435 1.407 . S
C434 H440 0.930 . S
C435 C433 1.332 . S
C435 C434 1.407 . S
C435 H437 0.929 . S
H436 C425 0.930 . S
H437 C435 0.929 . S
H438 C453 0.930 . S
H439 C460 0.929 . S
H440 C434 0.930 . S
H441 C433 0.931 . S
H442 C456 0.930 . S
H443 C423 0.930 . S
H444 C429 0.929 . S
H445 C430 0.930 . S
H446 C451 0.930 . S
H447 C426 0.930 . S
H448 C459 0.931 . S
N449 Tb420 2.617 . S
N449 C450 1.379 . S
N449 C453 1.334 . S
C450 N449 1.379 . S
C450 C452 1.416 . S
C450 C458 1.424 . S
C451 H446 0.930 . S
C451 C453 1.390 . S
C451 C454 1.339 . S
C452 C450 1.416 . S
C452 C454 1.416 . S
C452 C485 1.448 . S
C453 H438 0.930 . S
C453 N449 1.334 . S
C453 C451 1.390 . S
C454 C451 1.339 . S
C454 C452 1.416 . S
C454 H461 0.930 . S
N455 Tb420 2.572 . S
N455 C456 1.340 . S
N455 C458 1.361 . S
C456 H442 0.930 . S
C456 N455 1.340 . S
C456 C460 1.407 . S
C457 C458 1.413 . S
C457 C459 1.416 . S
C457 C486 1.427 . S
C458 C450 1.424 . S
C458 N455 1.361 . S
C458 C457 1.413 . S
C459 H448 0.931 . S
C459 C457 1.416 . S
C459 C460 1.332 . S
C460 H439 0.929 . S
C460 C456 1.407 . S
C460 C459 1.332 . S
H461 C454 0.930 . S
H462 C485 0.930 . S
H463 C486 0.929 . S
O464 Tb420 2.465 . S
O464 C484 1.264 . S
O465 Tb420 2.387 . S
O465 C476 1.264 . S
O466 Tb431 2.349 . S
O466 C476 1.243 . S
O467 Tb420 2.428 . S
O467 C484 1.256 . S
O468 Tb420 2.308 . S
O468 C483 1.266 . S
O469 Tb431 2.393 . S
O469 C483 1.248 . S
O470 Tb431 2.465 . S
O470 C495 1.264 . S
O471 Tb431 2.387 . S
O471 C487 1.264 . S
O472 Tb420 2.349 . S
O472 C487 1.243 . S
O473 Tb431 2.428 . S
O473 C495 1.256 . S
O474 Tb431 2.308 . S
O474 C494 1.266 . S
O475 Tb420 2.393 . S
O475 C494 1.248 . S
C476 O465 1.264 . S
C476 O466 1.243 . S
C477 C480 1.399 . S
C477 C482 1.383 . S
C477 C484 1.496 . S
C478 C479 1.399 . S
C478 C482 1.389 . S
C479 C478 1.399 . S
C479 C481 1.380 . S
C479 H496 0.929 . S
C480 C477 1.399 . S
C480 C481 1.392 . S
C480 H497 0.929 . S
C481 C479 1.380 . S
C481 C480 1.392 . S
C481 H498 0.929 . S
C482 C477 1.383 . S
C482 C478 1.389 . S
C482 H499 0.931 . S
C483 O468 1.266 . S
C483 O469 1.248 . S
C484 Tb420 2.802 . S
C484 O464 1.264 . S
C484 O467 1.256 . S
C484 C477 1.496 . S
C485 C452 1.448 . S
C485 H462 0.930 . S
C485 C486 1.328 . S
C486 C457 1.427 . S
C486 H463 0.929 . S
C486 C485 1.328 . S
C487 O471 1.264 . S
C487 O472 1.243 . S
C488 C491 1.399 . S
C488 C492 1.383 . S
C488 C495 1.496 . S
C489 C490 1.399 . S
C489 C492 1.389 . S
C490 C489 1.399 . S
C490 C493 1.380 . S
C490 H500 0.929 . S
C491 C488 1.399 . S
C491 C493 1.392 . S
C491 H501 0.929 . S
C492 C488 1.383 . S
C492 C489 1.389 . S
C492 H502 0.931 . S
C493 C490 1.380 . S
C493 C491 1.392 . S
C493 H503 0.929 . S
C494 O474 1.266 . S
C494 O475 1.248 . S
C495 Tb431 2.802 . S
C495 O470 1.264 . S
C495 O473 1.256 . S
C495 C488 1.496 . S
H496 C479 0.929 . S
H497 C480 0.929 . S
H498 C481 0.929 . S
H499 C482 0.931 . S
H500 C490 0.929 . S
H501 C491 0.929 . S
H502 C492 0.931 . S
H503 C493 0.929 . S
Tb504 N533 2.617 . S
Tb504 N539 2.572 . S
Tb504 O548 2.465 . S
Tb504 O549 2.387 . S
Tb504 O551 2.428 . S
Tb504 O552 2.308 . S
Tb504 O556 2.349 . S
Tb504 O559 2.393 . S
Tb504 C568 2.802 . S
C505 N506 1.379 . S
C505 C508 1.416 . S
C505 C512 1.424 . S
N506 C505 1.379 . S
N506 C509 1.334 . S
N506 Tb515 2.617 . S
C507 C509 1.390 . S
C507 C510 1.339 . S
C507 H527 0.930 . S
C508 C505 1.416 . S
C508 C510 1.416 . S
C508 C514 1.448 . S
C509 N506 1.334 . S
C509 C507 1.390 . S
C509 H520 0.930 . S
C510 C507 1.339 . S
C510 C508 1.416 . S
C510 H531 0.930 . S
C511 C512 1.413 . S
C511 C513 1.427 . S
C511 C517 1.416 . S
C512 C505 1.424 . S
C512 C511 1.413 . S
C512 N516 1.361 . S
C513 C511 1.427 . S
C513 C514 1.328 . S
C513 H528 0.929 . S
C514 C508 1.448 . S
C514 C513 1.328 . S
C514 H529 0.930 . S
Tb515 N506 2.617 . S
Tb515 N516 2.572 . S
Tb515 O550 2.349 . S
Tb515 O553 2.393 . S
Tb515 O554 2.465 . S
Tb515 O555 2.387 . S
Tb515 O557 2.428 . S
Tb515 O558 2.308 . S
Tb515 C579 2.802 . S
N516 C512 1.361 . S
N516 Tb515 2.572 . S
N516 C518 1.340 . S
C517 C511 1.416 . S
C517 C519 1.332 . S
C517 H525 0.931 . S
C518 N516 1.340 . S
C518 C519 1.407 . S
C518 H524 0.930 . S
C519 C517 1.332 . S
C519 C518 1.407 . S
C519 H521 0.929 . S
H520 C509 0.930 . S
H521 C519 0.929 . S
H522 C537 0.930 . S
H523 C544 0.929 . S
H524 C518 0.930 . S
H525 C517 0.931 . S
H526 C540 0.930 . S
H527 C507 0.930 . S
H528 C513 0.929 . S
H529 C514 0.930 . S
H530 C535 0.930 . S
H531 C510 0.930 . S
H532 C543 0.931 . S
N533 Tb504 2.617 . S
N533 C534 1.379 . S
N533 C537 1.334 . S
C534 N533 1.379 . S
C534 C536 1.416 . S
C534 C542 1.424 . S
C535 H530 0.930 . S
C535 C537 1.390 . S
C535 C538 1.339 . S
C536 C534 1.416 . S
C536 C538 1.416 . S
C536 C569 1.448 . S
C537 H522 0.930 . S
C537 N533 1.334 . S
C537 C535 1.390 . S
C538 C535 1.339 . S
C538 C536 1.416 . S
C538 H545 0.930 . S
N539 Tb504 2.572 . S
N539 C540 1.340 . S
N539 C542 1.361 . S
C540 H526 0.930 . S
C540 N539 1.340 . S
C540 C544 1.407 . S
C541 C542 1.413 . S
C541 C543 1.416 . S
C541 C570 1.427 . S
C542 C534 1.424 . S
C542 N539 1.361 . S
C542 C541 1.413 . S
C543 H532 0.931 . S
C543 C541 1.416 . S
C543 C544 1.332 . S
C544 H523 0.929 . S
C544 C540 1.407 . S
C544 C543 1.332 . S
H545 C538 0.930 . S
H546 C569 0.930 . S
H547 C570 0.929 . S
O548 Tb504 2.465 . S
O548 C568 1.264 . S
O549 Tb504 2.387 . S
O549 C560 1.264 . S
O550 Tb515 2.349 . S
O550 C560 1.243 . S
O551 Tb504 2.428 . S
O551 C568 1.256 . S
O552 Tb504 2.308 . S
O552 C567 1.266 . S
O553 Tb515 2.393 . S
O553 C567 1.248 . S
O554 Tb515 2.465 . S
O554 C579 1.264 . S
O555 Tb515 2.387 . S
O555 C571 1.264 . S
O556 Tb504 2.349 . S
O556 C571 1.243 . S
O557 Tb515 2.428 . S
O557 C579 1.256 . S
O558 Tb515 2.308 . S
O558 C578 1.266 . S
O559 Tb504 2.393 . S
O559 C578 1.248 . S
C560 O549 1.264 . S
C560 O550 1.243 . S
C561 C564 1.399 . S
C561 C566 1.383 . S
C561 C568 1.496 . S
C562 C563 1.399 . S
C562 C566 1.389 . S
C563 C562 1.399 . S
C563 C565 1.380 . S
C563 H580 0.929 . S
C564 C561 1.399 . S
C564 C565 1.392 . S
C564 H581 0.929 . S
C565 C563 1.380 . S
C565 C564 1.392 . S
C565 H582 0.929 . S
C566 C561 1.383 . S
C566 C562 1.389 . S
C566 H583 0.931 . S
C567 O552 1.266 . S
C567 O553 1.248 . S
C568 Tb504 2.802 . S
C568 O548 1.264 . S
C568 O551 1.256 . S
C568 C561 1.496 . S
C569 C536 1.448 . S
C569 H546 0.930 . S
C569 C570 1.328 . S
C570 C541 1.427 . S
C570 H547 0.929 . S
C570 C569 1.328 . S
C571 O555 1.264 . S
C571 O556 1.243 . S
C572 C575 1.399 . S
C572 C576 1.383 . S
C572 C579 1.496 . S
C573 C574 1.399 . S
C573 C576 1.389 . S
C574 C573 1.399 . S
C574 C577 1.380 . S
C574 H584 0.929 . S
C575 C572 1.399 . S
C575 C577 1.392 . S
C575 H585 0.929 . S
C576 C572 1.383 . S
C576 C573 1.389 . S
C576 H586 0.931 . S
C577 C574 1.380 . S
C577 C575 1.392 . S
C577 H587 0.929 . S
C578 O558 1.266 . S
C578 O559 1.248 . S
C579 Tb515 2.802 . S
C579 O554 1.264 . S
C579 O557 1.256 . S
C579 C572 1.496 . S
H580 C563 0.929 . S
H581 C564 0.929 . S
H582 C565 0.929 . S
H583 C566 0.931 . S
H584 C574 0.929 . S
H585 C575 0.929 . S
H586 C576 0.931 . S
H587 C577 0.929 . S
Tb588 N617 2.617 . S
Tb588 N623 2.572 . S
Tb588 O632 2.465 . S
Tb588 O633 2.387 . S
Tb588 O635 2.428 . S
Tb588 O636 2.308 . S
Tb588 O640 2.349 . S
Tb588 O643 2.393 . S
Tb588 C652 2.802 . S
C589 N590 1.379 . S
C589 C592 1.416 . S
C589 C596 1.424 . S
N590 C589 1.379 . S
N590 C593 1.334 . S
N590 Tb599 2.617 . S
C591 C593 1.390 . S
C591 C594 1.339 . S
C591 H611 0.930 . S
C592 C589 1.416 . S
C592 C594 1.416 . S
C592 C598 1.448 . S
C593 N590 1.334 . S
C593 C591 1.390 . S
C593 H604 0.930 . S
C594 C591 1.339 . S
C594 C592 1.416 . S
C594 H615 0.930 . S
C595 C596 1.413 . S
C595 C597 1.427 . S
C595 C601 1.416 . S
C596 C589 1.424 . S
C596 C595 1.413 . S
C596 N600 1.361 . S
C597 C595 1.427 . S
C597 C598 1.328 . S
C597 H612 0.929 . S
C598 C592 1.448 . S
C598 C597 1.328 . S
C598 H613 0.930 . S
Tb599 N590 2.617 . S
Tb599 N600 2.572 . S
Tb599 O634 2.349 . S
Tb599 O637 2.393 . S
Tb599 O638 2.465 . S
Tb599 O639 2.387 . S
Tb599 O641 2.428 . S
Tb599 O642 2.308 . S
Tb599 C663 2.802 . S
N600 C596 1.361 . S
N600 Tb599 2.572 . S
N600 C602 1.340 . S
C601 C595 1.416 . S
C601 C603 1.332 . S
C601 H609 0.931 . S
C602 N600 1.340 . S
C602 C603 1.407 . S
C602 H608 0.930 . S
C603 C601 1.332 . S
C603 C602 1.407 . S
C603 H605 0.929 . S
H604 C593 0.930 . S
H605 C603 0.929 . S
H606 C621 0.930 . S
H607 C628 0.929 . S
H608 C602 0.930 . S
H609 C601 0.931 . S
H610 C624 0.930 . S
H611 C591 0.930 . S
H612 C597 0.929 . S
H613 C598 0.930 . S
H614 C619 0.930 . S
H615 C594 0.930 . S
H616 C627 0.931 . S
N617 Tb588 2.617 . S
N617 C618 1.379 . S
N617 C621 1.334 . S
C618 N617 1.379 . S
C618 C620 1.416 . S
C618 C626 1.424 . S
C619 H614 0.930 . S
C619 C621 1.390 . S
C619 C622 1.339 . S
C620 C618 1.416 . S
C620 C622 1.416 . S
C620 C653 1.448 . S
C621 H606 0.930 . S
C621 N617 1.334 . S
C621 C619 1.390 . S
C622 C619 1.339 . S
C622 C620 1.416 . S
C622 H629 0.930 . S
N623 Tb588 2.572 . S
N623 C624 1.340 . S
N623 C626 1.361 . S
C624 H610 0.930 . S
C624 N623 1.340 . S
C624 C628 1.407 . S
C625 C626 1.413 . S
C625 C627 1.416 . S
C625 C654 1.427 . S
C626 C618 1.424 . S
C626 N623 1.361 . S
C626 C625 1.413 . S
C627 H616 0.931 . S
C627 C625 1.416 . S
C627 C628 1.332 . S
C628 H607 0.929 . S
C628 C624 1.407 . S
C628 C627 1.332 . S
H629 C622 0.930 . S
H630 C653 0.930 . S
H631 C654 0.929 . S
O632 Tb588 2.465 . S
O632 C652 1.264 . S
O633 Tb588 2.387 . S
O633 C644 1.264 . S
O634 Tb599 2.349 . S
O634 C644 1.243 . S
O635 Tb588 2.428 . S
O635 C652 1.256 . S
O636 Tb588 2.308 . S
O636 C651 1.266 . S
O637 Tb599 2.393 . S
O637 C651 1.248 . S
O638 Tb599 2.465 . S
O638 C663 1.264 . S
O639 Tb599 2.387 . S
O639 C655 1.264 . S
O640 Tb588 2.349 . S
O640 C655 1.243 . S
O641 Tb599 2.428 . S
O641 C663 1.256 . S
O642 Tb599 2.308 . S
O642 C662 1.266 . S
O643 Tb588 2.393 . S
O643 C662 1.248 . S
C644 O633 1.264 . S
C644 O634 1.243 . S
C645 C648 1.399 . S
C645 C650 1.383 . S
C645 C652 1.496 . S
C646 C647 1.399 . S
C646 C650 1.389 . S
C647 C646 1.399 . S
C647 C649 1.380 . S
C647 H664 0.929 . S
C648 C645 1.399 . S
C648 C649 1.392 . S
C648 H665 0.929 . S
C649 C647 1.380 . S
C649 C648 1.392 . S
C649 H666 0.929 . S
C650 C645 1.383 . S
C650 C646 1.389 . S
C650 H667 0.931 . S
C651 O636 1.266 . S
C651 O637 1.248 . S
C652 Tb588 2.802 . S
C652 O632 1.264 . S
C652 O635 1.256 . S
C652 C645 1.496 . S
C653 C620 1.448 . S
C653 H630 0.930 . S
C653 C654 1.328 . S
C654 C625 1.427 . S
C654 H631 0.929 . S
C654 C653 1.328 . S
C655 O639 1.264 . S
C655 O640 1.243 . S
C656 C659 1.399 . S
C656 C660 1.383 . S
C656 C663 1.496 . S
C657 C658 1.399 . S
C657 C660 1.389 . S
C658 C657 1.399 . S
C658 C661 1.380 . S
C658 H668 0.929 . S
C659 C656 1.399 . S
C659 C661 1.392 . S
C659 H669 0.929 . S
C660 C656 1.383 . S
C660 C657 1.389 . S
C660 H670 0.931 . S
C661 C658 1.380 . S
C661 C659 1.392 . S
C661 H671 0.929 . S
C662 O642 1.266 . S
C662 O643 1.248 . S
C663 Tb599 2.802 . S
C663 O638 1.264 . S
C663 O641 1.256 . S
C663 C656 1.496 . S
H664 C647 0.929 . S
H665 C648 0.929 . S
H666 C649 0.929 . S
H667 C650 0.931 . S
H668 C658 0.929 . S
H669 C659 0.929 . S
H670 C660 0.931 . S
H671 C661 0.929 . S
C672 O684 1.241 . S
C672 O685 1.280 . S
C673 O686 1.277 . S
C673 O687 1.245 . S
C674 O698 1.247 . S
C674 O700 1.289 . S
Mg675 O676 1.926 . S
Mg675 O685 1.984 . S
Mg675 O687 1.988 . S
Mg675 O688 2.061 1_655 S
O676 Mg675 1.926 . S
O676 Mg677 1.986 1_545 S
O676 Mg678 1.917 1_655 S
Mg677 O676 1.986 1_565 S
Mg677 O684 2.042 1_565 S
Mg677 O686 2.041 1_565 S
Mg677 O692 2.038 . S
Mg677 O700 2.238 . S
Mg678 O676 1.917 1_455 S
Mg678 O679 1.917 1_545 S
Mg678 O689 2.106 . S
Mg678 O691 2.079 1_445 S
Mg678 O700 2.106 1_445 S
Mg678 O701 2.079 . S
O679 Mg678 1.917 1_565 S
O679 Mg680 1.926 . S
O679 Mg681 1.985 1_565 S
Mg680 O679 1.926 . S
Mg680 O694 1.984 . S
Mg680 O697 1.988 . S
Mg680 O698 2.061 1_455 S
Mg681 O679 1.985 1_545 S
Mg681 O689 2.244 . S
Mg681 O693 2.036 1_545 S
Mg681 O695 2.034 1_545 S
Mg681 O702 2.046 . S
C682 O688 1.247 . S
C682 O689 1.289 . S
C683 O701 1.245 . S
C683 O702 1.274 . S
O684 C672 1.241 . S
O684 Mg677 2.042 1_545 S
O685 C672 1.280 . S
O685 Mg675 1.984 . S
O686 C673 1.277 . S
O686 Mg677 2.041 1_545 S
O687 C673 1.245 . S
O687 Mg675 1.988 . S
O688 Mg675 2.061 1_455 S
O688 C682 1.247 . S
O689 Mg678 2.106 . S
O689 Mg681 2.244 . S
O689 C682 1.289 . S
C690 O691 1.245 . S
C690 O692 1.274 . S
O691 Mg678 2.079 1_665 S
O691 C690 1.245 . S
O692 Mg677 2.038 . S
O692 C690 1.274 . S
O693 Mg681 2.036 1_565 S
O693 C696 1.241 . S
O694 Mg680 1.984 . S
O694 C696 1.280 . S
O695 Mg681 2.034 1_565 S
O695 C699 1.277 . S
C696 O693 1.241 . S
C696 O694 1.280 . S
O697 Mg680 1.988 . S
O697 C699 1.245 . S
O698 C674 1.247 . S
O698 Mg680 2.061 1_655 S
C699 O695 1.277 . S
C699 O697 1.245 . S
O700 C674 1.289 . S
O700 Mg677 2.238 . S
O700 Mg678 2.106 1_665 S
O701 Mg678 2.079 . S
O701 C683 1.245 . S
O702 Mg681 2.046 . S
O702 C683 1.274 . S
C703 O715 1.241 . S
C703 O716 1.280 . S
C704 O717 1.277 . S
C704 O718 1.245 . S
C705 O729 1.247 . S
C705 O731 1.289 . S
Mg706 O707 1.926 . S
Mg706 O716 1.984 . S
Mg706 O718 1.988 1_554 S
Mg706 O719 2.061 . S
O707 Mg706 1.926 . S
O707 Mg708 1.986 1_545 S
O707 Mg709 1.917 . S
Mg708 O707 1.986 1_565 S
Mg708 O715 2.042 1_565 S
Mg708 O717 2.041 1_564 S
Mg708 O723 2.038 . S
Mg708 O731 2.238 1_554 S
Mg709 O707 1.917 . S
Mg709 O710 1.917 1_544 S
Mg709 O720 2.106 . S
Mg709 O722 2.079 1_545 S
Mg709 O731 2.106 1_544 S
Mg709 O732 2.079 1_554 S
O710 Mg709 1.917 1_566 S
O710 Mg711 1.926 . S
O710 Mg712 1.985 1_565 S
Mg711 O710 1.926 . S
Mg711 O725 1.984 . S
Mg711 O728 1.988 1_556 S
Mg711 O729 2.061 . S
Mg712 O710 1.985 1_545 S
Mg712 O720 2.244 1_556 S
Mg712 O724 2.036 1_545 S
Mg712 O726 2.034 1_546 S
Mg712 O733 2.046 . S
C713 O719 1.247 . S
C713 O720 1.289 . S
C714 O732 1.245 . S
C714 O733 1.274 . S
O715 C703 1.241 . S
O715 Mg708 2.042 1_545 S
O716 C703 1.280 . S
O716 Mg706 1.984 . S
O717 C704 1.277 . S
O717 Mg708 2.041 1_546 S
O718 C704 1.245 . S
O718 Mg706 1.988 1_556 S
O719 Mg706 2.061 . S
O719 C713 1.247 . S
O720 Mg709 2.106 . S
O720 Mg712 2.244 1_554 S
O720 C713 1.289 . S
C721 O722 1.245 . S
C721 O723 1.274 . S
O722 Mg709 2.079 1_565 S
O722 C721 1.245 . S
O723 Mg708 2.038 . S
O723 C721 1.274 . S
O724 Mg712 2.036 1_565 S
O724 C727 1.241 . S
O725 Mg711 1.984 . S
O725 C727 1.280 . S
O726 Mg712 2.034 1_564 S
O726 C730 1.277 . S
C727 O724 1.241 . S
C727 O725 1.280 . S
O728 Mg711 1.988 1_554 S
O728 C730 1.245 . S
O729 C705 1.247 . S
O729 Mg711 2.061 . S
C730 O726 1.277 . S
C730 O728 1.245 . S
O731 C705 1.289 . S
O731 Mg708 2.238 1_556 S
O731 Mg709 2.106 1_566 S
O732 Mg709 2.079 1_556 S
O732 C714 1.245 . S
O733 Mg712 2.046 . S
O733 C714 1.274 . S
C734 O746 1.241 . S
C734 O747 1.280 . S
C735 O748 1.277 . S
C735 O749 1.245 . S
C736 O760 1.247 . S
C736 O762 1.289 . S
Mg737 O738 1.926 . S
Mg737 O747 1.984 . S
Mg737 O749 1.988 1_554 S
Mg737 O750 2.061 1_655 S
O738 Mg737 1.926 . S
O738 Mg739 1.986 . S
O738 Mg740 1.917 1_655 S
Mg739 O738 1.986 . S
Mg739 O746 2.042 . S
Mg739 O748 2.041 1_554 S
Mg739 O754 2.038 . S
Mg739 O762 2.238 1_554 S
Mg740 O738 1.917 1_455 S
Mg740 O741 1.917 1_554 S
Mg740 O751 2.106 . S
Mg740 O753 2.079 1_455 S
Mg740 O762 2.106 1_454 S
Mg740 O763 2.079 1_554 S
O741 Mg740 1.917 1_556 S
O741 Mg742 1.926 . S
O741 Mg743 1.986 . S
Mg742 O741 1.926 . S
Mg742 O756 1.984 . S
Mg742 O759 1.988 1_556 S
Mg742 O760 2.061 1_455 S
Mg743 O741 1.986 . S
Mg743 O751 2.238 1_556 S
Mg743 O755 2.042 . S
Mg743 O757 2.041 1_556 S
Mg743 O764 2.038 . S
C744 O750 1.247 . S
C744 O751 1.289 . S
C745 O763 1.245 . S
C745 O764 1.274 . S
O746 C734 1.241 . S
O746 Mg739 2.042 . S
O747 C734 1.280 . S
O747 Mg737 1.984 . S
O748 C735 1.277 . S
O748 Mg739 2.041 1_556 S
O749 C735 1.245 . S
O749 Mg737 1.988 1_556 S
O750 Mg737 2.061 1_455 S
O750 C744 1.247 . S
O751 Mg740 2.106 . S
O751 Mg743 2.238 1_554 S
O751 C744 1.289 . S
C752 O753 1.245 . S
C752 O754 1.274 . S
O753 Mg740 2.079 1_655 S
O753 C752 1.245 . S
O754 Mg739 2.038 . S
O754 C752 1.274 . S
O755 Mg743 2.042 . S
O755 C758 1.241 . S
O756 Mg742 1.984 . S
O756 C758 1.280 . S
O757 Mg743 2.041 1_554 S
O757 C761 1.277 . S
C758 O755 1.241 . S
C758 O756 1.280 . S
O759 Mg742 1.988 1_554 S
O759 C761 1.245 . S
O760 C736 1.247 . S
O760 Mg742 2.061 1_655 S
C761 O757 1.277 . S
C761 O759 1.245 . S
O762 C736 1.289 . S
O762 Mg739 2.238 1_556 S
O762 Mg740 2.106 1_656 S
O763 Mg740 2.079 1_556 S
O763 C745 1.245 . S
O764 Mg743 2.038 . S
O764 C745 1.274 . S
C765 O777 1.241 . S
C765 O778 1.280 . S
C766 O779 1.277 . S
C766 O780 1.245 . S
C767 O791 1.247 . S
C767 O793 1.289 . S
Mg768 O769 1.926 . S
Mg768 O778 1.984 . S
Mg768 O780 1.988 1_554 S
Mg768 O781 2.061 . S
O769 Mg768 1.926 . S
O769 Mg770 1.986 . S
O769 Mg771 1.917 . S
Mg770 O769 1.986 . S
Mg770 O777 2.042 . S
Mg770 O779 2.041 1_554 S
Mg770 O785 2.038 . S
Mg770 O793 2.238 1_554 S
Mg771 O769 1.917 . S
Mg771 O772 1.917 1_554 S
Mg771 O782 2.106 . S
Mg771 O784 2.079 . S
Mg771 O793 2.106 1_554 S
Mg771 O794 2.079 1_554 S
O772 Mg771 1.917 1_556 S
O772 Mg773 1.926 . S
O772 Mg774 1.986 . S
Mg773 O772 1.926 . S
Mg773 O787 1.984 . S
Mg773 O790 1.988 1_556 S
Mg773 O791 2.061 . S
Mg774 O772 1.986 . S
Mg774 O782 2.238 1_556 S
Mg774 O786 2.042 . S
Mg774 O788 2.041 1_556 S
Mg774 O795 2.038 . S
C775 O781 1.247 . S
C775 O782 1.289 . S
C776 O794 1.245 . S
C776 O795 1.274 . S
O777 C765 1.241 . S
O777 Mg770 2.042 . S
O778 C765 1.280 . S
O778 Mg768 1.984 . S
O779 C766 1.277 . S
O779 Mg770 2.041 1_556 S
O780 C766 1.245 . S
O780 Mg768 1.988 1_556 S
O781 Mg768 2.061 . S
O781 C775 1.247 . S
O782 Mg771 2.106 . S
O782 Mg774 2.238 1_554 S
O782 C775 1.289 . S
C783 O784 1.245 . S
C783 O785 1.274 . S
O784 Mg771 2.079 . S
O784 C783 1.245 . S
O785 Mg770 2.038 . S
O785 C783 1.274 . S
O786 Mg774 2.042 . S
O786 C789 1.241 . S
O787 Mg773 1.984 . S
O787 C789 1.280 . S
O788 Mg774 2.041 1_554 S
O788 C792 1.277 . S
C789 O786 1.241 . S
C789 O787 1.280 . S
O790 Mg773 1.988 1_554 S
O790 C792 1.245 . S
O791 C767 1.247 . S
O791 Mg773 2.061 . S
C792 O788 1.277 . S
C792 O790 1.245 . S
O793 C767 1.289 . S
O793 Mg770 2.238 1_556 S
O793 Mg771 2.106 1_556 S
O794 Mg771 2.079 1_556 S
O794 C776 1.245 . S
O795 Mg774 2.038 . S
O795 C776 1.274 . S
C796 O808 1.241 . S
C796 O809 1.280 . S
C797 O810 1.277 . S
C797 O811 1.245 . S
C798 O822 1.247 . S
C798 O824 1.289 . S
Mg799 O800 1.926 . S
Mg799 O809 1.984 . S
Mg799 O811 1.988 . S
Mg799 O812 2.061 1_655 S
O800 Mg799 1.926 . S
O800 Mg801 1.986 . S
O800 Mg802 1.917 1_655 S
Mg801 O800 1.986 . S
Mg801 O808 2.042 . S
Mg801 O810 2.041 . S
Mg801 O816 2.038 . S
Mg801 O824 2.238 . S
Mg802 O800 1.917 1_455 S
Mg802 O803 1.917 . S
Mg802 O813 2.106 . S
Mg802 O815 2.079 1_455 S
Mg802 O824 2.106 1_455 S
Mg802 O825 2.079 . S
O803 Mg802 1.917 . S
O803 Mg804 1.926 . S
O803 Mg805 1.986 . S
Mg804 O803 1.926 . S
Mg804 O818 1.984 . S
Mg804 O821 1.988 . S
Mg804 O822 2.061 1_455 S
Mg805 O803 1.986 . S
Mg805 O813 2.238 . S
Mg805 O817 2.042 . S
Mg805 O819 2.041 . S
Mg805 O826 2.038 . S
C806 O812 1.247 . S
C806 O813 1.289 . S
C807 O825 1.245 . S
C807 O826 1.274 . S
O808 C796 1.241 . S
O808 Mg801 2.042 . S
O809 C796 1.280 . S
O809 Mg799 1.984 . S
O810 C797 1.277 . S
O810 Mg801 2.041 . S
O811 C797 1.245 . S
O811 Mg799 1.988 . S
O812 Mg799 2.061 1_455 S
O812 C806 1.247 . S
O813 Mg802 2.106 . S
O813 Mg805 2.238 . S
O813 C806 1.289 . S
C814 O815 1.245 . S
C814 O816 1.274 . S
O815 Mg802 2.079 1_655 S
O815 C814 1.245 . S
O816 Mg801 2.038 . S
O816 C814 1.274 . S
O817 Mg805 2.042 . S
O817 C820 1.241 . S
O818 Mg804 1.984 . S
O818 C820 1.280 . S
O819 Mg805 2.041 . S
O819 C823 1.277 . S
C820 O817 1.241 . S
C820 O818 1.280 . S
O821 Mg804 1.988 . S
O821 C823 1.245 . S
O822 C798 1.247 . S
O822 Mg804 2.061 1_655 S
C823 O819 1.277 . S
C823 O821 1.245 . S
O824 C798 1.289 . S
O824 Mg801 2.238 . S
O824 Mg802 2.106 1_655 S
O825 Mg802 2.079 . S
O825 C807 1.245 . S
O826 Mg805 2.038 . S
O826 C807 1.274 . S
C827 O839 1.241 . S
C827 O840 1.280 . S
C828 O841 1.277 . S
C828 O842 1.245 . S
C829 O853 1.247 . S
C829 O855 1.289 . S
Mg830 O831 1.926 . S
Mg830 O840 1.984 . S
Mg830 O842 1.988 . S
Mg830 O843 2.061 . S
O831 Mg830 1.926 . S
O831 Mg832 1.986 1_545 S
O831 Mg833 1.917 . S
Mg832 O831 1.986 1_565 S
Mg832 O839 2.042 1_565 S
Mg832 O841 2.041 1_565 S
Mg832 O847 2.038 . S
Mg832 O855 2.238 . S
Mg833 O831 1.917 . S
Mg833 O834 1.917 1_545 S
Mg833 O844 2.106 . S
Mg833 O846 2.079 1_545 S
Mg833 O855 2.106 1_545 S
Mg833 O856 2.079 . S
O834 Mg833 1.917 1_565 S
O834 Mg835 1.926 . S
O834 Mg836 1.985 1_565 S
Mg835 O834 1.926 . S
Mg835 O849 1.984 . S
Mg835 O852 1.988 . S
Mg835 O853 2.061 . S
Mg836 O834 1.985 1_545 S
Mg836 O844 2.244 . S
Mg836 O848 2.036 1_545 S
Mg836 O850 2.034 1_545 S
Mg836 O857 2.046 . S
C837 O843 1.247 . S
C837 O844 1.289 . S
C838 O856 1.245 . S
C838 O857 1.274 . S
O839 C827 1.241 . S
O839 Mg832 2.042 1_545 S
O840 C827 1.280 . S
O840 Mg830 1.984 . S
O841 C828 1.277 . S
O841 Mg832 2.041 1_545 S
O842 C828 1.245 . S
O842 Mg830 1.988 . S
O843 Mg830 2.061 . S
O843 C837 1.247 . S
O844 Mg833 2.106 . S
O844 Mg836 2.244 . S
O844 C837 1.289 . S
C845 O846 1.245 . S
C845 O847 1.274 . S
O846 Mg833 2.079 1_565 S
O846 C845 1.245 . S
O847 Mg832 2.038 . S
O847 C845 1.274 . S
O848 Mg836 2.036 1_565 S
O848 C851 1.241 . S
O849 Mg835 1.984 . S
O849 C851 1.280 . S
O850 Mg836 2.034 1_565 S
O850 C854 1.277 . S
C851 O848 1.241 . S
C851 O849 1.280 . S
O852 Mg835 1.988 . S
O852 C854 1.245 . S
O853 C829 1.247 . S
O853 Mg835 2.061 . S
C854 O850 1.277 . S
C854 O852 1.245 . S
O855 C829 1.289 . S
O855 Mg832 2.238 . S
O855 Mg833 2.106 1_565 S
O856 Mg833 2.079 . S
O856 C838 1.245 . S
O857 Mg836 2.046 . S
O857 C838 1.274 . S
H858 C866 0.929 . S
H859 C868 0.930 . S
H860 C870 0.930 . S
H861 C873 0.929 . S
H862 C876 0.930 . S
H863 C878 0.960 . S
H864 C878 0.960 . S
H865 C878 0.960 . S
C866 H858 0.929 . S
C866 C867 1.377 . S
C866 C868 1.384 . S
C867 C866 1.377 . S
C867 C873 1.390 . S
C868 H859 0.930 . S
C868 C866 1.384 . S
C868 C869 1.372 . S
C869 C868 1.372 . S
C869 C870 1.400 . S
C869 C874 1.490 . S
C870 H860 0.930 . S
C870 C869 1.400 . S
C870 C873 1.386 . S
H871 C887 0.930 . S
H872 C888 0.931 . S
C873 H861 0.929 . S
C873 C867 1.390 . S
C873 C870 1.386 . S
C874 C869 1.490 . S
C874 C876 1.395 . S
C874 C877 1.403 . S
H875 C881 0.930 . S
C876 H862 0.930 . S
C876 C874 1.395 . S
C876 C879 1.403 . S
C877 C874 1.403 . S
C877 C878 1.524 . S
C877 C881 1.400 . S
C878 H863 0.960 . S
C878 H864 0.960 . S
C878 H865 0.960 . S
C878 C877 1.524 . S
C879 C876 1.403 . S
C879 C880 1.392 . S
C879 C883 1.495 . S
C880 C879 1.392 . S
C880 C881 1.385 . S
C880 C882 1.478 . S
C881 H875 0.930 . S
C881 C877 1.400 . S
C881 C880 1.385 . S
C882 C880 1.478 . S
C882 C884 1.381 . S
C882 C888 1.383 . S
C883 C879 1.495 . S
C883 H889 0.959 . S
C883 H890 0.961 . S
C883 H891 0.960 . S
C884 C882 1.381 . S
C884 C885 1.394 . S
C884 H892 0.930 . S
C885 C884 1.394 . S
C885 C886 1.383 . S
C885 H893 0.929 . S
C886 C885 1.383 . S
C886 C887 1.377 . S
C887 H871 0.930 . S
C887 C886 1.377 . S
C887 C888 1.379 . S
C888 H872 0.931 . S
C888 C882 1.383 . S
C888 C887 1.379 . S
H889 C883 0.959 . S
H890 C883 0.961 . S
H891 C883 0.960 . S
H892 C884 0.930 . S
H893 C885 0.929 . S
H894 C902 0.929 . S
H895 C904 0.930 . S
H896 C906 0.930 . S
H897 C909 0.929 . S
H898 C912 0.930 . S
H899 C914 0.960 . S
H900 C914 0.960 . S
H901 C914 0.960 . S
C902 H894 0.929 . S
C902 C903 1.377 . S
C902 C904 1.384 . S
C903 C902 1.377 . S
C903 C909 1.390 . S
C904 H895 0.930 . S
C904 C902 1.384 . S
C904 C905 1.372 . S
C905 C904 1.372 . S
C905 C906 1.400 . S
C905 C910 1.490 . S
C906 H896 0.930 . S
C906 C905 1.400 . S
C906 C909 1.386 . S
H907 C923 0.930 . S
H908 C924 0.931 . S
C909 H897 0.929 . S
C909 C903 1.390 . S
C909 C906 1.386 . S
C910 C905 1.490 . S
C910 C912 1.395 . S
C910 C913 1.403 . S
H911 C917 0.930 . S
C912 H898 0.930 . S
C912 C910 1.395 . S
C912 C915 1.403 . S
C913 C910 1.403 . S
C913 C914 1.524 . S
C913 C917 1.400 . S
C914 H899 0.960 . S
C914 H900 0.960 . S
C914 H901 0.960 . S
C914 C913 1.524 . S
C915 C912 1.403 . S
C915 C916 1.392 . S
C915 C919 1.495 . S
C916 C915 1.392 . S
C916 C917 1.385 . S
C916 C918 1.478 . S
C917 H911 0.930 . S
C917 C913 1.400 . S
C917 C916 1.385 . S
C918 C916 1.478 . S
C918 C920 1.381 . S
C918 C924 1.383 . S
C919 C915 1.495 . S
C919 H925 0.959 . S
C919 H926 0.961 . S
C919 H927 0.960 . S
C920 C918 1.381 . S
C920 C921 1.394 . S
C920 H928 0.930 . S
C921 C920 1.394 . S
C921 C922 1.383 . S
C921 H929 0.929 . S
C922 C921 1.383 . S
C922 C923 1.377 . S
C923 H907 0.930 . S
C923 C922 1.377 . S
C923 C924 1.379 . S
C924 H908 0.931 . S
C924 C918 1.383 . S
C924 C923 1.379 . S
H925 C919 0.959 . S
H926 C919 0.961 . S
H927 C919 0.960 . S
H928 C920 0.930 . S
H929 C921 0.929 . S
H930 C938 0.929 . S
H931 C940 0.930 . S
H932 C942 0.930 . S
H933 C945 0.929 . S
H934 C948 0.930 . S
H935 C950 0.960 . S
H936 C950 0.960 . S
H937 C950 0.960 . S
C938 H930 0.929 . S
C938 C939 1.377 . S
C938 C940 1.384 . S
C939 C938 1.377 . S
C939 C945 1.390 . S
C940 H931 0.930 . S
C940 C938 1.384 . S
C940 C941 1.372 . S
C941 C940 1.372 . S
C941 C942 1.400 . S
C941 C946 1.490 . S
C942 H932 0.930 . S
C942 C941 1.400 . S
C942 C945 1.386 . S
H943 C959 0.930 . S
H944 C960 0.931 . S
C945 H933 0.929 . S
C945 C939 1.390 . S
C945 C942 1.386 . S
C946 C941 1.490 . S
C946 C948 1.395 . S
C946 C949 1.403 . S
H947 C953 0.930 . S
C948 H934 0.930 . S
C948 C946 1.395 . S
C948 C951 1.403 . S
C949 C946 1.403 . S
C949 C950 1.524 . S
C949 C953 1.400 . S
C950 H935 0.960 . S
C950 H936 0.960 . S
C950 H937 0.960 . S
C950 C949 1.524 . S
C951 C948 1.403 . S
C951 C952 1.392 . S
C951 C955 1.495 . S
C952 C951 1.392 . S
C952 C953 1.385 . S
C952 C954 1.478 . S
C953 H947 0.930 . S
C953 C949 1.400 . S
C953 C952 1.385 . S
C954 C952 1.478 . S
C954 C956 1.381 . S
C954 C960 1.383 . S
C955 C951 1.495 . S
C955 H961 0.959 . S
C955 H962 0.961 . S
C955 H963 0.960 . S
C956 C954 1.381 . S
C956 C957 1.394 . S
C956 H964 0.930 . S
C957 C956 1.394 . S
C957 C958 1.383 . S
C957 H965 0.929 . S
C958 C957 1.383 . S
C958 C959 1.377 . S
C959 H943 0.930 . S
C959 C958 1.377 . S
C959 C960 1.379 . S
C960 H944 0.931 . S
C960 C954 1.383 . S
C960 C959 1.379 . S
H961 C955 0.959 . S
H962 C955 0.961 . S
H963 C955 0.960 . S
H964 C956 0.930 . S
H965 C957 0.929 . S
H966 C974 0.929 . S
H967 C976 0.930 . S
H968 C978 0.930 . S
H969 C981 0.929 . S
H970 C984 0.930 . S
H971 C986 0.960 . S
H972 C986 0.960 . S
H973 C986 0.960 . S
C974 H966 0.929 . S
C974 C975 1.377 . S
C974 C976 1.384 . S
C975 C974 1.377 . S
C975 C981 1.390 . S
C976 H967 0.930 . S
C976 C974 1.384 . S
C976 C977 1.372 . S
C977 C976 1.372 . S
C977 C978 1.400 . S
C977 C982 1.490 . S
C978 H968 0.930 . S
C978 C977 1.400 . S
C978 C981 1.386 . S
H979 C995 0.930 . S
H980 C996 0.931 . S
C981 H969 0.929 . S
C981 C975 1.390 . S
C981 C978 1.386 . S
C982 C977 1.490 . S
C982 C984 1.395 . S
C982 C985 1.403 . S
H983 C989 0.930 . S
C984 H970 0.930 . S
C984 C982 1.395 . S
C984 C987 1.403 . S
C985 C982 1.403 . S
C985 C986 1.524 . S
C985 C989 1.400 . S
C986 H971 0.960 . S
C986 H972 0.960 . S
C986 H973 0.960 . S
C986 C985 1.524 . S
C987 C984 1.403 . S
C987 C988 1.392 . S
C987 C991 1.495 . S
C988 C987 1.392 . S
C988 C989 1.385 . S
C988 C990 1.478 . S
C989 H983 0.930 . S
C989 C985 1.400 . S
C989 C988 1.385 . S
C990 C988 1.478 . S
C990 C992 1.381 . S
C990 C996 1.383 . S
C991 C987 1.495 . S
C991 H997 0.959 . S
C991 H998 0.961 . S
C991 H999 0.960 . S
C992 C990 1.381 . S
C992 C993 1.394 . S
C992 H1000 0.930 . S
C993 C992 1.394 . S
C993 C994 1.383 . S
C993 H1001 0.929 . S
C994 C993 1.383 . S
C994 C995 1.377 . S
C995 H979 0.930 . S
C995 C994 1.377 . S
C995 C996 1.379 . S
C996 H980 0.931 . S
C996 C990 1.383 . S
C996 C995 1.379 . S
H997 C991 0.959 . S
H998 C991 0.961 . S
H999 C991 0.960 . S
H1000 C992 0.930 . S
H1001 C993 0.929 . S
H1002 C1010 0.929 . S
H1003 C1012 0.930 . S
H1004 C1014 0.930 . S
H1005 C1017 0.929 . S
H1006 C1020 0.930 . S
H1007 C1022 0.960 . S
H1008 C1022 0.960 . S
H1009 C1022 0.960 . S
C1010 H1002 0.929 . S
C1010 C1011 1.377 . S
C1010 C1012 1.384 . S
C1011 C1010 1.377 . S
C1011 C1017 1.390 . S
C1012 H1003 0.930 . S
C1012 C1010 1.384 . S
C1012 C1013 1.372 . S
C1013 C1012 1.372 . S
C1013 C1014 1.400 . S
C1013 C1018 1.490 . S
C1014 H1004 0.930 . S
C1014 C1013 1.400 . S
C1014 C1017 1.386 . S
H1015 C1031 0.930 . S
H1016 C1032 0.931 . S
C1017 H1005 0.929 . S
C1017 C1011 1.390 . S
C1017 C1014 1.386 . S
C1018 C1013 1.490 . S
C1018 C1020 1.395 . S
C1018 C1021 1.403 . S
H1019 C1025 0.930 . S
C1020 H1006 0.930 . S
C1020 C1018 1.395 . S
C1020 C1023 1.403 . S
C1021 C1018 1.403 . S
C1021 C1022 1.524 . S
C1021 C1025 1.400 . S
C1022 H1007 0.960 . S
C1022 H1008 0.960 . S
C1022 H1009 0.960 . S
C1022 C1021 1.524 . S
C1023 C1020 1.403 . S
C1023 C1024 1.392 . S
C1023 C1027 1.495 . S
C1024 C1023 1.392 . S
C1024 C1025 1.385 . S
C1024 C1026 1.478 . S
C1025 H1019 0.930 . S
C1025 C1021 1.400 . S
C1025 C1024 1.385 . S
C1026 C1024 1.478 . S
C1026 C1028 1.381 . S
C1026 C1032 1.383 . S
C1027 C1023 1.495 . S
C1027 H1033 0.959 . S
C1027 H1034 0.961 . S
C1027 H1035 0.960 . S
C1028 C1026 1.381 . S
C1028 C1029 1.394 . S
C1028 H1036 0.930 . S
C1029 C1028 1.394 . S
C1029 C1030 1.383 . S
C1029 H1037 0.929 . S
C1030 C1029 1.383 . S
C1030 C1031 1.377 . S
C1031 H1015 0.930 . S
C1031 C1030 1.377 . S
C1031 C1032 1.379 . S
C1032 H1016 0.931 . S
C1032 C1026 1.383 . S
C1032 C1031 1.379 . S
H1033 C1027 0.959 . S
H1034 C1027 0.961 . S
H1035 C1027 0.960 . S
H1036 C1028 0.930 . S
H1037 C1029 0.929 . S
H1038 C1046 0.929 . S
H1039 C1048 0.930 . S
H1040 C1050 0.930 . S
H1041 C1053 0.929 . S
H1042 C1056 0.930 . S
H1043 C1058 0.960 . S
H1044 C1058 0.960 . S
H1045 C1058 0.960 . S
C1046 H1038 0.929 . S
C1046 C1047 1.377 . S
C1046 C1048 1.384 . S
C1047 C1046 1.377 . S
C1047 C1053 1.390 . S
C1048 H1039 0.930 . S
C1048 C1046 1.384 . S
C1048 C1049 1.372 . S
C1049 C1048 1.372 . S
C1049 C1050 1.400 . S
C1049 C1054 1.490 . S
C1050 H1040 0.930 . S
C1050 C1049 1.400 . S
C1050 C1053 1.386 . S
H1051 C1067 0.930 . S
H1052 C1068 0.931 . S
C1053 H1041 0.929 . S
C1053 C1047 1.390 . S
C1053 C1050 1.386 . S
C1054 C1049 1.490 . S
C1054 C1056 1.395 . S
C1054 C1057 1.403 . S
H1055 C1061 0.930 . S
C1056 H1042 0.930 . S
C1056 C1054 1.395 . S
C1056 C1059 1.403 . S
C1057 C1054 1.403 . S
C1057 C1058 1.524 . S
C1057 C1061 1.400 . S
C1058 H1043 0.960 . S
C1058 H1044 0.960 . S
C1058 H1045 0.960 . S
C1058 C1057 1.524 . S
C1059 C1056 1.403 . S
C1059 C1060 1.392 . S
C1059 C1063 1.495 . S
C1060 C1059 1.392 . S
C1060 C1061 1.385 . S
C1060 C1062 1.478 . S
C1061 H1055 0.930 . S
C1061 C1057 1.400 . S
C1061 C1060 1.385 . S
C1062 C1060 1.478 . S
C1062 C1064 1.381 . S
C1062 C1068 1.383 . S
C1063 C1059 1.495 . S
C1063 H1069 0.959 . S
C1063 H1070 0.961 . S
C1063 H1071 0.960 . S
C1064 C1062 1.381 . S
C1064 C1065 1.394 . S
C1064 H1072 0.930 . S
C1065 C1064 1.394 . S
C1065 C1066 1.383 . S
C1065 H1073 0.929 . S
C1066 C1065 1.383 . S
C1066 C1067 1.377 . S
C1067 H1051 0.930 . S
C1067 C1066 1.377 . S
C1067 C1068 1.379 . S
C1068 H1052 0.931 . S
C1068 C1062 1.383 . S
C1068 C1067 1.379 . S
H1069 C1063 0.959 . S
H1070 C1063 0.961 . S
H1071 C1063 0.960 . S
H1072 C1064 0.930 . S
H1073 C1065 0.929 . S
H1074 C1082 0.929 . S
H1075 C1084 0.930 . S
H1076 C1086 0.930 . S
H1077 C1089 0.929 . S
H1078 C1092 0.930 . S
H1079 C1094 0.960 . S
H1080 C1094 0.960 . S
H1081 C1094 0.960 . S
C1082 H1074 0.929 . S
C1082 C1083 1.377 . S
C1082 C1084 1.384 . S
C1083 C1082 1.377 . S
C1083 C1089 1.390 . S
C1084 H1075 0.930 . S
C1084 C1082 1.384 . S
C1084 C1085 1.372 . S
C1085 C1084 1.372 . S
C1085 C1086 1.400 . S
C1085 C1090 1.490 . S
C1086 H1076 0.930 . S
C1086 C1085 1.400 . S
C1086 C1089 1.386 . S
H1087 C1103 0.930 . S
H1088 C1104 0.931 . S
C1089 H1077 0.929 . S
C1089 C1083 1.390 . S
C1089 C1086 1.386 . S
C1090 C1085 1.490 . S
C1090 C1092 1.395 . S
C1090 C1093 1.403 . S
H1091 C1097 0.930 . S
C1092 H1078 0.930 . S
C1092 C1090 1.395 . S
C1092 C1095 1.403 . S
C1093 C1090 1.403 . S
C1093 C1094 1.524 . S
C1093 C1097 1.400 . S
C1094 H1079 0.960 . S
C1094 H1080 0.960 . S
C1094 H1081 0.960 . S
C1094 C1093 1.524 . S
C1095 C1092 1.403 . S
C1095 C1096 1.392 . S
C1095 C1099 1.495 . S
C1096 C1095 1.392 . S
C1096 C1097 1.385 . S
C1096 C1098 1.478 . S
C1097 H1091 0.930 . S
C1097 C1093 1.400 . S
C1097 C1096 1.385 . S
C1098 C1096 1.478 . S
C1098 C1100 1.381 . S
C1098 C1104 1.383 . S
C1099 C1095 1.495 . S
C1099 H1105 0.959 . S
C1099 H1106 0.961 . S
C1099 H1107 0.960 . S
C1100 C1098 1.381 . S
C1100 C1101 1.394 . S
C1100 H1108 0.930 . S
C1101 C1100 1.394 . S
C1101 C1102 1.383 . S
C1101 H1109 0.929 . S
C1102 C1101 1.383 . S
C1102 C1103 1.377 . S
C1103 H1087 0.930 . S
C1103 C1102 1.377 . S
C1103 C1104 1.379 . S
C1104 H1088 0.931 . S
C1104 C1098 1.383 . S
C1104 C1103 1.379 . S
H1105 C1099 0.959 . S
H1106 C1099 0.961 . S
H1107 C1099 0.960 . S
H1108 C1100 0.930 . S
H1109 C1101 0.929 . S
H1110 C1118 0.929 . S
H1111 C1120 0.930 . S
H1112 C1122 0.930 . S
H1113 C1125 0.929 . S
H1114 C1128 0.930 . S
H1115 C1130 0.960 . S
H1116 C1130 0.960 . S
H1117 C1130 0.960 . S
C1118 H1110 0.929 . S
C1118 C1119 1.377 . S
C1118 C1120 1.384 . S
C1119 C1118 1.377 . S
C1119 C1125 1.390 . S
C1120 H1111 0.930 . S
C1120 C1118 1.384 . S
C1120 C1121 1.372 . S
C1121 C1120 1.372 . S
C1121 C1122 1.400 . S
C1121 C1126 1.490 . S
C1122 H1112 0.930 . S
C1122 C1121 1.400 . S
C1122 C1125 1.386 . S
H1123 C1139 0.930 . S
H1124 C1140 0.931 . S
C1125 H1113 0.929 . S
C1125 C1119 1.390 . S
C1125 C1122 1.386 . S
C1126 C1121 1.490 . S
C1126 C1128 1.395 . S
C1126 C1129 1.403 . S
H1127 C1133 0.930 . S
C1128 H1114 0.930 . S
C1128 C1126 1.395 . S
C1128 C1131 1.403 . S
C1129 C1126 1.403 . S
C1129 C1130 1.524 . S
C1129 C1133 1.400 . S
C1130 H1115 0.960 . S
C1130 H1116 0.960 . S
C1130 H1117 0.960 . S
C1130 C1129 1.524 . S
C1131 C1128 1.403 . S
C1131 C1132 1.392 . S
C1131 C1135 1.495 . S
C1132 C1131 1.392 . S
C1132 C1133 1.385 . S
C1132 C1134 1.478 . S
C1133 H1127 0.930 . S
C1133 C1129 1.400 . S
C1133 C1132 1.385 . S
C1134 C1132 1.478 . S
C1134 C1136 1.381 . S
C1134 C1140 1.383 . S
C1135 C1131 1.495 . S
C1135 H1141 0.959 . S
C1135 H1142 0.961 . S
C1135 H1143 0.960 . S
C1136 C1134 1.381 . S
C1136 C1137 1.394 . S
C1136 H1144 0.930 . S
C1137 C1136 1.394 . S
C1137 C1138 1.383 . S
C1137 H1145 0.929 . S
C1138 C1137 1.383 . S
C1138 C1139 1.377 . S
C1139 H1123 0.930 . S
C1139 C1138 1.377 . S
C1139 C1140 1.379 . S
C1140 H1124 0.931 . S
C1140 C1134 1.383 . S
C1140 C1139 1.379 . S
H1141 C1135 0.959 . S
H1142 C1135 0.961 . S
H1143 C1135 0.960 . S
H1144 C1136 0.930 . S
H1145 C1137 0.929 . S
H1146 C1154 0.929 . S
H1147 C1156 0.930 . S
H1148 C1158 0.930 . S
H1149 C1161 0.929 . S
H1150 C1164 0.930 . S
H1151 C1166 0.960 . S
H1152 C1166 0.960 . S
H1153 C1166 0.960 . S
C1154 H1146 0.929 . S
C1154 C1155 1.377 . S
C1154 C1156 1.384 . S
C1155 C1154 1.377 . S
C1155 C1161 1.390 . S
C1156 H1147 0.930 . S
C1156 C1154 1.384 . S
C1156 C1157 1.372 . S
C1157 C1156 1.372 . S
C1157 C1158 1.400 . S
C1157 C1162 1.490 . S
C1158 H1148 0.930 . S
C1158 C1157 1.400 . S
C1158 C1161 1.386 . S
H1159 C1175 0.930 . S
H1160 C1176 0.931 . S
C1161 H1149 0.929 . S
C1161 C1155 1.390 . S
C1161 C1158 1.386 . S
C1162 C1157 1.490 . S
C1162 C1164 1.395 . S
C1162 C1165 1.403 . S
H1163 C1169 0.930 . S
C1164 H1150 0.930 . S
C1164 C1162 1.395 . S
C1164 C1167 1.403 . S
C1165 C1162 1.403 . S
C1165 C1166 1.524 . S
C1165 C1169 1.400 . S
C1166 H1151 0.960 . S
C1166 H1152 0.960 . S
C1166 H1153 0.960 . S
C1166 C1165 1.524 . S
C1167 C1164 1.403 . S
C1167 C1168 1.392 . S
C1167 C1171 1.495 . S
C1168 C1167 1.392 . S
C1168 C1169 1.385 . S
C1168 C1170 1.478 . S
C1169 H1163 0.930 . S
C1169 C1165 1.400 . S
C1169 C1168 1.385 . S
C1170 C1168 1.478 . S
C1170 C1172 1.381 . S
C1170 C1176 1.383 . S
C1171 C1167 1.495 . S
C1171 H1177 0.959 . S
C1171 H1178 0.961 . S
C1171 H1179 0.960 . S
C1172 C1170 1.381 . S
C1172 C1173 1.394 . S
C1172 H1180 0.930 . S
C1173 C1172 1.394 . S
C1173 C1174 1.383 . S
C1173 H1181 0.929 . S
C1174 C1173 1.383 . S
C1174 C1175 1.377 . S
C1175 H1159 0.930 . S
C1175 C1174 1.377 . S
C1175 C1176 1.379 . S
C1176 H1160 0.931 . S
C1176 C1170 1.383 . S
C1176 C1175 1.379 . S
H1177 C1171 0.959 . S
H1178 C1171 0.961 . S
H1179 C1171 0.960 . S
H1180 C1172 0.930 . S
H1181 C1173 0.929 . S
H1182 C1190 0.929 . S
H1183 C1192 0.930 . S
H1184 C1194 0.930 . S
H1185 C1197 0.929 . S
H1186 C1200 0.930 . S
H1187 C1202 0.960 . S
H1188 C1202 0.960 . S
H1189 C1202 0.960 . S
C1190 H1182 0.929 . S
C1190 C1191 1.377 . S
C1190 C1192 1.384 . S
C1191 C1190 1.377 . S
C1191 C1197 1.390 . S
C1192 H1183 0.930 . S
C1192 C1190 1.384 . S
C1192 C1193 1.372 . S
C1193 C1192 1.372 . S
C1193 C1194 1.400 . S
C1193 C1198 1.490 . S
C1194 H1184 0.930 . S
C1194 C1193 1.400 . S
C1194 C1197 1.386 . S
H1195 C1211 0.930 . S
H1196 C1212 0.931 . S
C1197 H1185 0.929 . S
C1197 C1191 1.390 . S
C1197 C1194 1.386 . S
C1198 C1193 1.490 . S
C1198 C1200 1.395 . S
C1198 C1201 1.403 . S
H1199 C1205 0.930 . S
C1200 H1186 0.930 . S
C1200 C1198 1.395 . S
C1200 C1203 1.403 . S
C1201 C1198 1.403 . S
C1201 C1202 1.524 . S
C1201 C1205 1.400 . S
C1202 H1187 0.960 . S
C1202 H1188 0.960 . S
C1202 H1189 0.960 . S
C1202 C1201 1.524 . S
C1203 C1200 1.403 . S
C1203 C1204 1.392 . S
C1203 C1207 1.495 . S
C1204 C1203 1.392 . S
C1204 C1205 1.385 . S
C1204 C1206 1.478 . S
C1205 H1199 0.930 . S
C1205 C1201 1.400 . S
C1205 C1204 1.385 . S
C1206 C1204 1.478 . S
C1206 C1208 1.381 . S
C1206 C1212 1.383 . S
C1207 C1203 1.495 . S
C1207 H1213 0.959 . S
C1207 H1214 0.961 . S
C1207 H1215 0.960 . S
C1208 C1206 1.381 . S
C1208 C1209 1.394 . S
C1208 H1216 0.930 . S
C1209 C1208 1.394 . S
C1209 C1210 1.383 . S
C1209 H1217 0.929 . S
C1210 C1209 1.383 . S
C1210 C1211 1.377 . S
C1211 H1195 0.930 . S
C1211 C1210 1.377 . S
C1211 C1212 1.379 . S
C1212 H1196 0.931 . S
C1212 C1206 1.383 . S
C1212 C1211 1.379 . S
H1213 C1207 0.959 . S
H1214 C1207 0.961 . S
H1215 C1207 0.960 . S
H1216 C1208 0.930 . S
H1217 C1209 0.929 . S
H1218 C1226 0.929 . S
H1219 C1228 0.930 . S
H1220 C1230 0.930 . S
H1221 C1233 0.929 . S
H1222 C1236 0.930 . S
H1223 C1238 0.960 . S
H1224 C1238 0.960 . S
H1225 C1238 0.960 . S
C1226 H1218 0.929 . S
C1226 C1227 1.377 . S
C1226 C1228 1.384 . S
C1227 C1226 1.377 . S
C1227 C1233 1.390 . S
C1228 H1219 0.930 . S
C1228 C1226 1.384 . S
C1228 C1229 1.372 . S
C1229 C1228 1.372 . S
C1229 C1230 1.400 . S
C1229 C1234 1.490 . S
C1230 H1220 0.930 . S
C1230 C1229 1.400 . S
C1230 C1233 1.386 . S
H1231 C1247 0.930 . S
H1232 C1248 0.931 . S
C1233 H1221 0.929 . S
C1233 C1227 1.390 . S
C1233 C1230 1.386 . S
C1234 C1229 1.490 . S
C1234 C1236 1.395 . S
C1234 C1237 1.403 . S
H1235 C1241 0.930 . S
C1236 H1222 0.930 . S
C1236 C1234 1.395 . S
C1236 C1239 1.403 . S
C1237 C1234 1.403 . S
C1237 C1238 1.524 . S
C1237 C1241 1.400 . S
C1238 H1223 0.960 . S
C1238 H1224 0.960 . S
C1238 H1225 0.960 . S
C1238 C1237 1.524 . S
C1239 C1236 1.403 . S
C1239 C1240 1.392 . S
C1239 C1243 1.495 . S
C1240 C1239 1.392 . S
C1240 C1241 1.385 . S
C1240 C1242 1.478 . S
C1241 H1235 0.930 . S
C1241 C1237 1.400 . S
C1241 C1240 1.385 . S
C1242 C1240 1.478 . S
C1242 C1244 1.381 . S
C1242 C1248 1.383 . S
C1243 C1239 1.495 . S
C1243 H1249 0.959 . S
C1243 H1250 0.961 . S
C1243 H1251 0.960 . S
C1244 C1242 1.381 . S
C1244 C1245 1.394 . S
C1244 H1252 0.930 . S
C1245 C1244 1.394 . S
C1245 C1246 1.383 . S
C1245 H1253 0.929 . S
C1246 C1245 1.383 . S
C1246 C1247 1.377 . S
C1247 H1231 0.930 . S
C1247 C1246 1.377 . S
C1247 C1248 1.379 . S
C1248 H1232 0.931 . S
C1248 C1242 1.383 . S
C1248 C1247 1.379 . S
H1249 C1243 0.959 . S
H1250 C1243 0.961 . S
H1251 C1243 0.960 . S
H1252 C1244 0.930 . S
H1253 C1245 0.929 . S
H1254 C1262 0.929 . S
H1255 C1264 0.930 . S
H1256 C1266 0.930 . S
H1257 C1269 0.929 . S
H1258 C1272 0.930 . S
H1259 C1274 0.960 . S
H1260 C1274 0.960 . S
H1261 C1274 0.960 . S
C1262 H1254 0.929 . S
C1262 C1263 1.377 . S
C1262 C1264 1.384 . S
C1263 C1262 1.377 . S
C1263 C1269 1.390 . S
C1264 H1255 0.930 . S
C1264 C1262 1.384 . S
C1264 C1265 1.372 . S
C1265 C1264 1.372 . S
C1265 C1266 1.400 . S
C1265 C1270 1.490 . S
C1266 H1256 0.930 . S
C1266 C1265 1.400 . S
C1266 C1269 1.386 . S
H1267 C1283 0.930 . S
H1268 C1284 0.931 . S
C1269 H1257 0.929 . S
C1269 C1263 1.390 . S
C1269 C1266 1.386 . S
C1270 C1265 1.490 . S
C1270 C1272 1.395 . S
C1270 C1273 1.403 . S
H1271 C1277 0.930 . S
C1272 H1258 0.930 . S
C1272 C1270 1.395 . S
C1272 C1275 1.403 . S
C1273 C1270 1.403 . S
C1273 C1274 1.524 . S
C1273 C1277 1.400 . S
C1274 H1259 0.960 . S
C1274 H1260 0.960 . S
C1274 H1261 0.960 . S
C1274 C1273 1.524 . S
C1275 C1272 1.403 . S
C1275 C1276 1.392 . S
C1275 C1279 1.495 . S
C1276 C1275 1.392 . S
C1276 C1277 1.385 . S
C1276 C1278 1.478 . S
C1277 H1271 0.930 . S
C1277 C1273 1.400 . S
C1277 C1276 1.385 . S
C1278 C1276 1.478 . S
C1278 C1280 1.381 . S
C1278 C1284 1.383 . S
C1279 C1275 1.495 . S
C1279 H1285 0.959 . S
C1279 H1286 0.961 . S
C1279 H1287 0.960 . S
C1280 C1278 1.381 . S
C1280 C1281 1.394 . S
C1280 H1288 0.930 . S
C1281 C1280 1.394 . S
C1281 C1282 1.383 . S
C1281 H1289 0.929 . S
C1282 C1281 1.383 . S
C1282 C1283 1.377 . S
C1283 H1267 0.930 . S
C1283 C1282 1.377 . S
C1283 C1284 1.379 . S
C1284 H1268 0.931 . S
C1284 C1278 1.383 . S
C1284 C1283 1.379 . S
H1285 C1279 0.959 . S
H1286 C1279 0.961 . S
H1287 C1279 0.960 . S
H1288 C1280 0.930 . S
H1289 C1281 0.929 . S
H1290 C1298 0.929 . S
H1291 C1300 0.930 . S
H1292 C1302 0.930 . S
H1293 C1305 0.929 . S
H1294 C1308 0.930 . S
H1295 C1310 0.960 . S
H1296 C1310 0.960 . S
H1297 C1310 0.960 . S
C1298 H1290 0.929 . S
C1298 C1299 1.377 . S
C1298 C1300 1.384 . S
C1299 C1298 1.377 . S
C1299 C1305 1.390 . S
C1300 H1291 0.930 . S
C1300 C1298 1.384 . S
C1300 C1301 1.372 . S
C1301 C1300 1.372 . S
C1301 C1302 1.400 . S
C1301 C1306 1.490 . S
C1302 H1292 0.930 . S
C1302 C1301 1.400 . S
C1302 C1305 1.386 . S
H1303 C1319 0.930 . S
H1304 C1320 0.931 . S
C1305 H1293 0.929 . S
C1305 C1299 1.390 . S
C1305 C1302 1.386 . S
C1306 C1301 1.490 . S
C1306 C1308 1.395 . S
C1306 C1309 1.403 . S
H1307 C1313 0.930 . S
C1308 H1294 0.930 . S
C1308 C1306 1.395 . S
C1308 C1311 1.403 . S
C1309 C1306 1.403 . S
C1309 C1310 1.524 . S
C1309 C1313 1.400 . S
C1310 H1295 0.960 . S
C1310 H1296 0.960 . S
C1310 H1297 0.960 . S
C1310 C1309 1.524 . S
C1311 C1308 1.403 . S
C1311 C1312 1.392 . S
C1311 C1315 1.495 . S
C1312 C1311 1.392 . S
C1312 C1313 1.385 . S
C1312 C1314 1.478 . S
C1313 H1307 0.930 . S
C1313 C1309 1.400 . S
C1313 C1312 1.385 . S
C1314 C1312 1.478 . S
C1314 C1316 1.381 . S
C1314 C1320 1.383 . S
C1315 C1311 1.495 . S
C1315 H1321 0.959 . S
C1315 H1322 0.961 . S
C1315 H1323 0.960 . S
C1316 C1314 1.381 . S
C1316 C1317 1.394 . S
C1316 H1324 0.930 . S
C1317 C1316 1.394 . S
C1317 C1318 1.383 . S
C1317 H1325 0.929 . S
C1318 C1317 1.383 . S
C1318 C1319 1.377 . S
C1319 H1303 0.930 . S
C1319 C1318 1.377 . S
C1319 C1320 1.379 . S
C1320 H1304 0.931 . S
C1320 C1314 1.383 . S
C1320 C1319 1.379 . S
H1321 C1315 0.959 . S
H1322 C1315 0.961 . S
H1323 C1315 0.960 . S
H1324 C1316 0.930 . S
H1325 C1317 0.929 . S
H1326 C1334 0.929 . S
H1327 C1336 0.930 . S
H1328 C1338 0.930 . S
H1329 C1341 0.929 . S
H1330 C1344 0.930 . S
H1331 C1346 0.960 . S
H1332 C1346 0.960 . S
H1333 C1346 0.960 . S
C1334 H1326 0.929 . S
C1334 C1335 1.377 . S
C1334 C1336 1.384 . S
C1335 C1334 1.377 . S
C1335 C1341 1.390 . S
C1336 H1327 0.930 . S
C1336 C1334 1.384 . S
C1336 C1337 1.372 . S
C1337 C1336 1.372 . S
C1337 C1338 1.400 . S
C1337 C1342 1.490 . S
C1338 H1328 0.930 . S
C1338 C1337 1.400 . S
C1338 C1341 1.386 . S
H1339 C1355 0.930 . S
H1340 C1356 0.931 . S
C1341 H1329 0.929 . S
C1341 C1335 1.390 . S
C1341 C1338 1.386 . S
C1342 C1337 1.490 . S
C1342 C1344 1.395 . S
C1342 C1345 1.403 . S
H1343 C1349 0.930 . S
C1344 H1330 0.930 . S
C1344 C1342 1.395 . S
C1344 C1347 1.403 . S
C1345 C1342 1.403 . S
C1345 C1346 1.524 . S
C1345 C1349 1.400 . S
C1346 H1331 0.960 . S
C1346 H1332 0.960 . S
C1346 H1333 0.960 . S
C1346 C1345 1.524 . S
C1347 C1344 1.403 . S
C1347 C1348 1.392 . S
C1347 C1351 1.495 . S
C1348 C1347 1.392 . S
C1348 C1349 1.385 . S
C1348 C1350 1.478 . S
C1349 H1343 0.930 . S
C1349 C1345 1.400 . S
C1349 C1348 1.385 . S
C1350 C1348 1.478 . S
C1350 C1352 1.381 . S
C1350 C1356 1.383 . S
C1351 C1347 1.495 . S
C1351 H1357 0.959 . S
C1351 H1358 0.961 . S
C1351 H1359 0.960 . S
C1352 C1350 1.381 . S
C1352 C1353 1.394 . S
C1352 H1360 0.930 . S
C1353 C1352 1.394 . S
C1353 C1354 1.383 . S
C1353 H1361 0.929 . S
C1354 C1353 1.383 . S
C1354 C1355 1.377 . S
C1355 H1339 0.930 . S
C1355 C1354 1.377 . S
C1355 C1356 1.379 . S
C1356 H1340 0.931 . S
C1356 C1350 1.383 . S
C1356 C1355 1.379 . S
H1357 C1351 0.959 . S
H1358 C1351 0.961 . S
H1359 C1351 0.960 . S
H1360 C1352 0.930 . S
H1361 C1353 0.929 . S
H1362 C1370 0.929 . S
H1363 C1372 0.930 . S
H1364 C1374 0.930 . S
H1365 C1377 0.929 . S
H1366 C1380 0.930 . S
H1367 C1382 0.960 . S
H1368 C1382 0.960 . S
H1369 C1382 0.960 . S
C1370 H1362 0.929 . S
C1370 C1371 1.377 . S
C1370 C1372 1.384 . S
C1371 C1370 1.377 . S
C1371 C1377 1.390 . S
C1372 H1363 0.930 . S
C1372 C1370 1.384 . S
C1372 C1373 1.372 . S
C1373 C1372 1.372 . S
C1373 C1374 1.400 . S
C1373 C1378 1.490 . S
C1374 H1364 0.930 . S
C1374 C1373 1.400 . S
C1374 C1377 1.386 . S
H1375 C1391 0.930 . S
H1376 C1392 0.931 . S
C1377 H1365 0.929 . S
C1377 C1371 1.390 . S
C1377 C1374 1.386 . S
C1378 C1373 1.490 . S
C1378 C1380 1.395 . S
C1378 C1381 1.403 . S
H1379 C1385 0.930 . S
C1380 H1366 0.930 . S
C1380 C1378 1.395 . S
C1380 C1383 1.403 . S
C1381 C1378 1.403 . S
C1381 C1382 1.524 . S
C1381 C1385 1.400 . S
C1382 H1367 0.960 . S
C1382 H1368 0.960 . S
C1382 H1369 0.960 . S
C1382 C1381 1.524 . S
C1383 C1380 1.403 . S
C1383 C1384 1.392 . S
C1383 C1387 1.495 . S
C1384 C1383 1.392 . S
C1384 C1385 1.385 . S
C1384 C1386 1.478 . S
C1385 H1379 0.930 . S
C1385 C1381 1.400 . S
C1385 C1384 1.385 . S
C1386 C1384 1.478 . S
C1386 C1388 1.381 . S
C1386 C1392 1.383 . S
C1387 C1383 1.495 . S
C1387 H1393 0.959 . S
C1387 H1394 0.961 . S
C1387 H1395 0.960 . S
C1388 C1386 1.381 . S
C1388 C1389 1.394 . S
C1388 H1396 0.930 . S
C1389 C1388 1.394 . S
C1389 C1390 1.383 . S
C1389 H1397 0.929 . S
C1390 C1389 1.383 . S
C1390 C1391 1.377 . S
C1391 H1375 0.930 . S
C1391 C1390 1.377 . S
C1391 C1392 1.379 . S
C1392 H1376 0.931 . S
C1392 C1386 1.383 . S
C1392 C1391 1.379 . S
H1393 C1387 0.959 . S
H1394 C1387 0.961 . S
H1395 C1387 0.960 . S
H1396 C1388 0.930 . S
H1397 C1389 0.929 . S
H1398 C1406 0.929 . S
H1399 C1408 0.930 . S
H1400 C1410 0.930 . S
H1401 C1413 0.929 . S
H1402 C1416 0.930 . S
H1403 C1418 0.960 . S
H1404 C1418 0.960 . S
H1405 C1418 0.960 . S
C1406 H1398 0.929 . S
C1406 C1407 1.377 . S
C1406 C1408 1.384 . S
C1407 C1406 1.377 . S
C1407 C1413 1.390 . S
C1408 H1399 0.930 . S
C1408 C1406 1.384 . S
C1408 C1409 1.372 . S
C1409 C1408 1.372 . S
C1409 C1410 1.400 . S
C1409 C1414 1.490 . S
C1410 H1400 0.930 . S
C1410 C1409 1.400 . S
C1410 C1413 1.386 . S
H1411 C1427 0.930 . S
H1412 C1428 0.931 . S
C1413 H1401 0.929 . S
C1413 C1407 1.390 . S
C1413 C1410 1.386 . S
C1414 C1409 1.490 . S
C1414 C1416 1.395 . S
C1414 C1417 1.403 . S
H1415 C1421 0.930 . S
C1416 H1402 0.930 . S
C1416 C1414 1.395 . S
C1416 C1419 1.403 . S
C1417 C1414 1.403 . S
C1417 C1418 1.524 . S
C1417 C1421 1.400 . S
C1418 H1403 0.960 . S
C1418 H1404 0.960 . S
C1418 H1405 0.960 . S
C1418 C1417 1.524 . S
C1419 C1416 1.403 . S
C1419 C1420 1.392 . S
C1419 C1423 1.495 . S
C1420 C1419 1.392 . S
C1420 C1421 1.385 . S
C1420 C1422 1.478 . S
C1421 H1415 0.930 . S
C1421 C1417 1.400 . S
C1421 C1420 1.385 . S
C1422 C1420 1.478 . S
C1422 C1424 1.381 . S
C1422 C1428 1.383 . S
C1423 C1419 1.495 . S
C1423 H1429 0.959 . S
C1423 H1430 0.961 . S
C1423 H1431 0.960 . S
C1424 C1422 1.381 . S
C1424 C1425 1.394 . S
C1424 H1432 0.930 . S
C1425 C1424 1.394 . S
C1425 C1426 1.383 . S
C1425 H1433 0.929 . S
C1426 C1425 1.383 . S
C1426 C1427 1.377 . S
C1427 H1411 0.930 . S
C1427 C1426 1.377 . S
C1427 C1428 1.379 . S
C1428 H1412 0.931 . S
C1428 C1422 1.383 . S
C1428 C1427 1.379 . S
H1429 C1423 0.959 . S
H1430 C1423 0.961 . S
H1431 C1423 0.960 . S
H1432 C1424 0.930 . S
H1433 C1425 0.929 . S
H1434 C1442 0.929 . S
H1435 C1444 0.930 . S
H1436 C1446 0.930 . S
H1437 C1449 0.929 . S
H1438 C1452 0.930 . S
H1439 C1454 0.960 . S
H1440 C1454 0.960 . S
H1441 C1454 0.960 . S
C1442 H1434 0.929 . S
C1442 C1443 1.377 . S
C1442 C1444 1.384 . S
C1443 C1442 1.377 . S
C1443 C1449 1.390 . S
C1444 H1435 0.930 . S
C1444 C1442 1.384 . S
C1444 C1445 1.372 . S
C1445 C1444 1.372 . S
C1445 C1446 1.400 . S
C1445 C1450 1.490 . S
C1446 H1436 0.930 . S
C1446 C1445 1.400 . S
C1446 C1449 1.386 . S
H1447 C1463 0.930 . S
H1448 C1464 0.931 . S
C1449 H1437 0.929 . S
C1449 C1443 1.390 . S
C1449 C1446 1.386 . S
C1450 C1445 1.490 . S
C1450 C1452 1.395 . S
C1450 C1453 1.403 . S
H1451 C1457 0.930 . S
C1452 H1438 0.930 . S
C1452 C1450 1.395 . S
C1452 C1455 1.403 . S
C1453 C1450 1.403 . S
C1453 C1454 1.524 . S
C1453 C1457 1.400 . S
C1454 H1439 0.960 . S
C1454 H1440 0.960 . S
C1454 H1441 0.960 . S
C1454 C1453 1.524 . S
C1455 C1452 1.403 . S
C1455 C1456 1.392 . S
C1455 C1459 1.495 . S
C1456 C1455 1.392 . S
C1456 C1457 1.385 . S
C1456 C1458 1.478 . S
C1457 H1451 0.930 . S
C1457 C1453 1.400 . S
C1457 C1456 1.385 . S
C1458 C1456 1.478 . S
C1458 C1460 1.381 . S
C1458 C1464 1.383 . S
C1459 C1455 1.495 . S
C1459 H1465 0.959 . S
C1459 H1466 0.961 . S
C1459 H1467 0.960 . S
C1460 C1458 1.381 . S
C1460 C1461 1.394 . S
C1460 H1468 0.930 . S
C1461 C1460 1.394 . S
C1461 C1462 1.383 . S
C1461 H1469 0.929 . S
C1462 C1461 1.383 . S
C1462 C1463 1.377 . S
C1463 H1447 0.930 . S
C1463 C1462 1.377 . S
C1463 C1464 1.379 . S
C1464 H1448 0.931 . S
C1464 C1458 1.383 . S
C1464 C1463 1.379 . S
H1465 C1459 0.959 . S
H1466 C1459 0.961 . S
H1467 C1459 0.960 . S
H1468 C1460 0.930 . S
H1469 C1461 0.929 . S
H1470 C1478 0.929 . S
H1471 C1480 0.930 . S
H1472 C1482 0.930 . S
H1473 C1485 0.929 . S
H1474 C1488 0.930 . S
H1475 C1490 0.960 . S
H1476 C1490 0.960 . S
H1477 C1490 0.960 . S
C1478 H1470 0.929 . S
C1478 C1479 1.377 . S
C1478 C1480 1.384 . S
C1479 C1478 1.377 . S
C1479 C1485 1.390 . S
C1480 H1471 0.930 . S
C1480 C1478 1.384 . S
C1480 C1481 1.372 . S
C1481 C1480 1.372 . S
C1481 C1482 1.400 . S
C1481 C1486 1.490 . S
C1482 H1472 0.930 . S
C1482 C1481 1.400 . S
C1482 C1485 1.386 . S
H1483 C1499 0.930 . S
H1484 C1500 0.931 . S
C1485 H1473 0.929 . S
C1485 C1479 1.390 . S
C1485 C1482 1.386 . S
C1486 C1481 1.490 . S
C1486 C1488 1.395 . S
C1486 C1489 1.403 . S
H1487 C1493 0.930 . S
C1488 H1474 0.930 . S
C1488 C1486 1.395 . S
C1488 C1491 1.403 . S
C1489 C1486 1.403 . S
C1489 C1490 1.524 . S
C1489 C1493 1.400 . S
C1490 H1475 0.960 . S
C1490 H1476 0.960 . S
C1490 H1477 0.960 . S
C1490 C1489 1.524 . S
C1491 C1488 1.403 . S
C1491 C1492 1.392 . S
C1491 C1495 1.495 . S
C1492 C1491 1.392 . S
C1492 C1493 1.385 . S
C1492 C1494 1.478 . S
C1493 H1487 0.930 . S
C1493 C1489 1.400 . S
C1493 C1492 1.385 . S
C1494 C1492 1.478 . S
C1494 C1496 1.381 . S
C1494 C1500 1.383 . S
C1495 C1491 1.495 . S
C1495 H1501 0.959 . S
C1495 H1502 0.961 . S
C1495 H1503 0.960 . S
C1496 C1494 1.381 . S
C1496 C1497 1.394 . S
C1496 H1504 0.930 . S
C1497 C1496 1.394 . S
C1497 C1498 1.383 . S
C1497 H1505 0.929 . S
C1498 C1497 1.383 . S
C1498 C1499 1.377 . S
C1499 H1483 0.930 . S
C1499 C1498 1.377 . S
C1499 C1500 1.379 . S
C1500 H1484 0.931 . S
C1500 C1494 1.383 . S
C1500 C1499 1.379 . S
H1501 C1495 0.959 . S
H1502 C1495 0.961 . S
H1503 C1495 0.960 . S
H1504 C1496 0.930 . S
H1505 C1497 0.929 . S
H1506 C1514 0.929 . S
H1507 C1516 0.930 . S
H1508 C1518 0.930 . S
H1509 C1521 0.929 . S
H1510 C1524 0.930 . S
H1511 C1526 0.960 . S
H1512 C1526 0.960 . S
H1513 C1526 0.960 . S
C1514 H1506 0.929 . S
C1514 C1515 1.377 . S
C1514 C1516 1.384 . S
C1515 C1514 1.377 . S
C1515 C1521 1.390 . S
C1516 H1507 0.930 . S
C1516 C1514 1.384 . S
C1516 C1517 1.372 . S
C1517 C1516 1.372 . S
C1517 C1518 1.400 . S
C1517 C1522 1.490 . S
C1518 H1508 0.930 . S
C1518 C1517 1.400 . S
C1518 C1521 1.386 . S
H1519 C1535 0.930 . S
H1520 C1536 0.931 . S
C1521 H1509 0.929 . S
C1521 C1515 1.390 . S
C1521 C1518 1.386 . S
C1522 C1517 1.490 . S
C1522 C1524 1.395 . S
C1522 C1525 1.403 . S
H1523 C1529 0.930 . S
C1524 H1510 0.930 . S
C1524 C1522 1.395 . S
C1524 C1527 1.403 . S
C1525 C1522 1.403 . S
C1525 C1526 1.524 . S
C1525 C1529 1.400 . S
C1526 H1511 0.960 . S
C1526 H1512 0.960 . S
C1526 H1513 0.960 . S
C1526 C1525 1.524 . S
C1527 C1524 1.403 . S
C1527 C1528 1.392 . S
C1527 C1531 1.495 . S
C1528 C1527 1.392 . S
C1528 C1529 1.385 . S
C1528 C1530 1.478 . S
C1529 H1523 0.930 . S
C1529 C1525 1.400 . S
C1529 C1528 1.385 . S
C1530 C1528 1.478 . S
C1530 C1532 1.381 . S
C1530 C1536 1.383 . S
C1531 C1527 1.495 . S
C1531 H1537 0.959 . S
C1531 H1538 0.961 . S
C1531 H1539 0.960 . S
C1532 C1530 1.381 . S
C1532 C1533 1.394 . S
C1532 H1540 0.930 . S
C1533 C1532 1.394 . S
C1533 C1534 1.383 . S
C1533 H1541 0.929 . S
C1534 C1533 1.383 . S
C1534 C1535 1.377 . S
C1535 H1519 0.930 . S
C1535 C1534 1.377 . S
C1535 C1536 1.379 . S
C1536 H1520 0.931 . S
C1536 C1530 1.383 . S
C1536 C1535 1.379 . S
H1537 C1531 0.959 . S
H1538 C1531 0.961 . S
H1539 C1531 0.960 . S
H1540 C1532 0.930 . S
H1541 C1533 0.929 . S
H1542 C1550 0.929 . S
H1543 C1552 0.930 . S
H1544 C1554 0.930 . S
H1545 C1557 0.929 . S
H1546 C1560 0.930 . S
H1547 C1562 0.960 . S
H1548 C1562 0.960 . S
H1549 C1562 0.960 . S
C1550 H1542 0.929 . S
C1550 C1551 1.377 . S
C1550 C1552 1.384 . S
C1551 C1550 1.377 . S
C1551 C1557 1.390 . S
C1552 H1543 0.930 . S
C1552 C1550 1.384 . S
C1552 C1553 1.372 . S
C1553 C1552 1.372 . S
C1553 C1554 1.400 . S
C1553 C1558 1.490 . S
C1554 H1544 0.930 . S
C1554 C1553 1.400 . S
C1554 C1557 1.386 . S
H1555 C1571 0.930 . S
H1556 C1572 0.931 . S
C1557 H1545 0.929 . S
C1557 C1551 1.390 . S
C1557 C1554 1.386 . S
C1558 C1553 1.490 . S
C1558 C1560 1.395 . S
C1558 C1561 1.403 . S
H1559 C1565 0.930 . S
C1560 H1546 0.930 . S
C1560 C1558 1.395 . S
C1560 C1563 1.403 . S
C1561 C1558 1.403 . S
C1561 C1562 1.524 . S
C1561 C1565 1.400 . S
C1562 H1547 0.960 . S
C1562 H1548 0.960 . S
C1562 H1549 0.960 . S
C1562 C1561 1.524 . S
C1563 C1560 1.403 . S
C1563 C1564 1.392 . S
C1563 C1567 1.495 . S
C1564 C1563 1.392 . S
C1564 C1565 1.385 . S
C1564 C1566 1.478 . S
C1565 H1559 0.930 . S
C1565 C1561 1.400 . S
C1565 C1564 1.385 . S
C1566 C1564 1.478 . S
C1566 C1568 1.381 . S
C1566 C1572 1.383 . S
C1567 C1563 1.495 . S
C1567 H1573 0.959 . S
C1567 H1574 0.961 . S
C1567 H1575 0.960 . S
C1568 C1566 1.381 . S
C1568 C1569 1.394 . S
C1568 H1576 0.930 . S
C1569 C1568 1.394 . S
C1569 C1570 1.383 . S
C1569 H1577 0.929 . S
C1570 C1569 1.383 . S
C1570 C1571 1.377 . S
C1571 H1555 0.930 . S
C1571 C1570 1.377 . S
C1571 C1572 1.379 . S
C1572 H1556 0.931 . S
C1572 C1566 1.383 . S
C1572 C1571 1.379 . S
H1573 C1567 0.959 . S
H1574 C1567 0.961 . S
H1575 C1567 0.960 . S
H1576 C1568 0.930 . S
H1577 C1569 0.929 . S
H1578 C1586 0.929 . S
H1579 C1588 0.930 . S
H1580 C1590 0.930 . S
H1581 C1593 0.929 . S
H1582 C1596 0.930 . S
H1583 C1598 0.960 . S
H1584 C1598 0.960 . S
H1585 C1598 0.960 . S
C1586 H1578 0.929 . S
C1586 C1587 1.377 . S
C1586 C1588 1.384 . S
C1587 C1586 1.377 . S
C1587 C1593 1.390 . S
C1588 H1579 0.930 . S
C1588 C1586 1.384 . S
C1588 C1589 1.372 . S
C1589 C1588 1.372 . S
C1589 C1590 1.400 . S
C1589 C1594 1.490 . S
C1590 H1580 0.930 . S
C1590 C1589 1.400 . S
C1590 C1593 1.386 . S
H1591 C1607 0.930 . S
H1592 C1608 0.931 . S
C1593 H1581 0.929 . S
C1593 C1587 1.390 . S
C1593 C1590 1.386 . S
C1594 C1589 1.490 . S
C1594 C1596 1.395 . S
C1594 C1597 1.403 . S
H1595 C1601 0.930 . S
C1596 H1582 0.930 . S
C1596 C1594 1.395 . S
C1596 C1599 1.403 . S
C1597 C1594 1.403 . S
C1597 C1598 1.524 . S
C1597 C1601 1.400 . S
C1598 H1583 0.960 . S
C1598 H1584 0.960 . S
C1598 H1585 0.960 . S
C1598 C1597 1.524 . S
C1599 C1596 1.403 . S
C1599 C1600 1.392 . S
C1599 C1603 1.495 . S
C1600 C1599 1.392 . S
C1600 C1601 1.385 . S
C1600 C1602 1.478 . S
C1601 H1595 0.930 . S
C1601 C1597 1.400 . S
C1601 C1600 1.385 . S
C1602 C1600 1.478 . S
C1602 C1604 1.381 . S
C1602 C1608 1.383 . S
C1603 C1599 1.495 . S
C1603 H1609 0.959 . S
C1603 H1610 0.961 . S
C1603 H1611 0.960 . S
C1604 C1602 1.381 . S
C1604 C1605 1.394 . S
C1604 H1612 0.930 . S
C1605 C1604 1.394 . S
C1605 C1606 1.383 . S
C1605 H1613 0.929 . S
C1606 C1605 1.383 . S
C1606 C1607 1.377 . S
C1607 H1591 0.930 . S
C1607 C1606 1.377 . S
C1607 C1608 1.379 . S
C1608 H1592 0.931 . S
C1608 C1602 1.383 . S
C1608 C1607 1.379 . S
H1609 C1603 0.959 . S
H1610 C1603 0.961 . S
H1611 C1603 0.960 . S
H1612 C1604 0.930 . S
H1613 C1605 0.929 . S
H1614 C1622 0.929 . S
H1615 C1624 0.930 . S
H1616 C1626 0.930 . S
H1617 C1629 0.929 . S
H1618 C1632 0.930 . S
H1619 C1634 0.960 . S
H1620 C1634 0.960 . S
H1621 C1634 0.960 . S
C1622 H1614 0.929 . S
C1622 C1623 1.377 . S
C1622 C1624 1.384 . S
C1623 C1622 1.377 . S
C1623 C1629 1.390 . S
C1624 H1615 0.930 . S
C1624 C1622 1.384 . S
C1624 C1625 1.372 . S
C1625 C1624 1.372 . S
C1625 C1626 1.400 . S
C1625 C1630 1.490 . S
C1626 H1616 0.930 . S
C1626 C1625 1.400 . S
C1626 C1629 1.386 . S
H1627 C1643 0.930 . S
H1628 C1644 0.931 . S
C1629 H1617 0.929 . S
C1629 C1623 1.390 . S
C1629 C1626 1.386 . S
C1630 C1625 1.490 . S
C1630 C1632 1.395 . S
C1630 C1633 1.403 . S
H1631 C1637 0.930 . S
C1632 H1618 0.930 . S
C1632 C1630 1.395 . S
C1632 C1635 1.403 . S
C1633 C1630 1.403 . S
C1633 C1634 1.524 . S
C1633 C1637 1.400 . S
C1634 H1619 0.960 . S
C1634 H1620 0.960 . S
C1634 H1621 0.960 . S
C1634 C1633 1.524 . S
C1635 C1632 1.403 . S
C1635 C1636 1.392 . S
C1635 C1639 1.495 . S
C1636 C1635 1.392 . S
C1636 C1637 1.385 . S
C1636 C1638 1.478 . S
C1637 H1631 0.930 . S
C1637 C1633 1.400 . S
C1637 C1636 1.385 . S
C1638 C1636 1.478 . S
C1638 C1640 1.381 . S
C1638 C1644 1.383 . S
C1639 C1635 1.495 . S
C1639 H1645 0.959 . S
C1639 H1646 0.961 . S
C1639 H1647 0.960 . S
C1640 C1638 1.381 . S
C1640 C1641 1.394 . S
C1640 H1648 0.930 . S
C1641 C1640 1.394 . S
C1641 C1642 1.383 . S
C1641 H1649 0.929 . S
C1642 C1641 1.383 . S
C1642 C1643 1.377 . S
C1643 H1627 0.930 . S
C1643 C1642 1.377 . S
C1643 C1644 1.379 . S
C1644 H1628 0.931 . S
C1644 C1638 1.383 . S
C1644 C1643 1.379 . S
H1645 C1639 0.959 . S
H1646 C1639 0.961 . S
H1647 C1639 0.960 . S
H1648 C1640 0.930 . S
H1649 C1641 0.929 . S
H1650 C1658 0.929 . S
H1651 C1660 0.930 . S
H1652 C1662 0.930 . S
H1653 C1665 0.929 . S
H1654 C1668 0.930 . S
H1655 C1670 0.960 . S
H1656 C1670 0.960 . S
H1657 C1670 0.960 . S
C1658 H1650 0.929 . S
C1658 C1659 1.377 . S
C1658 C1660 1.384 . S
C1659 C1658 1.377 . S
C1659 C1665 1.390 . S
C1660 H1651 0.930 . S
C1660 C1658 1.384 . S
C1660 C1661 1.372 . S
C1661 C1660 1.372 . S
C1661 C1662 1.400 . S
C1661 C1666 1.490 . S
C1662 H1652 0.930 . S
C1662 C1661 1.400 . S
C1662 C1665 1.386 . S
H1663 C1679 0.930 . S
H1664 C1680 0.931 . S
C1665 H1653 0.929 . S
C1665 C1659 1.390 . S
C1665 C1662 1.386 . S
C1666 C1661 1.490 . S
C1666 C1668 1.395 . S
C1666 C1669 1.403 . S
H1667 C1673 0.930 . S
C1668 H1654 0.930 . S
C1668 C1666 1.395 . S
C1668 C1671 1.403 . S
C1669 C1666 1.403 . S
C1669 C1670 1.524 . S
C1669 C1673 1.400 . S
C1670 H1655 0.960 . S
C1670 H1656 0.960 . S
C1670 H1657 0.960 . S
C1670 C1669 1.524 . S
C1671 C1668 1.403 . S
C1671 C1672 1.392 . S
C1671 C1675 1.495 . S
C1672 C1671 1.392 . S
C1672 C1673 1.385 . S
C1672 C1674 1.478 . S
C1673 H1667 0.930 . S
C1673 C1669 1.400 . S
C1673 C1672 1.385 . S
C1674 C1672 1.478 . S
C1674 C1676 1.381 . S
C1674 C1680 1.383 . S
C1675 C1671 1.495 . S
C1675 H1681 0.959 . S
C1675 H1682 0.961 . S
C1675 H1683 0.960 . S
C1676 C1674 1.381 . S
C1676 C1677 1.394 . S
C1676 H1684 0.930 . S
C1677 C1676 1.394 . S
C1677 C1678 1.383 . S
C1677 H1685 0.929 . S
C1678 C1677 1.383 . S
C1678 C1679 1.377 . S
C1679 H1663 0.930 . S
C1679 C1678 1.377 . S
C1679 C1680 1.379 . S
C1680 H1664 0.931 . S
C1680 C1674 1.383 . S
C1680 C1679 1.379 . S
H1681 C1675 0.959 . S
H1682 C1675 0.961 . S
H1683 C1675 0.960 . S
H1684 C1676 0.930 . S
H1685 C1677 0.929 . S
H1686 C1694 0.929 . S
H1687 C1696 0.930 . S
H1688 C1698 0.930 . S
H1689 C1701 0.929 . S
H1690 C1704 0.930 . S
H1691 C1706 0.960 . S
H1692 C1706 0.960 . S
H1693 C1706 0.960 . S
C1694 H1686 0.929 . S
C1694 C1695 1.377 . S
C1694 C1696 1.384 . S
C1695 C1694 1.377 . S
C1695 C1701 1.390 . S
C1696 H1687 0.930 . S
C1696 C1694 1.384 . S
C1696 C1697 1.372 . S
C1697 C1696 1.372 . S
C1697 C1698 1.400 . S
C1697 C1702 1.490 . S
C1698 H1688 0.930 . S
C1698 C1697 1.400 . S
C1698 C1701 1.386 . S
H1699 C1715 0.930 . S
H1700 C1716 0.931 . S
C1701 H1689 0.929 . S
C1701 C1695 1.390 . S
C1701 C1698 1.386 . S
C1702 C1697 1.490 . S
C1702 C1704 1.395 . S
C1702 C1705 1.403 . S
H1703 C1709 0.930 . S
C1704 H1690 0.930 . S
C1704 C1702 1.395 . S
C1704 C1707 1.403 . S
C1705 C1702 1.403 . S
C1705 C1706 1.524 . S
C1705 C1709 1.400 . S
C1706 H1691 0.960 . S
C1706 H1692 0.960 . S
C1706 H1693 0.960 . S
C1706 C1705 1.524 . S
C1707 C1704 1.403 . S
C1707 C1708 1.392 . S
C1707 C1711 1.495 . S
C1708 C1707 1.392 . S
C1708 C1709 1.385 . S
C1708 C1710 1.478 . S
C1709 H1703 0.930 . S
C1709 C1705 1.400 . S
C1709 C1708 1.385 . S
C1710 C1708 1.478 . S
C1710 C1712 1.381 . S
C1710 C1716 1.383 . S
C1711 C1707 1.495 . S
C1711 H1717 0.959 . S
C1711 H1718 0.961 . S
C1711 H1719 0.960 . S
C1712 C1710 1.381 . S
C1712 C1713 1.394 . S
C1712 H1720 0.930 . S
C1713 C1712 1.394 . S
C1713 C1714 1.383 . S
C1713 H1721 0.929 . S
C1714 C1713 1.383 . S
C1714 C1715 1.377 . S
C1715 H1699 0.930 . S
C1715 C1714 1.377 . S
C1715 C1716 1.379 . S
C1716 H1700 0.931 . S
C1716 C1710 1.383 . S
C1716 C1715 1.379 . S
H1717 C1711 0.959 . S
H1718 C1711 0.961 . S
H1719 C1711 0.960 . S
H1720 C1712 0.930 . S
H1721 C1713 0.929 . S
H1722 C1730 0.929 . S
H1723 C1732 0.930 . S
H1724 C1734 0.930 . S
H1725 C1737 0.929 . S
H1726 C1740 0.930 . S
H1727 C1742 0.960 . S
H1728 C1742 0.960 . S
H1729 C1742 0.960 . S
C1730 H1722 0.929 . S
C1730 C1731 1.377 . S
C1730 C1732 1.384 . S
C1731 C1730 1.377 . S
C1731 C1737 1.390 . S
C1732 H1723 0.930 . S
C1732 C1730 1.384 . S
C1732 C1733 1.372 . S
C1733 C1732 1.372 . S
C1733 C1734 1.400 . S
C1733 C1738 1.490 . S
C1734 H1724 0.930 . S
C1734 C1733 1.400 . S
C1734 C1737 1.386 . S
H1735 C1751 0.930 . S
H1736 C1752 0.931 . S
C1737 H1725 0.929 . S
C1737 C1731 1.390 . S
C1737 C1734 1.386 . S
C1738 C1733 1.490 . S
C1738 C1740 1.395 . S
C1738 C1741 1.403 . S
H1739 C1745 0.930 . S
C1740 H1726 0.930 . S
C1740 C1738 1.395 . S
C1740 C1743 1.403 . S
C1741 C1738 1.403 . S
C1741 C1742 1.524 . S
C1741 C1745 1.400 . S
C1742 H1727 0.960 . S
C1742 H1728 0.960 . S
C1742 H1729 0.960 . S
C1742 C1741 1.524 . S
C1743 C1740 1.403 . S
C1743 C1744 1.392 . S
C1743 C1747 1.495 . S
C1744 C1743 1.392 . S
C1744 C1745 1.385 . S
C1744 C1746 1.478 . S
C1745 H1739 0.930 . S
C1745 C1741 1.400 . S
C1745 C1744 1.385 . S
C1746 C1744 1.478 . S
C1746 C1748 1.381 . S
C1746 C1752 1.383 . S
C1747 C1743 1.495 . S
C1747 H1753 0.959 . S
C1747 H1754 0.961 . S
C1747 H1755 0.960 . S
C1748 C1746 1.381 . S
C1748 C1749 1.394 . S
C1748 H1756 0.930 . S
C1749 C1748 1.394 . S
C1749 C1750 1.383 . S
C1749 H1757 0.929 . S
C1750 C1749 1.383 . S
C1750 C1751 1.377 . S
C1751 H1735 0.930 . S
C1751 C1750 1.377 . S
C1751 C1752 1.379 . S
C1752 H1736 0.931 . S
C1752 C1746 1.383 . S
C1752 C1751 1.379 . S
H1753 C1747 0.959 . S
H1754 C1747 0.961 . S
H1755 C1747 0.960 . S
H1756 C1748 0.930 . S
H1757 C1749 0.929 . S
H1758 C1766 0.929 . S
H1759 C1768 0.930 . S
H1760 C1770 0.930 . S
H1761 C1773 0.929 . S
H1762 C1776 0.930 . S
H1763 C1778 0.960 . S
H1764 C1778 0.960 . S
H1765 C1778 0.960 . S
C1766 H1758 0.929 . S
C1766 C1767 1.377 . S
C1766 C1768 1.384 . S
C1767 C1766 1.377 . S
C1767 C1773 1.390 . S
C1768 H1759 0.930 . S
C1768 C1766 1.384 . S
C1768 C1769 1.372 . S
C1769 C1768 1.372 . S
C1769 C1770 1.400 . S
C1769 C1774 1.490 . S
C1770 H1760 0.930 . S
C1770 C1769 1.400 . S
C1770 C1773 1.386 . S
H1771 C1787 0.930 . S
H1772 C1788 0.931 . S
C1773 H1761 0.929 . S
C1773 C1767 1.390 . S
C1773 C1770 1.386 . S
C1774 C1769 1.490 . S
C1774 C1776 1.395 . S
C1774 C1777 1.403 . S
H1775 C1781 0.930 . S
C1776 H1762 0.930 . S
C1776 C1774 1.395 . S
C1776 C1779 1.403 . S
C1777 C1774 1.403 . S
C1777 C1778 1.524 . S
C1777 C1781 1.400 . S
C1778 H1763 0.960 . S
C1778 H1764 0.960 . S
C1778 H1765 0.960 . S
C1778 C1777 1.524 . S
C1779 C1776 1.403 . S
C1779 C1780 1.392 . S
C1779 C1783 1.495 . S
C1780 C1779 1.392 . S
C1780 C1781 1.385 . S
C1780 C1782 1.478 . S
C1781 H1775 0.930 . S
C1781 C1777 1.400 . S
C1781 C1780 1.385 . S
C1782 C1780 1.478 . S
C1782 C1784 1.381 . S
C1782 C1788 1.383 . S
C1783 C1779 1.495 . S
C1783 H1789 0.959 . S
C1783 H1790 0.961 . S
C1783 H1791 0.960 . S
C1784 C1782 1.381 . S
C1784 C1785 1.394 . S
C1784 H1792 0.930 . S
C1785 C1784 1.394 . S
C1785 C1786 1.383 . S
C1785 H1793 0.929 . S
C1786 C1785 1.383 . S
C1786 C1787 1.377 . S
C1787 H1771 0.930 . S
C1787 C1786 1.377 . S
C1787 C1788 1.379 . S
C1788 H1772 0.931 . S
C1788 C1782 1.383 . S
C1788 C1787 1.379 . S
H1789 C1783 0.959 . S
H1790 C1783 0.961 . S
H1791 C1783 0.960 . S
H1792 C1784 0.930 . S
H1793 C1785 0.929 . S
H1794 C1802 0.929 . S
H1795 C1804 0.930 . S
H1796 C1806 0.930 . S
H1797 C1809 0.929 . S
H1798 C1812 0.930 . S
H1799 C1814 0.960 . S
H1800 C1814 0.960 . S
H1801 C1814 0.960 . S
C1802 H1794 0.929 . S
C1802 C1803 1.377 . S
C1802 C1804 1.384 . S
C1803 C1802 1.377 . S
C1803 C1809 1.390 . S
C1804 H1795 0.930 . S
C1804 C1802 1.384 . S
C1804 C1805 1.372 . S
C1805 C1804 1.372 . S
C1805 C1806 1.400 . S
C1805 C1810 1.490 . S
C1806 H1796 0.930 . S
C1806 C1805 1.400 . S
C1806 C1809 1.386 . S
H1807 C1823 0.930 . S
H1808 C1824 0.931 . S
C1809 H1797 0.929 . S
C1809 C1803 1.390 . S
C1809 C1806 1.386 . S
C1810 C1805 1.490 . S
C1810 C1812 1.395 . S
C1810 C1813 1.403 . S
H1811 C1817 0.930 . S
C1812 H1798 0.930 . S
C1812 C1810 1.395 . S
C1812 C1815 1.403 . S
C1813 C1810 1.403 . S
C1813 C1814 1.524 . S
C1813 C1817 1.400 . S
C1814 H1799 0.960 . S
C1814 H1800 0.960 . S
C1814 H1801 0.960 . S
C1814 C1813 1.524 . S
C1815 C1812 1.403 . S
C1815 C1816 1.392 . S
C1815 C1819 1.495 . S
C1816 C1815 1.392 . S
C1816 C1817 1.385 . S
C1816 C1818 1.478 . S
C1817 H1811 0.930 . S
C1817 C1813 1.400 . S
C1817 C1816 1.385 . S
C1818 C1816 1.478 . S
C1818 C1820 1.381 . S
C1818 C1824 1.383 . S
C1819 C1815 1.495 . S
C1819 H1825 0.959 . S
C1819 H1826 0.961 . S
C1819 H1827 0.960 . S
C1820 C1818 1.381 . S
C1820 C1821 1.394 . S
C1820 H1828 0.930 . S
C1821 C1820 1.394 . S
C1821 C1822 1.383 . S
C1821 H1829 0.929 . S
C1822 C1821 1.383 . S
C1822 C1823 1.377 . S
C1823 H1807 0.930 . S
C1823 C1822 1.377 . S
C1823 C1824 1.379 . S
C1824 H1808 0.931 . S
C1824 C1818 1.383 . S
C1824 C1823 1.379 . S
H1825 C1819 0.959 . S
H1826 C1819 0.961 . S
H1827 C1819 0.960 . S
H1828 C1820 0.930 . S
H1829 C1821 0.929 . S
H1830 C1838 0.929 . S
H1831 C1840 0.930 . S
H1832 C1842 0.930 . S
H1833 C1845 0.929 . S
H1834 C1848 0.930 . S
H1835 C1850 0.960 . S
H1836 C1850 0.960 . S
H1837 C1850 0.960 . S
C1838 H1830 0.929 . S
C1838 C1839 1.377 . S
C1838 C1840 1.384 . S
C1839 C1838 1.377 . S
C1839 C1845 1.390 . S
C1840 H1831 0.930 . S
C1840 C1838 1.384 . S
C1840 C1841 1.372 . S
C1841 C1840 1.372 . S
C1841 C1842 1.400 . S
C1841 C1846 1.490 . S
C1842 H1832 0.930 . S
C1842 C1841 1.400 . S
C1842 C1845 1.386 . S
H1843 C1859 0.930 . S
H1844 C1860 0.931 . S
C1845 H1833 0.929 . S
C1845 C1839 1.390 . S
C1845 C1842 1.386 . S
C1846 C1841 1.490 . S
C1846 C1848 1.395 . S
C1846 C1849 1.403 . S
H1847 C1853 0.930 . S
C1848 H1834 0.930 . S
C1848 C1846 1.395 . S
C1848 C1851 1.403 . S
C1849 C1846 1.403 . S
C1849 C1850 1.524 . S
C1849 C1853 1.400 . S
C1850 H1835 0.960 . S
C1850 H1836 0.960 . S
C1850 H1837 0.960 . S
C1850 C1849 1.524 . S
C1851 C1848 1.403 . S
C1851 C1852 1.392 . S
C1851 C1855 1.495 . S
C1852 C1851 1.392 . S
C1852 C1853 1.385 . S
C1852 C1854 1.478 . S
C1853 H1847 0.930 . S
C1853 C1849 1.400 . S
C1853 C1852 1.385 . S
C1854 C1852 1.478 . S
C1854 C1856 1.381 . S
C1854 C1860 1.383 . S
C1855 C1851 1.495 . S
C1855 H1861 0.959 . S
C1855 H1862 0.961 . S
C1855 H1863 0.960 . S
C1856 C1854 1.381 . S
C1856 C1857 1.394 . S
C1856 H1864 0.930 . S
C1857 C1856 1.394 . S
C1857 C1858 1.383 . S
C1857 H1865 0.929 . S
C1858 C1857 1.383 . S
C1858 C1859 1.377 . S
C1859 H1843 0.930 . S
C1859 C1858 1.377 . S
C1859 C1860 1.379 . S
C1860 H1844 0.931 . S
C1860 C1854 1.383 . S
C1860 C1859 1.379 . S
H1861 C1855 0.959 . S
H1862 C1855 0.961 . S
H1863 C1855 0.960 . S
H1864 C1856 0.930 . S
H1865 C1857 0.929 . S
H1866 C1874 0.929 . S
H1867 C1876 0.930 . S
H1868 C1878 0.930 . S
H1869 C1881 0.929 . S
H1870 C1884 0.930 . S
H1871 C1886 0.960 . S
H1872 C1886 0.960 . S
H1873 C1886 0.960 . S
C1874 H1866 0.929 . S
C1874 C1875 1.377 . S
C1874 C1876 1.384 . S
C1875 C1874 1.377 . S
C1875 C1881 1.390 . S
C1876 H1867 0.930 . S
C1876 C1874 1.384 . S
C1876 C1877 1.372 . S
C1877 C1876 1.372 . S
C1877 C1878 1.400 . S
C1877 C1882 1.490 . S
C1878 H1868 0.930 . S
C1878 C1877 1.400 . S
C1878 C1881 1.386 . S
H1879 C1895 0.930 . S
H1880 C1896 0.931 . S
C1881 H1869 0.929 . S
C1881 C1875 1.390 . S
C1881 C1878 1.386 . S
C1882 C1877 1.490 . S
C1882 C1884 1.395 . S
C1882 C1885 1.403 . S
H1883 C1889 0.930 . S
C1884 H1870 0.930 . S
C1884 C1882 1.395 . S
C1884 C1887 1.403 . S
C1885 C1882 1.403 . S
C1885 C1886 1.524 . S
C1885 C1889 1.400 . S
C1886 H1871 0.960 . S
C1886 H1872 0.960 . S
C1886 H1873 0.960 . S
C1886 C1885 1.524 . S
C1887 C1884 1.403 . S
C1887 C1888 1.392 . S
C1887 C1891 1.495 . S
C1888 C1887 1.392 . S
C1888 C1889 1.385 . S
C1888 C1890 1.478 . S
C1889 H1883 0.930 . S
C1889 C1885 1.400 . S
C1889 C1888 1.385 . S
C1890 C1888 1.478 . S
C1890 C1892 1.381 . S
C1890 C1896 1.383 . S
C1891 C1887 1.495 . S
C1891 H1897 0.959 . S
C1891 H1898 0.961 . S
C1891 H1899 0.960 . S
C1892 C1890 1.381 . S
C1892 C1893 1.394 . S
C1892 H1900 0.930 . S
C1893 C1892 1.394 . S
C1893 C1894 1.383 . S
C1893 H1901 0.929 . S
C1894 C1893 1.383 . S
C1894 C1895 1.377 . S
C1895 H1879 0.930 . S
C1895 C1894 1.377 . S
C1895 C1896 1.379 . S
C1896 H1880 0.931 . S
C1896 C1890 1.383 . S
C1896 C1895 1.379 . S
H1897 C1891 0.959 . S
H1898 C1891 0.961 . S
H1899 C1891 0.960 . S
H1900 C1892 0.930 . S
H1901 C1893 0.929 . S
H1902 C1910 0.929 . S
H1903 C1912 0.930 . S
H1904 C1914 0.930 . S
H1905 C1917 0.929 . S
H1906 C1920 0.930 . S
H1907 C1922 0.960 . S
H1908 C1922 0.960 . S
H1909 C1922 0.960 . S
C1910 H1902 0.929 . S
C1910 C1911 1.377 . S
C1910 C1912 1.384 . S
C1911 C1910 1.377 . S
C1911 C1917 1.390 . S
C1912 H1903 0.930 . S
C1912 C1910 1.384 . S
C1912 C1913 1.372 . S
C1913 C1912 1.372 . S
C1913 C1914 1.400 . S
C1913 C1918 1.490 . S
C1914 H1904 0.930 . S
C1914 C1913 1.400 . S
C1914 C1917 1.386 . S
H1915 C1931 0.930 . S
H1916 C1932 0.931 . S
C1917 H1905 0.929 . S
C1917 C1911 1.390 . S
C1917 C1914 1.386 . S
C1918 C1913 1.490 . S
C1918 C1920 1.395 . S
C1918 C1921 1.403 . S
H1919 C1925 0.930 . S
C1920 H1906 0.930 . S
C1920 C1918 1.395 . S
C1920 C1923 1.403 . S
C1921 C1918 1.403 . S
C1921 C1922 1.524 . S
C1921 C1925 1.400 . S
C1922 H1907 0.960 . S
C1922 H1908 0.960 . S
C1922 H1909 0.960 . S
C1922 C1921 1.524 . S
C1923 C1920 1.403 . S
C1923 C1924 1.392 . S
C1923 C1927 1.495 . S
C1924 C1923 1.392 . S
C1924 C1925 1.385 . S
C1924 C1926 1.478 . S
C1925 H1919 0.930 . S
C1925 C1921 1.400 . S
C1925 C1924 1.385 . S
C1926 C1924 1.478 . S
C1926 C1928 1.381 . S
C1926 C1932 1.383 . S
C1927 C1923 1.495 . S
C1927 H1933 0.959 . S
C1927 H1934 0.961 . S
C1927 H1935 0.960 . S
C1928 C1926 1.381 . S
C1928 C1929 1.394 . S
C1928 H1936 0.930 . S
C1929 C1928 1.394 . S
C1929 C1930 1.383 . S
C1929 H1937 0.929 . S
C1930 C1929 1.383 . S
C1930 C1931 1.377 . S
C1931 H1915 0.930 . S
C1931 C1930 1.377 . S
C1931 C1932 1.379 . S
C1932 H1916 0.931 . S
C1932 C1926 1.383 . S
C1932 C1931 1.379 . S
H1933 C1927 0.959 . S
H1934 C1927 0.961 . S
H1935 C1927 0.960 . S
H1936 C1928 0.930 . S
H1937 C1929 0.929 . S
H1938 C1946 0.929 . S
H1939 C1948 0.930 . S
H1940 C1950 0.930 . S
H1941 C1953 0.929 . S
H1942 C1956 0.930 . S
H1943 C1958 0.960 . S
H1944 C1958 0.960 . S
H1945 C1958 0.960 . S
C1946 H1938 0.929 . S
C1946 C1947 1.377 . S
C1946 C1948 1.384 . S
C1947 C1946 1.377 . S
C1947 C1953 1.390 . S
C1948 H1939 0.930 . S
C1948 C1946 1.384 . S
C1948 C1949 1.372 . S
C1949 C1948 1.372 . S
C1949 C1950 1.400 . S
C1949 C1954 1.490 . S
C1950 H1940 0.930 . S
C1950 C1949 1.400 . S
C1950 C1953 1.386 . S
H1951 C1967 0.930 . S
H1952 C1968 0.931 . S
C1953 H1941 0.929 . S
C1953 C1947 1.390 . S
C1953 C1950 1.386 . S
C1954 C1949 1.490 . S
C1954 C1956 1.395 . S
C1954 C1957 1.403 . S
H1955 C1961 0.930 . S
C1956 H1942 0.930 . S
C1956 C1954 1.395 . S
C1956 C1959 1.403 . S
C1957 C1954 1.403 . S
C1957 C1958 1.524 . S
C1957 C1961 1.400 . S
C1958 H1943 0.960 . S
C1958 H1944 0.960 . S
C1958 H1945 0.960 . S
C1958 C1957 1.524 . S
C1959 C1956 1.403 . S
C1959 C1960 1.392 . S
C1959 C1963 1.495 . S
C1960 C1959 1.392 . S
C1960 C1961 1.385 . S
C1960 C1962 1.478 . S
C1961 H1955 0.930 . S
C1961 C1957 1.400 . S
C1961 C1960 1.385 . S
C1962 C1960 1.478 . S
C1962 C1964 1.381 . S
C1962 C1968 1.383 . S
C1963 C1959 1.495 . S
C1963 H1969 0.959 . S
C1963 H1970 0.961 . S
C1963 H1971 0.960 . S
C1964 C1962 1.381 . S
C1964 C1965 1.394 . S
C1964 H1972 0.930 . S
C1965 C1964 1.394 . S
C1965 C1966 1.383 . S
C1965 H1973 0.929 . S
C1966 C1965 1.383 . S
C1966 C1967 1.377 . S
C1967 H1951 0.930 . S
C1967 C1966 1.377 . S
C1967 C1968 1.379 . S
C1968 H1952 0.931 . S
C1968 C1962 1.383 . S
C1968 C1967 1.379 . S
H1969 C1963 0.959 . S
H1970 C1963 0.961 . S
H1971 C1963 0.960 . S
H1972 C1964 0.930 . S
H1973 C1965 0.929 . S
H1974 C1982 0.929 . S
H1975 C1984 0.930 . S
H1976 C1986 0.930 . S
H1977 C1989 0.929 . S
H1978 C1992 0.930 . S
H1979 C1994 0.960 . S
H1980 C1994 0.960 . S
H1981 C1994 0.960 . S
C1982 H1974 0.929 . S
C1982 C1983 1.377 . S
C1982 C1984 1.384 . S
C1983 C1982 1.377 . S
C1983 C1989 1.390 . S
C1984 H1975 0.930 . S
C1984 C1982 1.384 . S
C1984 C1985 1.372 . S
C1985 C1984 1.372 . S
C1985 C1986 1.400 . S
C1985 C1990 1.490 . S
C1986 H1976 0.930 . S
C1986 C1985 1.400 . S
C1986 C1989 1.386 . S
H1987 C2003 0.930 . S
H1988 C2004 0.931 . S
C1989 H1977 0.929 . S
C1989 C1983 1.390 . S
C1989 C1986 1.386 . S
C1990 C1985 1.490 . S
C1990 C1992 1.395 . S
C1990 C1993 1.403 . S
H1991 C1997 0.930 . S
C1992 H1978 0.930 . S
C1992 C1990 1.395 . S
C1992 C1995 1.403 . S
C1993 C1990 1.403 . S
C1993 C1994 1.524 . S
C1993 C1997 1.400 . S
C1994 H1979 0.960 . S
C1994 H1980 0.960 . S
C1994 H1981 0.960 . S
C1994 C1993 1.524 . S
C1995 C1992 1.403 . S
C1995 C1996 1.392 . S
C1995 C1999 1.495 . S
C1996 C1995 1.392 . S
C1996 C1997 1.385 . S
C1996 C1998 1.478 . S
C1997 H1991 0.930 . S
C1997 C1993 1.400 . S
C1997 C1996 1.385 . S
C1998 C1996 1.478 . S
C1998 C2000 1.381 . S
C1998 C2004 1.383 . S
C1999 C1995 1.495 . S
C1999 H2005 0.959 . S
C1999 H2006 0.961 . S
C1999 H2007 0.960 . S
C2000 C1998 1.381 . S
C2000 C2001 1.394 . S
C2000 H2008 0.930 . S
C2001 C2000 1.394 . S
C2001 C2002 1.383 . S
C2001 H2009 0.929 . S
C2002 C2001 1.383 . S
C2002 C2003 1.377 . S
C2003 H1987 0.930 . S
C2003 C2002 1.377 . S
C2003 C2004 1.379 . S
C2004 H1988 0.931 . S
C2004 C1998 1.383 . S
C2004 C2003 1.379 . S
H2005 C1999 0.959 . S
H2006 C1999 0.961 . S
H2007 C1999 0.960 . S
H2008 C2000 0.930 . S
H2009 C2001 0.929 . S
H2010 C2018 0.929 . S
H2011 C2020 0.930 . S
H2012 C2022 0.930 . S
H2013 C2025 0.929 . S
H2014 C2028 0.930 . S
H2015 C2030 0.960 . S
H2016 C2030 0.960 . S
H2017 C2030 0.960 . S
C2018 H2010 0.929 . S
C2018 C2019 1.377 . S
C2018 C2020 1.384 . S
C2019 C2018 1.377 . S
C2019 C2025 1.390 . S
C2020 H2011 0.930 . S
C2020 C2018 1.384 . S
C2020 C2021 1.372 . S
C2021 C2020 1.372 . S
C2021 C2022 1.400 . S
C2021 C2026 1.490 . S
C2022 H2012 0.930 . S
C2022 C2021 1.400 . S
C2022 C2025 1.386 . S
H2023 C2039 0.930 . S
H2024 C2040 0.931 . S
C2025 H2013 0.929 . S
C2025 C2019 1.390 . S
C2025 C2022 1.386 . S
C2026 C2021 1.490 . S
C2026 C2028 1.395 . S
C2026 C2029 1.403 . S
H2027 C2033 0.930 . S
C2028 H2014 0.930 . S
C2028 C2026 1.395 . S
C2028 C2031 1.403 . S
C2029 C2026 1.403 . S
C2029 C2030 1.524 . S
C2029 C2033 1.400 . S
C2030 H2015 0.960 . S
C2030 H2016 0.960 . S
C2030 H2017 0.960 . S
C2030 C2029 1.524 . S
C2031 C2028 1.403 . S
C2031 C2032 1.392 . S
C2031 C2035 1.495 . S
C2032 C2031 1.392 . S
C2032 C2033 1.385 . S
C2032 C2034 1.478 . S
C2033 H2027 0.930 . S
C2033 C2029 1.400 . S
C2033 C2032 1.385 . S
C2034 C2032 1.478 . S
C2034 C2036 1.381 . S
C2034 C2040 1.383 . S
C2035 C2031 1.495 . S
C2035 H2041 0.959 . S
C2035 H2042 0.961 . S
C2035 H2043 0.960 . S
C2036 C2034 1.381 . S
C2036 C2037 1.394 . S
C2036 H2044 0.930 . S
C2037 C2036 1.394 . S
C2037 C2038 1.383 . S
C2037 H2045 0.929 . S
C2038 C2037 1.383 . S
C2038 C2039 1.377 . S
C2039 H2023 0.930 . S
C2039 C2038 1.377 . S
C2039 C2040 1.379 . S
C2040 H2024 0.931 . S
C2040 C2034 1.383 . S
C2040 C2039 1.379 . S
H2041 C2035 0.959 . S
H2042 C2035 0.961 . S
H2043 C2035 0.960 . S
H2044 C2036 0.930 . S
H2045 C2037 0.929 . S
H2046 C2054 0.929 . S
H2047 C2056 0.930 . S
H2048 C2058 0.930 . S
H2049 C2061 0.929 . S
H2050 C2064 0.930 . S
H2051 C2066 0.960 . S
H2052 C2066 0.960 . S
H2053 C2066 0.960 . S
C2054 H2046 0.929 . S
C2054 C2055 1.377 . S
C2054 C2056 1.384 . S
C2055 C2054 1.377 . S
C2055 C2061 1.390 . S
C2056 H2047 0.930 . S
C2056 C2054 1.384 . S
C2056 C2057 1.372 . S
C2057 C2056 1.372 . S
C2057 C2058 1.400 . S
C2057 C2062 1.490 . S
C2058 H2048 0.930 . S
C2058 C2057 1.400 . S
C2058 C2061 1.386 . S
H2059 C2075 0.930 . S
H2060 C2076 0.931 . S
C2061 H2049 0.929 . S
C2061 C2055 1.390 . S
C2061 C2058 1.386 . S
C2062 C2057 1.490 . S
C2062 C2064 1.395 . S
C2062 C2065 1.403 . S
H2063 C2069 0.930 . S
C2064 H2050 0.930 . S
C2064 C2062 1.395 . S
C2064 C2067 1.403 . S
C2065 C2062 1.403 . S
C2065 C2066 1.524 . S
C2065 C2069 1.400 . S
C2066 H2051 0.960 . S
C2066 H2052 0.960 . S
C2066 H2053 0.960 . S
C2066 C2065 1.524 . S
C2067 C2064 1.403 . S
C2067 C2068 1.392 . S
C2067 C2071 1.495 . S
C2068 C2067 1.392 . S
C2068 C2069 1.385 . S
C2068 C2070 1.478 . S
C2069 H2063 0.930 . S
C2069 C2065 1.400 . S
C2069 C2068 1.385 . S
C2070 C2068 1.478 . S
C2070 C2072 1.381 . S
C2070 C2076 1.383 . S
C2071 C2067 1.495 . S
C2071 H2077 0.959 . S
C2071 H2078 0.961 . S
C2071 H2079 0.960 . S
C2072 C2070 1.381 . S
C2072 C2073 1.394 . S
C2072 H2080 0.930 . S
C2073 C2072 1.394 . S
C2073 C2074 1.383 . S
C2073 H2081 0.929 . S
C2074 C2073 1.383 . S
C2074 C2075 1.377 . S
C2075 H2059 0.930 . S
C2075 C2074 1.377 . S
C2075 C2076 1.379 . S
C2076 H2060 0.931 . S
C2076 C2070 1.383 . S
C2076 C2075 1.379 . S
H2077 C2071 0.959 . S
H2078 C2071 0.961 . S
H2079 C2071 0.960 . S
H2080 C2072 0.930 . S
H2081 C2073 0.929 . S
H2082 C2090 0.929 . S
H2083 C2092 0.930 . S
H2084 C2094 0.930 . S
H2085 C2097 0.929 . S
H2086 C2100 0.930 . S
H2087 C2102 0.960 . S
H2088 C2102 0.960 . S
H2089 C2102 0.960 . S
C2090 H2082 0.929 . S
C2090 C2091 1.377 . S
C2090 C2092 1.384 . S
C2091 C2090 1.377 . S
C2091 C2097 1.390 . S
C2092 H2083 0.930 . S
C2092 C2090 1.384 . S
C2092 C2093 1.372 . S
C2093 C2092 1.372 . S
C2093 C2094 1.400 . S
C2093 C2098 1.490 . S
C2094 H2084 0.930 . S
C2094 C2093 1.400 . S
C2094 C2097 1.386 . S
H2095 C2111 0.930 . S
H2096 C2112 0.931 . S
C2097 H2085 0.929 . S
C2097 C2091 1.390 . S
C2097 C2094 1.386 . S
C2098 C2093 1.490 . S
C2098 C2100 1.395 . S
C2098 C2101 1.403 . S
H2099 C2105 0.930 . S
C2100 H2086 0.930 . S
C2100 C2098 1.395 . S
C2100 C2103 1.403 . S
C2101 C2098 1.403 . S
C2101 C2102 1.524 . S
C2101 C2105 1.400 . S
C2102 H2087 0.960 . S
C2102 H2088 0.960 . S
C2102 H2089 0.960 . S
C2102 C2101 1.524 . S
C2103 C2100 1.403 . S
C2103 C2104 1.392 . S
C2103 C2107 1.495 . S
C2104 C2103 1.392 . S
C2104 C2105 1.385 . S
C2104 C2106 1.478 . S
C2105 H2099 0.930 . S
C2105 C2101 1.400 . S
C2105 C2104 1.385 . S
C2106 C2104 1.478 . S
C2106 C2108 1.381 . S
C2106 C2112 1.383 . S
C2107 C2103 1.495 . S
C2107 H2113 0.959 . S
C2107 H2114 0.961 . S
C2107 H2115 0.960 . S
C2108 C2106 1.381 . S
C2108 C2109 1.394 . S
C2108 H2116 0.930 . S
C2109 C2108 1.394 . S
C2109 C2110 1.383 . S
C2109 H2117 0.929 . S
C2110 C2109 1.383 . S
C2110 C2111 1.377 . S
C2111 H2095 0.930 . S
C2111 C2110 1.377 . S
C2111 C2112 1.379 . S
C2112 H2096 0.931 . S
C2112 C2106 1.383 . S
C2112 C2111 1.379 . S
H2113 C2107 0.959 . S
H2114 C2107 0.961 . S
H2115 C2107 0.960 . S
H2116 C2108 0.930 . S
H2117 C2109 0.929 . S
H2118 C2126 0.929 . S
H2119 C2128 0.930 . S
H2120 C2130 0.930 . S
H2121 C2133 0.929 . S
H2122 C2136 0.930 . S
H2123 C2138 0.960 . S
H2124 C2138 0.960 . S
H2125 C2138 0.960 . S
C2126 H2118 0.929 . S
C2126 C2127 1.377 . S
C2126 C2128 1.384 . S
C2127 C2126 1.377 . S
C2127 C2133 1.390 . S
C2128 H2119 0.930 . S
C2128 C2126 1.384 . S
C2128 C2129 1.372 . S
C2129 C2128 1.372 . S
C2129 C2130 1.400 . S
C2129 C2134 1.490 . S
C2130 H2120 0.930 . S
C2130 C2129 1.400 . S
C2130 C2133 1.386 . S
H2131 C2147 0.930 . S
H2132 C2148 0.931 . S
C2133 H2121 0.929 . S
C2133 C2127 1.390 . S
C2133 C2130 1.386 . S
C2134 C2129 1.490 . S
C2134 C2136 1.395 . S
C2134 C2137 1.403 . S
H2135 C2141 0.930 . S
C2136 H2122 0.930 . S
C2136 C2134 1.395 . S
C2136 C2139 1.403 . S
C2137 C2134 1.403 . S
C2137 C2138 1.524 . S
C2137 C2141 1.400 . S
C2138 H2123 0.960 . S
C2138 H2124 0.960 . S
C2138 H2125 0.960 . S
C2138 C2137 1.524 . S
C2139 C2136 1.403 . S
C2139 C2140 1.392 . S
C2139 C2143 1.495 . S
C2140 C2139 1.392 . S
C2140 C2141 1.385 . S
C2140 C2142 1.478 . S
C2141 H2135 0.930 . S
C2141 C2137 1.400 . S
C2141 C2140 1.385 . S
C2142 C2140 1.478 . S
C2142 C2144 1.381 . S
C2142 C2148 1.383 . S
C2143 C2139 1.495 . S
C2143 H2149 0.959 . S
C2143 H2150 0.961 . S
C2143 H2151 0.960 . S
C2144 C2142 1.381 . S
C2144 C2145 1.394 . S
C2144 H2152 0.930 . S
C2145 C2144 1.394 . S
C2145 C2146 1.383 . S
C2145 H2153 0.929 . S
C2146 C2145 1.383 . S
C2146 C2147 1.377 . S
C2147 H2131 0.930 . S
C2147 C2146 1.377 . S
C2147 C2148 1.379 . S
C2148 H2132 0.931 . S
C2148 C2142 1.383 . S
C2148 C2147 1.379 . S
H2149 C2143 0.959 . S
H2150 C2143 0.961 . S
H2151 C2143 0.960 . S
H2152 C2144 0.930 . S
H2153 C2145 0.929 . S
H2154 C2162 0.929 . S
H2155 C2164 0.930 . S
H2156 C2166 0.930 . S
H2157 C2169 0.929 . S
H2158 C2172 0.930 . S
H2159 C2174 0.960 . S
H2160 C2174 0.960 . S
H2161 C2174 0.960 . S
C2162 H2154 0.929 . S
C2162 C2163 1.377 . S
C2162 C2164 1.384 . S
C2163 C2162 1.377 . S
C2163 C2169 1.390 . S
C2164 H2155 0.930 . S
C2164 C2162 1.384 . S
C2164 C2165 1.372 . S
C2165 C2164 1.372 . S
C2165 C2166 1.400 . S
C2165 C2170 1.490 . S
C2166 H2156 0.930 . S
C2166 C2165 1.400 . S
C2166 C2169 1.386 . S
H2167 C2183 0.930 . S
H2168 C2184 0.931 . S
C2169 H2157 0.929 . S
C2169 C2163 1.390 . S
C2169 C2166 1.386 . S
C2170 C2165 1.490 . S
C2170 C2172 1.395 . S
C2170 C2173 1.403 . S
H2171 C2177 0.930 . S
C2172 H2158 0.930 . S
C2172 C2170 1.395 . S
C2172 C2175 1.403 . S
C2173 C2170 1.403 . S
C2173 C2174 1.524 . S
C2173 C2177 1.400 . S
C2174 H2159 0.960 . S
C2174 H2160 0.960 . S
C2174 H2161 0.960 . S
C2174 C2173 1.524 . S
C2175 C2172 1.403 . S
C2175 C2176 1.392 . S
C2175 C2179 1.495 . S
C2176 C2175 1.392 . S
C2176 C2177 1.385 . S
C2176 C2178 1.478 . S
C2177 H2171 0.930 . S
C2177 C2173 1.400 . S
C2177 C2176 1.385 . S
C2178 C2176 1.478 . S
C2178 C2180 1.381 . S
C2178 C2184 1.383 . S
C2179 C2175 1.495 . S
C2179 H2185 0.959 . S
C2179 H2186 0.961 . S
C2179 H2187 0.960 . S
C2180 C2178 1.381 . S
C2180 C2181 1.394 . S
C2180 H2188 0.930 . S
C2181 C2180 1.394 . S
C2181 C2182 1.383 . S
C2181 H2189 0.929 . S
C2182 C2181 1.383 . S
C2182 C2183 1.377 . S
C2183 H2167 0.930 . S
C2183 C2182 1.377 . S
C2183 C2184 1.379 . S
C2184 H2168 0.931 . S
C2184 C2178 1.383 . S
C2184 C2183 1.379 . S
H2185 C2179 0.959 . S
H2186 C2179 0.961 . S
H2187 C2179 0.960 . S
H2188 C2180 0.930 . S
H2189 C2181 0.929 . S
H2190 C2198 0.929 . S
H2191 C2200 0.930 . S
H2192 C2202 0.930 . S
H2193 C2205 0.929 . S
H2194 C2208 0.930 . S
H2195 C2210 0.960 . S
H2196 C2210 0.960 . S
H2197 C2210 0.960 . S
C2198 H2190 0.929 . S
C2198 C2199 1.377 . S
C2198 C2200 1.384 . S
C2199 C2198 1.377 . S
C2199 C2205 1.390 . S
C2200 H2191 0.930 . S
C2200 C2198 1.384 . S
C2200 C2201 1.372 . S
C2201 C2200 1.372 . S
C2201 C2202 1.400 . S
C2201 C2206 1.490 . S
C2202 H2192 0.930 . S
C2202 C2201 1.400 . S
C2202 C2205 1.386 . S
H2203 C2219 0.930 . S
H2204 C2220 0.931 . S
C2205 H2193 0.929 . S
C2205 C2199 1.390 . S
C2205 C2202 1.386 . S
C2206 C2201 1.490 . S
C2206 C2208 1.395 . S
C2206 C2209 1.403 . S
H2207 C2213 0.930 . S
C2208 H2194 0.930 . S
C2208 C2206 1.395 . S
C2208 C2211 1.403 . S
C2209 C2206 1.403 . S
C2209 C2210 1.524 . S
C2209 C2213 1.400 . S
C2210 H2195 0.960 . S
C2210 H2196 0.960 . S
C2210 H2197 0.960 . S
C2210 C2209 1.524 . S
C2211 C2208 1.403 . S
C2211 C2212 1.392 . S
C2211 C2215 1.495 . S
C2212 C2211 1.392 . S
C2212 C2213 1.385 . S
C2212 C2214 1.478 . S
C2213 H2207 0.930 . S
C2213 C2209 1.400 . S
C2213 C2212 1.385 . S
C2214 C2212 1.478 . S
C2214 C2216 1.381 . S
C2214 C2220 1.383 . S
C2215 C2211 1.495 . S
C2215 H2221 0.959 . S
C2215 H2222 0.961 . S
C2215 H2223 0.960 . S
C2216 C2214 1.381 . S
C2216 C2217 1.394 . S
C2216 H2224 0.930 . S
C2217 C2216 1.394 . S
C2217 C2218 1.383 . S
C2217 H2225 0.929 . S
C2218 C2217 1.383 . S
C2218 C2219 1.377 . S
C2219 H2203 0.930 . S
C2219 C2218 1.377 . S
C2219 C2220 1.379 . S
C2220 H2204 0.931 . S
C2220 C2214 1.383 . S
C2220 C2219 1.379 . S
H2221 C2215 0.959 . S
H2222 C2215 0.961 . S
H2223 C2215 0.960 . S
H2224 C2216 0.930 . S
H2225 C2217 0.929 . S
H2226 C2234 0.929 . S
H2227 C2236 0.930 . S
H2228 C2238 0.930 . S
H2229 C2241 0.929 . S
H2230 C2244 0.930 . S
H2231 C2246 0.960 . S
H2232 C2246 0.960 . S
H2233 C2246 0.960 . S
C2234 H2226 0.929 . S
C2234 C2235 1.377 . S
C2234 C2236 1.384 . S
C2235 C2234 1.377 . S
C2235 C2241 1.390 . S
C2236 H2227 0.930 . S
C2236 C2234 1.384 . S
C2236 C2237 1.372 . S
C2237 C2236 1.372 . S
C2237 C2238 1.400 . S
C2237 C2242 1.490 . S
C2238 H2228 0.930 . S
C2238 C2237 1.400 . S
C2238 C2241 1.386 . S
H2239 C2255 0.930 . S
H2240 C2256 0.931 . S
C2241 H2229 0.929 . S
C2241 C2235 1.390 . S
C2241 C2238 1.386 . S
C2242 C2237 1.490 . S
C2242 C2244 1.395 . S
C2242 C2245 1.403 . S
H2243 C2249 0.930 . S
C2244 H2230 0.930 . S
C2244 C2242 1.395 . S
C2244 C2247 1.403 . S
C2245 C2242 1.403 . S
C2245 C2246 1.524 . S
C2245 C2249 1.400 . S
C2246 H2231 0.960 . S
C2246 H2232 0.960 . S
C2246 H2233 0.960 . S
C2246 C2245 1.524 . S
C2247 C2244 1.403 . S
C2247 C2248 1.392 . S
C2247 C2251 1.495 . S
C2248 C2247 1.392 . S
C2248 C2249 1.385 . S
C2248 C2250 1.478 . S
C2249 H2243 0.930 . S
C2249 C2245 1.400 . S
C2249 C2248 1.385 . S
C2250 C2248 1.478 . S
C2250 C2252 1.381 . S
C2250 C2256 1.383 . S
C2251 C2247 1.495 . S
C2251 H2257 0.959 . S
C2251 H2258 0.961 . S
C2251 H2259 0.960 . S
C2252 C2250 1.381 . S
C2252 C2253 1.394 . S
C2252 H2260 0.930 . S
C2253 C2252 1.394 . S
C2253 C2254 1.383 . S
C2253 H2261 0.929 . S
C2254 C2253 1.383 . S
C2254 C2255 1.377 . S
C2255 H2239 0.930 . S
C2255 C2254 1.377 . S
C2255 C2256 1.379 . S
C2256 H2240 0.931 . S
C2256 C2250 1.383 . S
C2256 C2255 1.379 . S
H2257 C2251 0.959 . S
H2258 C2251 0.961 . S
H2259 C2251 0.960 . S
H2260 C2252 0.930 . S
H2261 C2253 0.929 . S
H2262 C2270 0.929 . S
H2263 C2272 0.930 . S
H2264 C2274 0.930 . S
H2265 C2277 0.929 . S
H2266 C2280 0.930 . S
H2267 C2282 0.960 . S
H2268 C2282 0.960 . S
H2269 C2282 0.960 . S
C2270 H2262 0.929 . S
C2270 C2271 1.377 . S
C2270 C2272 1.384 . S
C2271 C2270 1.377 . S
C2271 C2277 1.390 . S
C2272 H2263 0.930 . S
C2272 C2270 1.384 . S
C2272 C2273 1.372 . S
C2273 C2272 1.372 . S
C2273 C2274 1.400 . S
C2273 C2278 1.490 . S
C2274 H2264 0.930 . S
C2274 C2273 1.400 . S
C2274 C2277 1.386 . S
H2275 C2291 0.930 . S
H2276 C2292 0.931 . S
C2277 H2265 0.929 . S
C2277 C2271 1.390 . S
C2277 C2274 1.386 . S
C2278 C2273 1.490 . S
C2278 C2280 1.395 . S
C2278 C2281 1.403 . S
H2279 C2285 0.930 . S
C2280 H2266 0.930 . S
C2280 C2278 1.395 . S
C2280 C2283 1.403 . S
C2281 C2278 1.403 . S
C2281 C2282 1.524 . S
C2281 C2285 1.400 . S
C2282 H2267 0.960 . S
C2282 H2268 0.960 . S
C2282 H2269 0.960 . S
C2282 C2281 1.524 . S
C2283 C2280 1.403 . S
C2283 C2284 1.392 . S
C2283 C2287 1.495 . S
C2284 C2283 1.392 . S
C2284 C2285 1.385 . S
C2284 C2286 1.478 . S
C2285 H2279 0.930 . S
C2285 C2281 1.400 . S
C2285 C2284 1.385 . S
C2286 C2284 1.478 . S
C2286 C2288 1.381 . S
C2286 C2292 1.383 . S
C2287 C2283 1.495 . S
C2287 H2293 0.959 . S
C2287 H2294 0.961 . S
C2287 H2295 0.960 . S
C2288 C2286 1.381 . S
C2288 C2289 1.394 . S
C2288 H2296 0.930 . S
C2289 C2288 1.394 . S
C2289 C2290 1.383 . S
C2289 H2297 0.929 . S
C2290 C2289 1.383 . S
C2290 C2291 1.377 . S
C2291 H2275 0.930 . S
C2291 C2290 1.377 . S
C2291 C2292 1.379 . S
C2292 H2276 0.931 . S
C2292 C2286 1.383 . S
C2292 C2291 1.379 . S
H2293 C2287 0.959 . S
H2294 C2287 0.961 . S
H2295 C2287 0.960 . S
H2296 C2288 0.930 . S
H2297 C2289 0.929 . S
H2298 C2306 0.929 . S
H2299 C2308 0.930 . S
H2300 C2310 0.930 . S
H2301 C2313 0.929 . S
H2302 C2316 0.930 . S
H2303 C2318 0.960 . S
H2304 C2318 0.960 . S
H2305 C2318 0.960 . S
C2306 H2298 0.929 . S
C2306 C2307 1.377 . S
C2306 C2308 1.384 . S
C2307 C2306 1.377 . S
C2307 C2313 1.390 . S
C2308 H2299 0.930 . S
C2308 C2306 1.384 . S
C2308 C2309 1.372 . S
C2309 C2308 1.372 . S
C2309 C2310 1.400 . S
C2309 C2314 1.490 . S
C2310 H2300 0.930 . S
C2310 C2309 1.400 . S
C2310 C2313 1.386 . S
H2311 C2327 0.930 . S
H2312 C2328 0.931 . S
C2313 H2301 0.929 . S
C2313 C2307 1.390 . S
C2313 C2310 1.386 . S
C2314 C2309 1.490 . S
C2314 C2316 1.395 . S
C2314 C2317 1.403 . S
H2315 C2321 0.930 . S
C2316 H2302 0.930 . S
C2316 C2314 1.395 . S
C2316 C2319 1.403 . S
C2317 C2314 1.403 . S
C2317 C2318 1.524 . S
C2317 C2321 1.400 . S
C2318 H2303 0.960 . S
C2318 H2304 0.960 . S
C2318 H2305 0.960 . S
C2318 C2317 1.524 . S
C2319 C2316 1.403 . S
C2319 C2320 1.392 . S
C2319 C2323 1.495 . S
C2320 C2319 1.392 . S
C2320 C2321 1.385 . S
C2320 C2322 1.478 . S
C2321 H2315 0.930 . S
C2321 C2317 1.400 . S
C2321 C2320 1.385 . S
C2322 C2320 1.478 . S
C2322 C2324 1.381 . S
C2322 C2328 1.383 . S
C2323 C2319 1.495 . S
C2323 H2329 0.959 . S
C2323 H2330 0.961 . S
C2323 H2331 0.960 . S
C2324 C2322 1.381 . S
C2324 C2325 1.394 . S
C2324 H2332 0.930 . S
C2325 C2324 1.394 . S
C2325 C2326 1.383 . S
C2325 H2333 0.929 . S
C2326 C2325 1.383 . S
C2326 C2327 1.377 . S
C2327 H2311 0.930 . S
C2327 C2326 1.377 . S
C2327 C2328 1.379 . S
C2328 H2312 0.931 . S
C2328 C2322 1.383 . S
C2328 C2327 1.379 . S
H2329 C2323 0.959 . S
H2330 C2323 0.961 . S
H2331 C2323 0.960 . S
H2332 C2324 0.930 . S
H2333 C2325 0.929 . S
H2334 C2342 0.929 . S
H2335 C2344 0.930 . S
H2336 C2346 0.930 . S
H2337 C2349 0.929 . S
H2338 C2352 0.930 . S
H2339 C2354 0.960 . S
H2340 C2354 0.960 . S
H2341 C2354 0.960 . S
C2342 H2334 0.929 . S
C2342 C2343 1.377 . S
C2342 C2344 1.384 . S
C2343 C2342 1.377 . S
C2343 C2349 1.390 . S
C2344 H2335 0.930 . S
C2344 C2342 1.384 . S
C2344 C2345 1.372 . S
C2345 C2344 1.372 . S
C2345 C2346 1.400 . S
C2345 C2350 1.490 . S
C2346 H2336 0.930 . S
C2346 C2345 1.400 . S
C2346 C2349 1.386 . S
H2347 C2363 0.930 . S
H2348 C2364 0.931 . S
C2349 H2337 0.929 . S
C2349 C2343 1.390 . S
C2349 C2346 1.386 . S
C2350 C2345 1.490 . S
C2350 C2352 1.395 . S
C2350 C2353 1.403 . S
H2351 C2357 0.930 . S
C2352 H2338 0.930 . S
C2352 C2350 1.395 . S
C2352 C2355 1.403 . S
C2353 C2350 1.403 . S
C2353 C2354 1.524 . S
C2353 C2357 1.400 . S
C2354 H2339 0.960 . S
C2354 H2340 0.960 . S
C2354 H2341 0.960 . S
C2354 C2353 1.524 . S
C2355 C2352 1.403 . S
C2355 C2356 1.392 . S
C2355 C2359 1.495 . S
C2356 C2355 1.392 . S
C2356 C2357 1.385 . S
C2356 C2358 1.478 . S
C2357 H2351 0.930 . S
C2357 C2353 1.400 . S
C2357 C2356 1.385 . S
C2358 C2356 1.478 . S
C2358 C2360 1.381 . S
C2358 C2364 1.383 . S
C2359 C2355 1.495 . S
C2359 H2365 0.959 . S
C2359 H2366 0.961 . S
C2359 H2367 0.960 . S
C2360 C2358 1.381 . S
C2360 C2361 1.394 . S
C2360 H2368 0.930 . S
C2361 C2360 1.394 . S
C2361 C2362 1.383 . S
C2361 H2369 0.929 . S
C2362 C2361 1.383 . S
C2362 C2363 1.377 . S
C2363 H2347 0.930 . S
C2363 C2362 1.377 . S
C2363 C2364 1.379 . S
C2364 H2348 0.931 . S
C2364 C2358 1.383 . S
C2364 C2363 1.379 . S
H2365 C2359 0.959 . S
H2366 C2359 0.961 . S
H2367 C2359 0.960 . S
H2368 C2360 0.930 . S
H2369 C2361 0.929 . S
H2370 C2378 0.929 . S
H2371 C2380 0.930 . S
H2372 C2382 0.930 . S
H2373 C2385 0.929 . S
H2374 C2388 0.930 . S
H2375 C2390 0.960 . S
H2376 C2390 0.960 . S
H2377 C2390 0.960 . S
C2378 H2370 0.929 . S
C2378 C2379 1.377 . S
C2378 C2380 1.384 . S
C2379 C2378 1.377 . S
C2379 C2385 1.390 . S
C2380 H2371 0.930 . S
C2380 C2378 1.384 . S
C2380 C2381 1.372 . S
C2381 C2380 1.372 . S
C2381 C2382 1.400 . S
C2381 C2386 1.490 . S
C2382 H2372 0.930 . S
C2382 C2381 1.400 . S
C2382 C2385 1.386 . S
H2383 C2399 0.930 . S
H2384 C2400 0.931 . S
C2385 H2373 0.929 . S
C2385 C2379 1.390 . S
C2385 C2382 1.386 . S
C2386 C2381 1.490 . S
C2386 C2388 1.395 . S
C2386 C2389 1.403 . S
H2387 C2393 0.930 . S
C2388 H2374 0.930 . S
C2388 C2386 1.395 . S
C2388 C2391 1.403 . S
C2389 C2386 1.403 . S
C2389 C2390 1.524 . S
C2389 C2393 1.400 . S
C2390 H2375 0.960 . S
C2390 H2376 0.960 . S
C2390 H2377 0.960 . S
C2390 C2389 1.524 . S
C2391 C2388 1.403 . S
C2391 C2392 1.392 . S
C2391 C2395 1.495 . S
C2392 C2391 1.392 . S
C2392 C2393 1.385 . S
C2392 C2394 1.478 . S
C2393 H2387 0.930 . S
C2393 C2389 1.400 . S
C2393 C2392 1.385 . S
C2394 C2392 1.478 . S
C2394 C2396 1.381 . S
C2394 C2400 1.383 . S
C2395 C2391 1.495 . S
C2395 H2401 0.959 . S
C2395 H2402 0.961 . S
C2395 H2403 0.960 . S
C2396 C2394 1.381 . S
C2396 C2397 1.394 . S
C2396 H2404 0.930 . S
C2397 C2396 1.394 . S
C2397 C2398 1.383 . S
C2397 H2405 0.929 . S
C2398 C2397 1.383 . S
C2398 C2399 1.377 . S
C2399 H2383 0.930 . S
C2399 C2398 1.377 . S
C2399 C2400 1.379 . S
C2400 H2384 0.931 . S
C2400 C2394 1.383 . S
C2400 C2399 1.379 . S
H2401 C2395 0.959 . S
H2402 C2395 0.961 . S
H2403 C2395 0.960 . S
H2404 C2396 0.930 . S
H2405 C2397 0.929 . S
H2406 C2414 0.929 . S
H2407 C2416 0.930 . S
H2408 C2418 0.930 . S
H2409 C2421 0.929 . S
H2410 C2424 0.930 . S
H2411 C2426 0.960 . S
H2412 C2426 0.960 . S
H2413 C2426 0.960 . S
C2414 H2406 0.929 . S
C2414 C2415 1.377 . S
C2414 C2416 1.384 . S
C2415 C2414 1.377 . S
C2415 C2421 1.390 . S
C2416 H2407 0.930 . S
C2416 C2414 1.384 . S
C2416 C2417 1.372 . S
C2417 C2416 1.372 . S
C2417 C2418 1.400 . S
C2417 C2422 1.490 . S
C2418 H2408 0.930 . S
C2418 C2417 1.400 . S
C2418 C2421 1.386 . S
H2419 C2435 0.930 . S
H2420 C2436 0.931 . S
C2421 H2409 0.929 . S
C2421 C2415 1.390 . S
C2421 C2418 1.386 . S
C2422 C2417 1.490 . S
C2422 C2424 1.395 . S
C2422 C2425 1.403 . S
H2423 C2429 0.930 . S
C2424 H2410 0.930 . S
C2424 C2422 1.395 . S
C2424 C2427 1.403 . S
C2425 C2422 1.403 . S
C2425 C2426 1.524 . S
C2425 C2429 1.400 . S
C2426 H2411 0.960 . S
C2426 H2412 0.960 . S
C2426 H2413 0.960 . S
C2426 C2425 1.524 . S
C2427 C2424 1.403 . S
C2427 C2428 1.392 . S
C2427 C2431 1.495 . S
C2428 C2427 1.392 . S
C2428 C2429 1.385 . S
C2428 C2430 1.478 . S
C2429 H2423 0.930 . S
C2429 C2425 1.400 . S
C2429 C2428 1.385 . S
C2430 C2428 1.478 . S
C2430 C2432 1.381 . S
C2430 C2436 1.383 . S
C2431 C2427 1.495 . S
C2431 H2437 0.959 . S
C2431 H2438 0.961 . S
C2431 H2439 0.960 . S
C2432 C2430 1.381 . S
C2432 C2433 1.394 . S
C2432 H2440 0.930 . S
C2433 C2432 1.394 . S
C2433 C2434 1.383 . S
C2433 H2441 0.929 . S
C2434 C2433 1.383 . S
C2434 C2435 1.377 . S
C2435 H2419 0.930 . S
C2435 C2434 1.377 . S
C2435 C2436 1.379 . S
C2436 H2420 0.931 . S
C2436 C2430 1.383 . S
C2436 C2435 1.379 . S
H2437 C2431 0.959 . S
H2438 C2431 0.961 . S
H2439 C2431 0.960 . S
H2440 C2432 0.930 . S
H2441 C2433 0.929 . S
H2442 C2450 0.929 . S
H2443 C2452 0.930 . S
H2444 C2454 0.930 . S
H2445 C2457 0.929 . S
H2446 C2460 0.930 . S
H2447 C2462 0.960 . S
H2448 C2462 0.960 . S
H2449 C2462 0.960 . S
C2450 H2442 0.929 . S
C2450 C2451 1.377 . S
C2450 C2452 1.384 . S
C2451 C2450 1.377 . S
C2451 C2457 1.390 . S
C2452 H2443 0.930 . S
C2452 C2450 1.384 . S
C2452 C2453 1.372 . S
C2453 C2452 1.372 . S
C2453 C2454 1.400 . S
C2453 C2458 1.490 . S
C2454 H2444 0.930 . S
C2454 C2453 1.400 . S
C2454 C2457 1.386 . S
H2455 C2471 0.930 . S
H2456 C2472 0.931 . S
C2457 H2445 0.929 . S
C2457 C2451 1.390 . S
C2457 C2454 1.386 . S
C2458 C2453 1.490 . S
C2458 C2460 1.395 . S
C2458 C2461 1.403 . S
H2459 C2465 0.930 . S
C2460 H2446 0.930 . S
C2460 C2458 1.395 . S
C2460 C2463 1.403 . S
C2461 C2458 1.403 . S
C2461 C2462 1.524 . S
C2461 C2465 1.400 . S
C2462 H2447 0.960 . S
C2462 H2448 0.960 . S
C2462 H2449 0.960 . S
C2462 C2461 1.524 . S
C2463 C2460 1.403 . S
C2463 C2464 1.392 . S
C2463 C2467 1.495 . S
C2464 C2463 1.392 . S
C2464 C2465 1.385 . S
C2464 C2466 1.478 . S
C2465 H2459 0.930 . S
C2465 C2461 1.400 . S
C2465 C2464 1.385 . S
C2466 C2464 1.478 . S
C2466 C2468 1.381 . S
C2466 C2472 1.383 . S
C2467 C2463 1.495 . S
C2467 H2473 0.959 . S
C2467 H2474 0.961 . S
C2467 H2475 0.960 . S
C2468 C2466 1.381 . S
C2468 C2469 1.394 . S
C2468 H2476 0.930 . S
C2469 C2468 1.394 . S
C2469 C2470 1.383 . S
C2469 H2477 0.929 . S
C2470 C2469 1.383 . S
C2470 C2471 1.377 . S
C2471 H2455 0.930 . S
C2471 C2470 1.377 . S
C2471 C2472 1.379 . S
C2472 H2456 0.931 . S
C2472 C2466 1.383 . S
C2472 C2471 1.379 . S
H2473 C2467 0.959 . S
H2474 C2467 0.961 . S
H2475 C2467 0.960 . S
H2476 C2468 0.930 . S
H2477 C2469 0.929 . S
H2478 C2486 0.929 . S
H2479 C2488 0.930 . S
H2480 C2490 0.930 . S
H2481 C2493 0.929 . S
H2482 C2496 0.930 . S
H2483 C2498 0.960 . S
H2484 C2498 0.960 . S
H2485 C2498 0.960 . S
C2486 H2478 0.929 . S
C2486 C2487 1.377 . S
C2486 C2488 1.384 . S
C2487 C2486 1.377 . S
C2487 C2493 1.390 . S
C2488 H2479 0.930 . S
C2488 C2486 1.384 . S
C2488 C2489 1.372 . S
C2489 C2488 1.372 . S
C2489 C2490 1.400 . S
C2489 C2494 1.490 . S
C2490 H2480 0.930 . S
C2490 C2489 1.400 . S
C2490 C2493 1.386 . S
H2491 C2507 0.930 . S
H2492 C2508 0.931 . S
C2493 H2481 0.929 . S
C2493 C2487 1.390 . S
C2493 C2490 1.386 . S
C2494 C2489 1.490 . S
C2494 C2496 1.395 . S
C2494 C2497 1.403 . S
H2495 C2501 0.930 . S
C2496 H2482 0.930 . S
C2496 C2494 1.395 . S
C2496 C2499 1.403 . S
C2497 C2494 1.403 . S
C2497 C2498 1.524 . S
C2497 C2501 1.400 . S
C2498 H2483 0.960 . S
C2498 H2484 0.960 . S
C2498 H2485 0.960 . S
C2498 C2497 1.524 . S
C2499 C2496 1.403 . S
C2499 C2500 1.392 . S
C2499 C2503 1.495 . S
C2500 C2499 1.392 . S
C2500 C2501 1.385 . S
C2500 C2502 1.478 . S
C2501 H2495 0.930 . S
C2501 C2497 1.400 . S
C2501 C2500 1.385 . S
C2502 C2500 1.478 . S
C2502 C2504 1.381 . S
C2502 C2508 1.383 . S
C2503 C2499 1.495 . S
C2503 H2509 0.959 . S
C2503 H2510 0.961 . S
C2503 H2511 0.960 . S
C2504 C2502 1.381 . S
C2504 C2505 1.394 . S
C2504 H2512 0.930 . S
C2505 C2504 1.394 . S
C2505 C2506 1.383 . S
C2505 H2513 0.929 . S
C2506 C2505 1.383 . S
C2506 C2507 1.377 . S
C2507 H2491 0.930 . S
C2507 C2506 1.377 . S
C2507 C2508 1.379 . S
C2508 H2492 0.931 . S
C2508 C2502 1.383 . S
C2508 C2507 1.379 . S
H2509 C2503 0.959 . S
H2510 C2503 0.961 . S
H2511 C2503 0.960 . S
H2512 C2504 0.930 . S
H2513 C2505 0.929 . S
H2514 C2522 0.929 . S
H2515 C2524 0.930 . S
H2516 C2526 0.930 . S
H2517 C2529 0.929 . S
H2518 C2532 0.930 . S
H2519 C2534 0.960 . S
H2520 C2534 0.960 . S
H2521 C2534 0.960 . S
C2522 H2514 0.929 . S
C2522 C2523 1.377 . S
C2522 C2524 1.384 . S
C2523 C2522 1.377 . S
C2523 C2529 1.390 . S
C2524 H2515 0.930 . S
C2524 C2522 1.384 . S
C2524 C2525 1.372 . S
C2525 C2524 1.372 . S
C2525 C2526 1.400 . S
C2525 C2530 1.490 . S
C2526 H2516 0.930 . S
C2526 C2525 1.400 . S
C2526 C2529 1.386 . S
H2527 C2543 0.930 . S
H2528 C2544 0.931 . S
C2529 H2517 0.929 . S
C2529 C2523 1.390 . S
C2529 C2526 1.386 . S
C2530 C2525 1.490 . S
C2530 C2532 1.395 . S
C2530 C2533 1.403 . S
H2531 C2537 0.930 . S
C2532 H2518 0.930 . S
C2532 C2530 1.395 . S
C2532 C2535 1.403 . S
C2533 C2530 1.403 . S
C2533 C2534 1.524 . S
C2533 C2537 1.400 . S
C2534 H2519 0.960 . S
C2534 H2520 0.960 . S
C2534 H2521 0.960 . S
C2534 C2533 1.524 . S
C2535 C2532 1.403 . S
C2535 C2536 1.392 . S
C2535 C2539 1.495 . S
C2536 C2535 1.392 . S
C2536 C2537 1.385 . S
C2536 C2538 1.478 . S
C2537 H2531 0.930 . S
C2537 C2533 1.400 . S
C2537 C2536 1.385 . S
C2538 C2536 1.478 . S
C2538 C2540 1.381 . S
C2538 C2544 1.383 . S
C2539 C2535 1.495 . S
C2539 H2545 0.959 . S
C2539 H2546 0.961 . S
C2539 H2547 0.960 . S
C2540 C2538 1.381 . S
C2540 C2541 1.394 . S
C2540 H2548 0.930 . S
C2541 C2540 1.394 . S
C2541 C2542 1.383 . S
C2541 H2549 0.929 . S
C2542 C2541 1.383 . S
C2542 C2543 1.377 . S
C2543 H2527 0.930 . S
C2543 C2542 1.377 . S
C2543 C2544 1.379 . S
C2544 H2528 0.931 . S
C2544 C2538 1.383 . S
C2544 C2543 1.379 . S
H2545 C2539 0.959 . S
H2546 C2539 0.961 . S
H2547 C2539 0.960 . S
H2548 C2540 0.930 . S
H2549 C2541 0.929 . S
H2550 C2558 0.929 . S
H2551 C2560 0.930 . S
H2552 C2562 0.930 . S
H2553 C2565 0.929 . S
H2554 C2568 0.930 . S
H2555 C2570 0.960 . S
H2556 C2570 0.960 . S
H2557 C2570 0.960 . S
C2558 H2550 0.929 . S
C2558 C2559 1.377 . S
C2558 C2560 1.384 . S
C2559 C2558 1.377 . S
C2559 C2565 1.390 . S
C2560 H2551 0.930 . S
C2560 C2558 1.384 . S
C2560 C2561 1.372 . S
C2561 C2560 1.372 . S
C2561 C2562 1.400 . S
C2561 C2566 1.490 . S
C2562 H2552 0.930 . S
C2562 C2561 1.400 . S
C2562 C2565 1.386 . S
H2563 C2579 0.930 . S
H2564 C2580 0.931 . S
C2565 H2553 0.929 . S
C2565 C2559 1.390 . S
C2565 C2562 1.386 . S
C2566 C2561 1.490 . S
C2566 C2568 1.395 . S
C2566 C2569 1.403 . S
H2567 C2573 0.930 . S
C2568 H2554 0.930 . S
C2568 C2566 1.395 . S
C2568 C2571 1.403 . S
C2569 C2566 1.403 . S
C2569 C2570 1.524 . S
C2569 C2573 1.400 . S
C2570 H2555 0.960 . S
C2570 H2556 0.960 . S
C2570 H2557 0.960 . S
C2570 C2569 1.524 . S
C2571 C2568 1.403 . S
C2571 C2572 1.392 . S
C2571 C2575 1.495 . S
C2572 C2571 1.392 . S
C2572 C2573 1.385 . S
C2572 C2574 1.478 . S
C2573 H2567 0.930 . S
C2573 C2569 1.400 . S
C2573 C2572 1.385 . S
C2574 C2572 1.478 . S
C2574 C2576 1.381 . S
C2574 C2580 1.383 . S
C2575 C2571 1.495 . S
C2575 H2581 0.959 . S
C2575 H2582 0.961 . S
C2575 H2583 0.960 . S
C2576 C2574 1.381 . S
C2576 C2577 1.394 . S
C2576 H2584 0.930 . S
C2577 C2576 1.394 . S
C2577 C2578 1.383 . S
C2577 H2585 0.929 . S
C2578 C2577 1.383 . S
C2578 C2579 1.377 . S
C2579 H2563 0.930 . S
C2579 C2578 1.377 . S
C2579 C2580 1.379 . S
C2580 H2564 0.931 . S
C2580 C2574 1.383 . S
C2580 C2579 1.379 . S
H2581 C2575 0.959 . S
H2582 C2575 0.961 . S
H2583 C2575 0.960 . S
H2584 C2576 0.930 . S
H2585 C2577 0.929 . S
C886 C683 1.587 . S
C867 C74 1.565 . S
C922 C673 1.504 . S
C903 C153 1.400 . S
C958 C674 1.087 . S
C939 C231 1.081 . S
C975 C310 0.725 . S
C994 C696 0.501 . S
C1011 C394 1.407 . S
C1030 C699 1.490 . S
C1066 C682 1.047 . S
C1047 C494 1.082 . S
C1083 C573 0.740 . S
C1102 C672 0.500 . S
C1119 C651 1.575 . S
C1138 C690 1.592 . S
C1174 C703 2.473 . S
C1155 C56 2.569 . S
C1191 C151 1.540 . S
C1210 C752 1.507 . S
C1246 C730 1.527 . S
C1227 C237 1.452 . S
C1282 C744 1.090 . S
C1263 C326 1.064 . S
C1299 C410 1.068 . S
C1318 C705 1.041 . S
C1354 C758 2.470 . S
C1335 C476 2.574 . S
C1371 C571 1.540 . S
C1390 C714 1.476 . S
C1407 C657 1.422 . S
C1426 C735 1.518 . S
C1443 C58 1.412 . S
C1462 C761 1.508 . S
C1479 C392 1.539 . S
C1498 C745 1.518 . S
C1534 C704 1.513 . S
C1515 C478 1.449 . S
C1570 C736 1.079 . S
C1551 C567 1.066 . S
C1587 C655 2.572 . S
C1606 C727 2.500 . S
C1623 C235 2.575 . S
C1642 C734 2.489 . S
C1678 C721 1.473 . S
C1659 C308 1.540 . S
C1695 C147 1.064 . S
C1714 C713 1.067 . S
C1731 C662 1.573 . S
C1750 C776 1.584 . S
C1767 C405 1.415 . S
C1786 C766 1.481 . S
C1822 C767 1.086 . S
C1803 C483 1.086 . S
C1858 C789 0.578 . S
C1839 C562 0.741 . S
C1875 C142 1.399 . S
C1894 C792 1.464 . S
C1930 C775 1.090 . S
C1911 C242 1.071 . S
C1947 C321 0.741 . S
C1966 C765 0.428 . S
C1983 C63 1.566 . S
C2002 C783 1.547 . S
C2019 C644 2.572 . S
C2038 C796 2.493 . S
C2074 C845 1.499 . S
C2055 C403 1.540 . S
C2091 C489 1.449 . S
C2110 C823 1.499 . S
C2127 C578 1.066 . S
C2146 C837 1.086 . S
C2182 C798 1.084 . S
C2163 C158 1.068 . S
C2199 C224 2.575 . S
C2218 C851 2.494 . S
C2254 C807 1.475 . S
C2235 C319 1.540 . S
C2290 C828 1.483 . S
C2271 C69 1.410 . S
C2326 C854 1.473 . S
C2307 C646 1.424 . S
C2343 C140 1.539 . S
C2362 C838 1.514 . S
C2379 C226 1.442 . S
C2398 C797 1.507 . S
C2434 C829 1.089 . S
C2415 C315 1.058 . S
C2451 C67 2.571 . S
C2470 C820 2.482 . S
C2487 C487 2.575 . S
C2506 C827 2.495 . S
C2542 C814 1.485 . S
C2523 C560 1.540 . S
C2578 C806 1.045 . S
C2559 C399 1.060 . S
