# Generated by pormake.
# Topology ocu, (6,8)-cn, num edge types: 1
# Building blocks:
#     Node 0, Type 0, BuildingBlock: CUWYAW_clean_sbu_0, # of connection points: 6
#     Node 1, Type 0, BuildingBlock: CUWYAW_clean_sbu_0, # of connection points: 6
#     Node 2, Type 0, BuildingBlock: CUWYAW_clean_sbu_0, # of connection points: 6
#     Node 3, Type 0, BuildingBlock: CUWYAW_clean_sbu_0, # of connection points: 6
#     Node 4, Type 0, BuildingBlock: CUWYAW_clean_sbu_0, # of connection points: 6
#     Node 5, Type 0, BuildingBlock: CUWYAW_clean_sbu_0, # of connection points: 6
#     Node 6, Type 0, BuildingBlock: CUWYAW_clean_sbu_0, # of connection points: 6
#     Node 7, Type 0, BuildingBlock: CUWYAW_clean_sbu_0, # of connection points: 6
#     Node 8, Type 1, BuildingBlock: GIZVER_clean_sbu_0, # of connection points: 8
#     Node 9, Type 1, BuildingBlock: GIZVER_clean_sbu_0, # of connection points: 8
#     Node 10, Type 1, BuildingBlock: GIZVER_clean_sbu_0, # of connection points: 8
#     Node 11, Type 1, BuildingBlock: GIZVER_clean_sbu_0, # of connection points: 8
#     Node 12, Type 1, BuildingBlock: GIZVER_clean_sbu_0, # of connection points: 8
#     Node 13, Type 1, BuildingBlock: GIZVER_clean_sbu_0, # of connection points: 8
#     Edge 14, Type (0, 1), BuildingBlock: UVAHIK_clean_linker_0, # of connection points: 2
#     Edge 15, Type (0, 1), BuildingBlock: UVAHIK_clean_linker_0, # of connection points: 2
#     Edge 16, Type (0, 1), BuildingBlock: UVAHIK_clean_linker_0, # of connection points: 2
#     Edge 17, Type (0, 1), BuildingBlock: UVAHIK_clean_linker_0, # of connection points: 2
#     Edge 18, Type (0, 1), BuildingBlock: UVAHIK_clean_linker_0, # of connection points: 2
#     Edge 19, Type (0, 1), BuildingBlock: UVAHIK_clean_linker_0, # of connection points: 2
#     Edge 20, Type (0, 1), BuildingBlock: UVAHIK_clean_linker_0, # of connection points: 2
#     Edge 21, Type (0, 1), BuildingBlock: UVAHIK_clean_linker_0, # of connection points: 2
#     Edge 22, Type (0, 1), BuildingBlock: UVAHIK_clean_linker_0, # of connection points: 2
#     Edge 23, Type (0, 1), BuildingBlock: UVAHIK_clean_linker_0, # of connection points: 2
#     Edge 24, Type (0, 1), BuildingBlock: UVAHIK_clean_linker_0, # of connection points: 2
#     Edge 25, Type (0, 1), BuildingBlock: UVAHIK_clean_linker_0, # of connection points: 2
#     Edge 26, Type (0, 1), BuildingBlock: UVAHIK_clean_linker_0, # of connection points: 2
#     Edge 27, Type (0, 1), BuildingBlock: UVAHIK_clean_linker_0, # of connection points: 2
#     Edge 28, Type (0, 1), BuildingBlock: UVAHIK_clean_linker_0, # of connection points: 2
#     Edge 29, Type (0, 1), BuildingBlock: UVAHIK_clean_linker_0, # of connection points: 2
#     Edge 30, Type (0, 1), BuildingBlock: UVAHIK_clean_linker_0, # of connection points: 2
#     Edge 31, Type (0, 1), BuildingBlock: UVAHIK_clean_linker_0, # of connection points: 2
#     Edge 32, Type (0, 1), BuildingBlock: UVAHIK_clean_linker_0, # of connection points: 2
#     Edge 33, Type (0, 1), BuildingBlock: UVAHIK_clean_linker_0, # of connection points: 2
#     Edge 34, Type (0, 1), BuildingBlock: UVAHIK_clean_linker_0, # of connection points: 2
#     Edge 35, Type (0, 1), BuildingBlock: UVAHIK_clean_linker_0, # of connection points: 2
#     Edge 36, Type (0, 1), BuildingBlock: UVAHIK_clean_linker_0, # of connection points: 2
#     Edge 37, Type (0, 1), BuildingBlock: UVAHIK_clean_linker_0, # of connection points: 2
#     Edge 38, Type (0, 1), BuildingBlock: UVAHIK_clean_linker_0, # of connection points: 2
#     Edge 39, Type (0, 1), BuildingBlock: UVAHIK_clean_linker_0, # of connection points: 2
#     Edge 40, Type (0, 1), BuildingBlock: UVAHIK_clean_linker_0, # of connection points: 2
#     Edge 41, Type (0, 1), BuildingBlock: UVAHIK_clean_linker_0, # of connection points: 2
#     Edge 42, Type (0, 1), BuildingBlock: UVAHIK_clean_linker_0, # of connection points: 2
#     Edge 43, Type (0, 1), BuildingBlock: UVAHIK_clean_linker_0, # of connection points: 2
#     Edge 44, Type (0, 1), BuildingBlock: UVAHIK_clean_linker_0, # of connection points: 2
#     Edge 45, Type (0, 1), BuildingBlock: UVAHIK_clean_linker_0, # of connection points: 2
#     Edge 46, Type (0, 1), BuildingBlock: UVAHIK_clean_linker_0, # of connection points: 2
#     Edge 47, Type (0, 1), BuildingBlock: UVAHIK_clean_linker_0, # of connection points: 2
#     Edge 48, Type (0, 1), BuildingBlock: UVAHIK_clean_linker_0, # of connection points: 2
#     Edge 49, Type (0, 1), BuildingBlock: UVAHIK_clean_linker_0, # of connection points: 2
#     Edge 50, Type (0, 1), BuildingBlock: UVAHIK_clean_linker_0, # of connection points: 2
#     Edge 51, Type (0, 1), BuildingBlock: UVAHIK_clean_linker_0, # of connection points: 2
#     Edge 52, Type (0, 1), BuildingBlock: UVAHIK_clean_linker_0, # of connection points: 2
#     Edge 53, Type (0, 1), BuildingBlock: UVAHIK_clean_linker_0, # of connection points: 2
#     Edge 54, Type (0, 1), BuildingBlock: UVAHIK_clean_linker_0, # of connection points: 2
#     Edge 55, Type (0, 1), BuildingBlock: UVAHIK_clean_linker_0, # of connection points: 2
#     Edge 56, Type (0, 1), BuildingBlock: UVAHIK_clean_linker_0, # of connection points: 2
#     Edge 57, Type (0, 1), BuildingBlock: UVAHIK_clean_linker_0, # of connection points: 2
#     Edge 58, Type (0, 1), BuildingBlock: UVAHIK_clean_linker_0, # of connection points: 2
#     Edge 59, Type (0, 1), BuildingBlock: UVAHIK_clean_linker_0, # of connection points: 2
#     Edge 60, Type (0, 1), BuildingBlock: UVAHIK_clean_linker_0, # of connection points: 2
#     Edge 61, Type (0, 1), BuildingBlock: UVAHIK_clean_linker_0, # of connection points: 2
# Relax obj value: 0.157
# Max RMSD: 0.251
# Mean RMSD: 0.162
data_MOF--net-ocu--node1-CUWYAW_clean_sbu_0--node2-GIZVER_clean_sbu_0--edge1-UVAHIK_clean_linker_0
_symmetry_space_group_name_H-M    P1
_symmetry_Int_Tables_number       1
_symmetry_cell_setting            triclinic
loop_
_symmetry_equiv_pos_as_xyz
'x, y, z'
_cell_length_a     55.084813
_cell_length_b     56.373649
_cell_length_c     39.469115
_cell_angle_alpha  83.815927
_cell_angle_beta   101.02156
_cell_angle_gamma 105.61794
loop_
_atom_site_label
_atom_site_type_symbol
_atom_site_fract_x
_atom_site_fract_y
_atom_site_fract_z
_atom_type_partial_charge
C0 C 0.30762 0.32339 0.37311 0.0
Eu1 Eu 0.29877 0.30496 0.31261 0.0
C2 C 0.30204 0.34265 0.39005 0.0
C3 C 0.31265 0.34645 0.42482 0.0
C4 C 0.30601 0.36341 0.44227 0.0
C5 C 0.2886 0.37676 0.42512 0.0
C6 C 0.2786 0.37335 0.38987 0.0
C7 C 0.28532 0.35644 0.37246 0.0
C8 C 0.32899 0.32631 0.26375 0.0
C9 C 0.25383 0.32473 0.25877 0.0
C10 C 0.27259 0.26352 0.19056 0.0
Eu11 Eu 0.28036 0.2825 0.25041 0.0
C12 C 0.28013 0.24494 0.17434 0.0
C13 C 0.26115 0.22719 0.15511 0.0
C14 C 0.26777 0.20945 0.13915 0.0
C15 C 0.29355 0.20942 0.14188 0.0
C16 C 0.31255 0.22722 0.16116 0.0
C17 C 0.3059 0.24478 0.17741 0.0
C18 C 0.24996 0.2611 0.29891 0.0
C19 C 0.32412 0.26186 0.3048 0.0
O20 O 0.28812 0.30514 0.36288 0.0
O21 O 0.32283 0.33072 0.35039 0.0
O22 O 0.33737 0.31925 0.29509 0.0
O23 O 0.30471 0.32083 0.25881 0.0
O24 O 0.26553 0.32333 0.29131 0.0
O25 O 0.25879 0.31211 0.23587 0.0
O26 O 0.29023 0.28358 0.19935 0.0
O27 O 0.25786 0.25523 0.2137 0.0
O28 O 0.24172 0.26771 0.26729 0.0
O29 O 0.27426 0.26677 0.3042 0.0
O30 O 0.31388 0.26448 0.27181 0.0
O31 O 0.31817 0.27379 0.3276 0.0
H32 H 0.32568 0.33593 0.43866 0.0
H33 H 0.31422 0.36582 0.46928 0.0
H34 H 0.26484 0.38306 0.37603 0.0
H35 H 0.27699 0.35366 0.34558 0.0
H36 H 0.24116 0.22706 0.15243 0.0
H37 H 0.25281 0.19594 0.12438 0.0
H38 H 0.33254 0.22731 0.16411 0.0
H39 H 0.32091 0.25815 0.19236 0.0
C40 C 0.8412 0.32964 0.21172 0.0
Eu41 Eu 0.81079 0.3073 0.25401 0.0
C42 C 0.83487 0.34141 0.17705 0.0
C43 C 0.8414 0.33406 0.14784 0.0
C44 C 0.83523 0.34543 0.11509 0.0
C45 C 0.82245 0.36437 0.11107 0.0
C46 C 0.81494 0.37071 0.14032 0.0
C47 C 0.82106 0.35943 0.17272 0.0
C48 C 0.76762 0.27065 0.23511 0.0
C49 C 0.76023 0.32816 0.24311 0.0
C50 C 0.7485 0.28329 0.35873 0.0
Eu51 Eu 0.77718 0.29762 0.31136 0.0
C52 C 0.75042 0.28416 0.39646 0.0
C53 C 0.73943 0.30035 0.40941 0.0
C54 C 0.73672 0.29817 0.4442 0.0
C55 C 0.74453 0.27944 0.46654 0.0
C56 C 0.75794 0.26501 0.4542 0.0
C57 C 0.76077 0.26729 0.41955 0.0
C58 C 0.81595 0.33944 0.31566 0.0
C59 C 0.82375 0.26974 0.31861 0.0
O60 O 0.83776 0.34034 0.23774 0.0
O61 O 0.83308 0.30553 0.21454 0.0
O62 O 0.78571 0.27858 0.21691 0.0
O63 O 0.77369 0.28224 0.26214 0.0
O64 O 0.78431 0.333 0.23849 0.0
O65 O 0.7513 0.31048 0.26575 0.0
O66 O 0.76005 0.26889 0.3476 0.0
O67 O 0.75021 0.30426 0.34055 0.0
O68 O 0.79389 0.33754 0.32383 0.0
O69 O 0.8172 0.3188 0.30778 0.0
O70 O 0.80324 0.27166 0.33021 0.0
O71 O 0.83152 0.28286 0.29092 0.0
H72 H 0.85163 0.31984 0.15045 0.0
H73 H 0.84124 0.33999 0.09319 0.0
H74 H 0.80569 0.38556 0.13887 0.0
H75 H 0.81548 0.36541 0.19456 0.0
H76 H 0.73149 0.31372 0.39222 0.0
H77 H 0.72664 0.30981 0.45287 0.0
H78 H 0.76408 0.25018 0.47028 0.0
H79 H 0.76958 0.2547 0.4105 0.0
C80 C 0.80407 0.76571 0.38773 0.0
Eu81 Eu 0.78957 0.78011 0.32395 0.0
C82 C 0.82707 0.75967 0.40794 0.0
C83 C 0.84045 0.74623 0.39403 0.0
C84 C 0.86388 0.74317 0.41201 0.0
C85 C 0.87452 0.75382 0.44393 0.0
C86 C 0.86072 0.76673 0.45817 0.0
C87 C 0.83715 0.7696 0.44027 0.0
C88 C 0.74637 0.76011 0.28025 0.0
C89 C 0.81569 0.75935 0.26802 0.0
C90 C 0.77455 0.81778 0.18773 0.0
Eu91 Eu 0.78682 0.80338 0.25207 0.0
C92 C 0.77409 0.83978 0.16449 0.0
C93 C 0.79334 0.86183 0.16957 0.0
C94 C 0.7928 0.88224 0.14625 0.0
C95 C 0.77293 0.88093 0.11766 0.0
C96 C 0.75405 0.85856 0.11244 0.0
C97 C 0.7547 0.83819 0.13561 0.0
C98 C 0.82995 0.82415 0.2957 0.0
C99 C 0.76014 0.82449 0.30856 0.0
O100 O 0.80728 0.78884 0.37667 0.0
O101 O 0.79023 0.75053 0.36434 0.0
O102 O 0.74681 0.76265 0.31268 0.0
O103 O 0.76862 0.76678 0.27327 0.0
O104 O 0.81726 0.76335 0.30124 0.0
O105 O 0.80096 0.77006 0.24424 0.0
O106 O 0.75803 0.81146 0.20909 0.0
O107 O 0.79717 0.81497 0.20164 0.0
O108 O 0.82924 0.82242 0.26307 0.0
O109 O 0.80775 0.81688 0.30261 0.0
O110 O 0.76387 0.82517 0.27583 0.0
O111 O 0.7689 0.80876 0.33207 0.0
H112 H 0.83313 0.73855 0.36898 0.0
H113 H 0.87375 0.73262 0.40071 0.0
H114 H 0.86846 0.77526 0.48257 0.0
H115 H 0.82714 0.78026 0.45117 0.0
H116 H 0.80867 0.86331 0.19162 0.0
H117 H 0.80763 0.89917 0.15095 0.0
H118 H 0.73809 0.85701 0.09127 0.0
H119 H 0.73984 0.82122 0.13117 0.0
C120 C 0.24916 0.83545 0.31227 0.0
Eu121 Eu 0.27342 0.80697 0.29266 0.0
C122 C 0.25423 0.85855 0.32974 0.0
C123 C 0.24159 0.87665 0.31486 0.0
C124 C 0.2427 0.89674 0.33352 0.0
C125 C 0.2563 0.89891 0.36749 0.0
C126 C 0.27024 0.8816 0.38152 0.0
C127 C 0.26927 0.86163 0.36281 0.0
C128 C 0.25548 0.77678 0.23877 0.0
C129 C 0.26089 0.75285 0.33352 0.0
C130 C 0.32971 0.74488 0.26921 0.0
Eu131 Eu 0.30584 0.7733 0.2898 0.0
C132 C 0.32404 0.72229 0.25038 0.0
C133 C 0.3368 0.70399 0.26353 0.0
C134 C 0.33477 0.6842 0.24379 0.0
C135 C 0.32012 0.68251 0.21038 0.0
C136 C 0.30624 0.70014 0.19798 0.0
C137 C 0.30805 0.7198 0.2179 0.0
C138 C 0.32472 0.80455 0.34274 0.0
C139 C 0.31792 0.82733 0.24897 0.0
O140 O 0.25423 0.837 0.28093 0.0
O141 O 0.2552 0.81671 0.3312 0.0
O142 O 0.25346 0.79922 0.23763 0.0
O143 O 0.26515 0.77086 0.26888 0.0
O144 O 0.26085 0.77631 0.33339 0.0
O145 O 0.27434 0.74614 0.31365 0.0
O146 O 0.32408 0.74259 0.30032 0.0
O147 O 0.32463 0.76434 0.25125 0.0
O148 O 0.32771 0.78243 0.34408 0.0
O149 O 0.31406 0.80946 0.31285 0.0
O150 O 0.31706 0.80372 0.24803 0.0
O151 O 0.30557 0.83411 0.27026 0.0
H152 H 0.22983 0.87461 0.28946 0.0
H153 H 0.23158 0.90969 0.3222 0.0
H154 H 0.28104 0.88297 0.40754 0.0
H155 H 0.27932 0.84802 0.37495 0.0
H156 H 0.34925 0.70557 0.28845 0.0
H157 H 0.34592 0.67105 0.25387 0.0
H158 H 0.29466 0.69916 0.17244 0.0
H159 H 0.29776 0.73354 0.20725 0.0
C160 C 0.33834 0.8175 0.71965 0.0
Eu161 Eu 0.30203 0.80146 0.75634 0.0
C162 C 0.36652 0.82578 0.72489 0.0
C163 C 0.38035 0.81284 0.71083 0.0
C164 C 0.40659 0.82237 0.71123 0.0
C165 C 0.41943 0.84524 0.72524 0.0
C166 C 0.40577 0.85735 0.74123 0.0
C167 C 0.37965 0.84768 0.74119 0.0
C168 C 0.25923 0.76485 0.73952 0.0
C169 C 0.25554 0.82593 0.75131 0.0
C170 C 0.23639 0.76773 0.85192 0.0
Eu171 Eu 0.27064 0.78537 0.8124 0.0
C172 C 0.23329 0.74901 0.88055 0.0
C173 C 0.21288 0.74595 0.89823 0.0
C174 C 0.20913 0.72764 0.92481 0.0
C175 C 0.22581 0.71209 0.9342 0.0
C176 C 0.24661 0.71556 0.91675 0.0
C177 C 0.25036 0.73396 0.89013 0.0
C178 C 0.31416 0.82086 0.82966 0.0
C179 C 0.31775 0.7625 0.81836 0.0
O180 O 0.32805 0.79403 0.72575 0.0
O181 O 0.3264 0.83172 0.7302 0.0
O182 O 0.2681 0.78253 0.71786 0.0
O183 O 0.27402 0.7665 0.76815 0.0
O184 O 0.2774 0.8281 0.74078 0.0
O185 O 0.24811 0.80942 0.77625 0.0
O186 O 0.23496 0.75954 0.82164 0.0
O187 O 0.25505 0.78749 0.85834 0.0
O188 O 0.30539 0.80264 0.85071 0.0
O189 O 0.29922 0.82016 0.80113 0.0
O190 O 0.29421 0.7576 0.82481 0.0
O191 O 0.32631 0.78149 0.79712 0.0
H192 H 0.37068 0.79582 0.69833 0.0
H193 H 0.41659 0.8123 0.6993 0.0
H194 H 0.4148 0.87512 0.75193 0.0
H195 H 0.3696 0.85805 0.75253 0.0
H196 H 0.19956 0.75744 0.89107 0.0
H197 H 0.19261 0.72514 0.93719 0.0
H198 H 0.25981 0.70394 0.92348 0.0
H199 H 0.26634 0.73625 0.87676 0.0
C200 C 0.31682 0.25157 0.71698 0.0
Eu201 Eu 0.3043 0.27725 0.75992 0.0
C202 C 0.33536 0.23919 0.70728 0.0
C203 C 0.35771 0.25294 0.69494 0.0
C204 C 0.37288 0.24128 0.6809 0.0
C205 C 0.36619 0.21543 0.67844 0.0
C206 C 0.34413 0.20169 0.69161 0.0
C207 C 0.32898 0.21336 0.70566 0.0
C208 C 0.33567 0.31596 0.79514 0.0
C209 C 0.30743 0.25391 0.83936 0.0
C210 C 0.2693 0.32453 0.85784 0.0
Eu211 Eu 0.28086 0.29814 0.81487 0.0
C212 C 0.25184 0.33832 0.86732 0.0
C213 C 0.22875 0.32579 0.87881 0.0
C214 C 0.21445 0.33856 0.89262 0.0
C215 C 0.22273 0.36435 0.89569 0.0
C216 C 0.24557 0.3769 0.88346 0.0
C217 C 0.25987 0.36411 0.86965 0.0
C218 C 0.24936 0.25922 0.78013 0.0
C219 C 0.2752 0.31953 0.73406 0.0
O220 O 0.30342 0.24143 0.74132 0.0
O221 O 0.32248 0.2757 0.7159 0.0
O222 O 0.33765 0.31159 0.76436 0.0
O223 O 0.31955 0.29849 0.80704 0.0
O224 O 0.30531 0.24987 0.80633 0.0
O225 O 0.30398 0.27434 0.84929 0.0
O226 O 0.28386 0.33421 0.83459 0.0
O227 O 0.26186 0.30043 0.85777 0.0
O228 O 0.24746 0.26392 0.81084 0.0
O229 O 0.2655 0.27663 0.76805 0.0
O230 O 0.27746 0.32438 0.76688 0.0
O231 O 0.27982 0.29934 0.7253 0.0
H232 H 0.36315 0.27287 0.69509 0.0
H233 H 0.3894 0.25274 0.67079 0.0
H234 H 0.33836 0.18179 0.69088 0.0
H235 H 0.31177 0.20214 0.71439 0.0
H236 H 0.22203 0.30592 0.87815 0.0
H237 H 0.19729 0.32795 0.90202 0.0
H238 H 0.25261 0.39671 0.8847 0.0
H239 H 0.27769 0.37442 0.86164 0.0
C240 C 0.74693 0.3255 0.7753 0.0
Eu241 Eu 0.77746 0.2964 0.78058 0.0
C242 C 0.74579 0.34592 0.79459 0.0
C243 C 0.72841 0.36004 0.78112 0.0
C244 C 0.72583 0.37841 0.80026 0.0
C245 C 0.7406 0.38295 0.83332 0.0
C246 C 0.75851 0.36911 0.84636 0.0
C247 C 0.76112 0.35076 0.82711 0.0
C248 C 0.76943 0.26051 0.73405 0.0
C249 C 0.75934 0.25006 0.83176 0.0
C250 C 0.8394 0.23527 0.80572 0.0
Eu251 Eu 0.81011 0.26525 0.80239 0.0
C252 C 0.83723 0.2138 0.78645 0.0
C253 C 0.85812 0.20362 0.78961 0.0
C254 C 0.8571 0.18487 0.76856 0.0
C255 C 0.83513 0.17603 0.74395 0.0
C256 C 0.81395 0.18592 0.74156 0.0
C257 C 0.81503 0.20469 0.76265 0.0
C258 C 0.81848 0.30028 0.84986 0.0
C259 C 0.82879 0.31279 0.75265 0.0
O260 O 0.7658 0.32966 0.75814 0.0
O261 O 0.74318 0.30391 0.7919 0.0
O262 O 0.76943 0.28329 0.72562 0.0
O263 O 0.77293 0.25747 0.76649 0.0
O264 O 0.76135 0.27392 0.82641 0.0
O265 O 0.77416 0.24035 0.81816 0.0
O266 O 0.8227 0.23279 0.82608 0.0
O267 O 0.84241 0.25616 0.78736 0.0
O268 O 0.81907 0.27754 0.85726 0.0
O269 O 0.81455 0.30404 0.81739 0.0
O270 O 0.82737 0.28901 0.75794 0.0
O271 O 0.81329 0.3219 0.76575 0.0
H272 H 0.7164 0.35647 0.75611 0.0
H273 H 0.71159 0.38844 0.78966 0.0
H274 H 0.77031 0.37229 0.87157 0.0
H275 H 0.7747 0.34002 0.83785 0.0
H276 H 0.87549 0.21067 0.80761 0.0
H277 H 0.87392 0.17801 0.77065 0.0
H278 H 0.7967 0.17942 0.72311 0.0
H279 H 0.79882 0.21256 0.75984 0.0
C280 C 0.77741 0.81929 0.87363 0.0
Eu281 Eu 0.79159 0.80787 0.81978 0.0
C282 C 0.77108 0.84003 0.88624 0.0
C283 C 0.77491 0.86321 0.86817 0.0
C284 C 0.76625 0.88195 0.87878 0.0
C285 C 0.75343 0.87758 0.90731 0.0
C286 C 0.75053 0.8546 0.92599 0.0
C287 C 0.75931 0.836 0.91553 0.0
C288 C 0.82591 0.83679 0.77932 0.0
C289 C 0.75831 0.81687 0.74415 0.0
C290 C 0.81182 0.77095 0.69985 0.0
Eu291 Eu 0.79553 0.77874 0.75422 0.0
C292 C 0.82171 0.754 0.68393 0.0
C293 C 0.82401 0.73122 0.70034 0.0
C294 C 0.83611 0.71673 0.68611 0.0
C295 C 0.84627 0.72495 0.65546 0.0
C296 C 0.84319 0.74754 0.63877 0.0
C297 C 0.83101 0.76189 0.6529 0.0
C298 C 0.76071 0.74987 0.79374 0.0
C299 C 0.82586 0.76696 0.83074 0.0
O300 O 0.7613 0.80873 0.84725 0.0
O301 O 0.80147 0.82198 0.87121 0.0
O302 O 0.82129 0.84388 0.80722 0.0
O303 O 0.81243 0.81491 0.77601 0.0
O304 O 0.76189 0.81921 0.77798 0.0
O305 O 0.77011 0.80392 0.72973 0.0
O306 O 0.82685 0.78182 0.72676 0.0
O307 O 0.78754 0.76446 0.70288 0.0
O308 O 0.76591 0.74268 0.76622 0.0
O309 O 0.77426 0.77174 0.79767 0.0
O310 O 0.82397 0.76583 0.79684 0.0
O311 O 0.81386 0.78008 0.84449 0.0
H312 H 0.78385 0.86654 0.84533 0.0
H313 H 0.7685 0.89941 0.86374 0.0
H314 H 0.7409 0.85083 0.94822 0.0
H315 H 0.75621 0.81818 0.92972 0.0
H316 H 0.81701 0.72494 0.72445 0.0
H317 H 0.83783 0.69927 0.69938 0.0
H318 H 0.85107 0.75467 0.6155 0.0
H319 H 0.82958 0.77959 0.64011 0.0
Co320 Co 0.07834 1.00947 0.53196 0.0
Co321 Co 0.07005 1.01331 0.59179 0.0
Co322 Co 0.03742 0.04514 0.53525 0.0
O323 O 0.06944 0.03412 0.55277 0.0
H324 H 0.08389 0.04831 0.55671 0.0
O325 O 1.00562 0.0568 0.51764 0.0
Co326 Co 0.99593 0.07881 0.5432 0.0
Co327 Co 1.00593 0.08168 0.48393 0.0
H328 H 0.99134 0.04297 0.51081 0.0
O329 O 0.1002 1.01253 0.62214 0.0
O330 O 0.08185 0.98923 0.57667 0.0
O331 O 0.03754 0.99892 0.60483 0.0
O332 O 1.01405 1.01849 0.56461 0.0
O333 O 0.04832 0.06703 0.5745 0.0
O334 O 0.98388 0.09625 0.56754 0.0
O335 O 0.96227 0.06375 0.53569 0.0
O336 O 1.03031 0.09748 0.55459 0.0
O337 O 0.06075 0.07186 0.50588 0.0
O338 O 0.03923 0.09754 0.47399 0.0
O339 O 0.99155 0.10258 0.50218 0.0
O340 O 0.97654 0.08323 0.45242 0.0
C341 C 0.11149 1.00436 0.5221 0.0
C342 C 1.02651 0.9996 0.50039 0.0
C343 C 1.016 1.00227 0.59029 0.0
C344 C 0.09931 0.99421 0.60419 0.0
C345 C 0.96263 0.08026 0.5566 0.0
C346 C 0.04867 0.08972 0.57249 0.0
C347 C 0.0599 0.09106 0.48474 0.0
C348 C 0.97541 0.09923 0.47309 0.0
O349 O 0.08976 0.9885 0.51278 0.0
O350 O 0.11224 1.02356 0.53834 0.0
O351 O 1.0267 1.02241 0.49657 0.0
O352 O 0.04367 0.99202 0.52166 0.0
Co353 Co 0.56479 1.01479 0.02216 0.0
Co354 Co 0.56658 1.01849 0.08737 0.0
Co355 Co 0.53063 0.05095 0.0401 0.0
O356 O 0.56248 0.03966 0.04912 0.0
H357 H 0.57746 0.05343 0.0503 0.0
O358 O 0.499 0.06247 0.03038 0.0
Co359 Co 0.48872 0.08054 0.06066 0.0
Co360 Co 0.49847 0.08913 1.00037 0.0
H361 H 0.48471 0.04908 0.02192 0.0
O362 O 0.59928 1.01709 0.1089 0.0
O363 O 0.57428 0.99528 0.06481 0.0
O364 O 0.53663 1.00443 0.10744 0.0
O365 O 0.51076 1.0238 0.07092 0.0
O366 O 0.54593 0.0716 0.08058 0.0
O367 O 0.47562 0.09502 0.08793 0.0
O368 O 0.45538 0.06516 0.05111 0.0
O369 O 0.52289 0.09917 0.07455 0.0
O370 O 0.55066 0.07781 0.0095 0.0
O371 O 0.53025 0.10669 0.98712 0.0
O372 O 0.48395 0.10662 0.02327 0.0
O373 O 0.46842 0.08955 0.97159 0.0
C374 C 0.59239 1.00831 0.99905 0.0
C375 C 0.51369 1.00691 1.00205 0.0
C376 C 0.51459 1.00789 0.096 0.0
C377 C 0.59586 1.001 0.08608 0.0
C378 C 0.45455 0.08029 0.07332 0.0
C379 C 0.54345 0.09261 0.08601 0.0
C380 C 0.54994 0.09833 0.99219 0.0
C381 C 0.46659 0.10295 0.9954 0.0
O382 O 0.56966 0.99333 0.99654 0.0
O383 O 0.59799 0.02756 0.01751 0.0
O384 O 0.51549 0.02998 0.99956 0.0
O385 O 0.53035 0.99841 0.02272 0.0
Co386 Co 0.04122 0.49217 0.07833 0.0
Co387 Co 0.0392 0.49639 0.14104 0.0
Co388 Co 1.00989 0.53707 0.09968 0.0
O389 O 0.03958 0.52024 0.10343 0.0
H390 H 0.05591 0.53233 0.10592 0.0
O391 O 0.98052 0.55484 0.09715 0.0
Co392 Co 0.981 0.58668 0.11832 0.0
Co393 Co 0.98113 0.5769 0.05813 0.0
H394 H 0.96386 0.54337 0.09393 0.0
O395 O 0.06962 0.49307 0.16844 0.0
O396 O 0.04813 0.47104 0.12269 0.0
O397 O 1.00625 0.48688 0.15786 0.0
O398 O 1.00637 0.52598 0.14884 0.0
O399 O 0.03677 0.56741 0.1159 0.0
O400 O 0.97947 0.61412 0.1381 0.0
O401 O 0.94626 0.58217 0.12374 0.0
O402 O 1.01665 0.59698 0.11759 0.0
O403 O 1.01433 0.54749 0.05062 0.0
O404 O 1.01303 0.5862 0.04068 0.0
O405 O 0.97419 0.60424 0.07177 0.0
O406 O 0.951 0.57838 0.03028 0.0
C407 C 0.06874 0.4806 0.05809 0.0
C408 C 0.98416 0.48513 0.07443 0.0
C409 C 0.99508 0.50399 0.15785 0.0
C410 C 0.06738 0.47528 0.1487 0.0
C411 C 0.95516 0.60402 0.13684 0.0
C412 C 0.03688 0.58988 0.11836 0.0
C413 C 1.02437 0.56947 0.0402 0.0
C414 C 0.95536 0.59877 0.04564 0.0
O415 O 0.04481 0.46852 0.0544 0.0
O416 O 0.07598 0.50056 0.07566 0.0
O417 O 0.98303 0.50646 0.08177 0.0
O418 O 1.00522 0.47952 0.07522 0.0
Co419 Co 0.57459 0.50381 0.02418 0.0
Co420 Co 0.57227 0.51333 0.085 0.0
Co421 Co 0.53998 0.54471 0.02757 0.0
O422 O 0.57132 0.53219 0.04379 0.0
H423 H 0.58672 0.54549 0.04467 0.0
O424 O 0.50836 0.55677 0.01101 0.0
Co425 Co 0.50089 0.58105 0.03457 0.0
Co426 Co 0.5081 0.57948 0.97449 0.0
H427 H 0.49356 0.54299 1.00638 0.0
O428 O 0.60326 0.51141 0.11223 0.0
O429 O 0.58002 0.48623 0.07066 0.0
O430 O 0.54067 0.50308 0.10282 0.0
O431 O 0.51697 0.51928 0.05851 0.0
O432 O 0.55271 0.56784 0.06575 0.0
O433 O 0.49122 0.60125 0.05725 0.0
O434 O 0.4669 0.56729 0.03059 0.0
O435 O 0.53565 0.59841 0.04236 0.0
O436 O 0.56305 0.57032 0.9966 0.0
O437 O 0.54068 0.59377 0.96147 0.0
O438 O 0.49555 0.60245 0.99121 0.0
O439 O 0.4782 0.58027 0.94422 0.0
C440 C 0.60349 0.49333 0.00917 0.0
C441 C 0.52388 0.49819 0.99624 0.0
C442 C 0.51908 0.5056 0.08695 0.0
C443 C 0.59966 0.49179 0.09548 0.0
C444 C 0.46908 0.58567 0.04941 0.0
C445 C 0.55294 0.59062 0.06291 0.0
C446 C 0.56168 0.58816 0.97315 0.0
C447 C 0.47835 0.59776 0.9633 0.0
O448 O 0.58025 0.47937 1.00518 0.0
O449 O 0.6088 0.51398 0.02452 0.0
O450 O 0.52734 0.52136 0.98981 0.0
O451 O 0.53906 0.48973 0.01983 0.0
Co452 Co 0.10333 0.50018 0.56468 0.0
Co453 Co 0.07933 0.50489 0.50015 0.0
Co454 Co 0.05319 0.52603 0.54898 0.0
O455 O 0.06876 0.49927 0.54347 0.0
H456 H 0.05717 0.48312 0.54553 0.0
O457 O 0.03846 0.55275 0.55564 0.0
Co458 Co 1.02787 0.57489 0.51973 0.0
Co459 Co 1.00545 0.54335 0.55845 0.0
H460 H 0.04758 0.56136 0.576 0.0
O461 O 0.08954 0.48147 0.47975 0.0
O462 O 0.1136 0.50823 0.5186 0.0
O463 O 0.07718 0.53559 0.47455 0.0
O464 O 0.07771 0.55249 0.52297 0.0
O465 O 1.02948 0.51688 0.50515 0.0
O466 O 1.02016 0.59911 0.4899 0.0
O467 O 0.04006 0.60078 0.5454 0.0
O468 O 1.01311 0.54922 0.48821 0.0
O469 O 1.0281 0.5002 0.57501 0.0
O470 O 0.99038 0.50867 0.55447 0.0
O471 O 0.99337 0.56833 0.53384 0.0
O472 O 0.99667 0.55813 0.59136 0.0
C473 C 0.1242 0.47463 0.5763 0.0
C474 C 0.10082 0.54281 0.59295 0.0
C475 C 0.08211 0.55449 0.49186 0.0
C476 C 0.11171 0.49148 0.49743 0.0
C477 C 1.0308 0.61172 0.51716 0.0
C478 C 1.01461 0.52755 0.48418 0.0
C479 C 1.00341 0.49375 0.56918 0.0
C480 C 0.98958 0.57175 0.56447 0.0
O481 O 0.13429 0.49754 0.58356 0.0
O482 O 0.10035 0.46782 0.56126 0.0
O483 O 0.077 0.53465 0.59306 0.0
O484 O 0.11136 0.53434 0.57266 0.0
Co485 Co 0.61868 1.01143 0.49683 0.0
Co486 Co 0.60785 1.02033 0.43334 0.0
Co487 Co 0.57145 0.04569 0.47018 0.0
O488 O 0.58746 1.01696 0.46748 0.0
H489 H 0.57432 1.00164 0.46526 0.0
O490 O 0.55525 0.07466 0.47118 0.0
Co491 Co 0.51888 0.07489 0.45566 0.0
Co492 Co 0.54865 0.07868 0.51443 0.0
H493 H 0.56625 0.09001 0.46393 0.0
O494 O 0.60684 0.99431 0.40752 0.0
O495 O 0.63544 1.00662 0.45536 0.0
O496 O 0.62007 0.05467 0.41979 0.0
O497 O 0.58413 0.06278 0.42672 0.0
O498 O 0.53881 1.02655 0.44282 0.0
O499 O 0.48661 0.07783 0.43988 0.0
O500 O 0.52243 0.10853 0.44453 0.0
O501 O 0.50961 0.0398 0.46309 0.0
O502 O 0.55975 0.02748 0.51342 0.0
O503 O 0.55426 0.05315 0.54907 0.0
O504 O 0.51418 0.07933 0.50409 0.0
O505 O 0.5474 0.10878 0.52844 0.0
C506 C 0.62952 0.98145 0.52336 0.0
C507 C 0.62659 0.0645 0.50652 0.0
C508 C 0.60746 0.07022 0.42192 0.0
C509 C 0.62752 0.99236 0.42867 0.0
C510 C 0.49745 0.10128 0.43588 0.0
C511 C 0.51637 1.02318 0.45019 0.0
C512 C 0.55648 0.03225 0.54296 0.0
C513 C 0.52283 0.09977 0.5205 0.0
O514 O 0.64456 1.00357 0.52571 0.0
O515 O 0.60752 0.97794 0.50247 0.0
O516 O 0.60299 0.06461 0.49937 0.0
O517 O 0.63482 0.04705 0.49805 0.0
C518 C 0.20633 0.23555 0.30853 0.0
C519 C 0.23275 0.24337 0.32109 0.0
C520 C 0.18962 0.21866 0.32791 0.0
C521 C 0.18658 0.17192 0.40457 0.0
H522 H 0.11739 0.17891 0.39267 0.0
C523 C 0.10322 0.09883 0.46413 0.0
C524 C 0.08345 0.10758 0.47228 0.0
C525 C 0.12299 0.11484 0.44792 0.0
C526 C 0.13665 0.17661 0.39694 0.0
H527 H 0.2621 0.23909 0.36463 0.0
H528 H 0.23287 0.20995 0.39899 0.0
H529 H 0.14815 0.20774 0.36226 0.0
H530 H 0.07042 0.14065 0.47172 0.0
H531 H 0.10459 0.16811 0.44542 0.0
H532 H 0.17488 0.141 0.44027 0.0
C533 C 0.22505 0.21666 0.37364 0.0
C534 C 0.15444 0.19315 0.37873 0.0
C535 C 0.24191 0.23361 0.354 0.0
C536 C 0.08491 0.13294 0.46538 0.0
C537 C 0.1046 0.14882 0.44978 0.0
C538 C 0.16867 0.1553 0.42303 0.0
C539 C 0.19846 0.20892 0.36103 0.0
C540 C 0.17979 0.19119 0.38188 0.0
C541 C 0.12369 0.14011 0.43966 0.0
C542 C 0.14329 0.15737 0.4197 0.0
H543 H 0.1984 0.24237 0.28328 0.0
H544 H 0.16963 0.21302 0.31642 0.0
H545 H 0.20569 0.16938 0.40777 0.0
H546 H 0.10283 0.07946 0.46887 0.0
H547 H 0.13717 0.10714 0.44078 0.0
C548 C 0.86331 0.25366 0.33067 0.0
C549 C 0.83877 0.25237 0.33742 0.0
C550 C 0.87738 0.23722 0.34784 0.0
C551 C 0.87033 0.17548 0.39313 0.0
H552 H 0.94296 0.19909 0.42711 0.0
C553 C 0.93867 0.11058 0.43194 0.0
C554 C 0.95772 0.11562 0.46146 0.0
C555 C 0.92317 0.12678 0.41939 0.0
C556 C 0.92266 0.19218 0.41802 0.0
H557 H 0.80991 0.23247 0.3678 0.0
H558 H 0.83433 0.20357 0.39737 0.0
H559 H 0.91823 0.2284 0.40047 0.0
H560 H 0.97479 0.14159 0.50139 0.0
H561 H 0.94797 0.17002 0.47921 0.0
H562 H 0.87486 0.1392 0.41023 0.0
C563 C 0.84269 0.21741 0.37876 0.0
C564 C 0.90851 0.20898 0.40243 0.0
C565 C 0.82873 0.2341 0.36191 0.0
C566 C 0.96042 0.1371 0.47854 0.0
C567 C 0.94512 0.15349 0.46569 0.0
C568 C 0.88456 0.15863 0.40829 0.0
C569 C 0.86724 0.21876 0.372 0.0
C570 C 0.88215 0.20088 0.38963 0.0
C571 C 0.92642 0.14868 0.43574 0.0
C572 C 0.91096 0.16672 0.42086 0.0
H573 H 0.87177 0.26745 0.31207 0.0
H574 H 0.89609 0.2387 0.34169 0.0
H575 H 0.85014 0.16852 0.3834 0.0
H576 H 0.93591 0.09421 0.41813 0.0
H577 H 0.90911 0.1225 0.39617 0.0
C578 C 0.87464 0.85074 0.30637 0.0
C579 C 0.85136 0.83998 0.31799 0.0
C580 C 0.89414 0.86738 0.32644 0.0
C581 C 0.93657 0.89249 0.38266 0.0
H582 H 0.91683 0.94148 0.42586 0.0
C583 C 1.00699 0.95653 0.48197 0.0
C584 C 1.00638 0.98146 0.47927 0.0
C585 C 0.98826 0.93931 0.46198 0.0
C586 C 0.92266 0.92804 0.41374 0.0
H587 H 0.83037 0.8375 0.35999 0.0
H588 H 0.8645 0.86626 0.39524 0.0
H589 H 0.88409 0.91085 0.3917 0.0
H590 H 0.98545 1.00779 0.45354 0.0
H591 H 0.95274 0.97759 0.41844 0.0
H592 H 0.97518 0.90992 0.40433 0.0
C593 C 0.86759 0.86218 0.37044 0.0
C594 C 0.9039 0.91032 0.39453 0.0
C595 C 0.84815 0.84555 0.35041 0.0
C596 C 0.98649 0.98873 0.45623 0.0
C597 C 0.96769 0.97143 0.43625 0.0
C598 C 0.95533 0.91018 0.40196 0.0
C599 C 0.89064 0.87356 0.35845 0.0
C600 C 0.91065 0.89231 0.37886 0.0
C601 C 0.96844 0.94655 0.43886 0.0
C602 C 0.94856 0.92811 0.41777 0.0
H603 H 0.87758 0.84673 0.28145 0.0
H604 H 0.91164 0.87597 0.31643 0.0
H605 H 0.94234 0.87878 0.37105 0.0
H606 H 1.02196 0.95025 0.49952 0.0
H607 H 0.98914 0.92021 0.46496 0.0
C608 C 0.24593 0.90889 0.42212 0.0
C609 C 0.25299 0.91699 0.38968 0.0
C610 C 0.23892 0.92458 0.44125 0.0
C611 C 0.21276 0.97928 0.42758 0.0
H612 H 0.21399 0.96749 0.52648 0.0
C613 C 0.15482 1.01969 0.50522 0.0
C614 C 0.13508 1.0 0.51477 0.0
C615 C 0.17582 1.015 0.49451 0.0
C616 C 0.21393 0.9713 0.49897 0.0
H617 H 0.25986 0.94831 0.3527 0.0
H618 H 0.24851 0.97623 0.38675 0.0
H619 H 0.24099 0.95042 0.4987 0.0
H620 H 0.12229 0.96026 0.52261 0.0
H621 H 0.15947 0.95218 0.50541 0.0
H622 H 0.18541 0.99998 0.42818 0.0
C623 C 0.24764 0.95748 0.39701 0.0
C624 C 0.22912 0.96132 0.48291 0.0
C625 C 0.25428 0.94157 0.37756 0.0
C626 C 0.13725 0.97573 0.51529 0.0
C627 C 0.15852 0.97112 0.50565 0.0
C628 C 0.19803 0.98971 0.44381 0.0
C629 C 0.23912 0.94895 0.42867 0.0
C630 C 0.22778 0.96415 0.44674 0.0
C631 C 0.17765 0.99065 0.49444 0.0
C632 C 0.19774 0.98494 0.47934 0.0
H633 H 0.24435 0.88991 0.43186 0.0
H634 H 0.23197 0.91702 0.46502 0.0
H635 H 0.2109 0.98172 0.39971 0.0
H636 H 0.15343 0.03855 0.50449 0.0
H637 H 0.19034 0.03027 0.48567 0.0
C638 C 0.2165 0.84214 0.74704 0.0
C639 C 0.23912 0.84267 0.73503 0.0
C640 C 0.20138 0.85824 0.73207 0.0
C641 C 0.18833 0.89843 0.65302 0.0
H642 H 0.1587 0.92906 0.71255 0.0
C643 C 0.11455 0.95638 0.59983 0.0
C644 C 0.11649 0.97755 0.61712 0.0
C645 C 0.12983 0.94009 0.61318 0.0
C646 C 0.16695 0.92083 0.6955 0.0
H647 H 0.26333 0.86064 0.69744 0.0
H648 H 0.2371 0.88865 0.67158 0.0
H649 H 0.18446 0.90051 0.73774 0.0
H650 H 0.13658 0.99834 0.66179 0.0
H651 H 0.1631 0.9701 0.68489 0.0
H652 H 0.17109 0.91908 0.61082 0.0
C653 C 0.23088 0.87563 0.69239 0.0
C654 C 0.18151 0.90417 0.70996 0.0
C655 C 0.24605 0.85961 0.70743 0.0
C656 C 0.1344 0.98219 0.64779 0.0
C657 C 0.14955 0.96586 0.66122 0.0
C658 C 0.17365 0.91503 0.63853 0.0
C659 C 0.20837 0.87526 0.70457 0.0
C660 C 0.19248 0.89276 0.68896 0.0
C661 C 0.14732 0.94443 0.64433 0.0
C662 C 0.16284 0.92655 0.65958 0.0
H663 H 0.21047 0.82934 0.76816 0.0
H664 H 0.18403 0.85716 0.74189 0.0
H665 H 0.19623 0.88986 0.63595 0.0
H666 H 0.10091 0.95213 0.57625 0.0
H667 H 0.12741 0.92372 0.59955 0.0
C668 C 0.2107 0.22377 0.77341 0.0
C669 C 0.23093 0.23999 0.75931 0.0
C670 C 0.1921 0.20671 0.75289 0.0
C671 C 0.16324 0.19628 0.66201 0.0
H672 H 0.13462 0.13 0.69826 0.0
C673 C 0.0707 0.13201 0.59306 0.0
C674 C 0.07027 0.107 0.59279 0.0
C675 C 0.09106 0.14809 0.61272 0.0
C676 C 0.14256 0.14838 0.68765 0.0
H677 H 0.24828 0.25064 0.71324 0.0
H678 H 0.21591 0.22067 0.67741 0.0
H679 H 0.16963 0.15759 0.73394 0.0
H680 H 0.09123 0.0794 0.61237 0.0
H681 H 0.12672 0.10744 0.64632 0.0
H682 H 0.13634 0.18696 0.61556 0.0
C683 C 0.21414 0.22139 0.70412 0.0
C684 C 0.16243 0.16426 0.70822 0.0
C685 C 0.23273 0.23843 0.72466 0.0
C686 C 0.0908 0.09849 0.61222 0.0
C687 C 0.11112 0.11455 0.63182 0.0
C688 C 0.14333 0.18041 0.64144 0.0
C689 C 0.19345 0.20556 0.7179 0.0
C690 C 0.17293 0.18841 0.69567 0.0
C691 C 0.11141 0.13948 0.63247 0.0
C692 C 0.13273 0.15631 0.65408 0.0
H693 H 0.2089 0.22461 0.80008 0.0
H694 H 0.17628 0.19493 0.76418 0.0
H695 H 0.17073 0.21488 0.65174 0.0
H696 H 0.05519 0.13917 0.57832 0.0
H697 H 0.09064 0.16716 0.61296 0.0
C698 C 0.84715 0.13858 0.73087 0.0
C699 C 0.8352 0.15778 0.71952 0.0
C700 C 0.85077 0.12372 0.7072 0.0
C701 C 0.85946 0.12803 0.61686 0.0
H702 H 0.86983 0.06269 0.64271 0.0
C703 C 0.91777 0.0845 0.5453 0.0
C704 C 0.9393 0.08091 0.56865 0.0
C705 C 0.89694 0.08822 0.55767 0.0
C706 C 0.86658 0.08075 0.63483 0.0
H707 H 0.81607 0.17531 0.6745 0.0
H708 H 0.82177 0.14887 0.63322 0.0
H709 H 0.8459 0.07957 0.67589 0.0
H710 H 0.95591 0.07717 0.6226 0.0
H711 H 0.9193 0.08277 0.64426 0.0
H712 H 0.88101 0.12943 0.57656 0.0
C713 C 0.82883 0.14566 0.66042 0.0
C714 C 0.85308 0.09052 0.65394 0.0
C715 C 0.82533 0.16065 0.68415 0.0
C716 C 0.93937 0.07985 0.60426 0.0
C717 C 0.9184 0.08288 0.61658 0.0
C718 C 0.87266 0.1181 0.59747 0.0
C719 C 0.84235 0.12754 0.67155 0.0
C720 C 0.85056 0.11479 0.64632 0.0
C721 C 0.89725 0.08764 0.59346 0.0
C722 C 0.8774 0.09489 0.60737 0.0
H723 H 0.85455 0.13559 0.75801 0.0
H724 H 0.8615 0.11017 0.71683 0.0
H725 H 0.85808 0.14682 0.6103 0.0
H726 H 0.91759 0.08561 0.51768 0.0
H727 H 0.8809 0.09209 0.53942 0.0
C728 C 0.84533 0.84606 0.72368 0.0
C729 C 0.84345 0.85291 0.75617 0.0
C730 C 0.86178 0.86202 0.70264 0.0
C731 C 0.89857 0.92871 0.69006 0.0
H732 H 0.93707 0.9018 0.63853 0.0
C733 C 0.9694 0.99143 0.60125 0.0
C734 C 0.99293 0.98537 0.60363 0.0
C735 C 0.94924 0.97552 0.61681 0.0
C736 C 0.92656 0.90979 0.65274 0.0
H737 H 0.85743 0.88243 0.79139 0.0
H738 H 0.88576 0.90986 0.75531 0.0
H739 H 0.90659 0.87404 0.67154 0.0
H740 H 1.0128 0.95701 0.6236 0.0
H741 H 0.97838 0.92991 0.64979 0.0
H742 H 0.91901 0.96452 0.67174 0.0
C743 C 0.87452 0.89228 0.74566 0.0
C744 C 0.90874 0.8937 0.67155 0.0
C745 C 0.85829 0.87632 0.76664 0.0
C746 C 0.99521 0.96265 0.62113 0.0
C747 C 0.97518 0.94679 0.63611 0.0
C748 C 0.91628 0.94482 0.671 0.0
C749 C 0.87668 0.88552 0.71319 0.0
C750 C 0.89464 0.9028 0.69108 0.0
C751 C 0.95183 0.95287 0.63461 0.0
C752 C 0.93097 0.9357 0.65242 0.0
H753 H 0.83383 0.82855 0.71422 0.0
H754 H 0.86244 0.85605 0.67774 0.0
H755 H 0.88796 0.93667 0.70415 0.0
H756 H 0.96678 1.00869 0.58817 0.0
H757 H 0.93158 0.98095 0.61478 0.0
C758 C 0.32099 0.19744 0.10662 0.0
C759 C 0.30075 0.19054 0.12548 0.0
C760 C 0.32966 0.17951 0.09425 0.0
C761 C 0.33999 0.13738 0.06209 0.0
H762 H 0.35821 0.09146 0.13694 0.0
C763 C 0.40825 0.07772 0.05262 0.0
C764 C 0.42982 0.08305 0.07881 0.0
C765 C 0.38613 0.08457 0.05516 0.0
C766 C 0.35285 0.10387 0.11561 0.0
H767 H 0.27287 0.15966 0.14485 0.0
H768 H 0.28829 0.12816 0.1235 0.0
H769 H 0.32984 0.1165 0.14394 0.0
H770 H 0.44474 0.09808 0.12908 0.0
H771 H 0.4059 0.10935 0.13402 0.0
H772 H 0.36423 0.12563 0.03457 0.0
C773 C 0.29735 0.14745 0.11824 0.0
C774 C 0.3365 0.11808 0.11949 0.0
C775 C 0.2885 0.16543 0.13032 0.0
C776 C 0.42837 0.09378 0.10855 0.0
C777 C 0.40611 0.10011 0.11143 0.0
C778 C 0.35614 0.12295 0.05807 0.0
C779 C 0.31838 0.15433 0.10078 0.0
C780 C 0.33077 0.13568 0.09333 0.0
C781 C 0.38507 0.0962 0.08436 0.0
C782 C 0.36353 0.10684 0.08539 0.0
H783 H 0.33054 0.21671 0.10223 0.0
H784 H 0.34609 0.18536 0.08122 0.0
H785 H 0.3357 0.1507 0.04144 0.0
H786 H 0.40896 0.06959 0.0293 0.0
H787 H 0.37015 0.08144 0.03394 0.0
C788 C 0.80294 0.39468 0.0714 0.0
C789 C 0.82163 0.38115 0.07926 0.0
C790 C 0.80942 0.41901 0.05761 0.0
C791 C 0.84667 0.46065 0.09485 0.0
H792 H 0.90642 0.49166 0.05319 0.0
C793 C 0.95278 0.47371 0.14446 0.0
C794 C 0.96686 0.49745 0.15395 0.0
C795 C 0.92725 0.46968 0.1288 0.0
C796 C 0.88946 0.48376 0.06466 0.0
H797 H 0.85828 0.37942 0.06832 0.0
H798 H 0.86905 0.42089 0.04367 0.0
H799 H 0.86943 0.46477 0.01935 0.0
H800 H 0.96415 0.53441 0.16009 0.0
H801 H 0.91905 0.5271 0.13244 0.0
H802 H 0.86844 0.47646 0.14176 0.0
C803 C 0.84991 0.41363 0.04954 0.0
C804 C 0.8682 0.46859 0.04521 0.0
C805 C 0.84373 0.38956 0.06405 0.0
C806 C 0.95387 0.51607 0.15216 0.0
C807 C 0.92821 0.51203 0.13627 0.0
C808 C 0.86811 0.47544 0.11441 0.0
C809 C 0.83437 0.42951 0.05106 0.0
C810 C 0.84772 0.45489 0.06132 0.0
C811 C 0.91529 0.48915 0.12295 0.0
C812 C 0.89032 0.48527 0.10015 0.0
H813 H 0.78498 0.38805 0.08095 0.0
H814 H 0.79663 0.4306 0.05775 0.0
H815 H 0.83113 0.45058 0.1081 0.0
H816 H 0.962 0.45882 0.14594 0.0
H817 H 0.91729 0.45173 0.1191 0.0
C818 C 0.77209 0.92515 0.11275 0.0
C819 C 0.76933 0.90344 0.09636 0.0
C820 C 0.76008 0.94312 0.0963 0.0
C821 C 0.69846 0.93546 0.04766 0.0
H822 H 0.70849 1.00377 0.06639 0.0
C823 C 0.61293 0.97219 0.05922 0.0
C824 C 0.61714 0.99093 0.08196 0.0
C825 C 0.63346 0.96531 0.05096 0.0
C826 C 0.7053 0.98456 0.06149 0.0
H827 H 0.75643 0.88582 0.04757 0.0
H828 H 0.73478 0.91701 0.01914 0.0
H829 H 0.74543 0.98823 0.06446 0.0
H830 H 0.64601 1.01576 0.11616 0.0
H831 H 0.68163 1.00226 0.10433 0.0
H832 H 0.65899 0.9307 0.04799 0.0
C833 C 0.74586 0.9199 0.04487 0.0
C834 C 0.72647 0.97586 0.05965 0.0
C835 C 0.75804 0.90198 0.06126 0.0
C836 C 0.64216 1.00144 0.09821 0.0
C837 C 0.66268 0.99403 0.09076 0.0
C838 C 0.67743 0.94396 0.05016 0.0
C839 C 0.74498 0.93947 0.06342 0.0
C840 C 0.72328 0.95097 0.05414 0.0
C841 C 0.6587 0.97627 0.06638 0.0
C842 C 0.68063 0.96838 0.05848 0.0
H843 H 0.7808 0.92703 0.13968 0.0
H844 H 0.75985 0.95808 0.11122 0.0
H845 H 0.69537 0.91604 0.04392 0.0
H846 H 0.5938 0.96351 0.04658 0.0
H847 H 0.62939 0.95182 0.03177 0.0
C848 C 0.23848 0.73327 0.2212 0.0
C849 C 0.23864 0.75834 0.21496 0.0
C850 C 0.21938 0.71523 0.20281 0.0
C851 C 0.15265 0.70612 0.16488 0.0
H852 H 0.15841 0.64618 0.13091 0.0
C853 C 0.0622 0.63372 0.11331 0.0
C854 C 0.06165 0.60881 0.12225 0.0
C855 C 0.08522 0.65191 0.11809 0.0
C856 C 0.15646 0.66272 0.14056 0.0
H857 H 0.22038 0.78437 0.18261 0.0
H858 H 0.18694 0.75289 0.1507 0.0
H859 H 0.19715 0.67823 0.15046 0.0
H860 H 0.08507 0.58332 0.14164 0.0
H861 H 0.12521 0.61524 0.15171 0.0
H862 H 0.11241 0.69054 0.15712 0.0
C863 C 0.2014 0.74716 0.17004 0.0
C864 C 0.17865 0.68111 0.15154 0.0
C865 C 0.22058 0.76518 0.18822 0.0
C866 C 0.08484 0.6024 0.13487 0.0
C867 C 0.1079 0.62072 0.14031 0.0
C868 C 0.13062 0.68772 0.15445 0.0
C869 C 0.20004 0.72197 0.17803 0.0
C870 C 0.17691 0.70298 0.16387 0.0
C871 C 0.1083 0.64581 0.13272 0.0
C872 C 0.13212 0.66571 0.14219 0.0
H873 H 0.25235 0.7275 0.24149 0.0
H874 H 0.2188 0.69597 0.20955 0.0
H875 H 0.1507 0.7225 0.17501 0.0
H876 H 0.04478 0.63923 0.10259 0.0
H877 H 0.08479 0.67088 0.11073 0.0
C878 C 0.35428 0.83812 0.86965 0.0
C879 C 0.33686 0.84113 0.8396 0.0
C880 C 0.37508 0.85761 0.88061 0.0
C881 C 0.3942 0.92382 0.88112 0.0
H882 H 0.46207 0.91412 0.91351 0.0
C883 C 0.47787 0.99871 0.95119 0.0
C884 C 0.49336 0.98987 0.9796 0.0
C885 C 0.45971 0.98221 0.92914 0.0
C886 C 0.44319 0.91711 0.90479 0.0
H887 H 0.32771 0.86652 0.79679 0.0
H888 H 0.36398 0.90109 0.81668 0.0
H889 H 0.42896 0.88185 0.88286 0.0
H890 H 0.50134 0.95682 1.00781 0.0
H891 H 0.46948 0.92829 0.97023 0.0
H892 H 0.40799 0.95854 0.9046 0.0
C893 C 0.36151 0.88354 0.83151 0.0
C894 C 0.42433 0.89869 0.88705 0.0
C895 C 0.34088 0.86382 0.82016 0.0
C896 C 0.48994 0.96428 0.98594 0.0
C897 C 0.47178 0.94788 0.96415 0.0
C898 C 0.41303 0.9422 0.89925 0.0
C899 C 0.37867 0.88061 0.86199 0.0
C900 C 0.39951 0.90162 0.87583 0.0
C901 C 0.45666 0.95659 0.93521 0.0
C902 C 0.43754 0.93872 0.91216 0.0
H903 H 0.35166 0.82075 0.88495 0.0
H904 H 0.38792 0.85494 0.90435 0.0
H905 H 0.37512 0.92642 0.8729 0.0
H906 H 0.48009 1.01834 0.94561 0.0
H907 H 0.4484 0.98953 0.90703 0.0
C908 C 0.22058 0.39833 0.9323 0.0
C909 C 0.20797 0.37788 0.91218 0.0
C910 C 0.20686 0.41061 0.94807 0.0
C911 C 0.1405 0.41839 0.94484 0.0
H912 H 0.16841 0.44519 0.03464 0.0
C913 C 0.0769 0.44966 0.02294 0.0
C914 C 0.08677 0.47076 0.04243 0.0
C915 C 0.09269 0.43982 1.00755 0.0
C916 C 0.16038 0.43812 0.00937 0.0
H917 H 0.17036 0.35491 0.89306 0.0
H918 H 0.14676 0.37571 0.92087 0.0
H919 H 0.19338 0.42519 1.00733 0.0
H920 H 0.12177 0.49769 0.06113 0.0
H921 H 0.14958 0.48045 0.03412 0.0
H922 H 0.1075 0.43108 0.94686 0.0
C923 C 0.16736 0.38258 0.92422 0.0
C924 C 0.17478 0.42655 0.99355 0.0
C925 C 0.18105 0.3703 0.90848 0.0
C926 C 0.11334 0.48152 0.0463 0.0
C927 C 0.12932 0.4715 0.03088 0.0
C928 C 0.12615 0.42984 0.96062 0.0
C929 C 0.17994 0.40302 0.94434 0.0
C930 C 0.165 0.41621 0.96109 0.0
C931 C 0.11918 0.45056 0.0109 0.0
C932 C 0.13562 0.43969 0.99338 0.0
H933 H 0.24123 0.40473 0.9364 0.0
H934 H 0.21747 0.42632 0.96293 0.0
H935 H 0.13233 0.41139 0.91956 0.0
H936 H 0.05668 0.44053 0.01936 0.0
H937 H 0.08399 0.42345 0.99322 0.0
C938 C 0.73907 0.20922 0.86008 0.0
C939 C 0.73969 0.2342 0.85126 0.0
C940 C 0.71998 0.19408 0.87739 0.0
C941 C 0.66978 0.19658 0.92795 0.0
H942 H 0.6414 0.12849 0.90423 0.0
C943 C 0.57425 0.1376 0.96471 0.0
C944 C 0.57285 0.11309 0.97766 0.0
C945 C 0.59565 0.15175 0.95116 0.0
C946 C 0.64932 0.14738 0.91143 0.0
H947 H 0.72061 0.26279 0.85373 0.0
H948 H 0.68708 0.23643 0.88295 0.0
H949 H 0.6765 0.15438 0.87703 0.0
H950 H 0.59312 0.0843 0.98628 0.0
H951 H 0.63046 0.10904 0.9621 0.0
H952 H 0.64206 0.18969 0.9616 0.0
C953 C 0.70164 0.22853 0.87735 0.0
C954 C 0.66953 0.16228 0.89589 0.0
C955 C 0.72085 0.2437 0.86034 0.0
C956 C 0.5935 0.10309 0.97655 0.0
C957 C 0.61486 0.11722 0.96256 0.0
C958 C 0.64944 0.18177 0.94318 0.0
C959 C 0.70085 0.20346 0.8861 0.0
C960 C 0.67995 0.18719 0.9037 0.0
C961 C 0.61622 0.14177 0.94983 0.0
C962 C 0.63879 0.15705 0.93492 0.0
H963 H 0.75335 0.20131 0.8536 0.0
H964 H 0.72036 0.17504 0.88412 0.0
H965 H 0.67758 0.21543 0.93535 0.0
H966 H 0.5588 0.146 0.96516 0.0
H967 H 0.59592 0.17048 0.94122 0.0
C968 C 0.85802 0.74112 0.84337 0.0
C969 C 0.8408 0.75167 0.85479 0.0
C970 C 0.87118 0.72598 0.86605 0.0
C971 C 0.86597 0.6848 0.94463 0.0
H972 H 0.93864 0.69188 0.95052 0.0
C973 C 0.91743 0.60971 1.00772 0.0
C974 C 0.94118 0.61732 0.02946 0.0
C975 C 0.90517 0.62703 0.98908 0.0
C976 C 0.91836 0.68978 0.94933 0.0
H977 H 0.82403 0.7544 0.89928 0.0
H978 H 0.84658 0.72782 0.93835 0.0
H979 H 0.91778 0.72033 0.91184 0.0
H980 H 0.97037 0.64925 0.04919 0.0
H981 H 0.94911 0.67961 0.01598 0.0
H982 H 0.86639 0.65396 0.98149 0.0
C983 C 0.85001 0.73135 0.91192 0.0
C984 C 0.90638 0.70593 0.92695 0.0
C985 C 0.83719 0.74675 0.88949 0.0
C986 C 0.95206 0.64275 0.0328 0.0
C987 C 0.93999 0.66014 0.01356 0.0
C988 C 0.87784 0.66842 0.96653 0.0
C989 C 0.86709 0.72068 0.90051 0.0
C990 C 0.88002 0.70363 0.92433 0.0
C991 C 0.91652 0.65246 0.99119 0.0
C992 C 0.90418 0.67068 0.96915 0.0
H993 H 0.86128 0.74447 0.81687 0.0
H994 H 0.88409 0.71792 0.85639 0.0
H995 H 0.84561 0.68241 0.94307 0.0
H996 H 0.90847 0.59028 1.00458 0.0
H997 H 0.88718 0.62048 0.97201 0.0
C998 C 0.2202 0.33914 0.21374 0.0
C999 C 0.23469 0.34021 0.24745 0.0
C1000 C 0.20214 0.35322 0.20277 0.0
C1001 C 0.18317 0.40881 0.22314 0.0
H1002 H 0.1196 0.38139 0.16279 0.0
C1003 C 0.10296 0.46154 0.19014 0.0
C1004 C 0.08586 0.45897 0.15838 0.0
C1005 C 0.12061 0.44701 0.20007 0.0
C1006 C 0.13734 0.38968 0.17921 0.0
H1007 H 0.24096 0.35752 0.29585 0.0
H1008 H 0.20979 0.38215 0.27679 0.0
H1009 H 0.15058 0.35682 0.18189 0.0
H1010 H 0.07454 0.43842 0.11218 0.0
H1011 H 0.10572 0.41352 0.12889 0.0
H1012 H 0.17038 0.44178 0.22009 0.0
C1013 C 0.21247 0.37039 0.25861 0.0
C1014 C 0.15528 0.37539 0.19037 0.0
C1015 C 0.23041 0.35607 0.26972 0.0
C1016 C 0.08719 0.44109 0.13685 0.0
C1017 C 0.10515 0.4266 0.14669 0.0
C1018 C 0.16538 0.42315 0.21177 0.0
C1019 C 0.19788 0.36922 0.22488 0.0
C1020 C 0.17854 0.38459 0.21275 0.0
C1021 C 0.12235 0.42928 0.17858 0.0
C1022 C 0.1419 0.4139 0.18974 0.0
H1023 H 0.22273 0.32726 0.19559 0.0
H1024 H 0.19177 0.35182 0.17653 0.0
H1025 H 0.20089 0.41699 0.23971 0.0
H1026 H 0.10267 0.47483 0.20784 0.0
H1027 H 0.13268 0.44959 0.22514 0.0
C1028 C 0.21012 0.69421 0.98919 0.0
C1029 C 0.21994 0.69119 0.9601 0.0
C1030 C 0.1986 0.67371 0.00886 0.0
C1031 C 0.16163 0.61102 0.99091 0.0
H1032 H 0.14377 0.61596 0.07976 0.0
C1033 C 0.06425 0.55873 0.03215 0.0
C1034 C 0.0514 0.57659 0.03556 0.0
C1035 C 0.0905 0.56568 0.03102 0.0
C1036 C 0.14894 0.61393 0.05528 0.0
H1037 H 0.22841 0.66449 0.93147 0.0
H1038 H 0.20904 0.62867 0.96657 0.0
H1039 H 0.18454 0.64108 0.06558 0.0
H1040 H 0.05605 0.6156 0.04082 0.0
H1041 H 0.10162 0.62744 0.03965 0.0
H1042 H 0.12538 0.5847 0.98019 0.0
C1043 C 0.20946 0.64686 0.97352 0.0
C1044 C 0.17214 0.62842 0.04699 0.0
C1045 C 0.22079 0.66742 0.95357 0.0
C1046 C 0.06527 0.60139 0.03793 0.0
C1047 C 0.09144 0.60816 0.03777 0.0
C1048 C 0.13866 0.59621 0.99949 0.0
C1049 C 0.19685 0.64968 1.00007 0.0
C1050 C 0.17786 0.62848 0.0137 0.0
C1051 C 0.10428 0.59042 0.03431 0.0
C1052 C 0.13146 0.59881 0.03077 0.0
H1053 H 0.20981 0.71237 0.9954 0.0
H1054 H 0.18914 0.67683 0.02899 0.0
H1055 H 0.1652 0.61048 0.96501 0.0
H1056 H 0.05405 0.53946 0.03046 0.0
H1057 H 0.10006 0.55179 0.02786 0.0
C1058 C 0.30988 0.21098 0.85729 0.0
C1059 C 0.3162 0.23579 0.86521 0.0
C1060 C 0.32133 0.19422 0.87845 0.0
C1061 C 0.36327 0.18393 0.96145 0.0
H1062 H 0.38764 0.14681 0.90395 0.0
C1063 C 0.44646 0.13576 1.00662 0.0
C1064 C 0.44492 0.11445 0.98999 0.0
C1065 C 0.42712 0.14826 0.99749 0.0
C1066 C 0.38061 0.15658 0.92057 0.0
H1067 H 0.33804 0.26231 0.90265 0.0
H1068 H 0.3589 0.233 0.93935 0.0
H1069 H 0.36015 0.17288 0.8772 0.0
H1070 H 0.42073 0.08787 0.95398 0.0
H1071 H 0.38688 0.10916 0.93885 0.0
H1072 H 0.38473 0.16789 1.0049 0.0
C1073 C 0.34474 0.22644 0.91704 0.0
C1074 C 0.36479 0.1716 0.90516 0.0
C1075 C 0.33289 0.24323 0.89601 0.0
C1076 C 0.4228 0.10468 0.96645 0.0
C1077 C 0.40339 0.11688 0.9578 0.0
C1078 C 0.37928 0.16877 0.97703 0.0
C1079 C 0.33979 0.20199 0.90766 0.0
C1080 C 0.35583 0.18542 0.92529 0.0
C1081 C 0.40587 0.13943 0.97191 0.0
C1082 C 0.38803 0.15486 0.95665 0.0
H1083 H 0.2967 0.20469 0.83399 0.0
H1084 H 0.31657 0.17535 0.87103 0.0
H1085 H 0.35668 0.1944 0.97764 0.0
H1086 H 0.46318 0.14349 0.02525 0.0
H1087 H 0.42956 0.16555 0.00892 0.0
C1088 C 0.84098 0.31343 0.90911 0.0
C1089 C 0.8309 0.31994 0.87492 0.0
C1090 C 0.85449 0.33154 0.93235 0.0
C1091 C 0.86717 0.39762 0.95063 0.0
H1092 H 0.93062 0.38701 1.00354 0.0
C1093 C 0.94355 0.47414 0.03095 0.0
C1094 C 0.96057 0.46693 0.05895 0.0
C1095 C 0.92502 0.45642 0.01075 0.0
C1096 C 0.91274 0.39024 0.98974 0.0
H1097 H 0.82636 0.35089 0.83892 0.0
H1098 H 0.84973 0.38265 0.87976 0.0
H1099 H 0.90382 0.35649 0.9643 0.0
H1100 H 0.9704 0.4354 0.08889 0.0
H1101 H 0.93743 0.40461 0.05539 0.0
H1102 H 0.87601 0.43134 0.97639 0.0
C1103 C 0.84725 0.36341 0.88849 0.0
C1104 C 0.89733 0.37262 0.96686 0.0
C1105 C 0.83392 0.34519 0.865 0.0
C1106 C 0.95757 0.44158 0.06752 0.0
C1107 C 0.93883 0.4239 0.0478 0.0
C1108 C 0.8825 0.41522 0.97391 0.0
C1109 C 0.85819 0.35684 0.92236 0.0
C1110 C 0.87432 0.37598 0.94686 0.0
C1111 C 0.92289 0.43093 0.01811 0.0
C1112 C 0.90564 0.41186 0.99394 0.0
H1113 H 0.83891 0.29422 0.91784 0.0
H1114 H 0.86219 0.32568 0.95827 0.0
H1115 H 0.84949 0.4008 0.93593 0.0
H1116 H 0.94566 0.49352 0.02323 0.0
H1117 H 0.91338 0.46287 0.98825 0.0
C1118 C 0.71521 0.88826 0.92014 0.0
C1119 C 0.7409 0.89592 0.91561 0.0
C1120 C 0.70252 0.90537 0.92585 0.0
C1121 C 0.70886 0.96359 0.95997 0.0
H1122 H 0.64396 0.96125 0.8996 0.0
C1123 C 0.63767 1.01557 0.98845 0.0
C1124 C 0.61195 1.00191 0.98327 0.0
C1125 C 0.65614 1.0076 0.97588 0.0
C1126 C 0.66193 0.96208 0.91692 0.0
H1127 H 0.7737 0.92735 0.91448 0.0
H1128 H 0.75136 0.95748 0.92535 0.0
H1129 H 0.67153 0.93704 0.88778 0.0
H1130 H 0.58549 0.96939 0.96041 0.0
H1131 H 0.61724 0.95527 0.93986 0.0
H1132 H 0.69881 0.98784 0.98988 0.0
C1133 C 0.74118 0.93818 0.92406 0.0
C1134 C 0.67777 0.94832 0.90994 0.0
C1135 C 0.75385 0.92103 0.91774 0.0
C1136 C 0.60505 0.98054 0.96469 0.0
C1137 C 0.62338 0.97252 0.95251 0.0
C1138 C 0.6928 0.97722 0.96721 0.0
C1139 C 0.71527 0.93047 0.92753 0.0
C1140 C 0.70092 0.94827 0.93207 0.0
C1141 C 0.64922 0.98581 0.95796 0.0
C1142 C 0.66859 0.9757 0.94668 0.0
H1143 H 0.70468 0.86909 0.9183 0.0
H1144 H 0.68259 0.89897 0.92878 0.0
H1145 H 0.72677 0.96395 0.97725 0.0
H1146 H 0.64362 0.03204 1.00288 0.0
H1147 H 0.67583 1.01839 0.98048 0.0
C1148 C 0.84171 0.72608 0.27897 0.0
C1149 C 0.83004 0.74258 0.25622 0.0
C1150 C 0.85425 0.71035 0.26677 0.0
C1151 C 0.88419 0.70272 0.19028 0.0
H1152 H 0.88046 0.63592 0.22884 0.0
C1153 C 0.94837 0.64405 0.1536 0.0
C1154 C 0.93881 0.61836 0.14959 0.0
C1155 C 0.93461 0.65814 0.16628 0.0
C1156 C 0.88174 0.65448 0.21746 0.0
H1157 H 0.82325 0.75483 0.20208 0.0
H1158 H 0.84505 0.72837 0.1814 0.0
H1159 H 0.85869 0.66191 0.25172 0.0
H1160 H 0.90627 0.58783 0.15678 0.0
H1161 H 0.88245 0.61222 0.17951 0.0
H1162 H 0.90734 0.69553 0.15629 0.0
C1163 C 0.84461 0.72735 0.20883 0.0
C1164 C 0.86931 0.66965 0.23098 0.0
C1165 C 0.8318 0.74268 0.22087 0.0
C1166 C 0.91456 0.60743 0.15911 0.0
C1167 C 0.90087 0.62156 0.17251 0.0
C1168 C 0.89693 0.68775 0.17722 0.0
C1169 C 0.85617 0.71068 0.23132 0.0
C1170 C 0.87009 0.69418 0.21762 0.0
C1171 C 0.91054 0.64737 0.17631 0.0
C1172 C 0.89606 0.66318 0.19034 0.0
H1173 H 0.84097 0.7251 0.30631 0.0
H1174 H 0.86284 0.69814 0.28539 0.0
H1175 H 0.88579 0.72134 0.17903 0.0
H1176 H 0.96682 0.65357 0.1468 0.0
H1177 H 0.94328 0.67765 0.16885 0.0
C1178 C 0.33889 0.87169 0.23322 0.0
C1179 C 0.33511 0.84639 0.22903 0.0
C1180 C 0.35652 0.88956 0.21648 0.0
C1181 C 0.41434 0.89659 0.17713 0.0
H1182 H 0.40338 0.96073 0.14348 0.0
C1183 C 0.49712 0.97624 0.14099 0.0
C1184 C 0.49257 0.99164 0.1112 0.0
C1185 C 0.47694 0.95935 0.15409 0.0
C1186 C 0.40669 0.94285 0.15247 0.0
H1187 H 0.34648 0.82023 0.20292 0.0
H1188 H 0.37682 0.85128 0.17343 0.0
H1189 H 0.36955 0.92944 0.16697 0.0
H1190 H 0.46275 1.00159 0.07246 0.0
H1191 H 0.42736 0.97187 0.09532 0.0
H1192 H 0.45124 0.90972 0.16232 0.0
C1193 C 0.36653 0.85736 0.19017 0.0
C1194 C 0.38736 0.92496 0.16632 0.0
C1195 C 0.34894 0.8395 0.20694 0.0
C1196 C 0.46703 0.99011 0.09547 0.0
C1197 C 0.44671 0.97306 0.10863 0.0
C1198 C 0.43361 0.91442 0.16337 0.0
C1199 C 0.37087 0.88265 0.19505 0.0
C1200 C 0.39097 0.90159 0.17905 0.0
C1201 C 0.45145 0.95714 0.13783 0.0
C1202 C 0.43022 0.93792 0.15114 0.0
H1203 H 0.32867 0.87773 0.25011 0.0
H1204 H 0.35946 0.90877 0.22125 0.0
H1205 H 0.41806 0.87899 0.18697 0.0
H1206 H 0.51644 0.97697 0.15414 0.0
H1207 H 0.48139 0.94791 0.17707 0.0
C1208 C 0.74047 0.24074 0.19297 0.0
C1209 C 0.744 0.25135 0.22468 0.0
C1210 C 0.71832 0.22264 0.182 0.0
C1211 C 0.65126 0.19703 0.19349 0.0
H1212 H 0.65775 0.1434 0.14492 0.0
C1213 C 0.58617 0.1013 0.12482 0.0
C1214 C 0.56511 0.10965 0.10687 0.0
C1215 C 0.60714 0.1175 0.14325 0.0
C1216 C 0.6555 0.158 0.15882 0.0
H1217 H 0.72711 0.25153 0.26987 0.0
H1218 H 0.6881 0.2194 0.25077 0.0
H1219 H 0.69592 0.17291 0.17066 0.0
H1220 H 0.54949 0.14161 0.09472 0.0
H1221 H 0.58638 0.17002 0.12614 0.0
H1222 H 0.61071 0.18182 0.18188 0.0
C1223 C 0.70251 0.2253 0.23429 0.0
C1224 C 0.67744 0.17516 0.17322 0.0
C1225 C 0.72484 0.24356 0.24532 0.0
C1226 C 0.56535 0.13453 0.10835 0.0
C1227 C 0.58646 0.15081 0.12658 0.0
C1228 C 0.62921 0.17975 0.17913 0.0
C1229 C 0.69909 0.21456 0.20252 0.0
C1230 C 0.67563 0.19515 0.19019 0.0
C1231 C 0.60776 0.14256 0.14395 0.0
C1232 C 0.63105 0.16019 0.16121 0.0
H1233 H 0.75484 0.24653 0.17639 0.0
H1234 H 0.71614 0.21522 0.15708 0.0
H1235 H 0.64916 0.21227 0.20623 0.0
H1236 H 0.58656 0.08222 0.12454 0.0
H1237 H 0.62295 0.11036 0.15685 0.0
C1238 C 0.7291 0.7098 0.80654 0.0
C1239 C 0.74243 0.73387 0.81603 0.0
C1240 C 0.71185 0.69416 0.82645 0.0
C1241 C 0.67186 0.69434 0.89355 0.0
H1242 H 0.66369 0.62358 0.89922 0.0
C1243 C 0.58301 0.62609 0.93908 0.0
C1244 C 0.58495 0.60406 0.95899 0.0
C1245 C 0.60367 0.64148 0.92487 0.0
C1246 C 0.66577 0.64328 0.89829 0.0
H1247 H 0.74799 0.75994 0.85491 0.0
H1248 H 0.71778 0.73284 0.88968 0.0
H1249 H 0.69663 0.65094 0.86934 0.0
H1250 H 0.61125 0.58147 0.97923 0.0
H1251 H 0.64755 0.60839 0.95403 0.0
H1252 H 0.64108 0.68673 0.9225 0.0
C1253 C 0.72049 0.72606 0.8664 0.0
C1254 C 0.6846 0.65911 0.88065 0.0
C1255 C 0.73795 0.74173 0.84644 0.0
C1256 C 0.60877 0.59814 0.96416 0.0
C1257 C 0.62961 0.61361 0.94948 0.0
C1258 C 0.65296 0.67853 0.91096 0.0
C1259 C 0.70707 0.70189 0.8568 0.0
C1260 C 0.68785 0.68497 0.87754 0.0
C1261 C 0.62744 0.63568 0.92964 0.0
C1262 C 0.64926 0.65263 0.91331 0.0
H1263 H 0.73191 0.70295 0.78335 0.0
H1264 H 0.70183 0.67604 0.81751 0.0
H1265 H 0.67339 0.71397 0.89184 0.0
H1266 H 0.56527 0.63168 0.93427 0.0
H1267 H 0.60072 0.65786 0.90943 0.0
C1268 C 0.35933 0.75006 0.82703 0.0
C1269 C 0.3348 0.74649 0.83526 0.0
C1270 C 0.37502 0.73453 0.84222 0.0
C1271 C 0.38459 0.68942 0.91668 0.0
H1272 H 0.42283 0.66762 0.85872 0.0
C1273 C 0.46 0.63307 0.9709 0.0
C1274 C 0.46075 0.6141 0.95095 0.0
C1275 C 0.44442 0.64921 0.95809 0.0
C1276 C 0.41218 0.67338 0.8753 0.0
H1277 H 0.30778 0.72378 0.8665 0.0
H1278 H 0.33504 0.69677 0.89282 0.0
H1279 H 0.39642 0.6957 0.8341 0.0
H1280 H 0.44498 0.59697 0.90213 0.0
H1281 H 0.41798 0.62488 0.88004 0.0
H1282 H 0.40015 0.66676 0.95777 0.0
C1283 C 0.34227 0.71171 0.87479 0.0
C1284 C 0.39723 0.68977 0.86123 0.0
C1285 C 0.32654 0.72716 0.85947 0.0
C1286 C 0.44509 0.6114 0.91823 0.0
C1287 C 0.42968 0.62757 0.90538 0.0
C1288 C 0.3997 0.67311 0.93083 0.0
C1289 C 0.36668 0.71504 0.86622 0.0
C1290 C 0.38311 0.69797 0.88164 0.0
C1291 C 0.42931 0.6469 0.92491 0.0
C1292 C 0.41358 0.66472 0.91027 0.0
H1293 H 0.36641 0.76477 0.80859 0.0
H1294 H 0.3938 0.7379 0.83528 0.0
H1295 H 0.3742 0.69549 0.93331 0.0
H1296 H 0.4717 0.63567 0.99626 0.0
H1297 H 0.44473 0.66391 0.97384 0.0
C1298 C 0.37187 0.35379 0.80121 0.0
C1299 C 0.35192 0.33684 0.81496 0.0
C1300 C 0.38805 0.37289 0.82081 0.0
C1301 C 0.41053 0.38918 0.91155 0.0
H1302 H 0.44017 0.4533 0.86962 0.0
C1303 C 0.50021 0.45542 0.98029 0.0
C1304 C 0.5021 0.48088 0.97636 0.0
C1305 C 0.48003 0.43895 0.96117 0.0
C1306 C 0.43181 0.43561 0.88184 0.0
H1307 H 0.33261 0.32682 0.85936 0.0
H1308 H 0.36032 0.36055 0.89322 0.0
H1309 H 0.40743 0.42318 0.83467 0.0
H1310 H 0.48399 0.50902 0.94974 0.0
H1311 H 0.44841 0.48013 0.91665 0.0
H1312 H 0.43453 0.40168 0.95881 0.0
C1313 C 0.36393 0.35884 0.86768 0.0
C1314 C 0.41329 0.41823 0.86169 0.0
C1315 C 0.34794 0.33963 0.84821 0.0
C1316 C 0.48316 0.48951 0.95316 0.0
C1317 C 0.46284 0.47298 0.93411 0.0
C1318 C 0.42889 0.40658 0.9317 0.0
C1319 C 0.38443 0.37549 0.85443 0.0
C1320 C 0.40271 0.39468 0.8762 0.0
C1321 C 0.46111 0.44751 0.93783 0.0
C1322 C 0.44008 0.42984 0.91696 0.0
H1323 H 0.37532 0.35199 0.77561 0.0
H1324 H 0.40384 0.38516 0.80997 0.0
H1325 H 0.40302 0.37116 0.92353 0.0
H1326 H 0.51455 0.44816 0.99782 0.0
H1327 H 0.47956 0.41952 0.96421 0.0
C1328 C 0.73107 0.42324 0.83962 0.0
C1329 C 0.73591 0.40087 0.85475 0.0
C1330 C 0.72298 0.43841 0.85847 0.0
C1331 C 0.71397 0.44925 0.94622 0.0
H1332 H 0.65259 0.46602 0.89568 0.0
C1333 C 0.64911 0.49865 1.00113 0.0
C1334 C 0.62318 0.48557 0.99544 0.0
C1335 C 0.66694 0.49162 0.98583 0.0
C1336 C 0.66986 0.46168 0.91003 0.0
H1337 H 0.73747 0.37763 0.90222 0.0
H1338 H 0.72327 0.40405 0.93506 0.0
H1339 H 0.6779 0.44878 0.86557 0.0
H1340 H 0.59587 0.45444 0.9701 0.0
H1341 H 0.62666 0.44264 0.94341 0.0
H1342 H 0.70501 0.46143 0.99106 0.0
C1343 C 0.72596 0.40999 0.90871 0.0
C1344 C 0.6845 0.452 0.89275 0.0
C1345 C 0.73407 0.39481 0.88984 0.0
C1346 C 0.61561 0.46507 0.97495 0.0
C1347 C 0.63323 0.45832 0.95947 0.0
C1348 C 0.69935 0.45922 0.96352 0.0
C1349 C 0.71952 0.43155 0.89289 0.0
C1350 C 0.70639 0.44509 0.91075 0.0
C1351 C 0.65895 0.47169 0.96428 0.0
C1352 C 0.67677 0.46483 0.9457 0.0
H1353 H 0.73283 0.42869 0.81285 0.0
H1354 H 0.71862 0.45514 0.84574 0.0
H1355 H 0.73085 0.44427 0.96071 0.0
H1356 H 0.65554 0.51444 0.01694 0.0
H1357 H 0.68674 0.50215 0.98998 0.0
C1358 C 0.71791 0.3394 0.22916 0.0
C1359 C 0.74325 0.34349 0.22362 0.0
C1360 C 0.70241 0.35468 0.21231 0.0
C1361 C 0.70655 0.41723 0.16922 0.0
H1362 H 0.63375 0.39138 0.13887 0.0
C1363 C 0.63732 0.48062 0.13427 0.0
C1364 C 0.61677 0.47487 0.10666 0.0
C1365 C 0.65294 0.46448 0.14594 0.0
C1366 C 0.65409 0.39892 0.14686 0.0
H1367 H 0.77178 0.36673 0.19512 0.0
H1368 H 0.7448 0.39311 0.16558 0.0
H1369 H 0.6602 0.36314 0.16316 0.0
H1370 H 0.59702 0.44762 0.06922 0.0
H1371 H 0.6244 0.41947 0.08949 0.0
H1372 H 0.70051 0.45297 0.15275 0.0
C1373 C 0.73698 0.3783 0.18339 0.0
C1374 C 0.66925 0.38272 0.16121 0.0
C1375 C 0.75246 0.36301 0.20022 0.0
C1376 C 0.61255 0.45263 0.09067 0.0
C1377 C 0.62819 0.4364 0.10243 0.0
C1378 C 0.69139 0.43342 0.15499 0.0
C1379 C 0.71179 0.37453 0.18944 0.0
C1380 C 0.69569 0.39164 0.17284 0.0
C1381 C 0.64855 0.44204 0.13038 0.0
C1382 C 0.6649 0.42455 0.14386 0.0
H1383 H 0.7101 0.3246 0.247 0.0
H1384 H 0.68326 0.3513 0.21798 0.0
H1385 H 0.72674 0.4249 0.17813 0.0
H1386 H 0.64122 0.49754 0.1473 0.0
H1387 H 0.66817 0.46938 0.16778 0.0
C1388 C 0.72747 0.74155 0.22379 0.0
C1389 C 0.7247 0.74505 0.25739 0.0
C1390 C 0.70816 0.72541 0.20292 0.0
C1391 C 0.63988 0.69289 0.1907 0.0
H1392 H 0.66137 0.64826 0.14137 0.0
C1393 C 0.59282 0.60063 0.10739 0.0
C1394 C 0.57274 0.60823 0.08524 0.0
C1395 C 0.6111 0.61726 0.12899 0.0
C1396 C 0.65506 0.66047 0.15518 0.0
H1397 H 0.69925 0.7353 0.29512 0.0
H1398 H 0.66528 0.70692 0.25849 0.0
H1399 H 0.69334 0.67785 0.17805 0.0
H1400 H 0.55624 0.63933 0.06828 0.0
H1401 H 0.58817 0.66823 0.10576 0.0
H1402 H 0.60154 0.67531 0.168 0.0
C1403 C 0.68242 0.71671 0.24834 0.0
C1404 C 0.67337 0.6776 0.17587 0.0
C1405 C 0.70184 0.73288 0.26931 0.0
C1406 C 0.57142 0.63282 0.08505 0.0
C1407 C 0.58961 0.64937 0.10672 0.0
C1408 C 0.62155 0.67581 0.16985 0.0
C1409 C 0.68563 0.71246 0.21518 0.0
C1410 C 0.666 0.69408 0.1937 0.0
C1411 C 0.6096 0.64177 0.12897 0.0
C1412 C 0.62897 0.65949 0.15178 0.0
H1413 H 0.74482 0.7509 0.21382 0.0
H1414 H 0.71096 0.7229 0.17724 0.0
H1415 H 0.63365 0.70542 0.20402 0.0
H1416 H 0.59439 0.58183 0.10818 0.0
H1417 H 0.6262 0.61083 0.14606 0.0
C1418 C 0.3215 0.63985 0.19968 0.0
C1419 C 0.3221 0.66427 0.1873 0.0
C1420 C 0.32854 0.62418 0.18038 0.0
C1421 C 0.34835 0.61939 0.09606 0.0
H1422 H 0.39908 0.59076 0.15555 0.0
C1423 C 0.42161 0.5782 0.04697 0.0
C1424 C 0.44688 0.58911 0.06227 0.0
C1425 C 0.40095 0.582 0.05977 0.0
C1426 C 0.38474 0.59836 0.13859 0.0
H1427 H 0.32882 0.69092 0.14404 0.0
H1428 H 0.34163 0.66391 0.11079 0.0
H1429 H 0.37031 0.60652 0.18112 0.0
H1430 H 0.47034 0.61233 0.10295 0.0
H1431 H 0.43461 0.61859 0.12533 0.0
H1432 H 0.36431 0.61252 0.05362 0.0
C1433 C 0.33527 0.65655 0.135 0.0
C1434 C 0.36802 0.6072 0.1532 0.0
C1435 C 0.32799 0.67212 0.15415 0.0
C1436 C 0.45111 0.60369 0.09055 0.0
C1437 C 0.43064 0.60713 0.10358 0.0
C1438 C 0.36514 0.61045 0.0814 0.0
C1439 C 0.33666 0.63274 0.14854 0.0
C1440 C 0.35025 0.61869 0.13224 0.0
C1441 C 0.40538 0.59631 0.08845 0.0
C1442 C 0.38415 0.60079 0.10271 0.0
H1443 H 0.31666 0.63323 0.22496 0.0
H1444 H 0.32886 0.60576 0.19123 0.0
H1445 H 0.33464 0.62781 0.07916 0.0
H1446 H 0.41783 0.567 0.02499 0.0
H1447 H 0.38161 0.57358 0.0476 0.0
C1448 C 0.37251 0.34534 0.24746 0.0
C1449 C 0.34615 0.34392 0.24141 0.0
C1450 C 0.38947 0.36267 0.22883 0.0
C1451 C 0.39292 0.41012 0.15187 0.0
H1452 H 0.46312 0.43104 0.19791 0.0
C1453 C 0.47388 0.47692 0.08172 0.0
C1454 C 0.49597 0.49081 0.10204 0.0
C1455 C 0.45448 0.45984 0.09727 0.0
C1456 C 0.44359 0.42598 0.18445 0.0
H1457 H 0.31711 0.35993 0.21016 0.0
H1458 H 0.34662 0.39078 0.17848 0.0
H1459 H 0.4324 0.40136 0.22698 0.0
H1460 H 0.51403 0.49825 0.15483 0.0
H1461 H 0.48021 0.47033 0.18154 0.0
H1462 H 0.40416 0.43592 0.10991 0.0
C1463 C 0.35435 0.37806 0.19716 0.0
C1464 C 0.42574 0.40816 0.20116 0.0
C1465 C 0.33723 0.3603 0.21552 0.0
C1466 C 0.49743 0.48788 0.1382 0.0
C1467 C 0.47796 0.47134 0.15365 0.0
C1468 C 0.41081 0.42831 0.13525 0.0
C1469 C 0.38099 0.37986 0.20369 0.0
C1470 C 0.39997 0.39957 0.18529 0.0
C1471 C 0.45633 0.45628 0.13372 0.0
C1472 C 0.43664 0.43671 0.15118 0.0
H1473 H 0.38017 0.33295 0.26688 0.0
H1474 H 0.40939 0.36237 0.23434 0.0
H1475 H 0.37356 0.40419 0.13811 0.0
H1476 H 0.47218 0.47831 0.05381 0.0
H1477 H 0.43851 0.44879 0.08052 0.0
C1478 C 0.87839 0.69965 0.66496 0.0
C1479 C 0.86137 0.7109 0.64199 0.0
C1480 C 0.89368 0.68762 0.65252 0.0
C1481 C 0.89912 0.65832 0.57615 0.0
H1482 H 0.9679 0.66267 0.626 0.0
C1483 C 0.96642 0.60447 0.54064 0.0
C1484 C 0.97707 0.59109 0.56911 0.0
C1485 C 0.9541 0.62224 0.5457 0.0
C1486 C 0.94872 0.66127 0.61184 0.0
H1487 H 0.84683 0.71789 0.58773 0.0
H1488 H 0.87402 0.69732 0.56603 0.0
H1489 H 0.94262 0.68787 0.6418 0.0
H1490 H 0.98387 0.5865 0.62518 0.0
H1491 H 0.96248 0.61719 0.63383 0.0
H1492 H 0.9053 0.63144 0.54644 0.0
C1493 C 0.87532 0.69765 0.59372 0.0
C1494 C 0.9342 0.67564 0.62094 0.0
C1495 C 0.8599 0.70962 0.60618 0.0
C1496 C 0.97573 0.59629 0.60263 0.0
C1497 C 0.96365 0.61407 0.60765 0.0
C1498 C 0.91376 0.64403 0.56687 0.0
C1499 C 0.89251 0.68664 0.61677 0.0
C1500 C 0.90893 0.67373 0.60398 0.0
C1501 C 0.95249 0.62708 0.57931 0.0
C1502 C 0.93841 0.64482 0.58537 0.0
H1503 H 0.88035 0.70056 0.69265 0.0
H1504 H 0.90636 0.67895 0.67105 0.0
H1505 H 0.8797 0.65637 0.5626 0.0
H1506 H 0.96736 0.60107 0.5145 0.0
H1507 H 0.94587 0.63221 0.52342 0.0
C1508 C 0.45257 0.8572 0.68673 0.0
C1509 C 0.44568 0.85821 0.71898 0.0
C1510 C 0.47451 0.87356 0.67738 0.0
C1511 C 0.507 0.93672 0.68998 0.0
H1512 H 0.54959 0.92595 0.62848 0.0
C1513 C 0.55595 1.01729 0.605 0.0
C1514 C 0.55355 1.01211 0.57031 0.0
C1515 C 0.55129 0.99812 0.63037 0.0
C1516 C 0.53783 0.9293 0.6456 0.0
H1517 H 0.4582 0.87529 0.76823 0.0
H1518 H 0.49613 0.90448 0.75128 0.0
H1519 H 0.52642 0.89094 0.66171 0.0
H1520 H 0.54545 0.98278 0.53523 0.0
H1521 H 0.53627 0.9495 0.57895 0.0
H1522 H 0.51645 0.97456 0.6721 0.0
C1523 C 0.48436 0.89106 0.73328 0.0
C1524 C 0.52476 0.90927 0.66481 0.0
C1525 C 0.46256 0.87445 0.74284 0.0
C1526 C 0.54744 0.9874 0.56174 0.0
C1527 C 0.54242 0.96826 0.58698 0.0
C1528 C 0.51975 0.95666 0.67049 0.0
C1529 C 0.48991 0.89143 0.69992 0.0
C1530 C 0.50852 0.9127 0.68624 0.0
C1531 C 0.54374 0.97336 0.62152 0.0
C1532 C 0.53455 0.95307 0.64705 0.0
H1533 H 0.44002 0.8452 0.66747 0.0
H1534 H 0.47815 0.87357 0.65136 0.0
H1535 H 0.49434 0.9399 0.70593 0.0
H1536 H 0.56107 0.03616 0.6125 0.0
H1537 H 0.55303 1.00275 0.6568 0.0
C1538 C 0.25005 0.32537 0.67547 0.0
C1539 C 0.26397 0.33529 0.70672 0.0
C1540 C 0.23712 0.3395 0.65099 0.0
C1541 C 0.23279 0.40205 0.62149 0.0
H1542 H 0.15918 0.37591 0.60993 0.0
C1543 C 0.16554 0.46464 0.60117 0.0
C1544 C 0.14064 0.45728 0.58251 0.0
C1545 C 0.18171 0.44893 0.60644 0.0
C1546 C 0.17965 0.38329 0.61189 0.0
H1547 H 0.2765 0.36801 0.73613 0.0
H1548 H 0.25436 0.39291 0.69287 0.0
H1549 H 0.18706 0.3497 0.6369 0.0
H1550 H 0.11341 0.42796 0.5536 0.0
H1551 H 0.14186 0.40033 0.56274 0.0
H1552 H 0.22552 0.43576 0.59702 0.0
C1553 C 0.25334 0.37418 0.68752 0.0
C1554 C 0.1956 0.36828 0.62748 0.0
C1555 C 0.26581 0.35991 0.71233 0.0
C1556 C 0.13236 0.43395 0.56865 0.0
C1557 C 0.14868 0.4182 0.57376 0.0
C1558 C 0.21687 0.41694 0.60533 0.0
C1559 C 0.23844 0.3639 0.65704 0.0
C1560 C 0.22223 0.37791 0.63377 0.0
C1561 C 0.17349 0.42546 0.59299 0.0
C1562 C 0.19011 0.40812 0.60202 0.0
H1563 H 0.24822 0.30638 0.67054 0.0
H1564 H 0.22563 0.33122 0.6277 0.0
H1565 H 0.25333 0.40971 0.62572 0.0
H1566 H 0.17258 0.48254 0.6121 0.0
H1567 H 0.20043 0.45498 0.62206 0.0
C1568 C 0.75544 0.24472 0.67383 0.0
C1569 C 0.75805 0.24003 0.70996 0.0
C1570 C 0.74369 0.22558 0.65124 0.0
C1571 C 0.69651 0.1648 0.64714 0.0
H1572 H 0.72212 0.15715 0.56507 0.0
C1573 C 0.63372 0.10177 0.54065 0.0
C1574 C 0.64423 0.08529 0.52719 0.0
C1575 C 0.64906 0.12033 0.56198 0.0
C1576 C 0.71476 0.15896 0.58795 0.0
H1577 H 0.75045 0.21127 0.75046 0.0
H1578 H 0.72977 0.17811 0.7113 0.0
H1579 H 0.74627 0.18985 0.60409 0.0
H1580 H 0.67985 0.07643 0.52539 0.0
H1581 H 0.70694 0.10962 0.56206 0.0
H1582 H 0.66492 0.13427 0.63106 0.0
C1583 C 0.73682 0.19658 0.70031 0.0
C1584 C 0.7285 0.17787 0.61019 0.0
C1585 C 0.74883 0.21562 0.72284 0.0
C1586 C 0.67096 0.08861 0.53519 0.0
C1587 C 0.68651 0.10772 0.55616 0.0
C1588 C 0.68263 0.14625 0.62472 0.0
C1589 C 0.73385 0.20126 0.66413 0.0
C1590 C 0.71957 0.18106 0.64019 0.0
C1591 C 0.67567 0.12358 0.57037 0.0
C1592 C 0.69143 0.14302 0.59469 0.0
H1593 H 0.76231 0.26327 0.66298 0.0
H1594 H 0.74164 0.22999 0.62362 0.0
H1595 H 0.68885 0.16671 0.66972 0.0
H1596 H 0.61333 0.10017 0.53524 0.0
H1597 H 0.63998 0.13235 0.57182 0.0
C1598 C 0.83268 0.38397 0.32617 0.0
C1599 C 0.83765 0.36133 0.32251 0.0
C1600 C 0.85263 0.40434 0.33663 0.0
C1601 C 0.92365 0.42893 0.35163 0.0
H1602 H 0.90925 0.46656 0.41865 0.0
C1603 C 1.00128 0.49105 0.44767 0.0
C1604 C 0.99684 0.51295 0.45622 0.0
C1605 C 0.98281 0.47508 0.42541 0.0
C1606 C 0.91351 0.45657 0.39952 0.0
H1607 H 0.8674 0.34239 0.32535 0.0
H1608 H 0.90248 0.37787 0.34478 0.0
H1609 H 0.87544 0.43359 0.39136 0.0
H1610 H 0.97 0.53583 0.44654 0.0
H1611 H 0.93768 0.50787 0.40761 0.0
H1612 H 0.96214 0.45155 0.36111 0.0
C1613 C 0.88316 0.38006 0.339 0.0
C1614 C 0.89407 0.43759 0.38377 0.0
C1615 C 0.86309 0.35968 0.32801 0.0
C1616 C 0.97404 0.51914 0.4405 0.0
C1617 C 0.95545 0.50302 0.41842 0.0
C1618 C 0.9432 0.44786 0.36765 0.0
C1619 C 0.87809 0.4025 0.34427 0.0
C1620 C 0.89885 0.4234 0.35971 0.0
C1621 C 0.95937 0.48052 0.41132 0.0
C1622 C 0.93837 0.4618 0.39194 0.0
H1623 H 0.81323 0.38583 0.3216 0.0
H1624 H 0.84799 0.42145 0.33937 0.0
H1625 H 0.92798 0.41863 0.33294 0.0
H1626 H 1.0187 0.48576 0.45916 0.0
H1627 H 0.98639 0.45785 0.42068 0.0
C1628 C 0.74259 0.84082 0.3549 0.0
C1629 C 0.74669 0.84216 0.3203 0.0
C1630 C 0.73076 0.85715 0.36675 0.0
C1631 C 0.69191 0.90524 0.33564 0.0
H1632 H 0.70593 0.9185 0.43269 0.0
C1633 C 0.63245 0.961 0.3897 0.0
C1634 C 0.6426 0.97533 0.41897 0.0
C1635 C 0.64558 0.94556 0.3787 0.0
C1636 C 0.7017 0.91536 0.40537 0.0
H1637 H 0.7409 0.86294 0.27137 0.0
H1638 H 0.72074 0.89133 0.29168 0.0
H1639 H 0.72734 0.89171 0.41184 0.0
H1640 H 0.67557 0.98343 0.45966 0.0
H1641 H 0.69861 0.95679 0.44052 0.0
H1642 H 0.66684 0.92936 0.32892 0.0
C1643 C 0.72635 0.87726 0.30998 0.0
C1644 C 0.71395 0.89942 0.39321 0.0
C1645 C 0.7382 0.86082 0.2981 0.0
C1646 C 0.66675 0.97302 0.43703 0.0
C1647 C 0.68004 0.95742 0.42591 0.0
C1648 C 0.67969 0.92114 0.34777 0.0
C1649 C 0.7223 0.87597 0.34476 0.0
C1650 C 0.70935 0.89373 0.35795 0.0
C1651 C 0.66989 0.94337 0.39614 0.0
C1652 C 0.68402 0.9266 0.38307 0.0
H1653 H 0.74856 0.82693 0.37328 0.0
H1654 H 0.72798 0.85461 0.39342 0.0
H1655 H 0.68718 0.90172 0.30845 0.0
H1656 H 0.61394 0.96163 0.37478 0.0
H1657 H 0.63617 0.93502 0.35639 0.0
C1658 C 0.24457 0.70886 0.3558 0.0
C1659 C 0.24372 0.7337 0.35348 0.0
C1660 C 0.22737 0.69061 0.3727 0.0
C1661 C 0.17965 0.68102 0.43271 0.0
H1662 H 0.1551 0.617 0.3937 0.0
C1663 C 0.11465 0.59574 0.49878 0.0
C1664 C 0.09721 0.57817 0.47727 0.0
C1665 C 0.13186 0.61587 0.48469 0.0
C1666 C 0.16141 0.63482 0.40482 0.0
H1667 H 0.22409 0.75873 0.36775 0.0
H1668 H 0.19383 0.72698 0.39641 0.0
H1669 H 0.1861 0.64922 0.36769 0.0
H1670 H 0.08309 0.56901 0.42395 0.0
H1671 H 0.11206 0.6043 0.39945 0.0
H1672 H 0.15417 0.66668 0.46918 0.0
C1673 C 0.2081 0.72154 0.38578 0.0
C1674 C 0.17969 0.65331 0.39016 0.0
C1675 C 0.22545 0.73983 0.36911 0.0
C1676 C 0.09644 0.58202 0.44133 0.0
C1677 C 0.11334 0.6022 0.42728 0.0
C1678 C 0.16119 0.6625 0.44731 0.0
C1679 C 0.20858 0.69656 0.38756 0.0
C1680 C 0.18918 0.67675 0.40381 0.0
C1681 C 0.13189 0.61907 0.44872 0.0
C1682 C 0.15168 0.63909 0.43349 0.0
H1683 H 0.25845 0.70341 0.3443 0.0
H1684 H 0.22887 0.67176 0.37406 0.0
H1685 H 0.1866 0.69865 0.44435 0.0
H1686 H 0.11593 0.59325 0.52661 0.0
H1687 H 0.14584 0.6283 0.50219 0.0
C1688 C 0.35252 0.23503 0.29382 0.0
C1689 C 0.34231 0.24552 0.31697 0.0
C1690 C 0.36987 0.2202 0.306 0.0
C1691 C 0.39206 0.18222 0.38458 0.0
H1692 H 0.45002 0.18602 0.34009 0.0
C1693 C 0.45416 0.11101 0.42091 0.0
C1694 C 0.48092 0.11902 0.42253 0.0
C1695 C 0.43811 0.12682 0.40814 0.0
C1696 C 0.43405 0.18475 0.35306 0.0
H1697 H 0.3428 0.24811 0.37153 0.0
H1698 H 0.37238 0.22246 0.39241 0.0
H1699 H 0.42069 0.21212 0.31745 0.0
H1700 H 0.51144 0.15061 0.41153 0.0
H1701 H 0.48343 0.17817 0.38882 0.0
H1702 H 0.40527 0.15494 0.42016 0.0
C1703 C 0.36703 0.22551 0.36475 0.0
C1704 C 0.41695 0.19962 0.33976 0.0
C1705 C 0.35 0.24048 0.35264 0.0
C1706 C 0.49102 0.14362 0.41081 0.0
C1707 C 0.47483 0.15943 0.39752 0.0
C1708 C 0.40893 0.16719 0.39759 0.0
C1709 C 0.37738 0.21502 0.34177 0.0
C1710 C 0.39562 0.19874 0.35534 0.0
C1711 C 0.44801 0.15135 0.39602 0.0
C1712 C 0.4303 0.16809 0.38216 0.0
H1713 H 0.34723 0.23839 0.2662 0.0
H1714 H 0.37709 0.21245 0.28726 0.0
H1715 H 0.37592 0.1806 0.39737 0.0
H1716 H 0.44542 0.09233 0.42966 0.0
H1717 H 0.41771 0.11954 0.40725 0.0
C1718 C 0.7314 0.82412 0.68664 0.0
C1719 C 0.74108 0.83037 0.72106 0.0
C1720 C 0.71601 0.83752 0.66458 0.0
C1721 C 0.67881 0.88453 0.66501 0.0
H1722 H 0.68546 0.8956 0.56813 0.0
C1723 C 0.65322 0.96592 0.57758 0.0
C1724 C 0.63785 0.96097 0.54507 0.0
C1725 C 0.66246 0.94745 0.59818 0.0
C1726 C 0.68315 0.89238 0.59502 0.0
H1727 H 0.74222 0.85584 0.7591 0.0
H1728 H 0.71642 0.87966 0.72065 0.0
H1729 H 0.70854 0.86869 0.60584 0.0
H1730 H 0.62016 0.93271 0.50854 0.0
H1731 H 0.6372 0.90028 0.54441 0.0
H1732 H 0.65453 0.90941 0.6543 0.0
C1733 C 0.71985 0.86392 0.71073 0.0
C1734 C 0.69633 0.87687 0.61676 0.0
C1735 C 0.73488 0.85029 0.73289 0.0
C1736 C 0.63181 0.93698 0.5336 0.0
C1737 C 0.64165 0.91852 0.55399 0.0
C1738 C 0.66604 0.90033 0.64342 0.0
C1739 C 0.71017 0.85781 0.67615 0.0
C1740 C 0.69469 0.87297 0.65227 0.0
C1741 C 0.65705 0.92362 0.58654 0.0
C1742 C 0.66831 0.90468 0.60831 0.0
H1743 H 0.73565 0.80879 0.67669 0.0
H1744 H 0.70863 0.83184 0.63846 0.0
H1745 H 0.67635 0.88158 0.69182 0.0
H1746 H 0.65816 0.98421 0.58718 0.0
H1747 H 0.67443 0.95199 0.62298 0.0
C1748 C 0.70635 0.26682 0.49542 0.0
C1749 C 0.7329 0.2702 0.49809 0.0
C1750 C 0.69199 0.24595 0.51156 0.0
C1751 C 0.66616 0.19158 0.52469 0.0
H1752 H 0.70114 0.16251 0.47045 0.0
C1753 C 0.61043 0.1139 0.43411 0.0
C1754 C 0.62246 0.09552 0.43057 0.0
C1755 C 0.62421 0.13509 0.45147 0.0
C1756 C 0.69104 0.16968 0.48625 0.0
H1757 H 0.76586 0.25974 0.52885 0.0
H1758 H 0.74073 0.22297 0.55608 0.0
H1759 H 0.72416 0.19845 0.50099 0.0
H1760 H 0.65915 0.08636 0.43906 0.0
H1761 H 0.68265 0.12231 0.4694 0.0
H1762 H 0.63276 0.16274 0.50909 0.0
C1763 C 0.73084 0.23573 0.5407 0.0
C1764 C 0.70446 0.19043 0.50418 0.0
C1765 C 0.74526 0.25672 0.52473 0.0
C1766 C 0.64905 0.09998 0.44144 0.0
C1767 C 0.66269 0.12086 0.45903 0.0
C1768 C 0.65273 0.17036 0.50716 0.0
C1769 C 0.70421 0.22841 0.52983 0.0
C1770 C 0.692 0.20226 0.52246 0.0
C1771 C 0.65035 0.13833 0.46546 0.0
C1772 C 0.66481 0.15964 0.48666 0.0
H1773 H 0.69605 0.27741 0.47625 0.0
H1774 H 0.67139 0.24136 0.50386 0.0
H1775 H 0.65603 0.20042 0.53836 0.0
H1776 H 0.59023 0.11154 0.42449 0.0
H1777 H 0.61424 0.14868 0.45437 0.0
C1778 C 0.90508 0.74688 0.49783 0.0
C1779 C 0.90009 0.75161 0.46182 0.0
C1780 C 0.92836 0.74212 0.51381 0.0
C1781 C 0.99166 0.73827 0.49481 0.0
H1782 H 0.97878 0.67922 0.5555 0.0
C1783 C 1.02246 0.6508 0.4872 0.0
C1784 C 1.02938 0.63736 0.51787 0.0
C1785 C 1.01651 0.67319 0.48857 0.0
C1786 C 0.98295 0.69603 0.53928 0.0
H1787 H 0.91645 0.75744 0.41486 0.0
H1788 H 0.95598 0.74766 0.44191 0.0
H1789 H 0.94822 0.70409 0.54391 0.0
H1790 H 0.03721 0.6375 0.57396 0.0
H1791 H 1.02595 0.67617 0.57614 0.0
H1792 H 1.02502 0.7281 0.48733 0.0
C1793 C 0.94244 0.74805 0.4583 0.0
C1794 C 0.96547 0.71048 0.53268 0.0
C1795 C 0.91942 0.75314 0.44252 0.0
C1796 C 1.03198 0.64748 0.54983 0.0
C1797 C 1.0256 0.66961 0.55119 0.0
C1798 C 1.00878 0.72338 0.50075 0.0
C1799 C 0.94694 0.74169 0.49399 0.0
C1800 C 0.96888 0.73103 0.50881 0.0
C1801 C 1.01702 0.68221 0.5206 0.0
C1802 C 1.00385 0.70155 0.52177 0.0
H1803 H 0.89061 0.7457 0.51348 0.0
H1804 H 0.93131 0.73776 0.54144 0.0
H1805 H 0.99537 0.75447 0.47727 0.0
H1806 H 1.0204 0.64346 0.46226 0.0
H1807 H 1.00958 0.68244 0.46462 0.0
C1808 C 0.3364 0.84728 0.36193 0.0
C1809 C 0.34219 0.82438 0.36377 0.0
C1810 C 0.35465 0.86779 0.37586 0.0
C1811 C 0.41985 0.88838 0.42947 0.0
H1812 H 0.41926 0.94953 0.37428 0.0
C1813 C 0.5041 0.97787 0.43957 0.0
C1814 C 0.49694 0.99962 0.44243 0.0
C1815 C 0.48542 0.95573 0.4325 0.0
C1816 C 0.4196 0.93261 0.39005 0.0
H1817 H 0.37127 0.80464 0.38281 0.0
H1818 H 0.40359 0.84061 0.40605 0.0
H1819 H 0.38605 0.91237 0.35873 0.0
H1820 H 0.46457 1.01515 0.44002 0.0
H1821 H 0.4322 0.97679 0.42689 0.0
H1822 H 0.45424 0.90892 0.45992 0.0
C1823 C 0.38474 0.84274 0.39468 0.0
C1824 C 0.40039 0.91127 0.38138 0.0
C1825 C 0.36621 0.82205 0.38133 0.0
C1826 C 0.47077 0.99875 0.43804 0.0
C1827 C 0.4522 0.97681 0.43039 0.0
C1828 C 0.43936 0.90975 0.43782 0.0
C1829 C 0.37946 0.8661 0.39117 0.0
C1830 C 0.40004 0.88885 0.40111 0.0
C1831 C 0.45929 0.95508 0.4275 0.0
C1832 C 0.43928 0.9321 0.41832 0.0
H1833 H 0.31802 0.84955 0.34846 0.0
H1834 H 0.34946 0.88518 0.3736 0.0
H1835 H 0.42018 0.87161 0.44553 0.0
H1836 H 0.5241 0.97791 0.44307 0.0
H1837 H 0.49138 0.93924 0.43025 0.0
C1838 C 0.2729 0.38492 0.47719 0.0
C1839 C 0.27936 0.39284 0.4443 0.0
C1840 C 0.26064 0.39826 0.49307 0.0
C1841 C 0.24036 0.45688 0.48563 0.0
H1842 H 0.17908 0.4144 0.51518 0.0
C1843 C 0.13089 0.45942 0.48243 0.0
C1844 C 0.13408 0.48202 0.4967 0.0
C1845 C 0.15177 0.44953 0.48425 0.0
C1846 C 0.19617 0.42651 0.50718 0.0
H1847 H 0.27999 0.42195 0.40359 0.0
H1848 H 0.25793 0.44476 0.43063 0.0
H1849 H 0.21221 0.39638 0.50475 0.0
H1850 H 0.16165 0.51223 0.52357 0.0
H1851 H 0.19818 0.49491 0.5266 0.0
H1852 H 0.22343 0.48682 0.48593 0.0
C1853 C 0.26251 0.42843 0.44444 0.0
C1854 C 0.21535 0.41624 0.50164 0.0
C1855 C 0.27484 0.41517 0.42866 0.0
C1856 C 0.15863 0.49477 0.51228 0.0
C1857 C 0.17953 0.48488 0.51406 0.0
C1858 C 0.22113 0.46715 0.49112 0.0
C1859 C 0.25454 0.41971 0.47631 0.0
C1860 C 0.23718 0.43121 0.48943 0.0
C1861 C 0.17627 0.46209 0.50022 0.0
C1862 C 0.19842 0.45191 0.50057 0.0
H1863 H 0.27604 0.36773 0.48989 0.0
H1864 H 0.25504 0.39124 0.51784 0.0
H1865 H 0.25718 0.46894 0.47687 0.0
H1866 H 0.1122 0.44913 0.4704 0.0
H1867 H 0.14876 0.43216 0.47274 0.0
C1868 C 0.36981 0.18228 0.64171 0.0
C1869 C 0.38167 0.20305 0.66145 0.0
C1870 C 0.3841 0.17109 0.62528 0.0
C1871 C 0.44764 0.18279 0.59587 0.0
H1872 H 0.42926 0.11187 0.58926 0.0
C1873 C 0.51538 0.1332 0.55211 0.0
C1874 C 0.50519 0.11194 0.53303 0.0
C1875 C 0.49959 0.14417 0.56582 0.0
C1876 C 0.43456 0.13175 0.59036 0.0
H1877 H 0.41856 0.22767 0.67951 0.0
H1878 H 0.44324 0.20835 0.65114 0.0
H1879 H 0.40381 0.13076 0.61719 0.0
H1880 H 0.46974 0.08605 0.51301 0.0
H1881 H 0.44208 0.10531 0.53665 0.0
H1882 H 0.47837 0.18384 0.56914 0.0
C1883 C 0.42271 0.20089 0.64776 0.0
C1884 C 0.41987 0.14267 0.60653 0.0
C1885 C 0.40844 0.21207 0.6642 0.0
C1886 C 0.47843 0.10229 0.52764 0.0
C1887 C 0.46253 0.11331 0.54147 0.0
C1888 C 0.46229 0.17189 0.57971 0.0
C1889 C 0.41084 0.18022 0.62785 0.0
C1890 C 0.42624 0.16841 0.60986 0.0
C1891 C 0.47285 0.13442 0.56102 0.0
C1892 C 0.45621 0.14612 0.57687 0.0
H1893 H 0.34927 0.17488 0.63821 0.0
H1894 H 0.37399 0.15552 0.6099 0.0
H1895 H 0.45303 0.20266 0.597 0.0
H1896 H 0.53582 0.1413 0.55705 0.0
H1897 H 0.50857 0.16007 0.58102 0.0
C1898 C 0.84989 0.35484 0.72902 0.0
C1899 C 0.84797 0.32934 0.73297 0.0
C1900 C 0.86785 0.37065 0.71068 0.0
C1901 C 0.92802 0.37603 0.67735 0.0
H1902 H 0.90688 0.42933 0.6193 0.0
C1903 C 0.99846 0.45928 0.61585 0.0
C1904 C 0.98894 0.46994 0.58392 0.0
C1905 C 0.98239 0.43973 0.63266 0.0
C1906 C 0.91313 0.4144 0.63501 0.0
H1907 H 0.86374 0.30057 0.72085 0.0
H1908 H 0.89494 0.32819 0.68837 0.0
H1909 H 0.87666 0.40028 0.65073 0.0
H1910 H 0.95589 0.46707 0.54327 0.0
H1911 H 0.92838 0.43274 0.57173 0.0
H1912 H 0.96453 0.39016 0.66101 0.0
C1913 C 0.88268 0.33598 0.69984 0.0
C1914 C 0.89581 0.39789 0.65353 0.0
C1915 C 0.86466 0.3201 0.71827 0.0
C1916 C 0.96371 0.45949 0.56808 0.0
C1917 C 0.94784 0.43991 0.5846 0.0
C1918 C 0.94545 0.39264 0.65873 0.0
C1919 C 0.88441 0.36148 0.6956 0.0
C1920 C 0.90299 0.37854 0.67516 0.0
C1921 C 0.95658 0.43035 0.61773 0.0
C1922 C 0.93822 0.41208 0.63727 0.0
H1923 H 0.83753 0.36269 0.74019 0.0
H1924 H 0.86887 0.3902 0.7086 0.0
H1925 H 0.93432 0.36148 0.69394 0.0
H1926 H 1.01776 0.46701 0.6288 0.0
H1927 H 0.98983 0.43289 0.65814 0.0
C1928 C 0.22455 0.74155 0.69586 0.0
C1929 C 0.23905 0.74249 0.72927 0.0
C1930 C 0.20703 0.71967 0.68501 0.0
C1931 C 0.1962 0.65303 0.70103 0.0
H1932 H 0.13028 0.65094 0.64339 0.0
C1933 C 0.14202 0.57325 0.6138 0.0
C1934 C 0.11547 0.56453 0.61269 0.0
C1935 C 0.15578 0.59425 0.63137 0.0
C1936 C 0.14852 0.65119 0.65974 0.0
H1937 H 0.24592 0.72175 0.77811 0.0
H1938 H 0.21537 0.68339 0.75905 0.0
H1939 H 0.15571 0.68948 0.66879 0.0
H1940 H 0.08261 0.57092 0.62961 0.0
H1941 H 0.10671 0.60775 0.66003 0.0
H1942 H 0.18923 0.61489 0.69153 0.0
C1943 C 0.21769 0.69951 0.74118 0.0
C1944 C 0.16315 0.67327 0.67404 0.0
C1945 C 0.23508 0.72146 0.75211 0.0
C1946 C 0.10303 0.57716 0.62986 0.0
C1947 C 0.11679 0.59831 0.64718 0.0
C1948 C 0.18169 0.63103 0.6865 0.0
C1949 C 0.20381 0.69828 0.70733 0.0
C1950 C 0.18726 0.67448 0.69451 0.0
C1951 C 0.14328 0.60709 0.64802 0.0
C1952 C 0.15785 0.62997 0.66536 0.0
H1953 H 0.2272 0.75755 0.6778 0.0
H1954 H 0.19675 0.71923 0.6587 0.0
H1955 H 0.21482 0.65345 0.71644 0.0
H1956 H 0.15219 0.56396 0.60086 0.0
H1957 H 0.17615 0.60076 0.63126 0.0
loop_
_geom_bond_atom_site_label_1
_geom_bond_atom_site_label_2
_geom_bond_distance
_geom_bond_site_symmetry_2
_ccdc_geom_bond_type
C0 Eu1 2.835 . S
C0 C2 1.500 . S
C0 O20 1.257 . S
C0 O21 1.260 . S
Eu1 C0 2.835 . S
Eu1 O20 2.473 . S
Eu1 O21 2.480 . S
Eu1 O22 2.430 . S
Eu1 O23 2.670 . S
Eu1 O24 2.394 . S
Eu1 O29 2.355 . S
Eu1 O31 2.374 . S
C2 C0 1.500 . S
C2 C3 1.377 . S
C2 C7 1.377 . S
C3 C2 1.377 . S
C3 C4 1.395 . S
C3 H32 0.931 . S
C4 C3 1.395 . S
C4 C5 1.383 . S
C4 H33 0.931 . S
C5 C4 1.383 . S
C5 C6 1.394 . S
C6 C5 1.394 . S
C6 C7 1.378 . S
C6 H34 0.931 . S
C7 C2 1.377 . S
C7 C6 1.378 . S
C7 H35 0.931 . S
C8 O22 1.259 . S
C8 O23 1.270 . S
C9 O24 1.251 . S
C9 O25 1.251 . S
C10 Eu11 2.835 . S
C10 C12 1.500 . S
C10 O26 1.257 . S
C10 O27 1.260 . S
Eu11 C10 2.835 . S
Eu11 O23 2.355 . S
Eu11 O25 2.374 . S
Eu11 O26 2.473 . S
Eu11 O27 2.480 . S
Eu11 O28 2.430 . S
Eu11 O29 2.670 . S
Eu11 O30 2.394 . S
C12 C10 1.500 . S
C12 C13 1.377 . S
C12 C17 1.377 . S
C13 C12 1.377 . S
C13 C14 1.395 . S
C13 H36 0.931 . S
C14 C13 1.395 . S
C14 C15 1.383 . S
C14 H37 0.931 . S
C15 C14 1.383 . S
C15 C16 1.394 . S
C16 C15 1.394 . S
C16 C17 1.378 . S
C16 H38 0.931 . S
C17 C12 1.377 . S
C17 C16 1.378 . S
C17 H39 0.931 . S
C18 O28 1.259 . S
C18 O29 1.270 . S
C19 O30 1.251 . S
C19 O31 1.251 . S
O20 C0 1.257 . S
O20 Eu1 2.473 . S
O21 C0 1.260 . S
O21 Eu1 2.480 . S
O22 Eu1 2.430 . S
O22 C8 1.259 . S
O23 Eu1 2.670 . S
O23 C8 1.270 . S
O23 Eu11 2.355 . S
O24 Eu1 2.394 . S
O24 C9 1.251 . S
O25 C9 1.251 . S
O25 Eu11 2.374 . S
O26 C10 1.257 . S
O26 Eu11 2.473 . S
O27 C10 1.260 . S
O27 Eu11 2.480 . S
O28 Eu11 2.430 . S
O28 C18 1.259 . S
O29 Eu1 2.355 . S
O29 Eu11 2.670 . S
O29 C18 1.270 . S
O30 Eu11 2.394 . S
O30 C19 1.251 . S
O31 Eu1 2.374 . S
O31 C19 1.251 . S
H32 C3 0.931 . S
H33 C4 0.931 . S
H34 C6 0.931 . S
H35 C7 0.931 . S
H36 C13 0.931 . S
H37 C14 0.931 . S
H38 C16 0.931 . S
H39 C17 0.931 . S
C40 Eu41 2.835 . S
C40 C42 1.500 . S
C40 O60 1.257 . S
C40 O61 1.260 . S
Eu41 C40 2.835 . S
Eu41 O60 2.473 . S
Eu41 O61 2.480 . S
Eu41 O62 2.430 . S
Eu41 O63 2.670 . S
Eu41 O64 2.394 . S
Eu41 O69 2.355 . S
Eu41 O71 2.374 . S
C42 C40 1.500 . S
C42 C43 1.377 . S
C42 C47 1.377 . S
C43 C42 1.377 . S
C43 C44 1.395 . S
C43 H72 0.931 . S
C44 C43 1.395 . S
C44 C45 1.383 . S
C44 H73 0.931 . S
C45 C44 1.383 . S
C45 C46 1.394 . S
C46 C45 1.394 . S
C46 C47 1.378 . S
C46 H74 0.931 . S
C47 C42 1.377 . S
C47 C46 1.378 . S
C47 H75 0.931 . S
C48 O62 1.259 . S
C48 O63 1.270 . S
C49 O64 1.251 . S
C49 O65 1.251 . S
C50 Eu51 2.835 . S
C50 C52 1.500 . S
C50 O66 1.257 . S
C50 O67 1.260 . S
Eu51 C50 2.835 . S
Eu51 O63 2.355 . S
Eu51 O65 2.374 . S
Eu51 O66 2.473 . S
Eu51 O67 2.480 . S
Eu51 O68 2.430 . S
Eu51 O69 2.670 . S
Eu51 O70 2.394 . S
C52 C50 1.500 . S
C52 C53 1.377 . S
C52 C57 1.377 . S
C53 C52 1.377 . S
C53 C54 1.395 . S
C53 H76 0.931 . S
C54 C53 1.395 . S
C54 C55 1.383 . S
C54 H77 0.931 . S
C55 C54 1.383 . S
C55 C56 1.394 . S
C56 C55 1.394 . S
C56 C57 1.378 . S
C56 H78 0.931 . S
C57 C52 1.377 . S
C57 C56 1.378 . S
C57 H79 0.931 . S
C58 O68 1.259 . S
C58 O69 1.270 . S
C59 O70 1.251 . S
C59 O71 1.251 . S
O60 C40 1.257 . S
O60 Eu41 2.473 . S
O61 C40 1.260 . S
O61 Eu41 2.480 . S
O62 Eu41 2.430 . S
O62 C48 1.259 . S
O63 Eu41 2.670 . S
O63 C48 1.270 . S
O63 Eu51 2.355 . S
O64 Eu41 2.394 . S
O64 C49 1.251 . S
O65 C49 1.251 . S
O65 Eu51 2.374 . S
O66 C50 1.257 . S
O66 Eu51 2.473 . S
O67 C50 1.260 . S
O67 Eu51 2.480 . S
O68 Eu51 2.430 . S
O68 C58 1.259 . S
O69 Eu41 2.355 . S
O69 Eu51 2.670 . S
O69 C58 1.270 . S
O70 Eu51 2.394 . S
O70 C59 1.251 . S
O71 Eu41 2.374 . S
O71 C59 1.251 . S
H72 C43 0.931 . S
H73 C44 0.931 . S
H74 C46 0.931 . S
H75 C47 0.931 . S
H76 C53 0.931 . S
H77 C54 0.931 . S
H78 C56 0.931 . S
H79 C57 0.931 . S
C80 Eu81 2.835 . S
C80 C82 1.500 . S
C80 O100 1.257 . S
C80 O101 1.260 . S
Eu81 C80 2.835 . S
Eu81 O100 2.473 . S
Eu81 O101 2.480 . S
Eu81 O102 2.430 . S
Eu81 O103 2.670 . S
Eu81 O104 2.394 . S
Eu81 O109 2.355 . S
Eu81 O111 2.374 . S
C82 C80 1.500 . S
C82 C83 1.377 . S
C82 C87 1.377 . S
C83 C82 1.377 . S
C83 C84 1.395 . S
C83 H112 0.931 . S
C84 C83 1.395 . S
C84 C85 1.383 . S
C84 H113 0.931 . S
C85 C84 1.383 . S
C85 C86 1.394 . S
C86 C85 1.394 . S
C86 C87 1.378 . S
C86 H114 0.931 . S
C87 C82 1.377 . S
C87 C86 1.378 . S
C87 H115 0.931 . S
C88 O102 1.259 . S
C88 O103 1.270 . S
C89 O104 1.251 . S
C89 O105 1.251 . S
C90 Eu91 2.835 . S
C90 C92 1.500 . S
C90 O106 1.257 . S
C90 O107 1.260 . S
Eu91 C90 2.835 . S
Eu91 O103 2.355 . S
Eu91 O105 2.374 . S
Eu91 O106 2.473 . S
Eu91 O107 2.480 . S
Eu91 O108 2.430 . S
Eu91 O109 2.670 . S
Eu91 O110 2.394 . S
C92 C90 1.500 . S
C92 C93 1.377 . S
C92 C97 1.377 . S
C93 C92 1.377 . S
C93 C94 1.395 . S
C93 H116 0.931 . S
C94 C93 1.395 . S
C94 C95 1.383 . S
C94 H117 0.931 . S
C95 C94 1.383 . S
C95 C96 1.394 . S
C96 C95 1.394 . S
C96 C97 1.378 . S
C96 H118 0.931 . S
C97 C92 1.377 . S
C97 C96 1.378 . S
C97 H119 0.931 . S
C98 O108 1.259 . S
C98 O109 1.270 . S
C99 O110 1.251 . S
C99 O111 1.251 . S
O100 C80 1.257 . S
O100 Eu81 2.473 . S
O101 C80 1.260 . S
O101 Eu81 2.480 . S
O102 Eu81 2.430 . S
O102 C88 1.259 . S
O103 Eu81 2.670 . S
O103 C88 1.270 . S
O103 Eu91 2.355 . S
O104 Eu81 2.394 . S
O104 C89 1.251 . S
O105 C89 1.251 . S
O105 Eu91 2.374 . S
O106 C90 1.257 . S
O106 Eu91 2.473 . S
O107 C90 1.260 . S
O107 Eu91 2.480 . S
O108 Eu91 2.430 . S
O108 C98 1.259 . S
O109 Eu81 2.355 . S
O109 Eu91 2.670 . S
O109 C98 1.270 . S
O110 Eu91 2.394 . S
O110 C99 1.251 . S
O111 Eu81 2.374 . S
O111 C99 1.251 . S
H112 C83 0.931 . S
H113 C84 0.931 . S
H114 C86 0.931 . S
H115 C87 0.931 . S
H116 C93 0.931 . S
H117 C94 0.931 . S
H118 C96 0.931 . S
H119 C97 0.931 . S
C120 Eu121 2.835 . S
C120 C122 1.500 . S
C120 O140 1.257 . S
C120 O141 1.260 . S
Eu121 C120 2.835 . S
Eu121 O140 2.473 . S
Eu121 O141 2.480 . S
Eu121 O142 2.430 . S
Eu121 O143 2.670 . S
Eu121 O144 2.394 . S
Eu121 O149 2.355 . S
Eu121 O151 2.374 . S
C122 C120 1.500 . S
C122 C123 1.377 . S
C122 C127 1.377 . S
C123 C122 1.377 . S
C123 C124 1.395 . S
C123 H152 0.931 . S
C124 C123 1.395 . S
C124 C125 1.383 . S
C124 H153 0.931 . S
C125 C124 1.383 . S
C125 C126 1.394 . S
C126 C125 1.394 . S
C126 C127 1.378 . S
C126 H154 0.931 . S
C127 C122 1.377 . S
C127 C126 1.378 . S
C127 H155 0.931 . S
C128 O142 1.259 . S
C128 O143 1.270 . S
C129 O144 1.251 . S
C129 O145 1.251 . S
C130 Eu131 2.835 . S
C130 C132 1.500 . S
C130 O146 1.257 . S
C130 O147 1.260 . S
Eu131 C130 2.835 . S
Eu131 O143 2.355 . S
Eu131 O145 2.374 . S
Eu131 O146 2.473 . S
Eu131 O147 2.480 . S
Eu131 O148 2.430 . S
Eu131 O149 2.670 . S
Eu131 O150 2.394 . S
C132 C130 1.500 . S
C132 C133 1.377 . S
C132 C137 1.377 . S
C133 C132 1.377 . S
C133 C134 1.395 . S
C133 H156 0.931 . S
C134 C133 1.395 . S
C134 C135 1.383 . S
C134 H157 0.931 . S
C135 C134 1.383 . S
C135 C136 1.394 . S
C136 C135 1.394 . S
C136 C137 1.378 . S
C136 H158 0.931 . S
C137 C132 1.377 . S
C137 C136 1.378 . S
C137 H159 0.931 . S
C138 O148 1.259 . S
C138 O149 1.270 . S
C139 O150 1.251 . S
C139 O151 1.251 . S
O140 C120 1.257 . S
O140 Eu121 2.473 . S
O141 C120 1.260 . S
O141 Eu121 2.480 . S
O142 Eu121 2.430 . S
O142 C128 1.259 . S
O143 Eu121 2.670 . S
O143 C128 1.270 . S
O143 Eu131 2.355 . S
O144 Eu121 2.394 . S
O144 C129 1.251 . S
O145 C129 1.251 . S
O145 Eu131 2.374 . S
O146 C130 1.257 . S
O146 Eu131 2.473 . S
O147 C130 1.260 . S
O147 Eu131 2.480 . S
O148 Eu131 2.430 . S
O148 C138 1.259 . S
O149 Eu121 2.355 . S
O149 Eu131 2.670 . S
O149 C138 1.270 . S
O150 Eu131 2.394 . S
O150 C139 1.251 . S
O151 Eu121 2.374 . S
O151 C139 1.251 . S
H152 C123 0.931 . S
H153 C124 0.931 . S
H154 C126 0.931 . S
H155 C127 0.931 . S
H156 C133 0.931 . S
H157 C134 0.931 . S
H158 C136 0.931 . S
H159 C137 0.931 . S
C160 Eu161 2.835 . S
C160 C162 1.500 . S
C160 O180 1.257 . S
C160 O181 1.260 . S
Eu161 C160 2.835 . S
Eu161 O180 2.473 . S
Eu161 O181 2.480 . S
Eu161 O182 2.430 . S
Eu161 O183 2.670 . S
Eu161 O184 2.394 . S
Eu161 O189 2.355 . S
Eu161 O191 2.374 . S
C162 C160 1.500 . S
C162 C163 1.377 . S
C162 C167 1.377 . S
C163 C162 1.377 . S
C163 C164 1.395 . S
C163 H192 0.931 . S
C164 C163 1.395 . S
C164 C165 1.383 . S
C164 H193 0.931 . S
C165 C164 1.383 . S
C165 C166 1.394 . S
C166 C165 1.394 . S
C166 C167 1.378 . S
C166 H194 0.931 . S
C167 C162 1.377 . S
C167 C166 1.378 . S
C167 H195 0.931 . S
C168 O182 1.259 . S
C168 O183 1.270 . S
C169 O184 1.251 . S
C169 O185 1.251 . S
C170 Eu171 2.835 . S
C170 C172 1.500 . S
C170 O186 1.257 . S
C170 O187 1.260 . S
Eu171 C170 2.835 . S
Eu171 O183 2.355 . S
Eu171 O185 2.374 . S
Eu171 O186 2.473 . S
Eu171 O187 2.480 . S
Eu171 O188 2.430 . S
Eu171 O189 2.670 . S
Eu171 O190 2.394 . S
C172 C170 1.500 . S
C172 C173 1.377 . S
C172 C177 1.377 . S
C173 C172 1.377 . S
C173 C174 1.395 . S
C173 H196 0.931 . S
C174 C173 1.395 . S
C174 C175 1.383 . S
C174 H197 0.931 . S
C175 C174 1.383 . S
C175 C176 1.394 . S
C176 C175 1.394 . S
C176 C177 1.378 . S
C176 H198 0.931 . S
C177 C172 1.377 . S
C177 C176 1.378 . S
C177 H199 0.931 . S
C178 O188 1.259 . S
C178 O189 1.270 . S
C179 O190 1.251 . S
C179 O191 1.251 . S
O180 C160 1.257 . S
O180 Eu161 2.473 . S
O181 C160 1.260 . S
O181 Eu161 2.480 . S
O182 Eu161 2.430 . S
O182 C168 1.259 . S
O183 Eu161 2.670 . S
O183 C168 1.270 . S
O183 Eu171 2.355 . S
O184 Eu161 2.394 . S
O184 C169 1.251 . S
O185 C169 1.251 . S
O185 Eu171 2.374 . S
O186 C170 1.257 . S
O186 Eu171 2.473 . S
O187 C170 1.260 . S
O187 Eu171 2.480 . S
O188 Eu171 2.430 . S
O188 C178 1.259 . S
O189 Eu161 2.355 . S
O189 Eu171 2.670 . S
O189 C178 1.270 . S
O190 Eu171 2.394 . S
O190 C179 1.251 . S
O191 Eu161 2.374 . S
O191 C179 1.251 . S
H192 C163 0.931 . S
H193 C164 0.931 . S
H194 C166 0.931 . S
H195 C167 0.931 . S
H196 C173 0.931 . S
H197 C174 0.931 . S
H198 C176 0.931 . S
H199 C177 0.931 . S
C200 Eu201 2.835 . S
C200 C202 1.500 . S
C200 O220 1.257 . S
C200 O221 1.260 . S
Eu201 C200 2.835 . S
Eu201 O220 2.473 . S
Eu201 O221 2.480 . S
Eu201 O222 2.430 . S
Eu201 O223 2.670 . S
Eu201 O224 2.394 . S
Eu201 O229 2.355 . S
Eu201 O231 2.374 . S
C202 C200 1.500 . S
C202 C203 1.377 . S
C202 C207 1.377 . S
C203 C202 1.377 . S
C203 C204 1.395 . S
C203 H232 0.931 . S
C204 C203 1.395 . S
C204 C205 1.383 . S
C204 H233 0.931 . S
C205 C204 1.383 . S
C205 C206 1.394 . S
C206 C205 1.394 . S
C206 C207 1.378 . S
C206 H234 0.931 . S
C207 C202 1.377 . S
C207 C206 1.378 . S
C207 H235 0.931 . S
C208 O222 1.259 . S
C208 O223 1.270 . S
C209 O224 1.251 . S
C209 O225 1.251 . S
C210 Eu211 2.835 . S
C210 C212 1.500 . S
C210 O226 1.257 . S
C210 O227 1.260 . S
Eu211 C210 2.835 . S
Eu211 O223 2.355 . S
Eu211 O225 2.374 . S
Eu211 O226 2.473 . S
Eu211 O227 2.480 . S
Eu211 O228 2.430 . S
Eu211 O229 2.670 . S
Eu211 O230 2.394 . S
C212 C210 1.500 . S
C212 C213 1.377 . S
C212 C217 1.377 . S
C213 C212 1.377 . S
C213 C214 1.395 . S
C213 H236 0.931 . S
C214 C213 1.395 . S
C214 C215 1.383 . S
C214 H237 0.931 . S
C215 C214 1.383 . S
C215 C216 1.394 . S
C216 C215 1.394 . S
C216 C217 1.378 . S
C216 H238 0.931 . S
C217 C212 1.377 . S
C217 C216 1.378 . S
C217 H239 0.931 . S
C218 O228 1.259 . S
C218 O229 1.270 . S
C219 O230 1.251 . S
C219 O231 1.251 . S
O220 C200 1.257 . S
O220 Eu201 2.473 . S
O221 C200 1.260 . S
O221 Eu201 2.480 . S
O222 Eu201 2.430 . S
O222 C208 1.259 . S
O223 Eu201 2.670 . S
O223 C208 1.270 . S
O223 Eu211 2.355 . S
O224 Eu201 2.394 . S
O224 C209 1.251 . S
O225 C209 1.251 . S
O225 Eu211 2.374 . S
O226 C210 1.257 . S
O226 Eu211 2.473 . S
O227 C210 1.260 . S
O227 Eu211 2.480 . S
O228 Eu211 2.430 . S
O228 C218 1.259 . S
O229 Eu201 2.355 . S
O229 Eu211 2.670 . S
O229 C218 1.270 . S
O230 Eu211 2.394 . S
O230 C219 1.251 . S
O231 Eu201 2.374 . S
O231 C219 1.251 . S
H232 C203 0.931 . S
H233 C204 0.931 . S
H234 C206 0.931 . S
H235 C207 0.931 . S
H236 C213 0.931 . S
H237 C214 0.931 . S
H238 C216 0.931 . S
H239 C217 0.931 . S
C240 Eu241 2.835 . S
C240 C242 1.500 . S
C240 O260 1.257 . S
C240 O261 1.260 . S
Eu241 C240 2.835 . S
Eu241 O260 2.473 . S
Eu241 O261 2.480 . S
Eu241 O262 2.430 . S
Eu241 O263 2.670 . S
Eu241 O264 2.394 . S
Eu241 O269 2.355 . S
Eu241 O271 2.374 . S
C242 C240 1.500 . S
C242 C243 1.377 . S
C242 C247 1.377 . S
C243 C242 1.377 . S
C243 C244 1.395 . S
C243 H272 0.931 . S
C244 C243 1.395 . S
C244 C245 1.383 . S
C244 H273 0.931 . S
C245 C244 1.383 . S
C245 C246 1.394 . S
C246 C245 1.394 . S
C246 C247 1.378 . S
C246 H274 0.931 . S
C247 C242 1.377 . S
C247 C246 1.378 . S
C247 H275 0.931 . S
C248 O262 1.259 . S
C248 O263 1.270 . S
C249 O264 1.251 . S
C249 O265 1.251 . S
C250 Eu251 2.835 . S
C250 C252 1.500 . S
C250 O266 1.257 . S
C250 O267 1.260 . S
Eu251 C250 2.835 . S
Eu251 O263 2.355 . S
Eu251 O265 2.374 . S
Eu251 O266 2.473 . S
Eu251 O267 2.480 . S
Eu251 O268 2.430 . S
Eu251 O269 2.670 . S
Eu251 O270 2.394 . S
C252 C250 1.500 . S
C252 C253 1.377 . S
C252 C257 1.377 . S
C253 C252 1.377 . S
C253 C254 1.395 . S
C253 H276 0.931 . S
C254 C253 1.395 . S
C254 C255 1.383 . S
C254 H277 0.931 . S
C255 C254 1.383 . S
C255 C256 1.394 . S
C256 C255 1.394 . S
C256 C257 1.378 . S
C256 H278 0.931 . S
C257 C252 1.377 . S
C257 C256 1.378 . S
C257 H279 0.931 . S
C258 O268 1.259 . S
C258 O269 1.270 . S
C259 O270 1.251 . S
C259 O271 1.251 . S
O260 C240 1.257 . S
O260 Eu241 2.473 . S
O261 C240 1.260 . S
O261 Eu241 2.480 . S
O262 Eu241 2.430 . S
O262 C248 1.259 . S
O263 Eu241 2.670 . S
O263 C248 1.270 . S
O263 Eu251 2.355 . S
O264 Eu241 2.394 . S
O264 C249 1.251 . S
O265 C249 1.251 . S
O265 Eu251 2.374 . S
O266 C250 1.257 . S
O266 Eu251 2.473 . S
O267 C250 1.260 . S
O267 Eu251 2.480 . S
O268 Eu251 2.430 . S
O268 C258 1.259 . S
O269 Eu241 2.355 . S
O269 Eu251 2.670 . S
O269 C258 1.270 . S
O270 Eu251 2.394 . S
O270 C259 1.251 . S
O271 Eu241 2.374 . S
O271 C259 1.251 . S
H272 C243 0.931 . S
H273 C244 0.931 . S
H274 C246 0.931 . S
H275 C247 0.931 . S
H276 C253 0.931 . S
H277 C254 0.931 . S
H278 C256 0.931 . S
H279 C257 0.931 . S
C280 Eu281 2.835 . S
C280 C282 1.500 . S
C280 O300 1.257 . S
C280 O301 1.260 . S
Eu281 C280 2.835 . S
Eu281 O300 2.473 . S
Eu281 O301 2.480 . S
Eu281 O302 2.430 . S
Eu281 O303 2.670 . S
Eu281 O304 2.394 . S
Eu281 O309 2.355 . S
Eu281 O311 2.374 . S
C282 C280 1.500 . S
C282 C283 1.377 . S
C282 C287 1.377 . S
C283 C282 1.377 . S
C283 C284 1.395 . S
C283 H312 0.931 . S
C284 C283 1.395 . S
C284 C285 1.383 . S
C284 H313 0.931 . S
C285 C284 1.383 . S
C285 C286 1.394 . S
C286 C285 1.394 . S
C286 C287 1.378 . S
C286 H314 0.931 . S
C287 C282 1.377 . S
C287 C286 1.378 . S
C287 H315 0.931 . S
C288 O302 1.259 . S
C288 O303 1.270 . S
C289 O304 1.251 . S
C289 O305 1.251 . S
C290 Eu291 2.835 . S
C290 C292 1.500 . S
C290 O306 1.257 . S
C290 O307 1.260 . S
Eu291 C290 2.835 . S
Eu291 O303 2.355 . S
Eu291 O305 2.374 . S
Eu291 O306 2.473 . S
Eu291 O307 2.480 . S
Eu291 O308 2.430 . S
Eu291 O309 2.670 . S
Eu291 O310 2.394 . S
C292 C290 1.500 . S
C292 C293 1.377 . S
C292 C297 1.377 . S
C293 C292 1.377 . S
C293 C294 1.395 . S
C293 H316 0.931 . S
C294 C293 1.395 . S
C294 C295 1.383 . S
C294 H317 0.931 . S
C295 C294 1.383 . S
C295 C296 1.394 . S
C296 C295 1.394 . S
C296 C297 1.378 . S
C296 H318 0.931 . S
C297 C292 1.377 . S
C297 C296 1.378 . S
C297 H319 0.931 . S
C298 O308 1.259 . S
C298 O309 1.270 . S
C299 O310 1.251 . S
C299 O311 1.251 . S
O300 C280 1.257 . S
O300 Eu281 2.473 . S
O301 C280 1.260 . S
O301 Eu281 2.480 . S
O302 Eu281 2.430 . S
O302 C288 1.259 . S
O303 Eu281 2.670 . S
O303 C288 1.270 . S
O303 Eu291 2.355 . S
O304 Eu281 2.394 . S
O304 C289 1.251 . S
O305 C289 1.251 . S
O305 Eu291 2.374 . S
O306 C290 1.257 . S
O306 Eu291 2.473 . S
O307 C290 1.260 . S
O307 Eu291 2.480 . S
O308 Eu291 2.430 . S
O308 C298 1.259 . S
O309 Eu281 2.355 . S
O309 Eu291 2.670 . S
O309 C298 1.270 . S
O310 Eu291 2.394 . S
O310 C299 1.251 . S
O311 Eu281 2.374 . S
O311 C299 1.251 . S
H312 C283 0.931 . S
H313 C284 0.931 . S
H314 C286 0.931 . S
H315 C287 0.931 . S
H316 C293 0.931 . S
H317 C294 0.931 . S
H318 C296 0.931 . S
H319 C297 0.931 . S
Co320 O323 2.042 . S
Co320 O330 2.264 . S
Co320 O349 2.286 . S
Co320 O350 2.069 . S
Co320 O352 2.015 1_455 S
Co321 O323 2.122 . S
Co321 O329 2.073 . S
Co321 O330 2.327 . S
Co321 O331 1.976 1_455 S
Co322 O323 2.087 1_545 S
Co322 O325 2.087 1_455 S
Co322 O332 2.111 1_445 S
Co322 O333 2.143 . S
Co322 O337 2.111 . S
Co322 O351 2.143 1_445 S
O323 Co320 2.042 . S
O323 Co321 2.122 . S
O323 Co322 2.087 1_565 S
O323 H324 0.980 1_565 S
H324 O323 0.980 1_545 S
O325 Co322 2.087 1_655 S
O325 Co326 2.042 . S
O325 Co327 2.122 . S
O325 H328 0.980 . S
Co326 O325 2.042 . S
Co326 O334 2.286 . S
Co326 O335 2.069 . S
Co326 O336 2.015 1_655 S
Co326 O339 2.264 . S
Co327 O325 2.122 . S
Co327 O338 1.976 1_655 S
Co327 O339 2.327 . S
Co327 O340 2.073 . S
H328 O325 0.980 . S
O329 Co321 2.073 . S
O329 C344 1.245 . S
O330 Co320 2.264 . S
O330 Co321 2.327 . S
O330 C344 1.257 . S
O331 Co321 1.976 1_655 S
O331 C343 1.251 . S
O332 Co322 2.111 1_665 S
O332 C343 1.274 . S
O333 Co322 2.143 . S
O333 C346 1.246 . S
O334 Co326 2.286 . S
O334 C345 1.259 . S
O335 Co326 2.069 . S
O335 C345 1.289 . S
O336 Co326 2.015 1_455 S
O336 C346 1.257 . S
O337 Co322 2.111 . S
O337 C347 1.274 . S
O338 Co327 1.976 1_455 S
O338 C347 1.251 . S
O339 Co326 2.264 . S
O339 Co327 2.327 . S
O339 C348 1.257 . S
O340 Co327 2.073 . S
O340 C348 1.245 . S
C341 O349 1.259 . S
C341 O350 1.289 . S
C342 O351 1.246 . S
C342 O352 1.257 . S
C343 O331 1.251 . S
C343 O332 1.274 . S
C344 O329 1.245 . S
C344 O330 1.257 . S
C345 O334 1.259 . S
C345 O335 1.289 . S
C346 O333 1.246 . S
C346 O336 1.257 . S
C347 O337 1.274 . S
C347 O338 1.251 . S
C348 O339 1.257 . S
C348 O340 1.245 . S
O349 Co320 2.286 . S
O349 C341 1.259 . S
O350 Co320 2.069 . S
O350 C341 1.289 . S
O351 Co322 2.143 1_665 S
O351 C342 1.246 . S
O352 Co320 2.015 1_655 S
O352 C342 1.257 . S
Co353 O356 2.042 1_566 S
Co353 O363 2.264 1_556 S
Co353 O382 2.286 . S
Co353 O383 2.069 . S
Co353 O385 2.015 . S
Co354 O356 2.122 1_565 S
Co354 O362 2.073 . S
Co354 O363 2.327 . S
Co354 O364 1.976 . S
Co355 O356 2.087 . S
Co355 O358 2.087 1_554 S
Co355 O365 2.111 . S
Co355 O366 2.143 . S
Co355 O370 2.111 1_554 S
Co355 O384 2.143 1_554 S
O356 Co353 2.042 1_544 S
O356 Co354 2.122 1_545 S
O356 Co355 2.087 . S
O356 H357 0.980 . S
H357 O356 0.980 . S
O358 Co355 2.087 1_556 S
O358 Co359 2.042 1_556 S
O358 Co360 2.122 . S
O358 H361 0.980 . S
Co359 O358 2.042 1_554 S
Co359 O367 2.286 . S
Co359 O368 2.069 . S
Co359 O369 2.015 . S
Co359 O372 2.264 1_554 S
Co360 O358 2.122 . S
Co360 O371 1.976 . S
Co360 O372 2.327 . S
Co360 O373 2.073 . S
H361 O358 0.980 . S
O362 Co354 2.073 . S
O362 C377 1.245 . S
O363 Co353 2.264 1_554 S
O363 Co354 2.327 . S
O363 C377 1.257 . S
O364 Co354 1.976 . S
O364 C376 1.251 . S
O365 Co355 2.111 . S
O365 C376 1.274 1_545 S
O366 Co355 2.143 . S
O366 C379 1.246 . S
O367 Co359 2.286 . S
O367 C378 1.259 . S
O368 Co359 2.069 . S
O368 C378 1.289 . S
O369 Co359 2.015 . S
O369 C379 1.257 . S
O370 Co355 2.111 1_556 S
O370 C380 1.274 . S
O371 Co360 1.976 . S
O371 C380 1.251 . S
O372 Co359 2.264 1_556 S
O372 Co360 2.327 . S
O372 C381 1.257 . S
O373 Co360 2.073 . S
O373 C381 1.245 . S
C374 O382 1.259 . S
C374 O383 1.289 . S
C375 O384 1.246 1_565 S
C375 O385 1.257 . S
C376 O364 1.251 . S
C376 O365 1.274 1_565 S
C377 O362 1.245 . S
C377 O363 1.257 . S
C378 O367 1.259 . S
C378 O368 1.289 . S
C379 O366 1.246 . S
C379 O369 1.257 . S
C380 O370 1.274 . S
C380 O371 1.251 . S
C381 O372 1.257 . S
C381 O373 1.245 . S
O382 Co353 2.286 . S
O382 C374 1.259 . S
O383 Co353 2.069 . S
O383 C374 1.289 . S
O384 Co355 2.143 1_556 S
O384 C375 1.246 1_545 S
O385 Co353 2.015 . S
O385 C375 1.257 . S
Co386 O389 2.042 . S
Co386 O396 2.264 . S
Co386 O415 2.286 . S
Co386 O416 2.069 . S
Co386 O418 2.015 1_455 S
Co387 O389 2.122 . S
Co387 O395 2.073 . S
Co387 O396 2.327 . S
Co387 O397 1.976 1_455 S
Co388 O389 2.087 . S
Co388 O391 2.087 1_455 S
Co388 O398 2.111 1_455 S
Co388 O399 2.143 . S
Co388 O403 2.111 . S
Co388 O417 2.143 1_455 S
O389 Co386 2.042 . S
O389 Co387 2.122 . S
O389 Co388 2.087 . S
O389 H390 0.980 . S
H390 O389 0.980 . S
O391 Co388 2.087 1_655 S
O391 Co392 2.042 . S
O391 Co393 2.122 1_554 S
O391 H394 0.980 . S
Co392 O391 2.042 . S
Co392 O400 2.286 . S
Co392 O401 2.069 . S
Co392 O402 2.015 1_655 S
Co392 O405 2.264 . S
Co393 O391 2.122 1_556 S
Co393 O404 1.976 1_655 S
Co393 O405 2.327 1_556 S
Co393 O406 2.073 . S
H394 O391 0.980 . S
O395 Co387 2.073 . S
O395 C410 1.245 . S
O396 Co386 2.264 . S
O396 Co387 2.327 . S
O396 C410 1.257 . S
O397 Co387 1.976 1_655 S
O397 C409 1.251 . S
O398 Co388 2.111 1_655 S
O398 C409 1.274 . S
O399 Co388 2.143 . S
O399 C412 1.246 . S
O400 Co392 2.286 . S
O400 C411 1.259 . S
O401 Co392 2.069 . S
O401 C411 1.289 . S
O402 Co392 2.015 1_455 S
O402 C412 1.257 . S
O403 Co388 2.111 . S
O403 C413 1.274 . S
O404 Co393 1.976 1_455 S
O404 C413 1.251 1_556 S
O405 Co392 2.264 . S
O405 Co393 2.327 1_554 S
O405 C414 1.257 1_554 S
O406 Co393 2.073 . S
O406 C414 1.245 . S
C407 O415 1.259 . S
C407 O416 1.289 . S
C408 O417 1.246 . S
C408 O418 1.257 . S
C409 O397 1.251 . S
C409 O398 1.274 . S
C410 O395 1.245 . S
C410 O396 1.257 . S
C411 O400 1.259 . S
C411 O401 1.289 . S
C412 O399 1.246 . S
C412 O402 1.257 . S
C413 O403 1.274 . S
C413 O404 1.251 1_554 S
C414 O405 1.257 1_556 S
C414 O406 1.245 . S
O415 Co386 2.286 . S
O415 C407 1.259 . S
O416 Co386 2.069 . S
O416 C407 1.289 . S
O417 Co388 2.143 1_655 S
O417 C408 1.246 . S
O418 Co386 2.015 1_655 S
O418 C408 1.257 . S
Co419 O422 2.042 . S
Co419 O429 2.264 . S
Co419 O448 2.286 1_554 S
Co419 O449 2.069 . S
Co419 O451 2.015 1_554 S
Co420 O422 2.122 . S
Co420 O428 2.073 . S
Co420 O429 2.327 . S
Co420 O430 1.976 . S
Co421 O422 2.087 . S
Co421 O424 2.087 . S
Co421 O431 2.111 . S
Co421 O432 2.143 . S
Co421 O436 2.111 1_554 S
Co421 O450 2.143 1_554 S
O422 Co419 2.042 . S
O422 Co420 2.122 . S
O422 Co421 2.087 . S
O422 H423 0.980 . S
H423 O422 0.980 . S
O424 Co421 2.087 . S
O424 Co425 2.042 . S
O424 Co426 2.122 1_554 S
O424 H427 0.980 . S
Co425 O424 2.042 . S
Co425 O433 2.286 . S
Co425 O434 2.069 . S
Co425 O435 2.015 . S
Co425 O438 2.264 1_554 S
Co426 O424 2.122 1_556 S
Co426 O437 1.976 . S
Co426 O438 2.327 . S
Co426 O439 2.073 . S
H427 O424 0.980 . S
O428 Co420 2.073 . S
O428 C443 1.245 . S
O429 Co419 2.264 . S
O429 Co420 2.327 . S
O429 C443 1.257 . S
O430 Co420 1.976 . S
O430 C442 1.251 . S
O431 Co421 2.111 . S
O431 C442 1.274 . S
O432 Co421 2.143 . S
O432 C445 1.246 . S
O433 Co425 2.286 . S
O433 C444 1.259 . S
O434 Co425 2.069 . S
O434 C444 1.289 . S
O435 Co425 2.015 . S
O435 C445 1.257 . S
O436 Co421 2.111 1_556 S
O436 C446 1.274 . S
O437 Co426 1.976 . S
O437 C446 1.251 . S
O438 Co425 2.264 1_556 S
O438 Co426 2.327 . S
O438 C447 1.257 . S
O439 Co426 2.073 . S
O439 C447 1.245 . S
C440 O448 1.259 . S
C440 O449 1.289 1_556 S
C441 O450 1.246 . S
C441 O451 1.257 . S
C442 O430 1.251 . S
C442 O431 1.274 . S
C443 O428 1.245 . S
C443 O429 1.257 . S
C444 O433 1.259 . S
C444 O434 1.289 . S
C445 O432 1.246 . S
C445 O435 1.257 . S
C446 O436 1.274 . S
C446 O437 1.251 . S
C447 O438 1.257 . S
C447 O439 1.245 . S
O448 Co419 2.286 1_556 S
O448 C440 1.259 . S
O449 Co419 2.069 . S
O449 C440 1.289 1_554 S
O450 Co421 2.143 1_556 S
O450 C441 1.246 . S
O451 Co419 2.015 1_556 S
O451 C441 1.257 . S
Co452 O455 2.042 . S
Co452 O462 2.264 . S
Co452 O481 2.286 . S
Co452 O482 2.069 . S
Co452 O484 2.015 . S
Co453 O455 2.122 . S
Co453 O461 2.073 . S
Co453 O462 2.327 . S
Co453 O463 1.976 . S
Co454 O455 2.087 . S
Co454 O457 2.087 . S
Co454 O464 2.111 . S
Co454 O465 2.133 1_455 S
Co454 O469 2.111 . S
Co454 O483 2.143 . S
O455 Co452 2.042 . S
O455 Co453 2.122 . S
O455 Co454 2.087 . S
O455 H456 0.980 . S
H456 O455 0.980 . S
O457 Co454 2.087 . S
O457 Co458 2.042 1_455 S
O457 Co459 2.122 1_455 S
O457 H460 0.980 . S
Co458 O457 2.042 1_655 S
Co458 O466 2.286 . S
Co458 O467 2.069 . S
Co458 O468 2.015 . S
Co458 O471 2.264 . S
Co459 O457 2.122 1_655 S
Co459 O470 1.976 . S
Co459 O471 2.327 . S
Co459 O472 2.073 . S
H460 O457 0.980 . S
O461 Co453 2.073 . S
O461 C476 1.245 . S
O462 Co452 2.264 . S
O462 Co453 2.327 . S
O462 C476 1.257 . S
O463 Co453 1.976 . S
O463 C475 1.251 . S
O464 Co454 2.111 . S
O464 C475 1.274 . S
O465 Co454 2.133 1_655 S
O465 C478 1.266 . S
O466 Co458 2.286 . S
O466 C477 1.259 . S
O467 Co458 2.069 . S
O467 C477 1.289 . S
O468 Co458 2.015 . S
O468 C478 1.257 . S
O469 Co454 2.111 . S
O469 C479 1.274 1_455 S
O470 Co459 1.976 . S
O470 C479 1.251 . S
O471 Co458 2.264 . S
O471 Co459 2.327 . S
O471 C480 1.257 . S
O472 Co459 2.073 . S
O472 C480 1.245 . S
C473 O481 1.259 . S
C473 O482 1.289 . S
C474 O483 1.246 . S
C474 O484 1.257 . S
C475 O463 1.251 . S
C475 O464 1.274 . S
C476 O461 1.245 . S
C476 O462 1.257 . S
C477 O466 1.259 . S
C477 O467 1.289 . S
C478 O465 1.266 . S
C478 O468 1.257 . S
C479 O469 1.274 1_655 S
C479 O470 1.251 . S
C480 O471 1.257 . S
C480 O472 1.245 . S
O481 Co452 2.286 . S
O481 C473 1.259 . S
O482 Co452 2.069 . S
O482 C473 1.289 . S
O483 Co454 2.143 . S
O483 C474 1.246 . S
O484 Co452 2.015 . S
O484 C474 1.257 . S
Co485 O488 2.042 . S
Co485 O495 2.264 . S
Co485 O514 2.286 . S
Co485 O515 2.069 . S
Co485 O517 2.015 1_565 S
Co486 O488 2.122 . S
Co486 O494 2.073 . S
Co486 O495 2.327 . S
Co486 O496 1.976 1_565 S
Co487 O488 2.087 1_545 S
Co487 O490 2.087 . S
Co487 O497 2.111 . S
Co487 O498 2.143 1_545 S
Co487 O502 2.111 1_545 S
Co487 O516 2.143 . S
O488 Co485 2.042 . S
O488 Co486 2.122 . S
O488 Co487 2.087 1_565 S
O488 H489 0.980 . S
H489 O488 0.980 . S
O490 Co487 2.087 . S
O490 Co491 2.042 . S
O490 Co492 2.122 . S
O490 H493 0.980 . S
Co491 O490 2.042 . S
Co491 O499 2.286 . S
Co491 O500 2.069 . S
Co491 O501 2.015 1_545 S
Co491 O504 2.264 . S
Co492 O490 2.122 . S
Co492 O503 1.976 1_545 S
Co492 O504 2.327 . S
Co492 O505 2.073 . S
H493 O490 0.980 . S
O494 Co486 2.073 . S
O494 C509 1.245 . S
O495 Co485 2.264 . S
O495 Co486 2.327 . S
O495 C509 1.257 . S
O496 Co486 1.976 1_545 S
O496 C508 1.251 . S
O497 Co487 2.111 . S
O497 C508 1.274 . S
O498 Co487 2.143 1_565 S
O498 C511 1.246 . S
O499 Co491 2.286 . S
O499 C510 1.259 . S
O500 Co491 2.069 . S
O500 C510 1.289 . S
O501 Co491 2.015 1_565 S
O501 C511 1.257 . S
O502 Co487 2.111 1_565 S
O502 C512 1.274 . S
O503 Co492 1.976 1_565 S
O503 C512 1.251 . S
O504 Co491 2.264 . S
O504 Co492 2.327 . S
O504 C513 1.257 . S
O505 Co492 2.073 . S
O505 C513 1.245 . S
C506 O514 1.259 . S
C506 O515 1.289 . S
C507 O516 1.246 . S
C507 O517 1.257 . S
C508 O496 1.251 . S
C508 O497 1.274 . S
C509 O494 1.245 . S
C509 O495 1.257 . S
C510 O499 1.259 . S
C510 O500 1.289 . S
C511 O498 1.246 . S
C511 O501 1.257 . S
C512 O502 1.274 . S
C512 O503 1.251 . S
C513 O504 1.257 . S
C513 O505 1.245 . S
O514 Co485 2.286 . S
O514 C506 1.259 . S
O515 Co485 2.069 . S
O515 C506 1.289 . S
O516 Co487 2.143 . S
O516 C507 1.246 . S
O517 Co485 2.015 1_545 S
O517 C507 1.257 . S
C518 C519 1.349 . S
C518 C520 1.327 . S
C518 H543 0.950 . S
C519 C518 1.349 . S
C519 C535 1.349 . S
C520 C518 1.327 . S
C520 C539 1.429 . S
C520 H544 0.950 . S
C521 C538 1.574 . S
C521 C540 1.368 . S
C521 H545 0.949 . S
H522 C526 0.949 . S
C523 C524 1.349 . S
C523 C525 1.327 . S
C523 H546 0.950 . S
C524 C523 1.349 . S
C524 C536 1.349 . S
C525 C523 1.327 . S
C525 C541 1.429 . S
C525 H547 0.950 . S
C526 H522 0.949 . S
C526 C534 1.574 . S
C526 C542 1.368 . S
H527 C535 0.950 . S
H528 C533 0.950 . S
H529 C534 0.949 . S
H530 C536 0.950 . S
H531 C537 0.950 . S
H532 C538 0.949 . S
C533 H528 0.950 . S
C533 C535 1.327 . S
C533 C539 1.429 . S
C534 C526 1.574 . S
C534 H529 0.949 . S
C534 C540 1.368 . S
C535 C519 1.349 . S
C535 H527 0.950 . S
C535 C533 1.327 . S
C536 C524 1.349 . S
C536 H530 0.950 . S
C536 C537 1.327 . S
C537 H531 0.950 . S
C537 C536 1.327 . S
C537 C541 1.429 . S
C538 C521 1.574 . S
C538 H532 0.949 . S
C538 C542 1.368 . S
C539 C520 1.429 . S
C539 C533 1.429 . S
C539 C540 1.523 . S
C540 C521 1.368 . S
C540 C534 1.368 . S
C540 C539 1.523 . S
C541 C525 1.429 . S
C541 C537 1.429 . S
C541 C542 1.523 . S
C542 C526 1.368 . S
C542 C538 1.368 . S
C542 C541 1.523 . S
H543 C518 0.950 . S
H544 C520 0.950 . S
H545 C521 0.949 . S
H546 C523 0.950 . S
H547 C525 0.950 . S
C548 C549 1.349 . S
C548 C550 1.327 . S
C548 H573 0.950 . S
C549 C548 1.349 . S
C549 C565 1.349 . S
C550 C548 1.327 . S
C550 C569 1.429 . S
C550 H574 0.950 . S
C551 C568 1.574 . S
C551 C570 1.368 . S
C551 H575 0.949 . S
H552 C556 0.949 . S
C553 C554 1.349 . S
C553 C555 1.327 . S
C553 H576 0.950 . S
C554 C553 1.349 . S
C554 C566 1.349 . S
C555 C553 1.327 . S
C555 C571 1.429 . S
C555 H577 0.950 . S
C556 H552 0.949 . S
C556 C564 1.574 . S
C556 C572 1.368 . S
H557 C565 0.950 . S
H558 C563 0.950 . S
H559 C564 0.949 . S
H560 C566 0.950 . S
H561 C567 0.950 . S
H562 C568 0.949 . S
C563 H558 0.950 . S
C563 C565 1.327 . S
C563 C569 1.429 . S
C564 C556 1.574 . S
C564 H559 0.949 . S
C564 C570 1.368 . S
C565 C549 1.349 . S
C565 H557 0.950 . S
C565 C563 1.327 . S
C566 C554 1.349 . S
C566 H560 0.950 . S
C566 C567 1.327 . S
C567 H561 0.950 . S
C567 C566 1.327 . S
C567 C571 1.429 . S
C568 C551 1.574 . S
C568 H562 0.949 . S
C568 C572 1.368 . S
C569 C550 1.429 . S
C569 C563 1.429 . S
C569 C570 1.523 . S
C570 C551 1.368 . S
C570 C564 1.368 . S
C570 C569 1.523 . S
C571 C555 1.429 . S
C571 C567 1.429 . S
C571 C572 1.523 . S
C572 C556 1.368 . S
C572 C568 1.368 . S
C572 C571 1.523 . S
H573 C548 0.950 . S
H574 C550 0.950 . S
H575 C551 0.949 . S
H576 C553 0.950 . S
H577 C555 0.950 . S
C578 C579 1.349 . S
C578 C580 1.327 . S
C578 H603 0.950 . S
C579 C578 1.349 . S
C579 C595 1.349 . S
C580 C578 1.327 . S
C580 C599 1.429 . S
C580 H604 0.950 . S
C581 C598 1.574 . S
C581 C600 1.368 . S
C581 H605 0.949 . S
H582 C586 0.949 . S
C583 C584 1.349 . S
C583 C585 1.327 . S
C583 H606 0.950 . S
C584 C583 1.349 . S
C584 C596 1.349 . S
C585 C583 1.327 . S
C585 C601 1.429 . S
C585 H607 0.950 . S
C586 H582 0.949 . S
C586 C594 1.574 . S
C586 C602 1.368 . S
H587 C595 0.950 . S
H588 C593 0.950 . S
H589 C594 0.949 . S
H590 C596 0.950 . S
H591 C597 0.950 . S
H592 C598 0.949 . S
C593 H588 0.950 . S
C593 C595 1.327 . S
C593 C599 1.429 . S
C594 C586 1.574 . S
C594 H589 0.949 . S
C594 C600 1.368 . S
C595 C579 1.349 . S
C595 H587 0.950 . S
C595 C593 1.327 . S
C596 C584 1.349 . S
C596 H590 0.950 . S
C596 C597 1.327 . S
C597 H591 0.950 . S
C597 C596 1.327 . S
C597 C601 1.429 . S
C598 C581 1.574 . S
C598 H592 0.949 . S
C598 C602 1.368 . S
C599 C580 1.429 . S
C599 C593 1.429 . S
C599 C600 1.523 . S
C600 C581 1.368 . S
C600 C594 1.368 . S
C600 C599 1.523 . S
C601 C585 1.429 . S
C601 C597 1.429 . S
C601 C602 1.523 . S
C602 C586 1.368 . S
C602 C598 1.368 . S
C602 C601 1.523 . S
H603 C578 0.950 . S
H604 C580 0.950 . S
H605 C581 0.949 . S
H606 C583 0.950 . S
H607 C585 0.950 . S
C608 C609 1.349 . S
C608 C610 1.327 . S
C608 H633 0.950 . S
C609 C608 1.349 . S
C609 C625 1.349 . S
C610 C608 1.327 . S
C610 C629 1.429 . S
C610 H634 0.950 . S
C611 C628 1.574 . S
C611 C630 1.368 . S
C611 H635 0.949 . S
H612 C616 0.949 . S
C613 C614 1.349 . S
C613 C615 1.327 . S
C613 H636 0.950 . S
C614 C613 1.349 . S
C614 C626 1.349 . S
C615 C613 1.327 . S
C615 C631 1.429 . S
C615 H637 0.950 . S
C616 H612 0.949 . S
C616 C624 1.574 . S
C616 C632 1.368 . S
H617 C625 0.950 . S
H618 C623 0.950 . S
H619 C624 0.949 . S
H620 C626 0.950 . S
H621 C627 0.950 . S
H622 C628 0.949 . S
C623 H618 0.950 . S
C623 C625 1.327 . S
C623 C629 1.429 . S
C624 C616 1.574 . S
C624 H619 0.949 . S
C624 C630 1.368 . S
C625 C609 1.349 . S
C625 H617 0.950 . S
C625 C623 1.327 . S
C626 C614 1.349 . S
C626 H620 0.950 . S
C626 C627 1.327 . S
C627 H621 0.950 . S
C627 C626 1.327 . S
C627 C631 1.429 . S
C628 C611 1.574 . S
C628 H622 0.949 . S
C628 C632 1.368 . S
C629 C610 1.429 . S
C629 C623 1.429 . S
C629 C630 1.523 . S
C630 C611 1.368 . S
C630 C624 1.368 . S
C630 C629 1.523 . S
C631 C615 1.429 . S
C631 C627 1.429 . S
C631 C632 1.523 . S
C632 C616 1.368 . S
C632 C628 1.368 . S
C632 C631 1.523 . S
H633 C608 0.950 . S
H634 C610 0.950 . S
H635 C611 0.949 . S
H636 C613 0.950 . S
H637 C615 0.950 . S
C638 C639 1.349 . S
C638 C640 1.327 . S
C638 H663 0.950 . S
C639 C638 1.349 . S
C639 C655 1.349 . S
C640 C638 1.327 . S
C640 C659 1.429 . S
C640 H664 0.950 . S
C641 C658 1.574 . S
C641 C660 1.368 . S
C641 H665 0.949 . S
H642 C646 0.949 . S
C643 C644 1.349 . S
C643 C645 1.327 . S
C643 H666 0.950 . S
C644 C643 1.349 . S
C644 C656 1.349 . S
C645 C643 1.327 . S
C645 C661 1.429 . S
C645 H667 0.950 . S
C646 H642 0.949 . S
C646 C654 1.574 . S
C646 C662 1.368 . S
H647 C655 0.950 . S
H648 C653 0.950 . S
H649 C654 0.949 . S
H650 C656 0.950 . S
H651 C657 0.950 . S
H652 C658 0.949 . S
C653 H648 0.950 . S
C653 C655 1.327 . S
C653 C659 1.429 . S
C654 C646 1.574 . S
C654 H649 0.949 . S
C654 C660 1.368 . S
C655 C639 1.349 . S
C655 H647 0.950 . S
C655 C653 1.327 . S
C656 C644 1.349 . S
C656 H650 0.950 . S
C656 C657 1.327 . S
C657 H651 0.950 . S
C657 C656 1.327 . S
C657 C661 1.429 . S
C658 C641 1.574 . S
C658 H652 0.949 . S
C658 C662 1.368 . S
C659 C640 1.429 . S
C659 C653 1.429 . S
C659 C660 1.523 . S
C660 C641 1.368 . S
C660 C654 1.368 . S
C660 C659 1.523 . S
C661 C645 1.429 . S
C661 C657 1.429 . S
C661 C662 1.523 . S
C662 C646 1.368 . S
C662 C658 1.368 . S
C662 C661 1.523 . S
H663 C638 0.950 . S
H664 C640 0.950 . S
H665 C641 0.949 . S
H666 C643 0.950 . S
H667 C645 0.950 . S
C668 C669 1.349 . S
C668 C670 1.327 . S
C668 H693 0.950 . S
C669 C668 1.349 . S
C669 C685 1.349 . S
C670 C668 1.327 . S
C670 C689 1.429 . S
C670 H694 0.950 . S
C671 C688 1.574 . S
C671 C690 1.368 . S
C671 H695 0.949 . S
H672 C676 0.949 . S
C673 C674 1.349 . S
C673 C675 1.327 . S
C673 H696 0.950 . S
C674 C673 1.349 . S
C674 C686 1.349 . S
C675 C673 1.327 . S
C675 C691 1.429 . S
C675 H697 0.950 . S
C676 H672 0.949 . S
C676 C684 1.574 . S
C676 C692 1.368 . S
H677 C685 0.950 . S
H678 C683 0.950 . S
H679 C684 0.949 . S
H680 C686 0.950 . S
H681 C687 0.950 . S
H682 C688 0.949 . S
C683 H678 0.950 . S
C683 C685 1.327 . S
C683 C689 1.429 . S
C684 C676 1.574 . S
C684 H679 0.949 . S
C684 C690 1.368 . S
C685 C669 1.349 . S
C685 H677 0.950 . S
C685 C683 1.327 . S
C686 C674 1.349 . S
C686 H680 0.950 . S
C686 C687 1.327 . S
C687 H681 0.950 . S
C687 C686 1.327 . S
C687 C691 1.429 . S
C688 C671 1.574 . S
C688 H682 0.949 . S
C688 C692 1.368 . S
C689 C670 1.429 . S
C689 C683 1.429 . S
C689 C690 1.523 . S
C690 C671 1.368 . S
C690 C684 1.368 . S
C690 C689 1.523 . S
C691 C675 1.429 . S
C691 C687 1.429 . S
C691 C692 1.523 . S
C692 C676 1.368 . S
C692 C688 1.368 . S
C692 C691 1.523 . S
H693 C668 0.950 . S
H694 C670 0.950 . S
H695 C671 0.949 . S
H696 C673 0.950 . S
H697 C675 0.950 . S
C698 C699 1.349 . S
C698 C700 1.327 . S
C698 H723 0.950 . S
C699 C698 1.349 . S
C699 C715 1.349 . S
C700 C698 1.327 . S
C700 C719 1.429 . S
C700 H724 0.950 . S
C701 C718 1.574 . S
C701 C720 1.368 . S
C701 H725 0.949 . S
H702 C706 0.949 . S
C703 C704 1.349 . S
C703 C705 1.327 . S
C703 H726 0.950 . S
C704 C703 1.349 . S
C704 C716 1.349 . S
C705 C703 1.327 . S
C705 C721 1.429 . S
C705 H727 0.950 . S
C706 H702 0.949 . S
C706 C714 1.574 . S
C706 C722 1.368 . S
H707 C715 0.950 . S
H708 C713 0.950 . S
H709 C714 0.949 . S
H710 C716 0.950 . S
H711 C717 0.950 . S
H712 C718 0.949 . S
C713 H708 0.950 . S
C713 C715 1.327 . S
C713 C719 1.429 . S
C714 C706 1.574 . S
C714 H709 0.949 . S
C714 C720 1.368 . S
C715 C699 1.349 . S
C715 H707 0.950 . S
C715 C713 1.327 . S
C716 C704 1.349 . S
C716 H710 0.950 . S
C716 C717 1.327 . S
C717 H711 0.950 . S
C717 C716 1.327 . S
C717 C721 1.429 . S
C718 C701 1.574 . S
C718 H712 0.949 . S
C718 C722 1.368 . S
C719 C700 1.429 . S
C719 C713 1.429 . S
C719 C720 1.523 . S
C720 C701 1.368 . S
C720 C714 1.368 . S
C720 C719 1.523 . S
C721 C705 1.429 . S
C721 C717 1.429 . S
C721 C722 1.523 . S
C722 C706 1.368 . S
C722 C718 1.368 . S
C722 C721 1.523 . S
H723 C698 0.950 . S
H724 C700 0.950 . S
H725 C701 0.949 . S
H726 C703 0.950 . S
H727 C705 0.950 . S
C728 C729 1.349 . S
C728 C730 1.327 . S
C728 H753 0.950 . S
C729 C728 1.349 . S
C729 C745 1.349 . S
C730 C728 1.327 . S
C730 C749 1.429 . S
C730 H754 0.950 . S
C731 C748 1.574 . S
C731 C750 1.368 . S
C731 H755 0.949 . S
H732 C736 0.949 . S
C733 C734 1.349 . S
C733 C735 1.327 . S
C733 H756 0.950 . S
C734 C733 1.349 . S
C734 C746 1.349 . S
C735 C733 1.327 . S
C735 C751 1.429 . S
C735 H757 0.950 . S
C736 H732 0.949 . S
C736 C744 1.574 . S
C736 C752 1.368 . S
H737 C745 0.950 . S
H738 C743 0.950 . S
H739 C744 0.949 . S
H740 C746 0.950 . S
H741 C747 0.950 . S
H742 C748 0.949 . S
C743 H738 0.950 . S
C743 C745 1.327 . S
C743 C749 1.429 . S
C744 C736 1.574 . S
C744 H739 0.949 . S
C744 C750 1.368 . S
C745 C729 1.349 . S
C745 H737 0.950 . S
C745 C743 1.327 . S
C746 C734 1.349 . S
C746 H740 0.950 . S
C746 C747 1.327 . S
C747 H741 0.950 . S
C747 C746 1.327 . S
C747 C751 1.429 . S
C748 C731 1.574 . S
C748 H742 0.949 . S
C748 C752 1.368 . S
C749 C730 1.429 . S
C749 C743 1.429 . S
C749 C750 1.523 . S
C750 C731 1.368 . S
C750 C744 1.368 . S
C750 C749 1.523 . S
C751 C735 1.429 . S
C751 C747 1.429 . S
C751 C752 1.523 . S
C752 C736 1.368 . S
C752 C748 1.368 . S
C752 C751 1.523 . S
H753 C728 0.950 . S
H754 C730 0.950 . S
H755 C731 0.949 . S
H756 C733 0.950 . S
H757 C735 0.950 . S
C758 C759 1.349 . S
C758 C760 1.327 . S
C758 H783 0.950 . S
C759 C758 1.349 . S
C759 C775 1.349 . S
C760 C758 1.327 . S
C760 C779 1.429 . S
C760 H784 0.950 . S
C761 C778 1.574 . S
C761 C780 1.368 . S
C761 H785 0.949 . S
H762 C766 0.949 . S
C763 C764 1.349 . S
C763 C765 1.327 . S
C763 H786 0.950 . S
C764 C763 1.349 . S
C764 C776 1.349 . S
C765 C763 1.327 . S
C765 C781 1.429 . S
C765 H787 0.950 . S
C766 H762 0.949 . S
C766 C774 1.574 . S
C766 C782 1.368 . S
H767 C775 0.950 . S
H768 C773 0.950 . S
H769 C774 0.949 . S
H770 C776 0.950 . S
H771 C777 0.950 . S
H772 C778 0.949 . S
C773 H768 0.950 . S
C773 C775 1.327 . S
C773 C779 1.429 . S
C774 C766 1.574 . S
C774 H769 0.949 . S
C774 C780 1.368 . S
C775 C759 1.349 . S
C775 H767 0.950 . S
C775 C773 1.327 . S
C776 C764 1.349 . S
C776 H770 0.950 . S
C776 C777 1.327 . S
C777 H771 0.950 . S
C777 C776 1.327 . S
C777 C781 1.429 . S
C778 C761 1.574 . S
C778 H772 0.949 . S
C778 C782 1.368 . S
C779 C760 1.429 . S
C779 C773 1.429 . S
C779 C780 1.523 . S
C780 C761 1.368 . S
C780 C774 1.368 . S
C780 C779 1.523 . S
C781 C765 1.429 . S
C781 C777 1.429 . S
C781 C782 1.523 . S
C782 C766 1.368 . S
C782 C778 1.368 . S
C782 C781 1.523 . S
H783 C758 0.950 . S
H784 C760 0.950 . S
H785 C761 0.949 . S
H786 C763 0.950 . S
H787 C765 0.950 . S
C788 C789 1.349 . S
C788 C790 1.327 . S
C788 H813 0.950 . S
C789 C788 1.349 . S
C789 C805 1.349 . S
C790 C788 1.327 . S
C790 C809 1.429 . S
C790 H814 0.950 . S
C791 C808 1.574 . S
C791 C810 1.368 . S
C791 H815 0.949 . S
H792 C796 0.949 . S
C793 C794 1.349 . S
C793 C795 1.327 . S
C793 H816 0.950 . S
C794 C793 1.349 . S
C794 C806 1.349 . S
C795 C793 1.327 . S
C795 C811 1.429 . S
C795 H817 0.950 . S
C796 H792 0.949 . S
C796 C804 1.574 . S
C796 C812 1.368 . S
H797 C805 0.950 . S
H798 C803 0.950 . S
H799 C804 0.949 . S
H800 C806 0.950 . S
H801 C807 0.950 . S
H802 C808 0.949 . S
C803 H798 0.950 . S
C803 C805 1.327 . S
C803 C809 1.429 . S
C804 C796 1.574 . S
C804 H799 0.949 . S
C804 C810 1.368 . S
C805 C789 1.349 . S
C805 H797 0.950 . S
C805 C803 1.327 . S
C806 C794 1.349 . S
C806 H800 0.950 . S
C806 C807 1.327 . S
C807 H801 0.950 . S
C807 C806 1.327 . S
C807 C811 1.429 . S
C808 C791 1.574 . S
C808 H802 0.949 . S
C808 C812 1.368 . S
C809 C790 1.429 . S
C809 C803 1.429 . S
C809 C810 1.523 . S
C810 C791 1.368 . S
C810 C804 1.368 . S
C810 C809 1.523 . S
C811 C795 1.429 . S
C811 C807 1.429 . S
C811 C812 1.523 . S
C812 C796 1.368 . S
C812 C808 1.368 . S
C812 C811 1.523 . S
H813 C788 0.950 . S
H814 C790 0.950 . S
H815 C791 0.949 . S
H816 C793 0.950 . S
H817 C795 0.950 . S
C818 C819 1.349 . S
C818 C820 1.327 . S
C818 H843 0.950 . S
C819 C818 1.349 . S
C819 C835 1.349 . S
C820 C818 1.327 . S
C820 C839 1.429 . S
C820 H844 0.950 . S
C821 C838 1.574 . S
C821 C840 1.368 . S
C821 H845 0.949 . S
H822 C826 0.949 . S
C823 C824 1.349 . S
C823 C825 1.327 . S
C823 H846 0.950 . S
C824 C823 1.349 . S
C824 C836 1.349 . S
C825 C823 1.327 . S
C825 C841 1.429 . S
C825 H847 0.950 . S
C826 H822 0.949 . S
C826 C834 1.574 . S
C826 C842 1.368 . S
H827 C835 0.950 . S
H828 C833 0.950 . S
H829 C834 0.949 . S
H830 C836 0.950 . S
H831 C837 0.950 . S
H832 C838 0.949 . S
C833 H828 0.950 . S
C833 C835 1.327 . S
C833 C839 1.429 . S
C834 C826 1.574 . S
C834 H829 0.949 . S
C834 C840 1.368 . S
C835 C819 1.349 . S
C835 H827 0.950 . S
C835 C833 1.327 . S
C836 C824 1.349 . S
C836 H830 0.950 . S
C836 C837 1.327 . S
C837 H831 0.950 . S
C837 C836 1.327 . S
C837 C841 1.429 . S
C838 C821 1.574 . S
C838 H832 0.949 . S
C838 C842 1.368 . S
C839 C820 1.429 . S
C839 C833 1.429 . S
C839 C840 1.523 . S
C840 C821 1.368 . S
C840 C834 1.368 . S
C840 C839 1.523 . S
C841 C825 1.429 . S
C841 C837 1.429 . S
C841 C842 1.523 . S
C842 C826 1.368 . S
C842 C838 1.368 . S
C842 C841 1.523 . S
H843 C818 0.950 . S
H844 C820 0.950 . S
H845 C821 0.949 . S
H846 C823 0.950 . S
H847 C825 0.950 . S
C848 C849 1.349 . S
C848 C850 1.327 . S
C848 H873 0.950 . S
C849 C848 1.349 . S
C849 C865 1.349 . S
C850 C848 1.327 . S
C850 C869 1.429 . S
C850 H874 0.950 . S
C851 C868 1.574 . S
C851 C870 1.368 . S
C851 H875 0.949 . S
H852 C856 0.949 . S
C853 C854 1.349 . S
C853 C855 1.327 . S
C853 H876 0.950 . S
C854 C853 1.349 . S
C854 C866 1.349 . S
C855 C853 1.327 . S
C855 C871 1.429 . S
C855 H877 0.950 . S
C856 H852 0.949 . S
C856 C864 1.574 . S
C856 C872 1.368 . S
H857 C865 0.950 . S
H858 C863 0.950 . S
H859 C864 0.949 . S
H860 C866 0.950 . S
H861 C867 0.950 . S
H862 C868 0.949 . S
C863 H858 0.950 . S
C863 C865 1.327 . S
C863 C869 1.429 . S
C864 C856 1.574 . S
C864 H859 0.949 . S
C864 C870 1.368 . S
C865 C849 1.349 . S
C865 H857 0.950 . S
C865 C863 1.327 . S
C866 C854 1.349 . S
C866 H860 0.950 . S
C866 C867 1.327 . S
C867 H861 0.950 . S
C867 C866 1.327 . S
C867 C871 1.429 . S
C868 C851 1.574 . S
C868 H862 0.949 . S
C868 C872 1.368 . S
C869 C850 1.429 . S
C869 C863 1.429 . S
C869 C870 1.523 . S
C870 C851 1.368 . S
C870 C864 1.368 . S
C870 C869 1.523 . S
C871 C855 1.429 . S
C871 C867 1.429 . S
C871 C872 1.523 . S
C872 C856 1.368 . S
C872 C868 1.368 . S
C872 C871 1.523 . S
H873 C848 0.950 . S
H874 C850 0.950 . S
H875 C851 0.949 . S
H876 C853 0.950 . S
H877 C855 0.950 . S
C878 C879 1.349 . S
C878 C880 1.327 . S
C878 H903 0.950 . S
C879 C878 1.349 . S
C879 C895 1.349 . S
C880 C878 1.327 . S
C880 C899 1.429 . S
C880 H904 0.950 . S
C881 C898 1.574 . S
C881 C900 1.368 . S
C881 H905 0.949 . S
H882 C886 0.949 . S
C883 C884 1.349 . S
C883 C885 1.327 . S
C883 H906 0.950 . S
C884 C883 1.349 . S
C884 C896 1.349 . S
C885 C883 1.327 . S
C885 C901 1.429 . S
C885 H907 0.950 . S
C886 H882 0.949 . S
C886 C894 1.574 . S
C886 C902 1.368 . S
H887 C895 0.950 . S
H888 C893 0.950 . S
H889 C894 0.949 . S
H890 C896 0.950 . S
H891 C897 0.950 . S
H892 C898 0.949 . S
C893 H888 0.950 . S
C893 C895 1.327 . S
C893 C899 1.429 . S
C894 C886 1.574 . S
C894 H889 0.949 . S
C894 C900 1.368 . S
C895 C879 1.349 . S
C895 H887 0.950 . S
C895 C893 1.327 . S
C896 C884 1.349 . S
C896 H890 0.950 . S
C896 C897 1.327 . S
C897 H891 0.950 . S
C897 C896 1.327 . S
C897 C901 1.429 . S
C898 C881 1.574 . S
C898 H892 0.949 . S
C898 C902 1.368 . S
C899 C880 1.429 . S
C899 C893 1.429 . S
C899 C900 1.523 . S
C900 C881 1.368 . S
C900 C894 1.368 . S
C900 C899 1.523 . S
C901 C885 1.429 . S
C901 C897 1.429 . S
C901 C902 1.523 . S
C902 C886 1.368 . S
C902 C898 1.368 . S
C902 C901 1.523 . S
H903 C878 0.950 . S
H904 C880 0.950 . S
H905 C881 0.949 . S
H906 C883 0.950 . S
H907 C885 0.950 . S
C908 C909 1.349 . S
C908 C910 1.327 . S
C908 H933 0.950 . S
C909 C908 1.349 . S
C909 C925 1.349 . S
C910 C908 1.327 . S
C910 C929 1.429 . S
C910 H934 0.950 . S
C911 C928 1.574 . S
C911 C930 1.368 . S
C911 H935 0.949 . S
H912 C916 0.949 1_554 S
C913 C914 1.380 . S
C913 C915 1.327 . S
C913 H936 0.950 . S
C914 C913 1.380 . S
C914 C926 1.335 1_556 S
C915 C913 1.327 . S
C915 C931 1.429 . S
C915 H937 0.950 . S
C916 H912 0.949 1_556 S
C916 C924 1.574 . S
C916 C932 1.368 . S
H917 C925 0.950 . S
H918 C923 0.950 . S
H919 C924 0.949 . S
H920 C926 0.950 . S
H921 C927 0.950 . S
H922 C928 0.949 . S
C923 H918 0.950 . S
C923 C925 1.327 . S
C923 C929 1.429 . S
C924 C916 1.574 . S
C924 H919 0.949 . S
C924 C930 1.368 . S
C925 C909 1.349 . S
C925 H917 0.950 . S
C925 C923 1.327 . S
C926 C914 1.335 1_554 S
C926 H920 0.950 . S
C926 C927 1.327 . S
C927 H921 0.950 . S
C927 C926 1.327 . S
C927 C931 1.429 1_554 S
C928 C911 1.574 . S
C928 H922 0.949 . S
C928 C932 1.368 . S
C929 C910 1.429 . S
C929 C923 1.429 . S
C929 C930 1.523 . S
C930 C911 1.368 . S
C930 C924 1.368 . S
C930 C929 1.523 . S
C931 C915 1.429 . S
C931 C927 1.429 1_556 S
C931 C932 1.523 . S
C932 C916 1.368 . S
C932 C928 1.368 . S
C932 C931 1.523 . S
H933 C908 0.950 . S
H934 C910 0.950 . S
H935 C911 0.949 . S
H936 C913 0.950 . S
H937 C915 0.950 . S
C938 C939 1.349 . S
C938 C940 1.327 . S
C938 H963 0.950 . S
C939 C938 1.349 . S
C939 C955 1.349 . S
C940 C938 1.327 . S
C940 C959 1.429 . S
C940 H964 0.950 . S
C941 C958 1.574 . S
C941 C960 1.368 . S
C941 H965 0.949 . S
H942 C946 0.949 . S
C943 C944 1.349 . S
C943 C945 1.327 . S
C943 H966 0.950 . S
C944 C943 1.349 . S
C944 C956 1.349 . S
C945 C943 1.327 . S
C945 C961 1.429 . S
C945 H967 0.950 . S
C946 H942 0.949 . S
C946 C954 1.574 . S
C946 C962 1.368 . S
H947 C955 0.950 . S
H948 C953 0.950 . S
H949 C954 0.949 . S
H950 C956 0.950 . S
H951 C957 0.950 . S
H952 C958 0.949 . S
C953 H948 0.950 . S
C953 C955 1.327 . S
C953 C959 1.429 . S
C954 C946 1.574 . S
C954 H949 0.949 . S
C954 C960 1.368 . S
C955 C939 1.349 . S
C955 H947 0.950 . S
C955 C953 1.327 . S
C956 C944 1.349 . S
C956 H950 0.950 . S
C956 C957 1.327 . S
C957 H951 0.950 . S
C957 C956 1.327 . S
C957 C961 1.429 . S
C958 C941 1.574 . S
C958 H952 0.949 . S
C958 C962 1.368 . S
C959 C940 1.429 . S
C959 C953 1.429 . S
C959 C960 1.523 . S
C960 C941 1.368 . S
C960 C954 1.368 . S
C960 C959 1.523 . S
C961 C945 1.429 . S
C961 C957 1.429 . S
C961 C962 1.523 . S
C962 C946 1.368 . S
C962 C958 1.368 . S
C962 C961 1.523 . S
H963 C938 0.950 . S
H964 C940 0.950 . S
H965 C941 0.949 . S
H966 C943 0.950 . S
H967 C945 0.950 . S
C968 C969 1.349 . S
C968 C970 1.327 . S
C968 H993 0.950 . S
C969 C968 1.349 . S
C969 C985 1.349 . S
C970 C968 1.327 . S
C970 C989 1.429 . S
C970 H994 0.950 . S
C971 C988 1.574 . S
C971 C990 1.368 . S
C971 H995 0.949 . S
H972 C976 0.949 . S
C973 C974 1.349 . S
C973 C975 1.327 . S
C973 H996 0.950 . S
C974 C973 1.349 . S
C974 C986 1.349 . S
C975 C973 1.327 . S
C975 C991 1.429 . S
C975 H997 0.950 . S
C976 H972 0.949 . S
C976 C984 1.574 . S
C976 C992 1.368 . S
H977 C985 0.950 . S
H978 C983 0.950 . S
H979 C984 0.949 . S
H980 C986 0.950 . S
H981 C987 0.950 . S
H982 C988 0.949 . S
C983 H978 0.950 . S
C983 C985 1.327 . S
C983 C989 1.429 . S
C984 C976 1.574 . S
C984 H979 0.949 . S
C984 C990 1.368 . S
C985 C969 1.349 . S
C985 H977 0.950 . S
C985 C983 1.327 . S
C986 C974 1.349 . S
C986 H980 0.950 . S
C986 C987 1.327 . S
C987 H981 0.950 . S
C987 C986 1.327 . S
C987 C991 1.429 . S
C988 C971 1.574 . S
C988 H982 0.949 . S
C988 C992 1.368 . S
C989 C970 1.429 . S
C989 C983 1.429 . S
C989 C990 1.523 . S
C990 C971 1.368 . S
C990 C984 1.368 . S
C990 C989 1.523 . S
C991 C975 1.429 . S
C991 C987 1.429 . S
C991 C992 1.523 . S
C992 C976 1.368 . S
C992 C988 1.368 . S
C992 C991 1.523 . S
H993 C968 0.950 . S
H994 C970 0.950 . S
H995 C971 0.949 . S
H996 C973 0.950 . S
H997 C975 0.950 . S
C998 C999 1.349 . S
C998 C1000 1.327 . S
C998 H1023 0.950 . S
C999 C998 1.349 . S
C999 C1015 1.349 . S
C1000 C998 1.327 . S
C1000 C1019 1.429 . S
C1000 H1024 0.950 . S
C1001 C1018 1.574 . S
C1001 C1020 1.368 . S
C1001 H1025 0.949 . S
H1002 C1006 0.949 . S
C1003 C1004 1.349 . S
C1003 C1005 1.327 . S
C1003 H1026 0.950 . S
C1004 C1003 1.349 . S
C1004 C1016 1.349 . S
C1005 C1003 1.327 . S
C1005 C1021 1.429 . S
C1005 H1027 0.950 . S
C1006 H1002 0.949 . S
C1006 C1014 1.574 . S
C1006 C1022 1.368 . S
H1007 C1015 0.950 . S
H1008 C1013 0.950 . S
H1009 C1014 0.949 . S
H1010 C1016 0.950 . S
H1011 C1017 0.950 . S
H1012 C1018 0.949 . S
C1013 H1008 0.950 . S
C1013 C1015 1.327 . S
C1013 C1019 1.429 . S
C1014 C1006 1.574 . S
C1014 H1009 0.949 . S
C1014 C1020 1.368 . S
C1015 C999 1.349 . S
C1015 H1007 0.950 . S
C1015 C1013 1.327 . S
C1016 C1004 1.349 . S
C1016 H1010 0.950 . S
C1016 C1017 1.327 . S
C1017 H1011 0.950 . S
C1017 C1016 1.327 . S
C1017 C1021 1.429 . S
C1018 C1001 1.574 . S
C1018 H1012 0.949 . S
C1018 C1022 1.368 . S
C1019 C1000 1.429 . S
C1019 C1013 1.429 . S
C1019 C1020 1.523 . S
C1020 C1001 1.368 . S
C1020 C1014 1.368 . S
C1020 C1019 1.523 . S
C1021 C1005 1.429 . S
C1021 C1017 1.429 . S
C1021 C1022 1.523 . S
C1022 C1006 1.368 . S
C1022 C1018 1.368 . S
C1022 C1021 1.523 . S
H1023 C998 0.950 . S
H1024 C1000 0.950 . S
H1025 C1001 0.949 . S
H1026 C1003 0.950 . S
H1027 C1005 0.950 . S
C1028 C1029 1.349 . S
C1028 C1030 1.327 . S
C1028 H1053 0.950 . S
C1029 C1028 1.349 . S
C1029 C1045 1.349 . S
C1030 C1028 1.327 . S
C1030 C1049 1.429 . S
C1030 H1054 0.950 . S
C1031 C1048 1.574 . S
C1031 C1050 1.368 . S
C1031 H1055 0.949 . S
H1032 C1036 0.949 . S
C1033 C1034 1.349 1_556 S
C1033 C1035 1.327 . S
C1033 H1056 0.950 . S
C1034 C1033 1.349 1_554 S
C1034 C1046 1.349 . S
C1035 C1033 1.327 . S
C1035 C1051 1.429 . S
C1035 H1057 0.950 . S
C1036 H1032 0.949 . S
C1036 C1044 1.574 1_554 S
C1036 C1052 1.368 1_554 S
H1037 C1045 0.950 . S
H1038 C1043 0.950 . S
H1039 C1044 0.949 1_554 S
H1040 C1046 0.950 . S
H1041 C1047 0.950 . S
H1042 C1048 0.949 . S
C1043 H1038 0.950 . S
C1043 C1045 1.327 . S
C1043 C1049 1.429 . S
C1044 C1036 1.574 1_556 S
C1044 H1039 0.949 1_556 S
C1044 C1050 1.368 . S
C1045 C1029 1.349 . S
C1045 H1037 0.950 . S
C1045 C1043 1.327 . S
C1046 C1034 1.349 . S
C1046 H1040 0.950 . S
C1046 C1047 1.327 . S
C1047 H1041 0.950 . S
C1047 C1046 1.327 . S
C1047 C1051 1.429 1_554 S
C1048 C1031 1.574 . S
C1048 H1042 0.949 . S
C1048 C1052 1.368 . S
C1049 C1030 1.429 . S
C1049 C1043 1.429 . S
C1049 C1050 1.523 . S
C1050 C1031 1.368 . S
C1050 C1044 1.368 . S
C1050 C1049 1.523 . S
C1051 C1035 1.429 . S
C1051 C1047 1.429 1_556 S
C1051 C1052 1.523 . S
C1052 C1036 1.368 1_556 S
C1052 C1048 1.368 . S
C1052 C1051 1.523 . S
H1053 C1028 0.950 . S
H1054 C1030 0.950 . S
H1055 C1031 0.949 . S
H1056 C1033 0.950 . S
H1057 C1035 0.950 . S
C1058 C1059 1.349 . S
C1058 C1060 1.327 . S
C1058 H1083 0.950 . S
C1059 C1058 1.349 . S
C1059 C1075 1.349 . S
C1060 C1058 1.327 . S
C1060 C1079 1.429 . S
C1060 H1084 0.950 . S
C1061 C1078 1.574 . S
C1061 C1080 1.368 . S
C1061 H1085 0.949 . S
H1062 C1066 0.949 . S
C1063 C1064 1.349 . S
C1063 C1065 1.327 . S
C1063 H1086 0.950 . S
C1064 C1063 1.349 . S
C1064 C1076 1.349 . S
C1065 C1063 1.327 . S
C1065 C1081 1.429 . S
C1065 H1087 0.950 . S
C1066 H1062 0.949 . S
C1066 C1074 1.574 . S
C1066 C1082 1.368 . S
H1067 C1075 0.950 . S
H1068 C1073 0.950 . S
H1069 C1074 0.949 . S
H1070 C1076 0.950 . S
H1071 C1077 0.950 . S
H1072 C1078 0.949 . S
C1073 H1068 0.950 . S
C1073 C1075 1.327 . S
C1073 C1079 1.429 . S
C1074 C1066 1.574 . S
C1074 H1069 0.949 . S
C1074 C1080 1.368 . S
C1075 C1059 1.349 . S
C1075 H1067 0.950 . S
C1075 C1073 1.327 . S
C1076 C1064 1.349 . S
C1076 H1070 0.950 . S
C1076 C1077 1.327 . S
C1077 H1071 0.950 . S
C1077 C1076 1.327 . S
C1077 C1081 1.429 . S
C1078 C1061 1.574 . S
C1078 H1072 0.949 . S
C1078 C1082 1.368 . S
C1079 C1060 1.429 . S
C1079 C1073 1.429 . S
C1079 C1080 1.523 . S
C1080 C1061 1.368 . S
C1080 C1074 1.368 . S
C1080 C1079 1.523 . S
C1081 C1065 1.429 . S
C1081 C1077 1.429 . S
C1081 C1082 1.523 . S
C1082 C1066 1.368 . S
C1082 C1078 1.368 . S
C1082 C1081 1.523 . S
H1083 C1058 0.950 . S
H1084 C1060 0.950 . S
H1085 C1061 0.949 . S
H1086 C1063 0.950 . S
H1087 C1065 0.950 . S
C1088 C1089 1.349 . S
C1088 C1090 1.327 . S
C1088 H1113 0.950 . S
C1089 C1088 1.349 . S
C1089 C1105 1.349 . S
C1090 C1088 1.327 . S
C1090 C1109 1.429 . S
C1090 H1114 0.950 . S
C1091 C1108 1.574 . S
C1091 C1110 1.368 . S
C1091 H1115 0.949 . S
H1092 C1096 0.949 . S
C1093 C1094 1.349 . S
C1093 C1095 1.327 . S
C1093 H1116 0.950 . S
C1094 C1093 1.349 . S
C1094 C1106 1.349 1_556 S
C1095 C1093 1.327 . S
C1095 C1111 1.429 . S
C1095 H1117 0.950 . S
C1096 H1092 0.949 . S
C1096 C1104 1.574 . S
C1096 C1112 1.368 . S
H1097 C1105 0.950 . S
H1098 C1103 0.950 . S
H1099 C1104 0.949 . S
H1100 C1106 0.950 . S
H1101 C1107 0.950 . S
H1102 C1108 0.949 . S
C1103 H1098 0.950 . S
C1103 C1105 1.327 . S
C1103 C1109 1.429 . S
C1104 C1096 1.574 . S
C1104 H1099 0.949 . S
C1104 C1110 1.368 . S
C1105 C1089 1.349 . S
C1105 H1097 0.950 . S
C1105 C1103 1.327 . S
C1106 C1094 1.349 1_554 S
C1106 H1100 0.950 . S
C1106 C1107 1.327 1_554 S
C1107 H1101 0.950 . S
C1107 C1106 1.327 1_556 S
C1107 C1111 1.429 . S
C1108 C1091 1.574 . S
C1108 H1102 0.949 . S
C1108 C1112 1.368 . S
C1109 C1090 1.429 . S
C1109 C1103 1.429 . S
C1109 C1110 1.523 . S
C1110 C1091 1.368 . S
C1110 C1104 1.368 . S
C1110 C1109 1.523 . S
C1111 C1095 1.429 . S
C1111 C1107 1.429 . S
C1111 C1112 1.523 . S
C1112 C1096 1.368 . S
C1112 C1108 1.368 . S
C1112 C1111 1.523 . S
H1113 C1088 0.950 . S
H1114 C1090 0.950 . S
H1115 C1091 0.949 . S
H1116 C1093 0.950 . S
H1117 C1095 0.950 . S
C1118 C1119 1.349 . S
C1118 C1120 1.327 . S
C1118 H1143 0.950 . S
C1119 C1118 1.349 . S
C1119 C1135 1.349 . S
C1120 C1118 1.327 . S
C1120 C1139 1.429 . S
C1120 H1144 0.950 . S
C1121 C1138 1.574 . S
C1121 C1140 1.368 . S
C1121 H1145 0.949 . S
H1122 C1126 0.949 . S
C1123 C1124 1.349 . S
C1123 C1125 1.327 . S
C1123 H1146 0.950 . S
C1124 C1123 1.349 . S
C1124 C1136 1.349 . S
C1125 C1123 1.327 . S
C1125 C1141 1.429 . S
C1125 H1147 0.950 . S
C1126 H1122 0.949 . S
C1126 C1134 1.574 . S
C1126 C1142 1.368 . S
H1127 C1135 0.950 . S
H1128 C1133 0.950 . S
H1129 C1134 0.949 . S
H1130 C1136 0.950 . S
H1131 C1137 0.950 . S
H1132 C1138 0.949 . S
C1133 H1128 0.950 . S
C1133 C1135 1.327 . S
C1133 C1139 1.429 . S
C1134 C1126 1.574 . S
C1134 H1129 0.949 . S
C1134 C1140 1.368 . S
C1135 C1119 1.349 . S
C1135 H1127 0.950 . S
C1135 C1133 1.327 . S
C1136 C1124 1.349 . S
C1136 H1130 0.950 . S
C1136 C1137 1.327 . S
C1137 H1131 0.950 . S
C1137 C1136 1.327 . S
C1137 C1141 1.429 . S
C1138 C1121 1.574 . S
C1138 H1132 0.949 . S
C1138 C1142 1.368 . S
C1139 C1120 1.429 . S
C1139 C1133 1.429 . S
C1139 C1140 1.523 . S
C1140 C1121 1.368 . S
C1140 C1134 1.368 . S
C1140 C1139 1.523 . S
C1141 C1125 1.429 . S
C1141 C1137 1.429 . S
C1141 C1142 1.523 . S
C1142 C1126 1.368 . S
C1142 C1138 1.368 . S
C1142 C1141 1.523 . S
H1143 C1118 0.950 . S
H1144 C1120 0.950 . S
H1145 C1121 0.949 . S
H1146 C1123 0.950 . S
H1147 C1125 0.950 . S
C1148 C1149 1.349 . S
C1148 C1150 1.327 . S
C1148 H1173 0.950 . S
C1149 C1148 1.349 . S
C1149 C1165 1.349 . S
C1150 C1148 1.327 . S
C1150 C1169 1.429 . S
C1150 H1174 0.950 . S
C1151 C1168 1.574 . S
C1151 C1170 1.368 . S
C1151 H1175 0.949 . S
H1152 C1156 0.949 . S
C1153 C1154 1.349 . S
C1153 C1155 1.327 . S
C1153 H1176 0.950 . S
C1154 C1153 1.349 . S
C1154 C1166 1.349 . S
C1155 C1153 1.327 . S
C1155 C1171 1.429 . S
C1155 H1177 0.950 . S
C1156 H1152 0.949 . S
C1156 C1164 1.574 . S
C1156 C1172 1.368 . S
H1157 C1165 0.950 . S
H1158 C1163 0.950 . S
H1159 C1164 0.949 . S
H1160 C1166 0.950 . S
H1161 C1167 0.950 . S
H1162 C1168 0.949 . S
C1163 H1158 0.950 . S
C1163 C1165 1.327 . S
C1163 C1169 1.429 . S
C1164 C1156 1.574 . S
C1164 H1159 0.949 . S
C1164 C1170 1.368 . S
C1165 C1149 1.349 . S
C1165 H1157 0.950 . S
C1165 C1163 1.327 . S
C1166 C1154 1.349 . S
C1166 H1160 0.950 . S
C1166 C1167 1.327 . S
C1167 H1161 0.950 . S
C1167 C1166 1.327 . S
C1167 C1171 1.429 . S
C1168 C1151 1.574 . S
C1168 H1162 0.949 . S
C1168 C1172 1.368 . S
C1169 C1150 1.429 . S
C1169 C1163 1.429 . S
C1169 C1170 1.523 . S
C1170 C1151 1.368 . S
C1170 C1164 1.368 . S
C1170 C1169 1.523 . S
C1171 C1155 1.429 . S
C1171 C1167 1.429 . S
C1171 C1172 1.523 . S
C1172 C1156 1.368 . S
C1172 C1168 1.368 . S
C1172 C1171 1.523 . S
H1173 C1148 0.950 . S
H1174 C1150 0.950 . S
H1175 C1151 0.949 . S
H1176 C1153 0.950 . S
H1177 C1155 0.950 . S
C1178 C1179 1.349 . S
C1178 C1180 1.327 . S
C1178 H1203 0.950 . S
C1179 C1178 1.349 . S
C1179 C1195 1.349 . S
C1180 C1178 1.327 . S
C1180 C1199 1.429 . S
C1180 H1204 0.950 . S
C1181 C1198 1.574 . S
C1181 C1200 1.368 . S
C1181 H1205 0.949 . S
H1182 C1186 0.949 . S
C1183 C1184 1.349 . S
C1183 C1185 1.327 . S
C1183 H1206 0.950 . S
C1184 C1183 1.349 . S
C1184 C1196 1.349 . S
C1185 C1183 1.327 . S
C1185 C1201 1.429 . S
C1185 H1207 0.950 . S
C1186 H1182 0.949 . S
C1186 C1194 1.574 . S
C1186 C1202 1.368 . S
H1187 C1195 0.950 . S
H1188 C1193 0.950 . S
H1189 C1194 0.949 . S
H1190 C1196 0.950 . S
H1191 C1197 0.950 . S
H1192 C1198 0.949 . S
C1193 H1188 0.950 . S
C1193 C1195 1.327 . S
C1193 C1199 1.429 . S
C1194 C1186 1.574 . S
C1194 H1189 0.949 . S
C1194 C1200 1.368 . S
C1195 C1179 1.349 . S
C1195 H1187 0.950 . S
C1195 C1193 1.327 . S
C1196 C1184 1.349 . S
C1196 H1190 0.950 . S
C1196 C1197 1.327 . S
C1197 H1191 0.950 . S
C1197 C1196 1.327 . S
C1197 C1201 1.429 . S
C1198 C1181 1.574 . S
C1198 H1192 0.949 . S
C1198 C1202 1.368 . S
C1199 C1180 1.429 . S
C1199 C1193 1.429 . S
C1199 C1200 1.523 . S
C1200 C1181 1.368 . S
C1200 C1194 1.368 . S
C1200 C1199 1.523 . S
C1201 C1185 1.429 . S
C1201 C1197 1.429 . S
C1201 C1202 1.523 . S
C1202 C1186 1.368 . S
C1202 C1198 1.368 . S
C1202 C1201 1.523 . S
H1203 C1178 0.950 . S
H1204 C1180 0.950 . S
H1205 C1181 0.949 . S
H1206 C1183 0.950 . S
H1207 C1185 0.950 . S
C1208 C1209 1.349 . S
C1208 C1210 1.327 . S
C1208 H1233 0.950 . S
C1209 C1208 1.349 . S
C1209 C1225 1.349 . S
C1210 C1208 1.327 . S
C1210 C1229 1.429 . S
C1210 H1234 0.950 . S
C1211 C1228 1.574 . S
C1211 C1230 1.368 . S
C1211 H1235 0.949 . S
H1212 C1216 0.949 . S
C1213 C1214 1.349 . S
C1213 C1215 1.327 . S
C1213 H1236 0.950 . S
C1214 C1213 1.349 . S
C1214 C1226 1.349 . S
C1215 C1213 1.327 . S
C1215 C1231 1.429 . S
C1215 H1237 0.950 . S
C1216 H1212 0.949 . S
C1216 C1224 1.574 . S
C1216 C1232 1.368 . S
H1217 C1225 0.950 . S
H1218 C1223 0.950 . S
H1219 C1224 0.949 . S
H1220 C1226 0.950 . S
H1221 C1227 0.950 . S
H1222 C1228 0.949 . S
C1223 H1218 0.950 . S
C1223 C1225 1.327 . S
C1223 C1229 1.429 . S
C1224 C1216 1.574 . S
C1224 H1219 0.949 . S
C1224 C1230 1.368 . S
C1225 C1209 1.349 . S
C1225 H1217 0.950 . S
C1225 C1223 1.327 . S
C1226 C1214 1.349 . S
C1226 H1220 0.950 . S
C1226 C1227 1.327 . S
C1227 H1221 0.950 . S
C1227 C1226 1.327 . S
C1227 C1231 1.429 . S
C1228 C1211 1.574 . S
C1228 H1222 0.949 . S
C1228 C1232 1.368 . S
C1229 C1210 1.429 . S
C1229 C1223 1.429 . S
C1229 C1230 1.523 . S
C1230 C1211 1.368 . S
C1230 C1224 1.368 . S
C1230 C1229 1.523 . S
C1231 C1215 1.429 . S
C1231 C1227 1.429 . S
C1231 C1232 1.523 . S
C1232 C1216 1.368 . S
C1232 C1228 1.368 . S
C1232 C1231 1.523 . S
H1233 C1208 0.950 . S
H1234 C1210 0.950 . S
H1235 C1211 0.949 . S
H1236 C1213 0.950 . S
H1237 C1215 0.950 . S
C1238 C1239 1.349 . S
C1238 C1240 1.327 . S
C1238 H1263 0.950 . S
C1239 C1238 1.349 . S
C1239 C1255 1.349 . S
C1240 C1238 1.327 . S
C1240 C1259 1.429 . S
C1240 H1264 0.950 . S
C1241 C1258 1.574 . S
C1241 C1260 1.368 . S
C1241 H1265 0.949 . S
H1242 C1246 0.949 . S
C1243 C1244 1.349 . S
C1243 C1245 1.327 . S
C1243 H1266 0.950 . S
C1244 C1243 1.349 . S
C1244 C1256 1.349 . S
C1245 C1243 1.327 . S
C1245 C1261 1.429 . S
C1245 H1267 0.950 . S
C1246 H1242 0.949 . S
C1246 C1254 1.574 . S
C1246 C1262 1.368 . S
H1247 C1255 0.950 . S
H1248 C1253 0.950 . S
H1249 C1254 0.949 . S
H1250 C1256 0.950 . S
H1251 C1257 0.950 . S
H1252 C1258 0.949 . S
C1253 H1248 0.950 . S
C1253 C1255 1.327 . S
C1253 C1259 1.429 . S
C1254 C1246 1.574 . S
C1254 H1249 0.949 . S
C1254 C1260 1.368 . S
C1255 C1239 1.349 . S
C1255 H1247 0.950 . S
C1255 C1253 1.327 . S
C1256 C1244 1.349 . S
C1256 H1250 0.950 . S
C1256 C1257 1.327 . S
C1257 H1251 0.950 . S
C1257 C1256 1.327 . S
C1257 C1261 1.429 . S
C1258 C1241 1.574 . S
C1258 H1252 0.949 . S
C1258 C1262 1.368 . S
C1259 C1240 1.429 . S
C1259 C1253 1.429 . S
C1259 C1260 1.523 . S
C1260 C1241 1.368 . S
C1260 C1254 1.368 . S
C1260 C1259 1.523 . S
C1261 C1245 1.429 . S
C1261 C1257 1.429 . S
C1261 C1262 1.523 . S
C1262 C1246 1.368 . S
C1262 C1258 1.368 . S
C1262 C1261 1.523 . S
H1263 C1238 0.950 . S
H1264 C1240 0.950 . S
H1265 C1241 0.949 . S
H1266 C1243 0.950 . S
H1267 C1245 0.950 . S
C1268 C1269 1.349 . S
C1268 C1270 1.327 . S
C1268 H1293 0.950 . S
C1269 C1268 1.349 . S
C1269 C1285 1.349 . S
C1270 C1268 1.327 . S
C1270 C1289 1.429 . S
C1270 H1294 0.950 . S
C1271 C1288 1.574 . S
C1271 C1290 1.368 . S
C1271 H1295 0.949 . S
H1272 C1276 0.949 . S
C1273 C1274 1.349 . S
C1273 C1275 1.327 . S
C1273 H1296 0.950 1_556 S
C1274 C1273 1.349 . S
C1274 C1286 1.349 . S
C1275 C1273 1.327 . S
C1275 C1291 1.429 . S
C1275 H1297 0.950 . S
C1276 H1272 0.949 . S
C1276 C1284 1.574 . S
C1276 C1292 1.368 . S
H1277 C1285 0.950 . S
H1278 C1283 0.950 . S
H1279 C1284 0.949 . S
H1280 C1286 0.950 . S
H1281 C1287 0.950 . S
H1282 C1288 0.949 . S
C1283 H1278 0.950 . S
C1283 C1285 1.327 . S
C1283 C1289 1.429 . S
C1284 C1276 1.574 . S
C1284 H1279 0.949 . S
C1284 C1290 1.368 . S
C1285 C1269 1.349 . S
C1285 H1277 0.950 . S
C1285 C1283 1.327 . S
C1286 C1274 1.349 . S
C1286 H1280 0.950 . S
C1286 C1287 1.327 . S
C1287 H1281 0.950 . S
C1287 C1286 1.327 . S
C1287 C1291 1.429 . S
C1288 C1271 1.574 . S
C1288 H1282 0.949 . S
C1288 C1292 1.368 . S
C1289 C1270 1.429 . S
C1289 C1283 1.429 . S
C1289 C1290 1.523 . S
C1290 C1271 1.368 . S
C1290 C1284 1.368 . S
C1290 C1289 1.523 . S
C1291 C1275 1.429 . S
C1291 C1287 1.429 . S
C1291 C1292 1.523 . S
C1292 C1276 1.368 . S
C1292 C1288 1.368 . S
C1292 C1291 1.523 . S
H1293 C1268 0.950 . S
H1294 C1270 0.950 . S
H1295 C1271 0.949 . S
H1296 C1273 0.950 1_554 S
H1297 C1275 0.950 . S
C1298 C1299 1.349 . S
C1298 C1300 1.327 . S
C1298 H1323 0.950 . S
C1299 C1298 1.349 . S
C1299 C1315 1.349 . S
C1300 C1298 1.327 . S
C1300 C1319 1.429 . S
C1300 H1324 0.950 . S
C1301 C1318 1.574 . S
C1301 C1320 1.368 . S
C1301 H1325 0.949 . S
H1302 C1306 0.949 . S
C1303 C1304 1.349 . S
C1303 C1305 1.327 . S
C1303 H1326 0.950 . S
C1304 C1303 1.349 . S
C1304 C1316 1.349 . S
C1305 C1303 1.327 . S
C1305 C1321 1.429 . S
C1305 H1327 0.950 . S
C1306 H1302 0.949 . S
C1306 C1314 1.574 . S
C1306 C1322 1.368 . S
H1307 C1315 0.950 . S
H1308 C1313 0.950 . S
H1309 C1314 0.949 . S
H1310 C1316 0.950 . S
H1311 C1317 0.950 . S
H1312 C1318 0.949 . S
C1313 H1308 0.950 . S
C1313 C1315 1.327 . S
C1313 C1319 1.429 . S
C1314 C1306 1.574 . S
C1314 H1309 0.949 . S
C1314 C1320 1.368 . S
C1315 C1299 1.349 . S
C1315 H1307 0.950 . S
C1315 C1313 1.327 . S
C1316 C1304 1.349 . S
C1316 H1310 0.950 . S
C1316 C1317 1.327 . S
C1317 H1311 0.950 . S
C1317 C1316 1.327 . S
C1317 C1321 1.429 . S
C1318 C1301 1.574 . S
C1318 H1312 0.949 . S
C1318 C1322 1.368 . S
C1319 C1300 1.429 . S
C1319 C1313 1.429 . S
C1319 C1320 1.523 . S
C1320 C1301 1.368 . S
C1320 C1314 1.368 . S
C1320 C1319 1.523 . S
C1321 C1305 1.429 . S
C1321 C1317 1.429 . S
C1321 C1322 1.523 . S
C1322 C1306 1.368 . S
C1322 C1318 1.368 . S
C1322 C1321 1.523 . S
H1323 C1298 0.950 . S
H1324 C1300 0.950 . S
H1325 C1301 0.949 . S
H1326 C1303 0.950 . S
H1327 C1305 0.950 . S
C1328 C1329 1.349 . S
C1328 C1330 1.327 . S
C1328 H1353 0.950 . S
C1329 C1328 1.349 . S
C1329 C1345 1.349 . S
C1330 C1328 1.327 . S
C1330 C1349 1.429 . S
C1330 H1354 0.950 . S
C1331 C1348 1.574 . S
C1331 C1350 1.368 . S
C1331 H1355 0.949 . S
H1332 C1336 0.949 . S
C1333 C1334 1.349 1_554 S
C1333 C1335 1.327 1_554 S
C1333 H1356 0.950 . S
C1334 C1333 1.349 1_556 S
C1334 C1346 1.349 . S
C1335 C1333 1.327 1_556 S
C1335 C1351 1.429 . S
C1335 H1357 0.950 1_556 S
C1336 H1332 0.949 . S
C1336 C1344 1.574 . S
C1336 C1352 1.368 . S
H1337 C1345 0.950 . S
H1338 C1343 0.950 . S
H1339 C1344 0.949 . S
H1340 C1346 0.950 . S
H1341 C1347 0.950 . S
H1342 C1348 0.949 . S
C1343 H1338 0.950 . S
C1343 C1345 1.327 . S
C1343 C1349 1.429 . S
C1344 C1336 1.574 . S
C1344 H1339 0.949 . S
C1344 C1350 1.368 . S
C1345 C1329 1.349 . S
C1345 H1337 0.950 . S
C1345 C1343 1.327 . S
C1346 C1334 1.349 . S
C1346 H1340 0.950 . S
C1346 C1347 1.327 . S
C1347 H1341 0.950 . S
C1347 C1346 1.327 . S
C1347 C1351 1.429 . S
C1348 C1331 1.574 . S
C1348 H1342 0.949 . S
C1348 C1352 1.368 . S
C1349 C1330 1.429 . S
C1349 C1343 1.429 . S
C1349 C1350 1.523 . S
C1350 C1331 1.368 . S
C1350 C1344 1.368 . S
C1350 C1349 1.523 . S
C1351 C1335 1.429 . S
C1351 C1347 1.429 . S
C1351 C1352 1.523 . S
C1352 C1336 1.368 . S
C1352 C1348 1.368 . S
C1352 C1351 1.523 . S
H1353 C1328 0.950 . S
H1354 C1330 0.950 . S
H1355 C1331 0.949 . S
H1356 C1333 0.950 . S
H1357 C1335 0.950 1_554 S
C1358 C1359 1.349 . S
C1358 C1360 1.327 . S
C1358 H1383 0.950 . S
C1359 C1358 1.349 . S
C1359 C1375 1.349 . S
C1360 C1358 1.327 . S
C1360 C1379 1.429 . S
C1360 H1384 0.950 . S
C1361 C1378 1.574 . S
C1361 C1380 1.368 . S
C1361 H1385 0.949 . S
H1362 C1366 0.949 . S
C1363 C1364 1.349 . S
C1363 C1365 1.327 . S
C1363 H1386 0.950 . S
C1364 C1363 1.349 . S
C1364 C1376 1.349 . S
C1365 C1363 1.327 . S
C1365 C1381 1.429 . S
C1365 H1387 0.950 . S
C1366 H1362 0.949 . S
C1366 C1374 1.574 . S
C1366 C1382 1.368 . S
H1367 C1375 0.950 . S
H1368 C1373 0.950 . S
H1369 C1374 0.949 . S
H1370 C1376 0.950 . S
H1371 C1377 0.950 . S
H1372 C1378 0.949 . S
C1373 H1368 0.950 . S
C1373 C1375 1.327 . S
C1373 C1379 1.429 . S
C1374 C1366 1.574 . S
C1374 H1369 0.949 . S
C1374 C1380 1.368 . S
C1375 C1359 1.349 . S
C1375 H1367 0.950 . S
C1375 C1373 1.327 . S
C1376 C1364 1.349 . S
C1376 H1370 0.950 . S
C1376 C1377 1.327 . S
C1377 H1371 0.950 . S
C1377 C1376 1.327 . S
C1377 C1381 1.429 . S
C1378 C1361 1.574 . S
C1378 H1372 0.949 . S
C1378 C1382 1.368 . S
C1379 C1360 1.429 . S
C1379 C1373 1.429 . S
C1379 C1380 1.523 . S
C1380 C1361 1.368 . S
C1380 C1374 1.368 . S
C1380 C1379 1.523 . S
C1381 C1365 1.429 . S
C1381 C1377 1.429 . S
C1381 C1382 1.523 . S
C1382 C1366 1.368 . S
C1382 C1378 1.368 . S
C1382 C1381 1.523 . S
H1383 C1358 0.950 . S
H1384 C1360 0.950 . S
H1385 C1361 0.949 . S
H1386 C1363 0.950 . S
H1387 C1365 0.950 . S
C1388 C1389 1.349 . S
C1388 C1390 1.327 . S
C1388 H1413 0.950 . S
C1389 C1388 1.349 . S
C1389 C1405 1.349 . S
C1390 C1388 1.327 . S
C1390 C1409 1.429 . S
C1390 H1414 0.950 . S
C1391 C1408 1.574 . S
C1391 C1410 1.368 . S
C1391 H1415 0.949 . S
H1392 C1396 0.949 . S
C1393 C1394 1.349 . S
C1393 C1395 1.327 . S
C1393 H1416 0.950 . S
C1394 C1393 1.349 . S
C1394 C1406 1.349 . S
C1395 C1393 1.327 . S
C1395 C1411 1.429 . S
C1395 H1417 0.950 . S
C1396 H1392 0.949 . S
C1396 C1404 1.574 . S
C1396 C1412 1.368 . S
H1397 C1405 0.950 . S
H1398 C1403 0.950 . S
H1399 C1404 0.949 . S
H1400 C1406 0.950 . S
H1401 C1407 0.950 . S
H1402 C1408 0.949 . S
C1403 H1398 0.950 . S
C1403 C1405 1.327 . S
C1403 C1409 1.429 . S
C1404 C1396 1.574 . S
C1404 H1399 0.949 . S
C1404 C1410 1.368 . S
C1405 C1389 1.349 . S
C1405 H1397 0.950 . S
C1405 C1403 1.327 . S
C1406 C1394 1.349 . S
C1406 H1400 0.950 . S
C1406 C1407 1.327 . S
C1407 H1401 0.950 . S
C1407 C1406 1.327 . S
C1407 C1411 1.429 . S
C1408 C1391 1.574 . S
C1408 H1402 0.949 . S
C1408 C1412 1.368 . S
C1409 C1390 1.429 . S
C1409 C1403 1.429 . S
C1409 C1410 1.523 . S
C1410 C1391 1.368 . S
C1410 C1404 1.368 . S
C1410 C1409 1.523 . S
C1411 C1395 1.429 . S
C1411 C1407 1.429 . S
C1411 C1412 1.523 . S
C1412 C1396 1.368 . S
C1412 C1408 1.368 . S
C1412 C1411 1.523 . S
H1413 C1388 0.950 . S
H1414 C1390 0.950 . S
H1415 C1391 0.949 . S
H1416 C1393 0.950 . S
H1417 C1395 0.950 . S
C1418 C1419 1.349 . S
C1418 C1420 1.327 . S
C1418 H1443 0.950 . S
C1419 C1418 1.349 . S
C1419 C1435 1.349 . S
C1420 C1418 1.327 . S
C1420 C1439 1.429 . S
C1420 H1444 0.950 . S
C1421 C1438 1.574 . S
C1421 C1440 1.368 . S
C1421 H1445 0.949 . S
H1422 C1426 0.949 . S
C1423 C1424 1.349 . S
C1423 C1425 1.327 . S
C1423 H1446 0.950 . S
C1424 C1423 1.349 . S
C1424 C1436 1.349 . S
C1425 C1423 1.327 . S
C1425 C1441 1.429 . S
C1425 H1447 0.950 . S
C1426 H1422 0.949 . S
C1426 C1434 1.574 . S
C1426 C1442 1.368 . S
H1427 C1435 0.950 . S
H1428 C1433 0.950 . S
H1429 C1434 0.949 . S
H1430 C1436 0.950 . S
H1431 C1437 0.950 . S
H1432 C1438 0.949 . S
C1433 H1428 0.950 . S
C1433 C1435 1.327 . S
C1433 C1439 1.429 . S
C1434 C1426 1.574 . S
C1434 H1429 0.949 . S
C1434 C1440 1.368 . S
C1435 C1419 1.349 . S
C1435 H1427 0.950 . S
C1435 C1433 1.327 . S
C1436 C1424 1.349 . S
C1436 H1430 0.950 . S
C1436 C1437 1.327 . S
C1437 H1431 0.950 . S
C1437 C1436 1.327 . S
C1437 C1441 1.429 . S
C1438 C1421 1.574 . S
C1438 H1432 0.949 . S
C1438 C1442 1.368 . S
C1439 C1420 1.429 . S
C1439 C1433 1.429 . S
C1439 C1440 1.523 . S
C1440 C1421 1.368 . S
C1440 C1434 1.368 . S
C1440 C1439 1.523 . S
C1441 C1425 1.429 . S
C1441 C1437 1.429 . S
C1441 C1442 1.523 . S
C1442 C1426 1.368 . S
C1442 C1438 1.368 . S
C1442 C1441 1.523 . S
H1443 C1418 0.950 . S
H1444 C1420 0.950 . S
H1445 C1421 0.949 . S
H1446 C1423 0.950 . S
H1447 C1425 0.950 . S
C1448 C1449 1.349 . S
C1448 C1450 1.327 . S
C1448 H1473 0.950 . S
C1449 C1448 1.349 . S
C1449 C1465 1.349 . S
C1450 C1448 1.327 . S
C1450 C1469 1.429 . S
C1450 H1474 0.950 . S
C1451 C1468 1.574 . S
C1451 C1470 1.368 . S
C1451 H1475 0.949 . S
H1452 C1456 0.949 . S
C1453 C1454 1.349 . S
C1453 C1455 1.327 . S
C1453 H1476 0.950 . S
C1454 C1453 1.349 . S
C1454 C1466 1.349 . S
C1455 C1453 1.327 . S
C1455 C1471 1.429 . S
C1455 H1477 0.950 . S
C1456 H1452 0.949 . S
C1456 C1464 1.574 . S
C1456 C1472 1.368 . S
H1457 C1465 0.950 . S
H1458 C1463 0.950 . S
H1459 C1464 0.949 . S
H1460 C1466 0.950 . S
H1461 C1467 0.950 . S
H1462 C1468 0.949 . S
C1463 H1458 0.950 . S
C1463 C1465 1.327 . S
C1463 C1469 1.429 . S
C1464 C1456 1.574 . S
C1464 H1459 0.949 . S
C1464 C1470 1.368 . S
C1465 C1449 1.349 . S
C1465 H1457 0.950 . S
C1465 C1463 1.327 . S
C1466 C1454 1.349 . S
C1466 H1460 0.950 . S
C1466 C1467 1.327 . S
C1467 H1461 0.950 . S
C1467 C1466 1.327 . S
C1467 C1471 1.429 . S
C1468 C1451 1.574 . S
C1468 H1462 0.949 . S
C1468 C1472 1.368 . S
C1469 C1450 1.429 . S
C1469 C1463 1.429 . S
C1469 C1470 1.523 . S
C1470 C1451 1.368 . S
C1470 C1464 1.368 . S
C1470 C1469 1.523 . S
C1471 C1455 1.429 . S
C1471 C1467 1.429 . S
C1471 C1472 1.523 . S
C1472 C1456 1.368 . S
C1472 C1468 1.368 . S
C1472 C1471 1.523 . S
H1473 C1448 0.950 . S
H1474 C1450 0.950 . S
H1475 C1451 0.949 . S
H1476 C1453 0.950 . S
H1477 C1455 0.950 . S
C1478 C1479 1.349 . S
C1478 C1480 1.327 . S
C1478 H1503 0.950 . S
C1479 C1478 1.349 . S
C1479 C1495 1.349 . S
C1480 C1478 1.327 . S
C1480 C1499 1.429 . S
C1480 H1504 0.950 . S
C1481 C1498 1.574 . S
C1481 C1500 1.368 . S
C1481 H1505 0.949 . S
H1482 C1486 0.949 . S
C1483 C1484 1.349 . S
C1483 C1485 1.327 . S
C1483 H1506 0.950 . S
C1484 C1483 1.349 . S
C1484 C1496 1.349 . S
C1485 C1483 1.327 . S
C1485 C1501 1.429 . S
C1485 H1507 0.950 . S
C1486 H1482 0.949 . S
C1486 C1494 1.574 . S
C1486 C1502 1.368 . S
H1487 C1495 0.950 . S
H1488 C1493 0.950 . S
H1489 C1494 0.949 . S
H1490 C1496 0.950 . S
H1491 C1497 0.950 . S
H1492 C1498 0.949 . S
C1493 H1488 0.950 . S
C1493 C1495 1.327 . S
C1493 C1499 1.429 . S
C1494 C1486 1.574 . S
C1494 H1489 0.949 . S
C1494 C1500 1.368 . S
C1495 C1479 1.349 . S
C1495 H1487 0.950 . S
C1495 C1493 1.327 . S
C1496 C1484 1.349 . S
C1496 H1490 0.950 . S
C1496 C1497 1.327 . S
C1497 H1491 0.950 . S
C1497 C1496 1.327 . S
C1497 C1501 1.429 . S
C1498 C1481 1.574 . S
C1498 H1492 0.949 . S
C1498 C1502 1.368 . S
C1499 C1480 1.429 . S
C1499 C1493 1.429 . S
C1499 C1500 1.523 . S
C1500 C1481 1.368 . S
C1500 C1494 1.368 . S
C1500 C1499 1.523 . S
C1501 C1485 1.429 . S
C1501 C1497 1.429 . S
C1501 C1502 1.523 . S
C1502 C1486 1.368 . S
C1502 C1498 1.368 . S
C1502 C1501 1.523 . S
H1503 C1478 0.950 . S
H1504 C1480 0.950 . S
H1505 C1481 0.949 . S
H1506 C1483 0.950 . S
H1507 C1485 0.950 . S
C1508 C1509 1.349 . S
C1508 C1510 1.327 . S
C1508 H1533 0.950 . S
C1509 C1508 1.349 . S
C1509 C1525 1.349 . S
C1510 C1508 1.327 . S
C1510 C1529 1.429 . S
C1510 H1534 0.950 . S
C1511 C1528 1.574 . S
C1511 C1530 1.368 . S
C1511 H1535 0.949 . S
H1512 C1516 0.949 . S
C1513 C1514 1.349 . S
C1513 C1515 1.327 . S
C1513 H1536 0.950 . S
C1514 C1513 1.349 . S
C1514 C1526 1.349 . S
C1515 C1513 1.327 . S
C1515 C1531 1.429 . S
C1515 H1537 0.950 . S
C1516 H1512 0.949 . S
C1516 C1524 1.574 . S
C1516 C1532 1.368 . S
H1517 C1525 0.950 . S
H1518 C1523 0.950 . S
H1519 C1524 0.949 . S
H1520 C1526 0.950 . S
H1521 C1527 0.950 . S
H1522 C1528 0.949 . S
C1523 H1518 0.950 . S
C1523 C1525 1.327 . S
C1523 C1529 1.429 . S
C1524 C1516 1.574 . S
C1524 H1519 0.949 . S
C1524 C1530 1.368 . S
C1525 C1509 1.349 . S
C1525 H1517 0.950 . S
C1525 C1523 1.327 . S
C1526 C1514 1.349 . S
C1526 H1520 0.950 . S
C1526 C1527 1.327 . S
C1527 H1521 0.950 . S
C1527 C1526 1.327 . S
C1527 C1531 1.429 . S
C1528 C1511 1.574 . S
C1528 H1522 0.949 . S
C1528 C1532 1.368 . S
C1529 C1510 1.429 . S
C1529 C1523 1.429 . S
C1529 C1530 1.523 . S
C1530 C1511 1.368 . S
C1530 C1524 1.368 . S
C1530 C1529 1.523 . S
C1531 C1515 1.429 . S
C1531 C1527 1.429 . S
C1531 C1532 1.523 . S
C1532 C1516 1.368 . S
C1532 C1528 1.368 . S
C1532 C1531 1.523 . S
H1533 C1508 0.950 . S
H1534 C1510 0.950 . S
H1535 C1511 0.949 . S
H1536 C1513 0.950 . S
H1537 C1515 0.950 . S
C1538 C1539 1.349 . S
C1538 C1540 1.327 . S
C1538 H1563 0.950 . S
C1539 C1538 1.349 . S
C1539 C1555 1.349 . S
C1540 C1538 1.327 . S
C1540 C1559 1.429 . S
C1540 H1564 0.950 . S
C1541 C1558 1.574 . S
C1541 C1560 1.368 . S
C1541 H1565 0.949 . S
H1542 C1546 0.949 . S
C1543 C1544 1.349 . S
C1543 C1545 1.327 . S
C1543 H1566 0.950 . S
C1544 C1543 1.349 . S
C1544 C1556 1.349 . S
C1545 C1543 1.327 . S
C1545 C1561 1.429 . S
C1545 H1567 0.950 . S
C1546 H1542 0.949 . S
C1546 C1554 1.574 . S
C1546 C1562 1.368 . S
H1547 C1555 0.950 . S
H1548 C1553 0.950 . S
H1549 C1554 0.949 . S
H1550 C1556 0.950 . S
H1551 C1557 0.950 . S
H1552 C1558 0.949 . S
C1553 H1548 0.950 . S
C1553 C1555 1.327 . S
C1553 C1559 1.429 . S
C1554 C1546 1.574 . S
C1554 H1549 0.949 . S
C1554 C1560 1.368 . S
C1555 C1539 1.349 . S
C1555 H1547 0.950 . S
C1555 C1553 1.327 . S
C1556 C1544 1.349 . S
C1556 H1550 0.950 . S
C1556 C1557 1.327 . S
C1557 H1551 0.950 . S
C1557 C1556 1.327 . S
C1557 C1561 1.429 . S
C1558 C1541 1.574 . S
C1558 H1552 0.949 . S
C1558 C1562 1.368 . S
C1559 C1540 1.429 . S
C1559 C1553 1.429 . S
C1559 C1560 1.523 . S
C1560 C1541 1.368 . S
C1560 C1554 1.368 . S
C1560 C1559 1.523 . S
C1561 C1545 1.429 . S
C1561 C1557 1.429 . S
C1561 C1562 1.523 . S
C1562 C1546 1.368 . S
C1562 C1558 1.368 . S
C1562 C1561 1.523 . S
H1563 C1538 0.950 . S
H1564 C1540 0.950 . S
H1565 C1541 0.949 . S
H1566 C1543 0.950 . S
H1567 C1545 0.950 . S
C1568 C1569 1.349 . S
C1568 C1570 1.327 . S
C1568 H1593 0.950 . S
C1569 C1568 1.349 . S
C1569 C1585 1.349 . S
C1570 C1568 1.327 . S
C1570 C1589 1.429 . S
C1570 H1594 0.950 . S
C1571 C1588 1.574 . S
C1571 C1590 1.368 . S
C1571 H1595 0.949 . S
H1572 C1576 0.949 . S
C1573 C1574 1.349 . S
C1573 C1575 1.327 . S
C1573 H1596 0.950 . S
C1574 C1573 1.349 . S
C1574 C1586 1.349 . S
C1575 C1573 1.327 . S
C1575 C1591 1.429 . S
C1575 H1597 0.950 . S
C1576 H1572 0.949 . S
C1576 C1584 1.574 . S
C1576 C1592 1.368 . S
H1577 C1585 0.950 . S
H1578 C1583 0.950 . S
H1579 C1584 0.949 . S
H1580 C1586 0.950 . S
H1581 C1587 0.950 . S
H1582 C1588 0.949 . S
C1583 H1578 0.950 . S
C1583 C1585 1.327 . S
C1583 C1589 1.429 . S
C1584 C1576 1.574 . S
C1584 H1579 0.949 . S
C1584 C1590 1.368 . S
C1585 C1569 1.349 . S
C1585 H1577 0.950 . S
C1585 C1583 1.327 . S
C1586 C1574 1.349 . S
C1586 H1580 0.950 . S
C1586 C1587 1.327 . S
C1587 H1581 0.950 . S
C1587 C1586 1.327 . S
C1587 C1591 1.429 . S
C1588 C1571 1.574 . S
C1588 H1582 0.949 . S
C1588 C1592 1.368 . S
C1589 C1570 1.429 . S
C1589 C1583 1.429 . S
C1589 C1590 1.523 . S
C1590 C1571 1.368 . S
C1590 C1584 1.368 . S
C1590 C1589 1.523 . S
C1591 C1575 1.429 . S
C1591 C1587 1.429 . S
C1591 C1592 1.523 . S
C1592 C1576 1.368 . S
C1592 C1588 1.368 . S
C1592 C1591 1.523 . S
H1593 C1568 0.950 . S
H1594 C1570 0.950 . S
H1595 C1571 0.949 . S
H1596 C1573 0.950 . S
H1597 C1575 0.950 . S
C1598 C1599 1.349 . S
C1598 C1600 1.327 . S
C1598 H1623 0.950 . S
C1599 C1598 1.349 . S
C1599 C1615 1.349 . S
C1600 C1598 1.327 . S
C1600 C1619 1.429 . S
C1600 H1624 0.950 . S
C1601 C1618 1.574 . S
C1601 C1620 1.368 . S
C1601 H1625 0.949 . S
H1602 C1606 0.949 . S
C1603 C1604 1.349 . S
C1603 C1605 1.327 . S
C1603 H1626 0.950 . S
C1604 C1603 1.349 . S
C1604 C1616 1.349 . S
C1605 C1603 1.327 . S
C1605 C1621 1.429 . S
C1605 H1627 0.950 . S
C1606 H1602 0.949 . S
C1606 C1614 1.574 . S
C1606 C1622 1.368 . S
H1607 C1615 0.950 . S
H1608 C1613 0.950 . S
H1609 C1614 0.949 . S
H1610 C1616 0.950 . S
H1611 C1617 0.950 . S
H1612 C1618 0.949 . S
C1613 H1608 0.950 . S
C1613 C1615 1.327 . S
C1613 C1619 1.429 . S
C1614 C1606 1.574 . S
C1614 H1609 0.949 . S
C1614 C1620 1.368 . S
C1615 C1599 1.349 . S
C1615 H1607 0.950 . S
C1615 C1613 1.327 . S
C1616 C1604 1.349 . S
C1616 H1610 0.950 . S
C1616 C1617 1.327 . S
C1617 H1611 0.950 . S
C1617 C1616 1.327 . S
C1617 C1621 1.429 . S
C1618 C1601 1.574 . S
C1618 H1612 0.949 . S
C1618 C1622 1.368 . S
C1619 C1600 1.429 . S
C1619 C1613 1.429 . S
C1619 C1620 1.523 . S
C1620 C1601 1.368 . S
C1620 C1614 1.368 . S
C1620 C1619 1.523 . S
C1621 C1605 1.429 . S
C1621 C1617 1.429 . S
C1621 C1622 1.523 . S
C1622 C1606 1.368 . S
C1622 C1618 1.368 . S
C1622 C1621 1.523 . S
H1623 C1598 0.950 . S
H1624 C1600 0.950 . S
H1625 C1601 0.949 . S
H1626 C1603 0.950 . S
H1627 C1605 0.950 . S
C1628 C1629 1.349 . S
C1628 C1630 1.327 . S
C1628 H1653 0.950 . S
C1629 C1628 1.349 . S
C1629 C1645 1.349 . S
C1630 C1628 1.327 . S
C1630 C1649 1.429 . S
C1630 H1654 0.950 . S
C1631 C1648 1.574 . S
C1631 C1650 1.368 . S
C1631 H1655 0.949 . S
H1632 C1636 0.949 . S
C1633 C1634 1.349 . S
C1633 C1635 1.327 . S
C1633 H1656 0.950 . S
C1634 C1633 1.349 . S
C1634 C1646 1.349 . S
C1635 C1633 1.327 . S
C1635 C1651 1.429 . S
C1635 H1657 0.950 . S
C1636 H1632 0.949 . S
C1636 C1644 1.574 . S
C1636 C1652 1.368 . S
H1637 C1645 0.950 . S
H1638 C1643 0.950 . S
H1639 C1644 0.949 . S
H1640 C1646 0.950 . S
H1641 C1647 0.950 . S
H1642 C1648 0.949 . S
C1643 H1638 0.950 . S
C1643 C1645 1.327 . S
C1643 C1649 1.429 . S
C1644 C1636 1.574 . S
C1644 H1639 0.949 . S
C1644 C1650 1.368 . S
C1645 C1629 1.349 . S
C1645 H1637 0.950 . S
C1645 C1643 1.327 . S
C1646 C1634 1.349 . S
C1646 H1640 0.950 . S
C1646 C1647 1.327 . S
C1647 H1641 0.950 . S
C1647 C1646 1.327 . S
C1647 C1651 1.429 . S
C1648 C1631 1.574 . S
C1648 H1642 0.949 . S
C1648 C1652 1.368 . S
C1649 C1630 1.429 . S
C1649 C1643 1.429 . S
C1649 C1650 1.523 . S
C1650 C1631 1.368 . S
C1650 C1644 1.368 . S
C1650 C1649 1.523 . S
C1651 C1635 1.429 . S
C1651 C1647 1.429 . S
C1651 C1652 1.523 . S
C1652 C1636 1.368 . S
C1652 C1648 1.368 . S
C1652 C1651 1.523 . S
H1653 C1628 0.950 . S
H1654 C1630 0.950 . S
H1655 C1631 0.949 . S
H1656 C1633 0.950 . S
H1657 C1635 0.950 . S
C1658 C1659 1.349 . S
C1658 C1660 1.327 . S
C1658 H1683 0.950 . S
C1659 C1658 1.349 . S
C1659 C1675 1.349 . S
C1660 C1658 1.327 . S
C1660 C1679 1.429 . S
C1660 H1684 0.950 . S
C1661 C1678 1.574 . S
C1661 C1680 1.368 . S
C1661 H1685 0.949 . S
H1662 C1666 0.949 . S
C1663 C1664 1.349 . S
C1663 C1665 1.327 . S
C1663 H1686 0.950 . S
C1664 C1663 1.349 . S
C1664 C1676 1.349 . S
C1665 C1663 1.327 . S
C1665 C1681 1.429 . S
C1665 H1687 0.950 . S
C1666 H1662 0.949 . S
C1666 C1674 1.574 . S
C1666 C1682 1.368 . S
H1667 C1675 0.950 . S
H1668 C1673 0.950 . S
H1669 C1674 0.949 . S
H1670 C1676 0.950 . S
H1671 C1677 0.950 . S
H1672 C1678 0.949 . S
C1673 H1668 0.950 . S
C1673 C1675 1.327 . S
C1673 C1679 1.429 . S
C1674 C1666 1.574 . S
C1674 H1669 0.949 . S
C1674 C1680 1.368 . S
C1675 C1659 1.349 . S
C1675 H1667 0.950 . S
C1675 C1673 1.327 . S
C1676 C1664 1.349 . S
C1676 H1670 0.950 . S
C1676 C1677 1.327 . S
C1677 H1671 0.950 . S
C1677 C1676 1.327 . S
C1677 C1681 1.429 . S
C1678 C1661 1.574 . S
C1678 H1672 0.949 . S
C1678 C1682 1.368 . S
C1679 C1660 1.429 . S
C1679 C1673 1.429 . S
C1679 C1680 1.523 . S
C1680 C1661 1.368 . S
C1680 C1674 1.368 . S
C1680 C1679 1.523 . S
C1681 C1665 1.429 . S
C1681 C1677 1.429 . S
C1681 C1682 1.523 . S
C1682 C1666 1.368 . S
C1682 C1678 1.368 . S
C1682 C1681 1.523 . S
H1683 C1658 0.950 . S
H1684 C1660 0.950 . S
H1685 C1661 0.949 . S
H1686 C1663 0.950 . S
H1687 C1665 0.950 . S
C1688 C1689 1.349 . S
C1688 C1690 1.327 . S
C1688 H1713 0.950 . S
C1689 C1688 1.349 . S
C1689 C1705 1.349 . S
C1690 C1688 1.327 . S
C1690 C1709 1.429 . S
C1690 H1714 0.950 . S
C1691 C1708 1.574 . S
C1691 C1710 1.368 . S
C1691 H1715 0.949 . S
H1692 C1696 0.949 . S
C1693 C1694 1.349 . S
C1693 C1695 1.327 . S
C1693 H1716 0.950 . S
C1694 C1693 1.349 . S
C1694 C1706 1.349 . S
C1695 C1693 1.327 . S
C1695 C1711 1.429 . S
C1695 H1717 0.950 . S
C1696 H1692 0.949 . S
C1696 C1704 1.574 . S
C1696 C1712 1.368 . S
H1697 C1705 0.950 . S
H1698 C1703 0.950 . S
H1699 C1704 0.949 . S
H1700 C1706 0.950 . S
H1701 C1707 0.950 . S
H1702 C1708 0.949 . S
C1703 H1698 0.950 . S
C1703 C1705 1.327 . S
C1703 C1709 1.429 . S
C1704 C1696 1.574 . S
C1704 H1699 0.949 . S
C1704 C1710 1.368 . S
C1705 C1689 1.349 . S
C1705 H1697 0.950 . S
C1705 C1703 1.327 . S
C1706 C1694 1.349 . S
C1706 H1700 0.950 . S
C1706 C1707 1.327 . S
C1707 H1701 0.950 . S
C1707 C1706 1.327 . S
C1707 C1711 1.429 . S
C1708 C1691 1.574 . S
C1708 H1702 0.949 . S
C1708 C1712 1.368 . S
C1709 C1690 1.429 . S
C1709 C1703 1.429 . S
C1709 C1710 1.523 . S
C1710 C1691 1.368 . S
C1710 C1704 1.368 . S
C1710 C1709 1.523 . S
C1711 C1695 1.429 . S
C1711 C1707 1.429 . S
C1711 C1712 1.523 . S
C1712 C1696 1.368 . S
C1712 C1708 1.368 . S
C1712 C1711 1.523 . S
H1713 C1688 0.950 . S
H1714 C1690 0.950 . S
H1715 C1691 0.949 . S
H1716 C1693 0.950 . S
H1717 C1695 0.950 . S
C1718 C1719 1.349 . S
C1718 C1720 1.327 . S
C1718 H1743 0.950 . S
C1719 C1718 1.349 . S
C1719 C1735 1.349 . S
C1720 C1718 1.327 . S
C1720 C1739 1.429 . S
C1720 H1744 0.950 . S
C1721 C1738 1.574 . S
C1721 C1740 1.368 . S
C1721 H1745 0.949 . S
H1722 C1726 0.949 . S
C1723 C1724 1.349 . S
C1723 C1725 1.327 . S
C1723 H1746 0.950 . S
C1724 C1723 1.349 . S
C1724 C1736 1.349 . S
C1725 C1723 1.327 . S
C1725 C1741 1.429 . S
C1725 H1747 0.950 . S
C1726 H1722 0.949 . S
C1726 C1734 1.574 . S
C1726 C1742 1.368 . S
H1727 C1735 0.950 . S
H1728 C1733 0.950 . S
H1729 C1734 0.949 . S
H1730 C1736 0.950 . S
H1731 C1737 0.950 . S
H1732 C1738 0.949 . S
C1733 H1728 0.950 . S
C1733 C1735 1.327 . S
C1733 C1739 1.429 . S
C1734 C1726 1.574 . S
C1734 H1729 0.949 . S
C1734 C1740 1.368 . S
C1735 C1719 1.349 . S
C1735 H1727 0.950 . S
C1735 C1733 1.327 . S
C1736 C1724 1.349 . S
C1736 H1730 0.950 . S
C1736 C1737 1.327 . S
C1737 H1731 0.950 . S
C1737 C1736 1.327 . S
C1737 C1741 1.429 . S
C1738 C1721 1.574 . S
C1738 H1732 0.949 . S
C1738 C1742 1.368 . S
C1739 C1720 1.429 . S
C1739 C1733 1.429 . S
C1739 C1740 1.523 . S
C1740 C1721 1.368 . S
C1740 C1734 1.368 . S
C1740 C1739 1.523 . S
C1741 C1725 1.429 . S
C1741 C1737 1.429 . S
C1741 C1742 1.523 . S
C1742 C1726 1.368 . S
C1742 C1738 1.368 . S
C1742 C1741 1.523 . S
H1743 C1718 0.950 . S
H1744 C1720 0.950 . S
H1745 C1721 0.949 . S
H1746 C1723 0.950 . S
H1747 C1725 0.950 . S
C1748 C1749 1.349 . S
C1748 C1750 1.327 . S
C1748 H1773 0.950 . S
C1749 C1748 1.349 . S
C1749 C1765 1.349 . S
C1750 C1748 1.327 . S
C1750 C1769 1.429 . S
C1750 H1774 0.950 . S
C1751 C1768 1.574 . S
C1751 C1770 1.368 . S
C1751 H1775 0.949 . S
H1752 C1756 0.949 . S
C1753 C1754 1.349 . S
C1753 C1755 1.327 . S
C1753 H1776 0.950 . S
C1754 C1753 1.349 . S
C1754 C1766 1.349 . S
C1755 C1753 1.327 . S
C1755 C1771 1.429 . S
C1755 H1777 0.950 . S
C1756 H1752 0.949 . S
C1756 C1764 1.574 . S
C1756 C1772 1.368 . S
H1757 C1765 0.950 . S
H1758 C1763 0.950 . S
H1759 C1764 0.949 . S
H1760 C1766 0.950 . S
H1761 C1767 0.950 . S
H1762 C1768 0.949 . S
C1763 H1758 0.950 . S
C1763 C1765 1.327 . S
C1763 C1769 1.429 . S
C1764 C1756 1.574 . S
C1764 H1759 0.949 . S
C1764 C1770 1.368 . S
C1765 C1749 1.349 . S
C1765 H1757 0.950 . S
C1765 C1763 1.327 . S
C1766 C1754 1.349 . S
C1766 H1760 0.950 . S
C1766 C1767 1.327 . S
C1767 H1761 0.950 . S
C1767 C1766 1.327 . S
C1767 C1771 1.429 . S
C1768 C1751 1.574 . S
C1768 H1762 0.949 . S
C1768 C1772 1.368 . S
C1769 C1750 1.429 . S
C1769 C1763 1.429 . S
C1769 C1770 1.523 . S
C1770 C1751 1.368 . S
C1770 C1764 1.368 . S
C1770 C1769 1.523 . S
C1771 C1755 1.429 . S
C1771 C1767 1.429 . S
C1771 C1772 1.523 . S
C1772 C1756 1.368 . S
C1772 C1768 1.368 . S
C1772 C1771 1.523 . S
H1773 C1748 0.950 . S
H1774 C1750 0.950 . S
H1775 C1751 0.949 . S
H1776 C1753 0.950 . S
H1777 C1755 0.950 . S
C1778 C1779 1.349 . S
C1778 C1780 1.327 . S
C1778 H1803 0.950 . S
C1779 C1778 1.349 . S
C1779 C1795 1.349 . S
C1780 C1778 1.327 . S
C1780 C1799 1.429 . S
C1780 H1804 0.950 . S
C1781 C1798 1.574 . S
C1781 C1800 1.368 . S
C1781 H1805 0.949 . S
H1782 C1786 0.949 . S
C1783 C1784 1.349 . S
C1783 C1785 1.327 . S
C1783 H1806 0.950 . S
C1784 C1783 1.349 . S
C1784 C1796 1.349 . S
C1785 C1783 1.327 . S
C1785 C1801 1.429 . S
C1785 H1807 0.950 . S
C1786 H1782 0.949 . S
C1786 C1794 1.574 . S
C1786 C1802 1.368 . S
H1787 C1795 0.950 . S
H1788 C1793 0.950 . S
H1789 C1794 0.949 . S
H1790 C1796 0.950 . S
H1791 C1797 0.950 . S
H1792 C1798 0.949 . S
C1793 H1788 0.950 . S
C1793 C1795 1.327 . S
C1793 C1799 1.429 . S
C1794 C1786 1.574 . S
C1794 H1789 0.949 . S
C1794 C1800 1.368 . S
C1795 C1779 1.349 . S
C1795 H1787 0.950 . S
C1795 C1793 1.327 . S
C1796 C1784 1.349 . S
C1796 H1790 0.950 . S
C1796 C1797 1.327 . S
C1797 H1791 0.950 . S
C1797 C1796 1.327 . S
C1797 C1801 1.429 . S
C1798 C1781 1.574 . S
C1798 H1792 0.949 . S
C1798 C1802 1.368 . S
C1799 C1780 1.429 . S
C1799 C1793 1.429 . S
C1799 C1800 1.523 . S
C1800 C1781 1.368 . S
C1800 C1794 1.368 . S
C1800 C1799 1.523 . S
C1801 C1785 1.429 . S
C1801 C1797 1.429 . S
C1801 C1802 1.523 . S
C1802 C1786 1.368 . S
C1802 C1798 1.368 . S
C1802 C1801 1.523 . S
H1803 C1778 0.950 . S
H1804 C1780 0.950 . S
H1805 C1781 0.949 . S
H1806 C1783 0.950 . S
H1807 C1785 0.950 . S
C1808 C1809 1.349 . S
C1808 C1810 1.327 . S
C1808 H1833 0.950 . S
C1809 C1808 1.349 . S
C1809 C1825 1.349 . S
C1810 C1808 1.327 . S
C1810 C1829 1.429 . S
C1810 H1834 0.950 . S
C1811 C1828 1.574 . S
C1811 C1830 1.368 . S
C1811 H1835 0.949 . S
H1812 C1816 0.949 . S
C1813 C1814 1.349 . S
C1813 C1815 1.327 . S
C1813 H1836 0.950 . S
C1814 C1813 1.349 . S
C1814 C1826 1.349 . S
C1815 C1813 1.327 . S
C1815 C1831 1.429 . S
C1815 H1837 0.950 . S
C1816 H1812 0.949 . S
C1816 C1824 1.574 . S
C1816 C1832 1.368 . S
H1817 C1825 0.950 . S
H1818 C1823 0.950 . S
H1819 C1824 0.949 . S
H1820 C1826 0.950 . S
H1821 C1827 0.950 . S
H1822 C1828 0.949 . S
C1823 H1818 0.950 . S
C1823 C1825 1.327 . S
C1823 C1829 1.429 . S
C1824 C1816 1.574 . S
C1824 H1819 0.949 . S
C1824 C1830 1.368 . S
C1825 C1809 1.349 . S
C1825 H1817 0.950 . S
C1825 C1823 1.327 . S
C1826 C1814 1.349 . S
C1826 H1820 0.950 . S
C1826 C1827 1.327 . S
C1827 H1821 0.950 . S
C1827 C1826 1.327 . S
C1827 C1831 1.429 . S
C1828 C1811 1.574 . S
C1828 H1822 0.949 . S
C1828 C1832 1.368 . S
C1829 C1810 1.429 . S
C1829 C1823 1.429 . S
C1829 C1830 1.523 . S
C1830 C1811 1.368 . S
C1830 C1824 1.368 . S
C1830 C1829 1.523 . S
C1831 C1815 1.429 . S
C1831 C1827 1.429 . S
C1831 C1832 1.523 . S
C1832 C1816 1.368 . S
C1832 C1828 1.368 . S
C1832 C1831 1.523 . S
H1833 C1808 0.950 . S
H1834 C1810 0.950 . S
H1835 C1811 0.949 . S
H1836 C1813 0.950 . S
H1837 C1815 0.950 . S
C1838 C1839 1.349 . S
C1838 C1840 1.327 . S
C1838 H1863 0.950 . S
C1839 C1838 1.349 . S
C1839 C1855 1.349 . S
C1840 C1838 1.327 . S
C1840 C1859 1.429 . S
C1840 H1864 0.950 . S
C1841 C1858 1.574 . S
C1841 C1860 1.368 . S
C1841 H1865 0.949 . S
H1842 C1846 0.949 . S
C1843 C1844 1.349 . S
C1843 C1845 1.327 . S
C1843 H1866 0.950 . S
C1844 C1843 1.349 . S
C1844 C1856 1.349 . S
C1845 C1843 1.327 . S
C1845 C1861 1.429 . S
C1845 H1867 0.950 . S
C1846 H1842 0.949 . S
C1846 C1854 1.574 . S
C1846 C1862 1.368 . S
H1847 C1855 0.950 . S
H1848 C1853 0.950 . S
H1849 C1854 0.949 . S
H1850 C1856 0.950 . S
H1851 C1857 0.950 . S
H1852 C1858 0.949 . S
C1853 H1848 0.950 . S
C1853 C1855 1.327 . S
C1853 C1859 1.429 . S
C1854 C1846 1.574 . S
C1854 H1849 0.949 . S
C1854 C1860 1.368 . S
C1855 C1839 1.349 . S
C1855 H1847 0.950 . S
C1855 C1853 1.327 . S
C1856 C1844 1.349 . S
C1856 H1850 0.950 . S
C1856 C1857 1.327 . S
C1857 H1851 0.950 . S
C1857 C1856 1.327 . S
C1857 C1861 1.429 . S
C1858 C1841 1.574 . S
C1858 H1852 0.949 . S
C1858 C1862 1.368 . S
C1859 C1840 1.429 . S
C1859 C1853 1.429 . S
C1859 C1860 1.523 . S
C1860 C1841 1.368 . S
C1860 C1854 1.368 . S
C1860 C1859 1.523 . S
C1861 C1845 1.429 . S
C1861 C1857 1.429 . S
C1861 C1862 1.523 . S
C1862 C1846 1.368 . S
C1862 C1858 1.368 . S
C1862 C1861 1.523 . S
H1863 C1838 0.950 . S
H1864 C1840 0.950 . S
H1865 C1841 0.949 . S
H1866 C1843 0.950 . S
H1867 C1845 0.950 . S
C1868 C1869 1.349 . S
C1868 C1870 1.327 . S
C1868 H1893 0.950 . S
C1869 C1868 1.349 . S
C1869 C1885 1.349 . S
C1870 C1868 1.327 . S
C1870 C1889 1.429 . S
C1870 H1894 0.950 . S
C1871 C1888 1.574 . S
C1871 C1890 1.368 . S
C1871 H1895 0.949 . S
H1872 C1876 0.949 . S
C1873 C1874 1.349 . S
C1873 C1875 1.327 . S
C1873 H1896 0.950 . S
C1874 C1873 1.349 . S
C1874 C1886 1.349 . S
C1875 C1873 1.327 . S
C1875 C1891 1.429 . S
C1875 H1897 0.950 . S
C1876 H1872 0.949 . S
C1876 C1884 1.574 . S
C1876 C1892 1.368 . S
H1877 C1885 0.950 . S
H1878 C1883 0.950 . S
H1879 C1884 0.949 . S
H1880 C1886 0.950 . S
H1881 C1887 0.950 . S
H1882 C1888 0.949 . S
C1883 H1878 0.950 . S
C1883 C1885 1.327 . S
C1883 C1889 1.429 . S
C1884 C1876 1.574 . S
C1884 H1879 0.949 . S
C1884 C1890 1.368 . S
C1885 C1869 1.349 . S
C1885 H1877 0.950 . S
C1885 C1883 1.327 . S
C1886 C1874 1.349 . S
C1886 H1880 0.950 . S
C1886 C1887 1.327 . S
C1887 H1881 0.950 . S
C1887 C1886 1.327 . S
C1887 C1891 1.429 . S
C1888 C1871 1.574 . S
C1888 H1882 0.949 . S
C1888 C1892 1.368 . S
C1889 C1870 1.429 . S
C1889 C1883 1.429 . S
C1889 C1890 1.523 . S
C1890 C1871 1.368 . S
C1890 C1884 1.368 . S
C1890 C1889 1.523 . S
C1891 C1875 1.429 . S
C1891 C1887 1.429 . S
C1891 C1892 1.523 . S
C1892 C1876 1.368 . S
C1892 C1888 1.368 . S
C1892 C1891 1.523 . S
H1893 C1868 0.950 . S
H1894 C1870 0.950 . S
H1895 C1871 0.949 . S
H1896 C1873 0.950 . S
H1897 C1875 0.950 . S
C1898 C1899 1.349 . S
C1898 C1900 1.327 . S
C1898 H1923 0.950 . S
C1899 C1898 1.349 . S
C1899 C1915 1.349 . S
C1900 C1898 1.327 . S
C1900 C1919 1.429 . S
C1900 H1924 0.950 . S
C1901 C1918 1.574 . S
C1901 C1920 1.368 . S
C1901 H1925 0.949 . S
H1902 C1906 0.949 . S
C1903 C1904 1.349 . S
C1903 C1905 1.327 . S
C1903 H1926 0.950 . S
C1904 C1903 1.349 . S
C1904 C1916 1.349 . S
C1905 C1903 1.327 . S
C1905 C1921 1.429 . S
C1905 H1927 0.950 . S
C1906 H1902 0.949 . S
C1906 C1914 1.574 . S
C1906 C1922 1.368 . S
H1907 C1915 0.950 . S
H1908 C1913 0.950 . S
H1909 C1914 0.949 . S
H1910 C1916 0.950 . S
H1911 C1917 0.950 . S
H1912 C1918 0.949 . S
C1913 H1908 0.950 . S
C1913 C1915 1.327 . S
C1913 C1919 1.429 . S
C1914 C1906 1.574 . S
C1914 H1909 0.949 . S
C1914 C1920 1.368 . S
C1915 C1899 1.349 . S
C1915 H1907 0.950 . S
C1915 C1913 1.327 . S
C1916 C1904 1.349 . S
C1916 H1910 0.950 . S
C1916 C1917 1.327 . S
C1917 H1911 0.950 . S
C1917 C1916 1.327 . S
C1917 C1921 1.429 . S
C1918 C1901 1.574 . S
C1918 H1912 0.949 . S
C1918 C1922 1.368 . S
C1919 C1900 1.429 . S
C1919 C1913 1.429 . S
C1919 C1920 1.523 . S
C1920 C1901 1.368 . S
C1920 C1914 1.368 . S
C1920 C1919 1.523 . S
C1921 C1905 1.429 . S
C1921 C1917 1.429 . S
C1921 C1922 1.523 . S
C1922 C1906 1.368 . S
C1922 C1918 1.368 . S
C1922 C1921 1.523 . S
H1923 C1898 0.950 . S
H1924 C1900 0.950 . S
H1925 C1901 0.949 . S
H1926 C1903 0.950 . S
H1927 C1905 0.950 . S
C1928 C1929 1.349 . S
C1928 C1930 1.327 . S
C1928 H1953 0.950 . S
C1929 C1928 1.349 . S
C1929 C1945 1.349 . S
C1930 C1928 1.327 . S
C1930 C1949 1.429 . S
C1930 H1954 0.950 . S
C1931 C1948 1.574 . S
C1931 C1950 1.368 . S
C1931 H1955 0.949 . S
H1932 C1936 0.949 . S
C1933 C1934 1.349 . S
C1933 C1935 1.327 . S
C1933 H1956 0.950 . S
C1934 C1933 1.349 . S
C1934 C1946 1.349 . S
C1935 C1933 1.327 . S
C1935 C1951 1.429 . S
C1935 H1957 0.950 . S
C1936 H1932 0.949 . S
C1936 C1944 1.574 . S
C1936 C1952 1.368 . S
H1937 C1945 0.950 . S
H1938 C1943 0.950 . S
H1939 C1944 0.949 . S
H1940 C1946 0.950 . S
H1941 C1947 0.950 . S
H1942 C1948 0.949 . S
C1943 H1938 0.950 . S
C1943 C1945 1.327 . S
C1943 C1949 1.429 . S
C1944 C1936 1.574 . S
C1944 H1939 0.949 . S
C1944 C1950 1.368 . S
C1945 C1929 1.349 . S
C1945 H1937 0.950 . S
C1945 C1943 1.327 . S
C1946 C1934 1.349 . S
C1946 H1940 0.950 . S
C1946 C1947 1.327 . S
C1947 H1941 0.950 . S
C1947 C1946 1.327 . S
C1947 C1951 1.429 . S
C1948 C1931 1.574 . S
C1948 H1942 0.949 . S
C1948 C1952 1.368 . S
C1949 C1930 1.429 . S
C1949 C1943 1.429 . S
C1949 C1950 1.523 . S
C1950 C1931 1.368 . S
C1950 C1944 1.368 . S
C1950 C1949 1.523 . S
C1951 C1935 1.429 . S
C1951 C1947 1.429 . S
C1951 C1952 1.523 . S
C1952 C1936 1.368 . S
C1952 C1948 1.368 . S
C1952 C1951 1.523 . S
H1953 C1928 0.950 . S
H1954 C1930 0.950 . S
H1955 C1931 0.949 . S
H1956 C1933 0.950 . S
H1957 C1935 0.950 . S
C524 C347 2.324 . S
C519 C18 2.422 . S
C554 C348 2.807 . S
C549 C59 2.837 . S
C584 C342 1.192 . S
C579 C98 1.206 . S
C609 C125 0.575 . S
C614 C341 0.582 . S
C639 C169 2.713 . S
C644 C344 2.682 . S
C674 C346 1.026 . S
C669 C218 1.041 . S
C699 C255 0.791 . S
C704 C345 0.790 . S
C729 C288 2.389 . S
C734 C343 2.293 . S
C764 C378 0.815 . S
C759 C15 0.812 . S
C789 C45 0.592 . S
C794 C409 0.515 . S
C824 C377 0.378 . S
C819 C95 0.159 . S
C854 C412 0.823 . S
C849 C128 0.824 . S
C879 C178 1.138 . S
C884 C375 1.109 . S
C914 C407 1.563 1_556 S
C909 C215 1.589 . S
C939 C249 2.024 . S
C944 C380 2.059 . S
C969 C299 2.083 . S
C974 C414 2.022 . S
C999 C9 2.754 . S
C1004 C410 2.719 . S
C1029 C175 0.408 . S
C1034 C413 0.319 . S
C1064 C381 1.536 . S
C1059 C209 1.569 . S
C1094 C408 1.311 1_556 S
C1089 C258 1.369 . S
C1119 C285 1.382 . S
C1124 C374 1.394 . S
C1149 C89 3.196 . S
C1154 C411 3.214 . S
C1184 C376 2.334 . S
C1179 C139 2.365 . S
C1209 C48 1.628 . S
C1214 C379 1.602 . S
C1239 C298 2.384 . S
C1244 C446 2.278 . S
C1269 C179 2.143 . S
C1274 C447 2.107 . S
C1304 C441 1.204 . S
C1299 C208 1.222 . S
C1334 C440 1.153 . S
C1329 C245 1.160 . S
C1359 C49 2.299 . S
C1364 C443 2.270 . S
C1394 C445 1.089 . S
C1389 C88 1.099 . S
C1419 C135 1.045 . S
C1424 C444 1.042 . S
C1449 C8 2.375 . S
C1454 C442 2.259 . S
C1479 C295 1.397 . S
C1484 C480 1.354 . S
C1514 C512 0.683 . S
C1509 C165 0.519 . S
C1539 C219 1.625 . S
C1544 C473 1.629 . S
C1569 C248 1.674 . S
C1574 C507 1.678 . S
C1604 C478 1.342 . S
C1599 C58 1.364 . S
C1629 C99 3.383 . S
C1634 C509 3.331 . S
C1664 C475 2.615 . S
C1659 C129 2.640 . S
C1694 C510 2.658 . S
C1689 C19 2.604 . S
C1724 C506 1.969 . S
C1719 C289 1.920 . S
C1749 C55 0.851 . S
C1754 C508 0.876 . S
C1779 C85 0.165 . S
C1784 C477 0.165 . S
C1814 C511 1.155 . S
C1809 C138 1.150 . S
C1839 C5 0.813 . S
C1844 C476 0.800 . S
C1869 C205 1.759 . S
C1874 C513 1.687 . S
C1904 C479 2.240 . S
C1899 C259 2.261 . S
C1934 C474 0.840 . S
C1929 C168 0.836 . S
