# Generated by pormake.
# Topology anh, (6,3)-cn, num edge types: 1
# Building blocks:
#     Node 0, Type 0, BuildingBlock: NUHQIS_clean_sbu_0, # of connection points: 6
#     Node 1, Type 0, BuildingBlock: NUHQIS_clean_sbu_0, # of connection points: 6
#     Node 2, Type 0, BuildingBlock: NUHQIS_clean_sbu_0, # of connection points: 6
#     Node 3, Type 1, BuildingBlock: WUSLED_clean_sbu_0, # of connection points: 3
#     Node 4, Type 1, BuildingBlock: WUSLED_clean_sbu_0, # of connection points: 3
#     Node 5, Type 1, BuildingBlock: WUSLED_clean_sbu_0, # of connection points: 3
#     Node 6, Type 1, BuildingBlock: WUSLED_clean_sbu_0, # of connection points: 3
#     Node 7, Type 1, BuildingBlock: WUSLED_clean_sbu_0, # of connection points: 3
#     Node 8, Type 1, BuildingBlock: WUSLED_clean_sbu_0, # of connection points: 3
#     Edge 9, Type (0, 1), BuildingBlock: MIFKUJ_clean_linker_0, # of connection points: 2
#     Edge 10, Type (0, 1), BuildingBlock: MIFKUJ_clean_linker_0, # of connection points: 2
#     Edge 11, Type (0, 1), BuildingBlock: MIFKUJ_clean_linker_0, # of connection points: 2
#     Edge 12, Type (0, 1), BuildingBlock: MIFKUJ_clean_linker_0, # of connection points: 2
#     Edge 13, Type (0, 1), BuildingBlock: MIFKUJ_clean_linker_0, # of connection points: 2
#     Edge 14, Type (0, 1), BuildingBlock: MIFKUJ_clean_linker_0, # of connection points: 2
#     Edge 15, Type (0, 1), BuildingBlock: MIFKUJ_clean_linker_0, # of connection points: 2
#     Edge 16, Type (0, 1), BuildingBlock: MIFKUJ_clean_linker_0, # of connection points: 2
#     Edge 17, Type (0, 1), BuildingBlock: MIFKUJ_clean_linker_0, # of connection points: 2
#     Edge 18, Type (0, 1), BuildingBlock: MIFKUJ_clean_linker_0, # of connection points: 2
#     Edge 19, Type (0, 1), BuildingBlock: MIFKUJ_clean_linker_0, # of connection points: 2
#     Edge 20, Type (0, 1), BuildingBlock: MIFKUJ_clean_linker_0, # of connection points: 2
#     Edge 21, Type (0, 1), BuildingBlock: MIFKUJ_clean_linker_0, # of connection points: 2
#     Edge 22, Type (0, 1), BuildingBlock: MIFKUJ_clean_linker_0, # of connection points: 2
#     Edge 23, Type (0, 1), BuildingBlock: MIFKUJ_clean_linker_0, # of connection points: 2
#     Edge 24, Type (0, 1), BuildingBlock: MIFKUJ_clean_linker_0, # of connection points: 2
#     Edge 25, Type (0, 1), BuildingBlock: MIFKUJ_clean_linker_0, # of connection points: 2
#     Edge 26, Type (0, 1), BuildingBlock: MIFKUJ_clean_linker_0, # of connection points: 2
# Relax obj value: 0.188
# Max RMSD: 0.178
# Mean RMSD: 0.143
data_MOF--net-anh--node1-NUHQIS_clean_sbu_0--node2-WUSLED_clean_sbu_0--edge1-MIFKUJ_clean_linker_0
_symmetry_space_group_name_H-M    P1
_symmetry_Int_Tables_number       1
_symmetry_cell_setting            triclinic
loop_
_symmetry_equiv_pos_as_xyz
'x, y, z'
_cell_length_a     50.04557
_cell_length_b     50.033198
_cell_length_c     86.227936
_cell_angle_alpha  90.326535
_cell_angle_beta   93.224917
_cell_angle_gamma 120.08811
loop_
_atom_site_label
_atom_site_type_symbol
_atom_site_fract_x
_atom_site_fract_y
_atom_site_fract_z
_atom_type_partial_charge
Tb0 Tb 0.0753 0.51422 0.16885 0.0
Eu1 Eu 0.04203 0.55081 0.1657 0.0
C2 C 0.05782 0.53442 0.19812 0.0
C3 C 0.99951 0.47547 0.17048 0.0
C4 C 0.13377 0.49423 0.17308 0.0
C5 C 0.17934 0.49796 0.18604 0.0
C6 C 0.14743 0.48483 0.18472 0.0
C7 C 0.15208 0.51774 0.16316 0.0
C8 C 0.18386 0.5307 0.16442 0.0
C9 C 0.19749 0.52049 0.17569 0.0
C10 C 0.10098 0.48284 0.17266 0.0
O11 O 0.07247 0.51741 0.14327 0.0
O12 O 0.04852 0.54578 0.14064 0.0
O13 O 0.09341 0.5894 0.17018 0.0
O14 O 0.11804 0.56164 0.16911 0.0
C15 C 0.06091 0.53109 0.13445 0.0
O16 O 1.01271 0.56595 0.15408 0.0
O17 O 0.03928 0.58909 0.17575 0.0
O18 O 1.03446 0.53193 0.18953 0.0
O19 O 0.08162 0.53707 0.19139 0.0
O20 O 1.02671 0.47719 0.17292 0.0
O21 O 0.99922 0.50078 0.16611 0.0
C22 C 0.11964 0.58894 0.17068 0.0
O23 O 0.09285 0.49352 0.18411 0.0
O24 O 0.08844 0.48438 0.15931 0.0
C25 C 0.98869 0.57783 0.17245 0.0
C26 C 0.9287 0.55459 0.18071 0.0
C27 C 0.94179 0.57971 0.17089 0.0
C28 C 0.97186 0.59133 0.16675 0.0
C29 C 0.97608 0.55351 0.18274 0.0
C30 C 0.94608 0.5419 0.18688 0.0
C31 C 1.0169 0.5848 0.16569 0.0
H32 H 0.18969 0.48958 0.19466 0.0
H33 H 0.13345 0.46745 0.19274 0.0
H34 H 0.14189 0.52609 0.15444 0.0
H35 H 0.19774 0.54801 0.15634 0.0
H36 H 0.92818 0.5891 0.16569 0.0
H37 H 0.9813 0.60951 0.15847 0.0
H38 H 0.98878 0.54241 0.18687 0.0
H39 H 0.93603 0.52228 0.19431 0.0
Tb40 Tb 0.59401 0.07393 0.50379 0.0
Eu41 Eu 0.52492 0.0449 0.50067 0.0
C42 C 0.55881 0.06042 0.53308 0.0
C43 C 0.55604 0.99981 0.50527 0.0
C44 C 0.67295 0.13054 0.50519 0.0
C45 C 0.71591 0.17949 0.51426 0.0
C46 C 0.69903 0.14769 0.51532 0.0
C47 C 0.66374 0.14501 0.49394 0.0
C48 C 0.68049 0.17666 0.4929 0.0
C49 C 0.70638 0.19391 0.50315 0.0
C50 C 0.65116 0.09935 0.50864 0.0
O51 O 0.5868 0.07992 0.47882 0.0
O52 O 0.53684 0.04137 0.47604 0.0
O53 O 0.53744 0.09553 0.49903 0.0
O54 O 0.58829 0.11622 0.50709 0.0
C55 C 0.56241 0.0608 0.46975 0.0
O56 O 0.48114 1.02509 0.48681 0.0
O57 O 0.4826 0.03113 0.51189 0.0
O58 O 0.53993 0.06594 0.52472 0.0
O59 O 0.57734 0.05413 0.52598 0.0
O60 O 0.58125 1.02443 0.50091 0.0
O61 O 0.53163 1.00297 0.50754 0.0
C62 C 0.56385 0.11994 0.50398 0.0
O63 O 0.63291 0.09811 0.51913 0.0
O64 O 0.63621 0.08102 0.49654 0.0
C65 C 0.44452 0.98489 0.50028 0.0
C66 C 0.40516 0.92186 0.50183 0.0
C67 C 0.39994 0.93824 0.49001 0.0
C68 C 0.41948 0.96983 0.48934 0.0
C69 C 0.4511 0.96813 0.51137 0.0
C70 C 0.4313 0.93673 0.51222 0.0
C71 C 0.46555 1.01753 0.4992 0.0
H72 H 0.73633 0.1928 0.52206 0.0
H73 H 0.70551 0.13666 0.52438 0.0
H74 H 0.64281 0.13202 0.48645 0.0
H75 H 0.67305 0.18774 0.48431 0.0
H76 H 0.38015 0.92678 0.48165 0.0
H77 H 0.41502 0.9825 0.48039 0.0
H78 H 0.47118 0.97929 0.51957 0.0
H79 H 0.43566 0.92447 0.52143 0.0
Tb80 Tb 0.5696 0.57364 0.83576 0.0
Eu81 Eu 0.53192 0.50367 0.83223 0.0
C82 C 0.5536 0.53484 0.86504 0.0
C83 C 0.60789 0.53559 0.83785 0.0
C84 C 0.59168 0.65233 0.83914 0.0
C85 C 0.5872 0.69343 0.85087 0.0
C86 C 0.60106 0.67542 0.85077 0.0
C87 C 0.56784 0.64661 0.82789 0.0
C88 C 0.55419 0.66464 0.82794 0.0
C89 C 0.56408 0.68819 0.83933 0.0
C90 C 0.60249 0.63063 0.8403 0.0
O91 O 0.55932 0.56876 0.8104 0.0
O92 O 0.53913 0.51685 0.80722 0.0
O93 O 0.49439 0.51677 0.83651 0.0
O94 O 0.52215 0.56917 0.83525 0.0
C95 C 0.54919 0.54397 0.80128 0.0
O96 O 0.51391 0.46038 0.81912 0.0
O97 O 0.49513 0.4614 0.84108 0.0
O98 O 0.55348 0.51324 0.85653 0.0
O99 O 0.55171 0.55709 0.85826 0.0
O100 O 0.60755 0.56191 0.83806 0.0
O101 O 0.58107 0.50936 0.83563 0.0
C102 C 0.49504 0.54354 0.83685 0.0
O103 O 0.59091 0.61168 0.85148 0.0
O104 O 0.60099 0.61652 0.82728 0.0
C105 C 0.50578 0.42169 0.83615 0.0
C106 C 0.53366 0.38833 0.84637 0.0
C107 C 0.52748 0.38961 0.83043 0.0
C108 C 0.51331 0.40593 0.82535 0.0
C109 C 0.51125 0.41966 0.85219 0.0
C110 C 0.52493 0.40275 0.85727 0.0
C111 C 0.49781 0.44432 0.83049 0.0
H112 H 0.59503 0.71189 0.85964 0.0
H113 H 0.61861 0.67911 0.85982 0.0
H114 H 0.5594 0.62794 0.81918 0.0
H115 H 0.53622 0.6605 0.81903 0.0
H116 H 0.53335 0.37768 0.82192 0.0
H117 H 0.50942 0.40735 0.81296 0.0
H118 H 0.5059 0.43184 0.86079 0.0
H119 H 0.52904 0.40119 0.86962 0.0
C120 C 0.64074 0.11592 0.20262 0.0
C121 C 0.66899 0.12377 0.21117 0.0
C122 C 0.69999 0.17434 0.198 0.0
C123 C 0.69752 0.15203 0.20901 0.0
C124 C 0.67139 0.16616 0.18959 0.0
C125 C 0.64304 0.13811 0.1918 0.0
U126 U 0.56309 0.03832 0.21807 0.0
O127 O 0.51533 1.01443 0.20611 0.0
O128 O 0.54006 0.98928 0.20857 0.0
C129 C 0.5139 0.98774 0.20364 0.0
C130 C 0.60989 0.0842 0.20317 0.0
C131 C 0.48221 0.95665 0.20343 0.0
C132 C 0.42601 0.9256 0.19431 0.0
C133 C 0.45461 0.95437 0.19661 0.0
C134 C 0.45046 0.89909 0.20558 0.0
C135 C 0.42264 0.89662 0.19863 0.0
C136 C 0.47919 0.92797 0.20778 0.0
C137 C 0.56488 0.04516 0.26601 0.0
C138 C 0.53868 1.0248 0.29 0.0
C139 C 0.59024 0.06918 0.29151 0.0
C140 C 0.59047 0.0679 0.27518 0.0
C141 C 0.56434 0.04769 0.29932 0.0
C142 C 0.53895 1.02359 0.27362 0.0
C143 C 0.56595 0.04426 0.24867 0.0
O144 O 0.60982 0.05944 0.20831 0.0
O145 O 0.58367 0.08313 0.20568 0.0
O146 O 0.55168 0.05461 0.2394 0.0
O147 O 0.57803 0.03 0.2415 0.0
H148 H 0.66927 0.1078 0.21951 0.0
H149 H 0.71785 0.15584 0.21597 0.0
H150 H 0.67036 0.18139 0.18107 0.0
H151 H 0.62259 0.13352 0.18464 0.0
H152 H 0.40664 0.92649 0.18872 0.0
H153 H 0.45522 0.97511 0.19258 0.0
H154 H 0.45052 0.87859 0.20937 0.0
H155 H 0.49935 0.92762 0.21276 0.0
H156 H 0.51806 1.00795 0.29531 0.0
H157 H 0.61077 0.08689 0.298 0.0
H158 H 0.61086 0.08479 0.26969 0.0
H159 H 0.51885 1.00574 0.26689 0.0
C160 C 0.5604 0.64018 0.53565 0.0
C161 C 0.53513 0.64396 0.53932 0.0
C162 C 0.56028 0.69945 0.53129 0.0
C163 C 0.53513 0.67253 0.53731 0.0
C164 C 0.58553 0.69533 0.52773 0.0
C165 C 0.5855 0.66687 0.52979 0.0
U166 U 0.55919 0.56023 0.55025 0.0
O167 O 0.53474 0.51266 0.53885 0.0
O168 O 0.58489 0.53883 0.54012 0.0
C169 C 0.56005 0.51239 0.5357 0.0
C170 C 0.55971 0.60849 0.53565 0.0
C171 C 0.56104 0.48159 0.53519 0.0
C172 C 0.57993 0.44926 0.52274 0.0
C173 C 0.57989 0.47769 0.52478 0.0
C174 C 0.54212 0.4263 0.54153 0.0
C175 C 0.56096 0.42218 0.53095 0.0
C176 C 0.54204 0.4549 0.54351 0.0
C177 C 0.5583 0.55964 0.59816 0.0
C178 C 0.56085 0.5359 0.62258 0.0
C179 C 0.55376 0.58018 0.62313 0.0
C180 C 0.55437 0.58117 0.60682 0.0
C181 C 0.55693 0.55749 0.63137 0.0
C182 C 0.56158 0.53701 0.60624 0.0
C183 C 0.55851 0.56084 0.58082 0.0
O184 O 0.58462 0.60719 0.54011 0.0
O185 O 0.53449 0.58257 0.53855 0.0
O186 O 0.53305 0.54776 0.57161 0.0
O187 O 0.58429 0.57309 0.57361 0.0
H188 H 0.51478 0.62448 0.54357 0.0
H189 H 0.51469 0.67294 0.54033 0.0
H190 H 0.60587 0.71406 0.52314 0.0
H191 H 0.60537 0.66565 0.52638 0.0
H192 H 0.59528 0.449 0.51452 0.0
H193 H 0.59465 0.4969 0.51783 0.0
H194 H 0.5267 0.4072 0.54829 0.0
H195 H 0.52667 0.45591 0.55154 0.0
H196 H 0.56378 0.51826 0.62832 0.0
H197 H 0.55025 0.59701 0.62924 0.0
H198 H 0.55167 0.59882 0.60093 0.0
H199 H 0.56464 0.52008 0.5999 0.0
C200 C 0.97411 0.53878 0.86828 0.0
C201 C 0.94506 0.5127 0.87113 0.0
C202 C 0.91441 0.53892 0.86388 0.0
C203 C 0.91635 0.51282 0.86911 0.0
C204 C 0.94379 0.56498 0.86112 0.0
C205 C 0.97237 0.56483 0.8632 0.0
U206 U 0.05388 0.53681 0.88299 0.0
O207 O 0.07561 0.51251 0.8716 0.0
O208 O 0.10047 0.56255 0.87307 0.0
C209 C 0.10148 0.53781 0.86873 0.0
C210 C 1.00513 0.53814 0.86823 0.0
C211 C 0.13311 0.53827 0.86882 0.0
C212 C 0.18953 0.56566 0.86366 0.0
C213 C 0.16116 0.56547 0.86581 0.0
C214 C 0.16394 0.51133 0.86741 0.0
C215 C 0.19221 0.53855 0.86425 0.0
C216 C 0.13552 0.51118 0.86951 0.0
C217 C 0.05603 0.53403 0.93095 0.0
C218 C 0.08405 0.53947 0.9561 0.0
C219 C 1.03045 0.52608 0.95531 0.0
C220 C 1.0296 0.52671 0.93894 0.0
C221 C 0.0577 0.53244 0.96423 0.0
C222 C 0.08326 0.54043 0.93974 0.0
C223 C 0.05524 0.53504 0.91358 0.0
O224 O 1.03177 0.56281 0.87265 0.0
O225 O 1.00595 0.51276 0.87122 0.0
O226 O 0.04146 0.50994 0.90448 0.0
O227 O 0.06835 0.56108 0.90625 0.0
H228 H 0.94428 0.49164 0.87473 0.0
H229 H 0.89554 0.49175 0.87153 0.0
H230 H 0.94528 0.58603 0.8571 0.0
H231 H 0.99344 0.58539 0.86039 0.0
H232 H 0.20932 0.5876 0.86126 0.0
H233 H 0.16112 0.58699 0.8647 0.0
H234 H 0.16315 0.48942 0.86813 0.0
H235 H 0.11502 0.4893 0.8714 0.0
H236 H 0.10559 0.5448 0.9624 0.0
H237 H 1.0095 0.52018 0.96096 0.0
H238 H 1.00825 0.52162 0.9325 0.0
H239 H 0.104 0.54611 0.93393 0.0
C240 C 0.9981 0.54123 0.4664 0.0
C241 C 0.97162 0.52365 0.45647 0.0
C242 C 0.94907 0.48774 0.47673 0.0
C243 C 0.94705 0.49715 0.46166 0.0
C244 C 0.97515 0.50594 0.48687 0.0
C245 C 0.99974 0.53277 0.48168 0.0
U246 U 0.03931 0.57397 0.43109 0.0
O247 O 0.06572 0.62214 0.42413 0.0
O248 O 0.08807 0.59388 0.42618 0.0
C249 C 0.09185 0.62185 0.42588 0.0
C250 C 1.02528 0.5655 0.45994 0.0
C251 C 0.11245 0.64197 0.43865 0.0
C252 C 0.12393 0.64942 0.46649 0.0
C253 C 0.10478 0.63214 0.4538 0.0
C254 C 0.15828 0.68774 0.44907 0.0
C255 C 0.15088 0.67709 0.46417 0.0
C256 C 0.13902 0.67005 0.43625 0.0
C257 C 1.00817 0.53624 0.39238 0.0
C258 C 1.03578 0.56542 0.37061 0.0
C259 C 1.00163 0.50986 0.36771 0.0
C260 C 0.9947 0.50894 0.38321 0.0
C261 C 1.02205 0.53815 0.36124 0.0
C262 C 1.02905 0.56442 0.38609 0.0
C263 C 1.00304 0.53524 0.40888 0.0
O264 O 0.04222 0.55552 0.45373 0.0
O265 O 1.02006 0.58391 0.45107 0.0
O266 O 0.99922 0.5577 0.41426 0.0
O267 O 1.02254 0.53052 0.41762 0.0
H268 H 0.97045 0.52976 0.44451 0.0
H269 H 0.92689 0.48353 0.45375 0.0
H270 H 0.97708 0.49871 0.4985 0.0
H271 H 1.02045 0.54605 0.48929 0.0
H272 H 0.11802 0.64102 0.47808 0.0
H273 H 0.08423 0.61068 0.45583 0.0
H274 H 0.17938 0.70913 0.44723 0.0
H275 H 0.14503 0.67791 0.42461 0.0
H276 H 0.05143 0.58757 0.36595 0.0
H277 H 0.99126 0.48839 0.36086 0.0
H278 H 0.97922 0.48695 0.38807 0.0
H279 H 0.04028 0.58565 0.3932 0.0
C280 C 0.49711 0.97628 0.79915 0.0
C281 C 0.49455 0.95378 0.78848 0.0
C282 C 0.50458 0.92789 0.80947 0.0
C283 C 0.49812 0.92958 0.79362 0.0
C284 C 0.50632 0.94997 0.82022 0.0
C285 C 0.50264 0.97428 0.81504 0.0
U286 U 0.49875 1.01889 0.7644 0.0
O287 O 0.47535 0.0447 0.75775 0.0
O288 O 0.5263 0.06798 0.7595 0.0
C289 C 0.50172 0.0711 0.75903 0.0
C290 C 0.49693 1.00307 0.79319 0.0
C291 C 0.50369 0.09234 0.77115 0.0
C292 C 0.50495 0.10245 0.79877 0.0
C293 C 0.49712 0.08165 0.78629 0.0
C294 C 0.5251 0.14468 0.78098 0.0
C295 C 0.51966 0.13407 0.79618 0.0
C296 C 0.51725 0.12381 0.76848 0.0
C297 C 0.50388 0.9918 0.7255 0.0
C298 C 0.50608 1.02484 0.70456 0.0
C299 C 0.5189 0.98467 0.70036 0.0
C300 C 0.51305 0.97599 0.7157 0.0
C301 C 0.5157 1.00932 0.69472 0.0
C302 C 0.50035 1.01622 0.71988 0.0
C303 C 0.50071 0.98508 0.74193 0.0
O304 O 0.52282 1.02243 0.78701 0.0
O305 O 0.47189 0.99656 0.78442 0.0
O306 O 0.47453 0.98025 0.7472 0.0
O307 O 0.52529 1.00419 0.75086 0.0
H308 H 0.49062 0.95544 0.77612 0.0
H309 H 0.49632 0.91249 0.7852 0.0
H310 H 0.51155 0.94901 0.8325 0.0
H311 H 0.505 0.99186 0.82329 0.0
H312 H 0.50064 0.09402 0.81044 0.0
H313 H 0.48725 0.05734 0.78855 0.0
H314 H 0.536 0.16914 0.77884 0.0
H315 H 0.5229 0.13229 0.7569 0.0
H316 H 0.50379 0.04412 0.70055 0.0
H317 H 0.52599 0.97216 0.69292 0.0
H318 H 0.5162 0.95737 0.71998 0.0
H319 H 0.4938 0.02902 0.72746 0.0
C320 C 0.57099 0.47342 0.13494 0.0
C321 C 0.58758 0.46482 0.12553 0.0
C322 C 0.6238 0.4743 0.14732 0.0
C323 C 0.61385 0.46512 0.13172 0.0
C324 C 0.60698 0.48251 0.15681 0.0
C325 C 0.58049 0.48203 0.1506 0.0
U326 U 0.5337 0.48194 0.0986 0.0
O327 O 0.48486 0.46126 0.09042 0.0
O328 O 0.51444 0.51188 0.09313 0.0
C329 C 0.48613 0.48809 0.09163 0.0
C330 C 0.546 0.47663 0.12779 0.0
C331 C 0.46625 0.48889 0.10294 0.0
C332 C 0.45472 0.48715 0.12989 0.0
C333 C 0.473 0.48618 0.11868 0.0
C334 C 0.42285 0.49366 0.10964 0.0
C335 C 0.4295 0.49079 0.12542 0.0
C336 C 0.44123 0.49265 0.0984 0.0
C337 C 0.5635 0.48537 0.06036 0.0
C338 C 0.53199 0.48846 0.03882 0.0
C339 C 0.58195 0.49381 0.03457 0.0
C340 C 0.58631 0.49004 0.05036 0.0
C341 C 0.55467 0.49286 0.02864 0.0
C342 C 0.53643 0.48481 0.05458 0.0
C343 C 0.56791 0.48215 0.07695 0.0
O344 O 0.55539 0.50352 0.12152 0.0
O345 O 0.52608 0.45292 0.11871 0.0
O346 O 0.54597 0.45644 0.08242 0.0
O347 O 0.57506 0.50701 0.08548 0.0
H348 H 0.58076 0.45882 0.11328 0.0
H349 H 0.62699 0.45931 0.1242 0.0
H350 H 0.61462 0.4897 0.1689 0.0
H351 H 0.568 0.48918 0.15785 0.0
H352 H 0.46011 0.48482 0.14199 0.0
H353 H 0.49244 0.48333 0.12229 0.0
H354 H 0.40372 0.49707 0.10605 0.0
H355 H 0.43606 0.49495 0.08628 0.0
H356 H 0.51067 0.48741 0.03459 0.0
H357 H 0.60008 0.49779 0.02704 0.0
H358 H 0.60747 0.49094 0.05475 0.0
H359 H 0.51871 0.4815 0.06227 0.0
H360 H 0.22365 0.51562 0.15043 0.0
H361 H 0.27274 0.51659 0.1502 0.0
H362 H 0.29167 0.54334 0.19903 0.0
H363 H 0.24208 0.54233 0.19938 0.0
H364 H 0.34195 0.57101 0.16912 0.0
H365 H 0.27468 0.48342 0.20204 0.0
H366 H 0.2229 0.44009 0.20693 0.0
H367 H 0.21443 0.40118 0.16117 0.0
H368 H 0.266 0.44448 0.15596 0.0
H369 H 0.44901 0.52451 0.15277 0.0
H370 H 0.41659 0.53236 0.17037 0.0
H371 H 0.33514 0.46906 0.14149 0.0
H372 H 0.36712 0.46019 0.12435 0.0
H373 H 0.32327 0.46382 0.17101 0.0
H374 H 0.37401 0.54427 0.13431 0.0
H375 H 0.41807 0.58677 0.12205 0.0
H376 H 0.44964 0.63826 0.16571 0.0
H377 H 0.40602 0.59581 0.17826 0.0
C378 C 0.23887 0.52296 0.16094 0.0
C379 C 0.22961 0.529 0.17494 0.0
C380 C 0.26659 0.52328 0.16082 0.0
C381 C 0.28505 0.52975 0.17466 0.0
C382 C 0.27721 0.53828 0.18836 0.0
C383 C 0.24923 0.53774 0.18853 0.0
C384 C 0.31064 0.52408 0.17477 0.0
C385 C 0.3387 0.54796 0.17018 0.0
C386 C 0.30495 0.49352 0.17541 0.0
C387 C 0.27414 0.46722 0.17863 0.0
C388 C 0.26168 0.46571 0.19301 0.0
C389 C 0.23239 0.44114 0.19584 0.0
C390 C 0.21538 0.4179 0.18437 0.0
C391 C 0.22764 0.41916 0.17005 0.0
C392 C 0.25692 0.44368 0.16717 0.0
C393 C 0.42409 0.51161 0.15052 0.0
C394 C 0.41033 0.4922 0.13716 0.0
C395 C 0.40577 0.51615 0.1605 0.0
C396 C 0.37379 0.5015 0.15703 0.0
C397 C 0.35989 0.48043 0.14432 0.0
C398 C 0.3781 0.47572 0.13445 0.0
C399 C 0.35486 0.51079 0.16519 0.0
C400 C 0.32773 0.48741 0.17104 0.0
C401 C 0.36066 0.54151 0.16483 0.0
C402 C 0.38726 0.56658 0.15731 0.0
C403 C 0.39063 0.56444 0.14134 0.0
C404 C 0.41545 0.58857 0.13432 0.0
C405 C 0.43677 0.6151 0.14312 0.0
C406 C 0.43324 0.61761 0.15893 0.0
C407 C 0.40853 0.59352 0.16601 0.0
H408 H 0.45595 0.63378 0.13767 0.0
H409 H 0.19271 0.39891 0.18659 0.0
H410 H 0.7289 0.22189 0.4767 0.0
H411 H 0.76975 0.27544 0.47469 0.0
H412 H 0.76746 0.29232 0.52366 0.0
H413 H 0.726 0.23865 0.52571 0.0
H414 H 0.77494 0.34059 0.5021 0.0
H415 H 0.81754 0.27467 0.51688 0.0
H416 H 0.82256 0.22831 0.51401 0.0
H417 H 0.84952 0.25176 0.46739 0.0
H418 H 0.84447 0.29816 0.46995 0.0
H419 H 0.92199 0.47519 0.50415 0.0
H420 H 0.87998 0.42526 0.51161 0.0
H421 H 0.87885 0.38468 0.46703 0.0
H422 H 0.92191 0.43379 0.45989 0.0
H423 H 0.87446 0.34821 0.49013 0.0
H424 H 0.82785 0.40853 0.47288 0.0
H425 H 0.82008 0.45349 0.47304 0.0
H426 H 0.79734 0.43901 0.52071 0.0
H427 H 0.80528 0.39416 0.52085 0.0
C428 C 0.73642 0.23739 0.48687 0.0
C429 C 0.72511 0.22672 0.5014 0.0
C430 C 0.75967 0.26759 0.48574 0.0
C431 C 0.7715 0.2868 0.49914 0.0
C432 C 0.75835 0.27712 0.51335 0.0
C433 C 0.73503 0.24684 0.5145 0.0
C434 C 0.79937 0.31613 0.49849 0.0
C435 C 0.79697 0.34259 0.49981 0.0
C436 C 0.82736 0.3177 0.49512 0.0
C437 C 0.83045 0.28979 0.49359 0.0
C438 C 0.82434 0.26983 0.50598 0.0
C439 C 0.82726 0.24358 0.50442 0.0
C440 C 0.83631 0.23707 0.49052 0.0
C441 C 0.84253 0.25684 0.47815 0.0
C442 C 0.83972 0.28315 0.47967 0.0
C443 C 0.91302 0.45541 0.49611 0.0
C444 C 0.92465 0.45807 0.48145 0.0
C445 C 0.8891 0.42722 0.50031 0.0
C446 C 0.87653 0.40191 0.48973 0.0
C447 C 0.88855 0.40429 0.47524 0.0
C448 C 0.91272 0.43227 0.47114 0.0
C449 C 0.85004 0.37295 0.49347 0.0
C450 C 0.85267 0.34644 0.49276 0.0
C451 C 0.82205 0.37123 0.49702 0.0
C452 C 0.81762 0.39836 0.49695 0.0
C453 C 0.82151 0.41516 0.48344 0.0
C454 C 0.81698 0.44055 0.48346 0.0
C455 C 0.80836 0.44919 0.4969 0.0
C456 C 0.80411 0.43237 0.51032 0.0
C457 C 0.80861 0.40697 0.51036 0.0
H458 H 0.80486 0.46885 0.4969 0.0
H459 H 0.83854 0.21674 0.48933 0.0
H460 H 0.56698 0.72057 0.81437 0.0
H461 H 0.5548 0.76198 0.81274 0.0
H462 H 0.52542 0.74605 0.85961 0.0
H463 H 0.53773 0.70429 0.86135 0.0
H464 H 0.48585 0.75315 0.8322 0.0
H465 H 0.58786 0.80098 0.86029 0.0
H466 H 0.64133 0.81074 0.86375 0.0
H467 H 0.66016 0.84948 0.81865 0.0
H468 H 0.60668 0.83964 0.81486 0.0
H469 H 0.48129 0.89143 0.83398 0.0
H470 H 0.49096 0.85015 0.84217 0.0
H471 H 0.54999 0.86826 0.80427 0.0
H472 H 0.54161 0.91039 0.79645 0.0
H473 H 0.57476 0.86028 0.83096 0.0
H474 H 0.47836 0.81052 0.80021 0.0
H475 H 0.4249 0.79731 0.79224 0.0
H476 H 0.39524 0.75837 0.83658 0.0
H477 H 0.44864 0.77174 0.84489 0.0
C478 C 0.55734 0.72558 0.82417 0.0
C479 C 0.55311 0.70978 0.83798 0.0
C480 C 0.55067 0.74911 0.82327 0.0
C481 C 0.53978 0.75671 0.83616 0.0
C482 C 0.53409 0.74009 0.84972 0.0
C483 C 0.54105 0.7166 0.85068 0.0
C484 C 0.53525 0.78284 0.83537 0.0
C485 C 0.50503 0.77678 0.83238 0.0
C486 C 0.56084 0.81294 0.83489 0.0
C487 C 0.59324 0.8195 0.83729 0.0
C488 C 0.60336 0.81145 0.85109 0.0
C489 C 0.63368 0.81703 0.85311 0.0
C490 C 0.65412 0.83071 0.84142 0.0
C491 C 0.64431 0.83893 0.8277 0.0
C492 C 0.61403 0.83343 0.82563 0.0
C493 C 0.49666 0.8868 0.82759 0.0
C494 C 0.51064 0.90369 0.81461 0.0
C495 C 0.50194 0.86328 0.83218 0.0
C496 C 0.5209 0.85643 0.82368 0.0
C497 C 0.53531 0.87356 0.81088 0.0
C498 C 0.53027 0.89722 0.80638 0.0
C499 C 0.52514 0.83077 0.82788 0.0
C500 C 0.55538 0.83686 0.8313 0.0
C501 C 0.49962 0.80049 0.82822 0.0
C502 C 0.46755 0.79259 0.82327 0.0
C503 C 0.4605 0.79946 0.80832 0.0
C504 C 0.4302 0.79186 0.80373 0.0
C505 C 0.40671 0.77715 0.81393 0.0
C506 C 0.41346 0.76987 0.82872 0.0
C507 C 0.44373 0.77744 0.83337 0.0
H508 H 0.38327 0.77129 0.81035 0.0
H509 H 0.67757 0.83498 0.84301 0.0
H510 H 0.88712 0.4937 0.17598 0.0
H511 H 0.83084 0.4708 0.17341 0.0
H512 H 0.84106 0.55925 0.1862 0.0
H513 H 0.89706 0.58193 0.18929 0.0
H514 H 0.79276 0.51086 0.19883 0.0
H515 H 0.83894 0.54147 0.14922 0.0
H516 H 0.86819 0.54077 0.12727 0.0
H517 H 0.80508 0.44355 0.11916 0.0
H518 H 0.77566 0.44361 0.14117 0.0
H519 H 0.67205 0.52422 0.16214 0.0
H520 H 0.72199 0.52993 0.17087 0.0
H521 H 0.69046 0.43645 0.15433 0.0
H522 H 0.64058 0.43084 0.1453 0.0
H523 H 0.74647 0.47806 0.14481 0.0
H524 H 0.69603 0.45273 0.19323 0.0
H525 H 0.66764 0.45849 0.21426 0.0
H526 H 0.7408 0.55219 0.22358 0.0
H527 H 0.76944 0.54709 0.20249 0.0
C528 C 0.87713 0.50781 0.17883 0.0
C529 C 0.89586 0.53946 0.18277 0.0
C530 C 0.84528 0.49487 0.17719 0.0
C531 C 0.83246 0.51367 0.17941 0.0
C532 C 0.851 0.54464 0.18447 0.0
C533 C 0.88271 0.55751 0.1862 0.0
C534 C 0.79998 0.50211 0.1754 0.0
C535 C 0.78241 0.50348 0.18706 0.0
C536 C 0.78712 0.49249 0.16001 0.0
C537 C 0.8054 0.49242 0.14703 0.0
C538 C 0.83154 0.51986 0.14289 0.0
C539 C 0.84808 0.51961 0.1304 0.0
C540 C 0.83858 0.4921 0.12187 0.0
C541 C 0.81249 0.46481 0.1258 0.0
C542 C 0.79588 0.46494 0.13829 0.0
C543 C 0.67572 0.5048 0.16066 0.0
C544 C 0.65274 0.47696 0.15336 0.0
C545 C 0.70402 0.50804 0.16561 0.0
C546 C 0.70921 0.48328 0.1635 0.0
C547 C 0.68636 0.45551 0.15615 0.0
C548 C 0.65814 0.45236 0.15106 0.0
C549 C 0.73924 0.48709 0.16825 0.0
C550 C 0.75643 0.48447 0.15669 0.0
C551 C 0.75208 0.49635 0.18365 0.0
C552 C 0.73477 0.49952 0.19625 0.0
C553 C 0.70594 0.47461 0.1997 0.0
C554 C 0.68984 0.47776 0.21164 0.0
C555 C 0.7024 0.50569 0.22024 0.0
C556 C 0.7311 0.53056 0.21692 0.0
C557 C 0.74729 0.52753 0.20499 0.0
H558 H 0.6899 0.50806 0.22949 0.0
H559 H 0.85137 0.49196 0.11219 0.0
H560 H 0.41277 0.87297 0.50905 0.0
H561 H 0.37165 0.8208 0.51459 0.0
H562 H 0.30363 0.84915 0.50627 0.0
H563 H 0.34426 0.90112 0.50168 0.0
H564 H 0.29017 0.81178 0.5301 0.0
H565 H 0.32334 0.82005 0.47705 0.0
H566 H 0.36195 0.83006 0.45796 0.0
H567 H 0.37629 0.75867 0.47686 0.0
H568 H 0.33804 0.74854 0.49621 0.0
H569 H 0.17196 0.73598 0.47397 0.0
H570 H 0.21522 0.766 0.49307 0.0
H571 H 0.22182 0.68479 0.50268 0.0
H572 H 0.1782 0.65459 0.48363 0.0
H573 H 0.27232 0.73455 0.48854 0.0
H574 H 0.2148 0.71896 0.53385 0.0
H575 H 0.17125 0.71478 0.5478 0.0
H576 H 0.19685 0.80781 0.53665 0.0
H577 H 0.24042 0.81248 0.52255 0.0
C578 C 0.38901 0.86793 0.50865 0.0
C579 C 0.3813 0.89049 0.50463 0.0
C580 C 0.36581 0.83845 0.51189 0.0
C581 C 0.33499 0.83157 0.51089 0.0
C582 C 0.32748 0.85436 0.50728 0.0
C583 C 0.35054 0.88373 0.50428 0.0
C584 C 0.30971 0.79997 0.51144 0.0
C585 C 0.28633 0.79434 0.52133 0.0
C586 C 0.30528 0.77771 0.49992 0.0
C587 C 0.32819 0.78381 0.48822 0.0
C588 C 0.3349 0.80664 0.47721 0.0
C589 C 0.3567 0.81233 0.46633 0.0
C590 C 0.37165 0.79509 0.46623 0.0
C591 C 0.36477 0.77208 0.47698 0.0
C592 C 0.34306 0.76637 0.48791 0.0
C593 C 0.18212 0.72451 0.48056 0.0
C594 C 0.1725 0.69347 0.47741 0.0
C595 C 0.20636 0.74137 0.49157 0.0
C596 C 0.22115 0.72723 0.49932 0.0
C597 C 0.2101 0.69565 0.49695 0.0
C598 C 0.18555 0.67867 0.48606 0.0
C599 C 0.25204 0.74712 0.50661 0.0
C600 C 0.27666 0.75069 0.49813 0.0
C601 C 0.25696 0.76854 0.51866 0.0
C602 C 0.23105 0.76611 0.52729 0.0
C603 C 0.21114 0.73851 0.53439 0.0
C604 C 0.18645 0.73607 0.54231 0.0
C605 C 0.18135 0.76105 0.54316 0.0
C606 C 0.20093 0.78854 0.53606 0.0
C607 C 0.22571 0.79114 0.52816 0.0
H608 H 0.16221 0.75908 0.5493 0.0
H609 H 0.38849 0.79948 0.4578 0.0
H610 H 0.50427 0.33735 0.86259 0.0
H611 H 0.51397 0.29437 0.86171 0.0
H612 H 0.59892 0.35131 0.83954 0.0
H613 H 0.58848 0.39414 0.83991 0.0
H614 H 0.55682 0.30312 0.82151 0.0
H615 H 0.59932 0.31878 0.87418 0.0
H616 H 0.59968 0.32891 0.9022 0.0
H617 H 0.51395 0.24354 0.90474 0.0
H618 H 0.51276 0.23316 0.87664 0.0
H619 H 0.57685 0.18296 0.80257 0.0
H620 H 0.58995 0.22725 0.81987 0.0
H621 H 0.49788 0.17952 0.83613 0.0
H622 H 0.48465 0.13498 0.81883 0.0
H623 H 0.54836 0.22402 0.85857 0.0
H624 H 0.50057 0.21326 0.80652 0.0
H625 H 0.49562 0.20306 0.77817 0.0
H626 H 0.58735 0.27971 0.7743 0.0
H627 H 0.59306 0.29001 0.80268 0.0
C628 C 0.52581 0.34107 0.85834 0.0
C629 C 0.5457 0.36854 0.8513 0.0
C630 C 0.53136 0.31661 0.85783 0.0
C631 C 0.55716 0.3199 0.85057 0.0
C632 C 0.57898 0.34863 0.84521 0.0
C633 C 0.57316 0.37296 0.8455 0.0
C634 C 0.5576 0.29216 0.84568 0.0
C635 C 0.55599 0.28627 0.82964 0.0
C636 C 0.55476 0.26969 0.85631 0.0
C637 C 0.55599 0.27519 0.87331 0.0
C638 C 0.58052 0.30218 0.88071 0.0
C639 C 0.58084 0.308 0.8966 0.0
C640 C 0.55687 0.28687 0.90525 0.0
C641 C 0.53254 0.25985 0.89803 0.0
C642 C 0.53206 0.25396 0.88212 0.0
C643 C 0.55984 0.18163 0.81024 0.0
C644 C 0.52961 0.15634 0.80922 0.0
C645 C 0.56739 0.20663 0.82017 0.0
C646 C 0.54463 0.20641 0.82894 0.0
C647 C 0.51559 0.1797 0.82938 0.0
C648 C 0.50803 0.15453 0.81947 0.0
C649 C 0.54874 0.23575 0.83458 0.0
C650 C 0.55033 0.24149 0.85058 0.0
C651 C 0.55109 0.25805 0.82391 0.0
C652 C 0.54744 0.2521 0.80677 0.0
C653 C 0.51982 0.22774 0.79965 0.0
C654 C 0.51684 0.22198 0.78357 0.0
C655 C 0.5412 0.24064 0.77445 0.0
C656 C 0.56853 0.2652 0.78138 0.0
C657 C 0.57165 0.27101 0.79747 0.0
H658 H 0.53887 0.23614 0.76201 0.0
H659 H 0.55714 0.29144 0.91756 0.0
H660 H 0.51029 0.94279 0.51641 0.0
H661 H 0.51115 0.89476 0.52079 0.0
H662 H 0.60355 0.93713 0.50548 0.0
H663 H 0.6024 0.9849 0.50081 0.0
H664 H 0.58017 0.88192 0.49555 0.0
H665 H 0.57697 0.91426 0.54794 0.0
H666 H 0.55621 0.92981 0.56933 0.0
H667 H 0.46902 0.84548 0.56199 0.0
H668 H 0.48925 0.82951 0.54053 0.0
H669 H 0.60368 0.75543 0.51741 0.0
H670 H 0.60417 0.80353 0.51387 0.0
H671 H 0.51673 0.76615 0.5344 0.0
H672 H 0.51696 0.71833 0.53897 0.0
H673 H 0.53852 0.81984 0.5418 0.0
H674 H 0.53939 0.78757 0.48913 0.0
H675 H 0.55789 0.77183 0.46682 0.0
H676 H 0.64646 0.85477 0.47347 0.0
H677 H 0.6285 0.87093 0.49585 0.0
C678 C 0.53093 0.94217 0.51391 0.0
C679 C 0.55614 0.96885 0.50806 0.0
C680 C 0.53163 0.91418 0.51665 0.0
C681 C 0.55768 0.91089 0.51385 0.0
C682 C 0.5828 0.9376 0.50792 0.0
C683 C 0.58213 0.96557 0.50521 0.0
C684 C 0.55863 0.88015 0.51669 0.0
C685 C 0.57131 0.86883 0.50585 0.0
C686 C 0.54671 0.86115 0.5298 0.0
C687 C 0.53452 0.87085 0.54257 0.0
C688 C 0.55332 0.89914 0.55084 0.0
C689 C 0.54167 0.908 0.56299 0.0
C690 C 0.51129 0.88868 0.56699 0.0
C691 C 0.49253 0.86043 0.55887 0.0
C692 C 0.50409 0.85144 0.54675 0.0
C693 C 0.58423 0.75665 0.52137 0.0
C694 C 0.56019 0.73085 0.52861 0.0
C695 C 0.58431 0.78508 0.51897 0.0
C696 C 0.56002 0.79001 0.52327 0.0
C697 C 0.53614 0.76449 0.53064 0.0
C698 C 0.5362 0.73613 0.53322 0.0
C699 C 0.55967 0.82118 0.52053 0.0
C700 C 0.54728 0.83274 0.53144 0.0
C701 C 0.57157 0.84025 0.50739 0.0
C702 C 0.58271 0.83025 0.49425 0.0
C703 C 0.56288 0.80231 0.4859 0.0
C704 C 0.57325 0.79336 0.47322 0.0
C705 C 0.60336 0.81224 0.46876 0.0
C706 C 0.62317 0.84014 0.47695 0.0
C707 C 0.6129 0.84922 0.48962 0.0
H708 H 0.61132 0.80529 0.45893 0.0
H709 H 0.50231 0.89558 0.57639 0.0
H710 H 0.6199 0.48712 0.8441 0.0
H711 H 0.66929 0.48809 0.8485 0.0
H712 H 0.71872 0.58626 0.84252 0.0
H713 H 0.66925 0.58526 0.83806 0.0
H714 H 0.75194 0.56669 0.82981 0.0
H715 H 0.71222 0.54501 0.8808 0.0
H716 H 0.67377 0.51617 0.89989 0.0
H717 H 0.67332 0.43304 0.8867 0.0
H718 H 0.71165 0.46137 0.86749 0.0
H719 H 0.9018 0.58583 0.853 0.0
H720 H 0.85387 0.58634 0.84939 0.0
H721 H 0.80347 0.49271 0.86404 0.0
H722 H 0.85174 0.49249 0.86859 0.0
H723 H 0.77039 0.5109 0.87247 0.0
H724 H 0.80622 0.52868 0.82095 0.0
H725 H 0.84155 0.55409 0.80013 0.0
H726 H 0.84661 0.64003 0.81207 0.0
H727 H 0.81138 0.61512 0.83299 0.0
C728 C 0.64113 0.50909 0.84369 0.0
C729 C 0.63937 0.53603 0.84058 0.0
C730 C 0.67004 0.50974 0.84641 0.0
C731 C 0.6993 0.53737 0.8462 0.0
C732 C 0.6975 0.56428 0.84292 0.0
C733 C 0.66858 0.56368 0.84035 0.0
C734 C 0.73113 0.53818 0.84909 0.0
C735 C 0.75578 0.5547 0.83934 0.0
C736 C 0.73757 0.5222 0.86114 0.0
C737 C 0.71459 0.50523 0.87265 0.0
C738 C 0.70379 0.52055 0.88193 0.0
C739 C 0.68207 0.50431 0.89278 0.0
C740 C 0.67107 0.47278 0.89448 0.0
C741 C 0.68185 0.45745 0.88537 0.0
C742 C 0.70361 0.47359 0.87453 0.0
C743 C 0.88098 0.56494 0.85557 0.0
C744 C 0.88273 0.53902 0.8612 0.0
C745 C 0.85246 0.56514 0.85316 0.0
C746 C 0.82306 0.53924 0.85581 0.0
C747 C 0.82467 0.51345 0.86159 0.0
C748 C 0.85326 0.51332 0.86419 0.0
C749 C 0.79139 0.53911 0.85304 0.0
C750 C 0.76674 0.52286 0.86288 0.0
C751 C 0.78474 0.5549 0.84088 0.0
C752 C 0.80651 0.57014 0.82863 0.0
C753 C 0.81509 0.55305 0.8192 0.0
C754 C 0.83502 0.56734 0.80737 0.0
C755 C 0.8464 0.59868 0.80482 0.0
C756 C 0.83783 0.61578 0.81408 0.0
C757 C 0.81785 0.60158 0.82591 0.0
H758 H 0.8618 0.60968 0.79564 0.0
H759 H 0.65424 0.46025 0.90288 0.0
H760 H 0.1811 0.60069 0.17631 0.0
H761 H 0.22987 0.64997 0.18084 0.0
H762 H 0.18 0.69922 0.17647 0.0
H763 H 0.13143 0.65004 0.17165 0.0
H764 H 0.23011 0.73498 0.16453 0.0
H765 H 0.22112 0.68786 0.21454 0.0
H766 H 0.21569 0.64674 0.23202 0.0
H767 H 0.29658 0.65098 0.21484 0.0
H768 H 0.30243 0.69206 0.19727 0.0
H769 H 0.36143 0.88378 0.18927 0.0
H770 H 0.31324 0.8354 0.18514 0.0
H771 H 0.36036 0.78539 0.19671 0.0
H772 H 0.40873 0.83396 0.20147 0.0
H773 H 0.31078 0.74958 0.20507 0.0
H774 H 0.31994 0.7927 0.15442 0.0
H775 H 0.32558 0.83079 0.1349 0.0
H776 H 0.24625 0.83182 0.15073 0.0
H777 H 0.24017 0.79373 0.17034 0.0
C778 C 0.18022 0.62187 0.17627 0.0
C779 C 0.15114 0.62014 0.17345 0.0
C780 C 0.2087 0.65073 0.17911 0.0
C781 C 0.21014 0.67995 0.17945 0.0
C782 C 0.18102 0.67811 0.17646 0.0
C783 C 0.15259 0.64931 0.17368 0.0
C784 C 0.24124 0.71188 0.18251 0.0
C785 C 0.24736 0.73789 0.1736 0.0
C786 C 0.26553 0.71732 0.19395 0.0
C787 C 0.26206 0.6928 0.20454 0.0
C788 C 0.23766 0.67991 0.21447 0.0
C789 C 0.23454 0.65666 0.2244 0.0
C790 C 0.25574 0.64621 0.22451 0.0
C791 C 0.28018 0.65908 0.21475 0.0
C792 C 0.28345 0.68239 0.20483 0.0
C793 C 0.3624 0.8629 0.19089 0.0
C794 C 0.39105 0.86479 0.19576 0.0
C795 C 0.3338 0.83417 0.18825 0.0
C796 C 0.33142 0.80477 0.18995 0.0
C797 C 0.35987 0.80656 0.19502 0.0
C798 C 0.38847 0.83531 0.19781 0.0
C799 C 0.30005 0.77287 0.18694 0.0
C800 C 0.29371 0.74684 0.19594 0.0
C801 C 0.27578 0.76724 0.17537 0.0
C802 C 0.27985 0.7907 0.16394 0.0
C803 C 0.30387 0.80126 0.1538 0.0
C804 C 0.30708 0.82276 0.1427 0.0
C805 C 0.28635 0.83379 0.14161 0.0
C806 C 0.26232 0.82329 0.1516 0.0
C807 C 0.25894 0.80171 0.16269 0.0
H808 H 0.28887 0.85042 0.133 0.0
H809 H 0.25326 0.62817 0.23219 0.0
H810 H 0.60506 0.17997 0.49439 0.0
H811 H 0.60301 0.22702 0.49677 0.0
H812 H 0.52404 0.18075 0.52446 0.0
H813 H 0.52344 0.1324 0.51959 0.0
H814 H 0.51614 0.21994 0.52032 0.0
H815 H 0.62975 0.26289 0.53198 0.0
H816 H 0.68049 0.2704 0.52541 0.0
H817 H 0.66979 0.30229 0.48061 0.0
H818 H 0.61917 0.29517 0.48698 0.0
H819 H 0.53335 0.36617 0.54763 0.0
H820 H 0.53394 0.31832 0.54378 0.0
H821 H 0.58847 0.35528 0.50436 0.0
H822 H 0.58869 0.40344 0.50829 0.0
H823 H 0.60831 0.32261 0.51476 0.0
H824 H 0.49805 0.28717 0.50629 0.0
H825 H 0.44853 0.28088 0.51408 0.0
H826 H 0.45494 0.23596 0.55524 0.0
H827 H 0.50449 0.24203 0.54769 0.0
C828 C 0.58727 0.1797 0.50109 0.0
C829 C 0.56479 0.15136 0.5069 0.0
C830 C 0.58646 0.20785 0.50298 0.0
C831 C 0.5645 0.21064 0.51185 0.0
C832 C 0.54198 0.18178 0.51765 0.0
C833 C 0.54175 0.15325 0.51497 0.0
C834 C 0.56415 0.24214 0.51483 0.0
C835 C 0.53697 0.24196 0.5193 0.0
C836 C 0.59001 0.27292 0.51345 0.0
C837 C 0.62075 0.27829 0.5099 0.0
C838 C 0.63837 0.27163 0.52077 0.0
C839 C 0.66705 0.2758 0.51707 0.0
C840 C 0.67831 0.28674 0.50259 0.0
C841 C 0.66107 0.29385 0.49182 0.0
C842 C 0.63248 0.28991 0.49549 0.0
C843 C 0.54544 0.3647 0.53796 0.0
C844 C 0.56086 0.39063 0.5284 0.0
C845 C 0.54551 0.33624 0.53561 0.0
C846 C 0.56059 0.3311 0.52337 0.0
C847 C 0.57628 0.35702 0.51394 0.0
C848 C 0.57636 0.3855 0.51631 0.0
C849 C 0.56082 0.2999 0.52048 0.0
C850 C 0.58782 0.30028 0.51594 0.0
C851 C 0.53505 0.26946 0.52214 0.0
C852 C 0.50498 0.26518 0.52646 0.0
C853 C 0.48885 0.27595 0.51699 0.0
C854 C 0.4608 0.27243 0.52137 0.0
C855 C 0.44862 0.25807 0.53516 0.0
C856 C 0.46438 0.24705 0.54456 0.0
C857 C 0.49239 0.25044 0.54022 0.0
H858 H 0.42696 0.25546 0.53855 0.0
H859 H 0.70041 0.28972 0.49971 0.0
H860 H 0.48242 0.59305 0.83788 0.0
H861 H 0.43394 0.59238 0.84183 0.0
H862 H 0.38756 0.49385 0.84668 0.0
H863 H 0.43564 0.49444 0.84196 0.0
H864 H 0.34468 0.49907 0.8355 0.0
H865 H 0.41083 0.56341 0.87954 0.0
H866 H 0.45784 0.60752 0.89234 0.0
H867 H 0.44264 0.67062 0.86487 0.0
H868 H 0.39551 0.62685 0.85195 0.0
H869 H 0.206 0.48936 0.8635 0.0
H870 H 0.25383 0.48984 0.8596 0.0
H871 H 0.30034 0.58801 0.85398 0.0
H872 H 0.25296 0.58812 0.8586 0.0
H873 H 0.34284 0.58243 0.86572 0.0
H874 H 0.27596 0.51815 0.82209 0.0
H875 H 0.22939 0.47411 0.80897 0.0
H876 H 0.24589 0.4107 0.8354 0.0
H877 H 0.29251 0.45439 0.84871 0.0
C878 C 0.46204 0.57107 0.83976 0.0
C879 C 0.46428 0.54386 0.83947 0.0
C880 C 0.43363 0.57066 0.84234 0.0
C881 C 0.40542 0.54309 0.84516 0.0
C882 C 0.40776 0.5159 0.84471 0.0
C883 C 0.43603 0.51628 0.84199 0.0
C884 C 0.37398 0.54224 0.84823 0.0
C885 C 0.3448 0.51736 0.84234 0.0
C886 C 0.37192 0.56571 0.85686 0.0
C887 C 0.39989 0.59193 0.86472 0.0
C888 C 0.41759 0.58671 0.87623 0.0
C889 C 0.44421 0.61163 0.88351 0.0
C890 C 0.45326 0.64184 0.87939 0.0
C891 C 0.4356 0.64721 0.86805 0.0
C892 C 0.40889 0.62238 0.86079 0.0
C893 C 0.22596 0.51145 0.86146 0.0
C894 C 0.22348 0.53867 0.86147 0.0
C895 C 0.2542 0.51159 0.85892 0.0
C896 C 0.28232 0.53886 0.8559 0.0
C897 C 0.28007 0.56611 0.85609 0.0
C898 C 0.25191 0.56605 0.85874 0.0
C899 C 0.31358 0.53937 0.85292 0.0
C900 C 0.34272 0.56413 0.85887 0.0
C901 C 0.31555 0.51576 0.84436 0.0
C902 C 0.28752 0.48952 0.83647 0.0
C903 C 0.26955 0.49481 0.82515 0.0
C904 C 0.24318 0.46992 0.81767 0.0
C905 C 0.23465 0.43963 0.82138 0.0
C906 C 0.25252 0.43417 0.83255 0.0
C907 C 0.27894 0.45898 0.84004 0.0
H908 H 0.21423 0.4204 0.81558 0.0
H909 H 0.47393 0.6611 0.885 0.0
H910 H 0.991 0.4267 0.18936 0.0
H911 H 0.94436 0.37939 0.19507 0.0
H912 H 0.89087 0.40304 0.16297 0.0
H913 H 0.93741 0.45232 0.1589 0.0
H914 H 0.85077 0.37104 0.17647 0.0
H915 H 0.91721 0.32872 0.1645 0.0
H916 H 0.96302 0.32224 0.16742 0.0
H917 H 0.94968 0.30656 0.21602 0.0
H918 H 0.90382 0.31292 0.21335 0.0
H919 H 0.7153 0.21822 0.17413 0.0
H920 H 0.763 0.26511 0.16971 0.0
H921 H 0.80719 0.25109 0.21052 0.0
H922 H 0.75941 0.20331 0.21491 0.0
H923 H 0.85099 0.27696 0.19344 0.0
H924 H 0.7794 0.31467 0.20243 0.0
H925 H 0.73198 0.31757 0.19683 0.0
H926 H 0.75506 0.33877 0.14952 0.0
H927 H 0.80245 0.33582 0.15484 0.0
C928 C 0.96933 0.42204 0.18345 0.0
C929 C 0.96917 0.44449 0.17348 0.0
C930 C 0.9418 0.39371 0.18651 0.0
C931 C 0.91202 0.38469 0.17919 0.0
C932 C 0.91214 0.40746 0.16917 0.0
C933 C 0.93952 0.4364 0.16662 0.0
C934 C 0.88119 0.35308 0.18209 0.0
C935 C 0.85166 0.35069 0.17983 0.0
C936 C 0.87959 0.32485 0.18708 0.0
C937 C 0.90744 0.32174 0.18876 0.0
C938 C 0.92422 0.32409 0.17581 0.0
C939 C 0.95012 0.32036 0.17742 0.0
C940 C 0.95933 0.31413 0.19191 0.0
C941 C 0.94258 0.31147 0.20481 0.0
C942 C 0.91662 0.31509 0.20326 0.0
C943 C 0.73457 0.22462 0.18252 0.0
C944 C 0.73139 0.20523 0.1952 0.0
C945 C 0.76278 0.25262 0.17994 0.0
C946 C 0.79017 0.26399 0.18993 0.0
C947 C 0.78739 0.24441 0.2024 0.0
C948 C 0.75916 0.21624 0.20497 0.0
C949 C 0.8212 0.29521 0.18733 0.0
C950 C 0.85057 0.29748 0.18984 0.0
C951 C 0.82267 0.32305 0.1821 0.0
C952 C 0.79424 0.32476 0.179 0.0
C953 C 0.77424 0.31982 0.19083 0.0
C954 C 0.74741 0.3215 0.18771 0.0
C955 C 0.74047 0.32827 0.17282 0.0
C956 C 0.76042 0.33349 0.16104 0.0
C957 C 0.78727 0.33187 0.16411 0.0
H958 H 0.71968 0.32952 0.17042 0.0
H959 H 0.97939 0.31127 0.19313 0.0
H960 H 0.08784 0.50679 0.11589 0.0
H961 H 0.08747 0.50538 0.08739 0.0
H962 H 1.03447 0.55176 0.08487 0.0
H963 H 1.03428 0.55274 0.11312 0.0
H964 H 1.01188 0.50798 0.06303 0.0
H965 H 0.11544 0.58921 0.07933 0.0
H966 H 0.16582 0.61019 0.09428 0.0
H967 H 0.18205 0.54364 0.07145 0.0
H968 H 0.13158 0.52204 0.05649 0.0
H969 H 1.02957 0.55214 0.98448 0.0
H970 H 1.0308 0.55113 0.0128 0.0
H971 H 0.08899 0.51042 0.01269 0.0
H972 H 0.08826 0.51188 0.9843 0.0
H973 H 0.10897 0.54923 0.03597 0.0
H974 H 1.00716 0.46823 0.01941 0.0
H975 H 0.95592 0.44441 0.00509 0.0
H976 H 0.93531 0.50694 0.02882 0.0
H977 H 0.98661 0.5314 0.04315 0.0
C978 C 0.0761 0.51669 0.10928 0.0
C979 C 0.06123 0.52999 0.11699 0.0
C980 C 0.07602 0.51603 0.0929 0.0
C981 C 0.06125 0.52882 0.08373 0.0
C982 C 0.04611 0.54173 0.09146 0.0
C983 C 0.04618 0.5424 0.10776 0.0
C984 C 0.0614 0.52893 0.06618 0.0
C985 C 1.03322 0.51737 0.05717 0.0
C986 C 0.08896 0.54031 0.05825 0.0
C987 C 0.11968 0.5539 0.06687 0.0
C988 C 0.12973 0.57902 0.07753 0.0
C989 C 0.15829 0.59101 0.08601 0.0
C990 C 0.1771 0.57822 0.08384 0.0
C991 C 0.16745 0.55352 0.07312 0.0
C992 C 0.1389 0.54142 0.06462 0.0
C993 C 0.04244 0.54267 0.9904 0.0
C994 C 0.0586 0.53188 0.98184 0.0
C995 C 0.0431 0.54205 0.00674 0.0
C996 C 0.05949 0.5301 0.01519 0.0
C997 C 0.07606 0.51975 0.00669 0.0
C998 C 0.07565 0.52064 0.99032 0.0
C999 C 0.05939 0.52849 0.03276 0.0
C1000 C 0.08759 0.53978 0.04179 0.0
C1001 C 1.03178 0.5166 0.04073 0.0
C1002 C 1.00084 0.50183 0.03223 0.0
C1003 C 0.99177 0.47702 0.0215 0.0
C1004 C 0.96271 0.46339 0.0134 0.0
C1005 C 0.94241 0.47421 0.01602 0.0
C1006 C 0.95108 0.49861 0.02679 0.0
C1007 C 0.98014 0.51235 0.03492 0.0
H1008 H 0.91993 0.46364 0.00972 0.0
H1009 H 0.19916 0.58748 0.09044 0.0
H1010 H 0.5228 1.01502 0.44835 0.0
H1011 H 0.52408 1.0138 0.41999 0.0
H1012 H 0.60449 0.10497 0.42259 0.0
H1013 H 0.60395 0.10599 0.45114 0.0
H1014 H 0.55361 0.09355 0.39803 0.0
H1015 H 0.61851 0.05307 0.41579 0.0
H1016 H 0.63086 1.01846 0.43085 0.0
H1017 H 0.55521 0.93945 0.40629 0.0
H1018 H 0.54205 0.97362 0.39127 0.0
H1019 H 0.59283 0.09928 0.31956 0.0
H1020 H 0.59369 0.1019 0.34781 0.0
H1021 H 0.53545 1.0029 0.34801 0.0
H1022 H 0.53589 0.99988 0.31971 0.0
H1023 H 0.57519 1.01879 0.37154 0.0
H1024 H 0.50901 0.05712 0.35402 0.0
H1025 H 0.4941 0.09016 0.33917 0.0
H1026 H 0.56838 0.17099 0.36323 0.0
H1027 H 0.58401 0.13844 0.37807 0.0
C1028 C 0.54086 0.0349 0.44296 0.0
C1029 C 0.56336 0.06059 0.45224 0.0
C1030 C 0.54154 0.03414 0.42664 0.0
C1031 C 0.56435 0.05928 0.41894 0.0
C1032 C 0.58654 0.08524 0.42811 0.0
C1033 C 0.58629 0.08574 0.44452 0.0
C1034 C 0.56529 0.058 0.40143 0.0
C1035 C 0.55879 0.07751 0.39227 0.0
C1036 C 0.57106 0.03649 0.39367 0.0
C1037 C 0.57906 1.01589 0.40255 0.0
C1038 C 0.60431 0.0283 0.41371 0.0
C1039 C 0.6115 1.00877 0.42222 0.0
C1040 C 0.59377 0.97677 0.41957 0.0
C1041 C 0.56888 0.96425 0.40836 0.0
C1042 C 0.56155 0.98369 0.39984 0.0
C1043 C 0.58043 0.07787 0.3255 0.0
C1044 C 0.56423 0.04932 0.31697 0.0
C1045 C 0.58058 0.07948 0.34184 0.0
C1046 C 0.56415 0.05269 0.35038 0.0
C1047 C 0.54825 1.02411 0.34194 0.0
C1048 C 0.54823 1.02245 0.32557 0.0
C1049 C 0.56361 0.05448 0.36798 0.0
C1050 C 0.57005 0.03494 0.37721 0.0
C1051 C 0.55741 0.07574 0.37579 0.0
C1052 C 0.54785 0.09536 0.36705 0.0
C1053 C 0.52227 0.08195 0.35608 0.0
C1054 C 0.51368 0.10059 0.34767 0.0
C1055 C 0.53033 0.13266 0.35023 0.0
C1056 C 0.55553 0.14614 0.36124 0.0
C1057 C 0.56425 0.12761 0.36967 0.0
H1058 H 0.52366 0.14705 0.3437 0.0
H1059 H 0.59937 0.96168 0.42617 0.0
H1060 H 0.5728 0.59628 0.78373 0.0
H1061 H 0.57482 0.59938 0.75543 0.0
H1062 H 0.52812 0.49995 0.75079 0.0
H1063 H 0.52687 0.49679 0.77901 0.0
H1064 H 0.57106 0.52152 0.73149 0.0
H1065 H 0.49199 0.54599 0.74206 0.0
H1066 H 0.47128 0.5751 0.7551 0.0
H1067 H 0.54052 0.65927 0.73633 0.0
H1068 H 0.56187 0.6307 0.72333 0.0
H1069 H 0.5324 0.50638 0.64982 0.0
H1070 H 0.53099 0.50471 0.67808 0.0
H1071 H 0.57773 0.6042 0.68151 0.0
H1072 H 0.57918 0.60607 0.65324 0.0
H1073 H 0.53549 0.58346 0.70146 0.0
H1074 H 0.61463 0.56007 0.69093 0.0
H1075 H 0.63705 0.53217 0.67831 0.0
H1076 H 0.56958 0.44733 0.69733 0.0
H1077 H 0.54651 0.47468 0.7099 0.0
C1078 C 0.5628 0.57503 0.77671 0.0
C1079 C 0.5495 0.54628 0.78385 0.0
C1080 C 0.56384 0.57681 0.7604 0.0
C1081 C 0.5512 0.54988 0.75065 0.0
C1082 C 0.53807 0.5212 0.75782 0.0
C1083 C 0.53722 0.51942 0.77409 0.0
C1084 C 0.55179 0.55137 0.7331 0.0
C1085 C 0.56284 0.53476 0.72497 0.0
C1086 C 0.54193 0.5692 0.72432 0.0
C1087 C 0.52865 0.58625 0.73182 0.0
C1088 C 0.50285 0.57073 0.74076 0.0
C1089 C 0.49101 0.58713 0.74814 0.0
C1090 C 0.50461 0.61902 0.74657 0.0
C1091 C 0.53001 0.63457 0.73755 0.0
C1092 C 0.54197 0.61828 0.73015 0.0
C1093 C 0.54275 0.52803 0.65652 0.0
C1094 C 0.55607 0.55638 0.64895 0.0
C1095 C 0.54189 0.52703 0.67283 0.0
C1096 C 0.55468 0.55435 0.68225 0.0
C1097 C 0.56763 0.58266 0.67473 0.0
C1098 C 0.56837 0.58368 0.65841 0.0
C1099 C 0.5546 0.55346 0.69984 0.0
C1100 C 0.54367 0.57018 0.70798 0.0
C1101 C 0.5647 0.53583 0.70864 0.0
C1102 C 0.57867 0.51937 0.70123 0.0
C1103 C 0.60447 0.53543 0.69234 0.0
C1104 C 0.6173 0.51972 0.6852 0.0
C1105 C 0.6047 0.48798 0.68698 0.0
C1106 C 0.57929 0.47191 0.69594 0.0
C1107 C 0.56634 0.48751 0.70309 0.0
H1108 H 0.61466 0.47586 0.68144 0.0
H1109 H 0.49545 0.63169 0.75232 0.0
H1110 H 0.51579 0.06219 0.5503 0.0
H1111 H 0.51185 0.05721 0.57829 0.0
H1112 H 0.59477 0.05076 0.58233 0.0
H1113 H 0.59841 0.05488 0.55415 0.0
H1114 H 0.55012 1.0072 0.59824 0.0
H1115 H 0.59533 0.11718 0.59411 0.0
H1116 H 0.5988 0.1644 0.58348 0.0
H1117 H 0.50973 0.13886 0.59959 0.0
H1118 H 0.50555 0.09128 0.61014 0.0
H1119 H 0.56587 1.01829 0.67986 0.0
H1120 H 0.57629 0.03127 0.65276 0.0
H1121 H 0.49237 0.03553 0.64634 0.0
H1122 H 0.4819 1.02272 0.67353 0.0
H1123 H 0.53977 0.08181 0.63197 0.0
H1124 H 0.49265 0.9715 0.63467 0.0
H1125 H 0.48717 0.92324 0.64497 0.0
H1126 H 0.57772 0.94839 0.63119 0.0
H1127 H 0.5839 0.99702 0.62098 0.0
C1128 C 0.53332 0.05991 0.55715 0.0
C1129 C 0.55741 0.05891 0.55007 0.0
C1130 C 0.53111 0.05722 0.57315 0.0
C1131 C 0.55327 0.05407 0.58239 0.0
C1132 C 0.5775 0.05327 0.57537 0.0
C1133 C 0.57956 0.05566 0.55931 0.0
C1134 C 0.55036 0.05038 0.59929 0.0
C1135 C 0.54844 1.0238 0.60567 0.0
C1136 C 0.54726 0.07162 0.60885 0.0
C1137 C 0.55005 0.10057 0.60283 0.0
C1138 C 0.57643 0.12157 0.59533 0.0
C1139 C 0.57853 0.14841 0.58932 0.0
C1140 C 0.55448 0.1546 0.59083 0.0
C1141 C 0.52834 0.13403 0.59842 0.0
C1142 C 0.52612 0.10716 0.60444 0.0
C1143 C 0.54964 1.02195 0.67265 0.0
C1144 C 0.52284 1.01903 0.67866 0.0
C1145 C 0.55566 0.02945 0.65723 0.0
C1146 C 0.5348 0.03379 0.64754 0.0
C1147 C 0.50866 0.03215 0.65367 0.0
C1148 C 0.50272 1.02482 0.66915 0.0
C1149 C 0.53963 0.03873 0.63086 0.0
C1150 C 0.54177 0.06542 0.62453 0.0
C1151 C 0.54273 1.0175 0.62131 0.0
C1152 C 0.53885 0.98801 0.62718 0.0
C1153 C 0.51146 0.96681 0.63391 0.0
C1154 C 0.50822 0.93939 0.63973 0.0
C1155 C 0.53211 0.93278 0.63877 0.0
C1156 C 0.55925 0.95355 0.63194 0.0
C1157 C 0.56262 0.98103 0.62612 0.0
H1158 H 0.52957 0.91156 0.64329 0.0
H1159 H 0.55611 0.17535 0.58615 0.0
H1160 H 0.56983 0.50019 0.88312 0.0
H1161 H 0.56692 0.49476 0.91118 0.0
H1162 H 0.53282 0.55856 0.91341 0.0
H1163 H 0.53679 0.565 0.88535 0.0
H1164 H 0.5727 0.56887 0.93746 0.0
H1165 H 0.48303 0.48014 0.91402 0.0
H1166 H 0.45507 0.43523 0.89562 0.0
H1167 H 0.50394 0.39319 0.91679 0.0
H1168 H 0.53252 0.43806 0.93519 0.0
H1169 H 0.53034 0.52595 0.01484 0.0
H1170 H 0.52472 0.53293 0.98701 0.0
H1171 H 0.56344 0.47521 0.9769 0.0
H1172 H 0.56783 0.46703 0.00455 0.0
H1173 H 0.51508 0.46268 0.95693 0.0
H1174 H 0.60789 0.55444 0.97874 0.0
H1175 H 0.63545 0.59959 0.99704 0.0
H1176 H 0.57869 0.63571 0.97898 0.0
H1177 H 0.55052 0.59053 0.96071 0.0
C1178 C 0.56182 0.51314 0.8896 0.0
C1179 C 0.55321 0.53273 0.88206 0.0
C1180 C 0.56006 0.50995 0.90561 0.0
C1181 C 0.54895 0.5257 0.9143 0.0
C1182 C 0.54127 0.54606 0.90688 0.0
C1183 C 0.54349 0.54965 0.89087 0.0
C1184 C 0.54485 0.52032 0.93108 0.0
C1185 C 0.55966 0.5457 0.94171 0.0
C1186 C 0.52792 0.49007 0.93662 0.0
C1187 C 0.51005 0.46256 0.92591 0.0
C1188 C 0.48788 0.46136 0.91472 0.0
C1189 C 0.47194 0.43592 0.90429 0.0
C1190 C 0.47778 0.41141 0.90501 0.0
C1191 C 0.49945 0.4122 0.91624 0.0
C1192 C 0.51549 0.43761 0.92669 0.0
C1193 C 0.53721 0.51439 0.00666 0.0
C1194 C 0.54992 0.49626 0.01186 0.0
C1195 C 0.5342 0.51858 0.9908 0.0
C1196 C 0.54412 0.50496 0.97996 0.0
C1197 C 0.5558 0.48604 0.98511 0.0
C1198 C 0.55863 0.48169 1.0009 0.0
C1199 C 0.54357 0.51112 0.96326 0.0
C1200 C 0.52778 0.48586 0.95264 0.0
C1201 C 0.55942 0.54147 0.95777 0.0
C1202 C 0.57693 0.569 0.96846 0.0
C1203 C 0.60122 0.57195 0.97872 0.0
C1204 C 0.61694 0.59754 0.98908 0.0
C1205 C 0.60878 0.62047 0.9892 0.0
C1206 C 0.58496 0.61792 0.97889 0.0
C1207 C 0.56913 0.59234 0.96852 0.0
H1208 H 0.62094 0.64024 0.99725 0.0
H1209 H 0.46549 0.39178 0.89689 0.0
H1210 H 1.00752 0.5028 0.21465 0.0
H1211 H 1.00531 0.50366 0.24284 0.0
H1212 H 0.10391 0.567 0.24799 0.0
H1213 H 0.10644 0.56458 0.2197 0.0
H1214 H 0.08736 0.52833 0.27073 0.0
H1215 H 0.05011 0.59234 0.24842 0.0
H1216 H 1.01759 0.60314 0.22991 0.0
H1217 H 0.93564 0.53167 0.24899 0.0
H1218 H 0.96765 0.52012 0.26746 0.0
H1219 H 0.07748 0.5729 0.34817 0.0
H1220 H 0.08712 0.57506 0.32058 0.0
H1221 H 0.991 0.50739 0.3095 0.0
H1222 H 0.98084 0.50636 0.33684 0.0
H1223 H 1.01069 0.5535 0.29009 0.0
H1224 H 0.04853 0.48809 0.31154 0.0
H1225 H 0.08138 0.47761 0.32998 0.0
H1226 H 0.16293 0.55348 0.31291 0.0
H1227 H 0.13053 0.56466 0.2945 0.0
C1228 C 1.02872 0.51675 0.22182 0.0
C1229 C 0.05707 0.53404 0.2151 0.0
C1230 C 1.02745 0.5173 0.2379 0.0
C1231 C 0.0543 0.53616 0.24747 0.0
C1232 C 0.08288 0.5525 0.2408 0.0
C1233 C 0.0843 0.55123 0.22469 0.0
C1234 C 0.05212 0.53978 0.26432 0.0
C1235 C 0.07092 0.53426 0.27497 0.0
C1236 C 1.03055 0.5474 0.26986 0.0
C1237 C 1.01129 0.55525 0.25925 0.0
C1238 C 1.02515 0.57891 0.24865 0.0
C1239 C 1.00681 0.58513 0.23815 0.0
C1240 C 0.97457 0.56805 0.23825 0.0
C1241 C 0.96061 0.54486 0.24892 0.0
C1242 C 0.97884 0.5385 0.25942 0.0
C1243 C 0.05835 0.55873 0.33982 0.0
C1244 C 1.02841 0.53927 0.34466 0.0
C1245 C 0.06397 0.55978 0.32411 0.0
C1246 C 0.03983 0.54107 0.31307 0.0
C1247 C 1.00994 0.5219 0.31787 0.0
C1248 C 1.00426 0.52106 0.33351 0.0
C1249 C 0.04534 0.5413 0.29644 0.0
C1250 C 1.02728 0.54777 0.28584 0.0
C1251 C 0.06766 0.53473 0.291 0.0
C1252 C 0.08711 0.52735 0.30172 0.0
C1253 C 0.07347 0.5026 0.31176 0.0
C1254 C 0.092 0.49654 0.32221 0.0
C1255 C 0.12422 0.5149 0.32264 0.0
C1256 C 0.13797 0.53928 0.31257 0.0
C1257 C 0.11954 0.54547 0.30211 0.0
H1258 H 0.13852 0.51022 0.33076 0.0
H1259 H 0.96041 0.5728 0.23006 0.0
loop_
_geom_bond_atom_site_label_1
_geom_bond_atom_site_label_2
_geom_bond_distance
_geom_bond_site_symmetry_2
_ccdc_geom_bond_type
Tb0 C10 2.825 . S
Tb0 O11 2.347 . S
Tb0 O14 2.366 . S
Tb0 O19 2.418 . S
Tb0 O20 2.384 1_455 S
Tb0 O23 2.479 . S
Tb0 O24 2.471 . S
Eu1 O12 2.410 1_655 S
Eu1 O13 2.362 1_655 S
Eu1 O16 2.503 . S
Eu1 O17 2.493 . S
Eu1 O18 2.335 1_655 S
Eu1 O21 2.370 . S
Eu1 C31 2.851 . S
C2 O18 1.259 . S
C2 O19 1.265 . S
C3 O20 1.255 . S
C3 O21 1.265 . S
C4 C6 1.380 . S
C4 C7 1.374 . S
C4 C10 1.507 . S
C5 C6 1.384 . S
C5 C9 1.387 . S
C5 H32 0.930 . S
C6 C4 1.380 . S
C6 C5 1.384 . S
C6 H33 0.931 . S
C7 C4 1.374 . S
C7 C8 1.390 . S
C7 H34 0.930 . S
C8 C7 1.390 . S
C8 C9 1.391 . S
C8 H35 0.930 . S
C9 C5 1.387 . S
C9 C8 1.391 . S
C10 Tb0 2.825 . S
C10 C4 1.507 . S
C10 O23 1.238 . S
C10 O24 1.247 . S
O11 Tb0 2.347 . S
O11 C15 1.259 . S
O12 Eu1 2.410 1_455 S
O12 C15 1.276 . S
O13 Eu1 2.362 1_455 S
O13 C22 1.255 . S
O14 Tb0 2.366 . S
O14 C22 1.265 . S
C15 O11 1.259 . S
C15 O12 1.276 . S
O16 Eu1 2.503 . S
O16 C31 1.238 . S
O17 Eu1 2.493 . S
O17 C31 1.247 . S
O18 Eu1 2.335 1_455 S
O18 C2 1.259 . S
O19 Tb0 2.418 . S
O19 C2 1.265 . S
O20 Tb0 2.384 1_655 S
O20 C3 1.255 . S
O21 Eu1 2.370 . S
O21 C3 1.265 . S
C22 O13 1.255 . S
C22 O14 1.265 . S
O23 Tb0 2.479 . S
O23 C10 1.238 . S
O24 Tb0 2.471 . S
O24 C10 1.247 . S
C25 C28 1.380 . S
C25 C29 1.374 . S
C25 C31 1.507 . S
C26 C27 1.387 . S
C26 C30 1.391 . S
C27 C26 1.387 . S
C27 C28 1.384 . S
C27 H36 0.930 . S
C28 C25 1.380 . S
C28 C27 1.384 . S
C28 H37 0.931 . S
C29 C25 1.374 . S
C29 C30 1.390 . S
C29 H38 0.930 . S
C30 C26 1.391 . S
C30 C29 1.390 . S
C30 H39 0.930 . S
C31 Eu1 2.851 . S
C31 O16 1.238 . S
C31 O17 1.247 . S
C31 C25 1.507 . S
H32 C5 0.930 . S
H33 C6 0.931 . S
H34 C7 0.930 . S
H35 C8 0.930 . S
H36 C27 0.930 . S
H37 C28 0.931 . S
H38 C29 0.930 . S
H39 C30 0.930 . S
Tb40 C50 2.825 . S
Tb40 O51 2.347 . S
Tb40 O54 2.366 . S
Tb40 O59 2.418 . S
Tb40 O60 2.384 . S
Tb40 O63 2.479 . S
Tb40 O64 2.471 . S
Eu41 O52 2.418 . S
Eu41 O53 2.384 . S
Eu41 O56 2.479 1_545 S
Eu41 O57 2.471 1_545 S
Eu41 O58 2.347 . S
Eu41 O61 2.366 1_545 S
Eu41 C71 2.825 1_545 S
C42 O58 1.259 . S
C42 O59 1.265 . S
C43 O60 1.255 1_565 S
C43 O61 1.265 . S
C44 C46 1.380 . S
C44 C47 1.374 . S
C44 C50 1.507 . S
C45 C46 1.384 . S
C45 C49 1.387 . S
C45 H72 0.930 . S
C46 C44 1.380 . S
C46 C45 1.384 . S
C46 H73 0.931 . S
C47 C44 1.374 . S
C47 C48 1.390 . S
C47 H74 0.930 . S
C48 C47 1.390 . S
C48 C49 1.391 . S
C48 H75 0.930 . S
C49 C45 1.387 . S
C49 C48 1.391 . S
C50 Tb40 2.825 . S
C50 C44 1.507 . S
C50 O63 1.238 . S
C50 O64 1.247 . S
O51 Tb40 2.347 . S
O51 C55 1.259 . S
O52 Eu41 2.418 . S
O52 C55 1.265 . S
O53 Eu41 2.384 . S
O53 C62 1.255 . S
O54 Tb40 2.366 . S
O54 C62 1.265 . S
C55 O51 1.259 . S
C55 O52 1.265 . S
O56 Eu41 2.479 1_565 S
O56 C71 1.238 . S
O57 Eu41 2.471 1_565 S
O57 C71 1.247 . S
O58 Eu41 2.347 . S
O58 C42 1.259 . S
O59 Tb40 2.418 . S
O59 C42 1.265 . S
O60 Tb40 2.384 . S
O60 C43 1.255 1_545 S
O61 Eu41 2.366 1_565 S
O61 C43 1.265 . S
C62 O53 1.255 . S
C62 O54 1.265 . S
O63 Tb40 2.479 . S
O63 C50 1.238 . S
O64 Tb40 2.471 . S
O64 C50 1.247 . S
C65 C68 1.380 . S
C65 C69 1.374 . S
C65 C71 1.507 . S
C66 C67 1.387 . S
C66 C70 1.391 . S
C67 C66 1.387 . S
C67 C68 1.384 . S
C67 H76 0.930 . S
C68 C65 1.380 . S
C68 C67 1.384 . S
C68 H77 0.931 . S
C69 C65 1.374 . S
C69 C70 1.390 . S
C69 H78 0.930 . S
C70 C66 1.391 . S
C70 C69 1.390 . S
C70 H79 0.930 . S
C71 Eu41 2.825 1_565 S
C71 O56 1.238 . S
C71 O57 1.247 . S
C71 C65 1.507 . S
H72 C45 0.930 . S
H73 C46 0.931 . S
H74 C47 0.930 . S
H75 C48 0.930 . S
H76 C67 0.930 . S
H77 C68 0.931 . S
H78 C69 0.930 . S
H79 C70 0.930 . S
Tb80 C90 2.825 . S
Tb80 O91 2.347 . S
Tb80 O94 2.366 . S
Tb80 O99 2.418 . S
Tb80 O100 2.384 . S
Tb80 O103 2.479 . S
Tb80 O104 2.471 . S
Eu81 O92 2.418 . S
Eu81 O93 2.384 . S
Eu81 O96 2.479 . S
Eu81 O97 2.471 . S
Eu81 O98 2.347 . S
Eu81 O101 2.366 . S
Eu81 C111 2.825 . S
C82 O98 1.259 . S
C82 O99 1.265 . S
C83 O100 1.255 . S
C83 O101 1.265 . S
C84 C86 1.380 . S
C84 C87 1.374 . S
C84 C90 1.507 . S
C85 C86 1.384 . S
C85 C89 1.387 . S
C85 H112 0.930 . S
C86 C84 1.380 . S
C86 C85 1.384 . S
C86 H113 0.931 . S
C87 C84 1.374 . S
C87 C88 1.390 . S
C87 H114 0.930 . S
C88 C87 1.390 . S
C88 C89 1.391 . S
C88 H115 0.930 . S
C89 C85 1.387 . S
C89 C88 1.391 . S
C90 Tb80 2.825 . S
C90 C84 1.507 . S
C90 O103 1.238 . S
C90 O104 1.247 . S
O91 Tb80 2.347 . S
O91 C95 1.259 . S
O92 Eu81 2.418 . S
O92 C95 1.265 . S
O93 Eu81 2.384 . S
O93 C102 1.255 . S
O94 Tb80 2.366 . S
O94 C102 1.265 . S
C95 O91 1.259 . S
C95 O92 1.265 . S
O96 Eu81 2.479 . S
O96 C111 1.238 . S
O97 Eu81 2.471 . S
O97 C111 1.247 . S
O98 Eu81 2.347 . S
O98 C82 1.259 . S
O99 Tb80 2.418 . S
O99 C82 1.265 . S
O100 Tb80 2.384 . S
O100 C83 1.255 . S
O101 Eu81 2.366 . S
O101 C83 1.265 . S
C102 O93 1.255 . S
C102 O94 1.265 . S
O103 Tb80 2.479 . S
O103 C90 1.238 . S
O104 Tb80 2.471 . S
O104 C90 1.247 . S
C105 C108 1.380 . S
C105 C109 1.374 . S
C105 C111 1.507 . S
C106 C107 1.387 . S
C106 C110 1.391 . S
C107 C106 1.387 . S
C107 C108 1.384 . S
C107 H116 0.930 . S
C108 C105 1.380 . S
C108 C107 1.384 . S
C108 H117 0.931 . S
C109 C105 1.374 . S
C109 C110 1.390 . S
C109 H118 0.930 . S
C110 C106 1.391 . S
C110 C109 1.390 . S
C110 H119 0.930 . S
C111 Eu81 2.825 . S
C111 O96 1.238 . S
C111 O97 1.247 . S
C111 C105 1.507 . S
H112 C85 0.930 . S
H113 C86 0.931 . S
H114 C87 0.930 . S
H115 C88 0.930 . S
H116 C107 0.930 . S
H117 C108 0.931 . S
H118 C109 0.930 . S
H119 C110 0.930 . S
C120 C121 1.264 . S
C120 C125 1.479 . S
C120 C130 1.465 . S
C121 C120 1.264 . S
C121 C123 1.339 . S
C121 H148 0.931 . S
C122 C123 1.395 . S
C122 C124 1.320 . S
C123 C121 1.339 . S
C123 C122 1.395 . S
C123 H149 0.929 . S
C124 C122 1.320 . S
C124 C125 1.405 . S
C124 H150 0.930 . S
C125 C120 1.479 . S
C125 C124 1.405 . S
C125 H151 0.931 . S
U126 O127 2.454 1_545 S
U126 O128 2.458 1_545 S
U126 C129 2.984 1_545 S
U126 C130 2.847 . S
U126 C143 2.882 . S
U126 O144 2.441 . S
U126 O145 2.420 . S
U126 O146 2.455 . S
U126 O147 2.449 . S
O127 U126 2.454 1_565 S
O127 C129 1.353 . S
O128 U126 2.458 1_565 S
O128 C129 1.286 . S
C129 U126 2.984 1_565 S
C129 O127 1.353 . S
C129 O128 1.286 . S
C129 C131 1.363 . S
C130 C120 1.465 . S
C130 U126 2.847 . S
C130 O144 1.249 . S
C130 O145 1.202 . S
C131 C129 1.363 . S
C131 C133 1.408 . S
C131 C136 1.342 . S
C132 C133 1.310 . S
C132 C135 1.461 . S
C132 H152 0.932 . S
C133 C131 1.408 . S
C133 C132 1.310 . S
C133 H153 0.930 . S
C134 C135 1.474 . S
C134 C136 1.285 . S
C134 H154 0.929 . S
C135 C132 1.461 . S
C135 C134 1.474 . S
C136 C131 1.342 . S
C136 C134 1.285 . S
C136 H155 0.930 . S
C137 C140 1.424 . S
C137 C142 1.245 . S
C137 C143 1.428 . S
C138 C141 1.260 . S
C138 C142 1.477 . S
C138 H156 0.932 1_545 S
C139 C140 1.384 . S
C139 C141 1.479 . S
C139 H157 0.929 . S
C140 C137 1.424 . S
C140 C139 1.384 . S
C140 H158 0.928 . S
C141 C138 1.260 . S
C141 C139 1.479 . S
C142 C137 1.245 . S
C142 C138 1.477 . S
C142 H159 0.932 1_545 S
C143 U126 2.882 . S
C143 C137 1.428 . S
C143 O146 1.301 . S
C143 O147 1.282 . S
O144 U126 2.441 . S
O144 C130 1.249 . S
O145 U126 2.420 . S
O145 C130 1.202 . S
O146 U126 2.455 . S
O146 C143 1.301 . S
O147 U126 2.449 . S
O147 C143 1.282 . S
H148 C121 0.931 . S
H149 C123 0.929 . S
H150 C124 0.930 . S
H151 C125 0.931 . S
H152 C132 0.932 . S
H153 C133 0.930 . S
H154 C134 0.929 . S
H155 C136 0.930 . S
H156 C138 0.932 1_565 S
H157 C139 0.929 . S
H158 C140 0.928 . S
H159 C142 0.932 1_565 S
C160 C161 1.264 . S
C160 C165 1.479 . S
C160 C170 1.465 . S
C161 C160 1.264 . S
C161 C163 1.339 . S
C161 H188 0.931 . S
C162 C163 1.395 . S
C162 C164 1.320 . S
C163 C161 1.339 . S
C163 C162 1.395 . S
C163 H189 0.929 . S
C164 C162 1.320 . S
C164 C165 1.405 . S
C164 H190 0.930 . S
C165 C160 1.479 . S
C165 C164 1.405 . S
C165 H191 0.931 . S
U166 O167 2.454 . S
U166 O168 2.458 . S
U166 C169 2.984 . S
U166 C170 2.847 . S
U166 C183 2.882 . S
U166 O184 2.441 . S
U166 O185 2.420 . S
U166 O186 2.455 . S
U166 O187 2.449 . S
O167 U166 2.454 . S
O167 C169 1.353 . S
O168 U166 2.458 . S
O168 C169 1.286 . S
C169 U166 2.984 . S
C169 O167 1.353 . S
C169 O168 1.286 . S
C169 C171 1.363 . S
C170 C160 1.465 . S
C170 U166 2.847 . S
C170 O184 1.249 . S
C170 O185 1.202 . S
C171 C169 1.363 . S
C171 C173 1.408 . S
C171 C176 1.342 . S
C172 C173 1.310 . S
C172 C175 1.461 . S
C172 H192 0.932 . S
C173 C171 1.408 . S
C173 C172 1.310 . S
C173 H193 0.930 . S
C174 C175 1.474 . S
C174 C176 1.285 . S
C174 H194 0.929 . S
C175 C172 1.461 . S
C175 C174 1.474 . S
C176 C171 1.342 . S
C176 C174 1.285 . S
C176 H195 0.930 . S
C177 C180 1.424 . S
C177 C182 1.245 . S
C177 C183 1.428 . S
C178 C181 1.260 . S
C178 C182 1.477 . S
C178 H196 0.932 . S
C179 C180 1.384 . S
C179 C181 1.479 . S
C179 H197 0.929 . S
C180 C177 1.424 . S
C180 C179 1.384 . S
C180 H198 0.928 . S
C181 C178 1.260 . S
C181 C179 1.479 . S
C182 C177 1.245 . S
C182 C178 1.477 . S
C182 H199 0.932 . S
C183 U166 2.882 . S
C183 C177 1.428 . S
C183 O186 1.301 . S
C183 O187 1.282 . S
O184 U166 2.441 . S
O184 C170 1.249 . S
O185 U166 2.420 . S
O185 C170 1.202 . S
O186 U166 2.455 . S
O186 C183 1.301 . S
O187 U166 2.449 . S
O187 C183 1.282 . S
H188 C161 0.931 . S
H189 C163 0.929 . S
H190 C164 0.930 . S
H191 C165 0.931 . S
H192 C172 0.932 . S
H193 C173 0.930 . S
H194 C174 0.929 . S
H195 C176 0.930 . S
H196 C178 0.932 . S
H197 C179 0.929 . S
H198 C180 0.928 . S
H199 C182 0.932 . S
C200 C201 1.264 . S
C200 C205 1.479 . S
C200 C210 1.465 . S
C201 C200 1.264 . S
C201 C203 1.339 . S
C201 H228 0.931 . S
C202 C203 1.395 . S
C202 C204 1.320 . S
C203 C201 1.339 . S
C203 C202 1.395 . S
C203 H229 0.929 . S
C204 C202 1.320 . S
C204 C205 1.405 . S
C204 H230 0.930 . S
C205 C200 1.479 . S
C205 C204 1.405 . S
C205 H231 0.931 . S
U206 O207 2.454 . S
U206 O208 2.458 . S
U206 C209 2.984 . S
U206 C210 2.847 1_455 S
U206 C223 2.882 . S
U206 O224 2.441 1_455 S
U206 O225 2.420 1_455 S
U206 O226 2.455 . S
U206 O227 2.449 1_455 S
O207 U206 2.454 . S
O207 C209 1.353 . S
O208 U206 2.458 . S
O208 C209 1.286 . S
C209 U206 2.984 . S
C209 O207 1.353 . S
C209 O208 1.286 . S
C209 C211 1.363 . S
C210 C200 1.465 . S
C210 U206 2.847 1_655 S
C210 O224 1.249 . S
C210 O225 1.202 . S
C211 C209 1.363 . S
C211 C213 1.408 . S
C211 C216 1.342 . S
C212 C213 1.310 . S
C212 C215 1.461 . S
C212 H232 0.932 . S
C213 C211 1.408 . S
C213 C212 1.310 . S
C213 H233 0.930 . S
C214 C215 1.474 . S
C214 C216 1.285 . S
C214 H234 0.929 . S
C215 C212 1.461 . S
C215 C214 1.474 . S
C216 C211 1.342 . S
C216 C214 1.285 . S
C216 H235 0.930 . S
C217 C220 1.424 1_455 S
C217 C222 1.245 . S
C217 C223 1.428 . S
C218 C221 1.260 . S
C218 C222 1.477 . S
C218 H236 0.932 . S
C219 C220 1.384 . S
C219 C221 1.479 1_655 S
C219 H237 0.929 . S
C220 C217 1.424 1_655 S
C220 C219 1.384 . S
C220 H238 0.928 . S
C221 C218 1.260 . S
C221 C219 1.479 1_455 S
C222 C217 1.245 . S
C222 C218 1.477 . S
C222 H239 0.932 . S
C223 U206 2.882 . S
C223 C217 1.428 . S
C223 O226 1.301 . S
C223 O227 1.282 1_455 S
O224 U206 2.441 1_655 S
O224 C210 1.249 . S
O225 U206 2.420 1_655 S
O225 C210 1.202 . S
O226 U206 2.455 . S
O226 C223 1.301 . S
O227 U206 2.449 1_655 S
O227 C223 1.282 1_655 S
H228 C201 0.931 . S
H229 C203 0.929 . S
H230 C204 0.930 . S
H231 C205 0.931 . S
H232 C212 0.932 . S
H233 C213 0.930 . S
H234 C214 0.929 . S
H235 C216 0.930 . S
H236 C218 0.932 . S
H237 C219 0.929 . S
H238 C220 0.928 . S
H239 C222 0.932 . S
C240 C241 1.264 . S
C240 C245 1.479 . S
C240 C250 1.465 . S
C241 C240 1.264 . S
C241 C243 1.339 . S
C241 H268 0.931 . S
C242 C243 1.395 . S
C242 C244 1.320 . S
C243 C241 1.339 . S
C243 C242 1.395 . S
C243 H269 0.929 . S
C244 C242 1.320 . S
C244 C245 1.405 . S
C244 H270 0.930 . S
C245 C240 1.479 . S
C245 C244 1.405 . S
C245 H271 0.931 . S
U246 O247 2.454 1_655 S
U246 O248 2.458 1_655 S
U246 C249 2.984 1_655 S
U246 C250 2.847 . S
U246 C263 2.882 . S
U246 O264 2.441 . S
U246 O265 2.420 . S
U246 O266 2.455 1_655 S
U246 O267 2.449 . S
O247 U246 2.454 1_455 S
O247 C249 1.353 . S
O248 U246 2.458 1_455 S
O248 C249 1.286 . S
C249 U246 2.984 1_455 S
C249 O247 1.353 . S
C249 O248 1.286 . S
C249 C251 1.363 . S
C250 C240 1.465 . S
C250 U246 2.847 . S
C250 O264 1.249 . S
C250 O265 1.202 . S
C251 C249 1.363 . S
C251 C253 1.408 . S
C251 C256 1.342 . S
C252 C253 1.310 . S
C252 C255 1.461 . S
C252 H272 0.932 . S
C253 C251 1.408 . S
C253 C252 1.310 . S
C253 H273 0.930 . S
C254 C255 1.474 . S
C254 C256 1.285 . S
C254 H274 0.929 . S
C255 C252 1.461 . S
C255 C254 1.474 . S
C256 C251 1.342 . S
C256 C254 1.285 . S
C256 H275 0.930 . S
C257 C260 1.424 . S
C257 C262 1.245 1_655 S
C257 C263 1.428 . S
C258 C261 1.263 . S
C258 C262 1.477 . S
C258 H276 0.932 . S
C259 C260 1.384 . S
C259 C261 1.471 1_655 S
C259 H277 0.929 . S
C260 C257 1.424 . S
C260 C259 1.384 . S
C260 H278 0.928 . S
C261 C258 1.263 . S
C261 C259 1.471 1_455 S
C262 C257 1.245 1_455 S
C262 C258 1.477 . S
C262 H279 0.932 . S
C263 U246 2.882 . S
C263 C257 1.428 . S
C263 O266 1.301 1_655 S
C263 O267 1.282 . S
O264 U246 2.441 . S
O264 C250 1.249 . S
O265 U246 2.420 . S
O265 C250 1.202 . S
O266 U246 2.455 1_455 S
O266 C263 1.301 1_455 S
O267 U246 2.449 . S
O267 C263 1.282 . S
H268 C241 0.931 . S
H269 C243 0.929 . S
H270 C244 0.930 . S
H271 C245 0.931 . S
H272 C252 0.932 . S
H273 C253 0.930 . S
H274 C254 0.929 . S
H275 C256 0.930 . S
H276 C258 0.932 . S
H277 C259 0.929 . S
H278 C260 0.928 . S
H279 C262 0.932 . S
C280 C281 1.264 . S
C280 C285 1.479 . S
C280 C290 1.465 . S
C281 C280 1.264 . S
C281 C283 1.339 . S
C281 H308 0.931 . S
C282 C283 1.395 . S
C282 C284 1.320 . S
C283 C281 1.339 . S
C283 C282 1.395 . S
C283 H309 0.929 . S
C284 C282 1.320 . S
C284 C285 1.405 . S
C284 H310 0.930 . S
C285 C280 1.479 . S
C285 C284 1.405 . S
C285 H311 0.931 . S
U286 O287 2.454 1_565 S
U286 O288 2.458 1_565 S
U286 C289 2.984 1_565 S
U286 C290 2.847 . S
U286 C303 2.882 . S
U286 O304 2.441 . S
U286 O305 2.420 . S
U286 O306 2.455 1_565 S
U286 O307 2.449 . S
O287 U286 2.454 1_545 S
O287 C289 1.353 . S
O288 U286 2.458 1_545 S
O288 C289 1.286 . S
C289 U286 2.984 1_545 S
C289 O287 1.353 . S
C289 O288 1.286 . S
C289 C291 1.363 . S
C290 C280 1.465 . S
C290 U286 2.847 . S
C290 O304 1.249 . S
C290 O305 1.202 . S
C291 C289 1.363 . S
C291 C293 1.408 . S
C291 C296 1.342 . S
C292 C293 1.310 . S
C292 C295 1.461 . S
C292 H312 0.932 . S
C293 C291 1.408 . S
C293 C292 1.310 . S
C293 H313 0.930 . S
C294 C295 1.474 . S
C294 C296 1.285 . S
C294 H314 0.929 . S
C295 C292 1.461 . S
C295 C294 1.474 . S
C296 C291 1.342 . S
C296 C294 1.285 . S
C296 H315 0.930 . S
C297 C300 1.424 . S
C297 C302 1.245 1_565 S
C297 C303 1.428 . S
C298 C301 1.260 . S
C298 C302 1.477 . S
C298 H316 0.932 . S
C299 C300 1.384 . S
C299 C301 1.479 1_565 S
C299 H317 0.929 . S
C300 C297 1.424 . S
C300 C299 1.384 . S
C300 H318 0.928 . S
C301 C298 1.260 . S
C301 C299 1.479 1_545 S
C302 C297 1.245 1_545 S
C302 C298 1.477 . S
C302 H319 0.932 . S
C303 U286 2.882 . S
C303 C297 1.428 . S
C303 O306 1.301 1_565 S
C303 O307 1.282 . S
O304 U286 2.441 . S
O304 C290 1.249 . S
O305 U286 2.420 . S
O305 C290 1.202 . S
O306 U286 2.455 1_545 S
O306 C303 1.301 1_545 S
O307 U286 2.449 . S
O307 C303 1.282 . S
H308 C281 0.931 . S
H309 C283 0.929 . S
H310 C284 0.930 . S
H311 C285 0.931 . S
H312 C292 0.932 . S
H313 C293 0.930 . S
H314 C294 0.929 . S
H315 C296 0.930 . S
H316 C298 0.932 . S
H317 C299 0.929 . S
H318 C300 0.928 . S
H319 C302 0.932 . S
C320 C321 1.264 . S
C320 C325 1.479 . S
C320 C330 1.465 . S
C321 C320 1.264 . S
C321 C323 1.339 . S
C321 H348 0.931 . S
C322 C323 1.395 . S
C322 C324 1.320 . S
C323 C321 1.339 . S
C323 C322 1.395 . S
C323 H349 0.929 . S
C324 C322 1.320 . S
C324 C325 1.405 . S
C324 H350 0.930 . S
C325 C320 1.479 . S
C325 C324 1.405 . S
C325 H351 0.931 . S
U326 O327 2.454 . S
U326 O328 2.458 . S
U326 C329 2.984 . S
U326 C330 2.847 . S
U326 C343 2.882 . S
U326 O344 2.441 . S
U326 O345 2.420 . S
U326 O346 2.455 . S
U326 O347 2.449 . S
O327 U326 2.454 . S
O327 C329 1.353 . S
O328 U326 2.458 . S
O328 C329 1.286 . S
C329 U326 2.984 . S
C329 O327 1.353 . S
C329 O328 1.286 . S
C329 C331 1.363 . S
C330 C320 1.465 . S
C330 U326 2.847 . S
C330 O344 1.249 . S
C330 O345 1.202 . S
C331 C329 1.363 . S
C331 C333 1.408 . S
C331 C336 1.342 . S
C332 C333 1.310 . S
C332 C335 1.461 . S
C332 H352 0.932 . S
C333 C331 1.408 . S
C333 C332 1.310 . S
C333 H353 0.930 . S
C334 C335 1.474 . S
C334 C336 1.285 . S
C334 H354 0.929 . S
C335 C332 1.461 . S
C335 C334 1.474 . S
C336 C331 1.342 . S
C336 C334 1.285 . S
C336 H355 0.930 . S
C337 C340 1.424 . S
C337 C342 1.245 . S
C337 C343 1.428 . S
C338 C341 1.260 . S
C338 C342 1.477 . S
C338 H356 0.932 . S
C339 C340 1.384 . S
C339 C341 1.479 . S
C339 H357 0.929 . S
C340 C337 1.424 . S
C340 C339 1.384 . S
C340 H358 0.928 . S
C341 C338 1.260 . S
C341 C339 1.479 . S
C342 C337 1.245 . S
C342 C338 1.477 . S
C342 H359 0.932 . S
C343 U326 2.882 . S
C343 C337 1.428 . S
C343 O346 1.301 . S
C343 O347 1.282 . S
O344 U326 2.441 . S
O344 C330 1.249 . S
O345 U326 2.420 . S
O345 C330 1.202 . S
O346 U326 2.455 . S
O346 C343 1.301 . S
O347 U326 2.449 . S
O347 C343 1.282 . S
H348 C321 0.931 . S
H349 C323 0.929 . S
H350 C324 0.930 . S
H351 C325 0.931 . S
H352 C332 0.932 . S
H353 C333 0.930 . S
H354 C334 0.929 . S
H355 C336 0.930 . S
H356 C338 0.932 . S
H357 C339 0.929 . S
H358 C340 0.928 . S
H359 C342 0.932 . S
H360 C378 0.951 . S
H361 C380 0.951 . S
H362 C382 0.950 . S
H363 C383 0.950 . S
H364 C385 0.950 . S
H365 C388 0.950 . S
H366 C389 0.950 . S
H367 C391 0.950 . S
H368 C392 0.950 . S
H369 C393 0.951 . S
H370 C395 0.951 . S
H371 C397 0.950 . S
H372 C398 0.950 . S
H373 C400 0.950 . S
H374 C403 0.950 . S
H375 C404 0.950 . S
H376 C406 0.950 . S
H377 C407 0.950 . S
C378 H360 0.951 . S
C378 C379 1.366 . S
C378 C380 1.388 . S
C379 C378 1.366 . S
C379 C383 1.385 . S
C380 H361 0.951 . S
C380 C378 1.388 . S
C380 C381 1.366 . S
C381 C380 1.366 . S
C381 C382 1.414 . S
C381 C384 1.499 . S
C382 H362 0.950 . S
C382 C381 1.414 . S
C382 C383 1.374 . S
C383 H363 0.950 . S
C383 C379 1.385 . S
C383 C382 1.374 . S
C384 C381 1.499 . S
C384 C385 1.373 . S
C384 C386 1.389 . S
C385 H364 0.950 . S
C385 C384 1.373 . S
C385 C401 1.377 . S
C386 C384 1.389 . S
C386 C387 1.524 . S
C386 C400 1.377 . S
C387 C386 1.524 . S
C387 C388 1.397 . S
C387 C392 1.363 . S
C388 H365 0.950 . S
C388 C387 1.397 . S
C388 C389 1.334 . S
C389 H366 0.950 . S
C389 C388 1.334 . S
C389 C390 1.287 . S
C390 C389 1.287 . S
C390 C391 1.524 . S
C390 H409 0.913 . S
C391 H367 0.950 . S
C391 C390 1.524 . S
C391 C392 1.415 . S
C392 H368 0.950 . S
C392 C387 1.363 . S
C392 C391 1.415 . S
C393 H369 0.951 . S
C393 C394 1.366 . S
C393 C395 1.388 . S
C394 C393 1.366 . S
C394 C398 1.385 . S
C395 H370 0.951 . S
C395 C393 1.388 . S
C395 C396 1.366 . S
C396 C395 1.366 . S
C396 C397 1.414 . S
C396 C399 1.499 . S
C397 H371 0.950 . S
C397 C396 1.414 . S
C397 C398 1.374 . S
C398 H372 0.950 . S
C398 C394 1.385 . S
C398 C397 1.374 . S
C399 C396 1.499 . S
C399 C400 1.373 . S
C399 C401 1.389 . S
C400 H373 0.950 . S
C400 C386 1.377 . S
C400 C399 1.373 . S
C401 C385 1.377 . S
C401 C399 1.389 . S
C401 C402 1.524 . S
C402 C401 1.524 . S
C402 C403 1.397 . S
C402 C407 1.363 . S
C403 H374 0.950 . S
C403 C402 1.397 . S
C403 C404 1.334 . S
C404 H375 0.950 . S
C404 C403 1.334 . S
C404 C405 1.287 . S
C405 C404 1.287 . S
C405 C406 1.524 . S
C405 H408 0.999 . S
C406 H376 0.950 . S
C406 C405 1.524 . S
C406 C407 1.415 . S
C407 H377 0.950 . S
C407 C402 1.363 . S
C407 C406 1.415 . S
H408 C405 0.999 . S
H409 C390 0.913 . S
H410 C428 0.951 . S
H411 C430 0.951 . S
H412 C432 0.950 . S
H413 C433 0.950 . S
H414 C435 0.950 . S
H415 C438 0.950 . S
H416 C439 0.950 . S
H417 C441 0.950 . S
H418 C442 0.950 . S
H419 C443 0.951 . S
H420 C445 0.951 . S
H421 C447 0.950 . S
H422 C448 0.950 . S
H423 C450 0.950 . S
H424 C453 0.950 . S
H425 C454 0.950 . S
H426 C456 0.950 . S
H427 C457 0.950 . S
C428 H410 0.951 . S
C428 C429 1.366 . S
C428 C430 1.388 . S
C429 C428 1.366 . S
C429 C433 1.385 . S
C430 H411 0.951 . S
C430 C428 1.388 . S
C430 C431 1.366 . S
C431 C430 1.366 . S
C431 C432 1.414 . S
C431 C434 1.499 . S
C432 H412 0.950 . S
C432 C431 1.414 . S
C432 C433 1.374 . S
C433 H413 0.950 . S
C433 C429 1.385 . S
C433 C432 1.374 . S
C434 C431 1.499 . S
C434 C435 1.373 . S
C434 C436 1.389 . S
C435 H414 0.950 . S
C435 C434 1.373 . S
C435 C451 1.377 . S
C436 C434 1.389 . S
C436 C437 1.524 . S
C436 C450 1.377 . S
C437 C436 1.524 . S
C437 C438 1.397 . S
C437 C442 1.363 . S
C438 H415 0.950 . S
C438 C437 1.397 . S
C438 C439 1.334 . S
C439 H416 0.950 . S
C439 C438 1.334 . S
C439 C440 1.287 . S
C440 C439 1.287 . S
C440 C441 1.524 . S
C440 H459 0.913 . S
C441 H417 0.950 . S
C441 C440 1.524 . S
C441 C442 1.415 . S
C442 H418 0.950 . S
C442 C437 1.363 . S
C442 C441 1.415 . S
C443 H419 0.951 . S
C443 C444 1.366 . S
C443 C445 1.388 . S
C444 C443 1.366 . S
C444 C448 1.385 . S
C445 H420 0.951 . S
C445 C443 1.388 . S
C445 C446 1.366 . S
C446 C445 1.366 . S
C446 C447 1.414 . S
C446 C449 1.499 . S
C447 H421 0.950 . S
C447 C446 1.414 . S
C447 C448 1.374 . S
C448 H422 0.950 . S
C448 C444 1.385 . S
C448 C447 1.374 . S
C449 C446 1.499 . S
C449 C450 1.373 . S
C449 C451 1.389 . S
C450 H423 0.950 . S
C450 C436 1.377 . S
C450 C449 1.373 . S
C451 C435 1.377 . S
C451 C449 1.389 . S
C451 C452 1.524 . S
C452 C451 1.524 . S
C452 C453 1.397 . S
C452 C457 1.363 . S
C453 H424 0.950 . S
C453 C452 1.397 . S
C453 C454 1.334 . S
C454 H425 0.950 . S
C454 C453 1.334 . S
C454 C455 1.287 . S
C455 C454 1.287 . S
C455 C456 1.524 . S
C455 H458 0.999 . S
C456 H426 0.950 . S
C456 C455 1.524 . S
C456 C457 1.415 . S
C457 H427 0.950 . S
C457 C452 1.363 . S
C457 C456 1.415 . S
H458 C455 0.999 . S
H459 C440 0.913 . S
H460 C478 0.951 . S
H461 C480 0.951 . S
H462 C482 0.950 . S
H463 C483 0.950 . S
H464 C485 0.950 . S
H465 C488 0.950 . S
H466 C489 0.950 . S
H467 C491 0.950 . S
H468 C492 0.950 . S
H469 C493 0.951 . S
H470 C495 0.951 . S
H471 C497 0.950 . S
H472 C498 0.950 . S
H473 C500 0.950 . S
H474 C503 0.950 . S
H475 C504 0.950 . S
H476 C506 0.950 . S
H477 C507 0.950 . S
C478 H460 0.951 . S
C478 C479 1.366 . S
C478 C480 1.388 . S
C479 C478 1.366 . S
C479 C483 1.385 . S
C480 H461 0.951 . S
C480 C478 1.388 . S
C480 C481 1.366 . S
C481 C480 1.366 . S
C481 C482 1.414 . S
C481 C484 1.499 . S
C482 H462 0.950 . S
C482 C481 1.414 . S
C482 C483 1.374 . S
C483 H463 0.950 . S
C483 C479 1.385 . S
C483 C482 1.374 . S
C484 C481 1.499 . S
C484 C485 1.373 . S
C484 C486 1.389 . S
C485 H464 0.950 . S
C485 C484 1.373 . S
C485 C501 1.377 . S
C486 C484 1.389 . S
C486 C487 1.524 . S
C486 C500 1.377 . S
C487 C486 1.524 . S
C487 C488 1.397 . S
C487 C492 1.363 . S
C488 H465 0.950 . S
C488 C487 1.397 . S
C488 C489 1.334 . S
C489 H466 0.950 . S
C489 C488 1.334 . S
C489 C490 1.287 . S
C490 C489 1.287 . S
C490 C491 1.524 . S
C490 H509 0.913 . S
C491 H467 0.950 . S
C491 C490 1.524 . S
C491 C492 1.415 . S
C492 H468 0.950 . S
C492 C487 1.363 . S
C492 C491 1.415 . S
C493 H469 0.951 . S
C493 C494 1.366 . S
C493 C495 1.388 . S
C494 C493 1.366 . S
C494 C498 1.385 . S
C495 H470 0.951 . S
C495 C493 1.388 . S
C495 C496 1.366 . S
C496 C495 1.366 . S
C496 C497 1.414 . S
C496 C499 1.499 . S
C497 H471 0.950 . S
C497 C496 1.414 . S
C497 C498 1.374 . S
C498 H472 0.950 . S
C498 C494 1.385 . S
C498 C497 1.374 . S
C499 C496 1.499 . S
C499 C500 1.373 . S
C499 C501 1.389 . S
C500 H473 0.950 . S
C500 C486 1.377 . S
C500 C499 1.373 . S
C501 C485 1.377 . S
C501 C499 1.389 . S
C501 C502 1.524 . S
C502 C501 1.524 . S
C502 C503 1.397 . S
C502 C507 1.363 . S
C503 H474 0.950 . S
C503 C502 1.397 . S
C503 C504 1.334 . S
C504 H475 0.950 . S
C504 C503 1.334 . S
C504 C505 1.287 . S
C505 C504 1.287 . S
C505 C506 1.524 . S
C505 H508 0.999 . S
C506 H476 0.950 . S
C506 C505 1.524 . S
C506 C507 1.415 . S
C507 H477 0.950 . S
C507 C502 1.363 . S
C507 C506 1.415 . S
H508 C505 0.999 . S
H509 C490 0.913 . S
H510 C528 0.951 . S
H511 C530 0.951 . S
H512 C532 0.950 . S
H513 C533 0.950 . S
H514 C535 0.950 . S
H515 C538 0.950 . S
H516 C539 0.950 . S
H517 C541 0.950 . S
H518 C542 0.950 . S
H519 C543 0.951 . S
H520 C545 0.951 . S
H521 C547 0.950 . S
H522 C548 0.950 . S
H523 C550 0.950 . S
H524 C553 0.950 . S
H525 C554 0.950 . S
H526 C556 0.950 . S
H527 C557 0.950 . S
C528 H510 0.951 . S
C528 C529 1.366 . S
C528 C530 1.388 . S
C529 C528 1.366 . S
C529 C533 1.385 . S
C530 H511 0.951 . S
C530 C528 1.388 . S
C530 C531 1.366 . S
C531 C530 1.366 . S
C531 C532 1.414 . S
C531 C534 1.499 . S
C532 H512 0.950 . S
C532 C531 1.414 . S
C532 C533 1.374 . S
C533 H513 0.950 . S
C533 C529 1.385 . S
C533 C532 1.374 . S
C534 C531 1.499 . S
C534 C535 1.373 . S
C534 C536 1.389 . S
C535 H514 0.950 . S
C535 C534 1.373 . S
C535 C551 1.377 . S
C536 C534 1.389 . S
C536 C537 1.524 . S
C536 C550 1.377 . S
C537 C536 1.524 . S
C537 C538 1.397 . S
C537 C542 1.363 . S
C538 H515 0.950 . S
C538 C537 1.397 . S
C538 C539 1.334 . S
C539 H516 0.950 . S
C539 C538 1.334 . S
C539 C540 1.287 . S
C540 C539 1.287 . S
C540 C541 1.524 . S
C540 H559 0.913 . S
C541 H517 0.950 . S
C541 C540 1.524 . S
C541 C542 1.415 . S
C542 H518 0.950 . S
C542 C537 1.363 . S
C542 C541 1.415 . S
C543 H519 0.951 . S
C543 C544 1.366 . S
C543 C545 1.388 . S
C544 C543 1.366 . S
C544 C548 1.385 . S
C545 H520 0.951 . S
C545 C543 1.388 . S
C545 C546 1.366 . S
C546 C545 1.366 . S
C546 C547 1.414 . S
C546 C549 1.499 . S
C547 H521 0.950 . S
C547 C546 1.414 . S
C547 C548 1.374 . S
C548 H522 0.950 . S
C548 C544 1.385 . S
C548 C547 1.374 . S
C549 C546 1.499 . S
C549 C550 1.373 . S
C549 C551 1.389 . S
C550 H523 0.950 . S
C550 C536 1.377 . S
C550 C549 1.373 . S
C551 C535 1.377 . S
C551 C549 1.389 . S
C551 C552 1.524 . S
C552 C551 1.524 . S
C552 C553 1.397 . S
C552 C557 1.363 . S
C553 H524 0.950 . S
C553 C552 1.397 . S
C553 C554 1.334 . S
C554 H525 0.950 . S
C554 C553 1.334 . S
C554 C555 1.287 . S
C555 C554 1.287 . S
C555 C556 1.524 . S
C555 H558 0.999 . S
C556 H526 0.950 . S
C556 C555 1.524 . S
C556 C557 1.415 . S
C557 H527 0.950 . S
C557 C552 1.363 . S
C557 C556 1.415 . S
H558 C555 0.999 . S
H559 C540 0.913 . S
H560 C578 0.951 . S
H561 C580 0.951 . S
H562 C582 0.950 . S
H563 C583 0.950 . S
H564 C585 0.950 . S
H565 C588 0.950 . S
H566 C589 0.950 . S
H567 C591 0.950 . S
H568 C592 0.950 . S
H569 C593 0.951 . S
H570 C595 0.951 . S
H571 C597 0.950 . S
H572 C598 0.950 . S
H573 C600 0.950 . S
H574 C603 0.950 . S
H575 C604 0.950 . S
H576 C606 0.950 . S
H577 C607 0.950 . S
C578 H560 0.951 . S
C578 C579 1.366 . S
C578 C580 1.388 . S
C579 C578 1.366 . S
C579 C583 1.385 . S
C580 H561 0.951 . S
C580 C578 1.388 . S
C580 C581 1.366 . S
C581 C580 1.366 . S
C581 C582 1.414 . S
C581 C584 1.499 . S
C582 H562 0.950 . S
C582 C581 1.414 . S
C582 C583 1.374 . S
C583 H563 0.950 . S
C583 C579 1.385 . S
C583 C582 1.374 . S
C584 C581 1.499 . S
C584 C585 1.373 . S
C584 C586 1.389 . S
C585 H564 0.950 . S
C585 C584 1.373 . S
C585 C601 1.377 . S
C586 C584 1.389 . S
C586 C587 1.524 . S
C586 C600 1.377 . S
C587 C586 1.524 . S
C587 C588 1.397 . S
C587 C592 1.363 . S
C588 H565 0.950 . S
C588 C587 1.397 . S
C588 C589 1.334 . S
C589 H566 0.950 . S
C589 C588 1.334 . S
C589 C590 1.287 . S
C590 C589 1.287 . S
C590 C591 1.524 . S
C590 H609 0.913 . S
C591 H567 0.950 . S
C591 C590 1.524 . S
C591 C592 1.415 . S
C592 H568 0.950 . S
C592 C587 1.363 . S
C592 C591 1.415 . S
C593 H569 0.951 . S
C593 C594 1.366 . S
C593 C595 1.388 . S
C594 C593 1.366 . S
C594 C598 1.385 . S
C595 H570 0.951 . S
C595 C593 1.388 . S
C595 C596 1.366 . S
C596 C595 1.366 . S
C596 C597 1.414 . S
C596 C599 1.499 . S
C597 H571 0.950 . S
C597 C596 1.414 . S
C597 C598 1.374 . S
C598 H572 0.950 . S
C598 C594 1.385 . S
C598 C597 1.374 . S
C599 C596 1.499 . S
C599 C600 1.373 . S
C599 C601 1.389 . S
C600 H573 0.950 . S
C600 C586 1.377 . S
C600 C599 1.373 . S
C601 C585 1.377 . S
C601 C599 1.389 . S
C601 C602 1.524 . S
C602 C601 1.524 . S
C602 C603 1.397 . S
C602 C607 1.363 . S
C603 H574 0.950 . S
C603 C602 1.397 . S
C603 C604 1.334 . S
C604 H575 0.950 . S
C604 C603 1.334 . S
C604 C605 1.287 . S
C605 C604 1.287 . S
C605 C606 1.524 . S
C605 H608 0.999 . S
C606 H576 0.950 . S
C606 C605 1.524 . S
C606 C607 1.415 . S
C607 H577 0.950 . S
C607 C602 1.363 . S
C607 C606 1.415 . S
H608 C605 0.999 . S
H609 C590 0.913 . S
H610 C628 0.951 . S
H611 C630 0.951 . S
H612 C632 0.950 . S
H613 C633 0.950 . S
H614 C635 0.950 . S
H615 C638 0.950 . S
H616 C639 0.950 . S
H617 C641 0.950 . S
H618 C642 0.950 . S
H619 C643 0.951 . S
H620 C645 0.951 . S
H621 C647 0.950 . S
H622 C648 0.950 . S
H623 C650 0.950 . S
H624 C653 0.950 . S
H625 C654 0.950 . S
H626 C656 0.950 . S
H627 C657 0.950 . S
C628 H610 0.951 . S
C628 C629 1.366 . S
C628 C630 1.388 . S
C629 C628 1.366 . S
C629 C633 1.385 . S
C630 H611 0.951 . S
C630 C628 1.388 . S
C630 C631 1.366 . S
C631 C630 1.366 . S
C631 C632 1.414 . S
C631 C634 1.499 . S
C632 H612 0.950 . S
C632 C631 1.414 . S
C632 C633 1.374 . S
C633 H613 0.950 . S
C633 C629 1.385 . S
C633 C632 1.374 . S
C634 C631 1.499 . S
C634 C635 1.373 . S
C634 C636 1.389 . S
C635 H614 0.950 . S
C635 C634 1.373 . S
C635 C651 1.377 . S
C636 C634 1.389 . S
C636 C637 1.524 . S
C636 C650 1.377 . S
C637 C636 1.524 . S
C637 C638 1.397 . S
C637 C642 1.363 . S
C638 H615 0.950 . S
C638 C637 1.397 . S
C638 C639 1.334 . S
C639 H616 0.950 . S
C639 C638 1.334 . S
C639 C640 1.287 . S
C640 C639 1.287 . S
C640 C641 1.524 . S
C640 H659 0.913 . S
C641 H617 0.950 . S
C641 C640 1.524 . S
C641 C642 1.415 . S
C642 H618 0.950 . S
C642 C637 1.363 . S
C642 C641 1.415 . S
C643 H619 0.951 . S
C643 C644 1.366 . S
C643 C645 1.388 . S
C644 C643 1.366 . S
C644 C648 1.385 . S
C645 H620 0.951 . S
C645 C643 1.388 . S
C645 C646 1.366 . S
C646 C645 1.366 . S
C646 C647 1.414 . S
C646 C649 1.499 . S
C647 H621 0.950 . S
C647 C646 1.414 . S
C647 C648 1.374 . S
C648 H622 0.950 . S
C648 C644 1.385 . S
C648 C647 1.374 . S
C649 C646 1.499 . S
C649 C650 1.373 . S
C649 C651 1.389 . S
C650 H623 0.950 . S
C650 C636 1.377 . S
C650 C649 1.373 . S
C651 C635 1.377 . S
C651 C649 1.389 . S
C651 C652 1.524 . S
C652 C651 1.524 . S
C652 C653 1.397 . S
C652 C657 1.363 . S
C653 H624 0.950 . S
C653 C652 1.397 . S
C653 C654 1.334 . S
C654 H625 0.950 . S
C654 C653 1.334 . S
C654 C655 1.287 . S
C655 C654 1.287 . S
C655 C656 1.524 . S
C655 H658 0.999 . S
C656 H626 0.950 . S
C656 C655 1.524 . S
C656 C657 1.415 . S
C657 H627 0.950 . S
C657 C652 1.363 . S
C657 C656 1.415 . S
H658 C655 0.999 . S
H659 C640 0.913 . S
H660 C678 0.951 . S
H661 C680 0.951 . S
H662 C682 0.950 . S
H663 C683 0.950 . S
H664 C685 0.950 . S
H665 C688 0.950 . S
H666 C689 0.950 . S
H667 C691 0.950 . S
H668 C692 0.950 . S
H669 C693 0.951 . S
H670 C695 0.951 . S
H671 C697 0.950 . S
H672 C698 0.950 . S
H673 C700 0.950 . S
H674 C703 0.950 . S
H675 C704 0.950 . S
H676 C706 0.950 . S
H677 C707 0.950 . S
C678 H660 0.951 . S
C678 C679 1.366 . S
C678 C680 1.388 . S
C679 C678 1.366 . S
C679 C683 1.385 . S
C680 H661 0.951 . S
C680 C678 1.388 . S
C680 C681 1.366 . S
C681 C680 1.366 . S
C681 C682 1.414 . S
C681 C684 1.499 . S
C682 H662 0.950 . S
C682 C681 1.414 . S
C682 C683 1.374 . S
C683 H663 0.950 . S
C683 C679 1.385 . S
C683 C682 1.374 . S
C684 C681 1.499 . S
C684 C685 1.373 . S
C684 C686 1.389 . S
C685 H664 0.950 . S
C685 C684 1.373 . S
C685 C701 1.377 . S
C686 C684 1.389 . S
C686 C687 1.524 . S
C686 C700 1.377 . S
C687 C686 1.524 . S
C687 C688 1.397 . S
C687 C692 1.363 . S
C688 H665 0.950 . S
C688 C687 1.397 . S
C688 C689 1.334 . S
C689 H666 0.950 . S
C689 C688 1.334 . S
C689 C690 1.287 . S
C690 C689 1.287 . S
C690 C691 1.524 . S
C690 H709 0.913 . S
C691 H667 0.950 . S
C691 C690 1.524 . S
C691 C692 1.415 . S
C692 H668 0.950 . S
C692 C687 1.363 . S
C692 C691 1.415 . S
C693 H669 0.951 . S
C693 C694 1.366 . S
C693 C695 1.388 . S
C694 C693 1.366 . S
C694 C698 1.385 . S
C695 H670 0.951 . S
C695 C693 1.388 . S
C695 C696 1.366 . S
C696 C695 1.366 . S
C696 C697 1.414 . S
C696 C699 1.499 . S
C697 H671 0.950 . S
C697 C696 1.414 . S
C697 C698 1.374 . S
C698 H672 0.950 . S
C698 C694 1.385 . S
C698 C697 1.374 . S
C699 C696 1.499 . S
C699 C700 1.373 . S
C699 C701 1.389 . S
C700 H673 0.950 . S
C700 C686 1.377 . S
C700 C699 1.373 . S
C701 C685 1.377 . S
C701 C699 1.389 . S
C701 C702 1.524 . S
C702 C701 1.524 . S
C702 C703 1.397 . S
C702 C707 1.363 . S
C703 H674 0.950 . S
C703 C702 1.397 . S
C703 C704 1.334 . S
C704 H675 0.950 . S
C704 C703 1.334 . S
C704 C705 1.287 . S
C705 C704 1.287 . S
C705 C706 1.524 . S
C705 H708 0.999 . S
C706 H676 0.950 . S
C706 C705 1.524 . S
C706 C707 1.415 . S
C707 H677 0.950 . S
C707 C702 1.363 . S
C707 C706 1.415 . S
H708 C705 0.999 . S
H709 C690 0.913 . S
H710 C728 0.951 . S
H711 C730 0.951 . S
H712 C732 0.950 . S
H713 C733 0.950 . S
H714 C735 0.950 . S
H715 C738 0.950 . S
H716 C739 0.950 . S
H717 C741 0.950 . S
H718 C742 0.950 . S
H719 C743 0.951 . S
H720 C745 0.951 . S
H721 C747 0.950 . S
H722 C748 0.950 . S
H723 C750 0.950 . S
H724 C753 0.950 . S
H725 C754 0.950 . S
H726 C756 0.950 . S
H727 C757 0.950 . S
C728 H710 0.951 . S
C728 C729 1.366 . S
C728 C730 1.388 . S
C729 C728 1.366 . S
C729 C733 1.385 . S
C730 H711 0.951 . S
C730 C728 1.388 . S
C730 C731 1.366 . S
C731 C730 1.366 . S
C731 C732 1.414 . S
C731 C734 1.499 . S
C732 H712 0.950 . S
C732 C731 1.414 . S
C732 C733 1.374 . S
C733 H713 0.950 . S
C733 C729 1.385 . S
C733 C732 1.374 . S
C734 C731 1.499 . S
C734 C735 1.373 . S
C734 C736 1.389 . S
C735 H714 0.950 . S
C735 C734 1.373 . S
C735 C751 1.377 . S
C736 C734 1.389 . S
C736 C737 1.524 . S
C736 C750 1.377 . S
C737 C736 1.524 . S
C737 C738 1.397 . S
C737 C742 1.363 . S
C738 H715 0.950 . S
C738 C737 1.397 . S
C738 C739 1.334 . S
C739 H716 0.950 . S
C739 C738 1.334 . S
C739 C740 1.287 . S
C740 C739 1.287 . S
C740 C741 1.524 . S
C740 H759 0.913 . S
C741 H717 0.950 . S
C741 C740 1.524 . S
C741 C742 1.415 . S
C742 H718 0.950 . S
C742 C737 1.363 . S
C742 C741 1.415 . S
C743 H719 0.951 . S
C743 C744 1.366 . S
C743 C745 1.388 . S
C744 C743 1.366 . S
C744 C748 1.385 . S
C745 H720 0.951 . S
C745 C743 1.388 . S
C745 C746 1.366 . S
C746 C745 1.366 . S
C746 C747 1.414 . S
C746 C749 1.499 . S
C747 H721 0.950 . S
C747 C746 1.414 . S
C747 C748 1.374 . S
C748 H722 0.950 . S
C748 C744 1.385 . S
C748 C747 1.374 . S
C749 C746 1.499 . S
C749 C750 1.373 . S
C749 C751 1.389 . S
C750 H723 0.950 . S
C750 C736 1.377 . S
C750 C749 1.373 . S
C751 C735 1.377 . S
C751 C749 1.389 . S
C751 C752 1.524 . S
C752 C751 1.524 . S
C752 C753 1.397 . S
C752 C757 1.363 . S
C753 H724 0.950 . S
C753 C752 1.397 . S
C753 C754 1.334 . S
C754 H725 0.950 . S
C754 C753 1.334 . S
C754 C755 1.287 . S
C755 C754 1.287 . S
C755 C756 1.524 . S
C755 H758 0.999 . S
C756 H726 0.950 . S
C756 C755 1.524 . S
C756 C757 1.415 . S
C757 H727 0.950 . S
C757 C752 1.363 . S
C757 C756 1.415 . S
H758 C755 0.999 . S
H759 C740 0.913 . S
H760 C778 0.951 . S
H761 C780 0.951 . S
H762 C782 0.950 . S
H763 C783 0.950 . S
H764 C785 0.950 . S
H765 C788 0.950 . S
H766 C789 0.950 . S
H767 C791 0.950 . S
H768 C792 0.950 . S
H769 C793 0.951 . S
H770 C795 0.951 . S
H771 C797 0.950 . S
H772 C798 0.950 . S
H773 C800 0.950 . S
H774 C803 0.950 . S
H775 C804 0.950 . S
H776 C806 0.950 . S
H777 C807 0.950 . S
C778 H760 0.951 . S
C778 C779 1.366 . S
C778 C780 1.388 . S
C779 C778 1.366 . S
C779 C783 1.385 . S
C780 H761 0.951 . S
C780 C778 1.388 . S
C780 C781 1.366 . S
C781 C780 1.366 . S
C781 C782 1.414 . S
C781 C784 1.499 . S
C782 H762 0.950 . S
C782 C781 1.414 . S
C782 C783 1.374 . S
C783 H763 0.950 . S
C783 C779 1.385 . S
C783 C782 1.374 . S
C784 C781 1.499 . S
C784 C785 1.373 . S
C784 C786 1.389 . S
C785 H764 0.950 . S
C785 C784 1.373 . S
C785 C801 1.377 . S
C786 C784 1.389 . S
C786 C787 1.524 . S
C786 C800 1.377 . S
C787 C786 1.524 . S
C787 C788 1.397 . S
C787 C792 1.363 . S
C788 H765 0.950 . S
C788 C787 1.397 . S
C788 C789 1.334 . S
C789 H766 0.950 . S
C789 C788 1.334 . S
C789 C790 1.287 . S
C790 C789 1.287 . S
C790 C791 1.524 . S
C790 H809 0.913 . S
C791 H767 0.950 . S
C791 C790 1.524 . S
C791 C792 1.415 . S
C792 H768 0.950 . S
C792 C787 1.363 . S
C792 C791 1.415 . S
C793 H769 0.951 . S
C793 C794 1.366 . S
C793 C795 1.388 . S
C794 C793 1.366 . S
C794 C798 1.385 . S
C795 H770 0.951 . S
C795 C793 1.388 . S
C795 C796 1.366 . S
C796 C795 1.366 . S
C796 C797 1.414 . S
C796 C799 1.499 . S
C797 H771 0.950 . S
C797 C796 1.414 . S
C797 C798 1.374 . S
C798 H772 0.950 . S
C798 C794 1.385 . S
C798 C797 1.374 . S
C799 C796 1.499 . S
C799 C800 1.373 . S
C799 C801 1.389 . S
C800 H773 0.950 . S
C800 C786 1.377 . S
C800 C799 1.373 . S
C801 C785 1.377 . S
C801 C799 1.389 . S
C801 C802 1.524 . S
C802 C801 1.524 . S
C802 C803 1.397 . S
C802 C807 1.363 . S
C803 H774 0.950 . S
C803 C802 1.397 . S
C803 C804 1.334 . S
C804 H775 0.950 . S
C804 C803 1.334 . S
C804 C805 1.287 . S
C805 C804 1.287 . S
C805 C806 1.524 . S
C805 H808 0.999 . S
C806 H776 0.950 . S
C806 C805 1.524 . S
C806 C807 1.415 . S
C807 H777 0.950 . S
C807 C802 1.363 . S
C807 C806 1.415 . S
H808 C805 0.999 . S
H809 C790 0.913 . S
H810 C828 0.951 . S
H811 C830 0.951 . S
H812 C832 0.950 . S
H813 C833 0.950 . S
H814 C835 0.950 . S
H815 C838 0.950 . S
H816 C839 0.950 . S
H817 C841 0.950 . S
H818 C842 0.950 . S
H819 C843 0.951 . S
H820 C845 0.951 . S
H821 C847 0.950 . S
H822 C848 0.950 . S
H823 C850 0.950 . S
H824 C853 0.950 . S
H825 C854 0.950 . S
H826 C856 0.950 . S
H827 C857 0.950 . S
C828 H810 0.951 . S
C828 C829 1.366 . S
C828 C830 1.388 . S
C829 C828 1.366 . S
C829 C833 1.385 . S
C830 H811 0.951 . S
C830 C828 1.388 . S
C830 C831 1.366 . S
C831 C830 1.366 . S
C831 C832 1.414 . S
C831 C834 1.499 . S
C832 H812 0.950 . S
C832 C831 1.414 . S
C832 C833 1.374 . S
C833 H813 0.950 . S
C833 C829 1.385 . S
C833 C832 1.374 . S
C834 C831 1.499 . S
C834 C835 1.373 . S
C834 C836 1.389 . S
C835 H814 0.950 . S
C835 C834 1.373 . S
C835 C851 1.377 . S
C836 C834 1.389 . S
C836 C837 1.524 . S
C836 C850 1.377 . S
C837 C836 1.524 . S
C837 C838 1.397 . S
C837 C842 1.363 . S
C838 H815 0.950 . S
C838 C837 1.397 . S
C838 C839 1.334 . S
C839 H816 0.950 . S
C839 C838 1.334 . S
C839 C840 1.287 . S
C840 C839 1.287 . S
C840 C841 1.524 . S
C840 H859 0.913 . S
C841 H817 0.950 . S
C841 C840 1.524 . S
C841 C842 1.415 . S
C842 H818 0.950 . S
C842 C837 1.363 . S
C842 C841 1.415 . S
C843 H819 0.951 . S
C843 C844 1.366 . S
C843 C845 1.388 . S
C844 C843 1.366 . S
C844 C848 1.385 . S
C845 H820 0.951 . S
C845 C843 1.388 . S
C845 C846 1.366 . S
C846 C845 1.366 . S
C846 C847 1.414 . S
C846 C849 1.499 . S
C847 H821 0.950 . S
C847 C846 1.414 . S
C847 C848 1.374 . S
C848 H822 0.950 . S
C848 C844 1.385 . S
C848 C847 1.374 . S
C849 C846 1.499 . S
C849 C850 1.373 . S
C849 C851 1.389 . S
C850 H823 0.950 . S
C850 C836 1.377 . S
C850 C849 1.373 . S
C851 C835 1.377 . S
C851 C849 1.389 . S
C851 C852 1.524 . S
C852 C851 1.524 . S
C852 C853 1.397 . S
C852 C857 1.363 . S
C853 H824 0.950 . S
C853 C852 1.397 . S
C853 C854 1.334 . S
C854 H825 0.950 . S
C854 C853 1.334 . S
C854 C855 1.287 . S
C855 C854 1.287 . S
C855 C856 1.524 . S
C855 H858 0.999 . S
C856 H826 0.950 . S
C856 C855 1.524 . S
C856 C857 1.415 . S
C857 H827 0.950 . S
C857 C852 1.363 . S
C857 C856 1.415 . S
H858 C855 0.999 . S
H859 C840 0.913 . S
H860 C878 0.951 . S
H861 C880 0.951 . S
H862 C882 0.950 . S
H863 C883 0.950 . S
H864 C885 0.950 . S
H865 C888 0.950 . S
H866 C889 0.950 . S
H867 C891 0.950 . S
H868 C892 0.950 . S
H869 C893 0.951 . S
H870 C895 0.951 . S
H871 C897 0.950 . S
H872 C898 0.950 . S
H873 C900 0.950 . S
H874 C903 0.950 . S
H875 C904 0.950 . S
H876 C906 0.950 . S
H877 C907 0.950 . S
C878 H860 0.951 . S
C878 C879 1.366 . S
C878 C880 1.388 . S
C879 C878 1.366 . S
C879 C883 1.385 . S
C880 H861 0.951 . S
C880 C878 1.388 . S
C880 C881 1.366 . S
C881 C880 1.366 . S
C881 C882 1.414 . S
C881 C884 1.499 . S
C882 H862 0.950 . S
C882 C881 1.414 . S
C882 C883 1.374 . S
C883 H863 0.950 . S
C883 C879 1.385 . S
C883 C882 1.374 . S
C884 C881 1.499 . S
C884 C885 1.373 . S
C884 C886 1.389 . S
C885 H864 0.950 . S
C885 C884 1.373 . S
C885 C901 1.377 . S
C886 C884 1.389 . S
C886 C887 1.524 . S
C886 C900 1.377 . S
C887 C886 1.524 . S
C887 C888 1.397 . S
C887 C892 1.363 . S
C888 H865 0.950 . S
C888 C887 1.397 . S
C888 C889 1.334 . S
C889 H866 0.950 . S
C889 C888 1.334 . S
C889 C890 1.287 . S
C890 C889 1.287 . S
C890 C891 1.524 . S
C890 H909 0.913 . S
C891 H867 0.950 . S
C891 C890 1.524 . S
C891 C892 1.415 . S
C892 H868 0.950 . S
C892 C887 1.363 . S
C892 C891 1.415 . S
C893 H869 0.951 . S
C893 C894 1.366 . S
C893 C895 1.388 . S
C894 C893 1.366 . S
C894 C898 1.385 . S
C895 H870 0.951 . S
C895 C893 1.388 . S
C895 C896 1.366 . S
C896 C895 1.366 . S
C896 C897 1.414 . S
C896 C899 1.499 . S
C897 H871 0.950 . S
C897 C896 1.414 . S
C897 C898 1.374 . S
C898 H872 0.950 . S
C898 C894 1.385 . S
C898 C897 1.374 . S
C899 C896 1.499 . S
C899 C900 1.373 . S
C899 C901 1.389 . S
C900 H873 0.950 . S
C900 C886 1.377 . S
C900 C899 1.373 . S
C901 C885 1.377 . S
C901 C899 1.389 . S
C901 C902 1.524 . S
C902 C901 1.524 . S
C902 C903 1.397 . S
C902 C907 1.363 . S
C903 H874 0.950 . S
C903 C902 1.397 . S
C903 C904 1.334 . S
C904 H875 0.950 . S
C904 C903 1.334 . S
C904 C905 1.287 . S
C905 C904 1.287 . S
C905 C906 1.524 . S
C905 H908 0.999 . S
C906 H876 0.950 . S
C906 C905 1.524 . S
C906 C907 1.415 . S
C907 H877 0.950 . S
C907 C902 1.363 . S
C907 C906 1.415 . S
H908 C905 0.999 . S
H909 C890 0.913 . S
H910 C928 0.951 . S
H911 C930 0.951 . S
H912 C932 0.950 . S
H913 C933 0.950 . S
H914 C935 0.950 . S
H915 C938 0.950 . S
H916 C939 0.950 . S
H917 C941 0.950 . S
H918 C942 0.950 . S
H919 C943 0.951 . S
H920 C945 0.951 . S
H921 C947 0.950 . S
H922 C948 0.950 . S
H923 C950 0.950 . S
H924 C953 0.950 . S
H925 C954 0.950 . S
H926 C956 0.950 . S
H927 C957 0.950 . S
C928 H910 0.951 . S
C928 C929 1.366 . S
C928 C930 1.388 . S
C929 C928 1.366 . S
C929 C933 1.385 . S
C930 H911 0.951 . S
C930 C928 1.388 . S
C930 C931 1.366 . S
C931 C930 1.366 . S
C931 C932 1.414 . S
C931 C934 1.499 . S
C932 H912 0.950 . S
C932 C931 1.414 . S
C932 C933 1.374 . S
C933 H913 0.950 . S
C933 C929 1.385 . S
C933 C932 1.374 . S
C934 C931 1.499 . S
C934 C935 1.373 . S
C934 C936 1.389 . S
C935 H914 0.950 . S
C935 C934 1.373 . S
C935 C951 1.377 . S
C936 C934 1.389 . S
C936 C937 1.524 . S
C936 C950 1.377 . S
C937 C936 1.524 . S
C937 C938 1.397 . S
C937 C942 1.363 . S
C938 H915 0.950 . S
C938 C937 1.397 . S
C938 C939 1.334 . S
C939 H916 0.950 . S
C939 C938 1.334 . S
C939 C940 1.287 . S
C940 C939 1.287 . S
C940 C941 1.524 . S
C940 H959 0.913 . S
C941 H917 0.950 . S
C941 C940 1.524 . S
C941 C942 1.415 . S
C942 H918 0.950 . S
C942 C937 1.363 . S
C942 C941 1.415 . S
C943 H919 0.951 . S
C943 C944 1.366 . S
C943 C945 1.388 . S
C944 C943 1.366 . S
C944 C948 1.385 . S
C945 H920 0.951 . S
C945 C943 1.388 . S
C945 C946 1.366 . S
C946 C945 1.366 . S
C946 C947 1.414 . S
C946 C949 1.499 . S
C947 H921 0.950 . S
C947 C946 1.414 . S
C947 C948 1.374 . S
C948 H922 0.950 . S
C948 C944 1.385 . S
C948 C947 1.374 . S
C949 C946 1.499 . S
C949 C950 1.373 . S
C949 C951 1.389 . S
C950 H923 0.950 . S
C950 C936 1.377 . S
C950 C949 1.373 . S
C951 C935 1.377 . S
C951 C949 1.389 . S
C951 C952 1.524 . S
C952 C951 1.524 . S
C952 C953 1.397 . S
C952 C957 1.363 . S
C953 H924 0.950 . S
C953 C952 1.397 . S
C953 C954 1.334 . S
C954 H925 0.950 . S
C954 C953 1.334 . S
C954 C955 1.287 . S
C955 C954 1.287 . S
C955 C956 1.524 . S
C955 H958 0.999 . S
C956 H926 0.950 . S
C956 C955 1.524 . S
C956 C957 1.415 . S
C957 H927 0.950 . S
C957 C952 1.363 . S
C957 C956 1.415 . S
H958 C955 0.999 . S
H959 C940 0.913 . S
H960 C978 0.951 . S
H961 C980 0.951 . S
H962 C982 0.950 1_655 S
H963 C983 0.950 1_655 S
H964 C985 0.950 . S
H965 C988 0.950 . S
H966 C989 0.950 . S
H967 C991 0.950 . S
H968 C992 0.950 . S
H969 C993 0.960 1_655 S
H970 C995 0.951 1_655 S
H971 C997 0.950 . S
H972 C998 0.970 . S
H973 C1000 0.950 . S
H974 C1003 0.950 . S
H975 C1004 0.950 . S
H976 C1006 0.950 . S
H977 C1007 0.950 . S
C978 H960 0.951 . S
C978 C979 1.366 . S
C978 C980 1.388 . S
C979 C978 1.366 . S
C979 C983 1.385 . S
C980 H961 0.951 . S
C980 C978 1.388 . S
C980 C981 1.366 . S
C981 C980 1.366 . S
C981 C982 1.414 . S
C981 C984 1.499 . S
C982 H962 0.950 1_455 S
C982 C981 1.414 . S
C982 C983 1.374 . S
C983 H963 0.950 1_455 S
C983 C979 1.385 . S
C983 C982 1.374 . S
C984 C981 1.499 . S
C984 C985 1.373 1_455 S
C984 C986 1.389 . S
C985 H964 0.950 . S
C985 C984 1.373 1_655 S
C985 C1001 1.377 . S
C986 C984 1.389 . S
C986 C987 1.524 . S
C986 C1000 1.377 . S
C987 C986 1.524 . S
C987 C988 1.397 . S
C987 C992 1.363 . S
C988 H965 0.950 . S
C988 C987 1.397 . S
C988 C989 1.334 . S
C989 H966 0.950 . S
C989 C988 1.334 . S
C989 C990 1.287 . S
C990 C989 1.287 . S
C990 C991 1.524 . S
C990 H1009 0.913 . S
C991 H967 0.950 . S
C991 C990 1.524 . S
C991 C992 1.415 . S
C992 H968 0.950 . S
C992 C987 1.363 . S
C992 C991 1.415 . S
C993 H969 0.960 1_455 S
C993 C994 1.376 . S
C993 C995 1.369 1_556 S
C994 C993 1.376 . S
C994 C998 1.402 . S
C995 H970 0.951 1_455 S
C995 C993 1.369 1_554 S
C995 C996 1.366 . S
C996 C995 1.366 . S
C996 C997 1.414 . S
C996 C999 1.499 . S
C997 H971 0.950 . S
C997 C996 1.414 . S
C997 C998 1.337 1_554 S
C998 H972 0.970 . S
C998 C994 1.402 . S
C998 C997 1.337 1_556 S
C999 C996 1.499 . S
C999 C1000 1.373 . S
C999 C1001 1.389 1_455 S
C1000 H973 0.950 . S
C1000 C986 1.377 . S
C1000 C999 1.373 . S
C1001 C985 1.377 . S
C1001 C999 1.389 1_655 S
C1001 C1002 1.524 . S
C1002 C1001 1.524 . S
C1002 C1003 1.397 . S
C1002 C1007 1.363 . S
C1003 H974 0.950 . S
C1003 C1002 1.397 . S
C1003 C1004 1.334 . S
C1004 H975 0.950 . S
C1004 C1003 1.334 . S
C1004 C1005 1.287 . S
C1005 C1004 1.287 . S
C1005 C1006 1.524 . S
C1005 H1008 0.999 . S
C1006 H976 0.950 . S
C1006 C1005 1.524 . S
C1006 C1007 1.415 . S
C1007 H977 0.950 . S
C1007 C1002 1.363 . S
C1007 C1006 1.415 . S
H1008 C1005 0.999 . S
H1009 C990 0.913 . S
H1010 C1028 0.951 1_565 S
H1011 C1030 0.951 1_565 S
H1012 C1032 0.950 . S
H1013 C1033 0.950 . S
H1014 C1035 0.950 . S
H1015 C1038 0.950 . S
H1016 C1039 0.950 1_545 S
H1017 C1041 0.950 . S
H1018 C1042 0.950 . S
H1019 C1043 0.951 . S
H1020 C1045 0.951 . S
H1021 C1047 0.950 1_565 S
H1022 C1048 0.950 1_565 S
H1023 C1050 0.950 1_565 S
H1024 C1053 0.950 . S
H1025 C1054 0.950 . S
H1026 C1056 0.950 . S
H1027 C1057 0.950 . S
C1028 H1010 0.951 1_545 S
C1028 C1029 1.366 . S
C1028 C1030 1.388 . S
C1029 C1028 1.366 . S
C1029 C1033 1.385 . S
C1030 H1011 0.951 1_545 S
C1030 C1028 1.388 . S
C1030 C1031 1.366 . S
C1031 C1030 1.366 . S
C1031 C1032 1.414 . S
C1031 C1034 1.499 . S
C1032 H1012 0.950 . S
C1032 C1031 1.414 . S
C1032 C1033 1.374 . S
C1033 H1013 0.950 . S
C1033 C1029 1.385 . S
C1033 C1032 1.374 . S
C1034 C1031 1.499 . S
C1034 C1035 1.373 . S
C1034 C1036 1.389 . S
C1035 H1014 0.950 . S
C1035 C1034 1.373 . S
C1035 C1051 1.377 . S
C1036 C1034 1.389 . S
C1036 C1037 1.524 1_545 S
C1036 C1050 1.377 . S
C1037 C1036 1.524 1_565 S
C1037 C1038 1.397 1_565 S
C1037 C1042 1.363 . S
C1038 H1015 0.950 . S
C1038 C1037 1.397 1_545 S
C1038 C1039 1.334 1_545 S
C1039 H1016 0.950 1_565 S
C1039 C1038 1.334 1_565 S
C1039 C1040 1.287 . S
C1040 C1039 1.287 . S
C1040 C1041 1.524 . S
C1040 H1059 0.913 . S
C1041 H1017 0.950 . S
C1041 C1040 1.524 . S
C1041 C1042 1.415 . S
C1042 H1018 0.950 . S
C1042 C1037 1.363 . S
C1042 C1041 1.415 . S
C1043 H1019 0.951 . S
C1043 C1044 1.366 . S
C1043 C1045 1.388 . S
C1044 C1043 1.366 . S
C1044 C1048 1.385 . S
C1045 H1020 0.951 . S
C1045 C1043 1.388 . S
C1045 C1046 1.366 . S
C1046 C1045 1.366 . S
C1046 C1047 1.414 . S
C1046 C1049 1.499 . S
C1047 H1021 0.950 1_545 S
C1047 C1046 1.414 . S
C1047 C1048 1.374 . S
C1048 H1022 0.950 1_545 S
C1048 C1044 1.385 . S
C1048 C1047 1.374 . S
C1049 C1046 1.499 . S
C1049 C1050 1.373 . S
C1049 C1051 1.389 . S
C1050 H1023 0.950 1_545 S
C1050 C1036 1.377 . S
C1050 C1049 1.373 . S
C1051 C1035 1.377 . S
C1051 C1049 1.389 . S
C1051 C1052 1.524 . S
C1052 C1051 1.524 . S
C1052 C1053 1.397 . S
C1052 C1057 1.363 . S
C1053 H1024 0.950 . S
C1053 C1052 1.397 . S
C1053 C1054 1.334 . S
C1054 H1025 0.950 . S
C1054 C1053 1.334 . S
C1054 C1055 1.287 . S
C1055 C1054 1.287 . S
C1055 C1056 1.524 . S
C1055 H1058 0.999 . S
C1056 H1026 0.950 . S
C1056 C1055 1.524 . S
C1056 C1057 1.415 . S
C1057 H1027 0.950 . S
C1057 C1052 1.363 . S
C1057 C1056 1.415 . S
H1058 C1055 0.999 . S
H1059 C1040 0.913 . S
H1060 C1078 0.951 . S
H1061 C1080 0.951 . S
H1062 C1082 0.950 . S
H1063 C1083 0.950 . S
H1064 C1085 0.950 . S
H1065 C1088 0.950 . S
H1066 C1089 0.950 . S
H1067 C1091 0.950 . S
H1068 C1092 0.950 . S
H1069 C1093 0.951 . S
H1070 C1095 0.951 . S
H1071 C1097 0.950 . S
H1072 C1098 0.950 . S
H1073 C1100 0.950 . S
H1074 C1103 0.950 . S
H1075 C1104 0.950 . S
H1076 C1106 0.950 . S
H1077 C1107 0.950 . S
C1078 H1060 0.951 . S
C1078 C1079 1.366 . S
C1078 C1080 1.388 . S
C1079 C1078 1.366 . S
C1079 C1083 1.385 . S
C1080 H1061 0.951 . S
C1080 C1078 1.388 . S
C1080 C1081 1.366 . S
C1081 C1080 1.366 . S
C1081 C1082 1.414 . S
C1081 C1084 1.499 . S
C1082 H1062 0.950 . S
C1082 C1081 1.414 . S
C1082 C1083 1.374 . S
C1083 H1063 0.950 . S
C1083 C1079 1.385 . S
C1083 C1082 1.374 . S
C1084 C1081 1.499 . S
C1084 C1085 1.373 . S
C1084 C1086 1.389 . S
C1085 H1064 0.950 . S
C1085 C1084 1.373 . S
C1085 C1101 1.377 . S
C1086 C1084 1.389 . S
C1086 C1087 1.524 . S
C1086 C1100 1.377 . S
C1087 C1086 1.524 . S
C1087 C1088 1.397 . S
C1087 C1092 1.363 . S
C1088 H1065 0.950 . S
C1088 C1087 1.397 . S
C1088 C1089 1.334 . S
C1089 H1066 0.950 . S
C1089 C1088 1.334 . S
C1089 C1090 1.287 . S
C1090 C1089 1.287 . S
C1090 C1091 1.524 . S
C1090 H1109 0.913 . S
C1091 H1067 0.950 . S
C1091 C1090 1.524 . S
C1091 C1092 1.415 . S
C1092 H1068 0.950 . S
C1092 C1087 1.363 . S
C1092 C1091 1.415 . S
C1093 H1069 0.951 . S
C1093 C1094 1.366 . S
C1093 C1095 1.388 . S
C1094 C1093 1.366 . S
C1094 C1098 1.385 . S
C1095 H1070 0.951 . S
C1095 C1093 1.388 . S
C1095 C1096 1.366 . S
C1096 C1095 1.366 . S
C1096 C1097 1.414 . S
C1096 C1099 1.499 . S
C1097 H1071 0.950 . S
C1097 C1096 1.414 . S
C1097 C1098 1.374 . S
C1098 H1072 0.950 . S
C1098 C1094 1.385 . S
C1098 C1097 1.374 . S
C1099 C1096 1.499 . S
C1099 C1100 1.373 . S
C1099 C1101 1.389 . S
C1100 H1073 0.950 . S
C1100 C1086 1.377 . S
C1100 C1099 1.373 . S
C1101 C1085 1.377 . S
C1101 C1099 1.389 . S
C1101 C1102 1.524 . S
C1102 C1101 1.524 . S
C1102 C1103 1.397 . S
C1102 C1107 1.363 . S
C1103 H1074 0.950 . S
C1103 C1102 1.397 . S
C1103 C1104 1.334 . S
C1104 H1075 0.950 . S
C1104 C1103 1.334 . S
C1104 C1105 1.287 . S
C1105 C1104 1.287 . S
C1105 C1106 1.524 . S
C1105 H1108 0.999 . S
C1106 H1076 0.950 . S
C1106 C1105 1.524 . S
C1106 C1107 1.415 . S
C1107 H1077 0.950 . S
C1107 C1102 1.363 . S
C1107 C1106 1.415 . S
H1108 C1105 0.999 . S
H1109 C1090 0.913 . S
H1110 C1128 0.951 . S
H1111 C1130 0.951 . S
H1112 C1132 0.950 . S
H1113 C1133 0.950 . S
H1114 C1135 0.956 . S
H1115 C1138 0.950 . S
H1116 C1139 0.950 . S
H1117 C1141 0.950 . S
H1118 C1142 0.950 . S
H1119 C1143 0.951 . S
H1120 C1145 0.951 . S
H1121 C1147 0.950 . S
H1122 C1148 0.950 . S
H1123 C1150 0.950 . S
H1124 C1153 0.950 . S
H1125 C1154 0.950 . S
H1126 C1156 0.950 . S
H1127 C1157 0.950 . S
C1128 H1110 0.951 . S
C1128 C1129 1.366 . S
C1128 C1130 1.388 . S
C1129 C1128 1.366 . S
C1129 C1133 1.385 . S
C1130 H1111 0.951 . S
C1130 C1128 1.388 . S
C1130 C1131 1.366 . S
C1131 C1130 1.366 . S
C1131 C1132 1.414 . S
C1131 C1134 1.499 . S
C1132 H1112 0.950 . S
C1132 C1131 1.414 . S
C1132 C1133 1.374 . S
C1133 H1113 0.950 . S
C1133 C1129 1.385 . S
C1133 C1132 1.374 . S
C1134 C1131 1.499 . S
C1134 C1135 1.367 1_545 S
C1134 C1136 1.389 . S
C1135 H1114 0.956 . S
C1135 C1134 1.367 1_565 S
C1135 C1151 1.377 . S
C1136 C1134 1.389 . S
C1136 C1137 1.524 . S
C1136 C1150 1.377 . S
C1137 C1136 1.524 . S
C1137 C1138 1.397 . S
C1137 C1142 1.363 . S
C1138 H1115 0.950 . S
C1138 C1137 1.397 . S
C1138 C1139 1.334 . S
C1139 H1116 0.950 . S
C1139 C1138 1.334 . S
C1139 C1140 1.287 . S
C1140 C1139 1.287 . S
C1140 C1141 1.524 . S
C1140 H1159 0.913 . S
C1141 H1117 0.950 . S
C1141 C1140 1.524 . S
C1141 C1142 1.415 . S
C1142 H1118 0.950 . S
C1142 C1137 1.363 . S
C1142 C1141 1.415 . S
C1143 H1119 0.951 . S
C1143 C1144 1.366 . S
C1143 C1145 1.388 . S
C1144 C1143 1.366 . S
C1144 C1148 1.385 . S
C1145 H1120 0.951 . S
C1145 C1143 1.388 . S
C1145 C1146 1.366 . S
C1146 C1145 1.366 . S
C1146 C1147 1.414 . S
C1146 C1149 1.499 . S
C1147 H1121 0.950 . S
C1147 C1146 1.414 . S
C1147 C1148 1.374 . S
C1148 H1122 0.950 . S
C1148 C1144 1.385 . S
C1148 C1147 1.374 . S
C1149 C1146 1.499 . S
C1149 C1150 1.373 . S
C1149 C1151 1.389 1_545 S
C1150 H1123 0.950 . S
C1150 C1136 1.377 . S
C1150 C1149 1.373 . S
C1151 C1135 1.377 . S
C1151 C1149 1.389 1_565 S
C1151 C1152 1.524 . S
C1152 C1151 1.524 . S
C1152 C1153 1.397 . S
C1152 C1157 1.363 . S
C1153 H1124 0.950 . S
C1153 C1152 1.397 . S
C1153 C1154 1.334 . S
C1154 H1125 0.950 . S
C1154 C1153 1.334 . S
C1154 C1155 1.287 . S
C1155 C1154 1.287 . S
C1155 C1156 1.524 . S
C1155 H1158 0.999 . S
C1156 H1126 0.950 . S
C1156 C1155 1.524 . S
C1156 C1157 1.415 . S
C1157 H1127 0.950 . S
C1157 C1152 1.363 . S
C1157 C1156 1.415 . S
H1158 C1155 0.999 . S
H1159 C1140 0.913 . S
H1160 C1178 0.951 . S
H1161 C1180 0.951 . S
H1162 C1182 0.950 . S
H1163 C1183 0.950 . S
H1164 C1185 0.950 . S
H1165 C1188 0.950 . S
H1166 C1189 0.950 . S
H1167 C1191 0.950 . S
H1168 C1192 0.950 . S
H1169 C1193 0.951 . S
H1170 C1195 0.951 . S
H1171 C1197 0.950 . S
H1172 C1198 0.950 . S
H1173 C1200 0.950 . S
H1174 C1203 0.950 . S
H1175 C1204 0.950 . S
H1176 C1206 0.950 . S
H1177 C1207 0.950 . S
C1178 H1160 0.951 . S
C1178 C1179 1.366 . S
C1178 C1180 1.388 . S
C1179 C1178 1.366 . S
C1179 C1183 1.385 . S
C1180 H1161 0.951 . S
C1180 C1178 1.388 . S
C1180 C1181 1.366 . S
C1181 C1180 1.366 . S
C1181 C1182 1.414 . S
C1181 C1184 1.499 . S
C1182 H1162 0.950 . S
C1182 C1181 1.414 . S
C1182 C1183 1.374 . S
C1183 H1163 0.950 . S
C1183 C1179 1.385 . S
C1183 C1182 1.374 . S
C1184 C1181 1.499 . S
C1184 C1185 1.373 . S
C1184 C1186 1.389 . S
C1185 H1164 0.950 . S
C1185 C1184 1.373 . S
C1185 C1201 1.377 . S
C1186 C1184 1.389 . S
C1186 C1187 1.524 . S
C1186 C1200 1.377 . S
C1187 C1186 1.524 . S
C1187 C1188 1.397 . S
C1187 C1192 1.363 . S
C1188 H1165 0.950 . S
C1188 C1187 1.397 . S
C1188 C1189 1.334 . S
C1189 H1166 0.950 . S
C1189 C1188 1.334 . S
C1189 C1190 1.287 . S
C1190 C1189 1.287 . S
C1190 C1191 1.524 . S
C1190 H1209 0.913 . S
C1191 H1167 0.950 . S
C1191 C1190 1.524 . S
C1191 C1192 1.415 . S
C1192 H1168 0.950 . S
C1192 C1187 1.363 . S
C1192 C1191 1.415 . S
C1193 H1169 0.951 . S
C1193 C1194 1.366 . S
C1193 C1195 1.388 1_554 S
C1194 C1193 1.366 . S
C1194 C1198 1.385 . S
C1195 H1170 0.951 . S
C1195 C1193 1.388 1_556 S
C1195 C1196 1.366 . S
C1196 C1195 1.366 . S
C1196 C1197 1.414 . S
C1196 C1199 1.499 . S
C1197 H1171 0.950 . S
C1197 C1196 1.414 . S
C1197 C1198 1.374 1_556 S
C1198 H1172 0.950 . S
C1198 C1194 1.385 . S
C1198 C1197 1.374 1_554 S
C1199 C1196 1.499 . S
C1199 C1200 1.373 . S
C1199 C1201 1.389 . S
C1200 H1173 0.950 . S
C1200 C1186 1.377 . S
C1200 C1199 1.373 . S
C1201 C1185 1.377 . S
C1201 C1199 1.389 . S
C1201 C1202 1.524 . S
C1202 C1201 1.524 . S
C1202 C1203 1.397 . S
C1202 C1207 1.363 . S
C1203 H1174 0.950 . S
C1203 C1202 1.397 . S
C1203 C1204 1.334 . S
C1204 H1175 0.950 . S
C1204 C1203 1.334 . S
C1204 C1205 1.287 . S
C1205 C1204 1.287 . S
C1205 C1206 1.524 . S
C1205 H1208 0.999 . S
C1206 H1176 0.950 . S
C1206 C1205 1.524 . S
C1206 C1207 1.415 . S
C1207 H1177 0.950 . S
C1207 C1202 1.363 . S
C1207 C1206 1.415 . S
H1208 C1205 0.999 . S
H1209 C1190 0.913 . S
H1210 C1228 0.951 . S
H1211 C1230 0.951 . S
H1212 C1232 0.950 . S
H1213 C1233 0.950 . S
H1214 C1235 0.950 . S
H1215 C1238 0.950 1_455 S
H1216 C1239 0.950 . S
H1217 C1241 0.950 . S
H1218 C1242 0.950 . S
H1219 C1243 0.951 . S
H1220 C1245 0.951 . S
H1221 C1247 0.950 . S
H1222 C1248 0.950 . S
H1223 C1250 0.950 . S
H1224 C1253 0.950 . S
H1225 C1254 0.950 . S
H1226 C1256 0.950 . S
H1227 C1257 0.950 . S
C1228 H1210 0.951 . S
C1228 C1229 1.366 1_655 S
C1228 C1230 1.388 . S
C1229 C1228 1.366 1_455 S
C1229 C1233 1.385 . S
C1230 H1211 0.951 . S
C1230 C1228 1.388 . S
C1230 C1231 1.366 1_655 S
C1231 C1230 1.366 1_455 S
C1231 C1232 1.414 . S
C1231 C1234 1.499 . S
C1232 H1212 0.950 . S
C1232 C1231 1.414 . S
C1232 C1233 1.374 . S
C1233 H1213 0.950 . S
C1233 C1229 1.385 . S
C1233 C1232 1.374 . S
C1234 C1231 1.499 . S
C1234 C1235 1.373 . S
C1234 C1236 1.389 1_455 S
C1235 H1214 0.950 . S
C1235 C1234 1.373 . S
C1235 C1251 1.377 . S
C1236 C1234 1.389 1_655 S
C1236 C1237 1.524 . S
C1236 C1250 1.377 . S
C1237 C1236 1.524 . S
C1237 C1238 1.397 . S
C1237 C1242 1.363 . S
C1238 H1215 0.950 1_655 S
C1238 C1237 1.397 . S
C1238 C1239 1.334 . S
C1239 H1216 0.950 . S
C1239 C1238 1.334 . S
C1239 C1240 1.287 . S
C1240 C1239 1.287 . S
C1240 C1241 1.524 . S
C1240 H1259 0.913 . S
C1241 H1217 0.950 . S
C1241 C1240 1.524 . S
C1241 C1242 1.415 . S
C1242 H1218 0.950 . S
C1242 C1237 1.363 . S
C1242 C1241 1.415 . S
C1243 H1219 0.951 . S
C1243 C1244 1.366 . S
C1243 C1245 1.388 . S
C1244 C1243 1.366 . S
C1244 C1248 1.385 1_455 S
C1245 H1220 0.951 . S
C1245 C1243 1.388 . S
C1245 C1246 1.366 . S
C1246 C1245 1.366 . S
C1246 C1247 1.414 1_455 S
C1246 C1249 1.499 . S
C1247 H1221 0.950 . S
C1247 C1246 1.414 1_655 S
C1247 C1248 1.374 . S
C1248 H1222 0.950 . S
C1248 C1244 1.385 1_655 S
C1248 C1247 1.374 . S
C1249 C1246 1.499 . S
C1249 C1250 1.373 1_455 S
C1249 C1251 1.389 . S
C1250 H1223 0.950 . S
C1250 C1236 1.377 . S
C1250 C1249 1.373 1_655 S
C1251 C1235 1.377 . S
C1251 C1249 1.389 . S
C1251 C1252 1.524 . S
C1252 C1251 1.524 . S
C1252 C1253 1.397 . S
C1252 C1257 1.363 . S
C1253 H1224 0.950 . S
C1253 C1252 1.397 . S
C1253 C1254 1.334 . S
C1254 H1225 0.950 . S
C1254 C1253 1.334 . S
C1254 C1255 1.287 . S
C1255 C1254 1.287 . S
C1255 C1256 1.524 . S
C1255 H1258 0.999 . S
C1256 H1226 0.950 . S
C1256 C1255 1.524 . S
C1256 C1257 1.415 . S
C1257 H1227 0.950 . S
C1257 C1252 1.363 . S
C1257 C1256 1.415 . S
H1258 C1255 0.999 . S
H1259 C1240 0.913 . S
C379 C9 0.416 . S
C394 C335 0.403 . S
C429 C49 0.232 . S
C444 C242 0.241 . S
C479 C89 0.233 . S
C494 C282 0.247 . S
C529 C26 0.309 . S
C544 C322 0.215 . S
C594 C255 0.337 . S
C579 C66 0.399 . S
C644 C295 0.357 . S
C629 C106 0.419 . S
C679 C43 2.905 . S
C694 C162 2.870 . S
C729 C83 3.085 . S
C744 C202 3.043 . S
C779 C22 3.184 . S
C794 C135 3.120 . S
C844 C175 3.110 . S
C829 C62 3.171 . S
C894 C215 2.936 . S
C879 C102 2.986 . S
C929 C3 2.893 . S
C944 C122 2.862 . S
C994 C221 1.756 . S
C979 C15 1.713 . S
C1029 C55 1.726 . S
C1044 C141 1.759 . S
C1079 C95 1.721 . S
C1094 C181 1.754 . S
C1144 C301 1.119 . S
C1129 C42 1.106 . S
C1194 C341 1.123 . S
C1179 C82 1.108 . S
C1229 C2 1.104 . S
C1244 C261 1.119 . S
