# Generated by pormake.
# Topology rtl, (3,6)-cn, num edge types: 1
# Building blocks:
#     Node 0, Type 0, BuildingBlock: WUSLED_clean_sbu_0, # of connection points: 3
#     Node 1, Type 0, BuildingBlock: WUSLED_clean_sbu_0, # of connection points: 3
#     Node 2, Type 0, BuildingBlock: WUSLED_clean_sbu_0, # of connection points: 3
#     Node 3, Type 0, BuildingBlock: WUSLED_clean_sbu_0, # of connection points: 3
#     Node 4, Type 1, BuildingBlock: VOLQOD_clean_sbu_1, # of connection points: 6
#     Node 5, Type 1, BuildingBlock: VOLQOD_clean_sbu_1, # of connection points: 6
#     Edge 6, Type (0, 1), BuildingBlock: UVAHIK_clean_linker_0, # of connection points: 2
#     Edge 7, Type (0, 1), BuildingBlock: UVAHIK_clean_linker_0, # of connection points: 2
#     Edge 8, Type (0, 1), BuildingBlock: UVAHIK_clean_linker_0, # of connection points: 2
#     Edge 9, Type (0, 1), BuildingBlock: UVAHIK_clean_linker_0, # of connection points: 2
#     Edge 10, Type (0, 1), BuildingBlock: UVAHIK_clean_linker_0, # of connection points: 2
#     Edge 11, Type (0, 1), BuildingBlock: UVAHIK_clean_linker_0, # of connection points: 2
#     Edge 12, Type (0, 1), BuildingBlock: UVAHIK_clean_linker_0, # of connection points: 2
#     Edge 13, Type (0, 1), BuildingBlock: UVAHIK_clean_linker_0, # of connection points: 2
#     Edge 14, Type (0, 1), BuildingBlock: UVAHIK_clean_linker_0, # of connection points: 2
#     Edge 15, Type (0, 1), BuildingBlock: UVAHIK_clean_linker_0, # of connection points: 2
#     Edge 16, Type (0, 1), BuildingBlock: UVAHIK_clean_linker_0, # of connection points: 2
#     Edge 17, Type (0, 1), BuildingBlock: UVAHIK_clean_linker_0, # of connection points: 2
# Relax obj value: 0.076
# Max RMSD: 0.155
# Mean RMSD: 0.086
data_MOF--net-rtl--node1-WUSLED_clean_sbu_0--node2-VOLQOD_clean_sbu_1--edge1-UVAHIK_clean_linker_0
_symmetry_space_group_name_H-M    P1
_symmetry_Int_Tables_number       1
_symmetry_cell_setting            triclinic
loop_
_symmetry_equiv_pos_as_xyz
'x, y, z'
_cell_length_a     58.316264
_cell_length_b     50.777688
_cell_length_c     37.590255
_cell_angle_alpha  90.291693
_cell_angle_beta   90.607999
_cell_angle_gamma 89.97129
loop_
_atom_site_label
_atom_site_type_symbol
_atom_site_fract_x
_atom_site_fract_y
_atom_site_fract_z
_atom_type_partial_charge
C0 C 0.13266 0.76185 0.11 0.0
C1 C 0.11749 0.78254 0.10231 0.0
C2 C 0.11087 0.78938 0.16555 0.0
C3 C 0.10674 0.79622 0.12981 0.0
C4 C 0.12583 0.76829 0.17303 0.0
C5 C 0.13665 0.75466 0.14544 0.0
U6 U 0.1402 0.75015 0.01168 0.0
O7 O 0.17109 0.74795 0.97899 0.0
O8 O 0.1478 0.71403 0.98121 0.0
C9 C 0.16767 0.72311 0.97048 0.0
C10 C 0.14462 0.7482 0.0811 0.0
C11 C 0.18748 0.70562 0.97604 0.0
C12 C 0.22078 0.692 0.01073 0.0
C13 C 0.20109 0.70752 0.00696 0.0
C14 C 0.21294 0.6718 0.95334 0.0
C15 C 0.22713 0.67418 0.98374 0.0
C16 C 0.19334 0.68744 0.94952 0.0
C17 C 0.10098 0.78866 0.94836 0.0
C18 C 0.1048 0.7871 0.8841 0.0
C19 C 0.0774 0.81683 0.91107 0.0
C20 C 0.0839 0.80785 0.94474 0.0
C21 C 0.08788 0.80673 0.88031 0.0
C22 C 0.11131 0.77815 0.91789 0.0
C23 C 0.10849 0.78082 0.98414 0.0
O24 O 0.13208 0.73136 0.06269 0.0
O25 O 0.15714 0.76352 0.061 0.0
O26 O 0.12896 0.78921 0.9937 0.0
O27 O 0.10474 0.75613 0.99269 0.0
H28 H 0.11422 0.78834 0.07502 0.0
H29 H 0.09561 0.81257 0.12305 0.0
H30 H 0.12915 0.76227 0.20019 0.0
H31 H 0.14826 0.73865 0.15178 0.0
H32 H 0.23138 0.69456 0.03431 0.0
H33 H 0.19677 0.7214 0.02782 0.0
H34 H 0.21705 0.65795 0.93235 0.0
H35 H 0.18293 0.6856 0.92559 0.0
H36 H 0.11304 0.77872 0.86098 0.0
H37 H 0.06462 0.83226 0.90924 0.0
H38 H 0.07588 0.81628 0.96805 0.0
H39 H 0.12459 0.76331 0.92031 0.0
C40 C 0.63192 0.75899 0.61539 0.0
C41 C 0.61644 0.73861 0.60743 0.0
C42 C 0.61056 0.73111 0.67063 0.0
C43 C 0.60588 0.72477 0.63479 0.0
C44 C 0.62576 0.75197 0.67838 0.0
C45 C 0.63637 0.76576 0.65095 0.0
U46 U 0.64054 0.77011 0.51716 0.0
O47 O 0.64872 0.80604 0.48718 0.0
O48 O 0.67191 0.77199 0.48558 0.0
C49 C 0.66872 0.79683 0.47717 0.0
C50 C 0.64402 0.77249 0.58671 0.0
C51 C 0.68848 0.81419 0.48386 0.0
C52 C 0.72083 0.82791 0.52071 0.0
C53 C 0.70123 0.81246 0.51564 0.0
C54 C 0.71464 0.84776 0.4629 0.0
C55 C 0.72788 0.84553 0.49423 0.0
C56 C 0.69513 0.83214 0.45773 0.0
C57 C 0.60234 0.73114 0.45187 0.0
C58 C 0.61145 0.71327 0.39356 0.0
C59 C 0.5718 0.71885 0.41062 0.0
C60 C 0.57894 0.72907 0.44349 0.0
C61 C 0.58796 0.71023 0.38554 0.0
C62 C 0.61857 0.72371 0.42634 0.0
C63 C 0.60934 0.73947 0.48799 0.0
O64 O 0.65683 0.75707 0.56697 0.0
O65 O 0.63159 0.78911 0.56797 0.0
O66 O 0.60536 0.7642 0.49643 0.0
O67 O 0.62945 0.73097 0.49917 0.0
H68 H 0.61285 0.73311 0.58004 0.0
H69 H 0.59453 0.70863 0.62783 0.0
H70 H 0.62949 0.75762 0.70565 0.0
H71 H 0.64824 0.7815 0.65751 0.0
H72 H 0.73054 0.82601 0.5453 0.0
H73 H 0.69623 0.79885 0.53627 0.0
H74 H 0.71974 0.861 0.44192 0.0
H75 H 0.68546 0.83374 0.43307 0.0
H76 H 0.62439 0.70665 0.37511 0.0
H77 H 0.55358 0.71733 0.40509 0.0
H78 H 0.56615 0.73483 0.46274 0.0
H79 H 0.63677 0.72525 0.43206 0.0
C80 C 0.87399 0.25727 0.11167 0.0
C81 C 0.88914 0.23661 0.10393 0.0
C82 C 0.89536 0.22893 0.16721 0.0
C83 C 0.89971 0.22254 0.13143 0.0
C84 C 0.88044 0.25001 0.17475 0.0
C85 C 0.86983 0.26403 0.14717 0.0
U86 U 0.86536 0.26885 0.01332 0.0
O87 O 0.83401 0.2719 0.9808 0.0
O88 O 0.85813 0.30508 0.98313 0.0
C89 C 0.83793 0.29656 0.97231 0.0
C90 C 0.86204 0.27119 0.08278 0.0
C91 C 0.81862 0.31473 0.9777 0.0
C92 C 0.78626 0.33001 0.01237 0.0
C93 C 0.80554 0.31386 0.00879 0.0
C94 C 0.79346 0.34875 0.9544 0.0
C95 C 0.77978 0.3474 0.98498 0.0
C96 C 0.81266 0.33251 0.95079 0.0
C97 C 0.90279 0.2289 0.94906 0.0
C98 C 0.89378 0.21017 0.89089 0.0
C99 C 0.93336 0.2176 0.90831 0.0
C100 C 0.92617 0.22775 0.94097 0.0
C101 C 0.91728 0.20813 0.88315 0.0
C102 C 0.8866 0.22054 0.92345 0.0
C103 C 0.89583 0.23731 0.98499 0.0
O104 O 0.87475 0.28751 0.06444 0.0
O105 O 0.84886 0.2562 0.06261 0.0
O106 O 0.87551 0.22942 0.99538 0.0
O107 O 0.90041 0.26185 0.99383 0.0
H108 H 0.8925 0.23111 0.07658 0.0
H109 H 0.91083 0.20624 0.12461 0.0
H110 H 0.87696 0.25569 0.20197 0.0
H111 H 0.85822 0.27999 0.15357 0.0
H112 H 0.77603 0.32823 0.03611 0.0
H113 H 0.80995 0.30029 0.02994 0.0
H114 H 0.78924 0.36224 0.93309 0.0
H115 H 0.82266 0.33355 0.92671 0.0
H116 H 0.88091 0.20286 0.87237 0.0
H117 H 0.95156 0.21684 0.903 0.0
H118 H 0.93894 0.23421 0.96026 0.0
H119 H 0.86841 0.22132 0.92891 0.0
C120 C 0.37676 0.26074 0.40006 0.0
C121 C 0.39239 0.28074 0.40901 0.0
C122 C 0.39838 0.28977 0.34627 0.0
C123 C 0.40309 0.29516 0.38235 0.0
C124 C 0.38314 0.26921 0.33745 0.0
C125 C 0.37235 0.25485 0.3642 0.0
U126 U 0.36714 0.24934 0.49774 0.0
O127 O 0.33551 0.24733 0.52866 0.0
O128 O 0.3589 0.21341 0.52773 0.0
C129 C 0.33882 0.22258 0.53746 0.0
C130 C 0.36435 0.24692 0.42814 0.0
C131 C 0.31915 0.20495 0.53144 0.0
C132 C 0.28537 0.19184 0.49733 0.0
C133 C 0.30498 0.20747 0.50122 0.0
C134 C 0.29441 0.17024 0.55308 0.0
C135 C 0.27966 0.17328 0.52349 0.0
C136 C 0.31392 0.186 0.55703 0.0
C137 C 0.40402 0.28838 0.56415 0.0
C138 C 0.3931 0.30203 0.62367 0.0
C139 C 0.43299 0.30352 0.6064 0.0
C140 C 0.427 0.29379 0.5727 0.0
C141 C 0.41604 0.30822 0.63198 0.0
C142 C 0.38715 0.29204 0.59011 0.0
C143 C 0.39786 0.28024 0.52764 0.0
O144 O 0.37669 0.23038 0.44718 0.0
O145 O 0.35117 0.26214 0.44757 0.0
O146 O 0.37786 0.2886 0.51583 0.0
O147 O 0.40207 0.25554 0.51931 0.0
H148 H 0.39604 0.28547 0.43664 0.0
H149 H 0.41497 0.31062 0.38999 0.0
H150 H 0.37903 0.26475 0.3099 0.0
H151 H 0.36027 0.2395 0.35689 0.0
H152 H 0.27432 0.1949 0.47439 0.0
H153 H 0.3088 0.22194 0.48104 0.0
H154 H 0.2908 0.15581 0.57337 0.0
H155 H 0.32475 0.18366 0.5804 0.0
H156 H 0.37973 0.30517 0.64303 0.0
H157 H 0.45078 0.30829 0.61199 0.0
H158 H 0.44025 0.29107 0.55303 0.0
H159 H 0.36931 0.28774 0.58421 0.0
O160 O 0.94797 0.00263 0.50779 0.0
Zn161 Zn 0.97482 0.02771 0.50834 0.0
O162 O 0.00397 0.00836 0.50731 0.0
Zn163 Zn 0.02213 0.01741 0.54955 0.0
Zn164 Zn 0.99807 0.97032 0.50717 0.0
Zn165 Zn 0.02104 0.01804 0.4646 0.0
O166 O 0.05205 0.03419 0.53642 0.0
O167 O 0.05174 0.0343 0.47739 0.0
O168 O 0.97238 0.05045 0.55257 0.0
O169 O 0.00525 0.04279 0.58093 0.0
O170 O 0.02919 0.98545 0.57909 0.0
O171 O 0.01227 0.95253 0.55006 0.0
O172 O 0.0112 0.95307 0.4634 0.0
O173 O 0.97155 0.05131 0.46562 0.0
O174 O 0.02694 0.9861 0.43384 0.0
O175 O 0.0034 0.04451 0.43508 0.0
C176 C 0.94632 0.9776 0.50783 0.0
C177 C 0.06158 0.03954 0.50701 0.0
C178 C 0.02416 0.96113 0.57627 0.0
C179 C 0.98587 0.05426 0.57899 0.0
C180 C 0.02213 0.96172 0.43673 0.0
C181 C 0.98411 0.05592 0.43883 0.0
O182 O 0.96408 0.96298 0.50779 0.0
O183 O 0.55939 0.50393 0.00907 0.0
Zn184 Zn 0.5324 0.52898 0.00913 0.0
O185 O 0.50322 0.50969 0.00681 0.0
Zn186 Zn 0.48622 0.51976 0.96381 0.0
Zn187 Zn 0.50925 0.47169 0.00582 0.0
Zn188 Zn 0.48479 0.51833 0.04849 0.0
O189 O 0.45591 0.53639 0.97579 0.0
O190 O 0.45448 0.53495 0.0347 0.0
O191 O 0.53573 0.5529 0.96678 0.0
O192 O 0.50398 0.54606 0.93497 0.0
O193 O 0.47965 0.48814 0.93274 0.0
O194 O 0.49628 0.45488 0.9612 0.0
O195 O 0.49516 0.45344 0.04796 0.0
O196 O 0.53458 0.55143 0.05367 0.0
O197 O 0.47825 0.48599 0.07735 0.0
O198 O 0.50158 0.54369 0.08064 0.0
C199 C 0.561 0.47891 0.00818 0.0
C200 C 0.44551 0.54099 0.00478 0.0
C201 C 0.48481 0.46382 0.93488 0.0
C202 C 0.52322 0.55752 0.93951 0.0
C203 C 0.48341 0.46172 0.07412 0.0
C204 C 0.52098 0.55515 0.07955 0.0
O205 O 0.54319 0.46439 0.007 0.0
C206 C 0.24471 0.15355 0.55124 0.0
C207 C 0.25791 0.15802 0.52077 0.0
C208 C 0.22385 0.14015 0.54876 0.0
C209 C 0.18961 0.09568 0.49057 0.0
H210 H 0.13924 0.12129 0.54776 0.0
C211 C 0.09623 0.05712 0.47568 0.0
C212 C 0.08443 0.05238 0.50747 0.0
C213 C 0.11762 0.06961 0.47634 0.0
C214 C 0.15319 0.11375 0.53186 0.0
H215 H 0.25962 0.15134 0.46381 0.0
H216 H 0.22288 0.12853 0.45933 0.0
H217 H 0.17609 0.14373 0.55055 0.0
H218 H 0.08606 0.05689 0.56492 0.0
H219 H 0.12325 0.07858 0.56598 0.0
H220 H 0.16647 0.06578 0.47172 0.0
C221 C 0.22884 0.13514 0.48526 0.0
C222 C 0.17435 0.12657 0.5335 0.0
C223 C 0.24979 0.14849 0.48776 0.0
C224 C 0.09459 0.06027 0.5399 0.0
C225 C 0.11587 0.07286 0.54053 0.0
C226 C 0.16836 0.08289 0.48881 0.0
C227 C 0.21553 0.131 0.5157 0.0
C228 C 0.19289 0.11758 0.51312 0.0
C229 C 0.12758 0.07778 0.50878 0.0
C230 C 0.14999 0.09168 0.50968 0.0
H231 H 0.25023 0.16088 0.57704 0.0
H232 H 0.21424 0.13696 0.57284 0.0
H233 H 0.20358 0.08805 0.47481 0.0
H234 H 0.08892 0.05128 0.45023 0.0
H235 H 0.12616 0.07332 0.45142 0.0
C236 C 0.25642 0.64868 0.01939 0.0
C237 C 0.24891 0.65897 0.98659 0.0
C238 C 0.27737 0.63536 0.02214 0.0
C239 C 0.33288 0.62805 0.9761 0.0
H240 H 0.33974 0.56606 0.03509 0.0
C241 C 0.41332 0.56244 0.97098 0.0
C242 C 0.42266 0.55383 0.00356 0.0
C243 C 0.39199 0.57495 0.9697 0.0
C244 C 0.33813 0.5835 0.01879 0.0
H245 H 0.25768 0.66319 0.93094 0.0
H246 H 0.2937 0.63933 0.93549 0.0
H247 H 0.3026 0.58819 0.03122 0.0
H248 H 0.41666 0.55143 0.06034 0.0
H249 H 0.37939 0.57332 0.05802 0.0
H250 H 0.36831 0.62325 0.96344 0.0
C251 C 0.2836 0.6419 0.95926 0.0
C252 C 0.31686 0.59621 0.01659 0.0
C253 C 0.26273 0.65527 0.95655 0.0
C254 C 0.41001 0.55781 0.03479 0.0
C255 C 0.38858 0.57023 0.03347 0.0
C256 C 0.35406 0.6153 0.97819 0.0
C257 C 0.2913 0.63199 0.99214 0.0
C258 C 0.31395 0.61857 0.99506 0.0
C259 C 0.37941 0.57907 0.00092 0.0
C260 C 0.35692 0.59282 0.9994 0.0
H261 H 0.2461 0.6509 0.043 0.0
H262 H 0.28284 0.62815 0.04793 0.0
H263 H 0.33141 0.64555 0.95988 0.0
H264 H 0.42251 0.55966 0.94637 0.0
H265 H 0.38525 0.58121 0.94415 0.0
C266 C 0.75047 0.88747 0.48941 0.0
C267 C 0.74948 0.86072 0.49861 0.0
C268 C 0.77108 0.90142 0.49242 0.0
C269 C 0.82927 0.89835 0.53401 0.0
H270 H 0.84472 0.94793 0.45988 0.0
C271 C 0.92094 0.93811 0.51442 0.0
C272 C 0.9233 0.96523 0.50806 0.0
C273 C 0.89925 0.92642 0.51476 0.0
C274 C 0.84053 0.93435 0.48098 0.0
H275 H 0.76934 0.82754 0.51786 0.0
H276 H 0.80533 0.85162 0.52253 0.0
H277 H 0.8077 0.92563 0.45794 0.0
H278 H 0.90463 0.00132 0.49694 0.0
H279 H 0.86678 0.98077 0.49722 0.0
H280 H 0.86242 0.90665 0.55646 0.0
C281 C 0.79012 0.86211 0.51384 0.0
C282 C 0.81928 0.92162 0.47996 0.0
C283 C 0.76949 0.84825 0.5111 0.0
C284 C 0.90345 0.98038 0.50195 0.0
C285 C 0.88177 0.96861 0.50194 0.0
C286 C 0.85058 0.91092 0.53484 0.0
C287 C 0.79122 0.88885 0.50442 0.0
C288 C 0.81343 0.9033 0.50634 0.0
C289 C 0.87945 0.94152 0.50842 0.0
C290 C 0.85649 0.92892 0.50821 0.0
H291 H 0.73525 0.89767 0.48008 0.0
H292 H 0.77119 0.92209 0.48549 0.0
H293 H 0.8252 0.88479 0.55517 0.0
H294 H 0.93584 0.92585 0.51928 0.0
H295 H 0.89801 0.90544 0.51946 0.0
C296 C 0.74397 0.36636 0.9576 0.0
C297 C 0.75832 0.36316 0.98758 0.0
C298 C 0.72328 0.38005 0.9602 0.0
C299 C 0.69116 0.42708 0.01672 0.0
H300 H 0.63857 0.39802 0.96625 0.0
C301 C 0.60401 0.48167 0.00571 0.0
C302 C 0.58398 0.46635 0.00779 0.0
C303 C 0.62558 0.46966 0.00412 0.0
C304 C 0.65301 0.4063 0.98077 0.0
H305 H 0.76233 0.37259 0.04366 0.0
H306 H 0.72591 0.39593 0.04839 0.0
H307 H 0.67555 0.3762 0.96207 0.0
H308 H 0.57106 0.42634 0.01069 0.0
H309 H 0.60857 0.40552 0.00845 0.0
H310 H 0.66838 0.45684 0.03612 0.0
C311 C 0.73082 0.38806 0.02275 0.0
C312 C 0.67433 0.39397 0.97797 0.0
C313 C 0.75158 0.3744 0.02013 0.0
C314 C 0.58608 0.43877 0.00883 0.0
C315 C 0.60761 0.4268 0.00734 0.0
C316 C 0.66979 0.43942 0.01956 0.0
C317 C 0.7163 0.39081 0.99287 0.0
C318 C 0.69368 0.40419 0.99587 0.0
C319 C 0.62762 0.44206 0.00464 0.0
C320 C 0.65044 0.42913 0.00167 0.0
H321 H 0.74844 0.35773 0.9322 0.0
H322 H 0.71269 0.38212 0.93653 0.0
H323 H 0.70575 0.43561 0.0306 0.0
H324 H 0.60305 0.50296 0.00479 0.0
H325 H 0.64062 0.482 0.00169 0.0
C326 C 0.1127 0.81109 0.22579 0.0
C327 C 0.10011 0.80474 0.1948 0.0
C328 C 0.10299 0.82664 0.25248 0.0
C329 C 0.05841 0.87664 0.26634 0.0
H330 H 0.06833 0.86131 0.3663 0.0
C331 C 0.04027 0.95227 0.37776 0.0
C332 C 0.02968 0.94303 0.40874 0.0
C333 C 0.04773 0.93464 0.35165 0.0
C334 C 0.06525 0.86574 0.3385 0.0
H335 H 0.06709 0.80902 0.16828 0.0
H336 H 0.05027 0.83639 0.21471 0.0
H337 H 0.08308 0.83117 0.32115 0.0
H338 H 0.01853 0.90791 0.43635 0.0
H339 H 0.03156 0.87721 0.39072 0.0
H340 H 0.04058 0.9112 0.28365 0.0
C341 C 0.06777 0.82958 0.2181 0.0
C342 C 0.07389 0.84862 0.31266 0.0
C343 C 0.07743 0.81393 0.19148 0.0
C344 C 0.02664 0.91574 0.41287 0.0
C345 C 0.03422 0.89811 0.38682 0.0
C346 C 0.04989 0.89384 0.29217 0.0
C347 C 0.08051 0.83629 0.24876 0.0
C348 C 0.07065 0.85394 0.27629 0.0
C349 C 0.04488 0.90736 0.35595 0.0
C350 C 0.05332 0.88866 0.32853 0.0
H351 H 0.13031 0.80471 0.22902 0.0
H352 H 0.11335 0.83175 0.27558 0.0
H353 H 0.05581 0.88142 0.23854 0.0
H354 H 0.04291 0.97314 0.37368 0.0
H355 H 0.05612 0.94237 0.32835 0.0
C356 C 0.57743 0.7065 0.69706 0.0
C357 C 0.60023 0.71543 0.69971 0.0
C358 C 0.56814 0.69068 0.7236 0.0
C359 C 0.57605 0.67077 0.81736 0.0
H360 H 0.5412 0.60912 0.78846 0.0
C361 C 0.55302 0.58827 0.91577 0.0
C362 C 0.53125 0.57654 0.91253 0.0
C363 C 0.56066 0.60603 0.89021 0.0
C364 C 0.55061 0.62644 0.79704 0.0
H365 H 0.63106 0.71466 0.73251 0.0
H366 H 0.61477 0.6873 0.77888 0.0
H367 H 0.55563 0.63904 0.74342 0.0
H368 H 0.50036 0.57458 0.87989 0.0
H369 H 0.51358 0.6058 0.83561 0.0
H370 H 0.57107 0.65819 0.87097 0.0
C371 C 0.60402 0.69278 0.75644 0.0
C372 C 0.55889 0.64359 0.7712 0.0
C373 C 0.61334 0.70852 0.72986 0.0
C374 C 0.51726 0.58312 0.88317 0.0
C375 C 0.5249 0.60094 0.85765 0.0
C376 C 0.5677 0.65368 0.84322 0.0
C377 C 0.58137 0.6835 0.75348 0.0
C378 C 0.57183 0.66585 0.78105 0.0
C379 C 0.54671 0.61257 0.86081 0.0
C380 C 0.55501 0.6312 0.83336 0.0
H381 H 0.56672 0.7118 0.6745 0.0
H382 H 0.55052 0.68416 0.7208 0.0
H383 H 0.58568 0.68797 0.82583 0.0
H384 H 0.56429 0.5836 0.93795 0.0
H385 H 0.57768 0.61431 0.89321 0.0
C386 C 0.89295 0.20643 0.22648 0.0
C387 C 0.90583 0.21314 0.19643 0.0
C388 C 0.90244 0.1907 0.25326 0.0
C389 C 0.9476 0.14134 0.26903 0.0
H390 H 0.93623 0.15649 0.3685 0.0
C391 C 0.98988 0.08124 0.38236 0.0
C392 C 0.97603 0.07486 0.41148 0.0
C393 C 0.98215 0.09896 0.35651 0.0
C394 C 0.93937 0.15183 0.34083 0.0
H395 H 0.93908 0.20914 0.1716 0.0
H396 H 0.95556 0.18153 0.21826 0.0
H397 H 0.92131 0.18608 0.32288 0.0
H398 H 0.94312 0.08219 0.43615 0.0
H399 H 0.92959 0.11273 0.39089 0.0
H400 H 0.9654 0.10691 0.28688 0.0
C401 C 0.938 0.18819 0.22082 0.0
C402 C 0.93084 0.16881 0.3147 0.0
C403 C 0.92854 0.204 0.19408 0.0
C404 C 0.95431 0.08669 0.41416 0.0
C405 C 0.94658 0.10437 0.3883 0.0
C406 C 0.95607 0.12431 0.29516 0.0
C407 C 0.92501 0.18123 0.25062 0.0
C408 C 0.93475 0.16369 0.27849 0.0
C409 C 0.96039 0.11071 0.35913 0.0
C410 C 0.95196 0.12926 0.33138 0.0
H411 H 0.87529 0.21275 0.22891 0.0
H412 H 0.89186 0.18539 0.27562 0.0
H413 H 0.95063 0.13663 0.24134 0.0
H414 H 0.00674 0.0726 0.37949 0.0
H415 H 0.99336 0.10366 0.33463 0.0
C416 C 0.40917 0.34236 0.67885 0.0
C417 C 0.42209 0.32094 0.66641 0.0
C418 C 0.41554 0.35552 0.71013 0.0
C419 C 0.46556 0.36635 0.77019 0.0
H420 H 0.41955 0.3977 0.83097 0.0
C421 C 0.48734 0.42057 0.90251 0.0
C422 C 0.47727 0.4456 0.90617 0.0
C423 C 0.48044 0.40362 0.87498 0.0
C424 C 0.43257 0.38909 0.81416 0.0
H425 H 0.45139 0.29594 0.67745 0.0
H426 H 0.46222 0.31844 0.7327 0.0
H427 H 0.4076 0.37037 0.78058 0.0
H428 H 0.45179 0.47226 0.88413 0.0
H429 H 0.43956 0.44248 0.83645 0.0
H430 H 0.49048 0.38495 0.80426 0.0
C431 C 0.44749 0.32555 0.71784 0.0
C432 C 0.42576 0.37352 0.78519 0.0
C433 C 0.44125 0.31257 0.68629 0.0
C434 C 0.45995 0.45316 0.882 0.0
C435 C 0.45283 0.43606 0.85483 0.0
C436 C 0.47236 0.38166 0.79946 0.0
C437 C 0.43486 0.3474 0.72998 0.0
C438 C 0.44215 0.36229 0.76244 0.0
C439 C 0.46308 0.41119 0.85094 0.0
C440 C 0.45592 0.3935 0.82139 0.0
H441 H 0.39453 0.34951 0.66378 0.0
H442 H 0.40564 0.37255 0.71813 0.0
H443 H 0.47869 0.3584 0.75303 0.0
H444 H 0.50076 0.41418 0.92065 0.0
H445 H 0.48854 0.38449 0.87264 0.0
C446 C 0.59222 0.70019 0.32015 0.0
C447 C 0.5804 0.69666 0.35222 0.0
C448 C 0.58593 0.68598 0.28957 0.0
C449 C 0.55495 0.62532 0.26242 0.0
H450 H 0.55609 0.65613 0.16827 0.0
C451 C 0.51487 0.57354 0.14064 0.0
C452 C 0.52794 0.57266 0.10943 0.0
C453 C 0.52163 0.58936 0.16934 0.0
C454 C 0.5559 0.64723 0.19439 0.0
H455 H 0.55246 0.67552 0.37693 0.0
H456 H 0.54099 0.65168 0.32357 0.0
H457 H 0.56682 0.68291 0.22008 0.0
H458 H 0.55818 0.5882 0.08374 0.0
H459 H 0.5699 0.61603 0.13403 0.0
H460 H 0.54373 0.58981 0.23683 0.0
C461 C 0.55544 0.66501 0.32214 0.0
C462 C 0.56207 0.66253 0.22407 0.0
C463 C 0.5618 0.67905 0.35268 0.0
C464 C 0.54775 0.58836 0.10742 0.0
C465 C 0.55441 0.6044 0.13611 0.0
C466 C 0.54864 0.61015 0.23287 0.0
C467 C 0.56762 0.66797 0.29033 0.0
C468 C 0.56151 0.65179 0.25849 0.0
C469 C 0.54153 0.60484 0.16748 0.0
C470 C 0.5489 0.62096 0.19857 0.0
H471 H 0.60645 0.71382 0.31868 0.0
H472 H 0.59578 0.68866 0.26561 0.0
H473 H 0.55486 0.61618 0.28838 0.0
H474 H 0.49949 0.56177 0.14314 0.0
H475 H 0.5112 0.58955 0.19303 0.0
C476 C 0.91276 0.19764 0.81777 0.0
C477 C 0.92499 0.19476 0.85 0.0
C478 C 0.91926 0.18362 0.78735 0.0
C479 C 0.95196 0.12424 0.76091 0.0
H480 H 0.94887 0.15459 0.66652 0.0
C481 C 0.99211 0.07324 0.63993 0.0
C482 C 0.9788 0.07181 0.60856 0.0
C483 C 0.98524 0.089 0.66841 0.0
C484 C 0.94962 0.14581 0.69271 0.0
H485 H 0.95388 0.17498 0.87514 0.0
H486 H 0.96565 0.15145 0.82204 0.0
H487 H 0.93784 0.18113 0.71806 0.0
H488 H 0.94799 0.08635 0.58237 0.0
H489 H 0.93606 0.11406 0.63229 0.0
H490 H 0.96399 0.08908 0.73568 0.0
C491 C 0.95075 0.16413 0.82037 0.0
C492 C 0.94328 0.16097 0.72223 0.0
C493 C 0.94419 0.17799 0.85077 0.0
C494 C 0.95862 0.08694 0.60616 0.0
C495 C 0.95184 0.10291 0.63465 0.0
C496 C 0.95842 0.1092 0.73151 0.0
C497 C 0.93818 0.16644 0.78841 0.0
C498 C 0.94452 0.15041 0.75674 0.0
C499 C 0.96497 0.10387 0.6662 0.0
C500 C 0.95746 0.11985 0.69712 0.0
H501 H 0.89806 0.21063 0.81607 0.0
H502 H 0.9091 0.18577 0.76326 0.0
H503 H 0.9526 0.11521 0.78695 0.0
H504 H 0.00778 0.06193 0.64274 0.0
H505 H 0.99588 0.08961 0.6922 0.0
C506 C 0.41745 0.29475 0.28697 0.0
C507 C 0.40868 0.30624 0.31809 0.0
C508 C 0.42691 0.31048 0.26042 0.0
C509 C 0.45033 0.37745 0.24494 0.0
H510 H 0.43735 0.36148 0.14577 0.0
C511 C 0.46558 0.45217 0.13303 0.0
C512 C 0.47576 0.44291 0.10161 0.0
C513 C 0.45857 0.4346 0.15921 0.0
C514 C 0.44134 0.36601 0.17333 0.0
H515 H 0.4025 0.34324 0.34539 0.0
H516 H 0.41868 0.37063 0.29909 0.0
H517 H 0.42299 0.33238 0.19196 0.0
H518 H 0.48644 0.4078 0.07307 0.0
H519 H 0.47403 0.37709 0.11885 0.0
H520 H 0.46826 0.41137 0.22629 0.0
C521 C 0.41883 0.34945 0.29547 0.0
C522 C 0.43316 0.34931 0.19982 0.0
C523 C 0.4095 0.33375 0.32203 0.0
C524 C 0.47866 0.41561 0.09694 0.0
C525 C 0.47146 0.398 0.12307 0.0
C526 C 0.45837 0.39419 0.2185 0.0
C527 C 0.42769 0.33804 0.26434 0.0
C528 C 0.43735 0.35498 0.23599 0.0
C529 C 0.46143 0.40733 0.15454 0.0
C530 C 0.45378 0.3888 0.18243 0.0
H531 H 0.41726 0.27358 0.28335 0.0
H532 H 0.43385 0.30101 0.237 0.0
H533 H 0.45431 0.38213 0.27246 0.0
H534 H 0.46307 0.47306 0.13756 0.0
H535 H 0.45062 0.44237 0.18297 0.0
C536 C 0.05897 0.82422 0.83632 0.0
C537 C 0.08179 0.81757 0.84474 0.0
C538 C 0.05352 0.83662 0.80422 0.0
C539 C 0.07998 0.87798 0.73563 0.0
H540 H 0.02242 0.86595 0.6856 0.0
C541 C 0.04347 0.95225 0.63486 0.0
C542 C 0.03199 0.94269 0.60436 0.0
C543 C 0.05045 0.9351 0.6618 0.0
C544 C 0.0387 0.86936 0.69896 0.0
H545 H 0.1167 0.81803 0.82534 0.0
H546 H 0.10711 0.83899 0.76894 0.0
H547 H 0.03299 0.83805 0.73575 0.0
H548 H 0.01911 0.90741 0.57816 0.0
H549 H 0.03159 0.87742 0.62504 0.0
H550 H 0.08583 0.90908 0.69868 0.0
C551 C 0.09346 0.83504 0.78748 0.0
C552 C 0.04464 0.85354 0.728 0.0
C553 C 0.09892 0.82271 0.81965 0.0
C554 C 0.02784 0.91547 0.60134 0.0
C555 C 0.03489 0.89828 0.6283 0.0
C556 C 0.07408 0.89372 0.70657 0.0
C557 C 0.07075 0.84258 0.77965 0.0
C558 C 0.06521 0.85791 0.74701 0.0
C559 C 0.04622 0.9079 0.65892 0.0
C560 C 0.05321 0.88988 0.68821 0.0
H561 H 0.0453 0.82019 0.8548 0.0
H562 H 0.03589 0.84232 0.79927 0.0
H563 H 0.09584 0.88211 0.74982 0.0
H564 H 0.04688 0.97308 0.63822 0.0
H565 H 0.05876 0.94328 0.68526 0.0
loop_
_geom_bond_atom_site_label_1
_geom_bond_atom_site_label_2
_geom_bond_distance
_geom_bond_site_symmetry_2
_ccdc_geom_bond_type
C0 C1 1.264 . S
C0 C5 1.479 . S
C0 C10 1.465 . S
C1 C0 1.264 . S
C1 C3 1.339 . S
C1 H28 0.931 . S
C2 C3 1.395 . S
C2 C4 1.320 . S
C3 C1 1.339 . S
C3 C2 1.395 . S
C3 H29 0.929 . S
C4 C2 1.320 . S
C4 C5 1.405 . S
C4 H30 0.930 . S
C5 C0 1.479 . S
C5 C4 1.405 . S
C5 H31 0.931 . S
U6 O7 2.454 . S
U6 O8 2.458 1_554 S
U6 C9 2.984 . S
U6 C10 2.847 . S
U6 C23 2.882 1_554 S
U6 O24 2.441 . S
U6 O25 2.420 . S
U6 O26 2.455 1_554 S
U6 O27 2.449 1_554 S
O7 U6 2.454 . S
O7 C9 1.353 . S
O8 U6 2.458 1_556 S
O8 C9 1.286 1_556 S
C9 U6 2.984 . S
C9 O7 1.353 . S
C9 O8 1.286 1_554 S
C9 C11 1.363 . S
C10 C0 1.465 . S
C10 U6 2.847 . S
C10 O24 1.249 . S
C10 O25 1.202 . S
C11 C9 1.363 . S
C11 C13 1.408 . S
C11 C16 1.342 1_554 S
C12 C13 1.310 . S
C12 C15 1.461 . S
C12 H32 0.932 . S
C13 C11 1.408 . S
C13 C12 1.310 . S
C13 H33 0.930 . S
C14 C15 1.474 1_556 S
C14 C16 1.285 . S
C14 H34 0.929 . S
C15 C12 1.461 . S
C15 C14 1.474 1_554 S
C16 C11 1.342 1_556 S
C16 C14 1.285 . S
C16 H35 0.930 . S
C17 C20 1.424 . S
C17 C22 1.245 . S
C17 C23 1.428 . S
C18 C21 1.260 . S
C18 C22 1.477 . S
C18 H36 0.932 . S
C19 C20 1.384 . S
C19 C21 1.479 . S
C19 H37 0.929 . S
C20 C17 1.424 . S
C20 C19 1.384 . S
C20 H38 0.928 . S
C21 C18 1.260 . S
C21 C19 1.479 . S
C22 C17 1.245 . S
C22 C18 1.477 . S
C22 H39 0.932 . S
C23 U6 2.882 1_556 S
C23 C17 1.428 . S
C23 O26 1.301 . S
C23 O27 1.282 . S
O24 U6 2.441 . S
O24 C10 1.249 . S
O25 U6 2.420 . S
O25 C10 1.202 . S
O26 U6 2.455 1_556 S
O26 C23 1.301 . S
O27 U6 2.449 1_556 S
O27 C23 1.282 . S
H28 C1 0.931 . S
H29 C3 0.929 . S
H30 C4 0.930 . S
H31 C5 0.931 . S
H32 C12 0.932 . S
H33 C13 0.930 . S
H34 C14 0.929 . S
H35 C16 0.930 . S
H36 C18 0.932 . S
H37 C19 0.929 . S
H38 C20 0.928 . S
H39 C22 0.932 . S
C40 C41 1.264 . S
C40 C45 1.479 . S
C40 C50 1.465 . S
C41 C40 1.264 . S
C41 C43 1.339 . S
C41 H68 0.931 . S
C42 C43 1.395 . S
C42 C44 1.320 . S
C43 C41 1.339 . S
C43 C42 1.395 . S
C43 H69 0.929 . S
C44 C42 1.320 . S
C44 C45 1.405 . S
C44 H70 0.930 . S
C45 C40 1.479 . S
C45 C44 1.405 . S
C45 H71 0.931 . S
U46 O47 2.454 . S
U46 O48 2.458 . S
U46 C49 2.984 . S
U46 C50 2.847 . S
U46 C63 2.882 . S
U46 O64 2.441 . S
U46 O65 2.420 . S
U46 O66 2.455 . S
U46 O67 2.449 . S
O47 U46 2.454 . S
O47 C49 1.353 . S
O48 U46 2.458 . S
O48 C49 1.286 . S
C49 U46 2.984 . S
C49 O47 1.353 . S
C49 O48 1.286 . S
C49 C51 1.363 . S
C50 C40 1.465 . S
C50 U46 2.847 . S
C50 O64 1.249 . S
C50 O65 1.202 . S
C51 C49 1.363 . S
C51 C53 1.408 . S
C51 C56 1.342 . S
C52 C53 1.310 . S
C52 C55 1.461 . S
C52 H72 0.932 . S
C53 C51 1.408 . S
C53 C52 1.310 . S
C53 H73 0.930 . S
C54 C55 1.474 . S
C54 C56 1.285 . S
C54 H74 0.929 . S
C55 C52 1.461 . S
C55 C54 1.474 . S
C56 C51 1.342 . S
C56 C54 1.285 . S
C56 H75 0.930 . S
C57 C60 1.424 . S
C57 C62 1.245 . S
C57 C63 1.428 . S
C58 C61 1.260 . S
C58 C62 1.477 . S
C58 H76 0.932 . S
C59 C60 1.384 . S
C59 C61 1.479 . S
C59 H77 0.929 . S
C60 C57 1.424 . S
C60 C59 1.384 . S
C60 H78 0.928 . S
C61 C58 1.260 . S
C61 C59 1.479 . S
C62 C57 1.245 . S
C62 C58 1.477 . S
C62 H79 0.932 . S
C63 U46 2.882 . S
C63 C57 1.428 . S
C63 O66 1.301 . S
C63 O67 1.282 . S
O64 U46 2.441 . S
O64 C50 1.249 . S
O65 U46 2.420 . S
O65 C50 1.202 . S
O66 U46 2.455 . S
O66 C63 1.301 . S
O67 U46 2.449 . S
O67 C63 1.282 . S
H68 C41 0.931 . S
H69 C43 0.929 . S
H70 C44 0.930 . S
H71 C45 0.931 . S
H72 C52 0.932 . S
H73 C53 0.930 . S
H74 C54 0.929 . S
H75 C56 0.930 . S
H76 C58 0.932 . S
H77 C59 0.929 . S
H78 C60 0.928 . S
H79 C62 0.932 . S
C80 C81 1.264 . S
C80 C85 1.479 . S
C80 C90 1.465 . S
C81 C80 1.264 . S
C81 C83 1.339 . S
C81 H108 0.931 . S
C82 C83 1.395 . S
C82 C84 1.320 . S
C83 C81 1.339 . S
C83 C82 1.395 . S
C83 H109 0.929 . S
C84 C82 1.320 . S
C84 C85 1.405 . S
C84 H110 0.930 . S
C85 C80 1.479 . S
C85 C84 1.405 . S
C85 H111 0.931 . S
U86 O87 2.454 . S
U86 O88 2.458 1_554 S
U86 C89 2.984 . S
U86 C90 2.847 . S
U86 C103 2.882 1_554 S
U86 O104 2.441 . S
U86 O105 2.420 . S
U86 O106 2.455 1_554 S
U86 O107 2.449 1_554 S
O87 U86 2.454 . S
O87 C89 1.353 . S
O88 U86 2.458 1_556 S
O88 C89 1.286 1_556 S
C89 U86 2.984 . S
C89 O87 1.353 . S
C89 O88 1.286 1_554 S
C89 C91 1.363 . S
C90 C80 1.465 . S
C90 U86 2.847 . S
C90 O104 1.249 . S
C90 O105 1.202 . S
C91 C89 1.363 . S
C91 C93 1.408 . S
C91 C96 1.342 1_554 S
C92 C93 1.310 . S
C92 C95 1.461 . S
C92 H112 0.932 . S
C93 C91 1.408 . S
C93 C92 1.310 . S
C93 H113 0.930 . S
C94 C95 1.474 1_556 S
C94 C96 1.285 . S
C94 H114 0.929 . S
C95 C92 1.461 . S
C95 C94 1.474 1_554 S
C96 C91 1.342 1_556 S
C96 C94 1.285 . S
C96 H115 0.930 . S
C97 C100 1.424 . S
C97 C102 1.245 . S
C97 C103 1.428 . S
C98 C101 1.260 . S
C98 C102 1.477 . S
C98 H116 0.932 . S
C99 C100 1.384 . S
C99 C101 1.479 . S
C99 H117 0.929 . S
C100 C97 1.424 . S
C100 C99 1.384 . S
C100 H118 0.928 . S
C101 C98 1.260 . S
C101 C99 1.479 . S
C102 C97 1.245 . S
C102 C98 1.477 . S
C102 H119 0.932 . S
C103 U86 2.882 1_556 S
C103 C97 1.428 . S
C103 O106 1.301 . S
C103 O107 1.282 . S
O104 U86 2.441 . S
O104 C90 1.249 . S
O105 U86 2.420 . S
O105 C90 1.202 . S
O106 U86 2.455 1_556 S
O106 C103 1.301 . S
O107 U86 2.449 1_556 S
O107 C103 1.282 . S
H108 C81 0.931 . S
H109 C83 0.929 . S
H110 C84 0.930 . S
H111 C85 0.931 . S
H112 C92 0.932 . S
H113 C93 0.930 . S
H114 C94 0.929 . S
H115 C96 0.930 . S
H116 C98 0.932 . S
H117 C99 0.929 . S
H118 C100 0.928 . S
H119 C102 0.932 . S
C120 C121 1.264 . S
C120 C125 1.479 . S
C120 C130 1.465 . S
C121 C120 1.264 . S
C121 C123 1.339 . S
C121 H148 0.931 . S
C122 C123 1.395 . S
C122 C124 1.320 . S
C123 C121 1.339 . S
C123 C122 1.395 . S
C123 H149 0.929 . S
C124 C122 1.320 . S
C124 C125 1.405 . S
C124 H150 0.930 . S
C125 C120 1.479 . S
C125 C124 1.405 . S
C125 H151 0.931 . S
U126 O127 2.454 . S
U126 O128 2.458 . S
U126 C129 2.984 . S
U126 C130 2.847 . S
U126 C143 2.882 . S
U126 O144 2.441 . S
U126 O145 2.420 . S
U126 O146 2.455 . S
U126 O147 2.449 . S
O127 U126 2.454 . S
O127 C129 1.353 . S
O128 U126 2.458 . S
O128 C129 1.286 . S
C129 U126 2.984 . S
C129 O127 1.353 . S
C129 O128 1.286 . S
C129 C131 1.363 . S
C130 C120 1.465 . S
C130 U126 2.847 . S
C130 O144 1.249 . S
C130 O145 1.202 . S
C131 C129 1.363 . S
C131 C133 1.408 . S
C131 C136 1.342 . S
C132 C133 1.310 . S
C132 C135 1.461 . S
C132 H152 0.932 . S
C133 C131 1.408 . S
C133 C132 1.310 . S
C133 H153 0.930 . S
C134 C135 1.474 . S
C134 C136 1.285 . S
C134 H154 0.929 . S
C135 C132 1.461 . S
C135 C134 1.474 . S
C136 C131 1.342 . S
C136 C134 1.285 . S
C136 H155 0.930 . S
C137 C140 1.424 . S
C137 C142 1.245 . S
C137 C143 1.428 . S
C138 C141 1.260 . S
C138 C142 1.477 . S
C138 H156 0.932 . S
C139 C140 1.384 . S
C139 C141 1.479 . S
C139 H157 0.929 . S
C140 C137 1.424 . S
C140 C139 1.384 . S
C140 H158 0.928 . S
C141 C138 1.260 . S
C141 C139 1.479 . S
C142 C137 1.245 . S
C142 C138 1.477 . S
C142 H159 0.932 . S
C143 U126 2.882 . S
C143 C137 1.428 . S
C143 O146 1.301 . S
C143 O147 1.282 . S
O144 U126 2.441 . S
O144 C130 1.249 . S
O145 U126 2.420 . S
O145 C130 1.202 . S
O146 U126 2.455 . S
O146 C143 1.301 . S
O147 U126 2.449 . S
O147 C143 1.282 . S
H148 C121 0.931 . S
H149 C123 0.929 . S
H150 C124 0.930 . S
H151 C125 0.931 . S
H152 C132 0.932 . S
H153 C133 0.930 . S
H154 C134 0.929 . S
H155 C136 0.930 . S
H156 C138 0.932 . S
H157 C139 0.929 . S
H158 C140 0.928 . S
H159 C142 0.932 . S
O160 Zn161 1.945 1_565 S
O160 C176 1.237 . S
Zn161 O160 1.945 1_545 S
Zn161 O162 1.949 1_655 S
Zn161 O168 1.919 . S
Zn161 O173 1.924 . S
O162 Zn161 1.949 1_455 S
O162 Zn163 1.923 . S
O162 Zn164 1.950 1_445 S
O162 Zn165 1.945 . S
Zn163 O162 1.923 . S
Zn163 O166 1.933 . S
Zn163 O169 1.941 . S
Zn163 O170 1.965 1_545 S
Zn164 O162 1.950 1_665 S
Zn164 O171 1.938 1_655 S
Zn164 O172 1.906 1_655 S
Zn164 O182 1.953 . S
Zn165 O162 1.945 . S
Zn165 O167 1.932 . S
Zn165 O174 1.977 1_545 S
Zn165 O175 1.910 1_455 S
O166 Zn163 1.933 . S
O166 C177 1.226 . S
O167 Zn165 1.932 . S
O167 C177 1.307 . S
O168 Zn161 1.919 . S
O168 C179 1.253 . S
O169 Zn163 1.941 . S
O169 C179 1.283 1_455 S
O170 Zn163 1.965 1_565 S
O170 C178 1.303 . S
O171 Zn164 1.938 1_455 S
O171 C178 1.247 . S
O172 Zn164 1.906 1_455 S
O172 C180 1.304 . S
O173 Zn161 1.924 . S
O173 C181 1.311 . S
O174 Zn165 1.977 1_565 S
O174 C180 1.272 . S
O175 Zn165 1.910 1_655 S
O175 C181 1.231 . S
C176 O160 1.237 . S
C176 O182 1.298 . S
C177 O166 1.226 . S
C177 O167 1.307 . S
C178 O170 1.303 . S
C178 O171 1.247 . S
C179 O168 1.253 . S
C179 O169 1.283 1_655 S
C180 O172 1.304 . S
C180 O174 1.272 . S
C181 O173 1.311 . S
C181 O175 1.231 . S
O182 Zn164 1.953 . S
O182 C176 1.298 . S
O183 Zn184 1.954 . S
O183 C199 1.225 1_556 S
Zn184 O183 1.954 . S
Zn184 O185 1.946 1_556 S
Zn184 O191 1.933 . S
Zn184 O196 1.910 1_556 S
O185 Zn184 1.946 1_554 S
O185 Zn186 1.923 1_554 S
O185 Zn187 1.950 . S
O185 Zn188 1.945 . S
Zn186 O185 1.923 1_556 S
Zn186 O189 1.933 . S
Zn186 O192 1.941 . S
Zn186 O193 1.965 . S
Zn187 O185 1.950 . S
Zn187 O194 1.938 1_554 S
Zn187 O195 1.906 . S
Zn187 O205 1.953 . S
Zn188 O185 1.945 . S
Zn188 O190 1.932 . S
Zn188 O197 1.977 . S
Zn188 O198 1.910 . S
O189 Zn186 1.933 . S
O189 C200 1.226 1_556 S
O190 Zn188 1.932 . S
O190 C200 1.307 . S
O191 Zn184 1.933 . S
O191 C202 1.253 . S
O192 Zn186 1.941 . S
O192 C202 1.283 . S
O193 Zn186 1.965 . S
O193 C201 1.303 . S
O194 Zn187 1.938 1_556 S
O194 C201 1.247 . S
O195 Zn187 1.906 . S
O195 C203 1.304 . S
O196 Zn184 1.910 1_554 S
O196 C204 1.311 . S
O197 Zn188 1.977 . S
O197 C203 1.272 . S
O198 Zn188 1.910 . S
O198 C204 1.231 . S
C199 O183 1.225 1_554 S
C199 O205 1.298 . S
C200 O189 1.226 1_554 S
C200 O190 1.307 . S
C201 O193 1.303 . S
C201 O194 1.247 . S
C202 O191 1.253 . S
C202 O192 1.283 . S
C203 O195 1.304 . S
C203 O197 1.272 . S
C204 O196 1.311 . S
C204 O198 1.231 . S
O205 Zn187 1.953 . S
O205 C199 1.298 . S
C206 C207 1.349 . S
C206 C208 1.327 . S
C206 H231 0.950 . S
C207 C206 1.349 . S
C207 C223 1.349 . S
C208 C206 1.327 . S
C208 C227 1.429 . S
C208 H232 0.950 . S
C209 C226 1.574 . S
C209 C228 1.368 . S
C209 H233 0.949 . S
H210 C214 0.949 . S
C211 C212 1.349 . S
C211 C213 1.327 . S
C211 H234 0.950 . S
C212 C211 1.349 . S
C212 C224 1.349 . S
C213 C211 1.327 . S
C213 C229 1.429 . S
C213 H235 0.950 . S
C214 H210 0.949 . S
C214 C222 1.574 . S
C214 C230 1.368 . S
H215 C223 0.950 . S
H216 C221 0.950 . S
H217 C222 0.949 . S
H218 C224 0.950 . S
H219 C225 0.950 . S
H220 C226 0.949 . S
C221 H216 0.950 . S
C221 C223 1.327 . S
C221 C227 1.429 . S
C222 C214 1.574 . S
C222 H217 0.949 . S
C222 C228 1.368 . S
C223 C207 1.349 . S
C223 H215 0.950 . S
C223 C221 1.327 . S
C224 C212 1.349 . S
C224 H218 0.950 . S
C224 C225 1.327 . S
C225 H219 0.950 . S
C225 C224 1.327 . S
C225 C229 1.429 . S
C226 C209 1.574 . S
C226 H220 0.949 . S
C226 C230 1.368 . S
C227 C208 1.429 . S
C227 C221 1.429 . S
C227 C228 1.523 . S
C228 C209 1.368 . S
C228 C222 1.368 . S
C228 C227 1.523 . S
C229 C213 1.429 . S
C229 C225 1.429 . S
C229 C230 1.523 . S
C230 C214 1.368 . S
C230 C226 1.368 . S
C230 C229 1.523 . S
H231 C206 0.950 . S
H232 C208 0.950 . S
H233 C209 0.949 . S
H234 C211 0.950 . S
H235 C213 0.950 . S
C236 C237 1.349 . S
C236 C238 1.327 . S
C236 H261 0.950 . S
C237 C236 1.349 . S
C237 C253 1.349 1_554 S
C238 C236 1.327 . S
C238 C257 1.429 . S
C238 H262 0.950 . S
C239 C256 1.574 . S
C239 C258 1.368 1_556 S
C239 H263 0.949 . S
H240 C244 0.949 . S
C241 C242 1.349 1_556 S
C241 C243 1.327 . S
C241 H264 0.950 . S
C242 C241 1.349 1_554 S
C242 C254 1.349 . S
C243 C241 1.327 . S
C243 C259 1.429 1_556 S
C243 H265 0.950 . S
C244 H240 0.949 . S
C244 C252 1.574 . S
C244 C260 1.368 . S
H245 C253 0.950 . S
H246 C251 0.950 . S
H247 C252 0.949 . S
H248 C254 0.950 . S
H249 C255 0.950 . S
H250 C256 0.949 . S
C251 H246 0.950 . S
C251 C253 1.327 . S
C251 C257 1.429 1_556 S
C252 C244 1.574 . S
C252 H247 0.949 . S
C252 C258 1.368 . S
C253 C237 1.349 1_556 S
C253 H245 0.950 . S
C253 C251 1.327 . S
C254 C242 1.349 . S
C254 H248 0.950 . S
C254 C255 1.327 . S
C255 H249 0.950 . S
C255 C254 1.327 . S
C255 C259 1.429 . S
C256 C239 1.574 . S
C256 H250 0.949 . S
C256 C260 1.368 1_556 S
C257 C238 1.429 . S
C257 C251 1.429 1_554 S
C257 C258 1.523 . S
C258 C239 1.368 1_554 S
C258 C252 1.368 . S
C258 C257 1.523 . S
C259 C243 1.429 1_554 S
C259 C255 1.429 . S
C259 C260 1.523 . S
C260 C244 1.368 . S
C260 C256 1.368 1_554 S
C260 C259 1.523 . S
H261 C236 0.950 . S
H262 C238 0.950 . S
H263 C239 0.949 . S
H264 C241 0.950 . S
H265 C243 0.950 . S
C266 C267 1.349 . S
C266 C268 1.327 . S
C266 H291 0.950 . S
C267 C266 1.349 . S
C267 C283 1.349 . S
C268 C266 1.327 . S
C268 C287 1.429 . S
C268 H292 0.950 . S
C269 C286 1.574 . S
C269 C288 1.368 . S
C269 H293 0.949 . S
H270 C274 0.949 . S
C271 C272 1.349 . S
C271 C273 1.327 . S
C271 H294 0.950 . S
C272 C271 1.349 . S
C272 C284 1.349 . S
C273 C271 1.327 . S
C273 C289 1.429 . S
C273 H295 0.950 . S
C274 H270 0.949 . S
C274 C282 1.574 . S
C274 C290 1.368 . S
H275 C283 0.950 . S
H276 C281 0.950 . S
H277 C282 0.949 . S
H278 C284 0.950 . S
H279 C285 0.950 . S
H280 C286 0.949 . S
C281 H276 0.950 . S
C281 C283 1.327 . S
C281 C287 1.429 . S
C282 C274 1.574 . S
C282 H277 0.949 . S
C282 C288 1.368 . S
C283 C267 1.349 . S
C283 H275 0.950 . S
C283 C281 1.327 . S
C284 C272 1.349 . S
C284 H278 0.950 . S
C284 C285 1.327 . S
C285 H279 0.950 . S
C285 C284 1.327 . S
C285 C289 1.429 . S
C286 C269 1.574 . S
C286 H280 0.949 . S
C286 C290 1.368 . S
C287 C268 1.429 . S
C287 C281 1.429 . S
C287 C288 1.523 . S
C288 C269 1.368 . S
C288 C282 1.368 . S
C288 C287 1.523 . S
C289 C273 1.429 . S
C289 C285 1.429 . S
C289 C290 1.523 . S
C290 C274 1.368 . S
C290 C286 1.368 . S
C290 C289 1.523 . S
H291 C266 0.950 . S
H292 C268 0.950 . S
H293 C269 0.949 . S
H294 C271 0.950 . S
H295 C273 0.950 . S
C296 C297 1.349 1_556 S
C296 C298 1.327 . S
C296 H321 0.950 . S
C297 C296 1.349 1_554 S
C297 C313 1.349 . S
C298 C296 1.327 . S
C298 C317 1.429 1_556 S
C298 H322 0.950 . S
C299 C316 1.574 . S
C299 C318 1.368 . S
C299 H323 0.949 . S
H300 C304 0.949 . S
C301 C302 1.349 . S
C301 C303 1.327 . S
C301 H324 0.950 . S
C302 C301 1.349 . S
C302 C314 1.349 1_554 S
C303 C301 1.327 . S
C303 C319 1.429 . S
C303 H325 0.950 . S
C304 H300 0.949 . S
C304 C312 1.574 . S
C304 C320 1.368 1_556 S
H305 C313 0.950 . S
H306 C311 0.950 . S
H307 C312 0.949 . S
H308 C314 0.950 . S
H309 C315 0.950 . S
H310 C316 0.949 . S
C311 H306 0.950 . S
C311 C313 1.327 . S
C311 C317 1.429 . S
C312 C304 1.574 . S
C312 H307 0.949 . S
C312 C318 1.368 1_556 S
C313 C297 1.349 . S
C313 H305 0.950 . S
C313 C311 1.327 . S
C314 C302 1.349 1_556 S
C314 H308 0.950 . S
C314 C315 1.327 . S
C315 H309 0.950 . S
C315 C314 1.327 . S
C315 C319 1.429 1_556 S
C316 C299 1.574 . S
C316 H310 0.949 . S
C316 C320 1.368 . S
C317 C298 1.429 1_554 S
C317 C311 1.429 . S
C317 C318 1.523 . S
C318 C299 1.368 . S
C318 C312 1.368 1_554 S
C318 C317 1.523 . S
C319 C303 1.429 . S
C319 C315 1.429 1_554 S
C319 C320 1.523 . S
C320 C304 1.368 1_554 S
C320 C316 1.368 . S
C320 C319 1.523 . S
H321 C296 0.950 . S
H322 C298 0.950 . S
H323 C299 0.949 . S
H324 C301 0.950 . S
H325 C303 0.950 . S
C326 C327 1.349 . S
C326 C328 1.327 . S
C326 H351 0.950 . S
C327 C326 1.349 . S
C327 C343 1.349 . S
C328 C326 1.327 . S
C328 C347 1.429 . S
C328 H352 0.950 . S
C329 C346 1.574 . S
C329 C348 1.368 . S
C329 H353 0.949 . S
H330 C334 0.949 . S
C331 C332 1.349 . S
C331 C333 1.327 . S
C331 H354 0.950 . S
C332 C331 1.349 . S
C332 C344 1.349 . S
C333 C331 1.327 . S
C333 C349 1.429 . S
C333 H355 0.950 . S
C334 H330 0.949 . S
C334 C342 1.574 . S
C334 C350 1.368 . S
H335 C343 0.950 . S
H336 C341 0.950 . S
H337 C342 0.949 . S
H338 C344 0.950 . S
H339 C345 0.950 . S
H340 C346 0.949 . S
C341 H336 0.950 . S
C341 C343 1.327 . S
C341 C347 1.429 . S
C342 C334 1.574 . S
C342 H337 0.949 . S
C342 C348 1.368 . S
C343 C327 1.349 . S
C343 H335 0.950 . S
C343 C341 1.327 . S
C344 C332 1.349 . S
C344 H338 0.950 . S
C344 C345 1.327 . S
C345 H339 0.950 . S
C345 C344 1.327 . S
C345 C349 1.429 . S
C346 C329 1.574 . S
C346 H340 0.949 . S
C346 C350 1.368 . S
C347 C328 1.429 . S
C347 C341 1.429 . S
C347 C348 1.523 . S
C348 C329 1.368 . S
C348 C342 1.368 . S
C348 C347 1.523 . S
C349 C333 1.429 . S
C349 C345 1.429 . S
C349 C350 1.523 . S
C350 C334 1.368 . S
C350 C346 1.368 . S
C350 C349 1.523 . S
H351 C326 0.950 . S
H352 C328 0.950 . S
H353 C329 0.949 . S
H354 C331 0.950 . S
H355 C333 0.950 . S
C356 C357 1.349 . S
C356 C358 1.327 . S
C356 H381 0.950 . S
C357 C356 1.349 . S
C357 C373 1.349 . S
C358 C356 1.327 . S
C358 C377 1.429 . S
C358 H382 0.950 . S
C359 C376 1.574 . S
C359 C378 1.368 . S
C359 H383 0.949 . S
H360 C364 0.949 . S
C361 C362 1.349 . S
C361 C363 1.327 . S
C361 H384 0.950 . S
C362 C361 1.349 . S
C362 C374 1.349 . S
C363 C361 1.327 . S
C363 C379 1.429 . S
C363 H385 0.950 . S
C364 H360 0.949 . S
C364 C372 1.574 . S
C364 C380 1.368 . S
H365 C373 0.950 . S
H366 C371 0.950 . S
H367 C372 0.949 . S
H368 C374 0.950 . S
H369 C375 0.950 . S
H370 C376 0.949 . S
C371 H366 0.950 . S
C371 C373 1.327 . S
C371 C377 1.429 . S
C372 C364 1.574 . S
C372 H367 0.949 . S
C372 C378 1.368 . S
C373 C357 1.349 . S
C373 H365 0.950 . S
C373 C371 1.327 . S
C374 C362 1.349 . S
C374 H368 0.950 . S
C374 C375 1.327 . S
C375 H369 0.950 . S
C375 C374 1.327 . S
C375 C379 1.429 . S
C376 C359 1.574 . S
C376 H370 0.949 . S
C376 C380 1.368 . S
C377 C358 1.429 . S
C377 C371 1.429 . S
C377 C378 1.523 . S
C378 C359 1.368 . S
C378 C372 1.368 . S
C378 C377 1.523 . S
C379 C363 1.429 . S
C379 C375 1.429 . S
C379 C380 1.523 . S
C380 C364 1.368 . S
C380 C376 1.368 . S
C380 C379 1.523 . S
H381 C356 0.950 . S
H382 C358 0.950 . S
H383 C359 0.949 . S
H384 C361 0.950 . S
H385 C363 0.950 . S
C386 C387 1.349 . S
C386 C388 1.327 . S
C386 H411 0.950 . S
C387 C386 1.349 . S
C387 C403 1.349 . S
C388 C386 1.327 . S
C388 C407 1.429 . S
C388 H412 0.950 . S
C389 C406 1.574 . S
C389 C408 1.368 . S
C389 H413 0.949 . S
H390 C394 0.949 . S
C391 C392 1.349 . S
C391 C393 1.327 . S
C391 H414 0.950 . S
C392 C391 1.349 . S
C392 C404 1.349 . S
C393 C391 1.327 . S
C393 C409 1.429 . S
C393 H415 0.950 . S
C394 H390 0.949 . S
C394 C402 1.574 . S
C394 C410 1.368 . S
H395 C403 0.950 . S
H396 C401 0.950 . S
H397 C402 0.949 . S
H398 C404 0.950 . S
H399 C405 0.950 . S
H400 C406 0.949 . S
C401 H396 0.950 . S
C401 C403 1.327 . S
C401 C407 1.429 . S
C402 C394 1.574 . S
C402 H397 0.949 . S
C402 C408 1.368 . S
C403 C387 1.349 . S
C403 H395 0.950 . S
C403 C401 1.327 . S
C404 C392 1.349 . S
C404 H398 0.950 . S
C404 C405 1.327 . S
C405 H399 0.950 . S
C405 C404 1.327 . S
C405 C409 1.429 . S
C406 C389 1.574 . S
C406 H400 0.949 . S
C406 C410 1.368 . S
C407 C388 1.429 . S
C407 C401 1.429 . S
C407 C408 1.523 . S
C408 C389 1.368 . S
C408 C402 1.368 . S
C408 C407 1.523 . S
C409 C393 1.429 . S
C409 C405 1.429 . S
C409 C410 1.523 . S
C410 C394 1.368 . S
C410 C406 1.368 . S
C410 C409 1.523 . S
H411 C386 0.950 . S
H412 C388 0.950 . S
H413 C389 0.949 . S
H414 C391 0.950 . S
H415 C393 0.950 . S
C416 C417 1.349 . S
C416 C418 1.327 . S
C416 H441 0.950 . S
C417 C416 1.349 . S
C417 C433 1.349 . S
C418 C416 1.327 . S
C418 C437 1.429 . S
C418 H442 0.950 . S
C419 C436 1.574 . S
C419 C438 1.368 . S
C419 H443 0.949 . S
H420 C424 0.949 . S
C421 C422 1.349 . S
C421 C423 1.327 . S
C421 H444 0.950 . S
C422 C421 1.349 . S
C422 C434 1.349 . S
C423 C421 1.327 . S
C423 C439 1.429 . S
C423 H445 0.950 . S
C424 H420 0.949 . S
C424 C432 1.574 . S
C424 C440 1.368 . S
H425 C433 0.950 . S
H426 C431 0.950 . S
H427 C432 0.949 . S
H428 C434 0.950 . S
H429 C435 0.950 . S
H430 C436 0.949 . S
C431 H426 0.950 . S
C431 C433 1.327 . S
C431 C437 1.429 . S
C432 C424 1.574 . S
C432 H427 0.949 . S
C432 C438 1.368 . S
C433 C417 1.349 . S
C433 H425 0.950 . S
C433 C431 1.327 . S
C434 C422 1.349 . S
C434 H428 0.950 . S
C434 C435 1.327 . S
C435 H429 0.950 . S
C435 C434 1.327 . S
C435 C439 1.429 . S
C436 C419 1.574 . S
C436 H430 0.949 . S
C436 C440 1.368 . S
C437 C418 1.429 . S
C437 C431 1.429 . S
C437 C438 1.523 . S
C438 C419 1.368 . S
C438 C432 1.368 . S
C438 C437 1.523 . S
C439 C423 1.429 . S
C439 C435 1.429 . S
C439 C440 1.523 . S
C440 C424 1.368 . S
C440 C436 1.368 . S
C440 C439 1.523 . S
H441 C416 0.950 . S
H442 C418 0.950 . S
H443 C419 0.949 . S
H444 C421 0.950 . S
H445 C423 0.950 . S
C446 C447 1.349 . S
C446 C448 1.327 . S
C446 H471 0.950 . S
C447 C446 1.349 . S
C447 C463 1.349 . S
C448 C446 1.327 . S
C448 C467 1.429 . S
C448 H472 0.950 . S
C449 C466 1.574 . S
C449 C468 1.368 . S
C449 H473 0.949 . S
H450 C454 0.949 . S
C451 C452 1.349 . S
C451 C453 1.327 . S
C451 H474 0.950 . S
C452 C451 1.349 . S
C452 C464 1.349 . S
C453 C451 1.327 . S
C453 C469 1.429 . S
C453 H475 0.950 . S
C454 H450 0.949 . S
C454 C462 1.574 . S
C454 C470 1.368 . S
H455 C463 0.950 . S
H456 C461 0.950 . S
H457 C462 0.949 . S
H458 C464 0.950 . S
H459 C465 0.950 . S
H460 C466 0.949 . S
C461 H456 0.950 . S
C461 C463 1.327 . S
C461 C467 1.429 . S
C462 C454 1.574 . S
C462 H457 0.949 . S
C462 C468 1.368 . S
C463 C447 1.349 . S
C463 H455 0.950 . S
C463 C461 1.327 . S
C464 C452 1.349 . S
C464 H458 0.950 . S
C464 C465 1.327 . S
C465 H459 0.950 . S
C465 C464 1.327 . S
C465 C469 1.429 . S
C466 C449 1.574 . S
C466 H460 0.949 . S
C466 C470 1.368 . S
C467 C448 1.429 . S
C467 C461 1.429 . S
C467 C468 1.523 . S
C468 C449 1.368 . S
C468 C462 1.368 . S
C468 C467 1.523 . S
C469 C453 1.429 . S
C469 C465 1.429 . S
C469 C470 1.523 . S
C470 C454 1.368 . S
C470 C466 1.368 . S
C470 C469 1.523 . S
H471 C446 0.950 . S
H472 C448 0.950 . S
H473 C449 0.949 . S
H474 C451 0.950 . S
H475 C453 0.950 . S
C476 C477 1.349 . S
C476 C478 1.327 . S
C476 H501 0.950 . S
C477 C476 1.349 . S
C477 C493 1.349 . S
C478 C476 1.327 . S
C478 C497 1.429 . S
C478 H502 0.950 . S
C479 C496 1.574 . S
C479 C498 1.368 . S
C479 H503 0.949 . S
H480 C484 0.949 . S
C481 C482 1.349 . S
C481 C483 1.327 . S
C481 H504 0.950 . S
C482 C481 1.349 . S
C482 C494 1.349 . S
C483 C481 1.327 . S
C483 C499 1.429 . S
C483 H505 0.950 . S
C484 H480 0.949 . S
C484 C492 1.574 . S
C484 C500 1.368 . S
H485 C493 0.950 . S
H486 C491 0.950 . S
H487 C492 0.949 . S
H488 C494 0.950 . S
H489 C495 0.950 . S
H490 C496 0.949 . S
C491 H486 0.950 . S
C491 C493 1.327 . S
C491 C497 1.429 . S
C492 C484 1.574 . S
C492 H487 0.949 . S
C492 C498 1.368 . S
C493 C477 1.349 . S
C493 H485 0.950 . S
C493 C491 1.327 . S
C494 C482 1.349 . S
C494 H488 0.950 . S
C494 C495 1.327 . S
C495 H489 0.950 . S
C495 C494 1.327 . S
C495 C499 1.429 . S
C496 C479 1.574 . S
C496 H490 0.949 . S
C496 C500 1.368 . S
C497 C478 1.429 . S
C497 C491 1.429 . S
C497 C498 1.523 . S
C498 C479 1.368 . S
C498 C492 1.368 . S
C498 C497 1.523 . S
C499 C483 1.429 . S
C499 C495 1.429 . S
C499 C500 1.523 . S
C500 C484 1.368 . S
C500 C496 1.368 . S
C500 C499 1.523 . S
H501 C476 0.950 . S
H502 C478 0.950 . S
H503 C479 0.949 . S
H504 C481 0.950 . S
H505 C483 0.950 . S
C506 C507 1.349 . S
C506 C508 1.327 . S
C506 H531 0.950 . S
C507 C506 1.349 . S
C507 C523 1.349 . S
C508 C506 1.327 . S
C508 C527 1.429 . S
C508 H532 0.950 . S
C509 C526 1.574 . S
C509 C528 1.368 . S
C509 H533 0.949 . S
H510 C514 0.949 . S
C511 C512 1.349 . S
C511 C513 1.327 . S
C511 H534 0.950 . S
C512 C511 1.349 . S
C512 C524 1.349 . S
C513 C511 1.327 . S
C513 C529 1.429 . S
C513 H535 0.950 . S
C514 H510 0.949 . S
C514 C522 1.574 . S
C514 C530 1.368 . S
H515 C523 0.950 . S
H516 C521 0.950 . S
H517 C522 0.949 . S
H518 C524 0.950 . S
H519 C525 0.950 . S
H520 C526 0.949 . S
C521 H516 0.950 . S
C521 C523 1.327 . S
C521 C527 1.429 . S
C522 C514 1.574 . S
C522 H517 0.949 . S
C522 C528 1.368 . S
C523 C507 1.349 . S
C523 H515 0.950 . S
C523 C521 1.327 . S
C524 C512 1.349 . S
C524 H518 0.950 . S
C524 C525 1.327 . S
C525 H519 0.950 . S
C525 C524 1.327 . S
C525 C529 1.429 . S
C526 C509 1.574 . S
C526 H520 0.949 . S
C526 C530 1.368 . S
C527 C508 1.429 . S
C527 C521 1.429 . S
C527 C528 1.523 . S
C528 C509 1.368 . S
C528 C522 1.368 . S
C528 C527 1.523 . S
C529 C513 1.429 . S
C529 C525 1.429 . S
C529 C530 1.523 . S
C530 C514 1.368 . S
C530 C526 1.368 . S
C530 C529 1.523 . S
H531 C506 0.950 . S
H532 C508 0.950 . S
H533 C509 0.949 . S
H534 C511 0.950 . S
H535 C513 0.950 . S
C536 C537 1.349 . S
C536 C538 1.327 . S
C536 H561 0.950 . S
C537 C536 1.349 . S
C537 C553 1.349 . S
C538 C536 1.327 . S
C538 C557 1.429 . S
C538 H562 0.950 . S
C539 C556 1.574 . S
C539 C558 1.368 . S
C539 H563 0.949 . S
H540 C544 0.949 . S
C541 C542 1.349 . S
C541 C543 1.327 . S
C541 H564 0.950 . S
C542 C541 1.349 . S
C542 C554 1.349 . S
C543 C541 1.327 . S
C543 C559 1.429 . S
C543 H565 0.950 . S
C544 H540 0.949 . S
C544 C552 1.574 . S
C544 C560 1.368 . S
H545 C553 0.950 . S
H546 C551 0.950 . S
H547 C552 0.949 . S
H548 C554 0.950 1_655 S
H549 C555 0.950 . S
H550 C556 0.949 . S
C551 H546 0.950 . S
C551 C553 1.327 . S
C551 C557 1.429 . S
C552 C544 1.574 . S
C552 H547 0.949 . S
C552 C558 1.368 . S
C553 C537 1.349 . S
C553 H545 0.950 . S
C553 C551 1.327 . S
C554 C542 1.349 . S
C554 H548 0.950 1_455 S
C554 C555 1.327 . S
C555 H549 0.950 . S
C555 C554 1.327 . S
C555 C559 1.429 . S
C556 C539 1.574 . S
C556 H550 0.949 . S
C556 C560 1.368 . S
C557 C538 1.429 . S
C557 C551 1.429 . S
C557 C558 1.523 . S
C558 C539 1.368 . S
C558 C552 1.368 . S
C558 C557 1.523 . S
C559 C543 1.429 . S
C559 C555 1.429 . S
C559 C560 1.523 . S
C560 C544 1.368 . S
C560 C556 1.368 . S
C560 C559 1.523 . S
H561 C536 0.950 . S
H562 C538 0.950 . S
H563 C539 0.949 . S
H564 C541 0.950 . S
H565 C543 0.950 . S
C212 C177 1.662 . S
C207 C135 1.637 . S
C237 C15 1.638 . S
C242 C200 1.663 . S
C267 C55 1.668 . S
C272 C176 1.689 . S
C297 C95 1.659 . S
C302 C199 1.686 . S
C332 C180 1.598 . S
C327 C2 1.575 . S
C362 C202 1.633 . S
C357 C42 1.666 . S
C387 C82 1.592 . S
C392 C181 1.603 . S
C417 C141 1.569 . S
C422 C201 1.604 . S
C452 C204 1.636 . S
C447 C61 1.702 . S
C482 C179 1.668 . S
C477 C101 1.626 . S
C512 C203 1.630 . S
C507 C122 1.608 . S
C537 C21 1.602 . S
C542 C178 1.637 . S
