# Generated by pormake.
# Topology ocu, (6,8)-cn, num edge types: 1
# Building blocks:
#     Node 0, Type 0, BuildingBlock: VOLQOD_clean_sbu_1, # of connection points: 6
#     Node 1, Type 0, BuildingBlock: VOLQOD_clean_sbu_1, # of connection points: 6
#     Node 2, Type 0, BuildingBlock: VOLQOD_clean_sbu_1, # of connection points: 6
#     Node 3, Type 0, BuildingBlock: VOLQOD_clean_sbu_1, # of connection points: 6
#     Node 4, Type 0, BuildingBlock: VOLQOD_clean_sbu_1, # of connection points: 6
#     Node 5, Type 0, BuildingBlock: VOLQOD_clean_sbu_1, # of connection points: 6
#     Node 6, Type 0, BuildingBlock: VOLQOD_clean_sbu_1, # of connection points: 6
#     Node 7, Type 0, BuildingBlock: VOLQOD_clean_sbu_1, # of connection points: 6
#     Node 8, Type 1, BuildingBlock: AJUNOK_clean_sbu_0, # of connection points: 8
#     Node 9, Type 1, BuildingBlock: AJUNOK_clean_sbu_0, # of connection points: 8
#     Node 10, Type 1, BuildingBlock: AJUNOK_clean_sbu_0, # of connection points: 8
#     Node 11, Type 1, BuildingBlock: AJUNOK_clean_sbu_0, # of connection points: 8
#     Node 12, Type 1, BuildingBlock: AJUNOK_clean_sbu_0, # of connection points: 8
#     Node 13, Type 1, BuildingBlock: AJUNOK_clean_sbu_0, # of connection points: 8
#     Edge 14, Type (0, 1), BuildingBlock: MIFKUJ_clean_linker_0, # of connection points: 2
#     Edge 15, Type (0, 1), BuildingBlock: MIFKUJ_clean_linker_0, # of connection points: 2
#     Edge 16, Type (0, 1), BuildingBlock: MIFKUJ_clean_linker_0, # of connection points: 2
#     Edge 17, Type (0, 1), BuildingBlock: MIFKUJ_clean_linker_0, # of connection points: 2
#     Edge 18, Type (0, 1), BuildingBlock: MIFKUJ_clean_linker_0, # of connection points: 2
#     Edge 19, Type (0, 1), BuildingBlock: MIFKUJ_clean_linker_0, # of connection points: 2
#     Edge 20, Type (0, 1), BuildingBlock: MIFKUJ_clean_linker_0, # of connection points: 2
#     Edge 21, Type (0, 1), BuildingBlock: MIFKUJ_clean_linker_0, # of connection points: 2
#     Edge 22, Type (0, 1), BuildingBlock: MIFKUJ_clean_linker_0, # of connection points: 2
#     Edge 23, Type (0, 1), BuildingBlock: MIFKUJ_clean_linker_0, # of connection points: 2
#     Edge 24, Type (0, 1), BuildingBlock: MIFKUJ_clean_linker_0, # of connection points: 2
#     Edge 25, Type (0, 1), BuildingBlock: MIFKUJ_clean_linker_0, # of connection points: 2
#     Edge 26, Type (0, 1), BuildingBlock: MIFKUJ_clean_linker_0, # of connection points: 2
#     Edge 27, Type (0, 1), BuildingBlock: MIFKUJ_clean_linker_0, # of connection points: 2
#     Edge 28, Type (0, 1), BuildingBlock: MIFKUJ_clean_linker_0, # of connection points: 2
#     Edge 29, Type (0, 1), BuildingBlock: MIFKUJ_clean_linker_0, # of connection points: 2
#     Edge 30, Type (0, 1), BuildingBlock: MIFKUJ_clean_linker_0, # of connection points: 2
#     Edge 31, Type (0, 1), BuildingBlock: MIFKUJ_clean_linker_0, # of connection points: 2
#     Edge 32, Type (0, 1), BuildingBlock: MIFKUJ_clean_linker_0, # of connection points: 2
#     Edge 33, Type (0, 1), BuildingBlock: MIFKUJ_clean_linker_0, # of connection points: 2
#     Edge 34, Type (0, 1), BuildingBlock: MIFKUJ_clean_linker_0, # of connection points: 2
#     Edge 35, Type (0, 1), BuildingBlock: MIFKUJ_clean_linker_0, # of connection points: 2
#     Edge 36, Type (0, 1), BuildingBlock: MIFKUJ_clean_linker_0, # of connection points: 2
#     Edge 37, Type (0, 1), BuildingBlock: MIFKUJ_clean_linker_0, # of connection points: 2
#     Edge 38, Type (0, 1), BuildingBlock: MIFKUJ_clean_linker_0, # of connection points: 2
#     Edge 39, Type (0, 1), BuildingBlock: MIFKUJ_clean_linker_0, # of connection points: 2
#     Edge 40, Type (0, 1), BuildingBlock: MIFKUJ_clean_linker_0, # of connection points: 2
#     Edge 41, Type (0, 1), BuildingBlock: MIFKUJ_clean_linker_0, # of connection points: 2
#     Edge 42, Type (0, 1), BuildingBlock: MIFKUJ_clean_linker_0, # of connection points: 2
#     Edge 43, Type (0, 1), BuildingBlock: MIFKUJ_clean_linker_0, # of connection points: 2
#     Edge 44, Type (0, 1), BuildingBlock: MIFKUJ_clean_linker_0, # of connection points: 2
#     Edge 45, Type (0, 1), BuildingBlock: MIFKUJ_clean_linker_0, # of connection points: 2
#     Edge 46, Type (0, 1), BuildingBlock: MIFKUJ_clean_linker_0, # of connection points: 2
#     Edge 47, Type (0, 1), BuildingBlock: MIFKUJ_clean_linker_0, # of connection points: 2
#     Edge 48, Type (0, 1), BuildingBlock: MIFKUJ_clean_linker_0, # of connection points: 2
#     Edge 49, Type (0, 1), BuildingBlock: MIFKUJ_clean_linker_0, # of connection points: 2
#     Edge 50, Type (0, 1), BuildingBlock: MIFKUJ_clean_linker_0, # of connection points: 2
#     Edge 51, Type (0, 1), BuildingBlock: MIFKUJ_clean_linker_0, # of connection points: 2
#     Edge 52, Type (0, 1), BuildingBlock: MIFKUJ_clean_linker_0, # of connection points: 2
#     Edge 53, Type (0, 1), BuildingBlock: MIFKUJ_clean_linker_0, # of connection points: 2
#     Edge 54, Type (0, 1), BuildingBlock: MIFKUJ_clean_linker_0, # of connection points: 2
#     Edge 55, Type (0, 1), BuildingBlock: MIFKUJ_clean_linker_0, # of connection points: 2
#     Edge 56, Type (0, 1), BuildingBlock: MIFKUJ_clean_linker_0, # of connection points: 2
#     Edge 57, Type (0, 1), BuildingBlock: MIFKUJ_clean_linker_0, # of connection points: 2
#     Edge 58, Type (0, 1), BuildingBlock: MIFKUJ_clean_linker_0, # of connection points: 2
#     Edge 59, Type (0, 1), BuildingBlock: MIFKUJ_clean_linker_0, # of connection points: 2
#     Edge 60, Type (0, 1), BuildingBlock: MIFKUJ_clean_linker_0, # of connection points: 2
#     Edge 61, Type (0, 1), BuildingBlock: MIFKUJ_clean_linker_0, # of connection points: 2
# Relax obj value: 0.279
# Max RMSD: 0.356
# Mean RMSD: 0.271
data_MOF--net-ocu--node1-VOLQOD_clean_sbu_1--node2-AJUNOK_clean_sbu_0--edge1-MIFKUJ_clean_linker_0
_symmetry_space_group_name_H-M    P1
_symmetry_Int_Tables_number       1
_symmetry_cell_setting            triclinic
loop_
_symmetry_equiv_pos_as_xyz
'x, y, z'
_cell_length_a     52.156151
_cell_length_b     52.278375
_cell_length_c     44.300172
_cell_angle_alpha  95.956044
_cell_angle_beta   96.03277
_cell_angle_gamma 101.01518
loop_
_atom_site_label
_atom_site_type_symbol
_atom_site_fract_x
_atom_site_fract_y
_atom_site_fract_z
_atom_type_partial_charge
O0 O 0.29681 0.29828 0.28164 0.0
Zn1 Zn 0.26632 0.2701 0.28869 0.0
O2 O 0.24636 0.25178 0.24974 0.0
Zn3 Zn 0.21052 0.25792 0.24637 0.0
Zn4 Zn 0.2636 0.26473 0.21588 0.0
Zn5 Zn 0.24524 0.21416 0.24737 0.0
O6 O 0.18375 0.22416 0.24432 0.0
O7 O 0.20849 0.19415 0.24738 0.0
O8 O 0.24328 0.28735 0.31501 0.0
O9 O 0.2058 0.2812 0.2838 0.0
O10 O 0.20256 0.27564 0.20912 0.0
O11 O 0.24081 0.28326 0.19041 0.0
O12 O 0.27226 0.2358 0.18784 0.0
O13 O 0.28321 0.24488 0.31152 0.0
O14 O 0.25853 0.20013 0.20938 0.0
O15 O 0.26881 0.2064 0.28262 0.0
C16 C 0.30749 0.30237 0.25756 0.0
C17 C 0.18602 0.20043 0.2454 0.0
C18 C 0.21681 0.28519 0.18969 0.0
C19 C 0.21978 0.29074 0.30929 0.0
C20 C 0.26895 0.21108 0.18805 0.0
C21 C 0.28277 0.22037 0.30606 0.0
O22 O 0.29729 0.29001 0.23149 0.0
O23 O 0.75938 0.19432 0.21702 0.0
Zn24 Zn 0.77534 0.22324 0.25134 0.0
O25 O 0.74889 0.24311 0.26196 0.0
Zn26 Zn 0.75832 0.27904 0.25301 0.0
Zn27 Zn 0.71459 0.22703 0.23933 0.0
Zn28 Zn 0.74684 0.24342 0.3052 0.0
O29 O 0.76709 0.30512 0.2916 0.0
O30 O 0.76406 0.27843 0.32744 0.0
O31 O 0.80586 0.246 0.23646 0.0
O32 O 0.79087 0.2828 0.23278 0.0
O33 O 0.73091 0.28826 0.2229 0.0
O34 O 0.70368 0.2498 0.2084 0.0
O35 O 0.686 0.22417 0.26699 0.0
O36 O 0.78931 0.2074 0.28769 0.0
O37 O 0.70945 0.23897 0.31238 0.0
O38 O 0.76507 0.21673 0.32408 0.0
C39 C 0.73561 0.18346 0.20686 0.0
C40 C 0.76978 0.30135 0.31963 0.0
C41 C 0.71117 0.27399 0.20567 0.0
C42 C 0.80812 0.269 0.22874 0.0
C43 C 0.68742 0.23157 0.29554 0.0
C44 C 0.7829 0.20554 0.31448 0.0
O45 O 0.71617 0.19244 0.21568 0.0
O46 O 0.71095 0.71198 0.26617 0.0
Zn47 Zn 0.74211 0.73989 0.28446 0.0
O48 O 0.75818 0.75894 0.25274 0.0
Zn49 Zn 0.79584 0.75944 0.25755 0.0
Zn50 Zn 0.74263 0.74275 0.21192 0.0
Zn51 Zn 0.75168 0.7944 0.25658 0.0
O52 O 0.81602 0.79684 0.26729 0.0
O53 O 0.78514 0.82045 0.26124 0.0
O54 O 0.7677 0.72247 0.30787 0.0
O55 O 0.80582 0.73833 0.29164 0.0
O56 O 0.80658 0.74337 0.2188 0.0
O57 O 0.7691 0.72939 0.18771 0.0
O58 O 0.72487 0.76643 0.18732 0.0
O59 O 0.72889 0.76419 0.31451 0.0
O60 O 0.72828 0.80165 0.22095 0.0
O61 O 0.73532 0.80184 0.29459 0.0
C62 C 0.70252 0.70407 0.23819 0.0
C63 C 0.80916 0.81895 0.26678 0.0
C64 C 0.79398 0.73183 0.19329 0.0
C65 C 0.79245 0.72439 0.3088 0.0
C66 C 0.71981 0.78895 0.19461 0.0
C67 C 0.72748 0.78828 0.31534 0.0
O68 O 0.71355 0.71368 0.21646 0.0
O69 O 0.2984 0.74003 0.29842 0.0
Zn70 Zn 0.27345 0.72981 0.25874 0.0
O71 O 0.25536 0.75799 0.24819 0.0
Zn72 Zn 0.21752 0.74802 0.24946 0.0
Zn73 Zn 0.26946 0.78882 0.27761 0.0
Zn74 Zn 0.26095 0.76609 0.20706 0.0
O75 O 0.19654 0.7487 0.20876 0.0
O76 O 0.22743 0.75459 0.17793 0.0
O77 O 0.24721 0.6968 0.26223 0.0
O78 O 0.20921 0.71024 0.25599 0.0
O79 O 0.20496 0.7699 0.28374 0.0
O80 O 0.24226 0.7974 0.30319 0.0
O81 O 0.28216 0.82053 0.25714 0.0
O82 O 0.29556 0.72176 0.22599 0.0
O83 O 0.27264 0.80514 0.20764 0.0
O84 O 0.28816 0.74733 0.19029 0.0
C85 C 0.30683 0.76251 0.31396 0.0
C86 C 0.20327 0.74956 0.18199 0.0
C87 C 0.21781 0.78873 0.30347 0.0
C88 C 0.22216 0.6923 0.2601 0.0
C89 C 0.28092 0.82407 0.22908 0.0
C90 C 0.2998 0.73007 0.20057 0.0
O91 O 0.2984 0.78271 0.30719 0.0
O92 O 0.27324 0.7195 0.71212 0.0
Zn93 Zn 0.2858 0.74185 0.75356 0.0
O94 O 0.25847 0.75977 0.76782 0.0
Zn95 Zn 0.26878 0.79797 0.76963 0.0
Zn96 Zn 0.22592 0.74796 0.7405 0.0
Zn97 Zn 0.25197 0.75113 0.80801 0.0
O98 O 0.26683 0.81626 0.81163 0.0
O99 O 0.26032 0.78287 0.83886 0.0
O100 O 0.31763 0.76881 0.74851 0.0
O101 O 0.30642 0.80698 0.76212 0.0
O102 O 0.24665 0.81245 0.73727 0.0
O103 O 0.21494 0.77737 0.72177 0.0
O104 O 0.19524 0.73114 0.76059 0.0
O105 O 0.29772 0.71945 0.78484 0.0
O106 O 0.21405 0.73693 0.80875 0.0
O107 O 0.27335 0.72547 0.82218 0.0
C108 C 0.25084 0.71542 0.69587 0.0
C109 C 0.26438 0.80739 0.83714 0.0
C110 C 0.22498 0.80134 0.721 0.0
C111 C 0.32316 0.7938 0.75366 0.0
C112 C 0.19382 0.72987 0.78888 0.0
C113 C 0.29095 0.71498 0.81094 0.0
O114 O 0.23173 0.72455 0.70509 0.0
O115 O 0.21822 0.21777 0.77905 0.0
Zn116 Zn 0.25018 0.24716 0.79119 0.0
O117 O 0.26265 0.26146 0.75453 0.0
Zn118 Zn 0.29989 0.26102 0.75494 0.0
Zn119 Zn 0.24344 0.24138 0.71693 0.0
Zn120 Zn 0.25703 0.29696 0.75431 0.0
O121 O 0.32124 0.29732 0.75546 0.0
O122 O 0.29124 0.32208 0.75818 0.0
O123 O 0.2786 0.23359 0.81576 0.0
O124 O 0.31356 0.24621 0.79223 0.0
O125 O 0.30624 0.23746 0.71906 0.0
O126 O 0.26607 0.22019 0.6953 0.0
O127 O 0.22839 0.2639 0.68741 0.0
O128 O 0.23793 0.2746 0.81857 0.0
O129 O 0.23646 0.30258 0.71582 0.0
O130 O 0.23793 0.30663 0.78925 0.0
C131 C 0.20578 0.20874 0.75267 0.0
C132 C 0.31498 0.31977 0.75733 0.0
C133 C 0.29085 0.22152 0.69823 0.0
C134 C 0.30306 0.23541 0.81368 0.0
C135 C 0.22677 0.288 0.69094 0.0
C136 C 0.23263 0.29666 0.81345 0.0
O137 O 0.21341 0.21653 0.72824 0.0
O138 O 0.79384 0.24026 0.80727 0.0
Zn139 Zn 0.77162 0.22677 0.76556 0.0
O140 O 0.75893 0.25549 0.74737 0.0
Zn141 Zn 0.72066 0.2498 0.74067 0.0
Zn142 Zn 0.77127 0.28817 0.77384 0.0
Zn143 Zn 0.77178 0.25865 0.70821 0.0
O144 O 0.70678 0.24776 0.69625 0.0
O145 O 0.74238 0.24509 0.67372 0.0
O146 O 0.74034 0.19839 0.7702 0.0
O147 O 0.70618 0.21472 0.75245 0.0
O148 O 0.70577 0.27631 0.76642 0.0
O149 O 0.7423 0.30064 0.79254 0.0
O150 O 0.78675 0.31716 0.75081 0.0
O151 O 0.79397 0.2102 0.73748 0.0
O152 O 0.78645 0.29621 0.70441 0.0
O153 O 0.79897 0.23711 0.70185 0.0
C154 C 0.80182 0.2637 0.82071 0.0
C155 C 0.71763 0.24357 0.6723 0.0
C156 C 0.71738 0.29488 0.78706 0.0
C157 C 0.71558 0.19643 0.76348 0.0
C158 C 0.79099 0.31724 0.72306 0.0
C159 C 0.80416 0.21738 0.71399 0.0
O160 O 0.79567 0.28337 0.80926 0.0
O161 O 0.79734 0.79942 0.78559 0.0
Zn162 Zn 0.76869 0.76868 0.79063 0.0
O163 O 0.7505 0.75082 0.75063 0.0
Zn164 Zn 0.71362 0.75339 0.74803 0.0
Zn165 Zn 0.7668 0.76694 0.71759 0.0
Zn166 Zn 0.75258 0.71386 0.74605 0.0
O167 O 0.6896 0.71789 0.7447 0.0
O168 O 0.71729 0.69062 0.74704 0.0
O169 O 0.74405 0.78294 0.81694 0.0
O170 O 0.70638 0.7742 0.78594 0.0
O171 O 0.70393 0.77216 0.71282 0.0
O172 O 0.74112 0.7837 0.69281 0.0
O173 O 0.77946 0.74077 0.68884 0.0
O174 O 0.78589 0.74382 0.8135 0.0
O175 O 0.76629 0.70301 0.70684 0.0
O176 O 0.77706 0.70697 0.78097 0.0
C177 C 0.80729 0.80648 0.76199 0.0
C178 C 0.69398 0.69483 0.74572 0.0
C179 C 0.71673 0.7837 0.69343 0.0
C180 C 0.71988 0.78415 0.81153 0.0
C181 C 0.77707 0.71594 0.68708 0.0
C182 C 0.78812 0.72019 0.80633 0.0
O183 O 0.79804 0.79515 0.73517 0.0
Cd184 Cd 0.99316 0.98255 0.56209 0.0
Cd185 Cd 0.02176 0.01355 0.4751 0.0
C186 C 0.04881 0.96488 0.56798 0.0
N187 N 0.0236 0.95594 0.55446 0.0
C188 C 0.03424 0.91568 0.53387 0.0
C189 C 0.06028 0.92434 0.54807 0.0
C190 C 0.06755 0.94943 0.56491 0.0
C191 C 0.01609 0.93198 0.53731 0.0
H192 H 0.05434 0.98372 0.58191 0.0
H193 H 0.99588 0.92531 0.52691 0.0
C194 C 0.97946 0.96403 0.48018 0.0
C195 C 0.96457 0.02899 0.46358 0.0
C196 C 0.94606 0.04502 0.4624 0.0
C197 C 0.95277 0.07094 0.47697 0.0
C198 C 0.97814 0.08009 0.49292 0.0
C199 C 0.99616 0.06339 0.49344 0.0
N200 N 0.98913 0.03841 0.47882 0.0
H201 H 0.95959 0.00941 0.45128 0.0
H202 H 0.0161 0.07065 0.50441 0.0
C203 C 0.04231 0.96053 0.45916 0.0
N204 N 0.04924 0.98311 0.47895 0.0
C205 C 0.08957 0.97117 0.49746 0.0
C206 C 0.08274 0.94775 0.47711 0.0
C207 C 0.05856 0.94232 0.45828 0.0
C208 C 0.07223 0.9886 0.49824 0.0
H209 H 0.02467 0.95699 0.443 0.0
H210 H 0.07752 0.00691 0.5134 0.0
C211 C 0.03685 0.02889 0.55633 0.0
C212 C 0.96505 0.96191 0.60823 0.0
N213 N 0.96843 0.0142 0.55205 0.0
C214 C 0.97535 0.03752 0.57048 0.0
C215 C 0.95984 0.05629 0.56861 0.0
C216 C 0.93644 0.0507 0.54827 0.0
C217 C 0.9298 0.02664 0.52921 0.0
C218 C 0.94635 0.00863 0.53128 0.0
C219 C 0.04853 0.04224 0.43342 0.0
O220 O 0.98765 0.97545 0.50697 0.0
O221 O 0.9876 0.97516 0.45784 0.0
O222 O 0.02689 0.01741 0.53005 0.0
O223 O 0.02898 0.01907 0.5795 0.0
O224 O 0.95778 0.95259 0.58024 0.0
O225 O 0.98586 0.97963 0.61425 0.0
O226 O 0.05391 0.04967 0.46208 0.0
O227 O 0.03106 0.02153 0.42475 0.0
H228 H 0.99224 0.04118 0.58777 0.0
H229 H 0.94096 0.98987 0.51718 0.0
H230 H 0.02792 0.89637 0.52083 0.0
H231 H 0.08727 0.95659 0.57682 0.0
H232 H 0.92706 0.03774 0.44897 0.0
H233 H 0.98416 0.10011 0.50411 0.0
H234 H 0.10825 0.97612 0.5121 0.0
H235 H 0.05295 0.92486 0.44167 0.0
H236 H 0.9652 0.07425 0.58445 0.0
H237 H 0.9117 0.02157 0.51356 0.0
Cd238 Cd 0.48745 -0.00239 0.05402 0.0
Cd239 Cd 0.5188 0.01106 0.96441 0.0
C240 C 0.53275 0.96406 0.0474 0.0
N241 N 0.50785 0.9613 0.05489 0.0
C242 C 0.50855 0.91762 0.06623 0.0
C243 C 0.53454 0.92025 0.05916 0.0
C244 C 0.54648 0.94382 0.04941 0.0
C245 C 0.4955 0.93854 0.06394 0.0
H246 H 0.54233 0.98211 0.04027 0.0
H247 H 0.4757 0.93681 0.06988 0.0
C248 C 0.46995 0.97199 0.97433 0.0
C249 C 0.4653 0.03253 0.94906 0.0
C250 C 0.44909 0.05071 0.94631 0.0
C251 C 0.45778 0.07649 0.96103 0.0
C252 C 0.48226 0.08295 0.97955 0.0
C253 C 0.49777 0.06401 0.98194 0.0
N254 N 0.48923 0.03947 0.96644 0.0
H255 H 0.45921 0.01329 0.93602 0.0
H256 H 0.51707 0.06916 0.99519 0.0
C257 C 0.53396 0.95478 0.97192 0.0
N258 N 0.54517 0.98078 0.97499 0.0
C259 C 0.58827 0.971 0.97968 0.0
C260 C 0.57714 0.944 0.97428 0.0
C261 C 0.54966 0.93599 0.97168 0.0
C262 C 0.57177 0.98919 0.97977 0.0
H263 H 0.51284 0.94843 0.96809 0.0
H264 H 0.58017 0.00997 0.98168 0.0
C265 C 0.54082 0.03235 0.04561 0.0
C266 C 0.44871 0.98736 0.09367 0.0
N267 N 0.47067 0.03358 0.04066 0.0
C268 C 0.48195 0.0581 0.05471 0.0
C269 C 0.46727 0.07777 0.05604 0.0
C270 C 0.44054 0.07184 0.04371 0.0
C271 C 0.43027 0.04708 0.02673 0.0
C272 C 0.44582 0.02811 0.02551 0.0
C273 C 0.54464 0.03305 0.91764 0.0
O274 O 0.4821 0.98486 -0.00078 0.0
O275 O 0.48001 0.97632 0.95005 0.0
O276 O 0.52779 0.02272 0.01978 0.0
O277 O 0.53002 0.02732 0.06934 0.0
O278 O 0.4439 0.98055 0.065 0.0
O279 O 0.47244 -0.00265 0.10471 0.0
O280 O 0.54797 0.04504 0.94465 0.0
O281 O 0.5298 0.01041 0.91255 0.0
H282 H 0.50148 0.0619 0.0672 0.0
H283 H 0.43717 0.00827 0.01509 0.0
H284 H 0.49855 0.89973 0.07376 0.0
H285 H 0.56662 0.94702 0.04431 0.0
H286 H 0.43062 0.04502 0.93131 0.0
H287 H 0.48961 0.1026 0.99141 0.0
H288 H 0.60937 0.97799 0.98145 0.0
H289 H 0.54034 0.91535 0.96787 0.0
H290 H 0.47617 0.09679 0.06871 0.0
H291 H 0.40978 0.04151 0.01697 0.0
Cd292 Cd 0.99156 0.49196 0.06116 0.0
Cd293 Cd 0.01524 0.51387 0.9723 0.0
C294 C 0.0498 0.48076 0.07361 0.0
N295 N 0.02718 0.4722 0.05403 0.0
C296 C 0.04386 0.4362 0.03169 0.0
C297 C 0.06714 0.4442 0.0522 0.0
C298 C 0.07027 0.46713 0.07286 0.0
C299 C 0.02405 0.45064 0.03296 0.0
H300 H 0.05153 0.49748 0.09077 0.0
H301 H 0.00587 0.44407 0.01782 0.0
C302 C 0.96744 0.46908 0.98005 0.0
C303 C 0.96383 0.53427 0.94763 0.0
C304 C 0.94809 0.5523 0.94174 0.0
C305 C 0.95468 0.57771 0.9579 0.0
C306 C 0.97638 0.58403 0.9808 0.0
C307 C 0.99162 0.56528 0.98599 0.0
N308 N 0.98519 0.54107 0.96931 0.0
H309 H 0.95969 0.51533 0.93383 0.0
H310 H 0.00924 0.57041 0.00229 0.0
C311 C 0.02711 0.45657 0.9505 0.0
N312 N 0.03788 0.47945 0.9688 0.0
C313 C 0.07834 0.46497 0.97926 0.0
C314 C 0.06791 0.44143 0.95983 0.0
C315 C 0.04172 0.43711 0.94603 0.0
C316 C 0.06285 0.48379 0.98348 0.0
H317 H 0.00749 0.45359 0.93845 0.0
H318 H 0.071 0.50225 0.99767 0.0
C319 C 0.03155 0.53793 0.05098 0.0
C320 C 0.96604 0.45939 0.10046 0.0
N321 N 0.969 0.52621 0.06005 0.0
C322 C 0.9704 0.54209 0.08669 0.0
C323 C 0.95783 0.56334 0.08761 0.0
C324 C 0.94355 0.56826 0.06085 0.0
C325 C 0.94227 0.55136 0.0337 0.0
C326 C 0.9552 0.53032 0.03382 0.0
C327 C 0.04623 0.54666 0.93819 0.0
O328 O 0.97824 0.47973 0.00651 0.0
O329 O 0.97607 0.47887 0.95714 0.0
O330 O 0.02123 0.52185 0.02748 0.0
O331 O 0.02492 0.53223 0.07656 0.0
O332 O 0.95614 0.45952 0.07308 0.0
O333 O 0.98754 0.47547 0.11015 0.0
O334 O 0.05116 0.5485 0.96712 0.0
O335 O 0.02765 0.52822 0.92497 0.0
H336 H 0.98132 0.53817 0.10725 0.0
H337 H 0.95418 0.51734 0.01295 0.0
H338 H 0.04081 0.41868 0.01531 0.0
H339 H 0.08771 0.47361 0.08948 0.0
H340 H 0.9314 0.54672 0.92397 0.0
H341 H 0.98219 0.60354 0.99346 0.0
H342 H 0.09854 0.46927 0.99013 0.0
H343 H 0.03284 0.41914 0.93121 0.0
H344 H 0.9588 0.57538 0.10928 0.0
H345 H 0.9315 0.55439 0.01256 0.0
Cd346 Cd 0.50006 0.48468 0.06956 0.0
Cd347 Cd 0.51923 0.52116 0.98143 0.0
C348 C 0.55103 0.45885 0.07283 0.0
N349 N 0.52677 0.45517 0.0565 0.0
C350 C 0.53305 0.4153 0.02919 0.0
C351 C 0.5581 0.41866 0.04592 0.0
C352 C 0.56717 0.44097 0.06763 0.0
C353 C 0.51762 0.43401 0.03483 0.0
H354 H 0.55756 0.47515 0.09076 0.0
H355 H 0.49802 0.43115 0.02265 0.0
C356 C 0.47348 0.47071 0.98709 0.0
C357 C 0.46273 0.53722 0.97217 0.0
C358 C 0.4442 0.55315 0.9709 0.0
C359 C 0.45071 0.57896 0.98596 0.0
C360 C 0.47567 0.58769 0.00315 0.0
C361 C 0.49366 0.57094 0.00392 0.0
N362 N 0.48707 0.54637 0.9881 0.0
H363 H 0.45796 0.51799 0.95913 0.0
H364 H 0.51323 0.57797 0.01605 0.0
C365 C 0.53591 0.47513 0.94107 0.0
N366 N 0.54033 0.48661 0.97055 0.0
C367 C 0.57021 0.45886 0.98362 0.0
C368 C 0.56616 0.44679 0.9532 0.0
C369 C 0.54859 0.45506 0.93186 0.0
C370 C 0.55697 0.47885 0.99186 0.0
H371 H 0.52288 0.48196 0.92457 0.0
H372 H 0.56035 0.48836 0.01512 0.0
C373 C 0.54568 0.52445 0.05636 0.0
C374 C 0.47641 0.46185 0.1178 0.0
N375 N 0.48019 0.52091 0.06856 0.0
C376 C 0.4887 0.54068 0.09191 0.0
C377 C 0.47618 0.56195 0.09475 0.0
C378 C 0.45475 0.56316 0.07309 0.0
C379 C 0.44682 0.54251 0.04888 0.0
C380 C 0.4596 0.52139 0.04728 0.0
C381 C 0.54386 0.55217 0.93988 0.0
O382 O 0.48261 0.47554 0.01523 0.0
O383 O 0.48362 0.48426 0.96752 0.0
O384 O 0.52722 0.51843 0.03452 0.0
O385 O 0.54164 0.51567 0.08138 0.0
O386 O 0.46749 0.45359 0.08997 0.0
O387 O 0.49642 0.48052 0.123 0.0
O388 O 0.55519 0.55324 0.96707 0.0
O389 O 0.5215 0.53687 0.93269 0.0
H390 H 0.50471 0.53946 0.10897 0.0
H391 H 0.45258 0.50519 0.02938 0.0
H392 H 0.5253 0.39817 0.01252 0.0
H393 H 0.58604 0.44387 0.08169 0.0
H394 H 0.42545 0.54574 0.95679 0.0
H395 H 0.48146 0.60747 0.01507 0.0
H396 H 0.58358 0.45305 0.00077 0.0
H397 H 0.54534 0.44676 0.908 0.0
H398 H 0.48272 0.57662 0.1145 0.0
H399 H 0.43072 0.54232 0.03133 0.0
Cd400 Cd 0.99373 0.50014 0.56102 0.0
Cd401 Cd 0.02781 0.52976 0.47867 0.0
C402 C 0.03906 0.47234 0.58715 0.0
N403 N 0.02024 0.46868 0.56258 0.0
C404 C 0.0345 0.43036 0.54186 0.0
C405 C 0.05393 0.43354 0.56721 0.0
C406 C 0.05613 0.45493 0.58997 0.0
C407 C 0.01761 0.44817 0.5401 0.0
H408 H 0.04077 0.48884 0.60464 0.0
H409 H 0.00242 0.44556 0.52083 0.0
C410 C 0.98446 0.48028 0.47791 0.0
C411 C 0.97234 0.54297 0.45396 0.0
C412 C 0.95202 0.55669 0.45006 0.0
C413 C 0.95232 0.57964 0.46992 0.0
C414 C 0.97364 0.58802 0.49343 0.0
C415 C 0.99361 0.57362 0.49648 0.0
N416 N 0.99255 0.55152 0.4769 0.0
H417 H 0.97235 0.5259 0.43797 0.0
H418 H 0.01014 0.58023 0.51427 0.0
C419 C 0.05443 0.4878 0.44617 0.0
N420 N 0.05133 0.49642 0.47525 0.0
C421 C 0.0776 0.46766 0.49516 0.0
C422 C 0.08101 0.45834 0.46521 0.0
C423 C 0.0692 0.46874 0.4406 0.0
C424 C 0.06246 0.48683 0.49969 0.0
H425 H 0.0456 0.49606 0.42727 0.0
H426 H 0.05986 0.49426 0.52264 0.0
C427 C 0.04197 0.54256 0.55966 0.0
C428 C 0.95389 0.48403 0.59697 0.0
N429 N 0.97201 0.53312 0.54843 0.0
C430 C 0.97699 0.55596 0.56768 0.0
C431 C 0.95988 0.57336 0.56571 0.0
C432 C 0.9372 0.567 0.54401 0.0
C433 C 0.93303 0.54362 0.52382 0.0
C434 C 0.95076 0.52686 0.52649 0.0
C435 C 0.05868 0.56141 0.44303 0.0
O436 O 0.99185 0.49128 0.5052 0.0
O437 O 0.99583 0.49049 0.45682 0.0
O438 O 0.02997 0.53272 0.53351 0.0
O439 O 0.03185 0.53471 0.5827 0.0
O440 O 0.95106 0.47709 0.56835 0.0
O441 O 0.97648 0.49619 0.60976 0.0
O442 O 0.06633 0.56206 0.47137 0.0
O443 O 0.03656 0.54692 0.43224 0.0
H444 H 0.99329 0.55991 0.58585 0.0
H445 H 0.94675 0.50823 0.51209 0.0
H446 H 0.03204 0.41401 0.52394 0.0
H447 H 0.07102 0.45827 0.60973 0.0
H448 H 0.93681 0.54976 0.43085 0.0
H449 H 0.97486 0.60534 0.50958 0.0
H450 H 0.08646 0.46023 0.51475 0.0
H451 H 0.07185 0.46266 0.4172 0.0
H452 H 0.96355 0.5908 0.5823 0.0
H453 H 0.91596 0.53806 0.50661 0.0
Cd454 Cd 0.48635 0.99144 0.53317 0.0
Cd455 Cd 0.52549 0.01484 0.45198 0.0
C456 C 0.53683 0.97805 0.56964 0.0
N457 N 0.52236 0.97208 0.54158 0.0
C458 C 0.54645 0.93918 0.52736 0.0
C459 C 0.56146 0.94477 0.55631 0.0
C460 C 0.55667 0.9646 0.57751 0.0
C461 C 0.52674 0.95314 0.52043 0.0
H462 H 0.53235 0.99267 0.58628 0.0
H463 H 0.51437 0.94828 0.49863 0.0
C464 C 0.47775 0.9697 0.45062 0.0
C465 C 0.47023 0.03563 0.43896 0.0
C466 C 0.45468 0.05416 0.43405 0.0
C467 C 0.46624 0.08106 0.43931 0.0
C468 C 0.49298 0.08871 0.451 0.0
C469 C 0.50769 0.06954 0.45597 0.0
N470 N 0.49633 0.0436 0.44927 0.0
H471 H 0.46154 0.015 0.43351 0.0
H472 H 0.52846 0.07541 0.46416 0.0
C473 C 0.54074 0.95768 0.43793 0.0
N474 N 0.54832 0.9809 0.45653 0.0
C475 C 0.58586 0.9669 0.4798 0.0
C476 C 0.57832 0.94266 0.46107 0.0
C477 C 0.5553 0.93808 0.44014 0.0
C478 C 0.57031 0.98575 0.47733 0.0
H479 H 0.52385 0.95447 0.42071 0.0
H480 H 0.57603 0.00447 0.49156 0.0
C481 C 0.53119 0.03591 0.52981 0.0
C482 C 0.45577 0.96018 0.56987 0.0
N483 N 0.46129 0.02346 0.52916 0.0
C484 C 0.46546 0.04213 0.55384 0.0
C485 C 0.45003 0.06099 0.55564 0.0
C486 C 0.42962 0.06041 0.53211 0.0
C487 C 0.42584 0.04111 0.50658 0.0
C488 C 0.44213 0.02267 0.50553 0.0
C489 C 0.56411 0.05 0.42943 0.0
O490 O 0.48463 0.98235 0.47721 0.0
O491 O 0.48908 0.97882 0.4288 0.0
O492 O 0.52304 0.02021 0.50559 0.0
O493 O 0.5209 0.03039 0.55354 0.0
O494 O 0.45526 0.9526 0.5416 0.0
O495 O 0.46992 0.98248 0.58048 0.0
O496 O 0.5653 0.04739 0.45767 0.0
O497 O 0.54591 0.03438 0.41124 0.0
H498 H 0.48015 0.04176 0.57281 0.0
H499 H 0.43894 0.00726 0.48642 0.0
H500 H 0.54927 0.92353 0.51079 0.0
H501 H 0.56777 0.96922 0.60015 0.0
H502 H 0.43413 0.04749 0.4248 0.0
H503 H 0.50254 0.10926 0.4556 0.0
H504 H 0.60361 0.97128 0.49605 0.0
H505 H 0.54922 0.91997 0.42464 0.0
H506 H 0.45316 0.07506 0.57611 0.0
H507 H 0.41019 0.03999 0.48807 0.0
H508 H 0.13742 0.20803 0.25782 0.0
H509 H 0.10536 0.17721 0.27974 0.0
H510 H 0.14982 0.11681 0.26301 0.0
H511 H 0.18198 0.14734 0.24116 0.0
H512 H 0.0755 0.11827 0.27067 0.0
H513 H 0.17366 0.1111 0.33323 0.0
H514 H 0.21967 0.13598 0.3415 0.0
H515 H 0.19247 0.20845 0.34064 0.0
H516 H 0.14638 0.18401 0.33289 0.0
H517 H 0.05049 0.02511 0.37387 0.0
H518 H 0.06905 0.05061 0.33534 0.0
H519 H 0.09274 0.11911 0.403 0.0
H520 H 0.07497 0.09335 0.44199 0.0
H521 H 0.13015 0.11588 0.36889 0.0
H522 H 0.03701 0.1107 0.34944 0.0
H523 H 0.99038 0.08789 0.34021 0.0
H524 H 0.00446 0.04511 0.25759 0.0
H525 H 0.05126 0.06744 0.26649 0.0
C526 C 0.13982 0.18789 0.25761 0.0
C527 C 0.16274 0.18035 0.24885 0.0
C528 C 0.1213 0.17024 0.26989 0.0
C529 C 0.12559 0.145 0.27342 0.0
C530 C 0.14634 0.13633 0.26057 0.0
C531 C 0.16486 0.15391 0.2484 0.0
C532 C 0.11367 0.1309 0.29729 0.0
C533 C 0.0873 0.1176 0.29214 0.0
C534 C 0.12903 0.13081 0.32552 0.0
C535 C 0.15664 0.14572 0.33234 0.0
C536 C 0.17754 0.13235 0.33515 0.0
C537 C 0.20362 0.14637 0.33966 0.0
C538 C 0.20899 0.17377 0.34153 0.0
C539 C 0.1883 0.18723 0.33916 0.0
C540 C 0.16221 0.1733 0.33473 0.0
C541 C 0.05976 0.04559 0.38055 0.0
C542 C 0.06118 0.05734 0.41083 0.0
C543 C 0.07021 0.06017 0.35848 0.0
C544 C 0.08174 0.0869 0.36614 0.0
C545 C 0.08379 0.09852 0.39658 0.0
C546 C 0.07367 0.08382 0.41881 0.0
C547 C 0.09183 0.10268 0.34241 0.0
C548 C 0.11807 0.11644 0.34757 0.0
C549 C 0.07603 0.10364 0.31459 0.0
C550 C 0.04771 0.09067 0.30872 0.0
C551 C 0.03019 0.09637 0.32934 0.0
C552 C 0.00372 0.08353 0.32417 0.0
C553 C 0.99447 0.06504 0.29835 0.0
C554 C 0.01165 0.05944 0.27758 0.0
C555 C 0.03814 0.07223 0.28264 0.0
H556 H 0.97399 0.05509 0.29442 0.0
H557 H 0.22919 0.18457 0.34484 0.0
H558 H 0.76778 0.18337 0.36525 0.0
H559 H 0.79357 0.16101 0.39955 0.0
H560 H 0.85826 0.17584 0.34613 0.0
H561 H 0.83225 0.1968 0.31123 0.0
H562 H 0.85351 0.12935 0.35789 0.0
H563 H 0.85441 0.21156 0.42003 0.0
H564 H 0.83507 0.24538 0.44723 0.0
H565 H 0.79822 0.18853 0.50094 0.0
H566 H 0.81716 0.15434 0.47395 0.0
H567 H 0.963 0.11956 0.45867 0.0
H568 H 0.93061 0.14419 0.43945 0.0
H569 H 0.86807 0.08704 0.4648 0.0
H570 H 0.90031 0.06184 0.48329 0.0
H571 H 0.86855 0.15195 0.47083 0.0
H572 H 0.86644 0.0694 0.40426 0.0
H573 H 0.89025 0.03795 0.38007 0.0
H574 H 0.93273 0.09915 0.33603 0.0
H575 H 0.90949 0.13107 0.36052 0.0
C576 C 0.78748 0.18172 0.36084 0.0
C577 C 0.7979 0.19168 0.33539 0.0
C578 C 0.8023 0.16913 0.3806 0.0
C579 C 0.82808 0.16694 0.37574 0.0
C580 C 0.83842 0.17707 0.3504 0.0
C581 C 0.82348 0.18907 0.33038 0.0
C582 C 0.84434 0.15357 0.39621 0.0
C583 C 0.85672 0.13452 0.38254 0.0
C584 C 0.84839 0.15973 0.42859 0.0
C585 C 0.83694 0.18031 0.44469 0.0
C586 C 0.84202 0.20623 0.43748 0.0
C587 C 0.8312 0.22549 0.45293 0.0
C588 C 0.81543 0.21911 0.47579 0.0
C589 C 0.81046 0.19347 0.48327 0.0
C590 C 0.82125 0.17415 0.46792 0.0
C591 C 0.94246 0.11272 0.46112 0.0
C592 C 0.93413 0.08873 0.47231 0.0
C593 C 0.924 0.12681 0.45016 0.0
C594 C 0.89703 0.11736 0.45073 0.0
C595 C 0.88884 0.09468 0.46437 0.0
C596 C 0.90723 0.08027 0.47475 0.0
C597 C 0.8776 0.12844 0.43219 0.0
C598 C 0.86483 0.14685 0.44618 0.0
C599 C 0.87325 0.12197 0.4001 0.0
C600 C 0.88642 0.10262 0.3844 0.0
C601 C 0.88097 0.07616 0.38956 0.0
C602 C 0.89435 0.05826 0.3758 0.0
C603 C 0.91302 0.06656 0.35655 0.0
C604 C 0.91827 0.09276 0.35095 0.0
C605 C 0.905 0.11076 0.36476 0.0
H606 H 0.92339 0.0527 0.34594 0.0
H607 H 0.80709 0.23405 0.48774 0.0
H608 H 0.86323 0.82855 0.27388 0.0
H609 H 0.88985 0.85509 0.31911 0.0
H610 H 0.82272 0.88716 0.34095 0.0
H611 H 0.79713 0.86315 0.29452 0.0
H612 H 0.86248 0.91661 0.37063 0.0
H613 H 0.83114 0.8241 0.35724 0.0
H614 H 0.82646 0.78065 0.328 0.0
H615 H 0.90953 0.78429 0.34851 0.0
H616 H 0.91489 0.82853 0.37676 0.0
H617 H 0.93827 0.94542 0.5113 0.0
H618 H 0.89979 0.91164 0.48826 0.0
H619 H 0.94249 0.89112 0.41407 0.0
H620 H 0.98018 0.9249 0.43634 0.0
H621 H 0.89848 0.85004 0.42469 0.0
H622 H 0.9089 0.95287 0.39369 0.0
H623 H 0.91067 -0.00128 0.41477 0.0
H624 H 0.86371 0.97233 0.48396 0.0
H625 H 0.86079 0.92621 0.46231 0.0
C626 C 0.85471 0.8425 0.28732 0.0
C627 C 0.82777 0.8427 0.28179 0.0
C628 C 0.86978 0.85739 0.31338 0.0
C629 C 0.85748 0.87131 0.33448 0.0
C630 C 0.83229 0.87569 0.32558 0.0
C631 C 0.81764 0.86184 0.29885 0.0
C632 C 0.86846 0.87686 0.36716 0.0
C633 C 0.86989 0.90189 0.38259 0.0
C634 C 0.87682 0.85722 0.38337 0.0
C635 C 0.87341 0.82966 0.36904 0.0
C636 C 0.8484 0.81559 0.35565 0.0
C637 C 0.84569 0.79088 0.33896 0.0
C638 C 0.86768 0.77953 0.33639 0.0
C639 C 0.89248 0.79299 0.35054 0.0
C640 C 0.8954 0.81799 0.36679 0.0
C641 C 0.93953 0.93315 0.49053 0.0
C642 C 0.96123 0.93864 0.47429 0.0
C643 C 0.91769 0.91376 0.47758 0.0
C644 C 0.91804 0.89989 0.44882 0.0
C645 C 0.9417 0.90201 0.43604 0.0
C646 C 0.96313 0.92155 0.44854 0.0
C647 C 0.8939 0.89019 0.42732 0.0
C648 C 0.8897 0.86424 0.41326 0.0
C649 C 0.88219 0.9087 0.41267 0.0
C650 C 0.885 0.93619 0.42673 0.0
C651 C 0.89907 0.95689 0.41349 0.0
C652 C 0.90018 0.98292 0.42547 0.0
C653 C 0.88747 0.98848 0.45089 0.0
C654 C 0.87362 0.96799 0.46435 0.0
C655 C 0.87216 0.94191 0.45216 0.0
H656 H 0.88809 0.00863 0.45999 0.0
H657 H 0.86549 0.76032 0.32349 0.0
H658 H 0.16464 0.78338 0.30682 0.0
H659 H 0.14355 0.80746 0.34424 0.0
H660 H 0.21989 0.84652 0.39103 0.0
H661 H 0.24102 0.82261 0.35415 0.0
H662 H 0.18522 0.8341 0.4317 0.0
H663 H 0.18936 0.87673 0.34065 0.0
H664 H 0.18176 0.87919 0.28523 0.0
H665 H 0.09827 0.85694 0.28639 0.0
H666 H 0.10543 0.854 0.34179 0.0
H667 H 0.13343 0.96181 0.46592 0.0
H668 H 0.16062 0.93249 0.44534 0.0
H669 H 0.10174 0.86518 0.45618 0.0
H670 H 0.07404 0.89445 0.47591 0.0
H671 H 0.12931 0.892 0.38922 0.0
H672 H 0.15657 0.82197 0.47587 0.0
H673 H 0.17088 0.82277 0.53088 0.0
H674 H 0.19809 0.90637 0.53972 0.0
H675 H 0.18482 0.90598 0.48464 0.0
C676 C 0.17691 0.79687 0.32528 0.0
C677 C 0.20451 0.80134 0.32718 0.0
C678 C 0.16485 0.81061 0.34663 0.0
C679 C 0.18019 0.82896 0.37026 0.0
C680 C 0.20767 0.83246 0.37304 0.0
C681 C 0.21971 0.8189 0.3517 0.0
C682 C 0.16788 0.84615 0.39058 0.0
C683 C 0.17278 0.8466 0.42248 0.0
C684 C 0.15231 0.86299 0.37852 0.0
C685 C 0.14794 0.86485 0.34526 0.0
C686 C 0.1694 0.87216 0.32903 0.0
C687 C 0.16517 0.87368 0.29764 0.0
C688 C 0.13955 0.86815 0.28228 0.0
C689 C 0.1181 0.86117 0.29831 0.0
C690 C 0.12223 0.85958 0.3297 0.0
C691 C 0.12671 0.94077 0.46491 0.0
C692 C 0.10163 0.93034 0.47231 0.0
C693 C 0.14222 0.92408 0.45313 0.0
C694 C 0.1332 0.89674 0.44947 0.0
C695 C 0.10911 0.88623 0.45918 0.0
C696 C 0.09331 0.90292 0.47028 0.0
C697 C 0.14627 0.87966 0.43031 0.0
C698 C 0.14143 0.87923 0.39851 0.0
C699 C 0.1623 0.86334 0.4426 0.0
C700 C 0.16921 0.86398 0.47611 0.0
C701 C 0.16553 0.84054 0.48955 0.0
C702 C 0.17362 0.84091 0.52073 0.0
C703 C 0.1854 0.86462 0.53876 0.0
C704 C 0.18893 0.88803 0.52571 0.0
C705 C 0.18104 0.88775 0.4945 0.0
H706 H 0.19186 0.86485 0.56283 0.0
H707 H 0.13631 0.86934 0.25797 0.0
H708 H 0.17334 0.78958 0.6983 0.0
H709 H 0.15108 0.80875 0.65815 0.0
H710 H 0.22338 0.86328 0.65278 0.0
H711 H 0.24591 0.84432 0.6939 0.0
H712 H 0.18315 0.88718 0.6508 0.0
H713 H 0.19986 0.81074 0.59624 0.0
H714 H 0.20187 0.76398 0.58553 0.0
H715 H 0.11767 0.74238 0.57948 0.0
H716 H 0.11515 0.78897 0.59067 0.0
H717 H 0.11199 0.93513 0.53876 0.0
H718 H 0.14533 0.91034 0.55393 0.0
H719 H 0.08496 0.84994 0.57794 0.0
H720 H 0.05139 0.87389 0.56096 0.0
H721 H 0.1265 0.82973 0.56294 0.0
H722 H 0.11251 0.90497 0.62925 0.0
H723 H 0.10992 0.95161 0.63994 0.0
H724 H 0.19009 0.97495 0.62292 0.0
H725 H 0.19299 0.92838 0.61168 0.0
C726 C 0.18456 0.80573 0.68872 0.0
C727 C 0.21142 0.81538 0.69914 0.0
C728 C 0.17185 0.81648 0.6655 0.0
C729 C 0.18576 0.83687 0.65177 0.0
C730 C 0.21239 0.84728 0.66281 0.0
C731 C 0.22517 0.8366 0.6864 0.0
C732 C 0.17176 0.84788 0.62696 0.0
C733 C 0.1714 0.87473 0.6311 0.0
C734 C 0.15603 0.83153 0.60151 0.0
C735 C 0.15735 0.8034 0.59453 0.0
C736 C 0.18177 0.79602 0.59286 0.0
C737 C 0.183 0.76953 0.58667 0.0
C738 C 0.15992 0.75022 0.58189 0.0
C739 C 0.13554 0.75736 0.5832 0.0
C740 C 0.1342 0.78382 0.58943 0.0
C741 C 0.10573 0.91602 0.54598 0.0
C742 C 0.07916 0.90656 0.54902 0.0
C743 C 0.1248 0.9019 0.55474 0.0
C744 C 0.11768 0.87879 0.56806 0.0
C745 C 0.0909 0.86787 0.56795 0.0
C746 C 0.07172 0.88161 0.55831 0.0
C747 C 0.13772 0.86883 0.58715 0.0
C748 C 0.1389 0.84219 0.58217 0.0
C749 C 0.15436 0.88534 0.61179 0.0
C750 C 0.15291 0.91327 0.61945 0.0
C751 C 0.12956 0.92007 0.62777 0.0
C752 C 0.12803 0.94647 0.63387 0.0
C753 C 0.14982 0.96623 0.63207 0.0
C754 C 0.17322 0.95962 0.62427 0.0
C755 C 0.17484 0.93323 0.61805 0.0
H756 H 0.14858 0.98667 0.63676 0.0
H757 H 0.16092 0.72972 0.57712 0.0
H758 H 0.20169 0.15639 0.74484 0.0
H759 H 0.16536 0.12711 0.71133 0.0
H760 H 0.11993 0.18789 0.71502 0.0
H761 H 0.15633 0.21721 0.74859 0.0
H762 H 0.08989 0.12959 0.70146 0.0
H763 H 0.15417 0.19679 0.66603 0.0
H764 H 0.19785 0.22201 0.66016 0.0
H765 H 0.22279 0.15072 0.63148 0.0
H766 H 0.17914 0.12495 0.63739 0.0
H767 H 0.02401 0.07621 0.55964 0.0
H768 H 0.05076 0.11503 0.59138 0.0
H769 H 0.1162 0.07552 0.5994 0.0
H770 H 0.08956 0.03694 0.56709 0.0
H771 H 0.1319 0.12957 0.60575 0.0
H772 H 0.0699 0.06207 0.64588 0.0
H773 H 0.02508 0.03579 0.64503 0.0
H774 H 0.99537 0.10644 0.66132 0.0
H775 H 0.04008 0.13315 0.66222 0.0
C776 C 0.18325 0.16278 0.74026 0.0
C777 C 0.1816 0.18887 0.74903 0.0
C778 C 0.1626 0.14617 0.72095 0.0
C779 C 0.14038 0.15571 0.71033 0.0
C780 C 0.13701 0.18032 0.72305 0.0
C781 C 0.15771 0.19696 0.74235 0.0
C782 C 0.12489 0.14329 0.68107 0.0
C783 C 0.09884 0.1299 0.68045 0.0
C784 C 0.13669 0.14379 0.65373 0.0
C785 C 0.16354 0.15897 0.65253 0.0
C786 C 0.16912 0.18646 0.65902 0.0
C787 C 0.19384 0.20087 0.65552 0.0
C788 C 0.21316 0.18805 0.64554 0.0
C789 C 0.20785 0.16067 0.6393 0.0
C790 C 0.18312 0.14614 0.6427 0.0
C791 C 0.04468 0.07663 0.56635 0.0
C792 C 0.05505 0.05399 0.56095 0.0
C793 C 0.05979 0.09862 0.58481 0.0
C794 C 0.08505 0.09765 0.5983 0.0
C795 C 0.09663 0.07645 0.58924 0.0
C796 C 0.08154 0.05452 0.57067 0.0
C797 C 0.0972 0.11533 0.62616 0.0
C798 C 0.12271 0.12971 0.62663 0.0
C799 C 0.08489 0.11555 0.65323 0.0
C800 C 0.05827 0.09958 0.65406 0.0
C801 C 0.05381 0.07198 0.64938 0.0
C802 C 0.02845 0.05702 0.64886 0.0
C803 C 0.00741 0.06945 0.65312 0.0
C804 C 0.01171 0.09686 0.65807 0.0
C805 C 0.03707 0.11192 0.65868 0.0
H806 H 0.98779 0.05782 0.65255 0.0
H807 H 0.23213 0.19936 0.6424 0.0
H808 H 0.84365 0.23289 0.68007 0.0
H809 H 0.86425 0.20468 0.64689 0.0
H810 H 0.81814 0.13608 0.67615 0.0
H811 H 0.79868 0.1643 0.71062 0.0
H812 H 0.86294 0.1268 0.66986 0.0
H813 H 0.80188 0.16166 0.6062 0.0
H814 H 0.78134 0.19552 0.58437 0.0
H815 H 0.8534 0.22699 0.55042 0.0
H816 H 0.87455 0.19361 0.57254 0.0
H817 H 0.88448 0.03701 0.55416 0.0
H818 H 0.85746 0.06634 0.57465 0.0
H819 H 0.919 0.1333 0.56999 0.0
H820 H 0.94618 0.104 0.54939 0.0
H821 H 0.86423 0.14201 0.56118 0.0
H822 H 0.92455 0.10619 0.62919 0.0
H823 H 0.94167 0.06905 0.64765 0.0
H824 H 0.86549 0.03621 0.67109 0.0
H825 H 0.84771 0.07277 0.65184 0.0
C826 C 0.83831 0.21178 0.67978 0.0
C827 C 0.81954 0.20073 0.69781 0.0
C828 C 0.84983 0.19566 0.66054 0.0
C829 C 0.84213 0.1682 0.65821 0.0
C830 C 0.82428 0.1572 0.67733 0.0
C831 C 0.81325 0.17333 0.69714 0.0
C832 C 0.85244 0.15091 0.63575 0.0
C833 C 0.86279 0.13 0.64604 0.0
C834 C 0.85253 0.15508 0.60457 0.0
C835 C 0.83991 0.17531 0.59139 0.0
C836 C 0.81344 0.17596 0.59436 0.0
C837 C 0.80168 0.19506 0.58191 0.0
C838 C 0.81611 0.21349 0.56618 0.0
C839 C 0.8423 0.21279 0.56276 0.0
C840 C 0.85418 0.19377 0.57523 0.0
C841 C 0.89178 0.05803 0.55621 0.0
C842 C 0.91757 0.0683 0.55085 0.0
C843 C 0.87635 0.07474 0.56799 0.0
C844 C 0.88655 0.10184 0.57437 0.0
C845 C 0.91093 0.11239 0.56537 0.0
C846 C 0.92647 0.09568 0.55382 0.0
C847 C 0.87445 0.11825 0.59551 0.0
C848 C 0.86401 0.13892 0.585 0.0
C849 C 0.87378 0.11363 0.62636 0.0
C850 C 0.88472 0.09205 0.63872 0.0
C851 C 0.91138 0.09092 0.638 0.0
C852 C 0.92121 0.06995 0.64859 0.0
C853 C 0.90465 0.05019 0.6604 0.0
C854 C 0.87826 0.05144 0.66177 0.0
C855 C 0.86829 0.07226 0.65099 0.0
H856 H 0.91228 0.03397 0.66859 0.0
H857 H 0.80695 0.22822 0.55648 0.0
H858 H 0.85324 0.80813 0.73876 0.0
H859 H 0.88507 0.8475 0.73272 0.0
H860 H 0.84152 0.89553 0.78354 0.0
H861 H 0.81003 0.85576 0.79067 0.0
H862 H 0.84438 0.90393 0.72134 0.0
H863 H 0.90249 0.90494 0.81025 0.0
H864 H 0.92899 0.88755 0.8496 0.0
H865 H 0.9757 0.86269 0.78234 0.0
H866 H 0.94928 0.87954 0.74248 0.0
H867 H 0.97323 0.98299 0.66817 0.0
H868 H 0.94784 0.96918 0.7091 0.0
H869 H 0.897 0.90799 0.64499 0.0
H870 H 0.92199 0.92198 0.60382 0.0
H871 H 0.94195 0.92333 0.73109 0.0
H872 H 0.83673 0.89519 0.66365 0.0
H873 H 0.81048 0.91088 0.62263 0.0
H874 H 0.8573 0.98878 0.64637 0.0
H875 H 0.88372 0.97367 0.68786 0.0
C876 C 0.8511 0.82701 0.74967 0.0
C877 C 0.8293 0.82912 0.76502 0.0
C878 C 0.86934 0.84946 0.74641 0.0
C879 C 0.86565 0.87439 0.75776 0.0
C880 C 0.84481 0.87642 0.77492 0.0
C881 C 0.82689 0.85379 0.77894 0.0
C882 C 0.88007 0.89748 0.74568 0.0
C883 C 0.86574 0.9087 0.72389 0.0
C884 C 0.90787 0.90391 0.74948 0.0
C885 C 0.92381 0.89351 0.77332 0.0
C886 C 0.91829 0.89559 0.80378 0.0
C887 C 0.93333 0.88586 0.8262 0.0
C888 C 0.95401 0.87402 0.81847 0.0
C889 C 0.9597 0.8719 0.78831 0.0
C890 C 0.94472 0.8816 0.7658 0.0
C891 C 0.95657 0.96664 0.66276 0.0
C892 C 0.94967 0.95341 0.63282 0.0
C893 C 0.94204 0.95888 0.68616 0.0
C894 C 0.92033 0.93784 0.68002 0.0
C895 C 0.91333 0.92469 0.6501 0.0
C896 C 0.92777 0.93251 0.62665 0.0
C897 C 0.9062 0.92801 0.70515 0.0
C898 C 0.92063 0.9194 0.72927 0.0
C899 C 0.87844 0.92372 0.70329 0.0
C900 C 0.86224 0.93326 0.67891 0.0
C901 C 0.84129 0.91574 0.66037 0.0
C902 C 0.82639 0.92453 0.63699 0.0
C903 C 0.83215 0.95083 0.63197 0.0
C904 C 0.85284 0.96842 0.65034 0.0
C905 C 0.86782 0.95974 0.67376 0.0
H906 H 0.82062 0.95758 0.61382 0.0
H907 H 0.96563 0.86649 0.83586 0.0
H908 H 0.27259 0.15946 0.18627 0.0
H909 H 0.29761 0.13598 0.15356 0.0
H910 H 0.31438 0.20288 0.10416 0.0
H911 H 0.28984 0.22679 0.13719 0.0
H912 H 0.29929 0.12024 0.09403 0.0
H913 H 0.37885 0.21337 0.09552 0.0
H914 H 0.395 0.25683 0.1261 0.0
H915 H 0.36896 0.22544 0.20602 0.0
H916 H 0.35301 0.18174 0.17601 0.0
H917 H 0.39734 0.08248 0.00963 0.0
H918 H 0.36529 0.10713 0.02763 0.0
H919 H 0.4101 0.12377 0.11748 0.0
H920 H 0.4422 0.09969 0.09966 0.0
H921 H 0.39326 0.16506 0.10505 0.0
H922 H 0.35418 0.0749 0.10436 0.0
H923 H 0.33859 0.02826 0.08367 0.0
H924 H 0.28628 0.04951 0.01342 0.0
H925 H 0.30143 0.09638 0.03403 0.0
C926 C 0.28116 0.16905 0.16809 0.0
C927 C 0.27972 0.19522 0.16478 0.0
C928 C 0.29534 0.15551 0.14929 0.0
C929 C 0.30822 0.16789 0.12684 0.0
C930 C 0.30491 0.19316 0.12172 0.0
C931 C 0.2909 0.2068 0.14065 0.0
C932 C 0.32768 0.15566 0.11169 0.0
C933 C 0.31973 0.13025 0.09576 0.0
C934 C 0.35453 0.16834 0.11504 0.0
C935 C 0.36452 0.19439 0.13344 0.0
C936 C 0.3767 0.21574 0.11965 0.0
C937 C 0.38579 0.24041 0.13687 0.0
C938 C 0.38293 0.24391 0.16796 0.0
C939 C 0.37109 0.22272 0.18192 0.0
C940 C 0.36201 0.19801 0.16482 0.0
C941 C 0.40061 0.09178 0.03302 0.0
C942 C 0.42262 0.08937 0.05296 0.0
C943 C 0.38215 0.10567 0.04337 0.0
C944 C 0.38514 0.11702 0.07402 0.0
C945 C 0.40745 0.11532 0.09369 0.0
C946 C 0.42595 0.10166 0.08333 0.0
C947 C 0.36478 0.13003 0.08609 0.0
C948 C 0.37264 0.15545 0.102 0.0
C949 C 0.33804 0.1171 0.08337 0.0
C950 C 0.32916 0.0891 0.07047 0.0
C951 C 0.33951 0.06962 0.08435 0.0
C952 C 0.3307 0.04314 0.07269 0.0
C953 C 0.3116 0.0359 0.04706 0.0
C954 C 0.30114 0.05515 0.0332 0.0
C955 C 0.30975 0.08167 0.04494 0.0
H956 H 0.30483 0.01538 0.03803 0.0
H957 H 0.38992 0.26304 0.18123 0.0
H958 H 0.86002 0.26907 0.24592 0.0
H959 H 0.89787 0.29464 0.22586 0.0
H960 H 0.84446 0.31918 0.15887 0.0
H961 H 0.80701 0.29452 0.17924 0.0
H962 H 0.89083 0.30788 0.13641 0.0
H963 H 0.8609 0.35538 0.22349 0.0
H964 H 0.85285 0.36152 0.27741 0.0
H965 H 0.93422 0.36281 0.307 0.0
H966 H 0.94263 0.3562 0.25317 0.0
H967 H 0.91623 0.43046 0.09108 0.0
H968 H 0.89899 0.39253 0.11601 0.0
H969 H 0.97268 0.40425 0.17498 0.0
H970 H 0.98987 0.4429 0.1506 0.0
H971 H 0.93057 0.39014 0.20531 0.0
H972 H 0.96004 0.35813 0.11311 0.0
H973 H 0.96437 0.35481 0.05801 0.0
H974 H 0.88105 0.32564 0.03627 0.0
H975 H 0.87605 0.32935 0.09111 0.0
C976 C 0.85659 0.27949 0.22647 0.0
C977 C 0.83084 0.2802 0.21416 0.0
C978 C 0.87809 0.29398 0.21508 0.0
C979 C 0.87381 0.30872 0.19097 0.0
C980 C 0.84809 0.30778 0.17737 0.0
C981 C 0.82676 0.29389 0.18912 0.0
C982 C 0.89523 0.32805 0.18208 0.0
C983 C 0.89993 0.32575 0.15145 0.0
C984 C 0.90737 0.35102 0.20208 0.0
C985 C 0.9023 0.35489 0.23437 0.0
C986 C 0.877 0.35668 0.2415 0.0
C987 C 0.87238 0.36029 0.27203 0.0
C988 C 0.89299 0.36246 0.29561 0.0
C989 C 0.91826 0.36103 0.2887 0.0
C990 C 0.92296 0.35733 0.2582 0.0
C991 C 0.92863 0.42519 0.10965 0.0
C992 C 0.95443 0.43938 0.11875 0.0
C993 C 0.91887 0.40341 0.12368 0.0
C994 C 0.93493 0.39513 0.14657 0.0
C995 C 0.96017 0.41016 0.15702 0.0
C996 C 0.96988 0.43224 0.1432 0.0
C997 C 0.92506 0.37056 0.15911 0.0
C998 C 0.92261 0.37189 0.19043 0.0
C999 C 0.91467 0.3468 0.13956 0.0
C1000 C 0.91769 0.34403 0.10638 0.0
C1001 C 0.9426 0.35112 0.0966 0.0
C1002 C 0.94516 0.3492 0.06537 0.0
C1003 C 0.92299 0.34 0.04365 0.0
C1004 C 0.8982 0.33273 0.0531 0.0
C1005 C 0.89551 0.33471 0.08428 0.0
H1006 H 0.92501 0.33847 0.01949 0.0
H1007 H 0.88943 0.36538 0.31923 0.0
H1008 H 0.69162 0.76481 0.13988 0.0
H1009 H 0.66056 0.78227 0.10636 0.0
H1010 H 0.67746 0.8551 0.16707 0.0
H1011 H 0.70855 0.83801 0.20045 0.0
H1012 H 0.61596 0.79735 0.11934 0.0
H1013 H 0.67287 0.90604 0.12583 0.0
H1014 H 0.71863 0.93034 0.1284 0.0
H1015 H 0.74102 0.86097 0.08802 0.0
H1016 H 0.69539 0.8363 0.08487 0.0
H1017 H 0.53566 0.89099 0.1068 0.0
H1018 H 0.56611 0.86237 0.11895 0.0
H1019 H 0.5999 0.875 0.03555 0.0
H1020 H 0.56918 0.9034 0.02301 0.0
H1021 H 0.6371 0.88431 0.08223 0.0
H1022 H 0.56531 0.81513 0.04481 0.0
H1023 H 0.51994 0.78922 0.03781 0.0
H1024 H 0.52775 0.77661 0.13226 0.0
H1025 H 0.57313 0.80279 0.13999 0.0
C1026 C 0.68899 0.78467 0.14589 0.0
C1027 C 0.70259 0.80001 0.17289 0.0
C1028 C 0.67115 0.79456 0.12676 0.0
C1029 C 0.66683 0.82003 0.1341 0.0
C1030 C 0.68075 0.83552 0.16071 0.0
C1031 C 0.69846 0.82566 0.17986 0.0
C1032 C 0.6468 0.83015 0.11507 0.0
C1033 C 0.62055 0.8163 0.11106 0.0
C1034 C 0.65299 0.85452 0.1035 0.0
C1035 C 0.68061 0.86925 0.10523 0.0
C1036 C 0.6875 0.89597 0.11733 0.0
C1037 C 0.71345 0.90982 0.11894 0.0
C1038 C 0.73273 0.8972 0.10843 0.0
C1039 C 0.72608 0.87071 0.09624 0.0
C1040 C 0.70017 0.85677 0.09458 0.0
C1041 C 0.549 0.88707 0.09056 0.0
C1042 C 0.55009 0.89964 0.06404 0.0
C1043 C 0.56648 0.87072 0.09758 0.0
C1044 C 0.58527 0.86647 0.07814 0.0
C1045 C 0.58562 0.87803 0.05093 0.0
C1046 C 0.56811 0.89434 0.04386 0.0
C1047 C 0.60607 0.85214 0.08786 0.0
C1048 C 0.63249 0.86522 0.09017 0.0
C1049 C 0.60005 0.8269 0.09742 0.0
C1050 C 0.57268 0.81113 0.09302 0.0
C1051 C 0.55735 0.80701 0.06417 0.0
C1052 C 0.53162 0.79224 0.06006 0.0
C1053 C 0.52096 0.78133 0.08459 0.0
C1054 C 0.53605 0.7851 0.11328 0.0
C1055 C 0.56181 0.79989 0.11753 0.0
H1056 H 0.50101 0.76996 0.08134 0.0
H1057 H 0.75281 0.90795 0.1097 0.0
H1058 H 0.15087 0.7294 0.18194 0.0
H1059 H 0.1216 0.70132 0.13993 0.0
H1060 H 0.1799 0.71916 0.07904 0.0
H1061 H 0.2097 0.74718 0.1211 0.0
H1062 H 0.10898 0.70346 0.06063 0.0
H1063 H 0.19481 0.67554 0.08918 0.0
H1064 H 0.231 0.67409 0.12927 0.0
H1065 H 0.17501 0.63791 0.18448 0.0
H1066 H 0.13851 0.63985 0.14508 0.0
H1067 H 0.07666 0.54732 0.02438 0.0
H1068 H 0.10693 0.58993 0.02601 0.0
H1069 H 0.05424 0.62799 0.07478 0.0
H1070 H 0.02431 0.58557 0.07336 0.0
H1071 H 0.12975 0.61777 0.08207 0.0
H1072 H 0.05908 0.68984 0.05752 0.0
H1073 H 0.02007 0.69016 0.02098 0.0
H1074 H 0.04388 0.63511 0.95629 0.0
H1075 H 0.08323 0.6348 0.9922 0.0
C1076 C 0.15721 0.72823 0.15941 0.0
C1077 C 0.18296 0.73993 0.15512 0.0
C1078 C 0.14031 0.71229 0.13533 0.0
C1079 C 0.14876 0.708 0.10657 0.0
C1080 C 0.17307 0.72229 0.10113 0.0
C1081 C 0.19014 0.73814 0.1253 0.0
C1082 C 0.13545 0.68407 0.08593 0.0
C1083 C 0.11368 0.68469 0.0647 0.0
C1084 C 0.14199 0.65972 0.09102 0.0
C1085 C 0.16399 0.65804 0.11434 0.0
C1086 C 0.19025 0.66748 0.10999 0.0
C1087 C 0.2108 0.66662 0.13261 0.0
C1088 C 0.2053 0.65606 0.1595 0.0
C1089 C 0.17925 0.64625 0.16377 0.0
C1090 C 0.15863 0.64725 0.14132 0.0
C1091 C 0.07138 0.56495 0.03472 0.0
C1092 C 0.04835 0.56341 0.04876 0.0
C1093 C 0.08858 0.58919 0.03563 0.0
C1094 C 0.08266 0.61215 0.0502 0.0
C1095 C 0.05897 0.61063 0.06295 0.0
C1096 C 0.04207 0.58642 0.06248 0.0
C1097 C 0.10277 0.63683 0.057 0.0
C1098 C 0.12566 0.63642 0.07639 0.0
C1099 C 0.09728 0.66118 0.04984 0.0
C1100 C 0.0741 0.6622 0.0277 0.0
C1101 C 0.05616 0.678 0.0354 0.0
C1102 C 0.03393 0.67813 0.01481 0.0
C1103 C 0.02946 0.66263 0.98637 0.0
C1104 C 0.0473 0.64706 0.97837 0.0
C1105 C 0.06955 0.64687 0.99885 0.0
H1106 H 0.01219 0.66269 0.97053 0.0
H1107 H 0.22122 0.65538 0.17697 0.0
H1108 H 0.27905 0.86103 0.844 0.0
H1109 H 0.30286 0.88819 0.89013 0.0
H1110 H 0.28696 0.82257 0.94148 0.0
H1111 H 0.26281 0.79519 0.89559 0.0
H1112 H 0.30502 0.89722 0.96505 0.0
H1113 H 0.33619 0.80811 0.9409 0.0
H1114 H 0.33228 0.77035 0.90094 0.0
H1115 H 0.34718 0.82311 0.83374 0.0
H1116 H 0.35118 0.86109 0.87336 0.0
H1117 H 0.44843 0.94816 0.02081 0.0
H1118 H 0.4055 0.91764 0.01716 0.0
H1119 H 0.3928 0.92281 0.92037 0.0
H1120 H 0.43464 0.95359 0.92409 0.0
H1121 H 0.38702 0.86988 0.93927 0.0
H1122 H 0.36651 0.95747 0.96446 0.0
H1123 H 0.3676 -0.00265 -7e-05 0.0
H1124 H 0.32921 0.95025 0.06247 0.0
H1125 H 0.32887 0.91003 0.02796 0.0
C1126 C 0.27951 0.85264 0.86535 0.0
C1127 C 0.2701 0.82569 0.86588 0.0
C1128 C 0.29282 0.86833 0.89186 0.0
C1129 C 0.297 0.85717 0.91896 0.0
C1130 C 0.28392 0.83147 0.92072 0.0
C1131 C 0.27047 0.81576 0.89426 0.0
C1132 C 0.32152 0.86844 0.93949 0.0
C1133 C 0.32298 0.89082 0.96044 0.0
C1134 C 0.34482 0.85998 0.9333 0.0
C1135 C 0.34415 0.8373 0.91001 0.0
C1136 C 0.3389 0.81158 0.91764 0.0
C1137 C 0.33656 0.79017 0.89506 0.0
C1138 C 0.33952 0.79433 0.86483 0.0
C1139 C 0.34497 0.81991 0.85716 0.0
C1140 C 0.34735 0.84136 0.87967 0.0
C1141 C 0.4361 0.94313 -0.00097 0.0
C1142 C 0.44463 0.95346 0.97288 0.0
C1143 C 0.41183 0.92558 0.99691 0.0
C1144 C 0.39615 0.91807 0.96848 0.0
C1145 C 0.40477 0.92833 0.94246 0.0
C1146 C 0.42869 0.94588 0.94463 0.0
C1147 C 0.37082 0.89916 0.96452 0.0
C1148 C 0.36918 0.87536 0.94598 0.0
C1149 C 0.34756 0.90639 0.97318 0.0
C1150 C 0.34817 0.93069 0.99391 0.0
C1151 C 0.35877 0.95556 0.98603 0.0
C1152 C 0.3592 0.97826 0.00594 0.0
C1153 C 0.34864 0.97633 0.03351 0.0
C1154 C 0.33759 0.95173 0.04123 0.0
C1155 C 0.33737 0.92898 0.02156 0.0
H1156 H 0.34904 0.99389 0.04888 0.0
H1157 H 0.33754 0.77774 0.84735 0.0
H1158 H 0.23413 0.29604 0.87558 0.0
H1159 H 0.20998 0.3195 0.91019 0.0
H1160 H 0.17388 0.35003 0.83317 0.0
H1161 H 0.19878 0.328 0.79926 0.0
H1162 H 0.18862 0.38716 0.87631 0.0
H1163 H 0.14239 0.29571 0.87089 0.0
H1164 H 0.13902 0.24913 0.87843 0.0
H1165 H 0.16514 0.27163 0.97434 0.0
H1166 H 0.16873 0.31835 0.96738 0.0
H1167 H 0.06892 0.41504 0.90364 0.0
H1168 H 0.0997 0.38781 0.88897 0.0
H1169 H 0.1367 0.39834 0.98235 0.0
H1170 H 0.10571 0.4257 0.99726 0.0
H1171 H 0.12854 0.34323 0.94363 0.0
H1172 H 0.16746 0.4356 0.94704 0.0
H1173 H 0.16597 0.48075 0.93656 0.0
H1174 H 0.14991 0.45437 0.84013 0.0
H1175 H 0.15087 0.40898 0.85007 0.0
C1176 C 0.22106 0.30787 0.86624 0.0
C1177 C 0.21843 0.3104 0.83483 0.0
C1178 C 0.20717 0.32112 0.88595 0.0
C1179 C 0.18995 0.33644 0.8743 0.0
C1180 C 0.18722 0.33859 0.84284 0.0
C1181 C 0.20147 0.32596 0.82342 0.0
C1182 C 0.17485 0.35087 0.89425 0.0
C1183 C 0.17554 0.37743 0.89101 0.0
C1184 C 0.15836 0.33858 0.91435 0.0
C1185 C 0.15618 0.31052 0.91852 0.0
C1186 C 0.14758 0.29072 0.89355 0.0
C1187 C 0.14556 0.2643 0.89775 0.0
C1188 C 0.15192 0.25743 0.92685 0.0
C1189 C 0.16021 0.27698 0.95184 0.0
C1190 C 0.16222 0.30342 0.94779 0.0
C1191 C 0.08307 0.41104 0.92131 0.0
C1192 C 0.08483 0.42256 0.95179 0.0
C1193 C 0.10069 0.39552 0.91283 0.0
C1194 C 0.12042 0.3912 0.93459 0.0
C1195 C 0.12149 0.40142 0.9653 0.0
C1196 C 0.10392 0.41718 0.97376 0.0
C1197 C 0.14153 0.37873 0.92409 0.0
C1198 C 0.14211 0.35287 0.92939 0.0
C1199 C 0.15895 0.39142 0.90541 0.0
C1200 C 0.15913 0.41887 0.89933 0.0
C1201 C 0.16348 0.43941 0.92362 0.0
C1202 C 0.16274 0.46505 0.91777 0.0
C1203 C 0.15782 0.47043 0.8877 0.0
C1204 C 0.15372 0.45019 0.86341 0.0
C1205 C 0.15441 0.4245 0.86914 0.0
H1206 H 0.15722 0.49028 0.88323 0.0
H1207 H 0.15037 0.23697 0.93006 0.0
H1208 H 0.72686 0.15118 0.7831 0.0
H1209 H 0.69577 0.11496 0.79859 0.0
H1210 H 0.63158 0.15291 0.77379 0.0
H1211 H 0.66203 0.18868 0.75773 0.0
H1212 H 0.66278 0.1323 0.84641 0.0
H1213 H 0.59825 0.11807 0.74466 0.0
H1214 H 0.59369 0.10865 0.68842 0.0
H1215 H 0.63437 0.04506 0.69619 0.0
H1216 H 0.63981 0.05472 0.75259 0.0
H1217 H 0.55179 0.08407 0.90878 0.0
H1218 H 0.57718 0.10545 0.87172 0.0
H1219 H 0.5927 0.03076 0.83569 0.0
H1220 H 0.56583 0.00902 0.87173 0.0
H1221 H 0.58904 0.06361 0.79063 0.0
H1222 H 0.63575 0.06821 0.89189 0.0
H1223 H 0.63956 0.07686 0.94817 0.0
H1224 H 0.63557 0.1575 0.94231 0.0
H1225 H 0.63137 0.14924 0.88593 0.0
C1226 C 0.70605 0.1515 0.7803 0.0
C1227 C 0.69698 0.17298 0.76954 0.0
C1228 C 0.68834 0.13071 0.78887 0.0
C1229 C 0.66138 0.13105 0.78661 0.0
C1230 C 0.65217 0.15184 0.77467 0.0
C1231 C 0.66975 0.1725 0.76595 0.0
C1232 C 0.64372 0.1129 0.80226 0.0
C1233 C 0.64675 0.11718 0.83426 0.0
C1234 C 0.62304 0.09314 0.78632 0.0
C1235 C 0.61979 0.08737 0.75265 0.0
C1236 C 0.60648 0.1023 0.73432 0.0
C1237 C 0.6037 0.09688 0.70244 0.0
C1238 C 0.61378 0.07629 0.68869 0.0
C1239 C 0.62667 0.06108 0.70684 0.0
C1240 C 0.62971 0.06658 0.73875 0.0
C1241 C 0.56027 0.07222 0.89257 0.0
C1242 C 0.55749 0.04512 0.89332 0.0
C1243 C 0.57463 0.08436 0.87138 0.0
C1244 C 0.58735 0.06974 0.85157 0.0
C1245 C 0.58312 0.04235 0.85091 0.0
C1246 C 0.56801 0.03003 0.87157 0.0
C1247 C 0.60767 0.08359 0.83484 0.0
C1248 C 0.60526 0.07848 0.80282 0.0
C1249 C 0.62909 0.10269 0.85079 0.0
C1250 C 0.6332 0.10809 0.88471 0.0
C1251 C 0.63575 0.0878 0.90261 0.0
C1252 C 0.63791 0.09261 0.9345 0.0
C1253 C 0.63779 0.11769 0.94876 0.0
C1254 C 0.63569 0.13808 0.9312 0.0
C1255 C 0.63347 0.13337 0.89928 0.0
H1256 H 0.6393 0.12127 0.9734 0.0
H1257 H 0.61155 0.07209 0.664 0.0
H1258 H 0.80858 0.6768 0.79325 0.0
H1259 H 0.83571 0.65663 0.82788 0.0
H1260 H 0.8309 0.7149 0.90243 0.0
H1261 H 0.80435 0.73589 0.86744 0.0
H1262 H 0.87925 0.7073 0.90434 0.0
H1263 H 0.7954 0.6507 0.89726 0.0
H1264 H 0.75328 0.62304 0.87231 0.0
H1265 H 0.79495 0.57143 0.82493 0.0
H1266 H 0.83733 0.59894 0.84926 0.0
H1267 H 0.93416 0.612 0.995 0.0
H1268 H 0.90558 0.64172 0.97817 0.0
H1269 H 0.91388 0.61804 0.88424 0.0
H1270 H 0.94224 0.58865 0.90056 0.0
H1271 H 0.85958 0.61071 0.90474 0.0
H1272 H 0.94413 0.67153 0.91089 0.0
H1273 H 0.98508 0.7001 0.93739 0.0
H1274 H 0.94027 0.74505 0.98952 0.0
H1275 H 0.89899 0.71608 0.96422 0.0
C1276 C 0.81314 0.68528 0.81704 0.0
C1277 C 0.8042 0.70784 0.82766 0.0
C1278 C 0.82855 0.67364 0.83688 0.0
C1279 C 0.83483 0.6839 0.86792 0.0
C1280 C 0.82613 0.70657 0.87861 0.0
C1281 C 0.81097 0.7185 0.85861 0.0
C1282 C 0.85117 0.67117 0.88868 0.0
C1283 C 0.87469 0.68625 0.90504 0.0
C1284 C 0.84509 0.64373 0.88969 0.0
C1285 C 0.81959 0.627 0.87504 0.0
C1286 C 0.7956 0.63354 0.88139 0.0
C1287 C 0.77167 0.61787 0.86737 0.0
C1288 C 0.77144 0.59551 0.84703 0.0
C1289 C 0.79515 0.58875 0.84071 0.0
C1290 C 0.81914 0.60435 0.85466 0.0
C1291 C 0.93022 0.61359 0.97084 0.0
C1292 C 0.93994 0.59776 0.94897 0.0
C1293 C 0.91406 0.63057 0.96137 0.0
C1294 C 0.90784 0.632 0.93011 0.0
C1295 C 0.91851 0.61709 0.90848 0.0
C1296 C 0.93452 0.60023 0.91781 0.0
C1297 C 0.88805 0.64666 0.91907 0.0
C1298 C 0.86377 0.63185 0.90468 0.0
C1299 C 0.89336 0.67432 0.92028 0.0
C1300 C 0.91838 0.69119 0.93608 0.0
C1301 C 0.94294 0.68708 0.92849 0.0
C1302 C 0.96625 0.70346 0.94322 0.0
C1303 C 0.96529 0.72432 0.9652 0.0
C1304 C 0.941 0.72887 0.9725 0.0
C1305 C 0.91764 0.71238 0.95809 0.0
H1306 H 0.98335 0.737 0.97653 0.0
H1307 H 0.7529 0.58341 0.83619 0.0
H1308 H 0.16495 0.28077 0.16828 0.0
H1309 H 0.1462 0.30672 0.13212 0.0
H1310 H 0.22419 0.34822 0.12282 0.0
H1311 H 0.24322 0.32196 0.15845 0.0
H1312 H 0.18625 0.37951 0.14224 0.0
H1313 H 0.19556 0.31322 0.06362 0.0
H1314 H 0.19099 0.26785 0.03884 0.0
H1315 H 0.10681 0.25677 0.03262 0.0
H1316 H 0.11085 0.30192 0.05788 0.0
H1317 H 0.12082 0.45917 0.0577 0.0
H1318 H 0.15308 0.43165 0.06765 0.0
H1319 H 0.08981 0.36419 0.06343 0.0
H1320 H 0.05777 0.39123 0.05197 0.0
H1321 H 0.12908 0.34815 0.04349 0.0
H1322 H 0.11811 0.40554 0.13229 0.0
H1323 H 0.11865 0.44837 0.16183 0.0
H1324 H 0.20084 0.47314 0.15423 0.0
H1325 H 0.20068 0.43053 0.12428 0.0
C1326 C 0.17812 0.29518 0.15824 0.0
C1327 C 0.20552 0.29947 0.16633 0.0
C1328 C 0.16741 0.30981 0.13744 0.0
C1329 C 0.18389 0.32916 0.12474 0.0
C1330 C 0.21125 0.33317 0.13225 0.0
C1331 C 0.22203 0.31819 0.15261 0.0
C1332 C 0.17222 0.34712 0.10656 0.0
C1333 C 0.17429 0.37293 0.12023 0.0
C1334 C 0.15609 0.33809 0.07836 0.0
C1335 C 0.15355 0.31095 0.0629 0.0
C1336 C 0.17608 0.30105 0.05725 0.0
C1337 C 0.17357 0.27536 0.0431 0.0
C1338 C 0.14863 0.2594 0.03429 0.0
C1339 C 0.12612 0.26914 0.03951 0.0
C1340 C 0.12851 0.2948 0.05372 0.0
C1341 C 0.11392 0.43838 0.0585 0.0
C1342 C 0.08683 0.42735 0.05439 0.0
C1343 C 0.13231 0.42268 0.06409 0.0
C1344 C 0.12385 0.39598 0.06705 0.0
C1345 C 0.09686 0.38471 0.06124 0.0
C1346 C 0.07853 0.40022 0.0548 0.0
C1347 C 0.14242 0.38039 0.07966 0.0
C1348 C 0.14161 0.35501 0.06505 0.0
C1349 C 0.15912 0.38948 0.1076 0.0
C1350 C 0.15931 0.41502 0.12574 0.0
C1351 C 0.13625 0.4202 0.13678 0.0
C1352 C 0.13649 0.44442 0.15359 0.0
C1353 C 0.15975 0.4635 0.15982 0.0
C1354 C 0.18283 0.45837 0.14932 0.0
C1355 C 0.18268 0.43419 0.13242 0.0
H1356 H 0.1599 0.48224 0.17285 0.0
H1357 H 0.14674 0.23954 0.02328 0.0
H1358 H 0.15229 0.69283 0.75837 0.0
H1359 H 0.11659 0.66811 0.78219 0.0
H1360 H 0.14316 0.71926 0.86698 0.0
H1361 H 0.17865 0.74391 0.84355 0.0
H1362 H 0.1522 0.66384 0.86018 0.0
H1363 H 0.08758 0.71676 0.85018 0.0
H1364 H 0.05699 0.74026 0.82386 0.0
H1365 H 0.01431 0.66757 0.77284 0.0
H1366 H 0.04492 0.64363 0.79852 0.0
H1367 H 0.08295 0.59042 0.96155 0.0
H1368 H 0.10163 0.62625 0.93419 0.0
H1369 H 0.05832 0.58449 0.84933 0.0
H1370 H 0.03906 0.54869 0.87668 0.0
H1371 H 0.05533 0.637 0.85646 0.0
H1372 H 0.12217 0.5849 0.86414 0.0
H1373 H 0.15317 0.56173 0.89042 0.0
H1374 H 0.19232 0.63394 0.94534 0.0
H1375 H 0.16131 0.65747 0.91966 0.0
C1376 C 0.1498 0.69939 0.78169 0.0
C1377 C 0.1686 0.71959 0.79953 0.0
C1378 C 0.12931 0.68545 0.79515 0.0
C1379 C 0.12751 0.69189 0.82631 0.0
C1380 C 0.14429 0.71415 0.84288 0.0
C1381 C 0.16474 0.72792 0.82958 0.0
C1382 C 0.11452 0.67162 0.84338 0.0
C1383 C 0.131 0.65822 0.85979 0.0
C1384 C 0.08694 0.66406 0.84195 0.0
C1385 C 0.06883 0.67844 0.82595 0.0
C1386 C 0.07193 0.70581 0.83301 0.0
C1387 C 0.0545 0.71921 0.8183 0.0
C1388 C 0.03378 0.70543 0.79659 0.0
C1389 C 0.03041 0.67822 0.7896 0.0
C1390 C 0.04779 0.66473 0.80425 0.0
C1391 C 0.07758 0.58874 0.93702 0.0
C1392 C 0.05966 0.56674 0.92118 0.0
C1393 C 0.08819 0.60924 0.92147 0.0
C1394 C 0.08132 0.6079 0.88979 0.0
C1395 C 0.06367 0.58586 0.87384 0.0
C1396 C 0.05294 0.56537 0.88942 0.0
C1397 C 0.09309 0.6293 0.87327 0.0
C1398 C 0.07649 0.64275 0.85689 0.0
C1399 C 0.12069 0.63705 0.87459 0.0
C1400 C 0.13922 0.62287 0.89022 0.0
C1401 C 0.13723 0.59578 0.88203 0.0
C1402 C 0.15484 0.5826 0.89677 0.0
C1403 C 0.17465 0.59634 0.9196 0.0
C1404 C 0.17693 0.62331 0.9277 0.0
C1405 C 0.15935 0.63658 0.91304 0.0
H1406 H 0.18828 0.5861 0.93097 0.0
H1407 H 0.02029 0.71584 0.78526 0.0
H1408 H 0.35651 0.24009 0.81984 0.0
H1409 H 0.38307 0.21692 0.85158 0.0
H1410 H 0.31387 0.18083 0.88878 0.0
H1411 H 0.28703 0.20421 0.85722 0.0
H1412 H 0.35867 0.19469 0.93278 0.0
H1413 H 0.33349 0.14761 0.83148 0.0
H1414 H 0.3288 0.14306 0.77513 0.0
H1415 H 0.41277 0.16484 0.77789 0.0
H1416 H 0.41791 0.17 0.83435 0.0
H1417 H 0.40445 0.07264 0.95759 0.0
H1418 H 0.37895 0.1044 0.9402 0.0
H1419 H 0.45079 0.15715 0.92945 0.0
H1420 H 0.47649 0.12597 0.94784 0.0
H1421 H 0.40461 0.1352 0.87406 0.0
H1422 H 0.43028 0.18495 0.97351 0.0
H1423 H 0.43638 0.19191 0.02988 0.0
H1424 H 0.35332 0.16527 0.03044 0.0
H1425 H 0.34674 0.15786 0.97387 0.0
C1426 C 0.3469 0.22745 0.83496 0.0
C1427 C 0.31952 0.22368 0.83557 0.0
C1428 C 0.36215 0.21424 0.85314 0.0
C1429 C 0.35037 0.19682 0.87214 0.0
C1430 C 0.32333 0.19413 0.87418 0.0
C1431 C 0.30802 0.20743 0.85603 0.0
C1432 C 0.36594 0.17995 0.88785 0.0
C1433 C 0.36844 0.18146 0.91991 0.0
C1434 C 0.37906 0.16298 0.87111 0.0
C1435 C 0.37606 0.15944 0.83715 0.0
C1436 C 0.35094 0.1516 0.82008 0.0
C1437 C 0.34821 0.14889 0.78811 0.0
C1438 C 0.37047 0.1537 0.77292 0.0
C1439 C 0.39553 0.16115 0.78969 0.0
C1440 C 0.39837 0.16396 0.82167 0.0
C1441 C 0.41483 0.09131 0.9523 0.0
C1442 C 0.44248 0.09692 0.9544 0.0
C1443 C 0.40026 0.10938 0.94238 0.0
C1444 C 0.41307 0.13307 0.93371 0.0
C1445 C 0.44064 0.13903 0.93636 0.0
C1446 C 0.45526 0.12125 0.947 0.0
C1447 C 0.39754 0.15022 0.91883 0.0
C1448 C 0.39483 0.14848 0.88686 0.0
C1449 C 0.38436 0.16694 0.93563 0.0
C1450 C 0.38808 0.17059 0.96951 0.0
C1451 C 0.41336 0.18022 0.98564 0.0
C1452 C 0.41689 0.18436 0.01758 0.0
C1453 C 0.39525 0.17907 0.03366 0.0
C1454 C 0.37004 0.16941 0.01787 0.0
C1455 C 0.36639 0.16526 0.98586 0.0
H1456 H 0.3981 0.18271 0.05832 0.0
H1457 H 0.36833 0.15164 0.74817 0.0
H1458 H 0.84956 0.25134 0.83778 0.0
H1459 H 0.88117 0.27436 0.88174 0.0
H1460 H 0.82125 0.31281 0.91437 0.0
H1461 H 0.79004 0.28982 0.87104 0.0
H1462 H 0.8945 0.32411 0.88093 0.0
H1463 H 0.8357 0.34259 0.98446 0.0
H1464 H 0.80698 0.31662 0.01585 0.0
H1465 H 0.83909 0.24899 0.99023 0.0
H1466 H 0.86827 0.2746 0.95895 0.0
H1467 H 0.92769 0.454 0.93328 0.0
H1468 H 0.89946 0.41048 0.91976 0.0
H1469 H 0.93378 0.38543 0.00174 0.0
H1470 H 0.96047 0.42976 0.01664 0.0
H1471 H 0.88447 0.35887 0.98663 0.0
H1472 H 0.95992 0.37684 0.93288 0.0
H1473 H 0.98953 0.40326 0.90269 0.0
H1474 H 0.92617 0.39502 0.82996 0.0
H1475 H 0.89606 0.36883 0.8598 0.0
C1476 C 0.84292 0.26367 0.85527 0.0
C1477 C 0.8176 0.26915 0.85104 0.0
C1478 C 0.86096 0.27687 0.88034 0.0
C1479 C 0.85373 0.29555 0.90136 0.0
C1480 C 0.82739 0.29836 0.89891 0.0
C1481 C 0.80954 0.28536 0.87391 0.0
C1482 C 0.87407 0.31674 0.92002 0.0
C1483 C 0.89262 0.33129 0.9043 0.0
C1484 C 0.87192 0.32618 0.95064 0.0
C1485 C 0.85418 0.31057 0.96923 0.0
C1486 C 0.83676 0.32222 0.9856 0.0
C1487 C 0.82035 0.30754 0.00336 0.0
C1488 C 0.8212 0.28117 0.00501 0.0
C1489 C 0.83842 0.26941 0.98887 0.0
C1490 C 0.85485 0.28399 0.97105 0.0
C1491 C 0.92871 0.4394 0.94879 0.0
C1492 C 0.94683 0.44494 0.97549 0.0
C1493 C 0.91271 0.41449 0.941 0.0
C1494 C 0.91544 0.39432 0.959 0.0
C1495 C 0.93172 0.4005 0.98717 0.0
C1496 C 0.94709 0.42581 0.99556 0.0
C1497 C 0.90337 0.36661 0.94664 0.0
C1498 C 0.88668 0.3511 0.96359 0.0
C1499 C 0.90731 0.35599 0.91715 0.0
C1500 C 0.92573 0.37083 0.89861 0.0
C1501 C 0.95231 0.38062 0.91044 0.0
C1502 C 0.96917 0.39562 0.89341 0.0
C1503 C 0.95975 0.40081 0.86445 0.0
C1504 C 0.93346 0.39094 0.85238 0.0
C1505 C 0.9165 0.37596 0.8693 0.0
H1506 H 0.97284 0.41249 0.85137 0.0
H1507 H 0.80851 0.26986 0.01881 0.0
H1508 H 0.67113 0.79629 0.80491 0.0
H1509 H 0.65227 0.82336 0.84116 0.0
H1510 H 0.72132 0.83181 0.90696 0.0
H1511 H 0.74065 0.80476 0.87061 0.0
H1512 H 0.67051 0.82222 0.93163 0.0
H1513 H 0.72007 0.88079 0.87325 0.0
H1514 H 0.73552 0.89626 0.82631 0.0
H1515 H 0.6567 0.90108 0.79203 0.0
H1516 H 0.64069 0.88524 0.83857 0.0
H1517 H 0.62513 0.93935 0.00348 0.0
H1518 H 0.65422 0.9108 0.98484 0.0
H1519 H 0.59545 0.8776 0.90787 0.0
H1520 H 0.56652 0.90556 0.92616 0.0
H1521 H 0.65018 0.90411 0.89662 0.0
H1522 H 0.60032 0.839 0.95058 0.0
H1523 H 0.58393 0.8197 0.99505 0.0
H1524 H 0.66331 0.8268 0.03726 0.0
H1525 H 0.68024 0.84658 0.99316 0.0
C1526 C 0.68231 0.80367 0.82714 0.0
C1527 C 0.70756 0.79858 0.83469 0.0
C1528 C 0.67148 0.81917 0.84783 0.0
C1529 C 0.68556 0.82979 0.87654 0.0
C1530 C 0.71023 0.82383 0.88483 0.0
C1531 C 0.72124 0.80846 0.86399 0.0
C1532 C 0.67472 0.84815 0.89691 0.0
C1533 C 0.66661 0.84047 0.92443 0.0
C1534 C 0.66958 0.87184 0.88732 0.0
C1535 C 0.67915 0.88164 0.85936 0.0
C1536 C 0.70599 0.88496 0.85561 0.0
C1537 C 0.71486 0.89382 0.82909 0.0
C1538 C 0.6971 0.8996 0.80618 0.0
C1539 C 0.67044 0.89659 0.8098 0.0
C1540 C 0.66146 0.8877 0.83627 0.0
C1541 C 0.61834 0.9256 0.98289 0.0
C1542 C 0.59355 0.92464 0.9663 0.0
C1543 C 0.63486 0.9093 0.97238 0.0
C1544 C 0.62687 0.89219 0.94501 0.0
C1545 C 0.60185 0.89062 0.92911 0.0
C1546 C 0.58529 0.90651 0.93973 0.0
C1547 C 0.64517 0.87775 0.93078 0.0
C1548 C 0.65475 0.88627 0.90432 0.0
C1549 C 0.65164 0.85493 0.94143 0.0
C1550 C 0.64153 0.84464 0.96877 0.0
C1551 C 0.61429 0.83695 0.9696 0.0
C1552 C 0.60491 0.82578 0.99467 0.0
C1553 C 0.62259 0.82206 0.01898 0.0
C1554 C 0.64968 0.82978 0.01844 0.0
C1555 C 0.65917 0.84096 0.99342 0.0
H1556 H 0.61532 0.81296 0.03809 0.0
H1557 H 0.704 0.90645 0.78565 0.0
H1558 H 0.7738 0.70211 0.13818 0.0
H1559 H 0.79766 0.6794 0.10294 0.0
H1560 H 0.87067 0.71223 0.16109 0.0
H1561 H 0.84715 0.7352 0.1962 0.0
H1562 H 0.8775 0.7099 0.10051 0.0
H1563 H 0.83475 0.65359 0.16874 0.0
H1564 H 0.79742 0.63002 0.19151 0.0
H1565 H 0.76346 0.58892 0.10312 0.0
H1566 H 0.80002 0.61287 0.07969 0.0
H1567 H 0.9593 0.61741 0.09294 0.0
H1568 H 0.9322 0.64976 0.10242 0.0
H1569 H 0.86812 0.60157 0.03962 0.0
H1570 H 0.8946 0.56831 0.03147 0.0
H1571 H 0.85237 0.61278 0.09202 0.0
H1572 H 0.90075 0.66247 0.02624 0.0
H1573 H 0.94124 0.68199 0.00594 0.0
H1574 H 0.96655 0.7342 0.08959 0.0
H1575 H 0.9269 0.714 0.11101 0.0
C1576 C 0.79498 0.7048 0.14327 0.0
C1577 C 0.8085 0.72016 0.17029 0.0
C1578 C 0.80858 0.69184 0.12306 0.0
C1579 C 0.83588 0.69392 0.1296 0.0
C1580 C 0.8496 0.71038 0.1556 0.0
C1581 C 0.83606 0.72333 0.1758 0.0
C1582 C 0.84988 0.67697 0.11136 0.0
C1583 C 0.87208 0.68865 0.09854 0.0
C1584 C 0.84233 0.64924 0.10823 0.0
C1585 C 0.81989 0.63543 0.12235 0.0
C1586 C 0.81907 0.63987 0.15408 0.0
C1587 C 0.79802 0.62641 0.16712 0.0
C1588 C 0.77789 0.60814 0.14874 0.0
C1589 C 0.77882 0.60328 0.11731 0.0
C1590 C 0.79967 0.61685 0.10412 0.0
C1591 C 0.93949 0.61374 0.081 0.0
C1592 C 0.92894 0.59 0.06198 0.0
C1593 C 0.92413 0.63248 0.08606 0.0
C1594 C 0.89811 0.62814 0.07168 0.0
C1595 C 0.88815 0.60531 0.05099 0.0
C1596 C 0.9034 0.58638 0.0462 0.0
C1597 C 0.88038 0.64558 0.08151 0.0
C1598 C 0.85748 0.63399 0.093 0.0
C1599 C 0.88745 0.6733 0.08349 0.0
C1600 C 0.91085 0.68648 0.0703 0.0
C1601 C 0.91506 0.67795 0.04039 0.0
C1602 C 0.93789 0.68911 0.02871 0.0
C1603 C 0.95642 0.70939 0.04642 0.0
C1604 C 0.95216 0.71849 0.07588 0.0
C1605 C 0.92953 0.7071 0.08786 0.0
H1606 H 0.97407 0.71805 0.0373 0.0
H1607 H 0.76168 0.59764 0.15888 0.0
H1608 H 0.25928 0.84679 0.18305 0.0
H1609 H 0.27805 0.88824 0.16515 0.0
H1610 H 0.34264 0.90151 0.23816 0.0
H1611 H 0.32294 0.86096 0.25723 0.0
H1612 H 0.33453 0.94731 0.22386 0.0
H1613 H 0.3431 0.86521 0.16739 0.0
H1614 H 0.32675 0.82173 0.13705 0.0
H1615 H 0.28577 0.85694 0.06864 0.0
H1616 H 0.30156 0.90061 0.09886 0.0
H1617 H 0.45137 0.97992 0.15407 0.0
H1618 H 0.41387 0.96702 0.18224 0.0
H1619 H 0.36053 0.97619 0.10478 0.0
H1620 H 0.39776 0.98814 0.07621 0.0
H1621 H 0.35438 0.92609 0.11819 0.0
H1622 H 0.35848 0.0104 0.1705 0.0
H1623 H 0.37855 0.05304 0.20095 0.0
H1624 H 0.40056 0.01374 0.27704 0.0
H1625 H 0.38099 0.97078 0.24692 0.0
C1626 C 0.27716 0.85893 0.19561 0.0
C1627 C 0.29008 0.85055 0.22102 0.0
C1628 C 0.28782 0.88261 0.18548 0.0
C1629 C 0.31216 0.89758 0.19978 0.0
C1630 C 0.32392 0.89024 0.22667 0.0
C1631 C 0.3128 0.86697 0.23739 0.0
C1632 C 0.32746 0.91805 0.18424 0.0
C1633 C 0.33892 0.94278 0.20076 0.0
C1634 C 0.33268 0.91232 0.15379 0.0
C1635 C 0.32314 0.88608 0.13562 0.0
C1636 C 0.33042 0.86363 0.14601 0.0
C1637 C 0.32127 0.83897 0.12883 0.0
C1638 C 0.30513 0.83656 0.101 0.0
C1639 C 0.29817 0.85883 0.09026 0.0
C1640 C 0.30719 0.88353 0.10742 0.0
C1641 C 0.43166 0.97968 0.14337 0.0
C1642 C 0.42722 0.98408 0.11274 0.0
C1643 C 0.4103 0.97264 0.15955 0.0
C1644 C 0.38444 0.97042 0.14536 0.0
C1645 C 0.38032 0.97748 0.11586 0.0
C1646 C 0.40153 0.98404 0.09955 0.0
C1647 C 0.36221 0.95508 0.15808 0.0
C1648 C 0.34946 0.93112 0.14098 0.0
C1649 C 0.35638 0.96145 0.18804 0.0
C1650 C 0.36835 0.98727 0.20632 0.0
C1651 C 0.3678 0.01078 0.19363 0.0
C1652 C 0.37905 0.03504 0.21086 0.0
C1653 C 0.39084 0.03609 0.24089 0.0
C1654 C 0.3914 0.01288 0.25376 0.0
C1655 C 0.38019 0.98856 0.23663 0.0
H1656 H 0.39949 0.05488 0.25419 0.0
H1657 H 0.29809 0.81745 0.08772 0.0
H1658 H 0.70095 0.13698 0.20147 0.0
H1659 H 0.68474 0.10689 0.15436 0.0
H1660 H 0.73989 0.15405 0.1061 0.0
H1661 H 0.75718 0.18353 0.15382 0.0
H1662 H 0.68101 0.14889 0.08853 0.0
H1663 H 0.74602 0.09876 0.09327 0.0
H1664 H 0.77809 0.07498 0.11617 0.0
H1665 H 0.71517 0.01911 0.142 0.0
H1666 H 0.68272 0.04276 0.11979 0.0
H1667 H 0.56732 0.05802 0.00342 0.0
H1668 H 0.6141 0.08027 0.01003 0.0
H1669 H 0.62343 0.05763 0.10089 0.0
H1670 H 0.57742 0.0358 0.09446 0.0
H1671 H 0.66568 0.05176 0.06928 0.0
H1672 H 0.60722 0.11462 0.08714 0.0
H1673 H 0.57446 0.14016 0.07017 0.0
H1674 H 0.62493 0.17364 0.00764 0.0
H1675 H 0.65795 0.14813 0.0242 0.0
C1676 C 0.71032 0.14024 0.18112 0.0
C1677 C 0.73024 0.16237 0.18108 0.0
C1678 C 0.70119 0.12306 0.15429 0.0
C1679 C 0.71127 0.12824 0.12688 0.0
C1680 C 0.73219 0.14957 0.12714 0.0
C1681 C 0.74198 0.16632 0.15432 0.0
C1682 C 0.69589 0.11449 0.09795 0.0
C1683 C 0.67823 0.12772 0.0832 0.0
C1684 C 0.69251 0.08701 0.0911 0.0
C1685 C 0.71188 0.07259 0.10473 0.0
C1686 C 0.739 0.0815 0.10399 0.0
C1687 C 0.75726 0.06802 0.11685 0.0
C1688 C 0.74867 0.04553 0.1305 0.0
C1689 C 0.72179 0.0365 0.13134 0.0
C1690 C 0.70344 0.04991 0.11854 0.0
C1691 C 0.57957 0.05769 0.0246 0.0
C1692 C 0.56877 0.04545 0.04854 0.0
C1693 C 0.6062 0.07025 0.02829 0.0
C1694 C 0.62224 0.0704 0.05587 0.0
C1695 C 0.6115 0.0575 0.07928 0.0
C1696 C 0.58507 0.04532 0.07575 0.0
C1697 C 0.64946 0.08597 0.06272 0.0
C1698 C 0.66936 0.07304 0.07304 0.0
C1699 C 0.65464 0.11376 0.06619 0.0
C1700 C 0.63465 0.12883 0.05615 0.0
C1701 C 0.61115 0.12711 0.06943 0.0
C1702 C 0.5926 0.1417 0.06002 0.0
C1703 C 0.59751 0.15836 0.03766 0.0
C1704 C 0.62107 0.1606 0.02482 0.0
C1705 C 0.63969 0.14607 0.03419 0.0
H1706 H 0.58314 0.16967 0.03043 0.0
H1707 H 0.76284 0.03512 0.14044 0.0
H1708 H 0.64133 0.69544 0.74247 0.0
H1709 H 0.60882 0.66654 0.76599 0.0
H1710 H 0.66507 0.61785 0.7853 0.0
H1711 H 0.69747 0.64619 0.76126 0.0
H1712 H 0.61479 0.58918 0.7784 0.0
H1713 H 0.66553 0.67015 0.83466 0.0
H1714 H 0.68245 0.71807 0.84202 0.0
H1715 H 0.60354 0.73109 0.84056 0.0
H1716 H 0.58611 0.68319 0.8326 0.0
H1717 H 0.5959 0.57445 0.9406 0.0
H1718 H 0.6162 0.59654 0.90009 0.0
H1719 H 0.53974 0.58677 0.84771 0.0
H1720 H 0.5194 0.56406 0.88749 0.0
H1721 H 0.59665 0.64406 0.86902 0.0
H1722 H 0.54829 0.55788 0.80341 0.0
H1723 H 0.53665 0.5095 0.7998 0.0
H1724 H 0.61782 0.50703 0.82526 0.0
H1725 H 0.62978 0.55546 0.82951 0.0
C1726 C 0.64653 0.6781 0.75078 0.0
C1727 C 0.67229 0.67361 0.75093 0.0
C1728 C 0.62789 0.66158 0.76419 0.0
C1729 C 0.63487 0.64059 0.77826 0.0
C1730 C 0.65938 0.63413 0.77488 0.0
C1731 C 0.67796 0.65048 0.76123 0.0
C1732 C 0.61901 0.62863 0.80096 0.0
C1733 C 0.61052 0.60123 0.79794 0.0
C1734 C 0.61404 0.64428 0.82698 0.0
C1735 C 0.6245 0.67309 0.83277 0.0
C1736 C 0.65178 0.68323 0.83579 0.0
C1737 C 0.66147 0.71038 0.84004 0.0
C1738 C 0.64408 0.72762 0.8417 0.0
C1739 C 0.61698 0.71772 0.83922 0.0
C1740 C 0.60718 0.69056 0.83484 0.0
C1741 C 0.58344 0.57716 0.92052 0.0
C1742 C 0.55613 0.56737 0.91703 0.0
C1743 C 0.59503 0.58971 0.89746 0.0
C1744 C 0.57942 0.59286 0.87085 0.0
C1745 C 0.55209 0.58406 0.86788 0.0
C1746 C 0.54054 0.57118 0.89064 0.0
C1747 C 0.59184 0.60484 0.84586 0.0
C1748 C 0.60016 0.63219 0.84888 0.0
C1749 C 0.59699 0.58919 0.82015 0.0
C1750 C 0.58985 0.56018 0.81704 0.0
C1751 C 0.56359 0.54699 0.80844 0.0
C1752 C 0.55694 0.51959 0.80626 0.0
C1753 C 0.57647 0.5052 0.81237 0.0
C1754 C 0.6027 0.5182 0.8206 0.0
C1755 C 0.60941 0.54561 0.82292 0.0
H1756 H 0.5713 0.484 0.81066 0.0
H1757 H 0.65161 0.74863 0.84497 0.0
H1758 H 0.33866 0.70205 0.8044 0.0
H1759 H 0.36375 0.67935 0.83861 0.0
H1760 H 0.3001 0.66847 0.89392 0.0
H1761 H 0.27531 0.69195 0.8604 0.0
H1762 H 0.34426 0.68518 0.92945 0.0
H1763 H 0.31441 0.61672 0.84455 0.0
H1764 H 0.30813 0.59725 0.79047 0.0
H1765 H 0.3919 0.61192 0.78967 0.0
H1766 H 0.39867 0.63173 0.84367 0.0
H1767 H 0.39716 0.56932 0.98523 0.0
H1768 H 0.36692 0.59428 0.96169 0.0
H1769 H 0.43279 0.65453 0.95006 0.0
H1770 H 0.46322 0.6294 0.9727 0.0
H1771 H 0.38572 0.61144 0.89447 0.0
H1772 H 0.3935 0.707 0.96965 0.0
H1773 H 0.39394 0.72644 0.023 0.0
H1774 H 0.34884 0.65378 0.04278 0.0
H1775 H 0.34825 0.63391 0.98953 0.0
C1776 C 0.32986 0.69453 0.82362 0.0
C1777 C 0.30498 0.69881 0.82967 0.0
C1778 C 0.34422 0.68148 0.84315 0.0
C1779 C 0.33376 0.67198 0.86877 0.0
C1780 C 0.30865 0.6757 0.8744 0.0
C1781 C 0.29444 0.68904 0.85514 0.0
C1782 C 0.34936 0.65915 0.89042 0.0
C1783 C 0.35314 0.66894 0.9217 0.0
C1784 C 0.36107 0.63796 0.8805 0.0
C1785 C 0.35703 0.6259 0.84808 0.0
C1786 C 0.33148 0.61594 0.83279 0.0
C1787 C 0.32784 0.60481 0.80216 0.0
C1788 C 0.3496 0.6034 0.78662 0.0
C1789 C 0.37506 0.61304 0.80172 0.0
C1790 C 0.37881 0.62418 0.83235 0.0
C1791 C 0.40517 0.58819 0.97832 0.0
C1792 C 0.43258 0.59715 0.98027 0.0
C1793 C 0.38788 0.60248 0.96509 0.0
C1794 C 0.39771 0.62614 0.95414 0.0
C1795 C 0.42489 0.63636 0.95863 0.0
C1796 C 0.44224 0.62201 0.97169 0.0
C1797 C 0.38034 0.63748 0.93317 0.0
C1798 C 0.37659 0.62758 0.90201 0.0
C1799 C 0.36835 0.65823 0.94317 0.0
C1800 C 0.37099 0.66899 0.97579 0.0
C1801 C 0.38391 0.69513 0.9855 0.0
C1802 C 0.38408 0.70624 0.01563 0.0
C1803 C 0.37113 0.69145 0.0361 0.0
C1804 C 0.35866 0.66526 0.02678 0.0
C1805 C 0.3586 0.654 0.99671 0.0
H1806 H 0.37083 0.7003 0.05918 0.0
H1807 H 0.34673 0.5948 0.76291 0.0
H1808 H 0.3677 0.32247 0.77223 0.0
H1809 H 0.39471 0.35615 0.8106 0.0
H1810 H 0.33676 0.40451 0.80133 0.0
H1811 H 0.30951 0.37099 0.76272 0.0
H1812 H 0.39533 0.43065 0.82896 0.0
H1813 H 0.31661 0.36871 0.84339 0.0
H1814 H 0.28611 0.32565 0.83433 0.0
H1815 H 0.34855 0.28846 0.86647 0.0
H1816 H 0.37957 0.33144 0.87547 0.0
H1817 H 0.42404 0.47851 0.98207 0.0
H1818 H 0.38908 0.45337 0.94316 0.0
H1819 H 0.43598 0.39485 0.9273 0.0
H1820 H 0.471 0.42009 0.96607 0.0
H1821 H 0.37569 0.37763 0.9139 0.0
H1822 H 0.4547 0.44113 0.88446 0.0
H1823 H 0.4837 0.48522 0.8933 0.0
H1824 H 0.41614 0.52095 0.8933 0.0
H1825 H 0.38675 0.47704 0.88381 0.0
C1826 C 0.3613 0.34084 0.77698 0.0
C1827 C 0.33582 0.34351 0.76599 0.0
C1828 C 0.37686 0.36014 0.79887 0.0
C1829 C 0.36701 0.38209 0.80941 0.0
C1830 C 0.34432 0.38736 0.79366 0.0
C1831 C 0.32871 0.36806 0.77174 0.0
C1832 C 0.37528 0.39396 0.84123 0.0
C1833 C 0.39066 0.41933 0.84756 0.0
C1834 C 0.36876 0.37916 0.86539 0.0
C1835 C 0.35042 0.35321 0.85982 0.0
C1836 C 0.32389 0.35131 0.84825 0.0
C1837 C 0.3065 0.32694 0.8432 0.0
C1838 C 0.31537 0.30433 0.84981 0.0
C1839 C 0.34171 0.30602 0.86138 0.0
C1840 C 0.35921 0.33039 0.8665 0.0
C1841 C 0.42604 0.45942 0.97165 0.0
C1842 C 0.44987 0.45097 0.97668 0.0
C1843 C 0.40618 0.44519 0.94942 0.0
C1844 C 0.41036 0.42265 0.93228 0.0
C1845 C 0.43256 0.41224 0.94053 0.0
C1846 C 0.45247 0.42654 0.96266 0.0
C1847 C 0.39602 0.41416 0.90159 0.0
C1848 C 0.37969 0.38925 0.89537 0.0
C1849 C 0.4011 0.42965 0.87768 0.0
C1850 C 0.41863 0.45595 0.88336 0.0
C1851 C 0.44609 0.45843 0.88626 0.0
C1852 C 0.46257 0.48334 0.89136 0.0
C1853 C 0.45178 0.50585 0.89381 0.0
C1854 C 0.42446 0.5035 0.89121 0.0
C1855 C 0.40789 0.47863 0.88585 0.0
H1856 H 0.46458 0.52511 0.89784 0.0
H1857 H 0.30177 0.28556 0.84615 0.0
H1858 H 0.66396 0.29191 0.77992 0.0
H1859 H 0.63903 0.31684 0.81145 0.0
H1860 H 0.71106 0.35659 0.86766 0.0
H1861 H 0.73608 0.33181 0.83655 0.0
H1862 H 0.67296 0.34046 0.90217 0.0
H1863 H 0.6834 0.38889 0.81828 0.0
H1864 H 0.68245 0.39653 0.76424 0.0
H1865 H 0.59852 0.36937 0.74995 0.0
H1866 H 0.59901 0.36119 0.80387 0.0
H1867 H 0.61846 0.44728 0.96907 0.0
H1868 H 0.64466 0.41859 0.94527 0.0
H1869 H 0.57453 0.37338 0.8898 0.0
H1870 H 0.54816 0.40167 0.91378 0.0
H1871 H 0.61357 0.39354 0.85605 0.0
H1872 H 0.60642 0.34583 0.94458 0.0
H1873 H 0.61167 0.34002 -0.00076 0.0
H1874 H 0.69466 0.37157 0.00605 0.0
H1875 H 0.68989 0.37759 0.95139 0.0
C1876 C 0.67448 0.30597 0.79896 0.0
C1877 C 0.70199 0.30992 0.80563 0.0
C1878 C 0.66024 0.32023 0.81689 0.0
C1879 C 0.67327 0.33863 0.84174 0.0
C1880 C 0.70066 0.34245 0.8486 0.0
C1881 C 0.71491 0.32833 0.83066 0.0
C1882 C 0.6583 0.3539 0.86064 0.0
C1883 C 0.66016 0.35231 0.89219 0.0
C1884 C 0.64172 0.36934 0.84753 0.0
C1885 C 0.64127 0.37413 0.81504 0.0
C1886 C 0.66476 0.38429 0.80355 0.0
C1887 C 0.66431 0.38878 0.77295 0.0
C1888 C 0.64045 0.38336 0.75365 0.0
C1889 C 0.61699 0.37351 0.76493 0.0
C1890 C 0.61734 0.36896 0.79551 0.0
C1891 C 0.6085 0.43077 0.95245 0.0
C1892 C 0.5813 0.42695 0.94294 0.0
C1893 C 0.62352 0.41443 0.93885 0.0
C1894 C 0.61151 0.394 0.91566 0.0
C1895 C 0.58416 0.38918 0.9075 0.0
C1896 C 0.56916 0.40542 0.92112 0.0
C1897 C 0.62762 0.37952 0.8975 0.0
C1898 C 0.62621 0.38154 0.86603 0.0
C1899 C 0.64513 0.36508 0.91088 0.0
C1900 C 0.64775 0.36236 0.94397 0.0
C1901 C 0.62573 0.35179 0.95782 0.0
C1902 C 0.62865 0.34835 0.98878 0.0
C1903 C 0.6535 0.35545 0.00612 0.0
C1904 C 0.67544 0.36607 0.99258 0.0
C1905 C 0.67265 0.36944 0.96161 0.0
H1906 H 0.65582 0.35271 0.03003 0.0
H1907 H 0.64013 0.38686 0.72997 0.0
H1908 H 0.66307 0.25309 0.17239 0.0
H1909 H 0.63841 0.2735 0.13509 0.0
H1910 H 0.70208 0.34136 0.14735 0.0
H1911 H 0.72648 0.32145 0.18533 0.0
H1912 H 0.65819 0.35642 0.15077 0.0
H1913 H 0.6875 0.29595 0.08043 0.0
H1914 H 0.69446 0.25282 0.05874 0.0
H1915 H 0.61087 0.22353 0.0423 0.0
H1916 H 0.60339 0.26645 0.06426 0.0
H1917 H 0.61055 0.42421 0.04145 0.0
H1918 H 0.63804 0.39372 0.05705 0.0
H1919 H 0.56851 0.33568 0.06301 0.0
H1920 H 0.54087 0.36628 0.04785 0.0
H1921 H 0.61522 0.31446 0.04748 0.0
H1922 H 0.58743 0.37444 0.1226 0.0
H1923 H 0.58103 0.41838 0.14219 0.0
H1924 H 0.66416 0.44888 0.14817 0.0
H1925 H 0.67097 0.40516 0.12804 0.0
C1926 C 0.6719 0.27229 0.167 0.0
C1927 C 0.69667 0.28574 0.18201 0.0
C1928 C 0.65786 0.28385 0.14546 0.0
C1929 C 0.66849 0.30886 0.13813 0.0
C1930 C 0.69346 0.32205 0.15263 0.0
C1931 C 0.70737 0.31066 0.1744 0.0
C1932 C 0.65286 0.32222 0.11721 0.0
C1933 C 0.64929 0.34734 0.12799 0.0
C1934 C 0.64054 0.31016 0.08773 0.0
C1935 C 0.6449 0.28436 0.0743 0.0
C1936 C 0.67059 0.28027 0.07241 0.0
C1937 C 0.67464 0.25587 0.06002 0.0
C1938 C 0.65313 0.23543 0.04924 0.0
C1939 C 0.62751 0.23938 0.0507 0.0
C1940 C 0.62336 0.26376 0.06308 0.0
C1941 C 0.60113 0.4046 0.045 0.0
C1942 C 0.57366 0.39779 0.04424 0.0
C1943 C 0.61683 0.38718 0.05377 0.0
C1944 C 0.60524 0.36271 0.06176 0.0
C1945 C 0.57776 0.35452 0.05698 0.0
C1946 C 0.562 0.37202 0.0483 0.0
C1947 C 0.6213 0.34863 0.08099 0.0
C1948 C 0.62453 0.32342 0.07014 0.0
C1949 C 0.63357 0.36057 0.11039 0.0
C1950 C 0.62967 0.38661 0.12359 0.0
C1951 C 0.60432 0.39055 0.12797 0.0
C1952 C 0.60062 0.4154 0.13917 0.0
C1953 C 0.62217 0.43642 0.14637 0.0
C1954 C 0.64748 0.43258 0.14254 0.0
C1955 C 0.65128 0.40777 0.13126 0.0
H1956 H 0.61925 0.45566 0.15497 0.0
H1957 H 0.65632 0.21655 0.03969 0.0
H1958 H 0.65667 0.71108 0.21116 0.0
H1959 H 0.62857 0.67822 0.17289 0.0
H1960 H 0.66774 0.61874 0.2055 0.0
H1961 H 0.69665 0.65221 0.24331 0.0
H1962 H 0.67747 0.62622 0.1501 0.0
H1963 H 0.59915 0.61265 0.19842 0.0
H1964 H 0.56289 0.62389 0.22517 0.0
H1965 H 0.53804 0.66313 0.15023 0.0
H1966 H 0.57439 0.65247 0.1232 0.0
H1967 H 0.5935 0.51709 0.07854 0.0
H1968 H 0.63101 0.55273 0.09474 0.0
H1969 H 0.59278 0.60389 0.04347 0.0
H1970 H 0.55497 0.5679 0.02732 0.0
H1971 H 0.58444 0.60698 0.10285 0.0
H1972 H 0.6623 0.61431 0.05267 0.0
H1973 H 0.69613 0.59706 0.02653 0.0
H1974 H 0.71866 0.56216 0.10618 0.0
H1975 H 0.68524 0.57943 0.13287 0.0
C1976 C 0.6581 0.69068 0.21134 0.0
C1977 C 0.67881 0.68394 0.22952 0.0
C1978 C 0.64207 0.67187 0.18942 0.0
C1979 C 0.64654 0.64619 0.18595 0.0
C1980 C 0.66433 0.63862 0.20767 0.0
C1981 C 0.6806 0.65758 0.22947 0.0
C1982 C 0.63768 0.62979 0.15626 0.0
C1983 C 0.65702 0.62161 0.1399 0.0
C1984 C 0.61133 0.6251 0.1424 0.0
C1985 C 0.58974 0.63203 0.15893 0.0
C1986 C 0.58617 0.62396 0.18779 0.0
C1987 C 0.56553 0.63016 0.20297 0.0
C1988 C 0.54823 0.6443 0.18946 0.0
C1989 C 0.55149 0.65223 0.16071 0.0
C1990 C 0.5721 0.6461 0.14544 0.0
C1991 C 0.59379 0.53557 0.06938 0.0
C1992 C 0.5711 0.54054 0.05323 0.0
C1993 C 0.61551 0.5559 0.07813 0.0
C1994 C 0.61399 0.5813 0.07157 0.0
C1995 C 0.59396 0.58449 0.04932 0.0
C1996 C 0.57219 0.56402 0.04039 0.0
C1997 C 0.62407 0.60262 0.09686 0.0
C1998 C 0.605 0.61202 0.11265 0.0
C1999 C 0.6505 0.60786 0.11043 0.0
C2000 C 0.67125 0.59818 0.09476 0.0
C2001 C 0.67451 0.60299 0.06461 0.0
C2002 C 0.69367 0.59327 0.04973 0.0
C2003 C 0.70958 0.57857 0.0647 0.0
C2004 C 0.70646 0.57369 0.09465 0.0
C2005 C 0.68753 0.5836 0.10975 0.0
H2006 H 0.72431 0.57094 0.05309 0.0
H2007 H 0.53226 0.64905 0.20123 0.0
H2008 H 0.30303 0.72902 0.1389 0.0
H2009 H 0.33034 0.7054 0.10888 0.0
H2010 H 0.36507 0.68186 0.19147 0.0
H2011 H 0.33791 0.70496 0.22145 0.0
H2012 H 0.39122 0.70657 0.11814 0.0
H2013 H 0.3526 0.62604 0.18175 0.0
H2014 H 0.31234 0.60687 0.20305 0.0
H2015 H 0.26452 0.62162 0.12431 0.0
H2016 H 0.30455 0.64115 0.10283 0.0
H2017 H 0.47269 0.61401 0.10172 0.0
H2018 H 0.44652 0.64586 0.11589 0.0
H2019 H 0.37725 0.59537 0.06421 0.0
H2020 H 0.40231 0.56185 0.05349 0.0
H2021 H 0.36471 0.60983 0.11442 0.0
H2022 H 0.4123 0.65667 0.04444 0.0
H2023 H 0.45058 0.67733 0.0212 0.0
H2024 H 0.47885 0.73005 0.104 0.0
H2025 H 0.44071 0.70976 0.12781 0.0
C2026 C 0.31682 0.71917 0.15068 0.0
C2027 C 0.31811 0.7186 0.1825 0.0
C2028 C 0.33241 0.70578 0.13352 0.0
C2029 C 0.34957 0.69189 0.14805 0.0
C2030 C 0.35182 0.69241 0.17991 0.0
C2031 C 0.33619 0.70553 0.19696 0.0
C2032 C 0.3633 0.67456 0.13014 0.0
C2033 C 0.38553 0.68539 0.11696 0.0
C2034 C 0.35538 0.64708 0.12822 0.0
C2035 C 0.33143 0.63489 0.14072 0.0
C2036 C 0.33347 0.62503 0.16898 0.0
C2037 C 0.31072 0.61424 0.18113 0.0
C2038 C 0.28589 0.61299 0.16502 0.0
C2039 C 0.28375 0.62261 0.13677 0.0
C2040 C 0.30644 0.63362 0.12466 0.0
C2041 C 0.45182 0.6093 0.09366 0.0
C2042 C 0.43977 0.58473 0.07702 0.0
C2043 C 0.43692 0.628 0.1012 0.0
C2044 C 0.40982 0.62321 0.09101 0.0
C2045 C 0.39809 0.59953 0.07257 0.0
C2046 C 0.41273 0.5804 0.06603 0.0
C2047 C 0.39325 0.64154 0.10201 0.0
C2048 C 0.37046 0.63091 0.11453 0.0
C2049 C 0.40053 0.6692 0.10247 0.0
C2050 C 0.42348 0.68165 0.08798 0.0
C2051 C 0.42665 0.67265 0.05778 0.0
C2052 C 0.44834 0.68434 0.04444 0.0
C2053 C 0.46713 0.70504 0.06108 0.0
C2054 C 0.46422 0.71412 0.09106 0.0
C2055 C 0.44248 0.70259 0.10445 0.0
H2056 H 0.48396 0.71403 0.05076 0.0
H2057 H 0.26831 0.60459 0.17443 0.0
H2058 H 0.34598 0.30056 0.2216 0.0
H2059 H 0.38408 0.3348 0.21893 0.0
H2060 H 0.36325 0.38273 0.29413 0.0
H2061 H 0.32477 0.34793 0.29716 0.0
H2062 H 0.36794 0.40745 0.24231 0.0
H2063 H 0.42267 0.36678 0.30429 0.0
H2064 H 0.44022 0.33062 0.32477 0.0
H2065 H 0.46474 0.30909 0.2378 0.0
H2066 H 0.44705 0.34485 0.21664 0.0
H2067 H 0.48273 0.48275 0.17789 0.0
H2068 H 0.46166 0.46345 0.21966 0.0
H2069 H 0.42196 0.39571 0.15649 0.0
H2070 H 0.44231 0.415 0.11459 0.0
H2071 H 0.45691 0.3936 0.22439 0.0
H2072 H 0.37923 0.41843 0.16358 0.0
H2073 H 0.35999 0.4526 0.14043 0.0
H2074 H 0.38026 0.50333 0.22577 0.0
H2075 H 0.39983 0.46944 0.24926 0.0
C2076 C 0.34975 0.31817 0.23798 0.0
C2077 C 0.33229 0.32179 0.25932 0.0
C2078 C 0.37173 0.33762 0.23669 0.0
C2079 C 0.37666 0.36123 0.25653 0.0
C2080 C 0.3599 0.36453 0.27883 0.0
C2081 C 0.33798 0.34472 0.28049 0.0
C2082 C 0.39673 0.38336 0.25001 0.0
C2083 C 0.38779 0.40498 0.23959 0.0
C2084 C 0.42261 0.38014 0.24631 0.0
C2085 C 0.43352 0.35861 0.25888 0.0
C2086 C 0.4317 0.35428 0.28947 0.0
C2087 C 0.4417 0.33384 0.30122 0.0
C2088 C 0.4536 0.31758 0.28261 0.0
C2089 C 0.45557 0.32175 0.25222 0.0
C2090 C 0.44563 0.34216 0.24036 0.0
C2091 C 0.46952 0.46372 0.17297 0.0
C2092 C 0.4641 0.45032 0.14304 0.0
C2093 C 0.45758 0.4528 0.1968 0.0
C2094 C 0.44044 0.42824 0.19097 0.0
C2095 C 0.43524 0.41473 0.16125 0.0
C2096 C 0.44677 0.42578 0.13738 0.0
C2097 C 0.42732 0.4163 0.21541 0.0
C2098 C 0.43764 0.39675 0.22889 0.0
C2099 C 0.40276 0.4213 0.22196 0.0
C2100 C 0.39114 0.44162 0.208 0.0
C2101 C 0.37971 0.43696 0.17728 0.0
C2102 C 0.36873 0.45623 0.16413 0.0
C2103 C 0.36896 0.48015 0.1816 0.0
C2104 C 0.38015 0.48482 0.21226 0.0
C2105 C 0.39119 0.4656 0.22549 0.0
H2106 H 0.36043 0.49504 0.17139 0.0
H2107 H 0.46129 0.30175 0.29173 0.0
H2108 H 0.81978 0.73475 0.65921 0.0
H2109 H 0.84192 0.70977 0.62431 0.0
H2110 H 0.78133 0.64068 0.62409 0.0
H2111 H 0.76011 0.66529 0.6605 0.0
H2112 H 0.82432 0.62736 0.63337 0.0
H2113 H 0.79185 0.67637 0.55855 0.0
H2114 H 0.78303 0.71519 0.53533 0.0
H2115 H 0.86609 0.74539 0.54 0.0
H2116 H 0.87544 0.70693 0.56364 0.0
H2117 H 0.88368 0.55032 0.53655 0.0
H2118 H 0.85118 0.5763 0.54867 0.0
H2119 H 0.91213 0.64649 0.56681 0.0
H2120 H 0.94471 0.62075 0.5533 0.0
H2121 H 0.86553 0.6572 0.54379 0.0
H2122 H 0.89589 0.60867 0.62379 0.0
H2123 H 0.90337 0.56794 0.6436 0.0
H2124 H 0.82052 0.53492 0.62519 0.0
H2125 H 0.8126 0.57534 0.60486 0.0
C2126 C 0.81099 0.71434 0.6513 0.0
C2127 C 0.78834 0.70189 0.66271 0.0
C2128 C 0.82355 0.70008 0.63111 0.0
C2129 C 0.81324 0.67328 0.62118 0.0
C2130 C 0.78982 0.66125 0.63145 0.0
C2131 C 0.77766 0.67532 0.65224 0.0
C2132 C 0.82826 0.65717 0.6029 0.0
C2133 C 0.8327 0.63369 0.61332 0.0
C2134 C 0.83985 0.6655 0.57707 0.0
C2135 C 0.83433 0.68885 0.56317 0.0
C2136 C 0.80824 0.6914 0.5549 0.0
C2137 C 0.80315 0.71333 0.5416 0.0
C2138 C 0.82398 0.73278 0.53627 0.0
C2139 C 0.84997 0.73032 0.54418 0.0
C2140 C 0.85517 0.70845 0.55751 0.0
C2141 C 0.89011 0.57141 0.54204 0.0
C2142 C 0.91693 0.5834 0.54475 0.0
C2143 C 0.87149 0.58622 0.54923 0.0
C2144 C 0.8794 0.61318 0.55961 0.0
C2145 C 0.90567 0.62563 0.55931 0.0
C2146 C 0.92431 0.61086 0.5519 0.0
C2147 C 0.86122 0.62767 0.57428 0.0
C2148 C 0.85652 0.65083 0.56345 0.0
C2149 C 0.849 0.6189 0.59945 0.0
C2150 C 0.85369 0.59494 0.61258 0.0
C2151 C 0.87928 0.59269 0.6239 0.0
C2152 C 0.8836 0.56966 0.63519 0.0
C2153 C 0.86244 0.54883 0.63559 0.0
C2154 C 0.8369 0.55105 0.62483 0.0
C2155 C 0.83248 0.57402 0.61344 0.0
H2156 H 0.86583 0.53099 0.64429 0.0
H2157 H 0.82 0.74972 0.52595 0.0
H2158 H 0.35157 0.77786 0.70985 0.0
H2159 H 0.38331 0.80662 0.68546 0.0
H2160 H 0.38292 0.87102 0.75471 0.0
H2161 H 0.35026 0.84249 0.77848 0.0
H2162 H 0.36551 0.88119 0.70114 0.0
H2163 H 0.44098 0.84962 0.74 0.0
H2164 H 0.4676 0.81696 0.75227 0.0
H2165 H 0.46096 0.78807 0.65686 0.0
H2166 H 0.43401 0.82032 0.64401 0.0
H2167 H 0.44744 0.97414 0.62824 0.0
H2168 H 0.42956 0.94506 0.66403 0.0
H2169 H 0.41642 0.87876 0.59362 0.0
H2170 H 0.43417 0.90781 0.55746 0.0
H2171 H 0.44384 0.87129 0.65012 0.0
H2172 H 0.3654 0.89905 0.612 0.0
H2173 H 0.33795 0.93077 0.59871 0.0
H2174 H 0.34966 0.96555 0.69256 0.0
H2175 H 0.3775 0.93423 0.70635 0.0
C2176 C 0.35902 0.79788 0.72054 0.0
C2177 C 0.34801 0.80823 0.74549 0.0
C2178 C 0.37732 0.81431 0.70667 0.0
C2179 C 0.38522 0.84108 0.71803 0.0
C2180 C 0.37682 0.85048 0.74537 0.0
C2181 C 0.35815 0.83421 0.75889 0.0
C2182 C 0.397 0.85992 0.69813 0.0
C2183 C 0.38309 0.8794 0.69067 0.0
C2184 C 0.41921 0.85686 0.68339 0.0
C2185 C 0.43526 0.83728 0.69107 0.0
C2186 C 0.44498 0.83615 0.72165 0.0
C2187 C 0.46019 0.81774 0.7287 0.0
C2188 C 0.46592 0.80041 0.70537 0.0
C2189 C 0.4565 0.8015 0.67492 0.0
C2190 C 0.44129 0.81987 0.66773 0.0
C2191 C 0.44048 0.95341 0.62028 0.0
C2192 C 0.44226 0.94316 0.59017 0.0
C2193 C 0.43031 0.93687 0.64072 0.0
C2194 C 0.42188 0.90985 0.6314 0.0
C2195 C 0.42303 0.8996 0.60116 0.0
C2196 C 0.43297 0.9162 0.58055 0.0
C2197 C 0.41237 0.89232 0.65357 0.0
C2198 C 0.42656 0.87314 0.66116 0.0
C2199 C 0.39034 0.89548 0.66841 0.0
C2200 C 0.37381 0.91451 0.66014 0.0
C2201 C 0.36237 0.91365 0.62975 0.0
C2202 C 0.34668 0.93151 0.62214 0.0
C2203 C 0.34214 0.95022 0.64476 0.0
C2204 C 0.35324 0.95108 0.67505 0.0
C2205 C 0.36896 0.93327 0.68278 0.0
H2206 H 0.32997 0.96402 0.63883 0.0
H2207 H 0.47769 0.78618 0.71088 0.0
H2208 H 0.19401 0.26214 0.63949 0.0
H2209 H 0.16635 0.28119 0.6035 0.0
H2210 H 0.19903 0.35844 0.65182 0.0
H2211 H 0.2266 0.33972 0.68755 0.0
H2212 H 0.12838 0.30554 0.61756 0.0
H2213 H 0.199 0.40486 0.60693 0.0
H2214 H 0.24543 0.42031 0.59979 0.0
H2215 H 0.24895 0.34292 0.55958 0.0
H2216 H 0.2025 0.32703 0.56623 0.0
H2217 H 0.06633 0.41143 0.61829 0.0
H2218 H 0.09589 0.38099 0.62527 0.0
H2219 H 0.11056 0.38141 0.53127 0.0
H2220 H 0.08085 0.4122 0.52412 0.0
H2221 H 0.15629 0.38692 0.57072 0.0
H2222 H 0.07455 0.32758 0.54946 0.0
H2223 H 0.02769 0.30973 0.55226 0.0
H2224 H 0.04564 0.30258 0.64746 0.0
H2225 H 0.09258 0.32074 0.64539 0.0
C2226 C 0.19564 0.28321 0.64213 0.0
C2227 C 0.21234 0.29934 0.66666 0.0
C2228 C 0.17981 0.29408 0.62152 0.0
C2229 C 0.18072 0.32128 0.62477 0.0
C2230 C 0.19825 0.33747 0.64843 0.0
C2231 C 0.21387 0.32665 0.66908 0.0
C2232 C 0.1614 0.33272 0.60613 0.0
C2233 C 0.13447 0.32311 0.60694 0.0
C2234 C 0.16927 0.3552 0.59139 0.0
C2235 C 0.19725 0.36471 0.58725 0.0
C2236 C 0.20962 0.39115 0.59643 0.0
C2237 C 0.23598 0.39998 0.59253 0.0
C2238 C 0.25015 0.3826 0.57931 0.0
C2239 C 0.23799 0.35634 0.56994 0.0
C2240 C 0.21167 0.3474 0.57385 0.0
C2241 C 0.07585 0.4051 0.59908 0.0
C2242 C 0.07134 0.41431 0.5707 0.0
C2243 C 0.09257 0.38751 0.60302 0.0
C2244 C 0.1052 0.37867 0.57871 0.0
C2245 C 0.10088 0.38785 0.55028 0.0
C2246 C 0.08385 0.40534 0.54621 0.0
C2247 C 0.12353 0.36056 0.5839 0.0
C2248 C 0.1502 0.36896 0.58064 0.0
C2249 C 0.11539 0.33662 0.59579 0.0
C2250 C 0.08713 0.32565 0.59727 0.0
C2251 C 0.0685 0.32238 0.57106 0.0
C2252 C 0.04192 0.31217 0.57251 0.0
C2253 C 0.03369 0.30505 0.60003 0.0
C2254 C 0.05205 0.30809 0.62615 0.0
C2255 C 0.07866 0.3183 0.62483 0.0
H2256 H 0.0131 0.29715 0.6011 0.0
H2257 H 0.27053 0.38948 0.57629 0.0
H2258 H 0.72732 0.20824 0.62765 0.0
H2259 H 0.69463 0.17979 0.58925 0.0
H2260 H 0.63646 0.22446 0.61312 0.0
H2261 H 0.66891 0.25206 0.65302 0.0
H2262 H 0.62029 0.1762 0.61968 0.0
H2263 H 0.65623 0.21697 0.53517 0.0
H2264 H 0.69367 0.23488 0.50853 0.0
H2265 H 0.71651 0.16002 0.50145 0.0
H2266 H 0.67889 0.14154 0.5273 0.0
H2267 H 0.5195 0.08406 0.5339 0.0
H2268 H 0.55072 0.12641 0.54236 0.0
H2269 H 0.6152 0.08609 0.53584 0.0
H2270 H 0.58384 0.04376 0.52687 0.0
H2271 H 0.6256 0.13576 0.51468 0.0
H2272 H 0.5968 0.09647 0.602 0.0
H2273 H 0.5634 0.07602 0.63243 0.0
H2274 H 0.53251 0.14656 0.64035 0.0
H2275 H 0.56533 0.16719 0.60919 0.0
C2276 C 0.70783 0.2126 0.62398 0.0
C2277 C 0.70052 0.23212 0.64356 0.0
C2278 C 0.6891 0.19637 0.60177 0.0
C2279 C 0.66295 0.19991 0.59812 0.0
C2280 C 0.65644 0.22121 0.6156 0.0
C2281 C 0.67498 0.23702 0.63834 0.0
C2282 C 0.64172 0.17889 0.58063 0.0
C2283 C 0.62107 0.16802 0.59634 0.0
C2284 C 0.64328 0.16728 0.55068 0.0
C2285 C 0.66474 0.17789 0.53314 0.0
C2286 C 0.66912 0.20429 0.52766 0.0
C2287 C 0.69035 0.21453 0.51265 0.0
C2288 C 0.70744 0.19859 0.50324 0.0
C2289 C 0.70316 0.17231 0.50852 0.0
C2290 C 0.68174 0.16188 0.52308 0.0
C2291 C 0.54031 0.08441 0.53352 0.0
C2292 C 0.5495 0.06093 0.52994 0.0
C2293 C 0.55807 0.10851 0.53812 0.0
C2294 C 0.58529 0.10935 0.54004 0.0
C2295 C 0.59429 0.08588 0.53425 0.0
C2296 C 0.57645 0.06174 0.52932 0.0
C2297 C 0.60417 0.13374 0.55369 0.0
C2298 C 0.62443 0.14479 0.53755 0.0
C2299 C 0.60268 0.14538 0.58358 0.0
C2300 C 0.58328 0.13325 0.6029 0.0
C2301 C 0.58273 0.10754 0.60998 0.0
C2302 C 0.56388 0.09589 0.62731 0.0
C2303 C 0.54579 0.10995 0.63823 0.0
C2304 C 0.54651 0.13568 0.63181 0.0
C2305 C 0.56519 0.14734 0.61426 0.0
H2306 H 0.53127 0.10094 0.65175 0.0
H2307 H 0.72399 0.20659 0.49185 0.0
H2308 H 0.79243 0.35173 0.31198 0.0
H2309 H 0.82309 0.38346 0.34994 0.0
H2310 H 0.8076 0.33208 0.41887 0.0
H2311 H 0.77676 0.3004 0.38139 0.0
H2312 H 0.82643 0.4097 0.41399 0.0
H2313 H 0.87033 0.32199 0.44307 0.0
H2314 H 0.86888 0.27605 0.42188 0.0
H2315 H 0.85532 0.29579 0.33065 0.0
H2316 H 0.85725 0.34185 0.35129 0.0
H2317 H 0.94649 0.46246 0.51311 0.0
H2318 H 0.90547 0.43019 0.4963 0.0
H2319 H 0.9317 0.41437 0.40837 0.0
H2320 H 0.97229 0.44692 0.4249 0.0
H2321 H 0.90461 0.36909 0.43084 0.0
H2322 H 0.89888 0.45939 0.4181 0.0
H2323 H 0.90142 0.50577 0.43788 0.0
H2324 H 0.83952 0.48269 0.49227 0.0
H2325 H 0.8369 0.43612 0.47315 0.0
C2326 C 0.79482 0.34757 0.33544 0.0
C2327 C 0.78273 0.32324 0.34347 0.0
C2328 C 0.81221 0.36581 0.35715 0.0
C2329 C 0.81777 0.35984 0.38699 0.0
C2330 C 0.80358 0.3369 0.39587 0.0
C2331 C 0.78613 0.31875 0.37429 0.0
C2332 C 0.84186 0.37453 0.40638 0.0
C2333 C 0.84343 0.40081 0.41813 0.0
C2334 C 0.86399 0.36279 0.41148 0.0
C2335 C 0.8636 0.33528 0.39877 0.0
C2336 C 0.86715 0.31651 0.4185 0.0
C2337 C 0.86623 0.29045 0.40658 0.0
C2338 C 0.86184 0.28296 0.37495 0.0
C2339 C 0.8586 0.30156 0.35515 0.0
C2340 C 0.85962 0.32765 0.36695 0.0
C2341 C 0.94366 0.45178 0.49049 0.0
C2342 C 0.96224 0.45763 0.47016 0.0
C2343 C 0.92029 0.43335 0.48091 0.0
C2344 C 0.91553 0.42022 0.451 0.0
C2345 C 0.93504 0.42441 0.43154 0.0
C2346 C 0.95813 0.44312 0.44095 0.0
C2347 C 0.88935 0.40438 0.4384 0.0
C2348 C 0.8874 0.37783 0.42767 0.0
C2349 C 0.86703 0.41602 0.43402 0.0
C2350 C 0.86811 0.44416 0.44473 0.0
C2351 C 0.88601 0.46415 0.43455 0.0
C2352 C 0.88742 0.49051 0.44557 0.0
C2353 C 0.87072 0.49718 0.46642 0.0
C2354 C 0.85252 0.4775 0.47621 0.0
C2355 C 0.8511 0.45111 0.46532 0.0
H2356 H 0.87176 0.51759 0.47484 0.0
H2357 H 0.86104 0.26276 0.36579 0.0
H2358 H 0.68998 0.76433 0.34743 0.0
H2359 H 0.66577 0.78577 0.38362 0.0
H2360 H 0.71337 0.86114 0.37517 0.0
H2361 H 0.73721 0.83999 0.33842 0.0
H2362 H 0.70168 0.85103 0.43824 0.0
H2363 H 0.6615 0.84966 0.33393 0.0
H2364 H 0.6422 0.82783 0.28231 0.0
H2365 H 0.58223 0.77791 0.32087 0.0
H2366 H 0.60149 0.79921 0.37282 0.0
H2367 H 0.63146 0.95169 0.46129 0.0
H2368 H 0.65804 0.91928 0.44987 0.0
H2369 H 0.59049 0.85677 0.44883 0.0
H2370 H 0.56359 0.88939 0.46001 0.0
H2371 H 0.6103 0.85366 0.39617 0.0
H2372 H 0.65095 0.85272 0.50032 0.0
H2373 H 0.67127 0.87266 0.55213 0.0
H2374 H 0.72796 0.9271 0.51452 0.0
H2375 H 0.70884 0.90633 0.46227 0.0
C2376 C 0.69556 0.78541 0.35371 0.0
C2377 C 0.71526 0.80058 0.33997 0.0
C2378 C 0.68174 0.79757 0.37432 0.0
C2379 C 0.68784 0.82495 0.38187 0.0
C2380 C 0.70852 0.83996 0.3696 0.0
C2381 C 0.72196 0.8279 0.34851 0.0
C2382 C 0.67107 0.83828 0.40012 0.0
C2383 C 0.68168 0.85161 0.42913 0.0
C2384 C 0.64485 0.83848 0.38842 0.0
C2385 C 0.63315 0.82574 0.35725 0.0
C2386 C 0.64437 0.83383 0.33142 0.0
C2387 C 0.63341 0.8216 0.3021 0.0
C2388 C 0.61107 0.80142 0.29832 0.0
C2389 C 0.59959 0.7935 0.32385 0.0
C2390 C 0.61052 0.80564 0.35323 0.0
C2391 C 0.62247 0.93105 0.45971 0.0
C2392 C 0.59539 0.92304 0.46103 0.0
C2393 C 0.63774 0.91246 0.45334 0.0
C2394 C 0.6263 0.88554 0.44856 0.0
C2395 C 0.5997 0.87744 0.45234 0.0
C2396 C 0.58436 0.89606 0.45856 0.0
C2397 C 0.64087 0.86669 0.43446 0.0
C2398 C 0.62996 0.85247 0.40587 0.0
C2399 C 0.66676 0.86561 0.44653 0.0
C2400 C 0.67831 0.87826 0.47758 0.0
C2401 C 0.66769 0.86901 0.50315 0.0
C2402 C 0.67906 0.88039 0.53259 0.0
C2403 C 0.70054 0.90154 0.5367 0.0
C2404 C 0.71121 0.91084 0.51132 0.0
C2405 C 0.70034 0.89906 0.4818 0.0
H2406 H 0.70899 0.91067 0.55951 0.0
H2407 H 0.6026 0.79198 0.2756 0.0
H2408 H 0.23814 0.65916 0.2984 0.0
H2409 H 0.2088 0.62545 0.31982 0.0
H2410 H 0.14387 0.63359 0.25514 0.0
H2411 H 0.17291 0.66795 0.23449 0.0
H2412 H 0.13812 0.65051 0.31176 0.0
H2413 H 0.1584 0.57331 0.26208 0.0
H2414 H 0.18519 0.54243 0.24336 0.0
H2415 H 0.21687 0.53808 0.3357 0.0
H2416 H 0.1906 0.56925 0.35501 0.0
H2417 H 0.04306 0.57554 0.38807 0.0
H2418 H 0.07108 0.59144 0.35032 0.0
H2419 H 0.14025 0.5917 0.4131 0.0
H2420 H 0.1122 0.57577 0.45119 0.0
H2421 H 0.14101 0.56668 0.35373 0.0
H2422 H 0.12595 0.64857 0.40187 0.0
H2423 H 0.09881 0.67898 0.42112 0.0
H2424 H 0.05788 0.674 0.3307 0.0
H2425 H 0.08455 0.64327 0.31103 0.0
C2426 C 0.21786 0.65295 0.28794 0.0
C2427 C 0.2075 0.66659 0.26551 0.0
C2428 C 0.20112 0.63353 0.30005 0.0
C2429 C 0.17406 0.62739 0.28941 0.0
C2430 C 0.16464 0.63829 0.26388 0.0
C2431 C 0.1812 0.65799 0.25222 0.0
C2432 C 0.15524 0.61596 0.30952 0.0
C2433 C 0.13834 0.6318 0.32025 0.0
C2434 C 0.15627 0.59211 0.32156 0.0
C2435 C 0.1727 0.57389 0.30999 0.0
C2436 C 0.17133 0.56606 0.2784 0.0
C2437 C 0.18637 0.54841 0.26768 0.0
C2438 C 0.20279 0.53836 0.28831 0.0
C2439 C 0.20418 0.54591 0.31973 0.0
C2440 C 0.1892 0.56356 0.33058 0.0
C2441 C 0.06425 0.57937 0.39398 0.0
C2442 C 0.07556 0.5746 0.42248 0.0
C2443 C 0.08018 0.58836 0.37242 0.0
C2444 C 0.10765 0.59263 0.37902 0.0
C2445 C 0.11905 0.58839 0.4077 0.0
C2446 C 0.10307 0.57962 0.42946 0.0
C2447 C 0.12435 0.60136 0.35571 0.0
C2448 C 0.14076 0.58514 0.34467 0.0
C2449 C 0.12307 0.62493 0.34334 0.0
C2450 C 0.107 0.64339 0.35508 0.0
C2451 C 0.11097 0.65376 0.38618 0.0
C2452 C 0.09572 0.6711 0.39714 0.0
C2453 C 0.07657 0.67834 0.37716 0.0
C2454 C 0.07269 0.66833 0.34616 0.0
C2455 C 0.08787 0.65097 0.33509 0.0
H2456 H 0.06479 0.69177 0.38569 0.0
H2457 H 0.21437 0.52467 0.27997 0.0
H2458 H 0.28439 0.16831 0.30508 0.0
H2459 H 0.31877 0.14945 0.33076 0.0
H2460 H 0.35832 0.22664 0.37417 0.0
H2461 H 0.32377 0.24563 0.34911 0.0
H2462 H 0.37013 0.15789 0.32431 0.0
H2463 H 0.39125 0.22374 0.43801 0.0
H2464 H 0.36875 0.24736 0.47484 0.0
H2465 H 0.29725 0.18974 0.44755 0.0
H2466 H 0.31944 0.16575 0.41075 0.0
H2467 H 0.48103 0.12144 0.40631 0.0
H2468 H 0.4539 0.15099 0.3866 0.0
H2469 H 0.38976 0.11433 0.43176 0.0
H2470 H 0.41686 0.0849 0.45172 0.0
H2471 H 0.39637 0.16889 0.43637 0.0
H2472 H 0.39253 0.0945 0.35638 0.0
H2473 H 0.41412 0.06808 0.32138 0.0
H2474 H 0.44642 0.13724 0.28254 0.0
H2475 H 0.42511 0.16405 0.31742 0.0
C2476 C 0.30017 0.18125 0.32047 0.0
C2477 C 0.30133 0.2085 0.325 0.0
C2478 C 0.31991 0.17045 0.33496 0.0
C2479 C 0.34116 0.18662 0.35429 0.0
C2480 C 0.34197 0.21372 0.35962 0.0
C2481 C 0.32214 0.22455 0.34528 0.0
C2482 C 0.36275 0.1751 0.36814 0.0
C2483 C 0.37568 0.16017 0.34889 0.0
C2484 C 0.37049 0.17853 0.40008 0.0
C2485 C 0.35695 0.19308 0.42166 0.0
C2486 C 0.37073 0.21617 0.43991 0.0
C2487 C 0.35804 0.2296 0.46076 0.0
C2488 C 0.33158 0.22007 0.46351 0.0
C2489 C 0.31773 0.19712 0.44537 0.0
C2490 C 0.33034 0.18363 0.42451 0.0
C2491 C 0.4613 0.12004 0.41248 0.0
C2492 C 0.45092 0.10078 0.43035 0.0
C2493 C 0.44581 0.1368 0.40105 0.0
C2494 C 0.41975 0.13458 0.40741 0.0
C2495 C 0.40981 0.11624 0.42648 0.0
C2496 C 0.4252 0.09937 0.43772 0.0
C2497 C 0.40208 0.15016 0.393 0.0
C2498 C 0.39039 0.16641 0.41199 0.0
C2499 C 0.39513 0.14751 0.36095 0.0
C2500 C 0.40741 0.13127 0.33961 0.0
C2501 C 0.4043 0.10405 0.34042 0.0
C2502 C 0.41648 0.08901 0.32062 0.0
C2503 C 0.4317 0.10099 0.29983 0.0
C2504 C 0.43465 0.12799 0.29867 0.0
C2505 C 0.42249 0.1431 0.3184 0.0
H2506 H 0.44117 0.08933 0.28457 0.0
H2507 H 0.3218 0.23046 0.4797 0.0
H2508 H 0.73624 0.81034 0.64761 0.0
H2509 H 0.71382 0.83694 0.61547 0.0
H2510 H 0.6445 0.8179 0.66052 0.0
H2511 H 0.66628 0.79098 0.69206 0.0
H2512 H 0.63262 0.81491 0.59809 0.0
H2513 H 0.68267 0.88735 0.68316 0.0
H2514 H 0.72494 0.9085 0.71447 0.0
H2515 H 0.76352 0.91045 0.63348 0.0
H2516 H 0.72152 0.88912 0.60191 0.0
H2517 H 0.56276 0.91838 0.60565 0.0
H2518 H 0.59359 0.8906 0.62054 0.0
H2519 H 0.63414 0.90731 0.54262 0.0
H2520 H 0.60293 0.93482 0.52732 0.0
H2521 H 0.66521 0.91156 0.61164 0.0
H2522 H 0.60797 0.8558 0.52741 0.0
H2523 H 0.56462 0.83604 0.49812 0.0
H2524 H 0.54004 0.80019 0.57611 0.0
H2525 H 0.58316 0.82013 0.60604 0.0
C2526 C 0.71616 0.81169 0.65052 0.0
C2527 C 0.70311 0.79859 0.67251 0.0
C2528 C 0.70346 0.82703 0.63227 0.0
C2529 C 0.67765 0.82965 0.63595 0.0
C2530 C 0.66443 0.81611 0.65732 0.0
C2531 C 0.67698 0.80074 0.67538 0.0
C2532 C 0.66423 0.84692 0.61834 0.0
C2533 C 0.63989 0.836 0.6007 0.0
C2534 C 0.67388 0.87435 0.6214 0.0
C2535 C 0.69907 0.8869 0.64026 0.0
C2536 C 0.70022 0.89234 0.67213 0.0
C2537 C 0.72411 0.9043 0.6899 0.0
C2538 C 0.74692 0.91084 0.67597 0.0
C2539 C 0.74586 0.90544 0.64424 0.0
C2540 C 0.72202 0.89352 0.6264 0.0
C2541 C 0.57837 0.91624 0.59184 0.0
C2542 C 0.58059 0.92867 0.56536 0.0
C2543 C 0.59587 0.90042 0.60031 0.0
C2544 C 0.61605 0.89709 0.58269 0.0
C2545 C 0.61868 0.9098 0.5565 0.0
C2546 C 0.60082 0.92531 0.54769 0.0
C2547 C 0.63362 0.87947 0.59155 0.0
C2548 C 0.6584 0.8904 0.60809 0.0
C2549 C 0.62454 0.85196 0.58705 0.0
C2550 C 0.59871 0.83965 0.56904 0.0
C2551 C 0.59325 0.8439 0.5384 0.0
C2552 C 0.56873 0.83262 0.52166 0.0
C2553 C 0.54956 0.81691 0.53526 0.0
C2554 C 0.55491 0.81238 0.56561 0.0
C2555 C 0.57939 0.82365 0.58246 0.0
H2556 H 0.53059 0.80819 0.52227 0.0
H2557 H 0.7654 0.92007 0.68974 0.0
H2558 H 0.63866 0.20065 0.27616 0.0
H2559 H 0.6056 0.18757 0.30963 0.0
H2560 H 0.64855 0.24681 0.38166 0.0
H2561 H 0.68163 0.26008 0.34833 0.0
H2562 H 0.65785 0.19572 0.38325 0.0
H2563 H 0.58599 0.23764 0.37954 0.0
H2564 H 0.54921 0.25644 0.35821 0.0
H2565 H 0.50896 0.18006 0.3146 0.0
H2566 H 0.54566 0.16082 0.33507 0.0
H2567 H 0.60057 0.08929 0.46441 0.0
H2568 H 0.61707 0.13293 0.45036 0.0
H2569 H 0.57779 0.1078 0.35842 0.0
H2570 H 0.56135 0.06423 0.37209 0.0
H2571 H 0.56486 0.15324 0.38547 0.0
H2572 H 0.63953 0.11463 0.37283 0.0
H2573 H 0.67816 0.09513 0.38458 0.0
H2574 H 0.7156 0.16423 0.44587 0.0
H2575 H 0.67633 0.18353 0.43624 0.0
C2576 C 0.64038 0.21174 0.29859 0.0
C2577 C 0.66335 0.23026 0.31041 0.0
C2578 C 0.6212 0.20457 0.31759 0.0
C2579 C 0.6252 0.21568 0.34842 0.0
C2580 C 0.64535 0.2378 0.35805 0.0
C2581 C 0.66454 0.24492 0.33917 0.0
C2582 C 0.61728 0.1979 0.37098 0.0
C2583 C 0.63747 0.18705 0.38488 0.0
C2584 C 0.59073 0.18624 0.37198 0.0
C2585 C 0.56875 0.19777 0.35886 0.0
C2586 C 0.56945 0.22486 0.36513 0.0
C2587 C 0.54856 0.2356 0.35322 0.0
C2588 C 0.52677 0.21946 0.33504 0.0
C2589 C 0.52584 0.19254 0.3287 0.0
C2590 C 0.54669 0.1817 0.3405 0.0
C2591 C 0.59602 0.09287 0.44098 0.0
C2592 C 0.57947 0.07345 0.41935 0.0
C2593 C 0.60528 0.11784 0.43313 0.0
C2594 C 0.59807 0.12358 0.40362 0.0
C2595 C 0.58307 0.10374 0.3815 0.0
C2596 C 0.57398 0.07879 0.38924 0.0
C2597 C 0.60545 0.15034 0.39551 0.0
C2598 C 0.58517 0.16268 0.38484 0.0
C2599 C 0.632 0.16293 0.39622 0.0
C2600 C 0.65449 0.1502 0.40455 0.0
C2601 C 0.65549 0.12531 0.38976 0.0
C2602 C 0.67757 0.1143 0.39601 0.0
C2603 C 0.69913 0.12825 0.41642 0.0
C2604 C 0.6986 0.15321 0.43069 0.0
C2605 C 0.67634 0.1641 0.42504 0.0
H2606 H 0.71637 0.11986 0.42089 0.0
H2607 H 0.5106 0.22781 0.32589 0.0
H2608 H 0.82615 0.74503 0.36026 0.0
H2609 H 0.8502 0.72164 0.39486 0.0
H2610 H 0.8114 0.64787 0.3419 0.0
H2611 H 0.78766 0.67155 0.30684 0.0
H2612 H 0.81454 0.64604 0.40505 0.0
H2613 H 0.87249 0.67438 0.33127 0.0
H2614 H 0.89713 0.70676 0.30264 0.0
H2615 H 0.93898 0.74989 0.38686 0.0
H2616 H 0.91434 0.71791 0.41606 0.0
H2617 H 0.90013 0.56179 0.44588 0.0
H2618 H 0.86962 0.58769 0.42669 0.0
H2619 H 0.92431 0.65889 0.4666 0.0
H2620 H 0.9563 0.63324 0.48249 0.0
H2621 H 0.91201 0.66459 0.41331 0.0
H2622 H 0.85512 0.63674 0.48823 0.0
H2623 H 0.82838 0.60643 0.51759 0.0
H2624 H 0.78505 0.56355 0.4342 0.0
H2625 H 0.81086 0.59396 0.40431 0.0
C2626 C 0.82323 0.72393 0.35567 0.0
C2627 C 0.80589 0.71012 0.33037 0.0
C2628 C 0.83667 0.71053 0.37566 0.0
C2629 C 0.83289 0.68303 0.3707 0.0
C2630 C 0.81468 0.6691 0.34608 0.0
C2631 C 0.80125 0.68258 0.32605 0.0
C2632 C 0.84876 0.66895 0.39042 0.0
C2633 C 0.83587 0.6499 0.40683 0.0
C2634 C 0.87658 0.6746 0.39338 0.0
C2635 C 0.8914 0.69387 0.37586 0.0
C2636 C 0.8868 0.69088 0.3437 0.0
C2637 C 0.9008 0.70912 0.32737 0.0
C2638 C 0.91962 0.73034 0.34292 0.0
C2639 C 0.92443 0.7334 0.37485 0.0
C2640 C 0.91046 0.71522 0.3913 0.0
C2641 C 0.9059 0.58298 0.45043 0.0
C2642 C 0.93134 0.59525 0.46475 0.0
C2643 C 0.88795 0.59787 0.44009 0.0
C2644 C 0.89447 0.62546 0.44498 0.0
C2645 C 0.9188 0.63767 0.46206 0.0
C2646 C 0.93711 0.62282 0.47151 0.0
C2647 C 0.87798 0.64146 0.42858 0.0
C2648 C 0.89074 0.66088 0.41237 0.0
C2649 C 0.85007 0.63628 0.42615 0.0
C2650 C 0.83509 0.6175 0.44405 0.0
C2651 C 0.84002 0.62073 0.47617 0.0
C2652 C 0.825 0.6036 0.4929 0.0
C2653 C 0.80531 0.58294 0.4778 0.0
C2654 C 0.80037 0.57951 0.44589 0.0
C2655 C 0.81503 0.5968 0.42904 0.0
H2656 H 0.7938 0.56969 0.49084 0.0
H2657 H 0.93048 0.74441 0.33023 0.0
H2658 H 0.35935 0.77236 0.31334 0.0
H2659 H 0.39135 0.79641 0.35563 0.0
H2660 H 0.33156 0.7871 0.41635 0.0
H2661 H 0.29932 0.76361 0.37346 0.0
H2662 H 0.34731 0.83582 0.4126 0.0
H2663 H 0.39333 0.77009 0.43525 0.0
H2664 H 0.415 0.73246 0.42679 0.0
H2665 H 0.47303 0.77875 0.38194 0.0
H2666 H 0.45153 0.81655 0.38964 0.0
H2667 H 0.44035 0.95046 0.48566 0.0
H2668 H 0.41372 0.90569 0.48005 0.0
H2669 H 0.44754 0.88627 0.39797 0.0
H2670 H 0.47485 0.93038 0.40438 0.0
H2671 H 0.44424 0.8465 0.4335 0.0
H2672 H 0.38708 0.90422 0.39583 0.0
H2673 H 0.36459 0.94152 0.40234 0.0
H2674 H 0.32701 0.90839 0.47518 0.0
H2675 H 0.34954 0.87102 0.46926 0.0
C2676 C 0.35349 0.77419 0.3361 0.0
C2677 C 0.32709 0.76619 0.34038 0.0
C2678 C 0.37181 0.78791 0.3604 0.0
C2679 C 0.3639 0.79376 0.3893 0.0
C2680 C 0.33813 0.78289 0.39431 0.0
C2681 C 0.31976 0.76935 0.36989 0.0
C2682 C 0.38008 0.81618 0.41072 0.0
C2683 C 0.3684 0.83774 0.41816 0.0
C2684 C 0.40764 0.81896 0.41787 0.0
C2685 C 0.42074 0.79624 0.41305 0.0
C2686 C 0.41061 0.77224 0.42341 0.0
C2687 C 0.4229 0.75086 0.41876 0.0
C2688 C 0.44538 0.75321 0.40384 0.0
C2689 C 0.45564 0.77697 0.39355 0.0
C2690 C 0.44344 0.79841 0.39812 0.0
C2691 C 0.44238 0.93638 0.46686 0.0
C2692 C 0.4599 0.9437 0.44581 0.0
C2693 C 0.42707 0.91093 0.4635 0.0
C2694 C 0.4288 0.89256 0.43869 0.0
C2695 C 0.44614 0.9 0.41751 0.0
C2696 C 0.46147 0.92533 0.42095 0.0
C2697 C 0.41148 0.86607 0.43315 0.0
C2698 C 0.423 0.84397 0.42897 0.0
C2699 C 0.38375 0.86268 0.42889 0.0
C2700 C 0.37025 0.88508 0.43241 0.0
C2701 C 0.37417 0.90502 0.41338 0.0
C2702 C 0.3614 0.92614 0.41693 0.0
C2703 C 0.34447 0.92738 0.43924 0.0
C2704 C 0.3402 0.90744 0.45797 0.0
C2705 C 0.35296 0.8863 0.45453 0.0
H2706 H 0.3346 0.94374 0.44196 0.0
H2707 H 0.45485 0.73664 0.40027 0.0
H2708 H 0.24273 0.31448 0.36682 0.0
H2709 H 0.22469 0.34338 0.40254 0.0
H2710 H 0.15377 0.33234 0.33903 0.0
H2711 H 0.1714 0.30367 0.30344 0.0
H2712 H 0.17628 0.38461 0.3584 0.0
H2713 H 0.15553 0.30246 0.40267 0.0
H2714 H 0.16618 0.26535 0.42813 0.0
H2715 H 0.21159 0.31913 0.50324 0.0
H2716 H 0.20158 0.3566 0.47797 0.0
H2717 H 0.07008 0.41647 0.42068 0.0
H2718 H 0.10024 0.38933 0.40365 0.0
H2719 H 0.15911 0.42759 0.47859 0.0
H2720 H 0.1291 0.45563 0.49546 0.0
H2721 H 0.15296 0.3683 0.46146 0.0
H2722 H 0.17133 0.44988 0.42164 0.0
H2723 H 0.16136 0.48811 0.39801 0.0
H2724 H 0.12332 0.43751 0.31668 0.0
H2725 H 0.13265 0.39889 0.34002 0.0
C2726 C 0.2232 0.31805 0.36058 0.0
C2727 C 0.2086 0.30686 0.33211 0.0
C2728 C 0.21292 0.33449 0.38107 0.0
C2729 C 0.18792 0.34001 0.37339 0.0
C2730 C 0.17316 0.32841 0.34535 0.0
C2731 C 0.18329 0.31197 0.32502 0.0
C2732 C 0.17728 0.35893 0.39333 0.0
C2733 C 0.1712 0.38101 0.38093 0.0
C2734 C 0.1718 0.35493 0.42335 0.0
C2735 C 0.17819 0.33235 0.43815 0.0
C2736 C 0.1681 0.3064 0.42439 0.0
C2737 C 0.17395 0.28529 0.43885 0.0
C2738 C 0.18966 0.28988 0.46721 0.0
C2739 C 0.19951 0.3156 0.48121 0.0
C2740 C 0.19377 0.33677 0.46682 0.0
C2741 C 0.08936 0.41903 0.43374 0.0
C2742 C 0.09744 0.43861 0.45898 0.0
C2743 C 0.10649 0.40341 0.42407 0.0
C2744 C 0.13197 0.40683 0.43959 0.0
C2745 C 0.1395 0.42482 0.46629 0.0
C2746 C 0.12233 0.44072 0.47591 0.0
C2747 C 0.15099 0.39306 0.42577 0.0
C2748 C 0.15866 0.37215 0.43925 0.0
C2749 C 0.15838 0.39828 0.39688 0.0
C2750 C 0.15251 0.42143 0.38272 0.0
C2751 C 0.16059 0.44685 0.39884 0.0
C2752 C 0.1551 0.46861 0.38547 0.0
C2753 C 0.14167 0.46524 0.35588 0.0
C2754 C 0.13371 0.44009 0.33961 0.0
C2755 C 0.13911 0.41825 0.35289 0.0
H2756 H 0.13749 0.48211 0.34555 0.0
H2757 H 0.19411 0.27351 0.47839 0.0
H2758 H 0.26558 0.17539 0.66389 0.0
H2759 H 0.2843 0.1466 0.62907 0.0
H2760 H 0.36046 0.19838 0.65229 0.0
H2761 H 0.34174 0.2275 0.68645 0.0
H2762 H 0.34774 0.18548 0.59121 0.0
H2763 H 0.34664 0.14029 0.68118 0.0
H2764 H 0.32617 0.11802 0.72171 0.0
H2765 H 0.27547 0.06079 0.65386 0.0
H2766 H 0.29545 0.08286 0.61284 0.0
H2767 H 0.44166 0.11291 0.55154 0.0
H2768 H 0.41229 0.13941 0.5719 0.0
H2769 H 0.34609 0.07489 0.54349 0.0
H2770 H 0.37582 0.04783 0.5241 0.0
H2771 H 0.34714 0.0918 0.60151 0.0
H2772 H 0.34866 0.13551 0.51187 0.0
H2773 H 0.36854 0.1572 0.47103 0.0
H2774 H 0.41808 0.21657 0.53781 0.0
H2775 H 0.39794 0.19525 0.57922 0.0
C2776 C 0.2862 0.18079 0.66121 0.0
C2777 C 0.30208 0.20391 0.67747 0.0
C2778 C 0.29694 0.16415 0.64166 0.0
C2779 C 0.32377 0.17035 0.63821 0.0
C2780 C 0.33968 0.19331 0.65461 0.0
C2781 C 0.32898 0.20988 0.67416 0.0
C2782 C 0.33534 0.1535 0.61684 0.0
C2783 C 0.34776 0.16503 0.59358 0.0
C2784 C 0.33446 0.12658 0.61925 0.0
C2785 C 0.32231 0.11344 0.64392 0.0
C2786 C 0.33095 0.12312 0.67488 0.0
C2787 C 0.31948 0.1105 0.69795 0.0
C2788 C 0.29947 0.08809 0.69037 0.0
C2789 C 0.29093 0.07819 0.65969 0.0
C2790 C 0.30233 0.09073 0.63652 0.0
C2791 C 0.42075 0.10459 0.54898 0.0
C2792 C 0.41106 0.07826 0.53653 0.0
C2793 C 0.40389 0.11982 0.56043 0.0
C2794 C 0.37689 0.1092 0.5592 0.0
C2795 C 0.36685 0.08348 0.54473 0.0
C2796 C 0.3838 0.06814 0.53336 0.0
C2797 C 0.36011 0.12396 0.57622 0.0
C2798 C 0.34671 0.1121 0.59873 0.0
C2799 C 0.35998 0.15058 0.57318 0.0
C2800 C 0.37201 0.16366 0.54855 0.0
C2801 C 0.36388 0.15312 0.51782 0.0
C2802 C 0.3752 0.16542 0.49456 0.0
C2803 C 0.39491 0.18816 0.50177 0.0
C2804 C 0.40293 0.1989 0.53227 0.0
C2805 C 0.39144 0.18681 0.55564 0.0
H2806 H 0.404 0.19755 0.48384 0.0
H2807 H 0.29064 0.07835 0.70828 0.0
H2808 H 0.82239 0.32593 0.67881 0.0
H2809 H 0.83684 0.36709 0.65868 0.0
H2810 H 0.79254 0.40596 0.71942 0.0
H2811 H 0.77917 0.36474 0.74091 0.0
H2812 H 0.8139 0.39772 0.62892 0.0
H2813 H 0.82267 0.46974 0.73424 0.0
H2814 H 0.82547 0.47196 0.79053 0.0
H2815 H 0.8679 0.40914 0.78862 0.0
H2816 H 0.8654 0.40668 0.73237 0.0
H2817 H 0.90574 0.49299 0.57908 0.0
H2818 H 0.86603 0.48221 0.60406 0.0
H2819 H 0.91134 0.45489 0.67687 0.0
H2820 H 0.95128 0.46733 0.65288 0.0
H2821 H 0.87173 0.47146 0.69852 0.0
H2822 H 0.88304 0.41284 0.60794 0.0
H2823 H 0.88824 0.40392 0.55332 0.0
H2824 H 0.81677 0.43018 0.5279 0.0
H2825 H 0.81129 0.43941 0.58249 0.0
C2826 C 0.81583 0.34328 0.68794 0.0
C2827 C 0.80001 0.34235 0.7116 0.0
C2828 C 0.82382 0.36675 0.67622 0.0
C2829 C 0.81571 0.38967 0.68745 0.0
C2830 C 0.79929 0.38864 0.71064 0.0
C2831 C 0.7918 0.36518 0.72297 0.0
C2832 C 0.82646 0.41457 0.67587 0.0
C2833 C 0.82598 0.41425 0.6441 0.0
C2834 C 0.84182 0.4364 0.69558 0.0
C2835 C 0.84359 0.43786 0.72925 0.0
C2836 C 0.83259 0.45645 0.74591 0.0
C2837 C 0.83412 0.45773 0.77775 0.0
C2838 C 0.84678 0.44064 0.79312 0.0
C2839 C 0.85803 0.4223 0.77669 0.0
C2840 C 0.85656 0.42095 0.74485 0.0
C2841 C 0.90714 0.48512 0.60075 0.0
C2842 C 0.93112 0.4801 0.6138 0.0
C2843 C 0.88458 0.4792 0.61507 0.0
C2844 C 0.88558 0.46714 0.64189 0.0
C2845 C 0.91007 0.46418 0.65616 0.0
C2846 C 0.93281 0.47091 0.64232 0.0
C2847 C 0.86128 0.4529 0.65194 0.0
C2848 C 0.85857 0.45572 0.68322 0.0
C2849 C 0.84387 0.43256 0.63192 0.0
C2850 C 0.8469 0.42702 0.59915 0.0
C2851 C 0.86849 0.41675 0.59065 0.0
C2852 C 0.87149 0.41166 0.55976 0.0
C2853 C 0.85287 0.4165 0.53717 0.0
C2854 C 0.83119 0.42647 0.54544 0.0
C2855 C 0.82812 0.43163 0.57635 0.0
H2856 H 0.85521 0.41241 0.51328 0.0
H2857 H 0.84792 0.44165 0.81777 0.0
H2858 H 0.22327 0.72564 0.64532 0.0
H2859 H 0.19897 0.69266 0.60455 0.0
H2860 H 0.24224 0.63607 0.63678 0.0
H2861 H 0.26621 0.66922 0.67863 0.0
H2862 H 0.19357 0.65392 0.5605 0.0
H2863 H 0.20027 0.58758 0.65501 0.0
H2864 H 0.21454 0.59133 0.71059 0.0
H2865 H 0.19595 0.66802 0.72293 0.0
H2866 H 0.18135 0.66453 0.66757 0.0
H2867 H 0.08068 0.54453 0.5227 0.0
H2868 H 0.12485 0.57271 0.53245 0.0
H2869 H 0.10404 0.61065 0.61504 0.0
H2870 H 0.06031 0.58223 0.60559 0.0
H2871 H 0.14729 0.595 0.62724 0.0
H2872 H 0.11136 0.64029 0.55103 0.0
H2873 H 0.09057 0.64728 0.50084 0.0
H2874 H 0.15639 0.62876 0.45883 0.0
H2875 H 0.1772 0.62071 0.50865 0.0
C2876 C 0.2284 0.70645 0.64294 0.0
C2877 C 0.2457 0.69949 0.6657 0.0
C2878 C 0.21467 0.68763 0.61934 0.0
C2879 C 0.21799 0.6616 0.61842 0.0
C2880 C 0.23896 0.65597 0.63762 0.0
C2881 C 0.25267 0.67488 0.66153 0.0
C2882 C 0.19517 0.64053 0.6049 0.0
C2883 C 0.1837 0.64047 0.5747 0.0
C2884 C 0.18164 0.62393 0.62394 0.0
C2885 C 0.19011 0.62592 0.65723 0.0
C2886 C 0.19923 0.60519 0.66966 0.0
C2887 C 0.20735 0.60728 0.70109 0.0
C2888 C 0.20625 0.62994 0.72025 0.0
C2889 C 0.19687 0.65051 0.70807 0.0
C2890 C 0.18866 0.64848 0.6767 0.0
C2891 C 0.08547 0.55933 0.5425 0.0
C2892 C 0.06725 0.56133 0.56341 0.0
C2893 C 0.11067 0.57533 0.54811 0.0
C2894 C 0.1178 0.59366 0.57457 0.0
C2895 C 0.09908 0.5964 0.59466 0.0
C2896 C 0.07412 0.58023 0.58927 0.0
C2897 C 0.14517 0.60875 0.58301 0.0
C2898 C 0.15751 0.60753 0.61235 0.0
C2899 C 0.15845 0.62534 0.56374 0.0
C2900 C 0.14561 0.62933 0.53353 0.0
C2901 C 0.12119 0.63718 0.53102 0.0
C2902 C 0.10942 0.64141 0.50263 0.0
C2903 C 0.12207 0.63831 0.47664 0.0
C2904 C 0.14653 0.63098 0.47897 0.0
C2905 C 0.15828 0.62647 0.50726 0.0
H2906 H 0.11292 0.64162 0.45471 0.0
H2907 H 0.21259 0.63153 0.74456 0.0
loop_
_geom_bond_atom_site_label_1
_geom_bond_atom_site_label_2
_geom_bond_distance
_geom_bond_site_symmetry_2
_ccdc_geom_bond_type
O0 Zn1 1.953 . S
O0 C16 1.225 . S
Zn1 O0 1.953 . S
Zn1 O2 1.949 . S
Zn1 O8 1.919 . S
Zn1 O13 1.924 . S
O2 Zn1 1.949 . S
O2 Zn3 1.923 . S
O2 Zn4 1.950 . S
O2 Zn5 1.945 . S
Zn3 O2 1.923 . S
Zn3 O6 1.933 . S
Zn3 O9 1.941 . S
Zn3 O10 1.965 . S
Zn4 O2 1.950 . S
Zn4 O11 1.938 . S
Zn4 O12 1.906 . S
Zn4 O22 1.953 . S
Zn5 O2 1.945 . S
Zn5 O7 1.932 . S
Zn5 O14 1.977 . S
Zn5 O15 1.910 . S
O6 Zn3 1.933 . S
O6 C17 1.226 . S
O7 Zn5 1.932 . S
O7 C17 1.307 . S
O8 Zn1 1.919 . S
O8 C19 1.253 . S
O9 Zn3 1.941 . S
O9 C19 1.283 . S
O10 Zn3 1.965 . S
O10 C18 1.303 . S
O11 Zn4 1.938 . S
O11 C18 1.247 . S
O12 Zn4 1.906 . S
O12 C20 1.304 . S
O13 Zn1 1.924 . S
O13 C21 1.311 . S
O14 Zn5 1.977 . S
O14 C20 1.272 . S
O15 Zn5 1.910 . S
O15 C21 1.231 . S
C16 O0 1.225 . S
C16 O22 1.298 . S
C17 O6 1.226 . S
C17 O7 1.307 . S
C18 O10 1.303 . S
C18 O11 1.247 . S
C19 O8 1.253 . S
C19 O9 1.283 . S
C20 O12 1.304 . S
C20 O14 1.272 . S
C21 O13 1.311 . S
C21 O15 1.231 . S
O22 Zn4 1.953 . S
O22 C16 1.298 . S
O23 Zn24 1.953 . S
O23 C39 1.225 . S
Zn24 O23 1.953 . S
Zn24 O25 1.949 . S
Zn24 O31 1.919 . S
Zn24 O36 1.924 . S
O25 Zn24 1.949 . S
O25 Zn26 1.923 . S
O25 Zn27 1.950 . S
O25 Zn28 1.945 . S
Zn26 O25 1.923 . S
Zn26 O29 1.933 . S
Zn26 O32 1.941 . S
Zn26 O33 1.965 . S
Zn27 O25 1.950 . S
Zn27 O34 1.938 . S
Zn27 O35 1.906 . S
Zn27 O45 1.953 . S
Zn28 O25 1.945 . S
Zn28 O30 1.932 . S
Zn28 O37 1.977 . S
Zn28 O38 1.910 . S
O29 Zn26 1.933 . S
O29 C40 1.226 . S
O30 Zn28 1.932 . S
O30 C40 1.307 . S
O31 Zn24 1.919 . S
O31 C42 1.253 . S
O32 Zn26 1.941 . S
O32 C42 1.283 . S
O33 Zn26 1.965 . S
O33 C41 1.303 . S
O34 Zn27 1.938 . S
O34 C41 1.247 . S
O35 Zn27 1.906 . S
O35 C43 1.304 . S
O36 Zn24 1.924 . S
O36 C44 1.311 . S
O37 Zn28 1.977 . S
O37 C43 1.272 . S
O38 Zn28 1.910 . S
O38 C44 1.231 . S
C39 O23 1.225 . S
C39 O45 1.298 . S
C40 O29 1.226 . S
C40 O30 1.307 . S
C41 O33 1.303 . S
C41 O34 1.247 . S
C42 O31 1.253 . S
C42 O32 1.283 . S
C43 O35 1.304 . S
C43 O37 1.272 . S
C44 O36 1.311 . S
C44 O38 1.231 . S
O45 Zn27 1.953 . S
O45 C39 1.298 . S
O46 Zn47 1.953 . S
O46 C62 1.225 . S
Zn47 O46 1.953 . S
Zn47 O48 1.949 . S
Zn47 O54 1.919 . S
Zn47 O59 1.924 . S
O48 Zn47 1.949 . S
O48 Zn49 1.923 . S
O48 Zn50 1.950 . S
O48 Zn51 1.945 . S
Zn49 O48 1.923 . S
Zn49 O52 1.933 . S
Zn49 O55 1.941 . S
Zn49 O56 1.965 . S
Zn50 O48 1.950 . S
Zn50 O57 1.938 . S
Zn50 O58 1.906 . S
Zn50 O68 1.953 . S
Zn51 O48 1.945 . S
Zn51 O53 1.932 . S
Zn51 O60 1.977 . S
Zn51 O61 1.910 . S
O52 Zn49 1.933 . S
O52 C63 1.226 . S
O53 Zn51 1.932 . S
O53 C63 1.307 . S
O54 Zn47 1.919 . S
O54 C65 1.253 . S
O55 Zn49 1.941 . S
O55 C65 1.283 . S
O56 Zn49 1.965 . S
O56 C64 1.303 . S
O57 Zn50 1.938 . S
O57 C64 1.247 . S
O58 Zn50 1.906 . S
O58 C66 1.304 . S
O59 Zn47 1.924 . S
O59 C67 1.311 . S
O60 Zn51 1.977 . S
O60 C66 1.272 . S
O61 Zn51 1.910 . S
O61 C67 1.231 . S
C62 O46 1.225 . S
C62 O68 1.298 . S
C63 O52 1.226 . S
C63 O53 1.307 . S
C64 O56 1.303 . S
C64 O57 1.247 . S
C65 O54 1.253 . S
C65 O55 1.283 . S
C66 O58 1.304 . S
C66 O60 1.272 . S
C67 O59 1.311 . S
C67 O61 1.231 . S
O68 Zn50 1.953 . S
O68 C62 1.298 . S
O69 Zn70 1.953 . S
O69 C85 1.225 . S
Zn70 O69 1.953 . S
Zn70 O71 1.949 . S
Zn70 O77 1.919 . S
Zn70 O82 1.924 . S
O71 Zn70 1.949 . S
O71 Zn72 1.923 . S
O71 Zn73 1.950 . S
O71 Zn74 1.945 . S
Zn72 O71 1.923 . S
Zn72 O75 1.933 . S
Zn72 O78 1.941 . S
Zn72 O79 1.965 . S
Zn73 O71 1.950 . S
Zn73 O80 1.938 . S
Zn73 O81 1.906 . S
Zn73 O91 1.953 . S
Zn74 O71 1.945 . S
Zn74 O76 1.932 . S
Zn74 O83 1.977 . S
Zn74 O84 1.910 . S
O75 Zn72 1.933 . S
O75 C86 1.226 . S
O76 Zn74 1.932 . S
O76 C86 1.307 . S
O77 Zn70 1.919 . S
O77 C88 1.253 . S
O78 Zn72 1.941 . S
O78 C88 1.283 . S
O79 Zn72 1.965 . S
O79 C87 1.303 . S
O80 Zn73 1.938 . S
O80 C87 1.247 . S
O81 Zn73 1.906 . S
O81 C89 1.304 . S
O82 Zn70 1.924 . S
O82 C90 1.311 . S
O83 Zn74 1.977 . S
O83 C89 1.272 . S
O84 Zn74 1.910 . S
O84 C90 1.231 . S
C85 O69 1.225 . S
C85 O91 1.298 . S
C86 O75 1.226 . S
C86 O76 1.307 . S
C87 O79 1.303 . S
C87 O80 1.247 . S
C88 O77 1.253 . S
C88 O78 1.283 . S
C89 O81 1.304 . S
C89 O83 1.272 . S
C90 O82 1.311 . S
C90 O84 1.231 . S
O91 Zn73 1.953 . S
O91 C85 1.298 . S
O92 Zn93 1.953 . S
O92 C108 1.225 . S
Zn93 O92 1.953 . S
Zn93 O94 1.949 . S
Zn93 O100 1.919 . S
Zn93 O105 1.924 . S
O94 Zn93 1.949 . S
O94 Zn95 1.923 . S
O94 Zn96 1.950 . S
O94 Zn97 1.945 . S
Zn95 O94 1.923 . S
Zn95 O98 1.933 . S
Zn95 O101 1.941 . S
Zn95 O102 1.965 . S
Zn96 O94 1.950 . S
Zn96 O103 1.938 . S
Zn96 O104 1.906 . S
Zn96 O114 1.953 . S
Zn97 O94 1.945 . S
Zn97 O99 1.932 . S
Zn97 O106 1.977 . S
Zn97 O107 1.910 . S
O98 Zn95 1.933 . S
O98 C109 1.226 . S
O99 Zn97 1.932 . S
O99 C109 1.307 . S
O100 Zn93 1.919 . S
O100 C111 1.253 . S
O101 Zn95 1.941 . S
O101 C111 1.283 . S
O102 Zn95 1.965 . S
O102 C110 1.303 . S
O103 Zn96 1.938 . S
O103 C110 1.247 . S
O104 Zn96 1.906 . S
O104 C112 1.304 . S
O105 Zn93 1.924 . S
O105 C113 1.311 . S
O106 Zn97 1.977 . S
O106 C112 1.272 . S
O107 Zn97 1.910 . S
O107 C113 1.231 . S
C108 O92 1.225 . S
C108 O114 1.298 . S
C109 O98 1.226 . S
C109 O99 1.307 . S
C110 O102 1.303 . S
C110 O103 1.247 . S
C111 O100 1.253 . S
C111 O101 1.283 . S
C112 O104 1.304 . S
C112 O106 1.272 . S
C113 O105 1.311 . S
C113 O107 1.231 . S
O114 Zn96 1.953 . S
O114 C108 1.298 . S
O115 Zn116 1.953 . S
O115 C131 1.225 . S
Zn116 O115 1.953 . S
Zn116 O117 1.949 . S
Zn116 O123 1.919 . S
Zn116 O128 1.924 . S
O117 Zn116 1.949 . S
O117 Zn118 1.923 . S
O117 Zn119 1.950 . S
O117 Zn120 1.945 . S
Zn118 O117 1.923 . S
Zn118 O121 1.933 . S
Zn118 O124 1.941 . S
Zn118 O125 1.965 . S
Zn119 O117 1.950 . S
Zn119 O126 1.938 . S
Zn119 O127 1.906 . S
Zn119 O137 1.953 . S
Zn120 O117 1.945 . S
Zn120 O122 1.932 . S
Zn120 O129 1.977 . S
Zn120 O130 1.910 . S
O121 Zn118 1.933 . S
O121 C132 1.226 . S
O122 Zn120 1.932 . S
O122 C132 1.307 . S
O123 Zn116 1.919 . S
O123 C134 1.253 . S
O124 Zn118 1.941 . S
O124 C134 1.283 . S
O125 Zn118 1.965 . S
O125 C133 1.303 . S
O126 Zn119 1.938 . S
O126 C133 1.247 . S
O127 Zn119 1.906 . S
O127 C135 1.304 . S
O128 Zn116 1.924 . S
O128 C136 1.311 . S
O129 Zn120 1.977 . S
O129 C135 1.272 . S
O130 Zn120 1.910 . S
O130 C136 1.231 . S
C131 O115 1.225 . S
C131 O137 1.298 . S
C132 O121 1.226 . S
C132 O122 1.307 . S
C133 O125 1.303 . S
C133 O126 1.247 . S
C134 O123 1.253 . S
C134 O124 1.283 . S
C135 O127 1.304 . S
C135 O129 1.272 . S
C136 O128 1.311 . S
C136 O130 1.231 . S
O137 Zn119 1.953 . S
O137 C131 1.298 . S
O138 Zn139 1.953 . S
O138 C154 1.225 . S
Zn139 O138 1.953 . S
Zn139 O140 1.949 . S
Zn139 O146 1.919 . S
Zn139 O151 1.924 . S
O140 Zn139 1.949 . S
O140 Zn141 1.923 . S
O140 Zn142 1.950 . S
O140 Zn143 1.945 . S
Zn141 O140 1.923 . S
Zn141 O144 1.933 . S
Zn141 O147 1.941 . S
Zn141 O148 1.965 . S
Zn142 O140 1.950 . S
Zn142 O149 1.938 . S
Zn142 O150 1.906 . S
Zn142 O160 1.953 . S
Zn143 O140 1.945 . S
Zn143 O145 1.932 . S
Zn143 O152 1.977 . S
Zn143 O153 1.910 . S
O144 Zn141 1.933 . S
O144 C155 1.226 . S
O145 Zn143 1.932 . S
O145 C155 1.307 . S
O146 Zn139 1.919 . S
O146 C157 1.253 . S
O147 Zn141 1.941 . S
O147 C157 1.283 . S
O148 Zn141 1.965 . S
O148 C156 1.303 . S
O149 Zn142 1.938 . S
O149 C156 1.247 . S
O150 Zn142 1.906 . S
O150 C158 1.304 . S
O151 Zn139 1.924 . S
O151 C159 1.311 . S
O152 Zn143 1.977 . S
O152 C158 1.272 . S
O153 Zn143 1.910 . S
O153 C159 1.231 . S
C154 O138 1.225 . S
C154 O160 1.298 . S
C155 O144 1.226 . S
C155 O145 1.307 . S
C156 O148 1.303 . S
C156 O149 1.247 . S
C157 O146 1.253 . S
C157 O147 1.283 . S
C158 O150 1.304 . S
C158 O152 1.272 . S
C159 O151 1.311 . S
C159 O153 1.231 . S
O160 Zn142 1.953 . S
O160 C154 1.298 . S
O161 Zn162 1.953 . S
O161 C177 1.225 . S
Zn162 O161 1.953 . S
Zn162 O163 1.949 . S
Zn162 O169 1.919 . S
Zn162 O174 1.924 . S
O163 Zn162 1.949 . S
O163 Zn164 1.923 . S
O163 Zn165 1.950 . S
O163 Zn166 1.945 . S
Zn164 O163 1.923 . S
Zn164 O167 1.933 . S
Zn164 O170 1.941 . S
Zn164 O171 1.965 . S
Zn165 O163 1.950 . S
Zn165 O172 1.938 . S
Zn165 O173 1.906 . S
Zn165 O183 1.953 . S
Zn166 O163 1.945 . S
Zn166 O168 1.932 . S
Zn166 O175 1.977 . S
Zn166 O176 1.910 . S
O167 Zn164 1.933 . S
O167 C178 1.226 . S
O168 Zn166 1.932 . S
O168 C178 1.307 . S
O169 Zn162 1.919 . S
O169 C180 1.253 . S
O170 Zn164 1.941 . S
O170 C180 1.283 . S
O171 Zn164 1.965 . S
O171 C179 1.303 . S
O172 Zn165 1.938 . S
O172 C179 1.247 . S
O173 Zn165 1.906 . S
O173 C181 1.304 . S
O174 Zn162 1.924 . S
O174 C182 1.311 . S
O175 Zn166 1.977 . S
O175 C181 1.272 . S
O176 Zn166 1.910 . S
O176 C182 1.231 . S
C177 O161 1.225 . S
C177 O183 1.298 . S
C178 O167 1.226 . S
C178 O168 1.307 . S
C179 O171 1.303 . S
C179 O172 1.247 . S
C180 O169 1.253 . S
C180 O170 1.283 . S
C181 O173 1.304 . S
C181 O175 1.272 . S
C182 O174 1.311 . S
C182 O176 1.231 . S
O183 Zn165 1.953 . S
O183 C177 1.298 . S
Cd184 N187 2.334 1_655 S
Cd184 N213 2.304 1_565 S
Cd184 O220 2.268 . S
Cd184 O223 2.273 1_665 S
Cd184 O224 2.417 . S
Cd184 O225 2.330 . S
Cd185 N200 2.304 1_455 S
Cd185 N204 2.334 1_545 S
Cd185 O221 2.273 1_445 S
Cd185 O222 2.268 . S
Cd185 O226 2.417 . S
Cd185 O227 2.330 . S
C186 N187 1.332 . S
C186 C190 1.381 . S
C186 H192 0.931 . S
N187 Cd184 2.334 1_455 S
N187 C186 1.332 . S
N187 C191 1.328 . S
C188 C189 1.396 . S
C188 C191 1.378 . S
C188 H230 0.931 . S
C189 C188 1.396 . S
C189 C190 1.382 . S
C190 C186 1.381 . S
C190 C189 1.382 . S
C190 H231 0.930 . S
C191 N187 1.328 . S
C191 C188 1.378 . S
C191 H193 0.930 . S
H192 C186 0.931 . S
H193 C191 0.930 . S
C194 O220 1.238 . S
C194 O221 1.253 . S
C195 C196 1.379 . S
C195 N200 1.337 . S
C195 H201 0.929 . S
C196 C195 1.379 . S
C196 C197 1.380 . S
C196 H232 0.929 . S
C197 C196 1.380 . S
C197 C198 1.399 . S
C198 C197 1.399 . S
C198 C199 1.376 . S
C198 H233 0.931 . S
C199 C198 1.376 . S
C199 N200 1.338 . S
C199 H202 0.930 1_655 S
N200 Cd185 2.304 1_655 S
N200 C195 1.337 . S
N200 C199 1.338 . S
H201 C195 0.929 . S
H202 C199 0.930 1_455 S
C203 N204 1.332 . S
C203 C207 1.381 . S
C203 H209 0.931 . S
N204 Cd185 2.334 1_565 S
N204 C203 1.332 . S
N204 C208 1.328 . S
C205 C206 1.396 . S
C205 C208 1.378 . S
C205 H234 0.931 . S
C206 C205 1.396 . S
C206 C207 1.382 . S
C207 C203 1.381 . S
C207 C206 1.382 . S
C207 H235 0.930 . S
C208 N204 1.328 . S
C208 C205 1.378 . S
C208 H210 0.930 1_565 S
H209 C203 0.931 . S
H210 C208 0.930 1_545 S
C211 O222 1.238 . S
C211 O223 1.253 . S
C212 O224 1.239 . S
C212 O225 1.230 . S
N213 Cd184 2.304 1_545 S
N213 C214 1.337 . S
N213 C218 1.338 . S
C214 N213 1.337 . S
C214 C215 1.379 . S
C214 H228 0.929 . S
C215 C214 1.379 . S
C215 C216 1.380 . S
C215 H236 0.929 . S
C216 C215 1.380 . S
C216 C217 1.399 . S
C217 C216 1.399 . S
C217 C218 1.376 . S
C217 H237 0.931 . S
C218 N213 1.338 . S
C218 C217 1.376 . S
C218 H229 0.930 . S
C219 O226 1.239 . S
C219 O227 1.230 . S
O220 Cd184 2.268 . S
O220 C194 1.238 . S
O221 Cd185 2.273 1_665 S
O221 C194 1.253 . S
O222 Cd185 2.268 . S
O222 C211 1.238 . S
O223 Cd184 2.273 1_445 S
O223 C211 1.253 . S
O224 Cd184 2.417 . S
O224 C212 1.239 . S
O225 Cd184 2.330 . S
O225 C212 1.230 . S
O226 Cd185 2.417 . S
O226 C219 1.239 . S
O227 Cd185 2.330 . S
O227 C219 1.230 . S
H228 C214 0.929 . S
H229 C218 0.930 . S
H230 C188 0.931 . S
H231 C190 0.930 . S
H232 C196 0.929 . S
H233 C198 0.931 . S
H234 C205 0.931 . S
H235 C207 0.930 . S
H236 C215 0.929 . S
H237 C217 0.931 . S
Cd238 N241 2.334 . S
Cd238 N267 2.304 1_565 S
Cd238 O274 2.268 1_554 S
Cd238 O277 2.273 1_565 S
Cd238 O278 2.417 . S
Cd238 O279 2.330 . S
Cd239 N254 2.304 . S
Cd239 N258 2.334 1_545 S
Cd239 O275 2.273 1_545 S
Cd239 O276 2.268 1_556 S
Cd239 O280 2.417 . S
Cd239 O281 2.330 . S
C240 N241 1.332 . S
C240 C244 1.381 . S
C240 H246 0.931 . S
N241 Cd238 2.334 . S
N241 C240 1.332 . S
N241 C245 1.328 . S
C242 C243 1.396 . S
C242 C245 1.378 . S
C242 H284 0.931 . S
C243 C242 1.396 . S
C243 C244 1.382 . S
C244 C240 1.381 . S
C244 C243 1.382 . S
C244 H285 0.930 . S
C245 N241 1.328 . S
C245 C242 1.378 . S
C245 H247 0.930 . S
H246 C240 0.931 . S
H247 C245 0.930 . S
C248 O274 1.238 . S
C248 O275 1.253 . S
C249 C250 1.379 . S
C249 N254 1.337 . S
C249 H255 0.929 . S
C250 C249 1.379 . S
C250 C251 1.380 . S
C250 H286 0.929 . S
C251 C250 1.380 . S
C251 C252 1.399 1_556 S
C252 C251 1.399 1_554 S
C252 C253 1.376 . S
C252 H287 0.931 . S
C253 C252 1.376 . S
C253 N254 1.338 1_554 S
C253 H256 0.930 . S
N254 Cd239 2.304 . S
N254 C249 1.337 . S
N254 C253 1.338 1_556 S
H255 C249 0.929 . S
H256 C253 0.930 . S
C257 N258 1.332 . S
C257 C261 1.381 . S
C257 H263 0.931 . S
N258 Cd239 2.334 1_565 S
N258 C257 1.332 . S
N258 C262 1.328 . S
C259 C260 1.382 1_554 S
C259 C262 1.378 1_554 S
C259 H288 0.946 . S
C260 C259 1.382 1_556 S
C260 C261 1.382 . S
C261 C257 1.381 . S
C261 C260 1.382 . S
C261 H289 0.930 . S
C262 N258 1.328 . S
C262 C259 1.378 1_556 S
C262 H264 0.930 1_566 S
H263 C257 0.931 . S
H264 C262 0.930 1_544 S
C265 O276 1.238 . S
C265 O277 1.253 . S
C266 O278 1.239 . S
C266 O279 1.230 . S
N267 Cd238 2.304 1_545 S
N267 C268 1.337 . S
N267 C272 1.338 . S
C268 N267 1.337 . S
C268 C269 1.379 . S
C268 H282 0.929 . S
C269 C268 1.379 . S
C269 C270 1.380 . S
C269 H290 0.929 . S
C270 C269 1.380 . S
C270 C271 1.399 . S
C271 C270 1.399 . S
C271 C272 1.376 . S
C271 H291 0.931 . S
C272 N267 1.338 . S
C272 C271 1.376 . S
C272 H283 0.930 . S
C273 O280 1.239 . S
C273 O281 1.230 . S
O274 Cd238 2.268 1_556 S
O274 C248 1.238 . S
O275 Cd239 2.273 1_565 S
O275 C248 1.253 . S
O276 Cd239 2.268 1_554 S
O276 C265 1.238 . S
O277 Cd238 2.273 1_545 S
O277 C265 1.253 . S
O278 Cd238 2.417 . S
O278 C266 1.239 . S
O279 Cd238 2.330 . S
O279 C266 1.230 . S
O280 Cd239 2.417 . S
O280 C273 1.239 . S
O281 Cd239 2.330 . S
O281 C273 1.230 . S
H282 C268 0.929 . S
H283 C272 0.930 . S
H284 C242 0.931 . S
H285 C244 0.930 . S
H286 C250 0.929 . S
H287 C252 0.931 . S
H288 C259 0.946 . S
H289 C261 0.930 . S
H290 C269 0.929 . S
H291 C271 0.931 . S
Cd292 N295 2.334 1_655 S
Cd292 N321 2.304 . S
Cd292 O328 2.268 1_554 S
Cd292 O331 2.273 1_655 S
Cd292 O332 2.417 . S
Cd292 O333 2.330 . S
Cd293 N308 2.304 1_455 S
Cd293 N312 2.334 . S
Cd293 O329 2.273 1_455 S
Cd293 O330 2.268 1_556 S
Cd293 O334 2.417 . S
Cd293 O335 2.330 . S
C294 N295 1.332 . S
C294 C298 1.381 . S
C294 H300 0.931 . S
N295 Cd292 2.334 1_455 S
N295 C294 1.332 . S
N295 C299 1.328 . S
C296 C297 1.396 . S
C296 C299 1.378 . S
C296 H338 0.914 1_554 S
C297 C296 1.396 . S
C297 C298 1.382 . S
C298 C294 1.381 . S
C298 C297 1.382 . S
C298 H339 0.930 . S
C299 N295 1.328 . S
C299 C296 1.378 . S
C299 H301 0.930 . S
H300 C294 0.931 . S
H301 C299 0.930 . S
C302 O328 1.238 . S
C302 O329 1.253 . S
C303 C304 1.379 . S
C303 N308 1.337 . S
C303 H309 0.929 . S
C304 C303 1.379 . S
C304 C305 1.380 . S
C304 H340 0.929 . S
C305 C304 1.380 . S
C305 C306 1.399 . S
C306 C305 1.399 . S
C306 C307 1.351 1_655 S
C306 H341 0.931 1_556 S
C307 C306 1.351 1_455 S
C307 N308 1.343 1_455 S
C307 H310 0.952 1_556 S
N308 Cd293 2.304 1_655 S
N308 C303 1.337 . S
N308 C307 1.343 1_655 S
H309 C303 0.929 . S
H310 C307 0.952 1_554 S
C311 N312 1.332 . S
C311 C315 1.381 . S
C311 H317 0.931 . S
N312 Cd293 2.334 . S
N312 C311 1.332 . S
N312 C316 1.328 . S
C313 C314 1.396 . S
C313 C316 1.378 . S
C313 H342 0.931 1_556 S
C314 C313 1.396 . S
C314 C315 1.382 . S
C315 C311 1.381 . S
C315 C314 1.382 . S
C315 H343 0.930 . S
C316 N312 1.328 . S
C316 C313 1.378 . S
C316 H318 0.930 1_556 S
H317 C311 0.931 . S
H318 C316 0.930 1_554 S
C319 O330 1.238 . S
C319 O331 1.253 . S
C320 O332 1.239 . S
C320 O333 1.230 . S
N321 Cd292 2.304 . S
N321 C322 1.337 . S
N321 C326 1.338 . S
C322 N321 1.337 . S
C322 C323 1.379 . S
C322 H336 0.929 . S
C323 C322 1.379 . S
C323 C324 1.380 . S
C323 H344 0.929 . S
C324 C323 1.380 . S
C324 C325 1.399 . S
C325 C324 1.399 . S
C325 C326 1.376 . S
C325 H345 0.931 1_554 S
C326 N321 1.338 . S
C326 C325 1.376 . S
C326 H337 0.930 1_554 S
C327 O334 1.239 . S
C327 O335 1.230 . S
O328 Cd292 2.268 1_556 S
O328 C302 1.238 . S
O329 Cd293 2.273 1_655 S
O329 C302 1.253 . S
O330 Cd293 2.268 1_554 S
O330 C319 1.238 . S
O331 Cd292 2.273 1_455 S
O331 C319 1.253 . S
O332 Cd292 2.417 . S
O332 C320 1.239 . S
O333 Cd292 2.330 . S
O333 C320 1.230 . S
O334 Cd293 2.417 . S
O334 C327 1.239 . S
O335 Cd293 2.330 . S
O335 C327 1.230 . S
H336 C322 0.929 . S
H337 C326 0.930 1_556 S
H338 C296 0.914 1_556 S
H339 C298 0.930 . S
H340 C304 0.929 . S
H341 C306 0.931 1_554 S
H342 C313 0.931 1_554 S
H343 C315 0.930 . S
H344 C323 0.929 . S
H345 C325 0.931 1_556 S
Cd346 N349 2.334 . S
Cd346 N375 2.304 . S
Cd346 O382 2.268 1_554 S
Cd346 O385 2.273 . S
Cd346 O386 2.417 . S
Cd346 O387 2.330 . S
Cd347 N362 2.304 . S
Cd347 N366 2.334 . S
Cd347 O383 2.273 . S
Cd347 O384 2.268 1_556 S
Cd347 O388 2.417 . S
Cd347 O389 2.330 . S
C348 N349 1.332 . S
C348 C352 1.381 . S
C348 H354 0.931 . S
N349 Cd346 2.334 . S
N349 C348 1.332 . S
N349 C353 1.328 . S
C350 C351 1.396 . S
C350 C353 1.378 . S
C350 H392 0.931 . S
C351 C350 1.396 . S
C351 C352 1.382 . S
C352 C348 1.381 . S
C352 C351 1.382 . S
C352 H393 0.930 . S
C353 N349 1.328 . S
C353 C350 1.378 . S
C353 H355 0.930 . S
H354 C348 0.931 . S
H355 C353 0.930 . S
C356 O382 1.238 . S
C356 O383 1.253 . S
C357 C358 1.379 . S
C357 N362 1.337 . S
C357 H363 0.929 . S
C358 C357 1.379 . S
C358 C359 1.380 . S
C358 H394 0.929 . S
C359 C358 1.380 . S
C359 C360 1.401 . S
C360 C359 1.401 . S
C360 C361 1.376 . S
C360 H395 0.928 1_556 S
C361 C360 1.376 . S
C361 N362 1.356 . S
C361 H364 0.912 1_556 S
N362 Cd347 2.304 . S
N362 C357 1.337 . S
N362 C361 1.356 . S
H363 C357 0.929 . S
H364 C361 0.912 1_554 S
C365 N366 1.332 . S
C365 C369 1.381 . S
C365 H371 0.931 . S
N366 Cd347 2.334 . S
N366 C365 1.332 . S
N366 C370 1.328 . S
C367 C368 1.396 . S
C367 C370 1.378 . S
C367 H396 0.931 1_556 S
C368 C367 1.396 . S
C368 C369 1.382 . S
C369 C365 1.381 . S
C369 C368 1.382 . S
C369 H397 0.930 . S
C370 N366 1.328 . S
C370 C367 1.378 . S
C370 H372 0.930 1_556 S
H371 C365 0.931 . S
H372 C370 0.930 1_554 S
C373 O384 1.238 . S
C373 O385 1.253 . S
C374 O386 1.239 . S
C374 O387 1.230 . S
N375 Cd346 2.304 . S
N375 C376 1.337 . S
N375 C380 1.338 . S
C376 N375 1.337 . S
C376 C377 1.379 . S
C376 H390 0.929 . S
C377 C376 1.379 . S
C377 C378 1.380 . S
C377 H398 0.929 . S
C378 C377 1.380 . S
C378 C379 1.399 . S
C379 C378 1.399 . S
C379 C380 1.376 . S
C379 H399 0.931 . S
C380 N375 1.338 . S
C380 C379 1.376 . S
C380 H391 0.930 . S
C381 O388 1.239 . S
C381 O389 1.230 . S
O382 Cd346 2.268 1_556 S
O382 C356 1.238 . S
O383 Cd347 2.273 . S
O383 C356 1.253 . S
O384 Cd347 2.268 1_554 S
O384 C373 1.238 . S
O385 Cd346 2.273 . S
O385 C373 1.253 . S
O386 Cd346 2.417 . S
O386 C374 1.239 . S
O387 Cd346 2.330 . S
O387 C374 1.230 . S
O388 Cd347 2.417 . S
O388 C381 1.239 . S
O389 Cd347 2.330 . S
O389 C381 1.230 . S
H390 C376 0.929 . S
H391 C380 0.930 . S
H392 C350 0.931 . S
H393 C352 0.930 . S
H394 C358 0.929 . S
H395 C360 0.928 1_554 S
H396 C367 0.931 1_554 S
H397 C369 0.930 . S
H398 C377 0.929 . S
H399 C379 0.931 . S
Cd400 N403 2.334 1_655 S
Cd400 N429 2.304 . S
Cd400 O436 2.268 . S
Cd400 O439 2.273 1_655 S
Cd400 O440 2.417 . S
Cd400 O441 2.330 . S
Cd401 N416 2.304 1_455 S
Cd401 N420 2.334 . S
Cd401 O437 2.273 1_455 S
Cd401 O438 2.268 . S
Cd401 O442 2.417 . S
Cd401 O443 2.330 . S
C402 N403 1.332 . S
C402 C406 1.381 . S
C402 H408 0.931 . S
N403 Cd400 2.334 1_455 S
N403 C402 1.332 . S
N403 C407 1.328 . S
C404 C405 1.396 . S
C404 C407 1.378 . S
C404 H446 0.931 . S
C405 C404 1.396 . S
C405 C406 1.382 . S
C406 C402 1.381 . S
C406 C405 1.382 . S
C406 H447 0.930 . S
C407 N403 1.328 . S
C407 C404 1.378 . S
C407 H409 0.930 . S
H408 C402 0.931 . S
H409 C407 0.930 . S
C410 O436 1.238 . S
C410 O437 1.253 . S
C411 C412 1.379 . S
C411 N416 1.337 . S
C411 H417 0.929 . S
C412 C411 1.379 . S
C412 C413 1.380 . S
C412 H448 0.929 . S
C413 C412 1.380 . S
C413 C414 1.399 . S
C414 C413 1.399 . S
C414 C415 1.376 . S
C414 H449 0.931 . S
C415 C414 1.376 . S
C415 N416 1.338 . S
C415 H418 0.930 1_655 S
N416 Cd401 2.304 1_655 S
N416 C411 1.337 . S
N416 C415 1.338 . S
H417 C411 0.929 . S
H418 C415 0.930 1_455 S
C419 N420 1.332 . S
C419 C423 1.381 . S
C419 H425 0.931 . S
N420 Cd401 2.334 . S
N420 C419 1.332 . S
N420 C424 1.328 . S
C421 C422 1.396 . S
C421 C424 1.378 . S
C421 H450 0.931 . S
C422 C421 1.396 . S
C422 C423 1.382 . S
C423 C419 1.381 . S
C423 C422 1.382 . S
C423 H451 0.930 . S
C424 N420 1.328 . S
C424 C421 1.378 . S
C424 H426 0.930 . S
H425 C419 0.931 . S
H426 C424 0.930 . S
C427 O438 1.238 . S
C427 O439 1.253 . S
C428 O440 1.239 . S
C428 O441 1.230 . S
N429 Cd400 2.304 . S
N429 C430 1.337 . S
N429 C434 1.338 . S
C430 N429 1.337 . S
C430 C431 1.379 . S
C430 H444 0.929 . S
C431 C430 1.379 . S
C431 C432 1.380 . S
C431 H452 0.929 . S
C432 C431 1.380 . S
C432 C433 1.399 . S
C433 C432 1.399 . S
C433 C434 1.376 . S
C433 H453 0.931 . S
C434 N429 1.338 . S
C434 C433 1.376 . S
C434 H445 0.930 . S
C435 O442 1.239 . S
C435 O443 1.230 . S
O436 Cd400 2.268 . S
O436 C410 1.238 . S
O437 Cd401 2.273 1_655 S
O437 C410 1.253 . S
O438 Cd401 2.268 . S
O438 C427 1.238 . S
O439 Cd400 2.273 1_455 S
O439 C427 1.253 . S
O440 Cd400 2.417 . S
O440 C428 1.239 . S
O441 Cd400 2.330 . S
O441 C428 1.230 . S
O442 Cd401 2.417 . S
O442 C435 1.239 . S
O443 Cd401 2.330 . S
O443 C435 1.230 . S
H444 C430 0.929 . S
H445 C434 0.930 . S
H446 C404 0.931 . S
H447 C406 0.930 . S
H448 C412 0.929 . S
H449 C414 0.931 . S
H450 C421 0.931 . S
H451 C423 0.930 . S
H452 C431 0.929 . S
H453 C433 0.931 . S
Cd454 N457 2.334 . S
Cd454 N483 2.304 1_565 S
Cd454 O490 2.268 . S
Cd454 O493 2.273 1_565 S
Cd454 O494 2.417 . S
Cd454 O495 2.330 . S
Cd455 N470 2.304 . S
Cd455 N474 2.334 1_545 S
Cd455 O491 2.273 1_545 S
Cd455 O492 2.268 . S
Cd455 O496 2.417 . S
Cd455 O497 2.330 . S
C456 N457 1.332 . S
C456 C460 1.381 . S
C456 H462 0.931 . S
N457 Cd454 2.334 . S
N457 C456 1.332 . S
N457 C461 1.328 . S
C458 C459 1.396 . S
C458 C461 1.378 . S
C458 H500 0.931 . S
C459 C458 1.396 . S
C459 C460 1.382 . S
C460 C456 1.381 . S
C460 C459 1.382 . S
C460 H501 0.930 . S
C461 N457 1.328 . S
C461 C458 1.378 . S
C461 H463 0.930 . S
H462 C456 0.931 . S
H463 C461 0.930 . S
C464 O490 1.238 . S
C464 O491 1.253 . S
C465 C466 1.379 . S
C465 N470 1.337 . S
C465 H471 0.929 . S
C466 C465 1.379 . S
C466 C467 1.380 . S
C466 H502 0.929 . S
C467 C466 1.380 . S
C467 C468 1.399 . S
C468 C467 1.399 . S
C468 C469 1.376 . S
C468 H503 0.931 . S
C469 C468 1.376 . S
C469 N470 1.338 . S
C469 H472 0.930 . S
N470 Cd455 2.304 . S
N470 C465 1.337 . S
N470 C469 1.338 . S
H471 C465 0.929 . S
H472 C469 0.930 . S
C473 N474 1.332 . S
C473 C477 1.381 . S
C473 H479 0.931 . S
N474 Cd455 2.334 1_565 S
N474 C473 1.332 . S
N474 C478 1.334 1_565 S
C475 C476 1.396 . S
C475 C478 1.343 1_565 S
C475 H504 0.931 . S
C476 C475 1.396 . S
C476 C477 1.382 . S
C477 C473 1.381 . S
C477 C476 1.382 . S
C477 H505 0.930 . S
C478 N474 1.334 1_545 S
C478 C475 1.343 1_545 S
C478 H480 0.962 . S
H479 C473 0.931 . S
H480 C478 0.962 . S
C481 O492 1.238 . S
C481 O493 1.253 . S
C482 O494 1.239 . S
C482 O495 1.230 . S
N483 Cd454 2.304 1_545 S
N483 C484 1.337 . S
N483 C488 1.338 . S
C484 N483 1.337 . S
C484 C485 1.379 . S
C484 H498 0.929 . S
C485 C484 1.379 . S
C485 C486 1.380 . S
C485 H506 0.929 . S
C486 C485 1.380 . S
C486 C487 1.399 . S
C487 C486 1.399 . S
C487 C488 1.376 . S
C487 H507 0.931 . S
C488 N483 1.338 . S
C488 C487 1.376 . S
C488 H499 0.930 . S
C489 O496 1.239 . S
C489 O497 1.230 . S
O490 Cd454 2.268 . S
O490 C464 1.238 . S
O491 Cd455 2.273 1_565 S
O491 C464 1.253 . S
O492 Cd455 2.268 . S
O492 C481 1.238 . S
O493 Cd454 2.273 1_545 S
O493 C481 1.253 . S
O494 Cd454 2.417 . S
O494 C482 1.239 . S
O495 Cd454 2.330 . S
O495 C482 1.230 . S
O496 Cd455 2.417 . S
O496 C489 1.239 . S
O497 Cd455 2.330 . S
O497 C489 1.230 . S
H498 C484 0.929 . S
H499 C488 0.930 . S
H500 C458 0.931 . S
H501 C460 0.930 . S
H502 C466 0.929 . S
H503 C468 0.931 . S
H504 C475 0.931 . S
H505 C477 0.930 . S
H506 C485 0.929 . S
H507 C487 0.931 . S
H508 C526 0.951 . S
H509 C528 0.951 . S
H510 C530 0.950 . S
H511 C531 0.950 . S
H512 C533 0.950 . S
H513 C536 0.950 . S
H514 C537 0.950 . S
H515 C539 0.950 . S
H516 C540 0.950 . S
H517 C541 0.951 . S
H518 C543 0.951 . S
H519 C545 0.950 . S
H520 C546 0.950 . S
H521 C548 0.950 . S
H522 C551 0.950 . S
H523 C552 0.950 . S
H524 C554 0.950 . S
H525 C555 0.950 . S
C526 H508 0.951 . S
C526 C527 1.366 . S
C526 C528 1.388 . S
C527 C526 1.366 . S
C527 C531 1.385 . S
C528 H509 0.951 . S
C528 C526 1.388 . S
C528 C529 1.366 . S
C529 C528 1.366 . S
C529 C530 1.414 . S
C529 C532 1.499 . S
C530 H510 0.950 . S
C530 C529 1.414 . S
C530 C531 1.374 . S
C531 H511 0.950 . S
C531 C527 1.385 . S
C531 C530 1.374 . S
C532 C529 1.499 . S
C532 C533 1.373 . S
C532 C534 1.389 . S
C533 H512 0.950 . S
C533 C532 1.373 . S
C533 C549 1.377 . S
C534 C532 1.389 . S
C534 C535 1.524 . S
C534 C548 1.377 . S
C535 C534 1.524 . S
C535 C536 1.397 . S
C535 C540 1.363 . S
C536 H513 0.950 . S
C536 C535 1.397 . S
C536 C537 1.334 . S
C537 H514 0.950 . S
C537 C536 1.334 . S
C537 C538 1.287 . S
C538 C537 1.287 . S
C538 C539 1.524 . S
C538 H557 0.913 . S
C539 H515 0.950 . S
C539 C538 1.524 . S
C539 C540 1.415 . S
C540 H516 0.950 . S
C540 C535 1.363 . S
C540 C539 1.415 . S
C541 H517 0.951 . S
C541 C542 1.366 . S
C541 C543 1.388 . S
C542 C541 1.366 . S
C542 C546 1.385 . S
C543 H518 0.951 . S
C543 C541 1.388 . S
C543 C544 1.366 . S
C544 C543 1.366 . S
C544 C545 1.414 . S
C544 C547 1.499 . S
C545 H519 0.950 . S
C545 C544 1.414 . S
C545 C546 1.374 . S
C546 H520 0.950 . S
C546 C542 1.385 . S
C546 C545 1.374 . S
C547 C544 1.499 . S
C547 C548 1.373 . S
C547 C549 1.389 . S
C548 H521 0.950 . S
C548 C534 1.377 . S
C548 C547 1.373 . S
C549 C533 1.377 . S
C549 C547 1.389 . S
C549 C550 1.524 . S
C550 C549 1.524 . S
C550 C551 1.397 . S
C550 C555 1.363 . S
C551 H522 0.950 . S
C551 C550 1.397 . S
C551 C552 1.334 . S
C552 H523 0.950 . S
C552 C551 1.334 . S
C552 C553 1.287 . S
C553 C552 1.287 . S
C553 C554 1.524 . S
C553 H556 0.999 . S
C554 H524 0.950 . S
C554 C553 1.524 . S
C554 C555 1.415 . S
C555 H525 0.950 . S
C555 C550 1.363 . S
C555 C554 1.415 . S
H556 C553 0.999 . S
H557 C538 0.913 . S
H558 C576 0.951 . S
H559 C578 0.951 . S
H560 C580 0.950 . S
H561 C581 0.950 . S
H562 C583 0.950 . S
H563 C586 0.950 . S
H564 C587 0.950 . S
H565 C589 0.950 . S
H566 C590 0.950 . S
H567 C591 0.951 . S
H568 C593 0.951 . S
H569 C595 0.950 . S
H570 C596 0.950 . S
H571 C598 0.950 . S
H572 C601 0.950 . S
H573 C602 0.950 . S
H574 C604 0.950 . S
H575 C605 0.950 . S
C576 H558 0.951 . S
C576 C577 1.366 . S
C576 C578 1.388 . S
C577 C576 1.366 . S
C577 C581 1.385 . S
C578 H559 0.951 . S
C578 C576 1.388 . S
C578 C579 1.366 . S
C579 C578 1.366 . S
C579 C580 1.414 . S
C579 C582 1.499 . S
C580 H560 0.950 . S
C580 C579 1.414 . S
C580 C581 1.374 . S
C581 H561 0.950 . S
C581 C577 1.385 . S
C581 C580 1.374 . S
C582 C579 1.499 . S
C582 C583 1.373 . S
C582 C584 1.389 . S
C583 H562 0.950 . S
C583 C582 1.373 . S
C583 C599 1.377 . S
C584 C582 1.389 . S
C584 C585 1.524 . S
C584 C598 1.377 . S
C585 C584 1.524 . S
C585 C586 1.397 . S
C585 C590 1.363 . S
C586 H563 0.950 . S
C586 C585 1.397 . S
C586 C587 1.334 . S
C587 H564 0.950 . S
C587 C586 1.334 . S
C587 C588 1.287 . S
C588 C587 1.287 . S
C588 C589 1.524 . S
C588 H607 0.913 . S
C589 H565 0.950 . S
C589 C588 1.524 . S
C589 C590 1.415 . S
C590 H566 0.950 . S
C590 C585 1.363 . S
C590 C589 1.415 . S
C591 H567 0.951 . S
C591 C592 1.366 . S
C591 C593 1.388 . S
C592 C591 1.366 . S
C592 C596 1.385 . S
C593 H568 0.951 . S
C593 C591 1.388 . S
C593 C594 1.366 . S
C594 C593 1.366 . S
C594 C595 1.414 . S
C594 C597 1.499 . S
C595 H569 0.950 . S
C595 C594 1.414 . S
C595 C596 1.374 . S
C596 H570 0.950 . S
C596 C592 1.385 . S
C596 C595 1.374 . S
C597 C594 1.499 . S
C597 C598 1.373 . S
C597 C599 1.389 . S
C598 H571 0.950 . S
C598 C584 1.377 . S
C598 C597 1.373 . S
C599 C583 1.377 . S
C599 C597 1.389 . S
C599 C600 1.524 . S
C600 C599 1.524 . S
C600 C601 1.397 . S
C600 C605 1.363 . S
C601 H572 0.950 . S
C601 C600 1.397 . S
C601 C602 1.334 . S
C602 H573 0.950 . S
C602 C601 1.334 . S
C602 C603 1.287 . S
C603 C602 1.287 . S
C603 C604 1.524 . S
C603 H606 0.999 . S
C604 H574 0.950 . S
C604 C603 1.524 . S
C604 C605 1.415 . S
C605 H575 0.950 . S
C605 C600 1.363 . S
C605 C604 1.415 . S
H606 C603 0.999 . S
H607 C588 0.913 . S
H608 C626 0.951 . S
H609 C628 0.951 . S
H610 C630 0.950 . S
H611 C631 0.950 . S
H612 C633 0.950 . S
H613 C636 0.950 . S
H614 C637 0.950 . S
H615 C639 0.950 . S
H616 C640 0.950 . S
H617 C641 0.951 . S
H618 C643 0.951 . S
H619 C645 0.950 . S
H620 C646 0.950 . S
H621 C648 0.950 . S
H622 C651 0.950 . S
H623 C652 0.950 1_545 S
H624 C654 0.950 . S
H625 C655 0.950 . S
C626 H608 0.951 . S
C626 C627 1.366 . S
C626 C628 1.388 . S
C627 C626 1.366 . S
C627 C631 1.385 . S
C628 H609 0.951 . S
C628 C626 1.388 . S
C628 C629 1.366 . S
C629 C628 1.366 . S
C629 C630 1.414 . S
C629 C632 1.499 . S
C630 H610 0.950 . S
C630 C629 1.414 . S
C630 C631 1.374 . S
C631 H611 0.950 . S
C631 C627 1.385 . S
C631 C630 1.374 . S
C632 C629 1.499 . S
C632 C633 1.373 . S
C632 C634 1.389 . S
C633 H612 0.950 . S
C633 C632 1.373 . S
C633 C649 1.377 . S
C634 C632 1.389 . S
C634 C635 1.524 . S
C634 C648 1.377 . S
C635 C634 1.524 . S
C635 C636 1.397 . S
C635 C640 1.363 . S
C636 H613 0.950 . S
C636 C635 1.397 . S
C636 C637 1.334 . S
C637 H614 0.950 . S
C637 C636 1.334 . S
C637 C638 1.287 . S
C638 C637 1.287 . S
C638 C639 1.524 . S
C638 H657 0.913 . S
C639 H615 0.950 . S
C639 C638 1.524 . S
C639 C640 1.415 . S
C640 H616 0.950 . S
C640 C635 1.363 . S
C640 C639 1.415 . S
C641 H617 0.951 . S
C641 C642 1.366 . S
C641 C643 1.388 . S
C642 C641 1.366 . S
C642 C646 1.385 . S
C643 H618 0.951 . S
C643 C641 1.388 . S
C643 C644 1.366 . S
C644 C643 1.366 . S
C644 C645 1.414 . S
C644 C647 1.499 . S
C645 H619 0.950 . S
C645 C644 1.414 . S
C645 C646 1.374 . S
C646 H620 0.950 . S
C646 C642 1.385 . S
C646 C645 1.374 . S
C647 C644 1.499 . S
C647 C648 1.373 . S
C647 C649 1.389 . S
C648 H621 0.950 . S
C648 C634 1.377 . S
C648 C647 1.373 . S
C649 C633 1.377 . S
C649 C647 1.389 . S
C649 C650 1.524 . S
C650 C649 1.524 . S
C650 C651 1.397 . S
C650 C655 1.363 . S
C651 H622 0.950 . S
C651 C650 1.397 . S
C651 C652 1.334 . S
C652 H623 0.950 1_565 S
C652 C651 1.334 . S
C652 C653 1.287 . S
C653 C652 1.287 . S
C653 C654 1.524 . S
C653 H656 0.999 1_565 S
C654 H624 0.950 . S
C654 C653 1.524 . S
C654 C655 1.415 . S
C655 H625 0.950 . S
C655 C650 1.363 . S
C655 C654 1.415 . S
H656 C653 0.999 1_545 S
H657 C638 0.913 . S
H658 C676 0.951 . S
H659 C678 0.951 . S
H660 C680 0.950 . S
H661 C681 0.950 . S
H662 C683 0.950 . S
H663 C686 0.950 . S
H664 C687 0.950 . S
H665 C689 0.950 . S
H666 C690 0.950 . S
H667 C691 0.951 . S
H668 C693 0.951 . S
H669 C695 0.950 . S
H670 C696 0.950 . S
H671 C698 0.950 . S
H672 C701 0.950 . S
H673 C702 0.950 . S
H674 C704 0.950 . S
H675 C705 0.950 . S
C676 H658 0.951 . S
C676 C677 1.366 . S
C676 C678 1.388 . S
C677 C676 1.366 . S
C677 C681 1.385 . S
C678 H659 0.951 . S
C678 C676 1.388 . S
C678 C679 1.366 . S
C679 C678 1.366 . S
C679 C680 1.414 . S
C679 C682 1.499 . S
C680 H660 0.950 . S
C680 C679 1.414 . S
C680 C681 1.374 . S
C681 H661 0.950 . S
C681 C677 1.385 . S
C681 C680 1.374 . S
C682 C679 1.499 . S
C682 C683 1.373 . S
C682 C684 1.389 . S
C683 H662 0.950 . S
C683 C682 1.373 . S
C683 C699 1.377 . S
C684 C682 1.389 . S
C684 C685 1.524 . S
C684 C698 1.377 . S
C685 C684 1.524 . S
C685 C686 1.397 . S
C685 C690 1.363 . S
C686 H663 0.950 . S
C686 C685 1.397 . S
C686 C687 1.334 . S
C687 H664 0.950 . S
C687 C686 1.334 . S
C687 C688 1.287 . S
C688 C687 1.287 . S
C688 C689 1.524 . S
C688 H707 0.913 . S
C689 H665 0.950 . S
C689 C688 1.524 . S
C689 C690 1.415 . S
C690 H666 0.950 . S
C690 C685 1.363 . S
C690 C689 1.415 . S
C691 H667 0.951 . S
C691 C692 1.366 . S
C691 C693 1.388 . S
C692 C691 1.366 . S
C692 C696 1.385 . S
C693 H668 0.951 . S
C693 C691 1.388 . S
C693 C694 1.366 . S
C694 C693 1.366 . S
C694 C695 1.414 . S
C694 C697 1.499 . S
C695 H669 0.950 . S
C695 C694 1.414 . S
C695 C696 1.374 . S
C696 H670 0.950 . S
C696 C692 1.385 . S
C696 C695 1.374 . S
C697 C694 1.499 . S
C697 C698 1.373 . S
C697 C699 1.389 . S
C698 H671 0.950 . S
C698 C684 1.377 . S
C698 C697 1.373 . S
C699 C683 1.377 . S
C699 C697 1.389 . S
C699 C700 1.524 . S
C700 C699 1.524 . S
C700 C701 1.397 . S
C700 C705 1.363 . S
C701 H672 0.950 . S
C701 C700 1.397 . S
C701 C702 1.334 . S
C702 H673 0.950 . S
C702 C701 1.334 . S
C702 C703 1.287 . S
C703 C702 1.287 . S
C703 C704 1.524 . S
C703 H706 0.999 . S
C704 H674 0.950 . S
C704 C703 1.524 . S
C704 C705 1.415 . S
C705 H675 0.950 . S
C705 C700 1.363 . S
C705 C704 1.415 . S
H706 C703 0.999 . S
H707 C688 0.913 . S
H708 C726 0.951 . S
H709 C728 0.951 . S
H710 C730 0.950 . S
H711 C731 0.950 . S
H712 C733 0.950 . S
H713 C736 0.950 . S
H714 C737 0.950 . S
H715 C739 0.950 . S
H716 C740 0.950 . S
H717 C741 0.951 . S
H718 C743 0.951 . S
H719 C745 0.950 . S
H720 C746 0.950 . S
H721 C748 0.950 . S
H722 C751 0.950 . S
H723 C752 0.950 . S
H724 C754 0.950 . S
H725 C755 0.950 . S
C726 H708 0.951 . S
C726 C727 1.366 . S
C726 C728 1.388 . S
C727 C726 1.366 . S
C727 C731 1.385 . S
C728 H709 0.951 . S
C728 C726 1.388 . S
C728 C729 1.366 . S
C729 C728 1.366 . S
C729 C730 1.414 . S
C729 C732 1.499 . S
C730 H710 0.950 . S
C730 C729 1.414 . S
C730 C731 1.374 . S
C731 H711 0.950 . S
C731 C727 1.385 . S
C731 C730 1.374 . S
C732 C729 1.499 . S
C732 C733 1.373 . S
C732 C734 1.389 . S
C733 H712 0.950 . S
C733 C732 1.373 . S
C733 C749 1.377 . S
C734 C732 1.389 . S
C734 C735 1.524 . S
C734 C748 1.377 . S
C735 C734 1.524 . S
C735 C736 1.397 . S
C735 C740 1.363 . S
C736 H713 0.950 . S
C736 C735 1.397 . S
C736 C737 1.334 . S
C737 H714 0.950 . S
C737 C736 1.334 . S
C737 C738 1.287 . S
C738 C737 1.287 . S
C738 C739 1.524 . S
C738 H757 0.913 . S
C739 H715 0.950 . S
C739 C738 1.524 . S
C739 C740 1.415 . S
C740 H716 0.950 . S
C740 C735 1.363 . S
C740 C739 1.415 . S
C741 H717 0.951 . S
C741 C742 1.366 . S
C741 C743 1.388 . S
C742 C741 1.366 . S
C742 C746 1.385 . S
C743 H718 0.951 . S
C743 C741 1.388 . S
C743 C744 1.366 . S
C744 C743 1.366 . S
C744 C745 1.414 . S
C744 C747 1.499 . S
C745 H719 0.950 . S
C745 C744 1.414 . S
C745 C746 1.374 . S
C746 H720 0.950 . S
C746 C742 1.385 . S
C746 C745 1.374 . S
C747 C744 1.499 . S
C747 C748 1.373 . S
C747 C749 1.389 . S
C748 H721 0.950 . S
C748 C734 1.377 . S
C748 C747 1.373 . S
C749 C733 1.377 . S
C749 C747 1.389 . S
C749 C750 1.524 . S
C750 C749 1.524 . S
C750 C751 1.397 . S
C750 C755 1.363 . S
C751 H722 0.950 . S
C751 C750 1.397 . S
C751 C752 1.334 . S
C752 H723 0.950 . S
C752 C751 1.334 . S
C752 C753 1.287 . S
C753 C752 1.287 . S
C753 C754 1.524 . S
C753 H756 0.999 . S
C754 H724 0.950 . S
C754 C753 1.524 . S
C754 C755 1.415 . S
C755 H725 0.950 . S
C755 C750 1.363 . S
C755 C754 1.415 . S
H756 C753 0.999 . S
H757 C738 0.913 . S
H758 C776 0.951 . S
H759 C778 0.951 . S
H760 C780 0.950 . S
H761 C781 0.950 . S
H762 C783 0.950 . S
H763 C786 0.950 . S
H764 C787 0.950 . S
H765 C789 0.950 . S
H766 C790 0.950 . S
H767 C791 0.951 . S
H768 C793 0.951 . S
H769 C795 0.950 . S
H770 C796 0.950 . S
H771 C798 0.950 . S
H772 C801 0.950 . S
H773 C802 0.950 . S
H774 C804 0.950 . S
H775 C805 0.950 . S
C776 H758 0.951 . S
C776 C777 1.366 . S
C776 C778 1.388 . S
C777 C776 1.366 . S
C777 C781 1.385 . S
C778 H759 0.951 . S
C778 C776 1.388 . S
C778 C779 1.366 . S
C779 C778 1.366 . S
C779 C780 1.414 . S
C779 C782 1.499 . S
C780 H760 0.950 . S
C780 C779 1.414 . S
C780 C781 1.374 . S
C781 H761 0.950 . S
C781 C777 1.385 . S
C781 C780 1.374 . S
C782 C779 1.499 . S
C782 C783 1.373 . S
C782 C784 1.389 . S
C783 H762 0.950 . S
C783 C782 1.373 . S
C783 C799 1.377 . S
C784 C782 1.389 . S
C784 C785 1.524 . S
C784 C798 1.377 . S
C785 C784 1.524 . S
C785 C786 1.397 . S
C785 C790 1.363 . S
C786 H763 0.950 . S
C786 C785 1.397 . S
C786 C787 1.334 . S
C787 H764 0.950 . S
C787 C786 1.334 . S
C787 C788 1.287 . S
C788 C787 1.287 . S
C788 C789 1.524 . S
C788 H807 0.913 . S
C789 H765 0.950 . S
C789 C788 1.524 . S
C789 C790 1.415 . S
C790 H766 0.950 . S
C790 C785 1.363 . S
C790 C789 1.415 . S
C791 H767 0.951 . S
C791 C792 1.366 . S
C791 C793 1.388 . S
C792 C791 1.366 . S
C792 C796 1.385 . S
C793 H768 0.951 . S
C793 C791 1.388 . S
C793 C794 1.366 . S
C794 C793 1.366 . S
C794 C795 1.414 . S
C794 C797 1.499 . S
C795 H769 0.950 . S
C795 C794 1.414 . S
C795 C796 1.374 . S
C796 H770 0.950 . S
C796 C792 1.385 . S
C796 C795 1.374 . S
C797 C794 1.499 . S
C797 C798 1.373 . S
C797 C799 1.389 . S
C798 H771 0.950 . S
C798 C784 1.377 . S
C798 C797 1.373 . S
C799 C783 1.377 . S
C799 C797 1.389 . S
C799 C800 1.524 . S
C800 C799 1.524 . S
C800 C801 1.397 . S
C800 C805 1.363 . S
C801 H772 0.950 . S
C801 C800 1.397 . S
C801 C802 1.334 . S
C802 H773 0.950 . S
C802 C801 1.334 . S
C802 C803 1.287 . S
C803 C802 1.287 . S
C803 C804 1.524 . S
C803 H806 0.999 . S
C804 H774 0.950 . S
C804 C803 1.524 . S
C804 C805 1.415 . S
C805 H775 0.950 . S
C805 C800 1.363 . S
C805 C804 1.415 . S
H806 C803 0.999 . S
H807 C788 0.913 . S
H808 C826 0.951 . S
H809 C828 0.951 . S
H810 C830 0.950 . S
H811 C831 0.950 . S
H812 C833 0.950 . S
H813 C836 0.950 . S
H814 C837 0.950 . S
H815 C839 0.950 . S
H816 C840 0.950 . S
H817 C841 0.951 . S
H818 C843 0.951 . S
H819 C845 0.950 . S
H820 C846 0.950 . S
H821 C848 0.950 . S
H822 C851 0.950 . S
H823 C852 0.950 . S
H824 C854 0.950 . S
H825 C855 0.950 . S
C826 H808 0.951 . S
C826 C827 1.366 . S
C826 C828 1.388 . S
C827 C826 1.366 . S
C827 C831 1.385 . S
C828 H809 0.951 . S
C828 C826 1.388 . S
C828 C829 1.366 . S
C829 C828 1.366 . S
C829 C830 1.414 . S
C829 C832 1.499 . S
C830 H810 0.950 . S
C830 C829 1.414 . S
C830 C831 1.374 . S
C831 H811 0.950 . S
C831 C827 1.385 . S
C831 C830 1.374 . S
C832 C829 1.499 . S
C832 C833 1.373 . S
C832 C834 1.389 . S
C833 H812 0.950 . S
C833 C832 1.373 . S
C833 C849 1.377 . S
C834 C832 1.389 . S
C834 C835 1.524 . S
C834 C848 1.377 . S
C835 C834 1.524 . S
C835 C836 1.397 . S
C835 C840 1.363 . S
C836 H813 0.950 . S
C836 C835 1.397 . S
C836 C837 1.334 . S
C837 H814 0.950 . S
C837 C836 1.334 . S
C837 C838 1.287 . S
C838 C837 1.287 . S
C838 C839 1.524 . S
C838 H857 0.913 . S
C839 H815 0.950 . S
C839 C838 1.524 . S
C839 C840 1.415 . S
C840 H816 0.950 . S
C840 C835 1.363 . S
C840 C839 1.415 . S
C841 H817 0.951 . S
C841 C842 1.366 . S
C841 C843 1.388 . S
C842 C841 1.366 . S
C842 C846 1.385 . S
C843 H818 0.951 . S
C843 C841 1.388 . S
C843 C844 1.366 . S
C844 C843 1.366 . S
C844 C845 1.414 . S
C844 C847 1.499 . S
C845 H819 0.950 . S
C845 C844 1.414 . S
C845 C846 1.374 . S
C846 H820 0.950 . S
C846 C842 1.385 . S
C846 C845 1.374 . S
C847 C844 1.499 . S
C847 C848 1.373 . S
C847 C849 1.389 . S
C848 H821 0.950 . S
C848 C834 1.377 . S
C848 C847 1.373 . S
C849 C833 1.377 . S
C849 C847 1.389 . S
C849 C850 1.524 . S
C850 C849 1.524 . S
C850 C851 1.397 . S
C850 C855 1.363 . S
C851 H822 0.950 . S
C851 C850 1.397 . S
C851 C852 1.334 . S
C852 H823 0.950 . S
C852 C851 1.334 . S
C852 C853 1.287 . S
C853 C852 1.287 . S
C853 C854 1.524 . S
C853 H856 0.999 . S
C854 H824 0.950 . S
C854 C853 1.524 . S
C854 C855 1.415 . S
C855 H825 0.950 . S
C855 C850 1.363 . S
C855 C854 1.415 . S
H856 C853 0.999 . S
H857 C838 0.913 . S
H858 C876 0.951 . S
H859 C878 0.951 . S
H860 C880 0.950 . S
H861 C881 0.950 . S
H862 C883 0.950 . S
H863 C886 0.950 . S
H864 C887 0.950 . S
H865 C889 0.950 . S
H866 C890 0.950 . S
H867 C891 0.951 . S
H868 C893 0.951 . S
H869 C895 0.950 . S
H870 C896 0.950 . S
H871 C898 0.950 . S
H872 C901 0.950 . S
H873 C902 0.950 . S
H874 C904 0.950 . S
H875 C905 0.950 . S
C876 H858 0.951 . S
C876 C877 1.366 . S
C876 C878 1.388 . S
C877 C876 1.366 . S
C877 C881 1.385 . S
C878 H859 0.951 . S
C878 C876 1.388 . S
C878 C879 1.366 . S
C879 C878 1.366 . S
C879 C880 1.414 . S
C879 C882 1.499 . S
C880 H860 0.950 . S
C880 C879 1.414 . S
C880 C881 1.374 . S
C881 H861 0.950 . S
C881 C877 1.385 . S
C881 C880 1.374 . S
C882 C879 1.499 . S
C882 C883 1.373 . S
C882 C884 1.389 . S
C883 H862 0.950 . S
C883 C882 1.373 . S
C883 C899 1.377 . S
C884 C882 1.389 . S
C884 C885 1.524 . S
C884 C898 1.377 . S
C885 C884 1.524 . S
C885 C886 1.397 . S
C885 C890 1.363 . S
C886 H863 0.950 . S
C886 C885 1.397 . S
C886 C887 1.334 . S
C887 H864 0.950 . S
C887 C886 1.334 . S
C887 C888 1.287 . S
C888 C887 1.287 . S
C888 C889 1.524 . S
C888 H907 0.913 . S
C889 H865 0.950 . S
C889 C888 1.524 . S
C889 C890 1.415 . S
C890 H866 0.950 . S
C890 C885 1.363 . S
C890 C889 1.415 . S
C891 H867 0.951 . S
C891 C892 1.366 . S
C891 C893 1.388 . S
C892 C891 1.366 . S
C892 C896 1.385 . S
C893 H868 0.951 . S
C893 C891 1.388 . S
C893 C894 1.366 . S
C894 C893 1.366 . S
C894 C895 1.414 . S
C894 C897 1.499 . S
C895 H869 0.950 . S
C895 C894 1.414 . S
C895 C896 1.374 . S
C896 H870 0.950 . S
C896 C892 1.385 . S
C896 C895 1.374 . S
C897 C894 1.499 . S
C897 C898 1.373 . S
C897 C899 1.389 . S
C898 H871 0.950 . S
C898 C884 1.377 . S
C898 C897 1.373 . S
C899 C883 1.377 . S
C899 C897 1.389 . S
C899 C900 1.524 . S
C900 C899 1.524 . S
C900 C901 1.397 . S
C900 C905 1.363 . S
C901 H872 0.950 . S
C901 C900 1.397 . S
C901 C902 1.334 . S
C902 H873 0.950 . S
C902 C901 1.334 . S
C902 C903 1.287 . S
C903 C902 1.287 . S
C903 C904 1.524 . S
C903 H906 0.999 . S
C904 H874 0.950 . S
C904 C903 1.524 . S
C904 C905 1.415 . S
C905 H875 0.950 . S
C905 C900 1.363 . S
C905 C904 1.415 . S
H906 C903 0.999 . S
H907 C888 0.913 . S
H908 C926 0.951 . S
H909 C928 0.951 . S
H910 C930 0.950 . S
H911 C931 0.950 . S
H912 C933 0.950 . S
H913 C936 0.950 . S
H914 C937 0.950 . S
H915 C939 0.950 . S
H916 C940 0.950 . S
H917 C941 0.951 . S
H918 C943 0.951 . S
H919 C945 0.950 . S
H920 C946 0.950 . S
H921 C948 0.950 . S
H922 C951 0.950 . S
H923 C952 0.950 . S
H924 C954 0.950 . S
H925 C955 0.950 . S
C926 H908 0.951 . S
C926 C927 1.366 . S
C926 C928 1.388 . S
C927 C926 1.366 . S
C927 C931 1.385 . S
C928 H909 0.951 . S
C928 C926 1.388 . S
C928 C929 1.366 . S
C929 C928 1.366 . S
C929 C930 1.414 . S
C929 C932 1.499 . S
C930 H910 0.950 . S
C930 C929 1.414 . S
C930 C931 1.374 . S
C931 H911 0.950 . S
C931 C927 1.385 . S
C931 C930 1.374 . S
C932 C929 1.499 . S
C932 C933 1.373 . S
C932 C934 1.389 . S
C933 H912 0.950 . S
C933 C932 1.373 . S
C933 C949 1.377 . S
C934 C932 1.389 . S
C934 C935 1.524 . S
C934 C948 1.377 . S
C935 C934 1.524 . S
C935 C936 1.397 . S
C935 C940 1.363 . S
C936 H913 0.950 . S
C936 C935 1.397 . S
C936 C937 1.334 . S
C937 H914 0.950 . S
C937 C936 1.334 . S
C937 C938 1.287 . S
C938 C937 1.287 . S
C938 C939 1.524 . S
C938 H957 0.913 . S
C939 H915 0.950 . S
C939 C938 1.524 . S
C939 C940 1.415 . S
C940 H916 0.950 . S
C940 C935 1.363 . S
C940 C939 1.415 . S
C941 H917 0.951 . S
C941 C942 1.366 . S
C941 C943 1.388 . S
C942 C941 1.366 . S
C942 C946 1.385 . S
C943 H918 0.951 . S
C943 C941 1.388 . S
C943 C944 1.366 . S
C944 C943 1.366 . S
C944 C945 1.414 . S
C944 C947 1.499 . S
C945 H919 0.950 . S
C945 C944 1.414 . S
C945 C946 1.374 . S
C946 H920 0.950 . S
C946 C942 1.385 . S
C946 C945 1.374 . S
C947 C944 1.499 . S
C947 C948 1.373 . S
C947 C949 1.389 . S
C948 H921 0.950 . S
C948 C934 1.377 . S
C948 C947 1.373 . S
C949 C933 1.377 . S
C949 C947 1.389 . S
C949 C950 1.524 . S
C950 C949 1.524 . S
C950 C951 1.397 . S
C950 C955 1.363 . S
C951 H922 0.950 . S
C951 C950 1.397 . S
C951 C952 1.334 . S
C952 H923 0.950 . S
C952 C951 1.334 . S
C952 C953 1.287 . S
C953 C952 1.287 . S
C953 C954 1.524 . S
C953 H956 0.999 . S
C954 H924 0.950 . S
C954 C953 1.524 . S
C954 C955 1.415 . S
C955 H925 0.950 . S
C955 C950 1.363 . S
C955 C954 1.415 . S
H956 C953 0.999 . S
H957 C938 0.913 . S
H958 C976 0.951 . S
H959 C978 0.951 . S
H960 C980 0.950 . S
H961 C981 0.950 . S
H962 C983 0.950 . S
H963 C986 0.950 . S
H964 C987 0.950 . S
H965 C989 0.950 . S
H966 C990 0.950 . S
H967 C991 0.951 . S
H968 C993 0.951 . S
H969 C995 0.950 . S
H970 C996 0.950 . S
H971 C998 0.950 . S
H972 C1001 0.950 . S
H973 C1002 0.950 . S
H974 C1004 0.950 . S
H975 C1005 0.950 . S
C976 H958 0.951 . S
C976 C977 1.366 . S
C976 C978 1.388 . S
C977 C976 1.366 . S
C977 C981 1.385 . S
C978 H959 0.951 . S
C978 C976 1.388 . S
C978 C979 1.366 . S
C979 C978 1.366 . S
C979 C980 1.414 . S
C979 C982 1.499 . S
C980 H960 0.950 . S
C980 C979 1.414 . S
C980 C981 1.374 . S
C981 H961 0.950 . S
C981 C977 1.385 . S
C981 C980 1.374 . S
C982 C979 1.499 . S
C982 C983 1.373 . S
C982 C984 1.389 . S
C983 H962 0.950 . S
C983 C982 1.373 . S
C983 C999 1.377 . S
C984 C982 1.389 . S
C984 C985 1.524 . S
C984 C998 1.377 . S
C985 C984 1.524 . S
C985 C986 1.397 . S
C985 C990 1.363 . S
C986 H963 0.950 . S
C986 C985 1.397 . S
C986 C987 1.334 . S
C987 H964 0.950 . S
C987 C986 1.334 . S
C987 C988 1.287 . S
C988 C987 1.287 . S
C988 C989 1.524 . S
C988 H1007 0.913 . S
C989 H965 0.950 . S
C989 C988 1.524 . S
C989 C990 1.415 . S
C990 H966 0.950 . S
C990 C985 1.363 . S
C990 C989 1.415 . S
C991 H967 0.951 . S
C991 C992 1.366 . S
C991 C993 1.388 . S
C992 C991 1.366 . S
C992 C996 1.385 . S
C993 H968 0.951 . S
C993 C991 1.388 . S
C993 C994 1.366 . S
C994 C993 1.366 . S
C994 C995 1.414 . S
C994 C997 1.499 . S
C995 H969 0.950 . S
C995 C994 1.414 . S
C995 C996 1.374 . S
C996 H970 0.950 . S
C996 C992 1.385 . S
C996 C995 1.374 . S
C997 C994 1.499 . S
C997 C998 1.373 . S
C997 C999 1.389 . S
C998 H971 0.950 . S
C998 C984 1.377 . S
C998 C997 1.373 . S
C999 C983 1.377 . S
C999 C997 1.389 . S
C999 C1000 1.524 . S
C1000 C999 1.524 . S
C1000 C1001 1.397 . S
C1000 C1005 1.363 . S
C1001 H972 0.950 . S
C1001 C1000 1.397 . S
C1001 C1002 1.334 . S
C1002 H973 0.950 . S
C1002 C1001 1.334 . S
C1002 C1003 1.287 . S
C1003 C1002 1.287 . S
C1003 C1004 1.524 . S
C1003 H1006 0.999 . S
C1004 H974 0.950 . S
C1004 C1003 1.524 . S
C1004 C1005 1.415 . S
C1005 H975 0.950 . S
C1005 C1000 1.363 . S
C1005 C1004 1.415 . S
H1006 C1003 0.999 . S
H1007 C988 0.913 . S
H1008 C1026 0.951 . S
H1009 C1028 0.951 . S
H1010 C1030 0.950 . S
H1011 C1031 0.950 . S
H1012 C1033 0.950 . S
H1013 C1036 0.950 . S
H1014 C1037 0.950 . S
H1015 C1039 0.950 . S
H1016 C1040 0.950 . S
H1017 C1041 0.951 . S
H1018 C1043 0.951 . S
H1019 C1045 0.950 . S
H1020 C1046 0.950 . S
H1021 C1048 0.950 . S
H1022 C1051 0.950 . S
H1023 C1052 0.950 . S
H1024 C1054 0.950 . S
H1025 C1055 0.950 . S
C1026 H1008 0.951 . S
C1026 C1027 1.366 . S
C1026 C1028 1.388 . S
C1027 C1026 1.366 . S
C1027 C1031 1.385 . S
C1028 H1009 0.951 . S
C1028 C1026 1.388 . S
C1028 C1029 1.366 . S
C1029 C1028 1.366 . S
C1029 C1030 1.414 . S
C1029 C1032 1.499 . S
C1030 H1010 0.950 . S
C1030 C1029 1.414 . S
C1030 C1031 1.374 . S
C1031 H1011 0.950 . S
C1031 C1027 1.385 . S
C1031 C1030 1.374 . S
C1032 C1029 1.499 . S
C1032 C1033 1.373 . S
C1032 C1034 1.389 . S
C1033 H1012 0.950 . S
C1033 C1032 1.373 . S
C1033 C1049 1.377 . S
C1034 C1032 1.389 . S
C1034 C1035 1.524 . S
C1034 C1048 1.377 . S
C1035 C1034 1.524 . S
C1035 C1036 1.397 . S
C1035 C1040 1.363 . S
C1036 H1013 0.950 . S
C1036 C1035 1.397 . S
C1036 C1037 1.334 . S
C1037 H1014 0.950 . S
C1037 C1036 1.334 . S
C1037 C1038 1.287 . S
C1038 C1037 1.287 . S
C1038 C1039 1.524 . S
C1038 H1057 0.913 . S
C1039 H1015 0.950 . S
C1039 C1038 1.524 . S
C1039 C1040 1.415 . S
C1040 H1016 0.950 . S
C1040 C1035 1.363 . S
C1040 C1039 1.415 . S
C1041 H1017 0.951 . S
C1041 C1042 1.366 . S
C1041 C1043 1.388 . S
C1042 C1041 1.366 . S
C1042 C1046 1.385 . S
C1043 H1018 0.951 . S
C1043 C1041 1.388 . S
C1043 C1044 1.366 . S
C1044 C1043 1.366 . S
C1044 C1045 1.414 . S
C1044 C1047 1.499 . S
C1045 H1019 0.950 . S
C1045 C1044 1.414 . S
C1045 C1046 1.374 . S
C1046 H1020 0.950 . S
C1046 C1042 1.385 . S
C1046 C1045 1.374 . S
C1047 C1044 1.499 . S
C1047 C1048 1.373 . S
C1047 C1049 1.389 . S
C1048 H1021 0.950 . S
C1048 C1034 1.377 . S
C1048 C1047 1.373 . S
C1049 C1033 1.377 . S
C1049 C1047 1.389 . S
C1049 C1050 1.524 . S
C1050 C1049 1.524 . S
C1050 C1051 1.397 . S
C1050 C1055 1.363 . S
C1051 H1022 0.950 . S
C1051 C1050 1.397 . S
C1051 C1052 1.334 . S
C1052 H1023 0.950 . S
C1052 C1051 1.334 . S
C1052 C1053 1.287 . S
C1053 C1052 1.287 . S
C1053 C1054 1.524 . S
C1053 H1056 0.999 . S
C1054 H1024 0.950 . S
C1054 C1053 1.524 . S
C1054 C1055 1.415 . S
C1055 H1025 0.950 . S
C1055 C1050 1.363 . S
C1055 C1054 1.415 . S
H1056 C1053 0.999 . S
H1057 C1038 0.913 . S
H1058 C1076 0.951 . S
H1059 C1078 0.951 . S
H1060 C1080 0.950 . S
H1061 C1081 0.950 . S
H1062 C1083 0.950 . S
H1063 C1086 0.950 . S
H1064 C1087 0.950 . S
H1065 C1089 0.950 . S
H1066 C1090 0.950 . S
H1067 C1091 0.951 . S
H1068 C1093 0.951 . S
H1069 C1095 0.950 . S
H1070 C1096 0.950 . S
H1071 C1098 0.950 . S
H1072 C1101 0.950 . S
H1073 C1102 0.950 . S
H1074 C1104 0.950 1_556 S
H1075 C1105 0.950 . S
C1076 H1058 0.951 . S
C1076 C1077 1.366 . S
C1076 C1078 1.388 . S
C1077 C1076 1.366 . S
C1077 C1081 1.385 . S
C1078 H1059 0.951 . S
C1078 C1076 1.388 . S
C1078 C1079 1.366 . S
C1079 C1078 1.366 . S
C1079 C1080 1.414 . S
C1079 C1082 1.499 . S
C1080 H1060 0.950 . S
C1080 C1079 1.414 . S
C1080 C1081 1.374 . S
C1081 H1061 0.950 . S
C1081 C1077 1.385 . S
C1081 C1080 1.374 . S
C1082 C1079 1.499 . S
C1082 C1083 1.373 . S
C1082 C1084 1.389 . S
C1083 H1062 0.950 . S
C1083 C1082 1.373 . S
C1083 C1099 1.377 . S
C1084 C1082 1.389 . S
C1084 C1085 1.524 . S
C1084 C1098 1.377 . S
C1085 C1084 1.524 . S
C1085 C1086 1.397 . S
C1085 C1090 1.363 . S
C1086 H1063 0.950 . S
C1086 C1085 1.397 . S
C1086 C1087 1.334 . S
C1087 H1064 0.950 . S
C1087 C1086 1.334 . S
C1087 C1088 1.287 . S
C1088 C1087 1.287 . S
C1088 C1089 1.524 . S
C1088 H1107 0.913 . S
C1089 H1065 0.950 . S
C1089 C1088 1.524 . S
C1089 C1090 1.415 . S
C1090 H1066 0.950 . S
C1090 C1085 1.363 . S
C1090 C1089 1.415 . S
C1091 H1067 0.951 . S
C1091 C1092 1.366 . S
C1091 C1093 1.388 . S
C1092 C1091 1.366 . S
C1092 C1096 1.385 . S
C1093 H1068 0.951 . S
C1093 C1091 1.388 . S
C1093 C1094 1.366 . S
C1094 C1093 1.366 . S
C1094 C1095 1.414 . S
C1094 C1097 1.499 . S
C1095 H1069 0.950 . S
C1095 C1094 1.414 . S
C1095 C1096 1.374 . S
C1096 H1070 0.950 . S
C1096 C1092 1.385 . S
C1096 C1095 1.374 . S
C1097 C1094 1.499 . S
C1097 C1098 1.373 . S
C1097 C1099 1.389 . S
C1098 H1071 0.950 . S
C1098 C1084 1.377 . S
C1098 C1097 1.373 . S
C1099 C1083 1.377 . S
C1099 C1097 1.389 . S
C1099 C1100 1.524 . S
C1100 C1099 1.524 . S
C1100 C1101 1.397 . S
C1100 C1105 1.363 . S
C1101 H1072 0.950 . S
C1101 C1100 1.397 . S
C1101 C1102 1.334 . S
C1102 H1073 0.950 . S
C1102 C1101 1.334 . S
C1102 C1103 1.287 . S
C1103 C1102 1.287 . S
C1103 C1104 1.524 . S
C1103 H1106 0.999 1_554 S
C1104 H1074 0.950 1_554 S
C1104 C1103 1.524 . S
C1104 C1105 1.415 . S
C1105 H1075 0.950 . S
C1105 C1100 1.363 . S
C1105 C1104 1.415 . S
H1106 C1103 0.999 1_556 S
H1107 C1088 0.913 . S
H1108 C1126 0.951 . S
H1109 C1128 0.951 . S
H1110 C1130 0.950 . S
H1111 C1131 0.950 . S
H1112 C1133 0.950 . S
H1113 C1136 0.950 . S
H1114 C1137 0.950 . S
H1115 C1139 0.950 . S
H1116 C1140 0.950 . S
H1117 C1141 0.951 1_554 S
H1118 C1143 0.951 . S
H1119 C1145 0.950 . S
H1120 C1146 0.950 . S
H1121 C1148 0.950 . S
H1122 C1151 0.950 . S
H1123 C1152 0.950 . S
H1124 C1154 0.950 1_554 S
H1125 C1155 0.950 . S
C1126 H1108 0.951 . S
C1126 C1127 1.366 . S
C1126 C1128 1.388 . S
C1127 C1126 1.366 . S
C1127 C1131 1.385 . S
C1128 H1109 0.951 . S
C1128 C1126 1.388 . S
C1128 C1129 1.366 . S
C1129 C1128 1.366 . S
C1129 C1130 1.414 . S
C1129 C1132 1.499 . S
C1130 H1110 0.950 . S
C1130 C1129 1.414 . S
C1130 C1131 1.374 . S
C1131 H1111 0.950 . S
C1131 C1127 1.385 . S
C1131 C1130 1.374 . S
C1132 C1129 1.499 . S
C1132 C1133 1.373 . S
C1132 C1134 1.389 . S
C1133 H1112 0.950 . S
C1133 C1132 1.373 . S
C1133 C1149 1.377 . S
C1134 C1132 1.389 . S
C1134 C1135 1.524 . S
C1134 C1148 1.377 . S
C1135 C1134 1.524 . S
C1135 C1136 1.397 . S
C1135 C1140 1.363 . S
C1136 H1113 0.950 . S
C1136 C1135 1.397 . S
C1136 C1137 1.334 . S
C1137 H1114 0.950 . S
C1137 C1136 1.334 . S
C1137 C1138 1.287 . S
C1138 C1137 1.287 . S
C1138 C1139 1.524 . S
C1138 H1157 0.913 . S
C1139 H1115 0.950 . S
C1139 C1138 1.524 . S
C1139 C1140 1.415 . S
C1140 H1116 0.950 . S
C1140 C1135 1.363 . S
C1140 C1139 1.415 . S
C1141 H1117 0.951 1_556 S
C1141 C1142 1.366 . S
C1141 C1143 1.388 . S
C1142 C1141 1.366 . S
C1142 C1146 1.385 . S
C1143 H1118 0.951 . S
C1143 C1141 1.388 . S
C1143 C1144 1.366 . S
C1144 C1143 1.366 . S
C1144 C1145 1.414 . S
C1144 C1147 1.499 . S
C1145 H1119 0.950 . S
C1145 C1144 1.414 . S
C1145 C1146 1.374 . S
C1146 H1120 0.950 . S
C1146 C1142 1.385 . S
C1146 C1145 1.374 . S
C1147 C1144 1.499 . S
C1147 C1148 1.373 . S
C1147 C1149 1.389 . S
C1148 H1121 0.950 . S
C1148 C1134 1.377 . S
C1148 C1147 1.373 . S
C1149 C1133 1.377 . S
C1149 C1147 1.389 . S
C1149 C1150 1.524 . S
C1150 C1149 1.524 . S
C1150 C1151 1.397 . S
C1150 C1155 1.363 . S
C1151 H1122 0.950 . S
C1151 C1150 1.397 . S
C1151 C1152 1.334 . S
C1152 H1123 0.950 . S
C1152 C1151 1.334 . S
C1152 C1153 1.287 . S
C1153 C1152 1.287 . S
C1153 C1154 1.524 . S
C1153 H1156 0.999 . S
C1154 H1124 0.950 1_556 S
C1154 C1153 1.524 . S
C1154 C1155 1.415 . S
C1155 H1125 0.950 . S
C1155 C1150 1.363 . S
C1155 C1154 1.415 . S
H1156 C1153 0.999 . S
H1157 C1138 0.913 . S
H1158 C1176 0.951 . S
H1159 C1178 0.951 . S
H1160 C1180 0.950 . S
H1161 C1181 0.950 . S
H1162 C1183 0.950 . S
H1163 C1186 0.950 . S
H1164 C1187 0.950 . S
H1165 C1189 0.950 . S
H1166 C1190 0.950 . S
H1167 C1191 0.951 . S
H1168 C1193 0.951 . S
H1169 C1195 0.950 . S
H1170 C1196 0.950 . S
H1171 C1198 0.950 . S
H1172 C1201 0.950 . S
H1173 C1202 0.950 . S
H1174 C1204 0.950 . S
H1175 C1205 0.950 . S
C1176 H1158 0.951 . S
C1176 C1177 1.366 . S
C1176 C1178 1.388 . S
C1177 C1176 1.366 . S
C1177 C1181 1.385 . S
C1178 H1159 0.951 . S
C1178 C1176 1.388 . S
C1178 C1179 1.366 . S
C1179 C1178 1.366 . S
C1179 C1180 1.414 . S
C1179 C1182 1.499 . S
C1180 H1160 0.950 . S
C1180 C1179 1.414 . S
C1180 C1181 1.374 . S
C1181 H1161 0.950 . S
C1181 C1177 1.385 . S
C1181 C1180 1.374 . S
C1182 C1179 1.499 . S
C1182 C1183 1.373 . S
C1182 C1184 1.389 . S
C1183 H1162 0.950 . S
C1183 C1182 1.373 . S
C1183 C1199 1.377 . S
C1184 C1182 1.389 . S
C1184 C1185 1.524 . S
C1184 C1198 1.377 . S
C1185 C1184 1.524 . S
C1185 C1186 1.397 . S
C1185 C1190 1.363 . S
C1186 H1163 0.950 . S
C1186 C1185 1.397 . S
C1186 C1187 1.334 . S
C1187 H1164 0.950 . S
C1187 C1186 1.334 . S
C1187 C1188 1.287 . S
C1188 C1187 1.287 . S
C1188 C1189 1.524 . S
C1188 H1207 0.913 . S
C1189 H1165 0.950 . S
C1189 C1188 1.524 . S
C1189 C1190 1.415 . S
C1190 H1166 0.950 . S
C1190 C1185 1.363 . S
C1190 C1189 1.415 . S
C1191 H1167 0.951 . S
C1191 C1192 1.366 . S
C1191 C1193 1.388 . S
C1192 C1191 1.366 . S
C1192 C1196 1.385 . S
C1193 H1168 0.951 . S
C1193 C1191 1.388 . S
C1193 C1194 1.366 . S
C1194 C1193 1.366 . S
C1194 C1195 1.414 . S
C1194 C1197 1.499 . S
C1195 H1169 0.950 . S
C1195 C1194 1.414 . S
C1195 C1196 1.374 . S
C1196 H1170 0.950 . S
C1196 C1192 1.385 . S
C1196 C1195 1.374 . S
C1197 C1194 1.499 . S
C1197 C1198 1.373 . S
C1197 C1199 1.389 . S
C1198 H1171 0.950 . S
C1198 C1184 1.377 . S
C1198 C1197 1.373 . S
C1199 C1183 1.377 . S
C1199 C1197 1.389 . S
C1199 C1200 1.524 . S
C1200 C1199 1.524 . S
C1200 C1201 1.397 . S
C1200 C1205 1.363 . S
C1201 H1172 0.950 . S
C1201 C1200 1.397 . S
C1201 C1202 1.334 . S
C1202 H1173 0.950 . S
C1202 C1201 1.334 . S
C1202 C1203 1.287 . S
C1203 C1202 1.287 . S
C1203 C1204 1.524 . S
C1203 H1206 0.999 . S
C1204 H1174 0.950 . S
C1204 C1203 1.524 . S
C1204 C1205 1.415 . S
C1205 H1175 0.950 . S
C1205 C1200 1.363 . S
C1205 C1204 1.415 . S
H1206 C1203 0.999 . S
H1207 C1188 0.913 . S
H1208 C1226 0.951 . S
H1209 C1228 0.951 . S
H1210 C1230 0.950 . S
H1211 C1231 0.950 . S
H1212 C1233 0.950 . S
H1213 C1236 0.950 . S
H1214 C1237 0.950 . S
H1215 C1239 0.950 . S
H1216 C1240 0.950 . S
H1217 C1241 0.951 . S
H1218 C1243 0.951 . S
H1219 C1245 0.950 . S
H1220 C1246 0.950 . S
H1221 C1248 0.950 . S
H1222 C1251 0.950 . S
H1223 C1252 0.950 . S
H1224 C1254 0.950 . S
H1225 C1255 0.950 . S
C1226 H1208 0.951 . S
C1226 C1227 1.366 . S
C1226 C1228 1.388 . S
C1227 C1226 1.366 . S
C1227 C1231 1.385 . S
C1228 H1209 0.951 . S
C1228 C1226 1.388 . S
C1228 C1229 1.366 . S
C1229 C1228 1.366 . S
C1229 C1230 1.414 . S
C1229 C1232 1.499 . S
C1230 H1210 0.950 . S
C1230 C1229 1.414 . S
C1230 C1231 1.374 . S
C1231 H1211 0.950 . S
C1231 C1227 1.385 . S
C1231 C1230 1.374 . S
C1232 C1229 1.499 . S
C1232 C1233 1.373 . S
C1232 C1234 1.389 . S
C1233 H1212 0.950 . S
C1233 C1232 1.373 . S
C1233 C1249 1.377 . S
C1234 C1232 1.389 . S
C1234 C1235 1.524 . S
C1234 C1248 1.377 . S
C1235 C1234 1.524 . S
C1235 C1236 1.397 . S
C1235 C1240 1.363 . S
C1236 H1213 0.950 . S
C1236 C1235 1.397 . S
C1236 C1237 1.334 . S
C1237 H1214 0.950 . S
C1237 C1236 1.334 . S
C1237 C1238 1.287 . S
C1238 C1237 1.287 . S
C1238 C1239 1.524 . S
C1238 H1257 0.913 . S
C1239 H1215 0.950 . S
C1239 C1238 1.524 . S
C1239 C1240 1.415 . S
C1240 H1216 0.950 . S
C1240 C1235 1.363 . S
C1240 C1239 1.415 . S
C1241 H1217 0.951 . S
C1241 C1242 1.366 . S
C1241 C1243 1.388 . S
C1242 C1241 1.366 . S
C1242 C1246 1.385 . S
C1243 H1218 0.951 . S
C1243 C1241 1.388 . S
C1243 C1244 1.366 . S
C1244 C1243 1.366 . S
C1244 C1245 1.414 . S
C1244 C1247 1.499 . S
C1245 H1219 0.950 . S
C1245 C1244 1.414 . S
C1245 C1246 1.374 . S
C1246 H1220 0.950 . S
C1246 C1242 1.385 . S
C1246 C1245 1.374 . S
C1247 C1244 1.499 . S
C1247 C1248 1.373 . S
C1247 C1249 1.389 . S
C1248 H1221 0.950 . S
C1248 C1234 1.377 . S
C1248 C1247 1.373 . S
C1249 C1233 1.377 . S
C1249 C1247 1.389 . S
C1249 C1250 1.524 . S
C1250 C1249 1.524 . S
C1250 C1251 1.397 . S
C1250 C1255 1.363 . S
C1251 H1222 0.950 . S
C1251 C1250 1.397 . S
C1251 C1252 1.334 . S
C1252 H1223 0.950 . S
C1252 C1251 1.334 . S
C1252 C1253 1.287 . S
C1253 C1252 1.287 . S
C1253 C1254 1.524 . S
C1253 H1256 0.999 1_556 S
C1254 H1224 0.950 . S
C1254 C1253 1.524 . S
C1254 C1255 1.415 . S
C1255 H1225 0.950 . S
C1255 C1250 1.363 . S
C1255 C1254 1.415 . S
H1256 C1253 0.999 1_554 S
H1257 C1238 0.913 . S
H1258 C1276 0.951 . S
H1259 C1278 0.951 . S
H1260 C1280 0.950 . S
H1261 C1281 0.950 . S
H1262 C1283 0.950 . S
H1263 C1286 0.950 . S
H1264 C1287 0.950 . S
H1265 C1289 0.950 . S
H1266 C1290 0.950 . S
H1267 C1291 0.951 . S
H1268 C1293 0.951 . S
H1269 C1295 0.950 . S
H1270 C1296 0.950 . S
H1271 C1298 0.950 . S
H1272 C1301 0.950 . S
H1273 C1302 0.950 . S
H1274 C1304 0.950 . S
H1275 C1305 0.950 . S
C1276 H1258 0.951 . S
C1276 C1277 1.366 . S
C1276 C1278 1.388 . S
C1277 C1276 1.366 . S
C1277 C1281 1.385 . S
C1278 H1259 0.951 . S
C1278 C1276 1.388 . S
C1278 C1279 1.366 . S
C1279 C1278 1.366 . S
C1279 C1280 1.414 . S
C1279 C1282 1.499 . S
C1280 H1260 0.950 . S
C1280 C1279 1.414 . S
C1280 C1281 1.374 . S
C1281 H1261 0.950 . S
C1281 C1277 1.385 . S
C1281 C1280 1.374 . S
C1282 C1279 1.499 . S
C1282 C1283 1.373 . S
C1282 C1284 1.389 . S
C1283 H1262 0.950 . S
C1283 C1282 1.373 . S
C1283 C1299 1.377 . S
C1284 C1282 1.389 . S
C1284 C1285 1.524 . S
C1284 C1298 1.377 . S
C1285 C1284 1.524 . S
C1285 C1286 1.397 . S
C1285 C1290 1.363 . S
C1286 H1263 0.950 . S
C1286 C1285 1.397 . S
C1286 C1287 1.334 . S
C1287 H1264 0.950 . S
C1287 C1286 1.334 . S
C1287 C1288 1.287 . S
C1288 C1287 1.287 . S
C1288 C1289 1.524 . S
C1288 H1307 0.913 . S
C1289 H1265 0.950 . S
C1289 C1288 1.524 . S
C1289 C1290 1.415 . S
C1290 H1266 0.950 . S
C1290 C1285 1.363 . S
C1290 C1289 1.415 . S
C1291 H1267 0.951 . S
C1291 C1292 1.366 . S
C1291 C1293 1.388 . S
C1292 C1291 1.366 . S
C1292 C1296 1.385 . S
C1293 H1268 0.951 . S
C1293 C1291 1.388 . S
C1293 C1294 1.366 . S
C1294 C1293 1.366 . S
C1294 C1295 1.414 . S
C1294 C1297 1.499 . S
C1295 H1269 0.950 . S
C1295 C1294 1.414 . S
C1295 C1296 1.374 . S
C1296 H1270 0.950 . S
C1296 C1292 1.385 . S
C1296 C1295 1.374 . S
C1297 C1294 1.499 . S
C1297 C1298 1.373 . S
C1297 C1299 1.389 . S
C1298 H1271 0.950 . S
C1298 C1284 1.377 . S
C1298 C1297 1.373 . S
C1299 C1283 1.377 . S
C1299 C1297 1.389 . S
C1299 C1300 1.524 . S
C1300 C1299 1.524 . S
C1300 C1301 1.397 . S
C1300 C1305 1.363 . S
C1301 H1272 0.950 . S
C1301 C1300 1.397 . S
C1301 C1302 1.334 . S
C1302 H1273 0.950 . S
C1302 C1301 1.334 . S
C1302 C1303 1.287 . S
C1303 C1302 1.287 . S
C1303 C1304 1.524 . S
C1303 H1306 0.999 . S
C1304 H1274 0.950 . S
C1304 C1303 1.524 . S
C1304 C1305 1.415 . S
C1305 H1275 0.950 . S
C1305 C1300 1.363 . S
C1305 C1304 1.415 . S
H1306 C1303 0.999 . S
H1307 C1288 0.913 . S
H1308 C1326 0.951 . S
H1309 C1328 0.951 . S
H1310 C1330 0.950 . S
H1311 C1331 0.950 . S
H1312 C1333 0.950 . S
H1313 C1336 0.950 . S
H1314 C1337 0.950 . S
H1315 C1339 0.950 . S
H1316 C1340 0.950 . S
H1317 C1341 0.951 . S
H1318 C1343 0.951 . S
H1319 C1345 0.950 . S
H1320 C1346 0.950 . S
H1321 C1348 0.950 . S
H1322 C1351 0.950 . S
H1323 C1352 0.950 . S
H1324 C1354 0.950 . S
H1325 C1355 0.950 . S
C1326 H1308 0.951 . S
C1326 C1327 1.366 . S
C1326 C1328 1.388 . S
C1327 C1326 1.366 . S
C1327 C1331 1.385 . S
C1328 H1309 0.951 . S
C1328 C1326 1.388 . S
C1328 C1329 1.366 . S
C1329 C1328 1.366 . S
C1329 C1330 1.414 . S
C1329 C1332 1.499 . S
C1330 H1310 0.950 . S
C1330 C1329 1.414 . S
C1330 C1331 1.374 . S
C1331 H1311 0.950 . S
C1331 C1327 1.385 . S
C1331 C1330 1.374 . S
C1332 C1329 1.499 . S
C1332 C1333 1.373 . S
C1332 C1334 1.389 . S
C1333 H1312 0.950 . S
C1333 C1332 1.373 . S
C1333 C1349 1.377 . S
C1334 C1332 1.389 . S
C1334 C1335 1.524 . S
C1334 C1348 1.377 . S
C1335 C1334 1.524 . S
C1335 C1336 1.397 . S
C1335 C1340 1.363 . S
C1336 H1313 0.950 . S
C1336 C1335 1.397 . S
C1336 C1337 1.334 . S
C1337 H1314 0.950 . S
C1337 C1336 1.334 . S
C1337 C1338 1.287 . S
C1338 C1337 1.287 . S
C1338 C1339 1.524 . S
C1338 H1357 0.913 . S
C1339 H1315 0.950 . S
C1339 C1338 1.524 . S
C1339 C1340 1.415 . S
C1340 H1316 0.950 . S
C1340 C1335 1.363 . S
C1340 C1339 1.415 . S
C1341 H1317 0.951 . S
C1341 C1342 1.366 . S
C1341 C1343 1.388 . S
C1342 C1341 1.366 . S
C1342 C1346 1.385 . S
C1343 H1318 0.951 . S
C1343 C1341 1.388 . S
C1343 C1344 1.366 . S
C1344 C1343 1.366 . S
C1344 C1345 1.414 . S
C1344 C1347 1.499 . S
C1345 H1319 0.950 . S
C1345 C1344 1.414 . S
C1345 C1346 1.374 . S
C1346 H1320 0.950 . S
C1346 C1342 1.385 . S
C1346 C1345 1.374 . S
C1347 C1344 1.499 . S
C1347 C1348 1.373 . S
C1347 C1349 1.389 . S
C1348 H1321 0.950 . S
C1348 C1334 1.377 . S
C1348 C1347 1.373 . S
C1349 C1333 1.377 . S
C1349 C1347 1.389 . S
C1349 C1350 1.524 . S
C1350 C1349 1.524 . S
C1350 C1351 1.397 . S
C1350 C1355 1.363 . S
C1351 H1322 0.950 . S
C1351 C1350 1.397 . S
C1351 C1352 1.334 . S
C1352 H1323 0.950 . S
C1352 C1351 1.334 . S
C1352 C1353 1.287 . S
C1353 C1352 1.287 . S
C1353 C1354 1.524 . S
C1353 H1356 0.999 . S
C1354 H1324 0.950 . S
C1354 C1353 1.524 . S
C1354 C1355 1.415 . S
C1355 H1325 0.950 . S
C1355 C1350 1.363 . S
C1355 C1354 1.415 . S
H1356 C1353 0.999 . S
H1357 C1338 0.913 . S
H1358 C1376 0.951 . S
H1359 C1378 0.951 . S
H1360 C1380 0.950 . S
H1361 C1381 0.950 . S
H1362 C1383 0.950 . S
H1363 C1386 0.950 . S
H1364 C1387 0.950 . S
H1365 C1389 0.950 . S
H1366 C1390 0.950 . S
H1367 C1391 0.951 . S
H1368 C1393 0.951 . S
H1369 C1395 0.950 . S
H1370 C1396 0.950 . S
H1371 C1398 0.950 . S
H1372 C1401 0.950 . S
H1373 C1402 0.950 . S
H1374 C1404 0.950 . S
H1375 C1405 0.950 . S
C1376 H1358 0.951 . S
C1376 C1377 1.366 . S
C1376 C1378 1.388 . S
C1377 C1376 1.366 . S
C1377 C1381 1.385 . S
C1378 H1359 0.951 . S
C1378 C1376 1.388 . S
C1378 C1379 1.366 . S
C1379 C1378 1.366 . S
C1379 C1380 1.414 . S
C1379 C1382 1.499 . S
C1380 H1360 0.950 . S
C1380 C1379 1.414 . S
C1380 C1381 1.374 . S
C1381 H1361 0.950 . S
C1381 C1377 1.385 . S
C1381 C1380 1.374 . S
C1382 C1379 1.499 . S
C1382 C1383 1.373 . S
C1382 C1384 1.389 . S
C1383 H1362 0.950 . S
C1383 C1382 1.373 . S
C1383 C1399 1.377 . S
C1384 C1382 1.389 . S
C1384 C1385 1.524 . S
C1384 C1398 1.377 . S
C1385 C1384 1.524 . S
C1385 C1386 1.397 . S
C1385 C1390 1.363 . S
C1386 H1363 0.950 . S
C1386 C1385 1.397 . S
C1386 C1387 1.334 . S
C1387 H1364 0.950 . S
C1387 C1386 1.334 . S
C1387 C1388 1.287 . S
C1388 C1387 1.287 . S
C1388 C1389 1.524 . S
C1388 H1407 0.913 . S
C1389 H1365 0.950 . S
C1389 C1388 1.524 . S
C1389 C1390 1.415 . S
C1390 H1366 0.950 . S
C1390 C1385 1.363 . S
C1390 C1389 1.415 . S
C1391 H1367 0.951 . S
C1391 C1392 1.366 . S
C1391 C1393 1.388 . S
C1392 C1391 1.366 . S
C1392 C1396 1.385 . S
C1393 H1368 0.951 . S
C1393 C1391 1.388 . S
C1393 C1394 1.366 . S
C1394 C1393 1.366 . S
C1394 C1395 1.414 . S
C1394 C1397 1.499 . S
C1395 H1369 0.950 . S
C1395 C1394 1.414 . S
C1395 C1396 1.374 . S
C1396 H1370 0.950 . S
C1396 C1392 1.385 . S
C1396 C1395 1.374 . S
C1397 C1394 1.499 . S
C1397 C1398 1.373 . S
C1397 C1399 1.389 . S
C1398 H1371 0.950 . S
C1398 C1384 1.377 . S
C1398 C1397 1.373 . S
C1399 C1383 1.377 . S
C1399 C1397 1.389 . S
C1399 C1400 1.524 . S
C1400 C1399 1.524 . S
C1400 C1401 1.397 . S
C1400 C1405 1.363 . S
C1401 H1372 0.950 . S
C1401 C1400 1.397 . S
C1401 C1402 1.334 . S
C1402 H1373 0.950 . S
C1402 C1401 1.334 . S
C1402 C1403 1.287 . S
C1403 C1402 1.287 . S
C1403 C1404 1.524 . S
C1403 H1406 0.999 . S
C1404 H1374 0.950 . S
C1404 C1403 1.524 . S
C1404 C1405 1.415 . S
C1405 H1375 0.950 . S
C1405 C1400 1.363 . S
C1405 C1404 1.415 . S
H1406 C1403 0.999 . S
H1407 C1388 0.913 . S
H1408 C1426 0.951 . S
H1409 C1428 0.951 . S
H1410 C1430 0.950 . S
H1411 C1431 0.950 . S
H1412 C1433 0.950 . S
H1413 C1436 0.950 . S
H1414 C1437 0.950 . S
H1415 C1439 0.950 . S
H1416 C1440 0.950 . S
H1417 C1441 0.951 . S
H1418 C1443 0.951 . S
H1419 C1445 0.950 . S
H1420 C1446 0.950 . S
H1421 C1448 0.950 . S
H1422 C1451 0.950 . S
H1423 C1452 0.950 . S
H1424 C1454 0.950 . S
H1425 C1455 0.950 . S
C1426 H1408 0.951 . S
C1426 C1427 1.366 . S
C1426 C1428 1.388 . S
C1427 C1426 1.366 . S
C1427 C1431 1.385 . S
C1428 H1409 0.951 . S
C1428 C1426 1.388 . S
C1428 C1429 1.366 . S
C1429 C1428 1.366 . S
C1429 C1430 1.414 . S
C1429 C1432 1.499 . S
C1430 H1410 0.950 . S
C1430 C1429 1.414 . S
C1430 C1431 1.374 . S
C1431 H1411 0.950 . S
C1431 C1427 1.385 . S
C1431 C1430 1.374 . S
C1432 C1429 1.499 . S
C1432 C1433 1.373 . S
C1432 C1434 1.389 . S
C1433 H1412 0.950 . S
C1433 C1432 1.373 . S
C1433 C1449 1.377 . S
C1434 C1432 1.389 . S
C1434 C1435 1.524 . S
C1434 C1448 1.377 . S
C1435 C1434 1.524 . S
C1435 C1436 1.397 . S
C1435 C1440 1.363 . S
C1436 H1413 0.950 . S
C1436 C1435 1.397 . S
C1436 C1437 1.334 . S
C1437 H1414 0.950 . S
C1437 C1436 1.334 . S
C1437 C1438 1.287 . S
C1438 C1437 1.287 . S
C1438 C1439 1.524 . S
C1438 H1457 0.913 . S
C1439 H1415 0.950 . S
C1439 C1438 1.524 . S
C1439 C1440 1.415 . S
C1440 H1416 0.950 . S
C1440 C1435 1.363 . S
C1440 C1439 1.415 . S
C1441 H1417 0.951 . S
C1441 C1442 1.366 . S
C1441 C1443 1.388 . S
C1442 C1441 1.366 . S
C1442 C1446 1.385 . S
C1443 H1418 0.951 . S
C1443 C1441 1.388 . S
C1443 C1444 1.366 . S
C1444 C1443 1.366 . S
C1444 C1445 1.414 . S
C1444 C1447 1.499 . S
C1445 H1419 0.950 . S
C1445 C1444 1.414 . S
C1445 C1446 1.374 . S
C1446 H1420 0.950 . S
C1446 C1442 1.385 . S
C1446 C1445 1.374 . S
C1447 C1444 1.499 . S
C1447 C1448 1.373 . S
C1447 C1449 1.389 . S
C1448 H1421 0.950 . S
C1448 C1434 1.377 . S
C1448 C1447 1.373 . S
C1449 C1433 1.377 . S
C1449 C1447 1.389 . S
C1449 C1450 1.524 . S
C1450 C1449 1.524 . S
C1450 C1451 1.397 . S
C1450 C1455 1.363 . S
C1451 H1422 0.950 . S
C1451 C1450 1.397 . S
C1451 C1452 1.334 1_556 S
C1452 H1423 0.950 . S
C1452 C1451 1.334 1_554 S
C1452 C1453 1.287 . S
C1453 C1452 1.287 . S
C1453 C1454 1.524 . S
C1453 H1456 0.999 . S
C1454 H1424 0.950 . S
C1454 C1453 1.524 . S
C1454 C1455 1.415 1_554 S
C1455 H1425 0.950 . S
C1455 C1450 1.363 . S
C1455 C1454 1.415 1_556 S
H1456 C1453 0.999 . S
H1457 C1438 0.913 . S
H1458 C1476 0.951 . S
H1459 C1478 0.951 . S
H1460 C1480 0.950 . S
H1461 C1481 0.950 . S
H1462 C1483 0.950 . S
H1463 C1486 0.950 . S
H1464 C1487 0.950 . S
H1465 C1489 0.950 . S
H1466 C1490 0.950 . S
H1467 C1491 0.951 . S
H1468 C1493 0.951 . S
H1469 C1495 0.950 . S
H1470 C1496 0.950 . S
H1471 C1498 0.950 . S
H1472 C1501 0.950 . S
H1473 C1502 0.950 . S
H1474 C1504 0.950 . S
H1475 C1505 0.950 . S
C1476 H1458 0.951 . S
C1476 C1477 1.366 . S
C1476 C1478 1.388 . S
C1477 C1476 1.366 . S
C1477 C1481 1.385 . S
C1478 H1459 0.951 . S
C1478 C1476 1.388 . S
C1478 C1479 1.366 . S
C1479 C1478 1.366 . S
C1479 C1480 1.414 . S
C1479 C1482 1.499 . S
C1480 H1460 0.950 . S
C1480 C1479 1.414 . S
C1480 C1481 1.374 . S
C1481 H1461 0.950 . S
C1481 C1477 1.385 . S
C1481 C1480 1.374 . S
C1482 C1479 1.499 . S
C1482 C1483 1.373 . S
C1482 C1484 1.389 . S
C1483 H1462 0.950 . S
C1483 C1482 1.373 . S
C1483 C1499 1.377 . S
C1484 C1482 1.389 . S
C1484 C1485 1.524 . S
C1484 C1498 1.377 . S
C1485 C1484 1.524 . S
C1485 C1486 1.397 . S
C1485 C1490 1.363 . S
C1486 H1463 0.950 . S
C1486 C1485 1.397 . S
C1486 C1487 1.334 . S
C1487 H1464 0.950 . S
C1487 C1486 1.334 . S
C1487 C1488 1.287 . S
C1488 C1487 1.287 . S
C1488 C1489 1.524 . S
C1488 H1507 0.913 . S
C1489 H1465 0.950 . S
C1489 C1488 1.524 . S
C1489 C1490 1.415 . S
C1490 H1466 0.950 . S
C1490 C1485 1.363 . S
C1490 C1489 1.415 . S
C1491 H1467 0.951 . S
C1491 C1492 1.366 . S
C1491 C1493 1.388 . S
C1492 C1491 1.366 . S
C1492 C1496 1.385 . S
C1493 H1468 0.951 . S
C1493 C1491 1.388 . S
C1493 C1494 1.366 . S
C1494 C1493 1.366 . S
C1494 C1495 1.414 . S
C1494 C1497 1.499 . S
C1495 H1469 0.950 . S
C1495 C1494 1.414 . S
C1495 C1496 1.374 . S
C1496 H1470 0.950 . S
C1496 C1492 1.385 . S
C1496 C1495 1.374 . S
C1497 C1494 1.499 . S
C1497 C1498 1.373 . S
C1497 C1499 1.389 . S
C1498 H1471 0.950 . S
C1498 C1484 1.377 . S
C1498 C1497 1.373 . S
C1499 C1483 1.377 . S
C1499 C1497 1.389 . S
C1499 C1500 1.524 . S
C1500 C1499 1.524 . S
C1500 C1501 1.397 . S
C1500 C1505 1.363 . S
C1501 H1472 0.950 . S
C1501 C1500 1.397 . S
C1501 C1502 1.334 . S
C1502 H1473 0.950 . S
C1502 C1501 1.334 . S
C1502 C1503 1.287 . S
C1503 C1502 1.287 . S
C1503 C1504 1.524 . S
C1503 H1506 0.999 . S
C1504 H1474 0.950 . S
C1504 C1503 1.524 . S
C1504 C1505 1.415 . S
C1505 H1475 0.950 . S
C1505 C1500 1.363 . S
C1505 C1504 1.415 . S
H1506 C1503 0.999 . S
H1507 C1488 0.913 . S
H1508 C1526 0.951 . S
H1509 C1528 0.951 . S
H1510 C1530 0.950 . S
H1511 C1531 0.950 . S
H1512 C1533 0.950 . S
H1513 C1536 0.950 . S
H1514 C1537 0.950 . S
H1515 C1539 0.950 . S
H1516 C1540 0.950 . S
H1517 C1541 0.951 1_554 S
H1518 C1543 0.951 . S
H1519 C1545 0.950 . S
H1520 C1546 0.950 . S
H1521 C1548 0.950 . S
H1522 C1551 0.950 . S
H1523 C1552 0.950 . S
H1524 C1554 0.950 1_554 S
H1525 C1555 0.950 . S
C1526 H1508 0.951 . S
C1526 C1527 1.366 . S
C1526 C1528 1.388 . S
C1527 C1526 1.366 . S
C1527 C1531 1.385 . S
C1528 H1509 0.951 . S
C1528 C1526 1.388 . S
C1528 C1529 1.366 . S
C1529 C1528 1.366 . S
C1529 C1530 1.414 . S
C1529 C1532 1.499 . S
C1530 H1510 0.950 . S
C1530 C1529 1.414 . S
C1530 C1531 1.374 . S
C1531 H1511 0.950 . S
C1531 C1527 1.385 . S
C1531 C1530 1.374 . S
C1532 C1529 1.499 . S
C1532 C1533 1.373 . S
C1532 C1534 1.389 . S
C1533 H1512 0.950 . S
C1533 C1532 1.373 . S
C1533 C1549 1.377 . S
C1534 C1532 1.389 . S
C1534 C1535 1.524 . S
C1534 C1548 1.377 . S
C1535 C1534 1.524 . S
C1535 C1536 1.397 . S
C1535 C1540 1.363 . S
C1536 H1513 0.950 . S
C1536 C1535 1.397 . S
C1536 C1537 1.334 . S
C1537 H1514 0.950 . S
C1537 C1536 1.334 . S
C1537 C1538 1.287 . S
C1538 C1537 1.287 . S
C1538 C1539 1.524 . S
C1538 H1557 0.913 . S
C1539 H1515 0.950 . S
C1539 C1538 1.524 . S
C1539 C1540 1.415 . S
C1540 H1516 0.950 . S
C1540 C1535 1.363 . S
C1540 C1539 1.415 . S
C1541 H1517 0.951 1_556 S
C1541 C1542 1.366 . S
C1541 C1543 1.388 . S
C1542 C1541 1.366 . S
C1542 C1546 1.385 . S
C1543 H1518 0.951 . S
C1543 C1541 1.388 . S
C1543 C1544 1.366 . S
C1544 C1543 1.366 . S
C1544 C1545 1.414 . S
C1544 C1547 1.499 . S
C1545 H1519 0.950 . S
C1545 C1544 1.414 . S
C1545 C1546 1.374 . S
C1546 H1520 0.950 . S
C1546 C1542 1.385 . S
C1546 C1545 1.374 . S
C1547 C1544 1.499 . S
C1547 C1548 1.373 . S
C1547 C1549 1.389 . S
C1548 H1521 0.950 . S
C1548 C1534 1.377 . S
C1548 C1547 1.373 . S
C1549 C1533 1.377 . S
C1549 C1547 1.389 . S
C1549 C1550 1.524 . S
C1550 C1549 1.524 . S
C1550 C1551 1.397 . S
C1550 C1555 1.363 . S
C1551 H1522 0.950 . S
C1551 C1550 1.397 . S
C1551 C1552 1.334 . S
C1552 H1523 0.950 . S
C1552 C1551 1.334 . S
C1552 C1553 1.287 . S
C1553 C1552 1.287 . S
C1553 C1554 1.524 . S
C1553 H1556 0.999 1_556 S
C1554 H1524 0.950 1_556 S
C1554 C1553 1.524 . S
C1554 C1555 1.415 . S
C1555 H1525 0.950 . S
C1555 C1550 1.363 . S
C1555 C1554 1.415 . S
H1556 C1553 0.999 1_554 S
H1557 C1538 0.913 . S
H1558 C1576 0.951 . S
H1559 C1578 0.951 . S
H1560 C1580 0.950 . S
H1561 C1581 0.950 . S
H1562 C1583 0.950 . S
H1563 C1586 0.950 . S
H1564 C1587 0.950 . S
H1565 C1589 0.950 . S
H1566 C1590 0.950 . S
H1567 C1591 0.951 . S
H1568 C1593 0.951 . S
H1569 C1595 0.950 . S
H1570 C1596 0.950 . S
H1571 C1598 0.950 . S
H1572 C1601 0.950 . S
H1573 C1602 0.950 . S
H1574 C1604 0.950 . S
H1575 C1605 0.950 . S
C1576 H1558 0.951 . S
C1576 C1577 1.366 . S
C1576 C1578 1.388 . S
C1577 C1576 1.366 . S
C1577 C1581 1.385 . S
C1578 H1559 0.951 . S
C1578 C1576 1.388 . S
C1578 C1579 1.366 . S
C1579 C1578 1.366 . S
C1579 C1580 1.414 . S
C1579 C1582 1.499 . S
C1580 H1560 0.950 . S
C1580 C1579 1.414 . S
C1580 C1581 1.374 . S
C1581 H1561 0.950 . S
C1581 C1577 1.385 . S
C1581 C1580 1.374 . S
C1582 C1579 1.499 . S
C1582 C1583 1.373 . S
C1582 C1584 1.389 . S
C1583 H1562 0.950 . S
C1583 C1582 1.373 . S
C1583 C1599 1.377 . S
C1584 C1582 1.389 . S
C1584 C1585 1.524 . S
C1584 C1598 1.377 . S
C1585 C1584 1.524 . S
C1585 C1586 1.397 . S
C1585 C1590 1.363 . S
C1586 H1563 0.950 . S
C1586 C1585 1.397 . S
C1586 C1587 1.334 . S
C1587 H1564 0.950 . S
C1587 C1586 1.334 . S
C1587 C1588 1.287 . S
C1588 C1587 1.287 . S
C1588 C1589 1.524 . S
C1588 H1607 0.913 . S
C1589 H1565 0.950 . S
C1589 C1588 1.524 . S
C1589 C1590 1.415 . S
C1590 H1566 0.950 . S
C1590 C1585 1.363 . S
C1590 C1589 1.415 . S
C1591 H1567 0.951 . S
C1591 C1592 1.366 . S
C1591 C1593 1.388 . S
C1592 C1591 1.366 . S
C1592 C1596 1.385 . S
C1593 H1568 0.951 . S
C1593 C1591 1.388 . S
C1593 C1594 1.366 . S
C1594 C1593 1.366 . S
C1594 C1595 1.414 . S
C1594 C1597 1.499 . S
C1595 H1569 0.950 . S
C1595 C1594 1.414 . S
C1595 C1596 1.374 . S
C1596 H1570 0.950 . S
C1596 C1592 1.385 . S
C1596 C1595 1.374 . S
C1597 C1594 1.499 . S
C1597 C1598 1.373 . S
C1597 C1599 1.389 . S
C1598 H1571 0.950 . S
C1598 C1584 1.377 . S
C1598 C1597 1.373 . S
C1599 C1583 1.377 . S
C1599 C1597 1.389 . S
C1599 C1600 1.524 . S
C1600 C1599 1.524 . S
C1600 C1601 1.397 . S
C1600 C1605 1.363 . S
C1601 H1572 0.950 . S
C1601 C1600 1.397 . S
C1601 C1602 1.334 . S
C1602 H1573 0.950 . S
C1602 C1601 1.334 . S
C1602 C1603 1.287 . S
C1603 C1602 1.287 . S
C1603 C1604 1.524 . S
C1603 H1606 0.999 . S
C1604 H1574 0.950 . S
C1604 C1603 1.524 . S
C1604 C1605 1.415 . S
C1605 H1575 0.950 . S
C1605 C1600 1.363 . S
C1605 C1604 1.415 . S
H1606 C1603 0.999 . S
H1607 C1588 0.913 . S
H1608 C1626 0.951 . S
H1609 C1628 0.951 . S
H1610 C1630 0.950 . S
H1611 C1631 0.950 . S
H1612 C1633 0.950 . S
H1613 C1636 0.950 . S
H1614 C1637 0.950 . S
H1615 C1639 0.950 . S
H1616 C1640 0.950 . S
H1617 C1641 0.951 . S
H1618 C1643 0.951 . S
H1619 C1645 0.950 . S
H1620 C1646 0.950 . S
H1621 C1648 0.950 . S
H1622 C1651 0.950 . S
H1623 C1652 0.950 . S
H1624 C1654 0.950 . S
H1625 C1655 0.950 . S
C1626 H1608 0.951 . S
C1626 C1627 1.366 . S
C1626 C1628 1.388 . S
C1627 C1626 1.366 . S
C1627 C1631 1.385 . S
C1628 H1609 0.951 . S
C1628 C1626 1.388 . S
C1628 C1629 1.366 . S
C1629 C1628 1.366 . S
C1629 C1630 1.414 . S
C1629 C1632 1.499 . S
C1630 H1610 0.950 . S
C1630 C1629 1.414 . S
C1630 C1631 1.374 . S
C1631 H1611 0.950 . S
C1631 C1627 1.385 . S
C1631 C1630 1.374 . S
C1632 C1629 1.499 . S
C1632 C1633 1.373 . S
C1632 C1634 1.389 . S
C1633 H1612 0.950 . S
C1633 C1632 1.373 . S
C1633 C1649 1.377 . S
C1634 C1632 1.389 . S
C1634 C1635 1.524 . S
C1634 C1648 1.377 . S
C1635 C1634 1.524 . S
C1635 C1636 1.397 . S
C1635 C1640 1.363 . S
C1636 H1613 0.950 . S
C1636 C1635 1.397 . S
C1636 C1637 1.334 . S
C1637 H1614 0.950 . S
C1637 C1636 1.334 . S
C1637 C1638 1.287 . S
C1638 C1637 1.287 . S
C1638 C1639 1.524 . S
C1638 H1657 0.913 . S
C1639 H1615 0.950 . S
C1639 C1638 1.524 . S
C1639 C1640 1.415 . S
C1640 H1616 0.950 . S
C1640 C1635 1.363 . S
C1640 C1639 1.415 . S
C1641 H1617 0.951 . S
C1641 C1642 1.366 . S
C1641 C1643 1.388 . S
C1642 C1641 1.366 . S
C1642 C1646 1.385 . S
C1643 H1618 0.951 . S
C1643 C1641 1.388 . S
C1643 C1644 1.366 . S
C1644 C1643 1.366 . S
C1644 C1645 1.414 . S
C1644 C1647 1.499 . S
C1645 H1619 0.950 . S
C1645 C1644 1.414 . S
C1645 C1646 1.374 . S
C1646 H1620 0.950 . S
C1646 C1642 1.385 . S
C1646 C1645 1.374 . S
C1647 C1644 1.499 . S
C1647 C1648 1.373 . S
C1647 C1649 1.389 . S
C1648 H1621 0.950 . S
C1648 C1634 1.377 . S
C1648 C1647 1.373 . S
C1649 C1633 1.377 . S
C1649 C1647 1.389 . S
C1649 C1650 1.524 . S
C1650 C1649 1.524 . S
C1650 C1651 1.397 . S
C1650 C1655 1.363 . S
C1651 H1622 0.950 . S
C1651 C1650 1.397 . S
C1651 C1652 1.334 . S
C1652 H1623 0.950 . S
C1652 C1651 1.334 . S
C1652 C1653 1.287 . S
C1653 C1652 1.287 . S
C1653 C1654 1.524 . S
C1653 H1656 0.999 . S
C1654 H1624 0.950 . S
C1654 C1653 1.524 . S
C1654 C1655 1.415 . S
C1655 H1625 0.950 . S
C1655 C1650 1.363 . S
C1655 C1654 1.415 . S
H1656 C1653 0.999 . S
H1657 C1638 0.913 . S
H1658 C1676 0.951 . S
H1659 C1678 0.951 . S
H1660 C1680 0.950 . S
H1661 C1681 0.950 . S
H1662 C1683 0.950 . S
H1663 C1686 0.950 . S
H1664 C1687 0.950 . S
H1665 C1689 0.950 . S
H1666 C1690 0.950 . S
H1667 C1691 0.951 . S
H1668 C1693 0.951 . S
H1669 C1695 0.950 . S
H1670 C1696 0.950 . S
H1671 C1698 0.950 . S
H1672 C1701 0.950 . S
H1673 C1702 0.950 . S
H1674 C1704 0.950 . S
H1675 C1705 0.950 . S
C1676 H1658 0.951 . S
C1676 C1677 1.366 . S
C1676 C1678 1.388 . S
C1677 C1676 1.366 . S
C1677 C1681 1.385 . S
C1678 H1659 0.951 . S
C1678 C1676 1.388 . S
C1678 C1679 1.366 . S
C1679 C1678 1.366 . S
C1679 C1680 1.414 . S
C1679 C1682 1.499 . S
C1680 H1660 0.950 . S
C1680 C1679 1.414 . S
C1680 C1681 1.374 . S
C1681 H1661 0.950 . S
C1681 C1677 1.385 . S
C1681 C1680 1.374 . S
C1682 C1679 1.499 . S
C1682 C1683 1.373 . S
C1682 C1684 1.389 . S
C1683 H1662 0.950 . S
C1683 C1682 1.373 . S
C1683 C1699 1.377 . S
C1684 C1682 1.389 . S
C1684 C1685 1.524 . S
C1684 C1698 1.377 . S
C1685 C1684 1.524 . S
C1685 C1686 1.397 . S
C1685 C1690 1.363 . S
C1686 H1663 0.950 . S
C1686 C1685 1.397 . S
C1686 C1687 1.334 . S
C1687 H1664 0.950 . S
C1687 C1686 1.334 . S
C1687 C1688 1.287 . S
C1688 C1687 1.287 . S
C1688 C1689 1.524 . S
C1688 H1707 0.913 . S
C1689 H1665 0.950 . S
C1689 C1688 1.524 . S
C1689 C1690 1.415 . S
C1690 H1666 0.950 . S
C1690 C1685 1.363 . S
C1690 C1689 1.415 . S
C1691 H1667 0.951 . S
C1691 C1692 1.366 . S
C1691 C1693 1.388 . S
C1692 C1691 1.366 . S
C1692 C1696 1.385 . S
C1693 H1668 0.951 . S
C1693 C1691 1.388 . S
C1693 C1694 1.366 . S
C1694 C1693 1.366 . S
C1694 C1695 1.414 . S
C1694 C1697 1.499 . S
C1695 H1669 0.950 . S
C1695 C1694 1.414 . S
C1695 C1696 1.374 . S
C1696 H1670 0.950 . S
C1696 C1692 1.385 . S
C1696 C1695 1.374 . S
C1697 C1694 1.499 . S
C1697 C1698 1.373 . S
C1697 C1699 1.389 . S
C1698 H1671 0.950 . S
C1698 C1684 1.377 . S
C1698 C1697 1.373 . S
C1699 C1683 1.377 . S
C1699 C1697 1.389 . S
C1699 C1700 1.524 . S
C1700 C1699 1.524 . S
C1700 C1701 1.397 . S
C1700 C1705 1.363 . S
C1701 H1672 0.950 . S
C1701 C1700 1.397 . S
C1701 C1702 1.334 . S
C1702 H1673 0.950 . S
C1702 C1701 1.334 . S
C1702 C1703 1.287 . S
C1703 C1702 1.287 . S
C1703 C1704 1.524 . S
C1703 H1706 0.999 . S
C1704 H1674 0.950 . S
C1704 C1703 1.524 . S
C1704 C1705 1.415 . S
C1705 H1675 0.950 . S
C1705 C1700 1.363 . S
C1705 C1704 1.415 . S
H1706 C1703 0.999 . S
H1707 C1688 0.913 . S
H1708 C1726 0.951 . S
H1709 C1728 0.951 . S
H1710 C1730 0.950 . S
H1711 C1731 0.950 . S
H1712 C1733 0.950 . S
H1713 C1736 0.950 . S
H1714 C1737 0.950 . S
H1715 C1739 0.950 . S
H1716 C1740 0.950 . S
H1717 C1741 0.951 . S
H1718 C1743 0.951 . S
H1719 C1745 0.950 . S
H1720 C1746 0.950 . S
H1721 C1748 0.950 . S
H1722 C1751 0.950 . S
H1723 C1752 0.950 . S
H1724 C1754 0.950 . S
H1725 C1755 0.950 . S
C1726 H1708 0.951 . S
C1726 C1727 1.366 . S
C1726 C1728 1.388 . S
C1727 C1726 1.366 . S
C1727 C1731 1.385 . S
C1728 H1709 0.951 . S
C1728 C1726 1.388 . S
C1728 C1729 1.366 . S
C1729 C1728 1.366 . S
C1729 C1730 1.414 . S
C1729 C1732 1.499 . S
C1730 H1710 0.950 . S
C1730 C1729 1.414 . S
C1730 C1731 1.374 . S
C1731 H1711 0.950 . S
C1731 C1727 1.385 . S
C1731 C1730 1.374 . S
C1732 C1729 1.499 . S
C1732 C1733 1.373 . S
C1732 C1734 1.389 . S
C1733 H1712 0.950 . S
C1733 C1732 1.373 . S
C1733 C1749 1.377 . S
C1734 C1732 1.389 . S
C1734 C1735 1.524 . S
C1734 C1748 1.377 . S
C1735 C1734 1.524 . S
C1735 C1736 1.397 . S
C1735 C1740 1.363 . S
C1736 H1713 0.950 . S
C1736 C1735 1.397 . S
C1736 C1737 1.334 . S
C1737 H1714 0.950 . S
C1737 C1736 1.334 . S
C1737 C1738 1.287 . S
C1738 C1737 1.287 . S
C1738 C1739 1.524 . S
C1738 H1757 0.913 . S
C1739 H1715 0.950 . S
C1739 C1738 1.524 . S
C1739 C1740 1.415 . S
C1740 H1716 0.950 . S
C1740 C1735 1.363 . S
C1740 C1739 1.415 . S
C1741 H1717 0.951 . S
C1741 C1742 1.366 . S
C1741 C1743 1.388 . S
C1742 C1741 1.366 . S
C1742 C1746 1.385 . S
C1743 H1718 0.951 . S
C1743 C1741 1.388 . S
C1743 C1744 1.366 . S
C1744 C1743 1.366 . S
C1744 C1745 1.414 . S
C1744 C1747 1.499 . S
C1745 H1719 0.950 . S
C1745 C1744 1.414 . S
C1745 C1746 1.374 . S
C1746 H1720 0.950 . S
C1746 C1742 1.385 . S
C1746 C1745 1.374 . S
C1747 C1744 1.499 . S
C1747 C1748 1.373 . S
C1747 C1749 1.389 . S
C1748 H1721 0.950 . S
C1748 C1734 1.377 . S
C1748 C1747 1.373 . S
C1749 C1733 1.377 . S
C1749 C1747 1.389 . S
C1749 C1750 1.524 . S
C1750 C1749 1.524 . S
C1750 C1751 1.397 . S
C1750 C1755 1.363 . S
C1751 H1722 0.950 . S
C1751 C1750 1.397 . S
C1751 C1752 1.334 . S
C1752 H1723 0.950 . S
C1752 C1751 1.334 . S
C1752 C1753 1.287 . S
C1753 C1752 1.287 . S
C1753 C1754 1.524 . S
C1753 H1756 0.999 . S
C1754 H1724 0.950 . S
C1754 C1753 1.524 . S
C1754 C1755 1.415 . S
C1755 H1725 0.950 . S
C1755 C1750 1.363 . S
C1755 C1754 1.415 . S
H1756 C1753 0.999 . S
H1757 C1738 0.913 . S
H1758 C1776 0.951 . S
H1759 C1778 0.951 . S
H1760 C1780 0.950 . S
H1761 C1781 0.950 . S
H1762 C1783 0.950 . S
H1763 C1786 0.950 . S
H1764 C1787 0.950 . S
H1765 C1789 0.950 . S
H1766 C1790 0.950 . S
H1767 C1791 0.951 . S
H1768 C1793 0.951 . S
H1769 C1795 0.950 . S
H1770 C1796 0.950 . S
H1771 C1798 0.950 . S
H1772 C1801 0.950 . S
H1773 C1802 0.950 . S
H1774 C1804 0.950 . S
H1775 C1805 0.950 . S
C1776 H1758 0.951 . S
C1776 C1777 1.366 . S
C1776 C1778 1.388 . S
C1777 C1776 1.366 . S
C1777 C1781 1.385 . S
C1778 H1759 0.951 . S
C1778 C1776 1.388 . S
C1778 C1779 1.366 . S
C1779 C1778 1.366 . S
C1779 C1780 1.414 . S
C1779 C1782 1.499 . S
C1780 H1760 0.950 . S
C1780 C1779 1.414 . S
C1780 C1781 1.374 . S
C1781 H1761 0.950 . S
C1781 C1777 1.385 . S
C1781 C1780 1.374 . S
C1782 C1779 1.499 . S
C1782 C1783 1.373 . S
C1782 C1784 1.389 . S
C1783 H1762 0.950 . S
C1783 C1782 1.373 . S
C1783 C1799 1.377 . S
C1784 C1782 1.389 . S
C1784 C1785 1.524 . S
C1784 C1798 1.377 . S
C1785 C1784 1.524 . S
C1785 C1786 1.397 . S
C1785 C1790 1.363 . S
C1786 H1763 0.950 . S
C1786 C1785 1.397 . S
C1786 C1787 1.334 . S
C1787 H1764 0.950 . S
C1787 C1786 1.334 . S
C1787 C1788 1.287 . S
C1788 C1787 1.287 . S
C1788 C1789 1.524 . S
C1788 H1807 0.913 . S
C1789 H1765 0.950 . S
C1789 C1788 1.524 . S
C1789 C1790 1.415 . S
C1790 H1766 0.950 . S
C1790 C1785 1.363 . S
C1790 C1789 1.415 . S
C1791 H1767 0.951 . S
C1791 C1792 1.366 . S
C1791 C1793 1.388 . S
C1792 C1791 1.366 . S
C1792 C1796 1.385 . S
C1793 H1768 0.951 . S
C1793 C1791 1.388 . S
C1793 C1794 1.366 . S
C1794 C1793 1.366 . S
C1794 C1795 1.414 . S
C1794 C1797 1.499 . S
C1795 H1769 0.950 . S
C1795 C1794 1.414 . S
C1795 C1796 1.374 . S
C1796 H1770 0.950 . S
C1796 C1792 1.385 . S
C1796 C1795 1.374 . S
C1797 C1794 1.499 . S
C1797 C1798 1.373 . S
C1797 C1799 1.389 . S
C1798 H1771 0.950 . S
C1798 C1784 1.377 . S
C1798 C1797 1.373 . S
C1799 C1783 1.377 . S
C1799 C1797 1.389 . S
C1799 C1800 1.524 . S
C1800 C1799 1.524 . S
C1800 C1801 1.397 . S
C1800 C1805 1.363 . S
C1801 H1772 0.950 . S
C1801 C1800 1.397 . S
C1801 C1802 1.334 . S
C1802 H1773 0.950 . S
C1802 C1801 1.334 . S
C1802 C1803 1.287 . S
C1803 C1802 1.287 . S
C1803 C1804 1.524 . S
C1803 H1806 0.999 1_556 S
C1804 H1774 0.950 . S
C1804 C1803 1.524 . S
C1804 C1805 1.415 . S
C1805 H1775 0.950 . S
C1805 C1800 1.363 . S
C1805 C1804 1.415 . S
H1806 C1803 0.999 1_554 S
H1807 C1788 0.913 . S
H1808 C1826 0.951 . S
H1809 C1828 0.951 . S
H1810 C1830 0.950 . S
H1811 C1831 0.950 . S
H1812 C1833 0.950 . S
H1813 C1836 0.950 . S
H1814 C1837 0.950 . S
H1815 C1839 0.950 . S
H1816 C1840 0.950 . S
H1817 C1841 0.951 . S
H1818 C1843 0.951 . S
H1819 C1845 0.950 . S
H1820 C1846 0.950 . S
H1821 C1848 0.950 . S
H1822 C1851 0.950 . S
H1823 C1852 0.950 . S
H1824 C1854 0.950 . S
H1825 C1855 0.950 . S
C1826 H1808 0.951 . S
C1826 C1827 1.366 . S
C1826 C1828 1.388 . S
C1827 C1826 1.366 . S
C1827 C1831 1.385 . S
C1828 H1809 0.951 . S
C1828 C1826 1.388 . S
C1828 C1829 1.366 . S
C1829 C1828 1.366 . S
C1829 C1830 1.414 . S
C1829 C1832 1.499 . S
C1830 H1810 0.950 . S
C1830 C1829 1.414 . S
C1830 C1831 1.374 . S
C1831 H1811 0.950 . S
C1831 C1827 1.385 . S
C1831 C1830 1.374 . S
C1832 C1829 1.499 . S
C1832 C1833 1.373 . S
C1832 C1834 1.389 . S
C1833 H1812 0.950 . S
C1833 C1832 1.373 . S
C1833 C1849 1.377 . S
C1834 C1832 1.389 . S
C1834 C1835 1.524 . S
C1834 C1848 1.377 . S
C1835 C1834 1.524 . S
C1835 C1836 1.397 . S
C1835 C1840 1.363 . S
C1836 H1813 0.950 . S
C1836 C1835 1.397 . S
C1836 C1837 1.334 . S
C1837 H1814 0.950 . S
C1837 C1836 1.334 . S
C1837 C1838 1.287 . S
C1838 C1837 1.287 . S
C1838 C1839 1.524 . S
C1838 H1857 0.913 . S
C1839 H1815 0.950 . S
C1839 C1838 1.524 . S
C1839 C1840 1.415 . S
C1840 H1816 0.950 . S
C1840 C1835 1.363 . S
C1840 C1839 1.415 . S
C1841 H1817 0.951 . S
C1841 C1842 1.366 . S
C1841 C1843 1.388 . S
C1842 C1841 1.366 . S
C1842 C1846 1.385 . S
C1843 H1818 0.951 . S
C1843 C1841 1.388 . S
C1843 C1844 1.366 . S
C1844 C1843 1.366 . S
C1844 C1845 1.414 . S
C1844 C1847 1.499 . S
C1845 H1819 0.950 . S
C1845 C1844 1.414 . S
C1845 C1846 1.374 . S
C1846 H1820 0.950 . S
C1846 C1842 1.385 . S
C1846 C1845 1.374 . S
C1847 C1844 1.499 . S
C1847 C1848 1.373 . S
C1847 C1849 1.389 . S
C1848 H1821 0.950 . S
C1848 C1834 1.377 . S
C1848 C1847 1.373 . S
C1849 C1833 1.377 . S
C1849 C1847 1.389 . S
C1849 C1850 1.524 . S
C1850 C1849 1.524 . S
C1850 C1851 1.397 . S
C1850 C1855 1.363 . S
C1851 H1822 0.950 . S
C1851 C1850 1.397 . S
C1851 C1852 1.334 . S
C1852 H1823 0.950 . S
C1852 C1851 1.334 . S
C1852 C1853 1.287 . S
C1853 C1852 1.287 . S
C1853 C1854 1.524 . S
C1853 H1856 0.999 . S
C1854 H1824 0.950 . S
C1854 C1853 1.524 . S
C1854 C1855 1.415 . S
C1855 H1825 0.950 . S
C1855 C1850 1.363 . S
C1855 C1854 1.415 . S
H1856 C1853 0.999 . S
H1857 C1838 0.913 . S
H1858 C1876 0.951 . S
H1859 C1878 0.951 . S
H1860 C1880 0.950 . S
H1861 C1881 0.950 . S
H1862 C1883 0.950 . S
H1863 C1886 0.950 . S
H1864 C1887 0.950 . S
H1865 C1889 0.950 . S
H1866 C1890 0.950 . S
H1867 C1891 0.951 . S
H1868 C1893 0.951 . S
H1869 C1895 0.950 . S
H1870 C1896 0.950 . S
H1871 C1898 0.950 . S
H1872 C1901 0.950 . S
H1873 C1902 0.950 . S
H1874 C1904 0.950 1_554 S
H1875 C1905 0.950 . S
C1876 H1858 0.951 . S
C1876 C1877 1.366 . S
C1876 C1878 1.388 . S
C1877 C1876 1.366 . S
C1877 C1881 1.385 . S
C1878 H1859 0.951 . S
C1878 C1876 1.388 . S
C1878 C1879 1.366 . S
C1879 C1878 1.366 . S
C1879 C1880 1.414 . S
C1879 C1882 1.499 . S
C1880 H1860 0.950 . S
C1880 C1879 1.414 . S
C1880 C1881 1.374 . S
C1881 H1861 0.950 . S
C1881 C1877 1.385 . S
C1881 C1880 1.374 . S
C1882 C1879 1.499 . S
C1882 C1883 1.373 . S
C1882 C1884 1.389 . S
C1883 H1862 0.950 . S
C1883 C1882 1.373 . S
C1883 C1899 1.377 . S
C1884 C1882 1.389 . S
C1884 C1885 1.524 . S
C1884 C1898 1.377 . S
C1885 C1884 1.524 . S
C1885 C1886 1.397 . S
C1885 C1890 1.363 . S
C1886 H1863 0.950 . S
C1886 C1885 1.397 . S
C1886 C1887 1.334 . S
C1887 H1864 0.950 . S
C1887 C1886 1.334 . S
C1887 C1888 1.287 . S
C1888 C1887 1.287 . S
C1888 C1889 1.524 . S
C1888 H1907 0.913 . S
C1889 H1865 0.950 . S
C1889 C1888 1.524 . S
C1889 C1890 1.415 . S
C1890 H1866 0.950 . S
C1890 C1885 1.363 . S
C1890 C1889 1.415 . S
C1891 H1867 0.951 . S
C1891 C1892 1.366 . S
C1891 C1893 1.388 . S
C1892 C1891 1.366 . S
C1892 C1896 1.385 . S
C1893 H1868 0.951 . S
C1893 C1891 1.388 . S
C1893 C1894 1.366 . S
C1894 C1893 1.366 . S
C1894 C1895 1.414 . S
C1894 C1897 1.499 . S
C1895 H1869 0.950 . S
C1895 C1894 1.414 . S
C1895 C1896 1.374 . S
C1896 H1870 0.950 . S
C1896 C1892 1.385 . S
C1896 C1895 1.374 . S
C1897 C1894 1.499 . S
C1897 C1898 1.373 . S
C1897 C1899 1.389 . S
C1898 H1871 0.950 . S
C1898 C1884 1.377 . S
C1898 C1897 1.373 . S
C1899 C1883 1.377 . S
C1899 C1897 1.389 . S
C1899 C1900 1.524 . S
C1900 C1899 1.524 . S
C1900 C1901 1.397 . S
C1900 C1905 1.363 . S
C1901 H1872 0.950 . S
C1901 C1900 1.397 . S
C1901 C1902 1.334 . S
C1902 H1873 0.950 . S
C1902 C1901 1.334 . S
C1902 C1903 1.287 1_556 S
C1903 C1902 1.287 1_554 S
C1903 C1904 1.524 1_554 S
C1903 H1906 0.999 . S
C1904 H1874 0.950 1_556 S
C1904 C1903 1.524 1_556 S
C1904 C1905 1.415 . S
C1905 H1875 0.950 . S
C1905 C1900 1.363 . S
C1905 C1904 1.415 . S
H1906 C1903 0.999 . S
H1907 C1888 0.913 . S
H1908 C1926 0.951 . S
H1909 C1928 0.951 . S
H1910 C1930 0.950 . S
H1911 C1931 0.950 . S
H1912 C1933 0.950 . S
H1913 C1936 0.950 . S
H1914 C1937 0.950 . S
H1915 C1939 0.950 . S
H1916 C1940 0.950 . S
H1917 C1941 0.951 . S
H1918 C1943 0.951 . S
H1919 C1945 0.950 . S
H1920 C1946 0.950 . S
H1921 C1948 0.950 . S
H1922 C1951 0.950 . S
H1923 C1952 0.950 . S
H1924 C1954 0.950 . S
H1925 C1955 0.950 . S
C1926 H1908 0.951 . S
C1926 C1927 1.366 . S
C1926 C1928 1.388 . S
C1927 C1926 1.366 . S
C1927 C1931 1.385 . S
C1928 H1909 0.951 . S
C1928 C1926 1.388 . S
C1928 C1929 1.366 . S
C1929 C1928 1.366 . S
C1929 C1930 1.414 . S
C1929 C1932 1.499 . S
C1930 H1910 0.950 . S
C1930 C1929 1.414 . S
C1930 C1931 1.374 . S
C1931 H1911 0.950 . S
C1931 C1927 1.385 . S
C1931 C1930 1.374 . S
C1932 C1929 1.499 . S
C1932 C1933 1.373 . S
C1932 C1934 1.389 . S
C1933 H1912 0.950 . S
C1933 C1932 1.373 . S
C1933 C1949 1.377 . S
C1934 C1932 1.389 . S
C1934 C1935 1.524 . S
C1934 C1948 1.377 . S
C1935 C1934 1.524 . S
C1935 C1936 1.397 . S
C1935 C1940 1.363 . S
C1936 H1913 0.950 . S
C1936 C1935 1.397 . S
C1936 C1937 1.334 . S
C1937 H1914 0.950 . S
C1937 C1936 1.334 . S
C1937 C1938 1.287 . S
C1938 C1937 1.287 . S
C1938 C1939 1.524 . S
C1938 H1957 0.913 . S
C1939 H1915 0.950 . S
C1939 C1938 1.524 . S
C1939 C1940 1.415 . S
C1940 H1916 0.950 . S
C1940 C1935 1.363 . S
C1940 C1939 1.415 . S
C1941 H1917 0.951 . S
C1941 C1942 1.366 . S
C1941 C1943 1.388 . S
C1942 C1941 1.366 . S
C1942 C1946 1.385 . S
C1943 H1918 0.951 . S
C1943 C1941 1.388 . S
C1943 C1944 1.366 . S
C1944 C1943 1.366 . S
C1944 C1945 1.414 . S
C1944 C1947 1.499 . S
C1945 H1919 0.950 . S
C1945 C1944 1.414 . S
C1945 C1946 1.374 . S
C1946 H1920 0.950 . S
C1946 C1942 1.385 . S
C1946 C1945 1.374 . S
C1947 C1944 1.499 . S
C1947 C1948 1.373 . S
C1947 C1949 1.389 . S
C1948 H1921 0.950 . S
C1948 C1934 1.377 . S
C1948 C1947 1.373 . S
C1949 C1933 1.377 . S
C1949 C1947 1.389 . S
C1949 C1950 1.524 . S
C1950 C1949 1.524 . S
C1950 C1951 1.397 . S
C1950 C1955 1.363 . S
C1951 H1922 0.950 . S
C1951 C1950 1.397 . S
C1951 C1952 1.334 . S
C1952 H1923 0.950 . S
C1952 C1951 1.334 . S
C1952 C1953 1.287 . S
C1953 C1952 1.287 . S
C1953 C1954 1.524 . S
C1953 H1956 0.999 . S
C1954 H1924 0.950 . S
C1954 C1953 1.524 . S
C1954 C1955 1.415 . S
C1955 H1925 0.950 . S
C1955 C1950 1.363 . S
C1955 C1954 1.415 . S
H1956 C1953 0.999 . S
H1957 C1938 0.913 . S
H1958 C1976 0.951 . S
H1959 C1978 0.951 . S
H1960 C1980 0.950 . S
H1961 C1981 0.950 . S
H1962 C1983 0.950 . S
H1963 C1986 0.950 . S
H1964 C1987 0.950 . S
H1965 C1989 0.950 . S
H1966 C1990 0.950 . S
H1967 C1991 0.951 . S
H1968 C1993 0.951 . S
H1969 C1995 0.950 . S
H1970 C1996 0.950 . S
H1971 C1998 0.950 . S
H1972 C2001 0.950 . S
H1973 C2002 0.950 . S
H1974 C2004 0.950 . S
H1975 C2005 0.950 . S
C1976 H1958 0.951 . S
C1976 C1977 1.366 . S
C1976 C1978 1.388 . S
C1977 C1976 1.366 . S
C1977 C1981 1.385 . S
C1978 H1959 0.951 . S
C1978 C1976 1.388 . S
C1978 C1979 1.366 . S
C1979 C1978 1.366 . S
C1979 C1980 1.414 . S
C1979 C1982 1.499 . S
C1980 H1960 0.950 . S
C1980 C1979 1.414 . S
C1980 C1981 1.374 . S
C1981 H1961 0.950 . S
C1981 C1977 1.385 . S
C1981 C1980 1.374 . S
C1982 C1979 1.499 . S
C1982 C1983 1.373 . S
C1982 C1984 1.389 . S
C1983 H1962 0.950 . S
C1983 C1982 1.373 . S
C1983 C1999 1.377 . S
C1984 C1982 1.389 . S
C1984 C1985 1.524 . S
C1984 C1998 1.377 . S
C1985 C1984 1.524 . S
C1985 C1986 1.397 . S
C1985 C1990 1.363 . S
C1986 H1963 0.950 . S
C1986 C1985 1.397 . S
C1986 C1987 1.334 . S
C1987 H1964 0.950 . S
C1987 C1986 1.334 . S
C1987 C1988 1.287 . S
C1988 C1987 1.287 . S
C1988 C1989 1.524 . S
C1988 H2007 0.913 . S
C1989 H1965 0.950 . S
C1989 C1988 1.524 . S
C1989 C1990 1.415 . S
C1990 H1966 0.950 . S
C1990 C1985 1.363 . S
C1990 C1989 1.415 . S
C1991 H1967 0.951 . S
C1991 C1992 1.366 . S
C1991 C1993 1.388 . S
C1992 C1991 1.366 . S
C1992 C1996 1.385 . S
C1993 H1968 0.951 . S
C1993 C1991 1.388 . S
C1993 C1994 1.366 . S
C1994 C1993 1.366 . S
C1994 C1995 1.414 . S
C1994 C1997 1.499 . S
C1995 H1969 0.950 . S
C1995 C1994 1.414 . S
C1995 C1996 1.374 . S
C1996 H1970 0.950 . S
C1996 C1992 1.385 . S
C1996 C1995 1.374 . S
C1997 C1994 1.499 . S
C1997 C1998 1.373 . S
C1997 C1999 1.389 . S
C1998 H1971 0.950 . S
C1998 C1984 1.377 . S
C1998 C1997 1.373 . S
C1999 C1983 1.377 . S
C1999 C1997 1.389 . S
C1999 C2000 1.524 . S
C2000 C1999 1.524 . S
C2000 C2001 1.397 . S
C2000 C2005 1.363 . S
C2001 H1972 0.950 . S
C2001 C2000 1.397 . S
C2001 C2002 1.334 . S
C2002 H1973 0.950 . S
C2002 C2001 1.334 . S
C2002 C2003 1.287 . S
C2003 C2002 1.287 . S
C2003 C2004 1.524 . S
C2003 H2006 0.999 . S
C2004 H1974 0.950 . S
C2004 C2003 1.524 . S
C2004 C2005 1.415 . S
C2005 H1975 0.950 . S
C2005 C2000 1.363 . S
C2005 C2004 1.415 . S
H2006 C2003 0.999 . S
H2007 C1988 0.913 . S
H2008 C2026 0.951 . S
H2009 C2028 0.951 . S
H2010 C2030 0.950 . S
H2011 C2031 0.950 . S
H2012 C2033 0.950 . S
H2013 C2036 0.950 . S
H2014 C2037 0.950 . S
H2015 C2039 0.950 . S
H2016 C2040 0.950 . S
H2017 C2041 0.951 . S
H2018 C2043 0.951 . S
H2019 C2045 0.950 . S
H2020 C2046 0.950 . S
H2021 C2048 0.950 . S
H2022 C2051 0.950 . S
H2023 C2052 0.950 . S
H2024 C2054 0.950 . S
H2025 C2055 0.950 . S
C2026 H2008 0.951 . S
C2026 C2027 1.366 . S
C2026 C2028 1.388 . S
C2027 C2026 1.366 . S
C2027 C2031 1.385 . S
C2028 H2009 0.951 . S
C2028 C2026 1.388 . S
C2028 C2029 1.366 . S
C2029 C2028 1.366 . S
C2029 C2030 1.414 . S
C2029 C2032 1.499 . S
C2030 H2010 0.950 . S
C2030 C2029 1.414 . S
C2030 C2031 1.374 . S
C2031 H2011 0.950 . S
C2031 C2027 1.385 . S
C2031 C2030 1.374 . S
C2032 C2029 1.499 . S
C2032 C2033 1.373 . S
C2032 C2034 1.389 . S
C2033 H2012 0.950 . S
C2033 C2032 1.373 . S
C2033 C2049 1.377 . S
C2034 C2032 1.389 . S
C2034 C2035 1.524 . S
C2034 C2048 1.377 . S
C2035 C2034 1.524 . S
C2035 C2036 1.397 . S
C2035 C2040 1.363 . S
C2036 H2013 0.950 . S
C2036 C2035 1.397 . S
C2036 C2037 1.334 . S
C2037 H2014 0.950 . S
C2037 C2036 1.334 . S
C2037 C2038 1.287 . S
C2038 C2037 1.287 . S
C2038 C2039 1.524 . S
C2038 H2057 0.913 . S
C2039 H2015 0.950 . S
C2039 C2038 1.524 . S
C2039 C2040 1.415 . S
C2040 H2016 0.950 . S
C2040 C2035 1.363 . S
C2040 C2039 1.415 . S
C2041 H2017 0.951 . S
C2041 C2042 1.366 . S
C2041 C2043 1.388 . S
C2042 C2041 1.366 . S
C2042 C2046 1.385 . S
C2043 H2018 0.951 . S
C2043 C2041 1.388 . S
C2043 C2044 1.366 . S
C2044 C2043 1.366 . S
C2044 C2045 1.414 . S
C2044 C2047 1.499 . S
C2045 H2019 0.950 . S
C2045 C2044 1.414 . S
C2045 C2046 1.374 . S
C2046 H2020 0.950 . S
C2046 C2042 1.385 . S
C2046 C2045 1.374 . S
C2047 C2044 1.499 . S
C2047 C2048 1.373 . S
C2047 C2049 1.389 . S
C2048 H2021 0.950 . S
C2048 C2034 1.377 . S
C2048 C2047 1.373 . S
C2049 C2033 1.377 . S
C2049 C2047 1.389 . S
C2049 C2050 1.524 . S
C2050 C2049 1.524 . S
C2050 C2051 1.397 . S
C2050 C2055 1.363 . S
C2051 H2022 0.950 . S
C2051 C2050 1.397 . S
C2051 C2052 1.334 . S
C2052 H2023 0.950 . S
C2052 C2051 1.334 . S
C2052 C2053 1.287 . S
C2053 C2052 1.287 . S
C2053 C2054 1.524 . S
C2053 H2056 0.999 . S
C2054 H2024 0.950 . S
C2054 C2053 1.524 . S
C2054 C2055 1.415 . S
C2055 H2025 0.950 . S
C2055 C2050 1.363 . S
C2055 C2054 1.415 . S
H2056 C2053 0.999 . S
H2057 C2038 0.913 . S
H2058 C2076 0.951 . S
H2059 C2078 0.951 . S
H2060 C2080 0.950 . S
H2061 C2081 0.950 . S
H2062 C2083 0.950 . S
H2063 C2086 0.950 . S
H2064 C2087 0.950 . S
H2065 C2089 0.950 . S
H2066 C2090 0.950 . S
H2067 C2091 0.951 . S
H2068 C2093 0.951 . S
H2069 C2095 0.950 . S
H2070 C2096 0.950 . S
H2071 C2098 0.950 . S
H2072 C2101 0.950 . S
H2073 C2102 0.950 . S
H2074 C2104 0.950 . S
H2075 C2105 0.950 . S
C2076 H2058 0.951 . S
C2076 C2077 1.366 . S
C2076 C2078 1.388 . S
C2077 C2076 1.366 . S
C2077 C2081 1.385 . S
C2078 H2059 0.951 . S
C2078 C2076 1.388 . S
C2078 C2079 1.366 . S
C2079 C2078 1.366 . S
C2079 C2080 1.414 . S
C2079 C2082 1.499 . S
C2080 H2060 0.950 . S
C2080 C2079 1.414 . S
C2080 C2081 1.374 . S
C2081 H2061 0.950 . S
C2081 C2077 1.385 . S
C2081 C2080 1.374 . S
C2082 C2079 1.499 . S
C2082 C2083 1.373 . S
C2082 C2084 1.389 . S
C2083 H2062 0.950 . S
C2083 C2082 1.373 . S
C2083 C2099 1.377 . S
C2084 C2082 1.389 . S
C2084 C2085 1.524 . S
C2084 C2098 1.377 . S
C2085 C2084 1.524 . S
C2085 C2086 1.397 . S
C2085 C2090 1.363 . S
C2086 H2063 0.950 . S
C2086 C2085 1.397 . S
C2086 C2087 1.334 . S
C2087 H2064 0.950 . S
C2087 C2086 1.334 . S
C2087 C2088 1.287 . S
C2088 C2087 1.287 . S
C2088 C2089 1.524 . S
C2088 H2107 0.913 . S
C2089 H2065 0.950 . S
C2089 C2088 1.524 . S
C2089 C2090 1.415 . S
C2090 H2066 0.950 . S
C2090 C2085 1.363 . S
C2090 C2089 1.415 . S
C2091 H2067 0.951 . S
C2091 C2092 1.366 . S
C2091 C2093 1.388 . S
C2092 C2091 1.366 . S
C2092 C2096 1.385 . S
C2093 H2068 0.951 . S
C2093 C2091 1.388 . S
C2093 C2094 1.366 . S
C2094 C2093 1.366 . S
C2094 C2095 1.414 . S
C2094 C2097 1.499 . S
C2095 H2069 0.950 . S
C2095 C2094 1.414 . S
C2095 C2096 1.374 . S
C2096 H2070 0.950 . S
C2096 C2092 1.385 . S
C2096 C2095 1.374 . S
C2097 C2094 1.499 . S
C2097 C2098 1.373 . S
C2097 C2099 1.389 . S
C2098 H2071 0.950 . S
C2098 C2084 1.377 . S
C2098 C2097 1.373 . S
C2099 C2083 1.377 . S
C2099 C2097 1.389 . S
C2099 C2100 1.524 . S
C2100 C2099 1.524 . S
C2100 C2101 1.397 . S
C2100 C2105 1.363 . S
C2101 H2072 0.950 . S
C2101 C2100 1.397 . S
C2101 C2102 1.334 . S
C2102 H2073 0.950 . S
C2102 C2101 1.334 . S
C2102 C2103 1.287 . S
C2103 C2102 1.287 . S
C2103 C2104 1.524 . S
C2103 H2106 0.999 . S
C2104 H2074 0.950 . S
C2104 C2103 1.524 . S
C2104 C2105 1.415 . S
C2105 H2075 0.950 . S
C2105 C2100 1.363 . S
C2105 C2104 1.415 . S
H2106 C2103 0.999 . S
H2107 C2088 0.913 . S
H2108 C2126 0.951 . S
H2109 C2128 0.951 . S
H2110 C2130 0.950 . S
H2111 C2131 0.950 . S
H2112 C2133 0.950 . S
H2113 C2136 0.950 . S
H2114 C2137 0.950 . S
H2115 C2139 0.950 . S
H2116 C2140 0.950 . S
H2117 C2141 0.951 . S
H2118 C2143 0.951 . S
H2119 C2145 0.950 . S
H2120 C2146 0.950 . S
H2121 C2148 0.950 . S
H2122 C2151 0.950 . S
H2123 C2152 0.950 . S
H2124 C2154 0.950 . S
H2125 C2155 0.950 . S
C2126 H2108 0.951 . S
C2126 C2127 1.366 . S
C2126 C2128 1.388 . S
C2127 C2126 1.366 . S
C2127 C2131 1.385 . S
C2128 H2109 0.951 . S
C2128 C2126 1.388 . S
C2128 C2129 1.366 . S
C2129 C2128 1.366 . S
C2129 C2130 1.414 . S
C2129 C2132 1.499 . S
C2130 H2110 0.950 . S
C2130 C2129 1.414 . S
C2130 C2131 1.374 . S
C2131 H2111 0.950 . S
C2131 C2127 1.385 . S
C2131 C2130 1.374 . S
C2132 C2129 1.499 . S
C2132 C2133 1.373 . S
C2132 C2134 1.389 . S
C2133 H2112 0.950 . S
C2133 C2132 1.373 . S
C2133 C2149 1.377 . S
C2134 C2132 1.389 . S
C2134 C2135 1.524 . S
C2134 C2148 1.377 . S
C2135 C2134 1.524 . S
C2135 C2136 1.397 . S
C2135 C2140 1.363 . S
C2136 H2113 0.950 . S
C2136 C2135 1.397 . S
C2136 C2137 1.334 . S
C2137 H2114 0.950 . S
C2137 C2136 1.334 . S
C2137 C2138 1.287 . S
C2138 C2137 1.287 . S
C2138 C2139 1.524 . S
C2138 H2157 0.913 . S
C2139 H2115 0.950 . S
C2139 C2138 1.524 . S
C2139 C2140 1.415 . S
C2140 H2116 0.950 . S
C2140 C2135 1.363 . S
C2140 C2139 1.415 . S
C2141 H2117 0.951 . S
C2141 C2142 1.366 . S
C2141 C2143 1.388 . S
C2142 C2141 1.366 . S
C2142 C2146 1.385 . S
C2143 H2118 0.951 . S
C2143 C2141 1.388 . S
C2143 C2144 1.366 . S
C2144 C2143 1.366 . S
C2144 C2145 1.414 . S
C2144 C2147 1.499 . S
C2145 H2119 0.950 . S
C2145 C2144 1.414 . S
C2145 C2146 1.374 . S
C2146 H2120 0.950 . S
C2146 C2142 1.385 . S
C2146 C2145 1.374 . S
C2147 C2144 1.499 . S
C2147 C2148 1.373 . S
C2147 C2149 1.389 . S
C2148 H2121 0.950 . S
C2148 C2134 1.377 . S
C2148 C2147 1.373 . S
C2149 C2133 1.377 . S
C2149 C2147 1.389 . S
C2149 C2150 1.524 . S
C2150 C2149 1.524 . S
C2150 C2151 1.397 . S
C2150 C2155 1.363 . S
C2151 H2122 0.950 . S
C2151 C2150 1.397 . S
C2151 C2152 1.334 . S
C2152 H2123 0.950 . S
C2152 C2151 1.334 . S
C2152 C2153 1.287 . S
C2153 C2152 1.287 . S
C2153 C2154 1.524 . S
C2153 H2156 0.999 . S
C2154 H2124 0.950 . S
C2154 C2153 1.524 . S
C2154 C2155 1.415 . S
C2155 H2125 0.950 . S
C2155 C2150 1.363 . S
C2155 C2154 1.415 . S
H2156 C2153 0.999 . S
H2157 C2138 0.913 . S
H2158 C2176 0.951 . S
H2159 C2178 0.951 . S
H2160 C2180 0.950 . S
H2161 C2181 0.950 . S
H2162 C2183 0.950 . S
H2163 C2186 0.950 . S
H2164 C2187 0.950 . S
H2165 C2189 0.950 . S
H2166 C2190 0.950 . S
H2167 C2191 0.951 . S
H2168 C2193 0.951 . S
H2169 C2195 0.950 . S
H2170 C2196 0.950 . S
H2171 C2198 0.950 . S
H2172 C2201 0.950 . S
H2173 C2202 0.950 . S
H2174 C2204 0.950 . S
H2175 C2205 0.950 . S
C2176 H2158 0.951 . S
C2176 C2177 1.366 . S
C2176 C2178 1.388 . S
C2177 C2176 1.366 . S
C2177 C2181 1.385 . S
C2178 H2159 0.951 . S
C2178 C2176 1.388 . S
C2178 C2179 1.366 . S
C2179 C2178 1.366 . S
C2179 C2180 1.414 . S
C2179 C2182 1.499 . S
C2180 H2160 0.950 . S
C2180 C2179 1.414 . S
C2180 C2181 1.374 . S
C2181 H2161 0.950 . S
C2181 C2177 1.385 . S
C2181 C2180 1.374 . S
C2182 C2179 1.499 . S
C2182 C2183 1.373 . S
C2182 C2184 1.389 . S
C2183 H2162 0.950 . S
C2183 C2182 1.373 . S
C2183 C2199 1.377 . S
C2184 C2182 1.389 . S
C2184 C2185 1.524 . S
C2184 C2198 1.377 . S
C2185 C2184 1.524 . S
C2185 C2186 1.397 . S
C2185 C2190 1.363 . S
C2186 H2163 0.950 . S
C2186 C2185 1.397 . S
C2186 C2187 1.334 . S
C2187 H2164 0.950 . S
C2187 C2186 1.334 . S
C2187 C2188 1.287 . S
C2188 C2187 1.287 . S
C2188 C2189 1.524 . S
C2188 H2207 0.913 . S
C2189 H2165 0.950 . S
C2189 C2188 1.524 . S
C2189 C2190 1.415 . S
C2190 H2166 0.950 . S
C2190 C2185 1.363 . S
C2190 C2189 1.415 . S
C2191 H2167 0.951 . S
C2191 C2192 1.366 . S
C2191 C2193 1.388 . S
C2192 C2191 1.366 . S
C2192 C2196 1.385 . S
C2193 H2168 0.951 . S
C2193 C2191 1.388 . S
C2193 C2194 1.366 . S
C2194 C2193 1.366 . S
C2194 C2195 1.414 . S
C2194 C2197 1.499 . S
C2195 H2169 0.950 . S
C2195 C2194 1.414 . S
C2195 C2196 1.374 . S
C2196 H2170 0.950 . S
C2196 C2192 1.385 . S
C2196 C2195 1.374 . S
C2197 C2194 1.499 . S
C2197 C2198 1.373 . S
C2197 C2199 1.389 . S
C2198 H2171 0.950 . S
C2198 C2184 1.377 . S
C2198 C2197 1.373 . S
C2199 C2183 1.377 . S
C2199 C2197 1.389 . S
C2199 C2200 1.524 . S
C2200 C2199 1.524 . S
C2200 C2201 1.397 . S
C2200 C2205 1.363 . S
C2201 H2172 0.950 . S
C2201 C2200 1.397 . S
C2201 C2202 1.334 . S
C2202 H2173 0.950 . S
C2202 C2201 1.334 . S
C2202 C2203 1.287 . S
C2203 C2202 1.287 . S
C2203 C2204 1.524 . S
C2203 H2206 0.999 . S
C2204 H2174 0.950 . S
C2204 C2203 1.524 . S
C2204 C2205 1.415 . S
C2205 H2175 0.950 . S
C2205 C2200 1.363 . S
C2205 C2204 1.415 . S
H2206 C2203 0.999 . S
H2207 C2188 0.913 . S
H2208 C2226 0.951 . S
H2209 C2228 0.951 . S
H2210 C2230 0.950 . S
H2211 C2231 0.950 . S
H2212 C2233 0.950 . S
H2213 C2236 0.950 . S
H2214 C2237 0.950 . S
H2215 C2239 0.950 . S
H2216 C2240 0.950 . S
H2217 C2241 0.951 . S
H2218 C2243 0.951 . S
H2219 C2245 0.950 . S
H2220 C2246 0.950 . S
H2221 C2248 0.950 . S
H2222 C2251 0.950 . S
H2223 C2252 0.950 . S
H2224 C2254 0.950 . S
H2225 C2255 0.950 . S
C2226 H2208 0.951 . S
C2226 C2227 1.366 . S
C2226 C2228 1.388 . S
C2227 C2226 1.366 . S
C2227 C2231 1.385 . S
C2228 H2209 0.951 . S
C2228 C2226 1.388 . S
C2228 C2229 1.366 . S
C2229 C2228 1.366 . S
C2229 C2230 1.414 . S
C2229 C2232 1.499 . S
C2230 H2210 0.950 . S
C2230 C2229 1.414 . S
C2230 C2231 1.374 . S
C2231 H2211 0.950 . S
C2231 C2227 1.385 . S
C2231 C2230 1.374 . S
C2232 C2229 1.499 . S
C2232 C2233 1.373 . S
C2232 C2234 1.389 . S
C2233 H2212 0.950 . S
C2233 C2232 1.373 . S
C2233 C2249 1.377 . S
C2234 C2232 1.389 . S
C2234 C2235 1.524 . S
C2234 C2248 1.377 . S
C2235 C2234 1.524 . S
C2235 C2236 1.397 . S
C2235 C2240 1.363 . S
C2236 H2213 0.950 . S
C2236 C2235 1.397 . S
C2236 C2237 1.334 . S
C2237 H2214 0.950 . S
C2237 C2236 1.334 . S
C2237 C2238 1.287 . S
C2238 C2237 1.287 . S
C2238 C2239 1.524 . S
C2238 H2257 0.913 . S
C2239 H2215 0.950 . S
C2239 C2238 1.524 . S
C2239 C2240 1.415 . S
C2240 H2216 0.950 . S
C2240 C2235 1.363 . S
C2240 C2239 1.415 . S
C2241 H2217 0.951 . S
C2241 C2242 1.366 . S
C2241 C2243 1.388 . S
C2242 C2241 1.366 . S
C2242 C2246 1.385 . S
C2243 H2218 0.951 . S
C2243 C2241 1.388 . S
C2243 C2244 1.366 . S
C2244 C2243 1.366 . S
C2244 C2245 1.414 . S
C2244 C2247 1.499 . S
C2245 H2219 0.950 . S
C2245 C2244 1.414 . S
C2245 C2246 1.374 . S
C2246 H2220 0.950 . S
C2246 C2242 1.385 . S
C2246 C2245 1.374 . S
C2247 C2244 1.499 . S
C2247 C2248 1.373 . S
C2247 C2249 1.389 . S
C2248 H2221 0.950 . S
C2248 C2234 1.377 . S
C2248 C2247 1.373 . S
C2249 C2233 1.377 . S
C2249 C2247 1.389 . S
C2249 C2250 1.524 . S
C2250 C2249 1.524 . S
C2250 C2251 1.397 . S
C2250 C2255 1.363 . S
C2251 H2222 0.950 . S
C2251 C2250 1.397 . S
C2251 C2252 1.334 . S
C2252 H2223 0.950 . S
C2252 C2251 1.334 . S
C2252 C2253 1.287 . S
C2253 C2252 1.287 . S
C2253 C2254 1.524 . S
C2253 H2256 0.999 . S
C2254 H2224 0.950 . S
C2254 C2253 1.524 . S
C2254 C2255 1.415 . S
C2255 H2225 0.950 . S
C2255 C2250 1.363 . S
C2255 C2254 1.415 . S
H2256 C2253 0.999 . S
H2257 C2238 0.913 . S
H2258 C2276 0.951 . S
H2259 C2278 0.951 . S
H2260 C2280 0.950 . S
H2261 C2281 0.950 . S
H2262 C2283 0.950 . S
H2263 C2286 0.950 . S
H2264 C2287 0.950 . S
H2265 C2289 0.950 . S
H2266 C2290 0.950 . S
H2267 C2291 0.951 . S
H2268 C2293 0.951 . S
H2269 C2295 0.950 . S
H2270 C2296 0.950 . S
H2271 C2298 0.950 . S
H2272 C2301 0.950 . S
H2273 C2302 0.950 . S
H2274 C2304 0.950 . S
H2275 C2305 0.950 . S
C2276 H2258 0.951 . S
C2276 C2277 1.366 . S
C2276 C2278 1.388 . S
C2277 C2276 1.366 . S
C2277 C2281 1.385 . S
C2278 H2259 0.951 . S
C2278 C2276 1.388 . S
C2278 C2279 1.366 . S
C2279 C2278 1.366 . S
C2279 C2280 1.414 . S
C2279 C2282 1.499 . S
C2280 H2260 0.950 . S
C2280 C2279 1.414 . S
C2280 C2281 1.374 . S
C2281 H2261 0.950 . S
C2281 C2277 1.385 . S
C2281 C2280 1.374 . S
C2282 C2279 1.499 . S
C2282 C2283 1.373 . S
C2282 C2284 1.389 . S
C2283 H2262 0.950 . S
C2283 C2282 1.373 . S
C2283 C2299 1.377 . S
C2284 C2282 1.389 . S
C2284 C2285 1.524 . S
C2284 C2298 1.377 . S
C2285 C2284 1.524 . S
C2285 C2286 1.397 . S
C2285 C2290 1.363 . S
C2286 H2263 0.950 . S
C2286 C2285 1.397 . S
C2286 C2287 1.334 . S
C2287 H2264 0.950 . S
C2287 C2286 1.334 . S
C2287 C2288 1.287 . S
C2288 C2287 1.287 . S
C2288 C2289 1.524 . S
C2288 H2307 0.913 . S
C2289 H2265 0.950 . S
C2289 C2288 1.524 . S
C2289 C2290 1.415 . S
C2290 H2266 0.950 . S
C2290 C2285 1.363 . S
C2290 C2289 1.415 . S
C2291 H2267 0.951 . S
C2291 C2292 1.366 . S
C2291 C2293 1.388 . S
C2292 C2291 1.366 . S
C2292 C2296 1.385 . S
C2293 H2268 0.951 . S
C2293 C2291 1.388 . S
C2293 C2294 1.366 . S
C2294 C2293 1.366 . S
C2294 C2295 1.414 . S
C2294 C2297 1.499 . S
C2295 H2269 0.950 . S
C2295 C2294 1.414 . S
C2295 C2296 1.374 . S
C2296 H2270 0.950 . S
C2296 C2292 1.385 . S
C2296 C2295 1.374 . S
C2297 C2294 1.499 . S
C2297 C2298 1.373 . S
C2297 C2299 1.389 . S
C2298 H2271 0.950 . S
C2298 C2284 1.377 . S
C2298 C2297 1.373 . S
C2299 C2283 1.377 . S
C2299 C2297 1.389 . S
C2299 C2300 1.524 . S
C2300 C2299 1.524 . S
C2300 C2301 1.397 . S
C2300 C2305 1.363 . S
C2301 H2272 0.950 . S
C2301 C2300 1.397 . S
C2301 C2302 1.334 . S
C2302 H2273 0.950 . S
C2302 C2301 1.334 . S
C2302 C2303 1.287 . S
C2303 C2302 1.287 . S
C2303 C2304 1.524 . S
C2303 H2306 0.999 . S
C2304 H2274 0.950 . S
C2304 C2303 1.524 . S
C2304 C2305 1.415 . S
C2305 H2275 0.950 . S
C2305 C2300 1.363 . S
C2305 C2304 1.415 . S
H2306 C2303 0.999 . S
H2307 C2288 0.913 . S
H2308 C2326 0.951 . S
H2309 C2328 0.951 . S
H2310 C2330 0.950 . S
H2311 C2331 0.950 . S
H2312 C2333 0.950 . S
H2313 C2336 0.950 . S
H2314 C2337 0.950 . S
H2315 C2339 0.950 . S
H2316 C2340 0.950 . S
H2317 C2341 0.951 . S
H2318 C2343 0.951 . S
H2319 C2345 0.950 . S
H2320 C2346 0.950 . S
H2321 C2348 0.950 . S
H2322 C2351 0.950 . S
H2323 C2352 0.950 . S
H2324 C2354 0.950 . S
H2325 C2355 0.950 . S
C2326 H2308 0.951 . S
C2326 C2327 1.366 . S
C2326 C2328 1.388 . S
C2327 C2326 1.366 . S
C2327 C2331 1.385 . S
C2328 H2309 0.951 . S
C2328 C2326 1.388 . S
C2328 C2329 1.366 . S
C2329 C2328 1.366 . S
C2329 C2330 1.414 . S
C2329 C2332 1.499 . S
C2330 H2310 0.950 . S
C2330 C2329 1.414 . S
C2330 C2331 1.374 . S
C2331 H2311 0.950 . S
C2331 C2327 1.385 . S
C2331 C2330 1.374 . S
C2332 C2329 1.499 . S
C2332 C2333 1.373 . S
C2332 C2334 1.389 . S
C2333 H2312 0.950 . S
C2333 C2332 1.373 . S
C2333 C2349 1.377 . S
C2334 C2332 1.389 . S
C2334 C2335 1.524 . S
C2334 C2348 1.377 . S
C2335 C2334 1.524 . S
C2335 C2336 1.397 . S
C2335 C2340 1.363 . S
C2336 H2313 0.950 . S
C2336 C2335 1.397 . S
C2336 C2337 1.334 . S
C2337 H2314 0.950 . S
C2337 C2336 1.334 . S
C2337 C2338 1.287 . S
C2338 C2337 1.287 . S
C2338 C2339 1.524 . S
C2338 H2357 0.913 . S
C2339 H2315 0.950 . S
C2339 C2338 1.524 . S
C2339 C2340 1.415 . S
C2340 H2316 0.950 . S
C2340 C2335 1.363 . S
C2340 C2339 1.415 . S
C2341 H2317 0.951 . S
C2341 C2342 1.366 . S
C2341 C2343 1.388 . S
C2342 C2341 1.366 . S
C2342 C2346 1.385 . S
C2343 H2318 0.951 . S
C2343 C2341 1.388 . S
C2343 C2344 1.366 . S
C2344 C2343 1.366 . S
C2344 C2345 1.414 . S
C2344 C2347 1.499 . S
C2345 H2319 0.950 . S
C2345 C2344 1.414 . S
C2345 C2346 1.374 . S
C2346 H2320 0.950 . S
C2346 C2342 1.385 . S
C2346 C2345 1.374 . S
C2347 C2344 1.499 . S
C2347 C2348 1.373 . S
C2347 C2349 1.389 . S
C2348 H2321 0.950 . S
C2348 C2334 1.377 . S
C2348 C2347 1.373 . S
C2349 C2333 1.377 . S
C2349 C2347 1.389 . S
C2349 C2350 1.524 . S
C2350 C2349 1.524 . S
C2350 C2351 1.397 . S
C2350 C2355 1.363 . S
C2351 H2322 0.950 . S
C2351 C2350 1.397 . S
C2351 C2352 1.334 . S
C2352 H2323 0.950 . S
C2352 C2351 1.334 . S
C2352 C2353 1.287 . S
C2353 C2352 1.287 . S
C2353 C2354 1.524 . S
C2353 H2356 0.999 . S
C2354 H2324 0.950 . S
C2354 C2353 1.524 . S
C2354 C2355 1.415 . S
C2355 H2325 0.950 . S
C2355 C2350 1.363 . S
C2355 C2354 1.415 . S
H2356 C2353 0.999 . S
H2357 C2338 0.913 . S
H2358 C2376 0.951 . S
H2359 C2378 0.951 . S
H2360 C2380 0.950 . S
H2361 C2381 0.950 . S
H2362 C2383 0.950 . S
H2363 C2386 0.950 . S
H2364 C2387 0.950 . S
H2365 C2389 0.950 . S
H2366 C2390 0.950 . S
H2367 C2391 0.951 . S
H2368 C2393 0.951 . S
H2369 C2395 0.950 . S
H2370 C2396 0.950 . S
H2371 C2398 0.950 . S
H2372 C2401 0.950 . S
H2373 C2402 0.950 . S
H2374 C2404 0.950 . S
H2375 C2405 0.950 . S
C2376 H2358 0.951 . S
C2376 C2377 1.366 . S
C2376 C2378 1.388 . S
C2377 C2376 1.366 . S
C2377 C2381 1.385 . S
C2378 H2359 0.951 . S
C2378 C2376 1.388 . S
C2378 C2379 1.366 . S
C2379 C2378 1.366 . S
C2379 C2380 1.414 . S
C2379 C2382 1.499 . S
C2380 H2360 0.950 . S
C2380 C2379 1.414 . S
C2380 C2381 1.374 . S
C2381 H2361 0.950 . S
C2381 C2377 1.385 . S
C2381 C2380 1.374 . S
C2382 C2379 1.499 . S
C2382 C2383 1.373 . S
C2382 C2384 1.389 . S
C2383 H2362 0.950 . S
C2383 C2382 1.373 . S
C2383 C2399 1.377 . S
C2384 C2382 1.389 . S
C2384 C2385 1.524 . S
C2384 C2398 1.377 . S
C2385 C2384 1.524 . S
C2385 C2386 1.397 . S
C2385 C2390 1.363 . S
C2386 H2363 0.950 . S
C2386 C2385 1.397 . S
C2386 C2387 1.334 . S
C2387 H2364 0.950 . S
C2387 C2386 1.334 . S
C2387 C2388 1.287 . S
C2388 C2387 1.287 . S
C2388 C2389 1.524 . S
C2388 H2407 0.913 . S
C2389 H2365 0.950 . S
C2389 C2388 1.524 . S
C2389 C2390 1.415 . S
C2390 H2366 0.950 . S
C2390 C2385 1.363 . S
C2390 C2389 1.415 . S
C2391 H2367 0.951 . S
C2391 C2392 1.366 . S
C2391 C2393 1.388 . S
C2392 C2391 1.366 . S
C2392 C2396 1.385 . S
C2393 H2368 0.951 . S
C2393 C2391 1.388 . S
C2393 C2394 1.366 . S
C2394 C2393 1.366 . S
C2394 C2395 1.414 . S
C2394 C2397 1.499 . S
C2395 H2369 0.950 . S
C2395 C2394 1.414 . S
C2395 C2396 1.374 . S
C2396 H2370 0.950 . S
C2396 C2392 1.385 . S
C2396 C2395 1.374 . S
C2397 C2394 1.499 . S
C2397 C2398 1.373 . S
C2397 C2399 1.389 . S
C2398 H2371 0.950 . S
C2398 C2384 1.377 . S
C2398 C2397 1.373 . S
C2399 C2383 1.377 . S
C2399 C2397 1.389 . S
C2399 C2400 1.524 . S
C2400 C2399 1.524 . S
C2400 C2401 1.397 . S
C2400 C2405 1.363 . S
C2401 H2372 0.950 . S
C2401 C2400 1.397 . S
C2401 C2402 1.334 . S
C2402 H2373 0.950 . S
C2402 C2401 1.334 . S
C2402 C2403 1.287 . S
C2403 C2402 1.287 . S
C2403 C2404 1.524 . S
C2403 H2406 0.999 . S
C2404 H2374 0.950 . S
C2404 C2403 1.524 . S
C2404 C2405 1.415 . S
C2405 H2375 0.950 . S
C2405 C2400 1.363 . S
C2405 C2404 1.415 . S
H2406 C2403 0.999 . S
H2407 C2388 0.913 . S
H2408 C2426 0.951 . S
H2409 C2428 0.951 . S
H2410 C2430 0.950 . S
H2411 C2431 0.950 . S
H2412 C2433 0.950 . S
H2413 C2436 0.950 . S
H2414 C2437 0.950 . S
H2415 C2439 0.950 . S
H2416 C2440 0.950 . S
H2417 C2441 0.951 . S
H2418 C2443 0.951 . S
H2419 C2445 0.950 . S
H2420 C2446 0.950 . S
H2421 C2448 0.950 . S
H2422 C2451 0.950 . S
H2423 C2452 0.950 . S
H2424 C2454 0.950 . S
H2425 C2455 0.950 . S
C2426 H2408 0.951 . S
C2426 C2427 1.366 . S
C2426 C2428 1.388 . S
C2427 C2426 1.366 . S
C2427 C2431 1.385 . S
C2428 H2409 0.951 . S
C2428 C2426 1.388 . S
C2428 C2429 1.366 . S
C2429 C2428 1.366 . S
C2429 C2430 1.414 . S
C2429 C2432 1.499 . S
C2430 H2410 0.950 . S
C2430 C2429 1.414 . S
C2430 C2431 1.374 . S
C2431 H2411 0.950 . S
C2431 C2427 1.385 . S
C2431 C2430 1.374 . S
C2432 C2429 1.499 . S
C2432 C2433 1.373 . S
C2432 C2434 1.389 . S
C2433 H2412 0.950 . S
C2433 C2432 1.373 . S
C2433 C2449 1.377 . S
C2434 C2432 1.389 . S
C2434 C2435 1.524 . S
C2434 C2448 1.377 . S
C2435 C2434 1.524 . S
C2435 C2436 1.397 . S
C2435 C2440 1.363 . S
C2436 H2413 0.950 . S
C2436 C2435 1.397 . S
C2436 C2437 1.334 . S
C2437 H2414 0.950 . S
C2437 C2436 1.334 . S
C2437 C2438 1.287 . S
C2438 C2437 1.287 . S
C2438 C2439 1.524 . S
C2438 H2457 0.913 . S
C2439 H2415 0.950 . S
C2439 C2438 1.524 . S
C2439 C2440 1.415 . S
C2440 H2416 0.950 . S
C2440 C2435 1.363 . S
C2440 C2439 1.415 . S
C2441 H2417 0.951 . S
C2441 C2442 1.366 . S
C2441 C2443 1.388 . S
C2442 C2441 1.366 . S
C2442 C2446 1.385 . S
C2443 H2418 0.951 . S
C2443 C2441 1.388 . S
C2443 C2444 1.366 . S
C2444 C2443 1.366 . S
C2444 C2445 1.414 . S
C2444 C2447 1.499 . S
C2445 H2419 0.950 . S
C2445 C2444 1.414 . S
C2445 C2446 1.374 . S
C2446 H2420 0.950 . S
C2446 C2442 1.385 . S
C2446 C2445 1.374 . S
C2447 C2444 1.499 . S
C2447 C2448 1.373 . S
C2447 C2449 1.389 . S
C2448 H2421 0.950 . S
C2448 C2434 1.377 . S
C2448 C2447 1.373 . S
C2449 C2433 1.377 . S
C2449 C2447 1.389 . S
C2449 C2450 1.524 . S
C2450 C2449 1.524 . S
C2450 C2451 1.397 . S
C2450 C2455 1.363 . S
C2451 H2422 0.950 . S
C2451 C2450 1.397 . S
C2451 C2452 1.334 . S
C2452 H2423 0.950 . S
C2452 C2451 1.334 . S
C2452 C2453 1.287 . S
C2453 C2452 1.287 . S
C2453 C2454 1.524 . S
C2453 H2456 0.999 . S
C2454 H2424 0.950 . S
C2454 C2453 1.524 . S
C2454 C2455 1.415 . S
C2455 H2425 0.950 . S
C2455 C2450 1.363 . S
C2455 C2454 1.415 . S
H2456 C2453 0.999 . S
H2457 C2438 0.913 . S
H2458 C2476 0.951 . S
H2459 C2478 0.951 . S
H2460 C2480 0.950 . S
H2461 C2481 0.950 . S
H2462 C2483 0.950 . S
H2463 C2486 0.950 . S
H2464 C2487 0.950 . S
H2465 C2489 0.950 . S
H2466 C2490 0.950 . S
H2467 C2491 0.951 . S
H2468 C2493 0.951 . S
H2469 C2495 0.950 . S
H2470 C2496 0.950 . S
H2471 C2498 0.950 . S
H2472 C2501 0.950 . S
H2473 C2502 0.950 . S
H2474 C2504 0.950 . S
H2475 C2505 0.950 . S
C2476 H2458 0.951 . S
C2476 C2477 1.366 . S
C2476 C2478 1.388 . S
C2477 C2476 1.366 . S
C2477 C2481 1.385 . S
C2478 H2459 0.951 . S
C2478 C2476 1.388 . S
C2478 C2479 1.366 . S
C2479 C2478 1.366 . S
C2479 C2480 1.414 . S
C2479 C2482 1.499 . S
C2480 H2460 0.950 . S
C2480 C2479 1.414 . S
C2480 C2481 1.374 . S
C2481 H2461 0.950 . S
C2481 C2477 1.385 . S
C2481 C2480 1.374 . S
C2482 C2479 1.499 . S
C2482 C2483 1.373 . S
C2482 C2484 1.389 . S
C2483 H2462 0.950 . S
C2483 C2482 1.373 . S
C2483 C2499 1.377 . S
C2484 C2482 1.389 . S
C2484 C2485 1.524 . S
C2484 C2498 1.377 . S
C2485 C2484 1.524 . S
C2485 C2486 1.397 . S
C2485 C2490 1.363 . S
C2486 H2463 0.950 . S
C2486 C2485 1.397 . S
C2486 C2487 1.334 . S
C2487 H2464 0.950 . S
C2487 C2486 1.334 . S
C2487 C2488 1.287 . S
C2488 C2487 1.287 . S
C2488 C2489 1.524 . S
C2488 H2507 0.913 . S
C2489 H2465 0.950 . S
C2489 C2488 1.524 . S
C2489 C2490 1.415 . S
C2490 H2466 0.950 . S
C2490 C2485 1.363 . S
C2490 C2489 1.415 . S
C2491 H2467 0.951 . S
C2491 C2492 1.366 . S
C2491 C2493 1.388 . S
C2492 C2491 1.366 . S
C2492 C2496 1.385 . S
C2493 H2468 0.951 . S
C2493 C2491 1.388 . S
C2493 C2494 1.366 . S
C2494 C2493 1.366 . S
C2494 C2495 1.414 . S
C2494 C2497 1.499 . S
C2495 H2469 0.950 . S
C2495 C2494 1.414 . S
C2495 C2496 1.374 . S
C2496 H2470 0.950 . S
C2496 C2492 1.385 . S
C2496 C2495 1.374 . S
C2497 C2494 1.499 . S
C2497 C2498 1.373 . S
C2497 C2499 1.389 . S
C2498 H2471 0.950 . S
C2498 C2484 1.377 . S
C2498 C2497 1.373 . S
C2499 C2483 1.377 . S
C2499 C2497 1.389 . S
C2499 C2500 1.524 . S
C2500 C2499 1.524 . S
C2500 C2501 1.397 . S
C2500 C2505 1.363 . S
C2501 H2472 0.950 . S
C2501 C2500 1.397 . S
C2501 C2502 1.334 . S
C2502 H2473 0.950 . S
C2502 C2501 1.334 . S
C2502 C2503 1.287 . S
C2503 C2502 1.287 . S
C2503 C2504 1.524 . S
C2503 H2506 0.999 . S
C2504 H2474 0.950 . S
C2504 C2503 1.524 . S
C2504 C2505 1.415 . S
C2505 H2475 0.950 . S
C2505 C2500 1.363 . S
C2505 C2504 1.415 . S
H2506 C2503 0.999 . S
H2507 C2488 0.913 . S
H2508 C2526 0.951 . S
H2509 C2528 0.951 . S
H2510 C2530 0.950 . S
H2511 C2531 0.950 . S
H2512 C2533 0.950 . S
H2513 C2536 0.950 . S
H2514 C2537 0.950 . S
H2515 C2539 0.950 . S
H2516 C2540 0.950 . S
H2517 C2541 0.951 . S
H2518 C2543 0.951 . S
H2519 C2545 0.950 . S
H2520 C2546 0.950 . S
H2521 C2548 0.950 . S
H2522 C2551 0.950 . S
H2523 C2552 0.950 . S
H2524 C2554 0.950 . S
H2525 C2555 0.950 . S
C2526 H2508 0.951 . S
C2526 C2527 1.366 . S
C2526 C2528 1.388 . S
C2527 C2526 1.366 . S
C2527 C2531 1.385 . S
C2528 H2509 0.951 . S
C2528 C2526 1.388 . S
C2528 C2529 1.366 . S
C2529 C2528 1.366 . S
C2529 C2530 1.414 . S
C2529 C2532 1.499 . S
C2530 H2510 0.950 . S
C2530 C2529 1.414 . S
C2530 C2531 1.374 . S
C2531 H2511 0.950 . S
C2531 C2527 1.385 . S
C2531 C2530 1.374 . S
C2532 C2529 1.499 . S
C2532 C2533 1.373 . S
C2532 C2534 1.389 . S
C2533 H2512 0.950 . S
C2533 C2532 1.373 . S
C2533 C2549 1.377 . S
C2534 C2532 1.389 . S
C2534 C2535 1.524 . S
C2534 C2548 1.377 . S
C2535 C2534 1.524 . S
C2535 C2536 1.397 . S
C2535 C2540 1.363 . S
C2536 H2513 0.950 . S
C2536 C2535 1.397 . S
C2536 C2537 1.334 . S
C2537 H2514 0.950 . S
C2537 C2536 1.334 . S
C2537 C2538 1.287 . S
C2538 C2537 1.287 . S
C2538 C2539 1.524 . S
C2538 H2557 0.913 . S
C2539 H2515 0.950 . S
C2539 C2538 1.524 . S
C2539 C2540 1.415 . S
C2540 H2516 0.950 . S
C2540 C2535 1.363 . S
C2540 C2539 1.415 . S
C2541 H2517 0.951 . S
C2541 C2542 1.366 . S
C2541 C2543 1.388 . S
C2542 C2541 1.366 . S
C2542 C2546 1.385 . S
C2543 H2518 0.951 . S
C2543 C2541 1.388 . S
C2543 C2544 1.366 . S
C2544 C2543 1.366 . S
C2544 C2545 1.414 . S
C2544 C2547 1.499 . S
C2545 H2519 0.950 . S
C2545 C2544 1.414 . S
C2545 C2546 1.374 . S
C2546 H2520 0.950 . S
C2546 C2542 1.385 . S
C2546 C2545 1.374 . S
C2547 C2544 1.499 . S
C2547 C2548 1.373 . S
C2547 C2549 1.389 . S
C2548 H2521 0.950 . S
C2548 C2534 1.377 . S
C2548 C2547 1.373 . S
C2549 C2533 1.377 . S
C2549 C2547 1.389 . S
C2549 C2550 1.524 . S
C2550 C2549 1.524 . S
C2550 C2551 1.397 . S
C2550 C2555 1.363 . S
C2551 H2522 0.950 . S
C2551 C2550 1.397 . S
C2551 C2552 1.334 . S
C2552 H2523 0.950 . S
C2552 C2551 1.334 . S
C2552 C2553 1.287 . S
C2553 C2552 1.287 . S
C2553 C2554 1.524 . S
C2553 H2556 0.999 . S
C2554 H2524 0.950 . S
C2554 C2553 1.524 . S
C2554 C2555 1.415 . S
C2555 H2525 0.950 . S
C2555 C2550 1.363 . S
C2555 C2554 1.415 . S
H2556 C2553 0.999 . S
H2557 C2538 0.913 . S
H2558 C2576 0.951 . S
H2559 C2578 0.951 . S
H2560 C2580 0.950 . S
H2561 C2581 0.950 . S
H2562 C2583 0.950 . S
H2563 C2586 0.950 . S
H2564 C2587 0.950 . S
H2565 C2589 0.950 . S
H2566 C2590 0.950 . S
H2567 C2591 0.951 . S
H2568 C2593 0.951 . S
H2569 C2595 0.950 . S
H2570 C2596 0.950 . S
H2571 C2598 0.950 . S
H2572 C2601 0.950 . S
H2573 C2602 0.950 . S
H2574 C2604 0.950 . S
H2575 C2605 0.950 . S
C2576 H2558 0.951 . S
C2576 C2577 1.366 . S
C2576 C2578 1.388 . S
C2577 C2576 1.366 . S
C2577 C2581 1.385 . S
C2578 H2559 0.951 . S
C2578 C2576 1.388 . S
C2578 C2579 1.366 . S
C2579 C2578 1.366 . S
C2579 C2580 1.414 . S
C2579 C2582 1.499 . S
C2580 H2560 0.950 . S
C2580 C2579 1.414 . S
C2580 C2581 1.374 . S
C2581 H2561 0.950 . S
C2581 C2577 1.385 . S
C2581 C2580 1.374 . S
C2582 C2579 1.499 . S
C2582 C2583 1.373 . S
C2582 C2584 1.389 . S
C2583 H2562 0.950 . S
C2583 C2582 1.373 . S
C2583 C2599 1.377 . S
C2584 C2582 1.389 . S
C2584 C2585 1.524 . S
C2584 C2598 1.377 . S
C2585 C2584 1.524 . S
C2585 C2586 1.397 . S
C2585 C2590 1.363 . S
C2586 H2563 0.950 . S
C2586 C2585 1.397 . S
C2586 C2587 1.334 . S
C2587 H2564 0.950 . S
C2587 C2586 1.334 . S
C2587 C2588 1.287 . S
C2588 C2587 1.287 . S
C2588 C2589 1.524 . S
C2588 H2607 0.913 . S
C2589 H2565 0.950 . S
C2589 C2588 1.524 . S
C2589 C2590 1.415 . S
C2590 H2566 0.950 . S
C2590 C2585 1.363 . S
C2590 C2589 1.415 . S
C2591 H2567 0.951 . S
C2591 C2592 1.366 . S
C2591 C2593 1.388 . S
C2592 C2591 1.366 . S
C2592 C2596 1.385 . S
C2593 H2568 0.951 . S
C2593 C2591 1.388 . S
C2593 C2594 1.366 . S
C2594 C2593 1.366 . S
C2594 C2595 1.414 . S
C2594 C2597 1.499 . S
C2595 H2569 0.950 . S
C2595 C2594 1.414 . S
C2595 C2596 1.374 . S
C2596 H2570 0.950 . S
C2596 C2592 1.385 . S
C2596 C2595 1.374 . S
C2597 C2594 1.499 . S
C2597 C2598 1.373 . S
C2597 C2599 1.389 . S
C2598 H2571 0.950 . S
C2598 C2584 1.377 . S
C2598 C2597 1.373 . S
C2599 C2583 1.377 . S
C2599 C2597 1.389 . S
C2599 C2600 1.524 . S
C2600 C2599 1.524 . S
C2600 C2601 1.397 . S
C2600 C2605 1.363 . S
C2601 H2572 0.950 . S
C2601 C2600 1.397 . S
C2601 C2602 1.334 . S
C2602 H2573 0.950 . S
C2602 C2601 1.334 . S
C2602 C2603 1.287 . S
C2603 C2602 1.287 . S
C2603 C2604 1.524 . S
C2603 H2606 0.999 . S
C2604 H2574 0.950 . S
C2604 C2603 1.524 . S
C2604 C2605 1.415 . S
C2605 H2575 0.950 . S
C2605 C2600 1.363 . S
C2605 C2604 1.415 . S
H2606 C2603 0.999 . S
H2607 C2588 0.913 . S
H2608 C2626 0.951 . S
H2609 C2628 0.951 . S
H2610 C2630 0.950 . S
H2611 C2631 0.950 . S
H2612 C2633 0.950 . S
H2613 C2636 0.950 . S
H2614 C2637 0.950 . S
H2615 C2639 0.950 . S
H2616 C2640 0.950 . S
H2617 C2641 0.951 . S
H2618 C2643 0.951 . S
H2619 C2645 0.950 . S
H2620 C2646 0.950 . S
H2621 C2648 0.950 . S
H2622 C2651 0.950 . S
H2623 C2652 0.950 . S
H2624 C2654 0.950 . S
H2625 C2655 0.950 . S
C2626 H2608 0.951 . S
C2626 C2627 1.366 . S
C2626 C2628 1.388 . S
C2627 C2626 1.366 . S
C2627 C2631 1.385 . S
C2628 H2609 0.951 . S
C2628 C2626 1.388 . S
C2628 C2629 1.366 . S
C2629 C2628 1.366 . S
C2629 C2630 1.414 . S
C2629 C2632 1.499 . S
C2630 H2610 0.950 . S
C2630 C2629 1.414 . S
C2630 C2631 1.374 . S
C2631 H2611 0.950 . S
C2631 C2627 1.385 . S
C2631 C2630 1.374 . S
C2632 C2629 1.499 . S
C2632 C2633 1.373 . S
C2632 C2634 1.389 . S
C2633 H2612 0.950 . S
C2633 C2632 1.373 . S
C2633 C2649 1.377 . S
C2634 C2632 1.389 . S
C2634 C2635 1.524 . S
C2634 C2648 1.377 . S
C2635 C2634 1.524 . S
C2635 C2636 1.397 . S
C2635 C2640 1.363 . S
C2636 H2613 0.950 . S
C2636 C2635 1.397 . S
C2636 C2637 1.334 . S
C2637 H2614 0.950 . S
C2637 C2636 1.334 . S
C2637 C2638 1.287 . S
C2638 C2637 1.287 . S
C2638 C2639 1.524 . S
C2638 H2657 0.913 . S
C2639 H2615 0.950 . S
C2639 C2638 1.524 . S
C2639 C2640 1.415 . S
C2640 H2616 0.950 . S
C2640 C2635 1.363 . S
C2640 C2639 1.415 . S
C2641 H2617 0.951 . S
C2641 C2642 1.366 . S
C2641 C2643 1.388 . S
C2642 C2641 1.366 . S
C2642 C2646 1.385 . S
C2643 H2618 0.951 . S
C2643 C2641 1.388 . S
C2643 C2644 1.366 . S
C2644 C2643 1.366 . S
C2644 C2645 1.414 . S
C2644 C2647 1.499 . S
C2645 H2619 0.950 . S
C2645 C2644 1.414 . S
C2645 C2646 1.374 . S
C2646 H2620 0.950 . S
C2646 C2642 1.385 . S
C2646 C2645 1.374 . S
C2647 C2644 1.499 . S
C2647 C2648 1.373 . S
C2647 C2649 1.389 . S
C2648 H2621 0.950 . S
C2648 C2634 1.377 . S
C2648 C2647 1.373 . S
C2649 C2633 1.377 . S
C2649 C2647 1.389 . S
C2649 C2650 1.524 . S
C2650 C2649 1.524 . S
C2650 C2651 1.397 . S
C2650 C2655 1.363 . S
C2651 H2622 0.950 . S
C2651 C2650 1.397 . S
C2651 C2652 1.334 . S
C2652 H2623 0.950 . S
C2652 C2651 1.334 . S
C2652 C2653 1.287 . S
C2653 C2652 1.287 . S
C2653 C2654 1.524 . S
C2653 H2656 0.999 . S
C2654 H2624 0.950 . S
C2654 C2653 1.524 . S
C2654 C2655 1.415 . S
C2655 H2625 0.950 . S
C2655 C2650 1.363 . S
C2655 C2654 1.415 . S
H2656 C2653 0.999 . S
H2657 C2638 0.913 . S
H2658 C2676 0.951 . S
H2659 C2678 0.951 . S
H2660 C2680 0.950 . S
H2661 C2681 0.950 . S
H2662 C2683 0.950 . S
H2663 C2686 0.950 . S
H2664 C2687 0.950 . S
H2665 C2689 0.950 . S
H2666 C2690 0.950 . S
H2667 C2691 0.951 . S
H2668 C2693 0.951 . S
H2669 C2695 0.950 . S
H2670 C2696 0.950 . S
H2671 C2698 0.950 . S
H2672 C2701 0.950 . S
H2673 C2702 0.950 . S
H2674 C2704 0.950 . S
H2675 C2705 0.950 . S
C2676 H2658 0.951 . S
C2676 C2677 1.366 . S
C2676 C2678 1.388 . S
C2677 C2676 1.366 . S
C2677 C2681 1.385 . S
C2678 H2659 0.951 . S
C2678 C2676 1.388 . S
C2678 C2679 1.366 . S
C2679 C2678 1.366 . S
C2679 C2680 1.414 . S
C2679 C2682 1.499 . S
C2680 H2660 0.950 . S
C2680 C2679 1.414 . S
C2680 C2681 1.374 . S
C2681 H2661 0.950 . S
C2681 C2677 1.385 . S
C2681 C2680 1.374 . S
C2682 C2679 1.499 . S
C2682 C2683 1.373 . S
C2682 C2684 1.389 . S
C2683 H2662 0.950 . S
C2683 C2682 1.373 . S
C2683 C2699 1.377 . S
C2684 C2682 1.389 . S
C2684 C2685 1.524 . S
C2684 C2698 1.377 . S
C2685 C2684 1.524 . S
C2685 C2686 1.397 . S
C2685 C2690 1.363 . S
C2686 H2663 0.950 . S
C2686 C2685 1.397 . S
C2686 C2687 1.334 . S
C2687 H2664 0.950 . S
C2687 C2686 1.334 . S
C2687 C2688 1.287 . S
C2688 C2687 1.287 . S
C2688 C2689 1.524 . S
C2688 H2707 0.913 . S
C2689 H2665 0.950 . S
C2689 C2688 1.524 . S
C2689 C2690 1.415 . S
C2690 H2666 0.950 . S
C2690 C2685 1.363 . S
C2690 C2689 1.415 . S
C2691 H2667 0.951 . S
C2691 C2692 1.366 . S
C2691 C2693 1.388 . S
C2692 C2691 1.366 . S
C2692 C2696 1.385 . S
C2693 H2668 0.951 . S
C2693 C2691 1.388 . S
C2693 C2694 1.366 . S
C2694 C2693 1.366 . S
C2694 C2695 1.414 . S
C2694 C2697 1.499 . S
C2695 H2669 0.950 . S
C2695 C2694 1.414 . S
C2695 C2696 1.374 . S
C2696 H2670 0.950 . S
C2696 C2692 1.385 . S
C2696 C2695 1.374 . S
C2697 C2694 1.499 . S
C2697 C2698 1.373 . S
C2697 C2699 1.389 . S
C2698 H2671 0.950 . S
C2698 C2684 1.377 . S
C2698 C2697 1.373 . S
C2699 C2683 1.377 . S
C2699 C2697 1.389 . S
C2699 C2700 1.524 . S
C2700 C2699 1.524 . S
C2700 C2701 1.397 . S
C2700 C2705 1.363 . S
C2701 H2672 0.950 . S
C2701 C2700 1.397 . S
C2701 C2702 1.334 . S
C2702 H2673 0.950 . S
C2702 C2701 1.334 . S
C2702 C2703 1.287 . S
C2703 C2702 1.287 . S
C2703 C2704 1.524 . S
C2703 H2706 0.999 . S
C2704 H2674 0.950 . S
C2704 C2703 1.524 . S
C2704 C2705 1.415 . S
C2705 H2675 0.950 . S
C2705 C2700 1.363 . S
C2705 C2704 1.415 . S
H2706 C2703 0.999 . S
H2707 C2688 0.913 . S
H2708 C2726 0.951 . S
H2709 C2728 0.951 . S
H2710 C2730 0.950 . S
H2711 C2731 0.950 . S
H2712 C2733 0.950 . S
H2713 C2736 0.950 . S
H2714 C2737 0.950 . S
H2715 C2739 0.950 . S
H2716 C2740 0.950 . S
H2717 C2741 0.951 . S
H2718 C2743 0.951 . S
H2719 C2745 0.950 . S
H2720 C2746 0.950 . S
H2721 C2748 0.950 . S
H2722 C2751 0.950 . S
H2723 C2752 0.950 . S
H2724 C2754 0.950 . S
H2725 C2755 0.950 . S
C2726 H2708 0.951 . S
C2726 C2727 1.366 . S
C2726 C2728 1.388 . S
C2727 C2726 1.366 . S
C2727 C2731 1.385 . S
C2728 H2709 0.951 . S
C2728 C2726 1.388 . S
C2728 C2729 1.366 . S
C2729 C2728 1.366 . S
C2729 C2730 1.414 . S
C2729 C2732 1.499 . S
C2730 H2710 0.950 . S
C2730 C2729 1.414 . S
C2730 C2731 1.374 . S
C2731 H2711 0.950 . S
C2731 C2727 1.385 . S
C2731 C2730 1.374 . S
C2732 C2729 1.499 . S
C2732 C2733 1.373 . S
C2732 C2734 1.389 . S
C2733 H2712 0.950 . S
C2733 C2732 1.373 . S
C2733 C2749 1.377 . S
C2734 C2732 1.389 . S
C2734 C2735 1.524 . S
C2734 C2748 1.377 . S
C2735 C2734 1.524 . S
C2735 C2736 1.397 . S
C2735 C2740 1.363 . S
C2736 H2713 0.950 . S
C2736 C2735 1.397 . S
C2736 C2737 1.334 . S
C2737 H2714 0.950 . S
C2737 C2736 1.334 . S
C2737 C2738 1.287 . S
C2738 C2737 1.287 . S
C2738 C2739 1.524 . S
C2738 H2757 0.913 . S
C2739 H2715 0.950 . S
C2739 C2738 1.524 . S
C2739 C2740 1.415 . S
C2740 H2716 0.950 . S
C2740 C2735 1.363 . S
C2740 C2739 1.415 . S
C2741 H2717 0.951 . S
C2741 C2742 1.366 . S
C2741 C2743 1.388 . S
C2742 C2741 1.366 . S
C2742 C2746 1.385 . S
C2743 H2718 0.951 . S
C2743 C2741 1.388 . S
C2743 C2744 1.366 . S
C2744 C2743 1.366 . S
C2744 C2745 1.414 . S
C2744 C2747 1.499 . S
C2745 H2719 0.950 . S
C2745 C2744 1.414 . S
C2745 C2746 1.374 . S
C2746 H2720 0.950 . S
C2746 C2742 1.385 . S
C2746 C2745 1.374 . S
C2747 C2744 1.499 . S
C2747 C2748 1.373 . S
C2747 C2749 1.389 . S
C2748 H2721 0.950 . S
C2748 C2734 1.377 . S
C2748 C2747 1.373 . S
C2749 C2733 1.377 . S
C2749 C2747 1.389 . S
C2749 C2750 1.524 . S
C2750 C2749 1.524 . S
C2750 C2751 1.397 . S
C2750 C2755 1.363 . S
C2751 H2722 0.950 . S
C2751 C2750 1.397 . S
C2751 C2752 1.334 . S
C2752 H2723 0.950 . S
C2752 C2751 1.334 . S
C2752 C2753 1.287 . S
C2753 C2752 1.287 . S
C2753 C2754 1.524 . S
C2753 H2756 0.999 . S
C2754 H2724 0.950 . S
C2754 C2753 1.524 . S
C2754 C2755 1.415 . S
C2755 H2725 0.950 . S
C2755 C2750 1.363 . S
C2755 C2754 1.415 . S
H2756 C2753 0.999 . S
H2757 C2738 0.913 . S
H2758 C2776 0.951 . S
H2759 C2778 0.951 . S
H2760 C2780 0.950 . S
H2761 C2781 0.950 . S
H2762 C2783 0.950 . S
H2763 C2786 0.950 . S
H2764 C2787 0.950 . S
H2765 C2789 0.950 . S
H2766 C2790 0.950 . S
H2767 C2791 0.951 . S
H2768 C2793 0.951 . S
H2769 C2795 0.950 . S
H2770 C2796 0.950 . S
H2771 C2798 0.950 . S
H2772 C2801 0.950 . S
H2773 C2802 0.950 . S
H2774 C2804 0.950 . S
H2775 C2805 0.950 . S
C2776 H2758 0.951 . S
C2776 C2777 1.366 . S
C2776 C2778 1.388 . S
C2777 C2776 1.366 . S
C2777 C2781 1.385 . S
C2778 H2759 0.951 . S
C2778 C2776 1.388 . S
C2778 C2779 1.366 . S
C2779 C2778 1.366 . S
C2779 C2780 1.414 . S
C2779 C2782 1.499 . S
C2780 H2760 0.950 . S
C2780 C2779 1.414 . S
C2780 C2781 1.374 . S
C2781 H2761 0.950 . S
C2781 C2777 1.385 . S
C2781 C2780 1.374 . S
C2782 C2779 1.499 . S
C2782 C2783 1.373 . S
C2782 C2784 1.389 . S
C2783 H2762 0.950 . S
C2783 C2782 1.373 . S
C2783 C2799 1.377 . S
C2784 C2782 1.389 . S
C2784 C2785 1.524 . S
C2784 C2798 1.377 . S
C2785 C2784 1.524 . S
C2785 C2786 1.397 . S
C2785 C2790 1.363 . S
C2786 H2763 0.950 . S
C2786 C2785 1.397 . S
C2786 C2787 1.334 . S
C2787 H2764 0.950 . S
C2787 C2786 1.334 . S
C2787 C2788 1.287 . S
C2788 C2787 1.287 . S
C2788 C2789 1.524 . S
C2788 H2807 0.913 . S
C2789 H2765 0.950 . S
C2789 C2788 1.524 . S
C2789 C2790 1.415 . S
C2790 H2766 0.950 . S
C2790 C2785 1.363 . S
C2790 C2789 1.415 . S
C2791 H2767 0.951 . S
C2791 C2792 1.366 . S
C2791 C2793 1.388 . S
C2792 C2791 1.366 . S
C2792 C2796 1.385 . S
C2793 H2768 0.951 . S
C2793 C2791 1.388 . S
C2793 C2794 1.366 . S
C2794 C2793 1.366 . S
C2794 C2795 1.414 . S
C2794 C2797 1.499 . S
C2795 H2769 0.950 . S
C2795 C2794 1.414 . S
C2795 C2796 1.374 . S
C2796 H2770 0.950 . S
C2796 C2792 1.385 . S
C2796 C2795 1.374 . S
C2797 C2794 1.499 . S
C2797 C2798 1.373 . S
C2797 C2799 1.389 . S
C2798 H2771 0.950 . S
C2798 C2784 1.377 . S
C2798 C2797 1.373 . S
C2799 C2783 1.377 . S
C2799 C2797 1.389 . S
C2799 C2800 1.524 . S
C2800 C2799 1.524 . S
C2800 C2801 1.397 . S
C2800 C2805 1.363 . S
C2801 H2772 0.950 . S
C2801 C2800 1.397 . S
C2801 C2802 1.334 . S
C2802 H2773 0.950 . S
C2802 C2801 1.334 . S
C2802 C2803 1.287 . S
C2803 C2802 1.287 . S
C2803 C2804 1.524 . S
C2803 H2806 0.999 . S
C2804 H2774 0.950 . S
C2804 C2803 1.524 . S
C2804 C2805 1.415 . S
C2805 H2775 0.950 . S
C2805 C2800 1.363 . S
C2805 C2804 1.415 . S
H2806 C2803 0.999 . S
H2807 C2788 0.913 . S
H2808 C2826 0.951 . S
H2809 C2828 0.951 . S
H2810 C2830 0.950 . S
H2811 C2831 0.950 . S
H2812 C2833 0.950 . S
H2813 C2836 0.950 . S
H2814 C2837 0.950 . S
H2815 C2839 0.950 . S
H2816 C2840 0.950 . S
H2817 C2841 0.951 . S
H2818 C2843 0.951 . S
H2819 C2845 0.950 . S
H2820 C2846 0.950 . S
H2821 C2848 0.950 . S
H2822 C2851 0.950 . S
H2823 C2852 0.950 . S
H2824 C2854 0.950 . S
H2825 C2855 0.950 . S
C2826 H2808 0.951 . S
C2826 C2827 1.366 . S
C2826 C2828 1.388 . S
C2827 C2826 1.366 . S
C2827 C2831 1.385 . S
C2828 H2809 0.951 . S
C2828 C2826 1.388 . S
C2828 C2829 1.366 . S
C2829 C2828 1.366 . S
C2829 C2830 1.414 . S
C2829 C2832 1.499 . S
C2830 H2810 0.950 . S
C2830 C2829 1.414 . S
C2830 C2831 1.374 . S
C2831 H2811 0.950 . S
C2831 C2827 1.385 . S
C2831 C2830 1.374 . S
C2832 C2829 1.499 . S
C2832 C2833 1.373 . S
C2832 C2834 1.389 . S
C2833 H2812 0.950 . S
C2833 C2832 1.373 . S
C2833 C2849 1.377 . S
C2834 C2832 1.389 . S
C2834 C2835 1.524 . S
C2834 C2848 1.377 . S
C2835 C2834 1.524 . S
C2835 C2836 1.397 . S
C2835 C2840 1.363 . S
C2836 H2813 0.950 . S
C2836 C2835 1.397 . S
C2836 C2837 1.334 . S
C2837 H2814 0.950 . S
C2837 C2836 1.334 . S
C2837 C2838 1.287 . S
C2838 C2837 1.287 . S
C2838 C2839 1.524 . S
C2838 H2857 0.913 . S
C2839 H2815 0.950 . S
C2839 C2838 1.524 . S
C2839 C2840 1.415 . S
C2840 H2816 0.950 . S
C2840 C2835 1.363 . S
C2840 C2839 1.415 . S
C2841 H2817 0.951 . S
C2841 C2842 1.366 . S
C2841 C2843 1.388 . S
C2842 C2841 1.366 . S
C2842 C2846 1.385 . S
C2843 H2818 0.951 . S
C2843 C2841 1.388 . S
C2843 C2844 1.366 . S
C2844 C2843 1.366 . S
C2844 C2845 1.414 . S
C2844 C2847 1.499 . S
C2845 H2819 0.950 . S
C2845 C2844 1.414 . S
C2845 C2846 1.374 . S
C2846 H2820 0.950 . S
C2846 C2842 1.385 . S
C2846 C2845 1.374 . S
C2847 C2844 1.499 . S
C2847 C2848 1.373 . S
C2847 C2849 1.389 . S
C2848 H2821 0.950 . S
C2848 C2834 1.377 . S
C2848 C2847 1.373 . S
C2849 C2833 1.377 . S
C2849 C2847 1.389 . S
C2849 C2850 1.524 . S
C2850 C2849 1.524 . S
C2850 C2851 1.397 . S
C2850 C2855 1.363 . S
C2851 H2822 0.950 . S
C2851 C2850 1.397 . S
C2851 C2852 1.334 . S
C2852 H2823 0.950 . S
C2852 C2851 1.334 . S
C2852 C2853 1.287 . S
C2853 C2852 1.287 . S
C2853 C2854 1.524 . S
C2853 H2856 0.999 . S
C2854 H2824 0.950 . S
C2854 C2853 1.524 . S
C2854 C2855 1.415 . S
C2855 H2825 0.950 . S
C2855 C2850 1.363 . S
C2855 C2854 1.415 . S
H2856 C2853 0.999 . S
H2857 C2838 0.913 . S
H2858 C2876 0.951 . S
H2859 C2878 0.951 . S
H2860 C2880 0.950 . S
H2861 C2881 0.950 . S
H2862 C2883 0.950 . S
H2863 C2886 0.950 . S
H2864 C2887 0.950 . S
H2865 C2889 0.950 . S
H2866 C2890 0.950 . S
H2867 C2891 0.951 . S
H2868 C2893 0.951 . S
H2869 C2895 0.950 . S
H2870 C2896 0.950 . S
H2871 C2898 0.950 . S
H2872 C2901 0.950 . S
H2873 C2902 0.950 . S
H2874 C2904 0.950 . S
H2875 C2905 0.950 . S
C2876 H2858 0.951 . S
C2876 C2877 1.366 . S
C2876 C2878 1.388 . S
C2877 C2876 1.366 . S
C2877 C2881 1.385 . S
C2878 H2859 0.951 . S
C2878 C2876 1.388 . S
C2878 C2879 1.366 . S
C2879 C2878 1.366 . S
C2879 C2880 1.414 . S
C2879 C2882 1.499 . S
C2880 H2860 0.950 . S
C2880 C2879 1.414 . S
C2880 C2881 1.374 . S
C2881 H2861 0.950 . S
C2881 C2877 1.385 . S
C2881 C2880 1.374 . S
C2882 C2879 1.499 . S
C2882 C2883 1.373 . S
C2882 C2884 1.389 . S
C2883 H2862 0.950 . S
C2883 C2882 1.373 . S
C2883 C2899 1.377 . S
C2884 C2882 1.389 . S
C2884 C2885 1.524 . S
C2884 C2898 1.377 . S
C2885 C2884 1.524 . S
C2885 C2886 1.397 . S
C2885 C2890 1.363 . S
C2886 H2863 0.950 . S
C2886 C2885 1.397 . S
C2886 C2887 1.334 . S
C2887 H2864 0.950 . S
C2887 C2886 1.334 . S
C2887 C2888 1.287 . S
C2888 C2887 1.287 . S
C2888 C2889 1.524 . S
C2888 H2907 0.913 . S
C2889 H2865 0.950 . S
C2889 C2888 1.524 . S
C2889 C2890 1.415 . S
C2890 H2866 0.950 . S
C2890 C2885 1.363 . S
C2890 C2889 1.415 . S
C2891 H2867 0.951 . S
C2891 C2892 1.366 . S
C2891 C2893 1.388 . S
C2892 C2891 1.366 . S
C2892 C2896 1.385 . S
C2893 H2868 0.951 . S
C2893 C2891 1.388 . S
C2893 C2894 1.366 . S
C2894 C2893 1.366 . S
C2894 C2895 1.414 . S
C2894 C2897 1.499 . S
C2895 H2869 0.950 . S
C2895 C2894 1.414 . S
C2895 C2896 1.374 . S
C2896 H2870 0.950 . S
C2896 C2892 1.385 . S
C2896 C2895 1.374 . S
C2897 C2894 1.499 . S
C2897 C2898 1.373 . S
C2897 C2899 1.389 . S
C2898 H2871 0.950 . S
C2898 C2884 1.377 . S
C2898 C2897 1.373 . S
C2899 C2883 1.377 . S
C2899 C2897 1.389 . S
C2899 C2900 1.524 . S
C2900 C2899 1.524 . S
C2900 C2901 1.397 . S
C2900 C2905 1.363 . S
C2901 H2872 0.950 . S
C2901 C2900 1.397 . S
C2901 C2902 1.334 . S
C2902 H2873 0.950 . S
C2902 C2901 1.334 . S
C2902 C2903 1.287 . S
C2903 C2902 1.287 . S
C2903 C2904 1.524 . S
C2903 H2906 0.999 . S
C2904 H2874 0.950 . S
C2904 C2903 1.524 . S
C2904 C2905 1.415 . S
C2905 H2875 0.950 . S
C2905 C2900 1.363 . S
C2905 C2904 1.415 . S
H2906 C2903 0.999 . S
H2907 C2888 0.913 . S
C542 C219 0.922 . S
C527 C17 0.922 . S
C592 C197 1.706 . S
C577 C44 1.686 . S
C642 C194 0.458 . S
C627 C63 0.447 . S
C677 C87 1.593 . S
C692 C206 1.514 . S
C727 C110 1.560 . S
C742 C189 1.487 . S
C792 C211 0.470 . S
C777 C131 0.462 . S
C827 C159 1.653 . S
C842 C216 1.674 . S
C877 C177 0.939 . S
C892 C212 0.942 . S
C942 C270 1.614 . S
C927 C20 1.545 . S
C977 C42 1.114 . S
C992 C320 1.121 . S
C1042 C243 1.668 . S
C1027 C66 1.578 . S
C1092 C319 0.417 . S
C1077 C86 0.431 . S
C1127 C109 0.416 . S
C1142 C248 0.400 . S
C1192 C314 1.672 . S
C1177 C136 1.613 . S
C1227 C157 1.100 . S
C1242 C273 1.107 . S
C1277 C182 1.582 . S
C1292 C305 1.623 . S
C1327 C18 1.651 . S
C1342 C297 1.596 . S
C1377 C112 0.999 . S
C1392 C327 1.076 . S
C1442 C251 1.579 . S
C1427 C134 1.593 . S
C1492 C302 0.613 . S
C1477 C154 0.622 . S
C1527 C180 1.598 . S
C1542 C260 1.582 . S
C1577 C64 1.648 . S
C1592 C324 1.596 . S
C1642 C266 1.085 . S
C1627 C89 1.008 . S
C1677 C39 0.634 . S
C1692 C265 0.627 . S
C1727 C178 0.921 . S
C1742 C381 0.921 . S
C1777 C113 1.684 . S
C1792 C359 1.704 . S
C1842 C356 0.459 . S
C1827 C132 0.448 . S
C1892 C368 1.514 . S
C1877 C156 1.593 . S
C1927 C41 1.560 . S
C1942 C351 1.487 . S
C1992 C373 0.468 . S
C1977 C62 0.460 . S
C2027 C90 1.652 . S
C2042 C378 1.673 . S
C2077 C16 0.939 . S
C2092 C374 0.941 . S
C2127 C181 1.544 . S
C2142 C432 1.615 . S
C2192 C482 1.121 . S
C2177 C111 1.114 . S
C2227 C135 1.578 . S
C2242 C405 1.668 . S
C2277 C155 0.429 . S
C2292 C481 0.418 . S
C2342 C410 0.401 . S
C2327 C40 0.415 . S
C2377 C67 1.614 . S
C2392 C476 1.672 . S
C2442 C435 1.106 . S
C2427 C88 1.100 . S
C2492 C467 1.623 . S
C2477 C21 1.581 . S
C2542 C459 1.596 . S
C2527 C179 1.651 . S
C2577 C43 1.000 . S
C2592 C489 1.076 . S
C2627 C65 1.592 . S
C2642 C413 1.580 . S
C2692 C464 0.613 . S
C2677 C85 0.622 . S
C2727 C19 1.597 . S
C2742 C422 1.582 . S
C2777 C133 1.648 . S
C2792 C486 1.596 . S
C2842 C428 1.086 . S
C2827 C158 1.009 . S
C2892 C427 0.626 . S
C2877 C108 0.635 . S
