# Generated by pormake.
# Topology ocu, (6,8)-cn, num edge types: 1
# Building blocks:
#     Node 0, Type 0, BuildingBlock: KUMBUR_clean_sbu_0, # of connection points: 6
#     Node 1, Type 0, BuildingBlock: KUMBUR_clean_sbu_0, # of connection points: 6
#     Node 2, Type 0, BuildingBlock: KUMBUR_clean_sbu_0, # of connection points: 6
#     Node 3, Type 0, BuildingBlock: KUMBUR_clean_sbu_0, # of connection points: 6
#     Node 4, Type 0, BuildingBlock: KUMBUR_clean_sbu_0, # of connection points: 6
#     Node 5, Type 0, BuildingBlock: KUMBUR_clean_sbu_0, # of connection points: 6
#     Node 6, Type 0, BuildingBlock: KUMBUR_clean_sbu_0, # of connection points: 6
#     Node 7, Type 0, BuildingBlock: KUMBUR_clean_sbu_0, # of connection points: 6
#     Node 8, Type 1, BuildingBlock: TAGTUT_clean_sbu_1, # of connection points: 8
#     Node 9, Type 1, BuildingBlock: TAGTUT_clean_sbu_1, # of connection points: 8
#     Node 10, Type 1, BuildingBlock: TAGTUT_clean_sbu_1, # of connection points: 8
#     Node 11, Type 1, BuildingBlock: TAGTUT_clean_sbu_1, # of connection points: 8
#     Node 12, Type 1, BuildingBlock: TAGTUT_clean_sbu_1, # of connection points: 8
#     Node 13, Type 1, BuildingBlock: TAGTUT_clean_sbu_1, # of connection points: 8
#     Edge 14, Type (0, 1), BuildingBlock: OJICUG_clean_linker_0, # of connection points: 2
#     Edge 15, Type (0, 1), BuildingBlock: OJICUG_clean_linker_0, # of connection points: 2
#     Edge 16, Type (0, 1), BuildingBlock: OJICUG_clean_linker_0, # of connection points: 2
#     Edge 17, Type (0, 1), BuildingBlock: OJICUG_clean_linker_0, # of connection points: 2
#     Edge 18, Type (0, 1), BuildingBlock: OJICUG_clean_linker_0, # of connection points: 2
#     Edge 19, Type (0, 1), BuildingBlock: OJICUG_clean_linker_0, # of connection points: 2
#     Edge 20, Type (0, 1), BuildingBlock: OJICUG_clean_linker_0, # of connection points: 2
#     Edge 21, Type (0, 1), BuildingBlock: OJICUG_clean_linker_0, # of connection points: 2
#     Edge 22, Type (0, 1), BuildingBlock: OJICUG_clean_linker_0, # of connection points: 2
#     Edge 23, Type (0, 1), BuildingBlock: OJICUG_clean_linker_0, # of connection points: 2
#     Edge 24, Type (0, 1), BuildingBlock: OJICUG_clean_linker_0, # of connection points: 2
#     Edge 25, Type (0, 1), BuildingBlock: OJICUG_clean_linker_0, # of connection points: 2
#     Edge 26, Type (0, 1), BuildingBlock: OJICUG_clean_linker_0, # of connection points: 2
#     Edge 27, Type (0, 1), BuildingBlock: OJICUG_clean_linker_0, # of connection points: 2
#     Edge 28, Type (0, 1), BuildingBlock: OJICUG_clean_linker_0, # of connection points: 2
#     Edge 29, Type (0, 1), BuildingBlock: OJICUG_clean_linker_0, # of connection points: 2
#     Edge 30, Type (0, 1), BuildingBlock: OJICUG_clean_linker_0, # of connection points: 2
#     Edge 31, Type (0, 1), BuildingBlock: OJICUG_clean_linker_0, # of connection points: 2
#     Edge 32, Type (0, 1), BuildingBlock: OJICUG_clean_linker_0, # of connection points: 2
#     Edge 33, Type (0, 1), BuildingBlock: OJICUG_clean_linker_0, # of connection points: 2
#     Edge 34, Type (0, 1), BuildingBlock: OJICUG_clean_linker_0, # of connection points: 2
#     Edge 35, Type (0, 1), BuildingBlock: OJICUG_clean_linker_0, # of connection points: 2
#     Edge 36, Type (0, 1), BuildingBlock: OJICUG_clean_linker_0, # of connection points: 2
#     Edge 37, Type (0, 1), BuildingBlock: OJICUG_clean_linker_0, # of connection points: 2
#     Edge 38, Type (0, 1), BuildingBlock: OJICUG_clean_linker_0, # of connection points: 2
#     Edge 39, Type (0, 1), BuildingBlock: OJICUG_clean_linker_0, # of connection points: 2
#     Edge 40, Type (0, 1), BuildingBlock: OJICUG_clean_linker_0, # of connection points: 2
#     Edge 41, Type (0, 1), BuildingBlock: OJICUG_clean_linker_0, # of connection points: 2
#     Edge 42, Type (0, 1), BuildingBlock: OJICUG_clean_linker_0, # of connection points: 2
#     Edge 43, Type (0, 1), BuildingBlock: OJICUG_clean_linker_0, # of connection points: 2
#     Edge 44, Type (0, 1), BuildingBlock: OJICUG_clean_linker_0, # of connection points: 2
#     Edge 45, Type (0, 1), BuildingBlock: OJICUG_clean_linker_0, # of connection points: 2
#     Edge 46, Type (0, 1), BuildingBlock: OJICUG_clean_linker_0, # of connection points: 2
#     Edge 47, Type (0, 1), BuildingBlock: OJICUG_clean_linker_0, # of connection points: 2
#     Edge 48, Type (0, 1), BuildingBlock: OJICUG_clean_linker_0, # of connection points: 2
#     Edge 49, Type (0, 1), BuildingBlock: OJICUG_clean_linker_0, # of connection points: 2
#     Edge 50, Type (0, 1), BuildingBlock: OJICUG_clean_linker_0, # of connection points: 2
#     Edge 51, Type (0, 1), BuildingBlock: OJICUG_clean_linker_0, # of connection points: 2
#     Edge 52, Type (0, 1), BuildingBlock: OJICUG_clean_linker_0, # of connection points: 2
#     Edge 53, Type (0, 1), BuildingBlock: OJICUG_clean_linker_0, # of connection points: 2
#     Edge 54, Type (0, 1), BuildingBlock: OJICUG_clean_linker_0, # of connection points: 2
#     Edge 55, Type (0, 1), BuildingBlock: OJICUG_clean_linker_0, # of connection points: 2
#     Edge 56, Type (0, 1), BuildingBlock: OJICUG_clean_linker_0, # of connection points: 2
#     Edge 57, Type (0, 1), BuildingBlock: OJICUG_clean_linker_0, # of connection points: 2
#     Edge 58, Type (0, 1), BuildingBlock: OJICUG_clean_linker_0, # of connection points: 2
#     Edge 59, Type (0, 1), BuildingBlock: OJICUG_clean_linker_0, # of connection points: 2
#     Edge 60, Type (0, 1), BuildingBlock: OJICUG_clean_linker_0, # of connection points: 2
#     Edge 61, Type (0, 1), BuildingBlock: OJICUG_clean_linker_0, # of connection points: 2
# Relax obj value: 0.121
# Max RMSD: 0.263
# Mean RMSD: 0.152
data_MOF--net-ocu--node1-KUMBUR_clean_sbu_0--node2-TAGTUT_clean_sbu_1--edge1-OJICUG_clean_linker_0
_symmetry_space_group_name_H-M    P1
_symmetry_Int_Tables_number       1
_symmetry_cell_setting            triclinic
loop_
_symmetry_equiv_pos_as_xyz
'x, y, z'
_cell_length_a     30.783371
_cell_length_b     29.496265
_cell_length_c     33.179254
_cell_angle_alpha  76.387591
_cell_angle_beta   103.63507
_cell_angle_gamma 120.2219
loop_
_atom_site_label
_atom_site_type_symbol
_atom_site_fract_x
_atom_site_fract_y
_atom_site_fract_z
_atom_type_partial_charge
Tb0 Tb 0.255 0.21146 0.21768 0.0
C1 C 0.44012 0.37137 0.32118 0.0
C2 C 0.46012 0.31835 0.38253 0.0
C3 C 0.52593 0.40577 0.35897 0.0
C4 C 0.42518 0.32498 0.34871 0.0
C5 C 0.49023 0.41308 0.32676 0.0
C6 C 0.51091 0.35836 0.38677 0.0
C7 C 0.46463 0.46798 0.27135 0.0
N8 N 0.40433 0.3771 0.29084 0.0
C9 C 0.41553 0.42531 0.26682 0.0
C10 C 0.50229 0.46166 0.30114 0.0
Tb11 Tb 0.32385 0.30641 0.28805 0.0
N12 N 0.37557 0.28789 0.34403 0.0
C13 C 0.3578 0.24472 0.37414 0.0
C14 C 0.44252 0.27273 0.41197 0.0
C15 C 0.39097 0.23617 0.40804 0.0
H16 H 0.38702 0.43117 0.24372 0.0
H17 H 0.37666 0.20127 0.43103 0.0
H18 H 0.5384 0.35377 0.41227 0.0
H19 H 0.47333 0.50576 0.25191 0.0
H20 H 0.31814 0.21587 0.37202 0.0
H21 H 0.21522 0.32432 0.07338 0.0
H22 H 0.46806 0.26608 0.43839 0.0
H23 H 0.18297 0.09086 0.26437 0.0
H24 H 0.26911 0.30576 0.13508 0.0
H25 H 0.09328 0.0222 0.2562 0.0
H26 H 0.56477 0.43711 0.36345 0.0
H27 H 0.12311 0.26289 0.0622 0.0
H28 H 0.04844 0.17805 0.08636 0.0
H29 H 0.54 0.495 0.30513 0.0
H30 H 1.01509 0.09617 0.13642 0.0
N31 N 0.2082 0.23458 0.16003 0.0
C32 C 0.22904 0.27837 0.13105 0.0
C33 C 0.14658 0.25443 0.08958 0.0
C34 C 0.12569 0.20875 0.11845 0.0
C35 C 0.19856 0.28917 0.09577 0.0
C36 C 0.15798 0.19965 0.15356 0.0
H37 H 1.03178 0.0373 0.19929 0.0
N38 N 0.1721 0.14588 0.21395 0.0
C39 C 0.1056 0.05924 0.23521 0.0
C40 C 0.13918 0.15391 0.1817 0.0
C41 C 0.15645 0.09834 0.23974 0.0
C42 C 0.07095 0.06799 0.20317 0.0
C43 C 0.08764 0.11548 0.17558 0.0
O44 O 0.26029 0.14547 0.21091 0.0
O45 O 0.319 0.23795 0.26846 0.0
O46 O 0.37896 0.32347 0.24794 0.0
O47 O 0.32095 0.28162 0.19231 0.0
O48 O 0.27334 0.15882 0.26929 0.0
O49 O 0.27644 0.21203 0.16168 0.0
O50 O 0.31084 0.36697 0.29612 0.0
O51 O 0.25952 0.27891 0.23766 0.0
O52 O 0.20195 0.19783 0.25829 0.0
O53 O 0.26267 0.23253 0.31454 0.0
O54 O 0.3038 0.35757 0.23589 0.0
O55 O 0.30137 0.30152 0.34497 0.0
C56 C 0.31412 0.19306 0.2885 0.0
C57 C 0.24802 0.12814 0.14202 0.0
C58 C 0.25923 0.08535 0.09334 0.0
C59 C 0.27917 0.12481 0.11945 0.0
C60 C 0.20651 0.0511 0.08839 0.0
C61 C 0.19566 0.09365 0.13676 0.0
C62 C 0.17501 0.05577 0.10962 0.0
C63 C 0.36769 0.31323 0.20896 0.0
C64 C 0.27247 0.16491 0.1733 0.0
C65 C 0.0549 0.12501 0.14147 0.0
C66 C 0.0739 0.17159 0.11295 0.0
C67 C 0.263 0.32285 0.2172 0.0
C68 C 0.32362 0.38312 0.36539 0.0
C69 C 0.29171 0.38404 0.38873 0.0
C70 C 0.31058 0.42239 0.41571 0.0
C71 C 0.36287 0.45851 0.42018 0.0
C72 C 0.37557 0.41931 0.3704 0.0
C73 C 0.39508 0.45648 0.39797 0.0
C74 C 0.21538 0.20256 0.29847 0.0
C75 C 0.30062 0.34643 0.33407 0.0
H76 H 0.31942 0.15253 0.12326 0.0
H77 H 0.18964 0.01968 0.0692 0.0
H78 H 0.17093 0.09512 0.15409 0.0
H79 H 0.1346 0.02891 0.10592 0.0
H80 H 0.25182 0.35511 0.38513 0.0
H81 H 0.37884 0.48926 0.4399 0.0
H82 H 0.40088 0.41959 0.35266 0.0
H83 H 0.43515 0.48467 0.4014 0.0
Tb84 Tb 0.81815 0.22419 0.25406 0.0
C85 C 0.6418 0.27486 0.24977 0.0
C86 C 0.61892 0.31121 0.17984 0.0
C87 C 0.55846 0.27024 0.22963 0.0
C88 C 0.65472 0.30148 0.21074 0.0
C89 C 0.59363 0.25923 0.25983 0.0
C90 C 0.57102 0.29601 0.18964 0.0
C91 C 0.61916 0.22483 0.32936 0.0
N92 N 0.67658 0.26456 0.27803 0.0
C93 C 0.66637 0.24128 0.31792 0.0
C94 C 0.5824 0.23342 0.30007 0.0
Tb95 Tb 0.75442 0.29647 0.25772 0.0
N96 N 0.70152 0.31569 0.20251 0.0
C97 C 0.71302 0.33651 0.16248 0.0
C98 C 0.63181 0.3348 0.13972 0.0
C99 C 0.67887 0.34707 0.13094 0.0
H100 H 0.69554 0.23768 0.34163 0.0
H101 H 0.68857 0.36375 0.09957 0.0
H102 H 0.54329 0.30364 0.16641 0.0
H103 H 0.6115 0.20631 0.36098 0.0
H104 H 0.74746 0.34338 0.1535 0.0
H105 H 0.98675 0.39796 0.31374 0.0
H106 H 0.60518 0.34236 0.11506 0.0
H107 H 0.79445 0.18928 0.15876 0.0
H108 H 0.89614 0.33936 0.30023 0.0
H109 H 0.84307 0.19926 0.10592 0.0
H110 H 0.52138 0.25872 0.2368 0.0
H111 H 0.04549 0.39506 0.27623 0.0
H112 H 0.05589 0.36287 0.21757 0.0
H113 H 0.54591 0.22089 0.30904 0.0
H114 H 1.01585 0.31182 0.1583 0.0
N115 N 0.90201 0.29258 0.26311 0.0
C116 C 0.92066 0.3326 0.28699 0.0
C117 C 1.00548 0.3666 0.27205 0.0
C118 C 0.9854 0.3322 0.24219 0.0
C119 C 0.97254 0.36814 0.29342 0.0
C120 C 0.93282 0.29602 0.23791 0.0
H121 H 0.93646 0.25328 0.11525 0.0
N122 N 0.85901 0.23992 0.19823 0.0
C123 C 0.86255 0.21937 0.13323 0.0
C124 C 0.91031 0.26898 0.2039 0.0
C125 C 0.83502 0.21452 0.16343 0.0
C126 C 0.91521 0.24951 0.13874 0.0
C127 C 0.93977 0.275 0.17425 0.0
O128 O 0.77684 0.15108 0.2314 0.0
O129 O 0.75457 0.22115 0.27396 0.0
O130 O 0.78244 0.27091 0.32121 0.0
O131 O 0.84364 0.2471 0.31751 0.0
O132 O 0.7701 0.16158 0.30023 0.0
O133 O 0.85141 0.17456 0.26857 0.0
O134 O 0.8176 0.36736 0.27554 0.0
O135 O 0.80987 0.2925 0.23232 0.0
O136 O 0.76907 0.23028 0.19632 0.0
O137 O 0.70466 0.23723 0.21498 0.0
O138 O 0.80563 0.36017 0.21297 0.0
O139 O 0.74794 0.3345 0.30033 0.0
C140 C 0.73671 0.17663 0.2977 0.0
C141 C 0.79475 0.0826 0.27023 0.0
C142 C 0.81915 0.02146 0.3188 0.0
C143 C 0.83196 0.06887 0.2917 0.0
C144 C 0.76791 0.98422 0.32064 0.0
C145 C 0.74325 0.04497 0.27101 0.0
C146 C 0.73002 0.99541 0.2956 0.0
C147 C 0.82429 0.26663 0.33686 0.0
C148 C 0.8118 0.13723 0.24911 0.0
C149 C 0.9926 0.30727 0.18042 0.0
C150 C 1.01543 0.33596 0.21435 0.0
C151 C 0.82972 0.33631 0.20939 0.0
C152 C 0.79654 0.42667 0.28993 0.0
C153 C 0.75679 0.4338 0.26449 0.0
C154 C 0.76242 0.48464 0.24976 0.0
C155 C 0.80803 0.5286 0.26276 0.0
C156 C 0.84202 0.4705 0.3023 0.0
C157 C 0.8478 0.52139 0.28838 0.0
C158 C 0.72169 0.2208 0.19118 0.0
C159 C 0.79308 0.37439 0.29822 0.0
H160 H 0.87169 0.09812 0.29128 0.0
H161 H 0.75743 0.94805 0.34266 0.0
H162 H 0.71347 0.0542 0.25374 0.0
H163 H 0.69043 0.96689 0.29701 0.0
H164 H 0.72339 0.39972 0.25277 0.0
H165 H 0.81412 0.56855 0.25103 0.0
H166 H 0.8736 0.46543 0.32117 0.0
H167 H 0.88375 0.55538 0.29639 0.0
Tb168 Tb 0.73148 0.70371 0.28631 0.0
C169 C 0.90815 0.91992 0.24213 0.0
C170 C 0.87384 0.97006 0.18914 0.0
C171 C 0.94718 0.0156 0.23927 0.0
C172 C 0.87173 0.92122 0.20904 0.0
C173 C 0.94657 0.96724 0.25746 0.0
C174 C 0.91107 0.01706 0.205 0.0
C175 C 0.98238 0.91604 0.30636 0.0
N176 N 0.90626 0.87226 0.25885 0.0
C177 C 0.9437 0.87016 0.29013 0.0
C178 C 0.98362 0.96471 0.29023 0.0
Tb179 Tb 0.8373 0.79932 0.23158 0.0
N180 N 0.83604 0.87498 0.19478 0.0
C181 C 0.80467 0.87566 0.15812 0.0
C182 C 0.83955 0.97038 0.15307 0.0
C183 C 0.80556 0.92307 0.13698 0.0
H184 H 0.94346 0.83333 0.30422 0.0
H185 H 0.77973 0.92295 0.10846 0.0
H186 H 0.91293 0.05485 0.19044 0.0
H187 H 1.01107 0.91371 0.3316 0.0
H188 H 0.77829 0.83974 0.14514 0.0
H189 H 0.78763 0.58481 0.4152 0.0
H190 H 0.84003 0.00703 0.13676 0.0
H191 H 0.62323 0.66579 0.21685 0.0
H192 H 0.78991 0.66731 0.37494 0.0
H193 H 0.55774 0.58386 0.18942 0.0
H194 H 0.97619 0.05225 0.25082 0.0
H195 H 0.73145 0.49983 0.38705 0.0
H196 H 0.66283 0.45013 0.33146 0.0
H197 H 1.01365 1.00013 0.30293 0.0
H198 H 0.60021 0.45014 0.26968 0.0
N199 N 0.73488 0.62992 0.32464 0.0
C200 C 0.76452 0.63062 0.36255 0.0
C201 C 0.73176 0.53593 0.36948 0.0
C202 C 0.69943 0.53499 0.33179 0.0
C203 C 0.76334 0.58376 0.38556 0.0
C204 C 0.70093 0.58309 0.31049 0.0
H205 H 0.5602 0.49962 0.21725 0.0
N206 N 0.6643 0.62943 0.25993 0.0
C207 C 0.58775 0.5831 0.21389 0.0
C208 C 0.66466 0.58286 0.27673 0.0
C209 C 0.62502 0.62964 0.23001 0.0
C210 C 0.58944 0.53569 0.2294 0.0
C211 C 0.62748 0.53486 0.26185 0.0
O212 O 0.69223 0.66973 0.33922 0.0
O213 O 0.76083 0.77605 0.24187 0.0
O214 O 0.84049 0.82898 0.28778 0.0
O215 O 0.79936 0.74784 0.32794 0.0
O216 O 0.68607 0.74105 0.24767 0.0
O217 O 0.70966 0.74841 0.31059 0.0
O218 O 0.87512 0.83233 0.17795 0.0
O219 O 0.80841 0.72694 0.27686 0.0
O220 O 0.72506 0.67682 0.22693 0.0
O221 O 0.76966 0.75862 0.1885 0.0
O222 O 0.88278 0.76216 0.27056 0.0
O223 O 0.85762 0.75361 0.20707 0.0
C224 C 0.72101 0.78249 0.22921 0.0
C225 C 0.70784 0.73193 0.38336 0.0
C226 C 0.71 0.78793 0.42937 0.0
C227 C 0.69426 0.76844 0.3904 0.0
C228 C 0.74012 0.77067 0.46086 0.0
C229 C 0.73675 0.71461 0.41599 0.0
C230 C 0.75314 0.73427 0.45419 0.0
C231 C 0.82758 0.79982 0.32424 0.0
C232 C 0.69169 0.71273 0.34192 0.0
C233 C 0.62829 0.48735 0.28086 0.0
C234 C 0.66401 0.48736 0.31597 0.0
C235 C 0.84859 0.72107 0.28998 0.0
C236 C 0.85789 0.76928 0.1341 0.0
C237 C 0.87328 0.73484 0.1259 0.0
C238 C 0.85619 0.71458 0.08718 0.0
C239 C 0.8231 0.72917 0.05708 0.0
C240 C 0.82572 0.78375 0.10292 0.0
C241 C 0.80825 0.76352 0.06491 0.0
C242 C 0.73793 0.7074 0.19072 0.0
C243 C 0.87515 0.78898 0.17537 0.0
H244 H 0.67147 0.78161 0.36553 0.0
H245 H 0.75227 0.78389 0.49131 0.0
H246 H 0.74696 0.68601 0.41209 0.0
H247 H 0.77572 0.72081 0.47899 0.0
H248 H 0.89837 0.72372 0.14973 0.0
H249 H 0.80982 0.71532 0.02683 0.0
H250 H 0.8138 0.81051 0.1079 0.0
H251 H 0.78329 0.77488 0.04118 0.0
Tb252 Tb 0.30516 0.70306 0.27177 0.0
C253 C 0.22096 0.84438 0.15519 0.0
C254 C 0.29556 0.92117 0.13086 0.0
C255 C 0.21442 0.89227 0.08559 0.0
C256 C 0.27203 0.8789 0.16195 0.0
C257 C 0.19116 0.85098 0.11723 0.0
C258 C 0.26666 0.92695 0.0923 0.0
C259 C 0.11809 0.77536 0.14477 0.0
N260 N 0.20057 0.804 0.186 0.0
C261 C 0.14945 0.7701 0.18168 0.0
C262 C 0.13908 0.8157 0.11222 0.0
Tb263 Tb 0.25602 0.79582 0.24342 0.0
N264 N 0.29866 0.871 0.19919 0.0
C265 C 0.34843 0.90706 0.20887 0.0
C266 C 0.34734 0.95612 0.13954 0.0
C267 C 0.37363 0.94975 0.17907 0.0
H268 H 0.13262 0.73811 0.20609 0.0
H269 H 0.41351 0.97709 0.18635 0.0
H270 H 0.28426 0.95809 0.0676 0.0
H271 H 0.07779 0.74798 0.14131 0.0
H272 H 0.36965 0.90212 0.23893 0.0
H273 H 0.14602 0.52073 0.32546 0.0
H274 H 0.36729 0.98816 0.11618 0.0
H275 H 0.42793 0.75919 0.31083 0.0
H276 H 0.1914 0.59624 0.27382 0.0
H277 H 0.48111 0.74883 0.37671 0.0
H278 H 0.19243 0.89769 0.0559 0.0
H279 H 0.19005 0.50953 0.3967 0.0
H280 H 0.27146 0.54067 0.44737 0.0
H281 H 0.1148 0.81939 0.08354 0.0
H282 H 0.36326 0.60037 0.4607 0.0
N283 N 0.26122 0.62733 0.31502 0.0
C284 C 0.21175 0.59116 0.30432 0.0
C285 C 0.21073 0.54178 0.37374 0.0
C286 C 0.26226 0.57691 0.38351 0.0
C287 C 0.18568 0.5482 0.3336 0.0
C288 C 0.28677 0.61925 0.35283 0.0
H289 H 0.44215 0.67784 0.43415 0.0
N290 N 0.35912 0.69402 0.33007 0.0
C291 C 0.44074 0.72183 0.37263 0.0
C292 C 0.33775 0.65366 0.36058 0.0
C293 C 0.41035 0.72737 0.33513 0.0
C294 C 0.41865 0.68172 0.40498 0.0
C295 C 0.36652 0.64685 0.39913 0.0
O296 O 0.35668 0.69602 0.24472 0.0
O297 O 0.30764 0.77292 0.2307 0.0
O298 O 0.23413 0.7535 0.18993 0.0
O299 O 0.23461 0.67653 0.22664 0.0
O300 O 0.37402 0.77113 0.24853 0.0
O301 O 0.27657 0.63955 0.23814 0.0
O302 O 0.20602 0.80405 0.27176 0.0
O303 O 0.25356 0.72588 0.28406 0.0
O304 O 0.32737 0.74614 0.32488 0.0
O305 O 0.32735 0.82284 0.28724 0.0
O306 O 0.18744 0.72794 0.26767 0.0
O307 O 0.28629 0.85972 0.27692 0.0
C308 C 0.35387 0.79879 0.22475 0.0
C309 C 0.33177 0.61391 0.22305 0.0
C310 C 0.34755 0.57334 0.17585 0.0
C311 C 0.33917 0.61306 0.1832 0.0
C312 C 0.34853 0.53422 0.20938 0.0
C313 C 0.33269 0.57479 0.25617 0.0
C314 C 0.34116 0.53505 0.24924 0.0
C315 C 0.22414 0.7039 0.19152 0.0
C316 C 0.32056 0.65491 0.22762 0.0
C317 C 0.34217 0.60579 0.43049 0.0
C318 C 0.28997 0.57136 0.42281 0.0
C319 C 0.20766 0.69997 0.29069 0.0
C320 C 0.23354 0.88616 0.29551 0.0
C321 C 0.22612 0.88526 0.33593 0.0
C322 C 0.22068 0.92595 0.34551 0.0
C323 C 0.22269 0.96776 0.31359 0.0
C324 C 0.23549 0.92798 0.26413 0.0
C325 C 0.22994 0.9686 0.27324 0.0
C326 C 0.33783 0.796 0.32262 0.0
C327 C 0.2431 0.84482 0.28873 0.0
H328 H 0.33744 0.643 0.15759 0.0
H329 H 0.35583 0.50355 0.20498 0.0
H330 H 0.32658 0.57487 0.28701 0.0
H331 H 0.34206 0.50482 0.27479 0.0
H332 H 0.22579 0.85329 0.36026 0.0
H333 H 0.21785 0.99938 0.31958 0.0
H334 H 0.2418 0.92944 0.23296 0.0
H335 H 0.23137 1.00095 0.24899 0.0
Tb336 Tb 0.31033 0.71674 0.7548 0.0
C337 C 0.13553 0.76541 0.70996 0.0
C338 C 0.13835 0.81275 0.63964 0.0
C339 C 0.05695 0.75245 0.66421 0.0
C340 C 0.16343 0.80097 0.67885 0.0
C341 C 0.08205 0.74178 0.70342 0.0
C342 C 0.08506 0.78763 0.63229 0.0
C343 C 0.08231 0.69972 0.77509 0.0
N344 N 0.161 0.75331 0.74654 0.0
C345 C 0.13524 0.72315 0.77964 0.0
C346 C 0.05545 0.70823 0.73653 0.0
Tb347 Tb 0.24797 0.79342 0.75141 0.0
N348 N 0.215 0.82294 0.68674 0.0
C349 C 0.24336 0.85873 0.65635 0.0
C350 C 0.16745 0.84888 0.60876 0.0
C351 C 0.22014 0.87218 0.61726 0.0
H352 H 0.1552 0.71846 0.81018 0.0
H353 H 0.24306 0.90036 0.59353 0.0
H354 H 0.0652 0.79545 0.60213 0.0
H355 H 0.06235 0.67547 0.80148 0.0
H356 H 0.28397 0.87763 0.66105 0.0
H357 H 0.33242 0.62096 0.91408 0.0
H358 H 0.14961 0.85903 0.57836 0.0
H359 H 0.39404 0.78542 0.68711 0.0
H360 H 0.2857 0.64382 0.85002 0.0
H361 H 0.48591 0.826 0.68761 0.0
H362 H 1.01587 0.73411 0.65837 0.0
H363 H 0.42528 0.65761 0.92065 0.0
H364 H 0.50564 0.71639 0.88876 0.0
H365 H 1.0144 0.68977 0.73294 0.0
H366 H 0.54758 0.77259 0.82744 0.0
N367 N 0.35013 0.6908 0.8171 0.0
C368 C 0.32563 0.65903 0.85064 0.0
C369 C 0.40467 0.66683 0.89147 0.0
C370 C 0.42991 0.69998 0.85763 0.0
C371 C 0.35228 0.64611 0.88785 0.0
C372 C 0.40119 0.71058 0.8203 0.0
H373 H 0.54058 0.81349 0.75225 0.0
N374 N 0.3958 0.75341 0.7516 0.0
C375 C 0.46943 0.80353 0.71592 0.0
C376 C 0.4249 0.74332 0.7864 0.0
C377 C 0.4172 0.78134 0.71604 0.0
C378 C 0.50009 0.79613 0.75233 0.0
C379 C 0.47786 0.76529 0.78811 0.0
O380 O 0.27766 0.63774 0.74498 0.0
O381 O 0.25468 0.72328 0.77935 0.0
O382 O 0.29144 0.78254 0.81114 0.0
O383 O 0.3582 0.77727 0.79671 0.0
O384 O 0.24346 0.64976 0.78312 0.0
O385 O 0.31842 0.70162 0.69887 0.0
O386 O 0.25842 0.8657 0.76272 0.0
O387 O 0.30547 0.7887 0.72787 0.0
O388 O 0.27166 0.73735 0.69578 0.0
O389 O 0.20054 0.72806 0.71378 0.0
O390 O 0.31865 0.86182 0.72864 0.0
O391 O 0.23722 0.79727 0.81037 0.0
C392 C 0.22383 0.6757 0.79095 0.0
C393 C 0.31785 0.62109 0.70308 0.0
C394 C 0.37391 0.58325 0.73414 0.0
C395 C 0.35879 0.62122 0.73197 0.0
C396 C 0.34903 0.54654 0.70551 0.0
C397 C 0.2953 0.58681 0.6727 0.0
C398 C 0.31165 0.55009 0.67353 0.0
C399 C 0.33977 0.79521 0.81774 0.0
C400 C 0.29412 0.6506 0.709 0.0
C401 C 0.50679 0.75565 0.82534 0.0
C402 C 0.48289 0.72351 0.8602 0.0
C403 C 0.33833 0.83648 0.71947 0.0
C404 C 0.20136 0.85133 0.80766 0.0
C405 C 0.17232 0.8668 0.77442 0.0
C406 C 0.13105 0.87051 0.7809 0.0
C407 C 0.11723 0.85692 0.82099 0.0
C408 C 0.18815 0.8384 0.84815 0.0
C409 C 0.14609 0.84103 0.85469 0.0
C410 C 0.22215 0.71733 0.69012 0.0
C411 C 0.24272 0.84491 0.79941 0.0
H412 H 0.37464 0.64656 0.75613 0.0
H413 H 0.35638 0.51355 0.70955 0.0
H414 H 0.26352 0.58655 0.64993 0.0
H415 H 0.2931 0.52219 0.65112 0.0
H416 H 0.18155 0.87599 0.74288 0.0
H417 H 0.08502 0.85925 0.82623 0.0
H418 H 0.20981 0.82556 0.87445 0.0
H419 H 0.13589 0.83074 0.88589 0.0
Tb420 Tb 0.24427 0.21016 0.79321 0.0
C421 C 0.4149 0.42438 0.72163 0.0
C422 C 0.37999 0.46558 0.66096 0.0
C423 C 0.45702 0.52025 0.70413 0.0
C424 C 0.3773 0.42014 0.68857 0.0
C425 C 0.455 0.47442 0.73037 0.0
C426 C 0.42054 0.5157 0.66862 0.0
C427 C 0.49121 0.42964 0.78684 0.0
N428 N 0.41268 0.37903 0.74471 0.0
C429 C 0.45146 0.38091 0.77592 0.0
C430 C 0.49252 0.47665 0.7644 0.0
Tb431 Tb 0.34334 0.30087 0.72761 0.0
N432 N 0.3392 0.37104 0.68241 0.0
C433 C 0.30315 0.36448 0.64791 0.0
C434 C 0.34207 0.45917 0.6265 0.0
C435 C 0.30354 0.40828 0.6199 0.0
H436 H 0.45045 0.3448 0.79383 0.0
H437 H 0.27423 0.4026 0.59314 0.0
H438 H 0.42326 0.55118 0.64792 0.0
H439 H 0.52075 0.4309 0.81255 0.0
H440 H 0.27365 0.32544 0.64178 0.0
H441 H 0.31018 0.09817 0.92116 0.0
H442 H 0.34248 0.49303 0.60466 0.0
H443 H 0.13605 0.17174 0.72721 0.0
H444 H 0.3109 0.17836 0.87803 0.0
H445 H 0.06345 0.08834 0.70681 0.0
H446 H 0.48747 0.55917 0.71025 0.0
H447 H 0.24271 0.00963 0.9041 0.0
H448 H 0.16249 0.95571 0.85825 0.0
H449 H 0.52336 0.51434 0.77281 0.0
H450 H 0.09548 0.95314 0.79943 0.0
N451 N 0.24512 0.13685 0.83592 0.0
C452 C 0.28107 0.14038 0.87007 0.0
C453 C 0.2428 0.04495 0.885 0.0
C454 C 0.20489 0.04146 0.85104 0.0
C455 C 0.28075 0.09474 0.89483 0.0
C456 C 0.20694 0.08876 0.82729 0.0
H457 H 0.05856 0.00247 0.74231 0.0
N458 N 0.17222 0.13417 0.77486 0.0
C459 C 0.09283 0.08746 0.73193 0.0
C460 C 0.16901 0.08732 0.79536 0.0
C461 C 0.13401 0.13484 0.744 0.0
C462 C 0.09021 0.03907 0.75198 0.0
C463 C 0.1282 0.03854 0.78464 0.0
O464 O 0.19229 0.22495 0.81278 0.0
O465 O 0.27174 0.28018 0.74595 0.0
O466 O 0.35224 0.33683 0.78238 0.0
O467 O 0.31809 0.25781 0.82652 0.0
O468 O 0.19996 0.25006 0.75649 0.0
O469 O 0.25763 0.226 0.85473 0.0
O470 O 0.40108 0.29455 0.7077 0.0
O471 O 0.31569 0.23067 0.77411 0.0
O472 O 0.23574 0.1714 0.74064 0.0
O473 O 0.26975 0.24921 0.69523 0.0
O474 O 0.38793 0.26135 0.76412 0.0
O475 O 0.3304 0.28071 0.66843 0.0
C476 C 0.23353 0.28907 0.73543 0.0
C477 C 0.19382 0.22218 0.88575 0.0
C478 C 0.16656 0.25195 0.93338 0.0
C479 C 0.18939 0.26229 0.89789 0.0
C480 C 0.14893 0.20115 0.95691 0.0
C481 C 0.17633 0.17197 0.90975 0.0
C482 C 0.1541 0.16166 0.94529 0.0
C483 C 0.3452 0.3098 0.82048 0.0
C484 C 0.21939 0.23507 0.84928 0.0
C485 C 0.12655 0.99105 0.80712 0.0
C486 C 0.1647 0.9925 0.8405 0.0
C487 C 0.35372 0.22152 0.78411 0.0
C488 C 0.39323 0.28861 0.63447 0.0
C489 C 0.39616 0.24717 0.6232 0.0
C490 C 0.40546 0.25032 0.58282 0.0
C491 C 0.4132 0.2963 0.55414 0.0
C492 C 0.40134 0.33428 0.60554 0.0
C493 C 0.4117 0.33817 0.56566 0.0
C494 C 0.24477 0.19693 0.70245 0.0
C495 C 0.37208 0.27825 0.67298 0.0
H496 H 0.20279 0.30115 0.87929 0.0
H497 H 0.13084 0.19198 0.98421 0.0
H498 H 0.1801 0.14101 0.90112 0.0
H499 H 0.14054 0.12281 0.96378 0.0
H500 H 0.38867 0.21126 0.64519 0.0
H501 H 0.4209 0.30003 0.52296 0.0
H502 H 0.39803 0.36599 0.61335 0.0
H503 H 0.41761 0.37335 0.54328 0.0
Tb504 Tb 0.80562 0.20203 0.77395 0.0
C505 C 0.72536 0.34204 0.6519 0.0
C506 C 0.80113 0.41703 0.62759 0.0
C507 C 0.72094 0.38737 0.58096 0.0
C508 C 0.77654 0.37621 0.65913 0.0
C509 C 0.69654 0.34775 0.61307 0.0
C510 C 0.77329 0.42147 0.58808 0.0
C511 C 0.62215 0.27449 0.64076 0.0
N512 N 0.70391 0.30282 0.68312 0.0
C513 C 0.65259 0.26991 0.67852 0.0
C514 C 0.6443 0.31321 0.60771 0.0
Tb515 Tb 0.75793 0.29606 0.74224 0.0
N516 N 0.80221 0.36942 0.69727 0.0
C517 C 0.85184 0.40557 0.70734 0.0
C518 C 0.85287 0.45184 0.63676 0.0
C519 C 0.87803 0.44694 0.67714 0.0
H520 H 0.63496 0.23922 0.70342 0.0
H521 H 0.91784 0.47426 0.68477 0.0
H522 H 0.79179 0.45109 0.56294 0.0
H523 H 0.5817 0.24781 0.63705 0.0
H524 H 0.87215 0.4015 0.73811 0.0
H525 H 0.64423 0.02408 0.82961 0.0
H526 H 0.87366 0.48267 0.61311 0.0
H527 H 0.92846 0.2562 0.81323 0.0
H528 H 0.69108 0.09675 0.77679 0.0
H529 H 0.98074 0.24699 0.88005 0.0
H530 H 0.69976 0.39189 0.55057 0.0
H531 H 0.68717 0.01521 0.90175 0.0
H532 H 0.76843 0.04642 0.9528 0.0
H533 H 0.62074 0.31629 0.57836 0.0
H534 H 0.86062 0.10452 0.9659 0.0
N535 N 0.76061 0.1281 0.81823 0.0
C536 C 0.71096 0.09234 0.80768 0.0
C537 C 0.70853 0.04586 0.87827 0.0
C538 C 0.76031 0.08022 0.88792 0.0
C539 C 0.68408 0.05104 0.83763 0.0
C540 C 0.78562 0.12084 0.85656 0.0
H541 H 0.94053 0.17906 0.93857 0.0
N542 N 0.85889 0.19323 0.83299 0.0
C543 C 0.94021 0.22074 0.87603 0.0
C544 C 0.83682 0.1544 0.86416 0.0
C545 C 0.91031 0.22562 0.838 0.0
C546 C 0.91741 0.18234 0.909 0.0
C547 C 0.86504 0.14841 0.90326 0.0
O548 O 0.85626 0.1919 0.74824 0.0
O549 O 0.80969 0.27181 0.73205 0.0
O550 O 0.73647 0.25254 0.6899 0.0
O551 O 0.73572 0.17555 0.72792 0.0
O552 O 0.8753 0.26864 0.75068 0.0
O553 O 0.77571 0.13708 0.74166 0.0
O554 O 0.70687 0.30331 0.76917 0.0
O555 O 0.75494 0.22704 0.7849 0.0
O556 O 0.8283 0.24699 0.82598 0.0
O557 O 0.82764 0.32359 0.78809 0.0
O558 O 0.68885 0.22908 0.76642 0.0
O559 O 0.78513 0.36436 0.7701 0.0
C560 C 0.856 0.29684 0.72647 0.0
C561 C 0.8292 0.10838 0.72755 0.0
C562 C 0.84491 0.06629 0.68139 0.0
C563 C 0.8371 0.1068 0.68807 0.0
C564 C 0.84431 0.02687 0.71519 0.0
C565 C 0.82843 0.06882 0.76085 0.0
C566 C 0.83599 0.02814 0.75456 0.0
C567 C 0.72601 0.20274 0.69229 0.0
C568 C 0.81947 0.15075 0.73155 0.0
C569 C 0.83994 0.10918 0.93527 0.0
C570 C 0.78749 0.07565 0.92773 0.0
C571 C 0.70883 0.20169 0.79098 0.0
C572 C 0.72511 0.38865 0.77727 0.0
C573 C 0.72283 0.40195 0.81427 0.0
C574 C 0.70331 0.43633 0.81324 0.0
C575 C 0.68766 0.45864 0.77383 0.0
C576 C 0.70967 0.41127 0.73841 0.0
C577 C 0.69134 0.44653 0.73681 0.0
C578 C 0.83855 0.29688 0.82345 0.0
C579 C 0.74126 0.34873 0.78105 0.0
H580 H 0.83664 0.13709 0.66231 0.0
H581 H 0.85145 0.99579 0.71149 0.0
H582 H 0.82186 0.06935 0.79138 0.0
H583 H 0.83571 0.99766 0.78032 0.0
H584 H 0.73611 0.38491 0.84398 0.0
H585 H 0.67156 0.48455 0.77137 0.0
H586 H 0.71124 0.40124 0.70959 0.0
H587 H 0.67905 0.46383 0.70679 0.0
Tb588 Tb 0.75199 0.70582 0.7196 0.0
C589 C 0.92966 0.85623 0.83174 0.0
C590 C 0.93986 0.79781 0.8936 0.0
C591 C 1.0116 0.88345 0.87572 0.0
C592 C 0.9095 0.80872 0.85772 0.0
C593 C 0.98033 0.89509 0.8414 0.0
C594 C 0.99144 0.83469 0.90166 0.0
C595 C 0.96366 0.95599 0.78554 0.0
N596 N 0.89817 0.8662 0.79913 0.0
C597 C 0.91392 0.91592 0.77683 0.0
C598 C 0.99711 0.94539 0.81774 0.0
Tb599 Tb 0.81588 0.80057 0.79042 0.0
N600 N 0.85923 0.7749 0.84946 0.0
C601 C 0.83616 0.73113 0.87781 0.0
C602 C 0.91699 0.75124 0.92116 0.0
C603 C 0.86474 0.71817 0.91354 0.0
H604 H 0.88824 0.92468 0.75211 0.0
H605 H 0.84641 0.68271 0.9352 0.0
H606 H 1.01553 0.82678 0.92877 0.0
H607 H 0.97598 0.99513 0.76767 0.0
H608 H 0.79579 0.70515 0.87262 0.0
H609 H 0.71627 0.81893 0.57365 0.0
H610 H 0.93896 0.7413 0.94901 0.0
H611 H 0.68151 0.58383 0.764 0.0
H612 H 0.76767 0.80227 0.6381 0.0
H613 H 0.59775 0.5086 0.74704 0.0
H614 H 0.0509 0.91249 0.88324 0.0
H615 H 0.62652 0.75282 0.55696 0.0
H616 H 0.55398 0.66301 0.57562 0.0
H617 H 0.03508 0.97687 0.82523 0.0
H618 H 0.52202 0.57804 0.62233 0.0
N619 N 0.70719 0.72803 0.65984 0.0
C620 C 0.72844 0.77307 0.632 0.0
C621 C 0.64873 0.74543 0.58581 0.0
C622 C 0.6278 0.6983 0.61327 0.0
C623 C 0.6994 0.78277 0.59508 0.0
C624 C 0.65833 0.69077 0.65052 0.0
H625 H 0.53992 0.519 0.68425 0.0
N626 N 0.67087 0.63771 0.71228 0.0
C627 C 0.60875 0.54666 0.72758 0.0
C628 C 0.63966 0.64383 0.67747 0.0
C629 C 0.65633 0.5896 0.7371 0.0
C630 C 0.57597 0.55282 0.69236 0.0
C631 C 0.5909 0.60195 0.66706 0.0
O632 O 0.76427 0.64295 0.71612 0.0
O633 O 0.8134 0.73316 0.77204 0.0
O634 O 0.87314 0.81839 0.75205 0.0
O635 O 0.81746 0.7767 0.69556 0.0
O636 O 0.76714 0.65422 0.77433 0.0
O637 O 0.77552 0.7061 0.6647 0.0
O638 O 0.80726 0.86513 0.79595 0.0
O639 O 0.75543 0.77408 0.73771 0.0
O640 O 0.69287 0.69178 0.75378 0.0
O641 O 0.74693 0.73064 0.81198 0.0
O642 O 0.80004 0.85289 0.73695 0.0
O643 O 0.79114 0.79883 0.84512 0.0
C644 C 0.80751 0.68893 0.79348 0.0
C645 C 0.75258 0.62189 0.64857 0.0
C646 C 0.76544 0.58009 0.60017 0.0
C647 C 0.78426 0.62035 0.62534 0.0
C648 C 0.71361 0.54258 0.59732 0.0
C649 C 0.70113 0.58392 0.64535 0.0
C650 C 0.68169 0.5449 0.61953 0.0
C651 C 0.86341 0.80842 0.71312 0.0
C652 C 0.7754 0.6609 0.67815 0.0
C653 C 0.55979 0.6096 0.63063 0.0
C654 C 0.57804 0.65791 0.60399 0.0
C655 C 0.76015 0.81837 0.71708 0.0
C656 C 0.81736 0.88214 0.8647 0.0
C657 C 0.78551 0.88429 0.88737 0.0
C658 C 0.80498 0.92232 0.91479 0.0
C659 C 0.85758 0.95701 0.92015 0.0
C660 C 0.86965 0.91679 0.87085 0.0
C661 C 0.8896 0.95377 0.89862 0.0
C662 C 0.70091 0.70183 0.79239 0.0
C663 C 0.79417 0.8455 0.83324 0.0
H664 H 0.82392 0.65007 0.62769 0.0
H665 H 0.69794 0.51044 0.57903 0.0
H666 H 0.67606 0.58342 0.66323 0.0
H667 H 0.642 0.51549 0.61761 0.0
H668 H 0.74532 0.85648 0.88305 0.0
H669 H 0.874 0.98754 0.94015 0.0
H670 H 0.89505 0.91604 0.85398 0.0
H671 H 0.92996 0.98078 0.90283 0.0
C672 C 0.91713 0.06501 0.53756 0.0
C673 C 0.99367 0.08742 0.43837 0.0
C674 C 0.95397 0.89337 0.46807 0.0
Mg675 Mg 1.0275 0.11586 0.51161 0.0
O676 O 1.00025 0.03825 0.5116 0.0
Mg677 Mg 0.9267 0.97863 0.48975 0.0
Mg678 Mg 0.04139 0.00303 0.50787 0.0
O679 O 0.08006 0.96751 0.50359 0.0
Mg680 Mg 0.05517 0.89441 0.52174 0.0
Mg681 Mg 0.14742 0.01701 0.53192 0.0
C682 C 0.12401 0.10395 0.55973 0.0
C683 C 0.12029 0.07303 0.44039 0.0
O684 O 0.89866 0.02267 0.52038 0.0
O685 O 0.96319 0.10217 0.53716 0.0
O686 O 0.99363 0.05402 0.47082 0.0
O687 O 1.02023 0.13598 0.44334 0.0
O688 O 0.09849 0.12933 0.55058 0.0
O689 O 0.10959 0.06137 0.54505 0.0
C690 C 0.97159 0.93125 0.57953 0.0
O691 O 1.01538 0.95138 0.56902 0.0
O692 O 0.93583 0.93739 0.55514 0.0
O693 O 0.17811 0.96987 0.51043 0.0
O694 O 0.11239 0.89022 0.4982 0.0
O695 O 0.1312 0.966 0.59573 0.0
C696 C 0.15855 0.92594 0.49566 0.0
O697 O 0.06216 0.88766 0.58842 0.0
O698 O 0.98009 0.86902 0.48473 0.0
C699 C 0.09671 0.92195 0.61126 0.0
O700 O 0.96989 0.94152 0.47236 0.0
O701 O 0.07481 0.05598 0.44728 0.0
O702 O 0.15324 0.06446 0.46794 0.0
C703 C 0.3964 0.05739 0.02067 0.0
C704 C 0.4413 0.0979 0.90718 0.0
C705 C 0.45968 0.89655 0.96173 0.0
Mg706 Mg 0.50277 0.10097 0.99781 0.0
O707 O 0.48575 0.03097 1.00244 0.0
Mg708 Mg 0.41812 0.98088 0.97499 0.0
Mg709 Mg 0.53298 1.00045 0.00887 0.0
O710 O 0.5803 0.96995 0.01541 0.0
Mg711 Mg 0.5642 0.90037 0.01901 0.0
Mg712 Mg 0.64851 0.02062 0.04142 0.0
C713 C 0.60725 0.10481 0.055 0.0
C714 C 0.62448 0.0829 0.94823 0.0
O715 O 0.37972 0.01889 0.9996 0.0
O716 O 0.44364 0.09017 0.02801 0.0
O717 O 0.42058 0.04654 0.91323 0.0
O718 O 0.47776 0.12548 0.93368 0.0
O719 O 0.57808 0.1249 0.03501 0.0
O720 O 0.5965 0.05653 0.05422 0.0
C721 C 0.44049 0.91858 0.06865 0.0
O722 O 0.48851 0.94176 0.06631 0.0
O723 O 0.40964 0.92538 0.03764 0.0
O724 O 0.68625 0.98297 0.01515 0.0
O725 O 0.62185 0.91201 0.98675 0.0
O726 O 0.64823 0.95537 0.10314 0.0
C727 C 0.66909 0.94481 0.99357 0.0
O728 O 0.59222 0.87621 0.08248 0.0
O729 O 0.48904 0.87669 0.98172 0.0
C730 C 0.6288 0.9041 0.10881 0.0
O731 O 0.46995 0.94438 0.96361 0.0
O732 O 0.57663 0.05915 0.95114 0.0
O733 O 0.65584 0.07634 0.97883 0.0
C734 C 0.9358 0.60389 0.02759 0.0
C735 C 0.94487 0.60935 0.90571 0.0
C736 C 0.93695 0.39835 0.97156 0.0
Mg737 Mg 1.02576 0.6211 0.98772 0.0
O738 O 0.99821 0.54795 1.00321 0.0
Mg739 Mg 0.92454 0.50281 0.98437 0.0
Mg740 Mg 1.03239 0.50373 0.00506 0.0
O741 O 0.06565 0.45883 0.00732 0.0
Mg742 Mg 0.03557 0.38741 0.03041 0.0
Mg743 Mg 0.13964 0.5027 0.02552 0.0
C744 C 0.12672 0.60826 0.04154 0.0
C745 C 0.1152 0.56788 0.9349 0.0
O746 O 0.9077 0.55938 0.0127 0.0
O747 O 0.98335 0.63133 0.02472 0.0
O748 O 0.92292 0.55951 0.92007 0.0
O749 O 0.98826 0.64088 0.92424 0.0
O750 O 0.10311 0.63448 0.0203 0.0
O751 O 0.10768 0.55754 0.04268 0.0
C752 C 0.94879 0.43779 0.07384 0.0
O753 O 0.99427 0.45309 0.06751 0.0
O754 O 0.91914 0.45143 0.04676 0.0
O755 O 0.15078 0.43987 0.99849 0.0
O756 O 0.07267 0.36911 0.99554 0.0
O757 O 0.14365 0.44868 0.09138 0.0
C758 C 0.11875 0.39291 0.9885 0.0
O759 O 0.07576 0.3688 0.09307 0.0
O760 O 0.95799 0.37181 0.99712 0.0
C761 C 0.12114 0.40007 0.10867 0.0
O762 O 0.95741 0.44954 0.96751 0.0
O763 O 0.07053 0.55418 0.94235 0.0
O764 O 0.14461 0.55323 0.9615 0.0
C765 C 0.40703 0.56787 0.02652 0.0
C766 C 0.45086 0.571 0.90515 0.0
C767 C 0.46334 0.4058 0.9672 0.0
Mg768 Mg 0.5072 0.61253 0.98891 0.0
O769 O 0.49375 0.54244 0.01261 0.0
Mg770 Mg 0.42787 0.48288 0.99161 0.0
Mg771 Mg 0.53839 0.51831 1.00041 0.0
O772 O 0.58353 0.4955 0.98745 0.0
Mg773 Mg 0.57495 0.4277 0.0124 0.0
Mg774 Mg 0.65035 0.55841 1.00164 0.0
C775 C 0.61624 0.63004 0.03726 0.0
C776 C 0.59363 0.59963 0.92107 0.0
O777 O 0.39268 0.52163 0.01779 0.0
O778 O 0.44848 0.60853 0.01662 0.0
O779 O 0.42517 0.52764 0.92733 0.0
O780 O 0.48775 0.61089 0.92155 0.0
O781 O 0.58552 0.6495 0.02241 0.0
O782 O 0.60583 0.5846 0.03032 0.0
C783 C 0.47615 0.43556 0.07628 0.0
O784 O 0.52022 0.46173 0.06405 0.0
O785 O 0.43719 0.43832 0.05443 0.0
O786 O 0.68154 0.52104 0.96925 0.0
O787 O 0.62921 0.43286 0.97791 0.0
O788 O 0.66326 0.51741 0.0636 0.0
C789 C 0.66684 0.47389 0.96239 0.0
O790 O 0.6039 0.4344 0.07885 0.0
O791 O 0.49463 0.38743 0.98408 0.0
C792 C 0.64405 0.47606 0.0896 0.0
O793 O 0.4734 0.45261 0.97016 0.0
O794 O 0.552 0.57179 0.93645 0.0
O795 O 0.63491 0.60058 0.94031 0.0
C796 C 0.90069 0.55341 0.52456 0.0
C797 C 0.93812 0.59424 0.40995 0.0
C798 C 0.9603 0.38726 0.46779 0.0
Mg799 Mg 1.00469 0.59632 0.49864 0.0
O800 O 0.98764 0.52632 0.50163 0.0
Mg801 Mg 0.91877 0.47576 0.4767 0.0
Mg802 Mg 0.03443 0.49499 0.5093 0.0
O803 O 0.08277 0.46486 0.51724 0.0
Mg804 Mg 0.06883 0.39584 0.52231 0.0
Mg805 Mg 0.15145 0.51721 0.5416 0.0
C806 C 0.11001 0.60097 0.55414 0.0
C807 C 0.12487 0.57642 0.44753 0.0
O808 O 0.88289 0.51521 0.50289 0.0
O809 O 0.94813 0.58535 0.53172 0.0
O810 O 0.91834 0.54277 0.41524 0.0
O811 O 0.97561 0.62166 0.43595 0.0
O812 O 0.08085 0.62124 0.53461 0.0
O813 O 0.09882 0.55261 0.55337 0.0
C814 C 0.94316 0.41477 0.57042 0.0
O815 O 0.99111 0.43816 0.56781 0.0
O816 O 0.91198 0.42111 0.53952 0.0
O817 O 0.18959 0.47975 0.516 0.0
O818 O 0.12556 0.40787 0.48855 0.0
O819 O 0.15415 0.45441 0.60457 0.0
C820 C 0.1727 0.44128 0.49486 0.0
O821 O 0.0996 0.37405 0.58565 0.0
O822 O 0.99212 0.3707 0.48806 0.0
C823 C 0.13626 0.4033 0.6112 0.0
O824 O 0.96929 0.43585 0.46575 0.0
O825 O 0.07705 0.55206 0.45065 0.0
O826 O 0.15671 0.57091 0.47817 0.0
C827 C 0.44158 0.106 0.52382 0.0
C828 C 0.44834 0.10933 0.40241 0.0
C829 C 0.4405 0.89739 0.469 0.0
Mg830 Mg 0.5297 0.11986 0.48446 0.0
O831 O 0.50004 0.04698 0.50146 0.0
Mg832 Mg 0.42647 0.00278 0.48191 0.0
Mg833 Mg 0.53399 1.00229 0.50551 0.0
O834 O 0.56835 0.95759 0.50941 0.0
Mg835 Mg 0.54083 0.88444 0.5239 0.0
Mg836 Mg 0.64166 1.00219 0.52916 0.0
C837 C 0.62795 0.10646 0.54246 0.0
C838 C 0.62021 0.06746 0.43801 0.0
O839 O 0.41149 0.06191 0.5087 0.0
O840 O 0.4891 0.13171 0.52116 0.0
O841 O 0.42592 0.05937 0.41662 0.0
O842 O 0.49185 0.14035 0.42118 0.0
O843 O 0.6063 0.13358 0.51902 0.0
O844 O 0.60785 0.05557 0.54452 0.0
C845 C 0.44822 0.9389 0.57408 0.0
O846 O 0.49366 0.95279 0.56827 0.0
O847 O 0.41929 0.9523 0.54567 0.0
O848 O 0.65957 0.94558 0.50181 0.0
O849 O 0.58377 0.87498 0.48718 0.0
O850 O 0.64185 0.94587 0.59392 0.0
C851 C 0.63164 0.90186 0.48578 0.0
O852 O 0.57799 0.86421 0.58732 0.0
O853 O 0.46392 0.87117 0.49062 0.0
C854 C 0.6203 0.89569 0.60718 0.0
O855 O 0.45992 0.94829 0.46702 0.0
O856 O 0.57441 0.05322 0.44291 0.0
O857 O 0.64803 0.05269 0.46652 0.0
C858 C 0.14366 0.16846 0.33929 0.0
C859 C 0.18171 0.16279 0.32803 0.0
H860 H 0.09298 0.14319 0.3845 0.0
C861 C 0.19408 0.12345 0.35048 0.0
H862 H 0.13422 0.19923 0.32233 0.0
C863 C 0.17132 0.09229 0.38552 0.0
C864 C 0.13591 0.10012 0.39902 0.0
H865 H 0.22351 0.11876 0.34226 0.0
H866 H 0.18322 0.06354 0.40322 0.0
C867 C 0.12039 0.13675 0.3747 0.0
C868 C 0.90496 0.02979 0.34358 0.0
C869 C 0.85918 0.02195 0.35288 0.0
H870 H 0.98503 0.0586 0.36371 0.0
C871 C 0.85846 0.03519 0.3905 0.0
H872 H 0.90629 0.02102 0.3141 0.0
C873 C 0.9034 0.05976 0.41686 0.0
C874 C 0.94932 0.0697 0.40679 0.0
H875 H 0.82395 0.03122 0.39754 0.0
H876 H 0.90246 0.07175 0.44491 0.0
C877 C 0.94993 0.05302 0.37086 0.0
C878 C 0.85807 0.79163 0.40048 0.0
C879 C 0.85294 0.82375 0.36298 0.0
H880 H 0.89274 0.78859 0.46416 0.0
C881 C 0.87409 0.87844 0.36287 0.0
H882 H 0.84238 0.74936 0.40165 0.0
C883 C 0.90276 0.90091 0.39913 0.0
C884 C 0.91116 0.86903 0.43562 0.0
H885 H 0.87022 0.904 0.33445 0.0
H886 H 0.92174 0.94354 0.39759 0.0
C887 C 0.88678 0.81401 0.43647 0.0
C888 C 0.17802 0.87625 0.40995 0.0
C889 C 0.21168 0.92407 0.38831 0.0
H890 H 0.13581 0.83882 0.46185 0.0
C891 C 0.23457 0.97046 0.407 0.0
H892 H 0.1596 0.83972 0.39652 0.0
C893 C 0.22161 0.96979 0.4449 0.0
C894 C 0.18458 0.92284 0.4647 0.0
H895 H 0.26115 0.00779 0.39157 0.0
H896 H 0.23777 0.00706 0.45682 0.0
C897 C 0.16452 0.87566 0.44761 0.0
C898 C 0.13498 0.94129 0.72477 0.0
C899 C 0.10519 0.89 0.74401 0.0
H900 H 0.15947 0.98954 0.66774 0.0
C901 C 0.06484 0.85285 0.71976 0.0
H902 H 0.16667 0.97029 0.74303 0.0
C903 C 0.05946 0.86449 0.67611 0.0
C904 C 0.09546 0.91256 0.65671 0.0
H905 H 0.04159 0.81293 0.73411 0.0
H906 H 1.02974 0.83437 0.65774 0.0
C907 C 0.13138 0.95189 0.68145 0.0
C908 C 0.18823 0.11394 0.66901 0.0
C909 C 0.22122 0.1687 0.66546 0.0
H910 H 0.13017 0.04986 0.63622 0.0
C911 C 0.22937 0.19804 0.62522 0.0
H912 H 0.18131 0.09017 0.69941 0.0
C913 C 0.20256 0.17431 0.58957 0.0
C914 C 0.16625 0.12106 0.59328 0.0
H915 H 0.25365 0.24032 0.62058 0.0
H916 H 0.20647 0.19883 0.55926 0.0
C917 C 0.16026 0.09041 0.63295 0.0
C918 C 0.88943 0.11467 0.61801 0.0
C919 C 0.85624 0.06691 0.6399 0.0
H920 H 0.93335 0.15182 0.56736 0.0
C921 C 0.83631 0.01982 0.6228 0.0
H922 H 0.90563 0.15182 0.6301 0.0
C923 C 0.852 0.01971 0.58655 0.0
C924 C 0.88849 0.06687 0.56678 0.0
H925 H 0.80987 0.98271 0.63811 0.0
H926 H 0.83831 0.98213 0.57594 0.0
C927 C 0.90529 0.11466 0.58188 0.0
C928 C 0.94291 0.88773 0.68943 0.0
C929 C 0.9034 0.83598 0.68559 0.0
H930 H 0.99717 0.95983 0.65762 0.0
C931 C 0.89723 0.81288 0.65071 0.0
H932 H 0.94963 0.90615 0.71625 0.0
C933 C 0.92474 0.84313 0.61768 0.0
C934 C 0.95929 0.89672 0.6192 0.0
H935 H 0.86838 0.77249 0.64739 0.0
H936 H 0.91576 0.82589 0.58941 0.0
C937 C 0.97053 0.9183 0.65606 0.0
C938 C 0.34311 0.08979 0.09445 0.0
C939 C 0.29398 0.07835 0.07365 0.0
H940 H 0.41382 0.09333 0.09351 0.0
C941 C 0.27866 0.05958 0.03465 0.0
H942 H 0.35609 0.10247 0.1251 0.0
C943 C 0.31155 0.05205 0.01733 0.0
C944 C 0.36064 0.06421 0.03825 0.0
H945 H 0.24145 0.05091 0.01735 0.0
H946 H 0.29872 0.03693 0.98763 0.0
C947 C 0.37629 0.08402 0.07653 0.0
C948 C 0.91454 0.39886 0.18394 0.0
C949 C 0.86571 0.35503 0.17854 0.0
H950 H 0.98113 0.45806 0.15574 0.0
C951 C 0.84849 0.33518 0.14014 0.0
H952 H 0.92817 0.41633 0.21262 0.0
C953 C 0.87877 0.3588 0.10781 0.0
C954 C 0.927 0.40358 0.11254 0.0
H955 H 0.81038 0.30317 0.1341 0.0
H956 H 0.86287 0.34424 0.07782 0.0
C957 C 0.94517 0.42249 0.1515 0.0
C958 C 0.72029 0.87142 0.20007 0.0
C959 C 0.70678 0.81917 0.19536 0.0
H960 H 0.70797 0.93989 0.17692 0.0
C961 C 0.66637 0.79579 0.16384 0.0
H962 H 0.74934 0.89018 0.22528 0.0
C963 C 0.64128 0.82303 0.13753 0.0
C964 C 0.65475 0.87551 0.14123 0.0
H965 H 0.6526 0.75492 0.16039 0.0
H966 H 0.6108 0.80223 0.11388 0.0
C967 C 0.69556 0.89959 0.17282 0.0
C968 C 0.18919 0.62591 0.1528 0.0
C969 C 0.20485 0.67986 0.15222 0.0
H970 H 0.15395 0.56079 0.11764 0.0
C971 C 0.20386 0.71138 0.11337 0.0
H972 H 0.1902 0.60058 0.18211 0.0
C973 C 0.18457 0.6889 0.0763 0.0
C974 C 0.16453 0.634 0.07708 0.0
H975 H 0.21662 0.75329 0.11151 0.0
H976 H 0.18182 0.71398 0.04722 0.0
C977 C 0.16926 0.6032 0.11563 0.0
C978 C 0.39242 0.79636 0.88672 0.0
C979 C 0.36956 0.82078 0.85477 0.0
H980 H 0.43536 0.79883 0.94714 0.0
C981 C 0.37029 0.86696 0.86037 0.0
H982 H 0.39061 0.75982 0.88362 0.0
C983 C 0.39667 0.89043 0.89669 0.0
C984 C 0.42149 0.86705 0.92825 0.0
H985 H 0.35161 0.88563 0.83612 0.0
H986 H 0.39928 0.92769 0.89925 0.0
C987 C 0.4173 0.81861 0.9234 0.0
C988 C 0.10606 0.27883 0.94417 0.0
C989 C 0.15639 0.29173 0.94403 0.0
H990 H 0.05508 0.30073 0.95647 0.0
C991 C 0.19553 0.34097 0.95557 0.0
H992 H 0.07515 0.24153 0.93501 0.0
C993 C 0.1842 0.37555 0.96885 0.0
C994 C 0.13349 0.36158 0.97019 0.0
H995 H 0.23479 0.3518 0.95567 0.0
H996 H 0.21498 0.41219 0.97914 0.0
C997 C 0.09477 0.31321 0.95659 0.0
C998 C 0.63477 0.13981 0.83149 0.0
C999 C 0.6878 0.17029 0.83128 0.0
H1000 H 0.573 0.0889 0.8676 0.0
C1001 C 0.71898 0.17422 0.87021 0.0
H1002 H 0.6093 0.13667 0.80229 0.0
C1003 C 0.69821 0.14698 0.90768 0.0
C1004 C 0.64521 0.11548 0.90796 0.0
H1005 H 0.75957 0.19849 0.87199 0.0
H1006 H 0.72411 0.15056 0.93666 0.0
C1007 C 0.6138 0.11274 0.86911 0.0
C1008 C 0.82763 0.62061 0.84269 0.0
C1009 C 0.84631 0.67266 0.8213 0.0
H1010 H 0.84186 0.56013 0.88336 0.0
C1011 C 0.89986 0.70405 0.82564 0.0
H1012 H 0.78727 0.59519 0.84065 0.0
C1013 C 0.93255 0.68416 0.85192 0.0
C1014 C 0.91296 0.63142 0.87327 0.0
H1015 H 0.91652 0.74397 0.80911 0.0
H1016 H 0.97314 0.7102 0.8556 0.0
C1017 C 0.85964 0.60033 0.86743 0.0
C1018 C 0.16941 0.30491 0.18439 0.0
C1019 C 0.22255 0.33862 0.1917 0.0
H1020 H 0.09587 0.29617 0.15236 0.0
C1021 C 0.23901 0.3927 0.17603 0.0
H1022 H 0.1538 0.2637 0.19796 0.0
C1023 C 0.20575 0.41207 0.15203 0.0
C1024 C 0.1534 0.3784 0.14157 0.0
H1025 H 0.27871 0.42072 0.18253 0.0
H1026 H 0.22178 0.454 0.14055 0.0
C1027 C 0.13571 0.32412 0.15892 0.0
C1028 C 0.1429 0.60942 0.82168 0.0
C1029 C 0.1913 0.65436 0.82524 0.0
H1030 H 0.07939 0.54814 0.85277 0.0
C1031 C 0.211 0.67344 0.86415 0.0
H1032 H 0.12703 0.59296 0.79247 0.0
C1033 C 0.18397 0.64748 0.89865 0.0
C1034 C 0.13604 0.60194 0.89547 0.0
H1035 H 0.24868 0.70656 0.8688 0.0
H1036 H 0.20182 0.66161 0.92866 0.0
C1037 C 0.11531 0.58396 0.85615 0.0
C1038 C 0.34996 0.13149 0.81691 0.0
C1039 C 0.36793 0.18569 0.81875 0.0
H1040 H 0.35777 0.06081 0.84284 0.0
C1041 C 0.41088 0.20987 0.84813 0.0
H1042 H 0.3183 0.11175 0.7936 0.0
C1043 C 0.43473 0.18166 0.87488 0.0
C1044 C 0.41707 0.12735 0.87388 0.0
H1045 H 0.42726 0.25179 0.84966 0.0
H1046 H 0.46743 0.20308 0.8968 0.0
C1047 C 0.37352 0.10251 0.84459 0.0
C1048 C 0.86221 0.29225 0.90134 0.0
C1049 C 0.8591 0.32231 0.86211 0.0
H1050 H 0.88612 0.29195 0.96716 0.0
C1051 C 0.87366 0.37615 0.86057 0.0
H1052 H 0.85027 0.25042 0.90395 0.0
C1053 C 0.89419 0.40019 0.8971 0.0
C1054 C 0.90063 0.37087 0.93603 0.0
H1055 H 0.87091 0.40034 0.83097 0.0
H1056 H 0.90802 0.44244 0.89431 0.0
C1057 C 0.88219 0.31606 0.93781 0.0
C1058 C 0.78577 0.94351 0.97606 0.0
C1059 C 0.77018 0.92719 0.93607 0.0
H1060 H 0.76614 0.96251 0.02559 0.0
C1061 C 0.72092 0.91627 0.916 0.0
H1062 H 0.82299 0.95137 0.99293 0.0
C1063 C 0.68809 0.92083 0.93539 0.0
C1064 C 0.70418 0.93857 0.9746 0.0
H1065 H 0.7077 0.90511 0.88482 0.0
H1066 H 0.65049 0.91223 0.91891 0.0
C1067 C 0.75318 0.94955 0.99501 0.0
C1068 C 0.92643 0.69436 0.08644 0.0
C1069 C 0.87483 0.68113 0.07659 0.0
H1070 H 0.98577 0.68051 0.07906 0.0
C1071 C 0.84229 0.63863 0.05336 0.0
H1072 H 0.95278 0.72699 0.10386 0.0
C1073 C 0.86128 0.61167 0.03897 0.0
C1074 C 0.9134 0.6268 0.04714 0.0
H1075 H 0.80215 0.62684 0.04556 0.0
H1076 H 0.83547 0.58043 0.02008 0.0
C1077 C 0.94543 0.66781 0.07183 0.0
C1078 C 0.42845 0.86016 0.18493 0.0
C1079 C 0.3753 0.83154 0.18493 0.0
H1080 H 0.49085 0.9093 0.14924 0.0
C1081 C 0.34441 0.83006 0.14607 0.0
H1082 H 0.45365 0.86145 0.21409 0.0
C1083 C 0.36572 0.85734 0.10883 0.0
C1084 C 0.41892 0.88646 0.10872 0.0
H1085 H 0.30368 0.80745 0.14417 0.0
H1086 H 0.34008 0.85547 0.07987 0.0
C1087 C 0.44993 0.88723 0.14756 0.0
C1088 C 0.68833 0.21823 0.11623 0.0
C1089 C 0.68904 0.19124 0.1569 0.0
H1090 H 0.66356 0.21144 0.05105 0.0
C1091 C 0.67005 0.13614 0.16311 0.0
H1092 H 0.70553 0.26106 0.11078 0.0
C1093 C 0.64791 0.10782 0.12902 0.0
C1094 C 0.64467 0.13445 0.08829 0.0
H1095 H 0.67275 0.11511 0.19435 0.0
H1096 H 0.6309 0.06499 0.13474 0.0
C1097 C 0.66599 0.19003 0.08217 0.0
C1098 C 0.66041 0.70909 0.84508 0.0
C1099 C 0.65789 0.68005 0.81584 0.0
H1100 H 0.63664 0.70529 0.9018 0.0
C1101 C 0.61808 0.62814 0.81399 0.0
H1102 H 0.6895 0.74991 0.84613 0.0
C1103 C 0.58728 0.60272 0.84578 0.0
C1104 C 0.59618 0.62943 0.87912 0.0
H1105 H 0.61429 0.60534 0.79109 0.0
H1106 H 0.56195 0.56044 0.84747 0.0
C1107 C 0.62927 0.68399 0.87635 0.0
C1108 C 0.38016 0.52794 0.80045 0.0
C1109 C 0.40445 0.57424 0.7732 0.0
H1110 H 0.37415 0.4918 0.86352 0.0
C1111 C 0.4495 0.61693 0.78856 0.0
H1112 H 0.34521 0.49469 0.78938 0.0
C1113 C 0.46689 0.61514 0.83151 0.0
C1114 C 0.43825 0.57163 0.85938 0.0
H1115 H 0.46878 0.6531 0.7678 0.0
H1116 H 0.50109 0.64863 0.84294 0.0
C1117 C 0.39639 0.52692 0.84316 0.0
C1118 C 0.39302 0.38985 0.85788 0.0
C1119 C 0.37259 0.3353 0.85843 0.0
H1120 H 0.437 0.45493 0.89299 0.0
C1121 C 0.37744 0.3036 0.89654 0.0
H1122 H 0.38969 0.41512 0.82909 0.0
C1123 C 0.40369 0.32598 0.93298 0.0
C1124 C 0.42535 0.38056 0.93231 0.0
H1125 H 0.36248 0.2614 0.89821 0.0
H1126 H 0.40887 0.30092 0.96127 0.0
C1127 C 0.41904 0.4123 0.89467 0.0
C1128 C 0.7032 0.49681 0.85582 0.0
C1129 C 0.69838 0.44758 0.85316 0.0
H1130 H 0.69997 0.54485 0.89311 0.0
C1131 C 0.68773 0.4087 0.88885 0.0
H1132 H 0.7101 0.52723 0.82894 0.0
C1133 C 0.68108 0.41849 0.92562 0.0
C1134 C 0.68549 0.46758 0.92791 0.0
H1135 H 0.68214 0.36965 0.888 0.0
H1136 H 0.6705 0.38687 0.95174 0.0
C1137 C 0.69779 0.50707 0.89289 0.0
C1138 C 0.74805 0.5274 0.17842 0.0
C1139 C 0.7271 0.49063 0.21281 0.0
H1140 H 0.73912 0.54999 0.11306 0.0
C1141 C 0.67546 0.45193 0.20746 0.0
H1142 H 0.78757 0.55737 0.18089 0.0
C1143 C 0.64723 0.44669 0.16745 0.0
C1144 C 0.67034 0.48047 0.13273 0.0
H1145 H 0.65801 0.42356 0.23373 0.0
H1146 H 0.60819 0.41572 0.1636 0.0
C1147 C 0.7202 0.52223 0.139 0.0
C1148 C 0.70338 0.72256 0.11586 0.0
C1149 C 0.7098 0.68732 0.15064 0.0
H1150 H 0.66965 0.73247 0.05237 0.0
C1151 C 0.68946 0.63403 0.14625 0.0
H1152 H 0.71828 0.76387 0.11814 0.0
C1153 C 0.66232 0.61628 0.10795 0.0
C1154 C 0.65441 0.65138 0.07364 0.0
H1155 H 0.69391 0.60605 0.17243 0.0
H1156 H 0.64495 0.57441 0.10609 0.0
C1157 C 0.67574 0.70478 0.07792 0.0
C1158 C 0.3341 0.52616 0.11653 0.0
C1159 C 0.3563 0.57353 0.13355 0.0
H1160 H 0.33047 0.48717 0.06829 0.0
C1161 C 0.38845 0.62085 0.11049 0.0
H1162 H 0.30847 0.48947 0.13285 0.0
C1163 C 0.40118 0.61993 0.07299 0.0
C1164 C 0.38198 0.57164 0.05777 0.0
H1165 H 0.40612 0.65822 0.12256 0.0
H1166 H 0.42867 0.65663 0.0575 0.0
C1167 C 0.34634 0.52514 0.07898 0.0
C1168 C 0.44945 0.39011 0.18606 0.0
C1169 C 0.40748 0.33989 0.18097 0.0
H1170 H 0.50623 0.46128 0.15551 0.0
C1171 C 0.40029 0.31721 0.14557 0.0
H1172 H 0.45721 0.40799 0.21348 0.0
C1173 C 0.42984 0.3467 0.11347 0.0
C1174 C 0.46681 0.3996 0.1159 0.0
H1175 H 0.36949 0.27792 0.14117 0.0
H1176 H 0.41984 0.33011 0.08469 0.0
C1177 C 0.47851 0.42021 0.15334 0.0
C1178 C 0.78444 0.55677 0.54016 0.0
C1179 C 0.80042 0.57523 0.5793 0.0
H1180 H 0.80363 0.53493 0.49213 0.0
C1181 C 0.84994 0.58746 0.59931 0.0
H1182 H 0.74689 0.54783 0.52348 0.0
C1183 C 0.88254 0.58139 0.58085 0.0
C1184 C 0.86598 0.56122 0.54261 0.0
H1185 H 0.86339 0.60053 0.62984 0.0
H1186 H 0.92027 0.59068 0.59736 0.0
C1187 C 0.8169 0.54962 0.52205 0.0
C1188 C 0.34769 0.84241 0.64429 0.0
C1189 C 0.36991 0.85859 0.68411 0.0
H1190 H 0.3553 0.85369 0.57958 0.0
C1191 C 0.42096 0.89903 0.68828 0.0
H1192 H 0.30829 0.8129 0.639 0.0
C1193 C 0.4487 0.92237 0.65365 0.0
C1194 C 0.4257 0.90676 0.61363 0.0
H1195 H 0.4392 0.91319 0.71821 0.0
H1196 H 0.48706 0.95465 0.65767 0.0
C1197 C 0.37493 0.86601 0.60991 0.0
C1198 C 0.17665 0.29769 0.66974 0.0
C1199 C 0.21816 0.32342 0.6998 0.0
H1200 H 0.11905 0.30087 0.62029 0.0
C1201 C 0.23216 0.37668 0.70167 0.0
H1202 H 0.16313 0.25633 0.66804 0.0
C1203 C 0.20592 0.40299 0.67391 0.0
C1204 C 0.16376 0.37654 0.64408 0.0
H1205 H 0.26233 0.39752 0.72548 0.0
H1206 H 0.21803 0.44369 0.67642 0.0
C1207 C 0.15041 0.3234 0.64264 0.0
C1208 C 0.69017 0.1242 0.65399 0.0
C1209 C 0.70634 0.17827 0.65323 0.0
H1210 H 0.65431 0.0589 0.61898 0.0
C1211 C 0.70527 0.20967 0.6143 0.0
H1212 H 0.69125 0.09899 0.68335 0.0
C1213 C 0.68546 0.18705 0.57733 0.0
C1214 C 0.66509 0.13214 0.57828 0.0
H1215 H 0.71843 0.25168 0.61226 0.0
H1216 H 0.68284 0.21216 0.54823 0.0
C1217 C 0.66978 0.10134 0.61688 0.0
C1218 C 0.84121 0.32273 0.39088 0.0
C1219 C 0.85176 0.28813 0.37662 0.0
H1220 H 0.8681 0.38324 0.42992 0.0
C1221 C 0.89402 0.28187 0.39654 0.0
H1222 H 0.80796 0.32737 0.37706 0.0
C1223 C 0.92707 0.31229 0.42766 0.0
C1224 C 0.91948 0.35079 0.43921 0.0
H1225 H 0.90312 0.25549 0.38668 0.0
H1226 H 0.96047 0.3075 0.44082 0.0
C1227 C 0.87545 0.35479 0.42125 0.0
C1228 C 0.6416 0.81217 0.42667 0.0
C1229 C 0.69241 0.82294 0.43882 0.0
H1230 H 0.58301 0.82858 0.4316 0.0
C1231 C 0.72469 0.8641 0.46341 0.0
H1232 H 0.61544 0.78065 0.40815 0.0
C1233 C 0.706 0.89191 0.47705 0.0
C1234 C 0.65444 0.87893 0.46673 0.0
H1235 H 0.76426 0.874 0.47299 0.0
H1236 H 0.73142 0.92189 0.49713 0.0
C1237 C 0.62289 0.83955 0.44052 0.0
C1238 C 0.21857 0.66932 0.36929 0.0
C1239 C 0.18708 0.66655 0.33064 0.0
H1240 H 0.22433 0.64384 0.43546 0.0
C1241 C 0.13411 0.63566 0.33106 0.0
H1242 H 0.25912 0.69381 0.37094 0.0
C1243 C 0.11349 0.60736 0.36862 0.0
C1244 C 0.14522 0.60925 0.40721 0.0
H1245 H 0.10841 0.63339 0.30208 0.0
H1246 H 0.0727 0.58351 0.36729 0.0
C1247 C 0.19817 0.64087 0.4067 0.0
C1248 C 0.40568 0.20667 0.323 0.0
C1249 C 0.35207 0.17557 0.3168 0.0
H1250 H 0.47803 0.21189 0.35489 0.0
C1251 C 0.33263 0.12222 0.33603 0.0
H1252 H 0.42305 0.24723 0.3078 0.0
C1253 C 0.36412 0.10118 0.36105 0.0
C1254 C 0.41731 0.13229 0.36934 0.0
H1255 H 0.29208 0.09595 0.33184 0.0
H1256 H 0.34609 0.06016 0.37512 0.0
C1257 C 0.43753 0.18583 0.34961 0.0
C1258 C 0.73557 0.88864 0.67905 0.0
C1259 C 0.71999 0.83413 0.69146 0.0
H1260 H 0.71807 0.95028 0.6454 0.0
C1261 C 0.66771 0.79946 0.68076 0.0
H1262 H 0.77429 0.91714 0.68847 0.0
C1263 C 0.6344 0.81866 0.65482 0.0
C1264 C 0.65146 0.87357 0.64057 0.0
H1265 H 0.65257 0.75756 0.69181 0.0
H1266 H 0.59545 0.79029 0.6454 0.0
C1267 C 0.70256 0.90788 0.65457 0.0
C1268 C 0.65 0.12732 0.32439 0.0
C1269 C 0.70366 0.15664 0.33155 0.0
H1270 H 0.58037 0.07697 0.35197 0.0
C1271 C 0.7271 0.15821 0.37333 0.0
H1272 H 0.63059 0.12337 0.29262 0.0
C1273 C 0.69884 0.13328 0.40668 0.0
C1274 C 0.64552 0.10271 0.40028 0.0
H1275 H 0.76796 0.17692 0.38073 0.0
H1276 H 0.71959 0.13569 0.43809 0.0
C1277 C 0.62114 0.1009 0.35843 0.0
C1278 C 0.91041 0.70867 0.35031 0.0
C1279 C 0.86407 0.68463 0.32385 0.0
H1280 H 0.97003 0.70142 0.39507 0.0
C1281 C 0.84307 0.62942 0.32424 0.0
H1282 H 0.9294 0.75109 0.35043 0.0
C1283 C 0.86567 0.59949 0.35225 0.0
C1284 C 0.91309 0.62425 0.37763 0.0
H1285 H 0.80863 0.60916 0.30343 0.0
H1286 H 0.84574 0.55682 0.3543 0.0
C1287 C 0.93439 0.6797 0.37595 0.0
C1288 C 0.37486 0.87586 0.35926 0.0
C1289 C 0.35829 0.82145 0.36118 0.0
H1290 H 0.41206 0.94277 0.39256 0.0
C1291 C 0.3597 0.79114 0.40054 0.0
H1292 H 0.37366 0.90034 0.3295 0.0
C1293 C 0.3804 0.81526 0.43684 0.0
C1294 C 0.40136 0.87052 0.43462 0.0
H1295 H 0.34625 0.74897 0.40337 0.0
H1296 H 0.38357 0.7911 0.46638 0.0
C1297 C 0.39608 0.90015 0.39562 0.0
C1298 C 0.29086 0.44333 0.47687 0.0
C1299 C 0.27526 0.42617 0.4372 0.0
H1300 H 0.27081 0.46247 0.52603 0.0
C1301 C 0.22544 0.41341 0.41758 0.0
H1302 H 0.32856 0.45274 0.49337 0.0
C1303 C 0.19207 0.41695 0.43708 0.0
C1304 C 0.20813 0.43554 0.47592 0.0
H1305 H 0.21214 0.40162 0.3866 0.0
H1306 H 0.15408 0.40701 0.42091 0.0
C1307 C 0.25771 0.44842 0.49587 0.0
C1308 C 0.44146 0.18791 0.59511 0.0
C1309 C 0.40797 0.20623 0.57078 0.0
H1310 H 0.47791 0.14104 0.59913 0.0
C1311 C 0.37949 0.1844 0.53379 0.0
H1312 H 0.46399 0.20411 0.62362 0.0
C1313 C 0.38618 0.14673 0.52049 0.0
C1314 C 0.42245 0.13148 0.54336 0.0
H1315 H 0.35314 0.19761 0.51458 0.0
H1316 H 0.36572 0.1324 0.49093 0.0
C1317 C 0.44912 0.15153 0.58125 0.0
C1318 C 0.93095 0.35867 0.68701 0.0
C1319 C 0.87779 0.32855 0.68659 0.0
H1320 H 0.99352 0.40898 0.65162 0.0
C1321 C 0.84723 0.32478 0.64741 0.0
H1322 H 0.95593 0.36162 0.71648 0.0
C1323 C 0.8687 0.35168 0.61023 0.0
C1324 C 0.92183 0.3827 0.61054 0.0
H1325 H 0.80659 0.30078 0.64521 0.0
H1326 H 0.84322 0.34812 0.58101 0.0
C1327 C 0.95265 0.38545 0.64968 0.0
C1328 C 0.19318 0.71444 0.61461 0.0
C1329 C 0.19364 0.68741 0.65528 0.0
H1330 H 0.16771 0.70753 0.54951 0.0
C1331 C 0.17459 0.63237 0.66168 0.0
H1332 H 0.20967 0.75724 0.60924 0.0
C1333 C 0.15232 0.60402 0.62761 0.0
C1334 C 0.14863 0.6306 0.58688 0.0
H1335 H 0.17663 0.61137 0.69303 0.0
H1336 H 0.13494 0.56117 0.63342 0.0
C1337 C 0.17053 0.6862 0.5806 0.0
loop_
_geom_bond_atom_site_label_1
_geom_bond_atom_site_label_2
_geom_bond_distance
_geom_bond_site_symmetry_2
_ccdc_geom_bond_type
Tb0 N31 2.660 . S
Tb0 N38 2.600 . S
Tb0 O44 2.546 . S
Tb0 O45 2.610 . S
Tb0 O47 2.320 . S
Tb0 O48 2.552 . S
Tb0 O49 2.413 . S
Tb0 O51 2.362 . S
Tb0 O52 2.421 . S
Tb0 C64 2.833 . S
C1 C4 1.432 . S
C1 C5 1.414 . S
C1 N8 1.359 . S
C2 C4 1.417 . S
C2 C6 1.432 . S
C2 C14 1.410 . S
C3 C5 1.444 . S
C3 C6 1.317 . S
C3 H26 0.929 . S
C4 C1 1.432 . S
C4 C2 1.417 . S
C4 N12 1.360 . S
C5 C1 1.414 . S
C5 C3 1.444 . S
C5 C10 1.385 . S
C6 C2 1.432 . S
C6 C3 1.317 . S
C6 H18 0.930 . S
C7 C9 1.392 . S
C7 C10 1.370 . S
C7 H19 0.931 . S
N8 C1 1.359 . S
N8 C9 1.327 . S
N8 Tb11 2.600 . S
C9 C7 1.392 . S
C9 N8 1.327 . S
C9 H16 0.930 . S
C10 C5 1.385 . S
C10 C7 1.370 . S
C10 H29 0.930 . S
Tb11 N8 2.600 . S
Tb11 N12 2.660 . S
Tb11 O45 2.362 . S
Tb11 O46 2.421 . S
Tb11 O50 2.546 . S
Tb11 O51 2.610 . S
Tb11 O53 2.320 . S
Tb11 O54 2.552 . S
Tb11 O55 2.413 . S
Tb11 C75 2.833 . S
N12 C4 1.360 . S
N12 Tb11 2.660 . S
N12 C13 1.305 . S
C13 N12 1.305 . S
C13 C15 1.407 . S
C13 H20 0.930 . S
C14 C2 1.410 . S
C14 C15 1.345 . S
C14 H22 0.930 . S
C15 C13 1.407 . S
C15 C14 1.345 . S
C15 H17 0.930 . S
H16 C9 0.930 . S
H17 C15 0.930 . S
H18 C6 0.930 . S
H19 C7 0.931 . S
H20 C13 0.930 . S
H21 C35 0.930 . S
H22 C14 0.930 . S
H23 C41 0.930 . S
H24 C32 0.930 . S
H25 C39 0.931 . S
H26 C3 0.929 . S
H27 C33 0.930 . S
H28 C66 0.930 . S
H29 C10 0.930 . S
H30 C65 0.929 . S
N31 Tb0 2.660 . S
N31 C32 1.305 . S
N31 C36 1.360 . S
C32 H24 0.930 . S
C32 N31 1.305 . S
C32 C35 1.407 . S
C33 H27 0.930 . S
C33 C34 1.410 . S
C33 C35 1.345 . S
C34 C33 1.410 . S
C34 C36 1.417 . S
C34 C66 1.432 . S
C35 H21 0.930 . S
C35 C32 1.407 . S
C35 C33 1.345 . S
C36 N31 1.360 . S
C36 C34 1.417 . S
C36 C40 1.432 . S
H37 C42 0.930 . S
N38 Tb0 2.600 . S
N38 C40 1.359 . S
N38 C41 1.327 . S
C39 H25 0.931 . S
C39 C41 1.392 . S
C39 C42 1.370 . S
C40 C36 1.432 . S
C40 N38 1.359 . S
C40 C43 1.414 . S
C41 H23 0.930 . S
C41 N38 1.327 . S
C41 C39 1.392 . S
C42 H37 0.930 . S
C42 C39 1.370 . S
C42 C43 1.385 . S
C43 C40 1.414 . S
C43 C42 1.385 . S
C43 C65 1.444 . S
O44 Tb0 2.546 . S
O44 C64 1.251 . S
O45 Tb0 2.610 . S
O45 Tb11 2.362 . S
O45 C56 1.283 . S
O46 Tb11 2.421 . S
O46 C63 1.262 . S
O47 Tb0 2.320 . S
O47 C63 1.260 . S
O48 Tb0 2.552 . S
O48 C56 1.243 . S
O49 Tb0 2.413 . S
O49 C64 1.256 . S
O50 Tb11 2.546 . S
O50 C75 1.251 . S
O51 Tb0 2.362 . S
O51 Tb11 2.610 . S
O51 C67 1.283 . S
O52 Tb0 2.421 . S
O52 C74 1.262 . S
O53 Tb11 2.320 . S
O53 C74 1.260 . S
O54 Tb11 2.552 . S
O54 C67 1.243 . S
O55 Tb11 2.413 . S
O55 C75 1.256 . S
C56 O45 1.283 . S
C56 O48 1.243 . S
C57 C59 1.382 . S
C57 C61 1.393 . S
C57 C64 1.500 . S
C58 C59 1.400 . S
C58 C60 1.384 . S
C59 C57 1.382 . S
C59 C58 1.400 . S
C59 H76 0.930 . S
C60 C58 1.384 . S
C60 C62 1.392 . S
C60 H77 0.931 . S
C61 C57 1.393 . S
C61 C62 1.401 . S
C61 H78 0.930 . S
C62 C60 1.392 . S
C62 C61 1.401 . S
C62 H79 0.930 1_545 S
C63 O46 1.262 . S
C63 O47 1.260 . S
C64 Tb0 2.833 . S
C64 O44 1.251 . S
C64 O49 1.256 . S
C64 C57 1.500 . S
C65 H30 0.929 . S
C65 C43 1.444 . S
C65 C66 1.317 . S
C66 H28 0.930 . S
C66 C34 1.432 . S
C66 C65 1.317 . S
C67 O51 1.283 . S
C67 O54 1.243 . S
C68 C69 1.382 . S
C68 C72 1.393 . S
C68 C75 1.500 . S
C69 C68 1.382 . S
C69 C70 1.400 . S
C69 H80 0.930 . S
C70 C69 1.400 . S
C70 C71 1.384 . S
C71 C70 1.384 . S
C71 C73 1.392 . S
C71 H81 0.931 . S
C72 C68 1.393 . S
C72 C73 1.401 . S
C72 H82 0.930 . S
C73 C71 1.392 . S
C73 C72 1.401 . S
C73 H83 0.930 . S
C74 O52 1.262 . S
C74 O53 1.260 . S
C75 Tb11 2.833 . S
C75 O50 1.251 . S
C75 O55 1.256 . S
C75 C68 1.500 . S
H76 C59 0.930 . S
H77 C60 0.931 . S
H78 C61 0.930 . S
H79 C62 0.930 1_565 S
H80 C69 0.930 . S
H81 C71 0.931 . S
H82 C72 0.930 . S
H83 C73 0.930 . S
Tb84 N115 2.660 . S
Tb84 N122 2.600 . S
Tb84 O128 2.546 . S
Tb84 O129 2.610 . S
Tb84 O131 2.320 . S
Tb84 O132 2.552 . S
Tb84 O133 2.413 . S
Tb84 O135 2.362 . S
Tb84 O136 2.421 . S
Tb84 C148 2.833 . S
C85 C88 1.432 . S
C85 C89 1.414 . S
C85 N92 1.359 . S
C86 C88 1.417 . S
C86 C90 1.432 . S
C86 C98 1.410 . S
C87 C89 1.444 . S
C87 C90 1.317 . S
C87 H110 0.929 . S
C88 C85 1.432 . S
C88 C86 1.417 . S
C88 N96 1.360 . S
C89 C85 1.414 . S
C89 C87 1.444 . S
C89 C94 1.385 . S
C90 C86 1.432 . S
C90 C87 1.317 . S
C90 H102 0.930 . S
C91 C93 1.392 . S
C91 C94 1.370 . S
C91 H103 0.931 . S
N92 C85 1.359 . S
N92 C93 1.327 . S
N92 Tb95 2.600 . S
C93 C91 1.392 . S
C93 N92 1.327 . S
C93 H100 0.930 . S
C94 C89 1.385 . S
C94 C91 1.370 . S
C94 H113 0.930 . S
Tb95 N92 2.600 . S
Tb95 N96 2.660 . S
Tb95 O129 2.362 . S
Tb95 O130 2.421 . S
Tb95 O134 2.546 . S
Tb95 O135 2.610 . S
Tb95 O137 2.320 . S
Tb95 O138 2.552 . S
Tb95 O139 2.413 . S
Tb95 C159 2.833 . S
N96 C88 1.360 . S
N96 Tb95 2.660 . S
N96 C97 1.305 . S
C97 N96 1.305 . S
C97 C99 1.407 . S
C97 H104 0.930 . S
C98 C86 1.410 . S
C98 C99 1.345 . S
C98 H106 0.930 . S
C99 C97 1.407 . S
C99 C98 1.345 . S
C99 H101 0.930 . S
H100 C93 0.930 . S
H101 C99 0.930 . S
H102 C90 0.930 . S
H103 C91 0.931 . S
H104 C97 0.930 . S
H105 C119 0.930 . S
H106 C98 0.930 . S
H107 C125 0.930 . S
H108 C116 0.930 . S
H109 C123 0.931 . S
H110 C87 0.929 . S
H111 C117 0.930 . S
H112 C150 0.930 . S
H113 C94 0.930 . S
H114 C149 0.929 . S
N115 Tb84 2.660 . S
N115 C116 1.305 . S
N115 C120 1.360 . S
C116 H108 0.930 . S
C116 N115 1.305 . S
C116 C119 1.407 . S
C117 H111 0.930 . S
C117 C118 1.410 . S
C117 C119 1.345 . S
C118 C117 1.410 . S
C118 C120 1.417 . S
C118 C150 1.432 . S
C119 H105 0.930 . S
C119 C116 1.407 . S
C119 C117 1.345 . S
C120 N115 1.360 . S
C120 C118 1.417 . S
C120 C124 1.432 . S
H121 C126 0.930 . S
N122 Tb84 2.600 . S
N122 C124 1.359 . S
N122 C125 1.327 . S
C123 H109 0.931 . S
C123 C125 1.392 . S
C123 C126 1.370 . S
C124 C120 1.432 . S
C124 N122 1.359 . S
C124 C127 1.414 . S
C125 H107 0.930 . S
C125 N122 1.327 . S
C125 C123 1.392 . S
C126 H121 0.930 . S
C126 C123 1.370 . S
C126 C127 1.385 . S
C127 C124 1.414 . S
C127 C126 1.385 . S
C127 C149 1.444 . S
O128 Tb84 2.546 . S
O128 C148 1.251 . S
O129 Tb84 2.610 . S
O129 Tb95 2.362 . S
O129 C140 1.283 . S
O130 Tb95 2.421 . S
O130 C147 1.262 . S
O131 Tb84 2.320 . S
O131 C147 1.260 . S
O132 Tb84 2.552 . S
O132 C140 1.243 . S
O133 Tb84 2.413 . S
O133 C148 1.256 . S
O134 Tb95 2.546 . S
O134 C159 1.251 . S
O135 Tb84 2.362 . S
O135 Tb95 2.610 . S
O135 C151 1.283 . S
O136 Tb84 2.421 . S
O136 C158 1.262 . S
O137 Tb95 2.320 . S
O137 C158 1.260 . S
O138 Tb95 2.552 . S
O138 C151 1.243 . S
O139 Tb95 2.413 . S
O139 C159 1.256 . S
C140 O129 1.283 . S
C140 O132 1.243 . S
C141 C143 1.382 . S
C141 C145 1.393 . S
C141 C148 1.500 . S
C142 C143 1.400 . S
C142 C144 1.384 . S
C143 C141 1.382 . S
C143 C142 1.400 . S
C143 H160 0.930 . S
C144 C142 1.384 . S
C144 C146 1.392 . S
C144 H161 0.931 . S
C145 C141 1.393 . S
C145 C146 1.401 . S
C145 H162 0.930 . S
C146 C144 1.392 . S
C146 C145 1.401 . S
C146 H163 0.930 . S
C147 O130 1.262 . S
C147 O131 1.260 . S
C148 Tb84 2.833 . S
C148 O128 1.251 . S
C148 O133 1.256 . S
C148 C141 1.500 . S
C149 H114 0.929 . S
C149 C127 1.444 . S
C149 C150 1.317 . S
C150 H112 0.930 . S
C150 C118 1.432 . S
C150 C149 1.317 . S
C151 O135 1.283 . S
C151 O138 1.243 . S
C152 C153 1.382 . S
C152 C156 1.393 . S
C152 C159 1.500 . S
C153 C152 1.382 . S
C153 C154 1.400 . S
C153 H164 0.930 . S
C154 C153 1.400 . S
C154 C155 1.384 . S
C155 C154 1.384 . S
C155 C157 1.392 . S
C155 H165 0.931 . S
C156 C152 1.393 . S
C156 C157 1.401 . S
C156 H166 0.930 . S
C157 C155 1.392 . S
C157 C156 1.401 . S
C157 H167 0.930 . S
C158 O136 1.262 . S
C158 O137 1.260 . S
C159 Tb95 2.833 . S
C159 O134 1.251 . S
C159 O139 1.256 . S
C159 C152 1.500 . S
H160 C143 0.930 . S
H161 C144 0.931 . S
H162 C145 0.930 . S
H163 C146 0.930 . S
H164 C153 0.930 . S
H165 C155 0.931 . S
H166 C156 0.930 . S
H167 C157 0.930 . S
Tb168 N199 2.660 . S
Tb168 N206 2.600 . S
Tb168 O212 2.546 . S
Tb168 O213 2.610 . S
Tb168 O215 2.320 . S
Tb168 O216 2.552 . S
Tb168 O217 2.413 . S
Tb168 O219 2.362 . S
Tb168 O220 2.421 . S
Tb168 C232 2.833 . S
C169 C172 1.432 . S
C169 C173 1.414 . S
C169 N176 1.359 . S
C170 C172 1.417 . S
C170 C174 1.432 . S
C170 C182 1.410 . S
C171 C173 1.444 . S
C171 C174 1.317 . S
C171 H194 0.930 . S
C172 C169 1.432 . S
C172 C170 1.417 . S
C172 N180 1.360 . S
C173 C169 1.414 . S
C173 C171 1.444 . S
C173 C178 1.385 . S
C174 C170 1.432 . S
C174 C171 1.317 . S
C174 H186 0.930 . S
C175 C177 1.392 . S
C175 C178 1.370 . S
C175 H187 0.931 . S
N176 C169 1.359 . S
N176 C177 1.327 . S
N176 Tb179 2.600 . S
C177 C175 1.392 . S
C177 N176 1.327 . S
C177 H184 0.930 . S
C178 C173 1.385 . S
C178 C175 1.370 . S
C178 H197 0.930 1_565 S
Tb179 N176 2.600 . S
Tb179 N180 2.660 . S
Tb179 O213 2.362 . S
Tb179 O214 2.421 . S
Tb179 O218 2.546 . S
Tb179 O219 2.610 . S
Tb179 O221 2.320 . S
Tb179 O222 2.552 . S
Tb179 O223 2.413 . S
Tb179 C243 2.833 . S
N180 C172 1.360 . S
N180 Tb179 2.660 . S
N180 C181 1.305 . S
C181 N180 1.305 . S
C181 C183 1.407 . S
C181 H188 0.930 . S
C182 C170 1.410 . S
C182 C183 1.345 . S
C182 H190 0.930 . S
C183 C181 1.407 . S
C183 C182 1.345 . S
C183 H185 0.930 . S
H184 C177 0.930 . S
H185 C183 0.930 . S
H186 C174 0.930 . S
H187 C175 0.931 . S
H188 C181 0.930 . S
H189 C203 0.930 . S
H190 C182 0.930 . S
H191 C209 0.930 . S
H192 C200 0.930 . S
H193 C207 0.931 . S
H194 C171 0.930 . S
H195 C201 0.930 . S
H196 C234 0.930 . S
H197 C178 0.930 1_545 S
H198 C233 0.929 . S
N199 Tb168 2.660 . S
N199 C200 1.305 . S
N199 C204 1.360 . S
C200 H192 0.930 . S
C200 N199 1.305 . S
C200 C203 1.407 . S
C201 H195 0.930 . S
C201 C202 1.410 . S
C201 C203 1.345 . S
C202 C201 1.410 . S
C202 C204 1.417 . S
C202 C234 1.432 . S
C203 H189 0.930 . S
C203 C200 1.407 . S
C203 C201 1.345 . S
C204 N199 1.360 . S
C204 C202 1.417 . S
C204 C208 1.432 . S
H205 C210 0.930 . S
N206 Tb168 2.600 . S
N206 C208 1.359 . S
N206 C209 1.327 . S
C207 H193 0.931 . S
C207 C209 1.392 . S
C207 C210 1.370 . S
C208 C204 1.432 . S
C208 N206 1.359 . S
C208 C211 1.414 . S
C209 H191 0.930 . S
C209 N206 1.327 . S
C209 C207 1.392 . S
C210 H205 0.930 . S
C210 C207 1.370 . S
C210 C211 1.385 . S
C211 C208 1.414 . S
C211 C210 1.385 . S
C211 C233 1.444 . S
O212 Tb168 2.546 . S
O212 C232 1.251 . S
O213 Tb168 2.610 . S
O213 Tb179 2.362 . S
O213 C224 1.283 . S
O214 Tb179 2.421 . S
O214 C231 1.262 . S
O215 Tb168 2.320 . S
O215 C231 1.260 . S
O216 Tb168 2.552 . S
O216 C224 1.243 . S
O217 Tb168 2.413 . S
O217 C232 1.256 . S
O218 Tb179 2.546 . S
O218 C243 1.251 . S
O219 Tb168 2.362 . S
O219 Tb179 2.610 . S
O219 C235 1.283 . S
O220 Tb168 2.421 . S
O220 C242 1.262 . S
O221 Tb179 2.320 . S
O221 C242 1.260 . S
O222 Tb179 2.552 . S
O222 C235 1.243 . S
O223 Tb179 2.413 . S
O223 C243 1.256 . S
C224 O213 1.283 . S
C224 O216 1.243 . S
C225 C227 1.382 . S
C225 C229 1.393 . S
C225 C232 1.500 . S
C226 C227 1.400 . S
C226 C228 1.384 . S
C227 C225 1.382 . S
C227 C226 1.400 . S
C227 H244 0.930 . S
C228 C226 1.384 . S
C228 C230 1.392 . S
C228 H245 0.931 . S
C229 C225 1.393 . S
C229 C230 1.401 . S
C229 H246 0.930 . S
C230 C228 1.392 . S
C230 C229 1.401 . S
C230 H247 0.930 . S
C231 O214 1.262 . S
C231 O215 1.260 . S
C232 Tb168 2.833 . S
C232 O212 1.251 . S
C232 O217 1.256 . S
C232 C225 1.500 . S
C233 H198 0.929 . S
C233 C211 1.444 . S
C233 C234 1.317 . S
C234 H196 0.930 . S
C234 C202 1.432 . S
C234 C233 1.317 . S
C235 O219 1.283 . S
C235 O222 1.243 . S
C236 C237 1.382 . S
C236 C240 1.393 . S
C236 C243 1.500 . S
C237 C236 1.382 . S
C237 C238 1.400 . S
C237 H248 0.930 . S
C238 C237 1.400 . S
C238 C239 1.384 . S
C239 C238 1.384 . S
C239 C241 1.392 . S
C239 H249 0.931 . S
C240 C236 1.393 . S
C240 C241 1.401 . S
C240 H250 0.930 . S
C241 C239 1.392 . S
C241 C240 1.401 . S
C241 H251 0.930 1_655 S
C242 O220 1.262 . S
C242 O221 1.260 . S
C243 Tb179 2.833 . S
C243 O218 1.251 . S
C243 O223 1.256 . S
C243 C236 1.500 . S
H244 C227 0.930 . S
H245 C228 0.931 . S
H246 C229 0.930 . S
H247 C230 0.930 . S
H248 C237 0.930 . S
H249 C239 0.931 . S
H250 C240 0.930 . S
H251 C241 0.930 1_455 S
Tb252 N283 2.660 . S
Tb252 N290 2.600 . S
Tb252 O296 2.546 . S
Tb252 O297 2.610 . S
Tb252 O299 2.320 . S
Tb252 O300 2.552 . S
Tb252 O301 2.413 . S
Tb252 O303 2.362 . S
Tb252 O304 2.421 . S
Tb252 C316 2.833 . S
C253 C256 1.432 . S
C253 C257 1.414 . S
C253 N260 1.359 . S
C254 C256 1.417 . S
C254 C258 1.432 . S
C254 C266 1.410 . S
C255 C257 1.444 . S
C255 C258 1.317 . S
C255 H278 0.929 . S
C256 C253 1.432 . S
C256 C254 1.417 . S
C256 N264 1.360 . S
C257 C253 1.414 . S
C257 C255 1.444 . S
C257 C262 1.385 . S
C258 C254 1.432 . S
C258 C255 1.317 . S
C258 H270 0.930 1_565 S
C259 C261 1.392 . S
C259 C262 1.370 . S
C259 H271 0.931 . S
N260 C253 1.359 . S
N260 C261 1.327 . S
N260 Tb263 2.600 . S
C261 C259 1.392 . S
C261 N260 1.327 . S
C261 H268 0.930 . S
C262 C257 1.385 . S
C262 C259 1.370 . S
C262 H281 0.930 . S
Tb263 N260 2.600 . S
Tb263 N264 2.660 . S
Tb263 O297 2.362 . S
Tb263 O298 2.421 . S
Tb263 O302 2.546 . S
Tb263 O303 2.610 . S
Tb263 O305 2.320 . S
Tb263 O306 2.552 . S
Tb263 O307 2.413 . S
Tb263 C327 2.833 . S
N264 C256 1.360 . S
N264 Tb263 2.660 . S
N264 C265 1.305 . S
C265 N264 1.305 . S
C265 C267 1.407 . S
C265 H272 0.930 . S
C266 C254 1.410 . S
C266 C267 1.345 . S
C266 H274 0.930 1_565 S
C267 C265 1.407 . S
C267 C266 1.345 . S
C267 H269 0.930 . S
H268 C261 0.930 . S
H269 C267 0.930 . S
H270 C258 0.930 1_545 S
H271 C259 0.931 . S
H272 C265 0.930 . S
H273 C287 0.930 . S
H274 C266 0.930 1_545 S
H275 C293 0.930 . S
H276 C284 0.930 . S
H277 C291 0.931 . S
H278 C255 0.929 . S
H279 C285 0.930 . S
H280 C318 0.930 . S
H281 C262 0.930 . S
H282 C317 0.929 . S
N283 Tb252 2.660 . S
N283 C284 1.305 . S
N283 C288 1.360 . S
C284 H276 0.930 . S
C284 N283 1.305 . S
C284 C287 1.407 . S
C285 H279 0.930 . S
C285 C286 1.410 . S
C285 C287 1.345 . S
C286 C285 1.410 . S
C286 C288 1.417 . S
C286 C318 1.432 . S
C287 H273 0.930 . S
C287 C284 1.407 . S
C287 C285 1.345 . S
C288 N283 1.360 . S
C288 C286 1.417 . S
C288 C292 1.432 . S
H289 C294 0.930 . S
N290 Tb252 2.600 . S
N290 C292 1.359 . S
N290 C293 1.327 . S
C291 H277 0.931 . S
C291 C293 1.392 . S
C291 C294 1.370 . S
C292 C288 1.432 . S
C292 N290 1.359 . S
C292 C295 1.414 . S
C293 H275 0.930 . S
C293 N290 1.327 . S
C293 C291 1.392 . S
C294 H289 0.930 . S
C294 C291 1.370 . S
C294 C295 1.385 . S
C295 C292 1.414 . S
C295 C294 1.385 . S
C295 C317 1.444 . S
O296 Tb252 2.546 . S
O296 C316 1.251 . S
O297 Tb252 2.610 . S
O297 Tb263 2.362 . S
O297 C308 1.283 . S
O298 Tb263 2.421 . S
O298 C315 1.262 . S
O299 Tb252 2.320 . S
O299 C315 1.260 . S
O300 Tb252 2.552 . S
O300 C308 1.243 . S
O301 Tb252 2.413 . S
O301 C316 1.256 . S
O302 Tb263 2.546 . S
O302 C327 1.251 . S
O303 Tb252 2.362 . S
O303 Tb263 2.610 . S
O303 C319 1.283 . S
O304 Tb252 2.421 . S
O304 C326 1.262 . S
O305 Tb263 2.320 . S
O305 C326 1.260 . S
O306 Tb263 2.552 . S
O306 C319 1.243 . S
O307 Tb263 2.413 . S
O307 C327 1.256 . S
C308 O297 1.283 . S
C308 O300 1.243 . S
C309 C311 1.382 . S
C309 C313 1.393 . S
C309 C316 1.500 . S
C310 C311 1.400 . S
C310 C312 1.384 . S
C311 C309 1.382 . S
C311 C310 1.400 . S
C311 H328 0.930 . S
C312 C310 1.384 . S
C312 C314 1.392 . S
C312 H329 0.931 . S
C313 C309 1.393 . S
C313 C314 1.401 . S
C313 H330 0.930 . S
C314 C312 1.392 . S
C314 C313 1.401 . S
C314 H331 0.930 . S
C315 O298 1.262 . S
C315 O299 1.260 . S
C316 Tb252 2.833 . S
C316 O296 1.251 . S
C316 O301 1.256 . S
C316 C309 1.500 . S
C317 H282 0.929 . S
C317 C295 1.444 . S
C317 C318 1.317 . S
C318 H280 0.930 . S
C318 C286 1.432 . S
C318 C317 1.317 . S
C319 O303 1.283 . S
C319 O306 1.243 . S
C320 C321 1.382 . S
C320 C324 1.393 . S
C320 C327 1.500 . S
C321 C320 1.382 . S
C321 C322 1.400 . S
C321 H332 0.930 . S
C322 C321 1.400 . S
C322 C323 1.384 . S
C323 C322 1.384 . S
C323 C325 1.392 . S
C323 H333 0.931 . S
C324 C320 1.393 . S
C324 C325 1.401 . S
C324 H334 0.930 . S
C325 C323 1.392 . S
C325 C324 1.401 . S
C325 H335 0.930 . S
C326 O304 1.262 . S
C326 O305 1.260 . S
C327 Tb263 2.833 . S
C327 O302 1.251 . S
C327 O307 1.256 . S
C327 C320 1.500 . S
H328 C311 0.930 . S
H329 C312 0.931 . S
H330 C313 0.930 . S
H331 C314 0.930 . S
H332 C321 0.930 . S
H333 C323 0.931 . S
H334 C324 0.930 . S
H335 C325 0.930 . S
Tb336 N367 2.660 . S
Tb336 N374 2.600 . S
Tb336 O380 2.546 . S
Tb336 O381 2.610 . S
Tb336 O383 2.320 . S
Tb336 O384 2.552 . S
Tb336 O385 2.413 . S
Tb336 O387 2.362 . S
Tb336 O388 2.421 . S
Tb336 C400 2.833 . S
C337 C340 1.432 . S
C337 C341 1.414 . S
C337 N344 1.359 . S
C338 C340 1.417 . S
C338 C342 1.432 . S
C338 C350 1.410 . S
C339 C341 1.444 . S
C339 C342 1.317 . S
C339 H362 0.929 . S
C340 C337 1.432 . S
C340 C338 1.417 . S
C340 N348 1.360 . S
C341 C337 1.414 . S
C341 C339 1.444 . S
C341 C346 1.385 . S
C342 C338 1.432 . S
C342 C339 1.317 . S
C342 H354 0.930 . S
C343 C345 1.392 . S
C343 C346 1.370 . S
C343 H355 0.931 . S
N344 C337 1.359 . S
N344 C345 1.327 . S
N344 Tb347 2.600 . S
C345 C343 1.392 . S
C345 N344 1.327 . S
C345 H352 0.930 . S
C346 C341 1.385 . S
C346 C343 1.370 . S
C346 H365 0.930 . S
Tb347 N344 2.600 . S
Tb347 N348 2.660 . S
Tb347 O381 2.362 . S
Tb347 O382 2.421 . S
Tb347 O386 2.546 . S
Tb347 O387 2.610 . S
Tb347 O389 2.320 . S
Tb347 O390 2.552 . S
Tb347 O391 2.413 . S
Tb347 C411 2.833 . S
N348 C340 1.360 . S
N348 Tb347 2.660 . S
N348 C349 1.305 . S
C349 N348 1.305 . S
C349 C351 1.407 . S
C349 H356 0.930 . S
C350 C338 1.410 . S
C350 C351 1.345 . S
C350 H358 0.930 . S
C351 C349 1.407 . S
C351 C350 1.345 . S
C351 H353 0.930 . S
H352 C345 0.930 . S
H353 C351 0.930 . S
H354 C342 0.930 . S
H355 C343 0.931 . S
H356 C349 0.930 . S
H357 C371 0.930 . S
H358 C350 0.930 . S
H359 C377 0.930 . S
H360 C368 0.930 . S
H361 C375 0.931 . S
H362 C339 0.929 . S
H363 C369 0.930 . S
H364 C402 0.930 . S
H365 C346 0.930 . S
H366 C401 0.929 . S
N367 Tb336 2.660 . S
N367 C368 1.305 . S
N367 C372 1.360 . S
C368 H360 0.930 . S
C368 N367 1.305 . S
C368 C371 1.407 . S
C369 H363 0.930 . S
C369 C370 1.410 . S
C369 C371 1.345 . S
C370 C369 1.410 . S
C370 C372 1.417 . S
C370 C402 1.432 . S
C371 H357 0.930 . S
C371 C368 1.407 . S
C371 C369 1.345 . S
C372 N367 1.360 . S
C372 C370 1.417 . S
C372 C376 1.432 . S
H373 C378 0.930 . S
N374 Tb336 2.600 . S
N374 C376 1.359 . S
N374 C377 1.327 . S
C375 H361 0.931 . S
C375 C377 1.392 . S
C375 C378 1.370 . S
C376 C372 1.432 . S
C376 N374 1.359 . S
C376 C379 1.414 . S
C377 H359 0.930 . S
C377 N374 1.327 . S
C377 C375 1.392 . S
C378 H373 0.930 . S
C378 C375 1.370 . S
C378 C379 1.385 . S
C379 C376 1.414 . S
C379 C378 1.385 . S
C379 C401 1.444 . S
O380 Tb336 2.546 . S
O380 C400 1.251 . S
O381 Tb336 2.610 . S
O381 Tb347 2.362 . S
O381 C392 1.283 . S
O382 Tb347 2.421 . S
O382 C399 1.262 . S
O383 Tb336 2.320 . S
O383 C399 1.260 . S
O384 Tb336 2.552 . S
O384 C392 1.243 . S
O385 Tb336 2.413 . S
O385 C400 1.256 . S
O386 Tb347 2.546 . S
O386 C411 1.251 . S
O387 Tb336 2.362 . S
O387 Tb347 2.610 . S
O387 C403 1.283 . S
O388 Tb336 2.421 . S
O388 C410 1.262 . S
O389 Tb347 2.320 . S
O389 C410 1.260 . S
O390 Tb347 2.552 . S
O390 C403 1.243 . S
O391 Tb347 2.413 . S
O391 C411 1.256 . S
C392 O381 1.283 . S
C392 O384 1.243 . S
C393 C395 1.382 . S
C393 C397 1.393 . S
C393 C400 1.500 . S
C394 C395 1.400 . S
C394 C396 1.384 . S
C395 C393 1.382 . S
C395 C394 1.400 . S
C395 H412 0.930 . S
C396 C394 1.384 . S
C396 C398 1.392 . S
C396 H413 0.931 . S
C397 C393 1.393 . S
C397 C398 1.401 . S
C397 H414 0.930 . S
C398 C396 1.392 . S
C398 C397 1.401 . S
C398 H415 0.930 . S
C399 O382 1.262 . S
C399 O383 1.260 . S
C400 Tb336 2.833 . S
C400 O380 1.251 . S
C400 O385 1.256 . S
C400 C393 1.500 . S
C401 H366 0.929 . S
C401 C379 1.444 . S
C401 C402 1.317 . S
C402 H364 0.930 . S
C402 C370 1.432 . S
C402 C401 1.317 . S
C403 O387 1.283 . S
C403 O390 1.243 . S
C404 C405 1.382 . S
C404 C408 1.393 . S
C404 C411 1.500 . S
C405 C404 1.382 . S
C405 C406 1.400 . S
C405 H416 0.930 . S
C406 C405 1.400 . S
C406 C407 1.384 . S
C407 C406 1.384 . S
C407 C409 1.392 . S
C407 H417 0.931 . S
C408 C404 1.393 . S
C408 C409 1.401 . S
C408 H418 0.930 . S
C409 C407 1.392 . S
C409 C408 1.401 . S
C409 H419 0.930 . S
C410 O388 1.262 . S
C410 O389 1.260 . S
C411 Tb347 2.833 . S
C411 O386 1.251 . S
C411 O391 1.256 . S
C411 C404 1.500 . S
H412 C395 0.930 . S
H413 C396 0.931 . S
H414 C397 0.930 . S
H415 C398 0.930 . S
H416 C405 0.930 . S
H417 C407 0.931 . S
H418 C408 0.930 . S
H419 C409 0.930 . S
Tb420 N451 2.660 . S
Tb420 N458 2.600 . S
Tb420 O464 2.546 . S
Tb420 O465 2.610 . S
Tb420 O467 2.320 . S
Tb420 O468 2.552 . S
Tb420 O469 2.413 . S
Tb420 O471 2.362 . S
Tb420 O472 2.421 . S
Tb420 C484 2.833 . S
C421 C424 1.432 . S
C421 C425 1.414 . S
C421 N428 1.359 . S
C422 C424 1.417 . S
C422 C426 1.432 . S
C422 C434 1.410 . S
C423 C425 1.444 . S
C423 C426 1.317 . S
C423 H446 0.929 . S
C424 C421 1.432 . S
C424 C422 1.417 . S
C424 N432 1.360 . S
C425 C421 1.414 . S
C425 C423 1.444 . S
C425 C430 1.385 . S
C426 C422 1.432 . S
C426 C423 1.317 . S
C426 H438 0.930 . S
C427 C429 1.392 . S
C427 C430 1.370 . S
C427 H439 0.931 . S
N428 C421 1.359 . S
N428 C429 1.327 . S
N428 Tb431 2.600 . S
C429 C427 1.392 . S
C429 N428 1.327 . S
C429 H436 0.930 . S
C430 C425 1.385 . S
C430 C427 1.370 . S
C430 H449 0.930 . S
Tb431 N428 2.600 . S
Tb431 N432 2.660 . S
Tb431 O465 2.362 . S
Tb431 O466 2.421 . S
Tb431 O470 2.546 . S
Tb431 O471 2.610 . S
Tb431 O473 2.320 . S
Tb431 O474 2.552 . S
Tb431 O475 2.413 . S
Tb431 C495 2.833 . S
N432 C424 1.360 . S
N432 Tb431 2.660 . S
N432 C433 1.305 . S
C433 N432 1.305 . S
C433 C435 1.407 . S
C433 H440 0.930 . S
C434 C422 1.410 . S
C434 C435 1.345 . S
C434 H442 0.930 . S
C435 C433 1.407 . S
C435 C434 1.345 . S
C435 H437 0.930 . S
H436 C429 0.930 . S
H437 C435 0.930 . S
H438 C426 0.930 . S
H439 C427 0.931 . S
H440 C433 0.930 . S
H441 C455 0.930 . S
H442 C434 0.930 . S
H443 C461 0.930 . S
H444 C452 0.930 . S
H445 C459 0.931 . S
H446 C423 0.929 . S
H447 C453 0.930 . S
H448 C486 0.930 . S
H449 C430 0.930 . S
H450 C485 0.929 . S
N451 Tb420 2.660 . S
N451 C452 1.305 . S
N451 C456 1.360 . S
C452 H444 0.930 . S
C452 N451 1.305 . S
C452 C455 1.407 . S
C453 H447 0.930 . S
C453 C454 1.410 . S
C453 C455 1.345 . S
C454 C453 1.410 . S
C454 C456 1.417 . S
C454 C486 1.432 . S
C455 H441 0.930 . S
C455 C452 1.407 . S
C455 C453 1.345 . S
C456 N451 1.360 . S
C456 C454 1.417 . S
C456 C460 1.432 . S
H457 C462 0.930 1_565 S
N458 Tb420 2.600 . S
N458 C460 1.359 . S
N458 C461 1.327 . S
C459 H445 0.931 . S
C459 C461 1.392 . S
C459 C462 1.370 . S
C460 C456 1.432 . S
C460 N458 1.359 . S
C460 C463 1.414 . S
C461 H443 0.930 . S
C461 N458 1.327 . S
C461 C459 1.392 . S
C462 H457 0.930 1_545 S
C462 C459 1.370 . S
C462 C463 1.385 . S
C463 C460 1.414 . S
C463 C462 1.385 . S
C463 C485 1.444 . S
O464 Tb420 2.546 . S
O464 C484 1.251 . S
O465 Tb420 2.610 . S
O465 Tb431 2.362 . S
O465 C476 1.283 . S
O466 Tb431 2.421 . S
O466 C483 1.262 . S
O467 Tb420 2.320 . S
O467 C483 1.260 . S
O468 Tb420 2.552 . S
O468 C476 1.243 . S
O469 Tb420 2.413 . S
O469 C484 1.256 . S
O470 Tb431 2.546 . S
O470 C495 1.251 . S
O471 Tb420 2.362 . S
O471 Tb431 2.610 . S
O471 C487 1.283 . S
O472 Tb420 2.421 . S
O472 C494 1.262 . S
O473 Tb431 2.320 . S
O473 C494 1.260 . S
O474 Tb431 2.552 . S
O474 C487 1.243 . S
O475 Tb431 2.413 . S
O475 C495 1.256 . S
C476 O465 1.283 . S
C476 O468 1.243 . S
C477 C479 1.382 . S
C477 C481 1.393 . S
C477 C484 1.500 . S
C478 C479 1.400 . S
C478 C480 1.384 . S
C479 C477 1.382 . S
C479 C478 1.400 . S
C479 H496 0.930 . S
C480 C478 1.384 . S
C480 C482 1.392 . S
C480 H497 0.931 . S
C481 C477 1.393 . S
C481 C482 1.401 . S
C481 H498 0.930 . S
C482 C480 1.392 . S
C482 C481 1.401 . S
C482 H499 0.930 1_455 S
C483 O466 1.262 . S
C483 O467 1.260 . S
C484 Tb420 2.833 . S
C484 O464 1.251 . S
C484 O469 1.256 . S
C484 C477 1.500 . S
C485 H450 0.929 . S
C485 C463 1.444 . S
C485 C486 1.317 . S
C486 H448 0.930 . S
C486 C454 1.432 . S
C486 C485 1.317 . S
C487 O471 1.283 . S
C487 O474 1.243 . S
C488 C489 1.382 . S
C488 C492 1.393 . S
C488 C495 1.500 . S
C489 C488 1.382 . S
C489 C490 1.400 . S
C489 H500 0.930 . S
C490 C489 1.400 . S
C490 C491 1.384 . S
C491 C490 1.384 . S
C491 C493 1.392 . S
C491 H501 0.931 . S
C492 C488 1.393 . S
C492 C493 1.401 . S
C492 H502 0.930 . S
C493 C491 1.392 . S
C493 C492 1.401 . S
C493 H503 0.930 . S
C494 O472 1.262 . S
C494 O473 1.260 . S
C495 Tb431 2.833 . S
C495 O470 1.251 . S
C495 O475 1.256 . S
C495 C488 1.500 . S
H496 C479 0.930 . S
H497 C480 0.931 . S
H498 C481 0.930 . S
H499 C482 0.930 1_655 S
H500 C489 0.930 . S
H501 C491 0.931 . S
H502 C492 0.930 . S
H503 C493 0.930 . S
Tb504 N535 2.660 . S
Tb504 N542 2.600 . S
Tb504 O548 2.546 . S
Tb504 O549 2.610 . S
Tb504 O551 2.320 . S
Tb504 O552 2.552 . S
Tb504 O553 2.413 . S
Tb504 O555 2.362 . S
Tb504 O556 2.421 . S
Tb504 C568 2.833 . S
C505 C508 1.432 . S
C505 C509 1.414 . S
C505 N512 1.359 . S
C506 C508 1.417 . S
C506 C510 1.432 . S
C506 C518 1.410 . S
C507 C509 1.444 . S
C507 C510 1.317 . S
C507 H530 0.929 . S
C508 C505 1.432 . S
C508 C506 1.417 . S
C508 N516 1.360 . S
C509 C505 1.414 . S
C509 C507 1.444 . S
C509 C514 1.385 . S
C510 C506 1.432 . S
C510 C507 1.317 . S
C510 H522 0.930 . S
C511 C513 1.392 . S
C511 C514 1.370 . S
C511 H523 0.931 . S
N512 C505 1.359 . S
N512 C513 1.327 . S
N512 Tb515 2.600 . S
C513 C511 1.392 . S
C513 N512 1.327 . S
C513 H520 0.930 . S
C514 C509 1.385 . S
C514 C511 1.370 . S
C514 H533 0.930 . S
Tb515 N512 2.600 . S
Tb515 N516 2.660 . S
Tb515 O549 2.362 . S
Tb515 O550 2.421 . S
Tb515 O554 2.546 . S
Tb515 O555 2.610 . S
Tb515 O557 2.320 . S
Tb515 O558 2.552 . S
Tb515 O559 2.413 . S
Tb515 C579 2.833 . S
N516 C508 1.360 . S
N516 Tb515 2.660 . S
N516 C517 1.305 . S
C517 N516 1.305 . S
C517 C519 1.407 . S
C517 H524 0.930 . S
C518 C506 1.410 . S
C518 C519 1.345 . S
C518 H526 0.930 . S
C519 C517 1.407 . S
C519 C518 1.345 . S
C519 H521 0.930 . S
H520 C513 0.930 . S
H521 C519 0.930 . S
H522 C510 0.930 . S
H523 C511 0.931 . S
H524 C517 0.930 . S
H525 C539 0.930 . S
H526 C518 0.930 . S
H527 C545 0.930 . S
H528 C536 0.930 . S
H529 C543 0.931 . S
H530 C507 0.929 . S
H531 C537 0.930 1_565 S
H532 C570 0.930 1_565 S
H533 C514 0.930 . S
H534 C569 0.929 . S
N535 Tb504 2.660 . S
N535 C536 1.305 . S
N535 C540 1.360 . S
C536 H528 0.930 . S
C536 N535 1.305 . S
C536 C539 1.407 . S
C537 H531 0.930 1_545 S
C537 C538 1.410 . S
C537 C539 1.345 . S
C538 C537 1.410 . S
C538 C540 1.417 . S
C538 C570 1.432 . S
C539 H525 0.930 . S
C539 C536 1.407 . S
C539 C537 1.345 . S
C540 N535 1.360 . S
C540 C538 1.417 . S
C540 C544 1.432 . S
H541 C546 0.930 . S
N542 Tb504 2.600 . S
N542 C544 1.359 . S
N542 C545 1.327 . S
C543 H529 0.931 . S
C543 C545 1.392 . S
C543 C546 1.370 . S
C544 C540 1.432 . S
C544 N542 1.359 . S
C544 C547 1.414 . S
C545 H527 0.930 . S
C545 N542 1.327 . S
C545 C543 1.392 . S
C546 H541 0.930 . S
C546 C543 1.370 . S
C546 C547 1.385 . S
C547 C544 1.414 . S
C547 C546 1.385 . S
C547 C569 1.444 . S
O548 Tb504 2.546 . S
O548 C568 1.251 . S
O549 Tb504 2.610 . S
O549 Tb515 2.362 . S
O549 C560 1.283 . S
O550 Tb515 2.421 . S
O550 C567 1.262 . S
O551 Tb504 2.320 . S
O551 C567 1.260 . S
O552 Tb504 2.552 . S
O552 C560 1.243 . S
O553 Tb504 2.413 . S
O553 C568 1.256 . S
O554 Tb515 2.546 . S
O554 C579 1.251 . S
O555 Tb504 2.362 . S
O555 Tb515 2.610 . S
O555 C571 1.283 . S
O556 Tb504 2.421 . S
O556 C578 1.262 . S
O557 Tb515 2.320 . S
O557 C578 1.260 . S
O558 Tb515 2.552 . S
O558 C571 1.243 . S
O559 Tb515 2.413 . S
O559 C579 1.256 . S
C560 O549 1.283 . S
C560 O552 1.243 . S
C561 C563 1.382 . S
C561 C565 1.393 . S
C561 C568 1.500 . S
C562 C563 1.400 . S
C562 C564 1.384 . S
C563 C561 1.382 . S
C563 C562 1.400 . S
C563 H580 0.930 . S
C564 C562 1.384 . S
C564 C566 1.392 . S
C564 H581 0.931 . S
C565 C561 1.393 . S
C565 C566 1.401 . S
C565 H582 0.930 . S
C566 C564 1.392 . S
C566 C565 1.401 . S
C566 H583 0.930 . S
C567 O550 1.262 . S
C567 O551 1.260 . S
C568 Tb504 2.833 . S
C568 O548 1.251 . S
C568 O553 1.256 . S
C568 C561 1.500 . S
C569 H534 0.929 . S
C569 C547 1.444 . S
C569 C570 1.317 . S
C570 H532 0.930 1_545 S
C570 C538 1.432 . S
C570 C569 1.317 . S
C571 O555 1.283 . S
C571 O558 1.243 . S
C572 C573 1.382 . S
C572 C576 1.393 . S
C572 C579 1.500 . S
C573 C572 1.382 . S
C573 C574 1.400 . S
C573 H584 0.930 . S
C574 C573 1.400 . S
C574 C575 1.384 . S
C575 C574 1.384 . S
C575 C577 1.392 . S
C575 H585 0.931 . S
C576 C572 1.393 . S
C576 C577 1.401 . S
C576 H586 0.930 . S
C577 C575 1.392 . S
C577 C576 1.401 . S
C577 H587 0.930 . S
C578 O556 1.262 . S
C578 O557 1.260 . S
C579 Tb515 2.833 . S
C579 O554 1.251 . S
C579 O559 1.256 . S
C579 C572 1.500 . S
H580 C563 0.930 . S
H581 C564 0.931 . S
H582 C565 0.930 . S
H583 C566 0.930 . S
H584 C573 0.930 . S
H585 C575 0.931 . S
H586 C576 0.930 . S
H587 C577 0.930 . S
Tb588 N619 2.660 . S
Tb588 N626 2.600 . S
Tb588 O632 2.546 . S
Tb588 O633 2.610 . S
Tb588 O635 2.320 . S
Tb588 O636 2.552 . S
Tb588 O637 2.413 . S
Tb588 O639 2.362 . S
Tb588 O640 2.421 . S
Tb588 C652 2.833 . S
C589 C592 1.432 . S
C589 C593 1.414 . S
C589 N596 1.359 . S
C590 C592 1.417 . S
C590 C594 1.432 . S
C590 C602 1.410 . S
C591 C593 1.444 . S
C591 C594 1.317 . S
C591 H614 0.929 . S
C592 C589 1.432 . S
C592 C590 1.417 . S
C592 N600 1.360 . S
C593 C589 1.414 . S
C593 C591 1.444 . S
C593 C598 1.385 . S
C594 C590 1.432 . S
C594 C591 1.317 . S
C594 H606 0.930 . S
C595 C597 1.392 . S
C595 C598 1.370 . S
C595 H607 0.931 . S
N596 C589 1.359 . S
N596 C597 1.327 . S
N596 Tb599 2.600 . S
C597 C595 1.392 . S
C597 N596 1.327 . S
C597 H604 0.930 . S
C598 C593 1.385 . S
C598 C595 1.370 . S
C598 H617 0.946 . S
Tb599 N596 2.600 . S
Tb599 N600 2.660 . S
Tb599 O633 2.362 . S
Tb599 O634 2.421 . S
Tb599 O638 2.546 . S
Tb599 O639 2.610 . S
Tb599 O641 2.320 . S
Tb599 O642 2.552 . S
Tb599 O643 2.413 . S
Tb599 C663 2.833 . S
N600 C592 1.360 . S
N600 Tb599 2.660 . S
N600 C601 1.305 . S
C601 N600 1.305 . S
C601 C603 1.407 . S
C601 H608 0.930 . S
C602 C590 1.410 . S
C602 C603 1.345 . S
C602 H610 0.930 . S
C603 C601 1.407 . S
C603 C602 1.345 . S
C603 H605 0.930 . S
H604 C597 0.930 . S
H605 C603 0.930 . S
H606 C594 0.930 . S
H607 C595 0.931 . S
H608 C601 0.930 . S
H609 C623 0.930 . S
H610 C602 0.930 . S
H611 C629 0.930 . S
H612 C620 0.930 . S
H613 C627 0.931 . S
H614 C591 0.929 . S
H615 C621 0.930 . S
H616 C654 0.930 . S
H617 C598 0.946 . S
H618 C653 0.929 . S
N619 Tb588 2.660 . S
N619 C620 1.305 . S
N619 C624 1.360 . S
C620 H612 0.930 . S
C620 N619 1.305 . S
C620 C623 1.407 . S
C621 H615 0.930 . S
C621 C622 1.410 . S
C621 C623 1.345 . S
C622 C621 1.410 . S
C622 C624 1.417 . S
C622 C654 1.432 . S
C623 H609 0.930 . S
C623 C620 1.407 . S
C623 C621 1.345 . S
C624 N619 1.360 . S
C624 C622 1.417 . S
C624 C628 1.432 . S
H625 C630 0.930 . S
N626 Tb588 2.600 . S
N626 C628 1.359 . S
N626 C629 1.327 . S
C627 H613 0.931 . S
C627 C629 1.392 . S
C627 C630 1.370 . S
C628 C624 1.432 . S
C628 N626 1.359 . S
C628 C631 1.414 . S
C629 H611 0.930 . S
C629 N626 1.327 . S
C629 C627 1.392 . S
C630 H625 0.930 . S
C630 C627 1.370 . S
C630 C631 1.385 . S
C631 C628 1.414 . S
C631 C630 1.385 . S
C631 C653 1.444 . S
O632 Tb588 2.546 . S
O632 C652 1.251 . S
O633 Tb588 2.610 . S
O633 Tb599 2.362 . S
O633 C644 1.283 . S
O634 Tb599 2.421 . S
O634 C651 1.262 . S
O635 Tb588 2.320 . S
O635 C651 1.260 . S
O636 Tb588 2.552 . S
O636 C644 1.243 . S
O637 Tb588 2.413 . S
O637 C652 1.256 . S
O638 Tb599 2.546 . S
O638 C663 1.251 . S
O639 Tb588 2.362 . S
O639 Tb599 2.610 . S
O639 C655 1.283 . S
O640 Tb588 2.421 . S
O640 C662 1.262 . S
O641 Tb599 2.320 . S
O641 C662 1.260 . S
O642 Tb599 2.552 . S
O642 C655 1.243 . S
O643 Tb599 2.413 . S
O643 C663 1.256 . S
C644 O633 1.283 . S
C644 O636 1.243 . S
C645 C647 1.382 . S
C645 C649 1.393 . S
C645 C652 1.500 . S
C646 C647 1.400 . S
C646 C648 1.384 . S
C647 C645 1.382 . S
C647 C646 1.400 . S
C647 H664 0.930 . S
C648 C646 1.384 . S
C648 C650 1.392 . S
C648 H665 0.931 . S
C649 C645 1.393 . S
C649 C650 1.401 . S
C649 H666 0.930 . S
C650 C648 1.392 . S
C650 C649 1.401 . S
C650 H667 0.930 . S
C651 O634 1.262 . S
C651 O635 1.260 . S
C652 Tb588 2.833 . S
C652 O632 1.251 . S
C652 O637 1.256 . S
C652 C645 1.500 . S
C653 H618 0.929 . S
C653 C631 1.444 . S
C653 C654 1.317 . S
C654 H616 0.930 . S
C654 C622 1.432 . S
C654 C653 1.317 . S
C655 O639 1.283 . S
C655 O642 1.243 . S
C656 C657 1.382 . S
C656 C660 1.393 . S
C656 C663 1.500 . S
C657 C656 1.382 . S
C657 C658 1.400 . S
C657 H668 0.930 . S
C658 C657 1.400 . S
C658 C659 1.384 . S
C659 C658 1.384 . S
C659 C661 1.388 . S
C659 H669 0.931 . S
C660 C656 1.393 . S
C660 C661 1.417 . S
C660 H670 0.930 . S
C661 C659 1.388 . S
C661 C660 1.417 . S
C661 H671 0.918 1_565 S
C662 O640 1.262 . S
C662 O641 1.260 . S
C663 Tb599 2.833 . S
C663 O638 1.251 . S
C663 O643 1.256 . S
C663 C656 1.500 . S
H664 C647 0.930 . S
H665 C648 0.931 . S
H666 C649 0.930 . S
H667 C650 0.930 . S
H668 C657 0.930 . S
H669 C659 0.931 . S
H670 C660 0.930 . S
H671 C661 0.918 1_545 S
C672 O684 1.241 . S
C672 O685 1.280 . S
C673 O686 1.277 . S
C673 O687 1.245 . S
C674 O698 1.247 . S
C674 O700 1.289 . S
Mg675 O676 1.926 1_455 S
Mg675 O685 1.984 1_455 S
Mg675 O687 1.988 1_455 S
Mg675 O688 2.061 . S
O676 Mg675 1.926 1_655 S
O676 Mg677 1.986 1_545 S
O676 Mg678 1.908 1_655 S
Mg677 O676 1.986 1_565 S
Mg677 O684 2.042 1_565 S
Mg677 O686 2.041 1_565 S
Mg677 O692 2.038 . S
Mg677 O700 2.238 . S
Mg678 O676 1.908 1_455 S
Mg678 O679 1.925 1_545 S
Mg678 O689 2.112 . S
Mg678 O691 2.077 1_445 S
Mg678 O700 2.101 1_445 S
Mg678 O701 2.081 . S
O679 Mg678 1.925 1_565 S
O679 Mg680 1.926 1_455 S
O679 Mg681 1.986 1_565 S
Mg680 O679 1.926 1_655 S
Mg680 O694 1.984 1_655 S
Mg680 O697 1.988 1_655 S
Mg680 O698 2.061 . S
Mg681 O679 1.986 1_545 S
Mg681 O689 2.238 . S
Mg681 O693 2.042 1_545 S
Mg681 O695 2.041 1_545 S
Mg681 O702 2.038 . S
C682 O688 1.247 . S
C682 O689 1.289 . S
C683 O701 1.245 . S
C683 O702 1.274 . S
O684 C672 1.241 . S
O684 Mg677 2.042 1_545 S
O685 C672 1.280 . S
O685 Mg675 1.984 1_655 S
O686 C673 1.277 . S
O686 Mg677 2.041 1_545 S
O687 C673 1.245 . S
O687 Mg675 1.988 1_655 S
O688 Mg675 2.061 . S
O688 C682 1.247 . S
O689 Mg678 2.112 . S
O689 Mg681 2.238 . S
O689 C682 1.289 . S
C690 O691 1.245 . S
C690 O692 1.274 . S
O691 Mg678 2.077 1_665 S
O691 C690 1.245 . S
O692 Mg677 2.038 . S
O692 C690 1.274 . S
O693 Mg681 2.042 1_565 S
O693 C696 1.241 . S
O694 Mg680 1.984 1_455 S
O694 C696 1.280 . S
O695 Mg681 2.041 1_565 S
O695 C699 1.277 . S
C696 O693 1.241 . S
C696 O694 1.280 . S
O697 Mg680 1.988 1_455 S
O697 C699 1.245 . S
O698 C674 1.247 . S
O698 Mg680 2.061 . S
C699 O695 1.277 . S
C699 O697 1.245 . S
O700 C674 1.289 . S
O700 Mg677 2.238 . S
O700 Mg678 2.101 1_665 S
O701 Mg678 2.081 . S
O701 C683 1.245 . S
O702 Mg681 2.038 . S
O702 C683 1.274 . S
C703 O715 1.241 . S
C703 O716 1.280 . S
C704 O717 1.277 . S
C704 O718 1.245 . S
C705 O729 1.247 . S
C705 O731 1.289 . S
Mg706 O707 1.926 . S
Mg706 O716 1.984 . S
Mg706 O718 1.988 1_554 S
Mg706 O719 2.061 . S
O707 Mg706 1.926 . S
O707 Mg708 1.986 1_544 S
O707 Mg709 1.917 . S
Mg708 O707 1.986 1_566 S
Mg708 O715 2.042 1_566 S
Mg708 O717 2.041 1_565 S
Mg708 O723 2.038 1_556 S
Mg708 O731 2.238 . S
Mg709 O707 1.917 . S
Mg709 O710 1.917 1_544 S
Mg709 O720 2.106 . S
Mg709 O722 2.079 1_545 S
Mg709 O731 2.106 1_544 S
Mg709 O732 2.079 1_554 S
O710 Mg709 1.917 1_566 S
O710 Mg711 1.926 . S
O710 Mg712 1.986 1_566 S
Mg711 O710 1.926 . S
Mg711 O725 1.984 . S
Mg711 O728 1.988 1_556 S
Mg711 O729 2.061 . S
Mg712 O710 1.986 1_544 S
Mg712 O720 2.238 . S
Mg712 O724 2.042 1_544 S
Mg712 O726 2.041 1_545 S
Mg712 O733 2.038 1_554 S
C713 O719 1.247 . S
C713 O720 1.289 . S
C714 O732 1.245 . S
C714 O733 1.274 . S
O715 C703 1.241 . S
O715 Mg708 2.042 1_544 S
O716 C703 1.280 . S
O716 Mg706 1.984 . S
O717 C704 1.277 . S
O717 Mg708 2.041 1_545 S
O718 C704 1.245 . S
O718 Mg706 1.988 1_556 S
O719 Mg706 2.061 . S
O719 C713 1.247 . S
O720 Mg709 2.106 . S
O720 Mg712 2.238 . S
O720 C713 1.289 . S
C721 O722 1.245 . S
C721 O723 1.274 . S
O722 Mg709 2.079 1_565 S
O722 C721 1.245 . S
O723 Mg708 2.038 1_554 S
O723 C721 1.274 . S
O724 Mg712 2.042 1_566 S
O724 C727 1.241 . S
O725 Mg711 1.984 . S
O725 C727 1.280 . S
O726 Mg712 2.041 1_565 S
O726 C730 1.277 . S
C727 O724 1.241 . S
C727 O725 1.280 . S
O728 Mg711 1.988 1_554 S
O728 C730 1.245 . S
O729 C705 1.247 . S
O729 Mg711 2.061 . S
C730 O726 1.277 . S
C730 O728 1.245 . S
O731 C705 1.289 . S
O731 Mg708 2.238 . S
O731 Mg709 2.106 1_566 S
O732 Mg709 2.079 1_556 S
O732 C714 1.245 . S
O733 Mg712 2.038 1_556 S
O733 C714 1.274 . S
C734 O746 1.241 . S
C734 O747 1.280 . S
C735 O748 1.277 . S
C735 O749 1.245 . S
C736 O760 1.247 . S
C736 O762 1.289 . S
Mg737 O738 1.926 1_455 S
Mg737 O747 1.984 1_455 S
Mg737 O749 1.988 1_454 S
Mg737 O750 2.061 . S
O738 Mg737 1.926 1_655 S
O738 Mg739 1.986 1_554 S
O738 Mg740 1.909 1_655 S
Mg739 O738 1.986 1_556 S
Mg739 O746 2.042 1_556 S
Mg739 O748 2.041 . S
Mg739 O754 2.038 1_556 S
Mg739 O762 2.238 . S
Mg740 O738 1.909 1_455 S
Mg740 O741 1.925 1_554 S
Mg740 O751 2.112 . S
Mg740 O753 2.077 1_455 S
Mg740 O762 2.101 1_454 S
Mg740 O763 2.081 1_554 S
O741 Mg740 1.925 1_556 S
O741 Mg742 1.926 1_455 S
O741 Mg743 1.986 1_556 S
Mg742 O741 1.926 1_655 S
Mg742 O756 1.984 1_655 S
Mg742 O759 1.988 1_656 S
Mg742 O760 2.061 . S
Mg743 O741 1.986 1_554 S
Mg743 O751 2.238 . S
Mg743 O755 2.042 1_554 S
Mg743 O757 2.041 . S
Mg743 O764 2.038 1_554 S
C744 O750 1.247 . S
C744 O751 1.289 . S
C745 O763 1.245 . S
C745 O764 1.274 . S
O746 C734 1.241 . S
O746 Mg739 2.042 1_554 S
O747 C734 1.280 . S
O747 Mg737 1.984 1_655 S
O748 C735 1.277 . S
O748 Mg739 2.041 . S
O749 C735 1.245 . S
O749 Mg737 1.988 1_656 S
O750 Mg737 2.061 . S
O750 C744 1.247 . S
O751 Mg740 2.112 . S
O751 Mg743 2.238 . S
O751 C744 1.289 . S
C752 O753 1.245 . S
C752 O754 1.274 . S
O753 Mg740 2.077 1_655 S
O753 C752 1.245 . S
O754 Mg739 2.038 1_554 S
O754 C752 1.274 . S
O755 Mg743 2.042 1_556 S
O755 C758 1.241 . S
O756 Mg742 1.984 1_455 S
O756 C758 1.280 . S
O757 Mg743 2.041 . S
O757 C761 1.277 . S
C758 O755 1.241 . S
C758 O756 1.280 . S
O759 Mg742 1.988 1_454 S
O759 C761 1.245 . S
O760 C736 1.247 . S
O760 Mg742 2.061 . S
C761 O757 1.277 . S
C761 O759 1.245 . S
O762 C736 1.289 . S
O762 Mg739 2.238 . S
O762 Mg740 2.101 1_656 S
O763 Mg740 2.081 1_556 S
O763 C745 1.245 . S
O764 Mg743 2.038 1_556 S
O764 C745 1.274 . S
C765 O777 1.241 . S
C765 O778 1.280 . S
C766 O779 1.277 . S
C766 O780 1.245 . S
C767 O791 1.247 . S
C767 O793 1.289 . S
Mg768 O769 1.926 . S
Mg768 O778 1.984 . S
Mg768 O780 1.988 1_554 S
Mg768 O781 2.061 . S
O769 Mg768 1.926 . S
O769 Mg770 1.986 1_554 S
O769 Mg771 1.917 . S
Mg770 O769 1.986 1_556 S
Mg770 O777 2.042 1_556 S
Mg770 O779 2.041 . S
Mg770 O785 2.038 1_556 S
Mg770 O793 2.238 . S
Mg771 O769 1.917 . S
Mg771 O772 1.917 1_554 S
Mg771 O782 2.106 . S
Mg771 O784 2.079 . S
Mg771 O793 2.106 1_554 S
Mg771 O794 2.079 1_554 S
O772 Mg771 1.917 1_556 S
O772 Mg773 1.926 . S
O772 Mg774 1.986 1_556 S
Mg773 O772 1.926 . S
Mg773 O787 1.984 . S
Mg773 O790 1.988 1_556 S
Mg773 O791 2.061 . S
Mg774 O772 1.986 1_554 S
Mg774 O782 2.238 . S
Mg774 O786 2.042 1_554 S
Mg774 O788 2.041 . S
Mg774 O795 2.038 1_554 S
C775 O781 1.247 . S
C775 O782 1.289 . S
C776 O794 1.245 . S
C776 O795 1.274 . S
O777 C765 1.241 . S
O777 Mg770 2.042 1_554 S
O778 C765 1.280 . S
O778 Mg768 1.984 . S
O779 C766 1.277 . S
O779 Mg770 2.041 . S
O780 C766 1.245 . S
O780 Mg768 1.988 1_556 S
O781 Mg768 2.061 . S
O781 C775 1.247 . S
O782 Mg771 2.106 . S
O782 Mg774 2.238 . S
O782 C775 1.289 . S
C783 O784 1.245 . S
C783 O785 1.274 . S
O784 Mg771 2.079 . S
O784 C783 1.245 . S
O785 Mg770 2.038 1_554 S
O785 C783 1.274 . S
O786 Mg774 2.042 1_556 S
O786 C789 1.241 . S
O787 Mg773 1.984 . S
O787 C789 1.280 . S
O788 Mg774 2.041 . S
O788 C792 1.277 . S
C789 O786 1.241 . S
C789 O787 1.280 . S
O790 Mg773 1.988 1_554 S
O790 C792 1.245 . S
O791 C767 1.247 . S
O791 Mg773 2.061 . S
C792 O788 1.277 . S
C792 O790 1.245 . S
O793 C767 1.289 . S
O793 Mg770 2.238 . S
O793 Mg771 2.106 1_556 S
O794 Mg771 2.079 1_556 S
O794 C776 1.245 . S
O795 Mg774 2.038 1_556 S
O795 C776 1.274 . S
C796 O808 1.241 . S
C796 O809 1.280 . S
C797 O810 1.277 . S
C797 O811 1.245 . S
C798 O822 1.247 . S
C798 O824 1.289 . S
Mg799 O800 1.926 1_455 S
Mg799 O809 1.984 1_455 S
Mg799 O811 1.988 1_455 S
Mg799 O812 2.061 . S
O800 Mg799 1.926 1_655 S
O800 Mg801 1.986 . S
O800 Mg802 1.909 1_655 S
Mg801 O800 1.986 . S
Mg801 O808 2.042 . S
Mg801 O810 2.041 . S
Mg801 O816 2.038 . S
Mg801 O824 2.238 . S
Mg802 O800 1.909 1_455 S
Mg802 O803 1.925 . S
Mg802 O813 2.112 . S
Mg802 O815 2.077 1_455 S
Mg802 O824 2.101 1_455 S
Mg802 O825 2.081 . S
O803 Mg802 1.925 . S
O803 Mg804 1.926 1_455 S
O803 Mg805 1.986 . S
Mg804 O803 1.926 1_655 S
Mg804 O818 1.984 1_655 S
Mg804 O821 1.988 1_655 S
Mg804 O822 2.061 . S
Mg805 O803 1.986 . S
Mg805 O813 2.238 . S
Mg805 O817 2.042 . S
Mg805 O819 2.041 . S
Mg805 O826 2.038 . S
C806 O812 1.247 . S
C806 O813 1.289 . S
C807 O825 1.245 . S
C807 O826 1.274 . S
O808 C796 1.241 . S
O808 Mg801 2.042 . S
O809 C796 1.280 . S
O809 Mg799 1.984 1_655 S
O810 C797 1.277 . S
O810 Mg801 2.041 . S
O811 C797 1.245 . S
O811 Mg799 1.988 1_655 S
O812 Mg799 2.061 . S
O812 C806 1.247 . S
O813 Mg802 2.112 . S
O813 Mg805 2.238 . S
O813 C806 1.289 . S
C814 O815 1.245 . S
C814 O816 1.274 . S
O815 Mg802 2.077 1_655 S
O815 C814 1.245 . S
O816 Mg801 2.038 . S
O816 C814 1.274 . S
O817 Mg805 2.042 . S
O817 C820 1.241 . S
O818 Mg804 1.984 1_455 S
O818 C820 1.280 . S
O819 Mg805 2.041 . S
O819 C823 1.277 . S
C820 O817 1.241 . S
C820 O818 1.280 . S
O821 Mg804 1.988 1_455 S
O821 C823 1.245 . S
O822 C798 1.247 . S
O822 Mg804 2.061 . S
C823 O819 1.277 . S
C823 O821 1.245 . S
O824 C798 1.289 . S
O824 Mg801 2.238 . S
O824 Mg802 2.101 1_655 S
O825 Mg802 2.081 . S
O825 C807 1.245 . S
O826 Mg805 2.038 . S
O826 C807 1.274 . S
C827 O839 1.241 . S
C827 O840 1.280 . S
C828 O841 1.277 . S
C828 O842 1.245 . S
C829 O853 1.247 . S
C829 O855 1.289 . S
Mg830 O831 1.926 . S
Mg830 O840 1.984 . S
Mg830 O842 1.988 . S
Mg830 O843 2.061 . S
O831 Mg830 1.926 . S
O831 Mg832 1.986 1_545 S
O831 Mg833 1.917 . S
Mg832 O831 1.986 1_565 S
Mg832 O839 2.042 1_565 S
Mg832 O841 2.041 1_565 S
Mg832 O847 2.038 . S
Mg832 O855 2.238 . S
Mg833 O831 1.917 . S
Mg833 O834 1.917 1_545 S
Mg833 O844 2.106 . S
Mg833 O846 2.079 1_545 S
Mg833 O855 2.106 1_545 S
Mg833 O856 2.079 . S
O834 Mg833 1.917 1_565 S
O834 Mg835 1.926 . S
O834 Mg836 1.986 1_565 S
Mg835 O834 1.926 . S
Mg835 O849 1.984 . S
Mg835 O852 1.988 . S
Mg835 O853 2.061 . S
Mg836 O834 1.986 1_545 S
Mg836 O844 2.238 . S
Mg836 O848 2.042 1_545 S
Mg836 O850 2.041 1_545 S
Mg836 O857 2.038 . S
C837 O843 1.247 . S
C837 O844 1.289 . S
C838 O856 1.245 . S
C838 O857 1.274 . S
O839 C827 1.241 . S
O839 Mg832 2.042 1_545 S
O840 C827 1.280 . S
O840 Mg830 1.984 . S
O841 C828 1.277 . S
O841 Mg832 2.041 1_545 S
O842 C828 1.245 . S
O842 Mg830 1.988 . S
O843 Mg830 2.061 . S
O843 C837 1.247 . S
O844 Mg833 2.106 . S
O844 Mg836 2.238 . S
O844 C837 1.289 . S
C845 O846 1.245 . S
C845 O847 1.274 . S
O846 Mg833 2.079 1_565 S
O846 C845 1.245 . S
O847 Mg832 2.038 . S
O847 C845 1.274 . S
O848 Mg836 2.042 1_565 S
O848 C851 1.241 . S
O849 Mg835 1.984 . S
O849 C851 1.280 . S
O850 Mg836 2.041 1_565 S
O850 C854 1.277 . S
C851 O848 1.241 . S
C851 O849 1.280 . S
O852 Mg835 1.988 . S
O852 C854 1.245 . S
O853 C829 1.247 . S
O853 Mg835 2.061 . S
C854 O850 1.277 . S
C854 O852 1.245 . S
O855 C829 1.289 . S
O855 Mg832 2.238 . S
O855 Mg833 2.106 1_565 S
O856 Mg833 2.079 . S
O856 C838 1.245 . S
O857 Mg836 2.038 . S
O857 C838 1.274 . S
C858 C859 1.387 . S
C858 H862 0.950 . S
C858 C867 1.390 . S
C859 C858 1.387 . S
C859 C861 1.387 . S
H860 C867 0.950 . S
C861 C859 1.387 . S
C861 C863 1.390 . S
C861 H865 0.950 . S
H862 C858 0.950 . S
C863 C861 1.390 . S
C863 C864 1.387 . S
C863 H866 0.950 . S
C864 C863 1.387 . S
C864 C867 1.387 . S
H865 C861 0.950 . S
H866 C863 0.950 . S
C867 C858 1.390 . S
C867 H860 0.950 . S
C867 C864 1.387 . S
C868 C869 1.387 . S
C868 H872 0.950 . S
C868 C877 1.390 . S
C869 C868 1.387 . S
C869 C871 1.387 . S
H870 C877 0.950 . S
C871 C869 1.387 . S
C871 C873 1.390 . S
C871 H875 0.950 . S
H872 C868 0.950 . S
C873 C871 1.390 . S
C873 C874 1.387 . S
C873 H876 0.950 . S
C874 C873 1.387 . S
C874 C877 1.387 . S
H875 C871 0.950 . S
H876 C873 0.950 . S
C877 C868 1.390 . S
C877 H870 0.950 . S
C877 C874 1.387 . S
C878 C879 1.387 . S
C878 H882 0.950 . S
C878 C887 1.390 . S
C879 C878 1.387 . S
C879 C881 1.387 . S
H880 C887 0.950 . S
C881 C879 1.387 . S
C881 C883 1.390 . S
C881 H885 0.950 . S
H882 C878 0.950 . S
C883 C881 1.390 . S
C883 C884 1.387 . S
C883 H886 0.950 . S
C884 C883 1.387 . S
C884 C887 1.387 . S
H885 C881 0.950 . S
H886 C883 0.950 . S
C887 C878 1.390 . S
C887 H880 0.950 . S
C887 C884 1.387 . S
C888 C889 1.387 . S
C888 H892 0.950 . S
C888 C897 1.390 . S
C889 C888 1.387 . S
C889 C891 1.387 . S
H890 C897 0.950 . S
C891 C889 1.387 . S
C891 C893 1.390 . S
C891 H895 0.950 . S
H892 C888 0.950 . S
C893 C891 1.390 . S
C893 C894 1.387 . S
C893 H896 0.950 . S
C894 C893 1.387 . S
C894 C897 1.387 . S
H895 C891 0.950 . S
H896 C893 0.950 . S
C897 C888 1.390 . S
C897 H890 0.950 . S
C897 C894 1.387 . S
C898 C899 1.387 . S
C898 H902 0.950 . S
C898 C907 1.390 . S
C899 C898 1.387 . S
C899 C901 1.387 . S
H900 C907 0.950 . S
C901 C899 1.387 . S
C901 C903 1.390 . S
C901 H905 0.950 . S
H902 C898 0.950 . S
C903 C901 1.390 . S
C903 C904 1.387 . S
C903 H906 0.950 . S
C904 C903 1.387 . S
C904 C907 1.387 . S
H905 C901 0.950 . S
H906 C903 0.950 . S
C907 C898 1.390 . S
C907 H900 0.950 . S
C907 C904 1.387 . S
C908 C909 1.387 . S
C908 H912 0.950 . S
C908 C917 1.390 . S
C909 C908 1.387 . S
C909 C911 1.387 . S
H910 C917 0.950 . S
C911 C909 1.387 . S
C911 C913 1.390 . S
C911 H915 0.950 . S
H912 C908 0.950 . S
C913 C911 1.390 . S
C913 C914 1.387 . S
C913 H916 0.950 . S
C914 C913 1.387 . S
C914 C917 1.387 . S
H915 C911 0.950 . S
H916 C913 0.950 . S
C917 C908 1.390 . S
C917 H910 0.950 . S
C917 C914 1.387 . S
C918 C919 1.387 . S
C918 H922 0.950 . S
C918 C927 1.390 . S
C919 C918 1.387 . S
C919 C921 1.387 . S
H920 C927 0.950 . S
C921 C919 1.387 . S
C921 C923 1.390 . S
C921 H925 0.950 . S
H922 C918 0.950 . S
C923 C921 1.390 . S
C923 C924 1.387 . S
C923 H926 0.950 . S
C924 C923 1.387 . S
C924 C927 1.387 . S
H925 C921 0.950 . S
H926 C923 0.950 . S
C927 C918 1.390 . S
C927 H920 0.950 . S
C927 C924 1.387 . S
C928 C929 1.387 . S
C928 H932 0.950 . S
C928 C937 1.390 . S
C929 C928 1.387 . S
C929 C931 1.387 . S
H930 C937 0.950 . S
C931 C929 1.387 . S
C931 C933 1.390 . S
C931 H935 0.950 . S
H932 C928 0.950 . S
C933 C931 1.390 . S
C933 C934 1.387 . S
C933 H936 0.950 . S
C934 C933 1.387 . S
C934 C937 1.387 . S
H935 C931 0.950 . S
H936 C933 0.950 . S
C937 C928 1.390 . S
C937 H930 0.950 . S
C937 C934 1.387 . S
C938 C939 1.387 . S
C938 H942 0.950 . S
C938 C947 1.390 . S
C939 C938 1.387 . S
C939 C941 1.387 . S
H940 C947 0.950 1_565 S
C941 C939 1.387 . S
C941 C943 1.390 . S
C941 H945 0.950 . S
H942 C938 0.950 . S
C943 C941 1.390 . S
C943 C944 1.387 . S
C943 H946 0.950 . S
C944 C943 1.387 . S
C944 C947 1.387 . S
H945 C941 0.950 . S
H946 C943 0.950 . S
C947 C938 1.390 . S
C947 H940 0.950 1_545 S
C947 C944 1.387 . S
C948 C949 1.387 . S
C948 H952 0.950 . S
C948 C957 1.390 . S
C949 C948 1.387 . S
C949 C951 1.387 . S
H950 C957 0.950 . S
C951 C949 1.387 . S
C951 C953 1.390 . S
C951 H955 0.950 . S
H952 C948 0.950 . S
C953 C951 1.390 . S
C953 C954 1.387 . S
C953 H956 0.950 . S
C954 C953 1.387 . S
C954 C957 1.387 . S
H955 C951 0.950 . S
H956 C953 0.950 . S
C957 C948 1.390 . S
C957 H950 0.950 . S
C957 C954 1.387 . S
C958 C959 1.387 . S
C958 H962 0.950 . S
C958 C967 1.390 . S
C959 C958 1.387 . S
C959 C961 1.387 . S
H960 C967 0.950 . S
C961 C959 1.387 . S
C961 C963 1.390 . S
C961 H965 0.950 . S
H962 C958 0.950 . S
C963 C961 1.390 . S
C963 C964 1.387 . S
C963 H966 0.950 . S
C964 C963 1.387 . S
C964 C967 1.387 . S
H965 C961 0.950 . S
H966 C963 0.950 . S
C967 C958 1.390 . S
C967 H960 0.950 . S
C967 C964 1.387 . S
C968 C969 1.387 . S
C968 H972 0.950 . S
C968 C977 1.390 . S
C969 C968 1.387 . S
C969 C971 1.387 . S
H970 C977 0.950 . S
C971 C969 1.387 . S
C971 C973 1.390 . S
C971 H975 0.950 . S
H972 C968 0.950 . S
C973 C971 1.390 . S
C973 C974 1.387 . S
C973 H976 0.950 . S
C974 C973 1.387 . S
C974 C977 1.387 . S
H975 C971 0.950 . S
H976 C973 0.950 . S
C977 C968 1.390 . S
C977 H970 0.950 . S
C977 C974 1.387 . S
C978 C979 1.387 . S
C978 H982 0.950 . S
C978 C987 1.390 . S
C979 C978 1.387 . S
C979 C981 1.387 . S
H980 C987 0.950 . S
C981 C979 1.387 . S
C981 C983 1.390 . S
C981 H985 0.950 . S
H982 C978 0.950 . S
C983 C981 1.390 . S
C983 C984 1.387 . S
C983 H986 0.950 . S
C984 C983 1.387 . S
C984 C987 1.387 . S
H985 C981 0.950 . S
H986 C983 0.950 . S
C987 C978 1.390 . S
C987 H980 0.950 . S
C987 C984 1.387 . S
C988 C989 1.387 . S
C988 H992 0.950 . S
C988 C997 1.390 . S
C989 C988 1.387 . S
C989 C991 1.387 . S
H990 C997 0.950 . S
C991 C989 1.387 . S
C991 C993 1.390 . S
C991 H995 0.950 . S
H992 C988 0.950 . S
C993 C991 1.390 . S
C993 C994 1.387 . S
C993 H996 0.950 . S
C994 C993 1.387 . S
C994 C997 1.387 . S
H995 C991 0.950 . S
H996 C993 0.950 . S
C997 C988 1.390 . S
C997 H990 0.950 . S
C997 C994 1.387 . S
C998 C999 1.387 . S
C998 H1002 0.950 . S
C998 C1007 1.390 . S
C999 C998 1.387 . S
C999 C1001 1.387 . S
H1000 C1007 0.950 . S
C1001 C999 1.387 . S
C1001 C1003 1.390 . S
C1001 H1005 0.950 . S
H1002 C998 0.950 . S
C1003 C1001 1.390 . S
C1003 C1004 1.387 . S
C1003 H1006 0.950 . S
C1004 C1003 1.387 . S
C1004 C1007 1.387 . S
H1005 C1001 0.950 . S
H1006 C1003 0.950 . S
C1007 C998 1.390 . S
C1007 H1000 0.950 . S
C1007 C1004 1.387 . S
C1008 C1009 1.387 . S
C1008 H1012 0.950 . S
C1008 C1017 1.390 . S
C1009 C1008 1.387 . S
C1009 C1011 1.387 . S
H1010 C1017 0.950 . S
C1011 C1009 1.387 . S
C1011 C1013 1.390 . S
C1011 H1015 0.950 . S
H1012 C1008 0.950 . S
C1013 C1011 1.390 . S
C1013 C1014 1.387 . S
C1013 H1016 0.950 . S
C1014 C1013 1.387 . S
C1014 C1017 1.387 . S
H1015 C1011 0.950 . S
H1016 C1013 0.950 . S
C1017 C1008 1.390 . S
C1017 H1010 0.950 . S
C1017 C1014 1.387 . S
C1018 C1019 1.387 . S
C1018 H1022 0.950 . S
C1018 C1027 1.390 . S
C1019 C1018 1.387 . S
C1019 C1021 1.387 . S
H1020 C1027 0.950 . S
C1021 C1019 1.387 . S
C1021 C1023 1.390 . S
C1021 H1025 0.950 . S
H1022 C1018 0.950 . S
C1023 C1021 1.390 . S
C1023 C1024 1.387 . S
C1023 H1026 0.950 . S
C1024 C1023 1.387 . S
C1024 C1027 1.387 . S
H1025 C1021 0.950 . S
H1026 C1023 0.950 . S
C1027 C1018 1.390 . S
C1027 H1020 0.950 . S
C1027 C1024 1.387 . S
C1028 C1029 1.387 . S
C1028 H1032 0.950 . S
C1028 C1037 1.390 . S
C1029 C1028 1.387 . S
C1029 C1031 1.387 . S
H1030 C1037 0.950 . S
C1031 C1029 1.387 . S
C1031 C1033 1.390 . S
C1031 H1035 0.950 . S
H1032 C1028 0.950 . S
C1033 C1031 1.390 . S
C1033 C1034 1.387 . S
C1033 H1036 0.950 . S
C1034 C1033 1.387 . S
C1034 C1037 1.387 . S
H1035 C1031 0.950 . S
H1036 C1033 0.950 . S
C1037 C1028 1.390 . S
C1037 H1030 0.950 . S
C1037 C1034 1.387 . S
C1038 C1039 1.387 . S
C1038 H1042 0.950 . S
C1038 C1047 1.390 . S
C1039 C1038 1.387 . S
C1039 C1041 1.387 . S
H1040 C1047 0.950 . S
C1041 C1039 1.387 . S
C1041 C1043 1.390 . S
C1041 H1045 0.950 . S
H1042 C1038 0.950 . S
C1043 C1041 1.390 . S
C1043 C1044 1.387 . S
C1043 H1046 0.950 . S
C1044 C1043 1.387 . S
C1044 C1047 1.387 . S
H1045 C1041 0.950 . S
H1046 C1043 0.950 . S
C1047 C1038 1.390 . S
C1047 H1040 0.950 . S
C1047 C1044 1.387 . S
C1048 C1049 1.387 . S
C1048 H1052 0.950 . S
C1048 C1057 1.390 . S
C1049 C1048 1.387 . S
C1049 C1051 1.387 . S
H1050 C1057 0.950 . S
C1051 C1049 1.387 . S
C1051 C1053 1.390 . S
C1051 H1055 0.950 . S
H1052 C1048 0.950 . S
C1053 C1051 1.390 . S
C1053 C1054 1.387 . S
C1053 H1056 0.950 . S
C1054 C1053 1.387 . S
C1054 C1057 1.387 . S
H1055 C1051 0.950 . S
H1056 C1053 0.950 . S
C1057 C1048 1.390 . S
C1057 H1050 0.950 . S
C1057 C1054 1.387 . S
C1058 C1059 1.387 . S
C1058 H1062 0.950 . S
C1058 C1067 1.390 . S
C1059 C1058 1.387 . S
C1059 C1061 1.387 . S
H1060 C1067 0.950 . S
C1061 C1059 1.387 . S
C1061 C1063 1.390 . S
C1061 H1065 0.950 . S
H1062 C1058 0.950 . S
C1063 C1061 1.390 . S
C1063 C1064 1.387 . S
C1063 H1066 0.950 . S
C1064 C1063 1.387 . S
C1064 C1067 1.387 . S
H1065 C1061 0.950 . S
H1066 C1063 0.950 . S
C1067 C1058 1.390 . S
C1067 H1060 0.950 . S
C1067 C1064 1.387 . S
C1068 C1069 1.387 . S
C1068 H1072 0.950 . S
C1068 C1077 1.390 . S
C1069 C1068 1.387 . S
C1069 C1071 1.387 . S
H1070 C1077 0.950 . S
C1071 C1069 1.387 . S
C1071 C1073 1.390 . S
C1071 H1075 0.950 . S
H1072 C1068 0.950 . S
C1073 C1071 1.390 . S
C1073 C1074 1.387 . S
C1073 H1076 0.950 . S
C1074 C1073 1.387 . S
C1074 C1077 1.387 . S
H1075 C1071 0.950 . S
H1076 C1073 0.950 . S
C1077 C1068 1.390 . S
C1077 H1070 0.950 . S
C1077 C1074 1.387 . S
C1078 C1079 1.387 . S
C1078 H1082 0.950 . S
C1078 C1087 1.390 . S
C1079 C1078 1.387 . S
C1079 C1081 1.387 . S
H1080 C1087 0.950 . S
C1081 C1079 1.387 . S
C1081 C1083 1.390 . S
C1081 H1085 0.950 . S
H1082 C1078 0.950 . S
C1083 C1081 1.390 . S
C1083 C1084 1.387 . S
C1083 H1086 0.950 . S
C1084 C1083 1.387 . S
C1084 C1087 1.387 . S
H1085 C1081 0.950 . S
H1086 C1083 0.950 . S
C1087 C1078 1.390 . S
C1087 H1080 0.950 . S
C1087 C1084 1.387 . S
C1088 C1089 1.387 . S
C1088 H1092 0.950 . S
C1088 C1097 1.390 . S
C1089 C1088 1.387 . S
C1089 C1091 1.387 . S
H1090 C1097 0.950 . S
C1091 C1089 1.387 . S
C1091 C1093 1.390 . S
C1091 H1095 0.950 . S
H1092 C1088 0.950 . S
C1093 C1091 1.390 . S
C1093 C1094 1.387 . S
C1093 H1096 0.950 . S
C1094 C1093 1.387 . S
C1094 C1097 1.387 . S
H1095 C1091 0.950 . S
H1096 C1093 0.950 . S
C1097 C1088 1.390 . S
C1097 H1090 0.950 . S
C1097 C1094 1.387 . S
C1098 C1099 1.387 . S
C1098 H1102 0.950 . S
C1098 C1107 1.390 . S
C1099 C1098 1.387 . S
C1099 C1101 1.387 . S
H1100 C1107 0.950 . S
C1101 C1099 1.387 . S
C1101 C1103 1.390 . S
C1101 H1105 0.950 . S
H1102 C1098 0.950 . S
C1103 C1101 1.390 . S
C1103 C1104 1.387 . S
C1103 H1106 0.950 . S
C1104 C1103 1.387 . S
C1104 C1107 1.387 . S
H1105 C1101 0.950 . S
H1106 C1103 0.950 . S
C1107 C1098 1.390 . S
C1107 H1100 0.950 . S
C1107 C1104 1.387 . S
C1108 C1109 1.387 . S
C1108 H1112 0.950 . S
C1108 C1117 1.390 . S
C1109 C1108 1.387 . S
C1109 C1111 1.387 . S
H1110 C1117 0.950 . S
C1111 C1109 1.387 . S
C1111 C1113 1.390 . S
C1111 H1115 0.950 . S
H1112 C1108 0.950 . S
C1113 C1111 1.390 . S
C1113 C1114 1.387 . S
C1113 H1116 0.950 . S
C1114 C1113 1.387 . S
C1114 C1117 1.387 . S
H1115 C1111 0.950 . S
H1116 C1113 0.950 . S
C1117 C1108 1.390 . S
C1117 H1110 0.950 . S
C1117 C1114 1.387 . S
C1118 C1119 1.387 . S
C1118 H1122 0.950 . S
C1118 C1127 1.390 . S
C1119 C1118 1.387 . S
C1119 C1121 1.387 . S
H1120 C1127 0.950 . S
C1121 C1119 1.387 . S
C1121 C1123 1.390 . S
C1121 H1125 0.950 . S
H1122 C1118 0.950 . S
C1123 C1121 1.390 . S
C1123 C1124 1.387 . S
C1123 H1126 0.950 . S
C1124 C1123 1.387 . S
C1124 C1127 1.387 . S
H1125 C1121 0.950 . S
H1126 C1123 0.950 . S
C1127 C1118 1.390 . S
C1127 H1120 0.950 . S
C1127 C1124 1.387 . S
C1128 C1129 1.387 . S
C1128 H1132 0.950 . S
C1128 C1137 1.390 . S
C1129 C1128 1.387 . S
C1129 C1131 1.387 . S
H1130 C1137 0.950 . S
C1131 C1129 1.387 . S
C1131 C1133 1.390 . S
C1131 H1135 0.950 . S
H1132 C1128 0.950 . S
C1133 C1131 1.390 . S
C1133 C1134 1.387 . S
C1133 H1136 0.950 . S
C1134 C1133 1.387 . S
C1134 C1137 1.387 . S
H1135 C1131 0.950 . S
H1136 C1133 0.950 . S
C1137 C1128 1.390 . S
C1137 H1130 0.950 . S
C1137 C1134 1.387 . S
C1138 C1139 1.387 . S
C1138 H1142 0.950 . S
C1138 C1147 1.390 . S
C1139 C1138 1.387 . S
C1139 C1141 1.387 . S
H1140 C1147 0.950 . S
C1141 C1139 1.387 . S
C1141 C1143 1.390 . S
C1141 H1145 0.950 . S
H1142 C1138 0.950 . S
C1143 C1141 1.390 . S
C1143 C1144 1.387 . S
C1143 H1146 0.950 . S
C1144 C1143 1.387 . S
C1144 C1147 1.387 . S
H1145 C1141 0.950 . S
H1146 C1143 0.950 . S
C1147 C1138 1.390 . S
C1147 H1140 0.950 . S
C1147 C1144 1.387 . S
C1148 C1149 1.387 . S
C1148 H1152 0.950 . S
C1148 C1157 1.390 . S
C1149 C1148 1.387 . S
C1149 C1151 1.387 . S
H1150 C1157 0.950 . S
C1151 C1149 1.387 . S
C1151 C1153 1.390 . S
C1151 H1155 0.950 . S
H1152 C1148 0.950 . S
C1153 C1151 1.390 . S
C1153 C1154 1.387 . S
C1153 H1156 0.950 . S
C1154 C1153 1.387 . S
C1154 C1157 1.387 . S
H1155 C1151 0.950 . S
H1156 C1153 0.950 . S
C1157 C1148 1.390 . S
C1157 H1150 0.950 . S
C1157 C1154 1.387 . S
C1158 C1159 1.387 . S
C1158 H1162 0.950 . S
C1158 C1167 1.390 . S
C1159 C1158 1.387 . S
C1159 C1161 1.387 . S
H1160 C1167 0.950 . S
C1161 C1159 1.387 . S
C1161 C1163 1.390 . S
C1161 H1165 0.950 . S
H1162 C1158 0.950 . S
C1163 C1161 1.390 . S
C1163 C1164 1.387 . S
C1163 H1166 0.950 . S
C1164 C1163 1.387 . S
C1164 C1167 1.387 . S
H1165 C1161 0.950 . S
H1166 C1163 0.950 . S
C1167 C1158 1.390 . S
C1167 H1160 0.950 . S
C1167 C1164 1.387 . S
C1168 C1169 1.387 . S
C1168 H1172 0.950 . S
C1168 C1177 1.390 . S
C1169 C1168 1.387 . S
C1169 C1171 1.387 . S
H1170 C1177 0.950 . S
C1171 C1169 1.387 . S
C1171 C1173 1.390 . S
C1171 H1175 0.950 . S
H1172 C1168 0.950 . S
C1173 C1171 1.390 . S
C1173 C1174 1.387 . S
C1173 H1176 0.950 . S
C1174 C1173 1.387 . S
C1174 C1177 1.387 . S
H1175 C1171 0.950 . S
H1176 C1173 0.950 . S
C1177 C1168 1.390 . S
C1177 H1170 0.950 . S
C1177 C1174 1.387 . S
C1178 C1179 1.387 . S
C1178 H1182 0.950 . S
C1178 C1187 1.390 . S
C1179 C1178 1.387 . S
C1179 C1181 1.387 . S
H1180 C1187 0.950 . S
C1181 C1179 1.387 . S
C1181 C1183 1.390 . S
C1181 H1185 0.950 . S
H1182 C1178 0.950 . S
C1183 C1181 1.390 . S
C1183 C1184 1.387 . S
C1183 H1186 0.950 . S
C1184 C1183 1.387 . S
C1184 C1187 1.387 . S
H1185 C1181 0.950 . S
H1186 C1183 0.950 . S
C1187 C1178 1.390 . S
C1187 H1180 0.950 . S
C1187 C1184 1.387 . S
C1188 C1189 1.387 . S
C1188 H1192 0.950 . S
C1188 C1197 1.390 . S
C1189 C1188 1.387 . S
C1189 C1191 1.387 . S
H1190 C1197 0.950 . S
C1191 C1189 1.387 . S
C1191 C1193 1.390 . S
C1191 H1195 0.950 . S
H1192 C1188 0.950 . S
C1193 C1191 1.390 . S
C1193 C1194 1.387 . S
C1193 H1196 0.950 . S
C1194 C1193 1.387 . S
C1194 C1197 1.387 . S
H1195 C1191 0.950 . S
H1196 C1193 0.950 . S
C1197 C1188 1.390 . S
C1197 H1190 0.950 . S
C1197 C1194 1.387 . S
C1198 C1199 1.387 . S
C1198 H1202 0.950 . S
C1198 C1207 1.390 . S
C1199 C1198 1.387 . S
C1199 C1201 1.387 . S
H1200 C1207 0.950 . S
C1201 C1199 1.387 . S
C1201 C1203 1.390 . S
C1201 H1205 0.950 . S
H1202 C1198 0.950 . S
C1203 C1201 1.390 . S
C1203 C1204 1.387 . S
C1203 H1206 0.950 . S
C1204 C1203 1.387 . S
C1204 C1207 1.387 . S
H1205 C1201 0.950 . S
H1206 C1203 0.950 . S
C1207 C1198 1.390 . S
C1207 H1200 0.950 . S
C1207 C1204 1.387 . S
C1208 C1209 1.387 . S
C1208 H1212 0.950 . S
C1208 C1217 1.390 . S
C1209 C1208 1.387 . S
C1209 C1211 1.387 . S
H1210 C1217 0.950 . S
C1211 C1209 1.387 . S
C1211 C1213 1.390 . S
C1211 H1215 0.950 . S
H1212 C1208 0.950 . S
C1213 C1211 1.390 . S
C1213 C1214 1.387 . S
C1213 H1216 0.950 . S
C1214 C1213 1.387 . S
C1214 C1217 1.387 . S
H1215 C1211 0.950 . S
H1216 C1213 0.950 . S
C1217 C1208 1.390 . S
C1217 H1210 0.950 . S
C1217 C1214 1.387 . S
C1218 C1219 1.387 . S
C1218 H1222 0.950 . S
C1218 C1227 1.390 . S
C1219 C1218 1.387 . S
C1219 C1221 1.387 . S
H1220 C1227 0.950 . S
C1221 C1219 1.387 . S
C1221 C1223 1.390 . S
C1221 H1225 0.950 . S
H1222 C1218 0.950 . S
C1223 C1221 1.390 . S
C1223 C1224 1.387 . S
C1223 H1226 0.950 . S
C1224 C1223 1.387 . S
C1224 C1227 1.387 . S
H1225 C1221 0.950 . S
H1226 C1223 0.950 . S
C1227 C1218 1.390 . S
C1227 H1220 0.950 . S
C1227 C1224 1.387 . S
C1228 C1229 1.387 . S
C1228 H1232 0.950 . S
C1228 C1237 1.390 . S
C1229 C1228 1.387 . S
C1229 C1231 1.387 . S
H1230 C1237 0.950 . S
C1231 C1229 1.387 . S
C1231 C1233 1.390 . S
C1231 H1235 0.950 . S
H1232 C1228 0.950 . S
C1233 C1231 1.390 . S
C1233 C1234 1.387 . S
C1233 H1236 0.950 . S
C1234 C1233 1.387 . S
C1234 C1237 1.387 . S
H1235 C1231 0.950 . S
H1236 C1233 0.950 . S
C1237 C1228 1.390 . S
C1237 H1230 0.950 . S
C1237 C1234 1.387 . S
C1238 C1239 1.387 . S
C1238 H1242 0.950 . S
C1238 C1247 1.390 . S
C1239 C1238 1.387 . S
C1239 C1241 1.387 . S
H1240 C1247 0.950 . S
C1241 C1239 1.387 . S
C1241 C1243 1.390 . S
C1241 H1245 0.950 . S
H1242 C1238 0.950 . S
C1243 C1241 1.390 . S
C1243 C1244 1.387 . S
C1243 H1246 0.950 . S
C1244 C1243 1.387 . S
C1244 C1247 1.387 . S
H1245 C1241 0.950 . S
H1246 C1243 0.950 . S
C1247 C1238 1.390 . S
C1247 H1240 0.950 . S
C1247 C1244 1.387 . S
C1248 C1249 1.387 . S
C1248 H1252 0.950 . S
C1248 C1257 1.390 . S
C1249 C1248 1.387 . S
C1249 C1251 1.387 . S
H1250 C1257 0.950 . S
C1251 C1249 1.387 . S
C1251 C1253 1.390 . S
C1251 H1255 0.950 . S
H1252 C1248 0.950 . S
C1253 C1251 1.390 . S
C1253 C1254 1.387 . S
C1253 H1256 0.950 . S
C1254 C1253 1.387 . S
C1254 C1257 1.387 . S
H1255 C1251 0.950 . S
H1256 C1253 0.950 . S
C1257 C1248 1.390 . S
C1257 H1250 0.950 . S
C1257 C1254 1.387 . S
C1258 C1259 1.387 . S
C1258 H1262 0.950 . S
C1258 C1267 1.390 . S
C1259 C1258 1.387 . S
C1259 C1261 1.387 . S
H1260 C1267 0.950 . S
C1261 C1259 1.387 . S
C1261 C1263 1.390 . S
C1261 H1265 0.950 . S
H1262 C1258 0.950 . S
C1263 C1261 1.390 . S
C1263 C1264 1.387 . S
C1263 H1266 0.950 . S
C1264 C1263 1.387 . S
C1264 C1267 1.387 . S
H1265 C1261 0.950 . S
H1266 C1263 0.950 . S
C1267 C1258 1.390 . S
C1267 H1260 0.950 . S
C1267 C1264 1.387 . S
C1268 C1269 1.387 . S
C1268 H1272 0.950 . S
C1268 C1277 1.390 . S
C1269 C1268 1.387 . S
C1269 C1271 1.387 . S
H1270 C1277 0.950 . S
C1271 C1269 1.387 . S
C1271 C1273 1.390 . S
C1271 H1275 0.950 . S
H1272 C1268 0.950 . S
C1273 C1271 1.390 . S
C1273 C1274 1.387 . S
C1273 H1276 0.950 . S
C1274 C1273 1.387 . S
C1274 C1277 1.387 . S
H1275 C1271 0.950 . S
H1276 C1273 0.950 . S
C1277 C1268 1.390 . S
C1277 H1270 0.950 . S
C1277 C1274 1.387 . S
C1278 C1279 1.387 . S
C1278 H1282 0.950 . S
C1278 C1287 1.390 . S
C1279 C1278 1.387 . S
C1279 C1281 1.387 . S
H1280 C1287 0.950 . S
C1281 C1279 1.387 . S
C1281 C1283 1.390 . S
C1281 H1285 0.950 . S
H1282 C1278 0.950 . S
C1283 C1281 1.390 . S
C1283 C1284 1.387 . S
C1283 H1286 0.950 . S
C1284 C1283 1.387 . S
C1284 C1287 1.387 . S
H1285 C1281 0.950 . S
H1286 C1283 0.950 . S
C1287 C1278 1.390 . S
C1287 H1280 0.950 . S
C1287 C1284 1.387 . S
C1288 C1289 1.387 . S
C1288 H1292 0.950 . S
C1288 C1297 1.390 . S
C1289 C1288 1.387 . S
C1289 C1291 1.387 . S
H1290 C1297 0.950 . S
C1291 C1289 1.387 . S
C1291 C1293 1.390 . S
C1291 H1295 0.950 . S
H1292 C1288 0.950 . S
C1293 C1291 1.390 . S
C1293 C1294 1.387 . S
C1293 H1296 0.950 . S
C1294 C1293 1.387 . S
C1294 C1297 1.387 . S
H1295 C1291 0.950 . S
H1296 C1293 0.950 . S
C1297 C1288 1.390 . S
C1297 H1290 0.950 . S
C1297 C1294 1.387 . S
C1298 C1299 1.387 . S
C1298 H1302 0.950 . S
C1298 C1307 1.390 . S
C1299 C1298 1.387 . S
C1299 C1301 1.387 . S
H1300 C1307 0.950 . S
C1301 C1299 1.387 . S
C1301 C1303 1.390 . S
C1301 H1305 0.950 . S
H1302 C1298 0.950 . S
C1303 C1301 1.390 . S
C1303 C1304 1.387 . S
C1303 H1306 0.950 . S
C1304 C1303 1.387 . S
C1304 C1307 1.387 . S
H1305 C1301 0.950 . S
H1306 C1303 0.950 . S
C1307 C1298 1.390 . S
C1307 H1300 0.950 . S
C1307 C1304 1.387 . S
C1308 C1309 1.387 . S
C1308 H1312 0.950 . S
C1308 C1317 1.390 . S
C1309 C1308 1.387 . S
C1309 C1311 1.387 . S
H1310 C1317 0.950 . S
C1311 C1309 1.387 . S
C1311 C1313 1.390 . S
C1311 H1315 0.950 . S
H1312 C1308 0.950 . S
C1313 C1311 1.390 . S
C1313 C1314 1.387 . S
C1313 H1316 0.950 . S
C1314 C1313 1.387 . S
C1314 C1317 1.387 . S
H1315 C1311 0.950 . S
H1316 C1313 0.950 . S
C1317 C1308 1.390 . S
C1317 H1310 0.950 . S
C1317 C1314 1.387 . S
C1318 C1319 1.387 . S
C1318 H1322 0.950 . S
C1318 C1327 1.390 . S
C1319 C1318 1.387 . S
C1319 C1321 1.387 . S
H1320 C1327 0.950 . S
C1321 C1319 1.387 . S
C1321 C1323 1.390 . S
C1321 H1325 0.950 . S
H1322 C1318 0.950 . S
C1323 C1321 1.390 . S
C1323 C1324 1.387 . S
C1323 H1326 0.950 . S
C1324 C1323 1.387 . S
C1324 C1327 1.387 . S
H1325 C1321 0.950 . S
H1326 C1323 0.950 . S
C1327 C1318 1.390 . S
C1327 H1320 0.950 . S
C1327 C1324 1.387 . S
C1328 C1329 1.387 . S
C1328 H1332 0.950 . S
C1328 C1337 1.390 . S
C1329 C1328 1.387 . S
C1329 C1331 1.387 . S
H1330 C1337 0.950 . S
C1331 C1329 1.387 . S
C1331 C1333 1.390 . S
C1331 H1335 0.950 . S
H1332 C1328 0.950 . S
C1333 C1331 1.390 . S
C1333 C1334 1.387 . S
C1333 H1336 0.950 . S
C1334 C1333 1.387 . S
C1334 C1337 1.387 . S
H1335 C1331 0.950 . S
H1336 C1333 0.950 . S
C1337 C1328 1.390 . S
C1337 H1330 0.950 . S
C1337 C1334 1.387 . S
C864 C683 1.655 . S
C859 C74 1.557 . S
C874 C673 0.810 . S
C869 C142 0.902 . S
C884 C674 1.409 . S
C879 C231 1.294 . S
C889 C322 1.273 . S
C894 C696 1.331 . S
C899 C406 0.906 . S
C904 C699 0.810 . S
C914 C682 1.410 . S
C909 C494 1.294 . S
C919 C562 1.278 . S
C924 C672 1.332 . S
C929 C651 1.557 . S
C934 C690 1.654 . S
C944 C703 1.377 . S
C939 C58 1.355 . S
C949 C151 1.694 . S
C954 C752 1.639 . S
C964 C730 2.625 . S
C959 C224 2.497 . S
C974 C744 1.243 . S
C969 C315 1.265 . S
C979 C399 1.265 . S
C984 C705 1.246 . S
C994 C758 1.405 . S
C989 C478 1.478 . S
C999 C571 1.586 . S
C1004 C714 1.621 . S
C1009 C644 2.492 . S
C1014 C735 2.582 . S
C1019 C67 2.494 . S
C1024 C761 2.581 . S
C1029 C392 1.694 . S
C1034 C745 1.636 . S
C1044 C704 2.626 . S
C1039 C487 2.499 . S
C1054 C736 1.243 . S
C1049 C578 1.266 . S
C1059 C658 1.356 . S
C1064 C727 1.379 . S
C1069 C238 1.478 . S
C1074 C734 1.405 . S
C1084 C721 1.622 . S
C1079 C308 1.588 . S
C1089 C158 1.265 . S
C1094 C713 1.249 . S
C1099 C662 1.557 . S
C1104 C776 1.654 . S
C1109 C394 0.899 . S
C1114 C766 0.806 . S
C1124 C767 1.410 . S
C1119 C483 1.293 . S
C1134 C789 1.332 . S
C1129 C574 1.277 . S
C1139 C154 0.907 . S
C1144 C792 0.811 . S
C1154 C775 1.409 . S
C1149 C242 1.294 . S
C1159 C310 1.274 . S
C1164 C765 1.332 . S
C1169 C63 1.557 . S
C1174 C783 1.655 . S
C1179 C646 1.353 . S
C1184 C796 1.380 . S
C1194 C845 1.636 . S
C1189 C403 1.695 . S
C1199 C476 2.499 . S
C1204 C823 2.626 . S
C1209 C567 1.267 . S
C1214 C837 1.244 . S
C1224 C798 1.248 . S
C1219 C147 1.264 . S
C1229 C226 1.479 . S
C1234 C851 1.405 . S
C1244 C807 1.624 . S
C1239 C319 1.590 . S
C1254 C828 2.581 . S
C1249 C56 2.494 . S
C1264 C854 2.581 . S
C1259 C655 2.494 . S
C1269 C140 1.695 . S
C1274 C838 1.638 . S
C1279 C235 2.496 . S
C1284 C797 2.624 . S
C1294 C829 1.246 . S
C1289 C326 1.265 . S
C1299 C70 1.356 . S
C1304 C820 1.378 . S
C1309 C490 1.476 . S
C1314 C827 1.407 . S
C1324 C814 1.624 . S
C1319 C560 1.590 . S
C1334 C806 1.249 . S
C1329 C410 1.265 . S
