# Generated by pormake.
# Topology ssa, (4,4)-cn, num edge types: 1
# Building blocks:
#     Node 0, Type 0, BuildingBlock: NAWXER_clean_sbu_0, # of connection points: 4
#     Node 1, Type 0, BuildingBlock: NAWXER_clean_sbu_0, # of connection points: 4
#     Node 2, Type 0, BuildingBlock: NAWXER_clean_sbu_0, # of connection points: 4
#     Node 3, Type 0, BuildingBlock: NAWXER_clean_sbu_0, # of connection points: 4
#     Node 4, Type 0, BuildingBlock: NAWXER_clean_sbu_0, # of connection points: 4
#     Node 5, Type 0, BuildingBlock: NAWXER_clean_sbu_0, # of connection points: 4
#     Node 6, Type 1, BuildingBlock: KOZSID_clean_sbu_0, # of connection points: 4
#     Node 7, Type 1, BuildingBlock: KOZSID_clean_sbu_0, # of connection points: 4
#     Node 8, Type 1, BuildingBlock: KOZSID_clean_sbu_0, # of connection points: 4
#     Node 9, Type 1, BuildingBlock: KOZSID_clean_sbu_0, # of connection points: 4
#     Node 10, Type 1, BuildingBlock: KOZSID_clean_sbu_0, # of connection points: 4
#     Node 11, Type 1, BuildingBlock: KOZSID_clean_sbu_0, # of connection points: 4
#     Edge 12, Type (0, 1), BuildingBlock: ZUJKAS_clean_linker_0, # of connection points: 2
#     Edge 13, Type (0, 1), BuildingBlock: ZUJKAS_clean_linker_0, # of connection points: 2
#     Edge 14, Type (0, 1), BuildingBlock: ZUJKAS_clean_linker_0, # of connection points: 2
#     Edge 15, Type (0, 1), BuildingBlock: ZUJKAS_clean_linker_0, # of connection points: 2
#     Edge 16, Type (0, 1), BuildingBlock: ZUJKAS_clean_linker_0, # of connection points: 2
#     Edge 17, Type (0, 1), BuildingBlock: ZUJKAS_clean_linker_0, # of connection points: 2
#     Edge 18, Type (0, 1), BuildingBlock: ZUJKAS_clean_linker_0, # of connection points: 2
#     Edge 19, Type (0, 1), BuildingBlock: ZUJKAS_clean_linker_0, # of connection points: 2
#     Edge 20, Type (0, 1), BuildingBlock: ZUJKAS_clean_linker_0, # of connection points: 2
#     Edge 21, Type (0, 1), BuildingBlock: ZUJKAS_clean_linker_0, # of connection points: 2
#     Edge 22, Type (0, 1), BuildingBlock: ZUJKAS_clean_linker_0, # of connection points: 2
#     Edge 23, Type (0, 1), BuildingBlock: ZUJKAS_clean_linker_0, # of connection points: 2
#     Edge 24, Type (0, 1), BuildingBlock: ZUJKAS_clean_linker_0, # of connection points: 2
#     Edge 25, Type (0, 1), BuildingBlock: ZUJKAS_clean_linker_0, # of connection points: 2
#     Edge 26, Type (0, 1), BuildingBlock: ZUJKAS_clean_linker_0, # of connection points: 2
#     Edge 27, Type (0, 1), BuildingBlock: ZUJKAS_clean_linker_0, # of connection points: 2
#     Edge 28, Type (0, 1), BuildingBlock: ZUJKAS_clean_linker_0, # of connection points: 2
#     Edge 29, Type (0, 1), BuildingBlock: ZUJKAS_clean_linker_0, # of connection points: 2
#     Edge 30, Type (0, 1), BuildingBlock: ZUJKAS_clean_linker_0, # of connection points: 2
#     Edge 31, Type (0, 1), BuildingBlock: ZUJKAS_clean_linker_0, # of connection points: 2
#     Edge 32, Type (0, 1), BuildingBlock: ZUJKAS_clean_linker_0, # of connection points: 2
#     Edge 33, Type (0, 1), BuildingBlock: ZUJKAS_clean_linker_0, # of connection points: 2
#     Edge 34, Type (0, 1), BuildingBlock: ZUJKAS_clean_linker_0, # of connection points: 2
#     Edge 35, Type (0, 1), BuildingBlock: ZUJKAS_clean_linker_0, # of connection points: 2
# Relax obj value: 0.018
# Max RMSD: 0.054
# Mean RMSD: 0.027
data_MOF--net-ssa--node1-NAWXER_clean_sbu_0--node2-KOZSID_clean_sbu_0--edge1-ZUJKAS_clean_linker_0
_symmetry_space_group_name_H-M    P1
_symmetry_Int_Tables_number       1
_symmetry_cell_setting            triclinic
loop_
_symmetry_equiv_pos_as_xyz
'x, y, z'
_cell_length_a     66.957588
_cell_length_b     66.932724
_cell_length_c     46.846108
_cell_angle_alpha  92.759041
_cell_angle_beta   92.775992
_cell_angle_gamma 120.02185
loop_
_atom_site_label
_atom_site_type_symbol
_atom_site_fract_x
_atom_site_fract_y
_atom_site_fract_z
_atom_type_partial_charge
C0 C 0.01121 0.54057 0.02893 0.0
C1 C 0.95914 0.46109 0.99048 0.0
O2 O 0.99324 0.52521 0.03942 0.0
Zn3 Zn 0.98484 0.50083 0.00978 0.0
O4 O 0.01715 0.53571 0.00512 0.0
Zn5 Zn 0.00498 0.50656 0.97414 0.0
O6 O 0.99764 0.51746 0.93973 0.0
O7 O 0.9743 0.51287 0.97358 0.0
O8 O 0.97561 0.47232 0.97449 0.0
O9 O 0.95787 0.47118 0.01342 0.0
O10 O 0.01255 0.49348 0.01524 0.0
O11 O 0.03073 0.50092 0.97568 0.0
C12 C 0.98045 0.51852 0.94835 0.0
C13 C 0.02871 0.49423 0.00087 0.0
C14 C 0.49738 0.03968 0.52064 0.0
C15 C 0.51929 0.99161 0.46276 0.0
O16 O 0.49409 0.02145 0.53233 0.0
Zn17 Zn 0.49844 0.99232 0.52331 0.0
O18 O 0.50549 0.04348 0.49623 0.0
Zn19 Zn 0.50856 0.01611 0.49081 0.0
O20 O 0.47351 0.98812 0.4855 0.0
O21 O 0.46731 0.96643 0.5218 0.0
O22 O 0.52084 0.01059 0.45639 0.0
O23 O 0.51145 0.98352 0.4866 0.0
O24 O 0.52044 0.99608 0.55428 0.0
O25 O 0.53526 0.02253 0.5231 0.0
C26 C 0.45995 0.9704 0.49845 0.0
C27 C 0.5377 0.01383 0.5459 0.0
C28 C 0.50652 0.47881 0.97798 0.0
C29 C 0.52683 0.55087 0.03455 0.0
O30 O 0.50115 0.49198 0.96463 0.0
Zn31 Zn 0.50396 0.52534 0.97198 0.0
O32 O 0.51655 0.48544 0.00321 0.0
Zn33 Zn 0.51764 0.51498 0.0065 0.0
O34 O 0.48146 0.50422 0.0062 0.0
O35 O 0.47211 0.51762 0.96863 0.0
O36 O 0.5313 0.53533 0.04157 0.0
O37 O 0.51683 0.54898 0.00973 0.0
O38 O 0.5237 0.54274 0.94296 0.0
O39 O 0.54163 0.53368 0.97612 0.0
C40 C 0.46636 0.50635 0.99077 0.0
C41 C 0.54192 0.54324 0.95298 0.0
C42 C 0.03273 0.52859 0.48995 0.0
C43 C 0.98707 0.45955 0.54122 0.0
O44 O 0.03761 0.52472 0.51491 0.0
Zn45 Zn 0.01059 0.49407 0.51593 0.0
O46 O 0.01416 0.51316 0.47537 0.0
Zn47 Zn 0.98567 0.47913 0.47998 0.0
O48 O 0.95965 0.48392 0.47643 0.0
O49 O 0.98259 0.50112 0.51606 0.0
O50 O 0.97796 0.45831 0.51597 0.0
O51 O 0.0064 0.47732 0.54993 0.0
O52 O 0.01688 0.47393 0.48461 0.0
O53 O 0.98888 0.46064 0.44973 0.0
C54 C 0.96442 0.49629 0.49996 0.0
C55 C 0.00748 0.46226 0.46042 0.0
C56 C 0.52415 0.99024 0.04961 0.0
C57 C 0.49189 0.03606 0.01357 0.0
O58 O 0.52651 0.00891 0.06137 0.0
Zn59 Zn 0.50765 0.01307 0.03256 0.0
O60 O 0.51168 0.98134 0.02579 0.0
Zn61 Zn 0.49119 0.98863 0.99612 0.0
O62 O 0.50722 0.9927 0.96126 0.0
O63 O 0.52764 0.02002 0.99604 0.0
O64 O 0.48583 0.01764 0.99729 0.0
O65 O 0.50447 0.04016 0.03676 0.0
O66 O 0.47368 0.98506 0.0383 0.0
O67 O 0.46014 0.96231 0.99816 0.0
C68 C 0.52573 0.01129 0.97039 0.0
C69 C 0.45746 0.96686 0.02389 0.0
C70 C 0.52968 0.50462 0.51344 0.0
C71 C 0.4563 0.48089 0.45781 0.0
O72 O 0.51578 0.5086 0.52727 0.0
Zn73 Zn 0.4816 0.50387 0.52058 0.0
O74 O 0.52352 0.49526 0.48787 0.0
Zn75 Zn 0.4931 0.49222 0.48529 0.0
O76 O 0.50152 0.52769 0.48665 0.0
O77 O 0.48758 0.53526 0.52486 0.0
O78 O 0.47308 0.47868 0.45009 0.0
O79 O 0.45751 0.48975 0.48318 0.0
O80 O 0.46557 0.48328 0.54948 0.0
O81 O 0.47591 0.46719 0.51544 0.0
C82 C 0.49852 0.54194 0.50259 0.0
C83 C 0.46644 0.46591 0.53895 0.0
C84 C 0.20336 0.47444 0.18743 0.0
C85 C 0.20583 0.49601 0.18371 0.0
C86 C 0.22359 0.51152 0.20271 0.0
C87 C 0.23085 0.49861 0.217 0.0
N88 N 0.21886 0.47575 0.20824 0.0
Co89 Co 0.22321 0.45069 0.22406 0.0
N90 N 0.25028 0.47378 0.25079 0.0
C91 C 0.25925 0.497 0.25372 0.0
C92 C 0.27829 0.50843 0.27305 0.0
C93 C 0.28201 0.49158 0.28272 0.0
C94 C 0.26497 0.47076 0.26858 0.0
N95 N 0.22725 0.42562 0.24046 0.0
C96 C 0.24389 0.42713 0.25968 0.0
C97 C 0.24055 0.40542 0.26465 0.0
C98 C 0.2212 0.38965 0.24791 0.0
C99 C 0.21387 0.40254 0.23367 0.0
N100 N 0.19663 0.42769 0.19667 0.0
C101 C 0.18781 0.4045 0.19364 0.0
C102 C 0.16993 0.39326 0.17267 0.0
C103 C 0.16716 0.41027 0.16154 0.0
C104 C 0.18352 0.43098 0.17653 0.0
N105 N 0.2448 0.4542 0.19476 0.0
C106 C 0.27632 0.4594 0.15406 0.0
C107 C 0.26021 0.43749 0.16185 0.0
C108 C 0.24464 0.43529 0.18191 0.0
C109 C 0.27608 0.47861 0.16672 0.0
C110 C 0.26044 0.47566 0.18698 0.0
N111 N 0.2014 0.44717 0.25336 0.0
C112 C 0.16575 0.42353 0.27522 0.0
C113 C 0.16798 0.44299 0.29067 0.0
C114 C 0.18772 0.46437 0.28817 0.0
C115 C 0.20409 0.46603 0.26969 0.0
C116 C 0.18256 0.42599 0.2569 0.0
H117 H 0.21858 0.48285 0.26876 0.0
H118 H 0.17964 0.41054 0.24548 0.0
H119 H 0.23279 0.41814 0.1869 0.0
H120 H 0.26141 0.49101 0.19616 0.0
C121 C 0.24954 0.5076 0.23779 0.0
C122 C 0.18586 0.45326 0.17087 0.0
C123 C 0.26379 0.4487 0.27242 0.0
C124 C 0.19615 0.39372 0.21153 0.0
H125 H 0.19583 0.50013 0.16879 0.0
H126 H 0.2305 0.53003 0.20562 0.0
H127 H 0.28844 0.52685 0.27911 0.0
H128 H 0.29586 0.49434 0.29822 0.0
H129 H 0.25134 0.4014 0.27829 0.0
H130 H 0.2139 0.37107 0.24552 0.0
H131 H 0.15999 0.37487 0.16636 0.0
H132 H 0.15449 0.40773 0.14438 0.0
H133 H 0.25984 0.42204 0.15301 0.0
H134 H 0.28789 0.49594 0.16109 0.0
H135 H 0.15077 0.40655 0.27653 0.0
H136 H 0.19052 0.47987 0.30034 0.0
C137 C 0.74098 0.20071 0.71033 0.0
C138 C 0.72412 0.20321 0.69521 0.0
C139 C 0.7243 0.22194 0.70838 0.0
C140 C 0.74114 0.22969 0.73067 0.0
N141 N 0.75217 0.21743 0.73208 0.0
Co142 Co 0.77613 0.22098 0.76246 0.0
N143 N 0.77387 0.24607 0.78462 0.0
C144 C 0.761 0.25564 0.77674 0.0
C145 C 0.76371 0.27316 0.79579 0.0
C146 C 0.77935 0.27504 0.81703 0.0
C147 C 0.78522 0.25836 0.80978 0.0
N148 N 0.79943 0.22386 0.79331 0.0
C149 C 0.80768 0.23763 0.81814 0.0
C150 C 0.82308 0.23353 0.83416 0.0
C151 C 0.82491 0.21683 0.81867 0.0
C152 C 0.81046 0.21157 0.7943 0.0
N153 N 0.77874 0.19629 0.73994 0.0
C154 C 0.79375 0.18878 0.74562 0.0
C155 C 0.79066 0.17099 0.72667 0.0
C156 C 0.77229 0.1666 0.70812 0.0
C157 C 0.76528 0.18204 0.71695 0.0
N158 N 0.80134 0.24506 0.74149 0.0
C159 C 0.83648 0.27887 0.71094 0.0
C160 C 0.8402 0.26325 0.72578 0.0
C161 C 0.82252 0.24656 0.74067 0.0
C162 C 0.81505 0.27748 0.71203 0.0
C163 C 0.79801 0.26076 0.72735 0.0
N164 N 0.751 0.19704 0.78308 0.0
C165 C 0.73356 0.16044 0.80454 0.0
C166 C 0.71373 0.16174 0.80913 0.0
C167 C 0.71317 0.18127 0.80092 0.0
C168 C 0.7318 0.19854 0.78814 0.0
C169 C 0.75186 0.17814 0.79156 0.0
H170 H 0.73021 0.21291 0.78232 0.0
H171 H 0.76643 0.17609 0.78826 0.0
H172 H 0.82645 0.23508 0.75123 0.0
H173 H 0.78233 0.26105 0.72736 0.0
C174 C 0.74597 0.24733 0.75177 0.0
C175 C 0.74459 0.18127 0.70463 0.0
C176 C 0.80221 0.25542 0.82695 0.0
C177 C 0.80769 0.19598 0.77141 0.0
H178 H 0.71243 0.19213 0.67717 0.0
H179 H 0.71288 0.22854 0.70306 0.0
H180 H 0.75532 0.28337 0.79438 0.0
H181 H 0.78582 0.28745 0.83562 0.0
H182 H 0.83228 0.24199 0.85475 0.0
H183 H 0.83573 0.20961 0.82431 0.0
H184 H 0.79971 0.16139 0.72736 0.0
H185 H 0.7643 0.15296 0.69087 0.0
H186 H 0.85653 0.26358 0.72551 0.0
H187 H 0.81145 0.28948 0.70134 0.0
H188 H 0.73482 0.14563 0.81043 0.0
H189 H 0.69845 0.18338 0.80456 0.0
C190 C 0.53861 0.74267 0.22945 0.0
C191 C 0.51675 0.7243 0.22 0.0
C192 C 0.50163 0.72477 0.23829 0.0
C193 C 0.51489 0.74355 0.25755 0.0
N194 N 0.53737 0.75521 0.25217 0.0
Co195 Co 0.56203 0.78396 0.27399 0.0
N196 N 0.53897 0.78966 0.292 0.0
C197 C 0.51662 0.77393 0.29427 0.0
C198 C 0.50498 0.78318 0.30783 0.0
C199 C 0.52106 0.80614 0.31444 0.0
C200 C 0.54163 0.80959 0.30437 0.0
N201 N 0.58649 0.81269 0.29598 0.0
C202 C 0.58515 0.83082 0.30778 0.0
C203 C 0.6066 0.84801 0.32022 0.0
C204 C 0.62172 0.8401 0.31628 0.0
C205 C 0.60876 0.81868 0.30155 0.0
N206 N 0.58524 0.77827 0.25615 0.0
C207 C 0.60768 0.78793 0.26591 0.0
C208 C 0.61946 0.77992 0.2504 0.0
C209 C 0.6034 0.76397 0.22985 0.0
C210 C 0.58257 0.76317 0.23388 0.0
N211 N 0.5621 0.80205 0.24261 0.0
C212 C 0.56199 0.83309 0.20499 0.0
C213 C 0.58286 0.83497 0.21547 0.0
C214 C 0.58253 0.8192 0.2342 0.0
C215 C 0.54118 0.81441 0.21218 0.0
C216 C 0.54162 0.79909 0.23092 0.0
N217 N 0.56189 0.76598 0.30567 0.0
C218 C 0.5597 0.73163 0.32237 0.0
C219 C 0.55945 0.73913 0.35071 0.0
C220 C 0.56085 0.76057 0.3561 0.0
C221 C 0.56215 0.77376 0.33331 0.0
C222 C 0.56092 0.74526 0.30025 0.0
H223 H 0.56304 0.79013 0.33803 0.0
H224 H 0.56066 0.73876 0.2787 0.0
H225 H 0.59882 0.82154 0.24291 0.0
H226 H 0.52534 0.78545 0.23693 0.0
C227 C 0.50636 0.75252 0.2782 0.0
C228 C 0.56025 0.74582 0.21871 0.0
C229 C 0.56363 0.83157 0.30825 0.0
C230 C 0.61755 0.80614 0.28759 0.0
H231 H 0.51222 0.7115 0.20215 0.0
H232 H 0.4831 0.71315 0.23719 0.0
H233 H 0.48674 0.7746 0.31115 0.0
H234 H 0.51797 0.81888 0.32526 0.0
H235 H 0.61098 0.86461 0.33071 0.0
H236 H 0.6402 0.84944 0.32202 0.0
H237 H 0.63761 0.78518 0.25347 0.0
H238 H 0.60658 0.75364 0.21428 0.0
H239 H 0.59934 0.84911 0.21037 0.0
H240 H 0.52464 0.81196 0.20397 0.0
H241 H 0.55825 0.715 0.31712 0.0
H242 H 0.56087 0.76708 0.37773 0.0
C243 C 0.75364 0.5711 0.69247 0.0
C244 C 0.75705 0.59135 0.6814 0.0
C245 C 0.77718 0.60896 0.69488 0.0
C246 C 0.78491 0.59852 0.71331 0.0
N247 N 0.771 0.57526 0.71233 0.0
Co248 Co 0.77549 0.55336 0.73599 0.0
N249 N 0.80553 0.57919 0.75511 0.0
C250 C 0.81565 0.60195 0.75079 0.0
C251 C 0.83673 0.61537 0.766 0.0
C252 C 0.84052 0.60025 0.78059 0.0
C253 C 0.82145 0.5784 0.77336 0.0
N254 N 0.7798 0.5315 0.75998 0.0
C255 C 0.79792 0.53537 0.77829 0.0
C256 C 0.79415 0.51523 0.79005 0.0
C257 C 0.77299 0.49798 0.77859 0.0
C258 C 0.76509 0.50848 0.76054 0.0
N259 N 0.74575 0.52739 0.71643 0.0
C260 C 0.73555 0.50467 0.72108 0.0
C261 C 0.71529 0.49092 0.70441 0.0
C262 C 0.71232 0.50569 0.68807 0.0
C263 C 0.73106 0.52771 0.69573 0.0
N264 N 0.79268 0.5485 0.70582 0.0
C265 C 0.81705 0.54156 0.66294 0.0
C266 C 0.80092 0.52302 0.67701 0.0
C267 C 0.78898 0.52683 0.69816 0.0
C268 C 0.82072 0.56363 0.67057 0.0
C269 C 0.80851 0.56671 0.69199 0.0
N270 N 0.75807 0.55826 0.76609 0.0
C271 C 0.72543 0.54268 0.79502 0.0
C272 C 0.72951 0.56485 0.80307 0.0
C273 C 0.74886 0.58374 0.79351 0.0
C274 C 0.76287 0.58008 0.77535 0.0
C275 C 0.73987 0.53983 0.77686 0.0
H276 H 0.77718 0.59519 0.7687 0.0
H277 H 0.73553 0.52248 0.77131 0.0
H278 H 0.77686 0.512 0.70804 0.0
H279 H 0.81227 0.58397 0.69713 0.0
C280 C 0.80539 0.61001 0.73131 0.0
C281 C 0.73369 0.5484 0.68334 0.0
C282 C 0.8195 0.55742 0.78391 0.0
C283 C 0.74504 0.49685 0.74187 0.0
H284 H 0.74612 0.59317 0.6652 0.0
H285 H 0.78526 0.62719 0.69157 0.0
H286 H 0.84821 0.63386 0.76598 0.0
H287 H 0.85574 0.6047 0.79462 0.0
H288 H 0.80575 0.51305 0.80476 0.0
H289 H 0.76475 0.47978 0.78216 0.0
H290 H 0.70391 0.4724 0.70438 0.0
H291 H 0.69783 0.5008 0.67251 0.0
H292 H 0.79736 0.50556 0.67159 0.0
H293 H 0.8333 0.57856 0.66047 0.0
H294 H 0.71064 0.52744 0.80179 0.0
H295 H 0.75308 0.6013 0.79976 0.0
C296 C 0.25054 0.81102 0.30173 0.0
C297 C 0.24851 0.82846 0.31622 0.0
C298 C 0.22706 0.82492 0.30777 0.0
C299 C 0.2172 0.8056 0.28875 0.0
N300 N 0.23114 0.7968 0.28453 0.0
Co301 Co 0.22348 0.76874 0.25937 0.0
N302 N 0.19726 0.76939 0.23855 0.0
C303 C 0.18728 0.78157 0.24727 0.0
C304 C 0.16965 0.77884 0.22835 0.0
C305 C 0.16816 0.76373 0.20651 0.0
C306 C 0.18493 0.75793 0.21351 0.0
N307 N 0.21578 0.74061 0.23423 0.0
C308 C 0.20171 0.73138 0.20969 0.0
C309 C 0.20084 0.71107 0.19949 0.0
C310 C 0.21455 0.70735 0.21853 0.0
C311 C 0.22301 0.72548 0.23922 0.0
N312 N 0.24962 0.76806 0.28038 0.0
C313 C 0.25312 0.74992 0.28046 0.0
C314 C 0.27282 0.75468 0.29673 0.0
C315 C 0.28221 0.77715 0.30782 0.0
C316 C 0.26752 0.78478 0.2978 0.0
N317 N 0.20263 0.74911 0.28697 0.0
C318 C 0.17484 0.71845 0.32607 0.0
C319 C 0.19594 0.7384 0.33545 0.0
C320 C 0.20952 0.75341 0.31566 0.0
C321 C 0.16761 0.71474 0.29672 0.0
C322 C 0.18163 0.73028 0.27765 0.0
N323 N 0.24449 0.78823 0.23185 0.0
C324 C 0.27553 0.79661 0.20185 0.0
C325 C 0.27564 0.81648 0.19351 0.0
C326 C 0.25954 0.82173 0.20457 0.0
C327 C 0.2442 0.80745 0.22374 0.0
C328 C 0.25988 0.78277 0.22088 0.0
H329 H 0.23225 0.81209 0.23218 0.0
H330 H 0.26034 0.76766 0.2268 0.0
H331 H 0.22586 0.76826 0.3236 0.0
H332 H 0.17568 0.72664 0.25525 0.0
C333 C 0.19676 0.79753 0.27129 0.0
C334 C 0.27012 0.80728 0.30693 0.0
C335 C 0.18643 0.73931 0.19779 0.0
C336 C 0.23983 0.73031 0.26149 0.0
H337 H 0.26109 0.84215 0.33157 0.0
H338 H 0.21982 0.83559 0.31407 0.0
H339 H 0.15941 0.78719 0.22993 0.0
H340 H 0.15573 0.75721 0.18791 0.0
H341 H 0.19082 0.69972 0.1807 0.0
H342 H 0.21815 0.69329 0.2172 0.0
H343 H 0.27998 0.74347 0.29936 0.0
H344 H 0.29798 0.78673 0.3218 0.0
H345 H 0.20209 0.74238 0.35795 0.0
H346 H 0.15158 0.69954 0.28824 0.0
H347 H 0.28737 0.79161 0.19356 0.0
H348 H 0.25908 0.83701 0.19894 0.0
C349 C 0.44423 0.25303 0.80338 0.0
C350 C 0.42312 0.24822 0.81299 0.0
C351 C 0.4066 0.22844 0.79758 0.0
C352 C 0.41853 0.2223 0.77957 0.0
N353 N 0.44171 0.23686 0.78267 0.0
Co354 Co 0.46554 0.23464 0.76042 0.0
N355 N 0.4411 0.20639 0.7364 0.0
C356 C 0.41793 0.19571 0.73819 0.0
C357 C 0.40552 0.17681 0.71882 0.0
C358 C 0.42168 0.17524 0.70377 0.0
C359 C 0.44313 0.1933 0.71495 0.0
N360 N 0.48939 0.23243 0.73823 0.0
C361 C 0.48687 0.21684 0.71669 0.0
C362 C 0.50812 0.22136 0.70777 0.0
C363 C 0.52463 0.24053 0.72406 0.0
C364 C 0.51263 0.24656 0.74202 0.0
N365 N 0.49 0.26297 0.78429 0.0
C366 C 0.51316 0.27363 0.78252 0.0
C367 C 0.52556 0.29306 0.80105 0.0
C368 C 0.50938 0.29509 0.81543 0.0
C369 C 0.48794 0.27662 0.80488 0.0
N370 N 0.46791 0.21469 0.78887 0.0
C371 C 0.47104 0.18818 0.83194 0.0
C372 C 0.49094 0.20643 0.82239 0.0
C373 C 0.48899 0.21924 0.80088 0.0
C374 C 0.44959 0.18306 0.8191 0.0
C375 C 0.44843 0.19641 0.79781 0.0
N376 N 0.4631 0.25473 0.73236 0.0
C377 C 0.48123 0.28926 0.7069 0.0
C378 C 0.45969 0.28655 0.69827 0.0
C379 C 0.43986 0.26702 0.70575 0.0
C380 C 0.44195 0.25142 0.72259 0.0
C381 C 0.48252 0.27318 0.72365 0.0
H382 H 0.4262 0.23714 0.72799 0.0
H383 H 0.49942 0.27629 0.72973 0.0
H384 H 0.5048 0.23281 0.7945 0.0
H385 H 0.43155 0.19171 0.78918 0.0
C386 C 0.40839 0.20365 0.75859 0.0
C387 C 0.46613 0.27334 0.81437 0.0
C388 C 0.46488 0.19723 0.70443 0.0
C389 C 0.52273 0.26536 0.76268 0.0
H390 H 0.41998 0.25814 0.82926 0.0
H391 H 0.38807 0.2198 0.79898 0.0
H392 H 0.38693 0.16548 0.71605 0.0
H393 H 0.41811 0.16224 0.68653 0.0
H394 H 0.51143 0.21171 0.69134 0.0
H395 H 0.5432 0.24899 0.72305 0.0
H396 H 0.54413 0.30458 0.80345 0.0
H397 H 0.51301 0.30887 0.83155 0.0
H398 H 0.50798 0.21073 0.83131 0.0
H399 H 0.43367 0.1691 0.82585 0.0
H400 H 0.49708 0.30383 0.70097 0.0
H401 H 0.42277 0.26414 0.69951 0.0
H402 H 0.06885 0.49932 0.98092 0.0
H403 H 0.09613 0.48971 0.00465 0.0
H404 H 0.05263 0.46505 0.0746 0.0
H405 H 0.0254 0.47446 0.05124 0.0
H406 H 0.11947 0.50756 0.06093 0.0
H407 H 0.06483 0.41186 0.05249 0.0
H408 H 0.05877 0.42985 0.03029 0.0
H409 H 0.05078 0.42662 0.06659 0.0
C410 C 0.065 0.49164 0.00122 0.0
C411 C 0.04492 0.48764 0.01415 0.0
C412 C 0.08061 0.48619 0.01474 0.0
C413 C 0.07622 0.47636 0.04117 0.0
C414 C 0.05613 0.47221 0.05396 0.0
H415 H 0.14123 0.44161 0.17653 0.0
H416 H 0.11526 0.44665 0.14257 0.0
C417 C 0.04065 0.47776 0.04062 0.0
C418 C 0.0931 0.47155 0.05639 0.0
H419 H 0.09821 0.42853 0.08608 0.0
C420 C 0.11501 0.49026 0.06609 0.0
C421 C 0.08714 0.44896 0.06318 0.0
C422 C 0.06418 0.42812 0.05239 0.0
C423 C 0.13075 0.48712 0.0835 0.0
C424 C 0.12457 0.46458 0.09085 0.0
C425 C 0.1029 0.44579 0.08047 0.0
C426 C 0.13991 0.46032 0.11044 0.0
C427 C 0.15342 0.50811 0.09492 0.0
C428 C 0.16215 0.46583 0.10335 0.0
C429 C 0.17693 0.46301 0.12274 0.0
C430 C 0.16957 0.45443 0.14931 0.0
C431 C 0.14712 0.4482 0.15605 0.0
C432 C 0.13237 0.45108 0.13672 0.0
H433 H 0.15316 0.52445 0.09286 0.0
H434 H 0.15758 0.50705 0.11784 0.0
H435 H 0.16751 0.50895 0.08257 0.0
H436 H 0.16815 0.47255 0.08297 0.0
H437 H 0.19423 0.46786 0.11724 0.0
H438 H 0.57932 0.04273 0.52663 0.0
H439 H 0.61628 0.06611 0.55492 0.0
H440 H 0.58449 0.03525 0.6312 0.0
H441 H 0.54733 0.01126 0.60274 0.0
H442 H 0.6213 0.0978 0.59787 0.0
H443 H 0.64624 0.03634 0.63974 0.0
H444 H 0.62482 0.02829 0.60988 0.0
H445 H 0.61742 0.02992 0.64593 0.0
C446 C 0.58026 0.04058 0.54935 0.0
C447 C 0.56042 0.02534 0.56257 0.0
C448 C 0.60141 0.0539 0.56545 0.0
C449 C 0.60314 0.05235 0.5951 0.0
C450 C 0.58361 0.0364 0.60824 0.0
H451 H 0.70695 0.14791 0.72709 0.0
H452 H 0.67304 0.11447 0.70087 0.0
C453 C 0.56239 0.02281 0.59201 0.0
C454 C 0.62461 0.06945 0.61239 0.0
H455 H 0.66886 0.07574 0.65849 0.0
C456 C 0.63176 0.09296 0.61098 0.0
C457 C 0.63805 0.06303 0.62966 0.0
C458 C 0.63141 0.03804 0.6313 0.0
C459 C 0.65202 0.11028 0.62635 0.0
C460 C 0.6656 0.10392 0.64335 0.0
C461 C 0.65838 0.08044 0.64519 0.0
C462 C 0.68718 0.12172 0.65958 0.0
C463 C 0.65867 0.13531 0.62458 0.0
C464 C 0.70639 0.13637 0.64498 0.0
C465 C 0.72561 0.15534 0.65985 0.0
C466 C 0.72577 0.15973 0.68941 0.0
C467 C 0.70701 0.14457 0.70423 0.0
C468 C 0.6878 0.12556 0.68937 0.0
H469 H 0.64422 0.13705 0.61483 0.0
H470 H 0.66416 0.14476 0.64623 0.0
H471 H 0.67351 0.14375 0.61121 0.0
H472 H 0.7061 0.13358 0.62195 0.0
H473 H 0.73998 0.16703 0.64821 0.0
H474 H 0.56633 0.5779 0.06981 0.0
H475 H 0.57563 0.61269 0.10056 0.0
H476 H 0.50773 0.60227 0.07678 0.0
H477 H 0.4993 0.56879 0.04446 0.0
H478 H 0.53592 0.64444 0.07596 0.0
H479 H 0.55899 0.61942 0.17787 0.0
H480 H 0.57744 0.62077 0.15068 0.0
H481 H 0.54696 0.59959 0.14615 0.0
C482 C 0.55343 0.58306 0.07142 0.0
C483 C 0.53211 0.57073 0.05492 0.0
C484 C 0.55865 0.60283 0.08916 0.0
C485 C 0.54225 0.61001 0.0916 0.0
C486 C 0.52078 0.59728 0.07536 0.0
H487 H 0.5422 0.70052 0.22888 0.0
H488 H 0.53888 0.66889 0.19699 0.0
C489 C 0.5159 0.57807 0.05696 0.0
C490 C 0.54742 0.63114 0.11008 0.0
H491 H 0.56661 0.65803 0.17772 0.0
C492 C 0.54248 0.64728 0.0983 0.0
C493 C 0.55588 0.63495 0.13933 0.0
C494 C 0.55989 0.61764 0.15432 0.0
C495 C 0.54507 0.6666 0.11491 0.0
C496 C 0.55423 0.67082 0.1439 0.0
C497 C 0.55975 0.65501 0.15549 0.0
C498 C 0.55671 0.6905 0.16318 0.0
C499 C 0.53682 0.68152 0.1014 0.0
C500 C 0.5681 0.71341 0.15523 0.0
C501 C 0.56907 0.73138 0.17302 0.0
C502 C 0.55936 0.7269 0.19949 0.0
C503 C 0.54921 0.70429 0.20817 0.0
C504 C 0.54756 0.68626 0.19006 0.0
H505 H 0.52396 0.67198 0.08276 0.0
H506 H 0.52876 0.68771 0.11704 0.0
H507 H 0.55176 0.69675 0.09346 0.0
H508 H 0.57619 0.71744 0.13524 0.0
H509 H 0.57749 0.7488 0.16622 0.0
H510 H 0.96918 0.52108 0.55013 0.0
H511 H 0.9416 0.53077 0.56904 0.0
H512 H 0.89656 0.49961 0.49133 0.0
H513 H 0.92399 0.48927 0.47232 0.0
H514 H 0.92264 0.55657 0.55018 0.0
H515 H 0.85542 0.46382 0.55355 0.0
H516 H 0.88493 0.47279 0.54689 0.0
H517 H 0.86553 0.47278 0.51902 0.0
C518 C 0.95351 0.51639 0.53688 0.0
C519 C 0.94864 0.50412 0.50984 0.0
C520 C 0.93779 0.52203 0.54771 0.0
C521 C 0.91691 0.5156 0.53177 0.0
C522 C 0.91241 0.50433 0.50418 0.0
H523 H 0.82634 0.55948 0.61071 0.0
H524 H 0.84883 0.55365 0.57482 0.0
C525 C 0.92813 0.49853 0.49332 0.0
C526 C 0.89956 0.51967 0.54514 0.0
H527 H 0.84737 0.49151 0.57357 0.0
C528 C 0.90601 0.54241 0.55496 0.0
C529 C 0.878 0.50108 0.55151 0.0
C530 C 0.87052 0.47621 0.54243 0.0
C531 C 0.89193 0.547 0.57209 0.0
C532 C 0.87063 0.52835 0.57901 0.0
C533 C 0.8637 0.50573 0.5681 0.0
C534 C 0.8564 0.53156 0.59991 0.0
C535 C 0.90056 0.57158 0.58397 0.0
C536 C 0.85281 0.52064 0.62552 0.0
C537 C 0.8399 0.52379 0.64586 0.0
C538 C 0.83035 0.53795 0.64097 0.0
C539 C 0.83378 0.54873 0.61517 0.0
C540 C 0.8466 0.54543 0.5947 0.0
H541 H 0.91921 0.58315 0.58118 0.0
H542 H 0.89066 0.57846 0.57259 0.0
H543 H 0.89795 0.57223 0.60715 0.0
H544 H 0.86029 0.50992 0.62996 0.0
H545 H 0.83776 0.51549 0.66567 0.0
H546 H 0.41895 0.92642 0.00088 0.0
H547 H 0.38488 0.90031 0.02536 0.0
H548 H 0.41453 0.94529 0.10329 0.0
H549 H 0.44816 0.97151 0.07907 0.0
H550 H 0.38217 0.87623 0.0715 0.0
H551 H 0.35011 0.93607 0.09771 0.0
H552 H 0.37151 0.94215 0.07234 0.0
H553 H 0.37995 0.94821 0.11027 0.0
C554 C 0.41808 0.93086 0.02314 0.0
C555 C 0.43627 0.95117 0.03791 0.0
C556 C 0.3986 0.91591 0.03713 0.0
C557 C 0.39689 0.92103 0.06606 0.0
C558 C 0.41508 0.94123 0.08079 0.0
H559 H 0.32159 0.83004 0.19383 0.0
H560 H 0.34938 0.85427 0.16097 0.0
C561 C 0.43444 0.95616 0.06688 0.0
C562 C 0.37677 0.90483 0.08148 0.0
H563 H 0.33618 0.90266 0.12477 0.0
C564 C 0.37193 0.88194 0.08285 0.0
C565 C 0.3631 0.91209 0.09596 0.0
C566 C 0.36626 0.9359 0.09376 0.0
C567 C 0.35453 0.86646 0.09926 0.0
C568 C 0.34191 0.8742 0.11529 0.0
C569 C 0.34605 0.89678 0.11289 0.0
C570 C 0.32484 0.8594 0.13524 0.0
C571 C 0.3498 0.84192 0.09918 0.0
C572 C 0.3019 0.85483 0.13246 0.0
C573 C 0.28595 0.84107 0.15144 0.0
C574 C 0.29262 0.83162 0.17364 0.0
C575 C 0.31571 0.83659 0.17663 0.0
C576 C 0.33164 0.85042 0.15777 0.0
H577 H 0.35525 0.83678 0.07943 0.0
H578 H 0.35983 0.84059 0.11781 0.0
H579 H 0.33115 0.82949 0.10077 0.0
H580 H 0.29626 0.8617 0.11539 0.0
H581 H 0.26829 0.8375 0.14842 0.0
H582 H 0.45568 0.46048 0.59488 0.0
H583 H 0.4505 0.42844 0.62294 0.0
H584 H 0.45554 0.39256 0.54717 0.0
H585 H 0.4609 0.4244 0.51908 0.0
H586 H 0.41876 0.37779 0.61607 0.0
H587 H 0.51102 0.40513 0.60479 0.0
H588 H 0.49911 0.42344 0.59719 0.0
H589 H 0.49399 0.40017 0.57159 0.0
C590 C 0.4552 0.44555 0.58409 0.0
C591 C 0.45904 0.44511 0.55486 0.0
C592 C 0.45226 0.4273 0.60014 0.0
C593 C 0.45308 0.40843 0.58715 0.0
C594 C 0.45524 0.4072 0.55761 0.0
H595 H 0.42933 0.27988 0.65246 0.0
H596 H 0.42657 0.30953 0.62679 0.0
C597 C 0.45826 0.4254 0.54162 0.0
C598 C 0.45368 0.39096 0.6047 0.0
H599 H 0.48862 0.36995 0.62582 0.0
C600 C 0.43401 0.37606 0.61834 0.0
C601 C 0.47377 0.38907 0.6079 0.0
C602 C 0.49577 0.40541 0.59483 0.0
C603 C 0.43375 0.35886 0.63465 0.0
C604 C 0.45359 0.35646 0.63698 0.0
C605 C 0.47338 0.37171 0.62379 0.0
C606 C 0.45443 0.33842 0.65318 0.0
C607 C 0.4124 0.34364 0.64954 0.0
C608 C 0.47132 0.34486 0.6761 0.0
C609 C 0.47304 0.32801 0.69064 0.0
C610 C 0.45795 0.30436 0.68245 0.0
C611 C 0.44102 0.29795 0.65947 0.0
C612 C 0.43935 0.31485 0.64487 0.0
H613 H 0.4013 0.35151 0.65186 0.0
H614 H 0.40206 0.32676 0.63668 0.0
H615 H 0.41711 0.34032 0.67114 0.0
H616 H 0.48317 0.36298 0.68276 0.0
H617 H 0.48603 0.3335 0.70852 0.0
H618 H 0.51485 0.94947 0.46963 0.0
H619 H 0.5249 0.92682 0.43746 0.0
H620 H 0.54861 0.98028 0.37872 0.0
H621 H 0.53856 0.00337 0.41106 0.0
H622 H 0.50722 0.91155 0.37765 0.0
H623 H 0.60326 0.9667 0.39376 0.0
H624 H 0.58452 0.96834 0.41908 0.0
H625 H 0.58673 0.98047 0.38529 0.0
C626 C 0.52228 0.95658 0.44996 0.0
C627 C 0.52593 0.97832 0.44298 0.0
C628 C 0.52797 0.94353 0.43155 0.0
C629 C 0.5376 0.95192 0.40582 0.0
C630 C 0.54139 0.97362 0.39866 0.0
H631 H 0.54899 0.85683 0.27953 0.0
H632 H 0.54396 0.88854 0.29964 0.0
C633 C 0.53557 0.98674 0.4171 0.0
C634 C 0.54315 0.93742 0.38662 0.0
H635 H 0.58813 0.93166 0.36489 0.0
C636 C 0.52488 0.91607 0.37444 0.0
C637 C 0.56623 0.94334 0.38277 0.0
C638 C 0.58643 0.96588 0.39596 0.0
C639 C 0.52908 0.90016 0.35915 0.0
C640 C 0.55217 0.90586 0.35579 0.0
C641 C 0.57046 0.92746 0.36735 0.0
C642 C 0.55754 0.88871 0.34259 0.0
C643 C 0.50883 0.87692 0.34785 0.0
C644 C 0.56732 0.87876 0.35992 0.0
C645 C 0.57016 0.86074 0.34851 0.0
C646 C 0.56362 0.85269 0.31946 0.0
C647 C 0.55445 0.86307 0.3019 0.0
C648 C 0.5515 0.88104 0.31337 0.0
H649 H 0.49232 0.87389 0.35604 0.0
H650 H 0.50691 0.87604 0.32409 0.0
H651 H 0.51186 0.86275 0.35388 0.0
H652 H 0.5719 0.8843 0.38257 0.0
H653 H 0.5767 0.85255 0.36257 0.0
H654 H 0.54637 0.5548 0.89729 0.0
H655 H 0.58003 0.56515 0.86979 0.0
H656 H 0.61834 0.56358 0.94549 0.0
H657 H 0.58504 0.55339 0.97307 0.0
H658 H 0.6445 0.60121 0.909 0.0
H659 H 0.59617 0.51302 0.85154 0.0
H660 H 0.58239 0.53021 0.85087 0.0
H661 H 0.58703 0.5203 0.88411 0.0
C662 C 0.56212 0.55712 0.90819 0.0
C663 C 0.56297 0.553 0.93725 0.0
C664 C 0.58127 0.56295 0.89244 0.0
C665 C 0.60149 0.56483 0.90561 0.0
C666 C 0.60285 0.56216 0.93498 0.0
H667 H 0.70735 0.54135 0.8485 0.0
H668 H 0.67705 0.54374 0.87288 0.0
C669 C 0.58375 0.55624 0.95065 0.0
C670 C 0.62049 0.56734 0.88858 0.0
H671 H 0.63475 0.53689 0.84155 0.0
C672 C 0.64237 0.58733 0.89394 0.0
C673 C 0.61761 0.54898 0.86935 0.0
C674 C 0.59461 0.5268 0.86364 0.0
C675 C 0.6616 0.58929 0.88074 0.0
C676 C 0.65873 0.5708 0.86181 0.0
C677 C 0.63678 0.55102 0.85609 0.0
C678 C 0.67841 0.57102 0.84862 0.0
C679 C 0.685 0.61068 0.88785 0.0
C680 C 0.68929 0.58575 0.82714 0.0
C681 C 0.70648 0.5843 0.81297 0.0
C682 C 0.713 0.56804 0.82006 0.0
C683 C 0.7025 0.55381 0.84224 0.0
C684 C 0.68529 0.55523 0.85629 0.0
H685 H 0.68493 0.62192 0.90603 0.0
H686 H 0.69824 0.6058 0.89331 0.0
H687 H 0.69021 0.62085 0.86881 0.0
H688 H 0.68395 0.59782 0.82069 0.0
H689 H 0.71397 0.59527 0.79571 0.0
H690 H 0.02333 0.54463 0.44171 0.0
H691 H 0.04924 0.57937 0.41874 0.0
H692 H 0.10334 0.59676 0.48545 0.0
H693 H 0.07739 0.5619 0.50887 0.0
H694 H 0.07556 0.62871 0.44509 0.0
H695 H 0.13012 0.59371 0.40564 0.0
H696 H 0.10111 0.57508 0.41555 0.0
H697 H 0.12423 0.59168 0.44283 0.0
C698 C 0.04071 0.55584 0.45165 0.0
C699 C 0.04832 0.5504 0.47709 0.0
C700 C 0.05546 0.57573 0.43849 0.0
C701 C 0.07822 0.5905 0.45027 0.0
C702 C 0.08585 0.58544 0.47592 0.0
H703 H 0.19058 0.70491 0.37228 0.0
H704 H 0.16783 0.67594 0.40482 0.0
C705 C 0.07099 0.56558 0.48931 0.0
C706 C 0.09394 0.61087 0.43514 0.0
H707 H 0.13919 0.63067 0.39298 0.0
C708 C 0.0896 0.62927 0.43384 0.0
C709 C 0.11223 0.61153 0.42059 0.0
C710 C 0.11728 0.59195 0.42095 0.0
C711 C 0.10306 0.64833 0.41825 0.0
C712 C 0.1209 0.64866 0.40285 0.0
C713 C 0.12551 0.63043 0.40469 0.0
C714 C 0.13461 0.66735 0.38407 0.0
C715 C 0.09815 0.66803 0.41874 0.0
C716 C 0.12357 0.67222 0.36146 0.0
C717 C 0.13654 0.68909 0.34304 0.0
C718 C 0.1609 0.70126 0.34652 0.0
C719 C 0.17188 0.69628 0.3692 0.0
C720 C 0.15889 0.67954 0.38773 0.0
H721 H 0.08969 0.66877 0.43827 0.0
H722 H 0.11427 0.68494 0.41792 0.0
H723 H 0.08618 0.66536 0.39984 0.0
H724 H 0.10488 0.66269 0.3577 0.0
H725 H 0.12742 0.69254 0.32603 0.0
H726 H 0.51176 0.08192 0.03252 0.0
H727 H 0.50644 0.11137 0.00976 0.0
H728 H 0.45428 0.05856 0.94862 0.0
H729 H 0.45936 0.02917 0.97115 0.0
H730 H 0.51481 0.11926 0.95198 0.0
H731 H 0.42552 0.09813 0.97042 0.0
H732 H 0.44124 0.08803 0.99206 0.0
H733 H 0.42721 0.07336 0.95755 0.0
C734 C 0.49871 0.07653 0.01472 0.0
C735 C 0.48605 0.05325 0.00353 0.0
C736 C 0.49575 0.09337 0.00172 0.0
C737 C 0.47981 0.0871 0.9777 0.0
C738 C 0.46634 0.06372 0.96746 0.0
H739 H 0.44663 0.14125 0.83436 0.0
H740 H 0.44943 0.1189 0.87257 0.0
C741 C 0.4694 0.04696 0.98026 0.0
C742 C 0.47919 0.10498 0.96094 0.0
H743 H 0.44231 0.12079 0.93073 0.0
C744 C 0.49912 0.11998 0.94776 0.0
C745 C 0.45863 0.10568 0.95535 0.0
C746 C 0.43699 0.09058 0.96981 0.0
C747 C 0.4987 0.1348 0.92787 0.0
C748 C 0.4779 0.13493 0.92152 0.0
C749 C 0.45821 0.12058 0.93557 0.0
C750 C 0.47584 0.1488 0.8991 0.0
C751 C 0.52017 0.14925 0.91271 0.0
C752 C 0.48958 0.17302 0.90154 0.0
C753 C 0.48809 0.18583 0.87968 0.0
C754 C 0.47263 0.17462 0.85516 0.0
C755 C 0.45857 0.15038 0.85307 0.0
C756 C 0.46017 0.1376 0.87485 0.0
H757 H 0.5329 0.1433 0.91531 0.0
H758 H 0.51571 0.14876 0.88944 0.0
H759 H 0.52863 0.16752 0.92182 0.0
H760 H 0.50144 0.18203 0.92036 0.0
H761 H 0.49883 0.20452 0.88212 0.0
H762 H 0.4195 0.48655 0.46725 0.0
H763 H 0.38682 0.47811 0.43351 0.0
H764 H 0.41384 0.45246 0.3687 0.0
H765 H 0.44683 0.46087 0.40245 0.0
H766 H 0.39098 0.49732 0.3786 0.0
H767 H 0.34397 0.40094 0.36986 0.0
H768 H 0.36481 0.41819 0.39959 0.0
H769 H 0.3745 0.41553 0.36534 0.0
C770 C 0.41848 0.47892 0.44592 0.0
C771 C 0.43584 0.47439 0.43758 0.0
C772 C 0.39976 0.47414 0.42665 0.0
C773 C 0.39783 0.46454 0.3987 0.0
C774 C 0.41488 0.45963 0.39031 0.0
H775 H 0.30751 0.46423 0.2573 0.0
H776 H 0.34049 0.46709 0.28654 0.0
C777 C 0.43375 0.46452 0.40959 0.0
C778 C 0.37847 0.46076 0.37816 0.0
H779 H 0.32842 0.41879 0.34112 0.0
C780 C 0.37736 0.48017 0.37026 0.0
C781 C 0.36067 0.43835 0.36756 0.0
C782 C 0.3608 0.41697 0.37607 0.0
C783 C 0.35887 0.47776 0.35209 0.0
C784 C 0.34109 0.45537 0.34138 0.0
C785 C 0.34218 0.43593 0.34924 0.0
C786 C 0.32089 0.45192 0.32278 0.0
C787 C 0.35815 0.49917 0.345 0.0
C788 C 0.29891 0.44196 0.33325 0.0
C789 C 0.28015 0.44038 0.31663 0.0
C790 C 0.2831 0.44849 0.28919 0.0
C791 C 0.30493 0.45783 0.2784 0.0
C792 C 0.32369 0.45951 0.29506 0.0
H793 H 0.3708 0.51467 0.35918 0.0
H794 H 0.36237 0.50266 0.3225 0.0
H795 H 0.34056 0.49658 0.34694 0.0
H796 H 0.29643 0.43606 0.35461 0.0
H797 H 0.26347 0.4333 0.32538 0.0
H798 H 0.95869 0.43474 0.94414 0.0
H799 H 0.92891 0.39543 0.9273 0.0
H800 H 0.89018 0.3925 0.99947 0.0
H801 H 0.91997 0.43227 0.01651 0.0
H802 H 0.91108 0.3535 0.95517 0.0
H803 H 0.84434 0.3778 0.9283 0.0
H804 H 0.87462 0.39924 0.93526 0.0
H805 H 0.85785 0.38515 0.96433 0.0
C806 C 0.94391 0.4258 0.95658 0.0
C807 C 0.94159 0.43673 0.98154 0.0
C808 C 0.92695 0.40327 0.94696 0.0
C809 C 0.9073 0.39119 0.962 0.0
C810 C 0.90513 0.4017 0.9874 0.0
H811 H 0.78923 0.26169 0.87947 0.0
H812 H 0.81323 0.29193 0.91818 0.0
C813 C 0.92218 0.42436 0.99711 0.0
C814 C 0.88888 0.36799 0.94996 0.0
H815 H 0.8358 0.34043 0.91247 0.0
C816 C 0.89442 0.35045 0.94631 0.0
C817 C 0.86715 0.36408 0.93859 0.0
C818 C 0.86052 0.38252 0.94158 0.0
C819 C 0.87929 0.32951 0.93019 0.0
C820 C 0.85828 0.32626 0.91716 0.0
C821 C 0.852 0.3431 0.92247 0.0
C822 C 0.84408 0.307 0.89513 0.0
C823 C 0.88625 0.31138 0.92641 0.0
C824 C 0.85349 0.30574 0.86945 0.0
C825 C 0.83986 0.28877 0.84747 0.0
C826 C 0.81662 0.27286 0.85086 0.0
C827 C 0.80718 0.2739 0.87661 0.0
C828 C 0.82082 0.29103 0.8986 0.0
H829 H 0.89857 0.31307 0.94442 0.0
H830 H 0.87091 0.29365 0.92489 0.0
H831 H 0.89499 0.31364 0.9063 0.0
H832 H 0.87125 0.31825 0.86613 0.0
H833 H 0.84733 0.28825 0.82764 0.0
H834 H 0.94431 0.52408 0.96198 0.0
H835 H 0.92122 0.53455 0.9311 0.0
H836 H 0.9631 0.54017 0.86149 0.0
H837 H 0.98635 0.52942 0.8923 0.0
H838 H 0.93514 0.57482 0.90142 0.0
H839 H 0.89629 0.49464 0.82727 0.0
H840 H 0.91097 0.49708 0.86173 0.0
H841 H 0.92737 0.51089 0.83224 0.0
C842 C 0.94871 0.52754 0.94012 0.0
C843 C 0.96713 0.52575 0.92957 0.0
C844 C 0.93549 0.53359 0.92251 0.0
C845 C 0.94027 0.53788 0.89393 0.0
C846 C 0.9589 0.53657 0.88338 0.0
H847 H 0.85707 0.55931 0.76166 0.0
H848 H 0.88896 0.55743 0.78732 0.0
C849 C 0.97222 0.53053 0.90105 0.0
C850 C 0.9254 0.54342 0.87536 0.0
H851 H 0.88472 0.52177 0.81819 0.0
C852 C 0.92423 0.56332 0.88308 0.0
C853 C 0.91123 0.52842 0.85143 0.0
C854 C 0.91129 0.50645 0.84267 0.0
C855 C 0.90905 0.56847 0.86773 0.0
C856 C 0.89433 0.55307 0.84437 0.0
C857 C 0.89601 0.53355 0.83612 0.0
C858 C 0.87619 0.55614 0.82917 0.0
C859 C 0.90894 0.59037 0.87668 0.0
C860 C 0.85849 0.55609 0.84417 0.0
C861 C 0.84041 0.55723 0.82957 0.0
C862 C 0.83967 0.55823 0.79974 0.0
C863 C 0.85748 0.55865 0.78473 0.0
C864 C 0.87558 0.55753 0.79933 0.0
H865 H 0.92562 0.60347 0.88847 0.0
H866 H 0.90564 0.59807 0.85783 0.0
H867 H 0.89501 0.58627 0.8912 0.0
H868 H 0.85828 0.55449 0.86706 0.0
H869 H 0.82668 0.55672 0.84142 0.0
H870 H 0.42738 0.92877 0.51646 0.0
H871 H 0.39123 0.89946 0.48952 0.0
H872 H 0.40444 0.94494 0.42185 0.0
H873 H 0.44003 0.97437 0.44869 0.0
H874 H 0.35861 0.92173 0.43305 0.0
H875 H 0.39278 0.86149 0.41976 0.0
H876 H 0.39155 0.87034 0.45614 0.0
H877 H 0.41089 0.89133 0.43353 0.0
C878 C 0.42238 0.93264 0.49604 0.0
C879 C 0.43672 0.95378 0.48454 0.0
C880 C 0.40183 0.91583 0.48061 0.0
C881 C 0.39548 0.91988 0.45344 0.0
C882 C 0.40911 0.94143 0.44271 0.0
H883 H 0.30569 0.85061 0.30127 0.0
H884 H 0.3351 0.87757 0.339 0.0
C885 C 0.42951 0.95822 0.4581 0.0
C886 C 0.37542 0.90149 0.43516 0.0
H887 H 0.35599 0.84943 0.39704 0.0
C888 C 0.35791 0.90582 0.42536 0.0
C889 C 0.37468 0.88082 0.42508 0.0
C890 C 0.39354 0.8757 0.43392 0.0
C891 C 0.33987 0.89021 0.40532 0.0
C892 C 0.3395 0.8699 0.39477 0.0
C893 C 0.3565 0.86513 0.40524 0.0
C894 C 0.322 0.85374 0.3721 0.0
C895 C 0.32145 0.8956 0.39533 0.0
C896 C 0.30532 0.83145 0.37831 0.0
C897 C 0.28867 0.81619 0.35691 0.0
C898 C 0.2888 0.82291 0.32896 0.0
C899 C 0.3056 0.84512 0.32267 0.0
C900 C 0.32217 0.86046 0.34415 0.0
H901 H 0.32142 0.90921 0.40985 0.0
H902 H 0.32472 0.90189 0.3736 0.0
H903 H 0.30404 0.8798 0.39392 0.0
H904 H 0.305 0.82603 0.39979 0.0
H905 H 0.2755 0.79923 0.36219 0.0
H906 H 0.51531 0.4459 0.99872 0.0
H907 H 0.50726 0.40929 0.9734 0.0
H908 H 0.4774 0.4241 0.89958 0.0
H909 H 0.48542 0.46052 0.92438 0.0
H910 H 0.4636 0.37079 0.94741 0.0
H911 H 0.52795 0.41298 0.86792 0.0
H912 H 0.52817 0.42815 0.90098 0.0
H913 H 0.50808 0.42346 0.871 0.0
C914 C 0.50702 0.44134 0.9771 0.0
C915 C 0.5012 0.45626 0.96352 0.0
C916 C 0.50239 0.42042 0.96271 0.0
C917 C 0.49204 0.41418 0.93448 0.0
C918 C 0.48576 0.42877 0.92117 0.0
H919 H 0.45484 0.30551 0.80034 0.0
H920 H 0.45952 0.33856 0.83122 0.0
C921 C 0.49032 0.44959 0.93547 0.0
C922 C 0.48792 0.39258 0.91856 0.0
H923 H 0.50151 0.3727 0.85835 0.0
C924 C 0.472 0.37114 0.92807 0.0
C925 C 0.49892 0.39314 0.89334 0.0
C926 C 0.5169 0.41565 0.88278 0.0
C927 C 0.46622 0.35021 0.91245 0.0
C928 C 0.47695 0.35081 0.88695 0.0
C929 C 0.49315 0.37227 0.87777 0.0
C930 C 0.47179 0.32949 0.86931 0.0
C931 C 0.44821 0.32768 0.92288 0.0
C932 C 0.47687 0.3133 0.88056 0.0
C933 C 0.47409 0.29443 0.86298 0.0
C934 C 0.46636 0.2916 0.83389 0.0
C935 C 0.46069 0.30738 0.8228 0.0
C936 C 0.46343 0.32622 0.84037 0.0
H937 H 0.43751 0.33036 0.93832 0.0
H938 H 0.4366 0.31547 0.90466 0.0
H939 H 0.45697 0.3195 0.93394 0.0
H940 H 0.48377 0.31571 0.90264 0.0
H941 H 0.47872 0.28248 0.87178 0.0
H942 H 0.00149 0.44899 0.40301 0.0
H943 H 0.0262 0.43939 0.37564 0.0
H944 H 0.06537 0.44403 0.45406 0.0
H945 H 0.04119 0.45424 0.48143 0.0
H946 H 0.09259 0.47115 0.41626 0.0
H947 H 0.03415 0.38379 0.36205 0.0
H948 H 0.02397 0.40358 0.35602 0.0
H949 H 0.02593 0.39557 0.39174 0.0
C950 C 0.01501 0.44741 0.41446 0.0
C951 C 0.01954 0.45254 0.44432 0.0
C952 C 0.02904 0.44179 0.3988 0.0
C953 C 0.04752 0.44081 0.41283 0.0
C954 C 0.0512 0.44467 0.44281 0.0
H955 H 0.14361 0.40978 0.32718 0.0
H956 H 0.11394 0.40783 0.35756 0.0
C957 C 0.03738 0.45053 0.45841 0.0
C958 C 0.06476 0.43876 0.39618 0.0
H959 H 0.07107 0.40613 0.34299 0.0
C960 C 0.08789 0.45676 0.4005 0.0
C961 C 0.05867 0.41992 0.37578 0.0
C962 C 0.03437 0.39951 0.3713 0.0
C963 C 0.10499 0.45681 0.38442 0.0
C964 C 0.0987 0.43862 0.36298 0.0
C965 C 0.07575 0.42018 0.35925 0.0
C966 C 0.11568 0.43899 0.34369 0.0
C967 C 0.12966 0.47639 0.39048 0.0
C968 C 0.12604 0.45687 0.32549 0.0
C969 C 0.14292 0.45804 0.30823 0.0
C970 C 0.14965 0.44124 0.30868 0.0
C971 C 0.13874 0.42293 0.32633 0.0
C972 C 0.12184 0.42181 0.3437 0.0
H973 H 0.13268 0.48515 0.41232 0.0
H974 H 0.14207 0.47009 0.38843 0.0
H975 H 0.13335 0.48947 0.37478 0.0
H976 H 0.12113 0.47001 0.32476 0.0
H977 H 0.1506 0.47205 0.29436 0.0
H978 H 0.5274 0.00094 0.9131 0.0
H979 H 0.5586 0.02347 0.88248 0.0
H980 H 0.59838 0.07202 0.95497 0.0
H981 H 0.56753 0.04995 0.98544 0.0
H982 H 0.59421 0.09293 0.90679 0.0
H983 H 0.62344 0.03033 0.87969 0.0
H984 H 0.59294 0.01967 0.87299 0.0
H985 H 0.60598 0.02736 0.90917 0.0
C986 C 0.5429 0.01628 0.92255 0.0
C987 C 0.54489 0.02362 0.95174 0.0
C988 C 0.56075 0.02908 0.90505 0.0
C989 C 0.5809 0.04935 0.9165 0.0
C990 C 0.58302 0.05644 0.94567 0.0
H991 H 0.71474 0.13762 0.85448 0.0
H992 H 0.68181 0.10905 0.87846 0.0
C993 C 0.5653 0.04374 0.96308 0.0
C994 C 0.59942 0.06406 0.89814 0.0
H995 H 0.64149 0.06576 0.85801 0.0
C996 C 0.60447 0.08695 0.896 0.0
C997 C 0.61294 0.0563 0.88434 0.0
C998 C 0.60877 0.03214 0.88674 0.0
C999 C 0.62273 0.10234 0.88063 0.0
C1000 C 0.63613 0.09455 0.86658 0.0
C1001 C 0.63108 0.07163 0.86862 0.0
C1002 C 0.65587 0.11027 0.85044 0.0
C1003 C 0.62793 0.12702 0.88024 0.0
C1004 C 0.65217 0.11998 0.82629 0.0
C1005 C 0.67092 0.13626 0.81253 0.0
C1006 C 0.69379 0.14314 0.82257 0.0
C1007 C 0.69738 0.13267 0.8461 0.0
C1008 C 0.67858 0.11637 0.85988 0.0
H1009 H 0.61961 0.13159 0.89732 0.0
H1010 H 0.64688 0.13933 0.88302 0.0
H1011 H 0.62124 0.1293 0.85924 0.0
H1012 H 0.63477 0.11518 0.8183 0.0
H1013 H 0.66749 0.14357 0.79408 0.0
H1014 H 0.48757 0.57423 0.52279 0.0
H1015 H 0.49877 0.61171 0.50379 0.0
H1016 H 0.5401 0.6005 0.44438 0.0
H1017 H 0.52895 0.56323 0.46282 0.0
H1018 H 0.54489 0.65252 0.49536 0.0
H1019 H 0.49047 0.60679 0.39435 0.0
H1020 H 0.48737 0.59261 0.42703 0.0
H1021 H 0.51031 0.59729 0.40492 0.0
C1022 C 0.49927 0.57992 0.50593 0.0
C1023 C 0.5071 0.56564 0.49398 0.0
C1024 C 0.50565 0.6013 0.49516 0.0
C1025 C 0.51993 0.60857 0.47243 0.0
C1026 C 0.52877 0.59495 0.46165 0.0
H1027 H 0.58046 0.71363 0.35899 0.0
H1028 H 0.57114 0.68409 0.39286 0.0
C1029 C 0.52235 0.57365 0.47221 0.0
C1030 C 0.52455 0.62957 0.45837 0.0
H1031 H 0.51755 0.64706 0.39334 0.0
C1032 C 0.53867 0.65142 0.47321 0.0
C1033 C 0.51621 0.62794 0.42955 0.0
C1034 C 0.50006 0.6049 0.41306 0.0
C1035 C 0.5456 0.67177 0.45932 0.0
C1036 C 0.53816 0.67 0.43014 0.0
C1037 C 0.52333 0.64821 0.41571 0.0
C1038 C 0.54635 0.69036 0.41341 0.0
C1039 C 0.56146 0.69502 0.47537 0.0
C1040 C 0.5357 0.70381 0.41425 0.0
C1041 C 0.54081 0.72057 0.39474 0.0
C1042 C 0.55655 0.72394 0.37406 0.0
C1043 C 0.56801 0.71118 0.37437 0.0
C1044 C 0.56287 0.69445 0.3938 0.0
H1045 H 0.56614 0.69345 0.4979 0.0
H1046 H 0.57755 0.70442 0.46429 0.0
H1047 H 0.55293 0.7056 0.47543 0.0
H1048 H 0.52268 0.70061 0.42908 0.0
H1049 H 0.53154 0.72998 0.39486 0.0
H1050 H 0.50389 0.08155 0.50473 0.0
H1051 H 0.49738 0.10942 0.53293 0.0
H1052 H 0.47294 0.06301 0.60008 0.0
H1053 H 0.4794 0.0353 0.57243 0.0
H1054 H 0.45523 0.10328 0.55749 0.0
H1055 H 0.52673 0.12461 0.64017 0.0
H1056 H 0.52425 0.11052 0.60525 0.0
H1057 H 0.50674 0.09415 0.63274 0.0
C1058 C 0.49704 0.07726 0.52544 0.0
C1059 C 0.49237 0.05626 0.53639 0.0
C1060 C 0.49331 0.09318 0.54149 0.0
C1061 C 0.48502 0.0884 0.56877 0.0
C1062 C 0.47972 0.0672 0.5793 0.0
H1063 H 0.45668 0.1538 0.71156 0.0
H1064 H 0.46031 0.12741 0.67671 0.0
C1065 C 0.48338 0.05134 0.56336 0.0
C1066 C 0.48221 0.10556 0.58675 0.0
H1067 H 0.50061 0.13754 0.65143 0.0
C1068 C 0.46528 0.11099 0.5779 0.0
C1069 C 0.49536 0.11556 0.61336 0.0
C1070 C 0.51445 0.11112 0.6234 0.0
C1071 C 0.46057 0.12552 0.59552 0.0
C1072 C 0.47339 0.1351 0.62244 0.0
C1073 C 0.49066 0.13004 0.63091 0.0
C1074 C 0.46917 0.15025 0.64244 0.0
C1075 C 0.4414 0.12987 0.58564 0.0
C1076 C 0.47275 0.17176 0.63468 0.0
C1077 C 0.47057 0.18673 0.65453 0.0
C1078 C 0.46494 0.18048 0.68245 0.0
C1079 C 0.4609 0.15883 0.69006 0.0
C1080 C 0.46305 0.14386 0.67023 0.0
H1081 H 0.42961 0.11692 0.56807 0.0
H1082 H 0.43105 0.12946 0.60366 0.0
H1083 H 0.44906 0.14727 0.57746 0.0
H1084 H 0.47794 0.17727 0.61359 0.0
H1085 H 0.47392 0.20347 0.6484 0.0
H1086 H 0.4429 0.46776 0.01888 0.0
H1087 H 0.40618 0.45442 0.04016 0.0
H1088 H 0.40107 0.51089 0.00688 0.0
H1089 H 0.43721 0.52349 0.98422 0.0
H1090 H 0.40016 0.47697 0.08106 0.0
H1091 H 0.33541 0.46094 0.99204 0.0
H1092 H 0.36346 0.46473 0.98592 0.0
H1093 H 0.35997 0.48952 0.99251 0.0
C1094 C 0.4336 0.47695 0.01552 0.0
C1095 C 0.44281 0.49664 0.99999 0.0
C1096 C 0.41264 0.46933 0.02768 0.0
C1097 C 0.40071 0.48152 0.02499 0.0
C1098 C 0.40955 0.50079 0.00862 0.0
H1099 H 0.32151 0.49425 0.15564 0.0
H1100 H 0.35027 0.4986 0.12287 0.0
C1101 C 0.43029 0.50809 0.99585 0.0
C1102 C 0.38079 0.47581 0.04222 0.0
H1103 H 0.32601 0.46732 0.03952 0.0
C1104 C 0.38384 0.47453 0.07181 0.0
C1105 C 0.35936 0.47233 0.03024 0.0
C1106 C 0.35427 0.4717 0.99838 0.0
C1107 C 0.36638 0.47053 0.08986 0.0
C1108 C 0.34559 0.4687 0.0782 0.0
C1109 C 0.34214 0.46916 0.04849 0.0
C1110 C 0.3275 0.46676 0.0967 0.0
C1111 C 0.37039 0.46816 0.1212 0.0
C1112 C 0.3048 0.44801 0.092 0.0
C1113 C 0.28803 0.44578 0.11027 0.0
C1114 C 0.29371 0.46226 0.13364 0.0
C1115 C 0.31638 0.48133 0.13776 0.0
C1116 C 0.333 0.48367 0.11929 0.0
H1117 H 0.38315 0.46232 0.1246 0.0
H1118 H 0.37748 0.48527 0.13343 0.0
H1119 H 0.35406 0.45566 0.13013 0.0
H1120 H 0.30014 0.43489 0.07447 0.0
H1121 H 0.27064 0.43114 0.10608 0.0
H1122 H 0.94391 0.42171 0.53016 0.0
H1123 H 0.92222 0.3913 0.56144 0.0
H1124 H 0.97977 0.42345 0.62609 0.0
H1125 H 0.00154 0.45445 0.59502 0.0
H1126 H 0.93123 0.35978 0.58401 0.0
H1127 H 0.92693 0.4162 0.67162 0.0
H1128 H 0.93632 0.42625 0.63703 0.0
H1129 H 0.95567 0.4241 0.66301 0.0
C1130 C 0.95204 0.4224 0.55102 0.0
C1131 C 0.97447 0.44065 0.56011 0.0
C1132 C 0.93958 0.40493 0.56891 0.0
C1133 C 0.94918 0.40522 0.59632 0.0
C1134 C 0.97177 0.42312 0.6053 0.0
H1135 H 0.88291 0.30693 0.72688 0.0
H1136 H 0.91217 0.33705 0.69985 0.0
C1137 C 0.98426 0.44075 0.58743 0.0
C1138 C 0.93535 0.38661 0.61514 0.0
H1139 H 0.90996 0.37645 0.67853 0.0
C1140 C 0.9267 0.36346 0.60474 0.0
C1141 C 0.92943 0.39138 0.64224 0.0
C1142 C 0.93737 0.41579 0.65411 0.0
C1143 C 0.91204 0.34501 0.62044 0.0
C1144 C 0.90571 0.34978 0.64717 0.0
C1145 C 0.9149 0.37287 0.65804 0.0
C1146 C 0.88836 0.33104 0.66321 0.0
C1147 C 0.90329 0.32051 0.60821 0.0
C1148 C 0.8653 0.31779 0.65161 0.0
C1149 C 0.8486 0.3007 0.66696 0.0
C1150 C 0.8546 0.29647 0.69429 0.0
C1151 C 0.87779 0.30962 0.70577 0.0
C1152 C 0.89449 0.32689 0.69045 0.0
H1153 H 0.91416 0.31977 0.59148 0.0
H1154 H 0.90286 0.30942 0.62534 0.0
H1155 H 0.88539 0.31319 0.59823 0.0
H1156 H 0.86013 0.32089 0.63078 0.0
H1157 H 0.83095 0.29076 0.65741 0.0
H1158 H 0.54222 0.99695 0.10534 0.0
H1159 H 0.55438 0.97272 0.12963 0.0
H1160 H 0.54169 0.93155 0.04995 0.0
H1161 H 0.5291 0.95529 0.02572 0.0
H1162 H 0.51905 0.90562 0.09243 0.0
H1163 H 0.6111 0.96518 0.13059 0.0
H1164 H 0.59226 0.97568 0.14078 0.0
H1165 H 0.59599 0.97218 0.10346 0.0
C1166 C 0.54247 0.98302 0.09291 0.0
C1167 C 0.53451 0.97789 0.06369 0.0
C1168 C 0.54956 0.96928 0.10677 0.0
C1169 C 0.54912 0.95046 0.09153 0.0
C1170 C 0.54219 0.94602 0.06209 0.0
H1171 H 0.58866 0.85466 0.16117 0.0
H1172 H 0.58707 0.88381 0.13273 0.0
C1173 C 0.53495 0.95958 0.04831 0.0
C1174 C 0.55319 0.93377 0.10672 0.0
H1175 H 0.59203 0.92877 0.15139 0.0
C1176 C 0.53511 0.91066 0.10506 0.0
C1177 C 0.57422 0.94033 0.123 0.0
C1178 C 0.5946 0.96465 0.12438 0.0
C1179 C 0.53721 0.89406 0.11989 0.0
C1180 C 0.55779 0.90084 0.13723 0.0
C1181 C 0.5762 0.92375 0.13824 0.0
C1182 C 0.55994 0.88443 0.15531 0.0
C1183 C 0.51732 0.86939 0.11699 0.0
C1184 C 0.54555 0.87561 0.17768 0.0
C1185 C 0.54641 0.85909 0.19385 0.0
C1186 C 0.56173 0.85109 0.18801 0.0
C1187 C 0.57668 0.8605 0.16613 0.0
C1188 C 0.57579 0.87709 0.1499 0.0
H1189 H 0.50551 0.86581 0.09752 0.0
H1190 H 0.52372 0.85695 0.11602 0.0
H1191 H 0.50715 0.86628 0.13596 0.0
H1192 H 0.53351 0.88141 0.18248 0.0
H1193 H 0.53512 0.85264 0.21106 0.0
H1194 H 0.5629 0.49617 0.49309 0.0
H1195 H 0.59918 0.50396 0.51906 0.0
H1196 H 0.58387 0.53397 0.59227 0.0
H1197 H 0.54778 0.52618 0.56685 0.0
H1198 H 0.6377 0.5469 0.54553 0.0
H1199 H 0.59352 0.48288 0.62469 0.0
H1200 H 0.57889 0.48305 0.59137 0.0
H1201 H 0.58355 0.50314 0.62135 0.0
C1202 C 0.56732 0.5045 0.51468 0.0
C1203 C 0.55231 0.51035 0.52797 0.0
C1204 C 0.58804 0.50894 0.52946 0.0
C1205 C 0.59397 0.51916 0.55775 0.0
C1206 C 0.57939 0.52565 0.57066 0.0
H1207 H 0.70078 0.55936 0.69446 0.0
H1208 H 0.66781 0.55303 0.66203 0.0
C1209 C 0.55877 0.52124 0.556 0.0
C1210 C 0.61521 0.52291 0.57419 0.0
H1211 H 0.63375 0.50942 0.63559 0.0
C1212 C 0.63691 0.53855 0.56506 0.0
C1213 C 0.61406 0.51194 0.59963 0.0
C1214 C 0.59127 0.49414 0.60975 0.0
C1215 C 0.65752 0.54419 0.58135 0.0
C1216 C 0.65631 0.53364 0.60717 0.0
C1217 C 0.63462 0.51762 0.61591 0.0
C1218 C 0.67725 0.53912 0.6258 0.0
C1219 C 0.68037 0.56191 0.57135 0.0
C1220 C 0.69349 0.53349 0.61611 0.0
C1221 C 0.71228 0.53714 0.63458 0.0
C1222 C 0.71498 0.54638 0.66297 0.0
C1223 C 0.699 0.55236 0.67254 0.0
C1224 C 0.68022 0.54869 0.6541 0.0
H1225 H 0.67814 0.57209 0.55473 0.0
H1226 H 0.69201 0.57403 0.58962 0.0
H1227 H 0.68897 0.55294 0.56195 0.0
H1228 H 0.69129 0.52568 0.59455 0.0
H1229 H 0.7244 0.53226 0.62699 0.0
H1230 H 0.05063 0.57669 0.01207 0.0
H1231 H 0.07751 0.61306 0.03995 0.0
H1232 H 0.03254 0.59316 0.10883 0.0
H1233 H 0.00557 0.55645 0.08124 0.0
H1234 H 0.07244 0.64959 0.06581 0.0
H1235 H 0.09454 0.60308 0.14536 0.0
H1236 H 0.07883 0.5893 0.1111 0.0
H1237 H 0.0643 0.59381 0.1398 0.0
C1238 C 0.0463 0.58008 0.03305 0.0
C1239 C 0.02609 0.56353 0.04462 0.0
C1240 C 0.06166 0.60092 0.04888 0.0
C1241 C 0.05714 0.60558 0.07654 0.0
C1242 C 0.03646 0.58966 0.08764 0.0
H1243 H 0.14314 0.71059 0.21211 0.0
H1244 H 0.11044 0.6799 0.18143 0.0
C1245 C 0.02106 0.56874 0.07183 0.0
C1246 C 0.07481 0.62642 0.09432 0.0
H1247 H 0.11241 0.64355 0.15412 0.0
C1248 C 0.08116 0.64835 0.08519 0.0
C1249 C 0.08622 0.62462 0.1194 0.0
C1250 C 0.08084 0.60147 0.12946 0.0
C1251 C 0.09853 0.66863 0.1008 0.0
C1252 C 0.10996 0.66678 0.12582 0.0
C1253 C 0.10351 0.64485 0.13495 0.0
C1254 C 0.1288 0.68724 0.14303 0.0
C1255 C 0.10431 0.69183 0.09063 0.0
C1256 C 0.14986 0.70165 0.13146 0.0
C1257 C 0.16851 0.7193 0.14895 0.0
C1258 C 0.16625 0.72257 0.17814 0.0
C1259 C 0.14507 0.70846 0.18951 0.0
C1260 C 0.12648 0.69097 0.17208 0.0
H1261 H 0.09029 0.69046 0.07552 0.0
H1262 H 0.10743 0.70442 0.10903 0.0
H1263 H 0.12035 0.69875 0.07929 0.0
H1264 H 0.15214 0.69869 0.10923 0.0
H1265 H 0.18487 0.72987 0.14 0.0
loop_
_geom_bond_atom_site_label_1
_geom_bond_atom_site_label_2
_geom_bond_distance
_geom_bond_site_symmetry_2
_ccdc_geom_bond_type
C0 O2 1.247 . S
C0 O4 1.258 . S
C1 O8 1.247 . S
C1 O9 1.258 . S
O2 C0 1.247 . S
O2 Zn3 2.028 1_455 S
Zn3 O2 2.028 1_655 S
Zn3 O7 2.035 1_554 S
Zn3 O9 2.035 1_554 S
Zn3 O10 2.028 1_655 S
O4 C0 1.258 . S
O4 Zn5 2.035 1_554 S
Zn5 O4 2.035 1_556 S
Zn5 O6 2.028 1_455 S
Zn5 O8 2.028 1_455 S
Zn5 O11 2.035 1_556 S
O6 Zn5 2.028 1_655 S
O6 C12 1.247 . S
O7 Zn3 2.035 1_556 S
O7 C12 1.258 . S
O8 C1 1.247 . S
O8 Zn5 2.028 1_655 S
O9 C1 1.258 . S
O9 Zn3 2.035 1_556 S
O10 Zn3 2.028 1_455 S
O10 C13 1.247 . S
O11 Zn5 2.035 1_554 S
O11 C13 1.258 . S
C12 O6 1.247 . S
C12 O7 1.258 . S
C13 O10 1.247 . S
C13 O11 1.258 . S
C14 O16 1.247 . S
C14 O18 1.258 . S
C15 O22 1.247 . S
C15 O23 1.258 . S
O16 C14 1.247 . S
O16 Zn17 2.028 1_545 S
Zn17 O16 2.028 1_565 S
Zn17 O21 2.035 . S
Zn17 O23 2.035 . S
Zn17 O24 2.028 1_565 S
O18 C14 1.258 . S
O18 Zn19 2.035 . S
Zn19 O18 2.035 . S
Zn19 O20 2.028 1_545 S
Zn19 O22 2.028 1_545 S
Zn19 O25 2.035 . S
O20 Zn19 2.028 1_565 S
O20 C26 1.247 . S
O21 Zn17 2.035 . S
O21 C26 1.258 . S
O22 C15 1.247 . S
O22 Zn19 2.028 1_565 S
O23 C15 1.258 . S
O23 Zn17 2.035 . S
O24 Zn17 2.028 1_545 S
O24 C27 1.247 . S
O25 Zn19 2.035 . S
O25 C27 1.258 . S
C26 O20 1.247 . S
C26 O21 1.258 . S
C27 O24 1.247 . S
C27 O25 1.258 . S
C28 O30 1.247 . S
C28 O32 1.258 . S
C29 O36 1.247 . S
C29 O37 1.258 . S
O30 C28 1.247 . S
O30 Zn31 2.028 . S
Zn31 O30 2.028 . S
Zn31 O35 2.035 1_556 S
Zn31 O37 2.035 1_556 S
Zn31 O38 2.028 . S
O32 C28 1.258 . S
O32 Zn33 2.035 1_556 S
Zn33 O32 2.035 1_554 S
Zn33 O34 2.028 . S
Zn33 O36 2.028 . S
Zn33 O39 2.035 1_554 S
O34 Zn33 2.028 . S
O34 C40 1.247 . S
O35 Zn31 2.035 1_554 S
O35 C40 1.258 . S
O36 C29 1.247 . S
O36 Zn33 2.028 . S
O37 C29 1.258 . S
O37 Zn31 2.035 1_554 S
O38 Zn31 2.028 . S
O38 C41 1.247 . S
O39 Zn33 2.035 1_556 S
O39 C41 1.258 . S
C40 O34 1.247 . S
C40 O35 1.258 . S
C41 O38 1.247 . S
C41 O39 1.258 . S
C42 O44 1.247 . S
C42 O46 1.258 . S
C43 O50 1.247 . S
C43 O51 1.281 . S
O44 C42 1.247 . S
O44 Zn45 2.028 . S
Zn45 O44 2.028 . S
Zn45 O49 2.035 1_455 S
Zn45 O51 2.028 1_455 S
Zn45 O52 2.028 . S
O46 C42 1.258 . S
O46 Zn47 2.035 1_455 S
Zn47 O46 2.035 1_655 S
Zn47 O48 2.028 . S
Zn47 O50 2.028 . S
Zn47 O53 2.035 1_655 S
O48 Zn47 2.028 . S
O48 C54 1.247 . S
O49 Zn45 2.035 1_655 S
O49 C54 1.258 . S
O50 C43 1.247 . S
O50 Zn47 2.028 . S
O51 C43 1.281 . S
O51 Zn45 2.028 1_655 S
O52 Zn45 2.028 . S
O52 C55 1.247 . S
O53 Zn47 2.035 1_455 S
O53 C55 1.258 . S
C54 O48 1.247 . S
C54 O49 1.258 . S
C55 O52 1.247 . S
C55 O53 1.258 . S
C56 O58 1.299 . S
C56 O60 1.258 . S
C57 O64 1.247 . S
C57 O65 1.258 . S
O58 C56 1.299 . S
O58 Zn59 1.976 1_565 S
Zn59 O58 1.976 1_545 S
Zn59 O63 2.035 1_554 S
Zn59 O65 2.035 1_554 S
Zn59 O66 2.023 1_545 S
O60 C56 1.258 . S
O60 Zn61 2.035 1_554 S
Zn61 O60 2.035 1_556 S
Zn61 O62 2.028 1_565 S
Zn61 O64 2.028 1_565 S
Zn61 O67 2.035 1_556 S
O62 Zn61 2.028 1_545 S
O62 C68 1.247 . S
O63 Zn59 2.035 1_556 S
O63 C68 1.258 . S
O64 C57 1.247 . S
O64 Zn61 2.028 1_545 S
O65 C57 1.258 . S
O65 Zn59 2.035 1_556 S
O66 Zn59 2.023 1_565 S
O66 C69 1.263 . S
O67 Zn61 2.035 1_554 S
O67 C69 1.258 . S
C68 O62 1.247 . S
C68 O63 1.258 . S
C69 O66 1.263 . S
C69 O67 1.258 . S
C70 O72 1.247 . S
C70 O74 1.258 . S
C71 O78 1.247 . S
C71 O79 1.258 . S
O72 C70 1.247 . S
O72 Zn73 2.028 . S
Zn73 O72 2.028 . S
Zn73 O77 2.035 . S
Zn73 O79 2.035 . S
Zn73 O80 2.028 . S
O74 C70 1.258 . S
O74 Zn75 2.035 . S
Zn75 O74 2.035 . S
Zn75 O76 2.028 . S
Zn75 O78 2.028 . S
Zn75 O81 2.035 . S
O76 Zn75 2.028 . S
O76 C82 1.247 . S
O77 Zn73 2.035 . S
O77 C82 1.258 . S
O78 C71 1.247 . S
O78 Zn75 2.028 . S
O79 C71 1.258 . S
O79 Zn73 2.035 . S
O80 Zn73 2.028 . S
O80 C83 1.247 . S
O81 Zn75 2.035 . S
O81 C83 1.258 . S
C82 O76 1.247 . S
C82 O77 1.258 . S
C83 O80 1.247 . S
C83 O81 1.258 . S
C84 C85 1.443 . S
C84 N88 1.376 . S
C84 C122 1.389 . S
C85 C84 1.443 . S
C85 C86 1.340 . S
C85 H125 0.951 . S
C86 C85 1.340 . S
C86 C87 1.439 . S
C86 H126 0.950 . S
C87 C86 1.439 . S
C87 N88 1.374 . S
C87 C121 1.395 . S
N88 C84 1.376 . S
N88 C87 1.374 . S
N88 Co89 2.008 . S
Co89 N88 2.008 . S
Co89 N90 1.995 . S
Co89 N95 2.008 . S
Co89 N100 1.995 . S
Co89 N105 2.282 . S
Co89 N111 2.282 . S
N90 Co89 1.995 . S
N90 C91 1.376 . S
N90 C94 1.383 . S
C91 N90 1.376 . S
C91 C92 1.446 . S
C91 C121 1.391 . S
C92 C91 1.446 . S
C92 C93 1.339 . S
C92 H127 0.949 . S
C93 C92 1.339 . S
C93 C94 1.439 . S
C93 H128 0.950 . S
C94 N90 1.383 . S
C94 C93 1.439 . S
C94 C123 1.392 . S
N95 Co89 2.008 . S
N95 C96 1.376 . S
N95 C99 1.374 . S
C96 N95 1.376 . S
C96 C97 1.443 . S
C96 C123 1.389 . S
C97 C96 1.443 . S
C97 C98 1.340 . S
C97 H129 0.951 . S
C98 C97 1.340 . S
C98 C99 1.439 . S
C98 H130 0.950 . S
C99 N95 1.374 . S
C99 C98 1.439 . S
C99 C124 1.395 . S
N100 Co89 1.995 . S
N100 C101 1.376 . S
N100 C104 1.383 . S
C101 N100 1.376 . S
C101 C102 1.446 . S
C101 C124 1.391 . S
C102 C101 1.446 . S
C102 C103 1.339 . S
C102 H131 0.949 . S
C103 C102 1.339 . S
C103 C104 1.439 . S
C103 H132 0.950 . S
C104 N100 1.383 . S
C104 C103 1.439 . S
C104 C122 1.392 . S
N105 Co89 2.282 . S
N105 C108 1.332 . S
N105 C110 1.332 . S
C106 C107 1.386 . S
C106 C109 1.388 . S
C107 C106 1.386 . S
C107 C108 1.382 . S
C107 H133 0.950 . S
C108 N105 1.332 . S
C108 C107 1.382 . S
C108 H119 0.952 . S
C109 C106 1.388 . S
C109 C110 1.382 . S
C109 H134 0.950 . S
C110 N105 1.332 . S
C110 C109 1.382 . S
C110 H120 0.948 . S
N111 Co89 2.282 . S
N111 C115 1.332 . S
N111 C116 1.332 . S
C112 C113 1.388 . S
C112 C116 1.382 . S
C112 H135 0.950 . S
C113 C112 1.388 . S
C113 C114 1.386 . S
C114 C113 1.386 . S
C114 C115 1.382 . S
C114 H136 0.950 . S
C115 N111 1.332 . S
C115 C114 1.382 . S
C115 H117 0.952 . S
C116 N111 1.332 . S
C116 C112 1.382 . S
C116 H118 0.948 . S
H117 C115 0.952 . S
H118 C116 0.948 . S
H119 C108 0.952 . S
H120 C110 0.948 . S
C121 C87 1.395 . S
C121 C91 1.391 . S
C122 C84 1.389 . S
C122 C104 1.392 . S
C123 C94 1.392 . S
C123 C96 1.389 . S
C124 C99 1.395 . S
C124 C101 1.391 . S
H125 C85 0.951 . S
H126 C86 0.950 . S
H127 C92 0.949 . S
H128 C93 0.950 . S
H129 C97 0.951 . S
H130 C98 0.950 . S
H131 C102 0.949 . S
H132 C103 0.950 . S
H133 C107 0.950 . S
H134 C109 0.950 . S
H135 C112 0.950 . S
H136 C114 0.950 . S
C137 C138 1.443 . S
C137 N141 1.376 . S
C137 C175 1.389 . S
C138 C137 1.443 . S
C138 C139 1.340 . S
C138 H178 0.951 . S
C139 C138 1.340 . S
C139 C140 1.439 . S
C139 H179 0.950 . S
C140 C139 1.439 . S
C140 N141 1.374 . S
C140 C174 1.395 . S
N141 C137 1.376 . S
N141 C140 1.374 . S
N141 Co142 2.008 . S
Co142 N141 2.008 . S
Co142 N143 1.995 . S
Co142 N148 2.008 . S
Co142 N153 1.995 . S
Co142 N158 2.282 . S
Co142 N164 2.282 . S
N143 Co142 1.995 . S
N143 C144 1.376 . S
N143 C147 1.383 . S
C144 N143 1.376 . S
C144 C145 1.446 . S
C144 C174 1.391 . S
C145 C144 1.446 . S
C145 C146 1.339 . S
C145 H180 0.949 . S
C146 C145 1.339 . S
C146 C147 1.439 . S
C146 H181 0.950 . S
C147 N143 1.383 . S
C147 C146 1.439 . S
C147 C176 1.392 . S
N148 Co142 2.008 . S
N148 C149 1.376 . S
N148 C152 1.374 . S
C149 N148 1.376 . S
C149 C150 1.443 . S
C149 C176 1.389 . S
C150 C149 1.443 . S
C150 C151 1.340 . S
C150 H182 0.951 . S
C151 C150 1.340 . S
C151 C152 1.439 . S
C151 H183 0.950 . S
C152 N148 1.374 . S
C152 C151 1.439 . S
C152 C177 1.395 . S
N153 Co142 1.995 . S
N153 C154 1.376 . S
N153 C157 1.383 . S
C154 N153 1.376 . S
C154 C155 1.446 . S
C154 C177 1.391 . S
C155 C154 1.446 . S
C155 C156 1.339 . S
C155 H184 0.949 . S
C156 C155 1.339 . S
C156 C157 1.439 . S
C156 H185 0.950 . S
C157 N153 1.383 . S
C157 C156 1.439 . S
C157 C175 1.392 . S
N158 Co142 2.282 . S
N158 C161 1.332 . S
N158 C163 1.332 . S
C159 C160 1.386 . S
C159 C162 1.388 . S
C160 C159 1.386 . S
C160 C161 1.382 . S
C160 H186 0.950 . S
C161 N158 1.332 . S
C161 C160 1.382 . S
C161 H172 0.952 . S
C162 C159 1.388 . S
C162 C163 1.382 . S
C162 H187 0.950 . S
C163 N158 1.332 . S
C163 C162 1.382 . S
C163 H173 0.948 . S
N164 Co142 2.282 . S
N164 C168 1.332 . S
N164 C169 1.332 . S
C165 C166 1.388 . S
C165 C169 1.382 . S
C165 H188 0.950 . S
C166 C165 1.388 . S
C166 C167 1.386 . S
C167 C166 1.386 . S
C167 C168 1.382 . S
C167 H189 0.950 . S
C168 N164 1.332 . S
C168 C167 1.382 . S
C168 H170 0.952 . S
C169 N164 1.332 . S
C169 C165 1.382 . S
C169 H171 0.948 . S
H170 C168 0.952 . S
H171 C169 0.948 . S
H172 C161 0.952 . S
H173 C163 0.948 . S
C174 C140 1.395 . S
C174 C144 1.391 . S
C175 C137 1.389 . S
C175 C157 1.392 . S
C176 C147 1.392 . S
C176 C149 1.389 . S
C177 C152 1.395 . S
C177 C154 1.391 . S
H178 C138 0.951 . S
H179 C139 0.950 . S
H180 C145 0.949 . S
H181 C146 0.950 . S
H182 C150 0.951 . S
H183 C151 0.950 . S
H184 C155 0.949 . S
H185 C156 0.950 . S
H186 C160 0.950 . S
H187 C162 0.950 . S
H188 C165 0.950 . S
H189 C167 0.950 . S
C190 C191 1.443 . S
C190 N194 1.376 . S
C190 C228 1.389 . S
C191 C190 1.443 . S
C191 C192 1.340 . S
C191 H231 0.951 . S
C192 C191 1.340 . S
C192 C193 1.439 . S
C192 H232 0.950 . S
C193 C192 1.439 . S
C193 N194 1.374 . S
C193 C227 1.395 . S
N194 C190 1.376 . S
N194 C193 1.374 . S
N194 Co195 2.008 . S
Co195 N194 2.008 . S
Co195 N196 1.995 . S
Co195 N201 2.008 . S
Co195 N206 1.995 . S
Co195 N211 2.282 . S
Co195 N217 2.282 . S
N196 Co195 1.995 . S
N196 C197 1.376 . S
N196 C200 1.383 . S
C197 N196 1.376 . S
C197 C198 1.446 . S
C197 C227 1.391 . S
C198 C197 1.446 . S
C198 C199 1.339 . S
C198 H233 0.949 . S
C199 C198 1.339 . S
C199 C200 1.439 . S
C199 H234 0.950 . S
C200 N196 1.383 . S
C200 C199 1.439 . S
C200 C229 1.392 . S
N201 Co195 2.008 . S
N201 C202 1.376 . S
N201 C205 1.374 . S
C202 N201 1.376 . S
C202 C203 1.443 . S
C202 C229 1.389 . S
C203 C202 1.443 . S
C203 C204 1.340 . S
C203 H235 0.951 . S
C204 C203 1.340 . S
C204 C205 1.439 . S
C204 H236 0.950 . S
C205 N201 1.374 . S
C205 C204 1.439 . S
C205 C230 1.395 . S
N206 Co195 1.995 . S
N206 C207 1.376 . S
N206 C210 1.383 . S
C207 N206 1.376 . S
C207 C208 1.446 . S
C207 C230 1.391 . S
C208 C207 1.446 . S
C208 C209 1.339 . S
C208 H237 0.949 . S
C209 C208 1.339 . S
C209 C210 1.439 . S
C209 H238 0.950 . S
C210 N206 1.383 . S
C210 C209 1.439 . S
C210 C228 1.392 . S
N211 Co195 2.282 . S
N211 C214 1.332 . S
N211 C216 1.332 . S
C212 C213 1.386 . S
C212 C215 1.388 . S
C213 C212 1.386 . S
C213 C214 1.382 . S
C213 H239 0.950 . S
C214 N211 1.332 . S
C214 C213 1.382 . S
C214 H225 0.952 . S
C215 C212 1.388 . S
C215 C216 1.382 . S
C215 H240 0.950 . S
C216 N211 1.332 . S
C216 C215 1.382 . S
C216 H226 0.948 . S
N217 Co195 2.282 . S
N217 C221 1.332 . S
N217 C222 1.332 . S
C218 C219 1.388 . S
C218 C222 1.382 . S
C218 H241 0.950 . S
C219 C218 1.388 . S
C219 C220 1.386 . S
C220 C219 1.386 . S
C220 C221 1.382 . S
C220 H242 0.950 . S
C221 N217 1.332 . S
C221 C220 1.382 . S
C221 H223 0.952 . S
C222 N217 1.332 . S
C222 C218 1.382 . S
C222 H224 0.948 . S
H223 C221 0.952 . S
H224 C222 0.948 . S
H225 C214 0.952 . S
H226 C216 0.948 . S
C227 C193 1.395 . S
C227 C197 1.391 . S
C228 C190 1.389 . S
C228 C210 1.392 . S
C229 C200 1.392 . S
C229 C202 1.389 . S
C230 C205 1.395 . S
C230 C207 1.391 . S
H231 C191 0.951 . S
H232 C192 0.950 . S
H233 C198 0.949 . S
H234 C199 0.950 . S
H235 C203 0.951 . S
H236 C204 0.950 . S
H237 C208 0.949 . S
H238 C209 0.950 . S
H239 C213 0.950 . S
H240 C215 0.950 . S
H241 C218 0.950 . S
H242 C220 0.950 . S
C243 C244 1.443 . S
C243 N247 1.376 . S
C243 C281 1.389 . S
C244 C243 1.443 . S
C244 C245 1.340 . S
C244 H284 0.951 . S
C245 C244 1.340 . S
C245 C246 1.439 . S
C245 H285 0.950 . S
C246 C245 1.439 . S
C246 N247 1.374 . S
C246 C280 1.395 . S
N247 C243 1.376 . S
N247 C246 1.374 . S
N247 Co248 2.008 . S
Co248 N247 2.008 . S
Co248 N249 1.995 . S
Co248 N254 2.008 . S
Co248 N259 1.995 . S
Co248 N264 2.282 . S
Co248 N270 2.282 . S
N249 Co248 1.995 . S
N249 C250 1.376 . S
N249 C253 1.383 . S
C250 N249 1.376 . S
C250 C251 1.446 . S
C250 C280 1.391 . S
C251 C250 1.446 . S
C251 C252 1.339 . S
C251 H286 0.949 . S
C252 C251 1.339 . S
C252 C253 1.439 . S
C252 H287 0.950 . S
C253 N249 1.383 . S
C253 C252 1.439 . S
C253 C282 1.392 . S
N254 Co248 2.008 . S
N254 C255 1.376 . S
N254 C258 1.374 . S
C255 N254 1.376 . S
C255 C256 1.443 . S
C255 C282 1.389 . S
C256 C255 1.443 . S
C256 C257 1.340 . S
C256 H288 0.951 . S
C257 C256 1.340 . S
C257 C258 1.439 . S
C257 H289 0.950 . S
C258 N254 1.374 . S
C258 C257 1.439 . S
C258 C283 1.395 . S
N259 Co248 1.995 . S
N259 C260 1.376 . S
N259 C263 1.383 . S
C260 N259 1.376 . S
C260 C261 1.446 . S
C260 C283 1.391 . S
C261 C260 1.446 . S
C261 C262 1.339 . S
C261 H290 0.949 . S
C262 C261 1.339 . S
C262 C263 1.439 . S
C262 H291 0.950 . S
C263 N259 1.383 . S
C263 C262 1.439 . S
C263 C281 1.392 . S
N264 Co248 2.282 . S
N264 C267 1.332 . S
N264 C269 1.332 . S
C265 C266 1.386 . S
C265 C268 1.388 . S
C266 C265 1.386 . S
C266 C267 1.382 . S
C266 H292 0.950 . S
C267 N264 1.332 . S
C267 C266 1.382 . S
C267 H278 0.952 . S
C268 C265 1.388 . S
C268 C269 1.382 . S
C268 H293 0.950 . S
C269 N264 1.332 . S
C269 C268 1.382 . S
C269 H279 0.948 . S
N270 Co248 2.282 . S
N270 C274 1.332 . S
N270 C275 1.332 . S
C271 C272 1.388 . S
C271 C275 1.382 . S
C271 H294 0.950 . S
C272 C271 1.388 . S
C272 C273 1.386 . S
C273 C272 1.386 . S
C273 C274 1.382 . S
C273 H295 0.950 . S
C274 N270 1.332 . S
C274 C273 1.382 . S
C274 H276 0.952 . S
C275 N270 1.332 . S
C275 C271 1.382 . S
C275 H277 0.948 . S
H276 C274 0.952 . S
H277 C275 0.948 . S
H278 C267 0.952 . S
H279 C269 0.948 . S
C280 C246 1.395 . S
C280 C250 1.391 . S
C281 C243 1.389 . S
C281 C263 1.392 . S
C282 C253 1.392 . S
C282 C255 1.389 . S
C283 C258 1.395 . S
C283 C260 1.391 . S
H284 C244 0.951 . S
H285 C245 0.950 . S
H286 C251 0.949 . S
H287 C252 0.950 . S
H288 C256 0.951 . S
H289 C257 0.950 . S
H290 C261 0.949 . S
H291 C262 0.950 . S
H292 C266 0.950 . S
H293 C268 0.950 . S
H294 C271 0.950 . S
H295 C273 0.950 . S
C296 C297 1.443 . S
C296 N300 1.376 . S
C296 C334 1.389 . S
C297 C296 1.443 . S
C297 C298 1.340 . S
C297 H337 0.951 . S
C298 C297 1.340 . S
C298 C299 1.439 . S
C298 H338 0.950 . S
C299 C298 1.439 . S
C299 N300 1.374 . S
C299 C333 1.395 . S
N300 C296 1.376 . S
N300 C299 1.374 . S
N300 Co301 2.008 . S
Co301 N300 2.008 . S
Co301 N302 1.995 . S
Co301 N307 2.008 . S
Co301 N312 1.995 . S
Co301 N317 2.282 . S
Co301 N323 2.282 . S
N302 Co301 1.995 . S
N302 C303 1.376 . S
N302 C306 1.383 . S
C303 N302 1.376 . S
C303 C304 1.446 . S
C303 C333 1.391 . S
C304 C303 1.446 . S
C304 C305 1.339 . S
C304 H339 0.949 . S
C305 C304 1.339 . S
C305 C306 1.439 . S
C305 H340 0.950 . S
C306 N302 1.383 . S
C306 C305 1.439 . S
C306 C335 1.392 . S
N307 Co301 2.008 . S
N307 C308 1.376 . S
N307 C311 1.374 . S
C308 N307 1.376 . S
C308 C309 1.443 . S
C308 C335 1.389 . S
C309 C308 1.443 . S
C309 C310 1.340 . S
C309 H341 0.951 . S
C310 C309 1.340 . S
C310 C311 1.439 . S
C310 H342 0.950 . S
C311 N307 1.374 . S
C311 C310 1.439 . S
C311 C336 1.395 . S
N312 Co301 1.995 . S
N312 C313 1.376 . S
N312 C316 1.383 . S
C313 N312 1.376 . S
C313 C314 1.446 . S
C313 C336 1.391 . S
C314 C313 1.446 . S
C314 C315 1.339 . S
C314 H343 0.949 . S
C315 C314 1.339 . S
C315 C316 1.439 . S
C315 H344 0.950 . S
C316 N312 1.383 . S
C316 C315 1.439 . S
C316 C334 1.392 . S
N317 Co301 2.282 . S
N317 C320 1.332 . S
N317 C322 1.332 . S
C318 C319 1.386 . S
C318 C321 1.388 . S
C319 C318 1.386 . S
C319 C320 1.382 . S
C319 H345 0.950 . S
C320 N317 1.332 . S
C320 C319 1.382 . S
C320 H331 0.952 . S
C321 C318 1.388 . S
C321 C322 1.382 . S
C321 H346 0.950 . S
C322 N317 1.332 . S
C322 C321 1.382 . S
C322 H332 0.948 . S
N323 Co301 2.282 . S
N323 C327 1.332 . S
N323 C328 1.332 . S
C324 C325 1.388 . S
C324 C328 1.382 . S
C324 H347 0.950 . S
C325 C324 1.388 . S
C325 C326 1.386 . S
C326 C325 1.386 . S
C326 C327 1.382 . S
C326 H348 0.950 . S
C327 N323 1.332 . S
C327 C326 1.382 . S
C327 H329 0.952 . S
C328 N323 1.332 . S
C328 C324 1.382 . S
C328 H330 0.948 . S
H329 C327 0.952 . S
H330 C328 0.948 . S
H331 C320 0.952 . S
H332 C322 0.948 . S
C333 C299 1.395 . S
C333 C303 1.391 . S
C334 C296 1.389 . S
C334 C316 1.392 . S
C335 C306 1.392 . S
C335 C308 1.389 . S
C336 C311 1.395 . S
C336 C313 1.391 . S
H337 C297 0.951 . S
H338 C298 0.950 . S
H339 C304 0.949 . S
H340 C305 0.950 . S
H341 C309 0.951 . S
H342 C310 0.950 . S
H343 C314 0.949 . S
H344 C315 0.950 . S
H345 C319 0.950 . S
H346 C321 0.950 . S
H347 C324 0.950 . S
H348 C326 0.950 . S
C349 C350 1.443 . S
C349 N353 1.376 . S
C349 C387 1.389 . S
C350 C349 1.443 . S
C350 C351 1.340 . S
C350 H390 0.951 . S
C351 C350 1.340 . S
C351 C352 1.439 . S
C351 H391 0.950 . S
C352 C351 1.439 . S
C352 N353 1.374 . S
C352 C386 1.395 . S
N353 C349 1.376 . S
N353 C352 1.374 . S
N353 Co354 2.008 . S
Co354 N353 2.008 . S
Co354 N355 1.995 . S
Co354 N360 2.008 . S
Co354 N365 1.995 . S
Co354 N370 2.282 . S
Co354 N376 2.282 . S
N355 Co354 1.995 . S
N355 C356 1.376 . S
N355 C359 1.383 . S
C356 N355 1.376 . S
C356 C357 1.446 . S
C356 C386 1.391 . S
C357 C356 1.446 . S
C357 C358 1.339 . S
C357 H392 0.949 . S
C358 C357 1.339 . S
C358 C359 1.439 . S
C358 H393 0.950 . S
C359 N355 1.383 . S
C359 C358 1.439 . S
C359 C388 1.392 . S
N360 Co354 2.008 . S
N360 C361 1.376 . S
N360 C364 1.374 . S
C361 N360 1.376 . S
C361 C362 1.443 . S
C361 C388 1.389 . S
C362 C361 1.443 . S
C362 C363 1.340 . S
C362 H394 0.951 . S
C363 C362 1.340 . S
C363 C364 1.439 . S
C363 H395 0.950 . S
C364 N360 1.374 . S
C364 C363 1.439 . S
C364 C389 1.395 . S
N365 Co354 1.995 . S
N365 C366 1.376 . S
N365 C369 1.383 . S
C366 N365 1.376 . S
C366 C367 1.446 . S
C366 C389 1.391 . S
C367 C366 1.446 . S
C367 C368 1.339 . S
C367 H396 0.949 . S
C368 C367 1.339 . S
C368 C369 1.439 . S
C368 H397 0.950 . S
C369 N365 1.383 . S
C369 C368 1.439 . S
C369 C387 1.392 . S
N370 Co354 2.282 . S
N370 C373 1.332 . S
N370 C375 1.332 . S
C371 C372 1.386 . S
C371 C374 1.388 . S
C372 C371 1.386 . S
C372 C373 1.382 . S
C372 H398 0.950 . S
C373 N370 1.332 . S
C373 C372 1.382 . S
C373 H384 0.952 . S
C374 C371 1.388 . S
C374 C375 1.382 . S
C374 H399 0.950 . S
C375 N370 1.332 . S
C375 C374 1.382 . S
C375 H385 0.948 . S
N376 Co354 2.282 . S
N376 C380 1.332 . S
N376 C381 1.332 . S
C377 C378 1.388 . S
C377 C381 1.382 . S
C377 H400 0.950 . S
C378 C377 1.388 . S
C378 C379 1.386 . S
C379 C378 1.386 . S
C379 C380 1.382 . S
C379 H401 0.950 . S
C380 N376 1.332 . S
C380 C379 1.382 . S
C380 H382 0.952 . S
C381 N376 1.332 . S
C381 C377 1.382 . S
C381 H383 0.948 . S
H382 C380 0.952 . S
H383 C381 0.948 . S
H384 C373 0.952 . S
H385 C375 0.948 . S
C386 C352 1.395 . S
C386 C356 1.391 . S
C387 C349 1.389 . S
C387 C369 1.392 . S
C388 C359 1.392 . S
C388 C361 1.389 . S
C389 C364 1.395 . S
C389 C366 1.391 . S
H390 C350 0.951 . S
H391 C351 0.950 . S
H392 C357 0.949 . S
H393 C358 0.950 . S
H394 C362 0.951 . S
H395 C363 0.950 . S
H396 C367 0.949 . S
H397 C368 0.950 . S
H398 C372 0.950 . S
H399 C374 0.950 . S
H400 C377 0.950 . S
H401 C379 0.950 . S
H402 C410 0.929 . S
H403 C412 0.930 . S
H404 C414 0.930 . S
H405 C417 0.929 . S
H406 C420 0.930 . S
H407 C422 0.960 . S
H408 C422 0.960 . S
H409 C422 0.960 . S
C410 H402 0.929 . S
C410 C411 1.377 . S
C410 C412 1.384 . S
C411 C410 1.377 . S
C411 C417 1.390 . S
C412 H403 0.930 . S
C412 C410 1.384 . S
C412 C413 1.372 . S
C413 C412 1.372 . S
C413 C414 1.400 . S
C413 C418 1.490 . S
C414 H404 0.930 . S
C414 C413 1.400 . S
C414 C417 1.386 . S
H415 C431 0.930 . S
H416 C432 0.931 . S
C417 H405 0.929 . S
C417 C411 1.390 . S
C417 C414 1.386 . S
C418 C413 1.490 . S
C418 C420 1.395 . S
C418 C421 1.403 . S
H419 C425 0.930 . S
C420 H406 0.930 . S
C420 C418 1.395 . S
C420 C423 1.403 . S
C421 C418 1.403 . S
C421 C422 1.524 . S
C421 C425 1.400 . S
C422 H407 0.960 . S
C422 H408 0.960 . S
C422 H409 0.960 . S
C422 C421 1.524 . S
C423 C420 1.403 . S
C423 C424 1.392 . S
C423 C427 1.495 . S
C424 C423 1.392 . S
C424 C425 1.385 . S
C424 C426 1.478 . S
C425 H419 0.930 . S
C425 C421 1.400 . S
C425 C424 1.385 . S
C426 C424 1.478 . S
C426 C428 1.381 . S
C426 C432 1.383 . S
C427 C423 1.495 . S
C427 H433 0.959 . S
C427 H434 0.961 . S
C427 H435 0.960 . S
C428 C426 1.381 . S
C428 C429 1.394 . S
C428 H436 0.930 . S
C429 C428 1.394 . S
C429 C430 1.383 . S
C429 H437 0.929 . S
C430 C429 1.383 . S
C430 C431 1.377 . S
C431 H415 0.930 . S
C431 C430 1.377 . S
C431 C432 1.379 . S
C432 H416 0.931 . S
C432 C426 1.383 . S
C432 C431 1.379 . S
H433 C427 0.959 . S
H434 C427 0.961 . S
H435 C427 0.960 . S
H436 C428 0.930 . S
H437 C429 0.929 . S
H438 C446 0.929 . S
H439 C448 0.930 . S
H440 C450 0.930 . S
H441 C453 0.929 . S
H442 C456 0.930 . S
H443 C458 0.960 . S
H444 C458 0.960 . S
H445 C458 0.960 . S
C446 H438 0.929 . S
C446 C447 1.377 . S
C446 C448 1.384 . S
C447 C446 1.377 . S
C447 C453 1.390 . S
C448 H439 0.930 . S
C448 C446 1.384 . S
C448 C449 1.372 . S
C449 C448 1.372 . S
C449 C450 1.400 . S
C449 C454 1.490 . S
C450 H440 0.930 . S
C450 C449 1.400 . S
C450 C453 1.386 . S
H451 C467 0.930 . S
H452 C468 0.931 . S
C453 H441 0.929 . S
C453 C447 1.390 . S
C453 C450 1.386 . S
C454 C449 1.490 . S
C454 C456 1.395 . S
C454 C457 1.403 . S
H455 C461 0.930 . S
C456 H442 0.930 . S
C456 C454 1.395 . S
C456 C459 1.403 . S
C457 C454 1.403 . S
C457 C458 1.524 . S
C457 C461 1.400 . S
C458 H443 0.960 . S
C458 H444 0.960 . S
C458 H445 0.960 . S
C458 C457 1.524 . S
C459 C456 1.403 . S
C459 C460 1.392 . S
C459 C463 1.495 . S
C460 C459 1.392 . S
C460 C461 1.385 . S
C460 C462 1.478 . S
C461 H455 0.930 . S
C461 C457 1.400 . S
C461 C460 1.385 . S
C462 C460 1.478 . S
C462 C464 1.381 . S
C462 C468 1.383 . S
C463 C459 1.495 . S
C463 H469 0.959 . S
C463 H470 0.961 . S
C463 H471 0.960 . S
C464 C462 1.381 . S
C464 C465 1.394 . S
C464 H472 0.930 . S
C465 C464 1.394 . S
C465 C466 1.383 . S
C465 H473 0.929 . S
C466 C465 1.383 . S
C466 C467 1.377 . S
C467 H451 0.930 . S
C467 C466 1.377 . S
C467 C468 1.379 . S
C468 H452 0.931 . S
C468 C462 1.383 . S
C468 C467 1.379 . S
H469 C463 0.959 . S
H470 C463 0.961 . S
H471 C463 0.960 . S
H472 C464 0.930 . S
H473 C465 0.929 . S
H474 C482 0.929 . S
H475 C484 0.930 . S
H476 C486 0.930 . S
H477 C489 0.929 . S
H478 C492 0.930 . S
H479 C494 0.960 . S
H480 C494 0.960 . S
H481 C494 0.960 . S
C482 H474 0.929 . S
C482 C483 1.377 . S
C482 C484 1.384 . S
C483 C482 1.377 . S
C483 C489 1.390 . S
C484 H475 0.930 . S
C484 C482 1.384 . S
C484 C485 1.372 . S
C485 C484 1.372 . S
C485 C486 1.400 . S
C485 C490 1.490 . S
C486 H476 0.930 . S
C486 C485 1.400 . S
C486 C489 1.386 . S
H487 C503 0.930 . S
H488 C504 0.931 . S
C489 H477 0.929 . S
C489 C483 1.390 . S
C489 C486 1.386 . S
C490 C485 1.490 . S
C490 C492 1.395 . S
C490 C493 1.403 . S
H491 C497 0.930 . S
C492 H478 0.930 . S
C492 C490 1.395 . S
C492 C495 1.403 . S
C493 C490 1.403 . S
C493 C494 1.524 . S
C493 C497 1.400 . S
C494 H479 0.960 . S
C494 H480 0.960 . S
C494 H481 0.960 . S
C494 C493 1.524 . S
C495 C492 1.403 . S
C495 C496 1.392 . S
C495 C499 1.495 . S
C496 C495 1.392 . S
C496 C497 1.385 . S
C496 C498 1.478 . S
C497 H491 0.930 . S
C497 C493 1.400 . S
C497 C496 1.385 . S
C498 C496 1.478 . S
C498 C500 1.381 . S
C498 C504 1.383 . S
C499 C495 1.495 . S
C499 H505 0.959 . S
C499 H506 0.961 . S
C499 H507 0.960 . S
C500 C498 1.381 . S
C500 C501 1.394 . S
C500 H508 0.930 . S
C501 C500 1.394 . S
C501 C502 1.383 . S
C501 H509 0.929 . S
C502 C501 1.383 . S
C502 C503 1.377 . S
C503 H487 0.930 . S
C503 C502 1.377 . S
C503 C504 1.379 . S
C504 H488 0.931 . S
C504 C498 1.383 . S
C504 C503 1.379 . S
H505 C499 0.959 . S
H506 C499 0.961 . S
H507 C499 0.960 . S
H508 C500 0.930 . S
H509 C501 0.929 . S
H510 C518 0.929 . S
H511 C520 0.930 . S
H512 C522 0.930 . S
H513 C525 0.929 . S
H514 C528 0.930 . S
H515 C530 0.960 . S
H516 C530 0.960 . S
H517 C530 0.960 . S
C518 H510 0.929 . S
C518 C519 1.377 . S
C518 C520 1.384 . S
C519 C518 1.377 . S
C519 C525 1.390 . S
C520 H511 0.930 . S
C520 C518 1.384 . S
C520 C521 1.372 . S
C521 C520 1.372 . S
C521 C522 1.400 . S
C521 C526 1.490 . S
C522 H512 0.930 . S
C522 C521 1.400 . S
C522 C525 1.386 . S
H523 C539 0.930 . S
H524 C540 0.931 . S
C525 H513 0.929 . S
C525 C519 1.390 . S
C525 C522 1.386 . S
C526 C521 1.490 . S
C526 C528 1.395 . S
C526 C529 1.403 . S
H527 C533 0.930 . S
C528 H514 0.930 . S
C528 C526 1.395 . S
C528 C531 1.403 . S
C529 C526 1.403 . S
C529 C530 1.524 . S
C529 C533 1.400 . S
C530 H515 0.960 . S
C530 H516 0.960 . S
C530 H517 0.960 . S
C530 C529 1.524 . S
C531 C528 1.403 . S
C531 C532 1.392 . S
C531 C535 1.495 . S
C532 C531 1.392 . S
C532 C533 1.385 . S
C532 C534 1.478 . S
C533 H527 0.930 . S
C533 C529 1.400 . S
C533 C532 1.385 . S
C534 C532 1.478 . S
C534 C536 1.381 . S
C534 C540 1.383 . S
C535 C531 1.495 . S
C535 H541 0.959 . S
C535 H542 0.961 . S
C535 H543 0.960 . S
C536 C534 1.381 . S
C536 C537 1.394 . S
C536 H544 0.930 . S
C537 C536 1.394 . S
C537 C538 1.383 . S
C537 H545 0.929 . S
C538 C537 1.383 . S
C538 C539 1.377 . S
C539 H523 0.930 . S
C539 C538 1.377 . S
C539 C540 1.379 . S
C540 H524 0.931 . S
C540 C534 1.383 . S
C540 C539 1.379 . S
H541 C535 0.959 . S
H542 C535 0.961 . S
H543 C535 0.960 . S
H544 C536 0.930 . S
H545 C537 0.929 . S
H546 C554 0.929 . S
H547 C556 0.930 . S
H548 C558 0.930 . S
H549 C561 0.929 . S
H550 C564 0.930 . S
H551 C566 0.960 . S
H552 C566 0.960 . S
H553 C566 0.960 . S
C554 H546 0.929 . S
C554 C555 1.377 . S
C554 C556 1.384 . S
C555 C554 1.377 . S
C555 C561 1.390 . S
C556 H547 0.930 . S
C556 C554 1.384 . S
C556 C557 1.372 . S
C557 C556 1.372 . S
C557 C558 1.400 . S
C557 C562 1.490 . S
C558 H548 0.930 . S
C558 C557 1.400 . S
C558 C561 1.386 . S
H559 C575 0.930 . S
H560 C576 0.931 . S
C561 H549 0.929 . S
C561 C555 1.390 . S
C561 C558 1.386 . S
C562 C557 1.490 . S
C562 C564 1.395 . S
C562 C565 1.403 . S
H563 C569 0.930 . S
C564 H550 0.930 . S
C564 C562 1.395 . S
C564 C567 1.403 . S
C565 C562 1.403 . S
C565 C566 1.524 . S
C565 C569 1.400 . S
C566 H551 0.960 . S
C566 H552 0.960 . S
C566 H553 0.960 . S
C566 C565 1.524 . S
C567 C564 1.403 . S
C567 C568 1.392 . S
C567 C571 1.495 . S
C568 C567 1.392 . S
C568 C569 1.385 . S
C568 C570 1.478 . S
C569 H563 0.930 . S
C569 C565 1.400 . S
C569 C568 1.385 . S
C570 C568 1.478 . S
C570 C572 1.381 . S
C570 C576 1.383 . S
C571 C567 1.495 . S
C571 H577 0.959 . S
C571 H578 0.961 . S
C571 H579 0.960 . S
C572 C570 1.381 . S
C572 C573 1.394 . S
C572 H580 0.930 . S
C573 C572 1.394 . S
C573 C574 1.383 . S
C573 H581 0.929 . S
C574 C573 1.383 . S
C574 C575 1.377 . S
C575 H559 0.930 . S
C575 C574 1.377 . S
C575 C576 1.379 . S
C576 H560 0.931 . S
C576 C570 1.383 . S
C576 C575 1.379 . S
H577 C571 0.959 . S
H578 C571 0.961 . S
H579 C571 0.960 . S
H580 C572 0.930 . S
H581 C573 0.929 . S
H582 C590 0.929 . S
H583 C592 0.930 . S
H584 C594 0.930 . S
H585 C597 0.929 . S
H586 C600 0.930 . S
H587 C602 0.960 . S
H588 C602 0.960 . S
H589 C602 0.960 . S
C590 H582 0.929 . S
C590 C591 1.377 . S
C590 C592 1.384 . S
C591 C590 1.377 . S
C591 C597 1.390 . S
C592 H583 0.930 . S
C592 C590 1.384 . S
C592 C593 1.372 . S
C593 C592 1.372 . S
C593 C594 1.400 . S
C593 C598 1.490 . S
C594 H584 0.930 . S
C594 C593 1.400 . S
C594 C597 1.386 . S
H595 C611 0.930 . S
H596 C612 0.931 . S
C597 H585 0.929 . S
C597 C591 1.390 . S
C597 C594 1.386 . S
C598 C593 1.490 . S
C598 C600 1.395 . S
C598 C601 1.403 . S
H599 C605 0.930 . S
C600 H586 0.930 . S
C600 C598 1.395 . S
C600 C603 1.403 . S
C601 C598 1.403 . S
C601 C602 1.524 . S
C601 C605 1.400 . S
C602 H587 0.960 . S
C602 H588 0.960 . S
C602 H589 0.960 . S
C602 C601 1.524 . S
C603 C600 1.403 . S
C603 C604 1.392 . S
C603 C607 1.495 . S
C604 C603 1.392 . S
C604 C605 1.385 . S
C604 C606 1.478 . S
C605 H599 0.930 . S
C605 C601 1.400 . S
C605 C604 1.385 . S
C606 C604 1.478 . S
C606 C608 1.381 . S
C606 C612 1.383 . S
C607 C603 1.495 . S
C607 H613 0.959 . S
C607 H614 0.961 . S
C607 H615 0.960 . S
C608 C606 1.381 . S
C608 C609 1.394 . S
C608 H616 0.930 . S
C609 C608 1.394 . S
C609 C610 1.383 . S
C609 H617 0.929 . S
C610 C609 1.383 . S
C610 C611 1.377 . S
C611 H595 0.930 . S
C611 C610 1.377 . S
C611 C612 1.379 . S
C612 H596 0.931 . S
C612 C606 1.383 . S
C612 C611 1.379 . S
H613 C607 0.959 . S
H614 C607 0.961 . S
H615 C607 0.960 . S
H616 C608 0.930 . S
H617 C609 0.929 . S
H618 C626 0.929 . S
H619 C628 0.930 . S
H620 C630 0.930 . S
H621 C633 0.929 . S
H622 C636 0.930 . S
H623 C638 0.960 . S
H624 C638 0.960 . S
H625 C638 0.960 . S
C626 H618 0.929 . S
C626 C627 1.377 . S
C626 C628 1.384 . S
C627 C626 1.377 . S
C627 C633 1.390 . S
C628 H619 0.930 . S
C628 C626 1.384 . S
C628 C629 1.372 . S
C629 C628 1.372 . S
C629 C630 1.400 . S
C629 C634 1.490 . S
C630 H620 0.930 . S
C630 C629 1.400 . S
C630 C633 1.386 . S
H631 C647 0.930 . S
H632 C648 0.931 . S
C633 H621 0.929 . S
C633 C627 1.390 . S
C633 C630 1.386 . S
C634 C629 1.490 . S
C634 C636 1.395 . S
C634 C637 1.403 . S
H635 C641 0.930 . S
C636 H622 0.930 . S
C636 C634 1.395 . S
C636 C639 1.403 . S
C637 C634 1.403 . S
C637 C638 1.524 . S
C637 C641 1.400 . S
C638 H623 0.960 . S
C638 H624 0.960 . S
C638 H625 0.960 . S
C638 C637 1.524 . S
C639 C636 1.403 . S
C639 C640 1.392 . S
C639 C643 1.495 . S
C640 C639 1.392 . S
C640 C641 1.385 . S
C640 C642 1.478 . S
C641 H635 0.930 . S
C641 C637 1.400 . S
C641 C640 1.385 . S
C642 C640 1.478 . S
C642 C644 1.381 . S
C642 C648 1.383 . S
C643 C639 1.495 . S
C643 H649 0.959 . S
C643 H650 0.961 . S
C643 H651 0.960 . S
C644 C642 1.381 . S
C644 C645 1.394 . S
C644 H652 0.930 . S
C645 C644 1.394 . S
C645 C646 1.383 . S
C645 H653 0.929 . S
C646 C645 1.383 . S
C646 C647 1.377 . S
C647 H631 0.930 . S
C647 C646 1.377 . S
C647 C648 1.379 . S
C648 H632 0.931 . S
C648 C642 1.383 . S
C648 C647 1.379 . S
H649 C643 0.959 . S
H650 C643 0.961 . S
H651 C643 0.960 . S
H652 C644 0.930 . S
H653 C645 0.929 . S
H654 C662 0.929 . S
H655 C664 0.930 . S
H656 C666 0.930 . S
H657 C669 0.929 . S
H658 C672 0.930 . S
H659 C674 0.960 . S
H660 C674 0.960 . S
H661 C674 0.960 . S
C662 H654 0.929 . S
C662 C663 1.377 . S
C662 C664 1.384 . S
C663 C662 1.377 . S
C663 C669 1.390 . S
C664 H655 0.930 . S
C664 C662 1.384 . S
C664 C665 1.372 . S
C665 C664 1.372 . S
C665 C666 1.400 . S
C665 C670 1.490 . S
C666 H656 0.930 . S
C666 C665 1.400 . S
C666 C669 1.386 . S
H667 C683 0.930 . S
H668 C684 0.931 . S
C669 H657 0.929 . S
C669 C663 1.390 . S
C669 C666 1.386 . S
C670 C665 1.490 . S
C670 C672 1.395 . S
C670 C673 1.403 . S
H671 C677 0.930 . S
C672 H658 0.930 . S
C672 C670 1.395 . S
C672 C675 1.403 . S
C673 C670 1.403 . S
C673 C674 1.524 . S
C673 C677 1.400 . S
C674 H659 0.960 . S
C674 H660 0.960 . S
C674 H661 0.960 . S
C674 C673 1.524 . S
C675 C672 1.403 . S
C675 C676 1.392 . S
C675 C679 1.495 . S
C676 C675 1.392 . S
C676 C677 1.385 . S
C676 C678 1.478 . S
C677 H671 0.930 . S
C677 C673 1.400 . S
C677 C676 1.385 . S
C678 C676 1.478 . S
C678 C680 1.381 . S
C678 C684 1.383 . S
C679 C675 1.495 . S
C679 H685 0.959 . S
C679 H686 0.961 . S
C679 H687 0.960 . S
C680 C678 1.381 . S
C680 C681 1.394 . S
C680 H688 0.930 . S
C681 C680 1.394 . S
C681 C682 1.383 . S
C681 H689 0.929 . S
C682 C681 1.383 . S
C682 C683 1.377 . S
C683 H667 0.930 . S
C683 C682 1.377 . S
C683 C684 1.379 . S
C684 H668 0.931 . S
C684 C678 1.383 . S
C684 C683 1.379 . S
H685 C679 0.959 . S
H686 C679 0.961 . S
H687 C679 0.960 . S
H688 C680 0.930 . S
H689 C681 0.929 . S
H690 C698 0.929 . S
H691 C700 0.930 . S
H692 C702 0.930 . S
H693 C705 0.929 . S
H694 C708 0.930 . S
H695 C710 0.960 . S
H696 C710 0.960 . S
H697 C710 0.960 . S
C698 H690 0.929 . S
C698 C699 1.377 . S
C698 C700 1.384 . S
C699 C698 1.377 . S
C699 C705 1.390 . S
C700 H691 0.930 . S
C700 C698 1.384 . S
C700 C701 1.372 . S
C701 C700 1.372 . S
C701 C702 1.400 . S
C701 C706 1.490 . S
C702 H692 0.930 . S
C702 C701 1.400 . S
C702 C705 1.386 . S
H703 C719 0.930 . S
H704 C720 0.931 . S
C705 H693 0.929 . S
C705 C699 1.390 . S
C705 C702 1.386 . S
C706 C701 1.490 . S
C706 C708 1.395 . S
C706 C709 1.403 . S
H707 C713 0.930 . S
C708 H694 0.930 . S
C708 C706 1.395 . S
C708 C711 1.403 . S
C709 C706 1.403 . S
C709 C710 1.524 . S
C709 C713 1.400 . S
C710 H695 0.960 . S
C710 H696 0.960 . S
C710 H697 0.960 . S
C710 C709 1.524 . S
C711 C708 1.403 . S
C711 C712 1.392 . S
C711 C715 1.495 . S
C712 C711 1.392 . S
C712 C713 1.385 . S
C712 C714 1.478 . S
C713 H707 0.930 . S
C713 C709 1.400 . S
C713 C712 1.385 . S
C714 C712 1.478 . S
C714 C716 1.381 . S
C714 C720 1.383 . S
C715 C711 1.495 . S
C715 H721 0.959 . S
C715 H722 0.961 . S
C715 H723 0.960 . S
C716 C714 1.381 . S
C716 C717 1.394 . S
C716 H724 0.930 . S
C717 C716 1.394 . S
C717 C718 1.383 . S
C717 H725 0.929 . S
C718 C717 1.383 . S
C718 C719 1.377 . S
C719 H703 0.930 . S
C719 C718 1.377 . S
C719 C720 1.379 . S
C720 H704 0.931 . S
C720 C714 1.383 . S
C720 C719 1.379 . S
H721 C715 0.959 . S
H722 C715 0.961 . S
H723 C715 0.960 . S
H724 C716 0.930 . S
H725 C717 0.929 . S
H726 C734 0.929 . S
H727 C736 0.930 . S
H728 C738 0.930 . S
H729 C741 0.929 . S
H730 C744 0.930 . S
H731 C746 0.960 . S
H732 C746 0.960 . S
H733 C746 0.960 . S
C734 H726 0.929 . S
C734 C735 1.377 . S
C734 C736 1.384 . S
C735 C734 1.377 . S
C735 C741 1.390 . S
C736 H727 0.930 . S
C736 C734 1.384 . S
C736 C737 1.372 . S
C737 C736 1.372 . S
C737 C738 1.400 . S
C737 C742 1.490 . S
C738 H728 0.930 . S
C738 C737 1.400 . S
C738 C741 1.386 . S
H739 C755 0.930 . S
H740 C756 0.931 . S
C741 H729 0.929 . S
C741 C735 1.390 . S
C741 C738 1.386 . S
C742 C737 1.490 . S
C742 C744 1.395 . S
C742 C745 1.403 . S
H743 C749 0.930 . S
C744 H730 0.930 . S
C744 C742 1.395 . S
C744 C747 1.403 . S
C745 C742 1.403 . S
C745 C746 1.524 . S
C745 C749 1.400 . S
C746 H731 0.960 . S
C746 H732 0.960 . S
C746 H733 0.960 . S
C746 C745 1.524 . S
C747 C744 1.403 . S
C747 C748 1.392 . S
C747 C751 1.495 . S
C748 C747 1.392 . S
C748 C749 1.385 . S
C748 C750 1.478 . S
C749 H743 0.930 . S
C749 C745 1.400 . S
C749 C748 1.385 . S
C750 C748 1.478 . S
C750 C752 1.381 . S
C750 C756 1.383 . S
C751 C747 1.495 . S
C751 H757 0.959 . S
C751 H758 0.961 . S
C751 H759 0.960 . S
C752 C750 1.381 . S
C752 C753 1.394 . S
C752 H760 0.930 . S
C753 C752 1.394 . S
C753 C754 1.383 . S
C753 H761 0.929 . S
C754 C753 1.383 . S
C754 C755 1.377 . S
C755 H739 0.930 . S
C755 C754 1.377 . S
C755 C756 1.379 . S
C756 H740 0.931 . S
C756 C750 1.383 . S
C756 C755 1.379 . S
H757 C751 0.959 . S
H758 C751 0.961 . S
H759 C751 0.960 . S
H760 C752 0.930 . S
H761 C753 0.929 . S
H762 C770 0.929 . S
H763 C772 0.930 . S
H764 C774 0.930 . S
H765 C777 0.929 . S
H766 C780 0.930 . S
H767 C782 0.960 . S
H768 C782 0.960 . S
H769 C782 0.960 . S
C770 H762 0.929 . S
C770 C771 1.377 . S
C770 C772 1.384 . S
C771 C770 1.377 . S
C771 C777 1.390 . S
C772 H763 0.930 . S
C772 C770 1.384 . S
C772 C773 1.372 . S
C773 C772 1.372 . S
C773 C774 1.400 . S
C773 C778 1.490 . S
C774 H764 0.930 . S
C774 C773 1.400 . S
C774 C777 1.386 . S
H775 C791 0.930 . S
H776 C792 0.931 . S
C777 H765 0.929 . S
C777 C771 1.390 . S
C777 C774 1.386 . S
C778 C773 1.490 . S
C778 C780 1.395 . S
C778 C781 1.403 . S
H779 C785 0.930 . S
C780 H766 0.930 . S
C780 C778 1.395 . S
C780 C783 1.403 . S
C781 C778 1.403 . S
C781 C782 1.524 . S
C781 C785 1.400 . S
C782 H767 0.960 . S
C782 H768 0.960 . S
C782 H769 0.960 . S
C782 C781 1.524 . S
C783 C780 1.403 . S
C783 C784 1.392 . S
C783 C787 1.495 . S
C784 C783 1.392 . S
C784 C785 1.385 . S
C784 C786 1.478 . S
C785 H779 0.930 . S
C785 C781 1.400 . S
C785 C784 1.385 . S
C786 C784 1.478 . S
C786 C788 1.381 . S
C786 C792 1.383 . S
C787 C783 1.495 . S
C787 H793 0.959 . S
C787 H794 0.961 . S
C787 H795 0.960 . S
C788 C786 1.381 . S
C788 C789 1.394 . S
C788 H796 0.930 . S
C789 C788 1.394 . S
C789 C790 1.383 . S
C789 H797 0.929 . S
C790 C789 1.383 . S
C790 C791 1.377 . S
C791 H775 0.930 . S
C791 C790 1.377 . S
C791 C792 1.379 . S
C792 H776 0.931 . S
C792 C786 1.383 . S
C792 C791 1.379 . S
H793 C787 0.959 . S
H794 C787 0.961 . S
H795 C787 0.960 . S
H796 C788 0.930 . S
H797 C789 0.929 . S
H798 C806 0.929 . S
H799 C808 0.930 . S
H800 C810 0.930 . S
H801 C813 0.929 . S
H802 C816 0.930 . S
H803 C818 0.960 . S
H804 C818 0.960 . S
H805 C818 0.960 . S
C806 H798 0.929 . S
C806 C807 1.377 . S
C806 C808 1.384 . S
C807 C806 1.377 . S
C807 C813 1.390 . S
C808 H799 0.930 . S
C808 C806 1.384 . S
C808 C809 1.372 . S
C809 C808 1.372 . S
C809 C810 1.400 . S
C809 C814 1.490 . S
C810 H800 0.930 . S
C810 C809 1.400 . S
C810 C813 1.386 . S
H811 C827 0.930 . S
H812 C828 0.931 . S
C813 H801 0.929 . S
C813 C807 1.390 . S
C813 C810 1.386 . S
C814 C809 1.490 . S
C814 C816 1.395 . S
C814 C817 1.403 . S
H815 C821 0.930 . S
C816 H802 0.930 . S
C816 C814 1.395 . S
C816 C819 1.403 . S
C817 C814 1.403 . S
C817 C818 1.524 . S
C817 C821 1.400 . S
C818 H803 0.960 . S
C818 H804 0.960 . S
C818 H805 0.960 . S
C818 C817 1.524 . S
C819 C816 1.403 . S
C819 C820 1.392 . S
C819 C823 1.495 . S
C820 C819 1.392 . S
C820 C821 1.385 . S
C820 C822 1.478 . S
C821 H815 0.930 . S
C821 C817 1.400 . S
C821 C820 1.385 . S
C822 C820 1.478 . S
C822 C824 1.381 . S
C822 C828 1.383 . S
C823 C819 1.495 . S
C823 H829 0.959 . S
C823 H830 0.961 . S
C823 H831 0.960 . S
C824 C822 1.381 . S
C824 C825 1.394 . S
C824 H832 0.930 . S
C825 C824 1.394 . S
C825 C826 1.383 . S
C825 H833 0.929 . S
C826 C825 1.383 . S
C826 C827 1.377 . S
C827 H811 0.930 . S
C827 C826 1.377 . S
C827 C828 1.379 . S
C828 H812 0.931 . S
C828 C822 1.383 . S
C828 C827 1.379 . S
H829 C823 0.959 . S
H830 C823 0.961 . S
H831 C823 0.960 . S
H832 C824 0.930 . S
H833 C825 0.929 . S
H834 C842 0.929 . S
H835 C844 0.930 . S
H836 C846 0.930 . S
H837 C849 0.929 . S
H838 C852 0.930 . S
H839 C854 0.960 . S
H840 C854 0.960 . S
H841 C854 0.960 . S
C842 H834 0.929 . S
C842 C843 1.377 . S
C842 C844 1.384 . S
C843 C842 1.377 . S
C843 C849 1.390 . S
C844 H835 0.930 . S
C844 C842 1.384 . S
C844 C845 1.372 . S
C845 C844 1.372 . S
C845 C846 1.400 . S
C845 C850 1.490 . S
C846 H836 0.930 . S
C846 C845 1.400 . S
C846 C849 1.386 . S
H847 C863 0.930 . S
H848 C864 0.931 . S
C849 H837 0.929 . S
C849 C843 1.390 . S
C849 C846 1.386 . S
C850 C845 1.490 . S
C850 C852 1.395 . S
C850 C853 1.403 . S
H851 C857 0.930 . S
C852 H838 0.930 . S
C852 C850 1.395 . S
C852 C855 1.403 . S
C853 C850 1.403 . S
C853 C854 1.524 . S
C853 C857 1.400 . S
C854 H839 0.960 . S
C854 H840 0.960 . S
C854 H841 0.960 . S
C854 C853 1.524 . S
C855 C852 1.403 . S
C855 C856 1.392 . S
C855 C859 1.495 . S
C856 C855 1.392 . S
C856 C857 1.385 . S
C856 C858 1.478 . S
C857 H851 0.930 . S
C857 C853 1.400 . S
C857 C856 1.385 . S
C858 C856 1.478 . S
C858 C860 1.381 . S
C858 C864 1.383 . S
C859 C855 1.495 . S
C859 H865 0.959 . S
C859 H866 0.961 . S
C859 H867 0.960 . S
C860 C858 1.381 . S
C860 C861 1.394 . S
C860 H868 0.930 . S
C861 C860 1.394 . S
C861 C862 1.383 . S
C861 H869 0.929 . S
C862 C861 1.383 . S
C862 C863 1.377 . S
C863 H847 0.930 . S
C863 C862 1.377 . S
C863 C864 1.379 . S
C864 H848 0.931 . S
C864 C858 1.383 . S
C864 C863 1.379 . S
H865 C859 0.959 . S
H866 C859 0.961 . S
H867 C859 0.960 . S
H868 C860 0.930 . S
H869 C861 0.929 . S
H870 C878 0.929 . S
H871 C880 0.930 . S
H872 C882 0.930 . S
H873 C885 0.929 . S
H874 C888 0.930 . S
H875 C890 0.960 . S
H876 C890 0.960 . S
H877 C890 0.960 . S
C878 H870 0.929 . S
C878 C879 1.377 . S
C878 C880 1.384 . S
C879 C878 1.377 . S
C879 C885 1.390 . S
C880 H871 0.930 . S
C880 C878 1.384 . S
C880 C881 1.372 . S
C881 C880 1.372 . S
C881 C882 1.400 . S
C881 C886 1.490 . S
C882 H872 0.930 . S
C882 C881 1.400 . S
C882 C885 1.386 . S
H883 C899 0.930 . S
H884 C900 0.931 . S
C885 H873 0.929 . S
C885 C879 1.390 . S
C885 C882 1.386 . S
C886 C881 1.490 . S
C886 C888 1.395 . S
C886 C889 1.403 . S
H887 C893 0.930 . S
C888 H874 0.930 . S
C888 C886 1.395 . S
C888 C891 1.403 . S
C889 C886 1.403 . S
C889 C890 1.524 . S
C889 C893 1.400 . S
C890 H875 0.960 . S
C890 H876 0.960 . S
C890 H877 0.960 . S
C890 C889 1.524 . S
C891 C888 1.403 . S
C891 C892 1.392 . S
C891 C895 1.495 . S
C892 C891 1.392 . S
C892 C893 1.385 . S
C892 C894 1.478 . S
C893 H887 0.930 . S
C893 C889 1.400 . S
C893 C892 1.385 . S
C894 C892 1.478 . S
C894 C896 1.381 . S
C894 C900 1.383 . S
C895 C891 1.495 . S
C895 H901 0.959 . S
C895 H902 0.961 . S
C895 H903 0.960 . S
C896 C894 1.381 . S
C896 C897 1.394 . S
C896 H904 0.930 . S
C897 C896 1.394 . S
C897 C898 1.383 . S
C897 H905 0.929 . S
C898 C897 1.383 . S
C898 C899 1.377 . S
C899 H883 0.930 . S
C899 C898 1.377 . S
C899 C900 1.379 . S
C900 H884 0.931 . S
C900 C894 1.383 . S
C900 C899 1.379 . S
H901 C895 0.959 . S
H902 C895 0.961 . S
H903 C895 0.960 . S
H904 C896 0.930 . S
H905 C897 0.929 . S
H906 C914 0.929 . S
H907 C916 0.930 . S
H908 C918 0.930 . S
H909 C921 0.929 . S
H910 C924 0.930 . S
H911 C926 0.960 . S
H912 C926 0.960 . S
H913 C926 0.960 . S
C914 H906 0.929 . S
C914 C915 1.377 . S
C914 C916 1.384 . S
C915 C914 1.377 . S
C915 C921 1.390 . S
C916 H907 0.930 . S
C916 C914 1.384 . S
C916 C917 1.372 . S
C917 C916 1.372 . S
C917 C918 1.400 . S
C917 C922 1.490 . S
C918 H908 0.930 . S
C918 C917 1.400 . S
C918 C921 1.386 . S
H919 C935 0.930 . S
H920 C936 0.931 . S
C921 H909 0.929 . S
C921 C915 1.390 . S
C921 C918 1.386 . S
C922 C917 1.490 . S
C922 C924 1.395 . S
C922 C925 1.403 . S
H923 C929 0.930 . S
C924 H910 0.930 . S
C924 C922 1.395 . S
C924 C927 1.403 . S
C925 C922 1.403 . S
C925 C926 1.524 . S
C925 C929 1.400 . S
C926 H911 0.960 . S
C926 H912 0.960 . S
C926 H913 0.960 . S
C926 C925 1.524 . S
C927 C924 1.403 . S
C927 C928 1.392 . S
C927 C931 1.495 . S
C928 C927 1.392 . S
C928 C929 1.385 . S
C928 C930 1.478 . S
C929 H923 0.930 . S
C929 C925 1.400 . S
C929 C928 1.385 . S
C930 C928 1.478 . S
C930 C932 1.381 . S
C930 C936 1.383 . S
C931 C927 1.495 . S
C931 H937 0.959 . S
C931 H938 0.961 . S
C931 H939 0.960 . S
C932 C930 1.381 . S
C932 C933 1.394 . S
C932 H940 0.930 . S
C933 C932 1.394 . S
C933 C934 1.383 . S
C933 H941 0.929 . S
C934 C933 1.383 . S
C934 C935 1.377 . S
C935 H919 0.930 . S
C935 C934 1.377 . S
C935 C936 1.379 . S
C936 H920 0.931 . S
C936 C930 1.383 . S
C936 C935 1.379 . S
H937 C931 0.959 . S
H938 C931 0.961 . S
H939 C931 0.960 . S
H940 C932 0.930 . S
H941 C933 0.929 . S
H942 C950 0.929 . S
H943 C952 0.930 . S
H944 C954 0.930 . S
H945 C957 0.929 . S
H946 C960 0.930 . S
H947 C962 0.960 . S
H948 C962 0.960 . S
H949 C962 0.960 . S
C950 H942 0.929 . S
C950 C951 1.377 . S
C950 C952 1.384 . S
C951 C950 1.377 . S
C951 C957 1.390 . S
C952 H943 0.930 . S
C952 C950 1.384 . S
C952 C953 1.372 . S
C953 C952 1.372 . S
C953 C954 1.400 . S
C953 C958 1.490 . S
C954 H944 0.930 . S
C954 C953 1.400 . S
C954 C957 1.386 . S
H955 C971 0.930 . S
H956 C972 0.931 . S
C957 H945 0.929 . S
C957 C951 1.390 . S
C957 C954 1.386 . S
C958 C953 1.490 . S
C958 C960 1.395 . S
C958 C961 1.403 . S
H959 C965 0.930 . S
C960 H946 0.930 . S
C960 C958 1.395 . S
C960 C963 1.403 . S
C961 C958 1.403 . S
C961 C962 1.524 . S
C961 C965 1.400 . S
C962 H947 0.960 . S
C962 H948 0.960 . S
C962 H949 0.960 . S
C962 C961 1.524 . S
C963 C960 1.403 . S
C963 C964 1.392 . S
C963 C967 1.495 . S
C964 C963 1.392 . S
C964 C965 1.385 . S
C964 C966 1.478 . S
C965 H959 0.930 . S
C965 C961 1.400 . S
C965 C964 1.385 . S
C966 C964 1.478 . S
C966 C968 1.381 . S
C966 C972 1.383 . S
C967 C963 1.495 . S
C967 H973 0.959 . S
C967 H974 0.961 . S
C967 H975 0.960 . S
C968 C966 1.381 . S
C968 C969 1.394 . S
C968 H976 0.930 . S
C969 C968 1.394 . S
C969 C970 1.383 . S
C969 H977 0.929 . S
C970 C969 1.383 . S
C970 C971 1.377 . S
C971 H955 0.930 . S
C971 C970 1.377 . S
C971 C972 1.379 . S
C972 H956 0.931 . S
C972 C966 1.383 . S
C972 C971 1.379 . S
H973 C967 0.959 . S
H974 C967 0.961 . S
H975 C967 0.960 . S
H976 C968 0.930 . S
H977 C969 0.929 . S
H978 C986 0.929 . S
H979 C988 0.930 . S
H980 C990 0.930 . S
H981 C993 0.929 . S
H982 C996 0.930 . S
H983 C998 0.960 . S
H984 C998 0.960 . S
H985 C998 0.960 . S
C986 H978 0.929 . S
C986 C987 1.377 . S
C986 C988 1.384 . S
C987 C986 1.377 . S
C987 C993 1.390 . S
C988 H979 0.930 . S
C988 C986 1.384 . S
C988 C989 1.372 . S
C989 C988 1.372 . S
C989 C990 1.400 . S
C989 C994 1.490 . S
C990 H980 0.930 . S
C990 C989 1.400 . S
C990 C993 1.386 . S
H991 C1007 0.930 . S
H992 C1008 0.931 . S
C993 H981 0.929 . S
C993 C987 1.390 . S
C993 C990 1.386 . S
C994 C989 1.490 . S
C994 C996 1.395 . S
C994 C997 1.403 . S
H995 C1001 0.930 . S
C996 H982 0.930 . S
C996 C994 1.395 . S
C996 C999 1.403 . S
C997 C994 1.403 . S
C997 C998 1.524 . S
C997 C1001 1.400 . S
C998 H983 0.960 . S
C998 H984 0.960 . S
C998 H985 0.960 . S
C998 C997 1.524 . S
C999 C996 1.403 . S
C999 C1000 1.392 . S
C999 C1003 1.495 . S
C1000 C999 1.392 . S
C1000 C1001 1.385 . S
C1000 C1002 1.478 . S
C1001 H995 0.930 . S
C1001 C997 1.400 . S
C1001 C1000 1.385 . S
C1002 C1000 1.478 . S
C1002 C1004 1.381 . S
C1002 C1008 1.383 . S
C1003 C999 1.495 . S
C1003 H1009 0.959 . S
C1003 H1010 0.961 . S
C1003 H1011 0.960 . S
C1004 C1002 1.381 . S
C1004 C1005 1.394 . S
C1004 H1012 0.930 . S
C1005 C1004 1.394 . S
C1005 C1006 1.383 . S
C1005 H1013 0.929 . S
C1006 C1005 1.383 . S
C1006 C1007 1.377 . S
C1007 H991 0.930 . S
C1007 C1006 1.377 . S
C1007 C1008 1.379 . S
C1008 H992 0.931 . S
C1008 C1002 1.383 . S
C1008 C1007 1.379 . S
H1009 C1003 0.959 . S
H1010 C1003 0.961 . S
H1011 C1003 0.960 . S
H1012 C1004 0.930 . S
H1013 C1005 0.929 . S
H1014 C1022 0.929 . S
H1015 C1024 0.930 . S
H1016 C1026 0.930 . S
H1017 C1029 0.929 . S
H1018 C1032 0.930 . S
H1019 C1034 0.960 . S
H1020 C1034 0.960 . S
H1021 C1034 0.960 . S
C1022 H1014 0.929 . S
C1022 C1023 1.377 . S
C1022 C1024 1.384 . S
C1023 C1022 1.377 . S
C1023 C1029 1.390 . S
C1024 H1015 0.930 . S
C1024 C1022 1.384 . S
C1024 C1025 1.372 . S
C1025 C1024 1.372 . S
C1025 C1026 1.400 . S
C1025 C1030 1.490 . S
C1026 H1016 0.930 . S
C1026 C1025 1.400 . S
C1026 C1029 1.386 . S
H1027 C1043 0.930 . S
H1028 C1044 0.931 . S
C1029 H1017 0.929 . S
C1029 C1023 1.390 . S
C1029 C1026 1.386 . S
C1030 C1025 1.490 . S
C1030 C1032 1.395 . S
C1030 C1033 1.403 . S
H1031 C1037 0.930 . S
C1032 H1018 0.930 . S
C1032 C1030 1.395 . S
C1032 C1035 1.403 . S
C1033 C1030 1.403 . S
C1033 C1034 1.524 . S
C1033 C1037 1.400 . S
C1034 H1019 0.960 . S
C1034 H1020 0.960 . S
C1034 H1021 0.960 . S
C1034 C1033 1.524 . S
C1035 C1032 1.403 . S
C1035 C1036 1.392 . S
C1035 C1039 1.495 . S
C1036 C1035 1.392 . S
C1036 C1037 1.385 . S
C1036 C1038 1.478 . S
C1037 H1031 0.930 . S
C1037 C1033 1.400 . S
C1037 C1036 1.385 . S
C1038 C1036 1.478 . S
C1038 C1040 1.381 . S
C1038 C1044 1.383 . S
C1039 C1035 1.495 . S
C1039 H1045 0.959 . S
C1039 H1046 0.961 . S
C1039 H1047 0.960 . S
C1040 C1038 1.381 . S
C1040 C1041 1.394 . S
C1040 H1048 0.930 . S
C1041 C1040 1.394 . S
C1041 C1042 1.383 . S
C1041 H1049 0.929 . S
C1042 C1041 1.383 . S
C1042 C1043 1.377 . S
C1043 H1027 0.930 . S
C1043 C1042 1.377 . S
C1043 C1044 1.379 . S
C1044 H1028 0.931 . S
C1044 C1038 1.383 . S
C1044 C1043 1.379 . S
H1045 C1039 0.959 . S
H1046 C1039 0.961 . S
H1047 C1039 0.960 . S
H1048 C1040 0.930 . S
H1049 C1041 0.929 . S
H1050 C1058 0.929 . S
H1051 C1060 0.930 . S
H1052 C1062 0.930 . S
H1053 C1065 0.929 . S
H1054 C1068 0.930 . S
H1055 C1070 0.960 . S
H1056 C1070 0.960 . S
H1057 C1070 0.960 . S
C1058 H1050 0.929 . S
C1058 C1059 1.377 . S
C1058 C1060 1.384 . S
C1059 C1058 1.377 . S
C1059 C1065 1.390 . S
C1060 H1051 0.930 . S
C1060 C1058 1.384 . S
C1060 C1061 1.372 . S
C1061 C1060 1.372 . S
C1061 C1062 1.400 . S
C1061 C1066 1.490 . S
C1062 H1052 0.930 . S
C1062 C1061 1.400 . S
C1062 C1065 1.386 . S
H1063 C1079 0.930 . S
H1064 C1080 0.931 . S
C1065 H1053 0.929 . S
C1065 C1059 1.390 . S
C1065 C1062 1.386 . S
C1066 C1061 1.490 . S
C1066 C1068 1.395 . S
C1066 C1069 1.403 . S
H1067 C1073 0.930 . S
C1068 H1054 0.930 . S
C1068 C1066 1.395 . S
C1068 C1071 1.403 . S
C1069 C1066 1.403 . S
C1069 C1070 1.524 . S
C1069 C1073 1.400 . S
C1070 H1055 0.960 . S
C1070 H1056 0.960 . S
C1070 H1057 0.960 . S
C1070 C1069 1.524 . S
C1071 C1068 1.403 . S
C1071 C1072 1.392 . S
C1071 C1075 1.495 . S
C1072 C1071 1.392 . S
C1072 C1073 1.385 . S
C1072 C1074 1.478 . S
C1073 H1067 0.930 . S
C1073 C1069 1.400 . S
C1073 C1072 1.385 . S
C1074 C1072 1.478 . S
C1074 C1076 1.381 . S
C1074 C1080 1.383 . S
C1075 C1071 1.495 . S
C1075 H1081 0.959 . S
C1075 H1082 0.961 . S
C1075 H1083 0.960 . S
C1076 C1074 1.381 . S
C1076 C1077 1.394 . S
C1076 H1084 0.930 . S
C1077 C1076 1.394 . S
C1077 C1078 1.383 . S
C1077 H1085 0.929 . S
C1078 C1077 1.383 . S
C1078 C1079 1.377 . S
C1079 H1063 0.930 . S
C1079 C1078 1.377 . S
C1079 C1080 1.379 . S
C1080 H1064 0.931 . S
C1080 C1074 1.383 . S
C1080 C1079 1.379 . S
H1081 C1075 0.959 . S
H1082 C1075 0.961 . S
H1083 C1075 0.960 . S
H1084 C1076 0.930 . S
H1085 C1077 0.929 . S
H1086 C1094 0.929 . S
H1087 C1096 0.930 . S
H1088 C1098 0.930 . S
H1089 C1101 0.929 . S
H1090 C1104 0.930 . S
H1091 C1106 0.960 . S
H1092 C1106 0.960 . S
H1093 C1106 0.960 . S
C1094 H1086 0.929 . S
C1094 C1095 1.377 . S
C1094 C1096 1.384 . S
C1095 C1094 1.377 . S
C1095 C1101 1.390 . S
C1096 H1087 0.930 . S
C1096 C1094 1.384 . S
C1096 C1097 1.372 . S
C1097 C1096 1.372 . S
C1097 C1098 1.400 . S
C1097 C1102 1.490 . S
C1098 H1088 0.930 . S
C1098 C1097 1.400 . S
C1098 C1101 1.386 . S
H1099 C1115 0.930 . S
H1100 C1116 0.931 . S
C1101 H1089 0.929 . S
C1101 C1095 1.390 . S
C1101 C1098 1.386 . S
C1102 C1097 1.490 . S
C1102 C1104 1.395 . S
C1102 C1105 1.403 . S
H1103 C1109 0.930 . S
C1104 H1090 0.930 . S
C1104 C1102 1.395 . S
C1104 C1107 1.403 . S
C1105 C1102 1.403 . S
C1105 C1106 1.524 . S
C1105 C1109 1.400 . S
C1106 H1091 0.960 . S
C1106 H1092 0.960 . S
C1106 H1093 0.960 . S
C1106 C1105 1.524 . S
C1107 C1104 1.403 . S
C1107 C1108 1.392 . S
C1107 C1111 1.495 . S
C1108 C1107 1.392 . S
C1108 C1109 1.385 . S
C1108 C1110 1.478 . S
C1109 H1103 0.930 . S
C1109 C1105 1.400 . S
C1109 C1108 1.385 . S
C1110 C1108 1.478 . S
C1110 C1112 1.381 . S
C1110 C1116 1.383 . S
C1111 C1107 1.495 . S
C1111 H1117 0.959 . S
C1111 H1118 0.961 . S
C1111 H1119 0.960 . S
C1112 C1110 1.381 . S
C1112 C1113 1.394 . S
C1112 H1120 0.930 . S
C1113 C1112 1.394 . S
C1113 C1114 1.383 . S
C1113 H1121 0.929 . S
C1114 C1113 1.383 . S
C1114 C1115 1.377 . S
C1115 H1099 0.930 . S
C1115 C1114 1.377 . S
C1115 C1116 1.379 . S
C1116 H1100 0.931 . S
C1116 C1110 1.383 . S
C1116 C1115 1.379 . S
H1117 C1111 0.959 . S
H1118 C1111 0.961 . S
H1119 C1111 0.960 . S
H1120 C1112 0.930 . S
H1121 C1113 0.929 . S
H1122 C1130 0.929 . S
H1123 C1132 0.930 . S
H1124 C1134 0.930 . S
H1125 C1137 0.929 . S
H1126 C1140 0.930 . S
H1127 C1142 0.960 . S
H1128 C1142 0.960 . S
H1129 C1142 0.960 . S
C1130 H1122 0.929 . S
C1130 C1131 1.377 . S
C1130 C1132 1.384 . S
C1131 C1130 1.377 . S
C1131 C1137 1.390 . S
C1132 H1123 0.930 . S
C1132 C1130 1.384 . S
C1132 C1133 1.372 . S
C1133 C1132 1.372 . S
C1133 C1134 1.400 . S
C1133 C1138 1.490 . S
C1134 H1124 0.930 . S
C1134 C1133 1.400 . S
C1134 C1137 1.386 . S
H1135 C1151 0.930 . S
H1136 C1152 0.931 . S
C1137 H1125 0.929 . S
C1137 C1131 1.390 . S
C1137 C1134 1.386 . S
C1138 C1133 1.490 . S
C1138 C1140 1.395 . S
C1138 C1141 1.403 . S
H1139 C1145 0.930 . S
C1140 H1126 0.930 . S
C1140 C1138 1.395 . S
C1140 C1143 1.403 . S
C1141 C1138 1.403 . S
C1141 C1142 1.524 . S
C1141 C1145 1.400 . S
C1142 H1127 0.960 . S
C1142 H1128 0.960 . S
C1142 H1129 0.960 . S
C1142 C1141 1.524 . S
C1143 C1140 1.403 . S
C1143 C1144 1.392 . S
C1143 C1147 1.495 . S
C1144 C1143 1.392 . S
C1144 C1145 1.385 . S
C1144 C1146 1.478 . S
C1145 H1139 0.930 . S
C1145 C1141 1.400 . S
C1145 C1144 1.385 . S
C1146 C1144 1.478 . S
C1146 C1148 1.381 . S
C1146 C1152 1.383 . S
C1147 C1143 1.495 . S
C1147 H1153 0.959 . S
C1147 H1154 0.961 . S
C1147 H1155 0.960 . S
C1148 C1146 1.381 . S
C1148 C1149 1.394 . S
C1148 H1156 0.930 . S
C1149 C1148 1.394 . S
C1149 C1150 1.383 . S
C1149 H1157 0.929 . S
C1150 C1149 1.383 . S
C1150 C1151 1.377 . S
C1151 H1135 0.930 . S
C1151 C1150 1.377 . S
C1151 C1152 1.379 . S
C1152 H1136 0.931 . S
C1152 C1146 1.383 . S
C1152 C1151 1.379 . S
H1153 C1147 0.959 . S
H1154 C1147 0.961 . S
H1155 C1147 0.960 . S
H1156 C1148 0.930 . S
H1157 C1149 0.929 . S
H1158 C1166 0.929 . S
H1159 C1168 0.930 . S
H1160 C1170 0.930 . S
H1161 C1173 0.929 . S
H1162 C1176 0.930 . S
H1163 C1178 0.960 . S
H1164 C1178 0.960 . S
H1165 C1178 0.960 . S
C1166 H1158 0.929 . S
C1166 C1167 1.377 . S
C1166 C1168 1.384 . S
C1167 C1166 1.377 . S
C1167 C1173 1.390 . S
C1168 H1159 0.930 . S
C1168 C1166 1.384 . S
C1168 C1169 1.372 . S
C1169 C1168 1.372 . S
C1169 C1170 1.400 . S
C1169 C1174 1.490 . S
C1170 H1160 0.930 . S
C1170 C1169 1.400 . S
C1170 C1173 1.386 . S
H1171 C1187 0.930 . S
H1172 C1188 0.931 . S
C1173 H1161 0.929 . S
C1173 C1167 1.390 . S
C1173 C1170 1.386 . S
C1174 C1169 1.490 . S
C1174 C1176 1.395 . S
C1174 C1177 1.403 . S
H1175 C1181 0.930 . S
C1176 H1162 0.930 . S
C1176 C1174 1.395 . S
C1176 C1179 1.403 . S
C1177 C1174 1.403 . S
C1177 C1178 1.524 . S
C1177 C1181 1.400 . S
C1178 H1163 0.960 . S
C1178 H1164 0.960 . S
C1178 H1165 0.960 . S
C1178 C1177 1.524 . S
C1179 C1176 1.403 . S
C1179 C1180 1.392 . S
C1179 C1183 1.495 . S
C1180 C1179 1.392 . S
C1180 C1181 1.385 . S
C1180 C1182 1.478 . S
C1181 H1175 0.930 . S
C1181 C1177 1.400 . S
C1181 C1180 1.385 . S
C1182 C1180 1.478 . S
C1182 C1184 1.381 . S
C1182 C1188 1.383 . S
C1183 C1179 1.495 . S
C1183 H1189 0.959 . S
C1183 H1190 0.961 . S
C1183 H1191 0.960 . S
C1184 C1182 1.381 . S
C1184 C1185 1.394 . S
C1184 H1192 0.930 . S
C1185 C1184 1.394 . S
C1185 C1186 1.383 . S
C1185 H1193 0.929 . S
C1186 C1185 1.383 . S
C1186 C1187 1.377 . S
C1187 H1171 0.930 . S
C1187 C1186 1.377 . S
C1187 C1188 1.379 . S
C1188 H1172 0.931 . S
C1188 C1182 1.383 . S
C1188 C1187 1.379 . S
H1189 C1183 0.959 . S
H1190 C1183 0.961 . S
H1191 C1183 0.960 . S
H1192 C1184 0.930 . S
H1193 C1185 0.929 . S
H1194 C1202 0.929 . S
H1195 C1204 0.930 . S
H1196 C1206 0.930 . S
H1197 C1209 0.929 . S
H1198 C1212 0.930 . S
H1199 C1214 0.960 . S
H1200 C1214 0.960 . S
H1201 C1214 0.960 . S
C1202 H1194 0.929 . S
C1202 C1203 1.377 . S
C1202 C1204 1.384 . S
C1203 C1202 1.377 . S
C1203 C1209 1.390 . S
C1204 H1195 0.930 . S
C1204 C1202 1.384 . S
C1204 C1205 1.372 . S
C1205 C1204 1.372 . S
C1205 C1206 1.400 . S
C1205 C1210 1.490 . S
C1206 H1196 0.930 . S
C1206 C1205 1.400 . S
C1206 C1209 1.386 . S
H1207 C1223 0.930 . S
H1208 C1224 0.931 . S
C1209 H1197 0.929 . S
C1209 C1203 1.390 . S
C1209 C1206 1.386 . S
C1210 C1205 1.490 . S
C1210 C1212 1.395 . S
C1210 C1213 1.403 . S
H1211 C1217 0.930 . S
C1212 H1198 0.930 . S
C1212 C1210 1.395 . S
C1212 C1215 1.403 . S
C1213 C1210 1.403 . S
C1213 C1214 1.524 . S
C1213 C1217 1.400 . S
C1214 H1199 0.960 . S
C1214 H1200 0.960 . S
C1214 H1201 0.960 . S
C1214 C1213 1.524 . S
C1215 C1212 1.403 . S
C1215 C1216 1.392 . S
C1215 C1219 1.495 . S
C1216 C1215 1.392 . S
C1216 C1217 1.385 . S
C1216 C1218 1.478 . S
C1217 H1211 0.930 . S
C1217 C1213 1.400 . S
C1217 C1216 1.385 . S
C1218 C1216 1.478 . S
C1218 C1220 1.381 . S
C1218 C1224 1.383 . S
C1219 C1215 1.495 . S
C1219 H1225 0.959 . S
C1219 H1226 0.961 . S
C1219 H1227 0.960 . S
C1220 C1218 1.381 . S
C1220 C1221 1.394 . S
C1220 H1228 0.930 . S
C1221 C1220 1.394 . S
C1221 C1222 1.383 . S
C1221 H1229 0.929 . S
C1222 C1221 1.383 . S
C1222 C1223 1.377 . S
C1223 H1207 0.930 . S
C1223 C1222 1.377 . S
C1223 C1224 1.379 . S
C1224 H1208 0.931 . S
C1224 C1218 1.383 . S
C1224 C1223 1.379 . S
H1225 C1219 0.959 . S
H1226 C1219 0.961 . S
H1227 C1219 0.960 . S
H1228 C1220 0.930 . S
H1229 C1221 0.929 . S
H1230 C1238 0.929 . S
H1231 C1240 0.930 . S
H1232 C1242 0.930 . S
H1233 C1245 0.929 . S
H1234 C1248 0.930 . S
H1235 C1250 0.960 . S
H1236 C1250 0.960 . S
H1237 C1250 0.960 . S
C1238 H1230 0.929 . S
C1238 C1239 1.377 . S
C1238 C1240 1.384 . S
C1239 C1238 1.377 . S
C1239 C1245 1.390 . S
C1240 H1231 0.930 . S
C1240 C1238 1.384 . S
C1240 C1241 1.372 . S
C1241 C1240 1.372 . S
C1241 C1242 1.400 . S
C1241 C1246 1.490 . S
C1242 H1232 0.930 . S
C1242 C1241 1.400 . S
C1242 C1245 1.386 . S
H1243 C1259 0.930 . S
H1244 C1260 0.931 . S
C1245 H1233 0.929 . S
C1245 C1239 1.390 . S
C1245 C1242 1.386 . S
C1246 C1241 1.490 . S
C1246 C1248 1.395 . S
C1246 C1249 1.403 . S
H1247 C1253 0.930 . S
C1248 H1234 0.930 . S
C1248 C1246 1.395 . S
C1248 C1251 1.403 . S
C1249 C1246 1.403 . S
C1249 C1250 1.524 . S
C1249 C1253 1.400 . S
C1250 H1235 0.960 . S
C1250 H1236 0.960 . S
C1250 H1237 0.960 . S
C1250 C1249 1.524 . S
C1251 C1248 1.403 . S
C1251 C1252 1.392 . S
C1251 C1255 1.495 . S
C1252 C1251 1.392 . S
C1252 C1253 1.385 . S
C1252 C1254 1.478 . S
C1253 H1247 0.930 . S
C1253 C1249 1.400 . S
C1253 C1252 1.385 . S
C1254 C1252 1.478 . S
C1254 C1256 1.381 . S
C1254 C1260 1.383 . S
C1255 C1251 1.495 . S
C1255 H1261 0.959 . S
C1255 H1262 0.961 . S
C1255 H1263 0.960 . S
C1256 C1254 1.381 . S
C1256 C1257 1.394 . S
C1256 H1264 0.930 . S
C1257 C1256 1.394 . S
C1257 C1258 1.383 . S
C1257 H1265 0.929 . S
C1258 C1257 1.383 . S
C1258 C1259 1.377 . S
C1259 H1243 0.930 . S
C1259 C1258 1.377 . S
C1259 C1260 1.379 . S
C1260 H1244 0.931 . S
C1260 C1254 1.383 . S
C1260 C1259 1.379 . S
H1261 C1255 0.959 . S
H1262 C1255 0.961 . S
H1263 C1255 0.960 . S
H1264 C1256 0.930 . S
H1265 C1257 0.929 . S
C411 C13 1.920 . S
C430 C122 1.875 . S
C447 C27 1.638 . S
C466 C175 1.605 . S
C502 C228 1.786 . S
C483 C29 1.817 . S
C538 C265 1.475 . S
C519 C54 1.495 . S
C574 C325 1.724 . S
C555 C69 1.755 . S
C610 C378 1.566 . S
C591 C83 1.591 . S
C627 C15 1.919 . S
C646 C229 1.891 . S
C663 C41 1.590 . S
C682 C272 1.577 . S
C718 C318 1.745 . S
C699 C42 1.757 . S
C754 C371 1.451 . S
C735 C57 1.493 . S
C771 C71 1.818 . S
C790 C123 1.779 . S
C826 C176 1.620 . S
C807 C1 1.641 . S
C862 C282 1.903 . S
C843 C12 1.922 . S
C879 C26 1.639 . S
C898 C334 1.630 . S
C934 C387 1.804 . S
C915 C28 1.819 . S
C951 C55 1.494 . S
C970 C113 1.454 . S
C987 C68 1.756 . S
C1006 C166 1.716 . S
C1023 C82 1.591 . S
C1042 C219 1.562 . S
C1059 C14 1.922 . S
C1078 C388 1.902 . S
C1114 C106 1.567 . S
C1095 C40 1.588 . S
C1131 C43 1.757 . S
C1150 C159 1.732 . S
C1167 C56 1.493 . S
C1186 C212 1.443 . S
C1203 C70 1.819 . S
C1222 C281 1.799 . S
C1239 C0 1.641 . S
C1258 C335 1.620 . S
