# Generated by pormake.
# Topology ocu, (6,8)-cn, num edge types: 1
# Building blocks:
#     Node 0, Type 0, BuildingBlock: CUKXOW_clean_sbu_0, # of connection points: 6
#     Node 1, Type 0, BuildingBlock: CUKXOW_clean_sbu_0, # of connection points: 6
#     Node 2, Type 0, BuildingBlock: CUKXOW_clean_sbu_0, # of connection points: 6
#     Node 3, Type 0, BuildingBlock: CUKXOW_clean_sbu_0, # of connection points: 6
#     Node 4, Type 0, BuildingBlock: CUKXOW_clean_sbu_0, # of connection points: 6
#     Node 5, Type 0, BuildingBlock: CUKXOW_clean_sbu_0, # of connection points: 6
#     Node 6, Type 0, BuildingBlock: CUKXOW_clean_sbu_0, # of connection points: 6
#     Node 7, Type 0, BuildingBlock: CUKXOW_clean_sbu_0, # of connection points: 6
#     Node 8, Type 1, BuildingBlock: AJUNOK_clean_sbu_0, # of connection points: 8
#     Node 9, Type 1, BuildingBlock: AJUNOK_clean_sbu_0, # of connection points: 8
#     Node 10, Type 1, BuildingBlock: AJUNOK_clean_sbu_0, # of connection points: 8
#     Node 11, Type 1, BuildingBlock: AJUNOK_clean_sbu_0, # of connection points: 8
#     Node 12, Type 1, BuildingBlock: AJUNOK_clean_sbu_0, # of connection points: 8
#     Node 13, Type 1, BuildingBlock: AJUNOK_clean_sbu_0, # of connection points: 8
#     Edge 14, Type (0, 1), BuildingBlock: UVAHIK_clean_linker_0, # of connection points: 2
#     Edge 15, Type (0, 1), BuildingBlock: UVAHIK_clean_linker_0, # of connection points: 2
#     Edge 16, Type (0, 1), BuildingBlock: UVAHIK_clean_linker_0, # of connection points: 2
#     Edge 17, Type (0, 1), BuildingBlock: UVAHIK_clean_linker_0, # of connection points: 2
#     Edge 18, Type (0, 1), BuildingBlock: UVAHIK_clean_linker_0, # of connection points: 2
#     Edge 19, Type (0, 1), BuildingBlock: UVAHIK_clean_linker_0, # of connection points: 2
#     Edge 20, Type (0, 1), BuildingBlock: UVAHIK_clean_linker_0, # of connection points: 2
#     Edge 21, Type (0, 1), BuildingBlock: UVAHIK_clean_linker_0, # of connection points: 2
#     Edge 22, Type (0, 1), BuildingBlock: UVAHIK_clean_linker_0, # of connection points: 2
#     Edge 23, Type (0, 1), BuildingBlock: UVAHIK_clean_linker_0, # of connection points: 2
#     Edge 24, Type (0, 1), BuildingBlock: UVAHIK_clean_linker_0, # of connection points: 2
#     Edge 25, Type (0, 1), BuildingBlock: UVAHIK_clean_linker_0, # of connection points: 2
#     Edge 26, Type (0, 1), BuildingBlock: UVAHIK_clean_linker_0, # of connection points: 2
#     Edge 27, Type (0, 1), BuildingBlock: UVAHIK_clean_linker_0, # of connection points: 2
#     Edge 28, Type (0, 1), BuildingBlock: UVAHIK_clean_linker_0, # of connection points: 2
#     Edge 29, Type (0, 1), BuildingBlock: UVAHIK_clean_linker_0, # of connection points: 2
#     Edge 30, Type (0, 1), BuildingBlock: UVAHIK_clean_linker_0, # of connection points: 2
#     Edge 31, Type (0, 1), BuildingBlock: UVAHIK_clean_linker_0, # of connection points: 2
#     Edge 32, Type (0, 1), BuildingBlock: UVAHIK_clean_linker_0, # of connection points: 2
#     Edge 33, Type (0, 1), BuildingBlock: UVAHIK_clean_linker_0, # of connection points: 2
#     Edge 34, Type (0, 1), BuildingBlock: UVAHIK_clean_linker_0, # of connection points: 2
#     Edge 35, Type (0, 1), BuildingBlock: UVAHIK_clean_linker_0, # of connection points: 2
#     Edge 36, Type (0, 1), BuildingBlock: UVAHIK_clean_linker_0, # of connection points: 2
#     Edge 37, Type (0, 1), BuildingBlock: UVAHIK_clean_linker_0, # of connection points: 2
#     Edge 38, Type (0, 1), BuildingBlock: UVAHIK_clean_linker_0, # of connection points: 2
#     Edge 39, Type (0, 1), BuildingBlock: UVAHIK_clean_linker_0, # of connection points: 2
#     Edge 40, Type (0, 1), BuildingBlock: UVAHIK_clean_linker_0, # of connection points: 2
#     Edge 41, Type (0, 1), BuildingBlock: UVAHIK_clean_linker_0, # of connection points: 2
#     Edge 42, Type (0, 1), BuildingBlock: UVAHIK_clean_linker_0, # of connection points: 2
#     Edge 43, Type (0, 1), BuildingBlock: UVAHIK_clean_linker_0, # of connection points: 2
#     Edge 44, Type (0, 1), BuildingBlock: UVAHIK_clean_linker_0, # of connection points: 2
#     Edge 45, Type (0, 1), BuildingBlock: UVAHIK_clean_linker_0, # of connection points: 2
#     Edge 46, Type (0, 1), BuildingBlock: UVAHIK_clean_linker_0, # of connection points: 2
#     Edge 47, Type (0, 1), BuildingBlock: UVAHIK_clean_linker_0, # of connection points: 2
#     Edge 48, Type (0, 1), BuildingBlock: UVAHIK_clean_linker_0, # of connection points: 2
#     Edge 49, Type (0, 1), BuildingBlock: UVAHIK_clean_linker_0, # of connection points: 2
#     Edge 50, Type (0, 1), BuildingBlock: UVAHIK_clean_linker_0, # of connection points: 2
#     Edge 51, Type (0, 1), BuildingBlock: UVAHIK_clean_linker_0, # of connection points: 2
#     Edge 52, Type (0, 1), BuildingBlock: UVAHIK_clean_linker_0, # of connection points: 2
#     Edge 53, Type (0, 1), BuildingBlock: UVAHIK_clean_linker_0, # of connection points: 2
#     Edge 54, Type (0, 1), BuildingBlock: UVAHIK_clean_linker_0, # of connection points: 2
#     Edge 55, Type (0, 1), BuildingBlock: UVAHIK_clean_linker_0, # of connection points: 2
#     Edge 56, Type (0, 1), BuildingBlock: UVAHIK_clean_linker_0, # of connection points: 2
#     Edge 57, Type (0, 1), BuildingBlock: UVAHIK_clean_linker_0, # of connection points: 2
#     Edge 58, Type (0, 1), BuildingBlock: UVAHIK_clean_linker_0, # of connection points: 2
#     Edge 59, Type (0, 1), BuildingBlock: UVAHIK_clean_linker_0, # of connection points: 2
#     Edge 60, Type (0, 1), BuildingBlock: UVAHIK_clean_linker_0, # of connection points: 2
#     Edge 61, Type (0, 1), BuildingBlock: UVAHIK_clean_linker_0, # of connection points: 2
# Relax obj value: 0.142
# Max RMSD: 0.209
# Mean RMSD: 0.191
data_MOF--net-ocu--node1-CUKXOW_clean_sbu_0--node2-AJUNOK_clean_sbu_0--edge1-UVAHIK_clean_linker_0
_symmetry_space_group_name_H-M    P1
_symmetry_Int_Tables_number       1
_symmetry_cell_setting            triclinic
loop_
_symmetry_equiv_pos_as_xyz
'x, y, z'
_cell_length_a     50.270445
_cell_length_b     52.862541
_cell_length_c     44.410306
_cell_angle_alpha  98.683414
_cell_angle_beta   98.679197
_cell_angle_gamma 100.74626
loop_
_atom_site_label
_atom_site_type_symbol
_atom_site_fract_x
_atom_site_fract_y
_atom_site_fract_z
_atom_type_partial_charge
Tb0 Tb 0.22821 0.2397 0.22167 0.0
C1 C 0.27559 0.29104 0.23264 0.0
Tb2 Tb 0.23558 0.28342 0.28044 0.0
O3 O 0.18734 0.24689 0.20505 0.0
O4 O 0.21774 0.27675 0.23261 0.0
O5 O 0.26693 0.26573 0.22025 0.0
C6 C 0.22252 0.32266 0.31596 0.0
O7 O 0.26454 0.30308 0.25468 0.0
C8 C 0.26671 0.24932 0.29094 0.0
C9 C 0.19906 0.22645 0.27696 0.0
O10 O 0.24724 0.31821 0.31731 0.0
O11 O 0.20538 0.30512 0.29471 0.0
O12 O 0.26553 0.26908 0.3118 0.0
O13 O 0.25101 0.25059 0.26661 0.0
O14 O 0.20343 0.25196 0.28854 0.0
O15 O 0.20919 0.21717 0.25267 0.0
C16 C 0.2343 0.20423 0.17524 0.0
O17 O 0.22849 0.19933 0.20156 0.0
O18 O 0.23666 0.22905 0.17508 0.0
C19 C 0.1927 0.27088 0.22001 0.0
Tb20 Tb 0.76106 0.19856 0.2618 0.0
C21 C 0.75994 0.17324 0.19404 0.0
Tb22 Tb 0.79911 0.2276 0.22492 0.0
O23 O 0.72506 0.20478 0.23146 0.0
O24 O 0.76217 0.23194 0.2404 0.0
O25 O 0.75687 0.16786 0.22172 0.0
C26 C 0.81543 0.25878 0.18694 0.0
O27 O 0.77187 0.19676 0.1902 0.0
C28 C 0.81595 0.18816 0.24572 0.0
C29 C 0.80399 0.25116 0.29492 0.0
O30 O 0.832 0.25204 0.20837 0.0
O31 O 0.7901 0.24822 0.18732 0.0
O32 O 0.82294 0.19667 0.22143 0.0
O33 O 0.80304 0.20356 0.25855 0.0
O34 O 0.81026 0.25588 0.26802 0.0
O35 O 0.78771 0.22919 0.29789 0.0
C36 C 0.73846 0.18036 0.30666 0.0
O37 O 0.73721 0.20262 0.29838 0.0
O38 O 0.75178 0.16758 0.28888 0.0
C39 C 0.73811 0.22616 0.22475 0.0
Tb40 Tb 0.7391 0.79192 0.22662 0.0
C41 C 0.71291 0.73455 0.19225 0.0
Tb42 Tb 0.74239 0.74717 0.26261 0.0
O43 O 0.76581 0.77813 0.19594 0.0
O44 O 0.7694 0.77078 0.24079 0.0
O45 O 0.71227 0.75959 0.1931 0.0
C46 C 0.75406 0.70579 0.28533 0.0
O47 O 0.72519 0.72578 0.21589 0.0
C48 C 0.70487 0.77391 0.27483 0.0
C49 C 0.76852 0.80413 0.29709 0.0
O50 O 0.73036 0.71243 0.28311 0.0
O51 O 0.77097 0.72232 0.27473 0.0
O52 O 0.71683 0.76148 0.29407 0.0
O53 O 0.712 0.76859 0.24885 0.0
O54 O 0.77016 0.7792 0.2951 0.0
O55 O 0.75464 0.81292 0.27438 0.0
C56 C 0.72692 0.83198 0.20129 0.0
O57 O 0.75106 0.83144 0.2162 0.0
O58 O 0.70988 0.81033 0.2012 0.0
C59 C 0.77724 0.76555 0.21533 0.0
Tb60 Tb 0.30119 0.74554 0.23218 0.0
C61 C 0.32308 0.74918 0.30444 0.0
Tb62 Tb 0.2693 0.71079 0.26764 0.0
O63 O 0.27021 0.76994 0.22913 0.0
O64 O 0.27651 0.75125 0.26634 0.0
O65 O 0.32857 0.75457 0.27745 0.0
C66 C 0.22984 0.68793 0.29456 0.0
O67 O 0.29967 0.73389 0.30678 0.0
C68 C 0.31057 0.69331 0.24818 0.0
C69 C 0.24881 0.70704 0.19621 0.0
O70 O 0.24182 0.6757 0.2748 0.0
O71 O 0.24026 0.7128 0.29931 0.0
O72 O 0.30168 0.68836 0.27314 0.0
O73 O 0.29466 0.70519 0.23398 0.0
O74 O 0.24113 0.7065 0.22343 0.0
O75 O 0.27452 0.71703 0.19433 0.0
C76 C 0.33932 0.77043 0.20508 0.0
O77 O 0.31297 0.76795 0.19707 0.0
O78 O 0.34432 0.75883 0.22836 0.0
C79 C 0.26108 0.76421 0.25355 0.0
Tb80 Tb 0.27133 0.72271 0.78687 0.0
C81 C 0.24787 0.70014 0.71785 0.0
Tb82 Tb 0.30209 0.7447 0.74057 0.0
O83 O 0.23505 0.7369 0.76946 0.0
O84 O 0.27425 0.75762 0.76766 0.0
O85 O 0.24938 0.69449 0.74604 0.0
C86 C 0.31603 0.76538 0.69267 0.0
O87 O 0.26466 0.72028 0.71152 0.0
C88 C 0.32422 0.71049 0.76703 0.0
C89 C 0.32545 0.76715 0.80983 0.0
O90 O 0.30491 0.77649 0.71414 0.0
O91 O 0.31987 0.74292 0.69852 0.0
O92 O 0.33812 0.72977 0.75708 0.0
O93 O 0.29876 0.70959 0.75929 0.0
O94 O 0.32409 0.77262 0.78155 0.0
O95 O 0.30915 0.74656 0.81595 0.0
C96 C 0.25456 0.70415 0.83496 0.0
O97 O 0.25591 0.72789 0.83024 0.0
O98 O 0.26251 0.69061 0.8124 0.0
C99 C 0.24873 0.75624 0.75951 0.0
Tb100 Tb 0.23514 0.28581 0.72468 0.0
C101 C 0.20102 0.23244 0.68495 0.0
Tb102 Tb 0.22687 0.23783 0.75605 0.0
O103 O 0.26039 0.26824 0.69519 0.0
O104 O 0.25961 0.25944 0.73941 0.0
O105 O 0.20636 0.25827 0.6873 0.0
C106 C 0.22897 0.19231 0.77457 0.0
O107 O 0.2078 0.2205 0.70831 0.0
C108 C 0.19339 0.26941 0.76608 0.0
C109 C 0.26315 0.29037 0.79475 0.0
O110 O 0.23946 0.20017 0.7518 0.0
O111 O 0.21701 0.20998 0.78665 0.0
O112 O 0.1992 0.25332 0.7841 0.0
O113 O 0.20273 0.26425 0.74156 0.0
O114 O 0.25915 0.26447 0.79038 0.0
O115 O 0.25343 0.30291 0.77314 0.0
C116 C 0.2318 0.33061 0.70502 0.0
O117 O 0.25321 0.32009 0.70625 0.0
O118 O 0.21256 0.31601 0.71493 0.0
C119 C 0.26813 0.25364 0.71441 0.0
Tb120 Tb 0.80099 0.24064 0.73807 0.0
C121 C 0.80466 0.2509 0.80995 0.0
Tb122 Tb 0.75354 0.21276 0.76396 0.0
O123 O 0.79216 0.27927 0.7536 0.0
O124 O 0.76081 0.24586 0.74279 0.0
O125 O 0.81895 0.25102 0.78714 0.0
C126 C 0.70838 0.20094 0.78797 0.0
O127 O 0.77838 0.23876 0.80571 0.0
C128 C 0.78885 0.18384 0.74913 0.0
C129 C 0.74835 0.20717 0.6932 0.0
O130 O 0.73039 0.21819 0.80162 0.0
O131 O 0.71212 0.18985 0.76136 0.0
O132 O 0.76348 0.17415 0.75048 0.0
O133 O 0.79387 0.20791 0.76 0.0
O134 O 0.73517 0.21209 0.71634 0.0
O135 O 0.77562 0.21269 0.69776 0.0
C136 C 0.84363 0.25268 0.71016 0.0
O137 O 0.81886 0.25555 0.7007 0.0
O138 O 0.84452 0.24335 0.73555 0.0
C139 C 0.76658 0.26985 0.75455 0.0
Tb140 Tb 0.7325 0.73814 0.7303 0.0
C141 C 0.77004 0.79171 0.72628 0.0
Tb142 Tb 0.73369 0.78566 0.77943 0.0
O143 O 0.70716 0.75319 0.69558 0.0
O144 O 0.70431 0.76172 0.74221 0.0
O145 O 0.76494 0.76581 0.71798 0.0
C146 C 0.72377 0.83086 0.80613 0.0
O147 O 0.75934 0.80364 0.74875 0.0
C148 C 0.76911 0.75716 0.79454 0.0
C149 C 0.70029 0.73086 0.78597 0.0
O150 O 0.73622 0.81551 0.82054 0.0
O151 O 0.71745 0.82096 0.77682 0.0
O152 O 0.75938 0.77156 0.81476 0.0
O153 O 0.7615 0.76189 0.76798 0.0
O154 O 0.7027 0.75667 0.79293 0.0
O155 O 0.71118 0.71975 0.76334 0.0
C156 C 0.73986 0.69251 0.70164 0.0
O157 O 0.72534 0.70733 0.68902 0.0
O158 O 0.74995 0.7033 0.73024 0.0
C159 C 0.69671 0.76677 0.71579 0.0
Cd160 Cd 0.01818 0.96732 0.56327 0.0
Cd161 Cd 0.03958 0.98271 0.45073 0.0
C162 C 0.07455 0.9604 0.60699 0.0
N163 N 0.05383 0.94761 0.58312 0.0
C164 C 0.06982 0.90772 0.58381 0.0
C165 C 0.09104 0.9201 0.60905 0.0
C166 C 0.09355 0.94698 0.62026 0.0
C167 C 0.0514 0.92187 0.57123 0.0
H168 H 0.07585 0.98081 0.61631 0.0
H169 H 0.03464 0.91212 0.55239 0.0
C170 C 0.98987 0.94963 0.4818 0.0
C171 C 0.98919 0.9859 0.39758 0.0
C172 C 0.96898 -0.00325 0.38217 0.0
C173 C 0.96029 0.01794 0.39807 0.0
C174 C 0.97131 0.02666 0.42982 0.0
C175 C 0.99144 0.0152 0.4443 0.0
N176 N 1.00039 0.99565 0.42789 0.0
H177 H 0.99681 0.97043 0.38502 0.0
H178 H 1.00075 0.02261 0.46835 0.0
C179 C 0.04852 0.93431 0.40204 0.0
N180 N 0.05934 0.94823 0.43104 0.0
C181 C 0.09734 0.9267 0.43392 0.0
C182 C 0.08714 0.91257 0.40357 0.0
C183 C 0.06208 0.91628 0.38785 0.0
C184 C 0.08311 0.94457 0.44721 0.0
H185 H 0.02977 0.93783 0.38953 0.0
H186 H 0.09155 0.95624 0.47001 0.0
C187 C 0.05944 0.00967 0.53236 0.0
C188 C 0.97629 0.93574 0.58612 0.0
N189 N 0.99923 0.00284 0.58194 0.0
C190 C 0.00871 0.01715 0.61102 0.0
C191 C 0.99387 0.03468 0.62387 0.0
C192 C 0.96889 0.03734 0.60675 0.0
C193 C 0.96032 0.02302 0.5763 0.0
C194 C 0.9758 0.00579 0.56438 0.0
C195 C 0.06943 0.02465 0.42709 0.0
O196 O 0.00777 0.95783 0.50636 0.0
O197 O 0.99618 0.95394 0.45603 0.0
O198 O 0.04793 0.99303 0.50809 0.0
O199 O 0.0542 0.00533 0.5586 0.0
O200 O 0.97682 0.93234 0.55717 0.0
O201 O 0.99554 0.9531 0.60385 0.0
O202 O 0.07367 0.02443 0.45605 0.0
O203 O 0.0526 0.00509 0.40983 0.0
H204 H 0.02707 0.01402 0.62479 0.0
H205 H 0.96848 0.99386 0.54153 0.0
H206 H 0.06725 0.88718 0.57405 0.0
H207 H 0.10936 0.95731 0.63985 0.0
H208 H 0.96076 0.98905 0.35786 0.0
H209 H 0.9655 0.04305 0.44302 0.0
H210 H 0.11672 0.92482 0.44683 0.0
H211 H 0.05319 0.90564 0.36462 0.0
H212 H 1.00118 0.04503 0.64752 0.0
H213 H 0.94146 0.02462 0.56204 0.0
Cd214 Cd 0.48754 0.02255 0.05456 0.0
Cd215 Cd 0.49373 0.05428 0.96613 0.0
C216 C 0.55425 0.02561 0.05599 0.0
N217 N 0.52947 0.00894 0.05324 0.0
C218 C 0.55159 0.97275 0.05503 0.0
C219 C 0.57752 0.98958 0.05881 0.0
C220 C 0.57859 0.01628 0.05853 0.0
C221 C 0.52783 0.98288 0.05229 0.0
H222 H 0.55548 0.04625 0.05715 0.0
H223 H 0.50806 0.96998 0.05054 0.0
C224 C 0.46981 -0.00103 0.97291 0.0
C225 C 0.4285 0.04227 0.93927 0.0
C226 C 0.40216 0.04745 0.93432 0.0
C227 C 0.39603 0.06829 0.95379 0.0
C228 C 0.41628 0.08226 0.9792 0.0
C229 C 0.44226 0.07618 0.98354 0.0
N230 N 0.44799 0.05691 0.96325 0.0
H231 H 0.43381 0.02769 0.92278 0.0
H232 H 0.45835 0.08777 0.00209 0.0
C233 C 0.54103 0.03931 0.93049 0.0
N234 N 0.52945 0.03348 0.95501 0.0
C235 C 0.55784 0.00257 0.96311 0.0
C236 C 0.56935 0.00743 0.93704 0.0
C237 C 0.56117 0.0266 0.92119 0.0
C238 C 0.53791 0.01597 0.97178 0.0
H239 H 0.53432 0.05356 0.91777 0.0
H240 H 0.52876 0.01189 0.99143 0.0
C241 C 0.51764 0.07521 0.04703 0.0
C242 C 0.46636 0.98329 0.08634 0.0
N243 N 0.44934 0.04143 0.04907 0.0
C244 C 0.44961 0.06509 0.0662 0.0
C245 C 0.42595 0.07539 0.06366 0.0
C246 C 0.40172 0.06101 0.04366 0.0
C247 C 0.40213 0.03674 0.02605 0.0
C248 C 0.42635 0.0273 0.02909 0.0
C249 C 0.50708 0.09661 0.93514 0.0
O250 O 0.47953 0.01437 0.99846 0.0
O251 O 0.47151 0.00805 0.94828 0.0
O252 O 0.50165 0.06182 0.02278 0.0
O253 O 0.51523 0.06742 0.07243 0.0
O254 O 0.46021 0.98102 0.05711 0.0
O255 O 0.48192 0.00469 0.10138 0.0
O256 O 0.51645 0.09854 0.96381 0.0
O257 O 0.49123 0.07507 0.92122 0.0
H258 H 0.46798 0.07572 0.08233 0.0
H259 H 0.42673 0.00845 0.01592 0.0
H260 H 0.54962 0.95211 0.05573 0.0
H261 H 0.59806 0.02998 0.06108 0.0
H262 H 0.38757 0.0366 0.91394 0.0
H263 H 0.41256 0.09853 0.99469 0.0
H264 H 0.56337 0.98791 0.97602 0.0
H265 H 0.56994 0.03152 0.90146 0.0
H266 H 0.42633 0.09397 0.07805 0.0
H267 H 0.38391 0.02517 0.01024 0.0
Cd268 Cd 0.97172 0.50082 0.05309 0.0
Cd269 Cd 0.9991 0.52572 0.94115 0.0
C270 C 0.00522 0.48442 0.11541 0.0
N271 N 0.00432 0.48454 0.08463 0.0
C272 C 0.03657 0.45646 0.08265 0.0
C273 C 0.03729 0.45516 0.11409 0.0
C274 C 0.02194 0.46998 0.13079 0.0
C275 C 0.02003 0.47141 0.06841 0.0
H276 H 0.99215 0.49459 0.12771 0.0
H277 H 0.01866 0.47153 0.04388 0.0
C278 C 0.95312 0.48469 0.97115 0.0
C279 C 0.95794 0.54099 0.88459 0.0
C280 C 0.93984 0.55517 0.87118 0.0
C281 C 0.93155 0.57508 0.89003 0.0
C282 C 0.94184 0.58006 0.92209 0.0
C283 C 0.95977 0.56546 0.93443 0.0
N284 N 0.96749 0.54644 0.9157 0.0
H285 H 0.96448 0.52579 0.87018 0.0
H286 H 0.9679 0.5695 0.95906 0.0
C287 C 0.01445 0.48922 0.88228 0.0
N288 N 0.01266 0.49057 0.91273 0.0
C289 C 0.03313 0.45333 0.91506 0.0
C290 C 0.03635 0.45199 0.88397 0.0
C291 C 0.02626 0.46998 0.86737 0.0
C292 C 0.02128 0.47288 0.92903 0.0
H293 H 0.00776 0.50373 0.86993 0.0
H294 H 0.0197 0.47447 0.95325 0.0
C295 C 0.02211 0.53836 0.02411 0.0
C296 C 0.93371 0.45253 0.04403 0.0
N297 N 0.95174 0.53257 0.07973 0.0
C298 C 0.96473 0.5485 0.10705 0.0
C299 C 0.952 0.56726 0.12152 0.0
C300 C 0.92558 0.56952 0.10788 0.0
C301 C 0.91285 0.55282 0.07961 0.0
C302 C 0.92637 0.53457 0.06587 0.0
C303 C 0.04884 0.56238 0.94483 0.0
O304 O 0.96423 0.4996 0.99687 0.0
O305 O 0.96092 0.49021 0.94649 0.0
O306 O 0.00778 0.52801 0.99759 0.0
O307 O 0.01379 0.53209 0.04824 0.0
O308 O 0.95781 0.45371 0.0382 0.0
O309 O 0.92708 0.47401 0.05342 0.0
O310 O 0.04353 0.53967 0.92819 0.0
O311 O 0.03053 0.56844 0.95974 0.0
H312 H 0.98498 0.54667 0.11758 0.0
H313 H 0.91661 0.52198 0.04394 0.0
H314 H 0.04822 0.44551 0.06899 0.0
H315 H 0.0218 0.46936 0.15503 0.0
H316 H 0.93232 0.55049 0.84641 0.0
H317 H 0.93658 0.5955 0.93753 0.0
H318 H 0.0401 0.43966 0.92867 0.0
H319 H 0.02851 0.46993 0.8435 0.0
H320 H 0.96257 0.57962 0.14335 0.0
H321 H 0.89276 0.55409 0.0679 0.0
Cd322 Cd 0.5206 0.46075 0.05959 0.0
Cd323 Cd 0.5435 0.48943 0.95121 0.0
C324 C 0.57265 0.44563 0.10076 0.0
N325 N 0.55466 0.43741 0.07335 0.0
C326 C 0.57102 0.3977 0.06441 0.0
C327 C 0.5893 0.40521 0.09308 0.0
C328 C 0.59032 0.42983 0.11105 0.0
C329 C 0.55379 0.41412 0.05501 0.0
H330 H 0.57258 0.46404 0.11516 0.0
H331 H 0.53905 0.40792 0.03349 0.0
C332 C 0.49239 0.44855 0.97617 0.0
C333 C 0.51058 0.50644 0.89128 0.0
C334 C 0.49232 0.51889 0.87512 0.0
C335 C 0.47113 0.52705 0.88887 0.0
C336 C 0.46826 0.52133 0.91826 0.0
C337 C 0.4871 0.50904 0.9337 0.0
N338 N 0.50794 0.50218 0.92023 0.0
H339 H 0.52766 0.50131 0.88136 0.0
H340 H 0.48588 0.50608 0.95707 0.0
C341 C 0.57376 0.46496 0.8977 0.0
N342 N 0.56248 0.45831 0.92215 0.0
C343 C 0.57825 0.41802 0.91649 0.0
C344 C 0.59097 0.42481 0.89184 0.0
C345 C 0.58819 0.4485 0.88224 0.0
C346 C 0.56419 0.43521 0.93151 0.0
H347 H 0.57224 0.48345 0.89072 0.0
H348 H 0.5553 0.43046 0.95121 0.0
C349 C 0.56363 0.50366 0.03318 0.0
C350 C 0.48087 0.43174 0.08801 0.0
N351 N 0.50569 0.49822 0.07977 0.0
C352 C 0.51672 0.51154 0.10899 0.0
C353 C 0.50486 0.53126 0.1227 0.0
C354 C 0.48138 0.53729 0.1062 0.0
C355 C 0.47112 0.52377 0.07562 0.0
C356 C 0.48358 0.50418 0.06286 0.0
C357 C 0.57847 0.53811 0.9476 0.0
O358 O 0.50704 0.45557 0.00308 0.0
O359 O 0.50105 0.45748 0.95348 0.0
O360 O 0.54991 0.48972 0.00784 0.0
O361 O 0.55926 0.49707 0.05876 0.0
O362 O 0.47885 0.42769 0.05863 0.0
O363 O 0.50148 0.4488 0.10374 0.0
O364 O 0.55393 0.53677 0.95203 0.0
O365 O 0.58754 0.51718 0.94714 0.0
H366 H 0.53411 0.50619 0.12207 0.0
H367 H 0.47495 0.49296 0.03985 0.0
H368 H 0.56972 0.3791 0.04957 0.0
H369 H 0.60378 0.43636 0.13344 0.0
H370 H 0.4952 0.52271 0.85241 0.0
H371 H 0.45253 0.52756 0.92996 0.0
H372 H 0.58003 0.40009 0.92486 0.0
H373 H 0.59732 0.45441 0.86313 0.0
H374 H 0.51372 0.54134 0.14617 0.0
H375 H 0.45289 0.52744 0.06212 0.0
Cd376 Cd 0.97739 0.48554 0.55552 0.0
Cd377 Cd 0.99408 0.52563 0.47266 0.0
C378 C 0.04399 0.49716 0.57302 0.0
N379 N 0.02227 0.48202 0.55199 0.0
C380 C 0.051 0.45472 0.53243 0.0
C381 C 0.07377 0.4694 0.55461 0.0
C382 C 0.07005 0.4913 0.57459 0.0
C383 C 0.02537 0.46141 0.53154 0.0
H384 H 0.04088 0.51285 0.58983 0.0
H385 H 0.00763 0.44943 0.51543 0.0
C386 C 0.95664 0.47324 0.47321 0.0
C387 C 0.93806 0.52985 0.43248 0.0
C388 C 0.91351 0.53754 0.42341 0.0
C389 C 0.90351 0.55402 0.44483 0.0
C390 C 0.91856 0.56203 0.47528 0.0
C391 C 0.94318 0.55388 0.48334 0.0
N392 N 0.95227 0.53802 0.46196 0.0
H393 H 0.9462 0.51782 0.41575 0.0
H394 H 0.95525 0.56052 0.50647 0.0
C395 C 0.02514 0.47794 0.45835 0.0
N396 N 0.02882 0.50176 0.47683 0.0
C397 C 0.07642 0.50208 0.49372 0.0
C398 C 0.07329 0.47773 0.4744 0.0
C399 C 0.04713 0.4654 0.45703 0.0
C400 C 0.05373 0.51374 0.4947 0.0
H401 H 0.00549 0.46909 0.44356 0.0
H402 H 0.0563 0.53283 0.50881 0.0
C403 C 1.00366 0.54356 0.55711 0.0
C404 C 0.97002 0.44113 0.584 0.0
N405 N 0.93771 0.49959 0.56327 0.0
C406 C 0.92542 0.49208 0.58663 0.0
C407 C 0.90245 0.50145 0.59341 0.0
C408 C 0.89224 0.51896 0.57618 0.0
C409 C 0.90493 0.52569 0.5515 0.0
C410 C 0.92773 0.51561 0.54537 0.0
C411 C 0.0215 0.55881 0.43751 0.0
O412 O 0.96975 0.48421 0.50002 0.0
O413 O 0.96162 0.48436 0.45071 0.0
O414 O 0.99636 0.53138 0.52926 0.0
O415 O 0.99738 0.53127 0.57842 0.0
O416 O 0.9579 0.44057 0.55658 0.0
O417 O 0.98457 0.46299 0.59892 0.0
O418 O 0.01945 0.56755 0.46517 0.0
O419 O 0.01014 0.53501 0.42636 0.0
H420 H 0.93375 0.47914 0.60033 0.0
H421 H 0.93791 0.52094 0.52681 0.0
H422 H 0.05271 0.43784 0.51634 0.0
H423 H 0.0866 0.50284 0.59269 0.0
H424 H 0.9031 0.53146 0.39948 0.0
H425 H 0.91161 0.57473 0.49254 0.0
H426 H 0.09626 0.51214 0.50753 0.0
H427 H 0.04399 0.44683 0.4414 0.0
H428 H 0.89301 0.49528 0.61221 0.0
H429 H 0.89797 0.53928 0.53775 0.0
Cd430 Cd 0.47478 -0.00136 0.55981 0.0
Cd431 Cd 0.49916 0.02337 0.44477 0.0
C432 C 0.49882 0.97144 0.61619 0.0
N433 N 0.50729 0.98442 0.59393 0.0
C434 C 0.55038 0.97097 0.60154 0.0
C435 C 0.54168 0.9561 0.6234 0.0
C436 C 0.51576 0.95714 0.63131 0.0
C437 C 0.53273 0.98476 0.58682 0.0
H438 H 0.4782 0.97079 0.6208 0.0
H439 H 0.53882 0.99452 0.56846 0.0
C440 C 0.45918 0.97917 0.47787 0.0
C441 C 0.44879 0.03146 0.39214 0.0
C442 C 0.43015 0.04483 0.37805 0.0
C443 C 0.43026 0.07082 0.39132 0.0
C444 C 0.44959 0.08266 0.41844 0.0
C445 C 0.46771 0.06862 0.4317 0.0
N446 N 0.46701 0.04351 0.41855 0.0
H447 H 0.44862 0.01144 0.38212 0.0
H448 H 0.48243 0.07778 0.45264 0.0
C449 C 0.50776 0.98067 0.38614 0.0
N450 N 0.51409 0.98837 0.41748 0.0
C451 C 0.54419 0.95836 0.42131 0.0
C452 C 0.53859 0.95019 0.38889 0.0
C453 C 0.51976 0.96148 0.37132 0.0
C454 C 0.53162 0.97737 0.43511 0.0
H455 H 0.49388 0.98982 0.37258 0.0
H456 H 0.53656 0.98409 0.45995 0.0
C457 C 0.52285 0.03794 0.52787 0.0
C458 C 0.4383 0.94909 0.5498 0.0
N459 N 0.45318 0.02906 0.58629 0.0
C460 C 0.46589 0.04504 0.61366 0.0
C461 C 0.45257 0.06312 0.62838 0.0
C462 C 0.42581 0.06464 0.61495 0.0
C463 C 0.41331 0.04783 0.58669 0.0
C464 C 0.42744 0.03029 0.57267 0.0
C465 C 0.55018 0.05787 0.4486 0.0
O466 O 0.46834 0.99526 0.50322 0.0
O467 O 0.46568 0.98523 0.45286 0.0
O468 O 0.50797 0.0278 0.50157 0.0
O469 O 0.51524 0.03147 0.5523 0.0
O470 O 0.42963 0.97013 0.55505 0.0
O471 O 0.46372 0.95133 0.54884 0.0
O472 O 0.53305 0.06432 0.46505 0.0
O473 O 0.54289 0.03608 0.42995 0.0
H474 H 0.48641 0.0438 0.62401 0.0
H475 H 0.41788 0.01768 0.5507 0.0
H476 H 0.57031 0.97124 0.59498 0.0
H477 H 0.5079 0.94581 0.64766 0.0
H478 H 0.41552 0.03478 0.35734 0.0
H479 H 0.45092 0.10275 0.42927 0.0
H480 H 0.55889 0.95084 0.43598 0.0
H481 H 0.51442 0.95568 0.34636 0.0
H482 H 0.46298 0.07559 0.6502 0.0
H483 H 0.39296 0.04856 0.57517 0.0
C484 C 0.16945 0.21451 0.31612 0.0
C485 C 0.18432 0.20706 0.29309 0.0
C486 C 0.1565 0.19585 0.33167 0.0
C487 C 0.13315 0.12348 0.32443 0.0
H488 H 0.1299 0.14052 0.41161 0.0
C489 C 0.10456 0.06649 0.43088 0.0
C490 C 0.08239 0.04684 0.41366 0.0
C491 C 0.11661 0.08706 0.4173 0.0
C492 C 0.13087 0.13533 0.38733 0.0
H493 H 0.19779 0.17416 0.26907 0.0
H494 H 0.17614 0.14224 0.29638 0.0
H495 H 0.15188 0.17425 0.38589 0.0
H496 H 0.05465 0.03411 0.36926 0.0
H497 H 0.07476 0.07001 0.34619 0.0
H498 H 0.11344 0.08445 0.32591 0.0
C499 C 0.17354 0.16218 0.30192 0.0
C500 C 0.14313 0.15483 0.37243 0.0
C501 C 0.18613 0.18065 0.28624 0.0
C502 C 0.07206 0.04862 0.38302 0.0
C503 C 0.08375 0.06924 0.36968 0.0
C504 C 0.12124 0.10403 0.33933 0.0
C505 C 0.15834 0.16939 0.32471 0.0
C506 C 0.14453 0.14913 0.34075 0.0
C507 C 0.1065 0.08856 0.38635 0.0
C508 C 0.11977 0.10961 0.37096 0.0
H509 H 0.16771 0.2347 0.32205 0.0
H510 H 0.14479 0.20214 0.34886 0.0
H511 H 0.13333 0.11831 0.29994 0.0
H512 H 0.11285 0.06576 0.45463 0.0
H513 H 0.13418 0.10143 0.43087 0.0
C514 C 0.82152 0.16317 0.289 0.0
C515 C 0.82704 0.16789 0.26004 0.0
C516 C 0.83318 0.14497 0.30336 0.0
C517 C 0.86794 0.08921 0.28829 0.0
H518 H 0.89661 0.10798 0.37662 0.0
C519 C 0.94427 0.03653 0.35133 0.0
C520 C 0.94147 0.03205 0.38125 0.0
C521 C 0.92801 0.05127 0.33621 0.0
C522 C 0.88837 0.10223 0.35203 0.0
H523 H 0.84868 0.15705 0.22313 0.0
H524 H 0.86943 0.12558 0.2483 0.0
H525 H 0.87257 0.13702 0.35084 0.0
H526 H 0.91859 0.03902 0.41826 0.0
H527 H 0.89031 0.06488 0.39191 0.0
H528 H 0.88423 0.05463 0.28946 0.0
C529 C 0.85578 0.1356 0.25981 0.0
C530 C 0.87454 0.1189 0.33721 0.0
C531 C 0.84405 0.15375 0.24544 0.0
C532 C 0.9216 0.04236 0.39542 0.0
C533 C 0.90537 0.0572 0.38032 0.0
C534 C 0.88184 0.07257 0.3031 0.0
C535 C 0.85071 0.13112 0.28911 0.0
C536 C 0.86433 0.11273 0.30509 0.0
C537 C 0.90856 0.06203 0.35063 0.0
C538 C 0.89243 0.07898 0.33512 0.0
H539 H 0.80851 0.17383 0.30082 0.0
H540 H 0.82848 0.14179 0.32567 0.0
H541 H 0.85995 0.08357 0.26364 0.0
H542 H 0.9597 0.02939 0.33989 0.0
H543 H 0.93133 0.05493 0.31358 0.0
C544 C 0.77949 0.84865 0.33097 0.0
C545 C 0.78249 0.82252 0.32599 0.0
C546 C 0.79376 0.86607 0.35792 0.0
C547 C 0.83769 0.86961 0.43509 0.0
H548 H 0.87842 0.93294 0.41563 0.0
C549 C 0.95081 0.91359 0.48266 0.0
C550 C 0.96094 0.94013 0.48296 0.0
C551 C 0.92247 0.90322 0.47491 0.0
C552 C 0.86677 0.9158 0.422 0.0
H553 H 0.80185 0.79392 0.34603 0.0
H554 H 0.8272 0.82426 0.39213 0.0
H555 H 0.8392 0.9067 0.37855 0.0
H556 H 0.95024 0.97734 0.47849 0.0
H557 H 0.90061 0.95943 0.46556 0.0
H558 H 0.86683 0.87793 0.47773 0.0
C559 C 0.81345 0.83131 0.37574 0.0
C560 C 0.84417 0.90067 0.40059 0.0
C561 C 0.79915 0.81394 0.34898 0.0
C562 C 0.94259 0.95674 0.47837 0.0
C563 C 0.9143 0.94647 0.47087 0.0
C564 C 0.86045 0.88472 0.45651 0.0
C565 C 0.81135 0.8577 0.3803 0.0
C566 C 0.83024 0.87674 0.40621 0.0
C567 C 0.90408 0.91936 0.46723 0.0
C568 C 0.876 0.90731 0.44949 0.0
H569 H 0.76647 0.85578 0.31391 0.0
H570 H 0.7915 0.88623 0.36089 0.0
H571 H 0.82691 0.85156 0.4404 0.0
H572 H 0.96483 0.90054 0.48595 0.0
H573 H 0.91532 0.88223 0.47212 0.0
C574 C 0.23905 0.77584 0.29938 0.0
C575 C 0.24145 0.77719 0.26852 0.0
C576 C 0.22125 0.78893 0.31386 0.0
C577 C 0.16125 0.82007 0.29766 0.0
H578 H 0.18627 0.85604 0.38292 0.0
C579 C 0.10487 0.89444 0.35646 0.0
C580 C 0.10318 0.89509 0.38791 0.0
C581 C 0.12073 0.87891 0.34198 0.0
C582 C 0.17874 0.84583 0.35924 0.0
H583 H 0.22702 0.79324 0.22859 0.0
H584 H 0.19618 0.81636 0.25386 0.0
H585 H 0.21552 0.83113 0.35759 0.0
H586 H 0.11653 0.87924 0.4285 0.0
H587 H 0.14409 0.85212 0.40326 0.0
H588 H 0.12454 0.83493 0.29927 0.0
C589 C 0.20771 0.80487 0.26683 0.0
C590 C 0.19557 0.8315 0.34467 0.0
C591 C 0.22553 0.79176 0.25237 0.0
C592 C 0.11762 0.87954 0.40438 0.0
C593 C 0.13348 0.86398 0.38988 0.0
C594 C 0.14442 0.8344 0.31224 0.0
C595 C 0.20544 0.80379 0.29786 0.0
C596 C 0.18713 0.81851 0.31362 0.0
C597 C 0.13539 0.86355 0.35851 0.0
C598 C 0.15297 0.8476 0.34321 0.0
H599 H 0.25128 0.76501 0.31257 0.0
H600 H 0.21985 0.78736 0.33763 0.0
H601 H 0.15382 0.81 0.27392 0.0
H602 H 0.0945 0.90649 0.34312 0.0
H603 H 0.12203 0.87947 0.31796 0.0
C604 C 0.20696 0.76732 0.73153 0.0
C605 C 0.23549 0.77424 0.74275 0.0
C606 C 0.19335 0.78426 0.7171 0.0
C607 C 0.20304 0.84239 0.67895 0.0
H608 H 0.13091 0.84587 0.69812 0.0
C609 C 0.13779 0.91502 0.63497 0.0
C610 C 0.10941 0.90466 0.6244 0.0
C611 C 0.15468 0.90037 0.64965 0.0
C612 C 0.1509 0.845 0.69225 0.0
H613 H 0.27231 0.80421 0.74693 0.0
H614 H 0.24841 0.83421 0.72177 0.0
H615 H 0.15774 0.81842 0.72292 0.0
H616 H 0.07666 0.87076 0.62153 0.0
H617 H 0.10593 0.84533 0.64663 0.0
H618 H 0.19596 0.86918 0.64822 0.0
C619 C 0.23659 0.81547 0.724 0.0
C620 C 0.16635 0.82919 0.70648 0.0
C621 C 0.25031 0.79834 0.73846 0.0
C622 C 0.09843 0.87931 0.62895 0.0
C623 C 0.11521 0.8648 0.64373 0.0
C624 C 0.18754 0.85836 0.66471 0.0
C625 C 0.2078 0.80881 0.71359 0.0
C626 C 0.19244 0.82724 0.69968 0.0
C627 C 0.14355 0.87512 0.65443 0.0
C628 C 0.16104 0.85952 0.67081 0.0
H629 H 0.19499 0.74872 0.73404 0.0
H630 H 0.17136 0.77805 0.70869 0.0
H631 H 0.22296 0.84132 0.67301 0.0
H632 H 0.14701 0.93439 0.6317 0.0
H633 H 0.17637 0.909 0.65773 0.0
C634 C 0.19509 0.19115 0.64771 0.0
C635 C 0.18871 0.21585 0.65459 0.0
C636 C 0.18351 0.17474 0.61947 0.0
C637 C 0.16277 0.1453 0.55469 0.0
H638 H 0.08363 0.12747 0.5491 0.0
C639 C 0.06382 0.05199 0.51397 0.0
C640 C 0.07593 0.03494 0.53015 0.0
C641 C 0.07858 0.07723 0.51444 0.0
C642 C 0.10558 0.13253 0.54941 0.0
H643 H 0.16618 0.24335 0.63699 0.0
H644 H 0.14472 0.21379 0.58747 0.0
H645 H 0.10955 0.16993 0.57786 0.0
H646 H 0.11263 0.03011 0.55894 0.0
H647 H 0.1386 0.07429 0.56008 0.0
H648 H 0.15902 0.10682 0.52878 0.0
C649 C 0.1591 0.2075 0.60396 0.0
C650 C 0.12044 0.15692 0.56588 0.0
C651 C 0.17119 0.22425 0.63223 0.0
C652 C 0.10313 0.043 0.54609 0.0
C653 C 0.11799 0.06811 0.54637 0.0
C654 C 0.14793 0.1209 0.53832 0.0
C655 C 0.16503 0.18249 0.59751 0.0
C656 C 0.14932 0.16264 0.57059 0.0
C657 C 0.10564 0.08568 0.53117 0.0
C658 C 0.11949 0.11365 0.53753 0.0
H659 H 0.20894 0.18435 0.66428 0.0
H660 H 0.18806 0.15539 0.61548 0.0
H661 H 0.18503 0.14953 0.55754 0.0
H662 H 0.04266 0.04609 0.50186 0.0
H663 H 0.06856 0.09045 0.50275 0.0
C664 C 0.79794 0.14427 0.71703 0.0
C665 C 0.80801 0.16921 0.73557 0.0
C666 C 0.81579 0.13057 0.7035 0.0
C667 C 0.88564 0.13965 0.68244 0.0
H668 H 0.87273 0.06423 0.67584 0.0
C669 C 0.96245 0.07779 0.64102 0.0
C670 C 0.95104 0.05355 0.62113 0.0
C671 C 0.94554 0.09242 0.65512 0.0
C672 C 0.87651 0.08526 0.67718 0.0
H673 H 0.84478 0.19907 0.75524 0.0
H674 H 0.87607 0.17522 0.73187 0.0
H675 H 0.84257 0.08849 0.70031 0.0
H676 H 0.9127 0.02572 0.60088 0.0
H677 H 0.88338 0.05126 0.62498 0.0
H678 H 0.91975 0.13631 0.65942 0.0
C679 C 0.85429 0.16638 0.72712 0.0
C680 C 0.85913 0.09922 0.69122 0.0
C681 C 0.83637 0.18009 0.74057 0.0
C682 C 0.92226 0.04443 0.61568 0.0
C683 C 0.90542 0.05895 0.62987 0.0
C684 C 0.90311 0.12566 0.66847 0.0
C685 C 0.84426 0.14139 0.70833 0.0
C686 C 0.86329 0.12662 0.6939 0.0
C687 C 0.91679 0.0831 0.64991 0.0
C688 C 0.89867 0.09824 0.66545 0.0
H689 H 0.77614 0.13545 0.7126 0.0
H690 H 0.80714 0.11162 0.68883 0.0
H691 H 0.88935 0.16066 0.68365 0.0
H692 H 0.98447 0.08553 0.64563 0.0
H693 H 0.95507 0.11083 0.67057 0.0
C694 C 0.80337 0.8332 0.72447 0.0
C695 C 0.78953 0.80747 0.71077 0.0
C696 C 0.82265 0.84733 0.71008 0.0
C697 C 0.86574 0.8376 0.6493 0.0
H698 H 0.87588 0.91296 0.65718 0.0
C699 C 0.93543 0.8986 0.58094 0.0
C700 C 0.95401 0.92085 0.59895 0.0
C701 C 0.91455 0.88476 0.59357 0.0
C702 C 0.87331 0.89191 0.65487 0.0
H703 H 0.78428 0.77681 0.67059 0.0
H704 H 0.81686 0.80159 0.6451 0.0
H705 H 0.84076 0.88916 0.68096 0.0
H706 H 0.96489 0.94628 0.64412 0.0
H707 H 0.92833 0.92241 0.66584 0.0
H708 H 0.89803 0.84047 0.62267 0.0
C709 C 0.81376 0.81068 0.66746 0.0
C710 C 0.85328 0.87824 0.66866 0.0
C711 C 0.79486 0.79647 0.68203 0.0
C712 C 0.95102 0.92915 0.62964 0.0
C713 C 0.92996 0.91559 0.64206 0.0
C714 C 0.88549 0.85124 0.63516 0.0
C715 C 0.82825 0.83621 0.68141 0.0
C716 C 0.84929 0.85087 0.66626 0.0
C717 C 0.91155 0.89319 0.62425 0.0
C718 C 0.88964 0.87856 0.63798 0.0
H719 H 0.79981 0.8422 0.74666 0.0
H720 H 0.83358 0.86678 0.72183 0.0
H721 H 0.8638 0.81665 0.64739 0.0
H722 H 0.93715 0.89179 0.55719 0.0
H723 H 0.90054 0.86763 0.57925 0.0
C724 C 0.23351 0.15833 0.15104 0.0
C725 C 0.24062 0.18526 0.15104 0.0
C726 C 0.24234 0.14055 0.13025 0.0
C727 C 0.27923 0.13545 0.06264 0.0
H728 H 0.30696 0.08254 0.10206 0.0
C729 C 0.37602 0.09727 0.0428 0.0
C730 C 0.37586 0.07067 0.04288 0.0
C731 C 0.35266 0.10714 0.04677 0.0
C732 C 0.29882 0.0968 0.09038 0.0
H733 H 0.26141 0.21483 0.12875 0.0
H734 H 0.27808 0.18416 0.09361 0.0
H735 H 0.27815 0.10765 0.12716 0.0
H736 H 0.3507 0.03329 0.04555 0.0
H737 H 0.30999 0.05075 0.05321 0.0
H738 H 0.30212 0.12571 0.02707 0.0
C739 C 0.26497 0.17641 0.10876 0.0
C740 C 0.28216 0.11123 0.10473 0.0
C741 C 0.25563 0.1941 0.12911 0.0
C742 C 0.35138 0.05385 0.04523 0.0
C743 C 0.32814 0.06381 0.04971 0.0
C744 C 0.29635 0.12128 0.04854 0.0
C745 C 0.25905 0.14943 0.10957 0.0
C746 C 0.27277 0.13128 0.09154 0.0
C747 C 0.32887 0.09068 0.05143 0.0
C748 C 0.30683 0.1023 0.06273 0.0
H749 H 0.22165 0.15107 0.16757 0.0
H750 H 0.23675 0.1199 0.13106 0.0
H751 H 0.27187 0.15029 0.0514 0.0
H752 H 0.39456 0.11067 0.04094 0.0
H753 H 0.35385 0.12798 0.0483 0.0
C754 C 0.85078 0.28046 0.15984 0.0
C755 C 0.82349 0.275 0.16449 0.0
C756 C 0.85781 0.29534 0.13763 0.0
C757 C 0.83912 0.34781 0.10297 0.0
H758 H 0.88309 0.32877 0.04202 0.0
C759 C 0.88685 0.42596 0.04211 0.0
C760 C 0.91496 0.42725 0.04222 0.0
C761 C 0.87005 0.40297 0.04595 0.0
C762 C 0.87086 0.33442 0.05895 0.0
H763 H 0.78209 0.28047 0.14991 0.0
H764 H 0.79463 0.30718 0.11183 0.0
H765 H 0.86583 0.29695 0.07295 0.0
H766 H 0.94714 0.40507 0.04331 0.0
H767 H 0.91852 0.36562 0.05209 0.0
H768 H 0.84568 0.38572 0.09133 0.0
C769 C 0.81042 0.29967 0.12494 0.0
C770 C 0.86097 0.31618 0.07652 0.0
C771 C 0.80333 0.28451 0.14673 0.0
C772 C 0.92554 0.40463 0.04354 0.0
C773 C 0.90896 0.38187 0.04824 0.0
C774 C 0.84943 0.36618 0.08595 0.0
C775 C 0.83769 0.3052 0.12025 0.0
C776 C 0.84556 0.32301 0.09911 0.0
C777 C 0.88133 0.3812 0.05105 0.0
C778 C 0.86607 0.35998 0.06428 0.0
H779 H 0.86658 0.27315 0.1732 0.0
H780 H 0.87907 0.29973 0.13461 0.0
H781 H 0.82741 0.35353 0.12046 0.0
H782 H 0.87806 0.44301 0.04023 0.0
H783 H 0.8486 0.40282 0.04675 0.0
C784 C 0.69642 0.84631 0.16105 0.0
C785 C 0.71996 0.85248 0.18443 0.0
C786 C 0.68933 0.86519 0.14448 0.0
C787 C 0.68956 0.93285 0.15194 0.0
H788 H 0.67058 0.91794 0.06217 0.0
C789 C 0.62533 0.99439 0.08889 0.0
C790 C 0.60308 0.97957 0.06611 0.0
C791 C 0.64716 0.98322 0.0998 0.0
C792 C 0.6757 0.92244 0.08723 0.0
H793 H 0.75462 0.88311 0.20902 0.0
H794 H 0.74135 0.91686 0.18068 0.0
H795 H 0.69466 0.88945 0.08917 0.0
H796 H 0.58781 0.94222 0.03482 0.0
H797 H 0.6249 0.92239 0.05472 0.0
H798 H 0.66869 0.96441 0.15051 0.0
C799 C 0.72885 0.89714 0.17489 0.0
C800 C 0.68969 0.90624 0.10261 0.0
C801 C 0.73637 0.87795 0.19105 0.0
C802 C 0.60425 0.954 0.05291 0.0
C803 C 0.62587 0.94274 0.06406 0.0
C804 C 0.67513 0.94881 0.13661 0.0
C805 C 0.70532 0.89079 0.15137 0.0
C806 C 0.69594 0.91085 0.13511 0.0
C807 C 0.64714 0.9569 0.08843 0.0
C808 C 0.66713 0.94325 0.10408 0.0
H809 H 0.68348 0.82677 0.15541 0.0
H810 H 0.67088 0.85994 0.12676 0.0
H811 H 0.69398 0.93663 0.17705 0.0
H812 H 0.6252 0.01415 0.09967 0.0
H813 H 0.66349 0.99494 0.11805 0.0
C814 C 0.23734 0.68442 0.14073 0.0
C815 C 0.22867 0.69497 0.16766 0.0
C816 C 0.21795 0.67116 0.11448 0.0
C817 C 0.1695 0.6258 0.07983 0.0
H818 H 0.10485 0.65148 0.05015 0.0
C819 C 0.04819 0.58325 0.04675 0.0
C820 C 0.04669 0.55917 0.02779 0.0
C821 C 0.07232 0.6025 0.05311 0.0
C822 C 0.12285 0.64405 0.05801 0.0
H823 H 0.19324 0.70121 0.18785 0.0
H824 H 0.15945 0.67856 0.14181 0.0
H825 H 0.14505 0.68192 0.08273 0.0
H826 H 0.06864 0.53597 1.00024 0.0
H827 H 0.11142 0.56978 0.0116 0.0
H828 H 0.14659 0.58761 0.05762 0.0
C829 C 0.18115 0.68039 0.14105 0.0
C830 C 0.14584 0.66149 0.07648 0.0
C831 C 0.20045 0.6931 0.16746 0.0
C832 C 0.06947 0.55462 0.01476 0.0
C833 C 0.09386 0.57386 0.02139 0.0
C834 C 0.14634 0.60828 0.06171 0.0
C835 C 0.1897 0.66889 0.11455 0.0
C836 C 0.16881 0.65227 0.08873 0.0
C837 C 0.09563 0.59791 0.04096 0.0
C838 C 0.12225 0.61703 0.05206 0.0
H839 H 0.25902 0.68557 0.14035 0.0
H840 H 0.22495 0.66229 0.09433 0.0
H841 H 0.187 0.61824 0.08908 0.0
H842 H 0.03084 0.58695 0.05723 0.0
H843 H 0.0731 0.62047 0.06891 0.0
C844 C 0.36597 0.80432 0.8302 0.0
C845 C 0.34539 0.78464 0.83578 0.0
C846 C 0.38352 0.82197 0.8549 0.0
C847 C 0.38186 0.85449 0.93133 0.0
H848 H 0.45815 0.88434 0.93005 0.0
C849 C 0.47188 0.95433 0.98239 0.0
C850 C 0.45655 0.97178 0.97159 0.0
C851 C 0.46013 0.92757 0.97702 0.0
C852 C 0.4371 0.87586 0.93137 0.0
H853 H 0.32779 0.76727 0.87164 0.0
H854 H 0.35821 0.7985 0.91471 0.0
H855 H 0.43566 0.84221 0.89712 0.0
H856 H 0.41704 0.97604 0.94849 0.0
H857 H 0.39623 0.92932 0.93925 0.0
H858 H 0.38274 0.88907 0.96387 0.0
C859 C 0.36076 0.80013 0.89124 0.0
C860 C 0.4242 0.85191 0.91232 0.0
C861 C 0.34338 0.78231 0.86655 0.0
C862 C 0.42903 0.96268 0.95698 0.0
C863 C 0.41715 0.93608 0.95204 0.0
C864 C 0.3947 0.87855 0.95018 0.0
C865 C 0.38066 0.82036 0.8856 0.0
C866 C 0.39612 0.84169 0.91106 0.0
C867 C 0.43286 0.9182 0.96111 0.0
C868 C 0.422 0.88999 0.94916 0.0
H869 H 0.36815 0.80649 0.80677 0.0
H870 H 0.39845 0.83765 0.84991 0.0
H871 H 0.36016 0.84705 0.93074 0.0
H872 H 0.49334 0.96116 0.99318 0.0
H873 H 0.47266 0.91411 0.98399 0.0
C874 C 0.14998 0.27945 0.78056 0.0
C875 C 0.17554 0.2881 0.7723 0.0
C876 C 0.13406 0.29734 0.78969 0.0
C877 C 0.14101 0.36729 0.82306 0.0
H878 H 0.06125 0.35066 0.80184 0.0
C879 C 0.07487 0.42755 0.88691 0.0
C880 C 0.05139 0.43287 0.86957 0.0
C881 C 0.08949 0.41016 0.87351 0.0
C882 C 0.08352 0.35575 0.80778 0.0
H883 H 0.20536 0.32233 0.76917 0.0
H884 H 0.17723 0.35356 0.78361 0.0
H885 H 0.08742 0.32027 0.77994 0.0
H886 H 0.02482 0.42366 0.82438 0.0
H887 H 0.05058 0.39359 0.80084 0.0
H888 H 0.1372 0.40285 0.85063 0.0
C889 C 0.16919 0.33293 0.78274 0.0
C890 C 0.09854 0.33816 0.79547 0.0
C891 C 0.18507 0.31499 0.77363 0.0
C892 C 0.0429 0.42021 0.8384 0.0
C893 C 0.05753 0.40274 0.82497 0.0
C894 C 0.12602 0.38483 0.83538 0.0
C895 C 0.14357 0.32438 0.79121 0.0
C896 C 0.1275 0.34361 0.8031 0.0
C897 C 0.08112 0.39758 0.84233 0.0
C898 C 0.09705 0.37922 0.82815 0.0
H899 H 0.1425 0.25883 0.78044 0.0
H900 H 0.11474 0.29002 0.79659 0.0
H901 H 0.16324 0.37207 0.8298 0.0
H902 H 0.08232 0.43716 0.91083 0.0
H903 H 0.1073 0.40644 0.88776 0.0
C904 C 0.65831 0.18175 0.77929 0.0
C905 C 0.68232 0.1963 0.79934 0.0
C906 C 0.63342 0.17715 0.78983 0.0
C907 C 0.59897 0.19582 0.85606 0.0
H908 H 0.55922 0.1235 0.8319 0.0
C909 C 0.53888 0.13805 0.93216 0.0
C910 C 0.51693 0.11705 0.91785 0.0
C911 C 0.5524 0.15394 0.91433 0.0
C912 C 0.56953 0.14397 0.83834 0.0
H913 H 0.69935 0.21823 0.84566 0.0
H914 H 0.65611 0.20913 0.86472 0.0
H915 H 0.59678 0.13901 0.80666 0.0
H916 H 0.48976 0.09812 0.87437 0.0
H917 H 0.51331 0.12602 0.84327 0.0
H918 H 0.57251 0.20002 0.88928 0.0
C919 C 0.65621 0.20183 0.84062 0.0
C920 C 0.59119 0.15289 0.82384 0.0
C921 C 0.68105 0.20677 0.82988 0.0
C922 C 0.50693 0.11391 0.88594 0.0
C923 C 0.52039 0.12985 0.86813 0.0
C924 C 0.57734 0.18678 0.87078 0.0
C925 C 0.63219 0.18665 0.8208 0.0
C926 C 0.60669 0.17869 0.83312 0.0
C927 C 0.54412 0.1491 0.88195 0.0
C928 C 0.56294 0.16055 0.86262 0.0
H929 H 0.65873 0.1739 0.75541 0.0
H930 H 0.61522 0.16582 0.7738 0.0
H931 H 0.61018 0.21596 0.8633 0.0
H932 H 0.54689 0.14105 0.95678 0.0
H933 H 0.5707 0.16855 0.92563 0.0
C934 C 0.7853 0.72879 0.83015 0.0
C935 C 0.78532 0.73751 0.80186 0.0
C936 C 0.8005 0.71029 0.83767 0.0
C937 C 0.83626 0.6601 0.8042 0.0
H938 H 0.87183 0.66854 0.88997 0.0
C939 C 0.91526 0.5994 0.84837 0.0
C940 C 0.91279 0.59105 0.87667 0.0
C941 C 0.89903 0.61614 0.83732 0.0
C942 C 0.86182 0.66573 0.86597 0.0
H943 H 0.80132 0.73386 0.75917 0.0
H944 H 0.82839 0.70171 0.77243 0.0
H945 H 0.84564 0.70019 0.87445 0.0
H946 H 0.88997 0.5926 0.91444 0.0
H947 H 0.86212 0.6219 0.89543 0.0
H948 H 0.85306 0.62573 0.79588 0.0
C949 C 0.81621 0.70882 0.78866 0.0
C950 C 0.84671 0.68388 0.85704 0.0
C951 C 0.80082 0.7273 0.78108 0.0
C952 C 0.89299 0.59912 0.89299 0.0
C953 C 0.87695 0.61591 0.88206 0.0
C954 C 0.85163 0.64199 0.81315 0.0
C955 C 0.81642 0.70021 0.81721 0.0
C956 C 0.83341 0.68119 0.82612 0.0
C957 C 0.88007 0.625 0.85438 0.0
C958 C 0.86432 0.64445 0.84424 0.0
H959 H 0.7733 0.73612 0.84648 0.0
H960 H 0.79957 0.70376 0.85952 0.0
H961 H 0.82612 0.65723 0.78026 0.0
H962 H 0.93041 0.59379 0.83528 0.0
H963 H 0.90202 0.62289 0.81598 0.0
C964 C 0.15015 0.28235 0.19323 0.0
C965 C 0.17553 0.29025 0.21382 0.0
C966 C 0.13482 0.30075 0.18532 0.0
C967 C 0.14163 0.37294 0.18693 0.0
H968 H 0.06214 0.35261 0.16296 0.0
C969 C 0.07119 0.4456 0.15683 0.0
C970 C 0.05259 0.43706 0.12849 0.0
C971 C 0.08606 0.42845 0.16949 0.0
C972 C 0.08434 0.35857 0.16955 0.0
H973 H 0.20459 0.32378 0.24249 0.0
H974 H 0.17726 0.35569 0.23028 0.0
H975 H 0.0878 0.32163 0.18191 0.0
H976 H 0.03442 0.40365 0.09174 0.0
H977 H 0.05981 0.37369 0.11411 0.0
H978 H 0.13776 0.4102 0.17511 0.0
C979 C 0.16939 0.33537 0.21938 0.0
C980 C 0.09919 0.34072 0.18025 0.0
C981 C 0.18496 0.31697 0.22684 0.0
C982 C 0.04877 0.41089 0.11348 0.0
C983 C 0.06317 0.39367 0.12639 0.0
C984 C 0.12668 0.39095 0.17674 0.0
C985 C 0.1442 0.32763 0.19814 0.0
C986 C 0.12816 0.3474 0.18865 0.0
C987 C 0.08214 0.40225 0.15443 0.0
C988 C 0.0979 0.38384 0.16747 0.0
H989 H 0.14242 0.26194 0.18254 0.0
H990 H 0.11594 0.29383 0.16842 0.0
H991 H 0.16386 0.37891 0.1926 0.0
H992 H 0.0746 0.46566 0.16889 0.0
H993 H 0.10046 0.4356 0.1912 0.0
C994 C 0.23398 0.71055 0.88233 0.0
C995 C 0.2429 0.69381 0.86017 0.0
C996 C 0.21951 0.70038 0.90382 0.0
C997 C 0.19772 0.63994 0.93519 0.0
H998 H 0.12835 0.66242 0.93213 0.0
C999 C 0.09642 0.57132 0.93394 0.0
C1000 C 0.07553 0.58043 0.94716 0.0
C1001 C 0.1214 0.58825 0.93479 0.0
C1002 C 0.14786 0.65635 0.93408 0.0
H1003 H 0.24542 0.65372 0.84414 0.0
H1004 H 0.21974 0.63577 0.88132 0.0
H1005 H 0.16552 0.68716 0.91245 0.0
H1006 H 0.06488 0.61404 0.9732 0.0
H1007 H 0.10874 0.64396 0.9743 0.0
H1008 H 0.17929 0.6082 0.95522 0.0
C1009 C 0.22415 0.65678 0.88245 0.0
C1010 C 0.16922 0.67053 0.92274 0.0
C1011 C 0.23865 0.66698 0.86098 0.0
C1012 C 0.0805 0.60662 0.96239 0.0
C1013 C 0.10558 0.62368 0.96313 0.0
C1014 C 0.17634 0.62577 0.94657 0.0
C1015 C 0.2137 0.67328 0.90348 0.0
C1016 C 0.19391 0.66179 0.9219 0.0
C1017 C 0.12607 0.61472 0.94882 0.0
C1018 C 0.15077 0.63315 0.94475 0.0
H1019 H 0.23727 0.73139 0.88234 0.0
H1020 H 0.21202 0.7136 0.91998 0.0
H1021 H 0.21673 0.63307 0.93541 0.0
H1022 H 0.09333 0.55116 0.92235 0.0
H1023 H 0.13655 0.58081 0.92311 0.0
C1024 C 0.22748 0.16676 0.81728 0.0
C1025 C 0.23542 0.17036 0.78896 0.0
C1026 C 0.23878 0.15002 0.83454 0.0
C1027 C 0.304 0.13047 0.84741 0.0
H1028 H 0.27134 0.08714 0.90113 0.0
C1029 C 0.3726 0.10508 0.94575 0.0
C1030 C 0.37076 0.07804 0.94428 0.0
C1031 C 0.35144 0.11423 0.92975 0.0
C1032 C 0.2806 0.09918 0.88618 0.0
H1033 H 0.25912 0.1576 0.75493 0.0
H1034 H 0.27868 0.12819 0.78492 0.0
H1035 H 0.24152 0.10379 0.86303 0.0
H1036 H 0.34375 0.03969 0.92808 0.0
H1037 H 0.30678 0.05586 0.89959 0.0
H1038 H 0.34292 0.12635 0.87051 0.0
C1039 C 0.26411 0.13856 0.79404 0.0
C1040 C 0.26364 0.10867 0.86447 0.0
C1041 C 0.25284 0.15528 0.77683 0.0
C1042 C 0.34601 0.0606 0.9291 0.0
C1043 C 0.32476 0.06982 0.91301 0.0
C1044 C 0.32082 0.12131 0.86919 0.0
C1045 C 0.25819 0.13673 0.8237 0.0
C1046 C 0.27526 0.12447 0.84494 0.0
C1047 C 0.328 0.0966 0.91193 0.0
C1048 C 0.30937 0.10585 0.88902 0.0
H1049 H 0.21398 0.17814 0.82705 0.0
H1050 H 0.23392 0.14906 0.85734 0.0
H1051 H 0.31362 0.14295 0.83311 0.0
H1052 H 0.39129 0.11914 0.95705 0.0
H1053 H 0.35418 0.13504 0.92967 0.0
C1054 C 0.84635 0.27613 0.84817 0.0
C1055 C 0.81759 0.26766 0.8403 0.0
C1056 C 0.85834 0.29576 0.87396 0.0
C1057 C 0.87898 0.33435 0.93536 0.0
H1058 H 0.8499 0.39607 0.92487 0.0
C1059 C 0.94703 0.43659 0.96152 0.0
C1060 C 0.9362 0.45866 0.96976 0.0
C1061 C 0.93036 0.41155 0.95613 0.0
C1062 C 0.85796 0.37902 0.92896 0.0
H1063 H 0.77889 0.27202 0.8543 0.0
H1064 H 0.79992 0.30671 0.89903 0.0
H1065 H 0.8242 0.35331 0.897 0.0
H1066 H 0.89996 0.47238 0.97958 0.0
H1067 H 0.87039 0.42834 0.96999 0.0
H1068 H 0.91316 0.36018 0.96668 0.0
C1069 C 0.81313 0.29799 0.88535 0.0
C1070 C 0.84319 0.35445 0.91285 0.0
C1071 C 0.80114 0.27805 0.85983 0.0
C1072 C 0.90863 0.45546 0.97336 0.0
C1073 C 0.89178 0.43032 0.9677 0.0
C1074 C 0.89359 0.3589 0.95184 0.0
C1075 C 0.84178 0.30756 0.89211 0.0
C1076 C 0.85416 0.33206 0.9148 0.0
C1077 C 0.90235 0.40807 0.95847 0.0
C1078 C 0.88392 0.38169 0.94758 0.0
H1079 H 0.85954 0.26844 0.83362 0.0
H1080 H 0.88047 0.30292 0.87843 0.0
H1081 H 0.88769 0.31731 0.9376 0.0
H1082 H 0.96824 0.43879 0.95833 0.0
H1083 H 0.93915 0.39506 0.94841 0.0
C1084 C 0.71826 0.86047 0.85329 0.0
C1085 C 0.71382 0.85327 0.82089 0.0
C1086 C 0.70541 0.8793 0.86711 0.0
C1087 C 0.64332 0.90522 0.85059 0.0
H1088 H 0.67737 0.96016 0.92149 0.0
C1089 C 0.58638 0.98373 0.89311 0.0
C1090 C 0.5884 0.99158 0.92521 0.0
C1091 C 0.60333 0.96805 0.8816 0.0
C1092 C 0.66751 0.94471 0.90192 0.0
H1093 H 0.69374 0.86087 0.77745 0.0
H1094 H 0.67148 0.89376 0.80149 0.0
H1095 H 0.70495 0.93126 0.89899 0.0
H1096 H 0.61034 0.98932 0.9704 0.0
H1097 H 0.63953 0.9612 0.95017 0.0
H1098 H 0.60588 0.91813 0.85357 0.0
C1099 C 0.68455 0.8847 0.81627 0.0
C1100 C 0.68332 0.92825 0.88901 0.0
C1101 C 0.69743 0.86601 0.80251 0.0
C1102 C 0.60805 0.98345 0.94554 0.0
C1103 C 0.62499 0.96758 0.93396 0.0
C1104 C 0.62755 0.9215 0.86353 0.0
C1105 C 0.68782 0.89106 0.8487 0.0
C1106 C 0.67141 0.90853 0.86298 0.0
C1107 C 0.6226 0.95949 0.90182 0.0
C1108 C 0.63948 0.94165 0.88911 0.0
H1109 H 0.73079 0.85086 0.86794 0.0
H1110 H 0.70822 0.88375 0.89215 0.0
H1111 H 0.63338 0.88978 0.83102 0.0
H1112 H 0.57123 0.9892 0.87671 0.0
H1113 H 0.60121 0.96255 0.85671 0.0
C1114 C 0.81026 0.73669 0.22926 0.0
C1115 C 0.79338 0.7456 0.20678 0.0
C1116 C 0.82487 0.7174 0.22047 0.0
C1117 C 0.82629 0.66565 0.15363 0.0
H1118 H 0.89987 0.6682 0.19718 0.0
C1119 C 0.88283 0.58237 0.12279 0.0
C1120 C 0.91123 0.58914 0.12263 0.0
C1121 C 0.86891 0.60095 0.13507 0.0
C1122 C 0.87941 0.66725 0.18457 0.0
H1123 H 0.77921 0.74184 0.15746 0.0
H1124 H 0.80496 0.70894 0.1421 0.0
H1125 H 0.87509 0.70169 0.2142 0.0
H1126 H 0.94727 0.62092 0.1358 0.0
H1127 H 0.92296 0.65348 0.15681 0.0
H1128 H 0.83081 0.63186 0.12337 0.0
C1129 C 0.8065 0.71614 0.16658 0.0
C1130 C 0.86501 0.68633 0.19462 0.0
C1131 C 0.7919 0.73527 0.17538 0.0
C1132 C 0.92545 0.61493 0.13576 0.0
C1133 C 0.91146 0.63363 0.14788 0.0
C1134 C 0.84067 0.64669 0.14355 0.0
C1135 C 0.82307 0.70672 0.18895 0.0
C1136 C 0.83827 0.68592 0.17916 0.0
C1137 C 0.88288 0.627 0.1474 0.0
C1138 C 0.8675 0.64718 0.15877 0.0
H1139 H 0.81239 0.74482 0.25359 0.0
H1140 H 0.83729 0.71065 0.23843 0.0
H1141 H 0.80562 0.66432 0.14134 0.0
H1142 H 0.87129 0.56258 0.11345 0.0
H1143 H 0.8471 0.59481 0.13491 0.0
C1144 C 0.38621 0.79818 0.21033 0.0
C1145 C 0.35998 0.787 0.19245 0.0
C1146 C 0.40421 0.81719 0.20015 0.0
C1147 C 0.41877 0.84499 0.13222 0.0
H1148 H 0.43559 0.91283 0.18664 0.0
C1149 C 0.43743 0.93934 0.0845 0.0
C1150 C 0.45731 0.96108 0.10143 0.0
C1151 C 0.43036 0.91718 0.09738 0.0
C1152 C 0.43167 0.89398 0.17141 0.0
H1153 H 0.33241 0.78538 0.14942 0.0
H1154 H 0.36413 0.81799 0.13118 0.0
H1155 H 0.41636 0.87365 0.2056 0.0
H1156 H 0.4852 0.97688 0.14526 0.0
H1157 H 0.47299 0.9378 0.16782 0.0
H1158 H 0.43353 0.86514 0.09782 0.0
C1159 C 0.37073 0.81232 0.15308 0.0
C1160 C 0.42069 0.87157 0.18229 0.0
C1161 C 0.35257 0.7938 0.16354 0.0
C1162 C 0.46965 0.96043 0.13179 0.0
C1163 C 0.46269 0.93807 0.14466 0.0
C1164 C 0.43003 0.86728 0.12146 0.0
C1165 C 0.39637 0.82467 0.17167 0.0
C1166 C 0.41326 0.84708 0.1624 0.0
C1167 C 0.4432 0.91608 0.1274 0.0
C1168 C 0.43556 0.89215 0.14053 0.0
H1169 H 0.39223 0.79325 0.23282 0.0
H1170 H 0.4239 0.82653 0.21481 0.0
H1171 H 0.4134 0.82622 0.11661 0.0
H1172 H 0.42745 0.93932 0.06109 0.0
H1173 H 0.41468 0.9009 0.08377 0.0
C1174 C 0.75065 0.15983 0.13675 0.0
C1175 C 0.74588 0.15429 0.16574 0.0
C1176 C 0.73171 0.14779 0.10988 0.0
C1177 C 0.67294 0.1464 0.07955 0.0
H1178 H 0.62789 0.07617 0.05428 0.0
C1179 C 0.55769 0.11156 0.07101 0.0
C1180 C 0.54305 0.09321 0.04491 0.0
C1181 C 0.58559 0.12211 0.07286 0.0
C1182 C 0.64061 0.0958 0.06038 0.0
H1183 H 0.72015 0.12882 0.18879 0.0
H1184 H 0.68713 0.10753 0.14166 0.0
H1185 H 0.67526 0.08262 0.08213 0.0
H1186 H 0.54522 0.07335 0.99934 0.0
H1187 H 0.59419 0.09094 0.00307 0.0
H1188 H 0.63719 0.15975 0.06121 0.0
C1189 C 0.70535 0.12142 0.13982 0.0
C1190 C 0.66756 0.09944 0.07631 0.0
C1191 C 0.72418 0.1337 0.16684 0.0
C1192 C 0.55594 0.08766 0.01948 0.0
C1193 C 0.58398 0.09762 0.02163 0.0
C1194 C 0.64581 0.14279 0.0643 0.0
C1195 C 0.70804 0.12973 0.11161 0.0
C1196 C 0.68348 0.12484 0.08713 0.0
C1197 C 0.59915 0.11393 0.04892 0.0
C1198 C 0.62921 0.11756 0.05578 0.0
H1199 H 0.76764 0.1752 0.13507 0.0
H1200 H 0.73425 0.15429 0.08829 0.0
H1201 H 0.68474 0.16623 0.08807 0.0
H1202 H 0.5482 0.11604 0.09095 0.0
H1203 H 0.59713 0.13453 0.09426 0.0
C1204 C 0.69104 0.68798 0.80382 0.0
C1205 C 0.68652 0.71357 0.80506 0.0
C1206 C 0.6802 0.67197 0.82324 0.0
C1207 C 0.62532 0.65901 0.86722 0.0
H1208 H 0.67419 0.62245 0.91118 0.0
C1209 C 0.58464 0.58535 0.94228 0.0
C1210 C 0.59445 0.56204 0.93984 0.0
C1211 C 0.59737 0.60669 0.93054 0.0
C1212 C 0.66013 0.63225 0.89889 0.0
H1213 H 0.66649 0.74215 0.82746 0.0
H1214 H 0.64678 0.71364 0.86102 0.0
H1215 H 0.69244 0.65383 0.88055 0.0
H1216 H 0.62594 0.5432 0.92418 0.0
H1217 H 0.64769 0.57989 0.9031 0.0
H1218 H 0.59272 0.63663 0.88425 0.0
C1219 C 0.65903 0.70624 0.84503 0.0
C1220 C 0.67067 0.65036 0.88144 0.0
C1221 C 0.67031 0.72254 0.82585 0.0
C1222 C 0.61798 0.56093 0.92664 0.0
C1223 C 0.63053 0.58212 0.9146 0.0
C1224 C 0.61466 0.6406 0.88436 0.0
C1225 C 0.66424 0.68093 0.84421 0.0
C1226 C 0.65332 0.66362 0.86501 0.0
C1227 C 0.62008 0.60514 0.91577 0.0
C1228 C 0.63184 0.62661 0.90003 0.0
H1229 H 0.70356 0.6804 0.78831 0.0
H1230 H 0.68428 0.65245 0.82179 0.0
H1231 H 0.61143 0.66882 0.85463 0.0
H1232 H 0.56661 0.58688 0.95249 0.0
H1233 H 0.58907 0.62422 0.93254 0.0
C1234 C 0.36534 0.69242 0.78333 0.0
C1235 C 0.33669 0.6901 0.77962 0.0
C1236 C 0.37766 0.67306 0.79402 0.0
C1237 C 0.36903 0.61973 0.83828 0.0
H1238 H 0.42501 0.59738 0.79581 0.0
C1239 C 0.42518 0.53921 0.87457 0.0
C1240 C 0.45352 0.54313 0.8738 0.0
C1241 C 0.40912 0.55532 0.86171 0.0
C1242 C 0.40967 0.60356 0.80822 0.0
H1243 H 0.29847 0.66582 0.7847 0.0
H1244 H 0.32016 0.63194 0.80404 0.0
H1245 H 0.40037 0.62897 0.77672 0.0
H1246 H 0.48719 0.56747 0.85931 0.0
H1247 H 0.45948 0.59559 0.83735 0.0
H1248 H 0.37886 0.59486 0.87032 0.0
C1249 C 0.33303 0.64881 0.79851 0.0
C1250 C 0.39546 0.62163 0.79716 0.0
C1251 C 0.32061 0.66816 0.78744 0.0
C1252 C 0.46533 0.56349 0.85974 0.0
C1253 C 0.44936 0.57966 0.8471 0.0
C1254 C 0.38346 0.60176 0.84954 0.0
C1255 C 0.3617 0.65092 0.80155 0.0
C1256 C 0.37524 0.63024 0.81228 0.0
C1257 C 0.42101 0.57588 0.84791 0.0
C1258 C 0.40428 0.5937 0.83491 0.0
H1259 H 0.37834 0.70916 0.77769 0.0
H1260 H 0.39982 0.67553 0.79658 0.0
H1261 H 0.35369 0.6261 0.85055 0.0
H1262 H 0.41538 0.52358 0.885 0.0
H1263 H 0.38732 0.55153 0.86242 0.0
C1264 C 0.28732 0.33315 0.82876 0.0
C1265 C 0.28018 0.3057 0.82417 0.0
C1266 C 0.30496 0.34742 0.85572 0.0
C1267 C 0.36147 0.33972 0.91287 0.0
H1268 H 0.35937 0.41102 0.94752 0.0
C1269 C 0.45822 0.41084 0.98504 0.0
C1270 C 0.46426 0.43292 0.9713 0.0
C1271 C 0.43177 0.39479 0.97759 0.0
C1272 C 0.36005 0.39099 0.93841 0.0
H1273 H 0.28459 0.27178 0.84514 0.0
H1274 H 0.31532 0.29676 0.89218 0.0
H1275 H 0.31848 0.38261 0.91377 0.0
H1276 H 0.44762 0.45654 0.94048 0.0
H1277 H 0.40166 0.42873 0.92746 0.0
H1278 H 0.40347 0.34854 0.93606 0.0
C1279 C 0.3076 0.30719 0.87473 0.0
C1280 C 0.33674 0.3748 0.919 0.0
C1281 C 0.29001 0.2929 0.84773 0.0
C1282 C 0.44338 0.43949 0.95123 0.0
C1283 C 0.417 0.42375 0.94412 0.0
C1284 C 0.38473 0.35588 0.93235 0.0
C1285 C 0.31574 0.33455 0.87871 0.0
C1286 C 0.33768 0.34944 0.90482 0.0
C1287 C 0.41107 0.40091 0.95661 0.0
C1288 C 0.38465 0.38206 0.944 0.0
H1289 H 0.27998 0.34362 0.81116 0.0
H1290 H 0.31115 0.36845 0.85784 0.0
H1291 H 0.36294 0.32032 0.90221 0.0
H1292 H 0.47423 0.40528 1.00021 0.0
H1293 H 0.42772 0.37721 0.9874 0.0
C1294 C 0.75643 0.31183 0.77959 0.0
C1295 C 0.74761 0.28483 0.76794 0.0
C1296 C 0.73872 0.32615 0.79237 0.0
C1297 C 0.67667 0.31979 0.82824 0.0
H1298 H 0.67356 0.38758 0.80638 0.0
C1299 C 0.59924 0.3805 0.86993 0.0
C1300 C 0.608 0.40795 0.87705 0.0
C1301 C 0.61543 0.36487 0.85606 0.0
C1302 C 0.67439 0.36888 0.81319 0.0
H1303 H 0.71334 0.25161 0.76075 0.0
H1304 H 0.68244 0.27655 0.78351 0.0
H1305 H 0.70337 0.36169 0.78387 0.0
H1306 H 0.64117 0.44032 0.87594 0.0
H1307 H 0.66951 0.41329 0.85253 0.0
H1308 H 0.64815 0.32716 0.85808 0.0
C1309 C 0.70308 0.28667 0.78274 0.0
C1310 C 0.69148 0.35397 0.80012 0.0
C1311 C 0.72074 0.27239 0.76961 0.0
C1312 C 0.63349 0.4193 0.87024 0.0
C1313 C 0.64976 0.40371 0.85667 0.0
C1314 C 0.65974 0.33484 0.84158 0.0
C1315 C 0.7118 0.31379 0.79411 0.0
C1316 C 0.69298 0.32928 0.80757 0.0
C1317 C 0.64096 0.37624 0.84919 0.0
C1318 C 0.65844 0.35972 0.8344 0.0
H1319 H 0.77707 0.32194 0.7788 0.0
H1320 H 0.74625 0.34692 0.80125 0.0
H1321 H 0.67751 0.30096 0.83472 0.0
H1322 H 0.57963 0.37111 0.87462 0.0
H1323 H 0.60766 0.34388 0.85032 0.0
C1324 C 0.73822 0.27021 0.20986 0.0
C1325 C 0.72464 0.24414 0.20827 0.0
C1326 C 0.72457 0.28763 0.19614 0.0
C1327 C 0.65379 0.29665 0.16895 0.0
H1328 H 0.6912 0.35019 0.12992 0.0
C1329 C 0.59445 0.35997 0.10067 0.0
C1330 C 0.60602 0.38692 0.10486 0.0
C1331 C 0.60956 0.34282 0.11258 0.0
C1332 C 0.68051 0.33551 0.141 0.0
H1333 H 0.68649 0.21563 0.19019 0.0
H1334 H 0.66284 0.2457 0.1658 0.0
H1335 H 0.71639 0.31962 0.15119 0.0
H1336 H 0.64295 0.41676 0.12455 0.0
H1337 H 0.66928 0.38682 0.14557 0.0
H1338 H 0.61792 0.31242 0.15869 0.0
C1339 C 0.68381 0.25301 0.17821 0.0
C1340 C 0.69497 0.31795 0.15324 0.0
C1341 C 0.69742 0.23566 0.19199 0.0
C1342 C 0.63329 0.39618 0.12106 0.0
C1343 C 0.64848 0.37896 0.13287 0.0
C1344 C 0.63934 0.3141 0.15663 0.0
C1345 C 0.69701 0.27937 0.18047 0.0
C1346 C 0.68178 0.2982 0.16731 0.0
C1347 C 0.63673 0.35207 0.129 0.0
C1348 C 0.65244 0.33372 0.14239 0.0
H1349 H 0.75917 0.27736 0.2224 0.0
H1350 H 0.73539 0.30778 0.19865 0.0
H1351 H 0.64302 0.28217 0.18021 0.0
H1352 H 0.57342 0.35212 0.08869 0.0
H1353 H 0.59992 0.32222 0.10882 0.0
C1354 C 0.68082 0.72112 0.14083 0.0
C1355 C 0.70043 0.71553 0.16352 0.0
C1356 C 0.66828 0.70224 0.11443 0.0
C1357 C 0.67283 0.63806 0.0701 0.0
H1358 H 0.59347 0.62175 0.06299 0.0
C1359 C 0.60909 0.53446 0.04901 0.0
C1360 C 0.58173 0.52878 0.03349 0.0
C1361 C 0.62515 0.55968 0.05285 0.0
C1362 C 0.61551 0.62629 0.06383 0.0
H1363 H 0.72371 0.68659 0.17543 0.0
H1364 H 0.70173 0.65377 0.12992 0.0
H1365 H 0.61983 0.66378 0.09215 0.0
H1366 H 0.54923 0.54437 0.01016 0.0
H1367 H 0.57743 0.58852 0.01624 0.0
H1368 H 0.66855 0.59976 0.04345 0.0
C1369 C 0.69602 0.67265 0.13225 0.0
C1370 C 0.63065 0.65045 0.08059 0.0
C1371 C 0.70829 0.69132 0.15864 0.0
C1372 C 0.57067 0.54832 0.0213 0.0
C1373 C 0.58668 0.57355 0.02508 0.0
C1374 C 0.65768 0.61388 0.05332 0.0
C1375 C 0.6755 0.67767 0.11016 0.0
C1376 C 0.65954 0.65596 0.08529 0.0
C1377 C 0.61388 0.57966 0.0416 0.0
C1378 C 0.62903 0.60725 0.05147 0.0
H1379 H 0.67457 0.73974 0.14389 0.0
H1380 H 0.65253 0.7066 0.09772 0.0
H1381 H 0.69508 0.64207 0.07289 0.0
H1382 H 0.61773 0.51964 0.05903 0.0
H1383 H 0.64583 0.56388 0.0663 0.0
C1384 C 0.3359 0.6836 0.20472 0.0
C1385 C 0.33097 0.68063 0.23443 0.0
C1386 C 0.35394 0.67028 0.19101 0.0
C1387 C 0.41045 0.63525 0.20882 0.0
H1388 H 0.38799 0.60188 0.12238 0.0
C1389 C 0.46338 0.55694 0.15228 0.0
C1390 C 0.46672 0.55639 0.1213 0.0
C1391 C 0.44836 0.57377 0.16604 0.0
C1392 C 0.39484 0.61137 0.14641 0.0
H1393 H 0.34154 0.66192 0.2734 0.0
H1394 H 0.37287 0.63858 0.24953 0.0
H1395 H 0.35934 0.62835 0.14641 0.0
H1396 H 0.45737 0.57384 0.08087 0.0
H1397 H 0.43129 0.60325 0.10489 0.0
H1398 H 0.44586 0.61812 0.20889 0.0
C1399 C 0.36302 0.65132 0.23681 0.0
C1400 C 0.37836 0.62659 0.16023 0.0
C1401 C 0.34493 0.66459 0.25046 0.0
C1402 C 0.45493 0.57345 0.10462 0.0
C1403 C 0.43992 0.59031 0.11841 0.0
C1404 C 0.42696 0.62007 0.195 0.0
C1405 C 0.36756 0.65376 0.20676 0.0
C1406 C 0.38581 0.63856 0.19169 0.0
C1407 C 0.43624 0.59056 0.14925 0.0
C1408 C 0.41928 0.60773 0.16366 0.0
H1409 H 0.32554 0.69596 0.19187 0.0
H1410 H 0.35723 0.67293 0.16804 0.0
H1411 H 0.4171 0.64451 0.23296 0.0
H1412 H 0.47169 0.54378 0.16571 0.0
H1413 H 0.44562 0.57304 0.18964 0.0
C1414 C 0.31232 0.33147 0.23494 0.0
C1415 C 0.29782 0.30626 0.21989 0.0
C1416 C 0.33298 0.34548 0.22208 0.0
C1417 C 0.37733 0.33611 0.16229 0.0
H1418 H 0.38704 0.41137 0.16912 0.0
C1419 C 0.44087 0.39504 0.08738 0.0
C1420 C 0.46008 0.41765 0.10346 0.0
C1421 C 0.42154 0.38172 0.10237 0.0
C1422 C 0.38464 0.39036 0.16719 0.0
H1423 H 0.29334 0.27633 0.17906 0.0
H1424 H 0.32824 0.30079 0.15644 0.0
H1425 H 0.35277 0.38783 0.19429 0.0
H1426 H 0.47371 0.4443 0.14766 0.0
H1427 H 0.43966 0.42132 0.17354 0.0
H1428 H 0.40867 0.33867 0.13439 0.0
C1429 C 0.32457 0.30959 0.17866 0.0
C1430 C 0.3651 0.37685 0.18177 0.0
C1431 C 0.30429 0.29554 0.19163 0.0
C1432 C 0.45928 0.42686 0.13466 0.0
C1433 C 0.43969 0.41381 0.14946 0.0
C1434 C 0.39652 0.34957 0.14737 0.0
C1435 C 0.33937 0.33471 0.19369 0.0
C1436 C 0.36103 0.34947 0.17938 0.0
C1437 C 0.42072 0.391 0.13355 0.0
C1438 C 0.40033 0.37681 0.14955 0.0
H1439 H 0.30789 0.34029 0.25675 0.0
H1440 H 0.3441 0.36464 0.23458 0.0
H1441 H 0.3754 0.31518 0.16048 0.0
H1442 H 0.44094 0.38749 0.06332 0.0
H1443 H 0.40703 0.36429 0.08946 0.0
C1444 C 0.73827 0.66063 0.65337 0.0
C1445 C 0.74658 0.66875 0.68555 0.0
C1446 C 0.74732 0.63968 0.63791 0.0
C1447 C 0.78023 0.5839 0.65065 0.0
H1448 H 0.81329 0.5982 0.57986 0.0
C1449 C 0.86865 0.53877 0.61664 0.0
C1450 C 0.8696 0.53123 0.58514 0.0
C1451 C 0.84828 0.55137 0.62545 0.0
C1452 C 0.80366 0.59361 0.59918 0.0
H1453 H 0.76988 0.66098 0.72708 0.0
H1454 H 0.78573 0.6246 0.70025 0.0
H1455 H 0.78627 0.62769 0.60168 0.0
H1456 H 0.84939 0.53057 0.53817 0.0
H1457 H 0.81394 0.55311 0.55372 0.0
H1458 H 0.79858 0.55042 0.64891 0.0
C1459 C 0.77205 0.63408 0.68686 0.0
C1460 C 0.78816 0.6105 0.61167 0.0
C1461 C 0.76312 0.65503 0.70222 0.0
C1462 C 0.84944 0.53639 0.56263 0.0
C1463 C 0.8291 0.54919 0.5715 0.0
C1464 C 0.79574 0.56706 0.63819 0.0
C1465 C 0.76467 0.62646 0.65447 0.0
C1466 C 0.77701 0.60626 0.63814 0.0
C1467 C 0.82842 0.55691 0.60303 0.0
C1468 C 0.80834 0.5722 0.61294 0.0
H1469 H 0.72548 0.67094 0.64005 0.0
H1470 H 0.74114 0.6341 0.61298 0.0
H1471 H 0.77145 0.57986 0.67069 0.0
H1472 H 0.88417 0.5357 0.63464 0.0
H1473 H 0.8487 0.55759 0.64993 0.0
C1474 C 0.31419 0.79907 0.6594 0.0
C1475 C 0.32276 0.77632 0.66562 0.0
C1476 C 0.32166 0.8102 0.63455 0.0
C1477 C 0.37841 0.81836 0.59443 0.0
H1478 H 0.33284 0.85313 0.54332 0.0
C1479 C 0.43052 0.90034 0.54149 0.0
C1480 C 0.42015 0.92317 0.54684 0.0
C1481 C 0.41462 0.87609 0.5429 0.0
C1482 C 0.34585 0.84349 0.55735 0.0
H1483 H 0.34471 0.74661 0.6503 0.0
H1484 H 0.35841 0.76653 0.60713 0.0
H1485 H 0.31137 0.82139 0.57193 0.0
H1486 H 0.38439 0.93838 0.55583 0.0
H1487 H 0.35735 0.89654 0.56048 0.0
H1488 H 0.41302 0.84175 0.58244 0.0
C1489 C 0.34579 0.7756 0.62135 0.0
C1490 C 0.33353 0.82526 0.57357 0.0
C1491 C 0.33806 0.76431 0.64603 0.0
C1492 C 0.39299 0.92111 0.55181 0.0
C1493 C 0.37733 0.89697 0.55405 0.0
C1494 C 0.39074 0.8368 0.57864 0.0
C1495 C 0.33802 0.79888 0.61571 0.0
C1496 C 0.34985 0.81335 0.59318 0.0
C1497 C 0.38839 0.87432 0.55086 0.0
C1498 C 0.37472 0.85043 0.56096 0.0
H1499 H 0.30218 0.80854 0.67409 0.0
H1500 H 0.31575 0.82837 0.631 0.0
H1501 H 0.39151 0.80962 0.6096 0.0
H1502 H 0.45137 0.90128 0.53748 0.0
H1503 H 0.42352 0.85897 0.53945 0.0
C1504 C 0.20701 0.36623 0.69759 0.0
C1505 C 0.22796 0.35335 0.69078 0.0
C1506 C 0.20024 0.38523 0.68098 0.0
C1507 C 0.19533 0.39825 0.60399 0.0
H1508 H 0.17415 0.46128 0.64018 0.0
C1509 C 0.12542 0.47823 0.57135 0.0
C1510 C 0.10018 0.4603 0.55948 0.0
C1511 C 0.14907 0.46945 0.58212 0.0
C1512 C 0.18051 0.44411 0.62956 0.0
H1513 H 0.25905 0.35071 0.66227 0.0
H1514 H 0.24652 0.38359 0.63229 0.0
H1515 H 0.20227 0.43938 0.67301 0.0
H1516 H 0.081 0.4188 0.54712 0.0
H1517 H 0.12217 0.40374 0.5648 0.0
H1518 H 0.17182 0.4019 0.56097 0.0
C1519 C 0.2357 0.37921 0.65083 0.0
C1520 C 0.19644 0.4315 0.6484 0.0
C1521 C 0.24289 0.36054 0.66799 0.0
C1522 C 0.09992 0.43333 0.55581 0.0
C1523 C 0.12363 0.42459 0.56605 0.0
C1524 C 0.17907 0.41068 0.5852 0.0
C1525 C 0.21395 0.39135 0.65683 0.0
C1526 C 0.20309 0.40793 0.63601 0.0
C1527 C 0.1481 0.44256 0.58056 0.0
C1528 C 0.17064 0.43316 0.59807 0.0
H1529 H 0.19522 0.36097 0.71508 0.0
H1530 H 0.18318 0.39404 0.68585 0.0
H1531 H 0.20004 0.38001 0.5939 0.0
H1532 H 0.12667 0.49912 0.57365 0.0
H1533 H 0.1678 0.48371 0.59288 0.0
C1534 C 0.70492 0.19877 0.65485 0.0
C1535 C 0.73183 0.19496 0.66237 0.0
C1536 C 0.68727 0.18425 0.62812 0.0
C1537 C 0.67346 0.1194 0.58219 0.0
H1538 H 0.6136 0.14439 0.53862 0.0
C1539 C 0.57134 0.04907 0.51993 0.0
C1540 C 0.54877 0.05691 0.53072 0.0
C1541 C 0.59685 0.06666 0.5255 0.0
C1542 C 0.63033 0.13712 0.55031 0.0
H1543 H 0.76202 0.17408 0.64709 0.0
H1544 H 0.73076 0.1481 0.6002 0.0
H1545 H 0.65504 0.17574 0.56704 0.0
H1546 H 0.53445 0.08885 0.55499 0.0
H1547 H 0.57876 0.11978 0.56438 0.0
H1548 H 0.64806 0.08092 0.56706 0.0
C1549 C 0.72346 0.1625 0.61502 0.0
C1550 C 0.65404 0.15503 0.56652 0.0
C1551 C 0.74135 0.17741 0.64171 0.0
C1552 C 0.55165 0.0826 0.5463 0.0
C1553 C 0.57692 0.10027 0.55141 0.0
C1554 C 0.64976 0.10147 0.56589 0.0
C1555 C 0.69601 0.16533 0.60841 0.0
C1556 C 0.67519 0.14646 0.58404 0.0
C1557 C 0.59992 0.09239 0.54155 0.0
C1558 C 0.62738 0.11031 0.55122 0.0
H1559 H 0.6971 0.2123 0.6703 0.0
H1560 H 0.66619 0.1867 0.62403 0.0
H1561 H 0.68932 0.11216 0.59554 0.0
H1562 H 0.56941 0.02919 0.50796 0.0
H1563 H 0.61421 0.0601 0.51763 0.0
C1564 C 0.81931 0.26381 0.35217 0.0
C1565 C 0.81511 0.27113 0.32294 0.0
C1566 C 0.82938 0.28288 0.37889 0.0
C1567 C 0.87402 0.33073 0.41883 0.0
H1568 H 0.83977 0.39005 0.4355 0.0
C1569 C 0.91138 0.44628 0.44616 0.0
C1570 C 0.93529 0.44934 0.46824 0.0
C1571 C 0.89179 0.42289 0.43953 0.0
C1572 C 0.84951 0.37354 0.43139 0.0
H1573 H 0.81724 0.30381 0.29858 0.0
H1574 H 0.83436 0.3372 0.34546 0.0
H1575 H 0.81355 0.35012 0.40046 0.0
H1576 H 0.95794 0.43082 0.50049 0.0
H1577 H 0.9231 0.38998 0.49002 0.0
H1578 H 0.91087 0.35481 0.44675 0.0
C1579 C 0.82999 0.31674 0.34756 0.0
C1580 C 0.83445 0.35073 0.41156 0.0
C1581 C 0.82058 0.29771 0.32082 0.0
C1582 C 0.93908 0.42907 0.4843 0.0
C1583 C 0.91936 0.40564 0.47788 0.0
C1584 C 0.88927 0.35371 0.4382 0.0
C1585 C 0.83456 0.30942 0.37668 0.0
C1586 C 0.84711 0.32975 0.40401 0.0
C1587 C 0.89579 0.40208 0.45486 0.0
C1588 C 0.87762 0.37587 0.44314 0.0
H1589 H 0.81523 0.24337 0.35431 0.0
H1590 H 0.83314 0.27697 0.4012 0.0
H1591 H 0.88409 0.31467 0.41313 0.0
H1592 H 0.90813 0.46176 0.43348 0.0
H1593 H 0.87428 0.4207 0.42113 0.0
C1594 C 0.68113 0.79511 0.31375 0.0
C1595 C 0.68648 0.79171 0.28343 0.0
C1596 C 0.66453 0.81215 0.32309 0.0
C1597 C 0.61308 0.84963 0.29348 0.0
H1598 H 0.63072 0.88572 0.37908 0.0
C1599 C 0.56106 0.93275 0.34496 0.0
C1600 C 0.55312 0.93079 0.3738 0.0
C1601 C 0.57635 0.91565 0.33205 0.0
C1602 C 0.6254 0.87567 0.35515 0.0
H1603 H 0.67778 0.80305 0.23883 0.0
H1604 H 0.64971 0.8339 0.25535 0.0
H1605 H 0.65986 0.85741 0.36012 0.0
H1606 H 0.55408 0.90801 0.41062 0.0
H1607 H 0.58133 0.87897 0.38862 0.0
H1608 H 0.57892 0.86882 0.28866 0.0
C1609 C 0.65805 0.82304 0.27193 0.0
C1610 C 0.64205 0.85925 0.34422 0.0
C1611 C 0.67446 0.80558 0.26246 0.0
C1612 C 0.56034 0.91074 0.38885 0.0
C1613 C 0.5759 0.89394 0.37617 0.0
C1614 C 0.59661 0.86645 0.30437 0.0
C1615 C 0.653 0.82673 0.30254 0.0
C1616 C 0.63593 0.84555 0.31336 0.0
C1617 C 0.58439 0.89636 0.34781 0.0
C1618 C 0.60235 0.87933 0.33549 0.0
H1619 H 0.68981 0.78452 0.33047 0.0
H1620 H 0.66061 0.81366 0.34653 0.0
H1621 H 0.60743 0.83935 0.26968 0.0
H1622 H 0.55628 0.94805 0.33274 0.0
H1623 H 0.5827 0.9181 0.31024 0.0
C1624 C 0.19715 0.69132 0.3309 0.0
C1625 C 0.20701 0.67592 0.30831 0.0
C1626 C 0.17508 0.68026 0.34365 0.0
C1627 C 0.11533 0.6258 0.32888 0.0
H1628 H 0.12257 0.63768 0.41835 0.0
C1629 C 0.044 0.56319 0.39176 0.0
C1630 C 0.03803 0.57488 0.41979 0.0
C1631 C 0.06217 0.57748 0.37658 0.0
C1632 C 0.11992 0.63459 0.39332 0.0
H1633 H 0.20167 0.63713 0.28102 0.0
H1634 H 0.16281 0.61768 0.30334 0.0
H1635 H 0.15958 0.65863 0.39501 0.0
H1636 H 0.04514 0.61103 0.45311 0.0
H1637 H 0.07637 0.63628 0.42613 0.0
H1638 H 0.07565 0.60181 0.3271 0.0
C1639 C 0.17214 0.6383 0.31107 0.0
C1640 C 0.14121 0.64648 0.37999 0.0
C1641 C 0.19443 0.64933 0.2985 0.0
C1642 C 0.04955 0.60147 0.43164 0.0
C1643 C 0.06756 0.61586 0.41629 0.0
C1644 C 0.09389 0.61409 0.34219 0.0
C1645 C 0.16234 0.65368 0.33381 0.0
C1646 C 0.13924 0.64193 0.3477 0.0
C1647 C 0.07457 0.60384 0.38898 0.0
C1648 C 0.09611 0.61808 0.37459 0.0
H1649 H 0.20648 0.71194 0.3387 0.0
H1650 H 0.16775 0.69256 0.36098 0.0
H1651 H 0.1132 0.62231 0.30387 0.0
H1652 H 0.03547 0.54268 0.38209 0.0
H1653 H 0.06737 0.56749 0.35584 0.0
C1654 C 0.2924 0.22734 0.32765 0.0
C1655 C 0.2812 0.22813 0.29696 0.0
C1656 C 0.30592 0.20752 0.33441 0.0
C1657 C 0.34461 0.16098 0.30311 0.0
H1658 H 0.3287 0.12829 0.37276 0.0
C1659 C 0.40304 0.08343 0.34517 0.0
C1660 C 0.41034 0.08559 0.37749 0.0
C1661 C 0.38518 0.09823 0.33258 0.0
C1662 C 0.33365 0.13735 0.35343 0.0
H1663 H 0.27564 0.20894 0.24911 0.0
H1664 H 0.29995 0.1742 0.26093 0.0
H1665 H 0.30166 0.15887 0.35555 0.0
H1666 H 0.40363 0.10452 0.42173 0.0
H1667 H 0.37344 0.13063 0.40005 0.0
H1668 H 0.37729 0.14015 0.30168 0.0
C1669 C 0.298 0.18896 0.27975 0.0
C1670 C 0.31801 0.15481 0.34347 0.0
C1671 C 0.28403 0.20873 0.27298 0.0
C1672 C 0.3989 0.10258 0.39677 0.0
C1673 C 0.38117 0.11734 0.38424 0.0
C1674 C 0.36049 0.14361 0.31327 0.0
C1675 C 0.3089 0.18806 0.31063 0.0
C1676 C 0.32363 0.16726 0.31861 0.0
C1677 C 0.37406 0.11549 0.35197 0.0
C1678 C 0.3556 0.13199 0.33903 0.0
H1679 H 0.29059 0.24203 0.34663 0.0
H1680 H 0.3144 0.20764 0.35837 0.0
H1681 H 0.34953 0.17036 0.28399 0.0
H1682 H 0.41157 0.07071 0.32957 0.0
H1683 H 0.38002 0.09606 0.30762 0.0
C1684 C 0.66599 0.79753 0.73034 0.0
C1685 C 0.68024 0.7864 0.70872 0.0
C1686 C 0.65146 0.81687 0.72356 0.0
C1687 C 0.64652 0.86479 0.67039 0.0
H1688 H 0.57553 0.86591 0.694 0.0
C1689 C 0.57336 0.9247 0.61678 0.0
C1690 C 0.55862 0.93819 0.63592 0.0
C1691 C 0.5887 0.90739 0.62784 0.0
C1692 C 0.5955 0.86609 0.68757 0.0
H1693 H 0.68958 0.78607 0.66264 0.0
H1694 H 0.66387 0.81908 0.6505 0.0
H1695 H 0.60101 0.83331 0.7092 0.0
H1696 H 0.54875 0.94378 0.68204 0.0
H1697 H 0.57539 0.91332 0.70124 0.0
H1698 H 0.6409 0.89725 0.6484 0.0
C1699 C 0.66446 0.8136 0.67308 0.0
C1700 C 0.61014 0.84738 0.69631 0.0
C1701 C 0.67901 0.79443 0.67991 0.0
C1702 C 0.5596 0.93365 0.66649 0.0
C1703 C 0.57489 0.91616 0.67753 0.0
C1704 C 0.63188 0.88337 0.6616 0.0
C1705 C 0.65069 0.82533 0.69488 0.0
C1706 C 0.63568 0.84621 0.68742 0.0
C1707 C 0.58971 0.90285 0.65834 0.0
C1708 C 0.60599 0.88407 0.66965 0.0
H1709 H 0.66628 0.79146 0.7526 0.0
H1710 H 0.64125 0.82549 0.74101 0.0
H1711 H 0.66641 0.865 0.66376 0.0
H1712 H 0.5726 0.92699 0.59287 0.0
H1713 H 0.59934 0.89711 0.61216 0.0
C1714 C 0.72582 0.14661 0.33882 0.0
C1715 C 0.72799 0.17234 0.33362 0.0
C1716 C 0.7143 0.13917 0.36374 0.0
C1717 C 0.66466 0.15778 0.41036 0.0
H1718 H 0.6813 0.10094 0.45055 0.0
C1719 C 0.58358 0.10111 0.46515 0.0
C1720 C 0.57754 0.0746 0.45092 0.0
C1721 C 0.60871 0.11727 0.46408 0.0
C1722 C 0.67665 0.11712 0.43989 0.0
H1723 H 0.72186 0.21097 0.35127 0.0
H1724 H 0.70234 0.19817 0.39499 0.0
H1725 H 0.71408 0.12213 0.42183 0.0
H1726 H 0.59381 0.04355 0.42728 0.0
H1727 H 0.63713 0.07162 0.42491 0.0
H1728 H 0.62661 0.15183 0.42667 0.0
C1729 C 0.70876 0.18353 0.37954 0.0
C1730 C 0.6953 0.12911 0.4233 0.0
C1731 C 0.71989 0.19084 0.35449 0.0
C1732 C 0.59772 0.06406 0.43786 0.0
C1733 C 0.62278 0.08009 0.43699 0.0
C1734 C 0.6461 0.14585 0.42694 0.0
C1735 C 0.70511 0.15746 0.38398 0.0
C1736 C 0.68883 0.1487 0.40712 0.0
C1737 C 0.62812 0.10704 0.44901 0.0
C1738 C 0.65126 0.12451 0.44048 0.0
H1739 H 0.73214 0.1321 0.32309 0.0
H1740 H 0.71145 0.11883 0.36626 0.0
H1741 H 0.65888 0.17269 0.39803 0.0
H1742 H 0.56851 0.10957 0.47591 0.0
H1743 H 0.61245 0.13796 0.47378 0.0
C1744 C 0.78626 0.67652 0.29592 0.0
C1745 C 0.76163 0.6843 0.29986 0.0
C1746 C 0.79488 0.65766 0.31157 0.0
C1747 C 0.79224 0.63326 0.38284 0.0
H1748 H 0.82388 0.57854 0.34305 0.0
C1749 C 0.85671 0.54863 0.41227 0.0
C1750 C 0.87893 0.56445 0.43431 0.0
C1751 C 0.83603 0.55959 0.39809 0.0
C1752 C 0.8147 0.5934 0.35448 0.0
H1753 H 0.72635 0.67833 0.32259 0.0
H1754 H 0.74185 0.64555 0.35071 0.0
H1755 H 0.79929 0.60391 0.3115 0.0
H1756 H 0.89572 0.60387 0.46029 0.0
H1757 H 0.85943 0.62285 0.43588 0.0
H1758 H 0.80881 0.62353 0.42596 0.0
C1759 C 0.75428 0.65393 0.33529 0.0
C1760 C 0.80083 0.60803 0.33643 0.0
C1761 C 0.7454 0.67253 0.31917 0.0
C1762 C 0.87883 0.59106 0.44361 0.0
C1763 C 0.85802 0.60197 0.42959 0.0
C1764 C 0.80642 0.61881 0.40097 0.0
C1765 C 0.77922 0.64651 0.33179 0.0
C1766 C 0.79007 0.6285 0.35048 0.0
C1767 C 0.83698 0.58653 0.4059 0.0
C1768 C 0.81832 0.59913 0.38697 0.0
H1769 H 0.79913 0.68534 0.28114 0.0
H1770 H 0.81435 0.6525 0.30873 0.0
H1771 H 0.78425 0.64906 0.39424 0.0
H1772 H 0.85584 0.52793 0.4051 0.0
H1773 H 0.8198 0.54717 0.38022 0.0
C1774 C 0.36685 0.78033 0.33088 0.0
C1775 C 0.34232 0.76354 0.33301 0.0
C1776 C 0.38271 0.79752 0.35699 0.0
C1777 C 0.37335 0.83324 0.43056 0.0
H1778 H 0.45037 0.86302 0.43351 0.0
C1779 C 0.46353 0.93402 0.48168 0.0
C1780 C 0.44655 0.95185 0.47732 0.0
C1781 C 0.45239 0.90715 0.47497 0.0
C1782 C 0.42905 0.8548 0.43389 0.0
H1783 H 0.31642 0.75004 0.36483 0.0
H1784 H 0.34451 0.77986 0.41069 0.0
H1785 H 0.42976 0.82033 0.40228 0.0
H1786 H 0.40492 0.95626 0.46301 0.0
H1787 H 0.38523 0.90934 0.4506 0.0
H1788 H 0.37275 0.86769 0.46244 0.0
C1789 C 0.35111 0.78011 0.38861 0.0
C1790 C 0.4171 0.83035 0.41547 0.0
C1791 C 0.33511 0.76291 0.36233 0.0
C1792 C 0.41818 0.94268 0.46713 0.0
C1793 C 0.40699 0.91578 0.46021 0.0
C1794 C 0.38547 0.85751 0.44954 0.0
C1795 C 0.3746 0.79825 0.38603 0.0
C1796 C 0.38874 0.82003 0.41206 0.0
C1797 C 0.42408 0.89761 0.46315 0.0
C1798 C 0.41306 0.8693 0.44995 0.0
H1799 H 0.37317 0.78123 0.30873 0.0
H1800 H 0.4004 0.81137 0.35386 0.0
H1801 H 0.35147 0.82587 0.42873 0.0
H1802 H 0.4856 0.94088 0.48916 0.0
H1803 H 0.46613 0.89387 0.47817 0.0
C1804 C 0.23083 0.3555 0.3651 0.0
C1805 C 0.21446 0.34353 0.33614 0.0
C1806 C 0.22171 0.37378 0.3851 0.0
C1807 C 0.17624 0.42006 0.38696 0.0
H1808 H 0.16493 0.40388 0.46706 0.0
C1809 C 0.12108 0.48144 0.46355 0.0
C1810 C 0.09739 0.46612 0.4701 0.0
C1811 C 0.1417 0.46967 0.45363 0.0
C1812 C 0.16832 0.4088 0.44494 0.0
H1813 H 0.17644 0.34171 0.30475 0.0
H1814 H 0.16093 0.37418 0.33923 0.0
H1815 H 0.18947 0.37765 0.43515 0.0
H1816 H 0.0778 0.42693 0.47406 0.0
H1817 H 0.11398 0.40639 0.45706 0.0
H1818 H 0.15438 0.45056 0.39604 0.0
C1819 C 0.18058 0.36929 0.34664 0.0
C1820 C 0.18243 0.39393 0.42681 0.0
C1821 C 0.18938 0.35067 0.32701 0.0
C1822 C 0.09574 0.43916 0.46893 0.0
C1823 C 0.11654 0.42745 0.45941 0.0
C1824 C 0.16256 0.43515 0.40523 0.0
C1825 C 0.19647 0.38074 0.376 0.0
C1826 C 0.18576 0.39898 0.39729 0.0
C1827 C 0.13917 0.44244 0.45049 0.0
C1828 C 0.15777 0.42922 0.43401 0.0
H1829 H 0.25021 0.35016 0.37262 0.0
H1830 H 0.23426 0.3824 0.40765 0.0
H1831 H 0.17863 0.42433 0.36429 0.0
H1832 H 0.12285 0.50226 0.46414 0.0
H1833 H 0.15905 0.48168 0.44709 0.0
C1834 C 0.29542 0.22058 0.73019 0.0
C1835 C 0.28509 0.23402 0.70759 0.0
C1836 C 0.31143 0.20214 0.72291 0.0
C1837 C 0.35585 0.18412 0.66732 0.0
H1838 H 0.34242 0.11597 0.69123 0.0
C1839 C 0.4249 0.10982 0.64254 0.0
C1840 C 0.41108 0.08384 0.6298 0.0
C1841 C 0.41064 0.12818 0.65478 0.0
C1842 C 0.34642 0.13492 0.68436 0.0
H1843 H 0.2835 0.23869 0.65975 0.0
H1844 H 0.31153 0.20704 0.64725 0.0
H1845 H 0.31533 0.14795 0.70723 0.0
H1846 H 0.37153 0.05667 0.62111 0.0
H1847 H 0.34672 0.08864 0.64239 0.0
H1848 H 0.38659 0.1711 0.64409 0.0
C1849 C 0.30741 0.21066 0.67059 0.0
C1850 C 0.33106 0.15333 0.69377 0.0
C1851 C 0.29123 0.22876 0.67774 0.0
C1852 C 0.38279 0.07656 0.63041 0.0
C1853 C 0.3686 0.09485 0.64291 0.0
C1854 C 0.37137 0.16586 0.6582 0.0
C1855 C 0.31782 0.19713 0.69304 0.0
C1856 C 0.33531 0.17804 0.68498 0.0
C1857 C 0.38224 0.121 0.65491 0.0
C1858 C 0.36667 0.1409 0.66627 0.0
H1859 H 0.29136 0.22447 0.75351 0.0
H1860 H 0.31927 0.19219 0.74081 0.0
H1861 H 0.3599 0.20305 0.6604 0.0
H1862 H 0.44662 0.11617 0.64231 0.0
H1863 H 0.42188 0.14808 0.66407 0.0
C1864 C 0.8942 0.26753 0.71372 0.0
C1865 C 0.86744 0.2615 0.6961 0.0
C1866 C 0.9162 0.28036 0.70201 0.0
C1867 C 0.93721 0.30161 0.63197 0.0
H1868 H 0.96113 0.37054 0.68389 0.0
C1869 C 0.94943 0.39409 0.58148 0.0
C1870 C 0.96779 0.4172 0.59745 0.0
C1871 C 0.94699 0.37139 0.59409 0.0
C1872 C 0.95554 0.35129 0.66933 0.0
H1873 H 0.84276 0.26166 0.65177 0.0
H1874 H 0.88115 0.28358 0.63108 0.0
H1875 H 0.93977 0.33391 0.70522 0.0
H1876 H 0.99896 0.43445 0.63843 0.0
H1877 H 0.99484 0.39456 0.66046 0.0
H1878 H 0.95175 0.31925 0.5956 0.0
C1879 C 0.88525 0.27861 0.65388 0.0
C1880 C 0.94329 0.33025 0.68163 0.0
C1881 C 0.86325 0.26633 0.66579 0.0
C1882 C 0.98433 0.41698 0.62585 0.0
C1883 C 0.98203 0.39414 0.6384 0.0
C1884 C 0.94979 0.32258 0.61976 0.0
C1885 C 0.91169 0.28668 0.67233 0.0
C1886 C 0.93256 0.30565 0.66251 0.0
C1887 C 0.96305 0.37118 0.62285 0.0
C1888 C 0.95746 0.34796 0.63778 0.0
H1889 H 0.89782 0.26387 0.73719 0.0
H1890 H 0.93641 0.28649 0.71665 0.0
H1891 H 0.92934 0.28269 0.61692 0.0
H1892 H 0.93649 0.39364 0.55947 0.0
H1893 H 0.93168 0.35429 0.58178 0.0
C1894 C 0.21054 0.66074 0.69447 0.0
C1895 C 0.22447 0.6861 0.69348 0.0
C1896 C 0.18669 0.64879 0.6728 0.0
C1897 C 0.12737 0.66334 0.63199 0.0
H1898 H 0.11658 0.59518 0.57965 0.0
C1899 C 0.03867 0.57772 0.54371 0.0
C1900 C 0.02269 0.56931 0.56505 0.0
C1901 C 0.06189 0.59801 0.55345 0.0
C1902 C 0.11947 0.61446 0.59369 0.0
H1903 H 0.22469 0.71883 0.66911 0.0
H1904 H 0.18253 0.69808 0.63192 0.0
H1905 H 0.1626 0.61687 0.60865 0.0
H1906 H 0.01615 0.57754 0.61238 0.0
H1907 H 0.05647 0.6135 0.62935 0.0
H1908 H 0.08382 0.66 0.61882 0.0
C1909 C 0.19041 0.6874 0.64903 0.0
C1910 C 0.14562 0.62667 0.61037 0.0
C1911 C 0.21452 0.69911 0.67019 0.0
C1912 C 0.02832 0.58349 0.5955 0.0
C1913 C 0.05126 0.60413 0.60516 0.0
C1914 C 0.10105 0.65085 0.61582 0.0
C1915 C 0.17625 0.66231 0.65042 0.0
C1916 C 0.14957 0.65091 0.63003 0.0
C1917 C 0.06896 0.61052 0.58457 0.0
C1918 C 0.09691 0.62614 0.59701 0.0
H1919 H 0.2178 0.65038 0.71223 0.0
H1920 H 0.17579 0.62941 0.67424 0.0
H1921 H 0.13015 0.68204 0.64725 0.0
H1922 H 0.03469 0.56716 0.52023 0.0
H1923 H 0.07531 0.60272 0.53723 0.0
loop_
_geom_bond_atom_site_label_1
_geom_bond_atom_site_label_2
_geom_bond_distance
_geom_bond_site_symmetry_2
_ccdc_geom_bond_type
Tb0 O3 2.453 . S
Tb0 O4 2.596 . S
Tb0 O5 2.374 . S
Tb0 O13 2.343 . S
Tb0 O15 2.353 . S
Tb0 O17 2.427 . S
Tb0 O18 2.513 . S
C1 O5 1.251 . S
C1 O7 1.263 . S
Tb2 O4 2.343 . S
Tb2 O7 2.353 . S
Tb2 O10 2.427 . S
Tb2 O11 2.513 . S
Tb2 O12 2.453 . S
Tb2 O13 2.596 . S
Tb2 O14 2.374 . S
O3 Tb0 2.453 . S
O3 C19 1.245 . S
O4 Tb0 2.596 . S
O4 Tb2 2.343 . S
O4 C19 1.259 . S
O5 Tb0 2.374 . S
O5 C1 1.251 . S
C6 O10 1.275 . S
C6 O11 1.246 . S
O7 C1 1.263 . S
O7 Tb2 2.353 . S
C8 O12 1.245 . S
C8 O13 1.259 . S
C9 O14 1.250 . S
C9 O15 1.263 . S
O10 Tb2 2.427 . S
O10 C6 1.275 . S
O11 Tb2 2.513 . S
O11 C6 1.246 . S
O12 Tb2 2.453 . S
O12 C8 1.245 . S
O13 Tb0 2.343 . S
O13 Tb2 2.596 . S
O13 C8 1.259 . S
O14 Tb2 2.374 . S
O14 C9 1.250 . S
O15 Tb0 2.353 . S
O15 C9 1.263 . S
C16 O17 1.275 . S
C16 O18 1.246 . S
O17 Tb0 2.427 . S
O17 C16 1.275 . S
O18 Tb0 2.513 . S
O18 C16 1.246 . S
C19 O3 1.245 . S
C19 O4 1.259 . S
Tb20 O23 2.453 . S
Tb20 O24 2.596 . S
Tb20 O25 2.374 . S
Tb20 O33 2.343 . S
Tb20 O35 2.353 . S
Tb20 O37 2.427 . S
Tb20 O38 2.513 . S
C21 O25 1.251 . S
C21 O27 1.263 . S
Tb22 O24 2.343 . S
Tb22 O27 2.353 . S
Tb22 O30 2.427 . S
Tb22 O31 2.513 . S
Tb22 O32 2.453 . S
Tb22 O33 2.596 . S
Tb22 O34 2.374 . S
O23 Tb20 2.453 . S
O23 C39 1.245 . S
O24 Tb20 2.596 . S
O24 Tb22 2.343 . S
O24 C39 1.259 . S
O25 Tb20 2.374 . S
O25 C21 1.251 . S
C26 O30 1.275 . S
C26 O31 1.246 . S
O27 C21 1.263 . S
O27 Tb22 2.353 . S
C28 O32 1.245 . S
C28 O33 1.259 . S
C29 O34 1.250 . S
C29 O35 1.263 . S
O30 Tb22 2.427 . S
O30 C26 1.275 . S
O31 Tb22 2.513 . S
O31 C26 1.246 . S
O32 Tb22 2.453 . S
O32 C28 1.245 . S
O33 Tb20 2.343 . S
O33 Tb22 2.596 . S
O33 C28 1.259 . S
O34 Tb22 2.374 . S
O34 C29 1.250 . S
O35 Tb20 2.353 . S
O35 C29 1.263 . S
C36 O37 1.275 . S
C36 O38 1.246 . S
O37 Tb20 2.427 . S
O37 C36 1.275 . S
O38 Tb20 2.513 . S
O38 C36 1.246 . S
C39 O23 1.245 . S
C39 O24 1.259 . S
Tb40 O43 2.453 . S
Tb40 O44 2.596 . S
Tb40 O45 2.374 . S
Tb40 O53 2.343 . S
Tb40 O55 2.353 . S
Tb40 O57 2.427 . S
Tb40 O58 2.513 . S
C41 O45 1.251 . S
C41 O47 1.263 . S
Tb42 O44 2.343 . S
Tb42 O47 2.353 . S
Tb42 O50 2.427 . S
Tb42 O51 2.513 . S
Tb42 O52 2.453 . S
Tb42 O53 2.596 . S
Tb42 O54 2.374 . S
O43 Tb40 2.453 . S
O43 C59 1.245 . S
O44 Tb40 2.596 . S
O44 Tb42 2.343 . S
O44 C59 1.259 . S
O45 Tb40 2.374 . S
O45 C41 1.251 . S
C46 O50 1.275 . S
C46 O51 1.246 . S
O47 C41 1.263 . S
O47 Tb42 2.353 . S
C48 O52 1.245 . S
C48 O53 1.259 . S
C49 O54 1.250 . S
C49 O55 1.263 . S
O50 Tb42 2.427 . S
O50 C46 1.275 . S
O51 Tb42 2.513 . S
O51 C46 1.246 . S
O52 Tb42 2.453 . S
O52 C48 1.245 . S
O53 Tb40 2.343 . S
O53 Tb42 2.596 . S
O53 C48 1.259 . S
O54 Tb42 2.374 . S
O54 C49 1.250 . S
O55 Tb40 2.353 . S
O55 C49 1.263 . S
C56 O57 1.275 . S
C56 O58 1.246 . S
O57 Tb40 2.427 . S
O57 C56 1.275 . S
O58 Tb40 2.513 . S
O58 C56 1.246 . S
C59 O43 1.245 . S
C59 O44 1.259 . S
Tb60 O63 2.453 . S
Tb60 O64 2.596 . S
Tb60 O65 2.374 . S
Tb60 O73 2.343 . S
Tb60 O75 2.353 . S
Tb60 O77 2.427 . S
Tb60 O78 2.513 . S
C61 O65 1.251 . S
C61 O67 1.263 . S
Tb62 O64 2.343 . S
Tb62 O67 2.353 . S
Tb62 O70 2.427 . S
Tb62 O71 2.513 . S
Tb62 O72 2.453 . S
Tb62 O73 2.596 . S
Tb62 O74 2.374 . S
O63 Tb60 2.453 . S
O63 C79 1.245 . S
O64 Tb60 2.596 . S
O64 Tb62 2.343 . S
O64 C79 1.259 . S
O65 Tb60 2.374 . S
O65 C61 1.251 . S
C66 O70 1.275 . S
C66 O71 1.246 . S
O67 C61 1.263 . S
O67 Tb62 2.353 . S
C68 O72 1.245 . S
C68 O73 1.259 . S
C69 O74 1.250 . S
C69 O75 1.263 . S
O70 Tb62 2.427 . S
O70 C66 1.275 . S
O71 Tb62 2.513 . S
O71 C66 1.246 . S
O72 Tb62 2.453 . S
O72 C68 1.245 . S
O73 Tb60 2.343 . S
O73 Tb62 2.596 . S
O73 C68 1.259 . S
O74 Tb62 2.374 . S
O74 C69 1.250 . S
O75 Tb60 2.353 . S
O75 C69 1.263 . S
C76 O77 1.275 . S
C76 O78 1.246 . S
O77 Tb60 2.427 . S
O77 C76 1.275 . S
O78 Tb60 2.513 . S
O78 C76 1.246 . S
C79 O63 1.245 . S
C79 O64 1.259 . S
Tb80 O83 2.453 . S
Tb80 O84 2.596 . S
Tb80 O85 2.374 . S
Tb80 O93 2.343 . S
Tb80 O95 2.353 . S
Tb80 O97 2.427 . S
Tb80 O98 2.513 . S
C81 O85 1.251 . S
C81 O87 1.263 . S
Tb82 O84 2.343 . S
Tb82 O87 2.353 . S
Tb82 O90 2.427 . S
Tb82 O91 2.513 . S
Tb82 O92 2.453 . S
Tb82 O93 2.596 . S
Tb82 O94 2.374 . S
O83 Tb80 2.453 . S
O83 C99 1.245 . S
O84 Tb80 2.596 . S
O84 Tb82 2.343 . S
O84 C99 1.259 . S
O85 Tb80 2.374 . S
O85 C81 1.251 . S
C86 O90 1.275 . S
C86 O91 1.246 . S
O87 C81 1.263 . S
O87 Tb82 2.353 . S
C88 O92 1.245 . S
C88 O93 1.259 . S
C89 O94 1.250 . S
C89 O95 1.263 . S
O90 Tb82 2.427 . S
O90 C86 1.275 . S
O91 Tb82 2.513 . S
O91 C86 1.246 . S
O92 Tb82 2.453 . S
O92 C88 1.245 . S
O93 Tb80 2.343 . S
O93 Tb82 2.596 . S
O93 C88 1.259 . S
O94 Tb82 2.374 . S
O94 C89 1.250 . S
O95 Tb80 2.353 . S
O95 C89 1.263 . S
C96 O97 1.275 . S
C96 O98 1.246 . S
O97 Tb80 2.427 . S
O97 C96 1.275 . S
O98 Tb80 2.513 . S
O98 C96 1.246 . S
C99 O83 1.245 . S
C99 O84 1.259 . S
Tb100 O103 2.453 . S
Tb100 O104 2.596 . S
Tb100 O105 2.374 . S
Tb100 O113 2.343 . S
Tb100 O115 2.353 . S
Tb100 O117 2.427 . S
Tb100 O118 2.513 . S
C101 O105 1.251 . S
C101 O107 1.263 . S
Tb102 O104 2.343 . S
Tb102 O107 2.353 . S
Tb102 O110 2.427 . S
Tb102 O111 2.513 . S
Tb102 O112 2.453 . S
Tb102 O113 2.596 . S
Tb102 O114 2.374 . S
O103 Tb100 2.453 . S
O103 C119 1.245 . S
O104 Tb100 2.596 . S
O104 Tb102 2.343 . S
O104 C119 1.259 . S
O105 Tb100 2.374 . S
O105 C101 1.251 . S
C106 O110 1.275 . S
C106 O111 1.246 . S
O107 C101 1.263 . S
O107 Tb102 2.353 . S
C108 O112 1.245 . S
C108 O113 1.259 . S
C109 O114 1.250 . S
C109 O115 1.263 . S
O110 Tb102 2.427 . S
O110 C106 1.275 . S
O111 Tb102 2.513 . S
O111 C106 1.246 . S
O112 Tb102 2.453 . S
O112 C108 1.245 . S
O113 Tb100 2.343 . S
O113 Tb102 2.596 . S
O113 C108 1.259 . S
O114 Tb102 2.374 . S
O114 C109 1.250 . S
O115 Tb100 2.353 . S
O115 C109 1.263 . S
C116 O117 1.275 . S
C116 O118 1.246 . S
O117 Tb100 2.427 . S
O117 C116 1.275 . S
O118 Tb100 2.513 . S
O118 C116 1.246 . S
C119 O103 1.245 . S
C119 O104 1.259 . S
Tb120 O123 2.453 . S
Tb120 O124 2.596 . S
Tb120 O125 2.374 . S
Tb120 O133 2.343 . S
Tb120 O135 2.353 . S
Tb120 O137 2.427 . S
Tb120 O138 2.513 . S
C121 O125 1.251 . S
C121 O127 1.263 . S
Tb122 O124 2.343 . S
Tb122 O127 2.353 . S
Tb122 O130 2.427 . S
Tb122 O131 2.513 . S
Tb122 O132 2.453 . S
Tb122 O133 2.596 . S
Tb122 O134 2.374 . S
O123 Tb120 2.453 . S
O123 C139 1.245 . S
O124 Tb120 2.596 . S
O124 Tb122 2.343 . S
O124 C139 1.259 . S
O125 Tb120 2.374 . S
O125 C121 1.251 . S
C126 O130 1.275 . S
C126 O131 1.246 . S
O127 C121 1.263 . S
O127 Tb122 2.353 . S
C128 O132 1.245 . S
C128 O133 1.259 . S
C129 O134 1.250 . S
C129 O135 1.263 . S
O130 Tb122 2.427 . S
O130 C126 1.275 . S
O131 Tb122 2.513 . S
O131 C126 1.246 . S
O132 Tb122 2.453 . S
O132 C128 1.245 . S
O133 Tb120 2.343 . S
O133 Tb122 2.596 . S
O133 C128 1.259 . S
O134 Tb122 2.374 . S
O134 C129 1.250 . S
O135 Tb120 2.353 . S
O135 C129 1.263 . S
C136 O137 1.275 . S
C136 O138 1.246 . S
O137 Tb120 2.427 . S
O137 C136 1.275 . S
O138 Tb120 2.513 . S
O138 C136 1.246 . S
C139 O123 1.245 . S
C139 O124 1.259 . S
Tb140 O143 2.453 . S
Tb140 O144 2.596 . S
Tb140 O145 2.374 . S
Tb140 O153 2.343 . S
Tb140 O155 2.353 . S
Tb140 O157 2.427 . S
Tb140 O158 2.513 . S
C141 O145 1.251 . S
C141 O147 1.263 . S
Tb142 O144 2.343 . S
Tb142 O147 2.353 . S
Tb142 O150 2.427 . S
Tb142 O151 2.513 . S
Tb142 O152 2.453 . S
Tb142 O153 2.596 . S
Tb142 O154 2.374 . S
O143 Tb140 2.453 . S
O143 C159 1.245 . S
O144 Tb140 2.596 . S
O144 Tb142 2.343 . S
O144 C159 1.259 . S
O145 Tb140 2.374 . S
O145 C141 1.251 . S
C146 O150 1.275 . S
C146 O151 1.246 . S
O147 C141 1.263 . S
O147 Tb142 2.353 . S
C148 O152 1.245 . S
C148 O153 1.259 . S
C149 O154 1.250 . S
C149 O155 1.263 . S
O150 Tb142 2.427 . S
O150 C146 1.275 . S
O151 Tb142 2.513 . S
O151 C146 1.246 . S
O152 Tb142 2.453 . S
O152 C148 1.245 . S
O153 Tb140 2.343 . S
O153 Tb142 2.596 . S
O153 C148 1.259 . S
O154 Tb142 2.374 . S
O154 C149 1.250 . S
O155 Tb140 2.353 . S
O155 C149 1.263 . S
C156 O157 1.275 . S
C156 O158 1.246 . S
O157 Tb140 2.427 . S
O157 C156 1.275 . S
O158 Tb140 2.513 . S
O158 C156 1.246 . S
C159 O143 1.245 . S
C159 O144 1.259 . S
Cd160 N163 2.334 1_655 S
Cd160 N189 2.304 1_565 S
Cd160 O196 2.268 . S
Cd160 O199 2.273 1_665 S
Cd160 O200 2.417 . S
Cd160 O201 2.330 . S
Cd161 N176 2.304 1_455 S
Cd161 N180 2.334 1_545 S
Cd161 O197 2.273 1_445 S
Cd161 O198 2.268 . S
Cd161 O202 2.417 . S
Cd161 O203 2.330 . S
C162 N163 1.332 . S
C162 C166 1.381 . S
C162 H168 0.931 . S
N163 Cd160 2.334 1_455 S
N163 C162 1.332 . S
N163 C167 1.328 . S
C164 C165 1.396 . S
C164 C167 1.378 . S
C164 H206 0.931 . S
C165 C164 1.396 . S
C165 C166 1.382 . S
C166 C162 1.381 . S
C166 C165 1.382 . S
C166 H207 0.930 . S
C167 N163 1.328 . S
C167 C164 1.378 . S
C167 H169 0.930 1_455 S
H168 C162 0.931 . S
H169 C167 0.930 1_655 S
C170 O196 1.238 . S
C170 O197 1.253 . S
C171 C172 1.379 . S
C171 N176 1.337 . S
C171 H177 0.929 . S
C172 C171 1.379 . S
C172 C173 1.380 . S
C172 H208 0.929 . S
C173 C172 1.380 . S
C173 C174 1.399 . S
C174 C173 1.399 . S
C174 C175 1.376 . S
C174 H209 0.931 . S
C175 C174 1.376 . S
C175 N176 1.338 . S
C175 H178 0.930 1_655 S
N176 Cd161 2.304 1_655 S
N176 C171 1.337 . S
N176 C175 1.338 . S
H177 C171 0.929 . S
H178 C175 0.930 1_455 S
C179 N180 1.332 . S
C179 C183 1.381 . S
C179 H185 0.931 . S
N180 Cd161 2.334 1_565 S
N180 C179 1.332 . S
N180 C184 1.328 . S
C181 C182 1.396 . S
C181 C184 1.378 . S
C181 H210 0.931 . S
C182 C181 1.396 . S
C182 C183 1.382 . S
C183 C179 1.381 . S
C183 C182 1.382 . S
C183 H211 0.930 . S
C184 N180 1.328 . S
C184 C181 1.378 . S
C184 H186 0.930 1_565 S
H185 C179 0.931 . S
H186 C184 0.930 1_545 S
C187 O198 1.238 . S
C187 O199 1.253 . S
C188 O200 1.239 . S
C188 O201 1.230 . S
N189 Cd160 2.304 1_545 S
N189 C190 1.337 . S
N189 C194 1.338 . S
C190 N189 1.337 . S
C190 C191 1.379 . S
C190 H204 0.929 . S
C191 C190 1.379 . S
C191 C192 1.380 . S
C191 H212 0.929 . S
C192 C191 1.380 . S
C192 C193 1.399 . S
C193 C192 1.399 . S
C193 C194 1.376 . S
C193 H213 0.931 . S
C194 N189 1.338 . S
C194 C193 1.376 . S
C194 H205 0.930 1_545 S
C195 O202 1.239 . S
C195 O203 1.230 . S
O196 Cd160 2.268 . S
O196 C170 1.238 . S
O197 Cd161 2.273 1_665 S
O197 C170 1.253 . S
O198 Cd161 2.268 . S
O198 C187 1.238 . S
O199 Cd160 2.273 1_445 S
O199 C187 1.253 . S
O200 Cd160 2.417 . S
O200 C188 1.239 . S
O201 Cd160 2.330 . S
O201 C188 1.230 . S
O202 Cd161 2.417 . S
O202 C195 1.239 . S
O203 Cd161 2.330 . S
O203 C195 1.230 . S
H204 C190 0.929 . S
H205 C194 0.930 1_565 S
H206 C164 0.931 . S
H207 C166 0.930 . S
H208 C172 0.929 . S
H209 C174 0.931 . S
H210 C181 0.931 . S
H211 C183 0.930 . S
H212 C191 0.929 . S
H213 C193 0.931 . S
Cd214 N217 2.334 . S
Cd214 N243 2.304 1_565 S
Cd214 O250 2.268 1_554 S
Cd214 O253 2.273 1_565 S
Cd214 O254 2.417 . S
Cd214 O255 2.330 . S
Cd215 N230 2.304 . S
Cd215 N234 2.334 1_545 S
Cd215 O251 2.273 1_545 S
Cd215 O252 2.268 1_556 S
Cd215 O256 2.417 . S
Cd215 O257 2.330 . S
C216 N217 1.332 . S
C216 C220 1.381 . S
C216 H222 0.931 . S
N217 Cd214 2.334 . S
N217 C216 1.332 . S
N217 C221 1.328 . S
C218 C219 1.396 . S
C218 C221 1.378 . S
C218 H260 0.931 1_554 S
C219 C218 1.396 . S
C219 C220 1.382 . S
C220 C216 1.381 . S
C220 C219 1.382 . S
C220 H261 0.930 . S
C221 N217 1.328 . S
C221 C218 1.378 . S
C221 H223 0.930 1_554 S
H222 C216 0.931 . S
H223 C221 0.930 1_556 S
C224 O250 1.238 . S
C224 O251 1.253 . S
C225 C226 1.379 . S
C225 N230 1.337 . S
C225 H231 0.929 . S
C226 C225 1.379 . S
C226 C227 1.380 . S
C226 H262 0.929 . S
C227 C226 1.380 . S
C227 C228 1.399 . S
C228 C227 1.399 . S
C228 C229 1.376 . S
C228 H263 0.931 1_556 S
C229 C228 1.376 . S
C229 N230 1.338 . S
C229 H232 0.930 1_556 S
N230 Cd215 2.304 . S
N230 C225 1.337 . S
N230 C229 1.338 . S
H231 C225 0.929 . S
H232 C229 0.930 1_554 S
C233 N234 1.332 . S
C233 C237 1.381 . S
C233 H239 0.931 . S
N234 Cd215 2.334 1_565 S
N234 C233 1.332 . S
N234 C238 1.328 . S
C235 C236 1.396 . S
C235 C238 1.378 . S
C235 H264 0.931 1_556 S
C236 C235 1.396 . S
C236 C237 1.382 . S
C237 C233 1.381 . S
C237 C236 1.382 . S
C237 H265 0.930 . S
C238 N234 1.328 . S
C238 C235 1.378 . S
C238 H240 0.930 1_566 S
H239 C233 0.931 . S
H240 C238 0.930 1_544 S
C241 O252 1.238 . S
C241 O253 1.253 . S
C242 O254 1.239 . S
C242 O255 1.230 . S
N243 Cd214 2.304 1_545 S
N243 C244 1.337 . S
N243 C248 1.338 . S
C244 N243 1.337 . S
C244 C245 1.379 . S
C244 H258 0.929 . S
C245 C244 1.379 . S
C245 C246 1.380 . S
C245 H266 0.929 . S
C246 C245 1.380 . S
C246 C247 1.399 . S
C247 C246 1.399 . S
C247 C248 1.376 . S
C247 H267 0.931 1_554 S
C248 N243 1.338 . S
C248 C247 1.376 . S
C248 H259 0.930 1_544 S
C249 O256 1.239 . S
C249 O257 1.230 . S
O250 Cd214 2.268 1_556 S
O250 C224 1.238 . S
O251 Cd215 2.273 1_565 S
O251 C224 1.253 . S
O252 Cd215 2.268 1_554 S
O252 C241 1.238 . S
O253 Cd214 2.273 1_545 S
O253 C241 1.253 . S
O254 Cd214 2.417 . S
O254 C242 1.239 . S
O255 Cd214 2.330 . S
O255 C242 1.230 . S
O256 Cd215 2.417 . S
O256 C249 1.239 . S
O257 Cd215 2.330 . S
O257 C249 1.230 . S
H258 C244 0.929 . S
H259 C248 0.930 1_566 S
H260 C218 0.931 1_556 S
H261 C220 0.930 . S
H262 C226 0.929 . S
H263 C228 0.931 1_554 S
H264 C235 0.931 1_554 S
H265 C237 0.930 . S
H266 C245 0.929 . S
H267 C247 0.931 1_556 S
Cd268 N271 2.334 1_655 S
Cd268 N297 2.304 . S
Cd268 O304 2.268 1_554 S
Cd268 O307 2.273 1_655 S
Cd268 O308 2.417 . S
Cd268 O309 2.330 . S
Cd269 N284 2.304 1_455 S
Cd269 N288 2.334 . S
Cd269 O305 2.273 1_455 S
Cd269 O306 2.268 1_556 S
Cd269 O310 2.417 . S
Cd269 O311 2.330 . S
C270 N271 1.332 . S
C270 C274 1.381 . S
C270 H276 0.931 . S
N271 Cd268 2.334 1_455 S
N271 C270 1.332 . S
N271 C275 1.328 . S
C272 C273 1.396 . S
C272 C275 1.378 . S
C272 H314 0.931 1_554 S
C273 C272 1.396 . S
C273 C274 1.382 . S
C274 C270 1.381 . S
C274 C273 1.382 . S
C274 H315 0.930 . S
C275 N271 1.328 . S
C275 C272 1.378 . S
C275 H277 0.930 1_454 S
H276 C270 0.931 . S
H277 C275 0.930 1_656 S
C278 O304 1.238 . S
C278 O305 1.253 . S
C279 C280 1.379 . S
C279 N284 1.337 . S
C279 H285 0.929 . S
C280 C279 1.379 . S
C280 C281 1.380 . S
C280 H316 0.929 . S
C281 C280 1.380 . S
C281 C282 1.399 . S
C282 C281 1.399 . S
C282 C283 1.376 . S
C282 H317 0.931 1_556 S
C283 C282 1.376 . S
C283 N284 1.338 . S
C283 H286 0.930 1_656 S
N284 Cd269 2.304 1_655 S
N284 C279 1.337 . S
N284 C283 1.338 . S
H285 C279 0.929 . S
H286 C283 0.930 1_454 S
C287 N288 1.332 . S
C287 C291 1.381 . S
C287 H293 0.931 . S
N288 Cd269 2.334 . S
N288 C287 1.332 . S
N288 C292 1.328 . S
C289 C290 1.396 . S
C289 C292 1.378 . S
C289 H318 0.931 1_556 S
C290 C289 1.396 . S
C290 C291 1.382 . S
C291 C287 1.381 . S
C291 C290 1.382 . S
C291 H319 0.930 . S
C292 N288 1.328 . S
C292 C289 1.378 . S
C292 H294 0.930 1_556 S
H293 C287 0.931 . S
H294 C292 0.930 1_554 S
C295 O306 1.238 . S
C295 O307 1.253 . S
C296 O308 1.239 . S
C296 O309 1.230 . S
N297 Cd268 2.304 . S
N297 C298 1.337 . S
N297 C302 1.338 . S
C298 N297 1.337 . S
C298 C299 1.379 . S
C298 H312 0.929 . S
C299 C298 1.379 . S
C299 C300 1.380 . S
C299 H320 0.929 . S
C300 C299 1.380 . S
C300 C301 1.399 . S
C301 C300 1.399 . S
C301 C302 1.376 . S
C301 H321 0.931 1_554 S
C302 N297 1.338 . S
C302 C301 1.376 . S
C302 H313 0.930 1_554 S
C303 O310 1.239 . S
C303 O311 1.230 . S
O304 Cd268 2.268 1_556 S
O304 C278 1.238 . S
O305 Cd269 2.273 1_655 S
O305 C278 1.253 . S
O306 Cd269 2.268 1_554 S
O306 C295 1.238 . S
O307 Cd268 2.273 1_455 S
O307 C295 1.253 . S
O308 Cd268 2.417 . S
O308 C296 1.239 . S
O309 Cd268 2.330 . S
O309 C296 1.230 . S
O310 Cd269 2.417 . S
O310 C303 1.239 . S
O311 Cd269 2.330 . S
O311 C303 1.230 . S
H312 C298 0.929 . S
H313 C302 0.930 1_556 S
H314 C272 0.931 1_556 S
H315 C274 0.930 . S
H316 C280 0.929 . S
H317 C282 0.931 1_554 S
H318 C289 0.931 1_554 S
H319 C291 0.930 . S
H320 C299 0.929 . S
H321 C301 0.931 1_556 S
Cd322 N325 2.334 . S
Cd322 N351 2.304 . S
Cd322 O358 2.268 1_554 S
Cd322 O361 2.273 . S
Cd322 O362 2.417 . S
Cd322 O363 2.330 . S
Cd323 N338 2.304 . S
Cd323 N342 2.334 . S
Cd323 O359 2.273 . S
Cd323 O360 2.268 1_556 S
Cd323 O364 2.417 . S
Cd323 O365 2.330 . S
C324 N325 1.332 . S
C324 C328 1.381 . S
C324 H330 0.931 . S
N325 Cd322 2.334 . S
N325 C324 1.332 . S
N325 C329 1.328 . S
C326 C327 1.396 . S
C326 C329 1.378 . S
C326 H368 0.931 1_554 S
C327 C326 1.396 . S
C327 C328 1.382 . S
C328 C324 1.381 . S
C328 C327 1.382 . S
C328 H369 0.930 . S
C329 N325 1.328 . S
C329 C326 1.378 . S
C329 H331 0.930 1_554 S
H330 C324 0.931 . S
H331 C329 0.930 1_556 S
C332 O358 1.238 . S
C332 O359 1.253 . S
C333 C334 1.379 . S
C333 N338 1.337 . S
C333 H339 0.929 . S
C334 C333 1.379 . S
C334 C335 1.380 . S
C334 H370 0.929 . S
C335 C334 1.380 . S
C335 C336 1.399 . S
C336 C335 1.399 . S
C336 C337 1.376 . S
C336 H371 0.931 1_556 S
C337 C336 1.376 . S
C337 N338 1.338 . S
C337 H340 0.930 1_556 S
N338 Cd323 2.304 . S
N338 C333 1.337 . S
N338 C337 1.338 . S
H339 C333 0.929 . S
H340 C337 0.930 1_554 S
C341 N342 1.332 . S
C341 C345 1.381 . S
C341 H347 0.931 . S
N342 Cd323 2.334 . S
N342 C341 1.332 . S
N342 C346 1.328 . S
C343 C344 1.396 . S
C343 C346 1.378 . S
C343 H372 0.931 1_556 S
C344 C343 1.396 . S
C344 C345 1.382 . S
C345 C341 1.381 . S
C345 C344 1.382 . S
C345 H373 0.930 . S
C346 N342 1.328 . S
C346 C343 1.378 . S
C346 H348 0.930 1_556 S
H347 C341 0.931 . S
H348 C346 0.930 1_554 S
C349 O360 1.238 . S
C349 O361 1.253 . S
C350 O362 1.239 . S
C350 O363 1.230 . S
N351 Cd322 2.304 . S
N351 C352 1.337 . S
N351 C356 1.338 . S
C352 N351 1.337 . S
C352 C353 1.379 . S
C352 H366 0.929 . S
C353 C352 1.379 . S
C353 C354 1.380 . S
C353 H374 0.929 . S
C354 C353 1.380 . S
C354 C355 1.399 . S
C355 C354 1.399 . S
C355 C356 1.376 . S
C355 H375 0.931 1_554 S
C356 N351 1.338 . S
C356 C355 1.376 . S
C356 H367 0.930 1_554 S
C357 O364 1.239 . S
C357 O365 1.230 . S
O358 Cd322 2.268 1_556 S
O358 C332 1.238 . S
O359 Cd323 2.273 . S
O359 C332 1.253 . S
O360 Cd323 2.268 1_554 S
O360 C349 1.238 . S
O361 Cd322 2.273 . S
O361 C349 1.253 . S
O362 Cd322 2.417 . S
O362 C350 1.239 . S
O363 Cd322 2.330 . S
O363 C350 1.230 . S
O364 Cd323 2.417 . S
O364 C357 1.239 . S
O365 Cd323 2.330 . S
O365 C357 1.230 . S
H366 C352 0.929 . S
H367 C356 0.930 1_556 S
H368 C326 0.931 1_556 S
H369 C328 0.930 . S
H370 C334 0.929 . S
H371 C336 0.931 1_554 S
H372 C343 0.931 1_554 S
H373 C345 0.930 . S
H374 C353 0.929 . S
H375 C355 0.931 1_556 S
Cd376 N379 2.334 1_655 S
Cd376 N405 2.304 . S
Cd376 O412 2.268 . S
Cd376 O415 2.273 1_655 S
Cd376 O416 2.417 . S
Cd376 O417 2.330 . S
Cd377 N392 2.304 1_455 S
Cd377 N396 2.334 . S
Cd377 O413 2.273 1_455 S
Cd377 O414 2.268 . S
Cd377 O418 2.417 . S
Cd377 O419 2.330 . S
C378 N379 1.332 . S
C378 C382 1.381 . S
C378 H384 0.931 . S
N379 Cd376 2.334 1_455 S
N379 C378 1.332 . S
N379 C383 1.328 . S
C380 C381 1.396 . S
C380 C383 1.378 . S
C380 H422 0.931 . S
C381 C380 1.396 . S
C381 C382 1.382 . S
C382 C378 1.381 . S
C382 C381 1.382 . S
C382 H423 0.930 . S
C383 N379 1.328 . S
C383 C380 1.378 . S
C383 H385 0.930 1_455 S
H384 C378 0.931 . S
H385 C383 0.930 1_655 S
C386 O412 1.238 . S
C386 O413 1.253 . S
C387 C388 1.379 . S
C387 N392 1.337 . S
C387 H393 0.929 . S
C388 C387 1.379 . S
C388 C389 1.380 . S
C388 H424 0.929 . S
C389 C388 1.380 . S
C389 C390 1.399 . S
C390 C389 1.399 . S
C390 C391 1.376 . S
C390 H425 0.931 . S
C391 C390 1.376 . S
C391 N392 1.338 . S
C391 H394 0.930 1_655 S
N392 Cd377 2.304 1_655 S
N392 C387 1.337 . S
N392 C391 1.338 . S
H393 C387 0.929 . S
H394 C391 0.930 1_455 S
C395 N396 1.332 . S
C395 C399 1.381 . S
C395 H401 0.931 . S
N396 Cd377 2.334 . S
N396 C395 1.332 . S
N396 C400 1.328 . S
C397 C398 1.396 . S
C397 C400 1.378 . S
C397 H426 0.931 . S
C398 C397 1.396 . S
C398 C399 1.382 . S
C399 C395 1.381 . S
C399 C398 1.382 . S
C399 H427 0.930 . S
C400 N396 1.328 . S
C400 C397 1.378 . S
C400 H402 0.930 . S
H401 C395 0.931 . S
H402 C400 0.930 . S
C403 O414 1.238 . S
C403 O415 1.253 . S
C404 O416 1.239 . S
C404 O417 1.230 . S
N405 Cd376 2.304 . S
N405 C406 1.337 . S
N405 C410 1.338 . S
C406 N405 1.337 . S
C406 C407 1.379 . S
C406 H420 0.929 . S
C407 C406 1.379 . S
C407 C408 1.380 . S
C407 H428 0.929 . S
C408 C407 1.380 . S
C408 C409 1.399 . S
C409 C408 1.399 . S
C409 C410 1.376 . S
C409 H429 0.931 . S
C410 N405 1.338 . S
C410 C409 1.376 . S
C410 H421 0.930 . S
C411 O418 1.239 . S
C411 O419 1.230 . S
O412 Cd376 2.268 . S
O412 C386 1.238 . S
O413 Cd377 2.273 1_655 S
O413 C386 1.253 . S
O414 Cd377 2.268 . S
O414 C403 1.238 . S
O415 Cd376 2.273 1_455 S
O415 C403 1.253 . S
O416 Cd376 2.417 . S
O416 C404 1.239 . S
O417 Cd376 2.330 . S
O417 C404 1.230 . S
O418 Cd377 2.417 . S
O418 C411 1.239 . S
O419 Cd377 2.330 . S
O419 C411 1.230 . S
H420 C406 0.929 . S
H421 C410 0.930 . S
H422 C380 0.931 . S
H423 C382 0.930 . S
H424 C388 0.929 . S
H425 C390 0.931 . S
H426 C397 0.931 . S
H427 C399 0.930 . S
H428 C407 0.929 . S
H429 C409 0.931 . S
Cd430 N433 2.334 . S
Cd430 N459 2.304 1_565 S
Cd430 O466 2.268 . S
Cd430 O469 2.273 1_565 S
Cd430 O470 2.417 . S
Cd430 O471 2.330 . S
Cd431 N446 2.304 . S
Cd431 N450 2.334 1_545 S
Cd431 O467 2.273 1_545 S
Cd431 O468 2.268 . S
Cd431 O472 2.417 . S
Cd431 O473 2.330 . S
C432 N433 1.332 . S
C432 C436 1.381 . S
C432 H438 0.931 . S
N433 Cd430 2.334 . S
N433 C432 1.332 . S
N433 C437 1.328 . S
C434 C435 1.396 . S
C434 C437 1.378 . S
C434 H476 0.931 . S
C435 C434 1.396 . S
C435 C436 1.382 . S
C436 C432 1.381 . S
C436 C435 1.382 . S
C436 H477 0.930 . S
C437 N433 1.328 . S
C437 C434 1.378 . S
C437 H439 0.930 . S
H438 C432 0.931 . S
H439 C437 0.930 . S
C440 O466 1.238 . S
C440 O467 1.253 . S
C441 C442 1.379 . S
C441 N446 1.337 . S
C441 H447 0.929 . S
C442 C441 1.379 . S
C442 C443 1.380 . S
C442 H478 0.929 . S
C443 C442 1.380 . S
C443 C444 1.399 . S
C444 C443 1.399 . S
C444 C445 1.376 . S
C444 H479 0.931 . S
C445 C444 1.376 . S
C445 N446 1.338 . S
C445 H448 0.930 . S
N446 Cd431 2.304 . S
N446 C441 1.337 . S
N446 C445 1.338 . S
H447 C441 0.929 . S
H448 C445 0.930 . S
C449 N450 1.332 . S
C449 C453 1.381 . S
C449 H455 0.931 . S
N450 Cd431 2.334 1_565 S
N450 C449 1.332 . S
N450 C454 1.328 . S
C451 C452 1.396 . S
C451 C454 1.378 . S
C451 H480 0.931 . S
C452 C451 1.396 . S
C452 C453 1.382 . S
C453 C449 1.381 . S
C453 C452 1.382 . S
C453 H481 0.930 . S
C454 N450 1.328 . S
C454 C451 1.378 . S
C454 H456 0.930 1_565 S
H455 C449 0.931 . S
H456 C454 0.930 1_545 S
C457 O468 1.238 . S
C457 O469 1.253 . S
C458 O470 1.239 . S
C458 O471 1.230 . S
N459 Cd430 2.304 1_545 S
N459 C460 1.337 . S
N459 C464 1.338 . S
C460 N459 1.337 . S
C460 C461 1.379 . S
C460 H474 0.929 . S
C461 C460 1.379 . S
C461 C462 1.380 . S
C461 H482 0.929 . S
C462 C461 1.380 . S
C462 C463 1.399 . S
C463 C462 1.399 . S
C463 C464 1.376 . S
C463 H483 0.931 . S
C464 N459 1.338 . S
C464 C463 1.376 . S
C464 H475 0.930 1_545 S
C465 O472 1.239 . S
C465 O473 1.230 . S
O466 Cd430 2.268 . S
O466 C440 1.238 . S
O467 Cd431 2.273 1_565 S
O467 C440 1.253 . S
O468 Cd431 2.268 . S
O468 C457 1.238 . S
O469 Cd430 2.273 1_545 S
O469 C457 1.253 . S
O470 Cd430 2.417 . S
O470 C458 1.239 . S
O471 Cd430 2.330 . S
O471 C458 1.230 . S
O472 Cd431 2.417 . S
O472 C465 1.239 . S
O473 Cd431 2.330 . S
O473 C465 1.230 . S
H474 C460 0.929 . S
H475 C464 0.930 1_565 S
H476 C434 0.931 . S
H477 C436 0.930 . S
H478 C442 0.929 . S
H479 C444 0.931 . S
H480 C451 0.931 . S
H481 C453 0.930 . S
H482 C461 0.929 . S
H483 C463 0.931 . S
C484 C485 1.349 . S
C484 C486 1.327 . S
C484 H509 0.950 . S
C485 C484 1.349 . S
C485 C501 1.349 . S
C486 C484 1.327 . S
C486 C505 1.429 . S
C486 H510 0.950 . S
C487 C504 1.574 . S
C487 C506 1.368 . S
C487 H511 0.949 . S
H488 C492 0.949 . S
C489 C490 1.349 . S
C489 C491 1.327 . S
C489 H512 0.950 . S
C490 C489 1.349 . S
C490 C502 1.349 . S
C491 C489 1.327 . S
C491 C507 1.429 . S
C491 H513 0.950 . S
C492 H488 0.949 . S
C492 C500 1.574 . S
C492 C508 1.368 . S
H493 C501 0.950 . S
H494 C499 0.950 . S
H495 C500 0.949 . S
H496 C502 0.950 . S
H497 C503 0.950 . S
H498 C504 0.949 . S
C499 H494 0.950 . S
C499 C501 1.327 . S
C499 C505 1.429 . S
C500 C492 1.574 . S
C500 H495 0.949 . S
C500 C506 1.368 . S
C501 C485 1.349 . S
C501 H493 0.950 . S
C501 C499 1.327 . S
C502 C490 1.349 . S
C502 H496 0.950 . S
C502 C503 1.327 . S
C503 H497 0.950 . S
C503 C502 1.327 . S
C503 C507 1.429 . S
C504 C487 1.574 . S
C504 H498 0.949 . S
C504 C508 1.368 . S
C505 C486 1.429 . S
C505 C499 1.429 . S
C505 C506 1.523 . S
C506 C487 1.368 . S
C506 C500 1.368 . S
C506 C505 1.523 . S
C507 C491 1.429 . S
C507 C503 1.429 . S
C507 C508 1.523 . S
C508 C492 1.368 . S
C508 C504 1.368 . S
C508 C507 1.523 . S
H509 C484 0.950 . S
H510 C486 0.950 . S
H511 C487 0.949 . S
H512 C489 0.950 . S
H513 C491 0.950 . S
C514 C515 1.349 . S
C514 C516 1.327 . S
C514 H539 0.950 . S
C515 C514 1.349 . S
C515 C531 1.349 . S
C516 C514 1.327 . S
C516 C535 1.429 . S
C516 H540 0.950 . S
C517 C534 1.574 . S
C517 C536 1.368 . S
C517 H541 0.949 . S
H518 C522 0.949 . S
C519 C520 1.349 . S
C519 C521 1.327 . S
C519 H542 0.950 . S
C520 C519 1.349 . S
C520 C532 1.349 . S
C521 C519 1.327 . S
C521 C537 1.429 . S
C521 H543 0.950 . S
C522 H518 0.949 . S
C522 C530 1.574 . S
C522 C538 1.368 . S
H523 C531 0.950 . S
H524 C529 0.950 . S
H525 C530 0.949 . S
H526 C532 0.950 . S
H527 C533 0.950 . S
H528 C534 0.949 . S
C529 H524 0.950 . S
C529 C531 1.327 . S
C529 C535 1.429 . S
C530 C522 1.574 . S
C530 H525 0.949 . S
C530 C536 1.368 . S
C531 C515 1.349 . S
C531 H523 0.950 . S
C531 C529 1.327 . S
C532 C520 1.349 . S
C532 H526 0.950 . S
C532 C533 1.327 . S
C533 H527 0.950 . S
C533 C532 1.327 . S
C533 C537 1.429 . S
C534 C517 1.574 . S
C534 H528 0.949 . S
C534 C538 1.368 . S
C535 C516 1.429 . S
C535 C529 1.429 . S
C535 C536 1.523 . S
C536 C517 1.368 . S
C536 C530 1.368 . S
C536 C535 1.523 . S
C537 C521 1.429 . S
C537 C533 1.429 . S
C537 C538 1.523 . S
C538 C522 1.368 . S
C538 C534 1.368 . S
C538 C537 1.523 . S
H539 C514 0.950 . S
H540 C516 0.950 . S
H541 C517 0.949 . S
H542 C519 0.950 . S
H543 C521 0.950 . S
C544 C545 1.349 . S
C544 C546 1.327 . S
C544 H569 0.950 . S
C545 C544 1.349 . S
C545 C561 1.349 . S
C546 C544 1.327 . S
C546 C565 1.429 . S
C546 H570 0.950 . S
C547 C564 1.574 . S
C547 C566 1.368 . S
C547 H571 0.949 . S
H548 C552 0.949 . S
C549 C550 1.349 . S
C549 C551 1.327 . S
C549 H572 0.950 . S
C550 C549 1.349 . S
C550 C562 1.349 . S
C551 C549 1.327 . S
C551 C567 1.429 . S
C551 H573 0.950 . S
C552 H548 0.949 . S
C552 C560 1.574 . S
C552 C568 1.368 . S
H553 C561 0.950 . S
H554 C559 0.950 . S
H555 C560 0.949 . S
H556 C562 0.950 . S
H557 C563 0.950 . S
H558 C564 0.949 . S
C559 H554 0.950 . S
C559 C561 1.327 . S
C559 C565 1.429 . S
C560 C552 1.574 . S
C560 H555 0.949 . S
C560 C566 1.368 . S
C561 C545 1.349 . S
C561 H553 0.950 . S
C561 C559 1.327 . S
C562 C550 1.349 . S
C562 H556 0.950 . S
C562 C563 1.327 . S
C563 H557 0.950 . S
C563 C562 1.327 . S
C563 C567 1.429 . S
C564 C547 1.574 . S
C564 H558 0.949 . S
C564 C568 1.368 . S
C565 C546 1.429 . S
C565 C559 1.429 . S
C565 C566 1.523 . S
C566 C547 1.368 . S
C566 C560 1.368 . S
C566 C565 1.523 . S
C567 C551 1.429 . S
C567 C563 1.429 . S
C567 C568 1.523 . S
C568 C552 1.368 . S
C568 C564 1.368 . S
C568 C567 1.523 . S
H569 C544 0.950 . S
H570 C546 0.950 . S
H571 C547 0.949 . S
H572 C549 0.950 . S
H573 C551 0.950 . S
C574 C575 1.349 . S
C574 C576 1.327 . S
C574 H599 0.950 . S
C575 C574 1.349 . S
C575 C591 1.349 . S
C576 C574 1.327 . S
C576 C595 1.429 . S
C576 H600 0.950 . S
C577 C594 1.574 . S
C577 C596 1.368 . S
C577 H601 0.949 . S
H578 C582 0.949 . S
C579 C580 1.349 . S
C579 C581 1.327 . S
C579 H602 0.950 . S
C580 C579 1.349 . S
C580 C592 1.349 . S
C581 C579 1.327 . S
C581 C597 1.429 . S
C581 H603 0.950 . S
C582 H578 0.949 . S
C582 C590 1.574 . S
C582 C598 1.368 . S
H583 C591 0.950 . S
H584 C589 0.950 . S
H585 C590 0.949 . S
H586 C592 0.950 . S
H587 C593 0.950 . S
H588 C594 0.949 . S
C589 H584 0.950 . S
C589 C591 1.327 . S
C589 C595 1.429 . S
C590 C582 1.574 . S
C590 H585 0.949 . S
C590 C596 1.368 . S
C591 C575 1.349 . S
C591 H583 0.950 . S
C591 C589 1.327 . S
C592 C580 1.349 . S
C592 H586 0.950 . S
C592 C593 1.327 . S
C593 H587 0.950 . S
C593 C592 1.327 . S
C593 C597 1.429 . S
C594 C577 1.574 . S
C594 H588 0.949 . S
C594 C598 1.368 . S
C595 C576 1.429 . S
C595 C589 1.429 . S
C595 C596 1.523 . S
C596 C577 1.368 . S
C596 C590 1.368 . S
C596 C595 1.523 . S
C597 C581 1.429 . S
C597 C593 1.429 . S
C597 C598 1.523 . S
C598 C582 1.368 . S
C598 C594 1.368 . S
C598 C597 1.523 . S
H599 C574 0.950 . S
H600 C576 0.950 . S
H601 C577 0.949 . S
H602 C579 0.950 . S
H603 C581 0.950 . S
C604 C605 1.349 . S
C604 C606 1.327 . S
C604 H629 0.950 . S
C605 C604 1.349 . S
C605 C621 1.349 . S
C606 C604 1.327 . S
C606 C625 1.429 . S
C606 H630 0.950 . S
C607 C624 1.574 . S
C607 C626 1.368 . S
C607 H631 0.949 . S
H608 C612 0.949 . S
C609 C610 1.349 . S
C609 C611 1.327 . S
C609 H632 0.950 . S
C610 C609 1.349 . S
C610 C622 1.349 . S
C611 C609 1.327 . S
C611 C627 1.429 . S
C611 H633 0.950 . S
C612 H608 0.949 . S
C612 C620 1.574 . S
C612 C628 1.368 . S
H613 C621 0.950 . S
H614 C619 0.950 . S
H615 C620 0.949 . S
H616 C622 0.950 . S
H617 C623 0.950 . S
H618 C624 0.949 . S
C619 H614 0.950 . S
C619 C621 1.327 . S
C619 C625 1.429 . S
C620 C612 1.574 . S
C620 H615 0.949 . S
C620 C626 1.368 . S
C621 C605 1.349 . S
C621 H613 0.950 . S
C621 C619 1.327 . S
C622 C610 1.349 . S
C622 H616 0.950 . S
C622 C623 1.327 . S
C623 H617 0.950 . S
C623 C622 1.327 . S
C623 C627 1.429 . S
C624 C607 1.574 . S
C624 H618 0.949 . S
C624 C628 1.368 . S
C625 C606 1.429 . S
C625 C619 1.429 . S
C625 C626 1.523 . S
C626 C607 1.368 . S
C626 C620 1.368 . S
C626 C625 1.523 . S
C627 C611 1.429 . S
C627 C623 1.429 . S
C627 C628 1.523 . S
C628 C612 1.368 . S
C628 C624 1.368 . S
C628 C627 1.523 . S
H629 C604 0.950 . S
H630 C606 0.950 . S
H631 C607 0.949 . S
H632 C609 0.950 . S
H633 C611 0.950 . S
C634 C635 1.349 . S
C634 C636 1.327 . S
C634 H659 0.950 . S
C635 C634 1.349 . S
C635 C651 1.349 . S
C636 C634 1.327 . S
C636 C655 1.429 . S
C636 H660 0.950 . S
C637 C654 1.574 . S
C637 C656 1.368 . S
C637 H661 0.949 . S
H638 C642 0.949 . S
C639 C640 1.349 . S
C639 C641 1.327 . S
C639 H662 0.950 . S
C640 C639 1.349 . S
C640 C652 1.349 . S
C641 C639 1.327 . S
C641 C657 1.429 . S
C641 H663 0.950 . S
C642 H638 0.949 . S
C642 C650 1.574 . S
C642 C658 1.368 . S
H643 C651 0.950 . S
H644 C649 0.950 . S
H645 C650 0.949 . S
H646 C652 0.950 . S
H647 C653 0.950 . S
H648 C654 0.949 . S
C649 H644 0.950 . S
C649 C651 1.327 . S
C649 C655 1.429 . S
C650 C642 1.574 . S
C650 H645 0.949 . S
C650 C656 1.368 . S
C651 C635 1.349 . S
C651 H643 0.950 . S
C651 C649 1.327 . S
C652 C640 1.349 . S
C652 H646 0.950 . S
C652 C653 1.327 . S
C653 H647 0.950 . S
C653 C652 1.327 . S
C653 C657 1.429 . S
C654 C637 1.574 . S
C654 H648 0.949 . S
C654 C658 1.368 . S
C655 C636 1.429 . S
C655 C649 1.429 . S
C655 C656 1.523 . S
C656 C637 1.368 . S
C656 C650 1.368 . S
C656 C655 1.523 . S
C657 C641 1.429 . S
C657 C653 1.429 . S
C657 C658 1.523 . S
C658 C642 1.368 . S
C658 C654 1.368 . S
C658 C657 1.523 . S
H659 C634 0.950 . S
H660 C636 0.950 . S
H661 C637 0.949 . S
H662 C639 0.950 . S
H663 C641 0.950 . S
C664 C665 1.349 . S
C664 C666 1.327 . S
C664 H689 0.950 . S
C665 C664 1.349 . S
C665 C681 1.349 . S
C666 C664 1.327 . S
C666 C685 1.429 . S
C666 H690 0.950 . S
C667 C684 1.574 . S
C667 C686 1.368 . S
C667 H691 0.949 . S
H668 C672 0.949 . S
C669 C670 1.349 . S
C669 C671 1.327 . S
C669 H692 0.950 . S
C670 C669 1.349 . S
C670 C682 1.349 . S
C671 C669 1.327 . S
C671 C687 1.429 . S
C671 H693 0.950 . S
C672 H668 0.949 . S
C672 C680 1.574 . S
C672 C688 1.368 . S
H673 C681 0.950 . S
H674 C679 0.950 . S
H675 C680 0.949 . S
H676 C682 0.950 . S
H677 C683 0.950 . S
H678 C684 0.949 . S
C679 H674 0.950 . S
C679 C681 1.327 . S
C679 C685 1.429 . S
C680 C672 1.574 . S
C680 H675 0.949 . S
C680 C686 1.368 . S
C681 C665 1.349 . S
C681 H673 0.950 . S
C681 C679 1.327 . S
C682 C670 1.349 . S
C682 H676 0.950 . S
C682 C683 1.327 . S
C683 H677 0.950 . S
C683 C682 1.327 . S
C683 C687 1.429 . S
C684 C667 1.574 . S
C684 H678 0.949 . S
C684 C688 1.368 . S
C685 C666 1.429 . S
C685 C679 1.429 . S
C685 C686 1.523 . S
C686 C667 1.368 . S
C686 C680 1.368 . S
C686 C685 1.523 . S
C687 C671 1.429 . S
C687 C683 1.429 . S
C687 C688 1.523 . S
C688 C672 1.368 . S
C688 C684 1.368 . S
C688 C687 1.523 . S
H689 C664 0.950 . S
H690 C666 0.950 . S
H691 C667 0.949 . S
H692 C669 0.950 . S
H693 C671 0.950 . S
C694 C695 1.349 . S
C694 C696 1.327 . S
C694 H719 0.950 . S
C695 C694 1.349 . S
C695 C711 1.349 . S
C696 C694 1.327 . S
C696 C715 1.429 . S
C696 H720 0.950 . S
C697 C714 1.574 . S
C697 C716 1.368 . S
C697 H721 0.949 . S
H698 C702 0.949 . S
C699 C700 1.349 . S
C699 C701 1.327 . S
C699 H722 0.950 . S
C700 C699 1.349 . S
C700 C712 1.349 . S
C701 C699 1.327 . S
C701 C717 1.429 . S
C701 H723 0.950 . S
C702 H698 0.949 . S
C702 C710 1.574 . S
C702 C718 1.368 . S
H703 C711 0.950 . S
H704 C709 0.950 . S
H705 C710 0.949 . S
H706 C712 0.950 . S
H707 C713 0.950 . S
H708 C714 0.949 . S
C709 H704 0.950 . S
C709 C711 1.327 . S
C709 C715 1.429 . S
C710 C702 1.574 . S
C710 H705 0.949 . S
C710 C716 1.368 . S
C711 C695 1.349 . S
C711 H703 0.950 . S
C711 C709 1.327 . S
C712 C700 1.349 . S
C712 H706 0.950 . S
C712 C713 1.327 . S
C713 H707 0.950 . S
C713 C712 1.327 . S
C713 C717 1.429 . S
C714 C697 1.574 . S
C714 H708 0.949 . S
C714 C718 1.368 . S
C715 C696 1.429 . S
C715 C709 1.429 . S
C715 C716 1.523 . S
C716 C697 1.368 . S
C716 C710 1.368 . S
C716 C715 1.523 . S
C717 C701 1.429 . S
C717 C713 1.429 . S
C717 C718 1.523 . S
C718 C702 1.368 . S
C718 C714 1.368 . S
C718 C717 1.523 . S
H719 C694 0.950 . S
H720 C696 0.950 . S
H721 C697 0.949 . S
H722 C699 0.950 . S
H723 C701 0.950 . S
C724 C725 1.349 . S
C724 C726 1.327 . S
C724 H749 0.950 . S
C725 C724 1.349 . S
C725 C741 1.349 . S
C726 C724 1.327 . S
C726 C745 1.429 . S
C726 H750 0.950 . S
C727 C744 1.574 . S
C727 C746 1.368 . S
C727 H751 0.949 . S
H728 C732 0.949 . S
C729 C730 1.349 . S
C729 C731 1.327 . S
C729 H752 0.950 . S
C730 C729 1.349 . S
C730 C742 1.349 . S
C731 C729 1.327 . S
C731 C747 1.429 . S
C731 H753 0.950 . S
C732 H728 0.949 . S
C732 C740 1.574 . S
C732 C748 1.368 . S
H733 C741 0.950 . S
H734 C739 0.950 . S
H735 C740 0.949 . S
H736 C742 0.950 . S
H737 C743 0.950 . S
H738 C744 0.949 . S
C739 H734 0.950 . S
C739 C741 1.327 . S
C739 C745 1.429 . S
C740 C732 1.574 . S
C740 H735 0.949 . S
C740 C746 1.368 . S
C741 C725 1.349 . S
C741 H733 0.950 . S
C741 C739 1.327 . S
C742 C730 1.349 . S
C742 H736 0.950 . S
C742 C743 1.327 . S
C743 H737 0.950 . S
C743 C742 1.327 . S
C743 C747 1.429 . S
C744 C727 1.574 . S
C744 H738 0.949 . S
C744 C748 1.368 . S
C745 C726 1.429 . S
C745 C739 1.429 . S
C745 C746 1.523 . S
C746 C727 1.368 . S
C746 C740 1.368 . S
C746 C745 1.523 . S
C747 C731 1.429 . S
C747 C743 1.429 . S
C747 C748 1.523 . S
C748 C732 1.368 . S
C748 C744 1.368 . S
C748 C747 1.523 . S
H749 C724 0.950 . S
H750 C726 0.950 . S
H751 C727 0.949 . S
H752 C729 0.950 . S
H753 C731 0.950 . S
C754 C755 1.349 . S
C754 C756 1.327 . S
C754 H779 0.950 . S
C755 C754 1.349 . S
C755 C771 1.349 . S
C756 C754 1.327 . S
C756 C775 1.429 . S
C756 H780 0.950 . S
C757 C774 1.574 . S
C757 C776 1.368 . S
C757 H781 0.949 . S
H758 C762 0.949 . S
C759 C760 1.349 . S
C759 C761 1.327 . S
C759 H782 0.950 . S
C760 C759 1.349 . S
C760 C772 1.349 . S
C761 C759 1.327 . S
C761 C777 1.429 . S
C761 H783 0.950 . S
C762 H758 0.949 . S
C762 C770 1.574 . S
C762 C778 1.368 . S
H763 C771 0.950 . S
H764 C769 0.950 . S
H765 C770 0.949 . S
H766 C772 0.950 . S
H767 C773 0.950 . S
H768 C774 0.949 . S
C769 H764 0.950 . S
C769 C771 1.327 . S
C769 C775 1.429 . S
C770 C762 1.574 . S
C770 H765 0.949 . S
C770 C776 1.368 . S
C771 C755 1.349 . S
C771 H763 0.950 . S
C771 C769 1.327 . S
C772 C760 1.349 . S
C772 H766 0.950 . S
C772 C773 1.327 . S
C773 H767 0.950 . S
C773 C772 1.327 . S
C773 C777 1.429 . S
C774 C757 1.574 . S
C774 H768 0.949 . S
C774 C778 1.368 . S
C775 C756 1.429 . S
C775 C769 1.429 . S
C775 C776 1.523 . S
C776 C757 1.368 . S
C776 C770 1.368 . S
C776 C775 1.523 . S
C777 C761 1.429 . S
C777 C773 1.429 . S
C777 C778 1.523 . S
C778 C762 1.368 . S
C778 C774 1.368 . S
C778 C777 1.523 . S
H779 C754 0.950 . S
H780 C756 0.950 . S
H781 C757 0.949 . S
H782 C759 0.950 . S
H783 C761 0.950 . S
C784 C785 1.349 . S
C784 C786 1.327 . S
C784 H809 0.950 . S
C785 C784 1.349 . S
C785 C801 1.349 . S
C786 C784 1.327 . S
C786 C805 1.429 . S
C786 H810 0.950 . S
C787 C804 1.574 . S
C787 C806 1.368 . S
C787 H811 0.949 . S
H788 C792 0.949 . S
C789 C790 1.349 . S
C789 C791 1.327 . S
C789 H812 0.950 . S
C790 C789 1.349 . S
C790 C802 1.349 . S
C791 C789 1.327 . S
C791 C807 1.429 . S
C791 H813 0.950 . S
C792 H788 0.949 . S
C792 C800 1.574 . S
C792 C808 1.368 . S
H793 C801 0.950 . S
H794 C799 0.950 . S
H795 C800 0.949 . S
H796 C802 0.950 . S
H797 C803 0.950 . S
H798 C804 0.949 . S
C799 H794 0.950 . S
C799 C801 1.327 . S
C799 C805 1.429 . S
C800 C792 1.574 . S
C800 H795 0.949 . S
C800 C806 1.368 . S
C801 C785 1.349 . S
C801 H793 0.950 . S
C801 C799 1.327 . S
C802 C790 1.349 . S
C802 H796 0.950 . S
C802 C803 1.327 . S
C803 H797 0.950 . S
C803 C802 1.327 . S
C803 C807 1.429 . S
C804 C787 1.574 . S
C804 H798 0.949 . S
C804 C808 1.368 . S
C805 C786 1.429 . S
C805 C799 1.429 . S
C805 C806 1.523 . S
C806 C787 1.368 . S
C806 C800 1.368 . S
C806 C805 1.523 . S
C807 C791 1.429 . S
C807 C803 1.429 . S
C807 C808 1.523 . S
C808 C792 1.368 . S
C808 C804 1.368 . S
C808 C807 1.523 . S
H809 C784 0.950 . S
H810 C786 0.950 . S
H811 C787 0.949 . S
H812 C789 0.950 . S
H813 C791 0.950 . S
C814 C815 1.349 . S
C814 C816 1.327 . S
C814 H839 0.950 . S
C815 C814 1.349 . S
C815 C831 1.349 . S
C816 C814 1.327 . S
C816 C835 1.429 . S
C816 H840 0.950 . S
C817 C834 1.574 . S
C817 C836 1.368 . S
C817 H841 0.949 . S
H818 C822 0.949 . S
C819 C820 1.349 . S
C819 C821 1.327 . S
C819 H842 0.950 . S
C820 C819 1.349 . S
C820 C832 1.349 . S
C821 C819 1.327 . S
C821 C837 1.429 . S
C821 H843 0.950 . S
C822 H818 0.949 . S
C822 C830 1.574 . S
C822 C838 1.368 . S
H823 C831 0.950 . S
H824 C829 0.950 . S
H825 C830 0.949 . S
H826 C832 0.950 . S
H827 C833 0.950 . S
H828 C834 0.949 . S
C829 H824 0.950 . S
C829 C831 1.327 . S
C829 C835 1.429 . S
C830 C822 1.574 . S
C830 H825 0.949 . S
C830 C836 1.368 . S
C831 C815 1.349 . S
C831 H823 0.950 . S
C831 C829 1.327 . S
C832 C820 1.349 . S
C832 H826 0.950 . S
C832 C833 1.327 . S
C833 H827 0.950 . S
C833 C832 1.327 . S
C833 C837 1.429 . S
C834 C817 1.574 . S
C834 H828 0.949 . S
C834 C838 1.368 . S
C835 C816 1.429 . S
C835 C829 1.429 . S
C835 C836 1.523 . S
C836 C817 1.368 . S
C836 C830 1.368 . S
C836 C835 1.523 . S
C837 C821 1.429 . S
C837 C833 1.429 . S
C837 C838 1.523 . S
C838 C822 1.368 . S
C838 C834 1.368 . S
C838 C837 1.523 . S
H839 C814 0.950 . S
H840 C816 0.950 . S
H841 C817 0.949 . S
H842 C819 0.950 . S
H843 C821 0.950 . S
C844 C845 1.349 . S
C844 C846 1.327 . S
C844 H869 0.950 . S
C845 C844 1.349 . S
C845 C861 1.349 . S
C846 C844 1.327 . S
C846 C865 1.429 . S
C846 H870 0.950 . S
C847 C864 1.574 . S
C847 C866 1.368 . S
C847 H871 0.949 . S
H848 C852 0.949 . S
C849 C850 1.349 . S
C849 C851 1.327 . S
C849 H872 0.950 . S
C850 C849 1.349 . S
C850 C862 1.349 . S
C851 C849 1.327 . S
C851 C867 1.429 . S
C851 H873 0.950 . S
C852 H848 0.949 . S
C852 C860 1.574 . S
C852 C868 1.368 . S
H853 C861 0.950 . S
H854 C859 0.950 . S
H855 C860 0.949 . S
H856 C862 0.950 . S
H857 C863 0.950 . S
H858 C864 0.949 . S
C859 H854 0.950 . S
C859 C861 1.327 . S
C859 C865 1.429 . S
C860 C852 1.574 . S
C860 H855 0.949 . S
C860 C866 1.368 . S
C861 C845 1.349 . S
C861 H853 0.950 . S
C861 C859 1.327 . S
C862 C850 1.349 . S
C862 H856 0.950 . S
C862 C863 1.327 . S
C863 H857 0.950 . S
C863 C862 1.327 . S
C863 C867 1.429 . S
C864 C847 1.574 . S
C864 H858 0.949 . S
C864 C868 1.368 . S
C865 C846 1.429 . S
C865 C859 1.429 . S
C865 C866 1.523 . S
C866 C847 1.368 . S
C866 C860 1.368 . S
C866 C865 1.523 . S
C867 C851 1.429 . S
C867 C863 1.429 . S
C867 C868 1.523 . S
C868 C852 1.368 . S
C868 C864 1.368 . S
C868 C867 1.523 . S
H869 C844 0.950 . S
H870 C846 0.950 . S
H871 C847 0.949 . S
H872 C849 0.950 . S
H873 C851 0.950 . S
C874 C875 1.349 . S
C874 C876 1.327 . S
C874 H899 0.950 . S
C875 C874 1.349 . S
C875 C891 1.349 . S
C876 C874 1.327 . S
C876 C895 1.429 . S
C876 H900 0.950 . S
C877 C894 1.574 . S
C877 C896 1.368 . S
C877 H901 0.949 . S
H878 C882 0.949 . S
C879 C880 1.349 . S
C879 C881 1.327 . S
C879 H902 0.950 . S
C880 C879 1.349 . S
C880 C892 1.349 . S
C881 C879 1.327 . S
C881 C897 1.429 . S
C881 H903 0.950 . S
C882 H878 0.949 . S
C882 C890 1.574 . S
C882 C898 1.368 . S
H883 C891 0.950 . S
H884 C889 0.950 . S
H885 C890 0.949 . S
H886 C892 0.950 . S
H887 C893 0.950 . S
H888 C894 0.949 . S
C889 H884 0.950 . S
C889 C891 1.327 . S
C889 C895 1.429 . S
C890 C882 1.574 . S
C890 H885 0.949 . S
C890 C896 1.368 . S
C891 C875 1.349 . S
C891 H883 0.950 . S
C891 C889 1.327 . S
C892 C880 1.349 . S
C892 H886 0.950 . S
C892 C893 1.327 . S
C893 H887 0.950 . S
C893 C892 1.327 . S
C893 C897 1.429 . S
C894 C877 1.574 . S
C894 H888 0.949 . S
C894 C898 1.368 . S
C895 C876 1.429 . S
C895 C889 1.429 . S
C895 C896 1.523 . S
C896 C877 1.368 . S
C896 C890 1.368 . S
C896 C895 1.523 . S
C897 C881 1.429 . S
C897 C893 1.429 . S
C897 C898 1.523 . S
C898 C882 1.368 . S
C898 C894 1.368 . S
C898 C897 1.523 . S
H899 C874 0.950 . S
H900 C876 0.950 . S
H901 C877 0.949 . S
H902 C879 0.950 . S
H903 C881 0.950 . S
C904 C905 1.349 . S
C904 C906 1.327 . S
C904 H929 0.950 . S
C905 C904 1.349 . S
C905 C921 1.349 . S
C906 C904 1.327 . S
C906 C925 1.429 . S
C906 H930 0.950 . S
C907 C924 1.574 . S
C907 C926 1.368 . S
C907 H931 0.949 . S
H908 C912 0.949 . S
C909 C910 1.349 . S
C909 C911 1.327 . S
C909 H932 0.950 . S
C910 C909 1.349 . S
C910 C922 1.349 . S
C911 C909 1.327 . S
C911 C927 1.429 . S
C911 H933 0.950 . S
C912 H908 0.949 . S
C912 C920 1.574 . S
C912 C928 1.368 . S
H913 C921 0.950 . S
H914 C919 0.950 . S
H915 C920 0.949 . S
H916 C922 0.950 . S
H917 C923 0.950 . S
H918 C924 0.949 . S
C919 H914 0.950 . S
C919 C921 1.327 . S
C919 C925 1.429 . S
C920 C912 1.574 . S
C920 H915 0.949 . S
C920 C926 1.368 . S
C921 C905 1.349 . S
C921 H913 0.950 . S
C921 C919 1.327 . S
C922 C910 1.349 . S
C922 H916 0.950 . S
C922 C923 1.327 . S
C923 H917 0.950 . S
C923 C922 1.327 . S
C923 C927 1.429 . S
C924 C907 1.574 . S
C924 H918 0.949 . S
C924 C928 1.368 . S
C925 C906 1.429 . S
C925 C919 1.429 . S
C925 C926 1.523 . S
C926 C907 1.368 . S
C926 C920 1.368 . S
C926 C925 1.523 . S
C927 C911 1.429 . S
C927 C923 1.429 . S
C927 C928 1.523 . S
C928 C912 1.368 . S
C928 C924 1.368 . S
C928 C927 1.523 . S
H929 C904 0.950 . S
H930 C906 0.950 . S
H931 C907 0.949 . S
H932 C909 0.950 . S
H933 C911 0.950 . S
C934 C935 1.349 . S
C934 C936 1.327 . S
C934 H959 0.950 . S
C935 C934 1.349 . S
C935 C951 1.349 . S
C936 C934 1.327 . S
C936 C955 1.429 . S
C936 H960 0.950 . S
C937 C954 1.574 . S
C937 C956 1.368 . S
C937 H961 0.949 . S
H938 C942 0.949 . S
C939 C940 1.349 . S
C939 C941 1.327 . S
C939 H962 0.950 . S
C940 C939 1.349 . S
C940 C952 1.349 . S
C941 C939 1.327 . S
C941 C957 1.429 . S
C941 H963 0.950 . S
C942 H938 0.949 . S
C942 C950 1.574 . S
C942 C958 1.368 . S
H943 C951 0.950 . S
H944 C949 0.950 . S
H945 C950 0.949 . S
H946 C952 0.950 . S
H947 C953 0.950 . S
H948 C954 0.949 . S
C949 H944 0.950 . S
C949 C951 1.327 . S
C949 C955 1.429 . S
C950 C942 1.574 . S
C950 H945 0.949 . S
C950 C956 1.368 . S
C951 C935 1.349 . S
C951 H943 0.950 . S
C951 C949 1.327 . S
C952 C940 1.349 . S
C952 H946 0.950 . S
C952 C953 1.327 . S
C953 H947 0.950 . S
C953 C952 1.327 . S
C953 C957 1.429 . S
C954 C937 1.574 . S
C954 H948 0.949 . S
C954 C958 1.368 . S
C955 C936 1.429 . S
C955 C949 1.429 . S
C955 C956 1.523 . S
C956 C937 1.368 . S
C956 C950 1.368 . S
C956 C955 1.523 . S
C957 C941 1.429 . S
C957 C953 1.429 . S
C957 C958 1.523 . S
C958 C942 1.368 . S
C958 C954 1.368 . S
C958 C957 1.523 . S
H959 C934 0.950 . S
H960 C936 0.950 . S
H961 C937 0.949 . S
H962 C939 0.950 . S
H963 C941 0.950 . S
C964 C965 1.349 . S
C964 C966 1.327 . S
C964 H989 0.950 . S
C965 C964 1.349 . S
C965 C981 1.349 . S
C966 C964 1.327 . S
C966 C985 1.429 . S
C966 H990 0.950 . S
C967 C984 1.574 . S
C967 C986 1.368 . S
C967 H991 0.949 . S
H968 C972 0.949 . S
C969 C970 1.349 . S
C969 C971 1.327 . S
C969 H992 0.950 . S
C970 C969 1.349 . S
C970 C982 1.349 . S
C971 C969 1.327 . S
C971 C987 1.429 . S
C971 H993 0.950 . S
C972 H968 0.949 . S
C972 C980 1.574 . S
C972 C988 1.368 . S
H973 C981 0.950 . S
H974 C979 0.950 . S
H975 C980 0.949 . S
H976 C982 0.950 . S
H977 C983 0.950 . S
H978 C984 0.949 . S
C979 H974 0.950 . S
C979 C981 1.327 . S
C979 C985 1.429 . S
C980 C972 1.574 . S
C980 H975 0.949 . S
C980 C986 1.368 . S
C981 C965 1.349 . S
C981 H973 0.950 . S
C981 C979 1.327 . S
C982 C970 1.349 . S
C982 H976 0.950 . S
C982 C983 1.327 . S
C983 H977 0.950 . S
C983 C982 1.327 . S
C983 C987 1.429 . S
C984 C967 1.574 . S
C984 H978 0.949 . S
C984 C988 1.368 . S
C985 C966 1.429 . S
C985 C979 1.429 . S
C985 C986 1.523 . S
C986 C967 1.368 . S
C986 C980 1.368 . S
C986 C985 1.523 . S
C987 C971 1.429 . S
C987 C983 1.429 . S
C987 C988 1.523 . S
C988 C972 1.368 . S
C988 C984 1.368 . S
C988 C987 1.523 . S
H989 C964 0.950 . S
H990 C966 0.950 . S
H991 C967 0.949 . S
H992 C969 0.950 . S
H993 C971 0.950 . S
C994 C995 1.349 . S
C994 C996 1.327 . S
C994 H1019 0.950 . S
C995 C994 1.349 . S
C995 C1011 1.349 . S
C996 C994 1.327 . S
C996 C1015 1.429 . S
C996 H1020 0.950 . S
C997 C1014 1.574 . S
C997 C1016 1.368 . S
C997 H1021 0.949 . S
H998 C1002 0.949 . S
C999 C1000 1.349 . S
C999 C1001 1.327 . S
C999 H1022 0.950 . S
C1000 C999 1.349 . S
C1000 C1012 1.349 . S
C1001 C999 1.327 . S
C1001 C1017 1.429 . S
C1001 H1023 0.950 . S
C1002 H998 0.949 . S
C1002 C1010 1.574 . S
C1002 C1018 1.368 . S
H1003 C1011 0.950 . S
H1004 C1009 0.950 . S
H1005 C1010 0.949 . S
H1006 C1012 0.950 . S
H1007 C1013 0.950 . S
H1008 C1014 0.949 . S
C1009 H1004 0.950 . S
C1009 C1011 1.327 . S
C1009 C1015 1.429 . S
C1010 C1002 1.574 . S
C1010 H1005 0.949 . S
C1010 C1016 1.368 . S
C1011 C995 1.349 . S
C1011 H1003 0.950 . S
C1011 C1009 1.327 . S
C1012 C1000 1.349 . S
C1012 H1006 0.950 . S
C1012 C1013 1.327 . S
C1013 H1007 0.950 . S
C1013 C1012 1.327 . S
C1013 C1017 1.429 . S
C1014 C997 1.574 . S
C1014 H1008 0.949 . S
C1014 C1018 1.368 . S
C1015 C996 1.429 . S
C1015 C1009 1.429 . S
C1015 C1016 1.523 . S
C1016 C997 1.368 . S
C1016 C1010 1.368 . S
C1016 C1015 1.523 . S
C1017 C1001 1.429 . S
C1017 C1013 1.429 . S
C1017 C1018 1.523 . S
C1018 C1002 1.368 . S
C1018 C1014 1.368 . S
C1018 C1017 1.523 . S
H1019 C994 0.950 . S
H1020 C996 0.950 . S
H1021 C997 0.949 . S
H1022 C999 0.950 . S
H1023 C1001 0.950 . S
C1024 C1025 1.349 . S
C1024 C1026 1.327 . S
C1024 H1049 0.950 . S
C1025 C1024 1.349 . S
C1025 C1041 1.349 . S
C1026 C1024 1.327 . S
C1026 C1045 1.429 . S
C1026 H1050 0.950 . S
C1027 C1044 1.574 . S
C1027 C1046 1.368 . S
C1027 H1051 0.949 . S
H1028 C1032 0.949 . S
C1029 C1030 1.349 . S
C1029 C1031 1.327 . S
C1029 H1052 0.950 . S
C1030 C1029 1.349 . S
C1030 C1042 1.349 . S
C1031 C1029 1.327 . S
C1031 C1047 1.429 . S
C1031 H1053 0.950 . S
C1032 H1028 0.949 . S
C1032 C1040 1.574 . S
C1032 C1048 1.368 . S
H1033 C1041 0.950 . S
H1034 C1039 0.950 . S
H1035 C1040 0.949 . S
H1036 C1042 0.950 . S
H1037 C1043 0.950 . S
H1038 C1044 0.949 . S
C1039 H1034 0.950 . S
C1039 C1041 1.327 . S
C1039 C1045 1.429 . S
C1040 C1032 1.574 . S
C1040 H1035 0.949 . S
C1040 C1046 1.368 . S
C1041 C1025 1.349 . S
C1041 H1033 0.950 . S
C1041 C1039 1.327 . S
C1042 C1030 1.349 . S
C1042 H1036 0.950 . S
C1042 C1043 1.327 . S
C1043 H1037 0.950 . S
C1043 C1042 1.327 . S
C1043 C1047 1.429 . S
C1044 C1027 1.574 . S
C1044 H1038 0.949 . S
C1044 C1048 1.368 . S
C1045 C1026 1.429 . S
C1045 C1039 1.429 . S
C1045 C1046 1.523 . S
C1046 C1027 1.368 . S
C1046 C1040 1.368 . S
C1046 C1045 1.523 . S
C1047 C1031 1.429 . S
C1047 C1043 1.429 . S
C1047 C1048 1.523 . S
C1048 C1032 1.368 . S
C1048 C1044 1.368 . S
C1048 C1047 1.523 . S
H1049 C1024 0.950 . S
H1050 C1026 0.950 . S
H1051 C1027 0.949 . S
H1052 C1029 0.950 . S
H1053 C1031 0.950 . S
C1054 C1055 1.349 . S
C1054 C1056 1.327 . S
C1054 H1079 0.950 . S
C1055 C1054 1.349 . S
C1055 C1071 1.349 . S
C1056 C1054 1.327 . S
C1056 C1075 1.429 . S
C1056 H1080 0.950 . S
C1057 C1074 1.574 . S
C1057 C1076 1.368 . S
C1057 H1081 0.949 . S
H1058 C1062 0.949 . S
C1059 C1060 1.349 . S
C1059 C1061 1.327 . S
C1059 H1082 0.950 . S
C1060 C1059 1.349 . S
C1060 C1072 1.349 . S
C1061 C1059 1.327 . S
C1061 C1077 1.429 . S
C1061 H1083 0.950 . S
C1062 H1058 0.949 . S
C1062 C1070 1.574 . S
C1062 C1078 1.368 . S
H1063 C1071 0.950 . S
H1064 C1069 0.950 . S
H1065 C1070 0.949 . S
H1066 C1072 0.950 . S
H1067 C1073 0.950 . S
H1068 C1074 0.949 . S
C1069 H1064 0.950 . S
C1069 C1071 1.327 . S
C1069 C1075 1.429 . S
C1070 C1062 1.574 . S
C1070 H1065 0.949 . S
C1070 C1076 1.368 . S
C1071 C1055 1.349 . S
C1071 H1063 0.950 . S
C1071 C1069 1.327 . S
C1072 C1060 1.349 . S
C1072 H1066 0.950 . S
C1072 C1073 1.327 . S
C1073 H1067 0.950 . S
C1073 C1072 1.327 . S
C1073 C1077 1.429 . S
C1074 C1057 1.574 . S
C1074 H1068 0.949 . S
C1074 C1078 1.368 . S
C1075 C1056 1.429 . S
C1075 C1069 1.429 . S
C1075 C1076 1.523 . S
C1076 C1057 1.368 . S
C1076 C1070 1.368 . S
C1076 C1075 1.523 . S
C1077 C1061 1.429 . S
C1077 C1073 1.429 . S
C1077 C1078 1.523 . S
C1078 C1062 1.368 . S
C1078 C1074 1.368 . S
C1078 C1077 1.523 . S
H1079 C1054 0.950 . S
H1080 C1056 0.950 . S
H1081 C1057 0.949 . S
H1082 C1059 0.950 . S
H1083 C1061 0.950 . S
C1084 C1085 1.349 . S
C1084 C1086 1.327 . S
C1084 H1109 0.950 . S
C1085 C1084 1.349 . S
C1085 C1101 1.349 . S
C1086 C1084 1.327 . S
C1086 C1105 1.429 . S
C1086 H1110 0.950 . S
C1087 C1104 1.574 . S
C1087 C1106 1.368 . S
C1087 H1111 0.949 . S
H1088 C1092 0.949 . S
C1089 C1090 1.349 . S
C1089 C1091 1.327 . S
C1089 H1112 0.950 . S
C1090 C1089 1.349 . S
C1090 C1102 1.349 . S
C1091 C1089 1.327 . S
C1091 C1107 1.429 . S
C1091 H1113 0.950 . S
C1092 H1088 0.949 . S
C1092 C1100 1.574 . S
C1092 C1108 1.368 . S
H1093 C1101 0.950 . S
H1094 C1099 0.950 . S
H1095 C1100 0.949 . S
H1096 C1102 0.950 . S
H1097 C1103 0.950 . S
H1098 C1104 0.949 . S
C1099 H1094 0.950 . S
C1099 C1101 1.327 . S
C1099 C1105 1.429 . S
C1100 C1092 1.574 . S
C1100 H1095 0.949 . S
C1100 C1106 1.368 . S
C1101 C1085 1.349 . S
C1101 H1093 0.950 . S
C1101 C1099 1.327 . S
C1102 C1090 1.349 . S
C1102 H1096 0.950 . S
C1102 C1103 1.327 . S
C1103 H1097 0.950 . S
C1103 C1102 1.327 . S
C1103 C1107 1.429 . S
C1104 C1087 1.574 . S
C1104 H1098 0.949 . S
C1104 C1108 1.368 . S
C1105 C1086 1.429 . S
C1105 C1099 1.429 . S
C1105 C1106 1.523 . S
C1106 C1087 1.368 . S
C1106 C1100 1.368 . S
C1106 C1105 1.523 . S
C1107 C1091 1.429 . S
C1107 C1103 1.429 . S
C1107 C1108 1.523 . S
C1108 C1092 1.368 . S
C1108 C1104 1.368 . S
C1108 C1107 1.523 . S
H1109 C1084 0.950 . S
H1110 C1086 0.950 . S
H1111 C1087 0.949 . S
H1112 C1089 0.950 . S
H1113 C1091 0.950 . S
C1114 C1115 1.349 . S
C1114 C1116 1.327 . S
C1114 H1139 0.950 . S
C1115 C1114 1.349 . S
C1115 C1131 1.349 . S
C1116 C1114 1.327 . S
C1116 C1135 1.429 . S
C1116 H1140 0.950 . S
C1117 C1134 1.574 . S
C1117 C1136 1.368 . S
C1117 H1141 0.949 . S
H1118 C1122 0.949 . S
C1119 C1120 1.349 . S
C1119 C1121 1.327 . S
C1119 H1142 0.950 . S
C1120 C1119 1.349 . S
C1120 C1132 1.349 . S
C1121 C1119 1.327 . S
C1121 C1137 1.429 . S
C1121 H1143 0.950 . S
C1122 H1118 0.949 . S
C1122 C1130 1.574 . S
C1122 C1138 1.368 . S
H1123 C1131 0.950 . S
H1124 C1129 0.950 . S
H1125 C1130 0.949 . S
H1126 C1132 0.950 . S
H1127 C1133 0.950 . S
H1128 C1134 0.949 . S
C1129 H1124 0.950 . S
C1129 C1131 1.327 . S
C1129 C1135 1.429 . S
C1130 C1122 1.574 . S
C1130 H1125 0.949 . S
C1130 C1136 1.368 . S
C1131 C1115 1.349 . S
C1131 H1123 0.950 . S
C1131 C1129 1.327 . S
C1132 C1120 1.349 . S
C1132 H1126 0.950 . S
C1132 C1133 1.327 . S
C1133 H1127 0.950 . S
C1133 C1132 1.327 . S
C1133 C1137 1.429 . S
C1134 C1117 1.574 . S
C1134 H1128 0.949 . S
C1134 C1138 1.368 . S
C1135 C1116 1.429 . S
C1135 C1129 1.429 . S
C1135 C1136 1.523 . S
C1136 C1117 1.368 . S
C1136 C1130 1.368 . S
C1136 C1135 1.523 . S
C1137 C1121 1.429 . S
C1137 C1133 1.429 . S
C1137 C1138 1.523 . S
C1138 C1122 1.368 . S
C1138 C1134 1.368 . S
C1138 C1137 1.523 . S
H1139 C1114 0.950 . S
H1140 C1116 0.950 . S
H1141 C1117 0.949 . S
H1142 C1119 0.950 . S
H1143 C1121 0.950 . S
C1144 C1145 1.349 . S
C1144 C1146 1.327 . S
C1144 H1169 0.950 . S
C1145 C1144 1.349 . S
C1145 C1161 1.349 . S
C1146 C1144 1.327 . S
C1146 C1165 1.429 . S
C1146 H1170 0.950 . S
C1147 C1164 1.574 . S
C1147 C1166 1.368 . S
C1147 H1171 0.949 . S
H1148 C1152 0.949 . S
C1149 C1150 1.349 . S
C1149 C1151 1.327 . S
C1149 H1172 0.950 . S
C1150 C1149 1.349 . S
C1150 C1162 1.349 . S
C1151 C1149 1.327 . S
C1151 C1167 1.429 . S
C1151 H1173 0.950 . S
C1152 H1148 0.949 . S
C1152 C1160 1.574 . S
C1152 C1168 1.368 . S
H1153 C1161 0.950 . S
H1154 C1159 0.950 . S
H1155 C1160 0.949 . S
H1156 C1162 0.950 . S
H1157 C1163 0.950 . S
H1158 C1164 0.949 . S
C1159 H1154 0.950 . S
C1159 C1161 1.327 . S
C1159 C1165 1.429 . S
C1160 C1152 1.574 . S
C1160 H1155 0.949 . S
C1160 C1166 1.368 . S
C1161 C1145 1.349 . S
C1161 H1153 0.950 . S
C1161 C1159 1.327 . S
C1162 C1150 1.349 . S
C1162 H1156 0.950 . S
C1162 C1163 1.327 . S
C1163 H1157 0.950 . S
C1163 C1162 1.327 . S
C1163 C1167 1.429 . S
C1164 C1147 1.574 . S
C1164 H1158 0.949 . S
C1164 C1168 1.368 . S
C1165 C1146 1.429 . S
C1165 C1159 1.429 . S
C1165 C1166 1.523 . S
C1166 C1147 1.368 . S
C1166 C1160 1.368 . S
C1166 C1165 1.523 . S
C1167 C1151 1.429 . S
C1167 C1163 1.429 . S
C1167 C1168 1.523 . S
C1168 C1152 1.368 . S
C1168 C1164 1.368 . S
C1168 C1167 1.523 . S
H1169 C1144 0.950 . S
H1170 C1146 0.950 . S
H1171 C1147 0.949 . S
H1172 C1149 0.950 . S
H1173 C1151 0.950 . S
C1174 C1175 1.349 . S
C1174 C1176 1.327 . S
C1174 H1199 0.950 . S
C1175 C1174 1.349 . S
C1175 C1191 1.349 . S
C1176 C1174 1.327 . S
C1176 C1195 1.429 . S
C1176 H1200 0.950 . S
C1177 C1194 1.574 . S
C1177 C1196 1.368 . S
C1177 H1201 0.949 . S
H1178 C1182 0.949 . S
C1179 C1180 1.349 . S
C1179 C1181 1.327 . S
C1179 H1202 0.950 . S
C1180 C1179 1.349 . S
C1180 C1192 1.349 . S
C1181 C1179 1.327 . S
C1181 C1197 1.429 . S
C1181 H1203 0.950 . S
C1182 H1178 0.949 . S
C1182 C1190 1.574 . S
C1182 C1198 1.368 . S
H1183 C1191 0.950 . S
H1184 C1189 0.950 . S
H1185 C1190 0.949 . S
H1186 C1192 0.950 . S
H1187 C1193 0.950 . S
H1188 C1194 0.949 . S
C1189 H1184 0.950 . S
C1189 C1191 1.327 . S
C1189 C1195 1.429 . S
C1190 C1182 1.574 . S
C1190 H1185 0.949 . S
C1190 C1196 1.368 . S
C1191 C1175 1.349 . S
C1191 H1183 0.950 . S
C1191 C1189 1.327 . S
C1192 C1180 1.349 . S
C1192 H1186 0.950 . S
C1192 C1193 1.327 . S
C1193 H1187 0.950 . S
C1193 C1192 1.327 . S
C1193 C1197 1.429 . S
C1194 C1177 1.574 . S
C1194 H1188 0.949 . S
C1194 C1198 1.368 . S
C1195 C1176 1.429 . S
C1195 C1189 1.429 . S
C1195 C1196 1.523 . S
C1196 C1177 1.368 . S
C1196 C1190 1.368 . S
C1196 C1195 1.523 . S
C1197 C1181 1.429 . S
C1197 C1193 1.429 . S
C1197 C1198 1.523 . S
C1198 C1182 1.368 . S
C1198 C1194 1.368 . S
C1198 C1197 1.523 . S
H1199 C1174 0.950 . S
H1200 C1176 0.950 . S
H1201 C1177 0.949 . S
H1202 C1179 0.950 . S
H1203 C1181 0.950 . S
C1204 C1205 1.349 . S
C1204 C1206 1.327 . S
C1204 H1229 0.950 . S
C1205 C1204 1.349 . S
C1205 C1221 1.349 . S
C1206 C1204 1.327 . S
C1206 C1225 1.429 . S
C1206 H1230 0.950 . S
C1207 C1224 1.574 . S
C1207 C1226 1.368 . S
C1207 H1231 0.949 . S
H1208 C1212 0.949 . S
C1209 C1210 1.349 . S
C1209 C1211 1.327 . S
C1209 H1232 0.950 . S
C1210 C1209 1.349 . S
C1210 C1222 1.349 . S
C1211 C1209 1.327 . S
C1211 C1227 1.429 . S
C1211 H1233 0.950 . S
C1212 H1208 0.949 . S
C1212 C1220 1.574 . S
C1212 C1228 1.368 . S
H1213 C1221 0.950 . S
H1214 C1219 0.950 . S
H1215 C1220 0.949 . S
H1216 C1222 0.950 . S
H1217 C1223 0.950 . S
H1218 C1224 0.949 . S
C1219 H1214 0.950 . S
C1219 C1221 1.327 . S
C1219 C1225 1.429 . S
C1220 C1212 1.574 . S
C1220 H1215 0.949 . S
C1220 C1226 1.368 . S
C1221 C1205 1.349 . S
C1221 H1213 0.950 . S
C1221 C1219 1.327 . S
C1222 C1210 1.349 . S
C1222 H1216 0.950 . S
C1222 C1223 1.327 . S
C1223 H1217 0.950 . S
C1223 C1222 1.327 . S
C1223 C1227 1.429 . S
C1224 C1207 1.574 . S
C1224 H1218 0.949 . S
C1224 C1228 1.368 . S
C1225 C1206 1.429 . S
C1225 C1219 1.429 . S
C1225 C1226 1.523 . S
C1226 C1207 1.368 . S
C1226 C1220 1.368 . S
C1226 C1225 1.523 . S
C1227 C1211 1.429 . S
C1227 C1223 1.429 . S
C1227 C1228 1.523 . S
C1228 C1212 1.368 . S
C1228 C1224 1.368 . S
C1228 C1227 1.523 . S
H1229 C1204 0.950 . S
H1230 C1206 0.950 . S
H1231 C1207 0.949 . S
H1232 C1209 0.950 . S
H1233 C1211 0.950 . S
C1234 C1235 1.349 . S
C1234 C1236 1.327 . S
C1234 H1259 0.950 . S
C1235 C1234 1.349 . S
C1235 C1251 1.349 . S
C1236 C1234 1.327 . S
C1236 C1255 1.429 . S
C1236 H1260 0.950 . S
C1237 C1254 1.574 . S
C1237 C1256 1.368 . S
C1237 H1261 0.949 . S
H1238 C1242 0.949 . S
C1239 C1240 1.349 . S
C1239 C1241 1.327 . S
C1239 H1262 0.950 . S
C1240 C1239 1.349 . S
C1240 C1252 1.349 . S
C1241 C1239 1.327 . S
C1241 C1257 1.429 . S
C1241 H1263 0.950 . S
C1242 H1238 0.949 . S
C1242 C1250 1.574 . S
C1242 C1258 1.368 . S
H1243 C1251 0.950 . S
H1244 C1249 0.950 . S
H1245 C1250 0.949 . S
H1246 C1252 0.950 . S
H1247 C1253 0.950 . S
H1248 C1254 0.949 . S
C1249 H1244 0.950 . S
C1249 C1251 1.327 . S
C1249 C1255 1.429 . S
C1250 C1242 1.574 . S
C1250 H1245 0.949 . S
C1250 C1256 1.368 . S
C1251 C1235 1.349 . S
C1251 H1243 0.950 . S
C1251 C1249 1.327 . S
C1252 C1240 1.349 . S
C1252 H1246 0.950 . S
C1252 C1253 1.327 . S
C1253 H1247 0.950 . S
C1253 C1252 1.327 . S
C1253 C1257 1.429 . S
C1254 C1237 1.574 . S
C1254 H1248 0.949 . S
C1254 C1258 1.368 . S
C1255 C1236 1.429 . S
C1255 C1249 1.429 . S
C1255 C1256 1.523 . S
C1256 C1237 1.368 . S
C1256 C1250 1.368 . S
C1256 C1255 1.523 . S
C1257 C1241 1.429 . S
C1257 C1253 1.429 . S
C1257 C1258 1.523 . S
C1258 C1242 1.368 . S
C1258 C1254 1.368 . S
C1258 C1257 1.523 . S
H1259 C1234 0.950 . S
H1260 C1236 0.950 . S
H1261 C1237 0.949 . S
H1262 C1239 0.950 . S
H1263 C1241 0.950 . S
C1264 C1265 1.349 . S
C1264 C1266 1.327 . S
C1264 H1289 0.950 . S
C1265 C1264 1.349 . S
C1265 C1281 1.349 . S
C1266 C1264 1.327 . S
C1266 C1285 1.429 . S
C1266 H1290 0.950 . S
C1267 C1284 1.574 . S
C1267 C1286 1.368 . S
C1267 H1291 0.949 . S
H1268 C1272 0.949 . S
C1269 C1270 1.349 . S
C1269 C1271 1.327 . S
C1269 H1292 0.950 . S
C1270 C1269 1.349 . S
C1270 C1282 1.349 . S
C1271 C1269 1.327 . S
C1271 C1287 1.429 . S
C1271 H1293 0.950 . S
C1272 H1268 0.949 . S
C1272 C1280 1.574 . S
C1272 C1288 1.368 . S
H1273 C1281 0.950 . S
H1274 C1279 0.950 . S
H1275 C1280 0.949 . S
H1276 C1282 0.950 . S
H1277 C1283 0.950 . S
H1278 C1284 0.949 . S
C1279 H1274 0.950 . S
C1279 C1281 1.327 . S
C1279 C1285 1.429 . S
C1280 C1272 1.574 . S
C1280 H1275 0.949 . S
C1280 C1286 1.368 . S
C1281 C1265 1.349 . S
C1281 H1273 0.950 . S
C1281 C1279 1.327 . S
C1282 C1270 1.349 . S
C1282 H1276 0.950 . S
C1282 C1283 1.327 . S
C1283 H1277 0.950 . S
C1283 C1282 1.327 . S
C1283 C1287 1.429 . S
C1284 C1267 1.574 . S
C1284 H1278 0.949 . S
C1284 C1288 1.368 . S
C1285 C1266 1.429 . S
C1285 C1279 1.429 . S
C1285 C1286 1.523 . S
C1286 C1267 1.368 . S
C1286 C1280 1.368 . S
C1286 C1285 1.523 . S
C1287 C1271 1.429 . S
C1287 C1283 1.429 . S
C1287 C1288 1.523 . S
C1288 C1272 1.368 . S
C1288 C1284 1.368 . S
C1288 C1287 1.523 . S
H1289 C1264 0.950 . S
H1290 C1266 0.950 . S
H1291 C1267 0.949 . S
H1292 C1269 0.950 . S
H1293 C1271 0.950 . S
C1294 C1295 1.349 . S
C1294 C1296 1.327 . S
C1294 H1319 0.950 . S
C1295 C1294 1.349 . S
C1295 C1311 1.349 . S
C1296 C1294 1.327 . S
C1296 C1315 1.429 . S
C1296 H1320 0.950 . S
C1297 C1314 1.574 . S
C1297 C1316 1.368 . S
C1297 H1321 0.949 . S
H1298 C1302 0.949 . S
C1299 C1300 1.349 . S
C1299 C1301 1.327 . S
C1299 H1322 0.950 . S
C1300 C1299 1.349 . S
C1300 C1312 1.349 . S
C1301 C1299 1.327 . S
C1301 C1317 1.429 . S
C1301 H1323 0.950 . S
C1302 H1298 0.949 . S
C1302 C1310 1.574 . S
C1302 C1318 1.368 . S
H1303 C1311 0.950 . S
H1304 C1309 0.950 . S
H1305 C1310 0.949 . S
H1306 C1312 0.950 . S
H1307 C1313 0.950 . S
H1308 C1314 0.949 . S
C1309 H1304 0.950 . S
C1309 C1311 1.327 . S
C1309 C1315 1.429 . S
C1310 C1302 1.574 . S
C1310 H1305 0.949 . S
C1310 C1316 1.368 . S
C1311 C1295 1.349 . S
C1311 H1303 0.950 . S
C1311 C1309 1.327 . S
C1312 C1300 1.349 . S
C1312 H1306 0.950 . S
C1312 C1313 1.327 . S
C1313 H1307 0.950 . S
C1313 C1312 1.327 . S
C1313 C1317 1.429 . S
C1314 C1297 1.574 . S
C1314 H1308 0.949 . S
C1314 C1318 1.368 . S
C1315 C1296 1.429 . S
C1315 C1309 1.429 . S
C1315 C1316 1.523 . S
C1316 C1297 1.368 . S
C1316 C1310 1.368 . S
C1316 C1315 1.523 . S
C1317 C1301 1.429 . S
C1317 C1313 1.429 . S
C1317 C1318 1.523 . S
C1318 C1302 1.368 . S
C1318 C1314 1.368 . S
C1318 C1317 1.523 . S
H1319 C1294 0.950 . S
H1320 C1296 0.950 . S
H1321 C1297 0.949 . S
H1322 C1299 0.950 . S
H1323 C1301 0.950 . S
C1324 C1325 1.349 . S
C1324 C1326 1.327 . S
C1324 H1349 0.950 . S
C1325 C1324 1.349 . S
C1325 C1341 1.349 . S
C1326 C1324 1.327 . S
C1326 C1345 1.429 . S
C1326 H1350 0.950 . S
C1327 C1344 1.574 . S
C1327 C1346 1.368 . S
C1327 H1351 0.949 . S
H1328 C1332 0.949 . S
C1329 C1330 1.349 . S
C1329 C1331 1.327 . S
C1329 H1352 0.950 . S
C1330 C1329 1.349 . S
C1330 C1342 1.349 . S
C1331 C1329 1.327 . S
C1331 C1347 1.429 . S
C1331 H1353 0.950 . S
C1332 H1328 0.949 . S
C1332 C1340 1.574 . S
C1332 C1348 1.368 . S
H1333 C1341 0.950 . S
H1334 C1339 0.950 . S
H1335 C1340 0.949 . S
H1336 C1342 0.950 . S
H1337 C1343 0.950 . S
H1338 C1344 0.949 . S
C1339 H1334 0.950 . S
C1339 C1341 1.327 . S
C1339 C1345 1.429 . S
C1340 C1332 1.574 . S
C1340 H1335 0.949 . S
C1340 C1346 1.368 . S
C1341 C1325 1.349 . S
C1341 H1333 0.950 . S
C1341 C1339 1.327 . S
C1342 C1330 1.349 . S
C1342 H1336 0.950 . S
C1342 C1343 1.327 . S
C1343 H1337 0.950 . S
C1343 C1342 1.327 . S
C1343 C1347 1.429 . S
C1344 C1327 1.574 . S
C1344 H1338 0.949 . S
C1344 C1348 1.368 . S
C1345 C1326 1.429 . S
C1345 C1339 1.429 . S
C1345 C1346 1.523 . S
C1346 C1327 1.368 . S
C1346 C1340 1.368 . S
C1346 C1345 1.523 . S
C1347 C1331 1.429 . S
C1347 C1343 1.429 . S
C1347 C1348 1.523 . S
C1348 C1332 1.368 . S
C1348 C1344 1.368 . S
C1348 C1347 1.523 . S
H1349 C1324 0.950 . S
H1350 C1326 0.950 . S
H1351 C1327 0.949 . S
H1352 C1329 0.950 . S
H1353 C1331 0.950 . S
C1354 C1355 1.349 . S
C1354 C1356 1.327 . S
C1354 H1379 0.950 . S
C1355 C1354 1.349 . S
C1355 C1371 1.349 . S
C1356 C1354 1.327 . S
C1356 C1375 1.429 . S
C1356 H1380 0.950 . S
C1357 C1374 1.574 . S
C1357 C1376 1.368 . S
C1357 H1381 0.949 . S
H1358 C1362 0.949 . S
C1359 C1360 1.349 . S
C1359 C1361 1.327 . S
C1359 H1382 0.950 . S
C1360 C1359 1.349 . S
C1360 C1372 1.349 . S
C1361 C1359 1.327 . S
C1361 C1377 1.429 . S
C1361 H1383 0.950 . S
C1362 H1358 0.949 . S
C1362 C1370 1.574 . S
C1362 C1378 1.368 . S
H1363 C1371 0.950 . S
H1364 C1369 0.950 . S
H1365 C1370 0.949 . S
H1366 C1372 0.950 . S
H1367 C1373 0.950 . S
H1368 C1374 0.949 . S
C1369 H1364 0.950 . S
C1369 C1371 1.327 . S
C1369 C1375 1.429 . S
C1370 C1362 1.574 . S
C1370 H1365 0.949 . S
C1370 C1376 1.368 . S
C1371 C1355 1.349 . S
C1371 H1363 0.950 . S
C1371 C1369 1.327 . S
C1372 C1360 1.349 . S
C1372 H1366 0.950 . S
C1372 C1373 1.327 . S
C1373 H1367 0.950 . S
C1373 C1372 1.327 . S
C1373 C1377 1.429 . S
C1374 C1357 1.574 . S
C1374 H1368 0.949 . S
C1374 C1378 1.368 . S
C1375 C1356 1.429 . S
C1375 C1369 1.429 . S
C1375 C1376 1.523 . S
C1376 C1357 1.368 . S
C1376 C1370 1.368 . S
C1376 C1375 1.523 . S
C1377 C1361 1.429 . S
C1377 C1373 1.429 . S
C1377 C1378 1.523 . S
C1378 C1362 1.368 . S
C1378 C1374 1.368 . S
C1378 C1377 1.523 . S
H1379 C1354 0.950 . S
H1380 C1356 0.950 . S
H1381 C1357 0.949 . S
H1382 C1359 0.950 . S
H1383 C1361 0.950 . S
C1384 C1385 1.349 . S
C1384 C1386 1.327 . S
C1384 H1409 0.950 . S
C1385 C1384 1.349 . S
C1385 C1401 1.349 . S
C1386 C1384 1.327 . S
C1386 C1405 1.429 . S
C1386 H1410 0.950 . S
C1387 C1404 1.574 . S
C1387 C1406 1.368 . S
C1387 H1411 0.949 . S
H1388 C1392 0.949 . S
C1389 C1390 1.349 . S
C1389 C1391 1.327 . S
C1389 H1412 0.950 . S
C1390 C1389 1.349 . S
C1390 C1402 1.349 . S
C1391 C1389 1.327 . S
C1391 C1407 1.429 . S
C1391 H1413 0.950 . S
C1392 H1388 0.949 . S
C1392 C1400 1.574 . S
C1392 C1408 1.368 . S
H1393 C1401 0.950 . S
H1394 C1399 0.950 . S
H1395 C1400 0.949 . S
H1396 C1402 0.950 . S
H1397 C1403 0.950 . S
H1398 C1404 0.949 . S
C1399 H1394 0.950 . S
C1399 C1401 1.327 . S
C1399 C1405 1.429 . S
C1400 C1392 1.574 . S
C1400 H1395 0.949 . S
C1400 C1406 1.368 . S
C1401 C1385 1.349 . S
C1401 H1393 0.950 . S
C1401 C1399 1.327 . S
C1402 C1390 1.349 . S
C1402 H1396 0.950 . S
C1402 C1403 1.327 . S
C1403 H1397 0.950 . S
C1403 C1402 1.327 . S
C1403 C1407 1.429 . S
C1404 C1387 1.574 . S
C1404 H1398 0.949 . S
C1404 C1408 1.368 . S
C1405 C1386 1.429 . S
C1405 C1399 1.429 . S
C1405 C1406 1.523 . S
C1406 C1387 1.368 . S
C1406 C1400 1.368 . S
C1406 C1405 1.523 . S
C1407 C1391 1.429 . S
C1407 C1403 1.429 . S
C1407 C1408 1.523 . S
C1408 C1392 1.368 . S
C1408 C1404 1.368 . S
C1408 C1407 1.523 . S
H1409 C1384 0.950 . S
H1410 C1386 0.950 . S
H1411 C1387 0.949 . S
H1412 C1389 0.950 . S
H1413 C1391 0.950 . S
C1414 C1415 1.349 . S
C1414 C1416 1.327 . S
C1414 H1439 0.950 . S
C1415 C1414 1.349 . S
C1415 C1431 1.349 . S
C1416 C1414 1.327 . S
C1416 C1435 1.429 . S
C1416 H1440 0.950 . S
C1417 C1434 1.574 . S
C1417 C1436 1.368 . S
C1417 H1441 0.949 . S
H1418 C1422 0.949 . S
C1419 C1420 1.349 . S
C1419 C1421 1.327 . S
C1419 H1442 0.950 . S
C1420 C1419 1.349 . S
C1420 C1432 1.349 . S
C1421 C1419 1.327 . S
C1421 C1437 1.429 . S
C1421 H1443 0.950 . S
C1422 H1418 0.949 . S
C1422 C1430 1.574 . S
C1422 C1438 1.368 . S
H1423 C1431 0.950 . S
H1424 C1429 0.950 . S
H1425 C1430 0.949 . S
H1426 C1432 0.950 . S
H1427 C1433 0.950 . S
H1428 C1434 0.949 . S
C1429 H1424 0.950 . S
C1429 C1431 1.327 . S
C1429 C1435 1.429 . S
C1430 C1422 1.574 . S
C1430 H1425 0.949 . S
C1430 C1436 1.368 . S
C1431 C1415 1.349 . S
C1431 H1423 0.950 . S
C1431 C1429 1.327 . S
C1432 C1420 1.349 . S
C1432 H1426 0.950 . S
C1432 C1433 1.327 . S
C1433 H1427 0.950 . S
C1433 C1432 1.327 . S
C1433 C1437 1.429 . S
C1434 C1417 1.574 . S
C1434 H1428 0.949 . S
C1434 C1438 1.368 . S
C1435 C1416 1.429 . S
C1435 C1429 1.429 . S
C1435 C1436 1.523 . S
C1436 C1417 1.368 . S
C1436 C1430 1.368 . S
C1436 C1435 1.523 . S
C1437 C1421 1.429 . S
C1437 C1433 1.429 . S
C1437 C1438 1.523 . S
C1438 C1422 1.368 . S
C1438 C1434 1.368 . S
C1438 C1437 1.523 . S
H1439 C1414 0.950 . S
H1440 C1416 0.950 . S
H1441 C1417 0.949 . S
H1442 C1419 0.950 . S
H1443 C1421 0.950 . S
C1444 C1445 1.349 . S
C1444 C1446 1.327 . S
C1444 H1469 0.950 . S
C1445 C1444 1.349 . S
C1445 C1461 1.349 . S
C1446 C1444 1.327 . S
C1446 C1465 1.429 . S
C1446 H1470 0.950 . S
C1447 C1464 1.574 . S
C1447 C1466 1.368 . S
C1447 H1471 0.949 . S
H1448 C1452 0.949 . S
C1449 C1450 1.349 . S
C1449 C1451 1.327 . S
C1449 H1472 0.950 . S
C1450 C1449 1.349 . S
C1450 C1462 1.349 . S
C1451 C1449 1.327 . S
C1451 C1467 1.429 . S
C1451 H1473 0.950 . S
C1452 H1448 0.949 . S
C1452 C1460 1.574 . S
C1452 C1468 1.368 . S
H1453 C1461 0.950 . S
H1454 C1459 0.950 . S
H1455 C1460 0.949 . S
H1456 C1462 0.950 . S
H1457 C1463 0.950 . S
H1458 C1464 0.949 . S
C1459 H1454 0.950 . S
C1459 C1461 1.327 . S
C1459 C1465 1.429 . S
C1460 C1452 1.574 . S
C1460 H1455 0.949 . S
C1460 C1466 1.368 . S
C1461 C1445 1.349 . S
C1461 H1453 0.950 . S
C1461 C1459 1.327 . S
C1462 C1450 1.349 . S
C1462 H1456 0.950 . S
C1462 C1463 1.327 . S
C1463 H1457 0.950 . S
C1463 C1462 1.327 . S
C1463 C1467 1.429 . S
C1464 C1447 1.574 . S
C1464 H1458 0.949 . S
C1464 C1468 1.368 . S
C1465 C1446 1.429 . S
C1465 C1459 1.429 . S
C1465 C1466 1.523 . S
C1466 C1447 1.368 . S
C1466 C1460 1.368 . S
C1466 C1465 1.523 . S
C1467 C1451 1.429 . S
C1467 C1463 1.429 . S
C1467 C1468 1.523 . S
C1468 C1452 1.368 . S
C1468 C1464 1.368 . S
C1468 C1467 1.523 . S
H1469 C1444 0.950 . S
H1470 C1446 0.950 . S
H1471 C1447 0.949 . S
H1472 C1449 0.950 . S
H1473 C1451 0.950 . S
C1474 C1475 1.349 . S
C1474 C1476 1.327 . S
C1474 H1499 0.950 . S
C1475 C1474 1.349 . S
C1475 C1491 1.349 . S
C1476 C1474 1.327 . S
C1476 C1495 1.429 . S
C1476 H1500 0.950 . S
C1477 C1494 1.574 . S
C1477 C1496 1.368 . S
C1477 H1501 0.949 . S
H1478 C1482 0.949 . S
C1479 C1480 1.349 . S
C1479 C1481 1.327 . S
C1479 H1502 0.950 . S
C1480 C1479 1.349 . S
C1480 C1492 1.349 . S
C1481 C1479 1.327 . S
C1481 C1497 1.429 . S
C1481 H1503 0.950 . S
C1482 H1478 0.949 . S
C1482 C1490 1.574 . S
C1482 C1498 1.368 . S
H1483 C1491 0.950 . S
H1484 C1489 0.950 . S
H1485 C1490 0.949 . S
H1486 C1492 0.950 . S
H1487 C1493 0.950 . S
H1488 C1494 0.949 . S
C1489 H1484 0.950 . S
C1489 C1491 1.327 . S
C1489 C1495 1.429 . S
C1490 C1482 1.574 . S
C1490 H1485 0.949 . S
C1490 C1496 1.368 . S
C1491 C1475 1.349 . S
C1491 H1483 0.950 . S
C1491 C1489 1.327 . S
C1492 C1480 1.349 . S
C1492 H1486 0.950 . S
C1492 C1493 1.327 . S
C1493 H1487 0.950 . S
C1493 C1492 1.327 . S
C1493 C1497 1.429 . S
C1494 C1477 1.574 . S
C1494 H1488 0.949 . S
C1494 C1498 1.368 . S
C1495 C1476 1.429 . S
C1495 C1489 1.429 . S
C1495 C1496 1.523 . S
C1496 C1477 1.368 . S
C1496 C1490 1.368 . S
C1496 C1495 1.523 . S
C1497 C1481 1.429 . S
C1497 C1493 1.429 . S
C1497 C1498 1.523 . S
C1498 C1482 1.368 . S
C1498 C1494 1.368 . S
C1498 C1497 1.523 . S
H1499 C1474 0.950 . S
H1500 C1476 0.950 . S
H1501 C1477 0.949 . S
H1502 C1479 0.950 . S
H1503 C1481 0.950 . S
C1504 C1505 1.349 . S
C1504 C1506 1.327 . S
C1504 H1529 0.950 . S
C1505 C1504 1.349 . S
C1505 C1521 1.349 . S
C1506 C1504 1.327 . S
C1506 C1525 1.429 . S
C1506 H1530 0.950 . S
C1507 C1524 1.574 . S
C1507 C1526 1.368 . S
C1507 H1531 0.949 . S
H1508 C1512 0.949 . S
C1509 C1510 1.349 . S
C1509 C1511 1.327 . S
C1509 H1532 0.950 . S
C1510 C1509 1.349 . S
C1510 C1522 1.349 . S
C1511 C1509 1.327 . S
C1511 C1527 1.429 . S
C1511 H1533 0.950 . S
C1512 H1508 0.949 . S
C1512 C1520 1.574 . S
C1512 C1528 1.368 . S
H1513 C1521 0.950 . S
H1514 C1519 0.950 . S
H1515 C1520 0.949 . S
H1516 C1522 0.950 . S
H1517 C1523 0.950 . S
H1518 C1524 0.949 . S
C1519 H1514 0.950 . S
C1519 C1521 1.327 . S
C1519 C1525 1.429 . S
C1520 C1512 1.574 . S
C1520 H1515 0.949 . S
C1520 C1526 1.368 . S
C1521 C1505 1.349 . S
C1521 H1513 0.950 . S
C1521 C1519 1.327 . S
C1522 C1510 1.349 . S
C1522 H1516 0.950 . S
C1522 C1523 1.327 . S
C1523 H1517 0.950 . S
C1523 C1522 1.327 . S
C1523 C1527 1.429 . S
C1524 C1507 1.574 . S
C1524 H1518 0.949 . S
C1524 C1528 1.368 . S
C1525 C1506 1.429 . S
C1525 C1519 1.429 . S
C1525 C1526 1.523 . S
C1526 C1507 1.368 . S
C1526 C1520 1.368 . S
C1526 C1525 1.523 . S
C1527 C1511 1.429 . S
C1527 C1523 1.429 . S
C1527 C1528 1.523 . S
C1528 C1512 1.368 . S
C1528 C1524 1.368 . S
C1528 C1527 1.523 . S
H1529 C1504 0.950 . S
H1530 C1506 0.950 . S
H1531 C1507 0.949 . S
H1532 C1509 0.950 . S
H1533 C1511 0.950 . S
C1534 C1535 1.349 . S
C1534 C1536 1.327 . S
C1534 H1559 0.950 . S
C1535 C1534 1.349 . S
C1535 C1551 1.349 . S
C1536 C1534 1.327 . S
C1536 C1555 1.429 . S
C1536 H1560 0.950 . S
C1537 C1554 1.574 . S
C1537 C1556 1.368 . S
C1537 H1561 0.949 . S
H1538 C1542 0.949 . S
C1539 C1540 1.349 . S
C1539 C1541 1.327 . S
C1539 H1562 0.950 . S
C1540 C1539 1.349 . S
C1540 C1552 1.349 . S
C1541 C1539 1.327 . S
C1541 C1557 1.429 . S
C1541 H1563 0.950 . S
C1542 H1538 0.949 . S
C1542 C1550 1.574 . S
C1542 C1558 1.368 . S
H1543 C1551 0.950 . S
H1544 C1549 0.950 . S
H1545 C1550 0.949 . S
H1546 C1552 0.950 . S
H1547 C1553 0.950 . S
H1548 C1554 0.949 . S
C1549 H1544 0.950 . S
C1549 C1551 1.327 . S
C1549 C1555 1.429 . S
C1550 C1542 1.574 . S
C1550 H1545 0.949 . S
C1550 C1556 1.368 . S
C1551 C1535 1.349 . S
C1551 H1543 0.950 . S
C1551 C1549 1.327 . S
C1552 C1540 1.349 . S
C1552 H1546 0.950 . S
C1552 C1553 1.327 . S
C1553 H1547 0.950 . S
C1553 C1552 1.327 . S
C1553 C1557 1.429 . S
C1554 C1537 1.574 . S
C1554 H1548 0.949 . S
C1554 C1558 1.368 . S
C1555 C1536 1.429 . S
C1555 C1549 1.429 . S
C1555 C1556 1.523 . S
C1556 C1537 1.368 . S
C1556 C1550 1.368 . S
C1556 C1555 1.523 . S
C1557 C1541 1.429 . S
C1557 C1553 1.429 . S
C1557 C1558 1.523 . S
C1558 C1542 1.368 . S
C1558 C1554 1.368 . S
C1558 C1557 1.523 . S
H1559 C1534 0.950 . S
H1560 C1536 0.950 . S
H1561 C1537 0.949 . S
H1562 C1539 0.950 . S
H1563 C1541 0.950 . S
C1564 C1565 1.349 . S
C1564 C1566 1.327 . S
C1564 H1589 0.950 . S
C1565 C1564 1.349 . S
C1565 C1581 1.349 . S
C1566 C1564 1.327 . S
C1566 C1585 1.429 . S
C1566 H1590 0.950 . S
C1567 C1584 1.574 . S
C1567 C1586 1.368 . S
C1567 H1591 0.949 . S
H1568 C1572 0.949 . S
C1569 C1570 1.349 . S
C1569 C1571 1.327 . S
C1569 H1592 0.950 . S
C1570 C1569 1.349 . S
C1570 C1582 1.349 . S
C1571 C1569 1.327 . S
C1571 C1587 1.429 . S
C1571 H1593 0.950 . S
C1572 H1568 0.949 . S
C1572 C1580 1.574 . S
C1572 C1588 1.368 . S
H1573 C1581 0.950 . S
H1574 C1579 0.950 . S
H1575 C1580 0.949 . S
H1576 C1582 0.950 . S
H1577 C1583 0.950 . S
H1578 C1584 0.949 . S
C1579 H1574 0.950 . S
C1579 C1581 1.327 . S
C1579 C1585 1.429 . S
C1580 C1572 1.574 . S
C1580 H1575 0.949 . S
C1580 C1586 1.368 . S
C1581 C1565 1.349 . S
C1581 H1573 0.950 . S
C1581 C1579 1.327 . S
C1582 C1570 1.349 . S
C1582 H1576 0.950 . S
C1582 C1583 1.327 . S
C1583 H1577 0.950 . S
C1583 C1582 1.327 . S
C1583 C1587 1.429 . S
C1584 C1567 1.574 . S
C1584 H1578 0.949 . S
C1584 C1588 1.368 . S
C1585 C1566 1.429 . S
C1585 C1579 1.429 . S
C1585 C1586 1.523 . S
C1586 C1567 1.368 . S
C1586 C1580 1.368 . S
C1586 C1585 1.523 . S
C1587 C1571 1.429 . S
C1587 C1583 1.429 . S
C1587 C1588 1.523 . S
C1588 C1572 1.368 . S
C1588 C1584 1.368 . S
C1588 C1587 1.523 . S
H1589 C1564 0.950 . S
H1590 C1566 0.950 . S
H1591 C1567 0.949 . S
H1592 C1569 0.950 . S
H1593 C1571 0.950 . S
C1594 C1595 1.349 . S
C1594 C1596 1.327 . S
C1594 H1619 0.950 . S
C1595 C1594 1.349 . S
C1595 C1611 1.349 . S
C1596 C1594 1.327 . S
C1596 C1615 1.429 . S
C1596 H1620 0.950 . S
C1597 C1614 1.574 . S
C1597 C1616 1.368 . S
C1597 H1621 0.949 . S
H1598 C1602 0.949 . S
C1599 C1600 1.349 . S
C1599 C1601 1.327 . S
C1599 H1622 0.950 . S
C1600 C1599 1.349 . S
C1600 C1612 1.349 . S
C1601 C1599 1.327 . S
C1601 C1617 1.429 . S
C1601 H1623 0.950 . S
C1602 H1598 0.949 . S
C1602 C1610 1.574 . S
C1602 C1618 1.368 . S
H1603 C1611 0.950 . S
H1604 C1609 0.950 . S
H1605 C1610 0.949 . S
H1606 C1612 0.950 . S
H1607 C1613 0.950 . S
H1608 C1614 0.949 . S
C1609 H1604 0.950 . S
C1609 C1611 1.327 . S
C1609 C1615 1.429 . S
C1610 C1602 1.574 . S
C1610 H1605 0.949 . S
C1610 C1616 1.368 . S
C1611 C1595 1.349 . S
C1611 H1603 0.950 . S
C1611 C1609 1.327 . S
C1612 C1600 1.349 . S
C1612 H1606 0.950 . S
C1612 C1613 1.327 . S
C1613 H1607 0.950 . S
C1613 C1612 1.327 . S
C1613 C1617 1.429 . S
C1614 C1597 1.574 . S
C1614 H1608 0.949 . S
C1614 C1618 1.368 . S
C1615 C1596 1.429 . S
C1615 C1609 1.429 . S
C1615 C1616 1.523 . S
C1616 C1597 1.368 . S
C1616 C1610 1.368 . S
C1616 C1615 1.523 . S
C1617 C1601 1.429 . S
C1617 C1613 1.429 . S
C1617 C1618 1.523 . S
C1618 C1602 1.368 . S
C1618 C1614 1.368 . S
C1618 C1617 1.523 . S
H1619 C1594 0.950 . S
H1620 C1596 0.950 . S
H1621 C1597 0.949 . S
H1622 C1599 0.950 . S
H1623 C1601 0.950 . S
C1624 C1625 1.349 . S
C1624 C1626 1.327 . S
C1624 H1649 0.950 . S
C1625 C1624 1.349 . S
C1625 C1641 1.349 . S
C1626 C1624 1.327 . S
C1626 C1645 1.429 . S
C1626 H1650 0.950 . S
C1627 C1644 1.574 . S
C1627 C1646 1.368 . S
C1627 H1651 0.949 . S
H1628 C1632 0.949 . S
C1629 C1630 1.349 . S
C1629 C1631 1.327 . S
C1629 H1652 0.950 . S
C1630 C1629 1.349 . S
C1630 C1642 1.349 . S
C1631 C1629 1.327 . S
C1631 C1647 1.429 . S
C1631 H1653 0.950 . S
C1632 H1628 0.949 . S
C1632 C1640 1.574 . S
C1632 C1648 1.368 . S
H1633 C1641 0.950 . S
H1634 C1639 0.950 . S
H1635 C1640 0.949 . S
H1636 C1642 0.950 . S
H1637 C1643 0.950 . S
H1638 C1644 0.949 . S
C1639 H1634 0.950 . S
C1639 C1641 1.327 . S
C1639 C1645 1.429 . S
C1640 C1632 1.574 . S
C1640 H1635 0.949 . S
C1640 C1646 1.368 . S
C1641 C1625 1.349 . S
C1641 H1633 0.950 . S
C1641 C1639 1.327 . S
C1642 C1630 1.349 . S
C1642 H1636 0.950 . S
C1642 C1643 1.327 . S
C1643 H1637 0.950 . S
C1643 C1642 1.327 . S
C1643 C1647 1.429 . S
C1644 C1627 1.574 . S
C1644 H1638 0.949 . S
C1644 C1648 1.368 . S
C1645 C1626 1.429 . S
C1645 C1639 1.429 . S
C1645 C1646 1.523 . S
C1646 C1627 1.368 . S
C1646 C1640 1.368 . S
C1646 C1645 1.523 . S
C1647 C1631 1.429 . S
C1647 C1643 1.429 . S
C1647 C1648 1.523 . S
C1648 C1632 1.368 . S
C1648 C1644 1.368 . S
C1648 C1647 1.523 . S
H1649 C1624 0.950 . S
H1650 C1626 0.950 . S
H1651 C1627 0.949 . S
H1652 C1629 0.950 . S
H1653 C1631 0.950 . S
C1654 C1655 1.349 . S
C1654 C1656 1.327 . S
C1654 H1679 0.950 . S
C1655 C1654 1.349 . S
C1655 C1671 1.349 . S
C1656 C1654 1.327 . S
C1656 C1675 1.429 . S
C1656 H1680 0.950 . S
C1657 C1674 1.574 . S
C1657 C1676 1.368 . S
C1657 H1681 0.949 . S
H1658 C1662 0.949 . S
C1659 C1660 1.349 . S
C1659 C1661 1.327 . S
C1659 H1682 0.950 . S
C1660 C1659 1.349 . S
C1660 C1672 1.349 . S
C1661 C1659 1.327 . S
C1661 C1677 1.429 . S
C1661 H1683 0.950 . S
C1662 H1658 0.949 . S
C1662 C1670 1.574 . S
C1662 C1678 1.368 . S
H1663 C1671 0.950 . S
H1664 C1669 0.950 . S
H1665 C1670 0.949 . S
H1666 C1672 0.950 . S
H1667 C1673 0.950 . S
H1668 C1674 0.949 . S
C1669 H1664 0.950 . S
C1669 C1671 1.327 . S
C1669 C1675 1.429 . S
C1670 C1662 1.574 . S
C1670 H1665 0.949 . S
C1670 C1676 1.368 . S
C1671 C1655 1.349 . S
C1671 H1663 0.950 . S
C1671 C1669 1.327 . S
C1672 C1660 1.349 . S
C1672 H1666 0.950 . S
C1672 C1673 1.327 . S
C1673 H1667 0.950 . S
C1673 C1672 1.327 . S
C1673 C1677 1.429 . S
C1674 C1657 1.574 . S
C1674 H1668 0.949 . S
C1674 C1678 1.368 . S
C1675 C1656 1.429 . S
C1675 C1669 1.429 . S
C1675 C1676 1.523 . S
C1676 C1657 1.368 . S
C1676 C1670 1.368 . S
C1676 C1675 1.523 . S
C1677 C1661 1.429 . S
C1677 C1673 1.429 . S
C1677 C1678 1.523 . S
C1678 C1662 1.368 . S
C1678 C1674 1.368 . S
C1678 C1677 1.523 . S
H1679 C1654 0.950 . S
H1680 C1656 0.950 . S
H1681 C1657 0.949 . S
H1682 C1659 0.950 . S
H1683 C1661 0.950 . S
C1684 C1685 1.349 . S
C1684 C1686 1.327 . S
C1684 H1709 0.950 . S
C1685 C1684 1.349 . S
C1685 C1701 1.349 . S
C1686 C1684 1.327 . S
C1686 C1705 1.429 . S
C1686 H1710 0.950 . S
C1687 C1704 1.574 . S
C1687 C1706 1.368 . S
C1687 H1711 0.949 . S
H1688 C1692 0.949 . S
C1689 C1690 1.349 . S
C1689 C1691 1.327 . S
C1689 H1712 0.950 . S
C1690 C1689 1.349 . S
C1690 C1702 1.349 . S
C1691 C1689 1.327 . S
C1691 C1707 1.429 . S
C1691 H1713 0.950 . S
C1692 H1688 0.949 . S
C1692 C1700 1.574 . S
C1692 C1708 1.368 . S
H1693 C1701 0.950 . S
H1694 C1699 0.950 . S
H1695 C1700 0.949 . S
H1696 C1702 0.950 . S
H1697 C1703 0.950 . S
H1698 C1704 0.949 . S
C1699 H1694 0.950 . S
C1699 C1701 1.327 . S
C1699 C1705 1.429 . S
C1700 C1692 1.574 . S
C1700 H1695 0.949 . S
C1700 C1706 1.368 . S
C1701 C1685 1.349 . S
C1701 H1693 0.950 . S
C1701 C1699 1.327 . S
C1702 C1690 1.349 . S
C1702 H1696 0.950 . S
C1702 C1703 1.327 . S
C1703 H1697 0.950 . S
C1703 C1702 1.327 . S
C1703 C1707 1.429 . S
C1704 C1687 1.574 . S
C1704 H1698 0.949 . S
C1704 C1708 1.368 . S
C1705 C1686 1.429 . S
C1705 C1699 1.429 . S
C1705 C1706 1.523 . S
C1706 C1687 1.368 . S
C1706 C1700 1.368 . S
C1706 C1705 1.523 . S
C1707 C1691 1.429 . S
C1707 C1703 1.429 . S
C1707 C1708 1.523 . S
C1708 C1692 1.368 . S
C1708 C1704 1.368 . S
C1708 C1707 1.523 . S
H1709 C1684 0.950 . S
H1710 C1686 0.950 . S
H1711 C1687 0.949 . S
H1712 C1689 0.950 . S
H1713 C1691 0.950 . S
C1714 C1715 1.349 . S
C1714 C1716 1.327 . S
C1714 H1739 0.950 . S
C1715 C1714 1.349 . S
C1715 C1731 1.349 . S
C1716 C1714 1.327 . S
C1716 C1735 1.429 . S
C1716 H1740 0.950 . S
C1717 C1734 1.574 . S
C1717 C1736 1.368 . S
C1717 H1741 0.949 . S
H1718 C1722 0.949 . S
C1719 C1720 1.349 . S
C1719 C1721 1.327 . S
C1719 H1742 0.950 . S
C1720 C1719 1.349 . S
C1720 C1732 1.349 . S
C1721 C1719 1.327 . S
C1721 C1737 1.429 . S
C1721 H1743 0.950 . S
C1722 H1718 0.949 . S
C1722 C1730 1.574 . S
C1722 C1738 1.368 . S
H1723 C1731 0.950 . S
H1724 C1729 0.950 . S
H1725 C1730 0.949 . S
H1726 C1732 0.950 . S
H1727 C1733 0.950 . S
H1728 C1734 0.949 . S
C1729 H1724 0.950 . S
C1729 C1731 1.327 . S
C1729 C1735 1.429 . S
C1730 C1722 1.574 . S
C1730 H1725 0.949 . S
C1730 C1736 1.368 . S
C1731 C1715 1.349 . S
C1731 H1723 0.950 . S
C1731 C1729 1.327 . S
C1732 C1720 1.349 . S
C1732 H1726 0.950 . S
C1732 C1733 1.327 . S
C1733 H1727 0.950 . S
C1733 C1732 1.327 . S
C1733 C1737 1.429 . S
C1734 C1717 1.574 . S
C1734 H1728 0.949 . S
C1734 C1738 1.368 . S
C1735 C1716 1.429 . S
C1735 C1729 1.429 . S
C1735 C1736 1.523 . S
C1736 C1717 1.368 . S
C1736 C1730 1.368 . S
C1736 C1735 1.523 . S
C1737 C1721 1.429 . S
C1737 C1733 1.429 . S
C1737 C1738 1.523 . S
C1738 C1722 1.368 . S
C1738 C1734 1.368 . S
C1738 C1737 1.523 . S
H1739 C1714 0.950 . S
H1740 C1716 0.950 . S
H1741 C1717 0.949 . S
H1742 C1719 0.950 . S
H1743 C1721 0.950 . S
C1744 C1745 1.349 . S
C1744 C1746 1.327 . S
C1744 H1769 0.950 . S
C1745 C1744 1.349 . S
C1745 C1761 1.349 . S
C1746 C1744 1.327 . S
C1746 C1765 1.429 . S
C1746 H1770 0.950 . S
C1747 C1764 1.574 . S
C1747 C1766 1.368 . S
C1747 H1771 0.949 . S
H1748 C1752 0.949 . S
C1749 C1750 1.349 . S
C1749 C1751 1.327 . S
C1749 H1772 0.950 . S
C1750 C1749 1.349 . S
C1750 C1762 1.349 . S
C1751 C1749 1.327 . S
C1751 C1767 1.429 . S
C1751 H1773 0.950 . S
C1752 H1748 0.949 . S
C1752 C1760 1.574 . S
C1752 C1768 1.368 . S
H1753 C1761 0.950 . S
H1754 C1759 0.950 . S
H1755 C1760 0.949 . S
H1756 C1762 0.950 . S
H1757 C1763 0.950 . S
H1758 C1764 0.949 . S
C1759 H1754 0.950 . S
C1759 C1761 1.327 . S
C1759 C1765 1.429 . S
C1760 C1752 1.574 . S
C1760 H1755 0.949 . S
C1760 C1766 1.368 . S
C1761 C1745 1.349 . S
C1761 H1753 0.950 . S
C1761 C1759 1.327 . S
C1762 C1750 1.349 . S
C1762 H1756 0.950 . S
C1762 C1763 1.327 . S
C1763 H1757 0.950 . S
C1763 C1762 1.327 . S
C1763 C1767 1.429 . S
C1764 C1747 1.574 . S
C1764 H1758 0.949 . S
C1764 C1768 1.368 . S
C1765 C1746 1.429 . S
C1765 C1759 1.429 . S
C1765 C1766 1.523 . S
C1766 C1747 1.368 . S
C1766 C1760 1.368 . S
C1766 C1765 1.523 . S
C1767 C1751 1.429 . S
C1767 C1763 1.429 . S
C1767 C1768 1.523 . S
C1768 C1752 1.368 . S
C1768 C1764 1.368 . S
C1768 C1767 1.523 . S
H1769 C1744 0.950 . S
H1770 C1746 0.950 . S
H1771 C1747 0.949 . S
H1772 C1749 0.950 . S
H1773 C1751 0.950 . S
C1774 C1775 1.349 . S
C1774 C1776 1.327 . S
C1774 H1799 0.950 . S
C1775 C1774 1.349 . S
C1775 C1791 1.349 . S
C1776 C1774 1.327 . S
C1776 C1795 1.429 . S
C1776 H1800 0.950 . S
C1777 C1794 1.574 . S
C1777 C1796 1.368 . S
C1777 H1801 0.949 . S
H1778 C1782 0.949 . S
C1779 C1780 1.349 . S
C1779 C1781 1.327 . S
C1779 H1802 0.950 . S
C1780 C1779 1.349 . S
C1780 C1792 1.349 . S
C1781 C1779 1.327 . S
C1781 C1797 1.429 . S
C1781 H1803 0.950 . S
C1782 H1778 0.949 . S
C1782 C1790 1.574 . S
C1782 C1798 1.368 . S
H1783 C1791 0.950 . S
H1784 C1789 0.950 . S
H1785 C1790 0.949 . S
H1786 C1792 0.950 . S
H1787 C1793 0.950 . S
H1788 C1794 0.949 . S
C1789 H1784 0.950 . S
C1789 C1791 1.327 . S
C1789 C1795 1.429 . S
C1790 C1782 1.574 . S
C1790 H1785 0.949 . S
C1790 C1796 1.368 . S
C1791 C1775 1.349 . S
C1791 H1783 0.950 . S
C1791 C1789 1.327 . S
C1792 C1780 1.349 . S
C1792 H1786 0.950 . S
C1792 C1793 1.327 . S
C1793 H1787 0.950 . S
C1793 C1792 1.327 . S
C1793 C1797 1.429 . S
C1794 C1777 1.574 . S
C1794 H1788 0.949 . S
C1794 C1798 1.368 . S
C1795 C1776 1.429 . S
C1795 C1789 1.429 . S
C1795 C1796 1.523 . S
C1796 C1777 1.368 . S
C1796 C1790 1.368 . S
C1796 C1795 1.523 . S
C1797 C1781 1.429 . S
C1797 C1793 1.429 . S
C1797 C1798 1.523 . S
C1798 C1782 1.368 . S
C1798 C1794 1.368 . S
C1798 C1797 1.523 . S
H1799 C1774 0.950 . S
H1800 C1776 0.950 . S
H1801 C1777 0.949 . S
H1802 C1779 0.950 . S
H1803 C1781 0.950 . S
C1804 C1805 1.349 . S
C1804 C1806 1.327 . S
C1804 H1829 0.950 . S
C1805 C1804 1.349 . S
C1805 C1821 1.349 . S
C1806 C1804 1.327 . S
C1806 C1825 1.429 . S
C1806 H1830 0.950 . S
C1807 C1824 1.574 . S
C1807 C1826 1.368 . S
C1807 H1831 0.949 . S
H1808 C1812 0.949 . S
C1809 C1810 1.349 . S
C1809 C1811 1.327 . S
C1809 H1832 0.950 . S
C1810 C1809 1.349 . S
C1810 C1822 1.349 . S
C1811 C1809 1.327 . S
C1811 C1827 1.429 . S
C1811 H1833 0.950 . S
C1812 H1808 0.949 . S
C1812 C1820 1.574 . S
C1812 C1828 1.368 . S
H1813 C1821 0.950 . S
H1814 C1819 0.950 . S
H1815 C1820 0.949 . S
H1816 C1822 0.950 . S
H1817 C1823 0.950 . S
H1818 C1824 0.949 . S
C1819 H1814 0.950 . S
C1819 C1821 1.327 . S
C1819 C1825 1.429 . S
C1820 C1812 1.574 . S
C1820 H1815 0.949 . S
C1820 C1826 1.368 . S
C1821 C1805 1.349 . S
C1821 H1813 0.950 . S
C1821 C1819 1.327 . S
C1822 C1810 1.349 . S
C1822 H1816 0.950 . S
C1822 C1823 1.327 . S
C1823 H1817 0.950 . S
C1823 C1822 1.327 . S
C1823 C1827 1.429 . S
C1824 C1807 1.574 . S
C1824 H1818 0.949 . S
C1824 C1828 1.368 . S
C1825 C1806 1.429 . S
C1825 C1819 1.429 . S
C1825 C1826 1.523 . S
C1826 C1807 1.368 . S
C1826 C1820 1.368 . S
C1826 C1825 1.523 . S
C1827 C1811 1.429 . S
C1827 C1823 1.429 . S
C1827 C1828 1.523 . S
C1828 C1812 1.368 . S
C1828 C1824 1.368 . S
C1828 C1827 1.523 . S
H1829 C1804 0.950 . S
H1830 C1806 0.950 . S
H1831 C1807 0.949 . S
H1832 C1809 0.950 . S
H1833 C1811 0.950 . S
C1834 C1835 1.349 . S
C1834 C1836 1.327 . S
C1834 H1859 0.950 . S
C1835 C1834 1.349 . S
C1835 C1851 1.349 . S
C1836 C1834 1.327 . S
C1836 C1855 1.429 . S
C1836 H1860 0.950 . S
C1837 C1854 1.574 . S
C1837 C1856 1.368 . S
C1837 H1861 0.949 . S
H1838 C1842 0.949 . S
C1839 C1840 1.349 . S
C1839 C1841 1.327 . S
C1839 H1862 0.950 . S
C1840 C1839 1.349 . S
C1840 C1852 1.349 . S
C1841 C1839 1.327 . S
C1841 C1857 1.429 . S
C1841 H1863 0.950 . S
C1842 H1838 0.949 . S
C1842 C1850 1.574 . S
C1842 C1858 1.368 . S
H1843 C1851 0.950 . S
H1844 C1849 0.950 . S
H1845 C1850 0.949 . S
H1846 C1852 0.950 . S
H1847 C1853 0.950 . S
H1848 C1854 0.949 . S
C1849 H1844 0.950 . S
C1849 C1851 1.327 . S
C1849 C1855 1.429 . S
C1850 C1842 1.574 . S
C1850 H1845 0.949 . S
C1850 C1856 1.368 . S
C1851 C1835 1.349 . S
C1851 H1843 0.950 . S
C1851 C1849 1.327 . S
C1852 C1840 1.349 . S
C1852 H1846 0.950 . S
C1852 C1853 1.327 . S
C1853 H1847 0.950 . S
C1853 C1852 1.327 . S
C1853 C1857 1.429 . S
C1854 C1837 1.574 . S
C1854 H1848 0.949 . S
C1854 C1858 1.368 . S
C1855 C1836 1.429 . S
C1855 C1849 1.429 . S
C1855 C1856 1.523 . S
C1856 C1837 1.368 . S
C1856 C1850 1.368 . S
C1856 C1855 1.523 . S
C1857 C1841 1.429 . S
C1857 C1853 1.429 . S
C1857 C1858 1.523 . S
C1858 C1842 1.368 . S
C1858 C1854 1.368 . S
C1858 C1857 1.523 . S
H1859 C1834 0.950 . S
H1860 C1836 0.950 . S
H1861 C1837 0.949 . S
H1862 C1839 0.950 . S
H1863 C1841 0.950 . S
C1864 C1865 1.349 . S
C1864 C1866 1.327 . S
C1864 H1889 0.950 . S
C1865 C1864 1.349 . S
C1865 C1881 1.349 . S
C1866 C1864 1.327 . S
C1866 C1885 1.429 . S
C1866 H1890 0.950 . S
C1867 C1884 1.574 . S
C1867 C1886 1.368 . S
C1867 H1891 0.949 . S
H1868 C1872 0.949 . S
C1869 C1870 1.349 . S
C1869 C1871 1.327 . S
C1869 H1892 0.950 . S
C1870 C1869 1.349 . S
C1870 C1882 1.349 . S
C1871 C1869 1.327 . S
C1871 C1887 1.429 . S
C1871 H1893 0.950 . S
C1872 H1868 0.949 . S
C1872 C1880 1.574 . S
C1872 C1888 1.368 . S
H1873 C1881 0.950 . S
H1874 C1879 0.950 . S
H1875 C1880 0.949 . S
H1876 C1882 0.950 . S
H1877 C1883 0.950 . S
H1878 C1884 0.949 . S
C1879 H1874 0.950 . S
C1879 C1881 1.327 . S
C1879 C1885 1.429 . S
C1880 C1872 1.574 . S
C1880 H1875 0.949 . S
C1880 C1886 1.368 . S
C1881 C1865 1.349 . S
C1881 H1873 0.950 . S
C1881 C1879 1.327 . S
C1882 C1870 1.349 . S
C1882 H1876 0.950 . S
C1882 C1883 1.327 . S
C1883 H1877 0.950 . S
C1883 C1882 1.327 . S
C1883 C1887 1.429 . S
C1884 C1867 1.574 . S
C1884 H1878 0.949 . S
C1884 C1888 1.368 . S
C1885 C1866 1.429 . S
C1885 C1879 1.429 . S
C1885 C1886 1.523 . S
C1886 C1867 1.368 . S
C1886 C1880 1.368 . S
C1886 C1885 1.523 . S
C1887 C1871 1.429 . S
C1887 C1883 1.429 . S
C1887 C1888 1.523 . S
C1888 C1872 1.368 . S
C1888 C1884 1.368 . S
C1888 C1887 1.523 . S
H1889 C1864 0.950 . S
H1890 C1866 0.950 . S
H1891 C1867 0.949 . S
H1892 C1869 0.950 . S
H1893 C1871 0.950 . S
C1894 C1895 1.349 . S
C1894 C1896 1.327 . S
C1894 H1919 0.950 . S
C1895 C1894 1.349 . S
C1895 C1911 1.349 . S
C1896 C1894 1.327 . S
C1896 C1915 1.429 . S
C1896 H1920 0.950 . S
C1897 C1914 1.574 . S
C1897 C1916 1.368 . S
C1897 H1921 0.949 . S
H1898 C1902 0.949 . S
C1899 C1900 1.349 . S
C1899 C1901 1.327 . S
C1899 H1922 0.950 . S
C1900 C1899 1.349 . S
C1900 C1912 1.349 . S
C1901 C1899 1.327 . S
C1901 C1917 1.429 . S
C1901 H1923 0.950 . S
C1902 H1898 0.949 . S
C1902 C1910 1.574 . S
C1902 C1918 1.368 . S
H1903 C1911 0.950 . S
H1904 C1909 0.950 . S
H1905 C1910 0.949 . S
H1906 C1912 0.950 . S
H1907 C1913 0.950 . S
H1908 C1914 0.949 . S
C1909 H1904 0.950 . S
C1909 C1911 1.327 . S
C1909 C1915 1.429 . S
C1910 C1902 1.574 . S
C1910 H1905 0.949 . S
C1910 C1916 1.368 . S
C1911 C1895 1.349 . S
C1911 H1903 0.950 . S
C1911 C1909 1.327 . S
C1912 C1900 1.349 . S
C1912 H1906 0.950 . S
C1912 C1913 1.327 . S
C1913 H1907 0.950 . S
C1913 C1912 1.327 . S
C1913 C1917 1.429 . S
C1914 C1897 1.574 . S
C1914 H1908 0.949 . S
C1914 C1918 1.368 . S
C1915 C1896 1.429 . S
C1915 C1909 1.429 . S
C1915 C1916 1.523 . S
C1916 C1897 1.368 . S
C1916 C1910 1.368 . S
C1916 C1915 1.523 . S
C1917 C1901 1.429 . S
C1917 C1913 1.429 . S
C1917 C1918 1.523 . S
C1918 C1902 1.368 . S
C1918 C1914 1.368 . S
C1918 C1917 1.523 . S
H1919 C1894 0.950 . S
H1920 C1896 0.950 . S
H1921 C1897 0.949 . S
H1922 C1899 0.950 . S
H1923 C1901 0.950 . S
C490 C195 1.483 . S
C485 C9 1.464 . S
C520 C173 2.268 . S
C515 C28 2.271 . S
C550 C170 0.345 . S
C545 C49 0.381 . S
C575 C79 2.276 . S
C580 C182 2.280 . S
C605 C99 2.269 . S
C610 C165 2.263 . S
C640 C187 0.346 . S
C635 C101 0.381 . S
C665 C128 2.277 . S
C670 C192 2.285 . S
C695 C141 1.465 . S
C700 C188 1.484 . S
C730 C246 1.515 . S
C725 C16 1.530 . S
C755 C26 0.887 . S
C760 C296 0.910 . S
C790 C219 1.486 . S
C785 C56 1.505 . S
C820 C295 0.364 . S
C815 C69 0.441 . S
C845 C89 0.459 . S
C850 C224 0.371 . S
C880 C290 2.260 . S
C875 C108 2.268 . S
C905 C126 0.906 . S
C910 C249 0.938 . S
C935 C148 2.284 . S
C940 C281 2.270 . S
C965 C19 2.290 . S
C970 C273 2.272 . S
C995 C96 0.894 . S
C1000 C303 0.918 . S
C1030 C227 1.501 . S
C1025 C106 1.518 . S
C1060 C278 0.376 . S
C1055 C121 0.448 . S
C1085 C146 1.534 . S
C1090 C236 1.517 . S
C1115 C59 2.282 . S
C1120 C300 2.277 . S
C1150 C242 0.944 . S
C1145 C76 0.912 . S
C1175 C21 0.466 . S
C1180 C241 0.382 . S
C1205 C149 1.464 . S
C1210 C357 1.483 . S
C1235 C88 2.271 . S
C1240 C335 2.268 . S
C1270 C332 0.345 . S
C1265 C109 0.381 . S
C1300 C344 2.280 . S
C1295 C139 2.276 . S
C1325 C39 2.269 . S
C1330 C327 2.263 . S
C1360 C349 0.346 . S
C1355 C41 0.381 . S
C1385 C68 2.277 . S
C1390 C354 2.285 . S
C1415 C1 1.465 . S
C1420 C350 1.484 . S
C1445 C156 1.530 . S
C1450 C408 1.515 . S
C1480 C458 0.910 . S
C1475 C86 0.887 . S
C1505 C116 1.505 . S
C1510 C381 1.486 . S
C1535 C129 0.441 . S
C1540 C457 0.364 . S
C1570 C386 0.371 . S
C1565 C29 0.459 . S
C1595 C48 2.268 . S
C1600 C452 2.260 . S
C1630 C411 0.938 . S
C1625 C66 0.906 . S
C1660 C443 2.270 . S
C1655 C8 2.284 . S
C1690 C435 2.272 . S
C1685 C159 2.290 . S
C1715 C36 0.894 . S
C1720 C465 0.918 . S
C1745 C46 1.518 . S
C1750 C389 1.501 . S
C1780 C440 0.376 . S
C1775 C61 0.448 . S
C1805 C6 1.534 . S
C1810 C398 1.517 . S
C1835 C119 2.282 . S
C1840 C462 2.277 . S
C1870 C404 0.944 . S
C1865 C136 0.912 . S
C1900 C403 0.382 . S
C1895 C81 0.466 . S
