# Generated by pormake.
# Topology anh, (6,3)-cn, num edge types: 1
# Building blocks:
#     Node 0, Type 0, BuildingBlock: BETFEN_clean_sbu_0, # of connection points: 6
#     Node 1, Type 0, BuildingBlock: BETFEN_clean_sbu_0, # of connection points: 6
#     Node 2, Type 0, BuildingBlock: BETFEN_clean_sbu_0, # of connection points: 6
#     Node 3, Type 1, BuildingBlock: WUSLED_clean_sbu_0, # of connection points: 3
#     Node 4, Type 1, BuildingBlock: WUSLED_clean_sbu_0, # of connection points: 3
#     Node 5, Type 1, BuildingBlock: WUSLED_clean_sbu_0, # of connection points: 3
#     Node 6, Type 1, BuildingBlock: WUSLED_clean_sbu_0, # of connection points: 3
#     Node 7, Type 1, BuildingBlock: WUSLED_clean_sbu_0, # of connection points: 3
#     Node 8, Type 1, BuildingBlock: WUSLED_clean_sbu_0, # of connection points: 3
#     Edge 9, Type (0, 1), BuildingBlock: EZIPEK_clean_linker_0, # of connection points: 2
#     Edge 10, Type (0, 1), BuildingBlock: EZIPEK_clean_linker_0, # of connection points: 2
#     Edge 11, Type (0, 1), BuildingBlock: EZIPEK_clean_linker_0, # of connection points: 2
#     Edge 12, Type (0, 1), BuildingBlock: EZIPEK_clean_linker_0, # of connection points: 2
#     Edge 13, Type (0, 1), BuildingBlock: EZIPEK_clean_linker_0, # of connection points: 2
#     Edge 14, Type (0, 1), BuildingBlock: EZIPEK_clean_linker_0, # of connection points: 2
#     Edge 15, Type (0, 1), BuildingBlock: EZIPEK_clean_linker_0, # of connection points: 2
#     Edge 16, Type (0, 1), BuildingBlock: EZIPEK_clean_linker_0, # of connection points: 2
#     Edge 17, Type (0, 1), BuildingBlock: EZIPEK_clean_linker_0, # of connection points: 2
#     Edge 18, Type (0, 1), BuildingBlock: EZIPEK_clean_linker_0, # of connection points: 2
#     Edge 19, Type (0, 1), BuildingBlock: EZIPEK_clean_linker_0, # of connection points: 2
#     Edge 20, Type (0, 1), BuildingBlock: EZIPEK_clean_linker_0, # of connection points: 2
#     Edge 21, Type (0, 1), BuildingBlock: EZIPEK_clean_linker_0, # of connection points: 2
#     Edge 22, Type (0, 1), BuildingBlock: EZIPEK_clean_linker_0, # of connection points: 2
#     Edge 23, Type (0, 1), BuildingBlock: EZIPEK_clean_linker_0, # of connection points: 2
#     Edge 24, Type (0, 1), BuildingBlock: EZIPEK_clean_linker_0, # of connection points: 2
#     Edge 25, Type (0, 1), BuildingBlock: EZIPEK_clean_linker_0, # of connection points: 2
#     Edge 26, Type (0, 1), BuildingBlock: EZIPEK_clean_linker_0, # of connection points: 2
# Relax obj value: 0.194
# Max RMSD: 0.214
# Mean RMSD: 0.156
data_MOF--net-anh--node1-BETFEN_clean_sbu_0--node2-WUSLED_clean_sbu_0--edge1-EZIPEK_clean_linker_0
_symmetry_space_group_name_H-M    P1
_symmetry_Int_Tables_number       1
_symmetry_cell_setting            triclinic
loop_
_symmetry_equiv_pos_as_xyz
'x, y, z'
_cell_length_a     30.544747
_cell_length_b     32.455322
_cell_length_c     55.386686
_cell_angle_alpha  90.223613
_cell_angle_beta   91.591345
_cell_angle_gamma 105.42016
loop_
_atom_site_label
_atom_site_type_symbol
_atom_site_fract_x
_atom_site_fract_y
_atom_site_fract_z
_atom_type_partial_charge
Pr0 Pr 1.02485 0.53466 0.164 0.0
Pr1 Pr 0.05807 0.62799 0.16715 0.0
C2 C 0.99173 0.45013 0.17028 0.0
C3 C 0.94491 0.42217 0.17152 0.0
C4 C 0.93125 0.3851 0.15705 0.0
C5 C 0.88778 0.35733 0.1591 0.0
C6 C 0.85743 0.36637 0.1756 0.0
C7 C 0.87011 0.40441 0.18917 0.0
C8 C 0.91343 0.43216 0.1871 0.0
C9 C 1.02709 0.57269 0.11838 0.0
C10 C 0.94833 0.58788 0.16232 0.0
C11 C 0.09893 0.7126 0.16385 0.0
C12 C 0.14437 0.74291 0.16369 0.0
C13 C 0.15125 0.78224 0.17573 0.0
C14 C 0.19481 0.80976 0.17841 0.0
C15 C 0.23241 0.79821 0.16932 0.0
C16 C 0.22546 0.75945 0.15651 0.0
C17 C 0.18154 0.73214 0.15354 0.0
C18 C 1.03124 0.59084 0.21193 0.0
C19 C 0.13594 0.57265 0.16508 0.0
O20 O 1.00581 0.47722 0.1882 0.0
O21 O 1.00422 0.46654 0.14926 0.0
O22 O 0.05801 0.58326 0.13464 0.0
O23 O 0.99382 0.54219 0.1258 0.0
O24 O 0.9815 0.62001 0.15497 0.0
O25 O 0.95769 0.5538 0.17149 0.0
O26 O 0.08527 0.68766 0.14499 0.0
O27 O 0.08767 0.6932 0.18421 0.0
O28 O 0.05492 0.57746 0.19693 0.0
O29 O 1.02011 0.62416 0.20377 0.0
O30 O 0.10213 0.53811 0.1611 0.0
O31 O 0.12804 0.61003 0.1697 0.0
H32 H 0.95457 0.37711 0.14461 0.0
H33 H 0.8784 0.32803 0.14849 0.0
H34 H 0.84714 0.41173 0.20207 0.0
H35 H 0.92253 0.46089 0.19811 0.0
H36 H 0.12306 0.79107 0.18379 0.0
H37 H 0.19953 0.83932 0.18854 0.0
H38 H 0.25404 0.74979 0.14952 0.0
H39 H 0.17672 0.70217 0.14401 0.0
Pr40 Pr 0.61136 0.07555 0.52037 0.0
Pr41 Pr 0.51177 1.04904 0.51765 0.0
C42 C 0.69759 0.11795 0.51105 0.0
C43 C 0.72347 0.16366 0.50977 0.0
C44 C 0.75559 0.18216 0.5281 0.0
C45 C 0.78136 0.22475 0.52654 0.0
C46 C 0.77565 0.24947 0.50655 0.0
C47 C 0.74283 0.23157 0.48857 0.0
C48 C 0.71695 0.18911 0.49014 0.0
C49 C 0.57408 0.06122 0.5653 0.0
C50 C 0.5569 0.15675 0.52461 0.0
C51 C 0.42204 1.0099 0.5196 0.0
C52 C 0.3937 0.96498 0.51811 0.0
C53 C 0.38933 0.94133 0.4964 0.0
C54 C 0.35976 0.90035 0.49448 0.0
C55 C 0.33405 0.88203 0.51419 0.0
C56 C 0.33976 0.90458 0.53624 0.0
C57 C 0.3694 0.94578 0.53819 0.0
C58 C 0.5488 0.06725 0.47243 0.0
C59 C 0.56891 0.96841 0.52282 0.0
O60 O 0.66647 0.10343 0.49411 0.0
O61 O 0.68514 0.10291 0.53239 0.0
O62 O 0.55934 0.0807 0.54861 0.0
O63 O 0.61039 1.05004 0.55965 0.0
O64 O 0.51855 0.12495 0.52513 0.0
O65 O 0.59558 0.14564 0.52186 0.0
O66 O 0.44782 1.02157 0.5389 0.0
O67 O 0.44187 1.02627 0.49995 0.0
O68 O 0.56345 1.04577 0.48834 0.0
O69 O 0.51522 0.08058 0.48009 0.0
O70 O 0.60697 0.9996 0.51997 0.0
O71 O 0.52973 0.97963 0.52329 0.0
H72 H 0.76133 0.16348 0.54345 0.0
H73 H 0.80671 0.23805 0.54054 0.0
H74 H 0.73809 0.25017 0.47299 0.0
H75 H 0.69238 0.17611 0.47574 0.0
H76 H 0.40774 0.95485 0.48061 0.0
H77 H 0.35556 0.88352 0.47728 0.0
H78 H 0.31994 0.89102 0.55159 0.0
H79 H 0.37234 0.96311 0.55517 0.0
Pr80 Pr 0.53211 0.52664 0.84857 0.0
Pr81 Pr 0.56042 0.6055 0.84062 0.0
C82 C 0.50471 0.44272 0.85395 0.0
C83 C 0.5299 0.41745 0.86738 0.0
C84 C 0.50687 0.38185 0.88033 0.0
C85 C 0.52928 0.35096 0.88636 0.0
C86 C 0.57245 0.35449 0.877 0.0
C87 C 0.59928 0.39504 0.87116 0.0
C88 C 0.57737 0.42651 0.86555 0.0
C89 C 0.5569 0.56639 0.8942 0.0
C90 C 0.64128 0.56412 0.85041 0.0
C91 C 0.5804 0.68958 0.83586 0.0
C92 C 0.55689 0.7178 0.84675 0.0
C93 C 0.54235 0.74659 0.83202 0.0
C94 C 0.51703 0.77179 0.84172 0.0
C95 C 0.50686 0.76885 0.86633 0.0
C96 C 0.51801 0.73759 0.88064 0.0
C97 C 0.54299 0.7119 0.87082 0.0
C98 C 0.55769 0.56176 0.79596 0.0
C99 C 0.45104 0.5737 0.84766 0.0
O100 O 0.5233 0.45989 0.8341 0.0
O101 O 0.48889 0.46851 0.86702 0.0
O102 O 0.5337 0.5792 0.878 0.0
O103 O 0.57108 0.53508 0.8861 0.0
O104 O 0.62898 0.59801 0.85676 0.0
O105 O 0.60963 0.53148 0.84147 0.0
O106 O 0.6035 0.6715 0.85067 0.0
O107 O 0.55549 0.66344 0.81991 0.0
O108 O 0.52566 0.55532 0.81065 0.0
O109 O 0.59376 0.58707 0.80578 0.0
O110 O 0.45871 0.53593 0.8466 0.0
O111 O 0.48537 0.60796 0.84724 0.0
H112 H 0.4708 0.37566 0.88329 0.0
H113 H 0.50911 0.3204 0.89266 0.0
H114 H 0.63348 0.39899 0.86496 0.0
H115 H 0.59599 0.45441 0.85609 0.0
H116 H 0.55103 0.74987 0.81315 0.0
H117 H 0.50821 0.79584 0.83048 0.0
H118 H 0.51008 0.7351 0.89961 0.0
H119 H 0.55206 0.68807 0.88211 0.0
C120 C 0.62216 0.16221 0.2062 0.0
C121 C 0.63811 0.19478 0.22358 0.0
C122 C 0.6946 0.23335 0.19586 0.0
C123 C 0.67403 0.23025 0.21839 0.0
C124 C 0.67808 0.20118 0.17837 0.0
C125 C 0.64206 0.16587 0.18351 0.0
U126 U 0.55507 0.08187 0.25098 0.0
O127 O 0.48288 1.04654 0.25065 0.0
O128 O 0.53522 1.01154 0.24869 0.0
C129 C 0.49163 1.00937 0.24738 0.0
C130 C 0.58662 0.12322 0.21175 0.0
C131 C 0.46417 0.98034 0.22863 0.0
C132 C 0.4003 0.96232 0.19966 0.0
C133 C 0.43211 0.99282 0.21361 0.0
C134 C 0.43474 0.9073 0.21371 0.0
C135 C 0.40022 0.91909 0.20048 0.0
C136 C 0.46626 0.93764 0.22778 0.0
C137 C 0.58411 0.10125 0.31925 0.0
C138 C 0.54068 0.06392 0.35258 0.0
C139 C 0.61512 0.11246 0.36039 0.0
C140 C 0.61925 0.12086 0.33571 0.0
C141 C 0.57569 0.08427 0.36906 0.0
C142 C 0.54488 0.07231 0.32778 0.0
C143 C 0.58919 0.11247 0.29351 0.0
O144 O 0.60162 0.09191 0.22066 0.0
O145 O 0.5511 0.12871 0.22291 0.0
O146 O 0.55486 0.1229 0.28268 0.0
O147 O 0.60698 0.08792 0.28015 0.0
H148 H 0.62342 0.19234 0.24127 0.0
H149 H 0.68663 0.25469 0.23214 0.0
H150 H 0.69381 0.20295 0.16098 0.0
H151 H 0.63036 0.14092 0.16995 0.0
H152 H 0.37386 0.97197 0.18955 0.0
H153 H 0.42986 1.02556 0.21366 0.0
H154 H 0.43505 0.87404 0.21463 0.0
H155 H 0.49059 0.92718 0.23916 0.0
H156 H 0.50984 1.04234 0.35898 0.0
H157 H 0.64229 0.12868 0.37283 0.0
H158 H 0.64972 0.14328 0.32948 0.0
H159 H 0.51738 0.0568 0.31534 0.0
C160 C 0.56287 0.68583 0.53993 0.0
C161 C 0.57598 0.71553 0.55949 0.0
C162 C 0.56647 0.77848 0.5351 0.0
C163 C 0.57757 0.76027 0.55716 0.0
C164 C 0.55346 0.74855 0.51569 0.0
C165 C 0.55177 0.70408 0.51804 0.0
U166 U 0.55755 0.56156 0.56314 0.0
O167 O 0.52116 0.49962 0.54446 0.0
O168 O 0.5944 0.51573 0.54865 0.0
C169 C 0.55784 0.48665 0.54084 0.0
C170 C 0.56207 0.63713 0.54069 0.0
C171 C 0.55605 0.43776 0.54072 0.0
C172 C 0.54189 0.36844 0.51752 0.0
C173 C 0.54183 0.41258 0.51941 0.0
C174 C 0.56988 0.37089 0.55839 0.0
C175 C 0.55596 0.34591 0.53687 0.0
C176 C 0.57019 0.41542 0.56023 0.0
C177 C 0.5496 0.56 0.63738 0.0
C178 C 0.55376 0.52515 0.67608 0.0
C179 C 0.54413 0.59606 0.67554 0.0
C180 C 0.54334 0.59525 0.65009 0.0
C181 C 0.55442 0.56284 0.68945 0.0
C182 C 0.553 0.52427 0.65064 0.0
C183 C 0.55248 0.56053 0.61052 0.0
O184 O 0.59747 0.62471 0.5487 0.0
O185 O 0.52422 0.6073 0.54435 0.0
O186 O 0.51627 0.5528 0.59607 0.0
O187 O 0.59139 0.56895 0.59954 0.0
H188 H 0.58524 0.70427 0.57677 0.0
H189 H 0.58789 0.78093 0.57285 0.0
H190 H 0.54445 0.75965 0.49832 0.0
H191 H 0.54185 0.68362 0.50223 0.0
H192 H 0.53093 0.35178 0.50053 0.0
H193 H 0.53097 0.42741 0.50369 0.0
H194 H 0.58125 0.35602 0.57395 0.0
H195 H 0.58187 0.43242 0.57704 0.0
H196 H 0.55358 0.49563 0.68504 0.0
H197 H 0.53551 0.62287 0.68372 0.0
H198 H 0.53779 0.62238 0.64033 0.0
H199 H 0.555 0.49544 0.64131 0.0
C200 C 0.92548 0.5696 0.86613 0.0
C201 C 0.90065 0.5719 0.8868 0.0
C202 C 0.83262 0.56764 0.86154 0.0
C203 C 0.85442 0.57098 0.8845 0.0
C204 C 0.8577 0.56537 0.84099 0.0
C205 C 0.90366 0.56643 0.84329 0.0
U206 U 0.05074 0.57149 0.89036 0.0
O207 O 0.11097 0.60412 0.87015 0.0
O208 O 0.09074 0.53413 0.87166 0.0
C209 C 0.12052 0.56836 0.8641 0.0
C210 C 0.97386 0.56983 0.86718 0.0
C211 C 0.16896 0.56792 0.8649 0.0
C212 C 0.22907 0.54286 0.84663 0.0
C213 C 0.18301 0.54106 0.84859 0.0
C214 C 0.24817 0.59801 0.87766 0.0
C215 C 0.26215 0.57176 0.86088 0.0
C216 C 0.20192 0.59611 0.87968 0.0
C217 C 0.05548 0.57785 0.96363 0.0
C218 C 0.08936 0.58607 1.00429 0.0
C219 C 1.00781 0.57241 0.99868 0.0
C220 C 1.01228 0.5715 0.97344 0.0
C221 C 0.04641 0.57946 0.01426 0.0
C222 C 0.09379 0.58531 0.97926 0.0
C223 C 0.06285 0.57561 0.93746 0.0
O224 O 1.00427 0.60548 0.87342 0.0
O225 O 0.98441 0.53525 0.87474 0.0
O226 O 0.04744 0.53925 0.92555 0.0
O227 O 0.06867 0.60991 0.92406 0.0
H228 H 0.91688 0.57431 0.90458 0.0
H229 H 0.8356 0.5728 0.90058 0.0
H230 H 0.84164 0.56279 0.82315 0.0
H231 H 0.92226 0.56462 0.8271 0.0
H232 H 0.23902 0.52224 0.83365 0.0
H233 H 0.15831 0.51933 0.83687 0.0
H234 H 0.27314 0.62038 0.88891 0.0
H235 H 0.19208 0.61726 0.89237 0.0
H236 H 0.11948 0.59135 0.01593 0.0
H237 H 0.97433 0.5671 1.00606 0.0
H238 H 0.98225 0.56554 0.96171 0.0
H239 H 0.12738 0.59006 0.97206 0.0
C240 C 0.96038 0.4951 0.47925 0.0
C241 C 0.92973 0.47313 0.46118 0.0
C242 C 0.89559 0.41808 0.48993 0.0
C243 C 0.89743 0.43494 0.46652 0.0
C244 C 0.92539 0.44071 0.50811 0.0
C245 C 0.9575 0.47897 0.5028 0.0
U246 U 1.03226 0.57385 0.43467 0.0
O247 O 0.06337 0.64307 0.438 0.0
O248 O 0.10683 0.59931 0.43456 0.0
C249 C 0.10506 0.63891 0.438 0.0
C250 C 0.99742 0.53308 0.47361 0.0
C251 C 0.13824 0.66511 0.45567 0.0
C252 C 0.15635 0.71001 0.4919 0.0
C253 C 0.12511 0.67918 0.47773 0.0
C254 C 0.21469 0.7108 0.46303 0.0
C255 C 0.20093 0.72706 0.48415 0.0
C256 C 0.18361 0.68013 0.44892 0.0
C257 C 1.00304 0.55729 0.36601 0.0
C258 C 0.05034 0.59152 0.33321 0.0
C259 C 0.97904 0.54025 0.32414 0.0
C260 C 0.9707 0.53558 0.34883 0.0
C261 C 1.02135 0.56471 0.31565 0.0
C262 C 0.04209 0.58679 0.35805 0.0
C263 C 0.99541 0.54758 0.39186 0.0
O264 O 1.03145 0.52507 0.46222 0.0
O265 O 0.98532 0.5662 0.46491 0.0
O266 O 0.98305 0.57609 0.40505 0.0
O267 O 1.02556 0.53147 0.40295 0.0
H268 H 0.93159 0.48495 0.44287 0.0
H269 H 0.87486 0.41776 0.45224 0.0
H270 H 0.92461 0.42813 0.52623 0.0
H271 H 0.98094 0.49538 0.51695 0.0
H272 H 0.14511 0.72235 0.50813 0.0
H273 H 0.09035 0.66794 0.4834 0.0
H274 H 0.24881 0.72373 0.4567 0.0
H275 H 0.19448 0.66977 0.43201 0.0
H276 H 0.07932 0.61682 0.32837 0.0
H277 H 0.95168 0.52413 0.31189 0.0
H278 H 0.93897 0.51441 0.35451 0.0
H279 H 0.06632 0.60603 0.37101 0.0
C280 C 0.48667 0.99813 0.82524 0.0
C281 C 0.48252 0.96003 0.81231 0.0
C282 C 0.48876 0.92448 0.84982 0.0
C283 C 0.48355 0.92316 0.82462 0.0
C284 C 0.49361 0.96269 0.86271 0.0
C285 C 0.49267 0.99966 0.85036 0.0
U286 U 0.48368 0.05181 0.76624 0.0
O287 O 0.45218 0.10267 0.7551 0.0
O288 O 0.52652 0.11332 0.75435 0.0
C289 C 0.4924 0.13059 0.75603 0.0
C290 C 0.48609 1.03642 0.81227 0.0
C291 C 0.49977 0.16167 0.77576 0.0
C292 C 0.49108 0.17312 0.81859 0.0
C293 C 0.47632 0.15005 0.79735 0.0
C294 C 0.55354 0.21892 0.79712 0.0
C295 C 0.52942 0.20793 0.8184 0.0
C296 C 0.5386 0.19614 0.77586 0.0
C297 C 0.48846 1.00586 0.7076 0.0
C298 C 0.49596 0.06037 0.67702 0.0
C299 C 0.52158 0.9968 0.66963 0.0
C300 C 0.50801 0.98164 0.69246 0.0
C301 C 0.51607 1.03639 0.66205 0.0
C302 C 0.48232 1.0452 0.69977 0.0
C303 C 0.48286 0.99544 0.73298 0.0
O304 O 0.5228 0.05185 0.79992 0.0
O305 O 0.448 1.03427 0.80001 0.0
O306 O 0.44506 1.00018 0.7421 0.0
O307 O 0.51958 1.01337 0.74606 0.0
H308 H 0.47858 0.95896 0.79279 0.0
H309 H 0.48038 0.89372 0.81458 0.0
H310 H 0.49828 0.96375 0.88218 0.0
H311 H 0.49663 1.02929 0.86032 0.0
H312 H 0.4715 0.16523 0.83475 0.0
H313 H 0.44719 0.12247 0.79804 0.0
H314 H 0.58271 0.24657 0.79677 0.0
H315 H 0.55818 0.20443 0.75973 0.0
H316 H 0.49105 0.09067 0.67112 0.0
H317 H 0.5366 0.97788 0.65788 0.0
H318 H 0.51401 0.95188 0.69856 0.0
H319 H 0.46834 0.06484 0.71157 0.0
C320 C 0.66463 0.58618 0.14963 0.0
C321 C 0.69203 0.59498 0.12938 0.0
C322 C 0.75828 0.59122 0.15419 0.0
C323 C 0.73861 0.59744 0.13166 0.0
C324 C 0.73077 0.58276 0.17441 0.0
C325 C 0.68443 0.58034 0.17213 0.0
U326 U 0.53892 0.57798 0.12398 0.0
O327 O 0.47861 0.5391 0.14222 0.0
O328 O 0.49375 0.60901 0.1432 0.0
C329 C 0.4666 0.57264 0.15004 0.0
C330 C 0.61551 0.58307 0.14844 0.0
C331 C 0.41751 0.56972 0.15098 0.0
C332 C 0.35163 0.56369 0.17595 0.0
C333 C 0.39745 0.56481 0.17367 0.0
C334 C 0.34465 0.5716 0.13267 0.0
C335 C 0.32472 0.56717 0.15551 0.0
C336 C 0.39079 0.57298 0.13041 0.0
C337 C 0.53929 0.57926 0.05024 0.0
C338 C 0.51412 0.59447 0.00981 0.0
C339 C 0.57603 0.56136 0.01451 0.0
C340 C 0.57222 0.56214 0.03982 0.0
C341 C 0.54677 0.57734 0.99928 0.0
C342 C 0.51056 0.59552 0.03495 0.0
C343 C 0.5315 0.57866 0.07662 0.0
O344 O 0.60252 0.61672 0.1414 0.0
O345 O 0.58763 0.54669 0.1411 0.0
O346 O 0.52823 0.54349 0.089 0.0
O347 O 0.5413 0.61396 0.08977 0.0
H348 H 0.67742 0.59964 0.1119 0.0
H349 H 0.75924 0.60365 0.11581 0.0
H350 H 0.7451 0.57751 0.19188 0.0
H351 H 0.66387 0.57362 0.18801 0.0
H352 H 0.33726 0.56055 0.19373 0.0
H353 H 0.41751 0.5624 0.18979 0.0
H354 H 0.32458 0.57455 0.11666 0.0
H355 H 0.40561 0.57697 0.11275 0.0
H356 H 0.49101 0.60668 0.9985 0.0
H357 H 0.60136 0.54781 1.00678 0.0
H358 H 0.5946 0.54912 0.05117 0.0
H359 H 0.48459 0.60844 0.04252 0.0
C360 C 0.19892 0.53521 0.17203 0.0
C361 C 0.18416 0.57033 0.16277 0.0
C362 C 0.26285 0.60535 0.1523 0.0
C363 C 0.27626 0.568 0.15825 0.0
N364 N 0.25407 0.49372 0.16948 0.0
N365 N 0.20137 0.63175 0.13663 0.0
C366 C 0.24338 0.53176 0.16685 0.0
C367 C 0.21594 0.60357 0.15089 0.0
N368 N 0.17166 0.50619 0.18669 0.0
N369 N 0.29475 0.64296 0.14847 0.0
H370 H 0.1671 0.62878 0.13267 0.0
H371 H 0.22334 0.65444 0.12622 0.0
H372 H 0.32959 0.64597 0.14992 0.0
H373 H 0.28634 0.6719 0.14643 0.0
H374 H 0.18247 0.48215 0.19549 0.0
H375 H 0.14027 0.50892 0.19229 0.0
H376 H 0.23003 0.46526 0.17327 0.0
H377 H 0.28593 0.48981 0.16554 0.0
C378 C 0.84918 0.29658 0.49216 0.0
C379 C 0.80686 0.29282 0.5032 0.0
C380 C 0.82299 0.37112 0.50621 0.0
C381 C 0.86514 0.37493 0.49497 0.0
N382 N 0.91876 0.34272 0.47657 0.0
N383 N 0.75535 0.32475 0.52367 0.0
C384 C 0.87843 0.33796 0.48788 0.0
C385 C 0.79426 0.32967 0.51104 0.0
N386 N 0.86166 0.26032 0.48636 0.0
N387 N 0.80987 0.40725 0.51139 0.0
H388 H 0.7333 0.29492 0.52707 0.0
H389 H 0.74589 0.34966 0.53205 0.0
H390 H 0.83033 0.43797 0.50837 0.0
H391 H 0.77795 0.40726 0.51743 0.0
H392 H 0.89338 0.25986 0.48026 0.0
H393 H 0.84061 0.22957 0.48852 0.0
H394 H 0.92914 0.31796 0.46865 0.0
H395 H 0.94215 0.37227 0.47433 0.0
C396 C 0.53304 0.84083 0.88127 0.0
C397 C 0.49524 0.80546 0.87715 0.0
C398 C 0.4491 0.85258 0.86474 0.0
C399 C 0.48994 0.88555 0.8626 0.0
N400 N 0.57194 0.91001 0.86622 0.0
N401 N 0.4158 0.77612 0.86891 0.0
C402 C 0.5323 0.87994 0.87068 0.0
C403 C 0.45223 0.81114 0.87092 0.0
N404 N 0.57087 0.83563 0.89318 0.0
N405 N 0.4081 0.86076 0.86002 0.0
H406 H 0.41846 0.74589 0.87401 0.0
H407 H 0.38405 0.77672 0.86184 0.0
H408 H 0.40521 0.89097 0.85512 0.0
H409 H 0.377 0.83863 0.86253 0.0
H410 H 0.59903 0.86097 0.89756 0.0
H411 H 0.57174 0.80653 0.90082 0.0
H412 H 0.60384 0.9046 0.86898 0.0
H413 H 0.57302 0.93895 0.85782 0.0
C414 C 0.88535 0.62248 0.17172 0.0
C415 C 0.89972 0.58931 0.16015 0.0
C416 C 0.82033 0.55518 0.14736 0.0
C417 C 0.80704 0.59078 0.15642 0.0
N418 N 0.82717 0.66051 0.17534 0.0
N419 N 0.88104 0.52671 0.13406 0.0
C420 C 0.83966 0.62505 0.16811 0.0
C421 C 0.8672 0.55632 0.14725 0.0
N422 N 0.91465 0.65031 0.18714 0.0
N423 N 0.78794 0.51934 0.13972 0.0
H424 H 0.91451 0.52525 0.13383 0.0
H425 H 0.85989 0.50566 0.12177 0.0
H426 H 0.75322 0.51707 0.1395 0.0
H427 H 0.79506 0.49045 0.13573 0.0
H428 H 0.90478 0.67187 0.19833 0.0
H429 H 0.94811 0.64938 0.19042 0.0
H430 H 0.8502 0.68844 0.18167 0.0
H431 H 0.79403 0.66329 0.17327 0.0
C432 C 0.30302 0.80175 0.51703 0.0
C433 C 0.29688 0.84208 0.51034 0.0
C434 C 0.22546 0.80688 0.48878 0.0
C435 C 0.23119 0.76644 0.49558 0.0
N436 N 0.26965 0.72505 0.52005 0.0
N437 N 0.24755 0.88361 0.49523 0.0
C438 C 0.2682 0.7638 0.51102 0.0
C439 C 0.25647 0.84473 0.49797 0.0
N440 N 0.3428 0.79974 0.52826 0.0
N441 N 0.19172 0.8092 0.47249 0.0
H442 H 0.2696 0.91214 0.50161 0.0
H443 H 0.21654 0.88728 0.48868 0.0
H444 H 0.16753 0.78243 0.4656 0.0
H445 H 0.18952 0.83752 0.46441 0.0
H446 H 0.35165 0.77133 0.53134 0.0
H447 H 0.36836 0.82697 0.53335 0.0
H448 H 0.2933 0.72119 0.53315 0.0
H449 H 0.24461 0.69693 0.51584 0.0
C450 C 0.54766 0.3163 0.8389 0.0
C451 C 0.57365 0.31885 0.86075 0.0
C452 C 0.56887 0.24289 0.85657 0.0
C453 C 0.53675 0.2407 0.83729 0.0
N454 N 0.48364 0.27263 0.81657 0.0
N455 N 0.60822 0.28432 0.89126 0.0
C456 C 0.52144 0.27644 0.83108 0.0
C457 C 0.58414 0.28189 0.86997 0.0
N458 N 0.54912 0.3513 0.82508 0.0
N459 N 0.58453 0.20823 0.86178 0.0
H460 H 0.62153 0.31339 0.90039 0.0
H461 H 0.61366 0.25771 0.90003 0.0
H462 H 0.57183 0.179 0.85275 0.0
H463 H 0.61083 0.20906 0.8743 0.0
H464 H 0.53111 0.34947 0.80865 0.0
H465 H 0.57403 0.37991 0.82757 0.0
H466 H 0.47022 0.29845 0.813 0.0
H467 H 0.46327 0.24313 0.81044 0.0
C468 C 0.54739 0.89441 0.54571 0.0
C469 C 0.56974 0.91985 0.52618 0.0
C470 C 0.59549 0.8545 0.51458 0.0
C471 C 0.5681 0.82769 0.53218 0.0
N472 N 0.51033 0.82394 0.56142 0.0
N473 N 0.61021 0.91865 0.48964 0.0
C474 C 0.54199 0.84838 0.54679 0.0
C475 C 0.59252 0.89819 0.51007 0.0
N476 N 0.5339 0.91469 0.56454 0.0
N477 N 0.62637 0.83903 0.50265 0.0
H478 H 0.6084 0.94947 0.4855 0.0
H479 H 0.62271 0.90365 0.47578 0.0
H480 H 0.63061 0.80863 0.50572 0.0
H481 H 0.65085 0.85778 0.49168 0.0
H482 H 0.52104 0.89932 0.58032 0.0
H483 H 0.54187 0.94784 0.5657 0.0
H484 H 0.48682 0.83591 0.57049 0.0
H485 H 0.50445 0.79086 0.56247 0.0
C486 C 0.70337 0.53159 0.86587 0.0
C487 C 0.69012 0.564 0.85268 0.0
C488 C 0.77072 0.60147 0.84805 0.0
C489 C 0.78352 0.56657 0.85876 0.0
N490 N 0.76116 0.49412 0.87313 0.0
N491 N 0.71179 0.6258 0.82708 0.0
C492 C 0.74956 0.53027 0.8662 0.0
C493 C 0.724 0.59788 0.8426 0.0
N494 N 0.67265 0.50381 0.87952 0.0
N495 N 0.80303 0.63864 0.84374 0.0
H496 H 0.67815 0.62374 0.82203 0.0
H497 H 0.73515 0.64835 0.8173 0.0
H498 H 0.83752 0.64269 0.84769 0.0
H499 H 0.7952 0.66666 0.83841 0.0
H500 H 0.6814 0.48191 0.89115 0.0
H501 H 0.63961 0.50612 0.8814 0.0
H502 H 0.73716 0.46528 0.87623 0.0
H503 H 0.79459 0.49181 0.87355 0.0
C504 C 0.29223 0.82821 0.20089 0.0
C505 C 0.27892 0.82471 0.17611 0.0
C506 C 0.35026 0.87738 0.16658 0.0
C507 C 0.35947 0.88558 0.19167 0.0
N508 N 0.33419 0.87414 0.23271 0.0
N509 N 0.29355 0.84779 0.13507 0.0
C510 C 0.3292 0.86232 0.20885 0.0
C511 C 0.30767 0.84951 0.15876 0.0
N512 N 0.2699 0.79841 0.21682 0.0
N513 N 0.38237 0.89574 0.15037 0.0
H514 H 0.26277 0.82765 0.12874 0.0
H515 H 0.31082 0.86833 0.122 0.0
H516 H 0.4136 0.91647 0.15564 0.0
H517 H 0.37964 0.88776 0.13206 0.0
H518 H 0.28104 0.79716 0.23469 0.0
H519 H 0.24323 0.77222 0.21151 0.0
H520 H 0.31001 0.86113 0.24543 0.0
H521 H 0.35997 0.89983 0.23946 0.0
C522 C 0.5301 0.21934 0.54563 0.0
C523 C 0.55729 0.20571 0.52801 0.0
C524 C 0.58776 0.28467 0.5186 0.0
C525 C 0.5569 0.29739 0.53421 0.0
N526 N 0.49363 0.27309 0.56012 0.0
N527 N 0.60971 0.22923 0.49578 0.0
C528 C 0.52683 0.26349 0.54698 0.0
C529 C 0.58558 0.23965 0.51414 0.0
N530 N 0.50929 0.19067 0.56246 0.0
N531 N 0.62104 0.31603 0.50851 0.0
H532 H 0.61093 0.19822 0.49205 0.0
H533 H 0.62582 0.25089 0.48292 0.0
H534 H 0.62383 0.34848 0.51108 0.0
H535 H 0.64836 0.31024 0.49954 0.0
H536 H 0.49325 0.19904 0.57734 0.0
H537 H 0.51251 0.15954 0.56323 0.0
H538 H 0.46713 0.24996 0.56753 0.0
H539 H 0.49029 0.30412 0.5618 0.0
C540 C 0.38388 0.56571 0.87407 0.0
C541 C 0.40402 0.57722 0.85145 0.0
C542 C 0.33331 0.59196 0.83637 0.0
C543 C 0.31146 0.57474 0.85787 0.0
N544 N 0.31443 0.5388 0.8957 0.0
N545 N 0.39732 0.59835 0.81019 0.0
C546 C 0.33637 0.55991 0.87635 0.0
C547 C 0.37862 0.58975 0.83235 0.0
N548 N 0.4106 0.56213 0.89369 0.0
N549 N 0.3112 0.61155 0.82013 0.0
H550 H 0.4307 0.59808 0.80684 0.0
H551 H 0.37895 0.60288 0.79477 0.0
H552 H 0.27828 0.61413 0.82257 0.0
H553 H 0.32672 0.62847 0.80534 0.0
H554 H 0.39864 0.55755 0.91118 0.0
H555 H 0.44583 0.56883 0.89285 0.0
H556 H 0.33004 0.52321 0.90833 0.0
H557 H 0.27959 0.53349 0.89796 0.0
C558 C 0.77326 0.33351 0.16924 0.0
C559 C 0.81502 0.33336 0.18107 0.0
C560 C 0.77811 0.26721 0.20184 0.0
C561 C 0.73575 0.26856 0.19115 0.0
N562 N 0.69105 0.30543 0.16742 0.0
N563 N 0.85623 0.30503 0.21173 0.0
C564 C 0.73275 0.30245 0.17558 0.0
C565 C 0.8171 0.30169 0.19832 0.0
N566 N 0.77261 0.36282 0.15166 0.0
N567 N 0.78151 0.23205 0.21452 0.0
H568 H 0.88608 0.32907 0.20929 0.0
H569 H 0.85821 0.28603 0.2266 0.0
H570 H 0.75382 0.20603 0.2176 0.0
H571 H 0.81234 0.22692 0.2203 0.0
H572 H 0.7444 0.36205 0.14051 0.0
H573 H 0.80147 0.38664 0.14713 0.0
H574 H 0.68588 0.33144 0.15795 0.0
H575 H 0.66085 0.28313 0.17167 0.0
C576 C 0.04683 0.54245 0.07967 0.0
C577 C 1.03647 0.57685 0.09214 0.0
C578 C 0.03771 0.61521 0.05384 0.0
C579 C 0.04236 0.57857 0.04111 0.0
N580 N 0.04676 0.50548 0.04152 0.0
N581 N 1.01946 0.64509 0.0914 0.0
C582 C 0.04581 0.54171 0.05395 0.0
C583 C 1.03144 0.61313 0.07931 0.0
N584 N 0.05896 0.51106 0.09248 0.0
N585 N 0.04058 0.65233 0.04166 0.0
H586 H 1.01627 0.64523 0.1101 0.0
H587 H 1.01014 0.67011 0.08285 0.0
H588 H 0.0445 0.65479 0.02303 0.0
H589 H 0.04253 0.68146 0.05015 0.0
H590 H 0.07154 0.48754 0.08459 0.0
H591 H 0.06068 0.51081 0.11131 0.0
H592 H 0.04414 0.47614 0.04971 0.0
H593 H 0.04643 0.50374 0.02271 0.0
C594 C 0.56535 1.03578 0.43234 0.0
C595 C 0.56124 0.07133 0.44645 0.0
C596 C 0.56185 0.11291 0.40941 0.0
C597 C 0.57001 0.07903 0.39563 0.0
N598 N 0.58787 1.01112 0.39433 0.0
N599 N 0.56713 0.14696 0.44857 0.0
C600 C 0.57443 1.04135 0.40722 0.0
C601 C 0.56298 0.11084 0.43498 0.0
N602 N 0.55781 0.99613 0.44229 0.0
N603 N 0.5514 0.14659 0.39807 0.0
H604 H 0.56928 0.14706 0.46735 0.0
H605 H 0.5733 0.17742 0.44124 0.0
H606 H 0.54975 0.14922 0.37933 0.0
H607 H 0.54008 0.16976 0.40721 0.0
H608 H 0.55555 0.96851 0.43215 0.0
H609 H 0.54956 0.98975 0.46022 0.0
H610 H 0.59666 0.98529 0.40229 0.0
H611 H 0.59391 1.01379 0.37587 0.0
C612 C 0.56644 0.52758 0.75591 0.0
C613 C 0.55174 0.55893 0.76886 0.0
C614 C 0.55532 0.6001 0.73144 0.0
C615 C 0.56145 0.56528 0.71737 0.0
N616 N 0.60521 0.51353 0.7207 0.0
N617 N 0.52445 0.62206 0.76746 0.0
C618 C 0.57557 0.53312 0.73071 0.0
C619 C 0.54333 0.59394 0.75608 0.0
N620 N 0.57163 0.49222 0.76767 0.0
N621 N 0.57073 0.64086 0.72336 0.0
H622 H 0.51337 0.61753 0.78511 0.0
H623 H 0.51524 0.64669 0.75832 0.0
H624 H 0.59176 0.64784 0.70855 0.0
H625 H 0.57017 0.66762 0.73372 0.0
H626 H 0.57769 0.46608 0.7587 0.0
H627 H 0.56544 0.48748 0.78603 0.0
H628 H 0.61984 0.49255 0.73007 0.0
H629 H 0.6208 0.52376 0.70446 0.0
C630 C 0.51547 1.0297 0.59519 0.0
C631 C 0.55729 0.05921 0.58995 0.0
C632 C 0.56984 0.07965 0.63257 0.0
C633 C 0.52764 1.05027 0.63737 0.0
N634 N 0.45422 1.00821 0.62295 0.0
N635 N 0.61922 0.11951 0.60221 0.0
C636 C 0.49835 1.02909 0.6185 0.0
C637 C 0.58297 0.08665 0.60822 0.0
N638 N 0.49356 1.00013 0.57842 0.0
N639 N 0.59779 0.09949 0.65125 0.0
H640 H 0.62958 0.1253 0.58446 0.0
H641 H 0.63663 0.14302 0.61444 0.0
H642 H 0.58835 0.09589 0.66924 0.0
H643 H 0.63105 0.11769 0.64905 0.0
H644 H 0.46591 0.97449 0.58217 0.0
H645 H 0.50581 0.99918 0.56125 0.0
H646 H 0.43014 0.99573 0.60928 0.0
H647 H 0.44057 1.00725 0.64006 0.0
C648 C 0.51701 0.54246 0.9332 0.0
C649 C 0.55203 0.57192 0.92084 0.0
C650 C 0.58158 0.60699 0.95979 0.0
C651 C 0.54908 0.57524 0.97224 0.0
N652 N 0.48881 0.50997 0.97117 0.0
N653 N 0.62044 0.62958 0.9224 0.0
C654 C 0.5175 0.54228 0.959 0.0
C655 C 0.58501 0.60354 0.93417 0.0
N656 N 0.48268 0.51507 0.92021 0.0
N657 N 0.60838 0.64114 0.97242 0.0
H658 H 0.62296 0.62915 0.90366 0.0
H659 H 0.64867 0.64974 0.9312 0.0
H660 H 0.60737 0.64432 0.99114 0.0
H661 H 0.62922 0.66782 0.9643 0.0
H662 H 0.45348 0.49603 0.92778 0.0
H663 H 0.48131 0.51427 0.90143 0.0
H664 H 0.46849 0.48239 0.96288 0.0
H665 H 0.48771 0.50904 0.98998 0.0
C666 C 0.99958 0.54588 0.24765 0.0
C667 C 1.03214 0.5813 0.23826 0.0
C668 C 0.07021 0.59343 0.2784 0.0
C669 C 1.03197 0.5645 0.28865 0.0
N670 N 0.98577 0.49343 0.27914 0.0
N671 N 0.09982 0.63929 0.24496 0.0
C672 C 1.00343 0.53469 0.27224 0.0
C673 C 0.06786 0.60528 0.25372 0.0
N674 N 0.96415 0.52333 0.23338 0.0
N675 N 0.11131 0.60255 0.29037 0.0
H676 H 0.10064 0.64797 0.22683 0.0
H677 H 0.12356 0.66043 0.25614 0.0
H678 H 0.11661 0.58531 0.30554 0.0
H679 H 0.14123 0.62085 0.28305 0.0
H680 H 0.93711 0.49991 0.24019 0.0
H681 H 0.96003 0.53063 0.21532 0.0
H682 H 0.96814 0.46934 0.26725 0.0
H683 H 0.99463 0.48242 0.29577 0.0
loop_
_geom_bond_atom_site_label_1
_geom_bond_atom_site_label_2
_geom_bond_distance
_geom_bond_site_symmetry_2
_ccdc_geom_bond_type
Pr0 C2 2.880 . S
Pr0 O20 2.562 . S
Pr0 O21 2.490 . S
Pr0 O22 2.695 1_655 S
Pr0 O23 2.512 . S
Pr0 O25 2.437 . S
Pr0 O28 2.436 . S
Pr0 O30 2.438 1_655 S
Pr1 C11 2.880 . S
Pr1 O22 2.436 . S
Pr1 O24 2.438 1_455 S
Pr1 O26 2.562 . S
Pr1 O27 2.490 . S
Pr1 O28 2.695 1_455 S
Pr1 O29 2.512 . S
Pr1 O31 2.437 . S
C2 Pr0 2.880 . S
C2 C3 1.491 . S
C2 O20 1.254 . S
C2 O21 1.225 . S
C3 C2 1.491 . S
C3 C4 1.392 . S
C3 C8 1.356 . S
C4 C3 1.392 . S
C4 C5 1.368 . S
C4 H32 0.929 . S
C5 C4 1.368 . S
C5 C6 1.386 . S
C5 H33 0.929 . S
C6 C5 1.386 . S
C6 C7 1.373 . S
C7 C6 1.373 . S
C7 C8 1.409 . S
C7 H34 0.931 . S
C8 C3 1.356 . S
C8 C7 1.409 . S
C8 H35 0.930 . S
C9 O22 1.270 . S
C9 O23 1.248 1_455 S
C10 O24 1.267 . S
C10 O25 1.278 . S
C11 Pr1 2.880 . S
C11 C12 1.491 . S
C11 O26 1.254 . S
C11 O27 1.225 . S
C12 C11 1.491 . S
C12 C13 1.392 . S
C12 C17 1.356 . S
C13 C12 1.392 . S
C13 C14 1.368 . S
C13 H36 0.929 . S
C14 C13 1.368 . S
C14 C15 1.386 . S
C14 H37 0.929 . S
C15 C14 1.386 . S
C15 C16 1.373 . S
C16 C15 1.373 . S
C16 C17 1.409 . S
C16 H38 0.931 . S
C17 C12 1.356 . S
C17 C16 1.409 . S
C17 H39 0.930 . S
C18 O28 1.270 1_455 S
C18 O29 1.248 . S
C19 O30 1.267 . S
C19 O31 1.278 . S
O20 Pr0 2.562 . S
O20 C2 1.254 . S
O21 Pr0 2.490 . S
O21 C2 1.225 . S
O22 Pr0 2.695 1_455 S
O22 Pr1 2.436 . S
O22 C9 1.270 . S
O23 Pr0 2.512 . S
O23 C9 1.248 1_655 S
O24 Pr1 2.438 1_655 S
O24 C10 1.267 . S
O25 Pr0 2.437 . S
O25 C10 1.278 . S
O26 Pr1 2.562 . S
O26 C11 1.254 . S
O27 Pr1 2.490 . S
O27 C11 1.225 . S
O28 Pr0 2.436 . S
O28 Pr1 2.695 1_655 S
O28 C18 1.270 1_655 S
O29 Pr1 2.512 . S
O29 C18 1.248 . S
O30 Pr0 2.438 1_455 S
O30 C19 1.267 . S
O31 Pr1 2.437 . S
O31 C19 1.278 . S
H32 C4 0.929 . S
H33 C5 0.929 . S
H34 C7 0.931 . S
H35 C8 0.930 . S
H36 C13 0.929 . S
H37 C14 0.929 . S
H38 C16 0.931 . S
H39 C17 0.930 . S
Pr40 C42 2.880 . S
Pr40 O60 2.562 . S
Pr40 O61 2.490 . S
Pr40 O62 2.695 . S
Pr40 O63 2.512 . S
Pr40 O65 2.437 . S
Pr40 O68 2.436 . S
Pr40 O70 2.438 1_545 S
Pr41 C51 2.880 . S
Pr41 O62 2.436 1_565 S
Pr41 O64 2.438 1_565 S
Pr41 O66 2.562 . S
Pr41 O67 2.490 . S
Pr41 O68 2.695 1_565 S
Pr41 O69 2.512 . S
Pr41 O71 2.437 . S
C42 Pr40 2.880 . S
C42 C43 1.491 . S
C42 O60 1.254 . S
C42 O61 1.225 . S
C43 C42 1.491 . S
C43 C44 1.392 . S
C43 C48 1.356 . S
C44 C43 1.392 . S
C44 C45 1.368 . S
C44 H72 0.929 . S
C45 C44 1.368 . S
C45 C46 1.386 . S
C45 H73 0.929 . S
C46 C45 1.386 . S
C46 C47 1.373 . S
C47 C46 1.373 . S
C47 C48 1.409 . S
C47 H74 0.931 . S
C48 C43 1.356 . S
C48 C47 1.409 . S
C48 H75 0.930 . S
C49 O62 1.270 . S
C49 O63 1.248 . S
C50 O64 1.267 . S
C50 O65 1.278 . S
C51 Pr41 2.880 . S
C51 C52 1.491 . S
C51 O66 1.254 . S
C51 O67 1.225 . S
C52 C51 1.491 . S
C52 C53 1.392 . S
C52 C57 1.356 . S
C53 C52 1.392 . S
C53 C54 1.368 . S
C53 H76 0.929 . S
C54 C53 1.368 . S
C54 C55 1.386 . S
C54 H77 0.929 . S
C55 C54 1.386 . S
C55 C56 1.373 . S
C56 C55 1.373 . S
C56 C57 1.409 . S
C56 H78 0.931 . S
C57 C52 1.356 . S
C57 C56 1.409 . S
C57 H79 0.930 . S
C58 O68 1.270 . S
C58 O69 1.248 1_545 S
C59 O70 1.267 . S
C59 O71 1.278 . S
O60 Pr40 2.562 . S
O60 C42 1.254 . S
O61 Pr40 2.490 . S
O61 C42 1.225 . S
O62 Pr40 2.695 . S
O62 Pr41 2.436 1_545 S
O62 C49 1.270 . S
O63 Pr40 2.512 . S
O63 C49 1.248 . S
O64 Pr41 2.438 1_545 S
O64 C50 1.267 . S
O65 Pr40 2.437 . S
O65 C50 1.278 . S
O66 Pr41 2.562 . S
O66 C51 1.254 . S
O67 Pr41 2.490 . S
O67 C51 1.225 . S
O68 Pr40 2.436 . S
O68 Pr41 2.695 1_545 S
O68 C58 1.270 . S
O69 Pr41 2.512 . S
O69 C58 1.248 1_565 S
O70 Pr40 2.438 1_565 S
O70 C59 1.267 . S
O71 Pr41 2.437 . S
O71 C59 1.278 . S
H72 C44 0.929 . S
H73 C45 0.929 . S
H74 C47 0.931 . S
H75 C48 0.930 . S
H76 C53 0.929 . S
H77 C54 0.929 . S
H78 C56 0.931 . S
H79 C57 0.930 . S
Pr80 C82 2.880 . S
Pr80 O100 2.562 . S
Pr80 O101 2.490 . S
Pr80 O102 2.695 . S
Pr80 O103 2.512 . S
Pr80 O105 2.437 . S
Pr80 O108 2.436 . S
Pr80 O110 2.438 . S
Pr81 C91 2.880 . S
Pr81 O102 2.436 . S
Pr81 O104 2.438 . S
Pr81 O106 2.562 . S
Pr81 O107 2.490 . S
Pr81 O108 2.695 . S
Pr81 O109 2.512 . S
Pr81 O111 2.437 . S
C82 Pr80 2.880 . S
C82 C83 1.491 . S
C82 O100 1.254 . S
C82 O101 1.225 . S
C83 C82 1.491 . S
C83 C84 1.392 . S
C83 C88 1.356 . S
C84 C83 1.392 . S
C84 C85 1.368 . S
C84 H112 0.929 . S
C85 C84 1.368 . S
C85 C86 1.386 . S
C85 H113 0.929 . S
C86 C85 1.386 . S
C86 C87 1.373 . S
C87 C86 1.373 . S
C87 C88 1.409 . S
C87 H114 0.931 . S
C88 C83 1.356 . S
C88 C87 1.409 . S
C88 H115 0.930 . S
C89 O102 1.270 . S
C89 O103 1.248 . S
C90 O104 1.267 . S
C90 O105 1.278 . S
C91 Pr81 2.880 . S
C91 C92 1.491 . S
C91 O106 1.254 . S
C91 O107 1.225 . S
C92 C91 1.491 . S
C92 C93 1.392 . S
C92 C97 1.356 . S
C93 C92 1.392 . S
C93 C94 1.368 . S
C93 H116 0.929 . S
C94 C93 1.368 . S
C94 C95 1.386 . S
C94 H117 0.929 . S
C95 C94 1.386 . S
C95 C96 1.373 . S
C96 C95 1.373 . S
C96 C97 1.409 . S
C96 H118 0.931 . S
C97 C92 1.356 . S
C97 C96 1.409 . S
C97 H119 0.930 . S
C98 O108 1.270 . S
C98 O109 1.248 . S
C99 O110 1.267 . S
C99 O111 1.278 . S
O100 Pr80 2.562 . S
O100 C82 1.254 . S
O101 Pr80 2.490 . S
O101 C82 1.225 . S
O102 Pr80 2.695 . S
O102 Pr81 2.436 . S
O102 C89 1.270 . S
O103 Pr80 2.512 . S
O103 C89 1.248 . S
O104 Pr81 2.438 . S
O104 C90 1.267 . S
O105 Pr80 2.437 . S
O105 C90 1.278 . S
O106 Pr81 2.562 . S
O106 C91 1.254 . S
O107 Pr81 2.490 . S
O107 C91 1.225 . S
O108 Pr80 2.436 . S
O108 Pr81 2.695 . S
O108 C98 1.270 . S
O109 Pr81 2.512 . S
O109 C98 1.248 . S
O110 Pr80 2.438 . S
O110 C99 1.267 . S
O111 Pr81 2.437 . S
O111 C99 1.278 . S
H112 C84 0.929 . S
H113 C85 0.929 . S
H114 C87 0.931 . S
H115 C88 0.930 . S
H116 C93 0.929 . S
H117 C94 0.929 . S
H118 C96 0.931 . S
H119 C97 0.930 . S
C120 C121 1.264 . S
C120 C125 1.479 . S
C120 C130 1.465 . S
C121 C120 1.264 . S
C121 C123 1.339 . S
C121 H148 0.931 . S
C122 C123 1.395 . S
C122 C124 1.320 . S
C123 C121 1.339 . S
C123 C122 1.395 . S
C123 H149 0.929 . S
C124 C122 1.320 . S
C124 C125 1.405 . S
C124 H150 0.930 . S
C125 C120 1.479 . S
C125 C124 1.405 . S
C125 H151 0.931 . S
U126 O127 2.454 1_545 S
U126 O128 2.458 1_545 S
U126 C129 2.984 1_545 S
U126 C130 2.847 . S
U126 C143 2.882 . S
U126 O144 2.441 . S
U126 O145 2.420 . S
U126 O146 2.455 . S
U126 O147 2.449 . S
O127 U126 2.454 1_565 S
O127 C129 1.353 . S
O128 U126 2.458 1_565 S
O128 C129 1.286 . S
C129 U126 2.984 1_565 S
C129 O127 1.353 . S
C129 O128 1.286 . S
C129 C131 1.363 . S
C130 C120 1.465 . S
C130 U126 2.847 . S
C130 O144 1.249 . S
C130 O145 1.202 . S
C131 C129 1.363 . S
C131 C133 1.408 . S
C131 C136 1.342 . S
C132 C133 1.310 . S
C132 C135 1.461 . S
C132 H152 0.932 . S
C133 C131 1.408 . S
C133 C132 1.310 . S
C133 H153 0.930 . S
C134 C135 1.474 . S
C134 C136 1.285 . S
C134 H154 0.929 . S
C135 C132 1.461 . S
C135 C134 1.474 . S
C136 C131 1.342 . S
C136 C134 1.285 . S
C136 H155 0.930 . S
C137 C140 1.424 . S
C137 C142 1.245 . S
C137 C143 1.428 . S
C138 C141 1.260 . S
C138 C142 1.477 . S
C138 H156 0.932 1_545 S
C139 C140 1.384 . S
C139 C141 1.479 . S
C139 H157 0.929 . S
C140 C137 1.424 . S
C140 C139 1.384 . S
C140 H158 0.928 . S
C141 C138 1.260 . S
C141 C139 1.479 . S
C142 C137 1.245 . S
C142 C138 1.477 . S
C142 H159 0.932 1_545 S
C143 U126 2.882 . S
C143 C137 1.428 . S
C143 O146 1.301 . S
C143 O147 1.282 . S
O144 U126 2.441 . S
O144 C130 1.249 . S
O145 U126 2.420 . S
O145 C130 1.202 . S
O146 U126 2.455 . S
O146 C143 1.301 . S
O147 U126 2.449 . S
O147 C143 1.282 . S
H148 C121 0.931 . S
H149 C123 0.929 . S
H150 C124 0.930 . S
H151 C125 0.931 . S
H152 C132 0.932 . S
H153 C133 0.930 . S
H154 C134 0.929 . S
H155 C136 0.930 . S
H156 C138 0.932 1_565 S
H157 C139 0.929 . S
H158 C140 0.928 . S
H159 C142 0.932 1_565 S
C160 C161 1.264 . S
C160 C165 1.479 . S
C160 C170 1.465 . S
C161 C160 1.264 . S
C161 C163 1.339 . S
C161 H188 0.931 . S
C162 C163 1.395 . S
C162 C164 1.320 . S
C163 C161 1.339 . S
C163 C162 1.395 . S
C163 H189 0.929 . S
C164 C162 1.320 . S
C164 C165 1.405 . S
C164 H190 0.930 . S
C165 C160 1.479 . S
C165 C164 1.405 . S
C165 H191 0.931 . S
U166 O167 2.454 . S
U166 O168 2.458 . S
U166 C169 2.984 . S
U166 C170 2.847 . S
U166 C183 2.882 . S
U166 O184 2.441 . S
U166 O185 2.420 . S
U166 O186 2.455 . S
U166 O187 2.449 . S
O167 U166 2.454 . S
O167 C169 1.353 . S
O168 U166 2.458 . S
O168 C169 1.286 . S
C169 U166 2.984 . S
C169 O167 1.353 . S
C169 O168 1.286 . S
C169 C171 1.363 . S
C170 C160 1.465 . S
C170 U166 2.847 . S
C170 O184 1.249 . S
C170 O185 1.202 . S
C171 C169 1.363 . S
C171 C173 1.408 . S
C171 C176 1.342 . S
C172 C173 1.310 . S
C172 C175 1.461 . S
C172 H192 0.932 . S
C173 C171 1.408 . S
C173 C172 1.310 . S
C173 H193 0.930 . S
C174 C175 1.474 . S
C174 C176 1.285 . S
C174 H194 0.929 . S
C175 C172 1.461 . S
C175 C174 1.474 . S
C176 C171 1.342 . S
C176 C174 1.285 . S
C176 H195 0.930 . S
C177 C180 1.424 . S
C177 C182 1.245 . S
C177 C183 1.428 . S
C178 C181 1.260 . S
C178 C182 1.477 . S
C178 H196 0.932 . S
C179 C180 1.384 . S
C179 C181 1.479 . S
C179 H197 0.929 . S
C180 C177 1.424 . S
C180 C179 1.384 . S
C180 H198 0.928 . S
C181 C178 1.260 . S
C181 C179 1.479 . S
C182 C177 1.245 . S
C182 C178 1.477 . S
C182 H199 0.932 . S
C183 U166 2.882 . S
C183 C177 1.428 . S
C183 O186 1.301 . S
C183 O187 1.282 . S
O184 U166 2.441 . S
O184 C170 1.249 . S
O185 U166 2.420 . S
O185 C170 1.202 . S
O186 U166 2.455 . S
O186 C183 1.301 . S
O187 U166 2.449 . S
O187 C183 1.282 . S
H188 C161 0.931 . S
H189 C163 0.929 . S
H190 C164 0.930 . S
H191 C165 0.931 . S
H192 C172 0.932 . S
H193 C173 0.930 . S
H194 C174 0.929 . S
H195 C176 0.930 . S
H196 C178 0.932 . S
H197 C179 0.929 . S
H198 C180 0.928 . S
H199 C182 0.932 . S
C200 C201 1.264 . S
C200 C205 1.479 . S
C200 C210 1.465 . S
C201 C200 1.264 . S
C201 C203 1.339 . S
C201 H228 0.931 . S
C202 C203 1.395 . S
C202 C204 1.320 . S
C203 C201 1.339 . S
C203 C202 1.395 . S
C203 H229 0.929 . S
C204 C202 1.320 . S
C204 C205 1.405 . S
C204 H230 0.930 . S
C205 C200 1.479 . S
C205 C204 1.405 . S
C205 H231 0.931 . S
U206 O207 2.454 . S
U206 O208 2.458 . S
U206 C209 2.984 . S
U206 C210 2.847 1_455 S
U206 C223 2.882 . S
U206 O224 2.441 1_455 S
U206 O225 2.420 1_455 S
U206 O226 2.455 . S
U206 O227 2.449 1_455 S
O207 U206 2.454 . S
O207 C209 1.353 . S
O208 U206 2.458 . S
O208 C209 1.286 . S
C209 U206 2.984 . S
C209 O207 1.353 . S
C209 O208 1.286 . S
C209 C211 1.363 . S
C210 C200 1.465 . S
C210 U206 2.847 1_655 S
C210 O224 1.249 . S
C210 O225 1.202 . S
C211 C209 1.363 . S
C211 C213 1.408 . S
C211 C216 1.342 . S
C212 C213 1.310 . S
C212 C215 1.461 . S
C212 H232 0.932 . S
C213 C211 1.408 . S
C213 C212 1.310 . S
C213 H233 0.930 . S
C214 C215 1.474 . S
C214 C216 1.285 . S
C214 H234 0.929 . S
C215 C212 1.461 . S
C215 C214 1.474 . S
C216 C211 1.342 . S
C216 C214 1.285 . S
C216 H235 0.930 . S
C217 C220 1.424 1_455 S
C217 C222 1.245 . S
C217 C223 1.428 . S
C218 C221 1.260 . S
C218 C222 1.477 1_554 S
C218 H236 0.932 . S
C219 C220 1.384 . S
C219 C221 1.479 1_656 S
C219 H237 0.929 1_556 S
C220 C217 1.424 1_655 S
C220 C219 1.384 . S
C220 H238 0.928 . S
C221 C218 1.260 . S
C221 C219 1.479 1_454 S
C222 C217 1.245 . S
C222 C218 1.477 1_556 S
C222 H239 0.932 . S
C223 U206 2.882 . S
C223 C217 1.428 . S
C223 O226 1.301 . S
C223 O227 1.282 1_455 S
O224 U206 2.441 1_655 S
O224 C210 1.249 . S
O225 U206 2.420 1_655 S
O225 C210 1.202 . S
O226 U206 2.455 . S
O226 C223 1.301 . S
O227 U206 2.449 1_655 S
O227 C223 1.282 1_655 S
H228 C201 0.931 . S
H229 C203 0.929 . S
H230 C204 0.930 . S
H231 C205 0.931 . S
H232 C212 0.932 . S
H233 C213 0.930 . S
H234 C214 0.929 . S
H235 C216 0.930 . S
H236 C218 0.932 . S
H237 C219 0.929 1_554 S
H238 C220 0.928 . S
H239 C222 0.932 . S
C240 C241 1.264 . S
C240 C245 1.479 . S
C240 C250 1.465 . S
C241 C240 1.264 . S
C241 C243 1.339 . S
C241 H268 0.931 . S
C242 C243 1.395 . S
C242 C244 1.320 . S
C243 C241 1.339 . S
C243 C242 1.395 . S
C243 H269 0.929 . S
C244 C242 1.320 . S
C244 C245 1.405 . S
C244 H270 0.930 . S
C245 C240 1.479 . S
C245 C244 1.405 . S
C245 H271 0.931 . S
U246 O247 2.454 1_655 S
U246 O248 2.458 1_655 S
U246 C249 2.984 1_655 S
U246 C250 2.847 . S
U246 C263 2.882 . S
U246 O264 2.441 . S
U246 O265 2.420 . S
U246 O266 2.455 1_655 S
U246 O267 2.449 . S
O247 U246 2.454 1_455 S
O247 C249 1.353 . S
O248 U246 2.458 1_455 S
O248 C249 1.286 . S
C249 U246 2.984 1_455 S
C249 O247 1.353 . S
C249 O248 1.286 . S
C249 C251 1.363 . S
C250 C240 1.465 . S
C250 U246 2.847 . S
C250 O264 1.249 . S
C250 O265 1.202 . S
C251 C249 1.363 . S
C251 C253 1.408 . S
C251 C256 1.342 . S
C252 C253 1.310 . S
C252 C255 1.461 . S
C252 H272 0.932 . S
C253 C251 1.408 . S
C253 C252 1.310 . S
C253 H273 0.930 . S
C254 C255 1.474 . S
C254 C256 1.285 . S
C254 H274 0.929 . S
C255 C252 1.461 . S
C255 C254 1.474 . S
C256 C251 1.342 . S
C256 C254 1.285 . S
C256 H275 0.930 . S
C257 C260 1.424 . S
C257 C262 1.245 1_655 S
C257 C263 1.428 . S
C258 C261 1.260 1_455 S
C258 C262 1.477 . S
C258 H276 0.932 . S
C259 C260 1.384 . S
C259 C261 1.479 . S
C259 H277 0.929 . S
C260 C257 1.424 . S
C260 C259 1.384 . S
C260 H278 0.928 . S
C261 C258 1.260 1_655 S
C261 C259 1.479 . S
C262 C257 1.245 1_455 S
C262 C258 1.477 . S
C262 H279 0.932 . S
C263 U246 2.882 . S
C263 C257 1.428 . S
C263 O266 1.301 1_655 S
C263 O267 1.282 . S
O264 U246 2.441 . S
O264 C250 1.249 . S
O265 U246 2.420 . S
O265 C250 1.202 . S
O266 U246 2.455 1_455 S
O266 C263 1.301 1_455 S
O267 U246 2.449 . S
O267 C263 1.282 . S
H268 C241 0.931 . S
H269 C243 0.929 . S
H270 C244 0.930 . S
H271 C245 0.931 . S
H272 C252 0.932 . S
H273 C253 0.930 . S
H274 C254 0.929 . S
H275 C256 0.930 . S
H276 C258 0.932 . S
H277 C259 0.929 . S
H278 C260 0.928 . S
H279 C262 0.932 . S
C280 C281 1.264 . S
C280 C285 1.479 . S
C280 C290 1.465 . S
C281 C280 1.264 . S
C281 C283 1.339 . S
C281 H308 0.931 . S
C282 C283 1.395 . S
C282 C284 1.320 . S
C283 C281 1.339 . S
C283 C282 1.395 . S
C283 H309 0.929 . S
C284 C282 1.320 . S
C284 C285 1.405 . S
C284 H310 0.930 . S
C285 C280 1.479 . S
C285 C284 1.405 . S
C285 H311 0.931 . S
U286 O287 2.454 1_565 S
U286 O288 2.458 1_565 S
U286 C289 2.984 1_565 S
U286 C290 2.847 . S
U286 C303 2.882 . S
U286 O304 2.441 . S
U286 O305 2.420 . S
U286 O306 2.455 1_565 S
U286 O307 2.449 . S
O287 U286 2.454 1_545 S
O287 C289 1.353 . S
O288 U286 2.458 1_545 S
O288 C289 1.286 . S
C289 U286 2.984 1_545 S
C289 O287 1.353 . S
C289 O288 1.286 . S
C289 C291 1.363 . S
C290 C280 1.465 . S
C290 U286 2.847 . S
C290 O304 1.249 . S
C290 O305 1.202 . S
C291 C289 1.363 . S
C291 C293 1.408 . S
C291 C296 1.342 . S
C292 C293 1.310 . S
C292 C295 1.461 . S
C292 H312 0.932 . S
C293 C291 1.408 . S
C293 C292 1.310 . S
C293 H313 0.930 . S
C294 C295 1.474 . S
C294 C296 1.285 . S
C294 H314 0.929 . S
C295 C292 1.461 . S
C295 C294 1.474 . S
C296 C291 1.342 . S
C296 C294 1.285 . S
C296 H315 0.930 . S
C297 C300 1.431 . S
C297 C302 1.238 1_565 S
C297 C303 1.428 . S
C298 C301 1.280 . S
C298 C302 1.477 . S
C298 H316 0.932 . S
C299 C300 1.384 . S
C299 C301 1.459 1_565 S
C299 H317 0.929 . S
C300 C297 1.431 . S
C300 C299 1.384 . S
C300 H318 0.928 . S
C301 C298 1.280 . S
C301 C299 1.459 1_545 S
C302 C297 1.238 1_545 S
C302 C298 1.477 . S
C302 H319 0.932 . S
C303 U286 2.882 . S
C303 C297 1.428 . S
C303 O306 1.301 1_565 S
C303 O307 1.282 . S
O304 U286 2.441 . S
O304 C290 1.249 . S
O305 U286 2.420 . S
O305 C290 1.202 . S
O306 U286 2.455 1_545 S
O306 C303 1.301 1_545 S
O307 U286 2.449 . S
O307 C303 1.282 . S
H308 C281 0.931 . S
H309 C283 0.929 . S
H310 C284 0.930 . S
H311 C285 0.931 . S
H312 C292 0.932 . S
H313 C293 0.930 . S
H314 C294 0.929 . S
H315 C296 0.930 . S
H316 C298 0.932 . S
H317 C299 0.929 . S
H318 C300 0.928 . S
H319 C302 0.932 . S
C320 C321 1.264 . S
C320 C325 1.479 . S
C320 C330 1.465 . S
C321 C320 1.264 . S
C321 C323 1.339 . S
C321 H348 0.931 . S
C322 C323 1.395 . S
C322 C324 1.320 . S
C323 C321 1.339 . S
C323 C322 1.395 . S
C323 H349 0.929 . S
C324 C322 1.320 . S
C324 C325 1.405 . S
C324 H350 0.930 . S
C325 C320 1.479 . S
C325 C324 1.405 . S
C325 H351 0.931 . S
U326 O327 2.454 . S
U326 O328 2.458 . S
U326 C329 2.984 . S
U326 C330 2.847 . S
U326 C343 2.882 . S
U326 O344 2.441 . S
U326 O345 2.420 . S
U326 O346 2.455 . S
U326 O347 2.449 . S
O327 U326 2.454 . S
O327 C329 1.353 . S
O328 U326 2.458 . S
O328 C329 1.286 . S
C329 U326 2.984 . S
C329 O327 1.353 . S
C329 O328 1.286 . S
C329 C331 1.363 . S
C330 C320 1.465 . S
C330 U326 2.847 . S
C330 O344 1.249 . S
C330 O345 1.202 . S
C331 C329 1.363 . S
C331 C333 1.408 . S
C331 C336 1.342 . S
C332 C333 1.310 . S
C332 C335 1.461 . S
C332 H352 0.932 . S
C333 C331 1.408 . S
C333 C332 1.310 . S
C333 H353 0.930 . S
C334 C335 1.474 . S
C334 C336 1.285 . S
C334 H354 0.929 . S
C335 C332 1.461 . S
C335 C334 1.474 . S
C336 C331 1.342 . S
C336 C334 1.285 . S
C336 H355 0.930 . S
C337 C340 1.424 . S
C337 C342 1.245 . S
C337 C343 1.428 . S
C338 C341 1.273 . S
C338 C342 1.453 1_556 S
C338 H356 0.945 . S
C339 C340 1.384 . S
C339 C341 1.479 1_554 S
C339 H357 0.929 1_554 S
C340 C337 1.424 . S
C340 C339 1.384 . S
C340 H358 0.928 . S
C341 C338 1.273 . S
C341 C339 1.479 1_556 S
C342 C337 1.245 . S
C342 C338 1.453 1_554 S
C342 H359 0.932 . S
C343 U326 2.882 . S
C343 C337 1.428 . S
C343 O346 1.301 . S
C343 O347 1.282 . S
O344 U326 2.441 . S
O344 C330 1.249 . S
O345 U326 2.420 . S
O345 C330 1.202 . S
O346 U326 2.455 . S
O346 C343 1.301 . S
O347 U326 2.449 . S
O347 C343 1.282 . S
H348 C321 0.931 . S
H349 C323 0.929 . S
H350 C324 0.930 . S
H351 C325 0.931 . S
H352 C332 0.932 . S
H353 C333 0.930 . S
H354 C334 0.929 . S
H355 C336 0.930 . S
H356 C338 0.945 . S
H357 C339 0.929 1_556 S
H358 C340 0.928 . S
H359 C342 0.932 . S
C360 C361 1.363 . S
C360 C366 1.379 . S
C360 N368 1.356 . S
C361 C360 1.363 . S
C361 C367 1.363 . S
C362 C363 1.363 . S
C362 C367 1.379 . S
C362 N369 1.356 . S
C363 C362 1.363 . S
C363 C366 1.363 . S
N364 C366 1.356 . S
N364 H376 0.984 . S
N364 H377 0.985 . S
N365 C367 1.356 . S
N365 H370 0.984 . S
N365 H371 0.985 . S
C366 C360 1.379 . S
C366 C363 1.363 . S
C366 N364 1.356 . S
C367 C361 1.363 . S
C367 C362 1.379 . S
C367 N365 1.356 . S
N368 C360 1.356 . S
N368 H374 0.984 . S
N368 H375 0.984 . S
N369 C362 1.356 . S
N369 H372 0.984 . S
N369 H373 0.985 . S
H370 N365 0.984 . S
H371 N365 0.985 . S
H372 N369 0.984 . S
H373 N369 0.985 . S
H374 N368 0.984 . S
H375 N368 0.984 . S
H376 N364 0.984 . S
H377 N364 0.985 . S
C378 C379 1.363 . S
C378 C384 1.379 . S
C378 N386 1.356 . S
C379 C378 1.363 . S
C379 C385 1.363 . S
C380 C381 1.363 . S
C380 C385 1.379 . S
C380 N387 1.356 . S
C381 C380 1.363 . S
C381 C384 1.363 . S
N382 C384 1.356 . S
N382 H394 0.984 . S
N382 H395 0.985 . S
N383 C385 1.356 . S
N383 H388 0.984 . S
N383 H389 0.985 . S
C384 C378 1.379 . S
C384 C381 1.363 . S
C384 N382 1.356 . S
C385 C379 1.363 . S
C385 C380 1.379 . S
C385 N383 1.356 . S
N386 C378 1.356 . S
N386 H392 0.984 . S
N386 H393 0.984 . S
N387 C380 1.356 . S
N387 H390 0.984 . S
N387 H391 0.985 . S
H388 N383 0.984 . S
H389 N383 0.985 . S
H390 N387 0.984 . S
H391 N387 0.985 . S
H392 N386 0.984 . S
H393 N386 0.984 . S
H394 N382 0.984 . S
H395 N382 0.985 . S
C396 C397 1.363 . S
C396 C402 1.379 . S
C396 N404 1.356 . S
C397 C396 1.363 . S
C397 C403 1.363 . S
C398 C399 1.363 . S
C398 C403 1.379 . S
C398 N405 1.356 . S
C399 C398 1.363 . S
C399 C402 1.363 . S
N400 C402 1.356 . S
N400 H412 0.984 . S
N400 H413 0.985 . S
N401 C403 1.356 . S
N401 H406 0.984 . S
N401 H407 0.985 . S
C402 C396 1.379 . S
C402 C399 1.363 . S
C402 N400 1.356 . S
C403 C397 1.363 . S
C403 C398 1.379 . S
C403 N401 1.356 . S
N404 C396 1.356 . S
N404 H410 0.984 . S
N404 H411 0.984 . S
N405 C398 1.356 . S
N405 H408 0.984 . S
N405 H409 0.985 . S
H406 N401 0.984 . S
H407 N401 0.985 . S
H408 N405 0.984 . S
H409 N405 0.985 . S
H410 N404 0.984 . S
H411 N404 0.984 . S
H412 N400 0.984 . S
H413 N400 0.985 . S
C414 C415 1.363 . S
C414 C420 1.379 . S
C414 N422 1.356 . S
C415 C414 1.363 . S
C415 C421 1.363 . S
C416 C417 1.363 . S
C416 C421 1.379 . S
C416 N423 1.356 . S
C417 C416 1.363 . S
C417 C420 1.363 . S
N418 C420 1.356 . S
N418 H430 0.984 . S
N418 H431 0.985 . S
N419 C421 1.356 . S
N419 H424 0.984 . S
N419 H425 0.985 . S
C420 C414 1.379 . S
C420 C417 1.363 . S
C420 N418 1.356 . S
C421 C415 1.363 . S
C421 C416 1.379 . S
C421 N419 1.356 . S
N422 C414 1.356 . S
N422 H428 0.984 . S
N422 H429 0.984 . S
N423 C416 1.356 . S
N423 H426 0.984 . S
N423 H427 0.985 . S
H424 N419 0.984 . S
H425 N419 0.985 . S
H426 N423 0.984 . S
H427 N423 0.985 . S
H428 N422 0.984 . S
H429 N422 0.984 . S
H430 N418 0.984 . S
H431 N418 0.985 . S
C432 C433 1.363 . S
C432 C438 1.379 . S
C432 N440 1.356 . S
C433 C432 1.363 . S
C433 C439 1.363 . S
C434 C435 1.363 . S
C434 C439 1.379 . S
C434 N441 1.356 . S
C435 C434 1.363 . S
C435 C438 1.363 . S
N436 C438 1.356 . S
N436 H448 0.984 . S
N436 H449 0.985 . S
N437 C439 1.356 . S
N437 H442 0.984 . S
N437 H443 0.985 . S
C438 C432 1.379 . S
C438 C435 1.363 . S
C438 N436 1.356 . S
C439 C433 1.363 . S
C439 C434 1.379 . S
C439 N437 1.356 . S
N440 C432 1.356 . S
N440 H446 0.984 . S
N440 H447 0.984 . S
N441 C434 1.356 . S
N441 H444 0.984 . S
N441 H445 0.985 . S
H442 N437 0.984 . S
H443 N437 0.985 . S
H444 N441 0.984 . S
H445 N441 0.985 . S
H446 N440 0.984 . S
H447 N440 0.984 . S
H448 N436 0.984 . S
H449 N436 0.985 . S
C450 C451 1.363 . S
C450 C456 1.379 . S
C450 N458 1.356 . S
C451 C450 1.363 . S
C451 C457 1.363 . S
C452 C453 1.363 . S
C452 C457 1.379 . S
C452 N459 1.356 . S
C453 C452 1.363 . S
C453 C456 1.363 . S
N454 C456 1.356 . S
N454 H466 0.984 . S
N454 H467 0.985 . S
N455 C457 1.356 . S
N455 H460 0.984 . S
N455 H461 0.985 . S
C456 C450 1.379 . S
C456 C453 1.363 . S
C456 N454 1.356 . S
C457 C451 1.363 . S
C457 C452 1.379 . S
C457 N455 1.356 . S
N458 C450 1.356 . S
N458 H464 0.984 . S
N458 H465 0.984 . S
N459 C452 1.356 . S
N459 H462 0.984 . S
N459 H463 0.985 . S
H460 N455 0.984 . S
H461 N455 0.985 . S
H462 N459 0.984 . S
H463 N459 0.985 . S
H464 N458 0.984 . S
H465 N458 0.984 . S
H466 N454 0.984 . S
H467 N454 0.985 . S
C468 C469 1.363 . S
C468 C474 1.379 . S
C468 N476 1.356 . S
C469 C468 1.363 . S
C469 C475 1.363 . S
C470 C471 1.363 . S
C470 C475 1.379 . S
C470 N477 1.356 . S
C471 C470 1.363 . S
C471 C474 1.363 . S
N472 C474 1.356 . S
N472 H484 0.984 . S
N472 H485 0.985 . S
N473 C475 1.356 . S
N473 H478 0.984 . S
N473 H479 0.985 . S
C474 C468 1.379 . S
C474 C471 1.363 . S
C474 N472 1.356 . S
C475 C469 1.363 . S
C475 C470 1.379 . S
C475 N473 1.356 . S
N476 C468 1.356 . S
N476 H482 0.984 . S
N476 H483 0.984 . S
N477 C470 1.356 . S
N477 H480 0.984 . S
N477 H481 0.985 . S
H478 N473 0.984 . S
H479 N473 0.985 . S
H480 N477 0.984 . S
H481 N477 0.985 . S
H482 N476 0.984 . S
H483 N476 0.984 . S
H484 N472 0.984 . S
H485 N472 0.985 . S
C486 C487 1.363 . S
C486 C492 1.379 . S
C486 N494 1.356 . S
C487 C486 1.363 . S
C487 C493 1.363 . S
C488 C489 1.363 . S
C488 C493 1.379 . S
C488 N495 1.356 . S
C489 C488 1.363 . S
C489 C492 1.363 . S
N490 C492 1.356 . S
N490 H502 0.984 . S
N490 H503 0.985 . S
N491 C493 1.356 . S
N491 H496 0.984 . S
N491 H497 0.985 . S
C492 C486 1.379 . S
C492 C489 1.363 . S
C492 N490 1.356 . S
C493 C487 1.363 . S
C493 C488 1.379 . S
C493 N491 1.356 . S
N494 C486 1.356 . S
N494 H500 0.984 . S
N494 H501 0.984 . S
N495 C488 1.356 . S
N495 H498 0.984 . S
N495 H499 0.985 . S
H496 N491 0.984 . S
H497 N491 0.985 . S
H498 N495 0.984 . S
H499 N495 0.985 . S
H500 N494 0.984 . S
H501 N494 0.984 . S
H502 N490 0.984 . S
H503 N490 0.985 . S
C504 C505 1.363 . S
C504 C510 1.379 . S
C504 N512 1.356 . S
C505 C504 1.363 . S
C505 C511 1.363 . S
C506 C507 1.363 . S
C506 C511 1.379 . S
C506 N513 1.356 . S
C507 C506 1.363 . S
C507 C510 1.363 . S
N508 C510 1.356 . S
N508 H520 0.984 . S
N508 H521 0.985 . S
N509 C511 1.356 . S
N509 H514 0.984 . S
N509 H515 0.985 . S
C510 C504 1.379 . S
C510 C507 1.363 . S
C510 N508 1.356 . S
C511 C505 1.363 . S
C511 C506 1.379 . S
C511 N509 1.356 . S
N512 C504 1.356 . S
N512 H518 0.984 . S
N512 H519 0.984 . S
N513 C506 1.356 . S
N513 H516 0.984 . S
N513 H517 0.985 . S
H514 N509 0.984 . S
H515 N509 0.985 . S
H516 N513 0.984 . S
H517 N513 0.985 . S
H518 N512 0.984 . S
H519 N512 0.984 . S
H520 N508 0.984 . S
H521 N508 0.985 . S
C522 C523 1.363 . S
C522 C528 1.379 . S
C522 N530 1.356 . S
C523 C522 1.363 . S
C523 C529 1.363 . S
C524 C525 1.363 . S
C524 C529 1.379 . S
C524 N531 1.356 . S
C525 C524 1.363 . S
C525 C528 1.363 . S
N526 C528 1.356 . S
N526 H538 0.984 . S
N526 H539 0.985 . S
N527 C529 1.356 . S
N527 H532 0.984 . S
N527 H533 0.985 . S
C528 C522 1.379 . S
C528 C525 1.363 . S
C528 N526 1.356 . S
C529 C523 1.363 . S
C529 C524 1.379 . S
C529 N527 1.356 . S
N530 C522 1.356 . S
N530 H536 0.984 . S
N530 H537 0.984 . S
N531 C524 1.356 . S
N531 H534 0.984 . S
N531 H535 0.985 . S
H532 N527 0.984 . S
H533 N527 0.985 . S
H534 N531 0.984 . S
H535 N531 0.985 . S
H536 N530 0.984 . S
H537 N530 0.984 . S
H538 N526 0.984 . S
H539 N526 0.985 . S
C540 C541 1.363 . S
C540 C546 1.379 . S
C540 N548 1.356 . S
C541 C540 1.363 . S
C541 C547 1.363 . S
C542 C543 1.363 . S
C542 C547 1.379 . S
C542 N549 1.356 . S
C543 C542 1.363 . S
C543 C546 1.363 . S
N544 C546 1.356 . S
N544 H556 0.984 . S
N544 H557 0.985 . S
N545 C547 1.356 . S
N545 H550 0.984 . S
N545 H551 0.985 . S
C546 C540 1.379 . S
C546 C543 1.363 . S
C546 N544 1.356 . S
C547 C541 1.363 . S
C547 C542 1.379 . S
C547 N545 1.356 . S
N548 C540 1.356 . S
N548 H554 0.984 . S
N548 H555 0.984 . S
N549 C542 1.356 . S
N549 H552 0.984 . S
N549 H553 0.985 . S
H550 N545 0.984 . S
H551 N545 0.985 . S
H552 N549 0.984 . S
H553 N549 0.985 . S
H554 N548 0.984 . S
H555 N548 0.984 . S
H556 N544 0.984 . S
H557 N544 0.985 . S
C558 C559 1.363 . S
C558 C564 1.379 . S
C558 N566 1.356 . S
C559 C558 1.363 . S
C559 C565 1.363 . S
C560 C561 1.363 . S
C560 C565 1.379 . S
C560 N567 1.356 . S
C561 C560 1.363 . S
C561 C564 1.363 . S
N562 C564 1.356 . S
N562 H574 0.984 . S
N562 H575 0.985 . S
N563 C565 1.356 . S
N563 H568 0.984 . S
N563 H569 0.985 . S
C564 C558 1.379 . S
C564 C561 1.363 . S
C564 N562 1.356 . S
C565 C559 1.363 . S
C565 C560 1.379 . S
C565 N563 1.356 . S
N566 C558 1.356 . S
N566 H572 0.984 . S
N566 H573 0.984 . S
N567 C560 1.356 . S
N567 H570 0.984 . S
N567 H571 0.985 . S
H568 N563 0.984 . S
H569 N563 0.985 . S
H570 N567 0.984 . S
H571 N567 0.985 . S
H572 N566 0.984 . S
H573 N566 0.984 . S
H574 N562 0.984 . S
H575 N562 0.985 . S
C576 C577 1.363 . S
C576 C582 1.379 . S
C576 N584 1.356 . S
C577 C576 1.363 . S
C577 C583 1.363 . S
C578 C579 1.363 . S
C578 C583 1.379 . S
C578 N585 1.356 . S
C579 C578 1.363 . S
C579 C582 1.363 . S
N580 C582 1.356 . S
N580 H592 0.984 . S
N580 H593 0.985 . S
N581 C583 1.351 1_655 S
N581 H586 0.984 . S
N581 H587 0.990 . S
C582 C576 1.379 . S
C582 C579 1.363 . S
C582 N580 1.356 . S
C583 C577 1.363 . S
C583 C578 1.379 . S
C583 N581 1.351 1_455 S
N584 C576 1.356 . S
N584 H590 0.984 . S
N584 H591 0.984 . S
N585 C578 1.356 . S
N585 H588 0.984 . S
N585 H589 0.985 . S
H586 N581 0.984 . S
H587 N581 0.990 . S
H588 N585 0.984 . S
H589 N585 0.985 . S
H590 N584 0.984 . S
H591 N584 0.984 . S
H592 N580 0.984 . S
H593 N580 0.985 . S
C594 C595 1.363 1_565 S
C594 C600 1.379 . S
C594 N602 1.356 . S
C595 C594 1.363 1_545 S
C595 C601 1.363 . S
C596 C597 1.363 . S
C596 C601 1.379 . S
C596 N603 1.356 . S
C597 C596 1.363 . S
C597 C600 1.363 1_545 S
N598 C600 1.356 . S
N598 H610 0.984 . S
N598 H611 0.985 . S
N599 C601 1.356 . S
N599 H604 0.984 . S
N599 H605 0.985 . S
C600 C594 1.379 . S
C600 C597 1.363 1_565 S
C600 N598 1.356 . S
C601 C595 1.363 . S
C601 C596 1.379 . S
C601 N599 1.356 . S
N602 C594 1.356 . S
N602 H608 0.984 . S
N602 H609 0.984 . S
N603 C596 1.356 . S
N603 H606 0.984 . S
N603 H607 0.985 . S
H604 N599 0.984 . S
H605 N599 0.985 . S
H606 N603 0.984 . S
H607 N603 0.985 . S
H608 N602 0.984 . S
H609 N602 0.984 . S
H610 N598 0.984 . S
H611 N598 0.985 . S
C612 C613 1.363 . S
C612 C618 1.379 . S
C612 N620 1.356 . S
C613 C612 1.363 . S
C613 C619 1.363 . S
C614 C615 1.363 . S
C614 C619 1.379 . S
C614 N621 1.356 . S
C615 C614 1.363 . S
C615 C618 1.363 . S
N616 C618 1.356 . S
N616 H628 0.984 . S
N616 H629 0.985 . S
N617 C619 1.356 . S
N617 H622 0.984 . S
N617 H623 0.985 . S
C618 C612 1.379 . S
C618 C615 1.363 . S
C618 N616 1.356 . S
C619 C613 1.363 . S
C619 C614 1.379 . S
C619 N617 1.356 . S
N620 C612 1.356 . S
N620 H626 0.984 . S
N620 H627 0.984 . S
N621 C614 1.356 . S
N621 H624 0.984 . S
N621 H625 0.985 . S
H622 N617 0.984 . S
H623 N617 0.985 . S
H624 N621 0.984 . S
H625 N621 0.985 . S
H626 N620 0.984 . S
H627 N620 0.984 . S
H628 N616 0.984 . S
H629 N616 0.985 . S
C630 C631 1.363 1_565 S
C630 C636 1.379 . S
C630 N638 1.356 . S
C631 C630 1.363 1_545 S
C631 C637 1.363 . S
C632 C633 1.363 . S
C632 C637 1.379 . S
C632 N639 1.356 . S
C633 C632 1.363 . S
C633 C636 1.363 1_545 S
N634 C636 1.356 . S
N634 H646 0.984 . S
N634 H647 0.985 . S
N635 C637 1.356 . S
N635 H640 0.984 . S
N635 H641 0.985 . S
C636 C630 1.379 . S
C636 C633 1.363 1_565 S
C636 N634 1.356 . S
C637 C631 1.363 . S
C637 C632 1.379 . S
C637 N635 1.356 . S
N638 C630 1.356 . S
N638 H644 0.984 . S
N638 H645 0.984 . S
N639 C632 1.356 . S
N639 H642 0.984 . S
N639 H643 0.985 . S
H640 N635 0.984 . S
H641 N635 0.985 . S
H642 N639 0.984 . S
H643 N639 0.985 . S
H644 N638 0.984 . S
H645 N638 0.984 . S
H646 N634 0.984 . S
H647 N634 0.985 . S
C648 C649 1.363 . S
C648 C654 1.379 . S
C648 N656 1.356 . S
C649 C648 1.363 . S
C649 C655 1.363 . S
C650 C651 1.363 . S
C650 C655 1.379 . S
C650 N657 1.356 . S
C651 C650 1.363 . S
C651 C654 1.363 . S
N652 C654 1.356 . S
N652 H664 0.984 . S
N652 H665 0.985 . S
N653 C655 1.356 . S
N653 H658 0.984 . S
N653 H659 0.985 . S
C654 C648 1.379 . S
C654 C651 1.363 . S
C654 N652 1.356 . S
C655 C649 1.363 . S
C655 C650 1.379 . S
C655 N653 1.356 . S
N656 C648 1.356 . S
N656 H662 0.984 . S
N656 H663 0.984 . S
N657 C650 1.356 . S
N657 H660 0.984 . S
N657 H661 0.985 . S
H658 N653 0.984 . S
H659 N653 0.985 . S
H660 N657 0.984 . S
H661 N657 0.985 . S
H662 N656 0.984 . S
H663 N656 0.984 . S
H664 N652 0.984 . S
H665 N652 0.985 . S
C666 C667 1.369 . S
C666 C672 1.379 . S
C666 N674 1.356 . S
C667 C666 1.369 . S
C667 C673 1.358 1_655 S
C668 C669 1.363 1_455 S
C668 C673 1.379 . S
C668 N675 1.356 . S
C669 C668 1.363 1_655 S
C669 C672 1.363 . S
N670 C672 1.356 . S
N670 H682 0.984 . S
N670 H683 0.985 . S
N671 C673 1.356 . S
N671 H676 0.984 . S
N671 H677 0.985 . S
C672 C666 1.379 . S
C672 C669 1.363 . S
C672 N670 1.356 . S
C673 C667 1.358 1_455 S
C673 C668 1.379 . S
C673 N671 1.356 . S
N674 C666 1.356 . S
N674 H680 0.984 . S
N674 H681 0.984 . S
N675 C668 1.356 . S
N675 H678 0.984 . S
N675 H679 0.985 . S
H676 N671 0.984 . S
H677 N671 0.985 . S
H678 N675 0.984 . S
H679 N675 0.985 . S
H680 N674 0.984 . S
H681 N674 0.984 . S
H682 N670 0.984 . S
H683 N670 0.985 . S
C361 C19 2.104 . S
C363 C335 2.031 . S
C379 C46 1.313 . S
C381 C242 1.341 . S
C397 C95 0.562 . S
C399 C282 0.490 . S
C415 C10 2.249 . S
C417 C322 2.146 . S
C435 C255 1.371 . S
C433 C55 1.367 . S
C453 C295 0.900 . S
C451 C86 0.871 . S
C469 C59 3.243 . S
C471 C162 3.197 . S
C487 C90 2.277 . S
C489 C202 2.187 . S
C505 C15 1.346 . S
C507 C135 1.362 . S
C525 C175 3.109 . S
C523 C50 3.198 . S
C543 C215 2.043 . S
C541 C99 2.100 . S
C559 C6 1.265 . S
C561 C122 1.261 . S
C579 C221 1.363 . S
C577 C9 1.334 . S
C595 C58 1.458 . S
C597 C141 1.501 . S
C613 C98 1.712 . S
C615 C181 1.767 . S
C633 C301 1.110 . S
C631 C49 1.102 . S
C651 C341 1.347 . S
C649 C89 1.325 . S
C667 C18 1.449 1_655 S
C669 C261 1.494 . S
