# Generated by pormake.
# Topology gar, (4,6)-cn, num edge types: 1
# Building blocks:
#     Node 0, Type 0, BuildingBlock: NAHDIM_clean_sbu_0, # of connection points: 4
#     Node 1, Type 0, BuildingBlock: NAHDIM_clean_sbu_0, # of connection points: 4
#     Node 2, Type 0, BuildingBlock: NAHDIM_clean_sbu_0, # of connection points: 4
#     Node 3, Type 0, BuildingBlock: NAHDIM_clean_sbu_0, # of connection points: 4
#     Node 4, Type 0, BuildingBlock: NAHDIM_clean_sbu_0, # of connection points: 4
#     Node 5, Type 0, BuildingBlock: NAHDIM_clean_sbu_0, # of connection points: 4
#     Node 6, Type 0, BuildingBlock: NAHDIM_clean_sbu_0, # of connection points: 4
#     Node 7, Type 0, BuildingBlock: NAHDIM_clean_sbu_0, # of connection points: 4
#     Node 8, Type 0, BuildingBlock: NAHDIM_clean_sbu_0, # of connection points: 4
#     Node 9, Type 0, BuildingBlock: NAHDIM_clean_sbu_0, # of connection points: 4
#     Node 10, Type 0, BuildingBlock: NAHDIM_clean_sbu_0, # of connection points: 4
#     Node 11, Type 0, BuildingBlock: NAHDIM_clean_sbu_0, # of connection points: 4
#     Node 12, Type 0, BuildingBlock: NAHDIM_clean_sbu_0, # of connection points: 4
#     Node 13, Type 0, BuildingBlock: NAHDIM_clean_sbu_0, # of connection points: 4
#     Node 14, Type 0, BuildingBlock: NAHDIM_clean_sbu_0, # of connection points: 4
#     Node 15, Type 0, BuildingBlock: NAHDIM_clean_sbu_0, # of connection points: 4
#     Node 16, Type 0, BuildingBlock: NAHDIM_clean_sbu_0, # of connection points: 4
#     Node 17, Type 0, BuildingBlock: NAHDIM_clean_sbu_0, # of connection points: 4
#     Node 18, Type 0, BuildingBlock: NAHDIM_clean_sbu_0, # of connection points: 4
#     Node 19, Type 0, BuildingBlock: NAHDIM_clean_sbu_0, # of connection points: 4
#     Node 20, Type 0, BuildingBlock: NAHDIM_clean_sbu_0, # of connection points: 4
#     Node 21, Type 0, BuildingBlock: NAHDIM_clean_sbu_0, # of connection points: 4
#     Node 22, Type 0, BuildingBlock: NAHDIM_clean_sbu_0, # of connection points: 4
#     Node 23, Type 0, BuildingBlock: NAHDIM_clean_sbu_0, # of connection points: 4
#     Node 24, Type 1, BuildingBlock: PAMTOO_clean_sbu_0, # of connection points: 6
#     Node 25, Type 1, BuildingBlock: PAMTOO_clean_sbu_0, # of connection points: 6
#     Node 26, Type 1, BuildingBlock: PAMTOO_clean_sbu_0, # of connection points: 6
#     Node 27, Type 1, BuildingBlock: PAMTOO_clean_sbu_0, # of connection points: 6
#     Node 28, Type 1, BuildingBlock: PAMTOO_clean_sbu_0, # of connection points: 6
#     Node 29, Type 1, BuildingBlock: PAMTOO_clean_sbu_0, # of connection points: 6
#     Node 30, Type 1, BuildingBlock: PAMTOO_clean_sbu_0, # of connection points: 6
#     Node 31, Type 1, BuildingBlock: PAMTOO_clean_sbu_0, # of connection points: 6
#     Node 32, Type 1, BuildingBlock: PAMTOO_clean_sbu_0, # of connection points: 6
#     Node 33, Type 1, BuildingBlock: PAMTOO_clean_sbu_0, # of connection points: 6
#     Node 34, Type 1, BuildingBlock: PAMTOO_clean_sbu_0, # of connection points: 6
#     Node 35, Type 1, BuildingBlock: PAMTOO_clean_sbu_0, # of connection points: 6
#     Node 36, Type 1, BuildingBlock: PAMTOO_clean_sbu_0, # of connection points: 6
#     Node 37, Type 1, BuildingBlock: PAMTOO_clean_sbu_0, # of connection points: 6
#     Node 38, Type 1, BuildingBlock: PAMTOO_clean_sbu_0, # of connection points: 6
#     Node 39, Type 1, BuildingBlock: PAMTOO_clean_sbu_0, # of connection points: 6
#     Edge 40, Type (0, 1), BuildingBlock: XIVTED_clean_linker_0, # of connection points: 2
#     Edge 41, Type (0, 1), BuildingBlock: XIVTED_clean_linker_0, # of connection points: 2
#     Edge 42, Type (0, 1), BuildingBlock: XIVTED_clean_linker_0, # of connection points: 2
#     Edge 43, Type (0, 1), BuildingBlock: XIVTED_clean_linker_0, # of connection points: 2
#     Edge 44, Type (0, 1), BuildingBlock: XIVTED_clean_linker_0, # of connection points: 2
#     Edge 45, Type (0, 1), BuildingBlock: XIVTED_clean_linker_0, # of connection points: 2
#     Edge 46, Type (0, 1), BuildingBlock: XIVTED_clean_linker_0, # of connection points: 2
#     Edge 47, Type (0, 1), BuildingBlock: XIVTED_clean_linker_0, # of connection points: 2
#     Edge 48, Type (0, 1), BuildingBlock: XIVTED_clean_linker_0, # of connection points: 2
#     Edge 49, Type (0, 1), BuildingBlock: XIVTED_clean_linker_0, # of connection points: 2
#     Edge 50, Type (0, 1), BuildingBlock: XIVTED_clean_linker_0, # of connection points: 2
#     Edge 51, Type (0, 1), BuildingBlock: XIVTED_clean_linker_0, # of connection points: 2
#     Edge 52, Type (0, 1), BuildingBlock: XIVTED_clean_linker_0, # of connection points: 2
#     Edge 53, Type (0, 1), BuildingBlock: XIVTED_clean_linker_0, # of connection points: 2
#     Edge 54, Type (0, 1), BuildingBlock: XIVTED_clean_linker_0, # of connection points: 2
#     Edge 55, Type (0, 1), BuildingBlock: XIVTED_clean_linker_0, # of connection points: 2
#     Edge 56, Type (0, 1), BuildingBlock: XIVTED_clean_linker_0, # of connection points: 2
#     Edge 57, Type (0, 1), BuildingBlock: XIVTED_clean_linker_0, # of connection points: 2
#     Edge 58, Type (0, 1), BuildingBlock: XIVTED_clean_linker_0, # of connection points: 2
#     Edge 59, Type (0, 1), BuildingBlock: XIVTED_clean_linker_0, # of connection points: 2
#     Edge 60, Type (0, 1), BuildingBlock: XIVTED_clean_linker_0, # of connection points: 2
#     Edge 61, Type (0, 1), BuildingBlock: XIVTED_clean_linker_0, # of connection points: 2
#     Edge 62, Type (0, 1), BuildingBlock: XIVTED_clean_linker_0, # of connection points: 2
#     Edge 63, Type (0, 1), BuildingBlock: XIVTED_clean_linker_0, # of connection points: 2
#     Edge 64, Type (0, 1), BuildingBlock: XIVTED_clean_linker_0, # of connection points: 2
#     Edge 65, Type (0, 1), BuildingBlock: XIVTED_clean_linker_0, # of connection points: 2
#     Edge 66, Type (0, 1), BuildingBlock: XIVTED_clean_linker_0, # of connection points: 2
#     Edge 67, Type (0, 1), BuildingBlock: XIVTED_clean_linker_0, # of connection points: 2
#     Edge 68, Type (0, 1), BuildingBlock: XIVTED_clean_linker_0, # of connection points: 2
#     Edge 69, Type (0, 1), BuildingBlock: XIVTED_clean_linker_0, # of connection points: 2
#     Edge 70, Type (0, 1), BuildingBlock: XIVTED_clean_linker_0, # of connection points: 2
#     Edge 71, Type (0, 1), BuildingBlock: XIVTED_clean_linker_0, # of connection points: 2
#     Edge 72, Type (0, 1), BuildingBlock: XIVTED_clean_linker_0, # of connection points: 2
#     Edge 73, Type (0, 1), BuildingBlock: XIVTED_clean_linker_0, # of connection points: 2
#     Edge 74, Type (0, 1), BuildingBlock: XIVTED_clean_linker_0, # of connection points: 2
#     Edge 75, Type (0, 1), BuildingBlock: XIVTED_clean_linker_0, # of connection points: 2
#     Edge 76, Type (0, 1), BuildingBlock: XIVTED_clean_linker_0, # of connection points: 2
#     Edge 77, Type (0, 1), BuildingBlock: XIVTED_clean_linker_0, # of connection points: 2
#     Edge 78, Type (0, 1), BuildingBlock: XIVTED_clean_linker_0, # of connection points: 2
#     Edge 79, Type (0, 1), BuildingBlock: XIVTED_clean_linker_0, # of connection points: 2
#     Edge 80, Type (0, 1), BuildingBlock: XIVTED_clean_linker_0, # of connection points: 2
#     Edge 81, Type (0, 1), BuildingBlock: XIVTED_clean_linker_0, # of connection points: 2
#     Edge 82, Type (0, 1), BuildingBlock: XIVTED_clean_linker_0, # of connection points: 2
#     Edge 83, Type (0, 1), BuildingBlock: XIVTED_clean_linker_0, # of connection points: 2
#     Edge 84, Type (0, 1), BuildingBlock: XIVTED_clean_linker_0, # of connection points: 2
#     Edge 85, Type (0, 1), BuildingBlock: XIVTED_clean_linker_0, # of connection points: 2
#     Edge 86, Type (0, 1), BuildingBlock: XIVTED_clean_linker_0, # of connection points: 2
#     Edge 87, Type (0, 1), BuildingBlock: XIVTED_clean_linker_0, # of connection points: 2
#     Edge 88, Type (0, 1), BuildingBlock: XIVTED_clean_linker_0, # of connection points: 2
#     Edge 89, Type (0, 1), BuildingBlock: XIVTED_clean_linker_0, # of connection points: 2
#     Edge 90, Type (0, 1), BuildingBlock: XIVTED_clean_linker_0, # of connection points: 2
#     Edge 91, Type (0, 1), BuildingBlock: XIVTED_clean_linker_0, # of connection points: 2
#     Edge 92, Type (0, 1), BuildingBlock: XIVTED_clean_linker_0, # of connection points: 2
#     Edge 93, Type (0, 1), BuildingBlock: XIVTED_clean_linker_0, # of connection points: 2
#     Edge 94, Type (0, 1), BuildingBlock: XIVTED_clean_linker_0, # of connection points: 2
#     Edge 95, Type (0, 1), BuildingBlock: XIVTED_clean_linker_0, # of connection points: 2
#     Edge 96, Type (0, 1), BuildingBlock: XIVTED_clean_linker_0, # of connection points: 2
#     Edge 97, Type (0, 1), BuildingBlock: XIVTED_clean_linker_0, # of connection points: 2
#     Edge 98, Type (0, 1), BuildingBlock: XIVTED_clean_linker_0, # of connection points: 2
#     Edge 99, Type (0, 1), BuildingBlock: XIVTED_clean_linker_0, # of connection points: 2
#     Edge 100, Type (0, 1), BuildingBlock: XIVTED_clean_linker_0, # of connection points: 2
#     Edge 101, Type (0, 1), BuildingBlock: XIVTED_clean_linker_0, # of connection points: 2
#     Edge 102, Type (0, 1), BuildingBlock: XIVTED_clean_linker_0, # of connection points: 2
#     Edge 103, Type (0, 1), BuildingBlock: XIVTED_clean_linker_0, # of connection points: 2
#     Edge 104, Type (0, 1), BuildingBlock: XIVTED_clean_linker_0, # of connection points: 2
#     Edge 105, Type (0, 1), BuildingBlock: XIVTED_clean_linker_0, # of connection points: 2
#     Edge 106, Type (0, 1), BuildingBlock: XIVTED_clean_linker_0, # of connection points: 2
#     Edge 107, Type (0, 1), BuildingBlock: XIVTED_clean_linker_0, # of connection points: 2
#     Edge 108, Type (0, 1), BuildingBlock: XIVTED_clean_linker_0, # of connection points: 2
#     Edge 109, Type (0, 1), BuildingBlock: XIVTED_clean_linker_0, # of connection points: 2
#     Edge 110, Type (0, 1), BuildingBlock: XIVTED_clean_linker_0, # of connection points: 2
#     Edge 111, Type (0, 1), BuildingBlock: XIVTED_clean_linker_0, # of connection points: 2
#     Edge 112, Type (0, 1), BuildingBlock: XIVTED_clean_linker_0, # of connection points: 2
#     Edge 113, Type (0, 1), BuildingBlock: XIVTED_clean_linker_0, # of connection points: 2
#     Edge 114, Type (0, 1), BuildingBlock: XIVTED_clean_linker_0, # of connection points: 2
#     Edge 115, Type (0, 1), BuildingBlock: XIVTED_clean_linker_0, # of connection points: 2
#     Edge 116, Type (0, 1), BuildingBlock: XIVTED_clean_linker_0, # of connection points: 2
#     Edge 117, Type (0, 1), BuildingBlock: XIVTED_clean_linker_0, # of connection points: 2
#     Edge 118, Type (0, 1), BuildingBlock: XIVTED_clean_linker_0, # of connection points: 2
#     Edge 119, Type (0, 1), BuildingBlock: XIVTED_clean_linker_0, # of connection points: 2
#     Edge 120, Type (0, 1), BuildingBlock: XIVTED_clean_linker_0, # of connection points: 2
#     Edge 121, Type (0, 1), BuildingBlock: XIVTED_clean_linker_0, # of connection points: 2
#     Edge 122, Type (0, 1), BuildingBlock: XIVTED_clean_linker_0, # of connection points: 2
#     Edge 123, Type (0, 1), BuildingBlock: XIVTED_clean_linker_0, # of connection points: 2
#     Edge 124, Type (0, 1), BuildingBlock: XIVTED_clean_linker_0, # of connection points: 2
#     Edge 125, Type (0, 1), BuildingBlock: XIVTED_clean_linker_0, # of connection points: 2
#     Edge 126, Type (0, 1), BuildingBlock: XIVTED_clean_linker_0, # of connection points: 2
#     Edge 127, Type (0, 1), BuildingBlock: XIVTED_clean_linker_0, # of connection points: 2
#     Edge 128, Type (0, 1), BuildingBlock: XIVTED_clean_linker_0, # of connection points: 2
#     Edge 129, Type (0, 1), BuildingBlock: XIVTED_clean_linker_0, # of connection points: 2
#     Edge 130, Type (0, 1), BuildingBlock: XIVTED_clean_linker_0, # of connection points: 2
#     Edge 131, Type (0, 1), BuildingBlock: XIVTED_clean_linker_0, # of connection points: 2
#     Edge 132, Type (0, 1), BuildingBlock: XIVTED_clean_linker_0, # of connection points: 2
#     Edge 133, Type (0, 1), BuildingBlock: XIVTED_clean_linker_0, # of connection points: 2
#     Edge 134, Type (0, 1), BuildingBlock: XIVTED_clean_linker_0, # of connection points: 2
#     Edge 135, Type (0, 1), BuildingBlock: XIVTED_clean_linker_0, # of connection points: 2
# Relax obj value: 0.158
# Max RMSD: 0.262
# Mean RMSD: 0.182
data_MOF--net-gar--node1-NAHDIM_clean_sbu_0--node2-PAMTOO_clean_sbu_0--edge1-XIVTED_clean_linker_0
_symmetry_space_group_name_H-M    P1
_symmetry_Int_Tables_number       1
_symmetry_cell_setting            triclinic
loop_
_symmetry_equiv_pos_as_xyz
'x, y, z'
_cell_length_a     61.347995
_cell_length_b     60.494297
_cell_length_c     57.208258
_cell_angle_alpha  96.883754
_cell_angle_beta   96.682613
_cell_angle_gamma 103.87251
loop_
_atom_site_label
_atom_site_type_symbol
_atom_site_fract_x
_atom_site_fract_y
_atom_site_fract_z
_atom_type_partial_charge
C0 C 0.09894 0.31659 0.35136 0.0
O1 O 0.10137 0.32158 0.37467 0.0
O2 O 0.04595 0.28699 0.37705 0.0
Zn3 Zn 0.04981 0.31438 0.35798 0.0
O4 O 0.05507 0.34469 0.38238 0.0
C5 C 0.99989 0.30607 0.34782 0.0
O6 O 0.00347 0.30412 0.37049 0.0
O7 O 0.07887 0.31341 0.33968 0.0
C8 C 0.04559 0.36068 0.37783 0.0
O9 O 0.03389 0.35863 0.35659 0.0
C10 C 0.05077 0.28942 0.39968 0.0
O11 O 0.05876 0.31031 0.41167 0.0
O12 O 0.0173 0.31021 0.33694 0.0
C13 C 0.97503 0.76715 0.72377 0.0
O14 O 0.98881 0.78743 0.7237 0.0
O15 O 0.00797 0.71731 0.67852 0.0
Zn16 Zn 0.01166 0.74941 0.69928 0.0
O17 O 0.01368 0.77424 0.67699 0.0
C18 C 0.06166 0.75886 0.70909 0.0
O19 O 0.05765 0.75951 0.68616 0.0
O20 O 0.98136 0.74916 0.71593 0.0
C21 C 0.02519 0.79506 0.68384 0.0
O22 O 0.03602 0.80085 0.70576 0.0
C23 C 0.01344 0.71556 0.65761 0.0
O24 O 0.01988 0.73449 0.64834 0.0
O25 O 0.0445 0.75542 0.72042 0.0
C26 C 0.59118 0.82051 0.84772 0.0
O27 O 0.59496 0.83542 0.86736 0.0
O28 O 0.53847 0.78568 0.87869 0.0
Zn29 Zn 0.54201 0.81193 0.85831 0.0
O30 O 0.54843 0.8435 0.8808 0.0
C31 C 0.49113 0.79635 0.84468 0.0
O32 O 0.49371 0.78637 0.86361 0.0
O33 O 0.57044 0.80941 0.83966 0.0
C34 C 0.54184 0.84484 0.90122 0.0
O35 O 0.53161 0.82574 0.90841 0.0
C36 C 0.55349 0.78441 0.8955 0.0
O37 O 0.57252 0.80078 0.90059 0.0
O38 O 0.50914 0.80775 0.83772 0.0
C39 C 0.47056 0.24415 0.21116 0.0
O40 O 0.46648 0.23052 0.19059 0.0
O41 O 0.51473 0.21848 0.18042 0.0
Zn42 Zn 0.51956 0.25093 0.20069 0.0
O43 O 0.51989 0.27402 0.17703 0.0
C44 C 0.56534 0.24471 0.22135 0.0
O45 O 0.55478 0.22291 0.21422 0.0
O46 O 0.4915 0.25391 0.21991 0.0
C47 C 0.52917 0.29539 0.18394 0.0
O48 O 0.53827 0.30223 0.20639 0.0
C49 C 0.52607 0.21749 0.16309 0.0
O50 O 0.53903 0.23682 0.15882 0.0
O51 O 0.55376 0.25969 0.2194 0.0
C52 C 0.01197 0.78267 0.12449 0.0
O53 O 0.00715 0.76829 0.10438 0.0
O54 O 0.04704 0.76483 0.08596 0.0
Zn55 Zn 0.05454 0.79847 0.10562 0.0
O56 O 0.05185 0.82632 0.08645 0.0
C57 C 0.08862 0.79101 0.14119 0.0
O58 O 0.07027 0.77601 0.14447 0.0
O59 O 0.03127 0.79737 0.12917 0.0
C60 C 0.05834 0.84713 0.09749 0.0
O61 O 0.06749 0.85033 0.11997 0.0
C62 C 0.06212 0.75443 0.08063 0.0
O63 O 0.08355 0.7661 0.08516 0.0
O64 O 0.08667 0.80387 0.12532 0.0
C65 C 0.53536 0.78274 0.42117 0.0
O66 O 0.53897 0.7968 0.4414 0.0
O67 O 0.48966 0.73585 0.45347 0.0
Zn68 Zn 0.49048 0.76564 0.43587 0.0
O69 O 0.49624 0.79842 0.45735 0.0
C70 C 0.44254 0.7659 0.41922 0.0
O71 O 0.44289 0.77259 0.44201 0.0
O72 O 0.51616 0.76802 0.41511 0.0
C73 C 0.49114 0.81483 0.44738 0.0
O74 O 0.48247 0.81031 0.42471 0.0
C75 C 0.50737 0.72836 0.45818 0.0
O76 O 0.52674 0.74043 0.45343 0.0
O77 O 0.46025 0.76109 0.41251 0.0
C78 C 0.51615 0.27816 0.63306 0.0
O79 O 0.52051 0.25872 0.62477 0.0
O80 O 0.54729 0.26485 0.58763 0.0
Zn81 Zn 0.55459 0.29791 0.60889 0.0
O82 O 0.55732 0.3283 0.59204 0.0
C83 C 0.6041 0.30609 0.62992 0.0
O84 O 0.60858 0.3135 0.60989 0.0
O85 O 0.52837 0.29701 0.62869 0.0
C86 C 0.53984 0.33487 0.58393 0.0
O87 O 0.51968 0.32132 0.58432 0.0
C88 C 0.5623 0.25387 0.58363 0.0
O89 O 0.5838 0.26475 0.59016 0.0
O90 O 0.5834 0.2999 0.63319 0.0
C91 C 0.02239 0.25576 0.90468 0.0
O92 O 0.0101 0.23443 0.90279 0.0
O93 O 0.98934 0.2367 0.95389 0.0
Zn94 Zn 0.99034 0.26686 0.93718 0.0
O95 O 0.99544 0.29895 0.95941 0.0
C96 C 0.94276 0.26724 0.92043 0.0
O97 O 0.94345 0.27441 0.94318 0.0
O98 O 0.01705 0.27161 0.91783 0.0
C99 C 0.99117 0.31564 0.94936 0.0
O100 O 0.98363 0.31153 0.9264 0.0
C101 C 0.00708 0.23026 0.96125 0.0
O102 O 0.02703 0.24378 0.95997 0.0
O103 O 0.96032 0.2622 0.91359 0.0
C104 C 0.33995 0.04716 0.27525 0.0
O105 O 0.34285 0.03117 0.25912 0.0
O106 O 0.39614 0.04114 0.26854 0.0
Zn107 Zn 0.38014 0.03962 0.29693 0.0
O108 O 0.40253 0.05198 0.32661 0.0
C109 C 0.3499 -0.00152 0.307 0.0
O110 O 0.3396 0.01277 0.31738 0.0
O111 O 0.35465 0.05461 0.29383 0.0
C112 C 0.41942 0.04322 0.32783 0.0
O113 O 0.42085 0.02808 0.30996 0.0
C114 C 0.41421 0.05621 0.26738 0.0
O115 O 0.42225 0.07348 0.28489 0.0
O116 O 0.36726 0.00632 0.2975 0.0
C117 C 0.29849 0.15967 0.53687 0.0
O118 O 0.28543 0.15962 0.55352 0.0
O119 O 0.27356 0.20846 0.54818 0.0
Zn120 Zn 0.26938 0.18587 0.51744 0.0
O121 O 0.269 0.20065 0.48704 0.0
C122 C 0.22189 0.1602 0.50282 0.0
O123 O 0.22168 0.17578 0.48871 0.0
O124 O 0.29505 0.17017 0.51937 0.0
C125 C 0.28732 0.21136 0.48058 0.0
O126 O 0.30664 0.21412 0.49457 0.0
C127 C 0.25712 0.21472 0.55629 0.0
O128 O 0.23685 0.20804 0.54343 0.0
O129 O 0.24021 0.1611 0.51626 0.0
C130 C 0.14504 -0.00026 0.78883 0.0
O131 O 0.12551 0.99254 0.79636 0.0
O132 O 0.11321 0.0465 0.76378 0.0
Zn133 Zn 0.13452 0.04496 0.79364 0.0
O134 O 0.11956 0.03987 0.82353 0.0
C135 C 0.15113 0.09399 0.80328 0.0
O136 O 0.12931 0.09226 0.80282 0.0
O137 O 0.15177 0.0208 0.78635 0.0
C138 C 0.09951 0.04101 0.82619 0.0
O139 O 0.08641 0.04523 0.80832 0.0
C140 C 0.10277 0.02912 0.74831 0.0
O141 O 0.10396 0.0085 0.75238 0.0
O142 O 0.15784 0.07567 0.80046 0.0
C143 C 0.26523 0.97288 0.00208 0.0
O144 O 0.27711 0.97526 0.98443 0.0
O145 O 0.28447 0.91358 0.03009 0.0
Zn146 Zn 0.28491 0.93538 0.00645 0.0
O147 O 0.27578 0.91654 0.97413 0.0
C148 C 0.32876 0.96083 0.02924 0.0
O149 O 0.3199 0.95516 0.04819 0.0
O150 O 0.26526 0.95621 0.01358 0.0
C151 C 0.28698 0.90159 0.9708 0.0
O152 O 0.30302 0.90073 0.98775 0.0
C153 C 0.26927 0.89476 0.02801 0.0
O154 O 0.252 0.88994 0.01072 0.0
O155 O 0.31668 0.95444 0.00887 0.0
C156 C 0.24753 0.39945 0.03755 0.0
O157 O 0.23973 0.37694 0.03477 0.0
O158 O 0.28669 0.37033 0.07159 0.0
Zn159 Zn 0.29067 0.38774 0.04317 0.0
O160 O 0.28489 0.36652 0.0111 0.0
C161 C 0.32901 0.42951 0.05204 0.0
O162 O 0.31363 0.44087 0.05558 0.0
O163 O 0.26889 0.40816 0.04159 0.0
C164 C 0.30131 0.36183 0.00146 0.0
O165 O 0.32199 0.3693 0.01332 0.0
C166 C 0.28874 0.3821 0.09213 0.0
O167 O 0.29312 0.40465 0.09395 0.0
O168 O 0.32297 0.40762 0.0473 0.0
C169 C 0.81298 0.12689 0.00509 0.0
O170 O 0.80486 0.14024 0.99186 0.0
O171 O 0.80277 0.15921 0.07593 0.0
Zn172 Zn 0.79238 0.14804 0.04111 0.0
O173 O 0.79257 0.17533 0.02461 0.0
C174 C 0.75387 0.1146 0.05019 0.0
O175 O 0.76852 0.11203 0.06766 0.0
O176 O 0.8106 0.12819 0.02694 0.0
C177 C 0.77829 0.18674 0.0292 0.0
O178 O 0.76437 0.18021 0.04433 0.0
C179 C 0.81681 0.17874 0.08267 0.0
O180 O 0.82604 0.19018 0.06663 0.0
O181 O 0.76037 0.12911 0.03653 0.0
C182 C 0.20397 0.50864 0.28051 0.0
O183 O 0.20052 0.52461 0.29627 0.0
O184 O 0.14919 0.5145 0.22408 0.0
Zn185 Zn 0.1706 0.5234 0.25488 0.0
O186 O 0.15128 0.52401 0.28086 0.0
C187 C 0.19554 0.56497 0.23844 0.0
O188 O 0.18941 0.55335 0.21679 0.0
O189 O 0.19184 0.50363 0.26009 0.0
C190 C 0.15474 0.54199 0.29619 0.0
O191 O 0.17244 0.5593 0.29643 0.0
C192 C 0.13666 0.52839 0.22254 0.0
O193 O 0.13947 0.54547 0.24005 0.0
O194 O 0.18972 0.55534 0.25606 0.0
C195 C 0.74917 0.89848 0.52963 0.0
O196 O 0.74246 0.87676 0.51972 0.0
O197 O 0.79026 0.87148 0.57215 0.0
Zn198 Zn 0.79175 0.88655 0.54204 0.0
O199 O 0.78566 0.86387 0.51101 0.0
C200 C 0.82978 0.92859 0.55063 0.0
O201 O 0.81489 0.93956 0.5572 0.0
O202 O 0.76946 0.90646 0.54029 0.0
C203 C 0.80206 0.85858 0.50186 0.0
O204 O 0.82269 0.86612 0.51383 0.0
C205 C 0.77207 0.86038 0.57851 0.0
O206 O 0.75269 0.85701 0.56442 0.0
O207 O 0.82354 0.90689 0.54413 0.0
C208 C 0.9075 0.05507 0.28822 0.0
O209 O 0.90738 0.04132 0.30436 0.0
O210 O 0.94888 0.02536 0.23851 0.0
Zn211 Zn 0.93384 0.0262 0.2688 0.0
O212 O 0.95562 0.0305 0.29995 0.0
C213 C 0.90974 0.97754 0.25512 0.0
O214 O 0.92633 0.97706 0.24262 0.0
O215 O 0.91814 0.0522 0.27074 0.0
C216 C 0.96157 0.01381 0.3082 0.0
O217 O 0.95525 -0.00672 0.29523 0.0
C218 C 0.95964 0.04343 0.23132 0.0
O219 O 0.96239 0.06355 0.24445 0.0
O220 O 0.90944 -0.00353 0.26726 0.0
C221 C 0.30671 0.62421 0.50234 0.0
O222 O 0.29948 0.63794 0.48894 0.0
O223 O 0.29298 0.65525 0.57222 0.0
Zn224 Zn 0.28513 0.64579 0.5369 0.0
O225 O 0.28901 0.67438 0.52217 0.0
C226 C 0.24475 0.61112 0.53817 0.0
O227 O 0.25872 0.60394 0.55285 0.0
O228 O 0.30326 0.62521 0.52387 0.0
C229 C 0.2765 0.68745 0.52799 0.0
O230 O 0.26225 0.68151 0.54298 0.0
C231 C 0.30825 0.67365 0.58065 0.0
O232 O 0.32037 0.68472 0.56617 0.0
O233 O 0.25235 0.62893 0.52896 0.0
C234 C 0.40652 0.55268 0.78539 0.0
O235 O 0.40696 0.53958 0.80208 0.0
O236 O 0.4497 0.52422 0.7372 0.0
Zn237 Zn 0.43429 0.5248 0.76724 0.0
O238 O 0.45573 0.52973 0.79879 0.0
C239 C 0.41011 0.4761 0.75278 0.0
O240 O 0.42619 0.4758 0.73955 0.0
O241 O 0.41757 0.54996 0.76823 0.0
C242 C 0.46208 0.51325 0.80707 0.0
O243 O 0.45639 0.49279 0.79396 0.0
C244 C 0.4599 0.54251 0.72995 0.0
O245 O 0.46188 0.56252 0.74294 0.0
O246 O 0.41028 0.49482 0.76564 0.0
C247 C 0.70938 -0.00447 0.73155 0.0
O248 O 0.69988 -0.00371 0.70996 0.0
O249 O 0.65166 0.00166 0.71675 0.0
Zn250 Zn 0.67276 0.01327 0.74751 0.0
O251 O 0.65638 0.0067 0.77507 0.0
C252 C 0.67461 0.06169 0.76002 0.0
O253 O 0.65584 0.0541 0.76878 0.0
O254 O 0.70012 0.00092 0.74936 0.0
C255 C 0.66629 0.01566 0.79596 0.0
O256 O 0.68779 0.02707 0.79907 0.0
C257 C 0.6307 0.00077 0.71621 0.0
O258 O 0.62312 0.00595 0.73616 0.0
O259 O 0.6841 0.04743 0.74997 0.0
C260 C 0.80096 0.66535 0.03728 0.0
O261 O 0.79606 0.67468 0.05729 0.0
O262 O 0.77161 0.70814 0.0476 0.0
Zn263 Zn 0.76725 0.68678 0.01601 0.0
O264 O 0.77049 0.704 0.9875 0.0
C265 C 0.73195 0.64778 0.02271 0.0
O266 O 0.74863 0.64441 0.03728 0.0
O267 O 0.79089 0.66826 0.01758 0.0
C268 C 0.76879 0.69199 0.96717 0.0
O269 O 0.76481 0.6695 0.96574 0.0
C270 C 0.75543 0.71455 0.05609 0.0
O271 O 0.73514 0.70866 0.04327 0.0
O272 O 0.73586 0.6648 0.01134 0.0
C273 C 0.85743 0.55461 0.75826 0.0
O274 O 0.86675 0.54402 0.74233 0.0
O275 O 0.90172 0.52774 0.76641 0.0
Zn276 Zn 0.87976 0.53074 0.789 0.0
O277 O 0.89745 0.53996 0.82176 0.0
C278 C 0.8535 0.4864 0.76702 0.0
O279 O 0.8614 0.49386 0.74825 0.0
O280 O 0.86141 0.55227 0.77999 0.0
C281 C 0.91039 0.527 0.8264 0.0
O282 O 0.91007 0.5094 0.81037 0.0
C283 C 0.92197 0.54006 0.76888 0.0
O284 O 0.92926 0.55735 0.78648 0.0
O285 O 0.85875 0.49957 0.78695 0.0
C286 C 0.76295 0.46635 0.51567 0.0
O287 O 0.77915 0.47441 0.50345 0.0
O288 O 0.77691 0.40072 0.52737 0.0
Zn289 Zn 0.77657 0.4244 0.50621 0.0
O290 O 0.7632 0.40704 0.47393 0.0
C291 C 0.82141 0.44836 0.52668 0.0
O292 O 0.81314 0.44279 0.54597 0.0
O293 O 0.75847 0.44529 0.51838 0.0
C294 C 0.76601 0.41531 0.45484 0.0
O295 O 0.77692 0.43705 0.45606 0.0
C296 C 0.78991 0.38743 0.52465 0.0
O297 O 0.80315 0.38983 0.50815 0.0
O298 O 0.8086 0.44243 0.50668 0.0
C299 C 0.66217 0.51458 0.27083 0.0
O300 O 0.66327 0.52954 0.25587 0.0
O301 O 0.61411 0.54324 0.26263 0.0
Zn302 Zn 0.63529 0.54234 0.2929 0.0
O303 O 0.62043 0.54 0.32324 0.0
C304 C 0.65357 0.59095 0.30072 0.0
O305 O 0.63192 0.58979 0.30089 0.0
O306 O 0.65073 0.51629 0.28784 0.0
C307 C 0.59931 0.53581 0.32472 0.0
O308 O 0.58467 0.53262 0.30517 0.0
C309 C 0.60399 0.52573 0.24717 0.0
O310 O 0.60545 0.50522 0.2514 0.0
O311 O 0.65975 0.57232 0.29812 0.0
Dy312 Dy 0.05057 0.04895 0.03931 0.0
Dy313 Dy 1.0 0.0212 0.01323 0.0
C314 C 0.04126 0.03194 0.98376 0.0
O315 O 0.03721 0.07567 0.02229 0.0
O316 O 0.99897 0.05865 0.0135 0.0
O317 O 0.08007 0.07717 0.04104 0.0
O318 O 0.07906 0.05432 0.06737 0.0
O319 O 1.00005 0.02193 0.05257 0.0
O320 O 0.02741 0.05542 0.06531 0.0
O321 O 0.01698 0.99258 0.01957 0.0
O322 O 0.04699 0.0128 0.04787 0.0
O323 O 0.96403 0.0105 0.01364 0.0
O324 O 0.97816 -0.00172 0.98311 0.0
C325 C 0.01639 0.07683 0.01515 0.0
O326 O 0.05494 0.03258 0.0034 0.0
O327 O 0.02009 0.03233 0.98459 0.0
C328 C 0.11365 0.06762 0.05365 0.0
C329 C 0.15552 0.06023 0.04455 0.0
C330 C 0.13575 0.05028 0.02804 0.0
C331 C 0.115 0.05388 0.03261 0.0
C332 C 0.13332 0.07792 0.07006 0.0
C333 C 0.15419 0.07418 0.06558 0.0
C334 C 0.0916 0.0708 0.05838 0.0
C335 C 0.01019 0.03943 0.06926 0.0
C336 C 0.03381 -0.00698 0.0364 0.0
C337 C 0.94231 0.00605 0.97647 0.0
C338 C 0.90573 0.02244 0.95828 0.0
C339 C 0.92797 0.03682 0.96244 0.0
C340 C 0.94614 0.02865 0.97145 0.0
C341 C 0.92066 0.99095 0.97003 0.0
C342 C 0.90248 -0.00096 0.96077 0.0
C343 C 0.95972 -0.00045 0.99187 0.0
H344 H 0.13616 0.03904 0.01195 0.0
H345 H 0.09992 0.04566 0.01984 0.0
H346 H 0.13249 0.08859 0.08638 0.0
H347 H 0.16921 0.08201 0.07858 0.0
H348 H 0.93116 0.05495 0.96092 0.0
H349 H 0.96284 0.0405 0.97629 0.0
H350 H 0.91752 0.97339 0.97369 0.0
H351 H 0.88562 0.98743 0.95727 0.0
Dy352 Dy 0.28518 0.77994 0.25028 0.0
Dy353 Dy 0.25772 0.78433 0.29521 0.0
C354 C 0.28803 0.82747 0.27988 0.0
O355 O 0.30651 0.76976 0.2799 0.0
O356 O 0.29323 0.78594 0.31196 0.0
O357 O 0.30699 0.79626 0.22707 0.0
O358 O 0.29577 0.75904 0.22257 0.0
O359 O 0.25873 0.74757 0.28779 0.0
O360 O 0.25891 0.74708 0.24797 0.0
O361 O 0.23129 0.77837 0.26311 0.0
O362 O 0.25405 0.79081 0.23567 0.0
O363 O 0.23101 0.77164 0.31543 0.0
O364 O 0.25336 0.80595 0.32612 0.0
C365 C 0.30838 0.77661 0.30299 0.0
O366 O 0.30051 0.81411 0.27253 0.0
O367 O 0.26726 0.81847 0.28316 0.0
C368 C 0.29964 0.77676 0.1883 0.0
C369 C 0.2908 0.78727 0.14224 0.0
C370 C 0.27373 0.78446 0.15687 0.0
C371 C 0.27813 0.77923 0.17975 0.0
C372 C 0.31604 0.77755 0.17314 0.0
C373 C 0.31161 0.78262 0.15017 0.0
C374 C 0.30604 0.77691 0.21374 0.0
C375 C 0.25529 0.73619 0.26613 0.0
C376 C 0.23381 0.78531 0.24242 0.0
C377 C 0.24227 0.78519 0.35624 0.0
C378 C 0.25325 0.77835 0.40337 0.0
C379 C 0.26431 0.77014 0.38529 0.0
C380 C 0.2589 0.77359 0.36194 0.0
C381 C 0.23116 0.79346 0.37408 0.0
C382 C 0.23657 0.79 0.39755 0.0
C383 C 0.23767 0.78974 0.33192 0.0
H384 H 0.2576 0.78811 0.15145 0.0
H385 H 0.26529 0.77866 0.19131 0.0
H386 H 0.33271 0.7756 0.17953 0.0
H387 H 0.32494 0.78425 0.13913 0.0
H388 H 0.27686 0.76064 0.38906 0.0
H389 H 0.26772 0.76723 0.34831 0.0
H390 H 0.21846 0.80269 0.36988 0.0
H391 H 0.22784 0.79656 0.41114 0.0
Dy392 Dy 0.5019 0.02911 0.53372 0.0
Dy393 Dy 0.55204 0.03582 0.51595 0.0
C394 C 0.50948 0.04262 0.48287 0.0
O395 O 0.50128 -0.00505 0.51208 0.0
O396 O 0.53945 -0.00225 0.51691 0.0
O397 O 0.46542 0.01675 0.5254 0.0
O398 O 0.48114 0.0333 0.56113 0.0
O399 O 0.55763 0.03571 0.55493 0.0
O400 O 0.52248 0.01521 0.56029 0.0
O401 O 0.54773 0.07206 0.52239 0.0
O402 O 0.5201 0.06653 0.54667 0.0
O403 O 0.58834 0.05091 0.52182 0.0
O404 O 0.57249 0.02687 0.48987 0.0
C405 C 0.51832 0.98522 0.51122 0.0
O406 O 0.50012 0.04657 0.50183 0.0
O407 O 0.52713 0.03393 0.48364 0.0
C408 C 0.44622 0.04001 0.54633 0.0
C409 C 0.41503 0.06758 0.54551 0.0
C410 C 0.43622 0.07506 0.53786 0.0
C411 C 0.45167 0.0614 0.53828 0.0
C412 C 0.42522 0.03247 0.55403 0.0
C413 C 0.40976 0.04612 0.55365 0.0
C414 C 0.46218 0.02535 0.54636 0.0
C415 C 0.54445 0.02277 0.56714 0.0
C416 C 0.53566 0.08036 0.53728 0.0
C417 C 0.60827 0.02468 0.50746 0.0
C418 C 0.63957 -0.00224 0.51424 0.0
C419 C 0.61847 0.99201 0.52244 0.0
C420 C 0.60301 0.00538 0.51913 0.0
C421 C 0.62936 0.03071 0.49954 0.0
C422 C 0.64494 0.0174 0.50296 0.0
C423 C 0.59157 0.03815 0.50316 0.0
H424 H 0.44096 0.09159 0.53178 0.0
H425 H 0.46787 0.06748 0.53228 0.0
H426 H 0.42071 0.01595 0.56019 0.0
H427 H 0.3935 0.03968 0.55934 0.0
H428 H 0.61395 0.9772 0.53149 0.0
H429 H 0.58684 0.00056 0.52553 0.0
H430 H 0.63369 0.04555 0.49049 0.0
H431 H 0.66095 0.02217 0.49626 0.0
Dy432 Dy 0.30059 0.27924 0.78037 0.0
Dy433 Dy 0.25227 0.29629 0.77688 0.0
C434 C 0.29908 0.32886 0.76835 0.0
O435 O 0.30043 0.29885 0.81628 0.0
O436 O 0.26197 0.29322 0.81495 0.0
O437 O 0.33696 0.28816 0.79091 0.0
O438 O 0.31961 0.254 0.7724 0.0
O439 O 0.24296 0.25831 0.77635 0.0
O440 O 0.27607 0.25197 0.79431 0.0
O441 O 0.25878 0.29034 0.73898 0.0
O442 O 0.28164 0.26556 0.74379 0.0
O443 O 0.2169 0.29136 0.76254 0.0
O444 O 0.23355 0.32004 0.79017 0.0
C445 C 0.28258 0.29906 0.82697 0.0
O446 O 0.30583 0.31028 0.76232 0.0
O447 O 0.28077 0.32795 0.77847 0.0
C448 C 0.35663 0.27028 0.76412 0.0
C449 C 0.39077 0.2732 0.73421 0.0
C450 C 0.37702 0.28883 0.73456 0.0
C451 C 0.3601 0.28734 0.74928 0.0
C452 C 0.37021 0.25464 0.76377 0.0
C453 C 0.38704 0.25605 0.74901 0.0
C454 C 0.3392 0.26872 0.78019 0.0
C455 C 0.25392 0.24555 0.78757 0.0
C456 C 0.26901 0.2751 0.7301 0.0
C457 C 0.19479 0.30259 0.79097 0.0
C458 C 0.15752 0.29281 0.81663 0.0
C459 C 0.17352 0.27951 0.81703 0.0
C460 C 0.19199 0.2844 0.80441 0.0
C461 C 0.17893 0.31586 0.79049 0.0
C462 C 0.16053 0.31107 0.80317 0.0
C463 C 0.21427 0.30809 0.7777 0.0
H464 H 0.37914 0.30207 0.72323 0.0
H465 H 0.34974 0.29954 0.74909 0.0
H466 H 0.36788 0.24137 0.77508 0.0
H467 H 0.39742 0.24389 0.74951 0.0
H468 H 0.17199 0.26552 0.8274 0.0
H469 H 0.20414 0.27404 0.80522 0.0
H470 H 0.18076 0.32998 0.78026 0.0
H471 H 0.14847 0.32151 0.80214 0.0
Dy472 Dy 0.03846 0.00928 0.52888 0.0
Dy473 Dy 0.02631 0.06059 0.53464 0.0
C474 C 0.98881 0.01461 0.53776 0.0
O475 O 0.03277 0.01608 0.49118 0.0
O476 O 0.01275 0.04365 0.49704 0.0
O477 O 0.031 0.97257 0.51633 0.0
O478 O 0.06185 0.98971 0.54052 0.0
O479 O 0.0559 0.06361 0.51529 0.0
O480 O 0.07111 0.03669 0.53097 0.0
O481 O 0.04463 0.05736 0.57026 0.0
O482 O 0.03348 0.01813 0.56636 0.0
O483 O 0.03834 0.09737 0.5462 0.0
O484 O 0.0037 0.08263 0.5289 0.0
C485 C 0.01983 0.02885 0.48291 0.0
O486 O 0.00082 0.00239 0.52689 0.0
O487 O 0.99697 0.0367 0.54605 0.0
C488 C 0.04453 0.95124 0.54517 0.0
C489 C 0.0385 0.91604 0.57451 0.0
C490 C 0.01963 0.92132 0.56209 0.0
C491 C 0.0226 0.93877 0.54767 0.0
C492 C 0.06332 0.94578 0.55735 0.0
C493 C 0.06038 0.92852 0.57185 0.0
C494 C 0.04839 0.96997 0.53021 0.0
C495 C 0.07328 0.05524 0.52068 0.0
C496 C 0.04172 0.03824 0.57972 0.0
C497 C 0.02207 0.11989 0.52164 0.0
C498 C 0.02787 0.15614 0.49374 0.0
C499 C 0.03384 0.13556 0.48638 0.0
C500 C 0.03101 0.11765 0.50021 0.0
C501 C 0.0158 0.14017 0.52887 0.0
C502 C 0.01864 0.15805 0.51512 0.0
C503 C 0.01957 0.10155 0.53687 0.0
H504 H 0.00254 0.91226 0.56385 0.0
H505 H 0.00771 0.94255 0.53862 0.0
H506 H 0.08042 0.95497 0.55568 0.0
H507 H 0.07532 0.92477 0.58081 0.0
H508 H 0.04118 0.13347 0.4702 0.0
H509 H 0.036 0.10214 0.49429 0.0
H510 H 0.00879 0.14224 0.54528 0.0
H511 H 0.01345 0.17337 0.52123 0.0
Dy512 Dy 0.28128 0.80251 0.7651 0.0
Dy513 Dy 0.27188 0.75256 0.78448 0.0
C514 C 0.27099 0.79802 0.81748 0.0
O515 O 0.31593 0.80174 0.7836 0.0
O516 O 0.30975 0.76278 0.78398 0.0
O517 O 0.2948 0.83943 0.77232 0.0
O518 O 0.27596 0.82317 0.73764 0.0
O519 O 0.27171 0.74575 0.74535 0.0
O520 O 0.29381 0.78008 0.73888 0.0
O521 O 0.23711 0.75988 0.77927 0.0
O522 O 0.24448 0.78405 0.75162 0.0
O523 O 0.25624 0.71586 0.77839 0.0
O524 O 0.27763 0.73188 0.81171 0.0
C525 C 0.32372 0.78355 0.78675 0.0
O526 O 0.26593 0.80644 0.79817 0.0
O527 O 0.27807 0.77923 0.81654 0.0
C528 C 0.26967 0.85828 0.75414 0.0
C529 C 0.24137 0.88872 0.75905 0.0
C530 C 0.23764 0.86862 0.76975 0.0
C531 C 0.25157 0.85355 0.76724 0.0
C532 C 0.27348 0.87816 0.74331 0.0
C533 C 0.25944 0.89324 0.7457 0.0
C534 C 0.28455 0.84253 0.75212 0.0
C535 C 0.28508 0.75785 0.73262 0.0
C536 C 0.22984 0.77095 0.76266 0.0
C537 C 0.28046 0.69534 0.79556 0.0
C538 C 0.30727 0.66337 0.79248 0.0
C539 C 0.31297 0.68379 0.78251 0.0
C540 C 0.29968 0.69959 0.78401 0.0
C541 C 0.2745 0.67496 0.8053 0.0
C542 C 0.28776 0.65908 0.80375 0.0
C543 C 0.26715 0.71253 0.79807 0.0
H544 H 0.22419 0.86468 0.78047 0.0
H545 H 0.24833 0.83825 0.77572 0.0
H546 H 0.2873 0.88204 0.73304 0.0
H547 H 0.26266 0.90834 0.73692 0.0
H548 H 0.328 0.68787 0.774 0.0
H549 H 0.30458 0.71528 0.77641 0.0
H550 H 0.2597 0.67139 0.81424 0.0
H551 H 0.28264 0.6434 0.81131 0.0
Dy552 Dy 0.53783 0.04494 0.01184 0.0
Dy553 Dy 0.54568 0.02002 0.05879 0.0
C554 C 0.54381 -0.00699 0.00611 0.0
O555 O 0.50426 0.03723 0.02446 0.0
O556 O 0.50859 0.00828 0.04568 0.0
O557 O 0.51786 0.04703 0.97893 0.0
O558 O 0.54973 0.07256 0.99206 0.0
O559 O 0.53326 0.05081 0.07178 0.0
O560 O 0.54459 0.07292 0.04343 0.0
O561 O 0.57923 0.04246 0.05547 0.0
O562 O 0.5736 0.04224 0.01532 0.0
O563 O 0.56154 0.02283 0.09511 0.0
O564 O 0.5408 0.98992 0.07637 0.0
C565 C 0.49581 0.01981 0.03514 0.0
O566 O 0.53376 0.00774 -0.00282 0.0
O567 O 0.55297 -0.00342 0.02869 0.0
C568 C 0.5423 0.05866 0.9512 0.0
C569 C 0.5657 0.04896 0.91337 0.0
C570 C 0.55086 0.03103 0.92154 0.0
C571 C 0.53932 0.03583 0.94032 0.0
C572 C 0.55614 0.07669 0.94222 0.0
C573 C 0.56779 0.07188 0.92346 0.0
C574 C 0.53391 0.06344 0.97384 0.0
C575 C 0.53796 0.07094 0.06433 0.0
C576 C 0.58719 0.04541 0.03552 0.0
C577 C 0.53697 0.00046 0.11647 0.0
C578 C 0.51094 0.00712 0.15279 0.0
C579 C 0.50029 -0.00193 0.12935 0.0
C580 C 0.51317 -0.00518 0.11137 0.0
C581 C 0.54762 0.00824 0.14007 0.0
C582 C 0.53469 0.01157 0.15813 0.0
C583 C 0.55063 0.00195 0.097 0.0
H584 H 0.54909 0.0132 0.9143 0.0
H585 H 0.52895 0.02153 0.94703 0.0
H586 H 0.55876 0.0944 0.95046 0.0
H587 H 0.57894 0.08604 0.91728 0.0
H588 H 0.48206 -0.00525 0.12458 0.0
H589 H 0.50454 0.98904 0.09327 0.0
H590 H 0.56597 0.01285 0.14432 0.0
H591 H 0.54332 0.01831 0.17611 0.0
Dy592 Dy 0.27036 0.26077 0.26478 0.0
Dy593 Dy 0.30076 0.30925 0.29493 0.0
C594 C 0.29044 0.2648 0.32025 0.0
O595 O 0.24486 0.28165 0.27123 0.0
O596 O 0.2652 0.3055 0.30456 0.0
O597 O 0.23927 0.23373 0.2592 0.0
O598 O 0.2643 0.23254 0.23583 0.0
O599 O 0.28603 0.31881 0.26092 0.0
O600 O 0.27786 0.28365 0.23738 0.0
O601 O 0.32602 0.29485 0.27626 0.0
O602 O 0.30661 0.25681 0.26663 0.0
O603 O 0.32991 0.33839 0.29939 0.0
O604 O 0.30727 0.33575 0.32573 0.0
C605 C 0.24551 0.29569 0.29094 0.0
O606 O 0.27353 0.25522 0.30298 0.0
O607 O 0.30597 0.28329 0.31818 0.0
C608 C 0.24446 0.19768 0.24558 0.0
C609 C 0.24603 0.15247 0.25067 0.0
C610 C 0.25667 0.1709 0.269 0.0
C611 C 0.25592 0.19329 0.26644 0.0
C612 C 0.23308 0.17939 0.22758 0.0
C613 C 0.23386 0.15687 0.23009 0.0
C614 C 0.24555 0.22146 0.24224 0.0
C615 C 0.28133 0.30609 0.23977 0.0
C616 C 0.32563 0.27332 0.2686 0.0
C617 C 0.32173 0.37228 0.31581 0.0
C618 C 0.31158 0.41483 0.31276 0.0
C619 C 0.30731 0.39795 0.29247 0.0
C620 C 0.31231 0.37691 0.294 0.0
C621 C 0.327 0.38933 0.33593 0.0
C622 C 0.32198 0.41054 0.33442 0.0
C623 C 0.32396 0.34899 0.31782 0.0
H624 H 0.26663 0.16825 0.28484 0.0
H625 H 0.26492 0.2073 0.28045 0.0
H626 H 0.22415 0.1826 0.21137 0.0
H627 H 0.22545 0.14301 0.21573 0.0
H628 H 0.29886 0.40038 0.27563 0.0
H629 H 0.30793 0.3639 0.2783 0.0
H630 H 0.33422 0.38596 0.35292 0.0
H631 H 0.32557 0.42327 0.35032 0.0
Dy632 Dy 0.53677 0.50613 0.02724 0.0
Dy633 Dy 0.52689 0.55837 0.03408 0.0
C634 C 0.48816 0.51336 0.03725 0.0
O635 O 0.5326 0.51451 0.99002 0.0
O636 O 0.51296 0.54225 -0.00368 0.0
O637 O 0.52686 0.46934 0.01436 0.0
O638 O 0.55943 0.48499 0.03601 0.0
O639 O 0.55756 0.56092 0.01631 0.0
O640 O 0.57022 0.53252 0.03194 0.0
O641 O 0.54426 0.55397 0.06971 0.0
O642 O 0.53299 0.51459 0.06526 0.0
O643 O 0.54001 0.59509 0.04603 0.0
O644 O 0.50517 0.5813 0.02892 0.0
C645 C 0.51997 0.52762 0.98194 0.0
O646 O 0.49935 0.50081 0.02558 0.0
O647 O 0.49715 0.53528 0.04583 0.0
C648 C 0.54091 0.44741 0.04147 0.0
C649 C 0.53601 0.41288 0.07137 0.0
C650 C 0.54071 0.40829 0.04799 0.0
C651 C 0.54317 0.4254 0.03325 0.0
C652 C 0.53576 0.45195 0.06456 0.0
C653 C 0.53338 0.43492 0.07935 0.0
C654 C 0.5448 0.46574 0.0263 0.0
C655 C 0.57409 0.55161 0.02258 0.0
C656 C 0.54127 0.53464 0.07883 0.0
C657 C 0.52452 0.61835 0.0217 0.0
C658 C 0.53079 0.65439 0.99358 0.0
C659 C 0.52468 0.63112 0.98282 0.0
C660 C 0.52169 0.6133 -0.00327 0.0
C661 C 0.53054 0.64149 0.03248 0.0
C662 C 0.53367 0.65929 0.01862 0.0
C663 C 0.52153 0.59986 0.03679 0.0
H664 H 0.54307 0.39165 0.04127 0.0
H665 H 0.5472 0.42154 0.01552 0.0
H666 H 0.53382 0.46878 0.07123 0.0
H667 H 0.52942 0.43903 0.09706 0.0
H668 H 0.52258 0.62666 0.96364 0.0
H669 H 0.51726 0.59559 0.98797 0.0
H670 H 0.53283 0.64581 0.05169 0.0
H671 H 0.5381 0.67694 0.02756 0.0
Dy672 Dy 0.78991 0.30863 0.26359 0.0
Dy673 Dy 0.78082 0.26088 0.28756 0.0
C674 C 0.77757 0.30801 0.31535 0.0
O675 O 0.82514 0.30258 0.27095 0.0
O676 O 0.8177 0.27968 0.29982 0.0
O677 O 0.80576 0.34515 0.26705 0.0
O678 O 0.7821 0.32773 0.23555 0.0
O679 O 0.79575 0.25304 0.2548 0.0
O680 O 0.78928 0.28143 0.23365 0.0
O681 O 0.74647 0.25968 0.26748 0.0
O682 O 0.75187 0.29801 0.2643 0.0
O683 O 0.76704 0.2241 0.28425 0.0
O684 O 0.78608 0.2434 0.31776 0.0
C685 C 0.83233 0.29236 0.28843 0.0
O686 O 0.79243 0.31761 0.30259 0.0
O687 O 0.76796 0.28581 0.31093 0.0
C688 C 0.78054 0.36508 0.25073 0.0
C689 C 0.75494 0.39812 0.25534 0.0
C690 C 0.74906 0.37765 0.26521 0.0
C691 C 0.76177 0.36135 0.26298 0.0
C692 C 0.78665 0.38547 0.24102 0.0
C693 C 0.774 0.40187 0.24333 0.0
C694 C 0.79345 0.34755 0.24782 0.0
C695 C 0.79482 0.26194 0.23502 0.0
C696 C 0.73821 0.27724 0.26305 0.0
C697 C 0.79151 0.20669 0.30559 0.0
C698 C 0.81796 0.17432 0.30342 0.0
C699 C 0.82572 0.19605 0.29645 0.0
C700 C 0.81262 0.21204 0.2975 0.0
C701 C 0.78375 0.18521 0.31279 0.0
C702 C 0.79686 0.16918 0.31176 0.0
C703 C 0.77715 0.22301 0.30527 0.0
H704 H 0.73437 0.37395 0.27429 0.0
H705 H 0.75679 0.3457 0.27064 0.0
H706 H 0.80115 0.38869 0.2316 0.0
H707 H 0.7793 0.41756 0.23583 0.0
H708 H 0.84199 0.20075 0.29025 0.0
H709 H 0.81886 0.22854 0.29176 0.0
H710 H 0.76741 0.18071 0.31888 0.0
H711 H 0.7902 0.15254 0.31698 0.0
Dy712 Dy 0.02619 0.545 0.50631 0.0
Dy713 Dy 0.03874 0.51992 0.55168 0.0
C714 C 0.03583 0.4948 0.498 0.0
O715 O 0.99439 0.53556 0.52215 0.0
O716 O 0.00153 0.50584 0.54044 0.0
O717 O 0.00274 0.54591 0.47551 0.0
O718 O 0.03365 0.5733 0.48634 0.0
O719 O 0.02618 0.55004 0.56713 0.0
O720 O 0.03456 0.57247 0.53825 0.0
O721 O 0.07065 0.54396 0.54656 0.0
O722 O 0.06276 0.5453 0.5068 0.0
O723 O 0.05708 0.52248 0.58687 0.0
O724 O 0.03713 0.4893 0.56796 0.0
C725 C 0.9874 0.517 0.53172 0.0
O726 O 0.02349 0.5084 0.49069 0.0
O727 O 0.04657 0.49868 0.52001 0.0
C728 C 0.02218 0.56086 0.44561 0.0
C729 C 0.04067 0.55744 0.40313 0.0
C730 C 0.03565 0.53838 0.41521 0.0
C731 C 0.0266 0.54012 0.43634 0.0
C732 C 0.02596 0.57954 0.43299 0.0
C733 C 0.03517 0.57785 0.41183 0.0
C734 C 0.0164 0.56381 0.46968 0.0
C735 C 0.02948 0.57024 0.5597 0.0
C736 C 0.07735 0.54784 0.52621 0.0
C737 C 0.03737 0.49697 0.60938 0.0
C738 C 0.01654 0.49677 0.65057 0.0
C739 C 0.00329 0.49104 0.62791 0.0
C740 C 0.01361 0.49127 0.60749 0.0
C741 C 0.05065 0.50161 0.63193 0.0
C742 C 0.04031 0.50158 0.65243 0.0
C743 C 0.04833 0.50091 0.58828 0.0
H744 H 0.04007 0.52257 0.40921 0.0
H745 H 0.0241 0.52561 0.44602 0.0
H746 H 0.02276 0.59571 0.44004 0.0
H747 H 0.03878 0.59275 0.40277 0.0
H748 H 0.98496 0.48766 0.62592 0.0
H749 H 0.00301 0.48798 0.59028 0.0
H750 H 0.06902 0.50621 0.63368 0.0
H751 H 0.05087 0.50596 0.66972 0.0
Dy752 Dy 0.80249 0.77774 0.2805 0.0
Dy753 Dy 0.75459 0.79562 0.27768 0.0
C754 C 0.80173 0.82775 0.26945 0.0
O755 O 0.80232 0.7966 0.31682 0.0
O756 O 0.76391 0.79142 0.31541 0.0
O757 O 0.83876 0.78616 0.29161 0.0
O758 O 0.82146 0.75267 0.27146 0.0
O759 O 0.74458 0.75758 0.27675 0.0
O760 O 0.7776 0.74995 0.29339 0.0
O761 O 0.76064 0.78971 0.23965 0.0
O762 O 0.78341 0.76473 0.24388 0.0
O763 O 0.71906 0.79127 0.26438 0.0
O764 O 0.73706 0.82059 0.29081 0.0
C765 C 0.78445 0.79675 0.3275 0.0
O766 O 0.80807 0.80905 0.2629 0.0
O767 O 0.78363 0.82693 0.27989 0.0
C768 C 0.85874 0.76955 0.26393 0.0
C769 C 0.8931 0.7735 0.2342 0.0
C770 C 0.88396 0.79223 0.24055 0.0
C771 C 0.86692 0.79026 0.25514 0.0
C772 C 0.86782 0.75086 0.25762 0.0
C773 C 0.88472 0.75276 0.24289 0.0
C774 C 0.84104 0.7672 0.27982 0.0
C775 C 0.75539 0.74411 0.287 0.0
C776 C 0.77066 0.7744 0.23049 0.0
C777 C 0.69819 0.80495 0.29321 0.0
C778 C 0.66214 0.79906 0.32082 0.0
C779 C 0.67045 0.78024 0.31254 0.0
C780 C 0.68835 0.78316 0.29899 0.0
C781 C 0.68981 0.82367 0.30128 0.0
C782 C 0.67207 0.8208 0.31492 0.0
C783 C 0.71735 0.80872 0.27922 0.0
H784 H 0.88974 0.80836 0.23396 0.0
H785 H 0.86016 0.80496 0.25953 0.0
H786 H 0.86188 0.73473 0.26418 0.0
H787 H 0.89148 0.73805 0.23861 0.0
H788 H 0.66343 0.76331 0.31694 0.0
H789 H 0.69457 0.76843 0.29319 0.0
H790 H 0.69708 0.84063 0.29706 0.0
H791 H 0.66597 0.83564 0.32067 0.0
Dy792 Dy 0.78208 0.26854 0.75114 0.0
Dy793 Dy 0.75634 0.28146 0.79601 0.0
C794 C 0.78457 0.32056 0.77119 0.0
O795 O 0.80153 0.25944 0.78266 0.0
O796 O 0.79244 0.28373 0.81162 0.0
O797 O 0.81257 0.27232 0.73489 0.0
O798 O 0.78103 0.24911 0.71668 0.0
O799 O 0.75356 0.24378 0.79372 0.0
O800 O 0.75662 0.2366 0.75422 0.0
O801 O 0.72991 0.27566 0.76356 0.0
O802 O 0.75349 0.28215 0.73533 0.0
O803 O 0.72937 0.27354 0.81725 0.0
O804 O 0.75529 0.30582 0.82631 0.0
C805 C 0.80559 0.27078 0.80446 0.0
O806 O 0.79596 0.30619 0.76335 0.0
O807 O 0.76598 0.3136 0.78031 0.0
C808 C 0.80353 0.27152 0.69391 0.0
C809 C 0.80104 0.29151 0.65228 0.0
C810 C 0.79552 0.30196 0.67326 0.0
C811 C 0.79672 0.29203 0.69388 0.0
C812 C 0.80988 0.2614 0.67332 0.0
C813 C 0.80878 0.27145 0.65255 0.0
C814 C 0.8017 0.25992 0.71483 0.0
C815 C 0.75075 0.22948 0.77385 0.0
C816 C 0.73337 0.28015 0.7421 0.0
C817 C 0.74329 0.28714 0.85756 0.0
C818 C 0.75375 0.27867 0.90422 0.0
C819 C 0.76554 0.27181 0.88618 0.0
C820 C 0.76034 0.27598 0.86308 0.0
C821 C 0.73145 0.29413 0.87538 0.0
C822 C 0.73659 0.28983 0.89862 0.0
C823 C 0.73852 0.29171 0.83323 0.0
H824 H 0.78987 0.31763 0.6736 0.0
H825 H 0.79166 0.3 0.70965 0.0
H826 H 0.815 0.24545 0.6731 0.0
H827 H 0.81309 0.26312 0.63654 0.0
H828 H 0.77847 0.2627 0.88976 0.0
H829 H 0.76957 0.27041 0.84945 0.0
H830 H 0.71829 0.30285 0.87132 0.0
H831 H 0.72725 0.29528 0.9122 0.0
Dy832 Dy 0.76432 0.76223 0.76309 0.0
Dy833 Dy 0.79284 0.81124 0.7935 0.0
C834 C 0.78222 0.76642 0.81908 0.0
O835 O 0.73754 0.77397 0.78153 0.0
O836 O 0.75574 0.81229 0.79246 0.0
O837 O 0.74251 0.7278 0.75968 0.0
O838 O 0.75289 0.74169 0.72838 0.0
O839 O 0.79104 0.81578 0.7552 0.0
O840 O 0.75739 0.7894 0.74217 0.0
O841 O 0.81957 0.79182 0.78776 0.0
O842 O 0.8005 0.76571 0.75527 0.0
O843 O 0.82504 0.83645 0.80501 0.0
O844 O 0.79446 0.8433 0.81571 0.0
C845 C 0.7372 0.7951 0.79002 0.0
O846 O 0.77802 0.75346 0.79803 0.0
O847 O 0.78572 0.78888 0.8213 0.0
C848 C 0.74964 0.7023 0.72916 0.0
C849 C 0.76389 0.66168 0.72081 0.0
C850 C 0.77889 0.68317 0.72047 0.0
C851 C 0.77186 0.70333 0.72475 0.0
C852 C 0.73425 0.68085 0.72822 0.0
C853 C 0.74134 0.66063 0.72412 0.0
C854 C 0.7431 0.72344 0.73693 0.0
C855 C 0.77325 0.80703 0.73887 0.0
C856 C 0.81976 0.7769 0.76902 0.0
C857 C 0.82035 0.87398 0.80476 0.0
C858 C 0.81792 0.91277 0.78292 0.0
C859 C 0.82408 0.89419 0.77064 0.0
C860 C 0.8251 0.87487 0.78139 0.0
C861 C 0.81636 0.89333 0.81781 0.0
C862 C 0.81511 0.91256 0.807 0.0
C863 C 0.81569 0.85199 0.81407 0.0
H864 H 0.79647 0.68454 0.7184 0.0
H865 H 0.78409 0.71974 0.72561 0.0
H866 H 0.71705 0.6798 0.73164 0.0
H867 H 0.72946 0.64425 0.72441 0.0
H868 H 0.82674 0.89396 0.75223 0.0
H869 H 0.8282 0.86012 0.77088 0.0
H870 H 0.81254 0.8929 0.83581 0.0
H871 H 0.81008 0.92639 0.817 0.0
Dy872 Dy 0.54884 0.54632 0.53809 0.0
Dy873 Dy 0.49849 0.51939 0.51108 0.0
C874 C 0.54053 0.52951 0.48238 0.0
O875 O 0.53662 0.57364 0.52068 0.0
O876 O 0.49825 0.55709 0.51214 0.0
O877 O 0.58195 0.56905 0.53838 0.0
O878 O 0.57264 0.55654 0.57069 0.0
O879 O 0.4985 0.51882 0.55016 0.0
O880 O 0.52425 0.55318 0.56231 0.0
O881 O 0.51474 0.49034 0.51726 0.0
O882 O 0.54553 0.50955 0.54523 0.0
O883 O 0.46255 0.509 0.51165 0.0
O884 O 0.47627 0.49756 0.4805 0.0
C885 C 0.51583 0.57508 0.51357 0.0
O886 O 0.55401 0.53042 0.50228 0.0
O887 O 0.51925 0.52977 0.48271 0.0
C888 C 0.6105 0.56112 0.56427 0.0
C889 C 0.65173 0.54839 0.56685 0.0
C890 C 0.63109 0.53168 0.56554 0.0
C891 C 0.61064 0.53797 0.56415 0.0
C892 C 0.63105 0.57798 0.56632 0.0
C893 C 0.65157 0.57166 0.56755 0.0
C894 C 0.58895 0.56747 0.56036 0.0
C895 C 0.50777 0.53666 0.56665 0.0
C896 C 0.5317 0.4901 0.53364 0.0
C897 C 0.44046 0.50565 0.47491 0.0
C898 C 0.40375 0.52259 0.45821 0.0
C899 C 0.42601 0.53694 0.46237 0.0
C900 C 0.44424 0.52851 0.47067 0.0
C901 C 0.41875 0.49068 0.46852 0.0
C902 C 0.4005 0.49905 0.46003 0.0
C903 C 0.45798 0.49866 0.48964 0.0
H904 H 0.63063 0.51357 0.56449 0.0
H905 H 0.5949 0.52467 0.56224 0.0
H906 H 0.63116 0.59591 0.56629 0.0
H907 H 0.66725 0.58486 0.5686 0.0
H908 H 0.42916 0.55517 0.46136 0.0
H909 H 0.46098 0.54027 0.47553 0.0
H910 H 0.41563 0.47295 0.47164 0.0
H911 H 0.38361 0.48749 0.45654 0.0
Dy912 Dy 0.9993 0.5291 0.0341 0.0
Dy913 Dy 0.04948 0.53601 0.01701 0.0
C914 C 0.00635 0.53997 0.98242 0.0
O915 O 0.99942 0.49485 0.01351 0.0
O916 O 0.03761 0.49832 0.02039 0.0
O917 O 0.9629 0.51572 0.0264 0.0
O918 O 0.97865 0.53419 0.06144 0.0
O919 O 0.05417 0.54173 0.05653 0.0
O920 O 0.02099 0.51746 0.06171 0.0
O921 O 0.04431 0.57197 0.02065 0.0
O922 O 0.01686 0.56694 0.04518 0.0
O923 O 0.08585 0.55061 0.02377 0.0
O924 O 0.07046 0.52696 0.9915 0.0
C925 C 0.01669 0.4854 0.01387 0.0
O926 O 0.99686 0.54475 0.00107 0.0
O927 O 0.0246 0.53221 0.98414 0.0
C928 C 0.94343 0.53971 0.04593 0.0
C929 C 0.91226 0.56728 0.0442 0.0
C930 C 0.93086 0.57153 0.03162 0.0
C931 C 0.94634 0.55791 0.03254 0.0
C932 C 0.92496 0.53538 0.0585 0.0
C933 C 0.90952 0.54906 0.05769 0.0
C934 C 0.95966 0.52534 0.04692 0.0
C935 C 0.04206 0.52886 0.06959 0.0
C936 C 0.03218 0.58054 0.03528 0.0
C937 C 0.10597 0.52446 0.00965 0.0
C938 C 0.13724 0.49757 0.01715 0.0
C939 C 0.11674 0.49298 0.02666 0.0
C940 C 0.10127 0.5063 0.02295 0.0
C941 C 0.1264 0.52928 0.00028 0.0
C942 C 0.14193 0.51598 0.00402 0.0
C943 C 0.08938 0.53803 0.00517 0.0
H944 H 0.93364 0.58559 0.02134 0.0
H945 H 0.96063 0.56161 0.02285 0.0
H946 H 0.92247 0.5214 0.06892 0.0
H947 H 0.89526 0.54518 0.06738 0.0
H948 H 0.1127 0.47918 0.03714 0.0
H949 H 0.08558 0.50238 0.0304 0.0
H950 H 0.13026 0.54319 0.9899 0.0
H951 H 0.15741 0.51983 -0.00379 0.0
H952 H 0.96986 0.19247 0.96091 0.0
H953 H 0.0488 0.11767 0.01903 0.0
H954 H 0.04239 0.21555 0.98218 0.0
H955 H 0.97718 0.08834 -0.00484 0.0
H956 H 0.04522 0.15389 0.00686 0.0
H957 H 0.97061 0.15518 0.97431 0.0
C958 C 0.9859 0.18988 0.9685 0.0
C959 C 0.00609 0.20752 0.97031 0.0
C960 C 0.03016 0.13967 0.00424 0.0
C961 C 0.00708 0.16455 0.98573 0.0
C962 C 0.03218 0.11873 0.01128 0.0
C963 C 0.0133 0.09948 0.00825 0.0
C964 C 0.00903 0.14198 0.99388 0.0
C965 C 0.99229 0.10251 -0.002 0.0
C966 C 0.98632 0.16848 0.97609 0.0
C967 C 0.02631 0.20278 0.98024 0.0
N968 N 0.99075 0.12322 0.99119 0.0
N969 N 0.02623 0.18205 0.98745 0.0
H970 H 0.13246 0.8135 0.13521 0.0
H971 H 0.18965 0.7709 0.24937 0.0
H972 H 0.09585 0.77032 0.18011 0.0
H973 H 0.23001 0.80302 0.19972 0.0
H974 H 0.15554 0.77334 0.22486 0.0
H975 H 0.16845 0.8127 0.15905 0.0
C976 C 0.13193 0.80398 0.15009 0.0
C977 C 0.11095 0.79196 0.15557 0.0
C978 C 0.17178 0.77988 0.21917 0.0
C979 C 0.15209 0.791 0.18294 0.0
C980 C 0.19144 0.77852 0.23328 0.0
C981 C 0.21298 0.78676 0.22676 0.0
C982 C 0.17328 0.7897 0.19818 0.0
C983 C 0.21385 0.7964 0.20552 0.0
C984 C 0.1525 0.80345 0.16363 0.0
C985 C 0.11144 0.77983 0.17503 0.0
N986 N 0.19433 0.79766 0.19204 0.0
N987 N 0.13151 0.77972 0.18789 0.0
H988 H 0.52382 0.83968 0.48565 0.0
H989 H 0.4785 0.95452 0.48839 0.0
H990 H 0.46659 0.84554 0.43771 0.0
H991 H 0.54755 0.95699 0.51639 0.0
H992 H 0.47162 0.91305 0.475 0.0
H993 H 0.53048 0.8808 0.50245 0.0
C994 C 0.51246 0.84943 0.47889 0.0
C995 C 0.49459 0.83896 0.46017 0.0
C996 C 0.48828 0.92262 0.48414 0.0
C997 C 0.50207 0.88613 0.4794 0.0
C998 C 0.49223 0.9464 0.49188 0.0
C999 C 0.5137 0.95956 0.50353 0.0
C1000 C 0.50576 0.91149 0.48831 0.0
C1001 C 0.53074 0.94775 0.5074 0.0
C1002 C 0.51638 0.87299 0.48836 0.0
C1003 C 0.48063 0.85273 0.45202 0.0
N1004 N 0.5264 0.92452 0.49993 0.0
N1005 N 0.48459 0.87534 0.46166 0.0
H1006 H 0.48561 0.24049 0.64253 0.0
H1007 H 0.42012 0.31202 0.72407 0.0
H1008 H 0.50337 0.31481 0.65623 0.0
H1009 H 0.40293 0.23779 0.70851 0.0
H1010 H 0.45009 0.31377 0.69898 0.0
H1011 H 0.45501 0.23959 0.6663 0.0
C1012 C 0.48312 0.25668 0.65054 0.0
C1013 C 0.49725 0.27777 0.64735 0.0
C1014 C 0.43973 0.29711 0.70104 0.0
C1015 C 0.46192 0.27684 0.67486 0.0
C1016 C 0.42249 0.29607 0.71528 0.0
C1017 C 0.4089 0.2747 0.71858 0.0
C1018 C 0.44348 0.27662 0.68987 0.0
C1019 C 0.41312 0.25467 0.7069 0.0
C1020 C 0.46555 0.25614 0.66416 0.0
C1021 C 0.49297 0.29813 0.65818 0.0
N1022 N 0.42995 0.25613 0.69316 0.0
N1023 N 0.47575 0.29716 0.67147 0.0
H1024 H 0.05125 0.83958 0.69243 0.0
H1025 H 0.00761 0.87334 0.56696 0.0
H1026 H 0.00275 0.79109 0.63802 0.0
H1027 H 0.06264 0.9171 0.61843 0.0
H1028 H 0.00379 0.84374 0.59315 0.0
H1029 H 0.05395 0.8686 0.66604 0.0
C1030 C 0.04111 0.83497 0.67492 0.0
C1031 C 0.02674 0.81272 0.66753 0.0
C1032 C 0.01671 0.85981 0.59868 0.0
C1033 C 0.02976 0.84624 0.63697 0.0
C1034 C 0.01882 0.87682 0.5838 0.0
C1035 C 0.03555 0.89783 0.59037 0.0
C1036 C 0.03129 0.86384 0.62048 0.0
C1037 C 0.04971 0.90113 0.61235 0.0
C1038 C 0.0427 0.85163 0.65979 0.0
C1039 C 0.01409 0.80795 0.64453 0.0
N1040 N 0.04723 0.88442 0.62654 0.0
N1041 N 0.01585 0.82455 0.63011 0.0
H1042 H 0.45344 0.76172 0.84486 0.0
H1043 H 0.36022 0.82197 0.78891 0.0
H1044 H 0.47342 0.82603 0.81809 0.0
H1045 H 0.34541 0.75111 0.80043 0.0
H1046 H 0.40101 0.82525 0.80066 0.0
H1047 H 0.41386 0.75893 0.82988 0.0
C1048 C 0.44959 0.77527 0.83564 0.0
C1049 C 0.46716 0.79411 0.83276 0.0
C1050 C 0.38882 0.80898 0.80053 0.0
C1051 C 0.42088 0.79117 0.81564 0.0
C1052 C 0.36541 0.80708 0.79387 0.0
C1053 C 0.34897 0.7862 0.79361 0.0
C1054 C 0.39611 0.78996 0.80735 0.0
C1055 C 0.35713 0.76759 0.80024 0.0
C1056 C 0.42678 0.77364 0.82705 0.0
C1057 C 0.46068 0.81104 0.8206 0.0
N1058 N 0.37983 0.76997 0.80689 0.0
N1059 N 0.43816 0.80929 0.81273 0.0
H1060 H 0.54339 0.21192 0.12164 0.0
H1061 H 0.52146 0.07423 0.10738 0.0
H1062 H 0.50907 0.17224 0.17061 0.0
H1063 H 0.54845 0.1158 0.05599 0.0
H1064 H 0.51728 0.10911 0.1314 0.0
H1065 H 0.54564 0.17647 0.09821 0.0
C1066 C 0.53621 0.19572 0.1275 0.0
C1067 C 0.52601 0.19526 0.14828 0.0
C1068 C 0.52409 0.11056 0.11485 0.0
C1069 C 0.52872 0.154 0.12119 0.0
C1070 C 0.52655 0.09063 0.10111 0.0
C1071 C 0.53538 0.09191 0.07951 0.0
C1072 C 0.5306 0.13207 0.10708 0.0
C1073 C 0.54157 0.11376 0.07242 0.0
C1074 C 0.53752 0.17536 0.114 0.0
C1075 C 0.51702 0.17353 0.15472 0.0
N1076 N 0.53912 0.1328 0.08611 0.0
N1077 N 0.51868 0.15381 0.14132 0.0
H1078 H 0.10259 0.29761 0.30483 0.0
H1079 H 0.23972 0.32108 0.33228 0.0
H1080 H 0.14361 0.33026 0.37206 0.0
H1081 H 0.20076 0.27979 0.26743 0.0
H1082 H 0.20451 0.32654 0.34534 0.0
H1083 H 0.13749 0.29289 0.2892 0.0
C1084 C 0.11881 0.30396 0.3163 0.0
C1085 C 0.11977 0.31439 0.33997 0.0
C1086 C 0.20353 0.31631 0.32819 0.0
C1087 C 0.16022 0.30898 0.32202 0.0
C1088 C 0.22383 0.3132 0.32062 0.0
C1089 C 0.22364 0.2999 0.29857 0.0
C1090 C 0.18236 0.30621 0.31374 0.0
C1091 C 0.20208 0.2902 0.28454 0.0
C1092 C 0.13883 0.30116 0.30736 0.0
C1093 C 0.14159 0.32206 0.35378 0.0
N1094 N 0.18252 0.29352 0.29229 0.0
N1095 N 0.1606 0.31925 0.34471 0.0
H1096 H 0.95153 0.00585 0.19616 0.0
H1097 H 0.02417 0.07467 0.10722 0.0
H1098 H 0.98627 0.07812 0.21253 0.0
H1099 H 0.97947 0.00642 0.08617 0.0
H1100 H 0.01245 0.07544 0.14673 0.0
H1101 H 0.96379 0.00481 0.15685 0.0
C1102 C 0.96183 0.02147 0.19158 0.0
C1103 C 0.96782 0.04211 0.20777 0.0
C1104 C 0.00517 0.0603 0.13345 0.0
C1105 C 0.98195 0.04104 0.16264 0.0
C1106 C 0.01186 0.05985 0.11085 0.0
C1107 C 0.00279 0.04047 0.09321 0.0
C1108 C 0.98939 0.04117 0.13867 0.0
C1109 C 0.9869 0.02179 0.09909 0.0
C1110 C 0.96876 0.02089 0.16906 0.0
C1111 C 0.98117 0.06181 0.2007 0.0
N1112 N 0.98079 0.02258 0.12127 0.0
N1113 N 0.98777 0.06078 0.17875 0.0
H1114 H 0.30872 0.70971 0.50386 0.0
H1115 H 0.22332 0.76448 0.43398 0.0
H1116 H 0.2437 0.711 0.52503 0.0
H1117 H 0.2948 0.78067 0.42833 0.0
H1118 H 0.23139 0.7491 0.47062 0.0
H1119 H 0.30537 0.73933 0.47927 0.0
C1120 C 0.29386 0.71646 0.50354 0.0
C1121 C 0.27625 0.70763 0.51608 0.0
C1122 C 0.24538 0.75644 0.46163 0.0
C1123 C 0.27217 0.74128 0.48784 0.0
C1124 C 0.24079 0.76532 0.44075 0.0
C1125 C 0.25836 0.77334 0.4278 0.0
C1126 C 0.26763 0.75535 0.46936 0.0
C1127 C 0.28066 0.77395 0.43738 0.0
C1128 C 0.292 0.73345 0.48961 0.0
C1129 C 0.25754 0.71719 0.51538 0.0
N1130 N 0.28461 0.76464 0.45735 0.0
N1131 N 0.25576 0.73321 0.50107 0.0
H1132 H 0.64218 -0.00557 0.6716 0.0
H1133 H 0.5248 0.00727 0.60496 0.0
H1134 H 0.58565 0.00031 0.70826 0.0
H1135 H 0.5885 0.02185 0.57742 0.0
H1136 H 0.54405 -0.00322 0.64052 0.0
H1137 H 0.61936 -0.00441 0.63414 0.0
C1138 C 0.62486 -0.00434 0.67175 0.0
C1139 C 0.61593 -0.00232 0.69315 0.0
C1140 C 0.5537 0.00219 0.62659 0.0
C1141 C 0.5898 -0.00083 0.65035 0.0
C1142 C 0.54276 0.00817 0.60636 0.0
C1143 C 0.55518 0.01578 0.58846 0.0
C1144 C 0.57704 0.00351 0.62858 0.0
C1145 C 0.57836 0.0165 0.59101 0.0
C1146 C 0.61188 -0.00359 0.65036 0.0
C1147 C 0.5933 -0.001 0.6922 0.0
N1148 N 0.58853 0.01047 0.6107 0.0
N1149 N 0.58105 -3e-05 0.67114 0.0
H1150 H 0.26125 0.34562 0.97023 0.0
H1151 H 0.32215 0.31219 0.85913 0.0
H1152 H 0.33321 0.35146 0.97533 0.0
H1153 H 0.24971 0.30291 0.85477 0.0
H1154 H 0.32642 0.32566 0.90191 0.0
H1155 H 0.25649 0.32885 0.92821 0.0
C1156 C 0.27603 0.34324 0.9626 0.0
C1157 C 0.29767 0.35005 0.97641 0.0
C1158 C 0.30958 0.32059 0.89161 0.0
C1159 C 0.29237 0.33097 0.92815 0.0
C1160 C 0.30713 0.31288 0.86713 0.0
C1161 C 0.28555 0.30642 0.85319 0.0
C1162 C 0.29033 0.32195 0.90232 0.0
C1163 C 0.26671 0.30771 0.86468 0.0
C1164 C 0.27331 0.33369 0.93856 0.0
C1165 C 0.31619 0.34653 0.96545 0.0
N1166 N 0.26956 0.31538 0.88847 0.0
N1167 N 0.31313 0.33737 0.94202 0.0
H1168 H 0.97877 0.98257 0.33058 0.0
H1169 H 0.00203 0.05881 0.45946 0.0
H1170 H 0.9705 0.05167 0.34299 0.0
H1171 H 0.02227 -0.00463 0.44657 0.0
H1172 H 0.99007 0.05595 0.41688 0.0
H1173 H 0.99463 0.98654 0.37263 0.0
C1174 C 0.98045 -0.00134 0.34207 0.0
C1175 C 0.97319 0.0168 0.33315 0.0
C1176 C 0.99718 0.04266 0.42328 0.0
C1177 C 0.99118 0.02134 0.38151 0.0
C1178 C 0.00395 0.0442 0.4477 0.0
C1179 C 0.01307 0.0272 0.45677 0.0
C1180 C 0.99928 0.02386 0.40757 0.0
C1181 C 0.01532 0.00886 0.44045 0.0
C1182 C 0.98952 0.0009 0.36611 0.0
C1183 C 0.97585 0.03722 0.34897 0.0
N1184 N 0.00833 0.00759 0.41667 0.0
N1185 N 0.98443 0.03885 0.37234 0.0
H1186 H 0.2871 0.65492 0.61582 0.0
H1187 H 0.31222 0.77587 0.70086 0.0
H1188 H 0.33088 0.7176 0.60147 0.0
H1189 H 0.27092 0.71187 0.71544 0.0
H1190 H 0.32124 0.75473 0.66557 0.0
H1191 H 0.28368 0.67518 0.65413 0.0
C1192 C 0.29624 0.67288 0.62086 0.0
C1193 C 0.30911 0.68465 0.60532 0.0
C1194 C 0.31026 0.74535 0.67657 0.0
C1195 C 0.30499 0.70809 0.64904 0.0
C1196 C 0.30502 0.75742 0.69665 0.0
C1197 C 0.29061 0.74568 0.71102 0.0
C1198 C 0.30101 0.72141 0.67087 0.0
C1199 C 0.28194 0.72173 0.70481 0.0
C1200 C 0.29422 0.68449 0.64273 0.0
C1201 C 0.3207 0.70789 0.61286 0.0
N1202 N 0.28721 0.71044 0.6852 0.0
N1203 N 0.31815 0.71894 0.63409 0.0
H1204 H 0.67984 0.04085 0.84057 0.0
H1205 H 0.55359 0.0172 0.87268 0.0
H1206 H 0.62137 -0.00507 0.79517 0.0
H1207 H 0.61099 0.0679 0.91447 0.0
H1208 H 0.57864 0.00668 0.84547 0.0
H1209 H 0.65545 0.04814 0.86984 0.0
C1210 C 0.66194 0.03203 0.8369 0.0
C1211 C 0.65259 0.0174 0.81531 0.0
C1212 C 0.58575 0.02015 0.86057 0.0
C1213 C 0.62456 0.02589 0.84856 0.0
C1214 C 0.57146 0.02614 0.87607 0.0
C1215 C 0.58022 0.04352 0.89576 0.0
C1216 C 0.60897 0.03154 0.86485 0.0
C1217 C 0.60348 0.05466 0.89928 0.0
C1218 C 0.64799 0.03633 0.85355 0.0
C1219 C 0.62928 0.00646 0.81151 0.0
N1220 N 0.61706 0.04845 0.884 0.0
N1221 N 0.61603 0.01106 0.8279 0.0
H1222 H 0.29286 0.4029 0.13824 0.0
H1223 H 0.27316 0.28511 0.19325 0.0
H1224 H 0.27981 0.33583 0.09581 0.0
H1225 H 0.2882 0.35228 0.23599 0.0
H1226 H 0.27408 0.30329 0.15745 0.0
H1227 H 0.28996 0.38464 0.17397 0.0
C1228 C 0.28935 0.3843 0.13638 0.0
C1229 C 0.28662 0.37091 0.11387 0.0
C1230 C 0.27713 0.31408 0.17463 0.0
C1231 C 0.28326 0.34981 0.15499 0.0
C1232 C 0.27657 0.3037 0.19518 0.0
C1233 C 0.28069 0.31714 0.21785 0.0
C1234 C 0.28184 0.33817 0.17656 0.0
C1235 C 0.28499 0.34117 0.219 0.0
C1236 C 0.28769 0.37388 0.15686 0.0
C1237 C 0.28207 0.34688 0.11272 0.0
N1238 N 0.28551 0.35088 0.1987 0.0
N1239 N 0.28056 0.33713 0.13295 0.0
H1240 H 0.25334 0.005 0.97677 0.0
H1241 H 0.18501 0.0474 0.0764 0.0
H1242 H 0.24878 0.97942 0.04381 0.0
H1243 H 0.1742 0.05879 0.00339 0.0
H1244 H 0.21601 0.03047 0.06745 0.0
H1245 H 0.23097 0.03184 0.98883 0.0
C1246 C 0.24776 0.00514 0.99406 0.0
C1247 C 0.2526 0.98978 0.00919 0.0
C1248 C 0.20704 0.03696 0.05346 0.0
C1249 C 0.22744 0.02048 0.02314 0.0
C1250 C 0.18951 0.04682 0.05862 0.0
C1251 C 0.17686 0.05418 0.0405 0.0
C1252 C 0.2119 0.03447 0.03005 0.0
C1253 C 0.1833 0.05289 0.01773 0.0
C1254 C 0.23506 0.02044 0.00092 0.0
C1255 C 0.24511 0.99073 0.03144 0.0
N1256 N 0.20024 0.04292 0.01305 0.0
N1257 N 0.23284 0.00577 0.03771 0.0
H1258 H 0.69256 0.65178 -0.00253 0.0
H1259 H 0.614 0.54151 0.03883 0.0
H1260 H 0.71848 0.60872 0.04265 0.0
H1261 H 0.5878 0.58956 0.00102 0.0
H1262 H 0.65264 0.56368 0.03706 0.0
H1263 H 0.65428 0.62699 -0.00463 0.0
C1264 C 0.69024 0.63706 0.00686 0.0
C1265 C 0.70877 0.63241 0.02036 0.0
C1266 C 0.63842 0.56929 0.02906 0.0
C1267 C 0.66496 0.60393 0.01803 0.0
C1268 C 0.61634 0.55659 0.02999 0.0
C1269 C 0.59759 0.56372 0.02018 0.0
C1270 C 0.64179 0.58923 0.01816 0.0
C1271 C 0.60171 0.58345 0.00896 0.0
C1272 C 0.66836 0.62292 0.00568 0.0
C1273 C 0.7047 0.61306 0.03213 0.0
N1274 N 0.62332 0.59552 0.00833 0.0
N1275 N 0.68325 0.59958 0.03073 0.0
H1276 H 0.66758 0.48371 0.30119 0.0
H1277 H 0.74376 0.42443 0.22202 0.0
H1278 H 0.68596 0.50453 0.23505 0.0
H1279 H 0.73428 0.4111 0.29312 0.0
H1280 H 0.72099 0.45234 0.22558 0.0
H1281 H 0.68985 0.45522 0.29742 0.0
C1282 C 0.67621 0.48225 0.28583 0.0
C1283 C 0.6749 0.49661 0.26843 0.0
C1284 C 0.7239 0.44332 0.24042 0.0
C1285 C 0.70048 0.46398 0.26402 0.0
C1286 C 0.73706 0.42744 0.23847 0.0
C1287 C 0.74109 0.41532 0.25732 0.0
C1288 C 0.71452 0.44713 0.26133 0.0
C1289 C 0.73145 0.41972 0.27797 0.0
C1290 C 0.68899 0.46601 0.28372 0.0
C1291 C 0.6865 0.49391 0.24893 0.0
N1292 N 0.71864 0.43522 0.27941 0.0
N1293 N 0.69877 0.47794 0.24726 0.0
H1294 H 0.84217 0.47029 0.49297 0.0
H1295 H 0.96718 0.48729 0.55997 0.0
H1296 H 0.85561 0.4534 0.56354 0.0
H1297 H 0.952 0.52681 0.50504 0.0
H1298 H 0.92646 0.47196 0.55973 0.0
H1299 H 0.88268 0.48854 0.49515 0.0
C1300 C 0.85364 0.47049 0.50894 0.0
C1301 C 0.84558 0.4603 0.52809 0.0
C1302 C 0.93208 0.4841 0.54785 0.0
C1303 C 0.8918 0.48089 0.53059 0.0
C1304 C 0.95528 0.49277 0.54789 0.0
C1305 C 0.96295 0.50829 0.53246 0.0
C1306 C 0.91647 0.49071 0.53197 0.0
C1307 C 0.94681 0.51492 0.51728 0.0
C1308 C 0.8767 0.48096 0.5102 0.0
C1309 C 0.86113 0.46111 0.54839 0.0
N1310 N 0.92429 0.50592 0.51726 0.0
N1311 N 0.88356 0.47105 0.54904 0.0
H1312 H 0.32254 0.07091 0.30872 0.0
H1313 H 0.25553 0.12316 0.21529 0.0
H1314 H 0.31234 0.0451 0.23353 0.0
H1315 H 0.24682 0.12982 0.28939 0.0
H1316 H 0.27218 0.09104 0.22062 0.0
H1317 H 0.29198 0.08984 0.30184 0.0
C1318 C 0.31373 0.06912 0.29077 0.0
C1319 C 0.3202 0.05682 0.27159 0.0
C1320 C 0.26614 0.09917 0.23559 0.0
C1321 C 0.28532 0.07846 0.26355 0.0
C1322 C 0.25646 0.11744 0.23252 0.0
C1323 C 0.25029 0.12956 0.2521 0.0
C1324 C 0.26996 0.09328 0.25844 0.0
C1325 C 0.25203 0.1214 0.27401 0.0
C1326 C 0.29616 0.07975 0.28687 0.0
C1327 C 0.308 0.05466 0.24876 0.0
N1328 N 0.26219 0.1041 0.27674 0.0
N1329 N 0.29138 0.06577 0.24529 0.0
H1330 H 0.32795 0.15508 0.50501 0.0
H1331 H 0.38757 0.0751 0.57863 0.0
H1332 H 0.3101 0.13557 0.57182 0.0
H1333 H 0.40459 0.09292 0.51098 0.0
H1334 H 0.35976 0.09797 0.5768 0.0
H1335 H 0.35687 0.13341 0.50734 0.0
C1336 C 0.33013 0.1463 0.5202 0.0
C1337 C 0.31651 0.14713 0.53822 0.0
C1338 C 0.36959 0.09692 0.56236 0.0
C1339 C 0.34961 0.12224 0.54099 0.0
C1340 C 0.38541 0.08374 0.56333 0.0
C1341 C 0.39843 0.08197 0.54489 0.0
C1342 C 0.36667 0.10847 0.54279 0.0
C1343 C 0.39514 0.09395 0.52573 0.0
C1344 C 0.34665 0.13391 0.52151 0.0
C1345 C 0.32015 0.1354 0.55748 0.0
N1346 N 0.37956 0.10661 0.52515 0.0
N1347 N 0.3363 0.12344 0.55833 0.0
H1348 H 0.69962 0.60015 0.29937 0.0
H1349 H 0.70994 0.73232 0.28797 0.0
H1350 H 0.64504 0.63337 0.30423 0.0
H1351 H 0.76885 0.70512 0.29638 0.0
H1352 H 0.6863 0.69562 0.29365 0.0
H1353 H 0.7256 0.63771 0.29828 0.0
C1354 C 0.69312 0.61532 0.30038 0.0
C1355 C 0.67004 0.61355 0.30175 0.0
C1356 C 0.70439 0.69758 0.29437 0.0
C1357 C 0.69963 0.65647 0.30038 0.0
C1358 C 0.71796 0.71859 0.29101 0.0
C1359 C 0.74145 0.72182 0.29151 0.0
C1360 C 0.71421 0.67935 0.29805 0.0
C1361 C 0.75081 0.70338 0.29583 0.0
C1362 C 0.70797 0.63674 0.29977 0.0
C1363 C 0.66261 0.6338 0.30305 0.0
N1364 N 0.73711 0.68282 0.29874 0.0
N1365 N 0.6773 0.65431 0.30217 0.0
H1366 H 0.84862 0.45086 0.73095 0.0
H1367 H 0.77325 0.3569 0.79533 0.0
H1368 H 0.82893 0.46714 0.79972 0.0
H1369 H 0.81417 0.34003 0.74273 0.0
H1370 H 0.78763 0.39773 0.79263 0.0
H1371 H 0.82974 0.41029 0.73044 0.0
C1372 C 0.84012 0.44594 0.74582 0.0
C1373 C 0.84047 0.46231 0.76551 0.0
C1374 C 0.79339 0.38505 0.78167 0.0
C1375 C 0.81891 0.4161 0.76497 0.0
C1376 C 0.78518 0.36179 0.78315 0.0
C1377 C 0.79271 0.34513 0.76938 0.0
C1378 C 0.80898 0.3916 0.76608 0.0
C1379 C 0.80815 0.35236 0.75386 0.0
C1380 C 0.82948 0.4228 0.74555 0.0
C1381 C 0.82922 0.45501 0.78429 0.0
N1382 N 0.81578 0.37511 0.75261 0.0
N1383 N 0.8189 0.43238 0.78359 0.0
H1384 H 0.07822 0.89252 0.11479 0.0
H1385 H 0.01151 0.94761 0.01671 0.0
H1386 H 0.03177 0.84995 0.05491 0.0
H1387 H 0.06494 0.98699 0.07243 0.0
H1388 H 0.01763 0.91189 0.02976 0.0
H1389 H 0.07264 0.92676 0.09912 0.0
C1390 C 0.06684 0.89025 0.09822 0.0
C1391 C 0.0555 0.86795 0.08629 0.0
C1392 C 0.02807 0.92834 0.03907 0.0
C1393 C 0.04877 0.90801 0.068 0.0
C1394 C 0.02459 0.94887 0.03161 0.0
C1395 C 0.0377 0.97069 0.04337 0.0
C1396 C 0.04473 0.92939 0.05863 0.0
C1397 C 0.05434 0.97083 0.06263 0.0
C1398 C 0.06366 0.91002 0.08923 0.0
C1399 C 0.04102 0.8666 0.0648 0.0
N1400 N 0.05724 0.95074 0.06959 0.0
N1401 N 0.03798 0.88624 0.05648 0.0
H1402 H 0.90462 0.28053 0.92985 0.0
H1403 H 0.84024 0.25082 0.79489 0.0
H1404 H 0.93369 0.2528 0.87152 0.0
H1405 H 0.81701 0.28726 0.85251 0.0
H1406 H 0.87331 0.24921 0.82258 0.0
H1407 H 0.8715 0.28082 0.90193 0.0
C1408 C 0.90407 0.27439 0.91116 0.0
C1409 C 0.92217 0.26662 0.90317 0.0
C1410 C 0.86098 0.25755 0.82917 0.0
C1411 C 0.88382 0.26695 0.87075 0.0
C1412 C 0.842 0.25844 0.81335 0.0
C1413 C 0.82567 0.26925 0.82124 0.0
C1414 C 0.86373 0.26738 0.85323 0.0
C1415 C 0.82907 0.27882 0.84545 0.0
C1416 C 0.88506 0.27463 0.89516 0.0
C1417 C 0.92025 0.25895 0.8786 0.0
N1418 N 0.84759 0.27762 0.86048 0.0
N1419 N 0.90148 0.25929 0.86333 0.0
H1420 H 0.52166 0.22045 0.58151 0.0
H1421 H 0.57038 0.11532 0.52817 0.0
H1422 H 0.58955 0.22886 0.56461 0.0
H1423 H 0.50891 0.10456 0.55973 0.0
H1424 H 0.57568 0.15704 0.53776 0.0
H1425 H 0.51456 0.17845 0.56975 0.0
C1426 C 0.53497 0.21359 0.57502 0.0
C1427 C 0.55626 0.22847 0.57407 0.0
C1428 C 0.56101 0.1456 0.54262 0.0
C1429 C 0.54825 0.18011 0.56061 0.0
C1430 C 0.55795 0.12164 0.5371 0.0
C1431 C 0.53921 0.1061 0.54321 0.0
C1432 C 0.54513 0.15444 0.55415 0.0
C1433 C 0.52373 0.11568 0.55478 0.0
C1434 C 0.53096 0.18952 0.56847 0.0
C1435 C 0.57288 0.21828 0.56574 0.0
N1436 N 0.52699 0.13906 0.55977 0.0
N1437 N 0.56853 0.19498 0.55938 0.0
H1438 H 0.53604 0.75453 0.37961 0.0
H1439 H 0.65849 0.82811 0.3601 0.0
H1440 H 0.5765 0.81455 0.42775 0.0
H1441 H 0.62312 0.76363 0.31594 0.0
H1442 H 0.6277 0.82386 0.384 0.0
H1443 H 0.56672 0.75791 0.35514 0.0
C1444 C 0.55132 0.76841 0.38505 0.0
C1445 C 0.5536 0.78427 0.40584 0.0
C1446 C 0.62662 0.81059 0.3691 0.0
C1447 C 0.58883 0.78827 0.37783 0.0
C1448 C 0.64419 0.81308 0.35531 0.0
C1449 C 0.64347 0.79627 0.33582 0.0
C1450 C 0.60792 0.79117 0.36344 0.0
C1451 C 0.62457 0.77696 0.33087 0.0
C1452 C 0.56887 0.77031 0.37108 0.0
C1453 C 0.57388 0.80187 0.41195 0.0
N1454 N 0.60755 0.775 0.34449 0.0
N1455 N 0.59057 0.8034 0.39804 0.0
H1456 H 0.03559 0.24302 0.38135 0.0
H1457 H 0.04247 0.20263 0.5103 0.0
H1458 H 0.05806 0.28946 0.44782 0.0
H1459 H 0.02191 0.15458 0.44477 0.0
H1460 H 0.04777 0.23441 0.48729 0.0
H1461 H 0.03016 0.21035 0.4037 0.0
C1462 C 0.03939 0.24639 0.4006 0.0
C1463 C 0.04732 0.26913 0.41265 0.0
C1464 C 0.0421 0.21694 0.47787 0.0
C1465 C 0.04109 0.23172 0.4384 0.0
C1466 C 0.0389 0.19869 0.49106 0.0
C1467 C 0.03156 0.17572 0.47958 0.0
C1468 C 0.03794 0.21242 0.45285 0.0
C1469 C 0.02776 0.17192 0.45449 0.0
C1470 C 0.03629 0.2277 0.41336 0.0
C1471 C 0.05194 0.27233 0.43766 0.0
N1472 N 0.03092 0.19002 0.44201 0.0
N1473 N 0.04875 0.25393 0.44961 0.0
H1474 H 0.59175 0.21568 0.23222 0.0
H1475 H 0.71342 0.30921 0.25448 0.0
H1476 H 0.59757 0.28768 0.22912 0.0
H1477 H 0.7042 0.23692 0.25853 0.0
H1478 H 0.67189 0.30259 0.24561 0.0
H1479 H 0.63284 0.22404 0.24247 0.0
C1480 C 0.60159 0.23338 0.23381 0.0
C1481 C 0.59074 0.25094 0.22972 0.0
C1482 C 0.67895 0.28818 0.24845 0.0
C1483 C 0.63889 0.26076 0.24151 0.0
C1484 C 0.70278 0.29192 0.25349 0.0
C1485 C 0.71271 0.27362 0.25729 0.0
C1486 C 0.66461 0.2659 0.2471 0.0
C1487 C 0.69768 0.25167 0.25578 0.0
C1488 C 0.62529 0.23814 0.23968 0.0
C1489 C 0.6049 0.2735 0.23218 0.0
N1490 N 0.67467 0.24851 0.25083 0.0
N1491 N 0.6281 0.27771 0.23778 0.0
H1492 H 0.5411 0.85247 0.94911 0.0
H1493 H 0.53709 0.98424 0.95699 0.0
H1494 H 0.54832 0.88872 0.88886 0.0
H1495 H 0.55303 0.95328 0.01873 0.0
H1496 H 0.53839 0.94915 0.93136 0.0
H1497 H 0.54282 0.88862 0.97431 0.0
C1498 C 0.54315 0.86807 0.94114 0.0
C1499 C 0.54458 0.86742 0.91672 0.0
C1500 C 0.54168 0.95007 0.95051 0.0
C1501 C 0.54623 0.90919 0.94571 0.0
C1502 C 0.54084 0.9701 0.96522 0.0
C1503 C 0.54489 0.97185 0.99019 0.0
C1504 C 0.54623 0.93134 0.96073 0.0
C1505 C 0.54982 0.95287 -0.00035 0.0
C1506 C 0.54417 0.88878 0.95562 0.0
C1507 C 0.54727 0.88834 0.90757 0.0
N1508 N 0.55015 0.93345 0.98498 0.0
N1509 N 0.54777 0.90828 0.92198 0.0
H1510 H 0.96345 0.80045 0.75297 0.0
H1511 H 0.82841 0.74352 0.73567 0.0
H1512 H 0.93375 0.73251 0.7134 0.0
H1513 H 0.86339 0.80234 0.78818 0.0
H1514 H 0.86544 0.73943 0.7256 0.0
H1515 H 0.9265 0.80159 0.76421 0.0
C1516 C 0.94921 0.78559 0.74668 0.0
C1517 C 0.95218 0.76628 0.73218 0.0
C1518 C 0.86503 0.75317 0.7394 0.0
C1519 C 0.90872 0.76773 0.74494 0.0
C1520 C 0.84377 0.75558 0.74519 0.0
C1521 C 0.84237 0.77334 0.76296 0.0
C1522 C 0.88538 0.76881 0.75113 0.0
C1523 C 0.86322 0.7883 0.77446 0.0
C1524 C 0.92791 0.7863 0.75318 0.0
C1525 C 0.93264 0.74772 0.72475 0.0
N1526 N 0.88354 0.78579 0.76829 0.0
N1527 N 0.91188 0.74899 0.73099 0.0
H1528 H 0.12296 0.03544 0.86829 0.0
H1529 H 0.01756 0.03178 0.94012 0.0
H1530 H 0.05716 0.04075 0.83737 0.0
H1531 H 0.08436 0.03209 0.97383 0.0
H1532 H 0.03162 0.03307 0.90207 0.0
H1533 H 0.10904 0.0323 0.90656 0.0
C1534 C 0.10557 0.03587 0.86948 0.0
C1535 C 0.09124 0.03841 0.84947 0.0
C1536 C 0.04325 0.03282 0.91773 0.0
C1537 C 0.07519 0.0348 0.89337 0.0
C1538 C 0.03521 0.03204 0.93957 0.0
C1539 C 0.04977 0.03186 0.96038 0.0
C1540 C 0.0661 0.03339 0.91645 0.0
C1541 C 0.07248 0.03222 0.95834 0.0
C1542 C 0.09765 0.03411 0.89138 0.0
C1543 C 0.06888 0.03887 0.85221 0.0
N1544 N 0.07994 0.033 0.93681 0.0
N1545 N 0.0616 0.0371 0.87367 0.0
H1546 H 0.82091 0.36176 0.53028 0.0
H1547 H 0.7638 0.30423 0.63438 0.0
H1548 H 0.76007 0.3734 0.55484 0.0
H1549 H 0.83046 0.30075 0.61992 0.0
H1550 H 0.7596 0.32431 0.6004 0.0
H1551 H 0.82232 0.33452 0.55855 0.0
C1552 C 0.80778 0.35845 0.54147 0.0
C1553 C 0.79047 0.37 0.54042 0.0
C1554 C 0.77513 0.31909 0.60451 0.0
C1555 C 0.79192 0.33894 0.57251 0.0
C1556 C 0.77754 0.30767 0.62393 0.0
C1557 C 0.79767 0.30127 0.63013 0.0
C1558 C 0.79303 0.32426 0.59123 0.0
C1559 C 0.81473 0.30557 0.61571 0.0
C1560 C 0.80861 0.34295 0.55758 0.0
C1561 C 0.77385 0.36508 0.55524 0.0
N1562 N 0.81214 0.3171 0.59699 0.0
N1563 N 0.77505 0.34999 0.57071 0.0
H1564 H 0.45897 0.03015 0.33452 0.0
H1565 H 0.4757 0.06446 0.47528 0.0
H1566 H 0.41775 0.06735 0.371 0.0
H1567 H 0.51997 0.03174 0.43839 0.0
H1568 H 0.4567 0.06919 0.43708 0.0
H1569 H 0.48398 0.03424 0.37201 0.0
C1570 C 0.4553 0.03937 0.35039 0.0
C1571 C 0.43607 0.04813 0.34974 0.0
C1572 C 0.4707 0.06117 0.43733 0.0
C1573 C 0.46454 0.05275 0.39273 0.0
C1574 C 0.48154 0.05839 0.45915 0.0
C1575 C 0.49926 0.04738 0.46 0.0
C1576 C 0.47751 0.05272 0.41619 0.0
C1577 C 0.50626 0.04014 0.43855 0.0
C1578 C 0.46961 0.04173 0.3718 0.0
C1579 C 0.43229 0.06016 0.37076 0.0
N1580 N 0.4952 0.04272 0.41749 0.0
N1581 N 0.44625 0.06187 0.39149 0.0
H1582 H 0.79313 0.72318 0.08999 0.0
H1583 H 0.73869 0.78037 0.19508 0.0
H1584 H 0.72539 0.73276 0.0793 0.0
H1585 H 0.79774 0.7537 0.20596 0.0
H1586 H 0.73549 0.768 0.15193 0.0
H1587 H 0.79724 0.73973 0.13184 0.0
C1588 C 0.77917 0.72895 0.09636 0.0
C1589 C 0.75883 0.72643 0.08105 0.0
C1590 C 0.74914 0.76493 0.16384 0.0
C1591 C 0.76341 0.7454 0.12919 0.0
C1592 C 0.75101 0.77203 0.18844 0.0
C1593 C 0.76838 0.7679 0.20424 0.0
C1594 C 0.76497 0.75396 0.15501 0.0
C1595 C 0.78389 0.75703 0.19459 0.0
C1596 C 0.7815 0.73832 0.12033 0.0
C1597 C 0.74134 0.73425 0.09045 0.0
N1598 N 0.78182 0.75051 0.17072 0.0
N1599 N 0.744 0.74332 0.1139 0.0
H1600 H 0.10379 0.06932 0.7296 0.0
H1601 H 0.03231 0.00208 0.60432 0.0
H1602 H 0.07588 -0.00431 0.71334 0.0
H1603 H 0.06591 0.07468 0.61462 0.0
H1604 H 0.04511 0.00096 0.64577 0.0
H1605 H 0.08727 0.07297 0.68943 0.0
C1606 C 0.09402 0.05395 0.71772 0.0
C1607 C 0.09132 0.03212 0.72491 0.0
C1608 C 0.04968 0.01722 0.63912 0.0
C1609 C 0.07241 0.03622 0.67889 0.0
C1610 C 0.04233 0.01792 0.61531 0.0
C1611 C 0.04814 0.03852 0.60573 0.0
C1612 C 0.06311 0.03724 0.65382 0.0
C1613 C 0.06103 0.05841 0.62116 0.0
C1614 C 0.08467 0.05606 0.69475 0.0
C1615 C 0.07854 0.01285 0.70866 0.0
N1616 N 0.06821 0.05725 0.64441 0.0
N1617 N 0.06967 0.01536 0.68652 0.0
H1618 H 0.7462 0.36892 0.447 0.0
H1619 H 0.78352 0.35415 0.31871 0.0
H1620 H 0.77439 0.42544 0.41084 0.0
H1621 H 0.75669 0.29654 0.35401 0.0
H1622 H 0.77507 0.38001 0.3501 0.0
H1623 H 0.74428 0.34202 0.41099 0.0
C1624 C 0.75166 0.37573 0.43137 0.0
C1625 C 0.76088 0.39947 0.43206 0.0
C1626 C 0.77093 0.36174 0.35105 0.0
C1627 C 0.75884 0.36872 0.39089 0.0
C1628 C 0.7759 0.34691 0.33318 0.0
C1629 C 0.77128 0.32318 0.33407 0.0
C1630 C 0.76143 0.35289 0.37019 0.0
C1631 C 0.76079 0.31476 0.35286 0.0
C1632 C 0.7506 0.36032 0.41084 0.0
C1633 C 0.76744 0.40728 0.41122 0.0
N1634 N 0.75647 0.32969 0.37042 0.0
N1635 N 0.76656 0.39191 0.39158 0.0
H1636 H 0.45744 0.07985 0.26324 0.0
H1637 H 0.46933 0.98315 0.16083 0.0
H1638 H 0.40262 0.02144 0.22963 0.0
H1639 H 0.52139 0.04643 0.18551 0.0
H1640 H 0.44539 -0.00361 0.18763 0.0
H1641 H 0.48161 0.06802 0.2356 0.0
C1642 C 0.45039 0.06474 0.24987 0.0
C1643 C 0.42803 0.05152 0.24885 0.0
C1644 C 0.46207 0.00738 0.18725 0.0
C1645 C 0.45563 0.03774 0.21755 0.0
C1646 C 0.47575 -0.0002 0.17198 0.0
C1647 C 0.49735 0.01373 0.1709 0.0
C1648 C 0.47004 0.02905 0.2016 0.0
C1649 C 0.50495 0.03502 0.18598 0.0
C1650 C 0.46423 0.05793 0.23421 0.0
C1651 C 0.4198 0.03208 0.2312 0.0
N1652 N 0.49126 0.04208 0.20068 0.0
N1653 N 0.43365 0.02569 0.21639 0.0
H1654 H 0.76504 0.67062 0.92136 0.0
H1655 H 0.79038 0.78782 0.86543 0.0
H1656 H 0.77855 0.73814 0.96298 0.0
H1657 H 0.77352 0.72024 0.82321 0.0
H1658 H 0.78778 0.76995 0.90135 0.0
H1659 H 0.76942 0.68846 0.88552 0.0
C1660 C 0.76894 0.68922 0.92301 0.0
C1661 C 0.77139 0.70288 0.94532 0.0
C1662 C 0.78472 0.759 0.88426 0.0
C1663 C 0.77651 0.72349 0.90411 0.0
C1664 C 0.78625 0.7692 0.86365 0.0
C1665 C 0.78213 0.75555 0.8411 0.0
C1666 C 0.77901 0.7349 0.8825 0.0
C1667 C 0.77686 0.7315 0.84012 0.0
C1668 C 0.77145 0.6994 0.90247 0.0
C1669 C 0.77647 0.7269 0.94622 0.0
N1670 N 0.77539 0.72197 0.86048 0.0
N1671 N 0.77885 0.73641 0.92594 0.0
H1672 H 0.81821 0.08838 0.0226 0.0
H1673 H 0.89917 0.05764 0.93387 0.0
H1674 H 0.83072 0.12498 0.9632 0.0
H1675 H 0.86815 0.01188 0.98005 0.0
H1676 H 0.8726 0.0812 0.94139 0.0
H1677 H 0.83557 0.05938 0.00545 0.0
C1678 C 0.82467 0.09033 0.00592 0.0
C1679 C 0.82329 0.10924 -0.00556 0.0
C1680 C 0.87131 0.06567 0.94937 0.0
C1681 C 0.84322 0.076 0.9746 0.0
C1682 C 0.88646 0.05223 0.94511 0.0
C1683 C 0.8862 0.03295 0.95666 0.0
C1684 C 0.85602 0.05985 0.96546 0.0
C1685 C 0.8691 0.02653 0.97069 0.0
C1686 C 0.83439 0.07362 -0.00401 0.0
C1687 C 0.83161 0.11069 0.97267 0.0
N1688 N 0.85502 0.04018 0.97504 0.0
N1689 N 0.84154 0.09441 0.96357 0.0
H1690 H 0.36434 0.41127 0.04272 0.0
H1691 H 0.45611 0.53296 0.05527 0.0
H1692 H 0.34829 0.47627 0.06101 0.0
H1693 H 0.46699 0.46744 0.02774 0.0
H1694 H 0.41755 0.51291 0.06052 0.0
H1695 H 0.40314 0.43198 0.04051 0.0
C1696 C 0.36898 0.42992 0.04639 0.0
C1697 C 0.35295 0.44202 0.05197 0.0
C1698 C 0.42844 0.50299 0.05335 0.0
C1699 C 0.39755 0.46597 0.04937 0.0
C1700 C 0.45045 0.51441 0.05037 0.0
C1701 C 0.46483 0.50192 0.04092 0.0
C1702 C 0.42086 0.47892 0.04701 0.0
C1703 C 0.45655 0.47789 0.03492 0.0
C1704 C 0.39118 0.44177 0.04506 0.0
C1705 C 0.36005 0.46622 0.05658 0.0
N1706 N 0.43521 0.46725 0.03807 0.0
N1707 N 0.38182 0.47741 0.05512 0.0
H1708 H 0.39876 0.58039 0.75224 0.0
H1709 H 0.31884 0.63861 0.82707 0.0
H1710 H 0.38246 0.56365 0.82047 0.0
H1711 H 0.32926 0.65055 0.7558 0.0
H1712 H 0.34307 0.61201 0.82535 0.0
H1713 H 0.37475 0.6074 0.7538 0.0
C1714 C 0.39021 0.58243 0.76758 0.0
C1715 C 0.39264 0.56968 0.78624 0.0
C1716 C 0.34005 0.62042 0.81007 0.0
C1717 C 0.36508 0.60057 0.78812 0.0
C1718 C 0.32606 0.63553 0.81096 0.0
C1719 C 0.32187 0.64687 0.79153 0.0
C1720 C 0.35008 0.61657 0.7896 0.0
C1721 C 0.33217 0.64247 0.77135 0.0
C1722 C 0.37645 0.59783 0.76843 0.0
C1723 C 0.38109 0.57305 0.80565 0.0
N1724 N 0.34577 0.62769 0.77092 0.0
N1725 N 0.36785 0.58813 0.80607 0.0
H1726 H 0.21198 0.61912 0.50588 0.0
H1727 H 0.11089 0.54218 0.55845 0.0
H1728 H 0.22172 0.57681 0.55988 0.0
H1729 H 0.09993 0.56934 0.49287 0.0
H1730 H 0.15162 0.55531 0.55914 0.0
H1731 H 0.17108 0.60156 0.50054 0.0
C1732 C 0.20554 0.60604 0.51651 0.0
C1733 C 0.22026 0.59954 0.53351 0.0
C1734 C 0.14038 0.5583 0.54449 0.0
C1735 C 0.17356 0.57954 0.52754 0.0
C1736 C 0.11707 0.55092 0.54413 0.0
C1737 C 0.102 0.55489 0.52568 0.0
C1738 C 0.14881 0.57003 0.52641 0.0
C1739 C 0.111 0.56601 0.50746 0.0
C1740 C 0.18221 0.596 0.51338 0.0
C1741 C 0.21101 0.58242 0.54666 0.0
N1742 N 0.13391 0.57344 0.50841 0.0
N1743 N 0.18823 0.57318 0.54354 0.0
H1744 H 0.74071 0.00698 0.77155 0.0
H1745 H 0.79449 0.90596 0.73774 0.0
H1746 H 0.72673 0.96856 0.70052 0.0
H1747 H 0.82358 0.95899 0.79841 0.0
H1748 H 0.77367 0.93127 0.72105 0.0
H1749 H 0.77401 0.99231 0.77974 0.0
C1750 C 0.74478 -0.00445 0.75761 0.0
C1751 C 0.73075 0.98857 0.73549 0.0
C1752 C 0.78502 0.93761 0.73773 0.0
C1753 C 0.76877 0.97158 0.74478 0.0
C1754 C 0.79713 0.9232 0.74727 0.0
C1755 C 0.81045 0.93012 0.76989 0.0
C1756 C 0.78591 0.95891 0.75108 0.0
C1757 C 0.81293 0.95263 0.78131 0.0
C1758 C 0.76392 0.98733 0.76222 0.0
C1759 C 0.73702 0.97413 0.7179 0.0
N1760 N 0.80034 0.96603 0.77206 0.0
N1761 N 0.75537 0.9657 0.72308 0.0
H1762 H 0.75839 0.94522 0.54381 0.0
H1763 H 0.62989 0.95062 0.50702 0.0
H1764 H 0.70379 0.88598 0.51203 0.0
H1765 H 0.6859 0.01122 0.52766 0.0
H1766 H 0.65644 0.92656 0.51143 0.0
H1767 H 0.73186 0.96956 0.54055 0.0
C1768 C 0.74082 0.93731 0.53619 0.0
C1769 C 0.73333 0.9135 0.52814 0.0
C1770 C 0.66296 0.94512 0.515 0.0
C1771 C 0.70286 0.94128 0.52441 0.0
C1772 C 0.64777 0.95888 0.51264 0.0
C1773 C 0.65566 0.983 0.51701 0.0
C1774 C 0.68626 0.95549 0.52194 0.0
C1775 C 0.67909 -0.00729 0.52388 0.0
C1776 C 0.7257 0.95124 0.53429 0.0
C1777 C 0.71037 0.90424 0.51841 0.0
N1778 N 0.69355 0.97893 0.52619 0.0
N1779 N 0.69598 0.91812 0.51686 0.0
H1780 H 0.40567 0.4329 0.72884 0.0
H1781 H 0.29681 0.37279 0.78519 0.0
H1782 H 0.37409 0.47047 0.77789 0.0
H1783 H 0.33362 0.33588 0.7418 0.0
H1784 H 0.32258 0.40918 0.78007 0.0
H1785 H 0.37715 0.3976 0.73088 0.0
C1786 C 0.3927 0.43377 0.74 0.0
C1787 C 0.39238 0.45471 0.7533 0.0
C1788 C 0.3249 0.39309 0.7716 0.0
C1789 C 0.35955 0.4142 0.75574 0.0
C1790 C 0.31014 0.37232 0.77443 0.0
C1791 C 0.31311 0.35121 0.76405 0.0
C1792 C 0.34267 0.39272 0.75819 0.0
C1793 C 0.33074 0.35168 0.75033 0.0
C1794 C 0.37639 0.41356 0.74117 0.0
C1795 C 0.37507 0.45471 0.7674 0.0
N1796 N 0.34483 0.37203 0.74788 0.0
N1797 N 0.35939 0.43477 0.76829 0.0
H1798 H 0.21189 0.59278 0.28111 0.0
H1799 H 0.24554 0.70773 0.2234 0.0
H1800 H 0.20539 0.59363 0.20524 0.0
H1801 H 0.24761 0.70687 0.29902 0.0
H1802 H 0.23312 0.66581 0.21647 0.0
H1803 H 0.22777 0.63431 0.28796 0.0
C1804 C 0.21393 0.60169 0.26585 0.0
C1805 C 0.20713 0.58974 0.24253 0.0
C1806 C 0.2363 0.67478 0.23458 0.0
C1807 C 0.22523 0.63739 0.25032 0.0
C1808 C 0.24337 0.69874 0.23858 0.0
C1809 C 0.24753 0.71084 0.26186 0.0
C1810 C 0.23339 0.66279 0.25398 0.0
C1811 C 0.2445 0.69825 0.28079 0.0
C1812 C 0.22298 0.62544 0.26981 0.0
C1813 C 0.21035 0.60217 0.2235 0.0
N1814 N 0.23758 0.67488 0.27642 0.0
N1815 N 0.21906 0.62539 0.22782 0.0
H1816 H 0.54371 0.71365 0.47629 0.0
H1817 H 0.47613 0.58686 0.49621 0.0
H1818 H 0.47059 0.69151 0.46249 0.0
H1819 H 0.54851 0.6154 0.51419 0.0
H1820 H 0.47269 0.62377 0.48375 0.0
H1821 H 0.54465 0.67733 0.49 0.0
C1822 C 0.52771 0.70121 0.47618 0.0
C1823 C 0.50702 0.70607 0.46807 0.0
C1824 C 0.4893 0.62195 0.49051 0.0
C1825 C 0.50805 0.66331 0.48397 0.0
C1826 C 0.49131 0.60079 0.49768 0.0
C1827 C 0.51269 0.59766 0.50643 0.0
C1828 C 0.50881 0.64032 0.49192 0.0
C1829 C 0.53162 0.61661 0.50769 0.0
C1830 C 0.5283 0.68025 0.48409 0.0
C1831 C 0.487 0.68883 0.4686 0.0
N1832 N 0.52921 0.63679 0.50055 0.0
N1833 N 0.48802 0.6683 0.47625 0.0
H1834 H 0.60182 0.29071 0.67343 0.0
H1835 H 0.73444 0.29335 0.69769 0.0
H1836 H 0.64956 0.31432 0.62639 0.0
H1837 H 0.68865 0.27578 0.74834 0.0
H1838 H 0.7033 0.30012 0.67106 0.0
H1839 H 0.63296 0.28447 0.70077 0.0
C1840 C 0.61883 0.29469 0.66885 0.0
C1841 C 0.62294 0.30311 0.64747 0.0
C1842 C 0.70002 0.29478 0.68799 0.0
C1843 C 0.65883 0.29579 0.67877 0.0
C1844 C 0.71785 0.29084 0.70326 0.0
C1845 C 0.71432 0.28394 0.72544 0.0
C1846 C 0.67828 0.29175 0.69475 0.0
C1847 C 0.69231 0.28108 0.7315 0.0
C1848 C 0.63664 0.29108 0.6845 0.0
C1849 C 0.64544 0.30785 0.6426 0.0
N1850 N 0.67521 0.28495 0.7163 0.0
N1851 N 0.6624 0.30408 0.65801 0.0
H1852 H 0.02252 0.33986 0.98894 0.0
H1853 H 0.97754 0.45465 0.99007 0.0
H1854 H 0.9672 0.34656 0.93884 0.0
H1855 H 0.04607 0.45737 0.02027 0.0
H1856 H 0.97104 0.41331 0.97665 0.0
H1857 H 0.0289 0.38087 0.00607 0.0
C1858 C 0.0115 0.34977 0.98177 0.0
C1859 C 0.99426 0.33958 0.96235 0.0
C1860 C 0.9875 0.42289 0.98628 0.0
C1861 C 0.00142 0.38657 0.98195 0.0
C1862 C 0.99123 0.4466 0.99406 0.0
C1863 C 0.01244 0.4598 0.00634 0.0
C1864 C 0.00493 0.41184 0.99102 0.0
C1865 C 0.02945 0.44807 0.0108 0.0
C1866 C 0.01528 0.37325 0.99143 0.0
C1867 C 0.98074 0.35353 0.9537 0.0
N1868 N 0.02533 0.42487 0.00326 0.0
N1869 N 0.98453 0.37605 0.96353 0.0
H1870 H 0.97205 0.74983 0.12166 0.0
H1871 H 0.93037 0.80988 0.23484 0.0
H1872 H 0.01265 0.81263 0.16535 0.0
H1873 H 0.89708 0.74163 0.19749 0.0
H1874 H 0.95962 0.8125 0.20872 0.0
H1875 H 0.94367 0.74782 0.14834 0.0
C1876 C 0.97505 0.76326 0.13688 0.0
C1877 C 0.99488 0.78146 0.14117 0.0
C1878 C 0.94594 0.79695 0.20629 0.0
C1879 C 0.96209 0.77925 0.17201 0.0
C1880 C 0.92912 0.79547 0.2211 0.0
C1881 C 0.91115 0.77547 0.21845 0.0
C1882 C 0.94473 0.77837 0.18846 0.0
C1883 C 0.91068 0.75729 0.20047 0.0
C1884 C 0.95878 0.76205 0.15219 0.0
C1885 C 0.99769 0.79826 0.16131 0.0
N1886 N 0.9271 0.75921 0.18618 0.0
N1887 N 0.98146 0.7968 0.17591 0.0
H1888 H 0.54824 0.3419 0.1936 0.0
H1889 H 0.51648 0.36602 0.06051 0.0
H1890 H 0.512 0.28819 0.136 0.0
H1891 H 0.55204 0.41879 0.11924 0.0
H1892 H 0.51468 0.3372 0.08739 0.0
H1893 H 0.54967 0.37004 0.16631 0.0
C1894 C 0.54054 0.33597 0.17519 0.0
C1895 C 0.52995 0.31254 0.16717 0.0
C1896 C 0.52285 0.35509 0.09439 0.0
C1897 C 0.53155 0.34496 0.13558 0.0
C1898 C 0.524 0.37159 0.07901 0.0
C1899 C 0.53441 0.395 0.08754 0.0
C1900 C 0.53226 0.36195 0.11854 0.0
C1901 C 0.54354 0.40108 0.11183 0.0
C1902 C 0.54137 0.35212 0.15957 0.0
C1903 C 0.52033 0.30603 0.14303 0.0
N1904 N 0.54228 0.38473 0.12637 0.0
N1905 N 0.52136 0.32213 0.12812 0.0
H1906 H 0.98303 0.3182 0.30447 0.0
H1907 H 0.85238 0.27575 0.32558 0.0
H1908 H 0.96087 0.28854 0.36525 0.0
H1909 H 0.87016 0.31417 0.26873 0.0
H1910 H 0.89239 0.27878 0.33808 0.0
H1911 H 0.94282 0.31537 0.28894 0.0
C1912 C 0.96985 0.31096 0.31449 0.0
C1913 C 0.97569 0.30364 0.33634 0.0
C1914 C 0.88772 0.28665 0.32287 0.0
C1915 C 0.92938 0.30034 0.31859 0.0
C1916 C 0.86464 0.28492 0.31564 0.0
C1917 C 0.85745 0.29481 0.29601 0.0
C1918 C 0.90438 0.29828 0.3105 0.0
C1919 C 0.87464 0.30634 0.28402 0.0
C1920 C 0.94684 0.30944 0.30565 0.0
C1921 C 0.95759 0.29455 0.34843 0.0
N1922 N 0.89717 0.30773 0.29139 0.0
N1923 N 0.93562 0.29317 0.33948 0.0
H1924 H 0.00591 0.67208 0.6716 0.0
H1925 H 0.03565 0.61404 0.54922 0.0
H1926 H 0.02297 0.70736 0.6124 0.0
H1927 H 0.01742 0.57458 0.60528 0.0
H1928 H 0.03091 0.64804 0.57309 0.0
H1929 H 0.00946 0.63617 0.64869 0.0
C1930 C 0.01025 0.67231 0.65381 0.0
C1931 C 0.01413 0.69296 0.64403 0.0
C1932 C 0.02792 0.63203 0.58032 0.0
C1933 C 0.01838 0.65186 0.61773 0.0
C1934 C 0.03067 0.61243 0.56661 0.0
C1935 C 0.02697 0.59115 0.57509 0.0
C1936 C 0.02137 0.63075 0.60297 0.0
C1937 C 0.02052 0.59053 0.59792 0.0
C1938 C 0.01234 0.65179 0.64075 0.0
C1939 C 0.01982 0.69207 0.62087 0.0
N1940 N 0.01792 0.60998 0.61104 0.0
N1941 N 0.02178 0.67206 0.60869 0.0
H1942 H 0.59473 0.78407 0.8141 0.0
H1943 H 0.72977 0.83481 0.81397 0.0
H1944 H 0.63488 0.84792 0.85595 0.0
H1945 H 0.69391 0.76531 0.78263 0.0
H1946 H 0.69436 0.84088 0.82633 0.0
H1947 H 0.62946 0.77793 0.79929 0.0
C1948 C 0.61067 0.79693 0.82003 0.0
C1949 C 0.61152 0.8166 0.83644 0.0
C1950 C 0.69414 0.82428 0.81669 0.0
C1951 C 0.6518 0.80961 0.81939 0.0
C1952 C 0.71451 0.8208 0.80953 0.0
C1953 C 0.71523 0.79945 0.79713 0.0
C1954 C 0.67388 0.80643 0.81139 0.0
C1955 C 0.69452 0.78208 0.79213 0.0
C1956 C 0.63063 0.79334 0.81164 0.0
C1957 C 0.63304 0.83244 0.84345 0.0
N1958 N 0.67491 0.78594 0.79916 0.0
N1959 N 0.65201 0.82865 0.83496 0.0
H1960 H 0.48568 0.5778 0.71126 0.0
H1961 H 0.47805 0.50292 0.58363 0.0
H1962 H 0.45264 0.50512 0.69467 0.0
H1963 H 0.52081 0.57207 0.60453 0.0
H1964 H 0.46703 0.50399 0.62341 0.0
H1965 H 0.49741 0.57649 0.67182 0.0
C1966 C 0.48094 0.56151 0.69938 0.0
C1967 C 0.46812 0.54153 0.70641 0.0
C1968 C 0.47882 0.51894 0.61932 0.0
C1969 C 0.4814 0.53997 0.66089 0.0
C1970 C 0.48508 0.51839 0.59652 0.0
C1971 C 0.5004 0.53746 0.5906 0.0
C1972 C 0.48779 0.53876 0.63642 0.0
C1973 C 0.50896 0.55695 0.60821 0.0
C1974 C 0.48767 0.56079 0.67681 0.0
C1975 C 0.46255 0.52095 0.69013 0.0
N1976 N 0.50252 0.55711 0.63023 0.0
N1977 N 0.46911 0.52074 0.66815 0.0
H1978 H 0.74288 0.20688 0.02478 0.0
H1979 H 0.79528 0.28244 0.92989 0.0
H1980 H 0.809 0.21028 0.00427 0.0
H1981 H 0.72347 0.26121 0.93318 0.0
H1982 H 0.8028 0.26533 0.96556 0.0
H1983 H 0.73806 0.23566 -0.0007 0.0
C1984 C 0.75651 0.21392 0.01519 0.0
C1985 C 0.77622 0.20594 0.01628 0.0
C1986 C 0.78543 0.26473 0.95867 0.0
C1987 C 0.77087 0.23885 0.98741 0.0
C1988 C 0.78112 0.27444 0.93832 0.0
C1989 C 0.75868 0.27275 0.92828 0.0
C1990 C 0.76718 0.25328 0.96905 0.0
C1991 C 0.74101 0.26277 0.94027 0.0
C1992 C 0.75372 0.2303 0.00067 0.0
C1993 C 0.79339 0.2157 0.00362 0.0
N1994 N 0.74561 0.25307 0.95987 0.0
N1995 N 0.79025 0.23154 0.98956 0.0
H1996 H 0.11977 0.49174 0.18635 0.0
H1997 H 0.06911 0.56467 0.10052 0.0
H1998 H 0.11591 0.56103 0.21007 0.0
H1999 H 0.03928 0.49151 0.09293 0.0
H2000 H 0.08984 0.5634 0.13921 0.0
H2001 H 0.09334 0.4906 0.15011 0.0
C2002 C 0.11331 0.50662 0.18398 0.0
C2003 C 0.12013 0.52657 0.2011 0.0
C2004 C 0.07858 0.54765 0.12923 0.0
C2005 C 0.09033 0.52539 0.16002 0.0
C2006 C 0.06683 0.54836 0.10719 0.0
C2007 C 0.05253 0.52817 0.09375 0.0
C2008 C 0.07648 0.52648 0.13757 0.0
C2009 C 0.05008 0.50744 0.10302 0.0
C2010 C 0.09817 0.50589 0.16347 0.0
C2011 C 0.11117 0.54532 0.19731 0.0
N2012 N 0.06228 0.50702 0.12435 0.0
N2013 N 0.09696 0.54438 0.17704 0.0
H2014 H 0.76219 0.84232 0.47041 0.0
H2015 H 0.82387 0.80914 0.35994 0.0
H2016 H 0.83408 0.84743 0.47635 0.0
H2017 H 0.75142 0.80016 0.35514 0.0
H2018 H 0.82785 0.822 0.40284 0.0
H2019 H 0.75772 0.82545 0.42849 0.0
C2020 C 0.77701 0.83972 0.46299 0.0
C2021 C 0.79856 0.84641 0.47699 0.0
C2022 C 0.81107 0.81711 0.3924 0.0
C2023 C 0.7936 0.82725 0.42883 0.0
C2024 C 0.80879 0.80975 0.36786 0.0
C2025 C 0.78729 0.80359 0.35377 0.0
C2026 C 0.79174 0.81842 0.40299 0.0
C2027 C 0.76837 0.80476 0.36516 0.0
C2028 C 0.77446 0.83013 0.439 0.0
C2029 C 0.81713 0.84262 0.46631 0.0
N2030 N 0.77106 0.8121 0.38899 0.0
N2031 N 0.81425 0.83345 0.4429 0.0
H2032 H 0.48049 0.48267 0.82925 0.0
H2033 H 0.50079 0.55702 0.95888 0.0
H2034 H 0.46942 0.55058 0.84227 0.0
H2035 H 0.52369 0.49523 0.94518 0.0
H2036 H 0.48887 0.55446 0.91631 0.0
H2037 H 0.49619 0.48659 0.87133 0.0
C2038 C 0.48151 0.4985 0.84088 0.0
C2039 C 0.47353 0.51631 0.83211 0.0
C2040 C 0.49657 0.54148 0.92254 0.0
C2041 C 0.49134 0.52079 0.88054 0.0
C2042 C 0.50335 0.54287 0.94695 0.0
C2043 C 0.51323 0.52624 0.9558 0.0
C2044 C 0.49941 0.5232 0.90661 0.0
C2045 C 0.51617 0.50843 0.93926 0.0
C2046 C 0.49049 0.50071 0.86495 0.0
C2047 C 0.47535 0.5364 0.84814 0.0
N2048 N 0.50915 0.5073 0.91551 0.0
N2049 N 0.48388 0.53801 0.87153 0.0
H2050 H 0.80363 0.15936 0.12129 0.0
H2051 H 0.80596 0.27941 0.19485 0.0
H2052 H 0.83431 0.22446 0.1001 0.0
H2053 H 0.79796 0.21735 0.22683 0.0
H2054 H 0.81559 0.25921 0.15955 0.0
H2055 H 0.80137 0.17981 0.16012 0.0
C2056 C 0.81021 0.17791 0.12494 0.0
C2057 C 0.81897 0.19026 0.10737 0.0
C2058 C 0.81189 0.25006 0.17436 0.0
C2059 C 0.81606 0.21372 0.1515 0.0
C2060 C 0.80621 0.26152 0.19444 0.0
C2061 C 0.80096 0.24998 0.21372 0.0
C2062 C 0.81199 0.22679 0.17339 0.0
C2063 C 0.80182 0.22688 0.21232 0.0
C2064 C 0.8089 0.18956 0.14708 0.0
C2065 C 0.82735 0.21426 0.11308 0.0
N2066 N 0.807 0.21595 0.19237 0.0
N2067 N 0.82536 0.22525 0.13454 0.0
H2068 H 0.15571 0.57912 0.32884 0.0
H2069 H 0.03563 0.52258 0.366 0.0
H2070 H 0.11451 0.51109 0.29811 0.0
H2071 H 0.0773 0.59045 0.39636 0.0
H2072 H 0.06276 0.51917 0.33854 0.0
H2073 H 0.12605 0.58429 0.35219 0.0
C2074 C 0.14047 0.56521 0.3271 0.0
C2075 C 0.13761 0.5446 0.31158 0.0
C2076 C 0.06582 0.53491 0.35102 0.0
C2077 C 0.10348 0.5505 0.33809 0.0
C2078 C 0.05033 0.53687 0.36663 0.0
C2079 C 0.05432 0.55676 0.38355 0.0
C2080 C 0.08546 0.55292 0.35247 0.0
C2081 C 0.07346 0.57489 0.38348 0.0
C2082 C 0.12348 0.56823 0.34034 0.0
C2083 C 0.11746 0.52722 0.30995 0.0
N2084 N 0.08845 0.57243 0.36835 0.0
N2085 N 0.10115 0.53056 0.32308 0.0
H2086 H 0.80792 0.86971 0.61494 0.0
H2087 H 0.7386 0.79392 0.70096 0.0
H2088 H 0.73714 0.83323 0.59626 0.0
H2089 H 0.80506 0.84046 0.72391 0.0
H2090 H 0.73812 0.807 0.6621 0.0
H2091 H 0.80778 0.85765 0.65426 0.0
C2092 C 0.79236 0.85908 0.61903 0.0
C2093 C 0.77251 0.85248 0.60217 0.0
C2094 C 0.75276 0.81443 0.67567 0.0
C2095 C 0.77224 0.83861 0.64732 0.0
C2096 C 0.75304 0.80699 0.69792 0.0
C2097 C 0.77192 0.81603 0.7158 0.0
C2098 C 0.77157 0.83093 0.67111 0.0
C2099 C 0.79013 0.83294 0.71072 0.0
C2100 C 0.79227 0.85228 0.64156 0.0
C2101 C 0.75285 0.83877 0.60863 0.0
N2102 N 0.78956 0.83972 0.68885 0.0
N2103 N 0.75323 0.83226 0.63062 0.0
H2104 H 0.7627 0.51022 0.50811 0.0
H2105 H 0.66683 0.51673 0.59011 0.0
H2106 H 0.73431 0.45712 0.54828 0.0
H2107 H 0.6844 0.56298 0.53942 0.0
H2108 H 0.69771 0.49957 0.58133 0.0
H2109 H 0.73971 0.53414 0.52524 0.0
C2110 C 0.75175 0.50366 0.52062 0.0
C2111 C 0.75014 0.48154 0.52653 0.0
C2112 C 0.695 0.51367 0.57234 0.0
C2113 C 0.7241 0.50878 0.54628 0.0
C2114 C 0.6774 0.52345 0.57736 0.0
C2115 C 0.67286 0.54102 0.56519 0.0
C2116 C 0.70808 0.52144 0.55495 0.0
C2117 C 0.68733 0.54944 0.54919 0.0
C2118 C 0.73869 0.51731 0.5304 0.0
C2119 C 0.73583 0.47394 0.54295 0.0
N2120 N 0.70414 0.53934 0.54426 0.0
N2121 N 0.72329 0.4875 0.55216 0.0
H2122 H 0.21586 0.1256 0.53044 0.0
H2123 H 0.08131 0.08702 0.49077 0.0
H2124 H 0.17967 0.15437 0.47763 0.0
H2125 H 0.11615 0.05256 0.53888 0.0
H2126 H 0.11769 0.11059 0.48484 0.0
H2127 H 0.18022 0.09778 0.53304 0.0
C2128 C 0.20047 0.12602 0.5193 0.0
C2129 C 0.20077 0.14248 0.50387 0.0
C2130 C 0.1175 0.09781 0.4966 0.0
C2131 C 0.15994 0.11068 0.50682 0.0
C2132 C 0.09666 0.08429 0.50003 0.0
C2133 C 0.09563 0.06785 0.5155 0.0
C2134 C 0.13766 0.09513 0.50887 0.0
C2135 C 0.11616 0.06503 0.5268 0.0
C2136 C 0.18014 0.1101 0.5208 0.0
C2137 C 0.1803 0.14212 0.48985 0.0
N2138 N 0.13636 0.07871 0.52343 0.0
N2139 N 0.16077 0.1266 0.49176 0.0
H2140 H 0.18834 0.00971 0.77777 0.0
H2141 H 0.19536 0.87836 0.76042 0.0
H2142 H 0.13412 0.95286 0.78766 0.0
H2143 H 0.25357 0.93617 0.76471 0.0
H2144 H 0.17187 0.90517 0.76718 0.0
H2145 H 0.21156 0.98281 0.76959 0.0
C2146 C 0.18127 0.99157 0.77817 0.0
C2147 C 0.15922 0.98357 0.78348 0.0
C2148 C 0.18978 0.91199 0.76662 0.0
C2149 C 0.18577 0.95262 0.77403 0.0
C2150 C 0.20328 0.89667 0.76287 0.0
C2151 C 0.22662 0.90492 0.76211 0.0
C2152 C 0.19956 0.93583 0.76951 0.0
C2153 C 0.23567 0.92891 0.76486 0.0
C2154 C 0.19458 0.97622 0.77354 0.0
C2155 C 0.15103 0.95984 0.78375 0.0
N2156 N 0.22216 0.94348 0.76846 0.0
N2157 N 0.16428 0.94523 0.77907 0.0
H2158 H 0.35069 0.98152 -0.00444 0.0
H2159 H 0.47342 -0.00593 0.06524 0.0
H2160 H 0.36193 0.96705 0.06744 0.0
H2161 H 0.46218 0.03048 0.00635 0.0
H2162 H 0.43252 0.98233 0.06528 0.0
H2163 H 0.39149 -0.00173 -0.00186 0.0
C2164 C 0.36173 0.98202 0.01194 0.0
C2165 C 0.35298 0.97276 0.03127 0.0
C2166 C 0.43902 -0.00699 0.05245 0.0
C2167 C 0.39954 0.99163 0.03422 0.0
C2168 C 0.46235 -0.00041 0.05232 0.0
C2169 C 0.47118 0.01314 0.03567 0.0
C2170 C 0.4244 -0.00028 0.03557 0.0
C2171 C 0.45606 0.02001 0.01948 0.0
C2172 C 0.38497 0.99163 0.01341 0.0
C2173 C 0.36799 0.97396 0.05211 0.0
N2174 N 0.43334 0.01302 0.01968 0.0
N2175 N 0.39061 0.98299 0.05295 0.0
H2176 H 0.8279 0.56975 0.78422 0.0
H2177 H 0.79217 0.64707 0.69218 0.0
H2178 H 0.8503 0.56954 0.71539 0.0
H2179 H 0.75664 0.63021 0.75111 0.0
H2180 H 0.81279 0.61786 0.69904 0.0
H2181 H 0.8014 0.59182 0.77181 0.0
C2182 C 0.82726 0.57439 0.76648 0.0
C2183 C 0.84144 0.568 0.75086 0.0
C2184 C 0.80016 0.62027 0.71016 0.0
C2185 C 0.81108 0.59319 0.73651 0.0
C2186 C 0.78843 0.6369 0.70626 0.0
C2187 C 0.77285 0.64114 0.72123 0.0
C2188 C 0.79647 0.60812 0.72937 0.0
C2189 C 0.76844 0.62742 0.73909 0.0
C2190 C 0.81198 0.58682 0.75933 0.0
C2191 C 0.83971 0.57423 0.728 0.0
N2192 N 0.78047 0.61176 0.7429 0.0
N2193 N 0.82493 0.58671 0.72156 0.0
H2194 H 0.81697 0.64518 -0.00046 0.0
H2195 H 0.89317 0.58454 0.08098 0.0
H2196 H 0.82275 0.65293 0.07618 0.0
H2197 H 0.89398 0.58326 0.00551 0.0
H2198 H 0.86615 0.60833 0.07922 0.0
H2199 H 0.84411 0.6214 0.00103 0.0
C2200 C 0.82394 0.64191 0.01668 0.0
C2201 C 0.81755 0.6511 0.03777 0.0
C2202 C 0.87224 0.60288 0.06303 0.0
C2203 C 0.84858 0.6238 0.03959 0.0
C2204 C 0.88757 0.58916 0.064 0.0
C2205 C 0.89586 0.58185 0.04336 0.0
C2206 C 0.86497 0.60929 0.04123 0.0
C2207 C 0.88824 0.58869 0.02192 0.0
C2208 C 0.83946 0.62834 0.01752 0.0
C2209 C 0.82717 0.64626 0.05946 0.0
N2210 N 0.8732 0.60196 0.0214 0.0
N2211 N 0.84213 0.63293 0.0598 0.0
H2212 H 0.14169 0.13603 0.80676 0.0
H2213 H 0.26824 0.20789 0.79972 0.0
H2214 H 0.19732 0.10413 0.80309 0.0
H2215 H 0.2083 0.23296 0.78751 0.0
H2216 H 0.2441 0.1711 0.80654 0.0
H2217 H 0.16763 0.17322 0.80577 0.0
C2218 C 0.15941 0.13684 0.80591 0.0
C2219 C 0.16726 0.11686 0.80479 0.0
C2220 C 0.23634 0.18475 0.80244 0.0
C2221 C 0.19717 0.15955 0.80353 0.0
C2222 C 0.25009 0.20573 0.7986 0.0
C2223 C 0.24027 0.22346 0.79281 0.0
C2224 C 0.21272 0.1817 0.80076 0.0
C2225 C 0.21665 0.21974 0.79163 0.0
C2226 C 0.17423 0.15812 0.80528 0.0
C2227 C 0.19049 0.11908 0.80384 0.0
N2228 N 0.20375 0.19935 0.79555 0.0
N2229 N 0.20462 0.14004 0.80311 0.0
H2230 H 0.30994 0.97469 0.31934 0.0
H2231 H 0.33015 0.85183 0.27413 0.0
H2232 H 0.36962 0.96511 0.2905 0.0
H2233 H 0.26761 0.8603 0.29707 0.0
H2234 H 0.34567 0.89344 0.28248 0.0
H2235 H 0.29494 0.93278 0.31398 0.0
C2236 C 0.31993 0.96379 0.31203 0.0
C2237 C 0.34098 0.97337 0.30523 0.0
C2238 C 0.32854 0.88623 0.2857 0.0
C2239 C 0.32398 0.92561 0.29902 0.0
C2240 C 0.31967 0.86245 0.28092 0.0
C2241 C 0.29752 0.85261 0.28482 0.0
C2242 C 0.3152 0.90028 0.29447 0.0
C2243 C 0.28474 0.8672 0.29372 0.0
C2244 C 0.31135 0.9399 0.30891 0.0
C2245 C 0.35323 0.95848 0.29584 0.0
N2246 N 0.29377 0.89036 0.29823 0.0
N2247 N 0.34452 0.93536 0.29297 0.0
H2248 H 0.57584 0.37492 0.59113 0.0
H2249 H 0.50326 0.44671 0.51787 0.0
H2250 H 0.50657 0.34769 0.5567 0.0
H2251 H 0.56635 0.48034 0.56375 0.0
H2252 H 0.50663 0.40978 0.52904 0.0
H2253 H 0.57515 0.41256 0.57862 0.0
C2254 C 0.56058 0.37666 0.58076 0.0
C2255 C 0.54124 0.35777 0.57505 0.0
C2256 C 0.51984 0.42517 0.53668 0.0
C2257 C 0.54032 0.40116 0.56056 0.0
C2258 C 0.51796 0.44644 0.5302 0.0
C2259 C 0.5345 0.46707 0.53977 0.0
C2260 C 0.53853 0.42398 0.55287 0.0
C2261 C 0.55307 0.46512 0.55581 0.0
C2262 C 0.56015 0.39829 0.57372 0.0
C2263 C 0.52195 0.36149 0.5617 0.0
N2264 N 0.55458 0.44412 0.56178 0.0
N2265 N 0.52203 0.38245 0.55498 0.0
H2266 H 0.40299 0.77613 0.42865 0.0
H2267 H 0.34565 0.76148 0.29194 0.0
H2268 H 0.43566 0.75593 0.36979 0.0
H2269 H 0.31645 0.78556 0.352 0.0
H2270 H 0.37793 0.75784 0.31957 0.0
H2271 H 0.37066 0.77798 0.40051 0.0
C2272 C 0.40339 0.77196 0.40978 0.0
C2273 C 0.42228 0.76585 0.40173 0.0
C2274 C 0.36445 0.76391 0.32669 0.0
C2275 C 0.38485 0.76806 0.36902 0.0
C2276 C 0.34593 0.76598 0.3109 0.0
C2277 C 0.32815 0.77392 0.3195 0.0
C2278 C 0.36529 0.76972 0.35141 0.0
C2279 C 0.32966 0.77946 0.34436 0.0
C2280 C 0.38482 0.77308 0.39365 0.0
C2281 C 0.42156 0.76069 0.37694 0.0
N2282 N 0.34779 0.77725 0.35929 0.0
N2283 N 0.40324 0.76195 0.36152 0.0
H2284 H 0.08907 0.72983 0.06027 0.0
H2285 H 0.0058 0.60462 0.05823 0.0
H2286 H 0.0223 0.72054 0.08046 0.0
H2287 H 0.0664 0.6156 0.02515 0.0
H2288 H 0.01186 0.64648 0.06766 0.0
H2289 H 0.08134 0.68818 0.04839 0.0
C2290 C 0.07267 0.71909 0.06208 0.0
C2291 C 0.05633 0.729 0.07141 0.0
C2292 C 0.02381 0.63977 0.05829 0.0
C2293 C 0.04741 0.6806 0.05798 0.0
C2294 C 0.02042 0.61575 0.05293 0.0
C2295 C 0.03563 0.60626 0.04086 0.0
C2296 C 0.04273 0.65473 0.05183 0.0
C2297 C 0.05416 0.62187 0.03444 0.0
C2298 C 0.06827 0.69517 0.05527 0.0
C2299 C 0.03541 0.71388 0.07326 0.0
N2300 N 0.05722 0.64515 0.04009 0.0
N2301 N 0.03165 0.69056 0.06682 0.0
H2302 H 0.03987 0.2256 0.87754 0.0
H2303 H 0.13881 0.3234 0.84199 0.0
H2304 H 0.0507 0.29817 0.90233 0.0
H2305 H 0.13099 0.25052 0.82217 0.0
H2306 H 0.10619 0.31466 0.8633 0.0
H2307 H 0.07264 0.23452 0.85654 0.0
C2308 C 0.0491 0.24344 0.87859 0.0
C2309 C 0.04239 0.26114 0.8918 0.0
C2310 C 0.11161 0.30056 0.85432 0.0
C2311 C 0.08018 0.27153 0.86759 0.0
C2312 C 0.13021 0.30554 0.84199 0.0
C2313 C 0.13778 0.2877 0.83012 0.0
C2314 C 0.10026 0.27753 0.85481 0.0
C2315 C 0.12604 0.26489 0.83121 0.0
C2316 C 0.06789 0.24852 0.86657 0.0
C2317 C 0.05517 0.28392 0.89243 0.0
N2318 N 0.10791 0.2605 0.84321 0.0
N2319 N 0.07336 0.28844 0.8805 0.0
H2320 H 0.51751 0.74566 0.88837 0.0
H2321 H 0.564 0.69524 0.00231 0.0
H2322 H 0.5806 0.77855 0.93469 0.0
H2323 H 0.50572 0.65728 0.95125 0.0
H2324 H 0.56923 0.72658 0.97857 0.0
H2325 H 0.51186 0.71387 0.9118 0.0
C2326 C 0.53018 0.74624 0.90344 0.0
C2327 C 0.54959 0.76489 0.90948 0.0
C2328 C 0.55529 0.7114 0.9725 0.0
C2329 C 0.54317 0.72848 0.9365 0.0
C2330 C 0.5522 0.69351 0.98616 0.0
C2331 C 0.53433 0.67351 0.97889 0.0
C2332 C 0.54035 0.70952 0.95135 0.0
C2333 C 0.51986 0.67222 0.95751 0.0
C2334 C 0.52695 0.72804 0.91681 0.0
C2335 C 0.56539 0.76459 0.92926 0.0
N2336 N 0.52313 0.68997 0.94458 0.0
N2337 N 0.56181 0.74678 0.94202 0.0
H2338 H 0.07957 0.74598 0.75155 0.0
H2339 H 0.20925 0.78958 0.72744 0.0
H2340 H 0.10002 0.77823 0.6916 0.0
H2341 H 0.19257 0.74847 0.78257 0.0
H2342 H 0.16911 0.78737 0.71657 0.0
H2343 H 0.12004 0.74866 0.76571 0.0
C2344 C 0.09244 0.75384 0.74149 0.0
C2345 C 0.08605 0.76185 0.72023 0.0
C2346 C 0.17406 0.77875 0.73105 0.0
C2347 C 0.13264 0.76492 0.73635 0.0
C2348 C 0.1972 0.77999 0.73733 0.0
C2349 C 0.20472 0.7691 0.75597 0.0
C2350 C 0.15772 0.76659 0.74344 0.0
C2351 C 0.18782 0.75708 0.768 0.0
C2352 C 0.1156 0.75523 0.74951 0.0
C2353 C 0.10376 0.77166 0.70798 0.0
N2354 N 0.16527 0.75617 0.76158 0.0
N2355 N 0.12588 0.77289 0.71614 0.0
H2356 H 0.06499 0.37042 0.42564 0.0
H2357 H 0.0176 0.48291 0.45067 0.0
H2358 H 0.02701 0.39691 0.37233 0.0
H2359 H 0.05878 0.46121 0.50531 0.0
H2360 H 0.02108 0.45106 0.42225 0.0
H2361 H 0.06338 0.40291 0.45528 0.0
C2362 C 0.05644 0.38306 0.42008 0.0
C2363 C 0.04614 0.38076 0.39629 0.0
C2364 C 0.02941 0.45317 0.44043 0.0
C2365 C 0.04407 0.41802 0.43029 0.0
C2366 C 0.0274 0.47147 0.45679 0.0
C2367 C 0.03789 0.47497 0.48062 0.0
C2368 C 0.04196 0.43788 0.44768 0.0
C2369 C 0.05036 0.45932 0.4872 0.0
C2370 C 0.05548 0.40161 0.43706 0.0
C2371 C 0.03522 0.39776 0.39033 0.0
N2372 N 0.05201 0.4415 0.4709 0.0
N2373 N 0.03446 0.41545 0.40709 0.0
H2374 H 0.46781 0.27983 0.24621 0.0
H2375 H 0.33188 0.23292 0.2445 0.0
H2376 H 0.42635 0.21796 0.20191 0.0
H2377 H 0.36953 0.30162 0.27666 0.0
H2378 H 0.36704 0.22572 0.23228 0.0
H2379 H 0.43331 0.28662 0.26104 0.0
C2380 C 0.45162 0.26751 0.23976 0.0
C2381 C 0.45035 0.24823 0.22264 0.0
C2382 C 0.36768 0.24238 0.24209 0.0
C2383 C 0.4103 0.25596 0.23973 0.0
C2384 C 0.34748 0.2465 0.24918 0.0
C2385 C 0.34733 0.26799 0.26172 0.0
C2386 C 0.38835 0.2597 0.24767 0.0
C2387 C 0.36845 0.28478 0.26702 0.0
C2388 C 0.43179 0.27148 0.24816 0.0
C2389 C 0.42852 0.23312 0.21498 0.0
N2390 N 0.38786 0.2803 0.26009 0.0
N2391 N 0.40967 0.23724 0.2235 0.0
H2392 H 0.62464 0.54042 0.36896 0.0
H2393 H 0.51648 0.52485 0.43789 0.0
H2394 H 0.55555 0.52809 0.33437 0.0
H2395 H 0.58466 0.53372 0.4736 0.0
H2396 H 0.53085 0.52594 0.4 0.0
H2397 H 0.61078 0.53815 0.40734 0.0
C2398 C 0.60656 0.53724 0.36938 0.0
C2399 C 0.59127 0.53447 0.34827 0.0
C2400 C 0.54273 0.5276 0.41607 0.0
C2401 C 0.57526 0.53184 0.39233 0.0
C2402 C 0.53451 0.52697 0.43782 0.0
C2403 C 0.54935 0.52921 0.45914 0.0
C2404 C 0.56606 0.53059 0.41537 0.0
C2405 C 0.57255 0.53188 0.45769 0.0
C2406 C 0.59866 0.53591 0.39135 0.0
C2407 C 0.56803 0.53036 0.35006 0.0
N2408 N 0.58018 0.53256 0.43623 0.0
N2409 N 0.56079 0.52921 0.37161 0.0
H2410 H 0.30633 0.89702 0.06029 0.0
H2411 H 0.25303 0.78076 0.10836 0.0
H2412 H 0.23985 0.85328 0.03058 0.0
H2413 H 0.32265 0.8208 0.12834 0.0
H2414 H 0.2478 0.80557 0.07842 0.0
H2415 H 0.31232 0.86826 0.08475 0.0
C2416 C 0.29291 0.88137 0.05897 0.0
C2417 C 0.27248 0.8776 0.04346 0.0
C2418 C 0.26429 0.80864 0.08913 0.0
C2419 C 0.27932 0.84441 0.07145 0.0
C2420 C 0.26729 0.79451 0.10621 0.0
C2421 C 0.28827 0.79877 0.12099 0.0
C2422 C 0.28236 0.82722 0.08703 0.0
C2423 C 0.30624 0.81665 0.11725 0.0
C2424 C 0.29642 0.86485 0.07286 0.0
C2425 C 0.25581 0.8569 0.04239 0.0
N2426 N 0.30278 0.83034 0.10086 0.0
N2427 N 0.25955 0.84108 0.05633 0.0
H2428 H 0.91147 0.55743 0.86638 0.0
H2429 H 0.0158 0.52454 0.93875 0.0
H2430 H 0.94526 0.50771 0.83761 0.0
H2431 H 0.9714 0.55978 0.97229 0.0
H2432 H 0.99429 0.52425 0.89997 0.0
H2433 H 0.93732 0.56401 0.904 0.0
C2434 C 0.92437 0.54798 0.86795 0.0
C2435 C 0.92609 0.53183 0.84898 0.0
C2436 C 0.98938 0.53218 0.91583 0.0
C2437 C 0.95571 0.53939 0.89169 0.0
C2438 C 0.0017 0.53244 0.93796 0.0
C2439 C 0.99521 0.54195 0.95879 0.0
C2440 C 0.97053 0.54159 0.91455 0.0
C2441 C 0.97683 0.55202 0.95669 0.0
C2442 C 0.93908 0.55173 0.88938 0.0
C2443 C 0.94316 0.52013 0.85189 0.0
N2444 N 0.96504 0.55146 0.93494 0.0
N2445 N 0.95728 0.52412 0.87287 0.0
H2446 H 0.29466 0.22464 0.59064 0.0
H2447 H 0.23733 0.28052 0.69404 0.0
H2448 H 0.22636 0.23253 0.57864 0.0
H2449 H 0.29697 0.255 0.70632 0.0
H2450 H 0.23502 0.26822 0.65098 0.0
H2451 H 0.29798 0.24142 0.63233 0.0
C2452 C 0.28043 0.23011 0.59668 0.0
C2453 C 0.26015 0.22701 0.58106 0.0
C2454 C 0.24861 0.2654 0.66318 0.0
C2455 C 0.26382 0.24623 0.62901 0.0
C2456 C 0.24995 0.27245 0.68773 0.0
C2457 C 0.26722 0.26861 0.70389 0.0
C2458 C 0.26485 0.25477 0.65477 0.0
C2459 C 0.28316 0.25809 0.69465 0.0
C2460 C 0.28229 0.2396 0.62056 0.0
C2461 C 0.24228 0.23446 0.59004 0.0
N2462 N 0.28159 0.25161 0.67082 0.0
N2463 N 0.2445 0.24365 0.6134 0.0
H2464 H 0.6045 0.56574 0.22829 0.0
H2465 H 0.53142 0.49855 0.10363 0.0
H2466 H 0.57744 0.49199 0.21216 0.0
H2467 H 0.56635 0.57075 0.11347 0.0
H2468 H 0.5449 0.49727 0.14494 0.0
H2469 H 0.58766 0.56917 0.1882 0.0
C2470 C 0.59485 0.55028 0.21645 0.0
C2471 C 0.59247 0.52851 0.22368 0.0
C2472 C 0.54963 0.51346 0.1382 0.0
C2473 C 0.57315 0.53236 0.17771 0.0
C2474 C 0.54191 0.51423 0.11446 0.0
C2475 C 0.54793 0.53476 0.10479 0.0
C2476 C 0.56353 0.53336 0.15272 0.0
C2477 C 0.56131 0.55452 0.12007 0.0
C2478 C 0.58532 0.55227 0.19351 0.0
C2479 C 0.57984 0.50913 0.20745 0.0
N2480 N 0.56876 0.55331 0.14323 0.0
N2481 N 0.57074 0.51152 0.18534 0.0
H2482 H 0.25905 0.90154 0.92972 0.0
H2483 H 0.28553 0.78964 0.86182 0.0
H2484 H 0.30327 0.86388 0.96144 0.0
H2485 H 0.25386 0.83548 0.82606 0.0
H2486 H 0.28678 0.81332 0.89988 0.0
H2487 H 0.252 0.87423 0.89276 0.0
C2488 C 0.2672 0.88749 0.92893 0.0
C2489 C 0.28193 0.88507 0.94856 0.0
C2490 C 0.27944 0.8181 0.8837 0.0
C2491 C 0.27385 0.85382 0.90656 0.0
C2492 C 0.27864 0.80455 0.86198 0.0
C2493 C 0.2698 0.81074 0.84073 0.0
C2494 C 0.27127 0.83791 0.88415 0.0
C2495 C 0.26103 0.83019 0.84201 0.0
C2496 C 0.26318 0.87195 0.90786 0.0
C2497 C 0.29197 0.86653 0.94665 0.0
N2498 N 0.2621 0.84318 0.86337 0.0
N2499 N 0.28778 0.85163 0.92599 0.0
H2500 H 0.96661 0.56186 0.76816 0.0
H2501 H 0.97821 0.46893 0.66159 0.0
H2502 H 0.91286 0.50251 0.73447 0.0
H2503 H 0.02943 0.53253 0.68749 0.0
H2504 H 0.95652 0.47834 0.6928 0.0
H2505 H 0.99202 0.54927 0.74245 0.0
C2506 C 0.96015 0.54624 0.75536 0.0
C2507 C 0.93755 0.53333 0.75331 0.0
C2508 C 0.97262 0.49014 0.69183 0.0
C2509 C 0.96647 0.51873 0.72419 0.0
C2510 C 0.985 0.48474 0.67407 0.0
C2511 C 0.00548 0.50009 0.67184 0.0
C2512 C 0.98072 0.51112 0.70739 0.0
C2513 C 0.01373 0.52018 0.68866 0.0
C2514 C 0.97466 0.53902 0.74078 0.0
C2515 C 0.9301 0.51313 0.73657 0.0
N2516 N 0.00116 0.52528 0.70559 0.0
N2517 N 0.94451 0.50649 0.72265 0.0
H2518 H 0.25179 0.20268 0.44371 0.0
H2519 H 0.32419 0.27755 0.35902 0.0
H2520 H 0.32275 0.23815 0.46336 0.0
H2521 H 0.25772 0.23158 0.33444 0.0
H2522 H 0.32338 0.26457 0.39785 0.0
H2523 H 0.25281 0.21477 0.40436 0.0
C2524 C 0.26755 0.2131 0.43983 0.0
C2525 C 0.28721 0.21939 0.45696 0.0
C2526 C 0.30901 0.25723 0.38393 0.0
C2527 C 0.28851 0.23327 0.41183 0.0
C2528 C 0.30947 0.26462 0.36169 0.0
C2529 C 0.291 0.25568 0.34332 0.0
C2530 C 0.28984 0.2409 0.38805 0.0
C2531 C 0.27239 0.23895 0.34798 0.0
C2532 C 0.26815 0.21991 0.4173 0.0
C2533 C 0.30717 0.23284 0.45079 0.0
N2534 N 0.27224 0.23223 0.36987 0.0
N2535 N 0.30728 0.23935 0.42882 0.0
H2536 H 0.31226 0.58595 0.52032 0.0
H2537 H 0.39691 0.55788 0.43418 0.0
H2538 H 0.32604 0.62298 0.46145 0.0
H2539 H 0.36652 0.51187 0.48044 0.0
H2540 H 0.36965 0.58075 0.4413 0.0
H2541 H 0.33126 0.55785 0.50432 0.0
C2542 C 0.31931 0.58817 0.50399 0.0
C2543 C 0.31781 0.60695 0.49232 0.0
C2544 C 0.36868 0.56534 0.44943 0.0
C2545 C 0.33963 0.57478 0.47383 0.0
C2546 C 0.38422 0.5523 0.44539 0.0
C2547 C 0.38422 0.53308 0.45696 0.0
C2548 C 0.35328 0.5592 0.46534 0.0
C2549 C 0.3672 0.52645 0.47103 0.0
C2550 C 0.33 0.57199 0.49473 0.0
C2551 C 0.32697 0.60878 0.47105 0.0
N2552 N 0.3527 0.53971 0.47514 0.0
N2553 N 0.33778 0.59302 0.4626 0.0
H2554 H 0.8643 0.91107 0.53708 0.0
H2555 H 0.95626 0.03322 0.55586 0.0
H2556 H 0.84939 0.97517 0.56249 0.0
H2557 H 0.96798 0.96861 0.52661 0.0
H2558 H 0.91763 0.01259 0.56005 0.0
H2559 H 0.90295 0.93218 0.53488 0.0
C2560 C 0.86915 0.92961 0.54227 0.0
C2561 C 0.8535 0.94135 0.54994 0.0
C2562 C 0.92871 0.00299 0.55273 0.0
C2563 C 0.89796 0.96575 0.54739 0.0
C2564 C 0.95077 0.01474 0.55034 0.0
C2565 C 0.96543 0.00268 0.54078 0.0
C2566 C 0.9213 0.97901 0.54557 0.0
C2567 C 0.95734 0.97872 0.53396 0.0
C2568 C 0.89128 0.94168 0.54097 0.0
C2569 C 0.86087 0.9654 0.55644 0.0
N2570 N 0.9359 0.96774 0.53649 0.0
N2571 N 0.88256 0.97682 0.55499 0.0
H2572 H 0.90299 0.08609 0.25768 0.0
H2573 H 0.82469 0.14466 0.33476 0.0
H2574 H 0.88347 0.06553 0.32354 0.0
H2575 H 0.84245 0.1644 0.26801 0.0
H2576 H 0.84666 0.116 0.33115 0.0
H2577 H 0.88165 0.11543 0.26146 0.0
C2578 C 0.89426 0.08775 0.27295 0.0
C2579 C 0.89503 0.07326 0.2903 0.0
C2580 C 0.84579 0.12661 0.3173 0.0
C2581 C 0.87053 0.10685 0.29473 0.0
C2582 C 0.83311 0.14292 0.31928 0.0
C2583 C 0.83163 0.15701 0.30166 0.0
C2584 C 0.85711 0.12426 0.29752 0.0
C2585 C 0.8433 0.15417 0.28221 0.0
C2586 C 0.88207 0.10451 0.27509 0.0
C2587 C 0.88337 0.07625 0.3097 0.0
N2588 N 0.85548 0.13812 0.28065 0.0
N2589 N 0.87163 0.09265 0.31136 0.0
H2590 H 0.73241 0.08711 0.07973 0.0
H2591 H 0.61037 0.05998 -0.00031 0.0
H2592 H 0.72063 0.11248 0.0132 0.0
H2593 H 0.62046 0.04793 0.07261 0.0
H2594 H 0.65148 0.07433 0.00197 0.0
H2595 H 0.69198 0.06763 0.07494 0.0
C2596 C 0.72136 0.08846 0.06405 0.0
C2597 C 0.72984 0.10159 0.04695 0.0
C2598 C 0.64466 0.06845 0.01742 0.0
C2599 C 0.68368 0.07937 0.04135 0.0
C2600 C 0.62122 0.06022 0.01612 0.0
C2601 C 0.61197 0.05295 0.03606 0.0
C2602 C 0.65892 0.06927 0.03876 0.0
C2603 C 0.62684 0.05357 0.05687 0.0
C2604 C 0.69829 0.07739 0.06136 0.0
C2605 C 0.71477 0.1027 0.02694 0.0
N2606 N 0.64958 0.06167 0.0577 0.0
N2607 N 0.6924 0.09179 0.02473 0.0
H2608 H 0.2245 0.48576 0.24936 0.0
H2609 H 0.29041 0.4348 0.34584 0.0
H2610 H 0.22598 0.50732 0.32438 0.0
H2611 H 0.31113 0.44098 0.27678 0.0
H2612 H 0.26742 0.46189 0.33933 0.0
H2613 H 0.25571 0.46822 0.25916 0.0
C2614 C 0.23138 0.48675 0.26789 0.0
C2615 C 0.22257 0.49779 0.28611 0.0
C2616 C 0.27736 0.45764 0.32582 0.0
C2617 C 0.2582 0.47791 0.29741 0.0
C2618 C 0.29066 0.44232 0.32959 0.0
C2619 C 0.30237 0.43524 0.31161 0.0
C2620 C 0.2755 0.46558 0.3038 0.0
C2621 C 0.30184 0.44544 0.29083 0.0
C2622 C 0.24933 0.47698 0.27346 0.0
C2623 C 0.23226 0.49886 0.30981 0.0
N2624 N 0.28819 0.45973 0.28726 0.0
N2625 N 0.24942 0.48878 0.31483 0.0
H2626 H 0.25775 0.44662 0.04123 0.0
H2627 H 0.12754 0.45065 0.01548 0.0
H2628 H 0.20104 0.38632 0.02882 0.0
H2629 H 0.18392 0.51117 0.02665 0.0
H2630 H 0.15428 0.427 0.0212 0.0
H2631 H 0.23111 0.47068 0.03671 0.0
C2632 C 0.2397 0.43843 0.0376 0.0
C2633 C 0.23165 0.41438 0.03537 0.0
C2634 C 0.16083 0.44545 0.02243 0.0
C2635 C 0.20102 0.44186 0.03015 0.0
C2636 C 0.14554 0.45901 0.0193 0.0
C2637 C 0.15344 0.48299 0.02062 0.0
C2638 C 0.18429 0.45587 0.02695 0.0
C2639 C 0.17703 0.49275 0.02519 0.0
C2640 C 0.22449 0.45219 0.035 0.0
C2641 C 0.20806 0.40476 0.03067 0.0
N2642 N 0.19159 0.47917 0.02821 0.0
N2643 N 0.19362 0.41851 0.0282 0.0
H2644 H 0.8731 0.972 0.27937 0.0
H2645 H 0.83673 0.8348 0.24348 0.0
H2646 H 0.90645 0.934 0.23276 0.0
H2647 H 0.79935 0.87172 0.28609 0.0
H2648 H 0.86168 0.8713 0.23876 0.0
H2649 H 0.84537 0.93594 0.28151 0.0
C2650 C 0.87456 0.95611 0.26951 0.0
C2651 C 0.89222 0.95606 0.25592 0.0
C2652 C 0.84798 0.87151 0.24906 0.0
C2653 C 0.86053 0.91471 0.25835 0.0
C2654 C 0.83367 0.8506 0.25179 0.0
C2655 C 0.8159 0.85012 0.26531 0.0
C2656 C 0.84471 0.89226 0.26001 0.0
C2657 C 0.8128 0.87124 0.27551 0.0
C2658 C 0.8587 0.93553 0.27074 0.0
C2659 C 0.8932 0.93493 0.24351 0.0
N2660 N 0.82716 0.89147 0.27278 0.0
N2661 N 0.87767 0.91516 0.2451 0.0
H2662 H 0.66486 0.09697 0.78824 0.0
H2663 H 0.75281 0.19446 0.74043 0.0
H2664 H 0.70896 0.08302 0.73789 0.0
H2665 H 0.7251 0.20816 0.80506 0.0
H2666 H 0.73422 0.15375 0.73755 0.0
H2667 H 0.68399 0.13813 0.79285 0.0
C2668 C 0.67848 0.10256 0.7781 0.0
C2669 C 0.68533 0.08659 0.76263 0.0
C2670 C 0.73226 0.1656 0.75244 0.0
C2671 C 0.70715 0.1334 0.76782 0.0
C2672 C 0.74283 0.18888 0.75408 0.0
C2673 C 0.74044 0.20471 0.773 0.0
C2674 C 0.71896 0.15803 0.7697 0.0
C2675 C 0.72741 0.19647 0.79023 0.0
C2676 C 0.68945 0.126 0.78085 0.0
C2677 C 0.70314 0.09472 0.75004 0.0
N2678 N 0.71698 0.17362 0.78808 0.0
N2679 N 0.71336 0.11756 0.75285 0.0
loop_
_geom_bond_atom_site_label_1
_geom_bond_atom_site_label_2
_geom_bond_distance
_geom_bond_site_symmetry_2
_ccdc_geom_bond_type
C0 O1 1.160 . S
C0 O7 1.185 . S
O1 C0 1.160 . S
O2 Zn3 1.899 . S
O2 C10 1.284 . S
Zn3 O2 1.899 . S
Zn3 O4 2.032 . S
Zn3 O7 2.086 . S
Zn3 O12 1.977 . S
O4 Zn3 2.032 . S
O4 C8 1.278 . S
C5 O6 1.203 . S
C5 O12 1.267 1_655 S
O6 C5 1.203 . S
O7 C0 1.185 . S
O7 Zn3 2.086 . S
C8 O4 1.278 . S
C8 O9 1.211 . S
O9 C8 1.211 . S
C10 O2 1.284 . S
C10 O11 1.273 . S
O11 C10 1.273 . S
O12 Zn3 1.977 . S
O12 C5 1.267 1_455 S
C13 O14 1.160 . S
C13 O20 1.173 1_655 S
O14 C13 1.160 . S
O15 Zn16 1.899 . S
O15 C23 1.284 . S
Zn16 O15 1.899 . S
Zn16 O17 2.032 . S
Zn16 O20 2.096 . S
Zn16 O25 1.977 . S
O17 Zn16 2.032 . S
O17 C21 1.278 . S
C18 O19 1.203 . S
C18 O25 1.267 . S
O19 C18 1.203 . S
O20 C13 1.173 1_455 S
O20 Zn16 2.096 . S
C21 O17 1.278 . S
C21 O22 1.211 . S
O22 C21 1.211 . S
C23 O15 1.284 . S
C23 O24 1.273 . S
O24 C23 1.273 . S
O25 Zn16 1.977 . S
O25 C18 1.267 . S
C26 O27 1.160 . S
C26 O33 1.185 . S
O27 C26 1.160 . S
O28 Zn29 1.899 . S
O28 C36 1.284 . S
Zn29 O28 1.899 . S
Zn29 O30 2.032 . S
Zn29 O33 2.086 . S
Zn29 O38 1.977 . S
O30 Zn29 2.032 . S
O30 C34 1.278 . S
C31 O32 1.203 . S
C31 O38 1.267 . S
O32 C31 1.203 . S
O33 C26 1.185 . S
O33 Zn29 2.086 . S
C34 O30 1.278 . S
C34 O35 1.211 . S
O35 C34 1.211 . S
C36 O28 1.284 . S
C36 O37 1.273 . S
O37 C36 1.273 . S
O38 Zn29 1.977 . S
O38 C31 1.267 . S
C39 O40 1.160 . S
C39 O46 1.185 . S
O40 C39 1.160 . S
O41 Zn42 1.899 . S
O41 C49 1.284 . S
Zn42 O41 1.899 . S
Zn42 O43 2.032 . S
Zn42 O46 2.086 . S
Zn42 O51 1.977 . S
O43 Zn42 2.032 . S
O43 C47 1.278 . S
C44 O45 1.203 . S
C44 O51 1.267 . S
O45 C44 1.203 . S
O46 C39 1.185 . S
O46 Zn42 2.086 . S
C47 O43 1.278 . S
C47 O48 1.211 . S
O48 C47 1.211 . S
C49 O41 1.284 . S
C49 O50 1.273 . S
O50 C49 1.273 . S
O51 Zn42 1.977 . S
O51 C44 1.267 . S
C52 O53 1.160 . S
C52 O59 1.185 . S
O53 C52 1.160 . S
O54 Zn55 1.899 . S
O54 C62 1.284 . S
Zn55 O54 1.899 . S
Zn55 O56 2.032 . S
Zn55 O59 2.086 . S
Zn55 O64 1.977 . S
O56 Zn55 2.032 . S
O56 C60 1.278 . S
C57 O58 1.203 . S
C57 O64 1.267 . S
O58 C57 1.203 . S
O59 C52 1.185 . S
O59 Zn55 2.086 . S
C60 O56 1.278 . S
C60 O61 1.211 . S
O61 C60 1.211 . S
C62 O54 1.284 . S
C62 O63 1.273 . S
O63 C62 1.273 . S
O64 Zn55 1.977 . S
O64 C57 1.267 . S
C65 O66 1.160 . S
C65 O72 1.185 . S
O66 C65 1.160 . S
O67 Zn68 1.899 . S
O67 C75 1.284 . S
Zn68 O67 1.899 . S
Zn68 O69 2.032 . S
Zn68 O72 2.086 . S
Zn68 O77 1.977 . S
O69 Zn68 2.032 . S
O69 C73 1.278 . S
C70 O71 1.203 . S
C70 O77 1.267 . S
O71 C70 1.203 . S
O72 C65 1.185 . S
O72 Zn68 2.086 . S
C73 O69 1.278 . S
C73 O74 1.211 . S
O74 C73 1.211 . S
C75 O67 1.284 . S
C75 O76 1.273 . S
O76 C75 1.273 . S
O77 Zn68 1.977 . S
O77 C70 1.267 . S
C78 O79 1.160 . S
C78 O85 1.185 . S
O79 C78 1.160 . S
O80 Zn81 1.899 . S
O80 C88 1.284 . S
Zn81 O80 1.899 . S
Zn81 O82 2.032 . S
Zn81 O85 2.086 . S
Zn81 O90 1.977 . S
O82 Zn81 2.032 . S
O82 C86 1.278 . S
C83 O84 1.203 . S
C83 O90 1.267 . S
O84 C83 1.203 . S
O85 C78 1.185 . S
O85 Zn81 2.086 . S
C86 O82 1.278 . S
C86 O87 1.211 . S
O87 C86 1.211 . S
C88 O80 1.284 . S
C88 O89 1.273 . S
O89 C88 1.273 . S
O90 Zn81 1.977 . S
O90 C83 1.267 . S
C91 O92 1.160 . S
C91 O98 1.185 . S
O92 C91 1.160 . S
O93 Zn94 1.899 1_655 S
O93 C101 1.284 . S
Zn94 O93 1.899 1_455 S
Zn94 O95 2.032 . S
Zn94 O98 2.086 . S
Zn94 O103 1.977 1_455 S
O95 Zn94 2.032 . S
O95 C99 1.278 . S
C96 O97 1.203 . S
C96 O103 1.267 . S
O97 C96 1.203 . S
O98 C91 1.185 . S
O98 Zn94 2.086 . S
C99 O95 1.278 . S
C99 O100 1.211 1_455 S
O100 C99 1.211 1_655 S
C101 O93 1.284 . S
C101 O102 1.273 1_556 S
O102 C101 1.273 1_554 S
O103 Zn94 1.977 1_655 S
O103 C96 1.267 . S
C104 O105 1.160 . S
C104 O111 1.185 . S
O105 C104 1.160 . S
O106 Zn107 1.902 . S
O106 C114 1.292 . S
Zn107 O106 1.902 . S
Zn107 O108 2.039 . S
Zn107 O111 2.122 . S
Zn107 O116 1.945 1_545 S
O108 Zn107 2.039 . S
O108 C112 1.278 . S
C109 O110 1.203 . S
C109 O116 1.267 . S
O110 C109 1.203 . S
O111 C104 1.185 . S
O111 Zn107 2.122 . S
C112 O108 1.278 . S
C112 O113 1.211 1_545 S
O113 C112 1.211 1_565 S
C114 O106 1.292 . S
C114 O115 1.263 1_545 S
O115 C114 1.263 1_565 S
O116 Zn107 1.945 1_565 S
O116 C109 1.267 . S
C117 O118 1.160 . S
C117 O124 1.185 . S
O118 C117 1.160 . S
O119 Zn120 1.899 . S
O119 C127 1.284 . S
Zn120 O119 1.899 . S
Zn120 O121 2.032 . S
Zn120 O124 2.086 . S
Zn120 O129 1.977 . S
O121 Zn120 2.032 . S
O121 C125 1.278 . S
C122 O123 1.203 . S
C122 O129 1.267 . S
O123 C122 1.203 . S
O124 C117 1.185 . S
O124 Zn120 2.086 . S
C125 O121 1.278 . S
C125 O126 1.211 . S
O126 C125 1.211 . S
C127 O119 1.284 . S
C127 O128 1.273 . S
O128 C127 1.273 . S
O129 Zn120 1.977 . S
O129 C122 1.267 . S
C130 O131 1.161 . S
C130 O137 1.185 . S
O131 C130 1.161 . S
O132 Zn133 1.899 . S
O132 C140 1.284 . S
Zn133 O132 1.899 . S
Zn133 O134 2.032 . S
Zn133 O137 2.086 . S
Zn133 O142 1.977 . S
O134 Zn133 2.032 . S
O134 C138 1.278 . S
C135 O136 1.203 . S
C135 O142 1.267 . S
O136 C135 1.203 . S
O137 C130 1.185 . S
O137 Zn133 2.086 . S
C138 O134 1.278 . S
C138 O139 1.211 . S
O139 C138 1.211 . S
C140 O132 1.284 . S
C140 O141 1.273 . S
O141 C140 1.273 . S
O142 Zn133 1.977 . S
O142 C135 1.267 . S
C143 O144 1.160 . S
C143 O150 1.185 1_554 S
O144 C143 1.160 . S
O145 Zn146 1.899 . S
O145 C153 1.284 . S
Zn146 O145 1.899 . S
Zn146 O147 2.032 1_554 S
Zn146 O150 2.086 1_554 S
Zn146 O155 1.977 . S
O147 Zn146 2.032 1_556 S
O147 C151 1.278 . S
C148 O149 1.203 . S
C148 O155 1.267 . S
O149 C148 1.203 . S
O150 C143 1.185 1_556 S
O150 Zn146 2.086 1_556 S
C151 O147 1.278 . S
C151 O152 1.211 . S
O152 C151 1.211 . S
C153 O145 1.284 . S
C153 O154 1.273 . S
O154 C153 1.273 . S
O155 Zn146 1.977 . S
O155 C148 1.267 . S
C156 O157 1.160 . S
C156 O163 1.185 . S
O157 C156 1.160 . S
O158 Zn159 1.899 . S
O158 C166 1.284 . S
Zn159 O158 1.899 . S
Zn159 O160 2.032 . S
Zn159 O163 2.086 . S
Zn159 O168 1.977 . S
O160 Zn159 2.032 . S
O160 C164 1.278 1_554 S
C161 O162 1.203 . S
C161 O168 1.267 . S
O162 C161 1.203 . S
O163 C156 1.185 . S
O163 Zn159 2.086 . S
C164 O160 1.278 1_556 S
C164 O165 1.209 1_556 S
O165 C164 1.209 1_554 S
C166 O158 1.284 . S
C166 O167 1.273 . S
O167 C166 1.273 . S
O168 Zn159 1.977 . S
O168 C161 1.267 . S
C169 O170 1.160 . S
C169 O176 1.185 . S
O170 C169 1.160 . S
O171 Zn172 1.899 . S
O171 C179 1.284 . S
Zn172 O171 1.899 . S
Zn172 O173 2.032 . S
Zn172 O176 2.086 . S
Zn172 O181 1.977 . S
O173 Zn172 2.032 . S
O173 C177 1.278 . S
C174 O175 1.203 . S
C174 O181 1.267 . S
O175 C174 1.203 . S
O176 C169 1.185 . S
O176 Zn172 2.086 . S
C177 O173 1.278 . S
C177 O178 1.211 . S
O178 C177 1.211 . S
C179 O171 1.284 . S
C179 O180 1.273 . S
O180 C179 1.273 . S
O181 Zn172 1.977 . S
O181 C174 1.267 . S
C182 O183 1.160 . S
C182 O189 1.185 . S
O183 C182 1.160 . S
O184 Zn185 1.899 . S
O184 C192 1.284 . S
Zn185 O184 1.899 . S
Zn185 O186 2.032 . S
Zn185 O189 2.086 . S
Zn185 O194 1.977 . S
O186 Zn185 2.032 . S
O186 C190 1.278 . S
C187 O188 1.203 . S
C187 O194 1.267 . S
O188 C187 1.203 . S
O189 C182 1.185 . S
O189 Zn185 2.086 . S
C190 O186 1.278 . S
C190 O191 1.211 . S
O191 C190 1.211 . S
C192 O184 1.284 . S
C192 O193 1.273 . S
O193 C192 1.273 . S
O194 Zn185 1.977 . S
O194 C187 1.267 . S
C195 O196 1.160 . S
C195 O202 1.185 . S
O196 C195 1.160 . S
O197 Zn198 1.899 . S
O197 C205 1.284 . S
Zn198 O197 1.899 . S
Zn198 O199 2.032 . S
Zn198 O202 2.086 . S
Zn198 O207 1.977 . S
O199 Zn198 2.032 . S
O199 C203 1.278 . S
C200 O201 1.203 . S
C200 O207 1.267 . S
O201 C200 1.203 . S
O202 C195 1.185 . S
O202 Zn198 2.086 . S
C203 O199 1.278 . S
C203 O204 1.211 . S
O204 C203 1.211 . S
C205 O197 1.284 . S
C205 O206 1.273 . S
O206 C205 1.273 . S
O207 Zn198 1.977 . S
O207 C200 1.267 . S
C208 O209 1.160 . S
C208 O215 1.185 . S
O209 C208 1.160 . S
O210 Zn211 1.899 . S
O210 C218 1.284 . S
Zn211 O210 1.899 . S
Zn211 O212 2.032 . S
Zn211 O215 2.086 . S
Zn211 O220 1.977 . S
O212 Zn211 2.032 . S
O212 C216 1.278 . S
C213 O214 1.203 . S
C213 O220 1.267 1_565 S
O214 C213 1.203 . S
O215 C208 1.185 . S
O215 Zn211 2.086 . S
C216 O212 1.278 . S
C216 O217 1.211 . S
O217 C216 1.211 . S
C218 O210 1.284 . S
C218 O219 1.273 . S
O219 C218 1.273 . S
O220 Zn211 1.977 . S
O220 C213 1.267 1_545 S
C221 O222 1.160 . S
C221 O228 1.185 . S
O222 C221 1.160 . S
O223 Zn224 1.899 . S
O223 C231 1.284 . S
Zn224 O223 1.899 . S
Zn224 O225 2.032 . S
Zn224 O228 2.086 . S
Zn224 O233 1.977 . S
O225 Zn224 2.032 . S
O225 C229 1.278 . S
C226 O227 1.203 . S
C226 O233 1.267 . S
O227 C226 1.203 . S
O228 C221 1.185 . S
O228 Zn224 2.086 . S
C229 O225 1.278 . S
C229 O230 1.211 . S
O230 C229 1.211 . S
C231 O223 1.284 . S
C231 O232 1.273 . S
O232 C231 1.273 . S
O233 Zn224 1.977 . S
O233 C226 1.267 . S
C234 O235 1.160 . S
C234 O241 1.185 . S
O235 C234 1.160 . S
O236 Zn237 1.899 . S
O236 C244 1.284 . S
Zn237 O236 1.899 . S
Zn237 O238 2.032 . S
Zn237 O241 2.086 . S
Zn237 O246 1.977 . S
O238 Zn237 2.032 . S
O238 C242 1.278 . S
C239 O240 1.203 . S
C239 O246 1.267 . S
O240 C239 1.203 . S
O241 C234 1.185 . S
O241 Zn237 2.086 . S
C242 O238 1.278 . S
C242 O243 1.211 . S
O243 C242 1.211 . S
C244 O236 1.284 . S
C244 O245 1.273 . S
O245 C244 1.273 . S
O246 Zn237 1.977 . S
O246 C239 1.267 . S
C247 O248 1.160 . S
C247 O254 1.185 . S
O248 C247 1.160 . S
O249 Zn250 1.899 . S
O249 C257 1.284 . S
Zn250 O249 1.899 . S
Zn250 O251 2.032 . S
Zn250 O254 2.086 . S
Zn250 O259 1.977 . S
O251 Zn250 2.032 . S
O251 C255 1.278 . S
C252 O253 1.203 . S
C252 O259 1.267 . S
O253 C252 1.203 . S
O254 C247 1.185 . S
O254 Zn250 2.086 . S
C255 O251 1.278 . S
C255 O256 1.211 . S
O256 C255 1.211 . S
C257 O249 1.284 . S
C257 O258 1.273 . S
O258 C257 1.273 . S
O259 Zn250 1.977 . S
O259 C252 1.267 . S
C260 O261 1.160 . S
C260 O267 1.185 . S
O261 C260 1.160 . S
O262 Zn263 1.899 . S
O262 C270 1.284 . S
Zn263 O262 1.899 . S
Zn263 O264 2.032 . S
Zn263 O267 2.086 . S
Zn263 O272 1.977 . S
O264 Zn263 2.032 . S
O264 C268 1.278 1_554 S
C265 O266 1.203 . S
C265 O272 1.267 . S
O266 C265 1.203 . S
O267 C260 1.185 . S
O267 Zn263 2.086 . S
C268 O264 1.278 1_556 S
C268 O269 1.211 . S
O269 C268 1.211 . S
C270 O262 1.284 . S
C270 O271 1.273 . S
O271 C270 1.273 . S
O272 Zn263 1.977 . S
O272 C265 1.267 . S
C273 O274 1.160 . S
C273 O280 1.185 . S
O274 C273 1.160 . S
O275 Zn276 1.899 . S
O275 C283 1.284 . S
Zn276 O275 1.899 . S
Zn276 O277 2.032 . S
Zn276 O280 2.086 . S
Zn276 O285 1.977 . S
O277 Zn276 2.032 . S
O277 C281 1.278 . S
C278 O279 1.203 . S
C278 O285 1.267 . S
O279 C278 1.203 . S
O280 C273 1.185 . S
O280 Zn276 2.086 . S
C281 O277 1.278 . S
C281 O282 1.211 . S
O282 C281 1.211 . S
C283 O275 1.284 . S
C283 O284 1.273 . S
O284 C283 1.273 . S
O285 Zn276 1.977 . S
O285 C278 1.267 . S
C286 O287 1.160 . S
C286 O293 1.185 . S
O287 C286 1.160 . S
O288 Zn289 1.899 . S
O288 C296 1.284 . S
Zn289 O288 1.899 . S
Zn289 O290 2.032 . S
Zn289 O293 2.086 . S
Zn289 O298 1.977 . S
O290 Zn289 2.032 . S
O290 C294 1.278 . S
C291 O292 1.203 . S
C291 O298 1.267 . S
O292 C291 1.203 . S
O293 C286 1.185 . S
O293 Zn289 2.086 . S
C294 O290 1.278 . S
C294 O295 1.211 . S
O295 C294 1.211 . S
C296 O288 1.284 . S
C296 O297 1.273 . S
O297 C296 1.273 . S
O298 Zn289 1.977 . S
O298 C291 1.267 . S
C299 O300 1.160 . S
C299 O306 1.185 . S
O300 C299 1.160 . S
O301 Zn302 1.899 . S
O301 C309 1.284 . S
Zn302 O301 1.899 . S
Zn302 O303 2.032 . S
Zn302 O306 2.086 . S
Zn302 O311 1.977 . S
O303 Zn302 2.032 . S
O303 C307 1.278 . S
C304 O305 1.203 . S
C304 O311 1.267 . S
O305 C304 1.203 . S
O306 C299 1.185 . S
O306 Zn302 2.086 . S
C307 O303 1.278 . S
C307 O308 1.211 . S
O308 C307 1.211 . S
C309 O301 1.284 . S
C309 O310 1.273 . S
O310 C309 1.273 . S
O311 Zn302 1.977 . S
O311 C304 1.267 . S
Dy312 O315 2.307 . S
Dy312 O317 2.395 . S
Dy312 O318 2.379 . S
Dy312 O320 2.339 . S
Dy312 O322 2.298 . S
Dy312 O326 2.275 . S
Dy312 C334 2.738 . S
Dy313 O316 2.298 1_655 S
Dy313 O319 2.275 1_655 S
Dy313 O321 2.307 1_645 S
Dy313 O323 2.395 . S
Dy313 O324 2.379 1_554 S
Dy313 O327 2.339 1_654 S
Dy313 C343 2.738 . S
C314 O326 1.254 1_556 S
C314 O327 1.257 . S
O315 Dy312 2.307 . S
O315 C325 1.266 . S
O316 Dy313 2.298 1_455 S
O316 C325 1.236 . S
O317 Dy312 2.395 . S
O317 C334 1.255 . S
O318 Dy312 2.379 . S
O318 C334 1.249 . S
O319 Dy313 2.275 1_455 S
O319 C335 1.254 . S
O320 Dy312 2.339 . S
O320 C335 1.257 . S
O321 Dy313 2.307 1_465 S
O321 C336 1.266 . S
O322 Dy312 2.298 . S
O322 C336 1.236 1_545 S
O323 Dy313 2.395 . S
O323 C343 1.255 . S
O324 Dy313 2.379 1_556 S
O324 C343 1.249 1_556 S
C325 O315 1.266 . S
C325 O316 1.236 . S
O326 Dy312 2.275 . S
O326 C314 1.254 1_554 S
O327 Dy313 2.339 1_456 S
O327 C314 1.257 . S
C328 C331 1.344 . S
C328 C332 1.328 . S
C328 C334 1.516 . S
C329 C330 1.304 . S
C329 C333 1.323 . S
C330 C329 1.304 . S
C330 C331 1.371 . S
C330 H344 0.930 1_545 S
C331 C328 1.344 . S
C331 C330 1.371 . S
C331 H345 0.931 . S
C332 C328 1.328 . S
C332 C333 1.433 . S
C332 H346 0.931 . S
C333 C329 1.323 . S
C333 C332 1.433 . S
C333 H347 0.933 . S
C334 Dy312 2.738 . S
C334 O317 1.255 . S
C334 O318 1.249 . S
C334 C328 1.516 . S
C335 O319 1.254 . S
C335 O320 1.257 . S
C336 O321 1.266 . S
C336 O322 1.236 1_565 S
C337 C340 1.344 . S
C337 C341 1.328 1_554 S
C337 C343 1.516 . S
C338 C339 1.304 . S
C338 C342 1.323 1_554 S
C339 C338 1.304 . S
C339 C340 1.371 . S
C339 H348 0.930 . S
C340 C337 1.344 . S
C340 C339 1.371 . S
C340 H349 0.931 . S
C341 C337 1.328 1_556 S
C341 C342 1.433 . S
C341 H350 0.931 . S
C342 C338 1.323 1_556 S
C342 C341 1.433 . S
C342 H351 0.933 . S
C343 Dy313 2.738 . S
C343 O323 1.255 . S
C343 O324 1.249 1_554 S
C343 C337 1.516 . S
H344 C330 0.930 1_565 S
H345 C331 0.931 . S
H346 C332 0.931 . S
H347 C333 0.933 . S
H348 C339 0.930 . S
H349 C340 0.931 . S
H350 C341 0.931 . S
H351 C342 0.933 . S
Dy352 O355 2.307 . S
Dy352 O357 2.395 . S
Dy352 O358 2.379 . S
Dy352 O360 2.339 . S
Dy352 O362 2.298 . S
Dy352 O366 2.275 . S
Dy352 C374 2.738 . S
Dy353 O356 2.298 . S
Dy353 O359 2.275 . S
Dy353 O361 2.307 . S
Dy353 O363 2.395 . S
Dy353 O364 2.379 . S
Dy353 O367 2.339 . S
Dy353 C383 2.738 . S
C354 O366 1.254 . S
C354 O367 1.257 . S
O355 Dy352 2.307 . S
O355 C365 1.266 . S
O356 Dy353 2.298 . S
O356 C365 1.236 . S
O357 Dy352 2.395 . S
O357 C374 1.255 . S
O358 Dy352 2.379 . S
O358 C374 1.249 . S
O359 Dy353 2.275 . S
O359 C375 1.254 . S
O360 Dy352 2.339 . S
O360 C375 1.257 . S
O361 Dy353 2.307 . S
O361 C376 1.266 . S
O362 Dy352 2.298 . S
O362 C376 1.236 . S
O363 Dy353 2.395 . S
O363 C383 1.255 . S
O364 Dy353 2.379 . S
O364 C383 1.249 . S
C365 O355 1.266 . S
C365 O356 1.236 . S
O366 Dy352 2.275 . S
O366 C354 1.254 . S
O367 Dy353 2.339 . S
O367 C354 1.257 . S
C368 C371 1.344 . S
C368 C372 1.328 . S
C368 C374 1.516 . S
C369 C370 1.304 . S
C369 C373 1.323 . S
C370 C369 1.304 . S
C370 C371 1.371 . S
C370 H384 0.930 . S
C371 C368 1.344 . S
C371 C370 1.371 . S
C371 H385 0.931 . S
C372 C368 1.328 . S
C372 C373 1.433 . S
C372 H386 0.931 . S
C373 C369 1.323 . S
C373 C372 1.433 . S
C373 H387 0.933 . S
C374 Dy352 2.738 . S
C374 O357 1.255 . S
C374 O358 1.249 . S
C374 C368 1.516 . S
C375 O359 1.254 . S
C375 O360 1.257 . S
C376 O361 1.266 . S
C376 O362 1.236 . S
C377 C380 1.344 . S
C377 C381 1.328 . S
C377 C383 1.516 . S
C378 C379 1.304 . S
C378 C382 1.323 . S
C379 C378 1.304 . S
C379 C380 1.371 . S
C379 H388 0.930 . S
C380 C377 1.344 . S
C380 C379 1.371 . S
C380 H389 0.931 . S
C381 C377 1.328 . S
C381 C382 1.433 . S
C381 H390 0.931 . S
C382 C378 1.323 . S
C382 C381 1.433 . S
C382 H391 0.933 . S
C383 Dy353 2.738 . S
C383 O363 1.255 . S
C383 O364 1.249 . S
C383 C377 1.516 . S
H384 C370 0.930 . S
H385 C371 0.931 . S
H386 C372 0.931 . S
H387 C373 0.933 . S
H388 C379 0.930 . S
H389 C380 0.931 . S
H390 C381 0.931 . S
H391 C382 0.933 . S
Dy392 O395 2.307 . S
Dy392 O397 2.395 . S
Dy392 O398 2.379 . S
Dy392 O400 2.339 . S
Dy392 O402 2.298 . S
Dy392 O406 2.275 . S
Dy392 C414 2.738 . S
Dy393 O396 2.298 . S
Dy393 O399 2.275 . S
Dy393 O401 2.307 . S
Dy393 O403 2.395 . S
Dy393 O404 2.379 . S
Dy393 O407 2.339 . S
Dy393 C423 2.738 . S
C394 O406 1.254 . S
C394 O407 1.257 . S
O395 Dy392 2.307 . S
O395 C405 1.266 1_545 S
O396 Dy393 2.298 . S
O396 C405 1.236 1_545 S
O397 Dy392 2.395 . S
O397 C414 1.255 . S
O398 Dy392 2.379 . S
O398 C414 1.249 . S
O399 Dy393 2.275 . S
O399 C415 1.254 . S
O400 Dy392 2.339 . S
O400 C415 1.257 . S
O401 Dy393 2.307 . S
O401 C416 1.266 . S
O402 Dy392 2.298 . S
O402 C416 1.236 . S
O403 Dy393 2.395 . S
O403 C423 1.255 . S
O404 Dy393 2.379 . S
O404 C423 1.249 . S
C405 O395 1.266 1_565 S
C405 O396 1.236 1_565 S
O406 Dy392 2.275 . S
O406 C394 1.254 . S
O407 Dy393 2.339 . S
O407 C394 1.257 . S
C408 C411 1.344 . S
C408 C412 1.328 . S
C408 C414 1.516 . S
C409 C410 1.304 . S
C409 C413 1.323 . S
C410 C409 1.304 . S
C410 C411 1.371 . S
C410 H424 0.930 . S
C411 C408 1.344 . S
C411 C410 1.371 . S
C411 H425 0.931 . S
C412 C408 1.328 . S
C412 C413 1.433 . S
C412 H426 0.931 . S
C413 C409 1.323 . S
C413 C412 1.433 . S
C413 H427 0.933 . S
C414 Dy392 2.738 . S
C414 O397 1.255 . S
C414 O398 1.249 . S
C414 C408 1.516 . S
C415 O399 1.254 . S
C415 O400 1.257 . S
C416 O401 1.266 . S
C416 O402 1.236 . S
C417 C420 1.323 1_545 S
C417 C421 1.328 . S
C417 C423 1.516 . S
C418 C419 1.304 . S
C418 C422 1.323 . S
C419 C418 1.304 . S
C419 C420 1.392 . S
C419 H428 0.930 . S
C420 C417 1.323 1_565 S
C420 C419 1.392 . S
C420 H429 0.931 . S
C421 C417 1.328 . S
C421 C422 1.433 1_545 S
C421 H430 0.931 . S
C422 C418 1.323 . S
C422 C421 1.433 1_565 S
C422 H431 0.933 . S
C423 Dy393 2.738 . S
C423 O403 1.255 . S
C423 O404 1.249 . S
C423 C417 1.516 . S
H424 C410 0.930 . S
H425 C411 0.931 . S
H426 C412 0.931 . S
H427 C413 0.933 . S
H428 C419 0.930 . S
H429 C420 0.931 . S
H430 C421 0.931 . S
H431 C422 0.933 . S
Dy432 O435 2.307 . S
Dy432 O437 2.395 . S
Dy432 O438 2.379 . S
Dy432 O440 2.339 . S
Dy432 O442 2.298 . S
Dy432 O446 2.275 . S
Dy432 C454 2.738 . S
Dy433 O436 2.298 . S
Dy433 O439 2.275 . S
Dy433 O441 2.307 . S
Dy433 O443 2.395 . S
Dy433 O444 2.379 . S
Dy433 O447 2.339 . S
Dy433 C463 2.738 . S
C434 O446 1.254 . S
C434 O447 1.257 . S
O435 Dy432 2.307 . S
O435 C445 1.266 . S
O436 Dy433 2.298 . S
O436 C445 1.236 . S
O437 Dy432 2.395 . S
O437 C454 1.255 . S
O438 Dy432 2.379 . S
O438 C454 1.249 . S
O439 Dy433 2.275 . S
O439 C455 1.254 . S
O440 Dy432 2.339 . S
O440 C455 1.257 . S
O441 Dy433 2.307 . S
O441 C456 1.266 . S
O442 Dy432 2.298 . S
O442 C456 1.236 . S
O443 Dy433 2.395 . S
O443 C463 1.255 . S
O444 Dy433 2.379 . S
O444 C463 1.249 . S
C445 O435 1.266 . S
C445 O436 1.236 . S
O446 Dy432 2.275 . S
O446 C434 1.254 . S
O447 Dy433 2.339 . S
O447 C434 1.257 . S
C448 C451 1.344 . S
C448 C452 1.328 . S
C448 C454 1.516 . S
C449 C450 1.304 . S
C449 C453 1.323 . S
C450 C449 1.304 . S
C450 C451 1.371 . S
C450 H464 0.930 . S
C451 C448 1.344 . S
C451 C450 1.371 . S
C451 H465 0.931 . S
C452 C448 1.328 . S
C452 C453 1.433 . S
C452 H466 0.931 . S
C453 C449 1.323 . S
C453 C452 1.433 . S
C453 H467 0.933 . S
C454 Dy432 2.738 . S
C454 O437 1.255 . S
C454 O438 1.249 . S
C454 C448 1.516 . S
C455 O439 1.254 . S
C455 O440 1.257 . S
C456 O441 1.266 . S
C456 O442 1.236 . S
C457 C460 1.344 . S
C457 C461 1.328 . S
C457 C463 1.516 . S
C458 C459 1.304 . S
C458 C462 1.323 . S
C459 C458 1.304 . S
C459 C460 1.371 . S
C459 H468 0.930 . S
C460 C457 1.344 . S
C460 C459 1.371 . S
C460 H469 0.931 . S
C461 C457 1.328 . S
C461 C462 1.433 . S
C461 H470 0.931 . S
C462 C458 1.323 . S
C462 C461 1.433 . S
C462 H471 0.933 . S
C463 Dy433 2.738 . S
C463 O443 1.255 . S
C463 O444 1.249 . S
C463 C457 1.516 . S
H464 C450 0.930 . S
H465 C451 0.931 . S
H466 C452 0.931 . S
H467 C453 0.933 . S
H468 C459 0.930 . S
H469 C460 0.931 . S
H470 C461 0.931 . S
H471 C462 0.933 . S
Dy472 O475 2.307 . S
Dy472 O477 2.395 1_545 S
Dy472 O478 2.379 1_545 S
Dy472 O480 2.339 . S
Dy472 O482 2.298 . S
Dy472 O486 2.275 . S
Dy472 C494 2.738 1_545 S
Dy473 O476 2.298 . S
Dy473 O479 2.275 . S
Dy473 O481 2.307 . S
Dy473 O483 2.395 . S
Dy473 O484 2.379 1_455 S
Dy473 O487 2.339 1_455 S
Dy473 C503 2.738 . S
C474 O486 1.254 1_655 S
C474 O487 1.257 . S
O475 Dy472 2.307 . S
O475 C485 1.266 . S
O476 Dy473 2.298 . S
O476 C485 1.236 . S
O477 Dy472 2.395 1_565 S
O477 C494 1.255 . S
O478 Dy472 2.379 1_565 S
O478 C494 1.249 . S
O479 Dy473 2.275 . S
O479 C495 1.254 . S
O480 Dy472 2.339 . S
O480 C495 1.257 . S
O481 Dy473 2.307 . S
O481 C496 1.266 . S
O482 Dy472 2.298 . S
O482 C496 1.236 . S
O483 Dy473 2.395 . S
O483 C503 1.255 . S
O484 Dy473 2.379 1_655 S
O484 C503 1.249 1_655 S
C485 O475 1.266 . S
C485 O476 1.236 . S
O486 Dy472 2.275 . S
O486 C474 1.254 1_455 S
O487 Dy473 2.339 1_655 S
O487 C474 1.257 . S
C488 C491 1.344 . S
C488 C492 1.328 . S
C488 C494 1.516 . S
C489 C490 1.304 . S
C489 C493 1.323 . S
C490 C489 1.304 . S
C490 C491 1.371 . S
C490 H504 0.930 . S
C491 C488 1.344 . S
C491 C490 1.371 . S
C491 H505 0.931 . S
C492 C488 1.328 . S
C492 C493 1.433 . S
C492 H506 0.931 . S
C493 C489 1.323 . S
C493 C492 1.433 . S
C493 H507 0.933 . S
C494 Dy472 2.738 1_565 S
C494 O477 1.255 . S
C494 O478 1.249 . S
C494 C488 1.516 . S
C495 O479 1.254 . S
C495 O480 1.257 . S
C496 O481 1.266 . S
C496 O482 1.236 . S
C497 C500 1.344 . S
C497 C501 1.328 1_455 S
C497 C503 1.516 . S
C498 C499 1.304 . S
C498 C502 1.323 1_455 S
C499 C498 1.304 . S
C499 C500 1.371 . S
C499 H508 0.930 . S
C500 C497 1.344 . S
C500 C499 1.371 . S
C500 H509 0.931 . S
C501 C497 1.328 1_655 S
C501 C502 1.433 . S
C501 H510 0.931 . S
C502 C498 1.323 1_655 S
C502 C501 1.433 . S
C502 H511 0.933 . S
C503 Dy473 2.738 . S
C503 O483 1.255 . S
C503 O484 1.249 1_455 S
C503 C497 1.516 . S
H504 C490 0.930 . S
H505 C491 0.931 . S
H506 C492 0.931 . S
H507 C493 0.933 . S
H508 C499 0.930 . S
H509 C500 0.931 . S
H510 C501 0.931 . S
H511 C502 0.933 . S
Dy512 O515 2.307 . S
Dy512 O517 2.395 . S
Dy512 O518 2.379 . S
Dy512 O520 2.339 . S
Dy512 O522 2.298 . S
Dy512 O526 2.275 . S
Dy512 C534 2.738 . S
Dy513 O516 2.298 . S
Dy513 O519 2.275 . S
Dy513 O521 2.307 . S
Dy513 O523 2.395 . S
Dy513 O524 2.379 . S
Dy513 O527 2.339 . S
Dy513 C543 2.738 . S
C514 O526 1.254 . S
C514 O527 1.257 . S
O515 Dy512 2.307 . S
O515 C525 1.266 . S
O516 Dy513 2.298 . S
O516 C525 1.236 . S
O517 Dy512 2.395 . S
O517 C534 1.255 . S
O518 Dy512 2.379 . S
O518 C534 1.249 . S
O519 Dy513 2.275 . S
O519 C535 1.254 . S
O520 Dy512 2.339 . S
O520 C535 1.257 . S
O521 Dy513 2.307 . S
O521 C536 1.266 . S
O522 Dy512 2.298 . S
O522 C536 1.236 . S
O523 Dy513 2.395 . S
O523 C543 1.255 . S
O524 Dy513 2.379 . S
O524 C543 1.249 . S
C525 O515 1.266 . S
C525 O516 1.236 . S
O526 Dy512 2.275 . S
O526 C514 1.254 . S
O527 Dy513 2.339 . S
O527 C514 1.257 . S
C528 C531 1.344 . S
C528 C532 1.328 . S
C528 C534 1.516 . S
C529 C530 1.304 . S
C529 C533 1.323 . S
C530 C529 1.304 . S
C530 C531 1.371 . S
C530 H544 0.930 . S
C531 C528 1.344 . S
C531 C530 1.371 . S
C531 H545 0.931 . S
C532 C528 1.328 . S
C532 C533 1.433 . S
C532 H546 0.931 . S
C533 C529 1.323 . S
C533 C532 1.433 . S
C533 H547 0.933 . S
C534 Dy512 2.738 . S
C534 O517 1.255 . S
C534 O518 1.249 . S
C534 C528 1.516 . S
C535 O519 1.254 . S
C535 O520 1.257 . S
C536 O521 1.266 . S
C536 O522 1.236 . S
C537 C540 1.344 . S
C537 C541 1.328 . S
C537 C543 1.516 . S
C538 C539 1.304 . S
C538 C542 1.323 . S
C539 C538 1.304 . S
C539 C540 1.371 . S
C539 H548 0.930 . S
C540 C537 1.344 . S
C540 C539 1.371 . S
C540 H549 0.931 . S
C541 C537 1.328 . S
C541 C542 1.433 . S
C541 H550 0.931 . S
C542 C538 1.323 . S
C542 C541 1.433 . S
C542 H551 0.933 . S
C543 Dy513 2.738 . S
C543 O523 1.255 . S
C543 O524 1.249 . S
C543 C537 1.516 . S
H544 C530 0.930 . S
H545 C531 0.931 . S
H546 C532 0.931 . S
H547 C533 0.933 . S
H548 C539 0.930 . S
H549 C540 0.931 . S
H550 C541 0.931 . S
H551 C542 0.933 . S
Dy552 O555 2.307 . S
Dy552 O557 2.395 1_554 S
Dy552 O558 2.379 1_554 S
Dy552 O560 2.339 . S
Dy552 O562 2.298 . S
Dy552 O566 2.275 . S
Dy552 C574 2.738 1_554 S
Dy553 O556 2.298 . S
Dy553 O559 2.275 . S
Dy553 O561 2.307 . S
Dy553 O563 2.395 . S
Dy553 O564 2.379 1_545 S
Dy553 O567 2.339 1_545 S
Dy553 C583 2.738 . S
C554 O566 1.254 1_565 S
C554 O567 1.257 . S
O555 Dy552 2.307 . S
O555 C565 1.266 . S
O556 Dy553 2.298 . S
O556 C565 1.236 . S
O557 Dy552 2.395 1_556 S
O557 C574 1.255 . S
O558 Dy552 2.379 1_556 S
O558 C574 1.249 . S
O559 Dy553 2.275 . S
O559 C575 1.254 . S
O560 Dy552 2.339 . S
O560 C575 1.257 . S
O561 Dy553 2.307 . S
O561 C576 1.266 . S
O562 Dy552 2.298 . S
O562 C576 1.236 . S
O563 Dy553 2.395 . S
O563 C583 1.255 . S
O564 Dy553 2.379 1_565 S
O564 C583 1.249 1_565 S
C565 O555 1.266 . S
C565 O556 1.236 . S
O566 Dy552 2.275 . S
O566 C554 1.254 1_545 S
O567 Dy553 2.339 1_565 S
O567 C554 1.257 . S
C568 C571 1.344 . S
C568 C572 1.328 . S
C568 C574 1.516 . S
C569 C570 1.304 . S
C569 C573 1.323 . S
C570 C569 1.304 . S
C570 C571 1.371 . S
C570 H584 0.930 . S
C571 C568 1.344 . S
C571 C570 1.371 . S
C571 H585 0.931 . S
C572 C568 1.328 . S
C572 C573 1.433 . S
C572 H586 0.931 . S
C573 C569 1.323 . S
C573 C572 1.433 . S
C573 H587 0.933 . S
C574 Dy552 2.738 1_556 S
C574 O557 1.255 . S
C574 O558 1.249 . S
C574 C568 1.516 . S
C575 O559 1.254 . S
C575 O560 1.257 . S
C576 O561 1.266 . S
C576 O562 1.236 . S
C577 C580 1.344 . S
C577 C581 1.328 1_545 S
C577 C583 1.516 . S
C578 C579 1.304 1_565 S
C578 C582 1.323 . S
C579 C578 1.304 1_545 S
C579 C580 1.371 . S
C579 H588 0.930 . S
C580 C577 1.344 . S
C580 C579 1.371 . S
C580 H589 0.931 . S
C581 C577 1.328 1_565 S
C581 C582 1.433 . S
C581 H590 0.931 . S
C582 C578 1.323 . S
C582 C581 1.433 . S
C582 H591 0.933 . S
C583 Dy553 2.738 . S
C583 O563 1.255 . S
C583 O564 1.249 1_545 S
C583 C577 1.516 . S
H584 C570 0.930 . S
H585 C571 0.931 . S
H586 C572 0.931 . S
H587 C573 0.933 . S
H588 C579 0.930 . S
H589 C580 0.931 . S
H590 C581 0.931 . S
H591 C582 0.933 . S
Dy592 O595 2.307 . S
Dy592 O597 2.395 . S
Dy592 O598 2.379 . S
Dy592 O600 2.339 . S
Dy592 O602 2.298 . S
Dy592 O606 2.275 . S
Dy592 C614 2.738 . S
Dy593 O596 2.298 . S
Dy593 O599 2.275 . S
Dy593 O601 2.307 . S
Dy593 O603 2.395 . S
Dy593 O604 2.379 . S
Dy593 O607 2.339 . S
Dy593 C623 2.738 . S
C594 O606 1.254 . S
C594 O607 1.257 . S
O595 Dy592 2.307 . S
O595 C605 1.266 . S
O596 Dy593 2.298 . S
O596 C605 1.236 . S
O597 Dy592 2.395 . S
O597 C614 1.255 . S
O598 Dy592 2.379 . S
O598 C614 1.249 . S
O599 Dy593 2.275 . S
O599 C615 1.254 . S
O600 Dy592 2.339 . S
O600 C615 1.257 . S
O601 Dy593 2.307 . S
O601 C616 1.266 . S
O602 Dy592 2.298 . S
O602 C616 1.236 . S
O603 Dy593 2.395 . S
O603 C623 1.255 . S
O604 Dy593 2.379 . S
O604 C623 1.249 . S
C605 O595 1.266 . S
C605 O596 1.236 . S
O606 Dy592 2.275 . S
O606 C594 1.254 . S
O607 Dy593 2.339 . S
O607 C594 1.257 . S
C608 C611 1.344 . S
C608 C612 1.328 . S
C608 C614 1.516 . S
C609 C610 1.304 . S
C609 C613 1.323 . S
C610 C609 1.304 . S
C610 C611 1.371 . S
C610 H624 0.930 . S
C611 C608 1.344 . S
C611 C610 1.371 . S
C611 H625 0.931 . S
C612 C608 1.328 . S
C612 C613 1.433 . S
C612 H626 0.931 . S
C613 C609 1.323 . S
C613 C612 1.433 . S
C613 H627 0.933 . S
C614 Dy592 2.738 . S
C614 O597 1.255 . S
C614 O598 1.249 . S
C614 C608 1.516 . S
C615 O599 1.254 . S
C615 O600 1.257 . S
C616 O601 1.266 . S
C616 O602 1.236 . S
C617 C620 1.344 . S
C617 C621 1.328 . S
C617 C623 1.516 . S
C618 C619 1.304 . S
C618 C622 1.323 . S
C619 C618 1.304 . S
C619 C620 1.371 . S
C619 H628 0.930 . S
C620 C617 1.344 . S
C620 C619 1.371 . S
C620 H629 0.931 . S
C621 C617 1.328 . S
C621 C622 1.433 . S
C621 H630 0.931 . S
C622 C618 1.323 . S
C622 C621 1.433 . S
C622 H631 0.933 . S
C623 Dy593 2.738 . S
C623 O603 1.255 . S
C623 O604 1.249 . S
C623 C617 1.516 . S
H624 C610 0.930 . S
H625 C611 0.931 . S
H626 C612 0.931 . S
H627 C613 0.933 . S
H628 C619 0.930 . S
H629 C620 0.931 . S
H630 C621 0.931 . S
H631 C622 0.933 . S
Dy632 O635 2.307 1_554 S
Dy632 O637 2.395 . S
Dy632 O638 2.379 . S
Dy632 O640 2.339 . S
Dy632 O642 2.298 . S
Dy632 O646 2.275 . S
Dy632 C654 2.738 . S
Dy633 O636 2.258 1_554 S
Dy633 O639 2.275 . S
Dy633 O641 2.307 . S
Dy633 O643 2.395 . S
Dy633 O644 2.379 . S
Dy633 O647 2.339 . S
Dy633 C663 2.738 . S
C634 O646 1.254 . S
C634 O647 1.257 . S
O635 Dy632 2.307 1_556 S
O635 C645 1.266 . S
O636 Dy633 2.258 1_556 S
O636 C645 1.260 . S
O637 Dy632 2.395 . S
O637 C654 1.255 . S
O638 Dy632 2.379 . S
O638 C654 1.249 . S
O639 Dy633 2.275 . S
O639 C655 1.254 . S
O640 Dy632 2.339 . S
O640 C655 1.257 . S
O641 Dy633 2.307 . S
O641 C656 1.266 . S
O642 Dy632 2.298 . S
O642 C656 1.236 . S
O643 Dy633 2.395 . S
O643 C663 1.255 . S
O644 Dy633 2.379 . S
O644 C663 1.249 . S
C645 O635 1.266 . S
C645 O636 1.260 . S
O646 Dy632 2.275 . S
O646 C634 1.254 . S
O647 Dy633 2.339 . S
O647 C634 1.257 . S
C648 C651 1.344 . S
C648 C652 1.328 . S
C648 C654 1.516 . S
C649 C650 1.304 . S
C649 C653 1.323 . S
C650 C649 1.304 . S
C650 C651 1.371 . S
C650 H664 0.930 . S
C651 C648 1.344 . S
C651 C650 1.371 . S
C651 H665 0.931 . S
C652 C648 1.328 . S
C652 C653 1.433 . S
C652 H666 0.931 . S
C653 C649 1.323 . S
C653 C652 1.433 . S
C653 H667 0.933 . S
C654 Dy632 2.738 . S
C654 O637 1.255 . S
C654 O638 1.249 . S
C654 C648 1.516 . S
C655 O639 1.254 . S
C655 O640 1.257 . S
C656 O641 1.266 . S
C656 O642 1.236 . S
C657 C660 1.361 . S
C657 C661 1.326 . S
C657 C663 1.501 1_556 S
C658 C659 1.304 . S
C658 C662 1.323 . S
C659 C658 1.304 . S
C659 C660 1.371 . S
C659 H668 0.930 . S
C660 C657 1.361 . S
C660 C659 1.371 . S
C660 H669 0.931 . S
C661 C657 1.326 . S
C661 C662 1.432 . S
C661 H670 0.931 1_556 S
C662 C658 1.323 . S
C662 C661 1.432 . S
C662 H671 0.933 . S
C663 Dy633 2.738 . S
C663 O643 1.255 . S
C663 O644 1.249 . S
C663 C657 1.501 1_554 S
H664 C650 0.930 . S
H665 C651 0.931 . S
H666 C652 0.931 . S
H667 C653 0.933 . S
H668 C659 0.930 . S
H669 C660 0.931 . S
H670 C661 0.931 1_554 S
H671 C662 0.933 . S
Dy672 O675 2.307 . S
Dy672 O677 2.395 . S
Dy672 O678 2.379 . S
Dy672 O680 2.339 . S
Dy672 O682 2.298 . S
Dy672 O686 2.275 . S
Dy672 C694 2.738 . S
Dy673 O676 2.298 . S
Dy673 O679 2.275 . S
Dy673 O681 2.307 . S
Dy673 O683 2.395 . S
Dy673 O684 2.379 . S
Dy673 O687 2.339 . S
Dy673 C703 2.738 . S
C674 O686 1.254 . S
C674 O687 1.257 . S
O675 Dy672 2.307 . S
O675 C685 1.266 . S
O676 Dy673 2.298 . S
O676 C685 1.236 . S
O677 Dy672 2.395 . S
O677 C694 1.255 . S
O678 Dy672 2.379 . S
O678 C694 1.249 . S
O679 Dy673 2.275 . S
O679 C695 1.254 . S
O680 Dy672 2.339 . S
O680 C695 1.257 . S
O681 Dy673 2.307 . S
O681 C696 1.266 . S
O682 Dy672 2.298 . S
O682 C696 1.236 . S
O683 Dy673 2.395 . S
O683 C703 1.255 . S
O684 Dy673 2.379 . S
O684 C703 1.249 . S
C685 O675 1.266 . S
C685 O676 1.236 . S
O686 Dy672 2.275 . S
O686 C674 1.254 . S
O687 Dy673 2.339 . S
O687 C674 1.257 . S
C688 C691 1.344 . S
C688 C692 1.328 . S
C688 C694 1.516 . S
C689 C690 1.304 . S
C689 C693 1.323 . S
C690 C689 1.304 . S
C690 C691 1.371 . S
C690 H704 0.930 . S
C691 C688 1.344 . S
C691 C690 1.371 . S
C691 H705 0.931 . S
C692 C688 1.328 . S
C692 C693 1.433 . S
C692 H706 0.931 . S
C693 C689 1.323 . S
C693 C692 1.433 . S
C693 H707 0.933 . S
C694 Dy672 2.738 . S
C694 O677 1.255 . S
C694 O678 1.249 . S
C694 C688 1.516 . S
C695 O679 1.254 . S
C695 O680 1.257 . S
C696 O681 1.266 . S
C696 O682 1.236 . S
C697 C700 1.344 . S
C697 C701 1.328 . S
C697 C703 1.516 . S
C698 C699 1.304 . S
C698 C702 1.323 . S
C699 C698 1.304 . S
C699 C700 1.371 . S
C699 H708 0.930 . S
C700 C697 1.344 . S
C700 C699 1.371 . S
C700 H709 0.931 . S
C701 C697 1.328 . S
C701 C702 1.433 . S
C701 H710 0.931 . S
C702 C698 1.323 . S
C702 C701 1.433 . S
C702 H711 0.933 . S
C703 Dy673 2.738 . S
C703 O683 1.255 . S
C703 O684 1.249 . S
C703 C697 1.516 . S
H704 C690 0.930 . S
H705 C691 0.931 . S
H706 C692 0.931 . S
H707 C693 0.933 . S
H708 C699 0.930 . S
H709 C700 0.931 . S
H710 C701 0.931 . S
H711 C702 0.933 . S
Dy712 O715 2.307 1_455 S
Dy712 O717 2.395 . S
Dy712 O718 2.379 . S
Dy712 O720 2.339 . S
Dy712 O722 2.298 . S
Dy712 O726 2.275 . S
Dy712 C734 2.738 . S
Dy713 O716 2.298 1_455 S
Dy713 O719 2.275 . S
Dy713 O721 2.307 . S
Dy713 O723 2.395 . S
Dy713 O724 2.379 . S
Dy713 O727 2.339 . S
Dy713 C743 2.738 . S
C714 O726 1.254 . S
C714 O727 1.257 . S
O715 Dy712 2.307 1_655 S
O715 C725 1.266 . S
O716 Dy713 2.298 1_655 S
O716 C725 1.236 . S
O717 Dy712 2.395 . S
O717 C734 1.255 . S
O718 Dy712 2.379 . S
O718 C734 1.249 . S
O719 Dy713 2.275 . S
O719 C735 1.254 . S
O720 Dy712 2.339 . S
O720 C735 1.257 . S
O721 Dy713 2.307 . S
O721 C736 1.266 . S
O722 Dy712 2.298 . S
O722 C736 1.236 . S
O723 Dy713 2.395 . S
O723 C743 1.255 . S
O724 Dy713 2.379 . S
O724 C743 1.249 . S
C725 O715 1.266 . S
C725 O716 1.236 . S
O726 Dy712 2.275 . S
O726 C714 1.254 . S
O727 Dy713 2.339 . S
O727 C714 1.257 . S
C728 C731 1.344 . S
C728 C732 1.328 . S
C728 C734 1.516 . S
C729 C730 1.304 . S
C729 C733 1.323 . S
C730 C729 1.304 . S
C730 C731 1.371 . S
C730 H744 0.930 . S
C731 C728 1.344 . S
C731 C730 1.371 . S
C731 H745 0.931 . S
C732 C728 1.328 . S
C732 C733 1.433 . S
C732 H746 0.931 . S
C733 C729 1.323 . S
C733 C732 1.433 . S
C733 H747 0.933 . S
C734 Dy712 2.738 . S
C734 O717 1.255 . S
C734 O718 1.249 . S
C734 C728 1.516 . S
C735 O719 1.254 . S
C735 O720 1.257 . S
C736 O721 1.266 . S
C736 O722 1.236 . S
C737 C740 1.344 . S
C737 C741 1.328 . S
C737 C743 1.516 1_655 S
C738 C739 1.304 . S
C738 C742 1.323 . S
C739 C738 1.304 . S
C739 C740 1.371 . S
C739 H748 0.930 . S
C740 C737 1.344 . S
C740 C739 1.371 . S
C740 H749 0.931 . S
C741 C737 1.328 . S
C741 C742 1.433 . S
C741 H750 0.953 . S
C742 C738 1.323 . S
C742 C741 1.433 . S
C742 H751 0.933 . S
C743 Dy713 2.738 . S
C743 O723 1.255 . S
C743 O724 1.249 . S
C743 C737 1.516 1_455 S
H744 C730 0.930 . S
H745 C731 0.931 . S
H746 C732 0.931 . S
H747 C733 0.933 . S
H748 C739 0.930 . S
H749 C740 0.931 . S
H750 C741 0.953 . S
H751 C742 0.933 . S
Dy752 O755 2.307 . S
Dy752 O757 2.395 . S
Dy752 O758 2.379 . S
Dy752 O760 2.339 . S
Dy752 O762 2.298 . S
Dy752 O766 2.275 . S
Dy752 C774 2.738 . S
Dy753 O756 2.298 . S
Dy753 O759 2.275 . S
Dy753 O761 2.307 . S
Dy753 O763 2.395 . S
Dy753 O764 2.379 . S
Dy753 O767 2.339 . S
Dy753 C783 2.738 . S
C754 O766 1.254 . S
C754 O767 1.257 . S
O755 Dy752 2.307 . S
O755 C765 1.266 . S
O756 Dy753 2.298 . S
O756 C765 1.236 . S
O757 Dy752 2.395 . S
O757 C774 1.255 . S
O758 Dy752 2.379 . S
O758 C774 1.249 . S
O759 Dy753 2.275 . S
O759 C775 1.254 . S
O760 Dy752 2.339 . S
O760 C775 1.257 . S
O761 Dy753 2.307 . S
O761 C776 1.266 . S
O762 Dy752 2.298 . S
O762 C776 1.236 . S
O763 Dy753 2.395 . S
O763 C783 1.255 . S
O764 Dy753 2.379 . S
O764 C783 1.249 . S
C765 O755 1.266 . S
C765 O756 1.236 . S
O766 Dy752 2.275 . S
O766 C754 1.254 . S
O767 Dy753 2.339 . S
O767 C754 1.257 . S
C768 C771 1.344 . S
C768 C772 1.328 . S
C768 C774 1.516 . S
C769 C770 1.304 . S
C769 C773 1.323 . S
C770 C769 1.304 . S
C770 C771 1.371 . S
C770 H784 0.930 . S
C771 C768 1.344 . S
C771 C770 1.371 . S
C771 H785 0.931 . S
C772 C768 1.328 . S
C772 C773 1.433 . S
C772 H786 0.931 . S
C773 C769 1.323 . S
C773 C772 1.433 . S
C773 H787 0.933 . S
C774 Dy752 2.738 . S
C774 O757 1.255 . S
C774 O758 1.249 . S
C774 C768 1.516 . S
C775 O759 1.254 . S
C775 O760 1.257 . S
C776 O761 1.266 . S
C776 O762 1.236 . S
C777 C780 1.344 . S
C777 C781 1.328 . S
C777 C783 1.516 . S
C778 C779 1.304 . S
C778 C782 1.323 . S
C779 C778 1.304 . S
C779 C780 1.371 . S
C779 H788 0.930 . S
C780 C777 1.344 . S
C780 C779 1.371 . S
C780 H789 0.931 . S
C781 C777 1.328 . S
C781 C782 1.433 . S
C781 H790 0.931 . S
C782 C778 1.323 . S
C782 C781 1.433 . S
C782 H791 0.933 . S
C783 Dy753 2.738 . S
C783 O763 1.255 . S
C783 O764 1.249 . S
C783 C777 1.516 . S
H784 C770 0.930 . S
H785 C771 0.931 . S
H786 C772 0.931 . S
H787 C773 0.933 . S
H788 C779 0.930 . S
H789 C780 0.931 . S
H790 C781 0.931 . S
H791 C782 0.933 . S
Dy792 O795 2.307 . S
Dy792 O797 2.395 . S
Dy792 O798 2.379 . S
Dy792 O800 2.339 . S
Dy792 O802 2.298 . S
Dy792 O806 2.275 . S
Dy792 C814 2.738 . S
Dy793 O796 2.298 . S
Dy793 O799 2.275 . S
Dy793 O801 2.307 . S
Dy793 O803 2.395 . S
Dy793 O804 2.379 . S
Dy793 O807 2.339 . S
Dy793 C823 2.738 . S
C794 O806 1.254 . S
C794 O807 1.257 . S
O795 Dy792 2.307 . S
O795 C805 1.266 . S
O796 Dy793 2.298 . S
O796 C805 1.236 . S
O797 Dy792 2.395 . S
O797 C814 1.255 . S
O798 Dy792 2.379 . S
O798 C814 1.249 . S
O799 Dy793 2.275 . S
O799 C815 1.254 . S
O800 Dy792 2.339 . S
O800 C815 1.257 . S
O801 Dy793 2.307 . S
O801 C816 1.266 . S
O802 Dy792 2.298 . S
O802 C816 1.236 . S
O803 Dy793 2.395 . S
O803 C823 1.255 . S
O804 Dy793 2.379 . S
O804 C823 1.249 . S
C805 O795 1.266 . S
C805 O796 1.236 . S
O806 Dy792 2.275 . S
O806 C794 1.254 . S
O807 Dy793 2.339 . S
O807 C794 1.257 . S
C808 C811 1.344 . S
C808 C812 1.328 . S
C808 C814 1.516 . S
C809 C810 1.304 . S
C809 C813 1.323 . S
C810 C809 1.304 . S
C810 C811 1.371 . S
C810 H824 0.930 . S
C811 C808 1.344 . S
C811 C810 1.371 . S
C811 H825 0.931 . S
C812 C808 1.328 . S
C812 C813 1.433 . S
C812 H826 0.931 . S
C813 C809 1.323 . S
C813 C812 1.433 . S
C813 H827 0.933 . S
C814 Dy792 2.738 . S
C814 O797 1.255 . S
C814 O798 1.249 . S
C814 C808 1.516 . S
C815 O799 1.254 . S
C815 O800 1.257 . S
C816 O801 1.266 . S
C816 O802 1.236 . S
C817 C820 1.344 . S
C817 C821 1.328 . S
C817 C823 1.516 . S
C818 C819 1.304 . S
C818 C822 1.323 . S
C819 C818 1.304 . S
C819 C820 1.371 . S
C819 H828 0.930 . S
C820 C817 1.344 . S
C820 C819 1.371 . S
C820 H829 0.931 . S
C821 C817 1.328 . S
C821 C822 1.433 . S
C821 H830 0.931 . S
C822 C818 1.323 . S
C822 C821 1.433 . S
C822 H831 0.933 . S
C823 Dy793 2.738 . S
C823 O803 1.255 . S
C823 O804 1.249 . S
C823 C817 1.516 . S
H824 C810 0.930 . S
H825 C811 0.931 . S
H826 C812 0.931 . S
H827 C813 0.933 . S
H828 C819 0.930 . S
H829 C820 0.931 . S
H830 C821 0.931 . S
H831 C822 0.933 . S
Dy832 O835 2.307 . S
Dy832 O837 2.395 . S
Dy832 O838 2.379 . S
Dy832 O840 2.339 . S
Dy832 O842 2.298 . S
Dy832 O846 2.275 . S
Dy832 C854 2.738 . S
Dy833 O836 2.298 . S
Dy833 O839 2.275 . S
Dy833 O841 2.307 . S
Dy833 O843 2.395 . S
Dy833 O844 2.379 . S
Dy833 O847 2.339 . S
Dy833 C863 2.738 . S
C834 O846 1.254 . S
C834 O847 1.257 . S
O835 Dy832 2.307 . S
O835 C845 1.266 . S
O836 Dy833 2.298 . S
O836 C845 1.236 . S
O837 Dy832 2.395 . S
O837 C854 1.255 . S
O838 Dy832 2.379 . S
O838 C854 1.249 . S
O839 Dy833 2.275 . S
O839 C855 1.254 . S
O840 Dy832 2.339 . S
O840 C855 1.257 . S
O841 Dy833 2.307 . S
O841 C856 1.266 . S
O842 Dy832 2.298 . S
O842 C856 1.236 . S
O843 Dy833 2.395 . S
O843 C863 1.255 . S
O844 Dy833 2.379 . S
O844 C863 1.249 . S
C845 O835 1.266 . S
C845 O836 1.236 . S
O846 Dy832 2.275 . S
O846 C834 1.254 . S
O847 Dy833 2.339 . S
O847 C834 1.257 . S
C848 C851 1.344 . S
C848 C852 1.328 . S
C848 C854 1.516 . S
C849 C850 1.304 . S
C849 C853 1.323 . S
C850 C849 1.304 . S
C850 C851 1.371 . S
C850 H864 0.930 . S
C851 C848 1.344 . S
C851 C850 1.371 . S
C851 H865 0.931 . S
C852 C848 1.328 . S
C852 C853 1.433 . S
C852 H866 0.931 . S
C853 C849 1.323 . S
C853 C852 1.433 . S
C853 H867 0.933 . S
C854 Dy832 2.738 . S
C854 O837 1.255 . S
C854 O838 1.249 . S
C854 C848 1.516 . S
C855 O839 1.254 . S
C855 O840 1.257 . S
C856 O841 1.266 . S
C856 O842 1.236 . S
C857 C860 1.344 . S
C857 C861 1.328 . S
C857 C863 1.516 . S
C858 C859 1.304 . S
C858 C862 1.323 . S
C859 C858 1.304 . S
C859 C860 1.371 . S
C859 H868 0.930 . S
C860 C857 1.344 . S
C860 C859 1.371 . S
C860 H869 0.931 . S
C861 C857 1.328 . S
C861 C862 1.433 . S
C861 H870 0.931 . S
C862 C858 1.323 . S
C862 C861 1.433 . S
C862 H871 0.933 . S
C863 Dy833 2.738 . S
C863 O843 1.255 . S
C863 O844 1.249 . S
C863 C857 1.516 . S
H864 C850 0.930 . S
H865 C851 0.931 . S
H866 C852 0.931 . S
H867 C853 0.933 . S
H868 C859 0.930 . S
H869 C860 0.931 . S
H870 C861 0.931 . S
H871 C862 0.933 . S
Dy872 O875 2.307 . S
Dy872 O877 2.395 . S
Dy872 O878 2.379 . S
Dy872 O880 2.339 . S
Dy872 O882 2.298 . S
Dy872 O886 2.275 . S
Dy872 C894 2.738 . S
Dy873 O876 2.298 . S
Dy873 O879 2.275 . S
Dy873 O881 2.307 . S
Dy873 O883 2.395 . S
Dy873 O884 2.379 . S
Dy873 O887 2.339 . S
Dy873 C903 2.738 . S
C874 O886 1.254 . S
C874 O887 1.257 . S
O875 Dy872 2.307 . S
O875 C885 1.266 . S
O876 Dy873 2.298 . S
O876 C885 1.236 . S
O877 Dy872 2.395 . S
O877 C894 1.255 . S
O878 Dy872 2.379 . S
O878 C894 1.249 . S
O879 Dy873 2.275 . S
O879 C895 1.254 . S
O880 Dy872 2.339 . S
O880 C895 1.257 . S
O881 Dy873 2.307 . S
O881 C896 1.266 . S
O882 Dy872 2.298 . S
O882 C896 1.236 . S
O883 Dy873 2.395 . S
O883 C903 1.255 . S
O884 Dy873 2.379 . S
O884 C903 1.249 . S
C885 O875 1.266 . S
C885 O876 1.236 . S
O886 Dy872 2.275 . S
O886 C874 1.254 . S
O887 Dy873 2.339 . S
O887 C874 1.257 . S
C888 C891 1.344 . S
C888 C892 1.328 . S
C888 C894 1.516 . S
C889 C890 1.304 . S
C889 C893 1.323 . S
C890 C889 1.304 . S
C890 C891 1.371 . S
C890 H904 0.930 . S
C891 C888 1.344 . S
C891 C890 1.371 . S
C891 H905 0.931 . S
C892 C888 1.328 . S
C892 C893 1.433 . S
C892 H906 0.931 . S
C893 C889 1.323 . S
C893 C892 1.433 . S
C893 H907 0.933 . S
C894 Dy872 2.738 . S
C894 O877 1.255 . S
C894 O878 1.249 . S
C894 C888 1.516 . S
C895 O879 1.254 . S
C895 O880 1.257 . S
C896 O881 1.266 . S
C896 O882 1.236 . S
C897 C900 1.344 . S
C897 C901 1.328 . S
C897 C903 1.516 . S
C898 C899 1.304 . S
C898 C902 1.323 . S
C899 C898 1.304 . S
C899 C900 1.371 . S
C899 H908 0.930 . S
C900 C897 1.344 . S
C900 C899 1.371 . S
C900 H909 0.931 . S
C901 C897 1.328 . S
C901 C902 1.433 . S
C901 H910 0.931 . S
C902 C898 1.323 . S
C902 C901 1.433 . S
C902 H911 0.933 . S
C903 Dy873 2.738 . S
C903 O883 1.255 . S
C903 O884 1.249 . S
C903 C897 1.516 . S
H904 C890 0.930 . S
H905 C891 0.931 . S
H906 C892 0.931 . S
H907 C893 0.933 . S
H908 C899 0.930 . S
H909 C900 0.931 . S
H910 C901 0.931 . S
H911 C902 0.933 . S
Dy912 O915 2.307 . S
Dy912 O917 2.395 1_455 S
Dy912 O918 2.379 1_455 S
Dy912 O920 2.339 . S
Dy912 O922 2.298 . S
Dy912 O926 2.275 . S
Dy912 C934 2.738 1_455 S
Dy913 O916 2.298 . S
Dy913 O919 2.275 . S
Dy913 O921 2.307 . S
Dy913 O923 2.395 . S
Dy913 O924 2.379 1_554 S
Dy913 O927 2.339 1_554 S
Dy913 C943 2.738 . S
C914 O926 1.254 1_556 S
C914 O927 1.257 . S
O915 Dy912 2.307 . S
O915 C925 1.266 . S
O916 Dy913 2.298 . S
O916 C925 1.236 . S
O917 Dy912 2.395 1_655 S
O917 C934 1.255 . S
O918 Dy912 2.379 1_655 S
O918 C934 1.249 . S
O919 Dy913 2.275 . S
O919 C935 1.254 . S
O920 Dy912 2.339 . S
O920 C935 1.257 . S
O921 Dy913 2.307 . S
O921 C936 1.266 . S
O922 Dy912 2.298 . S
O922 C936 1.236 . S
O923 Dy913 2.395 . S
O923 C943 1.255 . S
O924 Dy913 2.379 1_556 S
O924 C943 1.249 1_556 S
C925 O915 1.266 . S
C925 O916 1.236 . S
O926 Dy912 2.275 . S
O926 C914 1.254 1_554 S
O927 Dy913 2.339 1_556 S
O927 C914 1.257 . S
C928 C931 1.344 . S
C928 C932 1.328 . S
C928 C934 1.516 . S
C929 C930 1.304 . S
C929 C933 1.323 . S
C930 C929 1.304 . S
C930 C931 1.371 . S
C930 H944 0.930 . S
C931 C928 1.344 . S
C931 C930 1.371 . S
C931 H945 0.931 . S
C932 C928 1.328 . S
C932 C933 1.433 . S
C932 H946 0.931 . S
C933 C929 1.323 . S
C933 C932 1.433 . S
C933 H947 0.933 . S
C934 Dy912 2.738 1_655 S
C934 O917 1.255 . S
C934 O918 1.249 . S
C934 C928 1.516 . S
C935 O919 1.254 . S
C935 O920 1.257 . S
C936 O921 1.266 . S
C936 O922 1.236 . S
C937 C940 1.344 . S
C937 C941 1.328 1_554 S
C937 C943 1.516 . S
C938 C939 1.304 1_556 S
C938 C942 1.323 . S
C939 C938 1.304 1_554 S
C939 C940 1.371 . S
C939 H948 0.930 . S
C940 C937 1.344 . S
C940 C939 1.371 . S
C940 H949 0.931 . S
C941 C937 1.328 1_556 S
C941 C942 1.433 . S
C941 H950 0.931 . S
C942 C938 1.323 . S
C942 C941 1.433 . S
C942 H951 0.933 . S
C943 Dy913 2.738 . S
C943 O923 1.255 . S
C943 O924 1.249 1_554 S
C943 C937 1.516 . S
H944 C930 0.930 . S
H945 C931 0.931 . S
H946 C932 0.931 . S
H947 C933 0.933 . S
H948 C939 0.930 . S
H949 C940 0.931 . S
H950 C941 0.931 . S
H951 C942 0.933 . S
H952 C958 0.930 . S
H953 C962 0.930 . S
H954 C967 0.929 . S
H955 C965 0.925 1_556 S
H956 C960 0.929 . S
H957 C966 0.927 1_655 S
C958 H952 0.930 . S
C958 C959 1.367 . S
C958 C966 1.378 1_655 S
C959 C958 1.367 . S
C959 C967 1.433 1_656 S
C960 H956 0.929 . S
C960 C962 1.378 . S
C960 C964 1.350 . S
C961 C964 1.463 . S
C961 C966 1.350 1_554 S
C961 N969 1.427 . S
C962 H953 0.930 . S
C962 C960 1.378 . S
C962 C963 1.367 . S
C963 C962 1.367 . S
C963 C965 1.439 . S
C964 C960 1.350 . S
C964 C961 1.463 . S
C964 N968 1.427 1_554 S
C965 H955 0.925 1_554 S
C965 C963 1.439 . S
C965 N968 1.382 1_554 S
C966 H957 0.927 1_455 S
C966 C958 1.378 1_455 S
C966 C961 1.350 1_556 S
C967 H954 0.929 . S
C967 C959 1.433 1_454 S
C967 N969 1.384 . S
N968 C964 1.427 1_556 S
N968 C965 1.382 1_556 S
N969 C961 1.427 . S
N969 C967 1.384 . S
H970 C976 0.930 . S
H971 C980 0.930 . S
H972 C985 0.929 . S
H973 C983 0.929 . S
H974 C978 0.929 . S
H975 C984 0.929 . S
C976 H970 0.930 . S
C976 C977 1.367 . S
C976 C984 1.378 . S
C977 C976 1.367 . S
C977 C985 1.433 . S
C978 H974 0.929 . S
C978 C980 1.378 . S
C978 C982 1.350 . S
C979 C982 1.463 . S
C979 C984 1.350 . S
C979 N987 1.427 . S
C980 H971 0.930 . S
C980 C978 1.378 . S
C980 C981 1.367 . S
C981 C980 1.367 . S
C981 C983 1.433 . S
C982 C978 1.350 . S
C982 C979 1.463 . S
C982 N986 1.427 . S
C983 H973 0.929 . S
C983 C981 1.433 . S
C983 N986 1.384 . S
C984 H975 0.929 . S
C984 C976 1.378 . S
C984 C979 1.350 . S
C985 H972 0.929 . S
C985 C977 1.433 . S
C985 N987 1.384 . S
N986 C982 1.427 . S
N986 C983 1.384 . S
N987 C979 1.427 . S
N987 C985 1.384 . S
H988 C994 0.930 . S
H989 C998 0.930 . S
H990 C1003 0.929 . S
H991 C1001 0.929 . S
H992 C996 0.929 . S
H993 C1002 0.929 . S
C994 H988 0.930 . S
C994 C995 1.367 . S
C994 C1002 1.378 . S
C995 C994 1.367 . S
C995 C1003 1.433 . S
C996 H992 0.929 . S
C996 C998 1.378 . S
C996 C1000 1.350 . S
C997 C1000 1.463 . S
C997 C1002 1.350 . S
C997 N1005 1.427 . S
C998 H989 0.930 . S
C998 C996 1.378 . S
C998 C999 1.367 . S
C999 C998 1.367 . S
C999 C1001 1.433 . S
C1000 C996 1.350 . S
C1000 C997 1.463 . S
C1000 N1004 1.427 . S
C1001 H991 0.929 . S
C1001 C999 1.433 . S
C1001 N1004 1.384 . S
C1002 H993 0.929 . S
C1002 C994 1.378 . S
C1002 C997 1.350 . S
C1003 H990 0.929 . S
C1003 C995 1.433 . S
C1003 N1005 1.384 . S
N1004 C1000 1.427 . S
N1004 C1001 1.384 . S
N1005 C997 1.427 . S
N1005 C1003 1.384 . S
H1006 C1012 0.930 . S
H1007 C1016 0.930 . S
H1008 C1021 0.929 . S
H1009 C1019 0.929 . S
H1010 C1014 0.929 . S
H1011 C1020 0.929 . S
C1012 H1006 0.930 . S
C1012 C1013 1.367 . S
C1012 C1020 1.378 . S
C1013 C1012 1.367 . S
C1013 C1021 1.433 . S
C1014 H1010 0.929 . S
C1014 C1016 1.378 . S
C1014 C1018 1.350 . S
C1015 C1018 1.463 . S
C1015 C1020 1.350 . S
C1015 N1023 1.427 . S
C1016 H1007 0.930 . S
C1016 C1014 1.378 . S
C1016 C1017 1.367 . S
C1017 C1016 1.367 . S
C1017 C1019 1.433 . S
C1018 C1014 1.350 . S
C1018 C1015 1.463 . S
C1018 N1022 1.427 . S
C1019 H1009 0.929 . S
C1019 C1017 1.433 . S
C1019 N1022 1.384 . S
C1020 H1011 0.929 . S
C1020 C1012 1.378 . S
C1020 C1015 1.350 . S
C1021 H1008 0.929 . S
C1021 C1013 1.433 . S
C1021 N1023 1.384 . S
N1022 C1018 1.427 . S
N1022 C1019 1.384 . S
N1023 C1015 1.427 . S
N1023 C1021 1.384 . S
H1024 C1030 0.930 . S
H1025 C1034 0.930 . S
H1026 C1039 0.929 1_655 S
H1027 C1037 0.929 . S
H1028 C1032 0.929 . S
H1029 C1038 0.929 . S
C1030 H1024 0.930 . S
C1030 C1031 1.367 . S
C1030 C1038 1.378 . S
C1031 C1030 1.367 . S
C1031 C1039 1.433 . S
C1032 H1028 0.929 . S
C1032 C1034 1.378 . S
C1032 C1036 1.350 . S
C1033 C1036 1.463 . S
C1033 C1038 1.350 . S
C1033 N1041 1.427 . S
C1034 H1025 0.930 . S
C1034 C1032 1.378 . S
C1034 C1035 1.367 . S
C1035 C1034 1.367 . S
C1035 C1037 1.433 . S
C1036 C1032 1.350 . S
C1036 C1033 1.463 . S
C1036 N1040 1.427 . S
C1037 H1027 0.929 . S
C1037 C1035 1.433 . S
C1037 N1040 1.384 . S
C1038 H1029 0.929 . S
C1038 C1030 1.378 . S
C1038 C1033 1.350 . S
C1039 H1026 0.929 1_455 S
C1039 C1031 1.433 . S
C1039 N1041 1.384 . S
N1040 C1036 1.427 . S
N1040 C1037 1.384 . S
N1041 C1033 1.427 . S
N1041 C1039 1.384 . S
H1042 C1048 0.930 . S
H1043 C1052 0.930 . S
H1044 C1057 0.929 . S
H1045 C1055 0.929 . S
H1046 C1050 0.929 . S
H1047 C1056 0.929 . S
C1048 H1042 0.930 . S
C1048 C1049 1.367 . S
C1048 C1056 1.378 . S
C1049 C1048 1.367 . S
C1049 C1057 1.433 . S
C1050 H1046 0.929 . S
C1050 C1052 1.378 . S
C1050 C1054 1.350 . S
C1051 C1054 1.463 . S
C1051 C1056 1.350 . S
C1051 N1059 1.427 . S
C1052 H1043 0.930 . S
C1052 C1050 1.378 . S
C1052 C1053 1.367 . S
C1053 C1052 1.367 . S
C1053 C1055 1.433 . S
C1054 C1050 1.350 . S
C1054 C1051 1.463 . S
C1054 N1058 1.427 . S
C1055 H1045 0.929 . S
C1055 C1053 1.433 . S
C1055 N1058 1.384 . S
C1056 H1047 0.929 . S
C1056 C1048 1.378 . S
C1056 C1051 1.350 . S
C1057 H1044 0.929 . S
C1057 C1049 1.433 . S
C1057 N1059 1.384 . S
N1058 C1054 1.427 . S
N1058 C1055 1.384 . S
N1059 C1051 1.427 . S
N1059 C1057 1.384 . S
H1060 C1066 0.930 . S
H1061 C1070 0.930 . S
H1062 C1075 0.929 . S
H1063 C1073 0.929 . S
H1064 C1068 0.929 . S
H1065 C1074 0.929 . S
C1066 H1060 0.930 . S
C1066 C1067 1.367 . S
C1066 C1074 1.378 . S
C1067 C1066 1.367 . S
C1067 C1075 1.433 . S
C1068 H1064 0.929 . S
C1068 C1070 1.378 . S
C1068 C1072 1.350 . S
C1069 C1072 1.463 . S
C1069 C1074 1.350 . S
C1069 N1077 1.427 . S
C1070 H1061 0.930 . S
C1070 C1068 1.378 . S
C1070 C1071 1.367 . S
C1071 C1070 1.367 . S
C1071 C1073 1.433 . S
C1072 C1068 1.350 . S
C1072 C1069 1.463 . S
C1072 N1076 1.427 . S
C1073 H1063 0.929 . S
C1073 C1071 1.433 . S
C1073 N1076 1.384 . S
C1074 H1065 0.929 . S
C1074 C1066 1.378 . S
C1074 C1069 1.350 . S
C1075 H1062 0.929 . S
C1075 C1067 1.433 . S
C1075 N1077 1.384 . S
N1076 C1072 1.427 . S
N1076 C1073 1.384 . S
N1077 C1069 1.427 . S
N1077 C1075 1.384 . S
H1078 C1084 0.930 . S
H1079 C1088 0.930 . S
H1080 C1093 0.929 . S
H1081 C1091 0.929 . S
H1082 C1086 0.929 . S
H1083 C1092 0.929 . S
C1084 H1078 0.930 . S
C1084 C1085 1.367 . S
C1084 C1092 1.378 . S
C1085 C1084 1.367 . S
C1085 C1093 1.433 . S
C1086 H1082 0.929 . S
C1086 C1088 1.378 . S
C1086 C1090 1.350 . S
C1087 C1090 1.463 . S
C1087 C1092 1.350 . S
C1087 N1095 1.427 . S
C1088 H1079 0.930 . S
C1088 C1086 1.378 . S
C1088 C1089 1.367 . S
C1089 C1088 1.367 . S
C1089 C1091 1.433 . S
C1090 C1086 1.350 . S
C1090 C1087 1.463 . S
C1090 N1094 1.427 . S
C1091 H1081 0.929 . S
C1091 C1089 1.433 . S
C1091 N1094 1.384 . S
C1092 H1083 0.929 . S
C1092 C1084 1.378 . S
C1092 C1087 1.350 . S
C1093 H1080 0.929 . S
C1093 C1085 1.433 . S
C1093 N1095 1.384 . S
N1094 C1090 1.427 . S
N1094 C1091 1.384 . S
N1095 C1087 1.427 . S
N1095 C1093 1.384 . S
H1096 C1102 0.944 . S
H1097 C1106 0.930 . S
H1098 C1111 0.929 . S
H1099 C1109 0.929 . S
H1100 C1104 0.929 . S
H1101 C1110 0.929 . S
C1102 H1096 0.944 . S
C1102 C1103 1.367 . S
C1102 C1110 1.378 . S
C1103 C1102 1.367 . S
C1103 C1111 1.433 . S
C1104 H1100 0.929 . S
C1104 C1106 1.378 . S
C1104 C1108 1.350 1_455 S
C1105 C1108 1.463 . S
C1105 C1110 1.350 . S
C1105 N1113 1.427 . S
C1106 H1097 0.930 . S
C1106 C1104 1.378 . S
C1106 C1107 1.367 . S
C1107 C1106 1.367 . S
C1107 C1109 1.433 1_455 S
C1108 C1104 1.350 1_655 S
C1108 C1105 1.463 . S
C1108 N1112 1.427 . S
C1109 H1099 0.929 . S
C1109 C1107 1.433 1_655 S
C1109 N1112 1.384 . S
C1110 H1101 0.929 . S
C1110 C1102 1.378 . S
C1110 C1105 1.350 . S
C1111 H1098 0.929 . S
C1111 C1103 1.433 . S
C1111 N1113 1.384 . S
N1112 C1108 1.427 . S
N1112 C1109 1.384 . S
N1113 C1105 1.427 . S
N1113 C1111 1.384 . S
H1114 C1120 0.930 . S
H1115 C1124 0.930 . S
H1116 C1129 0.929 . S
H1117 C1127 0.929 . S
H1118 C1122 0.929 . S
H1119 C1128 0.929 . S
C1120 H1114 0.930 . S
C1120 C1121 1.367 . S
C1120 C1128 1.378 . S
C1121 C1120 1.367 . S
C1121 C1129 1.433 . S
C1122 H1118 0.929 . S
C1122 C1124 1.378 . S
C1122 C1126 1.350 . S
C1123 C1126 1.463 . S
C1123 C1128 1.350 . S
C1123 N1131 1.427 . S
C1124 H1115 0.930 . S
C1124 C1122 1.378 . S
C1124 C1125 1.367 . S
C1125 C1124 1.367 . S
C1125 C1127 1.433 . S
C1126 C1122 1.350 . S
C1126 C1123 1.463 . S
C1126 N1130 1.427 . S
C1127 H1117 0.929 . S
C1127 C1125 1.433 . S
C1127 N1130 1.384 . S
C1128 H1119 0.929 . S
C1128 C1120 1.378 . S
C1128 C1123 1.350 . S
C1129 H1116 0.929 . S
C1129 C1121 1.433 . S
C1129 N1131 1.384 . S
N1130 C1126 1.427 . S
N1130 C1127 1.384 . S
N1131 C1123 1.427 . S
N1131 C1129 1.384 . S
H1132 C1138 0.930 . S
H1133 C1142 0.930 . S
H1134 C1147 0.929 . S
H1135 C1145 0.929 . S
H1136 C1140 0.929 . S
H1137 C1146 0.929 . S
C1138 H1132 0.930 . S
C1138 C1139 1.367 . S
C1138 C1146 1.378 . S
C1139 C1138 1.367 . S
C1139 C1147 1.433 . S
C1140 H1136 0.929 . S
C1140 C1142 1.378 . S
C1140 C1144 1.350 . S
C1141 C1144 1.463 . S
C1141 C1146 1.350 . S
C1141 N1149 1.427 . S
C1142 H1133 0.930 . S
C1142 C1140 1.378 . S
C1142 C1143 1.367 . S
C1143 C1142 1.367 . S
C1143 C1145 1.433 . S
C1144 C1140 1.350 . S
C1144 C1141 1.463 . S
C1144 N1148 1.427 . S
C1145 H1135 0.929 . S
C1145 C1143 1.433 . S
C1145 N1148 1.384 . S
C1146 H1137 0.929 . S
C1146 C1138 1.378 . S
C1146 C1141 1.350 . S
C1147 H1134 0.929 . S
C1147 C1139 1.433 . S
C1147 N1149 1.384 . S
N1148 C1144 1.427 . S
N1148 C1145 1.384 . S
N1149 C1141 1.427 . S
N1149 C1147 1.384 . S
H1150 C1156 0.930 . S
H1151 C1160 0.930 . S
H1152 C1165 0.929 . S
H1153 C1163 0.929 . S
H1154 C1158 0.929 . S
H1155 C1164 0.929 . S
C1156 H1150 0.930 . S
C1156 C1157 1.367 . S
C1156 C1164 1.378 . S
C1157 C1156 1.367 . S
C1157 C1165 1.433 . S
C1158 H1154 0.929 . S
C1158 C1160 1.378 . S
C1158 C1162 1.350 . S
C1159 C1162 1.463 . S
C1159 C1164 1.350 . S
C1159 N1167 1.427 . S
C1160 H1151 0.930 . S
C1160 C1158 1.378 . S
C1160 C1161 1.367 . S
C1161 C1160 1.367 . S
C1161 C1163 1.433 . S
C1162 C1158 1.350 . S
C1162 C1159 1.463 . S
C1162 N1166 1.427 . S
C1163 H1153 0.929 . S
C1163 C1161 1.433 . S
C1163 N1166 1.384 . S
C1164 H1155 0.929 . S
C1164 C1156 1.378 . S
C1164 C1159 1.350 . S
C1165 H1152 0.929 . S
C1165 C1157 1.433 . S
C1165 N1167 1.384 . S
N1166 C1162 1.427 . S
N1166 C1163 1.384 . S
N1167 C1159 1.427 . S
N1167 C1165 1.384 . S
H1168 C1174 0.930 1_455 S
H1169 C1178 0.930 . S
H1170 C1183 0.929 . S
H1171 C1181 0.929 . S
H1172 C1176 0.929 . S
H1173 C1182 0.929 . S
C1174 H1168 0.930 1_655 S
C1174 C1175 1.367 . S
C1174 C1182 1.378 1_655 S
C1175 C1174 1.367 . S
C1175 C1183 1.433 . S
C1176 H1172 0.929 . S
C1176 C1178 1.378 . S
C1176 C1180 1.350 . S
C1177 C1180 1.463 . S
C1177 C1182 1.350 1_655 S
C1177 N1185 1.427 . S
C1178 H1169 0.930 . S
C1178 C1176 1.378 . S
C1178 C1179 1.367 1_655 S
C1179 C1178 1.367 1_455 S
C1179 C1181 1.433 . S
C1180 C1176 1.350 . S
C1180 C1177 1.463 . S
C1180 N1184 1.427 1_655 S
C1181 H1171 0.929 . S
C1181 C1179 1.433 . S
C1181 N1184 1.384 . S
C1182 H1173 0.929 . S
C1182 C1174 1.378 1_455 S
C1182 C1177 1.350 1_455 S
C1183 H1170 0.929 . S
C1183 C1175 1.433 . S
C1183 N1185 1.384 . S
N1184 C1180 1.427 1_455 S
N1184 C1181 1.384 . S
N1185 C1177 1.427 . S
N1185 C1183 1.384 . S
H1186 C1192 0.930 . S
H1187 C1196 0.930 . S
H1188 C1201 0.929 . S
H1189 C1199 0.929 . S
H1190 C1194 0.929 . S
H1191 C1200 0.929 . S
C1192 H1186 0.930 . S
C1192 C1193 1.367 . S
C1192 C1200 1.378 . S
C1193 C1192 1.367 . S
C1193 C1201 1.433 . S
C1194 H1190 0.929 . S
C1194 C1196 1.378 . S
C1194 C1198 1.350 . S
C1195 C1198 1.463 . S
C1195 C1200 1.350 . S
C1195 N1203 1.427 . S
C1196 H1187 0.930 . S
C1196 C1194 1.378 . S
C1196 C1197 1.367 . S
C1197 C1196 1.367 . S
C1197 C1199 1.433 . S
C1198 C1194 1.350 . S
C1198 C1195 1.463 . S
C1198 N1202 1.427 . S
C1199 H1189 0.929 . S
C1199 C1197 1.433 . S
C1199 N1202 1.384 . S
C1200 H1191 0.929 . S
C1200 C1192 1.378 . S
C1200 C1195 1.350 . S
C1201 H1188 0.929 . S
C1201 C1193 1.433 . S
C1201 N1203 1.384 . S
N1202 C1198 1.427 . S
N1202 C1199 1.384 . S
N1203 C1195 1.427 . S
N1203 C1201 1.384 . S
H1204 C1210 0.930 . S
H1205 C1214 0.930 . S
H1206 C1219 0.929 . S
H1207 C1217 0.929 . S
H1208 C1212 0.929 . S
H1209 C1218 0.929 . S
C1210 H1204 0.930 . S
C1210 C1211 1.367 . S
C1210 C1218 1.378 . S
C1211 C1210 1.367 . S
C1211 C1219 1.433 . S
C1212 H1208 0.929 . S
C1212 C1214 1.378 . S
C1212 C1216 1.350 . S
C1213 C1216 1.463 . S
C1213 C1218 1.350 . S
C1213 N1221 1.427 . S
C1214 H1205 0.930 . S
C1214 C1212 1.378 . S
C1214 C1215 1.367 . S
C1215 C1214 1.367 . S
C1215 C1217 1.433 . S
C1216 C1212 1.350 . S
C1216 C1213 1.463 . S
C1216 N1220 1.427 . S
C1217 H1207 0.929 . S
C1217 C1215 1.433 . S
C1217 N1220 1.384 . S
C1218 H1209 0.929 . S
C1218 C1210 1.378 . S
C1218 C1213 1.350 . S
C1219 H1206 0.929 . S
C1219 C1211 1.433 . S
C1219 N1221 1.384 . S
N1220 C1216 1.427 . S
N1220 C1217 1.384 . S
N1221 C1213 1.427 . S
N1221 C1219 1.384 . S
H1222 C1228 0.930 . S
H1223 C1232 0.930 . S
H1224 C1237 0.929 . S
H1225 C1235 0.929 . S
H1226 C1230 0.929 . S
H1227 C1236 0.929 . S
C1228 H1222 0.930 . S
C1228 C1229 1.367 . S
C1228 C1236 1.378 . S
C1229 C1228 1.367 . S
C1229 C1237 1.433 . S
C1230 H1226 0.929 . S
C1230 C1232 1.378 . S
C1230 C1234 1.350 . S
C1231 C1234 1.463 . S
C1231 C1236 1.350 . S
C1231 N1239 1.427 . S
C1232 H1223 0.930 . S
C1232 C1230 1.378 . S
C1232 C1233 1.367 . S
C1233 C1232 1.367 . S
C1233 C1235 1.433 . S
C1234 C1230 1.350 . S
C1234 C1231 1.463 . S
C1234 N1238 1.427 . S
C1235 H1225 0.929 . S
C1235 C1233 1.433 . S
C1235 N1238 1.384 . S
C1236 H1227 0.929 . S
C1236 C1228 1.378 . S
C1236 C1231 1.350 . S
C1237 H1224 0.929 . S
C1237 C1229 1.433 . S
C1237 N1239 1.384 . S
N1238 C1234 1.427 . S
N1238 C1235 1.384 . S
N1239 C1231 1.427 . S
N1239 C1237 1.384 . S
H1240 C1246 0.930 . S
H1241 C1250 0.930 . S
H1242 C1255 0.929 . S
H1243 C1253 0.929 . S
H1244 C1248 0.929 . S
H1245 C1254 0.929 . S
C1246 H1240 0.930 . S
C1246 C1247 1.365 . S
C1246 C1254 1.378 . S
C1247 C1246 1.365 . S
C1247 C1255 1.436 1_556 S
C1248 H1244 0.929 . S
C1248 C1250 1.378 1_565 S
C1248 C1252 1.350 . S
C1249 C1252 1.463 . S
C1249 C1254 1.350 1_554 S
C1249 N1257 1.427 . S
C1250 H1241 0.930 . S
C1250 C1248 1.378 1_545 S
C1250 C1251 1.367 . S
C1251 C1250 1.367 . S
C1251 C1253 1.433 1_545 S
C1252 C1248 1.350 . S
C1252 C1249 1.463 . S
C1252 N1256 1.427 . S
C1253 H1243 0.929 . S
C1253 C1251 1.433 1_565 S
C1253 N1256 1.384 . S
C1254 H1245 0.929 . S
C1254 C1246 1.378 . S
C1254 C1249 1.350 1_556 S
C1255 H1242 0.929 . S
C1255 C1247 1.436 1_554 S
C1255 N1257 1.384 . S
N1256 C1252 1.427 . S
N1256 C1253 1.384 . S
N1257 C1249 1.427 . S
N1257 C1255 1.384 . S
H1258 C1264 0.930 1_556 S
H1259 C1268 0.930 . S
H1260 C1273 0.929 . S
H1261 C1271 0.929 1_556 S
H1262 C1266 0.929 . S
H1263 C1272 0.929 1_556 S
C1264 H1258 0.930 1_554 S
C1264 C1265 1.367 . S
C1264 C1272 1.378 . S
C1265 C1264 1.367 . S
C1265 C1273 1.433 . S
C1266 H1262 0.929 . S
C1266 C1268 1.378 . S
C1266 C1270 1.350 . S
C1267 C1270 1.463 . S
C1267 C1272 1.350 . S
C1267 N1275 1.427 . S
C1268 H1259 0.930 . S
C1268 C1266 1.378 . S
C1268 C1269 1.367 . S
C1269 C1268 1.367 . S
C1269 C1271 1.433 . S
C1270 C1266 1.350 . S
C1270 C1267 1.463 . S
C1270 N1274 1.427 . S
C1271 H1261 0.929 1_554 S
C1271 C1269 1.433 . S
C1271 N1274 1.384 . S
C1272 H1263 0.929 1_554 S
C1272 C1264 1.378 . S
C1272 C1267 1.350 . S
C1273 H1260 0.929 . S
C1273 C1265 1.433 . S
C1273 N1275 1.384 . S
N1274 C1270 1.427 . S
N1274 C1271 1.384 . S
N1275 C1267 1.427 . S
N1275 C1273 1.384 . S
H1276 C1282 0.930 . S
H1277 C1286 0.930 . S
H1278 C1291 0.929 . S
H1279 C1289 0.929 . S
H1280 C1284 0.929 . S
H1281 C1290 0.929 . S
C1282 H1276 0.930 . S
C1282 C1283 1.367 . S
C1282 C1290 1.378 . S
C1283 C1282 1.367 . S
C1283 C1291 1.433 . S
C1284 H1280 0.929 . S
C1284 C1286 1.378 . S
C1284 C1288 1.350 . S
C1285 C1288 1.463 . S
C1285 C1290 1.350 . S
C1285 N1293 1.427 . S
C1286 H1277 0.930 . S
C1286 C1284 1.378 . S
C1286 C1287 1.367 . S
C1287 C1286 1.367 . S
C1287 C1289 1.433 . S
C1288 C1284 1.350 . S
C1288 C1285 1.463 . S
C1288 N1292 1.427 . S
C1289 H1279 0.929 . S
C1289 C1287 1.433 . S
C1289 N1292 1.384 . S
C1290 H1281 0.929 . S
C1290 C1282 1.378 . S
C1290 C1285 1.350 . S
C1291 H1278 0.929 . S
C1291 C1283 1.433 . S
C1291 N1293 1.384 . S
N1292 C1288 1.427 . S
N1292 C1289 1.384 . S
N1293 C1285 1.427 . S
N1293 C1291 1.384 . S
H1294 C1300 0.930 . S
H1295 C1304 0.930 . S
H1296 C1309 0.929 . S
H1297 C1307 0.929 . S
H1298 C1302 0.929 . S
H1299 C1308 0.929 . S
C1300 H1294 0.930 . S
C1300 C1301 1.367 . S
C1300 C1308 1.378 . S
C1301 C1300 1.367 . S
C1301 C1309 1.433 . S
C1302 H1298 0.929 . S
C1302 C1304 1.378 . S
C1302 C1306 1.350 . S
C1303 C1306 1.463 . S
C1303 C1308 1.350 . S
C1303 N1311 1.427 . S
C1304 H1295 0.930 . S
C1304 C1302 1.378 . S
C1304 C1305 1.367 . S
C1305 C1304 1.367 . S
C1305 C1307 1.433 . S
C1306 C1302 1.350 . S
C1306 C1303 1.463 . S
C1306 N1310 1.427 . S
C1307 H1297 0.929 . S
C1307 C1305 1.433 . S
C1307 N1310 1.384 . S
C1308 H1299 0.929 . S
C1308 C1300 1.378 . S
C1308 C1303 1.350 . S
C1309 H1296 0.929 . S
C1309 C1301 1.433 . S
C1309 N1311 1.384 . S
N1310 C1306 1.427 . S
N1310 C1307 1.384 . S
N1311 C1303 1.427 . S
N1311 C1309 1.384 . S
H1312 C1318 0.930 . S
H1313 C1322 0.930 . S
H1314 C1327 0.929 . S
H1315 C1325 0.929 . S
H1316 C1320 0.929 . S
H1317 C1326 0.929 . S
C1318 H1312 0.930 . S
C1318 C1319 1.367 . S
C1318 C1326 1.378 . S
C1319 C1318 1.367 . S
C1319 C1327 1.433 . S
C1320 H1316 0.929 . S
C1320 C1322 1.378 . S
C1320 C1324 1.350 . S
C1321 C1324 1.463 . S
C1321 C1326 1.350 . S
C1321 N1329 1.427 . S
C1322 H1313 0.930 . S
C1322 C1320 1.378 . S
C1322 C1323 1.367 . S
C1323 C1322 1.367 . S
C1323 C1325 1.433 . S
C1324 C1320 1.350 . S
C1324 C1321 1.463 . S
C1324 N1328 1.427 . S
C1325 H1315 0.929 . S
C1325 C1323 1.433 . S
C1325 N1328 1.384 . S
C1326 H1317 0.929 . S
C1326 C1318 1.378 . S
C1326 C1321 1.350 . S
C1327 H1314 0.929 . S
C1327 C1319 1.433 . S
C1327 N1329 1.384 . S
N1328 C1324 1.427 . S
N1328 C1325 1.384 . S
N1329 C1321 1.427 . S
N1329 C1327 1.384 . S
H1330 C1336 0.930 . S
H1331 C1340 0.930 . S
H1332 C1345 0.929 . S
H1333 C1343 0.929 . S
H1334 C1338 0.929 . S
H1335 C1344 0.929 . S
C1336 H1330 0.930 . S
C1336 C1337 1.367 . S
C1336 C1344 1.378 . S
C1337 C1336 1.367 . S
C1337 C1345 1.433 . S
C1338 H1334 0.929 . S
C1338 C1340 1.378 . S
C1338 C1342 1.350 . S
C1339 C1342 1.463 . S
C1339 C1344 1.350 . S
C1339 N1347 1.427 . S
C1340 H1331 0.930 . S
C1340 C1338 1.378 . S
C1340 C1341 1.367 . S
C1341 C1340 1.367 . S
C1341 C1343 1.433 . S
C1342 C1338 1.350 . S
C1342 C1339 1.463 . S
C1342 N1346 1.427 . S
C1343 H1333 0.929 . S
C1343 C1341 1.433 . S
C1343 N1346 1.384 . S
C1344 H1335 0.929 . S
C1344 C1336 1.378 . S
C1344 C1339 1.350 . S
C1345 H1332 0.929 . S
C1345 C1337 1.433 . S
C1345 N1347 1.384 . S
N1346 C1342 1.427 . S
N1346 C1343 1.384 . S
N1347 C1339 1.427 . S
N1347 C1345 1.384 . S
H1348 C1354 0.930 . S
H1349 C1358 0.930 . S
H1350 C1363 0.929 . S
H1351 C1361 0.929 . S
H1352 C1356 0.929 . S
H1353 C1362 0.929 . S
C1354 H1348 0.930 . S
C1354 C1355 1.367 . S
C1354 C1362 1.378 . S
C1355 C1354 1.367 . S
C1355 C1363 1.433 . S
C1356 H1352 0.929 . S
C1356 C1358 1.378 . S
C1356 C1360 1.350 . S
C1357 C1360 1.463 . S
C1357 C1362 1.350 . S
C1357 N1365 1.427 . S
C1358 H1349 0.930 . S
C1358 C1356 1.378 . S
C1358 C1359 1.367 . S
C1359 C1358 1.367 . S
C1359 C1361 1.433 . S
C1360 C1356 1.350 . S
C1360 C1357 1.463 . S
C1360 N1364 1.427 . S
C1361 H1351 0.929 . S
C1361 C1359 1.433 . S
C1361 N1364 1.384 . S
C1362 H1353 0.929 . S
C1362 C1354 1.378 . S
C1362 C1357 1.350 . S
C1363 H1350 0.929 . S
C1363 C1355 1.433 . S
C1363 N1365 1.384 . S
N1364 C1360 1.427 . S
N1364 C1361 1.384 . S
N1365 C1357 1.427 . S
N1365 C1363 1.384 . S
H1366 C1372 0.930 . S
H1367 C1376 0.930 . S
H1368 C1381 0.929 . S
H1369 C1379 0.929 . S
H1370 C1374 0.929 . S
H1371 C1380 0.929 . S
C1372 H1366 0.930 . S
C1372 C1373 1.367 . S
C1372 C1380 1.378 . S
C1373 C1372 1.367 . S
C1373 C1381 1.433 . S
C1374 H1370 0.929 . S
C1374 C1376 1.378 . S
C1374 C1378 1.350 . S
C1375 C1378 1.463 . S
C1375 C1380 1.350 . S
C1375 N1383 1.427 . S
C1376 H1367 0.930 . S
C1376 C1374 1.378 . S
C1376 C1377 1.367 . S
C1377 C1376 1.367 . S
C1377 C1379 1.433 . S
C1378 C1374 1.350 . S
C1378 C1375 1.463 . S
C1378 N1382 1.427 . S
C1379 H1369 0.929 . S
C1379 C1377 1.433 . S
C1379 N1382 1.384 . S
C1380 H1371 0.929 . S
C1380 C1372 1.378 . S
C1380 C1375 1.350 . S
C1381 H1368 0.929 . S
C1381 C1373 1.433 . S
C1381 N1383 1.384 . S
N1382 C1378 1.427 . S
N1382 C1379 1.384 . S
N1383 C1375 1.427 . S
N1383 C1381 1.384 . S
H1384 C1390 0.930 . S
H1385 C1394 0.933 . S
H1386 C1399 0.929 . S
H1387 C1397 0.929 . S
H1388 C1392 0.929 . S
H1389 C1398 0.929 . S
C1390 H1384 0.930 . S
C1390 C1391 1.367 . S
C1390 C1398 1.378 . S
C1391 C1390 1.367 . S
C1391 C1399 1.433 . S
C1392 H1388 0.929 . S
C1392 C1394 1.378 . S
C1392 C1396 1.350 . S
C1393 C1396 1.463 . S
C1393 C1398 1.350 . S
C1393 N1401 1.427 . S
C1394 H1385 0.933 . S
C1394 C1392 1.378 . S
C1394 C1395 1.367 . S
C1395 C1394 1.367 . S
C1395 C1397 1.433 . S
C1396 C1392 1.350 . S
C1396 C1393 1.463 . S
C1396 N1400 1.427 . S
C1397 H1387 0.929 . S
C1397 C1395 1.433 . S
C1397 N1400 1.384 . S
C1398 H1389 0.929 . S
C1398 C1390 1.378 . S
C1398 C1393 1.350 . S
C1399 H1386 0.929 . S
C1399 C1391 1.433 . S
C1399 N1401 1.384 . S
N1400 C1396 1.427 . S
N1400 C1397 1.384 . S
N1401 C1393 1.427 . S
N1401 C1399 1.384 . S
H1402 C1408 0.930 . S
H1403 C1412 0.930 . S
H1404 C1417 0.929 . S
H1405 C1415 0.929 . S
H1406 C1410 0.929 . S
H1407 C1416 0.929 . S
C1408 H1402 0.930 . S
C1408 C1409 1.367 . S
C1408 C1416 1.378 . S
C1409 C1408 1.367 . S
C1409 C1417 1.433 . S
C1410 H1406 0.929 . S
C1410 C1412 1.378 . S
C1410 C1414 1.350 . S
C1411 C1414 1.463 . S
C1411 C1416 1.350 . S
C1411 N1419 1.427 . S
C1412 H1403 0.930 . S
C1412 C1410 1.378 . S
C1412 C1413 1.367 . S
C1413 C1412 1.367 . S
C1413 C1415 1.433 . S
C1414 C1410 1.350 . S
C1414 C1411 1.463 . S
C1414 N1418 1.427 . S
C1415 H1405 0.929 . S
C1415 C1413 1.433 . S
C1415 N1418 1.384 . S
C1416 H1407 0.929 . S
C1416 C1408 1.378 . S
C1416 C1411 1.350 . S
C1417 H1404 0.929 . S
C1417 C1409 1.433 . S
C1417 N1419 1.384 . S
N1418 C1414 1.427 . S
N1418 C1415 1.384 . S
N1419 C1411 1.427 . S
N1419 C1417 1.384 . S
H1420 C1426 0.930 . S
H1421 C1430 0.930 . S
H1422 C1435 0.929 . S
H1423 C1433 0.929 . S
H1424 C1428 0.929 . S
H1425 C1434 0.929 . S
C1426 H1420 0.930 . S
C1426 C1427 1.367 . S
C1426 C1434 1.378 . S
C1427 C1426 1.367 . S
C1427 C1435 1.433 . S
C1428 H1424 0.929 . S
C1428 C1430 1.378 . S
C1428 C1432 1.350 . S
C1429 C1432 1.463 . S
C1429 C1434 1.350 . S
C1429 N1437 1.427 . S
C1430 H1421 0.930 . S
C1430 C1428 1.378 . S
C1430 C1431 1.367 . S
C1431 C1430 1.367 . S
C1431 C1433 1.433 . S
C1432 C1428 1.350 . S
C1432 C1429 1.463 . S
C1432 N1436 1.427 . S
C1433 H1423 0.929 . S
C1433 C1431 1.433 . S
C1433 N1436 1.384 . S
C1434 H1425 0.929 . S
C1434 C1426 1.378 . S
C1434 C1429 1.350 . S
C1435 H1422 0.929 . S
C1435 C1427 1.433 . S
C1435 N1437 1.384 . S
N1436 C1432 1.427 . S
N1436 C1433 1.384 . S
N1437 C1429 1.427 . S
N1437 C1435 1.384 . S
H1438 C1444 0.930 . S
H1439 C1448 0.930 . S
H1440 C1453 0.929 . S
H1441 C1451 0.929 . S
H1442 C1446 0.929 . S
H1443 C1452 0.929 . S
C1444 H1438 0.930 . S
C1444 C1445 1.367 . S
C1444 C1452 1.378 . S
C1445 C1444 1.367 . S
C1445 C1453 1.433 . S
C1446 H1442 0.929 . S
C1446 C1448 1.378 . S
C1446 C1450 1.350 . S
C1447 C1450 1.463 . S
C1447 C1452 1.350 . S
C1447 N1455 1.427 . S
C1448 H1439 0.930 . S
C1448 C1446 1.378 . S
C1448 C1449 1.367 . S
C1449 C1448 1.367 . S
C1449 C1451 1.433 . S
C1450 C1446 1.350 . S
C1450 C1447 1.463 . S
C1450 N1454 1.427 . S
C1451 H1441 0.929 . S
C1451 C1449 1.433 . S
C1451 N1454 1.384 . S
C1452 H1443 0.929 . S
C1452 C1444 1.378 . S
C1452 C1447 1.350 . S
C1453 H1440 0.929 . S
C1453 C1445 1.433 . S
C1453 N1455 1.384 . S
N1454 C1450 1.427 . S
N1454 C1451 1.384 . S
N1455 C1447 1.427 . S
N1455 C1453 1.384 . S
H1456 C1462 0.930 . S
H1457 C1466 0.930 . S
H1458 C1471 0.929 . S
H1459 C1469 0.929 . S
H1460 C1464 0.898 1_655 S
H1461 C1470 0.929 . S
C1462 H1456 0.930 . S
C1462 C1463 1.367 . S
C1462 C1470 1.378 . S
C1463 C1462 1.367 . S
C1463 C1471 1.433 . S
C1464 H1460 0.898 1_455 S
C1464 C1466 1.377 1_455 S
C1464 C1468 1.384 . S
C1465 C1468 1.463 . S
C1465 C1470 1.350 . S
C1465 N1473 1.427 . S
C1466 H1457 0.930 . S
C1466 C1464 1.377 1_655 S
C1466 C1467 1.367 1_655 S
C1467 C1466 1.367 1_455 S
C1467 C1469 1.433 . S
C1468 C1464 1.384 . S
C1468 C1465 1.463 . S
C1468 N1472 1.427 . S
C1469 H1459 0.929 . S
C1469 C1467 1.433 . S
C1469 N1472 1.384 . S
C1470 H1461 0.929 . S
C1470 C1462 1.378 . S
C1470 C1465 1.350 . S
C1471 H1458 0.929 . S
C1471 C1463 1.433 . S
C1471 N1473 1.384 . S
N1472 C1468 1.427 . S
N1472 C1469 1.384 . S
N1473 C1465 1.427 . S
N1473 C1471 1.384 . S
H1474 C1480 0.930 . S
H1475 C1484 0.930 . S
H1476 C1489 0.929 . S
H1477 C1487 0.929 . S
H1478 C1482 0.929 . S
H1479 C1488 0.929 . S
C1480 H1474 0.930 . S
C1480 C1481 1.367 . S
C1480 C1488 1.378 . S
C1481 C1480 1.367 . S
C1481 C1489 1.433 . S
C1482 H1478 0.929 . S
C1482 C1484 1.378 . S
C1482 C1486 1.350 . S
C1483 C1486 1.463 . S
C1483 C1488 1.350 . S
C1483 N1491 1.427 . S
C1484 H1475 0.930 . S
C1484 C1482 1.378 . S
C1484 C1485 1.367 . S
C1485 C1484 1.367 . S
C1485 C1487 1.433 . S
C1486 C1482 1.350 . S
C1486 C1483 1.463 . S
C1486 N1490 1.427 . S
C1487 H1477 0.929 . S
C1487 C1485 1.433 . S
C1487 N1490 1.384 . S
C1488 H1479 0.929 . S
C1488 C1480 1.378 . S
C1488 C1483 1.350 . S
C1489 H1476 0.929 . S
C1489 C1481 1.433 . S
C1489 N1491 1.384 . S
N1490 C1486 1.427 . S
N1490 C1487 1.384 . S
N1491 C1483 1.427 . S
N1491 C1489 1.384 . S
H1492 C1498 0.930 . S
H1493 C1502 0.930 . S
H1494 C1507 0.929 . S
H1495 C1505 0.929 . S
H1496 C1500 0.929 . S
H1497 C1506 0.929 . S
C1498 H1492 0.930 . S
C1498 C1499 1.367 . S
C1498 C1506 1.378 . S
C1499 C1498 1.367 . S
C1499 C1507 1.433 . S
C1500 H1496 0.929 . S
C1500 C1502 1.378 . S
C1500 C1504 1.350 . S
C1501 C1504 1.463 . S
C1501 C1506 1.350 . S
C1501 N1509 1.427 . S
C1502 H1493 0.930 . S
C1502 C1500 1.378 . S
C1502 C1503 1.367 . S
C1503 C1502 1.367 . S
C1503 C1505 1.433 1_556 S
C1504 C1500 1.350 . S
C1504 C1501 1.463 . S
C1504 N1508 1.427 . S
C1505 H1495 0.929 . S
C1505 C1503 1.433 1_554 S
C1505 N1508 1.384 1_554 S
C1506 H1497 0.929 . S
C1506 C1498 1.378 . S
C1506 C1501 1.350 . S
C1507 H1494 0.929 . S
C1507 C1499 1.433 . S
C1507 N1509 1.384 . S
N1508 C1504 1.427 . S
N1508 C1505 1.384 1_556 S
N1509 C1501 1.427 . S
N1509 C1507 1.384 . S
H1510 C1516 0.930 . S
H1511 C1520 0.930 . S
H1512 C1525 0.929 . S
H1513 C1523 0.929 . S
H1514 C1518 0.929 . S
H1515 C1524 0.929 . S
C1516 H1510 0.930 . S
C1516 C1517 1.367 . S
C1516 C1524 1.378 . S
C1517 C1516 1.367 . S
C1517 C1525 1.433 . S
C1518 H1514 0.929 . S
C1518 C1520 1.378 . S
C1518 C1522 1.350 . S
C1519 C1522 1.463 . S
C1519 C1524 1.350 . S
C1519 N1527 1.427 . S
C1520 H1511 0.930 . S
C1520 C1518 1.378 . S
C1520 C1521 1.367 . S
C1521 C1520 1.367 . S
C1521 C1523 1.433 . S
C1522 C1518 1.350 . S
C1522 C1519 1.463 . S
C1522 N1526 1.427 . S
C1523 H1513 0.929 . S
C1523 C1521 1.433 . S
C1523 N1526 1.384 . S
C1524 H1515 0.929 . S
C1524 C1516 1.378 . S
C1524 C1519 1.350 . S
C1525 H1512 0.929 . S
C1525 C1517 1.433 . S
C1525 N1527 1.384 . S
N1526 C1522 1.427 . S
N1526 C1523 1.384 . S
N1527 C1519 1.427 . S
N1527 C1525 1.384 . S
H1528 C1534 0.930 . S
H1529 C1538 0.930 . S
H1530 C1543 0.929 . S
H1531 C1541 0.929 . S
H1532 C1536 0.929 . S
H1533 C1542 0.929 . S
C1534 H1528 0.930 . S
C1534 C1535 1.367 . S
C1534 C1542 1.378 . S
C1535 C1534 1.367 . S
C1535 C1543 1.433 . S
C1536 H1532 0.929 . S
C1536 C1538 1.378 . S
C1536 C1540 1.350 . S
C1537 C1540 1.463 . S
C1537 C1542 1.350 . S
C1537 N1545 1.427 . S
C1538 H1529 0.930 . S
C1538 C1536 1.378 . S
C1538 C1539 1.367 . S
C1539 C1538 1.367 . S
C1539 C1541 1.433 . S
C1540 C1536 1.350 . S
C1540 C1537 1.463 . S
C1540 N1544 1.427 . S
C1541 H1531 0.929 . S
C1541 C1539 1.433 . S
C1541 N1544 1.384 . S
C1542 H1533 0.929 . S
C1542 C1534 1.378 . S
C1542 C1537 1.350 . S
C1543 H1530 0.929 . S
C1543 C1535 1.433 . S
C1543 N1545 1.384 . S
N1544 C1540 1.427 . S
N1544 C1541 1.384 . S
N1545 C1537 1.427 . S
N1545 C1543 1.384 . S
H1546 C1552 0.930 . S
H1547 C1556 0.930 . S
H1548 C1561 0.929 . S
H1549 C1559 0.929 . S
H1550 C1554 0.929 . S
H1551 C1560 0.929 . S
C1552 H1546 0.930 . S
C1552 C1553 1.367 . S
C1552 C1560 1.378 . S
C1553 C1552 1.367 . S
C1553 C1561 1.433 . S
C1554 H1550 0.929 . S
C1554 C1556 1.378 . S
C1554 C1558 1.350 . S
C1555 C1558 1.463 . S
C1555 C1560 1.350 . S
C1555 N1563 1.427 . S
C1556 H1547 0.930 . S
C1556 C1554 1.378 . S
C1556 C1557 1.367 . S
C1557 C1556 1.367 . S
C1557 C1559 1.433 . S
C1558 C1554 1.350 . S
C1558 C1555 1.463 . S
C1558 N1562 1.427 . S
C1559 H1549 0.929 . S
C1559 C1557 1.433 . S
C1559 N1562 1.384 . S
C1560 H1551 0.929 . S
C1560 C1552 1.378 . S
C1560 C1555 1.350 . S
C1561 H1548 0.929 . S
C1561 C1553 1.433 . S
C1561 N1563 1.384 . S
N1562 C1558 1.427 . S
N1562 C1559 1.384 . S
N1563 C1555 1.427 . S
N1563 C1561 1.384 . S
H1564 C1570 0.930 . S
H1565 C1574 0.930 . S
H1566 C1579 0.929 . S
H1567 C1577 0.929 . S
H1568 C1572 0.929 . S
H1569 C1578 0.919 1_565 S
C1570 H1564 0.930 . S
C1570 C1571 1.367 1_565 S
C1570 C1578 1.379 1_565 S
C1571 C1570 1.367 1_545 S
C1571 C1579 1.433 . S
C1572 H1568 0.929 . S
C1572 C1574 1.378 . S
C1572 C1576 1.350 . S
C1573 C1576 1.463 . S
C1573 C1578 1.359 . S
C1573 N1581 1.427 . S
C1574 H1565 0.930 . S
C1574 C1572 1.378 . S
C1574 C1575 1.367 . S
C1575 C1574 1.367 . S
C1575 C1577 1.433 . S
C1576 C1572 1.350 . S
C1576 C1573 1.463 . S
C1576 N1580 1.427 . S
C1577 H1567 0.929 . S
C1577 C1575 1.433 . S
C1577 N1580 1.384 . S
C1578 H1569 0.919 1_545 S
C1578 C1570 1.379 1_545 S
C1578 C1573 1.359 . S
C1579 H1566 0.929 . S
C1579 C1571 1.433 . S
C1579 N1581 1.384 . S
N1580 C1576 1.427 . S
N1580 C1577 1.384 . S
N1581 C1573 1.427 . S
N1581 C1579 1.384 . S
H1582 C1588 0.930 . S
H1583 C1592 0.930 . S
H1584 C1597 0.929 . S
H1585 C1595 0.929 . S
H1586 C1590 0.929 . S
H1587 C1596 0.929 . S
C1588 H1582 0.930 . S
C1588 C1589 1.367 . S
C1588 C1596 1.378 . S
C1589 C1588 1.367 . S
C1589 C1597 1.433 . S
C1590 H1586 0.929 . S
C1590 C1592 1.378 . S
C1590 C1594 1.350 . S
C1591 C1594 1.463 . S
C1591 C1596 1.350 . S
C1591 N1599 1.427 . S
C1592 H1583 0.930 . S
C1592 C1590 1.378 . S
C1592 C1593 1.367 . S
C1593 C1592 1.367 . S
C1593 C1595 1.433 . S
C1594 C1590 1.350 . S
C1594 C1591 1.463 . S
C1594 N1598 1.427 . S
C1595 H1585 0.929 . S
C1595 C1593 1.433 . S
C1595 N1598 1.384 . S
C1596 H1587 0.929 . S
C1596 C1588 1.378 . S
C1596 C1591 1.350 . S
C1597 H1584 0.929 . S
C1597 C1589 1.433 . S
C1597 N1599 1.384 . S
N1598 C1594 1.427 . S
N1598 C1595 1.384 . S
N1599 C1591 1.427 . S
N1599 C1597 1.384 . S
H1600 C1606 0.930 . S
H1601 C1610 0.930 . S
H1602 C1615 0.929 . S
H1603 C1613 0.929 . S
H1604 C1608 0.929 . S
H1605 C1614 0.929 . S
C1606 H1600 0.930 . S
C1606 C1607 1.367 . S
C1606 C1614 1.378 . S
C1607 C1606 1.367 . S
C1607 C1615 1.433 . S
C1608 H1604 0.929 . S
C1608 C1610 1.378 . S
C1608 C1612 1.350 . S
C1609 C1612 1.463 . S
C1609 C1614 1.350 . S
C1609 N1617 1.427 . S
C1610 H1601 0.930 . S
C1610 C1608 1.378 . S
C1610 C1611 1.367 . S
C1611 C1610 1.367 . S
C1611 C1613 1.433 . S
C1612 C1608 1.350 . S
C1612 C1609 1.463 . S
C1612 N1616 1.427 . S
C1613 H1603 0.929 . S
C1613 C1611 1.433 . S
C1613 N1616 1.384 . S
C1614 H1605 0.929 . S
C1614 C1606 1.378 . S
C1614 C1609 1.350 . S
C1615 H1602 0.929 . S
C1615 C1607 1.433 . S
C1615 N1617 1.384 . S
N1616 C1612 1.427 . S
N1616 C1613 1.384 . S
N1617 C1609 1.427 . S
N1617 C1615 1.384 . S
H1618 C1624 0.930 . S
H1619 C1628 0.930 . S
H1620 C1633 0.929 . S
H1621 C1631 0.929 . S
H1622 C1626 0.929 . S
H1623 C1632 0.929 . S
C1624 H1618 0.930 . S
C1624 C1625 1.367 . S
C1624 C1632 1.378 . S
C1625 C1624 1.367 . S
C1625 C1633 1.433 . S
C1626 H1622 0.929 . S
C1626 C1628 1.378 . S
C1626 C1630 1.350 . S
C1627 C1630 1.463 . S
C1627 C1632 1.350 . S
C1627 N1635 1.427 . S
C1628 H1619 0.930 . S
C1628 C1626 1.378 . S
C1628 C1629 1.367 . S
C1629 C1628 1.367 . S
C1629 C1631 1.433 . S
C1630 C1626 1.350 . S
C1630 C1627 1.463 . S
C1630 N1634 1.427 . S
C1631 H1621 0.929 . S
C1631 C1629 1.433 . S
C1631 N1634 1.384 . S
C1632 H1623 0.929 . S
C1632 C1624 1.378 . S
C1632 C1627 1.350 . S
C1633 H1620 0.929 . S
C1633 C1625 1.433 . S
C1633 N1635 1.384 . S
N1634 C1630 1.427 . S
N1634 C1631 1.384 . S
N1635 C1627 1.427 . S
N1635 C1633 1.384 . S
H1636 C1642 0.930 . S
H1637 C1646 0.930 . S
H1638 C1651 0.929 . S
H1639 C1649 0.929 . S
H1640 C1644 0.929 . S
H1641 C1650 0.929 . S
C1642 H1636 0.930 . S
C1642 C1643 1.374 . S
C1642 C1650 1.378 . S
C1643 C1642 1.374 . S
C1643 C1651 1.423 1_545 S
C1644 H1640 0.929 . S
C1644 C1646 1.378 . S
C1644 C1648 1.350 . S
C1645 C1648 1.463 . S
C1645 C1650 1.350 1_565 S
C1645 N1653 1.427 . S
C1646 H1637 0.930 . S
C1646 C1644 1.378 . S
C1646 C1647 1.367 . S
C1647 C1646 1.367 . S
C1647 C1649 1.433 1_565 S
C1648 C1644 1.350 . S
C1648 C1645 1.463 . S
C1648 N1652 1.427 1_565 S
C1649 H1639 0.929 . S
C1649 C1647 1.433 1_545 S
C1649 N1652 1.384 . S
C1650 H1641 0.929 . S
C1650 C1642 1.378 . S
C1650 C1645 1.350 1_545 S
C1651 H1638 0.929 . S
C1651 C1643 1.423 1_565 S
C1651 N1653 1.384 . S
N1652 C1648 1.427 1_545 S
N1652 C1649 1.384 . S
N1653 C1645 1.427 . S
N1653 C1651 1.384 . S
H1654 C1660 0.930 . S
H1655 C1664 0.930 . S
H1656 C1669 0.929 . S
H1657 C1667 0.929 . S
H1658 C1662 0.929 . S
H1659 C1668 0.929 . S
C1660 H1654 0.930 . S
C1660 C1661 1.367 . S
C1660 C1668 1.378 . S
C1661 C1660 1.367 . S
C1661 C1669 1.433 . S
C1662 H1658 0.929 . S
C1662 C1664 1.378 . S
C1662 C1666 1.350 . S
C1663 C1666 1.463 . S
C1663 C1668 1.350 . S
C1663 N1671 1.427 . S
C1664 H1655 0.930 . S
C1664 C1662 1.378 . S
C1664 C1665 1.367 . S
C1665 C1664 1.367 . S
C1665 C1667 1.433 . S
C1666 C1662 1.350 . S
C1666 C1663 1.463 . S
C1666 N1670 1.427 . S
C1667 H1657 0.929 . S
C1667 C1665 1.433 . S
C1667 N1670 1.384 . S
C1668 H1659 0.929 . S
C1668 C1660 1.378 . S
C1668 C1663 1.350 . S
C1669 H1656 0.929 . S
C1669 C1661 1.433 . S
C1669 N1671 1.384 . S
N1670 C1666 1.427 . S
N1670 C1667 1.384 . S
N1671 C1663 1.427 . S
N1671 C1669 1.384 . S
H1672 C1678 0.930 . S
H1673 C1682 0.930 . S
H1674 C1687 0.929 . S
H1675 C1685 0.929 . S
H1676 C1680 0.929 . S
H1677 C1686 0.929 . S
C1678 H1672 0.930 . S
C1678 C1679 1.367 . S
C1678 C1686 1.378 . S
C1679 C1678 1.367 . S
C1679 C1687 1.433 . S
C1680 H1676 0.929 . S
C1680 C1682 1.378 1_554 S
C1680 C1684 1.350 . S
C1681 C1684 1.463 . S
C1681 C1686 1.350 . S
C1681 N1689 1.427 . S
C1682 H1673 0.930 . S
C1682 C1680 1.378 1_556 S
C1682 C1683 1.367 1_556 S
C1683 C1682 1.367 1_554 S
C1683 C1685 1.433 . S
C1684 C1680 1.350 . S
C1684 C1681 1.463 . S
C1684 N1688 1.427 . S
C1685 H1675 0.929 . S
C1685 C1683 1.433 . S
C1685 N1688 1.384 . S
C1686 H1677 0.929 . S
C1686 C1678 1.378 . S
C1686 C1681 1.350 . S
C1687 H1674 0.929 . S
C1687 C1679 1.433 . S
C1687 N1689 1.384 . S
N1688 C1684 1.427 . S
N1688 C1685 1.384 . S
N1689 C1681 1.427 . S
N1689 C1687 1.384 . S
H1690 C1696 0.930 . S
H1691 C1700 0.930 . S
H1692 C1705 0.929 . S
H1693 C1703 0.929 . S
H1694 C1698 0.929 . S
H1695 C1704 0.929 . S
C1696 H1690 0.930 . S
C1696 C1697 1.367 . S
C1696 C1704 1.378 . S
C1697 C1696 1.367 . S
C1697 C1705 1.433 . S
C1698 H1694 0.929 . S
C1698 C1700 1.378 . S
C1698 C1702 1.350 . S
C1699 C1702 1.463 . S
C1699 C1704 1.350 . S
C1699 N1707 1.427 . S
C1700 H1691 0.930 . S
C1700 C1698 1.378 . S
C1700 C1701 1.367 . S
C1701 C1700 1.367 . S
C1701 C1703 1.433 . S
C1702 C1698 1.350 . S
C1702 C1699 1.463 . S
C1702 N1706 1.427 . S
C1703 H1693 0.929 . S
C1703 C1701 1.433 . S
C1703 N1706 1.384 . S
C1704 H1695 0.929 . S
C1704 C1696 1.378 . S
C1704 C1699 1.350 . S
C1705 H1692 0.929 . S
C1705 C1697 1.433 . S
C1705 N1707 1.384 . S
N1706 C1702 1.427 . S
N1706 C1703 1.384 . S
N1707 C1699 1.427 . S
N1707 C1705 1.384 . S
H1708 C1714 0.930 . S
H1709 C1718 0.930 . S
H1710 C1723 0.929 . S
H1711 C1721 0.929 . S
H1712 C1716 0.929 . S
H1713 C1722 0.929 . S
C1714 H1708 0.930 . S
C1714 C1715 1.367 . S
C1714 C1722 1.378 . S
C1715 C1714 1.367 . S
C1715 C1723 1.433 . S
C1716 H1712 0.929 . S
C1716 C1718 1.378 . S
C1716 C1720 1.350 . S
C1717 C1720 1.463 . S
C1717 C1722 1.350 . S
C1717 N1725 1.427 . S
C1718 H1709 0.930 . S
C1718 C1716 1.378 . S
C1718 C1719 1.367 . S
C1719 C1718 1.367 . S
C1719 C1721 1.433 . S
C1720 C1716 1.350 . S
C1720 C1717 1.463 . S
C1720 N1724 1.427 . S
C1721 H1711 0.929 . S
C1721 C1719 1.433 . S
C1721 N1724 1.384 . S
C1722 H1713 0.929 . S
C1722 C1714 1.378 . S
C1722 C1717 1.350 . S
C1723 H1710 0.929 . S
C1723 C1715 1.433 . S
C1723 N1725 1.384 . S
N1724 C1720 1.427 . S
N1724 C1721 1.384 . S
N1725 C1717 1.427 . S
N1725 C1723 1.384 . S
H1726 C1732 0.930 . S
H1727 C1736 0.930 . S
H1728 C1741 0.929 . S
H1729 C1739 0.929 . S
H1730 C1734 0.929 . S
H1731 C1740 0.929 . S
C1732 H1726 0.930 . S
C1732 C1733 1.367 . S
C1732 C1740 1.378 . S
C1733 C1732 1.367 . S
C1733 C1741 1.433 . S
C1734 H1730 0.929 . S
C1734 C1736 1.378 . S
C1734 C1738 1.350 . S
C1735 C1738 1.463 . S
C1735 C1740 1.350 . S
C1735 N1743 1.427 . S
C1736 H1727 0.930 . S
C1736 C1734 1.378 . S
C1736 C1737 1.367 . S
C1737 C1736 1.367 . S
C1737 C1739 1.433 . S
C1738 C1734 1.350 . S
C1738 C1735 1.463 . S
C1738 N1742 1.427 . S
C1739 H1729 0.929 . S
C1739 C1737 1.433 . S
C1739 N1742 1.384 . S
C1740 H1731 0.929 . S
C1740 C1732 1.378 . S
C1740 C1735 1.350 . S
C1741 H1728 0.929 . S
C1741 C1733 1.433 . S
C1741 N1743 1.384 . S
N1742 C1738 1.427 . S
N1742 C1739 1.384 . S
N1743 C1735 1.427 . S
N1743 C1741 1.384 . S
H1744 C1750 0.930 . S
H1745 C1754 0.930 . S
H1746 C1759 0.929 . S
H1747 C1757 0.929 . S
H1748 C1752 0.929 . S
H1749 C1758 0.929 . S
C1750 H1744 0.930 . S
C1750 C1751 1.367 . S
C1750 C1758 1.378 . S
C1751 C1750 1.367 . S
C1751 C1759 1.433 . S
C1752 H1748 0.929 . S
C1752 C1754 1.378 . S
C1752 C1756 1.350 . S
C1753 C1756 1.463 . S
C1753 C1758 1.350 1_565 S
C1753 N1761 1.427 . S
C1754 H1745 0.930 . S
C1754 C1752 1.378 . S
C1754 C1755 1.367 . S
C1755 C1754 1.367 . S
C1755 C1757 1.433 . S
C1756 C1752 1.350 . S
C1756 C1753 1.463 . S
C1756 N1760 1.427 . S
C1757 H1747 0.929 . S
C1757 C1755 1.433 . S
C1757 N1760 1.384 . S
C1758 H1749 0.929 . S
C1758 C1750 1.378 . S
C1758 C1753 1.350 1_545 S
C1759 H1746 0.929 . S
C1759 C1751 1.433 . S
C1759 N1761 1.384 1_545 S
N1760 C1756 1.427 . S
N1760 C1757 1.384 . S
N1761 C1753 1.427 . S
N1761 C1759 1.384 1_565 S
H1762 C1768 0.930 . S
H1763 C1772 0.930 . S
H1764 C1777 0.929 . S
H1765 C1775 0.929 . S
H1766 C1770 0.929 . S
H1767 C1776 0.929 . S
C1768 H1762 0.930 . S
C1768 C1769 1.367 . S
C1768 C1776 1.378 . S
C1769 C1768 1.367 . S
C1769 C1777 1.433 . S
C1770 H1766 0.929 . S
C1770 C1772 1.378 . S
C1770 C1774 1.350 . S
C1771 C1774 1.463 . S
C1771 C1776 1.350 . S
C1771 N1779 1.427 . S
C1772 H1763 0.930 . S
C1772 C1770 1.378 . S
C1772 C1773 1.367 . S
C1773 C1772 1.367 . S
C1773 C1775 1.433 . S
C1774 C1770 1.350 . S
C1774 C1771 1.463 . S
C1774 N1778 1.427 . S
C1775 H1765 0.929 . S
C1775 C1773 1.433 . S
C1775 N1778 1.384 . S
C1776 H1767 0.929 . S
C1776 C1768 1.378 . S
C1776 C1771 1.350 . S
C1777 H1764 0.929 . S
C1777 C1769 1.433 . S
C1777 N1779 1.384 . S
N1778 C1774 1.427 . S
N1778 C1775 1.384 . S
N1779 C1771 1.427 . S
N1779 C1777 1.384 . S
H1780 C1786 0.930 . S
H1781 C1790 0.930 . S
H1782 C1795 0.929 . S
H1783 C1793 0.929 . S
H1784 C1788 0.929 . S
H1785 C1794 0.929 . S
C1786 H1780 0.930 . S
C1786 C1787 1.367 . S
C1786 C1794 1.378 . S
C1787 C1786 1.367 . S
C1787 C1795 1.433 . S
C1788 H1784 0.929 . S
C1788 C1790 1.378 . S
C1788 C1792 1.350 . S
C1789 C1792 1.463 . S
C1789 C1794 1.350 . S
C1789 N1797 1.427 . S
C1790 H1781 0.930 . S
C1790 C1788 1.378 . S
C1790 C1791 1.367 . S
C1791 C1790 1.367 . S
C1791 C1793 1.433 . S
C1792 C1788 1.350 . S
C1792 C1789 1.463 . S
C1792 N1796 1.427 . S
C1793 H1783 0.929 . S
C1793 C1791 1.433 . S
C1793 N1796 1.384 . S
C1794 H1785 0.929 . S
C1794 C1786 1.378 . S
C1794 C1789 1.350 . S
C1795 H1782 0.929 . S
C1795 C1787 1.433 . S
C1795 N1797 1.384 . S
N1796 C1792 1.427 . S
N1796 C1793 1.384 . S
N1797 C1789 1.427 . S
N1797 C1795 1.384 . S
H1798 C1804 0.930 . S
H1799 C1808 0.930 . S
H1800 C1813 0.929 . S
H1801 C1811 0.929 . S
H1802 C1806 0.929 . S
H1803 C1812 0.929 . S
C1804 H1798 0.930 . S
C1804 C1805 1.367 . S
C1804 C1812 1.378 . S
C1805 C1804 1.367 . S
C1805 C1813 1.433 . S
C1806 H1802 0.929 . S
C1806 C1808 1.378 . S
C1806 C1810 1.350 . S
C1807 C1810 1.463 . S
C1807 C1812 1.350 . S
C1807 N1815 1.427 . S
C1808 H1799 0.930 . S
C1808 C1806 1.378 . S
C1808 C1809 1.367 . S
C1809 C1808 1.367 . S
C1809 C1811 1.433 . S
C1810 C1806 1.350 . S
C1810 C1807 1.463 . S
C1810 N1814 1.427 . S
C1811 H1801 0.929 . S
C1811 C1809 1.433 . S
C1811 N1814 1.384 . S
C1812 H1803 0.929 . S
C1812 C1804 1.378 . S
C1812 C1807 1.350 . S
C1813 H1800 0.929 . S
C1813 C1805 1.433 . S
C1813 N1815 1.384 . S
N1814 C1810 1.427 . S
N1814 C1811 1.384 . S
N1815 C1807 1.427 . S
N1815 C1813 1.384 . S
H1816 C1822 0.930 . S
H1817 C1826 0.930 . S
H1818 C1831 0.929 . S
H1819 C1829 0.929 . S
H1820 C1824 0.929 . S
H1821 C1830 0.929 . S
C1822 H1816 0.930 . S
C1822 C1823 1.367 . S
C1822 C1830 1.378 . S
C1823 C1822 1.367 . S
C1823 C1831 1.433 . S
C1824 H1820 0.929 . S
C1824 C1826 1.378 . S
C1824 C1828 1.350 . S
C1825 C1828 1.463 . S
C1825 C1830 1.350 . S
C1825 N1833 1.427 . S
C1826 H1817 0.930 . S
C1826 C1824 1.378 . S
C1826 C1827 1.367 . S
C1827 C1826 1.367 . S
C1827 C1829 1.433 . S
C1828 C1824 1.350 . S
C1828 C1825 1.463 . S
C1828 N1832 1.427 . S
C1829 H1819 0.929 . S
C1829 C1827 1.433 . S
C1829 N1832 1.384 . S
C1830 H1821 0.929 . S
C1830 C1822 1.378 . S
C1830 C1825 1.350 . S
C1831 H1818 0.929 . S
C1831 C1823 1.433 . S
C1831 N1833 1.384 . S
N1832 C1828 1.427 . S
N1832 C1829 1.384 . S
N1833 C1825 1.427 . S
N1833 C1831 1.384 . S
H1834 C1840 0.930 . S
H1835 C1844 0.930 . S
H1836 C1849 0.929 . S
H1837 C1847 0.929 . S
H1838 C1842 0.929 . S
H1839 C1848 0.929 . S
C1840 H1834 0.930 . S
C1840 C1841 1.367 . S
C1840 C1848 1.378 . S
C1841 C1840 1.367 . S
C1841 C1849 1.433 . S
C1842 H1838 0.929 . S
C1842 C1844 1.378 . S
C1842 C1846 1.350 . S
C1843 C1846 1.463 . S
C1843 C1848 1.350 . S
C1843 N1851 1.427 . S
C1844 H1835 0.930 . S
C1844 C1842 1.378 . S
C1844 C1845 1.367 . S
C1845 C1844 1.367 . S
C1845 C1847 1.433 . S
C1846 C1842 1.350 . S
C1846 C1843 1.463 . S
C1846 N1850 1.427 . S
C1847 H1837 0.929 . S
C1847 C1845 1.433 . S
C1847 N1850 1.384 . S
C1848 H1839 0.929 . S
C1848 C1840 1.378 . S
C1848 C1843 1.350 . S
C1849 H1836 0.929 . S
C1849 C1841 1.433 . S
C1849 N1851 1.384 . S
N1850 C1846 1.427 . S
N1850 C1847 1.384 . S
N1851 C1843 1.427 . S
N1851 C1849 1.384 . S
H1852 C1858 0.930 . S
H1853 C1862 0.930 . S
H1854 C1867 0.908 1_655 S
H1855 C1865 0.929 1_556 S
H1856 C1860 0.929 1_655 S
H1857 C1866 0.929 . S
C1858 H1852 0.930 . S
C1858 C1859 1.336 1_556 S
C1858 C1866 1.378 . S
C1859 C1858 1.336 1_554 S
C1859 C1867 1.502 . S
C1860 H1856 0.929 1_455 S
C1860 C1862 1.378 . S
C1860 C1864 1.350 . S
C1861 C1864 1.463 . S
C1861 C1866 1.350 1_554 S
C1861 N1869 1.427 . S
C1862 H1853 0.930 . S
C1862 C1860 1.378 . S
C1862 C1863 1.367 . S
C1863 C1862 1.367 . S
C1863 C1865 1.433 . S
C1864 C1860 1.350 . S
C1864 C1861 1.463 . S
C1864 N1868 1.430 . S
C1865 H1855 0.929 1_554 S
C1865 C1863 1.433 . S
C1865 N1868 1.384 . S
C1866 H1857 0.929 . S
C1866 C1858 1.378 . S
C1866 C1861 1.350 1_556 S
C1867 H1854 0.908 1_455 S
C1867 C1859 1.502 . S
C1867 N1869 1.373 . S
N1868 C1864 1.430 . S
N1868 C1865 1.384 . S
N1869 C1861 1.427 . S
N1869 C1867 1.373 . S
H1870 C1876 0.930 . S
H1871 C1880 0.930 . S
H1872 C1885 0.929 . S
H1873 C1883 0.929 . S
H1874 C1878 0.929 . S
H1875 C1884 0.929 . S
C1876 H1870 0.930 . S
C1876 C1877 1.367 . S
C1876 C1884 1.378 . S
C1877 C1876 1.367 . S
C1877 C1885 1.433 . S
C1878 H1874 0.929 . S
C1878 C1880 1.378 . S
C1878 C1882 1.350 . S
C1879 C1882 1.463 . S
C1879 C1884 1.350 . S
C1879 N1887 1.427 . S
C1880 H1871 0.930 . S
C1880 C1878 1.378 . S
C1880 C1881 1.367 . S
C1881 C1880 1.367 . S
C1881 C1883 1.433 . S
C1882 C1878 1.350 . S
C1882 C1879 1.463 . S
C1882 N1886 1.427 . S
C1883 H1873 0.929 . S
C1883 C1881 1.433 . S
C1883 N1886 1.384 . S
C1884 H1875 0.929 . S
C1884 C1876 1.378 . S
C1884 C1879 1.350 . S
C1885 H1872 0.929 . S
C1885 C1877 1.433 . S
C1885 N1887 1.384 . S
N1886 C1882 1.427 . S
N1886 C1883 1.384 . S
N1887 C1879 1.427 . S
N1887 C1885 1.384 . S
H1888 C1894 0.930 . S
H1889 C1898 0.930 . S
H1890 C1903 0.929 . S
H1891 C1901 0.929 . S
H1892 C1896 0.929 . S
H1893 C1902 0.929 . S
C1894 H1888 0.930 . S
C1894 C1895 1.367 . S
C1894 C1902 1.378 . S
C1895 C1894 1.367 . S
C1895 C1903 1.433 . S
C1896 H1892 0.929 . S
C1896 C1898 1.378 . S
C1896 C1900 1.350 . S
C1897 C1900 1.463 . S
C1897 C1902 1.350 . S
C1897 N1905 1.427 . S
C1898 H1889 0.930 . S
C1898 C1896 1.378 . S
C1898 C1899 1.367 . S
C1899 C1898 1.367 . S
C1899 C1901 1.433 . S
C1900 C1896 1.350 . S
C1900 C1897 1.463 . S
C1900 N1904 1.427 . S
C1901 H1891 0.929 . S
C1901 C1899 1.433 . S
C1901 N1904 1.384 . S
C1902 H1893 0.929 . S
C1902 C1894 1.378 . S
C1902 C1897 1.350 . S
C1903 H1890 0.929 . S
C1903 C1895 1.433 . S
C1903 N1905 1.384 . S
N1904 C1900 1.427 . S
N1904 C1901 1.384 . S
N1905 C1897 1.427 . S
N1905 C1903 1.384 . S
H1906 C1912 0.930 . S
H1907 C1916 0.930 . S
H1908 C1921 0.929 . S
H1909 C1919 0.929 . S
H1910 C1914 0.929 . S
H1911 C1920 0.929 . S
C1912 H1906 0.930 . S
C1912 C1913 1.367 . S
C1912 C1920 1.378 . S
C1913 C1912 1.367 . S
C1913 C1921 1.433 . S
C1914 H1910 0.929 . S
C1914 C1916 1.378 . S
C1914 C1918 1.350 . S
C1915 C1918 1.463 . S
C1915 C1920 1.350 . S
C1915 N1923 1.427 . S
C1916 H1907 0.930 . S
C1916 C1914 1.378 . S
C1916 C1917 1.367 . S
C1917 C1916 1.367 . S
C1917 C1919 1.433 . S
C1918 C1914 1.350 . S
C1918 C1915 1.463 . S
C1918 N1922 1.427 . S
C1919 H1909 0.929 . S
C1919 C1917 1.433 . S
C1919 N1922 1.384 . S
C1920 H1911 0.929 . S
C1920 C1912 1.378 . S
C1920 C1915 1.350 . S
C1921 H1908 0.929 . S
C1921 C1913 1.433 . S
C1921 N1923 1.384 . S
N1922 C1918 1.427 . S
N1922 C1919 1.384 . S
N1923 C1915 1.427 . S
N1923 C1921 1.384 . S
H1924 C1930 0.930 . S
H1925 C1934 0.930 . S
H1926 C1939 0.929 . S
H1927 C1937 0.929 . S
H1928 C1932 0.929 . S
H1929 C1938 0.929 . S
C1930 H1924 0.930 . S
C1930 C1931 1.367 . S
C1930 C1938 1.378 . S
C1931 C1930 1.367 . S
C1931 C1939 1.433 . S
C1932 H1928 0.929 . S
C1932 C1934 1.378 . S
C1932 C1936 1.350 . S
C1933 C1936 1.463 . S
C1933 C1938 1.350 . S
C1933 N1941 1.427 . S
C1934 H1925 0.930 . S
C1934 C1932 1.378 . S
C1934 C1935 1.367 . S
C1935 C1934 1.367 . S
C1935 C1937 1.433 . S
C1936 C1932 1.350 . S
C1936 C1933 1.463 . S
C1936 N1940 1.427 . S
C1937 H1927 0.929 . S
C1937 C1935 1.433 . S
C1937 N1940 1.384 . S
C1938 H1929 0.929 . S
C1938 C1930 1.378 . S
C1938 C1933 1.350 . S
C1939 H1926 0.929 . S
C1939 C1931 1.433 . S
C1939 N1941 1.384 . S
N1940 C1936 1.427 . S
N1940 C1937 1.384 . S
N1941 C1933 1.427 . S
N1941 C1939 1.384 . S
H1942 C1948 0.930 . S
H1943 C1952 0.930 . S
H1944 C1957 0.929 . S
H1945 C1955 0.929 . S
H1946 C1950 0.929 . S
H1947 C1956 0.929 . S
C1948 H1942 0.930 . S
C1948 C1949 1.367 . S
C1948 C1956 1.378 . S
C1949 C1948 1.367 . S
C1949 C1957 1.433 . S
C1950 H1946 0.929 . S
C1950 C1952 1.378 . S
C1950 C1954 1.350 . S
C1951 C1954 1.463 . S
C1951 C1956 1.350 . S
C1951 N1959 1.427 . S
C1952 H1943 0.930 . S
C1952 C1950 1.378 . S
C1952 C1953 1.367 . S
C1953 C1952 1.367 . S
C1953 C1955 1.433 . S
C1954 C1950 1.350 . S
C1954 C1951 1.463 . S
C1954 N1958 1.427 . S
C1955 H1945 0.929 . S
C1955 C1953 1.433 . S
C1955 N1958 1.384 . S
C1956 H1947 0.929 . S
C1956 C1948 1.378 . S
C1956 C1951 1.350 . S
C1957 H1944 0.929 . S
C1957 C1949 1.433 . S
C1957 N1959 1.384 . S
N1958 C1954 1.427 . S
N1958 C1955 1.384 . S
N1959 C1951 1.427 . S
N1959 C1957 1.384 . S
H1960 C1966 0.930 . S
H1961 C1970 0.930 . S
H1962 C1975 0.929 . S
H1963 C1973 0.929 . S
H1964 C1968 0.929 . S
H1965 C1974 0.929 . S
C1966 H1960 0.930 . S
C1966 C1967 1.367 . S
C1966 C1974 1.378 . S
C1967 C1966 1.367 . S
C1967 C1975 1.433 . S
C1968 H1964 0.929 . S
C1968 C1970 1.378 . S
C1968 C1972 1.350 . S
C1969 C1972 1.463 . S
C1969 C1974 1.350 . S
C1969 N1977 1.427 . S
C1970 H1961 0.930 . S
C1970 C1968 1.378 . S
C1970 C1971 1.367 . S
C1971 C1970 1.367 . S
C1971 C1973 1.433 . S
C1972 C1968 1.350 . S
C1972 C1969 1.463 . S
C1972 N1976 1.427 . S
C1973 H1963 0.929 . S
C1973 C1971 1.433 . S
C1973 N1976 1.384 . S
C1974 H1965 0.929 . S
C1974 C1966 1.378 . S
C1974 C1969 1.350 . S
C1975 H1962 0.929 . S
C1975 C1967 1.433 . S
C1975 N1977 1.384 . S
N1976 C1972 1.427 . S
N1976 C1973 1.384 . S
N1977 C1969 1.427 . S
N1977 C1975 1.384 . S
H1978 C1984 0.930 . S
H1979 C1988 0.930 . S
H1980 C1993 0.929 . S
H1981 C1991 0.929 . S
H1982 C1986 0.929 . S
H1983 C1992 0.929 . S
C1984 H1978 0.930 . S
C1984 C1985 1.367 . S
C1984 C1992 1.378 1_554 S
C1985 C1984 1.367 . S
C1985 C1993 1.433 . S
C1986 H1982 0.929 . S
C1986 C1988 1.378 . S
C1986 C1990 1.350 . S
C1987 C1990 1.463 . S
C1987 C1992 1.350 . S
C1987 N1995 1.427 1_556 S
C1988 H1979 0.930 . S
C1988 C1986 1.378 . S
C1988 C1989 1.367 . S
C1989 C1988 1.367 . S
C1989 C1991 1.433 . S
C1990 C1986 1.350 . S
C1990 C1987 1.463 . S
C1990 N1994 1.427 . S
C1991 H1981 0.929 . S
C1991 C1989 1.433 . S
C1991 N1994 1.384 . S
C1992 H1983 0.929 . S
C1992 C1984 1.378 1_556 S
C1992 C1987 1.350 . S
C1993 H1980 0.929 . S
C1993 C1985 1.433 . S
C1993 N1995 1.384 . S
N1994 C1990 1.427 . S
N1994 C1991 1.384 . S
N1995 C1987 1.427 1_554 S
N1995 C1993 1.384 . S
H1996 C2002 0.930 . S
H1997 C2006 0.930 . S
H1998 C2011 0.929 . S
H1999 C2009 0.929 . S
H2000 C2004 0.929 . S
H2001 C2010 0.929 . S
C2002 H1996 0.930 . S
C2002 C2003 1.367 . S
C2002 C2010 1.378 . S
C2003 C2002 1.367 . S
C2003 C2011 1.433 . S
C2004 H2000 0.929 . S
C2004 C2006 1.378 . S
C2004 C2008 1.350 . S
C2005 C2008 1.463 . S
C2005 C2010 1.350 . S
C2005 N2013 1.427 . S
C2006 H1997 0.930 . S
C2006 C2004 1.378 . S
C2006 C2007 1.367 . S
C2007 C2006 1.367 . S
C2007 C2009 1.433 . S
C2008 C2004 1.350 . S
C2008 C2005 1.463 . S
C2008 N2012 1.427 . S
C2009 H1999 0.929 . S
C2009 C2007 1.433 . S
C2009 N2012 1.384 . S
C2010 H2001 0.929 . S
C2010 C2002 1.378 . S
C2010 C2005 1.350 . S
C2011 H1998 0.929 . S
C2011 C2003 1.433 . S
C2011 N2013 1.384 . S
N2012 C2008 1.427 . S
N2012 C2009 1.384 . S
N2013 C2005 1.427 . S
N2013 C2011 1.384 . S
H2014 C2020 0.930 . S
H2015 C2024 0.930 . S
H2016 C2029 0.929 . S
H2017 C2027 0.929 . S
H2018 C2022 0.929 . S
H2019 C2028 0.929 . S
C2020 H2014 0.930 . S
C2020 C2021 1.367 . S
C2020 C2028 1.378 . S
C2021 C2020 1.367 . S
C2021 C2029 1.433 . S
C2022 H2018 0.929 . S
C2022 C2024 1.378 . S
C2022 C2026 1.350 . S
C2023 C2026 1.463 . S
C2023 C2028 1.350 . S
C2023 N2031 1.427 . S
C2024 H2015 0.930 . S
C2024 C2022 1.378 . S
C2024 C2025 1.367 . S
C2025 C2024 1.367 . S
C2025 C2027 1.433 . S
C2026 C2022 1.350 . S
C2026 C2023 1.463 . S
C2026 N2030 1.427 . S
C2027 H2017 0.929 . S
C2027 C2025 1.433 . S
C2027 N2030 1.384 . S
C2028 H2019 0.929 . S
C2028 C2020 1.378 . S
C2028 C2023 1.350 . S
C2029 H2016 0.929 . S
C2029 C2021 1.433 . S
C2029 N2031 1.384 . S
N2030 C2026 1.427 . S
N2030 C2027 1.384 . S
N2031 C2023 1.427 . S
N2031 C2029 1.384 . S
H2032 C2038 0.930 . S
H2033 C2042 0.930 . S
H2034 C2047 0.929 . S
H2035 C2045 0.929 . S
H2036 C2040 0.929 . S
H2037 C2046 0.929 . S
C2038 H2032 0.930 . S
C2038 C2039 1.367 . S
C2038 C2046 1.378 . S
C2039 C2038 1.367 . S
C2039 C2047 1.433 . S
C2040 H2036 0.929 . S
C2040 C2042 1.378 . S
C2040 C2044 1.350 . S
C2041 C2044 1.463 . S
C2041 C2046 1.350 . S
C2041 N2049 1.427 . S
C2042 H2033 0.930 . S
C2042 C2040 1.378 . S
C2042 C2043 1.367 . S
C2043 C2042 1.367 . S
C2043 C2045 1.433 . S
C2044 C2040 1.350 . S
C2044 C2041 1.463 . S
C2044 N2048 1.427 . S
C2045 H2035 0.929 . S
C2045 C2043 1.433 . S
C2045 N2048 1.384 . S
C2046 H2037 0.929 . S
C2046 C2038 1.378 . S
C2046 C2041 1.350 . S
C2047 H2034 0.929 . S
C2047 C2039 1.433 . S
C2047 N2049 1.384 . S
N2048 C2044 1.427 . S
N2048 C2045 1.384 . S
N2049 C2041 1.427 . S
N2049 C2047 1.384 . S
H2050 C2056 0.930 . S
H2051 C2060 0.930 . S
H2052 C2065 0.929 . S
H2053 C2063 0.929 . S
H2054 C2058 0.929 . S
H2055 C2064 0.929 . S
C2056 H2050 0.930 . S
C2056 C2057 1.367 . S
C2056 C2064 1.378 . S
C2057 C2056 1.367 . S
C2057 C2065 1.433 . S
C2058 H2054 0.929 . S
C2058 C2060 1.378 . S
C2058 C2062 1.350 . S
C2059 C2062 1.463 . S
C2059 C2064 1.350 . S
C2059 N2067 1.427 . S
C2060 H2051 0.930 . S
C2060 C2058 1.378 . S
C2060 C2061 1.367 . S
C2061 C2060 1.367 . S
C2061 C2063 1.433 . S
C2062 C2058 1.350 . S
C2062 C2059 1.463 . S
C2062 N2066 1.427 . S
C2063 H2053 0.929 . S
C2063 C2061 1.433 . S
C2063 N2066 1.384 . S
C2064 H2055 0.929 . S
C2064 C2056 1.378 . S
C2064 C2059 1.350 . S
C2065 H2052 0.929 . S
C2065 C2057 1.433 . S
C2065 N2067 1.384 . S
N2066 C2062 1.427 . S
N2066 C2063 1.384 . S
N2067 C2059 1.427 . S
N2067 C2065 1.384 . S
H2068 C2074 0.930 . S
H2069 C2078 0.930 . S
H2070 C2083 0.929 . S
H2071 C2081 0.929 . S
H2072 C2076 0.929 . S
H2073 C2082 0.929 . S
C2074 H2068 0.930 . S
C2074 C2075 1.367 . S
C2074 C2082 1.378 . S
C2075 C2074 1.367 . S
C2075 C2083 1.433 . S
C2076 H2072 0.929 . S
C2076 C2078 1.378 . S
C2076 C2080 1.350 . S
C2077 C2080 1.463 . S
C2077 C2082 1.350 . S
C2077 N2085 1.427 . S
C2078 H2069 0.930 . S
C2078 C2076 1.378 . S
C2078 C2079 1.367 . S
C2079 C2078 1.367 . S
C2079 C2081 1.433 . S
C2080 C2076 1.350 . S
C2080 C2077 1.463 . S
C2080 N2084 1.427 . S
C2081 H2071 0.929 . S
C2081 C2079 1.433 . S
C2081 N2084 1.384 . S
C2082 H2073 0.929 . S
C2082 C2074 1.378 . S
C2082 C2077 1.350 . S
C2083 H2070 0.929 . S
C2083 C2075 1.433 . S
C2083 N2085 1.384 . S
N2084 C2080 1.427 . S
N2084 C2081 1.384 . S
N2085 C2077 1.427 . S
N2085 C2083 1.384 . S
H2086 C2092 0.930 . S
H2087 C2096 0.930 . S
H2088 C2101 0.929 . S
H2089 C2099 0.929 . S
H2090 C2094 0.929 . S
H2091 C2100 0.929 . S
C2092 H2086 0.930 . S
C2092 C2093 1.367 . S
C2092 C2100 1.378 . S
C2093 C2092 1.367 . S
C2093 C2101 1.433 . S
C2094 H2090 0.929 . S
C2094 C2096 1.378 . S
C2094 C2098 1.350 . S
C2095 C2098 1.463 . S
C2095 C2100 1.350 . S
C2095 N2103 1.427 . S
C2096 H2087 0.930 . S
C2096 C2094 1.378 . S
C2096 C2097 1.367 . S
C2097 C2096 1.367 . S
C2097 C2099 1.433 . S
C2098 C2094 1.350 . S
C2098 C2095 1.463 . S
C2098 N2102 1.427 . S
C2099 H2089 0.929 . S
C2099 C2097 1.433 . S
C2099 N2102 1.384 . S
C2100 H2091 0.929 . S
C2100 C2092 1.378 . S
C2100 C2095 1.350 . S
C2101 H2088 0.929 . S
C2101 C2093 1.433 . S
C2101 N2103 1.384 . S
N2102 C2098 1.427 . S
N2102 C2099 1.384 . S
N2103 C2095 1.427 . S
N2103 C2101 1.384 . S
H2104 C2110 0.930 . S
H2105 C2114 0.930 . S
H2106 C2119 0.929 . S
H2107 C2117 0.929 . S
H2108 C2112 0.929 . S
H2109 C2118 0.929 . S
C2110 H2104 0.930 . S
C2110 C2111 1.367 . S
C2110 C2118 1.378 . S
C2111 C2110 1.367 . S
C2111 C2119 1.433 . S
C2112 H2108 0.929 . S
C2112 C2114 1.378 . S
C2112 C2116 1.350 . S
C2113 C2116 1.463 . S
C2113 C2118 1.350 . S
C2113 N2121 1.427 . S
C2114 H2105 0.930 . S
C2114 C2112 1.378 . S
C2114 C2115 1.367 . S
C2115 C2114 1.367 . S
C2115 C2117 1.433 . S
C2116 C2112 1.350 . S
C2116 C2113 1.463 . S
C2116 N2120 1.427 . S
C2117 H2107 0.929 . S
C2117 C2115 1.433 . S
C2117 N2120 1.384 . S
C2118 H2109 0.929 . S
C2118 C2110 1.378 . S
C2118 C2113 1.350 . S
C2119 H2106 0.929 . S
C2119 C2111 1.433 . S
C2119 N2121 1.384 . S
N2120 C2116 1.427 . S
N2120 C2117 1.384 . S
N2121 C2113 1.427 . S
N2121 C2119 1.384 . S
H2122 C2128 0.930 . S
H2123 C2132 0.930 . S
H2124 C2137 0.929 . S
H2125 C2135 0.929 . S
H2126 C2130 0.929 . S
H2127 C2136 0.929 . S
C2128 H2122 0.930 . S
C2128 C2129 1.367 . S
C2128 C2136 1.378 . S
C2129 C2128 1.367 . S
C2129 C2137 1.433 . S
C2130 H2126 0.929 . S
C2130 C2132 1.378 . S
C2130 C2134 1.350 . S
C2131 C2134 1.463 . S
C2131 C2136 1.350 . S
C2131 N2139 1.427 . S
C2132 H2123 0.930 . S
C2132 C2130 1.378 . S
C2132 C2133 1.367 . S
C2133 C2132 1.367 . S
C2133 C2135 1.433 . S
C2134 C2130 1.350 . S
C2134 C2131 1.463 . S
C2134 N2138 1.427 . S
C2135 H2125 0.929 . S
C2135 C2133 1.433 . S
C2135 N2138 1.384 . S
C2136 H2127 0.929 . S
C2136 C2128 1.378 . S
C2136 C2131 1.350 . S
C2137 H2124 0.929 . S
C2137 C2129 1.433 . S
C2137 N2139 1.384 . S
N2138 C2134 1.427 . S
N2138 C2135 1.384 . S
N2139 C2131 1.427 . S
N2139 C2137 1.384 . S
H2140 C2146 0.930 . S
H2141 C2150 0.930 . S
H2142 C2155 0.929 . S
H2143 C2153 0.929 . S
H2144 C2148 0.929 . S
H2145 C2154 0.929 . S
C2146 H2140 0.930 . S
C2146 C2147 1.367 1_545 S
C2146 C2154 1.378 1_545 S
C2147 C2146 1.367 1_565 S
C2147 C2155 1.433 . S
C2148 H2144 0.929 . S
C2148 C2150 1.378 . S
C2148 C2152 1.350 . S
C2149 C2152 1.463 . S
C2149 C2154 1.350 . S
C2149 N2157 1.427 . S
C2150 H2141 0.930 . S
C2150 C2148 1.378 . S
C2150 C2151 1.367 . S
C2151 C2150 1.367 . S
C2151 C2153 1.433 . S
C2152 C2148 1.350 . S
C2152 C2149 1.463 . S
C2152 N2156 1.427 . S
C2153 H2143 0.929 . S
C2153 C2151 1.433 . S
C2153 N2156 1.384 . S
C2154 H2145 0.929 . S
C2154 C2146 1.378 1_565 S
C2154 C2149 1.350 . S
C2155 H2142 0.929 . S
C2155 C2147 1.433 . S
C2155 N2157 1.384 . S
N2156 C2152 1.427 . S
N2156 C2153 1.384 . S
N2157 C2149 1.427 . S
N2157 C2155 1.384 . S
H2158 C2164 0.930 . S
H2159 C2168 0.930 . S
H2160 C2173 0.929 . S
H2161 C2171 0.929 1_556 S
H2162 C2166 0.929 . S
H2163 C2172 0.929 . S
C2164 H2158 0.930 . S
C2164 C2165 1.367 1_556 S
C2164 C2172 1.378 . S
C2165 C2164 1.367 1_554 S
C2165 C2173 1.433 . S
C2166 H2162 0.929 . S
C2166 C2168 1.378 1_565 S
C2166 C2170 1.350 . S
C2167 C2170 1.463 . S
C2167 C2172 1.350 1_554 S
C2167 N2175 1.427 . S
C2168 H2159 0.930 . S
C2168 C2166 1.378 1_545 S
C2168 C2169 1.367 . S
C2169 C2168 1.367 . S
C2169 C2171 1.433 . S
C2170 C2166 1.350 . S
C2170 C2167 1.463 . S
C2170 N2174 1.427 1_565 S
C2171 H2161 0.929 1_554 S
C2171 C2169 1.433 . S
C2171 N2174 1.384 . S
C2172 H2163 0.929 . S
C2172 C2164 1.378 . S
C2172 C2167 1.350 1_556 S
C2173 H2160 0.929 . S
C2173 C2165 1.433 . S
C2173 N2175 1.384 . S
N2174 C2170 1.427 1_545 S
N2174 C2171 1.384 . S
N2175 C2167 1.427 . S
N2175 C2173 1.384 . S
H2176 C2182 0.930 . S
H2177 C2186 0.930 . S
H2178 C2191 0.929 . S
H2179 C2189 0.929 . S
H2180 C2184 0.929 . S
H2181 C2190 0.929 . S
C2182 H2176 0.930 . S
C2182 C2183 1.367 . S
C2182 C2190 1.378 . S
C2183 C2182 1.367 . S
C2183 C2191 1.433 . S
C2184 H2180 0.929 . S
C2184 C2186 1.378 . S
C2184 C2188 1.350 . S
C2185 C2188 1.463 . S
C2185 C2190 1.350 . S
C2185 N2193 1.427 . S
C2186 H2177 0.930 . S
C2186 C2184 1.378 . S
C2186 C2187 1.367 . S
C2187 C2186 1.367 . S
C2187 C2189 1.433 . S
C2188 C2184 1.350 . S
C2188 C2185 1.463 . S
C2188 N2192 1.427 . S
C2189 H2179 0.929 . S
C2189 C2187 1.433 . S
C2189 N2192 1.384 . S
C2190 H2181 0.929 . S
C2190 C2182 1.378 . S
C2190 C2185 1.350 . S
C2191 H2178 0.929 . S
C2191 C2183 1.433 . S
C2191 N2193 1.384 . S
N2192 C2188 1.427 . S
N2192 C2189 1.384 . S
N2193 C2185 1.427 . S
N2193 C2191 1.384 . S
H2194 C2200 0.930 1_556 S
H2195 C2204 0.930 . S
H2196 C2209 0.929 . S
H2197 C2207 0.929 . S
H2198 C2202 0.929 . S
H2199 C2208 0.929 . S
C2200 H2194 0.930 1_554 S
C2200 C2201 1.367 . S
C2200 C2208 1.378 . S
C2201 C2200 1.367 . S
C2201 C2209 1.433 . S
C2202 H2198 0.929 . S
C2202 C2204 1.378 . S
C2202 C2206 1.350 . S
C2203 C2206 1.463 . S
C2203 C2208 1.350 . S
C2203 N2211 1.427 . S
C2204 H2195 0.930 . S
C2204 C2202 1.378 . S
C2204 C2205 1.367 . S
C2205 C2204 1.367 . S
C2205 C2207 1.433 . S
C2206 C2202 1.350 . S
C2206 C2203 1.463 . S
C2206 N2210 1.427 . S
C2207 H2197 0.929 . S
C2207 C2205 1.433 . S
C2207 N2210 1.384 . S
C2208 H2199 0.929 . S
C2208 C2200 1.378 . S
C2208 C2203 1.350 . S
C2209 H2196 0.929 . S
C2209 C2201 1.433 . S
C2209 N2211 1.384 . S
N2210 C2206 1.427 . S
N2210 C2207 1.384 . S
N2211 C2203 1.427 . S
N2211 C2209 1.384 . S
H2212 C2218 0.930 . S
H2213 C2222 0.930 . S
H2214 C2227 0.929 . S
H2215 C2225 0.929 . S
H2216 C2220 0.929 . S
H2217 C2226 0.929 . S
C2218 H2212 0.930 . S
C2218 C2219 1.367 . S
C2218 C2226 1.378 . S
C2219 C2218 1.367 . S
C2219 C2227 1.433 . S
C2220 H2216 0.929 . S
C2220 C2222 1.378 . S
C2220 C2224 1.350 . S
C2221 C2224 1.463 . S
C2221 C2226 1.350 . S
C2221 N2229 1.427 . S
C2222 H2213 0.930 . S
C2222 C2220 1.378 . S
C2222 C2223 1.367 . S
C2223 C2222 1.367 . S
C2223 C2225 1.433 . S
C2224 C2220 1.350 . S
C2224 C2221 1.463 . S
C2224 N2228 1.427 . S
C2225 H2215 0.929 . S
C2225 C2223 1.433 . S
C2225 N2228 1.384 . S
C2226 H2217 0.929 . S
C2226 C2218 1.378 . S
C2226 C2221 1.350 . S
C2227 H2214 0.929 . S
C2227 C2219 1.433 . S
C2227 N2229 1.384 . S
N2228 C2224 1.427 . S
N2228 C2225 1.384 . S
N2229 C2221 1.427 . S
N2229 C2227 1.384 . S
H2230 C2236 0.930 . S
H2231 C2240 0.930 . S
H2232 C2245 0.929 . S
H2233 C2243 0.929 . S
H2234 C2238 0.929 . S
H2235 C2244 0.929 . S
C2236 H2230 0.930 . S
C2236 C2237 1.367 . S
C2236 C2244 1.378 . S
C2237 C2236 1.367 . S
C2237 C2245 1.433 . S
C2238 H2234 0.929 . S
C2238 C2240 1.378 . S
C2238 C2242 1.350 . S
C2239 C2242 1.463 . S
C2239 C2244 1.350 . S
C2239 N2247 1.427 . S
C2240 H2231 0.930 . S
C2240 C2238 1.378 . S
C2240 C2241 1.367 . S
C2241 C2240 1.367 . S
C2241 C2243 1.433 . S
C2242 C2238 1.350 . S
C2242 C2239 1.463 . S
C2242 N2246 1.427 . S
C2243 H2233 0.929 . S
C2243 C2241 1.433 . S
C2243 N2246 1.384 . S
C2244 H2235 0.929 . S
C2244 C2236 1.378 . S
C2244 C2239 1.350 . S
C2245 H2232 0.929 . S
C2245 C2237 1.433 . S
C2245 N2247 1.384 . S
N2246 C2242 1.427 . S
N2246 C2243 1.384 . S
N2247 C2239 1.427 . S
N2247 C2245 1.384 . S
H2248 C2254 0.930 . S
H2249 C2258 0.930 . S
H2250 C2263 0.929 . S
H2251 C2261 0.929 . S
H2252 C2256 0.929 . S
H2253 C2262 0.929 . S
C2254 H2248 0.930 . S
C2254 C2255 1.367 . S
C2254 C2262 1.378 . S
C2255 C2254 1.367 . S
C2255 C2263 1.433 . S
C2256 H2252 0.929 . S
C2256 C2258 1.378 . S
C2256 C2260 1.350 . S
C2257 C2260 1.463 . S
C2257 C2262 1.350 . S
C2257 N2265 1.427 . S
C2258 H2249 0.930 . S
C2258 C2256 1.378 . S
C2258 C2259 1.367 . S
C2259 C2258 1.367 . S
C2259 C2261 1.433 . S
C2260 C2256 1.350 . S
C2260 C2257 1.463 . S
C2260 N2264 1.427 . S
C2261 H2251 0.929 . S
C2261 C2259 1.433 . S
C2261 N2264 1.384 . S
C2262 H2253 0.929 . S
C2262 C2254 1.378 . S
C2262 C2257 1.350 . S
C2263 H2250 0.929 . S
C2263 C2255 1.433 . S
C2263 N2265 1.384 . S
N2264 C2260 1.427 . S
N2264 C2261 1.384 . S
N2265 C2257 1.427 . S
N2265 C2263 1.384 . S
H2266 C2272 0.930 . S
H2267 C2276 0.930 . S
H2268 C2281 0.929 . S
H2269 C2279 0.929 . S
H2270 C2274 0.929 . S
H2271 C2280 0.929 . S
C2272 H2266 0.930 . S
C2272 C2273 1.367 . S
C2272 C2280 1.378 . S
C2273 C2272 1.367 . S
C2273 C2281 1.433 . S
C2274 H2270 0.929 . S
C2274 C2276 1.378 . S
C2274 C2278 1.350 . S
C2275 C2278 1.463 . S
C2275 C2280 1.350 . S
C2275 N2283 1.427 . S
C2276 H2267 0.930 . S
C2276 C2274 1.378 . S
C2276 C2277 1.367 . S
C2277 C2276 1.367 . S
C2277 C2279 1.433 . S
C2278 C2274 1.350 . S
C2278 C2275 1.463 . S
C2278 N2282 1.427 . S
C2279 H2269 0.929 . S
C2279 C2277 1.433 . S
C2279 N2282 1.384 . S
C2280 H2271 0.929 . S
C2280 C2272 1.378 . S
C2280 C2275 1.350 . S
C2281 H2268 0.929 . S
C2281 C2273 1.433 . S
C2281 N2283 1.384 . S
N2282 C2278 1.427 . S
N2282 C2279 1.384 . S
N2283 C2275 1.427 . S
N2283 C2281 1.384 . S
H2284 C2290 0.930 . S
H2285 C2294 0.930 . S
H2286 C2299 0.929 . S
H2287 C2297 0.929 . S
H2288 C2292 0.929 . S
H2289 C2298 0.929 . S
C2290 H2284 0.930 . S
C2290 C2291 1.367 . S
C2290 C2298 1.378 . S
C2291 C2290 1.367 . S
C2291 C2299 1.433 . S
C2292 H2288 0.929 . S
C2292 C2294 1.378 . S
C2292 C2296 1.350 . S
C2293 C2296 1.463 . S
C2293 C2298 1.350 . S
C2293 N2301 1.427 . S
C2294 H2285 0.930 . S
C2294 C2292 1.378 . S
C2294 C2295 1.367 . S
C2295 C2294 1.367 . S
C2295 C2297 1.433 . S
C2296 C2292 1.350 . S
C2296 C2293 1.463 . S
C2296 N2300 1.427 . S
C2297 H2287 0.929 . S
C2297 C2295 1.433 . S
C2297 N2300 1.384 . S
C2298 H2289 0.929 . S
C2298 C2290 1.378 . S
C2298 C2293 1.350 . S
C2299 H2286 0.929 . S
C2299 C2291 1.433 . S
C2299 N2301 1.384 . S
N2300 C2296 1.427 . S
N2300 C2297 1.384 . S
N2301 C2293 1.427 . S
N2301 C2299 1.384 . S
H2302 C2308 0.930 . S
H2303 C2312 0.930 . S
H2304 C2317 0.929 . S
H2305 C2315 0.929 . S
H2306 C2310 0.929 . S
H2307 C2316 0.929 . S
C2308 H2302 0.930 . S
C2308 C2309 1.367 . S
C2308 C2316 1.378 . S
C2309 C2308 1.367 . S
C2309 C2317 1.433 . S
C2310 H2306 0.929 . S
C2310 C2312 1.378 . S
C2310 C2314 1.350 . S
C2311 C2314 1.463 . S
C2311 C2316 1.350 . S
C2311 N2319 1.427 . S
C2312 H2303 0.930 . S
C2312 C2310 1.378 . S
C2312 C2313 1.367 . S
C2313 C2312 1.367 . S
C2313 C2315 1.433 . S
C2314 C2310 1.350 . S
C2314 C2311 1.463 . S
C2314 N2318 1.427 . S
C2315 H2305 0.929 . S
C2315 C2313 1.433 . S
C2315 N2318 1.384 . S
C2316 H2307 0.929 . S
C2316 C2308 1.378 . S
C2316 C2311 1.350 . S
C2317 H2304 0.929 . S
C2317 C2309 1.433 . S
C2317 N2319 1.384 . S
N2318 C2314 1.427 . S
N2318 C2315 1.384 . S
N2319 C2311 1.427 . S
N2319 C2317 1.384 . S
H2320 C2326 0.930 . S
H2321 C2330 0.930 . S
H2322 C2335 0.929 . S
H2323 C2333 0.929 . S
H2324 C2328 0.929 . S
H2325 C2334 0.929 . S
C2326 H2320 0.930 . S
C2326 C2327 1.367 . S
C2326 C2334 1.378 . S
C2327 C2326 1.367 . S
C2327 C2335 1.433 . S
C2328 H2324 0.929 . S
C2328 C2330 1.378 . S
C2328 C2332 1.350 . S
C2329 C2332 1.463 . S
C2329 C2334 1.350 . S
C2329 N2337 1.427 . S
C2330 H2321 0.930 . S
C2330 C2328 1.378 . S
C2330 C2331 1.367 . S
C2331 C2330 1.367 . S
C2331 C2333 1.433 . S
C2332 C2328 1.350 . S
C2332 C2329 1.463 . S
C2332 N2336 1.427 . S
C2333 H2323 0.929 . S
C2333 C2331 1.433 . S
C2333 N2336 1.384 . S
C2334 H2325 0.929 . S
C2334 C2326 1.378 . S
C2334 C2329 1.350 . S
C2335 H2322 0.929 . S
C2335 C2327 1.433 . S
C2335 N2337 1.384 . S
N2336 C2332 1.427 . S
N2336 C2333 1.384 . S
N2337 C2329 1.427 . S
N2337 C2335 1.384 . S
H2338 C2344 0.930 . S
H2339 C2348 0.930 . S
H2340 C2353 0.929 . S
H2341 C2351 0.929 . S
H2342 C2346 0.929 . S
H2343 C2352 0.929 . S
C2344 H2338 0.930 . S
C2344 C2345 1.367 . S
C2344 C2352 1.378 . S
C2345 C2344 1.367 . S
C2345 C2353 1.433 . S
C2346 H2342 0.929 . S
C2346 C2348 1.378 . S
C2346 C2350 1.350 . S
C2347 C2350 1.463 . S
C2347 C2352 1.350 . S
C2347 N2355 1.427 . S
C2348 H2339 0.930 . S
C2348 C2346 1.378 . S
C2348 C2349 1.367 . S
C2349 C2348 1.367 . S
C2349 C2351 1.433 . S
C2350 C2346 1.350 . S
C2350 C2347 1.463 . S
C2350 N2354 1.427 . S
C2351 H2341 0.929 . S
C2351 C2349 1.433 . S
C2351 N2354 1.384 . S
C2352 H2343 0.929 . S
C2352 C2344 1.378 . S
C2352 C2347 1.350 . S
C2353 H2340 0.929 . S
C2353 C2345 1.433 . S
C2353 N2355 1.384 . S
N2354 C2350 1.427 . S
N2354 C2351 1.384 . S
N2355 C2347 1.427 . S
N2355 C2353 1.384 . S
H2356 C2362 0.930 . S
H2357 C2366 0.930 . S
H2358 C2371 0.929 . S
H2359 C2369 0.929 . S
H2360 C2364 0.929 . S
H2361 C2370 0.929 . S
C2362 H2356 0.930 . S
C2362 C2363 1.367 . S
C2362 C2370 1.378 . S
C2363 C2362 1.367 . S
C2363 C2371 1.433 . S
C2364 H2360 0.929 . S
C2364 C2366 1.378 . S
C2364 C2368 1.350 . S
C2365 C2368 1.463 . S
C2365 C2370 1.350 . S
C2365 N2373 1.427 . S
C2366 H2357 0.930 . S
C2366 C2364 1.378 . S
C2366 C2367 1.367 . S
C2367 C2366 1.367 . S
C2367 C2369 1.433 . S
C2368 C2364 1.350 . S
C2368 C2365 1.463 . S
C2368 N2372 1.427 . S
C2369 H2359 0.929 . S
C2369 C2367 1.433 . S
C2369 N2372 1.384 . S
C2370 H2361 0.929 . S
C2370 C2362 1.378 . S
C2370 C2365 1.350 . S
C2371 H2358 0.929 . S
C2371 C2363 1.433 . S
C2371 N2373 1.384 . S
N2372 C2368 1.427 . S
N2372 C2369 1.384 . S
N2373 C2365 1.427 . S
N2373 C2371 1.384 . S
H2374 C2380 0.930 . S
H2375 C2384 0.930 . S
H2376 C2389 0.929 . S
H2377 C2387 0.929 . S
H2378 C2382 0.929 . S
H2379 C2388 0.929 . S
C2380 H2374 0.930 . S
C2380 C2381 1.367 . S
C2380 C2388 1.378 . S
C2381 C2380 1.367 . S
C2381 C2389 1.433 . S
C2382 H2378 0.929 . S
C2382 C2384 1.378 . S
C2382 C2386 1.350 . S
C2383 C2386 1.463 . S
C2383 C2388 1.350 . S
C2383 N2391 1.427 . S
C2384 H2375 0.930 . S
C2384 C2382 1.378 . S
C2384 C2385 1.367 . S
C2385 C2384 1.367 . S
C2385 C2387 1.433 . S
C2386 C2382 1.350 . S
C2386 C2383 1.463 . S
C2386 N2390 1.427 . S
C2387 H2377 0.929 . S
C2387 C2385 1.433 . S
C2387 N2390 1.384 . S
C2388 H2379 0.929 . S
C2388 C2380 1.378 . S
C2388 C2383 1.350 . S
C2389 H2376 0.929 . S
C2389 C2381 1.433 . S
C2389 N2391 1.384 . S
N2390 C2386 1.427 . S
N2390 C2387 1.384 . S
N2391 C2383 1.427 . S
N2391 C2389 1.384 . S
H2392 C2398 0.930 . S
H2393 C2402 0.930 . S
H2394 C2407 0.929 . S
H2395 C2405 0.929 . S
H2396 C2400 0.929 . S
H2397 C2406 0.929 . S
C2398 H2392 0.930 . S
C2398 C2399 1.367 . S
C2398 C2406 1.378 . S
C2399 C2398 1.367 . S
C2399 C2407 1.433 . S
C2400 H2396 0.929 . S
C2400 C2402 1.378 . S
C2400 C2404 1.350 . S
C2401 C2404 1.463 . S
C2401 C2406 1.350 . S
C2401 N2409 1.427 . S
C2402 H2393 0.930 . S
C2402 C2400 1.378 . S
C2402 C2403 1.367 . S
C2403 C2402 1.367 . S
C2403 C2405 1.433 . S
C2404 C2400 1.350 . S
C2404 C2401 1.463 . S
C2404 N2408 1.427 . S
C2405 H2395 0.929 . S
C2405 C2403 1.433 . S
C2405 N2408 1.384 . S
C2406 H2397 0.929 . S
C2406 C2398 1.378 . S
C2406 C2401 1.350 . S
C2407 H2394 0.929 . S
C2407 C2399 1.433 . S
C2407 N2409 1.384 . S
N2408 C2404 1.427 . S
N2408 C2405 1.384 . S
N2409 C2401 1.427 . S
N2409 C2407 1.384 . S
H2410 C2416 0.930 . S
H2411 C2420 0.930 . S
H2412 C2425 0.929 . S
H2413 C2423 0.929 . S
H2414 C2418 0.929 . S
H2415 C2424 0.929 . S
C2416 H2410 0.930 . S
C2416 C2417 1.367 . S
C2416 C2424 1.378 . S
C2417 C2416 1.367 . S
C2417 C2425 1.433 . S
C2418 H2414 0.929 . S
C2418 C2420 1.378 . S
C2418 C2422 1.350 . S
C2419 C2422 1.463 . S
C2419 C2424 1.350 . S
C2419 N2427 1.427 . S
C2420 H2411 0.930 . S
C2420 C2418 1.378 . S
C2420 C2421 1.367 . S
C2421 C2420 1.367 . S
C2421 C2423 1.433 . S
C2422 C2418 1.350 . S
C2422 C2419 1.463 . S
C2422 N2426 1.427 . S
C2423 H2413 0.929 . S
C2423 C2421 1.433 . S
C2423 N2426 1.384 . S
C2424 H2415 0.929 . S
C2424 C2416 1.378 . S
C2424 C2419 1.350 . S
C2425 H2412 0.929 . S
C2425 C2417 1.433 . S
C2425 N2427 1.384 . S
N2426 C2422 1.427 . S
N2426 C2423 1.384 . S
N2427 C2419 1.427 . S
N2427 C2425 1.384 . S
H2428 C2434 0.930 . S
H2429 C2438 0.930 . S
H2430 C2443 0.929 . S
H2431 C2441 0.929 1_455 S
H2432 C2436 0.929 . S
H2433 C2442 0.929 . S
C2434 H2428 0.930 . S
C2434 C2435 1.367 . S
C2434 C2442 1.378 . S
C2435 C2434 1.367 . S
C2435 C2443 1.433 . S
C2436 H2432 0.929 . S
C2436 C2438 1.378 . S
C2436 C2440 1.350 . S
C2437 C2440 1.463 . S
C2437 C2442 1.350 . S
C2437 N2445 1.427 . S
C2438 H2429 0.930 . S
C2438 C2436 1.378 . S
C2438 C2439 1.367 1_655 S
C2439 C2438 1.367 1_455 S
C2439 C2441 1.433 1_455 S
C2440 C2436 1.350 . S
C2440 C2437 1.463 . S
C2440 N2444 1.427 . S
C2441 H2431 0.929 1_655 S
C2441 C2439 1.433 1_655 S
C2441 N2444 1.384 . S
C2442 H2433 0.929 . S
C2442 C2434 1.378 . S
C2442 C2437 1.350 . S
C2443 H2430 0.929 . S
C2443 C2435 1.433 . S
C2443 N2445 1.384 . S
N2444 C2440 1.427 . S
N2444 C2441 1.384 . S
N2445 C2437 1.427 . S
N2445 C2443 1.384 . S
H2446 C2452 0.930 . S
H2447 C2456 0.930 . S
H2448 C2461 0.929 . S
H2449 C2459 0.929 . S
H2450 C2454 0.929 . S
H2451 C2460 0.929 . S
C2452 H2446 0.930 . S
C2452 C2453 1.367 . S
C2452 C2460 1.378 . S
C2453 C2452 1.367 . S
C2453 C2461 1.433 . S
C2454 H2450 0.929 . S
C2454 C2456 1.378 . S
C2454 C2458 1.350 . S
C2455 C2458 1.463 . S
C2455 C2460 1.350 . S
C2455 N2463 1.427 . S
C2456 H2447 0.930 . S
C2456 C2454 1.378 . S
C2456 C2457 1.367 . S
C2457 C2456 1.367 . S
C2457 C2459 1.433 . S
C2458 C2454 1.350 . S
C2458 C2455 1.463 . S
C2458 N2462 1.427 . S
C2459 H2449 0.929 . S
C2459 C2457 1.433 . S
C2459 N2462 1.384 . S
C2460 H2451 0.929 . S
C2460 C2452 1.378 . S
C2460 C2455 1.350 . S
C2461 H2448 0.929 . S
C2461 C2453 1.433 . S
C2461 N2463 1.384 . S
N2462 C2458 1.427 . S
N2462 C2459 1.384 . S
N2463 C2455 1.427 . S
N2463 C2461 1.384 . S
H2464 C2470 0.930 . S
H2465 C2474 0.930 . S
H2466 C2479 0.929 . S
H2467 C2477 0.929 . S
H2468 C2472 0.929 . S
H2469 C2478 0.929 . S
C2470 H2464 0.930 . S
C2470 C2471 1.367 . S
C2470 C2478 1.378 . S
C2471 C2470 1.367 . S
C2471 C2479 1.433 . S
C2472 H2468 0.929 . S
C2472 C2474 1.378 . S
C2472 C2476 1.350 . S
C2473 C2476 1.463 . S
C2473 C2478 1.350 . S
C2473 N2481 1.427 . S
C2474 H2465 0.930 . S
C2474 C2472 1.378 . S
C2474 C2475 1.367 . S
C2475 C2474 1.367 . S
C2475 C2477 1.433 . S
C2476 C2472 1.350 . S
C2476 C2473 1.463 . S
C2476 N2480 1.427 . S
C2477 H2467 0.929 . S
C2477 C2475 1.433 . S
C2477 N2480 1.384 . S
C2478 H2469 0.929 . S
C2478 C2470 1.378 . S
C2478 C2473 1.350 . S
C2479 H2466 0.929 . S
C2479 C2471 1.433 . S
C2479 N2481 1.384 . S
N2480 C2476 1.427 . S
N2480 C2477 1.384 . S
N2481 C2473 1.427 . S
N2481 C2479 1.384 . S
H2482 C2488 0.930 . S
H2483 C2492 0.930 . S
H2484 C2497 0.929 . S
H2485 C2495 0.929 . S
H2486 C2490 0.929 . S
H2487 C2496 0.929 . S
C2488 H2482 0.930 . S
C2488 C2489 1.367 . S
C2488 C2496 1.378 . S
C2489 C2488 1.367 . S
C2489 C2497 1.433 . S
C2490 H2486 0.929 . S
C2490 C2492 1.378 . S
C2490 C2494 1.350 . S
C2491 C2494 1.463 . S
C2491 C2496 1.350 . S
C2491 N2499 1.427 . S
C2492 H2483 0.930 . S
C2492 C2490 1.378 . S
C2492 C2493 1.367 . S
C2493 C2492 1.367 . S
C2493 C2495 1.433 . S
C2494 C2490 1.350 . S
C2494 C2491 1.463 . S
C2494 N2498 1.427 . S
C2495 H2485 0.929 . S
C2495 C2493 1.433 . S
C2495 N2498 1.384 . S
C2496 H2487 0.929 . S
C2496 C2488 1.378 . S
C2496 C2491 1.350 . S
C2497 H2484 0.929 . S
C2497 C2489 1.433 . S
C2497 N2499 1.384 . S
N2498 C2494 1.427 . S
N2498 C2495 1.384 . S
N2499 C2491 1.427 . S
N2499 C2497 1.384 . S
H2500 C2506 0.930 . S
H2501 C2510 0.930 . S
H2502 C2515 0.929 . S
H2503 C2513 0.929 . S
H2504 C2508 0.929 . S
H2505 C2514 0.929 . S
C2506 H2500 0.930 . S
C2506 C2507 1.367 . S
C2506 C2514 1.378 . S
C2507 C2506 1.367 . S
C2507 C2515 1.433 . S
C2508 H2504 0.929 . S
C2508 C2510 1.378 . S
C2508 C2512 1.350 . S
C2509 C2512 1.463 . S
C2509 C2514 1.350 . S
C2509 N2517 1.427 . S
C2510 H2501 0.930 . S
C2510 C2508 1.378 . S
C2510 C2511 1.367 . S
C2511 C2510 1.367 . S
C2511 C2513 1.433 . S
C2512 C2508 1.350 . S
C2512 C2509 1.463 . S
C2512 N2516 1.427 . S
C2513 H2503 0.929 . S
C2513 C2511 1.433 . S
C2513 N2516 1.384 . S
C2514 H2505 0.929 . S
C2514 C2506 1.378 . S
C2514 C2509 1.350 . S
C2515 H2502 0.929 . S
C2515 C2507 1.433 . S
C2515 N2517 1.384 . S
N2516 C2512 1.427 . S
N2516 C2513 1.384 . S
N2517 C2509 1.427 . S
N2517 C2515 1.384 . S
H2518 C2524 0.930 . S
H2519 C2528 0.930 . S
H2520 C2533 0.929 . S
H2521 C2531 0.929 . S
H2522 C2526 0.929 . S
H2523 C2532 0.929 . S
C2524 H2518 0.930 . S
C2524 C2525 1.367 . S
C2524 C2532 1.378 . S
C2525 C2524 1.367 . S
C2525 C2533 1.433 . S
C2526 H2522 0.929 . S
C2526 C2528 1.378 . S
C2526 C2530 1.350 . S
C2527 C2530 1.463 . S
C2527 C2532 1.350 . S
C2527 N2535 1.427 . S
C2528 H2519 0.930 . S
C2528 C2526 1.378 . S
C2528 C2529 1.367 . S
C2529 C2528 1.367 . S
C2529 C2531 1.433 . S
C2530 C2526 1.350 . S
C2530 C2527 1.463 . S
C2530 N2534 1.427 . S
C2531 H2521 0.929 . S
C2531 C2529 1.433 . S
C2531 N2534 1.384 . S
C2532 H2523 0.929 . S
C2532 C2524 1.378 . S
C2532 C2527 1.350 . S
C2533 H2520 0.929 . S
C2533 C2525 1.433 . S
C2533 N2535 1.384 . S
N2534 C2530 1.427 . S
N2534 C2531 1.384 . S
N2535 C2527 1.427 . S
N2535 C2533 1.384 . S
H2536 C2542 0.930 . S
H2537 C2546 0.930 . S
H2538 C2551 0.929 . S
H2539 C2549 0.929 . S
H2540 C2544 0.929 . S
H2541 C2550 0.929 . S
C2542 H2536 0.930 . S
C2542 C2543 1.367 . S
C2542 C2550 1.378 . S
C2543 C2542 1.367 . S
C2543 C2551 1.433 . S
C2544 H2540 0.929 . S
C2544 C2546 1.378 . S
C2544 C2548 1.350 . S
C2545 C2548 1.463 . S
C2545 C2550 1.350 . S
C2545 N2553 1.427 . S
C2546 H2537 0.930 . S
C2546 C2544 1.378 . S
C2546 C2547 1.367 . S
C2547 C2546 1.367 . S
C2547 C2549 1.433 . S
C2548 C2544 1.350 . S
C2548 C2545 1.463 . S
C2548 N2552 1.427 . S
C2549 H2539 0.929 . S
C2549 C2547 1.433 . S
C2549 N2552 1.384 . S
C2550 H2541 0.929 . S
C2550 C2542 1.378 . S
C2550 C2545 1.350 . S
C2551 H2538 0.929 . S
C2551 C2543 1.433 . S
C2551 N2553 1.384 . S
N2552 C2548 1.427 . S
N2552 C2549 1.384 . S
N2553 C2545 1.427 . S
N2553 C2551 1.384 . S
H2554 C2560 0.930 . S
H2555 C2564 0.930 . S
H2556 C2569 0.929 . S
H2557 C2567 0.929 . S
H2558 C2562 0.929 . S
H2559 C2568 0.929 . S
C2560 H2554 0.930 . S
C2560 C2561 1.367 . S
C2560 C2568 1.378 . S
C2561 C2560 1.367 . S
C2561 C2569 1.433 . S
C2562 H2558 0.929 . S
C2562 C2564 1.378 1_565 S
C2562 C2566 1.350 . S
C2563 C2566 1.463 . S
C2563 C2568 1.350 . S
C2563 N2571 1.427 . S
C2564 H2555 0.930 . S
C2564 C2562 1.378 1_545 S
C2564 C2565 1.367 . S
C2565 C2564 1.367 . S
C2565 C2567 1.433 1_545 S
C2566 C2562 1.350 . S
C2566 C2563 1.463 . S
C2566 N2570 1.427 . S
C2567 H2557 0.929 . S
C2567 C2565 1.433 1_565 S
C2567 N2570 1.384 . S
C2568 H2559 0.929 . S
C2568 C2560 1.378 . S
C2568 C2563 1.350 . S
C2569 H2556 0.929 . S
C2569 C2561 1.433 . S
C2569 N2571 1.384 . S
N2570 C2566 1.427 . S
N2570 C2567 1.384 . S
N2571 C2563 1.427 . S
N2571 C2569 1.384 . S
H2572 C2578 0.930 . S
H2573 C2582 0.930 . S
H2574 C2587 0.929 . S
H2575 C2585 0.929 . S
H2576 C2580 0.929 . S
H2577 C2586 0.929 . S
C2578 H2572 0.930 . S
C2578 C2579 1.367 . S
C2578 C2586 1.378 . S
C2579 C2578 1.367 . S
C2579 C2587 1.433 . S
C2580 H2576 0.929 . S
C2580 C2582 1.378 . S
C2580 C2584 1.350 . S
C2581 C2584 1.463 . S
C2581 C2586 1.350 . S
C2581 N2589 1.427 . S
C2582 H2573 0.930 . S
C2582 C2580 1.378 . S
C2582 C2583 1.367 . S
C2583 C2582 1.367 . S
C2583 C2585 1.433 . S
C2584 C2580 1.350 . S
C2584 C2581 1.463 . S
C2584 N2588 1.427 . S
C2585 H2575 0.929 . S
C2585 C2583 1.433 . S
C2585 N2588 1.384 . S
C2586 H2577 0.929 . S
C2586 C2578 1.378 . S
C2586 C2581 1.350 . S
C2587 H2574 0.929 . S
C2587 C2579 1.433 . S
C2587 N2589 1.384 . S
N2588 C2584 1.427 . S
N2588 C2585 1.384 . S
N2589 C2581 1.427 . S
N2589 C2587 1.384 . S
H2590 C2596 0.930 . S
H2591 C2600 0.930 . S
H2592 C2605 0.929 . S
H2593 C2603 0.929 . S
H2594 C2598 0.929 . S
H2595 C2604 0.929 . S
C2596 H2590 0.930 . S
C2596 C2597 1.367 . S
C2596 C2604 1.378 . S
C2597 C2596 1.367 . S
C2597 C2605 1.433 . S
C2598 H2594 0.929 . S
C2598 C2600 1.378 . S
C2598 C2602 1.350 . S
C2599 C2602 1.463 . S
C2599 C2604 1.350 . S
C2599 N2607 1.427 . S
C2600 H2591 0.930 . S
C2600 C2598 1.378 . S
C2600 C2601 1.367 . S
C2601 C2600 1.367 . S
C2601 C2603 1.433 . S
C2602 C2598 1.350 . S
C2602 C2599 1.463 . S
C2602 N2606 1.427 . S
C2603 H2593 0.929 . S
C2603 C2601 1.433 . S
C2603 N2606 1.384 . S
C2604 H2595 0.929 . S
C2604 C2596 1.378 . S
C2604 C2599 1.350 . S
C2605 H2592 0.929 . S
C2605 C2597 1.433 . S
C2605 N2607 1.384 . S
N2606 C2602 1.427 . S
N2606 C2603 1.384 . S
N2607 C2599 1.427 . S
N2607 C2605 1.384 . S
H2608 C2614 0.930 . S
H2609 C2618 0.930 . S
H2610 C2623 0.929 . S
H2611 C2621 0.929 . S
H2612 C2616 0.929 . S
H2613 C2622 0.929 . S
C2614 H2608 0.930 . S
C2614 C2615 1.367 . S
C2614 C2622 1.378 . S
C2615 C2614 1.367 . S
C2615 C2623 1.433 . S
C2616 H2612 0.929 . S
C2616 C2618 1.378 . S
C2616 C2620 1.350 . S
C2617 C2620 1.463 . S
C2617 C2622 1.350 . S
C2617 N2625 1.427 . S
C2618 H2609 0.930 . S
C2618 C2616 1.378 . S
C2618 C2619 1.367 . S
C2619 C2618 1.367 . S
C2619 C2621 1.433 . S
C2620 C2616 1.350 . S
C2620 C2617 1.463 . S
C2620 N2624 1.427 . S
C2621 H2611 0.929 . S
C2621 C2619 1.433 . S
C2621 N2624 1.384 . S
C2622 H2613 0.929 . S
C2622 C2614 1.378 . S
C2622 C2617 1.350 . S
C2623 H2610 0.929 . S
C2623 C2615 1.433 . S
C2623 N2625 1.384 . S
N2624 C2620 1.427 . S
N2624 C2621 1.384 . S
N2625 C2617 1.427 . S
N2625 C2623 1.384 . S
H2626 C2632 0.930 . S
H2627 C2636 0.930 . S
H2628 C2641 0.929 . S
H2629 C2639 0.929 . S
H2630 C2634 0.929 . S
H2631 C2640 0.929 1_556 S
C2632 H2626 0.930 . S
C2632 C2633 1.367 . S
C2632 C2640 1.378 . S
C2633 C2632 1.367 . S
C2633 C2641 1.433 . S
C2634 H2630 0.929 . S
C2634 C2636 1.378 . S
C2634 C2638 1.350 . S
C2635 C2638 1.463 . S
C2635 C2640 1.350 . S
C2635 N2643 1.427 . S
C2636 H2627 0.930 . S
C2636 C2634 1.378 . S
C2636 C2637 1.367 1_554 S
C2637 C2636 1.367 1_556 S
C2637 C2639 1.433 . S
C2638 C2634 1.350 . S
C2638 C2635 1.463 . S
C2638 N2642 1.427 1_554 S
C2639 H2629 0.929 . S
C2639 C2637 1.433 . S
C2639 N2642 1.384 . S
C2640 H2631 0.929 1_554 S
C2640 C2632 1.378 . S
C2640 C2635 1.350 . S
C2641 H2628 0.929 . S
C2641 C2633 1.433 . S
C2641 N2643 1.384 . S
N2642 C2638 1.427 1_556 S
N2642 C2639 1.384 . S
N2643 C2635 1.427 . S
N2643 C2641 1.384 . S
H2644 C2650 0.930 . S
H2645 C2654 0.930 . S
H2646 C2659 0.929 . S
H2647 C2657 0.929 . S
H2648 C2652 0.929 . S
H2649 C2658 0.929 . S
C2650 H2644 0.930 . S
C2650 C2651 1.367 . S
C2650 C2658 1.378 . S
C2651 C2650 1.367 . S
C2651 C2659 1.433 . S
C2652 H2648 0.929 . S
C2652 C2654 1.378 . S
C2652 C2656 1.350 . S
C2653 C2656 1.463 . S
C2653 C2658 1.350 . S
C2653 N2661 1.427 . S
C2654 H2645 0.930 . S
C2654 C2652 1.378 . S
C2654 C2655 1.367 . S
C2655 C2654 1.367 . S
C2655 C2657 1.433 . S
C2656 C2652 1.350 . S
C2656 C2653 1.463 . S
C2656 N2660 1.427 . S
C2657 H2647 0.929 . S
C2657 C2655 1.433 . S
C2657 N2660 1.384 . S
C2658 H2649 0.929 . S
C2658 C2650 1.378 . S
C2658 C2653 1.350 . S
C2659 H2646 0.929 . S
C2659 C2651 1.433 . S
C2659 N2661 1.384 . S
N2660 C2656 1.427 . S
N2660 C2657 1.384 . S
N2661 C2653 1.427 . S
N2661 C2659 1.384 . S
H2662 C2668 0.930 . S
H2663 C2672 0.930 . S
H2664 C2677 0.929 . S
H2665 C2675 0.929 . S
H2666 C2670 0.929 . S
H2667 C2676 0.929 . S
C2668 H2662 0.930 . S
C2668 C2669 1.367 . S
C2668 C2676 1.378 . S
C2669 C2668 1.367 . S
C2669 C2677 1.433 . S
C2670 H2666 0.929 . S
C2670 C2672 1.378 . S
C2670 C2674 1.350 . S
C2671 C2674 1.463 . S
C2671 C2676 1.350 . S
C2671 N2679 1.427 . S
C2672 H2663 0.930 . S
C2672 C2670 1.378 . S
C2672 C2673 1.367 . S
C2673 C2672 1.367 . S
C2673 C2675 1.433 . S
C2674 C2670 1.350 . S
C2674 C2671 1.463 . S
C2674 N2678 1.427 . S
C2675 H2665 0.929 . S
C2675 C2673 1.433 . S
C2675 N2678 1.384 . S
C2676 H2667 0.929 . S
C2676 C2668 1.378 . S
C2676 C2671 1.350 . S
C2677 H2664 0.929 . S
C2677 C2669 1.433 . S
C2677 N2679 1.384 . S
N2678 C2674 1.427 . S
N2678 C2675 1.384 . S
N2679 C2671 1.427 . S
N2679 C2677 1.384 . S
C959 C101 2.270 . S
C963 C325 2.273 . S
C977 C57 2.066 . S
C981 C376 2.080 . S
C995 C73 1.642 . S
C999 C405 1.732 . S
C1017 C449 1.390 . S
C1013 C78 1.395 . S
C1031 C21 1.359 . S
C1035 C489 1.360 . S
C1053 C525 1.683 . S
C1049 C31 1.596 . S
C1071 C575 1.885 . S
C1067 C49 1.856 . S
C1085 C0 2.176 . S
C1089 C605 2.291 . S
C1107 C335 1.930 . S
C1103 C218 1.963 . S
C1121 C229 0.594 . S
C1125 C378 0.593 . S
C1143 C415 1.225 . S
C1139 C257 1.232 . S
C1161 C445 1.430 . S
C1157 C164 1.366 . S
C1175 C216 1.393 . S
C1179 C485 1.460 . S
C1197 C535 0.888 . S
C1193 C231 0.902 . S
C1215 C569 0.808 . S
C1211 C255 0.811 . S
C1233 C615 1.901 . S
C1229 C166 1.933 . S
C1251 C329 1.098 . S
C1247 C143 1.078 1_556 S
C1265 C265 1.696 . S
C1269 C655 1.706 . S
C1287 C689 1.369 . S
C1283 C299 1.367 . S
C1305 C725 0.843 . S
C1301 C291 0.842 . S
C1319 C104 1.251 . S
C1323 C609 1.282 . S
C1337 C117 1.443 . S
C1341 C409 1.442 . S
C1355 C304 1.562 . S
C1359 C775 1.574 . S
C1377 C794 0.208 . S
C1373 C278 0.352 . S
C1395 C336 2.213 . S
C1391 C60 2.212 . S
C1413 C805 1.980 . S
C1409 C96 2.000 . S
C1427 C88 1.617 . S
C1431 C416 1.612 . S
C1445 C65 1.397 . S
C1449 C778 1.353 . S
C1467 C498 1.312 . S
C1463 C10 1.339 . S
C1481 C44 1.506 . S
C1485 C696 1.584 . S
C1503 C554 1.801 1_556 S
C1499 C34 1.731 . S
C1521 C856 2.234 . S
C1517 C13 2.236 . S
C1539 C314 1.850 . S
C1535 C138 1.854 . S
C1557 C809 0.559 . S
C1553 C296 0.538 . S
C1571 C112 1.145 . S
C1575 C394 1.161 . S
C1589 C270 1.338 . S
C1593 C776 1.332 . S
C1607 C140 1.358 . S
C1611 C496 1.351 . S
C1629 C674 0.810 . S
C1625 C294 0.811 . S
C1643 C114 0.784 . S
C1647 C578 0.786 . S
C1661 C268 1.820 . S
C1665 C834 1.827 . S
C1679 C169 1.174 . S
C1683 C338 1.104 . S
C1697 C161 1.637 . S
C1701 C634 1.636 . S
C1715 C234 1.435 . S
C1719 C538 1.372 . S
C1733 C226 0.773 . S
C1737 C736 0.765 . S
C1755 C858 1.259 . S
C1751 C247 1.342 . S
C1769 C195 1.522 . S
C1773 C418 1.428 . S
C1791 C434 1.489 . S
C1787 C239 1.493 . S
C1809 C375 0.176 . S
C1805 C187 0.349 . S
C1823 C75 2.271 . S
C1827 C885 2.267 . S
C1845 C816 2.081 . S
C1841 C83 2.064 . S
C1859 C99 1.622 1_554 S
C1863 C925 1.737 . S
C1877 C52 1.395 1_655 S
C1881 C769 1.388 . S
C1895 C47 1.364 . S
C1899 C649 1.358 . S
C1917 C685 1.680 . S
C1913 C5 1.604 . S
C1935 C735 1.880 . S
C1931 C23 1.863 . S
C1953 C845 2.291 . S
C1949 C26 2.176 . S
C1971 C895 1.928 . S
C1967 C244 1.961 . S
C1985 C177 0.569 . S
C1989 C818 0.600 . S
C2007 C935 1.226 . S
C2003 C192 1.224 . S
C2025 C765 1.430 . S
C2021 C203 1.366 . S
C2043 C645 1.461 . S
C2039 C242 1.389 . S
C2057 C179 0.901 . S
C2061 C695 0.888 . S
C2079 C729 0.809 . S
C2075 C190 0.808 . S
C2093 C205 1.931 . S
C2097 C855 1.894 . S
C2115 C889 1.098 . S
C2111 C286 1.078 . S
C2129 C122 1.696 . S
C2133 C495 1.708 . S
C2151 C529 1.352 . S
C2147 C130 1.354 1_565 S
C2169 C565 0.842 . S
C2165 C148 0.843 . S
C2187 C849 1.271 . S
C2183 C273 1.233 . S
C2201 C260 1.445 . S
C2205 C929 1.447 . S
C2223 C455 1.572 . S
C2219 C135 1.553 . S
C2241 C354 0.196 . S
C2237 C109 0.362 . S
C2255 C86 2.211 . S
C2259 C896 2.213 . S
C2277 C365 1.979 . S
C2273 C70 2.000 . S
C2291 C62 1.620 . S
C2295 C936 1.606 . S
C2309 C91 1.396 . S
C2313 C458 1.357 . S
C2327 C36 1.339 . S
C2331 C658 1.309 . S
C2349 C536 1.579 . S
C2345 C18 1.519 . S
C2363 C8 1.737 . S
C2367 C714 1.799 . S
C2381 C39 2.242 . S
C2385 C616 2.228 . S
C2403 C874 1.850 . S
C2399 C307 1.855 . S
C2417 C153 0.558 . S
C2421 C369 0.576 . S
C2439 C914 1.150 . S
C2435 C281 1.157 . S
C2453 C127 1.338 . S
C2457 C456 1.332 . S
C2471 C309 1.358 . S
C2475 C656 1.351 . S
C2493 C514 0.804 . S
C2489 C151 0.821 . S
C2507 C283 0.786 . S
C2511 C738 0.792 . S
C2529 C594 1.826 . S
C2525 C125 1.820 . S
C2547 C898 1.106 . S
C2543 C221 1.174 . S
C2565 C474 1.634 . S
C2561 C200 1.635 . S
C2579 C208 1.435 . S
C2583 C698 1.365 . S
C2601 C576 0.779 . S
C2597 C174 0.760 . S
C2615 C182 1.344 . S
C2619 C618 1.277 . S
C2633 C156 1.522 . S
C2637 C938 1.429 . S
C2655 C754 1.494 . S
C2651 C213 1.495 . S
C2673 C815 0.183 . S
C2669 C252 0.335 . S
