# Generated by pormake.
# Topology ant, (3,6)-cn, num edge types: 1
# Building blocks:
#     Node 0, Type 0, BuildingBlock: OLANEW_clean_sbu_2, # of connection points: 3
#     Node 1, Type 0, BuildingBlock: OLANEW_clean_sbu_2, # of connection points: 3
#     Node 2, Type 0, BuildingBlock: OLANEW_clean_sbu_2, # of connection points: 3
#     Node 3, Type 0, BuildingBlock: OLANEW_clean_sbu_2, # of connection points: 3
#     Node 4, Type 0, BuildingBlock: OLANEW_clean_sbu_2, # of connection points: 3
#     Node 5, Type 0, BuildingBlock: OLANEW_clean_sbu_2, # of connection points: 3
#     Node 6, Type 0, BuildingBlock: OLANEW_clean_sbu_2, # of connection points: 3
#     Node 7, Type 0, BuildingBlock: OLANEW_clean_sbu_2, # of connection points: 3
#     Node 8, Type 1, BuildingBlock: MIDCAF_clean_sbu_0, # of connection points: 6
#     Node 9, Type 1, BuildingBlock: MIDCAF_clean_sbu_0, # of connection points: 6
#     Node 10, Type 1, BuildingBlock: MIDCAF_clean_sbu_0, # of connection points: 6
#     Node 11, Type 1, BuildingBlock: MIDCAF_clean_sbu_0, # of connection points: 6
#     Edge 12, Type (0, 1), BuildingBlock: EZIPEK_clean_linker_0, # of connection points: 2
#     Edge 13, Type (0, 1), BuildingBlock: EZIPEK_clean_linker_0, # of connection points: 2
#     Edge 14, Type (0, 1), BuildingBlock: EZIPEK_clean_linker_0, # of connection points: 2
#     Edge 15, Type (0, 1), BuildingBlock: EZIPEK_clean_linker_0, # of connection points: 2
#     Edge 16, Type (0, 1), BuildingBlock: EZIPEK_clean_linker_0, # of connection points: 2
#     Edge 17, Type (0, 1), BuildingBlock: EZIPEK_clean_linker_0, # of connection points: 2
#     Edge 18, Type (0, 1), BuildingBlock: EZIPEK_clean_linker_0, # of connection points: 2
#     Edge 19, Type (0, 1), BuildingBlock: EZIPEK_clean_linker_0, # of connection points: 2
#     Edge 20, Type (0, 1), BuildingBlock: EZIPEK_clean_linker_0, # of connection points: 2
#     Edge 21, Type (0, 1), BuildingBlock: EZIPEK_clean_linker_0, # of connection points: 2
#     Edge 22, Type (0, 1), BuildingBlock: EZIPEK_clean_linker_0, # of connection points: 2
#     Edge 23, Type (0, 1), BuildingBlock: EZIPEK_clean_linker_0, # of connection points: 2
#     Edge 24, Type (0, 1), BuildingBlock: EZIPEK_clean_linker_0, # of connection points: 2
#     Edge 25, Type (0, 1), BuildingBlock: EZIPEK_clean_linker_0, # of connection points: 2
#     Edge 26, Type (0, 1), BuildingBlock: EZIPEK_clean_linker_0, # of connection points: 2
#     Edge 27, Type (0, 1), BuildingBlock: EZIPEK_clean_linker_0, # of connection points: 2
#     Edge 28, Type (0, 1), BuildingBlock: EZIPEK_clean_linker_0, # of connection points: 2
#     Edge 29, Type (0, 1), BuildingBlock: EZIPEK_clean_linker_0, # of connection points: 2
#     Edge 30, Type (0, 1), BuildingBlock: EZIPEK_clean_linker_0, # of connection points: 2
#     Edge 31, Type (0, 1), BuildingBlock: EZIPEK_clean_linker_0, # of connection points: 2
#     Edge 32, Type (0, 1), BuildingBlock: EZIPEK_clean_linker_0, # of connection points: 2
#     Edge 33, Type (0, 1), BuildingBlock: EZIPEK_clean_linker_0, # of connection points: 2
#     Edge 34, Type (0, 1), BuildingBlock: EZIPEK_clean_linker_0, # of connection points: 2
#     Edge 35, Type (0, 1), BuildingBlock: EZIPEK_clean_linker_0, # of connection points: 2
# Relax obj value: 0.058
# Max RMSD: 0.136
# Mean RMSD: 0.091
data_MOF--net-ant--node1-OLANEW_clean_sbu_2--node2-MIDCAF_clean_sbu_0--edge1-EZIPEK_clean_linker_0
_symmetry_space_group_name_H-M    P1
_symmetry_Int_Tables_number       1
_symmetry_cell_setting            triclinic
loop_
_symmetry_equiv_pos_as_xyz
'x, y, z'
_cell_length_a     24.265441
_cell_length_b     23.649711
_cell_length_c     55.00916
_cell_angle_alpha  92.428806
_cell_angle_beta   96.777269
_cell_angle_gamma 89.985481
loop_
_atom_site_label
_atom_site_type_symbol
_atom_site_fract_x
_atom_site_fract_y
_atom_site_fract_z
_atom_type_partial_charge
O0 O 0.20033 0.14334 0.01253 0.0
Cd1 Cd 0.24565 0.17988 0.05212 0.0
O2 O 0.14982 0.21762 0.00099 0.0
Cd3 Cd 0.1705 0.28126 0.03071 0.0
O4 O 0.16095 0.36487 0.04867 0.0
C5 C 0.19848 0.4027 0.04967 0.0
O6 O 0.24442 0.39129 0.04 0.0
C7 C 0.1658 0.16711 -0.00292 0.0
C8 C 0.27403 0.08301 0.07764 0.0
O9 O 0.22669 0.10668 0.07824 0.0
O10 O 0.3102 0.1076 0.0665 0.0
O11 O 0.08453 0.82659 0.27137 0.0
Cd12 Cd 0.08335 0.85922 0.31378 0.0
O13 O 0.00415 0.78355 0.26071 0.0
Cd14 Cd 0.97017 0.81061 0.29389 0.0
O15 O 0.89589 0.81517 0.31207 0.0
C16 C 0.85367 0.7921 0.29975 0.0
O17 O 0.85822 0.76841 0.27805 0.0
C18 C 0.05203 0.79738 0.25596 0.0
C19 C 0.19415 0.84102 0.32959 0.0
O20 O 0.17784 0.88993 0.32262 0.0
O21 O 0.15757 0.80301 0.33163 0.0
O22 O 0.70155 0.65162 0.51183 0.0
Cd23 Cd 0.75096 0.68093 0.5517 0.0
O24 O 0.63004 0.70956 0.51009 0.0
Cd25 Cd 0.6522 0.77274 0.53992 0.0
O26 O 0.63886 0.85843 0.55539 0.0
C27 C 0.67624 0.89652 0.55689 0.0
O28 O 0.72446 0.88412 0.54943 0.0
C29 C 0.65472 0.66699 0.50144 0.0
C30 C 0.77345 0.57997 0.57532 0.0
O31 O 0.72826 0.60713 0.57699 0.0
O32 O 0.81034 0.60243 0.56388 0.0
O33 O 0.59316 0.34086 0.77308 0.0
Cd34 Cd 0.60302 0.36609 0.81672 0.0
O35 O 0.51143 0.29838 0.76687 0.0
Cd36 Cd 0.4868 0.3206 0.80246 0.0
O37 O 0.40983 0.30967 0.81784 0.0
C38 C 0.36799 0.29898 0.80216 0.0
O39 O 0.37356 0.29782 0.77868 0.0
C40 C 0.55635 0.31294 0.75923 0.0
C41 C 0.71007 0.32809 0.8299 0.0
O42 O 0.7015 0.37894 0.82329 0.0
O43 O 0.66818 0.29666 0.83221 0.0
O44 O 0.07321 0.71491 0.94955 0.0
Cd45 Cd 0.04894 0.72838 0.90577 0.0
O46 O 0.04178 0.62736 0.95021 0.0
Cd47 Cd 0.00576 0.61677 0.91201 0.0
O48 O 0.97643 0.54479 0.88788 0.0
C49 C 0.92631 0.5278 0.88416 0.0
O50 O 0.88708 0.55835 0.89267 0.0
C51 C 0.06563 0.67067 0.96116 0.0
C52 C 0.05518 0.84143 0.89285 0.0
O53 O 0.00928 0.81984 0.89745 0.0
O54 O 0.09855 0.81025 0.89497 0.0
O55 O 0.77368 0.83088 0.25133 0.0
Cd56 Cd 0.83817 0.89527 0.23543 0.0
O57 O 0.70831 0.85294 0.22231 0.0
Cd58 Cd 0.6225 0.85111 0.20483 0.0
O59 O 0.53808 0.84126 0.18625 0.0
C60 C 0.52369 0.85816 0.1648 0.0
O61 O 0.5597 0.8845 0.15319 0.0
C62 C 0.72358 0.82692 0.24171 0.0
C63 C 0.91052 0.85162 0.20384 0.0
O64 O 0.92476 0.85403 0.22704 0.0
O65 O 0.86172 0.86785 0.19562 0.0
O66 O 0.52117 0.25072 0.45834 0.0
Cd67 Cd 0.48477 0.2703 0.41642 0.0
O68 O 0.46659 0.17687 0.45331 0.0
Cd69 Cd 0.4316 0.09536 0.46013 0.0
O70 O 0.41605 0.01539 0.43972 0.0
C71 C 0.37804 0.00915 0.42181 0.0
O72 O 0.34161 0.04948 0.41714 0.0
C73 C 0.50368 0.20562 0.46663 0.0
C74 C 0.50696 0.37814 0.40167 0.0
O75 O 0.46012 0.36642 0.40891 0.0
O76 O 0.5441 0.33952 0.40235 0.0
O77 O 0.18543 0.31381 0.70873 0.0
Cd78 Cd 0.22401 0.35707 0.6744 0.0
O79 O 0.17654 0.23267 0.68879 0.0
Cd80 Cd 0.14757 0.27726 0.65548 0.0
O81 O 0.06541 0.29547 0.63551 0.0
C82 C 0.02491 0.29355 0.64823 0.0
O83 O 0.03534 0.2855 0.67181 0.0
C84 C 0.17699 0.2608 0.70892 0.0
C85 C 0.33729 0.33802 0.66963 0.0
O86 O 0.32252 0.37563 0.68501 0.0
O87 O 0.29907 0.30737 0.65751 0.0
Zn88 Zn 0.2414 0.67853 0.14719 0.0
Zn89 Zn 0.10934 0.8209 0.091 0.0
Zn90 Zn 0.17876 0.7501 0.11625 0.0
C91 C 0.12374 0.72312 0.06133 0.0
C92 C 0.21489 0.8729 0.10208 0.0
O93 O 0.14413 0.7452 0.15072 0.0
O94 O 0.19856 0.69234 0.17578 0.0
C95 C 0.19829 0.6176 0.10322 0.0
O96 O 0.15284 0.70614 0.08073 0.0
O97 O 0.1011 0.77116 0.06109 0.0
O98 O 0.16535 0.88274 0.09358 0.0
O99 O 0.22884 0.82448 0.11061 0.0
O100 O 0.22458 0.61185 0.12422 0.0
O101 O 0.17936 0.66633 0.0967 0.0
O102 O 0.26271 0.78634 0.12397 0.0
O103 O 0.31096 0.72295 0.14619 0.0
C104 C 0.30852 0.76927 0.13551 0.0
O105 O 0.10649 0.77639 0.13564 0.0
O106 O 0.04809 0.8275 0.11168 0.0
C107 C 0.1568 0.72393 0.17178 0.0
C108 C 0.06058 0.80386 0.1317 0.0
Zn109 Zn 0.48313 0.65895 0.314 0.0
Zn110 Zn 0.59575 0.80206 0.38621 0.0
Zn111 Zn 0.53806 0.72559 0.35429 0.0
C112 C 0.48668 0.83865 0.37823 0.0
C113 C 0.65562 0.78977 0.3477 0.0
O114 O 0.53632 0.63998 0.36699 0.0
O115 O 0.49668 0.59023 0.33438 0.0
C116 C 0.41107 0.74349 0.33177 0.0
O117 O 0.48165 0.7917 0.36549 0.0
O118 O 0.53352 0.85584 0.38821 0.0
O119 O 0.65892 0.81826 0.36773 0.0
O120 O 0.6137 0.75704 0.3409 0.0
O121 O 0.41249 0.70346 0.31584 0.0
O122 O 0.45413 0.75688 0.3468 0.0
O123 O 0.57875 0.73197 0.32101 0.0
O124 O 0.53521 0.68074 0.28983 0.0
C125 C 0.5738 0.71443 0.29838 0.0
O126 O 0.56289 0.67602 0.38617 0.0
O127 O 0.60542 0.74295 0.41108 0.0
C128 C 0.51865 0.59274 0.35647 0.0
C129 C 0.58861 0.69248 0.40703 0.0
Zn130 Zn 0.59904 0.32708 0.59056 0.0
Zn131 Zn 0.71883 0.18256 0.6454 0.0
Zn132 Zn 0.66073 0.25243 0.61455 0.0
C133 C 0.79423 0.25965 0.62974 0.0
C134 C 0.67071 0.11807 0.60378 0.0
O135 O 0.58773 0.28129 0.6341 0.0
O136 O 0.53619 0.33785 0.60994 0.0
C137 C 0.70526 0.37303 0.6001 0.0
O138 O 0.74916 0.28149 0.61936 0.0
O139 O 0.79258 0.21521 0.64156 0.0
O140 O 0.69504 0.11335 0.6252 0.0
O141 O 0.65597 0.16712 0.59594 0.0
O142 O 0.65625 0.38675 0.59244 0.0
O143 O 0.71605 0.3233 0.60806 0.0
O144 O 0.6276 0.20678 0.58026 0.0
O145 O 0.58577 0.27786 0.56064 0.0
C146 C 0.60015 0.22661 0.56105 0.0
O147 O 0.62758 0.25461 0.64958 0.0
O148 O 0.68308 0.20415 0.67519 0.0
C149 C 0.54346 0.31127 0.62943 0.0
C150 C 0.64211 0.23671 0.67116 0.0
Zn151 Zn -0.00938 0.1304 0.81329 0.0
Zn152 Zn 0.10124 0.26997 0.88134 0.0
Zn153 Zn 0.0496 0.19754 0.84896 0.0
C154 C 0.08968 0.16773 0.90406 0.0
C155 C 0.00094 0.31812 0.8673 0.0
O156 O 0.09211 0.2008 0.81568 0.0
O157 O 0.03433 0.15642 0.787 0.0
C158 C 0.03616 0.06317 0.85273 0.0
O159 O 0.07219 0.14943 0.88215 0.0
O160 O 0.10172 0.21925 0.90863 0.0
O161 O 0.04692 0.33199 0.87915 0.0
O162 O -0.00589 0.26901 0.85632 0.0
O163 O 0.01215 0.05962 0.83102 0.0
O164 O 0.05092 0.11166 0.863 0.0
O165 O 0.96415 0.22834 0.8417 0.0
O166 O 0.91664 0.16598 0.81621 0.0
C167 C 0.91819 0.21074 0.82966 0.0
O168 O 0.12505 0.22848 0.83517 0.0
O169 O 0.17031 0.27822 0.86628 0.0
C170 C 0.07812 0.18518 0.79306 0.0
C171 C 0.16808 0.25687 0.84479 0.0
C172 C 0.17337 0.46349 0.08562 0.0
C173 C 0.19103 0.45918 0.06188 0.0
C174 C 0.20898 0.56157 0.06387 0.0
C175 C 0.18839 0.56604 0.08694 0.0
N176 N 0.13516 0.52418 0.11592 0.0
N177 N 0.20902 0.50705 0.02564 0.0
C178 C 0.1652 0.51788 0.09648 0.0
C179 C 0.2036 0.50919 0.0501 0.0
N180 N 0.16807 0.41624 0.09864 0.0
N181 N 0.23673 0.60588 0.05571 0.0
H182 H 0.20325 0.46988 0.01473 0.0
H183 H 0.213 0.54316 0.01575 0.0
H184 H 0.24318 0.64433 0.06559 0.0
H185 H 0.25746 0.6027 0.04017 0.0
H186 H 0.16078 0.41805 0.11695 0.0
H187 H 0.17685 0.37554 0.09223 0.0
H188 H 0.11311 0.49107 0.12221 0.0
H189 H 0.12735 0.56373 0.12394 0.0
C190 C 0.76961 0.84131 0.31245 0.0
C191 C 0.80024 0.79064 0.31 0.0
C192 C 0.73462 0.73901 0.33143 0.0
C193 C 0.70308 0.78928 0.33326 0.0
N194 N 0.68325 0.88471 0.32157 0.0
N195 N 0.80709 0.68921 0.31272 0.0
C196 C 0.7185 0.83952 0.32263 0.0
C197 C 0.78095 0.73875 0.31793 0.0
N198 N 0.78966 0.89112 0.30517 0.0
N199 N 0.72236 0.69249 0.34382 0.0
H200 H 0.84315 0.68735 0.30413 0.0
H201 H 0.79089 0.64944 0.31529 0.0
H202 H 0.68918 0.69072 0.3542 0.0
H203 H 0.74765 0.65699 0.34554 0.0
H204 H 0.77281 0.93052 0.30898 0.0
H205 H 0.8252 0.8935 0.29628 0.0
H206 H 0.68926 0.92077 0.312 0.0
H207 H 0.64507 0.88414 0.32852 0.0
C208 C 0.76881 0.51647 0.60998 0.0
C209 C 0.7803 0.52293 0.58557 0.0
C210 C 0.77472 0.41992 0.57838 0.0
C211 C 0.74874 0.41644 0.59987 0.0
N212 N 0.72709 0.45778 0.63815 0.0
N213 N 0.79852 0.47983 0.54657 0.0
C214 C 0.7491 0.46343 0.61665 0.0
C215 C 0.78646 0.47421 0.56999 0.0
N216 N 0.77601 0.56148 0.62644 0.0
N217 N 0.78583 0.37124 0.56567 0.0
H218 H 0.80809 0.51834 0.5396 0.0
H219 H 0.79646 0.44647 0.53352 0.0
H220 H 0.77676 0.33146 0.57177 0.0
H221 H 0.80862 0.37004 0.55076 0.0
H222 H 0.77198 0.55889 0.64499 0.0
H223 H 0.79118 0.60039 0.62177 0.0
H224 H 0.71996 0.49159 0.65009 0.0
H225 H 0.71428 0.41857 0.64357 0.0
C226 C 0.78809 0.29146 0.80808 0.0
C227 C 0.76597 0.30306 0.83053 0.0
C228 C 0.84394 0.2539 0.85274 0.0
C229 C 0.86736 0.24491 0.83043 0.0
N230 N 0.86932 0.26758 0.7882 0.0
N231 N 0.7775 0.306 0.87462 0.0
C232 C 0.84171 0.26747 0.80848 0.0
C233 C 0.79541 0.28759 0.85303 0.0
N234 N 0.75692 0.30088 0.78625 0.0
N235 N 0.86641 0.22802 0.87334 0.0
H236 H 0.74186 0.33045 0.87531 0.0
H237 H 0.80043 0.30139 0.89165 0.0
H238 H 0.90171 0.20274 0.87383 0.0
H239 H 0.84782 0.22817 0.88946 0.0
H240 H 0.76835 0.28676 0.76936 0.0
H241 H 0.71735 0.31853 0.78495 0.0
H242 H 0.85503 0.28879 0.77248 0.0
H243 H 0.90922 0.25131 0.78791 0.0
C244 C 0.93296 0.45364 0.85122 0.0
C245 C 0.91593 0.46901 0.87434 0.0
C246 C 0.93052 0.37247 0.88766 0.0
C247 C 0.95587 0.35997 0.86622 0.0
N248 N 0.96386 0.37879 0.82426 0.0
N249 N 0.87675 0.43893 0.90996 0.0
C250 C 0.95032 0.39715 0.84665 0.0
C251 C 0.90661 0.42667 0.89089 0.0
N252 N 0.93551 0.4942 0.83445 0.0
N253 N 0.93298 0.33381 0.90552 0.0
H254 H 0.85817 0.47812 0.91242 0.0
H255 H 0.86553 0.40888 0.92178 0.0
H256 H 0.94886 0.29321 0.90302 0.0
H257 H 0.92122 0.34227 0.92289 0.0
H258 H 0.95286 0.48797 0.81813 0.0
H259 H 0.92058 0.53507 0.83735 0.0
H260 H 0.95806 0.40256 0.80868 0.0
H261 H 0.97683 0.3374 0.82092 0.0
C262 C 0.97847 0.88322 0.17651 0.0
C263 C 0.9518 0.83811 0.18675 0.0
C264 C -0.00237 0.7692 0.16134 0.0
C265 C 0.02551 0.81438 0.15168 0.0
N266 N 0.05427 0.9123 0.15486 0.0
N267 N 0.94365 0.73843 0.19293 0.0
C268 C 0.01924 0.87086 0.16061 0.0
C269 C 0.96391 0.78105 0.18046 0.0
N270 N 0.96454 0.93804 0.18182 0.0
N271 N 0.00173 0.71542 0.15162 0.0
H272 H 0.91797 0.74585 0.20666 0.0
H273 H 0.95576 0.69637 0.19111 0.0
H274 H 0.02636 0.70524 0.13777 0.0
H275 H 0.97809 0.68152 0.15611 0.0
H276 H 0.97738 0.97225 0.17254 0.0
H277 H 0.93715 0.9493 0.19444 0.0
H278 H 0.05584 0.95295 0.16296 0.0
H279 H 0.08596 0.90461 0.14389 0.0
C280 C 0.50091 0.48424 0.40423 0.0
C281 C 0.51665 0.43419 0.3917 0.0
C282 C 0.54785 0.49191 0.35996 0.0
C283 C 0.52273 0.54001 0.37012 0.0
N284 N 0.46542 0.57907 0.3997 0.0
N285 N 0.5454 0.39021 0.35462 0.0
C286 C 0.49695 0.53572 0.39181 0.0
C287 C 0.53808 0.43783 0.36883 0.0
N288 N 0.4908 0.48302 0.42811 0.0
N289 N 0.58139 0.49786 0.34194 0.0
H290 H 0.53537 0.34964 0.35935 0.0
H291 H 0.55559 0.39159 0.33677 0.0
H292 H 0.59039 0.53716 0.33537 0.0
H293 H 0.6048 0.46471 0.3355 0.0
H294 H 0.48418 0.51954 0.43865 0.0
H295 H 0.49525 0.44645 0.43811 0.0
H296 H 0.44146 0.57563 0.4141 0.0
H297 H 0.45865 0.61632 0.39034 0.0
C298 C 0.9305 0.3368 0.64748 0.0
C299 C 0.96598 0.29709 0.6371 0.0
C300 C 0.8846 0.2527 0.61298 0.0
C301 C 0.84974 0.28372 0.62748 0.0
N302 N 0.8375 0.35795 0.6575 0.0
N303 N 0.97669 0.21608 0.6097 0.0
C304 C 0.872 0.32752 0.64407 0.0
C305 C 0.94319 0.25561 0.61923 0.0
N306 N 0.95306 0.38326 0.66058 0.0
N307 N 0.8612 0.21967 0.5935 0.0
H308 H 0.01969 0.21612 0.61371 0.0
H309 H 0.9616 0.18082 0.59899 0.0
H310 H 0.81827 0.21725 0.58875 0.0
H311 H 0.884 0.19958 0.58078 0.0
H312 H 0.9296 0.41626 0.66705 0.0
H313 H -0.00428 0.39124 0.66295 0.0
H314 H 0.8514 0.38612 0.67198 0.0
H315 H 0.79447 0.35304 0.65469 0.0
C316 C 0.42034 0.27686 0.66376 0.0
C317 C 0.39647 0.33169 0.66484 0.0
C318 C 0.48257 0.37135 0.65314 0.0
C319 C 0.50018 0.31636 0.64652 0.0
N320 N 0.48508 0.21527 0.64525 0.0
N321 N 0.40427 0.43188 0.65798 0.0
C322 C 0.46951 0.26849 0.65219 0.0
C323 C 0.42782 0.37942 0.65934 0.0
N324 N 0.39646 0.233 0.67413 0.0
N325 N 0.51831 0.416 0.65327 0.0
H326 H 0.36347 0.44015 0.661 0.0
H327 H 0.42366 0.46646 0.65141 0.0
H328 H 0.55892 0.41091 0.64906 0.0
H329 H 0.50976 0.45639 0.66014 0.0
H330 H 0.41477 0.19333 0.67598 0.0
H331 H 0.36134 0.23817 0.68325 0.0
H332 H 0.46057 0.17951 0.64631 0.0
H333 H 0.52082 0.20703 0.63695 0.0
C334 C 0.45784 0.80572 0.13293 0.0
C335 C 0.46673 0.84612 0.15288 0.0
C336 C 0.36722 0.84736 0.15682 0.0
C337 C 0.359 0.80477 0.13783 0.0
N338 N 0.39114 0.75572 0.10314 0.0
N339 N 0.42969 0.91699 0.17907 0.0
C340 C 0.40271 0.78829 0.12425 0.0
C341 C 0.42115 0.87086 0.16324 0.0
N342 N 0.5021 0.78129 0.1234 0.0
N343 N 0.32412 0.863 0.16952 0.0
H344 H 0.46886 0.93515 0.18391 0.0
H345 H 0.39777 0.94025 0.18566 0.0
H346 H 0.28375 0.84795 0.16466 0.0
H347 H 0.32859 0.88878 0.18544 0.0
H348 H 0.49856 0.74691 0.11085 0.0
H349 H 0.54311 0.79306 0.12913 0.0
H350 H 0.42017 0.74613 0.0911 0.0
H351 H 0.3508 0.74279 0.09653 0.0
C352 C 0.2849 0.33433 0.82074 0.0
C353 C 0.31332 0.2888 0.81029 0.0
C354 C 0.24382 0.22164 0.82061 0.0
C355 C 0.21473 0.26743 0.8306 0.0
N356 N 0.1985 0.36795 0.83388 0.0
N357 N 0.31422 0.19152 0.79514 0.0
C358 C 0.23266 0.32405 0.82884 0.0
C359 C 0.29064 0.23328 0.80836 0.0
N360 N 0.30784 0.38738 0.82295 0.0
N361 N 0.2293 0.16704 0.82427 0.0
H362 H 0.3503 0.1975 0.78697 0.0
H363 H 0.29563 0.15217 0.79066 0.0
H364 H 0.19631 0.1564 0.83374 0.0
H365 H 0.2528 0.13213 0.81977 0.0
H366 H 0.29246 0.42063 0.83315 0.0
H367 H 0.34426 0.39753 0.81571 0.0
H368 H 0.20683 0.40996 0.83062 0.0
H369 H 0.15878 0.36189 0.83883 0.0
C370 C 0.27929 0.80382 0.3538 0.0
C371 C 0.25355 0.8256 0.33171 0.0
C372 C 0.3378 0.80642 0.31228 0.0
C373 C 0.35927 0.77583 0.33281 0.0
N374 N 0.34898 0.74089 0.37265 0.0
N375 N 0.25567 0.841 0.28854 0.0
C376 C 0.33003 0.77386 0.35364 0.0
C377 C 0.2823 0.82591 0.31062 0.0
N378 N 0.25549 0.81246 0.37495 0.0
N379 N 0.37073 0.8175 0.29451 0.0
H380 H 0.21457 0.85436 0.28603 0.0
H381 H 0.27289 0.83543 0.27213 0.0
H382 H 0.4119 0.80423 0.2953 0.0
H383 H 0.35907 0.84461 0.28038 0.0
H384 H 0.27508 0.80266 0.39213 0.0
H385 H 0.21846 0.83466 0.37554 0.0
H386 H 0.3263 0.73309 0.3871 0.0
H387 H 0.38568 0.71779 0.37315 0.0
C388 C 0.64321 0.96333 0.58934 0.0
C389 C 0.66583 0.95476 0.56677 0.0
C390 C 0.68508 0.05664 0.56634 0.0
C391 C 0.66036 0.06528 0.5883 0.0
N392 N 0.60081 0.02967 0.61625 0.0
N393 N 0.69111 -0.00394 0.53019 0.0
C394 C 0.63416 0.01945 0.59821 0.0
C395 C 0.68123 0.00237 0.55409 0.0
N396 N 0.63412 0.91857 0.6033 0.0
N397 N 0.71551 0.09872 0.558 0.0
H398 H 0.68655 0.95737 0.52031 0.0
H399 H 0.69755 0.03024 0.51949 0.0
H400 H 0.72119 0.1384 0.5669 0.0
H401 H 0.73916 0.0925 0.5435 0.0
H402 H 0.62316 0.92346 0.62101 0.0
H403 H 0.64301 0.87683 0.59842 0.0
H404 H 0.5767 -0.0016 0.62268 0.0
H405 H 0.59275 0.07057 0.6228 0.0
C406 C 0.29489 0.97854 0.07353 0.0
C407 C 0.28395 0.02697 0.0885 0.0
C408 C 0.25138 0.96626 0.1188 0.0
C409 C 0.25542 0.9193 0.10236 0.0
N410 N 0.29943 0.87571 0.0697 0.0
N411 N 0.27222 0.06569 0.12864 0.0
C412 C 0.28429 0.92384 0.08176 0.0
C413 C 0.26948 0.02016 0.11242 0.0
N414 N 0.31045 0.98458 0.0507 0.0
N415 N 0.22697 0.95955 0.13964 0.0
H416 H 0.28619 0.10525 0.12415 0.0
H417 H 0.26569 0.06321 0.14693 0.0
H418 H 0.21538 0.91976 0.14492 0.0
H419 H 0.21676 0.99297 0.15118 0.0
H420 H 0.31166 0.95113 0.03785 0.0
H421 H 0.3201 0.02334 0.044 0.0
H422 H 0.32452 0.87553 0.05559 0.0
H423 H 0.29117 0.83554 0.07561 0.0
C424 C 0.38092 0.90542 0.4145 0.0
C425 C 0.38133 0.9597 0.40472 0.0
C426 C 0.42471 0.92039 0.3698 0.0
C427 C 0.43744 0.8715 0.3831 0.0
N428 N 0.42257 0.81216 0.41618 0.0
N429 N 0.39766 0.01889 0.37148 0.0
C430 C 0.41259 0.86168 0.40456 0.0
C431 C 0.39972 0.96688 0.38143 0.0
N432 N 0.35133 0.89681 0.43365 0.0
N433 N 0.43797 0.92237 0.34641 0.0
H434 H 0.37819 0.05354 0.379 0.0
H435 H 0.41689 0.02833 0.35619 0.0
H436 H 0.45639 0.88813 0.3379 0.0
H437 H 0.42613 0.95503 0.33483 0.0
H438 H 0.34595 0.85734 0.44073 0.0
H439 H 0.32787 0.92901 0.44092 0.0
H440 H 0.41101 0.8046 0.43338 0.0
H441 H 0.44417 0.77888 0.40867 0.0
C442 C 0.07973 0.91168 0.86246 0.0
C443 C 0.05727 0.90041 0.88451 0.0
C444 C 0.02403 -0.00166 0.88704 0.0
C445 C 0.04869 0.01002 0.86567 0.0
N446 N 0.11347 0.98279 0.83736 0.0
N447 N 0.02212 0.93731 0.92122 0.0
C448 C 0.08102 0.96824 0.85482 0.0
C449 C 0.03382 0.94516 0.89791 0.0
N450 N 0.09642 0.86829 0.84785 0.0
N451 N -0.01131 0.0365 0.89619 0.0
H452 H 0.0302 0.89943 0.93 0.0
H453 H 0.01004 0.97007 0.93269 0.0
H454 H 0.97932 0.07522 0.88835 0.0
H455 H 0.96507 0.02773 0.91022 0.0
H456 H 0.10743 0.874 0.83038 0.0
H457 H 0.09407 0.82584 0.85195 0.0
H458 H 0.14208 0.95533 0.83052 0.0
H459 H 0.11604 0.02413 0.83163 0.0
C460 C 0.08378 0.13755 0.96807 0.0
C461 C 0.14216 0.13661 0.97407 0.0
C462 C 0.15213 0.11125 0.93125 0.0
C463 C 0.09764 0.13053 0.9249 0.0
N464 N 0.00759 0.15269 0.93625 0.0
N465 N 0.23248 0.11356 0.96197 0.0
C466 C 0.06156 0.13849 0.94307 0.0
C467 C 0.17653 0.11868 0.956 0.0
N468 N 0.05038 0.13957 -0.01362 0.0
N469 N 0.18092 0.08953 0.91319 0.0
H470 H 0.25171 0.11739 0.9799 0.0
H471 H 0.2602 0.10715 0.94906 0.0
H472 H 0.16257 0.08533 0.89503 0.0
H473 H 0.22004 0.07138 0.91645 0.0
H474 H 0.00727 0.13691 0.9833 0.0
H475 H 0.06665 0.13859 0.00481 0.0
H476 H 0.98012 0.16555 0.94856 0.0
H477 H -0.00874 0.1535 0.91784 0.0
C478 C 0.09362 0.81898 0.21817 0.0
C479 C 0.07187 0.77824 0.23264 0.0
C480 C 0.097 0.70241 0.20433 0.0
C481 C 0.12598 0.74247 0.1922 0.0
N482 N 0.15928 0.83829 0.18978 0.0
N483 N 0.0596 0.67998 0.24159 0.0
C484 C 0.12619 0.80072 0.19964 0.0
C485 C 0.0748 0.71954 0.2262 0.0
N486 N 0.08201 0.87507 0.2218 0.0
N487 N 0.0896 0.64839 0.19465 0.0
H488 H 0.04433 0.69025 0.25813 0.0
H489 H 0.06677 0.63684 0.23901 0.0
H490 H 0.10522 0.63455 0.17855 0.0
H491 H 0.06361 0.61909 0.20125 0.0
H492 H 0.09248 0.90621 0.2103 0.0
H493 H 0.0565 0.88969 0.2347 0.0
H494 H 0.16521 0.88005 0.19636 0.0
H495 H 0.18492 0.82673 0.17649 0.0
C496 C 0.57327 0.64939 0.46992 0.0
C497 C 0.6303 0.64066 0.47736 0.0
C498 C 0.64752 0.63068 0.43454 0.0
C499 C 0.59504 0.65536 0.42796 0.0
N500 N 0.50435 0.68147 0.43803 0.0
N501 N 0.71155 0.5912 0.46678 0.0
C502 C 0.55593 0.66051 0.44509 0.0
C503 C 0.6645 0.62068 0.45966 0.0
N504 N 0.53657 0.64755 0.48685 0.0
N505 N 0.682 0.62072 0.41694 0.0
H506 H 0.72089 0.57799 0.48462 0.0
H507 H 0.7373 0.57363 0.45465 0.0
H508 H 0.66878 0.62586 0.3984 0.0
H509 H 0.72332 0.6088 0.42062 0.0
H510 H 0.49371 0.6499 0.4825 0.0
H511 H 0.54947 0.63773 0.50497 0.0
H512 H 0.476 0.69273 0.45018 0.0
H513 H 0.49085 0.68966 0.41982 0.0
C514 C 0.57195 0.23454 0.72868 0.0
C515 C 0.56861 0.2934 0.73466 0.0
C516 C 0.61062 0.31556 0.69799 0.0
C517 C 0.61222 0.2568 0.69162 0.0
N518 N 0.57982 0.16228 0.69677 0.0
N519 N 0.56953 0.38941 0.72173 0.0
C520 C 0.58806 0.21686 0.70564 0.0
C521 C 0.58293 0.33379 0.71818 0.0
N522 N 0.56342 0.19546 0.74549 0.0
N523 N 0.6384 0.35368 0.68585 0.0
H524 H 0.54857 0.40385 0.73629 0.0
H525 H 0.57399 0.41984 0.70894 0.0
H526 H 0.66086 0.34231 0.67139 0.0
H527 H 0.64327 0.39616 0.69151 0.0
H528 H 0.57164 0.15252 0.74293 0.0
H529 H 0.55286 0.20609 0.76292 0.0
H530 H 0.55733 0.13273 0.70515 0.0
H531 H 0.59049 0.14825 0.6797 0.0
C532 C 0.14146 0.68447 -0.00409 0.0
C533 C 0.08546 0.66965 -0.0123 0.0
C534 C 0.06754 0.6622 0.03038 0.0
C535 C 0.11864 0.68954 0.03804 0.0
N536 N 0.20563 0.72687 0.02872 0.0
N537 N -0.00646 0.646 -0.00264 0.0
C538 C 0.1566 0.69965 0.02104 0.0
C539 C 0.04823 0.65747 0.00497 0.0
N540 N 0.18008 0.6834 0.97972 0.0
N541 N 0.03706 0.64241 0.04758 0.0
H542 H 0.97672 0.64424 0.97903 0.0
H543 H 0.96363 0.64286 0.00934 0.0
H544 H 0.05111 0.64598 0.06628 0.0
H545 H 0.0014 0.61778 0.04326 0.0
H546 H 0.22243 0.689 0.98505 0.0
H547 H 0.17039 0.67112 0.96126 0.0
H548 H 0.23199 0.74183 0.01678 0.0
H549 H 0.21859 0.73691 0.04717 0.0
C550 C 0.69054 0.73787 0.25906 0.0
C551 C 0.6827 0.79615 0.25437 0.0
C552 C 0.59826 0.79665 0.27486 0.0
C553 C 0.60935 0.74034 0.28176 0.0
N554 N 0.66808 0.65829 0.28274 0.0
N555 N 0.63483 0.88379 0.26162 0.0
C556 C 0.65595 0.711 0.27439 0.0
C557 C 0.63781 0.82624 0.2631 0.0
N558 N 0.73011 0.70797 0.24833 0.0
N559 N 0.54941 0.82171 0.27932 0.0
H560 H 0.66363 0.9077 0.25379 0.0
H561 H 0.60688 0.90867 0.27026 0.0
H562 H 0.51961 0.80165 0.28818 0.0
H563 H 0.53614 0.86027 0.2723 0.0
H564 H 0.73465 0.6643 0.24912 0.0
H565 H 0.7557 0.72618 0.23681 0.0
H566 H 0.70476 0.63703 0.28038 0.0
H567 H 0.64293 0.63716 0.29358 0.0
C568 C 0.58871 0.18563 0.49477 0.0
C569 C 0.52989 0.18641 0.49062 0.0
C570 C 0.52649 0.17569 0.53446 0.0
C571 C 0.58304 0.19133 0.53877 0.0
N572 N 0.67011 0.20791 0.52354 0.0
N573 N 0.44158 0.17895 0.50659 0.0
C574 C 0.61526 0.19352 0.51906 0.0
C575 C 0.49823 0.17858 0.51037 0.0
N576 N 0.61876 0.17837 0.4754 0.0
N577 N 0.49973 0.16112 0.55377 0.0
H578 H 0.41924 0.18183 0.48934 0.0
H579 H 0.41661 0.17974 0.52075 0.0
H580 H 0.52058 0.15976 0.57147 0.0
H581 H 0.45929 0.14538 0.55186 0.0
H582 H 0.66168 0.17333 0.47738 0.0
H583 H 0.5998 0.17161 0.45746 0.0
H584 H 0.69453 0.2169 0.50983 0.0
H585 H 0.69032 0.2136 0.54131 0.0
C586 C 0.16814 0.26774 0.75421 0.0
C587 C 0.16175 0.23446 0.73181 0.0
C588 C 0.1199 0.16107 0.75432 0.0
C589 C 0.11228 0.20099 0.77354 0.0
N590 N 0.11874 0.2995 0.78764 0.0
N591 N 0.11902 0.14828 0.7109 0.0
C592 C 0.13371 0.25643 0.77252 0.0
C593 C 0.13466 0.18041 0.73183 0.0
N594 N 0.20751 0.30928 0.75843 0.0
N595 N 0.11327 0.10459 0.75743 0.0
H596 H 0.12432 0.15878 0.69326 0.0
H597 H 0.09427 0.11222 0.71088 0.0
H598 H 0.10498 0.08872 0.77404 0.0
H599 H 0.12281 0.07369 0.7445 0.0
H600 H 0.21354 0.33334 0.77485 0.0
H601 H 0.23881 0.31383 0.74718 0.0
H602 H 0.1308 0.34132 0.78586 0.0
H603 H 0.08942 0.29478 0.79981 0.0
loop_
_geom_bond_atom_site_label_1
_geom_bond_atom_site_label_2
_geom_bond_distance
_geom_bond_site_symmetry_2
_ccdc_geom_bond_type
O0 Cd1 2.300 . S
O0 C7 1.275 . S
Cd1 O0 2.300 . S
Cd1 O9 2.381 . S
Cd1 O10 2.378 . S
O2 Cd3 2.385 . S
O2 C7 1.255 . S
Cd3 O2 2.385 . S
Cd3 O4 2.317 . S
O4 Cd3 2.317 . S
O4 C5 1.232 . S
C5 O4 1.232 . S
C5 O6 1.218 . S
O6 C5 1.218 . S
C7 O0 1.275 . S
C7 O2 1.255 . S
C8 O9 1.258 . S
C8 O10 1.256 . S
O9 Cd1 2.381 . S
O9 C8 1.258 . S
O10 Cd1 2.378 . S
O10 C8 1.256 . S
O11 Cd12 2.300 . S
O11 C18 1.275 . S
Cd12 O11 2.300 . S
Cd12 O20 2.381 . S
Cd12 O21 2.378 . S
O13 Cd14 2.385 . S
O13 C18 1.255 . S
Cd14 O13 2.385 . S
Cd14 O15 2.317 . S
O15 Cd14 2.317 . S
O15 C16 1.232 1_455 S
C16 O15 1.232 1_655 S
C16 O17 1.218 . S
O17 C16 1.218 . S
C18 O11 1.275 . S
C18 O13 1.255 . S
C19 O20 1.258 . S
C19 O21 1.256 . S
O20 Cd12 2.381 . S
O20 C19 1.258 . S
O21 Cd12 2.378 . S
O21 C19 1.256 . S
O22 Cd23 2.300 . S
O22 C29 1.275 . S
Cd23 O22 2.300 . S
Cd23 O31 2.381 . S
Cd23 O32 2.378 . S
O24 Cd25 2.385 . S
O24 C29 1.255 . S
Cd25 O24 2.385 . S
Cd25 O26 2.317 . S
O26 Cd25 2.317 . S
O26 C27 1.232 . S
C27 O26 1.232 . S
C27 O28 1.218 . S
O28 C27 1.218 . S
C29 O22 1.275 . S
C29 O24 1.255 . S
C30 O31 1.258 . S
C30 O32 1.256 . S
O31 Cd23 2.381 . S
O31 C30 1.258 . S
O32 Cd23 2.378 . S
O32 C30 1.256 . S
O33 Cd34 2.300 . S
O33 C40 1.275 . S
Cd34 O33 2.300 . S
Cd34 O42 2.381 . S
Cd34 O43 2.378 . S
O35 Cd36 2.385 . S
O35 C40 1.255 . S
Cd36 O35 2.385 . S
Cd36 O37 2.317 . S
O37 Cd36 2.317 . S
O37 C38 1.232 . S
C38 O37 1.232 . S
C38 O39 1.218 . S
O39 C38 1.218 . S
C40 O33 1.275 . S
C40 O35 1.255 . S
C41 O42 1.258 . S
C41 O43 1.256 . S
O42 Cd34 2.381 . S
O42 C41 1.258 . S
O43 Cd34 2.378 . S
O43 C41 1.256 . S
O44 Cd45 2.300 . S
O44 C51 1.275 . S
Cd45 O44 2.300 . S
Cd45 O53 2.381 . S
Cd45 O54 2.378 . S
O46 Cd47 2.385 . S
O46 C51 1.255 . S
Cd47 O46 2.385 . S
Cd47 O48 2.317 . S
O48 Cd47 2.317 . S
O48 C49 1.232 . S
C49 O48 1.232 . S
C49 O50 1.218 . S
O50 C49 1.218 . S
C51 O44 1.275 . S
C51 O46 1.255 . S
C52 O53 1.258 . S
C52 O54 1.256 . S
O53 Cd45 2.381 . S
O53 C52 1.258 . S
O54 Cd45 2.378 . S
O54 C52 1.256 . S
O55 Cd56 2.300 . S
O55 C62 1.275 . S
Cd56 O55 2.300 . S
Cd56 O64 2.381 . S
Cd56 O65 2.378 . S
O57 Cd58 2.385 . S
O57 C62 1.255 . S
Cd58 O57 2.385 . S
Cd58 O59 2.317 . S
O59 Cd58 2.317 . S
O59 C60 1.232 . S
C60 O59 1.232 . S
C60 O61 1.218 . S
O61 C60 1.218 . S
C62 O55 1.275 . S
C62 O57 1.255 . S
C63 O64 1.258 . S
C63 O65 1.256 . S
O64 Cd56 2.381 . S
O64 C63 1.258 . S
O65 Cd56 2.378 . S
O65 C63 1.256 . S
O66 Cd67 2.300 . S
O66 C73 1.275 . S
Cd67 O66 2.300 . S
Cd67 O75 2.381 . S
Cd67 O76 2.378 . S
O68 Cd69 2.385 . S
O68 C73 1.255 . S
Cd69 O68 2.385 . S
Cd69 O70 2.317 . S
O70 Cd69 2.317 . S
O70 C71 1.232 . S
C71 O70 1.232 . S
C71 O72 1.218 . S
O72 C71 1.218 . S
C73 O66 1.275 . S
C73 O68 1.255 . S
C74 O75 1.258 . S
C74 O76 1.256 . S
O75 Cd67 2.381 . S
O75 C74 1.258 . S
O76 Cd67 2.378 . S
O76 C74 1.256 . S
O77 Cd78 2.300 . S
O77 C84 1.275 . S
Cd78 O77 2.300 . S
Cd78 O86 2.381 . S
Cd78 O87 2.378 . S
O79 Cd80 2.385 . S
O79 C84 1.255 . S
Cd80 O79 2.385 . S
Cd80 O81 2.317 . S
O81 Cd80 2.317 . S
O81 C82 1.232 1_455 S
C82 O81 1.232 1_655 S
C82 O83 1.218 . S
O83 C82 1.218 . S
C84 O77 1.275 . S
C84 O79 1.255 . S
C85 O86 1.258 . S
C85 O87 1.256 . S
O86 Cd78 2.381 . S
O86 C85 1.258 . S
O87 Cd78 2.378 . S
O87 C85 1.256 . S
Zn88 O94 1.920 . S
Zn88 O100 1.898 . S
Zn88 O103 1.905 . S
Zn89 O97 1.905 . S
Zn89 O98 1.898 . S
Zn89 O106 1.920 1_455 S
Zn90 O93 2.080 . S
Zn90 O96 2.114 . S
Zn90 O99 2.120 . S
Zn90 O101 2.120 . S
Zn90 O102 2.114 . S
Zn90 O105 2.080 . S
C91 O96 1.166 . S
C91 O97 1.182 . S
C92 O98 1.167 . S
C92 O99 1.299 . S
O93 Zn90 2.080 . S
O93 C107 1.305 . S
O94 Zn88 1.920 . S
O94 C107 1.234 . S
C95 O100 1.167 . S
C95 O101 1.299 . S
O96 Zn90 2.114 . S
O96 C91 1.166 . S
O97 Zn89 1.905 . S
O97 C91 1.182 . S
O98 Zn89 1.898 . S
O98 C92 1.167 . S
O99 Zn90 2.120 . S
O99 C92 1.299 . S
O100 Zn88 1.898 . S
O100 C95 1.167 . S
O101 Zn90 2.120 . S
O101 C95 1.299 . S
O102 Zn90 2.114 . S
O102 C104 1.166 . S
O103 Zn88 1.905 . S
O103 C104 1.182 . S
C104 O102 1.166 . S
C104 O103 1.182 . S
O105 Zn90 2.080 . S
O105 C108 1.305 1_455 S
O106 Zn89 1.920 1_655 S
O106 C108 1.234 . S
C107 O93 1.305 . S
C107 O94 1.234 . S
C108 O105 1.305 1_655 S
C108 O106 1.234 . S
Zn109 O115 1.920 . S
Zn109 O121 1.898 . S
Zn109 O124 1.905 . S
Zn110 O118 1.905 . S
Zn110 O119 1.898 . S
Zn110 O127 1.920 . S
Zn111 O114 2.080 . S
Zn111 O117 2.114 . S
Zn111 O120 2.120 . S
Zn111 O122 2.120 . S
Zn111 O123 2.114 . S
Zn111 O126 2.080 . S
C112 O117 1.166 . S
C112 O118 1.182 . S
C113 O119 1.167 . S
C113 O120 1.299 . S
O114 Zn111 2.080 . S
O114 C128 1.305 . S
O115 Zn109 1.920 . S
O115 C128 1.234 . S
C116 O121 1.167 . S
C116 O122 1.299 . S
O117 Zn111 2.114 . S
O117 C112 1.166 . S
O118 Zn110 1.905 . S
O118 C112 1.182 . S
O119 Zn110 1.898 . S
O119 C113 1.167 . S
O120 Zn111 2.120 . S
O120 C113 1.299 . S
O121 Zn109 1.898 . S
O121 C116 1.167 . S
O122 Zn111 2.120 . S
O122 C116 1.299 . S
O123 Zn111 2.114 . S
O123 C125 1.166 . S
O124 Zn109 1.905 . S
O124 C125 1.182 . S
C125 O123 1.166 . S
C125 O124 1.182 . S
O126 Zn111 2.080 . S
O126 C129 1.305 . S
O127 Zn110 1.920 . S
O127 C129 1.234 . S
C128 O114 1.305 . S
C128 O115 1.234 . S
C129 O126 1.305 . S
C129 O127 1.234 . S
Zn130 O136 1.920 . S
Zn130 O142 1.898 . S
Zn130 O145 1.905 . S
Zn131 O139 1.905 . S
Zn131 O140 1.898 . S
Zn131 O148 1.920 . S
Zn132 O135 2.080 . S
Zn132 O138 2.114 . S
Zn132 O141 2.120 . S
Zn132 O143 2.120 . S
Zn132 O144 2.114 . S
Zn132 O147 2.080 . S
C133 O138 1.166 . S
C133 O139 1.182 . S
C134 O140 1.167 . S
C134 O141 1.299 . S
O135 Zn132 2.080 . S
O135 C149 1.305 . S
O136 Zn130 1.920 . S
O136 C149 1.234 . S
C137 O142 1.167 . S
C137 O143 1.299 . S
O138 Zn132 2.114 . S
O138 C133 1.166 . S
O139 Zn131 1.905 . S
O139 C133 1.182 . S
O140 Zn131 1.898 . S
O140 C134 1.167 . S
O141 Zn132 2.120 . S
O141 C134 1.299 . S
O142 Zn130 1.898 . S
O142 C137 1.167 . S
O143 Zn132 2.120 . S
O143 C137 1.299 . S
O144 Zn132 2.114 . S
O144 C146 1.166 . S
O145 Zn130 1.905 . S
O145 C146 1.182 . S
C146 O144 1.166 . S
C146 O145 1.182 . S
O147 Zn132 2.080 . S
O147 C150 1.305 . S
O148 Zn131 1.920 . S
O148 C150 1.234 . S
C149 O135 1.305 . S
C149 O136 1.234 . S
C150 O147 1.305 . S
C150 O148 1.234 . S
Zn151 O157 1.920 . S
Zn151 O163 1.898 . S
Zn151 O166 1.905 1_455 S
Zn152 O160 1.905 . S
Zn152 O161 1.898 . S
Zn152 O169 1.920 . S
Zn153 O156 2.080 . S
Zn153 O159 2.114 . S
Zn153 O162 2.120 . S
Zn153 O164 2.120 . S
Zn153 O165 2.114 . S
Zn153 O168 2.080 . S
C154 O159 1.166 . S
C154 O160 1.182 . S
C155 O161 1.167 . S
C155 O162 1.299 . S
O156 Zn153 2.080 . S
O156 C170 1.305 . S
O157 Zn151 1.920 . S
O157 C170 1.234 . S
C158 O163 1.167 . S
C158 O164 1.299 . S
O159 Zn153 2.114 . S
O159 C154 1.166 . S
O160 Zn152 1.905 . S
O160 C154 1.182 . S
O161 Zn152 1.898 . S
O161 C155 1.167 . S
O162 Zn153 2.120 . S
O162 C155 1.299 . S
O163 Zn151 1.898 . S
O163 C158 1.167 . S
O164 Zn153 2.120 . S
O164 C158 1.299 . S
O165 Zn153 2.114 . S
O165 C167 1.166 1_455 S
O166 Zn151 1.905 1_655 S
O166 C167 1.182 . S
C167 O165 1.166 1_655 S
C167 O166 1.182 . S
O168 Zn153 2.080 . S
O168 C171 1.305 . S
O169 Zn152 1.920 . S
O169 C171 1.234 . S
C170 O156 1.305 . S
C170 O157 1.234 . S
C171 O168 1.305 . S
C171 O169 1.234 . S
C172 C173 1.363 . S
C172 C178 1.379 . S
C172 N180 1.356 . S
C173 C172 1.363 . S
C173 C179 1.363 . S
C174 C175 1.363 . S
C174 C179 1.379 . S
C174 N181 1.356 . S
C175 C174 1.363 . S
C175 C178 1.363 . S
N176 C178 1.356 . S
N176 H188 0.984 . S
N176 H189 0.985 . S
N177 C179 1.356 . S
N177 H182 0.984 . S
N177 H183 0.985 . S
C178 C172 1.379 . S
C178 C175 1.363 . S
C178 N176 1.356 . S
C179 C173 1.363 . S
C179 C174 1.379 . S
C179 N177 1.356 . S
N180 C172 1.356 . S
N180 H186 0.984 . S
N180 H187 0.984 . S
N181 C174 1.356 . S
N181 H184 0.984 . S
N181 H185 0.985 . S
H182 N177 0.984 . S
H183 N177 0.985 . S
H184 N181 0.984 . S
H185 N181 0.985 . S
H186 N180 0.984 . S
H187 N180 0.984 . S
H188 N176 0.984 . S
H189 N176 0.985 . S
C190 C191 1.363 . S
C190 C196 1.379 . S
C190 N198 1.356 . S
C191 C190 1.363 . S
C191 C197 1.363 . S
C192 C193 1.363 . S
C192 C197 1.379 . S
C192 N199 1.356 . S
C193 C192 1.363 . S
C193 C196 1.363 . S
N194 C196 1.356 . S
N194 H206 0.984 . S
N194 H207 0.985 . S
N195 C197 1.356 . S
N195 H200 0.984 . S
N195 H201 0.985 . S
C196 C190 1.379 . S
C196 C193 1.363 . S
C196 N194 1.356 . S
C197 C191 1.363 . S
C197 C192 1.379 . S
C197 N195 1.356 . S
N198 C190 1.356 . S
N198 H204 0.984 . S
N198 H205 0.984 . S
N199 C192 1.356 . S
N199 H202 0.984 . S
N199 H203 0.985 . S
H200 N195 0.984 . S
H201 N195 0.985 . S
H202 N199 0.984 . S
H203 N199 0.985 . S
H204 N198 0.984 . S
H205 N198 0.984 . S
H206 N194 0.984 . S
H207 N194 0.985 . S
C208 C209 1.363 . S
C208 C214 1.379 . S
C208 N216 1.356 . S
C209 C208 1.363 . S
C209 C215 1.363 . S
C210 C211 1.363 . S
C210 C215 1.379 . S
C210 N217 1.356 . S
C211 C210 1.363 . S
C211 C214 1.363 . S
N212 C214 1.356 . S
N212 H224 0.984 . S
N212 H225 0.985 . S
N213 C215 1.356 . S
N213 H218 0.984 . S
N213 H219 0.985 . S
C214 C208 1.379 . S
C214 C211 1.363 . S
C214 N212 1.356 . S
C215 C209 1.363 . S
C215 C210 1.379 . S
C215 N213 1.356 . S
N216 C208 1.356 . S
N216 H222 0.984 . S
N216 H223 0.984 . S
N217 C210 1.356 . S
N217 H220 0.984 . S
N217 H221 0.985 . S
H218 N213 0.984 . S
H219 N213 0.985 . S
H220 N217 0.984 . S
H221 N217 0.985 . S
H222 N216 0.984 . S
H223 N216 0.984 . S
H224 N212 0.984 . S
H225 N212 0.985 . S
C226 C227 1.363 . S
C226 C232 1.379 . S
C226 N234 1.356 . S
C227 C226 1.363 . S
C227 C233 1.363 . S
C228 C229 1.363 . S
C228 C233 1.379 . S
C228 N235 1.356 . S
C229 C228 1.363 . S
C229 C232 1.363 . S
N230 C232 1.356 . S
N230 H242 0.984 . S
N230 H243 0.985 . S
N231 C233 1.356 . S
N231 H236 0.984 . S
N231 H237 0.985 . S
C232 C226 1.379 . S
C232 C229 1.363 . S
C232 N230 1.356 . S
C233 C227 1.363 . S
C233 C228 1.379 . S
C233 N231 1.356 . S
N234 C226 1.356 . S
N234 H240 0.984 . S
N234 H241 0.984 . S
N235 C228 1.356 . S
N235 H238 0.984 . S
N235 H239 0.985 . S
H236 N231 0.984 . S
H237 N231 0.985 . S
H238 N235 0.984 . S
H239 N235 0.985 . S
H240 N234 0.984 . S
H241 N234 0.984 . S
H242 N230 0.984 . S
H243 N230 0.985 . S
C244 C245 1.363 . S
C244 C250 1.379 . S
C244 N252 1.356 1_455 S
C245 C244 1.363 . S
C245 C251 1.363 . S
C246 C247 1.363 . S
C246 C251 1.379 . S
C246 N253 1.356 . S
C247 C246 1.363 . S
C247 C250 1.363 . S
N248 C250 1.356 . S
N248 H260 0.984 . S
N248 H261 0.985 . S
N249 C251 1.356 . S
N249 H254 0.984 . S
N249 H255 0.985 . S
C250 C244 1.379 . S
C250 C247 1.363 . S
C250 N248 1.356 . S
C251 C245 1.363 . S
C251 C246 1.379 . S
C251 N249 1.356 . S
N252 C244 1.356 1_655 S
N252 H258 0.984 . S
N252 H259 0.984 . S
N253 C246 1.356 . S
N253 H256 0.984 . S
N253 H257 0.985 . S
H254 N249 0.984 . S
H255 N249 0.985 . S
H256 N253 0.984 . S
H257 N253 0.985 . S
H258 N252 0.984 . S
H259 N252 0.984 . S
H260 N248 0.984 . S
H261 N248 0.985 . S
C262 C263 1.363 . S
C262 C268 1.379 . S
C262 N270 1.356 . S
C263 C262 1.363 . S
C263 C269 1.363 . S
C264 C265 1.363 . S
C264 C269 1.379 . S
C264 N271 1.356 . S
C265 C264 1.363 . S
C265 C268 1.363 . S
N266 C268 1.356 . S
N266 H278 0.984 . S
N266 H279 0.985 . S
N267 C269 1.356 . S
N267 H272 0.984 . S
N267 H273 0.985 . S
C268 C262 1.379 . S
C268 C265 1.363 . S
C268 N266 1.356 . S
C269 C263 1.363 . S
C269 C264 1.379 . S
C269 N267 1.356 . S
N270 C262 1.356 . S
N270 H276 0.984 . S
N270 H277 0.984 . S
N271 C264 1.356 . S
N271 H274 0.984 1_655 S
N271 H275 0.985 . S
H272 N267 0.984 . S
H273 N267 0.985 . S
H274 N271 0.984 1_455 S
H275 N271 0.985 . S
H276 N270 0.984 . S
H277 N270 0.984 . S
H278 N266 0.984 . S
H279 N266 0.985 . S
C280 C281 1.363 . S
C280 C286 1.379 . S
C280 N288 1.356 . S
C281 C280 1.363 . S
C281 C287 1.363 . S
C282 C283 1.363 . S
C282 C287 1.379 . S
C282 N289 1.356 . S
C283 C282 1.363 . S
C283 C286 1.363 . S
N284 C286 1.356 . S
N284 H296 0.984 . S
N284 H297 0.985 . S
N285 C287 1.356 . S
N285 H290 0.984 . S
N285 H291 0.985 . S
C286 C280 1.379 . S
C286 C283 1.363 . S
C286 N284 1.356 . S
C287 C281 1.363 . S
C287 C282 1.379 . S
C287 N285 1.356 . S
N288 C280 1.356 . S
N288 H294 0.984 . S
N288 H295 0.984 . S
N289 C282 1.356 . S
N289 H292 0.984 . S
N289 H293 0.985 . S
H290 N285 0.984 . S
H291 N285 0.985 . S
H292 N289 0.984 . S
H293 N289 0.985 . S
H294 N288 0.984 . S
H295 N288 0.984 . S
H296 N284 0.984 . S
H297 N284 0.985 . S
C298 C299 1.363 . S
C298 C304 1.379 . S
C298 N306 1.356 . S
C299 C298 1.363 . S
C299 C305 1.363 . S
C300 C301 1.363 . S
C300 C305 1.379 . S
C300 N307 1.356 . S
C301 C300 1.363 . S
C301 C304 1.363 . S
N302 C304 1.356 . S
N302 H314 0.984 . S
N302 H315 0.985 . S
N303 C305 1.356 . S
N303 H308 0.984 . S
N303 H309 0.985 . S
C304 C298 1.379 . S
C304 C301 1.363 . S
C304 N302 1.356 . S
C305 C299 1.363 . S
C305 C300 1.379 . S
C305 N303 1.356 . S
N306 C298 1.356 . S
N306 H312 0.984 . S
N306 H313 0.984 . S
N307 C300 1.356 . S
N307 H310 0.984 . S
N307 H311 0.985 . S
H308 N303 0.984 . S
H309 N303 0.985 . S
H310 N307 0.984 . S
H311 N307 0.985 . S
H312 N306 0.984 . S
H313 N306 0.984 . S
H314 N302 0.984 . S
H315 N302 0.985 . S
C316 C317 1.363 . S
C316 C322 1.379 . S
C316 N324 1.356 . S
C317 C316 1.363 . S
C317 C323 1.363 . S
C318 C319 1.363 . S
C318 C323 1.379 . S
C318 N325 1.356 . S
C319 C318 1.363 . S
C319 C322 1.363 . S
N320 C322 1.356 . S
N320 H332 0.984 . S
N320 H333 0.985 . S
N321 C323 1.356 . S
N321 H326 0.984 . S
N321 H327 0.985 . S
C322 C316 1.379 . S
C322 C319 1.363 . S
C322 N320 1.356 . S
C323 C317 1.363 . S
C323 C318 1.379 . S
C323 N321 1.356 . S
N324 C316 1.356 . S
N324 H330 0.984 . S
N324 H331 0.984 . S
N325 C318 1.356 . S
N325 H328 0.984 . S
N325 H329 0.985 . S
H326 N321 0.984 . S
H327 N321 0.985 . S
H328 N325 0.984 . S
H329 N325 0.985 . S
H330 N324 0.984 . S
H331 N324 0.984 . S
H332 N320 0.984 . S
H333 N320 0.985 . S
C334 C335 1.363 . S
C334 C340 1.379 . S
C334 N342 1.356 . S
C335 C334 1.363 . S
C335 C341 1.363 . S
C336 C337 1.363 . S
C336 C341 1.379 . S
C336 N343 1.356 . S
C337 C336 1.363 . S
C337 C340 1.363 . S
N338 C340 1.356 . S
N338 H350 0.984 . S
N338 H351 0.985 . S
N339 C341 1.356 . S
N339 H344 0.984 . S
N339 H345 0.985 . S
C340 C334 1.379 . S
C340 C337 1.363 . S
C340 N338 1.356 . S
C341 C335 1.363 . S
C341 C336 1.379 . S
C341 N339 1.356 . S
N342 C334 1.356 . S
N342 H348 0.984 . S
N342 H349 0.984 . S
N343 C336 1.356 . S
N343 H346 0.984 . S
N343 H347 0.985 . S
H344 N339 0.984 . S
H345 N339 0.985 . S
H346 N343 0.984 . S
H347 N343 0.985 . S
H348 N342 0.984 . S
H349 N342 0.984 . S
H350 N338 0.984 . S
H351 N338 0.985 . S
C352 C353 1.363 . S
C352 C358 1.379 . S
C352 N360 1.356 . S
C353 C352 1.363 . S
C353 C359 1.363 . S
C354 C355 1.363 . S
C354 C359 1.379 . S
C354 N361 1.356 . S
C355 C354 1.363 . S
C355 C358 1.363 . S
N356 C358 1.356 . S
N356 H368 0.984 . S
N356 H369 0.985 . S
N357 C359 1.356 . S
N357 H362 0.984 . S
N357 H363 0.985 . S
C358 C352 1.379 . S
C358 C355 1.363 . S
C358 N356 1.356 . S
C359 C353 1.363 . S
C359 C354 1.379 . S
C359 N357 1.356 . S
N360 C352 1.356 . S
N360 H366 0.984 . S
N360 H367 0.984 . S
N361 C354 1.356 . S
N361 H364 0.984 . S
N361 H365 0.985 . S
H362 N357 0.984 . S
H363 N357 0.985 . S
H364 N361 0.984 . S
H365 N361 0.985 . S
H366 N360 0.984 . S
H367 N360 0.984 . S
H368 N356 0.984 . S
H369 N356 0.985 . S
C370 C371 1.363 . S
C370 C376 1.379 . S
C370 N378 1.356 . S
C371 C370 1.363 . S
C371 C377 1.363 . S
C372 C373 1.363 . S
C372 C377 1.379 . S
C372 N379 1.356 . S
C373 C372 1.363 . S
C373 C376 1.363 . S
N374 C376 1.356 . S
N374 H386 0.984 . S
N374 H387 0.985 . S
N375 C377 1.356 . S
N375 H380 0.984 . S
N375 H381 0.985 . S
C376 C370 1.379 . S
C376 C373 1.363 . S
C376 N374 1.356 . S
C377 C371 1.363 . S
C377 C372 1.379 . S
C377 N375 1.356 . S
N378 C370 1.356 . S
N378 H384 0.984 . S
N378 H385 0.984 . S
N379 C372 1.356 . S
N379 H382 0.984 . S
N379 H383 0.985 . S
H380 N375 0.984 . S
H381 N375 0.985 . S
H382 N379 0.984 . S
H383 N379 0.985 . S
H384 N378 0.984 . S
H385 N378 0.984 . S
H386 N374 0.984 . S
H387 N374 0.985 . S
C388 C389 1.363 . S
C388 C394 1.379 . S
C388 N396 1.356 . S
C389 C388 1.363 . S
C389 C395 1.363 . S
C390 C391 1.363 . S
C390 C395 1.379 1_545 S
C390 N397 1.356 . S
C391 C390 1.363 . S
C391 C394 1.363 1_545 S
N392 C394 1.356 1_545 S
N392 H404 0.984 . S
N392 H405 0.985 . S
N393 C395 1.356 . S
N393 H398 0.984 . S
N393 H399 0.985 . S
C394 C388 1.379 . S
C394 C391 1.363 1_565 S
C394 N392 1.356 1_565 S
C395 C389 1.363 . S
C395 C390 1.379 1_565 S
C395 N393 1.356 . S
N396 C388 1.356 . S
N396 H402 0.984 . S
N396 H403 0.984 . S
N397 C390 1.356 . S
N397 H400 0.984 . S
N397 H401 0.985 . S
H398 N393 0.984 . S
H399 N393 0.985 . S
H400 N397 0.984 . S
H401 N397 0.985 . S
H402 N396 0.984 . S
H403 N396 0.984 . S
H404 N392 0.984 . S
H405 N392 0.985 . S
C406 C407 1.363 1_565 S
C406 C412 1.379 . S
C406 N414 1.356 1_565 S
C407 C406 1.363 1_545 S
C407 C413 1.363 . S
C408 C409 1.363 . S
C408 C413 1.379 1_565 S
C408 N415 1.356 . S
C409 C408 1.363 . S
C409 C412 1.363 . S
N410 C412 1.356 . S
N410 H422 0.984 . S
N410 H423 0.985 . S
N411 C413 1.356 . S
N411 H416 0.984 . S
N411 H417 0.985 . S
C412 C406 1.379 . S
C412 C409 1.363 . S
C412 N410 1.356 . S
C413 C407 1.363 . S
C413 C408 1.379 1_545 S
C413 N411 1.356 . S
N414 C406 1.356 1_545 S
N414 H420 0.984 1_545 S
N414 H421 0.984 . S
N415 C408 1.356 . S
N415 H418 0.984 . S
N415 H419 0.985 . S
H416 N411 0.984 . S
H417 N411 0.985 . S
H418 N415 0.984 . S
H419 N415 0.985 . S
H420 N414 0.984 1_565 S
H421 N414 0.984 . S
H422 N410 0.984 . S
H423 N410 0.985 . S
C424 C425 1.363 . S
C424 C430 1.379 1_545 S
C424 N432 1.356 . S
C425 C424 1.363 . S
C425 C431 1.363 . S
C426 C427 1.363 . S
C426 C431 1.379 1_565 S
C426 N433 1.356 . S
C427 C426 1.363 . S
C427 C430 1.363 . S
N428 C430 1.356 . S
N428 H440 0.984 . S
N428 H441 0.985 . S
N429 C431 1.356 . S
N429 H434 0.984 . S
N429 H435 0.985 . S
C430 C424 1.379 1_565 S
C430 C427 1.363 . S
C430 N428 1.356 . S
C431 C425 1.363 . S
C431 C426 1.379 1_545 S
C431 N429 1.356 . S
N432 C424 1.356 . S
N432 H438 0.984 . S
N432 H439 0.984 . S
N433 C426 1.356 . S
N433 H436 0.984 . S
N433 H437 0.985 . S
H434 N429 0.984 . S
H435 N429 0.985 . S
H436 N433 0.984 . S
H437 N433 0.985 . S
H438 N432 0.984 . S
H439 N432 0.984 . S
H440 N428 0.984 . S
H441 N428 0.985 . S
C442 C443 1.363 . S
C442 C448 1.379 1_565 S
C442 N450 1.356 . S
C443 C442 1.363 . S
C443 C449 1.363 . S
C444 C445 1.363 . S
C444 C449 1.379 1_545 S
C444 N451 1.356 . S
C445 C444 1.363 . S
C445 C448 1.363 . S
N446 C448 1.356 . S
N446 H458 0.984 . S
N446 H459 0.985 . S
N447 C449 1.356 . S
N447 H452 0.984 . S
N447 H453 0.985 . S
C448 C442 1.379 1_545 S
C448 C445 1.363 . S
C448 N446 1.356 . S
C449 C443 1.363 . S
C449 C444 1.379 1_565 S
C449 N447 1.356 . S
N450 C442 1.356 . S
N450 H456 0.984 . S
N450 H457 0.984 . S
N451 C444 1.356 . S
N451 H454 0.984 . S
N451 H455 0.985 . S
H452 N447 0.984 . S
H453 N447 0.985 . S
H454 N451 0.984 . S
H455 N451 0.985 . S
H456 N450 0.984 . S
H457 N450 0.984 . S
H458 N446 0.984 . S
H459 N446 0.985 . S
C460 C461 1.363 1_556 S
C460 C466 1.379 . S
C460 N468 1.356 1_556 S
C461 C460 1.363 1_554 S
C461 C467 1.363 1_554 S
C462 C463 1.363 . S
C462 C467 1.379 . S
C462 N469 1.356 . S
C463 C462 1.363 . S
C463 C466 1.363 . S
N464 C466 1.356 . S
N464 H476 0.984 . S
N464 H477 0.985 . S
N465 C467 1.356 1_554 S
N465 H470 0.984 . S
N465 H471 0.991 . S
C466 C460 1.379 . S
C466 C463 1.363 . S
C466 N464 1.356 . S
C467 C461 1.363 1_556 S
C467 C462 1.379 . S
C467 N465 1.356 1_556 S
N468 C460 1.356 1_554 S
N468 H474 0.984 . S
N468 H475 0.984 . S
N469 C462 1.356 . S
N469 H472 0.984 . S
N469 H473 0.985 . S
H470 N465 0.984 . S
H471 N465 0.991 . S
H472 N469 0.984 . S
H473 N469 0.985 . S
H474 N468 0.984 . S
H475 N468 0.984 . S
H476 N464 0.984 . S
H477 N464 0.985 . S
C478 C479 1.363 . S
C478 C484 1.379 . S
C478 N486 1.356 . S
C479 C478 1.363 . S
C479 C485 1.363 . S
C480 C481 1.363 . S
C480 C485 1.379 . S
C480 N487 1.356 . S
C481 C480 1.363 . S
C481 C484 1.363 . S
N482 C484 1.356 . S
N482 H494 0.984 . S
N482 H495 0.985 . S
N483 C485 1.356 . S
N483 H488 0.984 . S
N483 H489 0.985 . S
C484 C478 1.379 . S
C484 C481 1.363 . S
C484 N482 1.356 . S
C485 C479 1.363 . S
C485 C480 1.379 . S
C485 N483 1.356 . S
N486 C478 1.356 . S
N486 H492 0.984 . S
N486 H493 0.984 . S
N487 C480 1.356 . S
N487 H490 0.984 . S
N487 H491 0.985 . S
H488 N483 0.984 . S
H489 N483 0.985 . S
H490 N487 0.984 . S
H491 N487 0.985 . S
H492 N486 0.984 . S
H493 N486 0.984 . S
H494 N482 0.984 . S
H495 N482 0.985 . S
C496 C497 1.363 . S
C496 C502 1.379 . S
C496 N504 1.356 . S
C497 C496 1.363 . S
C497 C503 1.363 . S
C498 C499 1.363 . S
C498 C503 1.379 . S
C498 N505 1.356 . S
C499 C498 1.363 . S
C499 C502 1.363 . S
N500 C502 1.356 . S
N500 H512 0.984 . S
N500 H513 0.985 . S
N501 C503 1.356 . S
N501 H506 0.984 . S
N501 H507 0.985 . S
C502 C496 1.379 . S
C502 C499 1.363 . S
C502 N500 1.356 . S
C503 C497 1.363 . S
C503 C498 1.379 . S
C503 N501 1.356 . S
N504 C496 1.356 . S
N504 H510 0.984 . S
N504 H511 0.984 . S
N505 C498 1.356 . S
N505 H508 0.984 . S
N505 H509 0.985 . S
H506 N501 0.984 . S
H507 N501 0.985 . S
H508 N505 0.984 . S
H509 N505 0.985 . S
H510 N504 0.984 . S
H511 N504 0.984 . S
H512 N500 0.984 . S
H513 N500 0.985 . S
C514 C515 1.363 . S
C514 C520 1.379 . S
C514 N522 1.356 . S
C515 C514 1.363 . S
C515 C521 1.363 . S
C516 C517 1.363 . S
C516 C521 1.379 . S
C516 N523 1.356 . S
C517 C516 1.363 . S
C517 C520 1.363 . S
N518 C520 1.356 . S
N518 H530 0.984 . S
N518 H531 0.985 . S
N519 C521 1.356 . S
N519 H524 0.984 . S
N519 H525 0.985 . S
C520 C514 1.379 . S
C520 C517 1.363 . S
C520 N518 1.356 . S
C521 C515 1.363 . S
C521 C516 1.379 . S
C521 N519 1.356 . S
N522 C514 1.356 . S
N522 H528 0.984 . S
N522 H529 0.984 . S
N523 C516 1.356 . S
N523 H526 0.984 . S
N523 H527 0.985 . S
H524 N519 0.984 . S
H525 N519 0.985 . S
H526 N523 0.984 . S
H527 N523 0.985 . S
H528 N522 0.984 . S
H529 N522 0.984 . S
H530 N518 0.984 . S
H531 N518 0.985 . S
C532 C533 1.363 1_554 S
C532 C538 1.379 . S
C532 N540 1.356 1_554 S
C533 C532 1.363 1_556 S
C533 C539 1.363 1_556 S
C534 C535 1.363 . S
C534 C539 1.379 . S
C534 N541 1.356 . S
C535 C534 1.363 . S
C535 C538 1.363 . S
N536 C538 1.356 . S
N536 H548 0.984 . S
N536 H549 0.985 . S
N537 C539 1.356 1_556 S
N537 H542 0.984 . S
N537 H543 0.985 1_455 S
C538 C532 1.379 . S
C538 C535 1.363 . S
C538 N536 1.356 . S
C539 C533 1.363 1_554 S
C539 C534 1.379 . S
C539 N537 1.356 1_554 S
N540 C532 1.356 1_556 S
N540 H546 0.984 . S
N540 H547 0.984 . S
N541 C534 1.356 . S
N541 H544 0.984 . S
N541 H545 0.985 . S
H542 N537 0.984 . S
H543 N537 0.985 1_655 S
H544 N541 0.984 . S
H545 N541 0.985 . S
H546 N540 0.984 . S
H547 N540 0.984 . S
H548 N536 0.984 . S
H549 N536 0.985 . S
C550 C551 1.363 . S
C550 C556 1.379 . S
C550 N558 1.356 . S
C551 C550 1.363 . S
C551 C557 1.363 . S
C552 C553 1.363 . S
C552 C557 1.379 . S
C552 N559 1.356 . S
C553 C552 1.363 . S
C553 C556 1.363 . S
N554 C556 1.356 . S
N554 H566 0.984 . S
N554 H567 0.985 . S
N555 C557 1.356 . S
N555 H560 0.984 . S
N555 H561 0.985 . S
C556 C550 1.379 . S
C556 C553 1.363 . S
C556 N554 1.356 . S
C557 C551 1.363 . S
C557 C552 1.379 . S
C557 N555 1.356 . S
N558 C550 1.356 . S
N558 H564 0.984 . S
N558 H565 0.984 . S
N559 C552 1.356 . S
N559 H562 0.984 . S
N559 H563 0.985 . S
H560 N555 0.984 . S
H561 N555 0.985 . S
H562 N559 0.984 . S
H563 N559 0.985 . S
H564 N558 0.984 . S
H565 N558 0.984 . S
H566 N554 0.984 . S
H567 N554 0.985 . S
C568 C569 1.363 . S
C568 C574 1.379 . S
C568 N576 1.356 . S
C569 C568 1.363 . S
C569 C575 1.363 . S
C570 C571 1.363 . S
C570 C575 1.379 . S
C570 N577 1.356 . S
C571 C570 1.363 . S
C571 C574 1.363 . S
N572 C574 1.356 . S
N572 H584 0.984 . S
N572 H585 0.985 . S
N573 C575 1.356 . S
N573 H578 0.984 . S
N573 H579 0.985 . S
C574 C568 1.379 . S
C574 C571 1.363 . S
C574 N572 1.356 . S
C575 C569 1.363 . S
C575 C570 1.379 . S
C575 N573 1.356 . S
N576 C568 1.356 . S
N576 H582 0.984 . S
N576 H583 0.984 . S
N577 C570 1.356 . S
N577 H580 0.984 . S
N577 H581 0.985 . S
H578 N573 0.984 . S
H579 N573 0.985 . S
H580 N577 0.984 . S
H581 N577 0.985 . S
H582 N576 0.984 . S
H583 N576 0.984 . S
H584 N572 0.984 . S
H585 N572 0.985 . S
C586 C587 1.363 . S
C586 C592 1.379 . S
C586 N594 1.356 . S
C587 C586 1.363 . S
C587 C593 1.363 . S
C588 C589 1.363 . S
C588 C593 1.379 . S
C588 N595 1.356 . S
C589 C588 1.363 . S
C589 C592 1.363 . S
N590 C592 1.356 . S
N590 H602 0.984 . S
N590 H603 0.985 . S
N591 C593 1.356 . S
N591 H596 0.984 . S
N591 H597 0.985 . S
C592 C586 1.379 . S
C592 C589 1.363 . S
C592 N590 1.356 . S
C593 C587 1.363 . S
C593 C588 1.379 . S
C593 N591 1.356 . S
N594 C586 1.356 . S
N594 H600 0.984 . S
N594 H601 0.984 . S
N595 C588 1.356 . S
N595 H598 0.984 . S
N595 H599 0.985 . S
H596 N591 0.984 . S
H597 N591 0.985 . S
H598 N595 0.984 . S
H599 N595 0.985 . S
H600 N594 0.984 . S
H601 N594 0.984 . S
H602 N590 0.984 . S
H603 N590 0.985 . S
C175 C95 1.431 . S
C173 C5 1.477 . S
C193 C113 1.486 . S
C191 C16 1.398 . S
C209 C30 1.467 . S
C211 C137 1.373 . S
C229 C167 1.272 . S
C227 C41 1.367 . S
C247 C155 1.344 . S
C245 C49 1.132 . S
C263 C63 1.341 . S
C265 C108 1.255 . S
C281 C74 1.577 . S
C283 C128 1.472 . S
C299 C82 1.372 . S
C301 C133 1.438 . S
C317 C85 1.335 . S
C319 C149 1.248 . S
C335 C60 1.380 . S
C337 C104 1.437 . S
C355 C171 1.503 . S
C353 C38 1.397 . S
C373 C116 1.261 . S
C371 C19 1.363 . S
C389 C27 1.472 . S
C391 C134 1.426 . S
C407 C8 1.474 . S
C409 C92 1.378 . S
C427 C112 1.344 . S
C425 C71 1.136 . S
C445 C158 1.464 . S
C443 C52 1.576 . S
C463 C154 1.341 . S
C461 C7 1.476 . S
C481 C107 1.499 . S
C479 C18 1.513 . S
C497 C29 1.461 . S
C499 C129 1.319 . S
C515 C40 1.523 . S
C517 C150 1.510 . S
C535 C91 1.317 . S
C533 C51 1.485 . S
C551 C62 1.435 . S
C553 C125 1.410 . S
C571 C146 1.331 . S
C569 C73 1.503 . S
C589 C170 1.389 . S
C587 C84 1.416 . S
