# Generated by pormake.
# Topology pts, (4,4)-cn, num edge types: 1
# Building blocks:
#     Node 0, Type 0, BuildingBlock: KOZSID_clean_sbu_0, # of connection points: 4
#     Node 1, Type 0, BuildingBlock: KOZSID_clean_sbu_0, # of connection points: 4
#     Node 2, Type 1, BuildingBlock: UXUYUI_clean_sbu_0, # of connection points: 4
#     Node 3, Type 1, BuildingBlock: UXUYUI_clean_sbu_0, # of connection points: 4
#     Edge 4, Type (0, 1), BuildingBlock: EZIPEK_clean_linker_0, # of connection points: 2
#     Edge 5, Type (0, 1), BuildingBlock: EZIPEK_clean_linker_0, # of connection points: 2
#     Edge 6, Type (0, 1), BuildingBlock: EZIPEK_clean_linker_0, # of connection points: 2
#     Edge 7, Type (0, 1), BuildingBlock: EZIPEK_clean_linker_0, # of connection points: 2
#     Edge 8, Type (0, 1), BuildingBlock: EZIPEK_clean_linker_0, # of connection points: 2
#     Edge 9, Type (0, 1), BuildingBlock: EZIPEK_clean_linker_0, # of connection points: 2
#     Edge 10, Type (0, 1), BuildingBlock: EZIPEK_clean_linker_0, # of connection points: 2
#     Edge 11, Type (0, 1), BuildingBlock: EZIPEK_clean_linker_0, # of connection points: 2
# Relax obj value: 0.000
# Max RMSD: 0.026
# Mean RMSD: 0.017
data_MOF--net-pts--node1-KOZSID_clean_sbu_0--node2-UXUYUI_clean_sbu_0--edge1-EZIPEK_clean_linker_0
_symmetry_space_group_name_H-M    P1
_symmetry_Int_Tables_number       1
_symmetry_cell_setting            triclinic
loop_
_symmetry_equiv_pos_as_xyz
'x, y, z'
_cell_length_a     26.385496
_cell_length_b     26.359246
_cell_length_c     38.371718
_cell_angle_alpha  86.031573
_cell_angle_beta   93.984219
_cell_angle_gamma 90.058046
loop_
_atom_site_label
_atom_site_type_symbol
_atom_site_fract_x
_atom_site_fract_y
_atom_site_fract_z
_atom_type_partial_charge
C0 C 0.6368 0.10809 0.06002 0.0
C1 C 0.65246 0.15482 0.07132 0.0
C2 C 0.62334 0.19084 0.05205 0.0
C3 C 0.5915 0.16416 0.03029 0.0
N4 N 0.59811 0.11321 0.03475 0.0
Co5 Co 0.55986 0.06044 0.00833 0.0
N6 N 0.52179 0.11361 0.97687 0.0
C7 C 0.52847 0.1645 0.97659 0.0
C8 C 0.49726 0.19151 0.95195 0.0
C9 C 0.46848 0.15579 0.93575 0.0
C10 C 0.48358 0.10888 0.95171 0.0
N11 N 0.52003 0.00768 0.98283 0.0
C12 C 0.47969 0.01296 0.95879 0.0
C13 C 0.45985 0.96612 0.95059 0.0
C14 C 0.48843 0.93002 0.97011 0.0
C15 C 0.52369 0.95667 0.9893 0.0
N16 N 0.59955 0.00726 0.03886 0.0
C17 C 0.59569 0.95629 0.03736 0.0
C18 C 0.63042 0.9293 0.05951 0.0
C19 C 0.65891 0.96516 0.07574 0.0
C20 C 0.63964 0.01214 0.0626 0.0
N21 N 0.50557 0.06067 0.04219 0.0
C22 C 0.42284 0.05958 0.08539 0.0
C23 C 0.44962 0.01509 0.08098 0.0
C24 C 0.49048 0.01645 0.05946 0.0
C25 C 0.43895 0.10487 0.06866 0.0
C26 C 0.48027 0.10464 0.04759 0.0
N27 N 0.61413 0.06018 0.97449 0.0
C28 C 0.67038 0.01427 0.94021 0.0
C29 C 0.69669 0.05875 0.93128 0.0
C30 C 0.68022 0.10415 0.94348 0.0
C31 C 0.63904 0.10408 0.96466 0.0
C32 C 0.62955 0.0158 0.96165 0.0
H33 H 0.62854 0.13998 0.97317 0.0
H34 H 0.61147 0.98047 0.96787 0.0
H35 H 0.5088 0.98106 0.05682 0.0
H36 H 0.49055 0.14046 0.03554 0.0
C37 C 0.55994 0.18585 1.00246 0.0
C38 C 0.66182 0.06026 0.07268 0.0
C39 C 0.4581 0.06137 0.94366 0.0
C40 C 0.55966 0.93504 0.01435 0.0
H41 H 0.6829 0.16213 0.0907 0.0
H42 H 0.62658 0.2317 0.05272 0.0
H43 H 0.49431 0.23241 0.94729 0.0
H44 H 0.43854 0.16348 0.91533 0.0
H45 H 0.42752 0.95872 0.93276 0.0
H46 H 0.48331 0.88922 0.97087 0.0
H47 H 0.63514 0.88843 0.06292 0.0
H48 H 0.69082 0.95758 0.09465 0.0
H49 H 0.43853 0.97922 0.09371 0.0
H50 H 0.41939 0.14027 0.0716 0.0
H51 H 0.68177 0.97831 0.93104 0.0
H52 H 0.6994 0.13954 0.93694 0.0
C53 C 0.10651 0.47966 0.56415 0.0
C54 C 0.153 0.46177 0.57919 0.0
C55 C 0.18949 0.48972 0.56325 0.0
C56 C 0.16332 0.52304 0.53955 0.0
N57 N 0.11224 0.51877 0.53977 0.0
Co58 Co 0.06005 0.55837 0.50829 0.0
N59 N 0.11375 0.5963 0.48263 0.0
C60 C 0.16462 0.59074 0.48862 0.0
C61 C 0.19205 0.62338 0.46791 0.0
C62 C 0.15663 0.65211 0.4478 0.0
C63 C 0.10947 0.6353 0.45748 0.0
N64 N 0.00782 0.59767 0.4766 0.0
C65 C 0.01353 0.63628 0.45185 0.0
C66 C 0.96701 0.6542 0.43689 0.0
C67 C 0.93055 0.62644 0.45301 0.0
C68 C 0.95675 0.5933 0.47681 0.0
N69 N 0.00635 0.52059 0.5341 0.0
C70 C 0.9555 0.52689 0.52855 0.0
C71 C 0.92803 0.49385 0.54893 0.0
C72 C 0.96335 0.46414 0.56836 0.0
C73 C 0.01058 0.4809 0.55875 0.0
N74 N 0.06025 0.61335 0.54183 0.0
C75 C 0.06142 0.69711 0.58445 0.0
C76 C 0.01592 0.67929 0.56901 0.0
C77 C 0.0161 0.63734 0.54843 0.0
C78 C 0.10616 0.6714 0.57902 0.0
C79 C 0.1048 0.63033 0.5576 0.0
N80 N 0.05985 0.50353 0.47474 0.0
C81 C 0.0139 0.44389 0.43891 0.0
C82 C 0.05907 0.42053 0.4316 0.0
C83 C 0.10472 0.44021 0.44548 0.0
C84 C 0.10428 0.48168 0.46649 0.0
C85 C 0.01511 0.48476 0.46047 0.0
H86 H 0.14037 0.49499 0.47612 0.0
H87 H 0.97928 0.50006 0.46559 0.0
H88 H 0.98004 0.62544 0.53782 0.0
H89 H 0.14044 0.61341 0.55385 0.0
C90 C 0.18546 0.55666 0.51529 0.0
C91 C 0.0582 0.45648 0.57271 0.0
C92 C 0.06187 0.659 0.44294 0.0
C93 C 0.93467 0.56054 0.50162 0.0
H94 H 0.15981 0.43082 0.59901 0.0
H95 H 0.23025 0.48525 0.56766 0.0
H96 H 0.23295 0.62684 0.4681 0.0
H97 H 0.16455 0.68273 0.42869 0.0
H98 H 0.96012 0.68505 0.41701 0.0
H99 H 0.88979 0.63106 0.44873 0.0
H100 H 0.88712 0.49042 0.54868 0.0
H101 H 0.9552 0.4328 0.58684 0.0
H102 H 0.98025 0.69775 0.57281 0.0
H103 H 0.14226 0.68366 0.59074 0.0
H104 H 0.97767 0.43001 0.4285 0.0
H105 H 0.14065 0.42344 0.44026 0.0
Li106 Li 0.05701 0.09876 0.28077 0.0
Li107 Li 0.05397 1.00267 0.28252 0.0
Li108 Li 0.10127 0.05409 0.23589 0.0
Li109 Li 1.00481 0.05263 0.23292 0.0
C110 C 0.15456 0.06177 0.30919 0.0
N111 N 0.23607 0.08983 0.35266 0.0
C112 C 0.16349 0.03722 0.34251 0.0
C113 C 0.18726 0.10022 0.29782 0.0
C114 C 0.20486 0.05207 0.36415 0.0
C115 C 0.22821 0.11396 0.32023 0.0
C116 C 0.95674 0.04471 0.30398 0.0
C117 C 0.8733 0.01028 0.31191 0.0
N118 N 0.87441 0.02916 0.34406 0.0
C119 C 0.95703 0.06393 0.33703 0.0
C120 C 0.91452 0.01782 0.29121 0.0
C121 C 0.91504 0.0556 0.35692 0.0
C122 C 0.03349 0.20082 0.29512 0.0
N123 N 0.0579 0.15767 0.30876 0.0
C124 C 0.08269 0.19819 0.36142 0.0
C125 C 0.08183 0.1556 0.34145 0.0
C126 C 0.05793 0.2432 0.34794 0.0
C127 C 0.03288 0.24414 0.31437 0.0
H128 H 0.01428 0.20158 0.26924 0.0
H129 H 0.1 0.1208 0.35227 0.0
C130 C 0.09467 0.90693 0.31048 0.0
N131 N 0.05552 0.93994 0.31271 0.0
C132 C 0.09768 0.86092 0.33126 0.0
C133 C 0.02001 0.88333 0.35625 0.0
C134 C 0.01859 0.92892 0.33515 0.0
C135 C 0.0599 0.84868 0.35444 0.0
H136 H 0.12359 0.91633 0.29248 0.0
H137 H 0.98782 0.95528 0.33679 0.0
C138 C 0.06592 0.15222 0.2073 0.0
N139 N 0.09514 0.23293 0.16352 0.0
C140 C 0.04251 0.16032 0.17357 0.0
C141 C 0.10372 0.18543 0.21895 0.0
C142 C 0.05796 0.20127 0.15178 0.0
C143 C 0.11808 0.22595 0.19637 0.0
C144 C 0.03757 0.9499 0.21905 0.0
C145 C 0.06166 0.92825 0.19235 0.0
C146 C 0.99666 0.92495 0.23384 0.0
C147 C 0.04415 0.88189 0.18071 0.0
C148 C 0.98037 0.87859 0.22155 0.0
N149 N 1.00422 0.85823 0.19543 0.0
C150 C 0.20431 0.03301 0.22228 0.0
C151 C 0.15713 0.0768 0.17474 0.0
C152 C 0.24756 0.03293 0.20299 0.0
N153 N 0.16025 0.05505 0.20808 0.0
C154 C 0.19959 0.0781 0.1547 0.0
C155 C 0.24557 0.05594 0.16879 0.0
H156 H 0.20587 0.01532 0.24862 0.0
H157 H 0.12161 0.09297 0.16352 0.0
C158 C 0.90625 0.08937 0.20811 0.0
N159 N 0.943 0.05534 0.20228 0.0
C160 C 0.86047 0.09196 0.18718 0.0
C161 C 0.89099 0.0246 0.15447 0.0
C162 C 0.93636 0.02363 0.17579 0.0
C163 C 0.8523 0.05899 0.16012 0.0
H164 H 0.9124 0.11432 0.22922 0.0
H165 H 0.96616 0.9974 0.17113 0.0
O166 O 0.11417 0.04779 0.28777 0.0
O167 O 0.99738 0.05272 0.2841 0.0
O168 O 0.0513 0.1123 0.2289 0.0
O169 O 0.0542 0.99528 0.23065 0.0
H170 H 0.13855 0.00722 0.35159 0.0
H171 H 0.18122 0.11907 0.27193 0.0
H172 H 0.21215 0.03358 0.39007 0.0
H173 H 0.25381 0.14373 0.31182 0.0
H174 H 0.84041 0.98947 0.30239 0.0
H175 H 0.9894 0.08493 0.34723 0.0
H176 H 0.91354 1.00293 0.26561 0.0
H177 H 0.91473 0.07017 0.38258 0.0
H178 H 0.10212 0.19594 0.38729 0.0
H179 H 0.01315 0.2781 0.30319 0.0
H180 H 0.12905 0.83508 0.32921 0.0
H181 H 0.99025 0.87515 0.37387 0.0
H182 H 0.01296 0.13502 0.16429 0.0
H183 H 0.12158 0.18014 0.24517 0.0
H184 H 0.04041 0.20787 0.12553 0.0
H185 H 0.14738 0.25191 0.20498 0.0
H186 H 0.09344 0.94719 0.18069 0.0
H187 H 0.97784 0.94114 0.25464 0.0
H188 H 0.0623 0.86473 0.15997 0.0
H189 H 0.94878 0.8588 0.23277 0.0
H190 H 0.28229 0.0152 0.21464 0.0
H191 H 0.19653 0.09588 0.12833 0.0
H192 H 0.83151 0.11908 0.19222 0.0
H193 H 0.88609 0.99876 0.13375 0.0
Li194 Li 0.01865 0.06334 0.78117 0.0
Li195 Li 0.11427 0.06168 0.78293 0.0
Li196 Li 0.06181 0.11205 0.73254 0.0
Li197 Li 0.06524 0.01756 0.73713 0.0
C198 C 0.06234 0.15952 0.80535 0.0
N199 N 0.05289 0.23791 0.84873 0.0
C200 C 0.08418 0.15519 0.83967 0.0
C201 C 0.03622 0.20401 0.79296 0.0
C202 C 0.07882 0.19516 0.86124 0.0
C203 C 0.03171 0.24312 0.81533 0.0
C204 C 0.08264 0.97087 0.81612 0.0
C205 C 0.1452 0.91114 0.84312 0.0
N206 N 0.1177 0.90522 0.87182 0.0
C207 C 0.05502 0.96423 0.84588 0.0
C208 C 0.12812 0.94415 0.81469 0.0
C209 C 0.07337 0.93084 0.87376 0.0
C210 C 0.91808 0.03528 0.79835 0.0
N211 N 0.95975 0.06199 0.80931 0.0
C212 C 0.91759 0.08619 0.85913 0.0
C213 C 0.96023 0.08686 0.83929 0.0
C214 C 0.87406 0.05928 0.84825 0.0
C215 C 0.87465 0.0334 0.8175 0.0
H216 H 0.91852 0.01543 0.77462 0.0
H217 H 0.99371 0.10711 0.84803 0.0
C218 C 0.2187 0.0844 0.79993 0.0
N219 N 0.17667 0.06308 0.81348 0.0
C220 C 0.26468 0.08622 0.82051 0.0
C221 C 0.2239 0.04324 0.86852 0.0
C222 C 0.17837 0.04378 0.84743 0.0
C223 C 0.26791 0.06474 0.85518 0.0
H224 H 0.21652 0.10011 0.77307 0.0
H225 H 0.1444 0.02873 0.85835 0.0
C226 C 0.95902 0.0858 0.71667 0.0
N227 N 0.86835 0.13226 0.69235 0.0
C228 C 0.93054 0.06758 0.68812 0.0
C229 C 0.94126 0.12742 0.73297 0.0
C230 C 0.88485 0.09168 0.67616 0.0
C231 C 0.89535 0.15042 0.72029 0.0
C232 C 0.14646 0.04395 0.7061 0.0
C233 C 0.13305 0.05695 0.67075 0.0
C234 C 0.18268 0.00593 0.71553 0.0
C235 C 0.1559 0.03122 0.64529 0.0
C236 C 0.20461 0.98107 0.68928 0.0
N237 N 0.19085 0.99409 0.65501 0.0
C238 C 0.09295 0.21218 0.71057 0.0
C239 C 0.02795 0.17983 0.67266 0.0
C240 C 0.09328 0.2581 0.68981 0.0
N241 N 0.06038 0.17422 0.70191 0.0
C242 C 0.02668 0.22531 0.65135 0.0
C243 C 0.05962 0.26518 0.65986 0.0
H244 H 0.11861 0.20686 0.73378 0.0
H245 H 1.00301 0.14906 0.66574 0.0
C246 C 0.08385 0.91309 0.72299 0.0
N247 N 0.06406 0.95833 0.70906 0.0
C248 C 0.08391 0.87064 0.70295 0.0
C249 C 0.04244 0.92142 0.65449 0.0
C250 C 0.04357 0.96308 0.67541 0.0
C251 C 0.06288 0.87444 0.66825 0.0
H252 H 0.09969 0.90974 0.74968 0.0
H253 H 0.02835 0.99938 0.6647 0.0
O254 O 0.06762 0.12093 0.78376 0.0
O255 O 0.06521 1.00354 0.78867 0.0
O256 O 1.0039 0.06271 0.72863 0.0
O257 O 0.1231 0.0673 0.73138 0.0
H258 H 0.1045 0.12111 0.8497 0.0
H259 H 0.01977 0.2085 0.76631 0.0
H260 H 0.09525 0.19216 0.88793 0.0
H261 H 0.01148 0.27768 0.80611 0.0
H262 H 0.18047 0.89046 0.84246 0.0
H263 H 0.01978 0.98463 0.84744 0.0
H264 H 0.15056 0.94967 0.7922 0.0
H265 H 0.0524 0.92534 0.89696 0.0
H266 H 0.91857 0.10636 0.88282 0.0
H267 H 0.84179 0.0121 0.80841 0.0
H268 H 0.29764 0.10357 0.80933 0.0
H269 H 0.22464 0.02667 0.89518 0.0
H270 H 0.94362 0.03522 0.67531 0.0
H271 H 0.96247 0.14149 0.75534 0.0
H272 H 0.86249 0.07809 0.65402 0.0
H273 H 0.88114 0.18265 0.7327 0.0
H274 H 0.10483 0.08614 0.66311 0.0
H275 H 0.19336 0.99548 0.74282 0.0
H276 H 0.14568 0.0406 0.61781 0.0
H277 H 0.23247 0.95132 0.69616 0.0
H278 H 0.11935 0.28793 0.69712 0.0
H279 H 1.00038 0.2293 0.62836 0.0
H280 H 0.10002 0.83505 0.71445 0.0
H281 H 0.02596 0.92581 0.6278 0.0
C282 C 0.37971 0.08196 0.13926 0.0
C283 C 0.37752 0.05858 0.10692 0.0
C284 C 0.29107 0.02875 0.11716 0.0
C285 C 0.29131 0.05655 0.14762 0.0
N286 N 0.33279 0.11744 0.18405 0.0
N287 N 0.32741 0.0181 0.06178 0.0
C288 C 0.33485 0.08532 0.1577 0.0
C289 C 0.33211 0.03429 0.09494 0.0
N290 N 0.42504 0.09954 0.15298 0.0
N291 N 0.25249 0.99556 0.11007 0.0
H292 H 0.35623 0.02205 0.04452 0.0
H293 H 0.29334 1.00516 0.05025 0.0
H294 H 0.22223 0.9897 0.12596 0.0
H295 H 0.25296 0.97035 0.09035 0.0
H296 H 0.43019 0.11195 0.17816 0.0
H297 H 0.45874 0.09743 0.14044 0.0
H298 H 0.36134 0.14337 0.19007 0.0
H299 H 0.30053 0.12161 0.19784 0.0
C300 C 0.07004 0.36092 0.58066 0.0
C301 C 0.05778 0.40718 0.59508 0.0
C302 C 0.04199 0.35979 0.65076 0.0
C303 C 0.05893 0.3142 0.63745 0.0
N304 N 0.09788 0.27323 0.5917 0.0
N305 N 0.04059 0.45209 0.64557 0.0
C306 C 0.07531 0.31527 0.60287 0.0
C307 C 0.04626 0.40701 0.63068 0.0
N308 N 0.07566 0.36042 0.54554 0.0
N309 N 0.01994 0.35777 0.68202 0.0
H310 H 0.04299 0.48732 0.63162 0.0
H311 H 0.03769 0.45471 0.67232 0.0
H312 H 0.01538 0.32396 0.69725 0.0
H313 H 1.00201 0.38878 0.69134 0.0
H314 H 0.07931 0.32714 0.53279 0.0
H315 H 0.07244 0.39306 0.52852 0.0
H316 H 0.11552 0.27326 0.56825 0.0
H317 H 0.10319 0.2394 0.6073 0.0
C318 C 0.71053 0.04893 0.13196 0.0
C319 C 0.71071 0.06064 0.09531 0.0
C320 C 0.80254 0.07696 0.10178 0.0
C321 C 0.80328 0.06018 0.13784 0.0
N322 N 0.7592 0.02172 0.18594 0.0
N323 N 0.75774 0.07846 0.04426 0.0
C324 C 0.75753 0.04395 0.15262 0.0
C325 C 0.75702 0.07256 0.0799 0.0
N326 N 0.66531 0.04347 0.14714 0.0
N327 N 0.84484 0.0989 0.08869 0.0
H328 H 0.72515 0.07605 0.02743 0.0
H329 H 0.79108 0.08159 0.03126 0.0
H330 H 0.87859 0.10352 0.10395 0.0
H331 H 0.84513 0.1167 0.06362 0.0
H332 H 0.66241 0.04042 0.17413 0.0
H333 H 0.63025 0.04622 0.13278 0.0
H334 H 0.72804 1.00419 0.19683 0.0
H335 H 0.79284 0.01663 0.20175 0.0
C336 C 0.03668 0.74097 0.63756 0.0
C337 C 0.06216 0.74258 0.60605 0.0
C338 C 0.09229 0.82886 0.61722 0.0
C339 C 0.06226 0.82921 0.64654 0.0
N340 N 0.99799 0.78885 0.68051 0.0
N341 N 0.10642 0.7922 0.56251 0.0
C342 C 0.0322 0.78614 0.65554 0.0
C343 C 0.08784 0.78773 0.59494 0.0
N344 N 0.01846 0.69581 0.65116 0.0
N345 N 0.12653 0.86691 0.61131 0.0
H346 H 0.10351 0.76338 0.54522 0.0
H347 H 0.12046 0.82613 0.55147 0.0
H348 H 0.13147 0.89731 0.62722 0.0
H349 H 0.15329 0.86587 0.59266 0.0
H350 H 1.00429 0.69128 0.67584 0.0
H351 H 0.02211 0.66165 0.63935 0.0
H352 H 0.97127 0.76064 0.68555 0.0
H353 H 0.99294 0.82141 0.69388 0.0
C354 C 0.3641 0.0814 0.9332 0.0
C355 C 0.40933 0.06255 0.92071 0.0
C356 C 0.36102 0.04051 0.86682 0.0
C357 C 0.31704 0.06469 0.87753 0.0
N358 N 0.28105 0.11871 0.91788 0.0
N359 N 0.45291 0.03395 0.87245 0.0
C360 C 0.31978 0.08811 0.90993 0.0
C361 C 0.40842 0.04522 0.88647 0.0
N362 N 0.36305 0.09184 0.96754 0.0
N363 N 0.35722 0.01082 0.83895 0.0
H364 H 0.4883 0.03695 0.88605 0.0
H365 H 0.4549 0.02609 0.84634 0.0
H366 H 0.32293 1.00431 0.82481 0.0
H367 H 0.38702 0.98837 0.83222 0.0
H368 H 0.32973 0.10062 0.97894 0.0
H369 H 0.39459 0.08713 0.98544 0.0
H370 H 0.28324 0.14055 0.93955 0.0
H371 H 0.24897 0.12654 0.90092 0.0
C372 C 0.03722 0.32852 0.42269 0.0
C373 C 0.05848 0.37521 0.40994 0.0
C374 C 0.08359 0.33399 0.35809 0.0
C375 C 0.05778 0.28896 0.36914 0.0
N376 N 1.00131 0.24711 0.4087 0.0
N377 N 0.09318 0.42495 0.36215 0.0
C378 C 0.03213 0.28729 0.40056 0.0
C379 C 0.07924 0.37866 0.37666 0.0
N380 N 0.02352 0.32281 0.45644 0.0
N381 N 0.11388 0.33365 0.33062 0.0
H382 H 0.08984 0.45861 0.3746 0.0
H383 H 0.10347 0.43067 0.33646 0.0
H384 H 0.11873 0.30161 0.31669 0.0
H385 H 0.13785 0.36356 0.32375 0.0
H386 H 0.01316 0.28801 0.46839 0.0
H387 H 0.02702 0.35177 0.47362 0.0
H388 H 0.97748 0.24633 0.42927 0.0
H389 H 0.99578 0.21664 0.39292 0.0
C390 C 0.78815 0.03533 0.92417 0.0
C391 C 0.74179 0.05785 0.90965 0.0
C392 C 0.7832 0.08463 0.85587 0.0
C393 C 0.82811 0.05815 0.86917 0.0
N394 N 0.87018 1.00037 0.91339 0.0
N395 N 0.69248 0.09604 0.85938 0.0
C396 C 0.82967 0.03124 0.90262 0.0
C397 C 0.73857 0.08027 0.87481 0.0
N398 N 0.79323 0.01954 0.95893 0.0
N399 N 0.78368 0.11553 0.82578 0.0
H400 H 0.65898 0.09323 0.87229 0.0
H401 H 0.68666 0.10764 0.83291 0.0
H402 H 0.81559 0.12002 0.81128 0.0
H403 H 0.754 0.14012 0.81682 0.0
H404 H 0.82774 0.00815 0.97192 0.0
H405 H 0.76392 0.02201 0.97563 0.0
H406 H 0.87108 0.97559 0.93578 0.0
H407 H 0.90107 0.99601 0.8983 0.0
C408 C 0.06859 0.75484 0.43547 0.0
C409 C 0.06255 0.70765 0.42 0.0
C410 C 0.05184 0.75285 0.36167 0.0
C411 C 0.06193 0.79979 0.37692 0.0
N412 N 0.08893 0.84452 0.42768 0.0
N413 N 0.05622 0.66059 0.3683 0.0
C414 C 0.07281 0.8005 0.41369 0.0
C415 C 0.05657 0.70635 0.38302 0.0
N416 N 0.0689 0.75619 0.47103 0.0
N417 N 0.03564 0.75284 0.32705 0.0
H418 H 0.05862 0.62588 0.38316 0.0
H419 H 0.05756 0.65702 0.34153 0.0
H420 H 0.0314 0.78599 0.31062 0.0
H421 H 0.02232 0.72054 0.31524 0.0
H422 H 0.06701 0.78981 0.48362 0.0
H423 H 0.06685 0.72355 0.48788 0.0
H424 H 0.10266 0.84632 0.45367 0.0
H425 H 0.0929 0.87856 0.41259 0.0
loop_
_geom_bond_atom_site_label_1
_geom_bond_atom_site_label_2
_geom_bond_distance
_geom_bond_site_symmetry_2
_ccdc_geom_bond_type
C0 C1 1.443 . S
C0 N4 1.376 . S
C0 C38 1.389 . S
C1 C0 1.443 . S
C1 C2 1.340 . S
C1 H41 0.951 . S
C2 C1 1.340 . S
C2 C3 1.439 . S
C2 H42 0.950 . S
C3 C2 1.439 . S
C3 N4 1.374 . S
C3 C37 1.395 1_554 S
N4 C0 1.376 . S
N4 C3 1.374 . S
N4 Co5 2.008 . S
Co5 N4 2.008 . S
Co5 N6 1.995 1_554 S
Co5 N11 2.010 1_554 S
Co5 N16 1.995 1_545 S
Co5 N21 2.282 . S
Co5 N27 2.282 1_554 S
N6 Co5 1.995 1_556 S
N6 C7 1.376 . S
N6 C10 1.383 . S
C7 N6 1.376 . S
C7 C8 1.446 . S
C7 C37 1.391 . S
C8 C7 1.446 . S
C8 C9 1.339 . S
C8 H43 0.949 . S
C9 C8 1.339 . S
C9 C10 1.439 . S
C9 H44 0.950 . S
C10 N6 1.383 . S
C10 C9 1.439 . S
C10 C39 1.392 . S
N11 Co5 2.010 1_556 S
N11 C12 1.377 . S
N11 C15 1.371 1_545 S
C12 N11 1.377 . S
C12 C13 1.443 1_545 S
C12 C39 1.389 . S
C13 C12 1.443 1_565 S
C13 C14 1.340 . S
C13 H45 0.951 . S
C14 C13 1.340 . S
C14 C15 1.439 . S
C14 H46 0.950 . S
C15 N11 1.371 1_565 S
C15 C14 1.439 . S
C15 C40 1.395 1_556 S
N16 Co5 1.995 1_565 S
N16 C17 1.376 . S
N16 C20 1.383 1_565 S
C17 N16 1.376 . S
C17 C18 1.446 . S
C17 C40 1.391 . S
C18 C17 1.446 . S
C18 C19 1.339 . S
C18 H47 0.949 . S
C19 C18 1.339 . S
C19 C20 1.439 1_565 S
C19 H48 0.950 . S
C20 N16 1.383 1_545 S
C20 C19 1.439 1_545 S
C20 C38 1.392 . S
N21 Co5 2.282 . S
N21 C24 1.332 . S
N21 C26 1.332 . S
C22 C23 1.386 . S
C22 C25 1.388 . S
C23 C22 1.386 . S
C23 C24 1.382 . S
C23 H49 0.950 1_545 S
C24 N21 1.332 . S
C24 C23 1.382 . S
C24 H35 0.952 1_545 S
C25 C22 1.388 . S
C25 C26 1.382 . S
C25 H50 0.950 . S
C26 N21 1.332 . S
C26 C25 1.382 . S
C26 H36 0.948 . S
N27 Co5 2.282 1_556 S
N27 C31 1.332 . S
N27 C32 1.332 . S
C28 C29 1.388 . S
C28 C32 1.382 . S
C28 H51 0.950 1_545 S
C29 C28 1.388 . S
C29 C30 1.386 . S
C30 C29 1.386 . S
C30 C31 1.382 . S
C30 H52 0.950 . S
C31 N27 1.332 . S
C31 C30 1.382 . S
C31 H33 0.952 . S
C32 N27 1.332 . S
C32 C28 1.382 . S
C32 H34 0.948 1_545 S
H33 C31 0.952 . S
H34 C32 0.948 1_565 S
H35 C24 0.952 1_565 S
H36 C26 0.948 . S
C37 C3 1.395 1_556 S
C37 C7 1.391 . S
C38 C0 1.389 . S
C38 C20 1.392 . S
C39 C10 1.392 . S
C39 C12 1.389 . S
C40 C15 1.395 1_554 S
C40 C17 1.391 . S
H41 C1 0.951 . S
H42 C2 0.950 . S
H43 C8 0.949 . S
H44 C9 0.950 . S
H45 C13 0.951 . S
H46 C14 0.950 . S
H47 C18 0.949 . S
H48 C19 0.950 . S
H49 C23 0.950 1_565 S
H50 C25 0.950 . S
H51 C28 0.950 1_565 S
H52 C30 0.950 . S
C53 C54 1.443 . S
C53 N57 1.376 . S
C53 C91 1.389 . S
C54 C53 1.443 . S
C54 C55 1.340 . S
C54 H94 0.951 . S
C55 C54 1.340 . S
C55 C56 1.439 . S
C55 H95 0.950 . S
C56 C55 1.439 . S
C56 N57 1.374 . S
C56 C90 1.395 . S
N57 C53 1.376 . S
N57 C56 1.374 . S
N57 Co58 2.008 . S
Co58 N57 2.008 . S
Co58 N59 1.995 . S
Co58 N64 2.008 1_455 S
Co58 N69 1.995 . S
Co58 N74 2.282 . S
Co58 N80 2.282 . S
N59 Co58 1.995 . S
N59 C60 1.376 . S
N59 C63 1.383 . S
C60 N59 1.376 . S
C60 C61 1.446 . S
C60 C90 1.391 . S
C61 C60 1.446 . S
C61 C62 1.339 . S
C61 H96 0.949 . S
C62 C61 1.339 . S
C62 C63 1.439 . S
C62 H97 0.950 . S
C63 N59 1.383 . S
C63 C62 1.439 . S
C63 C92 1.392 . S
N64 Co58 2.008 1_655 S
N64 C65 1.376 1_655 S
N64 C68 1.374 . S
C65 N64 1.376 1_455 S
C65 C66 1.443 1_455 S
C65 C92 1.389 . S
C66 C65 1.443 1_655 S
C66 C67 1.340 . S
C66 H98 0.951 . S
C67 C66 1.340 . S
C67 C68 1.439 . S
C67 H99 0.950 . S
C68 N64 1.374 . S
C68 C67 1.439 . S
C68 C93 1.395 . S
N69 Co58 1.995 . S
N69 C70 1.376 1_455 S
N69 C73 1.383 . S
C70 N69 1.376 1_655 S
C70 C71 1.446 . S
C70 C93 1.391 . S
C71 C70 1.446 . S
C71 C72 1.339 . S
C71 H100 0.949 . S
C72 C71 1.339 . S
C72 C73 1.439 1_655 S
C72 H101 0.950 . S
C73 N69 1.383 . S
C73 C72 1.439 1_455 S
C73 C91 1.392 . S
N74 Co58 2.282 . S
N74 C77 1.332 . S
N74 C79 1.332 . S
C75 C76 1.386 . S
C75 C78 1.388 . S
C76 C75 1.386 . S
C76 C77 1.382 . S
C76 H102 0.950 1_455 S
C77 N74 1.332 . S
C77 C76 1.382 . S
C77 H88 0.952 1_455 S
C78 C75 1.388 . S
C78 C79 1.382 . S
C78 H103 0.950 . S
C79 N74 1.332 . S
C79 C78 1.382 . S
C79 H89 0.948 . S
N80 Co58 2.282 . S
N80 C84 1.332 . S
N80 C85 1.332 . S
C81 C82 1.388 . S
C81 C85 1.382 . S
C81 H104 0.950 1_455 S
C82 C81 1.388 . S
C82 C83 1.386 . S
C83 C82 1.386 . S
C83 C84 1.382 . S
C83 H105 0.950 . S
C84 N80 1.332 . S
C84 C83 1.382 . S
C84 H86 0.952 . S
C85 N80 1.332 . S
C85 C81 1.382 . S
C85 H87 0.948 1_455 S
H86 C84 0.952 . S
H87 C85 0.948 1_655 S
H88 C77 0.952 1_655 S
H89 C79 0.948 . S
C90 C56 1.395 . S
C90 C60 1.391 . S
C91 C53 1.389 . S
C91 C73 1.392 . S
C92 C63 1.392 . S
C92 C65 1.389 . S
C93 C68 1.395 . S
C93 C70 1.391 . S
H94 C54 0.951 . S
H95 C55 0.950 . S
H96 C61 0.949 . S
H97 C62 0.950 . S
H98 C66 0.951 . S
H99 C67 0.950 . S
H100 C71 0.949 . S
H101 C72 0.950 . S
H102 C76 0.950 1_655 S
H103 C78 0.950 . S
H104 C81 0.950 1_655 S
H105 C83 0.950 . S
Li106 N123 1.990 . S
Li106 O166 1.956 . S
Li106 O167 1.970 1_455 S
Li106 O168 1.961 . S
Li107 N131 1.990 . S
Li107 O166 1.970 1_565 S
Li107 O167 1.956 1_465 S
Li107 O169 1.961 . S
Li108 N153 1.990 . S
Li108 O166 1.961 . S
Li108 O168 1.956 . S
Li108 O169 1.970 1_545 S
Li109 N159 1.990 . S
Li109 O167 1.961 . S
Li109 O168 1.970 1_655 S
Li109 O169 1.956 1_645 S
C110 C112 1.348 . S
C110 C113 1.356 . S
C110 O166 1.325 . S
N111 C114 1.314 . S
N111 C115 1.279 . S
C112 C110 1.348 . S
C112 C114 1.353 . S
C112 H170 0.929 1_545 S
C113 C110 1.356 . S
C113 C115 1.358 . S
C113 H171 0.930 . S
C114 N111 1.314 . S
C114 C112 1.353 . S
C114 H172 0.930 1_545 S
C115 N111 1.279 . S
C115 C113 1.358 . S
C115 H173 0.930 . S
C116 C119 1.348 . S
C116 C120 1.356 . S
C116 O167 1.325 . S
C117 N118 1.279 . S
C117 C120 1.358 . S
C117 H174 0.930 1_545 S
N118 C117 1.279 . S
N118 C121 1.314 . S
C119 C116 1.348 . S
C119 C121 1.353 . S
C119 H175 0.929 . S
C120 C116 1.356 . S
C120 C117 1.358 . S
C120 H176 0.930 1_545 S
C121 N118 1.314 . S
C121 C119 1.353 . S
C121 H177 0.930 . S
C122 N123 1.314 . S
C122 C127 1.353 . S
C122 H128 0.930 1_455 S
N123 Li106 1.990 . S
N123 C122 1.314 . S
N123 C125 1.279 . S
C124 C125 1.358 . S
C124 C126 1.356 . S
C124 H178 0.930 . S
C125 N123 1.279 . S
C125 C124 1.358 . S
C125 H129 0.930 . S
C126 C124 1.356 . S
C126 C127 1.348 . S
C127 C122 1.353 . S
C127 C126 1.348 . S
C127 H179 0.929 1_455 S
H128 C122 0.930 1_655 S
H129 C125 0.930 . S
C130 N131 1.314 . S
C130 C132 1.353 . S
C130 H136 0.930 . S
N131 Li107 1.990 . S
N131 C130 1.314 . S
N131 C134 1.279 . S
C132 C130 1.353 . S
C132 C135 1.348 . S
C132 H180 0.929 . S
C133 C134 1.358 . S
C133 C135 1.356 . S
C133 H181 0.930 1_455 S
C134 N131 1.279 . S
C134 C133 1.358 . S
C134 H137 0.930 1_455 S
C135 C132 1.348 . S
C135 C133 1.356 . S
H136 C130 0.930 . S
H137 C134 0.930 1_655 S
C138 C140 1.348 . S
C138 C141 1.356 . S
C138 O168 1.325 . S
N139 C142 1.314 . S
N139 C143 1.279 . S
C140 C138 1.348 . S
C140 C142 1.353 . S
C140 H182 0.929 1_455 S
C141 C138 1.356 . S
C141 C143 1.358 . S
C141 H183 0.930 . S
C142 N139 1.314 . S
C142 C140 1.353 . S
C142 H184 0.930 1_455 S
C143 N139 1.279 . S
C143 C141 1.358 . S
C143 H185 0.930 . S
C144 C145 1.348 . S
C144 C146 1.356 . S
C144 O169 1.325 . S
C145 C144 1.348 . S
C145 C147 1.353 . S
C145 H186 0.929 . S
C146 C144 1.356 . S
C146 C148 1.358 . S
C146 H187 0.930 1_455 S
C147 C145 1.353 . S
C147 N149 1.314 . S
C147 H188 0.930 . S
C148 C146 1.358 . S
C148 N149 1.279 . S
C148 H189 0.930 1_455 S
N149 C147 1.314 . S
N149 C148 1.279 . S
C150 C152 1.353 . S
C150 N153 1.314 . S
C150 H156 0.930 1_545 S
C151 N153 1.279 . S
C151 C154 1.358 . S
C151 H157 0.930 . S
C152 C150 1.353 . S
C152 C155 1.348 . S
C152 H190 0.929 1_545 S
N153 Li108 1.990 . S
N153 C150 1.314 . S
N153 C151 1.279 . S
C154 C151 1.358 . S
C154 C155 1.356 . S
C154 H191 0.930 . S
C155 C152 1.348 . S
C155 C154 1.356 . S
H156 C150 0.930 1_565 S
H157 C151 0.930 . S
C158 N159 1.314 . S
C158 C160 1.353 . S
C158 H164 0.930 . S
N159 Li109 1.990 . S
N159 C158 1.314 . S
N159 C162 1.279 . S
C160 C158 1.353 . S
C160 C163 1.348 . S
C160 H192 0.929 . S
C161 C162 1.358 . S
C161 C163 1.356 . S
C161 H193 0.930 1_545 S
C162 N159 1.279 . S
C162 C161 1.358 . S
C162 H165 0.930 1_545 S
C163 C160 1.348 . S
C163 C161 1.356 . S
H164 C158 0.930 . S
H165 C162 0.930 1_565 S
O166 Li106 1.956 . S
O166 Li107 1.970 1_545 S
O166 Li108 1.961 . S
O166 C110 1.325 . S
O167 Li106 1.970 1_655 S
O167 Li107 1.956 1_645 S
O167 Li109 1.961 . S
O167 C116 1.325 . S
O168 Li106 1.961 . S
O168 Li108 1.956 . S
O168 Li109 1.970 1_455 S
O168 C138 1.325 . S
O169 Li107 1.961 . S
O169 Li108 1.970 1_565 S
O169 Li109 1.956 1_465 S
O169 C144 1.325 . S
H170 C112 0.929 1_565 S
H171 C113 0.930 . S
H172 C114 0.930 1_565 S
H173 C115 0.930 . S
H174 C117 0.930 1_565 S
H175 C119 0.929 . S
H176 C120 0.930 1_565 S
H177 C121 0.930 . S
H178 C124 0.930 . S
H179 C127 0.929 1_655 S
H180 C132 0.929 . S
H181 C133 0.930 1_655 S
H182 C140 0.929 1_655 S
H183 C141 0.930 . S
H184 C142 0.930 1_655 S
H185 C143 0.930 . S
H186 C145 0.929 . S
H187 C146 0.930 1_655 S
H188 C147 0.930 . S
H189 C148 0.930 1_655 S
H190 C152 0.929 1_565 S
H191 C154 0.930 . S
H192 C160 0.929 . S
H193 C161 0.930 1_565 S
Li194 N211 1.990 1_455 S
Li194 O254 1.956 . S
Li194 O255 1.970 . S
Li194 O256 1.961 . S
Li195 N219 1.990 . S
Li195 O254 1.970 . S
Li195 O255 1.956 . S
Li195 O257 1.961 . S
Li196 N241 1.990 . S
Li196 O254 1.961 . S
Li196 O256 1.956 . S
Li196 O257 1.970 . S
Li197 N247 1.990 1_545 S
Li197 O255 1.961 . S
Li197 O256 1.970 . S
Li197 O257 1.956 . S
C198 C200 1.348 . S
C198 C201 1.356 . S
C198 O254 1.325 . S
N199 C202 1.314 . S
N199 C203 1.279 . S
C200 C198 1.348 . S
C200 C202 1.353 . S
C200 H258 0.929 . S
C201 C198 1.356 . S
C201 C203 1.358 . S
C201 H259 0.930 . S
C202 N199 1.314 . S
C202 C200 1.353 . S
C202 H260 0.930 . S
C203 N199 1.279 . S
C203 C201 1.358 . S
C203 H261 0.930 . S
C204 C207 1.348 . S
C204 C208 1.356 . S
C204 O255 1.325 1_565 S
C205 N206 1.279 . S
C205 C208 1.358 . S
C205 H262 0.930 . S
N206 C205 1.279 . S
N206 C209 1.314 . S
C207 C204 1.348 . S
C207 C209 1.353 . S
C207 H263 0.929 . S
C208 C204 1.356 . S
C208 C205 1.358 . S
C208 H264 0.930 . S
C209 N206 1.314 . S
C209 C207 1.353 . S
C209 H265 0.930 . S
C210 N211 1.314 . S
C210 C215 1.353 . S
C210 H216 0.930 . S
N211 Li194 1.990 1_655 S
N211 C210 1.314 . S
N211 C213 1.279 . S
C212 C213 1.358 . S
C212 C214 1.356 . S
C212 H266 0.930 . S
C213 N211 1.279 . S
C213 C212 1.358 . S
C213 H217 0.930 . S
C214 C212 1.356 . S
C214 C215 1.348 . S
C215 C210 1.353 . S
C215 C214 1.348 . S
C215 H267 0.929 . S
H216 C210 0.930 . S
H217 C213 0.930 . S
C218 N219 1.314 . S
C218 C220 1.353 . S
C218 H224 0.930 . S
N219 Li195 1.990 . S
N219 C218 1.314 . S
N219 C222 1.279 . S
C220 C218 1.353 . S
C220 C223 1.348 . S
C220 H268 0.929 . S
C221 C222 1.358 . S
C221 C223 1.356 . S
C221 H269 0.930 . S
C222 N219 1.279 . S
C222 C221 1.358 . S
C222 H225 0.930 . S
C223 C220 1.348 . S
C223 C221 1.356 . S
H224 C218 0.930 . S
H225 C222 0.930 . S
C226 C228 1.348 . S
C226 C229 1.356 . S
C226 O256 1.325 1_655 S
N227 C230 1.314 . S
N227 C231 1.279 . S
C228 C226 1.348 . S
C228 C230 1.353 . S
C228 H270 0.929 . S
C229 C226 1.356 . S
C229 C231 1.358 . S
C229 H271 0.930 . S
C230 N227 1.314 . S
C230 C228 1.353 . S
C230 H272 0.930 . S
C231 N227 1.279 . S
C231 C229 1.358 . S
C231 H273 0.930 . S
C232 C233 1.348 . S
C232 C234 1.356 . S
C232 O257 1.325 . S
C233 C232 1.348 . S
C233 C235 1.353 . S
C233 H274 0.929 . S
C234 C232 1.356 . S
C234 C236 1.358 . S
C234 H275 0.930 . S
C235 C233 1.353 . S
C235 N237 1.314 . S
C235 H276 0.930 . S
C236 C234 1.358 . S
C236 N237 1.279 . S
C236 H277 0.930 . S
N237 C235 1.314 . S
N237 C236 1.279 . S
C238 C240 1.353 . S
C238 N241 1.314 . S
C238 H244 0.930 . S
C239 N241 1.279 . S
C239 C242 1.358 . S
C239 H245 0.930 . S
C240 C238 1.353 . S
C240 C243 1.348 . S
C240 H278 0.929 . S
N241 Li196 1.990 . S
N241 C238 1.314 . S
N241 C239 1.279 . S
C242 C239 1.358 . S
C242 C243 1.356 . S
C242 H279 0.930 . S
C243 C240 1.348 . S
C243 C242 1.356 . S
H244 C238 0.930 . S
H245 C239 0.930 . S
C246 N247 1.314 . S
C246 C248 1.353 . S
C246 H252 0.930 . S
N247 Li197 1.990 1_565 S
N247 C246 1.314 . S
N247 C250 1.279 . S
C248 C246 1.353 . S
C248 C251 1.348 . S
C248 H280 0.929 . S
C249 C250 1.358 . S
C249 C251 1.356 . S
C249 H281 0.930 . S
C250 N247 1.279 . S
C250 C249 1.358 . S
C250 H253 0.930 . S
C251 C248 1.348 . S
C251 C249 1.356 . S
H252 C246 0.930 . S
H253 C250 0.930 . S
O254 Li194 1.956 . S
O254 Li195 1.970 . S
O254 Li196 1.961 . S
O254 C198 1.325 . S
O255 Li194 1.970 . S
O255 Li195 1.956 . S
O255 Li197 1.961 . S
O255 C204 1.325 1_545 S
O256 Li194 1.961 . S
O256 Li196 1.956 . S
O256 Li197 1.970 . S
O256 C226 1.325 1_455 S
O257 Li195 1.961 . S
O257 Li196 1.970 . S
O257 Li197 1.956 . S
O257 C232 1.325 . S
H258 C200 0.929 . S
H259 C201 0.930 . S
H260 C202 0.930 . S
H261 C203 0.930 . S
H262 C205 0.930 . S
H263 C207 0.929 . S
H264 C208 0.930 . S
H265 C209 0.930 . S
H266 C212 0.930 . S
H267 C215 0.929 . S
H268 C220 0.929 . S
H269 C221 0.930 . S
H270 C228 0.929 . S
H271 C229 0.930 . S
H272 C230 0.930 . S
H273 C231 0.930 . S
H274 C233 0.929 . S
H275 C234 0.930 . S
H276 C235 0.930 . S
H277 C236 0.930 . S
H278 C240 0.929 . S
H279 C242 0.930 . S
H280 C248 0.929 . S
H281 C249 0.930 . S
C282 C283 1.363 . S
C282 C288 1.379 . S
C282 N290 1.356 . S
C283 C282 1.363 . S
C283 C289 1.363 . S
C284 C285 1.363 . S
C284 C289 1.379 . S
C284 N291 1.356 1_545 S
C285 C284 1.363 . S
C285 C288 1.363 . S
N286 C288 1.356 . S
N286 H298 0.984 . S
N286 H299 0.985 . S
N287 C289 1.356 1_565 S
N287 H292 0.984 . S
N287 H293 0.985 . S
C288 C282 1.379 . S
C288 C285 1.363 . S
C288 N286 1.356 . S
C289 C283 1.363 . S
C289 C284 1.379 . S
C289 N287 1.356 1_545 S
N290 C282 1.356 . S
N290 H296 0.984 . S
N290 H297 0.984 . S
N291 C284 1.356 1_565 S
N291 H294 0.984 . S
N291 H295 0.985 . S
H292 N287 0.984 . S
H293 N287 0.985 . S
H294 N291 0.984 . S
H295 N291 0.985 . S
H296 N290 0.984 . S
H297 N290 0.984 . S
H298 N286 0.984 . S
H299 N286 0.985 . S
C300 C301 1.363 . S
C300 C306 1.379 . S
C300 N308 1.356 . S
C301 C300 1.363 . S
C301 C307 1.363 . S
C302 C303 1.363 . S
C302 C307 1.379 . S
C302 N309 1.356 1_455 S
C303 C302 1.363 . S
C303 C306 1.363 . S
N304 C306 1.356 . S
N304 H316 0.984 . S
N304 H317 0.985 . S
N305 C307 1.356 1_655 S
N305 H310 0.984 . S
N305 H311 0.985 . S
C306 C300 1.379 . S
C306 C303 1.363 . S
C306 N304 1.356 . S
C307 C301 1.363 . S
C307 C302 1.379 . S
C307 N305 1.356 1_455 S
N308 C300 1.356 . S
N308 H314 0.984 . S
N308 H315 0.984 . S
N309 C302 1.356 1_655 S
N309 H312 0.984 1_655 S
N309 H313 0.985 . S
H310 N305 0.984 . S
H311 N305 0.985 . S
H312 N309 0.984 1_455 S
H313 N309 0.985 . S
H314 N308 0.984 . S
H315 N308 0.984 . S
H316 N304 0.984 . S
H317 N304 0.985 . S
C318 C319 1.363 . S
C318 C324 1.379 . S
C318 N326 1.356 1_545 S
C319 C318 1.363 . S
C319 C325 1.363 . S
C320 C321 1.363 . S
C320 C325 1.379 . S
C320 N327 1.356 . S
C321 C320 1.363 . S
C321 C324 1.363 . S
N322 C324 1.356 1_565 S
N322 H334 0.984 . S
N322 H335 0.985 . S
N323 C325 1.356 . S
N323 H328 0.984 . S
N323 H329 0.985 . S
C324 C318 1.379 . S
C324 C321 1.363 . S
C324 N322 1.356 1_545 S
C325 C319 1.363 . S
C325 C320 1.379 . S
C325 N323 1.356 . S
N326 C318 1.356 1_565 S
N326 H332 0.984 . S
N326 H333 0.984 . S
N327 C320 1.356 . S
N327 H330 0.984 . S
N327 H331 0.985 . S
H328 N323 0.984 . S
H329 N323 0.985 . S
H330 N327 0.984 . S
H331 N327 0.985 . S
H332 N326 0.984 . S
H333 N326 0.984 . S
H334 N322 0.984 . S
H335 N322 0.985 . S
C336 C337 1.363 . S
C336 C342 1.379 . S
C336 N344 1.356 1_455 S
C337 C336 1.363 . S
C337 C343 1.363 . S
C338 C339 1.363 . S
C338 C343 1.379 . S
C338 N345 1.356 . S
C339 C338 1.363 . S
C339 C342 1.363 . S
N340 C342 1.356 1_655 S
N340 H352 0.984 . S
N340 H353 0.985 1_655 S
N341 C343 1.356 . S
N341 H346 0.984 . S
N341 H347 0.985 . S
C342 C336 1.379 . S
C342 C339 1.363 . S
C342 N340 1.356 1_455 S
C343 C337 1.363 . S
C343 C338 1.379 . S
C343 N341 1.356 . S
N344 C336 1.356 1_655 S
N344 H350 0.984 . S
N344 H351 0.984 . S
N345 C338 1.356 . S
N345 H348 0.984 . S
N345 H349 0.985 . S
H346 N341 0.984 . S
H347 N341 0.985 . S
H348 N345 0.984 . S
H349 N345 0.985 . S
H350 N344 0.984 . S
H351 N344 0.984 . S
H352 N340 0.984 . S
H353 N340 0.985 1_455 S
C354 C355 1.363 . S
C354 C360 1.379 . S
C354 N362 1.356 . S
C355 C354 1.363 . S
C355 C361 1.363 . S
C356 C357 1.363 . S
C356 C361 1.379 . S
C356 N363 1.356 . S
C357 C356 1.363 . S
C357 C360 1.363 . S
N358 C360 1.356 . S
N358 H370 0.984 . S
N358 H371 0.985 . S
N359 C361 1.349 1_565 S
N359 H364 0.981 1_565 S
N359 H365 0.996 . S
C360 C354 1.379 . S
C360 C357 1.363 . S
C360 N358 1.356 . S
C361 C355 1.363 . S
C361 C356 1.379 . S
C361 N359 1.349 1_545 S
N362 C354 1.356 . S
N362 H368 0.984 . S
N362 H369 0.984 . S
N363 C356 1.356 . S
N363 H366 0.984 . S
N363 H367 0.985 1_545 S
H364 N359 0.981 1_545 S
H365 N359 0.996 . S
H366 N363 0.984 . S
H367 N363 0.985 1_565 S
H368 N362 0.984 . S
H369 N362 0.984 . S
H370 N358 0.984 . S
H371 N358 0.985 . S
C372 C373 1.363 . S
C372 C378 1.379 . S
C372 N380 1.356 . S
C373 C372 1.363 . S
C373 C379 1.363 . S
C374 C375 1.363 . S
C374 C379 1.379 . S
C374 N381 1.356 . S
C375 C374 1.363 . S
C375 C378 1.363 . S
N376 C378 1.356 . S
N376 H388 0.984 . S
N376 H389 0.985 . S
N377 C379 1.356 . S
N377 H382 0.984 . S
N377 H383 0.985 . S
C378 C372 1.379 . S
C378 C375 1.363 . S
C378 N376 1.356 . S
C379 C373 1.363 . S
C379 C374 1.379 . S
C379 N377 1.356 . S
N380 C372 1.356 . S
N380 H386 0.984 . S
N380 H387 0.984 . S
N381 C374 1.356 . S
N381 H384 0.984 . S
N381 H385 0.985 . S
H382 N377 0.984 . S
H383 N377 0.985 . S
H384 N381 0.984 . S
H385 N381 0.985 . S
H386 N380 0.984 . S
H387 N380 0.984 . S
H388 N376 0.984 . S
H389 N376 0.985 . S
C390 C391 1.363 . S
C390 C396 1.379 . S
C390 N398 1.356 1_545 S
C391 C390 1.363 . S
C391 C397 1.363 . S
C392 C393 1.363 . S
C392 C397 1.379 . S
C392 N399 1.356 . S
C393 C392 1.363 . S
C393 C396 1.363 . S
N394 C396 1.356 1_565 S
N394 H406 0.984 . S
N394 H407 0.985 1_565 S
N395 C397 1.356 . S
N395 H400 0.984 . S
N395 H401 0.985 . S
C396 C390 1.379 . S
C396 C393 1.363 . S
C396 N394 1.356 1_545 S
C397 C391 1.363 . S
C397 C392 1.379 . S
C397 N395 1.356 . S
N398 C390 1.356 1_565 S
N398 H404 0.984 . S
N398 H405 0.984 1_565 S
N399 C392 1.356 . S
N399 H402 0.984 . S
N399 H403 0.985 . S
H400 N395 0.984 . S
H401 N395 0.985 . S
H402 N399 0.984 . S
H403 N399 0.985 . S
H404 N398 0.984 . S
H405 N398 0.984 1_545 S
H406 N394 0.984 . S
H407 N394 0.985 1_545 S
C408 C409 1.363 . S
C408 C414 1.379 . S
C408 N416 1.356 . S
C409 C408 1.363 . S
C409 C415 1.363 . S
C410 C411 1.363 . S
C410 C415 1.379 . S
C410 N417 1.356 . S
C411 C410 1.363 . S
C411 C414 1.363 . S
N412 C414 1.356 . S
N412 H424 0.984 . S
N412 H425 0.985 . S
N413 C415 1.356 . S
N413 H418 0.984 . S
N413 H419 0.985 . S
C414 C408 1.379 . S
C414 C411 1.363 . S
C414 N412 1.356 . S
C415 C409 1.363 . S
C415 C410 1.379 . S
C415 N413 1.356 . S
N416 C408 1.356 . S
N416 H422 0.984 . S
N416 H423 0.984 . S
N417 C410 1.356 . S
N417 H420 0.984 . S
N417 H421 0.985 . S
H418 N413 0.984 . S
H419 N413 0.985 . S
H420 N417 0.984 . S
H421 N417 0.985 . S
H422 N416 0.984 . S
H423 N416 0.984 . S
H424 N412 0.984 . S
H425 N412 0.985 . S
C285 C155 1.494 . S
C283 C22 1.494 . S
C303 C243 1.491 . S
C301 C91 1.491 . S
C321 C163 1.491 . S
C319 C38 1.491 . S
C339 C251 1.494 . S
C337 C75 1.494 . S
C357 C223 1.491 . S
C355 C39 1.491 . S
C375 C126 1.494 . S
C373 C82 1.494 . S
C393 C214 1.493 . S
C391 C29 1.493 . S
C409 C92 1.491 . S
C411 C135 1.491 . S
