# Generated by pormake.
# Topology zzz, (3,6)-cn, num edge types: 1
# Building blocks:
#     Node 0, Type 0, BuildingBlock: OLANEW_clean_sbu_2, # of connection points: 3
#     Node 1, Type 0, BuildingBlock: OLANEW_clean_sbu_2, # of connection points: 3
#     Node 2, Type 0, BuildingBlock: OLANEW_clean_sbu_2, # of connection points: 3
#     Node 3, Type 0, BuildingBlock: OLANEW_clean_sbu_2, # of connection points: 3
#     Node 4, Type 0, BuildingBlock: OLANEW_clean_sbu_2, # of connection points: 3
#     Node 5, Type 0, BuildingBlock: OLANEW_clean_sbu_2, # of connection points: 3
#     Node 6, Type 0, BuildingBlock: OLANEW_clean_sbu_2, # of connection points: 3
#     Node 7, Type 0, BuildingBlock: OLANEW_clean_sbu_2, # of connection points: 3
#     Node 8, Type 1, BuildingBlock: KUMBUR_clean_sbu_0, # of connection points: 6
#     Node 9, Type 1, BuildingBlock: KUMBUR_clean_sbu_0, # of connection points: 6
#     Node 10, Type 1, BuildingBlock: KUMBUR_clean_sbu_0, # of connection points: 6
#     Node 11, Type 1, BuildingBlock: KUMBUR_clean_sbu_0, # of connection points: 6
#     Edge 12, Type (0, 1), BuildingBlock: OJICUG_clean_linker_0, # of connection points: 2
#     Edge 13, Type (0, 1), BuildingBlock: OJICUG_clean_linker_0, # of connection points: 2
#     Edge 14, Type (0, 1), BuildingBlock: OJICUG_clean_linker_0, # of connection points: 2
#     Edge 15, Type (0, 1), BuildingBlock: OJICUG_clean_linker_0, # of connection points: 2
#     Edge 16, Type (0, 1), BuildingBlock: OJICUG_clean_linker_0, # of connection points: 2
#     Edge 17, Type (0, 1), BuildingBlock: OJICUG_clean_linker_0, # of connection points: 2
#     Edge 18, Type (0, 1), BuildingBlock: OJICUG_clean_linker_0, # of connection points: 2
#     Edge 19, Type (0, 1), BuildingBlock: OJICUG_clean_linker_0, # of connection points: 2
#     Edge 20, Type (0, 1), BuildingBlock: OJICUG_clean_linker_0, # of connection points: 2
#     Edge 21, Type (0, 1), BuildingBlock: OJICUG_clean_linker_0, # of connection points: 2
#     Edge 22, Type (0, 1), BuildingBlock: OJICUG_clean_linker_0, # of connection points: 2
#     Edge 23, Type (0, 1), BuildingBlock: OJICUG_clean_linker_0, # of connection points: 2
#     Edge 24, Type (0, 1), BuildingBlock: OJICUG_clean_linker_0, # of connection points: 2
#     Edge 25, Type (0, 1), BuildingBlock: OJICUG_clean_linker_0, # of connection points: 2
#     Edge 26, Type (0, 1), BuildingBlock: OJICUG_clean_linker_0, # of connection points: 2
#     Edge 27, Type (0, 1), BuildingBlock: OJICUG_clean_linker_0, # of connection points: 2
#     Edge 28, Type (0, 1), BuildingBlock: OJICUG_clean_linker_0, # of connection points: 2
#     Edge 29, Type (0, 1), BuildingBlock: OJICUG_clean_linker_0, # of connection points: 2
#     Edge 30, Type (0, 1), BuildingBlock: OJICUG_clean_linker_0, # of connection points: 2
#     Edge 31, Type (0, 1), BuildingBlock: OJICUG_clean_linker_0, # of connection points: 2
#     Edge 32, Type (0, 1), BuildingBlock: OJICUG_clean_linker_0, # of connection points: 2
#     Edge 33, Type (0, 1), BuildingBlock: OJICUG_clean_linker_0, # of connection points: 2
#     Edge 34, Type (0, 1), BuildingBlock: OJICUG_clean_linker_0, # of connection points: 2
#     Edge 35, Type (0, 1), BuildingBlock: OJICUG_clean_linker_0, # of connection points: 2
# Relax obj value: 0.187
# Max RMSD: 0.180
# Mean RMSD: 0.127
data_MOF--net-zzz--node1-OLANEW_clean_sbu_2--node2-KUMBUR_clean_sbu_0--edge1-OJICUG_clean_linker_0
_symmetry_space_group_name_H-M    P1
_symmetry_Int_Tables_number       1
_symmetry_cell_setting            triclinic
loop_
_symmetry_equiv_pos_as_xyz
'x, y, z'
_cell_length_a     40.856951
_cell_length_b     40.769575
_cell_length_c     12.628487
_cell_angle_alpha  90.06056
_cell_angle_beta   89.887334
_cell_angle_gamma 89.966601
loop_
_atom_site_label
_atom_site_type_symbol
_atom_site_fract_x
_atom_site_fract_y
_atom_site_fract_z
_atom_type_partial_charge
O0 O 0.73643 0.57191 0.07641 0.0
Cd1 Cd 0.68664 0.60009 0.12132 0.0
O2 O 0.73741 0.5672 0.24695 0.0
Cd3 Cd 0.75498 0.56082 0.40602 0.0
O4 O 0.80326 0.56905 0.46572 0.0
C5 C 0.81167 0.56582 0.56143 0.0
O6 O 0.78963 0.55758 0.63252 0.0
C7 C 0.75049 0.56066 0.15779 0.0
C8 C 0.63989 0.5619 0.02602 0.0
O9 O 0.65297 0.58635 0.97833 0.0
O10 O 0.64781 0.55639 0.1225 0.0
O11 O 0.93357 0.74634 0.11135 0.0
Cd12 Cd 0.91045 0.6922 0.13507 0.0
O13 O 0.95748 0.73814 0.26438 0.0
Cd14 Cd 0.98632 0.76056 0.38849 0.0
O15 O -0.00021 0.80998 0.43417 0.0
C16 C 0.9773 0.83049 0.45573 0.0
O17 O 0.9467 0.82061 0.45802 0.0
C18 C 0.953 0.75591 0.1831 0.0
C19 C 0.95152 0.64801 0.03254 0.0
O20 O 0.92778 0.66202 0.98418 0.0
O21 O 0.95561 0.65445 0.1309 0.0
O22 O 0.7517 0.92836 0.11603 0.0
Cd23 Cd 0.80058 0.89544 0.12971 0.0
O24 O 0.76155 0.9512 0.26979 0.0
Cd25 Cd 0.74819 0.98069 0.40695 0.0
O26 O 0.70254 0.00118 0.46396 0.0
C27 C 0.68078 0.98019 0.48716 0.0
O28 O 0.68849 0.9489 0.48646 0.0
C29 C 0.74397 0.94913 0.18676 0.0
C30 C 0.84685 0.92713 0.00621 0.0
O31 O 0.8432 0.93415 0.10442 0.0
O32 O 0.82907 0.90432 0.96676 0.0
O33 O 0.5849 0.75941 0.09273 0.0
Cd34 Cd 0.62091 0.80605 0.11719 0.0
O35 O 0.56672 0.76847 0.25324 0.0
Cd36 Cd 0.5376 0.75854 0.39477 0.0
O37 O 0.52872 0.71952 0.50813 0.0
C38 C 0.55399 0.7023 0.52637 0.0
O39 O 0.58225 0.71172 0.48706 0.0
C40 C 0.56572 0.75182 0.16789 0.0
C41 C 0.59148 0.85715 0.00936 0.0
O42 O 0.58575 0.8527 0.10811 0.0
O43 O 0.61211 0.83818 0.96334 0.0
O44 O 0.26952 0.43755 0.28949 0.0
Cd45 Cd 0.31988 0.40922 0.25162 0.0
O46 O 0.26369 0.42921 0.12137 0.0
Cd47 Cd 0.24163 0.42505 0.96759 0.0
O48 O 0.19577 0.42404 0.88714 0.0
C49 C 0.19112 0.43786 0.79875 0.0
O50 O 0.2161 0.4506 0.74767 0.0
C51 C 0.25275 0.44181 0.20663 0.0
C52 C 0.36633 0.44988 0.33752 0.0
O53 O 0.35865 0.45296 0.23969 0.0
O54 O 0.35319 0.42664 0.39102 0.0
O55 O 0.07645 0.27801 0.28556 0.0
Cd56 Cd 0.09687 0.32845 0.21089 0.0
O57 O 0.08036 0.26561 0.11831 0.0
Cd58 Cd 0.06551 0.23538 0.98781 0.0
O59 O 0.04014 0.19249 0.93392 0.0
C60 C 0.05494 0.17258 0.87365 0.0
O61 O 0.08462 0.17963 0.84052 0.0
C62 C 0.07123 0.25792 0.21117 0.0
C63 C 0.0611 0.37789 0.30552 0.0
O64 O 0.04947 0.36315 0.22428 0.0
O65 O 0.0896 0.36964 0.33853 0.0
O66 O 0.2556 0.10592 0.27202 0.0
Cd67 Cd 0.2037 0.13327 0.24322 0.0
O68 O 0.25159 0.08567 0.11175 0.0
Cd69 Cd 0.26724 0.05235 0.98587 0.0
O70 O 0.30783 0.02743 0.90832 0.0
C71 C 0.32881 0.04563 0.863 0.0
O72 O 0.32302 0.07726 0.85587 0.0
C73 C 0.26683 0.08754 0.19946 0.0
C74 C 0.1573 0.09596 0.34977 0.0
O75 O 0.16332 0.09079 0.25151 0.0
O76 O 0.17246 0.11943 0.39609 0.0
O77 O 0.41643 0.26117 0.26726 0.0
Cd78 Cd 0.37825 0.21578 0.25887 0.0
O79 O 0.42998 0.25205 0.10245 0.0
Cd80 Cd 0.4541 0.25903 0.95021 0.0
O81 O 0.46269 0.29697 0.83367 0.0
C82 C 0.43974 0.3179 0.82699 0.0
O83 O 0.41222 0.31229 0.87791 0.0
C84 C 0.43399 0.26834 0.18764 0.0
C85 C 0.411 0.16384 0.35158 0.0
O86 O 0.41008 0.16651 0.25052 0.0
O87 O 0.39531 0.18486 0.40755 0.0
Tb88 Tb 0.02826 0.98997 0.77863 0.0
C89 C 0.91662 0.99346 0.44731 0.0
C90 C 0.93433 0.95643 0.30914 0.0
C91 C 0.87623 0.96429 0.34226 0.0
C92 C 0.94147 0.9783 0.39248 0.0
C93 C 0.88364 0.98723 0.42178 0.0
C94 C 0.9016 0.94879 0.28635 0.0
C95 C 0.86813 0.02816 0.55097 0.0
N96 N 0.92491 0.01535 0.5233 0.0
C97 C 0.90125 0.03349 0.57311 0.0
C98 C 0.85924 0.00468 0.47568 0.0
Tb99 Tb 0.97956 0.02116 0.55897 0.0
N100 N 0.97267 0.98633 0.4175 0.0
C101 C -0.00204 0.9751 0.35607 0.0
C102 C 0.96025 0.94364 0.2495 0.0
C103 C 0.99217 0.95345 0.27212 0.0
H104 H 0.90783 0.05149 0.63206 0.0
H105 H 0.01238 0.9443 0.22514 0.0
H106 H 0.89574 0.93147 0.22422 0.0
H107 H 0.84948 0.04212 0.59209 0.0
H108 H 0.02287 0.98207 0.37205 0.0
H109 H 0.99334 0.06485 0.11585 0.0
H110 H 0.95582 0.92692 0.18433 0.0
H111 H 0.10102 0.96212 0.7063 0.0
H112 H 0.98397 0.02733 0.96749 0.0
H113 H 0.159 0.97393 0.74466 0.0
H114 H 0.85104 0.95883 0.32218 0.0
H115 H 0.04921 0.08464 0.15488 0.0
H116 H 0.10933 0.08329 0.11151 0.0
H117 H 0.83358 0.00063 0.45849 0.0
H118 H 0.15473 0.0578 0.01237 0.0
N119 N 0.03412 0.02513 0.92036 0.0
C120 C 0.0086 0.0352 0.98289 0.0
C121 C 0.04527 0.06797 0.08926 0.0
C122 C 0.07147 0.05661 0.028 0.0
C123 C 0.01376 0.05672 0.06774 0.0
C124 C 0.06501 0.03452 0.94456 0.0
H125 H 0.17352 0.01645 0.87651 0.0
N126 N 0.08271 0.99795 0.81409 0.0
C127 C 0.13991 0.98728 0.78573 0.0
C128 C 0.0903 0.02036 0.8893 0.0
C129 C 0.10698 0.98056 0.76454 0.0
C130 C 0.14801 0.01134 0.85999 0.0
C131 C 0.12306 0.02794 0.91398 0.0
O132 O 0.04267 0.94148 0.81067 0.0
O133 O 0.00118 0.97974 0.63682 0.0
O134 O 0.94691 0.99162 0.65737 0.0
O135 O 0.97569 0.99404 0.81724 0.0
O136 O 0.04273 0.95347 0.65958 0.0
O137 O 0.00637 0.96581 0.90751 0.0
O138 O 0.96808 0.07058 0.53227 0.0
O139 O 0.00611 0.03053 0.70088 0.0
O140 O 0.06003 0.02037 0.68019 0.0
O141 O 0.03208 0.01666 0.51945 0.0
O142 O 0.96649 0.05872 0.67765 0.0
O143 O 0.00052 0.04449 0.42588 0.0
C144 C 0.01804 0.95695 0.59776 0.0
C145 C 0.03422 0.92094 0.98355 0.0
C146 C 0.02598 0.87467 0.1032 0.0
C147 C 0.01601 0.8937 0.01633 0.0
C148 C 0.05484 0.88354 0.1569 0.0
C149 C 0.06284 0.92956 0.03756 0.0
C150 C 0.07307 0.91082 0.12412 0.0
C151 C 0.94878 0.98812 0.76155 0.0
C152 C 0.0227 0.9389 0.89062 0.0
C153 C 0.12974 0.05128 0.99297 0.0
C154 C 0.10393 0.06572 0.04962 0.0
C155 C 0.99097 0.05442 0.73994 0.0
C156 C 0.9771 0.09455 0.36475 0.0
C157 C -0.00158 0.12015 0.33774 0.0
C158 C 0.9882 0.14523 0.26981 0.0
C159 C 0.95669 0.14402 0.22595 0.0
C160 C 0.94575 0.09327 0.3201 0.0
C161 C 0.93574 0.11788 0.25 0.0
C162 C 0.05863 0.02348 0.57579 0.0
C163 C 0.98719 0.07254 0.45002 0.0
H164 H 0.99441 0.88687 0.9717 0.0
H165 H 0.06326 0.86956 0.22438 0.0
H166 H 0.07722 0.9505 0.01253 0.0
H167 H 0.09524 0.91737 0.16582 0.0
H168 H 0.0224 0.12157 0.37437 0.0
H169 H 0.94825 0.16343 0.17421 0.0
H170 H 0.92888 0.07387 0.34156 0.0
H171 H 0.91139 0.11716 0.21646 0.0
Tb172 Tb 0.51562 0.03417 0.773 0.0
C173 C 0.52952 0.92138 0.45938 0.0
C174 C 0.56504 0.94305 0.32301 0.0
C175 C 0.56533 0.88462 0.36129 0.0
C176 C 0.54135 0.94775 0.40299 0.0
C177 C 0.54082 0.88937 0.43796 0.0
C178 C 0.57751 0.91145 0.30414 0.0
C179 C 0.50109 0.86907 0.56384 0.0
N180 N 0.50584 0.927 0.53238 0.0
C181 C 0.49058 0.90127 0.58172 0.0
C182 C 0.52657 0.8631 0.49243 0.0
Tb183 Tb 0.4906 0.98055 0.55763 0.0
N184 N 0.52849 0.97779 0.42327 0.0
C185 C 0.53684 0.00395 0.36096 0.0
C186 C 0.57481 0.97007 0.26259 0.0
C187 C 0.56031 0.00056 0.28078 0.0
H188 H 0.471 0.9058 0.63754 0.0
H189 H 0.56722 0.02152 0.23325 0.0
H190 H 0.59597 0.90742 0.2438 0.0
H191 H 0.48951 0.84889 0.60504 0.0
H192 H 0.52609 0.02777 0.37364 0.0
H193 H 0.43056 0.00339 0.08746 0.0
H194 H 0.59292 0.96747 0.20037 0.0
H195 H 0.54807 0.10583 0.7055 0.0
H196 H 0.47151 0.99192 0.9502 0.0
H197 H 0.53897 0.16425 0.74399 0.0
H198 H 0.57455 0.86025 0.34414 0.0
H199 H 0.41345 0.06047 0.1239 0.0
H200 H 0.42022 0.12064 0.08596 0.0
H201 H 0.53456 0.83812 0.47828 0.0
H202 H 0.45034 0.16457 0.99444 0.0
N203 N 0.47719 0.04201 0.90415 0.0
C204 C 0.46442 0.01703 0.96378 0.0
C205 C 0.43134 0.05558 0.06243 0.0
C206 C 0.44579 0.0812 0.00562 0.0
C207 C 0.44104 0.02337 0.04233 0.0
C208 C 0.46912 0.07348 0.92691 0.0
H209 H 0.49507 0.18107 0.8679 0.0
N210 N 0.50904 0.08921 0.80422 0.0
C211 C 0.52365 0.14588 0.781 0.0
C212 C 0.48576 0.09802 0.87526 0.0
C213 C 0.52869 0.11259 0.7593 0.0
C214 C 0.49883 0.15528 0.85084 0.0
C215 C 0.47976 0.13122 0.90004 0.0
O216 O 0.56513 0.04361 0.80257 0.0
O217 O 0.52931 0.00572 0.63656 0.0
O218 O 0.52132 0.9527 0.66587 0.0
O219 O 0.51241 0.98229 0.82049 0.0
O220 O 0.55231 0.04916 0.65542 0.0
O221 O 0.53544 0.0193 0.92017 0.0
O222 O 0.44711 0.95564 0.51731 0.0
O223 O 0.47644 0.00971 0.69117 0.0
O224 O 0.48833 0.06548 0.66568 0.0
O225 O 0.48658 0.03284 0.51193 0.0
O226 O 0.45192 0.96703 0.67085 0.0
O227 O 0.46637 0.99568 0.41863 0.0
C228 C 0.55133 0.02338 0.59683 0.0
C229 C 0.58545 0.04406 0.97685 0.0
C230 C 0.6345 0.03479 0.08379 0.0
C231 C 0.60703 0.0228 0.02849 0.0
C232 C 0.63751 0.06916 0.0953 0.0
C233 C 0.58879 0.07798 0.98948 0.0
C234 C 0.61441 0.09039 0.05058 0.0
C235 C 0.52286 0.95582 0.76996 0.0
C236 C 0.56448 0.02978 0.895 0.0
C237 C 0.45556 0.13921 0.97492 0.0
C238 C 0.43849 0.1142 0.0273 0.0
C239 C 0.45303 0.99321 0.72746 0.0
C240 C 0.41581 0.96997 0.36106 0.0
C241 C 0.39558 0.99681 0.33765 0.0
C242 C 0.36804 0.99257 0.27288 0.0
C243 C 0.36128 0.96158 0.22972 0.0
C244 C 0.40847 0.93895 0.31943 0.0
C245 C 0.38144 0.93488 0.25315 0.0
C246 C 0.48219 0.06108 0.56339 0.0
C247 C 0.44342 0.97393 0.43366 0.0
H248 H 0.60294 0.99674 0.01966 0.0
H249 H 0.65821 0.08012 0.13487 0.0
H250 H 0.57248 0.09475 0.94913 0.0
H251 H 0.61734 0.11665 0.05897 0.0
H252 H 0.40067 0.02066 0.37201 0.0
H253 H 0.33994 0.9579 0.18032 0.0
H254 H 0.42363 0.91793 0.33824 0.0
H255 H 0.37583 0.91089 0.22117 0.0
Tb256 Tb 0.5303 0.49164 0.5762 0.0
C257 C 0.39996 0.51564 0.82205 0.0
C258 C 0.36969 0.54846 0.69666 0.0
C259 C 0.34046 0.51495 0.82467 0.0
C260 C 0.39964 0.5373 0.73888 0.0
C261 C 0.37044 0.5047 0.86787 0.0
C262 C 0.34009 0.53674 0.73887 0.0
C263 C 0.4025 0.47616 0.99927 0.0
N264 N 0.42937 0.50621 0.86055 0.0
C265 C 0.43107 0.4877 0.95068 0.0
C266 C 0.37201 0.48438 0.95694 0.0
Tb267 Tb 0.47516 0.52567 0.77657 0.0
N268 N 0.42879 0.54793 0.70077 0.0
C269 C 0.42943 0.57178 0.62431 0.0
C270 C 0.37041 0.57144 0.61464 0.0
C271 C 0.40044 0.5834 0.57916 0.0
H272 H 0.45459 0.4811 0.98343 0.0
H273 H 0.40132 0.6016 0.51689 0.0
H274 H 0.31684 0.54485 0.70709 0.0
H275 H 0.40403 0.46086 0.06902 0.0
H276 H 0.45212 0.58154 0.59454 0.0
H277 H 0.60385 0.41482 0.83449 0.0
H278 H 0.34798 0.58054 0.57967 0.0
H279 H 0.55154 0.53478 0.36732 0.0
H280 H 0.55321 0.43465 0.755 0.0
H281 H 0.60218 0.55593 0.28489 0.0
H282 H 0.31747 0.50661 0.85802 0.0
H283 H 0.65721 0.43724 0.77705 0.0
H284 H 0.68856 0.47419 0.65387 0.0
H285 H 0.3499 0.47546 0.99469 0.0
H286 H 0.68822 0.51273 0.50368 0.0
N287 N 0.57662 0.46945 0.65306 0.0
C288 C 0.57591 0.44501 0.72755 0.0
C289 C 0.63485 0.44627 0.7414 0.0
C290 C 0.6357 0.4698 0.66107 0.0
C291 C 0.60481 0.43353 0.77378 0.0
C292 C 0.60584 0.48076 0.61769 0.0
H293 H 0.65609 0.54306 0.36425 0.0
N294 N 0.57637 0.51114 0.49393 0.0
C295 C 0.60359 0.54101 0.35552 0.0
C296 C 0.60569 0.50247 0.53483 0.0
C297 C 0.57495 0.52894 0.40231 0.0
C298 C 0.63393 0.53379 0.40073 0.0
C299 C 0.6353 0.51381 0.49061 0.0
O300 O 0.51987 0.47982 0.41771 0.0
O301 O 0.4819 0.50665 0.61966 0.0
O302 O 0.46139 0.47425 0.76301 0.0
O303 O 0.50623 0.45287 0.66914 0.0
O304 O 0.49693 0.51827 0.47151 0.0
O305 O 0.52969 0.44173 0.53212 0.0
O306 O 0.48615 0.53765 0.93456 0.0
O307 O 0.52357 0.51066 0.73311 0.0
O308 O 0.5432 0.54361 0.58638 0.0
O309 O 0.49888 0.56451 0.68434 0.0
O310 O 0.50826 0.49857 0.88084 0.0
O311 O 0.47535 0.5755 0.82006 0.0
C312 C 0.47176 0.51806 0.53317 0.0
C313 C 0.53292 0.42703 0.34965 0.0
C314 C 0.52234 0.37792 0.24435 0.0
C315 C 0.51531 0.39813 0.33159 0.0
C316 C 0.54766 0.3871 0.17488 0.0
C317 C 0.55831 0.43586 0.28052 0.0
C318 C 0.56566 0.41581 0.19353 0.0
C319 C 0.47866 0.44948 0.72392 0.0
C320 C 0.52137 0.44847 0.43518 0.0
C321 C 0.66518 0.50405 0.53569 0.0
C322 C 0.66537 0.4821 0.62107 0.0
C323 C 0.53344 0.49875 0.81923 0.0
C324 C 0.47208 0.59023 0.00187 0.0
C325 C 0.48863 0.61985 0.0182 0.0
C326 C 0.48139 0.63975 0.1058 0.0
C327 C 0.45679 0.62978 0.17678 0.0
C328 C 0.44735 0.58059 0.07237 0.0
C329 C 0.43968 0.60049 0.15939 0.0
C330 C 0.52582 0.56815 0.62686 0.0
C331 C 0.4841 0.56897 0.91676 0.0
H332 H 0.4951 0.39202 0.38384 0.0
H333 H 0.55365 0.37204 0.10685 0.0
H334 H 0.57193 0.45834 0.29266 0.0
H335 H 0.58511 0.42272 0.13967 0.0
H336 H 0.50832 0.62672 0.96483 0.0
H337 H 0.4508 0.64464 0.2453 0.0
H338 H 0.43454 0.55758 0.06137 0.0
H339 H 0.4208 0.59294 0.21443 0.0
Tb340 Tb 0.02251 0.53965 0.5762 0.0
C341 C 0.99282 0.40821 0.80594 0.0
C342 C 0.95937 0.38016 0.67687 0.0
C343 C 0.99019 0.34862 0.80594 0.0
C344 C 0.97209 0.40937 0.72048 0.0
C345 C 0.0016 0.37791 0.85154 0.0
C346 C 0.96911 0.34975 0.71858 0.0
C347 C 0.02932 0.40796 0.98968 0.0
N348 N 0.00273 0.43699 0.84859 0.0
C349 C 0.01971 0.43735 0.94174 0.0
C350 C 0.02057 0.37806 0.94368 0.0
Tb351 Tb 0.98549 0.48412 0.76821 0.0
N352 N 0.96266 0.43926 0.68485 0.0
C353 C 0.93886 0.44146 0.60882 0.0
C354 C 0.93633 0.38241 0.59555 0.0
C355 C 0.92573 0.41323 0.56241 0.0
H356 H 0.02661 0.4604 0.97762 0.0
H357 H 0.90739 0.41531 0.50102 0.0
H358 H 0.95974 0.32705 0.68585 0.0
H359 H 0.04346 0.40845 0.06201 0.0
H360 H 0.93003 0.46482 0.5813 0.0
H361 H 0.10299 0.60618 0.84298 0.0
H362 H 0.92594 0.36059 0.55998 0.0
H363 H 0.97836 0.56537 0.37531 0.0
H364 H 0.07994 0.5575 0.76016 0.0
H365 H 0.95929 0.61798 0.30128 0.0
H366 H 0.99679 0.32506 0.83933 0.0
H367 H 0.08467 0.66141 0.78846 0.0
H368 H 0.04996 0.69605 0.66832 0.0
H369 H 0.02783 0.35533 0.98132 0.0
H370 H 0.01078 0.69942 0.52066 0.0
N371 N 0.04741 0.58385 0.65789 0.0
C372 C 0.0713 0.581 0.73353 0.0
C373 C 0.07423 0.63991 0.751 0.0
C374 C 0.05097 0.64288 0.67062 0.0
C375 C 0.08465 0.60881 0.78181 0.0
C376 C 0.03813 0.61406 0.62476 0.0
H377 H 0.9769 0.67043 0.38258 0.0
N378 N 0.00517 0.5876 0.50044 0.0
C379 C 0.97533 0.61788 0.36923 0.0
C380 C 0.01613 0.61599 0.543 0.0
C381 C 0.98614 0.5881 0.41144 0.0
C382 C 0.98519 0.64737 0.41566 0.0
C383 C 0.00627 0.6467 0.50282 0.0
O384 O 0.03336 0.53138 0.4153 0.0
O385 O 0.00527 0.49158 0.6128 0.0
O386 O 0.03547 0.46688 0.75089 0.0
O387 O 0.05949 0.51285 0.6698 0.0
O388 O 0.99437 0.50835 0.46801 0.0
O389 O 0.0721 0.53609 0.53086 0.0
O390 O 0.97302 0.49396 0.92681 0.0
O391 O 0.00263 0.5325 0.73175 0.0
O392 O 0.97171 0.5557 0.59156 0.0
O393 O 0.9483 0.51032 0.67735 0.0
O394 O 0.01327 0.51531 0.87758 0.0
O395 O 0.93563 0.48479 0.80953 0.0
C396 C 0.99428 0.48213 0.52486 0.0
C397 C 0.0875 0.53856 0.34819 0.0
C398 C 0.13663 0.52356 0.24797 0.0
C399 C 0.11411 0.51757 0.33017 0.0
C400 C 0.13133 0.55084 0.18179 0.0
C401 C 0.08253 0.56557 0.28175 0.0
C402 C 0.10441 0.57157 0.19858 0.0
C403 C 0.06118 0.48422 0.71996 0.0
C404 C 0.06462 0.5296 0.43293 0.0
C405 C 0.01822 0.67556 0.54973 0.0
C406 C 0.04054 0.67364 0.63368 0.0
C407 C 0.01425 0.54128 0.81952 0.0
C408 C 0.92039 0.47889 0.9898 0.0
C409 C 0.89199 0.49654 0.01399 0.0
C410 C 0.87008 0.48568 0.09233 0.0
C411 C 0.87786 0.45701 0.1491 0.0
C412 C 0.92782 0.45031 0.04628 0.0
C413 C 0.90662 0.43957 0.12624 0.0
C414 C 0.94637 0.53903 0.62892 0.0
C415 C 0.94182 0.49237 0.90766 0.0
H416 H 0.11685 0.49608 0.3799 0.0
H417 H 0.14823 0.55656 0.11831 0.0
H418 H 0.06176 0.58171 0.29361 0.0
H419 H 0.10059 0.59244 0.14713 0.0
H420 H 0.88723 0.51919 0.97178 0.0
H421 H 0.86154 0.44772 0.20965 0.0
H422 H 0.94988 0.43653 0.0291 0.0
H423 H 0.91235 0.41752 0.17018 0.0
C424 C 0.11348 0.05306 0.35482 0.0
C425 C 0.13364 0.07546 0.40847 0.0
H426 H 0.07384 0.01897 0.36584 0.0
C427 C 0.13089 0.07827 0.51907 0.0
H428 H 0.11548 0.04979 0.27008 0.0
C429 C 0.10776 0.05981 0.57446 0.0
C430 C 0.08637 0.03882 0.51993 0.0
H431 H 0.14636 0.09502 0.5629 0.0
H432 H 0.10571 0.06312 0.65936 0.0
C433 C 0.08979 0.03521 0.40984 0.0
C434 C 0.43804 0.10876 0.34943 0.0
C435 C 0.43043 0.13796 0.40298 0.0
H436 H 0.4605 0.0615 0.35761 0.0
C437 C 0.4417 0.14253 0.5068 0.0
H438 H 0.42953 0.10461 0.26948 0.0
C439 C 0.45961 0.11804 0.5573 0.0
C440 C 0.4665 0.08833 0.50526 0.0
H441 H 0.43662 0.16506 0.54934 0.0
H442 H 0.46732 0.12223 0.63809 0.0
C443 C 0.45584 0.0841 0.40016 0.0
C444 C 0.40902 0.49416 0.32946 0.0
C445 C 0.38988 0.47209 0.38848 0.0
H446 H 0.44984 0.52723 0.33101 0.0
C447 C 0.39417 0.47028 0.49823 0.0
H448 H 0.40581 0.49648 0.2447 0.0
C449 C 0.41897 0.48782 0.54688 0.0
C450 C 0.44006 0.50782 0.48777 0.0
H451 H 0.3793 0.45414 0.54653 0.0
H452 H 0.4225 0.48392 0.62989 0.0
C453 C 0.43399 0.51195 0.37898 0.0
C454 C 0.00877 0.4085 0.34607 0.0
C455 C 0.04265 0.4038 0.3608 0.0
H456 H 0.96636 0.43729 0.38779 0.0
C457 C 0.05953 0.42436 0.43034 0.0
H458 H 0.99523 0.39318 0.29143 0.0
C459 C 0.04314 0.44886 0.48451 0.0
C460 C 0.00925 0.45316 0.47409 0.0
H461 H 0.08576 0.42223 0.44092 0.0
H462 H 0.0577 0.46563 0.5297 0.0
C463 C 0.99217 0.4333 0.40208 0.0
C464 C 0.87389 0.93846 0.83162 0.0
C465 C 0.87116 0.94469 0.94087 0.0
H466 H 0.90028 0.94809 0.68804 0.0
C467 C 0.89225 0.96763 0.98783 0.0
H468 H 0.85771 0.92117 0.79296 0.0
C469 C 0.91669 0.98268 0.92822 0.0
C470 C 0.92025 0.97554 0.82001 0.0
H471 H 0.89039 0.97351 0.07123 0.0
H472 H 0.93312 -0.00045 0.96749 0.0
C473 C 0.89808 0.954 0.77142 0.0
C474 C 0.57598 0.8831 0.83791 0.0
C475 C 0.57384 0.88251 0.94889 0.0
H476 H 0.5611 0.90624 0.69439 0.0
C477 C 0.55392 0.90563 0.00071 0.0
H478 H 0.59095 0.86547 0.79561 0.0
C479 C 0.53689 0.92923 0.94258 0.0
C480 C 0.5391 0.92979 0.83152 0.0
H481 H 0.55156 0.90562 0.0861 0.0
H482 H 0.52205 0.94701 0.98472 0.0
C483 C 0.55864 0.90634 0.7798 0.0
C484 C 0.61103 0.54582 0.86181 0.0
C485 C 0.61604 0.54111 0.97043 0.0
H486 H 0.5816 0.53566 0.72858 0.0
C487 C 0.59725 0.51759 0.02454 0.0
H488 H 0.6256 0.56321 0.81722 0.0
C489 C 0.57199 0.50113 0.97208 0.0
C490 C 0.56527 0.50804 0.86523 0.0
H491 H 0.60097 0.51309 0.10819 0.0
H492 H 0.55643 0.48461 0.01668 0.0
C493 C 0.58588 0.52959 0.81016 0.0
C494 C 0.99377 0.60312 0.03192 0.0
C495 C 0.97265 0.62423 0.97649 0.0
H496 H 0.02452 0.5605 0.024 0.0
C497 C 0.97025 0.62117 0.86627 0.0
H498 H 0.9964 0.60511 0.11703 0.0
C499 C 0.98638 0.59592 0.81359 0.0
C500 C 0.00541 0.57306 0.86918 0.0
H501 H 0.95469 0.63741 0.82082 0.0
H502 H 0.98214 0.59348 0.73019 0.0
C503 C 0.01005 0.57773 0.97856 0.0
C504 C 0.05937 0.19824 0.1833 0.0
C505 C 0.05106 0.2285 0.22942 0.0
H506 H 0.04568 0.14783 0.16028 0.0
C507 C 0.02217 0.23106 0.2892 0.0
H508 H 0.08171 0.19565 0.13773 0.0
C509 C 0.00138 0.20408 0.30006 0.0
C510 C 0.00951 0.17395 0.25319 0.0
H511 H 0.01525 0.25419 0.32527 0.0
H512 H 0.97908 0.20662 0.34594 0.0
C513 C 0.03885 0.17103 0.19594 0.0
C514 C 0.29874 0.05169 0.32134 0.0
C515 C 0.29528 0.06629 0.22126 0.0
H516 H 0.32498 0.01675 0.41578 0.0
C517 C 0.31814 0.05895 0.14169 0.0
H518 H 0.2816 0.05716 0.38452 0.0
C519 C 0.34235 0.03527 0.15857 0.0
C520 C 0.34476 0.01965 0.25703 0.0
H521 H 0.31707 0.07143 0.06647 0.0
H522 H 0.35893 0.0289 0.09472 0.0
C523 C 0.32339 0.02859 0.33917 0.0
C524 C 0.47198 0.30173 0.29785 0.0
C525 C 0.45858 0.29491 0.19785 0.0
H526 H 0.5032 0.33257 0.39015 0.0
C527 C 0.46778 0.31458 0.11167 0.0
H528 H 0.46551 0.28699 0.36608 0.0
C529 C 0.48954 0.34083 0.12524 0.0
C530 C 0.50227 0.34805 0.22596 0.0
H531 H 0.45703 0.31073 0.03513 0.0
H532 H 0.49524 0.35628 0.05796 0.0
C533 C 0.4936 0.32787 0.31168 0.0
C534 C 0.20666 0.47449 0.12327 0.0
C535 C 0.22176 0.46089 0.21312 0.0
H536 H 0.16765 0.50429 0.06283 0.0
C537 C 0.20842 0.46791 0.31333 0.0
H538 H 0.21675 0.47068 0.0452 0.0
C539 C 0.18109 0.48814 0.32393 0.0
C540 C 0.16578 0.50175 0.23448 0.0
H541 H 0.2195 0.45823 0.38466 0.0
H542 H 0.17249 0.49364 0.40313 0.0
C543 C 0.17883 0.49449 0.13374 0.0
C544 C 0.95481 0.81577 0.14174 0.0
C545 C 0.97106 0.7869 0.17078 0.0
H546 H 0.95918 0.86662 0.10316 0.0
C547 C 0.00518 0.78732 0.18317 0.0
H548 H 0.92846 0.81597 0.13227 0.0
C549 C 0.02296 0.81601 0.16426 0.0
C550 C 0.00689 0.84497 0.13339 0.0
H551 H 0.01823 0.76512 0.20415 0.0
H552 H 0.04938 0.8151 0.17008 0.0
C553 C 0.97249 0.84465 0.12466 0.0
C554 C 0.71158 0.00109 0.21723 0.0
C555 C 0.71471 0.97004 0.17012 0.0
H556 H 0.68307 0.04443 0.23572 0.0
C557 C 0.69083 0.96005 0.0974 0.0
H558 H 0.73054 0.01076 0.26767 0.0
C559 C 0.66494 0.98068 0.07075 0.0
C560 C 0.66116 0.01175 0.11901 0.0
H561 H 0.69273 0.93654 0.05774 0.0
H562 H 0.64888 0.97222 0.00873 0.0
C563 C 0.68466 0.02118 0.1949 0.0
C564 C 0.53625 0.70247 0.23786 0.0
C565 C 0.54282 0.72411 0.15434 0.0
H566 H 0.51143 0.65889 0.28879 0.0
C567 C 0.52833 0.71834 0.05534 0.0
H568 H 0.54843 0.70545 0.3126 0.0
C569 C 0.50755 0.69152 0.04055 0.0
C570 C 0.50094 0.66984 0.12444 0.0
H571 H 0.53313 0.73457 0.98921 0.0
H572 H 0.49686 0.68754 0.96315 0.0
C573 C 0.51531 0.67571 0.22359 0.0
C574 C 0.79471 0.53785 0.04309 0.0
C575 C 0.78134 0.54157 0.1451 0.0
H576 H 0.83167 0.5165 0.94602 0.0
C577 C 0.79692 0.52567 0.23009 0.0
H578 H 0.78324 0.54908 0.97486 0.0
C579 C 0.8257 0.50754 0.21381 0.0
C580 C 0.83912 0.50422 0.11163 0.0
H581 H 0.78691 0.52661 0.30885 0.0
H582 H 0.83751 0.49637 0.28147 0.0
C583 C 0.82286 0.51926 0.02648 0.0
C584 C 0.01023 0.13119 0.89401 0.0
C585 C 0.03892 0.1418 0.84245 0.0
H586 H 0.97225 0.09481 0.90108 0.0
C587 C 0.05182 0.12309 0.75929 0.0
H588 H -0.00029 0.14524 0.95851 0.0
C589 C 0.03628 0.0944 0.72797 0.0
C590 C 0.00814 0.08333 0.78064 0.0
H591 H 0.07337 0.13105 0.71627 0.0
H592 H 0.04546 0.0818 0.65912 0.0
C593 C 0.99466 0.10233 0.86209 0.0
C594 C 0.38383 0.05256 0.78005 0.0
C595 C 0.36078 0.0322 0.82972 0.0
H596 H 0.43085 0.05641 0.7094 0.0
C597 C 0.36909 -0.00065 0.85056 0.0
H598 H 0.37827 0.078 0.76304 0.0
C599 C 0.39964 0.98703 0.82028 0.0
C600 C 0.42253 0.00739 0.77 0.0
H601 H 0.35198 0.98313 0.88992 0.0
H602 H 0.40533 0.9615 0.83539 0.0
C603 C 0.4143 0.04025 0.75028 0.0
C604 C 0.47544 0.35679 0.72781 0.0
C605 C 0.44696 0.35105 0.78707 0.0
H606 H 0.50783 0.3922 0.66166 0.0
C607 C 0.42759 0.37782 0.81881 0.0
H608 H 0.49069 0.3366 0.70154 0.0
C609 C 0.43747 0.40984 0.79651 0.0
C610 C 0.46692 0.41569 0.74222 0.0
H611 H 0.40549 0.37418 0.86483 0.0
H612 H 0.4223 0.42992 0.82368 0.0
C613 C 0.4853 0.38875 0.70547 0.0
C614 C 0.13133 0.43626 0.83452 0.0
C615 C 0.15731 0.44562 0.7679 0.0
H616 H 0.08092 0.4417 0.87259 0.0
C617 C 0.15089 0.46561 0.68005 0.0
H618 H 0.13541 0.42078 0.9029 0.0
C619 C 0.1194 0.47772 0.66333 0.0
C620 C 0.09387 0.46986 0.73378 0.0
H621 H 0.17034 0.4729 0.62664 0.0
H622 H 0.11522 0.49354 0.59599 0.0
C623 C 0.09996 0.44829 0.81748 0.0
C624 C 0.9637 0.88519 0.5346 0.0
C625 C 0.98569 0.86488 0.47943 0.0
H626 H 0.95674 0.93079 0.61523 0.0
C627 C 0.01652 0.87728 0.45067 0.0
H628 H 0.93978 0.87626 0.55789 0.0
C629 C 0.02605 0.90856 0.4828 0.0
C630 C 0.0048 0.92813 0.54296 0.0
H631 H 0.0337 0.86239 0.4063 0.0
H632 H 0.05053 0.91702 0.46424 0.0
C633 C 0.97325 0.91659 0.56646 0.0
C634 C 0.63544 0.02129 0.47515 0.0
C635 C 0.64689 0.99052 0.50897 0.0
H636 H 0.59537 0.05536 0.47441 0.0
C637 C 0.62558 0.96945 0.56315 0.0
H638 H 0.65127 0.03782 0.43171 0.0
C639 C 0.59378 0.97942 0.58667 0.0
C640 C 0.58243 0.0104 0.55503 0.0
H641 H 0.6338 0.94568 0.59072 0.0
H642 H 0.57889 0.9634 0.6342 0.0
C643 C 0.60346 0.03117 0.49837 0.0
C644 C 0.56074 0.64301 0.49155 0.0
C645 C 0.54983 0.66814 0.55893 0.0
H646 H 0.56117 0.59164 0.45904 0.0
C647 C 0.53277 0.66027 0.65153 0.0
H648 H 0.57337 0.64877 0.41835 0.0
C649 C 0.52626 0.62752 0.67565 0.0
C650 C 0.53606 0.60224 0.60623 0.0
H651 H 0.52425 0.6794 0.70449 0.0
H652 H 0.51307 0.62213 0.7479 0.0
C653 C 0.5538 0.61031 0.51481 0.0
C654 C 0.85764 0.55427 0.68515 0.0
C655 C 0.8468 0.56564 0.58666 0.0
H656 H 0.89836 0.53758 0.77583 0.0
C657 C 0.86994 0.57318 0.50741 0.0
H658 H 0.84049 0.54866 0.74811 0.0
C659 C 0.90308 0.56668 0.52324 0.0
C660 C 0.91336 0.5525 0.61822 0.0
H661 H 0.8623 0.58237 0.43089 0.0
H662 H 0.92011 0.57059 0.45881 0.0
C663 C 0.89071 0.54771 0.70066 0.0
loop_
_geom_bond_atom_site_label_1
_geom_bond_atom_site_label_2
_geom_bond_distance
_geom_bond_site_symmetry_2
_ccdc_geom_bond_type
O0 Cd1 2.300 . S
O0 C7 1.275 . S
Cd1 O0 2.300 . S
Cd1 O9 2.381 . S
Cd1 O10 2.378 . S
O2 Cd3 2.385 . S
O2 C7 1.255 . S
Cd3 O2 2.385 . S
Cd3 O4 2.317 . S
O4 Cd3 2.317 . S
O4 C5 1.232 . S
C5 O4 1.232 . S
C5 O6 1.218 . S
O6 C5 1.218 . S
C7 O0 1.275 . S
C7 O2 1.255 . S
C8 O9 1.258 . S
C8 O10 1.256 . S
O9 Cd1 2.381 . S
O9 C8 1.258 . S
O10 Cd1 2.378 . S
O10 C8 1.256 . S
O11 Cd12 2.300 . S
O11 C18 1.275 . S
Cd12 O11 2.300 . S
Cd12 O20 2.381 . S
Cd12 O21 2.378 . S
O13 Cd14 2.385 1_655 S
O13 C18 1.255 . S
Cd14 O13 2.385 1_455 S
Cd14 O15 2.317 1_455 S
O15 Cd14 2.317 1_655 S
O15 C16 1.232 . S
C16 O15 1.232 . S
C16 O17 1.218 . S
O17 C16 1.218 . S
C18 O11 1.275 . S
C18 O13 1.255 . S
C19 O20 1.258 . S
C19 O21 1.256 . S
O20 Cd12 2.381 . S
O20 C19 1.258 . S
O21 Cd12 2.378 . S
O21 C19 1.256 . S
O22 Cd23 2.300 . S
O22 C29 1.275 . S
Cd23 O22 2.300 . S
Cd23 O31 2.381 . S
Cd23 O32 2.378 . S
O24 Cd25 2.385 1_565 S
O24 C29 1.255 . S
Cd25 O24 2.385 1_545 S
Cd25 O26 2.317 1_545 S
O26 Cd25 2.317 1_565 S
O26 C27 1.232 . S
C27 O26 1.232 . S
C27 O28 1.218 . S
O28 C27 1.218 . S
C29 O22 1.275 . S
C29 O24 1.255 . S
C30 O31 1.258 . S
C30 O32 1.256 . S
O31 Cd23 2.381 . S
O31 C30 1.258 . S
O32 Cd23 2.378 . S
O32 C30 1.256 . S
O33 Cd34 2.300 . S
O33 C40 1.275 . S
Cd34 O33 2.300 . S
Cd34 O42 2.381 . S
Cd34 O43 2.378 . S
O35 Cd36 2.385 . S
O35 C40 1.255 . S
Cd36 O35 2.385 . S
Cd36 O37 2.317 . S
O37 Cd36 2.317 . S
O37 C38 1.232 . S
C38 O37 1.232 . S
C38 O39 1.218 . S
O39 C38 1.218 . S
C40 O33 1.275 . S
C40 O35 1.255 . S
C41 O42 1.258 . S
C41 O43 1.256 . S
O42 Cd34 2.381 . S
O42 C41 1.258 . S
O43 Cd34 2.378 . S
O43 C41 1.256 . S
O44 Cd45 2.300 . S
O44 C51 1.275 . S
Cd45 O44 2.300 . S
Cd45 O53 2.381 . S
Cd45 O54 2.378 . S
O46 Cd47 2.385 1_554 S
O46 C51 1.255 . S
Cd47 O46 2.385 1_556 S
Cd47 O48 2.317 . S
O48 Cd47 2.317 . S
O48 C49 1.232 . S
C49 O48 1.232 . S
C49 O50 1.218 . S
O50 C49 1.218 . S
C51 O44 1.275 . S
C51 O46 1.255 . S
C52 O53 1.258 . S
C52 O54 1.256 . S
O53 Cd45 2.381 . S
O53 C52 1.258 . S
O54 Cd45 2.378 . S
O54 C52 1.256 . S
O55 Cd56 2.300 . S
O55 C62 1.275 . S
Cd56 O55 2.300 . S
Cd56 O64 2.381 . S
Cd56 O65 2.378 . S
O57 Cd58 2.385 1_554 S
O57 C62 1.255 . S
Cd58 O57 2.385 1_556 S
Cd58 O59 2.317 . S
O59 Cd58 2.317 . S
O59 C60 1.232 . S
C60 O59 1.232 . S
C60 O61 1.218 . S
O61 C60 1.218 . S
C62 O55 1.275 . S
C62 O57 1.255 . S
C63 O64 1.258 . S
C63 O65 1.256 . S
O64 Cd56 2.381 . S
O64 C63 1.258 . S
O65 Cd56 2.378 . S
O65 C63 1.256 . S
O66 Cd67 2.300 . S
O66 C73 1.275 . S
Cd67 O66 2.300 . S
Cd67 O75 2.381 . S
Cd67 O76 2.378 . S
O68 Cd69 2.385 1_554 S
O68 C73 1.255 . S
Cd69 O68 2.385 1_556 S
Cd69 O70 2.317 . S
O70 Cd69 2.317 . S
O70 C71 1.232 . S
C71 O70 1.232 . S
C71 O72 1.218 . S
O72 C71 1.218 . S
C73 O66 1.275 . S
C73 O68 1.255 . S
C74 O75 1.258 . S
C74 O76 1.256 . S
O75 Cd67 2.381 . S
O75 C74 1.258 . S
O76 Cd67 2.378 . S
O76 C74 1.256 . S
O77 Cd78 2.300 . S
O77 C84 1.275 . S
Cd78 O77 2.300 . S
Cd78 O86 2.381 . S
Cd78 O87 2.378 . S
O79 Cd80 2.385 1_554 S
O79 C84 1.255 . S
Cd80 O79 2.385 1_556 S
Cd80 O81 2.317 . S
O81 Cd80 2.317 . S
O81 C82 1.232 . S
C82 O81 1.232 . S
C82 O83 1.218 . S
O83 C82 1.218 . S
C84 O77 1.275 . S
C84 O79 1.255 . S
C85 O86 1.258 . S
C85 O87 1.256 . S
O86 Cd78 2.381 . S
O86 C85 1.258 . S
O87 Cd78 2.378 . S
O87 C85 1.256 . S
Tb88 N119 2.660 1_565 S
Tb88 N126 2.594 1_565 S
Tb88 O132 2.546 . S
Tb88 O133 2.610 1_455 S
Tb88 O135 2.320 1_455 S
Tb88 O136 2.552 . S
Tb88 O137 2.413 . S
Tb88 O139 2.362 1_565 S
Tb88 O140 2.421 . S
Tb88 C152 2.833 . S
C89 C92 1.432 1_545 S
C89 C93 1.414 1_545 S
C89 N96 1.359 . S
C90 C92 1.417 . S
C90 C94 1.432 . S
C90 C102 1.410 . S
C91 C93 1.444 . S
C91 C94 1.317 . S
C91 H114 0.929 . S
C92 C89 1.432 1_565 S
C92 C90 1.417 . S
C92 N100 1.360 . S
C93 C89 1.414 1_565 S
C93 C91 1.444 . S
C93 C98 1.385 1_565 S
C94 C90 1.432 . S
C94 C91 1.317 . S
C94 H106 0.930 . S
C95 C97 1.392 . S
C95 C98 1.370 . S
C95 H107 0.931 . S
N96 C89 1.359 . S
N96 C97 1.327 . S
N96 Tb99 2.600 . S
C97 C95 1.392 . S
C97 N96 1.327 . S
C97 H104 0.930 . S
C98 C93 1.385 1_545 S
C98 C95 1.370 . S
C98 H117 0.930 . S
Tb99 N96 2.600 . S
Tb99 N100 2.660 1_545 S
Tb99 O133 2.362 1_545 S
Tb99 O134 2.421 . S
Tb99 O138 2.546 . S
Tb99 O139 2.610 1_655 S
Tb99 O141 2.320 1_655 S
Tb99 O142 2.552 1_655 S
Tb99 O143 2.413 . S
Tb99 C163 2.833 . S
N100 C92 1.360 . S
N100 Tb99 2.660 1_565 S
N100 C101 1.305 1_655 S
C101 N100 1.305 1_455 S
C101 C103 1.407 . S
C101 H108 0.930 . S
C102 C90 1.410 . S
C102 C103 1.345 1_655 S
C102 H110 0.930 . S
C103 C101 1.407 . S
C103 C102 1.345 1_455 S
C103 H105 0.930 . S
H104 C97 0.930 . S
H105 C103 0.930 . S
H106 C94 0.930 . S
H107 C95 0.931 . S
H108 C101 0.930 . S
H109 C123 0.930 1_655 S
H110 C102 0.930 . S
H111 C129 0.930 . S
H112 C120 0.930 1_655 S
H113 C127 0.931 . S
H114 C91 0.929 . S
H115 C121 0.930 . S
H116 C154 0.930 . S
H117 C98 0.930 . S
H118 C153 0.929 . S
N119 Tb88 2.660 1_545 S
N119 C120 1.305 . S
N119 C124 1.360 . S
C120 H112 0.930 1_455 S
C120 N119 1.305 . S
C120 C123 1.407 1_556 S
C121 H115 0.930 . S
C121 C122 1.410 . S
C121 C123 1.345 . S
C122 C121 1.410 . S
C122 C124 1.417 1_554 S
C122 C154 1.432 . S
C123 H109 0.930 1_455 S
C123 C120 1.407 1_554 S
C123 C121 1.345 . S
C124 N119 1.360 . S
C124 C122 1.417 1_556 S
C124 C128 1.432 . S
H125 C130 0.930 . S
N126 Tb88 2.594 1_545 S
N126 C128 1.372 . S
N126 C129 1.318 1_545 S
C127 H113 0.931 . S
C127 C129 1.392 . S
C127 C130 1.370 1_565 S
C128 C124 1.432 . S
C128 N126 1.372 . S
C128 C131 1.414 . S
C129 H111 0.930 . S
C129 N126 1.318 1_565 S
C129 C127 1.392 . S
C130 H125 0.930 . S
C130 C127 1.370 1_545 S
C130 C131 1.385 . S
C131 C128 1.414 . S
C131 C130 1.385 . S
C131 C153 1.444 1_556 S
O132 Tb88 2.546 . S
O132 C152 1.251 . S
O133 Tb88 2.610 1_655 S
O133 Tb99 2.362 1_565 S
O133 C144 1.283 . S
O134 Tb99 2.421 . S
O134 C151 1.262 . S
O135 Tb88 2.320 1_655 S
O135 C151 1.260 1_565 S
O136 Tb88 2.552 . S
O136 C144 1.243 1_455 S
O137 Tb88 2.413 . S
O137 C152 1.256 . S
O138 Tb99 2.546 . S
O138 C163 1.251 . S
O139 Tb88 2.362 1_545 S
O139 Tb99 2.610 1_455 S
O139 C155 1.283 . S
O140 Tb88 2.421 . S
O140 C162 1.262 1_565 S
O141 Tb99 2.320 1_455 S
O141 C162 1.260 . S
O142 Tb99 2.552 1_455 S
O142 C155 1.243 . S
O143 Tb99 2.413 . S
O143 C163 1.256 . S
C144 O133 1.283 . S
C144 O136 1.243 1_655 S
C145 C147 1.382 1_556 S
C145 C149 1.393 . S
C145 C152 1.500 . S
C146 C147 1.400 . S
C146 C148 1.384 . S
C147 C145 1.382 1_554 S
C147 C146 1.400 . S
C147 H164 0.931 . S
C148 C146 1.384 . S
C148 C150 1.392 . S
C148 H165 0.931 . S
C149 C145 1.393 . S
C149 C150 1.401 1_556 S
C149 H166 0.930 . S
C150 C148 1.392 . S
C150 C149 1.401 1_554 S
C150 H167 0.930 . S
C151 O134 1.262 . S
C151 O135 1.260 1_545 S
C152 Tb88 2.833 . S
C152 O132 1.251 . S
C152 O137 1.256 . S
C152 C145 1.500 . S
C153 H118 0.929 . S
C153 C131 1.444 1_554 S
C153 C154 1.317 . S
C154 H116 0.930 . S
C154 C122 1.432 . S
C154 C153 1.317 . S
C155 O139 1.283 . S
C155 O142 1.243 . S
C156 C157 1.382 . S
C156 C160 1.393 . S
C156 C163 1.500 . S
C157 C156 1.382 . S
C157 C158 1.400 . S
C157 H168 0.930 1_655 S
C158 C157 1.400 . S
C158 C159 1.384 . S
C159 C158 1.384 . S
C159 C161 1.392 . S
C159 H169 0.931 . S
C160 C156 1.393 . S
C160 C161 1.401 . S
C160 H170 0.930 . S
C161 C159 1.392 . S
C161 C160 1.401 . S
C161 H171 0.930 . S
C162 O140 1.262 1_545 S
C162 O141 1.260 . S
C163 Tb99 2.833 . S
C163 O138 1.251 . S
C163 O143 1.256 . S
C163 C156 1.500 . S
H164 C147 0.931 . S
H165 C148 0.931 . S
H166 C149 0.930 . S
H167 C150 0.930 . S
H168 C157 0.930 1_455 S
H169 C159 0.931 . S
H170 C160 0.930 . S
H171 C161 0.930 . S
Tb172 N203 2.660 . S
Tb172 N210 2.600 . S
Tb172 O216 2.546 . S
Tb172 O217 2.610 1_545 S
Tb172 O219 2.320 1_545 S
Tb172 O220 2.552 . S
Tb172 O221 2.413 . S
Tb172 O223 2.362 . S
Tb172 O224 2.421 . S
Tb172 C236 2.833 . S
C173 C176 1.432 . S
C173 C177 1.414 . S
C173 N180 1.359 . S
C174 C176 1.417 . S
C174 C178 1.432 . S
C174 C186 1.410 . S
C175 C177 1.444 . S
C175 C178 1.317 . S
C175 H198 0.929 . S
C176 C173 1.432 . S
C176 C174 1.417 . S
C176 N184 1.360 . S
C177 C173 1.414 . S
C177 C175 1.444 . S
C177 C182 1.385 . S
C178 C174 1.432 . S
C178 C175 1.317 . S
C178 H190 0.930 . S
C179 C181 1.392 . S
C179 C182 1.370 . S
C179 H191 0.931 . S
N180 C173 1.359 . S
N180 C181 1.327 . S
N180 Tb183 2.600 . S
C181 C179 1.392 . S
C181 N180 1.327 . S
C181 H188 0.930 . S
C182 C177 1.385 . S
C182 C179 1.370 . S
C182 H201 0.930 . S
Tb183 N180 2.600 . S
Tb183 N184 2.660 . S
Tb183 O217 2.362 . S
Tb183 O218 2.421 . S
Tb183 O222 2.546 . S
Tb183 O223 2.610 1_565 S
Tb183 O225 2.320 1_565 S
Tb183 O226 2.552 1_565 S
Tb183 O227 2.413 . S
Tb183 C247 2.833 . S
N184 C176 1.360 . S
N184 Tb183 2.660 . S
N184 C185 1.305 1_565 S
C185 N184 1.305 1_545 S
C185 C187 1.407 . S
C185 H192 0.930 . S
C186 C174 1.410 . S
C186 C187 1.345 1_565 S
C186 H194 0.930 . S
C187 C185 1.407 . S
C187 C186 1.345 1_545 S
C187 H189 0.930 . S
H188 C181 0.930 . S
H189 C187 0.930 . S
H190 C178 0.930 . S
H191 C179 0.931 . S
H192 C185 0.930 . S
H193 C207 0.930 1_565 S
H194 C186 0.930 . S
H195 C213 0.930 . S
H196 C204 0.930 1_565 S
H197 C211 0.931 . S
H198 C175 0.929 . S
H199 C205 0.930 . S
H200 C238 0.930 . S
H201 C182 0.930 . S
H202 C237 0.929 . S
N203 Tb172 2.660 . S
N203 C204 1.305 . S
N203 C208 1.360 . S
C204 H196 0.930 1_545 S
C204 N203 1.305 . S
C204 C207 1.407 1_556 S
C205 H199 0.930 . S
C205 C206 1.410 . S
C205 C207 1.345 . S
C206 C205 1.410 . S
C206 C208 1.417 1_554 S
C206 C238 1.432 . S
C207 H193 0.930 1_545 S
C207 C204 1.407 1_554 S
C207 C205 1.345 . S
C208 N203 1.360 . S
C208 C206 1.417 1_556 S
C208 C212 1.432 . S
H209 C214 0.930 . S
N210 Tb172 2.600 . S
N210 C212 1.359 . S
N210 C213 1.327 . S
C211 H197 0.931 . S
C211 C213 1.392 . S
C211 C214 1.370 . S
C212 C208 1.432 . S
C212 N210 1.359 . S
C212 C215 1.414 . S
C213 H195 0.930 . S
C213 N210 1.327 . S
C213 C211 1.392 . S
C214 H209 0.930 . S
C214 C211 1.370 . S
C214 C215 1.385 . S
C215 C212 1.414 . S
C215 C214 1.385 . S
C215 C237 1.444 1_556 S
O216 Tb172 2.546 . S
O216 C236 1.251 . S
O217 Tb172 2.610 1_565 S
O217 Tb183 2.362 . S
O217 C228 1.283 . S
O218 Tb183 2.421 . S
O218 C235 1.262 . S
O219 Tb172 2.320 1_565 S
O219 C235 1.260 . S
O220 Tb172 2.552 . S
O220 C228 1.243 1_545 S
O221 Tb172 2.413 . S
O221 C236 1.256 . S
O222 Tb183 2.546 . S
O222 C247 1.251 . S
O223 Tb172 2.362 . S
O223 Tb183 2.610 1_545 S
O223 C239 1.283 . S
O224 Tb172 2.421 . S
O224 C246 1.262 . S
O225 Tb183 2.320 1_545 S
O225 C246 1.260 . S
O226 Tb183 2.552 1_545 S
O226 C239 1.243 . S
O227 Tb183 2.413 . S
O227 C247 1.256 . S
C228 O217 1.283 . S
C228 O220 1.243 1_565 S
C229 C231 1.382 1_556 S
C229 C233 1.393 . S
C229 C236 1.500 . S
C230 C231 1.400 . S
C230 C232 1.384 . S
C231 C229 1.382 1_554 S
C231 C230 1.400 . S
C231 H248 0.930 . S
C232 C230 1.384 . S
C232 C234 1.392 . S
C232 H249 0.931 . S
C233 C229 1.393 . S
C233 C234 1.401 1_556 S
C233 H250 0.930 . S
C234 C232 1.392 . S
C234 C233 1.401 1_554 S
C234 H251 0.930 . S
C235 O218 1.262 . S
C235 O219 1.260 . S
C236 Tb172 2.833 . S
C236 O216 1.251 . S
C236 O221 1.256 . S
C236 C229 1.500 . S
C237 H202 0.929 . S
C237 C215 1.444 1_554 S
C237 C238 1.317 . S
C238 H200 0.930 . S
C238 C206 1.432 . S
C238 C237 1.317 . S
C239 O223 1.283 . S
C239 O226 1.243 . S
C240 C241 1.382 . S
C240 C244 1.393 . S
C240 C247 1.500 . S
C241 C240 1.382 . S
C241 C242 1.400 . S
C241 H252 0.930 1_565 S
C242 C241 1.400 . S
C242 C243 1.384 . S
C243 C242 1.384 . S
C243 C245 1.392 . S
C243 H253 0.931 . S
C244 C240 1.393 . S
C244 C245 1.401 . S
C244 H254 0.930 . S
C245 C243 1.392 . S
C245 C244 1.401 . S
C245 H255 0.930 . S
C246 O224 1.262 . S
C246 O225 1.260 . S
C247 Tb183 2.833 . S
C247 O222 1.251 . S
C247 O227 1.256 . S
C247 C240 1.500 . S
H248 C231 0.930 . S
H249 C232 0.931 . S
H250 C233 0.930 . S
H251 C234 0.930 . S
H252 C241 0.930 1_545 S
H253 C243 0.931 . S
H254 C244 0.930 . S
H255 C245 0.930 . S
Tb256 N287 2.660 . S
Tb256 N294 2.600 . S
Tb256 O300 2.546 . S
Tb256 O301 2.610 . S
Tb256 O303 2.320 . S
Tb256 O304 2.552 . S
Tb256 O305 2.413 . S
Tb256 O307 2.362 . S
Tb256 O308 2.421 . S
Tb256 C320 2.833 . S
C257 C260 1.432 . S
C257 C261 1.414 . S
C257 N264 1.359 . S
C258 C260 1.417 . S
C258 C262 1.432 . S
C258 C270 1.410 . S
C259 C261 1.444 . S
C259 C262 1.317 . S
C259 H282 0.929 . S
C260 C257 1.432 . S
C260 C258 1.417 . S
C260 N268 1.360 . S
C261 C257 1.414 . S
C261 C259 1.444 . S
C261 C266 1.385 . S
C262 C258 1.432 . S
C262 C259 1.317 . S
C262 H274 0.930 . S
C263 C265 1.392 . S
C263 C266 1.370 . S
C263 H275 0.931 1_556 S
N264 C257 1.359 . S
N264 C265 1.327 . S
N264 Tb267 2.600 . S
C265 C263 1.392 . S
C265 N264 1.327 . S
C265 H272 0.930 . S
C266 C261 1.385 . S
C266 C263 1.370 . S
C266 H285 0.930 . S
Tb267 N264 2.600 . S
Tb267 N268 2.660 . S
Tb267 O301 2.362 . S
Tb267 O302 2.421 . S
Tb267 O306 2.546 . S
Tb267 O307 2.610 . S
Tb267 O309 2.320 . S
Tb267 O310 2.552 . S
Tb267 O311 2.413 . S
Tb267 C331 2.833 . S
N268 C260 1.360 . S
N268 Tb267 2.660 . S
N268 C269 1.305 . S
C269 N268 1.305 . S
C269 C271 1.407 . S
C269 H276 0.930 . S
C270 C258 1.410 . S
C270 C271 1.345 . S
C270 H278 0.930 . S
C271 C269 1.407 . S
C271 C270 1.345 . S
C271 H273 0.930 . S
H272 C265 0.930 . S
H273 C271 0.930 . S
H274 C262 0.930 . S
H275 C263 0.931 1_554 S
H276 C269 0.930 . S
H277 C291 0.930 . S
H278 C270 0.930 . S
H279 C297 0.930 . S
H280 C288 0.930 . S
H281 C295 0.931 . S
H282 C259 0.929 . S
H283 C289 0.930 . S
H284 C322 0.930 . S
H285 C266 0.930 . S
H286 C321 0.929 . S
N287 Tb256 2.660 . S
N287 C288 1.305 . S
N287 C292 1.360 . S
C288 H280 0.930 . S
C288 N287 1.305 . S
C288 C291 1.407 . S
C289 H283 0.930 . S
C289 C290 1.410 . S
C289 C291 1.345 . S
C290 C289 1.410 . S
C290 C292 1.417 . S
C290 C322 1.432 . S
C291 H277 0.930 . S
C291 C288 1.407 . S
C291 C289 1.345 . S
C292 N287 1.360 . S
C292 C290 1.417 . S
C292 C296 1.432 . S
H293 C298 0.930 . S
N294 Tb256 2.600 . S
N294 C296 1.359 . S
N294 C297 1.327 . S
C295 H281 0.931 . S
C295 C297 1.392 . S
C295 C298 1.370 . S
C296 C292 1.432 . S
C296 N294 1.359 . S
C296 C299 1.414 . S
C297 H279 0.930 . S
C297 N294 1.327 . S
C297 C295 1.392 . S
C298 H293 0.930 . S
C298 C295 1.370 . S
C298 C299 1.385 . S
C299 C296 1.414 . S
C299 C298 1.385 . S
C299 C321 1.444 . S
O300 Tb256 2.546 . S
O300 C320 1.251 . S
O301 Tb256 2.610 . S
O301 Tb267 2.362 . S
O301 C312 1.283 . S
O302 Tb267 2.421 . S
O302 C319 1.262 . S
O303 Tb256 2.320 . S
O303 C319 1.260 . S
O304 Tb256 2.552 . S
O304 C312 1.243 . S
O305 Tb256 2.413 . S
O305 C320 1.256 . S
O306 Tb267 2.546 . S
O306 C331 1.251 . S
O307 Tb256 2.362 . S
O307 Tb267 2.610 . S
O307 C323 1.283 . S
O308 Tb256 2.421 . S
O308 C330 1.262 . S
O309 Tb267 2.320 . S
O309 C330 1.260 . S
O310 Tb267 2.552 . S
O310 C323 1.243 . S
O311 Tb267 2.413 . S
O311 C331 1.256 . S
C312 O301 1.283 . S
C312 O304 1.243 . S
C313 C315 1.382 . S
C313 C317 1.393 . S
C313 C320 1.500 . S
C314 C315 1.400 . S
C314 C316 1.384 . S
C315 C313 1.382 . S
C315 C314 1.400 . S
C315 H332 0.930 . S
C316 C314 1.384 . S
C316 C318 1.392 . S
C316 H333 0.931 . S
C317 C313 1.393 . S
C317 C318 1.401 . S
C317 H334 0.930 . S
C318 C316 1.392 . S
C318 C317 1.401 . S
C318 H335 0.930 . S
C319 O302 1.262 . S
C319 O303 1.260 . S
C320 Tb256 2.833 . S
C320 O300 1.251 . S
C320 O305 1.256 . S
C320 C313 1.500 . S
C321 H286 0.929 . S
C321 C299 1.444 . S
C321 C322 1.317 . S
C322 H284 0.930 . S
C322 C290 1.432 . S
C322 C321 1.317 . S
C323 O307 1.283 . S
C323 O310 1.243 . S
C324 C325 1.382 . S
C324 C328 1.393 . S
C324 C331 1.500 1_554 S
C325 C324 1.382 . S
C325 C326 1.400 . S
C325 H336 0.930 1_554 S
C326 C325 1.400 . S
C326 C327 1.384 . S
C327 C326 1.384 . S
C327 C329 1.392 . S
C327 H337 0.931 . S
C328 C324 1.393 . S
C328 C329 1.401 . S
C328 H338 0.930 . S
C329 C327 1.392 . S
C329 C328 1.401 . S
C329 H339 0.930 . S
C330 O308 1.262 . S
C330 O309 1.260 . S
C331 Tb267 2.833 . S
C331 O306 1.251 . S
C331 O311 1.256 . S
C331 C324 1.500 1_556 S
H332 C315 0.930 . S
H333 C316 0.931 . S
H334 C317 0.930 . S
H335 C318 0.930 . S
H336 C325 0.930 1_556 S
H337 C327 0.931 . S
H338 C328 0.930 . S
H339 C329 0.930 . S
Tb340 N371 2.660 . S
Tb340 N378 2.600 . S
Tb340 O384 2.546 . S
Tb340 O385 2.610 . S
Tb340 O387 2.320 . S
Tb340 O388 2.552 . S
Tb340 O389 2.413 . S
Tb340 O391 2.380 . S
Tb340 O392 2.421 1_455 S
Tb340 C404 2.833 . S
C341 C344 1.432 . S
C341 C345 1.414 . S
C341 N348 1.359 . S
C342 C344 1.417 . S
C342 C346 1.432 . S
C342 C354 1.410 . S
C343 C345 1.444 . S
C343 C346 1.317 . S
C343 H366 0.929 . S
C344 C341 1.432 . S
C344 C342 1.417 . S
C344 N352 1.360 . S
C345 C341 1.414 . S
C345 C343 1.444 . S
C345 C350 1.385 1_655 S
C346 C342 1.432 . S
C346 C343 1.317 . S
C346 H358 0.930 . S
C347 C349 1.392 . S
C347 C350 1.370 . S
C347 H359 0.931 1_556 S
N348 C341 1.359 . S
N348 C349 1.327 1_655 S
N348 Tb351 2.600 . S
C349 C347 1.392 . S
C349 N348 1.327 1_455 S
C349 H356 0.930 . S
C350 C345 1.385 1_455 S
C350 C347 1.370 . S
C350 H369 0.930 . S
Tb351 N348 2.600 . S
Tb351 N352 2.660 . S
Tb351 O385 2.362 1_655 S
Tb351 O386 2.421 1_655 S
Tb351 O390 2.546 . S
Tb351 O391 2.600 1_655 S
Tb351 O393 2.320 . S
Tb351 O394 2.552 . S
Tb351 O395 2.413 . S
Tb351 C415 2.833 . S
N352 C344 1.360 . S
N352 Tb351 2.660 . S
N352 C353 1.305 . S
C353 N352 1.305 . S
C353 C355 1.407 . S
C353 H360 0.930 . S
C354 C342 1.410 . S
C354 C355 1.345 . S
C354 H362 0.930 . S
C355 C353 1.407 . S
C355 C354 1.345 . S
C355 H357 0.930 . S
H356 C349 0.930 . S
H357 C355 0.930 . S
H358 C346 0.930 . S
H359 C347 0.931 1_554 S
H360 C353 0.930 . S
H361 C375 0.930 . S
H362 C354 0.930 . S
H363 C381 0.930 . S
H364 C372 0.930 . S
H365 C379 0.931 . S
H366 C343 0.929 . S
H367 C373 0.930 . S
H368 C406 0.930 . S
H369 C350 0.930 . S
H370 C405 0.929 . S
N371 Tb340 2.660 . S
N371 C372 1.305 . S
N371 C376 1.360 . S
C372 H364 0.930 . S
C372 N371 1.305 . S
C372 C375 1.407 . S
C373 H367 0.930 . S
C373 C374 1.410 . S
C373 C375 1.345 . S
C374 C373 1.410 . S
C374 C376 1.417 . S
C374 C406 1.432 . S
C375 H361 0.930 . S
C375 C372 1.407 . S
C375 C373 1.345 . S
C376 N371 1.360 . S
C376 C374 1.417 . S
C376 C380 1.432 . S
H377 C382 0.930 . S
N378 Tb340 2.600 . S
N378 C380 1.359 . S
N378 C381 1.327 1_455 S
C379 H365 0.931 . S
C379 C381 1.392 . S
C379 C382 1.370 1_655 S
C380 C376 1.432 . S
C380 N378 1.359 . S
C380 C383 1.414 . S
C381 H363 0.930 . S
C381 N378 1.327 1_655 S
C381 C379 1.392 . S
C382 H377 0.930 . S
C382 C379 1.370 1_455 S
C382 C383 1.385 . S
C383 C380 1.414 . S
C383 C382 1.385 . S
C383 C405 1.444 . S
O384 Tb340 2.546 . S
O384 C404 1.251 . S
O385 Tb340 2.610 . S
O385 Tb351 2.362 1_455 S
O385 C396 1.283 . S
O386 Tb351 2.421 1_455 S
O386 C403 1.262 . S
O387 Tb340 2.320 . S
O387 C403 1.260 . S
O388 Tb340 2.552 . S
O388 C396 1.243 . S
O389 Tb340 2.413 . S
O389 C404 1.256 . S
O390 Tb351 2.546 . S
O390 C415 1.251 . S
O391 Tb340 2.380 . S
O391 Tb351 2.600 1_455 S
O391 C407 1.270 1_455 S
O392 Tb340 2.421 1_655 S
O392 C414 1.262 . S
O393 Tb351 2.320 . S
O393 C414 1.260 . S
O394 Tb351 2.552 . S
O394 C407 1.243 . S
O395 Tb351 2.413 . S
O395 C415 1.256 . S
C396 O385 1.283 . S
C396 O388 1.243 . S
C397 C399 1.382 . S
C397 C401 1.393 . S
C397 C404 1.500 . S
C398 C399 1.400 . S
C398 C400 1.384 . S
C399 C397 1.382 . S
C399 C398 1.400 . S
C399 H416 0.930 . S
C400 C398 1.384 . S
C400 C402 1.392 . S
C400 H417 0.931 . S
C401 C397 1.393 . S
C401 C402 1.401 . S
C401 H418 0.930 . S
C402 C400 1.392 . S
C402 C401 1.401 . S
C402 H419 0.930 . S
C403 O386 1.262 . S
C403 O387 1.260 . S
C404 Tb340 2.833 . S
C404 O384 1.251 . S
C404 O389 1.256 . S
C404 C397 1.500 . S
C405 H370 0.929 . S
C405 C383 1.444 . S
C405 C406 1.317 . S
C406 H368 0.930 . S
C406 C374 1.432 . S
C406 C405 1.317 . S
C407 O391 1.270 1_655 S
C407 O394 1.243 . S
C408 C409 1.382 . S
C408 C412 1.393 . S
C408 C415 1.500 1_554 S
C409 C408 1.382 . S
C409 C410 1.400 . S
C409 H420 0.930 1_554 S
C410 C409 1.400 . S
C410 C411 1.384 . S
C411 C410 1.384 . S
C411 C413 1.392 . S
C411 H421 0.931 . S
C412 C408 1.393 . S
C412 C413 1.401 . S
C412 H422 0.930 . S
C413 C411 1.392 . S
C413 C412 1.401 . S
C413 H423 0.930 . S
C414 O392 1.262 . S
C414 O393 1.260 . S
C415 Tb351 2.833 . S
C415 O390 1.251 . S
C415 O395 1.256 . S
C415 C408 1.500 1_556 S
H416 C399 0.930 . S
H417 C400 0.931 . S
H418 C401 0.930 . S
H419 C402 0.930 . S
H420 C409 0.930 1_556 S
H421 C411 0.931 . S
H422 C412 0.930 . S
H423 C413 0.930 . S
C424 C425 1.387 . S
C424 H428 0.952 . S
C424 C433 1.390 . S
C425 C424 1.387 . S
C425 C427 1.387 . S
H426 C433 0.950 1_565 S
C427 C425 1.387 . S
C427 C429 1.390 . S
C427 H431 0.950 . S
H428 C424 0.952 . S
C429 C427 1.390 . S
C429 C430 1.387 . S
C429 H432 0.950 . S
C430 C429 1.387 . S
C430 C433 1.387 . S
H431 C427 0.950 . S
H432 C429 0.950 . S
C433 C424 1.390 . S
C433 H426 0.950 1_545 S
C433 C430 1.387 . S
C434 C435 1.387 . S
C434 H438 0.950 . S
C434 C443 1.390 . S
C435 C434 1.387 . S
C435 C437 1.387 . S
H436 C443 0.950 . S
C437 C435 1.387 . S
C437 C439 1.390 . S
C437 H441 0.950 . S
H438 C434 0.950 . S
C439 C437 1.390 . S
C439 C440 1.387 . S
C439 H442 0.950 . S
C440 C439 1.387 . S
C440 C443 1.387 . S
H441 C437 0.950 . S
H442 C439 0.950 . S
C443 C434 1.390 . S
C443 H436 0.950 . S
C443 C440 1.387 . S
C444 C445 1.387 . S
C444 H448 0.950 . S
C444 C453 1.390 . S
C445 C444 1.387 . S
C445 C447 1.387 . S
H446 C453 0.950 . S
C447 C445 1.387 . S
C447 C449 1.390 . S
C447 H451 0.950 . S
H448 C444 0.950 . S
C449 C447 1.390 . S
C449 C450 1.387 . S
C449 H452 0.950 . S
C450 C449 1.387 . S
C450 C453 1.387 . S
H451 C447 0.950 . S
H452 C449 0.950 . S
C453 C444 1.390 . S
C453 H446 0.950 . S
C453 C450 1.387 . S
C454 C455 1.387 . S
C454 H458 0.950 . S
C454 C463 1.390 . S
C455 C454 1.387 . S
C455 C457 1.387 . S
H456 C463 0.950 . S
C457 C455 1.387 . S
C457 C459 1.390 . S
C457 H461 0.950 . S
H458 C454 0.950 . S
C459 C457 1.390 . S
C459 C460 1.387 . S
C459 H462 0.950 . S
C460 C459 1.387 . S
C460 C463 1.387 . S
H461 C457 0.950 . S
H462 C459 0.950 . S
C463 C454 1.390 . S
C463 H456 0.950 . S
C463 C460 1.387 . S
C464 C465 1.387 . S
C464 H468 0.950 . S
C464 C473 1.390 1_554 S
C465 C464 1.387 . S
C465 C467 1.387 . S
H466 C473 0.950 . S
C467 C465 1.387 . S
C467 C469 1.390 1_564 S
C467 H471 0.950 1_565 S
H468 C464 0.950 . S
C469 C467 1.390 1_546 S
C469 C470 1.387 1_545 S
C469 H472 0.950 . S
C470 C469 1.387 1_565 S
C470 C473 1.387 . S
H471 C467 0.950 1_545 S
H472 C469 0.950 . S
C473 C464 1.390 1_556 S
C473 H466 0.950 . S
C473 C470 1.387 . S
C474 C475 1.387 . S
C474 H478 0.950 . S
C474 C483 1.390 1_554 S
C475 C474 1.387 . S
C475 C477 1.387 . S
H476 C483 0.950 . S
C477 C475 1.387 . S
C477 C479 1.390 . S
C477 H481 0.950 . S
H478 C474 0.950 . S
C479 C477 1.390 . S
C479 C480 1.387 1_554 S
C479 H482 0.950 1_554 S
C480 C479 1.387 1_556 S
C480 C483 1.387 . S
H481 C477 0.950 . S
H482 C479 0.950 1_556 S
C483 C474 1.390 1_556 S
C483 H476 0.950 . S
C483 C480 1.387 . S
C484 C485 1.387 . S
C484 H488 0.950 . S
C484 C493 1.390 1_554 S
C485 C484 1.387 . S
C485 C487 1.387 . S
H486 C493 0.950 . S
C487 C485 1.387 . S
C487 C489 1.390 1_554 S
C487 H491 0.950 . S
H488 C484 0.950 . S
C489 C487 1.390 1_556 S
C489 C490 1.387 . S
C489 H492 0.950 . S
C490 C489 1.387 . S
C490 C493 1.387 . S
H491 C487 0.950 . S
H492 C489 0.950 . S
C493 C484 1.390 1_556 S
C493 H486 0.950 . S
C493 C490 1.387 . S
C494 C495 1.387 . S
C494 H498 0.950 . S
C494 C503 1.390 1_554 S
C495 C494 1.387 . S
C495 C497 1.387 . S
H496 C503 0.950 . S
C497 C495 1.387 . S
C497 C499 1.390 1_554 S
C497 H501 0.950 . S
H498 C494 0.950 . S
C499 C497 1.390 1_556 S
C499 C500 1.387 . S
C499 H502 0.950 . S
C500 C499 1.387 . S
C500 C503 1.387 . S
H501 C497 0.950 . S
H502 C499 0.950 . S
C503 C494 1.390 1_556 S
C503 H496 0.950 . S
C503 C500 1.387 . S
C504 C505 1.387 . S
C504 H508 0.950 . S
C504 C513 1.390 . S
C505 C504 1.387 . S
C505 C507 1.387 . S
H506 C513 0.950 . S
C507 C505 1.387 . S
C507 C509 1.390 . S
C507 H511 0.950 . S
H508 C504 0.950 . S
C509 C507 1.390 . S
C509 C510 1.387 . S
C509 H512 0.955 . S
C510 C509 1.387 . S
C510 C513 1.387 . S
H511 C507 0.950 . S
H512 C509 0.955 . S
C513 C504 1.390 . S
C513 H506 0.950 . S
C513 C510 1.387 . S
C514 C515 1.387 . S
C514 H518 0.950 . S
C514 C523 1.390 . S
C515 C514 1.387 . S
C515 C517 1.387 . S
H516 C523 0.950 . S
C517 C515 1.387 . S
C517 C519 1.390 . S
C517 H521 0.950 . S
H518 C514 0.950 . S
C519 C517 1.390 . S
C519 C520 1.387 . S
C519 H522 0.950 . S
C520 C519 1.387 . S
C520 C523 1.387 . S
H521 C517 0.950 . S
H522 C519 0.950 . S
C523 C514 1.390 . S
C523 H516 0.950 . S
C523 C520 1.387 . S
C524 C525 1.387 . S
C524 H528 0.950 . S
C524 C533 1.390 . S
C525 C524 1.387 . S
C525 C527 1.387 . S
H526 C533 0.950 . S
C527 C525 1.387 . S
C527 C529 1.390 . S
C527 H531 0.950 . S
H528 C524 0.950 . S
C529 C527 1.390 . S
C529 C530 1.387 . S
C529 H532 0.950 . S
C530 C529 1.387 . S
C530 C533 1.387 . S
H531 C527 0.950 . S
H532 C529 0.950 . S
C533 C524 1.390 . S
C533 H526 0.950 . S
C533 C530 1.387 . S
C534 C535 1.387 . S
C534 H538 0.950 . S
C534 C543 1.390 . S
C535 C534 1.387 . S
C535 C537 1.387 . S
H536 C543 0.950 . S
C537 C535 1.387 . S
C537 C539 1.390 . S
C537 H541 0.950 . S
H538 C534 0.950 . S
C539 C537 1.390 . S
C539 C540 1.387 . S
C539 H542 0.950 . S
C540 C539 1.387 . S
C540 C543 1.387 . S
H541 C537 0.950 . S
H542 C539 0.950 . S
C543 C534 1.390 . S
C543 H536 0.950 . S
C543 C540 1.387 . S
C544 C545 1.387 . S
C544 H548 0.950 . S
C544 C553 1.390 . S
C545 C544 1.387 . S
C545 C547 1.387 . S
H546 C553 0.950 . S
C547 C545 1.387 . S
C547 C549 1.390 1_655 S
C547 H551 0.950 . S
H548 C544 0.950 . S
C549 C547 1.390 1_455 S
C549 C550 1.387 . S
C549 H552 0.950 . S
C550 C549 1.387 . S
C550 C553 1.387 1_455 S
H551 C547 0.950 . S
H552 C549 0.950 . S
C553 C544 1.390 . S
C553 H546 0.950 . S
C553 C550 1.387 1_655 S
C554 C555 1.413 . S
C554 H558 0.943 1_565 S
C554 C563 1.372 1_565 S
C555 C554 1.413 . S
C555 C557 1.387 . S
H556 C563 0.950 . S
C557 C555 1.387 . S
C557 C559 1.390 . S
C557 H561 0.950 . S
H558 C554 0.943 1_545 S
C559 C557 1.390 . S
C559 C560 1.387 1_565 S
C559 H562 0.950 . S
C560 C559 1.387 1_545 S
C560 C563 1.387 . S
H561 C557 0.950 . S
H562 C559 0.950 . S
C563 C554 1.372 1_545 S
C563 H556 0.950 . S
C563 C560 1.387 . S
C564 C565 1.387 . S
C564 H568 0.950 . S
C564 C573 1.390 . S
C565 C564 1.387 . S
C565 C567 1.387 . S
H566 C573 0.950 . S
C567 C565 1.387 . S
C567 C569 1.390 . S
C567 H571 0.950 . S
H568 C564 0.950 . S
C569 C567 1.390 . S
C569 C570 1.387 . S
C569 H572 0.950 1_554 S
C570 C569 1.387 . S
C570 C573 1.387 . S
H571 C567 0.950 . S
H572 C569 0.950 1_556 S
C573 C564 1.390 . S
C573 H566 0.950 . S
C573 C570 1.387 . S
C574 C575 1.387 . S
C574 H578 0.950 . S
C574 C583 1.390 . S
C575 C574 1.387 . S
C575 C577 1.387 . S
H576 C583 0.950 1_556 S
C577 C575 1.387 . S
C577 C579 1.390 . S
C577 H581 0.950 . S
H578 C574 0.950 . S
C579 C577 1.390 . S
C579 C580 1.387 . S
C579 H582 0.950 . S
C580 C579 1.387 . S
C580 C583 1.387 . S
H581 C577 0.950 . S
H582 C579 0.950 . S
C583 C574 1.390 . S
C583 H576 0.950 1_554 S
C583 C580 1.387 . S
C584 C585 1.387 . S
C584 H588 0.950 . S
C584 C593 1.390 . S
C585 C584 1.387 . S
C585 C587 1.387 . S
H586 C593 0.950 . S
C587 C585 1.387 . S
C587 C589 1.390 . S
C587 H591 0.950 . S
H588 C584 0.950 . S
C589 C587 1.390 . S
C589 C590 1.387 . S
C589 H592 0.950 . S
C590 C589 1.387 . S
C590 C593 1.387 . S
H591 C587 0.950 . S
H592 C589 0.950 . S
C593 C584 1.390 . S
C593 H586 0.950 . S
C593 C590 1.387 . S
C594 C595 1.387 . S
C594 H598 0.950 . S
C594 C603 1.390 . S
C595 C594 1.387 . S
C595 C597 1.387 . S
H596 C603 0.950 . S
C597 C595 1.387 . S
C597 C599 1.390 . S
C597 H601 0.950 . S
H598 C594 0.950 . S
C599 C597 1.390 . S
C599 C600 1.387 . S
C599 H602 0.950 . S
C600 C599 1.387 . S
C600 C603 1.387 . S
H601 C597 0.950 . S
H602 C599 0.950 . S
C603 C594 1.390 . S
C603 H596 0.950 . S
C603 C600 1.387 . S
C604 C605 1.387 . S
C604 H608 0.950 . S
C604 C613 1.390 . S
C605 C604 1.387 . S
C605 C607 1.387 . S
H606 C613 0.950 . S
C607 C605 1.387 . S
C607 C609 1.390 . S
C607 H611 0.950 . S
H608 C604 0.950 . S
C609 C607 1.390 . S
C609 C610 1.387 . S
C609 H612 0.950 . S
C610 C609 1.387 . S
C610 C613 1.387 . S
H611 C607 0.950 . S
H612 C609 0.950 . S
C613 C604 1.390 . S
C613 H606 0.950 . S
C613 C610 1.387 . S
C614 C615 1.387 . S
C614 H618 0.950 . S
C614 C623 1.390 . S
C615 C614 1.387 . S
C615 C617 1.387 . S
H616 C623 0.950 . S
C617 C615 1.387 . S
C617 C619 1.390 . S
C617 H621 0.950 . S
H618 C614 0.950 . S
C619 C617 1.390 . S
C619 C620 1.387 . S
C619 H622 0.950 . S
C620 C619 1.387 . S
C620 C623 1.387 . S
H621 C617 0.950 . S
H622 C619 0.950 . S
C623 C614 1.390 . S
C623 H616 0.950 . S
C623 C620 1.387 . S
C624 C625 1.387 . S
C624 H628 0.950 . S
C624 C633 1.390 . S
C625 C624 1.387 . S
C625 C627 1.387 . S
H626 C633 0.950 . S
C627 C625 1.387 . S
C627 C629 1.390 . S
C627 H631 0.950 . S
H628 C624 0.950 . S
C629 C627 1.390 . S
C629 C630 1.387 . S
C629 H632 0.950 . S
C630 C629 1.387 . S
C630 C633 1.387 . S
H631 C627 0.950 . S
H632 C629 0.950 . S
C633 C624 1.390 . S
C633 H626 0.950 . S
C633 C630 1.387 . S
C634 C635 1.387 . S
C634 H638 0.950 . S
C634 C643 1.390 . S
C635 C634 1.387 . S
C635 C637 1.387 . S
H636 C643 0.950 . S
C637 C635 1.387 . S
C637 C639 1.390 . S
C637 H641 0.950 . S
H638 C634 0.950 . S
C639 C637 1.390 . S
C639 C640 1.387 . S
C639 H642 0.950 . S
C640 C639 1.387 . S
C640 C643 1.387 . S
H641 C637 0.950 . S
H642 C639 0.950 . S
C643 C634 1.390 . S
C643 H636 0.950 . S
C643 C640 1.387 . S
C644 C645 1.387 . S
C644 H648 0.950 . S
C644 C653 1.390 . S
C645 C644 1.387 . S
C645 C647 1.387 . S
H646 C653 0.950 . S
C647 C645 1.387 . S
C647 C649 1.390 . S
C647 H651 0.950 . S
H648 C644 0.950 . S
C649 C647 1.390 . S
C649 C650 1.387 . S
C649 H652 0.950 . S
C650 C649 1.387 . S
C650 C653 1.387 . S
H651 C647 0.950 . S
H652 C649 0.950 . S
C653 C644 1.390 . S
C653 H646 0.950 . S
C653 C650 1.387 . S
C654 C655 1.387 . S
C654 H658 0.950 . S
C654 C663 1.390 . S
C655 C654 1.387 . S
C655 C657 1.387 . S
H656 C663 0.950 . S
C657 C655 1.387 . S
C657 C659 1.390 . S
C657 H661 0.950 . S
H658 C654 0.950 . S
C659 C657 1.390 . S
C659 C660 1.387 . S
C659 H662 0.950 . S
C660 C659 1.387 . S
C660 C663 1.387 . S
H661 C657 0.950 . S
H662 C659 0.950 . S
C663 C654 1.390 . S
C663 H656 0.950 . S
C663 C660 1.387 . S
C425 C74 1.989 . S
C430 C162 2.042 . S
C440 C246 2.054 . S
C435 C85 2.000 . S
C450 C312 1.940 . S
C445 C52 2.077 . S
C460 C396 1.928 . S
C455 C63 2.064 . S
C470 C151 2.041 1_565 S
C465 C30 1.935 . S
C475 C41 1.941 . S
C480 C235 2.056 . S
C485 C8 2.012 . S
C490 C323 1.941 . S
C495 C19 2.002 . S
C500 C407 1.927 . S
C510 C158 1.058 1_455 S
C505 C62 1.033 . S
C520 C242 1.013 1_545 S
C515 C73 0.998 . S
C530 C314 0.973 . S
C525 C84 0.971 . S
C535 C51 1.004 . S
C540 C398 1.011 . S
C545 C18 0.925 . S
C550 C146 1.057 . S
C560 C230 1.014 . S
C555 C29 0.903 . S
C570 C326 0.973 . S
C565 C40 0.888 . S
C575 C7 0.903 . S
C580 C410 1.011 . S
C585 C60 1.955 . S
C590 C155 2.219 . S
C595 C71 1.922 . S
C600 C239 2.196 . S
C610 C319 2.310 . S
C605 C82 1.867 . S
C620 C403 2.330 . S
C615 C49 1.894 . S
C625 C16 1.762 . S
C630 C144 2.218 . S
C640 C228 2.197 . S
C635 C27 1.751 . S
C650 C330 2.310 . S
C645 C38 1.663 . S
C655 C5 1.677 . S
C660 C414 2.331 . S
