# Generated by pormake.
# Topology rtl, (3,6)-cn, num edge types: 1
# Building blocks:
#     Node 0, Type 0, BuildingBlock: WUSLED_clean_sbu_0, # of connection points: 3
#     Node 1, Type 0, BuildingBlock: WUSLED_clean_sbu_0, # of connection points: 3
#     Node 2, Type 0, BuildingBlock: WUSLED_clean_sbu_0, # of connection points: 3
#     Node 3, Type 0, BuildingBlock: WUSLED_clean_sbu_0, # of connection points: 3
#     Node 4, Type 1, BuildingBlock: LEVNOQ01_clean_sbu_1, # of connection points: 6
#     Node 5, Type 1, BuildingBlock: LEVNOQ01_clean_sbu_1, # of connection points: 6
#     Edge 6, Type (0, 1), BuildingBlock: OJICUG_clean_linker_0, # of connection points: 2
#     Edge 7, Type (0, 1), BuildingBlock: OJICUG_clean_linker_0, # of connection points: 2
#     Edge 8, Type (0, 1), BuildingBlock: OJICUG_clean_linker_0, # of connection points: 2
#     Edge 9, Type (0, 1), BuildingBlock: OJICUG_clean_linker_0, # of connection points: 2
#     Edge 10, Type (0, 1), BuildingBlock: OJICUG_clean_linker_0, # of connection points: 2
#     Edge 11, Type (0, 1), BuildingBlock: OJICUG_clean_linker_0, # of connection points: 2
#     Edge 12, Type (0, 1), BuildingBlock: OJICUG_clean_linker_0, # of connection points: 2
#     Edge 13, Type (0, 1), BuildingBlock: OJICUG_clean_linker_0, # of connection points: 2
#     Edge 14, Type (0, 1), BuildingBlock: OJICUG_clean_linker_0, # of connection points: 2
#     Edge 15, Type (0, 1), BuildingBlock: OJICUG_clean_linker_0, # of connection points: 2
#     Edge 16, Type (0, 1), BuildingBlock: OJICUG_clean_linker_0, # of connection points: 2
#     Edge 17, Type (0, 1), BuildingBlock: OJICUG_clean_linker_0, # of connection points: 2
# Relax obj value: 0.023
# Max RMSD: 0.058
# Mean RMSD: 0.042
data_MOF--net-rtl--node1-WUSLED_clean_sbu_0--node2-LEVNOQ01_clean_sbu_1--edge1-OJICUG_clean_linker_0
_symmetry_space_group_name_H-M    P1
_symmetry_Int_Tables_number       1
_symmetry_cell_setting            triclinic
loop_
_symmetry_equiv_pos_as_xyz
'x, y, z'
_cell_length_a     32.256175
_cell_length_b     35.732569
_cell_length_c     24.697673
_cell_angle_alpha  90.25389
_cell_angle_beta   99.40308
_cell_angle_gamma 89.621235
loop_
_atom_site_label
_atom_site_type_symbol
_atom_site_fract_x
_atom_site_fract_y
_atom_site_fract_z
_atom_type_partial_charge
C0 C 0.21265 0.89485 0.26559 0.0
C1 C 0.17949 0.92043 0.25159 0.0
C2 C 0.17703 0.93135 0.34856 0.0
C3 C 0.16185 0.93864 0.29283 0.0
C4 C 0.21162 0.90706 0.3621 0.0
C5 C 0.22923 0.88899 0.32094 0.0
U6 U 0.22017 0.86809 0.11617 0.0
O7 O 0.27621 0.85015 0.08227 0.0
O8 O 0.22274 0.81207 0.07982 0.0
C9 C 0.26195 0.81599 0.07247 0.0
C10 C 0.22879 0.87228 0.22364 0.0
C11 C 0.29146 0.78523 0.09222 0.0
C12 C 0.30669 0.72436 0.13546 0.0
C13 C 0.27955 0.75497 0.12251 0.0
C14 C 0.35876 0.75464 0.09062 0.0
C15 C 0.34631 0.72352 0.11869 0.0
C16 C 0.3316 0.78502 0.07742 0.0
C17 C 0.15998 0.92363 0.99416 0.0
C18 C 0.1319 0.90573 0.89983 0.0
C19 C 0.15273 0.96977 0.92121 0.0
C20 C 0.16426 0.96038 0.97641 0.0
C21 C 0.13642 0.94264 0.88212 0.0
C22 C 0.14378 0.89623 0.95537 0.0
C23 C 0.17177 0.91538 0.05339 0.0
O24 O 0.20117 0.85064 0.19366 0.0
O25 O 0.25372 0.88952 0.19493 0.0
O26 O 0.21093 0.92264 0.07485 0.0
O27 O 0.15784 0.88405 0.07148 0.0
H28 H 0.16635 0.92529 0.20894 0.0
H29 H 0.13493 0.95684 0.28108 0.0
H30 H 0.22423 0.90114 0.4046 0.0
H31 H 0.255 0.86948 0.33241 0.0
H32 H 0.29622 0.70089 0.1572 0.0
H33 H 0.24886 0.75435 0.13484 0.0
H34 H 0.38863 0.7547 0.07599 0.0
H35 H 0.34148 0.80786 0.05385 0.0
H36 H 0.11949 0.8842 0.87075 0.0
H37 H 0.15579 0.99864 0.90934 0.0
H38 H 0.17628 0.98205 1.00551 0.0
H39 H 0.14012 0.8676 0.96787 0.0
C40 C 0.71122 0.66191 0.76026 0.0
C41 C 0.68259 0.63259 0.74713 0.0
C42 C 0.67687 0.62583 0.84379 0.0
C43 C 0.66561 0.61457 0.78867 0.0
C44 C 0.70721 0.65394 0.85677 0.0
C45 C 0.72421 0.67181 0.81531 0.0
U46 U 0.71476 0.6859 0.60955 0.0
O47 O 0.71305 0.74114 0.57053 0.0
O48 O 0.76854 0.70492 0.57252 0.0
C49 C 0.75216 0.73843 0.56201 0.0
C50 C 0.72569 0.68423 0.71727 0.0
C51 C 0.78002 0.77051 0.57994 0.0
C52 C 0.79057 0.8347 0.61302 0.0
C53 C 0.76465 0.80344 0.6014 0.0
C54 C 0.84807 0.80024 0.58414 0.0
C55 C 0.83237 0.83367 0.60357 0.0
C56 C 0.82216 0.76913 0.57227 0.0
C57 C 0.65552 0.62637 0.49186 0.0
C58 C 0.63136 0.64318 0.39621 0.0
C59 C 0.64488 0.57828 0.4213 0.0
C60 C 0.65619 0.58869 0.47621 0.0
C61 C 0.6325 0.60533 0.38053 0.0
C62 C 0.64306 0.65367 0.45145 0.0
C63 C 0.66799 0.6359 0.55051 0.0
O64 O 0.75089 0.66713 0.68828 0.0
O65 O 0.69656 0.70457 0.68728 0.0
O66 O 0.65275 0.66715 0.56791 0.0
O67 O 0.70783 0.63028 0.57064 0.0
H68 H 0.67222 0.62465 0.70471 0.0
H69 H 0.64193 0.59334 0.77733 0.0
H70 H 0.71667 0.66302 0.89885 0.0
H71 H 0.74644 0.6943 0.82611 0.0
H72 H 0.77758 0.86001 0.628 0.0
H73 H 0.73231 0.80552 0.60786 0.0
H74 H 0.87982 0.79868 0.57524 0.0
H75 H 0.83478 0.74431 0.55535 0.0
H76 H 0.62204 0.66464 0.36574 0.0
H77 H 0.64532 0.54881 0.41086 0.0
H78 H 0.66547 0.56716 0.50664 0.0
H79 H 0.64242 0.68302 0.46246 0.0
C80 C 0.81228 0.17206 0.16629 0.0
C81 C 0.84094 0.14384 0.15774 0.0
C82 C 0.85681 0.13214 0.25626 0.0
C83 C 0.86303 0.12415 0.20222 0.0
C84 C 0.82836 0.16081 0.26461 0.0
C85 C 0.80626 0.18056 0.21996 0.0
U86 U 0.78302 0.18641 1.01239 0.0
O87 O 0.72337 0.20074 0.95993 0.0
O88 O 0.77723 0.23844 0.96385 0.0
C89 C 0.73697 0.23338 0.94602 0.0
C90 C 0.78891 0.19276 0.11944 0.0
C91 C 0.70922 0.26597 0.95041 0.0
C92 C 0.6497 0.29498 0.98347 0.0
C93 C 0.67606 0.26412 0.98074 0.0
C94 C 0.68921 0.33036 0.92603 0.0
C95 C 0.656 0.32849 0.9563 0.0
C96 C 0.71539 0.29927 0.92282 0.0
C97 C 0.82983 0.12173 0.9152 0.0
C98 C 0.82433 0.13598 0.81821 0.0
C99 C 0.86245 0.08073 0.85557 0.0
C100 C 0.85284 0.08935 0.90741 0.0
C101 C 0.84931 0.10453 0.81068 0.0
C102 C 0.81465 0.1445 0.87008 0.0
C103 C 0.82435 0.13282 0.97095 0.0
O104 O 0.81233 0.21173 0.09053 0.0
O105 O 0.75881 0.17402 0.08875 0.0
O106 O 0.78646 0.12838 0.98287 0.0
O107 O 0.84117 0.16511 0.98769 0.0
H108 H 0.84618 0.13704 0.11658 0.0
H109 H 0.88516 0.1027 0.19425 0.0
H110 H 0.82247 0.16745 0.30552 0.0
H111 H 0.78427 0.20232 0.22731 0.0
H112 H 0.62501 0.29291 1.00823 0.0
H113 H 0.67058 0.23894 1.00271 0.0
H114 H 0.69489 0.35583 0.90485 0.0
H115 H 0.74064 0.30127 0.89894 0.0
H116 H 0.81349 0.15468 0.78439 0.0
H117 H 0.88223 0.05662 0.85144 0.0
H118 H 0.86479 0.07149 0.94187 0.0
H119 H 0.7966 0.16955 0.87539 0.0
C120 C 0.29028 0.39131 0.34181 0.0
C121 C 0.31812 0.42123 0.3548 0.0
C122 C 0.3291 0.42407 0.25959 0.0
C123 C 0.3373 0.43763 0.31387 0.0
C124 C 0.29974 0.39519 0.24655 0.0
C125 C 0.28048 0.37899 0.28734 0.0
U126 U 0.28226 0.36993 0.49224 0.0
O127 O 0.22579 0.35572 0.52733 0.0
O128 O 0.27798 0.31543 0.53151 0.0
C129 C 0.23896 0.3213 0.53871 0.0
C130 C 0.27306 0.37101 0.3846 0.0
C131 C 0.20861 0.29128 0.52004 0.0
C132 C 0.19049 0.23199 0.47322 0.0
C133 C 0.21805 0.26212 0.48542 0.0
C134 C 0.14268 0.26085 0.52728 0.0
C135 C 0.15287 0.23066 0.49495 0.0
C136 C 0.17031 0.29073 0.53977 0.0
C137 C 0.34625 0.42529 0.61126 0.0
C138 C 0.37155 0.40752 0.70631 0.0
C139 C 0.35866 0.47273 0.6827 0.0
C140 C 0.34637 0.46286 0.62773 0.0
C141 C 0.37129 0.44526 0.72278 0.0
C142 C 0.3589 0.39758 0.65101 0.0
C143 C 0.33338 0.41635 0.55239 0.0
O144 O 0.29971 0.34879 0.41529 0.0
O145 O 0.24927 0.39058 0.41281 0.0
O146 O 0.2944 0.42508 0.53152 0.0
O147 O 0.34562 0.38389 0.53501 0.0
H148 H 0.32606 0.43101 0.39679 0.0
H149 H 0.36018 0.45951 0.32524 0.0
H150 H 0.29267 0.38434 0.20506 0.0
H151 H 0.25892 0.35599 0.27664 0.0
H152 H 0.19916 0.20923 0.44812 0.0
H153 H 0.24724 0.26196 0.46911 0.0
H154 H 0.1144 0.26046 0.54563 0.0
H155 H 0.16237 0.31283 0.56654 0.0
H156 H 0.38102 0.38574 0.7362 0.0
H157 H 0.35888 0.50212 0.6937 0.0
H158 H 0.33708 0.48472 0.59785 0.0
H159 H 0.35904 0.36831 0.63946 0.0
O160 O 0.98413 0.10317 0.66006 0.0
Mg161 Mg 0.04018 0.08564 0.63626 0.0
O162 O 0.95357 0.05509 0.61416 0.0
Mg163 Mg 0.00145 0.02967 0.56034 0.0
O164 O 0.04231 0.0842 0.55412 0.0
O165 O 0.07271 0.12823 0.61322 0.0
O166 O 0.05197 1.00553 0.50745 0.0
O167 O 0.95889 0.05616 0.48296 0.0
Mg168 Mg 0.97701 0.9733 0.49136 0.0
O169 O 0.9575 0.97637 0.56617 0.0
O170 O 0.0343 0.94736 0.48887 0.0
O171 O 0.95056 0.00836 0.42627 0.0
O172 O 0.93516 0.93394 0.49996 0.0
C173 C 0.07092 0.01336 0.67883 0.0
C174 C 0.95226 0.0828 0.64672 0.0
C175 C 0.06452 0.11462 0.56422 0.0
C176 C 0.06078 0.97313 0.49025 0.0
C177 C 0.94491 0.04265 0.43562 0.0
C178 C 0.93531 0.94701 0.54865 0.0
O179 O 0.07846 0.04782 0.68558 0.0
O180 O 0.04362 1.00214 0.63866 0.0
O181 O 0.579 0.50059 0.17801 0.0
Mg182 Mg 0.54181 0.46457 0.12443 0.0
O183 O 0.5444 0.54771 0.13418 0.0
Mg184 Mg 0.50385 0.52365 0.05211 0.0
O185 O 0.54493 0.46917 0.0427 0.0
O186 O 0.57493 0.42294 0.09801 0.0
O187 O 0.46306 0.49959 0.96998 0.0
O188 O 0.55414 0.55119 1.00435 0.0
Mg189 Mg 0.46878 0.58224 0.98141 0.0
O190 O 0.46229 0.57814 0.06223 0.0
O191 O 0.43189 0.54786 0.92512 0.0
O192 O 0.5254 0.60186 0.96349 0.0
O193 O 0.43481 0.62416 1.00457 0.0
C194 C 0.45267 0.46692 0.13022 0.0
C195 C 0.57114 0.5352 0.17408 0.0
C196 C 0.56718 0.43839 0.05031 0.0
C197 C 0.43771 0.51299 0.92933 0.0
C198 C 0.55685 0.58068 0.97614 0.0
C199 C 0.44048 0.60905 0.05253 0.0
O200 O 0.4848 0.44664 0.14411 0.0
O201 O 0.45429 0.49571 0.10018 0.0
C202 C 0.14692 0.16122 0.50355 0.0
C203 C 0.12715 0.19608 0.49127 0.0
H204 H 0.1409 0.10607 0.53492 0.0
C205 C 0.08315 0.19842 0.48658 0.0
H206 H 0.18074 0.15843 0.50766 0.0
C207 C 0.06035 0.16816 0.50176 0.0
C208 C 0.0812 0.13519 0.52149 0.0
H209 H 0.06694 0.22472 0.47626 0.0
H210 H 0.02742 0.17219 0.50446 0.0
C211 C 0.12405 0.131 0.51874 0.0
C212 C 0.41643 0.69078 0.13244 0.0
C213 C 0.37228 0.68874 0.12287 0.0
H214 H 0.47403 0.6648 0.11926 0.0
C215 C 0.35332 0.65425 0.10656 0.0
H216 H 0.43201 0.71673 0.14599 0.0
C217 C 0.37759 0.62431 0.09233 0.0
C218 C 0.42103 0.62839 0.09446 0.0
H219 H 0.31944 0.65166 0.09866 0.0
H220 H 0.36174 0.59984 0.07306 0.0
C221 C 0.44062 0.66081 0.11814 0.0
C222 C 0.90165 0.8669 0.62493 0.0
C223 C 0.858 0.86829 0.60651 0.0
H224 H 0.96118 0.89265 0.62236 0.0
C225 C 0.84019 0.90139 0.58202 0.0
H226 H 0.91621 0.84198 0.64461 0.0
C227 C 0.86594 0.93047 0.57003 0.0
C228 C 0.90976 0.92711 0.58293 0.0
H229 H 0.80677 0.90334 0.56699 0.0
H230 H 0.85184 0.95379 0.5456 0.0
C231 C 0.92736 0.89611 0.61306 0.0
C232 C 0.64893 0.39636 0.97975 0.0
C233 C 0.62981 0.3619 0.96375 0.0
H234 H 0.64259 0.44932 0.01894 0.0
C235 C 0.58636 0.35817 0.96307 0.0
H236 H 0.68237 0.40004 0.98092 0.0
C237 C 0.5636 0.38662 0.98411 0.0
C238 C 0.58387 0.41923 1.0059 0.0
H239 H 0.57067 0.33214 0.95019 0.0
H240 H 0.53126 0.38146 0.98861 0.0
C241 C 0.62611 0.42477 1.00101 0.0
C242 C 0.13765 0.98188 0.39128 0.0
C243 C 0.15366 0.9451 0.39188 0.0
H244 H 0.09637 0.02025 0.42395 0.0
C245 C 0.14363 0.9199 0.43124 0.0
H246 H 0.1451 1.00195 0.36162 0.0
C247 C 0.11581 0.93027 0.46638 0.0
C248 C 0.09781 0.96621 0.46357 0.0
H249 H 0.15507 0.8913 0.43251 0.0
H250 H 0.10659 0.90946 0.49384 0.0
C251 C 0.1102 0.99248 0.4273 0.0
C252 C 0.64237 0.57415 0.88941 0.0
C253 C 0.6529 0.61216 0.88615 0.0
H254 H 0.60426 0.53387 0.9228 0.0
C255 C 0.63639 0.63823 0.91981 0.0
H256 H 0.65481 0.55346 0.86407 0.0
C257 C 0.6075 0.62713 0.95271 0.0
C258 C 0.59504 0.58963 0.9535 0.0
H259 H 0.64349 0.66773 0.91788 0.0
H260 H 0.59309 0.64826 0.97532 0.0
C261 C 0.61389 0.56288 0.92336 0.0
C262 C 0.89539 0.12654 0.35383 0.0
C263 C 0.87902 0.10973 0.30317 0.0
H264 H 0.92929 0.11875 0.43551 0.0
C265 C 0.88398 0.07092 0.29731 0.0
H266 H 0.89237 0.15643 0.35964 0.0
C267 C 0.90515 0.04953 0.34038 0.0
C268 C 0.92197 0.06621 0.39086 0.0
H269 H 0.87108 0.05684 0.25942 0.0
H270 H 0.90824 0.01971 0.33391 0.0
C271 C 0.9167 0.105 0.39724 0.0
C272 C 0.36214 0.48501 0.80364 0.0
C273 C 0.38463 0.45678 0.78105 0.0
H274 H 0.36111 0.52429 0.86883 0.0
C275 C 0.4217 0.44263 0.8127 0.0
H276 H 0.33294 0.49586 0.78104 0.0
C277 C 0.43768 0.45871 0.86388 0.0
C278 C 0.41685 0.48922 0.8838 0.0
H279 H 0.43971 0.42084 0.79644 0.0
H280 H 0.4677 0.44913 0.88577 0.0
C281 C 0.37813 0.50112 0.85416 0.0
C282 C 0.58343 0.60646 0.28953 0.0
C283 C 0.62045 0.59324 0.32233 0.0
H284 H 0.53868 0.59863 0.21563 0.0
C285 C 0.64416 0.56537 0.30098 0.0
H286 H 0.56451 0.62797 0.30485 0.0
C287 C 0.62942 0.54867 0.25046 0.0
C288 C 0.59073 0.55958 0.21966 0.0
H289 H 0.67334 0.55525 0.32453 0.0
H290 H 0.64739 0.5258 0.23673 0.0
C291 C 0.56868 0.58977 0.23842 0.0
C292 C 0.88377 0.13019 0.73541 0.0
C293 C 0.86666 0.09935 0.75892 0.0
H294 H 0.9239 0.14896 0.68036 0.0
C295 C 0.8716 0.06343 0.73705 0.0
H296 H 0.88088 0.15818 0.75142 0.0
C297 C 0.89611 0.0582 0.69565 0.0
C298 C 0.91649 0.08876 0.67621 0.0
H299 H 0.85837 0.03919 0.75395 0.0
H300 H 0.90193 0.03 0.68232 0.0
C301 C 0.90856 0.12491 0.69472 0.0
C302 C 0.36397 0.47452 0.21207 0.0
C303 C 0.355 0.43646 0.21864 0.0
H304 H 0.40139 0.51436 0.17665 0.0
C305 C 0.37429 0.40943 0.18944 0.0
H306 H 0.34938 0.4959 0.23399 0.0
C307 C 0.40404 0.4199 0.15743 0.0
C308 C 0.41462 0.45765 0.15304 0.0
H309 H 0.36839 0.3799 0.19405 0.0
H310 H 0.42027 0.39824 0.13807 0.0
C311 C 0.3933 0.48509 0.17893 0.0
C312 C 0.0842 0.94269 0.79379 0.0
C313 C 0.12314 0.95388 0.82377 0.0
H314 H 0.03704 0.95249 0.72287 0.0
C315 C 0.14756 0.97942 0.79968 0.0
H316 H 0.06463 0.92304 0.81118 0.0
C317 C 0.13174 0.99626 0.74967 0.0
C318 C 0.09133 0.98766 0.72205 0.0
H319 H 0.17814 0.9879 0.82093 0.0
H320 H 0.15023 0.0177 0.73411 0.0
C321 C 0.06843 0.95942 0.74313 0.0
loop_
_geom_bond_atom_site_label_1
_geom_bond_atom_site_label_2
_geom_bond_distance
_geom_bond_site_symmetry_2
_ccdc_geom_bond_type
C0 C1 1.264 . S
C0 C5 1.479 . S
C0 C10 1.465 . S
C1 C0 1.264 . S
C1 C3 1.339 . S
C1 H28 0.931 . S
C2 C3 1.395 . S
C2 C4 1.320 . S
C3 C1 1.339 . S
C3 C2 1.395 . S
C3 H29 0.929 1_565 S
C4 C2 1.320 . S
C4 C5 1.405 . S
C4 H30 0.930 . S
C5 C0 1.479 . S
C5 C4 1.405 . S
C5 H31 0.931 . S
U6 O7 2.454 . S
U6 O8 2.458 . S
U6 C9 2.984 . S
U6 C10 2.847 . S
U6 C23 2.882 1_554 S
U6 O24 2.441 . S
U6 O25 2.420 . S
U6 O26 2.455 . S
U6 O27 2.449 . S
O7 U6 2.454 . S
O7 C9 1.353 . S
O8 U6 2.458 . S
O8 C9 1.286 . S
C9 U6 2.984 . S
C9 O7 1.353 . S
C9 O8 1.286 . S
C9 C11 1.363 . S
C10 C0 1.465 . S
C10 U6 2.847 . S
C10 O24 1.249 . S
C10 O25 1.202 . S
C11 C9 1.363 . S
C11 C13 1.408 . S
C11 C16 1.342 . S
C12 C13 1.310 . S
C12 C15 1.461 . S
C12 H32 0.932 . S
C13 C11 1.408 . S
C13 C12 1.310 . S
C13 H33 0.930 . S
C14 C15 1.474 . S
C14 C16 1.285 . S
C14 H34 0.929 . S
C15 C12 1.461 . S
C15 C14 1.474 . S
C16 C11 1.342 . S
C16 C14 1.285 . S
C16 H35 0.930 . S
C17 C20 1.424 . S
C17 C22 1.245 . S
C17 C23 1.428 . S
C18 C21 1.260 . S
C18 C22 1.477 . S
C18 H36 0.932 . S
C19 C20 1.384 . S
C19 C21 1.479 . S
C19 H37 0.929 1_565 S
C20 C17 1.424 . S
C20 C19 1.384 . S
C20 H38 0.928 . S
C21 C18 1.260 . S
C21 C19 1.479 . S
C22 C17 1.245 . S
C22 C18 1.477 . S
C22 H39 0.932 . S
C23 U6 2.882 1_556 S
C23 C17 1.428 . S
C23 O26 1.301 1_556 S
C23 O27 1.282 1_556 S
O24 U6 2.441 . S
O24 C10 1.249 . S
O25 U6 2.420 . S
O25 C10 1.202 . S
O26 U6 2.455 . S
O26 C23 1.301 1_554 S
O27 U6 2.449 . S
O27 C23 1.282 1_554 S
H28 C1 0.931 . S
H29 C3 0.929 1_545 S
H30 C4 0.930 . S
H31 C5 0.931 . S
H32 C12 0.932 . S
H33 C13 0.930 . S
H34 C14 0.929 . S
H35 C16 0.930 . S
H36 C18 0.932 . S
H37 C19 0.929 1_545 S
H38 C20 0.928 . S
H39 C22 0.932 . S
C40 C41 1.264 . S
C40 C45 1.479 . S
C40 C50 1.465 . S
C41 C40 1.264 . S
C41 C43 1.339 . S
C41 H68 0.931 . S
C42 C43 1.395 . S
C42 C44 1.320 . S
C43 C41 1.339 . S
C43 C42 1.395 . S
C43 H69 0.929 . S
C44 C42 1.320 . S
C44 C45 1.405 . S
C44 H70 0.930 . S
C45 C40 1.479 . S
C45 C44 1.405 . S
C45 H71 0.931 . S
U46 O47 2.454 . S
U46 O48 2.458 . S
U46 C49 2.984 . S
U46 C50 2.847 . S
U46 C63 2.882 . S
U46 O64 2.441 . S
U46 O65 2.420 . S
U46 O66 2.455 . S
U46 O67 2.449 . S
O47 U46 2.454 . S
O47 C49 1.353 . S
O48 U46 2.458 . S
O48 C49 1.286 . S
C49 U46 2.984 . S
C49 O47 1.353 . S
C49 O48 1.286 . S
C49 C51 1.363 . S
C50 C40 1.465 . S
C50 U46 2.847 . S
C50 O64 1.249 . S
C50 O65 1.202 . S
C51 C49 1.363 . S
C51 C53 1.408 . S
C51 C56 1.342 . S
C52 C53 1.310 . S
C52 C55 1.461 . S
C52 H72 0.932 . S
C53 C51 1.408 . S
C53 C52 1.310 . S
C53 H73 0.930 . S
C54 C55 1.474 . S
C54 C56 1.285 . S
C54 H74 0.929 . S
C55 C52 1.461 . S
C55 C54 1.474 . S
C56 C51 1.342 . S
C56 C54 1.285 . S
C56 H75 0.930 . S
C57 C60 1.424 . S
C57 C62 1.245 . S
C57 C63 1.428 . S
C58 C61 1.260 . S
C58 C62 1.477 . S
C58 H76 0.932 . S
C59 C60 1.384 . S
C59 C61 1.479 . S
C59 H77 0.929 . S
C60 C57 1.424 . S
C60 C59 1.384 . S
C60 H78 0.928 . S
C61 C58 1.260 . S
C61 C59 1.479 . S
C62 C57 1.245 . S
C62 C58 1.477 . S
C62 H79 0.932 . S
C63 U46 2.882 . S
C63 C57 1.428 . S
C63 O66 1.301 . S
C63 O67 1.282 . S
O64 U46 2.441 . S
O64 C50 1.249 . S
O65 U46 2.420 . S
O65 C50 1.202 . S
O66 U46 2.455 . S
O66 C63 1.301 . S
O67 U46 2.449 . S
O67 C63 1.282 . S
H68 C41 0.931 . S
H69 C43 0.929 . S
H70 C44 0.930 . S
H71 C45 0.931 . S
H72 C52 0.932 . S
H73 C53 0.930 . S
H74 C54 0.929 . S
H75 C56 0.930 . S
H76 C58 0.932 . S
H77 C59 0.929 . S
H78 C60 0.928 . S
H79 C62 0.932 . S
C80 C81 1.264 . S
C80 C85 1.479 . S
C80 C90 1.465 . S
C81 C80 1.264 . S
C81 C83 1.339 . S
C81 H108 0.931 . S
C82 C83 1.395 . S
C82 C84 1.320 . S
C83 C81 1.339 . S
C83 C82 1.395 . S
C83 H109 0.929 . S
C84 C82 1.320 . S
C84 C85 1.405 . S
C84 H110 0.930 . S
C85 C80 1.479 . S
C85 C84 1.405 . S
C85 H111 0.931 . S
U86 O87 2.454 . S
U86 O88 2.458 1_554 S
U86 C89 2.984 1_554 S
U86 C90 2.847 . S
U86 C103 2.882 1_554 S
U86 O104 2.441 . S
U86 O105 2.420 . S
U86 O106 2.455 1_554 S
U86 O107 2.449 1_554 S
O87 U86 2.454 . S
O87 C89 1.353 1_554 S
O88 U86 2.458 1_556 S
O88 C89 1.286 . S
C89 U86 2.984 1_556 S
C89 O87 1.353 1_556 S
C89 O88 1.286 . S
C89 C91 1.363 . S
C90 C80 1.465 . S
C90 U86 2.847 . S
C90 O104 1.249 . S
C90 O105 1.202 . S
C91 C89 1.363 . S
C91 C93 1.408 1_556 S
C91 C96 1.342 . S
C92 C93 1.310 . S
C92 C95 1.461 1_554 S
C92 H112 0.932 . S
C93 C91 1.408 1_554 S
C93 C92 1.310 . S
C93 H113 0.930 . S
C94 C95 1.474 . S
C94 C96 1.285 . S
C94 H114 0.929 . S
C95 C92 1.461 1_556 S
C95 C94 1.474 . S
C96 C91 1.342 . S
C96 C94 1.285 . S
C96 H115 0.930 . S
C97 C100 1.424 . S
C97 C102 1.245 . S
C97 C103 1.428 . S
C98 C101 1.260 . S
C98 C102 1.477 . S
C98 H116 0.932 . S
C99 C100 1.384 . S
C99 C101 1.479 . S
C99 H117 0.929 . S
C100 C97 1.424 . S
C100 C99 1.384 . S
C100 H118 0.928 . S
C101 C98 1.260 . S
C101 C99 1.479 . S
C102 C97 1.245 . S
C102 C98 1.477 . S
C102 H119 0.932 . S
C103 U86 2.882 1_556 S
C103 C97 1.428 . S
C103 O106 1.301 . S
C103 O107 1.282 . S
O104 U86 2.441 . S
O104 C90 1.249 . S
O105 U86 2.420 . S
O105 C90 1.202 . S
O106 U86 2.455 1_556 S
O106 C103 1.301 . S
O107 U86 2.449 1_556 S
O107 C103 1.282 . S
H108 C81 0.931 . S
H109 C83 0.929 . S
H110 C84 0.930 . S
H111 C85 0.931 . S
H112 C92 0.932 . S
H113 C93 0.930 . S
H114 C94 0.929 . S
H115 C96 0.930 . S
H116 C98 0.932 . S
H117 C99 0.929 . S
H118 C100 0.928 . S
H119 C102 0.932 . S
C120 C121 1.264 . S
C120 C125 1.479 . S
C120 C130 1.465 . S
C121 C120 1.264 . S
C121 C123 1.339 . S
C121 H148 0.931 . S
C122 C123 1.395 . S
C122 C124 1.320 . S
C123 C121 1.339 . S
C123 C122 1.395 . S
C123 H149 0.929 . S
C124 C122 1.320 . S
C124 C125 1.405 . S
C124 H150 0.930 . S
C125 C120 1.479 . S
C125 C124 1.405 . S
C125 H151 0.931 . S
U126 O127 2.454 . S
U126 O128 2.458 . S
U126 C129 2.984 . S
U126 C130 2.847 . S
U126 C143 2.882 . S
U126 O144 2.441 . S
U126 O145 2.420 . S
U126 O146 2.455 . S
U126 O147 2.449 . S
O127 U126 2.454 . S
O127 C129 1.353 . S
O128 U126 2.458 . S
O128 C129 1.286 . S
C129 U126 2.984 . S
C129 O127 1.353 . S
C129 O128 1.286 . S
C129 C131 1.363 . S
C130 C120 1.465 . S
C130 U126 2.847 . S
C130 O144 1.249 . S
C130 O145 1.202 . S
C131 C129 1.363 . S
C131 C133 1.408 . S
C131 C136 1.342 . S
C132 C133 1.310 . S
C132 C135 1.461 . S
C132 H152 0.932 . S
C133 C131 1.408 . S
C133 C132 1.310 . S
C133 H153 0.930 . S
C134 C135 1.474 . S
C134 C136 1.285 . S
C134 H154 0.929 . S
C135 C132 1.461 . S
C135 C134 1.474 . S
C136 C131 1.342 . S
C136 C134 1.285 . S
C136 H155 0.930 . S
C137 C140 1.424 . S
C137 C142 1.245 . S
C137 C143 1.428 . S
C138 C141 1.260 . S
C138 C142 1.477 . S
C138 H156 0.932 . S
C139 C140 1.384 . S
C139 C141 1.479 . S
C139 H157 0.929 . S
C140 C137 1.424 . S
C140 C139 1.384 . S
C140 H158 0.928 . S
C141 C138 1.260 . S
C141 C139 1.479 . S
C142 C137 1.245 . S
C142 C138 1.477 . S
C142 H159 0.932 . S
C143 U126 2.882 . S
C143 C137 1.428 . S
C143 O146 1.301 . S
C143 O147 1.282 . S
O144 U126 2.441 . S
O144 C130 1.249 . S
O145 U126 2.420 . S
O145 C130 1.202 . S
O146 U126 2.455 . S
O146 C143 1.301 . S
O147 U126 2.449 . S
O147 C143 1.282 . S
H148 C121 0.931 . S
H149 C123 0.929 . S
H150 C124 0.930 . S
H151 C125 0.931 . S
H152 C132 0.932 . S
H153 C133 0.930 . S
H154 C134 0.929 . S
H155 C136 0.930 . S
H156 C138 0.932 . S
H157 C139 0.929 . S
H158 C140 0.928 . S
H159 C142 0.932 . S
O160 Mg161 1.990 1_655 S
O160 C174 1.253 . S
Mg161 O160 1.990 1_455 S
Mg161 O164 2.180 . S
Mg161 O165 2.117 . S
Mg161 O179 2.030 . S
O162 Mg163 2.072 1_655 S
O162 C174 1.260 . S
Mg163 O162 2.072 1_455 S
Mg163 O164 2.099 . S
Mg163 O166 2.079 1_545 S
Mg163 O167 2.072 1_455 S
Mg163 O169 2.099 1_445 S
Mg163 O180 2.079 1_545 S
O164 Mg161 2.180 . S
O164 Mg163 2.099 . S
O164 C175 1.279 . S
O165 Mg161 2.117 . S
O165 C175 1.250 . S
O166 Mg163 2.079 1_565 S
O166 C176 1.264 . S
O167 Mg163 2.072 1_655 S
O167 C177 1.260 . S
Mg168 O169 2.180 . S
Mg168 O170 2.030 1_655 S
Mg168 O171 1.990 1_565 S
Mg168 O172 2.117 . S
O169 Mg163 2.099 1_665 S
O169 Mg168 2.180 . S
O169 C178 1.279 . S
O170 Mg168 2.030 1_455 S
O170 C176 1.248 . S
O171 Mg168 1.990 1_545 S
O171 C177 1.253 . S
O172 Mg168 2.117 . S
O172 C178 1.250 . S
C173 O179 1.248 1_565 S
C173 O180 1.264 . S
C174 O160 1.253 . S
C174 O162 1.260 . S
C175 O164 1.279 . S
C175 O165 1.250 . S
C176 O166 1.264 . S
C176 O170 1.248 . S
C177 O167 1.260 . S
C177 O171 1.253 . S
C178 O169 1.279 . S
C178 O172 1.250 . S
O179 Mg161 2.030 . S
O179 C173 1.248 1_545 S
O180 Mg163 2.079 1_565 S
O180 C173 1.264 . S
O181 Mg182 1.990 . S
O181 C195 1.253 . S
Mg182 O181 1.990 . S
Mg182 O185 2.180 . S
Mg182 O186 2.117 . S
Mg182 O200 2.030 . S
O183 Mg184 2.072 . S
O183 C195 1.260 . S
Mg184 O183 2.072 . S
Mg184 O185 2.099 . S
Mg184 O187 2.079 1_554 S
Mg184 O188 2.072 1_554 S
Mg184 O190 2.099 . S
Mg184 O201 2.079 . S
O185 Mg182 2.180 . S
O185 Mg184 2.099 . S
O185 C196 1.279 . S
O186 Mg182 2.117 . S
O186 C196 1.250 . S
O187 Mg184 2.079 1_556 S
O187 C197 1.264 . S
O188 Mg184 2.072 1_556 S
O188 C198 1.260 . S
Mg189 O190 2.180 1_556 S
Mg189 O191 2.030 . S
Mg189 O192 1.990 . S
Mg189 O193 2.117 . S
O190 Mg184 2.099 . S
O190 Mg189 2.180 1_554 S
O190 C199 1.279 . S
O191 Mg189 2.030 . S
O191 C197 1.248 . S
O192 Mg189 1.990 . S
O192 C198 1.253 . S
O193 Mg189 2.117 . S
O193 C199 1.250 1_556 S
C194 O200 1.248 . S
C194 O201 1.264 . S
C195 O181 1.253 . S
C195 O183 1.260 . S
C196 O185 1.279 . S
C196 O186 1.250 . S
C197 O187 1.264 . S
C197 O191 1.248 . S
C198 O188 1.260 . S
C198 O192 1.253 . S
C199 O190 1.279 . S
C199 O193 1.250 1_554 S
O200 Mg182 2.030 . S
O200 C194 1.248 . S
O201 Mg184 2.079 . S
O201 C194 1.264 . S
C202 C203 1.387 . S
C202 H206 0.950 . S
C202 C211 1.390 . S
C203 C202 1.387 . S
C203 C205 1.387 . S
H204 C211 0.950 . S
C205 C203 1.387 . S
C205 C207 1.390 . S
C205 H209 0.950 . S
H206 C202 0.950 . S
C207 C205 1.390 . S
C207 C208 1.387 . S
C207 H210 0.950 . S
C208 C207 1.387 . S
C208 C211 1.387 . S
H209 C205 0.950 . S
H210 C207 0.950 . S
C211 C202 1.390 . S
C211 H204 0.950 . S
C211 C208 1.387 . S
C212 C213 1.387 . S
C212 H216 0.950 . S
C212 C221 1.390 . S
C213 C212 1.387 . S
C213 C215 1.387 . S
H214 C221 0.950 . S
C215 C213 1.387 . S
C215 C217 1.390 . S
C215 H219 0.950 . S
H216 C212 0.950 . S
C217 C215 1.390 . S
C217 C218 1.387 . S
C217 H220 0.950 . S
C218 C217 1.387 . S
C218 C221 1.387 . S
H219 C215 0.950 . S
H220 C217 0.950 . S
C221 C212 1.390 . S
C221 H214 0.950 . S
C221 C218 1.387 . S
C222 C223 1.387 . S
C222 H226 0.950 . S
C222 C231 1.390 . S
C223 C222 1.387 . S
C223 C225 1.387 . S
H224 C231 0.950 . S
C225 C223 1.387 . S
C225 C227 1.390 . S
C225 H229 0.950 . S
H226 C222 0.950 . S
C227 C225 1.390 . S
C227 C228 1.387 . S
C227 H230 0.950 . S
C228 C227 1.387 . S
C228 C231 1.387 . S
H229 C225 0.950 . S
H230 C227 0.950 . S
C231 C222 1.390 . S
C231 H224 0.950 . S
C231 C228 1.387 . S
C232 C233 1.387 . S
C232 H236 0.950 . S
C232 C241 1.390 . S
C233 C232 1.387 . S
C233 C235 1.387 1_556 S
H234 C241 0.950 . S
C235 C233 1.387 1_554 S
C235 C237 1.390 . S
C235 H239 0.950 . S
H236 C232 0.950 . S
C237 C235 1.390 . S
C237 C238 1.387 . S
C237 H240 0.950 . S
C238 C237 1.387 . S
C238 C241 1.387 1_554 S
H239 C235 0.950 . S
H240 C237 0.950 . S
C241 C232 1.390 . S
C241 H234 0.950 . S
C241 C238 1.387 1_556 S
C242 C243 1.387 1_545 S
C242 H246 0.950 . S
C242 C251 1.390 . S
C243 C242 1.387 1_565 S
C243 C245 1.387 . S
H244 C251 0.950 . S
C245 C243 1.387 . S
C245 C247 1.390 . S
C245 H249 0.950 . S
H246 C242 0.950 . S
C247 C245 1.390 . S
C247 C248 1.387 . S
C247 H250 0.950 . S
C248 C247 1.387 . S
C248 C251 1.387 1_565 S
H249 C245 0.950 . S
H250 C247 0.950 . S
C251 C242 1.390 . S
C251 H244 0.950 . S
C251 C248 1.387 1_545 S
C252 C253 1.387 . S
C252 H256 0.950 . S
C252 C261 1.390 . S
C253 C252 1.387 . S
C253 C255 1.387 . S
H254 C261 0.950 . S
C255 C253 1.387 . S
C255 C257 1.390 . S
C255 H259 0.950 . S
H256 C252 0.950 . S
C257 C255 1.390 . S
C257 C258 1.387 . S
C257 H260 0.950 . S
C258 C257 1.387 . S
C258 C261 1.387 . S
H259 C255 0.950 . S
H260 C257 0.950 . S
C261 C252 1.390 . S
C261 H254 0.950 . S
C261 C258 1.387 . S
C262 C263 1.387 . S
C262 H266 0.950 . S
C262 C271 1.390 . S
C263 C262 1.387 . S
C263 C265 1.387 . S
H264 C271 0.950 . S
C265 C263 1.387 . S
C265 C267 1.390 . S
C265 H269 0.950 . S
H266 C262 0.950 . S
C267 C265 1.390 . S
C267 C268 1.387 . S
C267 H270 0.950 1_545 S
C268 C267 1.387 . S
C268 C271 1.387 . S
H269 C265 0.950 . S
H270 C267 0.950 1_565 S
C271 C262 1.390 . S
C271 H264 0.950 . S
C271 C268 1.387 . S
C272 C273 1.387 . S
C272 H276 0.950 . S
C272 C281 1.390 . S
C273 C272 1.387 . S
C273 C275 1.387 . S
H274 C281 0.950 . S
C275 C273 1.387 . S
C275 C277 1.390 . S
C275 H279 0.950 . S
H276 C272 0.950 . S
C277 C275 1.390 . S
C277 C278 1.387 . S
C277 H280 0.950 . S
C278 C277 1.387 . S
C278 C281 1.387 . S
H279 C275 0.950 . S
H280 C277 0.950 . S
C281 C272 1.390 . S
C281 H274 0.950 . S
C281 C278 1.387 . S
C282 C283 1.387 . S
C282 H286 0.950 . S
C282 C291 1.390 . S
C283 C282 1.387 . S
C283 C285 1.387 . S
H284 C291 0.950 . S
C285 C283 1.387 . S
C285 C287 1.390 . S
C285 H289 0.950 . S
H286 C282 0.950 . S
C287 C285 1.390 . S
C287 C288 1.387 . S
C287 H290 0.950 . S
C288 C287 1.387 . S
C288 C291 1.387 . S
H289 C285 0.950 . S
H290 C287 0.950 . S
C291 C282 1.390 . S
C291 H284 0.950 . S
C291 C288 1.387 . S
C292 C293 1.387 . S
C292 H296 0.950 . S
C292 C301 1.390 . S
C293 C292 1.387 . S
C293 C295 1.387 . S
H294 C301 0.950 . S
C295 C293 1.387 . S
C295 C297 1.390 . S
C295 H299 0.950 . S
H296 C292 0.950 . S
C297 C295 1.390 . S
C297 C298 1.387 . S
C297 H300 0.950 1_545 S
C298 C297 1.387 . S
C298 C301 1.387 . S
H299 C295 0.950 . S
H300 C297 0.950 1_565 S
C301 C292 1.390 . S
C301 H294 0.950 . S
C301 C298 1.387 . S
C302 C303 1.387 . S
C302 H306 0.950 . S
C302 C311 1.390 . S
C303 C302 1.387 . S
C303 C305 1.387 . S
H304 C311 0.950 . S
C305 C303 1.387 . S
C305 C307 1.390 . S
C305 H309 0.950 . S
H306 C302 0.950 . S
C307 C305 1.390 . S
C307 C308 1.387 . S
C307 H310 0.950 . S
C308 C307 1.387 . S
C308 C311 1.387 . S
H309 C305 0.950 . S
H310 C307 0.950 . S
C311 C302 1.390 . S
C311 H304 0.950 . S
C311 C308 1.387 . S
C312 C313 1.387 . S
C312 H316 0.950 . S
C312 C321 1.390 . S
C313 C312 1.387 . S
C313 C315 1.387 1_565 S
H314 C321 0.950 . S
C315 C313 1.387 1_545 S
C315 C317 1.390 . S
C315 H319 0.950 . S
H316 C312 0.950 . S
C317 C315 1.390 . S
C317 C318 1.387 1_545 S
C317 H320 0.950 . S
C318 C317 1.387 1_565 S
C318 C321 1.387 . S
H319 C315 0.950 . S
H320 C317 0.950 . S
C321 C312 1.390 . S
C321 H314 0.950 . S
C321 C318 1.387 . S
C208 C175 1.487 . S
C203 C135 1.616 . S
C213 C15 1.612 . S
C218 C199 1.479 . S
C223 C55 1.698 . S
C228 C178 1.538 . S
C233 C95 1.716 . S
C238 C196 1.571 . S
C248 C176 1.737 . S
C243 C2 1.717 . S
C258 C198 1.654 . S
C253 C42 1.603 . S
C263 C82 1.642 . S
C268 C177 1.521 . S
C273 C141 1.695 . S
C278 C197 1.574 . S
C288 C195 1.547 . S
C283 C61 1.579 . S
C298 C174 1.686 . S
C293 C101 1.696 . S
C308 C194 1.759 . S
C303 C122 1.740 . S
C313 C21 1.719 . S
C318 C173 1.599 . S
