# Generated by pormake.
# Topology csq, (4,8)-cn, num edge types: 1
# Building blocks:
#     Node 0, Type 0, BuildingBlock: MUDLON_clean_sbu_0, # of connection points: 4
#     Node 1, Type 0, BuildingBlock: MUDLON_clean_sbu_0, # of connection points: 4
#     Node 2, Type 0, BuildingBlock: MUDLON_clean_sbu_0, # of connection points: 4
#     Node 3, Type 0, BuildingBlock: MUDLON_clean_sbu_0, # of connection points: 4
#     Node 4, Type 0, BuildingBlock: MUDLON_clean_sbu_0, # of connection points: 4
#     Node 5, Type 0, BuildingBlock: MUDLON_clean_sbu_0, # of connection points: 4
#     Node 6, Type 1, BuildingBlock: TAGTUT_clean_sbu_1, # of connection points: 8
#     Node 7, Type 1, BuildingBlock: TAGTUT_clean_sbu_1, # of connection points: 8
#     Node 8, Type 1, BuildingBlock: TAGTUT_clean_sbu_1, # of connection points: 8
#     Edge 9, Type (0, 1), BuildingBlock: ZUJKAS_clean_linker_0, # of connection points: 2
#     Edge 10, Type (0, 1), BuildingBlock: ZUJKAS_clean_linker_0, # of connection points: 2
#     Edge 11, Type (0, 1), BuildingBlock: ZUJKAS_clean_linker_0, # of connection points: 2
#     Edge 12, Type (0, 1), BuildingBlock: ZUJKAS_clean_linker_0, # of connection points: 2
#     Edge 13, Type (0, 1), BuildingBlock: ZUJKAS_clean_linker_0, # of connection points: 2
#     Edge 14, Type (0, 1), BuildingBlock: ZUJKAS_clean_linker_0, # of connection points: 2
#     Edge 15, Type (0, 1), BuildingBlock: ZUJKAS_clean_linker_0, # of connection points: 2
#     Edge 16, Type (0, 1), BuildingBlock: ZUJKAS_clean_linker_0, # of connection points: 2
#     Edge 17, Type (0, 1), BuildingBlock: ZUJKAS_clean_linker_0, # of connection points: 2
#     Edge 18, Type (0, 1), BuildingBlock: ZUJKAS_clean_linker_0, # of connection points: 2
#     Edge 19, Type (0, 1), BuildingBlock: ZUJKAS_clean_linker_0, # of connection points: 2
#     Edge 20, Type (0, 1), BuildingBlock: ZUJKAS_clean_linker_0, # of connection points: 2
#     Edge 21, Type (0, 1), BuildingBlock: ZUJKAS_clean_linker_0, # of connection points: 2
#     Edge 22, Type (0, 1), BuildingBlock: ZUJKAS_clean_linker_0, # of connection points: 2
#     Edge 23, Type (0, 1), BuildingBlock: ZUJKAS_clean_linker_0, # of connection points: 2
#     Edge 24, Type (0, 1), BuildingBlock: ZUJKAS_clean_linker_0, # of connection points: 2
#     Edge 25, Type (0, 1), BuildingBlock: ZUJKAS_clean_linker_0, # of connection points: 2
#     Edge 26, Type (0, 1), BuildingBlock: ZUJKAS_clean_linker_0, # of connection points: 2
#     Edge 27, Type (0, 1), BuildingBlock: ZUJKAS_clean_linker_0, # of connection points: 2
#     Edge 28, Type (0, 1), BuildingBlock: ZUJKAS_clean_linker_0, # of connection points: 2
#     Edge 29, Type (0, 1), BuildingBlock: ZUJKAS_clean_linker_0, # of connection points: 2
#     Edge 30, Type (0, 1), BuildingBlock: ZUJKAS_clean_linker_0, # of connection points: 2
#     Edge 31, Type (0, 1), BuildingBlock: ZUJKAS_clean_linker_0, # of connection points: 2
#     Edge 32, Type (0, 1), BuildingBlock: ZUJKAS_clean_linker_0, # of connection points: 2
# Relax obj value: 0.064
# Max RMSD: 0.138
# Mean RMSD: 0.100
data_MOF--net-csq--node1-MUDLON_clean_sbu_0--node2-TAGTUT_clean_sbu_1--edge1-ZUJKAS_clean_linker_0
_symmetry_space_group_name_H-M    P1
_symmetry_Int_Tables_number       1
_symmetry_cell_setting            triclinic
loop_
_symmetry_equiv_pos_as_xyz
'x, y, z'
_cell_length_a     63.25778
_cell_length_b     62.695672
_cell_length_c     25.837957
_cell_angle_alpha  92.102479
_cell_angle_beta   92.049419
_cell_angle_gamma 120.05506
loop_
_atom_site_label
_atom_site_type_symbol
_atom_site_fract_x
_atom_site_fract_y
_atom_site_fract_z
_atom_type_partial_charge
Mg0 Mg 0.25396 0.48039 0.15625 0.0
C1 C 0.2355 0.4828 0.05474 0.0
O2 O 0.23002 0.45986 0.05999 0.0
C3 C 0.27711 0.49219 0.26283 0.0
O4 O 0.25545 0.47285 0.2676 0.0
C5 C 0.21484 0.4809 0.20992 0.0
O6 O 0.22848 0.50298 0.193 0.0
O7 O 0.21981 0.46413 0.19698 0.0
O8 O 0.247 0.49864 0.0926 0.0
O9 O 0.26715 0.4589 0.11272 0.0
C10 C 0.29032 0.46857 0.11237 0.0
O11 O 0.30424 0.48751 0.14503 0.0
O12 O 0.28221 0.50147 0.21872 0.0
Mg13 Mg 0.78109 0.25383 0.1386 0.0
C14 C 0.81346 0.25833 0.05097 0.0
O15 O 0.79206 0.24654 0.0251 0.0
C16 C 0.75218 0.20922 0.20102 0.0
O17 O 0.73973 0.20075 0.156 0.0
C18 C 0.80704 0.30923 0.15529 0.0
O19 O 0.81369 0.30765 0.10836 0.0
O20 O 0.79096 0.28967 0.17453 0.0
O21 O 0.81421 0.26121 0.10014 0.0
O22 O 0.74927 0.23734 0.08328 0.0
C23 C 0.74565 0.24654 0.04318 0.0
O24 O 0.7617 0.26928 0.03319 0.0
O25 O 0.77167 0.23023 0.20415 0.0
Mg26 Mg 0.51161 0.75361 0.07632 0.0
C27 C 0.53294 0.79592 0.16139 0.0
O28 O 0.55231 0.794 0.15309 0.0
C29 C 0.53142 0.73218 0.99491 0.0
O30 O 0.55102 0.75373 0.00723 0.0
C31 C 0.52971 0.79864 0.00843 0.0
O32 O 0.55013 0.80351 0.03395 0.0
O33 O 0.5102 0.77856 0.0155 0.0
O34 O 0.51262 0.78065 0.13776 0.0
O35 O 0.51325 0.72871 0.13719 0.0
C36 C 0.53287 0.72793 0.14395 0.0
O37 O 0.55194 0.74271 0.11857 0.0
O38 O 0.51146 0.72706 0.0147 0.0
Mg39 Mg 0.78123 0.52674 0.09966 0.0
C40 C 0.74267 0.52435 0.02974 0.0
O41 O 0.73314 0.50274 0.04992 0.0
C42 C 0.83061 0.55252 0.1579 0.0
O43 O 0.83476 0.54055 0.12056 0.0
C44 C 0.74347 0.51857 0.16952 0.0
O45 O 0.75098 0.54032 0.1511 0.0
O46 O 0.7529 0.5059 0.15348 0.0
O47 O 0.7645 0.54073 0.04476 0.0
O48 O 0.79635 0.50834 0.05176 0.0
C49 C 0.793 0.50654 1.00244 0.0
O50 O 0.77754 0.51238 0.98142 0.0
O51 O 0.8106 0.55276 0.1553 0.0
Mg52 Mg 0.25219 0.76974 0.112 0.0
C53 C 0.22836 0.71444 0.10351 0.0
O54 O 0.2203 0.7172 0.14799 0.0
C55 C 0.28261 0.78258 0.21825 0.0
O56 O 0.26621 0.76031 0.23026 0.0
C57 C 0.21361 0.76586 0.18475 0.0
O58 O 0.2329 0.78134 0.21483 0.0
O59 O 0.21657 0.76094 0.13832 0.0
O60 O 0.24499 0.73349 0.08373 0.0
O61 O 0.26364 0.79169 0.04426 0.0
C62 C 0.28135 0.79128 0.02326 0.0
O63 O 0.2902 0.77831 0.044 0.0
O64 O 0.28106 0.78965 0.17342 0.0
Mg65 Mg 0.43462 0.22089 0.21551 0.0
C66 C 0.39095 0.21949 0.26863 0.0
O67 O 0.36874 0.20827 0.28507 0.0
C68 C 0.44485 0.19565 0.12593 0.0
O69 O 0.45736 0.21843 0.11175 0.0
C70 C 0.46293 0.27477 0.18007 0.0
O71 O 0.47596 0.28059 0.22442 0.0
O72 O 0.44603 0.2526 0.16924 0.0
O73 O 0.39794 0.20724 0.2411 0.0
O74 O 0.45909 0.22371 0.27974 0.0
C75 C 0.47799 0.22271 0.2684 0.0
O76 O 0.48436 0.22558 0.2202 0.0
O77 O 0.43285 0.19137 0.16635 0.0
C78 C 0.99854 0.44065 0.76204 0.0
C79 C 0.06845 0.48431 0.69422 0.0
C80 C 0.05332 0.5592 0.70876 0.0
Mg81 Mg 0.01488 0.45581 0.65 0.0
O82 O 0.01055 0.48222 0.6734 0.0
Mg83 Mg 0.02937 0.50157 0.73925 0.0
Mg84 Mg 0.02022 0.5104 0.62803 0.0
O85 O 0.03016 0.53856 0.58262 0.0
Mg86 Mg 0.02848 0.56655 0.60502 0.0
Mg87 Mg 0.0113 0.51988 0.51665 0.0
C88 C 0.98789 0.46237 0.54749 0.0
C89 C 0.05352 0.50551 0.53797 0.0
O90 O 0.00893 0.46365 0.77747 0.0
O91 O 0.99834 0.43338 0.71481 0.0
O92 O 0.06135 0.49578 0.72415 0.0
O93 O 0.054 0.46835 0.65866 0.0
O94 O 0.9944 0.44918 0.57363 0.0
O95 O 0.99374 0.48442 0.56349 0.0
C96 C 0.98545 0.51308 0.7169 0.0
O97 O 0.99001 0.51526 0.66856 0.0
O98 O 0.99782 0.508 0.74927 0.0
O99 O 0.03267 0.55762 0.47751 0.0
O100 O 0.04648 0.58811 0.54067 0.0
O101 O 0.9806 0.52846 0.53041 0.0
C102 C 0.04485 0.58068 0.49296 0.0
O103 O 0.99054 0.5575 0.59408 0.0
O104 O 0.04803 0.57303 0.68188 0.0
C105 C 0.97531 0.54209 0.55869 0.0
O106 O 0.04646 0.53684 0.69295 0.0
O107 O 0.04973 0.50437 0.58675 0.0
O108 O 0.04159 0.51138 0.50615 0.0
C109 C 0.46982 0.02836 0.7877 0.0
C110 C 0.44268 0.96126 0.69335 0.0
C111 C 0.53676 0.98436 0.68876 0.0
Mg112 Mg 0.4654 0.01572 0.66874 0.0
O113 O 0.49694 0.02136 0.68568 0.0
Mg114 Mg 0.50089 0.00168 0.74074 0.0
Mg115 Mg 0.5145 0.01522 0.63028 0.0
O116 O 0.53192 0.00899 0.57472 0.0
Mg117 Mg 0.56331 0.01384 0.5896 0.0
Mg118 Mg 0.52731 0.02778 0.51853 0.0
C119 C 0.49279 0.04655 0.57176 0.0
C120 C 0.47398 0.98021 0.53721 0.0
O121 O 0.4833 0.01853 0.79451 0.0
O122 O 0.46158 0.02974 0.74261 0.0
O123 O 0.4624 0.96788 0.72108 0.0
O124 O 0.44024 0.97637 0.66533 0.0
O125 O 0.47424 0.03788 0.60015 0.0
O126 O 0.51039 0.04215 0.5796 0.0
C127 C 0.55405 0.04998 0.72456 0.0
O128 O 0.54964 0.04646 0.67506 0.0
O129 O 0.53863 0.03557 0.75572 0.0
O130 O 0.54296 0.00905 0.46493 0.0
O131 O 0.56511 0.99799 0.51595 0.0
O132 O 0.56658 0.06114 0.53412 0.0
C133 C 0.55595 0.99868 0.47136 0.0
O134 O 0.58918 0.05294 0.58923 0.0
O135 O 0.55511 0.9927 0.65984 0.0
C136 C 0.58676 0.06772 0.56005 0.0
O137 O 0.51904 0.98857 0.68056 0.0
O138 O 0.47906 0.98385 0.58646 0.0
O139 O 0.48909 0.99441 0.50542 0.0
C140 C 0.54451 0.54942 0.45978 0.0
C141 C 0.57409 0.50514 0.52116 0.0
C142 C 0.48134 0.4387 0.55575 0.0
Mg143 Mg 0.55875 0.54059 0.57059 0.0
O144 O 0.52562 0.51588 0.56286 0.0
Mg145 Mg 0.5151 0.49141 0.50173 0.0
Mg146 Mg 0.5114 0.49285 0.61926 0.0
O147 O 0.49781 0.4699 0.67645 0.0
Mg148 Mg 0.4662 0.44253 0.67269 0.0
Mg149 Mg 0.50823 0.49425 0.73755 0.0
C150 C 0.54116 0.54626 0.68359 0.0
C151 C 0.55713 0.4978 0.6919 0.0
O152 O 0.52978 0.52599 0.45165 0.0
O153 O 0.55717 0.55896 0.50288 0.0
O154 O 0.55231 0.49307 0.50024 0.0
O155 O 0.58063 0.52352 0.5538 0.0
O156 O 0.55707 0.55491 0.64887 0.0
O157 O 0.52184 0.5248 0.67756 0.0
C158 C 0.46747 0.49118 0.54571 0.0
O159 O 0.47463 0.49084 0.59277 0.0
O160 O 0.47952 0.4909 0.50726 0.0
O161 O 0.49577 0.46093 0.78957 0.0
O162 O 0.47077 0.42593 0.7411 0.0
O163 O 0.46933 0.48953 0.74202 0.0
C164 C 0.48279 0.43725 0.78396 0.0
O165 O 0.44195 0.45602 0.69347 0.0
O166 O 0.46679 0.42932 0.5927 0.0
C167 C 0.44723 0.47457 0.72466 0.0
O168 O 0.50032 0.46048 0.56074 0.0
O169 O 0.54871 0.49641 0.64516 0.0
O170 O 0.54518 0.49725 0.7312 0.0
H171 H 0.19763 0.51175 0.23301 0.0
H172 H 0.17173 0.50969 0.30219 0.0
H173 H 0.16481 0.44075 0.34487 0.0
H174 H 0.19102 0.44264 0.27473 0.0
H175 H 0.12027 0.44126 0.34354 0.0
H176 H 0.19313 0.52332 0.45713 0.0
H177 H 0.19075 0.52962 0.39067 0.0
H178 H 0.19957 0.50726 0.40616 0.0
C179 C 0.19059 0.49603 0.25682 0.0
C180 C 0.19659 0.47743 0.24842 0.0
C181 C 0.17591 0.49501 0.29678 0.0
C182 C 0.16688 0.47546 0.32978 0.0
C183 C 0.17188 0.45621 0.32034 0.0
H184 H 0.08927 0.49864 0.58782 0.0
H185 H 0.11708 0.48716 0.54662 0.0
C186 C 0.18671 0.45723 0.28006 0.0
C187 C 0.15185 0.47535 0.37303 0.0
H188 H 0.1515 0.51283 0.47221 0.0
C189 C 0.12725 0.45661 0.37244 0.0
C190 C 0.16098 0.49506 0.41165 0.0
C191 C 0.18764 0.51481 0.41688 0.0
C192 C 0.11112 0.45819 0.40644 0.0
C193 C 0.11972 0.47922 0.44142 0.0
C194 C 0.14477 0.49685 0.44506 0.0
C195 C 0.10256 0.48502 0.4682 0.0
C196 C 0.08475 0.43773 0.40323 0.0
C197 C 0.08556 0.4881 0.43801 0.0
C198 C 0.06996 0.49471 0.46115 0.0
C199 C 0.07083 0.49861 0.51545 0.0
C200 C 0.08795 0.49563 0.54604 0.0
C201 C 0.10384 0.48908 0.52252 0.0
H202 H 0.083 0.41984 0.38975 0.0
H203 H 0.07657 0.43562 0.44135 0.0
H204 H 0.07411 0.44206 0.37472 0.0
H205 H 0.08459 0.48574 0.39607 0.0
H206 H 0.05709 0.49674 0.43597 0.0
H207 H 0.76789 0.22547 0.30296 0.0
H208 H 0.74695 0.2058 0.38045 0.0
H209 H 0.69097 0.14444 0.28383 0.0
H210 H 0.71177 0.16371 0.20662 0.0
H211 H 0.70019 0.1944 0.40354 0.0
H212 H 0.70685 0.10976 0.39564 0.0
H213 H 0.72575 0.136 0.35891 0.0
H214 H 0.69498 0.11382 0.33503 0.0
C215 C 0.75138 0.20755 0.29829 0.0
C216 C 0.74154 0.19615 0.24849 0.0
C217 C 0.73938 0.19639 0.34263 0.0
C218 C 0.71752 0.17352 0.33806 0.0
C219 C 0.70806 0.16185 0.28851 0.0
H220 H 0.58902 0.10334 0.49856 0.0
H221 H 0.62458 0.1332 0.45552 0.0
C222 C 0.71995 0.17298 0.24427 0.0
C223 C 0.70349 0.1625 0.38429 0.0
H224 H 0.67451 0.10842 0.44455 0.0
C225 C 0.69493 0.17575 0.41316 0.0
C226 C 0.69695 0.13836 0.39759 0.0
C227 C 0.70683 0.12376 0.3705 0.0
C228 C 0.67878 0.16494 0.45271 0.0
C229 C 0.67067 0.14008 0.46311 0.0
C230 C 0.68048 0.12741 0.43644 0.0
C231 C 0.65036 0.12596 0.4974 0.0
C232 C 0.67029 0.18015 0.48237 0.0
C233 C 0.65294 0.11229 0.53651 0.0
C234 C 0.63247 0.09494 0.56115 0.0
C235 C 0.60894 0.09073 0.54666 0.0
C236 C 0.60679 0.10598 0.51069 0.0
C237 C 0.62722 0.12325 0.48609 0.0
H238 H 0.68428 0.2001 0.48396 0.0
H239 H 0.6534 0.17783 0.46226 0.0
H240 H 0.66621 0.17435 0.52262 0.0
H241 H 0.67059 0.11406 0.54598 0.0
H242 H 0.63489 0.0836 0.58867 0.0
H243 H 0.57163 0.7209 0.1633 0.0
H244 H 0.5727 0.68908 0.21319 0.0
H245 H 0.49734 0.6607 0.24741 0.0
H246 H 0.49615 0.69272 0.19795 0.0
H247 H 0.52712 0.66528 0.3335 0.0
H248 H 0.54116 0.61573 0.16821 0.0
H249 H 0.56323 0.64815 0.17475 0.0
H250 H 0.53154 0.63811 0.15943 0.0
C251 C 0.55526 0.70794 0.18147 0.0
C252 C 0.53376 0.70933 0.17644 0.0
C253 C 0.55586 0.68962 0.20964 0.0
C254 C 0.53496 0.6722 0.23311 0.0
C255 C 0.51362 0.67383 0.2292 0.0
H256 H 0.51459 0.53824 0.37106 0.0
H257 H 0.512 0.56738 0.31416 0.0
C258 C 0.51299 0.69218 0.20099 0.0
C259 C 0.53562 0.65269 0.26286 0.0
H260 H 0.54683 0.60475 0.25295 0.0
C261 C 0.53129 0.65196 0.31582 0.0
C262 C 0.54072 0.63508 0.23958 0.0
C263 C 0.54419 0.63408 0.18226 0.0
C264 C 0.53263 0.63459 0.34647 0.0
C265 C 0.53882 0.61772 0.32372 0.0
C266 C 0.54241 0.61792 0.27043 0.0
C267 C 0.54182 0.59992 0.35501 0.0
C268 C 0.52723 0.63434 0.40295 0.0
C269 C 0.56004 0.6085 0.39555 0.0
C270 C 0.56162 0.59196 0.42801 0.0
C271 C 0.54507 0.56641 0.4205 0.0
C272 C 0.52764 0.55776 0.37805 0.0
C273 C 0.52607 0.57439 0.34555 0.0
H274 H 0.51677 0.64387 0.41099 0.0
H275 H 0.51666 0.61513 0.41517 0.0
H276 H 0.54474 0.64406 0.42702 0.0
H277 H 0.57272 0.6281 0.40282 0.0
H278 H 0.57543 0.59933 0.45995 0.0
H279 H 0.8742 0.55424 0.1754 0.0
H280 H 0.89545 0.55833 0.25892 0.0
H281 H 0.84368 0.57196 0.33624 0.0
H282 H 0.82185 0.56735 0.25246 0.0
H283 H 0.91742 0.59433 0.33821 0.0
H284 H 0.83628 0.51107 0.40454 0.0
H285 H 0.83832 0.51958 0.3382 0.0
H286 H 0.83168 0.53603 0.3873 0.0
C287 C 0.86748 0.55849 0.20998 0.0
C288 C 0.84611 0.56015 0.20717 0.0
C289 C 0.87969 0.56082 0.25783 0.0
C290 C 0.87085 0.56487 0.30404 0.0
C291 C 0.8505 0.56826 0.30122 0.0
H292 H 0.96565 0.57969 0.57843 0.0
H293 H 0.9368 0.58705 0.52723 0.0
C294 C 0.8382 0.56588 0.25319 0.0
C295 C 0.88233 0.56402 0.35464 0.0
H296 H 0.87234 0.52842 0.45828 0.0
C297 C 0.90751 0.58021 0.36502 0.0
C298 C 0.86936 0.5454 0.38932 0.0
C299 C 0.84246 0.52687 0.37936 0.0
C300 C 0.92032 0.57762 0.40761 0.0
C301 C 0.90748 0.55861 0.44161 0.0
C302 C 0.88209 0.54312 0.43257 0.0
C303 C 0.92065 0.55227 0.48155 0.0
C304 C 0.94777 0.59423 0.41371 0.0
C305 C 0.91968 0.52945 0.47601 0.0
C306 C 0.93583 0.52503 0.50568 0.0
C307 C 0.95337 0.5434 0.54148 0.0
C308 C 0.95247 0.56518 0.55108 0.0
C309 C 0.93619 0.56956 0.52133 0.0
H310 H 0.95527 0.60492 0.37901 0.0
H311 H 0.95255 0.60756 0.4476 0.0
H312 H 0.95687 0.58327 0.42067 0.0
H313 H 0.90767 0.51568 0.44603 0.0
H314 H 0.93581 0.50793 0.49764 0.0
H315 H 0.28957 0.77554 0.32056 0.0
H316 H 0.31846 0.80643 0.38707 0.0
H317 H 0.34651 0.86085 0.27266 0.0
H318 H 0.31784 0.83037 0.2063 0.0
H319 H 0.37083 0.83609 0.39081 0.0
H320 H 0.32699 0.8935 0.38846 0.0
H321 H 0.31184 0.86206 0.36102 0.0
H322 H 0.33374 0.88682 0.32503 0.0
C323 C 0.30198 0.79405 0.3095 0.0
C324 C 0.30123 0.80048 0.25808 0.0
C325 C 0.31844 0.81168 0.3476 0.0
C326 C 0.33428 0.83606 0.33504 0.0
C327 C 0.33408 0.84229 0.28348 0.0
H328 H 0.45391 0.97299 0.4388 0.0
H329 H 0.41794 0.93654 0.39888 0.0
C330 C 0.31774 0.82475 0.24548 0.0
C331 C 0.35121 0.8552 0.37526 0.0
H332 H 0.36799 0.91287 0.42672 0.0
C333 C 0.36999 0.85269 0.39953 0.0
C334 C 0.34993 0.87675 0.3869 0.0
C335 C 0.32939 0.8799 0.3644 0.0
C336 C 0.38847 0.87189 0.43242 0.0
C337 C 0.38792 0.89399 0.44167 0.0
C338 C 0.36842 0.89594 0.41953 0.0
C339 C 0.40888 0.91638 0.46849 0.0
C340 C 0.40923 0.86902 0.4546 0.0
C341 C 0.41549 0.91743 0.52145 0.0
C342 C 0.43622 0.93847 0.54474 0.0
C343 C 0.45066 0.9587 0.51525 0.0
C344 C 0.44341 0.95773 0.46268 0.0
C345 C 0.42276 0.93689 0.4397 0.0
H346 H 0.40852 0.85197 0.43855 0.0
H347 H 0.4271 0.88519 0.44651 0.0
H348 H 0.40834 0.8682 0.49734 0.0
H349 H 0.40481 0.90191 0.54457 0.0
H350 H 0.4413 0.9386 0.58526 0.0
H351 H 0.40948 0.25792 0.2063 0.0
H352 H 0.43397 0.30214 0.23347 0.0
H353 H 0.43191 0.28372 0.39323 0.0
H354 H 0.40794 0.23973 0.36587 0.0
H355 H 0.41901 0.32727 0.29545 0.0
H356 H 0.50341 0.33586 0.38587 0.0
H357 H 0.48267 0.30994 0.34206 0.0
H358 H 0.47696 0.31029 0.40984 0.0
C359 C 0.41502 0.26346 0.24698 0.0
C360 C 0.40754 0.24567 0.28404 0.0
C361 C 0.4288 0.28863 0.26248 0.0
C362 C 0.43528 0.29623 0.31527 0.0
C363 C 0.42784 0.2783 0.35218 0.0
H364 H 0.43783 0.39895 0.52114 0.0
H365 H 0.43014 0.36937 0.4493 0.0
C366 C 0.41401 0.25322 0.33668 0.0
C367 C 0.44735 0.3227 0.33303 0.0
H368 H 0.49156 0.36488 0.42053 0.0
C369 C 0.43527 0.33577 0.32172 0.0
C370 C 0.46891 0.33411 0.36618 0.0
C371 C 0.48388 0.32189 0.37619 0.0
C372 C 0.44277 0.35891 0.34682 0.0
C373 C 0.46254 0.36893 0.38477 0.0
C374 C 0.47612 0.35702 0.39207 0.0
C375 C 0.46685 0.38918 0.42288 0.0
C376 C 0.42875 0.37186 0.33414 0.0
C377 C 0.49011 0.41028 0.4321 0.0
C378 C 0.49463 0.42735 0.47363 0.0
C379 C 0.47604 0.42326 0.50704 0.0
C380 C 0.45258 0.40262 0.49631 0.0
C381 C 0.44807 0.38577 0.45482 0.0
H382 H 0.42129 0.36744 0.29312 0.0
H383 H 0.41303 0.3654 0.35913 0.0
H384 H 0.44043 0.39221 0.34084 0.0
H385 H 0.50493 0.41312 0.40822 0.0
H386 H 0.51293 0.443 0.4811 0.0
H387 H 0.4897 0.79849 0.96328 0.0
H388 H 0.48933 0.83022 0.91103 0.0
H389 H 0.56815 0.87225 0.92585 0.0
H390 H 0.56875 0.84082 0.97813 0.0
H391 H 0.51289 0.88422 0.94305 0.0
H392 H 0.54828 0.86354 0.76566 0.0
H393 H 0.53408 0.84141 0.81419 0.0
H394 H 0.56497 0.86643 0.82585 0.0
C395 C 0.50696 0.8144 0.95511 0.0
C396 C 0.52927 0.81707 0.97473 0.0
C397 C 0.5067 0.83254 0.92546 0.0
C398 C 0.52871 0.85346 0.9144 0.0
C399 C 0.55097 0.85611 0.93361 0.0
H400 H 0.57414 0.97976 0.73214 0.0
H401 H 0.57122 0.94888 0.79078 0.0
C402 C 0.55126 0.83813 0.96354 0.0
C403 C 0.52857 0.87277 0.88323 0.0
H404 H 0.54569 0.89988 0.76833 0.0
C405 C 0.5199 0.88762 0.90468 0.0
C406 C 0.53778 0.8771 0.83336 0.0
C407 C 0.54666 0.8612 0.80802 0.0
C408 C 0.5209 0.90726 0.87809 0.0
C409 C 0.53033 0.91175 0.82828 0.0
C410 C 0.5386 0.89656 0.80662 0.0
C411 C 0.53219 0.93223 0.79782 0.0
C412 C 0.5126 0.92347 0.90431 0.0
C413 C 0.5113 0.93355 0.78307 0.0
C414 C 0.51297 0.95145 0.74991 0.0
C415 C 0.5355 0.96808 0.73019 0.0
C416 C 0.55649 0.9672 0.74643 0.0
C417 C 0.55484 0.9495 0.7799 0.0
H418 H 0.51245 0.92196 0.94702 0.0
H419 H 0.5246 0.94312 0.89614 0.0
H420 H 0.49369 0.91759 0.88936 0.0
H421 H 0.49352 0.92013 0.79544 0.0
H422 H 0.4964 0.95143 0.73771 0.0
H423 H 0.75936 0.56106 0.96025 0.0
H424 H 0.73634 0.56295 0.88325 0.0
H425 H 0.67206 0.49691 0.92458 0.0
H426 H 0.69461 0.49485 1.00059 0.0
H427 H 0.68674 0.49677 0.81777 0.0
H428 H 0.67867 0.57876 0.87697 0.0
H429 H 0.70808 0.58071 0.88299 0.0
H430 H 0.68464 0.56174 0.92458 0.0
C431 C 0.74023 0.54719 0.9532 0.0
C432 C 0.72884 0.52777 0.98645 0.0
C433 C 0.72714 0.54826 0.90921 0.0
C434 C 0.70253 0.52999 0.89819 0.0
C435 C 0.69108 0.51109 0.93218 0.0
H436 H 0.56787 0.47069 0.75422 0.0
H437 H 0.60828 0.48063 0.78951 0.0
C438 C 0.70403 0.51 0.97576 0.0
C439 C 0.68828 0.52959 0.85094 0.0
H440 H 0.65366 0.55343 0.8053 0.0
C441 C 0.67999 0.50954 0.8142 0.0
C442 C 0.67969 0.54637 0.84608 0.0
C443 C 0.68808 0.56814 0.88463 0.0
C444 C 0.66193 0.50479 0.7751 0.0
C445 C 0.65172 0.5203 0.7731 0.0
C446 C 0.66154 0.54156 0.80694 0.0
C447 C 0.62808 0.51227 0.74384 0.0
C448 C 0.65292 0.48242 0.73799 0.0
C449 C 0.62579 0.52647 0.70556 0.0
C450 C 0.60254 0.52049 0.68458 0.0
C451 C 0.58144 0.50061 0.70266 0.0
C452 C 0.58391 0.48591 0.73927 0.0
C453 C 0.60699 0.49158 0.75939 0.0
H454 H 0.66727 0.47736 0.73309 0.0
H455 H 0.63693 0.46651 0.75374 0.0
H456 H 0.64711 0.48564 0.69938 0.0
H457 H 0.64185 0.54267 0.69349 0.0
H458 H 0.601 0.53238 0.65718 0.0
H459 H 0.19017 0.67071 0.13109 0.0
H460 H 0.16032 0.63631 0.07265 0.0
H461 H 0.20211 0.67214 0.94236 0.0
H462 H 0.23234 0.70609 1.00051 0.0
H463 H 0.13245 0.64088 1.0021 0.0
H464 H 0.18269 0.60243 0.90202 0.0
H465 H 0.19534 0.62266 0.96011 0.0
H466 H 0.19785 0.63521 0.89746 0.0
C467 C 0.19345 0.67088 0.0902 0.0
C468 C 0.21362 0.69125 0.07052 0.0
C469 C 0.17629 0.65122 0.05677 0.0
C470 C 0.17894 0.65149 1.003 0.0
C471 C 0.19985 0.67112 0.9837 0.0
H472 H 0.07056 0.60537 0.75488 0.0
H473 H 0.09917 0.62456 0.83043 0.0
C474 C 0.21712 0.69067 0.01713 0.0
C475 C 0.1585 0.63325 0.96661 0.0
H476 H 0.14578 0.59638 0.85582 0.0
C477 C 0.1353 0.6308 0.97071 0.0
C478 C 0.16195 0.61973 0.92596 0.0
C479 C 0.18576 0.61994 0.92149 0.0
C480 C 0.11593 0.61636 0.93385 0.0
C481 C 0.12 0.60454 0.89084 0.0
C482 C 0.14274 0.60578 0.88829 0.0
C483 C 0.10147 0.59213 0.84661 0.0
C484 C 0.09137 0.61415 0.9412 0.0
C485 C 0.09347 0.56756 0.8298 0.0
C486 C 0.07718 0.55653 0.78608 0.0
C487 C 0.06867 0.56989 0.75806 0.0
C488 C 0.0765 0.59439 0.77556 0.0
C489 C 0.0928 0.6054 0.81909 0.0
H490 H 0.08884 0.61664 0.98288 0.0
H491 H 0.09028 0.62882 0.92059 0.0
H492 H 0.07613 0.59593 0.92551 0.0
H493 H 0.10005 0.55701 0.85016 0.0
H494 H 0.07179 0.53776 0.77362 0.0
H495 H 0.42787 0.14856 0.1549 0.0
H496 H 0.43224 0.11596 0.11069 0.0
H497 H 0.46932 0.16445 0.98961 0.0
H498 H 0.46554 0.19732 0.03409 0.0
H499 H 0.41484 0.09309 0.01586 0.0
H500 H 0.51586 0.14011 0.02758 0.0
H501 H 0.4993 0.15107 0.0652 0.0
H502 H 0.50509 0.15878 0.99874 0.0
C503 C 0.43697 0.1523 0.11885 0.0
C504 C 0.44643 0.17556 0.09802 0.0
C505 C 0.43951 0.13367 0.09377 0.0
C506 C 0.45157 0.13797 0.04751 0.0
C507 C 0.46057 0.16098 0.02608 0.0
H508 H 0.43945 0.04746 0.78882 0.0
H509 H 0.43399 0.07026 0.86001 0.0
C510 C 0.45819 0.17968 0.05128 0.0
C511 C 0.45382 0.1181 0.02021 0.0
H512 H 0.49493 0.10641 0.96246 0.0
C513 C 0.43239 0.09583 1.0049 0.0
C514 C 0.47676 0.12139 0.00712 0.0
C515 C 0.50057 0.14403 0.02605 0.0
C516 C 0.43316 0.07745 0.97382 0.0
C517 C 0.45589 0.08175 0.95676 0.0
C518 C 0.47747 0.10327 0.975 0.0
C519 C 0.45748 0.06559 0.91578 0.0
C520 C 0.40955 0.05382 0.95877 0.0
C521 C 0.47278 0.05558 0.92324 0.0
C522 C 0.4762 0.04264 0.88218 0.0
C523 C 0.46453 0.03975 0.8329 0.0
C524 C 0.44875 0.04929 0.82616 0.0
C525 C 0.44538 0.06217 0.86705 0.0
H526 H 0.39604 0.04958 0.98871 0.0
H527 H 0.40144 0.05594 0.92189 0.0
H528 H 0.41262 0.03795 0.95313 0.0
H529 H 0.48246 0.05823 0.96051 0.0
H530 H 0.48852 0.03559 0.88867 0.0
H531 H 0.33697 0.47725 0.11238 0.0
H532 H 0.35882 0.47531 0.03783 0.0
H533 H 0.29257 0.44607 0.93956 0.0
H534 H 0.27041 0.44782 0.01439 0.0
H535 H 0.34841 0.43389 0.96234 0.0
H536 H 0.34503 0.5123 0.87591 0.0
H537 H 0.33999 0.50608 0.94344 0.0
H538 H 0.31669 0.48677 0.89432 0.0
C539 C 0.32688 0.46992 0.07514 0.0
C540 C 0.30193 0.46267 0.06939 0.0
C541 C 0.33944 0.46889 0.03252 0.0
C542 C 0.32744 0.4609 0.98299 0.0
C543 C 0.30224 0.45254 0.97737 0.0
H544 H 0.39797 0.44093 0.71378 0.0
H545 H 0.36672 0.43752 0.77138 0.0
C546 C 0.28955 0.4533 0.02028 0.0
C547 C 0.34178 0.46247 0.93737 0.0
H548 H 0.36677 0.49639 0.8325 0.0
C549 C 0.35217 0.44732 0.93356 0.0
C550 C 0.34694 0.48027 0.90027 0.0
C551 C 0.33676 0.49746 0.90348 0.0
C552 C 0.36772 0.44959 0.89391 0.0
C553 C 0.37303 0.4675 0.85701 0.0
C554 C 0.36251 0.48255 0.86055 0.0
C555 C 0.39064 0.47161 0.81654 0.0
C556 C 0.37905 0.43338 0.89265 0.0
C557 C 0.41415 0.49257 0.82108 0.0
C558 C 0.43215 0.49462 0.78819 0.0
C559 C 0.42696 0.47577 0.74988 0.0
C560 C 0.40276 0.4558 0.74279 0.0
C561 C 0.38484 0.45371 0.77594 0.0
H562 H 0.37591 0.42298 0.92819 0.0
H563 H 0.37097 0.41988 0.8586 0.0
H564 H 0.39907 0.44466 0.88846 0.0
H565 H 0.41898 0.50669 0.85197 0.0
H566 H 0.4505 0.51031 0.79482 0.0
H567 H 0.81591 0.27169 0.95158 0.0
H568 H 0.8519 0.30026 0.90828 0.0
H569 H 0.89803 0.30641 0.04182 0.0
H570 H 0.86156 0.27878 0.08699 0.0
H571 H 0.91299 0.34941 0.01246 0.0
H572 H 0.9009 0.29292 0.83422 0.0
H573 H 0.87379 0.29476 0.84052 0.0
H574 H 0.8825 0.27992 0.88865 0.0
C575 C 0.83371 0.27868 0.97151 0.0
C576 C 0.83585 0.27274 0.02264 0.0
C577 C 0.85441 0.29497 0.94641 0.0
C578 C 0.87792 0.30513 0.97098 0.0
C579 C 0.88017 0.29874 0.02172 0.0
H580 H 0.99452 0.39541 0.76809 0.0
H581 H 0.96927 0.36292 0.82502 0.0
C582 C 0.85933 0.28284 0.04745 0.0
C583 C 0.89969 0.32385 0.94501 0.0
H584 H 0.92437 0.33734 0.82707 0.0
C585 C 0.91574 0.34655 0.97217 0.0
C586 C 0.90394 0.32016 0.89284 0.0
C587 C 0.88949 0.29548 0.86274 0.0
C588 C 0.93495 0.36596 0.94794 0.0
C589 C 0.93752 0.36311 0.89422 0.0
C590 C 0.92228 0.33996 0.8679 0.0
C591 C 0.95509 0.38392 0.86393 0.0
C592 C 0.95233 0.38913 0.98063 0.0
C593 C 0.95597 0.40682 0.86693 0.0
C594 C 0.97106 0.42568 0.83564 0.0
C595 C 0.98488 0.42175 0.79916 0.0
C596 C 0.98405 0.39893 0.79595 0.0
C597 C 0.96955 0.38033 0.82841 0.0
H598 H 0.9542 0.38488 0.02135 0.0
H599 H 0.9708 0.39871 0.9652 0.0
H600 H 0.94492 0.40186 0.98154 0.0
H601 H 0.94437 0.40992 0.89221 0.0
H602 H 0.971 0.44294 0.83822 0.0
H603 H 0.83446 0.50488 0.03075 0.0
H604 H 0.86412 0.50428 0.97307 0.0
H605 H 0.81804 0.49826 0.83977 0.0
H606 H 0.78852 0.49916 0.89689 0.0
H607 H 0.86051 0.4705 0.89427 0.0
H608 H 0.8828 0.56008 0.81442 0.0
H609 H 0.86571 0.5492 0.87148 0.0
H610 H 0.851 0.53675 0.80807 0.0
C611 C 0.83046 0.50308 0.98919 0.0
C612 C 0.80919 0.50229 0.96852 0.0
C613 C 0.84749 0.50284 0.95623 0.0
C614 C 0.8436 0.50184 0.90206 0.0
C615 C 0.82176 0.4997 0.88139 0.0
H616 H 0.94387 0.50741 0.66391 0.0
H617 H 0.90746 0.50427 0.70308 0.0
C618 C 0.8048 0.50001 0.91421 0.0
C619 C 0.86262 0.50356 0.86741 0.0
H620 H 0.9028 0.53995 0.78015 0.0
C621 C 0.86962 0.4856 0.8691 0.0
C622 C 0.87446 0.52323 0.8343 0.0
C623 C 0.86832 0.54356 0.83207 0.0
C624 C 0.88836 0.48697 0.83931 0.0
C625 C 0.90067 0.507 0.80742 0.0
C626 C 0.89321 0.52455 0.80436 0.0
C627 C 0.92305 0.5113 0.78205 0.0
C628 C 0.89519 0.46718 0.8428 0.0
C629 C 0.94407 0.51733 0.81322 0.0
C630 C 0.96466 0.5192 0.79123 0.0
C631 C 0.96484 0.51512 0.73732 0.0
C632 C 0.94429 0.51059 0.70552 0.0
C633 C 0.92348 0.50869 0.72784 0.0
H634 H 0.88025 0.45008 0.85778 0.0
H635 H 0.89963 0.46256 0.80428 0.0
H636 H 0.91164 0.47403 0.86977 0.0
H637 H 0.94431 0.51992 0.85499 0.0
H638 H 0.98027 0.52312 0.81691 0.0
H639 H 0.26773 0.81965 0.9677 0.0
H640 H 0.2875 0.84357 0.89308 0.0
H641 H 0.34015 0.81905 0.90165 0.0
H642 H 0.32038 0.79491 0.97476 0.0
H643 H 0.33348 0.88135 0.89027 0.0
H644 H 0.32166 0.80754 0.7488 0.0
H645 H 0.30464 0.80111 0.8064 0.0
H646 H 0.33519 0.80575 0.80941 0.0
C647 C 0.28334 0.81915 0.95321 0.0
C648 C 0.29242 0.8053 0.97716 0.0
C649 C 0.29459 0.83278 0.91053 0.0
C650 C 0.315 0.83267 0.8909 0.0
C651 C 0.32399 0.81884 0.91485 0.0
H652 H 0.4416 0.92212 0.73901 0.0
H653 H 0.40639 0.88833 0.77646 0.0
C654 C 0.31277 0.80521 0.95717 0.0
C655 C 0.32839 0.8486 0.84853 0.0
H656 H 0.3555 0.84863 0.73631 0.0
C657 C 0.33779 0.87414 0.85595 0.0
C658 C 0.33399 0.8392 0.8036 0.0
C659 C 0.32309 0.81186 0.79132 0.0
C660 C 0.35391 0.89062 0.8216 0.0
C661 C 0.36065 0.8813 0.77844 0.0
C662 C 0.35036 0.85572 0.76953 0.0
C663 C 0.38033 0.89813 0.74586 0.0
C664 C 0.36476 0.91802 0.83331 0.0
C665 C 0.37706 0.91394 0.71373 0.0
C666 C 0.39717 0.93324 0.69188 0.0
C667 C 0.42089 0.93714 0.70236 0.0
C668 C 0.42364 0.91981 0.73056 0.0
C669 C 0.40352 0.90046 0.75203 0.0
H670 H 0.35987 0.92231 0.87164 0.0
H671 H 0.38501 0.92764 0.83274 0.0
H672 H 0.35794 0.92557 0.80298 0.0
H673 H 0.35921 0.91224 0.7081 0.0
H674 H 0.39436 0.94619 0.67027 0.0
H675 H 0.49409 0.32502 0.19268 0.0
H676 H 0.49902 0.35612 0.13161 0.0
H677 H 0.44547 0.29858 0.02386 0.0
H678 H 0.4403 0.26762 0.08416 0.0
H679 H 0.51275 0.35997 0.02681 0.0
H680 H 0.41978 0.34685 0.0395 0.0
H681 H 0.43312 0.33582 0.08688 0.0
H682 H 0.41961 0.31848 0.02597 0.0
C683 C 0.4834 0.31903 0.15595 0.0
C684 C 0.46673 0.29384 0.14342 0.0
C685 C 0.48621 0.3368 0.12119 0.0
C686 C 0.47228 0.32966 0.07365 0.0
C687 C 0.45599 0.30454 0.06081 0.0
H688 H 0.45542 0.38709 0.79011 0.0
H689 H 0.45429 0.36296 0.86321 0.0
C690 C 0.45317 0.28684 0.09532 0.0
C691 C 0.47488 0.34817 0.03649 0.0
H692 H 0.44177 0.36797 0.9669 0.0
C693 C 0.49738 0.36204 0.0142 0.0
C694 C 0.45477 0.35083 0.02024 0.0
C695 C 0.43052 0.33739 0.04474 0.0
C696 C 0.49996 0.37764 0.97422 0.0
C697 C 0.47957 0.37957 0.95668 0.0
C698 C 0.45731 0.3663 0.98017 0.0
C699 C 0.48062 0.39449 0.91264 0.0
C700 C 0.52415 0.39115 0.94957 0.0
C701 C 0.49563 0.42026 0.91645 0.0
C702 C 0.49631 0.43416 0.87474 0.0
C703 C 0.48193 0.42253 0.82842 0.0
C704 C 0.46679 0.39668 0.82502 0.0
C705 C 0.46608 0.38284 0.86679 0.0
H706 H 0.53649 0.384 0.96056 0.0
H707 H 0.52134 0.3896 0.90662 0.0
H708 H 0.53343 0.41103 0.96245 0.0
H709 H 0.50669 0.42964 0.95181 0.0
H710 H 0.50814 0.45402 0.87887 0.0
H711 H 0.22624 0.52078 0.03941 0.0
H712 H 0.20444 0.52481 0.96278 0.0
H713 H 0.20275 0.4618 0.88559 0.0
H714 H 0.22419 0.45759 0.96127 0.0
H715 H 0.21302 0.52532 0.8438 0.0
H716 H 0.12926 0.44374 0.90716 0.0
H717 H 0.15577 0.46252 0.95081 0.0
H718 H 0.1561 0.4409 0.90382 0.0
C719 C 0.22171 0.5082 1.00559 0.0
C720 C 0.2266 0.48867 0.00659 0.0
C721 C 0.20928 0.5105 0.96194 0.0
C722 C 0.20178 0.4934 0.91889 0.0
C723 C 0.2082 0.47503 0.91859 0.0
H724 H 0.08504 0.45168 0.67959 0.0
H725 H 0.12163 0.45489 0.72383 0.0
C726 C 0.2204 0.47264 0.96199 0.0
C727 C 0.185 0.49281 0.87663 0.0
H728 H 0.1257 0.45927 0.82809 0.0
C729 C 0.19392 0.51092 0.8402 0.0
C730 C 0.1602 0.47382 0.87181 0.0
C731 C 0.14959 0.45418 0.91056 0.0
C732 C 0.17854 0.51052 0.79893 0.0
C733 C 0.15356 0.49176 0.7947 0.0
C734 C 0.14487 0.47348 0.83083 0.0
C735 C 0.13532 0.49202 0.7572 0.0
C736 C 0.18923 0.53007 0.76012 0.0
C737 C 0.13143 0.51215 0.75933 0.0
C738 C 0.11071 0.51038 0.73402 0.0
C739 C 0.09326 0.48832 0.70643 0.0
C740 C 0.09821 0.46892 0.70033 0.0
C741 C 0.11903 0.47071 0.72587 0.0
H742 H 0.20908 0.53695 0.75713 0.0
H743 H 0.17978 0.52298 0.72103 0.0
H744 H 0.18721 0.54598 0.77314 0.0
H745 H 0.14334 0.52859 0.7839 0.0
H746 H 0.10746 0.5257 0.73928 0.0
H747 H 0.70759 0.20033 0.05593 0.0
H748 H 0.67636 0.17179 0.9906 0.0
H749 H 0.70621 0.22687 0.87783 0.0
H750 H 0.73779 0.25573 0.94318 0.0
H751 H 0.64096 0.17822 0.92894 0.0
H752 H 0.70561 0.16489 0.80958 0.0
H753 H 0.71369 0.17769 0.87584 0.0
H754 H 0.71249 0.19601 0.82537 0.0
C755 C 0.70748 0.20652 0.01738 0.0
C756 C 0.72529 0.23031 1.00476 0.0
C757 C 0.6896 0.19015 0.98007 0.0
C758 C 0.6892 0.19709 0.92922 0.0
C759 C 0.70645 0.22105 0.91669 0.0
H760 H 0.58633 0.09222 0.67784 0.0
H761 H 0.62011 0.13039 0.72133 0.0
C762 C 0.72435 0.23756 0.95419 0.0
C763 C 0.67072 0.17887 0.88981 0.0
H764 H 0.66361 0.14002 0.78578 0.0
C765 C 0.64592 0.17012 0.89719 0.0
C766 C 0.67725 0.16845 0.84821 0.0
C767 C 0.70368 0.17705 0.83908 0.0
C768 C 0.62745 0.15061 0.86527 0.0
C769 C 0.63394 0.1392 0.82558 0.0
C770 C 0.65872 0.14876 0.81637 0.0
C771 C 0.61527 0.11582 0.79737 0.0
C772 C 0.60107 0.14196 0.87513 0.0
C773 C 0.60216 0.0948 0.82528 0.0
C774 C 0.58304 0.07318 0.80082 0.0
C775 C 0.57662 0.07196 0.74764 0.0
C776 C 0.59073 0.09259 0.71888 0.0
C777 C 0.60997 0.1144 0.74365 0.0
H778 H 0.59909 0.15676 0.89531 0.0
H779 H 0.58944 0.13576 0.83831 0.0
H780 H 0.59416 0.12614 0.90033 0.0
H781 H 0.60636 0.09531 0.86649 0.0
H782 H 0.57287 0.05757 0.82409 0.0
H783 H 0.49559 0.68432 0.97223 0.0
H784 H 0.49945 0.65165 0.92721 0.0
H785 H 0.57492 0.70359 0.90245 0.0
H786 H 0.5714 0.7364 0.94837 0.0
H787 H 0.51146 0.64892 0.82729 0.0
H788 H 0.57927 0.64733 0.96727 0.0
H789 H 0.56255 0.66288 0.98258 0.0
H790 H 0.58856 0.67715 0.9436 0.0
C791 C 0.51302 0.68886 0.95712 0.0
C792 C 0.53323 0.71294 0.96402 0.0
C793 C 0.51519 0.67014 0.93158 0.0
C794 C 0.5376 0.67512 0.91255 0.0
C795 C 0.55765 0.69926 0.91809 0.0
H796 H 0.57946 0.59265 0.71085 0.0
H797 H 0.57949 0.62289 0.77329 0.0
C798 C 0.55552 0.71802 0.94385 0.0
C799 C 0.5396 0.65515 0.88525 0.0
H800 H 0.57029 0.62322 0.88755 0.0
C801 C 0.52419 0.64318 0.84065 0.0
C802 C 0.55625 0.64776 0.90294 0.0
C803 C 0.57246 0.65927 0.95199 0.0
C804 C 0.52526 0.62426 0.81261 0.0
C805 C 0.542 0.61698 0.83005 0.0
C806 C 0.55743 0.62888 0.87463 0.0
C807 C 0.54411 0.59758 0.8008 0.0
C808 C 0.50883 0.6125 0.76386 0.0
C809 C 0.52471 0.57312 0.79772 0.0
C810 C 0.52457 0.55578 0.76208 0.0
C811 C 0.54384 0.56271 0.72892 0.0
C812 C 0.56421 0.58676 0.73537 0.0
C813 C 0.56432 0.60407 0.7711 0.0
H814 H 0.50019 0.62321 0.75078 0.0
H815 H 0.5193 0.6108 0.73194 0.0
H816 H 0.49406 0.59365 0.77138 0.0
H817 H 0.50906 0.56781 0.82085 0.0
H818 H 0.50867 0.53742 0.75845 0.0
H819 H 0.51283 0.21024 0.2497 0.0
H820 H 0.52212 0.18325 0.29963 0.0
H821 H 0.47493 0.18215 0.41699 0.0
H822 H 0.46544 0.20915 0.3674 0.0
H823 H 0.52175 0.18431 0.45346 0.0
H824 H 0.46404 0.10939 0.30259 0.0
H825 H 0.48827 0.13774 0.28063 0.0
H826 H 0.46282 0.1375 0.30967 0.0
C827 C 0.50486 0.20479 0.28674 0.0
C828 C 0.48808 0.21158 0.30416 0.0
C829 C 0.51015 0.18928 0.3151 0.0
C830 C 0.49886 0.1804 0.36143 0.0
C831 C 0.48371 0.18874 0.38111 0.0
H832 H 0.45626 0.05325 0.53115 0.0
H833 H 0.46033 0.08584 0.4763 0.0
C834 C 0.47833 0.20419 0.35271 0.0
C835 C 0.50078 0.16056 0.38666 0.0
H836 H 0.48036 0.09871 0.37355 0.0
C837 C 0.51299 0.16565 0.43584 0.0
C838 C 0.48908 0.13621 0.36359 0.0
C839 C 0.47515 0.12967 0.31136 0.0
C840 C 0.51354 0.14688 0.46295 0.0
C841 C 0.50158 0.12248 0.44011 0.0
C842 C 0.48969 0.11749 0.39062 0.0
C843 C 0.49921 0.10153 0.46911 0.0
C844 C 0.52604 0.15299 0.51663 0.0
C845 C 0.51963 0.09907 0.48172 0.0
C846 C 0.51734 0.08028 0.51283 0.0
C847 C 0.49462 0.06378 0.53208 0.0
C848 C 0.47404 0.0657 0.51728 0.0
C849 C 0.47632 0.08432 0.48593 0.0
H850 H 0.53164 0.17207 0.53145 0.0
H851 H 0.51375 0.13981 0.54417 0.0
H852 H 0.54265 0.15125 0.51578 0.0
H853 H 0.5374 0.11203 0.46853 0.0
H854 H 0.53356 0.07938 0.52362 0.0
H855 H 0.32714 0.51789 0.25885 0.0
H856 H 0.35713 0.52202 0.32725 0.0
H857 H 0.29954 0.48727 0.43238 0.0
H858 H 0.26953 0.48279 0.36434 0.0
H859 H 0.37015 0.54281 0.43303 0.0
H860 H 0.3273 0.44039 0.41981 0.0
H861 H 0.32059 0.45667 0.37175 0.0
H862 H 0.3074 0.45232 0.43362 0.0
C863 C 0.32097 0.51168 0.2969 0.0
C864 C 0.29595 0.49972 0.30601 0.0
C865 C 0.33809 0.51398 0.3359 0.0
C866 C 0.33044 0.50443 0.38449 0.0
C867 C 0.30575 0.49427 0.39484 0.0
H868 H 0.42614 0.47766 0.60086 0.0
H869 H 0.39086 0.48252 0.57464 0.0
C870 C 0.28866 0.49184 0.35592 0.0
C871 C 0.34792 0.50325 0.42248 0.0
H872 H 0.36259 0.46275 0.47516 0.0
C873 C 0.36832 0.52531 0.44288 0.0
C874 C 0.34537 0.48037 0.43572 0.0
C875 C 0.32411 0.45604 0.41393 0.0
C876 C 0.38677 0.52511 0.47437 0.0
C877 C 0.38492 0.50227 0.48501 0.0
C878 C 0.36384 0.48021 0.46728 0.0
C879 C 0.40646 0.50093 0.5049 0.0
C880 C 0.40858 0.54936 0.49442 0.0
C881 C 0.42658 0.5094 0.47422 0.0
C882 C 0.44621 0.50632 0.48843 0.0
C883 C 0.44636 0.49467 0.53388 0.0
C884 C 0.42648 0.48665 0.56564 0.0
C885 C 0.40643 0.48946 0.55077 0.0
H886 H 0.40372 0.56407 0.4985 0.0
H887 H 0.41613 0.54767 0.53254 0.0
H888 H 0.42311 0.5552 0.46641 0.0
H889 H 0.42681 0.51784 0.43823 0.0
H890 H 0.46134 0.51304 0.46333 0.0
H891 H 0.8446 0.35381 0.12927 0.0
H892 H 0.87577 0.38672 0.18884 0.0
H893 H 0.83672 0.34762 0.31923 0.0
H894 H 0.80518 0.31509 0.2602 0.0
H895 H 0.85809 0.39757 0.33729 0.0
H896 H 0.92489 0.37281 0.26261 0.0
H897 H 0.91102 0.3828 0.21472 0.0
H898 H 0.89252 0.35454 0.24548 0.0
C899 C 0.84233 0.3525 0.1706 0.0
C900 C 0.82261 0.33159 0.18996 0.0
C901 C 0.86029 0.37124 0.2046 0.0
C902 C 0.85897 0.36923 0.25848 0.0
C903 C 0.83825 0.34944 0.27779 0.0
H904 H 0.96898 0.41532 0.50461 0.0
H905 H 0.93885 0.39545 0.43148 0.0
C906 C 0.82019 0.33083 0.24389 0.0
C907 C 0.87992 0.38635 0.29488 0.0
H908 H 0.93933 0.404 0.32971 0.0
C909 C 0.87594 0.3992 0.33541 0.0
C910 C 0.90309 0.38811 0.29276 0.0
C911 C 0.90819 0.3737 0.25189 0.0
C912 C 0.89431 0.41336 0.3745 0.0
C913 C 0.91748 0.41514 0.37229 0.0
C914 C 0.92162 0.40275 0.33109 0.0
C915 C 0.93701 0.42805 0.41445 0.0
C916 C 0.88833 0.42531 0.41903 0.0
C917 C 0.94657 0.4532 0.42833 0.0
C918 C 0.96372 0.46462 0.47051 0.0
C919 C 0.9719 0.45118 0.49923 0.0
C920 C 0.96311 0.42627 0.48358 0.0
C921 C 0.94585 0.41485 0.4417 0.0
H922 H 0.86828 0.41737 0.42121 0.0
H923 H 0.89592 0.42313 0.4566 0.0
H924 H 0.89657 0.44534 0.41363 0.0
H925 H 0.94049 0.46393 0.40708 0.0
H926 H 0.97006 0.48381 0.48122 0.0
H927 H 0.57186 0.82921 0.22548 0.0
H928 H 0.57665 0.86618 0.27233 0.0
H929 H 0.50499 0.84873 0.21148 0.0
H930 H 0.49975 0.81146 0.16598 0.0
H931 H 0.57677 0.90611 0.23393 0.0
H932 H 0.50067 0.85995 0.36414 0.0
H933 H 0.5119 0.84326 0.32678 0.0
H934 H 0.49106 0.85146 0.29676 0.0
C935 C 0.55701 0.8331 0.22267 0.0
C936 C 0.53534 0.81732 0.19248 0.0
C937 C 0.55981 0.85426 0.24923 0.0
C938 C 0.54104 0.86 0.2459 0.0
C939 C 0.51945 0.84432 0.21561 0.0
H940 H 0.52633 0.9802 0.38231 0.0
H941 H 0.52439 0.94907 0.31926 0.0
C942 C 0.51652 0.82305 0.18953 0.0
C943 C 0.54425 0.88268 0.27317 0.0
H944 H 0.51925 0.90346 0.36251 0.0
C945 C 0.56424 0.90555 0.26213 0.0
C946 C 0.52784 0.88186 0.30989 0.0
C947 C 0.50681 0.85781 0.32552 0.0
C948 C 0.56819 0.92765 0.28687 0.0
C949 C 0.55172 0.92675 0.32331 0.0
C950 C 0.53162 0.90399 0.33392 0.0
C951 C 0.55587 0.94889 0.35421 0.0
C952 C 0.58984 0.95182 0.27402 0.0
C953 C 0.57462 0.95944 0.39367 0.0
C954 C 0.57567 0.97702 0.42995 0.0
C955 C 0.55799 0.98434 0.4272 0.0
C956 C 0.54027 0.97502 0.38535 0.0
C957 C 0.53909 0.95721 0.34938 0.0
H958 H 0.59791 0.94992 0.23786 0.0
H959 H 0.58445 0.96604 0.2696 0.0
H960 H 0.60415 0.95848 0.30632 0.0
H961 H 0.58755 0.95299 0.39825 0.0
H962 H 0.58961 0.98396 0.46162 0.0
H963 H 0.70815 0.53031 0.17993 0.0
H964 H 0.68202 0.52279 0.25205 0.0
H965 H 0.71211 0.48197 0.32392 0.0
H966 H 0.73806 0.48889 0.25018 0.0
H967 H 0.66272 0.46103 0.33675 0.0
H968 H 0.70877 0.56086 0.3907 0.0
H969 H 0.69717 0.55469 0.32428 0.0
H970 H 0.72069 0.54797 0.34441 0.0
C971 C 0.70904 0.51947 0.21076 0.0
C972 C 0.72533 0.5104 0.2097 0.0
C973 C 0.69422 0.51536 0.25222 0.0
C974 C 0.69569 0.50256 0.29434 0.0
C975 C 0.71092 0.4922 0.29216 0.0
H976 H 0.62256 0.52525 0.55515 0.0
H977 H 0.65418 0.52126 0.51106 0.0
C978 C 0.72562 0.49604 0.24998 0.0
C979 C 0.6816 0.50077 0.34056 0.0
H980 H 0.66852 0.53614 0.42194 0.0
C981 C 0.66425 0.47744 0.35606 0.0
C982 C 0.68409 0.52215 0.36717 0.0
C983 C 0.7039 0.54781 0.35617 0.0
C984 C 0.64812 0.47495 0.39467 0.0
C985 C 0.6489 0.49632 0.41726 0.0
C986 C 0.66749 0.51964 0.40437 0.0
C987 C 0.62938 0.49516 0.44993 0.0
C988 C 0.63035 0.44938 0.4104 0.0
C989 C 0.60475 0.48136 0.4314 0.0
C990 C 0.58664 0.4833 0.45696 0.0
C991 C 0.59272 0.49961 0.50111 0.0
C992 C 0.61721 0.51259 0.52119 0.0
C993 C 0.63533 0.51034 0.49589 0.0
H994 H 0.63843 0.43723 0.40757 0.0
H995 H 0.62488 0.44968 0.45065 0.0
H996 H 0.61374 0.44107 0.3835 0.0
H997 H 0.59957 0.47011 0.39535 0.0
H998 H 0.56804 0.47305 0.44008 0.0
H999 H 0.20165 0.76843 0.28463 0.0
H1000 H 0.16692 0.73649 0.3273 0.0
H1001 H 0.13799 0.69397 0.18125 0.0
H1002 H 0.17268 0.7257 0.13813 0.0
H1003 H 0.11357 0.71168 0.30837 0.0
H1004 H 0.15192 0.64966 0.27679 0.0
H1005 H 0.16959 0.68246 0.26932 0.0
H1006 H 0.14652 0.66256 0.22026 0.0
C1007 C 0.18765 0.75257 0.26128 0.0
C1008 C 0.19015 0.74952 0.20805 0.0
C1009 C 0.16781 0.73432 0.28577 0.0
C1010 C 0.15018 0.71269 0.25758 0.0
C1011 C 0.15163 0.71038 0.20381 0.0
H1012 H 0.04505 0.57359 0.38723 0.0
H1013 H 0.06754 0.6049 0.32561 0.0
C1014 C 0.17142 0.72864 0.17921 0.0
C1015 C 0.13162 0.6918 0.28536 0.0
H1016 H 0.11659 0.63456 0.32348 0.0
C1017 C 0.11405 0.69472 0.31137 0.0
C1018 C 0.13226 0.66966 0.28896 0.0
C1019 C 0.15114 0.6658 0.26272 0.0
C1020 C 0.09727 0.67616 0.34152 0.0
C1021 C 0.09855 0.65442 0.34684 0.0
C1022 C 0.11562 0.65121 0.31942 0.0
C1023 C 0.08362 0.63557 0.38341 0.0
C1024 C 0.07833 0.68004 0.36731 0.0
C1025 C 0.08535 0.64234 0.43641 0.0
C1026 C 0.07252 0.62456 0.47163 0.0
C1027 C 0.05784 0.59948 0.4548 0.0
C1028 C 0.05613 0.59271 0.4016 0.0
C1029 C 0.06896 0.61058 0.36629 0.0
H1030 H 0.07435 0.69283 0.34597 0.0
H1031 H 0.06098 0.66232 0.36988 0.0
H1032 H 0.08543 0.68845 0.40719 0.0
H1033 H 0.09708 0.66136 0.45084 0.0
H1034 H 0.07446 0.63052 0.51226 0.0
loop_
_geom_bond_atom_site_label_1
_geom_bond_atom_site_label_2
_geom_bond_distance
_geom_bond_site_symmetry_2
_ccdc_geom_bond_type
Mg0 O7 2.141 . S
Mg0 O8 2.048 . S
Mg0 O9 2.048 . S
Mg0 O12 2.141 . S
C1 O2 1.313 . S
C1 O8 1.195 . S
O2 C1 1.313 . S
C3 O4 1.245 . S
C3 O12 1.289 . S
O4 C3 1.245 . S
C5 O6 1.245 . S
C5 O7 1.289 . S
O6 C5 1.245 . S
O7 Mg0 2.141 . S
O7 C5 1.289 . S
O8 Mg0 2.048 . S
O8 C1 1.195 . S
O9 Mg0 2.048 . S
O9 C10 1.195 . S
C10 O9 1.195 . S
C10 O11 1.313 . S
O11 C10 1.313 . S
O12 Mg0 2.141 . S
O12 C3 1.289 . S
Mg13 O20 2.141 . S
Mg13 O21 2.048 . S
Mg13 O22 2.048 . S
Mg13 O25 2.141 . S
C14 O15 1.313 . S
C14 O21 1.195 . S
O15 C14 1.313 . S
C16 O17 1.245 . S
C16 O25 1.289 . S
O17 C16 1.245 . S
C18 O19 1.245 . S
C18 O20 1.289 . S
O19 C18 1.245 . S
O20 Mg13 2.141 . S
O20 C18 1.289 . S
O21 Mg13 2.048 . S
O21 C14 1.195 . S
O22 Mg13 2.048 . S
O22 C23 1.195 . S
C23 O22 1.195 . S
C23 O24 1.313 . S
O24 C23 1.313 . S
O25 Mg13 2.141 . S
O25 C16 1.289 . S
Mg26 O33 2.141 1_554 S
Mg26 O34 2.048 . S
Mg26 O35 2.048 . S
Mg26 O38 2.141 1_554 S
C27 O28 1.313 . S
C27 O34 1.195 . S
O28 C27 1.313 . S
C29 O30 1.245 . S
C29 O38 1.289 . S
O30 C29 1.245 . S
C31 O32 1.245 . S
C31 O33 1.289 . S
O32 C31 1.245 . S
O33 Mg26 2.141 1_556 S
O33 C31 1.289 . S
O34 Mg26 2.048 . S
O34 C27 1.195 . S
O35 Mg26 2.048 . S
O35 C36 1.195 . S
C36 O35 1.195 . S
C36 O37 1.313 . S
O37 C36 1.313 . S
O38 Mg26 2.141 1_556 S
O38 C29 1.289 . S
Mg39 O46 2.141 . S
Mg39 O47 2.048 . S
Mg39 O48 2.048 . S
Mg39 O51 2.141 . S
C40 O41 1.313 . S
C40 O47 1.195 1_556 S
O41 C40 1.313 . S
C42 O43 1.245 . S
C42 O51 1.289 . S
O43 C42 1.245 . S
C44 O45 1.245 . S
C44 O46 1.289 . S
O45 C44 1.245 . S
O46 Mg39 2.141 . S
O46 C44 1.289 . S
O47 Mg39 2.048 . S
O47 C40 1.195 1_554 S
O48 Mg39 2.048 . S
O48 C49 1.182 1_554 S
C49 O48 1.182 1_556 S
C49 O50 1.314 . S
O50 C49 1.314 . S
O51 Mg39 2.141 . S
O51 C42 1.289 . S
Mg52 O59 2.141 . S
Mg52 O60 2.048 . S
Mg52 O61 2.048 . S
Mg52 O64 2.141 . S
C53 O54 1.313 . S
C53 O60 1.195 . S
O54 C53 1.313 . S
C55 O56 1.245 . S
C55 O64 1.289 . S
O56 C55 1.245 . S
C57 O58 1.245 . S
C57 O59 1.289 . S
O58 C57 1.245 . S
O59 Mg52 2.141 . S
O59 C57 1.289 . S
O60 Mg52 2.048 . S
O60 C53 1.195 . S
O61 Mg52 2.048 . S
O61 C62 1.195 . S
C62 O61 1.195 . S
C62 O63 1.313 . S
O63 C62 1.313 . S
O64 Mg52 2.141 . S
O64 C55 1.289 . S
Mg65 O72 2.141 . S
Mg65 O73 2.048 . S
Mg65 O74 2.048 . S
Mg65 O77 2.141 . S
C66 O67 1.313 . S
C66 O73 1.195 . S
O67 C66 1.313 . S
C68 O69 1.245 . S
C68 O77 1.289 . S
O69 C68 1.245 . S
C70 O71 1.245 . S
C70 O72 1.289 . S
O71 C70 1.245 . S
O72 Mg65 2.141 . S
O72 C70 1.289 . S
O73 Mg65 2.048 . S
O73 C66 1.195 . S
O74 Mg65 2.048 . S
O74 C75 1.195 . S
C75 O74 1.195 . S
C75 O76 1.313 . S
O76 C75 1.313 . S
O77 Mg65 2.141 . S
O77 C68 1.289 . S
C78 O90 1.241 . S
C78 O91 1.280 . S
C79 O92 1.277 . S
C79 O93 1.245 . S
C80 O104 1.247 . S
C80 O106 1.289 . S
Mg81 O82 1.905 . S
Mg81 O91 1.984 . S
Mg81 O93 1.988 1_655 S
Mg81 O94 2.061 . S
O82 Mg81 1.905 . S
O82 Mg83 1.990 1_655 S
O82 Mg84 1.922 1_655 S
Mg83 O82 1.990 1_455 S
Mg83 O90 2.042 1_455 S
Mg83 O92 2.041 . S
Mg83 O98 2.038 1_455 S
Mg83 O106 2.238 . S
Mg84 O82 1.922 1_455 S
Mg84 O85 1.917 . S
Mg84 O95 2.106 1_455 S
Mg84 O97 2.079 1_455 S
Mg84 O106 2.106 . S
Mg84 O107 2.079 . S
O85 Mg84 1.917 . S
O85 Mg86 1.926 . S
O85 Mg87 1.986 . S
Mg86 O85 1.926 . S
Mg86 O100 1.984 . S
Mg86 O103 1.988 1_455 S
Mg86 O104 2.061 . S
Mg87 O85 1.986 . S
Mg87 O95 2.238 1_455 S
Mg87 O99 2.042 . S
Mg87 O101 2.041 1_455 S
Mg87 O108 2.038 . S
C88 O94 1.247 . S
C88 O95 1.289 . S
C89 O107 1.245 . S
C89 O108 1.274 . S
O90 C78 1.241 . S
O90 Mg83 2.042 1_655 S
O91 C78 1.280 . S
O91 Mg81 1.984 . S
O92 C79 1.277 . S
O92 Mg83 2.041 . S
O93 C79 1.245 . S
O93 Mg81 1.988 1_455 S
O94 Mg81 2.061 . S
O94 C88 1.247 . S
O95 Mg84 2.106 1_655 S
O95 Mg87 2.238 1_655 S
O95 C88 1.289 . S
C96 O97 1.245 . S
C96 O98 1.274 . S
O97 Mg84 2.079 1_655 S
O97 C96 1.245 . S
O98 Mg83 2.038 1_655 S
O98 C96 1.274 . S
O99 Mg87 2.042 . S
O99 C102 1.241 . S
O100 Mg86 1.984 . S
O100 C102 1.280 . S
O101 Mg87 2.041 1_655 S
O101 C105 1.277 . S
C102 O99 1.241 . S
C102 O100 1.280 . S
O103 Mg86 1.988 1_655 S
O103 C105 1.245 . S
O104 C80 1.247 . S
O104 Mg86 2.061 . S
C105 O101 1.277 . S
C105 O103 1.245 . S
O106 C80 1.289 . S
O106 Mg83 2.238 . S
O106 Mg84 2.106 . S
O107 Mg84 2.079 . S
O107 C89 1.245 . S
O108 Mg87 2.038 . S
O108 C89 1.274 . S
C109 O121 1.241 . S
C109 O122 1.280 . S
C110 O123 1.277 . S
C110 O124 1.245 . S
C111 O135 1.247 . S
C111 O137 1.289 . S
Mg112 O113 1.926 . S
Mg112 O122 1.984 . S
Mg112 O124 1.988 1_545 S
Mg112 O125 2.061 . S
O113 Mg112 1.926 . S
O113 Mg114 1.986 . S
O113 Mg115 1.917 . S
Mg114 O113 1.986 . S
Mg114 O121 2.042 . S
Mg114 O123 2.041 1_545 S
Mg114 O129 2.038 . S
Mg114 O137 2.238 1_545 S
Mg115 O113 1.917 . S
Mg115 O116 1.917 1_545 S
Mg115 O126 2.106 . S
Mg115 O128 2.079 . S
Mg115 O137 2.106 1_545 S
Mg115 O138 2.079 1_545 S
O116 Mg115 1.917 1_565 S
O116 Mg117 1.926 . S
O116 Mg118 1.986 1_565 S
Mg117 O116 1.926 . S
Mg117 O131 1.984 . S
Mg117 O134 1.988 1_565 S
Mg117 O135 2.061 . S
Mg118 O116 1.986 1_545 S
Mg118 O126 2.238 . S
Mg118 O130 2.042 1_545 S
Mg118 O132 2.041 . S
Mg118 O139 2.038 1_545 S
C119 O125 1.247 . S
C119 O126 1.289 . S
C120 O138 1.245 . S
C120 O139 1.274 . S
O121 C109 1.241 . S
O121 Mg114 2.042 . S
O122 C109 1.280 . S
O122 Mg112 1.984 . S
O123 C110 1.277 . S
O123 Mg114 2.041 1_565 S
O124 C110 1.245 . S
O124 Mg112 1.988 1_565 S
O125 Mg112 2.061 . S
O125 C119 1.247 . S
O126 Mg115 2.106 . S
O126 Mg118 2.238 . S
O126 C119 1.289 . S
C127 O128 1.245 . S
C127 O129 1.274 . S
O128 Mg115 2.079 . S
O128 C127 1.245 . S
O129 Mg114 2.038 . S
O129 C127 1.274 . S
O130 Mg118 2.042 1_565 S
O130 C133 1.241 . S
O131 Mg117 1.984 . S
O131 C133 1.280 . S
O132 Mg118 2.041 . S
O132 C136 1.277 . S
C133 O130 1.241 . S
C133 O131 1.280 . S
O134 Mg117 1.988 1_545 S
O134 C136 1.245 . S
O135 C111 1.247 . S
O135 Mg117 2.061 . S
C136 O132 1.277 . S
C136 O134 1.245 . S
O137 C111 1.289 . S
O137 Mg114 2.238 1_565 S
O137 Mg115 2.106 1_565 S
O138 Mg115 2.079 1_565 S
O138 C120 1.245 . S
O139 Mg118 2.038 1_565 S
O139 C120 1.274 . S
C140 O152 1.241 . S
C140 O153 1.280 . S
C141 O154 1.277 . S
C141 O155 1.245 . S
C142 O166 1.247 . S
C142 O168 1.289 . S
Mg143 O144 1.926 . S
Mg143 O153 1.984 . S
Mg143 O155 1.988 . S
Mg143 O156 2.061 . S
O144 Mg143 1.926 . S
O144 Mg145 1.986 . S
O144 Mg146 1.917 . S
Mg145 O144 1.986 . S
Mg145 O152 2.042 . S
Mg145 O154 2.041 . S
Mg145 O160 2.038 . S
Mg145 O168 2.238 . S
Mg146 O144 1.917 . S
Mg146 O147 1.917 . S
Mg146 O157 2.106 . S
Mg146 O159 2.079 . S
Mg146 O168 2.106 . S
Mg146 O169 2.079 . S
O147 Mg146 1.917 . S
O147 Mg148 1.926 . S
O147 Mg149 1.986 . S
Mg148 O147 1.926 . S
Mg148 O162 1.984 . S
Mg148 O165 1.988 . S
Mg148 O166 2.061 . S
Mg149 O147 1.986 . S
Mg149 O157 2.238 . S
Mg149 O161 2.042 . S
Mg149 O163 2.041 . S
Mg149 O170 2.038 . S
C150 O156 1.247 . S
C150 O157 1.289 . S
C151 O169 1.245 . S
C151 O170 1.274 . S
O152 C140 1.241 . S
O152 Mg145 2.042 . S
O153 C140 1.280 . S
O153 Mg143 1.984 . S
O154 C141 1.277 . S
O154 Mg145 2.041 . S
O155 C141 1.245 . S
O155 Mg143 1.988 . S
O156 Mg143 2.061 . S
O156 C150 1.247 . S
O157 Mg146 2.106 . S
O157 Mg149 2.238 . S
O157 C150 1.289 . S
C158 O159 1.245 . S
C158 O160 1.274 . S
O159 Mg146 2.079 . S
O159 C158 1.245 . S
O160 Mg145 2.038 . S
O160 C158 1.274 . S
O161 Mg149 2.042 . S
O161 C164 1.241 . S
O162 Mg148 1.984 . S
O162 C164 1.280 . S
O163 Mg149 2.041 . S
O163 C167 1.277 . S
C164 O161 1.241 . S
C164 O162 1.280 . S
O165 Mg148 1.988 . S
O165 C167 1.245 . S
O166 C142 1.247 . S
O166 Mg148 2.061 . S
C167 O163 1.277 . S
C167 O165 1.245 . S
O168 C142 1.289 . S
O168 Mg145 2.238 . S
O168 Mg146 2.106 . S
O169 Mg146 2.079 . S
O169 C151 1.245 . S
O170 Mg149 2.038 . S
O170 C151 1.274 . S
H171 C179 0.929 . S
H172 C181 0.930 . S
H173 C183 0.930 . S
H174 C186 0.929 . S
H175 C189 0.930 . S
H176 C191 0.960 . S
H177 C191 0.960 . S
H178 C191 0.960 . S
C179 H171 0.929 . S
C179 C180 1.377 . S
C179 C181 1.384 . S
C180 C179 1.377 . S
C180 C186 1.390 . S
C181 H172 0.930 . S
C181 C179 1.384 . S
C181 C182 1.372 . S
C182 C181 1.372 . S
C182 C183 1.400 . S
C182 C187 1.490 . S
C183 H173 0.930 . S
C183 C182 1.400 . S
C183 C186 1.386 . S
H184 C200 0.930 . S
H185 C201 0.931 . S
C186 H174 0.929 . S
C186 C180 1.390 . S
C186 C183 1.386 . S
C187 C182 1.490 . S
C187 C189 1.395 . S
C187 C190 1.403 . S
H188 C194 0.930 . S
C189 H175 0.930 . S
C189 C187 1.395 . S
C189 C192 1.403 . S
C190 C187 1.403 . S
C190 C191 1.524 . S
C190 C194 1.400 . S
C191 H176 0.960 . S
C191 H177 0.960 . S
C191 H178 0.960 . S
C191 C190 1.524 . S
C192 C189 1.403 . S
C192 C193 1.392 . S
C192 C196 1.495 . S
C193 C192 1.392 . S
C193 C194 1.385 . S
C193 C195 1.478 . S
C194 H188 0.930 . S
C194 C190 1.400 . S
C194 C193 1.385 . S
C195 C193 1.478 . S
C195 C197 1.381 . S
C195 C201 1.383 . S
C196 C192 1.495 . S
C196 H202 0.959 . S
C196 H203 0.961 . S
C196 H204 0.960 . S
C197 C195 1.381 . S
C197 C198 1.394 . S
C197 H205 0.930 . S
C198 C197 1.394 . S
C198 C199 1.383 . S
C198 H206 0.929 . S
C199 C198 1.383 . S
C199 C200 1.377 . S
C200 H184 0.930 . S
C200 C199 1.377 . S
C200 C201 1.379 . S
C201 H185 0.931 . S
C201 C195 1.383 . S
C201 C200 1.379 . S
H202 C196 0.959 . S
H203 C196 0.961 . S
H204 C196 0.960 . S
H205 C197 0.930 . S
H206 C198 0.929 . S
H207 C215 0.929 . S
H208 C217 0.930 . S
H209 C219 0.930 . S
H210 C222 0.929 . S
H211 C225 0.930 . S
H212 C227 0.960 . S
H213 C227 0.960 . S
H214 C227 0.960 . S
C215 H207 0.929 . S
C215 C216 1.377 . S
C215 C217 1.384 . S
C216 C215 1.377 . S
C216 C222 1.390 . S
C217 H208 0.930 . S
C217 C215 1.384 . S
C217 C218 1.372 . S
C218 C217 1.372 . S
C218 C219 1.400 . S
C218 C223 1.490 . S
C219 H209 0.930 . S
C219 C218 1.400 . S
C219 C222 1.386 . S
H220 C236 0.930 . S
H221 C237 0.931 . S
C222 H210 0.929 . S
C222 C216 1.390 . S
C222 C219 1.386 . S
C223 C218 1.490 . S
C223 C225 1.395 . S
C223 C226 1.403 . S
H224 C230 0.930 . S
C225 H211 0.930 . S
C225 C223 1.395 . S
C225 C228 1.403 . S
C226 C223 1.403 . S
C226 C227 1.524 . S
C226 C230 1.400 . S
C227 H212 0.960 . S
C227 H213 0.960 . S
C227 H214 0.960 . S
C227 C226 1.524 . S
C228 C225 1.403 . S
C228 C229 1.392 . S
C228 C232 1.495 . S
C229 C228 1.392 . S
C229 C230 1.385 . S
C229 C231 1.478 . S
C230 H224 0.930 . S
C230 C226 1.400 . S
C230 C229 1.385 . S
C231 C229 1.478 . S
C231 C233 1.381 . S
C231 C237 1.383 . S
C232 C228 1.495 . S
C232 H238 0.959 . S
C232 H239 0.961 . S
C232 H240 0.960 . S
C233 C231 1.381 . S
C233 C234 1.394 . S
C233 H241 0.930 . S
C234 C233 1.394 . S
C234 C235 1.383 . S
C234 H242 0.929 . S
C235 C234 1.383 . S
C235 C236 1.377 . S
C236 H220 0.930 . S
C236 C235 1.377 . S
C236 C237 1.379 . S
C237 H221 0.931 . S
C237 C231 1.383 . S
C237 C236 1.379 . S
H238 C232 0.959 . S
H239 C232 0.961 . S
H240 C232 0.960 . S
H241 C233 0.930 . S
H242 C234 0.929 . S
H243 C251 0.929 . S
H244 C253 0.930 . S
H245 C255 0.930 . S
H246 C258 0.929 . S
H247 C261 0.930 . S
H248 C263 0.960 . S
H249 C263 0.960 . S
H250 C263 0.960 . S
C251 H243 0.929 . S
C251 C252 1.377 . S
C251 C253 1.384 . S
C252 C251 1.377 . S
C252 C258 1.390 . S
C253 H244 0.930 . S
C253 C251 1.384 . S
C253 C254 1.372 . S
C254 C253 1.372 . S
C254 C255 1.400 . S
C254 C259 1.490 . S
C255 H245 0.930 . S
C255 C254 1.400 . S
C255 C258 1.386 . S
H256 C272 0.930 . S
H257 C273 0.931 . S
C258 H246 0.929 . S
C258 C252 1.390 . S
C258 C255 1.386 . S
C259 C254 1.490 . S
C259 C261 1.395 . S
C259 C262 1.403 . S
H260 C266 0.930 . S
C261 H247 0.930 . S
C261 C259 1.395 . S
C261 C264 1.403 . S
C262 C259 1.403 . S
C262 C263 1.524 . S
C262 C266 1.400 . S
C263 H248 0.960 . S
C263 H249 0.960 . S
C263 H250 0.960 . S
C263 C262 1.524 . S
C264 C261 1.403 . S
C264 C265 1.392 . S
C264 C268 1.495 . S
C265 C264 1.392 . S
C265 C266 1.385 . S
C265 C267 1.478 . S
C266 H260 0.930 . S
C266 C262 1.400 . S
C266 C265 1.385 . S
C267 C265 1.478 . S
C267 C269 1.381 . S
C267 C273 1.383 . S
C268 C264 1.495 . S
C268 H274 0.959 . S
C268 H275 0.961 . S
C268 H276 0.960 . S
C269 C267 1.381 . S
C269 C270 1.394 . S
C269 H277 0.930 . S
C270 C269 1.394 . S
C270 C271 1.383 . S
C270 H278 0.929 . S
C271 C270 1.383 . S
C271 C272 1.377 . S
C272 H256 0.930 . S
C272 C271 1.377 . S
C272 C273 1.379 . S
C273 H257 0.931 . S
C273 C267 1.383 . S
C273 C272 1.379 . S
H274 C268 0.959 . S
H275 C268 0.961 . S
H276 C268 0.960 . S
H277 C269 0.930 . S
H278 C270 0.929 . S
H279 C287 0.929 . S
H280 C289 0.930 . S
H281 C291 0.930 . S
H282 C294 0.929 . S
H283 C297 0.930 . S
H284 C299 0.960 . S
H285 C299 0.960 . S
H286 C299 0.960 . S
C287 H279 0.929 . S
C287 C288 1.377 . S
C287 C289 1.384 . S
C288 C287 1.377 . S
C288 C294 1.390 . S
C289 H280 0.930 . S
C289 C287 1.384 . S
C289 C290 1.372 . S
C290 C289 1.372 . S
C290 C291 1.400 . S
C290 C295 1.490 . S
C291 H281 0.930 . S
C291 C290 1.400 . S
C291 C294 1.386 . S
H292 C308 0.930 . S
H293 C309 0.931 . S
C294 H282 0.929 . S
C294 C288 1.390 . S
C294 C291 1.386 . S
C295 C290 1.490 . S
C295 C297 1.395 . S
C295 C298 1.403 . S
H296 C302 0.930 . S
C297 H283 0.930 . S
C297 C295 1.395 . S
C297 C300 1.403 . S
C298 C295 1.403 . S
C298 C299 1.524 . S
C298 C302 1.400 . S
C299 H284 0.960 . S
C299 H285 0.960 . S
C299 H286 0.960 . S
C299 C298 1.524 . S
C300 C297 1.403 . S
C300 C301 1.392 . S
C300 C304 1.495 . S
C301 C300 1.392 . S
C301 C302 1.385 . S
C301 C303 1.478 . S
C302 H296 0.930 . S
C302 C298 1.400 . S
C302 C301 1.385 . S
C303 C301 1.478 . S
C303 C305 1.381 . S
C303 C309 1.383 . S
C304 C300 1.495 . S
C304 H310 0.959 . S
C304 H311 0.961 . S
C304 H312 0.960 . S
C305 C303 1.381 . S
C305 C306 1.394 . S
C305 H313 0.930 . S
C306 C305 1.394 . S
C306 C307 1.383 . S
C306 H314 0.929 . S
C307 C306 1.383 . S
C307 C308 1.377 . S
C308 H292 0.930 . S
C308 C307 1.377 . S
C308 C309 1.379 . S
C309 H293 0.931 . S
C309 C303 1.383 . S
C309 C308 1.379 . S
H310 C304 0.959 . S
H311 C304 0.961 . S
H312 C304 0.960 . S
H313 C305 0.930 . S
H314 C306 0.929 . S
H315 C323 0.929 . S
H316 C325 0.930 . S
H317 C327 0.930 . S
H318 C330 0.929 . S
H319 C333 0.930 . S
H320 C335 0.960 . S
H321 C335 0.960 . S
H322 C335 0.960 . S
C323 H315 0.929 . S
C323 C324 1.377 . S
C323 C325 1.384 . S
C324 C323 1.377 . S
C324 C330 1.390 . S
C325 H316 0.930 . S
C325 C323 1.384 . S
C325 C326 1.372 . S
C326 C325 1.372 . S
C326 C327 1.400 . S
C326 C331 1.490 . S
C327 H317 0.930 . S
C327 C326 1.400 . S
C327 C330 1.386 . S
H328 C344 0.930 . S
H329 C345 0.931 . S
C330 H318 0.929 . S
C330 C324 1.390 . S
C330 C327 1.386 . S
C331 C326 1.490 . S
C331 C333 1.395 . S
C331 C334 1.403 . S
H332 C338 0.930 . S
C333 H319 0.930 . S
C333 C331 1.395 . S
C333 C336 1.403 . S
C334 C331 1.403 . S
C334 C335 1.524 . S
C334 C338 1.400 . S
C335 H320 0.960 . S
C335 H321 0.960 . S
C335 H322 0.960 . S
C335 C334 1.524 . S
C336 C333 1.403 . S
C336 C337 1.392 . S
C336 C340 1.495 . S
C337 C336 1.392 . S
C337 C338 1.385 . S
C337 C339 1.478 . S
C338 H332 0.930 . S
C338 C334 1.400 . S
C338 C337 1.385 . S
C339 C337 1.478 . S
C339 C341 1.381 . S
C339 C345 1.383 . S
C340 C336 1.495 . S
C340 H346 0.959 . S
C340 H347 0.961 . S
C340 H348 0.960 . S
C341 C339 1.381 . S
C341 C342 1.394 . S
C341 H349 0.930 . S
C342 C341 1.394 . S
C342 C343 1.383 . S
C342 H350 0.929 . S
C343 C342 1.383 . S
C343 C344 1.377 . S
C344 H328 0.930 . S
C344 C343 1.377 . S
C344 C345 1.379 . S
C345 H329 0.931 . S
C345 C339 1.383 . S
C345 C344 1.379 . S
H346 C340 0.959 . S
H347 C340 0.961 . S
H348 C340 0.960 . S
H349 C341 0.930 . S
H350 C342 0.929 . S
H351 C359 0.929 . S
H352 C361 0.930 . S
H353 C363 0.930 . S
H354 C366 0.929 . S
H355 C369 0.930 . S
H356 C371 0.960 . S
H357 C371 0.960 . S
H358 C371 0.960 . S
C359 H351 0.929 . S
C359 C360 1.377 . S
C359 C361 1.384 . S
C360 C359 1.377 . S
C360 C366 1.390 . S
C361 H352 0.930 . S
C361 C359 1.384 . S
C361 C362 1.372 . S
C362 C361 1.372 . S
C362 C363 1.400 . S
C362 C367 1.490 . S
C363 H353 0.930 . S
C363 C362 1.400 . S
C363 C366 1.386 . S
H364 C380 0.930 . S
H365 C381 0.931 . S
C366 H354 0.929 . S
C366 C360 1.390 . S
C366 C363 1.386 . S
C367 C362 1.490 . S
C367 C369 1.395 . S
C367 C370 1.403 . S
H368 C374 0.930 . S
C369 H355 0.930 . S
C369 C367 1.395 . S
C369 C372 1.403 . S
C370 C367 1.403 . S
C370 C371 1.524 . S
C370 C374 1.400 . S
C371 H356 0.960 . S
C371 H357 0.960 . S
C371 H358 0.960 . S
C371 C370 1.524 . S
C372 C369 1.403 . S
C372 C373 1.392 . S
C372 C376 1.495 . S
C373 C372 1.392 . S
C373 C374 1.385 . S
C373 C375 1.478 . S
C374 H368 0.930 . S
C374 C370 1.400 . S
C374 C373 1.385 . S
C375 C373 1.478 . S
C375 C377 1.381 . S
C375 C381 1.383 . S
C376 C372 1.495 . S
C376 H382 0.959 . S
C376 H383 0.961 . S
C376 H384 0.960 . S
C377 C375 1.381 . S
C377 C378 1.394 . S
C377 H385 0.930 . S
C378 C377 1.394 . S
C378 C379 1.383 . S
C378 H386 0.929 . S
C379 C378 1.383 . S
C379 C380 1.377 . S
C380 H364 0.930 . S
C380 C379 1.377 . S
C380 C381 1.379 . S
C381 H365 0.931 . S
C381 C375 1.383 . S
C381 C380 1.379 . S
H382 C376 0.959 . S
H383 C376 0.961 . S
H384 C376 0.960 . S
H385 C377 0.930 . S
H386 C378 0.929 . S
H387 C395 0.929 . S
H388 C397 0.930 . S
H389 C399 0.930 . S
H390 C402 0.929 . S
H391 C405 0.930 . S
H392 C407 0.960 . S
H393 C407 0.960 . S
H394 C407 0.960 . S
C395 H387 0.929 . S
C395 C396 1.377 . S
C395 C397 1.384 . S
C396 C395 1.377 . S
C396 C402 1.390 . S
C397 H388 0.930 . S
C397 C395 1.384 . S
C397 C398 1.372 . S
C398 C397 1.372 . S
C398 C399 1.400 . S
C398 C403 1.490 . S
C399 H389 0.930 . S
C399 C398 1.400 . S
C399 C402 1.386 . S
H400 C416 0.930 . S
H401 C417 0.931 . S
C402 H390 0.929 . S
C402 C396 1.390 . S
C402 C399 1.386 . S
C403 C398 1.490 . S
C403 C405 1.395 . S
C403 C406 1.403 . S
H404 C410 0.930 . S
C405 H391 0.930 . S
C405 C403 1.395 . S
C405 C408 1.403 . S
C406 C403 1.403 . S
C406 C407 1.524 . S
C406 C410 1.400 . S
C407 H392 0.960 . S
C407 H393 0.960 . S
C407 H394 0.960 . S
C407 C406 1.524 . S
C408 C405 1.403 . S
C408 C409 1.392 . S
C408 C412 1.495 . S
C409 C408 1.392 . S
C409 C410 1.385 . S
C409 C411 1.478 . S
C410 H404 0.930 . S
C410 C406 1.400 . S
C410 C409 1.385 . S
C411 C409 1.478 . S
C411 C413 1.381 . S
C411 C417 1.383 . S
C412 C408 1.495 . S
C412 H418 0.959 . S
C412 H419 0.961 . S
C412 H420 0.960 . S
C413 C411 1.381 . S
C413 C414 1.394 . S
C413 H421 0.930 . S
C414 C413 1.394 . S
C414 C415 1.383 . S
C414 H422 0.929 . S
C415 C414 1.383 . S
C415 C416 1.377 . S
C416 H400 0.930 . S
C416 C415 1.377 . S
C416 C417 1.379 . S
C417 H401 0.931 . S
C417 C411 1.383 . S
C417 C416 1.379 . S
H418 C412 0.959 . S
H419 C412 0.961 . S
H420 C412 0.960 . S
H421 C413 0.930 . S
H422 C414 0.929 . S
H423 C431 0.929 . S
H424 C433 0.930 . S
H425 C435 0.930 . S
H426 C438 0.929 1_554 S
H427 C441 0.930 . S
H428 C443 0.960 . S
H429 C443 0.960 . S
H430 C443 0.960 . S
C431 H423 0.929 . S
C431 C432 1.377 . S
C431 C433 1.384 . S
C432 C431 1.377 . S
C432 C438 1.390 . S
C433 H424 0.930 . S
C433 C431 1.384 . S
C433 C434 1.372 . S
C434 C433 1.372 . S
C434 C435 1.400 . S
C434 C439 1.490 . S
C435 H425 0.930 . S
C435 C434 1.400 . S
C435 C438 1.386 . S
H436 C452 0.930 . S
H437 C453 0.931 . S
C438 H426 0.929 1_556 S
C438 C432 1.390 . S
C438 C435 1.386 . S
C439 C434 1.490 . S
C439 C441 1.395 . S
C439 C442 1.403 . S
H440 C446 0.930 . S
C441 H427 0.930 . S
C441 C439 1.395 . S
C441 C444 1.403 . S
C442 C439 1.403 . S
C442 C443 1.524 . S
C442 C446 1.400 . S
C443 H428 0.960 . S
C443 H429 0.960 . S
C443 H430 0.960 . S
C443 C442 1.524 . S
C444 C441 1.403 . S
C444 C445 1.392 . S
C444 C448 1.495 . S
C445 C444 1.392 . S
C445 C446 1.385 . S
C445 C447 1.478 . S
C446 H440 0.930 . S
C446 C442 1.400 . S
C446 C445 1.385 . S
C447 C445 1.478 . S
C447 C449 1.381 . S
C447 C453 1.383 . S
C448 C444 1.495 . S
C448 H454 0.959 . S
C448 H455 0.961 . S
C448 H456 0.960 . S
C449 C447 1.381 . S
C449 C450 1.394 . S
C449 H457 0.930 . S
C450 C449 1.394 . S
C450 C451 1.383 . S
C450 H458 0.929 . S
C451 C450 1.383 . S
C451 C452 1.377 . S
C452 H436 0.930 . S
C452 C451 1.377 . S
C452 C453 1.379 . S
C453 H437 0.931 . S
C453 C447 1.383 . S
C453 C452 1.379 . S
H454 C448 0.959 . S
H455 C448 0.961 . S
H456 C448 0.960 . S
H457 C449 0.930 . S
H458 C450 0.929 . S
H459 C467 0.929 1_554 S
H460 C469 0.930 . S
H461 C471 0.930 . S
H462 C474 0.929 . S
H463 C477 0.930 . S
H464 C479 0.960 . S
H465 C479 0.960 . S
H466 C479 0.960 . S
C467 H459 0.929 1_556 S
C467 C468 1.377 . S
C467 C469 1.384 . S
C468 C467 1.377 . S
C468 C474 1.390 . S
C469 H460 0.930 . S
C469 C467 1.384 . S
C469 C470 1.372 . S
C470 C469 1.372 . S
C470 C471 1.400 . S
C470 C475 1.490 . S
C471 H461 0.930 . S
C471 C470 1.400 . S
C471 C474 1.386 . S
H472 C488 0.930 . S
H473 C489 0.931 . S
C474 H462 0.929 . S
C474 C468 1.390 . S
C474 C471 1.386 . S
C475 C470 1.490 . S
C475 C477 1.395 . S
C475 C478 1.403 . S
H476 C482 0.930 . S
C477 H463 0.930 . S
C477 C475 1.395 . S
C477 C480 1.403 . S
C478 C475 1.403 . S
C478 C479 1.524 . S
C478 C482 1.400 . S
C479 H464 0.960 . S
C479 H465 0.960 . S
C479 H466 0.960 . S
C479 C478 1.524 . S
C480 C477 1.403 . S
C480 C481 1.392 . S
C480 C484 1.495 . S
C481 C480 1.392 . S
C481 C482 1.385 . S
C481 C483 1.478 . S
C482 H476 0.930 . S
C482 C478 1.400 . S
C482 C481 1.385 . S
C483 C481 1.478 . S
C483 C485 1.381 . S
C483 C489 1.383 . S
C484 C480 1.495 . S
C484 H490 0.959 . S
C484 H491 0.961 . S
C484 H492 0.960 . S
C485 C483 1.381 . S
C485 C486 1.394 . S
C485 H493 0.930 . S
C486 C485 1.394 . S
C486 C487 1.383 . S
C486 H494 0.929 . S
C487 C486 1.383 . S
C487 C488 1.377 . S
C488 H472 0.930 . S
C488 C487 1.377 . S
C488 C489 1.379 . S
C489 H473 0.931 . S
C489 C483 1.383 . S
C489 C488 1.379 . S
H490 C484 0.959 . S
H491 C484 0.961 . S
H492 C484 0.960 . S
H493 C485 0.930 . S
H494 C486 0.929 . S
H495 C503 0.929 . S
H496 C505 0.930 . S
H497 C507 0.930 1_556 S
H498 C510 0.929 . S
H499 C513 0.930 . S
H500 C515 0.960 . S
H501 C515 0.960 . S
H502 C515 0.960 . S
C503 H495 0.929 . S
C503 C504 1.377 . S
C503 C505 1.384 . S
C504 C503 1.377 . S
C504 C510 1.390 . S
C505 H496 0.930 . S
C505 C503 1.384 . S
C505 C506 1.372 . S
C506 C505 1.372 . S
C506 C507 1.400 . S
C506 C511 1.490 1_554 S
C507 H497 0.930 1_554 S
C507 C506 1.400 . S
C507 C510 1.386 . S
H508 C524 0.930 . S
H509 C525 0.931 . S
C510 H498 0.929 . S
C510 C504 1.390 . S
C510 C507 1.386 . S
C511 C506 1.490 1_556 S
C511 C513 1.395 . S
C511 C514 1.403 . S
H512 C518 0.930 . S
C513 H499 0.930 . S
C513 C511 1.395 . S
C513 C516 1.403 . S
C514 C511 1.403 . S
C514 C515 1.524 1_556 S
C514 C518 1.400 . S
C515 H500 0.960 . S
C515 H501 0.960 . S
C515 H502 0.960 . S
C515 C514 1.524 1_554 S
C516 C513 1.403 . S
C516 C517 1.392 . S
C516 C520 1.495 . S
C517 C516 1.392 . S
C517 C518 1.385 . S
C517 C519 1.478 . S
C518 H512 0.930 . S
C518 C514 1.400 . S
C518 C517 1.385 . S
C519 C517 1.478 . S
C519 C521 1.381 . S
C519 C525 1.383 . S
C520 C516 1.495 . S
C520 H526 0.959 . S
C520 H527 0.961 . S
C520 H528 0.960 . S
C521 C519 1.381 . S
C521 C522 1.394 . S
C521 H529 0.930 . S
C522 C521 1.394 . S
C522 C523 1.383 . S
C522 H530 0.929 . S
C523 C522 1.383 . S
C523 C524 1.377 . S
C524 H508 0.930 . S
C524 C523 1.377 . S
C524 C525 1.379 . S
C525 H509 0.931 . S
C525 C519 1.383 . S
C525 C524 1.379 . S
H526 C520 0.959 . S
H527 C520 0.961 . S
H528 C520 0.960 . S
H529 C521 0.930 . S
H530 C522 0.929 . S
H531 C539 0.929 . S
H532 C541 0.930 . S
H533 C543 0.930 . S
H534 C546 0.929 . S
H535 C549 0.930 . S
H536 C551 0.960 . S
H537 C551 0.960 . S
H538 C551 0.960 . S
C539 H531 0.929 . S
C539 C540 1.377 . S
C539 C541 1.384 . S
C540 C539 1.377 . S
C540 C546 1.390 1_554 S
C541 H532 0.930 . S
C541 C539 1.384 . S
C541 C542 1.372 1_554 S
C542 C541 1.372 1_556 S
C542 C543 1.400 . S
C542 C547 1.490 . S
C543 H533 0.930 . S
C543 C542 1.400 . S
C543 C546 1.386 . S
H544 C560 0.930 . S
H545 C561 0.931 . S
C546 H534 0.929 . S
C546 C540 1.390 1_556 S
C546 C543 1.386 . S
C547 C542 1.490 . S
C547 C549 1.395 . S
C547 C550 1.403 . S
H548 C554 0.930 . S
C549 H535 0.930 . S
C549 C547 1.395 . S
C549 C552 1.403 . S
C550 C547 1.403 . S
C550 C551 1.524 . S
C550 C554 1.400 . S
C551 H536 0.960 . S
C551 H537 0.960 . S
C551 H538 0.960 . S
C551 C550 1.524 . S
C552 C549 1.403 . S
C552 C553 1.392 . S
C552 C556 1.495 . S
C553 C552 1.392 . S
C553 C554 1.385 . S
C553 C555 1.478 . S
C554 H548 0.930 . S
C554 C550 1.400 . S
C554 C553 1.385 . S
C555 C553 1.478 . S
C555 C557 1.381 . S
C555 C561 1.383 . S
C556 C552 1.495 . S
C556 H562 0.959 . S
C556 H563 0.961 . S
C556 H564 0.960 . S
C557 C555 1.381 . S
C557 C558 1.394 . S
C557 H565 0.930 . S
C558 C557 1.394 . S
C558 C559 1.383 . S
C558 H566 0.929 . S
C559 C558 1.383 . S
C559 C560 1.377 . S
C560 H544 0.930 . S
C560 C559 1.377 . S
C560 C561 1.379 . S
C561 H545 0.931 . S
C561 C555 1.383 . S
C561 C560 1.379 . S
H562 C556 0.959 . S
H563 C556 0.961 . S
H564 C556 0.960 . S
H565 C557 0.930 . S
H566 C558 0.929 . S
H567 C575 0.929 . S
H568 C577 0.930 . S
H569 C579 0.930 . S
H570 C582 0.929 . S
H571 C585 0.943 . S
H572 C587 0.960 . S
H573 C587 0.960 . S
H574 C587 0.960 . S
C575 H567 0.929 . S
C575 C576 1.377 . S
C575 C577 1.384 . S
C576 C575 1.377 . S
C576 C582 1.390 1_554 S
C577 H568 0.930 . S
C577 C575 1.384 . S
C577 C578 1.372 1_554 S
C578 C577 1.372 1_556 S
C578 C579 1.400 . S
C578 C583 1.490 . S
C579 H569 0.930 . S
C579 C578 1.400 . S
C579 C582 1.386 . S
H580 C596 0.930 . S
H581 C597 0.931 . S
C582 H570 0.929 . S
C582 C576 1.390 1_556 S
C582 C579 1.386 . S
C583 C578 1.490 . S
C583 C585 1.395 . S
C583 C586 1.403 . S
H584 C590 0.930 . S
C585 H571 0.943 . S
C585 C583 1.395 . S
C585 C588 1.403 . S
C586 C583 1.403 . S
C586 C587 1.524 . S
C586 C590 1.400 . S
C587 H572 0.960 . S
C587 H573 0.960 . S
C587 H574 0.960 . S
C587 C586 1.524 . S
C588 C585 1.403 . S
C588 C589 1.392 . S
C588 C592 1.495 . S
C589 C588 1.392 . S
C589 C590 1.385 . S
C589 C591 1.478 . S
C590 H584 0.930 . S
C590 C586 1.400 . S
C590 C589 1.385 . S
C591 C589 1.478 . S
C591 C593 1.381 . S
C591 C597 1.383 . S
C592 C588 1.495 . S
C592 H598 0.959 1_556 S
C592 H599 0.961 . S
C592 H600 0.960 . S
C593 C591 1.381 . S
C593 C594 1.394 . S
C593 H601 0.930 . S
C594 C593 1.394 . S
C594 C595 1.383 . S
C594 H602 0.929 . S
C595 C594 1.383 . S
C595 C596 1.377 . S
C596 H580 0.930 . S
C596 C595 1.377 . S
C596 C597 1.379 . S
C597 H581 0.931 . S
C597 C591 1.383 . S
C597 C596 1.379 . S
H598 C592 0.959 1_554 S
H599 C592 0.961 . S
H600 C592 0.960 . S
H601 C593 0.930 . S
H602 C594 0.929 . S
H603 C611 0.929 . S
H604 C613 0.930 . S
H605 C615 0.930 . S
H606 C618 0.929 . S
H607 C621 0.930 . S
H608 C623 0.960 . S
H609 C623 0.960 . S
H610 C623 0.960 . S
C611 H603 0.929 . S
C611 C612 1.377 . S
C611 C613 1.384 . S
C612 C611 1.377 . S
C612 C618 1.390 . S
C613 H604 0.930 . S
C613 C611 1.384 . S
C613 C614 1.372 . S
C614 C613 1.372 . S
C614 C615 1.400 . S
C614 C619 1.490 . S
C615 H605 0.930 . S
C615 C614 1.400 . S
C615 C618 1.386 . S
H616 C632 0.930 . S
H617 C633 0.931 . S
C618 H606 0.929 . S
C618 C612 1.390 . S
C618 C615 1.386 . S
C619 C614 1.490 . S
C619 C621 1.395 . S
C619 C622 1.403 . S
H620 C626 0.930 . S
C621 H607 0.930 . S
C621 C619 1.395 . S
C621 C624 1.403 . S
C622 C619 1.403 . S
C622 C623 1.524 . S
C622 C626 1.400 . S
C623 H608 0.960 . S
C623 H609 0.960 . S
C623 H610 0.960 . S
C623 C622 1.524 . S
C624 C621 1.403 . S
C624 C625 1.392 . S
C624 C628 1.495 . S
C625 C624 1.392 . S
C625 C626 1.385 . S
C625 C627 1.478 . S
C626 H620 0.930 . S
C626 C622 1.400 . S
C626 C625 1.385 . S
C627 C625 1.478 . S
C627 C629 1.381 . S
C627 C633 1.383 . S
C628 C624 1.495 . S
C628 H634 0.959 . S
C628 H635 0.961 . S
C628 H636 0.960 . S
C629 C627 1.381 . S
C629 C630 1.394 . S
C629 H637 0.930 . S
C630 C629 1.394 . S
C630 C631 1.383 . S
C630 H638 0.929 . S
C631 C630 1.383 . S
C631 C632 1.377 . S
C632 H616 0.930 . S
C632 C631 1.377 . S
C632 C633 1.379 . S
C633 H617 0.931 . S
C633 C627 1.383 . S
C633 C632 1.379 . S
H634 C628 0.959 . S
H635 C628 0.961 . S
H636 C628 0.960 . S
H637 C629 0.930 . S
H638 C630 0.929 . S
H639 C647 0.929 . S
H640 C649 0.930 . S
H641 C651 0.930 . S
H642 C654 0.929 . S
H643 C657 0.930 . S
H644 C659 0.960 . S
H645 C659 0.960 . S
H646 C659 0.960 . S
C647 H639 0.929 . S
C647 C648 1.377 . S
C647 C649 1.384 . S
C648 C647 1.377 . S
C648 C654 1.390 . S
C649 H640 0.930 . S
C649 C647 1.384 . S
C649 C650 1.372 . S
C650 C649 1.372 . S
C650 C651 1.400 . S
C650 C655 1.490 . S
C651 H641 0.930 . S
C651 C650 1.400 . S
C651 C654 1.386 . S
H652 C668 0.930 . S
H653 C669 0.931 . S
C654 H642 0.929 . S
C654 C648 1.390 . S
C654 C651 1.386 . S
C655 C650 1.490 . S
C655 C657 1.395 . S
C655 C658 1.403 . S
H656 C662 0.930 . S
C657 H643 0.930 . S
C657 C655 1.395 . S
C657 C660 1.403 . S
C658 C655 1.403 . S
C658 C659 1.524 . S
C658 C662 1.400 . S
C659 H644 0.960 . S
C659 H645 0.960 . S
C659 H646 0.960 . S
C659 C658 1.524 . S
C660 C657 1.403 . S
C660 C661 1.392 . S
C660 C664 1.495 . S
C661 C660 1.392 . S
C661 C662 1.385 . S
C661 C663 1.478 . S
C662 H656 0.930 . S
C662 C658 1.400 . S
C662 C661 1.385 . S
C663 C661 1.478 . S
C663 C665 1.381 . S
C663 C669 1.383 . S
C664 C660 1.495 . S
C664 H670 0.959 . S
C664 H671 0.961 . S
C664 H672 0.960 . S
C665 C663 1.381 . S
C665 C666 1.394 . S
C665 H673 0.930 . S
C666 C665 1.394 . S
C666 C667 1.383 . S
C666 H674 0.929 . S
C667 C666 1.383 . S
C667 C668 1.377 . S
C668 H652 0.930 . S
C668 C667 1.377 . S
C668 C669 1.379 . S
C669 H653 0.931 . S
C669 C663 1.383 . S
C669 C668 1.379 . S
H670 C664 0.959 . S
H671 C664 0.961 . S
H672 C664 0.960 . S
H673 C665 0.930 . S
H674 C666 0.929 . S
H675 C683 0.929 . S
H676 C685 0.930 . S
H677 C687 0.930 1_556 S
H678 C690 0.929 . S
H679 C693 0.930 . S
H680 C695 0.957 1_556 S
H681 C695 0.968 . S
H682 C695 0.960 1_556 S
C683 H675 0.929 . S
C683 C684 1.377 . S
C683 C685 1.384 . S
C684 C683 1.377 . S
C684 C690 1.390 . S
C685 H676 0.930 . S
C685 C683 1.384 . S
C685 C686 1.372 . S
C686 C685 1.372 . S
C686 C687 1.400 . S
C686 C691 1.490 1_554 S
C687 H677 0.930 1_554 S
C687 C686 1.400 . S
C687 C690 1.386 . S
H688 C704 0.930 . S
H689 C705 0.931 . S
C690 H678 0.929 . S
C690 C684 1.390 . S
C690 C687 1.386 . S
C691 C686 1.490 1_556 S
C691 C693 1.395 . S
C691 C694 1.403 . S
H692 C698 0.930 . S
C693 H679 0.930 . S
C693 C691 1.395 . S
C693 C696 1.403 . S
C694 C691 1.403 . S
C694 C695 1.519 1_556 S
C694 C698 1.400 . S
C695 H680 0.957 1_554 S
C695 H681 0.968 . S
C695 H682 0.960 1_554 S
C695 C694 1.519 1_554 S
C696 C693 1.403 . S
C696 C697 1.392 . S
C696 C700 1.495 . S
C697 C696 1.392 . S
C697 C698 1.385 . S
C697 C699 1.478 . S
C698 H692 0.930 . S
C698 C694 1.400 . S
C698 C697 1.385 . S
C699 C697 1.478 . S
C699 C701 1.381 . S
C699 C705 1.383 . S
C700 C696 1.495 . S
C700 H706 0.959 . S
C700 H707 0.961 . S
C700 H708 0.960 . S
C701 C699 1.381 . S
C701 C702 1.394 . S
C701 H709 0.930 . S
C702 C701 1.394 . S
C702 C703 1.383 . S
C702 H710 0.929 . S
C703 C702 1.383 . S
C703 C704 1.377 . S
C704 H688 0.930 . S
C704 C703 1.377 . S
C704 C705 1.379 . S
C705 H689 0.931 . S
C705 C699 1.383 . S
C705 C704 1.379 . S
H706 C700 0.959 . S
H707 C700 0.961 . S
H708 C700 0.960 . S
H709 C701 0.930 . S
H710 C702 0.929 . S
H711 C719 0.929 . S
H712 C721 0.925 1_556 S
H713 C723 0.930 . S
H714 C726 0.929 . S
H715 C729 0.930 . S
H716 C731 0.960 . S
H717 C731 0.960 1_554 S
H718 C731 0.960 . S
C719 H711 0.929 . S
C719 C720 1.377 . S
C719 C721 1.398 . S
C720 C719 1.377 . S
C720 C726 1.390 . S
C721 H712 0.925 1_554 S
C721 C719 1.398 . S
C721 C722 1.363 1_554 S
C722 C721 1.363 1_556 S
C722 C723 1.400 . S
C722 C727 1.490 . S
C723 H713 0.930 . S
C723 C722 1.400 . S
C723 C726 1.386 1_556 S
H724 C740 0.930 . S
H725 C741 0.931 . S
C726 H714 0.929 . S
C726 C720 1.390 . S
C726 C723 1.386 1_554 S
C727 C722 1.490 . S
C727 C729 1.395 . S
C727 C730 1.403 . S
H728 C734 0.930 . S
C729 H715 0.930 . S
C729 C727 1.395 . S
C729 C732 1.403 . S
C730 C727 1.403 . S
C730 C731 1.524 . S
C730 C734 1.400 . S
C731 H716 0.960 . S
C731 H717 0.960 1_556 S
C731 H718 0.960 . S
C731 C730 1.524 . S
C732 C729 1.403 . S
C732 C733 1.392 . S
C732 C736 1.495 . S
C733 C732 1.392 . S
C733 C734 1.385 . S
C733 C735 1.478 . S
C734 H728 0.930 . S
C734 C730 1.400 . S
C734 C733 1.385 . S
C735 C733 1.478 . S
C735 C737 1.381 . S
C735 C741 1.383 . S
C736 C732 1.495 . S
C736 H742 0.959 . S
C736 H743 0.961 . S
C736 H744 0.960 . S
C737 C735 1.381 . S
C737 C738 1.394 . S
C737 H745 0.930 . S
C738 C737 1.394 . S
C738 C739 1.383 . S
C738 H746 0.929 . S
C739 C738 1.383 . S
C739 C740 1.377 . S
C740 H724 0.930 . S
C740 C739 1.377 . S
C740 C741 1.379 . S
C741 H725 0.931 . S
C741 C735 1.383 . S
C741 C740 1.379 . S
H742 C736 0.959 . S
H743 C736 0.961 . S
H744 C736 0.960 . S
H745 C737 0.930 . S
H746 C738 0.929 . S
H747 C755 0.929 1_554 S
H748 C757 0.930 . S
H749 C759 0.930 . S
H750 C762 0.929 1_554 S
H751 C765 0.930 . S
H752 C767 0.960 . S
H753 C767 0.960 . S
H754 C767 0.960 . S
C755 H747 0.929 1_556 S
C755 C756 1.377 1_556 S
C755 C757 1.384 . S
C756 C755 1.377 1_554 S
C756 C762 1.390 1_554 S
C757 H748 0.930 . S
C757 C755 1.384 . S
C757 C758 1.372 . S
C758 C757 1.372 . S
C758 C759 1.400 . S
C758 C763 1.490 . S
C759 H749 0.930 . S
C759 C758 1.400 . S
C759 C762 1.386 . S
H760 C776 0.930 . S
H761 C777 0.931 . S
C762 H750 0.929 1_556 S
C762 C756 1.390 1_556 S
C762 C759 1.386 . S
C763 C758 1.490 . S
C763 C765 1.395 . S
C763 C766 1.403 . S
H764 C770 0.930 . S
C765 H751 0.930 . S
C765 C763 1.395 . S
C765 C768 1.403 . S
C766 C763 1.403 . S
C766 C767 1.524 . S
C766 C770 1.400 . S
C767 H752 0.960 . S
C767 H753 0.960 . S
C767 H754 0.960 . S
C767 C766 1.524 . S
C768 C765 1.403 . S
C768 C769 1.392 . S
C768 C772 1.495 . S
C769 C768 1.392 . S
C769 C770 1.385 . S
C769 C771 1.478 . S
C770 H764 0.930 . S
C770 C766 1.400 . S
C770 C769 1.385 . S
C771 C769 1.478 . S
C771 C773 1.381 . S
C771 C777 1.383 . S
C772 C768 1.495 . S
C772 H778 0.959 . S
C772 H779 0.961 . S
C772 H780 0.960 . S
C773 C771 1.381 . S
C773 C774 1.394 . S
C773 H781 0.930 . S
C774 C773 1.394 . S
C774 C775 1.383 . S
C774 H782 0.929 . S
C775 C774 1.383 . S
C775 C776 1.377 . S
C776 H760 0.930 . S
C776 C775 1.377 . S
C776 C777 1.379 . S
C777 H761 0.931 . S
C777 C771 1.383 . S
C777 C776 1.379 . S
H778 C772 0.959 . S
H779 C772 0.961 . S
H780 C772 0.960 . S
H781 C773 0.930 . S
H782 C774 0.929 . S
H783 C791 0.929 . S
H784 C793 0.930 . S
H785 C795 0.930 . S
H786 C798 0.929 . S
H787 C801 0.930 . S
H788 C803 0.960 . S
H789 C803 0.960 . S
H790 C803 0.960 . S
C791 H783 0.929 . S
C791 C792 1.377 . S
C791 C793 1.384 . S
C792 C791 1.377 . S
C792 C798 1.390 . S
C793 H784 0.930 . S
C793 C791 1.384 . S
C793 C794 1.372 . S
C794 C793 1.372 . S
C794 C795 1.400 . S
C794 C799 1.490 . S
C795 H785 0.930 . S
C795 C794 1.400 . S
C795 C798 1.386 . S
H796 C812 0.930 . S
H797 C813 0.931 . S
C798 H786 0.929 . S
C798 C792 1.390 . S
C798 C795 1.386 . S
C799 C794 1.490 . S
C799 C801 1.395 . S
C799 C802 1.403 . S
H800 C806 0.930 . S
C801 H787 0.930 . S
C801 C799 1.395 . S
C801 C804 1.403 . S
C802 C799 1.403 . S
C802 C803 1.524 . S
C802 C806 1.400 . S
C803 H788 0.960 . S
C803 H789 0.960 . S
C803 H790 0.960 . S
C803 C802 1.524 . S
C804 C801 1.403 . S
C804 C805 1.392 . S
C804 C808 1.495 . S
C805 C804 1.392 . S
C805 C806 1.385 . S
C805 C807 1.478 . S
C806 H800 0.930 . S
C806 C802 1.400 . S
C806 C805 1.385 . S
C807 C805 1.478 . S
C807 C809 1.381 . S
C807 C813 1.383 . S
C808 C804 1.495 . S
C808 H814 0.959 . S
C808 H815 0.961 . S
C808 H816 0.960 . S
C809 C807 1.381 . S
C809 C810 1.394 . S
C809 H817 0.930 . S
C810 C809 1.394 . S
C810 C811 1.383 . S
C810 H818 0.929 . S
C811 C810 1.383 . S
C811 C812 1.377 . S
C812 H796 0.930 . S
C812 C811 1.377 . S
C812 C813 1.379 . S
C813 H797 0.931 . S
C813 C807 1.383 . S
C813 C812 1.379 . S
H814 C808 0.959 . S
H815 C808 0.961 . S
H816 C808 0.960 . S
H817 C809 0.930 . S
H818 C810 0.929 . S
H819 C827 0.929 . S
H820 C829 0.930 . S
H821 C831 0.930 . S
H822 C834 0.929 . S
H823 C837 0.930 . S
H824 C839 0.960 . S
H825 C839 0.960 . S
H826 C839 0.960 . S
C827 H819 0.929 . S
C827 C828 1.377 . S
C827 C829 1.384 . S
C828 C827 1.377 . S
C828 C834 1.390 . S
C829 H820 0.930 . S
C829 C827 1.384 . S
C829 C830 1.372 . S
C830 C829 1.372 . S
C830 C831 1.400 . S
C830 C835 1.490 . S
C831 H821 0.930 . S
C831 C830 1.400 . S
C831 C834 1.386 . S
H832 C848 0.930 . S
H833 C849 0.931 . S
C834 H822 0.929 . S
C834 C828 1.390 . S
C834 C831 1.386 . S
C835 C830 1.490 . S
C835 C837 1.395 . S
C835 C838 1.403 . S
H836 C842 0.930 . S
C837 H823 0.930 . S
C837 C835 1.395 . S
C837 C840 1.403 . S
C838 C835 1.403 . S
C838 C839 1.524 . S
C838 C842 1.400 . S
C839 H824 0.960 . S
C839 H825 0.960 . S
C839 H826 0.960 . S
C839 C838 1.524 . S
C840 C837 1.403 . S
C840 C841 1.392 . S
C840 C844 1.495 . S
C841 C840 1.392 . S
C841 C842 1.385 . S
C841 C843 1.478 . S
C842 H836 0.930 . S
C842 C838 1.400 . S
C842 C841 1.385 . S
C843 C841 1.478 . S
C843 C845 1.381 . S
C843 C849 1.383 . S
C844 C840 1.495 . S
C844 H850 0.959 . S
C844 H851 0.961 . S
C844 H852 0.960 . S
C845 C843 1.381 . S
C845 C846 1.394 . S
C845 H853 0.930 . S
C846 C845 1.394 . S
C846 C847 1.383 . S
C846 H854 0.929 . S
C847 C846 1.383 . S
C847 C848 1.377 . S
C848 H832 0.930 . S
C848 C847 1.377 . S
C848 C849 1.379 . S
C849 H833 0.931 . S
C849 C843 1.383 . S
C849 C848 1.379 . S
H850 C844 0.959 . S
H851 C844 0.961 . S
H852 C844 0.960 . S
H853 C845 0.930 . S
H854 C846 0.929 . S
H855 C863 0.929 . S
H856 C865 0.930 . S
H857 C867 0.930 . S
H858 C870 0.929 . S
H859 C873 0.930 . S
H860 C875 0.960 . S
H861 C875 0.960 . S
H862 C875 0.960 . S
C863 H855 0.929 . S
C863 C864 1.377 . S
C863 C865 1.384 . S
C864 C863 1.377 . S
C864 C870 1.390 . S
C865 H856 0.930 . S
C865 C863 1.384 . S
C865 C866 1.372 . S
C866 C865 1.372 . S
C866 C867 1.400 . S
C866 C871 1.490 . S
C867 H857 0.930 . S
C867 C866 1.400 . S
C867 C870 1.386 . S
H868 C884 0.930 . S
H869 C885 0.931 . S
C870 H858 0.929 . S
C870 C864 1.390 . S
C870 C867 1.386 . S
C871 C866 1.490 . S
C871 C873 1.395 . S
C871 C874 1.403 . S
H872 C878 0.930 . S
C873 H859 0.930 . S
C873 C871 1.395 . S
C873 C876 1.403 . S
C874 C871 1.403 . S
C874 C875 1.524 . S
C874 C878 1.400 . S
C875 H860 0.960 . S
C875 H861 0.960 . S
C875 H862 0.960 . S
C875 C874 1.524 . S
C876 C873 1.403 . S
C876 C877 1.392 . S
C876 C880 1.495 . S
C877 C876 1.392 . S
C877 C878 1.385 . S
C877 C879 1.478 . S
C878 H872 0.930 . S
C878 C874 1.400 . S
C878 C877 1.385 . S
C879 C877 1.478 . S
C879 C881 1.381 . S
C879 C885 1.383 . S
C880 C876 1.495 . S
C880 H886 0.959 . S
C880 H887 0.961 . S
C880 H888 0.960 . S
C881 C879 1.381 . S
C881 C882 1.394 . S
C881 H889 0.930 . S
C882 C881 1.394 . S
C882 C883 1.383 . S
C882 H890 0.929 . S
C883 C882 1.383 . S
C883 C884 1.377 . S
C884 H868 0.930 . S
C884 C883 1.377 . S
C884 C885 1.379 . S
C885 H869 0.931 . S
C885 C879 1.383 . S
C885 C884 1.379 . S
H886 C880 0.959 . S
H887 C880 0.961 . S
H888 C880 0.960 . S
H889 C881 0.930 . S
H890 C882 0.929 . S
H891 C899 0.929 . S
H892 C901 0.930 . S
H893 C903 0.930 . S
H894 C906 0.929 . S
H895 C909 0.930 . S
H896 C911 0.960 . S
H897 C911 0.960 . S
H898 C911 0.960 . S
C899 H891 0.929 . S
C899 C900 1.377 . S
C899 C901 1.384 . S
C900 C899 1.377 . S
C900 C906 1.390 . S
C901 H892 0.930 . S
C901 C899 1.384 . S
C901 C902 1.372 . S
C902 C901 1.372 . S
C902 C903 1.400 . S
C902 C907 1.490 . S
C903 H893 0.930 . S
C903 C902 1.400 . S
C903 C906 1.386 . S
H904 C920 0.930 . S
H905 C921 0.931 . S
C906 H894 0.929 . S
C906 C900 1.390 . S
C906 C903 1.386 . S
C907 C902 1.490 . S
C907 C909 1.395 . S
C907 C910 1.403 . S
H908 C914 0.930 . S
C909 H895 0.930 . S
C909 C907 1.395 . S
C909 C912 1.403 . S
C910 C907 1.403 . S
C910 C911 1.524 . S
C910 C914 1.400 . S
C911 H896 0.960 . S
C911 H897 0.960 . S
C911 H898 0.960 . S
C911 C910 1.524 . S
C912 C909 1.403 . S
C912 C913 1.392 . S
C912 C916 1.495 . S
C913 C912 1.392 . S
C913 C914 1.385 . S
C913 C915 1.478 . S
C914 H908 0.930 . S
C914 C910 1.400 . S
C914 C913 1.385 . S
C915 C913 1.478 . S
C915 C917 1.381 . S
C915 C921 1.383 . S
C916 C912 1.495 . S
C916 H922 0.959 . S
C916 H923 0.961 . S
C916 H924 0.960 . S
C917 C915 1.381 . S
C917 C918 1.394 . S
C917 H925 0.930 . S
C918 C917 1.394 . S
C918 C919 1.383 . S
C918 H926 0.929 . S
C919 C918 1.383 . S
C919 C920 1.377 . S
C920 H904 0.930 . S
C920 C919 1.377 . S
C920 C921 1.379 . S
C921 H905 0.931 . S
C921 C915 1.383 . S
C921 C920 1.379 . S
H922 C916 0.959 . S
H923 C916 0.961 . S
H924 C916 0.960 . S
H925 C917 0.930 . S
H926 C918 0.929 . S
H927 C935 0.929 . S
H928 C937 0.930 . S
H929 C939 0.930 . S
H930 C942 0.929 . S
H931 C945 0.930 . S
H932 C947 0.960 . S
H933 C947 0.960 . S
H934 C947 0.960 . S
C935 H927 0.929 . S
C935 C936 1.377 . S
C935 C937 1.384 . S
C936 C935 1.377 . S
C936 C942 1.390 . S
C937 H928 0.930 . S
C937 C935 1.384 . S
C937 C938 1.372 . S
C938 C937 1.372 . S
C938 C939 1.400 . S
C938 C943 1.490 . S
C939 H929 0.930 . S
C939 C938 1.400 . S
C939 C942 1.386 . S
H940 C956 0.930 . S
H941 C957 0.931 . S
C942 H930 0.929 . S
C942 C936 1.390 . S
C942 C939 1.386 . S
C943 C938 1.490 . S
C943 C945 1.395 . S
C943 C946 1.403 . S
H944 C950 0.930 . S
C945 H931 0.930 . S
C945 C943 1.395 . S
C945 C948 1.403 . S
C946 C943 1.403 . S
C946 C947 1.524 . S
C946 C950 1.400 . S
C947 H932 0.960 . S
C947 H933 0.960 . S
C947 H934 0.960 . S
C947 C946 1.524 . S
C948 C945 1.403 . S
C948 C949 1.392 . S
C948 C952 1.495 . S
C949 C948 1.392 . S
C949 C950 1.385 . S
C949 C951 1.478 . S
C950 H944 0.930 . S
C950 C946 1.400 . S
C950 C949 1.385 . S
C951 C949 1.478 . S
C951 C953 1.381 . S
C951 C957 1.383 . S
C952 C948 1.495 . S
C952 H958 0.959 . S
C952 H959 0.961 . S
C952 H960 0.960 . S
C953 C951 1.381 . S
C953 C954 1.394 . S
C953 H961 0.930 . S
C954 C953 1.394 . S
C954 C955 1.383 . S
C954 H962 0.929 . S
C955 C954 1.383 . S
C955 C956 1.377 . S
C956 H940 0.930 . S
C956 C955 1.377 . S
C956 C957 1.379 . S
C957 H941 0.931 . S
C957 C951 1.383 . S
C957 C956 1.379 . S
H958 C952 0.959 . S
H959 C952 0.961 . S
H960 C952 0.960 . S
H961 C953 0.930 . S
H962 C954 0.929 . S
H963 C971 0.929 . S
H964 C973 0.930 . S
H965 C975 0.930 . S
H966 C978 0.929 . S
H967 C981 0.930 . S
H968 C983 0.960 . S
H969 C983 0.960 . S
H970 C983 0.960 . S
C971 H963 0.929 . S
C971 C972 1.377 . S
C971 C973 1.384 . S
C972 C971 1.377 . S
C972 C978 1.390 . S
C973 H964 0.930 . S
C973 C971 1.384 . S
C973 C974 1.372 . S
C974 C973 1.372 . S
C974 C975 1.400 . S
C974 C979 1.490 . S
C975 H965 0.930 . S
C975 C974 1.400 . S
C975 C978 1.386 . S
H976 C992 0.930 . S
H977 C993 0.931 . S
C978 H966 0.929 . S
C978 C972 1.390 . S
C978 C975 1.386 . S
C979 C974 1.490 . S
C979 C981 1.395 . S
C979 C982 1.403 . S
H980 C986 0.930 . S
C981 H967 0.930 . S
C981 C979 1.395 . S
C981 C984 1.403 . S
C982 C979 1.403 . S
C982 C983 1.524 . S
C982 C986 1.400 . S
C983 H968 0.960 . S
C983 H969 0.960 . S
C983 H970 0.960 . S
C983 C982 1.524 . S
C984 C981 1.403 . S
C984 C985 1.392 . S
C984 C988 1.495 . S
C985 C984 1.392 . S
C985 C986 1.385 . S
C985 C987 1.478 . S
C986 H980 0.930 . S
C986 C982 1.400 . S
C986 C985 1.385 . S
C987 C985 1.478 . S
C987 C989 1.381 . S
C987 C993 1.383 . S
C988 C984 1.495 . S
C988 H994 0.959 . S
C988 H995 0.961 . S
C988 H996 0.960 . S
C989 C987 1.381 . S
C989 C990 1.394 . S
C989 H997 0.930 . S
C990 C989 1.394 . S
C990 C991 1.383 . S
C990 H998 0.929 . S
C991 C990 1.383 . S
C991 C992 1.377 . S
C992 H976 0.930 . S
C992 C991 1.377 . S
C992 C993 1.379 . S
C993 H977 0.931 . S
C993 C987 1.383 . S
C993 C992 1.379 . S
H994 C988 0.959 . S
H995 C988 0.961 . S
H996 C988 0.960 . S
H997 C989 0.930 . S
H998 C990 0.929 . S
H999 C1007 0.929 . S
H1000 C1009 0.930 . S
H1001 C1011 0.930 . S
H1002 C1014 0.929 . S
H1003 C1017 0.930 . S
H1004 C1019 0.960 . S
H1005 C1019 0.960 . S
H1006 C1019 0.960 . S
C1007 H999 0.929 . S
C1007 C1008 1.377 . S
C1007 C1009 1.384 . S
C1008 C1007 1.377 . S
C1008 C1014 1.390 . S
C1009 H1000 0.930 . S
C1009 C1007 1.384 . S
C1009 C1010 1.372 . S
C1010 C1009 1.372 . S
C1010 C1011 1.400 . S
C1010 C1015 1.490 . S
C1011 H1001 0.930 . S
C1011 C1010 1.400 . S
C1011 C1014 1.386 . S
H1012 C1028 0.930 . S
H1013 C1029 0.931 . S
C1014 H1002 0.929 . S
C1014 C1008 1.390 . S
C1014 C1011 1.386 . S
C1015 C1010 1.490 . S
C1015 C1017 1.395 . S
C1015 C1018 1.403 . S
H1016 C1022 0.930 . S
C1017 H1003 0.930 . S
C1017 C1015 1.395 . S
C1017 C1020 1.403 . S
C1018 C1015 1.403 . S
C1018 C1019 1.524 . S
C1018 C1022 1.400 . S
C1019 H1004 0.960 . S
C1019 H1005 0.960 . S
C1019 H1006 0.960 . S
C1019 C1018 1.524 . S
C1020 C1017 1.403 . S
C1020 C1021 1.392 . S
C1020 C1024 1.495 . S
C1021 C1020 1.392 . S
C1021 C1022 1.385 . S
C1021 C1023 1.478 . S
C1022 H1016 0.930 . S
C1022 C1018 1.400 . S
C1022 C1021 1.385 . S
C1023 C1021 1.478 . S
C1023 C1025 1.381 . S
C1023 C1029 1.383 . S
C1024 C1020 1.495 . S
C1024 H1030 0.959 . S
C1024 H1031 0.961 . S
C1024 H1032 0.960 . S
C1025 C1023 1.381 . S
C1025 C1026 1.394 . S
C1025 H1033 0.930 . S
C1026 C1025 1.394 . S
C1026 C1027 1.383 . S
C1026 H1034 0.929 . S
C1027 C1026 1.383 . S
C1027 C1028 1.377 . S
C1028 H1012 0.930 . S
C1028 C1027 1.377 . S
C1028 C1029 1.379 . S
C1029 H1013 0.931 . S
C1029 C1023 1.383 . S
C1029 C1028 1.379 . S
H1030 C1024 0.959 . S
H1031 C1024 0.961 . S
H1032 C1024 0.960 . S
H1033 C1025 0.930 . S
H1034 C1026 0.929 . S
C180 C5 1.725 . S
C199 C89 1.617 . S
C216 C16 1.509 . S
C235 C136 1.512 . S
C271 C140 1.794 . S
C252 C36 1.861 . S
C307 C105 1.421 . S
C288 C42 1.458 . S
C324 C55 1.630 . S
C343 C120 1.578 . S
C379 C142 0.795 . S
C360 C66 0.836 . S
C415 C111 1.206 . S
C396 C31 1.229 . S
C432 C40 1.319 . S
C451 C151 1.315 . S
C487 C80 1.215 . S
C468 C53 1.236 1_556 S
C504 C68 1.361 . S
C523 C109 1.319 . S
C540 C10 1.967 . S
C559 C167 1.888 . S
C595 C78 1.463 . S
C576 C14 1.492 . S
C631 C96 1.693 . S
C612 C49 1.792 . S
C667 C110 1.547 . S
C648 C62 1.595 1_556 S
C703 C164 1.745 . S
C684 C70 1.757 . S
C739 C79 1.534 . S
C720 C1 1.561 . S
C775 C127 1.630 . S
C756 C23 1.721 . S
C792 C29 0.756 . S
C811 C150 0.803 . S
C847 C119 1.297 . S
C828 C75 1.296 . S
C883 C158 1.222 . S
C864 C3 1.256 . S
C919 C88 1.152 . S
C900 C18 1.151 . S
C955 C133 1.386 . S
C936 C27 1.458 . S
C972 C44 1.862 . S
C991 C141 1.846 . S
C1008 C57 1.405 . S
C1027 C102 1.378 . S
