# Generated by pormake.
# Topology anh, (6,3)-cn, num edge types: 1
# Building blocks:
#     Node 0, Type 0, BuildingBlock: BETDAH_clean_sbu_0, # of connection points: 6
#     Node 1, Type 0, BuildingBlock: BETDAH_clean_sbu_0, # of connection points: 6
#     Node 2, Type 0, BuildingBlock: BETDAH_clean_sbu_0, # of connection points: 6
#     Node 3, Type 1, BuildingBlock: WUSLED_clean_sbu_0, # of connection points: 3
#     Node 4, Type 1, BuildingBlock: WUSLED_clean_sbu_0, # of connection points: 3
#     Node 5, Type 1, BuildingBlock: WUSLED_clean_sbu_0, # of connection points: 3
#     Node 6, Type 1, BuildingBlock: WUSLED_clean_sbu_0, # of connection points: 3
#     Node 7, Type 1, BuildingBlock: WUSLED_clean_sbu_0, # of connection points: 3
#     Node 8, Type 1, BuildingBlock: WUSLED_clean_sbu_0, # of connection points: 3
#     Edge 9, Type (0, 1), BuildingBlock: UVAHIK_clean_linker_0, # of connection points: 2
#     Edge 10, Type (0, 1), BuildingBlock: UVAHIK_clean_linker_0, # of connection points: 2
#     Edge 11, Type (0, 1), BuildingBlock: UVAHIK_clean_linker_0, # of connection points: 2
#     Edge 12, Type (0, 1), BuildingBlock: UVAHIK_clean_linker_0, # of connection points: 2
#     Edge 13, Type (0, 1), BuildingBlock: UVAHIK_clean_linker_0, # of connection points: 2
#     Edge 14, Type (0, 1), BuildingBlock: UVAHIK_clean_linker_0, # of connection points: 2
#     Edge 15, Type (0, 1), BuildingBlock: UVAHIK_clean_linker_0, # of connection points: 2
#     Edge 16, Type (0, 1), BuildingBlock: UVAHIK_clean_linker_0, # of connection points: 2
#     Edge 17, Type (0, 1), BuildingBlock: UVAHIK_clean_linker_0, # of connection points: 2
#     Edge 18, Type (0, 1), BuildingBlock: UVAHIK_clean_linker_0, # of connection points: 2
#     Edge 19, Type (0, 1), BuildingBlock: UVAHIK_clean_linker_0, # of connection points: 2
#     Edge 20, Type (0, 1), BuildingBlock: UVAHIK_clean_linker_0, # of connection points: 2
#     Edge 21, Type (0, 1), BuildingBlock: UVAHIK_clean_linker_0, # of connection points: 2
#     Edge 22, Type (0, 1), BuildingBlock: UVAHIK_clean_linker_0, # of connection points: 2
#     Edge 23, Type (0, 1), BuildingBlock: UVAHIK_clean_linker_0, # of connection points: 2
#     Edge 24, Type (0, 1), BuildingBlock: UVAHIK_clean_linker_0, # of connection points: 2
#     Edge 25, Type (0, 1), BuildingBlock: UVAHIK_clean_linker_0, # of connection points: 2
#     Edge 26, Type (0, 1), BuildingBlock: UVAHIK_clean_linker_0, # of connection points: 2
# Relax obj value: 0.154
# Max RMSD: 0.195
# Mean RMSD: 0.144
data_MOF--net-anh--node1-BETDAH_clean_sbu_0--node2-WUSLED_clean_sbu_0--edge1-UVAHIK_clean_linker_0
_symmetry_space_group_name_H-M    P1
_symmetry_Int_Tables_number       1
_symmetry_cell_setting            triclinic
loop_
_symmetry_equiv_pos_as_xyz
'x, y, z'
_cell_length_a     48.721197
_cell_length_b     54.956068
_cell_length_c     84.283329
_cell_angle_alpha  92.55892
_cell_angle_beta   89.727913
_cell_angle_gamma 126.62121
loop_
_atom_site_label
_atom_site_type_symbol
_atom_site_fract_x
_atom_site_fract_y
_atom_site_fract_z
_atom_type_partial_charge
Ho0 Ho 0.07253 0.49663 0.17235 0.0
Ho1 Ho 1.03749 0.52419 0.17648 0.0
C2 C 0.11771 0.57095 0.1776 0.0
C3 C 0.11437 0.48483 0.16392 0.0
C4 C 0.15148 0.50225 0.16707 0.0
C5 C 0.17498 0.53007 0.16006 0.0
C6 C 0.20988 0.54698 0.16382 0.0
C7 C 0.22176 0.53652 0.17477 0.0
C8 C 0.19826 0.50897 0.18192 0.0
C9 C 0.1635 0.49192 0.17803 0.0
C10 C 0.05668 0.49875 0.20293 0.0
C11 C 0.99307 0.45067 0.17381 0.0
C12 C 0.99635 0.53707 0.18457 0.0
C13 C 0.96104 0.51855 0.19014 0.0
C14 C 0.95256 0.50408 0.20463 0.0
C15 C 0.91859 0.48593 0.20937 0.0
C16 C 0.89273 0.4816 0.19954 0.0
C17 C 0.90124 0.49579 0.18503 0.0
C18 C 0.93509 0.51425 0.18043 0.0
C19 C 0.05496 0.52264 0.14608 0.0
O20 O 0.11714 0.54713 0.17337 0.0
O21 O 0.08928 0.56771 0.18087 0.0
O22 O 0.09533 0.47364 0.17637 0.0
O23 O 0.1045 0.49667 0.15448 0.0
O24 O 0.05486 0.47625 0.19608 0.0
O25 O 0.06824 0.51978 0.19342 0.0
O26 O 0.99585 0.47441 0.18033 0.0
O27 O 1.01961 0.45432 0.16697 0.0
O28 O 0.99997 0.53111 0.16986 0.0
O29 O 1.01997 0.54131 0.19419 0.0
O30 O 0.05833 0.5457 0.15317 0.0
O31 O 0.04197 0.50108 0.15537 0.0
H32 H 0.16651 0.53885 0.15168 0.0
H33 H 0.22762 0.56805 0.15808 0.0
H34 H 0.20691 0.50006 0.19011 0.0
H35 H 0.14596 0.47062 0.18362 0.0
H36 H 0.97205 0.50677 0.21232 0.0
H37 H 0.91249 0.47534 0.22066 0.0
H38 H 0.88174 0.49329 0.17742 0.0
H39 H 0.94101 0.52516 0.16923 0.0
Ho40 Ho 0.57171 1.00455 0.50196 0.0
Ho41 Ho 0.52867 0.02615 0.49792 0.0
C42 C 0.48817 0.95513 0.49754 0.0
C43 C 0.59679 0.97674 0.51077 0.0
C44 C 0.58563 0.94504 0.51124 0.0
C45 C 0.56982 0.92816 0.52472 0.0
C46 C 0.56157 0.89914 0.52562 0.0
C47 C 0.56904 0.88628 0.51312 0.0
C48 C 0.58418 0.90288 0.49949 0.0
C49 C 0.59253 0.93196 0.4986 0.0
C50 C 0.56424 0.01402 0.4717 0.0
C51 C 0.61232 0.07574 0.50109 0.0
C52 C 0.50427 0.05472 0.48966 0.0
C53 C 0.51506 0.08617 0.49201 0.0
C54 C 0.51678 0.10183 0.47889 0.0
C55 C 0.52635 0.13141 0.48093 0.0
C56 C 0.53434 0.14593 0.49617 0.0
C57 C 0.53298 0.13025 0.50927 0.0
C58 C 0.52359 0.10078 0.50722 0.0
C59 C 0.53715 0.01711 0.5282 0.0
O60 O 0.51724 0.96111 0.50298 0.0
O61 O 0.48704 0.9769 0.49243 0.0
O62 O 0.60139 0.98778 0.49678 0.0
O63 O 0.58227 0.98492 0.5205 0.0
O64 O 0.59233 0.02032 0.47776 0.0
O65 O 0.54085 1.00167 0.48173 0.0
O66 O 0.58271 0.06932 0.49628 0.0
O67 O 0.6142 0.05434 0.50619 0.0
O68 O 0.49477 0.03868 0.50225 0.0
O69 O 0.52321 0.05091 0.48044 0.0
O70 O 0.50883 0.01062 0.52241 0.0
O71 O 0.56009 0.02961 0.51803 0.0
H72 H 0.56429 0.93755 0.53471 0.0
H73 H 0.54955 0.88683 0.53621 0.0
H74 H 0.59065 0.89382 0.48973 0.0
H75 H 0.60505 0.94443 0.48811 0.0
H76 H 0.51057 0.09111 0.46704 0.0
H77 H 0.52758 0.14293 0.47056 0.0
H78 H 0.53843 0.14047 0.52121 0.0
H79 H 0.5227 0.08938 0.51758 0.0
Ho80 Ho 0.60551 0.56489 0.8441 0.0
Ho81 Ho 0.56104 0.49744 0.8497 0.0
C82 C 0.52235 0.52883 0.85082 0.0
C83 C 0.62933 0.61729 0.83331 0.0
C84 C 0.61985 0.63852 0.83408 0.0
C85 C 0.59948 0.63768 0.82198 0.0
C86 C 0.59167 0.65844 0.82242 0.0
C87 C 0.60418 0.68072 0.83493 0.0
C88 C 0.62428 0.68134 0.84711 0.0
C89 C 0.63211 0.66062 0.84666 0.0
C90 C 0.60057 0.55106 0.87451 0.0
C91 C 0.64515 0.53469 0.84726 0.0
C92 C 0.53609 0.44411 0.85949 0.0
C93 C 0.54341 0.42174 0.85684 0.0
C94 C 0.54126 0.40496 0.86948 0.0
C95 C 0.54733 0.38317 0.8671 0.0
C96 C 0.55564 0.37766 0.85199 0.0
C97 C 0.55825 0.39492 0.83941 0.0
C98 C 0.55235 0.41679 0.84182 0.0
C99 C 0.56592 0.51117 0.81894 0.0
O100 O 0.55113 0.55274 0.845 0.0
O101 O 0.52127 0.50546 0.85547 0.0
O102 O 0.6403 0.61385 0.84654 0.0
O103 O 0.60909 0.59162 0.82493 0.0
O104 O 0.62796 0.57483 0.86889 0.0
O105 O 0.5768 0.5377 0.86419 0.0
O106 O 0.61507 0.51005 0.85134 0.0
O107 O 0.6476 0.55845 0.84208 0.0
O108 O 0.52343 0.44874 0.84733 0.0
O109 O 0.55947 0.4693 0.86748 0.0
O110 O 0.53871 0.48811 0.82505 0.0
O111 O 0.59016 0.52467 0.82915 0.0
H112 H 0.58991 0.62121 0.81202 0.0
H113 H 0.57657 0.65753 0.8127 0.0
H114 H 0.63404 0.6979 0.85703 0.0
H115 H 0.64804 0.66211 0.85615 0.0
H116 H 0.53471 0.40862 0.8812 0.0
H117 H 0.54564 0.37072 0.87713 0.0
H118 H 0.56414 0.39111 0.82757 0.0
H119 H 0.55443 0.42959 0.83188 0.0
C120 C 0.62122 0.08694 0.19817 0.0
C121 C 0.63564 0.10882 0.21091 0.0
C122 C 0.68076 0.14694 0.19398 0.0
C123 C 0.665 0.13848 0.20883 0.0
C124 C 0.66596 0.12488 0.18125 0.0
C125 C 0.63658 0.09529 0.18333 0.0
U126 U 0.557 0.02505 0.22534 0.0
O127 O 0.5014 0.98908 0.22297 0.0
O128 O 0.53645 0.97686 0.22631 0.0
C129 C 0.50455 0.96708 0.22436 0.0
C130 C 0.59087 0.0553 0.20034 0.0
C131 C 0.48034 0.93763 0.21531 0.0
C132 C 0.43102 0.90439 0.19727 0.0
C133 C 0.45755 0.93366 0.20346 0.0
C134 C 0.45013 0.88273 0.21434 0.0
C135 C 0.42649 0.8784 0.20286 0.0
C136 C 0.47659 0.91186 0.22044 0.0
C137 C 0.57019 0.0487 0.27008 0.0
C138 C 0.54118 0.01428 0.2915 0.0
C139 C 0.58277 0.06827 0.29752 0.0
C140 C 0.58791 0.07315 0.28132 0.0
C141 C 0.55977 0.03876 0.30285 0.0
C142 C 0.54645 0.01921 0.27521 0.0
C143 C 0.57832 0.05461 0.25322 0.0
O144 O 0.59686 0.03837 0.20783 0.0
O145 O 0.56312 0.05196 0.20514 0.0
O146 O 0.55556 0.05337 0.2442 0.0
O147 O 0.59109 0.04154 0.24642 0.0
H148 H 0.62437 0.10286 0.22251 0.0
H149 H 0.67574 0.1546 0.21897 0.0
H150 H 0.67695 0.13054 0.16959 0.0
H151 H 0.62591 0.07883 0.17333 0.0
H152 H 0.41371 0.90212 0.18829 0.0
H153 H 0.45951 0.95301 0.19933 0.0
H154 H 0.44736 0.86349 0.21922 0.0
H155 H 0.49328 0.91411 0.22979 0.0
H156 H 0.52339 0.99128 0.29522 0.0
H157 H 0.59702 0.08768 0.30591 0.0
H158 H 0.60624 0.09606 0.27757 0.0
H159 H 0.53255 1.00003 0.26666 0.0
C160 C 0.54331 0.56478 0.54259 0.0
C161 C 0.53698 0.57929 0.55456 0.0
C162 C 0.54259 0.61427 0.53566 0.0
C163 C 0.53647 0.60366 0.55112 0.0
C164 C 0.54862 0.59942 0.52366 0.0
C165 C 0.54898 0.57489 0.52711 0.0
U166 U 0.55057 0.52086 0.57337 0.0
O167 O 0.58039 0.50281 0.57419 0.0
O168 O 0.52435 0.47182 0.57543 0.0
C169 C 0.55306 0.47458 0.57495 0.0
C170 C 0.54495 0.53976 0.54636 0.0
C171 C 0.5528 0.45162 0.56516 0.0
C172 C 0.55882 0.43176 0.54004 0.0
C173 C 0.55674 0.45311 0.54862 0.0
C174 C 0.55249 0.40731 0.56443 0.0
C175 C 0.55738 0.40901 0.54796 0.0
C176 C 0.55019 0.42836 0.57291 0.0
C177 C 0.55831 0.54659 0.61709 0.0
C178 C 0.54952 0.51611 0.63932 0.0
C179 C 0.57763 0.57006 0.64374 0.0
C180 C 0.57415 0.57235 0.62752 0.0
C181 C 0.56518 0.54189 0.64986 0.0
C182 C 0.54626 0.51846 0.62307 0.0
C183 C 0.55471 0.54956 0.60007 0.0
O184 O 0.5744 0.54827 0.55247 0.0
O185 O 0.51852 0.51762 0.55386 0.0
O186 O 0.52551 0.52756 0.59303 0.0
O187 O 0.5814 0.55808 0.59151 0.0
H188 H 0.5326 0.57183 0.5666 0.0
H189 H 0.53113 0.61411 0.56062 0.0
H190 H 0.55381 0.60715 0.51167 0.0
H191 H 0.55408 0.56405 0.51773 0.0
H192 H 0.56255 0.43356 0.52735 0.0
H193 H 0.55882 0.471 0.54245 0.0
H194 H 0.55065 0.38971 0.5708 0.0
H195 H 0.547 0.42678 0.58565 0.0
H196 H 0.54005 0.49416 0.64362 0.0
H197 H 0.5895 0.59028 0.65155 0.0
H198 H 0.58368 0.59426 0.62312 0.0
H199 H 0.53425 0.49833 0.61519 0.0
C200 C 1.00333 0.52985 0.87585 0.0
C201 C 0.98697 0.53136 0.88931 0.0
C202 C 0.94548 0.53189 0.87254 0.0
C203 C 0.95849 0.53226 0.88768 0.0
C204 C 0.96204 0.5301 0.85921 0.0
C205 C 0.9902 0.52915 0.86085 0.0
U206 U 0.08088 0.52838 0.89224 0.0
O207 O 0.10088 0.50581 0.87961 0.0
O208 O 0.13311 0.55528 0.88232 0.0
C209 C 0.13076 0.5313 0.87685 0.0
C210 C 1.03441 0.52981 0.87653 0.0
C211 C 0.16245 0.53213 0.87691 0.0
C212 C 0.2152 0.54725 0.8635 0.0
C213 C 0.18649 0.54752 0.86496 0.0
C214 C 0.19736 0.51627 0.88611 0.0
C215 C 0.22151 0.53164 0.874 0.0
C216 C 0.16834 0.51641 0.8875 0.0
C217 C 0.07654 0.52259 0.94069 0.0
C218 C 0.08874 0.50791 0.96506 0.0
C219 C 0.06008 0.53177 0.96636 0.0
C220 C 0.06178 0.53383 0.94979 0.0
C221 C 0.0737 0.51893 0.97426 0.0
C222 C 0.08983 0.50946 0.94845 0.0
C223 C 0.07815 0.52464 0.92317 0.0
O224 O 0.06358 0.5541 0.88235 0.0
O225 O 1.03063 0.50464 0.87935 0.0
O226 O 0.06307 0.50048 0.91337 0.0
O227 O 0.09461 0.55078 0.91638 0.0
H228 H 0.99628 0.53206 0.90108 0.0
H229 H 0.94712 0.53383 0.89836 0.0
H230 H 0.95305 0.52906 0.84731 0.0
H231 H 1.00197 0.52796 0.8502 0.0
H232 H 0.23202 0.55884 0.85375 0.0
H233 H 0.18268 0.55944 0.85639 0.0
H234 H 0.20087 0.50416 0.89465 0.0
H235 H 0.1504 0.50405 0.8968 0.0
H236 H 0.09927 0.4977 0.9707 0.0
H237 H 0.04857 0.54071 0.97304 0.0
H238 H 0.05132 0.54402 0.94406 0.0
H239 H 0.10139 0.50066 0.94168 0.0
C240 C 0.972 0.44648 0.47874 0.0
C241 C 0.94846 0.42859 0.4662 0.0
C242 C 0.91337 0.38636 0.48358 0.0
C243 C 0.91945 0.39893 0.4686 0.0
C244 C 0.93709 0.4045 0.49611 0.0
C245 C 0.96601 0.43419 0.49371 0.0
U246 U 1.03299 0.50946 0.4511 0.0
O247 O 0.06096 0.55919 0.45333 0.0
O248 O 0.08938 0.53986 0.45045 0.0
C249 C 0.09111 0.56463 0.45223 0.0
C250 C 1.00317 0.47758 0.47627 0.0
C251 C 0.12079 0.59113 0.46146 0.0
C252 C 0.1463 0.63531 0.48007 0.0
C253 C 0.11732 0.60754 0.47357 0.0
C254 C 0.18254 0.63031 0.46275 0.0
C255 C 0.17933 0.64735 0.47456 0.0
C256 C 0.15376 0.6027 0.45633 0.0
C257 C 1.01005 0.49006 0.40612 0.0
C258 C 0.04475 0.52218 0.38468 0.0
C259 C 0.99318 0.47154 0.37859 0.0
C260 C 0.98721 0.46719 0.39481 0.0
C261 C 1.02224 0.49891 0.37328 0.0
C262 C 1.03877 0.51774 0.40099 0.0
C263 C 1.00387 0.48369 0.42309 0.0
O264 O 1.02801 0.47907 0.469 0.0
O265 O 0.99808 0.49684 0.47104 0.0
O266 O 0.99696 0.49982 0.43174 0.0
O267 O 1.02492 0.48005 0.43031 0.0
H268 H 0.95265 0.43749 0.45451 0.0
H269 H 0.90211 0.38563 0.4586 0.0
H270 H 0.93315 0.39586 0.50785 0.0
H271 H 0.9838 0.44756 0.50357 0.0
H272 H 0.14277 0.64755 0.48926 0.0
H273 H 0.09224 0.5994 0.4777 0.0
H274 H 0.20723 0.6389 0.4579 0.0
H275 H 0.1572 0.59094 0.44679 0.0
H276 H 0.06746 0.54346 0.38102 0.0
H277 H 0.97499 0.45334 0.37019 0.0
H278 H 0.96487 0.4457 0.39854 0.0
H279 H 0.05677 0.53564 0.40958 0.0
C280 C 0.54913 0.95803 0.80485 0.0
C281 C 0.54519 0.93772 0.79275 0.0
C282 C 0.55298 0.91031 0.81202 0.0
C283 C 0.54702 0.91408 0.79629 0.0
C284 C 0.55626 0.93043 0.82416 0.0
C285 C 0.5544 0.95409 0.82059 0.0
U286 U 0.54819 0.00586 0.77412 0.0
O287 O 0.52179 0.02727 0.77319 0.0
O288 O 0.57791 0.05535 0.77274 0.0
C289 C 0.55057 0.0548 0.77284 0.0
C290 C 0.54907 0.98391 0.80103 0.0
C291 C 0.55304 0.07899 0.78256 0.0
C292 C 0.55757 0.10455 0.80786 0.0
C293 C 0.55387 0.08018 0.79925 0.0
C294 C 0.55942 0.12632 0.78316 0.0
C295 C 0.56086 0.12811 0.79985 0.0
C296 C 0.55554 0.10206 0.77464 0.0
C297 C 0.54643 0.9832 0.73016 0.0
C298 C 0.54101 0.00743 0.70817 0.0
C299 C 0.55319 0.97108 0.70302 0.0
C300 C 0.55281 0.96716 0.71932 0.0
C301 C 0.54719 0.99119 0.69721 0.0
C302 C 0.54062 1.00346 0.72452 0.0
C303 C 0.54632 0.97863 0.74726 0.0
O304 O 0.57688 0.00608 0.79429 0.0
O305 O 0.52083 0.97683 0.79415 0.0
O306 O 0.51876 0.97097 0.75481 0.0
O307 O 0.5748 0.99918 0.75524 0.0
H308 H 0.54107 0.94037 0.78052 0.0
H309 H 0.54382 0.89877 0.78668 0.0
H310 H 0.56123 0.92845 0.83636 0.0
H311 H 0.55763 0.96962 0.83008 0.0
H312 H 0.5586 0.10533 0.82072 0.0
H313 H 0.55201 0.06252 0.80557 0.0
H314 H 0.56119 0.14373 0.77663 0.0
H315 H 0.55478 0.10146 0.76177 0.0
H316 H 0.536 0.02289 0.70411 0.0
H317 H 0.55861 0.9586 0.69498 0.0
H318 H 0.5576 0.95159 0.72347 0.0
H319 H 0.53573 0.01612 0.73274 0.0
C320 C 0.60505 0.46519 0.11807 0.0
C321 C 0.63602 0.46952 0.11543 0.0
C322 C 0.64342 0.46851 0.14392 0.0
C323 C 0.65519 0.47119 0.12832 0.0
C324 C 0.61276 0.46492 0.14642 0.0
C325 C 0.59375 0.46321 0.13362 0.0
U326 U 0.52593 0.45522 0.10798 0.0
O327 O 0.52711 0.47633 0.13082 0.0
O328 O 0.49441 0.42661 0.12749 0.0
C329 C 0.50315 0.45027 0.13672 0.0
C330 C 0.58391 0.46292 0.10502 0.0
C331 C 0.47516 0.44977 0.14336 0.0
C332 C 0.44965 0.45529 0.16662 0.0
C333 C 0.47077 0.44863 0.15979 0.0
C334 C 0.43566 0.46232 0.14044 0.0
C335 C 0.43308 0.46351 0.15705 0.0
C336 C 0.45649 0.45541 0.13364 0.0
C337 C 0.50267 0.45985 0.06678 0.0
C338 C 0.49277 0.4672 0.03989 0.0
C339 C 0.54216 0.46849 0.04628 0.0
C340 C 0.53221 0.46303 0.062 0.0
C341 C 0.52271 0.47089 0.0351 0.0
C342 C 0.48285 0.46176 0.05568 0.0
C343 C 0.49364 0.45569 0.08347 0.0
O344 O 0.55414 0.43615 0.10299 0.0
O345 O 0.58158 0.48555 0.1052 0.0
O346 O 0.48647 0.43051 0.08897 0.0
O347 O 0.51451 0.47985 0.09288 0.0
H348 H 0.64511 0.47126 0.10348 0.0
H349 H 0.67869 0.47377 0.12608 0.0
H350 H 0.60336 0.46328 0.1583 0.0
H351 H 0.56998 0.46012 0.13585 0.0
H352 H 0.44762 0.45545 0.17942 0.0
H353 H 0.48514 0.44431 0.1674 0.0
H354 H 0.42361 0.46885 0.13272 0.0
H355 H 0.45991 0.45657 0.12091 0.0
H356 H 0.47751 0.46922 0.03152 0.0
H357 H 0.56507 0.47084 0.04286 0.0
H358 H 0.54776 0.46159 0.0705 0.0
H359 H 0.46006 0.45948 0.05927 0.0
C360 C 0.27224 0.55563 0.19264 0.0
C361 C 0.25867 0.55175 0.17729 0.0
C362 C 0.30379 0.56086 0.19467 0.0
C363 C 0.37373 0.56643 0.17202 0.0
H364 H 0.35041 0.50069 0.19838 0.0
C365 C 0.38779 0.47176 0.15703 0.0
C366 C 0.41692 0.477 0.16427 0.0
C367 C 0.37604 0.48838 0.16222 0.0
C368 C 0.35767 0.51955 0.19127 0.0
H369 H 0.26893 0.55407 0.15217 0.0
H370 H 0.32315 0.56217 0.15558 0.0
H371 H 0.32003 0.52307 0.20139 0.0
H372 H 0.45568 0.50296 0.18309 0.0
H373 H 0.43402 0.5312 0.19248 0.0
H374 H 0.40911 0.56037 0.1609 0.0
C375 C 0.31014 0.56174 0.16613 0.0
C376 C 0.34056 0.53265 0.19304 0.0
C377 C 0.27887 0.55694 0.16413 0.0
C378 C 0.4329 0.49805 0.17738 0.0
C379 C 0.42089 0.51448 0.18267 0.0
C380 C 0.39057 0.55305 0.17016 0.0
C381 C 0.32178 0.56163 0.18137 0.0
C382 C 0.34717 0.55519 0.18288 0.0
C383 C 0.39297 0.51019 0.17484 0.0
C384 C 0.38157 0.52879 0.17935 0.0
H385 H 0.25726 0.55228 0.20298 0.0
H386 H 0.31259 0.56159 0.20658 0.0
H387 H 0.37981 0.58405 0.1642 0.0
H388 H 0.37464 0.45542 0.14706 0.0
H389 H 0.35414 0.48468 0.1562 0.0
C390 C 0.67564 0.11685 0.50652 0.0
C391 C 0.64381 0.10771 0.50035 0.0
C392 C 0.70515 0.14684 0.50528 0.0
C393 C 0.74079 0.21443 0.48141 0.0
H394 H 0.80579 0.25888 0.51662 0.0
C395 C 0.85069 0.34291 0.47893 0.0
C396 C 0.88262 0.35448 0.48607 0.0
C397 C 0.82204 0.31298 0.48105 0.0
C398 C 0.78822 0.24675 0.50656 0.0
H399 H 0.61838 0.12344 0.48811 0.0
H400 H 0.66945 0.17519 0.48591 0.0
H401 H 0.75575 0.20655 0.51958 0.0
H402 H 0.9091 0.34306 0.50104 0.0
H403 H 0.85947 0.29095 0.50457 0.0
H404 H 0.77321 0.25419 0.46827 0.0
C405 C 0.67177 0.15921 0.49163 0.0
C406 C 0.7594 0.21665 0.50829 0.0
C407 C 0.64233 0.12944 0.493 0.0
C408 C 0.88492 0.33519 0.4955 0.0
C409 C 0.85629 0.30517 0.49755 0.0
C410 C 0.76966 0.24437 0.47964 0.0
C411 C 0.70367 0.16837 0.49766 0.0
C412 C 0.73511 0.20014 0.49578 0.0
C413 C 0.82437 0.29349 0.4903 0.0
C414 C 0.79377 0.26118 0.49221 0.0
H415 H 0.67784 0.10081 0.51226 0.0
H416 H 0.72929 0.15299 0.50999 0.0
H417 H 0.72303 0.20231 0.47141 0.0
H418 H 0.84765 0.35714 0.47183 0.0
H419 H 0.79791 0.30527 0.47554 0.0
C420 C 0.56553 0.69607 0.82975 0.0
C421 C 0.59741 0.70391 0.83495 0.0
C422 C 0.55996 0.71823 0.82895 0.0
C423 C 0.60773 0.80106 0.82555 0.0
H424 H 0.52033 0.78504 0.83451 0.0
C425 C 0.57502 0.87985 0.8053 0.0
C426 C 0.55699 0.88619 0.81561 0.0
C427 C 0.57943 0.85769 0.80867 0.0
C428 C 0.54501 0.79 0.83209 0.0
H429 H 0.64821 0.74138 0.84368 0.0
H430 H 0.63826 0.77972 0.84265 0.0
H431 H 0.52892 0.74645 0.83931 0.0
H432 H 0.5291 0.87369 0.83752 0.0
H433 H 0.5373 0.83527 0.84353 0.0
H434 H 0.62402 0.84464 0.81852 0.0
C435 C 0.61766 0.7565 0.83894 0.0
C436 C 0.54982 0.76773 0.83468 0.0
C437 C 0.62324 0.73438 0.83972 0.0
C438 C 0.54338 0.86962 0.82938 0.0
C439 C 0.54778 0.84735 0.83275 0.0
C440 C 0.60293 0.82325 0.82296 0.0
C441 C 0.58613 0.74884 0.83332 0.0
C442 C 0.58119 0.77288 0.83132 0.0
C443 C 0.56604 0.84122 0.82246 0.0
C444 C 0.5714 0.81793 0.82602 0.0
H445 H 0.54487 0.67278 0.8262 0.0
H446 H 0.53542 0.71147 0.82446 0.0
H447 H 0.63211 0.8058 0.82265 0.0
H448 H 0.58625 0.89236 0.7947 0.0
H449 H 0.59322 0.85333 0.80035 0.0
C450 C 0.85008 0.47511 0.21863 0.0
C451 C 0.85723 0.46495 0.20477 0.0
C452 C 0.8173 0.46724 0.22077 0.0
C453 C 0.73054 0.42539 0.20143 0.0
H454 H 0.75288 0.50596 0.20107 0.0
C455 C 0.6439 0.44605 0.16893 0.0
C456 C 0.66198 0.46792 0.15752 0.0
C457 C 0.66134 0.44396 0.18121 0.0
C458 C 0.746 0.48325 0.20139 0.0
H459 H 0.83542 0.43523 0.18355 0.0
H460 H 0.77841 0.42152 0.18716 0.0
H461 H 0.79327 0.49935 0.21288 0.0
H462 H 0.71221 0.50574 0.15044 0.0
H463 H 0.74286 0.50175 0.17172 0.0
H464 H 0.68467 0.40983 0.18856 0.0
C465 C 0.79766 0.43551 0.19642 0.0
C466 C 0.76891 0.47934 0.20836 0.0
C467 C 0.83038 0.44351 0.19425 0.0
C468 C 0.69772 0.48845 0.15897 0.0
C469 C 0.71516 0.48644 0.17129 0.0
C470 C 0.70758 0.42931 0.19449 0.0
C471 C 0.79148 0.44909 0.20908 0.0
C472 C 0.76236 0.45067 0.20753 0.0
C473 C 0.69716 0.46376 0.18233 0.0
C474 C 0.71614 0.45856 0.19357 0.0
H475 H 0.8705 0.49163 0.22691 0.0
H476 H 0.81306 0.47769 0.23072 0.0
H477 H 0.72476 0.40302 0.20076 0.0
H478 H 0.61631 0.4298 0.16804 0.0
H479 H 0.6469 0.42632 0.18957 0.0
C480 C 0.458 0.89862 0.49771 0.0
C481 C 0.45638 0.92325 0.49687 0.0
C482 C 0.42808 0.86863 0.49674 0.0
C483 C 0.33407 0.82156 0.50176 0.0
H484 H 0.33282 0.76299 0.47378 0.0
C485 C 0.20856 0.70267 0.48308 0.0
C486 C 0.21026 0.67814 0.48028 0.0
C487 C 0.23831 0.73216 0.48665 0.0
C488 C 0.33274 0.7788 0.48188 0.0
H489 H 0.42172 0.93549 0.49482 0.0
H490 H 0.36961 0.88328 0.49335 0.0
H491 H 0.38492 0.81469 0.4771 0.0
H492 H 0.24478 0.66549 0.48022 0.0
H493 H 0.29623 0.71649 0.48645 0.0
H494 H 0.28186 0.78561 0.50658 0.0
C495 C 0.39405 0.88714 0.49466 0.0
C496 C 0.36274 0.80859 0.48374 0.0
C497 C 0.424 0.9171 0.49538 0.0
C498 C 0.2424 0.6838 0.48189 0.0
C499 C 0.27206 0.7132 0.48545 0.0
C500 C 0.30406 0.79165 0.49998 0.0
C501 C 0.39567 0.86246 0.49517 0.0
C502 C 0.36382 0.83045 0.49364 0.0
C503 C 0.27065 0.738 0.48754 0.0
C504 C 0.30287 0.7698 0.48995 0.0
H505 H 0.48246 0.90246 0.49889 0.0
H506 H 0.43031 0.85023 0.49732 0.0
H507 H 0.33407 0.83769 0.50963 0.0
H508 H 0.18443 0.6994 0.48184 0.0
H509 H 0.23603 0.75056 0.48809 0.0
C510 C 0.53984 0.32565 0.85651 0.0
C511 C 0.56072 0.35356 0.8492 0.0
C512 C 0.54309 0.30232 0.85304 0.0
C513 C 0.57248 0.27542 0.8212 0.0
H514 H 0.56396 0.22166 0.85242 0.0
C515 C 0.59024 0.18409 0.80329 0.0
C516 C 0.56598 0.15478 0.80855 0.0
C517 C 0.59247 0.20896 0.80992 0.0
C518 C 0.56613 0.23635 0.84355 0.0
H519 H 0.60273 0.3792 0.83316 0.0
H520 H 0.60815 0.33853 0.82702 0.0
H521 H 0.56272 0.26422 0.86089 0.0
H522 H 0.52629 0.1289 0.82556 0.0
H523 H 0.52995 0.17251 0.83714 0.0
H524 H 0.57533 0.24757 0.80383 0.0
C525 C 0.58882 0.33449 0.83523 0.0
C526 C 0.56544 0.26074 0.8484 0.0
C527 C 0.58566 0.35782 0.83873 0.0
C528 C 0.54525 0.15121 0.82126 0.0
C529 C 0.54739 0.17621 0.82789 0.0
C530 C 0.57312 0.25114 0.81637 0.0
C531 C 0.5672 0.30625 0.84212 0.0
C532 C 0.56866 0.28061 0.83726 0.0
C533 C 0.57038 0.20526 0.82196 0.0
C534 C 0.57006 0.23129 0.82745 0.0
H535 H 0.52012 0.32139 0.86451 0.0
H536 H 0.52582 0.2808 0.85846 0.0
H537 H 0.57422 0.28978 0.81224 0.0
H538 H 0.60712 0.18771 0.79376 0.0
H539 H 0.61114 0.2311 0.80536 0.0
C540 C 0.54942 0.8348 0.50177 0.0
C541 C 0.56265 0.85639 0.51464 0.0
C542 C 0.54431 0.80706 0.50325 0.0
C543 C 0.53669 0.75637 0.5337 0.0
H544 H 0.56053 0.7234 0.49932 0.0
C545 C 0.5576 0.66567 0.54349 0.0
C546 C 0.54329 0.64106 0.53225 0.0
C547 C 0.55768 0.69054 0.5406 0.0
C548 C 0.55339 0.73214 0.50896 0.0
H549 H 0.58154 0.86592 0.53905 0.0
H550 H 0.573 0.81799 0.5416 0.0
H551 H 0.56445 0.76925 0.49567 0.0
H552 H 0.51808 0.62366 0.50902 0.0
H553 H 0.51876 0.66749 0.5039 0.0
H554 H 0.5264 0.71971 0.54711 0.0
C555 C 0.5657 0.822 0.53046 0.0
C556 C 0.55556 0.75839 0.50686 0.0
C557 C 0.57065 0.84958 0.529 0.0
C558 C 0.52962 0.64231 0.51789 0.0
C559 C 0.52992 0.66738 0.51495 0.0
C560 C 0.53475 0.73032 0.53582 0.0
C561 C 0.55243 0.80032 0.51763 0.0
C562 C 0.54776 0.77113 0.51931 0.0
C563 C 0.54368 0.69165 0.52636 0.0
C564 C 0.54357 0.71815 0.52357 0.0
H565 H 0.54271 0.83923 0.49058 0.0
H566 H 0.53368 0.79079 0.49318 0.0
H567 H 0.52963 0.76503 0.54342 0.0
H568 H 0.56913 0.66593 0.55451 0.0
H569 H 0.56912 0.70916 0.54949 0.0
C570 C 0.67333 0.50834 0.85157 0.0
C571 C 0.67667 0.5352 0.84898 0.0
C572 C 0.70217 0.50849 0.85399 0.0
C573 C 0.79994 0.55822 0.85146 0.0
H574 H 0.78943 0.49459 0.87523 0.0
C575 C 0.91245 0.54696 0.85724 0.0
C576 C 0.91519 0.5334 0.87044 0.0
C577 C 0.88415 0.54762 0.85488 0.0
C578 C 0.79338 0.51289 0.86869 0.0
H579 H 0.71437 0.5836 0.84703 0.0
H580 H 0.76427 0.58418 0.85162 0.0
H581 H 0.74081 0.49545 0.87105 0.0
H582 H 0.88865 0.51004 0.89159 0.0
H583 H 0.84038 0.51194 0.88781 0.0
H584 H 0.85287 0.57633 0.84965 0.0
C585 C 0.73927 0.56253 0.85143 0.0
C586 C 0.76483 0.51311 0.86601 0.0
C587 C 0.71032 0.56229 0.84882 0.0
C588 C 0.88827 0.52094 0.8813 0.0
C589 C 0.85992 0.52167 0.87896 0.0
C590 C 0.82856 0.55812 0.85424 0.0
C591 C 0.73599 0.53562 0.85417 0.0
C592 C 0.76721 0.53569 0.85724 0.0
C593 C 0.857 0.53492 0.86563 0.0
C594 C 0.82607 0.53537 0.86288 0.0
H595 H 0.64815 0.48683 0.85173 0.0
H596 H 0.69762 0.48695 0.85559 0.0
H597 H 0.80368 0.57602 0.84451 0.0
H598 H 0.93243 0.55745 0.84861 0.0
H599 H 0.88352 0.55782 0.84434 0.0
C600 C 0.18244 0.60649 0.17875 0.0
C601 C 0.15081 0.60202 0.17879 0.0
C602 C 0.21336 0.63594 0.18009 0.0
C603 C 0.25021 0.71693 0.17479 0.0
H604 H 0.3226 0.73443 0.20342 0.0
C605 C 0.36386 0.8401 0.19494 0.0
C606 C 0.39633 0.84688 0.19758 0.0
C607 C 0.33509 0.81019 0.19133 0.0
C608 C 0.30293 0.72995 0.19517 0.0
H609 H 0.1272 0.62526 0.18007 0.0
H610 H 0.18072 0.67619 0.18231 0.0
H611 H 0.27082 0.68245 0.19956 0.0
H612 H 0.42379 0.82709 0.19765 0.0
H613 H 0.37382 0.77516 0.19142 0.0
H614 H 0.28215 0.76435 0.17041 0.0
C615 C 0.18177 0.65705 0.1812 0.0
C616 C 0.27314 0.70004 0.19297 0.0
C617 C 0.15097 0.62772 0.18004 0.0
C618 C 0.39922 0.82285 0.19604 0.0
C619 C 0.37045 0.79293 0.19247 0.0
C620 C 0.28002 0.74678 0.17693 0.0
C621 C 0.21344 0.66165 0.1813 0.0
C622 C 0.24616 0.69316 0.1829 0.0
C623 C 0.33783 0.78605 0.19025 0.0
C624 C 0.30671 0.75386 0.1873 0.0
H625 H 0.18334 0.58726 0.17782 0.0
H626 H 0.23724 0.63858 0.18003 0.0
H627 H 0.23027 0.71244 0.16671 0.0
H628 H 0.36031 0.85775 0.19623 0.0
H629 H 0.31045 0.80589 0.18991 0.0
C630 C 0.52511 0.1851 0.49006 0.0
C631 C 0.54295 0.17685 0.49858 0.0
C632 C 0.53099 0.21307 0.49342 0.0
C633 C 0.56008 0.26947 0.5266 0.0
H634 H 0.56102 0.31946 0.49521 0.0
C635 C 0.58363 0.38148 0.54598 0.0
C636 C 0.56172 0.38729 0.53945 0.0
C637 C 0.58501 0.35855 0.53931 0.0
C638 C 0.56056 0.30561 0.50411 0.0
H639 H 0.58269 0.19259 0.51656 0.0
H640 H 0.59268 0.24111 0.52249 0.0
H641 H 0.5571 0.27427 0.48655 0.0
H642 H 0.52547 0.37478 0.52025 0.0
H643 H 0.52745 0.33413 0.50862 0.0
H644 H 0.56278 0.30007 0.54416 0.0
C645 C 0.57366 0.2257 0.51342 0.0
C646 C 0.55836 0.27977 0.49915 0.0
C647 C 0.56788 0.19783 0.51004 0.0
C648 C 0.54257 0.37075 0.52553 0.0
C649 C 0.54377 0.34754 0.51888 0.0
C650 C 0.56219 0.29511 0.53153 0.0
C651 C 0.55475 0.23338 0.50541 0.0
C652 C 0.55815 0.26143 0.51037 0.0
C653 C 0.5643 0.34061 0.52599 0.0
C654 C 0.56255 0.3136 0.52038 0.0
H655 H 0.50555 0.16945 0.48124 0.0
H656 H 0.51583 0.21819 0.4871 0.0
H657 H 0.55914 0.25549 0.53557 0.0
H658 H 0.59926 0.39432 0.5565 0.0
H659 H 0.60183 0.35445 0.54484 0.0
C660 C 0.46131 0.50481 0.85999 0.0
C661 C 0.49139 0.52901 0.85303 0.0
C662 C 0.43261 0.50501 0.86225 0.0
C663 C 0.40509 0.55704 0.86316 0.0
H664 H 0.31375 0.48136 0.86147 0.0
C665 C 0.2833 0.55565 0.86542 0.0
C666 C 0.25274 0.53135 0.87212 0.0
C667 C 0.31185 0.55523 0.86322 0.0
C668 C 0.33896 0.50285 0.86223 0.0
H669 H 0.51375 0.57254 0.84295 0.0
H670 H 0.46413 0.57279 0.84665 0.0
H671 H 0.36297 0.48092 0.85735 0.0
H672 H 0.22983 0.48727 0.8817 0.0
H673 H 0.27934 0.48693 0.87833 0.0
H674 H 0.38116 0.57899 0.86808 0.0
C675 C 0.46269 0.55362 0.85065 0.0
C676 C 0.36761 0.5026 0.85983 0.0
C677 C 0.49142 0.55341 0.84839 0.0
C678 C 0.25248 0.50673 0.87665 0.0
C679 C 0.28112 0.50634 0.87447 0.0
C680 C 0.37645 0.55729 0.86558 0.0
C681 C 0.43253 0.52944 0.85766 0.0
C682 C 0.40146 0.52969 0.86022 0.0
C683 C 0.31156 0.53057 0.86766 0.0
C684 C 0.34259 0.53021 0.86517 0.0
H685 H 0.4599 0.48556 0.86384 0.0
H686 H 0.41059 0.48603 0.8679 0.0
H687 H 0.4303 0.57854 0.86392 0.0
H688 H 0.28556 0.57546 0.86192 0.0
H689 H 0.33411 0.57435 0.85776 0.0
C690 C 0.95641 0.39373 0.16846 0.0
C691 C 0.96035 0.41961 0.17514 0.0
C692 C 0.92603 0.36452 0.17027 0.0
C693 C 0.84971 0.32144 0.19568 0.0
H694 H 0.81173 0.26088 0.16071 0.0
C695 C 0.71696 0.20406 0.19914 0.0
C696 C 0.71264 0.17841 0.1918 0.0
C697 C 0.7468 0.23344 0.19705 0.0
C698 C 0.82212 0.27731 0.17071 0.0
H699 H 0.93488 0.43474 0.18893 0.0
H700 H 0.88215 0.38408 0.192 0.0
H701 H 0.86398 0.31158 0.15715 0.0
H702 H 0.73718 0.16398 0.17671 0.0
H703 H 0.78901 0.21486 0.17318 0.0
H704 H 0.80808 0.28716 0.2093 0.0
C705 C 0.90266 0.38626 0.18548 0.0
C706 C 0.8522 0.30653 0.16864 0.0
C707 C 0.93294 0.41544 0.1836 0.0
C708 C 0.73918 0.18309 0.18235 0.0
C709 C 0.76903 0.21244 0.1803 0.0
C710 C 0.81969 0.29218 0.19777 0.0
C711 C 0.89874 0.36031 0.17889 0.0
C712 C 0.8665 0.32907 0.18109 0.0
C713 C 0.77336 0.23814 0.18758 0.0
C714 C 0.80538 0.26958 0.18533 0.0
H715 H 0.97693 0.39595 0.16193 0.0
H716 H 0.92421 0.34516 0.16516 0.0
H717 H 0.86012 0.33796 0.20564 0.0
H718 H 0.69699 0.20151 0.20633 0.0
H719 H 0.74873 0.25253 0.20267 0.0
C720 C 0.0745 0.54652 0.11985 0.0
C721 C 0.05927 0.52047 0.12868 0.0
C722 C 0.07739 0.54492 0.10335 0.0
C723 C 1.03932 0.49153 0.06799 0.0
H724 H 0.11998 0.55718 0.04744 0.0
C725 C 0.0425 0.50801 1.00006 0.0
C726 C 0.07239 0.51723 0.99198 0.0
C727 C 0.04137 0.50677 0.01667 0.0
C728 C 0.09734 0.5385 0.05295 0.0
H729 H 1.03564 0.47229 0.12709 0.0
H730 H 0.04053 0.46937 0.09815 0.0
H731 H 0.11807 0.55774 0.07637 0.0
H732 H 0.12463 0.53251 0.99522 0.0
H733 H 0.12277 0.53052 0.02416 0.0
H734 H 1.01857 0.47236 0.04451 0.0
C735 C 0.05006 0.49108 0.10402 0.0
C736 C 0.09611 0.53896 0.06959 0.0
C737 C 0.04743 0.49275 0.12062 0.0
C738 C 0.1011 0.52511 1.00101 0.0
C739 C 0.10012 0.52421 0.01764 0.0
C740 C 0.04044 0.49119 0.05132 0.0
C741 C 0.06497 0.51716 0.09514 0.0
C742 C 0.06698 0.51562 0.07738 0.0
C743 C 0.07024 0.51505 0.02574 0.0
C744 C 0.06939 0.51478 0.04354 0.0
H745 H 0.08394 0.56824 0.12568 0.0
H746 H 0.08864 0.56542 0.09698 0.0
H747 H 1.01635 0.47326 0.07351 0.0
H748 H 1.0198 0.50153 0.99351 0.0
H749 H 1.01801 0.49987 0.02245 0.0
C750 C 0.58842 0.03375 0.44531 0.0
C751 C 0.55958 0.01676 0.45474 0.0
C752 C 0.58476 0.0358 0.42912 0.0
C753 C 0.52608 0.99638 0.39478 0.0
H754 H 0.58732 0.07419 0.37598 0.0
C755 C 0.52421 0.01408 0.32698 0.0
C756 C 0.55639 0.03387 0.3202 0.0
C757 C 0.5215 0.01106 0.34348 0.0
C758 C 0.57021 0.05221 0.38099 0.0
H759 H 0.5042 0.98869 0.4547 0.0
H760 H 0.4977 0.99196 0.42612 0.0
H761 H 0.58786 0.07122 0.40469 0.0
H762 H 0.61098 0.06457 0.32533 0.0
H763 H 0.60634 0.05918 0.35385 0.0
H764 H 0.50905 0.97729 0.37096 0.0
C765 C 0.52315 1.00371 0.43135 0.0
C766 C 0.57045 0.05056 0.39746 0.0
C767 C 0.52686 1.00197 0.44768 0.0
C768 C 0.58575 0.04974 0.33019 0.0
C769 C 0.58306 0.04668 0.34658 0.0
C770 C 0.52595 0.99802 0.37821 0.0
C771 C 0.55213 0.02069 0.42191 0.0
C772 C 0.54892 0.02257 0.40454 0.0
C773 C 0.55091 0.02772 0.3535 0.0
C774 C 0.54858 0.0259 0.37111 0.0
H775 H 0.61394 0.04541 0.45044 0.0
H776 H 0.60757 0.04877 0.42216 0.0
H777 H 0.50931 0.97446 0.39989 0.0
H778 H 0.5011 1.00159 0.3196 0.0
H779 H 0.49633 0.9963 0.34841 0.0
C780 C 0.54018 0.49756 0.79163 0.0
C781 C 0.56891 0.51666 0.80178 0.0
C782 C 0.54239 0.50139 0.7753 0.0
C783 C 0.59181 0.55629 0.74471 0.0
H784 H 0.54679 0.48377 0.71671 0.0
C785 C 0.59812 0.56135 0.676 0.0
C786 C 0.56798 0.53934 0.66721 0.0
C787 C 0.60043 0.55917 0.69236 0.0
C788 C 0.55919 0.50426 0.72433 0.0
H789 H 0.62242 0.55525 0.80286 0.0
H790 H 0.62634 0.56214 0.77411 0.0
H791 H 0.54711 0.47947 0.74531 0.0
H792 H 0.51648 0.49802 0.66882 0.0
H793 H 0.52029 0.49436 0.69729 0.0
H794 H 0.60333 0.58103 0.72371 0.0
C795 C 0.60207 0.54414 0.77886 0.0
C796 C 0.55945 0.50179 0.74075 0.0
C797 C 0.59988 0.54017 0.79529 0.0
C798 C 0.54026 0.51509 0.67517 0.0
C799 C 0.5425 0.51299 0.69153 0.0
C800 C 0.5914 0.55877 0.72824 0.0
C801 C 0.57339 0.52452 0.76867 0.0
C802 C 0.57535 0.5277 0.75116 0.0
C803 C 0.57261 0.53499 0.70036 0.0
C804 C 0.57469 0.53271 0.71784 0.0
H805 H 0.51587 0.47938 0.79628 0.0
H806 H 0.51966 0.48626 0.76785 0.0
H807 H 0.60405 0.57666 0.75242 0.0
H808 H 0.6201 0.58011 0.67019 0.0
H809 H 0.6242 0.57628 0.69871 0.0
C810 C 0.52308 0.98759 0.5523 0.0
C811 C 0.54288 0.01555 0.54514 0.0
C812 C 0.52656 0.98609 0.56862 0.0
C813 C 0.54784 0.02995 0.60607 0.0
H814 H 0.5581 0.97126 0.62298 0.0
C815 C 0.56299 0.02391 0.6738 0.0
C816 C 0.54742 0.99504 0.67978 0.0
C817 C 0.56406 0.02746 0.65739 0.0
C818 C 0.55474 0.98751 0.6185 0.0
H819 H 0.58161 0.06389 0.54917 0.0
H820 H 0.58682 0.0615 0.57798 0.0
H821 H 0.55748 0.97539 0.5943 0.0
H822 H 0.51969 0.94714 0.67313 0.0
H823 H 0.5211 0.95319 0.64467 0.0
H824 H 0.54388 0.04143 0.63016 0.0
C825 C 0.56913 0.04068 0.57092 0.0
C826 C 0.55461 0.98997 0.60205 0.0
C827 C 0.56634 0.04205 0.55449 0.0
C828 C 0.53248 0.96979 0.66895 0.0
C829 C 0.53339 0.9733 0.65258 0.0
C830 C 0.54752 0.02723 0.62254 0.0
C831 C 0.54918 0.01267 0.57816 0.0
C832 C 0.551 0.01111 0.59566 0.0
C833 C 0.54942 1.0022 0.64653 0.0
C834 C 0.55075 0.00583 0.629 0.0
H835 H 0.5048 0.96691 0.54525 0.0
H836 H 0.51077 0.96422 0.57389 0.0
H837 H 0.54461 0.04621 0.60146 0.0
H838 H 0.57508 0.0439 0.68179 0.0
H839 H 0.577 0.05013 0.65323 0.0
C840 C 0.56525 0.51639 0.89571 0.0
C841 C 0.59696 0.54157 0.89082 0.0
C842 C 0.56128 0.50759 0.91128 0.0
C843 C 0.59674 0.53843 0.95125 0.0
H844 H 0.53937 0.45356 0.96124 0.0
C845 C 0.56874 0.50052 0.01557 0.0
C846 C 0.53416 0.47789 0.01859 0.0
C847 C 0.57963 0.50745 1.00002 0.0
C848 C 0.55537 0.47733 0.9586 0.0
H849 H 0.64964 0.57694 0.89806 0.0
H850 H 0.64271 0.56152 0.92546 0.0
H851 H 0.55367 0.46715 0.93367 0.0
H852 H 0.48395 0.44446 1.0078 0.0
H853 H 0.50289 0.45689 0.98055 0.0
H854 H 0.59784 0.54861 0.97612 0.0
C855 C 0.62089 0.54877 0.91726 0.0
C856 C 0.56357 0.4851 0.94286 0.0
C857 C 0.62487 0.55755 0.90163 0.0
C858 C 0.5107 0.46216 1.00578 0.0
C859 C 0.52161 0.46902 0.99022 0.0
C860 C 0.5886 0.53066 0.96698 0.0
C861 C 0.58897 0.52384 0.92224 0.0
C862 C 0.58373 0.5157 0.93901 0.0
C863 C 0.55614 0.49182 0.98721 0.0
C864 C 0.56728 0.50003 0.97075 0.0
H865 H 0.54332 0.50373 0.88757 0.0
H866 H 0.53624 0.48859 0.91484 0.0
H867 H 0.61198 0.56219 0.9486 0.0
H868 H 0.58731 0.5132 0.02525 0.0
H869 H 0.60642 0.52503 0.99801 0.0
C870 C 0.04334 0.47711 0.22968 0.0
C871 C 0.05357 0.50161 0.22033 0.0
C872 C 0.04193 0.47962 0.24618 0.0
C873 C 1.03705 0.52333 0.27933 0.0
H874 H 0.0691 0.48675 0.30422 0.0
C875 C 0.04076 0.52959 0.34875 0.0
C876 C 1.0292 0.50247 0.35594 0.0
C877 C 0.04608 0.53215 0.33233 0.0
C878 C 0.05978 0.49689 0.29748 0.0
H879 H 0.06943 0.54779 0.22094 0.0
H880 H 0.06703 0.5523 0.24997 0.0
H881 H 0.07332 0.48625 0.27546 0.0
H882 H 1.01525 0.45716 0.35148 0.0
H883 H 1.02401 0.46143 0.32305 0.0
H884 H 1.02318 0.53365 0.30146 0.0
C885 C 0.06005 0.53107 0.24446 0.0
C886 C 0.06218 0.49659 0.28094 0.0
C887 C 0.06154 0.52855 0.22785 0.0
C888 C 1.0237 0.47824 0.34635 0.0
C889 C 1.02914 0.48084 0.33002 0.0
C890 C 1.0346 0.52361 0.29594 0.0
C891 C 0.05069 0.50673 0.25386 0.0
C892 C 0.05028 0.50929 0.27159 0.0
C893 C 0.0403 0.50776 0.32274 0.0
C894 C 0.04538 0.50988 0.30521 0.0
H895 H 1.03668 0.45592 0.22424 0.0
H896 H 1.03384 0.46017 0.25295 0.0
H897 H 1.02749 0.5332 0.27251 0.0
H898 H 0.0451 0.54864 0.35577 0.0
H899 H 0.05494 0.5533 0.32716 0.0
loop_
_geom_bond_atom_site_label_1
_geom_bond_atom_site_label_2
_geom_bond_distance
_geom_bond_site_symmetry_2
_ccdc_geom_bond_type
Ho0 C3 2.811 . S
Ho0 O20 2.322 . S
Ho0 O22 2.378 . S
Ho0 O23 2.524 . S
Ho0 O24 2.381 . S
Ho0 O25 2.669 . S
Ho0 O27 2.346 1_455 S
Ho0 O31 2.305 . S
Ho1 C12 2.811 . S
Ho1 O21 2.346 1_655 S
Ho1 O25 2.305 1_655 S
Ho1 O26 2.322 . S
Ho1 O28 2.378 . S
Ho1 O29 2.524 . S
Ho1 O30 2.383 . S
Ho1 O31 2.669 1_655 S
C2 O20 1.259 . S
C2 O21 1.268 . S
C3 Ho0 2.811 . S
C3 C4 1.488 . S
C3 O22 1.215 . S
C3 O23 1.289 . S
C4 C3 1.488 . S
C4 C5 1.348 . S
C4 C9 1.413 . S
C5 C4 1.348 . S
C5 C6 1.442 . S
C5 H32 0.930 . S
C6 C5 1.442 . S
C6 C7 1.381 . S
C6 H33 0.931 . S
C7 C6 1.381 . S
C7 C8 1.321 . S
C8 C7 1.321 . S
C8 C9 1.403 . S
C8 H34 0.934 . S
C9 C4 1.413 . S
C9 C8 1.403 . S
C9 H35 0.930 . S
C10 O24 1.275 . S
C10 O25 1.256 . S
C11 O26 1.259 . S
C11 O27 1.268 . S
C12 Ho1 2.811 . S
C12 C13 1.488 . S
C12 O28 1.215 . S
C12 O29 1.289 . S
C13 C12 1.488 . S
C13 C14 1.348 . S
C13 C18 1.413 . S
C14 C13 1.348 . S
C14 C15 1.442 . S
C14 H36 0.930 . S
C15 C14 1.442 . S
C15 C16 1.381 . S
C15 H37 0.931 . S
C16 C15 1.381 . S
C16 C17 1.321 . S
C17 C16 1.321 . S
C17 C18 1.403 . S
C17 H38 0.934 . S
C18 C13 1.413 . S
C18 C17 1.403 . S
C18 H39 0.930 . S
C19 O30 1.264 1_455 S
C19 O31 1.256 . S
O20 Ho0 2.322 . S
O20 C2 1.259 . S
O21 Ho1 2.346 1_455 S
O21 C2 1.268 . S
O22 Ho0 2.378 . S
O22 C3 1.215 . S
O23 Ho0 2.524 . S
O23 C3 1.289 . S
O24 Ho0 2.381 . S
O24 C10 1.275 . S
O25 Ho0 2.669 . S
O25 Ho1 2.305 1_455 S
O25 C10 1.256 . S
O26 Ho1 2.322 . S
O26 C11 1.259 . S
O27 Ho0 2.346 1_655 S
O27 C11 1.268 . S
O28 Ho1 2.378 . S
O28 C12 1.215 . S
O29 Ho1 2.524 . S
O29 C12 1.289 . S
O30 Ho1 2.383 . S
O30 C19 1.264 1_655 S
O31 Ho0 2.305 . S
O31 Ho1 2.669 1_455 S
O31 C19 1.256 . S
H32 C5 0.930 . S
H33 C6 0.931 . S
H34 C8 0.934 . S
H35 C9 0.930 . S
H36 C14 0.930 . S
H37 C15 0.931 . S
H38 C17 0.934 . S
H39 C18 0.930 . S
Ho40 C43 2.811 . S
Ho40 O60 2.322 . S
Ho40 O62 2.378 . S
Ho40 O63 2.524 . S
Ho40 O64 2.381 . S
Ho40 O65 2.669 1_565 S
Ho40 O67 2.346 1_565 S
Ho40 O71 2.305 1_565 S
Ho41 C52 2.811 . S
Ho41 O61 2.346 1_545 S
Ho41 O65 2.305 . S
Ho41 O66 2.322 . S
Ho41 O68 2.378 . S
Ho41 O69 2.524 . S
Ho41 O70 2.381 . S
Ho41 O71 2.669 . S
C42 O60 1.259 . S
C42 O61 1.268 . S
C43 Ho40 2.811 . S
C43 C44 1.488 . S
C43 O62 1.215 . S
C43 O63 1.289 . S
C44 C43 1.488 . S
C44 C45 1.348 . S
C44 C49 1.413 . S
C45 C44 1.348 . S
C45 C46 1.442 . S
C45 H72 0.930 . S
C46 C45 1.442 . S
C46 C47 1.381 . S
C46 H73 0.931 . S
C47 C46 1.381 . S
C47 C48 1.321 . S
C48 C47 1.321 . S
C48 C49 1.403 . S
C48 H74 0.934 . S
C49 C44 1.413 . S
C49 C48 1.403 . S
C49 H75 0.930 . S
C50 O64 1.275 1_545 S
C50 O65 1.256 . S
C51 O66 1.259 . S
C51 O67 1.268 . S
C52 Ho41 2.811 . S
C52 C53 1.488 . S
C52 O68 1.215 . S
C52 O69 1.289 . S
C53 C52 1.488 . S
C53 C54 1.348 . S
C53 C58 1.413 . S
C54 C53 1.348 . S
C54 C55 1.442 . S
C54 H76 0.930 . S
C55 C54 1.442 . S
C55 C56 1.381 . S
C55 H77 0.931 . S
C56 C55 1.381 . S
C56 C57 1.321 . S
C57 C56 1.321 . S
C57 C58 1.403 . S
C57 H78 0.934 . S
C58 C53 1.413 . S
C58 C57 1.403 . S
C58 H79 0.930 . S
C59 O70 1.275 . S
C59 O71 1.256 . S
O60 Ho40 2.322 . S
O60 C42 1.259 . S
O61 Ho41 2.346 1_565 S
O61 C42 1.268 . S
O62 Ho40 2.378 . S
O62 C43 1.215 . S
O63 Ho40 2.524 . S
O63 C43 1.289 . S
O64 Ho40 2.381 . S
O64 C50 1.275 1_565 S
O65 Ho40 2.669 1_545 S
O65 Ho41 2.305 . S
O65 C50 1.256 . S
O66 Ho41 2.322 . S
O66 C51 1.259 . S
O67 Ho40 2.346 1_545 S
O67 C51 1.268 . S
O68 Ho41 2.378 . S
O68 C52 1.215 . S
O69 Ho41 2.524 . S
O69 C52 1.289 . S
O70 Ho41 2.381 . S
O70 C59 1.275 . S
O71 Ho40 2.305 1_545 S
O71 Ho41 2.669 . S
O71 C59 1.256 . S
H72 C45 0.930 . S
H73 C46 0.931 . S
H74 C48 0.934 . S
H75 C49 0.930 . S
H76 C54 0.930 . S
H77 C55 0.931 . S
H78 C57 0.934 . S
H79 C58 0.930 . S
Ho80 C83 2.811 . S
Ho80 O100 2.322 . S
Ho80 O102 2.378 . S
Ho80 O103 2.524 . S
Ho80 O104 2.381 . S
Ho80 O105 2.669 . S
Ho80 O107 2.346 . S
Ho80 O111 2.305 . S
Ho81 C92 2.811 . S
Ho81 O101 2.346 . S
Ho81 O105 2.305 . S
Ho81 O106 2.322 . S
Ho81 O108 2.378 . S
Ho81 O109 2.524 . S
Ho81 O110 2.381 . S
Ho81 O111 2.669 . S
C82 O100 1.259 . S
C82 O101 1.268 . S
C83 Ho80 2.811 . S
C83 C84 1.488 . S
C83 O102 1.215 . S
C83 O103 1.289 . S
C84 C83 1.488 . S
C84 C85 1.348 . S
C84 C89 1.413 . S
C85 C84 1.348 . S
C85 C86 1.442 . S
C85 H112 0.930 . S
C86 C85 1.442 . S
C86 C87 1.381 . S
C86 H113 0.931 . S
C87 C86 1.381 . S
C87 C88 1.321 . S
C88 C87 1.321 . S
C88 C89 1.403 . S
C88 H114 0.934 . S
C89 C84 1.413 . S
C89 C88 1.403 . S
C89 H115 0.930 . S
C90 O104 1.275 . S
C90 O105 1.256 . S
C91 O106 1.259 . S
C91 O107 1.268 . S
C92 Ho81 2.811 . S
C92 C93 1.488 . S
C92 O108 1.215 . S
C92 O109 1.289 . S
C93 C92 1.488 . S
C93 C94 1.348 . S
C93 C98 1.413 . S
C94 C93 1.348 . S
C94 C95 1.442 . S
C94 H116 0.930 . S
C95 C94 1.442 . S
C95 C96 1.381 . S
C95 H117 0.931 . S
C96 C95 1.381 . S
C96 C97 1.321 . S
C97 C96 1.321 . S
C97 C98 1.403 . S
C97 H118 0.934 . S
C98 C93 1.413 . S
C98 C97 1.403 . S
C98 H119 0.930 . S
C99 O110 1.275 . S
C99 O111 1.256 . S
O100 Ho80 2.322 . S
O100 C82 1.259 . S
O101 Ho81 2.346 . S
O101 C82 1.268 . S
O102 Ho80 2.378 . S
O102 C83 1.215 . S
O103 Ho80 2.524 . S
O103 C83 1.289 . S
O104 Ho80 2.381 . S
O104 C90 1.275 . S
O105 Ho80 2.669 . S
O105 Ho81 2.305 . S
O105 C90 1.256 . S
O106 Ho81 2.322 . S
O106 C91 1.259 . S
O107 Ho80 2.346 . S
O107 C91 1.268 . S
O108 Ho81 2.378 . S
O108 C92 1.215 . S
O109 Ho81 2.524 . S
O109 C92 1.289 . S
O110 Ho81 2.381 . S
O110 C99 1.275 . S
O111 Ho80 2.305 . S
O111 Ho81 2.669 . S
O111 C99 1.256 . S
H112 C85 0.930 . S
H113 C86 0.931 . S
H114 C88 0.934 . S
H115 C89 0.930 . S
H116 C94 0.930 . S
H117 C95 0.931 . S
H118 C97 0.934 . S
H119 C98 0.930 . S
C120 C121 1.264 . S
C120 C125 1.479 . S
C120 C130 1.465 . S
C121 C120 1.264 . S
C121 C123 1.339 . S
C121 H148 0.931 . S
C122 C123 1.395 . S
C122 C124 1.320 . S
C123 C121 1.339 . S
C123 C122 1.395 . S
C123 H149 0.929 . S
C124 C122 1.320 . S
C124 C125 1.405 . S
C124 H150 0.930 . S
C125 C120 1.479 . S
C125 C124 1.405 . S
C125 H151 0.931 . S
U126 O127 2.454 1_545 S
U126 O128 2.458 1_545 S
U126 C129 2.984 1_545 S
U126 C130 2.847 . S
U126 C143 2.882 . S
U126 O144 2.441 . S
U126 O145 2.420 . S
U126 O146 2.449 1_545 S
U126 O147 2.449 . S
O127 U126 2.454 1_565 S
O127 C129 1.353 . S
O128 U126 2.458 1_565 S
O128 C129 1.286 . S
C129 U126 2.984 1_565 S
C129 O127 1.353 . S
C129 O128 1.286 . S
C129 C131 1.363 . S
C130 C120 1.465 . S
C130 U126 2.847 . S
C130 O144 1.249 . S
C130 O145 1.202 . S
C131 C129 1.363 . S
C131 C133 1.408 . S
C131 C136 1.342 . S
C132 C133 1.310 . S
C132 C135 1.461 . S
C132 H152 0.932 . S
C133 C131 1.408 . S
C133 C132 1.310 . S
C133 H153 0.930 . S
C134 C135 1.474 . S
C134 C136 1.285 . S
C134 H154 0.929 . S
C135 C132 1.461 . S
C135 C134 1.474 . S
C136 C131 1.342 . S
C136 C134 1.285 . S
C136 H155 0.930 . S
C137 C140 1.424 . S
C137 C142 1.223 1_545 S
C137 C143 1.428 . S
C138 C141 1.260 . S
C138 C142 1.479 1_545 S
C138 H156 0.932 1_545 S
C139 C140 1.384 . S
C139 C141 1.479 . S
C139 H157 0.929 . S
C140 C137 1.424 . S
C140 C139 1.384 . S
C140 H158 0.928 . S
C141 C138 1.260 . S
C141 C139 1.479 . S
C142 C137 1.223 1_565 S
C142 C138 1.479 1_565 S
C142 H159 0.952 . S
C143 U126 2.882 . S
C143 C137 1.428 . S
C143 O146 1.287 1_545 S
C143 O147 1.282 . S
O144 U126 2.441 . S
O144 C130 1.249 . S
O145 U126 2.420 . S
O145 C130 1.202 . S
O146 U126 2.449 1_565 S
O146 C143 1.287 1_565 S
O147 U126 2.449 . S
O147 C143 1.282 . S
H148 C121 0.931 . S
H149 C123 0.929 . S
H150 C124 0.930 . S
H151 C125 0.931 . S
H152 C132 0.932 . S
H153 C133 0.930 . S
H154 C134 0.929 . S
H155 C136 0.930 . S
H156 C138 0.932 1_565 S
H157 C139 0.929 . S
H158 C140 0.928 . S
H159 C142 0.952 . S
C160 C161 1.264 . S
C160 C165 1.479 . S
C160 C170 1.465 . S
C161 C160 1.264 . S
C161 C163 1.339 . S
C161 H188 0.931 . S
C162 C163 1.395 . S
C162 C164 1.320 . S
C163 C161 1.339 . S
C163 C162 1.395 . S
C163 H189 0.929 . S
C164 C162 1.320 . S
C164 C165 1.405 . S
C164 H190 0.930 . S
C165 C160 1.479 . S
C165 C164 1.405 . S
C165 H191 0.931 . S
U166 O167 2.454 . S
U166 O168 2.458 . S
U166 C169 2.984 . S
U166 C170 2.847 . S
U166 C183 2.882 . S
U166 O184 2.441 . S
U166 O185 2.420 . S
U166 O186 2.455 . S
U166 O187 2.449 . S
O167 U166 2.454 . S
O167 C169 1.353 . S
O168 U166 2.458 . S
O168 C169 1.286 . S
C169 U166 2.984 . S
C169 O167 1.353 . S
C169 O168 1.286 . S
C169 C171 1.363 . S
C170 C160 1.465 . S
C170 U166 2.847 . S
C170 O184 1.249 . S
C170 O185 1.202 . S
C171 C169 1.363 . S
C171 C173 1.408 . S
C171 C176 1.342 . S
C172 C173 1.310 . S
C172 C175 1.461 . S
C172 H192 0.932 . S
C173 C171 1.408 . S
C173 C172 1.310 . S
C173 H193 0.930 . S
C174 C175 1.474 . S
C174 C176 1.285 . S
C174 H194 0.929 . S
C175 C172 1.461 . S
C175 C174 1.474 . S
C176 C171 1.342 . S
C176 C174 1.285 . S
C176 H195 0.930 . S
C177 C180 1.424 . S
C177 C182 1.245 . S
C177 C183 1.428 . S
C178 C181 1.260 . S
C178 C182 1.477 . S
C178 H196 0.932 . S
C179 C180 1.384 . S
C179 C181 1.479 . S
C179 H197 0.929 . S
C180 C177 1.424 . S
C180 C179 1.384 . S
C180 H198 0.928 . S
C181 C178 1.260 . S
C181 C179 1.479 . S
C182 C177 1.245 . S
C182 C178 1.477 . S
C182 H199 0.932 . S
C183 U166 2.882 . S
C183 C177 1.428 . S
C183 O186 1.301 . S
C183 O187 1.282 . S
O184 U166 2.441 . S
O184 C170 1.249 . S
O185 U166 2.420 . S
O185 C170 1.202 . S
O186 U166 2.455 . S
O186 C183 1.301 . S
O187 U166 2.449 . S
O187 C183 1.282 . S
H188 C161 0.931 . S
H189 C163 0.929 . S
H190 C164 0.930 . S
H191 C165 0.931 . S
H192 C172 0.932 . S
H193 C173 0.930 . S
H194 C174 0.929 . S
H195 C176 0.930 . S
H196 C178 0.932 . S
H197 C179 0.929 . S
H198 C180 0.928 . S
H199 C182 0.932 . S
C200 C201 1.264 . S
C200 C205 1.479 . S
C200 C210 1.465 . S
C201 C200 1.264 . S
C201 C203 1.339 . S
C201 H228 0.931 . S
C202 C203 1.395 . S
C202 C204 1.320 . S
C203 C201 1.339 . S
C203 C202 1.395 . S
C203 H229 0.929 . S
C204 C202 1.320 . S
C204 C205 1.405 . S
C204 H230 0.930 . S
C205 C200 1.479 . S
C205 C204 1.405 . S
C205 H231 0.931 . S
U206 O207 2.454 . S
U206 O208 2.458 . S
U206 C209 2.984 . S
U206 C210 2.847 1_455 S
U206 C223 2.882 . S
U206 O224 2.441 . S
U206 O225 2.420 1_455 S
U206 O226 2.455 . S
U206 O227 2.449 . S
O207 U206 2.454 . S
O207 C209 1.353 . S
O208 U206 2.458 . S
O208 C209 1.286 . S
C209 U206 2.984 . S
C209 O207 1.353 . S
C209 O208 1.286 . S
C209 C211 1.363 . S
C210 C200 1.465 . S
C210 U206 2.847 1_655 S
C210 O224 1.249 1_655 S
C210 O225 1.202 . S
C211 C209 1.363 . S
C211 C213 1.408 . S
C211 C216 1.342 . S
C212 C213 1.310 . S
C212 C215 1.461 . S
C212 H232 0.932 . S
C213 C211 1.408 . S
C213 C212 1.310 . S
C213 H233 0.930 . S
C214 C215 1.474 . S
C214 C216 1.285 . S
C214 H234 0.929 . S
C215 C212 1.461 . S
C215 C214 1.474 . S
C216 C211 1.342 . S
C216 C214 1.285 . S
C216 H235 0.930 . S
C217 C220 1.424 . S
C217 C222 1.245 . S
C217 C223 1.428 . S
C218 C221 1.260 . S
C218 C222 1.477 . S
C218 H236 0.932 . S
C219 C220 1.384 . S
C219 C221 1.479 . S
C219 H237 0.929 1_455 S
C220 C217 1.424 . S
C220 C219 1.384 . S
C220 H238 0.928 1_455 S
C221 C218 1.260 . S
C221 C219 1.479 . S
C222 C217 1.245 . S
C222 C218 1.477 . S
C222 H239 0.932 . S
C223 U206 2.882 . S
C223 C217 1.428 . S
C223 O226 1.301 . S
C223 O227 1.282 . S
O224 U206 2.441 . S
O224 C210 1.249 1_455 S
O225 U206 2.420 1_655 S
O225 C210 1.202 . S
O226 U206 2.455 . S
O226 C223 1.301 . S
O227 U206 2.449 . S
O227 C223 1.282 . S
H228 C201 0.931 . S
H229 C203 0.929 . S
H230 C204 0.930 . S
H231 C205 0.931 . S
H232 C212 0.932 . S
H233 C213 0.930 . S
H234 C214 0.929 . S
H235 C216 0.930 . S
H236 C218 0.932 . S
H237 C219 0.929 1_655 S
H238 C220 0.928 1_655 S
H239 C222 0.932 . S
C240 C241 1.264 . S
C240 C245 1.479 . S
C240 C250 1.465 . S
C241 C240 1.264 . S
C241 C243 1.339 . S
C241 H268 0.931 . S
C242 C243 1.395 . S
C242 C244 1.320 . S
C243 C241 1.339 . S
C243 C242 1.395 . S
C243 H269 0.929 . S
C244 C242 1.320 . S
C244 C245 1.405 . S
C244 H270 0.930 . S
C245 C240 1.479 . S
C245 C244 1.405 . S
C245 H271 0.931 . S
U246 O247 2.454 1_655 S
U246 O248 2.458 1_655 S
U246 C249 2.984 1_655 S
U246 C250 2.847 . S
U246 C263 2.882 . S
U246 O264 2.441 . S
U246 O265 2.420 . S
U246 O266 2.455 1_655 S
U246 O267 2.449 . S
O247 U246 2.454 1_455 S
O247 C249 1.353 . S
O248 U246 2.458 1_455 S
O248 C249 1.286 . S
C249 U246 2.984 1_455 S
C249 O247 1.353 . S
C249 O248 1.286 . S
C249 C251 1.363 . S
C250 C240 1.465 . S
C250 U246 2.847 . S
C250 O264 1.249 . S
C250 O265 1.202 . S
C251 C249 1.363 . S
C251 C253 1.408 . S
C251 C256 1.342 . S
C252 C253 1.310 . S
C252 C255 1.461 . S
C252 H272 0.932 . S
C253 C251 1.408 . S
C253 C252 1.310 . S
C253 H273 0.930 . S
C254 C255 1.474 . S
C254 C256 1.285 . S
C254 H274 0.929 . S
C255 C252 1.461 . S
C255 C254 1.474 . S
C256 C251 1.342 . S
C256 C254 1.285 . S
C256 H275 0.930 . S
C257 C260 1.424 . S
C257 C262 1.245 1_655 S
C257 C263 1.428 . S
C258 C261 1.260 1_455 S
C258 C262 1.477 . S
C258 H276 0.932 . S
C259 C260 1.384 . S
C259 C261 1.479 . S
C259 H277 0.929 . S
C260 C257 1.424 . S
C260 C259 1.384 . S
C260 H278 0.928 . S
C261 C258 1.260 1_655 S
C261 C259 1.479 . S
C262 C257 1.245 1_455 S
C262 C258 1.477 . S
C262 H279 0.932 . S
C263 U246 2.882 . S
C263 C257 1.428 . S
C263 O266 1.301 1_655 S
C263 O267 1.282 . S
O264 U246 2.441 . S
O264 C250 1.249 . S
O265 U246 2.420 . S
O265 C250 1.202 . S
O266 U246 2.455 1_455 S
O266 C263 1.301 1_455 S
O267 U246 2.449 . S
O267 C263 1.282 . S
H268 C241 0.931 . S
H269 C243 0.929 . S
H270 C244 0.930 . S
H271 C245 0.931 . S
H272 C252 0.932 . S
H273 C253 0.930 . S
H274 C254 0.929 . S
H275 C256 0.930 . S
H276 C258 0.932 . S
H277 C259 0.929 . S
H278 C260 0.928 . S
H279 C262 0.932 . S
C280 C281 1.264 . S
C280 C285 1.479 . S
C280 C290 1.465 . S
C281 C280 1.264 . S
C281 C283 1.339 . S
C281 H308 0.931 . S
C282 C283 1.395 . S
C282 C284 1.320 . S
C283 C281 1.339 . S
C283 C282 1.395 . S
C283 H309 0.929 . S
C284 C282 1.320 . S
C284 C285 1.405 . S
C284 H310 0.930 . S
C285 C280 1.479 . S
C285 C284 1.405 . S
C285 H311 0.931 . S
U286 O287 2.454 1_565 S
U286 O288 2.458 1_565 S
U286 C289 2.984 1_565 S
U286 C290 2.847 . S
U286 C303 2.882 . S
U286 O304 2.441 . S
U286 O305 2.420 . S
U286 O306 2.455 1_565 S
U286 O307 2.449 . S
O287 U286 2.454 1_545 S
O287 C289 1.353 . S
O288 U286 2.458 1_545 S
O288 C289 1.286 . S
C289 U286 2.984 1_545 S
C289 O287 1.353 . S
C289 O288 1.286 . S
C289 C291 1.363 . S
C290 C280 1.465 . S
C290 U286 2.847 . S
C290 O304 1.249 . S
C290 O305 1.202 . S
C291 C289 1.363 . S
C291 C293 1.408 . S
C291 C296 1.342 . S
C292 C293 1.310 . S
C292 C295 1.461 . S
C292 H312 0.932 . S
C293 C291 1.408 . S
C293 C292 1.310 . S
C293 H313 0.930 . S
C294 C295 1.474 . S
C294 C296 1.285 . S
C294 H314 0.929 . S
C295 C292 1.461 . S
C295 C294 1.474 . S
C296 C291 1.342 . S
C296 C294 1.285 . S
C296 H315 0.930 . S
C297 C300 1.424 . S
C297 C302 1.245 1_565 S
C297 C303 1.428 . S
C298 C301 1.260 1_545 S
C298 C302 1.477 . S
C298 H316 0.932 . S
C299 C300 1.384 . S
C299 C301 1.479 . S
C299 H317 0.929 . S
C300 C297 1.424 . S
C300 C299 1.384 . S
C300 H318 0.928 . S
C301 C298 1.260 1_565 S
C301 C299 1.479 . S
C302 C297 1.245 1_545 S
C302 C298 1.477 . S
C302 H319 0.932 . S
C303 U286 2.882 . S
C303 C297 1.428 . S
C303 O306 1.301 1_565 S
C303 O307 1.282 . S
O304 U286 2.441 . S
O304 C290 1.249 . S
O305 U286 2.420 . S
O305 C290 1.202 . S
O306 U286 2.455 1_545 S
O306 C303 1.301 1_545 S
O307 U286 2.449 . S
O307 C303 1.282 . S
H308 C281 0.931 . S
H309 C283 0.929 . S
H310 C284 0.930 . S
H311 C285 0.931 . S
H312 C292 0.932 . S
H313 C293 0.930 . S
H314 C294 0.929 . S
H315 C296 0.930 . S
H316 C298 0.932 . S
H317 C299 0.929 . S
H318 C300 0.928 . S
H319 C302 0.932 . S
C320 C321 1.264 . S
C320 C325 1.479 . S
C320 C330 1.465 . S
C321 C320 1.264 . S
C321 C323 1.339 . S
C321 H348 0.931 . S
C322 C323 1.395 . S
C322 C324 1.320 . S
C323 C321 1.339 . S
C323 C322 1.395 . S
C323 H349 0.929 . S
C324 C322 1.320 . S
C324 C325 1.405 . S
C324 H350 0.930 . S
C325 C320 1.479 . S
C325 C324 1.405 . S
C325 H351 0.931 . S
U326 O327 2.454 . S
U326 O328 2.458 . S
U326 C329 2.984 . S
U326 C330 2.847 . S
U326 C343 2.882 . S
U326 O344 2.441 . S
U326 O345 2.420 . S
U326 O346 2.455 . S
U326 O347 2.449 . S
O327 U326 2.454 . S
O327 C329 1.353 . S
O328 U326 2.458 . S
O328 C329 1.286 . S
C329 U326 2.984 . S
C329 O327 1.353 . S
C329 O328 1.286 . S
C329 C331 1.363 . S
C330 C320 1.465 . S
C330 U326 2.847 . S
C330 O344 1.249 . S
C330 O345 1.202 . S
C331 C329 1.363 . S
C331 C333 1.408 . S
C331 C336 1.342 . S
C332 C333 1.310 . S
C332 C335 1.461 . S
C332 H352 0.932 . S
C333 C331 1.408 . S
C333 C332 1.310 . S
C333 H353 0.930 . S
C334 C335 1.474 . S
C334 C336 1.285 . S
C334 H354 0.929 . S
C335 C332 1.461 . S
C335 C334 1.474 . S
C336 C331 1.342 . S
C336 C334 1.285 . S
C336 H355 0.930 . S
C337 C340 1.424 . S
C337 C342 1.245 . S
C337 C343 1.428 . S
C338 C341 1.260 . S
C338 C342 1.477 . S
C338 H356 0.932 . S
C339 C340 1.384 . S
C339 C341 1.479 . S
C339 H357 0.929 . S
C340 C337 1.424 . S
C340 C339 1.384 . S
C340 H358 0.928 . S
C341 C338 1.260 . S
C341 C339 1.479 . S
C342 C337 1.245 . S
C342 C338 1.477 . S
C342 H359 0.932 . S
C343 U326 2.882 . S
C343 C337 1.428 . S
C343 O346 1.301 . S
C343 O347 1.282 . S
O344 U326 2.441 . S
O344 C330 1.249 . S
O345 U326 2.420 . S
O345 C330 1.202 . S
O346 U326 2.455 . S
O346 C343 1.301 . S
O347 U326 2.449 . S
O347 C343 1.282 . S
H348 C321 0.931 . S
H349 C323 0.929 . S
H350 C324 0.930 . S
H351 C325 0.931 . S
H352 C332 0.932 . S
H353 C333 0.930 . S
H354 C334 0.929 . S
H355 C336 0.930 . S
H356 C338 0.932 . S
H357 C339 0.929 . S
H358 C340 0.928 . S
H359 C342 0.932 . S
C360 C361 1.349 . S
C360 C362 1.327 . S
C360 H385 0.950 . S
C361 C360 1.349 . S
C361 C377 1.349 . S
C362 C360 1.327 . S
C362 C381 1.429 . S
C362 H386 0.950 . S
C363 C380 1.574 . S
C363 C382 1.368 . S
C363 H387 0.949 . S
H364 C368 0.949 . S
C365 C366 1.349 . S
C365 C367 1.327 . S
C365 H388 0.950 . S
C366 C365 1.349 . S
C366 C378 1.349 . S
C367 C365 1.327 . S
C367 C383 1.429 . S
C367 H389 0.950 . S
C368 H364 0.949 . S
C368 C376 1.574 . S
C368 C384 1.368 . S
H369 C377 0.950 . S
H370 C375 0.950 . S
H371 C376 0.949 . S
H372 C378 0.950 . S
H373 C379 0.950 . S
H374 C380 0.949 . S
C375 H370 0.950 . S
C375 C377 1.327 . S
C375 C381 1.429 . S
C376 C368 1.574 . S
C376 H371 0.949 . S
C376 C382 1.368 . S
C377 C361 1.349 . S
C377 H369 0.950 . S
C377 C375 1.327 . S
C378 C366 1.349 . S
C378 H372 0.950 . S
C378 C379 1.327 . S
C379 H373 0.950 . S
C379 C378 1.327 . S
C379 C383 1.429 . S
C380 C363 1.574 . S
C380 H374 0.949 . S
C380 C384 1.368 . S
C381 C362 1.429 . S
C381 C375 1.429 . S
C381 C382 1.523 . S
C382 C363 1.368 . S
C382 C376 1.368 . S
C382 C381 1.523 . S
C383 C367 1.429 . S
C383 C379 1.429 . S
C383 C384 1.523 . S
C384 C368 1.368 . S
C384 C380 1.368 . S
C384 C383 1.523 . S
H385 C360 0.950 . S
H386 C362 0.950 . S
H387 C363 0.949 . S
H388 C365 0.950 . S
H389 C367 0.950 . S
C390 C391 1.349 . S
C390 C392 1.327 . S
C390 H415 0.950 . S
C391 C390 1.349 . S
C391 C407 1.349 . S
C392 C390 1.327 . S
C392 C411 1.429 . S
C392 H416 0.950 . S
C393 C410 1.574 . S
C393 C412 1.368 . S
C393 H417 0.949 . S
H394 C398 0.949 . S
C395 C396 1.349 . S
C395 C397 1.327 . S
C395 H418 0.950 . S
C396 C395 1.349 . S
C396 C408 1.349 . S
C397 C395 1.327 . S
C397 C413 1.429 . S
C397 H419 0.950 . S
C398 H394 0.949 . S
C398 C406 1.574 . S
C398 C414 1.368 . S
H399 C407 0.950 . S
H400 C405 0.950 . S
H401 C406 0.949 . S
H402 C408 0.950 . S
H403 C409 0.950 . S
H404 C410 0.949 . S
C405 H400 0.950 . S
C405 C407 1.327 . S
C405 C411 1.429 . S
C406 C398 1.574 . S
C406 H401 0.949 . S
C406 C412 1.368 . S
C407 C391 1.349 . S
C407 H399 0.950 . S
C407 C405 1.327 . S
C408 C396 1.349 . S
C408 H402 0.950 . S
C408 C409 1.327 . S
C409 H403 0.950 . S
C409 C408 1.327 . S
C409 C413 1.429 . S
C410 C393 1.574 . S
C410 H404 0.949 . S
C410 C414 1.368 . S
C411 C392 1.429 . S
C411 C405 1.429 . S
C411 C412 1.523 . S
C412 C393 1.368 . S
C412 C406 1.368 . S
C412 C411 1.523 . S
C413 C397 1.429 . S
C413 C409 1.429 . S
C413 C414 1.523 . S
C414 C398 1.368 . S
C414 C410 1.368 . S
C414 C413 1.523 . S
H415 C390 0.950 . S
H416 C392 0.950 . S
H417 C393 0.949 . S
H418 C395 0.950 . S
H419 C397 0.950 . S
C420 C421 1.349 . S
C420 C422 1.327 . S
C420 H445 0.950 . S
C421 C420 1.349 . S
C421 C437 1.349 . S
C422 C420 1.327 . S
C422 C441 1.429 . S
C422 H446 0.950 . S
C423 C440 1.574 . S
C423 C442 1.368 . S
C423 H447 0.949 . S
H424 C428 0.949 . S
C425 C426 1.349 . S
C425 C427 1.327 . S
C425 H448 0.950 . S
C426 C425 1.349 . S
C426 C438 1.349 . S
C427 C425 1.327 . S
C427 C443 1.429 . S
C427 H449 0.950 . S
C428 H424 0.949 . S
C428 C436 1.574 . S
C428 C444 1.368 . S
H429 C437 0.950 . S
H430 C435 0.950 . S
H431 C436 0.949 . S
H432 C438 0.950 . S
H433 C439 0.950 . S
H434 C440 0.949 . S
C435 H430 0.950 . S
C435 C437 1.327 . S
C435 C441 1.429 . S
C436 C428 1.574 . S
C436 H431 0.949 . S
C436 C442 1.368 . S
C437 C421 1.349 . S
C437 H429 0.950 . S
C437 C435 1.327 . S
C438 C426 1.349 . S
C438 H432 0.950 . S
C438 C439 1.327 . S
C439 H433 0.950 . S
C439 C438 1.327 . S
C439 C443 1.429 . S
C440 C423 1.574 . S
C440 H434 0.949 . S
C440 C444 1.368 . S
C441 C422 1.429 . S
C441 C435 1.429 . S
C441 C442 1.523 . S
C442 C423 1.368 . S
C442 C436 1.368 . S
C442 C441 1.523 . S
C443 C427 1.429 . S
C443 C439 1.429 . S
C443 C444 1.523 . S
C444 C428 1.368 . S
C444 C440 1.368 . S
C444 C443 1.523 . S
H445 C420 0.950 . S
H446 C422 0.950 . S
H447 C423 0.949 . S
H448 C425 0.950 . S
H449 C427 0.950 . S
C450 C451 1.349 . S
C450 C452 1.327 . S
C450 H475 0.950 . S
C451 C450 1.349 . S
C451 C467 1.349 . S
C452 C450 1.327 . S
C452 C471 1.429 . S
C452 H476 0.950 . S
C453 C470 1.574 . S
C453 C472 1.368 . S
C453 H477 0.949 . S
H454 C458 0.949 . S
C455 C456 1.349 . S
C455 C457 1.327 . S
C455 H478 0.950 . S
C456 C455 1.349 . S
C456 C468 1.349 . S
C457 C455 1.327 . S
C457 C473 1.429 . S
C457 H479 0.950 . S
C458 H454 0.949 . S
C458 C466 1.574 . S
C458 C474 1.368 . S
H459 C467 0.950 . S
H460 C465 0.950 . S
H461 C466 0.949 . S
H462 C468 0.950 . S
H463 C469 0.950 . S
H464 C470 0.949 . S
C465 H460 0.950 . S
C465 C467 1.327 . S
C465 C471 1.429 . S
C466 C458 1.574 . S
C466 H461 0.949 . S
C466 C472 1.368 . S
C467 C451 1.349 . S
C467 H459 0.950 . S
C467 C465 1.327 . S
C468 C456 1.349 . S
C468 H462 0.950 . S
C468 C469 1.327 . S
C469 H463 0.950 . S
C469 C468 1.327 . S
C469 C473 1.429 . S
C470 C453 1.574 . S
C470 H464 0.949 . S
C470 C474 1.368 . S
C471 C452 1.429 . S
C471 C465 1.429 . S
C471 C472 1.523 . S
C472 C453 1.368 . S
C472 C466 1.368 . S
C472 C471 1.523 . S
C473 C457 1.429 . S
C473 C469 1.429 . S
C473 C474 1.523 . S
C474 C458 1.368 . S
C474 C470 1.368 . S
C474 C473 1.523 . S
H475 C450 0.950 . S
H476 C452 0.950 . S
H477 C453 0.949 . S
H478 C455 0.950 . S
H479 C457 0.950 . S
C480 C481 1.349 . S
C480 C482 1.327 . S
C480 H505 0.950 . S
C481 C480 1.349 . S
C481 C497 1.349 . S
C482 C480 1.327 . S
C482 C501 1.429 . S
C482 H506 0.950 . S
C483 C500 1.574 . S
C483 C502 1.368 . S
C483 H507 0.949 . S
H484 C488 0.949 . S
C485 C486 1.349 . S
C485 C487 1.327 . S
C485 H508 0.950 . S
C486 C485 1.349 . S
C486 C498 1.349 . S
C487 C485 1.327 . S
C487 C503 1.429 . S
C487 H509 0.950 . S
C488 H484 0.949 . S
C488 C496 1.574 . S
C488 C504 1.368 . S
H489 C497 0.950 . S
H490 C495 0.950 . S
H491 C496 0.949 . S
H492 C498 0.950 . S
H493 C499 0.950 . S
H494 C500 0.949 . S
C495 H490 0.950 . S
C495 C497 1.327 . S
C495 C501 1.429 . S
C496 C488 1.574 . S
C496 H491 0.949 . S
C496 C502 1.368 . S
C497 C481 1.349 . S
C497 H489 0.950 . S
C497 C495 1.327 . S
C498 C486 1.349 . S
C498 H492 0.950 . S
C498 C499 1.327 . S
C499 H493 0.950 . S
C499 C498 1.327 . S
C499 C503 1.429 . S
C500 C483 1.574 . S
C500 H494 0.949 . S
C500 C504 1.368 . S
C501 C482 1.429 . S
C501 C495 1.429 . S
C501 C502 1.523 . S
C502 C483 1.368 . S
C502 C496 1.368 . S
C502 C501 1.523 . S
C503 C487 1.429 . S
C503 C499 1.429 . S
C503 C504 1.523 . S
C504 C488 1.368 . S
C504 C500 1.368 . S
C504 C503 1.523 . S
H505 C480 0.950 . S
H506 C482 0.950 . S
H507 C483 0.949 . S
H508 C485 0.950 . S
H509 C487 0.950 . S
C510 C511 1.349 . S
C510 C512 1.327 . S
C510 H535 0.950 . S
C511 C510 1.349 . S
C511 C527 1.349 . S
C512 C510 1.327 . S
C512 C531 1.429 . S
C512 H536 0.950 . S
C513 C530 1.574 . S
C513 C532 1.368 . S
C513 H537 0.949 . S
H514 C518 0.949 . S
C515 C516 1.349 . S
C515 C517 1.327 . S
C515 H538 0.950 . S
C516 C515 1.349 . S
C516 C528 1.349 . S
C517 C515 1.327 . S
C517 C533 1.429 . S
C517 H539 0.950 . S
C518 H514 0.949 . S
C518 C526 1.574 . S
C518 C534 1.368 . S
H519 C527 0.950 . S
H520 C525 0.950 . S
H521 C526 0.949 . S
H522 C528 0.950 . S
H523 C529 0.950 . S
H524 C530 0.949 . S
C525 H520 0.950 . S
C525 C527 1.327 . S
C525 C531 1.429 . S
C526 C518 1.574 . S
C526 H521 0.949 . S
C526 C532 1.368 . S
C527 C511 1.349 . S
C527 H519 0.950 . S
C527 C525 1.327 . S
C528 C516 1.349 . S
C528 H522 0.950 . S
C528 C529 1.327 . S
C529 H523 0.950 . S
C529 C528 1.327 . S
C529 C533 1.429 . S
C530 C513 1.574 . S
C530 H524 0.949 . S
C530 C534 1.368 . S
C531 C512 1.429 . S
C531 C525 1.429 . S
C531 C532 1.523 . S
C532 C513 1.368 . S
C532 C526 1.368 . S
C532 C531 1.523 . S
C533 C517 1.429 . S
C533 C529 1.429 . S
C533 C534 1.523 . S
C534 C518 1.368 . S
C534 C530 1.368 . S
C534 C533 1.523 . S
H535 C510 0.950 . S
H536 C512 0.950 . S
H537 C513 0.949 . S
H538 C515 0.950 . S
H539 C517 0.950 . S
C540 C541 1.349 . S
C540 C542 1.327 . S
C540 H565 0.950 . S
C541 C540 1.349 . S
C541 C557 1.349 . S
C542 C540 1.327 . S
C542 C561 1.429 . S
C542 H566 0.950 . S
C543 C560 1.574 . S
C543 C562 1.368 . S
C543 H567 0.949 . S
H544 C548 0.949 . S
C545 C546 1.349 . S
C545 C547 1.327 . S
C545 H568 0.950 . S
C546 C545 1.349 . S
C546 C558 1.349 . S
C547 C545 1.327 . S
C547 C563 1.429 . S
C547 H569 0.950 . S
C548 H544 0.949 . S
C548 C556 1.574 . S
C548 C564 1.368 . S
H549 C557 0.950 . S
H550 C555 0.950 . S
H551 C556 0.949 . S
H552 C558 0.950 . S
H553 C559 0.950 . S
H554 C560 0.949 . S
C555 H550 0.950 . S
C555 C557 1.327 . S
C555 C561 1.429 . S
C556 C548 1.574 . S
C556 H551 0.949 . S
C556 C562 1.368 . S
C557 C541 1.349 . S
C557 H549 0.950 . S
C557 C555 1.327 . S
C558 C546 1.349 . S
C558 H552 0.950 . S
C558 C559 1.327 . S
C559 H553 0.950 . S
C559 C558 1.327 . S
C559 C563 1.429 . S
C560 C543 1.574 . S
C560 H554 0.949 . S
C560 C564 1.368 . S
C561 C542 1.429 . S
C561 C555 1.429 . S
C561 C562 1.523 . S
C562 C543 1.368 . S
C562 C556 1.368 . S
C562 C561 1.523 . S
C563 C547 1.429 . S
C563 C559 1.429 . S
C563 C564 1.523 . S
C564 C548 1.368 . S
C564 C560 1.368 . S
C564 C563 1.523 . S
H565 C540 0.950 . S
H566 C542 0.950 . S
H567 C543 0.949 . S
H568 C545 0.950 . S
H569 C547 0.950 . S
C570 C571 1.349 . S
C570 C572 1.327 . S
C570 H595 0.950 . S
C571 C570 1.349 . S
C571 C587 1.349 . S
C572 C570 1.327 . S
C572 C591 1.429 . S
C572 H596 0.950 . S
C573 C590 1.574 . S
C573 C592 1.368 . S
C573 H597 0.949 . S
H574 C578 0.949 . S
C575 C576 1.349 . S
C575 C577 1.327 . S
C575 H598 0.950 . S
C576 C575 1.349 . S
C576 C588 1.349 . S
C577 C575 1.327 . S
C577 C593 1.429 . S
C577 H599 0.950 . S
C578 H574 0.949 . S
C578 C586 1.574 . S
C578 C594 1.368 . S
H579 C587 0.950 . S
H580 C585 0.950 . S
H581 C586 0.949 . S
H582 C588 0.950 . S
H583 C589 0.950 . S
H584 C590 0.949 . S
C585 H580 0.950 . S
C585 C587 1.327 . S
C585 C591 1.429 . S
C586 C578 1.574 . S
C586 H581 0.949 . S
C586 C592 1.368 . S
C587 C571 1.349 . S
C587 H579 0.950 . S
C587 C585 1.327 . S
C588 C576 1.349 . S
C588 H582 0.950 . S
C588 C589 1.327 . S
C589 H583 0.950 . S
C589 C588 1.327 . S
C589 C593 1.429 . S
C590 C573 1.574 . S
C590 H584 0.949 . S
C590 C594 1.368 . S
C591 C572 1.429 . S
C591 C585 1.429 . S
C591 C592 1.523 . S
C592 C573 1.368 . S
C592 C586 1.368 . S
C592 C591 1.523 . S
C593 C577 1.429 . S
C593 C589 1.429 . S
C593 C594 1.523 . S
C594 C578 1.368 . S
C594 C590 1.368 . S
C594 C593 1.523 . S
H595 C570 0.950 . S
H596 C572 0.950 . S
H597 C573 0.949 . S
H598 C575 0.950 . S
H599 C577 0.950 . S
C600 C601 1.349 . S
C600 C602 1.327 . S
C600 H625 0.950 . S
C601 C600 1.349 . S
C601 C617 1.349 . S
C602 C600 1.327 . S
C602 C621 1.429 . S
C602 H626 0.950 . S
C603 C620 1.574 . S
C603 C622 1.368 . S
C603 H627 0.949 . S
H604 C608 0.949 . S
C605 C606 1.349 . S
C605 C607 1.327 . S
C605 H628 0.950 . S
C606 C605 1.349 . S
C606 C618 1.349 . S
C607 C605 1.327 . S
C607 C623 1.429 . S
C607 H629 0.950 . S
C608 H604 0.949 . S
C608 C616 1.574 . S
C608 C624 1.368 . S
H609 C617 0.950 . S
H610 C615 0.950 . S
H611 C616 0.949 . S
H612 C618 0.950 . S
H613 C619 0.950 . S
H614 C620 0.949 . S
C615 H610 0.950 . S
C615 C617 1.327 . S
C615 C621 1.429 . S
C616 C608 1.574 . S
C616 H611 0.949 . S
C616 C622 1.368 . S
C617 C601 1.349 . S
C617 H609 0.950 . S
C617 C615 1.327 . S
C618 C606 1.349 . S
C618 H612 0.950 . S
C618 C619 1.327 . S
C619 H613 0.950 . S
C619 C618 1.327 . S
C619 C623 1.429 . S
C620 C603 1.574 . S
C620 H614 0.949 . S
C620 C624 1.368 . S
C621 C602 1.429 . S
C621 C615 1.429 . S
C621 C622 1.523 . S
C622 C603 1.368 . S
C622 C616 1.368 . S
C622 C621 1.523 . S
C623 C607 1.429 . S
C623 C619 1.429 . S
C623 C624 1.523 . S
C624 C608 1.368 . S
C624 C620 1.368 . S
C624 C623 1.523 . S
H625 C600 0.950 . S
H626 C602 0.950 . S
H627 C603 0.949 . S
H628 C605 0.950 . S
H629 C607 0.950 . S
C630 C631 1.349 . S
C630 C632 1.327 . S
C630 H655 0.950 . S
C631 C630 1.349 . S
C631 C647 1.349 . S
C632 C630 1.327 . S
C632 C651 1.429 . S
C632 H656 0.950 . S
C633 C650 1.574 . S
C633 C652 1.368 . S
C633 H657 0.949 . S
H634 C638 0.949 . S
C635 C636 1.349 . S
C635 C637 1.327 . S
C635 H658 0.950 . S
C636 C635 1.349 . S
C636 C648 1.349 . S
C637 C635 1.327 . S
C637 C653 1.429 . S
C637 H659 0.950 . S
C638 H634 0.949 . S
C638 C646 1.574 . S
C638 C654 1.368 . S
H639 C647 0.950 . S
H640 C645 0.950 . S
H641 C646 0.949 . S
H642 C648 0.950 . S
H643 C649 0.950 . S
H644 C650 0.949 . S
C645 H640 0.950 . S
C645 C647 1.327 . S
C645 C651 1.429 . S
C646 C638 1.574 . S
C646 H641 0.949 . S
C646 C652 1.368 . S
C647 C631 1.349 . S
C647 H639 0.950 . S
C647 C645 1.327 . S
C648 C636 1.349 . S
C648 H642 0.950 . S
C648 C649 1.327 . S
C649 H643 0.950 . S
C649 C648 1.327 . S
C649 C653 1.429 . S
C650 C633 1.574 . S
C650 H644 0.949 . S
C650 C654 1.368 . S
C651 C632 1.429 . S
C651 C645 1.429 . S
C651 C652 1.523 . S
C652 C633 1.368 . S
C652 C646 1.368 . S
C652 C651 1.523 . S
C653 C637 1.429 . S
C653 C649 1.429 . S
C653 C654 1.523 . S
C654 C638 1.368 . S
C654 C650 1.368 . S
C654 C653 1.523 . S
H655 C630 0.950 . S
H656 C632 0.950 . S
H657 C633 0.949 . S
H658 C635 0.950 . S
H659 C637 0.950 . S
C660 C661 1.349 . S
C660 C662 1.327 . S
C660 H685 0.950 . S
C661 C660 1.349 . S
C661 C677 1.349 . S
C662 C660 1.327 . S
C662 C681 1.429 . S
C662 H686 0.950 . S
C663 C680 1.574 . S
C663 C682 1.368 . S
C663 H687 0.949 . S
H664 C668 0.949 . S
C665 C666 1.349 . S
C665 C667 1.327 . S
C665 H688 0.950 . S
C666 C665 1.349 . S
C666 C678 1.349 . S
C667 C665 1.327 . S
C667 C683 1.429 . S
C667 H689 0.950 . S
C668 H664 0.949 . S
C668 C676 1.574 . S
C668 C684 1.368 . S
H669 C677 0.950 . S
H670 C675 0.950 . S
H671 C676 0.949 . S
H672 C678 0.950 . S
H673 C679 0.950 . S
H674 C680 0.949 . S
C675 H670 0.950 . S
C675 C677 1.327 . S
C675 C681 1.429 . S
C676 C668 1.574 . S
C676 H671 0.949 . S
C676 C682 1.368 . S
C677 C661 1.349 . S
C677 H669 0.950 . S
C677 C675 1.327 . S
C678 C666 1.349 . S
C678 H672 0.950 . S
C678 C679 1.327 . S
C679 H673 0.950 . S
C679 C678 1.327 . S
C679 C683 1.429 . S
C680 C663 1.574 . S
C680 H674 0.949 . S
C680 C684 1.368 . S
C681 C662 1.429 . S
C681 C675 1.429 . S
C681 C682 1.523 . S
C682 C663 1.368 . S
C682 C676 1.368 . S
C682 C681 1.523 . S
C683 C667 1.429 . S
C683 C679 1.429 . S
C683 C684 1.523 . S
C684 C668 1.368 . S
C684 C680 1.368 . S
C684 C683 1.523 . S
H685 C660 0.950 . S
H686 C662 0.950 . S
H687 C663 0.949 . S
H688 C665 0.950 . S
H689 C667 0.950 . S
C690 C691 1.349 . S
C690 C692 1.327 . S
C690 H715 0.950 . S
C691 C690 1.349 . S
C691 C707 1.349 . S
C692 C690 1.327 . S
C692 C711 1.429 . S
C692 H716 0.950 . S
C693 C710 1.574 . S
C693 C712 1.368 . S
C693 H717 0.949 . S
H694 C698 0.949 . S
C695 C696 1.349 . S
C695 C697 1.327 . S
C695 H718 0.950 . S
C696 C695 1.349 . S
C696 C708 1.349 . S
C697 C695 1.327 . S
C697 C713 1.429 . S
C697 H719 0.950 . S
C698 H694 0.949 . S
C698 C706 1.574 . S
C698 C714 1.368 . S
H699 C707 0.950 . S
H700 C705 0.950 . S
H701 C706 0.949 . S
H702 C708 0.950 . S
H703 C709 0.950 . S
H704 C710 0.949 . S
C705 H700 0.950 . S
C705 C707 1.327 . S
C705 C711 1.429 . S
C706 C698 1.574 . S
C706 H701 0.949 . S
C706 C712 1.368 . S
C707 C691 1.349 . S
C707 H699 0.950 . S
C707 C705 1.327 . S
C708 C696 1.349 . S
C708 H702 0.950 . S
C708 C709 1.327 . S
C709 H703 0.950 . S
C709 C708 1.327 . S
C709 C713 1.429 . S
C710 C693 1.574 . S
C710 H704 0.949 . S
C710 C714 1.368 . S
C711 C692 1.429 . S
C711 C705 1.429 . S
C711 C712 1.523 . S
C712 C693 1.368 . S
C712 C706 1.368 . S
C712 C711 1.523 . S
C713 C697 1.429 . S
C713 C709 1.429 . S
C713 C714 1.523 . S
C714 C698 1.368 . S
C714 C710 1.368 . S
C714 C713 1.523 . S
H715 C690 0.950 . S
H716 C692 0.950 . S
H717 C693 0.949 . S
H718 C695 0.950 . S
H719 C697 0.950 . S
C720 C721 1.349 . S
C720 C722 1.327 . S
C720 H745 0.950 . S
C721 C720 1.349 . S
C721 C737 1.349 1_455 S
C722 C720 1.327 . S
C722 C741 1.429 . S
C722 H746 0.950 . S
C723 C740 1.574 1_655 S
C723 C742 1.368 1_655 S
C723 H747 0.949 . S
H724 C728 0.949 . S
C725 C726 1.358 . S
C725 C727 1.306 1_556 S
C725 H748 0.962 1_455 S
C726 C725 1.358 . S
C726 C738 1.349 1_556 S
C727 C725 1.306 1_554 S
C727 C743 1.429 . S
C727 H749 0.950 1_455 S
C728 H724 0.949 . S
C728 C736 1.574 . S
C728 C744 1.368 . S
H729 C737 0.950 . S
H730 C735 0.950 . S
H731 C736 0.949 . S
H732 C738 0.950 1_556 S
H733 C739 0.950 . S
H734 C740 0.931 1_655 S
C735 H730 0.950 . S
C735 C737 1.327 . S
C735 C741 1.429 1_655 S
C736 C728 1.574 . S
C736 H731 0.949 . S
C736 C742 1.368 . S
C737 C721 1.349 1_655 S
C737 H729 0.950 . S
C737 C735 1.327 . S
C738 C726 1.349 1_554 S
C738 H732 0.950 1_554 S
C738 C739 1.327 . S
C739 H733 0.950 . S
C739 C738 1.327 . S
C739 C743 1.429 . S
C740 C723 1.574 1_455 S
C740 H734 0.931 1_455 S
C740 C744 1.390 . S
C741 C722 1.429 . S
C741 C735 1.429 1_455 S
C741 C742 1.523 . S
C742 C723 1.368 1_455 S
C742 C736 1.368 . S
C742 C741 1.523 . S
C743 C727 1.429 . S
C743 C739 1.429 . S
C743 C744 1.523 . S
C744 C728 1.368 . S
C744 C740 1.390 . S
C744 C743 1.523 . S
H745 C720 0.950 . S
H746 C722 0.950 . S
H747 C723 0.949 . S
H748 C725 0.962 1_655 S
H749 C727 0.950 1_655 S
C750 C751 1.349 . S
C750 C752 1.327 . S
C750 H775 0.950 . S
C751 C750 1.349 . S
C751 C767 1.349 1_545 S
C752 C750 1.327 . S
C752 C771 1.429 . S
C752 H776 0.950 . S
C753 C770 1.574 . S
C753 C772 1.368 1_565 S
C753 H777 0.949 . S
H754 C758 0.949 . S
C755 C756 1.349 1_565 S
C755 C757 1.327 . S
C755 H778 0.950 . S
C756 C755 1.349 1_545 S
C756 C768 1.349 . S
C757 C755 1.327 . S
C757 C773 1.429 1_565 S
C757 H779 0.950 . S
C758 H754 0.949 . S
C758 C766 1.574 . S
C758 C774 1.368 . S
H759 C767 0.950 . S
H760 C765 0.950 . S
H761 C766 0.949 . S
H762 C768 0.950 . S
H763 C769 0.950 . S
H764 C770 0.949 . S
C765 H760 0.950 . S
C765 C767 1.327 . S
C765 C771 1.429 1_565 S
C766 C758 1.574 . S
C766 H761 0.949 . S
C766 C772 1.368 . S
C767 C751 1.349 1_565 S
C767 H759 0.950 . S
C767 C765 1.327 . S
C768 C756 1.349 . S
C768 H762 0.950 . S
C768 C769 1.327 . S
C769 H763 0.950 . S
C769 C768 1.327 . S
C769 C773 1.429 . S
C770 C753 1.574 . S
C770 H764 0.949 . S
C770 C774 1.368 1_565 S
C771 C752 1.429 . S
C771 C765 1.429 1_545 S
C771 C772 1.523 . S
C772 C753 1.368 1_545 S
C772 C766 1.368 . S
C772 C771 1.523 . S
C773 C757 1.429 1_545 S
C773 C769 1.429 . S
C773 C774 1.523 . S
C774 C758 1.368 . S
C774 C770 1.368 1_545 S
C774 C773 1.523 . S
H775 C750 0.950 . S
H776 C752 0.950 . S
H777 C753 0.949 . S
H778 C755 0.950 . S
H779 C757 0.950 . S
C780 C781 1.349 . S
C780 C782 1.327 . S
C780 H805 0.950 . S
C781 C780 1.349 . S
C781 C797 1.349 . S
C782 C780 1.327 . S
C782 C801 1.429 . S
C782 H806 0.950 . S
C783 C800 1.574 . S
C783 C802 1.368 . S
C783 H807 0.949 . S
H784 C788 0.949 . S
C785 C786 1.349 . S
C785 C787 1.327 . S
C785 H808 0.950 . S
C786 C785 1.349 . S
C786 C798 1.349 . S
C787 C785 1.327 . S
C787 C803 1.429 . S
C787 H809 0.950 . S
C788 H784 0.949 . S
C788 C796 1.574 . S
C788 C804 1.368 . S
H789 C797 0.950 . S
H790 C795 0.950 . S
H791 C796 0.949 . S
H792 C798 0.950 . S
H793 C799 0.950 . S
H794 C800 0.949 . S
C795 H790 0.950 . S
C795 C797 1.327 . S
C795 C801 1.429 . S
C796 C788 1.574 . S
C796 H791 0.949 . S
C796 C802 1.368 . S
C797 C781 1.349 . S
C797 H789 0.950 . S
C797 C795 1.327 . S
C798 C786 1.349 . S
C798 H792 0.950 . S
C798 C799 1.327 . S
C799 H793 0.950 . S
C799 C798 1.327 . S
C799 C803 1.429 . S
C800 C783 1.574 . S
C800 H794 0.949 . S
C800 C804 1.368 . S
C801 C782 1.429 . S
C801 C795 1.429 . S
C801 C802 1.523 . S
C802 C783 1.368 . S
C802 C796 1.368 . S
C802 C801 1.523 . S
C803 C787 1.429 . S
C803 C799 1.429 . S
C803 C804 1.523 . S
C804 C788 1.368 . S
C804 C800 1.368 . S
C804 C803 1.523 . S
H805 C780 0.950 . S
H806 C782 0.950 . S
H807 C783 0.949 . S
H808 C785 0.950 . S
H809 C787 0.950 . S
C810 C811 1.349 1_565 S
C810 C812 1.327 . S
C810 H835 0.950 . S
C811 C810 1.349 1_545 S
C811 C827 1.349 . S
C812 C810 1.327 . S
C812 C831 1.429 1_565 S
C812 H836 0.950 . S
C813 C830 1.574 . S
C813 C832 1.368 . S
C813 H837 0.949 . S
H814 C818 0.949 . S
C815 C816 1.349 1_545 S
C815 C817 1.327 . S
C815 H838 0.950 . S
C816 C815 1.349 1_565 S
C816 C828 1.349 . S
C817 C815 1.327 . S
C817 C833 1.429 1_545 S
C817 H839 0.950 . S
C818 H814 0.949 . S
C818 C826 1.574 . S
C818 C834 1.363 1_565 S
H819 C827 0.950 . S
H820 C825 0.950 . S
H821 C826 0.949 . S
H822 C828 0.950 . S
H823 C829 0.950 . S
H824 C830 0.949 . S
C825 H820 0.950 . S
C825 C827 1.327 . S
C825 C831 1.429 . S
C826 C818 1.574 . S
C826 H821 0.949 . S
C826 C832 1.368 1_565 S
C827 C811 1.349 . S
C827 H819 0.950 . S
C827 C825 1.327 . S
C828 C816 1.349 . S
C828 H822 0.950 . S
C828 C829 1.327 . S
C829 H823 0.950 . S
C829 C828 1.327 . S
C829 C833 1.429 . S
C830 C813 1.574 . S
C830 H824 0.949 . S
C830 C834 1.374 . S
C831 C812 1.429 1_545 S
C831 C825 1.429 . S
C831 C832 1.523 . S
C832 C813 1.368 . S
C832 C826 1.368 1_545 S
C832 C831 1.523 . S
C833 C817 1.429 1_565 S
C833 C829 1.429 . S
C833 C834 1.522 1_565 S
C834 C818 1.363 1_545 S
C834 C830 1.374 . S
C834 C833 1.522 1_545 S
H835 C810 0.950 . S
H836 C812 0.950 . S
H837 C813 0.949 . S
H838 C815 0.950 . S
H839 C817 0.950 . S
C840 C841 1.349 . S
C840 C842 1.327 . S
C840 H865 0.950 . S
C841 C840 1.349 . S
C841 C857 1.349 . S
C842 C840 1.327 . S
C842 C861 1.429 . S
C842 H866 0.950 . S
C843 C860 1.574 . S
C843 C862 1.368 . S
C843 H867 0.949 . S
H844 C848 0.949 . S
C845 C846 1.349 . S
C845 C847 1.327 1_554 S
C845 H868 0.950 . S
C846 C845 1.349 . S
C846 C858 1.349 1_554 S
C847 C845 1.327 1_556 S
C847 C863 1.429 . S
C847 H869 0.950 . S
C848 H844 0.949 . S
C848 C856 1.574 . S
C848 C864 1.368 . S
H849 C857 0.950 . S
H850 C855 0.950 . S
H851 C856 0.949 . S
H852 C858 0.950 1_554 S
H853 C859 0.950 . S
H854 C860 0.949 . S
C855 H850 0.950 . S
C855 C857 1.327 . S
C855 C861 1.429 . S
C856 C848 1.574 . S
C856 H851 0.949 . S
C856 C862 1.368 . S
C857 C841 1.349 . S
C857 H849 0.950 . S
C857 C855 1.327 . S
C858 C846 1.349 1_556 S
C858 H852 0.950 1_556 S
C858 C859 1.326 . S
C859 H853 0.950 . S
C859 C858 1.326 . S
C859 C863 1.429 . S
C860 C843 1.574 . S
C860 H854 0.949 . S
C860 C864 1.368 . S
C861 C842 1.429 . S
C861 C855 1.429 . S
C861 C862 1.523 . S
C862 C843 1.368 . S
C862 C856 1.368 . S
C862 C861 1.523 . S
C863 C847 1.429 . S
C863 C859 1.429 . S
C863 C864 1.523 . S
C864 C848 1.368 . S
C864 C860 1.368 . S
C864 C863 1.523 . S
H865 C840 0.950 . S
H866 C842 0.950 . S
H867 C843 0.949 . S
H868 C845 0.950 . S
H869 C847 0.950 . S
C870 C871 1.349 . S
C870 C872 1.327 . S
C870 H895 0.950 . S
C871 C870 1.349 . S
C871 C887 1.349 . S
C872 C870 1.327 . S
C872 C891 1.429 . S
C872 H896 0.950 . S
C873 C890 1.574 . S
C873 C892 1.368 . S
C873 H897 0.949 . S
H874 C878 0.949 . S
C875 C876 1.349 . S
C875 C877 1.327 . S
C875 H898 0.950 . S
C876 C875 1.349 . S
C876 C888 1.349 . S
C877 C875 1.327 . S
C877 C893 1.427 1_655 S
C877 H899 0.950 . S
C878 H874 0.949 . S
C878 C886 1.574 . S
C878 C894 1.368 . S
H879 C887 0.950 . S
H880 C885 0.950 . S
H881 C886 0.949 . S
H882 C888 0.950 . S
H883 C889 0.958 . S
H884 C890 0.949 . S
C885 H880 0.950 . S
C885 C887 1.327 . S
C885 C891 1.429 . S
C886 C878 1.574 . S
C886 H881 0.949 . S
C886 C892 1.368 . S
C887 C871 1.349 . S
C887 H879 0.950 . S
C887 C885 1.327 . S
C888 C876 1.349 . S
C888 H882 0.950 . S
C888 C889 1.326 1_655 S
C889 H883 0.958 . S
C889 C888 1.326 1_455 S
C889 C893 1.423 . S
C890 C873 1.574 . S
C890 H884 0.949 . S
C890 C894 1.368 . S
C891 C872 1.429 . S
C891 C885 1.429 . S
C891 C892 1.523 . S
C892 C873 1.368 . S
C892 C886 1.368 . S
C892 C891 1.523 . S
C893 C877 1.427 1_455 S
C893 C889 1.423 . S
C893 C894 1.523 . S
C894 C878 1.368 . S
C894 C890 1.368 . S
C894 C893 1.523 . S
H895 C870 0.950 . S
H896 C872 0.950 . S
H897 C873 0.949 . S
H898 C875 0.950 . S
H899 C877 0.950 . S
C361 C7 0.474 . S
C366 C335 0.472 . S
C391 C51 1.898 . S
C396 C242 1.878 . S
C421 C87 1.148 . S
C426 C282 1.148 . S
C451 C16 0.300 . S
C456 C322 0.248 . S
C486 C255 2.020 . S
C481 C42 2.060 . S
C516 C295 1.302 . S
C511 C96 1.310 . S
C541 C47 1.149 . S
C546 C162 1.143 . S
C571 C91 3.114 . S
C576 C202 3.079 . S
C601 C2 2.087 . S
C606 C135 2.053 . S
C636 C175 1.281 . S
C631 C56 1.283 . S
C666 C215 2.958 . S
C661 C82 2.991 . S
C691 C11 1.889 . S
C696 C122 1.871 . S
C726 C221 1.741 . S
C721 C19 1.697 . S
C751 C50 1.354 . S
C756 C141 1.386 . S
C781 C99 1.469 . S
C786 C181 1.507 . S
C816 C301 1.490 . S
C811 C59 1.457 . S
C846 C341 1.136 . S
C841 C90 1.121 . S
C871 C10 1.351 . S
C876 C261 1.377 . S
