# Generated by pormake.
# Topology bcu-b, (8,8)-cn, num edge types: 1
# Building blocks:
#     Node 0, Type 0, BuildingBlock: VETTIZ_charged_sbu_0, # of connection points: 8
#     Node 1, Type 1, BuildingBlock: TAGTUT_clean_sbu_3, # of connection points: 8
#     Edge 2, Type (0, 1), BuildingBlock: TEMPAE_clean_linker_10, # of connection points: 2
#     Edge 3, Type (0, 1), BuildingBlock: TEMPAE_clean_linker_10, # of connection points: 2
#     Edge 4, Type (0, 1), BuildingBlock: TEMPAE_clean_linker_10, # of connection points: 2
#     Edge 5, Type (0, 1), BuildingBlock: TEMPAE_clean_linker_10, # of connection points: 2
#     Edge 6, Type (0, 1), BuildingBlock: TEMPAE_clean_linker_10, # of connection points: 2
#     Edge 7, Type (0, 1), BuildingBlock: TEMPAE_clean_linker_10, # of connection points: 2
#     Edge 8, Type (0, 1), BuildingBlock: TEMPAE_clean_linker_10, # of connection points: 2
#     Edge 9, Type (0, 1), BuildingBlock: TEMPAE_clean_linker_10, # of connection points: 2
# Relax obj value: 0.020
# Max RMSD: 0.100
# Mean RMSD: 0.073
data_MOF--net-bcu-b--node1-VETTIZ_charged_sbu_0--node2-TAGTUT_clean_sbu_3--edge1-TEMPAE_clean_linker_10
_symmetry_space_group_name_H-M    P1
_symmetry_Int_Tables_number       1
_symmetry_cell_setting            triclinic
loop_
_symmetry_equiv_pos_as_xyz
'x, y, z'
_cell_length_a     19.864273
_cell_length_b     19.728343
_cell_length_c     20.978359
_cell_angle_alpha  90.369412
_cell_angle_beta   89.79322
_cell_angle_gamma 100.12618
loop_
_atom_site_label
_atom_site_type_symbol
_atom_site_fract_x
_atom_site_fract_y
_atom_site_fract_z
_atom_type_partial_charge
Fe0 Fe 0.0248 0.8634 -0.00676 0.0
O1 O 0.03617 0.96368 0.00028 0.0
Fe2 Fe 0.01365 0.01885 0.91987 0.0
Fe3 Fe 0.99008 0.01131 0.06739 0.0
O4 O 0.03762 0.96424 -0.00628 0.0
O5 O 0.96781 0.06706 0.98712 0.0
O6 O 0.96495 0.06569 -0.00631 0.0
Fe7 Fe 0.9791 0.16715 -0.00399 0.0
C8 C 0.89409 0.87696 0.06601 0.0
O9 O 0.08249 0.87705 0.07469 0.0
O10 O 0.02759 0.94887 0.13577 0.0
O11 O 0.06515 0.18568 0.93997 0.0
O12 O 0.10461 0.08709 0.9286 0.0
O13 O 0.06485 0.95823 0.85903 0.0
O14 O 0.1026 0.88323 0.92885 0.0
O15 O 0.07966 0.07904 0.08067 0.0
O16 O 0.04025 0.17727 0.07629 0.0
C17 C 0.1007 0.91097 0.87334 0.0
O18 O 0.92675 0.15733 0.91098 0.0
O19 O 0.98176 0.08394 0.85172 0.0
O20 O 0.94243 0.84481 0.05301 0.0
O21 O 0.89999 0.94176 0.05897 0.0
C22 C 0.0704 0.90599 0.12835 0.0
C23 C 0.08461 0.14229 0.09462 0.0
C24 C 0.89298 0.1106 0.10994 0.0
O25 O 0.93432 0.06914 0.12705 0.0
O26 O 0.89771 0.14552 0.05737 0.0
C27 C 0.11157 0.15231 0.92302 0.0
O28 O 0.92313 0.95209 0.90565 0.0
O29 O 0.95843 0.85158 0.91622 0.0
C30 C 0.94462 0.13194 0.85744 0.0
C31 C 0.91601 0.88766 0.89515 0.0
C32 C 0.62869 0.61639 0.56155 0.0
C33 C 0.69609 0.36898 0.54899 0.0
C34 C 0.59395 0.34892 0.37351 0.0
Mg35 Mg 0.493 0.66647 0.50503 0.0
Mg36 Mg 0.35094 0.55447 0.48907 0.0
O37 O 0.4427 0.57862 0.46612 0.0
Mg38 Mg 0.50469 0.51383 0.49101 0.0
O39 O 0.57224 0.45509 0.51438 0.0
Mg40 Mg 0.65202 0.49529 0.45947 0.0
Mg41 Mg 0.54449 0.3598 0.50824 0.0
C42 C 0.37364 0.41603 0.42116 0.0
O43 O 0.43614 0.46124 0.57408 0.0
O44 O 0.41378 0.72179 0.45235 0.0
O45 O 0.45449 0.35134 0.56745 0.0
O46 O 0.4213 0.66309 0.59131 0.0
O47 O 0.31798 0.64134 0.44593 0.0
O48 O 0.3392 0.57042 0.58861 0.0
O49 O 0.57727 0.55802 0.40991 0.0
O50 O 0.5616 0.66764 0.41776 0.0
C51 C 0.58965 0.62089 0.3914 0.0
C52 C 0.35043 0.70275 0.437 0.0
O53 O 0.43907 0.43181 0.42691 0.0
O54 O 0.71451 0.42572 0.51827 0.0
O55 O 0.33243 0.45236 0.44602 0.0
O56 O 0.6325 0.40664 0.38542 0.0
O57 O 0.63418 0.33717 0.55095 0.0
O58 O 0.54669 0.3231 0.41204 0.0
O59 O 0.5637 0.59992 0.5542 0.0
O60 O 0.66978 0.58262 0.53329 0.0
C61 C 0.36849 0.62587 0.61547 0.0
C62 C 0.42373 0.39761 0.59132 0.0
C63 C 0.17509 0.13382 0.17592 0.0
C64 C 0.13971 0.17453 0.13824 0.0
C65 C 0.22216 0.16383 0.22229 0.0
C66 C 0.23443 0.23619 0.23069 0.0
C67 C 0.20177 0.27765 0.19028 0.0
C68 C 0.15459 0.24632 0.14485 0.0
C69 C 0.25595 0.11787 0.26431 0.0
C70 C 0.21426 0.35514 0.19694 0.0
C71 C 0.27542 0.32629 0.38857 0.0
C72 C 0.34363 0.35793 0.37947 0.0
C73 C 0.24092 0.28156 0.34256 0.0
C74 C 0.27522 0.26891 0.28561 0.0
C75 C 0.34577 0.29604 0.27856 0.0
C76 C 0.37939 0.34008 0.32593 0.0
C77 C 0.16619 0.25223 0.35282 0.0
C78 C 0.3844 0.2834 0.21885 0.0
H79 H 0.16411 0.07824 0.17097 0.0
H80 H 0.12825 0.27816 0.1153 0.0
H81 H 0.31149 0.13803 0.26871 0.0
H82 H 0.23363 0.11703 0.31291 0.0
H83 H 0.24885 0.06417 0.24585 0.0
H84 H 0.18976 0.38018 0.15819 0.0
H85 H 0.19354 0.36971 0.24327 0.0
H86 H 0.26994 0.37579 0.19661 0.0
H87 H 0.24795 0.33899 0.4305 0.0
H88 H 0.43225 0.36424 0.31877 0.0
H89 H 0.15564 0.19645 0.34115 0.0
H90 H 0.13465 0.27814 0.32058 0.0
H91 H 0.14967 0.25943 0.4027 0.0
H92 H 0.37038 0.22912 0.20269 0.0
H93 H 0.44064 0.29563 0.22608 0.0
H94 H 0.37077 0.31654 0.18013 0.0
C95 C 0.77296 0.12583 0.12488 0.0
C96 C 0.83642 0.12167 0.1523 0.0
C97 C 0.72271 0.1524 0.15916 0.0
C98 C 0.73665 0.17626 0.22221 0.0
C99 C 0.7985 0.16689 0.25191 0.0
C100 C 0.84778 0.13925 0.21653 0.0
C101 C 0.65713 0.16003 0.12603 0.0
C102 C 0.81491 0.19108 0.31937 0.0
C103 C 0.66716 0.33317 0.27966 0.0
C104 C 0.61686 0.30444 0.32352 0.0
C105 C 0.70463 0.2916 0.24474 0.0
C106 C 0.69139 0.21934 0.25359 0.0
C107 C 0.63695 0.18946 0.29378 0.0
C108 C 0.60013 0.23238 0.32817 0.0
C109 C 0.76125 0.32555 0.20122 0.0
C110 C 0.6205 0.11262 0.30377 0.0
H111 H 0.76397 0.11152 0.07522 0.0
H112 H 0.89693 0.13629 0.2376 0.0
H113 H 0.61244 0.14405 0.15776 0.0
H114 H 0.65857 0.21494 0.11393 0.0
H115 H 0.64942 0.12918 0.08132 0.0
H116 H 0.86083 0.17282 0.33801 0.0
H117 H 0.82446 0.24821 0.32092 0.0
H118 H 0.77097 0.17282 0.35137 0.0
H119 H 0.68014 0.38869 0.27538 0.0
H120 H 0.56155 0.2095 0.36207 0.0
H121 H 0.75492 0.30224 0.15287 0.0
H122 H 0.81133 0.317 0.21973 0.0
H123 H 0.76261 0.38189 0.19706 0.0
H124 H 0.61942 0.08465 0.25764 0.0
H125 H 0.57057 0.09678 0.32825 0.0
H126 H 0.66098 0.09643 0.33337 0.0
C127 C 0.80342 0.86878 0.14969 0.0
C128 C 0.83472 0.83798 0.10007 0.0
C129 C 0.75906 0.82833 0.19243 0.0
C130 C 0.74531 0.75573 0.18458 0.0
C131 C 0.77272 0.72512 0.13163 0.0
C132 C 0.81736 0.76662 0.09017 0.0
C133 C 0.73041 0.86288 0.24822 0.0
C134 C 0.75808 0.64819 0.12078 0.0
C135 C 0.70116 0.65278 0.33607 0.0
C136 C 0.62982 0.64062 0.33375 0.0
C137 C 0.73971 0.68836 0.28652 0.0
C138 C 0.70561 0.71167 0.2338 0.0
C139 C 0.63351 0.69574 0.22989 0.0
C140 C 0.59641 0.66094 0.28038 0.0
C141 C 0.81661 0.70443 0.29232 0.0
C142 C 0.59536 0.71862 0.17412 0.0
H143 H 0.81716 0.92383 0.15775 0.0
H144 H 0.84121 0.74277 0.05144 0.0
H145 H 0.67417 0.8463 0.25113 0.0
H146 H 0.75243 0.84718 0.2932 0.0
H147 H 0.74198 0.91995 0.24498 0.0
H148 H 0.77705 0.63346 0.07369 0.0
H149 H 0.78315 0.62239 0.15853 0.0
H150 H 0.70234 0.62835 0.12384 0.0
H151 H 0.72651 0.63818 0.37824 0.0
H152 H 0.54095 0.65222 0.27952 0.0
H153 H 0.8336 0.76095 0.29656 0.0
H154 H 0.84088 0.68716 0.24886 0.0
H155 H 0.83535 0.67949 0.33445 0.0
H156 H 0.60022 0.77551 0.17503 0.0
H157 H 0.54013 0.69565 0.17505 0.0
H158 H 0.61771 0.70438 0.12846 0.0
C159 C 0.12072 0.9289 0.23856 0.0
C160 C 0.10878 0.88692 0.18405 0.0
C161 C 0.16166 0.91166 0.28868 0.0
C162 C 0.19083 0.85117 0.28387 0.0
C163 C 0.17799 0.80845 0.2293 0.0
C164 C 0.1372 0.82669 0.1805 0.0
C165 C 0.17414 0.95817 0.34636 0.0
C166 C 0.20728 0.74297 0.22223 0.0
C167 C 0.3441 0.80553 0.36862 0.0
C168 C 0.31191 0.75234 0.40796 0.0
C169 C 0.30514 0.84422 0.33232 0.0
C170 C 0.23272 0.82928 0.336 0.0
C171 C 0.20076 0.78073 0.38087 0.0
C172 C 0.24072 0.74265 0.41603 0.0
C173 C 0.3412 0.89624 0.28561 0.0
C174 C 0.12389 0.76364 0.38716 0.0
H175 H 0.09931 0.97571 0.2415 0.0
H176 H 0.12773 0.7933 0.13907 0.0
H177 H 0.15795 0.92865 0.39027 0.0
H178 H 0.22964 0.97853 0.35098 0.0
H179 H 0.14633 1.00224 0.34361 0.0
H180 H 0.19331 0.71624 0.17614 0.0
H181 H 0.26387 0.75473 0.22552 0.0
H182 H 0.18845 0.70701 0.26142 0.0
H183 H 0.3992 0.81383 0.36291 0.0
H184 H 0.2157 0.70287 0.44789 0.0
H185 H 0.31698 0.94278 0.28463 0.0
H186 H 0.33717 0.87337 0.23701 0.0
H187 H 0.39627 0.9119 0.2973 0.0
H188 H 0.10087 0.81089 0.38547 0.0
H189 H 0.10798 0.736 0.43222 0.0
H190 H 0.1028 0.73012 0.34668 0.0
C191 C 0.11878 0.80288 0.82427 0.0
C192 C 0.13213 0.87503 0.82292 0.0
C193 C 0.15734 0.76412 0.78821 0.0
C194 C 0.20958 0.79833 0.74818 0.0
C195 C 0.22016 0.8712 0.74279 0.0
C196 C 0.18133 0.90916 0.78095 0.0
C197 C 0.14427 0.68668 0.79558 0.0
C198 C 0.27398 0.90896 0.69872 0.0
C199 C 0.35042 0.69642 0.71112 0.0
C200 C 0.32576 0.66293 0.65482 0.0
C201 C 0.31363 0.74198 0.74177 0.0
C202 C 0.25306 0.75659 0.71336 0.0
C203 C 0.22961 0.72453 0.65521 0.0
C204 C 0.26549 0.67701 0.6274 0.0
C205 C 0.33894 0.77371 0.80482 0.0
C206 C 0.16678 0.74055 0.62222 0.0
H207 H 0.07986 0.77662 0.85633 0.0
H208 H 0.19158 0.96497 0.7802 0.0
H209 H 0.13151 0.66127 0.7488 0.0
H210 H 0.19117 0.66961 0.81319 0.0
H211 H 0.10179 0.66841 0.8293 0.0
H212 H 0.26987 0.96416 0.69403 0.0
H213 H 0.32551 0.90578 0.71735 0.0
H214 H 0.26974 0.88466 0.65071 0.0
H215 H 0.39832 0.68709 0.73085 0.0
H216 H 0.24823 0.65334 0.58213 0.0
H217 H 0.29983 0.75783 0.84228 0.0
H218 H 0.34685 0.83066 0.80186 0.0
H219 H 0.38763 0.75821 0.81974 0.0
H220 H 0.12051 0.72031 0.65064 0.0
H221 H 0.16032 0.71764 0.57361 0.0
H222 H 0.16975 0.79708 0.61844 0.0
C223 C 0.19986 0.1569 0.83696 0.0
C224 C 0.16904 0.19032 0.88526 0.0
C225 C 0.24316 0.19483 0.79174 0.0
C226 C 0.25644 0.26779 0.79541 0.0
C227 C 0.2286 0.30147 0.84623 0.0
C228 C 0.18514 0.26238 0.89038 0.0
C229 C 0.27212 0.15696 0.73834 0.0
C230 C 0.24247 0.37898 0.85254 0.0
C231 C 0.41014 0.35775 0.70234 0.0
C232 C 0.37968 0.37652 0.6466 0.0
C233 C 0.37047 0.3246 0.75218 0.0
C234 C 0.29858 0.30881 0.74549 0.0
C235 C 0.26734 0.33 0.69 0.0
C236 C 0.30848 0.36388 0.641 0.0
C237 C 0.40574 0.3039 0.81075 0.0
C238 C 0.19079 0.31406 0.68118 0.0
H239 H 0.18709 0.10136 0.83224 0.0
H240 H 0.16164 0.28855 0.92775 0.0
H241 H 0.25179 0.17115 0.69203 0.0
H242 H 0.32856 0.17222 0.73647 0.0
H243 H 0.25923 0.10015 0.74371 0.0
H244 H 0.22094 0.39689 0.89727 0.0
H245 H 0.29832 0.39872 0.85153 0.0
H246 H 0.2197 0.40202 0.81155 0.0
H247 H 0.46548 0.36696 0.70593 0.0
H248 H 0.28535 0.37739 0.59719 0.0
H249 H 0.39865 0.24694 0.81332 0.0
H250 H 0.3827 0.32214 0.85447 0.0
H251 H 0.46145 0.32484 0.81068 0.0
H252 H 0.17355 0.25745 0.679 0.0
H253 H 0.17428 0.33703 0.63692 0.0
H254 H 0.16469 0.3336 0.72247 0.0
C255 C 0.93421 0.23876 0.80089 0.0
C256 C 0.92741 0.16687 0.79965 0.0
C257 C 0.9104 0.27413 0.75068 0.0
C258 C 0.87813 0.23643 0.6983 0.0
C259 C 0.87673 0.16435 0.69414 0.0
C260 C 0.90189 0.13018 0.74509 0.0
C261 C 0.91347 0.35094 0.75707 0.0
C262 C 0.84316 0.12253 0.63877 0.0
C263 C 0.72216 0.30284 0.64219 0.0
C264 C 0.74567 0.33879 0.58676 0.0
C265 C 0.76466 0.26847 0.67776 0.0
C266 C 0.83277 0.26957 0.65734 0.0
C267 C 0.85737 0.30602 0.6015 0.0
C268 C 0.8134 0.34087 0.56683 0.0
C269 C 0.73656 0.23164 0.7378 0.0
C270 C 0.92956 0.3075 0.57827 0.0
H271 H 0.95596 0.26729 0.84252 0.0
H272 H 0.89766 0.07463 0.74394 0.0
H273 H 0.92811 0.37719 0.71123 0.0
H274 H 0.86212 0.36137 0.77038 0.0
H275 H 0.95039 0.37386 0.79428 0.0
H276 H 0.85801 0.07084 0.63619 0.0
H277 H 0.78677 0.11542 0.6443 0.0
H278 H 0.85668 0.14969 0.59312 0.0
H279 H 0.66995 0.30171 0.65807 0.0
H280 H 0.83128 0.36802 0.52354 0.0
H281 H 0.7663 0.25451 0.77973 0.0
H282 H 0.74152 0.17656 0.73511 0.0
H283 H 0.68188 0.23464 0.74603 0.0
H284 H 0.96662 0.32824 0.61602 0.0
H285 H 0.94123 0.33922 0.53474 0.0
H286 H 0.93744 0.25429 0.56755 0.0
C287 C 0.84447 0.78246 0.84747 0.0
C288 C 0.86031 0.85445 0.85216 0.0
C289 C 0.7976 0.75006 0.8021 0.0
C290 C 0.76587 0.79051 0.75987 0.0
C291 C 0.77897 0.86315 0.76641 0.0
C292 C 0.82585 0.89426 0.8126 0.0
C293 C 0.78489 0.67244 0.79716 0.0
C294 C 0.74642 0.90822 0.72238 0.0
C295 C 0.72763 0.7018 0.60029 0.0
C296 C 0.65861 0.67143 0.6069 0.0
C297 C 0.76179 0.74425 0.64811 0.0
C298 C 0.72629 0.75664 0.70442 0.0
C299 C 0.65531 0.73015 0.70956 0.0
C300 C 0.62212 0.6879 0.6605 0.0
C301 C 0.83718 0.77211 0.63998 0.0
C302 C 0.61543 0.74264 0.76851 0.0
H303 H 0.87012 0.75118 0.87825 0.0
H304 H 0.83758 0.94996 0.8158 0.0
H305 H 0.72918 0.65199 0.7964 0.0
H306 H 0.8068 0.65665 0.75183 0.0
H307 H 0.80819 0.6483 0.83726 0.0
H308 H 0.7547 0.96272 0.73879 0.0
H309 H 0.76863 0.90655 0.67392 0.0
H310 H 0.69065 0.88895 0.71841 0.0
H311 H 0.75593 0.69015 0.55852 0.0
H312 H 0.56876 0.66466 0.66591 0.0
H313 H 0.86691 0.74637 0.67409 0.0
H314 H 0.84823 0.82809 0.65068 0.0
H315 H 0.85554 0.76361 0.59098 0.0
H316 H 0.62992 0.71125 0.80821 0.0
H317 H 0.55935 0.72854 0.76098 0.0
H318 H 0.62776 0.79744 0.78349 0.0
loop_
_geom_bond_atom_site_label_1
_geom_bond_atom_site_label_2
_geom_bond_distance
_geom_bond_site_symmetry_2
_ccdc_geom_bond_type
Fe0 O1 1.895 . S
Fe0 O4 1.705 1_554 S
Fe0 O9 2.086 1_655 S
Fe0 O14 1.928 1_654 S
Fe0 O20 2.086 . S
Fe0 O29 1.928 1_554 S
O1 Fe0 1.895 . S
O1 Fe3 1.715 1_665 S
Fe2 O4 1.886 1_445 S
Fe2 O5 1.715 . S
Fe2 O12 1.935 . S
Fe2 O13 2.077 1_545 S
Fe2 O19 1.935 1_455 S
Fe2 O28 2.077 1_445 S
Fe3 O1 1.715 1_445 S
Fe3 O6 1.886 . S
Fe3 O10 1.935 1_545 S
Fe3 O15 2.077 . S
Fe3 O21 1.935 1_445 S
Fe3 O25 2.077 1_455 S
O4 Fe0 1.705 1_556 S
O4 Fe2 1.886 1_665 S
O5 Fe2 1.715 . S
O5 Fe7 1.890 . S
O6 Fe3 1.886 . S
O6 Fe7 1.711 1_554 S
Fe7 O5 1.890 . S
Fe7 O6 1.711 1_556 S
Fe7 O11 2.081 . S
Fe7 O16 1.932 1_556 S
Fe7 O18 2.081 1_455 S
Fe7 O26 1.932 1_456 S
C8 O20 1.381 . S
C8 O21 1.421 . S
O9 Fe0 2.086 1_455 S
O9 C22 1.381 . S
O10 Fe3 1.935 1_565 S
O10 C22 1.421 . S
O11 Fe7 2.081 . S
O11 C27 1.381 . S
O12 Fe2 1.935 . S
O12 C27 1.421 . S
O13 Fe2 2.077 1_565 S
O13 C17 1.381 . S
O14 Fe0 1.928 1_456 S
O14 C17 1.421 . S
O15 Fe3 2.077 . S
O15 C23 1.381 . S
O16 Fe7 1.932 1_554 S
O16 C23 1.421 . S
C17 O13 1.381 . S
C17 O14 1.421 . S
O18 Fe7 2.081 1_655 S
O18 C30 1.381 . S
O19 Fe2 1.935 1_655 S
O19 C30 1.421 . S
O20 Fe0 2.086 . S
O20 C8 1.381 . S
O21 Fe3 1.935 1_665 S
O21 C8 1.421 . S
C22 O9 1.381 . S
C22 O10 1.421 . S
C23 O15 1.381 . S
C23 O16 1.421 . S
C24 O25 1.381 . S
C24 O26 1.421 . S
O25 Fe3 2.077 1_655 S
O25 C24 1.381 . S
O26 Fe7 1.932 1_654 S
O26 C24 1.421 . S
C27 O11 1.381 . S
C27 O12 1.421 . S
O28 Fe2 2.077 1_665 S
O28 C31 1.381 . S
O29 Fe0 1.928 1_556 S
O29 C31 1.421 . S
C30 O18 1.381 . S
C30 O19 1.421 . S
C31 O28 1.381 . S
C31 O29 1.421 . S
C32 O59 1.312 . S
C32 O60 1.208 . S
C33 O54 1.331 . S
C33 O57 1.244 . S
C34 O56 1.264 . S
C34 O58 1.273 . S
Mg35 O37 1.936 . S
Mg35 O44 2.081 . S
Mg35 O46 2.023 . S
Mg35 O50 2.031 . S
Mg35 O59 2.291 . S
Mg36 O37 1.963 . S
Mg36 O47 1.942 . S
Mg36 O48 1.955 . S
Mg36 O55 1.986 . S
O37 Mg35 1.936 . S
O37 Mg36 1.963 . S
O37 Mg38 1.915 . S
Mg38 O37 1.915 . S
Mg38 O39 1.915 . S
Mg38 O43 2.013 . S
Mg38 O49 2.114 . S
Mg38 O53 2.013 . S
Mg38 O59 2.114 . S
O39 Mg38 1.915 . S
O39 Mg40 1.936 . S
O39 Mg41 1.963 . S
Mg40 O39 1.936 . S
Mg40 O49 2.291 . S
Mg40 O54 2.081 . S
Mg40 O56 2.023 . S
Mg40 O60 2.031 . S
Mg41 O39 1.963 . S
Mg41 O45 1.986 . S
Mg41 O57 1.942 . S
Mg41 O58 1.955 . S
C42 O53 1.191 . S
C42 O55 1.307 . S
O43 Mg38 2.013 . S
O43 C62 1.191 . S
O44 Mg35 2.081 . S
O44 C52 1.331 . S
O45 Mg41 1.986 . S
O45 C62 1.307 . S
O46 Mg35 2.023 . S
O46 C61 1.264 . S
O47 Mg36 1.942 . S
O47 C52 1.244 . S
O48 Mg36 1.955 . S
O48 C61 1.273 . S
O49 Mg38 2.114 . S
O49 Mg40 2.291 . S
O49 C51 1.312 . S
O50 Mg35 2.031 . S
O50 C51 1.208 . S
C51 O49 1.312 . S
C51 O50 1.208 . S
C52 O44 1.331 . S
C52 O47 1.244 . S
O53 Mg38 2.013 . S
O53 C42 1.191 . S
O54 C33 1.331 . S
O54 Mg40 2.081 . S
O55 Mg36 1.986 . S
O55 C42 1.307 . S
O56 C34 1.264 . S
O56 Mg40 2.023 . S
O57 C33 1.244 . S
O57 Mg41 1.942 . S
O58 C34 1.273 . S
O58 Mg41 1.955 . S
O59 C32 1.312 . S
O59 Mg35 2.291 . S
O59 Mg38 2.114 . S
O60 C32 1.208 . S
O60 Mg40 2.031 . S
C61 O46 1.264 . S
C61 O48 1.273 . S
C62 O43 1.191 . S
C62 O45 1.307 . S
C63 C64 1.391 . S
C63 C65 1.394 . S
C63 H79 0.931 . S
C64 C63 1.391 . S
C64 C68 1.376 . S
C65 C63 1.394 . S
C65 C66 1.369 . S
C65 C69 1.531 . S
C66 C65 1.369 . S
C66 C67 1.410 . S
C66 C74 1.503 . S
C67 C66 1.410 . S
C67 C68 1.392 . S
C67 C70 1.511 . S
C68 C64 1.376 . S
C68 C67 1.392 . S
C68 H80 0.929 . S
C69 C65 1.531 . S
C69 H81 0.960 . S
C69 H82 0.962 . S
C69 H83 0.960 . S
C70 C67 1.511 . S
C70 H84 0.961 . S
C70 H85 0.961 . S
C70 H86 0.961 . S
C71 C72 1.370 . S
C71 C73 1.363 . S
C71 H87 0.931 . S
C72 C71 1.370 . S
C72 C76 1.408 . S
C73 C71 1.363 . S
C73 C74 1.370 . S
C73 C77 1.524 . S
C74 C66 1.503 . S
C74 C73 1.370 . S
C74 C75 1.403 . S
C75 C74 1.403 . S
C75 C76 1.404 . S
C75 C78 1.539 . S
C76 C72 1.408 . S
C76 C75 1.404 . S
C76 H88 0.930 . S
C77 C73 1.524 . S
C77 H89 0.956 . S
C77 H90 0.961 . S
C77 H91 0.961 . S
C78 C75 1.539 . S
C78 H92 0.958 . S
C78 H93 0.961 . S
C78 H94 0.960 . S
H79 C63 0.931 . S
H80 C68 0.929 . S
H81 C69 0.960 . S
H82 C69 0.962 . S
H83 C69 0.960 . S
H84 C70 0.961 . S
H85 C70 0.961 . S
H86 C70 0.961 . S
H87 C71 0.931 . S
H88 C76 0.930 . S
H89 C77 0.956 . S
H90 C77 0.961 . S
H91 C77 0.961 . S
H92 C78 0.958 . S
H93 C78 0.961 . S
H94 C78 0.960 . S
C95 C96 1.391 . S
C95 C97 1.394 . S
C95 H111 0.931 . S
C96 C95 1.391 . S
C96 C100 1.376 . S
C97 C95 1.394 . S
C97 C98 1.369 . S
C97 C101 1.531 . S
C98 C97 1.369 . S
C98 C99 1.410 . S
C98 C106 1.503 . S
C99 C98 1.410 . S
C99 C100 1.392 . S
C99 C102 1.511 . S
C100 C96 1.376 . S
C100 C99 1.392 . S
C100 H112 0.929 . S
C101 C97 1.531 . S
C101 H113 0.960 . S
C101 H114 0.962 . S
C101 H115 0.960 . S
C102 C99 1.511 . S
C102 H116 0.961 . S
C102 H117 0.961 . S
C102 H118 0.961 . S
C103 C104 1.370 . S
C103 C105 1.363 . S
C103 H119 0.931 . S
C104 C103 1.370 . S
C104 C108 1.408 . S
C105 C103 1.363 . S
C105 C106 1.370 . S
C105 C109 1.524 . S
C106 C98 1.503 . S
C106 C105 1.370 . S
C106 C107 1.403 . S
C107 C106 1.403 . S
C107 C108 1.404 . S
C107 C110 1.539 . S
C108 C104 1.408 . S
C108 C107 1.404 . S
C108 H120 0.930 . S
C109 C105 1.524 . S
C109 H121 0.956 . S
C109 H122 0.961 . S
C109 H123 0.961 . S
C110 C107 1.539 . S
C110 H124 0.958 . S
C110 H125 0.961 . S
C110 H126 0.960 . S
H111 C95 0.931 . S
H112 C100 0.929 . S
H113 C101 0.960 . S
H114 C101 0.962 . S
H115 C101 0.960 . S
H116 C102 0.961 . S
H117 C102 0.961 . S
H118 C102 0.961 . S
H119 C103 0.931 . S
H120 C108 0.930 . S
H121 C109 0.956 . S
H122 C109 0.961 . S
H123 C109 0.961 . S
H124 C110 0.958 . S
H125 C110 0.961 . S
H126 C110 0.960 . S
C127 C128 1.391 . S
C127 C129 1.394 . S
C127 H143 0.931 . S
C128 C127 1.391 . S
C128 C132 1.376 . S
C129 C127 1.394 . S
C129 C130 1.369 . S
C129 C133 1.531 . S
C130 C129 1.369 . S
C130 C131 1.410 . S
C130 C138 1.503 . S
C131 C130 1.410 . S
C131 C132 1.392 . S
C131 C134 1.511 . S
C132 C128 1.376 . S
C132 C131 1.392 . S
C132 H144 0.929 . S
C133 C129 1.531 . S
C133 H145 0.960 . S
C133 H146 0.962 . S
C133 H147 0.960 . S
C134 C131 1.511 . S
C134 H148 0.961 . S
C134 H149 0.961 . S
C134 H150 0.961 . S
C135 C136 1.370 . S
C135 C137 1.363 . S
C135 H151 0.931 . S
C136 C135 1.370 . S
C136 C140 1.408 . S
C137 C135 1.363 . S
C137 C138 1.370 . S
C137 C141 1.524 . S
C138 C130 1.503 . S
C138 C137 1.370 . S
C138 C139 1.403 . S
C139 C138 1.403 . S
C139 C140 1.404 . S
C139 C142 1.539 . S
C140 C136 1.408 . S
C140 C139 1.404 . S
C140 H152 0.930 . S
C141 C137 1.524 . S
C141 H153 0.956 . S
C141 H154 0.961 . S
C141 H155 0.961 . S
C142 C139 1.539 . S
C142 H156 0.958 . S
C142 H157 0.961 . S
C142 H158 0.960 . S
H143 C127 0.931 . S
H144 C132 0.929 . S
H145 C133 0.960 . S
H146 C133 0.962 . S
H147 C133 0.960 . S
H148 C134 0.961 . S
H149 C134 0.961 . S
H150 C134 0.961 . S
H151 C135 0.931 . S
H152 C140 0.930 . S
H153 C141 0.956 . S
H154 C141 0.961 . S
H155 C141 0.961 . S
H156 C142 0.958 . S
H157 C142 0.961 . S
H158 C142 0.960 . S
C159 C160 1.391 . S
C159 C161 1.394 . S
C159 H175 0.931 . S
C160 C159 1.391 . S
C160 C164 1.376 . S
C161 C159 1.394 . S
C161 C162 1.369 . S
C161 C165 1.531 . S
C162 C161 1.369 . S
C162 C163 1.410 . S
C162 C170 1.503 . S
C163 C162 1.410 . S
C163 C164 1.392 . S
C163 C166 1.511 . S
C164 C160 1.376 . S
C164 C163 1.392 . S
C164 H176 0.929 . S
C165 C161 1.531 . S
C165 H177 0.960 . S
C165 H178 0.962 . S
C165 H179 0.960 . S
C166 C163 1.511 . S
C166 H180 0.961 . S
C166 H181 0.961 . S
C166 H182 0.961 . S
C167 C168 1.370 . S
C167 C169 1.363 . S
C167 H183 0.931 . S
C168 C167 1.370 . S
C168 C172 1.408 . S
C169 C167 1.363 . S
C169 C170 1.370 . S
C169 C173 1.524 . S
C170 C162 1.503 . S
C170 C169 1.370 . S
C170 C171 1.403 . S
C171 C170 1.403 . S
C171 C172 1.404 . S
C171 C174 1.539 . S
C172 C168 1.408 . S
C172 C171 1.404 . S
C172 H184 0.930 . S
C173 C169 1.524 . S
C173 H185 0.956 . S
C173 H186 0.961 . S
C173 H187 0.961 . S
C174 C171 1.539 . S
C174 H188 0.958 . S
C174 H189 0.961 . S
C174 H190 0.960 . S
H175 C159 0.931 . S
H176 C164 0.929 . S
H177 C165 0.960 . S
H178 C165 0.962 . S
H179 C165 0.960 . S
H180 C166 0.961 . S
H181 C166 0.961 . S
H182 C166 0.961 . S
H183 C167 0.931 . S
H184 C172 0.930 . S
H185 C173 0.956 . S
H186 C173 0.961 . S
H187 C173 0.961 . S
H188 C174 0.958 . S
H189 C174 0.961 . S
H190 C174 0.960 . S
C191 C192 1.391 . S
C191 C193 1.394 . S
C191 H207 0.931 . S
C192 C191 1.391 . S
C192 C196 1.376 . S
C193 C191 1.394 . S
C193 C194 1.369 . S
C193 C197 1.531 . S
C194 C193 1.369 . S
C194 C195 1.410 . S
C194 C202 1.503 . S
C195 C194 1.410 . S
C195 C196 1.392 . S
C195 C198 1.511 . S
C196 C192 1.376 . S
C196 C195 1.392 . S
C196 H208 0.929 . S
C197 C193 1.531 . S
C197 H209 0.960 . S
C197 H210 0.962 . S
C197 H211 0.960 . S
C198 C195 1.511 . S
C198 H212 0.961 . S
C198 H213 0.961 . S
C198 H214 0.961 . S
C199 C200 1.370 . S
C199 C201 1.363 . S
C199 H215 0.931 . S
C200 C199 1.370 . S
C200 C204 1.408 . S
C201 C199 1.363 . S
C201 C202 1.370 . S
C201 C205 1.524 . S
C202 C194 1.503 . S
C202 C201 1.370 . S
C202 C203 1.403 . S
C203 C202 1.403 . S
C203 C204 1.404 . S
C203 C206 1.539 . S
C204 C200 1.408 . S
C204 C203 1.404 . S
C204 H216 0.930 . S
C205 C201 1.524 . S
C205 H217 0.956 . S
C205 H218 0.961 . S
C205 H219 0.961 . S
C206 C203 1.539 . S
C206 H220 0.958 . S
C206 H221 0.961 . S
C206 H222 0.960 . S
H207 C191 0.931 . S
H208 C196 0.929 . S
H209 C197 0.960 . S
H210 C197 0.962 . S
H211 C197 0.960 . S
H212 C198 0.961 . S
H213 C198 0.961 . S
H214 C198 0.961 . S
H215 C199 0.931 . S
H216 C204 0.930 . S
H217 C205 0.956 . S
H218 C205 0.961 . S
H219 C205 0.961 . S
H220 C206 0.958 . S
H221 C206 0.961 . S
H222 C206 0.960 . S
C223 C224 1.391 . S
C223 C225 1.394 . S
C223 H239 0.931 . S
C224 C223 1.391 . S
C224 C228 1.376 . S
C225 C223 1.394 . S
C225 C226 1.369 . S
C225 C229 1.531 . S
C226 C225 1.369 . S
C226 C227 1.410 . S
C226 C234 1.503 . S
C227 C226 1.410 . S
C227 C228 1.392 . S
C227 C230 1.511 . S
C228 C224 1.376 . S
C228 C227 1.392 . S
C228 H240 0.929 . S
C229 C225 1.531 . S
C229 H241 0.960 . S
C229 H242 0.962 . S
C229 H243 0.960 . S
C230 C227 1.511 . S
C230 H244 0.961 . S
C230 H245 0.961 . S
C230 H246 0.961 . S
C231 C232 1.370 . S
C231 C233 1.363 . S
C231 H247 0.931 . S
C232 C231 1.370 . S
C232 C236 1.408 . S
C233 C231 1.363 . S
C233 C234 1.370 . S
C233 C237 1.524 . S
C234 C226 1.503 . S
C234 C233 1.370 . S
C234 C235 1.403 . S
C235 C234 1.403 . S
C235 C236 1.404 . S
C235 C238 1.539 . S
C236 C232 1.408 . S
C236 C235 1.404 . S
C236 H248 0.930 . S
C237 C233 1.524 . S
C237 H249 0.956 . S
C237 H250 0.961 . S
C237 H251 0.961 . S
C238 C235 1.539 . S
C238 H252 0.958 . S
C238 H253 0.961 . S
C238 H254 0.960 . S
H239 C223 0.931 . S
H240 C228 0.929 . S
H241 C229 0.960 . S
H242 C229 0.962 . S
H243 C229 0.960 . S
H244 C230 0.961 . S
H245 C230 0.961 . S
H246 C230 0.961 . S
H247 C231 0.931 . S
H248 C236 0.930 . S
H249 C237 0.956 . S
H250 C237 0.961 . S
H251 C237 0.961 . S
H252 C238 0.958 . S
H253 C238 0.961 . S
H254 C238 0.960 . S
C255 C256 1.391 . S
C255 C257 1.394 . S
C255 H271 0.931 . S
C256 C255 1.391 . S
C256 C260 1.376 . S
C257 C255 1.394 . S
C257 C258 1.369 . S
C257 C261 1.531 . S
C258 C257 1.369 . S
C258 C259 1.410 . S
C258 C266 1.503 . S
C259 C258 1.410 . S
C259 C260 1.392 . S
C259 C262 1.511 . S
C260 C256 1.376 . S
C260 C259 1.392 . S
C260 H272 0.929 . S
C261 C257 1.531 . S
C261 H273 0.960 . S
C261 H274 0.962 . S
C261 H275 0.960 . S
C262 C259 1.511 . S
C262 H276 0.961 . S
C262 H277 0.961 . S
C262 H278 0.961 . S
C263 C264 1.370 . S
C263 C265 1.363 . S
C263 H279 0.931 . S
C264 C263 1.370 . S
C264 C268 1.408 . S
C265 C263 1.363 . S
C265 C266 1.370 . S
C265 C269 1.524 . S
C266 C258 1.503 . S
C266 C265 1.370 . S
C266 C267 1.403 . S
C267 C266 1.403 . S
C267 C268 1.404 . S
C267 C270 1.539 . S
C268 C264 1.408 . S
C268 C267 1.404 . S
C268 H280 0.930 . S
C269 C265 1.524 . S
C269 H281 0.956 . S
C269 H282 0.961 . S
C269 H283 0.961 . S
C270 C267 1.539 . S
C270 H284 0.958 . S
C270 H285 0.961 . S
C270 H286 0.960 . S
H271 C255 0.931 . S
H272 C260 0.929 . S
H273 C261 0.960 . S
H274 C261 0.962 . S
H275 C261 0.960 . S
H276 C262 0.961 . S
H277 C262 0.961 . S
H278 C262 0.961 . S
H279 C263 0.931 . S
H280 C268 0.930 . S
H281 C269 0.956 . S
H282 C269 0.961 . S
H283 C269 0.961 . S
H284 C270 0.958 . S
H285 C270 0.961 . S
H286 C270 0.960 . S
C287 C288 1.391 . S
C287 C289 1.394 . S
C287 H303 0.931 . S
C288 C287 1.391 . S
C288 C292 1.376 . S
C289 C287 1.394 . S
C289 C290 1.369 . S
C289 C293 1.531 . S
C290 C289 1.369 . S
C290 C291 1.410 . S
C290 C298 1.503 . S
C291 C290 1.410 . S
C291 C292 1.392 . S
C291 C294 1.511 . S
C292 C288 1.376 . S
C292 C291 1.392 . S
C292 H304 0.929 . S
C293 C289 1.531 . S
C293 H305 0.960 . S
C293 H306 0.962 . S
C293 H307 0.960 . S
C294 C291 1.511 . S
C294 H308 0.961 . S
C294 H309 0.961 . S
C294 H310 0.961 . S
C295 C296 1.370 . S
C295 C297 1.363 . S
C295 H311 0.931 . S
C296 C295 1.370 . S
C296 C300 1.408 . S
C297 C295 1.363 . S
C297 C298 1.370 . S
C297 C301 1.524 . S
C298 C290 1.503 . S
C298 C297 1.370 . S
C298 C299 1.403 . S
C299 C298 1.403 . S
C299 C300 1.404 . S
C299 C302 1.539 . S
C300 C296 1.408 . S
C300 C299 1.404 . S
C300 H312 0.930 . S
C301 C297 1.524 . S
C301 H313 0.956 . S
C301 H314 0.961 . S
C301 H315 0.961 . S
C302 C299 1.539 . S
C302 H316 0.958 . S
C302 H317 0.961 . S
C302 H318 0.960 . S
H303 C287 0.931 . S
H304 C292 0.929 . S
H305 C293 0.960 . S
H306 C293 0.962 . S
H307 C293 0.960 . S
H308 C294 0.961 . S
H309 C294 0.961 . S
H310 C294 0.961 . S
H311 C295 0.931 . S
H312 C300 0.930 . S
H313 C301 0.956 . S
H314 C301 0.961 . S
H315 C301 0.961 . S
H316 C302 0.958 . S
H317 C302 0.961 . S
H318 C302 0.960 . S
C64 C23 1.302 . S
C72 C42 1.326 . S
C96 C24 1.584 . S
C104 C34 1.585 . S
C128 C8 1.395 . S
C136 C51 1.354 . S
C160 C22 1.486 . S
C168 C52 1.521 . S
C192 C17 1.542 . S
C200 C61 1.591 . S
C232 C62 1.336 . S
C224 C27 1.282 . S
C256 C30 1.471 . S
C264 C33 1.521 . S
C296 C32 1.364 . S
C288 C31 1.368 . S
