# Generated by pormake.
# Topology ocu, (6,8)-cn, num edge types: 1
# Building blocks:
#     Node 0, Type 0, BuildingBlock: CUKXOW_clean_sbu_0, # of connection points: 6
#     Node 1, Type 0, BuildingBlock: CUKXOW_clean_sbu_0, # of connection points: 6
#     Node 2, Type 0, BuildingBlock: CUKXOW_clean_sbu_0, # of connection points: 6
#     Node 3, Type 0, BuildingBlock: CUKXOW_clean_sbu_0, # of connection points: 6
#     Node 4, Type 0, BuildingBlock: CUKXOW_clean_sbu_0, # of connection points: 6
#     Node 5, Type 0, BuildingBlock: CUKXOW_clean_sbu_0, # of connection points: 6
#     Node 6, Type 0, BuildingBlock: CUKXOW_clean_sbu_0, # of connection points: 6
#     Node 7, Type 0, BuildingBlock: CUKXOW_clean_sbu_0, # of connection points: 6
#     Node 8, Type 1, BuildingBlock: AJUNOK_clean_sbu_0, # of connection points: 8
#     Node 9, Type 1, BuildingBlock: AJUNOK_clean_sbu_0, # of connection points: 8
#     Node 10, Type 1, BuildingBlock: AJUNOK_clean_sbu_0, # of connection points: 8
#     Node 11, Type 1, BuildingBlock: AJUNOK_clean_sbu_0, # of connection points: 8
#     Node 12, Type 1, BuildingBlock: AJUNOK_clean_sbu_0, # of connection points: 8
#     Node 13, Type 1, BuildingBlock: AJUNOK_clean_sbu_0, # of connection points: 8
#     Edge 14, Type (0, 1), BuildingBlock: XIVTED_clean_linker_0, # of connection points: 2
#     Edge 15, Type (0, 1), BuildingBlock: XIVTED_clean_linker_0, # of connection points: 2
#     Edge 16, Type (0, 1), BuildingBlock: XIVTED_clean_linker_0, # of connection points: 2
#     Edge 17, Type (0, 1), BuildingBlock: XIVTED_clean_linker_0, # of connection points: 2
#     Edge 18, Type (0, 1), BuildingBlock: XIVTED_clean_linker_0, # of connection points: 2
#     Edge 19, Type (0, 1), BuildingBlock: XIVTED_clean_linker_0, # of connection points: 2
#     Edge 20, Type (0, 1), BuildingBlock: XIVTED_clean_linker_0, # of connection points: 2
#     Edge 21, Type (0, 1), BuildingBlock: XIVTED_clean_linker_0, # of connection points: 2
#     Edge 22, Type (0, 1), BuildingBlock: XIVTED_clean_linker_0, # of connection points: 2
#     Edge 23, Type (0, 1), BuildingBlock: XIVTED_clean_linker_0, # of connection points: 2
#     Edge 24, Type (0, 1), BuildingBlock: XIVTED_clean_linker_0, # of connection points: 2
#     Edge 25, Type (0, 1), BuildingBlock: XIVTED_clean_linker_0, # of connection points: 2
#     Edge 26, Type (0, 1), BuildingBlock: XIVTED_clean_linker_0, # of connection points: 2
#     Edge 27, Type (0, 1), BuildingBlock: XIVTED_clean_linker_0, # of connection points: 2
#     Edge 28, Type (0, 1), BuildingBlock: XIVTED_clean_linker_0, # of connection points: 2
#     Edge 29, Type (0, 1), BuildingBlock: XIVTED_clean_linker_0, # of connection points: 2
#     Edge 30, Type (0, 1), BuildingBlock: XIVTED_clean_linker_0, # of connection points: 2
#     Edge 31, Type (0, 1), BuildingBlock: XIVTED_clean_linker_0, # of connection points: 2
#     Edge 32, Type (0, 1), BuildingBlock: XIVTED_clean_linker_0, # of connection points: 2
#     Edge 33, Type (0, 1), BuildingBlock: XIVTED_clean_linker_0, # of connection points: 2
#     Edge 34, Type (0, 1), BuildingBlock: XIVTED_clean_linker_0, # of connection points: 2
#     Edge 35, Type (0, 1), BuildingBlock: XIVTED_clean_linker_0, # of connection points: 2
#     Edge 36, Type (0, 1), BuildingBlock: XIVTED_clean_linker_0, # of connection points: 2
#     Edge 37, Type (0, 1), BuildingBlock: XIVTED_clean_linker_0, # of connection points: 2
#     Edge 38, Type (0, 1), BuildingBlock: XIVTED_clean_linker_0, # of connection points: 2
#     Edge 39, Type (0, 1), BuildingBlock: XIVTED_clean_linker_0, # of connection points: 2
#     Edge 40, Type (0, 1), BuildingBlock: XIVTED_clean_linker_0, # of connection points: 2
#     Edge 41, Type (0, 1), BuildingBlock: XIVTED_clean_linker_0, # of connection points: 2
#     Edge 42, Type (0, 1), BuildingBlock: XIVTED_clean_linker_0, # of connection points: 2
#     Edge 43, Type (0, 1), BuildingBlock: XIVTED_clean_linker_0, # of connection points: 2
#     Edge 44, Type (0, 1), BuildingBlock: XIVTED_clean_linker_0, # of connection points: 2
#     Edge 45, Type (0, 1), BuildingBlock: XIVTED_clean_linker_0, # of connection points: 2
#     Edge 46, Type (0, 1), BuildingBlock: XIVTED_clean_linker_0, # of connection points: 2
#     Edge 47, Type (0, 1), BuildingBlock: XIVTED_clean_linker_0, # of connection points: 2
#     Edge 48, Type (0, 1), BuildingBlock: XIVTED_clean_linker_0, # of connection points: 2
#     Edge 49, Type (0, 1), BuildingBlock: XIVTED_clean_linker_0, # of connection points: 2
#     Edge 50, Type (0, 1), BuildingBlock: XIVTED_clean_linker_0, # of connection points: 2
#     Edge 51, Type (0, 1), BuildingBlock: XIVTED_clean_linker_0, # of connection points: 2
#     Edge 52, Type (0, 1), BuildingBlock: XIVTED_clean_linker_0, # of connection points: 2
#     Edge 53, Type (0, 1), BuildingBlock: XIVTED_clean_linker_0, # of connection points: 2
#     Edge 54, Type (0, 1), BuildingBlock: XIVTED_clean_linker_0, # of connection points: 2
#     Edge 55, Type (0, 1), BuildingBlock: XIVTED_clean_linker_0, # of connection points: 2
#     Edge 56, Type (0, 1), BuildingBlock: XIVTED_clean_linker_0, # of connection points: 2
#     Edge 57, Type (0, 1), BuildingBlock: XIVTED_clean_linker_0, # of connection points: 2
#     Edge 58, Type (0, 1), BuildingBlock: XIVTED_clean_linker_0, # of connection points: 2
#     Edge 59, Type (0, 1), BuildingBlock: XIVTED_clean_linker_0, # of connection points: 2
#     Edge 60, Type (0, 1), BuildingBlock: XIVTED_clean_linker_0, # of connection points: 2
#     Edge 61, Type (0, 1), BuildingBlock: XIVTED_clean_linker_0, # of connection points: 2
# Relax obj value: 0.139
# Max RMSD: 0.206
# Mean RMSD: 0.188
data_MOF--net-ocu--node1-CUKXOW_clean_sbu_0--node2-AJUNOK_clean_sbu_0--edge1-XIVTED_clean_linker_0
_symmetry_space_group_name_H-M    P1
_symmetry_Int_Tables_number       1
_symmetry_cell_setting            triclinic
loop_
_symmetry_equiv_pos_as_xyz
'x, y, z'
_cell_length_a     41.532002
_cell_length_b     42.985379
_cell_length_c     35.387261
_cell_angle_alpha  98.328665
_cell_angle_beta   98.341423
_cell_angle_gamma 97.046803
loop_
_atom_site_label
_atom_site_type_symbol
_atom_site_fract_x
_atom_site_fract_y
_atom_site_fract_z
_atom_type_partial_charge
Tb0 Tb 0.24088 0.20132 0.21768 0.0
C1 C 0.27753 0.26768 0.21194 0.0
Tb2 Tb 0.23857 0.25616 0.27997 0.0
O3 O 0.21073 0.22022 0.17327 0.0
O4 O 0.20506 0.23082 0.23117 0.0
O5 O 0.27864 0.23663 0.20531 0.0
C6 C 0.22412 0.30663 0.32345 0.0
O7 O 0.25947 0.28015 0.23664 0.0
C8 C 0.28227 0.21938 0.29885 0.0
C9 C 0.19915 0.18969 0.28452 0.0
O10 O 0.25332 0.30363 0.3157 0.0
O11 O 0.20355 0.28194 0.30615 0.0
O12 O 0.26844 0.23606 0.32365 0.0
O13 O 0.27446 0.22692 0.26596 0.0
O14 O 0.20505 0.22053 0.29828 0.0
O15 O 0.2108 0.17708 0.25373 0.0
C16 C 0.25314 0.14647 0.18129 0.0
O17 O 0.25849 0.15562 0.21844 0.0
O18 O 0.24103 0.16829 0.16442 0.0
C19 C 0.19718 0.23758 0.19777 0.0
Tb20 Tb 0.72849 0.24166 0.29032 0.0
C21 C 0.69514 0.19357 0.21323 0.0
Tb22 Tb 0.75346 0.24855 0.21446 0.0
O23 O 0.71161 0.28826 0.29159 0.0
O24 O 0.71223 0.25956 0.23928 0.0
O25 O 0.69822 0.20096 0.25156 0.0
C26 C 0.76264 0.26446 0.14648 0.0
O27 O 0.71313 0.20965 0.19222 0.0
C28 C 0.78919 0.21943 0.26173 0.0
C29 C 0.78733 0.29416 0.2913 0.0
O30 O 0.76957 0.23837 0.15826 0.0
O31 O 0.75024 0.28115 0.17282 0.0
O32 O 0.80118 0.23576 0.23757 0.0
O33 O 0.75841 0.21786 0.25597 0.0
O34 O 0.77781 0.29186 0.25342 0.0
O35 O 0.7745 0.27356 0.31153 0.0
C36 C 0.7091 0.22126 0.3521 0.0
O37 O 0.69156 0.23458 0.32745 0.0
O38 O 0.73778 0.2195 0.34209 0.0
C39 C 0.70695 0.2864 0.2542 0.0
Tb40 Tb 0.7358 0.75085 0.20022 0.0
C41 C 0.70087 0.67897 0.18522 0.0
Tb42 Tb 0.74306 0.7073 0.26709 0.0
O43 O 0.77605 0.73424 0.17132 0.0
O44 O 0.76388 0.71714 0.21886 0.0
O45 O 0.70106 0.70792 0.17599 0.0
C46 C 0.7667 0.67261 0.31768 0.0
O47 O 0.71862 0.67279 0.21697 0.0
C48 C 0.697 0.74469 0.27433 0.0
C49 C 0.77681 0.77939 0.2828 0.0
O50 O 0.73673 0.66753 0.29887 0.0
O51 O 0.7835 0.69626 0.30679 0.0
O52 O 0.70436 0.72483 0.29749 0.0
O53 O 0.71457 0.74093 0.24847 0.0
O54 O 0.77749 0.75034 0.29145 0.0
O55 O 0.7591 0.7855 0.2509 0.0
C56 C 0.71139 0.78411 0.14821 0.0
O57 O 0.74124 0.79018 0.16744 0.0
O58 O 0.69516 0.76038 0.15955 0.0
C59 C 0.78279 0.71422 0.19448 0.0
Tb60 Tb 0.2441 0.74931 0.20916 0.0
C61 C 0.2883 0.77747 0.29202 0.0
Tb62 Tb 0.22685 0.72448 0.28172 0.0
O63 O 0.19757 0.76927 0.20241 0.0
O64 O 0.22182 0.76548 0.25676 0.0
O65 O 0.2841 0.77556 0.2537 0.0
C66 C 0.19844 0.71919 0.3434 0.0
O67 O 0.26854 0.76017 0.30996 0.0
C68 C 0.25861 0.68789 0.23925 0.0
C69 C 0.1859 0.6945 0.19912 0.0
O70 O 0.22716 0.71116 0.33931 0.0
O71 O 0.18609 0.72983 0.31286 0.0
O72 O 0.23903 0.67734 0.26157 0.0
O73 O 0.26215 0.71781 0.24495 0.0
O74 O 0.18523 0.70258 0.23666 0.0
O75 O 0.20962 0.7071 0.18218 0.0
C76 C 0.27613 0.77011 0.15565 0.0
O77 O 0.26151 0.78715 0.17924 0.0
O78 O 0.27193 0.74081 0.16139 0.0
C79 C 0.19614 0.77292 0.23921 0.0
Tb80 Tb 0.22714 0.73391 0.7883 0.0
C81 C 0.19514 0.69167 0.70887 0.0
Tb82 Tb 0.25152 0.75039 0.71569 0.0
O83 O 0.17891 0.74647 0.7675 0.0
O84 O 0.22153 0.76979 0.75346 0.0
O85 O 0.20221 0.69265 0.74686 0.0
C86 C 0.25913 0.77163 0.64982 0.0
O87 O 0.20909 0.7136 0.69095 0.0
C88 C 0.28778 0.71685 0.75601 0.0
C89 C 0.28447 0.79192 0.79535 0.0
O90 O 0.2712 0.74744 0.66123 0.0
O91 O 0.24253 0.78342 0.6753 0.0
O92 O 0.29961 0.7369 0.73556 0.0
O93 O 0.25689 0.71445 0.75031 0.0
O94 O 0.27768 0.79099 0.75735 0.0
O95 O 0.26988 0.7703 0.8132 0.0
C96 C 0.21701 0.71399 0.85428 0.0
O97 O 0.20554 0.73786 0.84131 0.0
O98 O 0.23475 0.70176 0.83036 0.0
C99 C 0.19059 0.76689 0.7475 0.0
Tb100 Tb 0.23461 0.24605 0.70904 0.0
C101 C 0.19058 0.1812 0.69893 0.0
Tb102 Tb 0.24666 0.20671 0.77055 0.0
O103 O 0.25061 0.21166 0.66734 0.0
O104 O 0.27214 0.21836 0.72559 0.0
O105 O 0.19077 0.21083 0.69246 0.0
C106 C 0.26556 0.16528 0.81533 0.0
O107 O 0.21261 0.17354 0.72576 0.0
C108 C 0.21076 0.2514 0.78733 0.0
C109 C 0.28994 0.27285 0.78207 0.0
O110 O 0.23822 0.17706 0.8147 0.0
O111 O 0.28135 0.17595 0.78975 0.0
O112 O 0.23035 0.24068 0.81266 0.0
O113 O 0.20932 0.23488 0.75433 0.0
O114 O 0.28727 0.24452 0.79261 0.0
O115 O 0.27126 0.27902 0.75119 0.0
C116 C 0.22303 0.2895 0.66418 0.0
O117 O 0.23442 0.26347 0.65408 0.0
O118 O 0.21768 0.29109 0.69956 0.0
C119 C 0.2707 0.20168 0.69272 0.0
Tb120 Tb 0.74771 0.25054 0.70795 0.0
C121 C 0.78769 0.27537 0.79425 0.0
Tb122 Tb 0.72315 0.22455 0.77993 0.0
O123 O 0.708 0.28025 0.70426 0.0
O124 O 0.72622 0.26712 0.75636 0.0
O125 O 0.78623 0.27394 0.75613 0.0
C126 C 0.68493 0.21665 0.8329 0.0
O127 O 0.76448 0.26027 0.81022 0.0
C128 C 0.75878 0.18624 0.74398 0.0
C129 C 0.68701 0.19721 0.69354 0.0
O130 O 0.71584 0.21302 0.83663 0.0
O131 O 0.67582 0.22494 0.79957 0.0
O132 O 0.74714 0.18083 0.77504 0.0
O133 O 0.74971 0.21169 0.73654 0.0
O134 O 0.68413 0.20457 0.73067 0.0
O135 O 0.71293 0.20887 0.67915 0.0
C136 C 0.7868 0.26488 0.65751 0.0
O137 O 0.75609 0.26893 0.65487 0.0
O138 O 0.79522 0.2528 0.6883 0.0
C139 C 0.70388 0.28012 0.74 0.0
Tb140 Tb 0.74418 0.70202 0.72398 0.0
C141 C 0.78195 0.77027 0.72109 0.0
Tb142 Tb 0.73989 0.76044 0.78797 0.0
O143 O 0.69974 0.70713 0.68315 0.0
O144 O 0.71521 0.73697 0.73443 0.0
O145 O 0.7799 0.73892 0.71083 0.0
C146 C 0.71817 0.81062 0.82253 0.0
O147 O 0.76679 0.78374 0.74853 0.0
C148 C 0.78103 0.72189 0.80835 0.0
C149 C 0.70146 0.69237 0.79004 0.0
O150 O 0.74878 0.80585 0.82805 0.0
O151 O 0.70046 0.78739 0.79789 0.0
O152 O 0.76794 0.73999 0.83284 0.0
O153 O 0.77395 0.72895 0.77498 0.0
O154 O 0.70412 0.72362 0.80107 0.0
O155 O 0.71683 0.67895 0.76293 0.0
C156 C 0.76231 0.65162 0.68496 0.0
O157 O 0.76047 0.65549 0.72166 0.0
O158 O 0.75433 0.6762 0.67049 0.0
C159 C 0.694 0.7324 0.70454 0.0
Cd160 Cd 0.9557 0.95629 0.5481 0.0
Cd161 Cd 0.00648 0.00597 0.43973 0.0
C162 C 0.01663 0.94014 0.60609 0.0
N163 N -0.00012 0.93008 0.56946 0.0
C164 C 0.02946 0.88569 0.56213 0.0
C165 C 0.04707 0.89554 0.59992 0.0
C166 C 0.04072 0.92344 0.62171 0.0
C167 C 0.00595 0.9035 0.54732 0.0
H168 H 0.01067 0.96074 0.62363 0.0
H169 H -0.00819 0.89561 0.5186 0.0
C170 C 0.94111 0.95279 0.44179 0.0
C171 C 0.94533 0.02868 0.38841 0.0
C172 C 0.92359 0.04883 0.37579 0.0
C173 C 0.92424 0.07884 0.39793 0.0
C174 C 0.94624 0.08743 0.43311 0.0
C175 C 0.96719 0.06628 0.44498 0.0
N176 N 0.96652 0.03767 0.42248 0.0
H177 H 0.94596 0.00625 0.37041 0.0
H178 H 0.9847 0.07304 0.4716 0.0
C179 C 0.01384 0.94403 0.37961 0.0
N180 N 0.02854 0.96124 0.4145 0.0
C181 C 0.07377 0.93166 0.41515 0.0
C182 C 0.05955 0.91386 0.37864 0.0
C183 C 0.02879 0.91998 0.36131 0.0
C184 C 0.05778 0.95533 0.4326 0.0
H185 H -0.00904 0.94965 0.36532 0.0
H186 H 0.06929 0.96985 0.45992 0.0
C187 C 0.01939 0.00985 0.54512 0.0
C188 C 0.91443 0.91267 0.58018 0.0
N189 N 0.92582 -0.00226 0.56728 0.0
C190 C 0.93998 0.0282 0.58206 0.0
C191 C 0.92127 0.05023 0.59784 0.0
C192 C 0.88787 0.04069 0.5989 0.0
C193 C 0.87369 0.00953 0.58203 0.0
C194 C 0.89311 -0.01152 0.56607 0.0
C195 C 0.05402 0.04597 0.41092 0.0
O196 O 0.95181 0.95821 0.47802 0.0
O197 O 0.95653 0.96738 0.41946 0.0
O198 O 0.00832 0.00314 0.50905 0.0
O199 O 0.00456 -0.00406 0.56842 0.0
O200 O 0.91622 0.90726 0.54416 0.0
O201 O 0.93141 0.9379 0.59999 0.0
O202 O 0.05376 0.049 0.44728 0.0
O203 O 0.03265 0.0247 0.38923 0.0
H204 H 0.96594 0.03532 0.5829 0.0
H205 H 0.88229 0.96427 0.55394 0.0
H206 H 0.0336 0.86428 0.54441 0.0
H207 H 0.05327 0.93155 0.65118 0.0
H208 H 0.90742 0.04154 0.34817 0.0
H209 H 0.94747 0.11037 0.45099 0.0
H210 H 0.09766 0.92833 0.42947 0.0
H211 H 0.01653 0.9067 0.33354 0.0
H212 H 0.93317 0.07403 0.61067 0.0
H213 H 0.84792 0.00133 0.58179 0.0
Cd214 Cd 0.48429 0.94538 0.03849 0.0
Cd215 Cd 0.50317 0.03371 0.98121 0.0
C216 C 0.56032 0.93978 0.04205 0.0
N217 N 0.53149 0.93136 0.01701 0.0
C218 C 0.55678 0.89803 0.97366 0.0
C219 C 0.58643 0.90501 0.00012 0.0
C220 C 0.58823 0.92713 0.03397 0.0
C221 C 0.52941 0.91174 0.98269 0.0
H222 H 0.56138 0.95473 0.06954 0.0
H223 H 0.50602 0.90517 0.96353 0.0
C224 C 0.45851 0.96836 0.94387 0.0
C225 C 0.4283 0.03623 0.99288 0.0
C226 C 0.40078 0.05143 0.99554 0.0
C227 C 0.405 0.08384 0.01157 0.0
C228 C 0.43662 0.09855 0.03015 0.0
C229 C 0.46356 0.08256 0.02621 0.0
N230 N 0.45896 0.05259 0.00587 0.0
H231 H 0.4251 0.01246 0.9769 0.0
H232 H 0.4882 0.09516 0.03608 0.0
C233 C 0.53935 -0.00948 0.92581 0.0
N234 N 0.54288 0.00401 0.96357 0.0
C235 C 0.59352 -0.01618 0.97819 0.0
C236 C 0.58941 0.96806 0.93983 0.0
C237 C 0.56231 0.97223 0.9133 0.0
C238 C 0.56968 0.00177 0.98957 0.0
H239 H 0.5187 -0.00599 0.90531 0.0
H240 H 0.57248 0.01376 0.01914 0.0
C241 C 0.52537 0.01091 0.07472 0.0
C242 C 0.45586 0.88752 0.05777 0.0
N243 N 0.44023 0.97054 0.0522 0.0
C244 C 0.44256 -0.012 0.08793 0.0
C245 C 0.41552 0.00074 0.09894 0.0
C246 C 0.38559 -0.00495 0.07316 0.0
C247 C 0.38381 0.97706 0.03633 0.0
C248 C 0.4116 0.96465 0.02654 0.0
C249 C 0.53557 0.09053 0.9626 0.0
O250 O 0.47188 0.96703 0.97818 0.0
O251 O 0.46501 -0.00569 0.93129 0.0
O252 O 0.51183 0.01018 0.03999 0.0
O253 O 0.51963 -0.01407 0.0893 0.0
O254 O 0.45216 0.89233 0.02296 0.0
O255 O 0.4746 0.9087 0.08282 0.0
O256 O 0.54453 0.08107 0.99428 0.0
O257 O 0.51075 0.07412 0.94009 0.0
H258 H 0.46512 -0.00861 0.10842 0.0
H259 H 0.41013 0.9498 -0.00119 0.0
H260 H 0.55426 0.8808 0.94748 0.0
H261 H 0.61019 0.93263 0.05578 0.0
H262 H 0.37709 0.03889 0.98074 0.0
H263 H 0.44097 0.12328 0.0437 0.0
H264 H 0.61427 0.98148 -0.00059 0.0
H265 H 0.55882 0.96144 0.88311 0.0
H266 H 0.418 0.01486 0.12744 0.0
H267 H 0.36108 0.97204 0.01576 0.0
Cd268 Cd 0.96284 0.45036 0.03964 0.0
Cd269 Cd 0.02214 0.50785 0.94745 0.0
C270 C -0.00541 0.41051 0.10455 0.0
N271 N 0.00101 0.42384 0.07332 0.0
C272 C 0.05094 0.40135 0.07358 0.0
C273 C 0.04459 0.38632 0.10508 0.0
C274 C 0.01621 0.39165 0.12105 0.0
C275 C 0.02873 0.41994 0.05806 0.0
H276 H 0.97215 0.41368 0.11585 0.0
H277 H 0.03313 0.43067 0.03309 0.0
C278 C 0.96507 0.44736 0.93766 0.0
C279 C 0.96669 0.52941 0.88618 0.0
C280 C 0.94325 0.54724 0.87139 0.0
C281 C 0.93315 0.57146 0.89621 0.0
C282 C 0.94677 0.57652 0.93584 0.0
C283 C 0.97008 0.55807 0.94939 0.0
N284 N 0.9797 0.53523 0.9245 0.0
H285 H 0.97494 0.51122 0.86695 0.0
H286 H 0.9811 0.56245 0.97967 0.0
C287 C 0.04063 0.457 0.87732 0.0
N288 N 0.04836 0.46843 0.91596 0.0
C289 C 0.08824 0.43312 0.9234 0.0
C290 C 0.08034 0.42009 0.88374 0.0
C291 C 0.05625 0.43262 0.86059 0.0
C292 C 0.07178 0.45712 0.93893 0.0
H293 H 0.02193 0.46643 0.85959 0.0
H294 H 0.07761 0.46677 0.96951 0.0
C295 C 0.02172 0.51089 0.05136 0.0
C296 C 0.90781 0.40204 0.03388 0.0
N297 N 0.93787 0.49105 0.07017 0.0
C298 C 0.93405 0.49297 0.10794 0.0
C299 C 0.91928 0.51763 0.12552 0.0
C300 C 0.90848 0.54063 0.10407 0.0
C301 C 0.91279 0.53783 0.06504 0.0
C302 C 0.92761 0.51283 0.04867 0.0
C303 C 0.0733 0.558 0.9468 0.0
O304 O 0.97142 0.45721 0.97393 0.0
O305 O 0.98082 0.46233 0.91602 0.0
O306 O 0.01544 0.50309 0.01472 0.0
O307 O 0.0062 0.49411 0.0716 0.0
O308 O 0.93547 0.39503 0.02714 0.0
O309 O 0.90574 0.43135 0.04239 0.0
O310 O 0.07779 0.5378 0.96927 0.0
O311 O 0.04572 0.55419 0.9246 0.0
H312 H 0.94257 0.47539 0.12444 0.0
H313 H 0.93096 0.51072 0.01869 0.0
H314 H 0.0727 0.39846 0.06065 0.0
H315 H 0.01008 0.38039 0.14505 0.0
H316 H 0.9332 0.54207 0.8408 0.0
H317 H 0.94025 0.59515 0.95609 0.0
H318 H 0.10713 0.42504 0.94244 0.0
H319 H 0.04899 0.4233 0.83002 0.0
H320 H 0.91685 0.51895 0.15574 0.0
H321 H 0.90446 0.55458 0.04708 0.0
Cd322 Cd 0.45697 0.45876 0.05022 0.0
Cd323 Cd 0.50879 0.50824 0.94281 0.0
C324 C 0.52332 0.42479 0.05558 0.0
N325 N 0.50188 0.43672 0.07741 0.0
C326 C 0.53097 0.42235 0.13419 0.0
C327 C 0.55345 0.4095 0.11251 0.0
C328 C 0.54945 0.41104 0.07264 0.0
C329 C 0.50535 0.43592 0.11601 0.0
H330 H 0.52006 0.42588 0.02493 0.0
H331 H 0.48794 0.44559 0.13267 0.0
C332 C 0.44518 0.45325 0.94364 0.0
C333 C 0.44783 0.52783 0.88758 0.0
C334 C 0.42548 0.54667 0.8729 0.0
C335 C 0.42409 0.57675 0.89374 0.0
C336 C 0.44481 0.5867 0.9297 0.0
C337 C 0.46648 0.56684 0.94361 0.0
N338 N 0.46773 0.53811 0.92238 0.0
H339 H 0.44996 0.50537 0.87061 0.0
H340 H 0.48299 0.5747 0.97085 0.0
C341 C 0.51915 0.44913 0.88067 0.0
N342 N 0.53254 0.46472 0.91683 0.0
C343 C 0.57793 0.43527 0.91751 0.0
C344 C 0.56516 0.41933 0.87964 0.0
C345 C 0.53493 0.42614 0.86164 0.0
C346 C 0.56117 0.45801 0.9356 0.0
H347 H 0.4967 0.45532 0.86599 0.0
H348 H 0.57164 0.4712 0.96404 0.0
C349 C 0.52167 0.51001 0.04714 0.0
C350 C 0.41212 0.41437 0.07749 0.0
N351 N 0.43013 0.50204 0.06866 0.0
C352 C 0.44401 0.52475 0.09956 0.0
C353 C 0.42604 0.54804 0.11376 0.0
C354 C 0.39329 0.54762 0.0964 0.0
C355 C 0.37993 0.52433 0.06391 0.0
C356 C 0.3989 0.50169 0.05044 0.0
C357 C 0.55654 0.54976 0.91693 0.0
O358 O 0.45449 0.45957 0.98012 0.0
O359 O 0.46071 0.46813 0.9217 0.0
O360 O 0.5089 0.50359 0.01155 0.0
O361 O 0.50747 0.49678 0.07145 0.0
O362 O 0.42057 0.40722 0.04445 0.0
O363 O 0.424 0.44173 0.09651 0.0
O364 O 0.55485 0.55261 0.95295 0.0
O365 O 0.53644 0.52797 0.89433 0.0
H366 H 0.46859 0.5241 0.11419 0.0
H367 H 0.38832 0.48308 0.02627 0.0
H368 H 0.53262 0.4213 0.16478 0.0
H369 H 0.56635 0.4018 0.05482 0.0
H370 H 0.41038 0.53831 0.84477 0.0
H371 H 0.44448 0.6097 0.9467 0.0
H372 H 0.60132 0.43125 0.93246 0.0
H373 H 0.52376 0.41422 0.8328 0.0
H374 H 0.43715 0.56524 0.13919 0.0
H375 H 0.35487 0.52325 0.0495 0.0
Cd376 Cd 0.98414 0.44506 0.5232 0.0
Cd377 Cd 0.01283 0.5322 0.4648 0.0
C378 C 0.05855 0.4477 0.50836 0.0
N379 N 0.03098 0.42658 0.50633 0.0
C380 C 0.06171 0.38325 0.50132 0.0
C381 C 0.09099 0.40487 0.50741 0.0
C382 C 0.089 0.43731 0.50901 0.0
C383 C 0.03171 0.39477 0.50113 0.0
H384 H 0.05739 0.47277 0.51243 0.0
H385 H 0.00938 0.37853 0.49988 0.0
C386 C 0.9676 0.46784 0.42914 0.0
C387 C 0.9423 0.54695 0.43824 0.0
C388 C 0.91125 0.55557 0.43814 0.0
C389 C 0.90082 0.5652 0.47333 0.0
C390 C 0.92184 0.56534 0.50822 0.0
C391 C 0.95257 0.55528 0.50696 0.0
N392 N 0.96207 0.54658 0.47219 0.0
H393 H 0.95098 0.54129 0.41109 0.0
H394 H 0.96907 0.55514 0.53354 0.0
C395 C 0.04871 0.48191 0.41296 0.0
N396 N 0.05425 0.50508 0.44466 0.0
C397 C 0.1104 0.49688 0.45874 0.0
C398 C 0.10434 0.47116 0.42819 0.0
C399 C 0.07343 0.46433 0.40446 0.0
C400 C 0.08464 0.5135 0.46674 0.0
H401 H 0.0251 0.47635 0.39449 0.0
H402 H 0.08849 0.53231 0.49151 0.0
C403 C 0.02769 0.51032 0.56073 0.0
C404 C 0.94859 0.38864 0.53842 0.0
N405 N 0.94407 0.47431 0.53978 0.0
C406 C 0.94501 0.48502 0.57798 0.0
C407 C 0.91927 0.4993 0.59032 0.0
C408 C 0.89191 0.5019 0.56318 0.0
C409 C 0.89165 0.49074 0.52379 0.0
C410 C 0.91818 0.4768 0.51266 0.0
C411 C 0.04596 0.59257 0.45913 0.0
O412 O 0.97997 0.46829 0.46418 0.0
O413 O 0.97602 0.49205 0.41414 0.0
O414 O 0.01672 0.51019 0.52526 0.0
O415 O 0.0201 0.48512 0.5744 0.0
O416 O 0.94195 0.3983 0.50632 0.0
O417 O 0.97281 0.40438 0.56256 0.0
O418 O 0.05092 0.58078 0.48992 0.0
O419 O 0.02477 0.57666 0.43135 0.0
H420 H 0.96533 0.48166 0.59905 0.0
H421 H 0.91764 0.46709 0.48261 0.0
H422 H 0.06213 0.35803 0.50049 0.0
H423 H 0.11101 0.45464 0.51363 0.0
H424 H 0.89618 0.55636 0.41068 0.0
H425 H 0.91477 0.57344 0.53584 0.0
H426 H 0.13404 0.50271 0.47759 0.0
H427 H 0.06821 0.44499 0.38012 0.0
H428 H 0.92078 0.50809 0.62089 0.0
H429 H 0.87094 0.4921 0.50197 0.0
Cd430 Cd 0.46827 0.9514 0.54192 0.0
Cd431 Cd 0.52529 0.01043 0.44587 0.0
C432 C 0.53819 0.928 0.5739 0.0
N433 N 0.50505 0.91865 0.56656 0.0
C434 C 0.51186 0.86985 0.58985 0.0
C435 C 0.54615 0.87898 0.59827 0.0
C436 C 0.55925 0.90851 0.58994 0.0
C437 C 0.49175 0.89009 0.57397 0.0
H438 H 0.54837 0.9506 0.56741 0.0
H439 H 0.4654 0.88302 0.56779 0.0
C440 C 0.46489 0.95072 0.43766 0.0
C441 C 0.4929 0.05178 0.38308 0.0
C442 C 0.47035 0.0699 0.36677 0.0
C443 C 0.44051 0.07192 0.38082 0.0
C444 C 0.4338 0.05444 0.4102 0.0
C445 C 0.45701 0.03677 0.42568 0.0
N446 N 0.48601 0.03601 0.41229 0.0
H447 H 0.51636 0.05114 0.37331 0.0
H448 H 0.45225 0.02422 0.44914 0.0
C449 C 0.55137 0.94378 0.42704 0.0
N450 N 0.55094 0.97137 0.41262 0.0
C451 C 0.58026 0.95194 0.36261 0.0
C452 C 0.58158 0.92326 0.37726 0.0
C453 C 0.56628 0.91932 0.40963 0.0
C454 C 0.56457 0.97568 0.38066 0.0
H455 H 0.54004 0.94078 0.4522 0.0
H456 H 0.5637 -0.00224 0.36949 0.0
C457 C 0.52599 0.01167 0.54826 0.0
C458 C 0.40852 0.91324 0.54614 0.0
N459 N 0.44606 -0.00438 0.5683 0.0
C460 C 0.44684 0.00189 0.60726 0.0
C461 C 0.4306 0.0259 0.62337 0.0
C462 C 0.41335 0.04367 0.59916 0.0
C463 C 0.41413 0.0374 0.55913 0.0
C464 C 0.43059 0.01309 0.54425 0.0
C465 C 0.57652 0.06282 0.45466 0.0
O466 O 0.47291 0.95719 0.47429 0.0
O467 O 0.47991 0.9676 0.41711 0.0
O468 O 0.519 0.00189 0.51197 0.0
O469 O 0.51137 -0.00376 0.57047 0.0
O470 O 0.4184 0.91368 0.51387 0.0
O471 O 0.42654 0.93005 0.57592 0.0
O472 O 0.58094 0.03454 0.4431 0.0
O473 O 0.54848 0.06666 0.46331 0.0
H474 H 0.45923 -0.01248 0.62571 0.0
H475 H 0.43036 0.00759 0.51339 0.0
H476 H 0.50055 0.84751 0.59608 0.0
H477 H 0.58554 0.91635 0.59536 0.0
H478 H 0.47683 0.08316 0.3445 0.0
H479 H 0.41099 0.05473 0.42158 0.0
H480 H 0.5918 0.95636 0.338 0.0
H481 H 0.56564 0.89748 0.42152 0.0
H482 H 0.43047 0.02956 0.65426 0.0
H483 H 0.40174 0.05082 0.53936 0.0
H484 H 0.17898 0.20412 0.35471 0.0
H485 H 0.06772 0.03591 0.3376 0.0
H486 H 0.17266 0.12703 0.25977 0.0
H487 H 0.09345 0.10239 0.44473 0.0
H488 H 0.1039 0.07038 0.30773 0.0
H489 H 0.14543 0.16885 0.38698 0.0
C490 C 0.1705 0.17982 0.34054 0.0
C491 C 0.1786 0.16861 0.30429 0.0
C492 C 0.10182 0.07743 0.33782 0.0
C493 C 0.14011 0.12811 0.34124 0.0
C494 C 0.08108 0.05777 0.35493 0.0
C495 C 0.07747 0.06631 0.39375 0.0
C496 C 0.11892 0.10617 0.35943 0.0
C497 C 0.09555 0.09487 0.41475 0.0
C498 C 0.15147 0.15966 0.35914 0.0
C499 C 0.16706 0.13679 0.28761 0.0
N500 N 0.11533 0.11393 0.39723 0.0
N501 N 0.1483 0.11777 0.3061 0.0
H502 H 0.76532 0.17029 0.2959 0.0
H503 H 0.94283 0.14151 0.39443 0.0
H504 H 0.85566 0.22606 0.2835 0.0
H505 H 0.85858 0.06791 0.36706 0.0
H506 H 0.90929 0.17766 0.36513 0.0
H507 H 0.79746 0.13734 0.33324 0.0
C508 C 0.79191 0.17574 0.30136 0.0
C509 C 0.80796 0.20074 0.28645 0.0
C510 C 0.89812 0.15366 0.36577 0.0
C511 C 0.84473 0.16341 0.32917 0.0
C512 C 0.91715 0.1331 0.38272 0.0
C513 C 0.90346 0.10164 0.38307 0.0
C514 C 0.86503 0.14283 0.34952 0.0
C515 C 0.87015 0.09189 0.36707 0.0
C516 C 0.81021 0.15688 0.32248 0.0
C517 C 0.84242 0.20682 0.29428 0.0
N518 N 0.85204 0.11241 0.35098 0.0
N519 N 0.85968 0.1883 0.31513 0.0
H520 H 0.8127 0.77791 0.35379 0.0
H521 H 0.8981 0.95693 0.37831 0.0
H522 H 0.78627 0.84229 0.27527 0.0
H523 H 0.91649 0.89801 0.46561 0.0
H524 H 0.85346 0.91643 0.34337 0.0
H525 H 0.84761 0.8222 0.39763 0.0
C526 C 0.81411 0.80135 0.34575 0.0
C527 C 0.79682 0.80627 0.31044 0.0
C528 C 0.86687 0.9124 0.37041 0.0
C529 C 0.83671 0.85708 0.36072 0.0
C530 C 0.89237 0.93552 0.39036 0.0
C531 C 0.91105 0.93057 0.42468 0.0
C532 C 0.86032 0.8838 0.38448 0.0
C533 C 0.90249 0.90266 0.43929 0.0
C534 C 0.83396 0.82666 0.37097 0.0
C535 C 0.79935 0.83726 0.30193 0.0
N536 N 0.87798 0.87999 0.41872 0.0
N537 N 0.81916 0.86141 0.32674 0.0
H538 H 0.14169 0.79558 0.20606 0.0
H539 H 0.09941 0.87384 0.40952 0.0
H540 H 0.19924 0.79209 0.31666 0.0
H541 H 0.06074 0.89994 0.30035 0.0
H542 H 0.13074 0.83778 0.37535 0.0
H543 H 0.10619 0.82792 0.23958 0.0
C544 C 0.14663 0.80135 0.23737 0.0
C545 C 0.17323 0.7909 0.25863 0.0
C546 C 0.11528 0.85134 0.35889 0.0
C547 C 0.13286 0.82772 0.29711 0.0
C548 C 0.09746 0.8721 0.37842 0.0
C549 C 0.07738 0.89026 0.35799 0.0
C550 C 0.11295 0.84841 0.31849 0.0
C551 C 0.07544 0.88624 0.31747 0.0
C552 C 0.12645 0.81983 0.25647 0.0
C553 C 0.17868 0.79919 0.29915 0.0
N554 N 0.093 0.86585 0.29913 0.0
N555 N 0.15869 0.81704 0.31704 0.0
H556 H 0.12569 0.75149 0.71652 0.0
H557 H 0.10917 0.91553 0.64131 0.0
H558 H 0.2097 0.8228 0.72266 0.0
H559 H 0.03796 0.83129 0.59959 0.0
H560 H 0.14543 0.88352 0.67469 0.0
H561 H 0.09192 0.78182 0.67726 0.0
C562 C 0.13701 0.77354 0.7095 0.0
C563 C 0.17048 0.78469 0.72277 0.0
C564 C 0.122 0.872 0.65795 0.0
C565 C 0.13198 0.81969 0.67823 0.0
C566 C 0.10126 0.89026 0.63901 0.0
C567 C 0.07049 0.87605 0.61763 0.0
C568 C 0.11165 0.83937 0.65614 0.0
C569 C 0.06156 0.84317 0.61547 0.0
C570 C 0.11778 0.79076 0.68697 0.0
C571 C 0.18399 0.81331 0.71276 0.0
N572 N 0.08186 0.82603 0.63481 0.0
N573 N 0.16463 0.83001 0.69138 0.0
H574 H 0.18105 0.11869 0.70631 0.0
H575 H 0.03962 0.06573 0.52067 0.0
H576 H 0.14578 0.18501 0.63506 0.0
H577 H 0.06466 0.00741 0.60683 0.0
H578 H 0.08391 0.10784 0.55568 0.0
H579 H 0.14314 0.07594 0.66425 0.0
C580 C 0.16521 0.12433 0.6819 0.0
C581 C 0.1664 0.15556 0.67443 0.0
C582 C 0.07988 0.08564 0.56655 0.0
C583 C 0.12292 0.10647 0.62579 0.0
C584 C 0.05496 0.06159 0.54639 0.0
C585 C 0.04865 0.0333 0.56109 0.0
C586 C 0.09847 0.08095 0.60125 0.0
C587 C 0.06866 0.02908 0.59481 0.0
C588 C 0.1436 0.09983 0.65776 0.0
C589 C 0.14542 0.16131 0.64211 0.0
N590 N 0.09256 0.05269 0.61382 0.0
N591 N 0.12443 0.13694 0.61893 0.0
H592 H 0.78012 0.19312 0.67533 0.0
H593 H 0.8483 0.02715 0.65132 0.0
H594 H 0.78021 0.13194 0.76158 0.0
H595 H 0.88331 0.10339 0.59391 0.0
H596 H 0.81694 0.06282 0.68624 0.0
H597 H 0.81234 0.1585 0.63974 0.0
C598 C 0.78735 0.17271 0.68706 0.0
C599 C 0.77815 0.16579 0.72187 0.0
C600 C 0.83147 0.07177 0.666 0.0
C601 C 0.81384 0.12545 0.6807 0.0
C602 C 0.84918 0.05136 0.64585 0.0
C603 C 0.86836 0.06229 0.61957 0.0
C604 C 0.83248 0.1033 0.65951 0.0
C605 C 0.86895 0.09406 0.61405 0.0
C606 C 0.80551 0.15283 0.66662 0.0
C607 C 0.78706 0.13829 0.73501 0.0
N608 N 0.85109 0.11342 0.63367 0.0
N609 N 0.80427 0.11907 0.71436 0.0
H610 H 0.80146 0.83466 0.74023 0.0
H611 H 0.88382 0.85141 0.55153 0.0
H612 H 0.80739 0.75392 0.6547 0.0
H613 H 0.89794 0.92484 0.65194 0.0
H614 H 0.85132 0.81619 0.58545 0.0
H615 H 0.83269 0.86899 0.70494 0.0
C616 C 0.80936 0.82408 0.71408 0.0
C617 C 0.80184 0.79126 0.70058 0.0
C618 C 0.86157 0.84004 0.59996 0.0
C619 C 0.83749 0.83064 0.65971 0.0
C620 C 0.87997 0.86015 0.58057 0.0
C621 C 0.8937 0.89106 0.59897 0.0
C622 C 0.8566 0.8511 0.63778 0.0
C623 C 0.888 0.90115 0.63667 0.0
C624 C 0.82725 0.84374 0.69393 0.0
C625 C 0.81278 0.77903 0.6664 0.0
N626 N 0.86988 0.8813 0.65472 0.0
N627 N 0.82993 0.79873 0.64707 0.0
H628 H 0.25175 0.12841 0.10374 0.0
H629 H 0.3637 -0.00465 0.14222 0.0
H630 H 0.27681 0.09911 0.21453 0.0
H631 H 0.3418 0.0246 0.031 0.0
H632 H 0.32258 0.0256 0.16553 0.0
H633 H 0.27557 0.08372 0.07323 0.0
C634 C 0.2618 0.11222 0.12147 0.0
C635 C 0.26286 0.11753 0.16166 0.0
C636 C 0.32646 0.02524 0.13587 0.0
C637 C 0.29004 0.06674 0.12729 0.0
C638 C 0.35002 0.00806 0.12263 0.0
C639 C 0.35683 0.00845 0.08503 0.0
C640 C 0.30985 0.04324 0.11148 0.0
C641 C 0.33769 0.02436 0.06042 0.0
C642 C 0.27536 0.08678 0.10411 0.0
C643 C 0.27592 0.09596 0.18345 0.0
N644 N 0.31545 0.04171 0.0743 0.0
N645 N 0.28934 0.07168 0.16603 0.0
H646 H 0.80552 0.24131 0.10159 0.0
H647 H 0.84449 0.41022 0.0395 0.0
H648 H 0.74739 0.31716 0.11819 0.0
H649 H 0.90773 0.33792 0.03024 0.0
H650 H 0.80142 0.37118 0.05234 0.0
H651 H 0.8352 0.27063 0.05962 0.0
C652 C 0.79842 0.26373 0.0955 0.0
C653 C 0.77449 0.27722 0.11383 0.0
C654 C 0.82452 0.36367 0.04694 0.0
C655 C 0.80843 0.31095 0.06653 0.0
C656 C 0.84914 0.38598 0.03963 0.0
C657 C 0.87996 0.37743 0.0347 0.0
C658 C 0.8309 0.33268 0.04985 0.0
C659 C 0.88445 0.34559 0.03449 0.0
C660 C 0.81545 0.28053 0.07174 0.0
C661 C 0.76609 0.30622 0.10501 0.0
N662 N 0.86038 0.32446 0.04273 0.0
N663 N 0.78341 0.32238 0.08248 0.0
H664 H 0.65726 0.76147 0.09449 0.0
H665 H 0.65359 0.92282 0.01706 0.0
H666 H 0.73727 0.83928 0.12625 0.0
H667 H 0.57902 0.84059 0.97985 0.0
H668 H 0.69164 0.88878 0.04236 0.0
H669 H 0.63462 0.78615 0.0409 0.0
C670 C 0.67005 0.78386 0.0901 0.0
C671 C 0.69867 0.79884 0.11525 0.0
C672 C 0.66728 0.87802 0.02759 0.0
C673 C 0.67289 0.8274 0.05393 0.0
C674 C 0.64562 0.89742 0.01292 0.0
C675 C 0.61267 0.88471 -0.00204 0.0
C676 C 0.65568 0.84586 0.0272 0.0
C677 C 0.60392 0.85161 0.99206 0.0
C678 C 0.65731 0.79782 0.05923 0.0
C679 C 0.71477 0.82735 0.10778 0.0
N680 N 0.62499 0.83344 0.00779 0.0
N681 N 0.70129 0.84109 0.07813 0.0
H682 H 0.14147 0.65489 0.22624 0.0
H683 H 0.04719 0.56217 0.02102 0.0
H684 H 0.17166 0.67605 0.11985 0.0
H685 H 0.0507 0.5233 0.12697 0.0
H686 H 0.08755 0.60788 0.05543 0.0
H687 H 0.10142 0.61107 0.18912 0.0
C688 C 0.13954 0.65053 0.19501 0.0
C689 C 0.1601 0.66921 0.17618 0.0
C690 C 0.07963 0.58914 0.07092 0.0
C691 C 0.11409 0.61877 0.1334 0.0
C692 C 0.05701 0.56291 0.0512 0.0
C693 C 0.04631 0.5385 0.07085 0.0
C694 C 0.09086 0.59121 0.11075 0.0
C695 C 0.05839 0.54144 0.11055 0.0
C696 C 0.11675 0.62532 0.17384 0.0
C697 C 0.15641 0.66219 0.13558 0.0
N698 N 0.07988 0.56731 0.12915 0.0
N699 N 0.13379 0.63752 0.11547 0.0
H700 H 0.31676 0.79638 0.87 0.0
H701 H 0.41747 0.96875 0.8759 0.0
H702 H 0.30985 0.84682 0.77282 0.0
H703 H 0.44348 0.90801 0.95856 0.0
H704 H 0.37497 0.92597 0.84003 0.0
H705 H 0.35972 0.83896 0.90588 0.0
C706 C 0.3241 0.81645 0.85627 0.0
C707 C 0.30963 0.81796 0.81829 0.0
C708 C 0.38997 0.92195 0.86607 0.0
C709 C 0.35878 0.86677 0.85921 0.0
C710 C 0.4143 0.94637 0.88655 0.0
C711 C 0.43382 0.94205 0.92072 0.0
C712 C 0.38492 0.893 0.87991 0.0
C713 C 0.42857 0.9125 0.93295 0.0
C714 C 0.34876 0.84066 0.8767 0.0
C715 C 0.32034 0.84451 0.80194 0.0
N716 N 0.40453 0.88917 0.91278 0.0
N717 N 0.34413 0.86785 0.8225 0.0
H718 H 0.16813 0.27986 0.74002 0.0
H719 H 0.10081 0.37117 0.91863 0.0
H720 H 0.20471 0.27721 0.8598 0.0
H721 H 0.09752 0.40744 0.81069 0.0
H722 H 0.1308 0.32988 0.89332 0.0
H723 H 0.13447 0.32055 0.76136 0.0
C724 C 0.16909 0.2878 0.77067 0.0
C725 C 0.18937 0.27527 0.79817 0.0
C726 C 0.12352 0.34688 0.87514 0.0
C727 C 0.15065 0.32095 0.82263 0.0
C728 C 0.10652 0.37072 0.88969 0.0
C729 C 0.09699 0.39348 0.8672 0.0
C730 C 0.13085 0.34519 0.83748 0.0
C731 C 0.10418 0.39051 0.82921 0.0
C732 C 0.14993 0.31095 0.7828 0.0
C733 C 0.1895 0.2862 0.83755 0.0
N734 N 0.12073 0.36688 0.81557 0.0
N735 N 0.17039 0.30817 0.84852 0.0
H736 H 0.61869 0.21619 0.82259 0.0
H737 H 0.5957 0.12258 -0.00159 0.0
H738 H 0.69948 0.19589 0.90198 0.0
H739 H 0.52019 0.11941 0.89969 0.0
H740 H 0.63138 0.16116 0.97284 0.0
H741 H 0.58016 0.1927 0.86039 0.0
C742 C 0.62832 0.20725 0.84839 0.0
C743 C 0.66221 0.20751 0.85899 0.0
C744 C 0.60684 0.15233 0.95709 0.0
C745 C 0.61841 0.1806 0.90215 0.0
C746 C 0.58641 0.1304 0.97169 0.0
C747 C 0.55511 0.11744 0.9508 0.0
C748 C 0.59577 0.16149 0.92153 0.0
C749 C 0.54429 0.12852 0.91647 0.0
C750 C 0.60633 0.19378 0.86984 0.0
C751 C 0.67346 0.19583 0.89271 0.0
N752 N 0.56471 0.14972 0.90272 0.0
N753 N 0.65155 0.18252 0.91295 0.0
H754 H 0.78863 0.69983 0.87653 0.0
H755 H 0.92717 0.59374 0.82652 0.0
H756 H 0.82054 0.68944 0.76535 0.0
H757 H 0.88424 0.59581 0.93075 0.0
H758 H 0.88875 0.62825 0.8031 0.0
H759 H 0.824 0.66183 0.89647 0.0
C760 C 0.80308 0.68944 0.85623 0.0
C761 C 0.80169 0.69782 0.81925 0.0
C762 C 0.88768 0.62104 0.83102 0.0
C763 C 0.84257 0.6542 0.84199 0.0
C764 C 0.90952 0.60114 0.8444 0.0
C765 C 0.90918 0.59177 0.88087 0.0
C766 C 0.86532 0.63187 0.85426 0.0
C767 C 0.88599 0.60273 0.90283 0.0
C768 C 0.82326 0.66766 0.86762 0.0
C769 C 0.82084 0.68351 0.79409 0.0
N770 N 0.86518 0.62219 0.88927 0.0
N771 N 0.84066 0.6625 0.806 0.0
H772 H 0.16095 0.2728 0.24298 0.0
H773 H 0.07477 0.34355 0.06276 0.0
H774 H 0.18031 0.25202 0.12626 0.0
H775 H 0.06434 0.37767 0.18058 0.0
H776 H 0.11118 0.30781 0.08622 0.0
H777 H 0.12348 0.30937 0.22168 0.0
C778 C 0.15747 0.27604 0.21301 0.0
C779 C 0.17397 0.25953 0.18645 0.0
C780 C 0.10108 0.32316 0.10708 0.0
C781 C 0.13086 0.30079 0.16171 0.0
C782 C 0.08036 0.34382 0.09367 0.0
C783 C 0.06664 0.3641 0.11968 0.0
C784 C 0.1083 0.32242 0.14695 0.0
C785 C 0.07418 0.36244 0.15938 0.0
C786 C 0.136 0.29681 0.20081 0.0
C787 C 0.16815 0.26425 0.14778 0.0
N788 N 0.09454 0.34205 0.17181 0.0
N789 N 0.14714 0.28432 0.13664 0.0
H790 H 0.16941 0.73042 0.89536 0.0
H791 H 0.14037 0.56145 0.96366 0.0
H792 H 0.2343 0.66028 0.87956 0.0
H793 H 0.06371 0.61551 0.92828 0.0
H794 H 0.18159 0.60473 0.95421 0.0
H795 H 0.13815 0.69598 0.93074 0.0
C796 C 0.17762 0.70815 0.90029 0.0
C797 C 0.20402 0.69781 0.88398 0.0
C798 C 0.15574 0.6072 0.94919 0.0
C799 C 0.16834 0.65837 0.92398 0.0
C800 C 0.13232 0.58264 0.95457 0.0
C801 C 0.09871 0.58483 0.94603 0.0
C802 C 0.1453 0.63422 0.93608 0.0
C803 C 0.08941 0.61272 0.93448 0.0
C804 C 0.15968 0.68847 0.92026 0.0
C805 C 0.21377 0.66885 0.89134 0.0
N806 N 0.11258 0.63628 0.9297 0.0
N807 N 0.19557 0.64981 0.91035 0.0
H808 H 0.23793 0.14321 0.87437 0.0
H809 H 0.41515 0.14242 0.99049 0.0
H810 H 0.32904 0.15658 0.82959 0.0
H811 H 0.33683 0.06963 0.00086 0.0
H812 H 0.3765 0.1643 0.94759 0.0
H813 H 0.26822 0.12797 0.93273 0.0
C814 C 0.26411 0.14252 0.87662 0.0
C815 C 0.28112 0.15102 0.84724 0.0
C816 C 0.36766 0.14394 0.96005 0.0
C817 C 0.3155 0.13541 0.91376 0.0
C818 C 0.38962 0.13159 0.98518 0.0
C819 C 0.3796 0.10336 -0.00134 0.0
C820 C 0.33546 0.12813 0.94829 0.0
C821 C 0.34593 0.09073 0.99016 0.0
C822 C 0.28126 0.13416 0.90987 0.0
C823 C 0.31499 0.1501 0.85148 0.0
N824 N 0.32506 0.10276 0.96465 0.0
N825 N 0.33112 0.14285 0.88435 0.0
H826 H 0.79301 0.30163 0.87124 0.0
H827 H 0.96619 0.40704 0.87169 0.0
H828 H 0.84593 0.29832 0.77468 0.0
H829 H 0.90935 0.42352 0.96333 0.0
H830 H 0.92503 0.362 0.84006 0.0
H831 H 0.83808 0.34102 0.9098 0.0
C832 C 0.8142 0.3089 0.85829 0.0
C833 C 0.81555 0.29688 0.81954 0.0
C834 C 0.92156 0.37518 0.86729 0.0
C835 C 0.86696 0.34176 0.86333 0.0
C836 C 0.94507 0.40093 0.88534 0.0
C837 C 0.9412 0.41877 0.92036 0.0
C838 C 0.89366 0.36728 0.8841 0.0
C839 C 0.91349 0.40978 0.93685 0.0
C840 C 0.83981 0.33145 0.88024 0.0
C841 C 0.84356 0.30717 0.80423 0.0
N842 N 0.89056 0.38471 0.91845 0.0
N843 N 0.86799 0.32901 0.82608 0.0
H844 H 0.74716 0.85659 0.88499 0.0
H845 H 0.65711 0.97516 0.95882 0.0
H846 H 0.65686 0.82374 0.80443 0.0
H847 H 0.57326 0.91073 0.89296 0.0
H848 H 0.69339 0.9391 0.93405 0.0
H849 H 0.71964 0.89689 0.91919 0.0
C850 C 0.72174 0.85824 0.87428 0.0
C851 C 0.70413 0.83693 0.84203 0.0
C852 C 0.66708 0.93266 0.92543 0.0
C853 C 0.67271 0.88262 0.88034 0.0
C854 C 0.64635 0.95329 0.9395 0.0
C855 C 0.61214 0.94618 0.9274 0.0
C856 C 0.65324 0.90479 0.8993 0.0
C857 C 0.59948 0.91765 0.90229 0.0
C858 C 0.70604 0.88123 0.8937 0.0
C859 C 0.67128 0.83963 0.82932 0.0
N860 N 0.62001 0.89821 0.88899 0.0
N861 N 0.65667 0.8619 0.84859 0.0
H862 H 0.78713 0.65969 0.22673 0.0
H863 H 0.91646 0.60274 0.09277 0.0
H864 H 0.8284 0.71399 0.14739 0.0
H865 H 0.86531 0.54008 0.15666 0.0
H866 H 0.88886 0.6457 0.11917 0.0
H867 H 0.82024 0.61774 0.20854 0.0
C868 C 0.80351 0.66297 0.20598 0.0
C869 C 0.80504 0.69026 0.18844 0.0
C870 C 0.88366 0.62259 0.12757 0.0
C871 C 0.84268 0.64261 0.16743 0.0
C872 C 0.89932 0.5979 0.11225 0.0
C873 C 0.89297 0.56746 0.122 0.0
C874 C 0.86135 0.61709 0.15302 0.0
C875 C 0.87112 0.56311 0.14836 0.0
C876 C 0.82223 0.639 0.19544 0.0
C877 C 0.82642 0.69328 0.16153 0.0
N878 N 0.85596 0.58756 0.16276 0.0
N879 N 0.84425 0.66979 0.15181 0.0
H880 H 0.29713 0.83239 0.15817 0.0
H881 H 0.41463 0.83709 0.01147 0.0
H882 H 0.31127 0.739 0.10572 0.0
H883 H 0.44802 0.88023 0.13104 0.0
H884 H 0.37027 0.80323 0.03189 0.0
H885 H 0.3443 0.85544 0.13245 0.0
C886 C 0.30977 0.81678 0.14057 0.0
C887 C 0.30052 0.78377 0.13416 0.0
C888 C 0.38794 0.81962 0.05349 0.0
C889 C 0.35419 0.81003 0.10478 0.0
C890 C 0.41318 0.83886 0.04201 0.0
C891 C 0.43477 0.86175 0.06961 0.0
C892 C 0.38412 0.82406 0.09247 0.0
C893 C 0.43182 0.86311 0.10876 0.0
C894 C 0.33676 0.82993 0.12627 0.0
C895 C 0.31782 0.7646 0.11124 0.0
N896 N 0.40639 0.84511 0.11893 0.0
N897 N 0.34407 0.77807 0.09717 0.0
H898 H 0.66814 0.14379 0.24409 0.0
H899 H 0.53475 0.07062 0.05759 0.0
H900 H 0.66523 0.18142 0.13718 0.0
H901 H 0.56866 0.01429 0.14204 0.0
H902 H 0.57681 0.1152 0.09036 0.0
H903 H 0.62604 0.09949 0.21116 0.0
C904 C 0.65863 0.14276 0.2137 0.0
C905 C 0.67025 0.16632 0.19331 0.0
C906 C 0.57514 0.09303 0.1016 0.0
C907 C 0.62183 0.11592 0.1557 0.0
C908 C 0.55138 0.06761 0.08268 0.0
C909 C 0.54888 0.03858 0.0963 0.0
C910 C 0.59609 0.08956 0.1351 0.0
C911 C 0.56988 0.03622 0.1303 0.0
C912 C 0.6347 0.11742 0.19494 0.0
C913 C 0.65712 0.16368 0.15393 0.0
N914 N 0.59262 0.06141 0.14858 0.0
N915 N 0.63341 0.13905 0.13646 0.0
H916 H 0.67989 0.62868 0.76779 0.0
H917 H 0.5926 0.60758 0.95178 0.0
H918 H 0.67626 0.70762 0.85694 0.0
H919 H 0.57411 0.53977 0.84568 0.0
H920 H 0.62908 0.64279 0.92199 0.0
H921 H 0.64661 0.59393 0.80048 0.0
C922 C 0.67211 0.63876 0.79424 0.0
C923 C 0.68078 0.67122 0.80947 0.0
C924 C 0.61703 0.62015 0.90538 0.0
C925 C 0.64273 0.63133 0.84732 0.0
C926 C 0.5964 0.60002 0.9224 0.0
C927 C 0.58021 0.5708 0.9011 0.0
C928 C 0.62176 0.61067 0.86707 0.0
C929 C 0.5859 0.56218 0.8631 0.0
C930 C 0.65304 0.61887 0.81289 0.0
C931 C 0.66994 0.68281 0.84395 0.0
N932 N 0.60619 0.58196 0.84739 0.0
N933 N 0.65154 0.66286 0.86179 0.0
H934 H 0.35384 0.72746 0.78201 0.0
H935 H 0.35954 0.56207 0.85833 0.0
H936 H 0.26628 0.66219 0.78188 0.0
H937 H 0.43946 0.63999 0.8902 0.0
H938 H 0.32554 0.59693 0.82705 0.0
H939 H 0.3864 0.69437 0.81842 0.0
C940 C 0.34149 0.70617 0.78976 0.0
C941 C 0.30737 0.69752 0.77901 0.0
C942 C 0.35043 0.60646 0.84113 0.0
C943 C 0.34442 0.6594 0.82032 0.0
C944 C 0.36988 0.58655 0.85885 0.0
C945 C 0.4024 0.59813 0.87691 0.0
C946 C 0.36373 0.63809 0.84088 0.0
C947 C 0.41445 0.63014 0.87694 0.0
C948 C 0.36004 0.68736 0.81065 0.0
C949 C 0.29254 0.66978 0.78984 0.0
N950 N 0.39524 0.64889 0.85891 0.0
N951 N 0.31118 0.65155 0.80964 0.0
H952 H 0.32844 0.27159 0.85157 0.0
H953 H 0.40227 0.45509 0.87948 0.0
H954 H 0.30257 0.33434 0.77071 0.0
H955 H 0.42532 0.39635 0.96578 0.0
H956 H 0.36246 0.41146 0.84181 0.0
H957 H 0.36249 0.31674 0.89517 0.0
C958 C 0.33009 0.29477 0.84281 0.0
C959 C 0.31276 0.29915 0.80728 0.0
C960 C 0.37585 0.40806 0.86917 0.0
C961 C 0.35123 0.35085 0.85728 0.0
C962 C 0.39847 0.43301 0.89074 0.0
C963 C 0.41706 0.42908 0.92558 0.0
C964 C 0.37212 0.37873 0.88221 0.0
C965 C 0.4112 0.40022 0.93911 0.0
C966 C 0.34932 0.32056 0.86789 0.0
C967 C 0.31559 0.32976 0.79767 0.0
N968 N 0.38945 0.37582 0.91703 0.0
N969 N 0.33446 0.35439 0.82252 0.0
H970 H 0.70054 0.28886 0.81731 0.0
H971 H 0.57031 0.41108 0.80228 0.0
H972 H 0.65726 0.31346 0.70935 0.0
H973 H 0.60343 0.37689 0.90801 0.0
H974 H 0.60191 0.37558 0.768 0.0
H975 H 0.66535 0.3209 0.85112 0.0
C976 C 0.68338 0.30078 0.80066 0.0
C977 C 0.68167 0.29835 0.76041 0.0
C978 C 0.60217 0.37571 0.79867 0.0
C979 C 0.64165 0.3356 0.79906 0.0
C980 C 0.58388 0.39588 0.81833 0.0
C981 C 0.58393 0.39705 0.85828 0.0
C982 C 0.62098 0.35654 0.81895 0.0
C983 C 0.60284 0.37721 0.8774 0.0
C984 C 0.66337 0.31918 0.82002 0.0
C985 C 0.65932 0.31466 0.7404 0.0
N986 N 0.6206 0.35789 0.85762 0.0
N987 N 0.6403 0.33268 0.75993 0.0
H988 H 0.68953 0.34352 0.2825 0.0
H989 H 0.57707 0.35567 0.08284 0.0
H990 H 0.68279 0.27719 0.17686 0.0
H991 H 0.59056 0.42704 0.18532 0.0
H992 H 0.61795 0.32819 0.11584 0.0
H993 H 0.65537 0.37587 0.24681 0.0
C994 C 0.6811 0.33596 0.25172 0.0
C995 C 0.68889 0.30765 0.23261 0.0
C996 C 0.61212 0.34997 0.13105 0.0
C997 C 0.64963 0.34429 0.19162 0.0
C998 C 0.58887 0.36583 0.1121 0.0
C999 C 0.58006 0.39369 0.13132 0.0
C1000 C 0.62669 0.36188 0.16965 0.0
C1001 C 0.596 0.40534 0.16952 0.0
C1002 C 0.66159 0.35438 0.23135 0.0
C1003 C 0.67739 0.29891 0.1927 0.0
N1004 N 0.61833 0.38931 0.18745 0.0
N1005 N 0.65816 0.31702 0.17361 0.0
H1006 H 0.66043 0.68083 0.11724 0.0
H1007 H 0.57056 0.50405 0.10378 0.0
H1008 H 0.69114 0.61634 0.19373 0.0
H1009 H 0.54193 0.56556 0.02293 0.0
H1010 H 0.61869 0.54318 0.13257 0.0
H1011 H 0.62085 0.63744 0.0779 0.0
C1012 C 0.65906 0.65753 0.12567 0.0
C1013 C 0.67886 0.65237 0.15925 0.0
C1014 C 0.60225 0.54802 0.10815 0.0
C1015 C 0.63352 0.60263 0.11426 0.0
C1016 C 0.5748 0.52572 0.09178 0.0
C1017 C 0.55258 0.53171 0.06088 0.0
C1018 C 0.60716 0.5768 0.09395 0.0
C1019 C 0.55901 0.55996 0.04622 0.0
C1020 C 0.63646 0.63274 0.1031 0.0
C1021 C 0.67617 0.62158 0.1684 0.0
N1022 N 0.5856 0.58174 0.06323 0.0
N1023 N 0.65369 0.59798 0.14624 0.0
H1024 H 0.24631 0.62381 0.21687 0.0
H1025 H 0.4096 0.61167 0.12434 0.0
H1026 H 0.31255 0.70656 0.20696 0.0
H1027 H 0.32989 0.53409 0.10871 0.0
H1028 H 0.37589 0.64676 0.15657 0.0
H1029 H 0.27791 0.59036 0.17919 0.0
C1030 C 0.2675 0.63492 0.20662 0.0
C1031 C 0.2769 0.66793 0.21504 0.0
C1032 C 0.36571 0.62212 0.1458 0.0
C1033 C 0.3134 0.62982 0.17213 0.0
C1034 C 0.38498 0.60205 0.12756 0.0
C1035 C 0.37256 0.56987 0.11375 0.0
C1036 C 0.33394 0.60983 0.1508 0.0
C1037 C 0.34038 0.55878 0.11847 0.0
C1038 C 0.28548 0.61584 0.18502 0.0
C1039 C 0.30445 0.68117 0.20095 0.0
N1040 N 0.32234 0.57862 0.13683 0.0
N1041 N 0.32192 0.66204 0.18042 0.0
H1042 H 0.28731 0.33275 0.22418 0.0
H1043 H 0.39151 0.35018 0.05243 0.0
H1044 H 0.31136 0.25176 0.15216 0.0
H1045 H 0.38333 0.42759 0.14122 0.0
H1046 H 0.35799 0.31381 0.08401 0.0
H1047 H 0.31837 0.36787 0.18973 0.0
C1048 C 0.29912 0.32228 0.20112 0.0
C1049 C 0.29677 0.28916 0.19126 0.0
C1050 C 0.36351 0.33879 0.09644 0.0
C1051 C 0.33244 0.3295 0.15131 0.0
C1052 C 0.38249 0.35956 0.07835 0.0
C1053 C 0.39032 0.39198 0.09424 0.0
C1054 C 0.35205 0.35061 0.13043 0.0
C1055 C 0.37807 0.4028 0.12797 0.0
C1056 C 0.31693 0.34242 0.18143 0.0
C1057 C 0.31265 0.27712 0.16096 0.0
N1058 N 0.35961 0.38223 0.14484 0.0
N1059 N 0.32975 0.29727 0.14203 0.0
H1060 H 0.76664 0.64152 0.60845 0.0
H1061 H 0.8647 0.49521 0.6281 0.0
H1062 H 0.78318 0.60025 0.71244 0.0
H1063 H 0.85566 0.54194 0.5279 0.0
H1064 H 0.82566 0.52663 0.65455 0.0
H1065 H 0.79025 0.59875 0.57403 0.0
C1066 C 0.77499 0.62322 0.62388 0.0
C1067 C 0.77348 0.62446 0.66334 0.0
C1068 C 0.83201 0.52983 0.62661 0.0
C1069 C 0.80048 0.57571 0.6244 0.0
C1070 C 0.85444 0.51205 0.61158 0.0
C1071 C 0.86434 0.51682 0.57632 0.0
C1072 C 0.81945 0.55257 0.60624 0.0
C1073 C 0.84923 0.53796 0.55545 0.0
C1074 C 0.7884 0.59882 0.60426 0.0
C1075 C 0.78427 0.60017 0.68203 0.0
N1076 N 0.82791 0.55547 0.57102 0.0
N1077 N 0.79768 0.57688 0.66245 0.0
H1078 H 0.29872 0.75301 0.59796 0.0
H1079 H 0.36602 0.927 0.59508 0.0
H1080 H 0.24524 0.82893 0.63397 0.0
H1081 H 0.38285 0.85398 0.50599 0.0
H1082 H 0.32017 0.89099 0.6079 0.0
H1083 H 0.32772 0.78764 0.5605 0.0
C1084 C 0.29245 0.77665 0.59708 0.0
C1085 C 0.27009 0.78844 0.61955 0.0
C1086 C 0.33342 0.88298 0.585 0.0
C1087 C 0.30341 0.82809 0.57774 0.0
C1088 C 0.35967 0.90345 0.57788 0.0
C1089 C 0.37822 0.8932 0.54975 0.0
C1090 C 0.32641 0.85171 0.56471 0.0
C1091 C 0.36902 0.86259 0.52801 0.0
C1092 C 0.30896 0.79636 0.57573 0.0
C1093 C 0.26269 0.81914 0.61741 0.0
N1094 N 0.34414 0.84252 0.53659 0.0
N1095 N 0.27992 0.83822 0.59767 0.0
H1096 H 0.20825 0.349 0.68372 0.0
H1097 H 0.11518 0.35113 0.47825 0.0
H1098 H 0.21888 0.28074 0.58591 0.0
H1099 H 0.13877 0.43443 0.56706 0.0
H1100 H 0.15877 0.32746 0.51303 0.0
H1101 H 0.18782 0.38331 0.63925 0.0
C1102 C 0.20663 0.3415 0.65284 0.0
C1103 C 0.21466 0.31198 0.63825 0.0
C1104 C 0.15499 0.35131 0.52425 0.0
C1105 C 0.19103 0.35062 0.58726 0.0
C1106 C 0.13008 0.36474 0.50447 0.0
C1107 C 0.1228 0.39439 0.5203 0.0
C1108 C 0.1721 0.3675 0.56031 0.0
C1109 C 0.14328 0.41139 0.55387 0.0
C1110 C 0.1952 0.36111 0.62744 0.0
C1111 C 0.21253 0.30332 0.59811 0.0
N1112 N 0.16646 0.39736 0.57328 0.0
N1113 N 0.20022 0.3223 0.57384 0.0
H1114 H 0.6262 0.17586 0.70819 0.0
H1115 H 0.58155 0.03728 0.5235 0.0
H1116 H 0.68882 0.16389 0.62142 0.0
H1117 H 0.52158 0.0528 0.61214 0.0
H1118 H 0.61925 0.0859 0.55485 0.0
H1119 H 0.58569 0.13326 0.66959 0.0
C1120 C 0.63139 0.16438 0.68086 0.0
C1121 C 0.66113 0.17335 0.66823 0.0
C1122 C 0.59767 0.07879 0.56719 0.0
C1123 C 0.61466 0.12406 0.62371 0.0
C1124 C 0.57607 0.05131 0.54907 0.0
C1125 C 0.54837 0.04135 0.56504 0.0
C1126 C 0.59144 0.09613 0.6016 0.0
C1127 C 0.54279 0.0596 0.59897 0.0
C1128 C 0.60817 0.13998 0.65874 0.0
C1129 C 0.66624 0.15773 0.63232 0.0
N1130 N 0.56412 0.08599 0.61611 0.0
N1131 N 0.64335 0.13362 0.61144 0.0
H1132 H 0.8101 0.34816 0.26495 0.0
H1133 H 0.9574 0.40693 0.44277 0.0
H1134 H 0.82505 0.29917 0.36287 0.0
H1135 H 0.92187 0.46842 0.36541 0.0
H1136 H 0.91289 0.3645 0.41006 0.0
H1137 H 0.85484 0.39003 0.29753 0.0
C1138 C 0.82276 0.3462 0.29332 0.0
C1139 C 0.81372 0.32013 0.31126 0.0
C1140 C 0.91474 0.38732 0.40035 0.0
C1141 C 0.86521 0.36788 0.34852 0.0
C1142 C 0.93988 0.41154 0.41926 0.0
C1143 C 0.94264 0.44138 0.40754 0.0
C1144 C 0.89257 0.39285 0.36893 0.0
C1145 C 0.92048 0.44578 0.37553 0.0
C1146 C 0.84826 0.37016 0.31192 0.0
C1147 C 0.83101 0.31893 0.34807 0.0
N1148 N 0.89633 0.42179 0.35736 0.0
N1149 N 0.85603 0.34238 0.3654 0.0
H1150 H 0.68537 0.79553 0.23609 0.0
H1151 H 0.61625 0.88293 0.41445 0.0
H1152 H 0.66455 0.75276 0.33454 0.0
H1153 H 0.58837 0.90562 0.30029 0.0
H1154 H 0.64246 0.83987 0.38622 0.0
H1155 H 0.65679 0.84024 0.25888 0.0
C1156 C 0.67452 0.79537 0.26211 0.0
C1157 C 0.67736 0.77047 0.28353 0.0
C1158 C 0.63052 0.8542 0.36726 0.0
C1159 C 0.64566 0.82139 0.30999 0.0
C1160 C 0.61525 0.87879 0.38336 0.0
C1161 C 0.59925 0.89781 0.35982 0.0
C1162 C 0.6305 0.84853 0.3272 0.0
C1163 C 0.60034 0.89175 0.31977 0.0
C1164 C 0.65835 0.82082 0.27511 0.0
C1165 C 0.66308 0.77146 0.31717 0.0
N1166 N 0.61568 0.86762 0.30469 0.0
N1167 N 0.64823 0.79653 0.32947 0.0
H1168 H 0.21534 0.68735 0.40338 0.0
H1169 H 0.03174 0.63266 0.40816 0.0
H1170 H 0.13831 0.73443 0.35193 0.0
H1171 H 0.10742 0.61746 0.49799 0.0
H1172 H 0.07037 0.67395 0.39145 0.0
H1173 H 0.17766 0.66561 0.44357 0.0
C1174 C 0.19077 0.69371 0.40128 0.0
C1175 C 0.17954 0.71201 0.37383 0.0
C1176 C 0.07838 0.66211 0.4154 0.0
C1177 C 0.13646 0.68709 0.41889 0.0
C1178 C 0.05635 0.63849 0.42481 0.0
C1179 C 0.06664 0.62145 0.45405 0.0
C1180 C 0.11114 0.668 0.43464 0.0
C1181 C 0.09867 0.63001 0.47502 0.0
C1182 C 0.1693 0.68136 0.42418 0.0
C1183 C 0.14764 0.71982 0.37228 0.0
N1184 N 0.12013 0.65221 0.46427 0.0
N1185 N 0.12694 0.70675 0.39388 0.0
H1186 H 0.29765 0.20197 0.36892 0.0
H1187 H 0.42335 0.0842 0.30636 0.0
H1188 H 0.32015 0.18683 0.25307 0.0
H1189 H 0.40482 0.10905 0.42306 0.0
H1190 H 0.38518 0.11993 0.28491 0.0
H1191 H 0.33585 0.16617 0.38773 0.0
C1192 C 0.31068 0.19105 0.34736 0.0
C1193 C 0.30564 0.19737 0.30935 0.0
C1194 C 0.38949 0.11747 0.31517 0.0
C1195 C 0.34972 0.15598 0.33075 0.0
C1196 C 0.41139 0.09716 0.32751 0.0
C1197 C 0.41725 0.09328 0.36663 0.0
C1198 C 0.37335 0.13412 0.34213 0.0
C1199 C 0.40071 0.11058 0.39253 0.0
C1200 C 0.33256 0.17054 0.35814 0.0
C1201 C 0.32319 0.18245 0.28265 0.0
N1202 N 0.37965 0.13009 0.37983 0.0
N1203 N 0.34447 0.16239 0.29384 0.0
H1204 H 0.63812 0.71636 0.65153 0.0
H1205 H 0.60097 0.89547 0.65504 0.0
H1206 H 0.69738 0.79664 0.72787 0.0
H1207 H 0.54102 0.81397 0.58114 0.0
H1208 H 0.63602 0.85999 0.6831 0.0
H1209 H 0.6014 0.75186 0.62687 0.0
C1210 C 0.64307 0.74146 0.66352 0.0
C1211 C 0.67033 0.75351 0.69243 0.0
C1212 C 0.61516 0.84988 0.6608 0.0
C1213 C 0.62881 0.79451 0.66388 0.0
C1214 C 0.59524 0.87016 0.64454 0.0
C1215 C 0.56793 0.85777 0.61559 0.0
C1216 C 0.60786 0.8169 0.64796 0.0
C1217 C 0.5615 0.82466 0.60367 0.0
C1218 C 0.62217 0.76175 0.64939 0.0
C1219 C 0.67596 0.78625 0.70661 0.0
N1220 N 0.58131 0.80547 0.6198 0.0
N1221 N 0.65546 0.80565 0.69209 0.0
H1222 H 0.65321 0.2295 0.38126 0.0
H1223 H 0.64049 0.06172 0.44503 0.0
H1224 H 0.73453 0.176 0.38911 0.0
H1225 H 0.57007 0.12586 0.46405 0.0
H1226 H 0.67862 0.10577 0.43311 0.0
H1227 H 0.62573 0.19533 0.41995 0.0
C1228 C 0.66553 0.21089 0.39185 0.0
C1229 C 0.69588 0.20518 0.38168 0.0
C1230 C 0.65509 0.11038 0.44061 0.0
C1231 C 0.6644 0.16558 0.42516 0.0
C1232 C 0.63328 0.08521 0.44733 0.0
C1233 C 0.60184 0.09006 0.45472 0.0
C1234 C 0.64514 0.14046 0.44067 0.0
C1235 C 0.59392 0.12101 0.4579 0.0
C1236 C 0.64988 0.19139 0.41395 0.0
C1237 C 0.71098 0.18097 0.39622 0.0
N1238 N 0.61518 0.14494 0.4501 0.0
N1239 N 0.69475 0.16158 0.41661 0.0
H1240 H 0.74044 0.6164 0.33657 0.0
H1241 H 0.89416 0.62555 0.50239 0.0
H1242 H 0.81987 0.69446 0.3731 0.0
H1243 H 0.83908 0.53755 0.43848 0.0
H1244 H 0.8516 0.65414 0.47457 0.0
H1245 H 0.76333 0.59069 0.39016 0.0
C1246 C 0.7625 0.62816 0.35608 0.0
C1247 C 0.77885 0.65709 0.35009 0.0
C1248 C 0.84825 0.62844 0.46769 0.0
C1249 C 0.80427 0.62867 0.4116 0.0
C1250 C 0.87229 0.61212 0.48397 0.0
C1251 C 0.87028 0.57939 0.47182 0.0
C1252 C 0.82238 0.61172 0.43916 0.0
C1253 C 0.84157 0.56298 0.44783 0.0
C1254 C 0.77534 0.61369 0.38669 0.0
C1255 C 0.807 0.67175 0.3763 0.0
N1256 N 0.81902 0.57944 0.43134 0.0
N1257 N 0.81894 0.65729 0.40581 0.0
H1258 H 0.31369 0.78428 0.36983 0.0
H1259 H 0.42322 0.95016 0.37121 0.0
H1260 H 0.32427 0.82552 0.26719 0.0
H1261 H 0.44689 0.89291 0.45891 0.0
H1262 H 0.38052 0.90723 0.33686 0.0
H1263 H 0.35686 0.8263 0.40727 0.0
C1264 C 0.3251 0.80201 0.35514 0.0
C1265 C 0.31531 0.80133 0.31527 0.0
C1266 C 0.39481 0.9041 0.36382 0.0
C1267 C 0.36409 0.84942 0.35789 0.0
C1268 C 0.41912 0.9286 0.38345 0.0
C1269 C 0.43796 0.92529 0.41844 0.0
C1270 C 0.38922 0.87598 0.3792 0.0
C1271 C 0.43186 0.8968 0.43287 0.0
C1272 C 0.34972 0.82588 0.3765 0.0
C1273 C 0.33098 0.82491 0.29777 0.0
N1274 N 0.40784 0.87315 0.41325 0.0
N1275 N 0.35434 0.84805 0.31922 0.0
H1276 H 0.1797 0.29963 0.37038 0.0
H1277 H 0.16913 0.48469 0.41946 0.0
H1278 H 0.24778 0.37069 0.33722 0.0
H1279 H 0.09397 0.40776 0.42549 0.0
H1280 H 0.20607 0.44549 0.40415 0.0
H1281 H 0.1573 0.3413 0.4077 0.0
C1282 C 0.19008 0.32419 0.37132 0.0
C1283 C 0.21505 0.332 0.3503 0.0
C1284 C 0.18165 0.43739 0.40946 0.0
C1285 C 0.1889 0.37992 0.39186 0.0
C1286 C 0.16071 0.45963 0.41816 0.0
C1287 C 0.12848 0.44919 0.42308 0.0
C1288 C 0.17016 0.40484 0.40643 0.0
C1289 C 0.11853 0.41666 0.42133 0.0
C1290 C 0.1773 0.34798 0.39258 0.0
C1291 C 0.22822 0.36398 0.35294 0.0
N1292 N 0.13922 0.39569 0.413 0.0
N1293 N 0.21443 0.38705 0.37276 0.0
H1294 H 0.26095 0.16047 0.62581 0.0
H1295 H 0.42694 0.08542 0.6687 0.0
H1296 H 0.32684 0.18684 0.73496 0.0
H1297 H 0.35299 0.05525 0.56648 0.0
H1298 H 0.39196 0.12268 0.69427 0.0
H1299 H 0.29538 0.12189 0.60461 0.0
C1300 C 0.28273 0.15803 0.64544 0.0
C1301 C 0.29114 0.17699 0.68213 0.0
C1302 C 0.38349 0.10788 0.66626 0.0
C1303 C 0.33114 0.13265 0.65782 0.0
C1304 C 0.40339 0.08652 0.65163 0.0
C1305 C 0.39311 0.06721 0.61513 0.0
C1306 C 0.35306 0.10995 0.64425 0.0
C1307 C 0.36243 0.07 0.5943 0.0
C1308 C 0.30244 0.13591 0.63329 0.0
C1309 C 0.31951 0.17261 0.70643 0.0
N1310 N 0.34366 0.09089 0.60911 0.0
N1311 N 0.33871 0.15098 0.69373 0.0
H1312 H 0.77369 0.29215 0.5927 0.0
H1313 H 0.96136 0.35633 0.59859 0.0
H1314 H 0.85244 0.26274 0.66648 0.0
H1315 H 0.88633 0.36231 0.50293 0.0
H1316 H 0.92207 0.31968 0.6219 0.0
H1317 H 0.81421 0.31592 0.55716 0.0
C1318 C 0.79946 0.29036 0.60103 0.0
C1319 C 0.80988 0.27583 0.63271 0.0
C1320 C 0.9143 0.3286 0.59547 0.0
C1321 C 0.85621 0.30308 0.59273 0.0
C1322 C 0.93674 0.34953 0.58218 0.0
C1323 C 0.92697 0.36256 0.54901 0.0
C1324 C 0.88169 0.32112 0.57585 0.0
C1325 C 0.89481 0.35285 0.52873 0.0
C1326 C 0.82255 0.30385 0.58077 0.0
C1327 C 0.84346 0.27399 0.64237 0.0
N1328 N 0.87311 0.33311 0.54285 0.0
N1329 N 0.86549 0.28785 0.62279 0.0
H1330 H 0.15997 0.68791 0.63587 0.0
H1331 H 0.07457 0.50892 0.62302 0.0
H1332 H 0.1746 0.63479 0.72999 0.0
H1333 H 0.0339 0.57275 0.55235 0.0
H1334 H 0.11554 0.55313 0.65889 0.0
H1335 H 0.11843 0.64395 0.60003 0.0
C1336 C 0.15461 0.66697 0.6489 0.0
C1337 C 0.17079 0.66505 0.68601 0.0
C1338 C 0.09777 0.55746 0.63537 0.0
C1339 C 0.12343 0.61476 0.64519 0.0
C1340 C 0.07434 0.53227 0.61497 0.0
C1341 C 0.05147 0.53711 0.5839 0.0
C1342 C 0.0984 0.58769 0.62453 0.0
C1343 C 0.05216 0.56785 0.57486 0.0
C1344 C 0.13076 0.64201 0.62855 0.0
C1345 C 0.16266 0.63741 0.70157 0.0
N1346 N 0.07541 0.59198 0.59485 0.0
N1347 N 0.13971 0.61333 0.68104 0.0
loop_
_geom_bond_atom_site_label_1
_geom_bond_atom_site_label_2
_geom_bond_distance
_geom_bond_site_symmetry_2
_ccdc_geom_bond_type
Tb0 O3 2.453 . S
Tb0 O4 2.596 . S
Tb0 O5 2.374 . S
Tb0 O13 2.343 . S
Tb0 O15 2.353 . S
Tb0 O17 2.427 . S
Tb0 O18 2.513 . S
C1 O5 1.251 . S
C1 O7 1.263 . S
Tb2 O4 2.343 . S
Tb2 O7 2.353 . S
Tb2 O10 2.427 . S
Tb2 O11 2.513 . S
Tb2 O12 2.453 . S
Tb2 O13 2.596 . S
Tb2 O14 2.374 . S
O3 Tb0 2.453 . S
O3 C19 1.245 . S
O4 Tb0 2.596 . S
O4 Tb2 2.343 . S
O4 C19 1.259 . S
O5 Tb0 2.374 . S
O5 C1 1.251 . S
C6 O10 1.275 . S
C6 O11 1.246 . S
O7 C1 1.263 . S
O7 Tb2 2.353 . S
C8 O12 1.245 . S
C8 O13 1.259 . S
C9 O14 1.250 . S
C9 O15 1.263 . S
O10 Tb2 2.427 . S
O10 C6 1.275 . S
O11 Tb2 2.513 . S
O11 C6 1.246 . S
O12 Tb2 2.453 . S
O12 C8 1.245 . S
O13 Tb0 2.343 . S
O13 Tb2 2.596 . S
O13 C8 1.259 . S
O14 Tb2 2.374 . S
O14 C9 1.250 . S
O15 Tb0 2.353 . S
O15 C9 1.263 . S
C16 O17 1.275 . S
C16 O18 1.246 . S
O17 Tb0 2.427 . S
O17 C16 1.275 . S
O18 Tb0 2.513 . S
O18 C16 1.246 . S
C19 O3 1.245 . S
C19 O4 1.259 . S
Tb20 O23 2.453 . S
Tb20 O24 2.596 . S
Tb20 O25 2.374 . S
Tb20 O33 2.343 . S
Tb20 O35 2.353 . S
Tb20 O37 2.427 . S
Tb20 O38 2.513 . S
C21 O25 1.251 . S
C21 O27 1.263 . S
Tb22 O24 2.343 . S
Tb22 O27 2.353 . S
Tb22 O30 2.427 . S
Tb22 O31 2.513 . S
Tb22 O32 2.453 . S
Tb22 O33 2.596 . S
Tb22 O34 2.374 . S
O23 Tb20 2.453 . S
O23 C39 1.245 . S
O24 Tb20 2.596 . S
O24 Tb22 2.343 . S
O24 C39 1.259 . S
O25 Tb20 2.374 . S
O25 C21 1.251 . S
C26 O30 1.275 . S
C26 O31 1.246 . S
O27 C21 1.263 . S
O27 Tb22 2.353 . S
C28 O32 1.245 . S
C28 O33 1.259 . S
C29 O34 1.250 . S
C29 O35 1.263 . S
O30 Tb22 2.427 . S
O30 C26 1.275 . S
O31 Tb22 2.513 . S
O31 C26 1.246 . S
O32 Tb22 2.453 . S
O32 C28 1.245 . S
O33 Tb20 2.343 . S
O33 Tb22 2.596 . S
O33 C28 1.259 . S
O34 Tb22 2.374 . S
O34 C29 1.250 . S
O35 Tb20 2.353 . S
O35 C29 1.263 . S
C36 O37 1.275 . S
C36 O38 1.246 . S
O37 Tb20 2.427 . S
O37 C36 1.275 . S
O38 Tb20 2.513 . S
O38 C36 1.246 . S
C39 O23 1.245 . S
C39 O24 1.259 . S
Tb40 O43 2.453 . S
Tb40 O44 2.596 . S
Tb40 O45 2.374 . S
Tb40 O53 2.343 . S
Tb40 O55 2.353 . S
Tb40 O57 2.427 . S
Tb40 O58 2.513 . S
C41 O45 1.251 . S
C41 O47 1.263 . S
Tb42 O44 2.343 . S
Tb42 O47 2.353 . S
Tb42 O50 2.427 . S
Tb42 O51 2.513 . S
Tb42 O52 2.453 . S
Tb42 O53 2.596 . S
Tb42 O54 2.374 . S
O43 Tb40 2.453 . S
O43 C59 1.245 . S
O44 Tb40 2.596 . S
O44 Tb42 2.343 . S
O44 C59 1.259 . S
O45 Tb40 2.374 . S
O45 C41 1.251 . S
C46 O50 1.275 . S
C46 O51 1.246 . S
O47 C41 1.263 . S
O47 Tb42 2.353 . S
C48 O52 1.245 . S
C48 O53 1.259 . S
C49 O54 1.250 . S
C49 O55 1.263 . S
O50 Tb42 2.427 . S
O50 C46 1.275 . S
O51 Tb42 2.513 . S
O51 C46 1.246 . S
O52 Tb42 2.453 . S
O52 C48 1.245 . S
O53 Tb40 2.343 . S
O53 Tb42 2.596 . S
O53 C48 1.259 . S
O54 Tb42 2.374 . S
O54 C49 1.250 . S
O55 Tb40 2.353 . S
O55 C49 1.263 . S
C56 O57 1.275 . S
C56 O58 1.246 . S
O57 Tb40 2.427 . S
O57 C56 1.275 . S
O58 Tb40 2.513 . S
O58 C56 1.246 . S
C59 O43 1.245 . S
C59 O44 1.259 . S
Tb60 O63 2.453 . S
Tb60 O64 2.596 . S
Tb60 O65 2.374 . S
Tb60 O73 2.343 . S
Tb60 O75 2.353 . S
Tb60 O77 2.427 . S
Tb60 O78 2.513 . S
C61 O65 1.251 . S
C61 O67 1.263 . S
Tb62 O64 2.343 . S
Tb62 O67 2.353 . S
Tb62 O70 2.427 . S
Tb62 O71 2.513 . S
Tb62 O72 2.453 . S
Tb62 O73 2.596 . S
Tb62 O74 2.374 . S
O63 Tb60 2.453 . S
O63 C79 1.245 . S
O64 Tb60 2.596 . S
O64 Tb62 2.343 . S
O64 C79 1.259 . S
O65 Tb60 2.374 . S
O65 C61 1.251 . S
C66 O70 1.275 . S
C66 O71 1.246 . S
O67 C61 1.263 . S
O67 Tb62 2.353 . S
C68 O72 1.245 . S
C68 O73 1.259 . S
C69 O74 1.250 . S
C69 O75 1.263 . S
O70 Tb62 2.427 . S
O70 C66 1.275 . S
O71 Tb62 2.513 . S
O71 C66 1.246 . S
O72 Tb62 2.453 . S
O72 C68 1.245 . S
O73 Tb60 2.343 . S
O73 Tb62 2.596 . S
O73 C68 1.259 . S
O74 Tb62 2.374 . S
O74 C69 1.250 . S
O75 Tb60 2.353 . S
O75 C69 1.263 . S
C76 O77 1.275 . S
C76 O78 1.246 . S
O77 Tb60 2.427 . S
O77 C76 1.275 . S
O78 Tb60 2.513 . S
O78 C76 1.246 . S
C79 O63 1.245 . S
C79 O64 1.259 . S
Tb80 O83 2.453 . S
Tb80 O84 2.596 . S
Tb80 O85 2.374 . S
Tb80 O93 2.343 . S
Tb80 O95 2.353 . S
Tb80 O97 2.427 . S
Tb80 O98 2.513 . S
C81 O85 1.251 . S
C81 O87 1.263 . S
Tb82 O84 2.343 . S
Tb82 O87 2.353 . S
Tb82 O90 2.427 . S
Tb82 O91 2.513 . S
Tb82 O92 2.453 . S
Tb82 O93 2.596 . S
Tb82 O94 2.374 . S
O83 Tb80 2.453 . S
O83 C99 1.245 . S
O84 Tb80 2.596 . S
O84 Tb82 2.343 . S
O84 C99 1.259 . S
O85 Tb80 2.374 . S
O85 C81 1.251 . S
C86 O90 1.275 . S
C86 O91 1.246 . S
O87 C81 1.263 . S
O87 Tb82 2.353 . S
C88 O92 1.245 . S
C88 O93 1.259 . S
C89 O94 1.250 . S
C89 O95 1.263 . S
O90 Tb82 2.427 . S
O90 C86 1.275 . S
O91 Tb82 2.513 . S
O91 C86 1.246 . S
O92 Tb82 2.453 . S
O92 C88 1.245 . S
O93 Tb80 2.343 . S
O93 Tb82 2.596 . S
O93 C88 1.259 . S
O94 Tb82 2.374 . S
O94 C89 1.250 . S
O95 Tb80 2.353 . S
O95 C89 1.263 . S
C96 O97 1.275 . S
C96 O98 1.246 . S
O97 Tb80 2.427 . S
O97 C96 1.275 . S
O98 Tb80 2.513 . S
O98 C96 1.246 . S
C99 O83 1.245 . S
C99 O84 1.259 . S
Tb100 O103 2.453 . S
Tb100 O104 2.596 . S
Tb100 O105 2.374 . S
Tb100 O113 2.343 . S
Tb100 O115 2.353 . S
Tb100 O117 2.427 . S
Tb100 O118 2.513 . S
C101 O105 1.251 . S
C101 O107 1.263 . S
Tb102 O104 2.343 . S
Tb102 O107 2.353 . S
Tb102 O110 2.427 . S
Tb102 O111 2.513 . S
Tb102 O112 2.453 . S
Tb102 O113 2.596 . S
Tb102 O114 2.374 . S
O103 Tb100 2.453 . S
O103 C119 1.245 . S
O104 Tb100 2.596 . S
O104 Tb102 2.343 . S
O104 C119 1.259 . S
O105 Tb100 2.374 . S
O105 C101 1.251 . S
C106 O110 1.275 . S
C106 O111 1.246 . S
O107 C101 1.263 . S
O107 Tb102 2.353 . S
C108 O112 1.245 . S
C108 O113 1.259 . S
C109 O114 1.250 . S
C109 O115 1.263 . S
O110 Tb102 2.427 . S
O110 C106 1.275 . S
O111 Tb102 2.513 . S
O111 C106 1.246 . S
O112 Tb102 2.453 . S
O112 C108 1.245 . S
O113 Tb100 2.343 . S
O113 Tb102 2.596 . S
O113 C108 1.259 . S
O114 Tb102 2.374 . S
O114 C109 1.250 . S
O115 Tb100 2.353 . S
O115 C109 1.263 . S
C116 O117 1.275 . S
C116 O118 1.246 . S
O117 Tb100 2.427 . S
O117 C116 1.275 . S
O118 Tb100 2.513 . S
O118 C116 1.246 . S
C119 O103 1.245 . S
C119 O104 1.259 . S
Tb120 O123 2.453 . S
Tb120 O124 2.596 . S
Tb120 O125 2.374 . S
Tb120 O133 2.343 . S
Tb120 O135 2.353 . S
Tb120 O137 2.427 . S
Tb120 O138 2.513 . S
C121 O125 1.251 . S
C121 O127 1.263 . S
Tb122 O124 2.343 . S
Tb122 O127 2.353 . S
Tb122 O130 2.427 . S
Tb122 O131 2.513 . S
Tb122 O132 2.453 . S
Tb122 O133 2.596 . S
Tb122 O134 2.374 . S
O123 Tb120 2.453 . S
O123 C139 1.245 . S
O124 Tb120 2.596 . S
O124 Tb122 2.343 . S
O124 C139 1.259 . S
O125 Tb120 2.374 . S
O125 C121 1.251 . S
C126 O130 1.275 . S
C126 O131 1.246 . S
O127 C121 1.263 . S
O127 Tb122 2.353 . S
C128 O132 1.245 . S
C128 O133 1.259 . S
C129 O134 1.250 . S
C129 O135 1.263 . S
O130 Tb122 2.427 . S
O130 C126 1.275 . S
O131 Tb122 2.513 . S
O131 C126 1.246 . S
O132 Tb122 2.453 . S
O132 C128 1.245 . S
O133 Tb120 2.343 . S
O133 Tb122 2.596 . S
O133 C128 1.259 . S
O134 Tb122 2.374 . S
O134 C129 1.250 . S
O135 Tb120 2.353 . S
O135 C129 1.263 . S
C136 O137 1.275 . S
C136 O138 1.246 . S
O137 Tb120 2.427 . S
O137 C136 1.275 . S
O138 Tb120 2.513 . S
O138 C136 1.246 . S
C139 O123 1.245 . S
C139 O124 1.259 . S
Tb140 O143 2.453 . S
Tb140 O144 2.596 . S
Tb140 O145 2.374 . S
Tb140 O153 2.343 . S
Tb140 O155 2.353 . S
Tb140 O157 2.427 . S
Tb140 O158 2.513 . S
C141 O145 1.251 . S
C141 O147 1.263 . S
Tb142 O144 2.343 . S
Tb142 O147 2.353 . S
Tb142 O150 2.427 . S
Tb142 O151 2.513 . S
Tb142 O152 2.453 . S
Tb142 O153 2.596 . S
Tb142 O154 2.374 . S
O143 Tb140 2.453 . S
O143 C159 1.245 . S
O144 Tb140 2.596 . S
O144 Tb142 2.343 . S
O144 C159 1.259 . S
O145 Tb140 2.374 . S
O145 C141 1.251 . S
C146 O150 1.275 . S
C146 O151 1.246 . S
O147 C141 1.263 . S
O147 Tb142 2.353 . S
C148 O152 1.245 . S
C148 O153 1.259 . S
C149 O154 1.250 . S
C149 O155 1.263 . S
O150 Tb142 2.427 . S
O150 C146 1.275 . S
O151 Tb142 2.513 . S
O151 C146 1.246 . S
O152 Tb142 2.453 . S
O152 C148 1.245 . S
O153 Tb140 2.343 . S
O153 Tb142 2.596 . S
O153 C148 1.259 . S
O154 Tb142 2.374 . S
O154 C149 1.250 . S
O155 Tb140 2.353 . S
O155 C149 1.263 . S
C156 O157 1.275 . S
C156 O158 1.246 . S
O157 Tb140 2.427 . S
O157 C156 1.275 . S
O158 Tb140 2.513 . S
O158 C156 1.246 . S
C159 O143 1.245 . S
C159 O144 1.259 . S
Cd160 N163 2.334 1_655 S
Cd160 N189 2.304 1_565 S
Cd160 O196 2.268 . S
Cd160 O199 2.273 1_665 S
Cd160 O200 2.417 . S
Cd160 O201 2.330 . S
Cd161 N176 2.304 1_455 S
Cd161 N180 2.334 1_545 S
Cd161 O197 2.273 1_445 S
Cd161 O198 2.268 . S
Cd161 O202 2.417 . S
Cd161 O203 2.330 . S
C162 N163 1.332 . S
C162 C166 1.381 . S
C162 H168 0.931 . S
N163 Cd160 2.334 1_455 S
N163 C162 1.332 . S
N163 C167 1.328 . S
C164 C165 1.396 . S
C164 C167 1.378 . S
C164 H206 0.931 . S
C165 C164 1.396 . S
C165 C166 1.382 . S
C166 C162 1.381 . S
C166 C165 1.382 . S
C166 H207 0.930 . S
C167 N163 1.328 . S
C167 C164 1.378 . S
C167 H169 0.930 1_455 S
H168 C162 0.931 . S
H169 C167 0.930 1_655 S
C170 O196 1.238 . S
C170 O197 1.253 . S
C171 C172 1.379 . S
C171 N176 1.337 . S
C171 H177 0.929 . S
C172 C171 1.379 . S
C172 C173 1.380 . S
C172 H208 0.929 . S
C173 C172 1.380 . S
C173 C174 1.399 . S
C174 C173 1.399 . S
C174 C175 1.376 . S
C174 H209 0.931 . S
C175 C174 1.376 . S
C175 N176 1.338 . S
C175 H178 0.930 1_655 S
N176 Cd161 2.304 1_655 S
N176 C171 1.337 . S
N176 C175 1.338 . S
H177 C171 0.929 . S
H178 C175 0.930 1_455 S
C179 N180 1.332 . S
C179 C183 1.381 . S
C179 H185 0.931 . S
N180 Cd161 2.334 1_565 S
N180 C179 1.332 . S
N180 C184 1.328 . S
C181 C182 1.396 . S
C181 C184 1.378 . S
C181 H210 0.931 . S
C182 C181 1.396 . S
C182 C183 1.382 . S
C183 C179 1.381 . S
C183 C182 1.382 . S
C183 H211 0.930 . S
C184 N180 1.328 . S
C184 C181 1.378 . S
C184 H186 0.930 1_565 S
H185 C179 0.931 . S
H186 C184 0.930 1_545 S
C187 O198 1.238 . S
C187 O199 1.253 . S
C188 O200 1.239 . S
C188 O201 1.230 . S
N189 Cd160 2.304 1_545 S
N189 C190 1.337 . S
N189 C194 1.338 . S
C190 N189 1.337 . S
C190 C191 1.379 . S
C190 H204 0.929 . S
C191 C190 1.379 . S
C191 C192 1.380 . S
C191 H212 0.929 . S
C192 C191 1.380 . S
C192 C193 1.399 . S
C193 C192 1.399 . S
C193 C194 1.376 . S
C193 H213 0.931 . S
C194 N189 1.338 . S
C194 C193 1.376 . S
C194 H205 0.930 1_545 S
C195 O202 1.239 . S
C195 O203 1.230 . S
O196 Cd160 2.268 . S
O196 C170 1.238 . S
O197 Cd161 2.273 1_665 S
O197 C170 1.253 . S
O198 Cd161 2.268 . S
O198 C187 1.238 . S
O199 Cd160 2.273 1_445 S
O199 C187 1.253 . S
O200 Cd160 2.417 . S
O200 C188 1.239 . S
O201 Cd160 2.330 . S
O201 C188 1.230 . S
O202 Cd161 2.417 . S
O202 C195 1.239 . S
O203 Cd161 2.330 . S
O203 C195 1.230 . S
H204 C190 0.929 . S
H205 C194 0.930 1_565 S
H206 C164 0.931 . S
H207 C166 0.930 . S
H208 C172 0.929 . S
H209 C174 0.931 . S
H210 C181 0.931 . S
H211 C183 0.930 . S
H212 C191 0.929 . S
H213 C193 0.931 . S
Cd214 N217 2.334 . S
Cd214 N243 2.304 1_565 S
Cd214 O250 2.268 1_554 S
Cd214 O253 2.273 1_565 S
Cd214 O254 2.417 . S
Cd214 O255 2.330 . S
Cd215 N230 2.304 . S
Cd215 N234 2.334 1_545 S
Cd215 O251 2.273 1_545 S
Cd215 O252 2.268 1_556 S
Cd215 O256 2.417 . S
Cd215 O257 2.330 . S
C216 N217 1.332 . S
C216 C220 1.381 . S
C216 H222 0.931 . S
N217 Cd214 2.334 . S
N217 C216 1.332 . S
N217 C221 1.328 . S
C218 C219 1.396 . S
C218 C221 1.378 . S
C218 H260 0.931 1_554 S
C219 C218 1.396 . S
C219 C220 1.382 . S
C220 C216 1.381 . S
C220 C219 1.382 . S
C220 H261 0.930 . S
C221 N217 1.328 . S
C221 C218 1.378 . S
C221 H223 0.930 1_554 S
H222 C216 0.931 . S
H223 C221 0.930 1_556 S
C224 O250 1.238 . S
C224 O251 1.253 . S
C225 C226 1.379 . S
C225 N230 1.337 . S
C225 H231 0.929 . S
C226 C225 1.379 . S
C226 C227 1.380 . S
C226 H262 0.929 . S
C227 C226 1.380 . S
C227 C228 1.399 . S
C228 C227 1.399 . S
C228 C229 1.376 . S
C228 H263 0.931 1_556 S
C229 C228 1.376 . S
C229 N230 1.338 . S
C229 H232 0.930 1_556 S
N230 Cd215 2.304 . S
N230 C225 1.337 . S
N230 C229 1.338 . S
H231 C225 0.929 . S
H232 C229 0.930 1_554 S
C233 N234 1.332 . S
C233 C237 1.381 . S
C233 H239 0.931 . S
N234 Cd215 2.334 1_565 S
N234 C233 1.332 . S
N234 C238 1.328 . S
C235 C236 1.396 . S
C235 C238 1.378 . S
C235 H264 0.931 1_556 S
C236 C235 1.396 . S
C236 C237 1.382 . S
C237 C233 1.381 . S
C237 C236 1.382 . S
C237 H265 0.930 . S
C238 N234 1.328 . S
C238 C235 1.378 . S
C238 H240 0.930 1_566 S
H239 C233 0.931 . S
H240 C238 0.930 1_544 S
C241 O252 1.238 . S
C241 O253 1.253 . S
C242 O254 1.239 . S
C242 O255 1.230 . S
N243 Cd214 2.304 1_545 S
N243 C244 1.337 . S
N243 C248 1.338 . S
C244 N243 1.337 . S
C244 C245 1.379 . S
C244 H258 0.929 . S
C245 C244 1.379 . S
C245 C246 1.380 . S
C245 H266 0.929 . S
C246 C245 1.380 . S
C246 C247 1.399 . S
C247 C246 1.399 . S
C247 C248 1.376 . S
C247 H267 0.931 1_554 S
C248 N243 1.338 . S
C248 C247 1.376 . S
C248 H259 0.930 1_544 S
C249 O256 1.239 . S
C249 O257 1.230 . S
O250 Cd214 2.268 1_556 S
O250 C224 1.238 . S
O251 Cd215 2.273 1_565 S
O251 C224 1.253 . S
O252 Cd215 2.268 1_554 S
O252 C241 1.238 . S
O253 Cd214 2.273 1_545 S
O253 C241 1.253 . S
O254 Cd214 2.417 . S
O254 C242 1.239 . S
O255 Cd214 2.330 . S
O255 C242 1.230 . S
O256 Cd215 2.417 . S
O256 C249 1.239 . S
O257 Cd215 2.330 . S
O257 C249 1.230 . S
H258 C244 0.929 . S
H259 C248 0.930 1_566 S
H260 C218 0.931 1_556 S
H261 C220 0.930 . S
H262 C226 0.929 . S
H263 C228 0.931 1_554 S
H264 C235 0.931 1_554 S
H265 C237 0.930 . S
H266 C245 0.929 . S
H267 C247 0.931 1_556 S
Cd268 N271 2.334 1_655 S
Cd268 N297 2.304 . S
Cd268 O304 2.268 1_554 S
Cd268 O307 2.273 1_655 S
Cd268 O308 2.417 . S
Cd268 O309 2.330 . S
Cd269 N284 2.304 1_455 S
Cd269 N288 2.334 . S
Cd269 O305 2.273 1_455 S
Cd269 O306 2.268 1_556 S
Cd269 O310 2.417 . S
Cd269 O311 2.330 . S
C270 N271 1.332 . S
C270 C274 1.381 . S
C270 H276 0.931 . S
N271 Cd268 2.334 1_455 S
N271 C270 1.332 . S
N271 C275 1.328 . S
C272 C273 1.396 . S
C272 C275 1.378 . S
C272 H314 0.931 1_554 S
C273 C272 1.396 . S
C273 C274 1.382 . S
C274 C270 1.381 . S
C274 C273 1.382 . S
C274 H315 0.930 . S
C275 N271 1.328 . S
C275 C272 1.378 . S
C275 H277 0.930 1_454 S
H276 C270 0.931 . S
H277 C275 0.930 1_656 S
C278 O304 1.238 . S
C278 O305 1.253 . S
C279 C280 1.379 . S
C279 N284 1.337 . S
C279 H285 0.929 . S
C280 C279 1.379 . S
C280 C281 1.380 . S
C280 H316 0.929 . S
C281 C280 1.380 . S
C281 C282 1.399 . S
C282 C281 1.399 . S
C282 C283 1.376 . S
C282 H317 0.931 1_556 S
C283 C282 1.376 . S
C283 N284 1.338 . S
C283 H286 0.930 1_656 S
N284 Cd269 2.304 1_655 S
N284 C279 1.337 . S
N284 C283 1.338 . S
H285 C279 0.929 . S
H286 C283 0.930 1_454 S
C287 N288 1.332 . S
C287 C291 1.381 . S
C287 H293 0.931 . S
N288 Cd269 2.334 . S
N288 C287 1.332 . S
N288 C292 1.328 . S
C289 C290 1.396 . S
C289 C292 1.378 . S
C289 H318 0.931 1_556 S
C290 C289 1.396 . S
C290 C291 1.382 . S
C291 C287 1.381 . S
C291 C290 1.382 . S
C291 H319 0.930 . S
C292 N288 1.328 . S
C292 C289 1.378 . S
C292 H294 0.930 1_556 S
H293 C287 0.931 . S
H294 C292 0.930 1_554 S
C295 O306 1.238 . S
C295 O307 1.253 . S
C296 O308 1.239 . S
C296 O309 1.230 . S
N297 Cd268 2.304 . S
N297 C298 1.337 . S
N297 C302 1.338 . S
C298 N297 1.337 . S
C298 C299 1.379 . S
C298 H312 0.929 . S
C299 C298 1.379 . S
C299 C300 1.380 . S
C299 H320 0.929 . S
C300 C299 1.380 . S
C300 C301 1.399 . S
C301 C300 1.399 . S
C301 C302 1.376 . S
C301 H321 0.931 1_554 S
C302 N297 1.338 . S
C302 C301 1.376 . S
C302 H313 0.930 1_554 S
C303 O310 1.239 . S
C303 O311 1.230 . S
O304 Cd268 2.268 1_556 S
O304 C278 1.238 . S
O305 Cd269 2.273 1_655 S
O305 C278 1.253 . S
O306 Cd269 2.268 1_554 S
O306 C295 1.238 . S
O307 Cd268 2.273 1_455 S
O307 C295 1.253 . S
O308 Cd268 2.417 . S
O308 C296 1.239 . S
O309 Cd268 2.330 . S
O309 C296 1.230 . S
O310 Cd269 2.417 . S
O310 C303 1.239 . S
O311 Cd269 2.330 . S
O311 C303 1.230 . S
H312 C298 0.929 . S
H313 C302 0.930 1_556 S
H314 C272 0.931 1_556 S
H315 C274 0.930 . S
H316 C280 0.929 . S
H317 C282 0.931 1_554 S
H318 C289 0.931 1_554 S
H319 C291 0.930 . S
H320 C299 0.929 . S
H321 C301 0.931 1_556 S
Cd322 N325 2.334 . S
Cd322 N351 2.304 . S
Cd322 O358 2.268 1_554 S
Cd322 O361 2.273 . S
Cd322 O362 2.417 . S
Cd322 O363 2.330 . S
Cd323 N338 2.304 . S
Cd323 N342 2.334 . S
Cd323 O359 2.273 . S
Cd323 O360 2.268 1_556 S
Cd323 O364 2.417 . S
Cd323 O365 2.330 . S
C324 N325 1.332 . S
C324 C328 1.381 . S
C324 H330 0.931 . S
N325 Cd322 2.334 . S
N325 C324 1.332 . S
N325 C329 1.328 . S
C326 C327 1.396 . S
C326 C329 1.378 . S
C326 H368 0.931 1_554 S
C327 C326 1.396 . S
C327 C328 1.382 . S
C328 C324 1.381 . S
C328 C327 1.382 . S
C328 H369 0.930 . S
C329 N325 1.328 . S
C329 C326 1.378 . S
C329 H331 0.930 1_554 S
H330 C324 0.931 . S
H331 C329 0.930 1_556 S
C332 O358 1.238 . S
C332 O359 1.253 . S
C333 C334 1.379 . S
C333 N338 1.337 . S
C333 H339 0.929 . S
C334 C333 1.379 . S
C334 C335 1.380 . S
C334 H370 0.929 . S
C335 C334 1.380 . S
C335 C336 1.399 . S
C336 C335 1.399 . S
C336 C337 1.376 . S
C336 H371 0.931 1_556 S
C337 C336 1.376 . S
C337 N338 1.338 . S
C337 H340 0.930 1_556 S
N338 Cd323 2.304 . S
N338 C333 1.337 . S
N338 C337 1.338 . S
H339 C333 0.929 . S
H340 C337 0.930 1_554 S
C341 N342 1.332 . S
C341 C345 1.381 . S
C341 H347 0.931 . S
N342 Cd323 2.334 . S
N342 C341 1.332 . S
N342 C346 1.328 . S
C343 C344 1.396 . S
C343 C346 1.378 . S
C343 H372 0.931 1_556 S
C344 C343 1.396 . S
C344 C345 1.382 . S
C345 C341 1.381 . S
C345 C344 1.382 . S
C345 H373 0.930 . S
C346 N342 1.328 . S
C346 C343 1.378 . S
C346 H348 0.930 1_556 S
H347 C341 0.931 . S
H348 C346 0.930 1_554 S
C349 O360 1.238 . S
C349 O361 1.253 . S
C350 O362 1.239 . S
C350 O363 1.230 . S
N351 Cd322 2.304 . S
N351 C352 1.337 . S
N351 C356 1.338 . S
C352 N351 1.337 . S
C352 C353 1.379 . S
C352 H366 0.929 . S
C353 C352 1.379 . S
C353 C354 1.380 . S
C353 H374 0.929 . S
C354 C353 1.380 . S
C354 C355 1.399 . S
C355 C354 1.399 . S
C355 C356 1.376 . S
C355 H375 0.931 1_554 S
C356 N351 1.338 . S
C356 C355 1.376 . S
C356 H367 0.930 1_554 S
C357 O364 1.239 . S
C357 O365 1.230 . S
O358 Cd322 2.268 1_556 S
O358 C332 1.238 . S
O359 Cd323 2.273 . S
O359 C332 1.253 . S
O360 Cd323 2.268 1_554 S
O360 C349 1.238 . S
O361 Cd322 2.273 . S
O361 C349 1.253 . S
O362 Cd322 2.417 . S
O362 C350 1.239 . S
O363 Cd322 2.330 . S
O363 C350 1.230 . S
O364 Cd323 2.417 . S
O364 C357 1.239 . S
O365 Cd323 2.330 . S
O365 C357 1.230 . S
H366 C352 0.929 . S
H367 C356 0.930 1_556 S
H368 C326 0.931 1_556 S
H369 C328 0.930 . S
H370 C334 0.929 . S
H371 C336 0.931 1_554 S
H372 C343 0.931 1_554 S
H373 C345 0.930 . S
H374 C353 0.929 . S
H375 C355 0.931 1_556 S
Cd376 N379 2.334 1_655 S
Cd376 N405 2.304 . S
Cd376 O412 2.268 . S
Cd376 O415 2.273 1_655 S
Cd376 O416 2.417 . S
Cd376 O417 2.330 . S
Cd377 N392 2.304 1_455 S
Cd377 N396 2.334 . S
Cd377 O413 2.273 1_455 S
Cd377 O414 2.268 . S
Cd377 O418 2.417 . S
Cd377 O419 2.330 . S
C378 N379 1.332 . S
C378 C382 1.381 . S
C378 H384 0.931 . S
N379 Cd376 2.334 1_455 S
N379 C378 1.332 . S
N379 C383 1.328 . S
C380 C381 1.396 . S
C380 C383 1.378 . S
C380 H422 0.931 . S
C381 C380 1.396 . S
C381 C382 1.382 . S
C382 C378 1.381 . S
C382 C381 1.382 . S
C382 H423 0.930 . S
C383 N379 1.328 . S
C383 C380 1.378 . S
C383 H385 0.930 1_455 S
H384 C378 0.931 . S
H385 C383 0.930 1_655 S
C386 O412 1.238 . S
C386 O413 1.253 . S
C387 C388 1.379 . S
C387 N392 1.337 . S
C387 H393 0.929 . S
C388 C387 1.379 . S
C388 C389 1.380 . S
C388 H424 0.929 . S
C389 C388 1.380 . S
C389 C390 1.399 . S
C390 C389 1.399 . S
C390 C391 1.376 . S
C390 H425 0.931 . S
C391 C390 1.376 . S
C391 N392 1.338 . S
C391 H394 0.930 1_655 S
N392 Cd377 2.304 1_655 S
N392 C387 1.337 . S
N392 C391 1.338 . S
H393 C387 0.929 . S
H394 C391 0.930 1_455 S
C395 N396 1.332 . S
C395 C399 1.381 . S
C395 H401 0.931 . S
N396 Cd377 2.334 . S
N396 C395 1.332 . S
N396 C400 1.328 . S
C397 C398 1.396 . S
C397 C400 1.378 . S
C397 H426 0.931 . S
C398 C397 1.396 . S
C398 C399 1.382 . S
C399 C395 1.381 . S
C399 C398 1.382 . S
C399 H427 0.930 . S
C400 N396 1.328 . S
C400 C397 1.378 . S
C400 H402 0.930 . S
H401 C395 0.931 . S
H402 C400 0.930 . S
C403 O414 1.238 . S
C403 O415 1.253 . S
C404 O416 1.239 . S
C404 O417 1.230 . S
N405 Cd376 2.304 . S
N405 C406 1.337 . S
N405 C410 1.338 . S
C406 N405 1.337 . S
C406 C407 1.379 . S
C406 H420 0.929 . S
C407 C406 1.379 . S
C407 C408 1.380 . S
C407 H428 0.929 . S
C408 C407 1.380 . S
C408 C409 1.399 . S
C409 C408 1.399 . S
C409 C410 1.376 . S
C409 H429 0.931 . S
C410 N405 1.338 . S
C410 C409 1.376 . S
C410 H421 0.930 . S
C411 O418 1.239 . S
C411 O419 1.230 . S
O412 Cd376 2.268 . S
O412 C386 1.238 . S
O413 Cd377 2.273 1_655 S
O413 C386 1.253 . S
O414 Cd377 2.268 . S
O414 C403 1.238 . S
O415 Cd376 2.273 1_455 S
O415 C403 1.253 . S
O416 Cd376 2.417 . S
O416 C404 1.239 . S
O417 Cd376 2.330 . S
O417 C404 1.230 . S
O418 Cd377 2.417 . S
O418 C411 1.239 . S
O419 Cd377 2.330 . S
O419 C411 1.230 . S
H420 C406 0.929 . S
H421 C410 0.930 . S
H422 C380 0.931 . S
H423 C382 0.930 . S
H424 C388 0.929 . S
H425 C390 0.931 . S
H426 C397 0.931 . S
H427 C399 0.930 . S
H428 C407 0.929 . S
H429 C409 0.931 . S
Cd430 N433 2.334 . S
Cd430 N459 2.304 1_565 S
Cd430 O466 2.268 . S
Cd430 O469 2.273 1_565 S
Cd430 O470 2.417 . S
Cd430 O471 2.330 . S
Cd431 N446 2.304 . S
Cd431 N450 2.334 1_545 S
Cd431 O467 2.273 1_545 S
Cd431 O468 2.268 . S
Cd431 O472 2.417 . S
Cd431 O473 2.330 . S
C432 N433 1.332 . S
C432 C436 1.381 . S
C432 H438 0.931 . S
N433 Cd430 2.334 . S
N433 C432 1.332 . S
N433 C437 1.328 . S
C434 C435 1.396 . S
C434 C437 1.378 . S
C434 H476 0.931 . S
C435 C434 1.396 . S
C435 C436 1.382 . S
C436 C432 1.381 . S
C436 C435 1.382 . S
C436 H477 0.930 . S
C437 N433 1.328 . S
C437 C434 1.378 . S
C437 H439 0.930 . S
H438 C432 0.931 . S
H439 C437 0.930 . S
C440 O466 1.238 . S
C440 O467 1.253 . S
C441 C442 1.379 . S
C441 N446 1.337 . S
C441 H447 0.929 . S
C442 C441 1.379 . S
C442 C443 1.380 . S
C442 H478 0.929 . S
C443 C442 1.380 . S
C443 C444 1.399 . S
C444 C443 1.399 . S
C444 C445 1.376 . S
C444 H479 0.931 . S
C445 C444 1.376 . S
C445 N446 1.338 . S
C445 H448 0.930 . S
N446 Cd431 2.304 . S
N446 C441 1.337 . S
N446 C445 1.338 . S
H447 C441 0.929 . S
H448 C445 0.930 . S
C449 N450 1.332 . S
C449 C453 1.381 . S
C449 H455 0.931 . S
N450 Cd431 2.334 1_565 S
N450 C449 1.332 . S
N450 C454 1.328 . S
C451 C452 1.396 . S
C451 C454 1.378 . S
C451 H480 0.931 . S
C452 C451 1.396 . S
C452 C453 1.382 . S
C453 C449 1.381 . S
C453 C452 1.382 . S
C453 H481 0.930 . S
C454 N450 1.328 . S
C454 C451 1.378 . S
C454 H456 0.930 1_565 S
H455 C449 0.931 . S
H456 C454 0.930 1_545 S
C457 O468 1.238 . S
C457 O469 1.253 . S
C458 O470 1.239 . S
C458 O471 1.230 . S
N459 Cd430 2.304 1_545 S
N459 C460 1.337 . S
N459 C464 1.338 . S
C460 N459 1.337 . S
C460 C461 1.379 . S
C460 H474 0.929 . S
C461 C460 1.379 . S
C461 C462 1.380 . S
C461 H482 0.929 . S
C462 C461 1.380 . S
C462 C463 1.399 . S
C463 C462 1.399 . S
C463 C464 1.376 . S
C463 H483 0.931 . S
C464 N459 1.338 . S
C464 C463 1.376 . S
C464 H475 0.930 1_545 S
C465 O472 1.239 . S
C465 O473 1.230 . S
O466 Cd430 2.268 . S
O466 C440 1.238 . S
O467 Cd431 2.273 1_565 S
O467 C440 1.253 . S
O468 Cd431 2.268 . S
O468 C457 1.238 . S
O469 Cd430 2.273 1_545 S
O469 C457 1.253 . S
O470 Cd430 2.417 . S
O470 C458 1.239 . S
O471 Cd430 2.330 . S
O471 C458 1.230 . S
O472 Cd431 2.417 . S
O472 C465 1.239 . S
O473 Cd431 2.330 . S
O473 C465 1.230 . S
H474 C460 0.929 . S
H475 C464 0.930 1_565 S
H476 C434 0.931 . S
H477 C436 0.930 . S
H478 C442 0.929 . S
H479 C444 0.931 . S
H480 C451 0.931 . S
H481 C453 0.930 . S
H482 C461 0.929 . S
H483 C463 0.931 . S
H484 C490 0.930 . S
H485 C494 0.930 . S
H486 C499 0.929 . S
H487 C497 0.929 . S
H488 C492 0.929 . S
H489 C498 0.929 . S
C490 H484 0.930 . S
C490 C491 1.367 . S
C490 C498 1.378 . S
C491 C490 1.367 . S
C491 C499 1.433 . S
C492 H488 0.929 . S
C492 C494 1.378 . S
C492 C496 1.350 . S
C493 C496 1.463 . S
C493 C498 1.350 . S
C493 N501 1.427 . S
C494 H485 0.930 . S
C494 C492 1.378 . S
C494 C495 1.367 . S
C495 C494 1.367 . S
C495 C497 1.433 . S
C496 C492 1.350 . S
C496 C493 1.463 . S
C496 N500 1.427 . S
C497 H487 0.929 . S
C497 C495 1.433 . S
C497 N500 1.384 . S
C498 H489 0.929 . S
C498 C490 1.378 . S
C498 C493 1.350 . S
C499 H486 0.929 . S
C499 C491 1.433 . S
C499 N501 1.384 . S
N500 C496 1.427 . S
N500 C497 1.384 . S
N501 C493 1.427 . S
N501 C499 1.384 . S
H502 C508 0.930 . S
H503 C512 0.930 . S
H504 C517 0.929 . S
H505 C515 0.929 . S
H506 C510 0.929 . S
H507 C516 0.929 . S
C508 H502 0.930 . S
C508 C509 1.367 . S
C508 C516 1.378 . S
C509 C508 1.367 . S
C509 C517 1.433 . S
C510 H506 0.929 . S
C510 C512 1.378 . S
C510 C514 1.350 . S
C511 C514 1.463 . S
C511 C516 1.350 . S
C511 N519 1.427 . S
C512 H503 0.930 . S
C512 C510 1.378 . S
C512 C513 1.367 . S
C513 C512 1.367 . S
C513 C515 1.433 . S
C514 C510 1.350 . S
C514 C511 1.463 . S
C514 N518 1.427 . S
C515 H505 0.929 . S
C515 C513 1.433 . S
C515 N518 1.384 . S
C516 H507 0.929 . S
C516 C508 1.378 . S
C516 C511 1.350 . S
C517 H504 0.929 . S
C517 C509 1.433 . S
C517 N519 1.384 . S
N518 C514 1.427 . S
N518 C515 1.384 . S
N519 C511 1.427 . S
N519 C517 1.384 . S
H520 C526 0.930 . S
H521 C530 0.930 . S
H522 C535 0.929 . S
H523 C533 0.929 . S
H524 C528 0.929 . S
H525 C534 0.929 . S
C526 H520 0.930 . S
C526 C527 1.367 . S
C526 C534 1.378 . S
C527 C526 1.367 . S
C527 C535 1.433 . S
C528 H524 0.929 . S
C528 C530 1.378 . S
C528 C532 1.350 . S
C529 C532 1.463 . S
C529 C534 1.350 . S
C529 N537 1.427 . S
C530 H521 0.930 . S
C530 C528 1.378 . S
C530 C531 1.367 . S
C531 C530 1.367 . S
C531 C533 1.433 . S
C532 C528 1.350 . S
C532 C529 1.463 . S
C532 N536 1.427 . S
C533 H523 0.929 . S
C533 C531 1.433 . S
C533 N536 1.384 . S
C534 H525 0.929 . S
C534 C526 1.378 . S
C534 C529 1.350 . S
C535 H522 0.929 . S
C535 C527 1.433 . S
C535 N537 1.384 . S
N536 C532 1.427 . S
N536 C533 1.384 . S
N537 C529 1.427 . S
N537 C535 1.384 . S
H538 C544 0.930 . S
H539 C548 0.930 . S
H540 C553 0.929 . S
H541 C551 0.929 . S
H542 C546 0.929 . S
H543 C552 0.929 . S
C544 H538 0.930 . S
C544 C545 1.367 . S
C544 C552 1.378 . S
C545 C544 1.367 . S
C545 C553 1.433 . S
C546 H542 0.929 . S
C546 C548 1.378 . S
C546 C550 1.350 . S
C547 C550 1.463 . S
C547 C552 1.350 . S
C547 N555 1.427 . S
C548 H539 0.930 . S
C548 C546 1.378 . S
C548 C549 1.367 . S
C549 C548 1.367 . S
C549 C551 1.433 . S
C550 C546 1.350 . S
C550 C547 1.463 . S
C550 N554 1.427 . S
C551 H541 0.929 . S
C551 C549 1.433 . S
C551 N554 1.384 . S
C552 H543 0.929 . S
C552 C544 1.378 . S
C552 C547 1.350 . S
C553 H540 0.929 . S
C553 C545 1.433 . S
C553 N555 1.384 . S
N554 C550 1.427 . S
N554 C551 1.384 . S
N555 C547 1.427 . S
N555 C553 1.384 . S
H556 C562 0.930 . S
H557 C566 0.930 . S
H558 C571 0.929 . S
H559 C569 0.929 . S
H560 C564 0.929 . S
H561 C570 0.929 . S
C562 H556 0.930 . S
C562 C563 1.367 . S
C562 C570 1.378 . S
C563 C562 1.367 . S
C563 C571 1.433 . S
C564 H560 0.929 . S
C564 C566 1.378 . S
C564 C568 1.350 . S
C565 C568 1.463 . S
C565 C570 1.350 . S
C565 N573 1.427 . S
C566 H557 0.930 . S
C566 C564 1.378 . S
C566 C567 1.367 . S
C567 C566 1.367 . S
C567 C569 1.433 . S
C568 C564 1.350 . S
C568 C565 1.463 . S
C568 N572 1.427 . S
C569 H559 0.929 . S
C569 C567 1.433 . S
C569 N572 1.384 . S
C570 H561 0.929 . S
C570 C562 1.378 . S
C570 C565 1.350 . S
C571 H558 0.929 . S
C571 C563 1.433 . S
C571 N573 1.384 . S
N572 C568 1.427 . S
N572 C569 1.384 . S
N573 C565 1.427 . S
N573 C571 1.384 . S
H574 C580 0.930 . S
H575 C584 0.930 . S
H576 C589 0.929 . S
H577 C587 0.929 . S
H578 C582 0.929 . S
H579 C588 0.929 . S
C580 H574 0.930 . S
C580 C581 1.367 . S
C580 C588 1.378 . S
C581 C580 1.367 . S
C581 C589 1.433 . S
C582 H578 0.929 . S
C582 C584 1.378 . S
C582 C586 1.350 . S
C583 C586 1.463 . S
C583 C588 1.350 . S
C583 N591 1.427 . S
C584 H575 0.930 . S
C584 C582 1.378 . S
C584 C585 1.367 . S
C585 C584 1.367 . S
C585 C587 1.433 . S
C586 C582 1.350 . S
C586 C583 1.463 . S
C586 N590 1.427 . S
C587 H577 0.929 . S
C587 C585 1.433 . S
C587 N590 1.384 . S
C588 H579 0.929 . S
C588 C580 1.378 . S
C588 C583 1.350 . S
C589 H576 0.929 . S
C589 C581 1.433 . S
C589 N591 1.384 . S
N590 C586 1.427 . S
N590 C587 1.384 . S
N591 C583 1.427 . S
N591 C589 1.384 . S
H592 C598 0.930 . S
H593 C602 0.930 . S
H594 C607 0.929 . S
H595 C605 0.929 . S
H596 C600 0.929 . S
H597 C606 0.929 . S
C598 H592 0.930 . S
C598 C599 1.367 . S
C598 C606 1.378 . S
C599 C598 1.367 . S
C599 C607 1.433 . S
C600 H596 0.929 . S
C600 C602 1.378 . S
C600 C604 1.350 . S
C601 C604 1.463 . S
C601 C606 1.350 . S
C601 N609 1.427 . S
C602 H593 0.930 . S
C602 C600 1.378 . S
C602 C603 1.367 . S
C603 C602 1.367 . S
C603 C605 1.433 . S
C604 C600 1.350 . S
C604 C601 1.463 . S
C604 N608 1.427 . S
C605 H595 0.929 . S
C605 C603 1.433 . S
C605 N608 1.384 . S
C606 H597 0.929 . S
C606 C598 1.378 . S
C606 C601 1.350 . S
C607 H594 0.929 . S
C607 C599 1.433 . S
C607 N609 1.384 . S
N608 C604 1.427 . S
N608 C605 1.384 . S
N609 C601 1.427 . S
N609 C607 1.384 . S
H610 C616 0.930 . S
H611 C620 0.930 . S
H612 C625 0.929 . S
H613 C623 0.929 . S
H614 C618 0.929 . S
H615 C624 0.929 . S
C616 H610 0.930 . S
C616 C617 1.367 . S
C616 C624 1.378 . S
C617 C616 1.367 . S
C617 C625 1.433 . S
C618 H614 0.929 . S
C618 C620 1.378 . S
C618 C622 1.350 . S
C619 C622 1.463 . S
C619 C624 1.350 . S
C619 N627 1.427 . S
C620 H611 0.930 . S
C620 C618 1.378 . S
C620 C621 1.367 . S
C621 C620 1.367 . S
C621 C623 1.433 . S
C622 C618 1.350 . S
C622 C619 1.463 . S
C622 N626 1.427 . S
C623 H613 0.929 . S
C623 C621 1.433 . S
C623 N626 1.384 . S
C624 H615 0.929 . S
C624 C616 1.378 . S
C624 C619 1.350 . S
C625 H612 0.929 . S
C625 C617 1.433 . S
C625 N627 1.384 . S
N626 C622 1.427 . S
N626 C623 1.384 . S
N627 C619 1.427 . S
N627 C625 1.384 . S
H628 C634 0.930 . S
H629 C638 0.930 . S
H630 C643 0.929 . S
H631 C641 0.929 . S
H632 C636 0.929 . S
H633 C642 0.929 . S
C634 H628 0.930 . S
C634 C635 1.367 . S
C634 C642 1.378 . S
C635 C634 1.367 . S
C635 C643 1.433 . S
C636 H632 0.929 . S
C636 C638 1.378 . S
C636 C640 1.350 . S
C637 C640 1.463 . S
C637 C642 1.350 . S
C637 N645 1.427 . S
C638 H629 0.930 . S
C638 C636 1.378 . S
C638 C639 1.367 . S
C639 C638 1.367 . S
C639 C641 1.433 . S
C640 C636 1.350 . S
C640 C637 1.463 . S
C640 N644 1.427 . S
C641 H631 0.929 . S
C641 C639 1.433 . S
C641 N644 1.384 . S
C642 H633 0.929 . S
C642 C634 1.378 . S
C642 C637 1.350 . S
C643 H630 0.929 . S
C643 C635 1.433 . S
C643 N645 1.384 . S
N644 C640 1.427 . S
N644 C641 1.384 . S
N645 C637 1.427 . S
N645 C643 1.384 . S
H646 C652 0.930 . S
H647 C656 0.930 . S
H648 C661 0.929 . S
H649 C659 0.929 . S
H650 C654 0.929 . S
H651 C660 0.929 . S
C652 H646 0.930 . S
C652 C653 1.367 . S
C652 C660 1.378 . S
C653 C652 1.367 . S
C653 C661 1.433 . S
C654 H650 0.929 . S
C654 C656 1.378 . S
C654 C658 1.350 . S
C655 C658 1.463 . S
C655 C660 1.350 . S
C655 N663 1.427 . S
C656 H647 0.930 . S
C656 C654 1.378 . S
C656 C657 1.367 . S
C657 C656 1.367 . S
C657 C659 1.433 . S
C658 C654 1.350 . S
C658 C655 1.463 . S
C658 N662 1.427 . S
C659 H649 0.929 . S
C659 C657 1.433 . S
C659 N662 1.384 . S
C660 H651 0.929 . S
C660 C652 1.378 . S
C660 C655 1.350 . S
C661 H648 0.929 . S
C661 C653 1.433 . S
C661 N663 1.384 . S
N662 C658 1.427 . S
N662 C659 1.384 . S
N663 C655 1.427 . S
N663 C661 1.384 . S
H664 C670 0.930 . S
H665 C674 0.930 . S
H666 C679 0.929 . S
H667 C677 0.929 . S
H668 C672 0.929 . S
H669 C678 0.929 . S
C670 H664 0.930 . S
C670 C671 1.367 . S
C670 C678 1.378 . S
C671 C670 1.367 . S
C671 C679 1.433 . S
C672 H668 0.929 . S
C672 C674 1.378 . S
C672 C676 1.350 . S
C673 C676 1.463 . S
C673 C678 1.350 . S
C673 N681 1.427 . S
C674 H665 0.930 . S
C674 C672 1.378 . S
C674 C675 1.367 . S
C675 C674 1.367 . S
C675 C677 1.433 . S
C676 C672 1.350 . S
C676 C673 1.463 . S
C676 N680 1.427 . S
C677 H667 0.929 . S
C677 C675 1.433 . S
C677 N680 1.384 . S
C678 H669 0.929 . S
C678 C670 1.378 . S
C678 C673 1.350 . S
C679 H666 0.929 . S
C679 C671 1.433 . S
C679 N681 1.384 . S
N680 C676 1.427 . S
N680 C677 1.384 . S
N681 C673 1.427 . S
N681 C679 1.384 . S
H682 C688 0.930 . S
H683 C692 0.930 . S
H684 C697 0.929 . S
H685 C695 0.929 . S
H686 C690 0.929 . S
H687 C696 0.929 . S
C688 H682 0.930 . S
C688 C689 1.367 . S
C688 C696 1.378 . S
C689 C688 1.367 . S
C689 C697 1.433 . S
C690 H686 0.929 . S
C690 C692 1.378 . S
C690 C694 1.350 . S
C691 C694 1.463 . S
C691 C696 1.350 . S
C691 N699 1.427 . S
C692 H683 0.930 . S
C692 C690 1.378 . S
C692 C693 1.367 . S
C693 C692 1.367 . S
C693 C695 1.433 . S
C694 C690 1.350 . S
C694 C691 1.463 . S
C694 N698 1.427 . S
C695 H685 0.929 . S
C695 C693 1.433 . S
C695 N698 1.384 . S
C696 H687 0.929 . S
C696 C688 1.378 . S
C696 C691 1.350 . S
C697 H684 0.929 . S
C697 C689 1.433 . S
C697 N699 1.384 . S
N698 C694 1.427 . S
N698 C695 1.384 . S
N699 C691 1.427 . S
N699 C697 1.384 . S
H700 C706 0.930 . S
H701 C710 0.930 . S
H702 C715 0.929 . S
H703 C713 0.929 . S
H704 C708 0.929 . S
H705 C714 0.929 . S
C706 H700 0.930 . S
C706 C707 1.367 . S
C706 C714 1.378 . S
C707 C706 1.367 . S
C707 C715 1.433 . S
C708 H704 0.929 . S
C708 C710 1.378 . S
C708 C712 1.350 . S
C709 C712 1.463 . S
C709 C714 1.350 . S
C709 N717 1.427 . S
C710 H701 0.930 . S
C710 C708 1.378 . S
C710 C711 1.367 . S
C711 C710 1.367 . S
C711 C713 1.433 . S
C712 C708 1.350 . S
C712 C709 1.463 . S
C712 N716 1.427 . S
C713 H703 0.929 . S
C713 C711 1.433 . S
C713 N716 1.384 . S
C714 H705 0.929 . S
C714 C706 1.378 . S
C714 C709 1.350 . S
C715 H702 0.929 . S
C715 C707 1.433 . S
C715 N717 1.384 . S
N716 C712 1.427 . S
N716 C713 1.384 . S
N717 C709 1.427 . S
N717 C715 1.384 . S
H718 C724 0.930 . S
H719 C728 0.930 . S
H720 C733 0.929 . S
H721 C731 0.929 . S
H722 C726 0.929 . S
H723 C732 0.929 . S
C724 H718 0.930 . S
C724 C725 1.367 . S
C724 C732 1.378 . S
C725 C724 1.367 . S
C725 C733 1.433 . S
C726 H722 0.929 . S
C726 C728 1.378 . S
C726 C730 1.350 . S
C727 C730 1.463 . S
C727 C732 1.350 . S
C727 N735 1.427 . S
C728 H719 0.930 . S
C728 C726 1.378 . S
C728 C729 1.367 . S
C729 C728 1.367 . S
C729 C731 1.433 . S
C730 C726 1.350 . S
C730 C727 1.463 . S
C730 N734 1.427 . S
C731 H721 0.929 . S
C731 C729 1.433 . S
C731 N734 1.384 . S
C732 H723 0.929 . S
C732 C724 1.378 . S
C732 C727 1.350 . S
C733 H720 0.929 . S
C733 C725 1.433 . S
C733 N735 1.384 . S
N734 C730 1.427 . S
N734 C731 1.384 . S
N735 C727 1.427 . S
N735 C733 1.384 . S
H736 C742 0.930 . S
H737 C746 0.930 . S
H738 C751 0.929 . S
H739 C749 0.929 . S
H740 C744 0.929 . S
H741 C750 0.929 . S
C742 H736 0.930 . S
C742 C743 1.367 . S
C742 C750 1.378 . S
C743 C742 1.367 . S
C743 C751 1.433 . S
C744 H740 0.929 . S
C744 C746 1.378 . S
C744 C748 1.350 . S
C745 C748 1.463 . S
C745 C750 1.350 . S
C745 N753 1.427 . S
C746 H737 0.930 . S
C746 C744 1.378 . S
C746 C747 1.367 . S
C747 C746 1.367 . S
C747 C749 1.433 . S
C748 C744 1.350 . S
C748 C745 1.463 . S
C748 N752 1.427 . S
C749 H739 0.929 . S
C749 C747 1.433 . S
C749 N752 1.384 . S
C750 H741 0.929 . S
C750 C742 1.378 . S
C750 C745 1.350 . S
C751 H738 0.929 . S
C751 C743 1.433 . S
C751 N753 1.384 . S
N752 C748 1.427 . S
N752 C749 1.384 . S
N753 C745 1.427 . S
N753 C751 1.384 . S
H754 C760 0.930 . S
H755 C764 0.930 . S
H756 C769 0.929 . S
H757 C767 0.929 . S
H758 C762 0.929 . S
H759 C768 0.929 . S
C760 H754 0.930 . S
C760 C761 1.367 . S
C760 C768 1.378 . S
C761 C760 1.367 . S
C761 C769 1.433 . S
C762 H758 0.929 . S
C762 C764 1.378 . S
C762 C766 1.350 . S
C763 C766 1.463 . S
C763 C768 1.350 . S
C763 N771 1.427 . S
C764 H755 0.930 . S
C764 C762 1.378 . S
C764 C765 1.367 . S
C765 C764 1.367 . S
C765 C767 1.433 . S
C766 C762 1.350 . S
C766 C763 1.463 . S
C766 N770 1.427 . S
C767 H757 0.929 . S
C767 C765 1.433 . S
C767 N770 1.384 . S
C768 H759 0.929 . S
C768 C760 1.378 . S
C768 C763 1.350 . S
C769 H756 0.929 . S
C769 C761 1.433 . S
C769 N771 1.384 . S
N770 C766 1.427 . S
N770 C767 1.384 . S
N771 C763 1.427 . S
N771 C769 1.384 . S
H772 C778 0.930 . S
H773 C782 0.930 . S
H774 C787 0.929 . S
H775 C785 0.929 . S
H776 C780 0.929 . S
H777 C786 0.929 . S
C778 H772 0.930 . S
C778 C779 1.367 . S
C778 C786 1.378 . S
C779 C778 1.367 . S
C779 C787 1.433 . S
C780 H776 0.929 . S
C780 C782 1.378 . S
C780 C784 1.350 . S
C781 C784 1.463 . S
C781 C786 1.350 . S
C781 N789 1.427 . S
C782 H773 0.930 . S
C782 C780 1.378 . S
C782 C783 1.367 . S
C783 C782 1.367 . S
C783 C785 1.433 . S
C784 C780 1.350 . S
C784 C781 1.463 . S
C784 N788 1.427 . S
C785 H775 0.929 . S
C785 C783 1.433 . S
C785 N788 1.384 . S
C786 H777 0.929 . S
C786 C778 1.378 . S
C786 C781 1.350 . S
C787 H774 0.929 . S
C787 C779 1.433 . S
C787 N789 1.384 . S
N788 C784 1.427 . S
N788 C785 1.384 . S
N789 C781 1.427 . S
N789 C787 1.384 . S
H790 C796 0.930 . S
H791 C800 0.930 . S
H792 C805 0.929 . S
H793 C803 0.929 . S
H794 C798 0.929 . S
H795 C804 0.929 . S
C796 H790 0.930 . S
C796 C797 1.367 . S
C796 C804 1.378 . S
C797 C796 1.367 . S
C797 C805 1.433 . S
C798 H794 0.929 . S
C798 C800 1.378 . S
C798 C802 1.350 . S
C799 C802 1.463 . S
C799 C804 1.350 . S
C799 N807 1.427 . S
C800 H791 0.930 . S
C800 C798 1.378 . S
C800 C801 1.367 . S
C801 C800 1.367 . S
C801 C803 1.433 . S
C802 C798 1.350 . S
C802 C799 1.463 . S
C802 N806 1.427 . S
C803 H793 0.929 . S
C803 C801 1.433 . S
C803 N806 1.384 . S
C804 H795 0.929 . S
C804 C796 1.378 . S
C804 C799 1.350 . S
C805 H792 0.929 . S
C805 C797 1.433 . S
C805 N807 1.384 . S
N806 C802 1.427 . S
N806 C803 1.384 . S
N807 C799 1.427 . S
N807 C805 1.384 . S
H808 C814 0.930 . S
H809 C818 0.930 . S
H810 C823 0.929 . S
H811 C821 0.929 . S
H812 C816 0.929 . S
H813 C822 0.929 . S
C814 H808 0.930 . S
C814 C815 1.367 . S
C814 C822 1.378 . S
C815 C814 1.367 . S
C815 C823 1.433 . S
C816 H812 0.929 . S
C816 C818 1.378 . S
C816 C820 1.350 . S
C817 C820 1.463 . S
C817 C822 1.350 . S
C817 N825 1.427 . S
C818 H809 0.930 . S
C818 C816 1.378 . S
C818 C819 1.367 . S
C819 C818 1.367 . S
C819 C821 1.433 . S
C820 C816 1.350 . S
C820 C817 1.463 . S
C820 N824 1.427 . S
C821 H811 0.929 . S
C821 C819 1.433 . S
C821 N824 1.384 . S
C822 H813 0.929 . S
C822 C814 1.378 . S
C822 C817 1.350 . S
C823 H810 0.929 . S
C823 C815 1.433 . S
C823 N825 1.384 . S
N824 C820 1.427 . S
N824 C821 1.384 . S
N825 C817 1.427 . S
N825 C823 1.384 . S
H826 C832 0.930 . S
H827 C836 0.930 . S
H828 C841 0.929 . S
H829 C839 0.929 . S
H830 C834 0.929 . S
H831 C840 0.929 . S
C832 H826 0.930 . S
C832 C833 1.367 . S
C832 C840 1.378 . S
C833 C832 1.367 . S
C833 C841 1.433 . S
C834 H830 0.929 . S
C834 C836 1.378 . S
C834 C838 1.350 . S
C835 C838 1.463 . S
C835 C840 1.350 . S
C835 N843 1.427 . S
C836 H827 0.930 . S
C836 C834 1.378 . S
C836 C837 1.367 . S
C837 C836 1.367 . S
C837 C839 1.433 . S
C838 C834 1.350 . S
C838 C835 1.463 . S
C838 N842 1.427 . S
C839 H829 0.929 . S
C839 C837 1.433 . S
C839 N842 1.384 . S
C840 H831 0.929 . S
C840 C832 1.378 . S
C840 C835 1.350 . S
C841 H828 0.929 . S
C841 C833 1.433 . S
C841 N843 1.384 . S
N842 C838 1.427 . S
N842 C839 1.384 . S
N843 C835 1.427 . S
N843 C841 1.384 . S
H844 C850 0.930 . S
H845 C854 0.930 . S
H846 C859 0.929 . S
H847 C857 0.929 . S
H848 C852 0.929 . S
H849 C858 0.929 . S
C850 H844 0.930 . S
C850 C851 1.367 . S
C850 C858 1.378 . S
C851 C850 1.367 . S
C851 C859 1.433 . S
C852 H848 0.929 . S
C852 C854 1.378 . S
C852 C856 1.350 . S
C853 C856 1.463 . S
C853 C858 1.350 . S
C853 N861 1.427 . S
C854 H845 0.930 . S
C854 C852 1.378 . S
C854 C855 1.367 . S
C855 C854 1.367 . S
C855 C857 1.433 . S
C856 C852 1.350 . S
C856 C853 1.463 . S
C856 N860 1.427 . S
C857 H847 0.929 . S
C857 C855 1.433 . S
C857 N860 1.384 . S
C858 H849 0.929 . S
C858 C850 1.378 . S
C858 C853 1.350 . S
C859 H846 0.929 . S
C859 C851 1.433 . S
C859 N861 1.384 . S
N860 C856 1.427 . S
N860 C857 1.384 . S
N861 C853 1.427 . S
N861 C859 1.384 . S
H862 C868 0.930 . S
H863 C872 0.930 . S
H864 C877 0.929 . S
H865 C875 0.929 . S
H866 C870 0.929 . S
H867 C876 0.929 . S
C868 H862 0.930 . S
C868 C869 1.367 . S
C868 C876 1.378 . S
C869 C868 1.367 . S
C869 C877 1.433 . S
C870 H866 0.929 . S
C870 C872 1.378 . S
C870 C874 1.350 . S
C871 C874 1.463 . S
C871 C876 1.350 . S
C871 N879 1.427 . S
C872 H863 0.930 . S
C872 C870 1.378 . S
C872 C873 1.367 . S
C873 C872 1.367 . S
C873 C875 1.433 . S
C874 C870 1.350 . S
C874 C871 1.463 . S
C874 N878 1.427 . S
C875 H865 0.929 . S
C875 C873 1.433 . S
C875 N878 1.384 . S
C876 H867 0.929 . S
C876 C868 1.378 . S
C876 C871 1.350 . S
C877 H864 0.929 . S
C877 C869 1.433 . S
C877 N879 1.384 . S
N878 C874 1.427 . S
N878 C875 1.384 . S
N879 C871 1.427 . S
N879 C877 1.384 . S
H880 C886 0.930 . S
H881 C890 0.930 . S
H882 C895 0.929 . S
H883 C893 0.929 . S
H884 C888 0.929 . S
H885 C894 0.929 . S
C886 H880 0.930 . S
C886 C887 1.367 . S
C886 C894 1.378 . S
C887 C886 1.367 . S
C887 C895 1.433 . S
C888 H884 0.929 . S
C888 C890 1.378 . S
C888 C892 1.350 . S
C889 C892 1.463 . S
C889 C894 1.350 . S
C889 N897 1.427 . S
C890 H881 0.930 . S
C890 C888 1.378 . S
C890 C891 1.367 . S
C891 C890 1.367 . S
C891 C893 1.433 . S
C892 C888 1.350 . S
C892 C889 1.463 . S
C892 N896 1.427 . S
C893 H883 0.929 . S
C893 C891 1.433 . S
C893 N896 1.384 . S
C894 H885 0.929 . S
C894 C886 1.378 . S
C894 C889 1.350 . S
C895 H882 0.929 . S
C895 C887 1.433 . S
C895 N897 1.384 . S
N896 C892 1.427 . S
N896 C893 1.384 . S
N897 C889 1.427 . S
N897 C895 1.384 . S
H898 C904 0.930 . S
H899 C908 0.930 . S
H900 C913 0.929 . S
H901 C911 0.929 . S
H902 C906 0.929 . S
H903 C912 0.929 . S
C904 H898 0.930 . S
C904 C905 1.367 . S
C904 C912 1.378 . S
C905 C904 1.367 . S
C905 C913 1.433 . S
C906 H902 0.929 . S
C906 C908 1.378 . S
C906 C910 1.350 . S
C907 C910 1.463 . S
C907 C912 1.350 . S
C907 N915 1.427 . S
C908 H899 0.930 . S
C908 C906 1.378 . S
C908 C909 1.367 . S
C909 C908 1.367 . S
C909 C911 1.433 . S
C910 C906 1.350 . S
C910 C907 1.463 . S
C910 N914 1.427 . S
C911 H901 0.929 . S
C911 C909 1.433 . S
C911 N914 1.384 . S
C912 H903 0.929 . S
C912 C904 1.378 . S
C912 C907 1.350 . S
C913 H900 0.929 . S
C913 C905 1.433 . S
C913 N915 1.384 . S
N914 C910 1.427 . S
N914 C911 1.384 . S
N915 C907 1.427 . S
N915 C913 1.384 . S
H916 C922 0.930 . S
H917 C926 0.930 . S
H918 C931 0.929 . S
H919 C929 0.929 . S
H920 C924 0.929 . S
H921 C930 0.929 . S
C922 H916 0.930 . S
C922 C923 1.367 . S
C922 C930 1.378 . S
C923 C922 1.367 . S
C923 C931 1.433 . S
C924 H920 0.929 . S
C924 C926 1.378 . S
C924 C928 1.350 . S
C925 C928 1.463 . S
C925 C930 1.350 . S
C925 N933 1.427 . S
C926 H917 0.930 . S
C926 C924 1.378 . S
C926 C927 1.367 . S
C927 C926 1.367 . S
C927 C929 1.433 . S
C928 C924 1.350 . S
C928 C925 1.463 . S
C928 N932 1.427 . S
C929 H919 0.929 . S
C929 C927 1.433 . S
C929 N932 1.384 . S
C930 H921 0.929 . S
C930 C922 1.378 . S
C930 C925 1.350 . S
C931 H918 0.929 . S
C931 C923 1.433 . S
C931 N933 1.384 . S
N932 C928 1.427 . S
N932 C929 1.384 . S
N933 C925 1.427 . S
N933 C931 1.384 . S
H934 C940 0.930 . S
H935 C944 0.930 . S
H936 C949 0.929 . S
H937 C947 0.929 . S
H938 C942 0.929 . S
H939 C948 0.929 . S
C940 H934 0.930 . S
C940 C941 1.367 . S
C940 C948 1.378 . S
C941 C940 1.367 . S
C941 C949 1.433 . S
C942 H938 0.929 . S
C942 C944 1.378 . S
C942 C946 1.350 . S
C943 C946 1.463 . S
C943 C948 1.350 . S
C943 N951 1.427 . S
C944 H935 0.930 . S
C944 C942 1.378 . S
C944 C945 1.367 . S
C945 C944 1.367 . S
C945 C947 1.433 . S
C946 C942 1.350 . S
C946 C943 1.463 . S
C946 N950 1.427 . S
C947 H937 0.929 . S
C947 C945 1.433 . S
C947 N950 1.384 . S
C948 H939 0.929 . S
C948 C940 1.378 . S
C948 C943 1.350 . S
C949 H936 0.929 . S
C949 C941 1.433 . S
C949 N951 1.384 . S
N950 C946 1.427 . S
N950 C947 1.384 . S
N951 C943 1.427 . S
N951 C949 1.384 . S
H952 C958 0.930 . S
H953 C962 0.930 . S
H954 C967 0.929 . S
H955 C965 0.929 . S
H956 C960 0.929 . S
H957 C966 0.929 . S
C958 H952 0.930 . S
C958 C959 1.367 . S
C958 C966 1.378 . S
C959 C958 1.367 . S
C959 C967 1.433 . S
C960 H956 0.929 . S
C960 C962 1.378 . S
C960 C964 1.350 . S
C961 C964 1.463 . S
C961 C966 1.350 . S
C961 N969 1.427 . S
C962 H953 0.930 . S
C962 C960 1.378 . S
C962 C963 1.367 . S
C963 C962 1.367 . S
C963 C965 1.433 . S
C964 C960 1.350 . S
C964 C961 1.463 . S
C964 N968 1.427 . S
C965 H955 0.929 . S
C965 C963 1.433 . S
C965 N968 1.384 . S
C966 H957 0.929 . S
C966 C958 1.378 . S
C966 C961 1.350 . S
C967 H954 0.929 . S
C967 C959 1.433 . S
C967 N969 1.384 . S
N968 C964 1.427 . S
N968 C965 1.384 . S
N969 C961 1.427 . S
N969 C967 1.384 . S
H970 C976 0.930 . S
H971 C980 0.930 . S
H972 C985 0.929 . S
H973 C983 0.929 . S
H974 C978 0.929 . S
H975 C984 0.929 . S
C976 H970 0.930 . S
C976 C977 1.367 . S
C976 C984 1.378 . S
C977 C976 1.367 . S
C977 C985 1.433 . S
C978 H974 0.929 . S
C978 C980 1.378 . S
C978 C982 1.350 . S
C979 C982 1.463 . S
C979 C984 1.350 . S
C979 N987 1.427 . S
C980 H971 0.930 . S
C980 C978 1.378 . S
C980 C981 1.367 . S
C981 C980 1.367 . S
C981 C983 1.433 . S
C982 C978 1.350 . S
C982 C979 1.463 . S
C982 N986 1.427 . S
C983 H973 0.929 . S
C983 C981 1.433 . S
C983 N986 1.384 . S
C984 H975 0.929 . S
C984 C976 1.378 . S
C984 C979 1.350 . S
C985 H972 0.929 . S
C985 C977 1.433 . S
C985 N987 1.384 . S
N986 C982 1.427 . S
N986 C983 1.384 . S
N987 C979 1.427 . S
N987 C985 1.384 . S
H988 C994 0.930 . S
H989 C998 0.930 . S
H990 C1003 0.929 . S
H991 C1001 0.929 . S
H992 C996 0.929 . S
H993 C1002 0.929 . S
C994 H988 0.930 . S
C994 C995 1.367 . S
C994 C1002 1.378 . S
C995 C994 1.367 . S
C995 C1003 1.433 . S
C996 H992 0.929 . S
C996 C998 1.378 . S
C996 C1000 1.350 . S
C997 C1000 1.463 . S
C997 C1002 1.350 . S
C997 N1005 1.427 . S
C998 H989 0.930 . S
C998 C996 1.378 . S
C998 C999 1.367 . S
C999 C998 1.367 . S
C999 C1001 1.433 . S
C1000 C996 1.350 . S
C1000 C997 1.463 . S
C1000 N1004 1.427 . S
C1001 H991 0.929 . S
C1001 C999 1.433 . S
C1001 N1004 1.384 . S
C1002 H993 0.929 . S
C1002 C994 1.378 . S
C1002 C997 1.350 . S
C1003 H990 0.929 . S
C1003 C995 1.433 . S
C1003 N1005 1.384 . S
N1004 C1000 1.427 . S
N1004 C1001 1.384 . S
N1005 C997 1.427 . S
N1005 C1003 1.384 . S
H1006 C1012 0.930 . S
H1007 C1016 0.930 . S
H1008 C1021 0.929 . S
H1009 C1019 0.929 . S
H1010 C1014 0.929 . S
H1011 C1020 0.929 . S
C1012 H1006 0.930 . S
C1012 C1013 1.367 . S
C1012 C1020 1.378 . S
C1013 C1012 1.367 . S
C1013 C1021 1.433 . S
C1014 H1010 0.929 . S
C1014 C1016 1.378 . S
C1014 C1018 1.350 . S
C1015 C1018 1.463 . S
C1015 C1020 1.350 . S
C1015 N1023 1.427 . S
C1016 H1007 0.930 . S
C1016 C1014 1.378 . S
C1016 C1017 1.367 . S
C1017 C1016 1.367 . S
C1017 C1019 1.433 . S
C1018 C1014 1.350 . S
C1018 C1015 1.463 . S
C1018 N1022 1.427 . S
C1019 H1009 0.929 . S
C1019 C1017 1.433 . S
C1019 N1022 1.384 . S
C1020 H1011 0.929 . S
C1020 C1012 1.378 . S
C1020 C1015 1.350 . S
C1021 H1008 0.929 . S
C1021 C1013 1.433 . S
C1021 N1023 1.384 . S
N1022 C1018 1.427 . S
N1022 C1019 1.384 . S
N1023 C1015 1.427 . S
N1023 C1021 1.384 . S
H1024 C1030 0.930 . S
H1025 C1034 0.930 . S
H1026 C1039 0.929 . S
H1027 C1037 0.929 . S
H1028 C1032 0.929 . S
H1029 C1038 0.929 . S
C1030 H1024 0.930 . S
C1030 C1031 1.367 . S
C1030 C1038 1.378 . S
C1031 C1030 1.367 . S
C1031 C1039 1.433 . S
C1032 H1028 0.929 . S
C1032 C1034 1.378 . S
C1032 C1036 1.350 . S
C1033 C1036 1.463 . S
C1033 C1038 1.350 . S
C1033 N1041 1.427 . S
C1034 H1025 0.930 . S
C1034 C1032 1.378 . S
C1034 C1035 1.367 . S
C1035 C1034 1.367 . S
C1035 C1037 1.433 . S
C1036 C1032 1.350 . S
C1036 C1033 1.463 . S
C1036 N1040 1.427 . S
C1037 H1027 0.929 . S
C1037 C1035 1.433 . S
C1037 N1040 1.384 . S
C1038 H1029 0.929 . S
C1038 C1030 1.378 . S
C1038 C1033 1.350 . S
C1039 H1026 0.929 . S
C1039 C1031 1.433 . S
C1039 N1041 1.384 . S
N1040 C1036 1.427 . S
N1040 C1037 1.384 . S
N1041 C1033 1.427 . S
N1041 C1039 1.384 . S
H1042 C1048 0.930 . S
H1043 C1052 0.930 . S
H1044 C1057 0.929 . S
H1045 C1055 0.929 . S
H1046 C1050 0.929 . S
H1047 C1056 0.929 . S
C1048 H1042 0.930 . S
C1048 C1049 1.367 . S
C1048 C1056 1.378 . S
C1049 C1048 1.367 . S
C1049 C1057 1.433 . S
C1050 H1046 0.929 . S
C1050 C1052 1.378 . S
C1050 C1054 1.350 . S
C1051 C1054 1.463 . S
C1051 C1056 1.350 . S
C1051 N1059 1.427 . S
C1052 H1043 0.930 . S
C1052 C1050 1.378 . S
C1052 C1053 1.367 . S
C1053 C1052 1.367 . S
C1053 C1055 1.433 . S
C1054 C1050 1.350 . S
C1054 C1051 1.463 . S
C1054 N1058 1.427 . S
C1055 H1045 0.929 . S
C1055 C1053 1.433 . S
C1055 N1058 1.384 . S
C1056 H1047 0.929 . S
C1056 C1048 1.378 . S
C1056 C1051 1.350 . S
C1057 H1044 0.929 . S
C1057 C1049 1.433 . S
C1057 N1059 1.384 . S
N1058 C1054 1.427 . S
N1058 C1055 1.384 . S
N1059 C1051 1.427 . S
N1059 C1057 1.384 . S
H1060 C1066 0.930 . S
H1061 C1070 0.930 . S
H1062 C1075 0.929 . S
H1063 C1073 0.929 . S
H1064 C1068 0.929 . S
H1065 C1074 0.929 . S
C1066 H1060 0.930 . S
C1066 C1067 1.367 . S
C1066 C1074 1.378 . S
C1067 C1066 1.367 . S
C1067 C1075 1.433 . S
C1068 H1064 0.929 . S
C1068 C1070 1.378 . S
C1068 C1072 1.350 . S
C1069 C1072 1.463 . S
C1069 C1074 1.350 . S
C1069 N1077 1.427 . S
C1070 H1061 0.930 . S
C1070 C1068 1.378 . S
C1070 C1071 1.367 . S
C1071 C1070 1.367 . S
C1071 C1073 1.433 . S
C1072 C1068 1.350 . S
C1072 C1069 1.463 . S
C1072 N1076 1.427 . S
C1073 H1063 0.929 . S
C1073 C1071 1.433 . S
C1073 N1076 1.384 . S
C1074 H1065 0.929 . S
C1074 C1066 1.378 . S
C1074 C1069 1.350 . S
C1075 H1062 0.929 . S
C1075 C1067 1.433 . S
C1075 N1077 1.384 . S
N1076 C1072 1.427 . S
N1076 C1073 1.384 . S
N1077 C1069 1.427 . S
N1077 C1075 1.384 . S
H1078 C1084 0.930 . S
H1079 C1088 0.930 . S
H1080 C1093 0.929 . S
H1081 C1091 0.929 . S
H1082 C1086 0.929 . S
H1083 C1092 0.929 . S
C1084 H1078 0.930 . S
C1084 C1085 1.367 . S
C1084 C1092 1.378 . S
C1085 C1084 1.367 . S
C1085 C1093 1.433 . S
C1086 H1082 0.929 . S
C1086 C1088 1.378 . S
C1086 C1090 1.350 . S
C1087 C1090 1.463 . S
C1087 C1092 1.350 . S
C1087 N1095 1.427 . S
C1088 H1079 0.930 . S
C1088 C1086 1.378 . S
C1088 C1089 1.367 . S
C1089 C1088 1.367 . S
C1089 C1091 1.433 . S
C1090 C1086 1.350 . S
C1090 C1087 1.463 . S
C1090 N1094 1.427 . S
C1091 H1081 0.929 . S
C1091 C1089 1.433 . S
C1091 N1094 1.384 . S
C1092 H1083 0.929 . S
C1092 C1084 1.378 . S
C1092 C1087 1.350 . S
C1093 H1080 0.929 . S
C1093 C1085 1.433 . S
C1093 N1095 1.384 . S
N1094 C1090 1.427 . S
N1094 C1091 1.384 . S
N1095 C1087 1.427 . S
N1095 C1093 1.384 . S
H1096 C1102 0.930 . S
H1097 C1106 0.930 . S
H1098 C1111 0.929 . S
H1099 C1109 0.929 . S
H1100 C1104 0.929 . S
H1101 C1110 0.929 . S
C1102 H1096 0.930 . S
C1102 C1103 1.367 . S
C1102 C1110 1.378 . S
C1103 C1102 1.367 . S
C1103 C1111 1.433 . S
C1104 H1100 0.929 . S
C1104 C1106 1.378 . S
C1104 C1108 1.350 . S
C1105 C1108 1.463 . S
C1105 C1110 1.350 . S
C1105 N1113 1.427 . S
C1106 H1097 0.930 . S
C1106 C1104 1.378 . S
C1106 C1107 1.367 . S
C1107 C1106 1.367 . S
C1107 C1109 1.433 . S
C1108 C1104 1.350 . S
C1108 C1105 1.463 . S
C1108 N1112 1.427 . S
C1109 H1099 0.929 . S
C1109 C1107 1.433 . S
C1109 N1112 1.384 . S
C1110 H1101 0.929 . S
C1110 C1102 1.378 . S
C1110 C1105 1.350 . S
C1111 H1098 0.929 . S
C1111 C1103 1.433 . S
C1111 N1113 1.384 . S
N1112 C1108 1.427 . S
N1112 C1109 1.384 . S
N1113 C1105 1.427 . S
N1113 C1111 1.384 . S
H1114 C1120 0.930 . S
H1115 C1124 0.930 . S
H1116 C1129 0.929 . S
H1117 C1127 0.929 . S
H1118 C1122 0.929 . S
H1119 C1128 0.929 . S
C1120 H1114 0.930 . S
C1120 C1121 1.367 . S
C1120 C1128 1.378 . S
C1121 C1120 1.367 . S
C1121 C1129 1.433 . S
C1122 H1118 0.929 . S
C1122 C1124 1.378 . S
C1122 C1126 1.350 . S
C1123 C1126 1.463 . S
C1123 C1128 1.350 . S
C1123 N1131 1.427 . S
C1124 H1115 0.930 . S
C1124 C1122 1.378 . S
C1124 C1125 1.367 . S
C1125 C1124 1.367 . S
C1125 C1127 1.433 . S
C1126 C1122 1.350 . S
C1126 C1123 1.463 . S
C1126 N1130 1.427 . S
C1127 H1117 0.929 . S
C1127 C1125 1.433 . S
C1127 N1130 1.384 . S
C1128 H1119 0.929 . S
C1128 C1120 1.378 . S
C1128 C1123 1.350 . S
C1129 H1116 0.929 . S
C1129 C1121 1.433 . S
C1129 N1131 1.384 . S
N1130 C1126 1.427 . S
N1130 C1127 1.384 . S
N1131 C1123 1.427 . S
N1131 C1129 1.384 . S
H1132 C1138 0.930 . S
H1133 C1142 0.930 . S
H1134 C1147 0.929 . S
H1135 C1145 0.929 . S
H1136 C1140 0.929 . S
H1137 C1146 0.929 . S
C1138 H1132 0.930 . S
C1138 C1139 1.367 . S
C1138 C1146 1.378 . S
C1139 C1138 1.367 . S
C1139 C1147 1.433 . S
C1140 H1136 0.929 . S
C1140 C1142 1.378 . S
C1140 C1144 1.350 . S
C1141 C1144 1.463 . S
C1141 C1146 1.350 . S
C1141 N1149 1.427 . S
C1142 H1133 0.930 . S
C1142 C1140 1.378 . S
C1142 C1143 1.367 . S
C1143 C1142 1.367 . S
C1143 C1145 1.433 . S
C1144 C1140 1.350 . S
C1144 C1141 1.463 . S
C1144 N1148 1.427 . S
C1145 H1135 0.929 . S
C1145 C1143 1.433 . S
C1145 N1148 1.384 . S
C1146 H1137 0.929 . S
C1146 C1138 1.378 . S
C1146 C1141 1.350 . S
C1147 H1134 0.929 . S
C1147 C1139 1.433 . S
C1147 N1149 1.384 . S
N1148 C1144 1.427 . S
N1148 C1145 1.384 . S
N1149 C1141 1.427 . S
N1149 C1147 1.384 . S
H1150 C1156 0.930 . S
H1151 C1160 0.930 . S
H1152 C1165 0.929 . S
H1153 C1163 0.929 . S
H1154 C1158 0.929 . S
H1155 C1164 0.929 . S
C1156 H1150 0.930 . S
C1156 C1157 1.367 . S
C1156 C1164 1.378 . S
C1157 C1156 1.367 . S
C1157 C1165 1.433 . S
C1158 H1154 0.929 . S
C1158 C1160 1.378 . S
C1158 C1162 1.350 . S
C1159 C1162 1.463 . S
C1159 C1164 1.350 . S
C1159 N1167 1.427 . S
C1160 H1151 0.930 . S
C1160 C1158 1.378 . S
C1160 C1161 1.367 . S
C1161 C1160 1.367 . S
C1161 C1163 1.433 . S
C1162 C1158 1.350 . S
C1162 C1159 1.463 . S
C1162 N1166 1.427 . S
C1163 H1153 0.929 . S
C1163 C1161 1.433 . S
C1163 N1166 1.384 . S
C1164 H1155 0.929 . S
C1164 C1156 1.378 . S
C1164 C1159 1.350 . S
C1165 H1152 0.929 . S
C1165 C1157 1.433 . S
C1165 N1167 1.384 . S
N1166 C1162 1.427 . S
N1166 C1163 1.384 . S
N1167 C1159 1.427 . S
N1167 C1165 1.384 . S
H1168 C1174 0.930 . S
H1169 C1178 0.930 . S
H1170 C1183 0.929 . S
H1171 C1181 0.929 . S
H1172 C1176 0.929 . S
H1173 C1182 0.929 . S
C1174 H1168 0.930 . S
C1174 C1175 1.367 . S
C1174 C1182 1.378 . S
C1175 C1174 1.367 . S
C1175 C1183 1.433 . S
C1176 H1172 0.929 . S
C1176 C1178 1.378 . S
C1176 C1180 1.350 . S
C1177 C1180 1.463 . S
C1177 C1182 1.350 . S
C1177 N1185 1.427 . S
C1178 H1169 0.930 . S
C1178 C1176 1.378 . S
C1178 C1179 1.367 . S
C1179 C1178 1.367 . S
C1179 C1181 1.433 . S
C1180 C1176 1.350 . S
C1180 C1177 1.463 . S
C1180 N1184 1.427 . S
C1181 H1171 0.929 . S
C1181 C1179 1.433 . S
C1181 N1184 1.384 . S
C1182 H1173 0.929 . S
C1182 C1174 1.378 . S
C1182 C1177 1.350 . S
C1183 H1170 0.929 . S
C1183 C1175 1.433 . S
C1183 N1185 1.384 . S
N1184 C1180 1.427 . S
N1184 C1181 1.384 . S
N1185 C1177 1.427 . S
N1185 C1183 1.384 . S
H1186 C1192 0.930 . S
H1187 C1196 0.930 . S
H1188 C1201 0.929 . S
H1189 C1199 0.929 . S
H1190 C1194 0.929 . S
H1191 C1200 0.929 . S
C1192 H1186 0.930 . S
C1192 C1193 1.367 . S
C1192 C1200 1.378 . S
C1193 C1192 1.367 . S
C1193 C1201 1.433 . S
C1194 H1190 0.929 . S
C1194 C1196 1.378 . S
C1194 C1198 1.350 . S
C1195 C1198 1.463 . S
C1195 C1200 1.350 . S
C1195 N1203 1.427 . S
C1196 H1187 0.930 . S
C1196 C1194 1.378 . S
C1196 C1197 1.367 . S
C1197 C1196 1.367 . S
C1197 C1199 1.433 . S
C1198 C1194 1.350 . S
C1198 C1195 1.463 . S
C1198 N1202 1.427 . S
C1199 H1189 0.929 . S
C1199 C1197 1.433 . S
C1199 N1202 1.384 . S
C1200 H1191 0.929 . S
C1200 C1192 1.378 . S
C1200 C1195 1.350 . S
C1201 H1188 0.929 . S
C1201 C1193 1.433 . S
C1201 N1203 1.384 . S
N1202 C1198 1.427 . S
N1202 C1199 1.384 . S
N1203 C1195 1.427 . S
N1203 C1201 1.384 . S
H1204 C1210 0.930 . S
H1205 C1214 0.930 . S
H1206 C1219 0.929 . S
H1207 C1217 0.929 . S
H1208 C1212 0.929 . S
H1209 C1218 0.929 . S
C1210 H1204 0.930 . S
C1210 C1211 1.367 . S
C1210 C1218 1.378 . S
C1211 C1210 1.367 . S
C1211 C1219 1.433 . S
C1212 H1208 0.929 . S
C1212 C1214 1.378 . S
C1212 C1216 1.350 . S
C1213 C1216 1.463 . S
C1213 C1218 1.350 . S
C1213 N1221 1.427 . S
C1214 H1205 0.930 . S
C1214 C1212 1.378 . S
C1214 C1215 1.367 . S
C1215 C1214 1.367 . S
C1215 C1217 1.433 . S
C1216 C1212 1.350 . S
C1216 C1213 1.463 . S
C1216 N1220 1.427 . S
C1217 H1207 0.929 . S
C1217 C1215 1.433 . S
C1217 N1220 1.384 . S
C1218 H1209 0.929 . S
C1218 C1210 1.378 . S
C1218 C1213 1.350 . S
C1219 H1206 0.929 . S
C1219 C1211 1.433 . S
C1219 N1221 1.384 . S
N1220 C1216 1.427 . S
N1220 C1217 1.384 . S
N1221 C1213 1.427 . S
N1221 C1219 1.384 . S
H1222 C1228 0.930 . S
H1223 C1232 0.930 . S
H1224 C1237 0.929 . S
H1225 C1235 0.929 . S
H1226 C1230 0.929 . S
H1227 C1236 0.929 . S
C1228 H1222 0.930 . S
C1228 C1229 1.367 . S
C1228 C1236 1.378 . S
C1229 C1228 1.367 . S
C1229 C1237 1.433 . S
C1230 H1226 0.929 . S
C1230 C1232 1.378 . S
C1230 C1234 1.350 . S
C1231 C1234 1.463 . S
C1231 C1236 1.350 . S
C1231 N1239 1.427 . S
C1232 H1223 0.930 . S
C1232 C1230 1.378 . S
C1232 C1233 1.367 . S
C1233 C1232 1.367 . S
C1233 C1235 1.433 . S
C1234 C1230 1.350 . S
C1234 C1231 1.463 . S
C1234 N1238 1.427 . S
C1235 H1225 0.929 . S
C1235 C1233 1.433 . S
C1235 N1238 1.384 . S
C1236 H1227 0.929 . S
C1236 C1228 1.378 . S
C1236 C1231 1.350 . S
C1237 H1224 0.929 . S
C1237 C1229 1.433 . S
C1237 N1239 1.384 . S
N1238 C1234 1.427 . S
N1238 C1235 1.384 . S
N1239 C1231 1.427 . S
N1239 C1237 1.384 . S
H1240 C1246 0.930 . S
H1241 C1250 0.930 . S
H1242 C1255 0.929 . S
H1243 C1253 0.929 . S
H1244 C1248 0.929 . S
H1245 C1254 0.929 . S
C1246 H1240 0.930 . S
C1246 C1247 1.367 . S
C1246 C1254 1.378 . S
C1247 C1246 1.367 . S
C1247 C1255 1.433 . S
C1248 H1244 0.929 . S
C1248 C1250 1.378 . S
C1248 C1252 1.350 . S
C1249 C1252 1.463 . S
C1249 C1254 1.350 . S
C1249 N1257 1.427 . S
C1250 H1241 0.930 . S
C1250 C1248 1.378 . S
C1250 C1251 1.367 . S
C1251 C1250 1.367 . S
C1251 C1253 1.433 . S
C1252 C1248 1.350 . S
C1252 C1249 1.463 . S
C1252 N1256 1.427 . S
C1253 H1243 0.929 . S
C1253 C1251 1.433 . S
C1253 N1256 1.384 . S
C1254 H1245 0.929 . S
C1254 C1246 1.378 . S
C1254 C1249 1.350 . S
C1255 H1242 0.929 . S
C1255 C1247 1.433 . S
C1255 N1257 1.384 . S
N1256 C1252 1.427 . S
N1256 C1253 1.384 . S
N1257 C1249 1.427 . S
N1257 C1255 1.384 . S
H1258 C1264 0.930 . S
H1259 C1268 0.930 . S
H1260 C1273 0.929 . S
H1261 C1271 0.929 . S
H1262 C1266 0.929 . S
H1263 C1272 0.929 . S
C1264 H1258 0.930 . S
C1264 C1265 1.367 . S
C1264 C1272 1.378 . S
C1265 C1264 1.367 . S
C1265 C1273 1.433 . S
C1266 H1262 0.929 . S
C1266 C1268 1.378 . S
C1266 C1270 1.350 . S
C1267 C1270 1.463 . S
C1267 C1272 1.350 . S
C1267 N1275 1.427 . S
C1268 H1259 0.930 . S
C1268 C1266 1.378 . S
C1268 C1269 1.367 . S
C1269 C1268 1.367 . S
C1269 C1271 1.433 . S
C1270 C1266 1.350 . S
C1270 C1267 1.463 . S
C1270 N1274 1.427 . S
C1271 H1261 0.929 . S
C1271 C1269 1.433 . S
C1271 N1274 1.384 . S
C1272 H1263 0.929 . S
C1272 C1264 1.378 . S
C1272 C1267 1.350 . S
C1273 H1260 0.929 . S
C1273 C1265 1.433 . S
C1273 N1275 1.384 . S
N1274 C1270 1.427 . S
N1274 C1271 1.384 . S
N1275 C1267 1.427 . S
N1275 C1273 1.384 . S
H1276 C1282 0.930 . S
H1277 C1286 0.930 . S
H1278 C1291 0.929 . S
H1279 C1289 0.929 . S
H1280 C1284 0.929 . S
H1281 C1290 0.929 . S
C1282 H1276 0.930 . S
C1282 C1283 1.367 . S
C1282 C1290 1.378 . S
C1283 C1282 1.367 . S
C1283 C1291 1.433 . S
C1284 H1280 0.929 . S
C1284 C1286 1.378 . S
C1284 C1288 1.350 . S
C1285 C1288 1.463 . S
C1285 C1290 1.350 . S
C1285 N1293 1.427 . S
C1286 H1277 0.930 . S
C1286 C1284 1.378 . S
C1286 C1287 1.367 . S
C1287 C1286 1.367 . S
C1287 C1289 1.433 . S
C1288 C1284 1.350 . S
C1288 C1285 1.463 . S
C1288 N1292 1.427 . S
C1289 H1279 0.929 . S
C1289 C1287 1.433 . S
C1289 N1292 1.384 . S
C1290 H1281 0.929 . S
C1290 C1282 1.378 . S
C1290 C1285 1.350 . S
C1291 H1278 0.929 . S
C1291 C1283 1.433 . S
C1291 N1293 1.384 . S
N1292 C1288 1.427 . S
N1292 C1289 1.384 . S
N1293 C1285 1.427 . S
N1293 C1291 1.384 . S
H1294 C1300 0.930 . S
H1295 C1304 0.930 . S
H1296 C1309 0.929 . S
H1297 C1307 0.929 . S
H1298 C1302 0.929 . S
H1299 C1308 0.929 . S
C1300 H1294 0.930 . S
C1300 C1301 1.367 . S
C1300 C1308 1.378 . S
C1301 C1300 1.367 . S
C1301 C1309 1.433 . S
C1302 H1298 0.929 . S
C1302 C1304 1.378 . S
C1302 C1306 1.350 . S
C1303 C1306 1.463 . S
C1303 C1308 1.350 . S
C1303 N1311 1.427 . S
C1304 H1295 0.930 . S
C1304 C1302 1.378 . S
C1304 C1305 1.367 . S
C1305 C1304 1.367 . S
C1305 C1307 1.433 . S
C1306 C1302 1.350 . S
C1306 C1303 1.463 . S
C1306 N1310 1.427 . S
C1307 H1297 0.929 . S
C1307 C1305 1.433 . S
C1307 N1310 1.384 . S
C1308 H1299 0.929 . S
C1308 C1300 1.378 . S
C1308 C1303 1.350 . S
C1309 H1296 0.929 . S
C1309 C1301 1.433 . S
C1309 N1311 1.384 . S
N1310 C1306 1.427 . S
N1310 C1307 1.384 . S
N1311 C1303 1.427 . S
N1311 C1309 1.384 . S
H1312 C1318 0.930 . S
H1313 C1322 0.930 . S
H1314 C1327 0.929 . S
H1315 C1325 0.929 . S
H1316 C1320 0.929 . S
H1317 C1326 0.929 . S
C1318 H1312 0.930 . S
C1318 C1319 1.367 . S
C1318 C1326 1.378 . S
C1319 C1318 1.367 . S
C1319 C1327 1.433 . S
C1320 H1316 0.929 . S
C1320 C1322 1.378 . S
C1320 C1324 1.350 . S
C1321 C1324 1.463 . S
C1321 C1326 1.350 . S
C1321 N1329 1.427 . S
C1322 H1313 0.930 . S
C1322 C1320 1.378 . S
C1322 C1323 1.367 . S
C1323 C1322 1.367 . S
C1323 C1325 1.433 . S
C1324 C1320 1.350 . S
C1324 C1321 1.463 . S
C1324 N1328 1.427 . S
C1325 H1315 0.929 . S
C1325 C1323 1.433 . S
C1325 N1328 1.384 . S
C1326 H1317 0.929 . S
C1326 C1318 1.378 . S
C1326 C1321 1.350 . S
C1327 H1314 0.929 . S
C1327 C1319 1.433 . S
C1327 N1329 1.384 . S
N1328 C1324 1.427 . S
N1328 C1325 1.384 . S
N1329 C1321 1.427 . S
N1329 C1327 1.384 . S
H1330 C1336 0.930 . S
H1331 C1340 0.930 . S
H1332 C1345 0.929 . S
H1333 C1343 0.929 . S
H1334 C1338 0.929 . S
H1335 C1344 0.929 . S
C1336 H1330 0.930 . S
C1336 C1337 1.367 . S
C1336 C1344 1.378 . S
C1337 C1336 1.367 . S
C1337 C1345 1.433 . S
C1338 H1334 0.929 . S
C1338 C1340 1.378 . S
C1338 C1342 1.350 . S
C1339 C1342 1.463 . S
C1339 C1344 1.350 . S
C1339 N1347 1.427 . S
C1340 H1331 0.930 . S
C1340 C1338 1.378 . S
C1340 C1341 1.367 . S
C1341 C1340 1.367 . S
C1341 C1343 1.433 . S
C1342 C1338 1.350 . S
C1342 C1339 1.463 . S
C1342 N1346 1.427 . S
C1343 H1333 0.929 . S
C1343 C1341 1.433 . S
C1343 N1346 1.384 . S
C1344 H1335 0.929 . S
C1344 C1336 1.378 . S
C1344 C1339 1.350 . S
C1345 H1332 0.929 . S
C1345 C1337 1.433 . S
C1345 N1347 1.384 . S
N1346 C1342 1.427 . S
N1346 C1343 1.384 . S
N1347 C1339 1.427 . S
N1347 C1345 1.384 . S
C495 C195 1.585 . S
C491 C9 1.559 . S
C513 C173 2.170 . S
C509 C28 2.190 . S
C531 C170 0.604 . S
C527 C49 0.605 . S
C545 C79 2.191 . S
C549 C182 2.189 . S
C563 C99 2.185 . S
C567 C165 2.163 . S
C585 C187 0.614 . S
C581 C101 0.626 . S
C599 C128 2.201 . S
C603 C192 2.185 . S
C617 C141 1.565 . S
C621 C188 1.582 . S
C639 C246 1.429 . S
C635 C16 1.442 . S
C653 C26 1.013 . S
C657 C296 1.056 . S
C675 C219 1.397 . S
C671 C56 1.416 . S
C693 C295 0.654 . S
C689 C69 0.662 . S
C707 C89 0.693 . S
C711 C224 0.664 . S
C729 C290 2.170 . S
C725 C108 2.179 . S
C743 C126 1.037 . S
C747 C249 1.084 . S
C761 C148 2.191 . S
C765 C281 2.170 . S
C779 C19 2.201 . S
C783 C273 2.178 . S
C797 C96 0.998 . S
C801 C303 1.046 . S
C819 C227 1.410 . S
C815 C106 1.426 . S
C837 C278 0.660 . S
C833 C121 0.692 . S
C851 C146 1.443 . S
C855 C236 1.425 . S
C869 C59 2.194 . S
C873 C300 2.185 . S
C891 C242 1.076 . S
C887 C76 1.015 . S
C905 C21 0.672 . S
C909 C241 0.675 . S
C923 C149 1.562 . S
C927 C357 1.582 . S
C941 C88 2.187 . S
C945 C335 2.169 . S
C963 C332 0.602 . S
C959 C109 0.626 . S
C981 C344 2.178 . S
C977 C139 2.198 . S
C995 C39 2.182 . S
C999 C327 2.170 . S
C1017 C349 0.601 . S
C1013 C41 0.618 . S
C1031 C68 2.192 . S
C1035 C354 2.191 . S
C1049 C1 1.569 . S
C1053 C350 1.584 . S
C1067 C156 1.444 . S
C1071 C408 1.431 . S
C1089 C458 1.056 . S
C1085 C86 1.013 . S
C1103 C116 1.431 . S
C1107 C381 1.412 . S
C1121 C129 0.656 . S
C1125 C457 0.656 . S
C1143 C386 0.665 . S
C1139 C29 0.662 . S
C1157 C48 2.181 . S
C1161 C452 2.167 . S
C1179 C411 1.081 . S
C1175 C66 1.018 . S
C1197 C443 2.178 . S
C1193 C8 2.193 . S
C1215 C435 2.170 . S
C1211 C159 2.191 . S
C1229 C36 0.997 . S
C1233 C465 1.046 . S
C1247 C46 1.438 . S
C1251 C389 1.421 . S
C1269 C440 0.664 . S
C1265 C61 0.675 . S
C1283 C6 1.445 . S
C1287 C398 1.429 . S
C1301 C119 2.189 . S
C1305 C462 2.178 . S
C1323 C404 1.087 . S
C1319 C136 1.026 . S
C1341 C403 0.669 . S
C1337 C81 0.694 . S
